# Generated by pormake.
# Topology eea, (3,6)-cn, num edge types: 1
# Building blocks:
#     Node 0, Type 0, BuildingBlock: PAMTOO_clean_linker_0, # of connection points: 3
#     Node 1, Type 0, BuildingBlock: PAMTOO_clean_linker_0, # of connection points: 3
#     Node 2, Type 0, BuildingBlock: PAMTOO_clean_linker_0, # of connection points: 3
#     Node 3, Type 0, BuildingBlock: PAMTOO_clean_linker_0, # of connection points: 3
#     Node 4, Type 0, BuildingBlock: PAMTOO_clean_linker_0, # of connection points: 3
#     Node 5, Type 0, BuildingBlock: PAMTOO_clean_linker_0, # of connection points: 3
#     Node 6, Type 0, BuildingBlock: PAMTOO_clean_linker_0, # of connection points: 3
#     Node 7, Type 0, BuildingBlock: PAMTOO_clean_linker_0, # of connection points: 3
#     Node 8, Type 0, BuildingBlock: PAMTOO_clean_linker_0, # of connection points: 3
#     Node 9, Type 0, BuildingBlock: PAMTOO_clean_linker_0, # of connection points: 3
#     Node 10, Type 0, BuildingBlock: PAMTOO_clean_linker_0, # of connection points: 3
#     Node 11, Type 0, BuildingBlock: PAMTOO_clean_linker_0, # of connection points: 3
#     Node 12, Type 0, BuildingBlock: PAMTOO_clean_linker_0, # of connection points: 3
#     Node 13, Type 0, BuildingBlock: PAMTOO_clean_linker_0, # of connection points: 3
#     Node 14, Type 0, BuildingBlock: PAMTOO_clean_linker_0, # of connection points: 3
#     Node 15, Type 0, BuildingBlock: PAMTOO_clean_linker_0, # of connection points: 3
#     Node 16, Type 0, BuildingBlock: PAMTOO_clean_linker_0, # of connection points: 3
#     Node 17, Type 0, BuildingBlock: PAMTOO_clean_linker_0, # of connection points: 3
#     Node 18, Type 1, BuildingBlock: KUMJIN_clean_sbu_0, # of connection points: 6
#     Node 19, Type 1, BuildingBlock: KUMJIN_clean_sbu_0, # of connection points: 6
#     Node 20, Type 1, BuildingBlock: KUMJIN_clean_sbu_0, # of connection points: 6
#     Node 21, Type 1, BuildingBlock: KUMJIN_clean_sbu_0, # of connection points: 6
#     Node 22, Type 1, BuildingBlock: KUMJIN_clean_sbu_0, # of connection points: 6
#     Node 23, Type 1, BuildingBlock: KUMJIN_clean_sbu_0, # of connection points: 6
#     Node 24, Type 1, BuildingBlock: KUMJIN_clean_sbu_0, # of connection points: 6
#     Node 25, Type 1, BuildingBlock: KUMJIN_clean_sbu_0, # of connection points: 6
#     Node 26, Type 1, BuildingBlock: KUMJIN_clean_sbu_0, # of connection points: 6
#     Edge 27, Type (0, 1), BuildingBlock: ZUJKAS_clean_linker_0, # of connection points: 2
#     Edge 28, Type (0, 1), BuildingBlock: ZUJKAS_clean_linker_0, # of connection points: 2
#     Edge 29, Type (0, 1), BuildingBlock: ZUJKAS_clean_linker_0, # of connection points: 2
#     Edge 30, Type (0, 1), BuildingBlock: ZUJKAS_clean_linker_0, # of connection points: 2
#     Edge 31, Type (0, 1), BuildingBlock: ZUJKAS_clean_linker_0, # of connection points: 2
#     Edge 32, Type (0, 1), BuildingBlock: ZUJKAS_clean_linker_0, # of connection points: 2
#     Edge 33, Type (0, 1), BuildingBlock: ZUJKAS_clean_linker_0, # of connection points: 2
#     Edge 34, Type (0, 1), BuildingBlock: ZUJKAS_clean_linker_0, # of connection points: 2
#     Edge 35, Type (0, 1), BuildingBlock: ZUJKAS_clean_linker_0, # of connection points: 2
#     Edge 36, Type (0, 1), BuildingBlock: ZUJKAS_clean_linker_0, # of connection points: 2
#     Edge 37, Type (0, 1), BuildingBlock: ZUJKAS_clean_linker_0, # of connection points: 2
#     Edge 38, Type (0, 1), BuildingBlock: ZUJKAS_clean_linker_0, # of connection points: 2
#     Edge 39, Type (0, 1), BuildingBlock: ZUJKAS_clean_linker_0, # of connection points: 2
#     Edge 40, Type (0, 1), BuildingBlock: ZUJKAS_clean_linker_0, # of connection points: 2
#     Edge 41, Type (0, 1), BuildingBlock: ZUJKAS_clean_linker_0, # of connection points: 2
#     Edge 42, Type (0, 1), BuildingBlock: ZUJKAS_clean_linker_0, # of connection points: 2
#     Edge 43, Type (0, 1), BuildingBlock: ZUJKAS_clean_linker_0, # of connection points: 2
#     Edge 44, Type (0, 1), BuildingBlock: ZUJKAS_clean_linker_0, # of connection points: 2
#     Edge 45, Type (0, 1), BuildingBlock: ZUJKAS_clean_linker_0, # of connection points: 2
#     Edge 46, Type (0, 1), BuildingBlock: ZUJKAS_clean_linker_0, # of connection points: 2
#     Edge 47, Type (0, 1), BuildingBlock: ZUJKAS_clean_linker_0, # of connection points: 2
#     Edge 48, Type (0, 1), BuildingBlock: ZUJKAS_clean_linker_0, # of connection points: 2
#     Edge 49, Type (0, 1), BuildingBlock: ZUJKAS_clean_linker_0, # of connection points: 2
#     Edge 50, Type (0, 1), BuildingBlock: ZUJKAS_clean_linker_0, # of connection points: 2
#     Edge 51, Type (0, 1), BuildingBlock: ZUJKAS_clean_linker_0, # of connection points: 2
#     Edge 52, Type (0, 1), BuildingBlock: ZUJKAS_clean_linker_0, # of connection points: 2
#     Edge 53, Type (0, 1), BuildingBlock: ZUJKAS_clean_linker_0, # of connection points: 2
#     Edge 54, Type (0, 1), BuildingBlock: ZUJKAS_clean_linker_0, # of connection points: 2
#     Edge 55, Type (0, 1), BuildingBlock: ZUJKAS_clean_linker_0, # of connection points: 2
#     Edge 56, Type (0, 1), BuildingBlock: ZUJKAS_clean_linker_0, # of connection points: 2
#     Edge 57, Type (0, 1), BuildingBlock: ZUJKAS_clean_linker_0, # of connection points: 2
#     Edge 58, Type (0, 1), BuildingBlock: ZUJKAS_clean_linker_0, # of connection points: 2
#     Edge 59, Type (0, 1), BuildingBlock: ZUJKAS_clean_linker_0, # of connection points: 2
#     Edge 60, Type (0, 1), BuildingBlock: ZUJKAS_clean_linker_0, # of connection points: 2
#     Edge 61, Type (0, 1), BuildingBlock: ZUJKAS_clean_linker_0, # of connection points: 2
#     Edge 62, Type (0, 1), BuildingBlock: ZUJKAS_clean_linker_0, # of connection points: 2
#     Edge 63, Type (0, 1), BuildingBlock: ZUJKAS_clean_linker_0, # of connection points: 2
#     Edge 64, Type (0, 1), BuildingBlock: ZUJKAS_clean_linker_0, # of connection points: 2
#     Edge 65, Type (0, 1), BuildingBlock: ZUJKAS_clean_linker_0, # of connection points: 2
#     Edge 66, Type (0, 1), BuildingBlock: ZUJKAS_clean_linker_0, # of connection points: 2
#     Edge 67, Type (0, 1), BuildingBlock: ZUJKAS_clean_linker_0, # of connection points: 2
#     Edge 68, Type (0, 1), BuildingBlock: ZUJKAS_clean_linker_0, # of connection points: 2
#     Edge 69, Type (0, 1), BuildingBlock: ZUJKAS_clean_linker_0, # of connection points: 2
#     Edge 70, Type (0, 1), BuildingBlock: ZUJKAS_clean_linker_0, # of connection points: 2
#     Edge 71, Type (0, 1), BuildingBlock: ZUJKAS_clean_linker_0, # of connection points: 2
#     Edge 72, Type (0, 1), BuildingBlock: ZUJKAS_clean_linker_0, # of connection points: 2
#     Edge 73, Type (0, 1), BuildingBlock: ZUJKAS_clean_linker_0, # of connection points: 2
#     Edge 74, Type (0, 1), BuildingBlock: ZUJKAS_clean_linker_0, # of connection points: 2
#     Edge 75, Type (0, 1), BuildingBlock: ZUJKAS_clean_linker_0, # of connection points: 2
#     Edge 76, Type (0, 1), BuildingBlock: ZUJKAS_clean_linker_0, # of connection points: 2
#     Edge 77, Type (0, 1), BuildingBlock: ZUJKAS_clean_linker_0, # of connection points: 2
#     Edge 78, Type (0, 1), BuildingBlock: ZUJKAS_clean_linker_0, # of connection points: 2
#     Edge 79, Type (0, 1), BuildingBlock: ZUJKAS_clean_linker_0, # of connection points: 2
#     Edge 80, Type (0, 1), BuildingBlock: ZUJKAS_clean_linker_0, # of connection points: 2
# Relax obj value: 0.023
# Max RMSD: 0.153
# Mean RMSD: 0.113
data_MOF--net-eea--node1-KUMJIN_clean_sbu_0--node2-PAMTOO_clean_linker_0--edge1-ZUJKAS_clean_linker_0
_symmetry_space_group_name_H-M    P1
_symmetry_Int_Tables_number       1
_symmetry_cell_setting            triclinic
loop_
_symmetry_equiv_pos_as_xyz
'x, y, z'
_cell_length_a     71.134749
_cell_length_b     72.796683
_cell_length_c     82.35629
_cell_angle_alpha  90.149919
_cell_angle_beta   90.107725
_cell_angle_gamma 119.99597
loop_
_atom_site_label
_atom_site_type_symbol
_atom_site_fract_x
_atom_site_fract_y
_atom_site_fract_z
_atom_type_partial_charge
H0 H 0.24347 0.08256 0.43339 0.0
H1 H 0.24304 0.14142 0.43045 0.0
H2 H 0.21319 0.09487 0.39277 0.0
H3 H 0.2327 0.13696 0.3794 0.0
C4 C 0.23508 0.14606 0.39082 0.0
O5 O 0.22218 0.13243 0.40285 0.0
H6 H 0.2525 0.1536 0.39443 0.0
C7 C 0.23898 0.09286 0.42709 0.0
C8 C 0.22778 0.08621 0.41222 0.0
C9 C 0.24453 0.11268 0.43389 0.0
C10 C 0.23873 0.12596 0.42559 0.0
C11 C 0.2276 0.11951 0.41077 0.0
C12 C 0.22202 0.09968 0.40416 0.0
H13 H 0.94182 0.16005 0.43194 0.0
H14 H 0.88388 0.09875 0.42789 0.0
H15 H 0.92879 0.12277 0.38834 0.0
H16 H 0.88318 0.09623 0.37638 0.0
C17 C 0.8759 0.08917 0.38831 0.0
O18 O 0.89202 0.09098 0.39867 0.0
H19 H 0.86816 0.0981 0.39317 0.0
C20 C 0.93164 0.14559 0.42519 0.0
C21 C 0.93784 0.14329 0.40944 0.0
C22 C 0.91206 0.12978 0.43201 0.0
C23 C 0.89883 0.11137 0.42286 0.0
C24 C 0.90483 0.10892 0.40717 0.0
C25 C 0.92424 0.12488 0.40046 0.0
H26 H 0.86085 0.78499 0.43339 0.0
H27 H 0.9238 0.79023 0.43087 0.0
H28 H 0.90012 0.81024 0.39053 0.0
H29 H 0.92531 0.78875 0.38088 0.0
C30 C 0.93517 0.7919 0.39213 0.0
O31 O 0.9327 0.80626 0.40164 0.0
H32 H 0.92915 0.77668 0.39876 0.0
C33 C 0.87569 0.78945 0.4268 0.0
C34 C 0.87832 0.7979 0.41108 0.0
C35 C 0.89192 0.7866 0.43411 0.0
C36 C 0.91107 0.79226 0.42545 0.0
C37 C 0.91404 0.80077 0.40977 0.0
C38 C 0.89775 0.80374 0.40266 0.0
H39 H 0.08572 0.23086 0.59898 0.0
H40 H 0.14206 0.22343 0.60056 0.0
H41 H 0.09817 0.20308 0.64088 0.0
H42 H 0.14515 0.22281 0.65058 0.0
C43 C 0.15159 0.22033 0.63899 0.0
O44 O 0.13426 0.2064 0.62937 0.0
H45 H 0.16095 0.23592 0.63282 0.0
C46 C 0.09581 0.22599 0.6054 0.0
C47 C 0.0895 0.21679 0.6209 0.0
C48 C 0.11468 0.22846 0.59786 0.0
C49 C 0.12731 0.22144 0.60602 0.0
C50 C 0.12146 0.21247 0.62153 0.0
C51 C 0.1025 0.20997 0.62887 0.0
H52 H 0.78301 0.85466 0.59548 0.0
H53 H 0.78504 0.91465 0.59919 0.0
H54 H 0.80811 0.89307 0.63868 0.0
H55 H 0.78754 0.91609 0.65052 0.0
C56 C 0.78726 0.92384 0.63898 0.0
O57 O 0.80193 0.92344 0.62827 0.0
H58 H 0.77046 0.91485 0.63395 0.0
C59 C 0.78679 0.86881 0.60236 0.0
C60 C 0.796 0.87179 0.61797 0.0
C61 C 0.78282 0.88417 0.59541 0.0
C62 C 0.78829 0.90275 0.60419 0.0
C63 C 0.79738 0.90583 0.61973 0.0
C64 C 0.80137 0.89052 0.62653 0.0
H65 H 0.16129 0.92781 0.59746 0.0
H66 H 0.09978 0.86974 0.59952 0.0
H67 H 0.12093 0.91291 0.63986 0.0
H68 H 0.09787 0.86853 0.64978 0.0
C69 C 0.0883 0.86112 0.63854 0.0
O70 O 0.08969 0.87684 0.62841 0.0
H71 H 0.09538 0.85225 0.63253 0.0
C72 C 0.14668 0.91709 0.60401 0.0
C73 C 0.14334 0.92271 0.61965 0.0
C74 C 0.1312 0.89802 0.59655 0.0
C75 C 0.11186 0.88464 0.60488 0.0
C76 C 0.10821 0.89007 0.62043 0.0
C77 C 0.12385 0.90908 0.62775 0.0
H78 H 0.90706 0.41624 0.76522 0.0
H79 H 0.90405 0.47373 0.76137 0.0
H80 H 0.88419 0.43049 0.72119 0.0
H81 H 0.90472 0.47395 0.7098 0.0
C82 C 0.90442 0.48164 0.72141 0.0
O83 O 0.88929 0.46657 0.73166 0.0
H84 H 0.92098 0.48899 0.72687 0.0
C85 C 0.9032 0.42658 0.75832 0.0
C86 C 0.89513 0.42086 0.74239 0.0
C87 C 0.90654 0.44561 0.76536 0.0
C88 C 0.90169 0.459 0.75623 0.0
C89 C 0.89362 0.45344 0.74039 0.0
C90 C 0.89018 0.43438 0.73355 0.0
H91 H 0.60669 0.49639 0.76425 0.0
H92 H 0.5509 0.43353 0.76122 0.0
H93 H 0.59563 0.45779 0.7216 0.0
H94 H 0.55105 0.42995 0.70953 0.0
C95 C 0.54355 0.42327 0.72149 0.0
O96 O 0.55951 0.42552 0.73222 0.0
H97 H 0.53568 0.43233 0.72581 0.0
C98 C 0.59704 0.48167 0.75767 0.0
C99 C 0.60368 0.47921 0.74209 0.0
C100 C 0.57802 0.46536 0.76477 0.0
C101 C 0.56554 0.44641 0.75602 0.0
C102 C 0.57191 0.44376 0.74053 0.0
C103 C 0.59101 0.46001 0.73366 0.0
H104 H 0.52828 0.11622 0.76551 0.0
H105 H 0.59143 0.12216 0.76247 0.0
H106 H 0.56934 0.14655 0.72418 0.0
H107 H 0.59649 0.12961 0.71076 0.0
C108 C 0.60281 0.12758 0.72258 0.0
O109 O 0.60089 0.14042 0.7341 0.0
H110 H 0.59274 0.11059 0.72608 0.0
C111 C 0.54352 0.12194 0.75918 0.0
C112 C 0.54667 0.13222 0.74411 0.0
C113 C 0.55956 0.11845 0.76612 0.0
C114 C 0.57879 0.12461 0.75741 0.0
C115 C 0.58212 0.13442 0.74223 0.0
C116 C 0.56623 0.13843 0.7357 0.0
H117 H 0.75128 0.56244 0.93157 0.0
H118 H 0.80796 0.55561 0.93355 0.0
H119 H 0.76285 0.5334 0.97309 0.0
H120 H 0.80743 0.54805 0.98512 0.0
C121 C 0.81507 0.55 0.97301 0.0
O122 O 0.79926 0.53724 0.96187 0.0
H123 H 0.82232 0.56702 0.96961 0.0
C124 C 0.76129 0.5575 0.93802 0.0
C125 C 0.75462 0.5478 0.95333 0.0
C126 C 0.78042 0.56037 0.93068 0.0
C127 C 0.79301 0.55331 0.93885 0.0
C128 C 0.78669 0.54364 0.9541 0.0
C129 C 0.76745 0.54073 0.96124 0.0
H130 H 0.4496 0.18778 0.92836 0.0
H131 H 0.45236 0.24804 0.93284 0.0
H132 H 0.47858 0.22716 0.97064 0.0
H133 H 0.45825 0.24996 0.98422 0.0
C134 C 0.45676 0.25718 0.97276 0.0
O135 O 0.47085 0.25697 0.96138 0.0
H136 H 0.43962 0.24759 0.96849 0.0
C137 C 0.45438 0.20227 0.93511 0.0
C138 C 0.46468 0.20545 0.9503 0.0
C139 C 0.45003 0.2176 0.92858 0.0
C140 C 0.45594 0.2362 0.93748 0.0
C141 C 0.46594 0.23939 0.95267 0.0
C142 C 0.47053 0.22423 0.95896 0.0
H143 H 0.82302 0.26138 0.92776 0.0
H144 H 0.76317 0.20196 0.93112 0.0
H145 H 0.78291 0.24675 0.97034 0.0
H146 H 0.76034 0.2033 0.98265 0.0
C147 C 0.75285 0.19492 0.97107 0.0
O148 O 0.75311 0.20926 0.96 0.0
H149 H 0.76266 0.18794 0.96647 0.0
C150 C 0.80835 0.25087 0.93434 0.0
C151 C 0.80493 0.25677 0.94987 0.0
C152 C 0.79342 0.23122 0.92739 0.0
C153 C 0.77492 0.21716 0.93626 0.0
C154 C 0.77123 0.22278 0.95172 0.0
C155 C 0.78613 0.24254 0.95846 0.0
H156 H 0.56793 0.74701 0.10061 0.0
H157 H 0.56937 0.80633 0.09432 0.0
H158 H 0.54908 0.76185 0.05486 0.0
H159 H 0.57116 0.80541 0.04289 0.0
C160 C 0.57058 0.81336 0.05427 0.0
O161 O 0.55496 0.79859 0.06441 0.0
H162 H 0.58692 0.82062 0.06009 0.0
C163 C 0.56531 0.75767 0.09301 0.0
C164 C 0.55817 0.75193 0.07689 0.0
C165 C 0.56948 0.77726 0.09937 0.0
C166 C 0.56619 0.79114 0.08958 0.0
C167 C 0.55856 0.78536 0.07365 0.0
C168 C 0.55453 0.76584 0.06733 0.0
H169 H 0.27269 0.82699 0.09852 0.0
H170 H 0.21838 0.76336 0.09587 0.0
H171 H 0.2642 0.78754 0.05682 0.0
H172 H 0.22042 0.75892 0.04415 0.0
C173 C 0.21249 0.75247 0.05604 0.0
O174 O 0.2281 0.755 0.06725 0.0
H175 H 0.20444 0.76158 0.0598 0.0
C176 C 0.26353 0.81213 0.09197 0.0
C177 C 0.27094 0.80945 0.07679 0.0
C178 C 0.24475 0.79556 0.09905 0.0
C179 C 0.2331 0.77619 0.09072 0.0
C180 C 0.24003 0.77342 0.07547 0.0
C181 C 0.25906 0.78988 0.06865 0.0
H182 H 0.19322 0.44855 0.09957 0.0
H183 H 0.25707 0.45565 0.09788 0.0
H184 H 0.23348 0.47551 0.05744 0.0
H185 H 0.2588 0.45433 0.04789 0.0
C186 C 0.26871 0.45751 0.05911 0.0
O187 O 0.26609 0.47172 0.06871 0.0
H188 H 0.26281 0.44227 0.06569 0.0
C189 C 0.20838 0.45356 0.09327 0.0
C190 C 0.21127 0.46243 0.07768 0.0
C191 C 0.22473 0.45105 0.1008 0.0
C192 C 0.24419 0.45735 0.09235 0.0
C193 C 0.2473 0.46602 0.07672 0.0
C194 C 0.23096 0.46879 0.0695 0.0
H195 H 0.41717 0.8944 0.26385 0.0
H196 H 0.47388 0.88769 0.26652 0.0
H197 H 0.42872 0.86611 0.30591 0.0
H198 H 0.47588 0.88734 0.31677 0.0
C199 C 0.48276 0.88519 0.30528 0.0
O200 O 0.46582 0.87111 0.29543 0.0
H201 H 0.49198 0.90088 0.29922 0.0
C202 C 0.42675 0.8889 0.27023 0.0
C203 C 0.41999 0.87944 0.28564 0.0
C204 C 0.44606 0.89192 0.26309 0.0
C205 C 0.45904 0.88576 0.27177 0.0
C206 C 0.45297 0.87685 0.28727 0.0
C207 C 0.43345 0.87356 0.29412 0.0
H208 H 0.1191 0.52283 0.26192 0.0
H209 H 0.12157 0.58293 0.26652 0.0
H210 H 0.14685 0.56156 0.30468 0.0
H211 H 0.12616 0.58421 0.31804 0.0
C212 C 0.1248 0.59142 0.30652 0.0
O213 O 0.13924 0.59145 0.29535 0.0
H214 H 0.10778 0.58168 0.30205 0.0
C215 C 0.12368 0.53721 0.26876 0.0
C216 C 0.13358 0.54018 0.28409 0.0
C217 C 0.11945 0.55259 0.2622 0.0
C218 C 0.12507 0.57105 0.2712 0.0
C219 C 0.13466 0.57403 0.28654 0.0
C220 C 0.13913 0.5588 0.29287 0.0
H221 H 0.49366 0.59321 0.26382 0.0
H222 H 0.43199 0.53536 0.26614 0.0
H223 H 0.45364 0.57871 0.30639 0.0
H224 H 0.43041 0.53346 0.31592 0.0
C225 C 0.42041 0.52646 0.30479 0.0
O226 O 0.42217 0.54269 0.29507 0.0
H227 H 0.42662 0.51718 0.29824 0.0
C228 C 0.47907 0.58256 0.27044 0.0
C229 C 0.47587 0.58831 0.28607 0.0
C230 C 0.4635 0.56348 0.26307 0.0
C231 C 0.44417 0.55025 0.27145 0.0
C232 C 0.44069 0.55578 0.28702 0.0
C233 C 0.45645 0.57477 0.29427 0.0
Eu234 Eu 0.49626 0.99422 0.99341 0.0
C235 C 0.54119 0.06428 0.04718 0.0
C236 C 0.57916 0.07429 0.0469 0.0
C237 C 0.56869 0.10006 0.05496 0.0
C238 C 0.55715 0.05918 0.04415 0.0
C239 C 0.54673 0.08463 0.05296 0.0
C240 C 0.58489 0.09488 0.05195 0.0
C241 C 0.50844 0.07237 0.05577 0.0
N242 N 0.52015 0.04892 0.04538 0.0
C243 C 0.50377 0.05239 0.05012 0.0
C244 C 0.53002 0.08865 0.05702 0.0
Eu245 Eu 0.51345 0.0157 0.03526 0.0
N246 N 0.55105 0.03908 0.03943 0.0
C247 C 0.56603 0.03264 0.03829 0.0
C248 C 0.5947 0.06804 0.04499 0.0
C249 C 0.58807 0.04705 0.04086 0.0
H250 H 0.48706 0.03987 0.04911 0.0
H251 H 0.59991 0.04194 0.03963 0.0
H252 H 0.60174 0.10676 0.05396 0.0
H253 H 0.49541 0.0752 0.05916 0.0
H254 H 0.56116 0.0165 0.03507 0.0
H255 H 0.41074 0.97229 0.99039 0.0
H256 H 0.61177 0.07915 0.04704 0.0
H257 H 0.51982 0.96787 0.9788 0.0
H258 H 0.4498 0.99606 0.99472 0.0
H259 H 0.50932 0.93194 0.96868 0.0
H260 H 0.5733 0.11584 0.05925 0.0
H261 H 0.39685 0.93493 0.98249 0.0
H262 H 0.40459 0.9057 0.97568 0.0
H263 H 0.5336 0.10409 0.06148 0.0
H264 H 0.43141 0.89459 0.97 0.0
N265 N 0.45822 0.97227 0.99002 0.0
C266 C 0.44411 0.97977 0.99146 0.0
C267 C 0.41406 0.94518 0.98469 0.0
C268 C 0.42863 0.93774 0.98269 0.0
C269 C 0.42185 0.96631 0.98902 0.0
C270 C 0.45093 0.95192 0.98531 0.0
H271 H 0.47051 0.90436 0.96709 0.0
N272 N 0.48734 0.96033 0.98338 0.0
C273 C 0.49697 0.93557 0.97244 0.0
C274 C 0.46598 0.94572 0.98197 0.0
C275 C 0.50285 0.95587 0.97813 0.0
C276 C 0.47505 0.92002 0.97162 0.0
C277 C 0.45921 0.92511 0.97611 0.0
O278 O 0.51285 0.00211 0.96995 0.0
O279 O 0.52247 0.01853 0.00909 0.0
O280 O 0.51155 0.0407 0.02032 0.0
O281 O 0.4875 0.01959 0.99998 0.0
O282 O 0.53232 0.00586 0.99081 0.0
O283 O 0.48751 0.0096 0.97448 0.0
O284 O 0.49622 0.00621 0.05843 0.0
O285 O 0.48748 0.99112 0.01957 0.0
O286 O 0.49958 0.96983 0.00816 0.0
O287 O 0.52337 0.99119 0.0286 0.0
O288 O 0.47724 0.00366 0.03755 0.0
O289 O 0.52347 1.00144 0.05427 0.0
C290 C 0.53893 0.01956 1.00246 0.0
C291 C 0.49194 1.00152 0.94745 0.0
C292 C 0.49241 0.00731 0.91814 0.0
C293 C 0.50117 0.01458 0.93379 0.0
C294 C 0.47448 0.9867 0.91643 0.0
C295 C 0.47405 0.98111 0.94538 0.0
C296 C 0.46542 0.97375 0.92996 0.0
C297 C 0.4979 0.03762 0.00829 0.0
C298 C 0.50089 0.00929 0.9638 0.0
C299 C 0.43695 0.91055 0.97434 0.0
C300 C 0.42168 0.91688 0.97758 0.0
C301 C 0.47083 0.98983 0.02601 0.0
C302 C 0.51723 0.00808 0.08126 0.0
C303 C 0.50913 0.99424 0.09462 0.0
C304 C 0.51694 0.00161 0.11046 0.0
C305 C 0.53276 0.02309 0.11266 0.0
C306 C 0.53305 0.02935 0.08382 0.0
C307 C 0.54071 0.0368 0.09943 0.0
C308 C 0.51353 0.97329 0.02006 0.0
C309 C 0.50917 1.00029 0.06473 0.0
H310 H 0.51489 0.03044 0.9354 0.0
H311 H 0.46758 0.98047 0.90458 0.0
H312 H 0.4667 0.97087 0.95568 0.0
H313 H 0.45165 0.95793 0.92848 0.0
H314 H 0.49704 0.97774 0.09262 0.0
H315 H 0.53882 0.02941 0.12467 0.0
H316 H 0.53948 0.04021 0.07378 0.0
H317 H 0.55286 0.05328 0.10129 0.0
Eu318 Eu 0.02321 0.50034 0.9942 0.0
C319 C 0.94873 0.47392 0.04461 0.0
C320 C 0.93814 0.50073 0.04299 0.0
C321 C 0.91162 0.46472 0.05075 0.0
C322 C 0.95388 0.4945 0.04117 0.0
C323 C 0.92767 0.45891 0.04978 0.0
C324 C 0.91685 0.48561 0.04737 0.0
C325 C 0.94048 0.43418 0.0542 0.0
N326 N 0.96472 0.46894 0.04386 0.0
C327 C 0.96116 0.44967 0.04912 0.0
C328 C 0.92359 0.43872 0.05434 0.0
Eu329 Eu 0.99913 0.4958 0.03477 0.0
N330 N 0.97468 0.50879 0.03717 0.0
C331 C 0.98116 0.52983 0.03589 0.0
C332 C 0.94447 0.52212 0.04091 0.0
C333 C 0.96615 0.53677 0.03758 0.0
H334 H 0.97416 0.44608 0.04896 0.0
H335 H 0.97134 0.55343 0.03631 0.0
H336 H 0.90448 0.49004 0.04863 0.0
H337 H 0.93759 0.41876 0.058 0.0
H338 H 0.99783 0.54131 0.03327 0.0
H339 H 0.04517 0.43833 0.9933 0.0
H340 H 0.93288 0.52755 0.04227 0.0
H341 H 0.05112 0.5498 0.98004 0.0
H342 H 0.02109 0.45308 0.99696 0.0
H343 H 0.08827 0.57519 0.97067 0.0
H344 H 0.89528 0.45336 0.05455 0.0
H345 H 0.08349 0.46172 0.98571 0.0
H346 H 0.11375 0.49831 0.97903 0.0
H347 H 0.90762 0.42674 0.05837 0.0
H348 H 0.12566 0.5357 0.97329 0.0
N349 N 0.04567 0.48496 0.99223 0.0
C350 C 0.03782 0.46367 0.9939 0.0
C351 C 0.07312 0.46846 0.98765 0.0
C352 C 0.08099 0.49017 0.98558 0.0
C353 C 0.05145 0.45517 0.99182 0.0
C354 C 0.06662 0.49803 0.98784 0.0
H355 H 0.11622 0.56444 0.96994 0.0
N356 N 0.05839 0.52542 0.98518 0.0
C357 C 0.08429 0.55946 0.97453 0.0
C358 C 0.07322 0.51895 0.98431 0.0
C359 C 0.06331 0.54507 0.97981 0.0
C360 C 0.10003 0.55335 0.9742 0.0
C361 C 0.09449 0.53275 0.97879 0.0
O362 O 0.01706 0.50877 0.9701 0.0
O363 O 0.99715 0.50141 0.00839 0.0
O364 O 0.97428 0.46868 0.01946 0.0
O365 O 0.99668 0.46627 0.99998 0.0
O366 O 0.01131 0.52384 0.99042 0.0
O367 O 0.00868 0.47637 0.97514 0.0
O368 O 0.00733 0.48879 0.05867 0.0
O369 O 0.02548 0.49534 0.02055 0.0
O370 O 0.04749 0.52806 0.00944 0.0
O371 O 0.02464 0.53014 0.02873 0.0
O372 O 0.01196 0.47293 0.03843 0.0
O373 O 0.01164 0.5199 0.05389 0.0
C374 C 0.99642 0.51643 1.00137 0.0
C375 C 0.0191 0.48868 0.94837 0.0
C376 C 0.01545 0.48457 0.91893 0.0
C377 C 1.00724 0.48614 0.93409 0.0
C378 C 0.03583 0.48585 0.91827 0.0
C379 C 0.03934 0.48983 0.94745 0.0
C380 C 0.04768 0.48849 0.93247 0.0
C381 C 0.97789 0.45836 0.00775 0.0
C382 C 0.01005 0.48983 0.96412 0.0
C383 C 0.10922 0.52531 0.97742 0.0
C384 C 0.10244 0.50403 0.9807 0.0
C385 C 0.0268 0.48061 0.02746 0.0
C386 C 1.00254 0.50683 0.08062 0.0
C387 C 0.01501 0.51114 0.09483 0.0
C388 C 1.00578 0.51028 0.11012 0.0
C389 C 0.98393 0.50513 0.11096 0.0
C390 C 0.98084 0.50187 0.08174 0.0
C391 C 0.97159 0.50101 0.09683 0.0
C392 C 0.04346 0.53836 0.02095 0.0
C393 C 0.01221 0.5072 0.06478 0.0
H394 H 0.99146 0.48497 0.93484 0.0
H395 H 0.0427 0.48496 0.90677 0.0
H396 H 0.04864 0.49164 0.95827 0.0
H397 H 0.06335 0.48945 0.93186 0.0
H398 H 0.03176 0.51485 0.09399 0.0
H399 H 0.97647 0.50457 0.12255 0.0
H400 H 0.97104 0.49868 0.071 0.0
H401 H 0.95482 0.49717 0.09758 0.0
Eu402 Eu 0.52695 0.50906 0.03425 0.0
C403 C 0.47954 0.53547 0.98372 0.0
C404 C 0.44157 0.50871 0.98585 0.0
C405 C 0.45171 0.54478 0.9784 0.0
C406 C 0.46373 0.51487 0.98714 0.0
C407 C 0.47372 0.55055 0.97894 0.0
C408 C 0.43565 0.52389 0.98186 0.0
C409 C 0.51175 0.57538 0.97434 0.0
N410 N 0.50062 0.54046 0.98425 0.0
C411 C 0.51668 0.55983 0.97908 0.0
C412 C 0.4902 0.57081 0.97446 0.0
Eu413 Eu 0.50784 0.51376 0.99331 0.0
N414 N 0.47002 0.50059 0.99086 0.0
C415 C 0.45498 0.47955 0.99223 0.0
C416 C 0.42604 0.48736 0.98818 0.0
C417 C 0.4328 0.47267 0.99112 0.0
H418 H 0.53338 0.56345 0.97911 0.0
H419 H 0.42094 0.45606 0.99264 0.0
H420 H 0.41871 0.51951 0.98102 0.0
H421 H 0.52456 0.59087 0.97063 0.0
H422 H 0.45994 0.46804 0.99463 0.0
H423 H 0.61397 0.56609 0.03526 0.0
H424 H 0.40885 0.482 0.98736 0.0
H425 H 0.50072 0.45954 0.04874 0.0
H426 H 0.5751 0.5543 0.0323 0.0
H427 H 0.50902 0.43215 0.0582 0.0
H428 H 0.44691 0.5562 0.97493 0.0
H429 H 0.62557 0.54015 0.04207 0.0
H430 H 0.61528 0.50276 0.0491 0.0
H431 H 0.48641 0.58286 0.97074 0.0
H432 H 0.58672 0.46627 0.0553 0.0
N433 N 0.56467 0.52183 0.03686 0.0
C434 C 0.57987 0.54277 0.03522 0.0
C435 C 0.60846 0.53485 0.04067 0.0
C436 C 0.59276 0.51359 0.04308 0.0
C437 C 0.60197 0.54954 0.03689 0.0
C438 C 0.57069 0.50753 0.0412 0.0
H439 H 0.54707 0.43989 0.05898 0.0
N440 N 0.53366 0.48223 0.04381 0.0
C441 C 0.52201 0.4475 0.0544 0.0
C442 C 0.55467 0.48707 0.04476 0.0
C443 C 0.51737 0.46304 0.04907 0.0
C444 C 0.5435 0.45191 0.05477 0.0
C445 C 0.56019 0.472 0.05018 0.0
O446 O 0.51095 0.50248 0.05787 0.0
O447 O 0.50024 0.50847 0.01967 0.0
O448 O 0.51157 0.54108 0.0087 0.0
O449 O 0.53699 0.54333 0.0277 0.0
O450 O 0.4908 0.48631 0.03787 0.0
O451 O 0.5389 0.53332 0.05326 0.0
O452 O 0.52356 0.52098 0.96956 0.0
O453 O 0.53452 0.51425 0.00786 0.0
O454 O 0.52293 0.48145 0.01909 0.0
O455 O 0.49803 0.4795 0.99967 0.0
O456 O 0.54404 0.53644 0.98969 0.0
O457 O 0.49624 0.48971 0.97416 0.0
C458 C 0.48389 0.49377 0.02664 0.0
C459 C 0.53355 0.52048 0.08017 0.0
C460 C 0.53238 0.5234 0.1097 0.0
C461 C 0.52446 0.52406 0.09412 0.0
C462 C 0.54944 0.51892 0.111 0.0
C463 C 0.55063 0.51623 0.0818 0.0
C464 C 0.55848 0.51543 0.09714 0.0
C465 C 0.52628 0.55139 0.02011 0.0
C466 C 0.52489 0.52087 0.06402 0.0
C467 C 0.58215 0.47767 0.0513 0.0
C468 C 0.5984 0.49844 0.04777 0.0
C469 C 0.55092 0.52885 1.00086 0.0
C470 C 0.50111 0.50256 0.94728 0.0
C471 C 0.50962 0.49811 0.9334 0.0
C472 C 0.50139 0.49825 0.91783 0.0
C473 C 0.48458 0.50305 0.91646 0.0
C474 C 0.48434 0.50723 0.9456 0.0
C475 C 0.47615 0.50749 0.93026 0.0
C476 C 0.50835 0.47124 0.00756 0.0
C477 C 0.50999 0.50247 0.9634 0.0
H478 H 0.51143 0.52759 0.0928 0.0
H479 H 0.55565 0.51785 0.12276 0.0
H480 H 0.55787 0.51352 0.07125 0.0
H481 H 0.57158 0.51201 0.0983 0.0
H482 H 0.52245 0.4943 0.93476 0.0
H483 H 0.47811 0.50367 0.90469 0.0
H484 H 0.47759 0.51069 0.95612 0.0
H485 H 0.46326 0.5112 0.92905 0.0
Eu486 Eu 0.16287 0.32759 0.32836 0.0
C487 C 0.2104 0.39955 0.38024 0.0
C488 C 0.24823 0.40927 0.37849 0.0
C489 C 0.23858 0.43571 0.38631 0.0
C490 C 0.22601 0.39411 0.37684 0.0
C491 C 0.21647 0.42027 0.38541 0.0
C492 C 0.25444 0.43023 0.38284 0.0
C493 C 0.17849 0.40841 0.38975 0.0
N494 N 0.18923 0.38422 0.37937 0.0
C495 C 0.1733 0.38808 0.38458 0.0
C496 C 0.20016 0.42466 0.38996 0.0
Eu497 Eu 0.18156 0.35048 0.36979 0.0
N498 N 0.21943 0.37369 0.37281 0.0
C499 C 0.2342 0.36699 0.3715 0.0
C500 C 0.26351 0.40276 0.37619 0.0
C501 C 0.25643 0.38145 0.37294 0.0
H502 H 0.15652 0.37559 0.38431 0.0
H503 H 0.26809 0.37616 0.37145 0.0
H504 H 0.27144 0.44216 0.38396 0.0
H505 H 0.16579 0.41154 0.39352 0.0
H506 H 0.22899 0.35061 0.36887 0.0
H507 H 0.07656 0.30296 0.32753 0.0
H508 H 0.28074 0.41393 0.37728 0.0
H509 H 0.187 0.30192 0.31331 0.0
H510 H 0.11579 0.32818 0.32957 0.0
H511 H 0.1771 0.26574 0.3042 0.0
H512 H 0.24358 0.45179 0.39009 0.0
H513 H 0.06332 0.26498 0.32208 0.0
H514 H 0.07201 0.23633 0.31537 0.0
H515 H 0.20415 0.44038 0.394 0.0
H516 H 0.0994 0.22621 0.30886 0.0
N517 N 0.12486 0.30473 0.3257 0.0
C518 C 0.11034 0.31172 0.3271 0.0
C519 C 0.08061 0.27601 0.32293 0.0
C520 C 0.09563 0.26921 0.32048 0.0
C521 C 0.08802 0.29744 0.32596 0.0
C522 C 0.11795 0.2842 0.32182 0.0
H523 H 0.13862 0.23717 0.30433 0.0
N524 N 0.15452 0.29366 0.31876 0.0
C525 C 0.16462 0.26909 0.30817 0.0
C526 C 0.13328 0.27848 0.31821 0.0
C527 C 0.17016 0.28954 0.31327 0.0
C528 C 0.14288 0.25299 0.30831 0.0
C529 C 0.12685 0.25765 0.31312 0.0
O530 O 0.17911 0.33577 0.30478 0.0
O531 O 0.18946 0.35229 0.34348 0.0
O532 O 0.17868 0.37476 0.35462 0.0
O533 O 0.154 0.35295 0.33479 0.0
O534 O 0.19889 0.33931 0.32517 0.0
O535 O 0.15272 0.34174 0.30938 0.0
O536 O 0.16454 0.34129 0.39303 0.0
O537 O 0.15508 0.32563 0.35467 0.0
O538 O 0.16649 0.30359 0.34337 0.0
O539 O 0.19085 0.32543 0.36337 0.0
O540 O 0.14549 0.33876 0.37271 0.0
O541 O 0.19232 0.33728 0.38912 0.0
C542 C 0.20576 0.35325 0.33666 0.0
C543 C 0.15754 0.33395 0.28236 0.0
C544 C 0.15769 0.33958 0.25305 0.0
C545 C 0.16627 0.34711 0.2687 0.0
C546 C 0.14042 0.31861 0.25136 0.0
C547 C 0.14032 0.31315 0.28033 0.0
C548 C 0.13186 0.30554 0.2649 0.0
C549 C 0.16466 0.37125 0.34277 0.0
C550 C 0.16637 0.34205 0.29866 0.0
C551 C 0.10467 0.24237 0.31256 0.0
C552 C 0.08908 0.24814 0.31626 0.0
C553 C 0.1387 0.32466 0.36134 0.0
C554 C 0.18583 0.34438 0.41594 0.0
C555 C 0.17677 0.33126 0.42959 0.0
C556 C 0.18373 0.33939 0.4454 0.0
C557 C 0.2 0.36076 0.44727 0.0
C558 C 0.20206 0.36559 0.41814 0.0
C559 C 0.2091 0.3737 0.43372 0.0
C560 C 0.18066 0.30729 0.35514 0.0
C561 C 0.17789 0.33602 0.39951 0.0
H562 H 0.17947 0.36325 0.27029 0.0
H563 H 0.13366 0.31219 0.23951 0.0
H564 H 0.1334 0.30282 0.29067 0.0
H565 H 0.11861 0.28943 0.26343 0.0
H566 H 0.16409 0.3149 0.42791 0.0
H567 H 0.2059 0.36743 0.45922 0.0
H568 H 0.20926 0.37588 0.40783 0.0
H569 H 0.22166 0.39009 0.43531 0.0
Eu570 Eu 0.69084 0.83592 0.32701 0.0
C571 C 0.61481 0.80795 0.37571 0.0
C572 C 0.60413 0.83465 0.37353 0.0
C573 C 0.57722 0.79834 0.38021 0.0
C574 C 0.62009 0.82861 0.37248 0.0
C575 C 0.59343 0.79268 0.38 0.0
C576 C 0.58256 0.81929 0.37698 0.0
C577 C 0.60611 0.76795 0.38495 0.0
N578 N 0.63089 0.80309 0.37557 0.0
C579 C 0.62709 0.78369 0.38071 0.0
C580 C 0.58914 0.77238 0.38439 0.0
Eu581 Eu 0.66571 0.83017 0.36737 0.0
N582 N 0.64112 0.84309 0.36932 0.0
C583 C 0.64757 0.86415 0.36832 0.0
C584 C 0.61045 0.85606 0.37157 0.0
C585 C 0.63233 0.87091 0.36922 0.0
H586 H 0.64016 0.78019 0.38102 0.0
H587 H 0.63746 0.88756 0.368 0.0
H588 H 0.57002 0.82357 0.37761 0.0
H589 H 0.60304 0.75243 0.38862 0.0
H590 H 0.6644 0.87579 0.36638 0.0
H591 H 0.71555 0.77597 0.32485 0.0
H592 H 0.59868 0.86134 0.37225 0.0
H593 H 0.7175 0.8859 0.31365 0.0
H594 H 0.6905 0.78953 0.32911 0.0
H595 H 0.75446 0.91243 0.30468 0.0
H596 H 0.56064 0.78677 0.3833 0.0
H597 H 0.75363 0.80048 0.31723 0.0
H598 H 0.78321 0.8377 0.31146 0.0
H599 H 0.57291 0.76019 0.38775 0.0
H600 H 0.79402 0.875 0.30649 0.0
N601 N 0.71431 0.82176 0.32468 0.0
C602 C 0.70714 0.80057 0.32607 0.0
C603 C 0.74286 0.80668 0.31951 0.0
C604 C 0.75009 0.82833 0.31791 0.0
C605 C 0.72131 0.79276 0.32367 0.0
C606 C 0.73516 0.83545 0.32041 0.0
H607 H 0.78335 0.90296 0.30373 0.0
N608 N 0.72581 0.86215 0.31844 0.0
C609 C 0.75097 0.89676 0.3083 0.0
C610 C 0.74117 0.85637 0.3174 0.0
C611 C 0.7301 0.88173 0.31335 0.0
C612 C 0.76725 0.89137 0.30784 0.0
C613 C 0.76235 0.87083 0.31207 0.0
O614 O 0.68269 0.84402 0.30355 0.0
O615 O 0.66426 0.83609 0.34105 0.0
O616 O 0.64169 0.80322 0.35156 0.0
O617 O 0.66486 0.80145 0.33245 0.0
O618 O 0.67844 0.85908 0.32349 0.0
O619 O 0.67885 0.81287 0.30712 0.0
O620 O 0.67309 0.8224 0.39128 0.0
O621 O 0.69247 0.83026 0.35333 0.0
O622 O 0.71465 0.86335 0.34266 0.0
O623 O 0.69128 0.86471 0.36188 0.0
O624 O 0.67885 0.80754 0.371 0.0
O625 O 0.67749 0.85365 0.38692 0.0
C626 C 0.66335 0.85112 0.33427 0.0
C627 C 0.68741 0.82734 0.2807 0.0
C628 C 0.683 0.8243 0.25121 0.0
C629 C 0.67415 0.82209 0.26687 0.0
C630 C 0.70542 0.83182 0.24974 0.0
C631 C 0.70959 0.83448 0.27894 0.0
C632 C 0.71853 0.83672 0.26353 0.0
C633 C 0.64588 0.79316 0.34001 0.0
C634 C 0.67798 0.826 0.2968 0.0
C635 C 0.77762 0.86409 0.31045 0.0
C636 C 0.77147 0.84285 0.31328 0.0
C637 C 0.69386 0.81552 0.36014 0.0
C638 C 0.66753 0.83971 0.41336 0.0
C639 C 0.67971 0.84403 0.42771 0.0
C640 C 0.67003 0.84265 0.44289 0.0
C641 C 0.64801 0.83696 0.44347 0.0
C642 C 0.64564 0.83419 0.41419 0.0
C643 C 0.63595 0.83281 0.42918 0.0
C644 C 0.71022 0.87329 0.35422 0.0
C645 C 0.67772 0.84061 0.39766 0.0
H646 H 0.65693 0.81618 0.26839 0.0
H647 H 0.71295 0.83421 0.23793 0.0
H648 H 0.72001 0.83846 0.28942 0.0
H649 H 0.73572 0.84245 0.26225 0.0
H650 H 0.69659 0.84813 0.42707 0.0
H651 H 0.64019 0.83598 0.45497 0.0
H652 H 0.63605 0.83093 0.40331 0.0
H653 H 0.61904 0.82855 0.42973 0.0
Eu654 Eu 0.19347 0.84322 0.36744 0.0
C655 C 0.14628 0.86966 0.31674 0.0
C656 C 0.10818 0.84335 0.31914 0.0
C657 C 0.11881 0.87939 0.31121 0.0
C658 C 0.13027 0.84921 0.32038 0.0
C659 C 0.14074 0.88484 0.3117 0.0
C660 C 0.10255 0.85868 0.31495 0.0
C661 C 0.17879 0.90901 0.30658 0.0
N662 N 0.16727 0.87433 0.31718 0.0
C663 C 0.18346 0.89339 0.31162 0.0
C664 C 0.15736 0.90483 0.30683 0.0
Eu665 Eu 0.17399 0.8474 0.32649 0.0
N666 N 0.13627 0.83475 0.32423 0.0
C667 C 0.12101 0.81382 0.3258 0.0
C668 C 0.09243 0.82212 0.32167 0.0
C669 C 0.09889 0.80724 0.32476 0.0
H670 H 0.20006 0.89671 0.31152 0.0
H671 H 0.08685 0.79071 0.32644 0.0
H672 H 0.08568 0.85454 0.31414 0.0
H673 H 0.19171 0.92427 0.30255 0.0
H674 H 0.12577 0.80218 0.3283 0.0
H675 H 0.28037 0.90092 0.36701 0.0
H676 H 0.07529 0.81699 0.32088 0.0
H677 H 0.16804 0.79406 0.38254 0.0
H678 H 0.24137 0.88875 0.36467 0.0
H679 H 0.17694 0.76714 0.39221 0.0
H680 H 0.11422 0.89091 0.30755 0.0
H681 H 0.29251 0.87543 0.37394 0.0
H682 H 0.28276 0.83834 0.3816 0.0
H683 H 0.15378 0.91694 0.30288 0.0
H684 H 0.25462 0.80191 0.38841 0.0
N685 N 0.23133 0.85647 0.36972 0.0
C686 C 0.24635 0.87741 0.36769 0.0
C687 C 0.27532 0.86996 0.37287 0.0
C688 C 0.25984 0.84874 0.37573 0.0
C689 C 0.26853 0.8844 0.36901 0.0
C690 C 0.23767 0.84244 0.37416 0.0
H691 H 0.21515 0.7753 0.39264 0.0
N692 N 0.20079 0.81688 0.37719 0.0
C693 C 0.18974 0.78247 0.38818 0.0
C694 C 0.22189 0.82198 0.37798 0.0
C695 C 0.18476 0.79773 0.38274 0.0
C696 C 0.21131 0.78712 0.38836 0.0
C697 C 0.22775 0.80719 0.38347 0.0
O698 O 0.17769 0.8367 0.39116 0.0
O699 O 0.16664 0.84243 0.35291 0.0
O700 O 0.17799 0.87507 0.34154 0.0
O701 O 0.20324 0.87737 0.36073 0.0
O702 O 0.15737 0.8205 0.37129 0.0
O703 O 0.20536 0.86764 0.38633 0.0
O704 O 0.19018 0.85364 0.30298 0.0
O705 O 0.20068 0.84783 0.34098 0.0
O706 O 0.18894 0.8152 0.35258 0.0
O707 O 0.16406 0.81317 0.33309 0.0
O708 O 0.21018 0.86983 0.32267 0.0
O709 O 0.16108 0.82351 0.30716 0.0
C710 C 0.15036 0.82782 0.36003 0.0
C711 C 0.20045 0.85505 0.41329 0.0
C712 C 0.19956 0.85816 0.44283 0.0
C713 C 0.1914 0.85858 0.42729 0.0
C714 C 0.21681 0.85395 0.44404 0.0
C715 C 0.21773 0.85109 0.41484 0.0
C716 C 0.22581 0.8505 0.43014 0.0
C717 C 0.19258 0.8854 0.35303 0.0
C718 C 0.19155 0.85519 0.39718 0.0
C719 C 0.24979 0.8131 0.38436 0.0
C720 C 0.26581 0.83385 0.3805 0.0
C721 C 0.21707 0.86224 0.33383 0.0
C722 C 0.16767 0.83702 0.28039 0.0
C723 C 0.1753 0.83147 0.26655 0.0
C724 C 0.16873 0.83376 0.25085 0.0
C725 C 0.15439 0.84176 0.24939 0.0
C726 C 0.15315 0.84459 0.27858 0.0
C727 C 0.14658 0.84696 0.26315 0.0
C728 C 0.17431 0.80492 0.34109 0.0
C729 C 0.17564 0.83568 0.2966 0.0
H730 H 0.17821 0.8619 0.42604 0.0
H731 H 0.22321 0.85305 0.45577 0.0
H732 H 0.22496 0.84843 0.40425 0.0
H733 H 0.23907 0.84729 0.43123 0.0
H734 H 0.18624 0.82529 0.2681 0.0
H735 H 0.1494 0.84433 0.23759 0.0
H736 H 0.14703 0.84883 0.28905 0.0
H737 H 0.13555 0.85305 0.26185 0.0
Eu738 Eu 0.83067 0.66298 0.6617 0.0
C739 C 0.87611 0.7338 0.71485 0.0
C740 C 0.91405 0.74368 0.71473 0.0
C741 C 0.90368 0.76966 0.72237 0.0
C742 C 0.89202 0.72859 0.71199 0.0
C743 C 0.88171 0.75426 0.72038 0.0
C744 C 0.91983 0.76437 0.71957 0.0
C745 C 0.84343 0.7422 0.72299 0.0
N746 N 0.85505 0.71845 0.7131 0.0
C747 C 0.83871 0.72208 0.71763 0.0
C748 C 0.86503 0.75844 0.7242 0.0
Eu749 Eu 0.84829 0.68504 0.70338 0.0
N750 N 0.88588 0.70843 0.70743 0.0
C751 C 0.90083 0.70193 0.70639 0.0
C752 C 0.92954 0.73734 0.71301 0.0
C753 C 0.92286 0.7163 0.709 0.0
H754 H 0.82198 0.70959 0.71665 0.0
H755 H 0.93466 0.71113 0.7079 0.0
H756 H 0.93668 0.77623 0.72157 0.0
H757 H 0.83043 0.74515 0.72619 0.0
H758 H 0.89591 0.68575 0.70327 0.0
H759 H 0.74405 0.63699 0.66036 0.0
H760 H 0.9466 0.74843 0.7151 0.0
H761 H 0.85586 0.63834 0.64657 0.0
H762 H 0.78313 0.66262 0.66294 0.0
H763 H 0.84674 0.60262 0.63685 0.0
H764 H 0.90832 0.78553 0.72647 0.0
H765 H 0.73154 0.59937 0.65403 0.0
H766 H 0.741 0.5714 0.64675 0.0
H767 H 0.86866 0.77397 0.72845 0.0
H768 H 0.76896 0.56204 0.64025 0.0
N769 N 0.79281 0.63972 0.65855 0.0
C770 C 0.77798 0.64631 0.66011 0.0
C771 C 0.74876 0.61057 0.65513 0.0
C772 C 0.76411 0.6042 0.65257 0.0
C773 C 0.75576 0.6318 0.65866 0.0
C774 C 0.78631 0.61939 0.65427 0.0
H775 H 0.80842 0.57368 0.63622 0.0
N776 N 0.82312 0.62946 0.65167 0.0
C777 C 0.83399 0.6056 0.64078 0.0
C778 C 0.80198 0.61409 0.65071 0.0
C779 C 0.8391 0.6258 0.64624 0.0
C780 C 0.81235 0.58929 0.64049 0.0
C781 C 0.79598 0.5935 0.64524 0.0
O782 O 0.84815 0.673 0.63869 0.0
O783 O 0.85696 0.68753 0.6772 0.0
O784 O 0.84611 0.70962 0.68811 0.0
O785 O 0.82131 0.68792 0.66835 0.0
O786 O 0.86677 0.67486 0.65889 0.0
O787 O 0.81975 0.67604 0.64236 0.0
O788 O 0.83086 0.67551 0.72645 0.0
O789 O 0.82217 0.66029 0.68793 0.0
O790 O 0.83417 0.63876 0.67648 0.0
O791 O 0.85801 0.66032 0.69685 0.0
O792 O 0.81217 0.67312 0.70593 0.0
O793 O 0.85863 0.67144 0.7227 0.0
C794 C 0.87341 0.68861 0.67051 0.0
C795 C 0.82718 0.66973 0.61556 0.0
C796 C 0.83027 0.67516 0.58616 0.0
C797 C 0.83653 0.68311 0.60208 0.0
C798 C 0.8144 0.65371 0.58397 0.0
C799 C 0.8113 0.64846 0.61306 0.0
C800 C 0.80496 0.64052 0.59735 0.0
C801 C 0.83195 0.70616 0.67639 0.0
C802 C 0.83457 0.6779 0.63211 0.0
C803 C 0.7739 0.57802 0.64425 0.0
C804 C 0.75798 0.58335 0.64794 0.0
C805 C 0.80564 0.65913 0.6945 0.0
C806 C 0.85175 0.67818 0.74951 0.0
C807 C 0.84258 0.66484 0.76303 0.0
C808 C 0.84933 0.67275 0.77892 0.0
C809 C 0.86552 0.69411 0.781 0.0
C810 C 0.8679 0.69937 0.75194 0.0
C811 C 0.87474 0.70726 0.76759 0.0
C812 C 0.84813 0.64233 0.68841 0.0
C813 C 0.84406 0.67008 0.73299 0.0
H814 H 0.84891 0.69953 0.60399 0.0
H815 H 0.80907 0.64719 0.5719 0.0
H816 H 0.80387 0.63797 0.62324 0.0
H817 H 0.7927 0.62407 0.59552 0.0
H818 H 0.82997 0.64848 0.7612 0.0
H819 H 0.87126 0.70059 0.79303 0.0
H820 H 0.87519 0.70983 0.74175 0.0
H821 H 0.88723 0.72364 0.76934 0.0
Eu822 Eu 0.35843 0.16828 0.66223 0.0
C823 C 0.28139 0.14359 0.70979 0.0
C824 C 0.27096 0.17031 0.7062 0.0
C825 C 0.24386 0.13446 0.71386 0.0
C826 C 0.28682 0.16409 0.70577 0.0
C827 C 0.25996 0.12867 0.71425 0.0
C828 C 0.24935 0.15525 0.70985 0.0
C829 C 0.27238 0.10406 0.72058 0.0
N830 N 0.29738 0.1386 0.71025 0.0
C831 C 0.29342 0.11946 0.71615 0.0
C832 C 0.25551 0.10858 0.71942 0.0
Eu833 Eu 0.33234 0.16514 0.70189 0.0
N834 N 0.30787 0.17828 0.70242 0.0
C835 C 0.31444 0.19928 0.70056 0.0
C836 C 0.27742 0.19161 0.70345 0.0
C837 C 0.29931 0.20621 0.70085 0.0
H838 H 0.30643 0.1159 0.71696 0.0
H839 H 0.30454 0.22279 0.69899 0.0
H840 H 0.23689 0.15966 0.71002 0.0
H841 H 0.26919 0.08872 0.72486 0.0
H842 H 0.33128 0.21072 0.69845 0.0
H843 H 0.3859 0.11049 0.66719 0.0
H844 H 0.26574 0.19703 0.70367 0.0
H845 H 0.38432 0.21685 0.64611 0.0
H846 H 0.35932 0.12275 0.66718 0.0
H847 H 0.42135 0.24339 0.6373 0.0
H848 H 0.22724 0.12315 0.71707 0.0
H849 H 0.42458 0.13575 0.66157 0.0
H850 H 0.45331 0.17257 0.65373 0.0
H851 H 0.23924 0.09666 0.72293 0.0
H852 H 0.46299 0.20876 0.64561 0.0
N853 N 0.38271 0.15487 0.66205 0.0
C854 C 0.3761 0.13399 0.66467 0.0
C855 C 0.41296 0.14125 0.66154 0.0
C856 C 0.41943 0.16237 0.65797 0.0
C857 C 0.39114 0.12694 0.66468 0.0
C858 C 0.40369 0.16875 0.65822 0.0
H859 H 0.45112 0.23521 0.63919 0.0
N860 N 0.3933 0.19425 0.65326 0.0
C861 C 0.41817 0.22822 0.64196 0.0
C862 C 0.40916 0.18909 0.6537 0.0
C863 C 0.39724 0.21318 0.64691 0.0
C864 C 0.43494 0.22356 0.64309 0.0
C865 C 0.43048 0.20367 0.64877 0.0
O866 O 0.35074 0.1742 0.6378 0.0
O867 O 0.33163 0.16937 0.67523 0.0
O868 O 0.30878 0.13721 0.68658 0.0
O869 O 0.33261 0.13419 0.66884 0.0
O870 O 0.3456 0.1907 0.65656 0.0
O871 O 0.34685 0.1435 0.64367 0.0
O872 O 0.33953 0.15877 0.72634 0.0
O873 O 0.35939 0.16446 0.68895 0.0
O874 O 0.38175 0.19698 0.67701 0.0
O875 O 0.35807 0.1993 0.69545 0.0
O876 O 0.34554 0.14298 0.70749 0.0
O877 O 0.34362 0.18962 0.72068 0.0
C878 C 0.33058 0.18368 0.66741 0.0
C879 C 0.35673 0.1558 0.61679 0.0
C880 C 0.35515 0.15368 0.58718 0.0
C881 C 0.34544 0.15317 0.6022 0.0
C882 C 0.37642 0.15699 0.58707 0.0
C883 C 0.37782 0.1589 0.6164 0.0
C884 C 0.38761 0.15953 0.6016 0.0
C885 C 0.31332 0.12643 0.67586 0.0
C886 C 0.34643 0.1557 0.63226 0.0
C887 C 0.44646 0.19772 0.6492 0.0
C888 C 0.44095 0.17711 0.65381 0.0
C889 C 0.36078 0.15037 0.69681 0.0
C890 C 0.3336 0.17704 0.74749 0.0
C891 C 0.34536 0.18086 0.762 0.0
C892 C 0.33557 0.17998 0.77703 0.0
C893 C 0.31383 0.17527 0.77731 0.0
C894 C 0.312 0.17251 0.748 0.0
C895 C 0.30218 0.17163 0.76285 0.0
C896 C 0.37713 0.20747 0.68799 0.0
C897 C 0.34391 0.17724 0.732 0.0
H898 H 0.32902 0.15047 0.60259 0.0
H899 H 0.38451 0.15783 0.57574 0.0
H900 H 0.38672 0.16083 0.62749 0.0
H901 H 0.40395 0.16206 0.60138 0.0
H902 H 0.362 0.18416 0.7616 0.0
H903 H 0.30594 0.17466 0.78869 0.0
H904 H 0.30272 0.16962 0.73697 0.0
H905 H 0.28549 0.16811 0.76316 0.0
Eu906 Eu 0.86136 0.17719 0.70032 0.0
C907 C 0.81329 0.20281 0.64936 0.0
C908 C 0.7753 0.17611 0.65156 0.0
C909 C 0.78549 0.21201 0.64354 0.0
C910 C 0.79746 0.18228 0.65297 0.0
C911 C 0.8075 0.2178 0.64427 0.0
C912 C 0.76941 0.1912 0.64719 0.0
C913 C 0.84555 0.24256 0.63972 0.0
N914 N 0.83437 0.20781 0.65005 0.0
C915 C 0.85046 0.22709 0.64476 0.0
C916 C 0.824 0.23798 0.63966 0.0
Eu917 Eu 0.84155 0.18122 0.65946 0.0
N918 N 0.80371 0.16808 0.65707 0.0
C919 C 0.78864 0.14711 0.65879 0.0
C920 C 0.75975 0.15485 0.65422 0.0
C921 C 0.76647 0.14024 0.65762 0.0
H922 H 0.86716 0.23072 0.6449 0.0
H923 H 0.75458 0.12369 0.65943 0.0
H924 H 0.75248 0.18681 0.64622 0.0
H925 H 0.85839 0.25799 0.63591 0.0
H926 H 0.79356 0.13565 0.66152 0.0
H927 H 0.94836 0.23456 0.69943 0.0
H928 H 0.74256 0.14949 0.65335 0.0
H929 H 0.83598 0.12821 0.71579 0.0
H930 H 0.90936 0.22268 0.69775 0.0
H931 H 0.84482 0.10114 0.72517 0.0
H932 H 0.78072 0.22336 0.6398 0.0
H933 H 0.96039 0.20877 0.70549 0.0
H934 H 0.95052 0.17155 0.71292 0.0
H935 H 0.82023 0.24996 0.63569 0.0
H936 H 0.92234 0.13523 0.72001 0.0
N937 N 0.89922 0.19029 0.70238 0.0
C938 C 0.9143 0.21122 0.70046 0.0
C939 C 0.94321 0.20344 0.70478 0.0
C940 C 0.92767 0.18224 0.70768 0.0
C941 C 0.93648 0.21805 0.7014 0.0
C942 C 0.9055 0.17611 0.7065 0.0
H943 H 0.88291 0.10894 0.7249 0.0
N944 N 0.86864 0.15078 0.70997 0.0
C945 C 0.85759 0.11639 0.72099 0.0
C946 C 0.8897 0.15571 0.71043 0.0
C947 C 0.85264 0.13174 0.71572 0.0
C948 C 0.87911 0.12084 0.72077 0.0
C949 C 0.89553 0.14081 0.7157 0.0
O950 O 0.84533 0.17093 0.7239 0.0
O951 O 0.83448 0.17649 0.68592 0.0
O952 O 0.84559 0.20888 0.67458 0.0
O953 O 0.87117 0.21133 0.69353 0.0
O954 O 0.82526 0.1546 0.70434 0.0
O955 O 0.87388 0.20139 0.71939 0.0
O956 O 0.85726 0.18789 0.63573 0.0
O957 O 0.86839 0.18183 0.67385 0.0
O958 O 0.85667 0.14906 0.68551 0.0
O959 O 0.8316 0.14705 0.66621 0.0
O960 O 0.87766 0.20388 0.65558 0.0
O961 O 0.82965 0.15687 0.64053 0.0
C962 C 0.81823 0.16198 0.69313 0.0
C963 C 0.86789 0.18837 0.7463 0.0
C964 C 0.86531 0.18982 0.77581 0.0
C965 C 0.85819 0.19134 0.76015 0.0
C966 C 0.88234 0.18538 0.77735 0.0
C967 C 0.88489 0.18405 0.74811 0.0
C968 C 0.89206 0.18257 0.76357 0.0
C969 C 0.86048 0.21935 0.68585 0.0
C970 C 0.85961 0.18914 0.73009 0.0
C971 C 0.91754 0.14652 0.71617 0.0
C972 C 0.93358 0.1672 0.71214 0.0
C973 C 0.88467 0.19638 0.6667 0.0
C974 C 0.83478 0.16933 0.61352 0.0
C975 C 0.84334 0.16467 0.59977 0.0
C976 C 0.83533 0.16479 0.58412 0.0
C977 C 0.81868 0.16978 0.58252 0.0
C978 C 0.81815 0.17416 0.61162 0.0
C979 C 0.81017 0.1744 0.59619 0.0
C980 C 0.84185 0.13875 0.67414 0.0
C981 C 0.84352 0.16935 0.62971 0.0
H982 H 0.84489 0.19446 0.75873 0.0
H983 H 0.88835 0.18436 0.78921 0.0
H984 H 0.89259 0.18178 0.73761 0.0
H985 H 0.90521 0.17924 0.76489 0.0
H986 H 0.85605 0.16072 0.60132 0.0
H987 H 0.81239 0.1704 0.57068 0.0
H988 H 0.81136 0.17777 0.62204 0.0
H989 H 0.7974 0.17825 0.59481 0.0
H990 H 0.30426 0.80753 0.06163 0.0
H991 H 0.33807 0.83711 0.05107 0.0
H992 H 0.31656 0.88081 0.0648 0.0
H993 H 0.2829 0.85143 0.07545 0.0
H994 H 0.34626 0.86694 0.02737 0.0
H995 H 0.37521 0.90636 0.08713 0.0
H996 H 0.35278 0.87962 0.0851 0.0
H997 H 0.34873 0.90186 0.08195 0.0
C998 C 0.30669 0.82343 0.0623 0.0
C999 C 0.291 0.82715 0.06956 0.0
C1000 C 0.32604 0.84033 0.05631 0.0
C1001 C 0.33008 0.86125 0.05747 0.0
C1002 C 0.3141 0.8649 0.06419 0.0
H1003 H 0.43268 0.98719 0.03389 0.0
H1004 H 0.39809 0.95511 0.03973 0.0
C1005 C 0.29484 0.84807 0.07025 0.0
C1006 C 0.35096 0.87932 0.05172 0.0
H1007 H 0.39419 0.9265 0.06393 0.0
C1008 C 0.35686 0.87988 0.03538 0.0
C1009 C 0.36485 0.89617 0.0622 0.0
C1010 C 0.36022 0.89592 0.08011 0.0
C1011 C 0.37587 0.89718 0.02913 0.0
C1012 C 0.38938 0.91429 0.03952 0.0
C1013 C 0.38369 0.9135 0.05592 0.0
C1014 C 0.40946 0.93336 0.03376 0.0
C1015 C 0.38088 0.89745 0.01135 0.0
C1016 C 0.4273 0.93183 0.02823 0.0
C1017 C 0.44707 0.95017 0.02484 0.0
C1018 C 0.44931 0.97035 0.02688 0.0
C1019 C 0.4313 0.97182 0.03202 0.0
C1020 C 0.41157 0.95352 0.03538 0.0
H1021 H 0.36707 0.88469 0.00444 0.0
H1022 H 0.38493 0.91297 0.00607 0.0
H1023 H 0.39515 0.89528 0.00984 0.0
H1024 H 0.42628 0.91652 0.02726 0.0
H1025 H 0.46081 0.94854 0.02133 0.0
H1026 H 0.21416 0.49738 0.06254 0.0
H1027 H 0.18419 0.5021 0.05275 0.0
H1028 H 0.13841 0.43755 0.06587 0.0
H1029 H 0.16812 0.43293 0.07593 0.0
H1030 H 0.15336 0.48307 0.0297 0.0
H1031 H 0.11307 0.46844 0.0894 0.0
H1032 H 0.14003 0.47231 0.08709 0.0
H1033 H 0.11657 0.44673 0.08316 0.0
C1034 C 0.1977 0.48417 0.06322 0.0
C1035 C 0.1935 0.46487 0.07022 0.0
C1036 C 0.18057 0.4869 0.05768 0.0
C1037 C 0.15891 0.47038 0.05899 0.0
C1038 C 0.15484 0.4508 0.06524 0.0
H1039 H 0.02982 0.44638 0.03644 0.0
H1040 H 0.06268 0.44483 0.04277 0.0
C1041 C 0.17188 0.44813 0.07091 0.0
C1042 C 0.14052 0.47344 0.05377 0.0
H1043 H 0.09211 0.46769 0.06647 0.0
C1044 C 0.14007 0.47992 0.03779 0.0
C1045 C 0.1232 0.46951 0.06433 0.0
C1046 C 0.12332 0.46409 0.08199 0.0
C1047 C 0.12243 0.4817 0.03191 0.0
C1048 C 0.1047 0.47696 0.04229 0.0
C1049 C 0.10546 0.47102 0.05839 0.0
C1050 C 0.08499 0.47764 0.03678 0.0
C1051 C 0.1225 0.48774 0.01444 0.0
C1052 C 0.08643 0.49653 0.03116 0.0
C1053 C 0.06761 0.49738 0.02743 0.0
C1054 C 0.04693 0.47934 0.02925 0.0
C1055 C 0.04553 0.46044 0.03472 0.0
C1056 C 0.06432 0.45957 0.03837 0.0
H1057 H 0.135 0.48654 0.00719 0.0
H1058 H 0.10641 0.47731 0.00891 0.0
H1059 H 0.12591 0.50435 0.01379 0.0
H1060 H 0.10206 0.51087 0.03023 0.0
H1061 H 0.06925 0.51234 0.0237 0.0
H1062 H 0.58427 0.7347 0.08109 0.0
H1063 H 0.57897 0.70109 0.07041 0.0
H1064 H 0.52032 0.68994 0.04627 0.0
H1065 H 0.5253 0.72347 0.05712 0.0
H1066 H 0.5421 0.66013 0.07562 0.0
H1067 H 0.5557 0.68116 0.01017 0.0
H1068 H 0.56424 0.70092 0.02605 0.0
H1069 H 0.53619 0.68613 0.02012 0.0
C1070 C 0.57015 0.72505 0.0736 0.0
C1071 C 0.55514 0.73172 0.07002 0.0
C1072 C 0.56724 0.70593 0.06742 0.0
C1073 C 0.5494 0.69318 0.05743 0.0
C1074 C 0.53441 0.69977 0.05373 0.0
H1075 H 0.50272 0.57036 0.01201 0.0
H1076 H 0.50873 0.60489 0.02092 0.0
C1077 C 0.53729 0.71891 0.05994 0.0
C1078 C 0.54612 0.67261 0.05141 0.0
H1079 H 0.54411 0.64549 0.01697 0.0
C1080 C 0.5426 0.65692 0.06281 0.0
C1081 C 0.54671 0.66852 0.03469 0.0
C1082 C 0.55108 0.68509 0.02201 0.0
C1083 C 0.53937 0.63707 0.05791 0.0
C1084 C 0.54017 0.63302 0.04119 0.0
C1085 C 0.54359 0.64869 0.02978 0.0
C1086 C 0.53722 0.61251 0.0353 0.0
C1087 C 0.53464 0.62047 0.07066 0.0
C1088 C 0.55154 0.60554 0.04015 0.0
C1089 C 0.54818 0.58578 0.03507 0.0
C1090 C 0.53055 0.57275 0.02489 0.0
C1091 C 0.51657 0.58004 0.01973 0.0
C1092 C 0.51992 0.59976 0.02485 0.0
H1093 H 0.52894 0.62402 0.08217 0.0
H1094 H 0.52214 0.60448 0.06633 0.0
H1095 H 0.5497 0.62004 0.07335 0.0
H1096 H 0.56526 0.61535 0.04794 0.0
H1097 H 0.55934 0.58072 0.03918 0.0
H1098 H 0.82738 0.29509 0.93447 0.0
H1099 H 0.85622 0.32855 0.94549 0.0
H1100 H 0.84771 0.29974 0.9926 0.0
H1101 H 0.81947 0.26583 0.98146 0.0
H1102 H 0.85647 0.35421 0.96916 0.0
H1103 H 0.91224 0.3246 0.98571 0.0
H1104 H 0.88843 0.30948 0.97327 0.0
H1105 H 0.88598 0.31016 0.99496 0.0
C1106 C 0.83176 0.29575 0.94714 0.0
C1107 C 0.82126 0.27761 0.957 0.0
C1108 C 0.84817 0.31498 0.95346 0.0
C1109 C 0.85447 0.3166 0.9698 0.0
C1110 C 0.84351 0.29877 0.97986 0.0
H1111 H 0.93563 0.43846 0.01803 0.0
H1112 H 0.90589 0.40391 0.0097 0.0
C1113 C 0.82713 0.27945 0.97351 0.0
C1114 C 0.87251 0.337 0.97617 0.0
H1115 H 0.92273 0.35969 0.99389 0.0
C1116 C 0.87095 0.3554 0.97459 0.0
C1117 C 0.89157 0.33863 0.98302 0.0
C1118 C 0.89483 0.31972 0.98422 0.0
C1119 C 0.88783 0.37532 0.97968 0.0
C1120 C 0.90663 0.37686 0.98694 0.0
C1121 C 0.90824 0.35848 0.98847 0.0
C1122 C 0.92501 0.39746 0.99266 0.0
C1123 C 0.88559 0.39461 0.97679 0.0
C1124 C 0.94594 0.40505 0.98636 0.0
C1125 C 0.96319 0.42469 0.99138 0.0
C1126 C 0.95987 0.43713 1.00287 0.0
C1127 C 0.93892 0.42929 0.00932 0.0
C1128 C 0.92176 0.4096 0.00439 0.0
H1129 H 0.87339 0.39167 0.96719 0.0
H1130 H 0.88011 0.3987 0.98815 0.0
H1131 H 0.90133 0.40848 0.9732 0.0
H1132 H 0.94888 0.39592 0.97734 0.0
H1133 H 0.97906 0.43016 0.98614 0.0
H1134 H 0.72311 0.51366 0.97028 0.0
H1135 H 0.68912 0.50923 0.98137 0.0
H1136 H 0.70588 0.57146 0.96421 0.0
H1137 H 0.74009 0.5763 0.95362 0.0
H1138 H 0.68922 0.56404 0.9952 0.0
H1139 H 0.63586 0.49687 0.95451 0.0
H1140 H 0.65452 0.4928 0.96656 0.0
H1141 H 0.6647 0.51303 0.95124 0.0
C1142 C 0.71968 0.5265 0.96901 0.0
C1143 C 0.73431 0.54525 0.96086 0.0
C1144 C 0.70009 0.52384 0.9752 0.0
C1145 C 0.69467 0.53984 0.97334 0.0
C1146 C 0.70954 0.5588 0.96567 0.0
H1147 H 0.5886 0.56324 0.99169 0.0
H1148 H 0.62358 0.56557 0.98648 0.0
C1149 C 0.72907 0.56147 0.9595 0.0
C1150 C 0.67355 0.53699 0.97926 0.0
H1151 H 0.61859 0.50734 0.97379 0.0
C1152 C 0.67377 0.55158 0.99057 0.0
C1153 C 0.65333 0.52073 0.97325 0.0
C1154 C 0.65196 0.50505 0.96062 0.0
C1155 C 0.65445 0.55043 0.99598 0.0
C1156 C 0.63422 0.53443 0.98972 0.0
C1157 C 0.634 0.51956 0.97867 0.0
C1158 C 0.6132 0.53334 0.99382 0.0
C1159 C 0.65607 0.5664 0.00843 0.0
C1160 C 0.59536 0.5143 0.99927 0.0
C1161 C 0.5752 0.51287 1.002 0.0
C1162 C 0.57254 0.53055 0.99956 0.0
C1163 C 0.59033 0.54952 0.99405 0.0
C1164 C 0.6104 0.5509 0.99118 0.0
H1165 H 0.67068 0.57185 0.01623 0.0
H1166 H 0.65756 0.5805 1.00208 0.0
H1167 H 0.64155 0.55982 0.01631 0.0
H1168 H 0.59693 0.50042 1.00122 0.0
H1169 H 0.56165 0.49783 0.00571 0.0
H1170 H 0.47915 0.1818 0.93439 0.0
H1171 H 0.48464 0.15374 0.94554 0.0
H1172 H 0.46642 0.16451 0.99301 0.0
H1173 H 0.45996 0.19196 0.98184 0.0
H1174 H 0.5123 0.15533 0.96952 0.0
H1175 H 0.42651 0.101 0.98675 0.0
H1176 H 0.43451 0.12362 0.97376 0.0
H1177 H 0.43802 0.1271 0.99539 0.0
C1178 C 0.47605 0.17804 0.94717 0.0
C1179 C 0.46893 0.18901 0.95719 0.0
C1180 C 0.47937 0.16212 0.95354 0.0
C1181 C 0.47561 0.15682 0.97005 0.0
C1182 C 0.469 0.16806 0.98018 0.0
H1183 H 0.51925 0.07862 0.01953 0.0
H1184 H 0.51374 0.10778 0.01126 0.0
C1185 C 0.46559 0.18393 0.9738 0.0
C1186 C 0.4787 0.13957 0.9766 0.0
H1187 H 0.4522 0.09123 0.99506 0.0
C1188 C 0.49918 0.14131 0.97512 0.0
C1189 C 0.46147 0.12121 0.98372 0.0
C1190 C 0.43883 0.11795 0.98489 0.0
C1191 C 0.50293 0.12517 0.98059 0.0
C1192 C 0.48582 0.10701 0.98803 0.0
C1193 C 0.46534 0.10527 0.98949 0.0
C1194 C 0.48856 0.08919 0.99371 0.0
C1195 C 0.52498 0.12745 0.97793 0.0
C1196 C 0.4757 0.06889 0.98701 0.0
C1197 C 0.47853 0.05208 0.99192 0.0
C1198 C 0.49425 0.05523 1.00368 0.0
C1199 C 0.50686 0.07554 0.01057 0.0
C1200 C 0.50392 0.09232 0.00571 0.0
H1201 H 0.53437 0.1395 0.96853 0.0
H1202 H 0.53438 0.13258 0.98944 0.0
H1203 H 0.52349 0.11211 0.97418 0.0
H1204 H 0.46369 0.06611 0.97777 0.0
H1205 H 0.46849 0.03667 0.98636 0.0
H1206 H 0.73382 0.15238 0.96401 0.0
H1207 H 0.69706 0.12409 0.97072 0.0
H1208 H 0.6834 0.17015 0.99235 0.0
H1209 H 0.72026 0.19856 0.98561 0.0
H1210 H 0.6789 0.11385 1.00274 0.0
H1211 H 0.63116 0.13544 0.96137 0.0
H1212 H 0.65981 0.14525 0.95859 0.0
H1213 H 0.65079 0.15637 0.97413 0.0
C1214 C 0.7229 0.15648 0.97007 0.0
C1215 C 0.72982 0.17764 0.9743 0.0
C1216 C 0.70194 0.14032 0.97392 0.0
C1217 C 0.68743 0.14502 0.98191 0.0
C1218 C 0.69421 0.16619 0.98596 0.0
H1219 H 0.55129 0.06126 0.00832 0.0
H1220 H 0.5877 0.09217 0.00546 0.0
C1221 C 0.71523 0.18238 0.98217 0.0
C1222 C 0.66555 0.12759 0.98655 0.0
H1223 H 0.6114 0.10672 0.97906 0.0
C1224 C 0.66411 0.11229 0.99759 0.0
C1225 C 0.6463 0.1257 0.97994 0.0
C1226 C 0.64695 0.14143 0.96775 0.0
C1227 C 0.64396 0.09511 1.00219 0.0
C1228 C 0.62465 0.09283 0.99525 0.0
C1229 C 0.62612 0.10841 0.98443 0.0
C1230 C 0.6029 0.07398 0.99838 0.0
C1231 C 0.6437 0.07974 0.01456 0.0
C1232 C 0.5992 0.05342 0.99539 0.0
C1233 C 0.57852 0.03575 0.99738 0.0
C1234 C 0.56104 0.03824 1.0023 0.0
C1235 C 0.5646 0.0588 0.00507 0.0
C1236 C 0.58537 0.07649 1.00326 0.0
H1237 H 0.65795 0.08759 0.02284 0.0
H1238 H 0.62874 0.07275 0.02197 0.0
H1239 H 0.64454 0.06673 0.00819 0.0
H1240 H 0.61218 0.05101 0.99107 0.0
H1241 H 0.57608 0.02011 0.99476 0.0
H1242 H 0.85759 0.57307 0.96318 0.0
H1243 H 0.88699 0.56535 0.96782 0.0
H1244 H 0.84182 0.50624 0.99056 0.0
H1245 H 0.8123 0.51396 0.98589 0.0
H1246 H 0.90014 0.55918 0.99888 0.0
H1247 H 0.87564 0.48911 0.95897 0.0
H1248 H 0.86487 0.50676 0.95653 0.0
H1249 H 0.85507 0.48748 0.97251 0.0
C1250 C 0.85388 0.55829 0.96895 0.0
C1251 C 0.83266 0.54411 0.97421 0.0
C1252 C 0.87069 0.55391 0.97163 0.0
C1253 C 0.86664 0.53515 0.97945 0.0
C1254 C 0.84532 0.52066 0.98429 0.0
H1255 H 0.95338 0.48665 0.00586 0.0
H1256 H 0.92181 0.49125 1.00194 0.0
C1257 C 0.82848 0.52508 0.98166 0.0
C1258 C 0.88502 0.53158 0.98347 0.0
H1259 H 0.90594 0.49909 0.9761 0.0
C1260 C 0.90143 0.54605 0.99389 0.0
C1261 C 0.88661 0.51434 0.9771 0.0
C1262 C 0.86973 0.49858 0.96555 0.0
C1263 C 0.91929 0.54375 0.99818 0.0
C1264 C 0.92121 0.52675 0.99154 0.0
C1265 C 0.9046 0.51212 0.98125 0.0
C1266 C 0.94052 0.52418 0.9947 0.0
C1267 C 0.93564 0.55947 0.01004 0.0
C1268 C 0.96167 0.541 0.99185 0.0
C1269 C 0.97972 0.53852 0.99452 0.0
C1270 C 0.97712 0.51911 0.99995 0.0
C1271 C 0.95598 0.50204 1.00229 0.0
C1272 C 0.93789 0.50461 0.99984 0.0
H1273 H 0.92806 0.566 0.01829 0.0
H1274 H 0.94312 0.55221 0.01751 0.0
H1275 H 0.94864 0.57296 1.00322 0.0
H1276 H 0.96426 0.55601 0.98727 0.0
H1277 H 0.99579 0.55177 0.99216 0.0
H1278 H 0.48765 0.28624 0.99324 0.0
H1279 H 0.49646 0.32297 0.99838 0.0
H1280 H 0.44754 0.31547 0.96373 0.0
H1281 H 0.43869 0.27875 0.95861 0.0
H1282 H 0.50967 0.35699 0.97524 0.0
H1283 H 0.43207 0.33644 0.00597 0.0
H1284 H 0.44119 0.31752 1.00325 0.0
H1285 H 0.42952 0.32415 0.9865 0.0
C1286 C 0.47874 0.29247 0.98683 0.0
C1287 C 0.46217 0.27965 0.97585 0.0
C1288 C 0.4838 0.31338 0.98971 0.0
C1289 C 0.47237 0.32174 0.98164 0.0
C1290 C 0.45622 0.30913 0.97032 0.0
H1291 H 0.47589 0.44262 0.98769 0.0
H1292 H 0.46776 0.40671 0.98072 0.0
C1293 C 0.4512 0.28824 0.9674 0.0
C1294 C 0.47745 0.34373 0.98501 0.0
H1295 H 0.45628 0.37276 1.00099 0.0
C1296 C 0.49805 0.36049 0.98089 0.0
C1297 C 0.46217 0.34815 0.99232 0.0
C1298 C 0.44004 0.33065 0.99741 0.0
C1299 C 0.50372 0.38166 0.98373 0.0
C1300 C 0.48853 0.3861 0.99122 0.0
C1301 C 0.46788 0.36931 0.99525 0.0
C1302 C 0.4938 0.40802 0.99522 0.0
C1303 C 0.52577 0.39909 0.97841 0.0
C1304 C 0.51102 0.42058 0.0058 0.0
C1305 C 0.51582 0.44115 0.00972 0.0
C1306 C 0.50325 0.44945 1.00334 0.0
C1307 C 0.4859 0.43675 0.99282 0.0
C1308 C 0.4812 0.41621 0.98884 0.0
H1309 H 0.53279 0.39349 0.96887 0.0
H1310 H 0.52492 0.41291 0.97366 0.0
H1311 H 0.537 0.40447 0.98897 0.0
H1312 H 0.52069 0.41444 0.01113 0.0
H1313 H 0.52945 0.45053 0.01769 0.0
H1314 H 0.1725 0.73058 0.07044 0.0
H1315 H 0.14423 0.69352 0.06591 0.0
H1316 H 0.18655 0.68532 0.03296 0.0
H1317 H 0.21487 0.72238 0.03754 0.0
H1318 H 0.12515 0.67569 0.03545 0.0
H1319 H 0.16412 0.63346 0.06301 0.0
H1320 H 0.1732 0.66102 0.0672 0.0
H1321 H 0.1806 0.6535 0.04853 0.0
C1322 C 0.17578 0.72077 0.06234 0.0
C1323 C 0.19571 0.72932 0.05417 0.0
C1324 C 0.15965 0.69965 0.05976 0.0
C1325 C 0.16331 0.68662 0.04917 0.0
C1326 C 0.18347 0.69499 0.04135 0.0
H1327 H 0.08601 0.55879 0.01135 0.0
H1328 H 0.11443 0.59478 0.01816 0.0
C1329 C 0.19957 0.71614 0.04389 0.0
C1330 C 0.14563 0.66467 0.0456 0.0
H1331 H 0.13197 0.61259 0.04767 0.0
C1332 C 0.12656 0.66187 0.03822 0.0
C1333 C 0.14757 0.64669 0.04914 0.0
C1334 C 0.16738 0.64871 0.05753 0.0
C1335 C 0.10955 0.6416 0.03395 0.0
C1336 C 0.11145 0.62358 0.03751 0.0
C1337 C 0.13051 0.62639 0.04496 0.0
C1338 C 0.09398 0.60169 0.0334 0.0
C1339 C 0.08999 0.63976 0.02524 0.0
C1340 C 0.07303 0.59344 0.03985 0.0
C1341 C 0.0566 0.57291 0.03579 0.0
C1342 C 0.06083 0.56014 0.02529 0.0
C1343 C 0.08198 0.5683 0.01916 0.0
C1344 C 0.09835 0.58885 0.02316 0.0
H1345 H 0.0936 0.65499 0.01953 0.0
H1346 H 0.08413 0.6273 0.01568 0.0
H1347 H 0.07669 0.63538 0.03409 0.0
H1348 H 0.06939 0.60284 0.0481 0.0
H1349 H 0.04059 0.5671 0.04089 0.0
H1350 H 0.30605 0.48348 0.07688 0.0
H1351 H 0.34359 0.49348 0.07027 0.0
H1352 H 0.3216 0.45771 0.02563 0.0
H1353 H 0.28431 0.4484 0.03193 0.0
H1354 H 0.36088 0.46939 0.06713 0.0
H1355 H 0.37224 0.51046 0.00859 0.0
H1356 H 0.3495 0.50413 0.02169 0.0
H1357 H 0.34886 0.4844 0.00807 0.0
C1358 C 0.30934 0.47829 0.06544 0.0
C1359 C 0.29228 0.46575 0.05465 0.0
C1360 C 0.3308 0.48389 0.06171 0.0
C1361 C 0.33567 0.47683 0.04722 0.0
C1362 C 0.31856 0.46408 0.03657 0.0
H1363 H 0.4459 0.45826 0.03326 0.0
H1364 H 0.41032 0.45495 0.03784 0.0
C1365 C 0.29718 0.45866 0.04022 0.0
C1366 C 0.35826 0.48135 0.04385 0.0
H1367 H 0.3976 0.49869 0.0146 0.0
C1368 C 0.36894 0.47601 0.05569 0.0
C1369 C 0.3691 0.49027 0.02902 0.0
C1370 C 0.35942 0.49786 0.0162 0.0
C1371 C 0.38969 0.4787 0.05298 0.0
C1372 C 0.39994 0.4864 0.03779 0.0
C1373 C 0.38963 0.49242 0.02613 0.0
C1374 C 0.42128 0.48818 0.03384 0.0
C1375 C 0.40051 0.47348 0.06656 0.0
C1376 C 0.43917 0.50776 0.02934 0.0
C1377 C 0.45947 0.50958 0.02647 0.0
C1378 C 0.46217 0.49178 0.02781 0.0
C1379 C 0.44421 0.47218 0.03204 0.0
C1380 C 0.42392 0.47033 0.03479 0.0
H1381 H 0.39392 0.47427 0.0786 0.0
H1382 H 0.39744 0.45708 0.06486 0.0
H1383 H 0.41833 0.48448 0.06667 0.0
H1384 H 0.43757 0.52176 0.02846 0.0
H1385 H 0.47313 0.52499 0.02359 0.0
H1386 H 0.54069 0.81127 0.03238 0.0
H1387 H 0.53075 0.83842 0.02646 0.0
H1388 H 0.57716 0.87987 0.06216 0.0
H1389 H 0.58709 0.85277 0.06809 0.0
H1390 H 0.51509 0.85807 0.04931 0.0
H1391 H 0.59266 0.91612 0.02003 0.0
H1392 H 0.58466 0.88852 0.02255 0.0
H1393 H 0.59522 0.90647 0.0395 0.0
C1394 C 0.54885 0.82628 0.03882 0.0
C1395 C 0.56496 0.83021 0.0504 0.0
C1396 C 0.54315 0.84169 0.03549 0.0
C1397 C 0.5535 0.86124 0.04369 0.0
C1398 C 0.56932 0.86503 0.05548 0.0
H1399 H 0.54569 0.97603 0.03999 0.0
H1400 H 0.55448 0.94834 0.04599 0.0
C1401 C 0.57495 0.84959 0.05886 0.0
C1402 C 0.54746 0.87754 0.04014 0.0
H1403 H 0.56727 0.92743 0.02501 0.0
C1404 C 0.52642 0.87321 0.04393 0.0
C1405 C 0.56236 0.89726 0.03319 0.0
C1406 C 0.58495 0.90241 0.02844 0.0
C1407 C 0.51999 0.88832 0.04125 0.0
C1408 C 0.53487 0.90805 0.03423 0.0
C1409 C 0.5559 0.91231 0.0304 0.0
C1410 C 0.52905 0.92456 0.03081 0.0
C1411 C 0.49752 0.88321 0.04633 0.0
C1412 C 0.51189 0.92041 0.02021 0.0
C1413 C 0.50669 0.93615 0.01685 0.0
C1414 C 0.5188 0.95648 0.02381 0.0
C1415 C 0.53602 0.96059 0.0344 0.0
C1416 C 0.54112 0.94479 0.03782 0.0
H1417 H 0.49053 0.87029 0.05546 0.0
H1418 H 0.49768 0.89739 0.05151 0.0
H1419 H 0.48666 0.87785 0.03555 0.0
H1420 H 0.5026 0.90503 0.01443 0.0
H1421 H 0.49313 0.93232 0.00884 0.0
H1422 H 0.94405 0.16271 0.37996 0.0
H1423 H 0.97766 0.1925 0.3694 0.0
H1424 H 0.0118 0.19154 0.41248 0.0
H1425 H 0.97806 0.16239 0.42329 0.0
H1426 H 0.0213 0.23002 0.4065 0.0
H1427 H 0.02984 0.19579 0.34877 0.0
H1428 H 1.00441 0.19525 0.35008 0.0
H1429 H 0.01041 0.17988 0.36407 0.0
C1430 C 0.95882 0.16873 0.38704 0.0
C1431 C 0.95847 0.16028 0.40244 0.0
C1432 C 0.97808 0.18567 0.38096 0.0
C1433 C 0.99746 0.19413 0.38999 0.0
C1434 C 0.99713 0.18534 0.40524 0.0
H1435 H 0.12871 0.28326 0.35866 0.0
H1436 H 0.09378 0.25162 0.36443 0.0
C1437 C 0.97784 0.16869 0.41143 0.0
C1438 C 0.01775 0.21303 0.3842 0.0
H1439 H 0.05307 0.23311 0.35232 0.0
C1440 C 0.02826 0.23059 0.39468 0.0
C1441 C 0.02705 0.21382 0.36882 0.0
C1442 C 0.01747 0.19509 0.35736 0.0
C1443 C 0.04767 0.2488 0.39029 0.0
C1444 C 0.05651 0.24994 0.37468 0.0
C1445 C 0.04612 0.23238 0.36419 0.0
C1446 C 0.07697 0.26893 0.36937 0.0
C1447 C 0.05882 0.26636 0.40268 0.0
C1448 C 0.079 0.28915 0.36966 0.0
C1449 C 0.09901 0.30724 0.36654 0.0
C1450 C 0.11715 0.3054 0.36249 0.0
C1451 C 0.1149 0.28512 0.36145 0.0
C1452 C 0.09494 0.26704 0.3648 0.0
H1453 H 0.05356 0.26051 0.41524 0.0
H1454 H 0.07674 0.27366 0.40206 0.0
H1455 H 0.05457 0.27884 0.40029 0.0
H1456 H 0.06525 0.291 0.37272 0.0
H1457 H 0.1004 0.32272 0.36746 0.0
H1458 H 0.8813 0.83248 0.39524 0.0
H1459 H 0.85136 0.8372 0.38534 0.0
H1460 H 0.80536 0.77338 0.40002 0.0
H1461 H 0.83503 0.76879 0.41017 0.0
H1462 H 0.82005 0.8173 0.36268 0.0
H1463 H 0.78086 0.80566 0.42261 0.0
H1464 H 0.80768 0.80918 0.42031 0.0
H1465 H 0.78401 0.78355 0.41698 0.0
C1466 C 0.86479 0.81944 0.39625 0.0
C1467 C 0.86053 0.80036 0.40369 0.0
C1468 C 0.84768 0.82217 0.39065 0.0
C1469 C 0.82598 0.80587 0.39234 0.0
C1470 C 0.82183 0.78649 0.39909 0.0
H1471 H 0.69697 0.78129 0.36898 0.0
H1472 H 0.72988 0.77989 0.37548 0.0
C1473 C 0.83885 0.78383 0.4048 0.0
C1474 C 0.80764 0.8089 0.38697 0.0
H1475 H 0.75956 0.80404 0.39959 0.0
C1476 C 0.80696 0.81466 0.37081 0.0
C1477 C 0.79053 0.80556 0.39756 0.0
C1478 C 0.79088 0.80088 0.41537 0.0
C1479 C 0.7893 0.81632 0.36481 0.0
C1480 C 0.7718 0.81218 0.37523 0.0
C1481 C 0.77277 0.80694 0.3915 0.0
C1482 C 0.7521 0.81274 0.36959 0.0
C1483 C 0.78894 0.82137 0.34715 0.0
C1484 C 0.75351 0.83162 0.36398 0.0
C1485 C 0.73466 0.8324 0.3602 0.0
C1486 C 0.71401 0.8143 0.36191 0.0
C1487 C 0.71266 0.7954 0.36732 0.0
C1488 C 0.73147 0.79461 0.37107 0.0
H1489 H 0.8021 0.82104 0.34014 0.0
H1490 H 0.77314 0.8097 0.34178 0.0
H1491 H 0.79084 0.83738 0.34593 0.0
H1492 H 0.76912 0.846 0.36313 0.0
H1493 H 0.73627 0.84736 0.35652 0.0
H1494 H 0.21298 0.04838 0.42792 0.0
H1495 H 0.2072 0.0149 0.41659 0.0
H1496 H 0.22393 0.04304 0.36899 0.0
H1497 H 0.23072 0.07692 0.38036 0.0
H1498 H 0.1793 0.98897 0.39329 0.0
H1499 H 0.2646 0.01933 0.37419 0.0
H1500 H 0.25674 0.03417 0.38736 0.0
H1501 H 0.25239 0.03364 0.36581 0.0
C1502 C 0.21565 0.04753 0.41506 0.0
C1503 C 0.22259 0.06542 0.40508 0.0
C1504 C 0.21217 0.02833 0.40859 0.0
C1505 C 0.21554 0.0266 0.39201 0.0
C1506 C 0.22171 0.04418 0.38189 0.0
H1507 H 0.17086 0.90554 0.34298 0.0
H1508 H 0.17685 0.94013 0.35153 0.0
C1509 C 0.2253 0.06345 0.38837 0.0
C1510 C 0.21256 0.00634 0.38543 0.0
H1511 H 0.23902 0.98414 0.36637 0.0
C1512 C 0.19234 0.98789 0.38739 0.0
C1513 C 0.22972 0.00496 0.37796 0.0
C1514 C 0.25215 0.02403 0.37632 0.0
C1515 C 0.18876 0.96809 0.38203 0.0
C1516 C 0.20573 0.96679 0.37416 0.0
C1517 C 0.22599 0.98522 0.37226 0.0
C1518 C 0.20295 0.94636 0.3682 0.0
C1519 C 0.16701 0.94866 0.38525 0.0
C1520 C 0.21622 0.93873 0.37424 0.0
C1521 C 0.21314 0.91909 0.36911 0.0
C1522 C 0.19675 0.90674 0.3578 0.0
C1523 C 0.18378 0.91466 0.35155 0.0
C1524 C 0.18699 0.93435 0.35659 0.0
H1525 H 0.15809 0.9515 0.39509 0.0
H1526 H 0.15692 0.94442 0.37407 0.0
H1527 H 0.1689 0.93493 0.38866 0.0
H1528 H 0.22871 0.94781 0.38316 0.0
H1529 H 0.22345 0.91351 0.37417 0.0
H1530 H 0.51988 0.60481 0.28531 0.0
H1531 H 0.5481 0.63894 0.29584 0.0
H1532 H 0.49914 0.65138 0.31495 0.0
H1533 H 0.47067 0.61748 0.30385 0.0
H1534 H 0.53043 0.68507 0.29806 0.0
H1535 H 0.56947 0.65676 0.34182 0.0
H1536 H 0.56767 0.64639 0.32174 0.0
H1537 H 0.54324 0.63933 0.33287 0.0
C1538 C 0.51506 0.61479 0.29174 0.0
C1539 C 0.49297 0.60841 0.29365 0.0
C1540 C 0.53125 0.6342 0.29795 0.0
C1541 C 0.52578 0.64761 0.30641 0.0
C1542 C 0.50375 0.64122 0.30855 0.0
H1543 H 0.60276 0.77447 0.34739 0.0
H1544 H 0.57368 0.73921 0.33962 0.0
C1545 C 0.4875 0.62177 0.3023 0.0
C1546 C 0.54306 0.66878 0.31219 0.0
H1547 H 0.58933 0.69362 0.33517 0.0
C1548 C 0.54318 0.68692 0.3063 0.0
C1549 C 0.55976 0.67121 0.32291 0.0
C1550 C 0.55996 0.65238 0.33034 0.0
C1551 C 0.5598 0.70741 0.31051 0.0
C1552 C 0.57664 0.70981 0.32102 0.0
C1553 C 0.57646 0.69171 0.32703 0.0
C1554 C 0.59447 0.73104 0.32602 0.0
C1555 C 0.55952 0.72634 0.30339 0.0
C1556 C 0.61592 0.73801 0.32121 0.0
C1557 C 0.63269 0.7582 0.32571 0.0
C1558 C 0.62831 0.77167 0.33527 0.0
C1559 C 0.6068 0.76448 0.34018 0.0
C1560 C 0.59008 0.74437 0.33563 0.0
H1561 H 0.54824 0.72187 0.29287 0.0
H1562 H 0.55412 0.73362 0.3128 0.0
H1563 H 0.57602 0.73851 0.29941 0.0
H1564 H 0.61964 0.72791 0.31383 0.0
H1565 H 0.64905 0.7632 0.32174 0.0
H1566 H 0.40987 0.88184 0.31772 0.0
H1567 H 0.37551 0.87631 0.32873 0.0
H1568 H 0.34846 0.86483 0.2804 0.0
H1569 H 0.38193 0.86868 0.26948 0.0
H1570 H 0.3549 0.89707 0.32504 0.0
H1571 H 0.30028 0.81593 0.3026 0.0
H1572 H 0.3294 0.82801 0.30164 0.0
H1573 H 0.31472 0.833 0.28601 0.0
C1574 C 0.39647 0.87764 0.30944 0.0
C1575 C 0.39889 0.87573 0.29264 0.0
C1576 C 0.37682 0.87468 0.31577 0.0
C1577 C 0.35909 0.86975 0.30548 0.0
C1578 C 0.36155 0.86801 0.28873 0.0
H1579 H 0.25455 0.89559 0.32307 0.0
H1580 H 0.28905 0.89707 0.31767 0.0
C1581 C 0.381 0.87066 0.28243 0.0
C1582 C 0.33838 0.86737 0.31206 0.0
H1583 H 0.28318 0.83619 0.30983 0.0
C1584 C 0.33923 0.8836 0.32188 0.0
C1585 C 0.31782 0.84961 0.30834 0.0
C1586 C 0.31551 0.83056 0.29923 0.0
C1587 C 0.32023 0.883 0.32747 0.0
C1588 C 0.29964 0.86606 0.32264 0.0
C1589 C 0.29883 0.84941 0.31339 0.0
C1590 C 0.27879 0.86547 0.32659 0.0
C1591 C 0.32261 0.90051 0.33863 0.0
C1592 C 0.26098 0.84694 0.33279 0.0
C1593 C 0.24099 0.84588 0.33541 0.0
C1594 C 0.23848 0.86352 0.33231 0.0
C1595 C 0.25618 0.88196 0.32601 0.0
C1596 C 0.27603 0.88288 0.32308 0.0
H1597 H 0.33772 0.90689 0.34599 0.0
H1598 H 0.32376 0.91376 0.33125 0.0
H1599 H 0.30864 0.895 0.347 0.0
H1600 H 0.26245 0.83314 0.33544 0.0
H1601 H 0.22747 0.83117 0.33967 0.0
H1602 H 0.14832 0.51671 0.26827 0.0
H1603 H 0.15316 0.48822 0.2793 0.0
H1604 H 0.13403 0.49835 0.32663 0.0
H1605 H 0.12815 0.5262 0.31555 0.0
H1606 H 0.17994 0.48883 0.30319 0.0
H1607 H 0.09386 0.43516 0.31995 0.0
H1608 H 0.10227 0.45809 0.30722 0.0
H1609 H 0.10552 0.4611 0.3289 0.0
C1610 C 0.14488 0.51272 0.28099 0.0
C1611 C 0.13764 0.52361 0.29098 0.0
C1612 C 0.14782 0.49654 0.2873 0.0
C1613 C 0.14359 0.49092 0.30372 0.0
C1614 C 0.13694 0.50213 0.31385 0.0
H1615 H 0.18628 0.41247 0.35342 0.0
H1616 H 0.18085 0.44151 0.34482 0.0
C1617 C 0.13387 0.51824 0.30753 0.0
C1618 C 0.14632 0.47342 0.31019 0.0
H1619 H 0.11922 0.42503 0.32855 0.0
C1620 C 0.16668 0.47487 0.30874 0.0
C1621 C 0.1289 0.45511 0.31722 0.0
C1622 C 0.10635 0.4521 0.3183 0.0
C1623 C 0.17013 0.45854 0.31417 0.0
C1624 C 0.15286 0.44049 0.32161 0.0
C1625 C 0.13248 0.43899 0.323 0.0
C1626 C 0.15541 0.42265 0.32753 0.0
C1627 C 0.19206 0.46052 0.3115 0.0
C1628 C 0.14234 0.4022 0.32112 0.0
C1629 C 0.14508 0.38541 0.32626 0.0
C1630 C 0.16095 0.38876 0.33794 0.0
C1631 C 0.17376 0.40922 0.34454 0.0
C1632 C 0.17088 0.42595 0.33948 0.0
H1633 H 0.2014 0.4723 0.30192 0.0
H1634 H 0.20161 0.46592 0.32293 0.0
H1635 H 0.19039 0.44504 0.30799 0.0
H1636 H 0.13023 0.3993 0.31193 0.0
H1637 H 0.1349 0.36989 0.32093 0.0
H1638 H 0.38268 0.51591 0.2877 0.0
H1639 H 0.34543 0.48919 0.29468 0.0
H1640 H 0.36865 0.47437 0.33835 0.0
H1641 H 0.40578 0.50164 0.33171 0.0
H1642 H 0.32884 0.4482 0.29725 0.0
H1643 H 0.31829 0.47764 0.35654 0.0
H1644 H 0.34069 0.49372 0.34323 0.0
H1645 H 0.34177 0.47457 0.35643 0.0
C1646 C 0.37976 0.50738 0.29901 0.0
C1647 C 0.39709 0.51137 0.30945 0.0
C1648 C 0.35846 0.492 0.30295 0.0
C1649 C 0.35406 0.48005 0.31727 0.0
C1650 C 0.37142 0.48384 0.32756 0.0
H1651 H 0.24353 0.35417 0.3306 0.0
H1652 H 0.27944 0.3854 0.32655 0.0
C1653 C 0.39267 0.49935 0.32371 0.0
C1654 C 0.33166 0.46249 0.32073 0.0
H1655 H 0.29264 0.44133 0.35013 0.0
C1656 C 0.32089 0.44685 0.30877 0.0
C1657 C 0.32105 0.46077 0.33568 0.0
C1658 C 0.33096 0.4777 0.34863 0.0
C1659 C 0.30016 0.42934 0.31146 0.0
C1660 C 0.2901 0.427 0.32673 0.0
C1661 C 0.30053 0.44292 0.33854 0.0
C1662 C 0.26874 0.40814 0.33055 0.0
C1663 C 0.28915 0.41367 0.29779 0.0
C1664 C 0.25097 0.41053 0.33486 0.0
C1665 C 0.23052 0.39268 0.33741 0.0
C1666 C 0.2276 0.37218 0.33592 0.0
C1667 C 0.24545 0.36983 0.33192 0.0
C1668 C 0.26589 0.38764 0.3295 0.0
H1669 H 0.29583 0.42089 0.28578 0.0
H1670 H 0.29189 0.40006 0.29937 0.0
H1671 H 0.27138 0.40755 0.29769 0.0
H1672 H 0.25277 0.42618 0.33578 0.0
H1673 H 0.21693 0.39494 0.34011 0.0
H1674 H 0.49462 0.86125 0.28606 0.0
H1675 H 0.52272 0.85193 0.29161 0.0
H1676 H 0.53658 0.88491 0.33752 0.0
H1677 H 0.50802 0.89352 0.33226 0.0
H1678 H 0.56464 0.87668 0.29509 0.0
H1679 H 0.53433 0.83162 0.35214 0.0
H1680 H 0.51777 0.83828 0.33961 0.0
H1681 H 0.53699 0.85737 0.35378 0.0
C1682 C 0.50325 0.86597 0.29754 0.0
C1683 C 0.49857 0.87749 0.30899 0.0
C1684 C 0.51944 0.86078 0.30066 0.0
C1685 C 0.53152 0.86723 0.3152 0.0
C1686 C 0.52705 0.87902 0.3265 0.0
H1687 H 0.66155 0.88672 0.32804 0.0
H1688 H 0.62925 0.88995 0.32353 0.0
C1689 C 0.51076 0.88404 0.32345 0.0
C1690 C 0.5498 0.86301 0.31803 0.0
H1691 H 0.57178 0.84429 0.34595 0.0
C1692 C 0.56605 0.86941 0.30617 0.0
C1693 C 0.55164 0.85324 0.33236 0.0
C1694 C 0.53412 0.84452 0.34511 0.0
C1695 C 0.58425 0.8669 0.3084 0.0
C1696 C 0.58671 0.85829 0.32313 0.0
C1697 C 0.57016 0.85126 0.33479 0.0
C1698 C 0.60633 0.85649 0.32663 0.0
C1699 C 0.60049 0.87325 0.29479 0.0
C1700 C 0.60429 0.83677 0.33052 0.0
C1701 C 0.62276 0.835 0.33337 0.0
C1702 C 0.64362 0.85297 0.33261 0.0
C1703 C 0.64565 0.87267 0.32881 0.0
C1704 C 0.6272 0.87447 0.3261 0.0
H1705 H 0.59305 0.87307 0.28287 0.0
H1706 H 0.61398 0.88964 0.29699 0.0
H1707 H 0.60736 0.86252 0.29404 0.0
H1708 H 0.58841 0.82266 0.33106 0.0
H1709 H 0.62071 0.81953 0.33589 0.0
H1710 H 0.15529 0.62069 0.3271 0.0
H1711 H 0.16357 0.65727 0.33218 0.0
H1712 H 0.11468 0.64912 0.29727 0.0
H1713 H 0.10635 0.61255 0.29221 0.0
H1714 H 0.17655 0.69117 0.30893 0.0
H1715 H 0.09854 0.66985 0.33935 0.0
H1716 H 0.108 0.65117 0.33679 0.0
H1717 H 0.09629 0.65756 0.31993 0.0
C1718 C 0.14627 0.62675 0.32062 0.0
C1719 C 0.12987 0.61378 0.30958 0.0
C1720 C 0.15103 0.64757 0.32347 0.0
C1721 C 0.13945 0.65571 0.31531 0.0
C1722 C 0.12346 0.64295 0.30393 0.0
H1723 H 0.14185 0.77617 0.32126 0.0
H1724 H 0.13389 0.74029 0.31431 0.0
C1725 C 0.11875 0.62215 0.30104 0.0
C1726 C 0.14425 0.67762 0.31861 0.0
H1727 H 0.12253 0.70624 0.33448 0.0
C1728 C 0.16478 0.69452 0.31453 0.0
C1729 C 0.12879 0.68184 0.32585 0.0
C1730 C 0.10671 0.66419 0.33088 0.0
C1731 C 0.17023 0.71563 0.31737 0.0
C1732 C 0.15486 0.71986 0.32481 0.0
C1733 C 0.13427 0.70294 0.32877 0.0
C1734 C 0.15995 0.74172 0.32886 0.0
C1735 C 0.19223 0.7332 0.31209 0.0
C1736 C 0.17709 0.75431 0.33949 0.0
C1737 C 0.18179 0.77485 0.3434 0.0
C1738 C 0.16919 0.78309 0.33697 0.0
C1739 C 0.15188 0.77034 0.32644 0.0
C1740 C 0.14728 0.74982 0.32246 0.0
H1741 H 0.19935 0.72773 0.30255 0.0
H1742 H 0.19124 0.74697 0.30736 0.0
H1743 H 0.20343 0.73862 0.32267 0.0
H1744 H 0.1868 0.74823 0.34483 0.0
H1745 H 0.19539 0.78427 0.35138 0.0
H1746 H 0.83562 0.06699 0.40231 0.0
H1747 H 0.80776 0.02977 0.39778 0.0
H1748 H 0.85059 0.02235 0.36484 0.0
H1749 H 0.87849 0.05958 0.36939 0.0
H1750 H 0.78872 0.01099 0.36727 0.0
H1751 H 0.8298 0.9714 0.3959 0.0
H1752 H 0.83799 0.99884 0.39975 0.0
H1753 H 0.84583 0.99139 0.38125 0.0
C1754 C 0.83906 0.05735 0.39415 0.0
C1755 C 0.85905 0.06613 0.38603 0.0
C1756 C 0.82319 0.03614 0.39159 0.0
C1757 C 0.82716 0.02325 0.38107 0.0
C1758 C 0.84729 0.03191 0.37318 0.0
H1759 H 0.7529 0.89437 0.34502 0.0
H1760 H 0.78058 0.93074 0.35156 0.0
C1761 C 0.86314 0.05316 0.37569 0.0
C1762 C 0.80989 1.00105 0.37779 0.0
H1763 H 0.79771 0.94947 0.38086 0.0
C1764 C 0.7906 0.99751 0.37032 0.0
C1765 C 0.81245 0.98353 0.38173 0.0
C1766 C 0.83254 0.98637 0.39023 0.0
C1767 C 0.77397 0.97693 0.36635 0.0
C1768 C 0.7765 0.95936 0.3703 0.0
C1769 C 0.79577 0.96292 0.37785 0.0
C1770 C 0.7595 0.9372 0.36645 0.0
C1771 C 0.75415 0.97427 0.35751 0.0
C1772 C 0.73847 0.92856 0.37282 0.0
C1773 C 0.72246 0.9078 0.36891 0.0
C1774 C 0.72721 0.89519 0.35863 0.0
C1775 C 0.74847 0.90373 0.35264 0.0
C1776 C 0.76441 0.92451 0.35649 0.0
H1777 H 0.75729 0.98922 0.35154 0.0
H1778 H 0.74861 0.96161 0.34813 0.0
H1779 H 0.74079 0.96975 0.36633 0.0
H1780 H 0.73443 0.93785 0.38087 0.0
H1781 H 0.70635 0.9017 0.3739 0.0
H1782 H 0.9725 0.81785 0.40992 0.0
H1783 H 0.01002 0.82772 0.4034 0.0
H1784 H 0.98806 0.79165 0.35889 0.0
H1785 H 0.95077 0.78246 0.36509 0.0
H1786 H 0.02729 0.80359 0.40045 0.0
H1787 H 0.03873 0.84433 0.34174 0.0
H1788 H 0.01598 0.83808 0.35481 0.0
H1789 H 0.01535 0.81827 0.34129 0.0
C1790 C 0.97578 0.81255 0.39852 0.0
C1791 C 0.95873 0.79997 0.38773 0.0
C1792 C 0.99724 0.81808 0.39485 0.0
C1793 C 1.00211 0.81091 0.38042 0.0
C1794 C 0.98501 0.7981 0.36978 0.0
H1795 H 0.11242 0.79238 0.36689 0.0
H1796 H 0.07685 0.7891 0.37146 0.0
C1797 C 0.96363 0.79274 0.37338 0.0
C1798 C 0.02471 0.81541 0.3771 0.0
H1799 H 0.06413 0.83268 0.34793 0.0
C1800 C 0.03537 0.81015 0.38901 0.0
C1801 C 0.03558 0.82427 0.36228 0.0
C1802 C 0.0259 0.83178 0.34938 0.0
C1803 C 0.05615 0.81287 0.38637 0.0
C1804 C 0.06644 0.82051 0.37119 0.0
C1805 C 0.05614 0.82646 0.35946 0.0
C1806 C 0.08778 0.82229 0.36729 0.0
C1807 C 0.06695 0.80775 0.40002 0.0
C1808 C 0.10566 0.84184 0.36272 0.0
C1809 C 0.12595 0.84364 0.35984 0.0
C1810 C 0.12866 0.82585 0.36127 0.0
C1811 C 0.11072 0.80629 0.3656 0.0
C1812 C 0.09044 0.80445 0.36835 0.0
H1813 H 0.06034 0.80862 0.41202 0.0
H1814 H 0.06388 0.79133 0.39841 0.0
H1815 H 0.08477 0.81875 0.40013 0.0
H1816 H 0.10405 0.85582 0.36175 0.0
H1817 H 0.1396 0.85902 0.35688 0.0
H1818 H 0.26218 0.18858 0.38593 0.0
H1819 H 0.25229 0.21572 0.38015 0.0
H1820 H 0.18447 0.16823 0.38239 0.0
H1821 H 0.19428 0.14095 0.388 0.0
H1822 H 0.22312 0.21379 0.35286 0.0
H1823 H 0.19443 0.21812 0.41487 0.0
H1824 H 0.21282 0.20823 0.41119 0.0
H1825 H 0.18459 0.19214 0.40622 0.0
C1826 C 0.24518 0.18399 0.38532 0.0
C1827 C 0.22898 0.1628 0.38781 0.0
C1828 C 0.23956 0.19945 0.38198 0.0
C1829 C 0.21768 0.19396 0.38108 0.0
C1830 C 0.20145 0.17277 0.3833 0.0
H1831 H 0.15982 0.26612 0.3444 0.0
H1832 H 0.16894 0.23863 0.35038 0.0
C1833 C 0.20705 0.15727 0.38652 0.0
C1834 C 0.21185 0.21037 0.3775 0.0
H1835 H 0.19044 0.23869 0.39446 0.0
C1836 C 0.21595 0.21924 0.36192 0.0
C1837 C 0.20265 0.21745 0.38942 0.0
C1838 C 0.19843 0.20866 0.40643 0.0
C1839 C 0.21086 0.23498 0.35789 0.0
C1840 C 0.20147 0.24192 0.36976 0.0
C1841 C 0.19756 0.23319 0.38539 0.0
C1842 C 0.19589 0.25851 0.36621 0.0
C1843 C 0.21579 0.2443 0.34104 0.0
C1844 C 0.20789 0.27866 0.37331 0.0
C1845 C 0.20293 0.29452 0.36976 0.0
C1846 C 0.18576 0.29043 0.3591 0.0
C1847 C 0.17347 0.27001 0.35231 0.0
C1848 C 0.17857 0.25422 0.35578 0.0
H1849 H 0.22624 0.23973 0.33415 0.0
H1850 H 0.20036 0.23858 0.33423 0.0
H1851 H 0.22398 0.26188 0.34167 0.0
H1852 H 0.22126 0.28217 0.38146 0.0
H1853 H 0.21265 0.31 0.37529 0.0
H1854 H 0.617 0.52156 0.74214 0.0
H1855 H 0.65064 0.55069 0.73126 0.0
H1856 H 0.66943 0.50603 0.71447 0.0
H1857 H 0.6357 0.47673 0.72534 0.0
H1858 H 0.69188 0.56151 0.74056 0.0
H1859 H 0.68107 0.54319 0.67454 0.0
H1860 H 0.65889 0.531 0.68876 0.0
H1861 H 0.67802 0.52179 0.68717 0.0
C1862 C 0.62826 0.51791 0.73612 0.0
C1863 C 0.62368 0.4968 0.73468 0.0
C1864 C 0.64744 0.53458 0.72982 0.0
C1865 C 0.66248 0.53057 0.72187 0.0
C1866 C 0.65787 0.50951 0.72022 0.0
H1867 H 0.79527 0.61768 0.69019 0.0
H1868 H 0.76015 0.58586 0.69551 0.0
C1869 C 0.63861 0.49277 0.72648 0.0
C1870 C 0.68354 0.54863 0.71635 0.0
H1871 H 0.71547 0.57133 0.68302 0.0
C1872 C 0.69697 0.56366 0.72796 0.0
C1873 C 0.69029 0.55135 0.69993 0.0
C1874 C 0.67626 0.5361 0.68683 0.0
C1875 C 0.71689 0.58131 0.72365 0.0
C1876 C 0.72348 0.58422 0.70722 0.0
C1877 C 0.7103 0.56906 0.6956 0.0
C1878 C 0.7439 0.60321 0.70203 0.0
C1879 C 0.73086 0.59662 0.73676 0.0
C1880 C 0.74619 0.62345 0.70347 0.0
C1881 C 0.76614 0.64158 0.70035 0.0
C1882 C 0.78407 0.63981 0.69548 0.0
C1883 C 0.7816 0.61951 0.69357 0.0
C1884 C 0.76158 0.60134 0.69667 0.0
H1885 H 0.726 0.58962 0.74907 0.0
H1886 H 0.74823 0.60167 0.73489 0.0
H1887 H 0.72918 0.61097 0.73631 0.0
H1888 H 0.73269 0.62523 0.70747 0.0
H1889 H 0.76771 0.65705 0.70206 0.0
H1890 H 0.51953 0.14211 0.76096 0.0
H1891 H 0.4895 0.14565 0.75067 0.0
H1892 H 0.50563 0.13764 0.7017 0.0
H1893 H 0.53471 0.13217 0.71205 0.0
H1894 H 0.48657 0.17255 0.73273 0.0
H1895 H 0.44294 0.09539 0.70045 0.0
H1896 H 0.46588 0.10218 0.71349 0.0
H1897 H 0.46993 0.11205 0.69301 0.0
C1898 C 0.51651 0.14058 0.748 0.0
C1899 C 0.52943 0.1363 0.73744 0.0
C1900 C 0.49938 0.14291 0.74209 0.0
C1901 C 0.49478 0.14142 0.72539 0.0
C1902 C 0.50826 0.13817 0.71468 0.0
H1903 H 0.40303 0.18188 0.69216 0.0
H1904 H 0.43602 0.18028 0.69726 0.0
C1905 C 0.52522 0.13542 0.72063 0.0
C1906 C 0.47599 0.14346 0.71945 0.0
H1907 H 0.42899 0.11863 0.6972 0.0
C1908 C 0.47398 0.16071 0.72497 0.0
C1909 C 0.45933 0.12796 0.70944 0.0
C1910 C 0.45946 0.10825 0.70388 0.0
C1911 C 0.45579 0.16267 0.72111 0.0
C1912 C 0.43938 0.14743 0.7108 0.0
C1913 C 0.44156 0.1304 0.70501 0.0
C1914 C 0.4193 0.14819 0.70659 0.0
C1915 C 0.45399 0.1806 0.72878 0.0
C1916 C 0.39871 0.13042 0.70937 0.0
C1917 C 0.37977 0.1311 0.70589 0.0
C1918 C 0.38096 0.14948 0.69942 0.0
C1919 C 0.40152 0.1673 0.69674 0.0
C1920 C 0.42046 0.16651 0.69996 0.0
H1921 H 0.46416 0.1867 0.73991 0.0
H1922 H 0.45979 0.19391 0.72006 0.0
H1923 H 0.43695 0.17551 0.73207 0.0
H1924 H 0.39725 0.11608 0.7145 0.0
H1925 H 0.36415 0.11724 0.70832 0.0
H1926 H 0.92231 0.40452 0.74464 0.0
H1927 H 0.91667 0.37088 0.73371 0.0
H1928 H 0.85604 0.35853 0.71238 0.0
H1929 H 0.86131 0.39202 0.72354 0.0
H1930 H 0.87945 0.32974 0.74053 0.0
H1931 H 0.88947 0.34899 0.67467 0.0
H1932 H 0.89949 0.3692 0.69028 0.0
H1933 H 0.87106 0.35475 0.68549 0.0
C1934 C 0.90771 0.39463 0.73769 0.0
C1935 C 0.89219 0.40091 0.73505 0.0
C1936 C 0.9046 0.37549 0.73137 0.0
C1937 C 0.88605 0.36237 0.72214 0.0
C1938 C 0.87064 0.36865 0.71926 0.0
H1939 H 0.83699 0.23843 0.67781 0.0
H1940 H 0.8435 0.27326 0.68644 0.0
C1941 C 0.87369 0.38778 0.72564 0.0
C1942 C 0.8824 0.34163 0.71622 0.0
H1943 H 0.87847 0.31359 0.68186 0.0
C1944 C 0.8793 0.32619 0.72771 0.0
C1945 C 0.88209 0.3371 0.6995 0.0
C1946 C 0.88585 0.35339 0.68672 0.0
C1947 C 0.87563 0.30616 0.72292 0.0
C1948 C 0.87561 0.30168 0.70618 0.0
C1949 C 0.87859 0.31711 0.69468 0.0
C1950 C 0.87234 0.28099 0.7004 0.0
C1951 C 0.87131 0.28982 0.73581 0.0
C1952 C 0.88669 0.27399 0.7051 0.0
C1953 C 0.88301 0.25406 0.70022 0.0
C1954 C 0.86505 0.24088 0.69037 0.0
C1955 C 0.85106 0.24822 0.6853 0.0
C1956 C 0.85472 0.26811 0.69025 0.0
H1957 H 0.86599 0.29363 0.7474 0.0
H1958 H 0.85867 0.27374 0.73177 0.0
H1959 H 0.88646 0.28946 0.73828 0.0
H1960 H 0.90068 0.2839 0.71263 0.0
H1961 H 0.8942 0.24899 0.70423 0.0
H1962 H 0.18737 0.93921 0.61903 0.0
H1963 H 0.21552 0.97305 0.63004 0.0
H1964 H 0.16646 0.98525 0.64927 0.0
H1965 H 0.13806 0.95166 0.6377 0.0
H1966 H 0.19822 0.01936 0.63292 0.0
H1967 H 0.23613 0.98949 0.67637 0.0
H1968 H 0.23459 0.97966 0.65613 0.0
H1969 H 0.21001 0.97244 0.66711 0.0
C1970 C 0.18251 0.94908 0.62557 0.0
C1971 C 0.1604 0.94272 0.6274 0.0
C1972 C 0.19867 0.96833 0.63206 0.0
C1973 C 0.19315 0.98157 0.64072 0.0
C1974 C 0.17111 0.97521 0.64274 0.0
H1975 H 0.27004 0.10797 0.68281 0.0
H1976 H 0.24094 0.07283 0.67485 0.0
C1977 C 0.15489 0.95593 0.63621 0.0
C1978 C 0.21041 0.00254 0.64686 0.0
H1979 H 0.25623 0.02653 0.6704 0.0
C1980 C 0.21077 0.02091 0.64124 0.0
C1981 C 0.22686 0.00459 0.65769 0.0
C1982 C 0.22681 0.98549 0.66481 0.0
C1983 C 0.22739 0.04124 0.64581 0.0
C1984 C 0.24397 0.04327 0.65645 0.0
C1985 C 0.24355 0.02493 0.66218 0.0
C1986 C 0.26185 0.06433 0.66177 0.0
C1987 C 0.22739 0.06041 0.63888 0.0
C1988 C 0.28341 0.07105 0.65742 0.0
C1989 C 0.30021 0.09116 0.66207 0.0
C1990 C 0.29576 0.10483 0.6713 0.0
C1991 C 0.27415 0.09785 0.67584 0.0
C1992 C 0.25741 0.0778 0.67117 0.0
H1993 H 0.21656 0.05628 0.62812 0.0
H1994 H 0.22155 0.06734 0.64826 0.0
H1995 H 0.24404 0.07274 0.63534 0.0
H1996 H 0.28719 0.06085 0.65022 0.0
H1997 H 0.31664 0.09599 0.65838 0.0
H1998 H 0.07557 0.24568 0.62149 0.0
H1999 H 0.04127 0.24098 0.6318 0.0
H2000 H 0.02316 0.1779 0.64771 0.0
H2001 H 0.05761 0.18253 0.63742 0.0
H2002 H 1.00084 0.21154 0.62135 0.0
H2003 H 0.00813 0.20138 0.68744 0.0
H2004 H 0.03112 0.21163 0.67392 0.0
H2005 H 0.01217 0.18363 0.67465 0.0
C2006 C 0.06435 0.23081 0.62725 0.0
C2007 C 0.06934 0.21444 0.62852 0.0
C2008 C 0.04475 0.22818 0.63321 0.0
C2009 C 0.02962 0.20915 0.64068 0.0
C2010 C 0.03471 0.1929 0.64232 0.0
H2011 H 0.89525 0.16512 0.67081 0.0
H2012 H 0.93042 0.16765 0.66543 0.0
C2013 C 0.05442 0.19556 0.63639 0.0
C2014 C 0.00802 0.20602 0.64565 0.0
H2015 H 0.97414 0.19596 0.67806 0.0
C2016 C 0.99508 0.20819 0.63377 0.0
C2017 C 1.00032 0.20145 0.66184 0.0
C2018 C 0.0137 0.19955 0.67526 0.0
C2019 C 0.97481 0.20601 0.63757 0.0
C2020 C 0.96729 0.20186 0.65378 0.0
C2021 C 0.97996 0.19924 0.66566 0.0
C2022 C 0.94654 0.20072 0.65854 0.0
C2023 C 0.96148 0.20797 0.62412 0.0
C2024 C 0.94403 0.21857 0.65686 0.0
C2025 C 0.92404 0.21718 0.66001 0.0
C2026 C 0.90622 0.19802 0.6652 0.0
C2027 C 0.90882 0.18023 0.6672 0.0
C2028 C 0.92888 0.18163 0.66405 0.0
H2029 H 0.96678 0.20571 0.61196 0.0
H2030 H 0.94398 0.19618 0.6256 0.0
H2031 H 0.96339 0.22405 0.62452 0.0
H2032 H 0.95747 0.23352 0.6528 0.0
H2033 H 0.92242 0.23107 0.65823 0.0
H2034 H 0.7694 0.8287 0.61658 0.0
H2035 H 0.77581 0.80145 0.62809 0.0
H2036 H 0.83674 0.84989 0.64812 0.0
H2037 H 0.83091 0.87731 0.63601 0.0
H2038 H 0.84039 0.81859 0.63276 0.0
H2039 H 0.7706 0.78304 0.67498 0.0
H2040 H 0.76271 0.78392 0.65443 0.0
H2041 H 0.77962 0.80827 0.66525 0.0
C2042 C 0.78425 0.83359 0.62334 0.0
C2043 C 0.79966 0.85522 0.62536 0.0
C2044 C 0.78773 0.81798 0.63012 0.0
C2045 C 0.80655 0.82365 0.63923 0.0
C2046 C 0.822 0.84519 0.64126 0.0
H2047 H 0.8555 0.74792 0.6854 0.0
H2048 H 0.84953 0.77687 0.67725 0.0
C2049 C 0.81858 0.86083 0.63442 0.0
C2050 C 0.81053 0.80705 0.64601 0.0
H2051 H 0.78849 0.76313 0.67016 0.0
C2052 C 0.82917 0.8066 0.64107 0.0
C2053 C 0.79586 0.79144 0.65688 0.0
C2054 C 0.77619 0.79177 0.66333 0.0
C2055 C 0.8332 0.79056 0.64631 0.0
C2056 C 0.81829 0.77471 0.65687 0.0
C2057 C 0.79982 0.7753 0.662 0.0
C2058 C 0.82138 0.7571 0.66239 0.0
C2059 C 0.85305 0.79031 0.64019 0.0
C2060 C 0.80723 0.73636 0.65699 0.0
C2061 C 0.81052 0.71975 0.66165 0.0
C2062 C 0.82794 0.72358 0.67193 0.0
C2063 C 0.84184 0.74436 0.67757 0.0
C2064 C 0.83857 0.76097 0.67284 0.0
H2065 H 0.86078 0.80137 0.62988 0.0
H2066 H 0.86514 0.79512 0.65016 0.0
H2067 H 0.84879 0.77407 0.63624 0.0
H2068 H 0.79383 0.73311 0.64894 0.0
H2069 H 0.79947 0.70394 0.65713 0.0
H2070 H 0.05634 0.83305 0.61818 0.0
H2071 H 0.01912 0.80577 0.6251 0.0
H2072 H 0.03062 0.82703 0.67495 0.0
H2073 H 0.06785 0.85418 0.66806 0.0
H2074 H 0.0132 0.78357 0.67168 0.0
H2075 H 0.96546 0.81051 0.63586 0.0
H2076 H 0.98536 0.80798 0.62419 0.0
H2077 H 0.99401 0.82747 0.64015 0.0
C2078 C 0.05075 0.83203 0.63055 0.0
C2079 C 0.06491 0.84565 0.64258 0.0
C2080 C 0.02949 0.81654 0.63449 0.0
C2081 C 0.02199 0.81449 0.65052 0.0
C2082 C 0.03603 0.82837 0.66249 0.0
H2083 H 0.88569 0.73033 0.6761 0.0
H2084 H 0.92207 0.76125 0.67318 0.0
C2085 C 0.05726 0.84387 0.65855 0.0
C2086 C 1.00004 0.797 0.65502 0.0
H2087 H 0.94601 0.77554 0.64667 0.0
C2088 C 0.99848 0.7819 0.66632 0.0
C2089 C 0.98083 0.79494 0.64816 0.0
C2090 C 0.9814 0.81119 0.63653 0.0
C2091 C 0.97832 0.7645 0.67062 0.0
C2092 C 0.95911 0.76192 0.66326 0.0
C2093 C 0.96066 0.77738 0.65229 0.0
C2094 C 0.93736 0.74305 0.66634 0.0
C2095 C 0.97798 0.74914 0.68303 0.0
C2096 C 0.93371 0.72248 0.66351 0.0
C2097 C 0.91303 0.70481 0.66552 0.0
C2098 C 0.89551 0.7073 0.67033 0.0
C2099 C 0.89903 0.72786 0.67295 0.0
C2100 C 0.91979 0.74556 0.67109 0.0
H2101 H 0.99197 0.75707 0.69154 0.0
H2102 H 0.96281 0.74188 0.69019 0.0
H2103 H 0.97921 0.73631 0.67671 0.0
H2104 H 0.94675 0.72008 0.65933 0.0
H2105 H 0.91063 0.68915 0.66301 0.0
H2106 H 0.16224 0.19556 0.61964 0.0
H2107 H 0.18996 0.18561 0.6248 0.0
H2108 H 0.20561 0.2193 0.67047 0.0
H2109 H 0.17743 0.22854 0.6656 0.0
H2110 H 0.23207 0.20968 0.62768 0.0
H2111 H 0.20248 0.16569 0.68522 0.0
H2112 H 0.18596 0.17261 0.67289 0.0
H2113 H 0.20572 0.19168 0.68679 0.0
C2114 C 0.17117 0.2003 0.63098 0.0
C2115 C 0.1671 0.21221 0.64249 0.0
C2116 C 0.18715 0.19475 0.63389 0.0
C2117 C 0.19962 0.20121 0.64824 0.0
C2118 C 0.19576 0.2134 0.65959 0.0
H2119 H 0.32914 0.21912 0.65974 0.0
H2120 H 0.29701 0.22254 0.65498 0.0
C2121 C 0.17969 0.21877 0.65676 0.0
C2122 C 0.21766 0.19658 0.65085 0.0
H2123 H 0.23969 0.17779 0.67863 0.0
C2124 C 0.23359 0.20252 0.63878 0.0
C2125 C 0.21962 0.18692 0.6652 0.0
C2126 C 0.20239 0.17865 0.67817 0.0
C2127 C 0.25163 0.19971 0.64084 0.0
C2128 C 0.25428 0.19128 0.65561 0.0
C2129 C 0.23799 0.18465 0.66745 0.0
C2130 C 0.27385 0.18933 0.65901 0.0
C2131 C 0.26748 0.20553 0.62701 0.0
C2132 C 0.27166 0.16973 0.66348 0.0
C2133 C 0.29005 0.16788 0.66653 0.0
C2134 C 0.31098 0.18566 0.66536 0.0
C2135 C 0.31318 0.20522 0.66086 0.0
C2136 C 0.29481 0.20712 0.65798 0.0
H2137 H 0.2597 0.20496 0.61516 0.0
H2138 H 0.28105 0.22198 0.62882 0.0
H2139 H 0.27429 0.19475 0.62637 0.0
H2140 H 0.25572 0.15576 0.66441 0.0
H2141 H 0.28787 0.15248 0.66959 0.0
H2142 H 0.76969 0.94629 0.62549 0.0
H2143 H 0.77959 0.98324 0.63095 0.0
H2144 H 0.8286 0.98916 0.66489 0.0
H2145 H 0.81872 0.9522 0.65943 0.0
H2146 H 0.77911 1.00096 0.66228 0.0
H2147 H 0.86092 0.04068 0.63403 0.0
H2148 H 0.84074 0.01349 0.62961 0.0
H2149 H 0.85588 0.02005 0.64826 0.0
C2150 C 0.78254 0.95552 0.63413 0.0
C2151 C 0.79327 0.94644 0.64225 0.0
C2152 C 0.78819 0.97656 0.6372 0.0
C2153 C 0.8049 0.98891 0.64823 0.0
C2154 C 0.81583 0.97993 0.6562 0.0
H2155 H 0.86261 0.1177 0.68429 0.0
H2156 H 0.85292 0.08116 0.6783 0.0
C2157 C 0.81012 0.95887 0.65317 0.0
C2158 C 0.81044 0.01099 0.65177 0.0
H2159 H 0.85109 0.0625 0.64886 0.0
C2160 C 0.7948 0.01446 0.65929 0.0
C2161 C 0.83095 0.02847 0.6479 0.0
C2162 C 0.84808 0.02561 0.63938 0.0
C2163 C 0.79928 0.03499 0.66335 0.0
C2164 C 0.81977 0.05252 0.65941 0.0
C2165 C 0.8354 0.04903 0.65186 0.0
C2166 C 0.82538 0.07462 0.66311 0.0
C2167 C 0.78222 0.03767 0.67218 0.0
C2168 C 0.81328 0.08316 0.6564 0.0
C2169 C 0.81858 0.10399 0.65999 0.0
C2170 C 0.83623 0.11672 0.67026 0.0
C2171 C 0.84862 0.10823 0.67665 0.0
C2172 C 0.84322 0.08738 0.67313 0.0
H2173 H 0.7701 0.02274 0.67816 0.0
H2174 H 0.78969 0.05036 0.68154 0.0
H2175 H 0.77346 0.04219 0.66335 0.0
H2176 H 0.79977 0.07376 0.64831 0.0
H2177 H 0.80883 0.11005 0.65471 0.0
H2178 H 0.54553 0.39339 0.70245 0.0
H2179 H 0.51723 0.35624 0.69804 0.0
H2180 H 0.47573 0.36404 0.73209 0.0
H2181 H 0.50396 0.40116 0.73647 0.0
H2182 H 0.49524 0.32208 0.72111 0.0
H2183 H 0.439 0.3427 0.68975 0.0
H2184 H 0.46745 0.36162 0.69268 0.0
H2185 H 0.44882 0.35497 0.70926 0.0
C2186 C 0.53036 0.38709 0.70898 0.0
C2187 C 0.52669 0.40017 0.71953 0.0
C2188 C 0.51426 0.36593 0.70649 0.0
C2189 C 0.49423 0.35752 0.7145 0.0
C2190 C 0.49089 0.37035 0.72554 0.0
H2191 H 0.3735 0.23651 0.70708 0.0
H2192 H 0.40202 0.27244 0.71424 0.0
C2193 C 0.50701 0.39148 0.72806 0.0
C2194 C 0.47675 0.33544 0.71114 0.0
H2195 H 0.42597 0.30639 0.69475 0.0
C2196 C 0.48009 0.31861 0.71534 0.0
C2197 C 0.45699 0.33098 0.70365 0.0
C2198 C 0.4528 0.34848 0.69843 0.0
C2199 C 0.46407 0.29741 0.71243 0.0
C2200 C 0.44439 0.29294 0.70474 0.0
C2201 C 0.44103 0.3098 0.70065 0.0
C2202 C 0.4272 0.27095 0.70059 0.0
C2203 C 0.46823 0.27999 0.71792 0.0
C2204 C 0.43176 0.25821 0.69039 0.0
C2205 C 0.41555 0.23762 0.68636 0.0
C2206 C 0.39426 0.22941 0.69222 0.0
C2207 C 0.38967 0.24228 0.70233 0.0
C2208 C 0.40597 0.26286 0.70643 0.0
H2209 H 0.48068 0.28555 0.72771 0.0
H2210 H 0.45313 0.26606 0.72241 0.0
H2211 H 0.47436 0.2748 0.70752 0.0
H2212 H 0.44788 0.26423 0.68543 0.0
H2213 H 0.4198 0.22814 0.67873 0.0
H2214 H 0.6373 0.1653 0.71227 0.0
H2215 H 0.67456 0.17331 0.7063 0.0
H2216 H 0.65808 0.11047 0.72172 0.0
H2217 H 0.62102 0.10248 0.72767 0.0
H2218 H 0.70667 0.17148 0.72674 0.0
H2219 H 0.68178 0.11488 0.67513 0.0
H2220 H 0.66428 0.12383 0.68351 0.0
H2221 H 0.66725 0.10356 0.69362 0.0
C2222 C 0.64178 0.15333 0.71453 0.0
C2223 C 0.62627 0.13329 0.72043 0.0
C2224 C 0.663 0.15787 0.71108 0.0
C2225 C 0.66903 0.14237 0.71329 0.0
C2226 C 0.65372 0.12256 0.71963 0.0
H2227 H 0.78056 0.12685 0.70112 0.0
H2228 H 0.74489 0.12351 0.70535 0.0
C2229 C 0.63258 0.11806 0.72314 0.0
C2230 C 0.69121 0.14669 0.70888 0.0
H2231 H 0.71811 0.12937 0.68449 0.0
C2232 C 0.70922 0.16242 0.71741 0.0
C2233 C 0.69455 0.13491 0.69666 0.0
C2234 C 0.67599 0.11847 0.68657 0.0
C2235 C 0.73034 0.16607 0.71453 0.0
C2236 C 0.73362 0.15396 0.70252 0.0
C2237 C 0.71564 0.1386 0.69372 0.0
C2238 C 0.75534 0.15618 0.69945 0.0
C2239 C 0.74882 0.18227 0.72481 0.0
C2240 C 0.77311 0.17558 0.69451 0.0
C2241 C 0.79354 0.17749 0.69212 0.0
C2242 C 0.79647 0.15992 0.69428 0.0
C2243 C 0.77867 0.14055 0.69914 0.0
C2244 C 0.7583 0.13864 0.70155 0.0
H2245 H 0.74291 0.18641 0.73594 0.0
H2246 H 0.7599 0.17639 0.72845 0.0
H2247 H 0.75829 0.197 0.71767 0.0
H2248 H 0.77122 0.18926 0.69252 0.0
H2249 H 0.80706 0.19276 0.68875 0.0
H2250 H 0.87431 0.47999 0.69993 0.0
H2251 H 0.86438 0.50729 0.69467 0.0
H2252 H 0.91051 0.54764 0.73095 0.0
H2253 H 0.92046 0.5204 0.7362 0.0
H2254 H 0.84867 0.52666 0.71777 0.0
H2255 H 0.92685 0.58484 0.68929 0.0
H2256 H 0.91858 0.55714 0.69149 0.0
H2257 H 0.929 0.5747 0.70866 0.0
C2258 C 0.88238 0.49477 0.70667 0.0
C2259 C 0.89847 0.49839 0.71818 0.0
C2260 C 0.87668 0.51027 0.70371 0.0
C2261 C 0.887 0.52958 0.71223 0.0
C2262 C 0.90269 0.533 0.72403 0.0
H2263 H 0.87997 0.64497 0.70868 0.0
H2264 H 0.88854 0.61718 0.71491 0.0
C2265 C 0.90833 0.51748 0.72703 0.0
C2266 C 0.88121 0.5461 0.70889 0.0
H2267 H 0.90154 0.59625 0.69416 0.0
C2268 C 0.86017 0.54186 0.71256 0.0
C2269 C 0.89631 0.56589 0.70215 0.0
C2270 C 0.91892 0.57096 0.69752 0.0
C2271 C 0.85391 0.55711 0.70993 0.0
C2272 C 0.86899 0.57689 0.70308 0.0
C2273 C 0.89003 0.58108 0.69941 0.0
C2274 C 0.86329 0.59347 0.69956 0.0
C2275 C 0.8314 0.55206 0.71484 0.0
C2276 C 0.84632 0.58939 0.68879 0.0
C2277 C 0.84126 0.60519 0.6853 0.0
C2278 C 0.85331 0.6255 0.69229 0.0
C2279 C 0.87035 0.62954 0.70305 0.0
C2280 C 0.87531 0.61368 0.70661 0.0
H2281 H 0.82427 0.53911 0.72394 0.0
H2282 H 0.83155 0.56624 0.71999 0.0
H2283 H 0.82067 0.54676 0.70399 0.0
H2284 H 0.8371 0.57404 0.68297 0.0
H2285 H 0.82784 0.60141 0.67715 0.0
H2286 H 0.48687 0.92078 0.25226 0.0
H2287 H 0.49727 0.93675 0.22529 0.0
H2288 H 0.43057 0.90092 0.20957 0.0
H2289 H 0.42004 0.88465 0.2364 0.0
H2290 H 0.49118 0.91676 0.19435 0.0
H2291 H 0.44808 0.96262 0.19847 0.0
H2292 H 0.45356 0.95126 0.21605 0.0
H2293 H 0.43175 0.93472 0.20247 0.0
C2294 C 0.47441 0.91614 0.24305 0.0
C2295 C 0.45257 0.9015 0.24659 0.0
C2296 C 0.48038 0.92537 0.22764 0.0
C2297 C 0.46466 0.92028 0.21548 0.0
C2298 C 0.44292 0.90543 0.21886 0.0
H2299 H 0.4749 0.97117 0.11742 0.0
H2300 H 0.46149 0.94942 0.14198 0.0
C2301 C 0.43693 0.89617 0.23424 0.0
C2302 C 0.47107 0.93045 0.19926 0.0
H2303 H 0.46477 0.96371 0.17346 0.0
C2304 C 0.48541 0.92702 0.18977 0.0
C2305 C 0.4634 0.94372 0.19324 0.0
C2306 C 0.44848 0.9485 0.2031 0.0
C2307 C 0.49228 0.93647 0.17443 0.0
C2308 C 0.48497 0.9501 0.16856 0.0
C2309 C 0.47033 0.95324 0.17794 0.0
C2310 C 0.49317 0.96213 0.15314 0.0
C2311 C 0.50711 0.93155 0.16459 0.0
C2312 C 0.51542 0.97648 0.15122 0.0
C2313 C 0.52311 0.98879 0.13719 0.0
C2314 C 0.50872 0.98723 0.12479 0.0
C2315 C 0.48645 0.97261 0.12663 0.0
C2316 C 0.47875 0.96027 0.14071 0.0
H2317 H 0.50565 0.91621 0.16825 0.0
H2318 H 0.50352 0.9309 0.15141 0.0
H2319 H 0.52418 0.94418 0.16667 0.0
H2320 H 0.52683 0.97853 0.16074 0.0
H2321 H 0.54038 0.99971 0.13613 0.0
H2322 H 0.08384 0.51669 0.25108 0.0
H2323 H 0.06619 0.51085 0.2245 0.0
H2324 H 0.11295 0.57472 0.21053 0.0
H2325 H 0.13082 0.58068 0.23711 0.0
H2326 H 0.05031 0.53975 0.21028 0.0
H2327 H 0.11184 0.53206 0.17367 0.0
H2328 H 0.1086 0.52661 0.19519 0.0
H2329 H 0.12118 0.55345 0.18818 0.0
C2330 C 0.09047 0.52943 0.2423 0.0
C2331 C 0.10875 0.54912 0.24612 0.0
C2332 C 0.08033 0.5261 0.22718 0.0
C2333 C 0.08842 0.54231 0.21559 0.0
C2334 C 0.10662 0.56199 0.21933 0.0
H2335 H 0.04692 0.54299 0.11594 0.0
H2336 H 0.06744 0.55149 0.14147 0.0
C2337 C 0.11669 0.5654 0.23451 0.0
C2338 C 0.07739 0.5387 0.19973 0.0
H2339 H 0.08164 0.52934 0.15966 0.0
C2340 C 0.05712 0.5375 0.19918 0.0
C2341 C 0.08651 0.53599 0.18534 0.0
C2342 C 0.10819 0.53697 0.18548 0.0
C2343 C 0.04563 0.53363 0.18454 0.0
C2344 C 0.05441 0.53025 0.17017 0.0
C2345 C 0.0749 0.53182 0.1707 0.0
C2346 C 0.04237 0.52471 0.15456 0.0
C2347 C 0.02435 0.53352 0.18458 0.0
C2348 C 0.02174 0.50655 0.15335 0.0
C2349 C 0.01 0.50174 0.13885 0.0
C2350 C 0.01879 0.51484 0.1252 0.0
C2351 C 0.03978 0.53259 0.12625 0.0
C2352 C 0.05147 0.53749 0.14082 0.0
H2353 H 0.02325 0.54256 0.19507 0.0
H2354 H 0.02214 0.54041 0.17321 0.0
H2355 H 0.0108 0.51692 0.18556 0.0
H2356 H 0.01468 0.49612 0.16366 0.0
H2357 H 0.99403 0.48774 0.1383 0.0
H2358 H 0.50167 0.56786 0.2519 0.0
H2359 H 0.5095 0.55942 0.22498 0.0
H2360 H 0.44296 0.53588 0.21061 0.0
H2361 H 0.43515 0.5451 0.23744 0.0
H2362 H 0.49191 0.52106 0.20935 0.0
H2363 H 0.47631 0.57722 0.17416 0.0
H2364 H 0.47903 0.57857 0.19599 0.0
H2365 H 0.45423 0.5588 0.18663 0.0
C2366 C 0.48873 0.56116 0.24297 0.0
C2367 C 0.46783 0.55742 0.2468 0.0
C2368 C 0.4932 0.55619 0.22761 0.0
C2369 C 0.47693 0.54734 0.21568 0.0
C2370 C 0.4559 0.5431 0.21951 0.0
H2371 H 0.48951 0.50997 0.11631 0.0
H2372 H 0.47427 0.51493 0.14154 0.0
C2373 C 0.45139 0.54814 0.23492 0.0
C2374 C 0.48218 0.54237 0.19938 0.0
H2375 H 0.48618 0.55563 0.15922 0.0
C2376 C 0.49054 0.52854 0.19839 0.0
C2377 C 0.48033 0.5521 0.18506 0.0
C2378 C 0.47216 0.56764 0.18544 0.0
C2379 C 0.49745 0.52447 0.18355 0.0
C2380 C 0.49614 0.53461 0.16934 0.0
C2381 C 0.48715 0.5479 0.17017 0.0
C2382 C 0.50527 0.53253 0.15374 0.0
C2383 C 0.5063 0.50947 0.18318 0.0
C2384 C 0.52775 0.54125 0.15216 0.0
C2385 C 0.53652 0.53866 0.13776 0.0
C2386 C 0.52298 0.52722 0.12463 0.0
C2387 C 0.50044 0.51899 0.12611 0.0
C2388 C 0.49168 0.5217 0.14054 0.0
H2389 H 0.50162 0.49931 0.19417 0.0
H2390 H 0.50043 0.49912 0.17225 0.0
H2391 H 0.52428 0.51879 0.18267 0.0
H2392 H 0.53853 0.54998 0.16213 0.0
H2393 H 0.55397 0.54564 0.13694 0.0
H2394 H 0.93741 0.4848 0.77651 0.0
H2395 H 0.95435 0.49388 0.80342 0.0
H2396 H 0.91397 0.42901 0.81861 0.0
H2397 H 0.89631 0.41999 0.792 0.0
H2398 H 0.91843 0.45792 0.84235 0.0
H2399 H 0.99853 0.47674 0.81719 0.0
H2400 H 0.98728 0.49184 0.80865 0.0
H2401 H 0.97383 0.46365 0.80539 0.0
C2402 C 0.93185 0.47255 0.78566 0.0
C2403 C 0.91568 0.4516 0.78204 0.0
C2404 C 0.94172 0.47772 0.80098 0.0
C2405 C 0.93572 0.46201 0.81288 0.0
C2406 C 0.91896 0.44132 0.80954 0.0
H2407 H 0.00885 0.45711 0.89409 0.0
H2408 H 0.98885 0.45241 0.86882 0.0
C2409 C 0.90903 0.43616 0.79428 0.0
C2410 C 0.94743 0.46679 0.82861 0.0
H2411 H 0.99706 0.48202 0.84532 0.0
C2412 C 0.93564 0.46328 0.84303 0.0
C2413 C 0.96983 0.4735 0.82942 0.0
C2414 C 0.98312 0.47649 0.81436 0.0
C2415 C 0.94564 0.4662 0.85829 0.0
C2416 C 0.96808 0.47315 0.85908 0.0
C2417 C 0.97988 0.47682 0.84465 0.0
C2418 C 0.97954 0.47576 0.87471 0.0
C2419 C 0.93195 0.46114 0.87338 0.0
C2420 C 0.98098 0.49049 0.88639 0.0
C2421 C 0.99239 0.49318 0.90088 0.0
C2422 C 1.00277 0.48137 0.90382 0.0
C2423 C 1.00125 0.46663 0.89208 0.0
C2424 C 0.98977 0.46387 0.87768 0.0
H2425 H 0.91435 0.45123 0.87061 0.0
H2426 H 0.93649 0.45269 0.88239 0.0
H2427 H 0.93468 0.47614 0.87902 0.0
H2428 H 0.97359 0.50014 0.88419 0.0
H2429 H 0.99353 0.50485 0.90961 0.0
H2430 H 0.53684 0.45325 0.77519 0.0
H2431 H 0.52559 0.45825 0.80211 0.0
H2432 H 0.59209 0.48904 0.81851 0.0
H2433 H 0.60349 0.48385 0.79169 0.0
H2434 H 0.53196 0.44402 0.83289 0.0
H2435 H 0.5721 0.53195 0.82986 0.0
H2436 H 0.56743 0.51565 0.81207 0.0
H2437 H 0.58925 0.52091 0.82575 0.0
C2438 C 0.54908 0.46092 0.78454 0.0
C2439 C 0.5711 0.46822 0.78122 0.0
C2440 C 0.54262 0.46385 0.79991 0.0
C2441 C 0.55803 0.47427 0.81224 0.0
C2442 C 0.57998 0.48134 0.80907 0.0
H2443 H 0.54396 0.51141 0.91064 0.0
H2444 H 0.55836 0.50449 0.88581 0.0
C2445 C 0.58646 0.47838 0.79371 0.0
C2446 C 0.55103 0.47756 0.82843 0.0
H2447 H 0.55493 0.5159 0.8545 0.0
C2448 C 0.53698 0.45973 0.83763 0.0
C2449 C 0.55773 0.49808 0.83463 0.0
C2450 C 0.57232 0.51778 0.82505 0.0
C2451 C 0.52944 0.46185 0.85289 0.0
C2452 C 0.53575 0.48235 0.85894 0.0
C2453 C 0.55011 0.5002 0.84985 0.0
C2454 C 0.52697 0.48565 0.87435 0.0
C2455 C 0.51499 0.44209 0.86246 0.0
C2456 C 0.50456 0.47744 0.87614 0.0
C2457 C 0.49628 0.48123 0.89034 0.0
C2458 C 0.51024 0.49351 0.90302 0.0
C2459 C 0.53271 0.50166 0.90122 0.0
C2460 C 0.54099 0.49784 0.88699 0.0
H2461 H 0.51709 0.42858 0.85865 0.0
H2462 H 0.51836 0.44482 0.87569 0.0
H2463 H 0.49778 0.4375 0.86032 0.0
H2464 H 0.49345 0.46835 0.86644 0.0
H2465 H 0.47888 0.47454 0.89136 0.0
H2466 H 0.54134 0.1258 0.79282 0.0
H2467 H 0.53364 0.10827 0.81915 0.0
H2468 H 0.56276 0.07169 0.80331 0.0
H2469 H 0.56978 0.08861 0.7766 0.0
H2470 H 0.52394 0.04704 0.81765 0.0
H2471 H 0.57353 0.11671 0.8569 0.0
H2472 H 0.55511 0.1204 0.84428 0.0
H2473 H 0.57648 0.11755 0.8351 0.0
C2474 C 0.54608 0.11398 0.79488 0.0
C2475 C 0.5561 0.10856 0.78251 0.0
C2476 C 0.54195 0.10419 0.81007 0.0
C2477 C 0.54795 0.08891 0.81336 0.0
C2478 C 0.55814 0.08357 0.80111 0.0
H2479 H 0.5354 0.03285 0.91014 0.0
H2480 H 0.5502 0.05287 0.88493 0.0
C2481 C 0.56226 0.09335 0.78587 0.0
C2482 C 0.54231 0.07759 0.8292 0.0
H2483 H 0.54633 0.0854 0.87033 0.0
C2484 C 0.52904 0.05543 0.82916 0.0
C2485 C 0.54918 0.08845 0.84426 0.0
C2486 C 0.56455 0.11207 0.84517 0.0
C2487 C 0.5218 0.04395 0.84369 0.0
C2488 C 0.52762 0.05494 0.85872 0.0
C2489 C 0.5416 0.077 0.85881 0.0
C2490 C 0.51885 0.0438 0.87439 0.0
C2491 C 0.50799 0.0201 0.8428 0.0
C2492 C 0.49637 0.03262 0.87707 0.0
C2493 C 0.4879 0.02125 0.89141 0.0
C2494 C 0.50172 0.0209 0.9035 0.0
C2495 C 0.52431 0.03284 0.9011 0.0
C2496 C 0.53279 0.0442 0.88668 0.0
H2497 H 0.51034 0.0138 0.83114 0.0
H2498 H 0.51175 0.01245 0.85296 0.0
H2499 H 0.49062 0.01554 0.84361 0.0
H2500 H 0.48531 0.03257 0.86798 0.0
H2501 H 0.47046 0.01263 0.89301 0.0
H2502 H 0.12979 0.21621 0.5717 0.0
H2503 H 0.14094 0.23353 0.54512 0.0
H2504 H 0.12547 0.281 0.56068 0.0
H2505 H 0.11456 0.26399 0.58727 0.0
H2506 H 0.11498 0.24346 0.5222 0.0
H2507 H 0.18979 0.31465 0.54444 0.0
H2508 H 0.17634 0.29019 0.55577 0.0
H2509 H 0.1655 0.3078 0.55565 0.0
C2510 C 0.1289 0.23042 0.56949 0.0
C2511 C 0.12132 0.23874 0.58163 0.0
C2512 C 0.13514 0.24021 0.55427 0.0
C2513 C 0.1342 0.25864 0.55098 0.0
C2514 C 0.12652 0.26689 0.56302 0.0
H2515 H 0.17039 0.34947 0.47342 0.0
H2516 H 0.15742 0.32857 0.49826 0.0
C2517 C 0.12014 0.25706 0.57816 0.0
C2518 C 0.14128 0.26938 0.53502 0.0
H2519 H 0.1791 0.31559 0.51738 0.0
C2520 C 0.12907 0.25917 0.52108 0.0
C2521 C 0.15965 0.28987 0.53363 0.0
C2522 C 0.17374 0.30127 0.54812 0.0
C2523 C 0.13436 0.26922 0.50584 0.0
C2524 C 0.15266 0.28984 0.50446 0.0
C2525 C 0.16503 0.29984 0.51841 0.0
C2526 C 0.15911 0.30167 0.48882 0.0
C2527 C 0.11985 0.25795 0.4915 0.0
C2528 C 0.16427 0.29349 0.47512 0.0
C2529 C 0.17159 0.30541 0.46082 0.0
C2530 C 0.17423 0.32588 0.46003 0.0
C2531 C 0.16876 0.33386 0.47368 0.0
C2532 C 0.1613 0.32191 0.48789 0.0
H2533 H 0.10357 0.2452 0.49539 0.0
H2534 H 0.11779 0.26921 0.48366 0.0
H2535 H 0.12732 0.25052 0.48412 0.0
H2536 H 0.16322 0.27815 0.47562 0.0
H2537 H 0.17592 0.29893 0.45057 0.0
H2538 H 0.74764 0.84805 0.58412 0.0
H2539 H 0.73011 0.84208 0.55748 0.0
H2540 H 0.77673 0.90599 0.5435 0.0
H2541 H 0.79448 0.91208 0.57013 0.0
H2542 H 0.71383 0.87037 0.54351 0.0
H2543 H 0.77579 0.86412 0.50635 0.0
H2544 H 0.77288 0.85873 0.52789 0.0
H2545 H 0.78503 0.88553 0.52083 0.0
C2546 C 0.7543 0.86076 0.57531 0.0
C2547 C 0.77246 0.88051 0.57917 0.0
C2548 C 0.74422 0.85735 0.56016 0.0
C2549 C 0.75227 0.87355 0.54856 0.0
C2550 C 0.77043 0.89326 0.5523 0.0
H2551 H 0.7108 0.87571 0.44923 0.0
H2552 H 0.73108 0.88382 0.47485 0.0
C2553 C 0.78043 0.89675 0.56752 0.0
C2554 C 0.74113 0.86996 0.53273 0.0
H2555 H 0.74553 0.86155 0.49249 0.0
C2556 C 0.72072 0.86845 0.53233 0.0
C2557 C 0.75034 0.86768 0.51823 0.0
C2558 C 0.77218 0.86897 0.51821 0.0
C2559 C 0.70918 0.86473 0.51772 0.0
C2560 C 0.71809 0.86183 0.50322 0.0
C2561 C 0.7387 0.86367 0.50362 0.0
C2562 C 0.7061 0.8566 0.48759 0.0
C2563 C 0.68775 0.86431 0.51792 0.0
C2564 C 0.68556 0.83835 0.48616 0.0
C2565 C 0.67394 0.83376 0.47161 0.0
C2566 C 0.68277 0.84715 0.45812 0.0
C2567 C 0.70364 0.86506 0.45941 0.0
C2568 C 0.7152 0.86974 0.47403 0.0
H2569 H 0.68649 0.873 0.52859 0.0
H2570 H 0.68543 0.87139 0.50671 0.0
H2571 H 0.67436 0.84762 0.5187 0.0
H2572 H 0.6785 0.82765 0.49632 0.0
H2573 H 0.65808 0.81963 0.47087 0.0
H2574 H 0.1695 0.90278 0.58528 0.0
H2575 H 0.17735 0.89447 0.55831 0.0
H2576 H 0.1107 0.87049 0.54408 0.0
H2577 H 0.10286 0.87959 0.57094 0.0
H2578 H 0.15999 0.85614 0.5427 0.0
H2579 H 0.1436 0.91181 0.50756 0.0
H2580 H 0.1464 0.9132 0.52939 0.0
H2581 H 0.12163 0.89331 0.52007 0.0
C2582 C 0.15654 0.89602 0.57637 0.0
C2583 C 0.1356 0.89211 0.58024 0.0
C2584 C 0.16103 0.89112 0.56098 0.0
C2585 C 0.14472 0.88217 0.54908 0.0
C2586 C 0.12365 0.87779 0.55296 0.0
H2587 H 0.15668 0.84436 0.44972 0.0
H2588 H 0.1416 0.84934 0.47503 0.0
C2589 C 0.11914 0.88276 0.56839 0.0
C2590 C 0.14995 0.87723 0.53276 0.0
H2591 H 0.15345 0.89022 0.49256 0.0
C2592 C 0.15845 0.86352 0.53174 0.0
C2593 C 0.14788 0.88682 0.51844 0.0
C2594 C 0.13955 0.90225 0.51884 0.0
C2595 C 0.16527 0.85942 0.51687 0.0
C2596 C 0.16371 0.86942 0.50266 0.0
C2597 C 0.1546 0.8826 0.50352 0.0
C2598 C 0.17272 0.86731 0.48701 0.0
C2599 C 0.17427 0.84455 0.51647 0.0
C2600 C 0.19521 0.87622 0.48527 0.0
C2601 C 0.20388 0.87362 0.47083 0.0
C2602 C 0.19023 0.86197 0.4578 0.0
C2603 C 0.16768 0.85354 0.45944 0.0
C2604 C 0.15902 0.85626 0.47392 0.0
H2605 H 0.16982 0.8345 0.52751 0.0
H2606 H 0.16831 0.8341 0.50559 0.0
H2607 H 0.19224 0.85398 0.5158 0.0
H2608 H 0.20607 0.88511 0.49516 0.0
H2609 H 0.22133 0.88075 0.46989 0.0
H2610 H 0.5516 0.75543 0.12719 0.0
H2611 H 0.56711 0.76405 0.15462 0.0
H2612 H 0.6228 0.82045 0.1362 0.0
H2613 H 0.60674 0.81235 0.10898 0.0
H2614 H 0.60169 0.76545 0.1651 0.0
H2615 H 0.61184 0.84481 0.17564 0.0
H2616 H 0.59611 0.82823 0.15887 0.0
H2617 H 0.6252 0.84455 0.1573 0.0
C2618 C 0.56696 0.76986 0.12913 0.0
C2619 C 0.57796 0.78333 0.11609 0.0
C2620 C 0.57582 0.77477 0.14476 0.0
C2621 C 0.596 0.79309 0.14758 0.0
C2622 C 0.60692 0.80662 0.1345 0.0
H2623 H 0.68614 0.80638 0.22271 0.0
H2624 H 0.66413 0.79884 0.1983 0.0
C2625 C 0.59783 0.80192 0.11893 0.0
C2626 C 0.60642 0.79708 0.16385 0.0
H2627 H 0.63364 0.83553 0.19243 0.0
C2628 C 0.6084 0.78071 0.17117 0.0
C2629 C 0.61486 0.81682 0.17198 0.0
C2630 C 0.61167 0.83449 0.16561 0.0
C2631 C 0.61917 0.78373 0.18605 0.0
C2632 C 0.62907 0.80397 0.19355 0.0
C2633 C 0.62641 0.82011 0.18656 0.0
C2634 C 0.64261 0.80885 0.20842 0.0
C2635 C 0.61959 0.76507 0.19363 0.0
C2636 C 0.63849 0.81788 0.22206 0.0
C2637 C 0.65156 0.82293 0.23592 0.0
C2638 C 0.66899 0.81893 0.23647 0.0
C2639 C 0.67306 0.80993 0.22273 0.0
C2640 C 0.66021 0.80522 0.20881 0.0
H2641 H 0.60538 0.74982 0.18969 0.0
H2642 H 0.63443 0.76496 0.18964 0.0
H2643 H 0.61964 0.76589 0.20709 0.0
H2644 H 0.62514 0.82105 0.22199 0.0
H2645 H 0.64817 0.83026 0.24609 0.0
H2646 H 0.23468 0.77037 0.12583 0.0
H2647 H 0.22283 0.77584 0.15243 0.0
H2648 H 0.22534 0.83278 0.13473 0.0
H2649 H 0.23813 0.82781 0.10839 0.0
H2650 H 0.24201 0.83964 0.16371 0.0
H2651 H 0.16397 0.76383 0.1652 0.0
H2652 H 0.1868 0.75987 0.16329 0.0
H2653 H 0.18062 0.77284 0.14727 0.0
C2654 C 0.23258 0.78398 0.12765 0.0
C2655 C 0.2372 0.79862 0.11507 0.0
C2656 C 0.22568 0.78704 0.14281 0.0
C2657 C 0.22269 0.80448 0.14553 0.0
C2658 C 0.22744 0.81917 0.13295 0.0
H2659 H 0.14697 0.81649 0.22225 0.0
H2660 H 0.16107 0.80997 0.19734 0.0
C2661 C 0.23473 0.81633 0.11791 0.0
C2662 C 0.21506 0.80778 0.16153 0.0
H2663 H 0.1746 0.78408 0.18957 0.0
C2664 C 0.22722 0.8275 0.16934 0.0
C2665 C 0.19562 0.79205 0.16882 0.0
C2666 C 0.18088 0.77106 0.16064 0.0
C2667 C 0.22046 0.83201 0.1841 0.0
C2668 C 0.2014 0.81604 0.19166 0.0
C2669 C 0.18932 0.79627 0.1839 0.0
C2670 C 0.19301 0.81983 0.20712 0.0
C2671 C 0.23344 0.85412 0.19107 0.0
C2672 C 0.20608 0.82724 0.22111 0.0
C2673 C 0.19825 0.83163 0.23532 0.0
C2674 C 0.17695 0.82822 0.236 0.0
C2675 C 0.16363 0.81992 0.22214 0.0
C2676 C 0.1716 0.81591 0.20788 0.0
H2677 H 0.24338 0.86583 0.18162 0.0
H2678 H 0.22271 0.85932 0.19673 0.0
H2679 H 0.2447 0.85432 0.2005 0.0
H2680 H 0.22244 0.82981 0.22102 0.0
H2681 H 0.20909 0.8381 0.24564 0.0
H2682 H 0.23604 0.42244 0.11232 0.0
H2683 H 0.22803 0.40539 0.13898 0.0
H2684 H 0.19664 0.44048 0.15324 0.0
H2685 H 0.20534 0.45822 0.12692 0.0
H2686 H 0.22178 0.43848 0.17779 0.0
H2687 H 0.16786 0.35839 0.15178 0.0
H2688 H 0.19501 0.37142 0.14393 0.0
H2689 H 0.17764 0.38228 0.13999 0.0
C2690 C 0.22771 0.42678 0.1212 0.0
C2691 C 0.22112 0.44155 0.11736 0.0
C2692 C 0.22293 0.41682 0.13639 0.0
C2693 C 0.21132 0.42131 0.14801 0.0
C2694 C 0.20544 0.43661 0.14443 0.0
H2695 H 0.13494 0.34371 0.22791 0.0
H2696 H 0.14917 0.3644 0.20311 0.0
C2697 C 0.21027 0.4466 0.1293 0.0
C2698 C 0.20474 0.40974 0.16373 0.0
H2699 H 0.17417 0.36036 0.18006 0.0
C2700 C 0.21143 0.42139 0.1783 0.0
C2701 C 0.19097 0.38746 0.1644 0.0
C2702 C 0.18226 0.37413 0.14921 0.0
C2703 C 0.20472 0.41139 0.19349 0.0
C2704 C 0.19123 0.38908 0.19415 0.0
C2705 C 0.18462 0.37745 0.17957 0.0
C2706 C 0.18294 0.37745 0.20972 0.0
C2707 C 0.21159 0.42489 0.20866 0.0
C2708 C 0.19717 0.37793 0.22181 0.0
C2709 C 0.18904 0.36609 0.23608 0.0
C2710 C 0.16652 0.35334 0.23845 0.0
C2711 C 0.15236 0.35312 0.2264 0.0
C2712 C 0.16048 0.36501 0.21222 0.0
H2713 H 0.21718 0.44178 0.20594 0.0
H2714 H 0.19806 0.41906 0.2175 0.0
H2715 H 0.22525 0.4241 0.21448 0.0
H2716 H 0.21456 0.38706 0.22005 0.0
H2717 H 0.20038 0.3664 0.24502 0.0
H2718 H 0.79605 0.5487 0.90453 0.0
H2719 H 0.80725 0.56632 0.87806 0.0
H2720 H 0.7912 0.61328 0.8939 0.0
H2721 H 0.78023 0.59597 0.92038 0.0
H2722 H 0.78107 0.576 0.85529 0.0
H2723 H 0.85543 0.64755 0.87766 0.0
H2724 H 0.84219 0.62304 0.88892 0.0
H2725 H 0.83109 0.64042 0.88888 0.0
C2726 C 0.79507 0.56288 0.90241 0.0
C2727 C 0.78729 0.57096 0.91458 0.0
C2728 C 0.80134 0.57283 0.88726 0.0
C2729 C 0.80021 0.59119 0.88408 0.0
C2730 C 0.79238 0.59923 0.89616 0.0
H2731 H 0.83541 0.68227 0.80688 0.0
H2732 H 0.82249 0.66114 0.83161 0.0
C2733 C 0.78598 0.58923 0.91124 0.0
C2734 C 0.8072 0.60203 0.86815 0.0
H2735 H 0.84464 0.6485 0.85063 0.0
C2736 C 0.79504 0.5918 0.8542 0.0
C2737 C 0.82541 0.62262 0.86681 0.0
C2738 C 0.83944 0.63406 0.88132 0.0
C2739 C 0.80022 0.60192 0.83899 0.0
C2740 C 0.81836 0.62264 0.83766 0.0
C2741 C 0.83069 0.63267 0.85162 0.0
C2742 C 0.82469 0.63455 0.82207 0.0
C2743 C 0.78578 0.59061 0.82463 0.0
C2744 C 0.83007 0.6266 0.80835 0.0
C2745 C 0.83736 0.63866 0.79411 0.0
C2746 C 0.83973 0.65902 0.79342 0.0
C2747 C 0.83399 0.66675 0.80708 0.0
C2748 C 0.82656 0.65466 0.82122 0.0
H2749 H 0.76957 0.57769 0.8285 0.0
H2750 H 0.78352 0.60181 0.81685 0.0
H2751 H 0.79342 0.5834 0.81719 0.0
H2752 H 0.82924 0.61136 0.80879 0.0
H2753 H 0.8419 0.63238 0.78385 0.0
H2754 H 0.41406 0.18164 0.91788 0.0
H2755 H 0.39559 0.17579 0.89162 0.0
H2756 H 0.44226 0.23947 0.87717 0.0
H2757 H 0.46091 0.24545 0.9034 0.0
H2758 H 0.37968 0.20515 0.87798 0.0
H2759 H 0.43944 0.19633 0.83998 0.0
H2760 H 0.43672 0.19093 0.86151 0.0
H2761 H 0.44961 0.21778 0.85449 0.0
C2762 C 0.4205 0.19433 0.90905 0.0
C2763 C 0.43895 0.21399 0.91265 0.0
C2764 C 0.40989 0.19099 0.89412 0.0
C2765 C 0.4177 0.20716 0.88249 0.0
C2766 C 0.43613 0.22678 0.88599 0.0
H2767 H 0.37685 0.21178 0.7837 0.0
H2768 H 0.39679 0.21875 0.80938 0.0
C2769 C 0.44665 0.2302 0.90098 0.0
C2770 C 0.4062 0.20364 0.86684 0.0
H2771 H 0.40954 0.19502 0.82648 0.0
C2772 C 0.38614 0.20291 0.8667 0.0
C2773 C 0.41486 0.20094 0.85221 0.0
C2774 C 0.4363 0.20141 0.85191 0.0
C2775 C 0.37449 0.19967 0.85219 0.0
C2776 C 0.38289 0.19647 0.83755 0.0
C2777 C 0.40309 0.1974 0.83772 0.0
C2778 C 0.37089 0.19202 0.82195 0.0
C2779 C 0.35355 0.20019 0.85267 0.0
C2780 C 0.34989 0.17447 0.82041 0.0
C2781 C 0.33844 0.17055 0.80582 0.0
C2782 C 0.34792 0.18392 0.7924 0.0
C2783 C 0.36918 0.20116 0.79382 0.0
C2784 C 0.38055 0.20518 0.80848 0.0
H2785 H 0.35282 0.209 0.86347 0.0
H2786 H 0.3515 0.20768 0.84159 0.0
H2787 H 0.3397 0.18372 0.8534 0.0
H2788 H 0.34236 0.16374 0.83049 0.0
H2789 H 0.32224 0.15692 0.80497 0.0
H2790 H 0.80607 0.25595 0.90027 0.0
H2791 H 0.81504 0.24762 0.87361 0.0
H2792 H 0.79962 0.1857 0.89076 0.0
H2793 H 0.79025 0.19384 0.9174 0.0
H2794 H 0.84665 0.23925 0.86654 0.0
H2795 H 0.76778 0.17053 0.84797 0.0
H2796 H 0.7703 0.18749 0.86484 0.0
H2797 H 0.77705 0.16691 0.86733 0.0
C2798 C 0.80444 0.24049 0.89831 0.0
C2799 C 0.79746 0.22554 0.91093 0.0
C2800 C 0.80951 0.23574 0.88306 0.0
C2801 C 0.80775 0.21594 0.88008 0.0
C2802 C 0.80058 0.20088 0.89261 0.0
H2803 H 0.85299 0.1661 0.80355 0.0
H2804 H 0.83823 0.17249 0.82841 0.0
C2805 C 0.7953 0.20557 0.90785 0.0
C2806 C 0.81482 0.21169 0.86421 0.0
H2807 H 0.79866 0.177 0.83221 0.0
C2808 C 0.83606 0.22574 0.85898 0.0
C2809 C 0.80103 0.19404 0.85433 0.0
C2810 C 0.7777 0.17899 0.85881 0.0
C2811 C 0.84401 0.22242 0.84433 0.0
C2812 C 0.83034 0.20464 0.8346 0.0
C2813 C 0.80909 0.1906 0.83974 0.0
C2814 C 0.8381 0.20021 0.81921 0.0
C2815 C 0.86715 0.23768 0.83951 0.0
C2816 C 0.84256 0.2135 0.80572 0.0
C2817 C 0.85098 0.20989 0.7915 0.0
C2818 C 0.85518 0.19298 0.79055 0.0
C2819 C 0.85022 0.17943 0.80398 0.0
C2820 C 0.84166 0.18296 0.81815 0.0
H2821 H 0.87668 0.24847 0.84964 0.0
H2822 H 0.87535 0.2289 0.83543 0.0
H2823 H 0.8672 0.2475 0.82921 0.0
H2824 H 0.83977 0.22682 0.80629 0.0
H2825 H 0.85474 0.22067 0.7814 0.0
H2826 H 0.27827 0.10761 0.44406 0.0
H2827 H 0.29573 0.1159 0.47074 0.0
H2828 H 0.25548 0.14147 0.48604 0.0
H2829 H 0.23745 0.13275 0.45943 0.0
H2830 H 0.30359 0.16684 0.49354 0.0
H2831 H 0.26265 0.08259 0.51314 0.0
H2832 H 0.27494 0.08793 0.49337 0.0
H2833 H 0.25225 0.09177 0.49696 0.0
C2834 C 0.273 0.11487 0.45311 0.0
C2835 C 0.25627 0.11927 0.44968 0.0
C2836 C 0.28306 0.11967 0.46831 0.0
C2837 C 0.27666 0.12902 0.48036 0.0
C2838 C 0.26055 0.13417 0.47686 0.0
H2839 H 0.32841 0.1693 0.57885 0.0
H2840 H 0.30836 0.16371 0.55343 0.0
C2841 C 0.25036 0.12928 0.46165 0.0
C2842 C 0.28662 0.13299 0.49668 0.0
H2843 H 0.29132 0.10753 0.5298 0.0
C2844 C 0.30081 0.15394 0.50159 0.0
C2845 C 0.28288 0.11606 0.50704 0.0
C2846 C 0.26723 0.0933 0.50249 0.0
C2847 C 0.31207 0.15841 0.51642 0.0
C2848 C 0.30861 0.14143 0.52669 0.0
C2849 C 0.29399 0.1205 0.52189 0.0
C2850 C 0.32059 0.14488 0.54218 0.0
C2851 C 0.32816 0.18117 0.52067 0.0
C2852 C 0.33361 0.13565 0.54446 0.0
C2853 C 0.34477 0.13849 0.55905 0.0
C2854 C 0.34314 0.15063 0.57169 0.0
C2855 C 0.32992 0.15974 0.56942 0.0
C2856 C 0.31867 0.1568 0.55482 0.0
H2857 H 0.33278 0.19164 0.50987 0.0
H2858 H 0.32077 0.18702 0.52968 0.0
H2859 H 0.3431 0.18255 0.52614 0.0
H2860 H 0.33517 0.12624 0.5349 0.0
H2861 H 0.35448 0.13093 0.56048 0.0
H2862 H 0.87122 0.11925 0.4422 0.0
H2863 H 0.86016 0.12447 0.46911 0.0
H2864 H 0.92624 0.15235 0.48602 0.0
H2865 H 0.93745 0.14685 0.45921 0.0
H2866 H 0.86563 0.10909 0.50004 0.0
H2867 H 0.90838 0.19721 0.49718 0.0
H2868 H 0.90299 0.18084 0.47932 0.0
H2869 H 0.92455 0.18511 0.49294 0.0
C2870 C 0.8834 0.12628 0.45167 0.0
C2871 C 0.90526 0.13267 0.44849 0.0
C2872 C 0.87705 0.12935 0.46702 0.0
C2873 C 0.89241 0.13903 0.47949 0.0
C2874 C 0.91419 0.1452 0.47648 0.0
H2875 H 0.87789 0.17734 0.57739 0.0
H2876 H 0.89245 0.16995 0.55287 0.0
C2877 C 0.92056 0.14208 0.46113 0.0
C2878 C 0.88553 0.14256 0.49564 0.0
H2879 H 0.89012 0.18135 0.52151 0.0
C2880 C 0.871 0.12487 0.50477 0.0
C2881 C 0.8927 0.16318 0.5018 0.0
C2882 C 0.90789 0.18273 0.4923 0.0
C2883 C 0.86339 0.12724 0.51991 0.0
C2884 C 0.8701 0.14787 0.52591 0.0
C2885 C 0.88498 0.16556 0.51691 0.0
C2886 C 0.8612 0.15147 0.54113 0.0
C2887 C 0.84841 0.10762 0.52942 0.0
C2888 C 0.83881 0.14363 0.54266 0.0
C2889 C 0.83044 0.14766 0.55669 0.0
C2890 C 0.84428 0.15985 0.56946 0.0
C2891 C 0.86673 0.16766 0.56791 0.0
C2892 C 0.8751 0.16358 0.55385 0.0
H2893 H 0.85028 0.0939 0.52579 0.0
H2894 H 0.85147 0.11032 0.54268 0.0
H2895 H 0.83135 0.10333 0.52699 0.0
H2896 H 0.82781 0.13462 0.53289 0.0
H2897 H 0.81306 0.14122 0.55753 0.0
H2898 H 0.89906 0.75496 0.44479 0.0
H2899 H 0.89075 0.73814 0.47159 0.0
H2900 H 0.86936 0.78107 0.4878 0.0
H2901 H 0.87718 0.79758 0.46097 0.0
H2902 H 0.90502 0.75242 0.50208 0.0
H2903 H 0.81701 0.72478 0.49817 0.0
H2904 H 0.83481 0.73547 0.48093 0.0
H2905 H 0.83369 0.75294 0.49591 0.0
C2906 C 0.89272 0.76089 0.45412 0.0
C2907 C 0.88853 0.77743 0.45071 0.0
C2908 C 0.88793 0.75124 0.46942 0.0
C2909 C 0.87893 0.75798 0.48163 0.0
C2910 C 0.87564 0.77512 0.47845 0.0
H2911 H 0.83665 0.71508 0.58103 0.0
H2912 H 0.85012 0.73653 0.55628 0.0
C2913 C 0.8802 0.78461 0.46313 0.0
C2914 C 0.87278 0.74695 0.49759 0.0
H2915 H 0.83009 0.72049 0.52357 0.0
C2916 C 0.88863 0.74541 0.50674 0.0
C2917 C 0.85134 0.7377 0.50371 0.0
C2918 C 0.83318 0.73759 0.49411 0.0
C2919 C 0.88367 0.73507 0.52185 0.0
C2920 C 0.86232 0.726 0.52796 0.0
C2921 C 0.84651 0.72765 0.51891 0.0
C2922 C 0.85573 0.71382 0.54335 0.0
C2923 C 0.9013 0.73401 0.53127 0.0
C2924 C 0.85447 0.694 0.54427 0.0
C2925 C 0.84667 0.6817 0.5583 0.0
C2926 C 0.84004 0.689 0.57174 0.0
C2927 C 0.84181 0.70911 0.57094 0.0
C2928 C 0.84941 0.72133 0.5568 0.0
H2929 H 0.91772 0.74532 0.52655 0.0
H2930 H 0.9006 0.73747 0.54433 0.0
H2931 H 0.89885 0.71774 0.53033 0.0
H2932 H 0.85905 0.68782 0.53397 0.0
H2933 H 0.84564 0.66634 0.55859 0.0
loop_
_geom_bond_atom_site_label_1
_geom_bond_atom_site_label_2
_geom_bond_distance
_geom_bond_site_symmetry_2
_ccdc_geom_bond_type
H0 C7 0.929 . S
H1 C10 0.930 . S
H2 C12 0.929 . S
H3 C4 0.969 . S
C4 H3 0.969 . S
C4 O5 1.550 . S
C4 H6 0.973 . S
O5 C4 1.550 . S
O5 C11 1.412 . S
H6 C4 0.973 . S
C7 H0 0.929 . S
C7 C8 1.400 . S
C7 C9 1.364 . S
C8 C7 1.400 . S
C8 C12 1.377 . S
C9 C7 1.364 . S
C9 C10 1.374 . S
C10 H1 0.930 . S
C10 C9 1.374 . S
C10 C11 1.383 . S
C11 O5 1.412 . S
C11 C10 1.383 . S
C11 C12 1.394 . S
C12 H2 0.929 . S
C12 C8 1.377 . S
C12 C11 1.394 . S
H13 C20 0.929 . S
H14 C23 0.930 . S
H15 C25 0.929 . S
H16 C17 0.969 . S
C17 H16 0.969 . S
C17 O18 1.550 . S
C17 H19 0.973 . S
O18 C17 1.550 . S
O18 C24 1.412 . S
H19 C17 0.973 . S
C20 H13 0.929 . S
C20 C21 1.400 . S
C20 C22 1.364 . S
C21 C20 1.400 . S
C21 C25 1.377 . S
C22 C20 1.364 . S
C22 C23 1.374 . S
C23 H14 0.930 . S
C23 C22 1.374 . S
C23 C24 1.383 . S
C24 O18 1.412 . S
C24 C23 1.383 . S
C24 C25 1.394 . S
C25 H15 0.929 . S
C25 C21 1.377 . S
C25 C24 1.394 . S
H26 C33 0.929 . S
H27 C36 0.930 . S
H28 C38 0.929 . S
H29 C30 0.969 . S
C30 H29 0.969 . S
C30 O31 1.550 . S
C30 H32 0.973 . S
O31 C30 1.550 . S
O31 C37 1.412 . S
H32 C30 0.973 . S
C33 H26 0.929 . S
C33 C34 1.400 . S
C33 C35 1.364 . S
C34 C33 1.400 . S
C34 C38 1.377 . S
C35 C33 1.364 . S
C35 C36 1.374 . S
C36 H27 0.930 . S
C36 C35 1.374 . S
C36 C37 1.383 . S
C37 O31 1.412 . S
C37 C36 1.383 . S
C37 C38 1.394 . S
C38 H28 0.929 . S
C38 C34 1.377 . S
C38 C37 1.394 . S
H39 C46 0.929 . S
H40 C49 0.930 . S
H41 C51 0.929 . S
H42 C43 0.969 . S
C43 H42 0.969 . S
C43 O44 1.550 . S
C43 H45 0.973 . S
O44 C43 1.550 . S
O44 C50 1.412 . S
H45 C43 0.973 . S
C46 H39 0.929 . S
C46 C47 1.400 . S
C46 C48 1.364 . S
C47 C46 1.400 . S
C47 C51 1.377 . S
C48 C46 1.364 . S
C48 C49 1.374 . S
C49 H40 0.930 . S
C49 C48 1.374 . S
C49 C50 1.383 . S
C50 O44 1.412 . S
C50 C49 1.383 . S
C50 C51 1.394 . S
C51 H41 0.929 . S
C51 C47 1.377 . S
C51 C50 1.394 . S
H52 C59 0.929 . S
H53 C62 0.930 . S
H54 C64 0.929 . S
H55 C56 0.969 . S
C56 H55 0.969 . S
C56 O57 1.550 . S
C56 H58 0.973 . S
O57 C56 1.550 . S
O57 C63 1.412 . S
H58 C56 0.973 . S
C59 H52 0.929 . S
C59 C60 1.400 . S
C59 C61 1.364 . S
C60 C59 1.400 . S
C60 C64 1.377 . S
C61 C59 1.364 . S
C61 C62 1.374 . S
C62 H53 0.930 . S
C62 C61 1.374 . S
C62 C63 1.383 . S
C63 O57 1.412 . S
C63 C62 1.383 . S
C63 C64 1.394 . S
C64 H54 0.929 . S
C64 C60 1.377 . S
C64 C63 1.394 . S
H65 C72 0.929 . S
H66 C75 0.930 . S
H67 C77 0.929 . S
H68 C69 0.969 . S
C69 H68 0.969 . S
C69 O70 1.550 . S
C69 H71 0.973 . S
O70 C69 1.550 . S
O70 C76 1.412 . S
H71 C69 0.973 . S
C72 H65 0.929 . S
C72 C73 1.400 . S
C72 C74 1.364 . S
C73 C72 1.400 . S
C73 C77 1.377 . S
C74 C72 1.364 . S
C74 C75 1.374 . S
C75 H66 0.930 . S
C75 C74 1.374 . S
C75 C76 1.383 . S
C76 O70 1.412 . S
C76 C75 1.383 . S
C76 C77 1.394 . S
C77 H67 0.929 . S
C77 C73 1.377 . S
C77 C76 1.394 . S
H78 C85 0.929 . S
H79 C88 0.930 . S
H80 C90 0.929 . S
H81 C82 0.969 . S
C82 H81 0.969 . S
C82 O83 1.550 . S
C82 H84 0.973 . S
O83 C82 1.550 . S
O83 C89 1.412 . S
H84 C82 0.973 . S
C85 H78 0.929 . S
C85 C86 1.400 . S
C85 C87 1.364 . S
C86 C85 1.400 . S
C86 C90 1.377 . S
C87 C85 1.364 . S
C87 C88 1.374 . S
C88 H79 0.930 . S
C88 C87 1.374 . S
C88 C89 1.383 . S
C89 O83 1.412 . S
C89 C88 1.383 . S
C89 C90 1.394 . S
C90 H80 0.929 . S
C90 C86 1.377 . S
C90 C89 1.394 . S
H91 C98 0.929 . S
H92 C101 0.930 . S
H93 C103 0.929 . S
H94 C95 0.969 . S
C95 H94 0.969 . S
C95 O96 1.550 . S
C95 H97 0.973 . S
O96 C95 1.550 . S
O96 C102 1.412 . S
H97 C95 0.973 . S
C98 H91 0.929 . S
C98 C99 1.400 . S
C98 C100 1.364 . S
C99 C98 1.400 . S
C99 C103 1.377 . S
C100 C98 1.364 . S
C100 C101 1.374 . S
C101 H92 0.930 . S
C101 C100 1.374 . S
C101 C102 1.383 . S
C102 O96 1.412 . S
C102 C101 1.383 . S
C102 C103 1.394 . S
C103 H93 0.929 . S
C103 C99 1.377 . S
C103 C102 1.394 . S
H104 C111 0.929 . S
H105 C114 0.930 . S
H106 C116 0.929 . S
H107 C108 0.969 . S
C108 H107 0.969 . S
C108 O109 1.550 . S
C108 H110 0.973 . S
O109 C108 1.550 . S
O109 C115 1.412 . S
H110 C108 0.973 . S
C111 H104 0.929 . S
C111 C112 1.400 . S
C111 C113 1.364 . S
C112 C111 1.400 . S
C112 C116 1.377 . S
C113 C111 1.364 . S
C113 C114 1.374 . S
C114 H105 0.930 . S
C114 C113 1.374 . S
C114 C115 1.383 . S
C115 O109 1.412 . S
C115 C114 1.383 . S
C115 C116 1.394 . S
C116 H106 0.929 . S
C116 C112 1.377 . S
C116 C115 1.394 . S
H117 C124 0.929 . S
H118 C127 0.930 . S
H119 C129 0.929 . S
H120 C121 0.969 . S
C121 H120 0.969 . S
C121 O122 1.550 . S
C121 H123 0.973 . S
O122 C121 1.550 . S
O122 C128 1.412 . S
H123 C121 0.973 . S
C124 H117 0.929 . S
C124 C125 1.400 . S
C124 C126 1.364 . S
C125 C124 1.400 . S
C125 C129 1.377 . S
C126 C124 1.364 . S
C126 C127 1.374 . S
C127 H118 0.930 . S
C127 C126 1.374 . S
C127 C128 1.383 . S
C128 O122 1.412 . S
C128 C127 1.383 . S
C128 C129 1.394 . S
C129 H119 0.929 . S
C129 C125 1.377 . S
C129 C128 1.394 . S
H130 C137 0.929 . S
H131 C140 0.930 . S
H132 C142 0.929 . S
H133 C134 0.969 . S
C134 H133 0.969 . S
C134 O135 1.550 . S
C134 H136 0.973 . S
O135 C134 1.550 . S
O135 C141 1.412 . S
H136 C134 0.973 . S
C137 H130 0.929 . S
C137 C138 1.400 . S
C137 C139 1.364 . S
C138 C137 1.400 . S
C138 C142 1.377 . S
C139 C137 1.364 . S
C139 C140 1.374 . S
C140 H131 0.930 . S
C140 C139 1.374 . S
C140 C141 1.383 . S
C141 O135 1.412 . S
C141 C140 1.383 . S
C141 C142 1.394 . S
C142 H132 0.929 . S
C142 C138 1.377 . S
C142 C141 1.394 . S
H143 C150 0.929 . S
H144 C153 0.930 . S
H145 C155 0.929 . S
H146 C147 0.969 . S
C147 H146 0.969 . S
C147 O148 1.550 . S
C147 H149 0.973 . S
O148 C147 1.550 . S
O148 C154 1.412 . S
H149 C147 0.973 . S
C150 H143 0.929 . S
C150 C151 1.400 . S
C150 C152 1.364 . S
C151 C150 1.400 . S
C151 C155 1.377 . S
C152 C150 1.364 . S
C152 C153 1.374 . S
C153 H144 0.930 . S
C153 C152 1.374 . S
C153 C154 1.383 . S
C154 O148 1.412 . S
C154 C153 1.383 . S
C154 C155 1.394 . S
C155 H145 0.929 . S
C155 C151 1.377 . S
C155 C154 1.394 . S
H156 C163 0.929 . S
H157 C166 0.930 . S
H158 C168 0.929 . S
H159 C160 0.969 . S
C160 H159 0.969 . S
C160 O161 1.550 . S
C160 H162 0.973 . S
O161 C160 1.550 . S
O161 C167 1.412 . S
H162 C160 0.973 . S
C163 H156 0.929 . S
C163 C164 1.400 . S
C163 C165 1.364 . S
C164 C163 1.400 . S
C164 C168 1.377 . S
C165 C163 1.364 . S
C165 C166 1.374 . S
C166 H157 0.930 . S
C166 C165 1.374 . S
C166 C167 1.383 . S
C167 O161 1.412 . S
C167 C166 1.383 . S
C167 C168 1.394 . S
C168 H158 0.929 . S
C168 C164 1.377 . S
C168 C167 1.394 . S
H169 C176 0.929 . S
H170 C179 0.930 . S
H171 C181 0.929 . S
H172 C173 0.969 . S
C173 H172 0.969 . S
C173 O174 1.550 . S
C173 H175 0.973 . S
O174 C173 1.550 . S
O174 C180 1.412 . S
H175 C173 0.973 . S
C176 H169 0.929 . S
C176 C177 1.400 . S
C176 C178 1.364 . S
C177 C176 1.400 . S
C177 C181 1.377 . S
C178 C176 1.364 . S
C178 C179 1.374 . S
C179 H170 0.930 . S
C179 C178 1.374 . S
C179 C180 1.383 . S
C180 O174 1.412 . S
C180 C179 1.383 . S
C180 C181 1.394 . S
C181 H171 0.929 . S
C181 C177 1.377 . S
C181 C180 1.394 . S
H182 C189 0.929 . S
H183 C192 0.930 . S
H184 C194 0.929 . S
H185 C186 0.969 . S
C186 H185 0.969 . S
C186 O187 1.550 . S
C186 H188 0.973 . S
O187 C186 1.550 . S
O187 C193 1.412 . S
H188 C186 0.973 . S
C189 H182 0.929 . S
C189 C190 1.400 . S
C189 C191 1.364 . S
C190 C189 1.400 . S
C190 C194 1.377 . S
C191 C189 1.364 . S
C191 C192 1.374 . S
C192 H183 0.930 . S
C192 C191 1.374 . S
C192 C193 1.383 . S
C193 O187 1.412 . S
C193 C192 1.383 . S
C193 C194 1.394 . S
C194 H184 0.929 . S
C194 C190 1.377 . S
C194 C193 1.394 . S
H195 C202 0.929 . S
H196 C205 0.930 . S
H197 C207 0.929 . S
H198 C199 0.969 . S
C199 H198 0.969 . S
C199 O200 1.550 . S
C199 H201 0.973 . S
O200 C199 1.550 . S
O200 C206 1.412 . S
H201 C199 0.973 . S
C202 H195 0.929 . S
C202 C203 1.400 . S
C202 C204 1.364 . S
C203 C202 1.400 . S
C203 C207 1.377 . S
C204 C202 1.364 . S
C204 C205 1.374 . S
C205 H196 0.930 . S
C205 C204 1.374 . S
C205 C206 1.383 . S
C206 O200 1.412 . S
C206 C205 1.383 . S
C206 C207 1.394 . S
C207 H197 0.929 . S
C207 C203 1.377 . S
C207 C206 1.394 . S
H208 C215 0.929 . S
H209 C218 0.930 . S
H210 C220 0.929 . S
H211 C212 0.969 . S
C212 H211 0.969 . S
C212 O213 1.550 . S
C212 H214 0.973 . S
O213 C212 1.550 . S
O213 C219 1.412 . S
H214 C212 0.973 . S
C215 H208 0.929 . S
C215 C216 1.400 . S
C215 C217 1.364 . S
C216 C215 1.400 . S
C216 C220 1.377 . S
C217 C215 1.364 . S
C217 C218 1.374 . S
C218 H209 0.930 . S
C218 C217 1.374 . S
C218 C219 1.383 . S
C219 O213 1.412 . S
C219 C218 1.383 . S
C219 C220 1.394 . S
C220 H210 0.929 . S
C220 C216 1.377 . S
C220 C219 1.394 . S
H221 C228 0.929 . S
H222 C231 0.930 . S
H223 C233 0.929 . S
H224 C225 0.969 . S
C225 H224 0.969 . S
C225 O226 1.550 . S
C225 H227 0.973 . S
O226 C225 1.550 . S
O226 C232 1.412 . S
H227 C225 0.973 . S
C228 H221 0.929 . S
C228 C229 1.400 . S
C228 C230 1.364 . S
C229 C228 1.400 . S
C229 C233 1.377 . S
C230 C228 1.364 . S
C230 C231 1.374 . S
C231 H222 0.930 . S
C231 C230 1.374 . S
C231 C232 1.383 . S
C232 O226 1.412 . S
C232 C231 1.383 . S
C232 C233 1.394 . S
C233 H223 0.929 . S
C233 C229 1.377 . S
C233 C232 1.394 . S
Eu234 N265 2.657 . S
Eu234 N272 2.609 . S
Eu234 O278 2.558 . S
Eu234 O279 2.612 1_566 S
Eu234 O281 2.339 1_565 S
Eu234 O282 2.563 1_565 S
Eu234 O283 2.419 1_565 S
Eu234 O285 2.380 1_556 S
Eu234 O286 2.432 1_556 S
Eu234 C298 2.848 1_565 S
C235 C238 1.429 . S
C235 C239 1.411 . S
C235 N242 1.377 . S
C236 C238 1.420 . S
C236 C240 1.423 . S
C236 C248 1.392 . S
C237 C239 1.420 . S
C237 C240 1.351 . S
C237 H260 0.931 . S
C238 C235 1.429 . S
C238 C236 1.420 . S
C238 N246 1.362 . S
C239 C235 1.411 . S
C239 C237 1.420 . S
C239 C244 1.395 . S
C240 C236 1.423 . S
C240 C237 1.351 . S
C240 H252 0.930 . S
C241 C243 1.400 . S
C241 C244 1.386 . S
C241 H253 0.930 . S
N242 C235 1.377 . S
N242 C243 1.321 . S
N242 Eu245 2.609 . S
C243 C241 1.400 . S
C243 N242 1.321 . S
C243 H250 0.930 . S
C244 C239 1.395 . S
C244 C241 1.386 . S
C244 H263 0.930 . S
Eu245 N242 2.609 . S
Eu245 N246 2.657 . S
Eu245 O279 2.380 . S
Eu245 O280 2.432 . S
Eu245 O284 2.558 . S
Eu245 O285 2.612 1_545 S
Eu245 O287 2.339 1_545 S
Eu245 O288 2.563 1_545 S
Eu245 O289 2.419 1_545 S
Eu245 C309 2.848 . S
N246 C238 1.362 . S
N246 Eu245 2.657 . S
N246 C247 1.334 . S
C247 N246 1.334 . S
C247 C249 1.413 . S
C247 H254 0.929 . S
C248 C236 1.392 . S
C248 C249 1.367 . S
C248 H256 0.930 . S
C249 C247 1.413 . S
C249 C248 1.367 . S
C249 H251 0.930 . S
H250 C243 0.930 . S
H251 C249 0.930 . S
H252 C240 0.930 . S
H253 C241 0.930 . S
H254 C247 0.929 . S
H255 C269 0.930 . S
H256 C248 0.930 . S
H257 C275 0.930 . S
H258 C266 0.919 1_545 S
H259 C273 0.930 . S
H260 C237 0.931 . S
H261 C267 0.930 . S
H262 C300 0.930 . S
H263 C244 0.930 . S
H264 C299 0.931 . S
N265 Eu234 2.657 . S
N265 C266 1.334 . S
N265 C270 1.362 . S
C266 H258 0.919 1_565 S
C266 N265 1.334 . S
C266 C269 1.413 . S
C267 H261 0.930 . S
C267 C268 1.392 . S
C267 C269 1.367 . S
C268 C267 1.392 . S
C268 C270 1.420 . S
C268 C300 1.423 . S
C269 H255 0.930 . S
C269 C266 1.413 . S
C269 C267 1.367 . S
C270 N265 1.362 . S
C270 C268 1.420 . S
C270 C274 1.429 . S
H271 C276 0.930 . S
N272 Eu234 2.609 . S
N272 C274 1.377 . S
N272 C275 1.321 . S
C273 H259 0.930 . S
C273 C275 1.400 . S
C273 C276 1.386 . S
C274 C270 1.429 . S
C274 N272 1.377 . S
C274 C277 1.411 . S
C275 H257 0.930 . S
C275 N272 1.321 . S
C275 C273 1.400 . S
C276 H271 0.930 . S
C276 C273 1.386 . S
C276 C277 1.395 . S
C277 C274 1.411 . S
C277 C276 1.395 . S
C277 C299 1.420 . S
O278 Eu234 2.558 . S
O278 C298 1.257 1_565 S
O279 Eu234 2.612 1_544 S
O279 Eu245 2.380 . S
O279 C290 1.276 1_554 S
O280 Eu245 2.432 . S
O280 C297 1.264 . S
O281 Eu234 2.339 1_545 S
O281 C297 1.254 1_556 S
O282 Eu234 2.563 1_545 S
O282 C290 1.235 . S
O283 Eu234 2.419 1_545 S
O283 C298 1.249 . S
O284 Eu245 2.558 . S
O284 C309 1.257 . S
O285 Eu234 2.380 1_554 S
O285 Eu245 2.612 1_565 S
O285 C301 1.276 . S
O286 Eu234 2.432 1_554 S
O286 C308 1.264 . S
O287 Eu245 2.339 1_565 S
O287 C308 1.254 . S
O288 Eu245 2.563 1_565 S
O288 C301 1.235 . S
O289 Eu245 2.419 1_565 S
O289 C309 1.249 1_565 S
C290 O279 1.276 1_556 S
C290 O282 1.235 . S
C291 C293 1.393 . S
C291 C295 1.395 1_545 S
C291 C298 1.492 . S
C292 C293 1.392 . S
C292 C294 1.386 . S
C293 C291 1.393 . S
C293 C292 1.392 . S
C293 H310 0.930 . S
C294 C292 1.386 . S
C294 C296 1.370 1_545 S
C294 H311 0.930 . S
C295 C291 1.395 1_565 S
C295 C296 1.383 . S
C295 H312 0.930 . S
C296 C294 1.370 1_565 S
C296 C295 1.383 . S
C296 H313 0.950 . S
C297 O280 1.264 . S
C297 O281 1.254 1_554 S
C298 Eu234 2.848 1_545 S
C298 O278 1.257 1_545 S
C298 O283 1.249 . S
C298 C291 1.492 . S
C299 H264 0.931 . S
C299 C277 1.420 . S
C299 C300 1.351 . S
C300 H262 0.930 . S
C300 C268 1.423 . S
C300 C299 1.351 . S
C301 O285 1.276 . S
C301 O288 1.235 . S
C302 C303 1.374 1_545 S
C302 C306 1.411 . S
C302 C309 1.495 . S
C303 C302 1.374 1_565 S
C303 C304 1.392 . S
C303 H314 0.930 . S
C304 C303 1.392 . S
C304 C305 1.386 . S
C305 C304 1.386 . S
C305 C307 1.395 1_565 S
C305 H315 0.930 . S
C306 C302 1.411 . S
C306 C307 1.379 . S
C306 H316 0.930 . S
C307 C305 1.395 1_545 S
C307 C306 1.379 . S
C307 H317 0.930 . S
C308 O286 1.264 . S
C308 O287 1.254 . S
C309 Eu245 2.848 . S
C309 O284 1.257 . S
C309 O289 1.249 1_545 S
C309 C302 1.495 . S
H310 C293 0.930 . S
H311 C294 0.930 . S
H312 C295 0.930 . S
H313 C296 0.950 . S
H314 C303 0.930 . S
H315 C305 0.930 . S
H316 C306 0.930 . S
H317 C307 0.930 . S
Eu318 N349 2.657 . S
Eu318 N356 2.609 . S
Eu318 O362 2.558 . S
Eu318 O363 2.612 1_456 S
Eu318 O365 2.339 1_455 S
Eu318 O366 2.563 1_455 S
Eu318 O367 2.423 . S
Eu318 O369 2.380 1_556 S
Eu318 O370 2.432 1_556 S
Eu318 C382 2.848 . S
C319 C322 1.429 . S
C319 C323 1.411 . S
C319 N326 1.377 . S
C320 C322 1.420 . S
C320 C324 1.423 . S
C320 C332 1.392 . S
C321 C323 1.420 . S
C321 C324 1.351 . S
C321 H344 0.931 . S
C322 C319 1.429 . S
C322 C320 1.420 . S
C322 N330 1.362 . S
C323 C319 1.411 . S
C323 C321 1.420 . S
C323 C328 1.395 . S
C324 C320 1.423 . S
C324 C321 1.351 . S
C324 H336 0.930 . S
C325 C327 1.400 . S
C325 C328 1.386 . S
C325 H337 0.930 . S
N326 C319 1.377 . S
N326 C327 1.321 . S
N326 Eu329 2.609 . S
C327 C325 1.400 . S
C327 N326 1.321 . S
C327 H334 0.930 . S
C328 C323 1.395 . S
C328 C325 1.386 . S
C328 H347 0.930 . S
Eu329 N326 2.609 . S
Eu329 N330 2.657 . S
Eu329 O363 2.380 . S
Eu329 O364 2.432 . S
Eu329 O368 2.558 . S
Eu329 O369 2.612 1_655 S
Eu329 O371 2.339 1_655 S
Eu329 O372 2.563 1_655 S
Eu329 O373 2.419 1_655 S
Eu329 C393 2.848 1_655 S
N330 C322 1.362 . S
N330 Eu329 2.657 . S
N330 C331 1.334 . S
C331 N330 1.334 . S
C331 C333 1.413 . S
C331 H338 0.910 1_655 S
C332 C320 1.392 . S
C332 C333 1.367 . S
C332 H340 0.930 . S
C333 C331 1.413 . S
C333 C332 1.367 . S
C333 H335 0.930 . S
H334 C327 0.930 . S
H335 C333 0.930 . S
H336 C324 0.930 . S
H337 C325 0.930 . S
H338 C331 0.910 1_455 S
H339 C353 0.930 . S
H340 C332 0.930 . S
H341 C359 0.930 . S
H342 C350 0.929 . S
H343 C357 0.930 . S
H344 C321 0.931 . S
H345 C351 0.930 . S
H346 C384 0.930 . S
H347 C328 0.930 . S
H348 C383 0.931 . S
N349 Eu318 2.657 . S
N349 C350 1.334 . S
N349 C354 1.362 . S
C350 H342 0.929 . S
C350 N349 1.334 . S
C350 C353 1.413 . S
C351 H345 0.930 . S
C351 C352 1.392 . S
C351 C353 1.367 . S
C352 C351 1.392 . S
C352 C354 1.420 . S
C352 C384 1.423 . S
C353 H339 0.930 . S
C353 C350 1.413 . S
C353 C351 1.367 . S
C354 N349 1.362 . S
C354 C352 1.420 . S
C354 C358 1.429 . S
H355 C360 0.930 . S
N356 Eu318 2.609 . S
N356 C358 1.377 . S
N356 C359 1.321 . S
C357 H343 0.930 . S
C357 C359 1.400 . S
C357 C360 1.386 . S
C358 C354 1.429 . S
C358 N356 1.377 . S
C358 C361 1.411 . S
C359 H341 0.930 . S
C359 N356 1.321 . S
C359 C357 1.400 . S
C360 H355 0.930 . S
C360 C357 1.386 . S
C360 C361 1.395 . S
C361 C358 1.411 . S
C361 C360 1.395 . S
C361 C383 1.420 . S
O362 Eu318 2.558 . S
O362 C382 1.257 . S
O363 Eu318 2.612 1_654 S
O363 Eu329 2.380 . S
O363 C374 1.276 1_554 S
O364 Eu329 2.432 . S
O364 C381 1.264 . S
O365 Eu318 2.339 1_655 S
O365 C381 1.254 1_556 S
O366 Eu318 2.563 1_655 S
O366 C374 1.235 . S
O367 Eu318 2.423 . S
O367 C382 1.248 . S
O368 Eu329 2.558 . S
O368 C393 1.257 1_655 S
O369 Eu318 2.380 1_554 S
O369 Eu329 2.612 1_455 S
O369 C385 1.276 . S
O370 Eu318 2.432 1_554 S
O370 C392 1.264 . S
O371 Eu329 2.339 1_455 S
O371 C392 1.254 . S
O372 Eu329 2.563 1_455 S
O372 C385 1.235 . S
O373 Eu329 2.419 1_455 S
O373 C393 1.249 . S
C374 O363 1.276 1_556 S
C374 O366 1.235 . S
C375 C377 1.393 1_455 S
C375 C379 1.395 . S
C375 C382 1.492 . S
C376 C377 1.392 . S
C376 C378 1.386 . S
C377 C375 1.393 1_655 S
C377 C376 1.392 . S
C377 H394 0.930 . S
C378 C376 1.386 . S
C378 C380 1.395 1_655 S
C378 H395 0.930 . S
C379 C375 1.395 . S
C379 C380 1.379 . S
C379 H396 0.930 . S
C380 C378 1.395 1_455 S
C380 C379 1.379 . S
C380 H397 0.930 . S
C381 O364 1.264 . S
C381 O365 1.254 1_554 S
C382 Eu318 2.848 . S
C382 O362 1.257 . S
C382 O367 1.248 . S
C382 C375 1.492 . S
C383 H348 0.931 . S
C383 C361 1.420 . S
C383 C384 1.351 . S
C384 H346 0.930 . S
C384 C352 1.423 . S
C384 C383 1.351 . S
C385 O369 1.276 . S
C385 O372 1.235 . S
C386 C387 1.393 . S
C386 C390 1.395 1_455 S
C386 C393 1.492 . S
C387 C386 1.393 . S
C387 C388 1.392 . S
C387 H398 0.930 . S
C388 C387 1.392 . S
C388 C389 1.386 . S
C389 C388 1.386 . S
C389 C391 1.395 1_455 S
C389 H399 0.930 . S
C390 C386 1.395 1_655 S
C390 C391 1.379 . S
C390 H400 0.930 . S
C391 C389 1.395 1_655 S
C391 C390 1.379 . S
C391 H401 0.930 . S
C392 O370 1.264 . S
C392 O371 1.254 . S
C393 Eu329 2.848 1_455 S
C393 O368 1.257 1_455 S
C393 O373 1.249 . S
C393 C386 1.492 . S
H394 C377 0.930 . S
H395 C378 0.930 . S
H396 C379 0.930 . S
H397 C380 0.930 . S
H398 C387 0.930 . S
H399 C389 0.930 . S
H400 C390 0.930 . S
H401 C391 0.930 . S
Eu402 N433 2.657 . S
Eu402 N440 2.609 . S
Eu402 O446 2.558 . S
Eu402 O447 2.612 . S
Eu402 O449 2.339 . S
Eu402 O450 2.563 . S
Eu402 O451 2.419 . S
Eu402 O453 2.380 . S
Eu402 O454 2.432 . S
Eu402 C466 2.848 . S
C403 C406 1.429 . S
C403 C407 1.411 . S
C403 N410 1.377 . S
C404 C406 1.420 . S
C404 C408 1.423 . S
C404 C416 1.392 . S
C405 C407 1.420 . S
C405 C408 1.351 . S
C405 H428 0.931 . S
C406 C403 1.429 . S
C406 C404 1.420 . S
C406 N414 1.362 . S
C407 C403 1.411 . S
C407 C405 1.420 . S
C407 C412 1.395 . S
C408 C404 1.423 . S
C408 C405 1.351 . S
C408 H420 0.930 . S
C409 C411 1.400 . S
C409 C412 1.386 . S
C409 H421 0.930 . S
N410 C403 1.377 . S
N410 C411 1.321 . S
N410 Eu413 2.609 . S
C411 C409 1.400 . S
C411 N410 1.321 . S
C411 H418 0.930 . S
C412 C407 1.395 . S
C412 C409 1.386 . S
C412 H431 0.930 . S
Eu413 N410 2.609 . S
Eu413 N414 2.657 . S
Eu413 O447 2.380 1_556 S
Eu413 O448 2.432 1_556 S
Eu413 O452 2.558 . S
Eu413 O453 2.612 1_556 S
Eu413 O455 2.339 . S
Eu413 O456 2.563 . S
Eu413 O457 2.419 . S
Eu413 C477 2.848 . S
N414 C406 1.362 . S
N414 Eu413 2.657 . S
N414 C415 1.334 . S
C415 N414 1.334 . S
C415 C417 1.413 . S
C415 H422 0.929 . S
C416 C404 1.392 . S
C416 C417 1.367 . S
C416 H424 0.930 . S
C417 C415 1.413 . S
C417 C416 1.367 . S
C417 H419 0.930 . S
H418 C411 0.930 . S
H419 C417 0.930 . S
H420 C408 0.930 . S
H421 C409 0.930 . S
H422 C415 0.929 . S
H423 C437 0.930 . S
H424 C416 0.930 . S
H425 C443 0.930 . S
H426 C434 0.929 . S
H427 C441 0.930 . S
H428 C405 0.931 . S
H429 C435 0.930 . S
H430 C468 0.930 . S
H431 C412 0.930 . S
H432 C467 0.931 . S
N433 Eu402 2.657 . S
N433 C434 1.334 . S
N433 C438 1.362 . S
C434 H426 0.929 . S
C434 N433 1.334 . S
C434 C437 1.413 . S
C435 H429 0.930 . S
C435 C436 1.392 . S
C435 C437 1.367 . S
C436 C435 1.392 . S
C436 C438 1.420 . S
C436 C468 1.423 . S
C437 H423 0.930 . S
C437 C434 1.413 . S
C437 C435 1.367 . S
C438 N433 1.362 . S
C438 C436 1.420 . S
C438 C442 1.429 . S
H439 C444 0.930 . S
N440 Eu402 2.609 . S
N440 C442 1.377 . S
N440 C443 1.321 . S
C441 H427 0.930 . S
C441 C443 1.400 . S
C441 C444 1.386 . S
C442 C438 1.429 . S
C442 N440 1.377 . S
C442 C445 1.411 . S
C443 H425 0.930 . S
C443 N440 1.321 . S
C443 C441 1.400 . S
C444 H439 0.930 . S
C444 C441 1.386 . S
C444 C445 1.395 . S
C445 C442 1.411 . S
C445 C444 1.395 . S
C445 C467 1.420 . S
O446 Eu402 2.558 . S
O446 C466 1.257 . S
O447 Eu402 2.612 . S
O447 Eu413 2.380 1_554 S
O447 C458 1.276 . S
O448 Eu413 2.432 1_554 S
O448 C465 1.264 . S
O449 Eu402 2.339 . S
O449 C465 1.254 . S
O450 Eu402 2.563 . S
O450 C458 1.235 . S
O451 Eu402 2.419 . S
O451 C466 1.249 . S
O452 Eu413 2.558 . S
O452 C477 1.257 . S
O453 Eu402 2.380 . S
O453 Eu413 2.612 1_554 S
O453 C469 1.276 1_554 S
O454 Eu402 2.432 . S
O454 C476 1.264 . S
O455 Eu413 2.339 . S
O455 C476 1.254 1_556 S
O456 Eu413 2.563 . S
O456 C469 1.235 . S
O457 Eu413 2.419 . S
O457 C477 1.249 . S
C458 O447 1.276 . S
C458 O450 1.235 . S
C459 C461 1.393 . S
C459 C463 1.395 . S
C459 C466 1.492 . S
C460 C461 1.392 . S
C460 C462 1.386 . S
C461 C459 1.393 . S
C461 C460 1.392 . S
C461 H478 0.930 . S
C462 C460 1.386 . S
C462 C464 1.395 . S
C462 H479 0.930 . S
C463 C459 1.395 . S
C463 C464 1.379 . S
C463 H480 0.930 . S
C464 C462 1.395 . S
C464 C463 1.379 . S
C464 H481 0.930 . S
C465 O448 1.264 . S
C465 O449 1.254 . S
C466 Eu402 2.848 . S
C466 O446 1.257 . S
C466 O451 1.249 . S
C466 C459 1.492 . S
C467 H432 0.931 . S
C467 C445 1.420 . S
C467 C468 1.351 . S
C468 H430 0.930 . S
C468 C436 1.423 . S
C468 C467 1.351 . S
C469 O453 1.276 1_556 S
C469 O456 1.235 . S
C470 C471 1.393 . S
C470 C474 1.395 . S
C470 C477 1.492 . S
C471 C470 1.393 . S
C471 C472 1.392 . S
C471 H482 0.930 . S
C472 C471 1.392 . S
C472 C473 1.386 . S
C473 C472 1.386 . S
C473 C475 1.395 . S
C473 H483 0.930 . S
C474 C470 1.395 . S
C474 C475 1.379 . S
C474 H484 0.930 . S
C475 C473 1.395 . S
C475 C474 1.379 . S
C475 H485 0.930 . S
C476 O454 1.264 . S
C476 O455 1.254 1_554 S
C477 Eu413 2.848 . S
C477 O452 1.257 . S
C477 O457 1.249 . S
C477 C470 1.492 . S
H478 C461 0.930 . S
H479 C462 0.930 . S
H480 C463 0.930 . S
H481 C464 0.930 . S
H482 C471 0.930 . S
H483 C473 0.930 . S
H484 C474 0.930 . S
H485 C475 0.930 . S
Eu486 N517 2.657 . S
Eu486 N524 2.609 . S
Eu486 O530 2.558 . S
Eu486 O531 2.612 . S
Eu486 O533 2.339 . S
Eu486 O534 2.563 . S
Eu486 O535 2.419 . S
Eu486 O537 2.380 . S
Eu486 O538 2.432 . S
Eu486 C550 2.848 . S
C487 C490 1.429 . S
C487 C491 1.411 . S
C487 N494 1.377 . S
C488 C490 1.420 . S
C488 C492 1.423 . S
C488 C500 1.392 . S
C489 C491 1.420 . S
C489 C492 1.351 . S
C489 H512 0.931 . S
C490 C487 1.429 . S
C490 C488 1.420 . S
C490 N498 1.362 . S
C491 C487 1.411 . S
C491 C489 1.420 . S
C491 C496 1.395 . S
C492 C488 1.423 . S
C492 C489 1.351 . S
C492 H504 0.930 . S
C493 C495 1.400 . S
C493 C496 1.386 . S
C493 H505 0.930 . S
N494 C487 1.377 . S
N494 C495 1.321 . S
N494 Eu497 2.609 . S
C495 C493 1.400 . S
C495 N494 1.321 . S
C495 H502 0.930 . S
C496 C491 1.395 . S
C496 C493 1.386 . S
C496 H515 0.930 . S
Eu497 N494 2.609 . S
Eu497 N498 2.657 . S
Eu497 O531 2.380 . S
Eu497 O532 2.432 . S
Eu497 O536 2.558 . S
Eu497 O537 2.612 . S
Eu497 O539 2.339 . S
Eu497 O540 2.563 . S
Eu497 O541 2.419 . S
Eu497 C561 2.848 . S
N498 C490 1.362 . S
N498 Eu497 2.657 . S
N498 C499 1.334 . S
C499 N498 1.334 . S
C499 C501 1.413 . S
C499 H506 0.929 . S
C500 C488 1.392 . S
C500 C501 1.367 . S
C500 H508 0.930 . S
C501 C499 1.413 . S
C501 C500 1.367 . S
C501 H503 0.930 . S
H502 C495 0.930 . S
H503 C501 0.930 . S
H504 C492 0.930 . S
H505 C493 0.930 . S
H506 C499 0.929 . S
H507 C521 0.930 . S
H508 C500 0.930 . S
H509 C527 0.930 . S
H510 C518 0.929 . S
H511 C525 0.930 . S
H512 C489 0.931 . S
H513 C519 0.930 . S
H514 C552 0.930 . S
H515 C496 0.930 . S
H516 C551 0.931 . S
N517 Eu486 2.657 . S
N517 C518 1.334 . S
N517 C522 1.362 . S
C518 H510 0.929 . S
C518 N517 1.334 . S
C518 C521 1.413 . S
C519 H513 0.930 . S
C519 C520 1.392 . S
C519 C521 1.367 . S
C520 C519 1.392 . S
C520 C522 1.420 . S
C520 C552 1.423 . S
C521 H507 0.930 . S
C521 C518 1.413 . S
C521 C519 1.367 . S
C522 N517 1.362 . S
C522 C520 1.420 . S
C522 C526 1.429 . S
H523 C528 0.930 . S
N524 Eu486 2.609 . S
N524 C526 1.377 . S
N524 C527 1.321 . S
C525 H511 0.930 . S
C525 C527 1.400 . S
C525 C528 1.386 . S
C526 C522 1.429 . S
C526 N524 1.377 . S
C526 C529 1.411 . S
C527 H509 0.930 . S
C527 N524 1.321 . S
C527 C525 1.400 . S
C528 H523 0.930 . S
C528 C525 1.386 . S
C528 C529 1.395 . S
C529 C526 1.411 . S
C529 C528 1.395 . S
C529 C551 1.420 . S
O530 Eu486 2.558 . S
O530 C550 1.257 . S
O531 Eu486 2.612 . S
O531 Eu497 2.380 . S
O531 C542 1.276 . S
O532 Eu497 2.432 . S
O532 C549 1.264 . S
O533 Eu486 2.339 . S
O533 C549 1.254 . S
O534 Eu486 2.563 . S
O534 C542 1.235 . S
O535 Eu486 2.419 . S
O535 C550 1.249 . S
O536 Eu497 2.558 . S
O536 C561 1.257 . S
O537 Eu486 2.380 . S
O537 Eu497 2.612 . S
O537 C553 1.276 . S
O538 Eu486 2.432 . S
O538 C560 1.264 . S
O539 Eu497 2.339 . S
O539 C560 1.254 . S
O540 Eu497 2.563 . S
O540 C553 1.235 . S
O541 Eu497 2.419 . S
O541 C561 1.249 . S
C542 O531 1.276 . S
C542 O534 1.235 . S
C543 C545 1.393 . S
C543 C547 1.395 . S
C543 C550 1.492 . S
C544 C545 1.392 . S
C544 C546 1.386 . S
C545 C543 1.393 . S
C545 C544 1.392 . S
C545 H562 0.930 . S
C546 C544 1.386 . S
C546 C548 1.395 . S
C546 H563 0.930 . S
C547 C543 1.395 . S
C547 C548 1.379 . S
C547 H564 0.930 . S
C548 C546 1.395 . S
C548 C547 1.379 . S
C548 H565 0.930 . S
C549 O532 1.264 . S
C549 O533 1.254 . S
C550 Eu486 2.848 . S
C550 O530 1.257 . S
C550 O535 1.249 . S
C550 C543 1.492 . S
C551 H516 0.931 . S
C551 C529 1.420 . S
C551 C552 1.351 . S
C552 H514 0.930 . S
C552 C520 1.423 . S
C552 C551 1.351 . S
C553 O537 1.276 . S
C553 O540 1.235 . S
C554 C555 1.393 . S
C554 C558 1.395 . S
C554 C561 1.492 . S
C555 C554 1.393 . S
C555 C556 1.392 . S
C555 H566 0.930 . S
C556 C555 1.392 . S
C556 C557 1.386 . S
C557 C556 1.386 . S
C557 C559 1.395 . S
C557 H567 0.930 . S
C558 C554 1.395 . S
C558 C559 1.379 . S
C558 H568 0.930 . S
C559 C557 1.395 . S
C559 C558 1.379 . S
C559 H569 0.930 . S
C560 O538 1.264 . S
C560 O539 1.254 . S
C561 Eu497 2.848 . S
C561 O536 1.257 . S
C561 O541 1.249 . S
C561 C554 1.492 . S
H562 C545 0.930 . S
H563 C546 0.930 . S
H564 C547 0.930 . S
H565 C548 0.930 . S
H566 C555 0.930 . S
H567 C557 0.930 . S
H568 C558 0.930 . S
H569 C559 0.930 . S
Eu570 N601 2.657 . S
Eu570 N608 2.609 . S
Eu570 O614 2.558 . S
Eu570 O615 2.612 . S
Eu570 O617 2.339 . S
Eu570 O618 2.563 . S
Eu570 O619 2.419 . S
Eu570 O621 2.380 . S
Eu570 O622 2.432 . S
Eu570 C634 2.848 . S
C571 C574 1.429 . S
C571 C575 1.411 . S
C571 N578 1.377 . S
C572 C574 1.420 . S
C572 C576 1.423 . S
C572 C584 1.392 . S
C573 C575 1.420 . S
C573 C576 1.351 . S
C573 H596 0.931 . S
C574 C571 1.429 . S
C574 C572 1.420 . S
C574 N582 1.362 . S
C575 C571 1.411 . S
C575 C573 1.420 . S
C575 C580 1.395 . S
C576 C572 1.423 . S
C576 C573 1.351 . S
C576 H588 0.930 . S
C577 C579 1.400 . S
C577 C580 1.386 . S
C577 H589 0.930 . S
N578 C571 1.377 . S
N578 C579 1.321 . S
N578 Eu581 2.609 . S
C579 C577 1.400 . S
C579 N578 1.321 . S
C579 H586 0.930 . S
C580 C575 1.395 . S
C580 C577 1.386 . S
C580 H599 0.930 . S
Eu581 N578 2.609 . S
Eu581 N582 2.657 . S
Eu581 O615 2.380 . S
Eu581 O616 2.432 . S
Eu581 O620 2.558 . S
Eu581 O621 2.612 . S
Eu581 O623 2.339 . S
Eu581 O624 2.563 . S
Eu581 O625 2.419 . S
Eu581 C645 2.848 . S
N582 C574 1.362 . S
N582 Eu581 2.657 . S
N582 C583 1.334 . S
C583 N582 1.334 . S
C583 C585 1.413 . S
C583 H590 0.929 . S
C584 C572 1.392 . S
C584 C585 1.367 . S
C584 H592 0.930 . S
C585 C583 1.413 . S
C585 C584 1.367 . S
C585 H587 0.930 . S
H586 C579 0.930 . S
H587 C585 0.930 . S
H588 C576 0.930 . S
H589 C577 0.930 . S
H590 C583 0.929 . S
H591 C605 0.930 . S
H592 C584 0.930 . S
H593 C611 0.930 . S
H594 C602 0.929 . S
H595 C609 0.930 . S
H596 C573 0.931 . S
H597 C603 0.930 . S
H598 C636 0.930 . S
H599 C580 0.930 . S
H600 C635 0.931 . S
N601 Eu570 2.657 . S
N601 C602 1.334 . S
N601 C606 1.362 . S
C602 H594 0.929 . S
C602 N601 1.334 . S
C602 C605 1.413 . S
C603 H597 0.930 . S
C603 C604 1.392 . S
C603 C605 1.367 . S
C604 C603 1.392 . S
C604 C606 1.420 . S
C604 C636 1.423 . S
C605 H591 0.930 . S
C605 C602 1.413 . S
C605 C603 1.367 . S
C606 N601 1.362 . S
C606 C604 1.420 . S
C606 C610 1.429 . S
H607 C612 0.930 . S
N608 Eu570 2.609 . S
N608 C610 1.377 . S
N608 C611 1.321 . S
C609 H595 0.930 . S
C609 C611 1.400 . S
C609 C612 1.386 . S
C610 C606 1.429 . S
C610 N608 1.377 . S
C610 C613 1.411 . S
C611 H593 0.930 . S
C611 N608 1.321 . S
C611 C609 1.400 . S
C612 H607 0.930 . S
C612 C609 1.386 . S
C612 C613 1.395 . S
C613 C610 1.411 . S
C613 C612 1.395 . S
C613 C635 1.420 . S
O614 Eu570 2.558 . S
O614 C634 1.257 . S
O615 Eu570 2.612 . S
O615 Eu581 2.380 . S
O615 C626 1.276 . S
O616 Eu581 2.432 . S
O616 C633 1.264 . S
O617 Eu570 2.339 . S
O617 C633 1.254 . S
O618 Eu570 2.563 . S
O618 C626 1.235 . S
O619 Eu570 2.419 . S
O619 C634 1.249 . S
O620 Eu581 2.558 . S
O620 C645 1.257 . S
O621 Eu570 2.380 . S
O621 Eu581 2.612 . S
O621 C637 1.276 . S
O622 Eu570 2.432 . S
O622 C644 1.264 . S
O623 Eu581 2.339 . S
O623 C644 1.254 . S
O624 Eu581 2.563 . S
O624 C637 1.235 . S
O625 Eu581 2.419 . S
O625 C645 1.249 . S
C626 O615 1.276 . S
C626 O618 1.235 . S
C627 C629 1.393 . S
C627 C631 1.395 . S
C627 C634 1.492 . S
C628 C629 1.392 . S
C628 C630 1.386 . S
C629 C627 1.393 . S
C629 C628 1.392 . S
C629 H646 0.930 . S
C630 C628 1.386 . S
C630 C632 1.395 . S
C630 H647 0.930 . S
C631 C627 1.395 . S
C631 C632 1.379 . S
C631 H648 0.930 . S
C632 C630 1.395 . S
C632 C631 1.379 . S
C632 H649 0.930 . S
C633 O616 1.264 . S
C633 O617 1.254 . S
C634 Eu570 2.848 . S
C634 O614 1.257 . S
C634 O619 1.249 . S
C634 C627 1.492 . S
C635 H600 0.931 . S
C635 C613 1.420 . S
C635 C636 1.351 . S
C636 H598 0.930 . S
C636 C604 1.423 . S
C636 C635 1.351 . S
C637 O621 1.276 . S
C637 O624 1.235 . S
C638 C639 1.393 . S
C638 C642 1.395 . S
C638 C645 1.492 . S
C639 C638 1.393 . S
C639 C640 1.392 . S
C639 H650 0.930 . S
C640 C639 1.392 . S
C640 C641 1.386 . S
C641 C640 1.386 . S
C641 C643 1.395 . S
C641 H651 0.930 . S
C642 C638 1.395 . S
C642 C643 1.379 . S
C642 H652 0.930 . S
C643 C641 1.395 . S
C643 C642 1.379 . S
C643 H653 0.930 . S
C644 O622 1.264 . S
C644 O623 1.254 . S
C645 Eu581 2.848 . S
C645 O620 1.257 . S
C645 O625 1.249 . S
C645 C638 1.492 . S
H646 C629 0.930 . S
H647 C630 0.930 . S
H648 C631 0.930 . S
H649 C632 0.930 . S
H650 C639 0.930 . S
H651 C641 0.930 . S
H652 C642 0.930 . S
H653 C643 0.930 . S
Eu654 N685 2.657 . S
Eu654 N692 2.609 . S
Eu654 O698 2.558 . S
Eu654 O699 2.612 . S
Eu654 O701 2.339 . S
Eu654 O702 2.563 . S
Eu654 O703 2.419 . S
Eu654 O705 2.380 . S
Eu654 O706 2.432 . S
Eu654 C718 2.848 . S
C655 C658 1.429 . S
C655 C659 1.411 . S
C655 N662 1.377 . S
C656 C658 1.420 . S
C656 C660 1.423 . S
C656 C668 1.392 . S
C657 C659 1.420 . S
C657 C660 1.351 . S
C657 H680 0.931 . S
C658 C655 1.429 . S
C658 C656 1.420 . S
C658 N666 1.362 . S
C659 C655 1.411 . S
C659 C657 1.420 . S
C659 C664 1.395 . S
C660 C656 1.423 . S
C660 C657 1.351 . S
C660 H672 0.930 . S
C661 C663 1.400 . S
C661 C664 1.386 . S
C661 H673 0.930 . S
N662 C655 1.377 . S
N662 C663 1.321 . S
N662 Eu665 2.609 . S
C663 C661 1.400 . S
C663 N662 1.321 . S
C663 H670 0.930 . S
C664 C659 1.395 . S
C664 C661 1.386 . S
C664 H683 0.930 . S
Eu665 N662 2.609 . S
Eu665 N666 2.657 . S
Eu665 O699 2.380 . S
Eu665 O700 2.432 . S
Eu665 O704 2.558 . S
Eu665 O705 2.612 . S
Eu665 O707 2.339 . S
Eu665 O708 2.563 . S
Eu665 O709 2.419 . S
Eu665 C729 2.848 . S
N666 C658 1.362 . S
N666 Eu665 2.657 . S
N666 C667 1.334 . S
C667 N666 1.334 . S
C667 C669 1.413 . S
C667 H674 0.929 . S
C668 C656 1.392 . S
C668 C669 1.367 . S
C668 H676 0.930 . S
C669 C667 1.413 . S
C669 C668 1.367 . S
C669 H671 0.930 . S
H670 C663 0.930 . S
H671 C669 0.930 . S
H672 C660 0.930 . S
H673 C661 0.930 . S
H674 C667 0.929 . S
H675 C689 0.930 . S
H676 C668 0.930 . S
H677 C695 0.930 . S
H678 C686 0.929 . S
H679 C693 0.930 . S
H680 C657 0.931 . S
H681 C687 0.930 . S
H682 C720 0.930 . S
H683 C664 0.930 . S
H684 C719 0.931 . S
N685 Eu654 2.657 . S
N685 C686 1.334 . S
N685 C690 1.362 . S
C686 H678 0.929 . S
C686 N685 1.334 . S
C686 C689 1.413 . S
C687 H681 0.930 . S
C687 C688 1.392 . S
C687 C689 1.367 . S
C688 C687 1.392 . S
C688 C690 1.420 . S
C688 C720 1.423 . S
C689 H675 0.930 . S
C689 C686 1.413 . S
C689 C687 1.367 . S
C690 N685 1.362 . S
C690 C688 1.420 . S
C690 C694 1.429 . S
H691 C696 0.930 . S
N692 Eu654 2.609 . S
N692 C694 1.377 . S
N692 C695 1.321 . S
C693 H679 0.930 . S
C693 C695 1.400 . S
C693 C696 1.386 . S
C694 C690 1.429 . S
C694 N692 1.377 . S
C694 C697 1.411 . S
C695 H677 0.930 . S
C695 N692 1.321 . S
C695 C693 1.400 . S
C696 H691 0.930 . S
C696 C693 1.386 . S
C696 C697 1.395 . S
C697 C694 1.411 . S
C697 C696 1.395 . S
C697 C719 1.420 . S
O698 Eu654 2.558 . S
O698 C718 1.257 . S
O699 Eu654 2.612 . S
O699 Eu665 2.380 . S
O699 C710 1.276 . S
O700 Eu665 2.432 . S
O700 C717 1.264 . S
O701 Eu654 2.339 . S
O701 C717 1.254 . S
O702 Eu654 2.563 . S
O702 C710 1.235 . S
O703 Eu654 2.419 . S
O703 C718 1.249 . S
O704 Eu665 2.558 . S
O704 C729 1.257 . S
O705 Eu654 2.380 . S
O705 Eu665 2.612 . S
O705 C721 1.276 . S
O706 Eu654 2.432 . S
O706 C728 1.264 . S
O707 Eu665 2.339 . S
O707 C728 1.254 . S
O708 Eu665 2.563 . S
O708 C721 1.235 . S
O709 Eu665 2.419 . S
O709 C729 1.249 . S
C710 O699 1.276 . S
C710 O702 1.235 . S
C711 C713 1.393 . S
C711 C715 1.395 . S
C711 C718 1.492 . S
C712 C713 1.392 . S
C712 C714 1.386 . S
C713 C711 1.393 . S
C713 C712 1.392 . S
C713 H730 0.930 . S
C714 C712 1.386 . S
C714 C716 1.395 . S
C714 H731 0.930 . S
C715 C711 1.395 . S
C715 C716 1.379 . S
C715 H732 0.930 . S
C716 C714 1.395 . S
C716 C715 1.379 . S
C716 H733 0.930 . S
C717 O700 1.264 . S
C717 O701 1.254 . S
C718 Eu654 2.848 . S
C718 O698 1.257 . S
C718 O703 1.249 . S
C718 C711 1.492 . S
C719 H684 0.931 . S
C719 C697 1.420 . S
C719 C720 1.351 . S
C720 H682 0.930 . S
C720 C688 1.423 . S
C720 C719 1.351 . S
C721 O705 1.276 . S
C721 O708 1.235 . S
C722 C723 1.393 . S
C722 C726 1.395 . S
C722 C729 1.492 . S
C723 C722 1.393 . S
C723 C724 1.392 . S
C723 H734 0.930 . S
C724 C723 1.392 . S
C724 C725 1.386 . S
C725 C724 1.386 . S
C725 C727 1.395 . S
C725 H735 0.930 . S
C726 C722 1.395 . S
C726 C727 1.379 . S
C726 H736 0.930 . S
C727 C725 1.395 . S
C727 C726 1.379 . S
C727 H737 0.930 . S
C728 O706 1.264 . S
C728 O707 1.254 . S
C729 Eu665 2.848 . S
C729 O704 1.257 . S
C729 O709 1.249 . S
C729 C722 1.492 . S
H730 C713 0.930 . S
H731 C714 0.930 . S
H732 C715 0.930 . S
H733 C716 0.930 . S
H734 C723 0.930 . S
H735 C725 0.930 . S
H736 C726 0.930 . S
H737 C727 0.930 . S
Eu738 N769 2.657 . S
Eu738 N776 2.609 . S
Eu738 O782 2.558 . S
Eu738 O783 2.612 . S
Eu738 O785 2.339 . S
Eu738 O786 2.563 . S
Eu738 O787 2.419 . S
Eu738 O789 2.380 . S
Eu738 O790 2.432 . S
Eu738 C802 2.848 . S
C739 C742 1.429 . S
C739 C743 1.411 . S
C739 N746 1.377 . S
C740 C742 1.420 . S
C740 C744 1.423 . S
C740 C752 1.392 . S
C741 C743 1.420 . S
C741 C744 1.351 . S
C741 H764 0.931 . S
C742 C739 1.429 . S
C742 C740 1.420 . S
C742 N750 1.362 . S
C743 C739 1.411 . S
C743 C741 1.420 . S
C743 C748 1.395 . S
C744 C740 1.423 . S
C744 C741 1.351 . S
C744 H756 0.930 . S
C745 C747 1.400 . S
C745 C748 1.386 . S
C745 H757 0.930 . S
N746 C739 1.377 . S
N746 C747 1.321 . S
N746 Eu749 2.609 . S
C747 C745 1.400 . S
C747 N746 1.321 . S
C747 H754 0.930 . S
C748 C743 1.395 . S
C748 C745 1.386 . S
C748 H767 0.930 . S
Eu749 N746 2.609 . S
Eu749 N750 2.657 . S
Eu749 O783 2.380 . S
Eu749 O784 2.432 . S
Eu749 O788 2.558 . S
Eu749 O789 2.612 . S
Eu749 O791 2.339 . S
Eu749 O792 2.563 . S
Eu749 O793 2.419 . S
Eu749 C813 2.848 . S
N750 C742 1.362 . S
N750 Eu749 2.657 . S
N750 C751 1.334 . S
C751 N750 1.334 . S
C751 C753 1.413 . S
C751 H758 0.929 . S
C752 C740 1.392 . S
C752 C753 1.367 . S
C752 H760 0.930 . S
C753 C751 1.413 . S
C753 C752 1.367 . S
C753 H755 0.930 . S
H754 C747 0.930 . S
H755 C753 0.930 . S
H756 C744 0.930 . S
H757 C745 0.930 . S
H758 C751 0.929 . S
H759 C773 0.930 . S
H760 C752 0.930 . S
H761 C779 0.930 . S
H762 C770 0.929 . S
H763 C777 0.930 . S
H764 C741 0.931 . S
H765 C771 0.930 . S
H766 C804 0.930 . S
H767 C748 0.930 . S
H768 C803 0.931 . S
N769 Eu738 2.657 . S
N769 C770 1.334 . S
N769 C774 1.362 . S
C770 H762 0.929 . S
C770 N769 1.334 . S
C770 C773 1.413 . S
C771 H765 0.930 . S
C771 C772 1.392 . S
C771 C773 1.367 . S
C772 C771 1.392 . S
C772 C774 1.420 . S
C772 C804 1.423 . S
C773 H759 0.930 . S
C773 C770 1.413 . S
C773 C771 1.367 . S
C774 N769 1.362 . S
C774 C772 1.420 . S
C774 C778 1.429 . S
H775 C780 0.930 . S
N776 Eu738 2.609 . S
N776 C778 1.377 . S
N776 C779 1.321 . S
C777 H763 0.930 . S
C777 C779 1.400 . S
C777 C780 1.386 . S
C778 C774 1.429 . S
C778 N776 1.377 . S
C778 C781 1.411 . S
C779 H761 0.930 . S
C779 N776 1.321 . S
C779 C777 1.400 . S
C780 H775 0.930 . S
C780 C777 1.386 . S
C780 C781 1.395 . S
C781 C778 1.411 . S
C781 C780 1.395 . S
C781 C803 1.420 . S
O782 Eu738 2.558 . S
O782 C802 1.257 . S
O783 Eu738 2.612 . S
O783 Eu749 2.380 . S
O783 C794 1.276 . S
O784 Eu749 2.432 . S
O784 C801 1.264 . S
O785 Eu738 2.339 . S
O785 C801 1.254 . S
O786 Eu738 2.563 . S
O786 C794 1.235 . S
O787 Eu738 2.419 . S
O787 C802 1.249 . S
O788 Eu749 2.558 . S
O788 C813 1.257 . S
O789 Eu738 2.380 . S
O789 Eu749 2.612 . S
O789 C805 1.276 . S
O790 Eu738 2.432 . S
O790 C812 1.264 . S
O791 Eu749 2.339 . S
O791 C812 1.254 . S
O792 Eu749 2.563 . S
O792 C805 1.235 . S
O793 Eu749 2.419 . S
O793 C813 1.249 . S
C794 O783 1.276 . S
C794 O786 1.235 . S
C795 C797 1.393 . S
C795 C799 1.395 . S
C795 C802 1.492 . S
C796 C797 1.392 . S
C796 C798 1.386 . S
C797 C795 1.393 . S
C797 C796 1.392 . S
C797 H814 0.930 . S
C798 C796 1.386 . S
C798 C800 1.395 . S
C798 H815 0.930 . S
C799 C795 1.395 . S
C799 C800 1.379 . S
C799 H816 0.930 . S
C800 C798 1.395 . S
C800 C799 1.379 . S
C800 H817 0.930 . S
C801 O784 1.264 . S
C801 O785 1.254 . S
C802 Eu738 2.848 . S
C802 O782 1.257 . S
C802 O787 1.249 . S
C802 C795 1.492 . S
C803 H768 0.931 . S
C803 C781 1.420 . S
C803 C804 1.351 . S
C804 H766 0.930 . S
C804 C772 1.423 . S
C804 C803 1.351 . S
C805 O789 1.276 . S
C805 O792 1.235 . S
C806 C807 1.393 . S
C806 C810 1.395 . S
C806 C813 1.492 . S
C807 C806 1.393 . S
C807 C808 1.392 . S
C807 H818 0.930 . S
C808 C807 1.392 . S
C808 C809 1.386 . S
C809 C808 1.386 . S
C809 C811 1.395 . S
C809 H819 0.930 . S
C810 C806 1.395 . S
C810 C811 1.379 . S
C810 H820 0.930 . S
C811 C809 1.395 . S
C811 C810 1.379 . S
C811 H821 0.930 . S
C812 O790 1.264 . S
C812 O791 1.254 . S
C813 Eu749 2.848 . S
C813 O788 1.257 . S
C813 O793 1.249 . S
C813 C806 1.492 . S
H814 C797 0.930 . S
H815 C798 0.930 . S
H816 C799 0.930 . S
H817 C800 0.930 . S
H818 C807 0.930 . S
H819 C809 0.930 . S
H820 C810 0.930 . S
H821 C811 0.930 . S
Eu822 N853 2.657 . S
Eu822 N860 2.609 . S
Eu822 O866 2.558 . S
Eu822 O867 2.612 . S
Eu822 O869 2.339 . S
Eu822 O870 2.563 . S
Eu822 O871 2.419 . S
Eu822 O873 2.380 . S
Eu822 O874 2.432 . S
Eu822 C886 2.848 . S
C823 C826 1.429 . S
C823 C827 1.411 . S
C823 N830 1.377 . S
C824 C826 1.420 . S
C824 C828 1.423 . S
C824 C836 1.392 . S
C825 C827 1.420 . S
C825 C828 1.351 . S
C825 H848 0.931 . S
C826 C823 1.429 . S
C826 C824 1.420 . S
C826 N834 1.362 . S
C827 C823 1.411 . S
C827 C825 1.420 . S
C827 C832 1.395 . S
C828 C824 1.423 . S
C828 C825 1.351 . S
C828 H840 0.930 . S
C829 C831 1.400 . S
C829 C832 1.386 . S
C829 H841 0.930 . S
N830 C823 1.377 . S
N830 C831 1.321 . S
N830 Eu833 2.609 . S
C831 C829 1.400 . S
C831 N830 1.321 . S
C831 H838 0.930 . S
C832 C827 1.395 . S
C832 C829 1.386 . S
C832 H851 0.930 . S
Eu833 N830 2.609 . S
Eu833 N834 2.657 . S
Eu833 O867 2.380 . S
Eu833 O868 2.432 . S
Eu833 O872 2.558 . S
Eu833 O873 2.612 . S
Eu833 O875 2.339 . S
Eu833 O876 2.563 . S
Eu833 O877 2.419 . S
Eu833 C897 2.848 . S
N834 C826 1.362 . S
N834 Eu833 2.657 . S
N834 C835 1.334 . S
C835 N834 1.334 . S
C835 C837 1.413 . S
C835 H842 0.929 . S
C836 C824 1.392 . S
C836 C837 1.367 . S
C836 H844 0.930 . S
C837 C835 1.413 . S
C837 C836 1.367 . S
C837 H839 0.930 . S
H838 C831 0.930 . S
H839 C837 0.930 . S
H840 C828 0.930 . S
H841 C829 0.930 . S
H842 C835 0.929 . S
H843 C857 0.930 . S
H844 C836 0.930 . S
H845 C863 0.930 . S
H846 C854 0.929 . S
H847 C861 0.930 . S
H848 C825 0.931 . S
H849 C855 0.930 . S
H850 C888 0.930 . S
H851 C832 0.930 . S
H852 C887 0.931 . S
N853 Eu822 2.657 . S
N853 C854 1.334 . S
N853 C858 1.362 . S
C854 H846 0.929 . S
C854 N853 1.334 . S
C854 C857 1.413 . S
C855 H849 0.930 . S
C855 C856 1.392 . S
C855 C857 1.367 . S
C856 C855 1.392 . S
C856 C858 1.420 . S
C856 C888 1.423 . S
C857 H843 0.930 . S
C857 C854 1.413 . S
C857 C855 1.367 . S
C858 N853 1.362 . S
C858 C856 1.420 . S
C858 C862 1.429 . S
H859 C864 0.930 . S
N860 Eu822 2.609 . S
N860 C862 1.377 . S
N860 C863 1.321 . S
C861 H847 0.930 . S
C861 C863 1.400 . S
C861 C864 1.386 . S
C862 C858 1.429 . S
C862 N860 1.377 . S
C862 C865 1.411 . S
C863 H845 0.930 . S
C863 N860 1.321 . S
C863 C861 1.400 . S
C864 H859 0.930 . S
C864 C861 1.386 . S
C864 C865 1.395 . S
C865 C862 1.411 . S
C865 C864 1.395 . S
C865 C887 1.420 . S
O866 Eu822 2.558 . S
O866 C886 1.257 . S
O867 Eu822 2.612 . S
O867 Eu833 2.380 . S
O867 C878 1.276 . S
O868 Eu833 2.432 . S
O868 C885 1.264 . S
O869 Eu822 2.339 . S
O869 C885 1.254 . S
O870 Eu822 2.563 . S
O870 C878 1.235 . S
O871 Eu822 2.419 . S
O871 C886 1.249 . S
O872 Eu833 2.558 . S
O872 C897 1.257 . S
O873 Eu822 2.380 . S
O873 Eu833 2.612 . S
O873 C889 1.276 . S
O874 Eu822 2.432 . S
O874 C896 1.264 . S
O875 Eu833 2.339 . S
O875 C896 1.254 . S
O876 Eu833 2.563 . S
O876 C889 1.235 . S
O877 Eu833 2.419 . S
O877 C897 1.249 . S
C878 O867 1.276 . S
C878 O870 1.235 . S
C879 C881 1.393 . S
C879 C883 1.395 . S
C879 C886 1.492 . S
C880 C881 1.392 . S
C880 C882 1.386 . S
C881 C879 1.393 . S
C881 C880 1.392 . S
C881 H898 0.930 . S
C882 C880 1.386 . S
C882 C884 1.395 . S
C882 H899 0.930 . S
C883 C879 1.395 . S
C883 C884 1.379 . S
C883 H900 0.930 . S
C884 C882 1.395 . S
C884 C883 1.379 . S
C884 H901 0.930 . S
C885 O868 1.264 . S
C885 O869 1.254 . S
C886 Eu822 2.848 . S
C886 O866 1.257 . S
C886 O871 1.249 . S
C886 C879 1.492 . S
C887 H852 0.931 . S
C887 C865 1.420 . S
C887 C888 1.351 . S
C888 H850 0.930 . S
C888 C856 1.423 . S
C888 C887 1.351 . S
C889 O873 1.276 . S
C889 O876 1.235 . S
C890 C891 1.393 . S
C890 C894 1.395 . S
C890 C897 1.492 . S
C891 C890 1.393 . S
C891 C892 1.392 . S
C891 H902 0.930 . S
C892 C891 1.392 . S
C892 C893 1.386 . S
C893 C892 1.386 . S
C893 C895 1.395 . S
C893 H903 0.930 . S
C894 C890 1.395 . S
C894 C895 1.379 . S
C894 H904 0.930 . S
C895 C893 1.395 . S
C895 C894 1.379 . S
C895 H905 0.930 . S
C896 O874 1.264 . S
C896 O875 1.254 . S
C897 Eu833 2.848 . S
C897 O872 1.257 . S
C897 O877 1.249 . S
C897 C890 1.492 . S
H898 C881 0.930 . S
H899 C882 0.930 . S
H900 C883 0.930 . S
H901 C884 0.930 . S
H902 C891 0.930 . S
H903 C893 0.930 . S
H904 C894 0.930 . S
H905 C895 0.930 . S
Eu906 N937 2.657 . S
Eu906 N944 2.609 . S
Eu906 O950 2.558 . S
Eu906 O951 2.612 . S
Eu906 O953 2.339 . S
Eu906 O954 2.563 . S
Eu906 O955 2.419 . S
Eu906 O957 2.380 . S
Eu906 O958 2.432 . S
Eu906 C970 2.848 . S
C907 C910 1.429 . S
C907 C911 1.411 . S
C907 N914 1.377 . S
C908 C910 1.420 . S
C908 C912 1.423 . S
C908 C920 1.392 . S
C909 C911 1.420 . S
C909 C912 1.351 . S
C909 H932 0.931 . S
C910 C907 1.429 . S
C910 C908 1.420 . S
C910 N918 1.362 . S
C911 C907 1.411 . S
C911 C909 1.420 . S
C911 C916 1.395 . S
C912 C908 1.423 . S
C912 C909 1.351 . S
C912 H924 0.930 . S
C913 C915 1.400 . S
C913 C916 1.386 . S
C913 H925 0.930 . S
N914 C907 1.377 . S
N914 C915 1.321 . S
N914 Eu917 2.609 . S
C915 C913 1.400 . S
C915 N914 1.321 . S
C915 H922 0.930 . S
C916 C911 1.395 . S
C916 C913 1.386 . S
C916 H935 0.930 . S
Eu917 N914 2.609 . S
Eu917 N918 2.657 . S
Eu917 O951 2.380 . S
Eu917 O952 2.432 . S
Eu917 O956 2.558 . S
Eu917 O957 2.612 . S
Eu917 O959 2.339 . S
Eu917 O960 2.563 . S
Eu917 O961 2.419 . S
Eu917 C981 2.848 . S
N918 C910 1.362 . S
N918 Eu917 2.657 . S
N918 C919 1.334 . S
C919 N918 1.334 . S
C919 C921 1.413 . S
C919 H926 0.929 . S
C920 C908 1.392 . S
C920 C921 1.367 . S
C920 H928 0.930 . S
C921 C919 1.413 . S
C921 C920 1.367 . S
C921 H923 0.930 . S
H922 C915 0.930 . S
H923 C921 0.930 . S
H924 C912 0.930 . S
H925 C913 0.930 . S
H926 C919 0.929 . S
H927 C941 0.930 . S
H928 C920 0.930 . S
H929 C947 0.930 . S
H930 C938 0.929 . S
H931 C945 0.930 . S
H932 C909 0.931 . S
H933 C939 0.930 . S
H934 C972 0.930 . S
H935 C916 0.930 . S
H936 C971 0.931 . S
N937 Eu906 2.657 . S
N937 C938 1.334 . S
N937 C942 1.362 . S
C938 H930 0.929 . S
C938 N937 1.334 . S
C938 C941 1.413 . S
C939 H933 0.930 . S
C939 C940 1.392 . S
C939 C941 1.367 . S
C940 C939 1.392 . S
C940 C942 1.420 . S
C940 C972 1.423 . S
C941 H927 0.930 . S
C941 C938 1.413 . S
C941 C939 1.367 . S
C942 N937 1.362 . S
C942 C940 1.420 . S
C942 C946 1.429 . S
H943 C948 0.930 . S
N944 Eu906 2.609 . S
N944 C946 1.377 . S
N944 C947 1.321 . S
C945 H931 0.930 . S
C945 C947 1.400 . S
C945 C948 1.386 . S
C946 C942 1.429 . S
C946 N944 1.377 . S
C946 C949 1.411 . S
C947 H929 0.930 . S
C947 N944 1.321 . S
C947 C945 1.400 . S
C948 H943 0.930 . S
C948 C945 1.386 . S
C948 C949 1.395 . S
C949 C946 1.411 . S
C949 C948 1.395 . S
C949 C971 1.420 . S
O950 Eu906 2.558 . S
O950 C970 1.257 . S
O951 Eu906 2.612 . S
O951 Eu917 2.380 . S
O951 C962 1.276 . S
O952 Eu917 2.432 . S
O952 C969 1.264 . S
O953 Eu906 2.339 . S
O953 C969 1.254 . S
O954 Eu906 2.563 . S
O954 C962 1.235 . S
O955 Eu906 2.419 . S
O955 C970 1.249 . S
O956 Eu917 2.558 . S
O956 C981 1.257 . S
O957 Eu906 2.380 . S
O957 Eu917 2.612 . S
O957 C973 1.276 . S
O958 Eu906 2.432 . S
O958 C980 1.264 . S
O959 Eu917 2.339 . S
O959 C980 1.254 . S
O960 Eu917 2.563 . S
O960 C973 1.235 . S
O961 Eu917 2.419 . S
O961 C981 1.249 . S
C962 O951 1.276 . S
C962 O954 1.235 . S
C963 C965 1.393 . S
C963 C967 1.395 . S
C963 C970 1.492 . S
C964 C965 1.392 . S
C964 C966 1.386 . S
C965 C963 1.393 . S
C965 C964 1.392 . S
C965 H982 0.930 . S
C966 C964 1.386 . S
C966 C968 1.395 . S
C966 H983 0.930 . S
C967 C963 1.395 . S
C967 C968 1.379 . S
C967 H984 0.930 . S
C968 C966 1.395 . S
C968 C967 1.379 . S
C968 H985 0.930 . S
C969 O952 1.264 . S
C969 O953 1.254 . S
C970 Eu906 2.848 . S
C970 O950 1.257 . S
C970 O955 1.249 . S
C970 C963 1.492 . S
C971 H936 0.931 . S
C971 C949 1.420 . S
C971 C972 1.351 . S
C972 H934 0.930 . S
C972 C940 1.423 . S
C972 C971 1.351 . S
C973 O957 1.276 . S
C973 O960 1.235 . S
C974 C975 1.393 . S
C974 C978 1.395 . S
C974 C981 1.492 . S
C975 C974 1.393 . S
C975 C976 1.392 . S
C975 H986 0.930 . S
C976 C975 1.392 . S
C976 C977 1.386 . S
C977 C976 1.386 . S
C977 C979 1.395 . S
C977 H987 0.930 . S
C978 C974 1.395 . S
C978 C979 1.379 . S
C978 H988 0.930 . S
C979 C977 1.395 . S
C979 C978 1.379 . S
C979 H989 0.930 . S
C980 O958 1.264 . S
C980 O959 1.254 . S
C981 Eu917 2.848 . S
C981 O956 1.257 . S
C981 O961 1.249 . S
C981 C974 1.492 . S
H982 C965 0.930 . S
H983 C966 0.930 . S
H984 C967 0.930 . S
H985 C968 0.930 . S
H986 C975 0.930 . S
H987 C977 0.930 . S
H988 C978 0.930 . S
H989 C979 0.930 . S
H990 C998 0.929 . S
H991 C1000 0.930 . S
H992 C1002 0.930 . S
H993 C1005 0.929 . S
H994 C1008 0.930 . S
H995 C1010 0.960 . S
H996 C1010 0.960 . S
H997 C1010 0.960 . S
C998 H990 0.929 . S
C998 C999 1.377 . S
C998 C1000 1.384 . S
C999 C998 1.377 . S
C999 C1005 1.390 . S
C1000 H991 0.930 . S
C1000 C998 1.384 . S
C1000 C1001 1.372 . S
C1001 C1000 1.372 . S
C1001 C1002 1.400 . S
C1001 C1006 1.490 . S
C1002 H992 0.930 . S
C1002 C1001 1.400 . S
C1002 C1005 1.386 . S
H1003 C1019 0.930 . S
H1004 C1020 0.931 . S
C1005 H993 0.929 . S
C1005 C999 1.390 . S
C1005 C1002 1.386 . S
C1006 C1001 1.490 . S
C1006 C1008 1.395 . S
C1006 C1009 1.403 . S
H1007 C1013 0.930 . S
C1008 H994 0.930 . S
C1008 C1006 1.395 . S
C1008 C1011 1.403 . S
C1009 C1006 1.403 . S
C1009 C1010 1.524 . S
C1009 C1013 1.400 . S
C1010 H995 0.960 . S
C1010 H996 0.960 . S
C1010 H997 0.960 . S
C1010 C1009 1.524 . S
C1011 C1008 1.403 . S
C1011 C1012 1.392 . S
C1011 C1015 1.495 . S
C1012 C1011 1.392 . S
C1012 C1013 1.385 . S
C1012 C1014 1.478 . S
C1013 H1007 0.930 . S
C1013 C1009 1.400 . S
C1013 C1012 1.385 . S
C1014 C1012 1.478 . S
C1014 C1016 1.381 . S
C1014 C1020 1.383 . S
C1015 C1011 1.495 . S
C1015 H1021 0.959 . S
C1015 H1022 0.961 . S
C1015 H1023 0.960 . S
C1016 C1014 1.381 . S
C1016 C1017 1.394 . S
C1016 H1024 0.930 . S
C1017 C1016 1.394 . S
C1017 C1018 1.383 . S
C1017 H1025 0.929 . S
C1018 C1017 1.383 . S
C1018 C1019 1.377 . S
C1019 H1003 0.930 . S
C1019 C1018 1.377 . S
C1019 C1020 1.379 . S
C1020 H1004 0.931 . S
C1020 C1014 1.383 . S
C1020 C1019 1.379 . S
H1021 C1015 0.959 . S
H1022 C1015 0.961 . S
H1023 C1015 0.960 . S
H1024 C1016 0.930 . S
H1025 C1017 0.929 . S
H1026 C1034 0.929 . S
H1027 C1036 0.930 . S
H1028 C1038 0.930 . S
H1029 C1041 0.929 . S
H1030 C1044 0.930 . S
H1031 C1046 0.960 . S
H1032 C1046 0.960 . S
H1033 C1046 0.960 . S
C1034 H1026 0.929 . S
C1034 C1035 1.377 . S
C1034 C1036 1.384 . S
C1035 C1034 1.377 . S
C1035 C1041 1.390 . S
C1036 H1027 0.930 . S
C1036 C1034 1.384 . S
C1036 C1037 1.372 . S
C1037 C1036 1.372 . S
C1037 C1038 1.400 . S
C1037 C1042 1.490 . S
C1038 H1028 0.930 . S
C1038 C1037 1.400 . S
C1038 C1041 1.386 . S
H1039 C1055 0.930 . S
H1040 C1056 0.931 . S
C1041 H1029 0.929 . S
C1041 C1035 1.390 . S
C1041 C1038 1.386 . S
C1042 C1037 1.490 . S
C1042 C1044 1.395 . S
C1042 C1045 1.403 . S
H1043 C1049 0.930 . S
C1044 H1030 0.930 . S
C1044 C1042 1.395 . S
C1044 C1047 1.403 . S
C1045 C1042 1.403 . S
C1045 C1046 1.524 . S
C1045 C1049 1.400 . S
C1046 H1031 0.960 . S
C1046 H1032 0.960 . S
C1046 H1033 0.960 . S
C1046 C1045 1.524 . S
C1047 C1044 1.403 . S
C1047 C1048 1.392 . S
C1047 C1051 1.495 . S
C1048 C1047 1.392 . S
C1048 C1049 1.385 . S
C1048 C1050 1.478 . S
C1049 H1043 0.930 . S
C1049 C1045 1.400 . S
C1049 C1048 1.385 . S
C1050 C1048 1.478 . S
C1050 C1052 1.381 . S
C1050 C1056 1.383 . S
C1051 C1047 1.495 . S
C1051 H1057 0.959 . S
C1051 H1058 0.961 . S
C1051 H1059 0.960 . S
C1052 C1050 1.381 . S
C1052 C1053 1.394 . S
C1052 H1060 0.930 . S
C1053 C1052 1.394 . S
C1053 C1054 1.383 . S
C1053 H1061 0.929 . S
C1054 C1053 1.383 . S
C1054 C1055 1.377 . S
C1055 H1039 0.930 . S
C1055 C1054 1.377 . S
C1055 C1056 1.379 . S
C1056 H1040 0.931 . S
C1056 C1050 1.383 . S
C1056 C1055 1.379 . S
H1057 C1051 0.959 . S
H1058 C1051 0.961 . S
H1059 C1051 0.960 . S
H1060 C1052 0.930 . S
H1061 C1053 0.929 . S
H1062 C1070 0.929 . S
H1063 C1072 0.930 . S
H1064 C1074 0.930 . S
H1065 C1077 0.929 . S
H1066 C1080 0.930 . S
H1067 C1082 0.960 . S
H1068 C1082 0.960 . S
H1069 C1082 0.960 . S
C1070 H1062 0.929 . S
C1070 C1071 1.377 . S
C1070 C1072 1.384 . S
C1071 C1070 1.377 . S
C1071 C1077 1.390 . S
C1072 H1063 0.930 . S
C1072 C1070 1.384 . S
C1072 C1073 1.372 . S
C1073 C1072 1.372 . S
C1073 C1074 1.400 . S
C1073 C1078 1.490 . S
C1074 H1064 0.930 . S
C1074 C1073 1.400 . S
C1074 C1077 1.386 . S
H1075 C1091 0.930 . S
H1076 C1092 0.931 . S
C1077 H1065 0.929 . S
C1077 C1071 1.390 . S
C1077 C1074 1.386 . S
C1078 C1073 1.490 . S
C1078 C1080 1.395 . S
C1078 C1081 1.403 . S
H1079 C1085 0.930 . S
C1080 H1066 0.930 . S
C1080 C1078 1.395 . S
C1080 C1083 1.403 . S
C1081 C1078 1.403 . S
C1081 C1082 1.524 . S
C1081 C1085 1.400 . S
C1082 H1067 0.960 . S
C1082 H1068 0.960 . S
C1082 H1069 0.960 . S
C1082 C1081 1.524 . S
C1083 C1080 1.403 . S
C1083 C1084 1.392 . S
C1083 C1087 1.495 . S
C1084 C1083 1.392 . S
C1084 C1085 1.385 . S
C1084 C1086 1.478 . S
C1085 H1079 0.930 . S
C1085 C1081 1.400 . S
C1085 C1084 1.385 . S
C1086 C1084 1.478 . S
C1086 C1088 1.381 . S
C1086 C1092 1.383 . S
C1087 C1083 1.495 . S
C1087 H1093 0.959 . S
C1087 H1094 0.961 . S
C1087 H1095 0.960 . S
C1088 C1086 1.381 . S
C1088 C1089 1.394 . S
C1088 H1096 0.930 . S
C1089 C1088 1.394 . S
C1089 C1090 1.383 . S
C1089 H1097 0.929 . S
C1090 C1089 1.383 . S
C1090 C1091 1.377 . S
C1091 H1075 0.930 . S
C1091 C1090 1.377 . S
C1091 C1092 1.379 . S
C1092 H1076 0.931 . S
C1092 C1086 1.383 . S
C1092 C1091 1.379 . S
H1093 C1087 0.959 . S
H1094 C1087 0.961 . S
H1095 C1087 0.960 . S
H1096 C1088 0.930 . S
H1097 C1089 0.929 . S
H1098 C1106 0.929 . S
H1099 C1108 0.930 . S
H1100 C1110 0.930 . S
H1101 C1113 0.929 . S
H1102 C1116 0.930 . S
H1103 C1118 0.960 . S
H1104 C1118 0.960 . S
H1105 C1118 0.960 . S
C1106 H1098 0.929 . S
C1106 C1107 1.377 . S
C1106 C1108 1.384 . S
C1107 C1106 1.377 . S
C1107 C1113 1.390 . S
C1108 H1099 0.930 . S
C1108 C1106 1.384 . S
C1108 C1109 1.372 . S
C1109 C1108 1.372 . S
C1109 C1110 1.400 . S
C1109 C1114 1.490 . S
C1110 H1100 0.930 . S
C1110 C1109 1.400 . S
C1110 C1113 1.386 . S
H1111 C1127 0.930 . S
H1112 C1128 0.938 . S
C1113 H1101 0.929 . S
C1113 C1107 1.390 . S
C1113 C1110 1.386 . S
C1114 C1109 1.490 . S
C1114 C1116 1.395 . S
C1114 C1117 1.403 . S
H1115 C1121 0.930 . S
C1116 H1102 0.930 . S
C1116 C1114 1.395 . S
C1116 C1119 1.403 . S
C1117 C1114 1.403 . S
C1117 C1118 1.524 . S
C1117 C1121 1.400 . S
C1118 H1103 0.960 . S
C1118 H1104 0.960 . S
C1118 H1105 0.960 . S
C1118 C1117 1.524 . S
C1119 C1116 1.403 . S
C1119 C1120 1.392 . S
C1119 C1123 1.495 . S
C1120 C1119 1.392 . S
C1120 C1121 1.385 . S
C1120 C1122 1.478 . S
C1121 H1115 0.930 . S
C1121 C1117 1.400 . S
C1121 C1120 1.385 . S
C1122 C1120 1.478 . S
C1122 C1124 1.381 . S
C1122 C1128 1.372 1_556 S
C1123 C1119 1.495 . S
C1123 H1129 0.963 . S
C1123 H1130 0.961 1_556 S
C1123 H1131 0.960 . S
C1124 C1122 1.381 . S
C1124 C1125 1.394 . S
C1124 H1132 0.930 . S
C1125 C1124 1.394 . S
C1125 C1126 1.383 . S
C1125 H1133 0.929 . S
C1126 C1125 1.383 . S
C1126 C1127 1.377 1_556 S
C1127 H1111 0.930 . S
C1127 C1126 1.377 1_554 S
C1127 C1128 1.384 . S
C1128 H1112 0.938 . S
C1128 C1122 1.372 1_554 S
C1128 C1127 1.384 . S
H1129 C1123 0.963 . S
H1130 C1123 0.961 1_554 S
H1131 C1123 0.960 . S
H1132 C1124 0.930 . S
H1133 C1125 0.929 . S
H1134 C1142 0.929 . S
H1135 C1144 0.930 . S
H1136 C1146 0.930 . S
H1137 C1149 0.929 . S
H1138 C1152 0.930 . S
H1139 C1154 0.960 . S
H1140 C1154 0.960 . S
H1141 C1154 0.960 . S
C1142 H1134 0.929 . S
C1142 C1143 1.377 . S
C1142 C1144 1.384 . S
C1143 C1142 1.377 . S
C1143 C1149 1.390 . S
C1144 H1135 0.930 . S
C1144 C1142 1.384 . S
C1144 C1145 1.372 . S
C1145 C1144 1.372 . S
C1145 C1146 1.400 . S
C1145 C1150 1.490 . S
C1146 H1136 0.930 . S
C1146 C1145 1.400 . S
C1146 C1149 1.386 . S
H1147 C1163 0.930 . S
H1148 C1164 0.931 . S
C1149 H1137 0.929 . S
C1149 C1143 1.390 . S
C1149 C1146 1.386 . S
C1150 C1145 1.490 . S
C1150 C1152 1.395 . S
C1150 C1153 1.403 . S
H1151 C1157 0.930 . S
C1152 H1138 0.930 . S
C1152 C1150 1.395 . S
C1152 C1155 1.403 . S
C1153 C1150 1.403 . S
C1153 C1154 1.524 . S
C1153 C1157 1.400 . S
C1154 H1139 0.960 . S
C1154 H1140 0.960 . S
C1154 H1141 0.960 . S
C1154 C1153 1.524 . S
C1155 C1152 1.403 . S
C1155 C1156 1.392 . S
C1155 C1159 1.495 1_556 S
C1156 C1155 1.392 . S
C1156 C1157 1.385 . S
C1156 C1158 1.478 . S
C1157 H1151 0.930 . S
C1157 C1153 1.400 . S
C1157 C1156 1.385 . S
C1158 C1156 1.478 . S
C1158 C1160 1.381 1_556 S
C1158 C1164 1.383 . S
C1159 C1155 1.495 1_554 S
C1159 H1165 0.959 . S
C1159 H1166 0.961 . S
C1159 H1167 0.960 . S
C1160 C1158 1.381 1_554 S
C1160 C1161 1.394 . S
C1160 H1168 0.930 . S
C1161 C1160 1.394 . S
C1161 C1162 1.352 1_554 S
C1161 H1169 0.929 . S
C1162 C1161 1.352 1_556 S
C1162 C1163 1.425 . S
C1163 H1147 0.930 . S
C1163 C1162 1.425 . S
C1163 C1164 1.379 . S
C1164 H1148 0.931 . S
C1164 C1158 1.383 . S
C1164 C1163 1.379 . S
H1165 C1159 0.959 . S
H1166 C1159 0.961 . S
H1167 C1159 0.960 . S
H1168 C1160 0.930 . S
H1169 C1161 0.929 . S
H1170 C1178 0.929 . S
H1171 C1180 0.930 . S
H1172 C1182 0.930 . S
H1173 C1185 0.929 . S
H1174 C1188 0.930 . S
H1175 C1190 0.960 . S
H1176 C1190 0.960 . S
H1177 C1190 0.960 . S
C1178 H1170 0.929 . S
C1178 C1179 1.377 . S
C1178 C1180 1.384 . S
C1179 C1178 1.377 . S
C1179 C1185 1.390 . S
C1180 H1171 0.930 . S
C1180 C1178 1.384 . S
C1180 C1181 1.372 . S
C1181 C1180 1.372 . S
C1181 C1182 1.400 . S
C1181 C1186 1.490 . S
C1182 H1172 0.930 . S
C1182 C1181 1.400 . S
C1182 C1185 1.386 . S
H1183 C1199 0.930 . S
H1184 C1200 0.931 . S
C1185 H1173 0.929 . S
C1185 C1179 1.390 . S
C1185 C1182 1.386 . S
C1186 C1181 1.490 . S
C1186 C1188 1.395 . S
C1186 C1189 1.403 . S
H1187 C1193 0.930 . S
C1188 H1174 0.930 . S
C1188 C1186 1.395 . S
C1188 C1191 1.403 . S
C1189 C1186 1.403 . S
C1189 C1190 1.524 . S
C1189 C1193 1.400 . S
C1190 H1175 0.960 . S
C1190 H1176 0.960 . S
C1190 H1177 0.960 . S
C1190 C1189 1.524 . S
C1191 C1188 1.403 . S
C1191 C1192 1.392 . S
C1191 C1195 1.495 . S
C1192 C1191 1.392 . S
C1192 C1193 1.385 . S
C1192 C1194 1.478 . S
C1193 H1187 0.930 . S
C1193 C1189 1.400 . S
C1193 C1192 1.385 . S
C1194 C1192 1.478 . S
C1194 C1196 1.381 . S
C1194 C1200 1.383 1_556 S
C1195 C1191 1.495 . S
C1195 H1201 0.959 . S
C1195 H1202 0.961 1_556 S
C1195 H1203 0.960 . S
C1196 C1194 1.381 . S
C1196 C1197 1.394 . S
C1196 H1204 0.930 . S
C1197 C1196 1.394 . S
C1197 C1198 1.388 . S
C1197 H1205 0.929 . S
C1198 C1197 1.388 . S
C1198 C1199 1.374 1_556 S
C1199 H1183 0.930 . S
C1199 C1198 1.374 1_554 S
C1199 C1200 1.379 . S
C1200 H1184 0.931 . S
C1200 C1194 1.383 1_554 S
C1200 C1199 1.379 . S
H1201 C1195 0.959 . S
H1202 C1195 0.961 1_554 S
H1203 C1195 0.960 . S
H1204 C1196 0.930 . S
H1205 C1197 0.929 . S
H1206 C1214 0.929 . S
H1207 C1216 0.930 . S
H1208 C1218 0.930 . S
H1209 C1221 0.929 . S
H1210 C1224 0.974 . S
H1211 C1226 0.960 . S
H1212 C1226 0.960 . S
H1213 C1226 0.960 . S
C1214 H1206 0.929 . S
C1214 C1215 1.377 . S
C1214 C1216 1.384 . S
C1215 C1214 1.377 . S
C1215 C1221 1.390 . S
C1216 H1207 0.930 . S
C1216 C1214 1.384 . S
C1216 C1217 1.372 . S
C1217 C1216 1.372 . S
C1217 C1218 1.400 . S
C1217 C1222 1.490 . S
C1218 H1208 0.930 . S
C1218 C1217 1.400 . S
C1218 C1221 1.386 . S
H1219 C1235 0.934 . S
H1220 C1236 0.931 . S
C1221 H1209 0.929 . S
C1221 C1215 1.390 . S
C1221 C1218 1.386 . S
C1222 C1217 1.490 . S
C1222 C1224 1.395 . S
C1222 C1225 1.403 . S
H1223 C1229 0.930 . S
C1224 H1210 0.974 . S
C1224 C1222 1.395 . S
C1224 C1227 1.403 . S
C1225 C1222 1.403 . S
C1225 C1226 1.524 . S
C1225 C1229 1.400 . S
C1226 H1211 0.960 . S
C1226 H1212 0.960 . S
C1226 H1213 0.960 . S
C1226 C1225 1.524 . S
C1227 C1224 1.403 . S
C1227 C1228 1.392 . S
C1227 C1231 1.495 1_556 S
C1228 C1227 1.392 . S
C1228 C1229 1.385 . S
C1228 C1230 1.478 . S
C1229 H1223 0.930 . S
C1229 C1225 1.400 . S
C1229 C1228 1.385 . S
C1230 C1228 1.478 . S
C1230 C1232 1.381 . S
C1230 C1236 1.383 . S
C1231 C1227 1.495 1_554 S
C1231 H1237 0.959 . S
C1231 H1238 0.961 . S
C1231 H1239 0.960 . S
C1232 C1230 1.381 . S
C1232 C1233 1.394 . S
C1232 H1240 0.930 . S
C1233 C1232 1.394 . S
C1233 C1234 1.391 . S
C1233 H1241 0.929 . S
C1234 C1233 1.391 . S
C1234 C1235 1.382 . S
C1235 H1219 0.934 . S
C1235 C1234 1.382 . S
C1235 C1236 1.379 . S
C1236 H1220 0.931 . S
C1236 C1230 1.383 . S
C1236 C1235 1.379 . S
H1237 C1231 0.959 . S
H1238 C1231 0.961 . S
H1239 C1231 0.960 . S
H1240 C1232 0.930 . S
H1241 C1233 0.929 . S
H1242 C1250 0.929 . S
H1243 C1252 0.930 . S
H1244 C1254 0.930 . S
H1245 C1257 0.929 . S
H1246 C1260 0.930 . S
H1247 C1262 0.960 . S
H1248 C1262 0.960 . S
H1249 C1262 0.960 . S
C1250 H1242 0.929 . S
C1250 C1251 1.377 . S
C1250 C1252 1.384 . S
C1251 C1250 1.377 . S
C1251 C1257 1.390 . S
C1252 H1243 0.930 . S
C1252 C1250 1.384 . S
C1252 C1253 1.372 . S
C1253 C1252 1.372 . S
C1253 C1254 1.400 . S
C1253 C1258 1.490 . S
C1254 H1244 0.930 . S
C1254 C1253 1.400 . S
C1254 C1257 1.386 . S
H1255 C1271 0.930 . S
H1256 C1272 0.959 . S
C1257 H1245 0.929 . S
C1257 C1251 1.390 . S
C1257 C1254 1.386 . S
C1258 C1253 1.490 . S
C1258 C1260 1.395 . S
C1258 C1261 1.403 . S
H1259 C1265 0.930 . S
C1260 H1246 0.930 . S
C1260 C1258 1.395 . S
C1260 C1263 1.403 . S
C1261 C1258 1.403 . S
C1261 C1262 1.524 . S
C1261 C1265 1.400 . S
C1262 H1247 0.960 . S
C1262 H1248 0.960 . S
C1262 H1249 0.960 . S
C1262 C1261 1.524 . S
C1263 C1260 1.403 . S
C1263 C1264 1.392 . S
C1263 C1267 1.495 . S
C1264 C1263 1.392 . S
C1264 C1265 1.385 . S
C1264 C1266 1.478 . S
C1265 H1259 0.930 . S
C1265 C1261 1.400 . S
C1265 C1264 1.385 . S
C1266 C1264 1.478 . S
C1266 C1268 1.381 . S
C1266 C1272 1.343 1_556 S
C1267 C1263 1.495 . S
C1267 H1273 0.959 . S
C1267 H1274 0.961 1_556 S
C1267 H1275 0.960 . S
C1268 C1266 1.381 . S
C1268 C1269 1.394 . S
C1268 H1276 0.930 . S
C1269 C1268 1.394 . S
C1269 C1270 1.383 . S
C1269 H1277 0.929 . S
C1270 C1269 1.383 . S
C1270 C1271 1.377 1_556 S
C1271 H1255 0.930 . S
C1271 C1270 1.377 1_554 S
C1271 C1272 1.394 . S
C1272 H1256 0.959 . S
C1272 C1266 1.343 1_554 S
C1272 C1271 1.394 . S
H1273 C1267 0.959 . S
H1274 C1267 0.961 1_554 S
H1275 C1267 0.960 . S
H1276 C1268 0.930 . S
H1277 C1269 0.929 . S
H1278 C1286 0.929 . S
H1279 C1288 0.930 . S
H1280 C1290 0.930 . S
H1281 C1293 0.929 . S
H1282 C1296 0.950 . S
H1283 C1298 0.960 . S
H1284 C1298 0.960 . S
H1285 C1298 0.960 . S
C1286 H1278 0.929 . S
C1286 C1287 1.377 . S
C1286 C1288 1.384 . S
C1287 C1286 1.377 . S
C1287 C1293 1.390 . S
C1288 H1279 0.930 . S
C1288 C1286 1.384 . S
C1288 C1289 1.372 . S
C1289 C1288 1.372 . S
C1289 C1290 1.400 . S
C1289 C1294 1.490 . S
C1290 H1280 0.930 . S
C1290 C1289 1.400 . S
C1290 C1293 1.386 . S
H1291 C1307 0.930 . S
H1292 C1308 0.931 . S
C1293 H1281 0.929 . S
C1293 C1287 1.390 . S
C1293 C1290 1.386 . S
C1294 C1289 1.490 . S
C1294 C1296 1.395 . S
C1294 C1297 1.403 . S
H1295 C1301 0.930 . S
C1296 H1282 0.950 . S
C1296 C1294 1.395 . S
C1296 C1299 1.403 . S
C1297 C1294 1.403 . S
C1297 C1298 1.524 . S
C1297 C1301 1.400 . S
C1298 H1283 0.960 . S
C1298 H1284 0.960 . S
C1298 H1285 0.960 . S
C1298 C1297 1.524 . S
C1299 C1296 1.403 . S
C1299 C1300 1.392 . S
C1299 C1303 1.495 1_556 S
C1300 C1299 1.392 . S
C1300 C1301 1.385 . S
C1300 C1302 1.478 . S
C1301 H1295 0.930 . S
C1301 C1297 1.400 . S
C1301 C1300 1.385 . S
C1302 C1300 1.478 . S
C1302 C1304 1.381 1_556 S
C1302 C1308 1.383 . S
C1303 C1299 1.495 1_554 S
C1303 H1309 0.959 . S
C1303 H1310 0.961 . S
C1303 H1311 0.960 . S
C1304 C1302 1.381 1_554 S
C1304 C1305 1.394 . S
C1304 H1312 0.930 . S
C1305 C1304 1.394 . S
C1305 C1306 1.405 . S
C1305 H1313 0.929 . S
C1306 C1305 1.405 . S
C1306 C1307 1.350 1_554 S
C1307 H1291 0.930 . S
C1307 C1306 1.350 1_556 S
C1307 C1308 1.379 . S
C1308 H1292 0.931 . S
C1308 C1302 1.383 . S
C1308 C1307 1.379 . S
H1309 C1303 0.959 . S
H1310 C1303 0.961 . S
H1311 C1303 0.960 . S
H1312 C1304 0.930 . S
H1313 C1305 0.929 . S
H1314 C1322 0.929 . S
H1315 C1324 0.930 . S
H1316 C1326 0.930 . S
H1317 C1329 0.929 . S
H1318 C1332 0.930 . S
H1319 C1334 0.960 . S
H1320 C1334 0.960 . S
H1321 C1334 0.960 . S
C1322 H1314 0.929 . S
C1322 C1323 1.377 . S
C1322 C1324 1.384 . S
C1323 C1322 1.377 . S
C1323 C1329 1.390 . S
C1324 H1315 0.930 . S
C1324 C1322 1.384 . S
C1324 C1325 1.372 . S
C1325 C1324 1.372 . S
C1325 C1326 1.400 . S
C1325 C1330 1.490 . S
C1326 H1316 0.930 . S
C1326 C1325 1.400 . S
C1326 C1329 1.386 . S
H1327 C1343 0.930 . S
H1328 C1344 0.931 . S
C1329 H1317 0.929 . S
C1329 C1323 1.390 . S
C1329 C1326 1.386 . S
C1330 C1325 1.490 . S
C1330 C1332 1.395 . S
C1330 C1333 1.403 . S
H1331 C1337 0.930 . S
C1332 H1318 0.930 . S
C1332 C1330 1.395 . S
C1332 C1335 1.403 . S
C1333 C1330 1.403 . S
C1333 C1334 1.524 . S
C1333 C1337 1.400 . S
C1334 H1319 0.960 . S
C1334 H1320 0.960 . S
C1334 H1321 0.960 . S
C1334 C1333 1.524 . S
C1335 C1332 1.403 . S
C1335 C1336 1.392 . S
C1335 C1339 1.495 . S
C1336 C1335 1.392 . S
C1336 C1337 1.385 . S
C1336 C1338 1.478 . S
C1337 H1331 0.930 . S
C1337 C1333 1.400 . S
C1337 C1336 1.385 . S
C1338 C1336 1.478 . S
C1338 C1340 1.381 . S
C1338 C1344 1.383 . S
C1339 C1335 1.495 . S
C1339 H1345 0.959 . S
C1339 H1346 0.961 . S
C1339 H1347 0.960 . S
C1340 C1338 1.381 . S
C1340 C1341 1.394 . S
C1340 H1348 0.930 . S
C1341 C1340 1.394 . S
C1341 C1342 1.383 . S
C1341 H1349 0.929 . S
C1342 C1341 1.383 . S
C1342 C1343 1.377 . S
C1343 H1327 0.930 . S
C1343 C1342 1.377 . S
C1343 C1344 1.379 . S
C1344 H1328 0.931 . S
C1344 C1338 1.383 . S
C1344 C1343 1.379 . S
H1345 C1339 0.959 . S
H1346 C1339 0.961 . S
H1347 C1339 0.960 . S
H1348 C1340 0.930 . S
H1349 C1341 0.929 . S
H1350 C1358 0.929 . S
H1351 C1360 0.930 . S
H1352 C1362 0.930 . S
H1353 C1365 0.929 . S
H1354 C1368 0.930 . S
H1355 C1370 0.960 . S
H1356 C1370 0.960 . S
H1357 C1370 0.960 . S
C1358 H1350 0.929 . S
C1358 C1359 1.377 . S
C1358 C1360 1.384 . S
C1359 C1358 1.377 . S
C1359 C1365 1.390 . S
C1360 H1351 0.930 . S
C1360 C1358 1.384 . S
C1360 C1361 1.372 . S
C1361 C1360 1.372 . S
C1361 C1362 1.400 . S
C1361 C1366 1.490 . S
C1362 H1352 0.930 . S
C1362 C1361 1.400 . S
C1362 C1365 1.386 . S
H1363 C1379 0.930 . S
H1364 C1380 0.931 . S
C1365 H1353 0.929 . S
C1365 C1359 1.390 . S
C1365 C1362 1.386 . S
C1366 C1361 1.490 . S
C1366 C1368 1.395 . S
C1366 C1369 1.403 . S
H1367 C1373 0.930 . S
C1368 H1354 0.930 . S
C1368 C1366 1.395 . S
C1368 C1371 1.403 . S
C1369 C1366 1.403 . S
C1369 C1370 1.524 . S
C1369 C1373 1.400 . S
C1370 H1355 0.960 . S
C1370 H1356 0.960 . S
C1370 H1357 0.960 . S
C1370 C1369 1.524 . S
C1371 C1368 1.403 . S
C1371 C1372 1.392 . S
C1371 C1375 1.495 . S
C1372 C1371 1.392 . S
C1372 C1373 1.385 . S
C1372 C1374 1.478 . S
C1373 H1367 0.930 . S
C1373 C1369 1.400 . S
C1373 C1372 1.385 . S
C1374 C1372 1.478 . S
C1374 C1376 1.381 . S
C1374 C1380 1.383 . S
C1375 C1371 1.495 . S
C1375 H1381 0.959 . S
C1375 H1382 0.961 . S
C1375 H1383 0.960 . S
C1376 C1374 1.381 . S
C1376 C1377 1.394 . S
C1376 H1384 0.930 . S
C1377 C1376 1.394 . S
C1377 C1378 1.383 . S
C1377 H1385 0.929 . S
C1378 C1377 1.383 . S
C1378 C1379 1.377 . S
C1379 H1363 0.930 . S
C1379 C1378 1.377 . S
C1379 C1380 1.379 . S
C1380 H1364 0.931 . S
C1380 C1374 1.383 . S
C1380 C1379 1.379 . S
H1381 C1375 0.959 . S
H1382 C1375 0.961 . S
H1383 C1375 0.960 . S
H1384 C1376 0.930 . S
H1385 C1377 0.929 . S
H1386 C1394 0.929 . S
H1387 C1396 0.930 . S
H1388 C1398 0.930 . S
H1389 C1401 0.929 . S
H1390 C1404 0.930 . S
H1391 C1406 0.960 . S
H1392 C1406 0.960 . S
H1393 C1406 0.960 . S
C1394 H1386 0.929 . S
C1394 C1395 1.377 . S
C1394 C1396 1.384 . S
C1395 C1394 1.377 . S
C1395 C1401 1.390 . S
C1396 H1387 0.930 . S
C1396 C1394 1.384 . S
C1396 C1397 1.372 . S
C1397 C1396 1.372 . S
C1397 C1398 1.400 . S
C1397 C1402 1.490 . S
C1398 H1388 0.930 . S
C1398 C1397 1.400 . S
C1398 C1401 1.386 . S
H1399 C1415 0.930 . S
H1400 C1416 0.931 . S
C1401 H1389 0.929 . S
C1401 C1395 1.390 . S
C1401 C1398 1.386 . S
C1402 C1397 1.490 . S
C1402 C1404 1.395 . S
C1402 C1405 1.403 . S
H1403 C1409 0.930 . S
C1404 H1390 0.930 . S
C1404 C1402 1.395 . S
C1404 C1407 1.403 . S
C1405 C1402 1.403 . S
C1405 C1406 1.524 . S
C1405 C1409 1.400 . S
C1406 H1391 0.960 . S
C1406 H1392 0.960 . S
C1406 H1393 0.960 . S
C1406 C1405 1.524 . S
C1407 C1404 1.403 . S
C1407 C1408 1.392 . S
C1407 C1411 1.495 . S
C1408 C1407 1.392 . S
C1408 C1409 1.385 . S
C1408 C1410 1.478 . S
C1409 H1403 0.930 . S
C1409 C1405 1.400 . S
C1409 C1408 1.385 . S
C1410 C1408 1.478 . S
C1410 C1412 1.381 . S
C1410 C1416 1.383 . S
C1411 C1407 1.495 . S
C1411 H1417 0.959 . S
C1411 H1418 0.961 . S
C1411 H1419 0.960 . S
C1412 C1410 1.381 . S
C1412 C1413 1.394 . S
C1412 H1420 0.930 . S
C1413 C1412 1.394 . S
C1413 C1414 1.383 . S
C1413 H1421 0.929 . S
C1414 C1413 1.383 . S
C1414 C1415 1.377 . S
C1415 H1399 0.930 . S
C1415 C1414 1.377 . S
C1415 C1416 1.379 . S
C1416 H1400 0.931 . S
C1416 C1410 1.383 . S
C1416 C1415 1.379 . S
H1417 C1411 0.959 . S
H1418 C1411 0.961 . S
H1419 C1411 0.960 . S
H1420 C1412 0.930 . S
H1421 C1413 0.929 . S
H1422 C1430 0.929 . S
H1423 C1432 0.930 . S
H1424 C1434 0.930 . S
H1425 C1437 0.929 . S
H1426 C1440 0.930 . S
H1427 C1442 0.960 . S
H1428 C1442 0.960 . S
H1429 C1442 0.960 . S
C1430 H1422 0.929 . S
C1430 C1431 1.377 . S
C1430 C1432 1.384 . S
C1431 C1430 1.377 . S
C1431 C1437 1.390 . S
C1432 H1423 0.930 . S
C1432 C1430 1.384 . S
C1432 C1433 1.372 . S
C1433 C1432 1.372 . S
C1433 C1434 1.400 . S
C1433 C1438 1.490 . S
C1434 H1424 0.930 . S
C1434 C1433 1.400 . S
C1434 C1437 1.386 . S
H1435 C1451 0.930 . S
H1436 C1452 0.931 . S
C1437 H1425 0.929 . S
C1437 C1431 1.390 . S
C1437 C1434 1.386 . S
C1438 C1433 1.490 . S
C1438 C1440 1.395 . S
C1438 C1441 1.403 1_655 S
H1439 C1445 0.930 . S
C1440 H1426 0.930 . S
C1440 C1438 1.395 . S
C1440 C1443 1.403 1_655 S
C1441 C1438 1.403 1_455 S
C1441 C1442 1.524 . S
C1441 C1445 1.400 . S
C1442 H1427 0.960 . S
C1442 H1428 0.960 . S
C1442 H1429 0.960 . S
C1442 C1441 1.524 . S
C1443 C1440 1.403 1_455 S
C1443 C1444 1.392 . S
C1443 C1447 1.495 . S
C1444 C1443 1.392 . S
C1444 C1445 1.385 . S
C1444 C1446 1.478 . S
C1445 H1439 0.930 . S
C1445 C1441 1.400 . S
C1445 C1444 1.385 . S
C1446 C1444 1.478 . S
C1446 C1448 1.381 . S
C1446 C1452 1.383 . S
C1447 C1443 1.495 . S
C1447 H1453 0.959 1_455 S
C1447 H1454 0.961 . S
C1447 H1455 0.960 . S
C1448 C1446 1.381 . S
C1448 C1449 1.394 . S
C1448 H1456 0.930 . S
C1449 C1448 1.394 . S
C1449 C1450 1.383 . S
C1449 H1457 0.929 . S
C1450 C1449 1.383 . S
C1450 C1451 1.377 . S
C1451 H1435 0.930 . S
C1451 C1450 1.377 . S
C1451 C1452 1.379 . S
C1452 H1436 0.931 . S
C1452 C1446 1.383 . S
C1452 C1451 1.379 . S
H1453 C1447 0.959 1_655 S
H1454 C1447 0.961 . S
H1455 C1447 0.960 . S
H1456 C1448 0.930 . S
H1457 C1449 0.929 . S
H1458 C1466 0.929 . S
H1459 C1468 0.930 . S
H1460 C1470 0.930 . S
H1461 C1473 0.929 . S
H1462 C1476 0.930 . S
H1463 C1478 0.960 . S
H1464 C1478 0.960 . S
H1465 C1478 0.960 . S
C1466 H1458 0.929 . S
C1466 C1467 1.377 . S
C1466 C1468 1.384 . S
C1467 C1466 1.377 . S
C1467 C1473 1.390 . S
C1468 H1459 0.930 . S
C1468 C1466 1.384 . S
C1468 C1469 1.372 . S
C1469 C1468 1.372 . S
C1469 C1470 1.400 . S
C1469 C1474 1.490 . S
C1470 H1460 0.930 . S
C1470 C1469 1.400 . S
C1470 C1473 1.386 . S
H1471 C1487 0.930 . S
H1472 C1488 0.931 . S
C1473 H1461 0.929 . S
C1473 C1467 1.390 . S
C1473 C1470 1.386 . S
C1474 C1469 1.490 . S
C1474 C1476 1.395 . S
C1474 C1477 1.403 . S
H1475 C1481 0.930 . S
C1476 H1462 0.930 . S
C1476 C1474 1.395 . S
C1476 C1479 1.403 . S
C1477 C1474 1.403 . S
C1477 C1478 1.524 . S
C1477 C1481 1.400 . S
C1478 H1463 0.960 . S
C1478 H1464 0.960 . S
C1478 H1465 0.960 . S
C1478 C1477 1.524 . S
C1479 C1476 1.403 . S
C1479 C1480 1.392 . S
C1479 C1483 1.495 . S
C1480 C1479 1.392 . S
C1480 C1481 1.385 . S
C1480 C1482 1.478 . S
C1481 H1475 0.930 . S
C1481 C1477 1.400 . S
C1481 C1480 1.385 . S
C1482 C1480 1.478 . S
C1482 C1484 1.381 . S
C1482 C1488 1.383 . S
C1483 C1479 1.495 . S
C1483 H1489 0.959 . S
C1483 H1490 0.961 . S
C1483 H1491 0.960 . S
C1484 C1482 1.381 . S
C1484 C1485 1.394 . S
C1484 H1492 0.930 . S
C1485 C1484 1.394 . S
C1485 C1486 1.383 . S
C1485 H1493 0.929 . S
C1486 C1485 1.383 . S
C1486 C1487 1.377 . S
C1487 H1471 0.930 . S
C1487 C1486 1.377 . S
C1487 C1488 1.379 . S
C1488 H1472 0.931 . S
C1488 C1482 1.383 . S
C1488 C1487 1.379 . S
H1489 C1483 0.959 . S
H1490 C1483 0.961 . S
H1491 C1483 0.960 . S
H1492 C1484 0.930 . S
H1493 C1485 0.929 . S
H1494 C1502 0.929 . S
H1495 C1504 0.930 . S
H1496 C1506 0.930 . S
H1497 C1509 0.929 . S
H1498 C1512 0.930 . S
H1499 C1514 0.960 . S
H1500 C1514 0.960 . S
H1501 C1514 0.960 . S
C1502 H1494 0.929 . S
C1502 C1503 1.377 . S
C1502 C1504 1.384 . S
C1503 C1502 1.377 . S
C1503 C1509 1.390 . S
C1504 H1495 0.930 . S
C1504 C1502 1.384 . S
C1504 C1505 1.372 . S
C1505 C1504 1.372 . S
C1505 C1506 1.400 . S
C1505 C1510 1.490 . S
C1506 H1496 0.930 . S
C1506 C1505 1.400 . S
C1506 C1509 1.386 . S
H1507 C1523 0.930 . S
H1508 C1524 0.931 . S
C1509 H1497 0.929 . S
C1509 C1503 1.390 . S
C1509 C1506 1.386 . S
C1510 C1505 1.490 . S
C1510 C1512 1.395 . S
C1510 C1513 1.403 . S
H1511 C1517 0.942 . S
C1512 H1498 0.930 . S
C1512 C1510 1.395 . S
C1512 C1515 1.403 1_545 S
C1513 C1510 1.403 . S
C1513 C1514 1.524 . S
C1513 C1517 1.374 1_545 S
C1514 H1499 0.960 . S
C1514 H1500 0.960 . S
C1514 H1501 0.960 . S
C1514 C1513 1.524 . S
C1515 C1512 1.403 1_565 S
C1515 C1516 1.392 . S
C1515 C1519 1.495 . S
C1516 C1515 1.392 . S
C1516 C1517 1.400 . S
C1516 C1518 1.478 . S
C1517 H1511 0.942 . S
C1517 C1513 1.374 1_565 S
C1517 C1516 1.400 . S
C1518 C1516 1.478 . S
C1518 C1520 1.381 . S
C1518 C1524 1.383 . S
C1519 C1515 1.495 . S
C1519 H1525 0.959 . S
C1519 H1526 0.961 . S
C1519 H1527 0.960 . S
C1520 C1518 1.381 . S
C1520 C1521 1.394 . S
C1520 H1528 0.930 . S
C1521 C1520 1.394 . S
C1521 C1522 1.383 . S
C1521 H1529 0.929 . S
C1522 C1521 1.383 . S
C1522 C1523 1.377 . S
C1523 H1507 0.930 . S
C1523 C1522 1.377 . S
C1523 C1524 1.379 . S
C1524 H1508 0.931 . S
C1524 C1518 1.383 . S
C1524 C1523 1.379 . S
H1525 C1519 0.959 . S
H1526 C1519 0.961 . S
H1527 C1519 0.960 . S
H1528 C1520 0.930 . S
H1529 C1521 0.929 . S
H1530 C1538 0.929 . S
H1531 C1540 0.930 . S
H1532 C1542 0.930 . S
H1533 C1545 0.929 . S
H1534 C1548 0.930 . S
H1535 C1550 0.960 . S
H1536 C1550 0.960 . S
H1537 C1550 0.960 . S
C1538 H1530 0.929 . S
C1538 C1539 1.377 . S
C1538 C1540 1.384 . S
C1539 C1538 1.377 . S
C1539 C1545 1.390 . S
C1540 H1531 0.930 . S
C1540 C1538 1.384 . S
C1540 C1541 1.372 . S
C1541 C1540 1.372 . S
C1541 C1542 1.400 . S
C1541 C1546 1.490 . S
C1542 H1532 0.930 . S
C1542 C1541 1.400 . S
C1542 C1545 1.386 . S
H1543 C1559 0.930 . S
H1544 C1560 0.931 . S
C1545 H1533 0.929 . S
C1545 C1539 1.390 . S
C1545 C1542 1.386 . S
C1546 C1541 1.490 . S
C1546 C1548 1.395 . S
C1546 C1549 1.403 . S
H1547 C1553 0.930 . S
C1548 H1534 0.930 . S
C1548 C1546 1.395 . S
C1548 C1551 1.403 . S
C1549 C1546 1.403 . S
C1549 C1550 1.524 . S
C1549 C1553 1.400 . S
C1550 H1535 0.960 . S
C1550 H1536 0.960 . S
C1550 H1537 0.960 . S
C1550 C1549 1.524 . S
C1551 C1548 1.403 . S
C1551 C1552 1.392 . S
C1551 C1555 1.495 . S
C1552 C1551 1.392 . S
C1552 C1553 1.385 . S
C1552 C1554 1.478 . S
C1553 H1547 0.930 . S
C1553 C1549 1.400 . S
C1553 C1552 1.385 . S
C1554 C1552 1.478 . S
C1554 C1556 1.381 . S
C1554 C1560 1.383 . S
C1555 C1551 1.495 . S
C1555 H1561 0.959 . S
C1555 H1562 0.961 . S
C1555 H1563 0.960 . S
C1556 C1554 1.381 . S
C1556 C1557 1.394 . S
C1556 H1564 0.930 . S
C1557 C1556 1.394 . S
C1557 C1558 1.383 . S
C1557 H1565 0.929 . S
C1558 C1557 1.383 . S
C1558 C1559 1.377 . S
C1559 H1543 0.930 . S
C1559 C1558 1.377 . S
C1559 C1560 1.379 . S
C1560 H1544 0.931 . S
C1560 C1554 1.383 . S
C1560 C1559 1.379 . S
H1561 C1555 0.959 . S
H1562 C1555 0.961 . S
H1563 C1555 0.960 . S
H1564 C1556 0.930 . S
H1565 C1557 0.929 . S
H1566 C1574 0.929 . S
H1567 C1576 0.930 . S
H1568 C1578 0.930 . S
H1569 C1581 0.929 . S
H1570 C1584 0.930 . S
H1571 C1586 0.960 . S
H1572 C1586 0.960 . S
H1573 C1586 0.960 . S
C1574 H1566 0.929 . S
C1574 C1575 1.377 . S
C1574 C1576 1.384 . S
C1575 C1574 1.377 . S
C1575 C1581 1.390 . S
C1576 H1567 0.930 . S
C1576 C1574 1.384 . S
C1576 C1577 1.372 . S
C1577 C1576 1.372 . S
C1577 C1578 1.400 . S
C1577 C1582 1.490 . S
C1578 H1568 0.930 . S
C1578 C1577 1.400 . S
C1578 C1581 1.386 . S
H1579 C1595 0.930 . S
H1580 C1596 0.931 . S
C1581 H1569 0.929 . S
C1581 C1575 1.390 . S
C1581 C1578 1.386 . S
C1582 C1577 1.490 . S
C1582 C1584 1.395 . S
C1582 C1585 1.403 . S
H1583 C1589 0.930 . S
C1584 H1570 0.930 . S
C1584 C1582 1.395 . S
C1584 C1587 1.403 . S
C1585 C1582 1.403 . S
C1585 C1586 1.524 . S
C1585 C1589 1.400 . S
C1586 H1571 0.960 . S
C1586 H1572 0.960 . S
C1586 H1573 0.960 . S
C1586 C1585 1.524 . S
C1587 C1584 1.403 . S
C1587 C1588 1.392 . S
C1587 C1591 1.495 . S
C1588 C1587 1.392 . S
C1588 C1589 1.385 . S
C1588 C1590 1.478 . S
C1589 H1583 0.930 . S
C1589 C1585 1.400 . S
C1589 C1588 1.385 . S
C1590 C1588 1.478 . S
C1590 C1592 1.381 . S
C1590 C1596 1.383 . S
C1591 C1587 1.495 . S
C1591 H1597 0.959 . S
C1591 H1598 0.961 . S
C1591 H1599 0.960 . S
C1592 C1590 1.381 . S
C1592 C1593 1.394 . S
C1592 H1600 0.930 . S
C1593 C1592 1.394 . S
C1593 C1594 1.383 . S
C1593 H1601 0.929 . S
C1594 C1593 1.383 . S
C1594 C1595 1.377 . S
C1595 H1579 0.930 . S
C1595 C1594 1.377 . S
C1595 C1596 1.379 . S
C1596 H1580 0.931 . S
C1596 C1590 1.383 . S
C1596 C1595 1.379 . S
H1597 C1591 0.959 . S
H1598 C1591 0.961 . S
H1599 C1591 0.960 . S
H1600 C1592 0.930 . S
H1601 C1593 0.929 . S
H1602 C1610 0.929 . S
H1603 C1612 0.930 . S
H1604 C1614 0.930 . S
H1605 C1617 0.929 . S
H1606 C1620 0.930 . S
H1607 C1622 0.960 . S
H1608 C1622 0.960 . S
H1609 C1622 0.960 . S
C1610 H1602 0.929 . S
C1610 C1611 1.377 . S
C1610 C1612 1.384 . S
C1611 C1610 1.377 . S
C1611 C1617 1.390 . S
C1612 H1603 0.930 . S
C1612 C1610 1.384 . S
C1612 C1613 1.372 . S
C1613 C1612 1.372 . S
C1613 C1614 1.400 . S
C1613 C1618 1.490 . S
C1614 H1604 0.930 . S
C1614 C1613 1.400 . S
C1614 C1617 1.386 . S
H1615 C1631 0.930 . S
H1616 C1632 0.931 . S
C1617 H1605 0.929 . S
C1617 C1611 1.390 . S
C1617 C1614 1.386 . S
C1618 C1613 1.490 . S
C1618 C1620 1.395 . S
C1618 C1621 1.403 . S
H1619 C1625 0.930 . S
C1620 H1606 0.930 . S
C1620 C1618 1.395 . S
C1620 C1623 1.403 . S
C1621 C1618 1.403 . S
C1621 C1622 1.524 . S
C1621 C1625 1.400 . S
C1622 H1607 0.960 . S
C1622 H1608 0.960 . S
C1622 H1609 0.960 . S
C1622 C1621 1.524 . S
C1623 C1620 1.403 . S
C1623 C1624 1.392 . S
C1623 C1627 1.495 . S
C1624 C1623 1.392 . S
C1624 C1625 1.385 . S
C1624 C1626 1.478 . S
C1625 H1619 0.930 . S
C1625 C1621 1.400 . S
C1625 C1624 1.385 . S
C1626 C1624 1.478 . S
C1626 C1628 1.381 . S
C1626 C1632 1.383 . S
C1627 C1623 1.495 . S
C1627 H1633 0.959 . S
C1627 H1634 0.961 . S
C1627 H1635 0.960 . S
C1628 C1626 1.381 . S
C1628 C1629 1.394 . S
C1628 H1636 0.930 . S
C1629 C1628 1.394 . S
C1629 C1630 1.383 . S
C1629 H1637 0.929 . S
C1630 C1629 1.383 . S
C1630 C1631 1.377 . S
C1631 H1615 0.930 . S
C1631 C1630 1.377 . S
C1631 C1632 1.379 . S
C1632 H1616 0.931 . S
C1632 C1626 1.383 . S
C1632 C1631 1.379 . S
H1633 C1627 0.959 . S
H1634 C1627 0.961 . S
H1635 C1627 0.960 . S
H1636 C1628 0.930 . S
H1637 C1629 0.929 . S
H1638 C1646 0.929 . S
H1639 C1648 0.930 . S
H1640 C1650 0.930 . S
H1641 C1653 0.929 . S
H1642 C1656 0.930 . S
H1643 C1658 0.960 . S
H1644 C1658 0.960 . S
H1645 C1658 0.960 . S
C1646 H1638 0.929 . S
C1646 C1647 1.377 . S
C1646 C1648 1.384 . S
C1647 C1646 1.377 . S
C1647 C1653 1.390 . S
C1648 H1639 0.930 . S
C1648 C1646 1.384 . S
C1648 C1649 1.372 . S
C1649 C1648 1.372 . S
C1649 C1650 1.400 . S
C1649 C1654 1.490 . S
C1650 H1640 0.930 . S
C1650 C1649 1.400 . S
C1650 C1653 1.386 . S
H1651 C1667 0.930 . S
H1652 C1668 0.931 . S
C1653 H1641 0.929 . S
C1653 C1647 1.390 . S
C1653 C1650 1.386 . S
C1654 C1649 1.490 . S
C1654 C1656 1.395 . S
C1654 C1657 1.403 . S
H1655 C1661 0.930 . S
C1656 H1642 0.930 . S
C1656 C1654 1.395 . S
C1656 C1659 1.403 . S
C1657 C1654 1.403 . S
C1657 C1658 1.524 . S
C1657 C1661 1.400 . S
C1658 H1643 0.960 . S
C1658 H1644 0.960 . S
C1658 H1645 0.960 . S
C1658 C1657 1.524 . S
C1659 C1656 1.403 . S
C1659 C1660 1.392 . S
C1659 C1663 1.495 . S
C1660 C1659 1.392 . S
C1660 C1661 1.385 . S
C1660 C1662 1.478 . S
C1661 H1655 0.930 . S
C1661 C1657 1.400 . S
C1661 C1660 1.385 . S
C1662 C1660 1.478 . S
C1662 C1664 1.381 . S
C1662 C1668 1.383 . S
C1663 C1659 1.495 . S
C1663 H1669 0.959 . S
C1663 H1670 0.961 . S
C1663 H1671 0.960 . S
C1664 C1662 1.381 . S
C1664 C1665 1.394 . S
C1664 H1672 0.930 . S
C1665 C1664 1.394 . S
C1665 C1666 1.383 . S
C1665 H1673 0.929 . S
C1666 C1665 1.383 . S
C1666 C1667 1.377 . S
C1667 H1651 0.930 . S
C1667 C1666 1.377 . S
C1667 C1668 1.379 . S
C1668 H1652 0.931 . S
C1668 C1662 1.383 . S
C1668 C1667 1.379 . S
H1669 C1663 0.959 . S
H1670 C1663 0.961 . S
H1671 C1663 0.960 . S
H1672 C1664 0.930 . S
H1673 C1665 0.929 . S
H1674 C1682 0.929 . S
H1675 C1684 0.930 . S
H1676 C1686 0.930 . S
H1677 C1689 0.929 . S
H1678 C1692 0.930 . S
H1679 C1694 0.960 . S
H1680 C1694 0.960 . S
H1681 C1694 0.960 . S
C1682 H1674 0.929 . S
C1682 C1683 1.377 . S
C1682 C1684 1.384 . S
C1683 C1682 1.377 . S
C1683 C1689 1.390 . S
C1684 H1675 0.930 . S
C1684 C1682 1.384 . S
C1684 C1685 1.372 . S
C1685 C1684 1.372 . S
C1685 C1686 1.400 . S
C1685 C1690 1.490 . S
C1686 H1676 0.930 . S
C1686 C1685 1.400 . S
C1686 C1689 1.386 . S
H1687 C1703 0.930 . S
H1688 C1704 0.931 . S
C1689 H1677 0.929 . S
C1689 C1683 1.390 . S
C1689 C1686 1.386 . S
C1690 C1685 1.490 . S
C1690 C1692 1.395 . S
C1690 C1693 1.403 . S
H1691 C1697 0.930 . S
C1692 H1678 0.930 . S
C1692 C1690 1.395 . S
C1692 C1695 1.403 . S
C1693 C1690 1.403 . S
C1693 C1694 1.524 . S
C1693 C1697 1.400 . S
C1694 H1679 0.960 . S
C1694 H1680 0.960 . S
C1694 H1681 0.960 . S
C1694 C1693 1.524 . S
C1695 C1692 1.403 . S
C1695 C1696 1.392 . S
C1695 C1699 1.495 . S
C1696 C1695 1.392 . S
C1696 C1697 1.385 . S
C1696 C1698 1.478 . S
C1697 H1691 0.930 . S
C1697 C1693 1.400 . S
C1697 C1696 1.385 . S
C1698 C1696 1.478 . S
C1698 C1700 1.381 . S
C1698 C1704 1.383 . S
C1699 C1695 1.495 . S
C1699 H1705 0.959 . S
C1699 H1706 0.961 . S
C1699 H1707 0.960 . S
C1700 C1698 1.381 . S
C1700 C1701 1.394 . S
C1700 H1708 0.930 . S
C1701 C1700 1.394 . S
C1701 C1702 1.383 . S
C1701 H1709 0.929 . S
C1702 C1701 1.383 . S
C1702 C1703 1.377 . S
C1703 H1687 0.930 . S
C1703 C1702 1.377 . S
C1703 C1704 1.379 . S
C1704 H1688 0.931 . S
C1704 C1698 1.383 . S
C1704 C1703 1.379 . S
H1705 C1699 0.959 . S
H1706 C1699 0.961 . S
H1707 C1699 0.960 . S
H1708 C1700 0.930 . S
H1709 C1701 0.929 . S
H1710 C1718 0.929 . S
H1711 C1720 0.930 . S
H1712 C1722 0.930 . S
H1713 C1725 0.929 . S
H1714 C1728 0.930 . S
H1715 C1730 0.960 . S
H1716 C1730 0.960 . S
H1717 C1730 0.960 . S
C1718 H1710 0.929 . S
C1718 C1719 1.377 . S
C1718 C1720 1.384 . S
C1719 C1718 1.377 . S
C1719 C1725 1.390 . S
C1720 H1711 0.930 . S
C1720 C1718 1.384 . S
C1720 C1721 1.372 . S
C1721 C1720 1.372 . S
C1721 C1722 1.400 . S
C1721 C1726 1.490 . S
C1722 H1712 0.930 . S
C1722 C1721 1.400 . S
C1722 C1725 1.386 . S
H1723 C1739 0.930 . S
H1724 C1740 0.931 . S
C1725 H1713 0.929 . S
C1725 C1719 1.390 . S
C1725 C1722 1.386 . S
C1726 C1721 1.490 . S
C1726 C1728 1.395 . S
C1726 C1729 1.403 . S
H1727 C1733 0.930 . S
C1728 H1714 0.930 . S
C1728 C1726 1.395 . S
C1728 C1731 1.403 . S
C1729 C1726 1.403 . S
C1729 C1730 1.524 . S
C1729 C1733 1.400 . S
C1730 H1715 0.960 . S
C1730 H1716 0.960 . S
C1730 H1717 0.960 . S
C1730 C1729 1.524 . S
C1731 C1728 1.403 . S
C1731 C1732 1.392 . S
C1731 C1735 1.495 . S
C1732 C1731 1.392 . S
C1732 C1733 1.385 . S
C1732 C1734 1.478 . S
C1733 H1727 0.930 . S
C1733 C1729 1.400 . S
C1733 C1732 1.385 . S
C1734 C1732 1.478 . S
C1734 C1736 1.381 . S
C1734 C1740 1.383 . S
C1735 C1731 1.495 . S
C1735 H1741 0.959 . S
C1735 H1742 0.961 . S
C1735 H1743 0.960 . S
C1736 C1734 1.381 . S
C1736 C1737 1.394 . S
C1736 H1744 0.930 . S
C1737 C1736 1.394 . S
C1737 C1738 1.383 . S
C1737 H1745 0.929 . S
C1738 C1737 1.383 . S
C1738 C1739 1.377 . S
C1739 H1723 0.930 . S
C1739 C1738 1.377 . S
C1739 C1740 1.379 . S
C1740 H1724 0.931 . S
C1740 C1734 1.383 . S
C1740 C1739 1.379 . S
H1741 C1735 0.959 . S
H1742 C1735 0.961 . S
H1743 C1735 0.960 . S
H1744 C1736 0.930 . S
H1745 C1737 0.929 . S
H1746 C1754 0.929 . S
H1747 C1756 0.930 . S
H1748 C1758 0.930 1_565 S
H1749 C1761 0.929 . S
H1750 C1764 0.930 . S
H1751 C1766 0.960 . S
H1752 C1766 0.960 . S
H1753 C1766 0.960 . S
C1754 H1746 0.929 . S
C1754 C1755 1.377 . S
C1754 C1756 1.384 . S
C1755 C1754 1.377 . S
C1755 C1761 1.390 . S
C1756 H1747 0.930 . S
C1756 C1754 1.384 . S
C1756 C1757 1.372 1_545 S
C1757 C1756 1.372 1_565 S
C1757 C1758 1.400 1_565 S
C1757 C1762 1.490 . S
C1758 H1748 0.930 1_545 S
C1758 C1757 1.400 1_545 S
C1758 C1761 1.386 . S
H1759 C1775 0.930 . S
H1760 C1776 0.931 . S
C1761 H1749 0.929 . S
C1761 C1755 1.390 . S
C1761 C1758 1.386 . S
C1762 C1757 1.490 . S
C1762 C1764 1.395 . S
C1762 C1765 1.403 . S
H1763 C1769 0.930 . S
C1764 H1750 0.930 . S
C1764 C1762 1.395 . S
C1764 C1767 1.403 . S
C1765 C1762 1.403 . S
C1765 C1766 1.524 . S
C1765 C1769 1.400 . S
C1766 H1751 0.960 . S
C1766 H1752 0.960 . S
C1766 H1753 0.960 . S
C1766 C1765 1.524 . S
C1767 C1764 1.403 . S
C1767 C1768 1.392 . S
C1767 C1771 1.495 . S
C1768 C1767 1.392 . S
C1768 C1769 1.385 . S
C1768 C1770 1.478 . S
C1769 H1763 0.930 . S
C1769 C1765 1.400 . S
C1769 C1768 1.385 . S
C1770 C1768 1.478 . S
C1770 C1772 1.381 . S
C1770 C1776 1.383 . S
C1771 C1767 1.495 . S
C1771 H1777 0.959 . S
C1771 H1778 0.961 . S
C1771 H1779 0.960 . S
C1772 C1770 1.381 . S
C1772 C1773 1.394 . S
C1772 H1780 0.930 . S
C1773 C1772 1.394 . S
C1773 C1774 1.383 . S
C1773 H1781 0.929 . S
C1774 C1773 1.383 . S
C1774 C1775 1.377 . S
C1775 H1759 0.930 . S
C1775 C1774 1.377 . S
C1775 C1776 1.379 . S
C1776 H1760 0.931 . S
C1776 C1770 1.383 . S
C1776 C1775 1.379 . S
H1777 C1771 0.959 . S
H1778 C1771 0.961 . S
H1779 C1771 0.960 . S
H1780 C1772 0.930 . S
H1781 C1773 0.929 . S
H1782 C1790 0.929 . S
H1783 C1792 0.930 . S
H1784 C1794 0.947 . S
H1785 C1797 0.929 . S
H1786 C1800 0.930 . S
H1787 C1802 0.960 . S
H1788 C1802 0.960 . S
H1789 C1802 0.960 . S
C1790 H1782 0.929 . S
C1790 C1791 1.377 . S
C1790 C1792 1.384 1_655 S
C1791 C1790 1.377 . S
C1791 C1797 1.390 . S
C1792 H1783 0.930 . S
C1792 C1790 1.384 1_455 S
C1792 C1793 1.372 . S
C1793 C1792 1.372 . S
C1793 C1794 1.414 . S
C1793 C1798 1.490 . S
C1794 H1784 0.947 . S
C1794 C1793 1.414 . S
C1794 C1797 1.355 1_455 S
H1795 C1811 0.930 . S
H1796 C1812 0.931 . S
C1797 H1785 0.929 . S
C1797 C1791 1.390 . S
C1797 C1794 1.355 1_655 S
C1798 C1793 1.490 . S
C1798 C1800 1.395 . S
C1798 C1801 1.403 . S
H1799 C1805 0.930 . S
C1800 H1786 0.930 . S
C1800 C1798 1.395 . S
C1800 C1803 1.403 . S
C1801 C1798 1.403 . S
C1801 C1802 1.524 . S
C1801 C1805 1.400 . S
C1802 H1787 0.960 . S
C1802 H1788 0.960 . S
C1802 H1789 0.960 . S
C1802 C1801 1.524 . S
C1803 C1800 1.403 . S
C1803 C1804 1.392 . S
C1803 C1807 1.495 . S
C1804 C1803 1.392 . S
C1804 C1805 1.385 . S
C1804 C1806 1.478 . S
C1805 H1799 0.930 . S
C1805 C1801 1.400 . S
C1805 C1804 1.385 . S
C1806 C1804 1.478 . S
C1806 C1808 1.381 . S
C1806 C1812 1.383 . S
C1807 C1803 1.495 . S
C1807 H1813 0.959 . S
C1807 H1814 0.961 . S
C1807 H1815 0.960 . S
C1808 C1806 1.381 . S
C1808 C1809 1.394 . S
C1808 H1816 0.930 . S
C1809 C1808 1.394 . S
C1809 C1810 1.383 . S
C1809 H1817 0.929 . S
C1810 C1809 1.383 . S
C1810 C1811 1.377 . S
C1811 H1795 0.930 . S
C1811 C1810 1.377 . S
C1811 C1812 1.379 . S
C1812 H1796 0.931 . S
C1812 C1806 1.383 . S
C1812 C1811 1.379 . S
H1813 C1807 0.959 . S
H1814 C1807 0.961 . S
H1815 C1807 0.960 . S
H1816 C1808 0.930 . S
H1817 C1809 0.929 . S
H1818 C1826 0.929 . S
H1819 C1828 0.930 . S
H1820 C1830 0.930 . S
H1821 C1833 0.929 . S
H1822 C1836 0.930 . S
H1823 C1838 0.960 . S
H1824 C1838 0.960 . S
H1825 C1838 0.960 . S
C1826 H1818 0.929 . S
C1826 C1827 1.377 . S
C1826 C1828 1.384 . S
C1827 C1826 1.377 . S
C1827 C1833 1.390 . S
C1828 H1819 0.930 . S
C1828 C1826 1.384 . S
C1828 C1829 1.372 . S
C1829 C1828 1.372 . S
C1829 C1830 1.400 . S
C1829 C1834 1.490 . S
C1830 H1820 0.930 . S
C1830 C1829 1.400 . S
C1830 C1833 1.386 . S
H1831 C1847 0.930 . S
H1832 C1848 0.931 . S
C1833 H1821 0.929 . S
C1833 C1827 1.390 . S
C1833 C1830 1.386 . S
C1834 C1829 1.490 . S
C1834 C1836 1.395 . S
C1834 C1837 1.403 . S
H1835 C1841 0.930 . S
C1836 H1822 0.930 . S
C1836 C1834 1.395 . S
C1836 C1839 1.403 . S
C1837 C1834 1.403 . S
C1837 C1838 1.524 . S
C1837 C1841 1.400 . S
C1838 H1823 0.960 . S
C1838 H1824 0.960 . S
C1838 H1825 0.960 . S
C1838 C1837 1.524 . S
C1839 C1836 1.403 . S
C1839 C1840 1.392 . S
C1839 C1843 1.495 . S
C1840 C1839 1.392 . S
C1840 C1841 1.385 . S
C1840 C1842 1.478 . S
C1841 H1835 0.930 . S
C1841 C1837 1.400 . S
C1841 C1840 1.385 . S
C1842 C1840 1.478 . S
C1842 C1844 1.381 . S
C1842 C1848 1.383 . S
C1843 C1839 1.495 . S
C1843 H1849 0.959 . S
C1843 H1850 0.961 . S
C1843 H1851 0.960 . S
C1844 C1842 1.381 . S
C1844 C1845 1.394 . S
C1844 H1852 0.930 . S
C1845 C1844 1.394 . S
C1845 C1846 1.383 . S
C1845 H1853 0.929 . S
C1846 C1845 1.383 . S
C1846 C1847 1.377 . S
C1847 H1831 0.930 . S
C1847 C1846 1.377 . S
C1847 C1848 1.379 . S
C1848 H1832 0.931 . S
C1848 C1842 1.383 . S
C1848 C1847 1.379 . S
H1849 C1843 0.959 . S
H1850 C1843 0.961 . S
H1851 C1843 0.960 . S
H1852 C1844 0.930 . S
H1853 C1845 0.929 . S
H1854 C1862 0.929 . S
H1855 C1864 0.930 . S
H1856 C1866 0.930 . S
H1857 C1869 0.929 . S
H1858 C1872 0.930 . S
H1859 C1874 0.960 . S
H1860 C1874 0.960 . S
H1861 C1874 0.960 . S
C1862 H1854 0.929 . S
C1862 C1863 1.377 . S
C1862 C1864 1.384 . S
C1863 C1862 1.377 . S
C1863 C1869 1.390 . S
C1864 H1855 0.930 . S
C1864 C1862 1.384 . S
C1864 C1865 1.372 . S
C1865 C1864 1.372 . S
C1865 C1866 1.400 . S
C1865 C1870 1.490 . S
C1866 H1856 0.930 . S
C1866 C1865 1.400 . S
C1866 C1869 1.386 . S
H1867 C1883 0.930 . S
H1868 C1884 0.931 . S
C1869 H1857 0.929 . S
C1869 C1863 1.390 . S
C1869 C1866 1.386 . S
C1870 C1865 1.490 . S
C1870 C1872 1.395 . S
C1870 C1873 1.403 . S
H1871 C1877 0.930 . S
C1872 H1858 0.930 . S
C1872 C1870 1.395 . S
C1872 C1875 1.403 . S
C1873 C1870 1.403 . S
C1873 C1874 1.524 . S
C1873 C1877 1.400 . S
C1874 H1859 0.960 . S
C1874 H1860 0.960 . S
C1874 H1861 0.960 . S
C1874 C1873 1.524 . S
C1875 C1872 1.403 . S
C1875 C1876 1.392 . S
C1875 C1879 1.495 . S
C1876 C1875 1.392 . S
C1876 C1877 1.385 . S
C1876 C1878 1.478 . S
C1877 H1871 0.930 . S
C1877 C1873 1.400 . S
C1877 C1876 1.385 . S
C1878 C1876 1.478 . S
C1878 C1880 1.381 . S
C1878 C1884 1.383 . S
C1879 C1875 1.495 . S
C1879 H1885 0.959 . S
C1879 H1886 0.961 . S
C1879 H1887 0.960 . S
C1880 C1878 1.381 . S
C1880 C1881 1.394 . S
C1880 H1888 0.930 . S
C1881 C1880 1.394 . S
C1881 C1882 1.383 . S
C1881 H1889 0.929 . S
C1882 C1881 1.383 . S
C1882 C1883 1.377 . S
C1883 H1867 0.930 . S
C1883 C1882 1.377 . S
C1883 C1884 1.379 . S
C1884 H1868 0.931 . S
C1884 C1878 1.383 . S
C1884 C1883 1.379 . S
H1885 C1879 0.959 . S
H1886 C1879 0.961 . S
H1887 C1879 0.960 . S
H1888 C1880 0.930 . S
H1889 C1881 0.929 . S
H1890 C1898 0.929 . S
H1891 C1900 0.930 . S
H1892 C1902 0.930 . S
H1893 C1905 0.929 . S
H1894 C1908 0.930 . S
H1895 C1910 0.960 . S
H1896 C1910 0.960 . S
H1897 C1910 0.960 . S
C1898 H1890 0.929 . S
C1898 C1899 1.377 . S
C1898 C1900 1.384 . S
C1899 C1898 1.377 . S
C1899 C1905 1.390 . S
C1900 H1891 0.930 . S
C1900 C1898 1.384 . S
C1900 C1901 1.372 . S
C1901 C1900 1.372 . S
C1901 C1902 1.400 . S
C1901 C1906 1.490 . S
C1902 H1892 0.930 . S
C1902 C1901 1.400 . S
C1902 C1905 1.386 . S
H1903 C1919 0.930 . S
H1904 C1920 0.931 . S
C1905 H1893 0.929 . S
C1905 C1899 1.390 . S
C1905 C1902 1.386 . S
C1906 C1901 1.490 . S
C1906 C1908 1.395 . S
C1906 C1909 1.403 . S
H1907 C1913 0.930 . S
C1908 H1894 0.930 . S
C1908 C1906 1.395 . S
C1908 C1911 1.403 . S
C1909 C1906 1.403 . S
C1909 C1910 1.524 . S
C1909 C1913 1.400 . S
C1910 H1895 0.960 . S
C1910 H1896 0.960 . S
C1910 H1897 0.960 . S
C1910 C1909 1.524 . S
C1911 C1908 1.403 . S
C1911 C1912 1.392 . S
C1911 C1915 1.495 . S
C1912 C1911 1.392 . S
C1912 C1913 1.385 . S
C1912 C1914 1.478 . S
C1913 H1907 0.930 . S
C1913 C1909 1.400 . S
C1913 C1912 1.385 . S
C1914 C1912 1.478 . S
C1914 C1916 1.381 . S
C1914 C1920 1.383 . S
C1915 C1911 1.495 . S
C1915 H1921 0.959 . S
C1915 H1922 0.961 . S
C1915 H1923 0.960 . S
C1916 C1914 1.381 . S
C1916 C1917 1.394 . S
C1916 H1924 0.930 . S
C1917 C1916 1.394 . S
C1917 C1918 1.383 . S
C1917 H1925 0.929 . S
C1918 C1917 1.383 . S
C1918 C1919 1.377 . S
C1919 H1903 0.930 . S
C1919 C1918 1.377 . S
C1919 C1920 1.379 . S
C1920 H1904 0.931 . S
C1920 C1914 1.383 . S
C1920 C1919 1.379 . S
H1921 C1915 0.959 . S
H1922 C1915 0.961 . S
H1923 C1915 0.960 . S
H1924 C1916 0.930 . S
H1925 C1917 0.929 . S
H1926 C1934 0.929 . S
H1927 C1936 0.930 . S
H1928 C1938 0.930 . S
H1929 C1941 0.929 . S
H1930 C1944 0.930 . S
H1931 C1946 0.960 . S
H1932 C1946 0.960 . S
H1933 C1946 0.960 . S
C1934 H1926 0.929 . S
C1934 C1935 1.377 . S
C1934 C1936 1.384 . S
C1935 C1934 1.377 . S
C1935 C1941 1.390 . S
C1936 H1927 0.930 . S
C1936 C1934 1.384 . S
C1936 C1937 1.372 . S
C1937 C1936 1.372 . S
C1937 C1938 1.400 . S
C1937 C1942 1.490 . S
C1938 H1928 0.930 . S
C1938 C1937 1.400 . S
C1938 C1941 1.386 . S
H1939 C1955 0.930 . S
H1940 C1956 0.931 . S
C1941 H1929 0.929 . S
C1941 C1935 1.390 . S
C1941 C1938 1.386 . S
C1942 C1937 1.490 . S
C1942 C1944 1.395 . S
C1942 C1945 1.403 . S
H1943 C1949 0.930 . S
C1944 H1930 0.930 . S
C1944 C1942 1.395 . S
C1944 C1947 1.403 . S
C1945 C1942 1.403 . S
C1945 C1946 1.524 . S
C1945 C1949 1.400 . S
C1946 H1931 0.960 . S
C1946 H1932 0.960 . S
C1946 H1933 0.960 . S
C1946 C1945 1.524 . S
C1947 C1944 1.403 . S
C1947 C1948 1.392 . S
C1947 C1951 1.495 . S
C1948 C1947 1.392 . S
C1948 C1949 1.385 . S
C1948 C1950 1.478 . S
C1949 H1943 0.930 . S
C1949 C1945 1.400 . S
C1949 C1948 1.385 . S
C1950 C1948 1.478 . S
C1950 C1952 1.381 . S
C1950 C1956 1.383 . S
C1951 C1947 1.495 . S
C1951 H1957 0.959 . S
C1951 H1958 0.961 . S
C1951 H1959 0.960 . S
C1952 C1950 1.381 . S
C1952 C1953 1.394 . S
C1952 H1960 0.930 . S
C1953 C1952 1.394 . S
C1953 C1954 1.383 . S
C1953 H1961 0.929 . S
C1954 C1953 1.383 . S
C1954 C1955 1.377 . S
C1955 H1939 0.930 . S
C1955 C1954 1.377 . S
C1955 C1956 1.379 . S
C1956 H1940 0.931 . S
C1956 C1950 1.383 . S
C1956 C1955 1.379 . S
H1957 C1951 0.959 . S
H1958 C1951 0.961 . S
H1959 C1951 0.960 . S
H1960 C1952 0.930 . S
H1961 C1953 0.929 . S
H1962 C1970 0.929 . S
H1963 C1972 0.930 . S
H1964 C1974 0.930 . S
H1965 C1977 0.929 . S
H1966 C1980 0.930 . S
H1967 C1982 0.960 . S
H1968 C1982 0.960 . S
H1969 C1982 0.960 . S
C1970 H1962 0.929 . S
C1970 C1971 1.377 . S
C1970 C1972 1.384 . S
C1971 C1970 1.377 . S
C1971 C1977 1.390 . S
C1972 H1963 0.930 . S
C1972 C1970 1.384 . S
C1972 C1973 1.372 . S
C1973 C1972 1.372 . S
C1973 C1974 1.400 . S
C1973 C1978 1.490 . S
C1974 H1964 0.930 . S
C1974 C1973 1.400 . S
C1974 C1977 1.386 . S
H1975 C1991 0.930 . S
H1976 C1992 0.931 . S
C1977 H1965 0.929 . S
C1977 C1971 1.390 . S
C1977 C1974 1.386 . S
C1978 C1973 1.490 . S
C1978 C1980 1.395 1_565 S
C1978 C1981 1.403 . S
H1979 C1985 0.930 . S
C1980 H1966 0.930 . S
C1980 C1978 1.395 1_545 S
C1980 C1983 1.403 . S
C1981 C1978 1.403 . S
C1981 C1982 1.524 . S
C1981 C1985 1.400 1_565 S
C1982 H1967 0.960 . S
C1982 H1968 0.960 . S
C1982 H1969 0.960 . S
C1982 C1981 1.524 . S
C1983 C1980 1.403 . S
C1983 C1984 1.392 . S
C1983 C1987 1.495 . S
C1984 C1983 1.392 . S
C1984 C1985 1.385 . S
C1984 C1986 1.478 . S
C1985 H1979 0.930 . S
C1985 C1981 1.400 1_545 S
C1985 C1984 1.385 . S
C1986 C1984 1.478 . S
C1986 C1988 1.381 . S
C1986 C1992 1.383 . S
C1987 C1983 1.495 . S
C1987 H1993 0.959 . S
C1987 H1994 0.961 . S
C1987 H1995 0.960 . S
C1988 C1986 1.381 . S
C1988 C1989 1.394 . S
C1988 H1996 0.930 . S
C1989 C1988 1.394 . S
C1989 C1990 1.383 . S
C1989 H1997 0.929 . S
C1990 C1989 1.383 . S
C1990 C1991 1.377 . S
C1991 H1975 0.930 . S
C1991 C1990 1.377 . S
C1991 C1992 1.379 . S
C1992 H1976 0.931 . S
C1992 C1986 1.383 . S
C1992 C1991 1.379 . S
H1993 C1987 0.959 . S
H1994 C1987 0.961 . S
H1995 C1987 0.960 . S
H1996 C1988 0.930 . S
H1997 C1989 0.929 . S
H1998 C2006 0.929 . S
H1999 C2008 0.930 . S
H2000 C2010 0.930 . S
H2001 C2013 0.929 . S
H2002 C2016 0.930 . S
H2003 C2018 0.960 . S
H2004 C2018 0.960 . S
H2005 C2018 0.960 . S
C2006 H1998 0.929 . S
C2006 C2007 1.377 . S
C2006 C2008 1.384 . S
C2007 C2006 1.377 . S
C2007 C2013 1.390 . S
C2008 H1999 0.930 . S
C2008 C2006 1.384 . S
C2008 C2009 1.372 . S
C2009 C2008 1.372 . S
C2009 C2010 1.400 . S
C2009 C2014 1.490 . S
C2010 H2000 0.930 . S
C2010 C2009 1.400 . S
C2010 C2013 1.386 . S
H2011 C2027 0.930 . S
H2012 C2028 0.931 . S
C2013 H2001 0.929 . S
C2013 C2007 1.390 . S
C2013 C2010 1.386 . S
C2014 C2009 1.490 . S
C2014 C2016 1.395 . S
C2014 C2017 1.403 . S
H2015 C2021 0.930 . S
C2016 H2002 0.930 . S
C2016 C2014 1.395 . S
C2016 C2019 1.403 1_455 S
C2017 C2014 1.403 . S
C2017 C2018 1.524 . S
C2017 C2021 1.400 1_455 S
C2018 H2003 0.960 . S
C2018 H2004 0.960 . S
C2018 H2005 0.960 . S
C2018 C2017 1.524 . S
C2019 C2016 1.403 1_655 S
C2019 C2020 1.392 . S
C2019 C2023 1.495 . S
C2020 C2019 1.392 . S
C2020 C2021 1.385 . S
C2020 C2022 1.478 . S
C2021 H2015 0.930 . S
C2021 C2017 1.400 1_655 S
C2021 C2020 1.385 . S
C2022 C2020 1.478 . S
C2022 C2024 1.381 . S
C2022 C2028 1.383 . S
C2023 C2019 1.495 . S
C2023 H2029 0.959 . S
C2023 H2030 0.961 . S
C2023 H2031 0.960 . S
C2024 C2022 1.381 . S
C2024 C2025 1.394 . S
C2024 H2032 0.930 . S
C2025 C2024 1.394 . S
C2025 C2026 1.383 . S
C2025 H2033 0.929 . S
C2026 C2025 1.383 . S
C2026 C2027 1.377 . S
C2027 H2011 0.930 . S
C2027 C2026 1.377 . S
C2027 C2028 1.379 . S
C2028 H2012 0.931 . S
C2028 C2022 1.383 . S
C2028 C2027 1.379 . S
H2029 C2023 0.959 . S
H2030 C2023 0.961 . S
H2031 C2023 0.960 . S
H2032 C2024 0.930 . S
H2033 C2025 0.929 . S
H2034 C2042 0.929 . S
H2035 C2044 0.930 . S
H2036 C2046 0.930 . S
H2037 C2049 0.929 . S
H2038 C2052 0.930 . S
H2039 C2054 0.960 . S
H2040 C2054 0.960 . S
H2041 C2054 0.960 . S
C2042 H2034 0.929 . S
C2042 C2043 1.377 . S
C2042 C2044 1.384 . S
C2043 C2042 1.377 . S
C2043 C2049 1.390 . S
C2044 H2035 0.930 . S
C2044 C2042 1.384 . S
C2044 C2045 1.372 . S
C2045 C2044 1.372 . S
C2045 C2046 1.400 . S
C2045 C2050 1.490 . S
C2046 H2036 0.930 . S
C2046 C2045 1.400 . S
C2046 C2049 1.386 . S
H2047 C2063 0.930 . S
H2048 C2064 0.931 . S
C2049 H2037 0.929 . S
C2049 C2043 1.390 . S
C2049 C2046 1.386 . S
C2050 C2045 1.490 . S
C2050 C2052 1.395 . S
C2050 C2053 1.403 . S
H2051 C2057 0.930 . S
C2052 H2038 0.930 . S
C2052 C2050 1.395 . S
C2052 C2055 1.403 . S
C2053 C2050 1.403 . S
C2053 C2054 1.524 . S
C2053 C2057 1.400 . S
C2054 H2039 0.960 . S
C2054 H2040 0.960 . S
C2054 H2041 0.960 . S
C2054 C2053 1.524 . S
C2055 C2052 1.403 . S
C2055 C2056 1.392 . S
C2055 C2059 1.495 . S
C2056 C2055 1.392 . S
C2056 C2057 1.385 . S
C2056 C2058 1.478 . S
C2057 H2051 0.930 . S
C2057 C2053 1.400 . S
C2057 C2056 1.385 . S
C2058 C2056 1.478 . S
C2058 C2060 1.381 . S
C2058 C2064 1.383 . S
C2059 C2055 1.495 . S
C2059 H2065 0.959 . S
C2059 H2066 0.961 . S
C2059 H2067 0.960 . S
C2060 C2058 1.381 . S
C2060 C2061 1.394 . S
C2060 H2068 0.930 . S
C2061 C2060 1.394 . S
C2061 C2062 1.383 . S
C2061 H2069 0.929 . S
C2062 C2061 1.383 . S
C2062 C2063 1.377 . S
C2063 H2047 0.930 . S
C2063 C2062 1.377 . S
C2063 C2064 1.379 . S
C2064 H2048 0.931 . S
C2064 C2058 1.383 . S
C2064 C2063 1.379 . S
H2065 C2059 0.959 . S
H2066 C2059 0.961 . S
H2067 C2059 0.960 . S
H2068 C2060 0.930 . S
H2069 C2061 0.929 . S
H2070 C2078 0.929 . S
H2071 C2080 0.930 1_655 S
H2072 C2082 0.901 1_655 S
H2073 C2085 0.929 . S
H2074 C2088 0.930 . S
H2075 C2090 0.960 . S
H2076 C2090 0.960 . S
H2077 C2090 0.960 . S
C2078 H2070 0.929 . S
C2078 C2079 1.377 . S
C2078 C2080 1.384 . S
C2079 C2078 1.377 . S
C2079 C2085 1.390 . S
C2080 H2071 0.930 1_455 S
C2080 C2078 1.384 . S
C2080 C2081 1.372 1_455 S
C2081 C2080 1.372 1_655 S
C2081 C2082 1.400 1_655 S
C2081 C2086 1.490 . S
C2082 H2072 0.901 1_455 S
C2082 C2081 1.400 1_455 S
C2082 C2085 1.386 . S
H2083 C2099 0.930 . S
H2084 C2100 0.931 . S
C2085 H2073 0.929 . S
C2085 C2079 1.390 . S
C2085 C2082 1.386 . S
C2086 C2081 1.490 . S
C2086 C2088 1.395 . S
C2086 C2089 1.403 . S
H2087 C2093 0.930 . S
C2088 H2074 0.930 . S
C2088 C2086 1.395 . S
C2088 C2091 1.403 . S
C2089 C2086 1.403 . S
C2089 C2090 1.524 . S
C2089 C2093 1.400 . S
C2090 H2075 0.960 . S
C2090 H2076 0.960 . S
C2090 H2077 0.960 . S
C2090 C2089 1.524 . S
C2091 C2088 1.403 . S
C2091 C2092 1.392 . S
C2091 C2095 1.495 . S
C2092 C2091 1.392 . S
C2092 C2093 1.385 . S
C2092 C2094 1.478 . S
C2093 H2087 0.930 . S
C2093 C2089 1.400 . S
C2093 C2092 1.385 . S
C2094 C2092 1.478 . S
C2094 C2096 1.381 . S
C2094 C2100 1.383 . S
C2095 C2091 1.495 . S
C2095 H2101 0.959 . S
C2095 H2102 0.961 . S
C2095 H2103 0.960 . S
C2096 C2094 1.381 . S
C2096 C2097 1.394 . S
C2096 H2104 0.930 . S
C2097 C2096 1.394 . S
C2097 C2098 1.383 . S
C2097 H2105 0.929 . S
C2098 C2097 1.383 . S
C2098 C2099 1.377 . S
C2099 H2083 0.930 . S
C2099 C2098 1.377 . S
C2099 C2100 1.379 . S
C2100 H2084 0.931 . S
C2100 C2094 1.383 . S
C2100 C2099 1.379 . S
H2101 C2095 0.959 . S
H2102 C2095 0.961 . S
H2103 C2095 0.960 . S
H2104 C2096 0.930 . S
H2105 C2097 0.929 . S
H2106 C2114 0.929 . S
H2107 C2116 0.930 . S
H2108 C2118 0.930 . S
H2109 C2121 0.929 . S
H2110 C2124 0.930 . S
H2111 C2126 0.960 . S
H2112 C2126 0.960 . S
H2113 C2126 0.960 . S
C2114 H2106 0.929 . S
C2114 C2115 1.377 . S
C2114 C2116 1.384 . S
C2115 C2114 1.377 . S
C2115 C2121 1.390 . S
C2116 H2107 0.930 . S
C2116 C2114 1.384 . S
C2116 C2117 1.372 . S
C2117 C2116 1.372 . S
C2117 C2118 1.400 . S
C2117 C2122 1.490 . S
C2118 H2108 0.930 . S
C2118 C2117 1.400 . S
C2118 C2121 1.386 . S
H2119 C2135 0.930 . S
H2120 C2136 0.931 . S
C2121 H2109 0.929 . S
C2121 C2115 1.390 . S
C2121 C2118 1.386 . S
C2122 C2117 1.490 . S
C2122 C2124 1.395 . S
C2122 C2125 1.403 . S
H2123 C2129 0.930 . S
C2124 H2110 0.930 . S
C2124 C2122 1.395 . S
C2124 C2127 1.403 . S
C2125 C2122 1.403 . S
C2125 C2126 1.524 . S
C2125 C2129 1.400 . S
C2126 H2111 0.960 . S
C2126 H2112 0.960 . S
C2126 H2113 0.960 . S
C2126 C2125 1.524 . S
C2127 C2124 1.403 . S
C2127 C2128 1.392 . S
C2127 C2131 1.495 . S
C2128 C2127 1.392 . S
C2128 C2129 1.385 . S
C2128 C2130 1.478 . S
C2129 H2123 0.930 . S
C2129 C2125 1.400 . S
C2129 C2128 1.385 . S
C2130 C2128 1.478 . S
C2130 C2132 1.381 . S
C2130 C2136 1.383 . S
C2131 C2127 1.495 . S
C2131 H2137 0.959 . S
C2131 H2138 0.961 . S
C2131 H2139 0.960 . S
C2132 C2130 1.381 . S
C2132 C2133 1.394 . S
C2132 H2140 0.930 . S
C2133 C2132 1.394 . S
C2133 C2134 1.383 . S
C2133 H2141 0.929 . S
C2134 C2133 1.383 . S
C2134 C2135 1.377 . S
C2135 H2119 0.930 . S
C2135 C2134 1.377 . S
C2135 C2136 1.379 . S
C2136 H2120 0.931 . S
C2136 C2130 1.383 . S
C2136 C2135 1.379 . S
H2137 C2131 0.959 . S
H2138 C2131 0.961 . S
H2139 C2131 0.960 . S
H2140 C2132 0.930 . S
H2141 C2133 0.929 . S
H2142 C2150 0.929 . S
H2143 C2152 0.930 . S
H2144 C2154 0.914 1_545 S
H2145 C2157 0.929 . S
H2146 C2160 0.930 . S
H2147 C2162 0.960 . S
H2148 C2162 0.960 . S
H2149 C2162 0.960 . S
C2150 H2142 0.929 . S
C2150 C2151 1.377 . S
C2150 C2152 1.384 1_565 S
C2151 C2150 1.377 . S
C2151 C2157 1.390 . S
C2152 H2143 0.930 . S
C2152 C2150 1.384 1_545 S
C2152 C2153 1.372 . S
C2153 C2152 1.372 . S
C2153 C2154 1.400 1_545 S
C2153 C2158 1.490 . S
C2154 H2144 0.914 1_565 S
C2154 C2153 1.400 1_565 S
C2154 C2157 1.386 . S
H2155 C2171 0.930 . S
H2156 C2172 0.931 . S
C2157 H2145 0.929 . S
C2157 C2151 1.390 . S
C2157 C2154 1.386 . S
C2158 C2153 1.490 . S
C2158 C2160 1.395 . S
C2158 C2161 1.403 . S
H2159 C2165 0.930 . S
C2160 H2146 0.930 . S
C2160 C2158 1.395 . S
C2160 C2163 1.403 . S
C2161 C2158 1.403 . S
C2161 C2162 1.524 . S
C2161 C2165 1.400 . S
C2162 H2147 0.960 . S
C2162 H2148 0.960 . S
C2162 H2149 0.960 . S
C2162 C2161 1.524 . S
C2163 C2160 1.403 . S
C2163 C2164 1.392 . S
C2163 C2167 1.495 . S
C2164 C2163 1.392 . S
C2164 C2165 1.385 . S
C2164 C2166 1.478 . S
C2165 H2159 0.930 . S
C2165 C2161 1.400 . S
C2165 C2164 1.385 . S
C2166 C2164 1.478 . S
C2166 C2168 1.381 . S
C2166 C2172 1.383 . S
C2167 C2163 1.495 . S
C2167 H2173 0.959 . S
C2167 H2174 0.961 . S
C2167 H2175 0.960 . S
C2168 C2166 1.381 . S
C2168 C2169 1.394 . S
C2168 H2176 0.930 . S
C2169 C2168 1.394 . S
C2169 C2170 1.383 . S
C2169 H2177 0.929 . S
C2170 C2169 1.383 . S
C2170 C2171 1.377 . S
C2171 H2155 0.930 . S
C2171 C2170 1.377 . S
C2171 C2172 1.379 . S
C2172 H2156 0.931 . S
C2172 C2166 1.383 . S
C2172 C2171 1.379 . S
H2173 C2167 0.959 . S
H2174 C2167 0.961 . S
H2175 C2167 0.960 . S
H2176 C2168 0.930 . S
H2177 C2169 0.929 . S
H2178 C2186 0.929 . S
H2179 C2188 0.930 . S
H2180 C2190 0.930 . S
H2181 C2193 0.929 . S
H2182 C2196 0.930 . S
H2183 C2198 0.960 . S
H2184 C2198 0.960 . S
H2185 C2198 0.960 . S
C2186 H2178 0.929 . S
C2186 C2187 1.377 . S
C2186 C2188 1.384 . S
C2187 C2186 1.377 . S
C2187 C2193 1.390 . S
C2188 H2179 0.930 . S
C2188 C2186 1.384 . S
C2188 C2189 1.372 . S
C2189 C2188 1.372 . S
C2189 C2190 1.400 . S
C2189 C2194 1.490 . S
C2190 H2180 0.930 . S
C2190 C2189 1.400 . S
C2190 C2193 1.386 . S
H2191 C2207 0.930 . S
H2192 C2208 0.931 . S
C2193 H2181 0.929 . S
C2193 C2187 1.390 . S
C2193 C2190 1.386 . S
C2194 C2189 1.490 . S
C2194 C2196 1.395 . S
C2194 C2197 1.403 . S
H2195 C2201 0.930 . S
C2196 H2182 0.930 . S
C2196 C2194 1.395 . S
C2196 C2199 1.403 . S
C2197 C2194 1.403 . S
C2197 C2198 1.524 . S
C2197 C2201 1.400 . S
C2198 H2183 0.960 . S
C2198 H2184 0.960 . S
C2198 H2185 0.960 . S
C2198 C2197 1.524 . S
C2199 C2196 1.403 . S
C2199 C2200 1.392 . S
C2199 C2203 1.495 . S
C2200 C2199 1.392 . S
C2200 C2201 1.385 . S
C2200 C2202 1.478 . S
C2201 H2195 0.930 . S
C2201 C2197 1.400 . S
C2201 C2200 1.385 . S
C2202 C2200 1.478 . S
C2202 C2204 1.381 . S
C2202 C2208 1.383 . S
C2203 C2199 1.495 . S
C2203 H2209 0.959 . S
C2203 H2210 0.961 . S
C2203 H2211 0.960 . S
C2204 C2202 1.381 . S
C2204 C2205 1.394 . S
C2204 H2212 0.930 . S
C2205 C2204 1.394 . S
C2205 C2206 1.383 . S
C2205 H2213 0.929 . S
C2206 C2205 1.383 . S
C2206 C2207 1.377 . S
C2207 H2191 0.930 . S
C2207 C2206 1.377 . S
C2207 C2208 1.379 . S
C2208 H2192 0.931 . S
C2208 C2202 1.383 . S
C2208 C2207 1.379 . S
H2209 C2203 0.959 . S
H2210 C2203 0.961 . S
H2211 C2203 0.960 . S
H2212 C2204 0.930 . S
H2213 C2205 0.929 . S
H2214 C2222 0.929 . S
H2215 C2224 0.930 . S
H2216 C2226 0.930 . S
H2217 C2229 0.929 . S
H2218 C2232 0.930 . S
H2219 C2234 0.960 . S
H2220 C2234 0.960 . S
H2221 C2234 0.960 . S
C2222 H2214 0.929 . S
C2222 C2223 1.377 . S
C2222 C2224 1.384 . S
C2223 C2222 1.377 . S
C2223 C2229 1.390 . S
C2224 H2215 0.930 . S
C2224 C2222 1.384 . S
C2224 C2225 1.372 . S
C2225 C2224 1.372 . S
C2225 C2226 1.400 . S
C2225 C2230 1.490 . S
C2226 H2216 0.930 . S
C2226 C2225 1.400 . S
C2226 C2229 1.386 . S
H2227 C2243 0.930 . S
H2228 C2244 0.931 . S
C2229 H2217 0.929 . S
C2229 C2223 1.390 . S
C2229 C2226 1.386 . S
C2230 C2225 1.490 . S
C2230 C2232 1.395 . S
C2230 C2233 1.403 . S
H2231 C2237 0.930 . S
C2232 H2218 0.930 . S
C2232 C2230 1.395 . S
C2232 C2235 1.403 . S
C2233 C2230 1.403 . S
C2233 C2234 1.524 . S
C2233 C2237 1.400 . S
C2234 H2219 0.960 . S
C2234 H2220 0.960 . S
C2234 H2221 0.960 . S
C2234 C2233 1.524 . S
C2235 C2232 1.403 . S
C2235 C2236 1.392 . S
C2235 C2239 1.495 . S
C2236 C2235 1.392 . S
C2236 C2237 1.385 . S
C2236 C2238 1.478 . S
C2237 H2231 0.930 . S
C2237 C2233 1.400 . S
C2237 C2236 1.385 . S
C2238 C2236 1.478 . S
C2238 C2240 1.381 . S
C2238 C2244 1.383 . S
C2239 C2235 1.495 . S
C2239 H2245 0.959 . S
C2239 H2246 0.961 . S
C2239 H2247 0.960 . S
C2240 C2238 1.381 . S
C2240 C2241 1.394 . S
C2240 H2248 0.930 . S
C2241 C2240 1.394 . S
C2241 C2242 1.383 . S
C2241 H2249 0.929 . S
C2242 C2241 1.383 . S
C2242 C2243 1.377 . S
C2243 H2227 0.930 . S
C2243 C2242 1.377 . S
C2243 C2244 1.379 . S
C2244 H2228 0.931 . S
C2244 C2238 1.383 . S
C2244 C2243 1.379 . S
H2245 C2239 0.959 . S
H2246 C2239 0.961 . S
H2247 C2239 0.960 . S
H2248 C2240 0.930 . S
H2249 C2241 0.929 . S
H2250 C2258 0.929 . S
H2251 C2260 0.930 . S
H2252 C2262 0.930 . S
H2253 C2265 0.929 . S
H2254 C2268 0.930 . S
H2255 C2270 0.960 . S
H2256 C2270 0.960 . S
H2257 C2270 0.960 . S
C2258 H2250 0.929 . S
C2258 C2259 1.377 . S
C2258 C2260 1.384 . S
C2259 C2258 1.377 . S
C2259 C2265 1.390 . S
C2260 H2251 0.930 . S
C2260 C2258 1.384 . S
C2260 C2261 1.372 . S
C2261 C2260 1.372 . S
C2261 C2262 1.400 . S
C2261 C2266 1.490 . S
C2262 H2252 0.930 . S
C2262 C2261 1.400 . S
C2262 C2265 1.386 . S
H2263 C2279 0.930 . S
H2264 C2280 0.931 . S
C2265 H2253 0.929 . S
C2265 C2259 1.390 . S
C2265 C2262 1.386 . S
C2266 C2261 1.490 . S
C2266 C2268 1.395 . S
C2266 C2269 1.403 . S
H2267 C2273 0.930 . S
C2268 H2254 0.930 . S
C2268 C2266 1.395 . S
C2268 C2271 1.403 . S
C2269 C2266 1.403 . S
C2269 C2270 1.524 . S
C2269 C2273 1.400 . S
C2270 H2255 0.960 . S
C2270 H2256 0.960 . S
C2270 H2257 0.960 . S
C2270 C2269 1.524 . S
C2271 C2268 1.403 . S
C2271 C2272 1.392 . S
C2271 C2275 1.495 . S
C2272 C2271 1.392 . S
C2272 C2273 1.385 . S
C2272 C2274 1.478 . S
C2273 H2267 0.930 . S
C2273 C2269 1.400 . S
C2273 C2272 1.385 . S
C2274 C2272 1.478 . S
C2274 C2276 1.381 . S
C2274 C2280 1.383 . S
C2275 C2271 1.495 . S
C2275 H2281 0.959 . S
C2275 H2282 0.961 . S
C2275 H2283 0.960 . S
C2276 C2274 1.381 . S
C2276 C2277 1.394 . S
C2276 H2284 0.930 . S
C2277 C2276 1.394 . S
C2277 C2278 1.383 . S
C2277 H2285 0.929 . S
C2278 C2277 1.383 . S
C2278 C2279 1.377 . S
C2279 H2263 0.930 . S
C2279 C2278 1.377 . S
C2279 C2280 1.379 . S
C2280 H2264 0.931 . S
C2280 C2274 1.383 . S
C2280 C2279 1.379 . S
H2281 C2275 0.959 . S
H2282 C2275 0.961 . S
H2283 C2275 0.960 . S
H2284 C2276 0.930 . S
H2285 C2277 0.929 . S
H2286 C2294 0.929 . S
H2287 C2296 0.930 . S
H2288 C2298 0.930 . S
H2289 C2301 0.929 . S
H2290 C2304 0.930 . S
H2291 C2306 0.960 . S
H2292 C2306 0.960 . S
H2293 C2306 0.960 . S
C2294 H2286 0.929 . S
C2294 C2295 1.377 . S
C2294 C2296 1.384 . S
C2295 C2294 1.377 . S
C2295 C2301 1.390 . S
C2296 H2287 0.930 . S
C2296 C2294 1.384 . S
C2296 C2297 1.372 . S
C2297 C2296 1.372 . S
C2297 C2298 1.400 . S
C2297 C2302 1.490 . S
C2298 H2288 0.930 . S
C2298 C2297 1.400 . S
C2298 C2301 1.386 . S
H2299 C2315 0.930 . S
H2300 C2316 0.931 . S
C2301 H2289 0.929 . S
C2301 C2295 1.390 . S
C2301 C2298 1.386 . S
C2302 C2297 1.490 . S
C2302 C2304 1.395 . S
C2302 C2305 1.403 . S
H2303 C2309 0.930 . S
C2304 H2290 0.930 . S
C2304 C2302 1.395 . S
C2304 C2307 1.403 . S
C2305 C2302 1.403 . S
C2305 C2306 1.524 . S
C2305 C2309 1.400 . S
C2306 H2291 0.960 . S
C2306 H2292 0.960 . S
C2306 H2293 0.960 . S
C2306 C2305 1.524 . S
C2307 C2304 1.403 . S
C2307 C2308 1.392 . S
C2307 C2311 1.495 . S
C2308 C2307 1.392 . S
C2308 C2309 1.385 . S
C2308 C2310 1.478 . S
C2309 H2303 0.930 . S
C2309 C2305 1.400 . S
C2309 C2308 1.385 . S
C2310 C2308 1.478 . S
C2310 C2312 1.381 . S
C2310 C2316 1.383 . S
C2311 C2307 1.495 . S
C2311 H2317 0.959 . S
C2311 H2318 0.961 . S
C2311 H2319 0.960 . S
C2312 C2310 1.381 . S
C2312 C2313 1.394 . S
C2312 H2320 0.930 . S
C2313 C2312 1.394 . S
C2313 C2314 1.383 . S
C2313 H2321 0.929 . S
C2314 C2313 1.383 . S
C2314 C2315 1.377 . S
C2315 H2299 0.930 . S
C2315 C2314 1.377 . S
C2315 C2316 1.379 . S
C2316 H2300 0.931 . S
C2316 C2310 1.383 . S
C2316 C2315 1.379 . S
H2317 C2311 0.959 . S
H2318 C2311 0.961 . S
H2319 C2311 0.960 . S
H2320 C2312 0.930 . S
H2321 C2313 0.929 . S
H2322 C2330 0.929 . S
H2323 C2332 0.930 . S
H2324 C2334 0.930 . S
H2325 C2337 0.929 . S
H2326 C2340 0.930 . S
H2327 C2342 0.960 . S
H2328 C2342 0.960 . S
H2329 C2342 0.960 . S
C2330 H2322 0.929 . S
C2330 C2331 1.377 . S
C2330 C2332 1.384 . S
C2331 C2330 1.377 . S
C2331 C2337 1.390 . S
C2332 H2323 0.930 . S
C2332 C2330 1.384 . S
C2332 C2333 1.372 . S
C2333 C2332 1.372 . S
C2333 C2334 1.400 . S
C2333 C2338 1.490 . S
C2334 H2324 0.930 . S
C2334 C2333 1.400 . S
C2334 C2337 1.386 . S
H2335 C2351 0.930 . S
H2336 C2352 0.931 . S
C2337 H2325 0.929 . S
C2337 C2331 1.390 . S
C2337 C2334 1.386 . S
C2338 C2333 1.490 . S
C2338 C2340 1.395 . S
C2338 C2341 1.403 . S
H2339 C2345 0.930 . S
C2340 H2326 0.930 . S
C2340 C2338 1.395 . S
C2340 C2343 1.403 . S
C2341 C2338 1.403 . S
C2341 C2342 1.524 . S
C2341 C2345 1.400 . S
C2342 H2327 0.960 . S
C2342 H2328 0.960 . S
C2342 H2329 0.960 . S
C2342 C2341 1.524 . S
C2343 C2340 1.403 . S
C2343 C2344 1.392 . S
C2343 C2347 1.495 . S
C2344 C2343 1.392 . S
C2344 C2345 1.385 . S
C2344 C2346 1.478 . S
C2345 H2339 0.930 . S
C2345 C2341 1.400 . S
C2345 C2344 1.385 . S
C2346 C2344 1.478 . S
C2346 C2348 1.381 . S
C2346 C2352 1.383 . S
C2347 C2343 1.495 . S
C2347 H2353 0.959 . S
C2347 H2354 0.961 . S
C2347 H2355 0.960 . S
C2348 C2346 1.381 . S
C2348 C2349 1.394 . S
C2348 H2356 0.930 . S
C2349 C2348 1.394 . S
C2349 C2350 1.383 . S
C2349 H2357 0.929 . S
C2350 C2349 1.383 . S
C2350 C2351 1.377 . S
C2351 H2335 0.930 . S
C2351 C2350 1.377 . S
C2351 C2352 1.379 . S
C2352 H2336 0.931 . S
C2352 C2346 1.383 . S
C2352 C2351 1.379 . S
H2353 C2347 0.959 . S
H2354 C2347 0.961 . S
H2355 C2347 0.960 . S
H2356 C2348 0.930 . S
H2357 C2349 0.929 . S
H2358 C2366 0.929 . S
H2359 C2368 0.930 . S
H2360 C2370 0.930 . S
H2361 C2373 0.929 . S
H2362 C2376 0.930 . S
H2363 C2378 0.960 . S
H2364 C2378 0.960 . S
H2365 C2378 0.960 . S
C2366 H2358 0.929 . S
C2366 C2367 1.377 . S
C2366 C2368 1.384 . S
C2367 C2366 1.377 . S
C2367 C2373 1.390 . S
C2368 H2359 0.930 . S
C2368 C2366 1.384 . S
C2368 C2369 1.372 . S
C2369 C2368 1.372 . S
C2369 C2370 1.400 . S
C2369 C2374 1.490 . S
C2370 H2360 0.930 . S
C2370 C2369 1.400 . S
C2370 C2373 1.386 . S
H2371 C2387 0.930 . S
H2372 C2388 0.931 . S
C2373 H2361 0.929 . S
C2373 C2367 1.390 . S
C2373 C2370 1.386 . S
C2374 C2369 1.490 . S
C2374 C2376 1.395 . S
C2374 C2377 1.403 . S
H2375 C2381 0.930 . S
C2376 H2362 0.930 . S
C2376 C2374 1.395 . S
C2376 C2379 1.403 . S
C2377 C2374 1.403 . S
C2377 C2378 1.524 . S
C2377 C2381 1.400 . S
C2378 H2363 0.960 . S
C2378 H2364 0.960 . S
C2378 H2365 0.960 . S
C2378 C2377 1.524 . S
C2379 C2376 1.403 . S
C2379 C2380 1.392 . S
C2379 C2383 1.495 . S
C2380 C2379 1.392 . S
C2380 C2381 1.385 . S
C2380 C2382 1.478 . S
C2381 H2375 0.930 . S
C2381 C2377 1.400 . S
C2381 C2380 1.385 . S
C2382 C2380 1.478 . S
C2382 C2384 1.381 . S
C2382 C2388 1.383 . S
C2383 C2379 1.495 . S
C2383 H2389 0.959 . S
C2383 H2390 0.961 . S
C2383 H2391 0.960 . S
C2384 C2382 1.381 . S
C2384 C2385 1.394 . S
C2384 H2392 0.930 . S
C2385 C2384 1.394 . S
C2385 C2386 1.383 . S
C2385 H2393 0.929 . S
C2386 C2385 1.383 . S
C2386 C2387 1.377 . S
C2387 H2371 0.930 . S
C2387 C2386 1.377 . S
C2387 C2388 1.379 . S
C2388 H2372 0.931 . S
C2388 C2382 1.383 . S
C2388 C2387 1.379 . S
H2389 C2383 0.959 . S
H2390 C2383 0.961 . S
H2391 C2383 0.960 . S
H2392 C2384 0.930 . S
H2393 C2385 0.929 . S
H2394 C2402 0.929 . S
H2395 C2404 0.930 . S
H2396 C2406 0.930 . S
H2397 C2409 0.929 . S
H2398 C2412 0.930 . S
H2399 C2414 0.960 . S
H2400 C2414 0.960 . S
H2401 C2414 0.960 . S
C2402 H2394 0.929 . S
C2402 C2403 1.377 . S
C2402 C2404 1.384 . S
C2403 C2402 1.377 . S
C2403 C2409 1.390 . S
C2404 H2395 0.930 . S
C2404 C2402 1.384 . S
C2404 C2405 1.372 . S
C2405 C2404 1.372 . S
C2405 C2406 1.400 . S
C2405 C2410 1.490 . S
C2406 H2396 0.930 . S
C2406 C2405 1.400 . S
C2406 C2409 1.386 . S
H2407 C2423 0.930 . S
H2408 C2424 0.931 . S
C2409 H2397 0.929 . S
C2409 C2403 1.390 . S
C2409 C2406 1.386 . S
C2410 C2405 1.490 . S
C2410 C2412 1.395 . S
C2410 C2413 1.403 . S
H2411 C2417 0.930 . S
C2412 H2398 0.930 . S
C2412 C2410 1.395 . S
C2412 C2415 1.403 . S
C2413 C2410 1.403 . S
C2413 C2414 1.524 . S
C2413 C2417 1.400 . S
C2414 H2399 0.960 . S
C2414 H2400 0.960 . S
C2414 H2401 0.960 . S
C2414 C2413 1.524 . S
C2415 C2412 1.403 . S
C2415 C2416 1.392 . S
C2415 C2419 1.495 . S
C2416 C2415 1.392 . S
C2416 C2417 1.385 . S
C2416 C2418 1.478 . S
C2417 H2411 0.930 . S
C2417 C2413 1.400 . S
C2417 C2416 1.385 . S
C2418 C2416 1.478 . S
C2418 C2420 1.381 . S
C2418 C2424 1.383 . S
C2419 C2415 1.495 . S
C2419 H2425 0.959 . S
C2419 H2426 0.961 . S
C2419 H2427 0.960 . S
C2420 C2418 1.381 . S
C2420 C2421 1.394 . S
C2420 H2428 0.930 . S
C2421 C2420 1.394 . S
C2421 C2422 1.383 . S
C2421 H2429 0.929 . S
C2422 C2421 1.383 . S
C2422 C2423 1.377 . S
C2423 H2407 0.930 . S
C2423 C2422 1.377 . S
C2423 C2424 1.379 . S
C2424 H2408 0.931 . S
C2424 C2418 1.383 . S
C2424 C2423 1.379 . S
H2425 C2419 0.959 . S
H2426 C2419 0.961 . S
H2427 C2419 0.960 . S
H2428 C2420 0.930 . S
H2429 C2421 0.929 . S
H2430 C2438 0.929 . S
H2431 C2440 0.930 . S
H2432 C2442 0.930 . S
H2433 C2445 0.929 . S
H2434 C2448 0.930 . S
H2435 C2450 0.960 . S
H2436 C2450 0.960 . S
H2437 C2450 0.960 . S
C2438 H2430 0.929 . S
C2438 C2439 1.377 . S
C2438 C2440 1.384 . S
C2439 C2438 1.377 . S
C2439 C2445 1.390 . S
C2440 H2431 0.930 . S
C2440 C2438 1.384 . S
C2440 C2441 1.372 . S
C2441 C2440 1.372 . S
C2441 C2442 1.400 . S
C2441 C2446 1.490 . S
C2442 H2432 0.930 . S
C2442 C2441 1.400 . S
C2442 C2445 1.386 . S
H2443 C2459 0.930 . S
H2444 C2460 0.931 . S
C2445 H2433 0.929 . S
C2445 C2439 1.390 . S
C2445 C2442 1.386 . S
C2446 C2441 1.490 . S
C2446 C2448 1.395 . S
C2446 C2449 1.403 . S
H2447 C2453 0.930 . S
C2448 H2434 0.930 . S
C2448 C2446 1.395 . S
C2448 C2451 1.403 . S
C2449 C2446 1.403 . S
C2449 C2450 1.524 . S
C2449 C2453 1.400 . S
C2450 H2435 0.960 . S
C2450 H2436 0.960 . S
C2450 H2437 0.960 . S
C2450 C2449 1.524 . S
C2451 C2448 1.403 . S
C2451 C2452 1.392 . S
C2451 C2455 1.495 . S
C2452 C2451 1.392 . S
C2452 C2453 1.385 . S
C2452 C2454 1.478 . S
C2453 H2447 0.930 . S
C2453 C2449 1.400 . S
C2453 C2452 1.385 . S
C2454 C2452 1.478 . S
C2454 C2456 1.381 . S
C2454 C2460 1.383 . S
C2455 C2451 1.495 . S
C2455 H2461 0.959 . S
C2455 H2462 0.961 . S
C2455 H2463 0.960 . S
C2456 C2454 1.381 . S
C2456 C2457 1.394 . S
C2456 H2464 0.930 . S
C2457 C2456 1.394 . S
C2457 C2458 1.383 . S
C2457 H2465 0.929 . S
C2458 C2457 1.383 . S
C2458 C2459 1.377 . S
C2459 H2443 0.930 . S
C2459 C2458 1.377 . S
C2459 C2460 1.379 . S
C2460 H2444 0.931 . S
C2460 C2454 1.383 . S
C2460 C2459 1.379 . S
H2461 C2455 0.959 . S
H2462 C2455 0.961 . S
H2463 C2455 0.960 . S
H2464 C2456 0.930 . S
H2465 C2457 0.929 . S
H2466 C2474 0.929 . S
H2467 C2476 0.930 . S
H2468 C2478 0.930 . S
H2469 C2481 0.929 . S
H2470 C2484 0.930 . S
H2471 C2486 0.960 . S
H2472 C2486 0.960 . S
H2473 C2486 0.960 . S
C2474 H2466 0.929 . S
C2474 C2475 1.377 . S
C2474 C2476 1.384 . S
C2475 C2474 1.377 . S
C2475 C2481 1.390 . S
C2476 H2467 0.930 . S
C2476 C2474 1.384 . S
C2476 C2477 1.372 . S
C2477 C2476 1.372 . S
C2477 C2478 1.400 . S
C2477 C2482 1.490 . S
C2478 H2468 0.930 . S
C2478 C2477 1.400 . S
C2478 C2481 1.386 . S
H2479 C2495 0.930 . S
H2480 C2496 0.931 . S
C2481 H2469 0.929 . S
C2481 C2475 1.390 . S
C2481 C2478 1.386 . S
C2482 C2477 1.490 . S
C2482 C2484 1.395 . S
C2482 C2485 1.403 . S
H2483 C2489 0.930 . S
C2484 H2470 0.930 . S
C2484 C2482 1.395 . S
C2484 C2487 1.403 . S
C2485 C2482 1.403 . S
C2485 C2486 1.524 . S
C2485 C2489 1.400 . S
C2486 H2471 0.960 . S
C2486 H2472 0.960 . S
C2486 H2473 0.960 . S
C2486 C2485 1.524 . S
C2487 C2484 1.403 . S
C2487 C2488 1.392 . S
C2487 C2491 1.495 . S
C2488 C2487 1.392 . S
C2488 C2489 1.385 . S
C2488 C2490 1.478 . S
C2489 H2483 0.930 . S
C2489 C2485 1.400 . S
C2489 C2488 1.385 . S
C2490 C2488 1.478 . S
C2490 C2492 1.381 . S
C2490 C2496 1.383 . S
C2491 C2487 1.495 . S
C2491 H2497 0.959 . S
C2491 H2498 0.961 . S
C2491 H2499 0.960 . S
C2492 C2490 1.381 . S
C2492 C2493 1.394 . S
C2492 H2500 0.930 . S
C2493 C2492 1.394 . S
C2493 C2494 1.383 . S
C2493 H2501 0.929 . S
C2494 C2493 1.383 . S
C2494 C2495 1.377 . S
C2495 H2479 0.930 . S
C2495 C2494 1.377 . S
C2495 C2496 1.379 . S
C2496 H2480 0.931 . S
C2496 C2490 1.383 . S
C2496 C2495 1.379 . S
H2497 C2491 0.959 . S
H2498 C2491 0.961 . S
H2499 C2491 0.960 . S
H2500 C2492 0.930 . S
H2501 C2493 0.929 . S
H2502 C2510 0.929 . S
H2503 C2512 0.930 . S
H2504 C2514 0.930 . S
H2505 C2517 0.929 . S
H2506 C2520 0.930 . S
H2507 C2522 0.960 . S
H2508 C2522 0.960 . S
H2509 C2522 0.960 . S
C2510 H2502 0.929 . S
C2510 C2511 1.377 . S
C2510 C2512 1.384 . S
C2511 C2510 1.377 . S
C2511 C2517 1.390 . S
C2512 H2503 0.930 . S
C2512 C2510 1.384 . S
C2512 C2513 1.372 . S
C2513 C2512 1.372 . S
C2513 C2514 1.400 . S
C2513 C2518 1.490 . S
C2514 H2504 0.930 . S
C2514 C2513 1.400 . S
C2514 C2517 1.386 . S
H2515 C2531 0.930 . S
H2516 C2532 0.931 . S
C2517 H2505 0.929 . S
C2517 C2511 1.390 . S
C2517 C2514 1.386 . S
C2518 C2513 1.490 . S
C2518 C2520 1.395 . S
C2518 C2521 1.403 . S
H2519 C2525 0.930 . S
C2520 H2506 0.930 . S
C2520 C2518 1.395 . S
C2520 C2523 1.403 . S
C2521 C2518 1.403 . S
C2521 C2522 1.524 . S
C2521 C2525 1.400 . S
C2522 H2507 0.960 . S
C2522 H2508 0.960 . S
C2522 H2509 0.960 . S
C2522 C2521 1.524 . S
C2523 C2520 1.403 . S
C2523 C2524 1.392 . S
C2523 C2527 1.495 . S
C2524 C2523 1.392 . S
C2524 C2525 1.385 . S
C2524 C2526 1.478 . S
C2525 H2519 0.930 . S
C2525 C2521 1.400 . S
C2525 C2524 1.385 . S
C2526 C2524 1.478 . S
C2526 C2528 1.381 . S
C2526 C2532 1.383 . S
C2527 C2523 1.495 . S
C2527 H2533 0.959 . S
C2527 H2534 0.961 . S
C2527 H2535 0.960 . S
C2528 C2526 1.381 . S
C2528 C2529 1.394 . S
C2528 H2536 0.930 . S
C2529 C2528 1.394 . S
C2529 C2530 1.383 . S
C2529 H2537 0.929 . S
C2530 C2529 1.383 . S
C2530 C2531 1.377 . S
C2531 H2515 0.930 . S
C2531 C2530 1.377 . S
C2531 C2532 1.379 . S
C2532 H2516 0.931 . S
C2532 C2526 1.383 . S
C2532 C2531 1.379 . S
H2533 C2527 0.959 . S
H2534 C2527 0.961 . S
H2535 C2527 0.960 . S
H2536 C2528 0.930 . S
H2537 C2529 0.929 . S
H2538 C2546 0.929 . S
H2539 C2548 0.930 . S
H2540 C2550 0.930 . S
H2541 C2553 0.929 . S
H2542 C2556 0.930 . S
H2543 C2558 0.960 . S
H2544 C2558 0.960 . S
H2545 C2558 0.960 . S
C2546 H2538 0.929 . S
C2546 C2547 1.377 . S
C2546 C2548 1.384 . S
C2547 C2546 1.377 . S
C2547 C2553 1.390 . S
C2548 H2539 0.930 . S
C2548 C2546 1.384 . S
C2548 C2549 1.372 . S
C2549 C2548 1.372 . S
C2549 C2550 1.400 . S
C2549 C2554 1.490 . S
C2550 H2540 0.930 . S
C2550 C2549 1.400 . S
C2550 C2553 1.386 . S
H2551 C2567 0.930 . S
H2552 C2568 0.931 . S
C2553 H2541 0.929 . S
C2553 C2547 1.390 . S
C2553 C2550 1.386 . S
C2554 C2549 1.490 . S
C2554 C2556 1.395 . S
C2554 C2557 1.403 . S
H2555 C2561 0.930 . S
C2556 H2542 0.930 . S
C2556 C2554 1.395 . S
C2556 C2559 1.403 . S
C2557 C2554 1.403 . S
C2557 C2558 1.524 . S
C2557 C2561 1.400 . S
C2558 H2543 0.960 . S
C2558 H2544 0.960 . S
C2558 H2545 0.960 . S
C2558 C2557 1.524 . S
C2559 C2556 1.403 . S
C2559 C2560 1.392 . S
C2559 C2563 1.495 . S
C2560 C2559 1.392 . S
C2560 C2561 1.385 . S
C2560 C2562 1.478 . S
C2561 H2555 0.930 . S
C2561 C2557 1.400 . S
C2561 C2560 1.385 . S
C2562 C2560 1.478 . S
C2562 C2564 1.381 . S
C2562 C2568 1.383 . S
C2563 C2559 1.495 . S
C2563 H2569 0.959 . S
C2563 H2570 0.961 . S
C2563 H2571 0.960 . S
C2564 C2562 1.381 . S
C2564 C2565 1.394 . S
C2564 H2572 0.930 . S
C2565 C2564 1.394 . S
C2565 C2566 1.383 . S
C2565 H2573 0.929 . S
C2566 C2565 1.383 . S
C2566 C2567 1.377 . S
C2567 H2551 0.930 . S
C2567 C2566 1.377 . S
C2567 C2568 1.379 . S
C2568 H2552 0.931 . S
C2568 C2562 1.383 . S
C2568 C2567 1.379 . S
H2569 C2563 0.959 . S
H2570 C2563 0.961 . S
H2571 C2563 0.960 . S
H2572 C2564 0.930 . S
H2573 C2565 0.929 . S
H2574 C2582 0.929 . S
H2575 C2584 0.930 . S
H2576 C2586 0.930 . S
H2577 C2589 0.929 . S
H2578 C2592 0.930 . S
H2579 C2594 0.960 . S
H2580 C2594 0.960 . S
H2581 C2594 0.960 . S
C2582 H2574 0.929 . S
C2582 C2583 1.377 . S
C2582 C2584 1.384 . S
C2583 C2582 1.377 . S
C2583 C2589 1.390 . S
C2584 H2575 0.930 . S
C2584 C2582 1.384 . S
C2584 C2585 1.372 . S
C2585 C2584 1.372 . S
C2585 C2586 1.400 . S
C2585 C2590 1.490 . S
C2586 H2576 0.930 . S
C2586 C2585 1.400 . S
C2586 C2589 1.386 . S
H2587 C2603 0.930 . S
H2588 C2604 0.931 . S
C2589 H2577 0.929 . S
C2589 C2583 1.390 . S
C2589 C2586 1.386 . S
C2590 C2585 1.490 . S
C2590 C2592 1.395 . S
C2590 C2593 1.403 . S
H2591 C2597 0.930 . S
C2592 H2578 0.930 . S
C2592 C2590 1.395 . S
C2592 C2595 1.403 . S
C2593 C2590 1.403 . S
C2593 C2594 1.524 . S
C2593 C2597 1.400 . S
C2594 H2579 0.960 . S
C2594 H2580 0.960 . S
C2594 H2581 0.960 . S
C2594 C2593 1.524 . S
C2595 C2592 1.403 . S
C2595 C2596 1.392 . S
C2595 C2599 1.495 . S
C2596 C2595 1.392 . S
C2596 C2597 1.385 . S
C2596 C2598 1.478 . S
C2597 H2591 0.930 . S
C2597 C2593 1.400 . S
C2597 C2596 1.385 . S
C2598 C2596 1.478 . S
C2598 C2600 1.381 . S
C2598 C2604 1.383 . S
C2599 C2595 1.495 . S
C2599 H2605 0.959 . S
C2599 H2606 0.961 . S
C2599 H2607 0.960 . S
C2600 C2598 1.381 . S
C2600 C2601 1.394 . S
C2600 H2608 0.930 . S
C2601 C2600 1.394 . S
C2601 C2602 1.383 . S
C2601 H2609 0.929 . S
C2602 C2601 1.383 . S
C2602 C2603 1.377 . S
C2603 H2587 0.930 . S
C2603 C2602 1.377 . S
C2603 C2604 1.379 . S
C2604 H2588 0.931 . S
C2604 C2598 1.383 . S
C2604 C2603 1.379 . S
H2605 C2599 0.959 . S
H2606 C2599 0.961 . S
H2607 C2599 0.960 . S
H2608 C2600 0.930 . S
H2609 C2601 0.929 . S
H2610 C2618 0.929 . S
H2611 C2620 0.930 . S
H2612 C2622 0.930 . S
H2613 C2625 0.929 . S
H2614 C2628 0.930 . S
H2615 C2630 0.960 . S
H2616 C2630 0.960 . S
H2617 C2630 0.960 . S
C2618 H2610 0.929 . S
C2618 C2619 1.377 . S
C2618 C2620 1.384 . S
C2619 C2618 1.377 . S
C2619 C2625 1.390 . S
C2620 H2611 0.930 . S
C2620 C2618 1.384 . S
C2620 C2621 1.372 . S
C2621 C2620 1.372 . S
C2621 C2622 1.400 . S
C2621 C2626 1.490 . S
C2622 H2612 0.930 . S
C2622 C2621 1.400 . S
C2622 C2625 1.386 . S
H2623 C2639 0.930 . S
H2624 C2640 0.931 . S
C2625 H2613 0.929 . S
C2625 C2619 1.390 . S
C2625 C2622 1.386 . S
C2626 C2621 1.490 . S
C2626 C2628 1.395 . S
C2626 C2629 1.403 . S
H2627 C2633 0.930 . S
C2628 H2614 0.930 . S
C2628 C2626 1.395 . S
C2628 C2631 1.403 . S
C2629 C2626 1.403 . S
C2629 C2630 1.524 . S
C2629 C2633 1.400 . S
C2630 H2615 0.960 . S
C2630 H2616 0.960 . S
C2630 H2617 0.960 . S
C2630 C2629 1.524 . S
C2631 C2628 1.403 . S
C2631 C2632 1.392 . S
C2631 C2635 1.495 . S
C2632 C2631 1.392 . S
C2632 C2633 1.385 . S
C2632 C2634 1.478 . S
C2633 H2627 0.930 . S
C2633 C2629 1.400 . S
C2633 C2632 1.385 . S
C2634 C2632 1.478 . S
C2634 C2636 1.381 . S
C2634 C2640 1.383 . S
C2635 C2631 1.495 . S
C2635 H2641 0.959 . S
C2635 H2642 0.961 . S
C2635 H2643 0.960 . S
C2636 C2634 1.381 . S
C2636 C2637 1.394 . S
C2636 H2644 0.930 . S
C2637 C2636 1.394 . S
C2637 C2638 1.383 . S
C2637 H2645 0.929 . S
C2638 C2637 1.383 . S
C2638 C2639 1.377 . S
C2639 H2623 0.930 . S
C2639 C2638 1.377 . S
C2639 C2640 1.379 . S
C2640 H2624 0.931 . S
C2640 C2634 1.383 . S
C2640 C2639 1.379 . S
H2641 C2635 0.959 . S
H2642 C2635 0.961 . S
H2643 C2635 0.960 . S
H2644 C2636 0.930 . S
H2645 C2637 0.929 . S
H2646 C2654 0.929 . S
H2647 C2656 0.930 . S
H2648 C2658 0.930 . S
H2649 C2661 0.929 . S
H2650 C2664 0.930 . S
H2651 C2666 0.960 . S
H2652 C2666 0.960 . S
H2653 C2666 0.960 . S
C2654 H2646 0.929 . S
C2654 C2655 1.377 . S
C2654 C2656 1.384 . S
C2655 C2654 1.377 . S
C2655 C2661 1.390 . S
C2656 H2647 0.930 . S
C2656 C2654 1.384 . S
C2656 C2657 1.372 . S
C2657 C2656 1.372 . S
C2657 C2658 1.400 . S
C2657 C2662 1.490 . S
C2658 H2648 0.930 . S
C2658 C2657 1.400 . S
C2658 C2661 1.386 . S
H2659 C2675 0.930 . S
H2660 C2676 0.931 . S
C2661 H2649 0.929 . S
C2661 C2655 1.390 . S
C2661 C2658 1.386 . S
C2662 C2657 1.490 . S
C2662 C2664 1.395 . S
C2662 C2665 1.403 . S
H2663 C2669 0.930 . S
C2664 H2650 0.930 . S
C2664 C2662 1.395 . S
C2664 C2667 1.403 . S
C2665 C2662 1.403 . S
C2665 C2666 1.524 . S
C2665 C2669 1.400 . S
C2666 H2651 0.960 . S
C2666 H2652 0.960 . S
C2666 H2653 0.960 . S
C2666 C2665 1.524 . S
C2667 C2664 1.403 . S
C2667 C2668 1.392 . S
C2667 C2671 1.495 . S
C2668 C2667 1.392 . S
C2668 C2669 1.385 . S
C2668 C2670 1.478 . S
C2669 H2663 0.930 . S
C2669 C2665 1.400 . S
C2669 C2668 1.385 . S
C2670 C2668 1.478 . S
C2670 C2672 1.381 . S
C2670 C2676 1.383 . S
C2671 C2667 1.495 . S
C2671 H2677 0.959 . S
C2671 H2678 0.961 . S
C2671 H2679 0.960 . S
C2672 C2670 1.381 . S
C2672 C2673 1.394 . S
C2672 H2680 0.930 . S
C2673 C2672 1.394 . S
C2673 C2674 1.383 . S
C2673 H2681 0.929 . S
C2674 C2673 1.383 . S
C2674 C2675 1.377 . S
C2675 H2659 0.930 . S
C2675 C2674 1.377 . S
C2675 C2676 1.379 . S
C2676 H2660 0.931 . S
C2676 C2670 1.383 . S
C2676 C2675 1.379 . S
H2677 C2671 0.959 . S
H2678 C2671 0.961 . S
H2679 C2671 0.960 . S
H2680 C2672 0.930 . S
H2681 C2673 0.929 . S
H2682 C2690 0.929 . S
H2683 C2692 0.930 . S
H2684 C2694 0.930 . S
H2685 C2697 0.929 . S
H2686 C2700 0.930 . S
H2687 C2702 0.960 . S
H2688 C2702 0.960 . S
H2689 C2702 0.960 . S
C2690 H2682 0.929 . S
C2690 C2691 1.377 . S
C2690 C2692 1.384 . S
C2691 C2690 1.377 . S
C2691 C2697 1.390 . S
C2692 H2683 0.930 . S
C2692 C2690 1.384 . S
C2692 C2693 1.372 . S
C2693 C2692 1.372 . S
C2693 C2694 1.400 . S
C2693 C2698 1.490 . S
C2694 H2684 0.930 . S
C2694 C2693 1.400 . S
C2694 C2697 1.386 . S
H2695 C2711 0.930 . S
H2696 C2712 0.931 . S
C2697 H2685 0.929 . S
C2697 C2691 1.390 . S
C2697 C2694 1.386 . S
C2698 C2693 1.490 . S
C2698 C2700 1.395 . S
C2698 C2701 1.403 . S
H2699 C2705 0.930 . S
C2700 H2686 0.930 . S
C2700 C2698 1.395 . S
C2700 C2703 1.403 . S
C2701 C2698 1.403 . S
C2701 C2702 1.524 . S
C2701 C2705 1.400 . S
C2702 H2687 0.960 . S
C2702 H2688 0.960 . S
C2702 H2689 0.960 . S
C2702 C2701 1.524 . S
C2703 C2700 1.403 . S
C2703 C2704 1.392 . S
C2703 C2707 1.495 . S
C2704 C2703 1.392 . S
C2704 C2705 1.385 . S
C2704 C2706 1.478 . S
C2705 H2699 0.930 . S
C2705 C2701 1.400 . S
C2705 C2704 1.385 . S
C2706 C2704 1.478 . S
C2706 C2708 1.381 . S
C2706 C2712 1.383 . S
C2707 C2703 1.495 . S
C2707 H2713 0.959 . S
C2707 H2714 0.961 . S
C2707 H2715 0.960 . S
C2708 C2706 1.381 . S
C2708 C2709 1.394 . S
C2708 H2716 0.930 . S
C2709 C2708 1.394 . S
C2709 C2710 1.383 . S
C2709 H2717 0.929 . S
C2710 C2709 1.383 . S
C2710 C2711 1.377 . S
C2711 H2695 0.930 . S
C2711 C2710 1.377 . S
C2711 C2712 1.379 . S
C2712 H2696 0.931 . S
C2712 C2706 1.383 . S
C2712 C2711 1.379 . S
H2713 C2707 0.959 . S
H2714 C2707 0.961 . S
H2715 C2707 0.960 . S
H2716 C2708 0.930 . S
H2717 C2709 0.929 . S
H2718 C2726 0.929 . S
H2719 C2728 0.930 . S
H2720 C2730 0.930 . S
H2721 C2733 0.929 . S
H2722 C2736 0.930 . S
H2723 C2738 0.960 . S
H2724 C2738 0.960 . S
H2725 C2738 0.960 . S
C2726 H2718 0.929 . S
C2726 C2727 1.377 . S
C2726 C2728 1.384 . S
C2727 C2726 1.377 . S
C2727 C2733 1.390 . S
C2728 H2719 0.930 . S
C2728 C2726 1.384 . S
C2728 C2729 1.372 . S
C2729 C2728 1.372 . S
C2729 C2730 1.400 . S
C2729 C2734 1.490 . S
C2730 H2720 0.930 . S
C2730 C2729 1.400 . S
C2730 C2733 1.386 . S
H2731 C2747 0.930 . S
H2732 C2748 0.931 . S
C2733 H2721 0.929 . S
C2733 C2727 1.390 . S
C2733 C2730 1.386 . S
C2734 C2729 1.490 . S
C2734 C2736 1.395 . S
C2734 C2737 1.403 . S
H2735 C2741 0.930 . S
C2736 H2722 0.930 . S
C2736 C2734 1.395 . S
C2736 C2739 1.403 . S
C2737 C2734 1.403 . S
C2737 C2738 1.524 . S
C2737 C2741 1.400 . S
C2738 H2723 0.960 . S
C2738 H2724 0.960 . S
C2738 H2725 0.960 . S
C2738 C2737 1.524 . S
C2739 C2736 1.403 . S
C2739 C2740 1.392 . S
C2739 C2743 1.495 . S
C2740 C2739 1.392 . S
C2740 C2741 1.385 . S
C2740 C2742 1.478 . S
C2741 H2735 0.930 . S
C2741 C2737 1.400 . S
C2741 C2740 1.385 . S
C2742 C2740 1.478 . S
C2742 C2744 1.381 . S
C2742 C2748 1.383 . S
C2743 C2739 1.495 . S
C2743 H2749 0.959 . S
C2743 H2750 0.961 . S
C2743 H2751 0.960 . S
C2744 C2742 1.381 . S
C2744 C2745 1.394 . S
C2744 H2752 0.930 . S
C2745 C2744 1.394 . S
C2745 C2746 1.383 . S
C2745 H2753 0.929 . S
C2746 C2745 1.383 . S
C2746 C2747 1.377 . S
C2747 H2731 0.930 . S
C2747 C2746 1.377 . S
C2747 C2748 1.379 . S
C2748 H2732 0.931 . S
C2748 C2742 1.383 . S
C2748 C2747 1.379 . S
H2749 C2743 0.959 . S
H2750 C2743 0.961 . S
H2751 C2743 0.960 . S
H2752 C2744 0.930 . S
H2753 C2745 0.929 . S
H2754 C2762 0.929 . S
H2755 C2764 0.930 . S
H2756 C2766 0.930 . S
H2757 C2769 0.929 . S
H2758 C2772 0.930 . S
H2759 C2774 0.960 . S
H2760 C2774 0.960 . S
H2761 C2774 0.960 . S
C2762 H2754 0.929 . S
C2762 C2763 1.377 . S
C2762 C2764 1.384 . S
C2763 C2762 1.377 . S
C2763 C2769 1.390 . S
C2764 H2755 0.930 . S
C2764 C2762 1.384 . S
C2764 C2765 1.372 . S
C2765 C2764 1.372 . S
C2765 C2766 1.400 . S
C2765 C2770 1.490 . S
C2766 H2756 0.930 . S
C2766 C2765 1.400 . S
C2766 C2769 1.386 . S
H2767 C2783 0.930 . S
H2768 C2784 0.931 . S
C2769 H2757 0.929 . S
C2769 C2763 1.390 . S
C2769 C2766 1.386 . S
C2770 C2765 1.490 . S
C2770 C2772 1.395 . S
C2770 C2773 1.403 . S
H2771 C2777 0.930 . S
C2772 H2758 0.930 . S
C2772 C2770 1.395 . S
C2772 C2775 1.403 . S
C2773 C2770 1.403 . S
C2773 C2774 1.524 . S
C2773 C2777 1.400 . S
C2774 H2759 0.960 . S
C2774 H2760 0.960 . S
C2774 H2761 0.960 . S
C2774 C2773 1.524 . S
C2775 C2772 1.403 . S
C2775 C2776 1.392 . S
C2775 C2779 1.495 . S
C2776 C2775 1.392 . S
C2776 C2777 1.385 . S
C2776 C2778 1.478 . S
C2777 H2771 0.930 . S
C2777 C2773 1.400 . S
C2777 C2776 1.385 . S
C2778 C2776 1.478 . S
C2778 C2780 1.381 . S
C2778 C2784 1.383 . S
C2779 C2775 1.495 . S
C2779 H2785 0.959 . S
C2779 H2786 0.961 . S
C2779 H2787 0.960 . S
C2780 C2778 1.381 . S
C2780 C2781 1.394 . S
C2780 H2788 0.930 . S
C2781 C2780 1.394 . S
C2781 C2782 1.383 . S
C2781 H2789 0.929 . S
C2782 C2781 1.383 . S
C2782 C2783 1.377 . S
C2783 H2767 0.930 . S
C2783 C2782 1.377 . S
C2783 C2784 1.379 . S
C2784 H2768 0.931 . S
C2784 C2778 1.383 . S
C2784 C2783 1.379 . S
H2785 C2779 0.959 . S
H2786 C2779 0.961 . S
H2787 C2779 0.960 . S
H2788 C2780 0.930 . S
H2789 C2781 0.929 . S
H2790 C2798 0.929 . S
H2791 C2800 0.930 . S
H2792 C2802 0.930 . S
H2793 C2805 0.929 . S
H2794 C2808 0.930 . S
H2795 C2810 0.960 . S
H2796 C2810 0.960 . S
H2797 C2810 0.960 . S
C2798 H2790 0.929 . S
C2798 C2799 1.377 . S
C2798 C2800 1.384 . S
C2799 C2798 1.377 . S
C2799 C2805 1.390 . S
C2800 H2791 0.930 . S
C2800 C2798 1.384 . S
C2800 C2801 1.372 . S
C2801 C2800 1.372 . S
C2801 C2802 1.400 . S
C2801 C2806 1.490 . S
C2802 H2792 0.930 . S
C2802 C2801 1.400 . S
C2802 C2805 1.386 . S
H2803 C2819 0.930 . S
H2804 C2820 0.931 . S
C2805 H2793 0.929 . S
C2805 C2799 1.390 . S
C2805 C2802 1.386 . S
C2806 C2801 1.490 . S
C2806 C2808 1.395 . S
C2806 C2809 1.403 . S
H2807 C2813 0.930 . S
C2808 H2794 0.930 . S
C2808 C2806 1.395 . S
C2808 C2811 1.403 . S
C2809 C2806 1.403 . S
C2809 C2810 1.524 . S
C2809 C2813 1.400 . S
C2810 H2795 0.960 . S
C2810 H2796 0.960 . S
C2810 H2797 0.960 . S
C2810 C2809 1.524 . S
C2811 C2808 1.403 . S
C2811 C2812 1.392 . S
C2811 C2815 1.495 . S
C2812 C2811 1.392 . S
C2812 C2813 1.385 . S
C2812 C2814 1.478 . S
C2813 H2807 0.930 . S
C2813 C2809 1.400 . S
C2813 C2812 1.385 . S
C2814 C2812 1.478 . S
C2814 C2816 1.381 . S
C2814 C2820 1.383 . S
C2815 C2811 1.495 . S
C2815 H2821 0.959 . S
C2815 H2822 0.961 . S
C2815 H2823 0.960 . S
C2816 C2814 1.381 . S
C2816 C2817 1.394 . S
C2816 H2824 0.930 . S
C2817 C2816 1.394 . S
C2817 C2818 1.383 . S
C2817 H2825 0.929 . S
C2818 C2817 1.383 . S
C2818 C2819 1.377 . S
C2819 H2803 0.930 . S
C2819 C2818 1.377 . S
C2819 C2820 1.379 . S
C2820 H2804 0.931 . S
C2820 C2814 1.383 . S
C2820 C2819 1.379 . S
H2821 C2815 0.959 . S
H2822 C2815 0.961 . S
H2823 C2815 0.960 . S
H2824 C2816 0.930 . S
H2825 C2817 0.929 . S
H2826 C2834 0.929 . S
H2827 C2836 0.930 . S
H2828 C2838 0.930 . S
H2829 C2841 0.929 . S
H2830 C2844 0.930 . S
H2831 C2846 0.960 . S
H2832 C2846 0.960 . S
H2833 C2846 0.960 . S
C2834 H2826 0.929 . S
C2834 C2835 1.377 . S
C2834 C2836 1.384 . S
C2835 C2834 1.377 . S
C2835 C2841 1.390 . S
C2836 H2827 0.930 . S
C2836 C2834 1.384 . S
C2836 C2837 1.372 . S
C2837 C2836 1.372 . S
C2837 C2838 1.400 . S
C2837 C2842 1.490 . S
C2838 H2828 0.930 . S
C2838 C2837 1.400 . S
C2838 C2841 1.386 . S
H2839 C2855 0.930 . S
H2840 C2856 0.931 . S
C2841 H2829 0.929 . S
C2841 C2835 1.390 . S
C2841 C2838 1.386 . S
C2842 C2837 1.490 . S
C2842 C2844 1.395 . S
C2842 C2845 1.403 . S
H2843 C2849 0.930 . S
C2844 H2830 0.930 . S
C2844 C2842 1.395 . S
C2844 C2847 1.403 . S
C2845 C2842 1.403 . S
C2845 C2846 1.524 . S
C2845 C2849 1.400 . S
C2846 H2831 0.960 . S
C2846 H2832 0.960 . S
C2846 H2833 0.960 . S
C2846 C2845 1.524 . S
C2847 C2844 1.403 . S
C2847 C2848 1.392 . S
C2847 C2851 1.495 . S
C2848 C2847 1.392 . S
C2848 C2849 1.385 . S
C2848 C2850 1.478 . S
C2849 H2843 0.930 . S
C2849 C2845 1.400 . S
C2849 C2848 1.385 . S
C2850 C2848 1.478 . S
C2850 C2852 1.381 . S
C2850 C2856 1.383 . S
C2851 C2847 1.495 . S
C2851 H2857 0.959 . S
C2851 H2858 0.961 . S
C2851 H2859 0.960 . S
C2852 C2850 1.381 . S
C2852 C2853 1.394 . S
C2852 H2860 0.930 . S
C2853 C2852 1.394 . S
C2853 C2854 1.383 . S
C2853 H2861 0.929 . S
C2854 C2853 1.383 . S
C2854 C2855 1.377 . S
C2855 H2839 0.930 . S
C2855 C2854 1.377 . S
C2855 C2856 1.379 . S
C2856 H2840 0.931 . S
C2856 C2850 1.383 . S
C2856 C2855 1.379 . S
H2857 C2851 0.959 . S
H2858 C2851 0.961 . S
H2859 C2851 0.960 . S
H2860 C2852 0.930 . S
H2861 C2853 0.929 . S
H2862 C2870 0.929 . S
H2863 C2872 0.930 . S
H2864 C2874 0.930 . S
H2865 C2877 0.929 . S
H2866 C2880 0.930 . S
H2867 C2882 0.960 . S
H2868 C2882 0.960 . S
H2869 C2882 0.960 . S
C2870 H2862 0.929 . S
C2870 C2871 1.377 . S
C2870 C2872 1.384 . S
C2871 C2870 1.377 . S
C2871 C2877 1.390 . S
C2872 H2863 0.930 . S
C2872 C2870 1.384 . S
C2872 C2873 1.372 . S
C2873 C2872 1.372 . S
C2873 C2874 1.400 . S
C2873 C2878 1.490 . S
C2874 H2864 0.930 . S
C2874 C2873 1.400 . S
C2874 C2877 1.386 . S
H2875 C2891 0.930 . S
H2876 C2892 0.931 . S
C2877 H2865 0.929 . S
C2877 C2871 1.390 . S
C2877 C2874 1.386 . S
C2878 C2873 1.490 . S
C2878 C2880 1.395 . S
C2878 C2881 1.403 . S
H2879 C2885 0.930 . S
C2880 H2866 0.930 . S
C2880 C2878 1.395 . S
C2880 C2883 1.403 . S
C2881 C2878 1.403 . S
C2881 C2882 1.524 . S
C2881 C2885 1.400 . S
C2882 H2867 0.960 . S
C2882 H2868 0.960 . S
C2882 H2869 0.960 . S
C2882 C2881 1.524 . S
C2883 C2880 1.403 . S
C2883 C2884 1.392 . S
C2883 C2887 1.495 . S
C2884 C2883 1.392 . S
C2884 C2885 1.385 . S
C2884 C2886 1.478 . S
C2885 H2879 0.930 . S
C2885 C2881 1.400 . S
C2885 C2884 1.385 . S
C2886 C2884 1.478 . S
C2886 C2888 1.381 . S
C2886 C2892 1.383 . S
C2887 C2883 1.495 . S
C2887 H2893 0.959 . S
C2887 H2894 0.961 . S
C2887 H2895 0.960 . S
C2888 C2886 1.381 . S
C2888 C2889 1.394 . S
C2888 H2896 0.930 . S
C2889 C2888 1.394 . S
C2889 C2890 1.383 . S
C2889 H2897 0.929 . S
C2890 C2889 1.383 . S
C2890 C2891 1.377 . S
C2891 H2875 0.930 . S
C2891 C2890 1.377 . S
C2891 C2892 1.379 . S
C2892 H2876 0.931 . S
C2892 C2886 1.383 . S
C2892 C2891 1.379 . S
H2893 C2887 0.959 . S
H2894 C2887 0.961 . S
H2895 C2887 0.960 . S
H2896 C2888 0.930 . S
H2897 C2889 0.929 . S
H2898 C2906 0.929 . S
H2899 C2908 0.930 . S
H2900 C2910 0.930 . S
H2901 C2913 0.929 . S
H2902 C2916 0.930 . S
H2903 C2918 0.960 . S
H2904 C2918 0.960 . S
H2905 C2918 0.960 . S
C2906 H2898 0.929 . S
C2906 C2907 1.377 . S
C2906 C2908 1.384 . S
C2907 C2906 1.377 . S
C2907 C2913 1.390 . S
C2908 H2899 0.930 . S
C2908 C2906 1.384 . S
C2908 C2909 1.372 . S
C2909 C2908 1.372 . S
C2909 C2910 1.400 . S
C2909 C2914 1.490 . S
C2910 H2900 0.930 . S
C2910 C2909 1.400 . S
C2910 C2913 1.386 . S
H2911 C2927 0.930 . S
H2912 C2928 0.931 . S
C2913 H2901 0.929 . S
C2913 C2907 1.390 . S
C2913 C2910 1.386 . S
C2914 C2909 1.490 . S
C2914 C2916 1.395 . S
C2914 C2917 1.403 . S
H2915 C2921 0.930 . S
C2916 H2902 0.930 . S
C2916 C2914 1.395 . S
C2916 C2919 1.403 . S
C2917 C2914 1.403 . S
C2917 C2918 1.524 . S
C2917 C2921 1.400 . S
C2918 H2903 0.960 . S
C2918 H2904 0.960 . S
C2918 H2905 0.960 . S
C2918 C2917 1.524 . S
C2919 C2916 1.403 . S
C2919 C2920 1.392 . S
C2919 C2923 1.495 . S
C2920 C2919 1.392 . S
C2920 C2921 1.385 . S
C2920 C2922 1.478 . S
C2921 H2915 0.930 . S
C2921 C2917 1.400 . S
C2921 C2920 1.385 . S
C2922 C2920 1.478 . S
C2922 C2924 1.381 . S
C2922 C2928 1.383 . S
C2923 C2919 1.495 . S
C2923 H2929 0.959 . S
C2923 H2930 0.961 . S
C2923 H2931 0.960 . S
C2924 C2922 1.381 . S
C2924 C2925 1.394 . S
C2924 H2932 0.930 . S
C2925 C2924 1.394 . S
C2925 C2926 1.383 . S
C2925 H2933 0.929 . S
C2926 C2925 1.383 . S
C2926 C2927 1.377 . S
C2927 H2911 0.930 . S
C2927 C2926 1.377 . S
C2927 C2928 1.379 . S
C2928 H2912 0.931 . S
C2928 C2922 1.383 . S
C2928 C2927 1.379 . S
H2929 C2923 0.959 . S
H2930 C2923 0.961 . S
H2931 C2923 0.960 . S
H2932 C2924 0.930 . S
H2933 C2925 0.929 . S
C999 C177 1.434 . S
C1018 C301 1.407 . S
C1035 C190 1.462 . S
C1054 C385 1.435 . S
C1071 C164 1.428 . S
C1090 C465 1.431 . S
C1107 C151 1.402 . S
C1126 C381 1.401 1_556 S
C1162 C469 1.378 . S
C1143 C125 1.412 . S
C1179 C138 1.377 . S
C1198 C297 1.377 1_556 S
C1234 C290 1.454 . S
C1215 C147 1.433 . S
C1270 C374 1.455 . S
C1251 C121 1.455 . S
C1287 C134 1.456 . S
C1306 C476 1.496 . S
C1323 C173 1.422 . S
C1342 C392 1.421 . S
C1359 C186 1.409 . S
C1378 C458 1.368 . S
C1414 C308 1.441 . S
C1395 C160 1.411 . S
C1450 C553 1.372 . S
C1431 C21 1.437 . S
C1467 C34 1.463 . S
C1486 C637 1.430 . S
C1503 C8 1.427 . S
C1522 C717 1.432 . S
C1539 C229 1.402 . S
C1558 C633 1.405 . S
C1575 C203 1.413 . S
C1594 C721 1.356 . S
C1611 C216 1.377 . S
C1630 C549 1.383 . S
C1647 C225 1.444 . S
C1666 C542 1.401 . S
C1683 C199 1.463 . S
C1702 C626 1.428 . S
C1738 C728 1.498 . S
C1719 C212 1.460 . S
C1755 C17 1.418 . S
C1774 C644 1.417 . S
C1810 C710 1.370 . S
C1791 C30 1.412 . S
C1827 C4 1.398 . S
C1846 C560 1.402 . S
C1882 C805 1.354 . S
C1863 C99 1.434 . S
C1899 C112 1.461 . S
C1918 C889 1.400 . S
C1954 C969 1.426 . S
C1935 C86 1.429 . S
C1990 C885 1.407 . S
C1971 C73 1.402 . S
C2026 C973 1.322 . S
C2007 C47 1.412 . S
C2043 C60 1.379 . S
C2062 C801 1.381 . S
C2079 C69 1.437 . S
C2098 C794 1.416 . S
C2115 C43 1.464 . S
C2134 C878 1.429 . S
C2170 C980 1.457 . S
C2151 C56 1.459 . S
C2187 C95 1.425 . S
C2206 C896 1.466 . S
C2223 C108 1.410 . S
C2242 C962 1.402 . S
C2259 C82 1.404 . S
C2278 C812 1.438 . S
C2295 C204 1.547 . S
C2314 C304 1.435 . S
C2350 C388 1.439 . S
C2331 C217 1.626 . S
C2367 C230 1.563 . S
C2386 C460 1.339 . S
C2403 C87 1.600 . S
C2422 C376 1.437 . S
C2439 C100 1.579 . S
C2458 C472 1.443 . S
C2494 C292 1.316 . S
C2475 C113 1.517 . S
C2511 C48 1.550 . S
C2530 C556 1.458 . S
C2547 C61 1.625 . S
C2566 C640 1.442 . S
C2583 C74 1.563 . S
C2602 C712 1.347 . S
C2619 C165 1.599 . S
C2638 C628 1.424 . S
C2674 C724 1.457 . S
C2655 C178 1.583 . S
C2691 C191 1.520 . S
C2710 C544 1.379 . S
C2727 C126 1.551 . S
C2746 C808 1.455 . S
C2763 C139 1.625 . S
C2782 C892 1.445 . S
C2818 C964 1.371 . S
C2799 C152 1.564 . S
C2835 C9 1.597 . S
C2854 C880 1.372 . S
C2871 C22 1.579 . S
C2890 C976 1.438 . S
C2907 C35 1.518 . S
C2926 C796 1.353 . S
