# Generated by pormake.
# Topology csq, (4,8)-cn, num edge types: 1
# Building blocks:
#     Node 0, Type 0, BuildingBlock: KUFVIS_clean_linker_0, # of connection points: 4
#     Node 1, Type 0, BuildingBlock: KUFVIS_clean_linker_0, # of connection points: 4
#     Node 2, Type 0, BuildingBlock: KUFVIS_clean_linker_0, # of connection points: 4
#     Node 3, Type 0, BuildingBlock: KUFVIS_clean_linker_0, # of connection points: 4
#     Node 4, Type 0, BuildingBlock: KUFVIS_clean_linker_0, # of connection points: 4
#     Node 5, Type 0, BuildingBlock: KUFVIS_clean_linker_0, # of connection points: 4
#     Node 6, Type 1, BuildingBlock: TAGTUT_clean_sbu_3, # of connection points: 8
#     Node 7, Type 1, BuildingBlock: TAGTUT_clean_sbu_3, # of connection points: 8
#     Node 8, Type 1, BuildingBlock: TAGTUT_clean_sbu_3, # of connection points: 8
#     Edge 9, Type (0, 1), BuildingBlock: OJICUG_clean_linker_0, # of connection points: 2
#     Edge 10, Type (0, 1), BuildingBlock: OJICUG_clean_linker_0, # of connection points: 2
#     Edge 11, Type (0, 1), BuildingBlock: OJICUG_clean_linker_0, # of connection points: 2
#     Edge 12, Type (0, 1), BuildingBlock: OJICUG_clean_linker_0, # of connection points: 2
#     Edge 13, Type (0, 1), BuildingBlock: OJICUG_clean_linker_0, # of connection points: 2
#     Edge 14, Type (0, 1), BuildingBlock: OJICUG_clean_linker_0, # of connection points: 2
#     Edge 15, Type (0, 1), BuildingBlock: OJICUG_clean_linker_0, # of connection points: 2
#     Edge 16, Type (0, 1), BuildingBlock: OJICUG_clean_linker_0, # of connection points: 2
#     Edge 17, Type (0, 1), BuildingBlock: OJICUG_clean_linker_0, # of connection points: 2
#     Edge 18, Type (0, 1), BuildingBlock: OJICUG_clean_linker_0, # of connection points: 2
#     Edge 19, Type (0, 1), BuildingBlock: OJICUG_clean_linker_0, # of connection points: 2
#     Edge 20, Type (0, 1), BuildingBlock: OJICUG_clean_linker_0, # of connection points: 2
#     Edge 21, Type (0, 1), BuildingBlock: OJICUG_clean_linker_0, # of connection points: 2
#     Edge 22, Type (0, 1), BuildingBlock: OJICUG_clean_linker_0, # of connection points: 2
#     Edge 23, Type (0, 1), BuildingBlock: OJICUG_clean_linker_0, # of connection points: 2
#     Edge 24, Type (0, 1), BuildingBlock: OJICUG_clean_linker_0, # of connection points: 2
#     Edge 25, Type (0, 1), BuildingBlock: OJICUG_clean_linker_0, # of connection points: 2
#     Edge 26, Type (0, 1), BuildingBlock: OJICUG_clean_linker_0, # of connection points: 2
#     Edge 27, Type (0, 1), BuildingBlock: OJICUG_clean_linker_0, # of connection points: 2
#     Edge 28, Type (0, 1), BuildingBlock: OJICUG_clean_linker_0, # of connection points: 2
#     Edge 29, Type (0, 1), BuildingBlock: OJICUG_clean_linker_0, # of connection points: 2
#     Edge 30, Type (0, 1), BuildingBlock: OJICUG_clean_linker_0, # of connection points: 2
#     Edge 31, Type (0, 1), BuildingBlock: OJICUG_clean_linker_0, # of connection points: 2
#     Edge 32, Type (0, 1), BuildingBlock: OJICUG_clean_linker_0, # of connection points: 2
# Relax obj value: 0.039
# Max RMSD: 0.108
# Mean RMSD: 0.085
data_MOF--net-csq--node1-TAGTUT_clean_sbu_3--node2-KUFVIS_clean_linker_0--edge1-OJICUG_clean_linker_0
_symmetry_space_group_name_H-M    P1
_symmetry_Int_Tables_number       1
_symmetry_cell_setting            triclinic
loop_
_symmetry_equiv_pos_as_xyz
'x, y, z'
_cell_length_a     39.79515
_cell_length_b     39.073205
_cell_length_c     14.677683
_cell_angle_alpha  93.056155
_cell_angle_beta   93.085265
_cell_angle_gamma 119.52628
loop_
_atom_site_label
_atom_site_type_symbol
_atom_site_fract_x
_atom_site_fract_y
_atom_site_fract_z
_atom_type_partial_charge
H0 H 0.40265 0.53217 0.18387 0.0
H1 H 0.29762 0.50173 0.30383 0.0
H2 H 0.30282 0.51194 0.0118 0.0
H3 H 0.23797 0.46748 0.01791 0.0
H4 H 0.14576 0.47256 0.14651 0.0
H5 H 0.25893 0.52876 0.28779 0.0
C6 C 0.37331 0.52741 0.1762 0.0
C7 C 0.35565 0.52354 0.08897 0.0
C8 C 0.35236 0.51929 0.25252 0.0
C9 C 0.31367 0.5098 0.24388 0.0
C10 C 0.29547 0.50891 0.15815 0.0
C11 C 0.31653 0.51467 0.07956 0.0
C12 C 0.2541 0.49962 0.15274 0.0
C13 C 0.22813 0.47748 0.0755 0.0
C14 C 0.18889 0.46726 0.07317 0.0
C15 C 0.17577 0.47951 0.14815 0.0
C16 C 0.2007 0.50107 0.22547 0.0
C17 C 0.23983 0.5114 0.22767 0.0
H18 H 0.67947 0.16468 0.06911 0.0
H19 H 0.77609 0.26087 0.22776 0.0
H20 H 0.77653 0.24353 0.93259 0.0
H21 H 0.81176 0.30829 0.94519 0.0
H22 H 0.91705 0.39628 0.09513 0.0
H23 H 0.83916 0.29569 0.22772 0.0
C24 C 0.70743 0.19155 0.07175 0.0
C25 C 0.72505 0.20302 -0.00857 0.0
C26 C 0.72636 0.2116 0.15612 0.0
C27 C 0.76288 0.24541 0.16105 0.0
C28 C 0.78151 0.25877 0.08059 0.0
C29 C 0.76258 0.23604 -0.00454 0.0
C30 C 0.81981 0.29646 0.08566 0.0
C31 C 0.83054 0.31824 0.00835 0.0
C32 C 0.86544 0.35386 0.01179 0.0
C33 C 0.88985 0.36867 0.09316 0.0
C34 C 0.8804 0.34803 0.1713 0.0
C35 C 0.84545 0.31183 0.16752 0.0
H36 H 0.57257 0.90563 0.03361 0.0
H37 H 0.57833 0.81264 0.16041 0.0
H38 H 0.56078 0.807 0.86406 0.0
H39 H 0.58851 0.77018 0.86826 0.0
H40 H 0.56954 0.66551 -0.01203 0.0
H41 H 0.54852 0.74837 0.14019 0.0
C42 C 0.57236 0.87773 0.02678 0.0
C43 C 0.56863 0.85931 0.93947 0.0
C44 C 0.57457 0.86008 0.10555 0.0
C45 C 0.57471 0.82441 0.09792 0.0
C46 C 0.56962 0.80414 0.01133 0.0
C47 C 0.56588 0.82187 0.93184 0.0
C48 C 0.56864 0.76505 0.00498 0.0
C49 C 0.57936 0.7523 0.92543 0.0
C50 C 0.57948 0.71656 0.91964 0.0
C51 C 0.56918 0.69314 -0.00675 0.0
C52 C 0.55852 0.70466 0.07333 0.0
C53 C 0.55799 0.74049 0.07886 0.0
H54 H 0.91504 0.53423 -0.04011 0.0
H55 H 0.83608 0.54043 0.13537 0.0
H56 H 0.8227 0.54817 0.84224 0.0
H57 H 0.76147 0.5232 0.86245 0.0
H58 H 0.68936 0.54493 0.03368 0.0
H59 H 0.79866 0.56487 0.15046 0.0
C60 C 0.88846 0.53511 -0.03215 0.0
C61 C 0.86871 0.53848 0.89135 0.0
C62 C 0.8777 0.53782 0.055 0.0
C63 C 0.84426 0.54017 0.06649 0.0
C64 C 0.82249 0.54258 -0.00957 0.0
C65 C 0.83627 0.54333 0.90214 0.0
C66 C 0.78598 0.54427 0.0038 0.0
C67 C 0.75759 0.53304 0.92929 0.0
C68 C 0.72314 0.53358 0.94008 0.0
C69 C 0.71604 0.54434 0.02565 0.0
C70 C 0.74281 0.55485 0.10129 0.0
C71 C 0.77806 0.55551 0.09079 0.0
H72 H 0.37224 0.93909 0.0866 0.0
H73 H 0.3123 0.83394 0.22171 0.0
H74 H 0.26374 0.84448 -0.03963 0.0
H75 H 0.23577 0.77767 0.94914 0.0
H76 H 0.15903 0.69034 0.11681 0.0
H77 H 0.25013 0.80019 0.24519 0.0
C78 C 0.34726 0.90991 0.08826 0.0
C79 C 0.3182 0.89398 0.01505 0.0
C80 C 0.34493 0.88857 0.16307 0.0
C81 C 0.31308 0.8505 0.16428 0.0
C82 C 0.28297 0.83391 0.0919 0.0
C83 C 0.28613 0.85612 0.01699 0.0
C84 C 0.24812 0.79412 0.09643 0.0
C85 C 0.22691 0.76881 0.01635 0.0
C86 C 0.19375 0.73182 0.02296 0.0
C87 C 0.18347 0.71939 0.11024 0.0
C88 C 0.20443 0.74381 0.18955 0.0
C89 C 0.23565 0.78131 0.1826 0.0
H90 H 0.45761 0.34135 0.11038 0.0
H91 H 0.47056 0.26499 0.28877 0.0
H92 H 0.51284 0.27815 0.01884 0.0
H93 H 0.51463 0.22511 0.03925 0.0
H94 H 0.56976 0.18783 0.23841 0.0
H95 H 0.50501 0.24079 0.32803 0.0
C96 C 0.46564 0.31907 0.1223 0.0
C97 C 0.48192 0.30807 0.05261 0.0
C98 C 0.46377 0.30526 0.20927 0.0
C99 C 0.47492 0.27693 0.22321 0.0
C100 C 0.49354 0.26655 0.15687 0.0
C101 C 0.4973 0.28321 0.07113 0.0
C102 C 0.5116 0.24137 0.18004 0.0
C103 C 0.5234 0.22468 0.10973 0.0
C104 C 0.54386 0.20466 0.12935 0.0
C105 C 0.55302 0.20197 0.22125 0.0
C106 C 0.5359 0.21162 0.29107 0.0
C107 C 0.51632 0.23241 0.27126 0.0
C108 C 0.10327 0.50512 0.49419 0.0
C109 C 0.07813 0.44763 0.80913 0.0
C110 C 0.96725 0.44468 0.76478 0.0
Mg111 Mg 0.06593 0.55117 0.39276 0.0
Mg112 Mg 0.04057 0.60875 0.51072 0.0
O113 O 0.03583 0.55865 0.48901 0.0
Mg114 Mg 0.04725 0.53329 0.58817 0.0
O115 O 0.0597 0.50479 0.67977 0.0
Mg116 Mg 0.03168 0.44964 0.61575 0.0
Mg117 Mg 0.05061 0.50974 0.80092 0.0
C118 C 0.98742 0.56357 0.66401 0.0
O119 O 0.09056 0.5929 0.67851 0.0
O120 O 1.02923 0.56711 0.2973 0.0
O121 O 0.08118 0.5734 0.82172 0.0
O122 O 0.11306 0.61582 0.4158 0.0
O123 O 1.0103 0.60318 0.38297 0.0
O124 O 0.09998 0.65449 0.50641 0.0
O125 O 1.00362 0.47199 0.51028 0.0
O126 O 1.01875 0.487 0.36869 0.0
C127 C 0.99894 0.46207 0.42395 0.0
C128 C 1.00902 0.58425 0.30789 0.0
O129 O 0.99762 0.53688 0.6589 0.0
O130 O 0.06407 0.4338 0.72628 0.0
O131 O 1.00443 0.59552 0.62387 0.0
O132 O 0.97845 0.42933 0.70248 0.0
O133 O 0.07575 0.47597 0.85048 0.0
O134 O 0.98991 0.4788 0.80542 0.0
O135 O 0.09474 0.53261 0.50585 0.0
O136 O 0.08444 0.4724 0.5302 0.0
C137 C 0.12277 0.64951 0.4564 0.0
C138 C 0.0961 0.60037 0.76655 0.0
C139 C 0.5282 0.09222 0.48432 0.0
C140 C 0.63759 0.08624 0.35925 0.0
C141 C 0.57751 0.9599 0.40157 0.0
Mg142 Mg 0.47493 0.04704 0.64086 0.0
Mg143 Mg 0.49909 1.00369 0.7976 0.0
O144 O 0.49447 1.01017 0.67489 0.0
Mg145 Mg 0.5382 0.02687 0.5971 0.0
O146 O 0.57808 0.04408 0.51075 0.0
Mg147 Mg 0.54464 0.02531 0.39233 0.0
Mg148 Mg 0.62142 0.03698 0.52425 0.0
C149 C 0.54067 0.95807 0.72373 0.0
O150 O 0.58893 0.06802 0.70645 0.0
O151 O 0.42113 1.01031 0.71998 0.0
O152 O 0.64016 0.0626 0.66508 0.0
O153 O 0.5075 0.09019 0.77061 0.0
O154 O 0.4391 0.97804 0.81655 0.0
O155 O 0.53046 0.06151 0.86382 0.0
O156 O 0.49218 0.98898 0.47645 0.0
O157 O 0.44608 1.0029 0.51429 0.0
C158 C 0.45808 0.98461 0.46199 0.0
C159 C 0.41371 0.98532 0.77967 0.0
O160 O 0.54654 0.974 0.64683 0.0
O161 O 0.6012 0.06784 0.33236 0.0
O162 O 0.52541 0.96728 0.78837 0.0
O163 O 0.55655 0.97408 0.37223 0.0
O164 O 0.65192 0.07819 0.42938 0.0
O165 O 0.60453 0.97808 0.46645 0.0
O166 O 0.5288 0.0792 0.5622 0.0
O167 O 0.53384 0.07677 0.41246 0.0
C168 C 0.52731 0.09115 0.84343 0.0
C169 C 0.62481 0.07697 0.71876 0.0
C170 C 0.56813 0.59723 0.70084 0.0
C171 C 0.44974 0.49198 0.85407 0.0
C172 C 0.4922 0.41121 0.77928 0.0
Mg173 Mg 0.60483 0.58865 0.51577 0.0
Mg174 Mg 0.55168 0.51926 0.35227 0.0
O175 O 0.56869 0.53126 0.47639 0.0
Mg176 Mg 0.53281 0.51426 0.57639 0.0
O177 O 0.49992 0.50007 0.6805 0.0
Mg178 Mg 0.53807 0.51236 0.78697 0.0
Mg179 Mg 0.45425 0.4506 0.67318 0.0
C180 C 0.49642 0.4365 0.43047 0.0
O181 O 0.48158 0.51116 0.49652 0.0
O182 O 0.64622 0.58651 0.40958 0.0
O183 O 0.43052 0.45663 0.54201 0.0
O184 O 0.5774 0.61181 0.4067 0.0
O185 O 0.60797 0.53288 0.31126 0.0
O186 O 0.53667 0.56196 0.30541 0.0
O187 O 0.5795 0.51462 0.67381 0.0
O188 O 0.63057 0.56526 0.62146 0.0
C189 C 0.61613 0.53751 0.67467 0.0
C190 C 0.64147 0.56148 0.34245 0.0
O191 O 0.50728 0.44977 0.51529 0.0
O192 O 0.48712 0.50983 0.871 0.0
O193 O 0.50727 0.45852 0.36375 0.0
O194 O 0.5177 0.44672 0.80752 0.0
O195 O 0.43195 0.46734 0.78391 0.0
O196 O 0.46494 0.40406 0.71789 0.0
O197 O 0.55964 0.5806 0.61935 0.0
O198 O 0.56036 0.57717 0.77026 0.0
C199 C 0.5529 0.59833 0.33561 0.0
C200 C 0.44514 0.48609 0.49289 0.0
C201 C 0.17652 0.48657 0.3792 0.0
C202 C 0.18389 0.50964 0.30501 0.0
H203 H 0.14491 0.46687 0.49694 0.0
C204 C 0.16775 0.53442 0.29839 0.0
H205 H 0.1881 0.46673 0.38465 0.0
C206 C 0.14322 0.53481 0.36294 0.0
C207 C 0.13358 0.50955 0.43364 0.0
H208 H 0.17258 0.55196 0.24066 0.0
H209 H 0.13013 0.55315 0.35429 0.0
C210 C 0.1514 0.48632 0.44259 0.0
C211 C 0.72598 0.17155 0.27913 0.0
C212 C 0.70923 0.19156 0.2366 0.0
H213 H 0.71572 0.12101 0.34908 0.0
C214 C 0.6702 0.17985 0.24544 0.0
H215 H 0.75596 0.17992 0.27178 0.0
C216 C 0.64693 0.14532 0.28511 0.0
C217 C 0.6627 0.12278 0.31879 0.0
H218 H 0.6568 0.19485 0.21227 0.0
H219 H 0.61638 0.13572 0.28702 0.0
C220 C 0.70278 0.13729 0.32052 0.0
C221 C 0.57184 0.69365 0.23572 0.0
C222 C 0.54969 0.67904 0.15057 0.0
H223 H 0.59014 0.67967 0.36174 0.0
C224 C 0.52394 0.63816 0.13393 0.0
H225 H 0.5921 0.72495 0.25022 0.0
C226 C 0.52272 0.61216 0.19746 0.0
C227 C 0.5475 0.62632 0.27923 0.0
H228 H 0.50638 0.62609 0.06907 0.0
H229 H 0.504 0.58074 0.17966 0.0
C230 C 0.5708 0.66757 0.29938 0.0
C231 C 0.9244 0.52277 0.13531 0.0
C232 C 0.90635 0.54579 0.13169 0.0
H233 H 0.97243 0.5181 0.1903 0.0
C234 C 0.92248 0.58189 0.18573 0.0
H235 H 0.91249 0.49499 0.09323 0.0
C236 C 0.95711 0.59553 0.24024 0.0
C237 C 0.9761 0.57331 0.24074 0.0
H238 H 0.90945 0.60052 0.18201 0.0
H239 H 0.96914 0.6235 0.28158 0.0
C240 C 0.95922 0.5366 0.18862 0.0
C241 C 0.363 0.91165 0.32891 0.0
C242 C 0.37461 0.90784 0.24232 0.0
H243 H 0.38051 0.93933 0.46577 0.0
C244 C 0.41448 0.92679 0.2301 0.0
H245 H 0.3325 0.89766 0.3399 0.0
C246 C 0.44219 0.95037 0.3027 0.0
C247 C 0.43025 0.95612 0.38763 0.0
H248 H 0.42409 0.92425 0.16367 0.0
H249 H 0.47264 0.96557 0.29116 0.0
C250 C 0.39049 0.93583 0.40053 0.0
C251 C 0.485 0.33861 0.36857 0.0
C252 C 0.45901 0.32719 0.28902 0.0
H253 H 0.5165 0.38296 0.47994 0.0
C254 C 0.43616 0.34521 0.27798 0.0
H255 H 0.50305 0.32541 0.38019 0.0
C256 C 0.44467 0.37885 0.33452 0.0
C257 C 0.47518 0.39393 0.40434 0.0
H258 H 0.4149 0.33624 0.21948 0.0
H259 H 0.43043 0.39552 0.31729 0.0
C260 C 0.49283 0.37173 0.42633 0.0
C261 C 0.5957 0.91786 0.84761 0.0
C262 C 0.56571 0.87948 0.85857 0.0
H263 H 0.61159 0.97283 0.79105 0.0
C264 C 0.53025 0.86465 0.80497 0.0
H265 H 0.62318 0.93017 0.88895 0.0
C266 C 0.52362 0.8892 0.74902 0.0
C267 C 0.55253 0.92874 0.74453 0.0
H268 H 0.50646 0.83547 0.81321 0.0
H269 H 0.49469 0.87848 0.71636 0.0
C270 C 0.58922 0.94219 0.79087 0.0
C271 C 0.70908 0.55005 0.78777 0.0
C272 C 0.69563 0.52695 0.86134 0.0
H273 H 0.69429 0.57179 0.67128 0.0
C274 C 0.65554 0.50363 0.86747 0.0
H275 H 0.73988 0.56847 0.78221 0.0
C276 C 0.62931 0.50588 0.80481 0.0
C277 C 0.64294 0.53155 0.73551 0.0
H278 H 0.64467 0.48541 0.92379 0.0
H279 H 0.59863 0.48894 0.8132 0.0
C280 C 0.68293 0.55241 0.72538 0.0
C281 C 0.18516 0.6934 0.87061 0.0
C282 C 0.16921 0.70513 0.94086 0.0
H283 H 0.17391 0.65068 0.75713 0.0
C284 C 0.12862 0.68692 0.93933 0.0
H285 H 0.21632 0.70679 0.8702 0.0
C286 C 0.10463 0.65515 0.87521 0.0
C287 C 0.12052 0.64108 0.8101 0.0
H288 H 0.11541 0.69563 -0.00833 0.0
H289 H 0.07362 0.63974 0.88062 0.0
C290 C 0.16092 0.66147 0.80561 0.0
C291 C 0.54786 0.14482 0.07535 0.0
C292 C 0.54924 0.18039 0.05553 0.0
H293 H 0.54153 0.08993 0.02435 0.0
C294 C 0.55044 0.18916 -0.03664 0.0
H295 H 0.54596 0.13568 0.14397 0.0
C296 C 0.54571 0.16111 0.89295 0.0
C297 C 0.54127 0.12457 0.91389 0.0
H298 H 0.55301 0.21674 0.9449 0.0
H299 H 0.54386 0.16731 0.82237 0.0
C300 C 0.54477 0.11779 0.00571 0.0
C301 C 0.36115 0.4857 0.95463 0.0
C302 C 0.37719 0.52098 0.01169 0.0
H303 H 0.37164 0.44832 0.86328 0.0
C304 C 0.41728 0.54796 0.01268 0.0
H305 H 0.33069 0.46395 0.95387 0.0
C306 C 0.44123 0.53842 -0.03647 0.0
C307 C 0.42546 0.50203 0.91071 0.0
H308 H 0.43051 0.57533 0.05679 0.0
H309 H 0.47202 0.55934 -0.03257 0.0
C310 C 0.38496 0.47638 0.90466 0.0
C311 C 0.89262 0.41532 0.93267 0.0
C312 C 0.87906 0.37464 0.92907 0.0
H313 H 0.93082 0.46977 0.88038 0.0
C314 C 0.88675 0.35607 0.8551 0.0
H315 H 0.88654 0.43006 -0.01132 0.0
C316 C 0.91227 0.37877 0.79278 0.0
C317 C 0.93033 0.42019 0.80445 0.0
H318 H 0.87642 0.32462 0.85116 0.0
H319 H 0.9209 0.36418 0.74199 0.0
C320 C 0.91797 0.43796 0.87055 0.0
C321 C 0.91351 0.58035 0.78297 0.0
C322 C 0.88762 0.54223 0.80569 0.0
H323 H 0.966 0.61723 0.72287 0.0
C324 C 0.89244 0.51057 0.77276 0.0
H325 H 0.91115 0.60539 0.80975 0.0
C326 C 0.92466 0.51742 0.72629 0.0
C327 C 0.95251 0.55604 0.71065 0.0
H328 H 0.8734 0.48102 0.7913 0.0
H329 H 0.92835 0.49259 0.70522 0.0
C330 C 0.94557 0.58718 0.7356 0.0
C331 C 0.32999 0.89816 0.85171 0.0
C332 C 0.32531 0.91557 0.93247 0.0
H333 H 0.36277 0.90836 0.73547 0.0
C334 C 0.3396 0.95657 0.942 0.0
H335 H 0.3192 0.86663 0.84281 0.0
C336 C 0.36452 0.98045 0.88037 0.0
C337 C 0.37476 0.96324 0.80896 0.0
H338 H 0.33594 0.97048 0.00362 0.0
H339 H 0.3798 1.01222 0.89601 0.0
C340 C 0.35495 0.92204 0.79029 0.0
C341 C 0.45348 0.31952 0.90852 0.0
C342 C 0.4865 0.32733 -0.03442 0.0
H343 H 0.4295 0.33913 0.80243 0.0
C344 C 0.52246 0.35949 0.95014 0.0
H345 H 0.42529 0.2953 0.92005 0.0
C346 C 0.52484 0.38507 0.88391 0.0
C347 C 0.49135 0.37886 0.83088 0.0
H348 H 0.54822 0.36662 -0.00587 0.0
H349 H 0.5526 0.41109 0.87808 0.0
C350 C 0.45593 0.3447 0.84113 0.0
C351 C 0.12229 0.42086 -0.00044 0.0
C352 C 0.1616 0.44756 -0.00985 0.0
H353 H 0.06353 0.40002 0.94678 0.0
C354 C 0.17219 0.46298 0.90552 0.0
H355 H 0.11346 0.40771 0.0634 0.0
C356 C 0.14352 0.45726 0.83759 0.0
C357 C 0.10433 0.43644 0.85439 0.0
H358 H 0.20219 0.48347 0.89606 0.0
H359 H 0.15214 0.47345 0.77745 0.0
C360 C 0.09368 0.41607 0.93274 0.0
C361 C 0.71582 0.1522 0.86732 0.0
C362 C 0.70345 0.17697 0.90738 0.0
H363 H 0.70033 0.10032 0.77842 0.0
C364 C 0.66534 0.16893 0.8842 0.0
H365 H 0.74464 0.15707 0.8863 0.0
C366 C 0.63958 0.13589 0.82523 0.0
C367 C 0.65133 0.11011 0.7874 0.0
H368 H 0.65485 0.18713 0.91593 0.0
H369 H 0.61046 0.13064 0.80935 0.0
C370 C 0.69006 0.11916 0.80756 0.0
C371 C 0.61763 0.69153 0.84185 0.0
C372 C 0.58803 0.70116 0.83566 0.0
H373 H 0.63493 0.64996 0.79802 0.0
C374 C 0.55962 0.68464 0.76091 0.0
H375 H 0.63975 0.70401 0.8992 0.0
C376 C 0.55705 0.65384 0.70232 0.0
C377 C 0.58275 0.63958 0.71918 0.0
H378 H 0.53643 0.6916 0.75544 0.0
H379 H 0.53178 0.63758 0.65338 0.0
C380 C 0.61494 0.66074 0.78379 0.0
C381 C 0.49546 0.15802 0.38643 0.0
C382 C 0.53166 0.19114 0.37595 0.0
H383 H 0.46578 0.09971 0.4315 0.0
C384 C 0.5648 0.19516 0.42573 0.0
H385 H 0.46956 0.1537 0.34734 0.0
C386 C 0.56247 0.16441 0.47503 0.0
C387 C 0.52706 0.12907 0.47498 0.0
H388 H 0.59313 0.21993 0.41749 0.0
H389 H 0.58912 0.16636 0.50357 0.0
C390 C 0.49324 0.127 0.4346 0.0
C391 C 0.35605 0.47499 0.36064 0.0
C392 C 0.37016 0.51353 0.33546 0.0
H393 H 0.3695 0.43558 0.42904 0.0
C394 C 0.40726 0.54349 0.36985 0.0
H395 H 0.32766 0.4514 0.33309 0.0
C396 C 0.43152 0.53428 0.42107 0.0
C397 C 0.41871 0.49509 0.44009 0.0
H398 H 0.41862 0.57328 0.35009 0.0
H399 H 0.46065 0.55778 0.44375 0.0
C400 C 0.38024 0.46581 0.41327 0.0
C401 C 0.8992 0.38114 0.33218 0.0
C402 C 0.90836 0.36572 0.25461 0.0
H403 H 0.9215 0.42386 0.45016 0.0
C404 C 0.94718 0.37584 0.24749 0.0
H405 H 0.86957 0.37423 0.33863 0.0
C406 C 0.97668 0.40423 0.31036 0.0
C407 C 0.96805 0.42286 0.38247 0.0
H408 H 0.95506 0.36452 0.18826 0.0
H409 H 1.00657 0.41416 0.29793 0.0
C410 C 0.92892 0.4095 0.39605 0.0
C411 C 0.60701 0.8989 0.25619 0.0
C412 C 0.57346 0.87789 0.19534 0.0
H413 H 0.63445 0.94138 0.37315 0.0
C414 C 0.53937 0.87775 0.21503 0.0
H415 H 0.63353 0.89914 0.24176 0.0
C416 C 0.53964 0.90123 0.29005 0.0
C417 C 0.57418 0.92564 0.34597 0.0
H418 H 0.51314 0.86134 0.16903 0.0
H419 H 0.51356 0.90269 0.29989 0.0
C420 C 0.60737 0.92269 0.33156 0.0
C421 C 0.70526 0.52825 0.23301 0.0
C422 C 0.73025 0.56169 0.19008 0.0
H423 H 0.65692 0.50203 0.31375 0.0
C424 C 0.73027 0.5973 0.21087 0.0
H425 H 0.70393 0.50024 0.21614 0.0
C426 C 0.7034 0.59844 0.26744 0.0
C427 C 0.67559 0.56371 0.30166 0.0
H428 H 0.74844 0.62313 0.17631 0.0
H429 H 0.70213 0.62543 0.27748 0.0
C430 C 0.67789 0.52912 0.28737 0.0
C431 C 0.2021 0.70012 0.30802 0.0
C432 C 0.19379 0.72901 0.2796 0.0
H433 H 0.1872 0.65304 0.39348 0.0
C434 C 0.1702 0.73872 0.32981 0.0
H435 H 0.22057 0.69257 0.27027 0.0
C436 C 0.15118 0.71627 0.40086 0.0
C437 C 0.15533 0.68367 0.42099 0.0
H438 H 0.16371 0.76115 0.30869 0.0
H439 H 0.12971 0.72137 0.43163 0.0
C440 C 0.1833 0.67785 0.37903 0.0
loop_
_geom_bond_atom_site_label_1
_geom_bond_atom_site_label_2
_geom_bond_distance
_geom_bond_site_symmetry_2
_ccdc_geom_bond_type
H0 C6 0.930 . S
H1 C9 0.931 . S
H2 C11 0.931 . S
H3 C13 0.930 . S
H4 C15 0.930 . S
H5 C17 0.931 . S
C6 H0 0.930 . S
C6 C7 1.380 . S
C6 C8 1.394 . S
C7 C6 1.380 . S
C7 C11 1.382 . S
C8 C6 1.394 . S
C8 C9 1.400 . S
C9 H1 0.931 . S
C9 C8 1.400 . S
C9 C10 1.375 . S
C10 C9 1.375 . S
C10 C11 1.415 . S
C10 C12 1.501 . S
C11 H2 0.931 . S
C11 C7 1.382 . S
C11 C10 1.415 . S
C12 C10 1.501 . S
C12 C13 1.384 . S
C12 C17 1.408 . S
C13 H3 0.930 . S
C13 C12 1.384 . S
C13 C14 1.389 . S
C14 C13 1.389 . S
C14 C15 1.405 . S
C15 H4 0.930 . S
C15 C14 1.405 . S
C15 C16 1.364 . S
C16 C15 1.364 . S
C16 C17 1.400 . S
C17 H5 0.931 . S
C17 C12 1.408 . S
C17 C16 1.400 . S
H18 C24 0.930 . S
H19 C27 0.931 . S
H20 C29 0.931 1_556 S
H21 C31 0.930 1_556 S
H22 C33 0.930 . S
H23 C35 0.931 . S
C24 H18 0.930 . S
C24 C25 1.380 . S
C24 C26 1.394 . S
C25 C24 1.380 . S
C25 C29 1.382 . S
C26 C24 1.394 . S
C26 C27 1.400 . S
C27 H19 0.931 . S
C27 C26 1.400 . S
C27 C28 1.375 . S
C28 C27 1.375 . S
C28 C29 1.415 . S
C28 C30 1.501 . S
C29 H20 0.931 1_554 S
C29 C25 1.382 . S
C29 C28 1.415 . S
C30 C28 1.501 . S
C30 C31 1.384 . S
C30 C35 1.408 . S
C31 H21 0.930 1_554 S
C31 C30 1.384 . S
C31 C32 1.389 . S
C32 C31 1.389 . S
C32 C33 1.405 . S
C33 H22 0.930 . S
C33 C32 1.405 . S
C33 C34 1.364 . S
C34 C33 1.364 . S
C34 C35 1.400 . S
C35 H23 0.931 . S
C35 C30 1.408 . S
C35 C34 1.400 . S
H36 C42 0.930 . S
H37 C45 0.931 . S
H38 C47 0.931 . S
H39 C49 0.930 . S
H40 C51 0.930 . S
H41 C53 0.931 . S
C42 H36 0.930 . S
C42 C43 1.380 1_554 S
C42 C44 1.394 . S
C43 C42 1.380 1_556 S
C43 C47 1.382 . S
C44 C42 1.394 . S
C44 C45 1.400 . S
C45 H37 0.931 . S
C45 C44 1.400 . S
C45 C46 1.375 . S
C46 C45 1.375 . S
C46 C47 1.415 1_554 S
C46 C48 1.501 . S
C47 H38 0.931 . S
C47 C43 1.382 . S
C47 C46 1.415 1_556 S
C48 C46 1.501 . S
C48 C49 1.384 1_554 S
C48 C53 1.408 . S
C49 H39 0.930 . S
C49 C48 1.384 1_556 S
C49 C50 1.389 . S
C50 C49 1.389 . S
C50 C51 1.405 1_556 S
C51 H40 0.930 . S
C51 C50 1.405 1_554 S
C51 C52 1.364 . S
C52 C51 1.364 . S
C52 C53 1.400 . S
C53 H41 0.931 . S
C53 C48 1.408 . S
C53 C52 1.400 . S
H54 C60 0.930 . S
H55 C63 0.931 . S
H56 C65 0.931 . S
H57 C67 0.930 . S
H58 C69 0.930 . S
H59 C71 0.931 . S
C60 H54 0.930 . S
C60 C61 1.380 1_554 S
C60 C62 1.394 . S
C61 C60 1.380 1_556 S
C61 C65 1.382 . S
C62 C60 1.394 . S
C62 C63 1.400 . S
C63 H55 0.931 . S
C63 C62 1.400 . S
C63 C64 1.375 . S
C64 C63 1.375 . S
C64 C65 1.415 1_554 S
C64 C66 1.501 . S
C65 H56 0.931 . S
C65 C61 1.382 . S
C65 C64 1.415 1_556 S
C66 C64 1.501 . S
C66 C67 1.384 1_554 S
C66 C71 1.408 . S
C67 H57 0.930 . S
C67 C66 1.384 1_556 S
C67 C68 1.389 . S
C68 C67 1.389 . S
C68 C69 1.405 1_556 S
C69 H58 0.930 . S
C69 C68 1.405 1_554 S
C69 C70 1.364 . S
C70 C69 1.364 . S
C70 C71 1.400 . S
C71 H59 0.931 . S
C71 C66 1.408 . S
C71 C70 1.400 . S
H72 C78 0.930 . S
H73 C81 0.931 . S
H74 C83 0.931 1_556 S
H75 C85 0.930 1_556 S
H76 C87 0.930 . S
H77 C89 0.931 . S
C78 H72 0.930 . S
C78 C79 1.380 . S
C78 C80 1.394 . S
C79 C78 1.380 . S
C79 C83 1.382 . S
C80 C78 1.394 . S
C80 C81 1.400 . S
C81 H73 0.931 . S
C81 C80 1.400 . S
C81 C82 1.375 . S
C82 C81 1.375 . S
C82 C83 1.415 . S
C82 C84 1.501 . S
C83 H74 0.931 1_554 S
C83 C79 1.382 . S
C83 C82 1.415 . S
C84 C82 1.501 . S
C84 C85 1.384 . S
C84 C89 1.408 . S
C85 H75 0.930 1_554 S
C85 C84 1.384 . S
C85 C86 1.389 . S
C86 C85 1.389 . S
C86 C87 1.405 . S
C87 H76 0.930 . S
C87 C86 1.405 . S
C87 C88 1.364 . S
C88 C87 1.364 . S
C88 C89 1.400 . S
C89 H77 0.931 . S
C89 C84 1.408 . S
C89 C88 1.400 . S
H90 C96 0.930 . S
H91 C99 0.931 . S
H92 C101 0.931 . S
H93 C103 0.930 . S
H94 C105 0.930 . S
H95 C107 0.931 . S
C96 H90 0.930 . S
C96 C97 1.380 . S
C96 C98 1.394 . S
C97 C96 1.380 . S
C97 C101 1.382 . S
C98 C96 1.394 . S
C98 C99 1.400 . S
C99 H91 0.931 . S
C99 C98 1.400 . S
C99 C100 1.375 . S
C100 C99 1.375 . S
C100 C101 1.415 . S
C100 C102 1.501 . S
C101 H92 0.931 . S
C101 C97 1.382 . S
C101 C100 1.415 . S
C102 C100 1.501 . S
C102 C103 1.384 . S
C102 C107 1.408 . S
C103 H93 0.930 . S
C103 C102 1.384 . S
C103 C104 1.389 . S
C104 C103 1.389 . S
C104 C105 1.405 . S
C105 H94 0.930 . S
C105 C104 1.405 . S
C105 C106 1.364 . S
C106 C105 1.364 . S
C106 C107 1.400 . S
C107 H95 0.931 . S
C107 C102 1.408 . S
C107 C106 1.400 . S
C108 O135 1.312 . S
C108 O136 1.208 . S
C109 O130 1.331 . S
C109 O133 1.244 . S
C110 O132 1.264 . S
C110 O134 1.273 . S
Mg111 O113 1.936 1_455 S
Mg111 O120 2.081 1_455 S
Mg111 O122 2.023 . S
Mg111 O126 2.031 1_455 S
Mg111 O135 2.291 . S
Mg112 O113 1.963 . S
Mg112 O123 1.942 . S
Mg112 O124 1.955 1_655 S
Mg112 O131 1.986 . S
O113 Mg111 1.936 1_655 S
O113 Mg112 1.963 . S
O113 Mg114 1.915 1_655 S
Mg114 O113 1.915 1_455 S
Mg114 O115 1.915 . S
Mg114 O119 2.013 . S
Mg114 O125 2.114 1_455 S
Mg114 O129 2.013 1_455 S
Mg114 O135 2.114 . S
O115 Mg114 1.915 . S
O115 Mg116 1.936 . S
O115 Mg117 1.963 . S
Mg116 O115 1.936 . S
Mg116 O125 2.291 1_455 S
Mg116 O130 2.081 . S
Mg116 O132 2.023 1_455 S
Mg116 O136 2.031 . S
Mg117 O115 1.963 . S
Mg117 O121 1.986 . S
Mg117 O133 1.942 . S
Mg117 O134 1.955 1_455 S
C118 O129 1.191 . S
C118 O131 1.307 . S
O119 Mg114 2.013 . S
O119 C138 1.191 . S
O120 Mg111 2.081 1_655 S
O120 C128 1.331 . S
O121 Mg117 1.986 . S
O121 C138 1.307 . S
O122 Mg111 2.023 . S
O122 C137 1.264 . S
O123 Mg112 1.942 . S
O123 C128 1.244 . S
O124 Mg112 1.955 1_455 S
O124 C137 1.273 . S
O125 Mg114 2.114 1_655 S
O125 Mg116 2.291 1_655 S
O125 C127 1.312 . S
O126 Mg111 2.031 1_655 S
O126 C127 1.208 . S
C127 O125 1.312 . S
C127 O126 1.208 . S
C128 O120 1.331 . S
C128 O123 1.244 . S
O129 Mg114 2.013 1_655 S
O129 C118 1.191 . S
O130 C109 1.331 . S
O130 Mg116 2.081 . S
O131 Mg112 1.986 . S
O131 C118 1.307 . S
O132 C110 1.264 . S
O132 Mg116 2.023 1_655 S
O133 C109 1.244 . S
O133 Mg117 1.942 . S
O134 C110 1.273 . S
O134 Mg117 1.955 1_655 S
O135 C108 1.312 . S
O135 Mg111 2.291 . S
O135 Mg114 2.114 . S
O136 C108 1.208 . S
O136 Mg116 2.031 . S
C137 O122 1.264 . S
C137 O124 1.273 . S
C138 O119 1.191 . S
C138 O121 1.307 . S
C139 O166 1.312 . S
C139 O167 1.208 . S
C140 O161 1.331 . S
C140 O164 1.244 . S
C141 O163 1.264 . S
C141 O165 1.273 . S
Mg142 O144 1.936 1_545 S
Mg142 O151 2.081 1_545 S
Mg142 O153 2.023 . S
Mg142 O157 2.031 1_545 S
Mg142 O166 2.291 . S
Mg143 O144 1.963 . S
Mg143 O154 1.942 . S
Mg143 O155 1.955 1_565 S
Mg143 O162 1.986 . S
O144 Mg142 1.936 1_565 S
O144 Mg143 1.963 . S
O144 Mg145 1.915 1_565 S
Mg145 O144 1.915 1_545 S
Mg145 O146 1.915 . S
Mg145 O150 2.013 . S
Mg145 O156 2.114 1_545 S
Mg145 O160 2.013 1_545 S
Mg145 O166 2.114 . S
O146 Mg145 1.915 . S
O146 Mg147 1.936 . S
O146 Mg148 1.963 . S
Mg147 O146 1.936 . S
Mg147 O156 2.291 1_545 S
Mg147 O161 2.081 . S
Mg147 O163 2.023 1_545 S
Mg147 O167 2.031 . S
Mg148 O146 1.963 . S
Mg148 O152 1.986 . S
Mg148 O164 1.942 . S
Mg148 O165 1.955 1_545 S
C149 O160 1.191 . S
C149 O162 1.307 . S
O150 Mg145 2.013 . S
O150 C169 1.191 . S
O151 Mg142 2.081 1_565 S
O151 C159 1.331 . S
O152 Mg148 1.986 . S
O152 C169 1.307 . S
O153 Mg142 2.023 . S
O153 C168 1.264 . S
O154 Mg143 1.942 . S
O154 C159 1.244 . S
O155 Mg143 1.955 1_545 S
O155 C168 1.273 . S
O156 Mg145 2.114 1_565 S
O156 Mg147 2.291 1_565 S
O156 C158 1.312 . S
O157 Mg142 2.031 1_565 S
O157 C158 1.208 . S
C158 O156 1.312 . S
C158 O157 1.208 . S
C159 O151 1.331 . S
C159 O154 1.244 . S
O160 Mg145 2.013 1_565 S
O160 C149 1.191 . S
O161 C140 1.331 . S
O161 Mg147 2.081 . S
O162 Mg143 1.986 . S
O162 C149 1.307 . S
O163 C141 1.264 . S
O163 Mg147 2.023 1_565 S
O164 C140 1.244 . S
O164 Mg148 1.942 . S
O165 C141 1.273 . S
O165 Mg148 1.955 1_565 S
O166 C139 1.312 . S
O166 Mg142 2.291 . S
O166 Mg145 2.114 . S
O167 C139 1.208 . S
O167 Mg147 2.031 . S
C168 O153 1.264 . S
C168 O155 1.273 . S
C169 O150 1.191 . S
C169 O152 1.307 . S
C170 O197 1.312 . S
C170 O198 1.208 . S
C171 O192 1.331 . S
C171 O195 1.244 . S
C172 O194 1.264 . S
C172 O196 1.273 . S
Mg173 O175 1.936 . S
Mg173 O182 2.081 . S
Mg173 O184 2.023 . S
Mg173 O188 2.031 . S
Mg173 O197 2.291 . S
Mg174 O175 1.963 . S
Mg174 O185 1.942 . S
Mg174 O186 1.955 . S
Mg174 O193 1.986 . S
O175 Mg173 1.936 . S
O175 Mg174 1.963 . S
O175 Mg176 1.915 . S
Mg176 O175 1.915 . S
Mg176 O177 1.915 . S
Mg176 O181 2.013 . S
Mg176 O187 2.114 . S
Mg176 O191 2.013 . S
Mg176 O197 2.114 . S
O177 Mg176 1.915 . S
O177 Mg178 1.936 . S
O177 Mg179 1.963 . S
Mg178 O177 1.936 . S
Mg178 O187 2.291 . S
Mg178 O192 2.081 . S
Mg178 O194 2.023 . S
Mg178 O198 2.031 . S
Mg179 O177 1.963 . S
Mg179 O183 1.986 . S
Mg179 O195 1.942 . S
Mg179 O196 1.955 . S
C180 O191 1.191 . S
C180 O193 1.307 . S
O181 Mg176 2.013 . S
O181 C200 1.191 . S
O182 Mg173 2.081 . S
O182 C190 1.331 . S
O183 Mg179 1.986 . S
O183 C200 1.307 . S
O184 Mg173 2.023 . S
O184 C199 1.264 . S
O185 Mg174 1.942 . S
O185 C190 1.244 . S
O186 Mg174 1.955 . S
O186 C199 1.273 . S
O187 Mg176 2.114 . S
O187 Mg178 2.291 . S
O187 C189 1.312 . S
O188 Mg173 2.031 . S
O188 C189 1.208 . S
C189 O187 1.312 . S
C189 O188 1.208 . S
C190 O182 1.331 . S
C190 O185 1.244 . S
O191 Mg176 2.013 . S
O191 C180 1.191 . S
O192 C171 1.331 . S
O192 Mg178 2.081 . S
O193 Mg174 1.986 . S
O193 C180 1.307 . S
O194 C172 1.264 . S
O194 Mg178 2.023 . S
O195 C171 1.244 . S
O195 Mg179 1.942 . S
O196 C172 1.273 . S
O196 Mg179 1.955 . S
O197 C170 1.312 . S
O197 Mg173 2.291 . S
O197 Mg176 2.114 . S
O198 C170 1.208 . S
O198 Mg178 2.031 . S
C199 O184 1.264 . S
C199 O186 1.273 . S
C200 O181 1.191 . S
C200 O183 1.307 . S
C201 C202 1.387 . S
C201 H205 0.950 . S
C201 C210 1.390 . S
C202 C201 1.387 . S
C202 C204 1.387 . S
H203 C210 0.950 . S
C204 C202 1.387 . S
C204 C206 1.390 . S
C204 H208 0.950 . S
H205 C201 0.950 . S
C206 C204 1.390 . S
C206 C207 1.387 . S
C206 H209 0.950 . S
C207 C206 1.387 . S
C207 C210 1.387 . S
H208 C204 0.950 . S
H209 C206 0.950 . S
C210 C201 1.390 . S
C210 H203 0.950 . S
C210 C207 1.387 . S
C211 C212 1.387 . S
C211 H215 0.950 . S
C211 C220 1.390 . S
C212 C211 1.387 . S
C212 C214 1.387 . S
H213 C220 0.950 . S
C214 C212 1.387 . S
C214 C216 1.390 . S
C214 H218 0.950 . S
H215 C211 0.950 . S
C216 C214 1.390 . S
C216 C217 1.387 . S
C216 H219 0.950 . S
C217 C216 1.387 . S
C217 C220 1.387 . S
H218 C214 0.950 . S
H219 C216 0.950 . S
C220 C211 1.390 . S
C220 H213 0.950 . S
C220 C217 1.387 . S
C221 C222 1.387 . S
C221 H225 0.950 . S
C221 C230 1.390 . S
C222 C221 1.387 . S
C222 C224 1.387 . S
H223 C230 0.950 . S
C224 C222 1.387 . S
C224 C226 1.390 . S
C224 H228 0.950 . S
H225 C221 0.950 . S
C226 C224 1.390 . S
C226 C227 1.387 . S
C226 H229 0.950 . S
C227 C226 1.387 . S
C227 C230 1.387 . S
H228 C224 0.950 . S
H229 C226 0.950 . S
C230 C221 1.390 . S
C230 H223 0.950 . S
C230 C227 1.387 . S
C231 C232 1.387 . S
C231 H235 0.950 . S
C231 C240 1.390 . S
C232 C231 1.387 . S
C232 C234 1.387 . S
H233 C240 0.950 . S
C234 C232 1.387 . S
C234 C236 1.390 . S
C234 H238 0.950 . S
H235 C231 0.950 . S
C236 C234 1.390 . S
C236 C237 1.387 . S
C236 H239 0.950 . S
C237 C236 1.387 . S
C237 C240 1.387 . S
H238 C234 0.950 . S
H239 C236 0.950 . S
C240 C231 1.390 . S
C240 H233 0.950 . S
C240 C237 1.387 . S
C241 C242 1.387 . S
C241 H245 0.950 . S
C241 C250 1.390 . S
C242 C241 1.387 . S
C242 C244 1.387 . S
H243 C250 0.950 . S
C244 C242 1.387 . S
C244 C246 1.390 . S
C244 H248 0.950 . S
H245 C241 0.950 . S
C246 C244 1.390 . S
C246 C247 1.387 . S
C246 H249 0.950 . S
C247 C246 1.387 . S
C247 C250 1.387 . S
H248 C244 0.950 . S
H249 C246 0.950 . S
C250 C241 1.390 . S
C250 H243 0.950 . S
C250 C247 1.387 . S
C251 C252 1.387 . S
C251 H255 0.950 . S
C251 C260 1.390 . S
C252 C251 1.387 . S
C252 C254 1.387 . S
H253 C260 0.950 . S
C254 C252 1.387 . S
C254 C256 1.390 . S
C254 H258 0.950 . S
H255 C251 0.950 . S
C256 C254 1.390 . S
C256 C257 1.387 . S
C256 H259 0.950 . S
C257 C256 1.387 . S
C257 C260 1.387 . S
H258 C254 0.950 . S
H259 C256 0.950 . S
C260 C251 1.390 . S
C260 H253 0.950 . S
C260 C257 1.387 . S
C261 C262 1.387 . S
C261 H265 0.950 . S
C261 C270 1.390 . S
C262 C261 1.387 . S
C262 C264 1.387 . S
H263 C270 0.950 . S
C264 C262 1.387 . S
C264 C266 1.390 . S
C264 H268 0.950 . S
H265 C261 0.950 . S
C266 C264 1.390 . S
C266 C267 1.387 . S
C266 H269 0.950 . S
C267 C266 1.387 . S
C267 C270 1.387 . S
H268 C264 0.950 . S
H269 C266 0.950 . S
C270 C261 1.390 . S
C270 H263 0.950 . S
C270 C267 1.387 . S
C271 C272 1.387 . S
C271 H275 0.950 . S
C271 C280 1.390 . S
C272 C271 1.387 . S
C272 C274 1.387 . S
H273 C280 0.950 . S
C274 C272 1.387 . S
C274 C276 1.390 . S
C274 H278 0.950 . S
H275 C271 0.950 . S
C276 C274 1.390 . S
C276 C277 1.387 . S
C276 H279 0.950 . S
C277 C276 1.387 . S
C277 C280 1.387 . S
H278 C274 0.950 . S
H279 C276 0.950 . S
C280 C271 1.390 . S
C280 H273 0.950 . S
C280 C277 1.387 . S
C281 C282 1.387 . S
C281 H285 0.950 . S
C281 C290 1.390 . S
C282 C281 1.387 . S
C282 C284 1.387 . S
H283 C290 0.950 . S
C284 C282 1.387 . S
C284 C286 1.390 . S
C284 H288 0.950 . S
H285 C281 0.950 . S
C286 C284 1.390 . S
C286 C287 1.387 . S
C286 H289 0.950 . S
C287 C286 1.387 . S
C287 C290 1.387 . S
H288 C284 0.950 . S
H289 C286 0.950 . S
C290 C281 1.390 . S
C290 H283 0.950 . S
C290 C287 1.387 . S
C291 C292 1.387 . S
C291 H295 0.950 . S
C291 C300 1.390 . S
C292 C291 1.387 . S
C292 C294 1.387 1_554 S
H293 C300 0.950 . S
C294 C292 1.387 1_556 S
C294 C296 1.390 . S
C294 H298 0.950 . S
H295 C291 0.950 . S
C296 C294 1.390 . S
C296 C297 1.387 . S
C296 H299 0.950 . S
C297 C296 1.387 . S
C297 C300 1.387 1_556 S
H298 C294 0.950 . S
H299 C296 0.950 . S
C300 C291 1.390 . S
C300 H293 0.950 . S
C300 C297 1.387 1_554 S
C301 C302 1.387 . S
C301 H305 0.950 . S
C301 C310 1.390 . S
C302 C301 1.387 . S
C302 C304 1.387 1_554 S
H303 C310 0.950 . S
C304 C302 1.387 1_556 S
C304 C306 1.390 . S
C304 H308 0.950 . S
H305 C301 0.950 . S
C306 C304 1.390 . S
C306 C307 1.387 . S
C306 H309 0.950 . S
C307 C306 1.387 . S
C307 C310 1.387 1_556 S
H308 C304 0.950 . S
H309 C306 0.950 . S
C310 C301 1.390 . S
C310 H303 0.950 . S
C310 C307 1.387 1_554 S
C311 C312 1.387 . S
C311 H315 0.950 . S
C311 C320 1.390 . S
C312 C311 1.387 . S
C312 C314 1.387 1_556 S
H313 C320 0.950 . S
C314 C312 1.387 1_554 S
C314 C316 1.390 1_554 S
C314 H318 0.950 . S
H315 C311 0.950 . S
C316 C314 1.390 1_556 S
C316 C317 1.387 . S
C316 H319 0.950 . S
C317 C316 1.387 . S
C317 C320 1.387 . S
H318 C314 0.950 . S
H319 C316 0.950 . S
C320 C311 1.390 . S
C320 H313 0.950 . S
C320 C317 1.387 . S
C321 C322 1.387 . S
C321 H325 0.950 . S
C321 C330 1.390 . S
C322 C321 1.387 . S
C322 C324 1.387 . S
H323 C330 0.950 . S
C324 C322 1.387 . S
C324 C326 1.390 . S
C324 H328 0.950 . S
H325 C321 0.950 . S
C326 C324 1.390 . S
C326 C327 1.387 . S
C326 H329 0.950 . S
C327 C326 1.387 . S
C327 C330 1.387 . S
H328 C324 0.950 . S
H329 C326 0.950 . S
C330 C321 1.390 . S
C330 H323 0.950 . S
C330 C327 1.387 . S
C331 C332 1.387 . S
C331 H335 0.950 . S
C331 C340 1.390 . S
C332 C331 1.387 . S
C332 C334 1.387 1_556 S
H333 C340 0.950 . S
C334 C332 1.387 1_554 S
C334 C336 1.390 1_554 S
C334 H338 0.950 . S
H335 C331 0.950 . S
C336 C334 1.390 1_556 S
C336 C337 1.387 . S
C336 H339 0.950 1_556 S
C337 C336 1.387 . S
C337 C340 1.387 . S
H338 C334 0.950 . S
H339 C336 0.950 1_554 S
C340 C331 1.390 . S
C340 H333 0.950 . S
C340 C337 1.387 . S
C341 C342 1.387 1_556 S
C341 H345 0.950 . S
C341 C350 1.390 . S
C342 C341 1.387 1_554 S
C342 C344 1.387 . S
H343 C350 0.950 . S
C344 C342 1.387 . S
C344 C346 1.390 1_554 S
C344 H348 0.950 . S
H345 C341 0.950 . S
C346 C344 1.390 1_556 S
C346 C347 1.387 . S
C346 H349 0.950 . S
C347 C346 1.387 . S
C347 C350 1.387 . S
H348 C344 0.950 . S
H349 C346 0.950 . S
C350 C341 1.390 . S
C350 H343 0.950 . S
C350 C347 1.387 . S
C351 C352 1.387 1_556 S
C351 H355 0.950 . S
C351 C360 1.390 . S
C352 C351 1.387 1_554 S
C352 C354 1.387 . S
H353 C360 0.950 . S
C354 C352 1.387 . S
C354 C356 1.390 . S
C354 H358 0.950 . S
H355 C351 0.950 . S
C356 C354 1.390 . S
C356 C357 1.387 1_554 S
C356 H359 0.950 . S
C357 C356 1.387 1_556 S
C357 C360 1.387 . S
H358 C354 0.950 . S
H359 C356 0.950 . S
C360 C351 1.390 . S
C360 H353 0.950 . S
C360 C357 1.387 . S
C361 C362 1.387 . S
C361 H365 0.950 1_556 S
C361 C370 1.390 . S
C362 C361 1.387 . S
C362 C364 1.387 . S
H363 C370 0.950 . S
C364 C362 1.387 . S
C364 C366 1.390 . S
C364 H368 0.950 . S
H365 C361 0.950 1_554 S
C366 C364 1.390 . S
C366 C367 1.387 . S
C366 H369 0.950 . S
C367 C366 1.387 . S
C367 C370 1.387 . S
H368 C364 0.950 . S
H369 C366 0.950 . S
C370 C361 1.390 . S
C370 H363 0.950 . S
C370 C367 1.387 . S
C371 C372 1.387 . S
C371 H375 0.950 . S
C371 C380 1.390 . S
C372 C371 1.387 . S
C372 C374 1.387 . S
H373 C380 0.950 . S
C374 C372 1.387 . S
C374 C376 1.390 . S
C374 H378 0.950 . S
H375 C371 0.950 . S
C376 C374 1.390 . S
C376 C377 1.387 . S
C376 H379 0.950 . S
C377 C376 1.387 . S
C377 C380 1.387 . S
H378 C374 0.950 . S
H379 C376 0.950 . S
C380 C371 1.390 . S
C380 H373 0.950 . S
C380 C377 1.387 . S
C381 C382 1.387 . S
C381 H385 0.950 . S
C381 C390 1.390 . S
C382 C381 1.387 . S
C382 C384 1.387 . S
H383 C390 0.950 . S
C384 C382 1.387 . S
C384 C386 1.390 . S
C384 H388 0.950 . S
H385 C381 0.950 . S
C386 C384 1.390 . S
C386 C387 1.387 . S
C386 H389 0.950 . S
C387 C386 1.387 . S
C387 C390 1.387 . S
H388 C384 0.950 . S
H389 C386 0.950 . S
C390 C381 1.390 . S
C390 H383 0.950 . S
C390 C387 1.387 . S
C391 C392 1.387 . S
C391 H395 0.950 . S
C391 C400 1.390 . S
C392 C391 1.387 . S
C392 C394 1.387 . S
H393 C400 0.950 . S
C394 C392 1.387 . S
C394 C396 1.390 . S
C394 H398 0.950 . S
H395 C391 0.950 . S
C396 C394 1.390 . S
C396 C397 1.387 . S
C396 H399 0.950 . S
C397 C396 1.387 . S
C397 C400 1.387 . S
H398 C394 0.950 . S
H399 C396 0.950 . S
C400 C391 1.390 . S
C400 H393 0.950 . S
C400 C397 1.387 . S
C401 C402 1.387 . S
C401 H405 0.950 . S
C401 C410 1.390 . S
C402 C401 1.387 . S
C402 C404 1.387 . S
H403 C410 0.950 . S
C404 C402 1.387 . S
C404 C406 1.390 . S
C404 H408 0.950 . S
H405 C401 0.950 . S
C406 C404 1.390 . S
C406 C407 1.387 . S
C406 H409 0.950 . S
C407 C406 1.387 . S
C407 C410 1.387 . S
H408 C404 0.950 . S
H409 C406 0.950 . S
C410 C401 1.390 . S
C410 H403 0.950 . S
C410 C407 1.387 . S
C411 C412 1.387 . S
C411 H415 0.950 . S
C411 C420 1.390 . S
C412 C411 1.387 . S
C412 C414 1.387 . S
H413 C420 0.950 . S
C414 C412 1.387 . S
C414 C416 1.390 . S
C414 H418 0.950 . S
H415 C411 0.950 . S
C416 C414 1.390 . S
C416 C417 1.387 . S
C416 H419 0.950 . S
C417 C416 1.387 . S
C417 C420 1.387 . S
H418 C414 0.950 . S
H419 C416 0.950 . S
C420 C411 1.390 . S
C420 H413 0.950 . S
C420 C417 1.387 . S
C421 C422 1.387 . S
C421 H425 0.950 . S
C421 C430 1.390 . S
C422 C421 1.387 . S
C422 C424 1.387 . S
H423 C430 0.950 . S
C424 C422 1.387 . S
C424 C426 1.390 . S
C424 H428 0.950 . S
H425 C421 0.950 . S
C426 C424 1.390 . S
C426 C427 1.387 . S
C426 H429 0.950 . S
C427 C426 1.387 . S
C427 C430 1.387 . S
H428 C424 0.950 . S
H429 C426 0.950 . S
C430 C421 1.390 . S
C430 H423 0.950 . S
C430 C427 1.387 . S
C431 C432 1.387 . S
C431 H435 0.950 . S
C431 C440 1.390 . S
C432 C431 1.387 . S
C432 C434 1.387 . S
H433 C440 0.950 . S
C434 C432 1.387 . S
C434 C436 1.390 . S
C434 H438 0.950 . S
H435 C431 0.950 . S
C436 C434 1.390 . S
C436 C437 1.387 . S
C436 H439 0.950 . S
C437 C436 1.387 . S
C437 C440 1.387 . S
H438 C434 0.950 . S
H439 C436 0.950 . S
C440 C431 1.390 . S
C440 H433 0.950 . S
C440 C437 1.387 . S
C202 C16 1.752 . S
C207 C108 1.766 . S
C212 C26 1.473 . S
C217 C140 1.512 . S
C227 C199 1.797 . S
C222 C52 1.797 . S
C237 C128 1.400 . S
C232 C62 1.404 . S
C242 C80 1.720 . S
C247 C158 1.654 . S
C257 C180 1.401 . S
C252 C98 1.338 . S
C267 C149 1.787 . S
C262 C43 1.711 . S
C272 C68 1.410 . S
C277 C189 1.412 . S
C287 C138 1.682 . S
C282 C86 1.679 1_556 S
C292 C104 1.484 . S
C297 C168 1.470 . S
C302 C7 1.724 . S
C307 C171 1.725 . S
C317 C110 1.588 . S
C312 C32 1.553 1_556 S
C327 C118 1.697 . S
C322 C61 1.682 . S
C337 C159 1.462 . S
C332 C79 1.446 1_556 S
C347 C172 1.783 . S
C342 C97 1.816 . S
C357 C109 1.388 . S
C352 C14 1.408 . S
C367 C169 1.592 . S
C362 C25 1.617 1_556 S
C372 C50 1.319 . S
C377 C170 1.342 . S
C387 C139 1.684 . S
C382 C106 1.700 . S
C397 C200 1.343 . S
C392 C8 1.319 . S
C407 C127 1.583 . S
C402 C34 1.646 . S
C417 C141 1.465 . S
C412 C44 1.486 . S
C422 C70 1.725 . S
C427 C190 1.690 . S
C432 C88 1.539 . S
C437 C137 1.553 . S
