# Generated by pormake.
# Topology pyr, (3,6)-cn, num edge types: 1
# Building blocks:
#     Node 0, Type 0, BuildingBlock: INOVEN_clean_linker_0, # of connection points: 3
#     Node 1, Type 0, BuildingBlock: INOVEN_clean_linker_0, # of connection points: 3
#     Node 2, Type 0, BuildingBlock: INOVEN_clean_linker_0, # of connection points: 3
#     Node 3, Type 0, BuildingBlock: INOVEN_clean_linker_0, # of connection points: 3
#     Node 4, Type 0, BuildingBlock: INOVEN_clean_linker_0, # of connection points: 3
#     Node 5, Type 0, BuildingBlock: INOVEN_clean_linker_0, # of connection points: 3
#     Node 6, Type 0, BuildingBlock: INOVEN_clean_linker_0, # of connection points: 3
#     Node 7, Type 0, BuildingBlock: INOVEN_clean_linker_0, # of connection points: 3
#     Node 8, Type 1, BuildingBlock: MIDCAF_clean_sbu_0, # of connection points: 6
#     Node 9, Type 1, BuildingBlock: MIDCAF_clean_sbu_0, # of connection points: 6
#     Node 10, Type 1, BuildingBlock: MIDCAF_clean_sbu_0, # of connection points: 6
#     Node 11, Type 1, BuildingBlock: MIDCAF_clean_sbu_0, # of connection points: 6
#     Edge 12, Type (0, 1), BuildingBlock: XIVTED_clean_linker_0, # of connection points: 2
#     Edge 13, Type (0, 1), BuildingBlock: XIVTED_clean_linker_0, # of connection points: 2
#     Edge 14, Type (0, 1), BuildingBlock: XIVTED_clean_linker_0, # of connection points: 2
#     Edge 15, Type (0, 1), BuildingBlock: XIVTED_clean_linker_0, # of connection points: 2
#     Edge 16, Type (0, 1), BuildingBlock: XIVTED_clean_linker_0, # of connection points: 2
#     Edge 17, Type (0, 1), BuildingBlock: XIVTED_clean_linker_0, # of connection points: 2
#     Edge 18, Type (0, 1), BuildingBlock: XIVTED_clean_linker_0, # of connection points: 2
#     Edge 19, Type (0, 1), BuildingBlock: XIVTED_clean_linker_0, # of connection points: 2
#     Edge 20, Type (0, 1), BuildingBlock: XIVTED_clean_linker_0, # of connection points: 2
#     Edge 21, Type (0, 1), BuildingBlock: XIVTED_clean_linker_0, # of connection points: 2
#     Edge 22, Type (0, 1), BuildingBlock: XIVTED_clean_linker_0, # of connection points: 2
#     Edge 23, Type (0, 1), BuildingBlock: XIVTED_clean_linker_0, # of connection points: 2
#     Edge 24, Type (0, 1), BuildingBlock: XIVTED_clean_linker_0, # of connection points: 2
#     Edge 25, Type (0, 1), BuildingBlock: XIVTED_clean_linker_0, # of connection points: 2
#     Edge 26, Type (0, 1), BuildingBlock: XIVTED_clean_linker_0, # of connection points: 2
#     Edge 27, Type (0, 1), BuildingBlock: XIVTED_clean_linker_0, # of connection points: 2
#     Edge 28, Type (0, 1), BuildingBlock: XIVTED_clean_linker_0, # of connection points: 2
#     Edge 29, Type (0, 1), BuildingBlock: XIVTED_clean_linker_0, # of connection points: 2
#     Edge 30, Type (0, 1), BuildingBlock: XIVTED_clean_linker_0, # of connection points: 2
#     Edge 31, Type (0, 1), BuildingBlock: XIVTED_clean_linker_0, # of connection points: 2
#     Edge 32, Type (0, 1), BuildingBlock: XIVTED_clean_linker_0, # of connection points: 2
#     Edge 33, Type (0, 1), BuildingBlock: XIVTED_clean_linker_0, # of connection points: 2
#     Edge 34, Type (0, 1), BuildingBlock: XIVTED_clean_linker_0, # of connection points: 2
#     Edge 35, Type (0, 1), BuildingBlock: XIVTED_clean_linker_0, # of connection points: 2
# Relax obj value: 0.082
# Max RMSD: 0.176
# Mean RMSD: 0.131
data_MOF--net-pyr--node1-MIDCAF_clean_sbu_0--node2-INOVEN_clean_linker_0--edge1-XIVTED_clean_linker_0
_symmetry_space_group_name_H-M    P1
_symmetry_Int_Tables_number       1
_symmetry_cell_setting            triclinic
loop_
_symmetry_equiv_pos_as_xyz
'x, y, z'
_cell_length_a     34.384578
_cell_length_b     35.095824
_cell_length_c     36.392285
_cell_angle_alpha  90.396255
_cell_angle_beta   90.88717
_cell_angle_gamma 96.294044
loop_
_atom_site_label
_atom_site_type_symbol
_atom_site_fract_x
_atom_site_fract_y
_atom_site_fract_z
_atom_type_partial_charge
H0 H 0.19703 0.27261 0.29889 0.0
H1 H 0.27796 0.18811 0.28711 0.0
H2 H 0.27779 0.28114 0.21042 0.0
N3 N 0.21818 0.31322 0.24199 0.0
N4 N 0.22708 0.33077 0.21306 0.0
C5 C 0.22131 0.26167 0.28519 0.0
C6 C 0.23624 0.22835 0.29788 0.0
C7 C 0.236 0.28062 0.25386 0.0
C8 C 0.26631 0.26613 0.23448 0.0
C9 C 0.28153 0.23227 0.24594 0.0
C10 C 0.26655 0.21402 0.27801 0.0
H11 H 0.29016 0.77398 0.7141 0.0
H12 H 0.36354 0.77148 0.81099 0.0
H13 H 0.28042 0.8542 0.80168 0.0
N14 N 0.25074 0.82922 0.73544 0.0
N15 N 0.23489 0.85785 0.74541 0.0
C16 C 0.29914 0.78431 0.74138 0.0
C17 C 0.32966 0.76886 0.76036 0.0
C18 C 0.28086 0.81441 0.75638 0.0
C19 C 0.29351 0.82989 0.79083 0.0
C20 C 0.32388 0.81495 0.81061 0.0
C21 C 0.34109 0.78391 0.79541 0.0
H22 H 0.69667 0.26441 0.81384 0.0
H23 H 0.79015 0.25941 0.89308 0.0
H24 H 0.79308 0.35229 0.81612 0.0
N25 N 0.7291 0.32888 0.78077 0.0
N26 N 0.69559 0.32002 0.76762 0.0
C27 C 0.72502 0.27552 0.8251 0.0
C28 C 0.7408 0.25787 0.85572 0.0
C29 C 0.74487 0.30888 0.8102 0.0
C30 C 0.77992 0.32512 0.82649 0.0
C31 C 0.79607 0.30836 0.85729 0.0
C32 C 0.77719 0.27362 0.8704 0.0
H33 H 0.7381 0.71598 0.3022 0.0
H34 H 0.73195 0.81271 0.37441 0.0
H35 H 0.8214 0.81543 0.29309 0.0
N36 N 0.79613 0.74671 0.26253 0.0
N37 N 0.82609 0.76132 0.24678 0.0
C38 C 0.74816 0.745 0.31093 0.0
C39 C 0.73169 0.7613 0.34164 0.0
C40 C 0.77949 0.76502 0.2925 0.0
C41 C 0.7954 0.80133 0.30563 0.0
C42 C 0.77916 0.8183 0.3361 0.0
C43 C 0.74586 0.79895 0.35223 0.0
H44 H 0.89847 0.96852 0.86467 0.0
H45 H 0.97448 0.88019 0.88033 0.0
H46 H 0.8846 0.89549 0.95877 0.0
N47 N 0.85681 0.95505 0.92382 0.0
N48 N 0.84557 0.95499 0.95624 0.0
C49 C 0.90756 0.94488 0.88052 0.0
C50 C 0.93906 0.92583 0.86878 0.0
C51 C 0.88796 0.93429 0.91282 0.0
C52 C 0.89957 0.90366 0.93357 0.0
C53 C 0.93072 0.8838 0.92206 0.0
C54 C 0.95029 0.89505 0.88944 0.0
H55 H 0.57737 0.17014 0.40393 0.0
H56 H 0.6647 0.09567 0.37809 0.0
H57 H 0.6725 0.16025 0.47975 0.0
N58 N 0.60814 0.19648 0.46646 0.0
N59 N 0.62802 0.21517 0.4908 0.0
C60 C 0.60379 0.15749 0.4113 0.0
C61 C 0.61893 0.13197 0.38701 0.0
C62 C 0.62335 0.16841 0.44426 0.0
C63 C 0.65754 0.15208 0.454 0.0
C64 C 0.67246 0.1252 0.43057 0.0
C65 C 0.65346 0.11605 0.39657 0.0
H66 H 0.47855 0.68557 0.15469 0.0
H67 H 0.38232 0.65271 0.07996 0.0
H68 H 0.40413 0.5807 0.17136 0.0
N69 N 0.46633 0.62645 0.19865 0.0
N70 N 0.46649 0.59411 0.21251 0.0
C71 C 0.45444 0.66506 0.14544 0.0
C72 C 0.4321 0.67271 0.11424 0.0
C73 C 0.44501 0.63175 0.16577 0.0
C74 C 0.41259 0.60586 0.15502 0.0
C75 C 0.39001 0.61328 0.12402 0.0
C76 C 0.40019 0.64651 0.10353 0.0
H77 H 0.06023 0.38515 0.64254 0.0
H78 H 0.16512 0.41842 0.58249 0.0
H79 H 0.13062 0.49069 0.66947 0.0
N80 N 0.06703 0.44413 0.68851 0.0
N81 N 0.06311 0.47684 0.70042 0.0
C82 C 0.08532 0.4057 0.63707 0.0
C83 C 0.11135 0.39845 0.60913 0.0
C84 C 0.09193 0.43896 0.65863 0.0
C85 C 0.12501 0.46522 0.65236 0.0
C86 C 0.15164 0.45804 0.62502 0.0
C87 C 0.1445 0.42458 0.60338 0.0
Zn88 Zn 0.97765 0.08615 0.58186 0.0
Zn89 Zn 0.04838 0.99674 0.49885 0.0
Zn90 Zn 0.01439 0.04507 0.53934 0.0
C91 C 0.08796 0.07006 0.48695 0.0
C92 C 0.97216 0.99256 0.47298 0.0
O93 O 0.01863 0.02527 0.59795 0.0
O94 O 0.99315 0.06929 0.63073 0.0
C95 C 0.03057 0.1361 0.54308 0.0
O96 O 0.06151 0.08022 0.50866 0.0
O97 O 0.08935 0.035 0.4797 0.0
O98 O 0.00396 0.97977 0.46526 0.0
O99 O 0.97057 0.01614 0.5001 0.0
O100 O 0.00177 0.13584 0.56413 0.0
O101 O 0.04193 0.10443 0.53152 0.0
O102 O 0.95135 0.04201 0.52107 0.0
O103 O 0.92315 0.07128 0.56573 0.0
C104 C 0.92048 0.05333 0.53551 0.0
O105 O 0.04173 0.0039 0.57559 0.0
O106 O 0.06401 0.96199 0.53779 0.0
C107 C 0.00943 0.03885 0.62936 0.0
C108 C 0.05934 0.97373 0.57012 0.0
Zn109 Zn 0.46815 0.0675 0.01257 0.0
Zn110 Zn 0.55332 0.9979 0.10139 0.0
Zn111 Zn 0.51228 0.03198 0.05833 0.0
C112 C 0.60711 0.03635 0.0578 0.0
C113 C 0.51044 0.94037 0.0633 0.0
O114 O 0.48046 0.072 0.09225 0.0
O115 O 0.44832 0.10156 0.04996 0.0
C116 C 0.54558 0.08338 0.99001 0.0
O117 O 0.57478 0.04178 0.04119 0.0
O118 O 0.60621 0.02134 0.08919 0.0
O119 O 0.54062 0.94514 0.08358 0.0
O120 O 0.49351 0.96949 0.05268 0.0
O121 O 0.51122 0.08845 0.97992 0.0
O122 O 0.5514 0.06367 0.01892 0.0
O123 O 0.47043 0.98868 0.02852 0.0
O124 O 0.43276 0.02247 0.99482 0.0
C125 C 0.44182 0.99038 0.0054 0.0
O126 O 0.50669 0.05411 0.11574 0.0
O127 O 0.5329 0.01098 0.14928 0.0
C128 C 0.45709 0.09697 0.08336 0.0
C129 C 0.51561 0.04075 0.14739 0.0
Zn130 Zn 0.56314 0.58115 0.59743 0.0
Zn131 Zn 0.46307 0.48996 0.52075 0.0
Zn132 Zn 0.51083 0.53724 0.55724 0.0
C133 C 0.5072 0.44312 0.55631 0.0
C134 C 0.50551 0.5333 0.469 0.0
O135 O 0.4776 0.57051 0.59622 0.0
O136 O 0.52478 0.60217 0.62993 0.0
C137 C 0.57868 0.50716 0.61016 0.0
O138 O 0.52469 0.47672 0.56416 0.0
O139 O 0.47446 0.43994 0.53986 0.0
O140 O 0.48267 0.50281 0.47141 0.0
O141 O 0.51821 0.55188 0.49825 0.0
O142 O 0.59362 0.5409 0.61729 0.0
O143 O 0.5483 0.50119 0.5888 0.0
O144 O 0.5447 0.57695 0.51917 0.0
O145 O 0.58444 0.61358 0.55653 0.0
C146 C 0.57169 0.60505 0.52446 0.0
O147 O 0.45088 0.54563 0.5751 0.0
O148 O 0.41425 0.5099 0.53468 0.0
C149 C 0.48876 0.59398 0.62277 0.0
C150 C 0.41707 0.53331 0.56125 0.0
Zn151 Zn 0.07442 0.60404 0.99559 0.0
Zn152 Zn 0.98562 0.52205 0.08352 0.0
Zn153 Zn 0.0285 0.5629 0.03648 0.0
C154 C 0.06025 0.51542 0.10671 0.0
C155 C 0.97142 0.48743 0.01423 0.0
O156 O 0.01392 0.62383 0.03821 0.0
O157 O 0.06477 0.65574 0.01179 0.0
C158 C 0.12339 0.56698 0.03776 0.0
O159 O 0.066 0.53447 0.07667 0.0
O160 O 0.02612 0.50857 0.11901 0.0
O161 O 0.96471 0.48171 0.04787 0.0
O162 O 0.99362 0.51737 0.0041 0.0
O163 O 0.12495 0.5859 0.00842 0.0
O164 O 0.09022 0.55771 0.0532 0.0
O165 O 0.01653 0.54093 0.97974 0.0
O166 O 0.05013 0.58656 0.94809 0.0
C167 C 0.02688 0.5562 0.94881 0.0
O168 O 0.99043 0.60163 0.06373 0.0
O169 O 0.95161 0.56151 0.09702 0.0
C170 C 0.03247 0.65582 0.02773 0.0
C171 C 0.96131 0.59499 0.08553 0.0
H172 H 0.20438 0.25857 0.35975 0.0
H173 H 0.15793 0.05776 0.45838 0.0
H174 H 0.22705 0.15049 0.31128 0.0
H175 H 0.08015 0.14549 0.46916 0.0
H176 H 0.19747 0.09852 0.41606 0.0
H177 H 0.17108 0.22346 0.41024 0.0
C178 C 0.2025 0.22759 0.35948 0.0
C179 C 0.21859 0.20769 0.3306 0.0
C180 C 0.1721 0.10911 0.42817 0.0
C181 C 0.18172 0.16765 0.3894 0.0
C182 C 0.14953 0.08597 0.45247 0.0
C183 C 0.11553 0.0982 0.46746 0.0
C184 C 0.16099 0.14505 0.41884 0.0
C185 C 0.1064 0.13518 0.45886 0.0
C186 C 0.18367 0.20769 0.38855 0.0
C187 C 0.216 0.16749 0.33285 0.0
N188 N 0.1289 0.15732 0.43486 0.0
N189 N 0.19806 0.14893 0.36168 0.0
H190 H 0.28276 0.84605 0.86579 0.0
H191 H 0.47482 0.92776 0.98075 0.0
H192 H 0.40008 0.82602 0.83634 0.0
H193 H 0.36479 0.97552 0.98635 0.0
H194 H 0.44431 0.87765 0.93891 0.0
H195 H 0.30951 0.8819 0.92 0.0
C196 C 0.31409 0.84899 0.87068 0.0
C197 C 0.33913 0.83327 0.84595 0.0
C198 C 0.42666 0.89865 0.94989 0.0
C199 C 0.36985 0.87372 0.90861 0.0
C200 C 0.44392 0.9269 0.97416 0.0
C201 C 0.42216 0.95557 0.9872 0.0
C202 C 0.38741 0.89917 0.93867 0.0
C203 C 0.38252 0.95386 0.97689 0.0
C204 C 0.32929 0.86927 0.90182 0.0
C205 C 0.37944 0.83725 0.85455 0.0
N206 N 0.36647 0.92632 0.95306 0.0
N207 N 0.39352 0.85726 0.88496 0.0
H208 H 0.7356 0.37655 0.72803 0.0
H209 H 0.54061 0.44045 0.63622 0.0
H210 H 0.62184 0.31408 0.74248 0.0
H211 H 0.65549 0.5016 0.62488 0.0
H212 H 0.56989 0.38967 0.66924 0.0
H213 H 0.70717 0.41814 0.68423 0.0
C214 C 0.70458 0.37143 0.72174 0.0
C215 C 0.68073 0.34212 0.73917 0.0
C216 C 0.58873 0.41399 0.65918 0.0
C217 C 0.64789 0.38997 0.68916 0.0
C218 C 0.57207 0.44279 0.64016 0.0
C219 C 0.5958 0.47494 0.62755 0.0
C220 C 0.62932 0.41774 0.66596 0.0
C221 C 0.63622 0.47721 0.63416 0.0
C222 C 0.68832 0.39522 0.69669 0.0
C223 C 0.64092 0.33655 0.72965 0.0
N224 N 0.65168 0.44907 0.653 0.0
N225 N 0.62554 0.36055 0.70553 0.0
H226 H 0.89425 0.78328 0.21529 0.0
H227 H 0.88348 0.58996 0.09638 0.0
H228 H 0.79595 0.69584 0.21125 0.0
H229 H 0.98834 0.66905 0.10594 0.0
H230 H 0.84776 0.63515 0.12947 0.0
H231 H 0.92629 0.74803 0.16771 0.0
C232 C 0.87939 0.75685 0.20405 0.0
C233 C 0.84283 0.74222 0.21738 0.0
C234 C 0.87845 0.64303 0.12403 0.0
C235 C 0.87874 0.70197 0.16319 0.0
C236 C 0.89881 0.61726 0.10499 0.0
C237 C 0.93891 0.62575 0.09869 0.0
C238 C 0.89841 0.67743 0.13752 0.0
C239 C 0.95737 0.66157 0.11018 0.0
C240 C 0.89756 0.7368 0.17701 0.0
C241 C 0.8244 0.70798 0.20205 0.0
N242 N 0.93706 0.68597 0.12963 0.0
N243 N 0.84267 0.68899 0.17596 0.0
H244 H 0.28911 0.23271 0.17073 0.0
H245 H 0.44247 0.08107 0.15673 0.0
H246 H 0.34198 0.19109 0.26902 0.0
H247 H 0.42663 0.16429 0.0727 0.0
H248 H 0.40382 0.11662 0.19869 0.0
H249 H 0.33619 0.20309 0.1341 0.0
C250 C 0.31086 0.21789 0.18486 0.0
C251 C 0.31135 0.2149 0.22337 0.0
C252 C 0.40944 0.12731 0.17122 0.0
C253 C 0.36502 0.17942 0.18086 0.0
C254 C 0.43192 0.10729 0.14742 0.0
C255 C 0.43829 0.11985 0.11122 0.0
C256 C 0.3926 0.15958 0.15837 0.0
C257 C 0.42241 0.1533 0.10024 0.0
C258 C 0.33767 0.20064 0.16373 0.0
C259 C 0.33979 0.19387 0.2395 0.0
N260 N 0.40006 0.17165 0.12349 0.0
N261 N 0.36525 0.17671 0.21819 0.0
H262 H 0.20318 0.92262 0.75767 0.0
H263 H 0.07105 0.89845 0.57379 0.0
H264 H 0.19859 0.82579 0.68368 0.0
H265 H 0.09008 0.00447 0.63532 0.0
H266 H 0.10942 0.86799 0.61982 0.0
H267 H 0.15413 0.94994 0.7188 0.0
C268 C 0.19159 0.90712 0.73335 0.0
C269 C 0.20511 0.87227 0.72369 0.0
C270 C 0.10483 0.89779 0.62359 0.0
C271 C 0.14915 0.90283 0.67932 0.0
C272 C 0.0828 0.91516 0.59737 0.0
C273 C 0.07714 0.95399 0.60087 0.0
C274 C 0.12176 0.91944 0.6535 0.0
C275 C 0.09314 0.9743 0.63191 0.0
C276 C 0.16373 0.92262 0.71122 0.0
C277 C 0.18925 0.85296 0.69202 0.0
N278 N 0.11498 0.95686 0.65693 0.0
N279 N 0.16223 0.86858 0.67097 0.0
H280 H 0.80989 0.3083 0.93194 0.0
H281 H 0.94619 0.49953 0.9437 0.0
H282 H 0.85785 0.35833 0.83177 0.0
H283 H 0.9528 0.41131 0.0247 0.0
H284 H 0.91097 0.45182 0.90195 0.0
H285 H 0.85905 0.34845 0.96698 0.0
C286 C 0.83115 0.32695 0.917 0.0
C287 C 0.8293 0.32959 0.87847 0.0
C288 C 0.9209 0.44289 0.9286 0.0
C289 C 0.88488 0.3773 0.91923 0.0
C290 C 0.94127 0.46996 0.95221 0.0
C291 C 0.95308 0.45915 0.9873 0.0
C292 C 0.9113 0.40523 0.94085 0.0
C293 C 0.9442 0.42084 0.99783 0.0
C294 C 0.85908 0.35025 0.93727 0.0
C295 C 0.85729 0.35571 0.86136 0.0
N296 N 0.92344 0.39537 0.97489 0.0
N297 N 0.88351 0.37906 0.8819 0.0
H298 H 0.67354 0.70272 0.32203 0.0
H299 H 0.59249 0.68143 0.52515 0.0
H300 H 0.72566 0.76545 0.41647 0.0
H301 H 0.59041 0.58165 0.45512 0.0
H302 H 0.62684 0.71989 0.47766 0.0
H303 H 0.62993 0.66387 0.36373 0.0
C304 C 0.67582 0.70861 0.35126 0.0
C305 C 0.70317 0.7381 0.36543 0.0
C306 C 0.61834 0.68968 0.47243 0.0
C307 C 0.65279 0.69444 0.41277 0.0
C308 C 0.59875 0.66775 0.49945 0.0
C309 C 0.58822 0.62844 0.49378 0.0
C310 C 0.62764 0.67225 0.4394 0.0
C311 C 0.5971 0.6121 0.46003 0.0
C312 C 0.65082 0.68649 0.37491 0.0
C313 C 0.70437 0.74428 0.40369 0.0
N314 N 0.6165 0.63411 0.43395 0.0
N315 N 0.67949 0.7229 0.4258 0.0
H316 H 0.17021 0.36322 0.2495 0.0
H317 H 0.07371 0.50976 0.18017 0.0
H318 H 0.23815 0.37014 0.15079 0.0
H319 H 0.118 0.4791 0.07518 0.0
H320 H 0.11905 0.47097 0.21051 0.0
H321 H 0.1339 0.41389 0.22696 0.0
C322 C 0.17794 0.37596 0.22323 0.0
C323 C 0.20732 0.36248 0.20186 0.0
C324 C 0.11886 0.47221 0.18084 0.0
C325 C 0.16619 0.42187 0.17593 0.0
C326 C 0.09331 0.49495 0.16357 0.0
C327 C 0.09215 0.49757 0.12519 0.0
C328 C 0.14267 0.45086 0.1595 0.0
C329 C 0.11823 0.478 0.10491 0.0
C330 C 0.15737 0.40544 0.2104 0.0
C331 C 0.21576 0.37991 0.16798 0.0
N332 N 0.14216 0.45515 0.12228 0.0
N333 N 0.19507 0.40848 0.15586 0.0
H334 H 0.73657 0.24503 0.92995 0.0
H335 H 0.54865 0.09445 0.91616 0.0
H336 H 0.69083 0.19811 0.82592 0.0
H337 H 0.61701 0.11488 0.01607 0.0
H338 H 0.60078 0.13119 0.88219 0.0
H339 H 0.69429 0.19638 0.9616 0.0
C340 C 0.71828 0.22408 0.91358 0.0
C341 C 0.71749 0.22589 0.87497 0.0
C342 C 0.60469 0.12713 0.91144 0.0
C343 C 0.66772 0.17057 0.91156 0.0
C344 C 0.57493 0.1063 0.93082 0.0
C345 C 0.57871 0.1016 0.9689 0.0
C346 C 0.63809 0.14408 0.93043 0.0
C347 C 0.61323 0.11748 0.98665 0.0
C348 C 0.69385 0.19638 0.93184 0.0
C349 C 0.69209 0.19838 0.85565 0.0
N350 N 0.64143 0.13844 0.96733 0.0
N351 N 0.66791 0.17214 0.87415 0.0
H352 H 0.82177 0.88081 0.30425 0.0
H353 H 0.8987 0.97072 0.49808 0.0
H354 H 0.78444 0.83578 0.40984 0.0
H355 H 0.96634 0.98112 0.39921 0.0
H356 H 0.84392 0.93699 0.46266 0.0
H357 H 0.86305 0.93242 0.33617 0.0
C358 C 0.82178 0.88185 0.33398 0.0
C359 C 0.79968 0.85338 0.35418 0.0
C360 C 0.87051 0.94736 0.44863 0.0
C361 C 0.84608 0.91297 0.39069 0.0
C362 C 0.90155 0.96682 0.46874 0.0
C363 C 0.93689 0.97853 0.45142 0.0
C364 C 0.87503 0.93972 0.41105 0.0
C365 C 0.93951 0.9722 0.4135 0.0
C366 C 0.84515 0.9115 0.35212 0.0
C367 C 0.80031 0.85707 0.39276 0.0
N368 N 0.90907 0.95295 0.39456 0.0
N369 N 0.8233 0.88606 0.40967 0.0
H370 H 0.4077 0.75869 0.76733 0.0
H371 H 0.41585 0.61326 0.60233 0.0
H372 H 0.30113 0.71043 0.71214 0.0
H373 H 0.49888 0.62076 0.69279 0.0
H374 H 0.37373 0.65126 0.63828 0.0
H375 H 0.44284 0.71166 0.73648 0.0
C376 C 0.39137 0.73796 0.74923 0.0
C377 C 0.35105 0.73878 0.7427 0.0
C378 C 0.40088 0.64395 0.65039 0.0
C379 C 0.39197 0.68532 0.706 0.0
C380 C 0.42464 0.62185 0.63008 0.0
C381 C 0.46054 0.61314 0.64482 0.0
C382 C 0.41376 0.65825 0.68518 0.0
C383 C 0.47144 0.62675 0.6803 0.0
C384 C 0.41168 0.71119 0.73134 0.0
C385 C 0.33222 0.71159 0.71774 0.0
N386 N 0.44841 0.64889 0.69905 0.0
N387 N 0.35289 0.68624 0.70005 0.0
H388 H 0.97251 0.99788 0.85525 0.0
H389 H 0.99909 0.9611 0.64153 0.0
H390 H 0.95394 0.88488 0.80674 0.0
H391 H 0.02795 0.06993 0.69649 0.0
H392 H 0.99138 0.93008 0.7018 0.0
H393 H 1.00096 0.02253 0.79806 0.0
C394 C 0.97479 0.97821 0.83249 0.0
C395 C 0.96054 0.93944 0.83549 0.0
C396 C 1.00021 0.96062 0.70064 0.0
C397 C 0.99265 0.96746 0.76945 0.0
C398 C 0.00493 0.97824 0.66627 0.0
C399 C 0.01399 0.01813 0.66412 0.0
C400 C 0.00431 0.98323 0.73286 0.0
C401 C 0.02065 0.03913 0.69695 0.0
C402 C 0.99112 0.99223 0.79981 0.0
C403 C 0.96457 0.91502 0.80538 0.0
N404 N 0.01524 0.02154 0.72983 0.0
N405 N 0.97971 0.92955 0.77333 0.0
H406 H 0.64763 0.14452 0.31827 0.0
H407 H 0.48487 0.01633 0.2125 0.0
H408 H 0.544 0.09932 0.37539 0.0
H409 H 0.54678 0.11405 0.16007 0.0
H410 H 0.50464 0.04451 0.27265 0.0
H411 H 0.61275 0.13047 0.25945 0.0
C412 C 0.61757 0.1315 0.31829 0.0
C413 C 0.59864 0.12267 0.35145 0.0
C414 C 0.51289 0.06036 0.24802 0.0
C415 C 0.55874 0.10665 0.28475 0.0
C416 C 0.50131 0.04449 0.21379 0.0
C417 C 0.51407 0.06311 0.18149 0.0
C418 C 0.53858 0.09429 0.24975 0.0
C419 C 0.53604 0.0991 0.18445 0.0
C420 C 0.59757 0.12396 0.28489 0.0
C421 C 0.55953 0.1063 0.35024 0.0
N422 N 0.54862 0.11308 0.21804 0.0
N423 N 0.54098 0.09824 0.31737 0.0
H424 H 0.48285 0.52763 0.23888 0.0
H425 H 0.5081 0.60668 0.44291 0.0
H426 H 0.49028 0.64815 0.2648 0.0
H427 H 0.52332 0.49087 0.41081 0.0
H428 H 0.51019 0.62513 0.37786 0.0
H429 H 0.50563 0.51536 0.30123 0.0
C430 C 0.48997 0.55149 0.25773 0.0
C431 C 0.4847 0.58866 0.24697 0.0
C432 C 0.51394 0.59588 0.38513 0.0
C433 C 0.5098 0.57525 0.31852 0.0
C434 C 0.51296 0.58547 0.42219 0.0
C435 C 0.5154 0.54725 0.43195 0.0
C436 C 0.51673 0.56761 0.35796 0.0
C437 C 0.52108 0.52062 0.40424 0.0
C438 C 0.50295 0.54464 0.29326 0.0
C439 C 0.49406 0.61895 0.27216 0.0
N440 N 0.52107 0.53118 0.36851 0.0
N441 N 0.5056 0.61148 0.30706 0.0
H442 H 0.03759 0.54213 0.72039 0.0
H443 H 0.02655 0.48101 0.9282 0.0
H444 H 0.04298 0.42564 0.75473 0.0
H445 H 0.00124 0.59127 0.88878 0.0
H446 H 0.02124 0.45623 0.86483 0.0
H447 H 0.01307 0.55741 0.78082 0.0
C448 C 0.03271 0.51966 0.74059 0.0
C449 C 0.04231 0.48289 0.73285 0.0
C450 C 0.01586 0.48557 0.87013 0.0
C451 C 0.01557 0.49996 0.80238 0.0
C452 C 0.01866 0.49957 0.90627 0.0
C453 C 0.01438 0.53815 0.91342 0.0
C454 C 0.00948 0.51067 0.84119 0.0
C455 C 0.0049 0.56135 0.8842 0.0
C456 C 0.01882 0.52826 0.77508 0.0
C457 C 0.03582 0.45446 0.75975 0.0
N458 N 0.0033 0.54742 0.84932 0.0
N459 N 0.02352 0.46381 0.79367 0.0
H460 H 0.79092 0.98472 0.91272 0.0
H461 H 0.67938 0.05157 0.08911 0.0
H462 H 0.8282 0.97073 0.02491 0.0
H463 H 0.62124 0.02901 0.98412 0.0
H464 H 0.74122 0.03984 0.06153 0.0
H465 H 0.73503 0.01611 0.93481 0.0
C466 C 0.78755 0.98867 0.94198 0.0
C467 C 0.814 0.97512 0.96731 0.0
C468 C 0.7151 0.03817 0.04431 0.0
C469 C 0.75078 0.01123 0.99247 0.0
C470 C 0.67985 0.04518 0.05996 0.0
C471 C 0.64508 0.04092 0.03894 0.0
C472 C 0.71567 0.02659 0.00737 0.0
C473 C 0.6474 0.03269 1.00127 0.0
C474 C 0.75571 0.00653 0.95452 0.0
C475 C 0.80826 0.98075 0.00477 0.0
N476 N 0.68207 0.02516 0.98674 0.0
N477 N 0.77731 0.99836 0.01626 0.0
H478 H 0.73685 0.11184 0.3901 0.0
H479 H 0.84898 0.03908 0.56577 0.0
H480 H 0.68717 0.09519 0.49768 0.0
H481 H 0.90504 0.06099 0.46177 0.0
H482 H 0.78623 0.04843 0.53718 0.0
H483 H 0.79545 0.08404 0.41201 0.0
C484 C 0.7381 0.10199 0.41819 0.0
C485 C 0.70731 0.10637 0.44227 0.0
C486 C 0.81204 0.05066 0.52031 0.0
C487 C 0.77406 0.07449 0.46743 0.0
C488 C 0.84784 0.04506 0.53662 0.0
C489 C 0.88218 0.04946 0.51612 0.0
C490 C 0.81049 0.0615 0.48328 0.0
C491 C 0.87913 0.05723 0.47847 0.0
C492 C 0.77156 0.0862 0.43068 0.0
C493 C 0.71052 0.09317 0.47837 0.0
N494 N 0.84394 0.06366 0.46331 0.0
N495 N 0.74328 0.07808 0.48984 0.0
H496 H 0.36756 0.58005 0.05811 0.0
H497 H 0.14478 0.56796 0.11059 0.0
H498 H 0.32865 0.59317 0.16903 0.0
H499 H 0.1861 0.54563 1.00216 0.0
H500 H 0.21081 0.56363 0.13548 0.0
H501 H 0.3014 0.55347 0.03998 0.0
C502 C 0.34512 0.57648 0.07877 0.0
C503 C 0.35321 0.58915 0.11492 0.0
C504 C 0.20526 0.55883 0.10635 0.0
C505 C 0.27729 0.55987 0.09438 0.0
C506 C 0.16755 0.56109 0.09224 0.0
C507 C 0.16027 0.55733 0.05434 0.0
C508 C 0.23576 0.55342 0.08218 0.0
C509 C 0.19077 0.54911 0.03155 0.0
C510 C 0.30735 0.56139 0.06849 0.0
C511 C 0.32338 0.58376 0.14082 0.0
N512 N 0.22729 0.54792 0.04574 0.0
N513 N 0.28642 0.57027 0.12988 0.0
H514 H 0.20221 0.49 0.67864 0.0
H515 H 0.3965 0.53089 0.63345 0.0
H516 H 0.18421 0.48514 0.56107 0.0
H517 H 0.35416 0.55475 0.52494 0.0
H518 H 0.32946 0.52577 0.6555 0.0
H519 H 0.26664 0.52519 0.6699 0.0
C520 C 0.21169 0.49677 0.65097 0.0
C521 C 0.18824 0.48391 0.62045 0.0
C522 C 0.33464 0.53364 0.6272 0.0
C523 C 0.26245 0.52307 0.61011 0.0
C524 C 0.37311 0.53665 0.6147 0.0
C525 C 0.38049 0.54287 0.57737 0.0
C526 C 0.30368 0.53668 0.60192 0.0
C527 C 0.34939 0.54958 0.55392 0.0
C528 C 0.24877 0.51648 0.64596 0.0
C529 C 0.2018 0.49363 0.58529 0.0
N530 N 0.31227 0.54562 0.56642 0.0
N531 N 0.23812 0.51224 0.58111 0.0
H532 H 0.88489 0.82386 0.95326 0.0
H533 H 0.06954 0.72815 0.03186 0.0
H534 H 0.00518 0.87151 0.94251 0.0
H535 H 0.95453 0.66608 0.0211 0.0
H536 H 0.04272 0.78651 0.01272 0.0
H537 H 0.90684 0.77098 0.98919 0.0
C538 C 0.91588 0.82334 0.95869 0.0
C539 C 0.94331 0.85195 0.94455 0.0
C540 C 0.02312 0.76033 0.01513 0.0
C541 C 0.96851 0.79182 0.98588 0.0
C542 C 0.03836 0.72706 0.02643 0.0
C543 C 0.01429 0.69214 0.02777 0.0
C544 C 0.98349 0.75877 0.00476 0.0
C545 C 0.9741 0.69242 0.02051 0.0
C546 C 0.92836 0.79315 0.97914 0.0
C547 C 0.98308 0.84977 0.95232 0.0
N548 N 0.96001 0.72513 0.00868 0.0
N549 N 0.99444 0.82027 0.97238 0.0
H550 H 0.38021 0.72257 0.09325 0.0
H551 H 0.55208 0.88327 0.04289 0.0
H552 H 0.5027 0.70632 0.09095 0.0
H553 H 0.43421 0.90771 0.06352 0.0
H554 H 0.53 0.81489 0.04312 0.0
H555 H 0.39566 0.78648 0.06706 0.0
C556 C 0.41026 0.73222 0.08659 0.0
C557 C 0.44036 0.70942 0.09463 0.0
C558 C 0.50871 0.83508 0.04696 0.0
C559 C 0.45813 0.78225 0.06485 0.0
C560 C 0.52128 0.87408 0.04664 0.0
C561 C 0.49494 0.90086 0.05375 0.0
C562 C 0.46964 0.82277 0.05519 0.0
C563 C 0.45535 0.88774 0.05814 0.0
C564 C 0.41903 0.76868 0.07177 0.0
C565 C 0.47877 0.7233 0.08573 0.0
N566 N 0.44393 0.84939 0.05956 0.0
N567 N 0.48658 0.75893 0.07158 0.0
H568 H 0.04502 0.37097 0.57167 0.0
H569 H 0.10803 0.16226 0.5531 0.0
H570 H 0.16216 0.34506 0.59668 0.0
H571 H 0.99776 0.1956 0.51449 0.0
H572 H 0.13375 0.23034 0.55802 0.0
H573 H 0.03147 0.30888 0.54086 0.0
C574 C 0.06796 0.35218 0.57035 0.0
C575 C 0.1045 0.36275 0.58707 0.0
C576 C 0.10431 0.22273 0.5474 0.0
C577 C 0.08928 0.29137 0.55228 0.0
C578 C 0.08985 0.18393 0.54427 0.0
C579 C 0.05073 0.17371 0.53375 0.0
C580 C 0.07916 0.25098 0.54022 0.0
C581 C 0.02804 0.20259 0.52301 0.0
C582 C 0.06037 0.31681 0.5526 0.0
C583 C 0.13351 0.33773 0.58418 0.0
N584 N 0.04234 0.23993 0.52712 0.0
N585 N 0.12507 0.30282 0.5677 0.0
H586 H 0.66807 0.2737 0.52678 0.0
H587 H 0.47303 0.3706 0.56762 0.0
H588 H 0.55109 0.22211 0.50167 0.0
H589 H 0.58572 0.43586 0.55482 0.0
H590 H 0.50404 0.31144 0.56216 0.0
H591 H 0.64048 0.32871 0.55494 0.0
C592 C 0.63662 0.27377 0.52785 0.0
C593 C 0.61186 0.24394 0.51143 0.0
C594 C 0.52211 0.33871 0.56132 0.0
C595 C 0.58018 0.30586 0.54361 0.0
C596 C 0.50447 0.37245 0.56455 0.0
C597 C 0.52685 0.40814 0.56161 0.0
C598 C 0.5624 0.34063 0.55482 0.0
C599 C 0.56747 0.40892 0.5576 0.0
C600 C 0.62094 0.30503 0.54371 0.0
C601 C 0.57124 0.24494 0.51347 0.0
N602 N 0.58395 0.3756 0.55388 0.0
N603 N 0.55671 0.27554 0.52904 0.0
loop_
_geom_bond_atom_site_label_1
_geom_bond_atom_site_label_2
_geom_bond_distance
_geom_bond_site_symmetry_2
_ccdc_geom_bond_type
H0 C5 0.929 . S
H1 C10 0.931 . S
H2 C8 0.930 . S
N3 N4 1.234 . S
N3 C7 1.453 . S
N4 N3 1.234 . S
C5 H0 0.929 . S
C5 C6 1.373 . S
C5 C7 1.368 . S
C6 C5 1.373 . S
C6 C10 1.397 . S
C7 N3 1.453 . S
C7 C5 1.368 . S
C7 C8 1.373 . S
C8 H2 0.930 . S
C8 C7 1.373 . S
C8 C9 1.371 . S
C9 C8 1.371 . S
C9 C10 1.383 . S
C10 H1 0.931 . S
C10 C6 1.397 . S
C10 C9 1.383 . S
H11 C16 0.929 . S
H12 C21 0.931 . S
H13 C19 0.930 . S
N14 N15 1.234 . S
N14 C18 1.453 . S
N15 N14 1.234 . S
C16 H11 0.929 . S
C16 C17 1.373 . S
C16 C18 1.368 . S
C17 C16 1.373 . S
C17 C21 1.397 . S
C18 N14 1.453 . S
C18 C16 1.368 . S
C18 C19 1.373 . S
C19 H13 0.930 . S
C19 C18 1.373 . S
C19 C20 1.371 . S
C20 C19 1.371 . S
C20 C21 1.383 . S
C21 H12 0.931 . S
C21 C17 1.397 . S
C21 C20 1.383 . S
H22 C27 0.929 . S
H23 C32 0.931 . S
H24 C30 0.930 . S
N25 N26 1.234 . S
N25 C29 1.453 . S
N26 N25 1.234 . S
C27 H22 0.929 . S
C27 C28 1.373 . S
C27 C29 1.368 . S
C28 C27 1.373 . S
C28 C32 1.397 . S
C29 N25 1.453 . S
C29 C27 1.368 . S
C29 C30 1.373 . S
C30 H24 0.930 . S
C30 C29 1.373 . S
C30 C31 1.371 . S
C31 C30 1.371 . S
C31 C32 1.383 . S
C32 H23 0.931 . S
C32 C28 1.397 . S
C32 C31 1.383 . S
H33 C38 0.929 . S
H34 C43 0.931 . S
H35 C41 0.930 . S
N36 N37 1.234 . S
N36 C40 1.453 . S
N37 N36 1.234 . S
C38 H33 0.929 . S
C38 C39 1.373 . S
C38 C40 1.368 . S
C39 C38 1.373 . S
C39 C43 1.397 . S
C40 N36 1.453 . S
C40 C38 1.368 . S
C40 C41 1.373 . S
C41 H35 0.930 . S
C41 C40 1.373 . S
C41 C42 1.371 . S
C42 C41 1.371 . S
C42 C43 1.383 . S
C43 H34 0.931 . S
C43 C39 1.397 . S
C43 C42 1.383 . S
H44 C49 0.929 1_545 S
H45 C54 0.931 . S
H46 C52 0.930 . S
N47 N48 1.234 1_545 S
N47 C51 1.453 1_545 S
N48 N47 1.234 1_565 S
C49 H44 0.929 1_565 S
C49 C50 1.373 . S
C49 C51 1.368 . S
C50 C49 1.373 . S
C50 C54 1.397 . S
C51 N47 1.453 1_565 S
C51 C49 1.368 . S
C51 C52 1.373 . S
C52 H46 0.930 . S
C52 C51 1.373 . S
C52 C53 1.371 . S
C53 C52 1.371 . S
C53 C54 1.383 . S
C54 H45 0.931 . S
C54 C50 1.397 . S
C54 C53 1.383 . S
H55 C60 0.929 . S
H56 C65 0.931 . S
H57 C63 0.930 . S
N58 N59 1.234 . S
N58 C62 1.453 . S
N59 N58 1.234 . S
C60 H55 0.929 . S
C60 C61 1.373 . S
C60 C62 1.368 . S
C61 C60 1.373 . S
C61 C65 1.397 . S
C62 N58 1.453 . S
C62 C60 1.368 . S
C62 C63 1.373 . S
C63 H57 0.930 . S
C63 C62 1.373 . S
C63 C64 1.371 . S
C64 C63 1.371 . S
C64 C65 1.383 . S
C65 H56 0.931 . S
C65 C61 1.397 . S
C65 C64 1.383 . S
H66 C71 0.929 . S
H67 C76 0.931 . S
H68 C74 0.930 . S
N69 N70 1.234 . S
N69 C73 1.453 . S
N70 N69 1.234 . S
C71 H66 0.929 . S
C71 C72 1.373 . S
C71 C73 1.368 . S
C72 C71 1.373 . S
C72 C76 1.397 . S
C73 N69 1.453 . S
C73 C71 1.368 . S
C73 C74 1.373 . S
C74 H68 0.930 . S
C74 C73 1.373 . S
C74 C75 1.371 . S
C75 C74 1.371 . S
C75 C76 1.383 . S
C76 H67 0.931 . S
C76 C72 1.397 . S
C76 C75 1.383 . S
H77 C82 0.929 . S
H78 C87 0.931 . S
H79 C85 0.930 . S
N80 N81 1.234 . S
N80 C84 1.453 . S
N81 N80 1.234 . S
C82 H77 0.929 . S
C82 C83 1.373 . S
C82 C84 1.368 . S
C83 C82 1.373 . S
C83 C87 1.397 . S
C84 N80 1.453 . S
C84 C82 1.368 . S
C84 C85 1.373 . S
C85 H79 0.930 . S
C85 C84 1.373 . S
C85 C86 1.371 . S
C86 C85 1.371 . S
C86 C87 1.383 . S
C87 H78 0.931 . S
C87 C83 1.397 . S
C87 C86 1.383 . S
Zn88 O94 1.920 . S
Zn88 O100 1.898 . S
Zn88 O103 1.905 . S
Zn89 O97 1.905 1_565 S
Zn89 O98 1.898 . S
Zn89 O106 1.920 . S
Zn90 O93 2.080 1_455 S
Zn90 O96 2.114 . S
Zn90 O99 2.120 1_445 S
Zn90 O101 2.120 . S
Zn90 O102 2.114 1_455 S
Zn90 O105 2.080 . S
C91 O96 1.166 . S
C91 O97 1.182 . S
C92 O98 1.167 1_655 S
C92 O99 1.299 . S
O93 Zn90 2.080 1_655 S
O93 C107 1.305 . S
O94 Zn88 1.920 . S
O94 C107 1.234 . S
C95 O100 1.167 1_455 S
C95 O101 1.299 . S
O96 Zn90 2.114 . S
O96 C91 1.166 . S
O97 Zn89 1.905 1_545 S
O97 C91 1.182 . S
O98 Zn89 1.898 . S
O98 C92 1.167 1_455 S
O99 Zn90 2.120 1_665 S
O99 C92 1.299 . S
O100 Zn88 1.898 . S
O100 C95 1.167 1_655 S
O101 Zn90 2.120 . S
O101 C95 1.299 . S
O102 Zn90 2.114 1_655 S
O102 C104 1.166 . S
O103 Zn88 1.905 . S
O103 C104 1.182 . S
C104 O102 1.166 . S
C104 O103 1.182 . S
O105 Zn90 2.080 . S
O105 C108 1.305 1_545 S
O106 Zn89 1.920 . S
O106 C108 1.234 . S
C107 O93 1.305 . S
C107 O94 1.234 . S
C108 O105 1.305 1_565 S
C108 O106 1.234 . S
Zn109 O115 1.920 . S
Zn109 O121 1.898 1_554 S
Zn109 O124 1.905 1_554 S
Zn110 O118 1.905 . S
Zn110 O119 1.898 . S
Zn110 O127 1.920 . S
Zn111 O114 2.080 . S
Zn111 O117 2.112 1_545 S
Zn111 O120 2.120 1_545 S
Zn111 O122 2.120 . S
Zn111 O123 2.114 . S
Zn111 O126 2.080 . S
C112 O117 1.163 . S
C112 O118 1.194 . S
C113 O119 1.167 . S
C113 O120 1.299 . S
O114 Zn111 2.080 . S
O114 C128 1.305 . S
O115 Zn109 1.920 . S
O115 C128 1.234 . S
C116 O121 1.167 1_554 S
C116 O122 1.299 . S
O117 Zn111 2.112 1_565 S
O117 C112 1.163 . S
O118 Zn110 1.905 . S
O118 C112 1.194 . S
O119 Zn110 1.898 . S
O119 C113 1.167 . S
O120 Zn111 2.120 1_565 S
O120 C113 1.299 . S
O121 Zn109 1.898 1_556 S
O121 C116 1.167 1_556 S
O122 Zn111 2.120 . S
O122 C116 1.299 . S
O123 Zn111 2.114 . S
O123 C125 1.168 1_544 S
O124 Zn109 1.905 1_556 S
O124 C125 1.168 1_545 S
C125 O123 1.168 1_566 S
C125 O124 1.168 1_565 S
O126 Zn111 2.080 . S
O126 C129 1.305 . S
O127 Zn110 1.920 . S
O127 C129 1.234 1_565 S
C128 O114 1.305 . S
C128 O115 1.234 . S
C129 O126 1.305 . S
C129 O127 1.234 1_545 S
Zn130 O136 1.920 . S
Zn130 O142 1.898 . S
Zn130 O145 1.905 . S
Zn131 O139 1.905 . S
Zn131 O140 1.898 . S
Zn131 O148 1.920 . S
Zn132 O135 2.080 . S
Zn132 O138 2.114 . S
Zn132 O141 2.120 . S
Zn132 O143 2.120 . S
Zn132 O144 2.114 . S
Zn132 O147 2.080 . S
C133 O138 1.166 . S
C133 O139 1.182 . S
C134 O140 1.167 . S
C134 O141 1.299 . S
O135 Zn132 2.080 . S
O135 C149 1.305 . S
O136 Zn130 1.920 . S
O136 C149 1.234 . S
C137 O142 1.167 . S
C137 O143 1.299 . S
O138 Zn132 2.114 . S
O138 C133 1.166 . S
O139 Zn131 1.905 . S
O139 C133 1.182 . S
O140 Zn131 1.898 . S
O140 C134 1.167 . S
O141 Zn132 2.120 . S
O141 C134 1.299 . S
O142 Zn130 1.898 . S
O142 C137 1.167 . S
O143 Zn132 2.120 . S
O143 C137 1.299 . S
O144 Zn132 2.114 . S
O144 C146 1.166 . S
O145 Zn130 1.905 . S
O145 C146 1.182 . S
C146 O144 1.166 . S
C146 O145 1.182 . S
O147 Zn132 2.080 . S
O147 C150 1.305 . S
O148 Zn131 1.920 . S
O148 C150 1.234 . S
C149 O135 1.305 . S
C149 O136 1.234 . S
C150 O147 1.305 . S
C150 O148 1.234 . S
Zn151 O157 1.920 . S
Zn151 O163 1.898 . S
Zn151 O166 1.905 . S
Zn152 O160 1.905 1_655 S
Zn152 O161 1.898 . S
Zn152 O169 1.920 . S
Zn153 O156 2.080 1_554 S
Zn153 O159 2.114 . S
Zn153 O162 2.120 1_454 S
Zn153 O164 2.120 . S
Zn153 O165 2.114 1_554 S
Zn153 O168 2.080 . S
C154 O159 1.166 . S
C154 O160 1.182 . S
C155 O161 1.167 1_556 S
C155 O162 1.299 . S
O156 Zn153 2.080 1_556 S
O156 C170 1.305 . S
O157 Zn151 1.920 . S
O157 C170 1.234 . S
C158 O163 1.167 1_554 S
C158 O164 1.299 . S
O159 Zn153 2.114 . S
O159 C154 1.166 . S
O160 Zn152 1.905 1_455 S
O160 C154 1.182 . S
O161 Zn152 1.898 . S
O161 C155 1.167 1_554 S
O162 Zn153 2.120 1_656 S
O162 C155 1.299 . S
O163 Zn151 1.898 . S
O163 C158 1.167 1_556 S
O164 Zn153 2.120 . S
O164 C158 1.299 . S
O165 Zn153 2.114 1_556 S
O165 C167 1.166 . S
O166 Zn151 1.905 . S
O166 C167 1.182 . S
C167 O165 1.166 . S
C167 O166 1.182 . S
O168 Zn153 2.080 . S
O168 C171 1.305 1_455 S
O169 Zn152 1.920 . S
O169 C171 1.234 . S
C170 O156 1.305 . S
C170 O157 1.234 . S
C171 O168 1.305 1_655 S
C171 O169 1.234 . S
H172 C178 0.930 . S
H173 C182 0.930 . S
H174 C187 0.929 . S
H175 C185 0.929 . S
H176 C180 0.929 . S
H177 C186 0.929 . S
C178 H172 0.930 . S
C178 C179 1.367 . S
C178 C186 1.378 . S
C179 C178 1.367 . S
C179 C187 1.433 . S
C180 H176 0.929 . S
C180 C182 1.378 . S
C180 C184 1.350 . S
C181 C184 1.463 . S
C181 C186 1.350 . S
C181 N189 1.427 . S
C182 H173 0.930 . S
C182 C180 1.378 . S
C182 C183 1.367 . S
C183 C182 1.367 . S
C183 C185 1.433 . S
C184 C180 1.350 . S
C184 C181 1.463 . S
C184 N188 1.427 . S
C185 H175 0.929 . S
C185 C183 1.433 . S
C185 N188 1.384 . S
C186 H177 0.929 . S
C186 C178 1.378 . S
C186 C181 1.350 . S
C187 H174 0.929 . S
C187 C179 1.433 . S
C187 N189 1.384 . S
N188 C184 1.427 . S
N188 C185 1.384 . S
N189 C181 1.427 . S
N189 C187 1.384 . S
H190 C196 0.930 . S
H191 C200 0.930 . S
H192 C205 0.929 . S
H193 C203 0.929 1_545 S
H194 C198 0.929 . S
H195 C204 0.929 . S
C196 H190 0.930 . S
C196 C197 1.367 . S
C196 C204 1.378 . S
C197 C196 1.367 . S
C197 C205 1.433 . S
C198 H194 0.929 . S
C198 C200 1.378 . S
C198 C202 1.350 . S
C199 C202 1.463 . S
C199 C204 1.350 . S
C199 N207 1.427 . S
C200 H191 0.930 . S
C200 C198 1.378 . S
C200 C201 1.367 . S
C201 C200 1.367 . S
C201 C203 1.433 . S
C202 C198 1.350 . S
C202 C199 1.463 . S
C202 N206 1.427 . S
C203 H193 0.929 1_565 S
C203 C201 1.433 . S
C203 N206 1.384 . S
C204 H195 0.929 . S
C204 C196 1.378 . S
C204 C199 1.350 . S
C205 H192 0.929 . S
C205 C197 1.433 . S
C205 N207 1.384 . S
N206 C202 1.427 . S
N206 C203 1.384 . S
N207 C199 1.427 . S
N207 C205 1.384 . S
H208 C214 0.930 . S
H209 C218 0.930 . S
H210 C223 0.929 . S
H211 C221 0.929 . S
H212 C216 0.929 . S
H213 C222 0.929 . S
C214 H208 0.930 . S
C214 C215 1.367 . S
C214 C222 1.378 . S
C215 C214 1.367 . S
C215 C223 1.433 . S
C216 H212 0.929 . S
C216 C218 1.378 . S
C216 C220 1.350 . S
C217 C220 1.463 . S
C217 C222 1.350 . S
C217 N225 1.427 . S
C218 H209 0.930 . S
C218 C216 1.378 . S
C218 C219 1.367 . S
C219 C218 1.367 . S
C219 C221 1.433 . S
C220 C216 1.350 . S
C220 C217 1.463 . S
C220 N224 1.427 . S
C221 H211 0.929 . S
C221 C219 1.433 . S
C221 N224 1.384 . S
C222 H213 0.929 . S
C222 C214 1.378 . S
C222 C217 1.350 . S
C223 H210 0.929 . S
C223 C215 1.433 . S
C223 N225 1.384 . S
N224 C220 1.427 . S
N224 C221 1.384 . S
N225 C217 1.427 . S
N225 C223 1.384 . S
H226 C232 0.930 . S
H227 C236 0.930 . S
H228 C241 0.929 . S
H229 C239 0.929 . S
H230 C234 0.929 . S
H231 C240 0.929 . S
C232 H226 0.930 . S
C232 C233 1.367 . S
C232 C240 1.378 . S
C233 C232 1.367 . S
C233 C241 1.433 . S
C234 H230 0.929 . S
C234 C236 1.378 . S
C234 C238 1.350 . S
C235 C238 1.463 . S
C235 C240 1.350 . S
C235 N243 1.427 . S
C236 H227 0.930 . S
C236 C234 1.378 . S
C236 C237 1.367 . S
C237 C236 1.367 . S
C237 C239 1.433 . S
C238 C234 1.350 . S
C238 C235 1.463 . S
C238 N242 1.427 . S
C239 H229 0.929 . S
C239 C237 1.433 . S
C239 N242 1.384 . S
C240 H231 0.929 . S
C240 C232 1.378 . S
C240 C235 1.350 . S
C241 H228 0.929 . S
C241 C233 1.433 . S
C241 N243 1.384 . S
N242 C238 1.427 . S
N242 C239 1.384 . S
N243 C235 1.427 . S
N243 C241 1.384 . S
H244 C250 0.930 . S
H245 C254 0.930 . S
H246 C259 0.929 . S
H247 C257 0.929 . S
H248 C252 0.929 . S
H249 C258 0.929 . S
C250 H244 0.930 . S
C250 C251 1.367 . S
C250 C258 1.378 . S
C251 C250 1.367 . S
C251 C259 1.433 . S
C252 H248 0.929 . S
C252 C254 1.378 . S
C252 C256 1.350 . S
C253 C256 1.463 . S
C253 C258 1.350 . S
C253 N261 1.427 . S
C254 H245 0.930 . S
C254 C252 1.378 . S
C254 C255 1.367 . S
C255 C254 1.367 . S
C255 C257 1.433 . S
C256 C252 1.350 . S
C256 C253 1.463 . S
C256 N260 1.427 . S
C257 H247 0.929 . S
C257 C255 1.433 . S
C257 N260 1.384 . S
C258 H249 0.929 . S
C258 C250 1.378 . S
C258 C253 1.350 . S
C259 H246 0.929 . S
C259 C251 1.433 . S
C259 N261 1.384 . S
N260 C256 1.427 . S
N260 C257 1.384 . S
N261 C253 1.427 . S
N261 C259 1.384 . S
H262 C268 0.930 . S
H263 C272 0.930 . S
H264 C277 0.929 . S
H265 C275 0.929 . S
H266 C270 0.929 . S
H267 C276 0.929 . S
C268 H262 0.930 . S
C268 C269 1.367 . S
C268 C276 1.378 . S
C269 C268 1.367 . S
C269 C277 1.433 . S
C270 H266 0.929 . S
C270 C272 1.378 . S
C270 C274 1.350 . S
C271 C274 1.463 . S
C271 C276 1.350 . S
C271 N279 1.427 . S
C272 H263 0.930 . S
C272 C270 1.378 . S
C272 C273 1.367 . S
C273 C272 1.367 . S
C273 C275 1.433 1_565 S
C274 C270 1.350 . S
C274 C271 1.463 . S
C274 N278 1.427 . S
C275 H265 0.929 . S
C275 C273 1.433 1_545 S
C275 N278 1.384 1_545 S
C276 H267 0.929 . S
C276 C268 1.378 . S
C276 C271 1.350 . S
C277 H264 0.929 . S
C277 C269 1.433 . S
C277 N279 1.384 . S
N278 C274 1.427 . S
N278 C275 1.384 1_565 S
N279 C271 1.427 . S
N279 C277 1.384 . S
H280 C286 0.930 . S
H281 C290 0.930 . S
H282 C295 0.929 . S
H283 C293 0.929 1_554 S
H284 C288 0.929 . S
H285 C294 0.929 . S
C286 H280 0.930 . S
C286 C287 1.367 . S
C286 C294 1.378 . S
C287 C286 1.367 . S
C287 C295 1.433 . S
C288 H284 0.929 . S
C288 C290 1.378 . S
C288 C292 1.350 . S
C289 C292 1.463 . S
C289 C294 1.350 . S
C289 N297 1.427 . S
C290 H281 0.930 . S
C290 C288 1.378 . S
C290 C291 1.367 . S
C291 C290 1.367 . S
C291 C293 1.433 . S
C292 C288 1.350 . S
C292 C289 1.463 . S
C292 N296 1.427 . S
C293 H283 0.929 1_556 S
C293 C291 1.433 . S
C293 N296 1.384 . S
C294 H285 0.929 . S
C294 C286 1.378 . S
C294 C289 1.350 . S
C295 H282 0.929 . S
C295 C287 1.433 . S
C295 N297 1.384 . S
N296 C292 1.427 . S
N296 C293 1.384 . S
N297 C289 1.427 . S
N297 C295 1.384 . S
H298 C304 0.930 . S
H299 C308 0.930 . S
H300 C313 0.929 . S
H301 C311 0.929 . S
H302 C306 0.929 . S
H303 C312 0.929 . S
C304 H298 0.930 . S
C304 C305 1.367 . S
C304 C312 1.378 . S
C305 C304 1.367 . S
C305 C313 1.433 . S
C306 H302 0.929 . S
C306 C308 1.378 . S
C306 C310 1.350 . S
C307 C310 1.463 . S
C307 C312 1.350 . S
C307 N315 1.427 . S
C308 H299 0.930 . S
C308 C306 1.378 . S
C308 C309 1.367 . S
C309 C308 1.367 . S
C309 C311 1.433 . S
C310 C306 1.350 . S
C310 C307 1.463 . S
C310 N314 1.427 . S
C311 H301 0.929 . S
C311 C309 1.433 . S
C311 N314 1.384 . S
C312 H303 0.929 . S
C312 C304 1.378 . S
C312 C307 1.350 . S
C313 H300 0.929 . S
C313 C305 1.433 . S
C313 N315 1.384 . S
N314 C310 1.427 . S
N314 C311 1.384 . S
N315 C307 1.427 . S
N315 C313 1.384 . S
H316 C322 0.930 . S
H317 C326 0.930 . S
H318 C331 0.929 . S
H319 C329 0.929 . S
H320 C324 0.929 . S
H321 C330 0.929 . S
C322 H316 0.930 . S
C322 C323 1.367 . S
C322 C330 1.378 . S
C323 C322 1.367 . S
C323 C331 1.433 . S
C324 H320 0.929 . S
C324 C326 1.378 . S
C324 C328 1.350 . S
C325 C328 1.463 . S
C325 C330 1.350 . S
C325 N333 1.427 . S
C326 H317 0.930 . S
C326 C324 1.378 . S
C326 C327 1.367 . S
C327 C326 1.367 . S
C327 C329 1.433 . S
C328 C324 1.350 . S
C328 C325 1.463 . S
C328 N332 1.427 . S
C329 H319 0.929 . S
C329 C327 1.433 . S
C329 N332 1.384 . S
C330 H321 0.929 . S
C330 C322 1.378 . S
C330 C325 1.350 . S
C331 H318 0.929 . S
C331 C323 1.433 . S
C331 N333 1.384 . S
N332 C328 1.427 . S
N332 C329 1.384 . S
N333 C325 1.427 . S
N333 C331 1.384 . S
H334 C340 0.930 . S
H335 C344 0.930 . S
H336 C349 0.929 . S
H337 C347 0.929 . S
H338 C342 0.929 . S
H339 C348 0.929 . S
C340 H334 0.930 . S
C340 C341 1.367 . S
C340 C348 1.378 . S
C341 C340 1.367 . S
C341 C349 1.433 . S
C342 H338 0.929 . S
C342 C344 1.378 . S
C342 C346 1.350 . S
C343 C346 1.463 . S
C343 C348 1.350 . S
C343 N351 1.427 . S
C344 H335 0.930 . S
C344 C342 1.378 . S
C344 C345 1.367 1_556 S
C345 C344 1.367 1_554 S
C345 C347 1.433 . S
C346 C342 1.350 . S
C346 C343 1.463 . S
C346 N350 1.427 1_556 S
C347 H337 0.929 . S
C347 C345 1.433 . S
C347 N350 1.384 . S
C348 H339 0.929 . S
C348 C340 1.378 . S
C348 C343 1.350 . S
C349 H336 0.929 . S
C349 C341 1.433 . S
C349 N351 1.384 . S
N350 C346 1.427 1_554 S
N350 C347 1.384 . S
N351 C343 1.427 . S
N351 C349 1.384 . S
H352 C358 0.930 . S
H353 C362 0.930 . S
H354 C367 0.929 . S
H355 C365 0.929 . S
H356 C360 0.929 . S
H357 C366 0.929 . S
C358 H352 0.930 . S
C358 C359 1.367 . S
C358 C366 1.378 . S
C359 C358 1.367 . S
C359 C367 1.433 . S
C360 H356 0.929 . S
C360 C362 1.378 . S
C360 C364 1.350 . S
C361 C364 1.463 . S
C361 C366 1.350 . S
C361 N369 1.427 . S
C362 H353 0.930 . S
C362 C360 1.378 . S
C362 C363 1.367 . S
C363 C362 1.367 . S
C363 C365 1.433 . S
C364 C360 1.350 . S
C364 C361 1.463 . S
C364 N368 1.427 . S
C365 H355 0.929 . S
C365 C363 1.433 . S
C365 N368 1.384 . S
C366 H357 0.929 . S
C366 C358 1.378 . S
C366 C361 1.350 . S
C367 H354 0.929 . S
C367 C359 1.433 . S
C367 N369 1.384 . S
N368 C364 1.427 . S
N368 C365 1.384 . S
N369 C361 1.427 . S
N369 C367 1.384 . S
H370 C376 0.930 . S
H371 C380 0.930 . S
H372 C385 0.929 . S
H373 C383 0.929 . S
H374 C378 0.929 . S
H375 C384 0.929 . S
C376 H370 0.930 . S
C376 C377 1.367 . S
C376 C384 1.378 . S
C377 C376 1.367 . S
C377 C385 1.433 . S
C378 H374 0.929 . S
C378 C380 1.378 . S
C378 C382 1.350 . S
C379 C382 1.463 . S
C379 C384 1.350 . S
C379 N387 1.427 . S
C380 H371 0.930 . S
C380 C378 1.378 . S
C380 C381 1.367 . S
C381 C380 1.367 . S
C381 C383 1.433 . S
C382 C378 1.350 . S
C382 C379 1.463 . S
C382 N386 1.427 . S
C383 H373 0.929 . S
C383 C381 1.433 . S
C383 N386 1.384 . S
C384 H375 0.929 . S
C384 C376 1.378 . S
C384 C379 1.350 . S
C385 H372 0.929 . S
C385 C377 1.433 . S
C385 N387 1.384 . S
N386 C382 1.427 . S
N386 C383 1.384 . S
N387 C379 1.427 . S
N387 C385 1.384 . S
H388 C394 0.930 1_455 S
H389 C398 0.930 . S
H390 C403 0.929 . S
H391 C401 0.929 . S
H392 C396 0.929 . S
H393 C402 0.929 1_455 S
C394 H388 0.930 1_655 S
C394 C395 1.367 1_545 S
C394 C402 1.378 . S
C395 C394 1.367 1_565 S
C395 C403 1.433 . S
C396 H392 0.929 . S
C396 C398 1.378 . S
C396 C400 1.350 1_565 S
C397 C400 1.463 1_565 S
C397 C402 1.350 1_565 S
C397 N405 1.427 . S
C398 H389 0.930 . S
C398 C396 1.378 . S
C398 C399 1.367 1_565 S
C399 C398 1.367 1_545 S
C399 C401 1.434 1_655 S
C400 C396 1.350 1_545 S
C400 C397 1.463 1_545 S
C400 N404 1.427 . S
C401 H391 0.929 . S
C401 C399 1.434 1_455 S
C401 N404 1.384 1_455 S
C402 H393 0.929 1_655 S
C402 C394 1.378 . S
C402 C397 1.350 1_545 S
C403 H390 0.929 . S
C403 C395 1.433 . S
C403 N405 1.384 . S
N404 C400 1.427 . S
N404 C401 1.384 1_655 S
N405 C397 1.427 . S
N405 C403 1.384 . S
H406 C412 0.930 . S
H407 C416 0.930 1_565 S
H408 C421 0.929 . S
H409 C419 0.929 . S
H410 C414 0.929 . S
H411 C420 0.929 . S
C412 H406 0.930 . S
C412 C413 1.367 . S
C412 C420 1.378 . S
C413 C412 1.367 . S
C413 C421 1.433 . S
C414 H410 0.929 . S
C414 C416 1.378 . S
C414 C418 1.350 . S
C415 C418 1.463 . S
C415 C420 1.350 . S
C415 N423 1.427 . S
C416 H407 0.930 1_545 S
C416 C414 1.378 . S
C416 C417 1.367 . S
C417 C416 1.367 . S
C417 C419 1.433 . S
C418 C414 1.350 . S
C418 C415 1.463 . S
C418 N422 1.427 . S
C419 H409 0.929 . S
C419 C417 1.433 . S
C419 N422 1.384 . S
C420 H411 0.929 . S
C420 C412 1.378 . S
C420 C415 1.350 . S
C421 H408 0.929 . S
C421 C413 1.433 . S
C421 N423 1.384 . S
N422 C418 1.427 . S
N422 C419 1.384 . S
N423 C415 1.427 . S
N423 C421 1.384 . S
H424 C430 0.930 . S
H425 C434 0.930 . S
H426 C439 0.929 . S
H427 C437 0.929 . S
H428 C432 0.929 . S
H429 C438 0.929 . S
C430 H424 0.930 . S
C430 C431 1.367 . S
C430 C438 1.378 . S
C431 C430 1.367 . S
C431 C439 1.433 . S
C432 H428 0.929 . S
C432 C434 1.378 . S
C432 C436 1.350 . S
C433 C436 1.463 . S
C433 C438 1.350 . S
C433 N441 1.427 . S
C434 H425 0.930 . S
C434 C432 1.378 . S
C434 C435 1.367 . S
C435 C434 1.367 . S
C435 C437 1.433 . S
C436 C432 1.350 . S
C436 C433 1.463 . S
C436 N440 1.427 . S
C437 H427 0.929 . S
C437 C435 1.433 . S
C437 N440 1.384 . S
C438 H429 0.929 . S
C438 C430 1.378 . S
C438 C433 1.350 . S
C439 H426 0.929 . S
C439 C431 1.433 . S
C439 N441 1.384 . S
N440 C436 1.427 . S
N440 C437 1.384 . S
N441 C433 1.427 . S
N441 C439 1.384 . S
H442 C448 0.930 . S
H443 C452 0.930 . S
H444 C457 0.929 . S
H445 C455 0.929 . S
H446 C450 0.929 . S
H447 C456 0.929 . S
C448 H442 0.930 . S
C448 C449 1.367 . S
C448 C456 1.378 . S
C449 C448 1.367 . S
C449 C457 1.433 . S
C450 H446 0.929 . S
C450 C452 1.378 . S
C450 C454 1.350 . S
C451 C454 1.463 . S
C451 C456 1.350 . S
C451 N459 1.427 . S
C452 H443 0.930 . S
C452 C450 1.378 . S
C452 C453 1.367 . S
C453 C452 1.367 . S
C453 C455 1.433 . S
C454 C450 1.350 . S
C454 C451 1.463 . S
C454 N458 1.427 . S
C455 H445 0.929 . S
C455 C453 1.433 . S
C455 N458 1.384 . S
C456 H447 0.929 . S
C456 C448 1.378 . S
C456 C451 1.350 . S
C457 H444 0.929 . S
C457 C449 1.433 . S
C457 N459 1.384 . S
N458 C454 1.427 . S
N458 C455 1.384 . S
N459 C451 1.427 . S
N459 C457 1.384 . S
H460 C466 0.930 . S
H461 C470 0.930 . S
H462 C475 0.929 . S
H463 C473 0.929 1_556 S
H464 C468 0.929 . S
H465 C474 0.929 . S
C466 H460 0.930 . S
C466 C467 1.367 . S
C466 C474 1.378 . S
C467 C466 1.367 . S
C467 C475 1.433 1_566 S
C468 H464 0.929 . S
C468 C470 1.378 . S
C468 C472 1.350 . S
C469 C472 1.463 1_565 S
C469 C474 1.350 1_554 S
C469 N477 1.427 1_565 S
C470 H461 0.930 . S
C470 C468 1.378 . S
C470 C471 1.367 . S
C471 C470 1.367 . S
C471 C473 1.433 1_545 S
C472 C468 1.350 . S
C472 C469 1.463 1_545 S
C472 N476 1.447 1_545 S
C473 H463 0.929 1_554 S
C473 C471 1.433 1_565 S
C473 N476 1.391 . S
C474 H465 0.929 . S
C474 C466 1.378 . S
C474 C469 1.350 1_556 S
C475 H462 0.929 . S
C475 C467 1.433 1_544 S
C475 N477 1.384 . S
N476 C472 1.447 1_565 S
N476 C473 1.391 . S
N477 C469 1.427 1_545 S
N477 C475 1.384 . S
H478 C484 0.930 . S
H479 C488 0.930 . S
H480 C493 0.929 . S
H481 C491 0.929 . S
H482 C486 0.929 . S
H483 C492 0.929 . S
C484 H478 0.930 . S
C484 C485 1.367 . S
C484 C492 1.378 . S
C485 C484 1.367 . S
C485 C493 1.433 . S
C486 H482 0.929 . S
C486 C488 1.378 . S
C486 C490 1.350 . S
C487 C490 1.463 . S
C487 C492 1.350 . S
C487 N495 1.427 . S
C488 H479 0.930 . S
C488 C486 1.378 . S
C488 C489 1.367 . S
C489 C488 1.367 . S
C489 C491 1.433 . S
C490 C486 1.350 . S
C490 C487 1.463 . S
C490 N494 1.427 . S
C491 H481 0.929 . S
C491 C489 1.433 . S
C491 N494 1.384 . S
C492 H483 0.929 . S
C492 C484 1.378 . S
C492 C487 1.350 . S
C493 H480 0.929 . S
C493 C485 1.433 . S
C493 N495 1.384 . S
N494 C490 1.427 . S
N494 C491 1.384 . S
N495 C487 1.427 . S
N495 C493 1.384 . S
H496 C502 0.930 . S
H497 C506 0.930 . S
H498 C511 0.929 . S
H499 C509 0.929 . S
H500 C504 0.929 . S
H501 C510 0.929 . S
C502 H496 0.930 . S
C502 C503 1.367 . S
C502 C510 1.378 . S
C503 C502 1.367 . S
C503 C511 1.433 . S
C504 H500 0.929 . S
C504 C506 1.378 . S
C504 C508 1.350 . S
C505 C508 1.463 . S
C505 C510 1.350 . S
C505 N513 1.427 . S
C506 H497 0.930 . S
C506 C504 1.378 . S
C506 C507 1.367 . S
C507 C506 1.367 . S
C507 C509 1.433 . S
C508 C504 1.350 . S
C508 C505 1.463 . S
C508 N512 1.427 . S
C509 H499 0.929 . S
C509 C507 1.433 . S
C509 N512 1.384 . S
C510 H501 0.929 . S
C510 C502 1.378 . S
C510 C505 1.350 . S
C511 H498 0.929 . S
C511 C503 1.433 . S
C511 N513 1.384 . S
N512 C508 1.427 . S
N512 C509 1.384 . S
N513 C505 1.427 . S
N513 C511 1.384 . S
H514 C520 0.930 . S
H515 C524 0.930 . S
H516 C529 0.929 . S
H517 C527 0.929 . S
H518 C522 0.929 . S
H519 C528 0.929 . S
C520 H514 0.930 . S
C520 C521 1.367 . S
C520 C528 1.378 . S
C521 C520 1.367 . S
C521 C529 1.433 . S
C522 H518 0.929 . S
C522 C524 1.378 . S
C522 C526 1.350 . S
C523 C526 1.463 . S
C523 C528 1.350 . S
C523 N531 1.427 . S
C524 H515 0.930 . S
C524 C522 1.378 . S
C524 C525 1.367 . S
C525 C524 1.367 . S
C525 C527 1.433 . S
C526 C522 1.350 . S
C526 C523 1.463 . S
C526 N530 1.427 . S
C527 H517 0.929 . S
C527 C525 1.433 . S
C527 N530 1.384 . S
C528 H519 0.929 . S
C528 C520 1.378 . S
C528 C523 1.350 . S
C529 H516 0.929 . S
C529 C521 1.433 . S
C529 N531 1.384 . S
N530 C526 1.427 . S
N530 C527 1.384 . S
N531 C523 1.427 . S
N531 C529 1.384 . S
H532 C538 0.930 1_554 S
H533 C542 0.930 . S
H534 C547 0.929 . S
H535 C545 0.929 . S
H536 C540 0.929 . S
H537 C546 0.929 . S
C538 H532 0.930 1_556 S
C538 C539 1.367 . S
C538 C546 1.378 1_556 S
C539 C538 1.367 . S
C539 C547 1.433 1_655 S
C540 H536 0.929 . S
C540 C542 1.378 . S
C540 C544 1.350 . S
C541 C544 1.463 1_655 S
C541 C546 1.350 1_556 S
C541 N549 1.427 1_655 S
C542 H533 0.930 . S
C542 C540 1.378 . S
C542 C543 1.367 . S
C543 C542 1.367 . S
C543 C545 1.433 1_456 S
C544 C540 1.350 . S
C544 C541 1.463 1_455 S
C544 N548 1.427 1_456 S
C545 H535 0.929 . S
C545 C543 1.433 1_654 S
C545 N548 1.384 . S
C546 H537 0.929 . S
C546 C538 1.378 1_554 S
C546 C541 1.350 1_554 S
C547 H534 0.929 . S
C547 C539 1.433 1_455 S
C547 N549 1.384 . S
N548 C544 1.427 1_654 S
N548 C545 1.384 . S
N549 C541 1.427 1_455 S
N549 C547 1.384 . S
H550 C556 0.930 . S
H551 C560 0.930 . S
H552 C565 0.929 . S
H553 C563 0.929 . S
H554 C558 0.929 . S
H555 C564 0.929 . S
C556 H550 0.930 . S
C556 C557 1.367 . S
C556 C564 1.378 . S
C557 C556 1.367 . S
C557 C565 1.433 . S
C558 H554 0.929 . S
C558 C560 1.378 . S
C558 C562 1.350 . S
C559 C562 1.463 . S
C559 C564 1.350 . S
C559 N567 1.427 . S
C560 H551 0.930 . S
C560 C558 1.378 . S
C560 C561 1.367 . S
C561 C560 1.367 . S
C561 C563 1.433 . S
C562 C558 1.350 . S
C562 C559 1.463 . S
C562 N566 1.427 . S
C563 H553 0.929 . S
C563 C561 1.433 . S
C563 N566 1.384 . S
C564 H555 0.929 . S
C564 C556 1.378 . S
C564 C559 1.350 . S
C565 H552 0.929 . S
C565 C557 1.433 . S
C565 N567 1.384 . S
N566 C562 1.427 . S
N566 C563 1.384 . S
N567 C559 1.427 . S
N567 C565 1.384 . S
H568 C574 0.930 . S
H569 C578 0.930 . S
H570 C583 0.929 . S
H571 C581 0.929 . S
H572 C576 0.929 . S
H573 C582 0.929 . S
C574 H568 0.930 . S
C574 C575 1.367 . S
C574 C582 1.378 . S
C575 C574 1.367 . S
C575 C583 1.433 . S
C576 H572 0.929 . S
C576 C578 1.378 . S
C576 C580 1.350 . S
C577 C580 1.463 . S
C577 C582 1.350 . S
C577 N585 1.427 . S
C578 H569 0.930 . S
C578 C576 1.378 . S
C578 C579 1.367 . S
C579 C578 1.367 . S
C579 C581 1.433 . S
C580 C576 1.350 . S
C580 C577 1.463 . S
C580 N584 1.427 . S
C581 H571 0.929 . S
C581 C579 1.433 . S
C581 N584 1.384 . S
C582 H573 0.929 . S
C582 C574 1.378 . S
C582 C577 1.350 . S
C583 H570 0.929 . S
C583 C575 1.433 . S
C583 N585 1.384 . S
N584 C580 1.427 . S
N584 C581 1.384 . S
N585 C577 1.427 . S
N585 C583 1.384 . S
H586 C592 0.930 . S
H587 C596 0.930 . S
H588 C601 0.929 . S
H589 C599 0.929 . S
H590 C594 0.929 . S
H591 C600 0.929 . S
C592 H586 0.930 . S
C592 C593 1.367 . S
C592 C600 1.378 . S
C593 C592 1.367 . S
C593 C601 1.433 . S
C594 H590 0.929 . S
C594 C596 1.378 . S
C594 C598 1.350 . S
C595 C598 1.463 . S
C595 C600 1.350 . S
C595 N603 1.427 . S
C596 H587 0.930 . S
C596 C594 1.378 . S
C596 C597 1.367 . S
C597 C596 1.367 . S
C597 C599 1.433 . S
C598 C594 1.350 . S
C598 C595 1.463 . S
C598 N602 1.427 . S
C599 H589 0.929 . S
C599 C597 1.433 . S
C599 N602 1.384 . S
C600 H591 0.929 . S
C600 C592 1.378 . S
C600 C595 1.350 . S
C601 H588 0.929 . S
C601 C593 1.433 . S
C601 N603 1.384 . S
N602 C598 1.427 . S
N602 C599 1.384 . S
N603 C595 1.427 . S
N603 C601 1.384 . S
C179 C6 1.712 . S
C183 C91 1.580 . S
C197 C20 1.816 . S
C201 C125 1.695 . S
C219 C137 1.065 . S
C215 N26 1.129 . S
C233 N37 1.368 . S
C237 C171 1.253 . S
C255 C128 1.826 . S
C251 C9 1.965 . S
C273 C108 1.254 . S
C269 N15 1.325 . S
C291 C155 1.290 . S
C287 C31 1.408 . S
C309 C146 1.363 . S
C305 C39 1.434 . S
C323 N4 1.578 . S
C327 C154 1.486 . S
C345 C116 1.488 . S
C341 C28 1.605 . S
C359 C42 1.299 . S
C363 C92 1.207 . S
C377 C17 1.656 . S
C381 C149 1.563 . S
C399 C107 1.778 . S
C395 C50 1.892 . S
C413 C61 1.637 . S
C417 C129 1.541 . S
C431 N70 1.502 . S
C435 C134 1.408 . S
C449 N81 1.342 . S
C453 C167 1.303 . S
C467 N48 1.469 . S
C471 C112 1.407 1_545 S
C489 C104 1.805 . S
C485 C64 1.930 . S
C507 C158 1.427 . S
C503 C75 1.481 . S
C525 C150 1.340 . S
C521 C86 1.459 . S
C539 C53 1.821 . S
C543 C170 1.710 . S
C561 C113 1.263 . S
C557 C72 1.354 . S
C579 C95 1.518 . S
C575 C83 1.656 . S
C593 N59 1.572 . S
C597 C133 1.476 . S
