# Generated by pormake.
# Topology anh, (6,3)-cn, num edge types: 1
# Building blocks:
#     Node 0, Type 0, BuildingBlock: INOVEN_clean_sbu_0, # of connection points: 6
#     Node 1, Type 0, BuildingBlock: INOVEN_clean_sbu_0, # of connection points: 6
#     Node 2, Type 0, BuildingBlock: INOVEN_clean_sbu_0, # of connection points: 6
#     Node 3, Type 1, BuildingBlock: BELTOD_clean_linker_0, # of connection points: 3
#     Node 4, Type 1, BuildingBlock: BELTOD_clean_linker_0, # of connection points: 3
#     Node 5, Type 1, BuildingBlock: BELTOD_clean_linker_0, # of connection points: 3
#     Node 6, Type 1, BuildingBlock: BELTOD_clean_linker_0, # of connection points: 3
#     Node 7, Type 1, BuildingBlock: BELTOD_clean_linker_0, # of connection points: 3
#     Node 8, Type 1, BuildingBlock: BELTOD_clean_linker_0, # of connection points: 3
#     Edge 9, Type (0, 1), None
#     Edge 10, Type (0, 1), None
#     Edge 11, Type (0, 1), None
#     Edge 12, Type (0, 1), None
#     Edge 13, Type (0, 1), None
#     Edge 14, Type (0, 1), None
#     Edge 15, Type (0, 1), None
#     Edge 16, Type (0, 1), None
#     Edge 17, Type (0, 1), None
#     Edge 18, Type (0, 1), None
#     Edge 19, Type (0, 1), None
#     Edge 20, Type (0, 1), None
#     Edge 21, Type (0, 1), None
#     Edge 22, Type (0, 1), None
#     Edge 23, Type (0, 1), None
#     Edge 24, Type (0, 1), None
#     Edge 25, Type (0, 1), None
#     Edge 26, Type (0, 1), None
# Relax obj value: 0.313
# Max RMSD: 0.279
# Mean RMSD: 0.184
data_MOF--net-anh--node1-INOVEN_clean_sbu_0--node2-BELTOD_clean_linker_0--edge1-none
_symmetry_space_group_name_H-M    P1
_symmetry_Int_Tables_number       1
_symmetry_cell_setting            triclinic
loop_
_symmetry_equiv_pos_as_xyz
'x, y, z'
_cell_length_a     19.125178
_cell_length_b     24.265123
_cell_length_c     31.856707
_cell_angle_alpha  92.154328
_cell_angle_beta   89.71056
_cell_angle_gamma 134.00679
loop_
_atom_site_label
_atom_site_type_symbol
_atom_site_fract_x
_atom_site_fract_y
_atom_site_fract_z
_atom_type_partial_charge
Gd0 Gd 0.26436 0.6007 0.14191 0.0
Gd1 Gd 0.14376 0.62887 0.166 0.0
C2 C 0.37412 0.7797 0.15625 0.0
C3 C 0.35829 0.57308 0.10711 0.0
C4 C 0.32985 0.49923 0.10586 0.0
C5 C 0.23287 0.43048 0.09604 0.0
C6 C 0.39615 0.49612 0.11966 0.0
C7 C 0.26907 0.35652 0.11434 0.0
C8 C 0.36617 0.42548 0.12383 0.0
C9 C 0.20286 0.35966 0.10008 0.0
C10 C 0.22689 0.58711 0.22487 0.0
C11 C 1.03944 0.4531 0.15819 0.0
C12 C 1.04148 0.64797 0.20193 0.0
C13 C 0.93496 0.58733 0.20494 0.0
C14 C 0.87821 0.59431 0.1832 0.0
C15 C 0.89073 0.5148 0.21878 0.0
C16 C 0.74623 0.45547 0.17735 0.0
C17 C 0.79672 0.44902 0.20484 0.0
C18 C 0.78406 0.5286 0.16954 0.0
C19 C 0.12652 0.58629 0.08287 0.0
O20 O 0.38309 0.73118 0.14656 0.0
O21 O 0.28772 0.75397 0.16426 0.0
O22 O 0.38314 0.60724 0.14452 0.0
O23 O 0.30131 0.57436 0.08558 0.0
O24 O 0.22546 0.54047 0.20271 0.0
O25 O 0.24936 0.63876 0.20239 0.0
O26 O 1.0419 0.50221 0.17958 0.0
O27 O 0.11346 0.47958 0.13446 0.0
O28 O 1.07288 0.66977 0.16367 0.0
O29 O 1.08955 0.63736 0.22309 0.0
O30 O 1.05362 0.56079 0.10571 0.0
O31 O 0.20387 0.63388 0.10475 0.0
H32 H 0.17971 0.43119 0.08566 0.0
H33 H 0.47076 0.5483 0.12777 0.0
H34 H 0.41999 0.42504 0.13354 0.0
H35 H 0.12823 0.30754 0.09201 0.0
H36 H 0.91018 0.64947 0.17258 0.0
H37 H 0.93198 0.50752 0.23635 0.0
H38 H 0.76819 0.39324 0.21177 0.0
H39 H 0.74471 0.53465 0.14917 0.0
Gd40 Gd 0.78766 0.10476 0.47305 0.0
Gd41 Gd 0.65111 0.12046 0.46566 0.0
C42 C 0.55484 0.94983 0.46001 0.0
C43 C 0.88181 0.06933 0.49584 0.0
C44 C 0.86192 1.00588 0.51528 0.0
C45 C 0.93904 0.01199 0.52313 0.0
C46 C 0.76769 0.94014 0.52682 0.0
C47 C 0.82821 0.88685 0.55374 0.0
C48 C 0.7507 0.88058 0.54557 0.0
C49 C 0.92248 0.95315 0.54233 0.0
C50 C 0.76733 0.12761 0.39347 0.0
C51 C 0.88739 0.27721 0.46818 0.0
C52 C 0.56411 0.16595 0.45416 0.0
C53 C 0.58108 0.2314 0.47337 0.0
C54 C 0.55155 0.22865 0.51444 0.0
C55 C 0.63243 0.29925 0.45182 0.0
C56 C 0.63165 0.36211 0.51326 0.0
C57 C 0.65758 0.36385 0.47153 0.0
C58 C 0.57666 0.29312 0.53411 0.0
C59 C 0.67755 0.09982 0.54533 0.0
O60 O 0.63878 0.98183 0.4783 0.0
O61 O 0.54533 0.99445 0.44479 0.0
O62 O 0.84586 0.05549 0.45784 0.0
O63 O 0.87232 0.1084 0.52 0.0
O64 O 0.84916 0.15824 0.41115 0.0
O65 O 0.69786 0.0836 0.41814 0.0
O66 O 0.79767 0.24519 0.45955 0.0
O67 O 0.90258 0.23417 0.47906 0.0
O68 O 0.53188 0.11101 0.47881 0.0
O69 O 0.63118 0.18315 0.42944 0.0
O70 O 0.59453 0.0682 0.52908 0.0
O71 O 0.7433 0.14351 0.5195 0.0
H72 H 1.01226 0.06247 0.51453 0.0
H73 H 0.70768 0.93523 0.52165 0.0
H74 H 0.67754 0.83037 0.55434 0.0
H75 H 0.98338 0.95913 0.54786 0.0
H76 H 0.51151 0.17739 0.53204 0.0
H77 H 0.65544 0.30308 0.42003 0.0
H78 H 0.6986 0.41556 0.45425 0.0
H79 H 0.55627 0.28966 0.56637 0.0
Gd80 Gd 0.63328 0.55898 0.87117 0.0
Gd81 Gd 0.49616 0.39055 0.8486 0.0
C82 C 0.40099 0.46867 0.8652 0.0
C83 C 0.75456 0.7059 0.86478 0.0
C84 C 0.74464 0.75481 0.84486 0.0
C85 C 0.79065 0.82697 0.8632 0.0
C86 C 0.68755 0.72929 0.80787 0.0
C87 C 0.72393 0.84783 0.80761 0.0
C88 C 0.67792 0.7754 0.78932 0.0
C89 C 0.78029 0.87284 0.8449 0.0
C90 C 0.5605 0.46527 0.93657 0.0
C91 C 0.73134 0.48288 0.86538 0.0
C92 C 0.38531 0.24453 0.8377 0.0
C93 C 0.41663 0.20356 0.83003 0.0
C94 C 0.37911 0.15182 0.79515 0.0
C95 C 0.49444 0.22425 0.85372 0.0
C96 C 0.50303 0.14887 0.80547 0.0
C97 C 0.53701 0.19734 0.8416 0.0
C98 C 0.42154 0.12438 0.7831 0.0
C99 C 0.59016 0.48169 0.78364 0.0
O100 O 0.49342 0.53554 0.86331 0.0
O101 O 0.38451 0.40433 0.86364 0.0
O102 O 0.70416 0.67155 0.89848 0.0
O103 O 0.7525 0.66115 0.83919 0.0
O104 O 0.57743 0.52735 0.93862 0.0
O105 O 0.58859 0.46082 0.90248 0.0
O106 O 0.63822 0.41505 0.86061 0.0
O107 O 0.74699 0.54662 0.86836 0.0
O108 O 0.40333 0.28759 0.80744 0.0
O109 O 0.40576 0.27827 0.87495 0.0
O110 O 0.57438 0.42139 0.78888 0.0
O111 O 0.55278 0.4907 0.81255 0.0
H112 H 0.83473 0.84795 0.89175 0.0
H113 H 0.6499 0.6734 0.79335 0.0
H114 H 0.63314 0.75376 0.76096 0.0
H115 H 0.81778 0.92857 0.85967 0.0
H116 H 0.31991 0.13544 0.77605 0.0
H117 H 0.52568 0.26405 0.88066 0.0
H118 H 0.5987 0.21638 0.85987 0.0
H119 H 0.39389 0.08735 0.75499 0.0
P120 P 0.7546 0.11462 0.20197 0.0
H121 H 0.71101 0.98555 0.15629 0.0
H122 H 0.56237 0.85289 0.14065 0.0
H123 H 0.39366 0.90108 0.18226 0.0
H124 H 0.54514 0.03607 0.19797 0.0
H125 H 0.88611 0.19841 0.13144 0.0
H126 H 1.00564 0.33445 0.11628 0.0
H127 H 0.88481 0.37651 0.21173 0.0
H128 H 0.76459 0.23997 0.22651 0.0
H129 H 0.59955 0.01445 0.26512 0.0
H130 H 0.90081 0.22918 0.26465 0.0
O131 O 0.83705 0.10964 0.19685 0.0
H132 H 0.6057 0.02088 0.34191 0.0
H133 H 0.90737 0.23458 0.34126 0.0
C134 C 0.64106 0.02228 0.17892 0.0
C135 C 0.64265 0.96896 0.16144 0.0
C136 C 0.55647 0.8919 0.15257 0.0
C137 C 0.46472 0.86469 0.16077 0.0
C138 C 0.46247 0.91912 0.1757 0.0
C139 C 0.54949 0.99695 0.18442 0.0
C140 C 0.81519 0.20759 0.18022 0.0
C141 C 0.88273 0.23609 0.14823 0.0
C142 C 0.95241 0.31476 0.13991 0.0
C143 C 0.9568 0.36774 0.16318 0.0
C144 C 0.88454 0.33819 0.19313 0.0
C145 C 0.8147 0.25933 0.20141 0.0
C146 C 0.74942 0.12223 0.25861 0.0
C147 C 0.66629 0.06404 0.28114 0.0
C148 C 0.66976 0.06748 0.32529 0.0
C149 C 0.75706 0.12812 0.34751 0.0
C150 C 0.83907 0.18708 0.32496 0.0
C151 C 0.83521 0.18416 0.28109 0.0
P152 P 0.79963 0.64301 0.62443 0.0
H153 H 0.87595 0.62182 0.55278 0.0
H154 H 0.81048 0.50914 0.50913 0.0
H155 H 0.53446 0.37601 0.56964 0.0
H156 H 0.60167 0.489 0.61393 0.0
H157 H 0.917 0.8028 0.64849 0.0
H158 H 0.93046 0.9018 0.61987 0.0
H159 H 0.68963 0.73243 0.53349 0.0
H160 H 0.67673 0.63318 0.56229 0.0
H161 H 0.82214 0.57231 0.68582 0.0
H162 H 0.65649 0.63125 0.6729 0.0
O163 O 0.91655 0.68965 0.63021 0.0
H164 H 0.73894 0.50814 0.75008 0.0
H165 H 0.57185 0.56613 0.73821 0.0
C166 C 0.74439 0.56339 0.5872 0.0
C167 C 0.80097 0.56862 0.55631 0.0
C168 C 0.76307 0.50405 0.53111 0.0
C169 C 0.66736 0.43293 0.53614 0.0
C170 C 0.60905 0.42932 0.5655 0.0
C171 C 0.6472 0.49404 0.59072 0.0
C172 C 0.79725 0.71122 0.60689 0.0
C173 C 0.86654 0.7868 0.62363 0.0
C174 C 0.87438 0.84331 0.60719 0.0
C175 C 0.8121 0.82494 0.57403 0.0
C176 C 0.73866 0.74809 0.559 0.0
C177 C 0.73145 0.69149 0.57529 0.0
C178 C 0.7461 0.60696 0.67483 0.0
C179 C 0.76925 0.57288 0.69737 0.0
C180 C 0.72152 0.53615 0.73408 0.0
C181 C 0.64948 0.53268 0.74912 0.0
C182 C 0.62846 0.56939 0.72757 0.0
C183 C 0.67623 0.606 0.69024 0.0
P184 P 0.10196 0.51593 0.89263 0.0
H185 H 0.28037 0.58507 0.84037 0.0
H186 H 0.39477 0.57164 0.83315 0.0
H187 H 0.21314 0.3716 0.90632 0.0
H188 H 1.09917 0.38791 0.9159 0.0
H189 H 1.06915 0.62069 0.88542 0.0
H190 H 0.9343 0.61079 0.87674 0.0
H191 H 0.73539 0.3656 0.86454 0.0
H192 H 0.87292 0.37555 0.87326 0.0
H193 H 0.26569 0.61713 0.95393 0.0
H194 H 0.953 0.4411 0.95878 0.0
O195 O 0.18665 0.60671 0.87853 0.0
H196 H 0.276 0.64838 0.02911 0.0
H197 H 0.96311 0.47285 0.03387 0.0
C198 C 0.17441 0.48731 0.87835 0.0
C199 C 0.26155 0.5368 0.85488 0.0
C200 C 0.32991 0.52911 0.85066 0.0
C201 C 0.31768 0.46982 0.86844 0.0
C202 C 0.22892 0.41812 0.89097 0.0
C203 C 0.16116 0.42727 0.89632 0.0
C204 C 0.98814 0.49957 0.8786 0.0
C205 C 0.99774 0.56372 0.8798 0.0
C206 C 0.9178 0.5581 0.87515 0.0
C207 C 0.81904 0.48737 0.86942 0.0
C208 C 0.80798 0.42227 0.86844 0.0
C209 C 0.88893 0.42798 0.87318 0.0
C210 C 0.10856 0.52716 0.95008 0.0
C211 C 0.19914 0.58439 0.97115 0.0
C212 C 0.20499 0.60256 0.01426 0.0
C213 C 0.12033 0.56397 0.03755 0.0
C214 C 1.02978 0.50446 0.01686 0.0
C215 C 1.024 0.48601 0.97375 0.0
P216 P 0.25463 0.60113 0.41632 0.0
H217 H 0.44039 0.70648 0.4646 0.0
H218 H 0.56153 0.8441 0.47851 0.0
H219 H 0.36214 0.85683 0.4316 0.0
H220 H 0.23846 0.71644 0.418 0.0
H221 H 0.22 0.5002 0.48017 0.0
H222 H 1.07591 0.36936 0.49813 0.0
H223 H 0.89639 0.3782 0.4237 0.0
H224 H 1.0422 0.50924 0.40478 0.0
H225 H 0.31897 0.71702 0.35396 0.0
H226 H 0.15026 0.47455 0.35336 0.0
O227 O 0.32844 0.58696 0.41752 0.0
H228 H 0.30625 0.70999 0.27791 0.0
H229 H 0.14236 0.46864 0.27638 0.0
C230 C 0.32935 0.69953 0.43936 0.0
C231 C 0.42072 0.73774 0.45795 0.0
C232 C 0.49126 0.81769 0.46582 0.0
C233 C 0.4737 0.86318 0.45539 0.0
C234 C 0.37961 0.82448 0.43954 0.0
C235 C 0.30798 0.74362 0.43219 0.0
C236 C 0.14347 0.5159 0.44089 0.0
C237 C 0.14969 0.47522 0.46839 0.0
C238 C 1.06659 0.39946 0.47849 0.0
C239 C 0.97359 0.36182 0.46208 0.0
C240 C 0.96629 0.40463 0.43704 0.0
C241 C 1.05005 0.48034 0.4264 0.0
C242 C 0.23217 0.59557 0.36024 0.0
C243 C 0.27625 0.66157 0.33804 0.0
C244 C 0.27014 0.65786 0.29408 0.0
C245 C 0.22351 0.58883 0.27126 0.0
C246 C 0.17876 0.52265 0.29325 0.0
C247 C 0.18264 0.52596 0.33729 0.0
P248 P 0.73469 0.08128 0.73108 0.0
H249 H 0.79071 0.2197 0.76822 0.0
H250 H 0.69886 0.24691 0.79728 0.0
H251 H 0.43217 1.00871 0.77663 0.0
H252 H 0.52568 0.98113 0.74833 0.0
H253 H 0.72964 0.96574 0.69271 0.0
H254 H 0.73052 0.87521 0.72377 0.0
H255 H 0.69641 0.93418 0.84664 0.0
H256 H 0.69589 0.0244 0.8154 0.0
H257 H 0.8722 0.17002 0.66307 0.0
H258 H 0.56148 0.98671 0.67434 0.0
O259 O 0.85192 0.15734 0.74315 0.0
H260 H 0.84975 0.17988 0.5891 0.0
H261 H 0.53877 0.99729 0.60054 0.0
C262 C 0.66542 0.09815 0.75635 0.0
C263 C 0.71274 0.17277 0.77053 0.0
C264 C 0.65996 0.18837 0.78721 0.0
C265 C 0.55808 0.12993 0.78944 0.0
C266 C 0.5105 0.055 0.7752 0.0
C267 C 0.56387 0.03917 0.75911 0.0
C268 C 0.71006 1.00056 0.7515 0.0
C269 C 0.71939 0.95747 0.72615 0.0
C270 C 0.7204 0.90591 0.74406 0.0
C271 C 0.71421 0.89754 0.78787 0.0
C272 C 0.7025 0.93959 0.81292 0.0
C273 C 0.70071 0.99051 0.79496 0.0
C274 C 0.71839 0.078 0.67465 0.0
C275 C 0.79908 0.13117 0.64965 0.0
C276 C 0.78632 0.13708 0.60728 0.0
C277 C 0.69251 0.09028 0.58917 0.0
C278 C 0.61202 0.03491 0.61376 0.0
C279 C 0.62489 0.02858 0.65601 0.0
P280 P 0.39555 0.22393 0.06558 0.0
H281 H 0.44248 0.20723 0.15106 0.0
H282 H 0.58136 0.3082 0.19883 0.0
H283 H 0.73827 0.45038 0.09324 0.0
H284 H 0.60209 0.35351 0.0471 0.0
H285 H 0.21461 0.17204 0.03462 0.0
H286 H 0.16901 0.24134 0.05291 0.0
H287 H 0.31059 0.30523 0.17466 0.0
H288 H 0.35899 0.23936 0.15596 0.0
H289 H 0.45909 0.2396 0.97953 0.0
H290 H 0.42077 0.35823 0.06511 0.0
O291 O 0.35641 0.14206 0.04492 0.0
H292 H 0.53773 0.34246 0.93129 0.0
H293 H 0.48823 0.45666 0.01398 0.0
C294 C 0.50667 0.27676 0.09653 0.0
C295 C 0.50625 0.26093 0.13853 0.0
C296 C 0.58551 0.31807 0.16565 0.0
C297 C 0.66657 0.38932 0.14999 0.0
C298 C 0.67331 0.39825 0.10657 0.0
C299 C 0.5946 0.34215 0.08004 0.0
C300 C 0.29894 0.20716 0.09206 0.0
C301 C 0.23092 0.19685 0.0663 0.0
C302 C 0.20478 0.23685 0.07677 0.0
C303 C 0.24321 0.28334 0.11397 0.0
C304 C 0.28539 0.27338 0.14466 0.0
C305 C 0.31409 0.23572 0.13356 0.0
C306 C 0.4291 0.28863 0.02507 0.0
C307 C 0.46238 0.28531 0.9869 0.0
C308 C 0.50727 0.34435 0.95927 0.0
C309 C 0.51538 0.406 0.96795 0.0
C310 C 0.48117 0.40916 0.006 0.0
C311 C 0.44053 0.35183 0.03477 0.0
loop_
_geom_bond_atom_site_label_1
_geom_bond_atom_site_label_2
_geom_bond_distance
_geom_bond_site_symmetry_2
_ccdc_geom_bond_type
Gd0 C3 2.818 . S
Gd0 O20 2.377 . S
Gd0 O22 2.448 . S
Gd0 O23 2.506 . S
Gd0 O24 2.435 . S
Gd0 O25 2.717 . S
Gd0 O27 2.395 1_455 S
Gd0 O31 2.327 . S
Gd1 C12 2.818 . S
Gd1 O21 2.395 1_655 S
Gd1 O25 2.327 1_655 S
Gd1 O26 2.377 . S
Gd1 O28 2.448 . S
Gd1 O29 2.506 . S
Gd1 O30 2.436 1_655 S
Gd1 O31 2.717 1_655 S
C2 O20 1.240 . S
C2 O21 1.240 . S
C3 Gd0 2.818 . S
C3 C4 1.510 . S
C3 O22 1.249 . S
C3 O23 1.252 . S
C4 C3 1.510 . S
C4 C5 1.404 . S
C4 C6 1.352 . S
C5 C4 1.404 . S
C5 C9 1.389 . S
C5 H32 0.930 . S
C6 C4 1.352 . S
C6 C8 1.374 . S
C6 H33 0.931 . S
C7 C8 1.359 . S
C7 C9 1.364 . S
C8 C6 1.374 . S
C8 C7 1.359 . S
C8 H34 0.931 . S
C9 C5 1.389 . S
C9 C7 1.364 . S
C9 H35 0.931 . S
C10 O24 1.256 . S
C10 O25 1.257 . S
C11 O26 1.240 . S
C11 O27 1.240 . S
C12 Gd1 2.818 . S
C12 C13 1.510 . S
C12 O28 1.249 . S
C12 O29 1.252 . S
C13 C12 1.510 . S
C13 C14 1.404 . S
C13 C15 1.352 . S
C14 C13 1.404 . S
C14 C18 1.389 . S
C14 H36 0.930 . S
C15 C13 1.352 . S
C15 C17 1.374 . S
C15 H37 0.931 . S
C16 C17 1.359 . S
C16 C18 1.364 . S
C17 C15 1.374 . S
C17 C16 1.359 . S
C17 H38 0.931 . S
C18 C14 1.389 . S
C18 C16 1.364 . S
C18 H39 0.931 . S
C19 O30 1.255 . S
C19 O31 1.257 . S
O20 Gd0 2.377 . S
O20 C2 1.240 . S
O21 Gd1 2.395 1_455 S
O21 C2 1.240 . S
O22 Gd0 2.448 . S
O22 C3 1.249 . S
O23 Gd0 2.506 . S
O23 C3 1.252 . S
O24 Gd0 2.435 . S
O24 C10 1.256 . S
O25 Gd0 2.717 . S
O25 Gd1 2.327 1_455 S
O25 C10 1.257 . S
O26 Gd1 2.377 . S
O26 C11 1.240 . S
O27 Gd0 2.395 1_655 S
O27 C11 1.240 . S
O28 Gd1 2.448 . S
O28 C12 1.249 . S
O29 Gd1 2.506 . S
O29 C12 1.252 . S
O30 Gd1 2.436 1_455 S
O30 C19 1.255 . S
O31 Gd0 2.327 . S
O31 Gd1 2.717 1_455 S
O31 C19 1.257 . S
H32 C5 0.930 . S
H33 C6 0.931 . S
H34 C8 0.931 . S
H35 C9 0.931 . S
H36 C14 0.930 . S
H37 C15 0.931 . S
H38 C17 0.931 . S
H39 C18 0.931 . S
Gd40 C43 2.818 . S
Gd40 O60 2.377 . S
Gd40 O62 2.448 . S
Gd40 O63 2.506 . S
Gd40 O64 2.435 . S
Gd40 O65 2.717 1_565 S
Gd40 O67 2.395 1_565 S
Gd40 O71 2.320 1_565 S
Gd41 C52 2.818 . S
Gd41 O61 2.395 1_545 S
Gd41 O65 2.327 . S
Gd41 O66 2.377 . S
Gd41 O68 2.448 . S
Gd41 O69 2.506 . S
Gd41 O70 2.435 . S
Gd41 O71 2.729 . S
C42 O60 1.240 . S
C42 O61 1.240 . S
C43 Gd40 2.818 . S
C43 C44 1.510 . S
C43 O62 1.249 . S
C43 O63 1.252 . S
C44 C43 1.510 . S
C44 C45 1.404 . S
C44 C46 1.352 . S
C45 C44 1.404 . S
C45 C49 1.389 . S
C45 H72 0.930 . S
C46 C44 1.352 . S
C46 C48 1.374 . S
C46 H73 0.931 . S
C47 C48 1.359 . S
C47 C49 1.364 . S
C48 C46 1.374 . S
C48 C47 1.359 . S
C48 H74 0.931 . S
C49 C45 1.389 . S
C49 C47 1.364 . S
C49 H75 0.931 . S
C50 O64 1.256 1_545 S
C50 O65 1.257 . S
C51 O66 1.240 . S
C51 O67 1.240 . S
C52 Gd41 2.818 . S
C52 C53 1.510 . S
C52 O68 1.249 . S
C52 O69 1.252 . S
C53 C52 1.510 . S
C53 C54 1.404 . S
C53 C55 1.352 . S
C54 C53 1.404 . S
C54 C58 1.389 . S
C54 H76 0.930 . S
C55 C53 1.352 . S
C55 C57 1.374 . S
C55 H77 0.931 . S
C56 C57 1.359 . S
C56 C58 1.364 . S
C57 C55 1.374 . S
C57 C56 1.359 . S
C57 H78 0.931 . S
C58 C54 1.389 . S
C58 C56 1.364 . S
C58 H79 0.931 . S
C59 O70 1.256 . S
C59 O71 1.264 . S
O60 Gd40 2.377 . S
O60 C42 1.240 . S
O61 Gd41 2.395 1_565 S
O61 C42 1.240 . S
O62 Gd40 2.448 . S
O62 C43 1.249 . S
O63 Gd40 2.506 . S
O63 C43 1.252 . S
O64 Gd40 2.435 . S
O64 C50 1.256 1_565 S
O65 Gd40 2.717 1_545 S
O65 Gd41 2.327 . S
O65 C50 1.257 . S
O66 Gd41 2.377 . S
O66 C51 1.240 . S
O67 Gd40 2.395 1_545 S
O67 C51 1.240 . S
O68 Gd41 2.448 . S
O68 C52 1.249 . S
O69 Gd41 2.506 . S
O69 C52 1.252 . S
O70 Gd41 2.435 . S
O70 C59 1.256 . S
O71 Gd40 2.320 1_545 S
O71 Gd41 2.729 . S
O71 C59 1.264 . S
H72 C45 0.930 . S
H73 C46 0.931 . S
H74 C48 0.931 . S
H75 C49 0.931 . S
H76 C54 0.930 . S
H77 C55 0.931 . S
H78 C57 0.931 . S
H79 C58 0.931 . S
Gd80 C83 2.818 . S
Gd80 O100 2.377 . S
Gd80 O102 2.448 . S
Gd80 O103 2.506 . S
Gd80 O104 2.435 . S
Gd80 O105 2.717 . S
Gd80 O107 2.395 . S
Gd80 O111 2.327 . S
Gd81 C92 2.818 . S
Gd81 O101 2.395 . S
Gd81 O105 2.327 . S
Gd81 O106 2.377 . S
Gd81 O108 2.448 . S
Gd81 O109 2.506 . S
Gd81 O110 2.435 . S
Gd81 O111 2.717 . S
C82 O100 1.240 . S
C82 O101 1.240 . S
C83 Gd80 2.818 . S
C83 C84 1.510 . S
C83 O102 1.249 . S
C83 O103 1.252 . S
C84 C83 1.510 . S
C84 C85 1.404 . S
C84 C86 1.352 . S
C85 C84 1.404 . S
C85 C89 1.389 . S
C85 H112 0.930 . S
C86 C84 1.352 . S
C86 C88 1.374 . S
C86 H113 0.931 . S
C87 C88 1.359 . S
C87 C89 1.364 . S
C88 C86 1.374 . S
C88 C87 1.359 . S
C88 H114 0.931 . S
C89 C85 1.389 . S
C89 C87 1.364 . S
C89 H115 0.931 . S
C90 O104 1.256 . S
C90 O105 1.257 . S
C91 O106 1.240 . S
C91 O107 1.240 . S
C92 Gd81 2.818 . S
C92 C93 1.510 . S
C92 O108 1.249 . S
C92 O109 1.252 . S
C93 C92 1.510 . S
C93 C94 1.404 . S
C93 C95 1.352 . S
C94 C93 1.404 . S
C94 C98 1.389 . S
C94 H116 0.930 . S
C95 C93 1.352 . S
C95 C97 1.374 . S
C95 H117 0.931 . S
C96 C97 1.359 . S
C96 C98 1.364 . S
C97 C95 1.374 . S
C97 C96 1.359 . S
C97 H118 0.931 . S
C98 C94 1.389 . S
C98 C96 1.364 . S
C98 H119 0.931 . S
C99 O110 1.256 . S
C99 O111 1.257 . S
O100 Gd80 2.377 . S
O100 C82 1.240 . S
O101 Gd81 2.395 . S
O101 C82 1.240 . S
O102 Gd80 2.448 . S
O102 C83 1.249 . S
O103 Gd80 2.506 . S
O103 C83 1.252 . S
O104 Gd80 2.435 . S
O104 C90 1.256 . S
O105 Gd80 2.717 . S
O105 Gd81 2.327 . S
O105 C90 1.257 . S
O106 Gd81 2.377 . S
O106 C91 1.240 . S
O107 Gd80 2.395 . S
O107 C91 1.240 . S
O108 Gd81 2.448 . S
O108 C92 1.249 . S
O109 Gd81 2.506 . S
O109 C92 1.252 . S
O110 Gd81 2.435 . S
O110 C99 1.256 . S
O111 Gd80 2.327 . S
O111 Gd81 2.717 . S
O111 C99 1.257 . S
H112 C85 0.930 . S
H113 C86 0.931 . S
H114 C88 0.931 . S
H115 C89 0.931 . S
H116 C94 0.930 . S
H117 C95 0.931 . S
H118 C97 0.931 . S
H119 C98 0.931 . S
P120 O131 1.479 1_545 S
P120 C134 1.812 1_545 S
P120 C140 1.803 . S
P120 C146 1.819 . S
H121 C135 0.941 . S
H122 C136 0.939 . S
H123 C138 0.940 . S
H124 C139 0.940 . S
H125 C141 0.939 . S
H126 C142 0.942 . S
H127 C144 0.940 . S
H128 C145 0.939 . S
H129 C147 0.941 . S
H130 C151 0.939 . S
O131 P120 1.479 1_565 S
H132 C148 0.939 . S
H133 C150 0.940 . S
C134 P120 1.812 1_565 S
C134 C135 1.389 . S
C134 C139 1.391 . S
C135 H121 0.941 . S
C135 C134 1.389 . S
C135 C136 1.397 . S
C136 H122 0.939 . S
C136 C135 1.397 . S
C136 C137 1.378 . S
C137 C136 1.378 . S
C137 C138 1.378 . S
C138 H123 0.940 . S
C138 C137 1.378 . S
C138 C139 1.396 . S
C139 H124 0.940 . S
C139 C134 1.391 . S
C139 C138 1.396 . S
C140 P120 1.803 . S
C140 C141 1.378 . S
C140 C145 1.400 . S
C141 H125 0.939 . S
C141 C140 1.378 . S
C141 C142 1.361 . S
C142 H126 0.942 . S
C142 C141 1.361 . S
C142 C143 1.369 . S
C143 C142 1.369 . S
C143 C144 1.404 . S
C144 H127 0.940 . S
C144 C143 1.404 . S
C144 C145 1.389 . S
C145 H128 0.939 . S
C145 C140 1.400 . S
C145 C144 1.389 . S
C146 P120 1.819 . S
C146 C147 1.391 1_545 S
C146 C151 1.391 . S
C147 H129 0.941 . S
C147 C146 1.391 1_565 S
C147 C148 1.396 . S
C148 H132 0.939 . S
C148 C147 1.396 . S
C148 C149 1.397 1_565 S
C149 C148 1.397 1_545 S
C149 C150 1.385 . S
C150 H133 0.940 . S
C150 C149 1.385 . S
C150 C151 1.388 . S
C151 H130 0.939 . S
C151 C146 1.391 . S
C151 C150 1.388 . S
P152 O163 1.490 . S
P152 C166 1.812 . S
P152 C172 1.803 . S
P152 C178 1.819 . S
H153 C167 0.941 . S
H154 C168 0.939 . S
H155 C170 0.940 . S
H156 C171 0.940 . S
H157 C173 0.939 . S
H158 C174 0.942 . S
H159 C176 0.940 . S
H160 C177 0.939 . S
H161 C179 0.941 . S
H162 C183 0.939 . S
O163 P152 1.490 . S
H164 C180 0.939 . S
H165 C182 0.940 . S
C166 P152 1.812 . S
C166 C167 1.389 . S
C166 C171 1.391 . S
C167 H153 0.941 . S
C167 C166 1.389 . S
C167 C168 1.397 . S
C168 H154 0.939 . S
C168 C167 1.397 . S
C168 C169 1.378 . S
C169 C168 1.378 . S
C169 C170 1.378 . S
C170 H155 0.940 . S
C170 C169 1.378 . S
C170 C171 1.396 . S
C171 H156 0.940 . S
C171 C166 1.391 . S
C171 C170 1.396 . S
C172 P152 1.803 . S
C172 C173 1.378 . S
C172 C177 1.400 . S
C173 H157 0.939 . S
C173 C172 1.378 . S
C173 C174 1.361 . S
C174 H158 0.942 . S
C174 C173 1.361 . S
C174 C175 1.369 . S
C175 C174 1.369 . S
C175 C176 1.404 . S
C176 H159 0.940 . S
C176 C175 1.404 . S
C176 C177 1.389 . S
C177 H160 0.939 . S
C177 C172 1.400 . S
C177 C176 1.389 . S
C178 P152 1.819 . S
C178 C179 1.391 . S
C178 C183 1.391 . S
C179 H161 0.941 . S
C179 C178 1.391 . S
C179 C180 1.396 . S
C180 H164 0.939 . S
C180 C179 1.396 . S
C180 C181 1.397 . S
C181 C180 1.397 . S
C181 C182 1.385 . S
C182 H165 0.940 . S
C182 C181 1.385 . S
C182 C183 1.388 . S
C183 H162 0.939 . S
C183 C178 1.391 . S
C183 C182 1.388 . S
P184 O195 1.490 . S
P184 C198 1.812 . S
P184 C204 1.803 . S
P184 C210 1.819 . S
H185 C199 0.941 . S
H186 C200 0.939 . S
H187 C202 0.940 . S
H188 C203 0.940 . S
H189 C205 0.939 . S
H190 C206 0.942 . S
H191 C208 0.940 . S
H192 C209 0.939 . S
H193 C211 0.935 1_556 S
H194 C215 0.939 . S
O195 P184 1.490 . S
H196 C212 0.939 . S
H197 C214 0.940 1_655 S
C198 P184 1.812 . S
C198 C199 1.389 . S
C198 C203 1.391 . S
C199 H185 0.941 . S
C199 C198 1.389 . S
C199 C200 1.397 . S
C200 H186 0.939 . S
C200 C199 1.397 . S
C200 C201 1.378 . S
C201 C200 1.378 . S
C201 C202 1.378 . S
C202 H187 0.940 . S
C202 C201 1.378 . S
C202 C203 1.396 . S
C203 H188 0.940 . S
C203 C198 1.391 . S
C203 C202 1.396 . S
C204 P184 1.803 . S
C204 C205 1.378 . S
C204 C209 1.400 . S
C205 H189 0.939 . S
C205 C204 1.378 . S
C205 C206 1.361 1_455 S
C206 H190 0.942 . S
C206 C205 1.361 1_655 S
C206 C207 1.369 . S
C207 C206 1.369 . S
C207 C208 1.404 . S
C208 H191 0.940 . S
C208 C207 1.404 . S
C208 C209 1.389 1_655 S
C209 H192 0.939 . S
C209 C204 1.400 . S
C209 C208 1.389 1_455 S
C210 P184 1.819 . S
C210 C211 1.391 1_556 S
C210 C215 1.391 . S
C211 H193 0.935 1_554 S
C211 C210 1.391 1_554 S
C211 C212 1.396 . S
C212 H196 0.939 . S
C212 C211 1.396 . S
C212 C213 1.397 . S
C213 C212 1.397 . S
C213 C214 1.385 . S
C214 H197 0.940 1_455 S
C214 C213 1.385 . S
C214 C215 1.388 1_554 S
C215 H194 0.939 . S
C215 C210 1.391 . S
C215 C214 1.388 1_556 S
P216 O227 1.490 . S
P216 C230 1.812 . S
P216 C236 1.803 1_455 S
P216 C242 1.819 . S
H217 C231 0.941 . S
H218 C232 0.939 . S
H219 C234 0.940 . S
H220 C235 0.940 . S
H221 C237 0.939 . S
H222 C238 0.942 . S
H223 C240 0.940 . S
H224 C241 0.939 . S
H225 C243 0.941 . S
H226 C247 0.939 . S
O227 P216 1.490 . S
H228 C244 0.939 . S
H229 C246 0.940 . S
C230 P216 1.812 . S
C230 C231 1.389 . S
C230 C235 1.391 . S
C231 H217 0.941 . S
C231 C230 1.389 . S
C231 C232 1.397 . S
C232 H218 0.939 . S
C232 C231 1.397 . S
C232 C233 1.378 . S
C233 C232 1.378 . S
C233 C234 1.378 . S
C234 H219 0.940 . S
C234 C233 1.378 . S
C234 C235 1.396 . S
C235 H220 0.940 . S
C235 C230 1.391 . S
C235 C234 1.396 . S
C236 P216 1.803 1_655 S
C236 C237 1.378 . S
C236 C241 1.400 . S
C237 H221 0.939 . S
C237 C236 1.378 . S
C237 C238 1.361 . S
C238 H222 0.942 . S
C238 C237 1.361 . S
C238 C239 1.369 . S
C239 C238 1.369 . S
C239 C240 1.404 . S
C240 H223 0.940 . S
C240 C239 1.404 . S
C240 C241 1.389 . S
C241 H224 0.939 . S
C241 C236 1.400 . S
C241 C240 1.389 . S
C242 P216 1.819 . S
C242 C243 1.391 . S
C242 C247 1.391 1_455 S
C243 H225 0.941 . S
C243 C242 1.391 . S
C243 C244 1.396 . S
C244 H228 0.939 . S
C244 C243 1.396 . S
C244 C245 1.397 . S
C245 C244 1.397 . S
C245 C246 1.385 1_455 S
C246 H229 0.940 . S
C246 C245 1.385 1_655 S
C246 C247 1.388 . S
C247 H226 0.939 . S
C247 C242 1.391 1_655 S
C247 C246 1.388 . S
P248 O259 1.490 . S
P248 C262 1.812 . S
P248 C268 1.803 1_545 S
P248 C274 1.819 . S
H249 C263 0.941 . S
H250 C264 0.939 . S
H251 C266 0.940 . S
H252 C267 0.940 . S
H253 C269 0.939 1_545 S
H254 C270 0.942 . S
H255 C272 0.940 . S
H256 C273 0.939 . S
H257 C275 0.941 . S
H258 C279 0.939 . S
O259 P248 1.490 . S
H260 C276 0.939 . S
H261 C278 0.940 . S
C262 P248 1.812 . S
C262 C263 1.389 . S
C262 C267 1.391 . S
C263 H249 0.941 . S
C263 C262 1.389 . S
C263 C264 1.397 . S
C264 H250 0.939 . S
C264 C263 1.397 . S
C264 C265 1.378 . S
C265 C264 1.378 . S
C265 C266 1.378 . S
C266 H251 0.940 . S
C266 C265 1.378 . S
C266 C267 1.396 . S
C267 H252 0.940 . S
C267 C262 1.391 . S
C267 C266 1.396 . S
C268 P248 1.803 1_565 S
C268 C269 1.378 . S
C268 C273 1.400 . S
C269 H253 0.939 1_565 S
C269 C268 1.378 . S
C269 C270 1.361 . S
C270 H254 0.942 . S
C270 C269 1.361 . S
C270 C271 1.369 . S
C271 C270 1.369 . S
C271 C272 1.404 . S
C272 H255 0.940 . S
C272 C271 1.404 . S
C272 C273 1.389 . S
C273 H256 0.939 . S
C273 C268 1.400 . S
C273 C272 1.389 . S
C274 P248 1.819 . S
C274 C275 1.391 . S
C274 C279 1.391 1_545 S
C275 H257 0.941 . S
C275 C274 1.391 . S
C275 C276 1.396 . S
C276 H260 0.939 . S
C276 C275 1.396 . S
C276 C277 1.397 1_545 S
C277 C276 1.397 1_565 S
C277 C278 1.385 . S
C278 H261 0.940 . S
C278 C277 1.385 . S
C278 C279 1.388 . S
C279 H258 0.939 . S
C279 C274 1.391 1_565 S
C279 C278 1.388 . S
P280 O291 1.490 . S
P280 C294 1.812 . S
P280 C300 1.803 . S
P280 C306 1.819 . S
H281 C295 0.941 . S
H282 C296 0.939 . S
H283 C298 0.940 . S
H284 C299 0.940 . S
H285 C301 0.939 . S
H286 C302 0.942 . S
H287 C304 0.940 . S
H288 C305 0.939 . S
H289 C307 0.941 . S
H290 C311 0.939 . S
O291 P280 1.490 . S
H292 C308 0.939 . S
H293 C310 0.940 . S
C294 P280 1.812 . S
C294 C295 1.389 . S
C294 C299 1.391 . S
C295 H281 0.941 . S
C295 C294 1.389 . S
C295 C296 1.397 . S
C296 H282 0.939 . S
C296 C295 1.397 . S
C296 C297 1.378 . S
C297 C296 1.378 . S
C297 C298 1.378 . S
C298 H283 0.940 . S
C298 C297 1.378 . S
C298 C299 1.396 . S
C299 H284 0.940 . S
C299 C294 1.391 . S
C299 C298 1.396 . S
C300 P280 1.803 . S
C300 C301 1.378 . S
C300 C305 1.400 . S
C301 H285 0.939 . S
C301 C300 1.378 . S
C301 C302 1.361 . S
C302 H286 0.942 . S
C302 C301 1.361 . S
C302 C303 1.369 . S
C303 C302 1.369 . S
C303 C304 1.404 . S
C304 H287 0.940 . S
C304 C303 1.404 . S
C304 C305 1.389 . S
C305 H288 0.939 . S
C305 C300 1.400 . S
C305 C304 1.389 . S
C306 P280 1.819 . S
C306 C307 1.391 1_554 S
C306 C311 1.391 . S
C307 H289 0.941 . S
C307 C306 1.391 1_556 S
C307 C308 1.396 . S
C308 H292 0.939 . S
C308 C307 1.396 . S
C308 C309 1.397 . S
C309 C308 1.397 . S
C309 C310 1.385 . S
C310 H293 0.940 . S
C310 C309 1.385 . S
C310 C311 1.388 1_556 S
C311 H290 0.939 . S
C311 C306 1.391 . S
C311 C310 1.388 1_554 S
C7 C303 4.033 . S
C51 C239 2.559 . S
C87 C271 2.714 . S
C16 C297 2.410 . S
C233 C42 2.898 . S
C265 C96 1.837 . S
C47 C175 2.042 . S
C91 C207 4.820 . S
C2 C137 3.041 . S
C169 C56 2.230 . S
C201 C82 4.810 . S
C11 C143 2.684 . S
C213 C19 2.027 . S
C50 C149 1.045 . S
C99 C181 1.486 . S
C277 C59 1.362 1_565 S
C309 C90 2.084 . S
C10 C245 0.985 . S
