# Generated by pormake.
# Topology ctn, (3,4)-cn, num edge types: 1
# Building blocks:
#     Node 0, Type 0, BuildingBlock: ESEHIV_clean_linker_0, # of connection points: 3
#     Node 1, Type 0, BuildingBlock: ESEHIV_clean_linker_0, # of connection points: 3
#     Node 2, Type 0, BuildingBlock: ESEHIV_clean_linker_0, # of connection points: 3
#     Node 3, Type 0, BuildingBlock: ESEHIV_clean_linker_0, # of connection points: 3
#     Node 4, Type 0, BuildingBlock: ESEHIV_clean_linker_0, # of connection points: 3
#     Node 5, Type 0, BuildingBlock: ESEHIV_clean_linker_0, # of connection points: 3
#     Node 6, Type 0, BuildingBlock: ESEHIV_clean_linker_0, # of connection points: 3
#     Node 7, Type 0, BuildingBlock: ESEHIV_clean_linker_0, # of connection points: 3
#     Node 8, Type 0, BuildingBlock: ESEHIV_clean_linker_0, # of connection points: 3
#     Node 9, Type 0, BuildingBlock: ESEHIV_clean_linker_0, # of connection points: 3
#     Node 10, Type 0, BuildingBlock: ESEHIV_clean_linker_0, # of connection points: 3
#     Node 11, Type 0, BuildingBlock: ESEHIV_clean_linker_0, # of connection points: 3
#     Node 12, Type 0, BuildingBlock: ESEHIV_clean_linker_0, # of connection points: 3
#     Node 13, Type 0, BuildingBlock: ESEHIV_clean_linker_0, # of connection points: 3
#     Node 14, Type 0, BuildingBlock: ESEHIV_clean_linker_0, # of connection points: 3
#     Node 15, Type 0, BuildingBlock: ESEHIV_clean_linker_0, # of connection points: 3
#     Node 16, Type 1, BuildingBlock: UXUYUI_clean_sbu_0, # of connection points: 4
#     Node 17, Type 1, BuildingBlock: UXUYUI_clean_sbu_0, # of connection points: 4
#     Node 18, Type 1, BuildingBlock: UXUYUI_clean_sbu_0, # of connection points: 4
#     Node 19, Type 1, BuildingBlock: UXUYUI_clean_sbu_0, # of connection points: 4
#     Node 20, Type 1, BuildingBlock: UXUYUI_clean_sbu_0, # of connection points: 4
#     Node 21, Type 1, BuildingBlock: UXUYUI_clean_sbu_0, # of connection points: 4
#     Node 22, Type 1, BuildingBlock: UXUYUI_clean_sbu_0, # of connection points: 4
#     Node 23, Type 1, BuildingBlock: UXUYUI_clean_sbu_0, # of connection points: 4
#     Node 24, Type 1, BuildingBlock: UXUYUI_clean_sbu_0, # of connection points: 4
#     Node 25, Type 1, BuildingBlock: UXUYUI_clean_sbu_0, # of connection points: 4
#     Node 26, Type 1, BuildingBlock: UXUYUI_clean_sbu_0, # of connection points: 4
#     Node 27, Type 1, BuildingBlock: UXUYUI_clean_sbu_0, # of connection points: 4
#     Edge 28, Type (0, 1), BuildingBlock: ZUJKAS_clean_linker_0, # of connection points: 2
#     Edge 29, Type (0, 1), BuildingBlock: ZUJKAS_clean_linker_0, # of connection points: 2
#     Edge 30, Type (0, 1), BuildingBlock: ZUJKAS_clean_linker_0, # of connection points: 2
#     Edge 31, Type (0, 1), BuildingBlock: ZUJKAS_clean_linker_0, # of connection points: 2
#     Edge 32, Type (0, 1), BuildingBlock: ZUJKAS_clean_linker_0, # of connection points: 2
#     Edge 33, Type (0, 1), BuildingBlock: ZUJKAS_clean_linker_0, # of connection points: 2
#     Edge 34, Type (0, 1), BuildingBlock: ZUJKAS_clean_linker_0, # of connection points: 2
#     Edge 35, Type (0, 1), BuildingBlock: ZUJKAS_clean_linker_0, # of connection points: 2
#     Edge 36, Type (0, 1), BuildingBlock: ZUJKAS_clean_linker_0, # of connection points: 2
#     Edge 37, Type (0, 1), BuildingBlock: ZUJKAS_clean_linker_0, # of connection points: 2
#     Edge 38, Type (0, 1), BuildingBlock: ZUJKAS_clean_linker_0, # of connection points: 2
#     Edge 39, Type (0, 1), BuildingBlock: ZUJKAS_clean_linker_0, # of connection points: 2
#     Edge 40, Type (0, 1), BuildingBlock: ZUJKAS_clean_linker_0, # of connection points: 2
#     Edge 41, Type (0, 1), BuildingBlock: ZUJKAS_clean_linker_0, # of connection points: 2
#     Edge 42, Type (0, 1), BuildingBlock: ZUJKAS_clean_linker_0, # of connection points: 2
#     Edge 43, Type (0, 1), BuildingBlock: ZUJKAS_clean_linker_0, # of connection points: 2
#     Edge 44, Type (0, 1), BuildingBlock: ZUJKAS_clean_linker_0, # of connection points: 2
#     Edge 45, Type (0, 1), BuildingBlock: ZUJKAS_clean_linker_0, # of connection points: 2
#     Edge 46, Type (0, 1), BuildingBlock: ZUJKAS_clean_linker_0, # of connection points: 2
#     Edge 47, Type (0, 1), BuildingBlock: ZUJKAS_clean_linker_0, # of connection points: 2
#     Edge 48, Type (0, 1), BuildingBlock: ZUJKAS_clean_linker_0, # of connection points: 2
#     Edge 49, Type (0, 1), BuildingBlock: ZUJKAS_clean_linker_0, # of connection points: 2
#     Edge 50, Type (0, 1), BuildingBlock: ZUJKAS_clean_linker_0, # of connection points: 2
#     Edge 51, Type (0, 1), BuildingBlock: ZUJKAS_clean_linker_0, # of connection points: 2
#     Edge 52, Type (0, 1), BuildingBlock: ZUJKAS_clean_linker_0, # of connection points: 2
#     Edge 53, Type (0, 1), BuildingBlock: ZUJKAS_clean_linker_0, # of connection points: 2
#     Edge 54, Type (0, 1), BuildingBlock: ZUJKAS_clean_linker_0, # of connection points: 2
#     Edge 55, Type (0, 1), BuildingBlock: ZUJKAS_clean_linker_0, # of connection points: 2
#     Edge 56, Type (0, 1), BuildingBlock: ZUJKAS_clean_linker_0, # of connection points: 2
#     Edge 57, Type (0, 1), BuildingBlock: ZUJKAS_clean_linker_0, # of connection points: 2
#     Edge 58, Type (0, 1), BuildingBlock: ZUJKAS_clean_linker_0, # of connection points: 2
#     Edge 59, Type (0, 1), BuildingBlock: ZUJKAS_clean_linker_0, # of connection points: 2
#     Edge 60, Type (0, 1), BuildingBlock: ZUJKAS_clean_linker_0, # of connection points: 2
#     Edge 61, Type (0, 1), BuildingBlock: ZUJKAS_clean_linker_0, # of connection points: 2
#     Edge 62, Type (0, 1), BuildingBlock: ZUJKAS_clean_linker_0, # of connection points: 2
#     Edge 63, Type (0, 1), BuildingBlock: ZUJKAS_clean_linker_0, # of connection points: 2
#     Edge 64, Type (0, 1), BuildingBlock: ZUJKAS_clean_linker_0, # of connection points: 2
#     Edge 65, Type (0, 1), BuildingBlock: ZUJKAS_clean_linker_0, # of connection points: 2
#     Edge 66, Type (0, 1), BuildingBlock: ZUJKAS_clean_linker_0, # of connection points: 2
#     Edge 67, Type (0, 1), BuildingBlock: ZUJKAS_clean_linker_0, # of connection points: 2
#     Edge 68, Type (0, 1), BuildingBlock: ZUJKAS_clean_linker_0, # of connection points: 2
#     Edge 69, Type (0, 1), BuildingBlock: ZUJKAS_clean_linker_0, # of connection points: 2
#     Edge 70, Type (0, 1), BuildingBlock: ZUJKAS_clean_linker_0, # of connection points: 2
#     Edge 71, Type (0, 1), BuildingBlock: ZUJKAS_clean_linker_0, # of connection points: 2
#     Edge 72, Type (0, 1), BuildingBlock: ZUJKAS_clean_linker_0, # of connection points: 2
#     Edge 73, Type (0, 1), BuildingBlock: ZUJKAS_clean_linker_0, # of connection points: 2
#     Edge 74, Type (0, 1), BuildingBlock: ZUJKAS_clean_linker_0, # of connection points: 2
#     Edge 75, Type (0, 1), BuildingBlock: ZUJKAS_clean_linker_0, # of connection points: 2
# Relax obj value: 0.000
# Max RMSD: 0.006
# Mean RMSD: 0.004
data_MOF--net-ctn--node1-UXUYUI_clean_sbu_0--node2-ESEHIV_clean_linker_0--edge1-ZUJKAS_clean_linker_0
_symmetry_space_group_name_H-M    P1
_symmetry_Int_Tables_number       1
_symmetry_cell_setting            triclinic
loop_
_symmetry_equiv_pos_as_xyz
'x, y, z'
_cell_length_a     81.573745
_cell_length_b     81.570604
_cell_length_c     81.415154
_cell_angle_alpha  89.928578
_cell_angle_beta   90.131763
_cell_angle_gamma 90.070802
loop_
_atom_site_label
_atom_site_type_symbol
_atom_site_fract_x
_atom_site_fract_y
_atom_site_fract_z
_atom_type_partial_charge
H0 H 0.01658 0.05811 0.04427 0.0
H1 H 0.04472 0.01597 0.05878 0.0
H2 H 0.05911 0.04421 0.01653 0.0
C3 C 0.02672 0.0498 0.0422 0.0
C4 C 0.03739 0.0526 0.02896 0.0
C5 C 0.0294 0.03674 0.05315 0.0
C6 C 0.04286 0.02631 0.05063 0.0
C7 C 0.05365 0.02885 0.03742 0.0
C8 C 0.05082 0.04208 0.02669 0.0
H9 H 0.29491 0.69751 0.24023 0.0
H10 H 0.30933 0.73969 0.21196 0.0
H11 H 0.2668 0.71182 0.19785 0.0
C12 C 0.29304 0.70562 0.22984 0.0
C13 C 0.27957 0.70307 0.21936 0.0
C14 C 0.30383 0.71883 0.22732 0.0
C15 C 0.30103 0.72952 0.21405 0.0
C16 C 0.28763 0.72717 0.20343 0.0
C17 C 0.27693 0.71395 0.20622 0.0
H18 H 0.96256 0.48978 0.05935 0.0
H19 H 0.99016 0.44729 0.04493 0.0
H20 H 0.94771 0.4617 0.01715 0.0
C21 C 0.96442 0.47954 0.0511 0.0
C22 C 0.95362 0.4772 0.03781 0.0
C23 C 0.97757 0.46875 0.05388 0.0
C24 C 0.97986 0.45548 0.04313 0.0
C25 C 0.96924 0.45296 0.02976 0.0
C26 C 0.95618 0.46388 0.02718 0.0
H27 H 0.69827 0.76643 0.21266 0.0
H28 H 0.73994 0.79539 0.1984 0.0
H29 H 0.71236 0.8083 0.24147 0.0
C30 C 0.70628 0.77686 0.21467 0.0
C31 C 0.7036 0.78715 0.22823 0.0
C32 C 0.71948 0.77962 0.20397 0.0
C33 C 0.73005 0.79292 0.20692 0.0
C34 C 0.72759 0.80338 0.2204 0.0
C35 C 0.71435 0.80034 0.23103 0.0
H36 H 0.01707 0.94796 0.46322 0.0
H37 H 0.04441 0.9908 0.44926 0.0
H38 H 0.05981 0.96202 0.49084 0.0
C39 C 0.02726 0.95626 0.46525 0.0
C40 C 0.03808 0.95345 0.47841 0.0
C41 C 0.02948 0.96969 0.45465 0.0
C42 C 0.04271 0.9804 0.45737 0.0
C43 C 0.0538 0.97774 0.47035 0.0
C44 C 0.05135 0.96421 0.4808 0.0
H45 H 0.19783 0.73912 0.79505 0.0
H46 H 0.24034 0.71128 0.80901 0.0
H47 H 0.21211 0.69712 0.76662 0.0
C48 C 0.20611 0.72897 0.79291 0.0
C49 C 0.20325 0.71832 0.77965 0.0
C50 C 0.21956 0.72661 0.80345 0.0
C51 C 0.23021 0.71339 0.80063 0.0
C52 C 0.22753 0.70255 0.78749 0.0
C53 C 0.21403 0.70515 0.77704 0.0
H54 H 0.94805 0.5448 0.48969 0.0
H55 H 0.99055 0.55892 0.46189 0.0
H56 H 0.96298 0.51616 0.44801 0.0
C57 C 0.95656 0.54251 0.47975 0.0
C58 C 0.9539 0.52914 0.46919 0.0
C59 C 0.96976 0.55331 0.47725 0.0
C60 C 0.98037 0.55062 0.46394 0.0
C61 C 0.97791 0.53736 0.45321 0.0
C62 C 0.96468 0.52666 0.45597 0.0
H63 H 0.76752 0.79513 0.81021 0.0
H64 H 0.79352 0.80748 0.76592 0.0
H65 H 0.80969 0.7672 0.79595 0.0
C66 C 0.77721 0.79274 0.80147 0.0
C67 C 0.78806 0.77971 0.80442 0.0
C68 C 0.77914 0.80302 0.78772 0.0
C69 C 0.79219 0.80001 0.77685 0.0
C70 C 0.80336 0.78721 0.77975 0.0
C71 C 0.80117 0.77711 0.79358 0.0
H72 H 0.26726 0.29439 0.30993 0.0
H73 H 0.29461 0.30761 0.26678 0.0
H74 H 0.30909 0.26583 0.29557 0.0
C75 C 0.2773 0.29215 0.30153 0.0
C76 C 0.28771 0.27869 0.30422 0.0
C77 C 0.27974 0.30274 0.28812 0.0
C78 C 0.29286 0.29975 0.27737 0.0
C79 C 0.30346 0.2864 0.27989 0.0
C80 C 0.30075 0.27591 0.29332 0.0
H81 H 0.46269 0.98945 0.55939 0.0
H82 H 0.49076 0.94705 0.54554 0.0
H83 H 0.44769 0.96039 0.51798 0.0
C84 C 0.46462 0.97905 0.55135 0.0
C85 C 0.45366 0.97617 0.53835 0.0
C86 C 0.478 0.96855 0.55409 0.0
C87 C 0.48043 0.95516 0.54352 0.0
C88 C 0.46959 0.95213 0.53042 0.0
C89 C 0.45619 0.96268 0.52798 0.0
H90 H 0.19805 0.26654 0.71355 0.0
H91 H 0.23968 0.29538 0.69874 0.0
H92 H 0.21154 0.30947 0.74105 0.0
C93 C 0.20609 0.27697 0.71539 0.0
C94 C 0.20324 0.28767 0.72858 0.0
C95 C 0.21918 0.27968 0.70451 0.0
C96 C 0.22955 0.29322 0.70706 0.0
C97 C 0.22693 0.30402 0.72023 0.0
C98 C 0.21371 0.30116 0.7309 0.0
H99 H 0.7959 0.19645 0.73943 0.0
H100 H 0.80869 0.23946 0.71168 0.0
H101 H 0.7663 0.21109 0.69819 0.0
C102 C 0.79327 0.205 0.72957 0.0
C103 C 0.77981 0.20212 0.71916 0.0
C104 C 0.80372 0.21849 0.72705 0.0
C105 C 0.80064 0.2291 0.71377 0.0
C106 C 0.7873 0.2264 0.70314 0.0
C107 C 0.7769 0.21295 0.70602 0.0
H108 H 0.5169 0.55776 0.54491 0.0
H109 H 0.54462 0.51507 0.55871 0.0
H110 H 0.55888 0.5434 0.51653 0.0
C111 C 0.52701 0.54943 0.54277 0.0
C112 C 0.53744 0.55207 0.52931 0.0
C113 C 0.52955 0.53618 0.55353 0.0
C114 C 0.54276 0.52552 0.55069 0.0
C115 C 0.55333 0.52794 0.5373 0.0
C116 C 0.55054 0.54122 0.52664 0.0
H117 H 0.51697 0.44799 0.96331 0.0
H118 H 0.54574 0.48974 0.94873 0.0
H119 H 0.55931 0.46195 0.99155 0.0
C120 C 0.52743 0.45598 0.96516 0.0
C121 C 0.53796 0.45322 0.97856 0.0
C122 C 0.53002 0.46922 0.9544 0.0
C123 C 0.54335 0.4798 0.95724 0.0
C124 C 0.55398 0.47732 0.97063 0.0
C125 C 0.55116 0.46399 0.98123 0.0
H126 H 0.69822 0.23932 0.29515 0.0
H127 H 0.74124 0.21199 0.30866 0.0
H128 H 0.71324 0.198 0.26612 0.0
C129 C 0.70682 0.2295 0.29272 0.0
C130 C 0.7041 0.21899 0.27932 0.0
C131 C 0.72022 0.22713 0.30335 0.0
C132 C 0.73092 0.21395 0.30049 0.0
C133 C 0.72839 0.20323 0.28721 0.0
C134 C 0.71499 0.20592 0.27666 0.0
H135 H 0.44792 0.04425 0.99042 0.0
H136 H 0.48947 0.05923 0.9616 0.0
H137 H 0.46146 0.01684 0.94746 0.0
C138 C 0.45581 0.04256 0.97987 0.0
C139 C 0.45305 0.02926 0.96925 0.0
C140 C 0.46891 0.05346 0.97723 0.0
C141 C 0.47938 0.05086 0.96379 0.0
C142 C 0.47689 0.03757 0.9531 0.0
C143 C 0.46371 0.02683 0.95594 0.0
Li144 Li 0.26867 0.88839 1.00116 0.0
Li145 Li 0.25526 0.86771 0.01844 0.0
Li146 Li 0.25065 0.86779 0.98781 0.0
Li147 Li 0.2381 0.88836 0.00593 0.0
C148 C 0.28603 0.85885 0.99457 0.0
N149 N 0.31579 0.84797 0.98263 0.0
C150 C 0.29768 0.85214 0.00525 0.0
C151 C 0.28942 0.85973 0.97777 0.0
C152 C 0.31268 0.8468 0.99899 0.0
C153 C 0.30455 0.85424 0.97198 0.0
C154 C 0.25974 0.89323 0.03823 0.0
C155 C 0.25157 0.89092 0.06659 0.0
N156 N 0.26698 0.89522 0.07133 0.0
C157 C 0.27545 0.89776 0.04338 0.0
C158 C 0.24765 0.88991 0.04991 0.0
C159 C 0.27889 0.89866 0.06017 0.0
C160 C 0.28559 0.91688 0.99133 0.0
N161 N 0.28757 0.90194 0.99847 0.0
C162 C 0.31629 0.90682 1.00186 0.0
C163 C 0.3025 0.89687 0.0039 0.0
C164 C 0.31468 0.92223 0.99427 0.0
C165 C 0.29904 0.92723 0.98902 0.0
H166 H 0.27354 0.92075 0.98738 0.0
H167 H 0.30369 0.8852 0.01005 0.0
C168 C 0.24628 0.8433 0.0415 0.0
N169 N 0.25832 0.85398 0.03719 0.0
C170 C 0.24821 0.83315 0.05521 0.0
C171 C 0.27494 0.84515 0.05974 0.0
C172 C 0.27251 0.85499 0.04591 0.0
C173 C 0.2627 0.834 0.06456 0.0
H174 H 0.2352 0.84256 0.03423 0.0
H175 H 0.28194 0.86352 0.04216 0.0
C176 C 0.25115 0.89785 0.96948 0.0
N177 N 0.2526 0.90962 0.93766 0.0
C178 C 0.23734 0.90498 0.96224 0.0
C179 C 0.26578 0.89696 0.96062 0.0
C180 C 0.23829 0.91078 0.94612 0.0
C181 C 0.26625 0.90291 0.94454 0.0
C182 C 0.21801 0.86248 0.00679 0.0
C183 C 0.20901 0.85802 0.99287 0.0
C184 C 0.2099 0.86533 0.02161 0.0
C185 C 0.19196 0.85673 0.99396 0.0
C186 C 0.19284 0.86394 0.02219 0.0
N187 N 0.1843 0.85971 0.00847 0.0
C188 C 0.25386 0.83871 0.9697 0.0
C189 C 0.23961 0.85964 0.95541 0.0
C190 C 0.25219 0.82811 0.95633 0.0
N191 N 0.24773 0.85419 0.96896 0.0
C192 C 0.23775 0.84951 0.94173 0.0
C193 C 0.24411 0.83352 0.94207 0.0
H194 H 0.26011 0.83462 0.98069 0.0
H195 H 0.23437 0.87177 0.95527 0.0
C196 C 0.21921 0.91288 0.02145 0.0
N197 N 0.21934 0.90205 0.00879 0.0
C198 C 0.20565 0.923 0.02399 0.0
C199 C 0.19262 0.91071 1.00033 0.0
C200 C 0.20647 0.9009 0.99821 0.0
C201 C 0.19207 0.92197 0.01337 0.0
H202 H 0.22969 0.91376 0.02954 0.0
H203 H 0.20693 0.89231 0.98813 0.0
O204 O 0.27127 0.86412 1.00052 0.0
O205 O 0.25621 0.89207 0.02184 0.0
O206 O 0.25039 0.89209 0.98527 0.0
O207 O 0.23469 0.86396 0.00592 0.0
H208 H 0.29521 0.85115 0.01825 0.0
H209 H 0.2804 0.8644 0.96924 0.0
H210 H 0.32185 0.8417 0.00714 0.0
H211 H 0.30733 0.8549 0.95901 0.0
H212 H 0.24236 0.88827 0.07577 0.0
H213 H 0.28493 0.90047 0.03451 0.0
H214 H 0.2354 0.88649 0.04614 0.0
H215 H 0.29103 0.90206 0.06433 0.0
H216 H 0.32803 0.90261 0.00644 0.0
H217 H 0.29722 0.93894 0.98301 0.0
H218 H 0.23856 0.82456 0.05827 0.0
H219 H 0.28622 0.84639 0.06666 0.0
H220 H 0.22597 0.90596 0.96895 0.0
H221 H 0.27672 0.89196 0.96616 0.0
H222 H 0.22765 0.91623 0.94033 0.0
H223 H 0.27749 0.90227 0.93754 0.0
H224 H 0.21509 0.85569 0.98132 0.0
H225 H 0.21668 0.86869 0.03252 0.0
H226 H 0.18483 0.85338 0.98326 0.0
H227 H 0.18639 0.86623 0.03356 0.0
H228 H 0.25734 0.81591 0.95707 0.0
H229 H 0.23116 0.85404 0.93109 0.0
H230 H 0.20593 0.9317 0.03402 0.0
H231 H 0.1824 0.90934 0.99193 0.0
Li232 Li 0.11885 0.50487 0.26916 0.0
Li233 Li 0.13952 0.48737 0.25604 0.0
Li234 Li 0.13954 0.51799 0.25123 0.0
Li235 Li 0.11903 0.49993 0.23851 0.0
C236 C 0.14779 0.51043 0.28734 0.0
N237 N 0.15724 0.52043 0.31839 0.0
C238 C 0.15423 0.49911 0.29852 0.0
C239 C 0.14645 0.52689 0.29187 0.0
C240 C 0.15885 0.50439 0.31418 0.0
C241 C 0.15122 0.5317 0.30763 0.0
C242 C 0.11334 0.46786 0.26032 0.0
C243 C 0.11448 0.43945 0.25224 0.0
N244 N 0.10995 0.43494 0.26766 0.0
C245 C 0.10853 0.46296 0.27605 0.0
C246 C 0.11619 0.45603 0.24827 0.0
C247 C 0.10694 0.44626 0.27953 0.0
C248 C 0.0907 0.51571 0.28596 0.0
N249 N 0.10523 0.50781 0.28799 0.0
C250 C 0.09983 0.50401 0.3166 0.0
C251 C 0.10983 0.50181 0.30289 0.0
C252 C 0.08485 0.51235 0.31494 0.0
C253 C 0.08031 0.51819 0.29934 0.0
H254 H 0.08718 0.52011 0.27393 0.0
H255 H 0.12113 0.49505 0.3041 0.0
C256 C 0.16459 0.46499 0.24764 0.0
N257 N 0.15317 0.46861 0.25921 0.0
C258 C 0.1748 0.45138 0.24959 0.0
C259 C 0.16134 0.4455 0.27535 0.0
C260 C 0.15146 0.45927 0.27294 0.0
C261 C 0.17322 0.44141 0.26359 0.0
H262 H 0.16584 0.47271 0.23692 0.0
H263 H 0.14249 0.46256 0.2821 0.0
C264 C 0.11061 0.53676 0.25068 0.0
N265 N 0.10115 0.56929 0.25048 0.0
C266 C 0.10474 0.54397 0.23624 0.0
C267 C 0.11137 0.54602 0.26509 0.0
C268 C 0.10011 0.56045 0.23637 0.0
C269 C 0.10661 0.56246 0.26473 0.0
C270 C 0.14525 0.49788 0.2188 0.0
C271 C 0.1502 0.51111 0.20907 0.0
C272 C 0.14229 0.48266 0.2115 0.0
C273 C 0.15181 0.50895 0.19213 0.0
C274 C 0.14401 0.481 0.19452 0.0
N275 N 0.14868 0.49408 0.18526 0.0
C276 C 0.16722 0.53799 0.257 0.0
C277 C 0.14871 0.54875 0.23731 0.0
C278 C 0.17749 0.55158 0.25522 0.0
N279 N 0.15305 0.53691 0.24825 0.0
C280 C 0.15864 0.56254 0.23508 0.0
C281 C 0.17324 0.56413 0.24414 0.0
H282 H 0.17058 0.52826 0.26538 0.0
H283 H 0.13771 0.54736 0.23006 0.0
C284 C 0.09408 0.48477 0.21975 0.0
N285 N 0.10546 0.49695 0.2196 0.0
C286 C 0.08395 0.48221 0.20614 0.0
C287 C 0.09734 0.50486 0.19249 0.0
C288 C 0.10717 0.50701 0.20639 0.0
C289 C 0.08551 0.49232 0.19223 0.0
H290 H 0.09277 0.4771 0.2305 0.0
H291 H 0.11618 0.51673 0.20662 0.0
O292 O 0.14314 0.50543 0.27197 0.0
O293 O 0.11515 0.48416 0.25674 0.0
O294 O 0.11524 0.52062 0.25075 0.0
O295 O 0.14342 0.49981 0.23539 0.0
H296 H 0.15557 0.48636 0.2952 0.0
H297 H 0.142 0.53591 0.28324 0.0
H298 H 0.16374 0.49573 0.32299 0.0
H299 H 0.1502 0.5444 0.31129 0.0
H300 H 0.11675 0.43016 0.24305 0.0
H301 H 0.10614 0.47193 0.28549 0.0
H302 H 0.11971 0.4596 0.23599 0.0
H303 H 0.10333 0.44229 0.29168 0.0
H304 H 0.10365 0.49898 0.32831 0.0
H305 H 0.06893 0.52477 0.2975 0.0
H306 H 0.18372 0.44862 0.24016 0.0
H307 H 0.15988 0.43831 0.28644 0.0
H308 H 0.10385 0.53696 0.22502 0.0
H309 H 0.11537 0.54055 0.27649 0.0
H310 H 0.09566 0.56621 0.22524 0.0
H311 H 0.10718 0.56977 0.27579 0.0
H312 H 0.15269 0.52292 0.21451 0.0
H313 H 0.13865 0.47225 0.21886 0.0
H314 H 0.15554 0.51911 0.18444 0.0
H315 H 0.14165 0.46932 0.18871 0.0
H316 H 0.18855 0.55231 0.26255 0.0
H317 H 0.15505 0.57168 0.22612 0.0
H318 H 0.07481 0.47258 0.20663 0.0
H319 H 0.09911 0.51285 0.18201 0.0
Li320 Li 0.73862 0.61807 1.00239 0.0
Li321 Li 0.75203 0.63873 0.01972 0.0
Li322 Li 0.75668 0.63865 0.98909 0.0
Li323 Li 0.76914 0.61806 0.00732 0.0
C324 C 0.72132 0.64784 0.99577 0.0
N325 N 0.69165 0.65924 0.98395 0.0
C326 C 0.70973 0.65439 0.00655 0.0
C327 C 0.71793 0.6474 0.97894 0.0
C328 C 0.69477 0.65999 1.00035 0.0
C329 C 0.70283 0.65314 0.97322 0.0
C330 C 0.74736 0.61316 0.0395 0.0
C331 C 0.75524 0.61544 0.06797 0.0
N332 N 0.7398 0.61107 0.0725 0.0
C333 C 0.73161 0.60856 0.04442 0.0
C334 C 0.75932 0.6165 0.05135 0.0
C335 C 0.72802 0.60761 0.06117 0.0
C336 C 0.72191 0.58942 0.99281 0.0
N337 N 0.71974 0.60448 0.9996 0.0
C338 C 0.69099 0.59952 1.00248 0.0
C339 C 0.7047 0.60958 0.0046 0.0
C340 C 0.6928 0.58399 0.99524 0.0
C341 C 0.70855 0.57897 0.99042 0.0
H342 H 0.73405 0.58554 0.98919 0.0
H343 H 0.70336 0.62134 0.01049 0.0
C344 C 0.76097 0.66336 0.04254 0.0
N345 N 0.74899 0.65253 0.03839 0.0
C346 C 0.75905 0.67361 0.05614 0.0
C347 C 0.73248 0.6614 0.06091 0.0
C348 C 0.73488 0.65145 0.04718 0.0
C349 C 0.74464 0.67271 0.06555 0.0
H350 H 0.77197 0.66414 0.03522 0.0
H351 H 0.72549 0.64282 0.04356 0.0
C352 C 0.75566 0.60859 0.97085 0.0
N353 N 0.75322 0.59676 0.93914 0.0
C354 C 0.76912 0.60105 0.96343 0.0
C355 C 0.74088 0.60987 0.96222 0.0
C356 C 0.76767 0.59523 0.94736 0.0
C357 C 0.73991 0.60387 0.94618 0.0
C358 C 0.7893 0.64377 0.00833 0.0
C359 C 0.79843 0.64803 0.99447 0.0
C360 C 0.7973 0.6409 0.02326 0.0
C361 C 0.81549 0.64912 0.99572 0.0
C362 C 0.81437 0.64209 0.02401 0.0
N363 N 0.82303 0.64612 0.01033 0.0
C364 C 0.75403 0.66785 0.97097 0.0
C365 C 0.76788 0.64666 0.95678 0.0
C366 C 0.75609 0.67849 0.95768 0.0
N367 N 0.7598 0.65224 0.97025 0.0
C368 C 0.77012 0.65684 0.94316 0.0
C369 C 0.7642 0.673 0.94351 0.0
H370 H 0.7478 0.67202 0.98191 0.0
H371 H 0.77283 0.63441 0.95665 0.0
C372 C 0.7884 0.5938 0.02306 0.0
N373 N 0.78791 0.60439 0.01017 0.0
C374 C 0.80201 0.5837 0.02546 0.0
C375 C 0.81435 0.59553 1.00122 0.0
C376 C 0.80046 0.60533 0.99925 0.0
C377 C 0.81527 0.5845 0.01447 0.0
H378 H 0.77816 0.5931 0.03142 0.0
H379 H 0.7997 0.61374 0.98901 0.0
O380 O 0.73607 0.64236 1.00166 0.0
O381 O 0.75104 0.61436 0.02316 0.0
O382 O 0.75691 0.61438 0.98658 0.0
O383 O 0.77261 0.64244 0.0073 0.0
H384 H 0.71221 0.65504 0.01957 0.0
H385 H 0.7269 0.64288 0.97035 0.0
H386 H 0.68565 0.66496 0.00857 0.0
H387 H 0.70004 0.65282 0.96023 0.0
H388 H 0.76435 0.6181 0.07728 0.0
H389 H 0.72223 0.60585 0.03542 0.0
H390 H 0.77159 0.61999 0.04775 0.0
H391 H 0.71585 0.60415 0.06515 0.0
H392 H 0.67916 0.60375 0.00671 0.0
H393 H 0.71052 0.56717 0.98469 0.0
H394 H 0.76864 0.68232 0.05906 0.0
H395 H 0.72127 0.66011 0.06788 0.0
H396 H 0.78059 0.59978 0.96997 0.0
H397 H 0.7302 0.61519 0.9679 0.0
H398 H 0.77802 0.58946 0.94144 0.0
H399 H 0.72855 0.6048 0.93937 0.0
H400 H 0.79245 0.65036 0.98284 0.0
H401 H 0.7904 0.63769 0.03413 0.0
H402 H 0.82272 0.65231 0.98506 0.0
H403 H 0.82072 0.63979 0.03545 0.0
H404 H 0.75126 0.69083 0.95842 0.0
H405 H 0.77671 0.65223 0.93261 0.0
H406 H 0.80202 0.57518 0.03567 0.0
H407 H 0.82431 0.59673 0.99254 0.0
Li408 Li 0.86884 0.01882 0.25591 0.0
Li409 Li 0.8894 1.00122 0.26909 0.0
Li410 Li 0.88942 0.00612 0.23833 0.0
Li411 Li 0.86877 0.98814 0.25119 0.0
C412 C 0.8956 0.03836 0.25863 0.0
N413 N 0.90026 0.07166 0.26278 0.0
C414 C 0.90063 0.04452 0.27384 0.0
C415 C 0.8932 0.0491 0.24547 0.0
C416 C 0.90285 0.0614 0.27571 0.0
C417 C 0.89554 0.0659 0.24783 0.0
C418 C 0.86135 0.99622 0.28757 0.0
C419 C 0.85873 0.97549 0.30856 0.0
N420 N 0.85382 0.98716 0.3194 0.0
C421 C 0.85606 0.00797 0.29886 0.0
C422 C 0.86251 0.97982 0.2924 0.0
C423 C 0.8524 0.00316 0.31491 0.0
C424 C 0.8432 0.04074 0.24784 0.0
N425 N 0.8553 0.03766 0.25892 0.0
C426 C 0.84788 0.06137 0.27445 0.0
C427 C 0.8577 0.04756 0.27213 0.0
C428 C 0.83532 0.06492 0.26316 0.0
C429 C 0.83303 0.05437 0.24971 0.0
H430 H 0.84138 0.03255 0.23757 0.0
H431 H 0.86716 0.04466 0.28097 0.0
C432 C 0.91608 0.98826 0.28713 0.0
N433 N 0.90285 0.99833 0.28811 0.0
C434 C 0.92613 0.98578 0.30082 0.0
C435 C 0.90906 0.00444 0.31617 0.0
C436 C 0.89931 0.00652 0.3022 0.0
C437 C 0.92265 0.99389 0.31562 0.0
H438 H 0.91891 0.98223 0.27568 0.0
H439 H 0.889 0.0148 0.30256 0.0
C440 C 0.86211 0.00829 0.21884 0.0
N441 N 0.85626 0.01221 0.18562 0.0
C442 C 0.85683 0.99501 0.20937 0.0
C443 C 0.86416 0.02363 0.21145 0.0
C444 C 0.85399 0.99722 0.19258 0.0
C445 C 0.86122 0.02535 0.19463 0.0
C446 C 0.89747 0.96935 0.24936 0.0
C447 C 0.90375 0.96347 0.23454 0.0
C448 C 0.89592 0.95872 0.26274 0.0
C449 C 0.90806 0.94695 0.23325 0.0
C450 C 0.90036 0.94228 0.26097 0.0
N451 N 0.90626 0.93678 0.24637 0.0
C452 C 0.91581 0.01984 0.22064 0.0
C453 C 0.90023 1.00051 0.2055 0.0
C454 C 0.92615 0.02242 0.20723 0.0
N455 N 0.90307 0.00913 0.21952 0.0
C456 C 0.91018 0.00281 0.19175 0.0
C457 C 0.92335 0.01389 0.19251 0.0
H458 H 0.91798 0.02635 0.232 0.0
H459 H 0.89036 0.9917 0.20504 0.0
C460 C 0.84091 0.96841 0.25686 0.0
N461 N 0.85516 0.96926 0.24826 0.0
C462 C 0.83049 0.95491 0.25507 0.0
C463 C 0.84948 0.94349 0.23546 0.0
C464 C 0.85947 0.95724 0.23757 0.0
C465 C 0.83473 0.94218 0.24427 0.0
H466 H 0.83758 0.97829 0.26503 0.0
H467 H 0.87057 0.95838 0.23048 0.0
O468 O 0.89319 0.02188 0.25662 0.0
O469 O 0.86509 1.00073 0.27182 0.0
O470 O 0.86503 0.00632 0.23528 0.0
O471 O 0.8931 0.98548 0.25079 0.0
H472 H 0.9027 0.03638 0.28412 0.0
H473 H 0.88962 0.04451 0.23355 0.0
H474 H 0.90663 0.06635 0.28745 0.0
H475 H 0.89365 0.07436 0.23776 0.0
H476 H 0.85963 0.96284 0.31247 0.0
H477 H 0.85491 0.02068 0.2953 0.0
H478 H 0.86613 0.9705 0.28374 0.0
H479 H 0.84843 0.01216 0.3238 0.0
H480 H 0.8499 0.06901 0.28514 0.0
H481 H 0.82357 0.0567 0.24065 0.0
H482 H 0.93668 0.9778 0.29973 0.0
H483 H 0.90588 0.01091 0.32733 0.0
H484 H 0.85501 0.98309 0.21489 0.0
H485 H 0.86794 0.03411 0.21863 0.0
H486 H 0.85 0.98702 0.1851 0.0
H487 H 0.86284 0.03713 0.18874 0.0
H488 H 0.90521 0.97154 0.22411 0.0
H489 H 0.89149 0.96313 0.27441 0.0
H490 H 0.91283 0.94221 0.22181 0.0
H491 H 0.89917 0.93391 0.27122 0.0
H492 H 0.93612 0.03113 0.20832 0.0
H493 H 0.90777 0.99575 0.18074 0.0
H494 H 0.8191 0.95462 0.26187 0.0
H495 H 0.85334 0.93397 0.22707 0.0
Li496 Li 0.25216 0.13853 0.52059 0.0
Li497 Li 0.23882 0.11801 0.50288 0.0
Li498 Li 0.26956 0.11798 0.50768 0.0
Li499 Li 0.25674 0.13881 0.48991 0.0
C500 C 0.2482 0.11163 0.53977 0.0
N501 N 0.24168 0.10669 0.57269 0.0
C502 C 0.23232 0.10777 0.54489 0.0
C503 C 0.26082 0.11273 0.55135 0.0
C504 C 0.22926 0.10538 0.5616 0.0
C505 C 0.25727 0.11026 0.56795 0.0
C506 C 0.22091 0.147 0.49735 0.0
C507 C 0.20053 0.14935 0.47597 0.0
N508 N 0.19007 0.15638 0.48686 0.0
C509 C 0.21002 0.15439 0.5083 0.0
C510 C 0.21619 0.14458 0.48102 0.0
C511 C 0.19446 0.15899 0.50278 0.0
C512 C 0.26062 0.1634 0.54333 0.0
N513 N 0.24911 0.15196 0.53952 0.0
C514 C 0.23286 0.15996 0.56256 0.0
C515 C 0.23533 0.15019 0.54872 0.0
C516 C 0.2446 0.17184 0.56689 0.0
C517 C 0.25863 0.17349 0.55703 0.0
H518 H 0.27128 0.16486 0.53562 0.0
H519 H 0.22617 0.14126 0.54524 0.0
C520 C 0.2223 0.08946 0.49277 0.0
N521 N 0.22003 0.10436 0.49988 0.0
C522 C 0.20901 0.07893 0.49026 0.0
C523 C 0.19129 0.0992 0.50254 0.0
C524 C 0.20494 0.10926 0.50499 0.0
C525 C 0.19324 0.08383 0.49507 0.0
H526 H 0.23446 0.08578 0.48903 0.0
H527 H 0.2035 0.12087 0.51113 0.0
C528 C 0.289 0.14513 0.51087 0.0
N529 N 0.32198 0.15062 0.51642 0.0
C530 C 0.29884 0.15162 0.49841 0.0
C531 C 0.29589 0.14163 0.52621 0.0
C532 C 0.3155 0.15426 0.50145 0.0
C533 C 0.3126 0.14443 0.52875 0.0
C534 C 0.25813 0.10994 0.47095 0.0
C535 C 0.27321 0.10511 0.46445 0.0
C536 C 0.24414 0.10963 0.46101 0.0
C537 C 0.27412 0.10044 0.44797 0.0
C538 C 0.24555 0.10487 0.4446 0.0
N539 N 0.26039 0.10044 0.43847 0.0
C540 C 0.28678 0.09079 0.5203 0.0
C541 C 0.30245 0.10743 0.50238 0.0
C542 C 0.30006 0.08023 0.52261 0.0
N543 N 0.28823 0.10413 0.5104 0.0
C544 C 0.31611 0.09737 0.50454 0.0
C545 C 0.31507 0.08349 0.51476 0.0
H546 H 0.27524 0.08826 0.52631 0.0
H547 H 0.3032 0.11786 0.49424 0.0
C548 C 0.25052 0.16615 0.4694 0.0
N549 N 0.25983 0.15243 0.47106 0.0
C550 C 0.25248 0.17639 0.45578 0.0
C551 C 0.27388 0.15846 0.44601 0.0
C552 C 0.2715 0.14857 0.45982 0.0
C553 C 0.26426 0.17258 0.44382 0.0
H554 H 0.2416 0.1692 0.4787 0.0
H555 H 0.27919 0.13797 0.4617 0.0
O556 O 0.25141 0.11413 0.52348 0.0
O557 O 0.23614 0.1423 0.5026 0.0
O558 O 0.27269 0.14235 0.50807 0.0
O559 O 0.25703 0.11451 0.48708 0.0
H560 H 0.22244 0.10677 0.53607 0.0
H561 H 0.27323 0.1154 0.54757 0.0
H562 H 0.217 0.1025 0.56575 0.0
H563 H 0.2669 0.11115 0.57706 0.0
H564 H 0.19672 0.14752 0.46337 0.0
H565 H 0.21351 0.15649 0.52094 0.0
H566 H 0.22458 0.13923 0.47231 0.0
H567 H 0.18587 0.16464 0.51114 0.0
H568 H 0.22191 0.15815 0.56984 0.0
H569 H 0.26784 0.18269 0.55966 0.0
H570 H 0.21101 0.06719 0.48441 0.0
H571 H 0.17938 0.10329 0.5067 0.0
H572 H 0.29369 0.15454 0.48652 0.0
H573 H 0.28842 0.1368 0.53602 0.0
H574 H 0.32328 0.1592 0.4919 0.0
H575 H 0.31811 0.1417 0.54054 0.0
H576 H 0.28413 0.10511 0.47201 0.0
H577 H 0.23229 0.11285 0.46594 0.0
H578 H 0.28574 0.09681 0.44275 0.0
H579 H 0.23483 0.10462 0.43676 0.0
H580 H 0.29846 0.06951 0.5303 0.0
H581 H 0.3274 0.10058 0.49835 0.0
H582 H 0.24473 0.1871 0.45458 0.0
H583 H 0.28338 0.15525 0.43732 0.0
Li584 Li 0.38926 0.50038 0.76918 0.0
Li585 Li 0.36877 0.51855 0.75652 0.0
Li586 Li 0.36858 0.48796 0.75191 0.0
Li587 Li 0.38932 0.50522 0.73856 0.0
C588 C 0.36341 0.4992 0.78919 0.0
N589 N 0.36074 0.49679 0.82293 0.0
C590 C 0.35898 0.51289 0.79846 0.0
C591 C 0.36627 0.48423 0.79705 0.0
C592 C 0.35773 0.51144 0.81552 0.0
C593 C 0.36493 0.48327 0.81413 0.0
C594 C 0.39858 0.53687 0.75605 0.0
C595 C 0.40327 0.56181 0.7408 0.0
N596 N 0.40989 0.56879 0.75446 0.0
C597 C 0.40564 0.54422 0.76987 0.0
C598 C 0.39755 0.54567 0.74135 0.0
C599 C 0.4112 0.5604 0.76884 0.0
C600 C 0.41372 0.48484 0.78832 0.0
N601 N 0.40291 0.49751 0.78804 0.0
C602 C 0.41163 0.50612 0.81473 0.0
C603 C 0.40179 0.50815 0.80082 0.0
C604 C 0.42287 0.49308 0.81544 0.0
C605 C 0.42385 0.48239 0.80195 0.0
H606 H 0.41456 0.4767 0.7779 0.0
H607 H 0.39322 0.51823 0.80024 0.0
C608 C 0.3402 0.53749 0.75249 0.0
N609 N 0.35534 0.53747 0.75951 0.0
C610 C 0.32983 0.55097 0.75435 0.0
C611 C 0.35069 0.56406 0.7709 0.0
C612 C 0.36064 0.55032 0.76872 0.0
C613 C 0.33504 0.56453 0.76365 0.0
H614 H 0.33616 0.52697 0.74548 0.0
H615 H 0.3725 0.54985 0.77458 0.0
C616 C 0.39421 0.46821 0.74746 0.0
N617 N 0.39651 0.43524 0.74007 0.0
C618 C 0.39883 0.46323 0.73172 0.0
C619 C 0.39097 0.45642 0.7595 0.0
C620 C 0.39988 0.4465 0.72821 0.0
C621 C 0.39213 0.43981 0.75551 0.0
C622 C 0.35988 0.51158 0.72087 0.0
C623 C 0.35335 0.50066 0.70935 0.0
C624 C 0.3607 0.52828 0.71711 0.0
C625 C 0.34813 0.50658 0.69411 0.0
C626 C 0.35533 0.53373 0.70174 0.0
N627 N 0.34924 0.52286 0.69064 0.0
C628 C 0.34379 0.46532 0.76076 0.0
C629 C 0.35592 0.46035 0.73483 0.0
C630 C 0.33351 0.45173 0.75886 0.0
N631 N 0.35475 0.4693 0.74886 0.0
C632 C 0.34595 0.44663 0.73245 0.0
C633 C 0.33451 0.44216 0.74455 0.0
H634 H 0.34292 0.47276 0.77169 0.0
H635 H 0.36465 0.46384 0.72549 0.0
C636 C 0.41785 0.51513 0.72185 0.0
N637 N 0.40294 0.50798 0.71971 0.0
C638 C 0.42829 0.51751 0.70848 0.0
C639 C 0.40804 0.50469 0.69099 0.0
C640 C 0.39799 0.50259 0.7047 0.0
C641 C 0.42342 0.5123 0.69276 0.0
H642 H 0.42163 0.51905 0.73397 0.0
H643 H 0.38636 0.49641 0.70338 0.0
O644 O 0.36487 0.50044 0.7725 0.0
O645 O 0.39306 0.52103 0.75687 0.0
O646 O 0.39293 0.48453 0.75107 0.0
O647 O 0.36504 0.50595 0.73586 0.0
H648 H 0.35662 0.52454 0.79258 0.0
H649 H 0.36957 0.47348 0.79005 0.0
H650 H 0.35441 0.52196 0.82286 0.0
H651 H 0.36722 0.47179 0.82038 0.0
H652 H 0.40251 0.56877 0.7295 0.0
H653 H 0.40673 0.53755 0.78129 0.0
H654 H 0.39263 0.54005 0.7304 0.0
H655 H 0.41657 0.56627 0.77948 0.0
H656 H 0.4103 0.51457 0.82488 0.0
H657 H 0.43253 0.47236 0.8018 0.0
H658 H 0.31776 0.55064 0.7488 0.0
H659 H 0.35527 0.57424 0.77809 0.0
H660 H 0.40149 0.47218 0.72229 0.0
H661 H 0.38751 0.46006 0.77177 0.0
H662 H 0.40335 0.44248 0.71605 0.0
H663 H 0.38955 0.43056 0.76468 0.0
H664 H 0.35241 0.48773 0.7121 0.0
H665 H 0.3652 0.53699 0.72601 0.0
H666 H 0.34317 0.49824 0.68504 0.0
H667 H 0.35594 0.54663 0.69867 0.0
H668 H 0.3247 0.44894 0.76839 0.0
H669 H 0.34731 0.43953 0.72131 0.0
H670 H 0.43997 0.52352 0.71043 0.0
H671 H 0.40393 0.50015 0.67918 0.0
Li672 Li 0.76899 0.38874 0.50057 0.0
Li673 Li 0.75633 0.36805 0.51856 0.0
Li674 Li 0.7518 0.36812 0.48783 0.0
Li675 Li 0.73838 0.38865 0.50523 0.0
C676 C 0.78897 0.36269 0.49923 0.0
N677 N 0.8226 0.35949 0.49682 0.0
C678 C 0.79822 0.35813 0.51297 0.0
C679 C 0.7968 0.36539 0.48422 0.0
C680 C 0.81522 0.35663 0.51151 0.0
C681 C 0.81382 0.36379 0.48327 0.0
C682 C 0.75628 0.39728 0.53727 0.0
C683 C 0.74191 0.4008 0.56289 0.0
N684 N 0.7557 0.4073 0.56969 0.0
C685 C 0.77024 0.40419 0.54445 0.0
C686 C 0.74194 0.39573 0.54651 0.0
C687 C 0.76973 0.4091 0.56088 0.0
C688 C 0.78779 0.41367 0.48547 0.0
N689 N 0.78778 0.40246 0.49783 0.0
C690 C 0.81457 0.41095 0.50627 0.0
C691 C 0.80075 0.40103 0.50824 0.0
C692 C 0.815 0.4226 0.49354 0.0
C693 C 0.80132 0.4239 0.48308 0.0
H694 H 0.77721 0.41478 0.47753 0.0
H695 H 0.80038 0.39217 0.51811 0.0
C696 C 0.75185 0.33948 0.53745 0.0
N697 N 0.75927 0.35441 0.53743 0.0
C698 C 0.75366 0.32892 0.55086 0.0
C699 C 0.77095 0.34918 0.56389 0.0
C700 C 0.76882 0.35932 0.55022 0.0
C701 C 0.76331 0.33373 0.56435 0.0
H702 H 0.74458 0.33572 0.52699 0.0
H703 H 0.775 0.37101 0.54975 0.0
C704 C 0.7478 0.39413 0.46816 0.0
N705 N 0.74141 0.39715 0.43494 0.0
C706 C 0.73229 0.39904 0.46274 0.0
C707 C 0.76012 0.39099 0.45669 0.0
C708 C 0.72928 0.40044 0.44589 0.0
C709 C 0.75663 0.39251 0.43995 0.0
C710 C 0.72049 0.35957 0.51077 0.0
C711 C 0.70909 0.35381 0.4993 0.0
C712 C 0.71629 0.36003 0.5274 0.0
C713 C 0.69353 0.349 0.5046 0.0
C714 C 0.70062 0.3551 0.53223 0.0
N715 N 0.68964 0.34976 0.52082 0.0
C716 C 0.76066 0.34311 0.46557 0.0
C717 C 0.73535 0.35599 0.45947 0.0
C718 C 0.75899 0.33286 0.45194 0.0
N719 N 0.74896 0.35443 0.46902 0.0
C720 C 0.73322 0.34606 0.44567 0.0
C721 C 0.74512 0.33427 0.44176 0.0
H722 H 0.77129 0.34199 0.47344 0.0
H723 H 0.7261 0.36492 0.4626 0.0
C724 C 0.721 0.41629 0.5166 0.0
N725 N 0.71943 0.40211 0.50798 0.0
C726 C 0.70747 0.42649 0.51898 0.0
C727 C 0.69104 0.4076 0.50308 0.0
C728 C 0.70487 0.39772 0.5011 0.0
C729 C 0.69222 0.42217 0.5122 0.0
H730 H 0.73281 0.41975 0.52157 0.0
H731 H 0.70402 0.38667 0.49387 0.0
O732 O 0.77234 0.36438 0.50047 0.0
O733 O 0.7566 0.39234 0.52121 0.0
O734 O 0.75091 0.3925 0.4846 0.0
O735 O 0.73579 0.36434 0.50577 0.0
H736 H 0.79237 0.35587 0.52465 0.0
H737 H 0.78983 0.36873 0.47343 0.0
H738 H 0.82254 0.35321 0.52207 0.0
H739 H 0.82005 0.36595 0.47175 0.0
H740 H 0.7309 0.39963 0.57018 0.0
H741 H 0.78139 0.40568 0.53746 0.0
H742 H 0.73088 0.39089 0.54105 0.0
H743 H 0.78049 0.41437 0.56661 0.0
H744 H 0.82487 0.40938 0.51454 0.0
H745 H 0.80095 0.4329 0.4733 0.0
H746 H 0.74779 0.31702 0.55052 0.0
H747 H 0.77844 0.35346 0.57402 0.0
H748 H 0.72265 0.40166 0.47143 0.0
H749 H 0.77223 0.38736 0.46067 0.0
H750 H 0.71731 0.40414 0.44153 0.0
H751 H 0.76602 0.39001 0.43094 0.0
H752 H 0.71217 0.35315 0.48642 0.0
H753 H 0.72508 0.36394 0.53652 0.0
H754 H 0.68456 0.34465 0.49583 0.0
H755 H 0.69721 0.35544 0.54505 0.0
H756 H 0.76852 0.32402 0.44931 0.0
H757 H 0.72222 0.34741 0.43831 0.0
H758 H 0.70901 0.43776 0.52582 0.0
H759 H 0.67951 0.4038 0.49765 0.0
Li760 Li 0.63852 0.98813 0.7566 0.0
Li761 Li 0.61767 0.00609 0.7689 0.0
Li762 Li 0.61805 1.00084 0.73917 0.0
Li763 Li 0.63903 0.01799 0.75247 0.0
C764 C 0.61219 0.96908 0.76114 0.0
N765 N 0.60892 0.93644 0.76963 0.0
C766 C 0.60726 0.96473 0.77699 0.0
C767 C 0.61533 0.95684 0.74957 0.0
C768 C 0.6057 0.94816 0.78105 0.0
C769 C 0.61365 0.9404 0.75412 0.0
C770 C 0.65465 0.01295 0.78028 0.0
C771 C 0.66703 0.03625 0.79367 0.0
N772 N 0.68186 0.02869 0.79299 0.0
C773 C 0.67 0.00537 0.77976 0.0
C774 C 0.65311 0.02847 0.78736 0.0
C775 C 0.68361 0.01354 0.78624 0.0
C776 C 0.66312 0.96531 0.74821 0.0
N777 N 0.65183 0.96919 0.75981 0.0
C778 C 0.65984 0.94616 0.77613 0.0
C779 C 0.65023 0.96012 0.77373 0.0
C780 C 0.6716 0.94173 0.76432 0.0
C781 C 0.67321 0.95164 0.75025 0.0
H782 H 0.66443 0.97295 0.73744 0.0
H783 H 0.64144 0.96371 0.78296 0.0
C784 C 0.58733 0.00644 0.78564 0.0
N785 N 0.60371 0.00897 0.78742 0.0
C786 C 0.57678 0.00866 0.79893 0.0
C787 C 0.60022 0.01562 0.81577 0.0
C788 C 0.61029 0.01336 0.80212 0.0
C789 C 0.58318 0.01333 0.81429 0.0
H790 H 0.58246 0.00277 0.77383 0.0
H791 H 0.62338 0.01502 0.80327 0.0
C792 C 0.64405 0.99938 0.71955 0.0
N793 N 0.64658 0.9977 0.68577 0.0
C794 C 0.64821 0.01335 0.71051 0.0
C795 C 0.64131 0.98453 0.71144 0.0
C796 C 0.64941 0.01225 0.69343 0.0
C797 C 0.64259 0.98395 0.69434 0.0
C798 C 0.60214 0.031 0.75555 0.0
C799 C 0.58674 0.02818 0.74853 0.0
C800 C 0.6038 0.04254 0.76813 0.0
C801 C 0.5732 0.03688 0.75433 0.0
C802 C 0.58995 0.05096 0.77361 0.0
N803 N 0.57507 0.04798 0.76665 0.0
C804 C 0.59405 0.98528 0.71956 0.0
C805 C 0.60561 0.00914 0.70762 0.0
C806 C 0.58391 0.98304 0.70591 0.0
N807 N 0.60469 0.9981 0.72012 0.0
C808 C 0.59586 0.00724 0.69362 0.0
C809 C 0.58479 0.99407 0.69269 0.0
H810 H 0.59333 0.97686 0.72978 0.0
H811 H 0.61386 0.01948 0.70857 0.0
C812 C 0.66943 0.03385 0.74748 0.0
N813 N 0.65309 0.03641 0.74946 0.0
C814 C 0.68006 0.0471 0.74533 0.0
C815 C 0.6568 0.06536 0.74688 0.0
C816 C 0.64664 0.05175 0.74911 0.0
C817 C 0.67379 0.06316 0.74499 0.0
H818 H 0.67419 0.02148 0.74762 0.0
H819 H 0.63357 0.05342 0.75043 0.0
O820 O 0.61392 0.98523 0.75697 0.0
O821 O 0.64123 0.00528 0.77375 0.0
O822 O 0.64263 1.00024 0.73625 0.0
O823 O 0.61549 0.0224 0.75025 0.0
H824 H 0.60481 0.97404 0.78611 0.0
H825 H 0.61915 0.96 0.73725 0.0
H826 H 0.60197 0.94461 0.79329 0.0
H827 H 0.61614 0.9308 0.74532 0.0
H828 H 0.66605 0.04832 0.79907 0.0
H829 H 0.67142 0.99338 0.77431 0.0
H830 H 0.64134 0.03455 0.78777 0.0
H831 H 0.69558 0.00786 0.78587 0.0
H832 H 0.65793 0.93889 0.7871 0.0
H833 H 0.68235 0.94906 0.74099 0.0
H834 H 0.56374 0.00693 0.79713 0.0
H835 H 0.60576 0.01889 0.82741 0.0
H836 H 0.65034 0.02494 0.71659 0.0
H837 H 0.63811 0.97361 0.71827 0.0
H838 H 0.65255 0.02297 0.68626 0.0
H839 H 0.64041 0.97257 0.68789 0.0
H840 H 0.58523 0.01927 0.73881 0.0
H841 H 0.61561 0.04478 0.77377 0.0
H842 H 0.5612 0.03478 0.74906 0.0
H843 H 0.59103 0.05982 0.78342 0.0
H844 H 0.57557 0.9727 0.70564 0.0
H845 H 0.59672 0.01615 0.68378 0.0
H846 H 0.69307 0.04478 0.74411 0.0
H847 H 0.65136 0.07745 0.74638 0.0
Li848 Li 0.01849 0.25592 0.86868 0.0
Li849 Li 1.00035 0.26853 0.88926 0.0
Li850 Li 0.0051 0.23789 0.88919 0.0
Li851 Li 0.98788 0.25133 0.86845 0.0
C852 C 0.03683 0.25622 0.89846 0.0
N853 N 0.06892 0.25648 0.90943 0.0
C854 C 0.04346 0.27039 0.90547 0.0
C855 C 0.04645 0.2421 0.89728 0.0
C856 C 0.05973 0.2703 0.91088 0.0
C857 C 0.06266 0.24249 0.90283 0.0
C858 C 0.9994 0.28853 0.86291 0.0
C859 C 0.98377 0.31361 0.86357 0.0
N860 N 0.9974 0.32215 0.85917 0.0
C861 C 0.01322 0.29754 0.85824 0.0
C862 C 0.98451 0.2966 0.86545 0.0
C863 C 0.01197 0.31453 0.85646 0.0
C864 C 0.0371 0.25201 0.83993 0.0
N865 N 0.03739 0.25883 0.85516 0.0
C866 C 0.06427 0.26955 0.85041 0.0
C867 C 0.05053 0.26767 0.86044 0.0
C868 C 0.06439 0.26249 0.8347 0.0
C869 C 0.05053 0.25369 0.82944 0.0
H870 H 0.02641 0.24522 0.83595 0.0
H871 H 0.0503 0.27349 0.87232 0.0
C872 C 0.9854 0.28669 0.91463 0.0
N873 N 0.99738 0.28722 0.90306 0.0
C874 C 0.98277 0.30009 0.92495 0.0
C875 C 0.00488 0.31435 0.91131 0.0
C876 C 0.00718 0.30061 0.90136 0.0
C877 C 0.99254 0.31419 0.9233 0.0
H878 H 0.9779 0.27583 0.91589 0.0
H879 H 0.01687 0.3006 0.89234 0.0
C880 C 0.0113 0.22018 0.86021 0.0
N881 N 0.0223 0.18961 0.85068 0.0
C882 C 1.00026 0.20852 0.8542 0.0
C883 C 0.02798 0.21639 0.86107 0.0
C884 C 0.00604 0.1931 0.84953 0.0
C885 C 0.03329 0.20085 0.85627 0.0
C886 C 0.968 0.24744 0.89418 0.0
C887 C 0.96236 0.23191 0.89877 0.0
C888 C 0.95674 0.25996 0.89103 0.0
C889 C 0.9455 0.2291 0.89986 0.0
C890 C 0.93998 0.25665 0.89223 0.0
N891 N 0.93475 0.24141 0.89657 0.0
C892 C 0.01637 0.22041 0.91695 0.0
C893 C 1.00096 0.20437 0.89821 0.0
C894 C 0.01874 0.20683 0.92713 0.0
N895 N 0.00781 0.2189 0.90268 0.0
C896 C 0.00294 0.19048 0.90807 0.0
C897 C 0.01202 0.19159 0.92272 0.0
H898 H 0.0213 0.2322 0.92048 0.0
H899 H 0.99379 0.20358 0.88708 0.0
C900 C 0.9655 0.26028 0.84343 0.0
N901 N 0.96921 0.24843 0.85458 0.0
C902 C 0.95192 0.25853 0.83309 0.0
C903 C 0.94624 0.23238 0.84587 0.0
C904 C 0.95998 0.23459 0.85588 0.0
C905 C 0.94206 0.24444 0.83426 0.0
H906 H 0.97312 0.27108 0.84251 0.0
H907 H 0.96332 0.22524 0.86468 0.0
O908 O 0.02093 0.25614 0.89305 0.0
O909 O 1.00042 0.2719 0.86484 0.0
O910 O 0.00582 0.23534 0.86485 0.0
O911 O 0.98446 0.25037 0.89283 0.0
H912 H 0.03617 0.28137 0.90666 0.0
H913 H 0.0414 0.23089 0.89234 0.0
H914 H 0.06505 0.28122 0.91622 0.0
H915 H 0.07024 0.23166 0.90196 0.0
H916 H 0.97235 0.32001 0.86561 0.0
H917 H 0.0248 0.2915 0.85611 0.0
H918 H 0.97367 0.28981 0.86889 0.0
H919 H 0.02259 0.32166 0.85295 0.0
H920 H 0.07457 0.27671 0.85481 0.0
H921 H 0.05015 0.248 0.81743 0.0
H922 H 0.97307 0.2995 0.93399 0.0
H923 H 0.01285 0.32487 0.90981 0.0
H924 H 0.98733 0.21129 0.85324 0.0
H925 H 0.03677 0.2254 0.86521 0.0
H926 H 0.9976 0.18392 0.84499 0.0
H927 H 0.04617 0.19775 0.85693 0.0
H928 H 0.9709 0.22212 0.90137 0.0
H929 H 0.9609 0.27207 0.88763 0.0
H930 H 0.94096 0.21711 0.9033 0.0
H931 H 0.93113 0.2662 0.88972 0.0
H932 H 0.02555 0.2083 0.93847 0.0
H933 H 0.99755 0.17898 0.90419 0.0
H934 H 0.94907 0.26817 0.8244 0.0
H935 H 0.93912 0.22122 0.84702 0.0
Li936 Li 0.51902 0.75541 0.36869 0.0
Li937 Li 0.50106 0.76815 0.38928 0.0
Li938 Li 0.50606 0.73748 0.38933 0.0
Li939 Li 0.48837 0.75054 0.36863 0.0
C940 C 0.53795 0.75742 0.39714 0.0
N941 N 0.57067 0.76065 0.40544 0.0
C942 C 0.5441 0.77255 0.40235 0.0
C943 C 0.54839 0.74386 0.39646 0.0
C944 C 0.56069 0.77396 0.4064 0.0
C945 C 0.5649 0.74576 0.40062 0.0
C946 C 0.49818 0.78755 0.36212 0.0
C947 C 0.48033 0.8111 0.3621 0.0
N948 N 0.49295 0.82059 0.35673 0.0
C949 C 0.51093 0.7975 0.35644 0.0
C950 C 0.48271 0.79436 0.36482 0.0
C951 C 0.50806 0.81419 0.35384 0.0
C952 C 0.53968 0.74881 0.34169 0.0
N953 N 0.53793 0.75845 0.35518 0.0
C954 C 0.56288 0.77255 0.34896 0.0
C955 C 0.5491 0.77028 0.35885 0.0
C956 C 0.56513 0.76264 0.33504 0.0
C957 C 0.55328 0.75064 0.33145 0.0
H958 H 0.53047 0.73971 0.33882 0.0
H959 H 0.54718 0.77818 0.36929 0.0
C960 C 0.4874 0.78552 0.41583 0.0
N961 N 0.49797 0.78687 0.40302 0.0
C962 C 0.48477 0.7988 0.4263 0.0
C963 C 0.50402 0.81464 0.41026 0.0
C964 C 0.50637 0.801 0.40018 0.0
C965 C 0.4931 0.81363 0.42355 0.0
H966 H 0.48104 0.77408 0.41798 0.0
H967 H 0.51503 0.80166 0.3902 0.0
C968 C 0.51096 0.71902 0.36112 0.0
N969 N 0.51988 0.68727 0.35343 0.0
C970 C 0.49935 0.70807 0.35482 0.0
C971 C 0.52716 0.71389 0.36323 0.0
C972 C 0.50408 0.69205 0.35108 0.0
C973 C 0.53142 0.69777 0.35935 0.0
C974 C 0.469 0.74704 0.39546 0.0
C975 C 0.46349 0.73146 0.40002 0.0
C976 C 0.45773 0.7598 0.39363 0.0
C977 C 0.44673 0.72882 0.40232 0.0
C978 C 0.44107 0.75668 0.39603 0.0
N979 N 0.43595 0.74137 0.40027 0.0
C980 C 0.51817 0.72031 0.41686 0.0
C981 C 0.50205 0.70406 0.39893 0.0
C982 C 0.52075 0.7069 0.42723 0.0
N983 N 0.50909 0.71863 0.40294 0.0
C984 C 0.50435 0.69031 0.4089 0.0
C985 C 0.51384 0.69161 0.42327 0.0
H986 H 0.5234 0.7321 0.41994 0.0
H987 H 0.49444 0.70313 0.3881 0.0
C988 C 0.4663 0.7586 0.34303 0.0
N989 N 0.46954 0.74742 0.35498 0.0
C990 C 0.45271 0.75663 0.33274 0.0
C991 C 0.44614 0.73156 0.34713 0.0
C992 C 0.45986 0.73401 0.35711 0.0
C993 C 0.4424 0.74295 0.33471 0.0
H994 H 0.47436 0.76898 0.34133 0.0
H995 H 0.46286 0.72513 0.3665 0.0
O996 O 0.52173 0.75584 0.39307 0.0
O997 O 0.50082 0.7712 0.36486 0.0
O998 O 0.5065 0.73472 0.36497 0.0
O999 O 0.48536 0.74982 0.39302 0.0
H1000 H 0.53618 0.78313 0.40314 0.0
H1001 H 0.54377 0.73197 0.39293 0.0
H1002 H 0.56563 0.78563 0.41032 0.0
H1003 H 0.57312 0.73538 0.40009 0.0
H1004 H 0.46843 0.81654 0.36423 0.0
H1005 H 0.52293 0.79243 0.3541 0.0
H1006 H 0.47265 0.7868 0.36893 0.0
H1007 H 0.51784 0.82205 0.34954 0.0
H1008 H 0.5715 0.78219 0.352 0.0
H1009 H 0.55454 0.74266 0.32092 0.0
H1010 H 0.47618 0.79753 0.43635 0.0
H1011 H 0.5109 0.82574 0.40787 0.0
H1012 H 0.4868 0.71187 0.35291 0.0
H1013 H 0.53639 0.7223 0.36767 0.0
H1014 H 0.49519 0.68342 0.34631 0.0
H1015 H 0.54391 0.69364 0.36099 0.0
H1016 H 0.47204 0.72148 0.40164 0.0
H1017 H 0.4618 0.772 0.39045 0.0
H1018 H 0.44228 0.71679 0.40573 0.0
H1019 H 0.4322 0.76643 0.39457 0.0
H1020 H 0.52822 0.70844 0.43813 0.0
H1021 H 0.49851 0.67885 0.40556 0.0
H1022 H 0.4505 0.76557 0.32314 0.0
H1023 H 0.43849 0.7209 0.3492 0.0
Li1024 Li 0.00569 0.7683 0.6186 0.0
Li1025 Li 0.98769 0.75558 0.63914 0.0
Li1026 Li 0.01831 0.75079 0.6391 0.0
Li1027 Li 1.00068 0.7377 0.61837 0.0
C1028 C 0.00798 0.78795 0.64491 0.0
N1029 N 0.01202 0.8214 0.64842 0.0
C1030 C 0.99485 0.79771 0.64994 0.0
C1031 C 0.02322 0.79517 0.64191 0.0
C1032 C 0.99712 0.8146 0.6516 0.0
C1033 C 0.025 0.81211 0.64367 0.0
C1034 C 0.96882 0.75617 0.61016 0.0
C1035 C 0.94307 0.74217 0.60604 0.0
N1036 N 0.93627 0.75642 0.60065 0.0
C1037 C 0.96164 0.77061 0.60434 0.0
C1038 C 0.95952 0.74179 0.61083 0.0
C1039 C 0.94514 0.77051 0.59968 0.0
C1040 C 0.02072 0.78693 0.59352 0.0
N1041 N 0.00866 0.78717 0.605 0.0
C1042 C 1.00088 0.81425 0.59688 0.0
C1043 C 0.99872 0.80041 0.60677 0.0
C1044 C 0.0133 0.81442 0.58495 0.0
C1045 C 0.02328 0.80047 0.58333 0.0
H1046 H 0.02828 0.77615 0.59217 0.0
H1047 H 0.98909 0.80025 0.61586 0.0
C1048 C 0.96756 0.74971 0.66675 0.0
N1049 N 0.96879 0.75857 0.65265 0.0
C1050 C 0.95394 0.75152 0.67695 0.0
C1051 C 0.94332 0.77192 0.65822 0.0
C1052 C 0.95711 0.76965 0.64834 0.0
C1053 C 0.94158 0.76274 0.67272 0.0
H1054 H 0.97722 0.74128 0.67014 0.0
H1055 H 0.95858 0.77691 0.63735 0.0
C1056 C 0.03767 0.74653 0.61278 0.0
N1057 N 0.07053 0.73921 0.60918 0.0
C1058 C 0.04249 0.73083 0.60794 0.0
C1059 C 0.04956 0.75857 0.61555 0.0
C1060 C 0.05916 0.72735 0.60624 0.0
C1061 C 0.06611 0.75461 0.61374 0.0
C1062 C 0.99523 0.71952 0.64733 0.0
C1063 C 0.00655 0.70838 0.65379 0.0
C1064 C 0.97876 0.71496 0.64592 0.0
C1065 C 1.00128 0.69273 0.65838 0.0
C1066 C 0.97396 0.69921 0.65065 0.0
N1067 N 0.98523 0.6885 0.6567 0.0
C1068 C 0.04094 0.75916 0.66413 0.0
C1069 C 0.0464 0.73388 0.65096 0.0
C1070 C 0.05464 0.7572 0.67427 0.0
N1071 N 0.03715 0.74762 0.65271 0.0
C1072 C 0.06023 0.73144 0.66079 0.0
C1073 C 0.06452 0.74319 0.67267 0.0
H1074 H 0.03325 0.76985 0.66547 0.0
H1075 H 0.04303 0.72478 0.64193 0.0
C1076 C 0.98979 0.72105 0.59006 0.0
N1077 N 0.99765 0.71894 0.60465 0.0
C1078 C 0.98726 0.70776 0.57956 0.0
C1079 C 1.00129 0.6904 0.59911 0.0
C1080 C 0.00355 0.70403 0.60922 0.0
C1081 C 0.993 0.69214 0.58406 0.0
H1082 H 0.98546 0.73309 0.58658 0.0
H1083 H 0.01028 0.70275 0.62057 0.0
O1084 O 0.00593 0.7714 0.64305 0.0
O1085 O 0.98497 0.75608 0.6148 0.0
O1086 O 0.0214 0.75011 0.61468 0.0
O1087 O 1.00022 0.73487 0.64271 0.0
H1088 H 0.98301 0.79232 0.65248 0.0
H1089 H 0.03355 0.78779 0.63821 0.0
H1090 H 0.98704 0.82231 0.65539 0.0
H1091 H 0.0367 0.81788 0.64128 0.0
H1092 H 0.93573 0.73113 0.60655 0.0
H1093 H 0.96868 0.78181 0.60352 0.0
H1094 H 0.96497 0.73039 0.61478 0.0
H1095 H 0.9394 0.78163 0.59529 0.0
H1096 H 0.99299 0.82476 0.5987 0.0
H1097 H 0.03281 0.79991 0.57411 0.0
H1098 H 0.95325 0.74442 0.68818 0.0
H1099 H 0.93408 0.78069 0.65447 0.0
H1100 H 0.03347 0.7214 0.60561 0.0
H1101 H 0.04605 0.77083 0.61909 0.0
H1102 H 0.06306 0.71522 0.6026 0.0
H1103 H 0.07544 0.76379 0.61595 0.0
H1104 H 0.01929 0.71174 0.65519 0.0
H1105 H 0.96974 0.72355 0.64143 0.0
H1106 H 0.00994 0.68396 0.66329 0.0
H1107 H 0.96126 0.69552 0.64958 0.0
H1108 H 0.05729 0.76644 0.68344 0.0
H1109 H 0.06755 0.72053 0.65899 0.0
H1110 H 0.98072 0.70966 0.56813 0.0
H1111 H 0.00626 0.67868 0.6029 0.0
Li1112 Li 0.50542 0.26816 0.11873 0.0
Li1113 Li 0.48775 0.2548 0.13923 0.0
Li1114 Li 0.51843 0.25016 0.13944 0.0
Li1115 Li 0.50057 0.23751 0.11868 0.0
C1116 C 0.51032 0.28626 0.14765 0.0
N1117 N 0.51937 0.31762 0.15682 0.0
C1118 C 0.49866 0.29709 0.15396 0.0
C1119 C 0.52664 0.2913 0.1463 0.0
C1120 C 0.50346 0.31291 0.15845 0.0
C1121 C 0.53096 0.30722 0.15092 0.0
C1122 C 0.46848 0.25904 0.11257 0.0
C1123 C 0.44016 0.25052 0.1128 0.0
N1124 N 0.43558 0.26589 0.10824 0.0
C1125 C 0.46351 0.27471 0.10772 0.0
C1126 C 0.45673 0.24679 0.11497 0.0
C1127 C 0.44682 0.27795 0.10565 0.0
C1128 C 0.51678 0.28533 0.0909 0.0
N1129 N 0.50842 0.2871 0.10522 0.0
C1130 C 0.50425 0.3156 0.09973 0.0
C1131 C 0.50202 0.30182 0.10967 0.0
C1132 C 0.51303 0.31421 0.08497 0.0
C1133 C 0.5193 0.29879 0.08058 0.0
H1134 H 0.5215 0.27344 0.08749 0.0
H1135 H 0.49492 0.30283 0.12078 0.0
C1136 C 0.46551 0.24628 0.16444 0.0
N1137 N 0.46888 0.25772 0.15276 0.0
C1138 C 0.45189 0.24809 0.17465 0.0
C1139 C 0.44551 0.27347 0.16071 0.0
C1140 C 0.45927 0.27119 0.15081 0.0
C1141 C 0.44167 0.26184 0.17287 0.0
H1142 H 0.47349 0.23583 0.16596 0.0
H1143 H 0.46233 0.28023 0.14161 0.0
C1144 C 0.53747 0.24963 0.11088 0.0
N1145 N 0.57022 0.24902 0.10227 0.0
C1146 C 0.5446 0.23513 0.10521 0.0
C1147 C 0.54693 0.26389 0.11185 0.0
C1148 C 0.5612 0.23505 0.10101 0.0
C1149 C 0.56348 0.26332 0.10753 0.0
C1150 C 0.49799 0.21771 0.14502 0.0
C1151 C 0.51098 0.20778 0.15017 0.0
C1152 C 0.48264 0.21068 0.14201 0.0
C1153 C 0.50847 0.19092 0.15191 0.0
C1154 C 0.48063 0.19377 0.14387 0.0
N1155 N 0.49348 0.18432 0.14872 0.0
C1156 C 0.53878 0.25623 0.16693 0.0
C1157 C 0.54874 0.23569 0.14901 0.0
C1158 C 0.55239 0.25434 0.1772 0.0
N1159 N 0.53731 0.2471 0.15304 0.0
C1160 C 0.5625 0.23332 0.15897 0.0
C1161 C 0.56449 0.24275 0.17326 0.0
H1162 H 0.52932 0.26492 0.17011 0.0
H1163 H 0.54708 0.22824 0.13819 0.0
C1164 C 0.48591 0.21912 0.09317 0.0
N1165 N 0.49773 0.21874 0.10496 0.0
C1166 C 0.48348 0.20565 0.08287 0.0
C1167 C 0.50553 0.19166 0.09693 0.0
C1168 C 0.50755 0.20543 0.10693 0.0
C1169 C 0.49336 0.19164 0.08468 0.0
H1170 H 0.47845 0.22995 0.09166 0.0
H1171 H 0.517 0.20549 0.11625 0.0
O1172 O 0.50579 0.27074 0.1431 0.0
O1173 O 0.48477 0.25568 0.11479 0.0
O1174 O 0.52123 0.2499 0.1151 0.0
O1175 O 0.50026 0.23422 0.14308 0.0
H1176 H 0.48602 0.29336 0.15531 0.0
H1177 H 0.53592 0.28296 0.14193 0.0
H1178 H 0.49453 0.32145 0.16323 0.0
H1179 H 0.54355 0.31128 0.14988 0.0
H1180 H 0.43093 0.24117 0.11471 0.0
H1181 H 0.47243 0.28429 0.10565 0.0
H1182 H 0.46036 0.23454 0.11846 0.0
H1183 H 0.4428 0.29005 0.102 0.0
H1184 H 0.49889 0.32716 0.10343 0.0
H1185 H 0.52622 0.29715 0.06937 0.0
H1186 H 0.44959 0.23896 0.18404 0.0
H1187 H 0.43792 0.28418 0.15878 0.0
H1188 H 0.53744 0.22403 0.10416 0.0
H1189 H 0.54153 0.27533 0.1157 0.0
H1190 H 0.5669 0.22388 0.09674 0.0
H1191 H 0.57095 0.27426 0.10828 0.0
H1192 H 0.52289 0.21301 0.15273 0.0
H1193 H 0.4724 0.2182 0.13827 0.0
H1194 H 0.51845 0.18308 0.15578 0.0
H1195 H 0.46884 0.18817 0.14147 0.0
H1196 H 0.55327 0.26164 0.18826 0.0
H1197 H 0.57154 0.22427 0.15545 0.0
H1198 H 0.47415 0.20631 0.07342 0.0
H1199 H 0.51333 0.18111 0.0989 0.0
H1200 H 0.19709 0.73796 0.82554 0.0
H1201 H 0.20182 0.75642 0.84873 0.0
H1202 H 0.25314 0.75915 0.83632 0.0
H1203 H 0.2485 0.74051 0.8132 0.0
H1204 H 0.24864 0.75455 0.86893 0.0
H1205 H 0.20918 0.80542 0.84716 0.0
H1206 H 0.19847 0.78625 0.8485 0.0
H1207 H 0.21501 0.78856 0.8341 0.0
C1208 C 0.20934 0.74263 0.82766 0.0
C1209 C 0.22241 0.73787 0.81749 0.0
C1210 C 0.21203 0.7532 0.84089 0.0
C1211 C 0.22778 0.75941 0.84408 0.0
C1212 C 0.24087 0.75456 0.83404 0.0
H1213 H 0.24856 0.84109 0.90965 0.0
H1214 H 0.2453 0.82299 0.88591 0.0
C1215 C 0.23822 0.74389 0.82088 0.0
C1216 C 0.23068 0.77064 0.85812 0.0
H1217 H 0.21852 0.807 0.87486 0.0
C1218 C 0.24212 0.76607 0.87019 0.0
C1219 C 0.22235 0.78578 0.85963 0.0
C1220 C 0.21069 0.7919 0.84658 0.0
C1221 C 0.24523 0.77605 0.88389 0.0
C1222 C 0.23637 0.79084 0.88575 0.0
C1223 C 0.22517 0.79557 0.87352 0.0
C1224 C 0.23859 0.80166 0.90024 0.0
C1225 C 0.25818 0.77078 0.89606 0.0
C1226 C 0.23574 0.79574 0.91618 0.0
C1227 C 0.23766 0.80603 0.92977 0.0
C1228 C 0.24224 0.82252 0.92766 0.0
C1229 C 0.24489 0.82848 0.91166 0.0
C1230 C 0.24309 0.81814 0.8981 0.0
H1231 H 0.26699 0.76204 0.89048 0.0
H1232 H 0.26511 0.78149 0.90085 0.0
H1233 H 0.2522 0.76452 0.90656 0.0
H1234 H 0.23182 0.78319 0.91811 0.0
H1235 H 0.23525 0.80117 0.94191 0.0
H1236 H 0.01142 0.53974 0.45264 0.0
H1237 H 0.02966 0.53586 0.42911 0.0
H1238 H 0.98799 0.52463 0.39842 0.0
H1239 H 0.96964 0.52895 0.42173 0.0
H1240 H 0.03371 0.50768 0.40958 0.0
H1241 H 0.01193 0.56056 0.37252 0.0
H1242 H 0.00738 0.55837 0.39411 0.0
H1243 H 0.99598 0.54687 0.37912 0.0
C1244 C 0.00612 0.53664 0.44083 0.0
C1245 C 0.98907 0.53474 0.43903 0.0
C1246 C 0.01656 0.53432 0.42744 0.0
C1247 C 0.01015 0.53019 0.41198 0.0
C1248 C 0.99317 0.52809 0.41018 0.0
H1249 H 0.05139 0.5097 0.31621 0.0
H1250 H 0.03357 0.51385 0.33997 0.0
C1251 C 0.98272 0.53039 0.42356 0.0
C1252 C 0.02125 0.52777 0.39781 0.0
H1253 H 0.03002 0.54201 0.35936 0.0
C1254 C 0.03298 0.51522 0.39862 0.0
C1255 C 0.02023 0.53763 0.38354 0.0
C1256 C 0.00831 0.55172 0.38226 0.0
C1257 C 0.04353 0.51206 0.3854 0.0
C1258 C 0.04247 0.52189 0.37111 0.0
C1259 C 0.03077 0.53447 0.37032 0.0
C1260 C 0.05338 0.51933 0.3568 0.0
C1261 C 0.05543 0.49797 0.38667 0.0
C1262 C 0.0704 0.52124 0.35836 0.0
C1263 C 0.08062 0.51895 0.34479 0.0
C1264 C 0.07398 0.51481 0.32937 0.0
C1265 C 0.05689 0.51306 0.32785 0.0
C1266 C 0.04669 0.51534 0.34143 0.0
H1267 H 0.05189 0.48919 0.39649 0.0
H1268 H 0.05625 0.49124 0.37485 0.0
H1269 H 0.0678 0.50282 0.38967 0.0
H1270 H 0.07579 0.52469 0.37003 0.0
H1271 H 0.0937 0.52068 0.34632 0.0
H1272 H 0.75958 0.76582 0.81523 0.0
H1273 H 0.7557 0.74795 0.83907 0.0
H1274 H 0.80732 0.75134 0.85022 0.0
H1275 H 0.81131 0.76906 0.82626 0.0
H1276 H 0.79624 0.72007 0.85221 0.0
H1277 H 0.7549 0.76122 0.88691 0.0
H1278 H 0.74755 0.7567 0.86663 0.0
H1279 H 0.76632 0.76803 0.86922 0.0
C1280 C 0.77007 0.76287 0.82286 0.0
C1281 C 0.78573 0.7689 0.81892 0.0
C1282 C 0.76783 0.7527 0.8365 0.0
C1283 C 0.78116 0.74855 0.84661 0.0
C1284 C 0.79684 0.75443 0.84262 0.0
H1285 H 0.77393 0.7051 0.94392 0.0
H1286 H 0.77841 0.72325 0.92038 0.0
C1287 C 0.79912 0.76451 0.82891 0.0
C1288 C 0.77884 0.73777 0.86111 0.0
H1289 H 0.75744 0.73389 0.89691 0.0
C1290 C 0.78782 0.72312 0.86203 0.0
C1291 C 0.76801 0.74187 0.87403 0.0
C1292 C 0.75877 0.75789 0.87427 0.0
C1293 C 0.78606 0.71233 0.87537 0.0
C1294 C 0.77474 0.71612 0.88795 0.0
C1295 C 0.76597 0.7309 0.88717 0.0
C1296 C 0.77196 0.70504 0.90215 0.0
C1297 C 0.7966 0.69714 0.87598 0.0
C1298 C 0.76662 0.68885 0.89973 0.0
C1299 C 0.76412 0.67845 0.91315 0.0
C1300 C 0.76668 0.68411 0.92927 0.0
C1301 C 0.77173 0.70042 0.93166 0.0
C1302 C 0.77434 0.71078 0.91823 0.0
H1303 H 0.80769 0.69844 0.86819 0.0
H1304 H 0.80054 0.69437 0.88875 0.0
H1305 H 0.78943 0.68655 0.87131 0.0
H1306 H 0.76427 0.68429 0.88747 0.0
H1307 H 0.75996 0.66603 0.91094 0.0
H1308 H 0.01727 0.94687 0.43324 0.0
H1309 H 0.99884 0.95142 0.40992 0.0
H1310 H 0.99753 0.00309 0.42097 0.0
H1311 H 0.01591 0.99864 0.44435 0.0
H1312 H 0.96726 0.96468 0.40942 0.0
H1313 H 0.01024 1.00238 0.37237 0.0
H1314 H 0.01687 0.99038 0.38981 0.0
H1315 H 0.00693 0.00979 0.39286 0.0
C1316 C 0.01297 0.95919 0.43077 0.0
C1317 C 0.01811 0.97241 0.44061 0.0
C1318 C 1.00251 0.96178 0.4174 0.0
C1319 C 0.99703 0.97763 0.41356 0.0
C1320 C 1.00192 0.99082 0.42349 0.0
H1321 H 0.9334 0.01711 0.33743 0.0
H1322 H 0.95085 0.01306 0.3616 0.0
C1323 C 0.01241 0.98825 0.43685 0.0
C1324 C 0.986 0.98028 0.3993 0.0
H1325 H 0.98296 1.0002 0.36249 0.0
C1326 C 0.9707 0.9724 0.39913 0.0
C1327 C 0.99053 0.99038 0.38591 0.0
C1328 C 0.00709 0.99862 0.38511 0.0
C1329 C 0.95969 0.97451 0.38601 0.0
C1330 C 0.96424 0.98457 0.37261 0.0
C1331 C 0.97951 0.99251 0.37281 0.0
C1332 C 0.9534 0.98689 0.35816 0.0
C1333 C 0.94318 0.9662 0.38674 0.0
C1334 C 0.94918 0.97354 0.34815 0.0
C1335 C 0.93917 0.9758 0.33438 0.0
C1336 C 0.93323 0.99148 0.33032 0.0
C1337 C 0.93756 0.00484 0.34035 0.0
C1338 C 0.94761 1.00257 0.3541 0.0
H1339 H 0.93997 0.96246 0.39946 0.0
H1340 H 0.93339 0.97437 0.38195 0.0
H1341 H 0.94344 0.955 0.37901 0.0
H1342 H 0.95375 0.96138 0.35092 0.0
H1343 H 0.93597 0.96524 0.32699 0.0
H1344 H 0.24829 0.26705 0.69364 0.0
H1345 H 0.25275 0.24885 0.67016 0.0
H1346 H 0.20078 0.24835 0.66038 0.0
H1347 H 0.19625 0.26685 0.68357 0.0
H1348 H 0.23914 0.21707 0.66474 0.0
H1349 H 0.22124 0.26117 0.61586 0.0
H1350 H 0.22609 0.26753 0.63655 0.0
H1351 H 0.20644 0.25864 0.63198 0.0
C1352 C 0.23783 0.2632 0.68638 0.0
C1353 C 0.22192 0.26845 0.69042 0.0
C1354 C 0.24039 0.25273 0.67304 0.0
C1355 C 0.22712 0.24744 0.66342 0.0
C1356 C 0.21121 0.25251 0.6675 0.0
H1357 H 0.216 0.18588 0.57749 0.0
H1358 H 0.21198 0.20356 0.60135 0.0
C1359 C 0.20864 0.26294 0.68085 0.0
C1360 C 0.22987 0.23638 0.64928 0.0
H1361 H 0.2257 0.23368 0.60764 0.0
C1362 C 0.23629 0.2207 0.65223 0.0
C1363 C 0.22608 0.24117 0.63301 0.0
C1364 C 0.21971 0.25809 0.62907 0.0
C1365 C 0.23871 0.20952 0.63936 0.0
C1366 C 0.23493 0.21431 0.62307 0.0
C1367 C 0.22856 0.23002 0.62013 0.0
C1368 C 0.23743 0.2032 0.60888 0.0
C1369 C 0.2449 0.19255 0.64339 0.0
C1370 C 0.2531 0.19723 0.60512 0.0
C1371 C 0.25541 0.18696 0.59158 0.0
C1372 C 0.24212 0.18259 0.58143 0.0
C1373 C 0.22646 0.18874 0.58518 0.0
C1374 C 0.22415 0.19896 0.59875 0.0
H1375 H 0.2429 0.1894 0.65651 0.0
H1376 H 0.23878 0.18316 0.63564 0.0
H1377 H 0.25827 0.19201 0.64099 0.0
H1378 H 0.26358 0.20061 0.61257 0.0
H1379 H 0.26761 0.18236 0.58915 0.0
H1380 H 0.53791 0.5276 0.58498 0.0
H1381 H 0.5196 0.52303 0.60831 0.0
H1382 H 0.47791 0.53473 0.57784 0.0
H1383 H 0.49607 0.5388 0.55431 0.0
H1384 H 0.49801 0.54518 0.62277 0.0
H1385 H 0.46467 0.49097 0.5985 0.0
H1386 H 0.48361 0.49824 0.58966 0.0
H1387 H 0.46461 0.5084 0.58501 0.0
C1388 C 0.52482 0.52898 0.58318 0.0
C1389 C 0.51844 0.53348 0.56775 0.0
C1390 C 0.5144 0.52647 0.59655 0.0
C1391 C 0.49739 0.52831 0.59475 0.0
C1392 C 0.49098 0.53295 0.57942 0.0
H1393 H 0.4148 0.52155 0.66154 0.0
H1394 H 0.43283 0.52556 0.63788 0.0
C1395 C 0.50139 0.53546 0.56604 0.0
C1396 C 0.48642 0.52582 0.60903 0.0
H1397 H 0.45433 0.5028 0.62299 0.0
C1398 C 0.48851 0.53587 0.62286 0.0
C1399 C 0.47401 0.51368 0.60908 0.0
C1400 C 0.47164 0.50209 0.59484 0.0
C1401 C 0.47835 0.53428 0.63667 0.0
C1402 C 0.46595 0.52214 0.63672 0.0
C1403 C 0.46384 0.51211 0.62288 0.0
C1404 C 0.45509 0.5196 0.65107 0.0
C1405 C 0.48075 0.54582 0.65095 0.0
C1406 C 0.46162 0.51469 0.66625 0.0
C1407 C 0.45135 0.5123 0.67977 0.0
C1408 C 0.43433 0.51471 0.67834 0.0
C1409 C 0.42782 0.51944 0.66303 0.0
C1410 C 0.43811 0.52181 0.64952 0.0
H1411 H 0.48785 0.55689 0.64736 0.0
H1412 H 0.46878 0.54976 0.65605 0.0
H1413 H 0.48764 0.53942 0.66082 0.0
H1414 H 0.47466 0.51256 0.66761 0.0
H1415 H 0.45674 0.50835 0.69128 0.0
H1416 H 0.78979 0.25996 0.70221 0.0
H1417 H 0.7854 0.27806 0.67865 0.0
H1418 H 0.77314 0.23631 0.64857 0.0
H1419 H 0.77814 0.21805 0.67188 0.0
H1420 H 0.79444 0.2572 0.63331 0.0
H1421 H 0.7418 0.2918 0.65868 0.0
H1422 H 0.75959 0.29205 0.67169 0.0
H1423 H 0.74916 0.273 0.66777 0.0
C1424 C 0.78626 0.2546 0.69056 0.0
C1425 C 0.78427 0.23754 0.68896 0.0
C1426 C 0.78355 0.265 0.67716 0.0
C1427 C 0.77867 0.25856 0.66193 0.0
C1428 C 0.77677 0.24155 0.66025 0.0
H1429 H 0.74036 0.31403 0.57906 0.0
H1430 H 0.74424 0.29542 0.60232 0.0
C1431 C 0.77952 0.23114 0.67362 0.0
C1432 C 0.776 0.2695 0.64759 0.0
H1433 H 0.75359 0.3022 0.63406 0.0
C1434 C 0.78547 0.26701 0.63344 0.0
C1435 C 0.76414 0.28214 0.64772 0.0
C1436 C 0.75297 0.28484 0.66221 0.0
C1437 C 0.78359 0.27698 0.6195 0.0
C1438 C 0.77215 0.28999 0.61984 0.0
C1439 C 0.76248 0.29232 0.63389 0.0
C1440 C 0.76991 0.30125 0.60569 0.0
C1441 C 0.79368 0.27328 0.60443 0.0
C1442 C 0.783 0.31084 0.59997 0.0
C1443 C 0.78088 0.32137 0.58658 0.0
C1444 C 0.76555 0.32263 0.57871 0.0
C1445 C 0.75239 0.31317 0.58464 0.0
C1446 C 0.75455 0.30261 0.59802 0.0
H1447 H 0.79833 0.26049 0.60455 0.0
H1448 H 0.78642 0.27519 0.59304 0.0
H1449 H 0.80441 0.28164 0.60409 0.0
H1450 H 0.79488 0.31022 0.6059 0.0
H1451 H 0.79131 0.32835 0.58227 0.0
H1452 H 0.51154 0.96807 0.554 0.0
H1453 H 0.53009 0.97255 0.57735 0.0
H1454 H 0.48856 0.9801 0.60907 0.0
H1455 H 0.46993 0.97558 0.58584 0.0
H1456 H 0.52941 0.0028 0.60024 0.0
H1457 H 0.51869 0.94235 0.63021 0.0
H1458 H 0.51527 0.94565 0.60851 0.0
H1459 H 0.50099 0.95356 0.62321 0.0
C1460 C 0.50638 0.9706 0.56597 0.0
C1461 C 0.48929 0.97145 0.56811 0.0
C1462 C 0.51697 0.97323 0.57924 0.0
C1463 C 0.51065 0.97654 0.59489 0.0
C1464 C 0.49363 0.97747 0.59708 0.0
H1465 H 0.55197 0.9876 0.69219 0.0
H1466 H 0.53426 0.98395 0.66816 0.0
C1467 C 0.48304 0.97498 0.5838 0.0
C1468 C 0.52183 0.97909 0.60898 0.0
H1469 H 0.5352 0.96133 0.6445 0.0
C1470 C 0.53077 0.99375 0.60991 0.0
C1471 C 0.52341 0.96727 0.62155 0.0
C1472 C 0.51418 0.95124 0.62089 0.0
C1473 C 0.54109 0.99705 0.62335 0.0
C1474 C 0.54282 0.98515 0.63593 0.0
C1475 C 0.53389 0.97044 0.63488 0.0
C1476 C 0.55363 0.98773 0.65041 0.0
C1477 C 0.54961 0.01347 0.62417 0.0
C1478 C 0.57043 0.99094 0.64844 0.0
C1479 C 0.58053 0.99319 0.66216 0.0
C1480 C 0.57407 0.99194 0.67811 0.0
C1481 C 0.5573 0.98851 0.68005 0.0
C1482 C 0.54718 0.98646 0.66634 0.0
H1483 H 0.54333 0.02276 0.61641 0.0
H1484 H 0.55017 0.0181 0.63698 0.0
H1485 H 0.56233 0.01215 0.61956 0.0
H1486 H 0.57579 0.99151 0.6363 0.0
H1487 H 0.59347 0.99557 0.66032 0.0
H1488 H 0.83489 0.22815 0.71888 0.0
H1489 H 0.85813 0.23284 0.73737 0.0
H1490 H 0.82803 0.2199 0.77887 0.0
H1491 H 0.80464 0.21546 0.76055 0.0
H1492 H 0.85996 0.25497 0.76498 0.0
H1493 H 0.86888 0.18985 0.78305 0.0
H1494 H 0.85716 0.19579 0.76517 0.0
H1495 H 0.84838 0.19756 0.7853 0.0
C1496 C 0.83315 0.22644 0.73195 0.0
C1497 C 0.81789 0.22138 0.73822 0.0
C1498 C 0.84647 0.22904 0.74248 0.0
C1499 C 0.84483 0.2265 0.75944 0.0
C1500 C 0.82962 0.22162 0.76578 0.0
H1501 H 0.91161 0.23293 0.84245 0.0
H1502 H 0.88792 0.22912 0.82433 0.0
C1503 C 0.81628 0.21906 0.75528 0.0
C1504 C 0.859 0.22919 0.77053 0.0
H1505 H 0.88487 0.20961 0.79707 0.0
C1506 C 0.86547 0.24507 0.77197 0.0
C1507 C 0.86606 0.21624 0.77966 0.0
C1508 C 0.85989 0.19886 0.77818 0.0
C1509 C 0.8787 0.24841 0.78251 0.0
C1510 C 0.88587 0.23542 0.79157 0.0
C1511 C 0.87936 0.21955 0.79013 0.0
C1512 C 0.9002 0.238 0.80253 0.0
C1513 C 0.88462 0.26586 0.78414 0.0
C1514 C 0.91502 0.24407 0.79624 0.0
C1515 C 0.92856 0.24628 0.80656 0.0
C1516 C 0.9276 0.24226 0.82334 0.0
C1517 C 0.91278 0.23601 0.82956 0.0
C1518 C 0.89922 0.23389 0.81924 0.0
H1519 H 0.87511 0.27478 0.78019 0.0
H1520 H 0.8882 0.26866 0.79701 0.0
H1521 H 0.89552 0.26766 0.77621 0.0
H1522 H 0.91619 0.24692 0.7833 0.0
H1523 H 0.93989 0.25083 0.80134 0.0
H1524 H 0.47737 0.92061 0.53889 0.0
H1525 H 0.48165 0.89723 0.52051 0.0
H1526 H 0.47174 0.92809 0.47863 0.0
H1527 H 0.46766 0.95158 0.49689 0.0
H1528 H 0.45819 0.88445 0.49656 0.0
H1529 H 0.51652 0.90557 0.4683 0.0
H1530 H 0.50899 0.91366 0.4875 0.0
H1531 H 0.50004 0.92019 0.46842 0.0
C1532 C 0.47626 0.92245 0.52575 0.0
C1533 C 0.47223 0.93794 0.51932 0.0
C1534 C 0.47863 0.90908 0.5153 0.0
C1535 C 0.47718 0.911 0.49823 0.0
C1536 C 0.47311 0.92642 0.49176 0.0
H1537 H 0.48905 0.84579 0.41487 0.0
H1538 H 0.48478 0.86928 0.43307 0.0
C1539 C 0.47065 0.93977 0.50221 0.0
C1540 C 0.47955 0.89678 0.48721 0.0
H1541 H 0.5044 0.88169 0.45715 0.0
C1542 C 0.46831 0.88378 0.48797 0.0
C1543 C 0.49272 0.89605 0.47599 0.0
C1544 C 0.50537 0.90953 0.47501 0.0
C1545 C 0.46973 0.87013 0.47759 0.0
C1546 C 0.48301 0.8693 0.46645 0.0
C1547 C 0.49424 0.88234 0.4657 0.0
C1548 C 0.48551 0.855 0.45548 0.0
C1549 C 0.45677 0.85694 0.47837 0.0
C1550 C 0.48756 0.83921 0.46205 0.0
C1551 C 0.48994 0.82577 0.45168 0.0
C1552 C 0.49054 0.82791 0.43455 0.0
C1553 C 0.48875 0.84377 0.42802 0.0
C1554 C 0.48626 0.85719 0.43839 0.0
H1555 H 0.44521 0.86158 0.48385 0.0
H1556 H 0.45401 0.85199 0.46597 0.0
H1557 H 0.46125 0.84673 0.48619 0.0
H1558 H 0.48749 0.83728 0.47521 0.0
H1559 H 0.49158 0.81375 0.45709 0.0
H1560 H 0.18084 0.30999 0.73949 0.0
H1561 H 0.15762 0.30518 0.75786 0.0
H1562 H 0.1709 0.25414 0.76159 0.0
H1563 H 0.194 0.25883 0.743 0.0
H1564 H 0.1385 0.25778 0.75669 0.0
H1565 H 0.15859 0.29889 0.80698 0.0
H1566 H 0.15714 0.30922 0.78757 0.0
H1567 H 0.17195 0.2931 0.79034 0.0
C1568 C 0.17889 0.29778 0.74436 0.0
C1569 C 0.18927 0.2848 0.73988 0.0
C1570 C 0.16565 0.29506 0.7549 0.0
C1571 C 0.1627 0.27936 0.76136 0.0
C1572 C 0.17298 0.26636 0.75681 0.0
H1573 H 0.09674 0.25928 0.84288 0.0
H1574 H 0.12059 0.26263 0.82499 0.0
C1575 C 0.18614 0.26904 0.74616 0.0
C1576 C 0.14861 0.2764 0.7725 0.0
H1577 H 0.13111 0.28903 0.80837 0.0
C1578 C 0.13692 0.26455 0.76804 0.0
C1579 C 0.1467 0.28505 0.78743 0.0
C1580 C 0.15935 0.29715 0.79347 0.0
C1581 C 0.12321 0.26133 0.77794 0.0
C1582 C 0.12092 0.27051 0.7925 0.0
C1583 C 0.13277 0.28213 0.79711 0.0
C1584 C 0.10638 0.2682 0.8032 0.0
C1585 C 0.11151 0.24792 0.77284 0.0
C1586 C 0.09047 0.27036 0.79695 0.0
C1587 C 0.07683 0.26835 0.80712 0.0
C1588 C 0.07885 0.2644 0.82382 0.0
C1589 C 0.0948 0.26244 0.8301 0.0
C1590 C 0.10843 0.26431 0.81988 0.0
H1591 H 0.11746 0.239 0.76445 0.0
H1592 H 0.10672 0.24118 0.78367 0.0
H1593 H 0.10098 0.25344 0.76619 0.0
H1594 H 0.08859 0.27382 0.78424 0.0
H1595 H 0.0647 0.27022 0.80201 0.0
H1596 H 0.53 0.58367 0.53771 0.0
H1597 H 0.52564 0.60705 0.51934 0.0
H1598 H 0.53512 0.5762 0.47746 0.0
H1599 H 0.53909 0.55266 0.49571 0.0
H1600 H 0.54811 0.62041 0.49645 0.0
H1601 H 0.49121 0.5984 0.46595 0.0
H1602 H 0.49877 0.58967 0.4849 0.0
H1603 H 0.50802 0.58419 0.46568 0.0
C1604 C 0.53094 0.58181 0.52458 0.0
C1605 C 0.5348 0.56628 0.51816 0.0
C1606 C 0.52855 0.5952 0.51411 0.0
C1607 C 0.52985 0.5933 0.49704 0.0
C1608 C 0.5338 0.57786 0.49059 0.0
H1609 H 0.52022 0.65993 0.41423 0.0
H1610 H 0.52441 0.63619 0.43216 0.0
C1611 C 0.53623 0.56447 0.50104 0.0
C1612 C 0.52749 0.60759 0.48604 0.0
H1613 H 0.50333 0.62249 0.45515 0.0
C1614 C 0.53829 0.62092 0.48745 0.0
C1615 C 0.5147 0.60815 0.47429 0.0
C1616 C 0.5024 0.59442 0.47265 0.0
C1617 C 0.5368 0.63473 0.47725 0.0
C1618 C 0.52395 0.63534 0.46556 0.0
C1619 C 0.51318 0.62198 0.46412 0.0
C1620 C 0.52142 0.64978 0.45476 0.0
C1621 C 0.54921 0.64837 0.47885 0.0
C1622 C 0.51812 0.66524 0.46151 0.0
C1623 C 0.5157 0.67882 0.45131 0.0
C1624 C 0.51639 0.67717 0.43413 0.0
C1625 C 0.51947 0.6616 0.4274 0.0
C1626 C 0.52194 0.64803 0.43762 0.0
H1627 H 0.56062 0.64413 0.48501 0.0
H1628 H 0.55246 0.65349 0.46663 0.0
H1629 H 0.54392 0.65838 0.48637 0.0
H1630 H 0.51725 0.66679 0.47469 0.0
H1631 H 0.51304 0.69057 0.45687 0.0
H1632 H 0.81564 0.75798 0.76857 0.0
H1633 H 0.8393 0.75369 0.75066 0.0
H1634 H 0.84611 0.80599 0.74687 0.0
H1635 H 0.82292 0.81038 0.76529 0.0
H1636 H 0.84442 0.76395 0.71883 0.0
H1637 H 0.89152 0.79049 0.76027 0.0
H1638 H 0.87112 0.78544 0.76717 0.0
H1639 H 0.8748 0.80415 0.75604 0.0
C1640 C 0.8223 0.76857 0.76411 0.0
C1641 C 0.81744 0.78453 0.76847 0.0
C1642 C 0.83575 0.7661 0.75378 0.0
C1643 C 0.84463 0.77951 0.74766 0.0
C1644 C 0.83964 0.79545 0.75173 0.0
H1645 H 0.92694 0.79156 0.68163 0.0
H1646 H 0.90308 0.79527 0.69943 0.0
C1647 C 0.82624 0.79794 0.76209 0.0
C1648 C 0.85895 0.77684 0.73678 0.0
H1649 H 0.89992 0.78461 0.73295 0.0
C1650 C 0.85658 0.76838 0.72195 0.0
C1651 C 0.8748 0.78261 0.7409 0.0
C1652 C 0.8783 0.79104 0.75703 0.0
C1653 C 0.86958 0.76584 0.71096 0.0
C1654 C 0.88537 0.77176 0.71502 0.0
C1655 C 0.88776 0.78015 0.72986 0.0
C1656 C 0.8996 0.76938 0.70402 0.0
C1657 C 0.86626 0.75716 0.69494 0.0
C1658 C 0.90561 0.75359 0.70084 0.0
C1659 C 0.91922 0.75142 0.69066 0.0
C1660 C 0.92707 0.76502 0.68349 0.0
C1661 C 0.92103 0.78082 0.68677 0.0
C1662 C 0.90747 0.78298 0.69701 0.0
H1663 H 0.85295 0.75666 0.69205 0.0
H1664 H 0.87272 0.76333 0.68466 0.0
H1665 H 0.87087 0.74439 0.69577 0.0
H1666 H 0.89984 0.74295 0.70633 0.0
H1667 H 0.9235 0.73909 0.68828 0.0
H1668 H 0.00913 0.94211 0.49115 0.0
H1669 H 0.00499 0.91865 0.50945 0.0
H1670 H 0.05699 0.9093 0.5095 0.0
H1671 H 0.06125 0.93255 0.49098 0.0
H1672 H 0.01411 0.88517 0.50379 0.0
H1673 H 0.04475 0.91141 0.55884 0.0
H1674 H 0.03813 0.92388 0.54173 0.0
H1675 H 0.0566 0.91202 0.54027 0.0
C1676 C 0.01969 0.935 0.49495 0.0
C1677 C 0.03554 0.93925 0.48962 0.0
C1678 C 0.0173 0.92166 0.50548 0.0
C1679 C 0.0307 0.9124 0.51099 0.0
C1680 C 0.04652 0.91651 0.50564 0.0
H1681 H 0.04232 0.82786 0.57459 0.0
H1682 H 0.04624 0.85132 0.55628 0.0
C1683 C 0.04893 0.92981 0.49508 0.0
C1684 C 0.02809 0.8982 0.52203 0.0
H1685 H 0.03683 0.8835 0.56035 0.0
C1686 C 0.019 0.8848 0.51618 0.0
C1687 C 0.03455 0.89778 0.53816 0.0
C1688 C 0.04394 0.91208 0.54523 0.0
C1689 C 0.01645 0.87083 0.52594 0.0
C1690 C 0.02286 0.87042 0.5421 0.0
C1691 C 0.03193 0.88384 0.54795 0.0
C1692 C 0.02035 0.85615 0.55313 0.0
C1693 C 0.00726 0.85647 0.51869 0.0
C1694 C 0.0045 0.8512 0.55761 0.0
C1695 C 1.0022 0.83769 0.56793 0.0
C1696 C 0.01573 0.82894 0.57412 0.0
C1697 C 0.03162 0.83413 0.56982 0.0
C1698 C 0.03389 0.84761 0.55946 0.0
H1699 H 0.00715 0.85691 0.50504 0.0
H1700 H 0.01275 0.84466 0.52265 0.0
H1701 H 0.99436 0.85679 0.52296 0.0
H1702 H 0.99388 0.85781 0.55314 0.0
H1703 H 0.9898 0.83397 0.57087 0.0
H1704 H 0.19226 0.74727 0.76664 0.0
H1705 H 0.16856 0.75155 0.74862 0.0
H1706 H 0.15866 0.69961 0.74913 0.0
H1707 H 0.18209 0.69527 0.76745 0.0
H1708 H 0.16266 0.73754 0.7171 0.0
H1709 H 0.11446 0.72043 0.7621 0.0
H1710 H 0.13521 0.72529 0.76817 0.0
H1711 H 0.13048 0.70554 0.75961 0.0
C1712 C 0.18493 0.73678 0.76306 0.0
C1713 C 0.189 0.72094 0.76854 0.0
C1714 C 0.17146 0.73924 0.75269 0.0
C1715 C 0.16175 0.72593 0.74773 0.0
C1716 C 0.16586 0.71008 0.75303 0.0
H1717 H 0.07515 0.71465 0.68694 0.0
H1718 H 0.09915 0.71066 0.70452 0.0
C1719 C 0.17934 0.7076 0.76336 0.0
C1720 C 0.14748 0.72859 0.73676 0.0
H1721 H 0.10585 0.72467 0.73461 0.0
C1722 C 0.15022 0.73481 0.72093 0.0
C1723 C 0.1313 0.72496 0.74181 0.0
C1724 C 0.12759 0.71882 0.75889 0.0
C1725 C 0.13721 0.73721 0.70985 0.0
C1726 C 0.12101 0.73359 0.7149 0.0
C1727 C 0.11828 0.72741 0.73076 0.0
C1728 C 0.1067 0.73609 0.70391 0.0
C1729 C 0.14099 0.74319 0.69273 0.0
C1730 C 0.1029 0.75174 0.69784 0.0
C1731 C 0.08928 0.75404 0.68764 0.0
C1732 C 0.07909 0.74075 0.68343 0.0
C1733 C 0.08287 0.72511 0.68969 0.0
C1734 C 0.09651 0.72282 0.69985 0.0
H1735 H 0.15403 0.74112 0.68945 0.0
H1736 H 0.13311 0.73699 0.68349 0.0
H1737 H 0.1386 0.75657 0.69202 0.0
H1738 H 0.1104 0.76221 0.70108 0.0
H1739 H 0.08681 0.76622 0.68296 0.0
H1740 H 0.97788 0.58484 0.46896 0.0
H1741 H 0.98224 0.60812 0.48739 0.0
H1742 H 0.97122 0.5774 0.52908 0.0
H1743 H 0.96733 0.55393 0.51079 0.0
H1744 H 0.95989 0.62208 0.50936 0.0
H1745 H 0.01493 0.59864 0.54203 0.0
H1746 H 0.00765 0.58987 0.52301 0.0
H1747 H 0.99772 0.58488 0.54206 0.0
C1748 C 0.97661 0.58298 0.48207 0.0
C1749 C 0.97235 0.5675 0.48842 0.0
C1750 C 0.979 0.59632 0.49257 0.0
C1751 C 0.97728 0.59443 0.50961 0.0
C1752 C 0.9729 0.57905 0.51599 0.0
H1753 H 0.98463 0.66075 0.59268 0.0
H1754 H 0.9806 0.63718 0.57453 0.0
C1755 C 0.9705 0.5657 0.5055 0.0
C1756 C 0.97965 0.60868 0.52065 0.0
H1757 H 0.00288 0.62289 0.55256 0.0
C1758 C 0.96933 0.62231 0.51877 0.0
C1759 C 0.99195 0.60889 0.53293 0.0
C1760 C 0.00381 0.59486 0.53509 0.0
C1761 C 0.97081 0.63607 0.529 0.0
C1762 C 0.98313 0.6363 0.54125 0.0
C1763 C 0.99344 0.62266 0.54317 0.0
C1764 C 0.9856 0.65063 0.55217 0.0
C1765 C 0.95895 0.6501 0.52684 0.0
C1766 C 0.98996 0.66594 0.54563 0.0
C1767 C 0.99233 0.67941 0.55596 0.0
C1768 C 0.9905 0.6778 0.57306 0.0
C1769 C 0.9863 0.66238 0.57959 0.0
C1770 C 0.98392 0.64892 0.56924 0.0
H1771 H 0.94779 0.64629 0.51998 0.0
H1772 H 0.95519 0.65516 0.53891 0.0
H1773 H 0.965 0.66004 0.51977 0.0
H1774 H 0.99169 0.66743 0.53252 0.0
H1775 H 0.99586 0.69103 0.55056 0.0
H1776 H 0.71936 0.83444 0.23031 0.0
H1777 H 0.73764 0.85775 0.23484 0.0
H1778 H 0.77908 0.82819 0.22079 0.0
H1779 H 0.761 0.80457 0.21697 0.0
H1780 H 0.78545 0.84641 0.24806 0.0
H1781 H 0.75849 0.88566 0.19938 0.0
H1782 H 0.74377 0.87878 0.21422 0.0
H1783 H 0.75382 0.86411 0.20119 0.0
C1784 C 0.73239 0.83282 0.22835 0.0
C1785 C 0.73869 0.81761 0.22322 0.0
C1786 C 0.74279 0.84624 0.23073 0.0
C1787 C 0.75968 0.84481 0.22784 0.0
C1788 C 0.76606 0.82961 0.22296 0.0
H1789 H 0.82775 0.92567 0.21576 0.0
H1790 H 0.81016 0.9017 0.2122 0.0
C1791 C 0.75568 0.81616 0.22065 0.0
C1792 C 0.77075 0.85909 0.2301 0.0
H1793 H 0.77765 0.89838 0.21735 0.0
C1794 C 0.78379 0.85776 0.24131 0.0
C1795 C 0.7687 0.87381 0.22111 0.0
C1796 C 0.75554 0.87567 0.20818 0.0
C1797 C 0.7947 0.87083 0.24395 0.0
C1798 C 0.79229 0.88575 0.23539 0.0
C1799 C 0.77938 0.887 0.22403 0.0
C1800 C 0.8032 0.90014 0.23778 0.0
C1801 C 0.80891 0.86838 0.2556 0.0
C1802 C 0.80504 0.90733 0.25333 0.0
C1803 C 0.8153 0.92092 0.25546 0.0
C1804 C 0.82378 0.92771 0.24204 0.0
C1805 C 0.82169 0.9206 0.22643 0.0
C1806 C 0.81151 0.90697 0.22434 0.0
H1807 H 0.81167 0.85517 0.25745 0.0
H1808 H 0.82013 0.87458 0.25102 0.0
H1809 H 0.80576 0.87368 0.26773 0.0
H1810 H 0.79847 0.9025 0.26382 0.0
H1811 H 0.8167 0.92598 0.26768 0.0
H1812 H 0.76194 0.20281 0.28964 0.0
H1813 H 0.78034 0.17954 0.28523 0.0
H1814 H 0.73885 0.14872 0.27395 0.0
H1815 H 0.72035 0.17182 0.27853 0.0
H1816 H 0.78033 0.14878 0.30161 0.0
H1817 H 0.76974 0.14189 0.23457 0.0
H1818 H 0.76407 0.16015 0.2457 0.0
H1819 H 0.75143 0.14213 0.24678 0.0
C1820 C 0.75671 0.19106 0.28631 0.0
C1821 C 0.73966 0.1892 0.28438 0.0
C1822 C 0.76725 0.17781 0.28372 0.0
C1823 C 0.76097 0.16249 0.27903 0.0
C1824 C 0.74398 0.16054 0.27721 0.0
H1825 H 0.80207 0.06677 0.25897 0.0
H1826 H 0.78436 0.0906 0.26306 0.0
C1827 C 0.73343 0.17376 0.27982 0.0
C1828 C 0.77216 0.14843 0.27646 0.0
H1829 H 0.78503 0.12089 0.24771 0.0
C1830 C 0.78145 0.14272 0.28981 0.0
C1831 C 0.77353 0.14055 0.26106 0.0
C1832 C 0.76428 0.14655 0.24615 0.0
C1833 C 0.79183 0.12909 0.28828 0.0
C1834 C 0.7932 0.12119 0.27287 0.0
C1835 C 0.78395 0.12696 0.2595 0.0
C1836 C 0.80405 0.10683 0.27039 0.0
C1837 C 0.8009 0.12302 0.30327 0.0
C1838 C 0.82102 0.10812 0.27293 0.0
C1839 C 0.83118 0.09452 0.2706 0.0
C1840 C 0.82456 0.07942 0.26551 0.0
C1841 C 0.80757 0.07825 0.26274 0.0
C1842 C 0.79743 0.09184 0.26514 0.0
H1843 H 0.79527 0.12756 0.3148 0.0
H1844 H 0.80116 0.10941 0.30364 0.0
H1845 H 0.81374 0.12751 0.30286 0.0
H1846 H 0.82645 0.11968 0.27659 0.0
H1847 H 0.84424 0.0959 0.27255 0.0
H1848 H 0.45238 0.99576 0.96658 0.0
H1849 H 0.42889 0.97745 0.97049 0.0
H1850 H 0.3985 0.01894 0.9825 0.0
H1851 H 0.42173 0.03737 0.97809 0.0
H1852 H 0.40977 0.97272 0.99858 0.0
H1853 H 0.37206 0.99575 0.94664 0.0
H1854 H 0.39361 1.00039 0.9487 0.0
H1855 H 0.37874 0.01143 0.96061 0.0
C1856 C 0.44064 1.00101 0.96986 0.0
C1857 C 0.43891 0.01804 0.97194 0.0
C1858 C 0.42727 0.99052 0.97219 0.0
C1859 C 0.4119 0.99686 0.97654 0.0
C1860 C 0.41018 0.01381 0.97885 0.0
H1861 H 0.31651 0.95555 0.9982 0.0
H1862 H 0.34033 0.9733 0.99405 0.0
C1863 C 0.42352 0.02431 0.97652 0.0
C1864 C 0.39774 0.98572 0.97895 0.0
H1865 H 0.35903 0.97743 0.96519 0.0
C1866 C 0.3987 0.97367 0.99123 0.0
C1867 C 0.38333 0.98701 0.96933 0.0
C1868 C 0.38187 0.99924 0.95548 0.0
C1869 C 0.38549 0.96308 0.9944 0.0
C1870 C 0.37105 0.96445 0.98485 0.0
C1871 C 0.37011 0.97645 0.97252 0.0
C1872 C 0.35672 0.95357 0.98746 0.0
C1873 C 0.38694 0.95079 0.00818 0.0
C1874 C 0.35801 0.93661 0.98494 0.0
C1875 C 0.34439 0.92643 0.9872 0.0
C1876 C 0.3292 0.93304 0.99195 0.0
C1877 C 0.32796 0.95007 0.99436 0.0
C1878 C 0.34158 0.96023 0.99208 0.0
H1879 H 0.39704 0.95396 0.0168 0.0
H1880 H 0.37532 0.94995 0.01521 0.0
H1881 H 0.38957 0.93852 0.00295 0.0
H1882 H 0.3695 0.93126 0.98102 0.0
H1883 H 0.34571 0.91341 0.98496 0.0
H1884 H 0.24629 0.30375 0.29136 0.0
H1885 H 0.22813 0.32722 0.28698 0.0
H1886 H 0.26971 0.35722 0.27409 0.0
H1887 H 0.28802 0.33393 0.27871 0.0
H1888 H 0.22948 0.3586 0.30285 0.0
H1889 H 0.23738 0.36335 0.23524 0.0
H1890 H 0.24292 0.34521 0.2467 0.0
H1891 H 0.25609 0.36287 0.24693 0.0
C1892 C 0.25161 0.31537 0.28771 0.0
C1893 C 0.26862 0.31694 0.28534 0.0
C1894 C 0.24119 0.32873 0.28512 0.0
C1895 C 0.24756 0.34387 0.28 0.0
C1896 C 0.26452 0.34554 0.27773 0.0
H1897 H 0.2062 0.43921 0.2579 0.0
H1898 H 0.22401 0.41546 0.26216 0.0
C1899 C 0.27496 0.3322 0.28035 0.0
C1900 C 0.23651 0.35803 0.2774 0.0
H1901 H 0.2226 0.38469 0.24819 0.0
C1902 C 0.22789 0.36428 0.2909 0.0
C1903 C 0.23454 0.3654 0.2618 0.0
C1904 C 0.2431 0.35882 0.24678 0.0
C1905 C 0.21757 0.37796 0.28928 0.0
C1906 C 0.21556 0.38533 0.27366 0.0
C1907 C 0.22416 0.37903 0.26015 0.0
C1908 C 0.20466 0.39964 0.27107 0.0
C1909 C 0.20927 0.38464 0.3044 0.0
C1910 C 0.18782 0.39855 0.27444 0.0
C1911 C 0.17762 0.41211 0.27202 0.0
C1912 C 0.18403 0.42696 0.26601 0.0
C1913 C 0.20086 0.42791 0.2624 0.0
C1914 C 0.21106 0.41438 0.26489 0.0
H1915 H 0.21547 0.38052 0.31585 0.0
H1916 H 0.20905 0.39825 0.30423 0.0
H1917 H 0.19642 0.38017 0.30477 0.0
H1918 H 0.18255 0.38718 0.27882 0.0
H1919 H 0.16466 0.41089 0.27465 0.0
H1920 H 0.06673 0.98873 0.49954 0.0
H1921 H 0.0904 0.00662 0.50358 0.0
H1922 H 0.09626 0.01082 0.4511 0.0
H1923 H 0.07325 0.99212 0.44694 0.0
H1924 H 0.12499 0.00598 0.4656 0.0
H1925 H 0.09226 0.05549 0.49844 0.0
H1926 H 0.09016 0.03598 0.5084 0.0
H1927 H 0.08161 0.039 0.48821 0.0
C1928 C 0.07313 0.99331 0.48883 0.0
C1929 C 0.06799 0.98899 0.47289 0.0
C1930 C 0.08653 0.00377 0.49117 0.0
C1931 C 0.09491 0.01036 0.47765 0.0
C1932 C 0.08989 0.006 0.46174 0.0
H1933 H 0.16332 0.09209 0.48246 0.0
H1934 H 0.13972 0.07411 0.4778 0.0
C1935 C 0.07661 0.99542 0.45938 0.0
C1936 C 0.1092 0.02142 0.48003 0.0
H1937 H 0.12144 0.05692 0.4986 0.0
C1938 C 0.12419 0.01717 0.47275 0.0
C1939 C 0.1081 0.03615 0.48915 0.0
C1940 C 0.09213 0.04203 0.49635 0.0
C1941 C 0.13815 0.0271 0.4745 0.0
C1942 C 0.13724 0.04145 0.48422 0.0
C1943 C 0.12219 0.04582 0.49131 0.0
C1944 C 0.15166 0.05225 0.48699 0.0
C1945 C 0.15362 0.02227 0.46559 0.0
C1946 C 0.16617 0.046 0.49388 0.0
C1947 C 0.17972 0.05622 0.49639 0.0
C1948 C 0.1789 0.07295 0.49236 0.0
C1949 C 0.16427 0.07926 0.48576 0.0
C1950 C 0.1508 0.069 0.48307 0.0
H1951 H 0.15094 0.01414 0.45498 0.0
H1952 H 0.16035 0.03322 0.46106 0.0
H1953 H 0.16175 0.01545 0.47414 0.0
H1954 H 0.16698 0.03323 0.49746 0.0
H1955 H 0.19075 0.05109 0.50175 0.0
H1956 H 0.76866 0.18992 0.7485 0.0
H1957 H 0.75099 0.16607 0.75297 0.0
H1958 H 0.74812 0.15821 0.7007 0.0
H1959 H 0.76611 0.18179 0.69608 0.0
H1960 H 0.717 0.15774 0.71836 0.0
H1961 H 0.76436 0.117 0.74583 0.0
H1962 H 0.76278 0.13718 0.75458 0.0
H1963 H 0.76951 0.13486 0.73374 0.0
C1964 C 0.76446 0.18301 0.73795 0.0
C1965 C 0.76887 0.18776 0.72192 0.0
C1966 C 0.75432 0.16942 0.74053 0.0
C1967 C 0.7484 0.16032 0.72717 0.0
C1968 C 0.7526 0.1651 0.71117 0.0
H1969 H 0.70058 0.0654 0.72476 0.0
H1970 H 0.71861 0.08902 0.72064 0.0
C1971 C 0.76279 0.17863 0.70856 0.0
C1972 C 0.73765 0.14594 0.72985 0.0
H1973 H 0.73701 0.10724 0.74589 0.0
C1974 C 0.72135 0.14669 0.72437 0.0
C1975 C 0.74345 0.13153 0.73756 0.0
C1976 C 0.76101 0.12994 0.74318 0.0
C1977 C 0.71059 0.13342 0.72661 0.0
C1978 C 0.71631 0.11912 0.7346 0.0
C1979 C 0.73267 0.11829 0.73988 0.0
C1980 C 0.7055 0.10481 0.73739 0.0
C1981 C 0.69325 0.13469 0.72026 0.0
C1982 C 0.69232 0.10583 0.74835 0.0
C1983 C 0.68209 0.0923 0.7509 0.0
C1984 C 0.68485 0.07749 0.7425 0.0
C1985 C 0.6982 0.07652 0.73161 0.0
C1986 C 0.70847 0.09003 0.72915 0.0
H1987 H 0.69171 0.14515 0.71164 0.0
H1988 H 0.68961 0.12321 0.71388 0.0
H1989 H 0.68479 0.13649 0.73075 0.0
H1990 H 0.69 0.11708 0.75501 0.0
H1991 H 0.67213 0.09342 0.75959 0.0
H1992 H 0.42152 0.96776 0.53447 0.0
H1993 H 0.39813 0.9861 0.53034 0.0
H1994 H 0.43066 0.02785 0.53155 0.0
H1995 H 0.45398 0.00955 0.5363 0.0
H1996 H 0.40448 0.0339 0.54901 0.0
H1997 H 0.38432 0.00877 0.48919 0.0
H1998 H 0.38472 0.99334 0.50487 0.0
H1999 H 0.40353 0.00309 0.49859 0.0
C2000 C 0.42365 0.98085 0.53374 0.0
C2001 C 0.43953 0.98726 0.53562 0.0
C2002 C 0.4103 0.99132 0.53128 0.0
C2003 C 0.41265 0.00836 0.53025 0.0
C2004 C 0.42853 0.01476 0.53223 0.0
H2005 H 0.33884 0.07529 0.49231 0.0
H2006 H 0.36282 0.058 0.49649 0.0
C2007 C 0.44184 0.00431 0.53495 0.0
C2008 C 0.39852 0.01956 0.52761 0.0
H2009 H 0.36565 0.02682 0.50261 0.0
C2010 C 0.39605 0.03241 0.5388 0.0
C2011 C 0.38766 0.01782 0.51413 0.0
C2012 C 0.39028 0.00512 0.50092 0.0
C2013 C 0.38294 0.04341 0.53702 0.0
C2014 C 0.3716 0.04115 0.52402 0.0
C2015 C 0.3742 0.02844 0.5127 0.0
C2016 C 0.35711 0.05197 0.52174 0.0
C2017 C 0.38167 0.05755 0.54889 0.0
C2018 C 0.34577 0.05427 0.53447 0.0
C2019 C 0.33224 0.06456 0.53227 0.0
C2020 C 0.3295 0.07248 0.51713 0.0
C2021 C 0.34068 0.06978 0.50427 0.0
C2022 C 0.35435 0.05971 0.50657 0.0
H2023 H 0.39377 0.06055 0.55444 0.0
H2024 H 0.37684 0.06872 0.54277 0.0
H2025 H 0.37326 0.05415 0.55902 0.0
H2026 H 0.34734 0.04809 0.54614 0.0
H2027 H 0.32405 0.0664 0.54254 0.0
H2028 H 0.56365 0.51467 0.50823 0.0
H2029 H 0.58685 0.49617 0.50379 0.0
H2030 H 0.59805 0.49754 0.55557 0.0
H2031 H 0.57485 0.51594 0.56011 0.0
H2032 H 0.6196 0.50111 0.50989 0.0
H2033 H 0.59666 0.44862 0.54663 0.0
H2034 H 0.58371 0.46554 0.54066 0.0
H2035 H 0.59741 0.46749 0.5579 0.0
C2036 C 0.57108 0.51104 0.51866 0.0
C2037 C 0.56737 0.51669 0.53454 0.0
C2038 C 0.58428 0.50044 0.51612 0.0
C2039 C 0.594 0.49524 0.52939 0.0
C2040 C 0.59045 0.50103 0.54521 0.0
H2041 H 0.68239 0.43756 0.54033 0.0
H2042 H 0.65859 0.45545 0.54405 0.0
C2043 C 0.57722 0.51157 0.54778 0.0
C2044 C 0.60812 0.48416 0.52661 0.0
H2045 H 0.62448 0.44729 0.53795 0.0
C2046 C 0.62062 0.48929 0.51593 0.0
C2047 C 0.60942 0.46874 0.5345 0.0
C2048 C 0.59601 0.46217 0.54544 0.0
C2049 C 0.63455 0.47957 0.51321 0.0
C2050 C 0.63591 0.46426 0.52125 0.0
C2051 C 0.6234 0.45908 0.53186 0.0
C2052 C 0.65029 0.45347 0.51888 0.0
C2053 C 0.64788 0.4859 0.50205 0.0
C2054 C 0.65337 0.44632 0.50354 0.0
C2055 C 0.66694 0.4361 0.50137 0.0
C2056 C 0.67769 0.43287 0.51452 0.0
C2057 C 0.67447 0.43998 0.52991 0.0
C2058 C 0.66085 0.45012 0.53208 0.0
H2059 H 0.64661 0.49925 0.49962 0.0
H2060 H 0.66017 0.48358 0.50747 0.0
H2061 H 0.64721 0.47937 0.49012 0.0
H2062 H 0.64524 0.4486 0.49325 0.0
H2063 H 0.66915 0.43091 0.48934 0.0
H2064 H 0.72955 0.21915 0.33475 0.0
H2065 H 0.734 0.23771 0.35793 0.0
H2066 H 0.72133 0.27897 0.32732 0.0
H2067 H 0.71711 0.26056 0.30398 0.0
H2068 H 0.75609 0.26511 0.35989 0.0
H2069 H 0.69101 0.28352 0.36782 0.0
H2070 H 0.69696 0.26566 0.3562 0.0
H2071 H 0.69898 0.28574 0.34737 0.0
C2072 C 0.72784 0.23219 0.33289 0.0
C2073 C 0.72293 0.23836 0.3175 0.0
C2074 C 0.7303 0.24276 0.34618 0.0
C2075 C 0.72778 0.25967 0.34438 0.0
C2076 C 0.72303 0.26591 0.32903 0.0
H2077 H 0.73423 0.3426 0.41103 0.0
H2078 H 0.73054 0.32458 0.38727 0.0
C2079 C 0.7206 0.25537 0.31573 0.0
C2080 C 0.73037 0.27081 0.35851 0.0
H2081 H 0.71068 0.29747 0.38401 0.0
C2082 C 0.74618 0.27216 0.36522 0.0
C2083 C 0.71741 0.28002 0.36535 0.0
C2084 C 0.70009 0.27862 0.35894 0.0
C2085 C 0.74942 0.28268 0.37847 0.0
C2086 C 0.73643 0.29181 0.38542 0.0
C2087 C 0.72063 0.29048 0.37866 0.0
C2088 C 0.7389 0.30271 0.39979 0.0
C2089 C 0.76681 0.2842 0.38467 0.0
C2090 C 0.74464 0.29635 0.41476 0.0
C2091 C 0.74676 0.30661 0.42834 0.0
C2092 C 0.74301 0.32341 0.42727 0.0
C2093 C 0.7371 0.3297 0.41229 0.0
C2094 C 0.73505 0.31944 0.3987 0.0
H2095 H 0.77582 0.28016 0.3753 0.0
H2096 H 0.76968 0.29702 0.38822 0.0
H2097 H 0.76837 0.27629 0.39566 0.0
H2098 H 0.74729 0.2834 0.41601 0.0
H2099 H 0.75105 0.30133 0.43978 0.0
H2100 H 0.48823 0.06053 0.93136 0.0
H2101 H 0.50629 0.05617 0.90776 0.0
H2102 H 0.50835 0.00452 0.91888 0.0
H2103 H 0.49049 0.0088 0.94265 0.0
H2104 H 0.53968 0.02025 0.91235 0.0
H2105 H 0.4928 0.0326 0.86422 0.0
H2106 H 0.49463 0.0479 0.88001 0.0
H2107 H 0.48746 0.02774 0.88519 0.0
C2108 C 0.49262 0.04826 0.92884 0.0
C2109 C 0.48791 0.03499 0.93884 0.0
C2110 C 0.5028 0.04577 0.91528 0.0
C2111 C 0.50848 0.03 0.9115 0.0
C2112 C 0.504 0.01677 0.92156 0.0
H2113 H 0.55608 0.99529 0.82288 0.0
H2114 H 0.53806 0.99932 0.8465 0.0
C2115 C 0.49374 0.01922 0.93506 0.0
C2116 C 0.51925 0.02732 0.89714 0.0
H2117 H 0.52019 0.02915 0.85524 0.0
C2118 C 0.53544 0.02217 0.89986 0.0
C2119 C 0.51359 0.02969 0.88088 0.0
C2120 C 0.49614 0.03466 0.8773 0.0
C2121 C 0.54623 0.01958 0.8867 0.0
C2122 C 0.54068 0.0223 0.87046 0.0
C2123 C 0.52441 0.02719 0.86773 0.0
C2124 C 0.55156 0.02003 0.85613 0.0
C2125 C 0.56343 0.01377 0.89022 0.0
C2126 C 0.56498 0.03049 0.85363 0.0
C2127 C 0.5752 0.02836 0.84005 0.0
C2128 C 0.57221 0.01569 0.82869 0.0
C2129 C 0.55865 0.0053 0.83122 0.0
C2130 C 0.54839 0.00751 0.84477 0.0
H2131 H 0.56475 0.00907 0.90297 0.0
H2132 H 0.56703 0.00395 0.88151 0.0
H2133 H 0.57209 0.02416 0.88862 0.0
H2134 H 0.56746 0.04039 0.86214 0.0
H2135 H 0.58533 0.03678 0.83834 0.0
H2136 H 0.28907 0.24517 0.30486 0.0
H2137 H 0.28471 0.22701 0.32843 0.0
H2138 H 0.27625 0.269 0.35938 0.0
H2139 H 0.28058 0.28723 0.33591 0.0
H2140 H 0.30169 0.2256 0.35795 0.0
H2141 H 0.23621 0.24049 0.36858 0.0
H2142 H 0.24677 0.24606 0.34993 0.0
H2143 H 0.24943 0.2581 0.36824 0.0
C2144 C 0.28633 0.25053 0.3167 0.0
C2145 C 0.28507 0.26763 0.3185 0.0
C2146 C 0.28378 0.24014 0.33013 0.0
C2147 C 0.27988 0.24664 0.34559 0.0
C2148 C 0.27883 0.26371 0.34747 0.0
H2149 H 0.26399 0.20617 0.44269 0.0
H2150 H 0.26791 0.22382 0.4187 0.0
C2151 C 0.28133 0.2741 0.33405 0.0
C2152 C 0.27734 0.23558 0.35983 0.0
H2153 H 0.2495 0.22456 0.38912 0.0
C2154 C 0.29025 0.22529 0.36471 0.0
C2155 C 0.2624 0.23522 0.36863 0.0
C2156 C 0.24785 0.24544 0.36351 0.0
C2157 C 0.28874 0.21488 0.37837 0.0
C2158 C 0.27385 0.2146 0.38723 0.0
C2159 C 0.26092 0.22484 0.38232 0.0
C2160 C 0.27144 0.2038 0.40168 0.0
C2161 C 0.30323 0.20455 0.38346 0.0
C2162 C 0.27191 0.18669 0.4 0.0
C2163 C 0.26959 0.17656 0.41366 0.0
C2164 C 0.26665 0.18335 0.42926 0.0
C2165 C 0.26603 0.20052 0.43084 0.0
C2166 C 0.26835 0.21063 0.41716 0.0
H2167 H 0.31483 0.20905 0.37793 0.0
H2168 H 0.30462 0.20439 0.39703 0.0
H2169 H 0.30125 0.19175 0.37928 0.0
H2170 H 0.27394 0.18117 0.38808 0.0
H2171 H 0.26985 0.1634 0.41195 0.0
H2172 H 0.51669 0.44615 0.93385 0.0
H2173 H 0.49828 0.45064 0.91051 0.0
H2174 H 0.4999 0.50275 0.91911 0.0
H2175 H 0.51807 0.4984 0.94268 0.0
H2176 H 0.46686 0.46708 0.91062 0.0
H2177 H 0.51234 0.49745 0.86988 0.0
H2178 H 0.51828 0.48543 0.88756 0.0
H2179 H 0.51057 0.50586 0.8902 0.0
C2180 C 0.51303 0.45857 0.93088 0.0
C2181 C 0.51889 0.47192 0.94013 0.0
C2182 C 0.50259 0.46111 0.91749 0.0
C2183 C 0.49791 0.47703 0.91299 0.0
C2184 C 0.50362 0.49039 0.92222 0.0
H2185 H 0.43822 0.51667 0.83393 0.0
H2186 H 0.45568 0.51275 0.85805 0.0
C2187 C 0.51402 0.48787 0.93566 0.0
C2188 C 0.48683 0.47963 0.89879 0.0
H2189 H 0.48492 0.49654 0.86046 0.0
C2190 C 0.47079 0.47348 0.89962 0.0
C2191 C 0.49201 0.48805 0.88453 0.0
C2192 C 0.50928 0.49449 0.88284 0.0
C2193 C 0.45967 0.47571 0.88662 0.0
C2194 C 0.4649 0.48399 0.87226 0.0
C2195 C 0.48094 0.49019 0.87147 0.0
C2196 C 0.45395 0.48628 0.85785 0.0
C2197 C 0.44234 0.46951 0.88854 0.0
C2198 C 0.44729 0.47269 0.84964 0.0
C2199 C 0.43713 0.47489 0.83596 0.0
C2200 C 0.43358 0.49074 0.83009 0.0
C2201 C 0.44045 0.50431 0.83827 0.0
C2202 C 0.45054 0.50209 0.85198 0.0
H2203 H 0.43906 0.46782 0.90167 0.0
H2204 H 0.4334 0.47806 0.88284 0.0
H2205 H 0.44118 0.45744 0.88238 0.0
H2206 H 0.45003 0.46036 0.85373 0.0
H2207 H 0.43197 0.46417 0.83007 0.0
H2208 H 0.7485 0.7668 0.19317 0.0
H2209 H 0.75295 0.74887 0.16947 0.0
H2210 H 0.70111 0.74942 0.15902 0.0
H2211 H 0.69659 0.76759 0.18249 0.0
H2212 H 0.73831 0.71721 0.16359 0.0
H2213 H 0.72297 0.76253 0.11492 0.0
H2214 H 0.72786 0.76848 0.13573 0.0
H2215 H 0.70795 0.76036 0.1309 0.0
C2216 C 0.73808 0.76324 0.18572 0.0
C2217 C 0.7222 0.76867 0.18966 0.0
C2218 C 0.74063 0.75293 0.17226 0.0
C2219 C 0.72739 0.74799 0.16241 0.0
C2220 C 0.71152 0.75328 0.16635 0.0
H2221 H 0.71643 0.68807 0.07533 0.0
H2222 H 0.71247 0.70571 0.09922 0.0
C2223 C 0.70894 0.76354 0.17984 0.0
C2224 C 0.73013 0.73704 0.14818 0.0
H2225 H 0.72703 0.73509 0.10641 0.0
C2226 C 0.73592 0.72111 0.15107 0.0
C2227 C 0.72695 0.74219 0.1319 0.0
C2228 C 0.72121 0.75936 0.12808 0.0
C2229 C 0.73831 0.71003 0.1381 0.0
C2230 C 0.73516 0.71519 0.12179 0.0
C2231 C 0.72942 0.73116 0.11892 0.0
C2232 C 0.73764 0.70419 0.10751 0.0
C2233 C 0.74376 0.6928 0.14205 0.0
C2234 C 0.75315 0.69758 0.10413 0.0
C2235 C 0.75542 0.68732 0.09059 0.0
C2236 C 0.74225 0.68359 0.08002 0.0
C2237 C 0.72677 0.69042 0.08335 0.0
C2238 C 0.72451 0.70062 0.09693 0.0
H2239 H 0.74123 0.68953 0.15505 0.0
H2240 H 0.73754 0.68374 0.13398 0.0
H2241 H 0.75717 0.6918 0.14006 0.0
H2242 H 0.76354 0.70044 0.11193 0.0
H2243 H 0.76747 0.68219 0.08849 0.0
H2244 H 0.03777 0.02972 0.08493 0.0
H2245 H 0.0194 0.02556 0.10833 0.0
H2246 H 0.97759 0.03405 0.07697 0.0
H2247 H 0.99586 0.03796 0.05344 0.0
H2248 H 0.99541 0.04872 0.12057 0.0
H2249 H 0.96752 0.98979 0.10051 0.0
H2250 H 0.98656 0.99744 0.09216 0.0
H2251 H 0.96739 0.00605 0.08558 0.0
C2252 C 0.02466 0.03051 0.08297 0.0
C2253 C 0.01825 0.0341 0.06732 0.0
C2254 C 0.0142 0.02823 0.09636 0.0
C2255 C 0.99716 0.02933 0.09432 0.0
C2256 C 0.99071 0.03294 0.07874 0.0
H2257 H 0.91439 0.01749 0.16031 0.0
H2258 H 0.93231 0.02168 0.13658 0.0
C2259 C 1.00116 0.03531 0.06536 0.0
C2260 C 0.98616 0.02709 0.10859 0.0
H2261 H 0.9564 1.00215 0.12425 0.0
C2262 C 0.9869 0.03853 0.12143 0.0
C2263 C 0.97504 0.01383 0.10959 0.0
C2264 C 0.97409 1.00097 0.09631 0.0
C2265 C 0.97663 0.03718 0.13518 0.0
C2266 C 0.96561 0.0238 0.13628 0.0
C2267 C 0.96485 0.01239 0.12339 0.0
C2268 C 0.95481 0.02136 0.15073 0.0
C2269 C 0.97741 0.05033 0.14819 0.0
C2270 C 0.96151 0.01956 0.16652 0.0
C2271 C 0.9513 0.01723 0.18009 0.0
C2272 C 0.93419 0.01642 0.1781 0.0
C2273 C 0.92752 0.01795 0.16222 0.0
C2274 C 0.93774 0.0204 0.14867 0.0
H2275 H 0.98276 0.06188 0.14332 0.0
H2276 H 0.96505 0.05301 0.15319 0.0
H2277 H 0.98533 0.04606 0.15843 0.0
H2278 H 0.97466 0.0198 0.16835 0.0
H2279 H 0.95681 0.01579 0.19212 0.0
H2280 H 0.25873 0.74066 0.19294 0.0
H2281 H 0.25432 0.75874 0.16928 0.0
H2282 H 0.30602 0.7573 0.15846 0.0
H2283 H 0.31049 0.73898 0.18188 0.0
H2284 H 0.2694 0.79014 0.16304 0.0
H2285 H 0.28344 0.7443 0.11465 0.0
H2286 H 0.27872 0.73855 0.13554 0.0
H2287 H 0.2987 0.74632 0.13048 0.0
C2288 C 0.26913 0.74408 0.18543 0.0
C2289 C 0.28495 0.73835 0.18925 0.0
C2290 C 0.26661 0.75447 0.17199 0.0
C2291 C 0.27981 0.75918 0.16203 0.0
C2292 C 0.29563 0.75361 0.16588 0.0
H2293 H 0.29081 0.81841 0.0744 0.0
H2294 H 0.29477 0.80091 0.09846 0.0
C2295 C 0.29818 0.74329 0.17935 0.0
C2296 C 0.27709 0.77009 0.14774 0.0
H2297 H 0.27979 0.77177 0.10594 0.0
C2298 C 0.27159 0.78613 0.15054 0.0
C2299 C 0.28002 0.7648 0.13148 0.0
C2300 C 0.28542 0.74752 0.12776 0.0
C2301 C 0.26925 0.79718 0.13749 0.0
C2302 C 0.27214 0.79188 0.12121 0.0
C2303 C 0.27759 0.7758 0.11843 0.0
C2304 C 0.26969 0.80283 0.10685 0.0
C2305 C 0.26411 0.81452 0.14132 0.0
C2306 C 0.25424 0.80962 0.10348 0.0
C2307 C 0.25198 0.81979 0.08983 0.0
C2308 C 0.26509 0.82325 0.07916 0.0
C2309 C 0.28051 0.81626 0.08249 0.0
C2310 C 0.28277 0.80615 0.09618 0.0
H2311 H 0.26681 0.81782 0.15429 0.0
H2312 H 0.2704 0.82343 0.13315 0.0
H2313 H 0.2507 0.81573 0.13938 0.0
H2314 H 0.24389 0.80697 0.11135 0.0
H2315 H 0.23998 0.82506 0.08772 0.0
H2316 H 0.99044 0.44556 0.07458 0.0
H2317 H 0.00901 0.44983 0.09784 0.0
H2318 H 0.00878 0.50187 0.08856 0.0
H2319 H 0.99043 0.49772 0.06512 0.0
H2320 H 0.04075 0.46521 0.09774 0.0
H2321 H 0.99624 0.4977 0.13771 0.0
H2322 H 0.98995 0.48574 0.12014 0.0
H2323 H 0.99838 0.5059 0.11733 0.0
C2324 C 0.99443 0.45791 0.0774 0.0
C2325 C 0.98889 0.47131 0.06801 0.0
C2326 C 0.00498 0.46032 0.09074 0.0
C2327 C 0.01008 0.47618 0.09503 0.0
C2328 C 0.00472 0.48957 0.08563 0.0
H2329 H 0.07122 0.51583 0.17284 0.0
H2330 H 0.05363 0.51178 0.14883 0.0
C2331 C 0.99421 0.48717 0.07226 0.0
C2332 C 0.02121 0.47867 0.10921 0.0
H2333 H 0.02367 0.49639 0.1471 0.0
C2334 C 0.03703 0.47198 0.10857 0.0
C2335 C 0.0163 0.48755 0.12327 0.0
C2336 C 0.99925 0.49454 0.1248 0.0
C2337 C 0.0482 0.47415 0.12154 0.0
C2338 C 0.04326 0.48295 0.13566 0.0
C2339 C 0.02743 0.48966 0.13627 0.0
C2340 C 0.05429 0.48529 0.14998 0.0
C2341 C 0.0653 0.46733 0.11983 0.0
C2342 C 0.0604 0.47174 0.15868 0.0
C2343 C 0.0706 0.474 0.17231 0.0
C2344 C 0.07478 0.48989 0.17762 0.0
C2345 C 0.0685 0.50343 0.16894 0.0
C2346 C 0.05833 0.50115 0.15529 0.0
H2347 H 0.0685 0.46508 0.10676 0.0
H2348 H 0.07454 0.47578 0.12521 0.0
H2349 H 0.06606 0.45545 0.12644 0.0
H2350 H 0.05717 0.45939 0.15501 0.0
H2351 H 0.07531 0.4633 0.17861 0.0
H2352 H 0.32485 0.69577 0.23973 0.0
H2353 H 0.34804 0.70008 0.25837 0.0
H2354 H 0.33843 0.75205 0.25846 0.0
H2355 H 0.31494 0.74781 0.24019 0.0
H2356 H 0.37605 0.71972 0.25315 0.0
H2357 H 0.34081 0.7405 0.30757 0.0
H2358 H 0.33129 0.73022 0.29038 0.0
H2359 H 0.33654 0.75157 0.28896 0.0
C2360 C 0.32754 0.7081 0.24388 0.0
C2361 C 0.318 0.72144 0.23854 0.0
C2362 C 0.34085 0.71055 0.25444 0.0
C2363 C 0.34481 0.72635 0.25996 0.0
C2364 C 0.33541 0.73972 0.25456 0.0
H2365 H 0.42081 0.76608 0.32333 0.0
H2366 H 0.3975 0.76201 0.3048 0.0
C2367 C 0.32211 0.73729 0.24398 0.0
C2368 C 0.35901 0.72888 0.27107 0.0
H2369 H 0.36975 0.74262 0.30921 0.0
C2370 C 0.37469 0.72466 0.26543 0.0
C2371 C 0.35717 0.73538 0.28705 0.0
C2372 C 0.34054 0.73956 0.29396 0.0
C2373 C 0.38865 0.72701 0.27528 0.0
C2374 C 0.38681 0.73345 0.2913 0.0
C2375 C 0.37112 0.73769 0.29692 0.0
C2376 C 0.40101 0.73584 0.30245 0.0
C2377 C 0.40527 0.72291 0.2683 0.0
C2378 C 0.41058 0.72244 0.30744 0.0
C2379 C 0.42398 0.72473 0.31791 0.0
C2380 C 0.42801 0.74048 0.32373 0.0
C2381 C 0.41822 0.75384 0.31888 0.0
C2382 C 0.40483 0.75153 0.30839 0.0
H2383 H 0.40501 0.72235 0.25467 0.0
H2384 H 0.41459 0.73208 0.27214 0.0
H2385 H 0.40916 0.71072 0.27294 0.0
H2386 H 0.40766 0.71018 0.30325 0.0
H2387 H 0.43132 0.71419 0.32128 0.0
H2388 H 0.97574 0.42113 0.03804 0.0
H2389 H 0.97977 0.39783 0.0195 0.0
H2390 H 0.97218 0.42948 0.97773 0.0
H2391 H 0.96825 0.45288 0.99617 0.0
H2392 H 0.95588 0.38685 0.99357 0.0
H2393 H 0.01728 0.40488 0.96987 0.0
H2394 H 0.00932 0.41243 0.98912 0.0
H2395 H 1.00164 0.42043 0.97007 0.0
C2396 C 0.97507 0.42315 0.0249 0.0
C2397 C 0.97173 0.43884 0.01854 0.0
C2398 C 0.97729 0.40983 0.01435 0.0
C2399 C 0.9764 0.412 0.99729 0.0
C2400 C 0.97305 0.42762 0.99088 0.0
H2401 H 0.99167 0.34655 0.91454 0.0
H2402 H 0.98722 0.37026 0.93241 0.0
C2403 C 0.9707 0.44092 1.00142 0.0
C2404 C 0.97868 0.39785 0.98619 0.0
H2405 H 0.00498 0.38145 0.95814 0.0
C2406 C 0.96661 0.38561 0.98582 0.0
C2407 C 0.99264 0.39641 0.97607 0.0
C2408 C 0.00606 0.40915 0.97628 0.0
C2409 C 0.96803 0.37198 0.97541 0.0
C2410 C 0.98215 0.37036 0.96545 0.0
C2411 C 0.99419 0.38269 0.96579 0.0
C2412 C 0.98474 0.35593 0.95466 0.0
C2413 C 0.95421 0.35967 0.97491 0.0
C2414 C 0.98505 0.34003 0.96126 0.0
C2415 C 0.98749 0.32647 0.95107 0.0
C2416 C 0.98993 0.32859 0.93411 0.0
C2417 C 0.98992 0.34455 0.92757 0.0
C2418 C 0.98733 0.35809 0.93776 0.0
H2419 H 0.94252 0.3651 0.97927 0.0
H2420 H 0.95232 0.35486 0.96229 0.0
H2421 H 0.95723 0.34922 0.98311 0.0
H2422 H 0.98355 0.33809 0.97434 0.0
H2423 H 0.98773 0.31435 0.95651 0.0
H2424 H 0.70328 0.78841 0.26187 0.0
H2425 H 0.67997 0.78372 0.28018 0.0
H2426 H 0.64885 0.77456 0.23829 0.0
H2427 H 0.67206 0.77927 0.2199 0.0
H2428 H 0.65024 0.8004 0.28142 0.0
H2429 H 0.64038 0.73457 0.26732 0.0
H2430 H 0.65887 0.74535 0.26166 0.0
H2431 H 0.64055 0.74761 0.24954 0.0
C2432 C 0.69146 0.78545 0.25655 0.0
C2433 C 0.68953 0.78415 0.23943 0.0
C2434 C 0.67818 0.7827 0.26703 0.0
C2435 C 0.66275 0.77854 0.26061 0.0
C2436 C 0.66074 0.77737 0.24353 0.0
H2437 H 0.56622 0.76167 0.30141 0.0
H2438 H 0.59008 0.76559 0.28369 0.0
C2439 C 0.67401 0.78008 0.23304 0.0
C2440 C 0.64864 0.77589 0.27176 0.0
H2441 H 0.61982 0.74772 0.2832 0.0
C2442 C 0.64364 0.78885 0.2819 0.0
C2443 C 0.64005 0.76082 0.27232 0.0
C2444 C 0.6453 0.74623 0.26225 0.0
C2445 C 0.63007 0.78727 0.29235 0.0
C2446 C 0.62143 0.77223 0.29285 0.0
C2447 C 0.62646 0.75924 0.28276 0.0
C2448 C 0.60707 0.76974 0.30369 0.0
C2449 C 0.62483 0.80182 0.30249 0.0
C2450 C 0.60878 0.77055 0.32083 0.0
C2451 C 0.59519 0.76823 0.331 0.0
C2452 C 0.57963 0.76496 0.32423 0.0
C2453 C 0.57804 0.76398 0.30704 0.0
C2454 C 0.59164 0.7663 0.29689 0.0
H2455 H 0.63017 0.81345 0.29779 0.0
H2456 H 0.61127 0.80298 0.30263 0.0
H2457 H 0.62908 0.80011 0.31533 0.0
H2458 H 0.62066 0.77285 0.32633 0.0
H2459 H 0.59691 0.76877 0.34418 0.0
H2460 H 0.00841 0.06273 0.01535 0.0
H2461 H 0.00391 0.08591 0.99673 0.0
H2462 H 0.05549 0.09746 0.99859 0.0
H2463 H 0.06008 0.0743 0.01713 0.0
H2464 H 0.00976 0.11873 1.00171 0.0
H2465 H 0.04682 0.09603 0.94946 0.0
H2466 H 0.04084 0.08303 0.96637 0.0
H2467 H 0.05796 0.0968 0.96848 0.0
C2468 C 0.01878 0.07023 0.0118 0.0
C2469 C 0.03462 0.06663 0.01763 0.0
C2470 C 0.0162 0.08342 1.00112 0.0
C2471 C 0.0294 0.09323 0.99604 0.0
C2472 C 0.04519 0.08979 1.002 0.0
H2473 H 0.0401 0.18174 0.93826 0.0
H2474 H 0.04385 0.15788 0.95617 0.0
C2475 C 0.04779 0.07657 0.01262 0.0
C2476 C 0.02659 0.10735 0.98488 0.0
H2477 H 0.03796 0.1238 0.94801 0.0
C2478 C 0.01583 0.11978 0.98992 0.0
C2479 C 0.03452 0.1087 0.96949 0.0
C2480 C 0.04556 0.09536 0.96303 0.0
C2481 C 0.01307 0.13371 0.98014 0.0
C2482 C 0.02115 0.13513 0.96486 0.0
C2483 C 0.03183 0.12267 0.95977 0.0
C2484 C 0.01876 0.14952 0.95402 0.0
C2485 C 1.00183 0.14698 0.98638 0.0
C2486 C 0.00346 0.15259 0.94676 0.0
C2487 C 1.00127 0.1662 0.93654 0.0
C2488 C 0.01436 0.177 0.93341 0.0
C2489 C 0.02972 0.17378 0.94061 0.0
C2490 C 0.03191 0.16012 0.95076 0.0
H2491 H 0.99937 0.14569 0.99974 0.0
H2492 H 0.00717 0.1593 0.98407 0.0
H2493 H 0.98995 0.14625 0.97976 0.0
H2494 H 0.99321 0.14442 0.94897 0.0
H2495 H 0.98927 0.1684 0.93127 0.0
H2496 H 0.32458 0.30915 0.26713 0.0
H2497 H 0.34765 0.30446 0.24856 0.0
H2498 H 0.33749 0.25258 0.24899 0.0
H2499 H 0.31413 0.25719 0.26724 0.0
H2500 H 0.37544 0.28447 0.2543 0.0
H2501 H 0.34007 0.26379 0.19969 0.0
H2502 H 0.33066 0.27439 0.21668 0.0
H2503 H 0.33561 0.253 0.21842 0.0
C2504 C 0.32712 0.29676 0.2631 0.0
C2505 C 0.31746 0.28355 0.26859 0.0
C2506 C 0.34036 0.2941 0.25258 0.0
C2507 C 0.34414 0.27821 0.24725 0.0
C2508 C 0.33461 0.26497 0.25276 0.0
H2509 H 0.41994 0.23858 0.18378 0.0
H2510 H 0.39665 0.24242 0.20226 0.0
C2511 C 0.32138 0.26761 0.26331 0.0
C2512 C 0.35833 0.27547 0.23626 0.0
H2513 H 0.36898 0.26178 0.19814 0.0
C2514 C 0.37404 0.27956 0.242 0.0
C2515 C 0.35645 0.269 0.22026 0.0
C2516 C 0.33979 0.2649 0.21329 0.0
C2517 C 0.38799 0.27716 0.23222 0.0
C2518 C 0.3861 0.27082 0.21616 0.0
C2519 C 0.37039 0.26665 0.21046 0.0
C2520 C 0.40028 0.26855 0.20502 0.0
C2521 C 0.40463 0.28113 0.23932 0.0
C2522 C 0.40991 0.282 0.20027 0.0
C2523 C 0.42331 0.27984 0.18984 0.0
C2524 C 0.42727 0.26417 0.18381 0.0
C2525 C 0.41741 0.25076 0.1884 0.0
C2526 C 0.40403 0.25295 0.19887 0.0
H2527 H 0.40438 0.28147 0.25296 0.0
H2528 H 0.41392 0.27201 0.23538 0.0
H2529 H 0.40856 0.29339 0.23489 0.0
H2530 H 0.40704 0.29421 0.20462 0.0
H2531 H 0.43069 0.29041 0.18668 0.0
H2532 H 0.53983 0.45249 0.01217 0.0
H2533 H 0.5359 0.42885 0.03033 0.0
H2534 H 0.52555 0.39835 0.98834 0.0
H2535 H 0.5299 0.42178 0.97008 0.0
H2536 H 0.50777 0.40886 0.03382 0.0
H2537 H 0.56158 0.37294 0.01287 0.0
H2538 H 0.5592 0.3945 0.00842 0.0
H2539 H 0.54809 0.37948 0.99669 0.0
C2540 C 0.5369 0.44071 0.00679 0.0
C2541 C 0.53527 0.43899 0.98967 0.0
C2542 C 0.53456 0.42725 0.01718 0.0
C2543 C 0.53067 0.41181 0.01065 0.0
C2544 C 0.52882 0.41009 0.99361 0.0
H2545 H 0.51118 0.31557 0.05139 0.0
H2546 H 0.51526 0.33946 0.03366 0.0
C2547 C 0.53114 0.42354 0.98321 0.0
C2548 C 0.52827 0.39756 0.0217 0.0
H2549 H 0.54298 0.35941 0.03069 0.0
C2550 C 0.51551 0.39807 0.03321 0.0
C2551 C 0.53838 0.38351 0.02083 0.0
C2552 C 0.55268 0.38256 0.00915 0.0
C2553 C 0.51237 0.38475 0.04369 0.0
C2554 C 0.52246 0.37068 0.0428 0.0
C2555 C 0.53525 0.3702 0.03131 0.0
C2556 C 0.51994 0.35629 0.05365 0.0
C2557 C 0.49803 0.38568 0.05533 0.0
C2558 C 0.52143 0.35779 0.07076 0.0
C2559 C 0.51916 0.34416 0.08092 0.0
C2560 C 0.51548 0.32871 0.07416 0.0
C2561 C 0.51417 0.32724 0.05699 0.0
C2562 C 0.51642 0.34089 0.04684 0.0
H2563 H 0.48914 0.3953 0.05159 0.0
H2564 H 0.49152 0.37375 0.05604 0.0
H2565 H 0.50259 0.38877 0.06781 0.0
H2566 H 0.52451 0.36949 0.07624 0.0
H2567 H 0.52054 0.34566 0.09407 0.0
H2568 H 0.68377 0.19578 0.26593 0.0
H2569 H 0.66052 0.2001 0.24741 0.0
H2570 H 0.66839 0.25234 0.24959 0.0
H2571 H 0.69206 0.24811 0.26756 0.0
H2572 H 0.6321 0.21726 0.25293 0.0
H2573 H 0.66599 0.24425 0.20041 0.0
H2574 H 0.67619 0.23388 0.21714 0.0
H2575 H 0.66938 0.2547 0.21951 0.0
C2576 C 0.68073 0.20818 0.26227 0.0
C2577 C 0.68986 0.2216 0.26815 0.0
C2578 C 0.66736 0.21063 0.25178 0.0
C2579 C 0.66288 0.22652 0.24691 0.0
C2580 C 0.67183 0.23995 0.25291 0.0
H2581 H 0.5832 0.2663 0.18823 0.0
H2582 H 0.60684 0.26227 0.2064 0.0
C2583 C 0.68524 0.23752 0.26335 0.0
C2584 C 0.64855 0.22903 0.23594 0.0
H2585 H 0.63691 0.24525 0.19901 0.0
C2586 C 0.63316 0.2233 0.24111 0.0
C2587 C 0.64997 0.23693 0.22052 0.0
C2588 C 0.66629 0.24266 0.21397 0.0
C2589 C 0.6191 0.22549 0.23138 0.0
C2590 C 0.62052 0.23344 0.21601 0.0
C2591 C 0.63588 0.2392 0.21084 0.0
C2592 C 0.6062 0.2358 0.20505 0.0
C2593 C 0.60278 0.21955 0.23774 0.0
C2594 C 0.59814 0.22224 0.19815 0.0
C2595 C 0.58464 0.22449 0.18779 0.0
C2596 C 0.57895 0.24036 0.18413 0.0
C2597 C 0.58715 0.25392 0.19098 0.0
C2598 C 0.6007 0.25165 0.20128 0.0
H2599 H 0.60313 0.21718 0.25118 0.0
H2600 H 0.59298 0.22863 0.23512 0.0
H2601 H 0.59948 0.20792 0.23148 0.0
H2602 H 0.60234 0.20991 0.20074 0.0
H2603 H 0.57852 0.2138 0.18282 0.0
H2604 H 0.49807 0.06499 0.98947 0.0
H2605 H 0.50238 0.08824 0.00799 0.0
H2606 H 0.45029 0.097 0.00907 0.0
H2607 H 0.44586 0.07393 0.99042 0.0
H2608 H 0.49326 0.12148 0.00317 0.0
H2609 H 0.46307 0.09452 0.05801 0.0
H2610 H 0.46926 0.08232 0.0406 0.0
H2611 H 0.45081 0.0943 0.03965 0.0
C2612 C 0.48754 0.07192 0.99357 0.0
C2613 C 0.47161 0.06755 0.98851 0.0
C2614 C 0.49002 0.08514 0.00421 0.0
C2615 C 0.47664 0.09417 0.01008 0.0
C2616 C 0.46075 0.08996 0.00496 0.0
H2617 H 0.4645 0.1783 0.07371 0.0
H2618 H 0.46083 0.15492 0.05528 0.0
C2619 C 0.45825 0.07677 0.99431 0.0
C2620 C 0.47931 0.10824 0.02128 0.0
H2621 H 0.47048 0.1226 0.05962 0.0
C2622 C 0.48837 0.12171 0.01555 0.0
C2623 C 0.47287 0.10849 0.03739 0.0
C2624 C 0.46358 0.09409 0.04438 0.0
C2625 C 0.49086 0.13562 0.0254 0.0
C2626 C 0.4844 0.13588 0.04152 0.0
C2627 C 0.4754 0.12237 0.04726 0.0
C2628 C 0.48676 0.15011 0.0526 0.0
C2629 C 0.50003 0.15006 0.01831 0.0
C2630 C 0.50255 0.15504 0.05737 0.0
C2631 C 0.5047 0.16849 0.06778 0.0
C2632 C 0.49108 0.17721 0.07375 0.0
C2633 C 0.47526 0.17205 0.06913 0.0
C2634 C 0.47313 0.15862 0.05869 0.0
H2635 H 0.50032 0.14966 0.00467 0.0
H2636 H 0.49439 0.16181 0.02218 0.0
H2637 H 0.51287 0.14984 0.02281 0.0
H2638 H 0.51323 0.14846 0.05307 0.0
H2639 H 0.51706 0.17219 0.07098 0.0
H2640 H 0.24015 0.31491 0.74916 0.0
H2641 H 0.2582 0.33856 0.75338 0.0
H2642 H 0.25705 0.34878 0.70142 0.0
H2643 H 0.23872 0.32537 0.69713 0.0
H2644 H 0.2896 0.34434 0.73869 0.0
H2645 H 0.24448 0.39291 0.72301 0.0
H2646 H 0.23845 0.37217 0.72793 0.0
H2647 H 0.24655 0.37694 0.70798 0.0
C2648 C 0.2436 0.3223 0.73866 0.0
C2649 C 0.23795 0.31831 0.72281 0.0
C2650 C 0.25398 0.33573 0.74108 0.0
C2651 C 0.25878 0.34551 0.72775 0.0
C2652 C 0.25328 0.34152 0.71191 0.0
H2653 H 0.31928 0.43213 0.71623 0.0
H2654 H 0.30153 0.40828 0.71234 0.0
C2655 C 0.24295 0.32805 0.70946 0.0
C2656 C 0.26982 0.35971 0.73036 0.0
H2657 H 0.272 0.40137 0.72692 0.0
C2658 C 0.28576 0.35683 0.7362 0.0
C2659 C 0.26475 0.37595 0.72704 0.0
C2660 C 0.24759 0.37977 0.72127 0.0
C2661 C 0.29691 0.36976 0.73851 0.0
C2662 C 0.29183 0.38603 0.73522 0.0
C2663 C 0.27587 0.38889 0.72942 0.0
C2664 C 0.3029 0.40027 0.73765 0.0
C2665 C 0.31413 0.36583 0.74403 0.0
C2666 C 0.30946 0.40377 0.7532 0.0
C2667 C 0.31977 0.4173 0.75544 0.0
C2668 C 0.3236 0.4277 0.74218 0.0
C2669 C 0.31684 0.42423 0.72665 0.0
C2670 C 0.30658 0.41068 0.72442 0.0
H2671 H 0.31732 0.35281 0.74163 0.0
H2672 H 0.32322 0.37379 0.73775 0.0
H2673 H 0.31516 0.36795 0.75745 0.0
H2674 H 0.30653 0.3961 0.76366 0.0
H2675 H 0.32485 0.41951 0.76754 0.0
H2676 H 0.2194 0.67111 0.77881 0.0
H2677 H 0.23784 0.64793 0.77446 0.0
H2678 H 0.27935 0.67859 0.78615 0.0
H2679 H 0.26105 0.70202 0.78992 0.0
H2680 H 0.28445 0.65941 0.7587 0.0
H2681 H 0.26097 0.62185 0.81043 0.0
H2682 H 0.24538 0.62816 0.79617 0.0
H2683 H 0.25612 0.64331 0.80811 0.0
C2684 C 0.23247 0.67298 0.78031 0.0
C2685 C 0.23874 0.68843 0.78478 0.0
C2686 C 0.24297 0.65966 0.77802 0.0
C2687 C 0.25994 0.66147 0.78027 0.0
C2688 C 0.26628 0.6769 0.78448 0.0
H2689 H 0.33052 0.58271 0.79156 0.0
H2690 H 0.31286 0.6066 0.79519 0.0
C2691 C 0.25579 0.69025 0.78675 0.0
C2692 C 0.27111 0.64732 0.77804 0.0
H2693 H 0.27946 0.60878 0.79215 0.0
C2694 C 0.2834 0.64835 0.76604 0.0
C2695 C 0.26985 0.633 0.78778 0.0
C2696 C 0.25748 0.63151 0.80146 0.0
C2697 C 0.29432 0.63534 0.76334 0.0
C2698 C 0.2927 0.6208 0.7727 0.0
C2699 C 0.28057 0.61987 0.78487 0.0
C2700 C 0.30362 0.60649 0.77026 0.0
C2701 C 0.30767 0.6374 0.7507 0.0
C2702 C 0.30419 0.5984 0.75507 0.0
C2703 C 0.31441 0.58483 0.7529 0.0
C2704 C 0.32417 0.57899 0.76592 0.0
C2705 C 0.32341 0.58704 0.78118 0.0
C2706 C 0.31322 0.60062 0.78332 0.0
H2707 H 0.30999 0.65053 0.74789 0.0
H2708 H 0.3193 0.63173 0.75494 0.0
H2709 H 0.30387 0.63128 0.73913 0.0
H2710 H 0.29665 0.60251 0.74491 0.0
H2711 H 0.31477 0.57901 0.74095 0.0
H2712 H 0.94229 0.51706 0.49839 0.0
H2713 H 0.91892 0.4987 0.50267 0.0
H2714 H 0.91032 0.49723 0.45043 0.0
H2715 H 0.93347 0.51579 0.44602 0.0
H2716 H 0.88552 0.50385 0.49275 0.0
H2717 H 0.9126 0.44835 0.46414 0.0
H2718 H 0.92485 0.46569 0.4705 0.0
H2719 H 0.91329 0.46656 0.45171 0.0
C2720 C 0.93537 0.51292 0.48781 0.0
C2721 C 0.9398 0.51786 0.47185 0.0
C2722 C 0.92208 0.50236 0.49028 0.0
C2723 C 0.91306 0.49644 0.47685 0.0
C2724 C 0.91735 0.5014 0.46093 0.0
H2725 H 0.82912 0.43244 0.46462 0.0
H2726 H 0.8526 0.45072 0.46094 0.0
C2727 C 0.9306 0.51199 0.45844 0.0
C2728 C 0.89889 0.48539 0.47952 0.0
H2729 H 0.8845 0.44693 0.47135 0.0
C2730 C 0.8853 0.49137 0.48816 0.0
C2731 C 0.89866 0.46916 0.47344 0.0
C2732 C 0.91317 0.46195 0.46454 0.0
C2733 C 0.8713 0.48164 0.49061 0.0
C2734 C 0.87107 0.46538 0.48456 0.0
C2735 C 0.88471 0.45939 0.47596 0.0
C2736 C 0.85676 0.45439 0.48693 0.0
C2737 C 0.85674 0.48902 0.49927 0.0
C2738 C 0.85142 0.45024 0.50277 0.0
C2739 C 0.83789 0.43993 0.50492 0.0
C2740 C 0.82951 0.43344 0.49127 0.0
C2741 C 0.83509 0.43743 0.47541 0.0
C2742 C 0.84859 0.44778 0.47327 0.0
H2743 H 0.85715 0.50264 0.49908 0.0
H2744 H 0.84506 0.48493 0.49355 0.0
H2745 H 0.85677 0.48501 0.5123 0.0
H2746 H 0.85775 0.45493 0.51349 0.0
H2747 H 0.83388 0.43723 0.5173 0.0
H2748 H 0.78632 0.83355 0.77529 0.0
H2749 H 0.76768 0.85646 0.77088 0.0
H2750 H 0.72771 0.82779 0.79034 0.0
H2751 H 0.74599 0.80436 0.79361 0.0
H2752 H 0.71779 0.84415 0.76455 0.0
H2753 H 0.75127 0.88711 0.80511 0.0
H2754 H 0.76402 0.87961 0.78888 0.0
H2755 H 0.75621 0.8656 0.80411 0.0
C2756 C 0.77352 0.83197 0.77841 0.0
C2757 C 0.76774 0.81705 0.78491 0.0
C2758 C 0.76292 0.84523 0.77615 0.0
C2759 C 0.74637 0.84403 0.78069 0.0
C2760 C 0.74047 0.82909 0.78691 0.0
H2761 H 0.68395 0.92935 0.79327 0.0
H2762 H 0.70089 0.9051 0.79718 0.0
C2763 C 0.75101 0.81574 0.78894 0.0
C2764 C 0.73512 0.85823 0.77872 0.0
H2765 H 0.73057 0.89878 0.788 0.0
C2766 C 0.72054 0.85607 0.76977 0.0
C2767 C 0.73853 0.87373 0.78578 0.0
C2768 C 0.75327 0.87662 0.79665 0.0
C2769 C 0.7094 0.86899 0.76749 0.0
C2770 C 0.71323 0.88471 0.77382 0.0
C2771 C 0.7277 0.8868 0.78296 0.0
C2772 C 0.70235 0.89912 0.77132 0.0
C2773 C 0.69348 0.86549 0.75868 0.0
C2774 C 0.69754 0.90396 0.75548 0.0
C2775 C 0.68741 0.9176 0.75322 0.0
C2776 C 0.6822 0.92701 0.76674 0.0
C2777 C 0.68734 0.92228 0.78257 0.0
C2778 C 0.69722 0.90847 0.78483 0.0
H2779 H 0.69012 0.85231 0.75951 0.0
H2780 H 0.68326 0.87287 0.76378 0.0
H2781 H 0.69486 0.86857 0.74547 0.0
H2782 H 0.70169 0.89726 0.74481 0.0
H2783 H 0.68362 0.92067 0.74085 0.0
H2784 H 0.58534 0.46917 0.97956 0.0
H2785 H 0.60852 0.48763 0.98429 0.0
H2786 H 0.57811 0.5291 0.97201 0.0
H2787 H 0.5547 0.51079 0.96783 0.0
H2788 H 0.6232 0.50901 0.9623 0.0
H2789 H 0.59825 0.54289 0.01577 0.0
H2790 H 0.58943 0.52391 0.00854 0.0
H2791 H 0.58504 0.54284 0.9981 0.0
C2792 C 0.5835 0.48224 0.97811 0.0
C2793 C 0.56812 0.48851 0.97342 0.0
C2794 C 0.5968 0.49276 0.98071 0.0
C2795 C 0.59498 0.50975 0.97874 0.0
C2796 C 0.57971 0.51605 0.97391 0.0
H2797 H 0.66184 0.59249 0.98524 0.0
H2798 H 0.63821 0.57443 0.98113 0.0
C2799 C 0.56639 0.50555 0.97133 0.0
C2800 C 0.6092 0.52081 0.9813 0.0
H2801 H 0.62284 0.5532 0.00411 0.0
C2802 C 0.62316 0.51863 0.97149 0.0
C2803 C 0.60909 0.53336 0.99327 0.0
C2804 C 0.59472 0.53584 0.00464 0.0
C2805 C 0.63694 0.52882 0.97317 0.0
C2806 C 0.63683 0.54136 0.98515 0.0
C2807 C 0.62286 0.54358 0.99493 0.0
C2808 C 0.65114 0.55226 0.98779 0.0
C2809 C 0.65137 0.52629 0.9619 0.0
C2810 C 0.66617 0.54579 0.99313 0.0
C2811 C 0.67967 0.55608 0.99557 0.0
C2812 C 0.67838 0.57306 0.9928 0.0
C2813 C 0.66322 0.57951 0.98764 0.0
C2814 C 0.64972 0.5692 0.98521 0.0
H2815 H 0.64797 0.51902 0.95087 0.0
H2816 H 0.65654 0.53822 0.95784 0.0
H2817 H 0.66111 0.51952 0.96861 0.0
H2818 H 0.66742 0.53279 0.99553 0.0
H2819 H 0.69105 0.55075 0.99986 0.0
H2820 H 0.28776 0.6714 0.22676 0.0
H2821 H 0.26929 0.64811 0.23095 0.0
H2822 H 0.22763 0.67952 0.22238 0.0
H2823 H 0.24604 0.70285 0.2181 0.0
H2824 H 0.2449 0.64382 0.25387 0.0
H2825 H 0.21893 0.64191 0.19082 0.0
H2826 H 0.23698 0.65368 0.19591 0.0
H2827 H 0.21694 0.66146 0.20071 0.0
C2828 C 0.27466 0.67336 0.22583 0.0
C2829 C 0.26835 0.68895 0.22202 0.0
C2830 C 0.26413 0.66003 0.22817 0.0
C2831 C 0.2471 0.66202 0.22671 0.0
C2832 C 0.24075 0.67762 0.22316 0.0
H2833 H 0.1642 0.59623 0.23978 0.0
H2834 H 0.18208 0.62001 0.23583 0.0
C2835 C 0.25127 0.69094 0.22074 0.0
C2836 C 0.23601 0.64782 0.22926 0.0
H2837 H 0.20643 0.62463 0.21067 0.0
C2838 C 0.23654 0.63958 0.2444 0.0
C2839 C 0.2251 0.64232 0.21689 0.0
C2840 C 0.22451 0.65019 0.20011 0.0
C2841 C 0.22629 0.62611 0.24759 0.0
C2842 C 0.21538 0.62064 0.23523 0.0
C2843 C 0.21479 0.62891 0.22012 0.0
C2844 C 0.20462 0.60621 0.23767 0.0
C2845 C 0.22702 0.61798 0.26423 0.0
C2846 C 0.2114 0.59055 0.2398 0.0
C2847 C 0.20124 0.57691 0.24192 0.0
C2848 C 0.18407 0.57866 0.24191 0.0
C2849 C 0.17734 0.59439 0.23967 0.0
C2850 C 0.18753 0.60802 0.2375 0.0
H2851 H 0.23312 0.62591 0.27351 0.0
H2852 H 0.21453 0.61487 0.26865 0.0
H2853 H 0.23412 0.60643 0.26327 0.0
H2854 H 0.22457 0.58886 0.23964 0.0
H2855 H 0.20684 0.56496 0.24328 0.0
H2856 H 0.93331 0.49059 0.06099 0.0
H2857 H 0.91018 0.50915 0.05656 0.0
H2858 H 0.91868 0.50778 0.00435 0.0
H2859 H 0.94206 0.48949 0.00864 0.0
H2860 H 0.91052 0.54079 0.03983 0.0
H2861 H 0.8694 0.49514 0.01008 0.0
H2862 H 0.88701 0.48925 0.0222 0.0
H2863 H 0.8897 0.4968 1.00166 0.0
C2864 C 0.93039 0.49435 0.04857 0.0
C2865 C 0.93955 0.48852 0.03517 0.0
C2866 C 0.91711 0.50488 0.04607 0.0
C2867 C 0.91263 0.50966 0.03013 0.0
C2868 C 0.92178 0.50399 0.01673 0.0
H2869 H 0.83328 0.56887 0.99079 0.0
H2870 H 0.85738 0.55149 0.99459 0.0
C2871 C 0.93511 0.49352 0.01921 0.0
C2872 C 0.89849 0.52074 0.02756 0.0
H2873 H 0.86004 0.52252 0.01105 0.0
C2874 C 0.89945 0.53682 0.03358 0.0
C2875 C 0.88415 0.5155 0.01933 0.0
C2876 C 0.88235 0.4982 0.01303 0.0
C2877 C 0.88648 0.54792 0.03138 0.0
C2878 C 0.87202 0.54263 0.0233 0.0
C2879 C 0.87112 0.52654 0.01724 0.0
C2880 C 0.85764 0.55355 0.02108 0.0
C2881 C 0.88854 0.56529 0.0374 0.0
C2882 C 0.84969 0.56037 0.03472 0.0
C2883 C 0.83602 0.57048 0.03259 0.0
C2884 C 0.8299 0.57383 0.01676 0.0
C2885 C 0.83782 0.56681 0.00313 0.0
C2886 C 0.85153 0.55676 0.00528 0.0
H2887 H 0.90169 0.5686 0.03885 0.0
H2888 H 0.88273 0.57417 0.02885 0.0
H2889 H 0.88261 0.56652 0.04958 0.0
H2890 H 0.85397 0.55778 0.04705 0.0
H2891 H 0.83034 0.57577 0.04335 0.0
H2892 H 0.07423 0.01578 0.06065 0.0
H2893 H 0.09751 0.99741 0.0563 0.0
H2894 H 0.08863 0.99844 0.0041 0.0
H2895 H 0.06515 0.01656 0.00832 0.0
H2896 H 0.09742 0.96582 0.04016 0.0
H2897 H 0.13774 0.01124 0.00914 0.0
H2898 H 0.12014 0.01719 0.02116 0.0
H2899 H 0.11742 0.00928 1.00076 0.0
C2900 C 0.07713 0.01201 0.04825 0.0
C2901 C 0.06784 0.01771 0.03482 0.0
C2902 C 0.09049 1.00158 0.04579 0.0
C2903 C 0.0949 0.99676 0.02988 0.0
C2904 C 0.0856 1.00228 0.01646 0.0
H2905 H 0.1733 0.93718 0.98988 0.0
H2906 H 0.14929 0.95457 0.99398 0.0
C2907 C 0.07221 0.01267 0.0189 0.0
C2908 C 0.10908 0.98574 0.02734 0.0
H2909 H 0.14713 0.98384 0.01009 0.0
C2910 C 0.10833 0.96974 0.03364 0.0
C2911 C 0.12322 0.99091 0.01876 0.0
C2912 C 0.12482 0.00813 0.01215 0.0
C2913 C 0.12128 0.95865 0.03137 0.0
C2914 C 0.13551 0.96386 0.0229 0.0
C2915 C 0.13622 0.97987 0.01658 0.0
C2916 C 0.14984 0.95294 0.02051 0.0
C2917 C 0.11943 0.94136 0.03772 0.0
C2918 C 0.15821 0.94634 0.03406 0.0
C2919 C 0.17183 0.93622 0.03175 0.0
C2920 C 0.17748 0.93264 0.01584 0.0
C2921 C 0.16914 0.93943 1.00229 0.0
C2922 C 0.15548 0.94949 0.00462 0.0
H2923 H 0.10635 0.93805 0.03957 0.0
H2924 H 0.125 0.93238 0.02916 0.0
H2925 H 0.12575 0.9403 0.04976 0.0
H2926 H 0.1543 0.94912 0.04645 0.0
H2927 H 0.17785 0.93111 0.04246 0.0
loop_
_geom_bond_atom_site_label_1
_geom_bond_atom_site_label_2
_geom_bond_distance
_geom_bond_site_symmetry_2
_ccdc_geom_bond_type
H0 C3 0.931 . S
H1 C6 0.928 . S
H2 C8 0.930 . S
C3 H0 0.931 . S
C3 C4 1.413 . S
C3 C5 1.360 . S
C4 C3 1.413 . S
C4 C8 1.429 . S
C5 C3 1.360 . S
C5 C6 1.372 . S
C6 H1 0.928 . S
C6 C5 1.372 . S
C6 C7 1.404 . S
C7 C6 1.404 . S
C7 C8 1.391 . S
C8 H2 0.930 . S
C8 C4 1.429 . S
C8 C7 1.391 . S
H9 C12 0.931 . S
H10 C15 0.928 . S
H11 C17 0.930 . S
C12 H9 0.931 . S
C12 C13 1.413 . S
C12 C14 1.360 . S
C13 C12 1.413 . S
C13 C17 1.429 . S
C14 C12 1.360 . S
C14 C15 1.372 . S
C15 H10 0.928 . S
C15 C14 1.372 . S
C15 C16 1.404 . S
C16 C15 1.404 . S
C16 C17 1.391 . S
C17 H11 0.930 . S
C17 C13 1.429 . S
C17 C16 1.391 . S
H18 C21 0.931 . S
H19 C24 0.928 . S
H20 C26 0.930 . S
C21 H18 0.931 . S
C21 C22 1.413 . S
C21 C23 1.360 . S
C22 C21 1.413 . S
C22 C26 1.429 . S
C23 C21 1.360 . S
C23 C24 1.372 . S
C24 H19 0.928 . S
C24 C23 1.372 . S
C24 C25 1.404 . S
C25 C24 1.404 . S
C25 C26 1.391 . S
C26 H20 0.930 . S
C26 C22 1.429 . S
C26 C25 1.391 . S
H27 C30 0.931 . S
H28 C33 0.928 . S
H29 C35 0.930 . S
C30 H27 0.931 . S
C30 C31 1.413 . S
C30 C32 1.360 . S
C31 C30 1.413 . S
C31 C35 1.429 . S
C32 C30 1.360 . S
C32 C33 1.372 . S
C33 H28 0.928 . S
C33 C32 1.372 . S
C33 C34 1.404 . S
C34 C33 1.404 . S
C34 C35 1.391 . S
C35 H29 0.930 . S
C35 C31 1.429 . S
C35 C34 1.391 . S
H36 C39 0.931 . S
H37 C42 0.928 . S
H38 C44 0.930 . S
C39 H36 0.931 . S
C39 C40 1.413 . S
C39 C41 1.360 . S
C40 C39 1.413 . S
C40 C44 1.429 . S
C41 C39 1.360 . S
C41 C42 1.372 . S
C42 H37 0.928 . S
C42 C41 1.372 . S
C42 C43 1.404 . S
C43 C42 1.404 . S
C43 C44 1.391 . S
C44 H38 0.930 . S
C44 C40 1.429 . S
C44 C43 1.391 . S
H45 C48 0.931 . S
H46 C51 0.928 . S
H47 C53 0.930 . S
C48 H45 0.931 . S
C48 C49 1.413 . S
C48 C50 1.360 . S
C49 C48 1.413 . S
C49 C53 1.429 . S
C50 C48 1.360 . S
C50 C51 1.372 . S
C51 H46 0.928 . S
C51 C50 1.372 . S
C51 C52 1.404 . S
C52 C51 1.404 . S
C52 C53 1.391 . S
C53 H47 0.930 . S
C53 C49 1.429 . S
C53 C52 1.391 . S
H54 C57 0.931 . S
H55 C60 0.928 . S
H56 C62 0.930 . S
C57 H54 0.931 . S
C57 C58 1.413 . S
C57 C59 1.360 . S
C58 C57 1.413 . S
C58 C62 1.429 . S
C59 C57 1.360 . S
C59 C60 1.372 . S
C60 H55 0.928 . S
C60 C59 1.372 . S
C60 C61 1.404 . S
C61 C60 1.404 . S
C61 C62 1.391 . S
C62 H56 0.930 . S
C62 C58 1.429 . S
C62 C61 1.391 . S
H63 C66 0.931 . S
H64 C69 0.928 . S
H65 C71 0.930 . S
C66 H63 0.931 . S
C66 C67 1.413 . S
C66 C68 1.360 . S
C67 C66 1.413 . S
C67 C71 1.429 . S
C68 C66 1.360 . S
C68 C69 1.372 . S
C69 H64 0.928 . S
C69 C68 1.372 . S
C69 C70 1.404 . S
C70 C69 1.404 . S
C70 C71 1.391 . S
C71 H65 0.930 . S
C71 C67 1.429 . S
C71 C70 1.391 . S
H72 C75 0.931 . S
H73 C78 0.928 . S
H74 C80 0.930 . S
C75 H72 0.931 . S
C75 C76 1.413 . S
C75 C77 1.360 . S
C76 C75 1.413 . S
C76 C80 1.429 . S
C77 C75 1.360 . S
C77 C78 1.372 . S
C78 H73 0.928 . S
C78 C77 1.372 . S
C78 C79 1.404 . S
C79 C78 1.404 . S
C79 C80 1.391 . S
C80 H74 0.930 . S
C80 C76 1.429 . S
C80 C79 1.391 . S
H81 C84 0.931 . S
H82 C87 0.928 . S
H83 C89 0.930 . S
C84 H81 0.931 . S
C84 C85 1.413 . S
C84 C86 1.360 . S
C85 C84 1.413 . S
C85 C89 1.429 . S
C86 C84 1.360 . S
C86 C87 1.372 . S
C87 H82 0.928 . S
C87 C86 1.372 . S
C87 C88 1.404 . S
C88 C87 1.404 . S
C88 C89 1.391 . S
C89 H83 0.930 . S
C89 C85 1.429 . S
C89 C88 1.391 . S
H90 C93 0.931 . S
H91 C96 0.928 . S
H92 C98 0.930 . S
C93 H90 0.931 . S
C93 C94 1.413 . S
C93 C95 1.360 . S
C94 C93 1.413 . S
C94 C98 1.429 . S
C95 C93 1.360 . S
C95 C96 1.372 . S
C96 H91 0.928 . S
C96 C95 1.372 . S
C96 C97 1.404 . S
C97 C96 1.404 . S
C97 C98 1.391 . S
C98 H92 0.930 . S
C98 C94 1.429 . S
C98 C97 1.391 . S
H99 C102 0.931 . S
H100 C105 0.928 . S
H101 C107 0.930 . S
C102 H99 0.931 . S
C102 C103 1.413 . S
C102 C104 1.360 . S
C103 C102 1.413 . S
C103 C107 1.429 . S
C104 C102 1.360 . S
C104 C105 1.372 . S
C105 H100 0.928 . S
C105 C104 1.372 . S
C105 C106 1.404 . S
C106 C105 1.404 . S
C106 C107 1.391 . S
C107 H101 0.930 . S
C107 C103 1.429 . S
C107 C106 1.391 . S
H108 C111 0.931 . S
H109 C114 0.928 . S
H110 C116 0.930 . S
C111 H108 0.931 . S
C111 C112 1.413 . S
C111 C113 1.360 . S
C112 C111 1.413 . S
C112 C116 1.429 . S
C113 C111 1.360 . S
C113 C114 1.372 . S
C114 H109 0.928 . S
C114 C113 1.372 . S
C114 C115 1.404 . S
C115 C114 1.404 . S
C115 C116 1.391 . S
C116 H110 0.930 . S
C116 C112 1.429 . S
C116 C115 1.391 . S
H117 C120 0.931 . S
H118 C123 0.928 . S
H119 C125 0.930 . S
C120 H117 0.931 . S
C120 C121 1.413 . S
C120 C122 1.360 . S
C121 C120 1.413 . S
C121 C125 1.429 . S
C122 C120 1.360 . S
C122 C123 1.372 . S
C123 H118 0.928 . S
C123 C122 1.372 . S
C123 C124 1.404 . S
C124 C123 1.404 . S
C124 C125 1.391 . S
C125 H119 0.930 . S
C125 C121 1.429 . S
C125 C124 1.391 . S
H126 C129 0.931 . S
H127 C132 0.928 . S
H128 C134 0.930 . S
C129 H126 0.931 . S
C129 C130 1.413 . S
C129 C131 1.360 . S
C130 C129 1.413 . S
C130 C134 1.429 . S
C131 C129 1.360 . S
C131 C132 1.372 . S
C132 H127 0.928 . S
C132 C131 1.372 . S
C132 C133 1.404 . S
C133 C132 1.404 . S
C133 C134 1.391 . S
C134 H128 0.930 . S
C134 C130 1.429 . S
C134 C133 1.391 . S
H135 C138 0.931 . S
H136 C141 0.928 . S
H137 C143 0.930 . S
C138 H135 0.931 . S
C138 C139 1.413 . S
C138 C140 1.360 . S
C139 C138 1.413 . S
C139 C143 1.429 . S
C140 C138 1.360 . S
C140 C141 1.372 . S
C141 H136 0.928 . S
C141 C140 1.372 . S
C141 C142 1.404 . S
C142 C141 1.404 . S
C142 C143 1.391 . S
C143 H137 0.930 . S
C143 C139 1.429 . S
C143 C142 1.391 . S
Li144 N161 1.990 . S
Li144 O204 1.956 . S
Li144 O205 1.970 1_556 S
Li144 O206 1.961 . S
Li145 N169 1.990 . S
Li145 O204 1.970 1_554 S
Li145 O205 1.956 . S
Li145 O207 1.961 . S
Li146 N191 1.990 . S
Li146 O204 1.961 . S
Li146 O206 1.956 . S
Li146 O207 1.970 1_556 S
Li147 N197 1.990 . S
Li147 O205 1.961 . S
Li147 O206 1.970 1_554 S
Li147 O207 1.956 . S
C148 C150 1.348 1_556 S
C148 C151 1.356 . S
C148 O204 1.325 . S
N149 C152 1.314 1_556 S
N149 C153 1.279 . S
C150 C148 1.348 1_554 S
C150 C152 1.353 . S
C150 H208 0.929 . S
C151 C148 1.356 . S
C151 C153 1.358 . S
C151 H209 0.930 . S
C152 N149 1.314 1_554 S
C152 C150 1.353 . S
C152 H210 0.930 . S
C153 N149 1.279 . S
C153 C151 1.358 . S
C153 H211 0.930 . S
C154 C157 1.348 . S
C154 C158 1.356 . S
C154 O205 1.325 . S
C155 N156 1.279 . S
C155 C158 1.358 . S
C155 H212 0.930 . S
N156 C155 1.279 . S
N156 C159 1.314 . S
C157 C154 1.348 . S
C157 C159 1.353 . S
C157 H213 0.929 . S
C158 C154 1.356 . S
C158 C155 1.358 . S
C158 H214 0.930 . S
C159 N156 1.314 . S
C159 C157 1.353 . S
C159 H215 0.930 . S
C160 N161 1.314 . S
C160 C165 1.353 . S
C160 H166 0.930 . S
N161 Li144 1.990 . S
N161 C160 1.314 . S
N161 C163 1.279 . S
C162 C163 1.358 . S
C162 C164 1.356 . S
C162 H216 0.930 . S
C163 N161 1.279 . S
C163 C162 1.358 . S
C163 H167 0.930 . S
C164 C162 1.356 . S
C164 C165 1.348 . S
C165 C160 1.353 . S
C165 C164 1.348 . S
C165 H217 0.929 . S
H166 C160 0.930 . S
H167 C163 0.930 . S
C168 N169 1.314 . S
C168 C170 1.353 . S
C168 H174 0.930 . S
N169 Li145 1.990 . S
N169 C168 1.314 . S
N169 C172 1.279 . S
C170 C168 1.353 . S
C170 C173 1.348 . S
C170 H218 0.929 . S
C171 C172 1.358 . S
C171 C173 1.356 . S
C171 H219 0.930 . S
C172 N169 1.279 . S
C172 C171 1.358 . S
C172 H175 0.930 . S
C173 C170 1.348 . S
C173 C171 1.356 . S
H174 C168 0.930 . S
H175 C172 0.930 . S
C176 C178 1.348 . S
C176 C179 1.356 . S
C176 O206 1.325 . S
N177 C180 1.314 . S
N177 C181 1.279 . S
C178 C176 1.348 . S
C178 C180 1.353 . S
C178 H220 0.929 . S
C179 C176 1.356 . S
C179 C181 1.358 . S
C179 H221 0.930 . S
C180 N177 1.314 . S
C180 C178 1.353 . S
C180 H222 0.930 . S
C181 N177 1.279 . S
C181 C179 1.358 . S
C181 H223 0.930 . S
C182 C183 1.348 1_554 S
C182 C184 1.356 . S
C182 O207 1.325 . S
C183 C182 1.348 1_556 S
C183 C185 1.353 . S
C183 H224 0.929 . S
C184 C182 1.356 . S
C184 C186 1.358 . S
C184 H225 0.930 . S
C185 C183 1.353 . S
C185 N187 1.314 1_556 S
C185 H226 0.930 . S
C186 C184 1.358 . S
C186 N187 1.279 . S
C186 H227 0.930 . S
N187 C185 1.314 1_554 S
N187 C186 1.279 . S
C188 C190 1.353 . S
C188 N191 1.314 . S
C188 H194 0.930 . S
C189 N191 1.279 . S
C189 C192 1.358 . S
C189 H195 0.930 . S
C190 C188 1.353 . S
C190 C193 1.348 . S
C190 H228 0.929 . S
N191 Li146 1.990 . S
N191 C188 1.314 . S
N191 C189 1.279 . S
C192 C189 1.358 . S
C192 C193 1.356 . S
C192 H229 0.930 . S
C193 C190 1.348 . S
C193 C192 1.356 . S
H194 C188 0.930 . S
H195 C189 0.930 . S
C196 N197 1.314 . S
C196 C198 1.353 . S
C196 H202 0.930 . S
N197 Li147 1.990 . S
N197 C196 1.314 . S
N197 C200 1.279 . S
C198 C196 1.353 . S
C198 C201 1.348 . S
C198 H230 0.929 . S
C199 C200 1.358 . S
C199 C201 1.356 . S
C199 H231 0.930 . S
C200 N197 1.279 . S
C200 C199 1.358 . S
C200 H203 0.930 . S
C201 C198 1.348 . S
C201 C199 1.356 . S
H202 C196 0.930 . S
H203 C200 0.930 . S
O204 Li144 1.956 . S
O204 Li145 1.970 1_556 S
O204 Li146 1.961 . S
O204 C148 1.325 . S
O205 Li144 1.970 1_554 S
O205 Li145 1.956 . S
O205 Li147 1.961 . S
O205 C154 1.325 . S
O206 Li144 1.961 . S
O206 Li146 1.956 . S
O206 Li147 1.970 1_556 S
O206 C176 1.325 . S
O207 Li145 1.961 . S
O207 Li146 1.970 1_554 S
O207 Li147 1.956 . S
O207 C182 1.325 . S
H208 C150 0.929 . S
H209 C151 0.930 . S
H210 C152 0.930 . S
H211 C153 0.930 . S
H212 C155 0.930 . S
H213 C157 0.929 . S
H214 C158 0.930 . S
H215 C159 0.930 . S
H216 C162 0.930 . S
H217 C165 0.929 . S
H218 C170 0.929 . S
H219 C171 0.930 . S
H220 C178 0.929 . S
H221 C179 0.930 . S
H222 C180 0.930 . S
H223 C181 0.930 . S
H224 C183 0.929 . S
H225 C184 0.930 . S
H226 C185 0.930 . S
H227 C186 0.930 . S
H228 C190 0.929 . S
H229 C192 0.930 . S
H230 C198 0.929 . S
H231 C199 0.930 . S
Li232 N249 1.990 . S
Li232 O292 1.956 . S
Li232 O293 1.970 . S
Li232 O294 1.961 . S
Li233 N257 1.990 . S
Li233 O292 1.970 . S
Li233 O293 1.956 . S
Li233 O295 1.961 . S
Li234 N279 1.990 . S
Li234 O292 1.961 . S
Li234 O294 1.956 . S
Li234 O295 1.970 . S
Li235 N285 1.990 . S
Li235 O293 1.961 . S
Li235 O294 1.970 . S
Li235 O295 1.956 . S
C236 C238 1.348 . S
C236 C239 1.356 . S
C236 O292 1.325 . S
N237 C240 1.314 . S
N237 C241 1.279 . S
C238 C236 1.348 . S
C238 C240 1.353 . S
C238 H296 0.929 . S
C239 C236 1.356 . S
C239 C241 1.358 . S
C239 H297 0.930 . S
C240 N237 1.314 . S
C240 C238 1.353 . S
C240 H298 0.930 . S
C241 N237 1.279 . S
C241 C239 1.358 . S
C241 H299 0.930 . S
C242 C245 1.348 . S
C242 C246 1.356 . S
C242 O293 1.325 . S
C243 N244 1.279 . S
C243 C246 1.358 . S
C243 H300 0.930 . S
N244 C243 1.279 . S
N244 C247 1.314 . S
C245 C242 1.348 . S
C245 C247 1.353 . S
C245 H301 0.929 . S
C246 C242 1.356 . S
C246 C243 1.358 . S
C246 H302 0.930 . S
C247 N244 1.314 . S
C247 C245 1.353 . S
C247 H303 0.930 . S
C248 N249 1.314 . S
C248 C253 1.353 . S
C248 H254 0.930 . S
N249 Li232 1.990 . S
N249 C248 1.314 . S
N249 C251 1.279 . S
C250 C251 1.358 . S
C250 C252 1.356 . S
C250 H304 0.930 . S
C251 N249 1.279 . S
C251 C250 1.358 . S
C251 H255 0.930 . S
C252 C250 1.356 . S
C252 C253 1.348 . S
C253 C248 1.353 . S
C253 C252 1.348 . S
C253 H305 0.929 . S
H254 C248 0.930 . S
H255 C251 0.930 . S
C256 N257 1.314 . S
C256 C258 1.353 . S
C256 H262 0.930 . S
N257 Li233 1.990 . S
N257 C256 1.314 . S
N257 C260 1.279 . S
C258 C256 1.353 . S
C258 C261 1.348 . S
C258 H306 0.929 . S
C259 C260 1.358 . S
C259 C261 1.356 . S
C259 H307 0.930 . S
C260 N257 1.279 . S
C260 C259 1.358 . S
C260 H263 0.930 . S
C261 C258 1.348 . S
C261 C259 1.356 . S
H262 C256 0.930 . S
H263 C260 0.930 . S
C264 C266 1.348 . S
C264 C267 1.356 . S
C264 O294 1.325 . S
N265 C268 1.314 . S
N265 C269 1.279 . S
C266 C264 1.348 . S
C266 C268 1.353 . S
C266 H308 0.929 . S
C267 C264 1.356 . S
C267 C269 1.358 . S
C267 H309 0.930 . S
C268 N265 1.314 . S
C268 C266 1.353 . S
C268 H310 0.930 . S
C269 N265 1.279 . S
C269 C267 1.358 . S
C269 H311 0.930 . S
C270 C271 1.348 . S
C270 C272 1.356 . S
C270 O295 1.325 . S
C271 C270 1.348 . S
C271 C273 1.353 . S
C271 H312 0.929 . S
C272 C270 1.356 . S
C272 C274 1.358 . S
C272 H313 0.930 . S
C273 C271 1.353 . S
C273 N275 1.314 . S
C273 H314 0.930 . S
C274 C272 1.358 . S
C274 N275 1.279 . S
C274 H315 0.930 . S
N275 C273 1.314 . S
N275 C274 1.279 . S
C276 C278 1.353 . S
C276 N279 1.314 . S
C276 H282 0.930 . S
C277 N279 1.279 . S
C277 C280 1.358 . S
C277 H283 0.930 . S
C278 C276 1.353 . S
C278 C281 1.348 . S
C278 H316 0.929 . S
N279 Li234 1.990 . S
N279 C276 1.314 . S
N279 C277 1.279 . S
C280 C277 1.358 . S
C280 C281 1.356 . S
C280 H317 0.930 . S
C281 C278 1.348 . S
C281 C280 1.356 . S
H282 C276 0.930 . S
H283 C277 0.930 . S
C284 N285 1.314 . S
C284 C286 1.353 . S
C284 H290 0.930 . S
N285 Li235 1.990 . S
N285 C284 1.314 . S
N285 C288 1.279 . S
C286 C284 1.353 . S
C286 C289 1.348 . S
C286 H318 0.929 . S
C287 C288 1.358 . S
C287 C289 1.356 . S
C287 H319 0.930 . S
C288 N285 1.279 . S
C288 C287 1.358 . S
C288 H291 0.930 . S
C289 C286 1.348 . S
C289 C287 1.356 . S
H290 C284 0.930 . S
H291 C288 0.930 . S
O292 Li232 1.956 . S
O292 Li233 1.970 . S
O292 Li234 1.961 . S
O292 C236 1.325 . S
O293 Li232 1.970 . S
O293 Li233 1.956 . S
O293 Li235 1.961 . S
O293 C242 1.325 . S
O294 Li232 1.961 . S
O294 Li234 1.956 . S
O294 Li235 1.970 . S
O294 C264 1.325 . S
O295 Li233 1.961 . S
O295 Li234 1.970 . S
O295 Li235 1.956 . S
O295 C270 1.325 . S
H296 C238 0.929 . S
H297 C239 0.930 . S
H298 C240 0.930 . S
H299 C241 0.930 . S
H300 C243 0.930 . S
H301 C245 0.929 . S
H302 C246 0.930 . S
H303 C247 0.930 . S
H304 C250 0.930 . S
H305 C253 0.929 . S
H306 C258 0.929 . S
H307 C259 0.930 . S
H308 C266 0.929 . S
H309 C267 0.930 . S
H310 C268 0.930 . S
H311 C269 0.930 . S
H312 C271 0.929 . S
H313 C272 0.930 . S
H314 C273 0.930 . S
H315 C274 0.930 . S
H316 C278 0.929 . S
H317 C280 0.930 . S
H318 C286 0.929 . S
H319 C287 0.930 . S
Li320 N337 1.999 . S
Li320 O380 1.956 . S
Li320 O381 1.927 1_556 S
Li320 O382 1.993 . S
Li321 N345 1.990 . S
Li321 O380 1.953 1_554 S
Li321 O381 1.956 . S
Li321 O383 1.961 . S
Li322 N367 1.990 . S
Li322 O380 1.975 . S
Li322 O382 1.956 . S
Li322 O383 1.970 1_556 S
Li323 N373 1.990 . S
Li323 O381 1.961 . S
Li323 O382 1.970 1_554 S
Li323 O383 1.956 . S
C324 C326 1.348 1_556 S
C324 C327 1.356 . S
C324 O380 1.328 . S
N325 C328 1.314 1_556 S
N325 C329 1.279 . S
C326 C324 1.348 1_554 S
C326 C328 1.353 . S
C326 H384 0.929 . S
C327 C324 1.356 . S
C327 C329 1.358 . S
C327 H385 0.930 . S
C328 N325 1.314 1_554 S
C328 C326 1.353 . S
C328 H386 0.930 . S
C329 N325 1.279 . S
C329 C327 1.358 . S
C329 H387 0.930 . S
C330 C333 1.348 . S
C330 C334 1.356 . S
C330 O381 1.325 . S
C331 N332 1.279 . S
C331 C334 1.358 . S
C331 H388 0.930 . S
N332 C331 1.279 . S
N332 C335 1.314 . S
C333 C330 1.348 . S
C333 C335 1.353 . S
C333 H389 0.929 . S
C334 C330 1.356 . S
C334 C331 1.358 . S
C334 H390 0.930 . S
C335 N332 1.314 . S
C335 C333 1.353 . S
C335 H391 0.930 . S
C336 N337 1.314 . S
C336 C341 1.353 . S
C336 H342 0.930 . S
N337 Li320 1.999 . S
N337 C336 1.314 . S
N337 C339 1.279 . S
C338 C339 1.358 . S
C338 C340 1.356 . S
C338 H392 0.930 . S
C339 N337 1.279 . S
C339 C338 1.358 . S
C339 H343 0.941 . S
C340 C338 1.356 . S
C340 C341 1.348 . S
C341 C336 1.353 . S
C341 C340 1.348 . S
C341 H393 0.929 . S
H342 C336 0.930 . S
H343 C339 0.941 . S
C344 N345 1.314 . S
C344 C346 1.353 . S
C344 H350 0.930 . S
N345 Li321 1.990 . S
N345 C344 1.314 . S
N345 C348 1.279 . S
C346 C344 1.353 . S
C346 C349 1.348 . S
C346 H394 0.929 . S
C347 C348 1.358 . S
C347 C349 1.356 . S
C347 H395 0.930 . S
C348 N345 1.279 . S
C348 C347 1.358 . S
C348 H351 0.930 . S
C349 C346 1.348 . S
C349 C347 1.356 . S
H350 C344 0.930 . S
H351 C348 0.930 . S
C352 C354 1.348 . S
C352 C355 1.356 . S
C352 O382 1.325 . S
N353 C356 1.314 . S
N353 C357 1.279 . S
C354 C352 1.348 . S
C354 C356 1.353 . S
C354 H396 0.929 . S
C355 C352 1.356 . S
C355 C357 1.358 . S
C355 H397 0.930 . S
C356 N353 1.314 . S
C356 C354 1.353 . S
C356 H398 0.930 . S
C357 N353 1.279 . S
C357 C355 1.358 . S
C357 H399 0.930 . S
C358 C359 1.348 1_554 S
C358 C360 1.356 . S
C358 O383 1.325 . S
C359 C358 1.348 1_556 S
C359 C361 1.353 . S
C359 H400 0.929 . S
C360 C358 1.356 . S
C360 C362 1.358 . S
C360 H401 0.930 . S
C361 C359 1.353 . S
C361 N363 1.314 1_556 S
C361 H402 0.930 . S
C362 C360 1.358 . S
C362 N363 1.279 . S
C362 H403 0.930 . S
N363 C361 1.314 1_554 S
N363 C362 1.279 . S
C364 C366 1.353 . S
C364 N367 1.314 . S
C364 H370 0.930 . S
C365 N367 1.279 . S
C365 C368 1.358 . S
C365 H371 0.930 . S
C366 C364 1.353 . S
C366 C369 1.348 . S
C366 H404 0.929 . S
N367 Li322 1.990 . S
N367 C364 1.314 . S
N367 C365 1.279 . S
C368 C365 1.358 . S
C368 C369 1.356 . S
C368 H405 0.930 . S
C369 C366 1.348 . S
C369 C368 1.356 . S
H370 C364 0.930 . S
H371 C365 0.930 . S
C372 N373 1.314 . S
C372 C374 1.353 . S
C372 H378 0.930 . S
N373 Li323 1.990 . S
N373 C372 1.314 . S
N373 C376 1.279 . S
C374 C372 1.353 . S
C374 C377 1.348 . S
C374 H406 0.929 . S
C375 C376 1.358 . S
C375 C377 1.356 . S
C375 H407 0.930 . S
C376 N373 1.279 . S
C376 C375 1.358 . S
C376 H379 0.930 . S
C377 C374 1.348 . S
C377 C375 1.356 . S
H378 C372 0.930 . S
H379 C376 0.930 . S
O380 Li320 1.956 . S
O380 Li321 1.953 1_556 S
O380 Li322 1.975 . S
O380 C324 1.328 . S
O381 Li320 1.927 1_554 S
O381 Li321 1.956 . S
O381 Li323 1.961 . S
O381 C330 1.325 . S
O382 Li320 1.993 . S
O382 Li322 1.956 . S
O382 Li323 1.970 1_556 S
O382 C352 1.325 . S
O383 Li321 1.961 . S
O383 Li322 1.970 1_554 S
O383 Li323 1.956 . S
O383 C358 1.325 . S
H384 C326 0.929 . S
H385 C327 0.930 . S
H386 C328 0.930 . S
H387 C329 0.930 . S
H388 C331 0.930 . S
H389 C333 0.929 . S
H390 C334 0.930 . S
H391 C335 0.930 . S
H392 C338 0.930 . S
H393 C341 0.929 . S
H394 C346 0.929 . S
H395 C347 0.930 . S
H396 C354 0.929 . S
H397 C355 0.930 . S
H398 C356 0.930 . S
H399 C357 0.930 . S
H400 C359 0.929 . S
H401 C360 0.930 . S
H402 C361 0.930 . S
H403 C362 0.930 . S
H404 C366 0.929 . S
H405 C368 0.930 . S
H406 C374 0.929 . S
H407 C375 0.930 . S
Li408 N425 1.990 . S
Li408 O468 1.956 . S
Li408 O469 1.970 1_545 S
Li408 O470 1.961 . S
Li409 N433 1.990 . S
Li409 O468 1.970 1_565 S
Li409 O469 1.956 . S
Li409 O471 1.961 . S
Li410 N455 1.990 . S
Li410 O468 1.961 . S
Li410 O470 1.956 . S
Li410 O471 1.970 1_545 S
Li411 N461 1.990 . S
Li411 O469 1.961 . S
Li411 O470 1.970 1_565 S
Li411 O471 1.956 . S
C412 C414 1.348 . S
C412 C415 1.356 . S
C412 O468 1.325 . S
N413 C416 1.314 . S
N413 C417 1.279 . S
C414 C412 1.348 . S
C414 C416 1.353 . S
C414 H472 0.929 . S
C415 C412 1.356 . S
C415 C417 1.358 . S
C415 H473 0.930 . S
C416 N413 1.314 . S
C416 C414 1.353 . S
C416 H474 0.930 . S
C417 N413 1.279 . S
C417 C415 1.358 . S
C417 H475 0.930 . S
C418 C421 1.348 1_565 S
C418 C422 1.356 . S
C418 O469 1.325 . S
C419 N420 1.279 . S
C419 C422 1.358 . S
C419 H476 0.930 . S
N420 C419 1.279 . S
N420 C423 1.314 1_565 S
C421 C418 1.348 1_545 S
C421 C423 1.353 . S
C421 H477 0.929 . S
C422 C418 1.356 . S
C422 C419 1.358 . S
C422 H478 0.930 . S
C423 N420 1.314 1_545 S
C423 C421 1.353 . S
C423 H479 0.930 . S
C424 N425 1.314 . S
C424 C429 1.353 . S
C424 H430 0.930 . S
N425 Li408 1.990 . S
N425 C424 1.314 . S
N425 C427 1.279 . S
C426 C427 1.358 . S
C426 C428 1.356 . S
C426 H480 0.930 . S
C427 N425 1.279 . S
C427 C426 1.358 . S
C427 H431 0.930 . S
C428 C426 1.356 . S
C428 C429 1.348 . S
C429 C424 1.353 . S
C429 C428 1.348 . S
C429 H481 0.929 . S
H430 C424 0.930 . S
H431 C427 0.930 . S
C432 N433 1.314 . S
C432 C434 1.353 . S
C432 H438 0.930 . S
N433 Li409 1.990 . S
N433 C432 1.314 . S
N433 C436 1.279 . S
C434 C432 1.353 . S
C434 C437 1.348 . S
C434 H482 0.929 . S
C435 C436 1.358 . S
C435 C437 1.356 . S
C435 H483 0.930 . S
C436 N433 1.279 . S
C436 C435 1.358 . S
C436 H439 0.930 . S
C437 C434 1.348 . S
C437 C435 1.356 . S
H438 C432 0.930 . S
H439 C436 0.930 . S
C440 C442 1.348 1_545 S
C440 C443 1.356 . S
C440 O470 1.325 . S
N441 C444 1.314 1_545 S
N441 C445 1.279 . S
C442 C440 1.348 1_565 S
C442 C444 1.353 . S
C442 H484 0.929 . S
C443 C440 1.356 . S
C443 C445 1.358 . S
C443 H485 0.930 . S
C444 N441 1.314 1_565 S
C444 C442 1.353 . S
C444 H486 0.930 . S
C445 N441 1.279 . S
C445 C443 1.358 . S
C445 H487 0.930 . S
C446 C447 1.348 . S
C446 C448 1.356 . S
C446 O471 1.325 . S
C447 C446 1.348 . S
C447 C449 1.353 . S
C447 H488 0.929 . S
C448 C446 1.356 . S
C448 C450 1.358 . S
C448 H489 0.930 . S
C449 C447 1.353 . S
C449 N451 1.314 . S
C449 H490 0.930 . S
C450 C448 1.358 . S
C450 N451 1.279 . S
C450 H491 0.930 . S
N451 C449 1.314 . S
N451 C450 1.279 . S
C452 C454 1.353 . S
C452 N455 1.314 . S
C452 H458 0.930 . S
C453 N455 1.279 . S
C453 C456 1.358 . S
C453 H459 0.930 . S
C454 C452 1.353 . S
C454 C457 1.348 . S
C454 H492 0.929 . S
N455 Li410 1.990 . S
N455 C452 1.314 . S
N455 C453 1.279 . S
C456 C453 1.358 . S
C456 C457 1.356 . S
C456 H493 0.930 . S
C457 C454 1.348 . S
C457 C456 1.356 . S
H458 C452 0.930 . S
H459 C453 0.930 . S
C460 N461 1.314 . S
C460 C462 1.353 . S
C460 H466 0.930 . S
N461 Li411 1.990 . S
N461 C460 1.314 . S
N461 C464 1.279 . S
C462 C460 1.353 . S
C462 C465 1.348 . S
C462 H494 0.929 . S
C463 C464 1.358 . S
C463 C465 1.356 . S
C463 H495 0.930 . S
C464 N461 1.279 . S
C464 C463 1.358 . S
C464 H467 0.930 . S
C465 C462 1.348 . S
C465 C463 1.356 . S
H466 C460 0.930 . S
H467 C464 0.930 . S
O468 Li408 1.956 . S
O468 Li409 1.970 1_545 S
O468 Li410 1.961 . S
O468 C412 1.325 . S
O469 Li408 1.970 1_565 S
O469 Li409 1.956 . S
O469 Li411 1.961 . S
O469 C418 1.325 . S
O470 Li408 1.961 . S
O470 Li410 1.956 . S
O470 Li411 1.970 1_545 S
O470 C440 1.325 . S
O471 Li409 1.961 . S
O471 Li410 1.970 1_565 S
O471 Li411 1.956 . S
O471 C446 1.325 . S
H472 C414 0.929 . S
H473 C415 0.930 . S
H474 C416 0.930 . S
H475 C417 0.930 . S
H476 C419 0.930 . S
H477 C421 0.929 . S
H478 C422 0.930 . S
H479 C423 0.930 . S
H480 C426 0.930 . S
H481 C429 0.929 . S
H482 C434 0.929 . S
H483 C435 0.930 . S
H484 C442 0.929 . S
H485 C443 0.930 . S
H486 C444 0.930 . S
H487 C445 0.930 . S
H488 C447 0.929 . S
H489 C448 0.930 . S
H490 C449 0.930 . S
H491 C450 0.930 . S
H492 C454 0.929 . S
H493 C456 0.930 . S
H494 C462 0.929 . S
H495 C463 0.930 . S
Li496 N513 1.990 . S
Li496 O556 1.956 . S
Li496 O557 1.970 . S
Li496 O558 1.961 . S
Li497 N521 1.990 . S
Li497 O556 1.970 . S
Li497 O557 1.956 . S
Li497 O559 1.961 . S
Li498 N543 1.990 . S
Li498 O556 1.961 . S
Li498 O558 1.956 . S
Li498 O559 1.970 . S
Li499 N549 1.990 . S
Li499 O557 1.961 . S
Li499 O558 1.970 . S
Li499 O559 1.956 . S
C500 C502 1.348 . S
C500 C503 1.356 . S
C500 O556 1.325 . S
N501 C504 1.314 . S
N501 C505 1.279 . S
C502 C500 1.348 . S
C502 C504 1.353 . S
C502 H560 0.929 . S
C503 C500 1.356 . S
C503 C505 1.358 . S
C503 H561 0.930 . S
C504 N501 1.314 . S
C504 C502 1.353 . S
C504 H562 0.930 . S
C505 N501 1.279 . S
C505 C503 1.358 . S
C505 H563 0.930 . S
C506 C509 1.348 . S
C506 C510 1.356 . S
C506 O557 1.325 . S
C507 N508 1.279 . S
C507 C510 1.358 . S
C507 H564 0.930 . S
N508 C507 1.279 . S
N508 C511 1.314 . S
C509 C506 1.348 . S
C509 C511 1.353 . S
C509 H565 0.929 . S
C510 C506 1.356 . S
C510 C507 1.358 . S
C510 H566 0.930 . S
C511 N508 1.314 . S
C511 C509 1.353 . S
C511 H567 0.930 . S
C512 N513 1.314 . S
C512 C517 1.353 . S
C512 H518 0.930 . S
N513 Li496 1.990 . S
N513 C512 1.314 . S
N513 C515 1.279 . S
C514 C515 1.358 . S
C514 C516 1.356 . S
C514 H568 0.930 . S
C515 N513 1.279 . S
C515 C514 1.358 . S
C515 H519 0.930 . S
C516 C514 1.356 . S
C516 C517 1.348 . S
C517 C512 1.353 . S
C517 C516 1.348 . S
C517 H569 0.929 . S
H518 C512 0.930 . S
H519 C515 0.930 . S
C520 N521 1.314 . S
C520 C522 1.353 . S
C520 H526 0.930 . S
N521 Li497 1.990 . S
N521 C520 1.314 . S
N521 C524 1.279 . S
C522 C520 1.353 . S
C522 C525 1.348 . S
C522 H570 0.929 . S
C523 C524 1.358 . S
C523 C525 1.356 . S
C523 H571 0.930 . S
C524 N521 1.279 . S
C524 C523 1.358 . S
C524 H527 0.930 . S
C525 C522 1.348 . S
C525 C523 1.356 . S
H526 C520 0.930 . S
H527 C524 0.930 . S
C528 C530 1.348 . S
C528 C531 1.356 . S
C528 O558 1.325 . S
N529 C532 1.314 . S
N529 C533 1.279 . S
C530 C528 1.348 . S
C530 C532 1.353 . S
C530 H572 0.929 . S
C531 C528 1.356 . S
C531 C533 1.358 . S
C531 H573 0.930 . S
C532 N529 1.314 . S
C532 C530 1.353 . S
C532 H574 0.930 . S
C533 N529 1.279 . S
C533 C531 1.358 . S
C533 H575 0.930 . S
C534 C535 1.348 . S
C534 C536 1.356 . S
C534 O559 1.325 . S
C535 C534 1.348 . S
C535 C537 1.353 . S
C535 H576 0.929 . S
C536 C534 1.356 . S
C536 C538 1.358 . S
C536 H577 0.930 . S
C537 C535 1.353 . S
C537 N539 1.314 . S
C537 H578 0.930 . S
C538 C536 1.358 . S
C538 N539 1.279 . S
C538 H579 0.930 . S
N539 C537 1.314 . S
N539 C538 1.279 . S
C540 C542 1.353 . S
C540 N543 1.314 . S
C540 H546 0.930 . S
C541 N543 1.279 . S
C541 C544 1.358 . S
C541 H547 0.930 . S
C542 C540 1.353 . S
C542 C545 1.348 . S
C542 H580 0.929 . S
N543 Li498 1.990 . S
N543 C540 1.314 . S
N543 C541 1.279 . S
C544 C541 1.358 . S
C544 C545 1.356 . S
C544 H581 0.930 . S
C545 C542 1.348 . S
C545 C544 1.356 . S
H546 C540 0.930 . S
H547 C541 0.930 . S
C548 N549 1.314 . S
C548 C550 1.353 . S
C548 H554 0.930 . S
N549 Li499 1.990 . S
N549 C548 1.314 . S
N549 C552 1.279 . S
C550 C548 1.353 . S
C550 C553 1.348 . S
C550 H582 0.929 . S
C551 C552 1.358 . S
C551 C553 1.356 . S
C551 H583 0.930 . S
C552 N549 1.279 . S
C552 C551 1.358 . S
C552 H555 0.930 . S
C553 C550 1.348 . S
C553 C551 1.356 . S
H554 C548 0.930 . S
H555 C552 0.930 . S
O556 Li496 1.956 . S
O556 Li497 1.970 . S
O556 Li498 1.961 . S
O556 C500 1.325 . S
O557 Li496 1.970 . S
O557 Li497 1.956 . S
O557 Li499 1.961 . S
O557 C506 1.325 . S
O558 Li496 1.961 . S
O558 Li498 1.956 . S
O558 Li499 1.970 . S
O558 C528 1.325 . S
O559 Li497 1.961 . S
O559 Li498 1.970 . S
O559 Li499 1.956 . S
O559 C534 1.325 . S
H560 C502 0.929 . S
H561 C503 0.930 . S
H562 C504 0.930 . S
H563 C505 0.930 . S
H564 C507 0.930 . S
H565 C509 0.929 . S
H566 C510 0.930 . S
H567 C511 0.930 . S
H568 C514 0.930 . S
H569 C517 0.929 . S
H570 C522 0.929 . S
H571 C523 0.930 . S
H572 C530 0.929 . S
H573 C531 0.930 . S
H574 C532 0.930 . S
H575 C533 0.930 . S
H576 C535 0.929 . S
H577 C536 0.930 . S
H578 C537 0.930 . S
H579 C538 0.930 . S
H580 C542 0.929 . S
H581 C544 0.930 . S
H582 C550 0.929 . S
H583 C551 0.930 . S
Li584 N601 1.990 . S
Li584 O644 1.956 . S
Li584 O645 1.970 . S
Li584 O646 1.961 . S
Li585 N609 1.990 . S
Li585 O644 1.970 . S
Li585 O645 1.956 . S
Li585 O647 1.961 . S
Li586 N631 1.990 . S
Li586 O644 1.961 . S
Li586 O646 1.956 . S
Li586 O647 1.970 . S
Li587 N637 1.990 . S
Li587 O645 1.961 . S
Li587 O646 1.970 . S
Li587 O647 1.956 . S
C588 C590 1.348 . S
C588 C591 1.356 . S
C588 O644 1.325 . S
N589 C592 1.314 . S
N589 C593 1.279 . S
C590 C588 1.348 . S
C590 C592 1.353 . S
C590 H648 0.929 . S
C591 C588 1.356 . S
C591 C593 1.358 . S
C591 H649 0.930 . S
C592 N589 1.314 . S
C592 C590 1.353 . S
C592 H650 0.930 . S
C593 N589 1.279 . S
C593 C591 1.358 . S
C593 H651 0.930 . S
C594 C597 1.348 . S
C594 C598 1.356 . S
C594 O645 1.325 . S
C595 N596 1.279 . S
C595 C598 1.358 . S
C595 H652 0.930 . S
N596 C595 1.279 . S
N596 C599 1.314 . S
C597 C594 1.348 . S
C597 C599 1.353 . S
C597 H653 0.929 . S
C598 C594 1.356 . S
C598 C595 1.358 . S
C598 H654 0.930 . S
C599 N596 1.314 . S
C599 C597 1.353 . S
C599 H655 0.930 . S
C600 N601 1.314 . S
C600 C605 1.353 . S
C600 H606 0.930 . S
N601 Li584 1.990 . S
N601 C600 1.314 . S
N601 C603 1.279 . S
C602 C603 1.358 . S
C602 C604 1.356 . S
C602 H656 0.930 . S
C603 N601 1.279 . S
C603 C602 1.358 . S
C603 H607 0.930 . S
C604 C602 1.356 . S
C604 C605 1.348 . S
C605 C600 1.353 . S
C605 C604 1.348 . S
C605 H657 0.929 . S
H606 C600 0.930 . S
H607 C603 0.930 . S
C608 N609 1.314 . S
C608 C610 1.353 . S
C608 H614 0.930 . S
N609 Li585 1.990 . S
N609 C608 1.314 . S
N609 C612 1.279 . S
C610 C608 1.353 . S
C610 C613 1.348 . S
C610 H658 0.929 . S
C611 C612 1.358 . S
C611 C613 1.356 . S
C611 H659 0.930 . S
C612 N609 1.279 . S
C612 C611 1.358 . S
C612 H615 0.930 . S
C613 C610 1.348 . S
C613 C611 1.356 . S
H614 C608 0.930 . S
H615 C612 0.930 . S
C616 C618 1.348 . S
C616 C619 1.356 . S
C616 O646 1.325 . S
N617 C620 1.314 . S
N617 C621 1.279 . S
C618 C616 1.348 . S
C618 C620 1.353 . S
C618 H660 0.929 . S
C619 C616 1.356 . S
C619 C621 1.358 . S
C619 H661 0.930 . S
C620 N617 1.314 . S
C620 C618 1.353 . S
C620 H662 0.930 . S
C621 N617 1.279 . S
C621 C619 1.358 . S
C621 H663 0.930 . S
C622 C623 1.348 . S
C622 C624 1.356 . S
C622 O647 1.325 . S
C623 C622 1.348 . S
C623 C625 1.353 . S
C623 H664 0.929 . S
C624 C622 1.356 . S
C624 C626 1.358 . S
C624 H665 0.930 . S
C625 C623 1.353 . S
C625 N627 1.314 . S
C625 H666 0.930 . S
C626 C624 1.358 . S
C626 N627 1.279 . S
C626 H667 0.930 . S
N627 C625 1.314 . S
N627 C626 1.279 . S
C628 C630 1.353 . S
C628 N631 1.314 . S
C628 H634 0.930 . S
C629 N631 1.279 . S
C629 C632 1.358 . S
C629 H635 0.930 . S
C630 C628 1.353 . S
C630 C633 1.348 . S
C630 H668 0.929 . S
N631 Li586 1.990 . S
N631 C628 1.314 . S
N631 C629 1.279 . S
C632 C629 1.358 . S
C632 C633 1.356 . S
C632 H669 0.930 . S
C633 C630 1.348 . S
C633 C632 1.356 . S
H634 C628 0.930 . S
H635 C629 0.930 . S
C636 N637 1.314 . S
C636 C638 1.353 . S
C636 H642 0.930 . S
N637 Li587 1.990 . S
N637 C636 1.314 . S
N637 C640 1.279 . S
C638 C636 1.353 . S
C638 C641 1.348 . S
C638 H670 0.929 . S
C639 C640 1.358 . S
C639 C641 1.356 . S
C639 H671 0.930 . S
C640 N637 1.279 . S
C640 C639 1.358 . S
C640 H643 0.930 . S
C641 C638 1.348 . S
C641 C639 1.356 . S
H642 C636 0.930 . S
H643 C640 0.930 . S
O644 Li584 1.956 . S
O644 Li585 1.970 . S
O644 Li586 1.961 . S
O644 C588 1.325 . S
O645 Li584 1.970 . S
O645 Li585 1.956 . S
O645 Li587 1.961 . S
O645 C594 1.325 . S
O646 Li584 1.961 . S
O646 Li586 1.956 . S
O646 Li587 1.970 . S
O646 C616 1.325 . S
O647 Li585 1.961 . S
O647 Li586 1.970 . S
O647 Li587 1.956 . S
O647 C622 1.325 . S
H648 C590 0.929 . S
H649 C591 0.930 . S
H650 C592 0.930 . S
H651 C593 0.930 . S
H652 C595 0.930 . S
H653 C597 0.929 . S
H654 C598 0.930 . S
H655 C599 0.930 . S
H656 C602 0.930 . S
H657 C605 0.929 . S
H658 C610 0.929 . S
H659 C611 0.930 . S
H660 C618 0.929 . S
H661 C619 0.930 . S
H662 C620 0.930 . S
H663 C621 0.930 . S
H664 C623 0.929 . S
H665 C624 0.930 . S
H666 C625 0.930 . S
H667 C626 0.930 . S
H668 C630 0.929 . S
H669 C632 0.930 . S
H670 C638 0.929 . S
H671 C639 0.930 . S
Li672 N689 1.990 . S
Li672 O732 1.956 . S
Li672 O733 1.970 . S
Li672 O734 1.961 . S
Li673 N697 1.990 . S
Li673 O732 1.970 . S
Li673 O733 1.956 . S
Li673 O735 1.961 . S
Li674 N719 1.990 . S
Li674 O732 1.961 . S
Li674 O734 1.956 . S
Li674 O735 1.970 . S
Li675 N725 1.990 . S
Li675 O733 1.961 . S
Li675 O734 1.970 . S
Li675 O735 1.956 . S
C676 C678 1.348 . S
C676 C679 1.356 . S
C676 O732 1.325 . S
N677 C680 1.314 . S
N677 C681 1.279 . S
C678 C676 1.348 . S
C678 C680 1.353 . S
C678 H736 0.929 . S
C679 C676 1.356 . S
C679 C681 1.358 . S
C679 H737 0.930 . S
C680 N677 1.314 . S
C680 C678 1.353 . S
C680 H738 0.930 . S
C681 N677 1.279 . S
C681 C679 1.358 . S
C681 H739 0.930 . S
C682 C685 1.348 . S
C682 C686 1.356 . S
C682 O733 1.325 . S
C683 N684 1.279 . S
C683 C686 1.358 . S
C683 H740 0.930 . S
N684 C683 1.279 . S
N684 C687 1.314 . S
C685 C682 1.348 . S
C685 C687 1.353 . S
C685 H741 0.929 . S
C686 C682 1.356 . S
C686 C683 1.358 . S
C686 H742 0.930 . S
C687 N684 1.314 . S
C687 C685 1.353 . S
C687 H743 0.930 . S
C688 N689 1.314 . S
C688 C693 1.353 . S
C688 H694 0.930 . S
N689 Li672 1.990 . S
N689 C688 1.314 . S
N689 C691 1.279 . S
C690 C691 1.358 . S
C690 C692 1.356 . S
C690 H744 0.930 . S
C691 N689 1.279 . S
C691 C690 1.358 . S
C691 H695 0.930 . S
C692 C690 1.356 . S
C692 C693 1.348 . S
C693 C688 1.353 . S
C693 C692 1.348 . S
C693 H745 0.929 . S
H694 C688 0.930 . S
H695 C691 0.930 . S
C696 N697 1.314 . S
C696 C698 1.353 . S
C696 H702 0.930 . S
N697 Li673 1.990 . S
N697 C696 1.314 . S
N697 C700 1.279 . S
C698 C696 1.353 . S
C698 C701 1.348 . S
C698 H746 0.929 . S
C699 C700 1.358 . S
C699 C701 1.356 . S
C699 H747 0.930 . S
C700 N697 1.279 . S
C700 C699 1.358 . S
C700 H703 0.930 . S
C701 C698 1.348 . S
C701 C699 1.356 . S
H702 C696 0.930 . S
H703 C700 0.930 . S
C704 C706 1.348 . S
C704 C707 1.356 . S
C704 O734 1.325 . S
N705 C708 1.314 . S
N705 C709 1.279 . S
C706 C704 1.348 . S
C706 C708 1.353 . S
C706 H748 0.929 . S
C707 C704 1.356 . S
C707 C709 1.358 . S
C707 H749 0.930 . S
C708 N705 1.314 . S
C708 C706 1.353 . S
C708 H750 0.930 . S
C709 N705 1.279 . S
C709 C707 1.358 . S
C709 H751 0.930 . S
C710 C711 1.348 . S
C710 C712 1.356 . S
C710 O735 1.325 . S
C711 C710 1.348 . S
C711 C713 1.353 . S
C711 H752 0.929 . S
C712 C710 1.356 . S
C712 C714 1.358 . S
C712 H753 0.930 . S
C713 C711 1.353 . S
C713 N715 1.314 . S
C713 H754 0.930 . S
C714 C712 1.358 . S
C714 N715 1.279 . S
C714 H755 0.930 . S
N715 C713 1.314 . S
N715 C714 1.279 . S
C716 C718 1.353 . S
C716 N719 1.314 . S
C716 H722 0.930 . S
C717 N719 1.279 . S
C717 C720 1.358 . S
C717 H723 0.930 . S
C718 C716 1.353 . S
C718 C721 1.348 . S
C718 H756 0.929 . S
N719 Li674 1.990 . S
N719 C716 1.314 . S
N719 C717 1.279 . S
C720 C717 1.358 . S
C720 C721 1.356 . S
C720 H757 0.930 . S
C721 C718 1.348 . S
C721 C720 1.356 . S
H722 C716 0.930 . S
H723 C717 0.930 . S
C724 N725 1.314 . S
C724 C726 1.353 . S
C724 H730 0.930 . S
N725 Li675 1.990 . S
N725 C724 1.314 . S
N725 C728 1.279 . S
C726 C724 1.353 . S
C726 C729 1.348 . S
C726 H758 0.929 . S
C727 C728 1.358 . S
C727 C729 1.356 . S
C727 H759 0.930 . S
C728 N725 1.279 . S
C728 C727 1.358 . S
C728 H731 0.930 . S
C729 C726 1.348 . S
C729 C727 1.356 . S
H730 C724 0.930 . S
H731 C728 0.930 . S
O732 Li672 1.956 . S
O732 Li673 1.970 . S
O732 Li674 1.961 . S
O732 C676 1.325 . S
O733 Li672 1.970 . S
O733 Li673 1.956 . S
O733 Li675 1.961 . S
O733 C682 1.325 . S
O734 Li672 1.961 . S
O734 Li674 1.956 . S
O734 Li675 1.970 . S
O734 C704 1.325 . S
O735 Li673 1.961 . S
O735 Li674 1.970 . S
O735 Li675 1.956 . S
O735 C710 1.325 . S
H736 C678 0.929 . S
H737 C679 0.930 . S
H738 C680 0.930 . S
H739 C681 0.930 . S
H740 C683 0.930 . S
H741 C685 0.929 . S
H742 C686 0.930 . S
H743 C687 0.930 . S
H744 C690 0.930 . S
H745 C693 0.929 . S
H746 C698 0.929 . S
H747 C699 0.930 . S
H748 C706 0.929 . S
H749 C707 0.930 . S
H750 C708 0.930 . S
H751 C709 0.930 . S
H752 C711 0.929 . S
H753 C712 0.930 . S
H754 C713 0.930 . S
H755 C714 0.930 . S
H756 C718 0.929 . S
H757 C720 0.930 . S
H758 C726 0.929 . S
H759 C727 0.930 . S
Li760 N777 1.990 . S
Li760 O820 1.956 . S
Li760 O821 1.970 1_565 S
Li760 O822 1.961 . S
Li761 N785 1.990 . S
Li761 O820 1.970 1_545 S
Li761 O821 1.956 . S
Li761 O823 1.961 . S
Li762 N807 1.990 . S
Li762 O820 1.961 . S
Li762 O822 1.956 . S
Li762 O823 1.970 1_565 S
Li763 N813 1.990 . S
Li763 O821 1.961 . S
Li763 O822 1.970 1_545 S
Li763 O823 1.956 . S
C764 C766 1.348 . S
C764 C767 1.356 . S
C764 O820 1.325 . S
N765 C768 1.314 . S
N765 C769 1.279 . S
C766 C764 1.348 . S
C766 C768 1.353 . S
C766 H824 0.929 . S
C767 C764 1.356 . S
C767 C769 1.358 . S
C767 H825 0.930 . S
C768 N765 1.314 . S
C768 C766 1.353 . S
C768 H826 0.930 . S
C769 N765 1.279 . S
C769 C767 1.358 . S
C769 H827 0.930 . S
C770 C773 1.348 1_545 S
C770 C774 1.356 . S
C770 O821 1.325 . S
C771 N772 1.279 . S
C771 C774 1.358 . S
C771 H828 0.930 . S
N772 C771 1.279 . S
N772 C775 1.314 1_545 S
C773 C770 1.348 1_565 S
C773 C775 1.353 . S
C773 H829 0.929 . S
C774 C770 1.356 . S
C774 C771 1.358 . S
C774 H830 0.930 . S
C775 N772 1.314 1_565 S
C775 C773 1.353 . S
C775 H831 0.930 . S
C776 N777 1.314 . S
C776 C781 1.353 . S
C776 H782 0.930 . S
N777 Li760 1.990 . S
N777 C776 1.314 . S
N777 C779 1.279 . S
C778 C779 1.358 . S
C778 C780 1.356 . S
C778 H832 0.930 . S
C779 N777 1.279 . S
C779 C778 1.358 . S
C779 H783 0.930 . S
C780 C778 1.356 . S
C780 C781 1.348 . S
C781 C776 1.353 . S
C781 C780 1.348 . S
C781 H833 0.929 . S
H782 C776 0.930 . S
H783 C779 0.930 . S
C784 N785 1.314 . S
C784 C786 1.353 . S
C784 H790 0.930 . S
N785 Li761 1.990 . S
N785 C784 1.314 . S
N785 C788 1.279 . S
C786 C784 1.353 . S
C786 C789 1.348 . S
C786 H834 0.929 . S
C787 C788 1.358 . S
C787 C789 1.356 . S
C787 H835 0.930 . S
C788 N785 1.279 . S
C788 C787 1.358 . S
C788 H791 0.930 . S
C789 C786 1.348 . S
C789 C787 1.356 . S
H790 C784 0.930 . S
H791 C788 0.930 . S
C792 C794 1.348 1_565 S
C792 C795 1.356 . S
C792 O822 1.325 . S
N793 C796 1.314 1_565 S
N793 C797 1.279 . S
C794 C792 1.348 1_545 S
C794 C796 1.353 . S
C794 H836 0.929 . S
C795 C792 1.356 . S
C795 C797 1.358 . S
C795 H837 0.930 . S
C796 N793 1.314 1_545 S
C796 C794 1.353 . S
C796 H838 0.930 . S
C797 N793 1.279 . S
C797 C795 1.358 . S
C797 H839 0.930 . S
C798 C799 1.348 . S
C798 C800 1.356 . S
C798 O823 1.325 . S
C799 C798 1.348 . S
C799 C801 1.353 . S
C799 H840 0.929 . S
C800 C798 1.356 . S
C800 C802 1.358 . S
C800 H841 0.930 . S
C801 C799 1.353 . S
C801 N803 1.314 . S
C801 H842 0.930 . S
C802 C800 1.358 . S
C802 N803 1.279 . S
C802 H843 0.930 . S
N803 C801 1.314 . S
N803 C802 1.279 . S
C804 C806 1.353 . S
C804 N807 1.314 . S
C804 H810 0.930 . S
C805 N807 1.279 . S
C805 C808 1.358 . S
C805 H811 0.930 . S
C806 C804 1.353 . S
C806 C809 1.348 . S
C806 H844 0.929 . S
N807 Li762 1.990 . S
N807 C804 1.314 . S
N807 C805 1.279 . S
C808 C805 1.358 . S
C808 C809 1.356 . S
C808 H845 0.930 . S
C809 C806 1.348 . S
C809 C808 1.356 . S
H810 C804 0.930 . S
H811 C805 0.930 . S
C812 N813 1.314 . S
C812 C814 1.353 . S
C812 H818 0.930 . S
N813 Li763 1.990 . S
N813 C812 1.314 . S
N813 C816 1.279 . S
C814 C812 1.353 . S
C814 C817 1.348 . S
C814 H846 0.929 . S
C815 C816 1.358 . S
C815 C817 1.356 . S
C815 H847 0.930 . S
C816 N813 1.279 . S
C816 C815 1.358 . S
C816 H819 0.930 . S
C817 C814 1.348 . S
C817 C815 1.356 . S
H818 C812 0.930 . S
H819 C816 0.930 . S
O820 Li760 1.956 . S
O820 Li761 1.970 1_565 S
O820 Li762 1.961 . S
O820 C764 1.325 . S
O821 Li760 1.970 1_545 S
O821 Li761 1.956 . S
O821 Li763 1.961 . S
O821 C770 1.325 . S
O822 Li760 1.961 . S
O822 Li762 1.956 . S
O822 Li763 1.970 1_565 S
O822 C792 1.325 . S
O823 Li761 1.961 . S
O823 Li762 1.970 1_545 S
O823 Li763 1.956 . S
O823 C798 1.325 . S
H824 C766 0.929 . S
H825 C767 0.930 . S
H826 C768 0.930 . S
H827 C769 0.930 . S
H828 C771 0.930 . S
H829 C773 0.929 . S
H830 C774 0.930 . S
H831 C775 0.930 . S
H832 C778 0.930 . S
H833 C781 0.929 . S
H834 C786 0.929 . S
H835 C787 0.930 . S
H836 C794 0.929 . S
H837 C795 0.930 . S
H838 C796 0.930 . S
H839 C797 0.930 . S
H840 C799 0.929 . S
H841 C800 0.930 . S
H842 C801 0.930 . S
H843 C802 0.930 . S
H844 C806 0.929 . S
H845 C808 0.930 . S
H846 C814 0.929 . S
H847 C815 0.930 . S
Li848 N865 1.990 . S
Li848 O908 1.956 . S
Li848 O909 1.970 1_455 S
Li848 O910 1.961 . S
Li849 N873 1.990 . S
Li849 O908 1.970 1_655 S
Li849 O909 1.956 . S
Li849 O911 1.961 . S
Li850 N895 1.990 . S
Li850 O908 1.961 . S
Li850 O910 1.956 . S
Li850 O911 1.970 1_455 S
Li851 N901 1.990 . S
Li851 O909 1.961 . S
Li851 O910 1.970 1_655 S
Li851 O911 1.956 . S
C852 C854 1.348 . S
C852 C855 1.356 . S
C852 O908 1.325 . S
N853 C856 1.314 . S
N853 C857 1.279 . S
C854 C852 1.348 . S
C854 C856 1.353 . S
C854 H912 0.929 . S
C855 C852 1.356 . S
C855 C857 1.358 . S
C855 H913 0.930 . S
C856 N853 1.314 . S
C856 C854 1.353 . S
C856 H914 0.930 . S
C857 N853 1.279 . S
C857 C855 1.358 . S
C857 H915 0.930 . S
C858 C861 1.348 1_655 S
C858 C862 1.356 . S
C858 O909 1.325 . S
C859 N860 1.279 . S
C859 C862 1.358 . S
C859 H916 0.930 . S
N860 C859 1.279 . S
N860 C863 1.314 1_655 S
C861 C858 1.348 1_455 S
C861 C863 1.353 . S
C861 H917 0.929 . S
C862 C858 1.356 . S
C862 C859 1.358 . S
C862 H918 0.930 . S
C863 N860 1.314 1_455 S
C863 C861 1.353 . S
C863 H919 0.930 . S
C864 N865 1.314 . S
C864 C869 1.353 . S
C864 H870 0.930 . S
N865 Li848 1.990 . S
N865 C864 1.314 . S
N865 C867 1.279 . S
C866 C867 1.358 . S
C866 C868 1.356 . S
C866 H920 0.930 . S
C867 N865 1.279 . S
C867 C866 1.358 . S
C867 H871 0.930 . S
C868 C866 1.356 . S
C868 C869 1.348 . S
C869 C864 1.353 . S
C869 C868 1.348 . S
C869 H921 0.929 . S
H870 C864 0.930 . S
H871 C867 0.930 . S
C872 N873 1.314 . S
C872 C874 1.353 . S
C872 H878 0.930 . S
N873 Li849 1.990 . S
N873 C872 1.314 . S
N873 C876 1.279 . S
C874 C872 1.353 . S
C874 C877 1.348 . S
C874 H922 0.929 . S
C875 C876 1.358 . S
C875 C877 1.356 . S
C875 H923 0.930 . S
C876 N873 1.279 . S
C876 C875 1.358 . S
C876 H879 0.930 . S
C877 C874 1.348 . S
C877 C875 1.356 . S
H878 C872 0.930 . S
H879 C876 0.930 . S
C880 C882 1.348 1_455 S
C880 C883 1.356 . S
C880 O910 1.325 . S
N881 C884 1.314 1_455 S
N881 C885 1.279 . S
C882 C880 1.348 1_655 S
C882 C884 1.353 . S
C882 H924 0.929 . S
C883 C880 1.356 . S
C883 C885 1.358 . S
C883 H925 0.930 . S
C884 N881 1.314 1_655 S
C884 C882 1.353 . S
C884 H926 0.930 . S
C885 N881 1.279 . S
C885 C883 1.358 . S
C885 H927 0.930 . S
C886 C887 1.348 . S
C886 C888 1.356 . S
C886 O911 1.325 . S
C887 C886 1.348 . S
C887 C889 1.353 . S
C887 H928 0.929 . S
C888 C886 1.356 . S
C888 C890 1.358 . S
C888 H929 0.930 . S
C889 C887 1.353 . S
C889 N891 1.314 . S
C889 H930 0.930 . S
C890 C888 1.358 . S
C890 N891 1.279 . S
C890 H931 0.930 . S
N891 C889 1.314 . S
N891 C890 1.279 . S
C892 C894 1.353 . S
C892 N895 1.314 . S
C892 H898 0.930 . S
C893 N895 1.279 . S
C893 C896 1.358 . S
C893 H899 0.930 . S
C894 C892 1.353 . S
C894 C897 1.348 . S
C894 H932 0.929 . S
N895 Li850 1.990 . S
N895 C892 1.314 . S
N895 C893 1.279 . S
C896 C893 1.358 . S
C896 C897 1.356 . S
C896 H933 0.930 . S
C897 C894 1.348 . S
C897 C896 1.356 . S
H898 C892 0.930 . S
H899 C893 0.930 . S
C900 N901 1.314 . S
C900 C902 1.353 . S
C900 H906 0.930 . S
N901 Li851 1.990 . S
N901 C900 1.314 . S
N901 C904 1.279 . S
C902 C900 1.353 . S
C902 C905 1.348 . S
C902 H934 0.929 . S
C903 C904 1.358 . S
C903 C905 1.356 . S
C903 H935 0.930 . S
C904 N901 1.279 . S
C904 C903 1.358 . S
C904 H907 0.930 . S
C905 C902 1.348 . S
C905 C903 1.356 . S
H906 C900 0.930 . S
H907 C904 0.930 . S
O908 Li848 1.956 . S
O908 Li849 1.970 1_455 S
O908 Li850 1.961 . S
O908 C852 1.325 . S
O909 Li848 1.970 1_655 S
O909 Li849 1.956 . S
O909 Li851 1.961 . S
O909 C858 1.325 . S
O910 Li848 1.961 . S
O910 Li850 1.956 . S
O910 Li851 1.970 1_455 S
O910 C880 1.325 . S
O911 Li849 1.961 . S
O911 Li850 1.970 1_655 S
O911 Li851 1.956 . S
O911 C886 1.325 . S
H912 C854 0.929 . S
H913 C855 0.930 . S
H914 C856 0.930 . S
H915 C857 0.930 . S
H916 C859 0.930 . S
H917 C861 0.929 . S
H918 C862 0.930 . S
H919 C863 0.930 . S
H920 C866 0.930 . S
H921 C869 0.929 . S
H922 C874 0.929 . S
H923 C875 0.930 . S
H924 C882 0.929 . S
H925 C883 0.930 . S
H926 C884 0.930 . S
H927 C885 0.930 . S
H928 C887 0.929 . S
H929 C888 0.930 . S
H930 C889 0.930 . S
H931 C890 0.930 . S
H932 C894 0.929 . S
H933 C896 0.930 . S
H934 C902 0.929 . S
H935 C903 0.930 . S
Li936 N953 1.990 . S
Li936 O996 1.956 . S
Li936 O997 1.970 . S
Li936 O998 1.961 . S
Li937 N961 1.990 . S
Li937 O996 1.970 . S
Li937 O997 1.956 . S
Li937 O999 1.961 . S
Li938 N983 1.990 . S
Li938 O996 1.961 . S
Li938 O998 1.956 . S
Li938 O999 1.970 . S
Li939 N989 1.990 . S
Li939 O997 1.961 . S
Li939 O998 1.970 . S
Li939 O999 1.956 . S
C940 C942 1.348 . S
C940 C943 1.356 . S
C940 O996 1.325 . S
N941 C944 1.314 . S
N941 C945 1.279 . S
C942 C940 1.348 . S
C942 C944 1.353 . S
C942 H1000 0.929 . S
C943 C940 1.356 . S
C943 C945 1.358 . S
C943 H1001 0.930 . S
C944 N941 1.314 . S
C944 C942 1.353 . S
C944 H1002 0.930 . S
C945 N941 1.279 . S
C945 C943 1.358 . S
C945 H1003 0.930 . S
C946 C949 1.348 . S
C946 C950 1.356 . S
C946 O997 1.325 . S
C947 N948 1.279 . S
C947 C950 1.358 . S
C947 H1004 0.930 . S
N948 C947 1.279 . S
N948 C951 1.314 . S
C949 C946 1.348 . S
C949 C951 1.353 . S
C949 H1005 0.929 . S
C950 C946 1.356 . S
C950 C947 1.358 . S
C950 H1006 0.930 . S
C951 N948 1.314 . S
C951 C949 1.353 . S
C951 H1007 0.930 . S
C952 N953 1.314 . S
C952 C957 1.353 . S
C952 H958 0.930 . S
N953 Li936 1.990 . S
N953 C952 1.314 . S
N953 C955 1.279 . S
C954 C955 1.358 . S
C954 C956 1.356 . S
C954 H1008 0.930 . S
C955 N953 1.279 . S
C955 C954 1.358 . S
C955 H959 0.930 . S
C956 C954 1.356 . S
C956 C957 1.348 . S
C957 C952 1.353 . S
C957 C956 1.348 . S
C957 H1009 0.929 . S
H958 C952 0.930 . S
H959 C955 0.930 . S
C960 N961 1.314 . S
C960 C962 1.353 . S
C960 H966 0.930 . S
N961 Li937 1.990 . S
N961 C960 1.314 . S
N961 C964 1.279 . S
C962 C960 1.353 . S
C962 C965 1.348 . S
C962 H1010 0.929 . S
C963 C964 1.358 . S
C963 C965 1.356 . S
C963 H1011 0.930 . S
C964 N961 1.279 . S
C964 C963 1.358 . S
C964 H967 0.930 . S
C965 C962 1.348 . S
C965 C963 1.356 . S
H966 C960 0.930 . S
H967 C964 0.930 . S
C968 C970 1.348 . S
C968 C971 1.356 . S
C968 O998 1.325 . S
N969 C972 1.314 . S
N969 C973 1.279 . S
C970 C968 1.348 . S
C970 C972 1.353 . S
C970 H1012 0.929 . S
C971 C968 1.356 . S
C971 C973 1.358 . S
C971 H1013 0.930 . S
C972 N969 1.314 . S
C972 C970 1.353 . S
C972 H1014 0.930 . S
C973 N969 1.279 . S
C973 C971 1.358 . S
C973 H1015 0.930 . S
C974 C975 1.348 . S
C974 C976 1.356 . S
C974 O999 1.325 . S
C975 C974 1.348 . S
C975 C977 1.353 . S
C975 H1016 0.929 . S
C976 C974 1.356 . S
C976 C978 1.358 . S
C976 H1017 0.930 . S
C977 C975 1.353 . S
C977 N979 1.314 . S
C977 H1018 0.930 . S
C978 C976 1.358 . S
C978 N979 1.279 . S
C978 H1019 0.930 . S
N979 C977 1.314 . S
N979 C978 1.279 . S
C980 C982 1.353 . S
C980 N983 1.314 . S
C980 H986 0.930 . S
C981 N983 1.279 . S
C981 C984 1.358 . S
C981 H987 0.930 . S
C982 C980 1.353 . S
C982 C985 1.348 . S
C982 H1020 0.929 . S
N983 Li938 1.990 . S
N983 C980 1.314 . S
N983 C981 1.279 . S
C984 C981 1.358 . S
C984 C985 1.356 . S
C984 H1021 0.930 . S
C985 C982 1.348 . S
C985 C984 1.356 . S
H986 C980 0.930 . S
H987 C981 0.930 . S
C988 N989 1.314 . S
C988 C990 1.353 . S
C988 H994 0.930 . S
N989 Li939 1.990 . S
N989 C988 1.314 . S
N989 C992 1.279 . S
C990 C988 1.353 . S
C990 C993 1.348 . S
C990 H1022 0.929 . S
C991 C992 1.358 . S
C991 C993 1.356 . S
C991 H1023 0.930 . S
C992 N989 1.279 . S
C992 C991 1.358 . S
C992 H995 0.930 . S
C993 C990 1.348 . S
C993 C991 1.356 . S
H994 C988 0.930 . S
H995 C992 0.930 . S
O996 Li936 1.956 . S
O996 Li937 1.970 . S
O996 Li938 1.961 . S
O996 C940 1.325 . S
O997 Li936 1.970 . S
O997 Li937 1.956 . S
O997 Li939 1.961 . S
O997 C946 1.325 . S
O998 Li936 1.961 . S
O998 Li938 1.956 . S
O998 Li939 1.970 . S
O998 C968 1.325 . S
O999 Li937 1.961 . S
O999 Li938 1.970 . S
O999 Li939 1.956 . S
O999 C974 1.325 . S
H1000 C942 0.929 . S
H1001 C943 0.930 . S
H1002 C944 0.930 . S
H1003 C945 0.930 . S
H1004 C947 0.930 . S
H1005 C949 0.929 . S
H1006 C950 0.930 . S
H1007 C951 0.930 . S
H1008 C954 0.930 . S
H1009 C957 0.929 . S
H1010 C962 0.929 . S
H1011 C963 0.930 . S
H1012 C970 0.929 . S
H1013 C971 0.930 . S
H1014 C972 0.930 . S
H1015 C973 0.930 . S
H1016 C975 0.929 . S
H1017 C976 0.930 . S
H1018 C977 0.930 . S
H1019 C978 0.930 . S
H1020 C982 0.929 . S
H1021 C984 0.930 . S
H1022 C990 0.929 . S
H1023 C991 0.930 . S
Li1024 N1041 1.990 . S
Li1024 O1084 1.956 . S
Li1024 O1085 1.970 1_455 S
Li1024 O1086 1.961 . S
Li1025 N1049 1.990 . S
Li1025 O1084 1.970 1_655 S
Li1025 O1085 1.956 . S
Li1025 O1087 1.961 . S
Li1026 N1071 1.990 . S
Li1026 O1084 1.961 . S
Li1026 O1086 1.956 . S
Li1026 O1087 1.970 1_455 S
Li1027 N1077 1.990 . S
Li1027 O1085 1.961 . S
Li1027 O1086 1.970 1_655 S
Li1027 O1087 1.956 . S
C1028 C1030 1.348 1_455 S
C1028 C1031 1.356 . S
C1028 O1084 1.325 . S
N1029 C1032 1.314 1_455 S
N1029 C1033 1.279 . S
C1030 C1028 1.348 1_655 S
C1030 C1032 1.353 . S
C1030 H1088 0.929 . S
C1031 C1028 1.356 . S
C1031 C1033 1.358 . S
C1031 H1089 0.930 . S
C1032 N1029 1.314 1_655 S
C1032 C1030 1.353 . S
C1032 H1090 0.930 . S
C1033 N1029 1.279 . S
C1033 C1031 1.358 . S
C1033 H1091 0.930 . S
C1034 C1037 1.348 . S
C1034 C1038 1.356 . S
C1034 O1085 1.325 . S
C1035 N1036 1.279 . S
C1035 C1038 1.358 . S
C1035 H1092 0.930 . S
N1036 C1035 1.279 . S
N1036 C1039 1.314 . S
C1037 C1034 1.348 . S
C1037 C1039 1.353 . S
C1037 H1093 0.929 . S
C1038 C1034 1.356 . S
C1038 C1035 1.358 . S
C1038 H1094 0.930 . S
C1039 N1036 1.314 . S
C1039 C1037 1.353 . S
C1039 H1095 0.930 . S
C1040 N1041 1.314 . S
C1040 C1045 1.353 . S
C1040 H1046 0.930 . S
N1041 Li1024 1.990 . S
N1041 C1040 1.314 . S
N1041 C1043 1.279 . S
C1042 C1043 1.358 . S
C1042 C1044 1.356 . S
C1042 H1096 0.930 . S
C1043 N1041 1.279 . S
C1043 C1042 1.358 . S
C1043 H1047 0.930 . S
C1044 C1042 1.356 . S
C1044 C1045 1.348 . S
C1045 C1040 1.353 . S
C1045 C1044 1.348 . S
C1045 H1097 0.929 . S
H1046 C1040 0.930 . S
H1047 C1043 0.930 . S
C1048 N1049 1.314 . S
C1048 C1050 1.353 . S
C1048 H1054 0.930 . S
N1049 Li1025 1.990 . S
N1049 C1048 1.314 . S
N1049 C1052 1.279 . S
C1050 C1048 1.353 . S
C1050 C1053 1.348 . S
C1050 H1098 0.929 . S
C1051 C1052 1.358 . S
C1051 C1053 1.356 . S
C1051 H1099 0.930 . S
C1052 N1049 1.279 . S
C1052 C1051 1.358 . S
C1052 H1055 0.930 . S
C1053 C1050 1.348 . S
C1053 C1051 1.356 . S
H1054 C1048 0.930 . S
H1055 C1052 0.930 . S
C1056 C1058 1.348 . S
C1056 C1059 1.356 . S
C1056 O1086 1.325 . S
N1057 C1060 1.314 . S
N1057 C1061 1.279 . S
C1058 C1056 1.348 . S
C1058 C1060 1.353 . S
C1058 H1100 0.929 . S
C1059 C1056 1.356 . S
C1059 C1061 1.358 . S
C1059 H1101 0.930 . S
C1060 N1057 1.314 . S
C1060 C1058 1.353 . S
C1060 H1102 0.930 . S
C1061 N1057 1.279 . S
C1061 C1059 1.358 . S
C1061 H1103 0.930 . S
C1062 C1063 1.348 1_655 S
C1062 C1064 1.356 . S
C1062 O1087 1.325 . S
C1063 C1062 1.348 1_455 S
C1063 C1065 1.353 . S
C1063 H1104 0.929 . S
C1064 C1062 1.356 . S
C1064 C1066 1.358 . S
C1064 H1105 0.930 . S
C1065 C1063 1.353 . S
C1065 N1067 1.314 1_455 S
C1065 H1106 0.930 . S
C1066 C1064 1.358 . S
C1066 N1067 1.279 . S
C1066 H1107 0.930 . S
N1067 C1065 1.314 1_655 S
N1067 C1066 1.279 . S
C1068 C1070 1.353 . S
C1068 N1071 1.314 . S
C1068 H1074 0.930 . S
C1069 N1071 1.279 . S
C1069 C1072 1.358 . S
C1069 H1075 0.930 . S
C1070 C1068 1.353 . S
C1070 C1073 1.348 . S
C1070 H1108 0.929 . S
N1071 Li1026 1.990 . S
N1071 C1068 1.314 . S
N1071 C1069 1.279 . S
C1072 C1069 1.358 . S
C1072 C1073 1.356 . S
C1072 H1109 0.930 . S
C1073 C1070 1.348 . S
C1073 C1072 1.356 . S
H1074 C1068 0.930 . S
H1075 C1069 0.930 . S
C1076 N1077 1.314 . S
C1076 C1078 1.353 . S
C1076 H1082 0.930 . S
N1077 Li1027 1.990 . S
N1077 C1076 1.314 . S
N1077 C1080 1.279 . S
C1078 C1076 1.353 . S
C1078 C1081 1.348 . S
C1078 H1110 0.929 . S
C1079 C1080 1.358 . S
C1079 C1081 1.356 . S
C1079 H1111 0.930 . S
C1080 N1077 1.279 . S
C1080 C1079 1.358 . S
C1080 H1083 0.930 . S
C1081 C1078 1.348 . S
C1081 C1079 1.356 . S
H1082 C1076 0.930 . S
H1083 C1080 0.930 . S
O1084 Li1024 1.956 . S
O1084 Li1025 1.970 1_455 S
O1084 Li1026 1.961 . S
O1084 C1028 1.325 . S
O1085 Li1024 1.970 1_655 S
O1085 Li1025 1.956 . S
O1085 Li1027 1.961 . S
O1085 C1034 1.325 . S
O1086 Li1024 1.961 . S
O1086 Li1026 1.956 . S
O1086 Li1027 1.970 1_455 S
O1086 C1056 1.325 . S
O1087 Li1025 1.961 . S
O1087 Li1026 1.970 1_655 S
O1087 Li1027 1.956 . S
O1087 C1062 1.325 . S
H1088 C1030 0.929 . S
H1089 C1031 0.930 . S
H1090 C1032 0.930 . S
H1091 C1033 0.930 . S
H1092 C1035 0.930 . S
H1093 C1037 0.929 . S
H1094 C1038 0.930 . S
H1095 C1039 0.930 . S
H1096 C1042 0.930 . S
H1097 C1045 0.929 . S
H1098 C1050 0.929 . S
H1099 C1051 0.930 . S
H1100 C1058 0.929 . S
H1101 C1059 0.930 . S
H1102 C1060 0.930 . S
H1103 C1061 0.930 . S
H1104 C1063 0.929 . S
H1105 C1064 0.930 . S
H1106 C1065 0.930 . S
H1107 C1066 0.930 . S
H1108 C1070 0.929 . S
H1109 C1072 0.930 . S
H1110 C1078 0.929 . S
H1111 C1079 0.930 . S
Li1112 N1129 1.990 . S
Li1112 O1172 1.956 . S
Li1112 O1173 1.970 . S
Li1112 O1174 1.961 . S
Li1113 N1137 1.990 . S
Li1113 O1172 1.970 . S
Li1113 O1173 1.956 . S
Li1113 O1175 1.961 . S
Li1114 N1159 1.990 . S
Li1114 O1172 1.961 . S
Li1114 O1174 1.956 . S
Li1114 O1175 1.970 . S
Li1115 N1165 1.990 . S
Li1115 O1173 1.961 . S
Li1115 O1174 1.970 . S
Li1115 O1175 1.956 . S
C1116 C1118 1.348 . S
C1116 C1119 1.356 . S
C1116 O1172 1.325 . S
N1117 C1120 1.314 . S
N1117 C1121 1.279 . S
C1118 C1116 1.348 . S
C1118 C1120 1.353 . S
C1118 H1176 0.929 . S
C1119 C1116 1.356 . S
C1119 C1121 1.358 . S
C1119 H1177 0.930 . S
C1120 N1117 1.314 . S
C1120 C1118 1.353 . S
C1120 H1178 0.930 . S
C1121 N1117 1.279 . S
C1121 C1119 1.358 . S
C1121 H1179 0.930 . S
C1122 C1125 1.348 . S
C1122 C1126 1.356 . S
C1122 O1173 1.325 . S
C1123 N1124 1.279 . S
C1123 C1126 1.358 . S
C1123 H1180 0.930 . S
N1124 C1123 1.279 . S
N1124 C1127 1.314 . S
C1125 C1122 1.348 . S
C1125 C1127 1.353 . S
C1125 H1181 0.929 . S
C1126 C1122 1.356 . S
C1126 C1123 1.358 . S
C1126 H1182 0.930 . S
C1127 N1124 1.314 . S
C1127 C1125 1.353 . S
C1127 H1183 0.930 . S
C1128 N1129 1.314 . S
C1128 C1133 1.353 . S
C1128 H1134 0.930 . S
N1129 Li1112 1.990 . S
N1129 C1128 1.314 . S
N1129 C1131 1.279 . S
C1130 C1131 1.358 . S
C1130 C1132 1.356 . S
C1130 H1184 0.930 . S
C1131 N1129 1.279 . S
C1131 C1130 1.358 . S
C1131 H1135 0.930 . S
C1132 C1130 1.356 . S
C1132 C1133 1.348 . S
C1133 C1128 1.353 . S
C1133 C1132 1.348 . S
C1133 H1185 0.929 . S
H1134 C1128 0.930 . S
H1135 C1131 0.930 . S
C1136 N1137 1.314 . S
C1136 C1138 1.353 . S
C1136 H1142 0.930 . S
N1137 Li1113 1.990 . S
N1137 C1136 1.314 . S
N1137 C1140 1.279 . S
C1138 C1136 1.353 . S
C1138 C1141 1.348 . S
C1138 H1186 0.929 . S
C1139 C1140 1.358 . S
C1139 C1141 1.356 . S
C1139 H1187 0.930 . S
C1140 N1137 1.279 . S
C1140 C1139 1.358 . S
C1140 H1143 0.930 . S
C1141 C1138 1.348 . S
C1141 C1139 1.356 . S
H1142 C1136 0.930 . S
H1143 C1140 0.930 . S
C1144 C1146 1.348 . S
C1144 C1147 1.356 . S
C1144 O1174 1.325 . S
N1145 C1148 1.314 . S
N1145 C1149 1.279 . S
C1146 C1144 1.348 . S
C1146 C1148 1.353 . S
C1146 H1188 0.929 . S
C1147 C1144 1.356 . S
C1147 C1149 1.358 . S
C1147 H1189 0.930 . S
C1148 N1145 1.314 . S
C1148 C1146 1.353 . S
C1148 H1190 0.930 . S
C1149 N1145 1.279 . S
C1149 C1147 1.358 . S
C1149 H1191 0.930 . S
C1150 C1151 1.348 . S
C1150 C1152 1.356 . S
C1150 O1175 1.325 . S
C1151 C1150 1.348 . S
C1151 C1153 1.353 . S
C1151 H1192 0.929 . S
C1152 C1150 1.356 . S
C1152 C1154 1.358 . S
C1152 H1193 0.930 . S
C1153 C1151 1.353 . S
C1153 N1155 1.314 . S
C1153 H1194 0.930 . S
C1154 C1152 1.358 . S
C1154 N1155 1.279 . S
C1154 H1195 0.930 . S
N1155 C1153 1.314 . S
N1155 C1154 1.279 . S
C1156 C1158 1.353 . S
C1156 N1159 1.314 . S
C1156 H1162 0.930 . S
C1157 N1159 1.279 . S
C1157 C1160 1.358 . S
C1157 H1163 0.930 . S
C1158 C1156 1.353 . S
C1158 C1161 1.348 . S
C1158 H1196 0.929 . S
N1159 Li1114 1.990 . S
N1159 C1156 1.314 . S
N1159 C1157 1.279 . S
C1160 C1157 1.358 . S
C1160 C1161 1.356 . S
C1160 H1197 0.930 . S
C1161 C1158 1.348 . S
C1161 C1160 1.356 . S
H1162 C1156 0.930 . S
H1163 C1157 0.930 . S
C1164 N1165 1.314 . S
C1164 C1166 1.353 . S
C1164 H1170 0.930 . S
N1165 Li1115 1.990 . S
N1165 C1164 1.314 . S
N1165 C1168 1.279 . S
C1166 C1164 1.353 . S
C1166 C1169 1.348 . S
C1166 H1198 0.929 . S
C1167 C1168 1.358 . S
C1167 C1169 1.356 . S
C1167 H1199 0.930 . S
C1168 N1165 1.279 . S
C1168 C1167 1.358 . S
C1168 H1171 0.930 . S
C1169 C1166 1.348 . S
C1169 C1167 1.356 . S
H1170 C1164 0.930 . S
H1171 C1168 0.930 . S
O1172 Li1112 1.956 . S
O1172 Li1113 1.970 . S
O1172 Li1114 1.961 . S
O1172 C1116 1.325 . S
O1173 Li1112 1.970 . S
O1173 Li1113 1.956 . S
O1173 Li1115 1.961 . S
O1173 C1122 1.325 . S
O1174 Li1112 1.961 . S
O1174 Li1114 1.956 . S
O1174 Li1115 1.970 . S
O1174 C1144 1.325 . S
O1175 Li1113 1.961 . S
O1175 Li1114 1.970 . S
O1175 Li1115 1.956 . S
O1175 C1150 1.325 . S
H1176 C1118 0.929 . S
H1177 C1119 0.930 . S
H1178 C1120 0.930 . S
H1179 C1121 0.930 . S
H1180 C1123 0.930 . S
H1181 C1125 0.929 . S
H1182 C1126 0.930 . S
H1183 C1127 0.930 . S
H1184 C1130 0.930 . S
H1185 C1133 0.929 . S
H1186 C1138 0.929 . S
H1187 C1139 0.930 . S
H1188 C1146 0.929 . S
H1189 C1147 0.930 . S
H1190 C1148 0.930 . S
H1191 C1149 0.930 . S
H1192 C1151 0.929 . S
H1193 C1152 0.930 . S
H1194 C1153 0.930 . S
H1195 C1154 0.930 . S
H1196 C1158 0.929 . S
H1197 C1160 0.930 . S
H1198 C1166 0.929 . S
H1199 C1167 0.930 . S
H1200 C1208 0.929 . S
H1201 C1210 0.930 . S
H1202 C1212 0.930 . S
H1203 C1215 0.929 . S
H1204 C1218 0.930 . S
H1205 C1220 0.960 . S
H1206 C1220 0.960 . S
H1207 C1220 0.960 . S
C1208 H1200 0.929 . S
C1208 C1209 1.377 . S
C1208 C1210 1.384 . S
C1209 C1208 1.377 . S
C1209 C1215 1.390 . S
C1210 H1201 0.930 . S
C1210 C1208 1.384 . S
C1210 C1211 1.372 . S
C1211 C1210 1.372 . S
C1211 C1212 1.400 . S
C1211 C1216 1.490 . S
C1212 H1202 0.930 . S
C1212 C1211 1.400 . S
C1212 C1215 1.386 . S
H1213 C1229 0.930 . S
H1214 C1230 0.931 . S
C1215 H1203 0.929 . S
C1215 C1209 1.390 . S
C1215 C1212 1.386 . S
C1216 C1211 1.490 . S
C1216 C1218 1.395 . S
C1216 C1219 1.403 . S
H1217 C1223 0.930 . S
C1218 H1204 0.930 . S
C1218 C1216 1.395 . S
C1218 C1221 1.403 . S
C1219 C1216 1.403 . S
C1219 C1220 1.524 . S
C1219 C1223 1.400 . S
C1220 H1205 0.960 . S
C1220 H1206 0.960 . S
C1220 H1207 0.960 . S
C1220 C1219 1.524 . S
C1221 C1218 1.403 . S
C1221 C1222 1.392 . S
C1221 C1225 1.495 . S
C1222 C1221 1.392 . S
C1222 C1223 1.385 . S
C1222 C1224 1.478 . S
C1223 H1217 0.930 . S
C1223 C1219 1.400 . S
C1223 C1222 1.385 . S
C1224 C1222 1.478 . S
C1224 C1226 1.381 . S
C1224 C1230 1.383 . S
C1225 C1221 1.495 . S
C1225 H1231 0.959 . S
C1225 H1232 0.961 . S
C1225 H1233 0.960 . S
C1226 C1224 1.381 . S
C1226 C1227 1.394 . S
C1226 H1234 0.930 . S
C1227 C1226 1.394 . S
C1227 C1228 1.383 . S
C1227 H1235 0.929 . S
C1228 C1227 1.383 . S
C1228 C1229 1.377 . S
C1229 H1213 0.930 . S
C1229 C1228 1.377 . S
C1229 C1230 1.379 . S
C1230 H1214 0.931 . S
C1230 C1224 1.383 . S
C1230 C1229 1.379 . S
H1231 C1225 0.959 . S
H1232 C1225 0.961 . S
H1233 C1225 0.960 . S
H1234 C1226 0.930 . S
H1235 C1227 0.929 . S
H1236 C1244 0.929 . S
H1237 C1246 0.930 . S
H1238 C1248 0.930 . S
H1239 C1251 0.929 . S
H1240 C1254 0.930 . S
H1241 C1256 0.960 . S
H1242 C1256 0.960 . S
H1243 C1256 0.960 . S
C1244 H1236 0.929 . S
C1244 C1245 1.377 1_455 S
C1244 C1246 1.384 . S
C1245 C1244 1.377 1_655 S
C1245 C1251 1.390 . S
C1246 H1237 0.930 . S
C1246 C1244 1.384 . S
C1246 C1247 1.372 . S
C1247 C1246 1.372 . S
C1247 C1248 1.400 1_455 S
C1247 C1252 1.490 . S
C1248 H1238 0.930 . S
C1248 C1247 1.400 1_655 S
C1248 C1251 1.386 . S
H1249 C1265 0.930 . S
H1250 C1266 0.931 . S
C1251 H1239 0.929 . S
C1251 C1245 1.390 . S
C1251 C1248 1.386 . S
C1252 C1247 1.490 . S
C1252 C1254 1.395 . S
C1252 C1255 1.403 . S
H1253 C1259 0.930 . S
C1254 H1240 0.930 . S
C1254 C1252 1.395 . S
C1254 C1257 1.403 . S
C1255 C1252 1.403 . S
C1255 C1256 1.524 . S
C1255 C1259 1.400 . S
C1256 H1241 0.960 . S
C1256 H1242 0.960 . S
C1256 H1243 0.960 . S
C1256 C1255 1.524 . S
C1257 C1254 1.403 . S
C1257 C1258 1.392 . S
C1257 C1261 1.495 . S
C1258 C1257 1.392 . S
C1258 C1259 1.385 . S
C1258 C1260 1.478 . S
C1259 H1253 0.930 . S
C1259 C1255 1.400 . S
C1259 C1258 1.385 . S
C1260 C1258 1.478 . S
C1260 C1262 1.381 . S
C1260 C1266 1.383 . S
C1261 C1257 1.495 . S
C1261 H1267 0.959 . S
C1261 H1268 0.961 . S
C1261 H1269 0.960 . S
C1262 C1260 1.381 . S
C1262 C1263 1.394 . S
C1262 H1270 0.930 . S
C1263 C1262 1.394 . S
C1263 C1264 1.383 . S
C1263 H1271 0.929 . S
C1264 C1263 1.383 . S
C1264 C1265 1.377 . S
C1265 H1249 0.930 . S
C1265 C1264 1.377 . S
C1265 C1266 1.379 . S
C1266 H1250 0.931 . S
C1266 C1260 1.383 . S
C1266 C1265 1.379 . S
H1267 C1261 0.959 . S
H1268 C1261 0.961 . S
H1269 C1261 0.960 . S
H1270 C1262 0.930 . S
H1271 C1263 0.929 . S
H1272 C1280 0.929 . S
H1273 C1282 0.930 . S
H1274 C1284 0.930 . S
H1275 C1287 0.929 . S
H1276 C1290 0.930 . S
H1277 C1292 0.960 . S
H1278 C1292 0.960 . S
H1279 C1292 0.960 . S
C1280 H1272 0.929 . S
C1280 C1281 1.377 . S
C1280 C1282 1.384 . S
C1281 C1280 1.377 . S
C1281 C1287 1.390 . S
C1282 H1273 0.930 . S
C1282 C1280 1.384 . S
C1282 C1283 1.372 . S
C1283 C1282 1.372 . S
C1283 C1284 1.400 . S
C1283 C1288 1.490 . S
C1284 H1274 0.930 . S
C1284 C1283 1.400 . S
C1284 C1287 1.386 . S
H1285 C1301 0.930 . S
H1286 C1302 0.931 . S
C1287 H1275 0.929 . S
C1287 C1281 1.390 . S
C1287 C1284 1.386 . S
C1288 C1283 1.490 . S
C1288 C1290 1.395 . S
C1288 C1291 1.403 . S
H1289 C1295 0.930 . S
C1290 H1276 0.930 . S
C1290 C1288 1.395 . S
C1290 C1293 1.403 . S
C1291 C1288 1.403 . S
C1291 C1292 1.524 . S
C1291 C1295 1.400 . S
C1292 H1277 0.960 . S
C1292 H1278 0.960 . S
C1292 H1279 0.960 . S
C1292 C1291 1.524 . S
C1293 C1290 1.403 . S
C1293 C1294 1.392 . S
C1293 C1297 1.495 . S
C1294 C1293 1.392 . S
C1294 C1295 1.385 . S
C1294 C1296 1.478 . S
C1295 H1289 0.930 . S
C1295 C1291 1.400 . S
C1295 C1294 1.385 . S
C1296 C1294 1.478 . S
C1296 C1298 1.381 . S
C1296 C1302 1.383 . S
C1297 C1293 1.495 . S
C1297 H1303 0.959 . S
C1297 H1304 0.961 . S
C1297 H1305 0.960 . S
C1298 C1296 1.381 . S
C1298 C1299 1.394 . S
C1298 H1306 0.930 . S
C1299 C1298 1.394 . S
C1299 C1300 1.383 . S
C1299 H1307 0.929 . S
C1300 C1299 1.383 . S
C1300 C1301 1.377 . S
C1301 H1285 0.930 . S
C1301 C1300 1.377 . S
C1301 C1302 1.379 . S
C1302 H1286 0.931 . S
C1302 C1296 1.383 . S
C1302 C1301 1.379 . S
H1303 C1297 0.959 . S
H1304 C1297 0.961 . S
H1305 C1297 0.960 . S
H1306 C1298 0.930 . S
H1307 C1299 0.929 . S
H1308 C1316 0.929 . S
H1309 C1318 0.930 . S
H1310 C1320 0.930 1_545 S
H1311 C1323 0.929 . S
H1312 C1326 0.930 . S
H1313 C1328 0.960 1_545 S
H1314 C1328 0.960 . S
H1315 C1328 0.960 1_545 S
C1316 H1308 0.929 . S
C1316 C1317 1.377 . S
C1316 C1318 1.384 1_455 S
C1317 C1316 1.377 . S
C1317 C1323 1.390 . S
C1318 H1309 0.930 . S
C1318 C1316 1.384 1_655 S
C1318 C1319 1.372 . S
C1319 C1318 1.372 . S
C1319 C1320 1.400 . S
C1319 C1324 1.490 . S
C1320 H1310 0.930 1_565 S
C1320 C1319 1.400 . S
C1320 C1323 1.386 1_655 S
H1321 C1337 0.930 . S
H1322 C1338 0.931 1_545 S
C1323 H1311 0.929 . S
C1323 C1317 1.390 . S
C1323 C1320 1.386 1_455 S
C1324 C1319 1.490 . S
C1324 C1326 1.395 . S
C1324 C1327 1.403 . S
H1325 C1331 0.930 . S
C1326 H1312 0.930 . S
C1326 C1324 1.395 . S
C1326 C1329 1.403 . S
C1327 C1324 1.403 . S
C1327 C1328 1.524 1_655 S
C1327 C1331 1.400 . S
C1328 H1313 0.960 1_565 S
C1328 H1314 0.960 . S
C1328 H1315 0.960 1_565 S
C1328 C1327 1.524 1_455 S
C1329 C1326 1.403 . S
C1329 C1330 1.392 . S
C1329 C1333 1.495 . S
C1330 C1329 1.392 . S
C1330 C1331 1.385 . S
C1330 C1332 1.478 . S
C1331 H1325 0.930 . S
C1331 C1327 1.400 . S
C1331 C1330 1.385 . S
C1332 C1330 1.478 . S
C1332 C1334 1.381 . S
C1332 C1338 1.383 . S
C1333 C1329 1.495 . S
C1333 H1339 0.959 . S
C1333 H1340 0.961 . S
C1333 H1341 0.960 . S
C1334 C1332 1.381 . S
C1334 C1335 1.394 . S
C1334 H1342 0.930 . S
C1335 C1334 1.394 . S
C1335 C1336 1.383 . S
C1335 H1343 0.929 . S
C1336 C1335 1.383 . S
C1336 C1337 1.377 1_565 S
C1337 H1321 0.930 . S
C1337 C1336 1.377 1_545 S
C1337 C1338 1.379 1_545 S
C1338 H1322 0.931 1_565 S
C1338 C1332 1.383 . S
C1338 C1337 1.379 1_565 S
H1339 C1333 0.959 . S
H1340 C1333 0.961 . S
H1341 C1333 0.960 . S
H1342 C1334 0.930 . S
H1343 C1335 0.929 . S
H1344 C1352 0.929 . S
H1345 C1354 0.930 . S
H1346 C1356 0.930 . S
H1347 C1359 0.929 . S
H1348 C1362 0.930 . S
H1349 C1364 0.960 . S
H1350 C1364 0.960 . S
H1351 C1364 0.960 . S
C1352 H1344 0.929 . S
C1352 C1353 1.377 . S
C1352 C1354 1.384 . S
C1353 C1352 1.377 . S
C1353 C1359 1.390 . S
C1354 H1345 0.930 . S
C1354 C1352 1.384 . S
C1354 C1355 1.372 . S
C1355 C1354 1.372 . S
C1355 C1356 1.400 . S
C1355 C1360 1.490 . S
C1356 H1346 0.930 . S
C1356 C1355 1.400 . S
C1356 C1359 1.386 . S
H1357 C1373 0.930 . S
H1358 C1374 0.931 . S
C1359 H1347 0.929 . S
C1359 C1353 1.390 . S
C1359 C1356 1.386 . S
C1360 C1355 1.490 . S
C1360 C1362 1.395 . S
C1360 C1363 1.403 . S
H1361 C1367 0.930 . S
C1362 H1348 0.930 . S
C1362 C1360 1.395 . S
C1362 C1365 1.403 . S
C1363 C1360 1.403 . S
C1363 C1364 1.524 . S
C1363 C1367 1.400 . S
C1364 H1349 0.960 . S
C1364 H1350 0.960 . S
C1364 H1351 0.960 . S
C1364 C1363 1.524 . S
C1365 C1362 1.403 . S
C1365 C1366 1.392 . S
C1365 C1369 1.495 . S
C1366 C1365 1.392 . S
C1366 C1367 1.385 . S
C1366 C1368 1.478 . S
C1367 H1361 0.930 . S
C1367 C1363 1.400 . S
C1367 C1366 1.385 . S
C1368 C1366 1.478 . S
C1368 C1370 1.381 . S
C1368 C1374 1.383 . S
C1369 C1365 1.495 . S
C1369 H1375 0.959 . S
C1369 H1376 0.961 . S
C1369 H1377 0.960 . S
C1370 C1368 1.381 . S
C1370 C1371 1.394 . S
C1370 H1378 0.930 . S
C1371 C1370 1.394 . S
C1371 C1372 1.383 . S
C1371 H1379 0.929 . S
C1372 C1371 1.383 . S
C1372 C1373 1.377 . S
C1373 H1357 0.930 . S
C1373 C1372 1.377 . S
C1373 C1374 1.379 . S
C1374 H1358 0.931 . S
C1374 C1368 1.383 . S
C1374 C1373 1.379 . S
H1375 C1369 0.959 . S
H1376 C1369 0.961 . S
H1377 C1369 0.960 . S
H1378 C1370 0.930 . S
H1379 C1371 0.929 . S
H1380 C1388 0.929 . S
H1381 C1390 0.930 . S
H1382 C1392 0.930 . S
H1383 C1395 0.929 . S
H1384 C1398 0.930 . S
H1385 C1400 0.960 . S
H1386 C1400 0.960 . S
H1387 C1400 0.960 . S
C1388 H1380 0.929 . S
C1388 C1389 1.377 . S
C1388 C1390 1.384 . S
C1389 C1388 1.377 . S
C1389 C1395 1.390 . S
C1390 H1381 0.930 . S
C1390 C1388 1.384 . S
C1390 C1391 1.372 . S
C1391 C1390 1.372 . S
C1391 C1392 1.400 . S
C1391 C1396 1.490 . S
C1392 H1382 0.930 . S
C1392 C1391 1.400 . S
C1392 C1395 1.386 . S
H1393 C1409 0.930 . S
H1394 C1410 0.931 . S
C1395 H1383 0.929 . S
C1395 C1389 1.390 . S
C1395 C1392 1.386 . S
C1396 C1391 1.490 . S
C1396 C1398 1.395 . S
C1396 C1399 1.403 . S
H1397 C1403 0.930 . S
C1398 H1384 0.930 . S
C1398 C1396 1.395 . S
C1398 C1401 1.403 . S
C1399 C1396 1.403 . S
C1399 C1400 1.524 . S
C1399 C1403 1.400 . S
C1400 H1385 0.960 . S
C1400 H1386 0.960 . S
C1400 H1387 0.960 . S
C1400 C1399 1.524 . S
C1401 C1398 1.403 . S
C1401 C1402 1.392 . S
C1401 C1405 1.495 . S
C1402 C1401 1.392 . S
C1402 C1403 1.385 . S
C1402 C1404 1.478 . S
C1403 H1397 0.930 . S
C1403 C1399 1.400 . S
C1403 C1402 1.385 . S
C1404 C1402 1.478 . S
C1404 C1406 1.381 . S
C1404 C1410 1.383 . S
C1405 C1401 1.495 . S
C1405 H1411 0.959 . S
C1405 H1412 0.961 . S
C1405 H1413 0.960 . S
C1406 C1404 1.381 . S
C1406 C1407 1.394 . S
C1406 H1414 0.930 . S
C1407 C1406 1.394 . S
C1407 C1408 1.383 . S
C1407 H1415 0.929 . S
C1408 C1407 1.383 . S
C1408 C1409 1.377 . S
C1409 H1393 0.930 . S
C1409 C1408 1.377 . S
C1409 C1410 1.379 . S
C1410 H1394 0.931 . S
C1410 C1404 1.383 . S
C1410 C1409 1.379 . S
H1411 C1405 0.959 . S
H1412 C1405 0.961 . S
H1413 C1405 0.960 . S
H1414 C1406 0.930 . S
H1415 C1407 0.929 . S
H1416 C1424 0.929 . S
H1417 C1426 0.930 . S
H1418 C1428 0.930 . S
H1419 C1431 0.929 . S
H1420 C1434 0.930 . S
H1421 C1436 0.960 . S
H1422 C1436 0.960 . S
H1423 C1436 0.960 . S
C1424 H1416 0.929 . S
C1424 C1425 1.377 . S
C1424 C1426 1.384 . S
C1425 C1424 1.377 . S
C1425 C1431 1.390 . S
C1426 H1417 0.930 . S
C1426 C1424 1.384 . S
C1426 C1427 1.372 . S
C1427 C1426 1.372 . S
C1427 C1428 1.400 . S
C1427 C1432 1.490 . S
C1428 H1418 0.930 . S
C1428 C1427 1.400 . S
C1428 C1431 1.386 . S
H1429 C1445 0.930 . S
H1430 C1446 0.931 . S
C1431 H1419 0.929 . S
C1431 C1425 1.390 . S
C1431 C1428 1.386 . S
C1432 C1427 1.490 . S
C1432 C1434 1.395 . S
C1432 C1435 1.403 . S
H1433 C1439 0.930 . S
C1434 H1420 0.930 . S
C1434 C1432 1.395 . S
C1434 C1437 1.403 . S
C1435 C1432 1.403 . S
C1435 C1436 1.524 . S
C1435 C1439 1.400 . S
C1436 H1421 0.960 . S
C1436 H1422 0.960 . S
C1436 H1423 0.960 . S
C1436 C1435 1.524 . S
C1437 C1434 1.403 . S
C1437 C1438 1.392 . S
C1437 C1441 1.495 . S
C1438 C1437 1.392 . S
C1438 C1439 1.385 . S
C1438 C1440 1.478 . S
C1439 H1433 0.930 . S
C1439 C1435 1.400 . S
C1439 C1438 1.385 . S
C1440 C1438 1.478 . S
C1440 C1442 1.381 . S
C1440 C1446 1.383 . S
C1441 C1437 1.495 . S
C1441 H1447 0.959 . S
C1441 H1448 0.961 . S
C1441 H1449 0.960 . S
C1442 C1440 1.381 . S
C1442 C1443 1.394 . S
C1442 H1450 0.930 . S
C1443 C1442 1.394 . S
C1443 C1444 1.383 . S
C1443 H1451 0.929 . S
C1444 C1443 1.383 . S
C1444 C1445 1.377 . S
C1445 H1429 0.930 . S
C1445 C1444 1.377 . S
C1445 C1446 1.379 . S
C1446 H1430 0.931 . S
C1446 C1440 1.383 . S
C1446 C1445 1.379 . S
H1447 C1441 0.959 . S
H1448 C1441 0.961 . S
H1449 C1441 0.960 . S
H1450 C1442 0.930 . S
H1451 C1443 0.929 . S
H1452 C1460 0.929 . S
H1453 C1462 0.930 . S
H1454 C1464 0.930 . S
H1455 C1467 0.929 . S
H1456 C1470 0.930 1_545 S
H1457 C1472 0.960 . S
H1458 C1472 0.960 . S
H1459 C1472 0.960 . S
C1460 H1452 0.929 . S
C1460 C1461 1.377 . S
C1460 C1462 1.384 . S
C1461 C1460 1.377 . S
C1461 C1467 1.390 . S
C1462 H1453 0.930 . S
C1462 C1460 1.384 . S
C1462 C1463 1.372 . S
C1463 C1462 1.372 . S
C1463 C1464 1.400 . S
C1463 C1468 1.490 . S
C1464 H1454 0.930 . S
C1464 C1463 1.400 . S
C1464 C1467 1.386 . S
H1465 C1481 0.930 . S
H1466 C1482 0.931 . S
C1467 H1455 0.929 . S
C1467 C1461 1.390 . S
C1467 C1464 1.386 . S
C1468 C1463 1.490 . S
C1468 C1470 1.395 . S
C1468 C1471 1.403 . S
H1469 C1475 0.930 . S
C1470 H1456 0.930 1_565 S
C1470 C1468 1.395 . S
C1470 C1473 1.403 . S
C1471 C1468 1.403 . S
C1471 C1472 1.524 . S
C1471 C1475 1.400 . S
C1472 H1457 0.960 . S
C1472 H1458 0.960 . S
C1472 H1459 0.960 . S
C1472 C1471 1.524 . S
C1473 C1470 1.403 . S
C1473 C1474 1.392 . S
C1473 C1477 1.495 1_565 S
C1474 C1473 1.392 . S
C1474 C1475 1.385 . S
C1474 C1476 1.478 . S
C1475 H1469 0.930 . S
C1475 C1471 1.400 . S
C1475 C1474 1.385 . S
C1476 C1474 1.478 . S
C1476 C1478 1.381 . S
C1476 C1482 1.383 . S
C1477 C1473 1.495 1_545 S
C1477 H1483 0.959 . S
C1477 H1484 0.961 . S
C1477 H1485 0.960 . S
C1478 C1476 1.381 . S
C1478 C1479 1.394 . S
C1478 H1486 0.930 . S
C1479 C1478 1.394 . S
C1479 C1480 1.383 . S
C1479 H1487 0.929 . S
C1480 C1479 1.383 . S
C1480 C1481 1.377 . S
C1481 H1465 0.930 . S
C1481 C1480 1.377 . S
C1481 C1482 1.379 . S
C1482 H1466 0.931 . S
C1482 C1476 1.383 . S
C1482 C1481 1.379 . S
H1483 C1477 0.959 . S
H1484 C1477 0.961 . S
H1485 C1477 0.960 . S
H1486 C1478 0.930 . S
H1487 C1479 0.929 . S
H1488 C1496 0.929 . S
H1489 C1498 0.930 . S
H1490 C1500 0.930 . S
H1491 C1503 0.929 . S
H1492 C1506 0.930 . S
H1493 C1508 0.960 . S
H1494 C1508 0.960 . S
H1495 C1508 0.960 . S
C1496 H1488 0.929 . S
C1496 C1497 1.377 . S
C1496 C1498 1.384 . S
C1497 C1496 1.377 . S
C1497 C1503 1.390 . S
C1498 H1489 0.930 . S
C1498 C1496 1.384 . S
C1498 C1499 1.372 . S
C1499 C1498 1.372 . S
C1499 C1500 1.400 . S
C1499 C1504 1.490 . S
C1500 H1490 0.930 . S
C1500 C1499 1.400 . S
C1500 C1503 1.386 . S
H1501 C1517 0.930 . S
H1502 C1518 0.931 . S
C1503 H1491 0.929 . S
C1503 C1497 1.390 . S
C1503 C1500 1.386 . S
C1504 C1499 1.490 . S
C1504 C1506 1.395 . S
C1504 C1507 1.403 . S
H1505 C1511 0.930 . S
C1506 H1492 0.930 . S
C1506 C1504 1.395 . S
C1506 C1509 1.403 . S
C1507 C1504 1.403 . S
C1507 C1508 1.524 . S
C1507 C1511 1.400 . S
C1508 H1493 0.960 . S
C1508 H1494 0.960 . S
C1508 H1495 0.960 . S
C1508 C1507 1.524 . S
C1509 C1506 1.403 . S
C1509 C1510 1.392 . S
C1509 C1513 1.495 . S
C1510 C1509 1.392 . S
C1510 C1511 1.385 . S
C1510 C1512 1.478 . S
C1511 H1505 0.930 . S
C1511 C1507 1.400 . S
C1511 C1510 1.385 . S
C1512 C1510 1.478 . S
C1512 C1514 1.381 . S
C1512 C1518 1.383 . S
C1513 C1509 1.495 . S
C1513 H1519 0.959 . S
C1513 H1520 0.961 . S
C1513 H1521 0.960 . S
C1514 C1512 1.381 . S
C1514 C1515 1.394 . S
C1514 H1522 0.930 . S
C1515 C1514 1.394 . S
C1515 C1516 1.383 . S
C1515 H1523 0.929 . S
C1516 C1515 1.383 . S
C1516 C1517 1.377 . S
C1517 H1501 0.930 . S
C1517 C1516 1.377 . S
C1517 C1518 1.379 . S
C1518 H1502 0.931 . S
C1518 C1512 1.383 . S
C1518 C1517 1.379 . S
H1519 C1513 0.959 . S
H1520 C1513 0.961 . S
H1521 C1513 0.960 . S
H1522 C1514 0.930 . S
H1523 C1515 0.929 . S
H1524 C1532 0.929 . S
H1525 C1534 0.930 . S
H1526 C1536 0.930 . S
H1527 C1539 0.929 . S
H1528 C1542 0.930 . S
H1529 C1544 0.960 . S
H1530 C1544 0.960 . S
H1531 C1544 0.960 . S
C1532 H1524 0.929 . S
C1532 C1533 1.377 . S
C1532 C1534 1.384 . S
C1533 C1532 1.377 . S
C1533 C1539 1.390 . S
C1534 H1525 0.930 . S
C1534 C1532 1.384 . S
C1534 C1535 1.372 . S
C1535 C1534 1.372 . S
C1535 C1536 1.400 . S
C1535 C1540 1.490 . S
C1536 H1526 0.930 . S
C1536 C1535 1.400 . S
C1536 C1539 1.386 . S
H1537 C1553 0.930 . S
H1538 C1554 0.931 . S
C1539 H1527 0.929 . S
C1539 C1533 1.390 . S
C1539 C1536 1.386 . S
C1540 C1535 1.490 . S
C1540 C1542 1.395 . S
C1540 C1543 1.403 . S
H1541 C1547 0.930 . S
C1542 H1528 0.930 . S
C1542 C1540 1.395 . S
C1542 C1545 1.403 . S
C1543 C1540 1.403 . S
C1543 C1544 1.524 . S
C1543 C1547 1.400 . S
C1544 H1529 0.960 . S
C1544 H1530 0.960 . S
C1544 H1531 0.960 . S
C1544 C1543 1.524 . S
C1545 C1542 1.403 . S
C1545 C1546 1.392 . S
C1545 C1549 1.495 . S
C1546 C1545 1.392 . S
C1546 C1547 1.385 . S
C1546 C1548 1.478 . S
C1547 H1541 0.930 . S
C1547 C1543 1.400 . S
C1547 C1546 1.385 . S
C1548 C1546 1.478 . S
C1548 C1550 1.381 . S
C1548 C1554 1.383 . S
C1549 C1545 1.495 . S
C1549 H1555 0.959 . S
C1549 H1556 0.961 . S
C1549 H1557 0.960 . S
C1550 C1548 1.381 . S
C1550 C1551 1.394 . S
C1550 H1558 0.930 . S
C1551 C1550 1.394 . S
C1551 C1552 1.383 . S
C1551 H1559 0.929 . S
C1552 C1551 1.383 . S
C1552 C1553 1.377 . S
C1553 H1537 0.930 . S
C1553 C1552 1.377 . S
C1553 C1554 1.379 . S
C1554 H1538 0.931 . S
C1554 C1548 1.383 . S
C1554 C1553 1.379 . S
H1555 C1549 0.959 . S
H1556 C1549 0.961 . S
H1557 C1549 0.960 . S
H1558 C1550 0.930 . S
H1559 C1551 0.929 . S
H1560 C1568 0.929 . S
H1561 C1570 0.930 . S
H1562 C1572 0.930 . S
H1563 C1575 0.929 . S
H1564 C1578 0.930 . S
H1565 C1580 0.960 . S
H1566 C1580 0.960 . S
H1567 C1580 0.960 . S
C1568 H1560 0.929 . S
C1568 C1569 1.377 . S
C1568 C1570 1.384 . S
C1569 C1568 1.377 . S
C1569 C1575 1.390 . S
C1570 H1561 0.930 . S
C1570 C1568 1.384 . S
C1570 C1571 1.372 . S
C1571 C1570 1.372 . S
C1571 C1572 1.400 . S
C1571 C1576 1.490 . S
C1572 H1562 0.930 . S
C1572 C1571 1.400 . S
C1572 C1575 1.386 . S
H1573 C1589 0.930 . S
H1574 C1590 0.931 . S
C1575 H1563 0.929 . S
C1575 C1569 1.390 . S
C1575 C1572 1.386 . S
C1576 C1571 1.490 . S
C1576 C1578 1.395 . S
C1576 C1579 1.403 . S
H1577 C1583 0.930 . S
C1578 H1564 0.930 . S
C1578 C1576 1.395 . S
C1578 C1581 1.403 . S
C1579 C1576 1.403 . S
C1579 C1580 1.524 . S
C1579 C1583 1.400 . S
C1580 H1565 0.960 . S
C1580 H1566 0.960 . S
C1580 H1567 0.960 . S
C1580 C1579 1.524 . S
C1581 C1578 1.403 . S
C1581 C1582 1.392 . S
C1581 C1585 1.495 . S
C1582 C1581 1.392 . S
C1582 C1583 1.385 . S
C1582 C1584 1.478 . S
C1583 H1577 0.930 . S
C1583 C1579 1.400 . S
C1583 C1582 1.385 . S
C1584 C1582 1.478 . S
C1584 C1586 1.381 . S
C1584 C1590 1.383 . S
C1585 C1581 1.495 . S
C1585 H1591 0.959 . S
C1585 H1592 0.961 . S
C1585 H1593 0.960 . S
C1586 C1584 1.381 . S
C1586 C1587 1.394 . S
C1586 H1594 0.930 . S
C1587 C1586 1.394 . S
C1587 C1588 1.383 . S
C1587 H1595 0.929 . S
C1588 C1587 1.383 . S
C1588 C1589 1.377 . S
C1589 H1573 0.930 . S
C1589 C1588 1.377 . S
C1589 C1590 1.379 . S
C1590 H1574 0.931 . S
C1590 C1584 1.383 . S
C1590 C1589 1.379 . S
H1591 C1585 0.959 . S
H1592 C1585 0.961 . S
H1593 C1585 0.960 . S
H1594 C1586 0.930 . S
H1595 C1587 0.929 . S
H1596 C1604 0.929 . S
H1597 C1606 0.930 . S
H1598 C1608 0.930 . S
H1599 C1611 0.929 . S
H1600 C1614 0.930 . S
H1601 C1616 0.960 . S
H1602 C1616 0.960 . S
H1603 C1616 0.960 . S
C1604 H1596 0.929 . S
C1604 C1605 1.377 . S
C1604 C1606 1.384 . S
C1605 C1604 1.377 . S
C1605 C1611 1.390 . S
C1606 H1597 0.930 . S
C1606 C1604 1.384 . S
C1606 C1607 1.372 . S
C1607 C1606 1.372 . S
C1607 C1608 1.400 . S
C1607 C1612 1.490 . S
C1608 H1598 0.930 . S
C1608 C1607 1.400 . S
C1608 C1611 1.386 . S
H1609 C1625 0.930 . S
H1610 C1626 0.931 . S
C1611 H1599 0.929 . S
C1611 C1605 1.390 . S
C1611 C1608 1.386 . S
C1612 C1607 1.490 . S
C1612 C1614 1.395 . S
C1612 C1615 1.403 . S
H1613 C1619 0.930 . S
C1614 H1600 0.930 . S
C1614 C1612 1.395 . S
C1614 C1617 1.403 . S
C1615 C1612 1.403 . S
C1615 C1616 1.524 . S
C1615 C1619 1.400 . S
C1616 H1601 0.960 . S
C1616 H1602 0.960 . S
C1616 H1603 0.960 . S
C1616 C1615 1.524 . S
C1617 C1614 1.403 . S
C1617 C1618 1.392 . S
C1617 C1621 1.495 . S
C1618 C1617 1.392 . S
C1618 C1619 1.385 . S
C1618 C1620 1.478 . S
C1619 H1613 0.930 . S
C1619 C1615 1.400 . S
C1619 C1618 1.385 . S
C1620 C1618 1.478 . S
C1620 C1622 1.381 . S
C1620 C1626 1.383 . S
C1621 C1617 1.495 . S
C1621 H1627 0.959 . S
C1621 H1628 0.961 . S
C1621 H1629 0.960 . S
C1622 C1620 1.381 . S
C1622 C1623 1.394 . S
C1622 H1630 0.930 . S
C1623 C1622 1.394 . S
C1623 C1624 1.383 . S
C1623 H1631 0.929 . S
C1624 C1623 1.383 . S
C1624 C1625 1.377 . S
C1625 H1609 0.930 . S
C1625 C1624 1.377 . S
C1625 C1626 1.379 . S
C1626 H1610 0.931 . S
C1626 C1620 1.383 . S
C1626 C1625 1.379 . S
H1627 C1621 0.959 . S
H1628 C1621 0.961 . S
H1629 C1621 0.960 . S
H1630 C1622 0.930 . S
H1631 C1623 0.929 . S
H1632 C1640 0.929 . S
H1633 C1642 0.930 . S
H1634 C1644 0.930 . S
H1635 C1647 0.929 . S
H1636 C1650 0.930 . S
H1637 C1652 0.960 . S
H1638 C1652 0.960 . S
H1639 C1652 0.960 . S
C1640 H1632 0.929 . S
C1640 C1641 1.377 . S
C1640 C1642 1.384 . S
C1641 C1640 1.377 . S
C1641 C1647 1.390 . S
C1642 H1633 0.930 . S
C1642 C1640 1.384 . S
C1642 C1643 1.372 . S
C1643 C1642 1.372 . S
C1643 C1644 1.400 . S
C1643 C1648 1.490 . S
C1644 H1634 0.930 . S
C1644 C1643 1.400 . S
C1644 C1647 1.386 . S
H1645 C1661 0.930 . S
H1646 C1662 0.931 . S
C1647 H1635 0.929 . S
C1647 C1641 1.390 . S
C1647 C1644 1.386 . S
C1648 C1643 1.490 . S
C1648 C1650 1.395 . S
C1648 C1651 1.403 . S
H1649 C1655 0.930 . S
C1650 H1636 0.930 . S
C1650 C1648 1.395 . S
C1650 C1653 1.403 . S
C1651 C1648 1.403 . S
C1651 C1652 1.524 . S
C1651 C1655 1.400 . S
C1652 H1637 0.960 . S
C1652 H1638 0.960 . S
C1652 H1639 0.960 . S
C1652 C1651 1.524 . S
C1653 C1650 1.403 . S
C1653 C1654 1.392 . S
C1653 C1657 1.495 . S
C1654 C1653 1.392 . S
C1654 C1655 1.385 . S
C1654 C1656 1.478 . S
C1655 H1649 0.930 . S
C1655 C1651 1.400 . S
C1655 C1654 1.385 . S
C1656 C1654 1.478 . S
C1656 C1658 1.381 . S
C1656 C1662 1.383 . S
C1657 C1653 1.495 . S
C1657 H1663 0.959 . S
C1657 H1664 0.961 . S
C1657 H1665 0.960 . S
C1658 C1656 1.381 . S
C1658 C1659 1.394 . S
C1658 H1666 0.930 . S
C1659 C1658 1.394 . S
C1659 C1660 1.383 . S
C1659 H1667 0.929 . S
C1660 C1659 1.383 . S
C1660 C1661 1.377 . S
C1661 H1645 0.930 . S
C1661 C1660 1.377 . S
C1661 C1662 1.379 . S
C1662 H1646 0.931 . S
C1662 C1656 1.383 . S
C1662 C1661 1.379 . S
H1663 C1657 0.959 . S
H1664 C1657 0.961 . S
H1665 C1657 0.960 . S
H1666 C1658 0.930 . S
H1667 C1659 0.929 . S
H1668 C1676 0.929 . S
H1669 C1678 0.930 1_655 S
H1670 C1680 0.930 . S
H1671 C1683 0.929 . S
H1672 C1686 0.930 . S
H1673 C1688 0.960 . S
H1674 C1688 0.960 . S
H1675 C1688 0.960 . S
C1676 H1668 0.929 . S
C1676 C1677 1.377 . S
C1676 C1678 1.384 . S
C1677 C1676 1.377 . S
C1677 C1683 1.390 . S
C1678 H1669 0.930 1_455 S
C1678 C1676 1.384 . S
C1678 C1679 1.372 . S
C1679 C1678 1.372 . S
C1679 C1680 1.400 . S
C1679 C1684 1.490 . S
C1680 H1670 0.930 . S
C1680 C1679 1.400 . S
C1680 C1683 1.386 . S
H1681 C1697 0.930 . S
H1682 C1698 0.931 . S
C1683 H1671 0.929 . S
C1683 C1677 1.390 . S
C1683 C1680 1.386 . S
C1684 C1679 1.490 . S
C1684 C1686 1.395 . S
C1684 C1687 1.403 . S
H1685 C1691 0.930 . S
C1686 H1672 0.930 . S
C1686 C1684 1.395 . S
C1686 C1689 1.403 . S
C1687 C1684 1.403 . S
C1687 C1688 1.524 . S
C1687 C1691 1.400 . S
C1688 H1673 0.960 . S
C1688 H1674 0.960 . S
C1688 H1675 0.960 . S
C1688 C1687 1.524 . S
C1689 C1686 1.403 . S
C1689 C1690 1.392 . S
C1689 C1693 1.495 . S
C1690 C1689 1.392 . S
C1690 C1691 1.385 . S
C1690 C1692 1.478 . S
C1691 H1685 0.930 . S
C1691 C1687 1.400 . S
C1691 C1690 1.385 . S
C1692 C1690 1.478 . S
C1692 C1694 1.381 1_455 S
C1692 C1698 1.383 . S
C1693 C1689 1.495 . S
C1693 H1699 0.976 . S
C1693 H1700 0.961 . S
C1693 H1701 0.960 1_455 S
C1694 C1692 1.381 1_655 S
C1694 C1695 1.394 . S
C1694 H1702 0.930 . S
C1695 C1694 1.394 . S
C1695 C1696 1.383 1_655 S
C1695 H1703 0.929 . S
C1696 C1695 1.383 1_455 S
C1696 C1697 1.377 . S
C1697 H1681 0.930 . S
C1697 C1696 1.377 . S
C1697 C1698 1.379 . S
C1698 H1682 0.931 . S
C1698 C1692 1.383 . S
C1698 C1697 1.379 . S
H1699 C1693 0.976 . S
H1700 C1693 0.961 . S
H1701 C1693 0.960 1_655 S
H1702 C1694 0.930 . S
H1703 C1695 0.929 . S
H1704 C1712 0.929 . S
H1705 C1714 0.930 . S
H1706 C1716 0.930 . S
H1707 C1719 0.929 . S
H1708 C1722 0.930 . S
H1709 C1724 0.960 . S
H1710 C1724 0.960 . S
H1711 C1724 0.960 . S
C1712 H1704 0.929 . S
C1712 C1713 1.377 . S
C1712 C1714 1.384 . S
C1713 C1712 1.377 . S
C1713 C1719 1.390 . S
C1714 H1705 0.930 . S
C1714 C1712 1.384 . S
C1714 C1715 1.372 . S
C1715 C1714 1.372 . S
C1715 C1716 1.400 . S
C1715 C1720 1.490 . S
C1716 H1706 0.930 . S
C1716 C1715 1.400 . S
C1716 C1719 1.386 . S
H1717 C1733 0.930 . S
H1718 C1734 0.931 . S
C1719 H1707 0.929 . S
C1719 C1713 1.390 . S
C1719 C1716 1.386 . S
C1720 C1715 1.490 . S
C1720 C1722 1.395 . S
C1720 C1723 1.403 . S
H1721 C1727 0.930 . S
C1722 H1708 0.930 . S
C1722 C1720 1.395 . S
C1722 C1725 1.403 . S
C1723 C1720 1.403 . S
C1723 C1724 1.524 . S
C1723 C1727 1.400 . S
C1724 H1709 0.960 . S
C1724 H1710 0.960 . S
C1724 H1711 0.960 . S
C1724 C1723 1.524 . S
C1725 C1722 1.403 . S
C1725 C1726 1.392 . S
C1725 C1729 1.495 . S
C1726 C1725 1.392 . S
C1726 C1727 1.385 . S
C1726 C1728 1.478 . S
C1727 H1721 0.930 . S
C1727 C1723 1.400 . S
C1727 C1726 1.385 . S
C1728 C1726 1.478 . S
C1728 C1730 1.381 . S
C1728 C1734 1.383 . S
C1729 C1725 1.495 . S
C1729 H1735 0.959 . S
C1729 H1736 0.961 . S
C1729 H1737 0.960 . S
C1730 C1728 1.381 . S
C1730 C1731 1.394 . S
C1730 H1738 0.930 . S
C1731 C1730 1.394 . S
C1731 C1732 1.383 . S
C1731 H1739 0.929 . S
C1732 C1731 1.383 . S
C1732 C1733 1.377 . S
C1733 H1717 0.930 . S
C1733 C1732 1.377 . S
C1733 C1734 1.379 . S
C1734 H1718 0.931 . S
C1734 C1728 1.383 . S
C1734 C1733 1.379 . S
H1735 C1729 0.959 . S
H1736 C1729 0.961 . S
H1737 C1729 0.960 . S
H1738 C1730 0.930 . S
H1739 C1731 0.929 . S
H1740 C1748 0.929 . S
H1741 C1750 0.930 . S
H1742 C1752 0.930 . S
H1743 C1755 0.929 . S
H1744 C1758 0.930 . S
H1745 C1760 0.960 . S
H1746 C1760 0.960 1_455 S
H1747 C1760 0.960 . S
C1748 H1740 0.929 . S
C1748 C1749 1.377 . S
C1748 C1750 1.384 . S
C1749 C1748 1.377 . S
C1749 C1755 1.390 . S
C1750 H1741 0.930 . S
C1750 C1748 1.384 . S
C1750 C1751 1.372 . S
C1751 C1750 1.372 . S
C1751 C1752 1.400 . S
C1751 C1756 1.490 . S
C1752 H1742 0.930 . S
C1752 C1751 1.400 . S
C1752 C1755 1.386 . S
H1753 C1769 0.930 . S
H1754 C1770 0.931 . S
C1755 H1743 0.929 . S
C1755 C1749 1.390 . S
C1755 C1752 1.386 . S
C1756 C1751 1.490 . S
C1756 C1758 1.395 . S
C1756 C1759 1.403 . S
H1757 C1763 0.930 . S
C1758 H1744 0.930 . S
C1758 C1756 1.395 . S
C1758 C1761 1.403 . S
C1759 C1756 1.403 . S
C1759 C1760 1.524 . S
C1759 C1763 1.400 . S
C1760 H1745 0.960 . S
C1760 H1746 0.960 1_655 S
C1760 H1747 0.960 . S
C1760 C1759 1.524 . S
C1761 C1758 1.403 . S
C1761 C1762 1.392 . S
C1761 C1765 1.495 . S
C1762 C1761 1.392 . S
C1762 C1763 1.385 . S
C1762 C1764 1.478 . S
C1763 H1757 0.930 . S
C1763 C1759 1.400 . S
C1763 C1762 1.385 . S
C1764 C1762 1.478 . S
C1764 C1766 1.381 . S
C1764 C1770 1.383 . S
C1765 C1761 1.495 . S
C1765 H1771 0.959 . S
C1765 H1772 0.961 . S
C1765 H1773 0.960 . S
C1766 C1764 1.381 . S
C1766 C1767 1.394 . S
C1766 H1774 0.915 1_655 S
C1767 C1766 1.394 . S
C1767 C1768 1.383 . S
C1767 H1775 0.929 1_655 S
C1768 C1767 1.383 . S
C1768 C1769 1.377 . S
C1769 H1753 0.930 . S
C1769 C1768 1.377 . S
C1769 C1770 1.379 . S
C1770 H1754 0.931 . S
C1770 C1764 1.383 . S
C1770 C1769 1.379 . S
H1771 C1765 0.959 . S
H1772 C1765 0.961 . S
H1773 C1765 0.960 . S
H1774 C1766 0.915 1_455 S
H1775 C1767 0.929 1_455 S
H1776 C1784 0.929 . S
H1777 C1786 0.930 . S
H1778 C1788 0.930 . S
H1779 C1791 0.929 . S
H1780 C1794 0.930 . S
H1781 C1796 0.960 . S
H1782 C1796 0.960 . S
H1783 C1796 0.960 . S
C1784 H1776 0.929 . S
C1784 C1785 1.377 . S
C1784 C1786 1.384 . S
C1785 C1784 1.377 . S
C1785 C1791 1.390 . S
C1786 H1777 0.930 . S
C1786 C1784 1.384 . S
C1786 C1787 1.372 . S
C1787 C1786 1.372 . S
C1787 C1788 1.400 . S
C1787 C1792 1.490 . S
C1788 H1778 0.930 . S
C1788 C1787 1.400 . S
C1788 C1791 1.386 . S
H1789 C1805 0.930 . S
H1790 C1806 0.931 . S
C1791 H1779 0.929 . S
C1791 C1785 1.390 . S
C1791 C1788 1.386 . S
C1792 C1787 1.490 . S
C1792 C1794 1.395 . S
C1792 C1795 1.403 . S
H1793 C1799 0.930 . S
C1794 H1780 0.930 . S
C1794 C1792 1.395 . S
C1794 C1797 1.403 . S
C1795 C1792 1.403 . S
C1795 C1796 1.524 . S
C1795 C1799 1.400 . S
C1796 H1781 0.960 . S
C1796 H1782 0.960 . S
C1796 H1783 0.960 . S
C1796 C1795 1.524 . S
C1797 C1794 1.403 . S
C1797 C1798 1.392 . S
C1797 C1801 1.495 . S
C1798 C1797 1.392 . S
C1798 C1799 1.385 . S
C1798 C1800 1.478 . S
C1799 H1793 0.930 . S
C1799 C1795 1.400 . S
C1799 C1798 1.385 . S
C1800 C1798 1.478 . S
C1800 C1802 1.381 . S
C1800 C1806 1.383 . S
C1801 C1797 1.495 . S
C1801 H1807 0.959 . S
C1801 H1808 0.961 . S
C1801 H1809 0.960 . S
C1802 C1800 1.381 . S
C1802 C1803 1.394 . S
C1802 H1810 0.930 . S
C1803 C1802 1.394 . S
C1803 C1804 1.383 . S
C1803 H1811 0.929 . S
C1804 C1803 1.383 . S
C1804 C1805 1.377 . S
C1805 H1789 0.930 . S
C1805 C1804 1.377 . S
C1805 C1806 1.379 . S
C1806 H1790 0.931 . S
C1806 C1800 1.383 . S
C1806 C1805 1.379 . S
H1807 C1801 0.959 . S
H1808 C1801 0.961 . S
H1809 C1801 0.960 . S
H1810 C1802 0.930 . S
H1811 C1803 0.929 . S
H1812 C1820 0.929 . S
H1813 C1822 0.930 . S
H1814 C1824 0.930 . S
H1815 C1827 0.929 . S
H1816 C1830 0.930 . S
H1817 C1832 0.960 . S
H1818 C1832 0.960 . S
H1819 C1832 0.960 . S
C1820 H1812 0.929 . S
C1820 C1821 1.377 . S
C1820 C1822 1.384 . S
C1821 C1820 1.377 . S
C1821 C1827 1.390 . S
C1822 H1813 0.930 . S
C1822 C1820 1.384 . S
C1822 C1823 1.372 . S
C1823 C1822 1.372 . S
C1823 C1824 1.400 . S
C1823 C1828 1.490 . S
C1824 H1814 0.930 . S
C1824 C1823 1.400 . S
C1824 C1827 1.386 . S
H1825 C1841 0.930 . S
H1826 C1842 0.931 . S
C1827 H1815 0.929 . S
C1827 C1821 1.390 . S
C1827 C1824 1.386 . S
C1828 C1823 1.490 . S
C1828 C1830 1.395 . S
C1828 C1831 1.403 . S
H1829 C1835 0.930 . S
C1830 H1816 0.930 . S
C1830 C1828 1.395 . S
C1830 C1833 1.403 . S
C1831 C1828 1.403 . S
C1831 C1832 1.524 . S
C1831 C1835 1.400 . S
C1832 H1817 0.960 . S
C1832 H1818 0.960 . S
C1832 H1819 0.960 . S
C1832 C1831 1.524 . S
C1833 C1830 1.403 . S
C1833 C1834 1.392 . S
C1833 C1837 1.495 . S
C1834 C1833 1.392 . S
C1834 C1835 1.385 . S
C1834 C1836 1.478 . S
C1835 H1829 0.930 . S
C1835 C1831 1.400 . S
C1835 C1834 1.385 . S
C1836 C1834 1.478 . S
C1836 C1838 1.381 . S
C1836 C1842 1.383 . S
C1837 C1833 1.495 . S
C1837 H1843 0.959 . S
C1837 H1844 0.961 . S
C1837 H1845 0.960 . S
C1838 C1836 1.381 . S
C1838 C1839 1.394 . S
C1838 H1846 0.930 . S
C1839 C1838 1.394 . S
C1839 C1840 1.383 . S
C1839 H1847 0.929 . S
C1840 C1839 1.383 . S
C1840 C1841 1.377 . S
C1841 H1825 0.930 . S
C1841 C1840 1.377 . S
C1841 C1842 1.379 . S
C1842 H1826 0.931 . S
C1842 C1836 1.383 . S
C1842 C1841 1.379 . S
H1843 C1837 0.959 . S
H1844 C1837 0.961 . S
H1845 C1837 0.960 . S
H1846 C1838 0.930 . S
H1847 C1839 0.929 . S
H1848 C1856 0.929 . S
H1849 C1858 0.930 . S
H1850 C1860 0.930 . S
H1851 C1863 0.929 . S
H1852 C1866 0.930 . S
H1853 C1868 0.960 . S
H1854 C1868 0.960 . S
H1855 C1868 0.960 1_545 S
C1856 H1848 0.929 . S
C1856 C1857 1.377 1_565 S
C1856 C1858 1.384 . S
C1857 C1856 1.377 1_545 S
C1857 C1863 1.390 . S
C1858 H1849 0.930 . S
C1858 C1856 1.384 . S
C1858 C1859 1.372 . S
C1859 C1858 1.372 . S
C1859 C1860 1.400 1_565 S
C1859 C1864 1.490 . S
C1860 H1850 0.930 . S
C1860 C1859 1.400 1_545 S
C1860 C1863 1.386 . S
H1861 C1877 0.930 . S
H1862 C1878 0.931 . S
C1863 H1851 0.929 . S
C1863 C1857 1.390 . S
C1863 C1860 1.386 . S
C1864 C1859 1.490 . S
C1864 C1866 1.395 . S
C1864 C1867 1.403 . S
H1865 C1871 0.930 . S
C1866 H1852 0.930 . S
C1866 C1864 1.395 . S
C1866 C1869 1.403 . S
C1867 C1864 1.403 . S
C1867 C1868 1.524 . S
C1867 C1871 1.400 . S
C1868 H1853 0.960 . S
C1868 H1854 0.960 . S
C1868 H1855 0.960 1_565 S
C1868 C1867 1.524 . S
C1869 C1866 1.403 . S
C1869 C1870 1.392 . S
C1869 C1873 1.495 1_556 S
C1870 C1869 1.392 . S
C1870 C1871 1.385 . S
C1870 C1872 1.478 . S
C1871 H1865 0.930 . S
C1871 C1867 1.400 . S
C1871 C1870 1.385 . S
C1872 C1870 1.478 . S
C1872 C1874 1.381 . S
C1872 C1878 1.383 . S
C1873 C1869 1.495 1_554 S
C1873 H1879 0.959 . S
C1873 H1880 0.961 . S
C1873 H1881 0.960 . S
C1874 C1872 1.381 . S
C1874 C1875 1.394 . S
C1874 H1882 0.930 . S
C1875 C1874 1.394 . S
C1875 C1876 1.383 . S
C1875 H1883 0.929 . S
C1876 C1875 1.383 . S
C1876 C1877 1.377 . S
C1877 H1861 0.930 . S
C1877 C1876 1.377 . S
C1877 C1878 1.379 . S
C1878 H1862 0.931 . S
C1878 C1872 1.383 . S
C1878 C1877 1.379 . S
H1879 C1873 0.959 . S
H1880 C1873 0.961 . S
H1881 C1873 0.960 . S
H1882 C1874 0.930 . S
H1883 C1875 0.929 . S
H1884 C1892 0.929 . S
H1885 C1894 0.930 . S
H1886 C1896 0.930 . S
H1887 C1899 0.929 . S
H1888 C1902 0.930 . S
H1889 C1904 0.960 . S
H1890 C1904 0.960 . S
H1891 C1904 0.960 . S
C1892 H1884 0.929 . S
C1892 C1893 1.377 . S
C1892 C1894 1.384 . S
C1893 C1892 1.377 . S
C1893 C1899 1.390 . S
C1894 H1885 0.930 . S
C1894 C1892 1.384 . S
C1894 C1895 1.372 . S
C1895 C1894 1.372 . S
C1895 C1896 1.400 . S
C1895 C1900 1.490 . S
C1896 H1886 0.930 . S
C1896 C1895 1.400 . S
C1896 C1899 1.386 . S
H1897 C1913 0.930 . S
H1898 C1914 0.931 . S
C1899 H1887 0.929 . S
C1899 C1893 1.390 . S
C1899 C1896 1.386 . S
C1900 C1895 1.490 . S
C1900 C1902 1.395 . S
C1900 C1903 1.403 . S
H1901 C1907 0.930 . S
C1902 H1888 0.930 . S
C1902 C1900 1.395 . S
C1902 C1905 1.403 . S
C1903 C1900 1.403 . S
C1903 C1904 1.524 . S
C1903 C1907 1.400 . S
C1904 H1889 0.960 . S
C1904 H1890 0.960 . S
C1904 H1891 0.960 . S
C1904 C1903 1.524 . S
C1905 C1902 1.403 . S
C1905 C1906 1.392 . S
C1905 C1909 1.495 . S
C1906 C1905 1.392 . S
C1906 C1907 1.385 . S
C1906 C1908 1.478 . S
C1907 H1901 0.930 . S
C1907 C1903 1.400 . S
C1907 C1906 1.385 . S
C1908 C1906 1.478 . S
C1908 C1910 1.381 . S
C1908 C1914 1.383 . S
C1909 C1905 1.495 . S
C1909 H1915 0.959 . S
C1909 H1916 0.961 . S
C1909 H1917 0.960 . S
C1910 C1908 1.381 . S
C1910 C1911 1.394 . S
C1910 H1918 0.930 . S
C1911 C1910 1.394 . S
C1911 C1912 1.383 . S
C1911 H1919 0.929 . S
C1912 C1911 1.383 . S
C1912 C1913 1.377 . S
C1913 H1897 0.930 . S
C1913 C1912 1.377 . S
C1913 C1914 1.379 . S
C1914 H1898 0.931 . S
C1914 C1908 1.383 . S
C1914 C1913 1.379 . S
H1915 C1909 0.959 . S
H1916 C1909 0.961 . S
H1917 C1909 0.960 . S
H1918 C1910 0.930 . S
H1919 C1911 0.929 . S
H1920 C1928 0.929 . S
H1921 C1930 0.930 . S
H1922 C1932 0.930 . S
H1923 C1935 0.929 . S
H1924 C1938 0.930 . S
H1925 C1940 0.960 . S
H1926 C1940 0.960 . S
H1927 C1940 0.960 . S
C1928 H1920 0.929 . S
C1928 C1929 1.377 . S
C1928 C1930 1.384 . S
C1929 C1928 1.377 . S
C1929 C1935 1.390 1_565 S
C1930 H1921 0.930 . S
C1930 C1928 1.384 . S
C1930 C1931 1.372 1_565 S
C1931 C1930 1.372 1_545 S
C1931 C1932 1.400 . S
C1931 C1936 1.490 . S
C1932 H1922 0.930 . S
C1932 C1931 1.400 . S
C1932 C1935 1.386 . S
H1933 C1949 0.930 . S
H1934 C1950 0.931 . S
C1935 H1923 0.929 . S
C1935 C1929 1.390 1_545 S
C1935 C1932 1.386 . S
C1936 C1931 1.490 . S
C1936 C1938 1.395 . S
C1936 C1939 1.403 . S
H1937 C1943 0.930 . S
C1938 H1924 0.930 . S
C1938 C1936 1.395 . S
C1938 C1941 1.403 . S
C1939 C1936 1.403 . S
C1939 C1940 1.524 . S
C1939 C1943 1.400 . S
C1940 H1925 0.960 . S
C1940 H1926 0.960 . S
C1940 H1927 0.960 . S
C1940 C1939 1.524 . S
C1941 C1938 1.403 . S
C1941 C1942 1.392 . S
C1941 C1945 1.495 . S
C1942 C1941 1.392 . S
C1942 C1943 1.385 . S
C1942 C1944 1.478 . S
C1943 H1937 0.930 . S
C1943 C1939 1.400 . S
C1943 C1942 1.385 . S
C1944 C1942 1.478 . S
C1944 C1946 1.381 . S
C1944 C1950 1.383 . S
C1945 C1941 1.495 . S
C1945 H1951 0.984 . S
C1945 H1952 0.961 . S
C1945 H1953 0.960 . S
C1946 C1944 1.381 . S
C1946 C1947 1.394 . S
C1946 H1954 0.930 . S
C1947 C1946 1.394 . S
C1947 C1948 1.383 . S
C1947 H1955 0.929 . S
C1948 C1947 1.383 . S
C1948 C1949 1.377 . S
C1949 H1933 0.930 . S
C1949 C1948 1.377 . S
C1949 C1950 1.379 . S
C1950 H1934 0.931 . S
C1950 C1944 1.383 . S
C1950 C1949 1.379 . S
H1951 C1945 0.984 . S
H1952 C1945 0.961 . S
H1953 C1945 0.960 . S
H1954 C1946 0.930 . S
H1955 C1947 0.929 . S
H1956 C1964 0.929 . S
H1957 C1966 0.930 . S
H1958 C1968 0.930 . S
H1959 C1971 0.929 . S
H1960 C1974 0.930 . S
H1961 C1976 0.960 . S
H1962 C1976 0.960 . S
H1963 C1976 0.960 . S
C1964 H1956 0.929 . S
C1964 C1965 1.377 . S
C1964 C1966 1.384 . S
C1965 C1964 1.377 . S
C1965 C1971 1.390 . S
C1966 H1957 0.930 . S
C1966 C1964 1.384 . S
C1966 C1967 1.372 . S
C1967 C1966 1.372 . S
C1967 C1968 1.400 . S
C1967 C1972 1.490 . S
C1968 H1958 0.930 . S
C1968 C1967 1.400 . S
C1968 C1971 1.386 . S
H1969 C1985 0.930 . S
H1970 C1986 0.931 . S
C1971 H1959 0.929 . S
C1971 C1965 1.390 . S
C1971 C1968 1.386 . S
C1972 C1967 1.490 . S
C1972 C1974 1.395 . S
C1972 C1975 1.403 . S
H1973 C1979 0.930 . S
C1974 H1960 0.930 . S
C1974 C1972 1.395 . S
C1974 C1977 1.403 . S
C1975 C1972 1.403 . S
C1975 C1976 1.524 . S
C1975 C1979 1.400 . S
C1976 H1961 0.960 . S
C1976 H1962 0.960 . S
C1976 H1963 0.960 . S
C1976 C1975 1.524 . S
C1977 C1974 1.403 . S
C1977 C1978 1.392 . S
C1977 C1981 1.495 . S
C1978 C1977 1.392 . S
C1978 C1979 1.385 . S
C1978 C1980 1.478 . S
C1979 H1973 0.930 . S
C1979 C1975 1.400 . S
C1979 C1978 1.385 . S
C1980 C1978 1.478 . S
C1980 C1982 1.381 . S
C1980 C1986 1.383 . S
C1981 C1977 1.495 . S
C1981 H1987 0.959 . S
C1981 H1988 0.961 . S
C1981 H1989 0.960 . S
C1982 C1980 1.381 . S
C1982 C1983 1.394 . S
C1982 H1990 0.930 . S
C1983 C1982 1.394 . S
C1983 C1984 1.383 . S
C1983 H1991 0.929 . S
C1984 C1983 1.383 . S
C1984 C1985 1.377 . S
C1985 H1969 0.930 . S
C1985 C1984 1.377 . S
C1985 C1986 1.379 . S
C1986 H1970 0.931 . S
C1986 C1980 1.383 . S
C1986 C1985 1.379 . S
H1987 C1981 0.959 . S
H1988 C1981 0.961 . S
H1989 C1981 0.960 . S
H1990 C1982 0.930 . S
H1991 C1983 0.929 . S
H1992 C2000 0.929 . S
H1993 C2002 0.930 . S
H1994 C2004 0.930 . S
H1995 C2007 0.929 . S
H1996 C2010 0.930 . S
H1997 C2012 0.960 . S
H1998 C2012 0.960 . S
H1999 C2012 0.960 . S
C2000 H1992 0.929 . S
C2000 C2001 1.377 . S
C2000 C2002 1.384 . S
C2001 C2000 1.377 . S
C2001 C2007 1.390 1_565 S
C2002 H1993 0.930 . S
C2002 C2000 1.384 . S
C2002 C2003 1.372 1_565 S
C2003 C2002 1.372 1_545 S
C2003 C2004 1.400 . S
C2003 C2008 1.490 . S
C2004 H1994 0.930 . S
C2004 C2003 1.400 . S
C2004 C2007 1.386 . S
H2005 C2021 0.930 . S
H2006 C2022 0.931 . S
C2007 H1995 0.929 . S
C2007 C2001 1.390 1_545 S
C2007 C2004 1.386 . S
C2008 C2003 1.490 . S
C2008 C2010 1.395 . S
C2008 C2011 1.403 . S
H2009 C2015 0.930 . S
C2010 H1996 0.930 . S
C2010 C2008 1.395 . S
C2010 C2013 1.403 . S
C2011 C2008 1.403 . S
C2011 C2012 1.524 . S
C2011 C2015 1.400 . S
C2012 H1997 0.960 . S
C2012 H1998 0.960 . S
C2012 H1999 0.960 . S
C2012 C2011 1.524 . S
C2013 C2010 1.403 . S
C2013 C2014 1.392 . S
C2013 C2017 1.495 . S
C2014 C2013 1.392 . S
C2014 C2015 1.385 . S
C2014 C2016 1.478 . S
C2015 H2009 0.930 . S
C2015 C2011 1.400 . S
C2015 C2014 1.385 . S
C2016 C2014 1.478 . S
C2016 C2018 1.381 . S
C2016 C2022 1.383 . S
C2017 C2013 1.495 . S
C2017 H2023 0.959 . S
C2017 H2024 0.961 . S
C2017 H2025 0.960 . S
C2018 C2016 1.381 . S
C2018 C2019 1.394 . S
C2018 H2026 0.930 . S
C2019 C2018 1.394 . S
C2019 C2020 1.383 . S
C2019 H2027 0.929 . S
C2020 C2019 1.383 . S
C2020 C2021 1.377 . S
C2021 H2005 0.930 . S
C2021 C2020 1.377 . S
C2021 C2022 1.379 . S
C2022 H2006 0.931 . S
C2022 C2016 1.383 . S
C2022 C2021 1.379 . S
H2023 C2017 0.959 . S
H2024 C2017 0.961 . S
H2025 C2017 0.960 . S
H2026 C2018 0.930 . S
H2027 C2019 0.929 . S
H2028 C2036 0.929 . S
H2029 C2038 0.930 . S
H2030 C2040 0.930 . S
H2031 C2043 0.929 . S
H2032 C2046 0.930 . S
H2033 C2048 0.960 . S
H2034 C2048 0.960 . S
H2035 C2048 0.960 . S
C2036 H2028 0.929 . S
C2036 C2037 1.377 . S
C2036 C2038 1.384 . S
C2037 C2036 1.377 . S
C2037 C2043 1.390 . S
C2038 H2029 0.930 . S
C2038 C2036 1.384 . S
C2038 C2039 1.372 . S
C2039 C2038 1.372 . S
C2039 C2040 1.400 . S
C2039 C2044 1.490 . S
C2040 H2030 0.930 . S
C2040 C2039 1.400 . S
C2040 C2043 1.386 . S
H2041 C2057 0.930 . S
H2042 C2058 0.931 . S
C2043 H2031 0.929 . S
C2043 C2037 1.390 . S
C2043 C2040 1.386 . S
C2044 C2039 1.490 . S
C2044 C2046 1.395 . S
C2044 C2047 1.403 . S
H2045 C2051 0.930 . S
C2046 H2032 0.930 . S
C2046 C2044 1.395 . S
C2046 C2049 1.403 . S
C2047 C2044 1.403 . S
C2047 C2048 1.524 . S
C2047 C2051 1.400 . S
C2048 H2033 0.960 . S
C2048 H2034 0.960 . S
C2048 H2035 0.960 . S
C2048 C2047 1.524 . S
C2049 C2046 1.403 . S
C2049 C2050 1.392 . S
C2049 C2053 1.495 . S
C2050 C2049 1.392 . S
C2050 C2051 1.385 . S
C2050 C2052 1.478 . S
C2051 H2045 0.930 . S
C2051 C2047 1.400 . S
C2051 C2050 1.385 . S
C2052 C2050 1.478 . S
C2052 C2054 1.381 . S
C2052 C2058 1.383 . S
C2053 C2049 1.495 . S
C2053 H2059 0.959 . S
C2053 H2060 0.961 . S
C2053 H2061 0.960 . S
C2054 C2052 1.381 . S
C2054 C2055 1.394 . S
C2054 H2062 0.930 . S
C2055 C2054 1.394 . S
C2055 C2056 1.383 . S
C2055 H2063 0.929 . S
C2056 C2055 1.383 . S
C2056 C2057 1.377 . S
C2057 H2041 0.930 . S
C2057 C2056 1.377 . S
C2057 C2058 1.379 . S
C2058 H2042 0.931 . S
C2058 C2052 1.383 . S
C2058 C2057 1.379 . S
H2059 C2053 0.959 . S
H2060 C2053 0.961 . S
H2061 C2053 0.960 . S
H2062 C2054 0.930 . S
H2063 C2055 0.929 . S
H2064 C2072 0.929 . S
H2065 C2074 0.930 . S
H2066 C2076 0.930 . S
H2067 C2079 0.929 . S
H2068 C2082 0.930 . S
H2069 C2084 0.960 . S
H2070 C2084 0.960 . S
H2071 C2084 0.960 . S
C2072 H2064 0.929 . S
C2072 C2073 1.377 . S
C2072 C2074 1.384 . S
C2073 C2072 1.377 . S
C2073 C2079 1.390 . S
C2074 H2065 0.930 . S
C2074 C2072 1.384 . S
C2074 C2075 1.372 . S
C2075 C2074 1.372 . S
C2075 C2076 1.400 . S
C2075 C2080 1.490 . S
C2076 H2066 0.930 . S
C2076 C2075 1.400 . S
C2076 C2079 1.386 . S
H2077 C2093 0.930 . S
H2078 C2094 0.931 . S
C2079 H2067 0.929 . S
C2079 C2073 1.390 . S
C2079 C2076 1.386 . S
C2080 C2075 1.490 . S
C2080 C2082 1.395 . S
C2080 C2083 1.403 . S
H2081 C2087 0.930 . S
C2082 H2068 0.930 . S
C2082 C2080 1.395 . S
C2082 C2085 1.403 . S
C2083 C2080 1.403 . S
C2083 C2084 1.524 . S
C2083 C2087 1.400 . S
C2084 H2069 0.960 . S
C2084 H2070 0.960 . S
C2084 H2071 0.960 . S
C2084 C2083 1.524 . S
C2085 C2082 1.403 . S
C2085 C2086 1.392 . S
C2085 C2089 1.495 . S
C2086 C2085 1.392 . S
C2086 C2087 1.385 . S
C2086 C2088 1.478 . S
C2087 H2081 0.930 . S
C2087 C2083 1.400 . S
C2087 C2086 1.385 . S
C2088 C2086 1.478 . S
C2088 C2090 1.381 . S
C2088 C2094 1.383 . S
C2089 C2085 1.495 . S
C2089 H2095 0.959 . S
C2089 H2096 0.961 . S
C2089 H2097 0.960 . S
C2090 C2088 1.381 . S
C2090 C2091 1.394 . S
C2090 H2098 0.930 . S
C2091 C2090 1.394 . S
C2091 C2092 1.383 . S
C2091 H2099 0.929 . S
C2092 C2091 1.383 . S
C2092 C2093 1.377 . S
C2093 H2077 0.930 . S
C2093 C2092 1.377 . S
C2093 C2094 1.379 . S
C2094 H2078 0.931 . S
C2094 C2088 1.383 . S
C2094 C2093 1.379 . S
H2095 C2089 0.959 . S
H2096 C2089 0.961 . S
H2097 C2089 0.960 . S
H2098 C2090 0.930 . S
H2099 C2091 0.929 . S
H2100 C2108 0.929 . S
H2101 C2110 0.930 . S
H2102 C2112 0.930 . S
H2103 C2115 0.929 . S
H2104 C2118 0.930 . S
H2105 C2120 0.960 . S
H2106 C2120 0.960 . S
H2107 C2120 0.960 . S
C2108 H2100 0.929 . S
C2108 C2109 1.377 . S
C2108 C2110 1.384 . S
C2109 C2108 1.377 . S
C2109 C2115 1.390 . S
C2110 H2101 0.930 . S
C2110 C2108 1.384 . S
C2110 C2111 1.372 . S
C2111 C2110 1.372 . S
C2111 C2112 1.400 . S
C2111 C2116 1.490 . S
C2112 H2102 0.930 . S
C2112 C2111 1.400 . S
C2112 C2115 1.386 . S
H2113 C2129 0.983 . S
H2114 C2130 0.931 1_565 S
C2115 H2103 0.929 . S
C2115 C2109 1.390 . S
C2115 C2112 1.386 . S
C2116 C2111 1.490 . S
C2116 C2118 1.395 . S
C2116 C2119 1.403 . S
H2117 C2123 0.930 . S
C2118 H2104 0.930 . S
C2118 C2116 1.395 . S
C2118 C2121 1.403 . S
C2119 C2116 1.403 . S
C2119 C2120 1.524 . S
C2119 C2123 1.400 . S
C2120 H2105 0.960 . S
C2120 H2106 0.960 . S
C2120 H2107 0.960 . S
C2120 C2119 1.524 . S
C2121 C2118 1.403 . S
C2121 C2122 1.392 . S
C2121 C2125 1.495 . S
C2122 C2121 1.392 . S
C2122 C2123 1.385 . S
C2122 C2124 1.478 . S
C2123 H2117 0.930 . S
C2123 C2119 1.400 . S
C2123 C2122 1.385 . S
C2124 C2122 1.478 . S
C2124 C2126 1.381 . S
C2124 C2130 1.383 . S
C2125 C2121 1.495 . S
C2125 H2131 0.959 . S
C2125 H2132 0.961 . S
C2125 H2133 0.960 . S
C2126 C2124 1.381 . S
C2126 C2127 1.394 . S
C2126 H2134 0.930 . S
C2127 C2126 1.394 . S
C2127 C2128 1.383 . S
C2127 H2135 0.929 . S
C2128 C2127 1.383 . S
C2128 C2129 1.332 1_545 S
C2129 H2113 0.983 . S
C2129 C2128 1.332 1_565 S
C2129 C2130 1.374 1_565 S
C2130 H2114 0.931 1_545 S
C2130 C2124 1.383 . S
C2130 C2129 1.374 1_545 S
H2131 C2125 0.959 . S
H2132 C2125 0.961 . S
H2133 C2125 0.960 . S
H2134 C2126 0.930 . S
H2135 C2127 0.929 . S
H2136 C2144 0.929 . S
H2137 C2146 0.930 . S
H2138 C2148 0.930 . S
H2139 C2151 0.929 . S
H2140 C2154 0.930 . S
H2141 C2156 0.960 . S
H2142 C2156 0.960 . S
H2143 C2156 0.960 . S
C2144 H2136 0.929 . S
C2144 C2145 1.377 . S
C2144 C2146 1.384 . S
C2145 C2144 1.377 . S
C2145 C2151 1.390 . S
C2146 H2137 0.930 . S
C2146 C2144 1.384 . S
C2146 C2147 1.372 . S
C2147 C2146 1.372 . S
C2147 C2148 1.400 . S
C2147 C2152 1.490 . S
C2148 H2138 0.930 . S
C2148 C2147 1.400 . S
C2148 C2151 1.386 . S
H2149 C2165 0.930 . S
H2150 C2166 0.931 . S
C2151 H2139 0.929 . S
C2151 C2145 1.390 . S
C2151 C2148 1.386 . S
C2152 C2147 1.490 . S
C2152 C2154 1.395 . S
C2152 C2155 1.403 . S
H2153 C2159 0.930 . S
C2154 H2140 0.930 . S
C2154 C2152 1.395 . S
C2154 C2157 1.403 . S
C2155 C2152 1.403 . S
C2155 C2156 1.524 . S
C2155 C2159 1.400 . S
C2156 H2141 0.960 . S
C2156 H2142 0.960 . S
C2156 H2143 0.960 . S
C2156 C2155 1.524 . S
C2157 C2154 1.403 . S
C2157 C2158 1.392 . S
C2157 C2161 1.495 . S
C2158 C2157 1.392 . S
C2158 C2159 1.385 . S
C2158 C2160 1.478 . S
C2159 H2153 0.930 . S
C2159 C2155 1.400 . S
C2159 C2158 1.385 . S
C2160 C2158 1.478 . S
C2160 C2162 1.381 . S
C2160 C2166 1.383 . S
C2161 C2157 1.495 . S
C2161 H2167 0.959 . S
C2161 H2168 0.961 . S
C2161 H2169 0.960 . S
C2162 C2160 1.381 . S
C2162 C2163 1.394 . S
C2162 H2170 0.930 . S
C2163 C2162 1.394 . S
C2163 C2164 1.383 . S
C2163 H2171 0.929 . S
C2164 C2163 1.383 . S
C2164 C2165 1.377 . S
C2165 H2149 0.930 . S
C2165 C2164 1.377 . S
C2165 C2166 1.379 . S
C2166 H2150 0.931 . S
C2166 C2160 1.383 . S
C2166 C2165 1.379 . S
H2167 C2161 0.959 . S
H2168 C2161 0.961 . S
H2169 C2161 0.960 . S
H2170 C2162 0.930 . S
H2171 C2163 0.929 . S
H2172 C2180 0.929 . S
H2173 C2182 0.930 . S
H2174 C2184 0.930 . S
H2175 C2187 0.929 . S
H2176 C2190 0.930 . S
H2177 C2192 0.960 . S
H2178 C2192 0.960 . S
H2179 C2192 0.960 . S
C2180 H2172 0.929 . S
C2180 C2181 1.377 . S
C2180 C2182 1.384 . S
C2181 C2180 1.377 . S
C2181 C2187 1.390 . S
C2182 H2173 0.930 . S
C2182 C2180 1.384 . S
C2182 C2183 1.372 . S
C2183 C2182 1.372 . S
C2183 C2184 1.400 . S
C2183 C2188 1.490 . S
C2184 H2174 0.930 . S
C2184 C2183 1.400 . S
C2184 C2187 1.386 . S
H2185 C2201 0.930 . S
H2186 C2202 0.931 . S
C2187 H2175 0.929 . S
C2187 C2181 1.390 . S
C2187 C2184 1.386 . S
C2188 C2183 1.490 . S
C2188 C2190 1.395 . S
C2188 C2191 1.403 . S
H2189 C2195 0.930 . S
C2190 H2176 0.930 . S
C2190 C2188 1.395 . S
C2190 C2193 1.403 . S
C2191 C2188 1.403 . S
C2191 C2192 1.524 . S
C2191 C2195 1.400 . S
C2192 H2177 0.960 . S
C2192 H2178 0.960 . S
C2192 H2179 0.960 . S
C2192 C2191 1.524 . S
C2193 C2190 1.403 . S
C2193 C2194 1.392 . S
C2193 C2197 1.495 . S
C2194 C2193 1.392 . S
C2194 C2195 1.385 . S
C2194 C2196 1.478 . S
C2195 H2189 0.930 . S
C2195 C2191 1.400 . S
C2195 C2194 1.385 . S
C2196 C2194 1.478 . S
C2196 C2198 1.381 . S
C2196 C2202 1.383 . S
C2197 C2193 1.495 . S
C2197 H2203 0.959 . S
C2197 H2204 0.961 . S
C2197 H2205 0.960 . S
C2198 C2196 1.381 . S
C2198 C2199 1.394 . S
C2198 H2206 0.930 . S
C2199 C2198 1.394 . S
C2199 C2200 1.383 . S
C2199 H2207 0.929 . S
C2200 C2199 1.383 . S
C2200 C2201 1.377 . S
C2201 H2185 0.930 . S
C2201 C2200 1.377 . S
C2201 C2202 1.379 . S
C2202 H2186 0.931 . S
C2202 C2196 1.383 . S
C2202 C2201 1.379 . S
H2203 C2197 0.959 . S
H2204 C2197 0.961 . S
H2205 C2197 0.960 . S
H2206 C2198 0.930 . S
H2207 C2199 0.929 . S
H2208 C2216 0.929 . S
H2209 C2218 0.930 . S
H2210 C2220 0.930 . S
H2211 C2223 0.929 . S
H2212 C2226 0.930 . S
H2213 C2228 0.960 . S
H2214 C2228 0.960 . S
H2215 C2228 0.960 . S
C2216 H2208 0.929 . S
C2216 C2217 1.377 . S
C2216 C2218 1.384 . S
C2217 C2216 1.377 . S
C2217 C2223 1.390 . S
C2218 H2209 0.930 . S
C2218 C2216 1.384 . S
C2218 C2219 1.372 . S
C2219 C2218 1.372 . S
C2219 C2220 1.400 . S
C2219 C2224 1.490 . S
C2220 H2210 0.930 . S
C2220 C2219 1.400 . S
C2220 C2223 1.386 . S
H2221 C2237 0.930 . S
H2222 C2238 0.931 . S
C2223 H2211 0.929 . S
C2223 C2217 1.390 . S
C2223 C2220 1.386 . S
C2224 C2219 1.490 . S
C2224 C2226 1.395 . S
C2224 C2227 1.403 . S
H2225 C2231 0.930 . S
C2226 H2212 0.930 . S
C2226 C2224 1.395 . S
C2226 C2229 1.403 . S
C2227 C2224 1.403 . S
C2227 C2228 1.524 . S
C2227 C2231 1.400 . S
C2228 H2213 0.960 . S
C2228 H2214 0.960 . S
C2228 H2215 0.960 . S
C2228 C2227 1.524 . S
C2229 C2226 1.403 . S
C2229 C2230 1.392 . S
C2229 C2233 1.495 . S
C2230 C2229 1.392 . S
C2230 C2231 1.385 . S
C2230 C2232 1.478 . S
C2231 H2225 0.930 . S
C2231 C2227 1.400 . S
C2231 C2230 1.385 . S
C2232 C2230 1.478 . S
C2232 C2234 1.381 . S
C2232 C2238 1.383 . S
C2233 C2229 1.495 . S
C2233 H2239 0.959 . S
C2233 H2240 0.961 . S
C2233 H2241 0.960 . S
C2234 C2232 1.381 . S
C2234 C2235 1.394 . S
C2234 H2242 0.930 . S
C2235 C2234 1.394 . S
C2235 C2236 1.383 . S
C2235 H2243 0.929 . S
C2236 C2235 1.383 . S
C2236 C2237 1.377 . S
C2237 H2221 0.930 . S
C2237 C2236 1.377 . S
C2237 C2238 1.379 . S
C2238 H2222 0.931 . S
C2238 C2232 1.383 . S
C2238 C2237 1.379 . S
H2239 C2233 0.959 . S
H2240 C2233 0.961 . S
H2241 C2233 0.960 . S
H2242 C2234 0.930 . S
H2243 C2235 0.929 . S
H2244 C2252 0.929 . S
H2245 C2254 0.930 . S
H2246 C2256 0.930 . S
H2247 C2259 0.929 . S
H2248 C2262 0.888 1_455 S
H2249 C2264 0.960 . S
H2250 C2264 0.960 . S
H2251 C2264 0.960 . S
C2252 H2244 0.929 . S
C2252 C2253 1.377 . S
C2252 C2254 1.384 . S
C2253 C2252 1.377 . S
C2253 C2259 1.390 1_455 S
C2254 H2245 0.930 . S
C2254 C2252 1.384 . S
C2254 C2255 1.372 1_455 S
C2255 C2254 1.372 1_655 S
C2255 C2256 1.400 . S
C2255 C2260 1.490 . S
C2256 H2246 0.930 . S
C2256 C2255 1.400 . S
C2256 C2259 1.386 . S
H2257 C2273 0.930 . S
H2258 C2274 0.931 . S
C2259 H2247 0.929 . S
C2259 C2253 1.390 1_655 S
C2259 C2256 1.386 . S
C2260 C2255 1.490 . S
C2260 C2262 1.395 . S
C2260 C2263 1.403 . S
H2261 C2267 0.930 . S
C2262 H2248 0.888 1_655 S
C2262 C2260 1.395 . S
C2262 C2265 1.403 . S
C2263 C2260 1.403 . S
C2263 C2264 1.524 . S
C2263 C2267 1.400 . S
C2264 H2249 0.960 . S
C2264 H2250 0.960 . S
C2264 H2251 0.960 . S
C2264 C2263 1.524 . S
C2265 C2262 1.403 . S
C2265 C2266 1.392 . S
C2265 C2269 1.495 . S
C2266 C2265 1.392 . S
C2266 C2267 1.385 . S
C2266 C2268 1.478 . S
C2267 H2261 0.930 . S
C2267 C2263 1.400 . S
C2267 C2266 1.385 . S
C2268 C2266 1.478 . S
C2268 C2270 1.381 . S
C2268 C2274 1.383 . S
C2269 C2265 1.495 . S
C2269 H2275 0.900 1_655 S
C2269 H2276 0.961 . S
C2269 H2277 0.960 . S
C2270 C2268 1.381 . S
C2270 C2271 1.394 . S
C2270 H2278 0.930 1_545 S
C2271 C2270 1.394 . S
C2271 C2272 1.383 . S
C2271 H2279 0.929 1_545 S
C2272 C2271 1.383 . S
C2272 C2273 1.377 . S
C2273 H2257 0.930 . S
C2273 C2272 1.377 . S
C2273 C2274 1.379 . S
C2274 H2258 0.931 . S
C2274 C2268 1.383 . S
C2274 C2273 1.379 . S
H2275 C2269 0.900 1_455 S
H2276 C2269 0.961 . S
H2277 C2269 0.960 . S
H2278 C2270 0.930 1_565 S
H2279 C2271 0.929 1_565 S
H2280 C2288 0.929 . S
H2281 C2290 0.930 . S
H2282 C2292 0.930 . S
H2283 C2295 0.929 . S
H2284 C2298 0.930 . S
H2285 C2300 0.960 . S
H2286 C2300 0.960 . S
H2287 C2300 0.960 . S
C2288 H2280 0.929 . S
C2288 C2289 1.377 . S
C2288 C2290 1.384 . S
C2289 C2288 1.377 . S
C2289 C2295 1.390 . S
C2290 H2281 0.930 . S
C2290 C2288 1.384 . S
C2290 C2291 1.372 . S
C2291 C2290 1.372 . S
C2291 C2292 1.400 . S
C2291 C2296 1.490 . S
C2292 H2282 0.930 . S
C2292 C2291 1.400 . S
C2292 C2295 1.386 . S
H2293 C2309 0.930 . S
H2294 C2310 0.931 . S
C2295 H2283 0.929 . S
C2295 C2289 1.390 . S
C2295 C2292 1.386 . S
C2296 C2291 1.490 . S
C2296 C2298 1.395 . S
C2296 C2299 1.403 . S
H2297 C2303 0.930 . S
C2298 H2284 0.930 . S
C2298 C2296 1.395 . S
C2298 C2301 1.403 . S
C2299 C2296 1.403 . S
C2299 C2300 1.524 . S
C2299 C2303 1.400 . S
C2300 H2285 0.960 . S
C2300 H2286 0.960 . S
C2300 H2287 0.960 . S
C2300 C2299 1.524 . S
C2301 C2298 1.403 . S
C2301 C2302 1.392 . S
C2301 C2305 1.495 . S
C2302 C2301 1.392 . S
C2302 C2303 1.385 . S
C2302 C2304 1.478 . S
C2303 H2297 0.930 . S
C2303 C2299 1.400 . S
C2303 C2302 1.385 . S
C2304 C2302 1.478 . S
C2304 C2306 1.381 . S
C2304 C2310 1.383 . S
C2305 C2301 1.495 . S
C2305 H2311 0.959 . S
C2305 H2312 0.961 . S
C2305 H2313 0.960 . S
C2306 C2304 1.381 . S
C2306 C2307 1.394 . S
C2306 H2314 0.930 . S
C2307 C2306 1.394 . S
C2307 C2308 1.383 . S
C2307 H2315 0.929 . S
C2308 C2307 1.383 . S
C2308 C2309 1.377 . S
C2309 H2293 0.930 . S
C2309 C2308 1.377 . S
C2309 C2310 1.379 . S
C2310 H2294 0.931 . S
C2310 C2304 1.383 . S
C2310 C2309 1.379 . S
H2311 C2305 0.959 . S
H2312 C2305 0.961 . S
H2313 C2305 0.960 . S
H2314 C2306 0.930 . S
H2315 C2307 0.929 . S
H2316 C2324 0.929 . S
H2317 C2326 0.930 . S
H2318 C2328 0.930 . S
H2319 C2331 0.929 . S
H2320 C2334 0.930 . S
H2321 C2336 0.960 . S
H2322 C2336 0.960 . S
H2323 C2336 0.960 . S
C2324 H2316 0.929 . S
C2324 C2325 1.377 . S
C2324 C2326 1.384 1_655 S
C2325 C2324 1.377 . S
C2325 C2331 1.390 . S
C2326 H2317 0.930 . S
C2326 C2324 1.384 1_455 S
C2326 C2327 1.372 . S
C2327 C2326 1.372 . S
C2327 C2328 1.400 . S
C2327 C2332 1.490 . S
C2328 H2318 0.930 . S
C2328 C2327 1.400 . S
C2328 C2331 1.386 1_455 S
H2329 C2345 0.930 . S
H2330 C2346 0.931 . S
C2331 H2319 0.929 . S
C2331 C2325 1.390 . S
C2331 C2328 1.386 1_655 S
C2332 C2327 1.490 . S
C2332 C2334 1.395 . S
C2332 C2335 1.403 . S
H2333 C2339 0.930 . S
C2334 H2320 0.930 . S
C2334 C2332 1.395 . S
C2334 C2337 1.403 . S
C2335 C2332 1.403 . S
C2335 C2336 1.524 1_455 S
C2335 C2339 1.400 . S
C2336 H2321 0.960 . S
C2336 H2322 0.960 . S
C2336 H2323 0.960 . S
C2336 C2335 1.524 1_655 S
C2337 C2334 1.403 . S
C2337 C2338 1.392 . S
C2337 C2341 1.495 . S
C2338 C2337 1.392 . S
C2338 C2339 1.385 . S
C2338 C2340 1.478 . S
C2339 H2333 0.930 . S
C2339 C2335 1.400 . S
C2339 C2338 1.385 . S
C2340 C2338 1.478 . S
C2340 C2342 1.381 . S
C2340 C2346 1.383 . S
C2341 C2337 1.495 . S
C2341 H2347 0.959 . S
C2341 H2348 0.961 . S
C2341 H2349 0.960 . S
C2342 C2340 1.381 . S
C2342 C2343 1.394 . S
C2342 H2350 0.930 . S
C2343 C2342 1.394 . S
C2343 C2344 1.383 . S
C2343 H2351 0.929 . S
C2344 C2343 1.383 . S
C2344 C2345 1.377 . S
C2345 H2329 0.930 . S
C2345 C2344 1.377 . S
C2345 C2346 1.379 . S
C2346 H2330 0.931 . S
C2346 C2340 1.383 . S
C2346 C2345 1.379 . S
H2347 C2341 0.959 . S
H2348 C2341 0.961 . S
H2349 C2341 0.960 . S
H2350 C2342 0.930 . S
H2351 C2343 0.929 . S
H2352 C2360 0.929 . S
H2353 C2362 0.930 . S
H2354 C2364 0.930 . S
H2355 C2367 0.929 . S
H2356 C2370 0.930 . S
H2357 C2372 0.960 . S
H2358 C2372 0.960 . S
H2359 C2372 0.960 . S
C2360 H2352 0.929 . S
C2360 C2361 1.377 . S
C2360 C2362 1.384 . S
C2361 C2360 1.377 . S
C2361 C2367 1.390 . S
C2362 H2353 0.930 . S
C2362 C2360 1.384 . S
C2362 C2363 1.372 . S
C2363 C2362 1.372 . S
C2363 C2364 1.400 . S
C2363 C2368 1.490 . S
C2364 H2354 0.930 . S
C2364 C2363 1.400 . S
C2364 C2367 1.386 . S
H2365 C2381 0.930 . S
H2366 C2382 0.931 . S
C2367 H2355 0.929 . S
C2367 C2361 1.390 . S
C2367 C2364 1.386 . S
C2368 C2363 1.490 . S
C2368 C2370 1.395 . S
C2368 C2371 1.403 . S
H2369 C2375 0.930 . S
C2370 H2356 0.930 . S
C2370 C2368 1.395 . S
C2370 C2373 1.403 . S
C2371 C2368 1.403 . S
C2371 C2372 1.524 . S
C2371 C2375 1.400 . S
C2372 H2357 0.960 . S
C2372 H2358 0.960 . S
C2372 H2359 0.960 . S
C2372 C2371 1.524 . S
C2373 C2370 1.403 . S
C2373 C2374 1.392 . S
C2373 C2377 1.495 . S
C2374 C2373 1.392 . S
C2374 C2375 1.385 . S
C2374 C2376 1.478 . S
C2375 H2369 0.930 . S
C2375 C2371 1.400 . S
C2375 C2374 1.385 . S
C2376 C2374 1.478 . S
C2376 C2378 1.381 . S
C2376 C2382 1.383 . S
C2377 C2373 1.495 . S
C2377 H2383 0.959 . S
C2377 H2384 0.961 . S
C2377 H2385 0.960 . S
C2378 C2376 1.381 . S
C2378 C2379 1.394 . S
C2378 H2386 0.930 . S
C2379 C2378 1.394 . S
C2379 C2380 1.383 . S
C2379 H2387 0.929 . S
C2380 C2379 1.383 . S
C2380 C2381 1.377 . S
C2381 H2365 0.930 . S
C2381 C2380 1.377 . S
C2381 C2382 1.379 . S
C2382 H2366 0.931 . S
C2382 C2376 1.383 . S
C2382 C2381 1.379 . S
H2383 C2377 0.959 . S
H2384 C2377 0.961 . S
H2385 C2377 0.960 . S
H2386 C2378 0.930 . S
H2387 C2379 0.929 . S
H2388 C2396 0.929 . S
H2389 C2398 0.930 . S
H2390 C2400 0.930 . S
H2391 C2403 0.929 . S
H2392 C2406 0.930 . S
H2393 C2408 0.960 . S
H2394 C2408 0.960 . S
H2395 C2408 0.960 . S
C2396 H2388 0.929 . S
C2396 C2397 1.377 . S
C2396 C2398 1.384 . S
C2397 C2396 1.377 . S
C2397 C2403 1.390 1_554 S
C2398 H2389 0.930 . S
C2398 C2396 1.384 . S
C2398 C2399 1.372 1_554 S
C2399 C2398 1.372 1_556 S
C2399 C2400 1.400 . S
C2399 C2404 1.490 . S
C2400 H2390 0.930 . S
C2400 C2399 1.400 . S
C2400 C2403 1.386 . S
H2401 C2417 0.930 . S
H2402 C2418 0.931 . S
C2403 H2391 0.929 . S
C2403 C2397 1.390 1_556 S
C2403 C2400 1.386 . S
C2404 C2399 1.490 . S
C2404 C2406 1.395 . S
C2404 C2407 1.403 . S
H2405 C2411 0.930 1_455 S
C2406 H2392 0.930 . S
C2406 C2404 1.395 . S
C2406 C2409 1.403 . S
C2407 C2404 1.403 . S
C2407 C2408 1.524 1_655 S
C2407 C2411 1.400 . S
C2408 H2393 0.960 . S
C2408 H2394 0.960 . S
C2408 H2395 0.960 . S
C2408 C2407 1.524 1_455 S
C2409 C2406 1.403 . S
C2409 C2410 1.392 . S
C2409 C2413 1.495 . S
C2410 C2409 1.392 . S
C2410 C2411 1.385 . S
C2410 C2412 1.478 . S
C2411 H2405 0.930 1_655 S
C2411 C2407 1.400 . S
C2411 C2410 1.385 . S
C2412 C2410 1.478 . S
C2412 C2414 1.381 . S
C2412 C2418 1.383 . S
C2413 C2409 1.495 . S
C2413 H2419 0.959 . S
C2413 H2420 0.961 . S
C2413 H2421 0.960 . S
C2414 C2412 1.381 . S
C2414 C2415 1.394 . S
C2414 H2422 0.930 . S
C2415 C2414 1.394 . S
C2415 C2416 1.383 . S
C2415 H2423 0.929 . S
C2416 C2415 1.383 . S
C2416 C2417 1.377 . S
C2417 H2401 0.930 . S
C2417 C2416 1.377 . S
C2417 C2418 1.379 . S
C2418 H2402 0.931 . S
C2418 C2412 1.383 . S
C2418 C2417 1.379 . S
H2419 C2413 0.959 . S
H2420 C2413 0.961 . S
H2421 C2413 0.960 . S
H2422 C2414 0.930 . S
H2423 C2415 0.929 . S
H2424 C2432 0.929 . S
H2425 C2434 0.930 . S
H2426 C2436 0.930 . S
H2427 C2439 0.929 . S
H2428 C2442 0.930 . S
H2429 C2444 0.960 . S
H2430 C2444 0.960 . S
H2431 C2444 0.960 . S
C2432 H2424 0.929 . S
C2432 C2433 1.377 . S
C2432 C2434 1.384 . S
C2433 C2432 1.377 . S
C2433 C2439 1.390 . S
C2434 H2425 0.930 . S
C2434 C2432 1.384 . S
C2434 C2435 1.372 . S
C2435 C2434 1.372 . S
C2435 C2436 1.400 . S
C2435 C2440 1.490 . S
C2436 H2426 0.930 . S
C2436 C2435 1.400 . S
C2436 C2439 1.386 . S
H2437 C2453 0.930 . S
H2438 C2454 0.931 . S
C2439 H2427 0.929 . S
C2439 C2433 1.390 . S
C2439 C2436 1.386 . S
C2440 C2435 1.490 . S
C2440 C2442 1.395 . S
C2440 C2443 1.403 . S
H2441 C2447 0.930 . S
C2442 H2428 0.930 . S
C2442 C2440 1.395 . S
C2442 C2445 1.403 . S
C2443 C2440 1.403 . S
C2443 C2444 1.524 . S
C2443 C2447 1.400 . S
C2444 H2429 0.960 . S
C2444 H2430 0.960 . S
C2444 H2431 0.960 . S
C2444 C2443 1.524 . S
C2445 C2442 1.403 . S
C2445 C2446 1.392 . S
C2445 C2449 1.495 . S
C2446 C2445 1.392 . S
C2446 C2447 1.385 . S
C2446 C2448 1.478 . S
C2447 H2441 0.930 . S
C2447 C2443 1.400 . S
C2447 C2446 1.385 . S
C2448 C2446 1.478 . S
C2448 C2450 1.381 . S
C2448 C2454 1.383 . S
C2449 C2445 1.495 . S
C2449 H2455 0.959 . S
C2449 H2456 0.961 . S
C2449 H2457 0.960 . S
C2450 C2448 1.381 . S
C2450 C2451 1.394 . S
C2450 H2458 0.930 . S
C2451 C2450 1.394 . S
C2451 C2452 1.383 . S
C2451 H2459 0.929 . S
C2452 C2451 1.383 . S
C2452 C2453 1.377 . S
C2453 H2437 0.930 . S
C2453 C2452 1.377 . S
C2453 C2454 1.379 . S
C2454 H2438 0.931 . S
C2454 C2448 1.383 . S
C2454 C2453 1.379 . S
H2455 C2449 0.959 . S
H2456 C2449 0.961 . S
H2457 C2449 0.960 . S
H2458 C2450 0.930 . S
H2459 C2451 0.929 . S
H2460 C2468 0.929 . S
H2461 C2470 0.930 1_655 S
H2462 C2472 0.930 . S
H2463 C2475 0.929 . S
H2464 C2478 0.954 . S
H2465 C2480 0.960 . S
H2466 C2480 0.960 . S
H2467 C2480 0.960 . S
C2468 H2460 0.929 . S
C2468 C2469 1.377 . S
C2468 C2470 1.384 1_554 S
C2469 C2468 1.377 . S
C2469 C2475 1.390 . S
C2470 H2461 0.930 1_455 S
C2470 C2468 1.384 1_556 S
C2470 C2471 1.372 . S
C2471 C2470 1.372 . S
C2471 C2472 1.400 . S
C2471 C2476 1.490 . S
C2472 H2462 0.930 . S
C2472 C2471 1.400 . S
C2472 C2475 1.386 1_556 S
H2473 C2489 0.930 . S
H2474 C2490 0.931 . S
C2475 H2463 0.929 . S
C2475 C2469 1.390 . S
C2475 C2472 1.386 1_554 S
C2476 C2471 1.490 . S
C2476 C2478 1.395 . S
C2476 C2479 1.403 . S
H2477 C2483 0.930 . S
C2478 H2464 0.954 . S
C2478 C2476 1.395 . S
C2478 C2481 1.403 . S
C2479 C2476 1.403 . S
C2479 C2480 1.524 . S
C2479 C2483 1.400 . S
C2480 H2465 0.960 . S
C2480 H2466 0.960 . S
C2480 H2467 0.960 . S
C2480 C2479 1.524 . S
C2481 C2478 1.403 . S
C2481 C2482 1.392 . S
C2481 C2485 1.495 . S
C2482 C2481 1.392 . S
C2482 C2483 1.385 . S
C2482 C2484 1.478 . S
C2483 H2477 0.930 . S
C2483 C2479 1.400 . S
C2483 C2482 1.385 . S
C2484 C2482 1.478 . S
C2484 C2486 1.381 1_455 S
C2484 C2490 1.383 . S
C2485 C2481 1.495 . S
C2485 H2491 0.955 . S
C2485 H2492 0.961 . S
C2485 H2493 0.960 1_455 S
C2486 C2484 1.381 1_655 S
C2486 C2487 1.394 . S
C2486 H2494 0.930 . S
C2487 C2486 1.394 . S
C2487 C2488 1.383 1_655 S
C2487 H2495 0.929 . S
C2488 C2487 1.383 1_455 S
C2488 C2489 1.377 . S
C2489 H2473 0.930 . S
C2489 C2488 1.377 . S
C2489 C2490 1.379 . S
C2490 H2474 0.931 . S
C2490 C2484 1.383 . S
C2490 C2489 1.379 . S
H2491 C2485 0.955 . S
H2492 C2485 0.961 . S
H2493 C2485 0.960 1_655 S
H2494 C2486 0.930 . S
H2495 C2487 0.929 . S
H2496 C2504 0.929 . S
H2497 C2506 0.930 . S
H2498 C2508 0.930 . S
H2499 C2511 0.929 . S
H2500 C2514 0.930 . S
H2501 C2516 0.960 . S
H2502 C2516 0.960 . S
H2503 C2516 0.960 . S
C2504 H2496 0.929 . S
C2504 C2505 1.377 . S
C2504 C2506 1.384 . S
C2505 C2504 1.377 . S
C2505 C2511 1.390 . S
C2506 H2497 0.930 . S
C2506 C2504 1.384 . S
C2506 C2507 1.372 . S
C2507 C2506 1.372 . S
C2507 C2508 1.400 . S
C2507 C2512 1.490 . S
C2508 H2498 0.930 . S
C2508 C2507 1.400 . S
C2508 C2511 1.386 . S
H2509 C2525 0.930 . S
H2510 C2526 0.931 . S
C2511 H2499 0.929 . S
C2511 C2505 1.390 . S
C2511 C2508 1.386 . S
C2512 C2507 1.490 . S
C2512 C2514 1.395 . S
C2512 C2515 1.403 . S
H2513 C2519 0.930 . S
C2514 H2500 0.930 . S
C2514 C2512 1.395 . S
C2514 C2517 1.403 . S
C2515 C2512 1.403 . S
C2515 C2516 1.524 . S
C2515 C2519 1.400 . S
C2516 H2501 0.960 . S
C2516 H2502 0.960 . S
C2516 H2503 0.960 . S
C2516 C2515 1.524 . S
C2517 C2514 1.403 . S
C2517 C2518 1.392 . S
C2517 C2521 1.495 . S
C2518 C2517 1.392 . S
C2518 C2519 1.385 . S
C2518 C2520 1.478 . S
C2519 H2513 0.930 . S
C2519 C2515 1.400 . S
C2519 C2518 1.385 . S
C2520 C2518 1.478 . S
C2520 C2522 1.381 . S
C2520 C2526 1.383 . S
C2521 C2517 1.495 . S
C2521 H2527 0.959 . S
C2521 H2528 0.961 . S
C2521 H2529 0.960 . S
C2522 C2520 1.381 . S
C2522 C2523 1.394 . S
C2522 H2530 0.930 . S
C2523 C2522 1.394 . S
C2523 C2524 1.383 . S
C2523 H2531 0.929 . S
C2524 C2523 1.383 . S
C2524 C2525 1.377 . S
C2525 H2509 0.930 . S
C2525 C2524 1.377 . S
C2525 C2526 1.379 . S
C2526 H2510 0.931 . S
C2526 C2520 1.383 . S
C2526 C2525 1.379 . S
H2527 C2521 0.959 . S
H2528 C2521 0.961 . S
H2529 C2521 0.960 . S
H2530 C2522 0.930 . S
H2531 C2523 0.929 . S
H2532 C2540 0.929 . S
H2533 C2542 0.930 . S
H2534 C2544 0.930 . S
H2535 C2547 0.929 . S
H2536 C2550 0.930 . S
H2537 C2552 0.960 . S
H2538 C2552 0.960 . S
H2539 C2552 0.960 1_556 S
C2540 H2532 0.929 . S
C2540 C2541 1.377 1_554 S
C2540 C2542 1.384 . S
C2541 C2540 1.377 1_556 S
C2541 C2547 1.390 . S
C2542 H2533 0.930 . S
C2542 C2540 1.384 . S
C2542 C2543 1.372 . S
C2543 C2542 1.372 . S
C2543 C2544 1.400 1_554 S
C2543 C2548 1.490 . S
C2544 H2534 0.930 . S
C2544 C2543 1.400 1_556 S
C2544 C2547 1.386 . S
H2545 C2561 0.930 . S
H2546 C2562 0.931 . S
C2547 H2535 0.929 . S
C2547 C2541 1.390 . S
C2547 C2544 1.386 . S
C2548 C2543 1.490 . S
C2548 C2550 1.395 . S
C2548 C2551 1.403 . S
H2549 C2555 0.930 . S
C2550 H2536 0.930 . S
C2550 C2548 1.395 . S
C2550 C2553 1.403 . S
C2551 C2548 1.403 . S
C2551 C2552 1.524 . S
C2551 C2555 1.400 . S
C2552 H2537 0.960 . S
C2552 H2538 0.960 . S
C2552 H2539 0.960 1_554 S
C2552 C2551 1.524 . S
C2553 C2550 1.403 . S
C2553 C2554 1.392 . S
C2553 C2557 1.495 . S
C2554 C2553 1.392 . S
C2554 C2555 1.385 . S
C2554 C2556 1.478 . S
C2555 H2549 0.930 . S
C2555 C2551 1.400 . S
C2555 C2554 1.385 . S
C2556 C2554 1.478 . S
C2556 C2558 1.381 . S
C2556 C2562 1.383 . S
C2557 C2553 1.495 . S
C2557 H2563 0.959 . S
C2557 H2564 0.961 . S
C2557 H2565 0.960 . S
C2558 C2556 1.381 . S
C2558 C2559 1.394 . S
C2558 H2566 0.930 . S
C2559 C2558 1.394 . S
C2559 C2560 1.383 . S
C2559 H2567 0.929 . S
C2560 C2559 1.383 . S
C2560 C2561 1.377 . S
C2561 H2545 0.930 . S
C2561 C2560 1.377 . S
C2561 C2562 1.379 . S
C2562 H2546 0.931 . S
C2562 C2556 1.383 . S
C2562 C2561 1.379 . S
H2563 C2557 0.959 . S
H2564 C2557 0.961 . S
H2565 C2557 0.960 . S
H2566 C2558 0.930 . S
H2567 C2559 0.929 . S
H2568 C2576 0.929 . S
H2569 C2578 0.930 . S
H2570 C2580 0.930 . S
H2571 C2583 0.929 . S
H2572 C2586 0.930 . S
H2573 C2588 0.960 . S
H2574 C2588 0.960 . S
H2575 C2588 0.960 . S
C2576 H2568 0.929 . S
C2576 C2577 1.377 . S
C2576 C2578 1.384 . S
C2577 C2576 1.377 . S
C2577 C2583 1.390 . S
C2578 H2569 0.930 . S
C2578 C2576 1.384 . S
C2578 C2579 1.372 . S
C2579 C2578 1.372 . S
C2579 C2580 1.400 . S
C2579 C2584 1.490 . S
C2580 H2570 0.930 . S
C2580 C2579 1.400 . S
C2580 C2583 1.386 . S
H2581 C2597 0.930 . S
H2582 C2598 0.931 . S
C2583 H2571 0.929 . S
C2583 C2577 1.390 . S
C2583 C2580 1.386 . S
C2584 C2579 1.490 . S
C2584 C2586 1.395 . S
C2584 C2587 1.403 . S
H2585 C2591 0.930 . S
C2586 H2572 0.930 . S
C2586 C2584 1.395 . S
C2586 C2589 1.403 . S
C2587 C2584 1.403 . S
C2587 C2588 1.524 . S
C2587 C2591 1.400 . S
C2588 H2573 0.960 . S
C2588 H2574 0.960 . S
C2588 H2575 0.960 . S
C2588 C2587 1.524 . S
C2589 C2586 1.403 . S
C2589 C2590 1.392 . S
C2589 C2593 1.495 . S
C2590 C2589 1.392 . S
C2590 C2591 1.385 . S
C2590 C2592 1.478 . S
C2591 H2585 0.930 . S
C2591 C2587 1.400 . S
C2591 C2590 1.385 . S
C2592 C2590 1.478 . S
C2592 C2594 1.381 . S
C2592 C2598 1.383 . S
C2593 C2589 1.495 . S
C2593 H2599 0.959 . S
C2593 H2600 0.961 . S
C2593 H2601 0.960 . S
C2594 C2592 1.381 . S
C2594 C2595 1.394 . S
C2594 H2602 0.930 . S
C2595 C2594 1.394 . S
C2595 C2596 1.383 . S
C2595 H2603 0.929 . S
C2596 C2595 1.383 . S
C2596 C2597 1.377 . S
C2597 H2581 0.930 . S
C2597 C2596 1.377 . S
C2597 C2598 1.379 . S
C2598 H2582 0.931 . S
C2598 C2592 1.383 . S
C2598 C2597 1.379 . S
H2599 C2593 0.959 . S
H2600 C2593 0.961 . S
H2601 C2593 0.960 . S
H2602 C2594 0.930 . S
H2603 C2595 0.929 . S
H2604 C2612 0.929 . S
H2605 C2614 0.930 . S
H2606 C2616 0.930 . S
H2607 C2619 0.929 . S
H2608 C2622 0.930 . S
H2609 C2624 0.960 . S
H2610 C2624 0.960 . S
H2611 C2624 0.960 . S
C2612 H2604 0.929 . S
C2612 C2613 1.377 . S
C2612 C2614 1.384 1_556 S
C2613 C2612 1.377 . S
C2613 C2619 1.390 . S
C2614 H2605 0.930 . S
C2614 C2612 1.384 1_554 S
C2614 C2615 1.372 . S
C2615 C2614 1.372 . S
C2615 C2616 1.400 . S
C2615 C2620 1.490 . S
C2616 H2606 0.930 . S
C2616 C2615 1.400 . S
C2616 C2619 1.386 1_554 S
H2617 C2633 0.930 . S
H2618 C2634 0.931 . S
C2619 H2607 0.929 . S
C2619 C2613 1.390 . S
C2619 C2616 1.386 1_556 S
C2620 C2615 1.490 . S
C2620 C2622 1.395 . S
C2620 C2623 1.403 . S
H2621 C2627 0.930 . S
C2622 H2608 0.930 . S
C2622 C2620 1.395 . S
C2622 C2625 1.403 . S
C2623 C2620 1.403 . S
C2623 C2624 1.524 . S
C2623 C2627 1.400 . S
C2624 H2609 0.960 . S
C2624 H2610 0.960 . S
C2624 H2611 0.960 . S
C2624 C2623 1.524 . S
C2625 C2622 1.403 . S
C2625 C2626 1.392 . S
C2625 C2629 1.495 . S
C2626 C2625 1.392 . S
C2626 C2627 1.385 . S
C2626 C2628 1.478 . S
C2627 H2621 0.930 . S
C2627 C2623 1.400 . S
C2627 C2626 1.385 . S
C2628 C2626 1.478 . S
C2628 C2630 1.381 . S
C2628 C2634 1.383 . S
C2629 C2625 1.495 . S
C2629 H2635 0.959 . S
C2629 H2636 0.961 . S
C2629 H2637 0.960 . S
C2630 C2628 1.381 . S
C2630 C2631 1.394 . S
C2630 H2638 0.930 . S
C2631 C2630 1.394 . S
C2631 C2632 1.383 . S
C2631 H2639 0.929 . S
C2632 C2631 1.383 . S
C2632 C2633 1.377 . S
C2633 H2617 0.930 . S
C2633 C2632 1.377 . S
C2633 C2634 1.379 . S
C2634 H2618 0.931 . S
C2634 C2628 1.383 . S
C2634 C2633 1.379 . S
H2635 C2629 0.959 . S
H2636 C2629 0.961 . S
H2637 C2629 0.960 . S
H2638 C2630 0.930 . S
H2639 C2631 0.929 . S
H2640 C2648 0.929 . S
H2641 C2650 0.930 . S
H2642 C2652 0.930 . S
H2643 C2655 0.929 . S
H2644 C2658 0.930 . S
H2645 C2660 0.960 . S
H2646 C2660 0.960 . S
H2647 C2660 0.960 . S
C2648 H2640 0.929 . S
C2648 C2649 1.377 . S
C2648 C2650 1.384 . S
C2649 C2648 1.377 . S
C2649 C2655 1.390 . S
C2650 H2641 0.930 . S
C2650 C2648 1.384 . S
C2650 C2651 1.372 . S
C2651 C2650 1.372 . S
C2651 C2652 1.400 . S
C2651 C2656 1.490 . S
C2652 H2642 0.930 . S
C2652 C2651 1.400 . S
C2652 C2655 1.386 . S
H2653 C2669 0.930 . S
H2654 C2670 0.931 . S
C2655 H2643 0.929 . S
C2655 C2649 1.390 . S
C2655 C2652 1.386 . S
C2656 C2651 1.490 . S
C2656 C2658 1.395 . S
C2656 C2659 1.403 . S
H2657 C2663 0.930 . S
C2658 H2644 0.930 . S
C2658 C2656 1.395 . S
C2658 C2661 1.403 . S
C2659 C2656 1.403 . S
C2659 C2660 1.524 . S
C2659 C2663 1.400 . S
C2660 H2645 0.960 . S
C2660 H2646 0.960 . S
C2660 H2647 0.960 . S
C2660 C2659 1.524 . S
C2661 C2658 1.403 . S
C2661 C2662 1.392 . S
C2661 C2665 1.495 . S
C2662 C2661 1.392 . S
C2662 C2663 1.385 . S
C2662 C2664 1.478 . S
C2663 H2657 0.930 . S
C2663 C2659 1.400 . S
C2663 C2662 1.385 . S
C2664 C2662 1.478 . S
C2664 C2666 1.381 . S
C2664 C2670 1.383 . S
C2665 C2661 1.495 . S
C2665 H2671 0.959 . S
C2665 H2672 0.961 . S
C2665 H2673 0.960 . S
C2666 C2664 1.381 . S
C2666 C2667 1.394 . S
C2666 H2674 0.930 . S
C2667 C2666 1.394 . S
C2667 C2668 1.383 . S
C2667 H2675 0.929 . S
C2668 C2667 1.383 . S
C2668 C2669 1.377 . S
C2669 H2653 0.930 . S
C2669 C2668 1.377 . S
C2669 C2670 1.379 . S
C2670 H2654 0.931 . S
C2670 C2664 1.383 . S
C2670 C2669 1.379 . S
H2671 C2665 0.959 . S
H2672 C2665 0.961 . S
H2673 C2665 0.960 . S
H2674 C2666 0.930 . S
H2675 C2667 0.929 . S
H2676 C2684 0.929 . S
H2677 C2686 0.930 . S
H2678 C2688 0.930 . S
H2679 C2691 0.929 . S
H2680 C2694 0.930 . S
H2681 C2696 0.960 . S
H2682 C2696 0.960 . S
H2683 C2696 0.960 . S
C2684 H2676 0.929 . S
C2684 C2685 1.377 . S
C2684 C2686 1.384 . S
C2685 C2684 1.377 . S
C2685 C2691 1.390 . S
C2686 H2677 0.930 . S
C2686 C2684 1.384 . S
C2686 C2687 1.372 . S
C2687 C2686 1.372 . S
C2687 C2688 1.400 . S
C2687 C2692 1.490 . S
C2688 H2678 0.930 . S
C2688 C2687 1.400 . S
C2688 C2691 1.386 . S
H2689 C2705 0.930 . S
H2690 C2706 0.931 . S
C2691 H2679 0.929 . S
C2691 C2685 1.390 . S
C2691 C2688 1.386 . S
C2692 C2687 1.490 . S
C2692 C2694 1.395 . S
C2692 C2695 1.403 . S
H2693 C2699 0.930 . S
C2694 H2680 0.930 . S
C2694 C2692 1.395 . S
C2694 C2697 1.403 . S
C2695 C2692 1.403 . S
C2695 C2696 1.524 . S
C2695 C2699 1.400 . S
C2696 H2681 0.960 . S
C2696 H2682 0.960 . S
C2696 H2683 0.960 . S
C2696 C2695 1.524 . S
C2697 C2694 1.403 . S
C2697 C2698 1.392 . S
C2697 C2701 1.495 . S
C2698 C2697 1.392 . S
C2698 C2699 1.385 . S
C2698 C2700 1.478 . S
C2699 H2693 0.930 . S
C2699 C2695 1.400 . S
C2699 C2698 1.385 . S
C2700 C2698 1.478 . S
C2700 C2702 1.381 . S
C2700 C2706 1.383 . S
C2701 C2697 1.495 . S
C2701 H2707 0.959 . S
C2701 H2708 0.961 . S
C2701 H2709 0.960 . S
C2702 C2700 1.381 . S
C2702 C2703 1.394 . S
C2702 H2710 0.930 . S
C2703 C2702 1.394 . S
C2703 C2704 1.383 . S
C2703 H2711 0.929 . S
C2704 C2703 1.383 . S
C2704 C2705 1.377 . S
C2705 H2689 0.930 . S
C2705 C2704 1.377 . S
C2705 C2706 1.379 . S
C2706 H2690 0.931 . S
C2706 C2700 1.383 . S
C2706 C2705 1.379 . S
H2707 C2701 0.959 . S
H2708 C2701 0.961 . S
H2709 C2701 0.960 . S
H2710 C2702 0.930 . S
H2711 C2703 0.929 . S
H2712 C2720 0.929 . S
H2713 C2722 0.930 . S
H2714 C2724 0.930 . S
H2715 C2727 0.929 . S
H2716 C2730 0.930 . S
H2717 C2732 0.960 . S
H2718 C2732 0.960 . S
H2719 C2732 0.960 . S
C2720 H2712 0.929 . S
C2720 C2721 1.377 . S
C2720 C2722 1.384 . S
C2721 C2720 1.377 . S
C2721 C2727 1.390 . S
C2722 H2713 0.930 . S
C2722 C2720 1.384 . S
C2722 C2723 1.372 . S
C2723 C2722 1.372 . S
C2723 C2724 1.400 . S
C2723 C2728 1.490 . S
C2724 H2714 0.930 . S
C2724 C2723 1.400 . S
C2724 C2727 1.386 . S
H2725 C2741 0.930 . S
H2726 C2742 0.931 . S
C2727 H2715 0.929 . S
C2727 C2721 1.390 . S
C2727 C2724 1.386 . S
C2728 C2723 1.490 . S
C2728 C2730 1.395 . S
C2728 C2731 1.403 . S
H2729 C2735 0.930 . S
C2730 H2716 0.930 . S
C2730 C2728 1.395 . S
C2730 C2733 1.403 . S
C2731 C2728 1.403 . S
C2731 C2732 1.524 . S
C2731 C2735 1.400 . S
C2732 H2717 0.960 . S
C2732 H2718 0.960 . S
C2732 H2719 0.960 . S
C2732 C2731 1.524 . S
C2733 C2730 1.403 . S
C2733 C2734 1.392 . S
C2733 C2737 1.495 . S
C2734 C2733 1.392 . S
C2734 C2735 1.385 . S
C2734 C2736 1.478 . S
C2735 H2729 0.930 . S
C2735 C2731 1.400 . S
C2735 C2734 1.385 . S
C2736 C2734 1.478 . S
C2736 C2738 1.381 . S
C2736 C2742 1.383 . S
C2737 C2733 1.495 . S
C2737 H2743 0.959 . S
C2737 H2744 0.961 . S
C2737 H2745 0.960 . S
C2738 C2736 1.381 . S
C2738 C2739 1.394 . S
C2738 H2746 0.930 . S
C2739 C2738 1.394 . S
C2739 C2740 1.383 . S
C2739 H2747 0.929 . S
C2740 C2739 1.383 . S
C2740 C2741 1.377 . S
C2741 H2725 0.930 . S
C2741 C2740 1.377 . S
C2741 C2742 1.379 . S
C2742 H2726 0.931 . S
C2742 C2736 1.383 . S
C2742 C2741 1.379 . S
H2743 C2737 0.959 . S
H2744 C2737 0.961 . S
H2745 C2737 0.960 . S
H2746 C2738 0.930 . S
H2747 C2739 0.929 . S
H2748 C2756 0.929 . S
H2749 C2758 0.930 . S
H2750 C2760 0.930 . S
H2751 C2763 0.929 . S
H2752 C2766 0.930 . S
H2753 C2768 0.960 . S
H2754 C2768 0.960 . S
H2755 C2768 0.960 . S
C2756 H2748 0.929 . S
C2756 C2757 1.377 . S
C2756 C2758 1.384 . S
C2757 C2756 1.377 . S
C2757 C2763 1.390 . S
C2758 H2749 0.930 . S
C2758 C2756 1.384 . S
C2758 C2759 1.372 . S
C2759 C2758 1.372 . S
C2759 C2760 1.400 . S
C2759 C2764 1.490 . S
C2760 H2750 0.930 . S
C2760 C2759 1.400 . S
C2760 C2763 1.386 . S
H2761 C2777 0.930 . S
H2762 C2778 0.931 . S
C2763 H2751 0.929 . S
C2763 C2757 1.390 . S
C2763 C2760 1.386 . S
C2764 C2759 1.490 . S
C2764 C2766 1.395 . S
C2764 C2767 1.403 . S
H2765 C2771 0.930 . S
C2766 H2752 0.930 . S
C2766 C2764 1.395 . S
C2766 C2769 1.403 . S
C2767 C2764 1.403 . S
C2767 C2768 1.524 . S
C2767 C2771 1.400 . S
C2768 H2753 0.960 . S
C2768 H2754 0.960 . S
C2768 H2755 0.960 . S
C2768 C2767 1.524 . S
C2769 C2766 1.403 . S
C2769 C2770 1.392 . S
C2769 C2773 1.495 . S
C2770 C2769 1.392 . S
C2770 C2771 1.385 . S
C2770 C2772 1.478 . S
C2771 H2765 0.930 . S
C2771 C2767 1.400 . S
C2771 C2770 1.385 . S
C2772 C2770 1.478 . S
C2772 C2774 1.381 . S
C2772 C2778 1.383 . S
C2773 C2769 1.495 . S
C2773 H2779 0.959 . S
C2773 H2780 0.961 . S
C2773 H2781 0.960 . S
C2774 C2772 1.381 . S
C2774 C2775 1.394 . S
C2774 H2782 0.930 . S
C2775 C2774 1.394 . S
C2775 C2776 1.383 . S
C2775 H2783 0.929 . S
C2776 C2775 1.383 . S
C2776 C2777 1.377 . S
C2777 H2761 0.930 . S
C2777 C2776 1.377 . S
C2777 C2778 1.379 . S
C2778 H2762 0.931 . S
C2778 C2772 1.383 . S
C2778 C2777 1.379 . S
H2779 C2773 0.959 . S
H2780 C2773 0.961 . S
H2781 C2773 0.960 . S
H2782 C2774 0.930 . S
H2783 C2775 0.929 . S
H2784 C2792 0.929 . S
H2785 C2794 0.930 . S
H2786 C2796 0.930 . S
H2787 C2799 0.929 . S
H2788 C2802 0.930 . S
H2789 C2804 0.960 . S
H2790 C2804 0.960 . S
H2791 C2804 0.960 . S
C2792 H2784 0.929 . S
C2792 C2793 1.377 . S
C2792 C2794 1.384 . S
C2793 C2792 1.377 . S
C2793 C2799 1.390 . S
C2794 H2785 0.930 . S
C2794 C2792 1.384 . S
C2794 C2795 1.372 . S
C2795 C2794 1.372 . S
C2795 C2796 1.400 . S
C2795 C2800 1.490 . S
C2796 H2786 0.930 . S
C2796 C2795 1.400 . S
C2796 C2799 1.386 . S
H2797 C2813 0.930 . S
H2798 C2814 0.931 . S
C2799 H2787 0.929 . S
C2799 C2793 1.390 . S
C2799 C2796 1.386 . S
C2800 C2795 1.490 . S
C2800 C2802 1.395 . S
C2800 C2803 1.403 . S
H2801 C2807 0.930 . S
C2802 H2788 0.930 . S
C2802 C2800 1.395 . S
C2802 C2805 1.403 . S
C2803 C2800 1.403 . S
C2803 C2804 1.524 . S
C2803 C2807 1.400 . S
C2804 H2789 0.960 . S
C2804 H2790 0.960 . S
C2804 H2791 0.960 . S
C2804 C2803 1.524 . S
C2805 C2802 1.403 . S
C2805 C2806 1.392 . S
C2805 C2809 1.495 . S
C2806 C2805 1.392 . S
C2806 C2807 1.385 . S
C2806 C2808 1.478 . S
C2807 H2801 0.930 . S
C2807 C2803 1.400 . S
C2807 C2806 1.385 . S
C2808 C2806 1.478 . S
C2808 C2810 1.397 . S
C2808 C2814 1.383 . S
C2809 C2805 1.495 . S
C2809 H2815 0.959 . S
C2809 H2816 0.961 . S
C2809 H2817 0.960 . S
C2810 C2808 1.397 . S
C2810 C2811 1.392 1_556 S
C2810 H2818 0.917 1_556 S
C2811 C2810 1.392 1_554 S
C2811 C2812 1.383 1_554 S
C2811 H2819 0.929 . S
C2812 C2811 1.383 1_556 S
C2812 C2813 1.377 . S
C2813 H2797 0.930 . S
C2813 C2812 1.377 . S
C2813 C2814 1.379 . S
C2814 H2798 0.931 . S
C2814 C2808 1.383 . S
C2814 C2813 1.379 . S
H2815 C2809 0.959 . S
H2816 C2809 0.961 . S
H2817 C2809 0.960 . S
H2818 C2810 0.917 1_554 S
H2819 C2811 0.929 . S
H2820 C2828 0.929 . S
H2821 C2830 0.930 . S
H2822 C2832 0.930 . S
H2823 C2835 0.929 . S
H2824 C2838 0.930 . S
H2825 C2840 0.960 . S
H2826 C2840 0.960 . S
H2827 C2840 0.960 . S
C2828 H2820 0.929 . S
C2828 C2829 1.377 . S
C2828 C2830 1.384 . S
C2829 C2828 1.377 . S
C2829 C2835 1.390 . S
C2830 H2821 0.930 . S
C2830 C2828 1.384 . S
C2830 C2831 1.372 . S
C2831 C2830 1.372 . S
C2831 C2832 1.400 . S
C2831 C2836 1.490 . S
C2832 H2822 0.930 . S
C2832 C2831 1.400 . S
C2832 C2835 1.386 . S
H2833 C2849 0.930 . S
H2834 C2850 0.931 . S
C2835 H2823 0.929 . S
C2835 C2829 1.390 . S
C2835 C2832 1.386 . S
C2836 C2831 1.490 . S
C2836 C2838 1.395 . S
C2836 C2839 1.403 . S
H2837 C2843 0.930 . S
C2838 H2824 0.930 . S
C2838 C2836 1.395 . S
C2838 C2841 1.403 . S
C2839 C2836 1.403 . S
C2839 C2840 1.524 . S
C2839 C2843 1.400 . S
C2840 H2825 0.960 . S
C2840 H2826 0.960 . S
C2840 H2827 0.960 . S
C2840 C2839 1.524 . S
C2841 C2838 1.403 . S
C2841 C2842 1.392 . S
C2841 C2845 1.495 . S
C2842 C2841 1.392 . S
C2842 C2843 1.385 . S
C2842 C2844 1.478 . S
C2843 H2837 0.930 . S
C2843 C2839 1.400 . S
C2843 C2842 1.385 . S
C2844 C2842 1.478 . S
C2844 C2846 1.381 . S
C2844 C2850 1.383 . S
C2845 C2841 1.495 . S
C2845 H2851 0.959 . S
C2845 H2852 0.961 . S
C2845 H2853 0.960 . S
C2846 C2844 1.381 . S
C2846 C2847 1.394 . S
C2846 H2854 0.930 . S
C2847 C2846 1.394 . S
C2847 C2848 1.383 . S
C2847 H2855 0.929 . S
C2848 C2847 1.383 . S
C2848 C2849 1.377 . S
C2849 H2833 0.930 . S
C2849 C2848 1.377 . S
C2849 C2850 1.379 . S
C2850 H2834 0.931 . S
C2850 C2844 1.383 . S
C2850 C2849 1.379 . S
H2851 C2845 0.959 . S
H2852 C2845 0.961 . S
H2853 C2845 0.960 . S
H2854 C2846 0.930 . S
H2855 C2847 0.929 . S
H2856 C2864 0.929 . S
H2857 C2866 0.930 . S
H2858 C2868 0.993 . S
H2859 C2871 0.929 . S
H2860 C2874 0.930 . S
H2861 C2876 0.960 . S
H2862 C2876 0.960 . S
H2863 C2876 0.960 1_556 S
C2864 H2856 0.929 . S
C2864 C2865 1.377 . S
C2864 C2866 1.384 . S
C2865 C2864 1.377 . S
C2865 C2871 1.390 . S
C2866 H2857 0.930 . S
C2866 C2864 1.384 . S
C2866 C2867 1.372 . S
C2867 C2866 1.372 . S
C2867 C2868 1.400 . S
C2867 C2872 1.490 . S
C2868 H2858 0.993 . S
C2868 C2867 1.400 . S
C2868 C2871 1.386 . S
H2869 C2885 0.872 1_556 S
H2870 C2886 0.931 1_556 S
C2871 H2859 0.929 . S
C2871 C2865 1.390 . S
C2871 C2868 1.386 . S
C2872 C2867 1.490 . S
C2872 C2874 1.395 . S
C2872 C2875 1.403 . S
H2873 C2879 0.930 . S
C2874 H2860 0.930 . S
C2874 C2872 1.395 . S
C2874 C2877 1.403 . S
C2875 C2872 1.403 . S
C2875 C2876 1.524 . S
C2875 C2879 1.400 . S
C2876 H2861 0.960 . S
C2876 H2862 0.960 . S
C2876 H2863 0.960 1_554 S
C2876 C2875 1.524 . S
C2877 C2874 1.403 . S
C2877 C2878 1.392 . S
C2877 C2881 1.495 . S
C2878 C2877 1.392 . S
C2878 C2879 1.385 . S
C2878 C2880 1.478 . S
C2879 H2873 0.930 . S
C2879 C2875 1.400 . S
C2879 C2878 1.385 . S
C2880 C2878 1.478 . S
C2880 C2882 1.381 . S
C2880 C2886 1.383 . S
C2881 C2877 1.495 . S
C2881 H2887 0.959 . S
C2881 H2888 0.961 . S
C2881 H2889 0.960 . S
C2882 C2880 1.381 . S
C2882 C2883 1.394 . S
C2882 H2890 0.930 . S
C2883 C2882 1.394 . S
C2883 C2884 1.383 . S
C2883 H2891 0.929 . S
C2884 C2883 1.383 . S
C2884 C2885 1.426 . S
C2885 H2869 0.872 1_554 S
C2885 C2884 1.426 . S
C2885 C2886 1.390 . S
C2886 H2870 0.931 1_554 S
C2886 C2880 1.383 . S
C2886 C2885 1.390 . S
H2887 C2881 0.959 . S
H2888 C2881 0.961 . S
H2889 C2881 0.960 . S
H2890 C2882 0.930 . S
H2891 C2883 0.929 . S
H2892 C2900 0.929 . S
H2893 C2902 0.930 . S
H2894 C2904 0.930 . S
H2895 C2907 0.929 . S
H2896 C2910 0.930 . S
H2897 C2912 0.960 . S
H2898 C2912 0.960 1_545 S
H2899 C2912 0.960 . S
C2900 H2892 0.929 . S
C2900 C2901 1.377 . S
C2900 C2902 1.384 . S
C2901 C2900 1.377 . S
C2901 C2907 1.390 1_545 S
C2902 H2893 0.930 . S
C2902 C2900 1.384 . S
C2902 C2903 1.372 1_545 S
C2903 C2902 1.372 1_565 S
C2903 C2904 1.400 . S
C2903 C2908 1.490 . S
C2904 H2894 0.930 . S
C2904 C2903 1.400 . S
C2904 C2907 1.386 . S
H2905 C2921 0.930 1_556 S
H2906 C2922 0.960 . S
C2907 H2895 0.929 . S
C2907 C2901 1.390 1_565 S
C2907 C2904 1.386 . S
C2908 C2903 1.490 . S
C2908 C2910 1.395 . S
C2908 C2911 1.403 . S
H2909 C2915 0.930 1_556 S
C2910 H2896 0.930 . S
C2910 C2908 1.395 . S
C2910 C2913 1.403 . S
C2911 C2908 1.403 . S
C2911 C2912 1.524 1_554 S
C2911 C2915 1.400 . S
C2912 H2897 0.960 . S
C2912 H2898 0.960 1_565 S
C2912 H2899 0.960 . S
C2912 C2911 1.524 1_556 S
C2913 C2910 1.403 . S
C2913 C2914 1.392 . S
C2913 C2917 1.495 . S
C2914 C2913 1.392 . S
C2914 C2915 1.385 . S
C2914 C2916 1.478 . S
C2915 H2909 0.930 1_554 S
C2915 C2911 1.400 . S
C2915 C2914 1.385 . S
C2916 C2914 1.478 . S
C2916 C2918 1.381 . S
C2916 C2922 1.383 . S
C2917 C2913 1.495 . S
C2917 H2923 0.959 . S
C2917 H2924 0.961 . S
C2917 H2925 0.960 . S
C2918 C2916 1.381 . S
C2918 C2919 1.394 . S
C2918 H2926 0.930 . S
C2919 C2918 1.394 . S
C2919 C2920 1.383 . S
C2919 H2927 0.929 . S
C2920 C2919 1.383 . S
C2920 C2921 1.377 . S
C2921 H2905 0.930 1_554 S
C2921 C2920 1.377 . S
C2921 C2922 1.379 . S
C2922 H2906 0.960 . S
C2922 C2916 1.383 . S
C2922 C2921 1.379 . S
H2923 C2917 0.959 . S
H2924 C2917 0.961 . S
H2925 C2917 0.960 . S
H2926 C2918 0.930 . S
H2927 C2919 0.929 . S
C1228 C193 1.509 . S
C1209 C50 1.516 . S
C1264 C252 1.496 . S
C1245 C61 1.498 . S
C1281 C67 1.511 . S
C1300 C369 1.507 . S
C1336 C437 1.503 . S
C1317 C41 1.506 . S
C1372 C516 1.494 . S
C1353 C95 1.498 . S
C1408 C641 1.519 . S
C1389 C113 1.521 . S
C1425 C106 1.487 . S
C1444 C701 1.486 . S
C1480 C809 1.519 . S
C1461 C86 1.521 . S
C1497 C104 1.495 . S
C1516 C905 1.491 . S
C1552 C965 1.517 . S
C1533 C88 1.519 . S
C1569 C94 1.522 . S
C1588 C868 1.521 . S
C1624 C985 1.502 . S
C1605 C112 1.504 . S
C1641 C70 1.495 . S
C1660 C1053 1.490 . S
C1677 C40 1.517 . S
C1696 C1044 1.516 . S
C1713 C49 1.510 . S
C1732 C1073 1.505 . S
C1749 C59 1.519 . S
C1768 C1081 1.518 . S
C1785 C34 1.493 . S
C1804 C465 1.488 . S
C1821 C133 1.500 . S
C1840 C428 1.496 . S
C1876 C164 1.515 . S
C1857 C139 1.517 . S
C1912 C261 1.510 . S
C1893 C77 1.512 . S
C1929 C43 1.499 . S
C1948 C525 1.498 . S
C1984 C817 1.500 . S
C1965 C103 1.505 . S
C2020 C545 1.529 . S
C2001 C85 1.532 . S
C2056 C729 1.495 . S
C2037 C115 1.496 . S
C2092 C721 1.508 . S
C2073 C131 1.512 . S
C2109 C142 1.497 . S
C2128 C789 1.495 . S
C2145 C76 1.511 . S
C2164 C553 1.507 . S
C2200 C604 1.502 . S
C2181 C122 1.505 . S
C2217 C32 1.499 . S
C2236 C349 1.494 . S
C2272 C457 1.521 . S
C2253 C5 1.522 . S
C2308 C173 1.482 . S
C2289 C16 1.483 . S
C2344 C289 1.516 . S
C2325 C23 1.520 . S
C2361 C14 1.495 . S
C2380 C993 1.494 . S
C2397 C25 1.518 . S
C2416 C877 1.515 . S
C2433 C31 1.523 . S
C2452 C956 1.519 . S
C2469 C4 1.504 . S
C2488 C897 1.503 . S
C2524 C1141 1.494 . S
C2505 C79 1.495 . S
C2560 C1132 1.514 . S
C2541 C121 1.516 . S
C2596 C1161 1.509 . S
C2577 C130 1.510 . S
C2613 C140 1.519 . S
C2632 C1169 1.519 . S
C2649 C97 1.493 . S
C2668 C633 1.488 . S
C2704 C613 1.494 . S
C2685 C52 1.498 . S
C2740 C692 1.517 . S
C2721 C58 1.518 . S
C2776 C780 1.506 . S
C2757 C68 1.511 . S
C2793 C124 1.499 . S
C2812 C340 1.497 . S
C2848 C281 1.502 . S
C2829 C13 1.504 . S
C2865 C22 1.532 . S
C2884 C377 1.528 . S
C2920 C201 1.491 . S
C2901 C7 1.493 . S
