# Generated by pormake.
# Topology apo, (3,6)-cn, num edge types: 1
# Building blocks:
#     Node 0, Type 0, BuildingBlock: BETDIP_clean_linker_0, # of connection points: 3
#     Node 1, Type 0, BuildingBlock: BETDIP_clean_linker_0, # of connection points: 3
#     Node 2, Type 0, BuildingBlock: BETDIP_clean_linker_0, # of connection points: 3
#     Node 3, Type 0, BuildingBlock: BETDIP_clean_linker_0, # of connection points: 3
#     Node 4, Type 0, BuildingBlock: BETDIP_clean_linker_0, # of connection points: 3
#     Node 5, Type 0, BuildingBlock: BETDIP_clean_linker_0, # of connection points: 3
#     Node 6, Type 0, BuildingBlock: BETDIP_clean_linker_0, # of connection points: 3
#     Node 7, Type 0, BuildingBlock: BETDIP_clean_linker_0, # of connection points: 3
#     Node 8, Type 1, BuildingBlock: KUMBOL_clean_sbu_1, # of connection points: 6
#     Node 9, Type 1, BuildingBlock: KUMBOL_clean_sbu_1, # of connection points: 6
#     Node 10, Type 1, BuildingBlock: KUMBOL_clean_sbu_1, # of connection points: 6
#     Node 11, Type 1, BuildingBlock: KUMBOL_clean_sbu_1, # of connection points: 6
#     Edge 12, Type (0, 1), BuildingBlock: CIFDUS_clean_linker_0, # of connection points: 2
#     Edge 13, Type (0, 1), BuildingBlock: CIFDUS_clean_linker_0, # of connection points: 2
#     Edge 14, Type (0, 1), BuildingBlock: CIFDUS_clean_linker_0, # of connection points: 2
#     Edge 15, Type (0, 1), BuildingBlock: CIFDUS_clean_linker_0, # of connection points: 2
#     Edge 16, Type (0, 1), BuildingBlock: CIFDUS_clean_linker_0, # of connection points: 2
#     Edge 17, Type (0, 1), BuildingBlock: CIFDUS_clean_linker_0, # of connection points: 2
#     Edge 18, Type (0, 1), BuildingBlock: CIFDUS_clean_linker_0, # of connection points: 2
#     Edge 19, Type (0, 1), BuildingBlock: CIFDUS_clean_linker_0, # of connection points: 2
#     Edge 20, Type (0, 1), BuildingBlock: CIFDUS_clean_linker_0, # of connection points: 2
#     Edge 21, Type (0, 1), BuildingBlock: CIFDUS_clean_linker_0, # of connection points: 2
#     Edge 22, Type (0, 1), BuildingBlock: CIFDUS_clean_linker_0, # of connection points: 2
#     Edge 23, Type (0, 1), BuildingBlock: CIFDUS_clean_linker_0, # of connection points: 2
#     Edge 24, Type (0, 1), BuildingBlock: CIFDUS_clean_linker_0, # of connection points: 2
#     Edge 25, Type (0, 1), BuildingBlock: CIFDUS_clean_linker_0, # of connection points: 2
#     Edge 26, Type (0, 1), BuildingBlock: CIFDUS_clean_linker_0, # of connection points: 2
#     Edge 27, Type (0, 1), BuildingBlock: CIFDUS_clean_linker_0, # of connection points: 2
#     Edge 28, Type (0, 1), BuildingBlock: CIFDUS_clean_linker_0, # of connection points: 2
#     Edge 29, Type (0, 1), BuildingBlock: CIFDUS_clean_linker_0, # of connection points: 2
#     Edge 30, Type (0, 1), BuildingBlock: CIFDUS_clean_linker_0, # of connection points: 2
#     Edge 31, Type (0, 1), BuildingBlock: CIFDUS_clean_linker_0, # of connection points: 2
#     Edge 32, Type (0, 1), BuildingBlock: CIFDUS_clean_linker_0, # of connection points: 2
#     Edge 33, Type (0, 1), BuildingBlock: CIFDUS_clean_linker_0, # of connection points: 2
#     Edge 34, Type (0, 1), BuildingBlock: CIFDUS_clean_linker_0, # of connection points: 2
#     Edge 35, Type (0, 1), BuildingBlock: CIFDUS_clean_linker_0, # of connection points: 2
# Relax obj value: 0.037
# Max RMSD: 0.206
# Mean RMSD: 0.161
data_MOF--net-apo--node1-KUMBOL_clean_sbu_1--node2-BETDIP_clean_linker_0--edge1-CIFDUS_clean_linker_0
_symmetry_space_group_name_H-M    P1
_symmetry_Int_Tables_number       1
_symmetry_cell_setting            triclinic
loop_
_symmetry_equiv_pos_as_xyz
'x, y, z'
_cell_length_a     24.479466
_cell_length_b     36.494861
_cell_length_c     45.897105
_cell_angle_alpha  90.248046
_cell_angle_beta   89.923956
_cell_angle_gamma 90.716274
loop_
_atom_site_label
_atom_site_type_symbol
_atom_site_fract_x
_atom_site_fract_y
_atom_site_fract_z
_atom_type_partial_charge
H0 H 0.28162 0.3605 0.4484 0.0
H1 H 0.28282 0.40943 0.36313 0.0
H2 H 0.36746 0.46272 0.4334 0.0
H3 H 0.19334 0.38601 0.36535 0.0
C4 C 0.20273 0.35826 0.37206 0.0
C5 C 0.29396 0.3826 0.43404 0.0
C6 C 0.32736 0.41149 0.44462 0.0
C7 C 0.27637 0.38209 0.40486 0.0
C8 C 0.29409 0.41014 0.38594 0.0
C9 C 0.3266 0.43926 0.39626 0.0
C10 C 0.34247 0.44 0.42557 0.0
N11 N 0.24148 0.35312 0.39476 0.0
H12 H 0.2049 0.15639 0.95395 0.0
H13 H 0.20797 0.1121 0.86701 0.0
H14 H 0.1438 0.04686 0.93694 0.0
H15 H 0.29212 0.1456 0.86863 0.0
C16 C 0.27538 0.17127 0.8765 0.0
C17 C 0.1968 0.13379 0.93912 0.0
C18 C 0.17227 0.10114 0.94946 0.0
C19 C 0.21117 0.13758 0.90961 0.0
C20 C 0.19877 0.10897 0.88996 0.0
C21 C 0.17431 0.07627 0.89969 0.0
C22 C 0.16204 0.07235 0.92946 0.0
N23 N 0.23721 0.17052 0.89995 0.0
H24 H 0.75713 0.16773 0.59237 0.0
H25 H 0.7866 0.12709 0.67877 0.0
H26 H 0.86348 0.07602 0.60541 0.0
H27 H 0.6973 0.14093 0.68302 0.0
C28 C 0.69749 0.16836 0.6739 0.0
C29 C 0.77775 0.14899 0.6068 0.0
C30 C 0.81222 0.12191 0.59519 0.0
C31 C 0.76689 0.15034 0.63687 0.0
C32 C 0.79349 0.12578 0.6555 0.0
C33 C 0.82773 0.09863 0.64434 0.0
C34 C 0.83692 0.09692 0.61418 0.0
N35 N 0.72797 0.17557 0.64803 0.0
H36 H 0.77095 0.35582 0.08259 0.0
H37 H 0.75153 0.3924 0.17099 0.0
H38 H 0.66792 0.44776 0.10213 0.0
H39 H 0.84742 0.38094 0.16683 0.0
C40 C 0.84127 0.35263 0.15993 0.0
C41 C 0.75203 0.37406 0.09821 0.0
C42 C 0.71755 0.40215 0.08864 0.0
C43 C 0.76542 0.37106 0.12777 0.0
C44 C 0.74174 0.39497 0.14809 0.0
C45 C 0.70678 0.42279 0.13907 0.0
C46 C 0.69497 0.4263 0.10927 0.0
N47 N 0.80425 0.34483 0.13682 0.0
H48 H 0.6864 0.66984 0.58674 0.0
H49 H 0.68698 0.63573 0.6766 0.0
H50 H 0.58551 0.579 0.61473 0.0
H51 H 0.77639 0.6581 0.67262 0.0
C52 C 0.77014 0.68349 0.66087 0.0
C53 C 0.67188 0.65161 0.60372 0.0
C54 C 0.63316 0.62395 0.59714 0.0
C55 C 0.69235 0.65583 0.63216 0.0
C56 C 0.67286 0.63244 0.65439 0.0
C57 C 0.63395 0.60503 0.64798 0.0
C58 C 0.61462 0.60086 0.6195 0.0
N59 N 0.73127 0.68434 0.63786 0.0
H60 H 0.77174 0.85658 0.08521 0.0
H61 H 0.79308 0.91805 0.16429 0.0
H62 H 0.89996 0.9381 0.09112 0.0
H63 H 0.77215 0.85725 0.18102 0.0
C64 C 0.73634 0.85106 0.16781 0.0
C65 C 0.79328 0.87778 0.09739 0.0
C66 C 0.8379 0.89634 0.08477 0.0
C67 C 0.77745 0.88508 0.12604 0.0
C68 C 0.80532 0.91236 0.14205 0.0
C69 C 0.84947 0.93191 0.12964 0.0
C70 C 0.86557 0.92369 0.10085 0.0
N71 N 0.73492 0.86345 0.13856 0.0
H72 H 0.25109 0.84167 0.43417 0.0
H73 H 0.23541 0.89837 0.35308 0.0
H74 H 0.15895 0.94152 0.43013 0.0
H75 H 0.23703 0.84037 0.33577 0.0
C76 C 0.27066 0.8292 0.34819 0.0
C77 C 0.23567 0.86467 0.42194 0.0
C78 C 0.20388 0.89141 0.43592 0.0
C79 C 0.24577 0.8664 0.39199 0.0
C80 C 0.22632 0.89627 0.37609 0.0
C81 C 0.19515 0.92364 0.38952 0.0
C82 C 0.18305 0.92065 0.41947 0.0
N83 N 0.27588 0.83798 0.37829 0.0
H84 H 0.26594 0.67343 0.95211 0.0
H85 H 0.27765 0.61475 0.87125 0.0
H86 H 0.35333 0.57222 0.94868 0.0
H87 H 0.26828 0.67176 0.85212 0.0
C88 C 0.2404 0.68554 0.86683 0.0
C89 C 0.2811 0.65024 0.93981 0.0
C90 C 0.31038 0.62276 0.95397 0.0
C91 C 0.27053 0.64813 0.90994 0.0
C92 C 0.28844 0.61746 0.89399 0.0
C93 C 0.3184 0.58953 0.90764 0.0
C94 C 0.32927 0.59272 0.93775 0.0
N95 N 0.24029 0.67686 0.89699 0.0
C96 C 0.82335 0.15255 0.27274 0.0
C97 C 0.77885 0.09288 0.27344 0.0
C98 C 0.82523 0.11538 0.27819 0.0
C99 C 0.73135 0.1082 0.26173 0.0
C100 C 0.77529 0.16836 0.26188 0.0
C101 C 0.72964 0.14586 0.25586 0.0
N102 N 0.86763 0.17355 0.27953 0.0
C103 C 0.86568 0.21079 0.27763 0.0
C104 C 0.77413 0.20641 0.25818 0.0
C105 C 0.81937 0.22776 0.2664 0.0
Gd106 Gd 0.08396 0.13593 0.24317 0.0
Gd107 Gd 0.94486 0.14294 0.29653 0.0
N108 N 0.87194 0.10144 0.28924 0.0
C109 C 0.78142 0.05582 0.28106 0.0
C110 C 0.87375 0.06581 0.29823 0.0
C111 C 0.82889 0.04233 0.29383 0.0
H112 H 0.91037 0.0555 0.30822 0.0
H113 H 0.83087 0.01392 0.30034 0.0
H114 H 0.04805 0.20592 0.19794 0.0
H115 H 0.90016 0.22736 0.28467 0.0
H116 H 0.0632 0.27242 0.19477 0.0
H117 H 0.74669 0.0376 0.27772 0.0
H118 H 0.69545 0.09131 0.25762 0.0
H119 H 0.18731 0.1032 0.28136 0.0
H120 H 0.73807 0.21963 0.24977 0.0
H121 H 0.81845 0.25728 0.2643 0.0
H122 H 0.20675 0.29669 0.2633 0.0
H123 H 0.69241 0.15744 0.24734 0.0
H124 H 0.28941 0.19319 0.30874 0.0
H125 H 0.26856 0.12662 0.30805 0.0
N126 N 0.16294 0.1559 0.26753 0.0
C127 C 0.17488 0.19227 0.26653 0.0
C128 C 0.19659 0.13219 0.28149 0.0
C129 C 0.2541 0.18299 0.29686 0.0
C130 C 0.24243 0.1454 0.29657 0.0
C131 C 0.22041 0.20693 0.28156 0.0
H132 H 0.26496 0.25673 0.29269 0.0
N133 N 0.0995 0.19929 0.23497 0.0
C134 C 0.14152 0.21475 0.25026 0.0
C135 C 0.12314 0.2738 0.22905 0.0
C136 C 0.15372 0.25255 0.24819 0.0
C137 C 0.07477 0.21904 0.21357 0.0
C138 C 0.0846 0.25673 0.21103 0.0
O139 O 0.9375 0.10157 0.25971 0.0
O140 O 0.01531 0.09748 0.22984 0.0
O141 O 0.12132 0.1413 0.20012 0.0
O142 O 0.13999 0.09495 0.2268 0.0
O143 O 0.00288 0.09716 0.30674 0.0
O144 O 0.07656 0.08834 0.27438 0.0
O145 O 0.08764 0.15137 0.29149 0.0
O146 O 0.01137 0.18579 0.29534 0.0
O147 O 0.95897 0.13014 0.34238 0.0
O148 O 0.901 0.17146 0.3307 0.0
O149 O 0.00496 0.15707 0.22434 0.0
O150 O 0.97635 0.18533 0.26546 0.0
C151 C 0.96517 0.08777 0.23756 0.0
C152 C 0.04633 0.0794 0.29735 0.0
C153 C 0.13751 0.08514 0.17538 0.0
C154 C 0.14022 0.07498 0.12236 0.0
C155 C 0.11632 0.02499 0.15511 0.0
C156 C 0.12229 0.04818 0.17912 0.0
C157 C 0.12487 0.0382 0.12701 0.0
C158 C 0.14693 0.09834 0.14682 0.0
C159 C 0.14473 0.10962 0.20113 0.0
C160 C 0.19742 0.26762 0.26425 0.0
C161 C 0.23077 0.24484 0.28086 0.0
H162 H 0.13113 0.30292 0.22683 0.0
C163 C 0.06147 0.1789 0.30334 0.0
C164 C 0.97162 0.17963 0.23744 0.0
C165 C 0.88012 0.13629 0.37218 0.0
C166 C 0.84602 0.12615 0.42177 0.0
C167 C 0.79443 0.10345 0.38005 0.0
C168 C 0.83361 0.11806 0.36127 0.0
C169 C 0.80051 0.10737 0.41005 0.0
C170 C 0.886 0.14065 0.40259 0.0
C171 C 0.92087 0.15194 0.35171 0.0
H172 H 0.10545 0.99646 0.15831 0.0
H173 H 0.11525 0.03698 0.20063 0.0
H174 H 0.12055 0.01929 0.10888 0.0
H175 H 0.15898 0.12672 0.14367 0.0
H176 H 0.75877 0.08948 0.37129 0.0
H177 H 0.82682 0.11564 0.33821 0.0
H178 H 0.76875 0.09643 0.42411 0.0
H179 H 0.92133 0.15517 0.41124 0.0
C180 C 0.65757 0.42784 0.77545 0.0
C181 C 0.65014 0.49281 0.78586 0.0
C182 C 0.62838 0.45689 0.78709 0.0
C183 C 0.70038 0.49923 0.77183 0.0
C184 C 0.70844 0.43405 0.76181 0.0
C185 C 0.72945 0.46994 0.75985 0.0
N186 N 0.63561 0.3935 0.77713 0.0
C187 C 0.66307 0.36401 0.76653 0.0
C188 C 0.73643 0.40399 0.75039 0.0
C189 C 0.71376 0.36881 0.7529 0.0
Gd190 Gd 0.42034 0.38381 0.74421 0.0
Gd191 Gd 0.54939 0.38822 0.79911 0.0
N192 N 0.57938 0.44985 0.80018 0.0
C193 C 0.62131 0.52108 0.79933 0.0
C194 C 0.55399 0.47672 0.81563 0.0
C195 C 0.5736 0.51286 0.81479 0.0
H196 H 0.51975 0.47037 0.82947 0.0
H197 H 0.55249 0.5342 0.82656 0.0
H198 H 0.45047 0.29712 0.72314 0.0
H199 H 0.64606 0.33674 0.76879 0.0
H200 H 0.41119 0.23527 0.72819 0.0
H201 H 0.63662 0.54906 0.79889 0.0
H202 H 0.71746 0.5267 0.77046 0.0
H203 H 0.32779 0.44109 0.77177 0.0
H204 H 0.77563 0.40762 0.73972 0.0
H205 H 0.73532 0.34538 0.74436 0.0
H206 H 0.23946 0.25423 0.77598 0.0
H207 H 0.76831 0.4753 0.74927 0.0
H208 H 0.19028 0.37723 0.80063 0.0
H209 H 0.23669 0.4374 0.79487 0.0
N210 N 0.33312 0.38359 0.76511 0.0
C211 C 0.30784 0.35031 0.76738 0.0
C212 C 0.30811 0.41468 0.77447 0.0
C213 C 0.23023 0.37868 0.79047 0.0
C214 C 0.25637 0.4127 0.78735 0.0
C215 C 0.25588 0.34694 0.78044 0.0
H216 H 0.19175 0.30897 0.79356 0.0
N217 N 0.38615 0.32329 0.74608 0.0
C218 C 0.33505 0.31931 0.75756 0.0
C219 C 0.33878 0.25379 0.75018 0.0
C220 C 0.31047 0.28434 0.76039 0.0
C221 C 0.41248 0.29381 0.73462 0.0
C222 C 0.38967 0.25862 0.7369 0.0
O223 O 0.55861 0.40963 0.75305 0.0
O224 O 0.47552 0.43386 0.74154 0.0
O225 O 0.41689 0.37129 0.69791 0.0
O226 O 0.36109 0.4104 0.71636 0.0
O227 O 0.46958 0.41538 0.81249 0.0
O228 O 0.43034 0.43618 0.76988 0.0
O229 O 0.41195 0.36017 0.78998 0.0
O230 O 0.49643 0.33739 0.80053 0.0
O231 O 0.55114 0.39446 0.84628 0.0
O232 O 0.61063 0.36051 0.82485 0.0
O233 O 0.49901 0.3565 0.72981 0.0
O234 O 0.54139 0.33673 0.77198 0.0
C235 C 0.52908 0.43442 0.74015 0.0
C236 C 0.43858 0.43856 0.79817 0.0
C237 C 0.39054 0.41996 0.66785 0.0
C238 C 0.38557 0.43277 0.6156 0.0
C239 C 0.4329 0.47513 0.6484 0.0
C240 C 0.42044 0.45261 0.67202 0.0
C241 C 0.41572 0.46534 0.62039 0.0
C242 C 0.37296 0.41019 0.63963 0.0
C243 C 0.37938 0.39533 0.69258 0.0
C244 C 0.25873 0.28091 0.77344 0.0
C245 C 0.23154 0.3121 0.78343 0.0
H246 H 0.32136 0.22645 0.75203 0.0
C247 C 0.44297 0.33542 0.80208 0.0
C248 C 0.53377 0.33531 0.74356 0.0
C249 C 0.63864 0.39182 0.86757 0.0
C250 C 0.67908 0.40223 0.91561 0.0
C251 C 0.72018 0.42984 0.87257 0.0
C252 C 0.67994 0.41369 0.85513 0.0
C253 C 0.71983 0.42425 0.90261 0.0
C254 C 0.63847 0.386 0.89784 0.0
C255 C 0.59531 0.37534 0.8493 0.0
H256 H 0.45599 0.50028 0.6518 0.0
H257 H 0.43421 0.46066 0.69352 0.0
H258 H 0.42547 0.48356 0.60251 0.0
H259 H 0.35041 0.38475 0.63635 0.0
H260 H 0.75192 0.44663 0.86275 0.0
H261 H 0.68135 0.41818 0.83196 0.0
H262 H 0.75198 0.43671 0.91563 0.0
H263 H 0.60647 0.36925 0.90755 0.0
C264 C 0.85037 0.83965 0.76161 0.0
C265 C 0.85613 0.77481 0.77242 0.0
C266 C 0.8783 0.81062 0.77348 0.0
C267 C 0.8065 0.76839 0.75785 0.0
C268 C 0.79921 0.83361 0.7482 0.0
C269 C 0.77818 0.79773 0.74566 0.0
N270 N 0.8717 0.874 0.76473 0.0
C271 C 0.8408 0.90372 0.75798 0.0
C272 C 0.76987 0.86393 0.73867 0.0
C273 C 0.79027 0.89918 0.74416 0.0
Gd274 Gd 0.07068 0.89374 0.72023 0.0
Gd275 Gd 0.9599 0.8782 0.78552 0.0
N276 N 0.92688 0.81758 0.78669 0.0
C277 C 0.88436 0.74665 0.78626 0.0
C278 C 0.95348 0.79064 0.80133 0.0
C279 C 0.93291 0.75471 0.80109 0.0
H280 H 0.9909 0.79694 0.81282 0.0
H281 H 0.95456 0.73326 0.81226 0.0
H282 H 0.00762 0.95031 0.67326 0.0
H283 H 0.85466 0.93112 0.76335 0.0
H284 H 0.00459 0.0167 0.66324 0.0
H285 H 0.86868 0.71876 0.78594 0.0
H286 H 0.78925 0.74097 0.7563 0.0
H287 H 0.19085 0.87839 0.75183 0.0
H288 H 0.73047 0.86049 0.72822 0.0
H289 H 0.76676 0.92288 0.7381 0.0
H290 H 0.15101 0.0673 0.72081 0.0
H291 H 0.73934 0.79251 0.73503 0.0
H292 H 0.26884 0.98231 0.76851 0.0
H293 H 0.26841 0.91462 0.77219 0.0
N294 N 0.14829 0.92533 0.73747 0.0
C295 C 0.1493 0.9622 0.73365 0.0
C296 C 0.19136 0.90791 0.74996 0.0
C297 C 0.23505 0.96656 0.75946 0.0
C298 C 0.235 0.92833 0.76156 0.0
C299 C 0.19229 0.98394 0.74497 0.0
H300 H 0.22397 0.03936 0.74981 0.0
N301 N 0.0685 0.95568 0.70605 0.0
C302 C 0.10768 0.97791 0.71777 0.0
C303 C 0.06965 0.0301 0.69319 0.0
C304 C 0.10872 0.01586 0.71213 0.0
C305 C 0.03422 0.96877 0.68522 0.0
C306 C 0.03317 1.00627 0.67906 0.0
O307 O 0.98369 0.83299 0.75429 0.0
O308 O 0.99353 0.86085 0.71021 0.0
O309 O 0.10562 0.90174 0.67706 0.0
O310 O 0.11552 0.85012 0.69884 0.0
O311 O 0.04525 0.85647 0.79506 0.0
O312 O 0.08985 0.84688 0.75042 0.0
O313 O 0.08556 0.91451 0.76657 0.0
O314 O 1.0011 0.93323 0.78046 0.0
O315 O 0.98029 0.87869 0.83182 0.0
O316 O 0.89984 0.89397 0.81779 0.0
O317 O 0.98184 0.90602 0.71178 0.0
O318 O 0.95169 0.92778 0.75597 0.0
C319 C 0.97569 0.83338 0.72612 0.0
C320 C 0.08316 0.84069 0.77864 0.0
C321 C 0.09854 0.84892 0.64787 0.0
C322 C 0.08871 0.84665 0.5948 0.0
C323 C 0.03635 0.80475 0.6254 0.0
C324 C 0.06005 0.82015 0.65027 0.0
C325 C 0.05026 0.81798 0.59786 0.0
C326 C 0.11322 0.8618 0.61998 0.0
C327 C 0.11959 0.86772 0.67427 0.0
C328 C 0.14999 0.038 0.72454 0.0
C329 C 0.19166 0.02208 0.74097 0.0
H330 H 0.069 0.0591 0.68826 0.0
C331 C 0.05415 0.93754 0.78052 0.0
C332 C 0.9504 0.92747 0.7273 0.0
C333 C 0.9063 0.86608 0.86371 0.0
C334 C 0.88381 0.85954 0.91541 0.0
C335 C 0.85116 0.81442 0.88004 0.0
C336 C 0.87634 0.83395 0.85763 0.0
C337 C 0.85463 0.82708 0.90869 0.0
C338 C 0.90997 0.87882 0.89263 0.0
C339 C 0.93123 0.88754 0.83993 0.0
H340 H 0.00659 0.78272 0.62749 0.0
H341 H 0.04754 0.80988 0.67138 0.0
H342 H 0.03114 0.80564 0.57887 0.0
H343 H 0.1422 0.88435 0.61793 0.0
H344 H 0.82792 0.78974 0.87511 0.0
H345 H 0.87135 0.82429 0.83553 0.0
H346 H 0.83303 0.81193 0.92546 0.0
H347 H 0.93276 0.90381 0.89729 0.0
C348 C 0.71636 0.62512 0.29295 0.0
C349 C 0.74593 0.68795 0.30141 0.0
C350 C 0.704 0.6613 0.29896 0.0
C351 C 0.80041 0.67781 0.29668 0.0
C352 C 0.77108 0.61456 0.28905 0.0
C353 C 0.81295 0.64121 0.29046 0.0
N354 N 0.67504 0.59999 0.29223 0.0
C355 C 0.68568 0.56356 0.28919 0.0
C356 C 0.7821 0.57742 0.28446 0.0
C357 C 0.73923 0.55177 0.28481 0.0
Gd358 Gd 0.47175 0.6253 0.23334 0.0
Gd359 Gd 0.58651 0.62268 0.29797 0.0
N360 N 0.65091 0.67032 0.30293 0.0
C361 C 0.73181 0.72387 0.30889 0.0
C362 C 0.63707 0.70473 0.31189 0.0
C363 C 0.67719 0.73218 0.31449 0.0
H364 H 0.59484 0.71109 0.31629 0.0
H365 H 0.666 0.75968 0.32084 0.0
H366 H 0.52264 0.55685 0.19166 0.0
H367 H 0.65281 0.54354 0.29015 0.0
H368 H 0.50647 0.49083 0.18416 0.0
H369 H 0.7628 0.74517 0.31091 0.0
H370 H 0.8332 0.69795 0.2982 0.0
H371 H 0.36596 0.65598 0.27191 0.0
H372 H 0.82359 0.56818 0.28129 0.0
H373 H 0.74745 0.52291 0.28194 0.0
H374 H 0.34333 0.46534 0.23875 0.0
H375 H 0.85523 0.63368 0.28732 0.0
H376 H 0.25689 0.56541 0.28769 0.0
H377 H 0.28044 0.63118 0.29352 0.0
N378 N 0.39018 0.60462 0.25461 0.0
C379 C 0.37707 0.56872 0.25012 0.0
C380 C 0.35571 0.62728 0.26935 0.0
C381 C 0.29417 0.57618 0.27807 0.0
C382 C 0.3074 0.61332 0.2815 0.0
C383 C 0.32901 0.5534 0.26216 0.0
H384 H 0.28098 0.50361 0.26746 0.0
N385 N 0.45923 0.56256 0.223 0.0
C386 C 0.41293 0.54702 0.23424 0.0
C387 C 0.4358 0.48895 0.21215 0.0
C388 C 0.40057 0.5096 0.22955 0.0
C389 C 0.49068 0.54337 0.20386 0.0
C390 C 0.48048 0.5061 0.1988 0.0
O391 O 0.60164 0.66634 0.26452 0.0
O392 O 0.53919 0.66753 0.22589 0.0
O393 O 0.45595 0.62082 0.18691 0.0
O394 O 0.41038 0.65928 0.2128 0.0
O395 O 0.51697 0.66295 0.30321 0.0
O396 O 0.47018 0.67633 0.26019 0.0
O397 O 0.46097 0.60396 0.27981 0.0
O398 O 0.53765 0.57213 0.28826 0.0
O399 O 0.5413 0.6255 0.33852 0.0
O400 O 0.62481 0.60606 0.33844 0.0
O401 O 0.55723 0.60852 0.22113 0.0
O402 O 0.5838 0.57928 0.26271 0.0
C403 C 0.58355 0.67928 0.23965 0.0
C404 C 0.48229 0.68242 0.28774 0.0
C405 C 0.36517 0.63046 0.17273 0.0
C406 C 0.31905 0.61167 0.12775 0.0
C407 C 0.27251 0.60597 0.17438 0.0
C408 C 0.31831 0.62041 0.18863 0.0
C409 C 0.27285 0.60142 0.14417 0.0
C410 C 0.36509 0.62634 0.14224 0.0
C411 C 0.4154 0.64341 0.18749 0.0
C412 C 0.35314 0.49411 0.24191 0.0
C413 C 0.3175 0.51594 0.25817 0.0
H414 H 0.42778 0.46013 0.20805 0.0
C415 C 0.48457 0.574 0.28882 0.0
C416 C 0.59001 0.58625 0.23486 0.0
C417 C 0.56836 0.58829 0.37798 0.0
C418 C 0.57282 0.57571 0.43005 0.0
C419 C 0.52119 0.53515 0.39774 0.0
C420 C 0.53587 0.55683 0.37386 0.0
C421 C 0.53923 0.5446 0.42575 0.0
C422 C 0.58714 0.59737 0.40595 0.0
C423 C 0.58175 0.61325 0.35401 0.0
H424 H 0.23664 0.59818 0.18682 0.0
H425 H 0.31699 0.6235 0.21202 0.0
H426 H 0.23671 0.59033 0.13358 0.0
H427 H 0.40132 0.63377 0.12987 0.0
H428 H 0.49566 0.51103 0.39454 0.0
H429 H 0.52175 0.54924 0.35236 0.0
H430 H 0.52756 0.52741 0.44397 0.0
H431 H 0.61199 0.6219 0.40906 0.0
H432 H 0.09365 0.95431 0.389 0.0
H433 H 0.25343 0.96314 0.34964 0.0
H434 H 0.22066 0.00988 0.31645 0.0
H435 H 0.14669 0.04772 0.29802 0.0
H436 H 0.98811 0.04215 0.33911 0.0
H437 H 0.02015 0.99457 0.37178 0.0
C438 C 0.12142 0.96684 0.37343 0.0
C439 C 0.17576 0.95488 0.37166 0.0
C440 C 0.10238 0.99401 0.35438 0.0
C441 C 0.21113 0.97131 0.35118 0.0
C442 C 0.19247 0.99811 0.33216 0.0
C443 C 0.11895 0.03609 0.31399 0.0
C444 C 0.0649 0.04855 0.3158 0.0
C445 C 0.13805 0.00941 0.33334 0.0
C446 C 0.02985 0.0331 0.33693 0.0
C447 C 0.04822 1.00593 0.35582 0.0
H448 H 0.35205 0.58701 0.85052 0.0
H449 H 0.32906 0.51827 0.92612 0.0
H450 H 0.36518 0.46621 0.89937 0.0
H451 H 0.40393 0.43978 0.85448 0.0
H452 H 0.41887 0.50695 0.77777 0.0
H453 H 0.38377 0.55959 0.80474 0.0
C454 C 0.35386 0.56059 0.86115 0.0
C455 C 0.33821 0.55712 0.89062 0.0
C456 C 0.37306 0.53024 0.84533 0.0
C457 C 0.34204 0.52244 0.90382 0.0
C458 C 0.36225 0.49237 0.88842 0.0
C459 C 0.39923 0.46594 0.8437 0.0
C460 C 0.41406 0.46955 0.81424 0.0
C461 C 0.37816 0.49596 0.85922 0.0
C462 C 0.40735 0.50345 0.8004 0.0
C463 C 0.38756 0.53361 0.81585 0.0
H464 H 0.67557 0.53996 0.66337 0.0
H465 H 0.54309 0.61328 0.68096 0.0
H466 H 0.4985 0.56684 0.71168 0.0
H467 H 0.49485 0.50391 0.73096 0.0
H468 H 0.62659 0.4301 0.71206 0.0
H469 H 0.67422 0.47807 0.68471 0.0
C470 C 0.6376 0.54587 0.67456 0.0
C471 C 0.61282 0.5799 0.6705 0.0
C472 C 0.61188 0.51881 0.69161 0.0
C473 C 0.56307 0.58733 0.68437 0.0
C474 C 0.53745 0.56072 0.70164 0.0
C475 C 0.53389 0.49838 0.72074 0.0
C476 C 0.55715 0.46356 0.72342 0.0
C477 C 0.56094 0.52609 0.70493 0.0
C478 C 0.60805 0.45681 0.71042 0.0
C479 C 0.63525 0.48418 0.69473 0.0
H480 H 0.80673 0.98563 0.16364 0.0
H481 H 0.96012 0.94063 0.13546 0.0
H482 H 0.00955 0.98445 0.16645 0.0
H483 H 0.00923 0.03515 0.2023 0.0
H484 H 0.85554 0.08125 0.22848 0.0
H485 H 0.80639 0.03715 0.1982 0.0
C486 C 0.85102 0.9854 0.16431 0.0
C487 C 0.87965 0.95986 0.14729 0.0
C488 C 0.87921 0.01071 0.18211 0.0
C489 C 0.93707 0.96026 0.14809 0.0
C490 C 0.9654 0.98522 0.16592 0.0
C491 C 0.96502 0.03557 0.20134 0.0
C492 C 0.93608 0.06088 0.21852 0.0
C493 C 0.93693 0.01053 0.18312 0.0
C494 C 0.87879 0.06115 0.2167 0.0
C495 C 0.85061 0.03622 0.19893 0.0
H496 H 0.8298 0.02504 0.63613 0.0
H497 H 0.8771 0.10975 0.69721 0.0
H498 H 0.91349 0.0636 0.73021 0.0
H499 H 0.9359 0.99917 0.74056 0.0
H500 H 0.89259 0.91528 0.67807 0.0
H501 H 0.84985 0.96093 0.64694 0.0
C502 C 0.84848 0.03342 0.65656 0.0
C503 C 0.85109 0.07076 0.66411 0.0
C504 C 0.86941 1.00681 0.67532 0.0
C505 C 0.87441 0.08114 0.69095 0.0
C506 C 0.89521 0.05478 0.70982 0.0
C507 C 0.91591 0.99094 0.72045 0.0
C508 C 0.917 0.95411 0.71153 0.0
C509 C 0.89308 0.01753 0.7022 0.0
C510 C 0.89206 0.94362 0.68522 0.0
C511 C 0.868 0.96969 0.66738 0.0
H512 H 0.7029 0.49691 0.13481 0.0
H513 H 0.66222 0.40743 0.19232 0.0
H514 H 0.6284 0.45065 0.22874 0.0
H515 H 0.60634 0.51369 0.24324 0.0
H516 H 0.6429 0.60278 0.1847 0.0
H517 H 0.683 0.55999 0.14979 0.0
C518 C 0.68622 0.48687 0.15522 0.0
C519 C 0.68481 0.44904 0.16079 0.0
C520 C 0.66668 0.51184 0.17599 0.0
C521 C 0.66401 0.43647 0.18758 0.0
C522 C 0.64465 0.46114 0.2084 0.0
C523 C 0.62434 0.52376 0.22315 0.0
C524 C 0.62221 0.56126 0.21655 0.0
C525 C 0.64565 0.49888 0.20282 0.0
C526 C 0.64439 0.57396 0.19018 0.0
C527 C 0.66692 0.54951 0.17017 0.0
H528 H 0.39277 0.43172 0.34957 0.0
H529 H 0.3043 0.51205 0.39909 0.0
H530 H 0.3408 0.56109 0.36795 0.0
H531 H 0.40288 0.58135 0.32848 0.0
H532 H 0.49856 0.50123 0.28267 0.0
H533 H 0.45402 0.4518 0.31002 0.0
C534 C 0.38113 0.45996 0.35322 0.0
C535 C 0.3458 0.46846 0.37632 0.0
C536 C 0.40371 0.48797 0.3359 0.0
C537 C 0.33146 0.50508 0.38131 0.0
C538 C 0.35231 0.53303 0.36355 0.0
C539 C 0.41325 0.55299 0.32434 0.0
C540 C 0.45362 0.54469 0.30366 0.0
C541 C 0.38911 0.52487 0.34103 0.0
C542 C 0.46763 0.50804 0.29865 0.0
C543 C 0.44224 0.47985 0.31426 0.0
H544 H 0.11478 0.08157 0.85005 0.0
H545 H 0.20265 1.00422 0.90227 0.0
H546 H 0.1781 0.9548 0.86818 0.0
H547 H 0.12745 0.93299 0.8246 0.0
H548 H 0.03257 0.00955 0.77535 0.0
H549 H 0.06467 0.05999 0.8066 0.0
C550 C 0.12888 0.05393 0.85377 0.0
C551 C 0.16052 0.04651 0.87858 0.0
C552 C 0.1134 0.02556 0.8345 0.0
C553 C 0.17798 0.0105 0.8834 0.0
C554 C 0.16409 0.9823 0.86388 0.0
C555 C 0.1145 0.96085 0.82065 0.0
C556 C 0.07802 0.96784 0.79779 0.0
C557 C 0.13132 0.9894 0.8395 0.0
C558 C 0.06064 1.00377 0.79294 0.0
C559 C 0.07889 0.03251 0.81081 0.0
H560 H 0.22819 0.12453 0.99836 0.0
H561 H 0.07994 0.06866 0.97154 0.0
H562 H 0.05593 0.0576 0.02226 0.0
H563 H 0.07831 0.06125 0.07422 0.0
H564 H 0.22553 0.11727 0.10188 0.0
H565 H 0.24751 0.13187 0.05109 0.0
C566 C 0.19026 0.11037 1.00358 0.0
C567 C 0.1565 0.09694 0.98087 0.0
C568 C 0.17626 0.10425 0.03305 0.0
C569 C 0.10759 0.07851 0.98831 0.0
C570 C 0.09351 0.07239 0.01741 0.0
C571 C 0.11519 0.07675 0.06918 0.0
C572 C 0.15044 0.08784 0.09191 0.0
C573 C 0.12787 0.08463 0.03993 0.0
C574 C 0.19747 0.10854 0.08492 0.0
C575 C 0.21029 0.11663 0.05581 0.0
H576 H 0.2702 0.3971 0.49489 0.0
H577 H 0.43036 0.42785 0.46327 0.0
H578 H 0.46277 0.43564 0.51311 0.0
H579 H 0.44495 0.43673 0.56559 0.0
H580 H 0.28537 0.40642 0.59801 0.0
H581 H 0.2539 0.39464 0.54817 0.0
C582 C 0.31237 0.40497 0.49895 0.0
C583 C 0.34753 0.41235 0.47528 0.0
C584 C 0.33091 0.40954 0.52786 0.0
C585 C 0.40207 0.42268 0.481 0.0
C586 C 0.42076 0.42703 0.50953 0.0
C587 C 0.40323 0.42759 0.56177 0.0
C588 C 0.36746 0.42282 0.58553 0.0
C589 C 0.38534 0.42118 0.5331 0.0
C590 C 0.31387 0.41017 0.58018 0.0
C591 C 0.29575 0.40363 0.55164 0.0
H592 H 0.69222 0.35096 0.04698 0.0
H593 H 0.72239 0.46674 0.05933 0.0
H594 H 0.71048 0.4771 1.00729 0.0
H595 H 0.6947 0.45324 0.95803 0.0
H596 H 0.66513 0.33761 0.94495 0.0
H597 H 0.673 0.32726 0.99745 0.0
C598 C 0.69621 0.37841 0.03821 0.0
C599 C 0.70816 0.40802 0.05702 0.0
C600 C 0.68934 0.38423 1.00815 0.0
C601 C 0.7126 0.44353 0.04541 0.0
C602 C 0.70608 0.44947 1.01562 0.0
C603 C 0.69006 0.42575 0.96668 0.0
C604 C 0.67978 0.39621 0.94761 0.0
C605 C 0.6949 0.42002 0.99677 0.0
C606 C 0.67278 0.36086 0.95919 0.0
C607 C 0.67762 0.35489 0.98918 0.0
H608 H 0.84005 0.17402 0.55468 0.0
H609 H 0.80019 0.05918 0.56395 0.0
H610 H 0.81147 0.04993 0.51167 0.0
H611 H 0.82964 0.07446 0.46312 0.0
H612 H 0.86934 0.18902 0.45261 0.0
H613 H 0.86254 0.19828 0.50547 0.0
C614 C 0.83377 0.14706 0.54515 0.0
C615 C 0.81924 0.11733 0.56318 0.0
C616 C 0.84079 0.14181 0.51489 0.0
C617 C 0.81177 0.08243 0.5506 0.0
C618 C 0.81814 0.07711 0.52069 0.0
C619 C 0.83705 0.10145 0.47241 0.0
C620 C 0.8496 0.13105 0.45395 0.0
C621 C 0.83236 0.10658 0.50263 0.0
C622 C 0.85999 0.16572 0.46636 0.0
C623 C 0.85556 0.17108 0.49656 0.0
H624 H 0.85179 0.93956 0.03685 0.0
H625 H 0.86488 0.82823 0.06681 0.0
H626 H 0.88587 0.8076 0.01741 0.0
H627 H 0.89364 0.8203 0.96536 0.0
H628 H 0.87444 0.93077 0.93422 0.0
H629 H 0.86437 0.95278 0.9843 0.0
C630 C 0.86007 0.91093 0.0325 0.0
C631 C 0.85647 0.88536 0.05528 0.0
C632 C 0.87094 0.8991 1.00383 0.0
C633 C 0.86694 0.84828 0.04948 0.0
C634 C 0.87895 0.83649 0.02128 0.0
C635 C 0.88719 0.84922 0.96947 0.0
C636 C 0.88421 0.87371 0.94594 0.0
C637 C 0.8798 0.8615 0.9982 0.0
C638 C 0.87728 0.91125 0.95183 0.0
C639 C 0.87102 0.92385 0.9805 0.0
H640 H 0.69219 0.62275 0.54672 0.0
H641 H 0.52798 0.61103 0.57995 0.0
H642 H 0.49505 0.59427 0.53148 0.0
H643 H 0.51315 0.58125 0.47977 0.0
H644 H 0.67677 0.59406 0.44617 0.0
H645 H 0.7096 0.61229 0.49448 0.0
C646 C 0.64908 0.61712 0.54323 0.0
C647 C 0.61271 0.61791 0.56697 0.0
C648 C 0.63036 0.60739 0.51525 0.0
C649 C 0.557 0.61014 0.56213 0.0
C650 C 0.53808 0.60057 0.53441 0.0
C651 C 0.55602 0.58782 0.48313 0.0
C652 C 0.59255 0.5861 0.45954 0.0
C653 C 0.57449 0.5986 0.51089 0.0
C654 C 0.64786 0.59529 0.46403 0.0
C655 C 0.66665 0.60568 0.49163 0.0
H656 H 0.29193 0.57017 0.99462 0.0
H657 H 0.34988 0.68146 0.98472 0.0
H658 H 0.36047 0.6873 0.03755 0.0
H659 H 0.34924 0.66162 0.08678 0.0
H660 H 0.28785 0.55112 0.0967 0.0
H661 H 0.28276 0.54401 0.04376 0.0
C662 C 0.30752 0.59551 1.00406 0.0
C663 C 0.32012 0.62533 0.98585 0.0
C664 C 0.31257 0.59887 0.03447 0.0
C665 C 0.33955 0.65822 0.99835 0.0
C666 C 0.34569 0.66154 0.02853 0.0
C667 C 0.33535 0.63588 0.07729 0.0
C668 C 0.31886 0.60696 0.09559 0.0
C669 C 0.33173 0.63219 0.04683 0.0
C670 C 0.30028 0.57389 0.08304 0.0
C671 C 0.2975 0.56978 0.05279 0.0
H672 H 0.10474 0.89388 0.46268 0.0
H673 H 0.27624 0.87998 0.47992 0.0
H674 H 0.25636 0.86778 0.53125 0.0
H675 H 0.18944 0.85676 0.57061 0.0
H676 H 0.01763 0.86748 0.55263 0.0
H677 H 0.03818 0.88542 0.50249 0.0
C678 C 0.13774 0.88876 0.47782 0.0
C679 C 0.19184 0.88781 0.46755 0.0
C680 C 0.12585 0.88092 0.50718 0.0
C681 C 0.23421 0.88064 0.48731 0.0
C682 C 0.22287 0.87366 0.51665 0.0
C683 C 0.15667 0.86355 0.55578 0.0
C684 C 0.10213 0.86069 0.56525 0.0
C685 C 0.16876 0.87308 0.52675 0.0
C686 C 0.05993 0.86918 0.54574 0.0
C687 C 0.07165 0.87947 0.51709 0.0
H688 H 0.21761 0.28356 0.37716 0.0
H689 H 0.11755 0.36475 0.33586 0.0
H690 H 0.06414 0.31665 0.31177 0.0
H691 H 0.0461 0.25191 0.30185 0.0
H692 H 0.1469 0.16967 0.34096 0.0
H693 H 0.19967 0.21758 0.36654 0.0
C694 C 0.1839 0.29061 0.36304 0.0
C695 C 0.17118 0.3277 0.35848 0.0
C696 C 0.15346 0.26264 0.34891 0.0
C697 C 0.12789 0.33642 0.33982 0.0
C698 C 0.09731 0.30895 0.32603 0.0
C699 C 0.07921 0.24442 0.31626 0.0
C700 C 0.09244 0.20736 0.3197 0.0
C701 C 0.10965 0.27202 0.33041 0.0
C702 C 0.13601 0.1981 0.33803 0.0
C703 C 0.16613 0.22548 0.35262 0.0
H704 H 0.36811 0.17912 0.8459 0.0
H705 H 0.23376 0.24097 0.88042 0.0
H706 H 0.2726 0.29735 0.85946 0.0
H707 H 0.34621 0.32914 0.83167 0.0
H708 H 0.48267 0.26666 0.80006 0.0
H709 H 0.44184 0.21059 0.81952 0.0
C710 C 0.34745 0.205 0.8489 0.0
C711 C 0.29838 0.20597 0.86474 0.0
C712 C 0.37058 0.23722 0.83737 0.0
C713 C 0.27191 0.23961 0.86852 0.0
C714 C 0.29405 0.2718 0.85647 0.0
C715 C 0.3669 0.3032 0.82917 0.0
C716 C 0.41751 0.30203 0.8146 0.0
C717 C 0.34358 0.27098 0.84096 0.0
C718 C 0.44404 0.26833 0.81151 0.0
C719 C 0.42059 0.23621 0.8225 0.0
H720 H 0.6646 0.23601 0.6549 0.0
H721 H 0.66382 0.16444 0.72942 0.0
H722 H 0.61459 0.20998 0.75795 0.0
H723 H 0.5708 0.26973 0.76172 0.0
H724 H 0.56578 0.34033 0.68674 0.0
H725 H 0.61791 0.29575 0.65838 0.0
C726 C 0.65378 0.23057 0.6774 0.0
C727 C 0.66804 0.19708 0.69017 0.0
C728 C 0.62428 0.25665 0.69356 0.0
C729 C 0.65323 0.1901 0.7192 0.0
C730 C 0.62513 0.2161 0.73553 0.0
C731 C 0.58133 0.27538 0.7392 0.0
C732 C 0.56476 0.30825 0.72636 0.0
C733 C 0.61033 0.2494 0.72294 0.0
C734 C 0.57796 0.31507 0.69705 0.0
C735 C 0.60789 0.28965 0.68086 0.0
H736 H 0.84217 0.27842 0.14917 0.0
H737 H 0.90183 0.36228 0.20803 0.0
H738 H 0.94634 0.31605 0.23761 0.0
H739 H 0.96845 0.25224 0.24681 0.0
H740 H 0.91265 0.16763 0.18786 0.0
H741 H 0.86637 0.21366 0.15808 0.0
C742 C 0.86497 0.28647 0.16845 0.0
C743 C 0.86874 0.32365 0.17653 0.0
C744 C 0.89088 0.25968 0.18531 0.0
C745 C 0.89853 0.33379 0.20144 0.0
C746 C 0.92387 0.30742 0.21839 0.0
C747 C 0.94562 0.24388 0.22759 0.0
C748 C 0.94298 0.20677 0.21964 0.0
C749 C 0.92017 0.27036 0.21057 0.0
C750 C 0.91474 0.1962 0.19434 0.0
C751 C 0.88839 0.22245 0.1774 0.0
H752 H 0.85834 0.68406 0.69565 0.0
H753 H 0.76222 0.75462 0.64147 0.0
H754 H 0.82047 0.80712 0.65493 0.0
H755 H 0.89659 0.83355 0.68432 0.0
H756 H 0.99118 0.76217 0.73859 0.0
H757 H 0.93673 0.70939 0.72247 0.0
C758 C 0.85043 0.7109 0.68663 0.0
C759 C 0.8061 0.71545 0.66766 0.0
C760 C 0.8842 0.7408 0.69432 0.0
C761 C 0.79622 0.75035 0.65609 0.0
C762 C 0.82954 0.78039 0.66378 0.0
C763 C 0.90581 0.80626 0.69203 0.0
C764 C 0.94769 0.80159 0.71257 0.0
C765 C 0.87348 0.77602 0.68306 0.0
C766 C 0.95899 0.7663 0.72279 0.0
C767 C 0.92778 0.73616 0.71367 0.0
H768 H 0.76209 0.79578 0.20289 0.0
H769 H 0.62814 0.83978 0.15411 0.0
H770 H 0.56783 0.7901 0.17157 0.0
H771 H 0.5535 0.7343 0.20203 0.0
H772 H 0.69271 0.68785 0.24511 0.0
H773 H 0.75044 0.73809 0.22886 0.0
C774 C 0.71962 0.79446 0.19616 0.0
C775 C 0.69923 0.82138 0.17762 0.0
C776 C 0.68609 0.7654 0.20546 0.0
C777 C 0.64452 0.81922 0.16851 0.0
C778 C 0.61014 0.79086 0.17848 0.0
C779 C 0.59652 0.73514 0.20763 0.0
C780 C 0.61812 0.7082 0.22607 0.0
C781 C 0.63047 0.76374 0.19708 0.0
C782 C 0.67424 0.70929 0.23254 0.0
C783 C 0.70763 0.73779 0.22284 0.0
H784 H 0.35799 0.79233 0.37091 0.0
H785 H 0.26721 0.80959 0.29173 0.0
H786 H 0.32675 0.76757 0.26554 0.0
H787 H 0.40218 0.72485 0.26538 0.0
H788 H 0.49252 0.70565 0.34455 0.0
H789 H 0.43595 0.74993 0.37036 0.0
C790 C 0.35138 0.7869 0.34793 0.0
C791 C 0.30816 0.80386 0.33323 0.0
C792 C 0.38573 0.76253 0.33299 0.0
C793 C 0.30014 0.79669 0.30347 0.0
C794 C 0.33418 0.77274 0.28848 0.0
C795 C 0.41001 0.7304 0.28823 0.0
C796 C 0.45159 0.71168 0.30293 0.0
C797 C 0.37685 0.75537 0.30305 0.0
C798 C 0.4608 0.7195 0.33259 0.0
C799 C 0.42832 0.74477 0.34744 0.0
H800 H 0.24361 0.7135 0.81274 0.0
H801 H 0.16264 0.72588 0.89561 0.0
H802 H 0.10814 0.77581 0.87604 0.0
H803 H 0.08254 0.81547 0.83497 0.0
H804 H 0.16454 0.80236 0.75217 0.0
H805 H 0.21968 0.75378 0.77225 0.0
C806 C 0.21403 0.7272 0.82649 0.0
C807 C 0.20715 0.716 0.85549 0.0
C808 C 0.18303 0.75593 0.81514 0.0
C809 C 0.16882 0.73398 0.87316 0.0
C810 C 0.13761 0.76257 0.86199 0.0
C811 C 0.11252 0.80209 0.82131 0.0
C812 C 0.11878 0.81263 0.79197 0.0
C813 C 0.14425 0.77375 0.83295 0.0
C814 C 0.1583 0.79496 0.77476 0.0
C815 C 0.19 0.76699 0.7862 0.0
loop_
_geom_bond_atom_site_label_1
_geom_bond_atom_site_label_2
_geom_bond_distance
_geom_bond_site_symmetry_2
_ccdc_geom_bond_type
H0 C5 0.930 . S
H1 C8 0.930 . S
H2 C10 0.930 . S
H3 C4 1.016 . S
C4 H3 1.016 . S
C4 N11 1.286 . S
C5 H0 0.930 . S
C5 C6 1.397 . S
C5 C7 1.361 . S
C6 C5 1.397 . S
C6 C10 1.390 . S
C7 C5 1.361 . S
C7 C8 1.393 . S
C7 N11 1.413 . S
C8 H1 0.930 . S
C8 C7 1.393 . S
C8 C9 1.399 . S
C9 C8 1.399 . S
C9 C10 1.381 . S
C10 H2 0.930 . S
C10 C6 1.390 . S
C10 C9 1.381 . S
N11 C4 1.286 . S
N11 C7 1.413 . S
H12 C17 0.930 . S
H13 C20 0.930 . S
H14 C22 0.930 . S
H15 C16 1.016 . S
C16 H15 1.016 . S
C16 N23 1.286 . S
C17 H12 0.930 . S
C17 C18 1.397 . S
C17 C19 1.361 . S
C18 C17 1.397 . S
C18 C22 1.390 . S
C19 C17 1.361 . S
C19 C20 1.393 . S
C19 N23 1.413 . S
C20 H13 0.930 . S
C20 C19 1.393 . S
C20 C21 1.399 . S
C21 C20 1.399 . S
C21 C22 1.381 . S
C22 H14 0.930 . S
C22 C18 1.390 . S
C22 C21 1.381 . S
N23 C16 1.286 . S
N23 C19 1.413 . S
H24 C29 0.930 . S
H25 C32 0.930 . S
H26 C34 0.930 . S
H27 C28 1.016 . S
C28 H27 1.016 . S
C28 N35 1.286 . S
C29 H24 0.930 . S
C29 C30 1.397 . S
C29 C31 1.361 . S
C30 C29 1.397 . S
C30 C34 1.390 . S
C31 C29 1.361 . S
C31 C32 1.393 . S
C31 N35 1.413 . S
C32 H25 0.930 . S
C32 C31 1.393 . S
C32 C33 1.399 . S
C33 C32 1.399 . S
C33 C34 1.381 . S
C34 H26 0.930 . S
C34 C30 1.390 . S
C34 C33 1.381 . S
N35 C28 1.286 . S
N35 C31 1.413 . S
H36 C41 0.930 . S
H37 C44 0.930 . S
H38 C46 0.930 . S
H39 C40 1.016 . S
C40 H39 1.016 . S
C40 N47 1.286 . S
C41 H36 0.930 . S
C41 C42 1.397 . S
C41 C43 1.361 . S
C42 C41 1.397 . S
C42 C46 1.390 . S
C43 C41 1.361 . S
C43 C44 1.393 . S
C43 N47 1.413 . S
C44 H37 0.930 . S
C44 C43 1.393 . S
C44 C45 1.399 . S
C45 C44 1.399 . S
C45 C46 1.381 . S
C46 H38 0.930 . S
C46 C42 1.390 . S
C46 C45 1.381 . S
N47 C40 1.286 . S
N47 C43 1.413 . S
H48 C53 0.930 . S
H49 C56 0.930 . S
H50 C58 0.930 . S
H51 C52 1.016 . S
C52 H51 1.016 . S
C52 N59 1.286 . S
C53 H48 0.930 . S
C53 C54 1.397 . S
C53 C55 1.361 . S
C54 C53 1.397 . S
C54 C58 1.390 . S
C55 C53 1.361 . S
C55 C56 1.393 . S
C55 N59 1.413 . S
C56 H49 0.930 . S
C56 C55 1.393 . S
C56 C57 1.399 . S
C57 C56 1.399 . S
C57 C58 1.381 . S
C58 H50 0.930 . S
C58 C54 1.390 . S
C58 C57 1.381 . S
N59 C52 1.286 . S
N59 C55 1.413 . S
H60 C65 0.930 . S
H61 C68 0.930 . S
H62 C70 0.930 . S
H63 C64 1.016 . S
C64 H63 1.016 . S
C64 N71 1.286 . S
C65 H60 0.930 . S
C65 C66 1.397 . S
C65 C67 1.361 . S
C66 C65 1.397 . S
C66 C70 1.390 . S
C67 C65 1.361 . S
C67 C68 1.393 . S
C67 N71 1.413 . S
C68 H61 0.930 . S
C68 C67 1.393 . S
C68 C69 1.399 . S
C69 C68 1.399 . S
C69 C70 1.381 . S
C70 H62 0.930 . S
C70 C66 1.390 . S
C70 C69 1.381 . S
N71 C64 1.286 . S
N71 C67 1.413 . S
H72 C77 0.930 . S
H73 C80 0.930 . S
H74 C82 0.930 . S
H75 C76 1.016 . S
C76 H75 1.016 . S
C76 N83 1.286 . S
C77 H72 0.930 . S
C77 C78 1.397 . S
C77 C79 1.361 . S
C78 C77 1.397 . S
C78 C82 1.390 . S
C79 C77 1.361 . S
C79 C80 1.393 . S
C79 N83 1.413 . S
C80 H73 0.930 . S
C80 C79 1.393 . S
C80 C81 1.399 . S
C81 C80 1.399 . S
C81 C82 1.381 . S
C82 H74 0.930 . S
C82 C78 1.390 . S
C82 C81 1.381 . S
N83 C76 1.286 . S
N83 C79 1.413 . S
H84 C89 0.930 . S
H85 C92 0.930 . S
H86 C94 0.930 . S
H87 C88 1.016 . S
C88 H87 1.016 . S
C88 N95 1.286 . S
C89 H84 0.930 . S
C89 C90 1.397 . S
C89 C91 1.361 . S
C90 C89 1.397 . S
C90 C94 1.390 . S
C91 C89 1.361 . S
C91 C92 1.393 . S
C91 N95 1.413 . S
C92 H85 0.930 . S
C92 C91 1.393 . S
C92 C93 1.399 . S
C93 C92 1.399 . S
C93 C94 1.381 . S
C94 H86 0.930 . S
C94 C90 1.390 . S
C94 C93 1.381 . S
N95 C88 1.286 . S
N95 C91 1.413 . S
C96 C98 1.422 . S
C96 C100 1.415 . S
C96 N102 1.369 . S
C97 C98 1.421 . S
C97 C99 1.417 . S
C97 C109 1.422 1_545 S
C98 C96 1.422 . S
C98 C97 1.421 . S
C98 N108 1.359 . S
C99 C97 1.417 . S
C99 C101 1.329 . S
C99 H118 0.930 1_545 S
C100 C96 1.415 . S
C100 C101 1.437 . S
C100 C104 1.413 . S
C101 C99 1.329 . S
C101 C100 1.437 . S
C101 H123 0.929 . S
N102 C96 1.369 . S
N102 C103 1.338 . S
N102 Gd107 2.622 . S
C103 N102 1.338 . S
C103 C105 1.378 . S
C103 H115 0.929 . S
C104 C100 1.413 . S
C104 C105 1.348 . S
C104 H120 0.931 . S
C105 C103 1.378 . S
C105 C104 1.348 . S
C105 H121 0.930 . S
Gd106 N126 2.622 . S
Gd106 N133 2.570 . S
Gd106 O140 2.353 1_455 S
Gd106 O141 2.468 . S
Gd106 O142 2.427 . S
Gd106 O144 2.388 . S
Gd106 O145 2.386 . S
Gd106 O149 2.307 1_455 S
Gd106 C159 2.805 . S
Gd107 N102 2.622 . S
Gd107 N108 2.570 . S
Gd107 O139 2.386 . S
Gd107 O143 2.307 1_655 S
Gd107 O146 2.353 1_655 S
Gd107 O147 2.468 . S
Gd107 O148 2.427 . S
Gd107 O150 2.388 . S
Gd107 C171 2.805 . S
N108 C98 1.359 . S
N108 Gd107 2.570 . S
N108 C110 1.343 . S
C109 C97 1.422 1_565 S
C109 C111 1.321 . S
C109 H117 0.931 . S
C110 N108 1.343 . S
C110 C111 1.390 1_545 S
C110 H112 0.931 . S
C111 C109 1.321 . S
C111 C110 1.390 1_565 S
C111 H113 0.930 . S
H112 C110 0.931 . S
H113 C111 0.930 . S
H114 C137 0.931 . S
H115 C103 0.929 . S
H116 C138 0.930 . S
H117 C109 0.931 . S
H118 C99 0.930 1_565 S
H119 C128 0.929 . S
H120 C104 0.931 . S
H121 C105 0.930 . S
H122 C160 0.930 . S
H123 C101 0.929 . S
H124 C129 0.931 . S
H125 C130 0.930 . S
N126 Gd106 2.622 . S
N126 C127 1.369 . S
N126 C128 1.338 . S
C127 N126 1.369 . S
C127 C131 1.415 . S
C127 C134 1.422 . S
C128 H119 0.929 . S
C128 N126 1.338 . S
C128 C130 1.378 . S
C129 H124 0.931 . S
C129 C130 1.348 . S
C129 C131 1.413 . S
C130 H125 0.930 . S
C130 C128 1.378 . S
C130 C129 1.348 . S
C131 C127 1.415 . S
C131 C129 1.413 . S
C131 C161 1.437 . S
H132 C161 0.929 . S
N133 Gd106 2.570 . S
N133 C134 1.359 . S
N133 C137 1.343 . S
C134 C127 1.422 . S
C134 N133 1.359 . S
C134 C136 1.421 . S
C135 C136 1.422 . S
C135 C138 1.321 . S
C135 H162 0.931 . S
C136 C134 1.421 . S
C136 C135 1.422 . S
C136 C160 1.417 . S
C137 H114 0.931 . S
C137 N133 1.343 . S
C137 C138 1.390 . S
C138 H116 0.930 . S
C138 C135 1.321 . S
C138 C137 1.390 . S
O139 Gd107 2.386 . S
O139 C151 1.265 . S
O140 Gd106 2.353 1_655 S
O140 C151 1.242 . S
O141 Gd106 2.468 . S
O141 C159 1.263 . S
O142 Gd106 2.427 . S
O142 C159 1.252 . S
O143 Gd107 2.307 1_455 S
O143 C152 1.261 . S
O144 Gd106 2.388 . S
O144 C152 1.252 . S
O145 Gd106 2.386 . S
O145 C163 1.265 . S
O146 Gd107 2.353 1_455 S
O146 C163 1.242 . S
O147 Gd107 2.468 . S
O147 C171 1.263 . S
O148 Gd107 2.427 . S
O148 C171 1.252 . S
O149 Gd106 2.307 1_655 S
O149 C164 1.261 . S
O150 Gd107 2.388 . S
O150 C164 1.252 . S
C151 O139 1.265 . S
C151 O140 1.242 . S
C152 O143 1.261 . S
C152 O144 1.252 . S
C153 C156 1.394 . S
C153 C158 1.370 . S
C153 C159 1.500 . S
C154 C157 1.383 . S
C154 C158 1.395 . S
C155 C156 1.396 . S
C155 C157 1.365 . S
C155 H172 0.929 . S
C156 C153 1.394 . S
C156 C155 1.396 . S
C156 H173 0.930 . S
C157 C154 1.383 . S
C157 C155 1.365 . S
C157 H174 0.931 . S
C158 C153 1.370 . S
C158 C154 1.395 . S
C158 H175 0.930 . S
C159 Gd106 2.805 . S
C159 O141 1.263 . S
C159 O142 1.252 . S
C159 C153 1.500 . S
C160 H122 0.930 . S
C160 C136 1.417 . S
C160 C161 1.329 . S
C161 C131 1.437 . S
C161 H132 0.929 . S
C161 C160 1.329 . S
H162 C135 0.931 . S
C163 O145 1.265 . S
C163 O146 1.242 . S
C164 O149 1.261 . S
C164 O150 1.252 . S
C165 C168 1.394 . S
C165 C170 1.370 . S
C165 C171 1.500 . S
C166 C169 1.383 . S
C166 C170 1.395 . S
C167 C168 1.396 . S
C167 C169 1.365 . S
C167 H176 0.929 . S
C168 C165 1.394 . S
C168 C167 1.396 . S
C168 H177 0.930 . S
C169 C166 1.383 . S
C169 C167 1.365 . S
C169 H178 0.931 . S
C170 C165 1.370 . S
C170 C166 1.395 . S
C170 H179 0.930 . S
C171 Gd107 2.805 . S
C171 O147 1.263 . S
C171 O148 1.252 . S
C171 C165 1.500 . S
H172 C155 0.929 . S
H173 C156 0.930 . S
H174 C157 0.931 . S
H175 C158 0.930 . S
H176 C167 0.929 . S
H177 C168 0.930 . S
H178 C169 0.931 . S
H179 C170 0.930 . S
C180 C182 1.422 . S
C180 C184 1.415 . S
C180 N186 1.369 . S
C181 C182 1.421 . S
C181 C183 1.417 . S
C181 C193 1.422 . S
C182 C180 1.422 . S
C182 C181 1.421 . S
C182 N192 1.359 . S
C183 C181 1.417 . S
C183 C185 1.329 . S
C183 H202 0.930 . S
C184 C180 1.415 . S
C184 C185 1.437 . S
C184 C188 1.413 . S
C185 C183 1.329 . S
C185 C184 1.437 . S
C185 H207 0.929 . S
N186 C180 1.369 . S
N186 C187 1.338 . S
N186 Gd191 2.622 . S
C187 N186 1.338 . S
C187 C189 1.378 . S
C187 H199 0.929 . S
C188 C184 1.413 . S
C188 C189 1.348 . S
C188 H204 0.931 . S
C189 C187 1.378 . S
C189 C188 1.348 . S
C189 H205 0.930 . S
Gd190 N210 2.622 . S
Gd190 N217 2.570 . S
Gd190 O224 2.353 . S
Gd190 O225 2.468 . S
Gd190 O226 2.427 . S
Gd190 O228 2.388 . S
Gd190 O229 2.386 . S
Gd190 O233 2.307 . S
Gd190 C243 2.805 . S
Gd191 N186 2.622 . S
Gd191 N192 2.570 . S
Gd191 O223 2.386 . S
Gd191 O227 2.307 . S
Gd191 O230 2.353 . S
Gd191 O231 2.468 . S
Gd191 O232 2.427 . S
Gd191 O234 2.388 . S
Gd191 C255 2.805 . S
N192 C182 1.359 . S
N192 Gd191 2.570 . S
N192 C194 1.343 . S
C193 C181 1.422 . S
C193 C195 1.321 . S
C193 H201 0.931 . S
C194 N192 1.343 . S
C194 C195 1.390 . S
C194 H196 0.931 . S
C195 C193 1.321 . S
C195 C194 1.390 . S
C195 H197 0.930 . S
H196 C194 0.931 . S
H197 C195 0.930 . S
H198 C221 0.931 . S
H199 C187 0.929 . S
H200 C222 0.930 . S
H201 C193 0.931 . S
H202 C183 0.930 . S
H203 C212 0.929 . S
H204 C188 0.931 . S
H205 C189 0.930 . S
H206 C244 0.930 . S
H207 C185 0.929 . S
H208 C213 0.931 . S
H209 C214 0.930 . S
N210 Gd190 2.622 . S
N210 C211 1.369 . S
N210 C212 1.338 . S
C211 N210 1.369 . S
C211 C215 1.415 . S
C211 C218 1.422 . S
C212 H203 0.929 . S
C212 N210 1.338 . S
C212 C214 1.378 . S
C213 H208 0.931 . S
C213 C214 1.348 . S
C213 C215 1.413 . S
C214 H209 0.930 . S
C214 C212 1.378 . S
C214 C213 1.348 . S
C215 C211 1.415 . S
C215 C213 1.413 . S
C215 C245 1.437 . S
H216 C245 0.929 . S
N217 Gd190 2.570 . S
N217 C218 1.359 . S
N217 C221 1.343 . S
C218 C211 1.422 . S
C218 N217 1.359 . S
C218 C220 1.421 . S
C219 C220 1.422 . S
C219 C222 1.321 . S
C219 H246 0.931 . S
C220 C218 1.421 . S
C220 C219 1.422 . S
C220 C244 1.417 . S
C221 H198 0.931 . S
C221 N217 1.343 . S
C221 C222 1.390 . S
C222 H200 0.930 . S
C222 C219 1.321 . S
C222 C221 1.390 . S
O223 Gd191 2.386 . S
O223 C235 1.265 . S
O224 Gd190 2.353 . S
O224 C235 1.242 . S
O225 Gd190 2.468 . S
O225 C243 1.263 . S
O226 Gd190 2.427 . S
O226 C243 1.252 . S
O227 Gd191 2.307 . S
O227 C236 1.261 . S
O228 Gd190 2.388 . S
O228 C236 1.252 . S
O229 Gd190 2.386 . S
O229 C247 1.265 . S
O230 Gd191 2.353 . S
O230 C247 1.242 . S
O231 Gd191 2.468 . S
O231 C255 1.263 . S
O232 Gd191 2.427 . S
O232 C255 1.252 . S
O233 Gd190 2.307 . S
O233 C248 1.261 . S
O234 Gd191 2.388 . S
O234 C248 1.252 . S
C235 O223 1.265 . S
C235 O224 1.242 . S
C236 O227 1.261 . S
C236 O228 1.252 . S
C237 C240 1.394 . S
C237 C242 1.370 . S
C237 C243 1.500 . S
C238 C241 1.383 . S
C238 C242 1.395 . S
C239 C240 1.396 . S
C239 C241 1.365 . S
C239 H256 0.929 . S
C240 C237 1.394 . S
C240 C239 1.396 . S
C240 H257 0.930 . S
C241 C238 1.383 . S
C241 C239 1.365 . S
C241 H258 0.931 . S
C242 C237 1.370 . S
C242 C238 1.395 . S
C242 H259 0.930 . S
C243 Gd190 2.805 . S
C243 O225 1.263 . S
C243 O226 1.252 . S
C243 C237 1.500 . S
C244 H206 0.930 . S
C244 C220 1.417 . S
C244 C245 1.329 . S
C245 C215 1.437 . S
C245 H216 0.929 . S
C245 C244 1.329 . S
H246 C219 0.931 . S
C247 O229 1.265 . S
C247 O230 1.242 . S
C248 O233 1.261 . S
C248 O234 1.252 . S
C249 C252 1.394 . S
C249 C254 1.370 . S
C249 C255 1.500 . S
C250 C253 1.383 . S
C250 C254 1.395 . S
C251 C252 1.396 . S
C251 C253 1.365 . S
C251 H260 0.929 . S
C252 C249 1.394 . S
C252 C251 1.396 . S
C252 H261 0.930 . S
C253 C250 1.383 . S
C253 C251 1.365 . S
C253 H262 0.931 . S
C254 C249 1.370 . S
C254 C250 1.395 . S
C254 H263 0.930 . S
C255 Gd191 2.805 . S
C255 O231 1.263 . S
C255 O232 1.252 . S
C255 C249 1.500 . S
H256 C239 0.929 . S
H257 C240 0.930 . S
H258 C241 0.931 . S
H259 C242 0.930 . S
H260 C251 0.929 . S
H261 C252 0.930 . S
H262 C253 0.931 . S
H263 C254 0.930 . S
C264 C266 1.422 . S
C264 C268 1.415 . S
C264 N270 1.369 . S
C265 C266 1.421 . S
C265 C267 1.417 . S
C265 C277 1.422 . S
C266 C264 1.422 . S
C266 C265 1.421 . S
C266 N276 1.359 . S
C267 C265 1.417 . S
C267 C269 1.329 . S
C267 H286 0.930 . S
C268 C264 1.415 . S
C268 C269 1.437 . S
C268 C272 1.413 . S
C269 C267 1.329 . S
C269 C268 1.437 . S
C269 H291 0.929 . S
N270 C264 1.369 . S
N270 C271 1.338 . S
N270 Gd275 2.622 . S
C271 N270 1.338 . S
C271 C273 1.378 . S
C271 H283 0.929 . S
C272 C268 1.413 . S
C272 C273 1.348 . S
C272 H288 0.931 . S
C273 C271 1.378 . S
C273 C272 1.348 . S
C273 H289 0.930 . S
Gd274 N294 2.622 . S
Gd274 N301 2.570 . S
Gd274 O308 2.353 . S
Gd274 O309 2.468 . S
Gd274 O310 2.427 . S
Gd274 O312 2.388 . S
Gd274 O313 2.386 . S
Gd274 O317 2.315 . S
Gd274 C327 2.805 . S
Gd275 N270 2.622 . S
Gd275 N276 2.570 . S
Gd275 O307 2.386 . S
Gd275 O311 2.307 1_655 S
Gd275 O314 2.353 1_655 S
Gd275 O315 2.468 . S
Gd275 O316 2.427 . S
Gd275 O318 2.388 . S
Gd275 C339 2.805 . S
N276 C266 1.359 . S
N276 Gd275 2.570 . S
N276 C278 1.343 . S
C277 C265 1.422 . S
C277 C279 1.321 . S
C277 H285 0.931 . S
C278 N276 1.343 . S
C278 C279 1.390 . S
C278 H280 0.931 . S
C279 C277 1.321 . S
C279 C278 1.390 . S
C279 H281 0.930 . S
H280 C278 0.931 . S
H281 C279 0.930 . S
H282 C305 0.931 . S
H283 C271 0.929 . S
H284 C306 0.930 . S
H285 C277 0.931 . S
H286 C267 0.930 . S
H287 C296 0.929 . S
H288 C272 0.931 . S
H289 C273 0.930 . S
H290 C328 0.930 1_545 S
H291 C269 0.929 . S
H292 C297 0.931 . S
H293 C298 0.930 . S
N294 Gd274 2.622 . S
N294 C295 1.369 . S
N294 C296 1.338 . S
C295 N294 1.369 . S
C295 C299 1.415 . S
C295 C302 1.422 . S
C296 H287 0.929 . S
C296 N294 1.338 . S
C296 C298 1.378 . S
C297 H292 0.931 . S
C297 C298 1.348 . S
C297 C299 1.413 . S
C298 H293 0.930 . S
C298 C296 1.378 . S
C298 C297 1.348 . S
C299 C295 1.415 . S
C299 C297 1.413 . S
C299 C329 1.437 . S
H300 C329 0.929 . S
N301 Gd274 2.570 . S
N301 C302 1.359 . S
N301 C305 1.343 . S
C302 C295 1.422 . S
C302 N301 1.359 . S
C302 C304 1.421 . S
C303 C304 1.422 1_545 S
C303 C306 1.321 . S
C303 H330 0.931 . S
C304 C302 1.421 . S
C304 C303 1.422 1_565 S
C304 C328 1.417 . S
C305 H282 0.931 . S
C305 N301 1.343 . S
C305 C306 1.390 1_565 S
C306 H284 0.930 . S
C306 C303 1.321 . S
C306 C305 1.390 1_545 S
O307 Gd275 2.386 . S
O307 C319 1.265 . S
O308 Gd274 2.353 . S
O308 C319 1.242 1_455 S
O309 Gd274 2.468 . S
O309 C327 1.263 . S
O310 Gd274 2.427 . S
O310 C327 1.252 . S
O311 Gd275 2.307 1_455 S
O311 C320 1.261 . S
O312 Gd274 2.388 . S
O312 C320 1.252 . S
O313 Gd274 2.386 . S
O313 C331 1.265 . S
O314 Gd275 2.353 1_455 S
O314 C331 1.242 . S
O315 Gd275 2.468 . S
O315 C339 1.263 . S
O316 Gd275 2.427 . S
O316 C339 1.252 . S
O317 Gd274 2.315 . S
O317 C332 1.251 1_455 S
O318 Gd275 2.388 . S
O318 C332 1.252 . S
C319 O307 1.265 . S
C319 O308 1.242 1_655 S
C320 O311 1.261 . S
C320 O312 1.252 . S
C321 C324 1.394 . S
C321 C326 1.370 . S
C321 C327 1.500 . S
C322 C325 1.383 . S
C322 C326 1.395 . S
C323 C324 1.396 . S
C323 C325 1.365 . S
C323 H340 0.929 . S
C324 C321 1.394 . S
C324 C323 1.396 . S
C324 H341 0.930 . S
C325 C322 1.383 . S
C325 C323 1.365 . S
C325 H342 0.931 . S
C326 C321 1.370 . S
C326 C322 1.395 . S
C326 H343 0.930 . S
C327 Gd274 2.805 . S
C327 O309 1.263 . S
C327 O310 1.252 . S
C327 C321 1.500 . S
C328 H290 0.930 1_565 S
C328 C304 1.417 . S
C328 C329 1.329 . S
C329 C299 1.437 . S
C329 H300 0.929 . S
C329 C328 1.329 . S
H330 C303 0.931 . S
C331 O313 1.265 . S
C331 O314 1.242 . S
C332 O317 1.251 1_655 S
C332 O318 1.252 . S
C333 C336 1.394 . S
C333 C338 1.370 . S
C333 C339 1.500 . S
C334 C337 1.383 . S
C334 C338 1.395 . S
C335 C336 1.396 . S
C335 C337 1.365 . S
C335 H344 0.929 . S
C336 C333 1.394 . S
C336 C335 1.396 . S
C336 H345 0.930 . S
C337 C334 1.383 . S
C337 C335 1.365 . S
C337 H346 0.931 . S
C338 C333 1.370 . S
C338 C334 1.395 . S
C338 H347 0.930 . S
C339 Gd275 2.805 . S
C339 O315 1.263 . S
C339 O316 1.252 . S
C339 C333 1.500 . S
H340 C323 0.929 . S
H341 C324 0.930 . S
H342 C325 0.931 . S
H343 C326 0.930 . S
H344 C335 0.929 . S
H345 C336 0.930 . S
H346 C337 0.931 . S
H347 C338 0.930 . S
C348 C350 1.422 . S
C348 C352 1.415 . S
C348 N354 1.369 . S
C349 C350 1.421 . S
C349 C351 1.417 . S
C349 C361 1.422 . S
C350 C348 1.422 . S
C350 C349 1.421 . S
C350 N360 1.359 . S
C351 C349 1.417 . S
C351 C353 1.329 . S
C351 H370 0.930 . S
C352 C348 1.415 . S
C352 C353 1.437 . S
C352 C356 1.413 . S
C353 C351 1.329 . S
C353 C352 1.437 . S
C353 H375 0.929 . S
N354 C348 1.369 . S
N354 C355 1.338 . S
N354 Gd359 2.622 . S
C355 N354 1.338 . S
C355 C357 1.378 . S
C355 H367 0.929 . S
C356 C352 1.413 . S
C356 C357 1.348 . S
C356 H372 0.931 . S
C357 C355 1.378 . S
C357 C356 1.348 . S
C357 H373 0.930 . S
Gd358 N378 2.622 . S
Gd358 N385 2.570 . S
Gd358 O392 2.353 . S
Gd358 O393 2.468 . S
Gd358 O394 2.427 . S
Gd358 O396 2.388 . S
Gd358 O397 2.386 . S
Gd358 O401 2.307 . S
Gd358 C411 2.805 . S
Gd359 N354 2.622 . S
Gd359 N360 2.570 . S
Gd359 O391 2.386 . S
Gd359 O395 2.307 . S
Gd359 O398 2.353 . S
Gd359 O399 2.468 . S
Gd359 O400 2.427 . S
Gd359 O402 2.388 . S
Gd359 C423 2.805 . S
N360 C350 1.359 . S
N360 Gd359 2.570 . S
N360 C362 1.343 . S
C361 C349 1.422 . S
C361 C363 1.321 . S
C361 H369 0.931 . S
C362 N360 1.343 . S
C362 C363 1.390 . S
C362 H364 0.931 . S
C363 C361 1.321 . S
C363 C362 1.390 . S
C363 H365 0.930 . S
H364 C362 0.931 . S
H365 C363 0.930 . S
H366 C389 0.931 . S
H367 C355 0.929 . S
H368 C390 0.930 . S
H369 C361 0.931 . S
H370 C351 0.930 . S
H371 C380 0.929 . S
H372 C356 0.931 . S
H373 C357 0.930 . S
H374 C412 0.930 . S
H375 C353 0.929 . S
H376 C381 0.931 . S
H377 C382 0.930 . S
N378 Gd358 2.622 . S
N378 C379 1.369 . S
N378 C380 1.338 . S
C379 N378 1.369 . S
C379 C383 1.415 . S
C379 C386 1.422 . S
C380 H371 0.929 . S
C380 N378 1.338 . S
C380 C382 1.378 . S
C381 H376 0.931 . S
C381 C382 1.348 . S
C381 C383 1.413 . S
C382 H377 0.930 . S
C382 C380 1.378 . S
C382 C381 1.348 . S
C383 C379 1.415 . S
C383 C381 1.413 . S
C383 C413 1.437 . S
H384 C413 0.929 . S
N385 Gd358 2.570 . S
N385 C386 1.359 . S
N385 C389 1.343 . S
C386 C379 1.422 . S
C386 N385 1.359 . S
C386 C388 1.421 . S
C387 C388 1.422 . S
C387 C390 1.321 . S
C387 H414 0.931 . S
C388 C386 1.421 . S
C388 C387 1.422 . S
C388 C412 1.417 . S
C389 H366 0.931 . S
C389 N385 1.343 . S
C389 C390 1.390 . S
C390 H368 0.930 . S
C390 C387 1.321 . S
C390 C389 1.390 . S
O391 Gd359 2.386 . S
O391 C403 1.265 . S
O392 Gd358 2.353 . S
O392 C403 1.242 . S
O393 Gd358 2.468 . S
O393 C411 1.263 . S
O394 Gd358 2.427 . S
O394 C411 1.252 . S
O395 Gd359 2.307 . S
O395 C404 1.261 . S
O396 Gd358 2.388 . S
O396 C404 1.252 . S
O397 Gd358 2.386 . S
O397 C415 1.265 . S
O398 Gd359 2.353 . S
O398 C415 1.242 . S
O399 Gd359 2.468 . S
O399 C423 1.263 . S
O400 Gd359 2.427 . S
O400 C423 1.252 . S
O401 Gd358 2.307 . S
O401 C416 1.261 . S
O402 Gd359 2.388 . S
O402 C416 1.252 . S
C403 O391 1.265 . S
C403 O392 1.242 . S
C404 O395 1.261 . S
C404 O396 1.252 . S
C405 C408 1.394 . S
C405 C410 1.370 . S
C405 C411 1.500 . S
C406 C409 1.383 . S
C406 C410 1.395 . S
C407 C408 1.396 . S
C407 C409 1.365 . S
C407 H424 0.929 . S
C408 C405 1.394 . S
C408 C407 1.396 . S
C408 H425 0.930 . S
C409 C406 1.383 . S
C409 C407 1.365 . S
C409 H426 0.931 . S
C410 C405 1.370 . S
C410 C406 1.395 . S
C410 H427 0.930 . S
C411 Gd358 2.805 . S
C411 O393 1.263 . S
C411 O394 1.252 . S
C411 C405 1.500 . S
C412 H374 0.930 . S
C412 C388 1.417 . S
C412 C413 1.329 . S
C413 C383 1.437 . S
C413 H384 0.929 . S
C413 C412 1.329 . S
H414 C387 0.931 . S
C415 O397 1.265 . S
C415 O398 1.242 . S
C416 O401 1.261 . S
C416 O402 1.252 . S
C417 C420 1.394 . S
C417 C422 1.370 . S
C417 C423 1.500 . S
C418 C421 1.383 . S
C418 C422 1.395 . S
C419 C420 1.396 . S
C419 C421 1.365 . S
C419 H428 0.929 . S
C420 C417 1.394 . S
C420 C419 1.396 . S
C420 H429 0.930 . S
C421 C418 1.383 . S
C421 C419 1.365 . S
C421 H430 0.931 . S
C422 C417 1.370 . S
C422 C418 1.395 . S
C422 H431 0.930 . S
C423 Gd359 2.805 . S
C423 O399 1.263 . S
C423 O400 1.252 . S
C423 C417 1.500 . S
H424 C407 0.929 . S
H425 C408 0.930 . S
H426 C409 0.931 . S
H427 C410 0.930 . S
H428 C419 0.929 . S
H429 C420 0.930 . S
H430 C421 0.931 . S
H431 C422 0.930 . S
H432 C438 0.930 . S
H433 C441 0.930 . S
H434 C442 0.930 . S
H435 C443 0.930 . S
H436 C446 0.939 1_545 S
H437 C447 0.930 . S
C438 H432 0.930 . S
C438 C439 1.355 . S
C438 C440 1.415 . S
C439 C438 1.355 . S
C439 C441 1.419 . S
C440 C438 1.415 . S
C440 C445 1.425 . S
C440 C447 1.409 . S
C441 H433 0.930 . S
C441 C439 1.419 . S
C441 C442 1.362 . S
C442 H434 0.930 . S
C442 C441 1.362 . S
C442 C445 1.409 . S
C443 H435 0.930 . S
C443 C444 1.355 . S
C443 C445 1.415 1_545 S
C444 C443 1.355 . S
C444 C446 1.419 1_545 S
C445 C440 1.425 . S
C445 C442 1.409 . S
C445 C443 1.415 1_565 S
C446 H436 0.939 1_565 S
C446 C444 1.419 1_565 S
C446 C447 1.362 . S
C447 H437 0.930 . S
C447 C440 1.409 . S
C447 C446 1.362 . S
H448 C454 0.930 . S
H449 C457 0.930 . S
H450 C458 0.930 . S
H451 C459 0.930 . S
H452 C462 0.930 . S
H453 C463 0.930 . S
C454 H448 0.930 . S
C454 C455 1.355 . S
C454 C456 1.415 . S
C455 C454 1.355 . S
C455 C457 1.419 . S
C456 C454 1.415 . S
C456 C461 1.425 . S
C456 C463 1.409 . S
C457 H449 0.930 . S
C457 C455 1.419 . S
C457 C458 1.362 . S
C458 H450 0.930 . S
C458 C457 1.362 . S
C458 C461 1.409 . S
C459 H451 0.930 . S
C459 C460 1.355 . S
C459 C461 1.415 . S
C460 C459 1.355 . S
C460 C462 1.419 . S
C461 C456 1.425 . S
C461 C458 1.409 . S
C461 C459 1.415 . S
C462 H452 0.930 . S
C462 C460 1.419 . S
C462 C463 1.362 . S
C463 H453 0.930 . S
C463 C456 1.409 . S
C463 C462 1.362 . S
H464 C470 0.930 . S
H465 C473 0.930 . S
H466 C474 0.930 . S
H467 C475 0.930 . S
H468 C478 0.930 . S
H469 C479 0.930 . S
C470 H464 0.930 . S
C470 C471 1.355 . S
C470 C472 1.415 . S
C471 C470 1.355 . S
C471 C473 1.419 . S
C472 C470 1.415 . S
C472 C477 1.425 . S
C472 C479 1.409 . S
C473 H465 0.930 . S
C473 C471 1.419 . S
C473 C474 1.362 . S
C474 H466 0.930 . S
C474 C473 1.362 . S
C474 C477 1.409 . S
C475 H467 0.930 . S
C475 C476 1.355 . S
C475 C477 1.415 . S
C476 C475 1.355 . S
C476 C478 1.419 . S
C477 C472 1.425 . S
C477 C474 1.409 . S
C477 C475 1.415 . S
C478 H468 0.930 . S
C478 C476 1.419 . S
C478 C479 1.362 . S
C479 H469 0.930 . S
C479 C472 1.409 . S
C479 C478 1.362 . S
H480 C486 0.930 . S
H481 C489 0.930 . S
H482 C490 0.930 . S
H483 C491 0.930 . S
H484 C494 0.930 . S
H485 C495 0.930 . S
C486 H480 0.930 . S
C486 C487 1.355 . S
C486 C488 1.415 . S
C487 C486 1.355 . S
C487 C489 1.419 . S
C488 C486 1.415 . S
C488 C493 1.425 . S
C488 C495 1.409 1_565 S
C489 H481 0.930 . S
C489 C487 1.419 . S
C489 C490 1.362 . S
C490 H482 0.930 . S
C490 C489 1.362 . S
C490 C493 1.409 . S
C491 H483 0.930 . S
C491 C492 1.355 1_565 S
C491 C493 1.415 . S
C492 C491 1.355 1_545 S
C492 C494 1.419 . S
C493 C488 1.425 . S
C493 C490 1.409 . S
C493 C491 1.415 . S
C494 H484 0.930 . S
C494 C492 1.419 . S
C494 C495 1.362 . S
C495 H485 0.930 . S
C495 C488 1.409 1_545 S
C495 C494 1.362 . S
H496 C502 0.930 . S
H497 C505 0.930 . S
H498 C506 0.930 . S
H499 C507 0.930 . S
H500 C510 0.935 1_455 S
H501 C511 0.930 . S
C502 H496 0.930 . S
C502 C503 1.355 . S
C502 C504 1.415 . S
C503 C502 1.355 . S
C503 C505 1.419 . S
C504 C502 1.415 . S
C504 C509 1.425 . S
C504 C511 1.409 . S
C505 H497 0.930 . S
C505 C503 1.419 . S
C505 C506 1.362 . S
C506 H498 0.930 . S
C506 C505 1.362 . S
C506 C509 1.409 . S
C507 H499 0.930 . S
C507 C508 1.355 . S
C507 C509 1.415 1_565 S
C508 C507 1.355 . S
C508 C510 1.424 . S
C509 C504 1.425 . S
C509 C506 1.409 . S
C509 C507 1.415 1_545 S
C510 H500 0.935 1_655 S
C510 C508 1.424 . S
C510 C511 1.353 1_565 S
C511 H501 0.930 . S
C511 C504 1.409 . S
C511 C510 1.353 1_545 S
H512 C518 0.930 . S
H513 C521 0.930 . S
H514 C522 0.930 . S
H515 C523 0.930 . S
H516 C526 0.930 . S
H517 C527 0.930 . S
C518 H512 0.930 . S
C518 C519 1.355 . S
C518 C520 1.415 . S
C519 C518 1.355 . S
C519 C521 1.419 . S
C520 C518 1.415 . S
C520 C525 1.425 . S
C520 C527 1.409 . S
C521 H513 0.930 . S
C521 C519 1.419 . S
C521 C522 1.362 . S
C522 H514 0.930 . S
C522 C521 1.362 . S
C522 C525 1.409 . S
C523 H515 0.930 . S
C523 C524 1.355 . S
C523 C525 1.415 . S
C524 C523 1.355 . S
C524 C526 1.419 . S
C525 C520 1.425 . S
C525 C522 1.409 . S
C525 C523 1.415 . S
C526 H516 0.930 . S
C526 C524 1.419 . S
C526 C527 1.362 . S
C527 H517 0.930 . S
C527 C520 1.409 . S
C527 C526 1.362 . S
H528 C534 0.930 . S
H529 C537 0.930 . S
H530 C538 0.930 . S
H531 C539 0.930 . S
H532 C542 0.930 . S
H533 C543 0.930 . S
C534 H528 0.930 . S
C534 C535 1.355 . S
C534 C536 1.415 . S
C535 C534 1.355 . S
C535 C537 1.419 . S
C536 C534 1.415 . S
C536 C541 1.425 . S
C536 C543 1.409 . S
C537 H529 0.930 . S
C537 C535 1.419 . S
C537 C538 1.362 . S
C538 H530 0.930 . S
C538 C537 1.362 . S
C538 C541 1.409 . S
C539 H531 0.930 . S
C539 C540 1.355 . S
C539 C541 1.415 . S
C540 C539 1.355 . S
C540 C542 1.419 . S
C541 C536 1.425 . S
C541 C538 1.409 . S
C541 C539 1.415 . S
C542 H532 0.930 . S
C542 C540 1.419 . S
C542 C543 1.362 . S
C543 H533 0.930 . S
C543 C536 1.409 . S
C543 C542 1.362 . S
H544 C550 0.930 . S
H545 C553 0.930 . S
H546 C554 0.930 1_565 S
H547 C555 0.930 . S
H548 C558 0.930 . S
H549 C559 0.930 . S
C550 H544 0.930 . S
C550 C551 1.355 . S
C550 C552 1.415 . S
C551 C550 1.355 . S
C551 C553 1.419 . S
C552 C550 1.415 . S
C552 C557 1.425 . S
C552 C559 1.409 . S
C553 H545 0.930 . S
C553 C551 1.419 . S
C553 C554 1.362 . S
C554 H546 0.930 1_545 S
C554 C553 1.362 . S
C554 C557 1.409 . S
C555 H547 0.930 . S
C555 C556 1.355 . S
C555 C557 1.415 1_565 S
C556 C555 1.355 . S
C556 C558 1.419 1_565 S
C557 C552 1.425 . S
C557 C554 1.409 . S
C557 C555 1.415 1_545 S
C558 H548 0.930 . S
C558 C556 1.419 1_545 S
C558 C559 1.362 . S
C559 H549 0.930 . S
C559 C552 1.409 . S
C559 C558 1.362 . S
H560 C566 0.930 . S
H561 C569 0.930 . S
H562 C570 0.930 . S
H563 C571 0.930 . S
H564 C574 0.930 . S
H565 C575 0.930 . S
C566 H560 0.930 . S
C566 C567 1.355 . S
C566 C568 1.415 1_556 S
C567 C566 1.355 . S
C567 C569 1.419 . S
C568 C566 1.415 1_554 S
C568 C573 1.425 . S
C568 C575 1.409 . S
C569 H561 0.930 . S
C569 C567 1.419 . S
C569 C570 1.362 . S
C570 H562 0.930 . S
C570 C569 1.362 . S
C570 C573 1.409 1_556 S
C571 H563 0.930 . S
C571 C572 1.355 . S
C571 C573 1.415 . S
C572 C571 1.355 . S
C572 C574 1.419 . S
C573 C568 1.425 . S
C573 C570 1.409 1_554 S
C573 C571 1.415 . S
C574 H564 0.930 . S
C574 C572 1.419 . S
C574 C575 1.362 . S
C575 H565 0.930 . S
C575 C568 1.409 . S
C575 C574 1.362 . S
H576 C582 0.930 . S
H577 C585 0.930 . S
H578 C586 0.930 . S
H579 C587 0.930 . S
H580 C590 0.930 . S
H581 C591 0.930 . S
C582 H576 0.930 . S
C582 C583 1.355 . S
C582 C584 1.415 . S
C583 C582 1.355 . S
C583 C585 1.419 . S
C584 C582 1.415 . S
C584 C589 1.425 . S
C584 C591 1.409 . S
C585 H577 0.930 . S
C585 C583 1.419 . S
C585 C586 1.362 . S
C586 H578 0.930 . S
C586 C585 1.362 . S
C586 C589 1.409 . S
C587 H579 0.930 . S
C587 C588 1.355 . S
C587 C589 1.415 . S
C588 C587 1.355 . S
C588 C590 1.419 . S
C589 C584 1.425 . S
C589 C586 1.409 . S
C589 C587 1.415 . S
C590 H580 0.930 . S
C590 C588 1.419 . S
C590 C591 1.362 . S
C591 H581 0.930 . S
C591 C584 1.409 . S
C591 C590 1.362 . S
H592 C598 0.930 . S
H593 C601 0.930 . S
H594 C602 0.930 . S
H595 C603 0.930 . S
H596 C606 0.930 . S
H597 C607 0.930 . S
C598 H592 0.930 . S
C598 C599 1.355 . S
C598 C600 1.415 1_554 S
C599 C598 1.355 . S
C599 C601 1.419 . S
C600 C598 1.415 1_556 S
C600 C605 1.425 . S
C600 C607 1.409 . S
C601 H593 0.930 . S
C601 C599 1.419 . S
C601 C602 1.362 . S
C602 H594 0.930 . S
C602 C601 1.362 . S
C602 C605 1.409 1_554 S
C603 H595 0.930 . S
C603 C604 1.355 . S
C603 C605 1.415 . S
C604 C603 1.355 . S
C604 C606 1.419 . S
C605 C600 1.425 . S
C605 C602 1.409 1_556 S
C605 C603 1.415 . S
C606 H596 0.930 . S
C606 C604 1.419 . S
C606 C607 1.362 . S
C607 H597 0.930 . S
C607 C600 1.409 . S
C607 C606 1.362 . S
H608 C614 0.930 . S
H609 C617 0.930 . S
H610 C618 0.930 . S
H611 C619 0.930 . S
H612 C622 0.930 . S
H613 C623 0.930 . S
C614 H608 0.930 . S
C614 C615 1.355 . S
C614 C616 1.415 . S
C615 C614 1.355 . S
C615 C617 1.419 . S
C616 C614 1.415 . S
C616 C621 1.425 . S
C616 C623 1.409 . S
C617 H609 0.930 . S
C617 C615 1.419 . S
C617 C618 1.362 . S
C618 H610 0.930 . S
C618 C617 1.362 . S
C618 C621 1.409 . S
C619 H611 0.930 . S
C619 C620 1.355 . S
C619 C621 1.415 . S
C620 C619 1.355 . S
C620 C622 1.419 . S
C621 C616 1.425 . S
C621 C618 1.409 . S
C621 C619 1.415 . S
C622 H612 0.930 . S
C622 C620 1.419 . S
C622 C623 1.362 . S
C623 H613 0.930 . S
C623 C616 1.409 . S
C623 C622 1.362 . S
H624 C630 0.930 . S
H625 C633 0.930 . S
H626 C634 0.930 . S
H627 C635 0.930 . S
H628 C638 0.930 . S
H629 C639 0.930 . S
C630 H624 0.930 . S
C630 C631 1.355 . S
C630 C632 1.415 1_554 S
C631 C630 1.355 . S
C631 C633 1.419 . S
C632 C630 1.415 1_556 S
C632 C637 1.425 . S
C632 C639 1.409 . S
C633 H625 0.930 . S
C633 C631 1.419 . S
C633 C634 1.362 1_554 S
C634 H626 0.930 . S
C634 C633 1.362 1_556 S
C634 C637 1.409 . S
C635 H627 0.930 . S
C635 C636 1.355 . S
C635 C637 1.415 . S
C636 C635 1.355 . S
C636 C638 1.419 . S
C637 C632 1.425 . S
C637 C634 1.409 . S
C637 C635 1.415 . S
C638 H628 0.930 . S
C638 C636 1.419 . S
C638 C639 1.362 . S
C639 H629 0.930 . S
C639 C632 1.409 . S
C639 C638 1.362 . S
H640 C646 0.930 . S
H641 C649 0.930 . S
H642 C650 0.930 . S
H643 C651 0.930 . S
H644 C654 0.930 . S
H645 C655 0.930 . S
C646 H640 0.930 . S
C646 C647 1.355 . S
C646 C648 1.415 . S
C647 C646 1.355 . S
C647 C649 1.419 . S
C648 C646 1.415 . S
C648 C653 1.425 . S
C648 C655 1.409 . S
C649 H641 0.930 . S
C649 C647 1.419 . S
C649 C650 1.362 . S
C650 H642 0.930 . S
C650 C649 1.362 . S
C650 C653 1.409 . S
C651 H643 0.930 . S
C651 C652 1.355 . S
C651 C653 1.415 . S
C652 C651 1.355 . S
C652 C654 1.419 . S
C653 C648 1.425 . S
C653 C650 1.409 . S
C653 C651 1.415 . S
C654 H644 0.930 . S
C654 C652 1.419 . S
C654 C655 1.362 . S
C655 H645 0.930 . S
C655 C648 1.409 . S
C655 C654 1.362 . S
H656 C662 0.930 . S
H657 C665 0.930 . S
H658 C666 0.930 . S
H659 C667 0.930 . S
H660 C670 0.930 . S
H661 C671 0.930 1_556 S
C662 H656 0.930 . S
C662 C663 1.355 . S
C662 C664 1.412 . S
C663 C662 1.355 . S
C663 C665 1.419 . S
C664 C662 1.412 . S
C664 C669 1.427 1_556 S
C664 C671 1.410 1_556 S
C665 H657 0.930 . S
C665 C663 1.419 . S
C665 C666 1.362 1_556 S
C666 H658 0.930 . S
C666 C665 1.362 1_554 S
C666 C669 1.409 . S
C667 H659 0.930 . S
C667 C668 1.355 . S
C667 C669 1.415 . S
C668 C667 1.355 . S
C668 C670 1.419 . S
C669 C664 1.427 1_554 S
C669 C666 1.409 . S
C669 C667 1.415 . S
C670 H660 0.930 . S
C670 C668 1.419 . S
C670 C671 1.362 . S
C671 H661 0.930 1_554 S
C671 C664 1.410 1_554 S
C671 C670 1.362 . S
H672 C678 0.930 . S
H673 C681 0.930 . S
H674 C682 0.930 . S
H675 C683 0.930 . S
H676 C686 0.930 . S
H677 C687 0.930 . S
C678 H672 0.930 . S
C678 C679 1.355 . S
C678 C680 1.415 . S
C679 C678 1.355 . S
C679 C681 1.419 . S
C680 C678 1.415 . S
C680 C685 1.425 . S
C680 C687 1.409 . S
C681 H673 0.930 . S
C681 C679 1.419 . S
C681 C682 1.362 . S
C682 H674 0.930 . S
C682 C681 1.362 . S
C682 C685 1.409 . S
C683 H675 0.930 . S
C683 C684 1.355 . S
C683 C685 1.415 . S
C684 C683 1.355 . S
C684 C686 1.419 . S
C685 C680 1.425 . S
C685 C682 1.409 . S
C685 C683 1.415 . S
C686 H676 0.930 . S
C686 C684 1.419 . S
C686 C687 1.362 . S
C687 H677 0.930 . S
C687 C680 1.409 . S
C687 C686 1.362 . S
H688 C694 0.930 . S
H689 C697 0.930 . S
H690 C698 0.930 . S
H691 C699 0.930 . S
H692 C702 0.930 . S
H693 C703 0.930 . S
C694 H688 0.930 . S
C694 C695 1.355 . S
C694 C696 1.415 . S
C695 C694 1.355 . S
C695 C697 1.419 . S
C696 C694 1.415 . S
C696 C701 1.425 . S
C696 C703 1.409 . S
C697 H689 0.930 . S
C697 C695 1.419 . S
C697 C698 1.362 . S
C698 H690 0.930 . S
C698 C697 1.362 . S
C698 C701 1.409 . S
C699 H691 0.930 . S
C699 C700 1.355 . S
C699 C701 1.415 . S
C700 C699 1.355 . S
C700 C702 1.419 . S
C701 C696 1.425 . S
C701 C698 1.409 . S
C701 C699 1.415 . S
C702 H692 0.930 . S
C702 C700 1.419 . S
C702 C703 1.362 . S
C703 H693 0.930 . S
C703 C696 1.409 . S
C703 C702 1.362 . S
H704 C710 0.930 . S
H705 C713 0.930 . S
H706 C714 0.930 . S
H707 C715 0.930 . S
H708 C718 0.930 . S
H709 C719 0.930 . S
C710 H704 0.930 . S
C710 C711 1.355 . S
C710 C712 1.415 . S
C711 C710 1.355 . S
C711 C713 1.419 . S
C712 C710 1.415 . S
C712 C717 1.425 . S
C712 C719 1.409 . S
C713 H705 0.930 . S
C713 C711 1.419 . S
C713 C714 1.362 . S
C714 H706 0.930 . S
C714 C713 1.362 . S
C714 C717 1.409 . S
C715 H707 0.930 . S
C715 C716 1.355 . S
C715 C717 1.415 . S
C716 C715 1.355 . S
C716 C718 1.419 . S
C717 C712 1.425 . S
C717 C714 1.409 . S
C717 C715 1.415 . S
C718 H708 0.930 . S
C718 C716 1.419 . S
C718 C719 1.362 . S
C719 H709 0.930 . S
C719 C712 1.409 . S
C719 C718 1.362 . S
H720 C726 0.930 . S
H721 C729 0.930 . S
H722 C730 0.930 . S
H723 C731 0.930 . S
H724 C734 0.930 . S
H725 C735 0.930 . S
C726 H720 0.930 . S
C726 C727 1.355 . S
C726 C728 1.415 . S
C727 C726 1.355 . S
C727 C729 1.419 . S
C728 C726 1.415 . S
C728 C733 1.425 . S
C728 C735 1.409 . S
C729 H721 0.930 . S
C729 C727 1.419 . S
C729 C730 1.362 . S
C730 H722 0.930 . S
C730 C729 1.362 . S
C730 C733 1.409 . S
C731 H723 0.930 . S
C731 C732 1.355 . S
C731 C733 1.415 . S
C732 C731 1.355 . S
C732 C734 1.419 . S
C733 C728 1.425 . S
C733 C730 1.409 . S
C733 C731 1.415 . S
C734 H724 0.930 . S
C734 C732 1.419 . S
C734 C735 1.362 . S
C735 H725 0.930 . S
C735 C728 1.409 . S
C735 C734 1.362 . S
H736 C742 0.930 . S
H737 C745 0.930 . S
H738 C746 0.930 . S
H739 C747 0.930 . S
H740 C750 0.930 . S
H741 C751 0.930 . S
C742 H736 0.930 . S
C742 C743 1.355 . S
C742 C744 1.415 . S
C743 C742 1.355 . S
C743 C745 1.419 . S
C744 C742 1.415 . S
C744 C749 1.425 . S
C744 C751 1.409 . S
C745 H737 0.930 . S
C745 C743 1.419 . S
C745 C746 1.362 . S
C746 H738 0.930 . S
C746 C745 1.362 . S
C746 C749 1.409 . S
C747 H739 0.930 . S
C747 C748 1.355 . S
C747 C749 1.415 . S
C748 C747 1.355 . S
C748 C750 1.419 . S
C749 C744 1.425 . S
C749 C746 1.409 . S
C749 C747 1.415 . S
C750 H740 0.930 . S
C750 C748 1.419 . S
C750 C751 1.362 . S
C751 H741 0.930 . S
C751 C744 1.409 . S
C751 C750 1.362 . S
H752 C758 0.930 . S
H753 C761 0.930 . S
H754 C762 0.930 . S
H755 C763 0.930 . S
H756 C766 0.930 . S
H757 C767 0.930 . S
C758 H752 0.930 . S
C758 C759 1.355 . S
C758 C760 1.415 . S
C759 C758 1.355 . S
C759 C761 1.419 . S
C760 C758 1.415 . S
C760 C765 1.425 . S
C760 C767 1.409 . S
C761 H753 0.930 . S
C761 C759 1.419 . S
C761 C762 1.362 . S
C762 H754 0.930 . S
C762 C761 1.362 . S
C762 C765 1.409 . S
C763 H755 0.930 . S
C763 C764 1.355 . S
C763 C765 1.415 . S
C764 C763 1.355 . S
C764 C766 1.419 . S
C765 C760 1.425 . S
C765 C762 1.409 . S
C765 C763 1.415 . S
C766 H756 0.930 . S
C766 C764 1.419 . S
C766 C767 1.362 . S
C767 H757 0.930 . S
C767 C760 1.409 . S
C767 C766 1.362 . S
H768 C774 0.930 . S
H769 C777 0.930 . S
H770 C778 0.930 . S
H771 C779 0.930 . S
H772 C782 0.930 . S
H773 C783 0.930 . S
C774 H768 0.930 . S
C774 C775 1.355 . S
C774 C776 1.415 . S
C775 C774 1.355 . S
C775 C777 1.419 . S
C776 C774 1.415 . S
C776 C781 1.425 . S
C776 C783 1.409 . S
C777 H769 0.930 . S
C777 C775 1.419 . S
C777 C778 1.362 . S
C778 H770 0.930 . S
C778 C777 1.362 . S
C778 C781 1.409 . S
C779 H771 0.930 . S
C779 C780 1.355 . S
C779 C781 1.415 . S
C780 C779 1.355 . S
C780 C782 1.419 . S
C781 C776 1.425 . S
C781 C778 1.409 . S
C781 C779 1.415 . S
C782 H772 0.930 . S
C782 C780 1.419 . S
C782 C783 1.362 . S
C783 H773 0.930 . S
C783 C776 1.409 . S
C783 C782 1.362 . S
H784 C790 0.930 . S
H785 C793 0.930 . S
H786 C794 0.930 . S
H787 C795 0.930 . S
H788 C798 0.930 . S
H789 C799 0.930 . S
C790 H784 0.930 . S
C790 C791 1.355 . S
C790 C792 1.415 . S
C791 C790 1.355 . S
C791 C793 1.419 . S
C792 C790 1.415 . S
C792 C797 1.425 . S
C792 C799 1.409 . S
C793 H785 0.930 . S
C793 C791 1.419 . S
C793 C794 1.362 . S
C794 H786 0.930 . S
C794 C793 1.362 . S
C794 C797 1.409 . S
C795 H787 0.930 . S
C795 C796 1.355 . S
C795 C797 1.415 . S
C796 C795 1.355 . S
C796 C798 1.419 . S
C797 C792 1.425 . S
C797 C794 1.409 . S
C797 C795 1.415 . S
C798 H788 0.930 . S
C798 C796 1.419 . S
C798 C799 1.362 . S
C799 H789 0.930 . S
C799 C792 1.409 . S
C799 C798 1.362 . S
H800 C806 0.930 . S
H801 C809 0.930 . S
H802 C810 0.930 . S
H803 C811 0.930 . S
H804 C814 0.930 . S
H805 C815 0.930 . S
C806 H800 0.930 . S
C806 C807 1.355 . S
C806 C808 1.415 . S
C807 C806 1.355 . S
C807 C809 1.419 . S
C808 C806 1.415 . S
C808 C813 1.425 . S
C808 C815 1.409 . S
C809 H801 0.930 . S
C809 C807 1.419 . S
C809 C810 1.362 . S
C810 H802 0.930 . S
C810 C809 1.362 . S
C810 C813 1.409 . S
C811 H803 0.930 . S
C811 C812 1.355 . S
C811 C813 1.415 . S
C812 C811 1.355 . S
C812 C814 1.419 . S
C813 C808 1.425 . S
C813 C810 1.409 . S
C813 C811 1.415 . S
C814 H804 0.930 . S
C814 C812 1.419 . S
C814 C815 1.362 . S
C815 H805 0.930 . S
C815 C808 1.409 . S
C815 C814 1.362 . S
C439 C81 1.682 . S
C444 C152 1.673 . S
C460 C236 1.657 . S
C455 C93 1.678 . S
C476 C235 1.654 . S
C471 C57 1.659 . S
C487 C69 1.659 . S
C492 C151 1.655 . S
C508 C332 1.665 . S
C503 C33 1.681 . S
C524 C416 1.674 . S
C519 C45 1.670 . S
C535 C9 1.665 . S
C540 C415 1.676 . S
C551 C21 1.661 . S
C556 C331 1.673 . S
C572 C154 1.419 . S
C567 C18 1.585 . S
C588 C238 1.396 . S
C583 C6 1.583 . S
C604 C250 1.348 . S
C599 C42 1.604 . S
C620 C166 1.359 . S
C615 C30 1.607 . S
C636 C334 1.417 . S
C631 C66 1.615 . S
C647 C54 1.605 . S
C652 C418 1.385 . S
C668 C406 1.445 . S
C663 C90 1.618 . S
C679 C78 1.613 . S
C684 C322 1.417 . S
C700 C163 1.519 . S
C695 C4 1.509 . S
C716 C247 1.530 . S
C711 C16 1.524 . S
C727 C28 1.484 . S
C732 C248 1.518 . S
C748 C164 1.506 . S
C743 C40 1.491 . S
C764 C319 1.528 . S
C759 C52 1.522 . S
C775 C64 1.525 . S
C780 C403 1.524 . S
C791 C76 1.487 . S
C796 C404 1.515 . S
C807 C88 1.521 . S
C812 C320 1.471 . S
