# Generated by pormake.
# Topology eea, (3,6)-cn, num edge types: 1
# Building blocks:
#     Node 0, Type 0, BuildingBlock: MIDCAF_clean_linker_0, # of connection points: 3
#     Node 1, Type 0, BuildingBlock: MIDCAF_clean_linker_0, # of connection points: 3
#     Node 2, Type 0, BuildingBlock: MIDCAF_clean_linker_0, # of connection points: 3
#     Node 3, Type 0, BuildingBlock: MIDCAF_clean_linker_0, # of connection points: 3
#     Node 4, Type 0, BuildingBlock: MIDCAF_clean_linker_0, # of connection points: 3
#     Node 5, Type 0, BuildingBlock: MIDCAF_clean_linker_0, # of connection points: 3
#     Node 6, Type 0, BuildingBlock: MIDCAF_clean_linker_0, # of connection points: 3
#     Node 7, Type 0, BuildingBlock: MIDCAF_clean_linker_0, # of connection points: 3
#     Node 8, Type 0, BuildingBlock: MIDCAF_clean_linker_0, # of connection points: 3
#     Node 9, Type 0, BuildingBlock: MIDCAF_clean_linker_0, # of connection points: 3
#     Node 10, Type 0, BuildingBlock: MIDCAF_clean_linker_0, # of connection points: 3
#     Node 11, Type 0, BuildingBlock: MIDCAF_clean_linker_0, # of connection points: 3
#     Node 12, Type 0, BuildingBlock: MIDCAF_clean_linker_0, # of connection points: 3
#     Node 13, Type 0, BuildingBlock: MIDCAF_clean_linker_0, # of connection points: 3
#     Node 14, Type 0, BuildingBlock: MIDCAF_clean_linker_0, # of connection points: 3
#     Node 15, Type 0, BuildingBlock: MIDCAF_clean_linker_0, # of connection points: 3
#     Node 16, Type 0, BuildingBlock: MIDCAF_clean_linker_0, # of connection points: 3
#     Node 17, Type 0, BuildingBlock: MIDCAF_clean_linker_0, # of connection points: 3
#     Node 18, Type 1, BuildingBlock: KUMBOL_clean_sbu_0, # of connection points: 6
#     Node 19, Type 1, BuildingBlock: KUMBOL_clean_sbu_0, # of connection points: 6
#     Node 20, Type 1, BuildingBlock: KUMBOL_clean_sbu_0, # of connection points: 6
#     Node 21, Type 1, BuildingBlock: KUMBOL_clean_sbu_0, # of connection points: 6
#     Node 22, Type 1, BuildingBlock: KUMBOL_clean_sbu_0, # of connection points: 6
#     Node 23, Type 1, BuildingBlock: KUMBOL_clean_sbu_0, # of connection points: 6
#     Node 24, Type 1, BuildingBlock: KUMBOL_clean_sbu_0, # of connection points: 6
#     Node 25, Type 1, BuildingBlock: KUMBOL_clean_sbu_0, # of connection points: 6
#     Node 26, Type 1, BuildingBlock: KUMBOL_clean_sbu_0, # of connection points: 6
#     Edge 27, Type (0, 1), BuildingBlock: EZIPEK_clean_linker_0, # of connection points: 2
#     Edge 28, Type (0, 1), BuildingBlock: EZIPEK_clean_linker_0, # of connection points: 2
#     Edge 29, Type (0, 1), BuildingBlock: EZIPEK_clean_linker_0, # of connection points: 2
#     Edge 30, Type (0, 1), BuildingBlock: EZIPEK_clean_linker_0, # of connection points: 2
#     Edge 31, Type (0, 1), BuildingBlock: EZIPEK_clean_linker_0, # of connection points: 2
#     Edge 32, Type (0, 1), BuildingBlock: EZIPEK_clean_linker_0, # of connection points: 2
#     Edge 33, Type (0, 1), BuildingBlock: EZIPEK_clean_linker_0, # of connection points: 2
#     Edge 34, Type (0, 1), BuildingBlock: EZIPEK_clean_linker_0, # of connection points: 2
#     Edge 35, Type (0, 1), BuildingBlock: EZIPEK_clean_linker_0, # of connection points: 2
#     Edge 36, Type (0, 1), BuildingBlock: EZIPEK_clean_linker_0, # of connection points: 2
#     Edge 37, Type (0, 1), BuildingBlock: EZIPEK_clean_linker_0, # of connection points: 2
#     Edge 38, Type (0, 1), BuildingBlock: EZIPEK_clean_linker_0, # of connection points: 2
#     Edge 39, Type (0, 1), BuildingBlock: EZIPEK_clean_linker_0, # of connection points: 2
#     Edge 40, Type (0, 1), BuildingBlock: EZIPEK_clean_linker_0, # of connection points: 2
#     Edge 41, Type (0, 1), BuildingBlock: EZIPEK_clean_linker_0, # of connection points: 2
#     Edge 42, Type (0, 1), BuildingBlock: EZIPEK_clean_linker_0, # of connection points: 2
#     Edge 43, Type (0, 1), BuildingBlock: EZIPEK_clean_linker_0, # of connection points: 2
#     Edge 44, Type (0, 1), BuildingBlock: EZIPEK_clean_linker_0, # of connection points: 2
#     Edge 45, Type (0, 1), BuildingBlock: EZIPEK_clean_linker_0, # of connection points: 2
#     Edge 46, Type (0, 1), BuildingBlock: EZIPEK_clean_linker_0, # of connection points: 2
#     Edge 47, Type (0, 1), BuildingBlock: EZIPEK_clean_linker_0, # of connection points: 2
#     Edge 48, Type (0, 1), BuildingBlock: EZIPEK_clean_linker_0, # of connection points: 2
#     Edge 49, Type (0, 1), BuildingBlock: EZIPEK_clean_linker_0, # of connection points: 2
#     Edge 50, Type (0, 1), BuildingBlock: EZIPEK_clean_linker_0, # of connection points: 2
#     Edge 51, Type (0, 1), BuildingBlock: EZIPEK_clean_linker_0, # of connection points: 2
#     Edge 52, Type (0, 1), BuildingBlock: EZIPEK_clean_linker_0, # of connection points: 2
#     Edge 53, Type (0, 1), BuildingBlock: EZIPEK_clean_linker_0, # of connection points: 2
#     Edge 54, Type (0, 1), BuildingBlock: EZIPEK_clean_linker_0, # of connection points: 2
#     Edge 55, Type (0, 1), BuildingBlock: EZIPEK_clean_linker_0, # of connection points: 2
#     Edge 56, Type (0, 1), BuildingBlock: EZIPEK_clean_linker_0, # of connection points: 2
#     Edge 57, Type (0, 1), BuildingBlock: EZIPEK_clean_linker_0, # of connection points: 2
#     Edge 58, Type (0, 1), BuildingBlock: EZIPEK_clean_linker_0, # of connection points: 2
#     Edge 59, Type (0, 1), BuildingBlock: EZIPEK_clean_linker_0, # of connection points: 2
#     Edge 60, Type (0, 1), BuildingBlock: EZIPEK_clean_linker_0, # of connection points: 2
#     Edge 61, Type (0, 1), BuildingBlock: EZIPEK_clean_linker_0, # of connection points: 2
#     Edge 62, Type (0, 1), BuildingBlock: EZIPEK_clean_linker_0, # of connection points: 2
#     Edge 63, Type (0, 1), BuildingBlock: EZIPEK_clean_linker_0, # of connection points: 2
#     Edge 64, Type (0, 1), BuildingBlock: EZIPEK_clean_linker_0, # of connection points: 2
#     Edge 65, Type (0, 1), BuildingBlock: EZIPEK_clean_linker_0, # of connection points: 2
#     Edge 66, Type (0, 1), BuildingBlock: EZIPEK_clean_linker_0, # of connection points: 2
#     Edge 67, Type (0, 1), BuildingBlock: EZIPEK_clean_linker_0, # of connection points: 2
#     Edge 68, Type (0, 1), BuildingBlock: EZIPEK_clean_linker_0, # of connection points: 2
#     Edge 69, Type (0, 1), BuildingBlock: EZIPEK_clean_linker_0, # of connection points: 2
#     Edge 70, Type (0, 1), BuildingBlock: EZIPEK_clean_linker_0, # of connection points: 2
#     Edge 71, Type (0, 1), BuildingBlock: EZIPEK_clean_linker_0, # of connection points: 2
#     Edge 72, Type (0, 1), BuildingBlock: EZIPEK_clean_linker_0, # of connection points: 2
#     Edge 73, Type (0, 1), BuildingBlock: EZIPEK_clean_linker_0, # of connection points: 2
#     Edge 74, Type (0, 1), BuildingBlock: EZIPEK_clean_linker_0, # of connection points: 2
#     Edge 75, Type (0, 1), BuildingBlock: EZIPEK_clean_linker_0, # of connection points: 2
#     Edge 76, Type (0, 1), BuildingBlock: EZIPEK_clean_linker_0, # of connection points: 2
#     Edge 77, Type (0, 1), BuildingBlock: EZIPEK_clean_linker_0, # of connection points: 2
#     Edge 78, Type (0, 1), BuildingBlock: EZIPEK_clean_linker_0, # of connection points: 2
#     Edge 79, Type (0, 1), BuildingBlock: EZIPEK_clean_linker_0, # of connection points: 2
#     Edge 80, Type (0, 1), BuildingBlock: EZIPEK_clean_linker_0, # of connection points: 2
# Relax obj value: 0.008
# Max RMSD: 0.089
# Mean RMSD: 0.072
data_MOF--net-eea--node1-KUMBOL_clean_sbu_0--node2-MIDCAF_clean_linker_0--edge1-EZIPEK_clean_linker_0
_symmetry_space_group_name_H-M    P1
_symmetry_Int_Tables_number       1
_symmetry_cell_setting            triclinic
loop_
_symmetry_equiv_pos_as_xyz
'x, y, z'
_cell_length_a     48.25536
_cell_length_b     49.400512
_cell_length_c     72.00391
_cell_angle_alpha  90.092492
_cell_angle_beta   90.154998
_cell_angle_gamma 119.97344
loop_
_atom_site_label
_atom_site_type_symbol
_atom_site_fract_x
_atom_site_fract_y
_atom_site_fract_z
_atom_type_partial_charge
C0 C 0.2502 0.02327 0.3985 0.0
C1 C 0.23519 0.01672 0.38104 0.0
C2 C 0.22903 0.03869 0.37263 0.0
C3 C 0.237 0.06658 0.38176 0.0
H4 H 0.2237 0.13887 0.37703 0.0
H5 H 0.207 0.17263 0.36205 0.0
H6 H 0.24724 0.23849 0.40726 0.0
H7 H 0.26396 0.20469 0.42265 0.0
H8 H 0.28201 0.18143 0.45939 0.0
H9 H 0.30045 0.19077 0.49155 0.0
H10 H 0.3045 0.10559 0.49152 0.0
H11 H 0.28605 0.09581 0.45915 0.0
H12 H 0.26901 0.05529 0.42136 0.0
H13 H 0.25499 0.00638 0.40518 0.0
H14 H 0.21729 0.03388 0.3592 0.0
H15 H 0.23129 0.08276 0.37499 0.0
N16 N 0.25019 0.12203 0.40137 0.0
N17 N 0.26473 0.15279 0.42826 0.0
N18 N 0.26765 0.10673 0.4276 0.0
C19 C 0.254 0.14772 0.41044 0.0
C20 C 0.27163 0.13241 0.43696 0.0
C21 C 0.25698 0.10147 0.40973 0.0
C22 C 0.24515 0.16902 0.40111 0.0
C23 C 0.22925 0.16059 0.38383 0.0
C24 C 0.21965 0.17981 0.3752 0.0
C25 C 0.22596 0.20791 0.38358 0.0
C26 C 0.24225 0.21679 0.40064 0.0
C27 C 0.2517 0.19744 0.40939 0.0
C28 C 0.28267 0.13791 0.45657 0.0
C29 C 0.28676 0.16457 0.46611 0.0
C30 C 0.29725 0.16997 0.48453 0.0
C31 C 0.30388 0.14892 0.49377 0.0
C32 C 0.29953 0.12209 0.4845 0.0
C33 C 0.28905 0.11664 0.46601 0.0
C34 C 0.25107 0.07292 0.39959 0.0
C35 C 0.25808 0.05115 0.40773 0.0
C36 C 0.99104 0.21646 0.39994 0.0
C37 C 0.99183 0.214 0.38056 0.0
C38 C 0.96411 0.19259 0.371 0.0
C39 C 0.93632 0.1728 0.3808 0.0
H40 H 0.86764 0.08065 0.37781 0.0
H41 H 0.8315 0.03109 0.36252 0.0
H42 H 0.76468 0.00648 0.40762 0.0
H43 H 0.80088 0.0559 0.42328 0.0
H44 H 0.84278 0.09049 0.46451 0.0
H45 H 0.83128 0.0992 0.49634 0.0
H46 H 0.88464 0.19878 0.48762 0.0
H47 H 0.89721 0.19032 0.45591 0.0
H48 H 0.96339 0.19874 0.42477 0.0
H49 H 0.01227 0.23309 0.40749 0.0
H50 H 0.96432 0.19065 0.35601 0.0
H51 H 0.91548 0.15596 0.37307 0.0
N52 N 0.88568 0.1242 0.40219 0.0
N53 N 0.85527 0.10719 0.42937 0.0
N54 N 0.90215 0.15635 0.42864 0.0
C55 C 0.8598 0.10201 0.41138 0.0
C56 C 0.87627 0.13432 0.43808 0.0
C57 C 0.90695 0.15135 0.41064 0.0
C58 C 0.83726 0.07229 0.40186 0.0
C59 C 0.84521 0.06485 0.38451 0.0
C60 C 0.82458 0.03655 0.37568 0.0
C61 C 0.79543 0.01524 0.3839 0.0
C62 C 0.78708 0.02272 0.40105 0.0
C63 C 0.80786 0.05093 0.40999 0.0
C64 C 0.87072 0.13972 0.45764 0.0
C65 C 0.85227 0.11426 0.46939 0.0
C66 C 0.84575 0.11917 0.4876 0.0
C67 C 0.85688 0.14961 0.49428 0.0
C68 C 0.8758 0.17511 0.48271 0.0
C69 C 0.88294 0.17023 0.46461 0.0
C70 C 0.93563 0.17438 0.40032 0.0
C71 C 0.9631 0.19691 0.40977 0.0
C72 C 0.79555 0.78562 0.40048 0.0
C73 C 0.79644 0.78912 0.38114 0.0
C74 C 0.81897 0.7854 0.37083 0.0
C75 C 0.8409 0.7791 0.37985 0.0
H76 H 0.9315 0.78922 0.37367 0.0
H77 H 0.98082 0.79879 0.35834 0.0
H78 H 0.00751 0.76607 0.40688 0.0
H79 H 0.9584 0.75638 0.42242 0.0
H80 H 0.90505 0.72314 0.45502 0.0
H81 H 0.89223 0.70212 0.48658 0.0
H82 H 0.82926 0.73982 0.49312 0.0
H83 H 0.84121 0.76022 0.46142 0.0
H84 H 0.81595 0.77671 0.42446 0.0
H85 H 0.77825 0.78832 0.40865 0.0
H86 H 0.81986 0.78788 0.35586 0.0
H87 H 0.85822 0.77665 0.37156 0.0
N88 N 0.8901 0.77305 0.4001 0.0
N89 N 0.90612 0.75758 0.42696 0.0
N90 N 0.85892 0.7602 0.42706 0.0
C91 C 0.91153 0.76725 0.40899 0.0
C92 C 0.87992 0.75406 0.4361 0.0
C93 C 0.86369 0.76953 0.40903 0.0
C94 C 0.94087 0.77207 0.39934 0.0
C95 C 0.94771 0.78389 0.38111 0.0
C96 C 0.97587 0.7894 0.3723 0.0
C97 C 0.99768 0.78316 0.38153 0.0
C98 C 0.99087 0.771 0.39957 0.0
C99 C 0.96277 0.76553 0.40841 0.0
C100 C 0.87392 0.74312 0.45563 0.0
C101 C 0.88862 0.72715 0.46319 0.0
C102 C 0.88136 0.71514 0.48122 0.0
C103 C 0.8597 0.71931 0.49212 0.0
C104 C 0.84594 0.73627 0.48489 0.0
C105 C 0.85272 0.74779 0.46675 0.0
C106 C 0.84034 0.77593 0.39931 0.0
C107 C 0.81717 0.77898 0.40948 0.0
C108 C 0.02523 0.23837 0.62087 0.0
C109 C 0.00712 0.20902 0.62936 0.0
C110 C 0.01896 0.18818 0.62939 0.0
C111 C 0.04825 0.19644 0.62108 0.0
H112 H 0.13946 0.2079 0.63717 0.0
H113 H 0.17642 0.19492 0.6527 0.0
H114 H 0.23758 0.22545 0.6047 0.0
H115 H 0.20088 0.23866 0.58892 0.0
H116 H 0.16862 0.24798 0.54994 0.0
H117 H 0.17847 0.26896 0.51831 0.0
H118 H 0.11512 0.30549 0.52768 0.0
H119 H 0.10437 0.28385 0.5591 0.0
H120 H 0.06718 0.26855 0.60504 0.0
H121 H 0.0165 0.25474 0.62063 0.0
H122 H 0.00531 0.16535 0.6357 0.0
H123 H 0.05675 0.17987 0.62126 0.0
N124 N 0.11672 0.22572 0.61076 0.0
N125 N 0.15021 0.24413 0.58476 0.0
N126 N 0.1025 0.24601 0.58537 0.0
C127 C 0.14414 0.23157 0.60212 0.0
C128 C 0.12948 0.25138 0.57628 0.0
C129 C 0.09593 0.23297 0.60255 0.0
C130 C 0.16699 0.2242 0.61167 0.0
C131 C 0.16078 0.21199 0.62984 0.0
C132 C 0.1819 0.20462 0.63883 0.0
C133 C 0.20962 0.20921 0.62983 0.0
C134 C 0.21626 0.22179 0.61185 0.0
C135 C 0.19517 0.22923 0.60285 0.0
C136 C 0.13582 0.26436 0.55713 0.0
C137 C 0.15676 0.26048 0.54529 0.0
C138 C 0.16234 0.27234 0.52718 0.0
C139 C 0.14766 0.28893 0.52066 0.0
C140 C 0.12671 0.29279 0.53242 0.0
C141 C 0.12063 0.28042 0.5504 0.0
C142 C 0.06574 0.22523 0.61198 0.0
C143 C 0.054 0.24615 0.6119 0.0
C144 C 0.76487 0.78363 0.61408 0.0
C145 C 0.77166 0.78941 0.63312 0.0
C146 C 0.76953 0.81367 0.64175 0.0
C147 C 0.7617 0.83267 0.63129 0.0
H148 H 0.78476 0.92138 0.63148 0.0
H149 H 0.79997 0.97126 0.6461 0.0
H150 H 0.7597 0.99601 0.60014 0.0
H151 H 0.74432 0.94573 0.58504 0.0
H152 H 0.74585 0.90529 0.54497 0.0
H153 H 0.72373 0.89327 0.51345 0.0
H154 H 0.6753 0.79482 0.52595 0.0
H155 H 0.69809 0.80653 0.55734 0.0
H156 H 0.75241 0.79796 0.58887 0.0
H157 H 0.76619 0.76471 0.6073 0.0
H158 H 0.77434 0.81811 0.65647 0.0
H159 H 0.76071 0.85159 0.63829 0.0
N160 N 0.75758 0.87753 0.60831 0.0
N161 N 0.7434 0.89226 0.58062 0.0
N162 N 0.73917 0.84284 0.58314 0.0
C163 C 0.75432 0.89901 0.59838 0.0
C164 C 0.7357 0.86414 0.57294 0.0
C165 C 0.75017 0.84953 0.60091 0.0
C166 C 0.76331 0.9295 0.60702 0.0
C167 C 0.77901 0.93725 0.62436 0.0
C168 C 0.78782 0.96579 0.63278 0.0
C169 C 0.78102 0.98712 0.62413 0.0
C170 C 0.76516 0.97966 0.60692 0.0
C171 C 0.75647 0.95102 0.59835 0.0
C172 C 0.72351 0.85684 0.55366 0.0
C173 C 0.73064 0.88106 0.54098 0.0
C174 C 0.71815 0.87428 0.52297 0.0
C175 C 0.69773 0.8432 0.51748 0.0
C176 C 0.69099 0.81894 0.52999 0.0
C177 C 0.70402 0.82568 0.54788 0.0
C178 C 0.7557 0.82756 0.61206 0.0
C179 C 0.75686 0.80251 0.60362 0.0
C180 C 0.21245 0.97353 0.61422 0.0
C181 C 0.20566 0.98189 0.63154 0.0
C182 C 0.17689 0.96135 0.64044 0.0
C183 C 0.15486 0.93317 0.63192 0.0
H184 H 0.06982 0.8541 0.64048 0.0
H185 H 0.02105 0.81748 0.65698 0.0
H186 H 0.98689 0.75906 0.60821 0.0
H187 H 0.03546 0.79535 0.59149 0.0
H188 H 0.0745 0.82354 0.55246 0.0
H189 H 0.08399 0.81506 0.52003 0.0
H190 H 0.18385 0.88364 0.52627 0.0
H191 H 0.17471 0.89272 0.5584 0.0
H192 H 0.19616 0.94003 0.59211 0.0
H193 H 0.2345 0.98918 0.60712 0.0
H194 H 0.17116 0.96751 0.65376 0.0
H195 H 0.13262 0.91811 0.63901 0.0
N196 N 0.10929 0.87584 0.61342 0.0
N197 N 0.09115 0.84442 0.58667 0.0
N198 N 0.14118 0.8904 0.58677 0.0
C199 C 0.08642 0.84984 0.60462 0.0
C200 C 0.11854 0.8646 0.57766 0.0
C201 C 0.13674 0.89625 0.60464 0.0
C202 C 0.05669 0.82774 0.61459 0.0
C203 C 0.05199 0.83351 0.63319 0.0
C204 C 0.02417 0.81267 0.64269 0.0
C205 C 0.00056 0.78572 0.63377 0.0
C206 C 0.00498 0.77984 0.61527 0.0
C207 C 0.03277 0.80063 0.60575 0.0
C208 C 0.12386 0.85881 0.55809 0.0
C209 C 0.0985 0.83679 0.54695 0.0
C210 C 0.10382 0.83192 0.52842 0.0
C211 C 0.13464 0.84861 0.52084 0.0
C212 C 0.15992 0.87049 0.5319 0.0
C213 C 0.15459 0.87565 0.55028 0.0
C214 C 0.16109 0.9251 0.61426 0.0
C215 C 0.1904 0.94546 0.60564 0.0
C216 C 0.89009 0.34756 0.73562 0.0
C217 C 0.89148 0.34506 0.71628 0.0
C218 C 0.90324 0.37194 0.70528 0.0
C219 C 0.91243 0.40087 0.71355 0.0
H220 H 0.89674 0.4751 0.70468 0.0
H221 H 0.88105 0.50898 0.68876 0.0
H222 H 0.91488 0.57279 0.7352 0.0
H223 H 0.93045 0.53902 0.75146 0.0
H224 H 0.91904 0.50033 0.79268 0.0
H225 H 0.93458 0.51041 0.82553 0.0
H226 H 0.97915 0.45367 0.82127 0.0
H227 H 0.9628 0.44258 0.7887 0.0
H228 H 0.89806 0.37756 0.75885 0.0
H229 H 0.8814 0.32703 0.74431 0.0
H230 H 0.90495 0.37043 0.69036 0.0
H231 H 0.92092 0.42129 0.70479 0.0
N232 N 0.91552 0.45508 0.7318 0.0
N233 N 0.92806 0.48672 0.75831 0.0
N234 N 0.92652 0.43858 0.75996 0.0
C235 C 0.92028 0.48183 0.74 0.0
C236 C 0.93142 0.46529 0.76832 0.0
C237 C 0.91854 0.43336 0.74169 0.0
C238 C 0.91451 0.50415 0.72946 0.0
C239 C 0.9013 0.49653 0.71146 0.0
C240 C 0.89235 0.51582 0.7023 0.0
C241 C 0.89679 0.54312 0.7109 0.0
C242 C 0.91136 0.55169 0.72844 0.0
C243 C 0.92013 0.53232 0.73768 0.0
C244 C 0.93993 0.47082 0.78816 0.0
C245 C 0.93205 0.48992 0.79879 0.0
C246 C 0.94076 0.49562 0.81751 0.0
C247 C 0.95827 0.48304 0.82565 0.0
C248 C 0.96576 0.46365 0.81513 0.0
C249 C 0.95641 0.45735 0.79657 0.0
C250 C 0.91072 0.40334 0.73295 0.0
C251 C 0.89983 0.37646 0.7439 0.0
C252 C 0.65756 0.55 0.73288 0.0
C253 C 0.6582 0.54778 0.71348 0.0
C254 C 0.63035 0.52675 0.70388 0.0
C255 C 0.60256 0.50698 0.71368 0.0
H256 H 0.53405 0.41441 0.71055 0.0
H257 H 0.49774 0.36475 0.69539 0.0
H258 H 0.43195 0.33986 0.74107 0.0
H259 H 0.46827 0.38935 0.75657 0.0
H260 H 0.51528 0.42287 0.79786 0.0
H261 H 0.50395 0.43017 0.83002 0.0
H262 H 0.54823 0.52948 0.821 0.0
H263 H 0.56079 0.5225 0.78896 0.0
H264 H 0.63007 0.53207 0.75771 0.0
H265 H 0.6789 0.56638 0.74044 0.0
H266 H 0.63047 0.52505 0.68888 0.0
H267 H 0.58162 0.49035 0.70594 0.0
N268 N 0.55225 0.45799 0.73503 0.0
N269 N 0.52268 0.4403 0.76246 0.0
N270 N 0.5692 0.48968 0.76167 0.0
C271 C 0.52674 0.43552 0.74433 0.0
C272 C 0.54372 0.46732 0.77119 0.0
C273 C 0.57357 0.48506 0.74353 0.0
C274 C 0.50415 0.40587 0.73485 0.0
C275 C 0.5118 0.39852 0.71739 0.0
C276 C 0.4911 0.37017 0.70866 0.0
C277 C 0.46222 0.34878 0.71711 0.0
C278 C 0.45417 0.35618 0.73435 0.0
C279 C 0.475 0.38442 0.7432 0.0
C280 C 0.5387 0.47211 0.79089 0.0
C281 C 0.52286 0.4463 0.80278 0.0
C282 C 0.51647 0.45041 0.82115 0.0
C283 C 0.525 0.4803 0.82781 0.0
C284 C 0.54143 0.50622 0.81608 0.0
C285 C 0.54857 0.5022 0.79782 0.0
C286 C 0.60206 0.50825 0.73322 0.0
C287 C 0.62964 0.53049 0.7427 0.0
C288 C 0.46062 0.11869 0.73184 0.0
C289 C 0.46175 0.12152 0.71243 0.0
C290 C 0.48549 0.11908 0.70262 0.0
C291 C 0.50797 0.11414 0.71212 0.0
H292 H 0.59718 0.12243 0.70586 0.0
H293 H 0.64593 0.13066 0.69031 0.0
H294 H 0.67643 0.10596 0.74061 0.0
H295 H 0.62799 0.09762 0.75634 0.0
H296 H 0.5757 0.06393 0.7888 0.0
H297 H 0.5634 0.04284 0.82032 0.0
H298 H 0.49271 0.0714 0.82534 0.0
H299 H 0.50423 0.09194 0.79365 0.0
H300 H 0.48129 0.1114 0.75632 0.0
H301 H 0.44248 0.12058 0.73964 0.0
H302 H 0.48673 0.12125 0.68763 0.0
H303 H 0.52602 0.11241 0.70415 0.0
N304 N 0.55735 0.10965 0.73298 0.0
N305 N 0.5735 0.0948 0.76002 0.0
N306 N 0.52567 0.09631 0.75978 0.0
C307 C 0.57903 0.10443 0.74203 0.0
C308 C 0.54693 0.0907 0.76902 0.0
C309 C 0.53061 0.10567 0.74172 0.0
C310 C 0.60848 0.10929 0.73241 0.0
C311 C 0.61418 0.1187 0.71367 0.0
C312 C 0.64202 0.12344 0.70472 0.0
C313 C 0.66465 0.11886 0.71433 0.0
C314 C 0.65916 0.10955 0.73298 0.0
C315 C 0.63139 0.10478 0.74193 0.0
C316 C 0.54079 0.07947 0.78857 0.0
C317 C 0.55763 0.06592 0.79659 0.0
C318 C 0.55068 0.05385 0.81464 0.0
C319 C 0.52707 0.05544 0.82516 0.0
C320 C 0.51095 0.06986 0.81745 0.0
C321 C 0.51752 0.08149 0.79929 0.0
C322 C 0.50691 0.11119 0.73161 0.0
C323 C 0.48284 0.11343 0.74133 0.0
C324 C 0.67624 0.55187 0.94728 0.0
C325 C 0.67557 0.55101 0.96676 0.0
C326 C 0.70267 0.55522 0.97652 0.0
C327 C 0.72982 0.55959 0.9669 0.0
H328 H 0.80855 0.54605 0.97237 0.0
H329 H 0.84859 0.53649 0.98738 0.0
H330 H 0.9031 0.56112 0.93677 0.0
H331 H 0.86352 0.57077 0.9216 0.0
H332 H 0.84717 0.6104 0.8908 0.0
H333 H 0.85622 0.63202 0.85941 0.0
H334 H 0.75509 0.59696 0.85284 0.0
H335 H 0.74585 0.57602 0.88449 0.0
H336 H 0.7032 0.55718 0.92263 0.0
H337 H 0.65555 0.54868 0.93952 0.0
H338 H 0.70257 0.55465 0.99156 0.0
H339 H 0.75028 0.56257 0.97482 0.0
N340 N 0.7819 0.5605 0.94564 0.0
N341 N 0.81268 0.5751 0.91847 0.0
N342 N 0.76392 0.5748 0.91908 0.0
C343 C 0.8085 0.56514 0.9364 0.0
C344 C 0.79053 0.57995 0.90969 0.0
C345 C 0.75948 0.56526 0.93709 0.0
C346 C 0.83269 0.55929 0.94571 0.0
C347 C 0.82902 0.54945 0.96438 0.0
C348 C 0.85183 0.54391 0.97301 0.0
C349 C 0.87874 0.54809 0.96316 0.0
C350 C 0.88246 0.55775 0.94459 0.0
C351 C 0.85976 0.56331 0.93595 0.0
C352 C 0.79579 0.59161 0.89025 0.0
C353 C 0.82678 0.60714 0.88269 0.0
C354 C 0.83203 0.61956 0.86473 0.0
C355 C 0.80637 0.61627 0.8538 0.0
C356 C 0.77525 0.59993 0.86107 0.0
C357 C 0.77005 0.58804 0.87918 0.0
C358 C 0.73061 0.56042 0.94734 0.0
C359 C 0.70353 0.55674 0.93767 0.0
C360 C 0.43065 0.11701 0.94763 0.0
C361 C 0.43876 0.12226 0.96653 0.0
C362 C 0.43747 0.14639 0.97592 0.0
C363 C 0.42899 0.16572 0.96635 0.0
H364 H 0.44759 0.2535 0.96918 0.0
H365 H 0.46244 0.30301 0.98436 0.0
H366 H 0.41977 0.32741 0.9395 0.0
H367 H 0.40498 0.27781 0.92388 0.0
H368 H 0.40938 0.24149 0.88276 0.0
H369 H 0.38891 0.23106 0.85085 0.0
H370 H 0.34296 0.13194 0.86095 0.0
H371 H 0.36417 0.14209 0.89271 0.0
H372 H 0.41652 0.13207 0.92336 0.0
H373 H 0.4314 0.09824 0.94026 0.0
H374 H 0.4434 0.15046 0.99056 0.0
H375 H 0.42861 0.18449 0.97393 0.0
N376 N 0.42139 0.21042 0.94515 0.0
N377 N 0.40646 0.2261 0.91808 0.0
N378 N 0.40421 0.17747 0.91915 0.0
C379 C 0.41716 0.23194 0.93591 0.0
C380 C 0.39985 0.19883 0.90964 0.0
C381 C 0.41505 0.18323 0.93696 0.0
C382 C 0.42516 0.26168 0.94523 0.0
C383 C 0.44116 0.26922 0.96248 0.0
C384 C 0.4497 0.2975 0.97123 0.0
C385 C 0.44215 0.31867 0.96303 0.0
C386 C 0.42572 0.31119 0.94599 0.0
C387 C 0.41739 0.28293 0.93709 0.0
C388 C 0.38821 0.19259 0.89025 0.0
C389 C 0.39503 0.21747 0.87816 0.0
C390 C 0.38349 0.21159 0.85994 0.0
C391 C 0.36433 0.18077 0.85365 0.0
C392 C 0.35773 0.15588 0.86561 0.0
C393 C 0.36985 0.16173 0.88371 0.0
C394 C 0.42158 0.16112 0.94724 0.0
C395 C 0.42206 0.13626 0.93804 0.0
C396 C 0.86566 0.31808 0.9447 0.0
C397 C 0.86706 0.32025 0.96414 0.0
C398 C 0.84777 0.29361 0.97477 0.0
C399 C 0.82673 0.26533 0.966 0.0
H400 H 0.73898 0.18778 0.97381 0.0
H401 H 0.69046 0.15077 0.99027 0.0
H402 H 0.65745 0.09172 0.94172 0.0
H403 H 0.70582 0.12852 0.92497 0.0
H404 H 0.74799 0.15125 0.88781 0.0
H405 H 0.7578 0.14302 0.8555 0.0
H406 H 0.84591 0.23125 0.85587 0.0
H407 H 0.83655 0.23992 0.88812 0.0
H408 H 0.84441 0.28892 0.9209 0.0
H409 H 0.88067 0.33837 0.9363 0.0
H410 H 0.84895 0.2948 0.98979 0.0
H411 H 0.81191 0.24513 0.97451 0.0
N412 N 0.77669 0.21135 0.94633 0.0
N413 N 0.75999 0.17953 0.91974 0.0
N414 N 0.80707 0.22834 0.91913 0.0
C415 C 0.75519 0.18439 0.93778 0.0
C416 C 0.78601 0.20141 0.91033 0.0
C417 C 0.80261 0.23343 0.93713 0.0
C418 C 0.72636 0.16122 0.94798 0.0
C419 C 0.72155 0.16689 0.96657 0.0
C420 C 0.69388 0.14583 0.97606 0.0
C421 C 0.67061 0.11869 0.96717 0.0
C422 C 0.67534 0.11265 0.94876 0.0
C423 C 0.70299 0.1337 0.93923 0.0
C424 C 0.79148 0.19624 0.89066 0.0
C425 C 0.76946 0.16898 0.88108 0.0
C426 C 0.77497 0.16422 0.86261 0.0
C427 C 0.80256 0.18655 0.85342 0.0
C428 C 0.8245 0.21381 0.8628 0.0
C429 C 0.81903 0.21864 0.88125 0.0
C430 C 0.8252 0.26313 0.94648 0.0
C431 C 0.84506 0.28977 0.93593 0.0
C432 C 0.56021 0.68516 0.06509 0.0
C433 C 0.56621 0.68382 0.04614 0.0
C434 C 0.58367 0.71168 0.03616 0.0
C435 C 0.59383 0.74047 0.04493 0.0
H436 H 0.57677 0.81552 0.03612 0.0
H437 H 0.55938 0.84873 0.02102 0.0
H438 H 0.58942 0.90954 0.06885 0.0
H439 H 0.6067 0.87641 0.08429 0.0
H440 H 0.61192 0.8491 0.1222 0.0
H441 H 0.6253 0.85762 0.15519 0.0
H442 H 0.63664 0.77648 0.1564 0.0
H443 H 0.62309 0.76741 0.12328 0.0
H444 H 0.56575 0.71411 0.08853 0.0
H445 H 0.54702 0.66388 0.07305 0.0
H446 H 0.58896 0.71107 0.02161 0.0
H447 H 0.60661 0.76174 0.03692 0.0
N448 N 0.59393 0.79396 0.06323 0.0
N449 N 0.60641 0.82482 0.09004 0.0
N450 N 0.60352 0.77606 0.09134 0.0
C451 C 0.59892 0.82059 0.07169 0.0
C452 C 0.60898 0.80281 0.09995 0.0
C453 C 0.59621 0.77167 0.07294 0.0
C454 C 0.59282 0.84308 0.06153 0.0
C455 C 0.58021 0.8362 0.04337 0.0
C456 C 0.57029 0.85513 0.03467 0.0
C457 C 0.5731 0.88134 0.0439 0.0
C458 C 0.58717 0.8893 0.06159 0.0
C459 C 0.59695 0.8703 0.07036 0.0
C460 C 0.61657 0.80761 0.12003 0.0
C461 C 0.61719 0.83295 0.1294 0.0
C462 C 0.62471 0.83785 0.14826 0.0
C463 C 0.63186 0.81764 0.15805 0.0
C464 C 0.63106 0.7922 0.14893 0.0
C465 C 0.62335 0.78713 0.13004 0.0
C466 C 0.58762 0.74171 0.0639 0.0
C467 C 0.57112 0.71383 0.07395 0.0
C468 C 0.33056 0.88081 0.06918 0.0
C469 C 0.33193 0.87847 0.04983 0.0
C470 C 0.30465 0.85696 0.03998 0.0
C471 C 0.27657 0.83713 0.04948 0.0
H472 H 0.20363 0.74706 0.0453 0.0
H473 H 0.16685 0.69731 0.03042 0.0
H474 H 0.10232 0.67284 0.0767 0.0
H475 H 0.13899 0.7225 0.0919 0.0
H476 H 0.15412 0.77769 0.12141 0.0
H477 H 0.14166 0.78776 0.15257 0.0
H478 H 0.24192 0.85034 0.16331 0.0
H479 H 0.25473 0.84099 0.13177 0.0
H480 H 0.30199 0.86311 0.09367 0.0
H481 H 0.35148 0.89754 0.07691 0.0
H482 H 0.30536 0.85516 0.02501 0.0
H483 H 0.25597 0.82039 0.04154 0.0
N484 N 0.22426 0.78957 0.07039 0.0
N485 N 0.1913 0.7751 0.09651 0.0
N486 N 0.23997 0.8226 0.09645 0.0
C487 C 0.19706 0.76863 0.07911 0.0
C488 C 0.21257 0.80197 0.10527 0.0
C489 C 0.24576 0.81657 0.07889 0.0
C490 C 0.17433 0.73883 0.06984 0.0
C491 C 0.18162 0.73122 0.05237 0.0
C492 C 0.16069 0.70279 0.04382 0.0
C493 C 0.13203 0.68155 0.05252 0.0
C494 C 0.12443 0.68904 0.06984 0.0
C495 C 0.14542 0.71743 0.07847 0.0
C496 C 0.20543 0.80856 0.12414 0.0
C497 C 0.17359 0.79366 0.13034 0.0
C498 C 0.16638 0.79941 0.14811 0.0
C499 C 0.19086 0.81982 0.16014 0.0
C500 C 0.22275 0.83464 0.15412 0.0
C501 C 0.22997 0.82931 0.13614 0.0
C502 C 0.27518 0.83881 0.06895 0.0
C503 C 0.30231 0.86122 0.0787 0.0
C504 C 0.12421 0.42843 0.0502 0.0
C505 C 0.13107 0.45963 0.04918 0.0
C506 C 0.16055 0.48346 0.05608 0.0
C507 C 0.18242 0.47623 0.06421 0.0
H508 H 0.26133 0.45116 0.03883 0.0
H509 H 0.31026 0.46053 0.02301 0.0
H510 H 0.34686 0.44638 0.07449 0.0
H511 H 0.29807 0.43664 0.09046 0.0
H512 H 0.24173 0.39313 0.12132 0.0
H513 H 0.22984 0.37142 0.15273 0.0
H514 H 0.15744 0.39764 0.15825 0.0
H515 H 0.16856 0.41879 0.12671 0.0
H516 H 0.13956 0.39693 0.06009 0.0
H517 H 0.10158 0.40968 0.04506 0.0
H518 H 0.16632 0.50764 0.05553 0.0
H519 H 0.20488 0.49495 0.06957 0.0
N520 N 0.2246 0.44324 0.0669 0.0
N521 N 0.2396 0.42546 0.09317 0.0
N522 N 0.19121 0.42598 0.09306 0.0
C523 C 0.24589 0.43709 0.07559 0.0
C524 C 0.21238 0.41991 0.10204 0.0
C525 C 0.19725 0.43758 0.0755 0.0
C526 C 0.27567 0.44312 0.06597 0.0
C527 C 0.27979 0.45012 0.04685 0.0
C528 C 0.3077 0.4555 0.03775 0.0
C529 C 0.33211 0.45431 0.04764 0.0
C530 C 0.32826 0.44754 0.06668 0.0
C531 C 0.30029 0.44188 0.07576 0.0
C532 C 0.20593 0.40753 0.12136 0.0
C533 C 0.2233 0.39439 0.12919 0.0
C534 C 0.2166 0.382 0.14717 0.0
C535 C 0.19272 0.38286 0.15782 0.0
C536 C 0.17591 0.39668 0.15026 0.0
C537 C 0.18225 0.40864 0.13218 0.0
C538 C 0.17482 0.44502 0.06603 0.0
C539 C 0.14572 0.42115 0.05887 0.0
C540 C 0.36702 0.90599 0.29564 0.0
C541 C 0.34239 0.87465 0.2969 0.0
C542 C 0.34767 0.85108 0.28982 0.0
C543 C 0.37668 0.85871 0.28124 0.0
H544 H 0.48379 0.88802 0.3054 0.0
H545 H 0.52411 0.87964 0.32091 0.0
H546 H 0.5731 0.89268 0.26892 0.0
H547 H 0.53315 0.90143 0.25322 0.0
H548 H 0.5134 0.93151 0.21906 0.0
H549 H 0.52091 0.95124 0.18717 0.0
H550 H 0.42908 0.94585 0.18886 0.0
H551 H 0.42115 0.9261 0.22065 0.0
H552 H 0.41396 0.93799 0.2852 0.0
H553 H 0.36337 0.92455 0.30086 0.0
H554 H 0.32898 0.8268 0.29051 0.0
H555 H 0.38009 0.84019 0.27569 0.0
N556 N 0.45295 0.89348 0.27759 0.0
N557 N 0.48456 0.91097 0.25074 0.0
N558 N 0.43493 0.90904 0.25158 0.0
C559 C 0.48029 0.90009 0.2685 0.0
C560 C 0.46199 0.91551 0.24213 0.0
C561 C 0.43034 0.89799 0.26925 0.0
C562 C 0.50507 0.89536 0.27798 0.0
C563 C 0.50312 0.88917 0.2972 0.0
C564 C 0.52618 0.88445 0.30615 0.0
C565 C 0.5515 0.88552 0.29605 0.0
C566 C 0.55369 0.89177 0.27693 0.0
C567 C 0.53081 0.89678 0.26799 0.0
C568 C 0.46668 0.92724 0.2226 0.0
C569 C 0.4947 0.93443 0.2127 0.0
C570 C 0.49908 0.94569 0.19443 0.0
C571 C 0.47559 0.95008 0.18566 0.0
C572 C 0.44752 0.94267 0.19537 0.0
C573 C 0.44309 0.93141 0.21361 0.0
C574 C 0.40057 0.89007 0.27919 0.0
C575 C 0.3957 0.91366 0.28659 0.0
C576 C 0.10216 0.45302 0.2789 0.0
C577 C 0.10376 0.45411 0.29838 0.0
C578 C 0.09617 0.47418 0.30803 0.0
C579 C 0.08858 0.49402 0.29824 0.0
H580 H 0.11477 0.58561 0.30178 0.0
H581 H 0.13085 0.63514 0.31731 0.0
H582 H 0.09594 0.66475 0.27094 0.0
H583 H 0.07988 0.61511 0.25499 0.0
H584 H 0.08221 0.57716 0.21411 0.0
H585 H 0.0608 0.56812 0.18242 0.0
H586 H 0.00739 0.46897 0.19274 0.0
H587 H 0.02962 0.47769 0.22425 0.0
H588 H 0.09371 0.47164 0.25407 0.0
H589 H 0.10752 0.43726 0.27127 0.0
H590 H 0.09672 0.47485 0.32307 0.0
H591 H 0.08353 0.50986 0.30601 0.0
N592 N 0.08983 0.54394 0.27681 0.0
N593 N 0.07675 0.56118 0.24968 0.0
N594 N 0.0722 0.51152 0.25053 0.0
C595 C 0.08706 0.56637 0.2676 0.0
C596 C 0.06914 0.53374 0.24109 0.0
C597 C 0.08259 0.51659 0.26845 0.0
C598 C 0.09604 0.59632 0.27706 0.0
C599 C 0.11035 0.6025 0.2948 0.0
C600 C 0.11961 0.63081 0.30375 0.0
C601 C 0.11454 0.65345 0.29525 0.0
C602 C 0.1 0.64743 0.27766 0.0
C603 C 0.09089 0.6191 0.26859 0.0
C604 C 0.05742 0.52814 0.22169 0.0
C605 C 0.06609 0.55341 0.20958 0.0
C606 C 0.05399 0.54831 0.19148 0.0
C607 C 0.03235 0.51792 0.18532 0.0
C608 C 0.02405 0.49258 0.19726 0.0
C609 C 0.03676 0.49762 0.21523 0.0
C610 C 0.08778 0.49359 0.27868 0.0
C611 C 0.09405 0.47247 0.26911 0.0
C612 C 0.53655 0.64443 0.2786 0.0
C613 C 0.53894 0.64679 0.29803 0.0
C614 C 0.51972 0.62028 0.30881 0.0
C615 C 0.49755 0.59214 0.30025 0.0
H616 H 0.40584 0.51625 0.3082 0.0
H617 H 0.35699 0.47945 0.3246 0.0
H618 H 0.32202 0.42259 0.27526 0.0
H619 H 0.37062 0.45902 0.25864 0.0
H620 H 0.40931 0.48902 0.21906 0.0
H621 H 0.41966 0.47925 0.18706 0.0
H622 H 0.52048 0.5429 0.1951 0.0
H623 H 0.5104 0.5535 0.22672 0.0
H624 H 0.51349 0.61534 0.25502 0.0
H625 H 0.55136 0.66457 0.27004 0.0
H626 H 0.52152 0.62156 0.32382 0.0
H627 H 0.48263 0.57214 0.30886 0.0
N628 N 0.44426 0.53955 0.28063 0.0
N629 N 0.42641 0.50765 0.25404 0.0
N630 N 0.47544 0.55465 0.25366 0.0
C631 C 0.42173 0.51311 0.27199 0.0
C632 C 0.45334 0.52827 0.24483 0.0
C633 C 0.47109 0.56049 0.27153 0.0
C634 C 0.39227 0.49068 0.28204 0.0
C635 C 0.38783 0.49594 0.30078 0.0
C636 C 0.35998 0.475 0.31022 0.0
C637 C 0.33609 0.44848 0.30109 0.0
C638 C 0.34033 0.44304 0.28248 0.0
C639 C 0.36815 0.4639 0.27302 0.0
C640 C 0.45903 0.52204 0.22546 0.0
C641 C 0.43366 0.50097 0.21399 0.0
C642 C 0.4395 0.4954 0.19572 0.0
C643 C 0.47086 0.51021 0.18879 0.0
C644 C 0.49613 0.5312 0.20021 0.0
C645 C 0.49028 0.53724 0.21828 0.0
C646 C 0.49491 0.58988 0.28075 0.0
C647 C 0.51495 0.61625 0.27004 0.0
Gd648 Gd 0.51293 0.01737 0.02888 0.0
Gd649 Gd 0.48752 0.97704 0.98281 0.0
C650 C 0.39632 0.88143 0.97856 0.0
C651 C 0.41696 0.84782 0.96877 0.0
C652 C 0.45319 0.90337 0.97385 0.0
C653 C 0.4278 0.90714 0.97882 0.0
C654 C 0.44803 0.87381 0.9683 0.0
C655 C 0.39112 0.85164 0.97388 0.0
C656 C 0.37101 0.88659 0.98266 0.0
C657 C 0.37745 0.91684 0.98661 0.0
N658 N 0.43379 0.93621 0.98331 0.0
C659 C 0.40912 0.94143 0.98676 0.0
H660 H 0.41402 0.964 0.99132 0.0
C661 C 0.50752 0.92741 0.96536 0.0
N662 N 0.48272 0.92908 0.9733 0.0
C663 C 0.50383 0.89857 0.95996 0.0
C664 C 0.47406 0.87152 0.96175 0.0
H665 H 0.53012 0.94838 0.96307 0.0
H666 H 0.36717 0.83157 0.97378 0.0
H667 H 0.56652 -0.00043 0.04931 0.0
H668 H 0.3465 0.8675 0.9827 0.0
H669 H 0.35815 0.92114 0.99002 0.0
H670 H 0.41255 0.82487 0.96471 0.0
H671 H 0.50111 0.07908 0.03617 0.0
H672 H 0.6603 0.07731 0.0415 0.0
H673 H 0.62465 0.02308 0.05196 0.0
H674 H 0.64008 0.15951 0.02549 0.0
H675 H 0.52381 0.8973 0.95413 0.0
H676 H 0.47112 0.84925 0.95734 0.0
H677 H 0.66585 0.12798 0.03057 0.0
H678 H 0.5321 0.13637 0.03432 0.0
N679 N 0.56851 0.03863 0.03515 0.0
C680 C 0.63464 0.06685 0.03989 0.0
C681 C 0.61461 0.03626 0.04579 0.0
C682 C 0.62114 0.08433 0.03338 0.0
C683 C 0.58752 0.06956 0.03157 0.0
C684 C 0.58146 0.02277 0.04382 0.0
N685 N 0.54081 0.07282 0.02979 0.0
C686 C 0.5731 0.08726 0.02862 0.0
C687 C 0.54392 0.12286 0.03235 0.0
C688 C 0.57662 0.13784 0.02865 0.0
C689 C 0.52643 0.09024 0.03331 0.0
C690 C 0.59186 0.12014 0.02749 0.0
H691 H 0.59016 0.16313 0.02797 0.0
O692 O 0.48208 0.02428 0.04791 0.0
O693 O 0.47177 0.9826 0.01112 0.0
O694 O 0.47077 0.01212 0.98431 0.0
O695 O 0.49149 0.04123 0.01152 0.0
O696 O 0.47528 0.97035 0.03809 0.0
O697 O 0.51761 0.013 0.05882 0.0
O698 O 0.51388 -0.00193 0.95743 0.0
O699 O 0.5244 0.01807 0.99905 0.0
O700 O 0.52786 0.98041 0.02612 0.0
O701 O 0.50309 0.94859 0.99998 0.0
O702 O 0.54057 0.99767 0.9801 0.0
O703 O 0.46305 0.97964 0.95793 0.0
C704 C 0.45847 0.96117 0.02321 0.0
C705 C 0.62532 0.1344 0.02689 0.0
C706 C 0.63999 0.11646 0.02984 0.0
C707 C 0.49432 0.01836 0.06246 0.0
C708 C 0.48346 0.01916 0.0816 0.0
C709 C 0.46545 0.03392 0.08474 0.0
C710 C 0.4895 0.0043 0.09663 0.0
C711 C 0.47718 0.00413 0.11446 0.0
C712 C 0.45365 0.03402 0.10237 0.0
C713 C 0.45939 0.01922 0.11711 0.0
C714 C 0.47637 0.03574 0.99529 0.0
C715 C 0.54935 0.01972 0.99219 0.0
C716 C 0.48884 0.99278 0.94788 0.0
C717 C 0.48683 0.98054 0.92894 0.0
C718 C 0.47767 0.94908 0.92609 0.0
C719 C 0.49542 0.00079 0.91358 0.0
C720 C 0.49557 0.98969 0.89554 0.0
C721 C 0.47807 0.9381 0.90829 0.0
C722 C 0.48715 0.95826 0.89313 0.0
C723 C 0.52031 0.95566 0.01547 0.0
H724 H 0.46039 0.04541 0.07351 0.0
H725 H 0.50313 0.99257 0.09446 0.0
H726 H 0.43982 0.0455 0.1046 0.0
H727 H 0.44985 0.01945 0.13068 0.0
H728 H 0.47024 0.93298 0.93757 0.0
H729 H 0.5021 0.02505 0.91562 0.0
H730 H 0.47122 0.91383 0.90624 0.0
H731 H 0.48711 0.94922 0.8794 0.0
Gd732 Gd 0.98003 0.49379 0.02681 0.0
Gd733 Gd 0.02641 0.51238 0.98415 0.0
C734 C 0.10035 0.48202 0.97306 0.0
C735 C 0.14528 0.52991 0.96137 0.0
C736 C 0.09742 0.52949 0.97234 0.0
C737 C 0.08338 0.49802 0.97618 0.0
C738 C 0.1286 0.54587 0.96495 0.0
C739 C 0.13114 0.49801 0.96536 0.0
C740 C 0.08623 0.45062 0.97817 0.0
C741 C 0.05619 0.43612 0.98645 0.0
N742 N 0.05369 0.48344 0.98373 0.0
C743 C 0.04023 0.45287 0.98912 0.0
H744 H 0.01711 0.44096 0.99565 0.0
C745 C 0.09287 0.57486 0.97122 0.0
N746 N 0.08039 0.54403 0.97562 0.0
C747 C 0.12388 0.59225 0.96423 0.0
C748 C 0.14187 0.5777 0.96108 0.0
H749 H 0.07857 0.58594 0.97274 0.0
H750 H 0.14442 0.48604 0.96275 0.0
H751 H 0.9792 0.56126 0.03176 0.0
H752 H 0.09855 0.43757 0.97609 0.0
H753 H 0.04519 0.41194 0.99072 0.0
H754 H 0.16914 0.54203 0.95557 0.0
H755 H 0.93694 0.4181 0.03925 0.0
H756 H 0.88281 0.54184 0.02654 0.0
H757 H 0.94035 0.57957 0.03108 0.0
H758 H 0.82227 0.43023 0.0281 0.0
H759 H 0.13364 0.61671 0.96092 0.0
H760 H 0.16574 0.59111 0.9554 0.0
H761 H 0.83885 0.48586 0.02482 0.0
H762 H 0.88011 0.37686 0.04148 0.0
N763 N 0.94445 0.51351 0.02689 0.0
C764 C 0.89983 0.5336 0.02679 0.0
C765 C 0.93224 0.55493 0.02943 0.0
C766 C 0.88959 0.5017 0.02576 0.0
C767 C 0.91276 0.49223 0.02624 0.0
C768 C 0.9543 0.5444 0.02962 0.0
N769 N 0.92645 0.45325 0.03062 0.0
C770 C 0.90343 0.46105 0.02827 0.0
C771 C 0.88632 0.4004 0.03764 0.0
C772 C 0.86233 0.40757 0.03383 0.0
C773 C 0.9184 0.4238 0.03647 0.0
C774 C 0.87071 0.43837 0.02959 0.0
H775 H 0.83747 0.38946 0.03489 0.0
O776 O 0.97914 0.47357 0.05344 0.0
O777 O 0.02714 0.50318 0.01484 0.0
O778 O 0.98656 0.46214 0.98254 0.0
O779 O 0.95314 0.45218 0.0077 0.0
O780 O 0.00269 0.46402 0.03098 0.0
O781 O 0.99011 0.52174 0.05204 0.0
O782 O 0.0269 0.53549 0.95844 0.0
O783 O 0.98232 0.50744 0.99735 0.0
O784 O 0.01807 0.54569 0.02642 0.0
O785 O 0.0541 0.55477 1.00223 0.0
O786 O 0.00891 0.54679 0.9815 0.0
O787 O 0.00669 0.48528 0.95891 0.0
C788 C 0.02976 0.48173 0.02303 0.0
C789 C 0.84752 0.44738 0.02745 0.0
C790 C 0.85696 0.47904 0.02553 0.0
C791 C 0.98578 0.49872 0.06272 0.0
C792 C 0.96816 0.49394 0.07998 0.0
C793 C 0.9347 0.4794 0.0801 0.0
C794 C 0.98517 0.50144 0.09678 0.0
C795 C 0.96881 0.49361 0.11374 0.0
C796 C 0.91834 0.47197 0.09697 0.0
C797 C 0.93525 0.47879 0.11374 0.0
C798 C 0.96026 0.44377 0.9918 0.0
C799 C 0.98299 0.53171 0.99095 0.0
C800 C 0.01348 0.50969 0.94884 0.0
C801 C 0.02646 0.5109 0.93033 0.0
C802 C 0.058 0.51743 0.92786 0.0
C803 C 0.00687 0.50576 0.91481 0.0
C804 C 0.01877 0.5069 0.89692 0.0
C805 C 0.07 0.51895 0.91007 0.0
C806 C 0.05047 0.5137 0.89461 0.0
C807 C 0.04503 0.56364 0.01725 0.0
H808 H 0.92129 0.47332 0.06723 0.0
H809 H 0.01106 0.51254 0.09668 0.0
H810 H 0.89249 0.46055 0.09706 0.0
H811 H 0.92222 0.47258 0.12671 0.0
H812 H 0.07336 0.52137 0.93957 0.0
H813 H 0.98245 0.50078 0.91659 0.0
H814 H 0.09443 0.52416 0.90826 0.0
H815 H 0.06001 0.51488 0.88084 0.0
Gd816 Gd 0.48864 0.50706 0.98652 0.0
Gd817 Gd 0.51653 0.48989 0.03069 0.0
C818 C 0.61498 0.49772 0.03186 0.0
C819 C 0.60128 0.44378 0.03669 0.0
C820 C 0.55954 0.45762 0.03528 0.0
C821 C 0.58218 0.4884 0.03214 0.0
C822 C 0.5689 0.43514 0.03836 0.0
C823 C 0.62432 0.47506 0.03343 0.0
C824 C 0.63742 0.52963 0.03091 0.0
C825 C 0.62696 0.55133 0.0313 0.0
N826 N 0.57228 0.50965 0.03105 0.0
C827 C 0.59415 0.54089 0.03169 0.0
H828 H 0.58653 0.558 0.03201 0.0
C829 C 0.50676 0.42231 0.0447 0.0
N830 N 0.52869 0.45036 0.03728 0.0
C831 C 0.51462 0.39897 0.04766 0.0
C832 C 0.5457 0.40518 0.04404 0.0
H833 H 0.48309 0.41791 0.04808 0.0
H834 H 0.64936 0.48169 0.03294 0.0
H835 H 0.41687 0.4418 0.98343 0.0
H836 H 0.66284 0.53776 0.03061 0.0
H837 H 0.6441 0.57611 0.03118 0.0
H838 H 0.60891 0.42676 0.03873 0.0
H839 H 0.52918 0.582 0.97353 0.0
H840 H 0.34448 0.46744 0.98173 0.0
H841 H 0.35999 0.42671 0.9827 0.0
H842 H 0.40479 0.57828 0.97307 0.0
H843 H 0.49686 0.37638 0.05292 0.0
H844 H 0.55189 0.38724 0.04659 0.0
H845 H 0.36151 0.52426 0.97824 0.0
H846 H 0.51863 0.625 0.96656 0.0
N847 N 0.4337 0.4906 0.98456 0.0
C848 C 0.36956 0.4742 0.98238 0.0
C849 C 0.3782 0.45117 0.9829 0.0
C850 C 0.39346 0.50564 0.98156 0.0
C851 C 0.42574 0.51314 0.98252 0.0
C852 C 0.41057 0.45985 0.98359 0.0
N853 N 0.48054 0.54916 0.97945 0.0
C854 C 0.44996 0.54341 0.97963 0.0
C855 C 0.49911 0.60218 0.97028 0.0
C856 C 0.4679 0.59697 0.97121 0.0
C857 C 0.50499 0.57778 0.97421 0.0
C858 C 0.44278 0.56718 0.97569 0.0
H859 H 0.46339 0.61588 0.96811 0.0
O860 O 0.51396 0.5202 0.96029 0.0
O861 O 0.52773 0.5036 1.00103 0.0
O862 O 0.53098 0.5415 0.02752 0.0
O863 O 0.49675 0.54559 0.00645 0.0
O864 O 0.5414 0.5397 0.98248 0.0
O865 O 0.46893 0.47688 0.96233 0.0
O866 O 0.49019 0.47783 0.05681 0.0
O867 O 0.47777 0.49317 0.01608 0.0
O868 O 0.47145 0.45516 0.98945 0.0
O869 O 0.50172 0.44773 0.01241 0.0
O870 O 0.46362 0.45718 0.03486 0.0
O871 O 0.53829 0.5168 0.05552 0.0
C872 C 0.55192 0.52627 0.99345 0.0
C873 C 0.41078 0.56026 0.97582 0.0
C874 C 0.38615 0.52952 0.97882 0.0
C875 C 0.49193 0.49597 0.95143 0.0
C876 C 0.48261 0.50237 0.93331 0.0
C877 C 0.46443 0.51728 0.93206 0.0
C878 C 0.49321 0.49473 0.91704 0.0
C879 C 0.48618 0.50255 0.89958 0.0
C880 C 0.45726 0.5249 0.91474 0.0
C881 C 0.46818 0.51772 0.89856 0.0
C882 C 0.51662 0.55646 0.02079 0.0
C883 C 0.45344 0.47039 0.02344 0.0
C884 C 0.51381 0.49991 0.06605 0.0
C885 C 0.52077 0.49178 0.08435 0.0
C886 C 0.54302 0.48159 0.08643 0.0
C887 C 0.50595 0.49565 0.10009 0.0
C888 C 0.51411 0.49038 0.11793 0.0
C889 C 0.55082 0.47587 0.10412 0.0
C890 C 0.53666 0.48045 0.1198 0.0
C891 C 0.48208 0.43824 0.99791 0.0
H892 H 0.45597 0.52319 0.94444 0.0
H893 H 0.50719 0.4831 0.91794 0.0
H894 H 0.4433 0.5365 0.91385 0.0
H895 H 0.46247 0.52385 0.88521 0.0
H896 H 0.55462 0.47846 0.07442 0.0
H897 H 0.48865 0.50342 0.09852 0.0
H898 H 0.56811 0.46817 0.10569 0.0
H899 H 0.54322 0.4762 0.13344 0.0
Gd900 Gd 0.17675 0.34981 0.36168 0.0
Gd901 Gd 0.15212 0.30746 0.31602 0.0
C902 C 0.05778 0.21469 0.31243 0.0
C903 C 0.07583 0.17792 0.30529 0.0
C904 C 0.11434 0.23325 0.30904 0.0
C905 C 0.0899 0.23916 0.31278 0.0
C906 C 0.10759 0.20269 0.30472 0.0
C907 C 0.05094 0.18392 0.30914 0.0
C908 C 0.03353 0.22202 0.31492 0.0
C909 C 0.04161 0.25316 0.31728 0.0
N910 N 0.09744 0.26913 0.31589 0.0
C911 C 0.07385 0.2765 0.3176 0.0
H912 H 0.07986 0.30003 0.3208 0.0
C913 C 0.16863 0.25396 0.30122 0.0
N914 N 0.14459 0.25782 0.3083 0.0
C915 C 0.16335 0.22407 0.29705 0.0
C916 C 0.13278 0.1982 0.29917 0.0
H917 H 0.1918 0.27402 0.29858 0.0
H918 H 0.02646 0.16477 0.30903 0.0
H919 H 0.24306 0.34519 0.37304 0.0
H920 H 0.00857 0.20392 0.31483 0.0
H921 H 0.02311 0.25915 0.31932 0.0
H922 H 0.07017 0.15422 0.3022 0.0
H923 H 0.14803 0.39831 0.37313 0.0
H924 H 0.32482 0.43565 0.36644 0.0
H925 H 0.30112 0.37946 0.37345 0.0
H926 H 0.27979 0.5021 0.36177 0.0
H927 H 0.1827 0.22107 0.29191 0.0
H928 H 0.12861 0.1751 0.2957 0.0
H929 H 0.31655 0.48122 0.36119 0.0
H930 H 0.16765 0.45492 0.37418 0.0
N931 N 0.23302 0.38088 0.36451 0.0
C932 C 0.29907 0.4206 0.36606 0.0
C933 C 0.28579 0.38894 0.37007 0.0
C934 C 0.27887 0.43283 0.36297 0.0
C935 C 0.24545 0.4122 0.36273 0.0
C936 C 0.25257 0.3694 0.36949 0.0
N937 N 0.19302 0.40359 0.36507 0.0
C938 C 0.22478 0.42395 0.36308 0.0
C939 C 0.18393 0.44656 0.37084 0.0
C940 C 0.21594 0.46771 0.36701 0.0
C941 C 0.17298 0.41448 0.37026 0.0
C942 C 0.23701 0.45657 0.36361 0.0
H943 H 0.22442 0.49256 0.36754 0.0
O944 O 0.15046 0.35081 0.38579 0.0
O945 O 0.13591 0.31527 0.34357 0.0
O946 O 0.13843 0.34494 0.31628 0.0
O947 O 0.15439 0.37258 0.34424 0.0
O948 O 0.13351 0.30679 0.37156 0.0
O949 O 0.18867 0.33971 0.38897 0.0
O950 O 0.17997 0.32693 0.29088 0.0
O951 O 0.18954 0.34759 0.33233 0.0
O952 O 0.19343 0.31424 0.35918 0.0
O953 O 0.16492 0.2789 0.33503 0.0
O954 O 0.20518 0.32639 0.31368 0.0
O955 O 0.1294 0.31 0.29036 0.0
C956 C 0.11959 0.29557 0.35608 0.0
C957 C 0.27005 0.47702 0.36183 0.0
C958 C 0.29098 0.46513 0.36148 0.0
C959 C 0.16661 0.34328 0.39724 0.0
C960 C 0.17416 0.35798 0.41574 0.0
C961 C 0.18603 0.39012 0.41791 0.0
C962 C 0.16797 0.33909 0.43158 0.0
C963 C 0.17272 0.35215 0.44951 0.0
C964 C 0.19097 0.40318 0.43567 0.0
C965 C 0.18418 0.38435 0.45137 0.0
C966 C 0.14175 0.36776 0.32729 0.0
C967 C 0.2144 0.34879 0.32562 0.0
C968 C 0.15569 0.32228 0.28076 0.0
C969 C 0.15416 0.30967 0.26201 0.0
C970 C 0.14594 0.27839 0.25951 0.0
C971 C 0.16225 0.32946 0.24644 0.0
C972 C 0.16286 0.3181 0.22856 0.0
C973 C 0.14676 0.26715 0.24186 0.0
C974 C 0.15536 0.28687 0.2265 0.0
C975 C 0.18321 0.28743 0.35015 0.0
H976 H 0.19122 0.40505 0.40593 0.0
H977 H 0.15899 0.31424 0.42998 0.0
H978 H 0.19995 0.42799 0.43727 0.0
H979 H 0.18804 0.39491 0.46502 0.0
H980 H 0.13893 0.26265 0.27117 0.0
H981 H 0.16819 0.35357 0.24822 0.0
H982 H 0.14063 0.24302 0.24007 0.0
H983 H 0.15568 0.27764 0.21289 0.0
Gd984 Gd 0.6472 0.82379 0.35957 0.0
Gd985 Gd 0.6941 0.84208 0.31647 0.0
C986 C 0.77893 0.82513 0.3181 0.0
C987 C 0.82393 0.87755 0.31399 0.0
C988 C 0.76961 0.86874 0.31451 0.0
C989 C 0.75775 0.83706 0.31726 0.0
C990 C 0.80278 0.88916 0.31236 0.0
C991 C 0.81203 0.84561 0.31682 0.0
C992 C 0.76626 0.79293 0.32005 0.0
C993 C 0.73325 0.77343 0.32114 0.0
N994 N 0.72559 0.81783 0.31881 0.0
C995 C 0.71324 0.78633 0.32066 0.0
H996 H 0.68826 0.77107 0.32317 0.0
C997 C 0.75892 0.90907 0.3067 0.0
N998 N 0.74862 0.8793 0.31277 0.0
C999 C 0.79154 0.9303 0.30472 0.0
C1000 C 0.81365 0.92045 0.30792 0.0
H1001 H 0.74182 0.91636 0.30347 0.0
H1002 H 0.82861 0.83688 0.31769 0.0
H1003 H 0.64731 0.89237 0.36657 0.0
H1004 H 0.78173 0.78292 0.32081 0.0
H1005 H 0.72319 0.74852 0.323 0.0
H1006 H 0.8495 0.89295 0.31257 0.0
H1007 H 0.60114 0.74709 0.37103 0.0
H1008 H 0.55263 0.87514 0.35757 0.0
H1009 H 0.6097 0.91164 0.36427 0.0
H1010 H 0.48998 0.7639 0.35746 0.0
H1011 H 0.79955 0.95408 0.30048 0.0
H1012 H 0.83893 0.93684 0.30616 0.0
H1013 H 0.50817 0.81986 0.35453 0.0
H1014 H 0.54389 0.70745 0.37233 0.0
N1015 N 0.61288 0.8451 0.35966 0.0
C1016 C 0.56922 0.86641 0.35832 0.0
C1017 C 0.60136 0.88706 0.36214 0.0
C1018 C 0.55849 0.83446 0.35692 0.0
C1019 C 0.58111 0.82428 0.35801 0.0
C1020 C 0.62285 0.8759 0.3631 0.0
N1021 N 0.593 0.78377 0.36217 0.0
C1022 C 0.57084 0.79271 0.35956 0.0
C1023 C 0.55111 0.73126 0.36856 0.0
C1024 C 0.52813 0.73956 0.36432 0.0
C1025 C 0.58353 0.75386 0.36784 0.0
C1026 C 0.53779 0.77069 0.36017 0.0
H1027 H 0.503 0.72201 0.36492 0.0
O1028 O 0.64618 0.79822 0.38418 0.0
O1029 O 0.68482 0.81842 0.34382 0.0
O1030 O 0.655 0.79162 0.31432 0.0
O1031 O 0.62547 0.77945 0.34166 0.0
O1032 O 0.69131 0.82675 0.37179 0.0
O1033 O 0.65092 0.8445 0.38666 0.0
O1034 O 0.6632 0.82403 0.29217 0.0
O1035 O 0.65211 0.84041 0.33038 0.0
O1036 O 0.68298 0.87591 0.35916 0.0
O1037 O 0.71949 0.88456 0.33543 0.0
O1038 O 0.67759 0.87739 0.31287 0.0
O1039 O 0.71399 0.85029 0.2886 0.0
C1040 C 0.70431 0.82392 0.35713 0.0
C1041 C 0.51541 0.78057 0.35744 0.0
C1042 C 0.52576 0.81243 0.35574 0.0
C1043 C 0.64926 0.82049 0.39532 0.0
C1044 C 0.63133 0.81107 0.41268 0.0
C1045 C 0.59786 0.79317 0.41293 0.0
C1046 C 0.64855 0.81983 0.4294 0.0
C1047 C 0.63252 0.81017 0.4464 0.0
C1048 C 0.5818 0.78351 0.42986 0.0
C1049 C 0.59901 0.79182 0.44655 0.0
C1050 C 0.63088 0.772 0.32482 0.0
C1051 C 0.65263 0.86419 0.32332 0.0
C1052 C 0.68638 0.83714 0.2804 0.0
C1053 C 0.68228 0.85495 0.26545 0.0
C1054 C 0.68924 0.88586 0.2683 0.0
C1055 C 0.67155 0.84092 0.24801 0.0
C1056 C 0.66784 0.85773 0.2335 0.0
C1057 C 0.68519 0.90245 0.2539 0.0
C1058 C 0.6746 0.88849 0.23651 0.0
C1059 C 0.71039 0.89355 0.35046 0.0
H1060 H 0.58422 0.78667 0.40015 0.0
H1061 H 0.67445 0.83398 0.42923 0.0
H1062 H 0.55596 0.76956 0.43005 0.0
H1063 H 0.58625 0.7842 0.45958 0.0
H1064 H 0.6981 0.89737 0.28151 0.0
H1065 H 0.66644 0.81717 0.24564 0.0
H1066 H 0.69059 0.92626 0.25616 0.0
H1067 H 0.67195 0.90172 0.22535 0.0
Gd1068 Gd 0.1565 0.8399 0.31797 0.0
Gd1069 Gd 0.18434 0.8262 0.36256 0.0
C1070 C 0.28647 0.84771 0.37562 0.0
C1071 C 0.27696 0.79915 0.38965 0.0
C1072 C 0.23245 0.80406 0.37774 0.0
C1073 C 0.25327 0.83448 0.3725 0.0
C1074 C 0.24401 0.78607 0.38648 0.0
C1075 C 0.29815 0.82992 0.38426 0.0
C1076 C 0.30704 0.87828 0.36976 0.0
C1077 C 0.29445 0.89482 0.36093 0.0
N1078 N 0.24113 0.85082 0.36396 0.0
C1079 C 0.26143 0.88084 0.35823 0.0
H1080 H 0.25285 0.89441 0.35115 0.0
C1081 C 0.17914 0.76321 0.38102 0.0
N1082 N 0.20077 0.79224 0.37464 0.0
C1083 C 0.18939 0.74426 0.38946 0.0
C1084 C 0.22203 0.75567 0.3921 0.0
H1085 H 0.15387 0.75491 0.37991 0.0
H1086 H 0.32354 0.83972 0.38675 0.0
H1087 H 0.09011 0.76826 0.31398 0.0
H1088 H 0.33266 0.88919 0.3718 0.0
H1089 H 0.31018 0.91842 0.35617 0.0
H1090 H 0.28629 0.78572 0.39636 0.0
H1091 H 0.18405 0.91416 0.30386 0.0
H1092 H 0.00792 0.77904 0.31655 0.0
H1093 H 0.03196 0.7452 0.31419 0.0
H1094 H 0.05188 0.88962 0.31277 0.0
H1095 H 0.17209 0.72112 0.39424 0.0
H1096 H 0.22995 0.74112 0.39885 0.0
H1097 H 0.01566 0.83314 0.31661 0.0
H1098 H 0.16418 0.95126 0.30034 0.0
N1099 N 0.09998 0.81528 0.31706 0.0
C1100 C 0.03371 0.78946 0.3165 0.0
C1101 C 0.04719 0.77031 0.31512 0.0
C1102 C 0.05369 0.82189 0.31676 0.0
C1103 C 0.08715 0.83425 0.31665 0.0
C1104 C 0.08047 0.78366 0.3152 0.0
N1105 N 0.1392 0.87655 0.31277 0.0
C1106 C 0.10745 0.86595 0.31449 0.0
C1107 C 0.14799 0.92742 0.30453 0.0
C1108 C 0.11586 0.9175 0.30791 0.0
C1109 C 0.15912 0.90633 0.3065 0.0
C1110 C 0.09495 0.88622 0.31242 0.0
H1111 H 0.1072 0.93379 0.30621 0.0
O1112 O 0.17525 0.86008 0.29107 0.0
O1113 O 0.19455 0.83268 0.33165 0.0
O1114 O 0.20074 0.8773 0.35998 0.0
O1115 O 0.17399 0.88386 0.33497 0.0
O1116 O 0.20955 0.86997 0.31405 0.0
O1117 O 0.14138 0.81046 0.29329 0.0
O1118 O 0.15993 0.81047 0.3891 0.0
O1119 O 0.14559 0.83005 0.34779 0.0
O1120 O 0.14453 0.78911 0.32037 0.0
O1121 O 0.16928 0.78176 0.34645 0.0
O1122 O 0.13136 0.79336 0.36597 0.0
O1123 O 0.19633 0.85881 0.38546 0.0
C1124 C 0.21909 0.85367 0.32321 0.0
C1125 C 0.06187 0.87434 0.31401 0.0
C1126 C 0.04125 0.84219 0.31619 0.0
C1127 C 0.15828 0.83381 0.28225 0.0
C1128 C 0.14371 0.83525 0.26479 0.0
C1129 C 0.11746 0.84009 0.2643 0.0
C1130 C 0.1573 0.83267 0.24821 0.0
C1131 C 0.14458 0.83458 0.23109 0.0
C1132 C 0.10486 0.84223 0.24722 0.0
C1133 C 0.11832 0.83947 0.23064 0.0
C1134 C 0.19231 0.89415 0.34987 0.0
C1135 C 0.12123 0.80727 0.35509 0.0
C1136 C 0.17642 0.83773 0.39694 0.0
C1137 C 0.18834 0.8382 0.41579 0.0
C1138 C 0.21774 0.83951 0.41864 0.0
C1139 C 0.17027 0.83783 0.43119 0.0
C1140 C 0.18181 0.83906 0.4493 0.0
C1141 C 0.22893 0.84016 0.43661 0.0
C1142 C 0.2111 0.83997 0.45189 0.0
C1143 C 0.15226 0.77183 0.33093 0.0
H1144 H 0.10689 0.84231 0.27702 0.0
H1145 H 0.17777 0.82915 0.24859 0.0
H1146 H 0.08465 0.84605 0.24682 0.0
H1147 H 0.10832 0.84112 0.21749 0.0
H1148 H 0.23219 0.84033 0.40702 0.0
H1149 H 0.14759 0.83699 0.42912 0.0
H1150 H 0.2516 0.84109 0.4387 0.0
H1151 H 0.22025 0.84077 0.46576 0.0
Gd1152 Gd 0.8436 0.68237 0.69545 0.0
Gd1153 Gd 0.81741 0.64278 0.64901 0.0
C1154 C 0.72605 0.54734 0.64422 0.0
C1155 C 0.74678 0.51352 0.63507 0.0
C1156 C 0.783 0.56906 0.64016 0.0
C1157 C 0.75757 0.57295 0.64478 0.0
C1158 C 0.77787 0.53947 0.63469 0.0
C1159 C 0.72087 0.51746 0.63982 0.0
C1160 C 0.70066 0.55272 0.64758 0.0
C1161 C 0.70707 0.58311 0.65098 0.0
N1162 N 0.76352 0.60216 0.64888 0.0
C1163 C 0.73877 0.60761 0.65142 0.0
H1164 H 0.74356 0.63034 0.65551 0.0
C1165 C 0.83721 0.59313 0.63144 0.0
N1166 N 0.81252 0.5948 0.63953 0.0
C1167 C 0.83358 0.56426 0.62617 0.0
C1168 C 0.8039 0.53717 0.62816 0.0
H1169 H 0.85967 0.61412 0.6289 0.0
H1170 H 0.69688 0.49745 0.63953 0.0
H1171 H 0.90737 0.67378 0.70801 0.0
H1172 H 0.67611 0.53371 0.64736 0.0
H1173 H 0.68769 0.58762 0.65373 0.0
H1174 H 0.74238 0.49053 0.6311 0.0
H1175 H 0.81863 0.73343 0.70814 0.0
H1176 H 0.99224 0.76211 0.70209 0.0
H1177 H 0.96566 0.7056 0.70884 0.0
H1178 H 0.95265 0.83304 0.69786 0.0
H1179 H 0.85351 0.563 0.62027 0.0
H1180 H 0.80099 0.51488 0.62381 0.0
H1181 H 0.98708 0.80955 0.69707 0.0
H1182 H 0.84101 0.79035 0.71016 0.0
N1183 N 0.90001 0.71105 0.69906 0.0
C1184 C 0.96639 0.74811 0.70141 0.0
C1185 C 0.95149 0.71627 0.70526 0.0
C1186 C 0.94762 0.76189 0.69821 0.0
C1187 C 0.914 0.74258 0.69758 0.0
C1188 C 0.91813 0.69812 0.70439 0.0
N1189 N 0.86265 0.73657 0.69991 0.0
C1190 C 0.89465 0.7558 0.69805 0.0
C1191 C 0.85633 0.78099 0.70654 0.0
C1192 C 0.88865 0.80109 0.70285 0.0
C1193 C 0.84382 0.74868 0.70542 0.0
C1194 C 0.90844 0.78861 0.69908 0.0
H1195 H 0.89834 0.82612 0.70381 0.0
O1196 O 0.81892 0.68526 0.71998 0.0
O1197 O 0.8021 0.64921 0.6772 0.0
O1198 O 0.80275 0.6795 0.65107 0.0
O1199 O 0.82135 0.70651 0.67917 0.0
O1200 O 0.80088 0.63843 0.70479 0.0
O1201 O 0.85159 0.66698 0.72202 0.0
O1202 O 0.84353 0.66344 0.62356 0.0
O1203 O 0.85506 0.68224 0.66567 0.0
O1204 O 0.8608 0.64767 0.69073 0.0
O1205 O 0.83063 0.6132 0.66663 0.0
O1206 O 0.87062 0.66339 0.6455 0.0
O1207 O 0.79285 0.64646 0.62456 0.0
C1208 C 0.78625 0.62862 0.68936 0.0
C1209 C 0.94172 0.80782 0.69756 0.0
C1210 C 0.96133 0.79445 0.69709 0.0
C1211 C 0.83223 0.67377 0.73086 0.0
C1212 C 0.84282 0.68778 0.74937 0.0
C1213 C 0.86604 0.71936 0.75145 0.0
C1214 C 0.83048 0.66876 0.7652 0.0
C1215 C 0.8416 0.68118 0.78306 0.0
C1216 C 0.87682 0.73186 0.76917 0.0
C1217 C 0.86479 0.71293 0.78487 0.0
C1218 C 0.80759 0.70234 0.66258 0.0
C1219 C 0.87991 0.68465 0.65817 0.0
C1220 C 0.81837 0.65859 0.61426 0.0
C1221 C 0.81525 0.64544 0.59555 0.0
C1222 C 0.80365 0.61339 0.59302 0.0
C1223 C 0.82518 0.66537 0.58005 0.0
C1224 C 0.82412 0.65332 0.56218 0.0
C1225 C 0.80278 0.60143 0.57533 0.0
C1226 C 0.8131 0.62126 0.55999 0.0
C1227 C 0.85004 0.62128 0.68119 0.0
H1228 H 0.87598 0.73421 0.73941 0.0
H1229 H 0.81261 0.64427 0.76365 0.0
H1230 H 0.89473 0.75626 0.77073 0.0
H1231 H 0.87358 0.72302 0.79848 0.0
H1232 H 0.79529 0.5976 0.60466 0.0
H1233 H 0.83382 0.69012 0.58187 0.0
H1234 H 0.79399 0.5767 0.5735 0.0
H1235 H 0.81207 0.61155 0.54634 0.0
Gd1236 Gd 0.31402 0.15794 0.69429 0.0
Gd1237 Gd 0.35874 0.17557 0.64979 0.0
C1238 C 0.42847 0.13776 0.64755 0.0
C1239 C 0.47933 0.18436 0.65394 0.0
C1240 C 0.43071 0.18753 0.65113 0.0
C1241 C 0.41296 0.15562 0.64826 0.0
C1242 C 0.46433 0.2024 0.65307 0.0
C1243 C 0.46138 0.15203 0.65128 0.0
C1244 C 0.41086 0.10647 0.64212 0.0
C1245 C 0.37949 0.09452 0.636 0.0
N1246 N 0.38117 0.14256 0.64452 0.0
C1247 C 0.36537 0.11327 0.63665 0.0
H1248 H 0.34186 0.10383 0.63057 0.0
C1249 C 0.43333 0.23618 0.64796 0.0
N1250 N 0.41559 0.20437 0.65021 0.0
C1251 C 0.46655 0.25198 0.65 0.0
C1252 C 0.48208 0.23505 0.65315 0.0
H1253 H 0.42192 0.24977 0.64507 0.0
H1254 H 0.47346 0.13852 0.65119 0.0
H1255 H 0.31744 0.2285 0.69602 0.0
H1256 H 0.42183 0.09198 0.64147 0.0
H1257 H 0.36625 0.07097 0.63053 0.0
H1258 H 0.50499 0.19533 0.65587 0.0
H1259 H 0.26764 0.08381 0.70824 0.0
H1260 H 0.22269 0.21329 0.69215 0.0
H1261 H 0.28098 0.24914 0.6948 0.0
H1262 H 0.15723 0.10207 0.69513 0.0
H1263 H 0.48015 0.2772 0.649 0.0
H1264 H 0.50788 0.24731 0.65459 0.0
H1265 H 0.17671 0.15826 0.69151 0.0
H1266 H 0.21003 0.04425 0.70976 0.0
N1267 N 0.2807 0.1805 0.69402 0.0
C1268 C 0.23868 0.20385 0.69282 0.0
C1269 C 0.27152 0.22414 0.69436 0.0
C1270 C 0.22681 0.17161 0.69282 0.0
C1271 C 0.24868 0.16053 0.69377 0.0
C1272 C 0.29226 0.21207 0.695 0.0
N1273 N 0.25958 0.11968 0.69809 0.0
C1274 C 0.23776 0.12904 0.69571 0.0
C1275 C 0.21747 0.06791 0.70551 0.0
C1276 C 0.19466 0.07648 0.70122 0.0
C1277 C 0.25 0.0902 0.70448 0.0
C1278 C 0.20467 0.10762 0.69688 0.0
H1279 H 0.16946 0.05929 0.70221 0.0
O1280 O 0.32169 0.14023 0.72019 0.0
O1281 O 0.35807 0.1647 0.67962 0.0
O1282 O 0.32061 0.1241 0.6505 0.0
O1283 O 0.28654 0.11577 0.67557 0.0
O1284 O 0.33663 0.12763 0.69769 0.0
O1285 O 0.3213 0.18365 0.7201 0.0
O1286 O 0.36656 0.21381 0.63167 0.0
O1287 O 0.32154 0.17974 0.66646 0.0
O1288 O 0.35182 0.20877 0.69484 0.0
O1289 O 0.38221 0.21906 0.66798 0.0
O1290 O 0.31149 0.16755 0.63896 0.0
O1291 O 0.35882 0.1693 0.6199 0.0
C1292 C 0.36069 0.1427 0.68679 0.0
C1293 C 0.18275 0.11823 0.69459 0.0
C1294 C 0.19383 0.15022 0.69257 0.0
C1295 C 0.32316 0.16282 0.73017 0.0
C1296 C 0.30477 0.15355 0.74742 0.0
C1297 C 0.27127 0.13574 0.74717 0.0
C1298 C 0.32116 0.16162 0.76443 0.0
C1299 C 0.30419 0.15124 0.78114 0.0
C1300 C 0.25434 0.12527 0.76377 0.0
C1301 C 0.27069 0.13277 0.7807 0.0
C1302 C 0.29444 0.10641 0.66024 0.0
C1303 C 0.30054 0.17283 0.65386 0.0
C1304 C 0.36357 0.19735 0.61683 0.0
C1305 C 0.36636 0.20985 0.59799 0.0
C1306 C 0.38069 0.24224 0.59537 0.0
C1307 C 0.35325 0.18958 0.58266 0.0
C1308 C 0.3541 0.20176 0.56493 0.0
C1309 C 0.38198 0.25431 0.57769 0.0
C1310 C 0.36871 0.2342 0.56254 0.0
C1311 C 0.37605 0.22751 0.6842 0.0
H1312 H 0.25821 0.12986 0.73423 0.0
H1313 H 0.34706 0.17569 0.7647 0.0
H1314 H 0.2285 0.11131 0.7635 0.0
H1315 H 0.25727 0.12454 0.79349 0.0
H1316 H 0.39081 0.25825 0.60699 0.0
H1317 H 0.34179 0.16449 0.58451 0.0
H1318 H 0.39308 0.2793 0.57576 0.0
H1319 H 0.36966 0.24392 0.54892 0.0
Gd1320 Gd 0.82562 0.17312 0.65351 0.0
Gd1321 Gd 0.84659 0.1506 0.69708 0.0
C1322 C 0.94859 0.18923 0.71888 0.0
C1323 C 0.94628 0.14254 0.7314 0.0
C1324 C 0.90026 0.13911 0.71526 0.0
C1325 C 0.91653 0.17115 0.71283 0.0
C1326 C 0.91518 0.12437 0.72427 0.0
C1327 C 0.96299 0.17491 0.72868 0.0
C1328 C 0.96579 0.22081 0.71406 0.0
C1329 C 0.9515 0.23326 0.70276 0.0
N1330 N 0.90229 0.18391 0.70259 0.0
C1331 C 0.9198 0.2144 0.69698 0.0
H1332 H 0.90964 0.22479 0.68814 0.0
C1333 C 0.85468 0.09025 0.70851 0.0
N1334 N 0.87088 0.12216 0.7074 0.0
C1335 C 0.8684 0.07461 0.71738 0.0
C1336 C 0.89872 0.09174 0.72539 0.0
H1337 H 0.83066 0.07678 0.70304 0.0
H1338 H 0.98743 0.18851 0.73362 0.0
H1339 H 0.75501 0.10743 0.64685 0.0
H1340 H 0.99046 0.23544 0.71838 0.0
H1341 H 0.96487 0.25746 0.69847 0.0
H1342 H 0.95801 0.13167 0.73852 0.0
H1343 H 0.86433 0.24954 0.64273 0.0
H1344 H 0.68077 0.13056 0.64831 0.0
H1345 H 0.69785 0.09116 0.64547 0.0
H1346 H 0.73849 0.24229 0.64715 0.0
H1347 H 0.85538 0.04937 0.71825 0.0
H1348 H 0.90934 0.07957 0.73222 0.0
H1349 H 0.69623 0.18718 0.64941 0.0
H1350 H 0.85222 0.29239 0.63916 0.0
N1351 N 0.77042 0.15548 0.65145 0.0
C1352 C 0.70598 0.13785 0.64905 0.0
C1353 C 0.71552 0.11557 0.64738 0.0
C1354 C 0.72922 0.16947 0.65042 0.0
C1355 C 0.76173 0.17768 0.65128 0.0
C1356 C 0.74804 0.1249 0.64837 0.0
N1357 N 0.81631 0.21532 0.64911 0.0
C1358 C 0.78543 0.20862 0.64991 0.0
C1359 C 0.83324 0.26898 0.64229 0.0
C1360 C 0.80187 0.26284 0.64439 0.0
C1361 C 0.83998 0.2447 0.64424 0.0
C1362 C 0.77737 0.23224 0.64779 0.0
H1363 H 0.79666 0.28165 0.64275 0.0
O1364 O 0.84875 0.19368 0.62741 0.0
O1365 O 0.86095 0.1621 0.66704 0.0
O1366 O 0.85645 0.19997 0.70035 0.0
O1367 O 0.83888 0.21318 0.67366 0.0
O1368 O 0.87924 0.20226 0.65179 0.0
O1369 O 0.80762 0.14689 0.62764 0.0
O1370 O 0.81763 0.11794 0.71777 0.0
O1371 O 0.80998 0.1581 0.68241 0.0
O1372 O 0.80934 0.12064 0.6538 0.0
O1373 O 0.83948 0.11317 0.6766 0.0
O1374 O 0.79368 0.11651 0.69618 0.0
O1375 O 0.84564 0.16753 0.72553 0.0
C1376 C 0.88686 0.18398 0.66038 0.0
C1377 C 0.74513 0.22441 0.64843 0.0
C1378 C 0.72107 0.19304 0.64977 0.0
C1379 C 0.82873 0.16967 0.61754 0.0
C1380 C 0.81841 0.17618 0.59979 0.0
C1381 C 0.80197 0.19284 0.59899 0.0
C1382 C 0.82727 0.16735 0.58329 0.0
C1383 C 0.82057 0.17592 0.56598 0.0
C1384 C 0.79486 0.20104 0.58181 0.0
C1385 C 0.80429 0.19286 0.56538 0.0
C1386 C 0.85122 0.21956 0.69062 0.0
C1387 C 0.78481 0.13341 0.68727 0.0
C1388 C 0.82521 0.13896 0.73065 0.0
C1389 C 0.81079 0.12915 0.74926 0.0
C1390 C 0.78771 0.09751 0.75201 0.0
C1391 C 0.81879 0.1504 0.76414 0.0
C1392 C 0.80372 0.13969 0.78148 0.0
C1393 C 0.77296 0.08712 0.76914 0.0
C1394 C 0.7809 0.10805 0.78381 0.0
C1395 C 0.81969 0.10332 0.66221 0.0
H1396 H 0.79503 0.19984 0.61158 0.0
H1397 H 0.84003 0.15447 0.58388 0.0
H1398 H 0.7823 0.21405 0.58121 0.0
H1399 H 0.79886 0.19966 0.55218 0.0
H1400 H 0.78082 0.08057 0.74086 0.0
H1401 H 0.83638 0.17487 0.76232 0.0
H1402 H 0.75527 0.06275 0.77104 0.0
H1403 H 0.7692 0.09957 0.79708 0.0
C1404 C 0.37155 0.93008 0.03647 0.0
C1405 C 0.36229 0.89851 0.03993 0.0
C1406 C 0.41278 0.90652 0.02697 0.0
C1407 C 0.42364 0.93904 0.02546 0.0
N1408 N 0.41405 0.98228 0.02966 0.0
N1409 N 0.37098 0.85482 0.0366 0.0
C1410 C 0.40305 0.95089 0.03024 0.0
C1411 C 0.38194 0.8861 0.03447 0.0
N1412 N 0.3498 0.9399 0.0387 0.0
N1413 N 0.43251 0.89553 0.02164 0.0
H1414 H 0.34901 0.8395 0.04262 0.0
H1415 H 0.3829 0.84334 0.03223 0.0
H1416 H 0.45432 0.90968 0.01525 0.0
H1417 H 0.42768 0.87268 0.02308 0.0
H1418 H 0.35367 0.96162 0.03439 0.0
H1419 H 0.32655 0.92528 0.04341 0.0
H1420 H 0.40221 0.99287 0.03563 0.0
H1421 H 0.43586 -0.00177 0.02389 0.0
C1422 C 0.11232 0.48732 0.02721 0.0
C1423 C 0.10639 0.46739 0.04273 0.0
C1424 C 0.05762 0.46939 0.04884 0.0
C1425 C 0.0599 0.48338 0.03128 0.0
N1426 N 0.10072 0.52507 0.01357 0.0
N1427 N 0.07349 0.44106 0.06941 0.0
C1428 C 0.09044 0.49793 0.0229 0.0
C1429 C 0.07885 0.45855 0.05374 0.0
N1430 N 0.13848 0.4957 0.01633 0.0
N1431 N 0.03987 0.47278 0.0623 0.0
H1432 H 0.09009 0.43575 0.07507 0.0
H1433 H 0.05169 0.4307 0.07639 0.0
H1434 H 0.03332 0.48968 0.06067 0.0
H1435 H 0.03826 0.46511 0.07593 0.0
H1436 H 0.1429 0.50882 1.00427 0.0
H1437 H 0.15439 0.48753 0.01859 0.0
H1438 H 0.12429 0.5391 0.00923 0.0
H1439 H 0.08664 0.53535 0.01264 0.0
C1440 C 0.56791 0.63458 0.04437 0.0
C1441 C 0.55504 0.65272 0.03751 0.0
C1442 C 0.5115 0.60594 0.0225 0.0
C1443 C 0.52579 0.5883 0.02867 0.0
N1444 N 0.55227 0.58366 0.05573 0.0
N1445 N 0.51615 0.65688 0.01847 0.0
C1446 C 0.55022 0.6019 0.04231 0.0
C1447 C 0.52736 0.6388 0.02599 0.0
N1448 N 0.59672 0.64845 0.05337 0.0
N1449 N 0.48073 0.5908 0.01608 0.0
H1450 H 0.52604 0.68058 0.02149 0.0
H1451 H 0.49869 0.649 0.00812 0.0
H1452 H 0.46626 0.56664 0.01665 0.0
H1453 H 0.46781 0.60193 0.013 0.0
H1454 H 0.60796 0.63602 0.05742 0.0
H1455 H 0.61062 0.67264 0.05504 0.0
H1456 H 0.56868 0.59246 0.06667 0.0
H1457 H 0.53286 0.56153 0.05809 0.0
C1458 C 0.92311 0.36055 0.97182 0.0
C1459 C 0.8902 0.35045 0.97299 0.0
C1460 C 0.90274 0.4018 0.98517 0.0
C1461 C 0.93622 0.4125 0.98354 0.0
N1462 N 0.97569 0.40398 0.96733 0.0
N1463 N 0.8478 0.3589 0.98332 0.0
C1464 C 0.94589 0.3925 0.97475 0.0
C1465 C 0.87976 0.37033 0.98045 0.0
N1466 N 0.93271 0.33933 0.96806 0.0
N1467 N 0.89278 0.42261 0.98926 0.0
H1468 H 0.83026 0.33661 0.97913 0.0
H1469 H 0.83863 0.37039 0.99109 0.0
H1470 H 0.90838 0.44626 0.99147 0.0
H1471 H 0.86913 0.41751 0.9886 0.0
H1472 H 0.95639 0.34451 0.96929 0.0
H1473 H 0.91661 0.31565 0.96578 0.0
H1474 H 0.9826 0.39036 0.95976 0.0
H1475 H 0.99169 0.42745 0.96542 0.0
C1476 C 0.62349 0.51428 0.98218 0.0
C1477 C 0.64604 0.54507 0.97677 0.0
C1478 C 0.61027 0.56328 0.98829 0.0
C1479 C 0.58535 0.53175 0.99074 0.0
N1480 N 0.5684 0.4767 0.98786 0.0
N1481 N 0.661 0.59921 0.97391 0.0
C1482 C 0.5921 0.5071 0.98736 0.0
C1483 C 0.63952 0.56971 0.97971 0.0
N1484 N 0.63195 0.49166 0.98229 0.0
N1485 N 0.6063 0.58718 0.99473 0.0
H1486 H 0.68333 0.60512 0.96846 0.0
H1487 H 0.65594 0.61737 0.97344 0.0
H1488 H 0.58571 0.58345 1.00165 0.0
H1489 H 0.62456 0.61041 0.99507 0.0
H1490 H 0.61803 0.46985 0.98839 0.0
H1491 H 0.65416 0.49555 0.9778 0.0
H1492 H 0.5709 0.45817 0.98299 0.0
H1493 H 0.54554 0.47004 0.99201 0.0
C1494 C 0.48143 0.11218 0.97894 0.0
C1495 C 0.44859 0.10211 0.97632 0.0
C1496 C 0.43454 0.04871 0.98336 0.0
C1497 C 0.46691 0.05868 0.98834 0.0
N1498 N 0.52154 0.10138 0.99119 0.0
N1499 N 0.39352 0.06299 0.98084 0.0
C1500 C 0.49041 0.09099 0.98647 0.0
C1501 C 0.42508 0.07118 0.98041 0.0
N1502 N 0.50402 0.14153 0.97345 0.0
N1503 N 0.41336 0.01822 0.97944 0.0
H1504 H 0.38578 0.07899 0.97843 0.0
H1505 H 0.37562 0.04126 0.98549 0.0
H1506 H 0.42087 0.00253 0.97638 0.0
H1507 H 0.3899 0.01023 0.97512 0.0
H1508 H 0.52837 0.14916 0.97271 0.0
H1509 H 0.49827 0.15789 0.96838 0.0
H1510 H 0.53896 0.12488 0.99198 0.0
H1511 H 0.5299 0.08663 0.99531 0.0
C1512 C 0.63936 0.07214 0.98763 0.0
C1513 C 0.64064 0.09662 0.97682 0.0
C1514 C 0.58259 0.07328 0.97855 0.0
C1515 C 0.58078 0.04855 0.98957 0.0
N1516 N 0.60685 0.02218 1.00264 0.0
N1517 N 0.61547 0.12536 0.96629 0.0
C1518 C 0.60915 0.04759 0.99373 0.0
C1519 C 0.61289 0.09878 0.97377 0.0
N1520 N 0.6672 0.07288 0.99239 0.0
N1521 N 0.55565 0.07075 0.9706 0.0
H1522 H 0.6373 0.14437 0.9623 0.0
H1523 H 0.59643 0.12968 0.96576 0.0
H1524 H 0.53275 0.05226 0.97305 0.0
H1525 H 0.55616 0.08589 0.96038 0.0
H1526 H 0.66867 0.05777 1.00186 0.0
H1527 H 0.68958 0.09022 0.98779 0.0
H1528 H 0.62545 0.01741 1.00395 0.0
H1529 H 0.58561 0.00516 0.00854 0.0
C1530 C 0.92984 0.56785 0.98153 0.0
C1531 C 0.90362 0.54291 0.97215 0.0
C1532 C 0.92925 0.51095 0.97479 0.0
C1533 C 0.95453 0.53472 0.98553 0.0
N1534 N 0.98222 0.58841 0.99582 0.0
N1535 N 0.87502 0.48864 0.96328 0.0
C1536 C 0.95573 0.56398 0.98791 0.0
C1537 C 0.90226 0.51381 0.96996 0.0
N1538 N 0.92928 0.59483 0.98496 0.0
N1539 N 0.93271 0.48761 0.96701 0.0
H1540 H 0.85492 0.48991 0.95924 0.0
H1541 H 0.87142 0.466 0.9634 0.0
H1542 H 0.95313 0.48588 0.96866 0.0
H1543 H 0.91677 0.47187 0.95726 0.0
H1544 H 0.94559 0.61283 0.99346 0.0
H1545 H 0.91103 0.59856 0.98021 0.0
H1546 H 0.98712 0.61143 0.99581 0.0
H1547 H 0.99999 0.58567 1.00223 0.0
C1548 C 0.43825 0.35046 0.98903 0.0
C1549 C 0.45251 0.34921 0.97211 0.0
C1550 C 0.48503 0.40623 0.97178 0.0
C1551 C 0.47275 0.40743 0.98951 0.0
N1552 N 0.44181 0.38022 0.01649 0.0
N1553 N 0.49446 0.375 0.94951 0.0
C1554 C 0.45076 0.37938 0.99864 0.0
C1555 C 0.47731 0.37685 0.96406 0.0
N1556 N 0.41186 0.3243 0.99551 0.0
N1557 N 0.50378 0.43308 0.96212 0.0
H1558 H 0.48982 0.35386 0.94357 0.0
H1559 H 0.51518 0.39415 0.94446 0.0
H1560 H 0.51131 0.4553 0.96741 0.0
H1561 H 0.50998 0.43327 0.94826 0.0
H1562 H 0.3983 0.32454 0.00666 0.0
H1563 H 0.40172 0.30276 0.9887 0.0
H1564 H 0.42897 0.36034 0.0246 0.0
H1565 H 0.44911 0.401 0.02364 0.0
C1566 C 0.10722 0.62323 0.05039 0.0
C1567 C 0.10998 0.65131 0.0434 0.0
C1568 C 0.07441 0.62244 0.01748 0.0
C1569 C 0.06824 0.59395 0.02579 0.0
N1570 N 0.07761 0.56661 0.05063 0.0
N1571 N 0.09247 0.67735 0.02206 0.0
C1572 C 0.08423 0.59417 0.04245 0.0
C1573 C 0.09257 0.65085 0.02741 0.0
N1574 N 0.12755 0.62449 0.06408 0.0
N1575 N 0.06372 0.6226 0.99994 0.0
H1576 H 0.10531 0.69863 0.02905 0.0
H1577 H 0.07739 0.67756 0.01175 0.0
H1578 H 0.05062 0.60235 0.99213 0.0
H1579 H 0.07039 0.64298 0.99247 0.0
H1580 H 0.12923 0.60523 0.06834 0.0
H1581 H 0.14483 0.64537 0.07015 0.0
H1582 H 0.08541 0.56517 0.06389 0.0
H1583 H 0.06282 0.54482 0.04459 0.0
C1584 C 0.3886 0.48947 0.03741 0.0
C1585 C 0.36157 0.45912 0.03816 0.0
C1586 C 0.39349 0.43752 0.02527 0.0
C1587 C 0.42149 0.46751 0.02663 0.0
N1588 N 0.4458 0.51878 0.04074 0.0
N1589 N 0.33798 0.40355 0.03397 0.0
C1590 C 0.41917 0.49289 0.03421 0.0
C1591 C 0.3639 0.43291 0.03233 0.0
N1592 N 0.38535 0.51503 0.04044 0.0
N1593 N 0.39514 0.41357 0.01685 0.0
H1594 H 0.31552 0.39948 0.03811 0.0
H1595 H 0.33902 0.38316 0.03222 0.0
H1596 H 0.41616 0.41657 0.01101 0.0
H1597 H 0.37531 0.39192 0.01382 0.0
H1598 H 0.40396 0.5378 0.03828 0.0
H1599 H 0.36337 0.51333 0.04338 0.0
H1600 H 0.445 0.53679 0.04782 0.0
H1601 H 0.46793 0.52009 0.04162 0.0
C1602 C 0.57318 0.9189 0.02048 0.0
C1603 C 0.55862 0.89887 0.03577 0.0
C1604 C 0.51877 0.91544 0.03771 0.0
C1605 C 0.53207 0.93436 0.02167 0.0
N1606 N 0.56804 0.94863 0.99556 0.0
N1607 N 0.51317 0.87194 0.05599 0.0
C1608 C 0.55796 0.93425 0.01231 0.0
C1609 C 0.5301 0.89532 0.04352 0.0
N1610 N 0.60228 0.92438 0.01428 0.0
N1611 N 0.49562 0.9169 0.04771 0.0
H1612 H 0.52055 0.85648 0.06052 0.0
H1613 H 0.49029 0.8659 0.06048 0.0
H1614 H 0.48493 0.92943 0.04336 0.0
H1615 H 0.48836 0.90714 0.06085 0.0
H1616 H 0.61591 0.94161 1.00463 0.0
H1617 H 0.61415 0.9135 0.01992 0.0
H1618 H 0.58392 0.94596 0.98703 0.0
H1619 H 0.55889 0.9616 0.98962 0.0
C1620 C 0.04182 0.22078 0.3656 0.0
C1621 C 0.02219 0.23349 0.37044 0.0
C1622 C 0.0637 0.28547 0.36042 0.0
C1623 C 0.08453 0.2734 0.3568 0.0
N1624 N 0.09417 0.23001 0.35674 0.0
N1625 N 0.01025 0.2751 0.36804 0.0
C1626 C 0.07352 0.24101 0.35929 0.0
C1627 C 0.03187 0.265 0.36643 0.0
N1628 N 0.02995 0.18925 0.36692 0.0
N1629 N 0.07506 0.31689 0.35931 0.0
H1630 H 0.98684 0.26068 0.37257 0.0
H1631 H 0.0144 0.29675 0.36341 0.0
H1632 H 0.0977 0.33253 0.35434 0.0
H1633 H 0.06285 0.32786 0.36417 0.0
H1634 H 0.04124 0.17775 0.36149 0.0
H1635 H 0.00747 0.17391 0.37236 0.0
H1636 H 0.08962 0.20791 0.36065 0.0
H1637 H 0.11677 0.24368 0.35117 0.0
C1638 C 0.74158 0.77376 0.36907 0.0
C1639 C 0.77386 0.79725 0.37197 0.0
C1640 C 0.76156 0.83745 0.36172 0.0
C1641 C 0.72886 0.81416 0.35928 0.0
N1642 N 0.68674 0.76065 0.36312 0.0
N1643 N 0.81632 0.85029 0.36773 0.0
C1644 C 0.71865 0.78237 0.36353 0.0
C1645 C 0.78436 0.82873 0.36723 0.0
N1646 N 0.73316 0.74305 0.37101 0.0
N1647 N 0.77054 0.86824 0.35981 0.0
H1648 H 0.83362 0.84527 0.37258 0.0
H1649 H 0.82614 0.87255 0.36205 0.0
H1650 H 0.755 0.87548 0.35507 0.0
H1651 H 0.79272 0.88671 0.3638 0.0
H1652 H 0.71099 0.72442 0.36715 0.0
H1653 H 0.74938 0.73603 0.37507 0.0
H1654 H 0.67713 0.73811 0.36832 0.0
H1655 H 0.66931 0.76556 0.35836 0.0
C1656 C 0.19627 0.95939 0.37982 0.0
C1657 C 0.22342 0.98568 0.37225 0.0
C1658 C 0.22685 0.95254 0.34798 0.0
C1659 C 0.20204 0.92584 0.3569 0.0
N1660 N 0.16595 0.90328 0.38286 0.0
N1661 N 0.26679 0.00761 0.35032 0.0
C1662 C 0.18754 0.9291 0.37326 0.0
C1663 C 0.23923 0.98242 0.35654 0.0
N1664 N 0.17812 0.96347 0.39288 0.0
N1665 N 0.23871 0.94931 0.33143 0.0
H1666 H 0.27645 0.0298 0.35624 0.0
H1667 H 0.2814 0.00619 0.34021 0.0
H1668 H 0.23141 0.92766 0.32528 0.0
H1669 H 0.25418 0.96808 0.32317 0.0
H1670 H 0.15601 0.94555 0.39735 0.0
H1671 H 0.18359 0.98536 0.39802 0.0
H1672 H 0.15776 0.90432 0.39606 0.0
H1673 H 0.15793 0.88053 0.37834 0.0
C1674 C 0.59519 0.68888 0.30439 0.0
C1675 C 0.5621 0.67737 0.30664 0.0
C1676 C 0.57366 0.72814 0.31935 0.0
C1677 C 0.60721 0.74006 0.317 0.0
N1678 N 0.64622 0.73403 0.29861 0.0
N1679 N 0.51937 0.68416 0.31848 0.0
C1680 C 0.6172 0.72116 0.30721 0.0
C1681 C 0.55122 0.69644 0.3148 0.0
N1682 N 0.60573 0.66874 0.29966 0.0
N1683 N 0.56287 0.74815 0.32369 0.0
H1684 H 0.50191 0.66188 0.31424 0.0
H1685 H 0.51035 0.69508 0.32691 0.0
H1686 H 0.57808 0.77171 0.3262 0.0
H1687 H 0.53902 0.74243 0.32287 0.0
H1688 H 0.62981 0.67503 0.29994 0.0
H1689 H 0.59023 0.6449 0.29749 0.0
H1690 H 0.65328 0.72117 0.2904 0.0
H1691 H 0.66087 0.75777 0.29648 0.0
C1692 C 0.2907 0.8745 0.29225 0.0
C1693 C 0.30978 0.86661 0.30347 0.0
C1694 C 0.26363 0.83776 0.32428 0.0
C1695 C 0.2474 0.85139 0.31533 0.0
N1696 N 0.23671 0.85852 0.28385 0.0
N1697 N 0.31427 0.84012 0.33045 0.0
C1698 C 0.25856 0.86367 0.29734 0.0
C1699 C 0.2961 0.84779 0.3195 0.0
N1700 N 0.30248 0.89108 0.27622 0.0
N1701 N 0.24687 0.81204 0.33494 0.0
H1702 H 0.33823 0.8476 0.32767 0.0
H1703 H 0.3062 0.82834 0.34301 0.0
H1704 H 0.22249 0.80243 0.33681 0.0
H1705 H 0.25626 0.79847 0.33991 0.0
H1706 H 0.29067 0.90065 0.26899 0.0
H1707 H 0.32446 0.89646 0.27052 0.0
H1708 H 0.24236 0.86482 0.26998 0.0
H1709 H 0.21309 0.84153 0.286 0.0
C1710 C 0.14364 0.44474 0.31569 0.0
C1711 C 0.11244 0.43313 0.30837 0.0
C1712 C 0.10154 0.37961 0.31128 0.0
C1713 C 0.13206 0.39035 0.31985 0.0
N1714 N 0.18494 0.43393 0.32599 0.0
N1715 N 0.05878 0.39036 0.30482 0.0
C1716 C 0.15372 0.42326 0.32128 0.0
C1717 C 0.09045 0.40083 0.30819 0.0
N1718 N 0.16345 0.47632 0.31747 0.0
N1719 N 0.08444 0.35028 0.30393 0.0
H1720 H 0.0499 0.40545 0.30238 0.0
H1721 H 0.04103 0.36711 0.30655 0.0
H1722 H 0.09453 0.33664 0.30089 0.0
H1723 H 0.0627 0.34212 0.29701 0.0
H1724 H 0.18494 0.48665 0.3248 0.0
H1725 H 0.15746 0.4926 0.31262 0.0
H1726 H 0.20302 0.45715 0.32528 0.0
H1727 H 0.1938 0.41921 0.32919 0.0
C1728 C 0.27894 0.42925 0.30915 0.0
C1729 C 0.3063 0.42601 0.3108 0.0
C1730 C 0.27431 0.37524 0.32595 0.0
C1731 C 0.24622 0.37735 0.32302 0.0
N1732 N 0.22173 0.40239 0.30613 0.0
N1733 N 0.33218 0.39929 0.32339 0.0
C1734 C 0.24846 0.40354 0.31341 0.0
C1735 C 0.30459 0.3999 0.31996 0.0
N1736 N 0.28201 0.45695 0.30335 0.0
N1737 N 0.27163 0.34887 0.33377 0.0
H1738 H 0.35458 0.41692 0.31901 0.0
H1739 H 0.33354 0.38264 0.33153 0.0
H1740 H 0.25067 0.33219 0.3401 0.0
H1741 H 0.28975 0.3433 0.3341 0.0
H1742 H 0.26333 0.46178 0.30394 0.0
H1743 H 0.30397 0.47614 0.2997 0.0
H1744 H 0.22252 0.41911 0.29701 0.0
H1745 H 0.19884 0.38338 0.3076 0.0
C1746 C 0.57033 0.84878 0.30615 0.0
C1747 C 0.57565 0.8796 0.30532 0.0
C1748 C 0.6281 0.89876 0.32021 0.0
C1749 C 0.6244 0.86831 0.31902 0.0
N1750 N 0.59487 0.81694 0.30501 0.0
N1751 N 0.6106 0.93477 0.31005 0.0
C1752 C 0.59615 0.84387 0.31062 0.0
C1753 C 0.60487 0.90487 0.31193 0.0
N1754 N 0.54066 0.82399 0.30243 0.0
N1755 N 0.65333 0.9216 0.32989 0.0
H1756 H 0.59357 0.93994 0.30488 0.0
H1757 H 0.63281 0.95449 0.31249 0.0
H1758 H 0.66925 0.91714 0.33716 0.0
H1759 H 0.65622 0.94354 0.33271 0.0
H1760 H 0.53477 0.80092 0.30487 0.0
H1761 H 0.52127 0.82658 0.29856 0.0
H1762 H 0.57661 0.80038 0.29661 0.0
H1763 H 0.61323 0.81223 0.30726 0.0
C1764 C 0.15223 0.71119 0.29822 0.0
C1765 C 0.12508 0.68371 0.3048 0.0
C1766 C 0.12109 0.71299 0.33115 0.0
C1767 C 0.14509 0.74119 0.32311 0.0
N1768 N 0.18338 0.76772 0.29866 0.0
N1769 N 0.08077 0.65889 0.32603 0.0
C1770 C 0.16062 0.74044 0.30652 0.0
C1771 C 0.10878 0.68468 0.32092 0.0
N1772 N 0.17071 0.70914 0.28454 0.0
N1773 N 0.11039 0.71306 0.34865 0.0
H1774 H 0.07073 0.63778 0.31877 0.0
H1775 H 0.066 0.65923 0.33644 0.0
H1776 H 0.11881 0.73336 0.35649 0.0
H1777 H 0.0954 0.69277 0.35597 0.0
H1778 H 0.19273 0.72776 0.28055 0.0
H1779 H 0.16543 0.68809 0.2782 0.0
H1780 H 0.19247 0.76906 0.28538 0.0
H1781 H 0.19218 0.78945 0.30504 0.0
C1782 C 0.77037 0.95686 0.38347 0.0
C1783 C 0.7743 0.98436 0.37498 0.0
C1784 C 0.74055 0.95303 0.34892 0.0
C1785 C 0.73289 0.92506 0.35865 0.0
N1786 N 0.73791 0.90115 0.38687 0.0
N1787 N 0.75918 0.00852 0.35102 0.0
C1788 C 0.74694 0.92724 0.37645 0.0
C1789 C 0.75839 0.98245 0.35804 0.0
N1790 N 0.79002 0.95896 0.39781 0.0
N1791 N 0.73111 0.95179 0.33093 0.0
H1792 H 0.77169 0.0304 0.35739 0.0
H1793 H 0.74508 0.00791 0.33987 0.0
H1794 H 0.71681 0.93094 0.32397 0.0
H1795 H 0.73936 0.97145 0.32251 0.0
H1796 H 0.79081 0.93975 0.40311 0.0
H1797 H 0.80789 0.98022 0.40317 0.0
H1798 H 0.74429 0.90186 0.40078 0.0
H1799 H 0.72215 0.87885 0.38214 0.0
C1800 C 0.03133 0.7653 0.3648 0.0
C1801 C 0.02816 0.78997 0.37248 0.0
C1802 C 0.08285 0.82755 0.36283 0.0
C1803 C 0.08803 0.80251 0.35769 0.0
N1804 N 0.06627 0.74705 0.35352 0.0
N1805 N 0.05166 0.84428 0.3808 0.0
C1806 C 0.0619 0.77124 0.35869 0.0
C1807 C 0.05404 0.82102 0.37192 0.0
N1808 N 0.00486 0.73635 0.36283 0.0
N1809 N 0.10476 0.8576 0.35863 0.0
H1810 H 0.03084 0.84067 0.38736 0.0
H1811 H 0.07109 0.86658 0.38304 0.0
H1812 H 0.12543 0.86345 0.35148 0.0
H1813 H 0.10062 0.87627 0.36008 0.0
H1814 H 0.00471 0.71812 0.35548 0.0
H1815 H 0.98217 0.73121 0.36725 0.0
H1816 H 0.05023 0.72372 0.35649 0.0
H1817 H 0.08637 0.75066 0.3462 0.0
C1818 C 0.18823 0.22877 0.38243 0.0
C1819 C 0.21447 0.22751 0.37467 0.0
C1820 C 0.21648 0.26097 0.34905 0.0
C1821 C 0.1928 0.26541 0.35798 0.0
N1822 N 0.15861 0.25606 0.38453 0.0
N1823 N 0.25677 0.24562 0.35211 0.0
C1824 C 0.17943 0.25006 0.37508 0.0
C1825 C 0.22938 0.24434 0.35832 0.0
N1826 N 0.17089 0.20875 0.39641 0.0
N1827 N 0.22672 0.27254 0.33169 0.0
H1828 H 0.26708 0.23391 0.35861 0.0
H1829 H 0.27083 0.2604 0.34152 0.0
H1830 H 0.21958 0.28664 0.32502 0.0
H1831 H 0.24066 0.26662 0.32349 0.0
H1832 H 0.14927 0.206 0.40116 0.0
H1833 H 0.17649 0.19269 0.40215 0.0
H1834 H 0.15149 0.24894 0.39814 0.0
H1835 H 0.14999 0.26991 0.3792 0.0
C1836 C 0.70785 0.55422 0.69829 0.0
C1837 C 0.68856 0.56718 0.70341 0.0
C1838 C 0.73083 0.6194 0.69451 0.0
C1839 C 0.75118 0.60699 0.69033 0.0
N1840 N 0.75973 0.563 0.68854 0.0
N1841 N 0.67743 0.6094 0.70172 0.0
C1842 C 0.73961 0.57436 0.69201 0.0
C1843 C 0.69875 0.59896 0.7 0.0
N1844 N 0.69558 0.52259 0.69932 0.0
N1845 N 0.74282 0.65098 0.69448 0.0
H1846 H 0.65379 0.59497 0.70588 0.0
H1847 H 0.6821 0.6314 0.69744 0.0
H1848 H 0.76589 0.66681 0.69025 0.0
H1849 H 0.73071 0.66179 0.69975 0.0
H1850 H 0.70668 0.51091 0.69391 0.0
H1851 H 0.673 0.50734 0.70466 0.0
H1852 H 0.75478 0.54046 0.69157 0.0
H1853 H 0.78227 0.57671 0.68287 0.0
C1854 C 0.44533 0.15855 0.6994 0.0
C1855 C 0.43813 0.12746 0.70255 0.0
C1856 C 0.38505 0.10832 0.68863 0.0
C1857 C 0.3899 0.13917 0.68856 0.0
N1858 N 0.4258 0.19424 0.69445 0.0
N1859 N 0.40096 0.07221 0.70067 0.0
C1860 C 0.4205 0.1645 0.69389 0.0
C1861 C 0.40799 0.10216 0.69718 0.0
N1862 N 0.47611 0.18251 0.7015 0.0
N1863 N 0.35882 0.08501 0.67989 0.0
H1864 H 0.41761 0.06678 0.70618 0.0
H1865 H 0.37812 0.0529 0.6992 0.0
H1866 H 0.34303 0.08948 0.67243 0.0
H1867 H 0.35493 0.06247 0.678 0.0
H1868 H 0.48384 0.2053 0.6972 0.0
H1869 H 0.49472 0.17913 0.70599 0.0
H1870 H 0.44556 0.21279 0.70085 0.0
H1871 H 0.41004 0.20032 0.68882 0.0
C1872 C 0.90088 0.30047 0.71201 0.0
C1873 C 0.88183 0.31402 0.70809 0.0
C1874 C 0.84006 0.26418 0.69508 0.0
C1875 C 0.85938 0.25053 0.69915 0.0
N1876 N 0.89986 0.25334 0.72067 0.0
N1877 N 0.83469 0.3106 0.69429 0.0
C1878 C 0.88758 0.26784 0.71013 0.0
C1879 C 0.85177 0.2964 0.69914 0.0
N1880 N 0.93196 0.31889 0.71755 0.0
N1881 N 0.80916 0.24546 0.68937 0.0
H1882 H 0.84177 0.33361 0.69788 0.0
H1883 H 0.81468 0.30049 0.68566 0.0
H1884 H 0.79885 0.22139 0.68789 0.0
H1885 H 0.79249 0.25283 0.68799 0.0
H1886 H 0.94794 0.31055 0.71867 0.0
H1887 H 0.94265 0.3431 0.71901 0.0
H1888 H 0.91927 0.26539 0.72963 0.0
H1889 H 0.88777 0.22959 0.72344 0.0
C1890 C 0.24638 0.01689 0.65547 0.0
C1891 C 0.22754 0.01338 0.63954 0.0
C1892 C 0.2548 0.07018 0.63601 0.0
C1893 C 0.27166 0.0742 0.65303 0.0
N1894 N 0.27931 0.05044 0.68046 0.0
N1895 N 0.20793 0.03665 0.61759 0.0
C1896 C 0.26603 0.04725 0.66327 0.0
C1897 C 0.23 0.04002 0.63071 0.0
N1898 N 0.24646 0.99139 0.66275 0.0
N1899 N 0.26268 0.09485 0.62452 0.0
H1900 H 0.1891 0.01495 0.61344 0.0
H1901 H 0.2063 0.05542 0.61227 0.0
H1902 H 0.28056 0.1173 0.62754 0.0
H1903 H 0.25358 0.09246 0.6111 0.0
H1904 H 0.26241 0.99288 0.67302 0.0
H1905 H 0.23235 0.96887 0.65743 0.0
H1906 H 0.27307 0.03176 0.68942 0.0
H1907 H 0.29489 0.07203 0.68636 0.0
C1908 C 0.94936 0.19441 0.62495 0.0
C1909 C 0.97469 0.19891 0.63704 0.0
C1910 C 0.93595 0.17672 0.66235 0.0
C1911 C 0.91343 0.18016 0.65183 0.0
N1912 N 0.89208 0.17022 0.62117 0.0
N1913 N 0.99168 0.19496 0.66815 0.0
C1914 C 0.91826 0.18326 0.6324 0.0
C1915 C 0.96789 0.19016 0.65601 0.0
N1916 N 0.95465 0.20009 0.60635 0.0
N1917 N 0.92538 0.15483 0.67582 0.0
H1918 H 0.0157 0.20573 0.66434 0.0
H1919 H 0.98744 0.19054 0.68234 0.0
H1920 H 0.9009 0.14023 0.67759 0.0
H1921 H 0.94025 0.14826 0.68259 0.0
H1922 H 0.93831 0.20133 0.59742 0.0
H1923 H 0.97581 0.2046 0.59987 0.0
H1924 H 0.89277 0.16912 0.60676 0.0
H1925 H 0.86973 0.15561 0.62693 0.0
C1926 C 0.81323 0.77968 0.64775 0.0
C1927 C 0.7807 0.76945 0.64384 0.0
C1928 C 0.76648 0.71582 0.65005 0.0
C1929 C 0.7984 0.72565 0.65597 0.0
N1930 N 0.85221 0.76861 0.66147 0.0
N1931 N 0.72543 0.72993 0.64678 0.0
C1932 C 0.82169 0.7582 0.65544 0.0
C1933 C 0.75703 0.7383 0.64718 0.0
N1934 N 0.83621 0.80943 0.64321 0.0
N1935 N 0.74595 0.68568 0.64503 0.0
H1936 H 0.71783 0.74606 0.64442 0.0
H1937 H 0.70726 0.70787 0.65077 0.0
H1938 H 0.75413 0.67072 0.6414 0.0
H1939 H 0.72277 0.67783 0.64022 0.0
H1940 H 0.86063 0.81725 0.64343 0.0
H1941 H 0.83082 0.82596 0.63801 0.0
H1942 H 0.86894 0.79213 0.66345 0.0
H1943 H 0.86065 0.75381 0.66532 0.0
C1944 C 0.96991 0.73759 0.6531 0.0
C1945 C 0.97097 0.76315 0.64363 0.0
C1946 C 0.91299 0.73975 0.64641 0.0
C1947 C 0.91138 0.71377 0.65596 0.0
N1948 N 0.93781 0.68598 0.66622 0.0
N1949 N 0.9457 0.79301 0.63577 0.0
C1950 C 0.93986 0.71238 0.65889 0.0
C1951 C 0.94321 0.7657 0.64187 0.0
N1952 N 0.99785 0.73794 0.657 0.0
N1953 N 0.88583 0.73814 0.63947 0.0
H1954 H 0.96744 0.81229 0.63192 0.0
H1955 H 0.92678 0.79751 0.63626 0.0
H1956 H 0.86307 0.71915 0.64143 0.0
H1957 H 0.88601 0.75452 0.6303 0.0
H1958 H 0.99947 0.72193 0.66563 0.0
H1959 H 0.02014 0.75588 0.6527 0.0
H1960 H 0.95634 0.68098 0.66622 0.0
H1961 H 0.91692 0.66858 0.67223 0.0
C1962 C 0.22258 0.16769 0.63906 0.0
C1963 C 0.23117 0.19961 0.63885 0.0
C1964 C 0.28416 0.21414 0.65133 0.0
C1965 C 0.27532 0.18202 0.65235 0.0
N1966 N 0.23353 0.12811 0.6506 0.0
N1967 N 0.26681 0.25243 0.64882 0.0
C1968 C 0.24368 0.15881 0.64729 0.0
C1969 C 0.26093 0.22258 0.64629 0.0
N1970 N 0.19492 0.14592 0.63057 0.0
N1971 N 0.31509 0.23676 0.65443 0.0
H1972 H 0.25033 0.25936 0.64519 0.0
H1973 H 0.28661 0.26945 0.65606 0.0
H1974 H 0.33227 0.23162 0.65912 0.0
H1975 H 0.32395 0.26033 0.65158 0.0
H1976 H 0.18925 0.12293 0.62815 0.0
H1977 H 0.17859 0.15133 0.62457 0.0
H1978 H 0.20986 0.11029 0.64924 0.0
H1979 H 0.24821 0.12091 0.65667 0.0
C1980 C 0.77244 0.01776 0.64877 0.0
C1981 C 0.79067 0.01722 0.63351 0.0
C1982 C 0.83068 0.07216 0.639 0.0
C1983 C 0.81157 0.07298 0.65365 0.0
N1984 N 0.77152 0.04449 0.67671 0.0
N1985 N 0.83613 0.0434 0.6132 0.0
C1986 C 0.78439 0.04521 0.65974 0.0
C1987 C 0.81959 0.04432 0.62837 0.0
N1988 N 0.74319 0.9923 0.65238 0.0
N1989 N 0.86046 0.09731 0.63628 0.0
H1990 H 0.82938 0.02308 0.60557 0.0
H1991 H 0.8555 0.06298 0.60744 0.0
H1992 H 0.87 0.11674 0.64502 0.0
H1993 H 0.87698 0.09801 0.62678 0.0
H1994 H 0.7272 0.99248 0.66198 0.0
H1995 H 0.73363 0.9717 0.64461 0.0
H1996 H 0.75359 0.02421 0.68283 0.0
H1997 H 0.78133 0.06369 0.68561 0.0
C1998 C 0.43762 0.29051 0.71652 0.0
C1999 C 0.44098 0.31795 0.70825 0.0
C2000 C 0.40663 0.28676 0.68238 0.0
C2001 C 0.39945 0.25881 0.692 0.0
N2002 N 0.40588 0.23467 0.7199 0.0
N2003 N 0.42471 0.34209 0.68489 0.0
C2004 C 0.41415 0.26085 0.70959 0.0
C2005 C 0.42444 0.31607 0.69159 0.0
N2006 N 0.45786 0.29275 0.73054 0.0
N2007 N 0.3969 0.28567 0.66444 0.0
H2008 H 0.43728 0.36392 0.69131 0.0
H2009 H 0.41013 0.34145 0.674 0.0
H2010 H 0.38393 0.26507 0.65698 0.0
H2011 H 0.40448 0.30551 0.65627 0.0
H2012 H 0.4591 0.27364 0.73561 0.0
H2013 H 0.47574 0.31406 0.73585 0.0
H2014 H 0.41259 0.23557 0.73375 0.0
H2015 H 0.39087 0.21197 0.71526 0.0
C2016 C 0.69466 0.09866 0.6957 0.0
C2017 C 0.69439 0.12374 0.70512 0.0
C2018 C 0.75266 0.15475 0.70318 0.0
C2019 C 0.75343 0.13093 0.69242 0.0
N2020 N 0.72546 0.07771 0.68125 0.0
N2021 N 0.72188 0.17803 0.71395 0.0
C2022 C 0.72438 0.10212 0.68948 0.0
C2023 C 0.72297 0.15259 0.70744 0.0
N2024 N 0.66627 0.07194 0.6922 0.0
N2025 N 0.77972 0.17714 0.71173 0.0
H2026 H 0.70056 0.1772 0.71762 0.0
H2027 H 0.74176 0.20048 0.71398 0.0
H2028 H 0.80103 0.17687 0.7115 0.0
H2029 H 0.77993 0.1932 0.72121 0.0
H2030 H 0.66381 0.05364 0.68389 0.0
H2031 H 0.64433 0.06865 0.69681 0.0
H2032 H 0.7064 0.05493 0.68061 0.0
H2033 H 0.7461 0.08017 0.67517 0.0
C2034 C 0.85611 0.56008 0.71013 0.0
C2035 C 0.88362 0.56141 0.7023 0.0
C2036 C 0.88502 0.59699 0.67831 0.0
C2037 C 0.86034 0.5992 0.68771 0.0
N2038 N 0.82497 0.58546 0.71409 0.0
N2039 N 0.92687 0.5836 0.6803 0.0
C2040 C 0.84659 0.58145 0.70404 0.0
C2041 C 0.89869 0.58036 0.68666 0.0
N2042 N 0.83851 0.53775 0.72303 0.0
N2043 N 0.8954 0.61068 0.66141 0.0
H2044 H 0.93761 0.57173 0.68608 0.0
H2045 H 0.94094 0.59992 0.67033 0.0
H2046 H 0.88736 0.62459 0.65543 0.0
H2047 H 0.91036 0.60665 0.65287 0.0
H2048 H 0.81625 0.53343 0.72769 0.0
H2049 H 0.84458 0.52142 0.72775 0.0
H2050 H 0.81728 0.57616 0.72729 0.0
H2051 H 0.81642 0.59996 0.70983 0.0
C2052 C 0.46309 0.94295 0.15134 0.0
C2053 C 0.48036 0.96299 0.16641 0.0
C2054 C 0.50358 0.00779 0.14512 0.0
C2055 C 0.48243 0.98869 0.13088 0.0
N2056 N 0.44114 0.9381 0.12032 0.0
N2057 N 0.51566 0.01498 0.17809 0.0
C2058 C 0.46224 0.95613 0.13387 0.0
C2059 C 0.5006 0.99553 0.16337 0.0
N2060 N 0.44777 0.9113 0.15375 0.0
N2061 N 0.52655 0.03775 0.14108 0.0
H2062 H 0.51427 0.00697 0.19163 0.0
H2063 H 0.52764 0.03925 0.17716 0.0
H2064 H 0.52926 0.0472 0.12781 0.0
H2065 H 0.54469 0.05214 0.15028 0.0
H2066 H 0.43736 0.89527 0.14294 0.0
H2067 H 0.44786 0.90101 0.16638 0.0
H2068 H 0.42305 0.91512 0.12236 0.0
H2069 H 0.44058 0.94672 0.10719 0.0
C2070 C 0.99709 0.52511 0.16243 0.0
C2071 C 0.01733 0.51272 0.16661 0.0
C2072 C 0.00464 0.4863 0.13635 0.0
C2073 C 0.98676 0.50106 0.1316 0.0
N2074 N 0.9731 0.54083 0.13833 0.0
N2075 N 0.04602 0.48727 0.15596 0.0
C2076 C 0.98517 0.52242 0.1441 0.0
C2077 C 0.02283 0.49502 0.15307 0.0
N2078 N 0.98794 0.53817 0.17613 0.0
N2079 N 0.00323 0.46308 0.12534 0.0
H2080 H 0.06024 0.49376 0.16789 0.0
H2081 H 0.05323 0.4771 0.14578 0.0
H2082 H 0.98968 0.4555 0.11317 0.0
H2083 H 0.01313 0.44937 0.12915 0.0
H2084 H 0.97062 0.54462 0.17415 0.0
H2085 H 0.99512 0.53964 0.18995 0.0
H2086 H 0.97436 0.55899 0.14635 0.0
H2087 H 0.96485 0.54011 0.12483 0.0
C2088 C 0.4914 0.5288 0.15659 0.0
C2089 C 0.47777 0.50398 0.1696 0.0
C2090 C 0.48037 0.46893 0.14644 0.0
C2091 C 0.49911 0.4949 0.13483 0.0
N2092 N 0.52587 0.55074 0.12991 0.0
N2093 N 0.46336 0.45111 0.17779 0.0
C2094 C 0.50533 0.52519 0.14007 0.0
C2095 C 0.47306 0.47409 0.16473 0.0
N2096 N 0.49064 0.55567 0.15991 0.0
N2097 N 0.46917 0.43926 0.13988 0.0
H2098 H 0.4585 0.45402 0.19151 0.0
H2099 H 0.46298 0.43011 0.17545 0.0
H2100 H 0.47353 0.43463 0.12638 0.0
H2101 H 0.4529 0.41939 0.14712 0.0
H2102 H 0.49746 0.57337 0.15013 0.0
H2103 H 0.48013 0.55886 0.17174 0.0
H2104 H 0.53392 0.57361 0.13427 0.0
H2105 H 0.53717 0.54933 0.11793 0.0
C2106 C 0.95795 0.46588 0.85832 0.0
C2107 C 0.96954 0.49039 0.84513 0.0
C2108 C 0.00565 0.52703 0.86854 0.0
C2109 C 0.9985 0.50151 0.88035 0.0
N2110 N 0.96912 0.44605 0.88638 0.0
N2111 N 0.00697 0.54402 0.83696 0.0
C2112 C 0.97466 0.47074 0.87536 0.0
C2113 C 0.99377 0.52107 0.85009 0.0
N2114 N 0.93087 0.43811 0.85457 0.0
N2115 N 0.02377 0.55692 0.87502 0.0
H2116 H 0.99967 0.54061 0.82311 0.0
H2117 H 0.02709 0.56576 0.83945 0.0
H2118 H 0.03267 0.56194 0.88857 0.0
H2119 H 0.02719 0.57645 0.86761 0.0
H2120 H 0.91961 0.42035 0.86431 0.0
H2121 H 0.91789 0.43402 0.84226 0.0
H2122 H 0.95475 0.42282 0.88235 0.0
H2123 H 0.98066 0.44865 0.89907 0.0
C2124 C 0.53911 0.50214 0.8603 0.0
C2125 C 0.5154 0.4843 0.84679 0.0
C2126 C 0.47354 0.47268 0.8697 0.0
C2127 C 0.49688 0.49442 0.88215 0.0
N2128 N 0.55196 0.53309 0.88845 0.0
N2129 N 0.45965 0.45715 0.83767 0.0
C2130 C 0.52977 0.50995 0.87729 0.0
C2131 C 0.48245 0.47064 0.85124 0.0
N2132 N 0.5704 0.51096 0.8571 0.0
N2133 N 0.44291 0.45357 0.87563 0.0
H2134 H 0.46506 0.45619 0.82376 0.0
H2135 H 0.43557 0.44975 0.83988 0.0
H2136 H 0.43567 0.45403 0.88921 0.0
H2137 H 0.42571 0.43517 0.86767 0.0
H2138 H 0.58823 0.52133 0.86718 0.0
H2139 H 0.57802 0.5052 0.84494 0.0
H2140 H 0.5757 0.54749 0.88457 0.0
H2141 H 0.54613 0.53971 0.90094 0.0
C2142 C 0.48756 0.01439 0.84692 0.0
C2143 C 0.51833 0.04075 0.84394 0.0
C2144 C 0.53444 0.03509 0.87548 0.0
C2145 C 0.503 0.00995 0.87877 0.0
N2146 N 0.44758 0.98179 0.86941 0.0
N2147 N 0.56852 0.08059 0.85681 0.0
C2148 C 0.47891 0.00163 0.86504 0.0
C2149 C 0.54101 0.0525 0.85869 0.0
N2150 N 0.46715 0.00038 0.8323 0.0
N2151 N 0.55841 0.04144 0.8879 0.0
H2152 H 0.57389 0.09409 0.84481 0.0
H2153 H 0.58446 0.09184 0.86771 0.0
H2154 H 0.55471 0.02919 0.90027 0.0
H2155 H 0.58243 0.05716 0.88524 0.0
H2156 H 0.44589 0.97912 0.83344 0.0
H2157 H 0.4728 0.00822 0.81866 0.0
H2158 H 0.42871 0.9772 0.86046 0.0
H2159 H 0.44029 0.97255 0.88269 0.0
C2160 C 0.1858 0.32719 0.4971 0.0
C2161 C 0.15456 0.30285 0.50164 0.0
C2162 C 0.1348 0.3097 0.4715 0.0
C2163 C 0.16646 0.33271 0.46657 0.0
N2164 N 0.22305 0.3568 0.47266 0.0
N2165 N 0.10115 0.26575 0.49132 0.0
C2166 C 0.19227 0.33932 0.47875 0.0
C2167 C 0.1296 0.29246 0.48824 0.0
N2168 N 0.20896 0.33998 0.51052 0.0
N2169 N 0.1095 0.30529 0.46074 0.0
H2170 H 0.09672 0.25227 0.50326 0.0
H2171 H 0.08323 0.25535 0.48129 0.0
H2172 H 0.11213 0.3176 0.44852 0.0
H2173 H 0.08575 0.29133 0.46475 0.0
H2174 H 0.23107 0.35997 0.50839 0.0
H2175 H 0.20511 0.33257 0.52429 0.0
H2176 H 0.24275 0.35983 0.48033 0.0
H2177 H 0.22866 0.3655 0.45917 0.0
C2178 C 0.68968 0.81907 0.48573 0.0
C2179 C 0.68238 0.83605 0.49884 0.0
C2180 C 0.64712 0.84068 0.47615 0.0
C2181 C 0.65077 0.81993 0.46413 0.0
N2182 N 0.67229 0.78581 0.45845 0.0
N2183 N 0.64967 0.85828 0.50775 0.0
C2184 C 0.67128 0.8082 0.46913 0.0
C2185 C 0.65994 0.84568 0.49438 0.0
N2186 N 0.71472 0.81409 0.48889 0.0
N2187 N 0.63218 0.85631 0.46998 0.0
H2188 H 0.65766 0.86155 0.52148 0.0
H2189 H 0.63089 0.86266 0.50567 0.0
H2190 H 0.62298 0.85371 0.45655 0.0
H2191 H 0.63181 0.87413 0.47753 0.0
H2192 H 0.72318 0.80462 0.47898 0.0
H2193 H 0.72905 0.82215 0.50076 0.0
H2194 H 0.68421 0.77406 0.46248 0.0
H2195 H 0.65892 0.77696 0.44629 0.0
C2196 C 0.14081 0.81594 0.49598 0.0
C2197 C 0.14099 0.84375 0.50124 0.0
C2198 C 0.16418 0.8674 0.47117 0.0
C2199 C 0.1637 0.83947 0.46588 0.0
N2200 N 0.14378 0.78466 0.47088 0.0
N2201 N 0.14475 0.89246 0.49231 0.0
C2202 C 0.14934 0.81287 0.47753 0.0
C2203 C 0.15003 0.86835 0.48828 0.0
N2204 N 0.13434 0.79324 0.50884 0.0
N2205 N 0.17958 0.89348 0.46035 0.0
H2206 H 0.13418 0.89366 0.50467 0.0
H2207 H 0.14798 0.90959 0.48275 0.0
H2208 H 0.18986 0.89366 0.44761 0.0
H2209 H 0.18409 0.91549 0.46457 0.0
H2210 H 0.13746 0.77416 0.50635 0.0
H2211 H 0.1282 0.7946 0.52254 0.0
H2212 H 0.13062 0.76375 0.47804 0.0
H2213 H 0.14967 0.78174 0.45737 0.0
C2214 C 0.61718 0.81276 0.19166 0.0
C2215 C 0.64126 0.82412 0.17782 0.0
C2216 C 0.68245 0.85201 0.20143 0.0
C2217 C 0.65825 0.84382 0.21475 0.0
N2218 N 0.60264 0.81773 0.22325 0.0
N2219 N 0.69653 0.85546 0.16879 0.0
C2220 C 0.62556 0.82425 0.21014 0.0
C2221 C 0.67399 0.84378 0.18251 0.0
N2222 N 0.58646 0.79088 0.18707 0.0
N2223 N 0.71333 0.8674 0.20758 0.0
H2224 H 0.69121 0.84895 0.15488 0.0
H2225 H 0.72015 0.87293 0.17086 0.0
H2226 H 0.73326 0.87303 0.19939 0.0
H2227 H 0.73326 0.87303 0.19939 0.0
H2228 H 0.56832 0.77938 0.19675 0.0
H2229 H 0.57954 0.7824 0.17357 0.0
H2230 H 0.57824 0.80646 0.22038 0.0
H2231 H 0.60816 0.82525 0.23701 0.0
C2232 C 0.18563 0.85409 0.18415 0.0
C2233 C 0.18256 0.82491 0.17915 0.0
C2234 C 0.15436 0.80189 0.2082 0.0
C2235 C 0.15887 0.83147 0.21359 0.0
N2236 N 0.18551 0.88721 0.20896 0.0
N2237 N 0.17117 0.77335 0.18817 0.0
C2238 C 0.17665 0.85808 0.20226 0.0
C2239 C 0.16916 0.79951 0.19176 0.0
N2240 N 0.19557 0.87749 0.17134 0.0
N2241 N 0.13487 0.77586 0.21834 0.0
H2242 H 0.18233 0.77104 0.17636 0.0
H2243 H 0.16462 0.75532 0.19768 0.0
H2244 H 0.12345 0.77656 0.23045 0.0
H2245 H 0.12785 0.75324 0.21392 0.0
H2246 H 0.19483 0.89795 0.17361 0.0
H2247 H 0.20205 0.87548 0.15783 0.0
H2248 H 0.20131 0.90771 0.20207 0.0
H2249 H 0.17947 0.89101 0.22224 0.0
C2250 C 0.15407 0.34135 0.17967 0.0
C2251 C 0.18447 0.36816 0.17662 0.0
C2252 C 0.20098 0.36348 0.20825 0.0
C2253 C 0.16984 0.33787 0.2116 0.0
N2254 N 0.11449 0.30834 0.20223 0.0
N2255 N 0.23423 0.40897 0.18936 0.0
C2256 C 0.14567 0.32874 0.19784 0.0
C2257 C 0.20714 0.38056 0.19136 0.0
N2258 N 0.13376 0.32682 0.16508 0.0
N2259 N 0.22508 0.37061 0.22072 0.0
H2260 H 0.23932 0.42224 0.17729 0.0
H2261 H 0.25007 0.42066 0.20024 0.0
H2262 H 0.22166 0.35864 0.23318 0.0
H2263 H 0.24897 0.38674 0.21805 0.0
H2264 H 0.11284 0.30529 0.16626 0.0
H2265 H 0.13926 0.3346 0.15141 0.0
H2266 H 0.09548 0.30314 0.19325 0.0
H2267 H 0.10735 0.29919 0.21554 0.0
C2268 C 0.82538 0.62028 0.82074 0.0
C2269 C 0.81241 0.63067 0.83492 0.0
C2270 C 0.81137 0.66834 0.81313 0.0
C2271 C 0.82899 0.66148 0.80008 0.0
N2272 N 0.85617 0.63312 0.79233 0.0
N2273 N 0.79764 0.66823 0.84542 0.0
C2274 C 0.83674 0.63785 0.80404 0.0
C2275 C 0.8064 0.65555 0.8313 0.0
N2276 N 0.8262 0.59324 0.82307 0.0
N2277 N 0.7989 0.68673 0.80804 0.0
H2278 H 0.79468 0.66034 0.85908 0.0
H2279 H 0.79632 0.68853 0.84394 0.0
H2280 H 0.80165 0.69608 0.79474 0.0
H2281 H 0.78317 0.69002 0.81635 0.0
H2282 H 0.83245 0.58285 0.81253 0.0
H2283 H 0.81762 0.57953 0.83498 0.0
H2284 H 0.86555 0.61874 0.79557 0.0
H2285 H 0.86513 0.64551 0.78003 0.0
C2286 C 0.35911 0.1589 0.82145 0.0
C2287 C 0.35023 0.17447 0.8347 0.0
C2288 C 0.31603 0.17967 0.81152 0.0
C2289 C 0.32131 0.16027 0.79923 0.0
N2290 N 0.34417 0.12729 0.79353 0.0
N2291 N 0.31547 0.19448 0.84344 0.0
C2292 C 0.34195 0.14879 0.80443 0.0
C2293 C 0.32742 0.18353 0.83004 0.0
N2294 N 0.38446 0.15452 0.82492 0.0
N2295 N 0.30086 0.19509 0.80537 0.0
H2296 H 0.32239 0.19681 0.85735 0.0
H2297 H 0.29638 0.1983 0.84111 0.0
H2298 H 0.29277 0.19342 0.79174 0.0
H2299 H 0.29923 0.21196 0.81325 0.0
H2300 H 0.39398 0.14612 0.815 0.0
H2301 H 0.39796 0.16211 0.83712 0.0
H2302 H 0.35621 0.11569 0.79765 0.0
H2303 H 0.33162 0.11888 0.78108 0.0
C2304 C 0.79257 0.18676 0.81924 0.0
C2305 C 0.8085 0.18094 0.83395 0.0
C2306 C 0.83146 0.15997 0.81176 0.0
C2307 C 0.81112 0.16063 0.79779 0.0
N2308 N 0.77285 0.17512 0.78749 0.0
N2309 N 0.84297 0.16186 0.8447 0.0
C2310 C 0.79225 0.17473 0.80122 0.0
C2311 C 0.8284 0.168 0.83031 0.0
N2312 N 0.77784 0.20379 0.82258 0.0
N2313 N 0.8534 0.1513 0.80719 0.0
H2314 H 0.84173 0.1679 0.85843 0.0
H2315 H 0.85472 0.14913 0.84327 0.0
H2316 H 0.85593 0.14531 0.79364 0.0
H2317 H 0.87091 0.15275 0.81628 0.0
H2318 H 0.76826 0.21135 0.8122 0.0
H2319 H 0.77743 0.2126 0.8357 0.0
H2320 H 0.75549 0.18143 0.78961 0.0
H2321 H 0.77326 0.1678 0.77394 0.0
C2322 C 0.34914 0.16972 0.51677 0.0
C2323 C 0.31586 0.15573 0.51317 0.0
C2324 C 0.30651 0.16628 0.54511 0.0
C2325 C 0.33993 0.18106 0.54852 0.0
N2326 N 0.39153 0.18889 0.53988 0.0
N2327 N 0.26207 0.13314 0.52469 0.0
C2328 C 0.36072 0.18002 0.53507 0.0
C2329 C 0.29425 0.15143 0.52768 0.0
N2330 N 0.36984 0.17474 0.50253 0.0
N2331 N 0.28679 0.16791 0.5581 0.0
H2332 H 0.25254 0.1221 0.512 0.0
H2333 H 0.24506 0.12665 0.53514 0.0
H2334 H 0.2948 0.17795 0.57118 0.0
H2335 H 0.26287 0.1609 0.55561 0.0
H2336 H 0.39459 0.18821 0.50385 0.0
H2337 H 0.36226 0.16709 0.48898 0.0
H2338 H 0.40715 0.18602 0.53124 0.0
H2339 H 0.4005 0.19641 0.55326 0.0
C2340 C 0.87148 0.17074 0.52695 0.0
C2341 C 0.84766 0.15478 0.51314 0.0
C2342 C 0.80623 0.14704 0.53558 0.0
C2343 C 0.83021 0.16709 0.54834 0.0
N2344 N 0.88623 0.20177 0.55513 0.0
N2345 N 0.79255 0.13266 0.50337 0.0
C2346 C 0.86306 0.17987 0.54381 0.0
C2347 C 0.81503 0.14414 0.51721 0.0
N2348 N 0.90195 0.17647 0.52416 0.0
N2349 N 0.77507 0.13014 0.54113 0.0
H2350 H 0.79801 0.13111 0.48955 0.0
H2351 H 0.76905 0.12762 0.50528 0.0
H2352 H 0.76782 0.13107 0.55464 0.0
H2353 H 0.75711 0.11285 0.53293 0.0
H2354 H 0.91949 0.1852 0.53448 0.0
H2355 H 0.90885 0.16966 0.51212 0.0
H2356 H 0.91031 0.21424 0.5515 0.0
H2357 H 0.88117 0.20957 0.56742 0.0
C2358 C 0.81841 0.68014 0.51384 0.0
C2359 C 0.85026 0.70456 0.51078 0.0
C2360 C 0.8654 0.69656 0.54201 0.0
C2361 C 0.83306 0.67352 0.54539 0.0
N2362 N 0.77757 0.64989 0.53646 0.0
N2363 N 0.90225 0.74086 0.52337 0.0
C2364 C 0.80917 0.66745 0.5319 0.0
C2365 C 0.87323 0.71431 0.52533 0.0
N2366 N 0.79736 0.66781 0.49932 0.0
N2367 N 0.88886 0.70052 0.55424 0.0
H2368 H 0.9086 0.7546 0.51143 0.0
H2369 H 0.91874 0.75083 0.53417 0.0
H2370 H 0.88418 0.68792 0.56655 0.0
H2371 H 0.91317 0.71448 0.55147 0.0
H2372 H 0.77498 0.64778 0.50049 0.0
H2373 H 0.80332 0.67561 0.48568 0.0
H2374 H 0.75912 0.64722 0.52771 0.0
H2375 H 0.76991 0.64075 0.54972 0.0
loop_
_geom_bond_atom_site_label_1
_geom_bond_atom_site_label_2
_geom_bond_distance
_geom_bond_site_symmetry_2
_ccdc_geom_bond_type
C0 C1 1.384 . S
C0 H13 0.947 . S
C0 C35 1.382 . S
C1 C0 1.384 . S
C1 C2 1.378 . S
C2 C1 1.378 . S
C2 C3 1.378 . S
C2 H14 0.952 . S
C3 C2 1.378 . S
C3 H15 0.950 . S
C3 C34 1.383 . S
H4 C23 0.947 . S
H5 C24 0.946 . S
H6 C26 0.953 . S
H7 C27 0.945 . S
H8 C29 0.952 . S
H9 C30 0.949 . S
H10 C32 0.950 . S
H11 C33 0.948 . S
H12 C35 0.951 . S
H13 C0 0.947 . S
H14 C2 0.952 . S
H15 C3 0.950 . S
N16 C19 1.382 . S
N16 C21 1.363 . S
N17 C19 1.371 . S
N17 C20 1.372 . S
N18 C20 1.361 . S
N18 C21 1.377 . S
C19 N16 1.382 . S
C19 N17 1.371 . S
C19 C22 1.480 . S
C20 N17 1.372 . S
C20 N18 1.361 . S
C20 C28 1.457 . S
C21 N16 1.363 . S
C21 N18 1.377 . S
C21 C34 1.479 . S
C22 C19 1.480 . S
C22 C23 1.383 . S
C22 C27 1.385 . S
C23 H4 0.947 . S
C23 C22 1.383 . S
C23 C24 1.388 . S
C24 H5 0.946 . S
C24 C23 1.388 . S
C24 C25 1.384 . S
C25 C24 1.384 . S
C25 C26 1.377 . S
C26 H6 0.953 . S
C26 C25 1.377 . S
C26 C27 1.369 . S
C27 H7 0.945 . S
C27 C22 1.385 . S
C27 C26 1.369 . S
C28 C20 1.457 . S
C28 C29 1.372 . S
C28 C33 1.364 . S
C29 H8 0.952 . S
C29 C28 1.372 . S
C29 C30 1.389 . S
C30 H9 0.949 . S
C30 C29 1.389 . S
C30 C31 1.387 . S
C31 C30 1.387 . S
C31 C32 1.372 . S
C32 H10 0.950 . S
C32 C31 1.372 . S
C32 C33 1.379 . S
C33 H11 0.948 . S
C33 C28 1.364 . S
C33 C32 1.379 . S
C34 C3 1.383 . S
C34 C21 1.479 . S
C34 C35 1.398 . S
C35 C0 1.382 . S
C35 H12 0.951 . S
C35 C34 1.398 . S
C36 C37 1.384 . S
C36 H49 0.947 1_655 S
C36 C71 1.382 . S
C37 C36 1.384 . S
C37 C38 1.378 . S
C38 C37 1.378 . S
C38 C39 1.378 . S
C38 H50 0.952 . S
C39 C38 1.378 . S
C39 H51 0.950 . S
C39 C70 1.383 . S
H40 C59 0.947 . S
H41 C60 0.946 . S
H42 C62 0.953 . S
H43 C63 0.945 . S
H44 C65 0.952 . S
H45 C66 0.949 . S
H46 C68 0.950 . S
H47 C69 0.948 . S
H48 C71 0.951 . S
H49 C36 0.947 1_455 S
H50 C38 0.952 . S
H51 C39 0.950 . S
N52 C55 1.382 . S
N52 C57 1.363 . S
N53 C55 1.371 . S
N53 C56 1.372 . S
N54 C56 1.361 . S
N54 C57 1.377 . S
C55 N52 1.382 . S
C55 N53 1.371 . S
C55 C58 1.480 . S
C56 N53 1.372 . S
C56 N54 1.361 . S
C56 C64 1.457 . S
C57 N52 1.363 . S
C57 N54 1.377 . S
C57 C70 1.479 . S
C58 C55 1.480 . S
C58 C59 1.383 . S
C58 C63 1.385 . S
C59 H40 0.947 . S
C59 C58 1.383 . S
C59 C60 1.388 . S
C60 H41 0.946 . S
C60 C59 1.388 . S
C60 C61 1.384 . S
C61 C60 1.384 . S
C61 C62 1.377 . S
C62 H42 0.953 . S
C62 C61 1.377 . S
C62 C63 1.369 . S
C63 H43 0.945 . S
C63 C58 1.385 . S
C63 C62 1.369 . S
C64 C56 1.457 . S
C64 C65 1.372 . S
C64 C69 1.364 . S
C65 H44 0.952 . S
C65 C64 1.372 . S
C65 C66 1.389 . S
C66 H45 0.949 . S
C66 C65 1.389 . S
C66 C67 1.387 . S
C67 C66 1.387 . S
C67 C68 1.372 . S
C68 H46 0.950 . S
C68 C67 1.372 . S
C68 C69 1.379 . S
C69 H47 0.948 . S
C69 C64 1.364 . S
C69 C68 1.379 . S
C70 C39 1.383 . S
C70 C57 1.479 . S
C70 C71 1.398 . S
C71 C36 1.382 . S
C71 H48 0.951 . S
C71 C70 1.398 . S
C72 C73 1.384 . S
C72 H85 0.947 . S
C72 C107 1.382 . S
C73 C72 1.384 . S
C73 C74 1.378 . S
C74 C73 1.378 . S
C74 C75 1.378 . S
C74 H86 0.952 . S
C75 C74 1.378 . S
C75 H87 0.950 . S
C75 C106 1.383 . S
H76 C95 0.947 . S
H77 C96 0.946 . S
H78 C98 0.953 1_455 S
H79 C99 0.945 . S
H80 C101 0.952 . S
H81 C102 0.949 . S
H82 C104 0.950 . S
H83 C105 0.948 . S
H84 C107 0.951 . S
H85 C72 0.947 . S
H86 C74 0.952 . S
H87 C75 0.950 . S
N88 C91 1.382 . S
N88 C93 1.363 . S
N89 C91 1.371 . S
N89 C92 1.372 . S
N90 C92 1.361 . S
N90 C93 1.377 . S
C91 N88 1.382 . S
C91 N89 1.371 . S
C91 C94 1.480 . S
C92 N89 1.372 . S
C92 N90 1.361 . S
C92 C100 1.457 . S
C93 N88 1.363 . S
C93 N90 1.377 . S
C93 C106 1.479 . S
C94 C91 1.480 . S
C94 C95 1.383 . S
C94 C99 1.385 . S
C95 H76 0.947 . S
C95 C94 1.383 . S
C95 C96 1.388 . S
C96 H77 0.946 . S
C96 C95 1.388 . S
C96 C97 1.384 . S
C97 C96 1.384 . S
C97 C98 1.377 . S
C98 H78 0.953 1_655 S
C98 C97 1.377 . S
C98 C99 1.369 . S
C99 H79 0.945 . S
C99 C94 1.385 . S
C99 C98 1.369 . S
C100 C92 1.457 . S
C100 C101 1.372 . S
C100 C105 1.364 . S
C101 H80 0.952 . S
C101 C100 1.372 . S
C101 C102 1.389 . S
C102 H81 0.949 . S
C102 C101 1.389 . S
C102 C103 1.387 . S
C103 C102 1.387 . S
C103 C104 1.372 . S
C104 H82 0.950 . S
C104 C103 1.372 . S
C104 C105 1.379 . S
C105 H83 0.948 . S
C105 C100 1.364 . S
C105 C104 1.379 . S
C106 C75 1.383 . S
C106 C93 1.479 . S
C106 C107 1.398 . S
C107 C72 1.382 . S
C107 H84 0.951 . S
C107 C106 1.398 . S
C108 C109 1.384 . S
C108 H121 0.947 1_455 S
C108 C143 1.382 . S
C109 C108 1.384 . S
C109 C110 1.378 . S
C110 C109 1.378 . S
C110 C111 1.378 . S
C110 H122 0.952 . S
C111 C110 1.378 . S
C111 H123 0.950 . S
C111 C142 1.383 . S
H112 C131 0.947 . S
H113 C132 0.946 . S
H114 C134 0.953 . S
H115 C135 0.945 . S
H116 C137 0.952 . S
H117 C138 0.949 . S
H118 C140 0.950 . S
H119 C141 0.948 . S
H120 C143 0.951 . S
H121 C108 0.947 1_655 S
H122 C110 0.952 . S
H123 C111 0.950 . S
N124 C127 1.382 . S
N124 C129 1.363 . S
N125 C127 1.371 . S
N125 C128 1.372 . S
N126 C128 1.361 . S
N126 C129 1.377 . S
C127 N124 1.382 . S
C127 N125 1.371 . S
C127 C130 1.480 . S
C128 N125 1.372 . S
C128 N126 1.361 . S
C128 C136 1.457 . S
C129 N124 1.363 . S
C129 N126 1.377 . S
C129 C142 1.479 . S
C130 C127 1.480 . S
C130 C131 1.383 . S
C130 C135 1.385 . S
C131 H112 0.947 . S
C131 C130 1.383 . S
C131 C132 1.388 . S
C132 H113 0.946 . S
C132 C131 1.388 . S
C132 C133 1.384 . S
C133 C132 1.384 . S
C133 C134 1.377 . S
C134 H114 0.953 . S
C134 C133 1.377 . S
C134 C135 1.369 . S
C135 H115 0.945 . S
C135 C130 1.385 . S
C135 C134 1.369 . S
C136 C128 1.457 . S
C136 C137 1.372 . S
C136 C141 1.364 . S
C137 H116 0.952 . S
C137 C136 1.372 . S
C137 C138 1.389 . S
C138 H117 0.949 . S
C138 C137 1.389 . S
C138 C139 1.387 . S
C139 C138 1.387 . S
C139 C140 1.372 . S
C140 H118 0.950 . S
C140 C139 1.372 . S
C140 C141 1.379 . S
C141 H119 0.948 . S
C141 C136 1.364 . S
C141 C140 1.379 . S
C142 C111 1.383 . S
C142 C129 1.479 . S
C142 C143 1.398 . S
C143 C108 1.382 . S
C143 H120 0.951 . S
C143 C142 1.398 . S
C144 C145 1.384 . S
C144 H157 0.947 . S
C144 C179 1.382 . S
C145 C144 1.384 . S
C145 C146 1.378 . S
C146 C145 1.378 . S
C146 C147 1.378 . S
C146 H158 0.952 . S
C147 C146 1.378 . S
C147 H159 0.950 . S
C147 C178 1.383 . S
H148 C167 0.947 . S
H149 C168 0.946 . S
H150 C170 0.953 . S
H151 C171 0.945 . S
H152 C173 0.952 . S
H153 C174 0.949 . S
H154 C176 0.950 . S
H155 C177 0.948 . S
H156 C179 0.951 . S
H157 C144 0.947 . S
H158 C146 0.952 . S
H159 C147 0.950 . S
N160 C163 1.382 . S
N160 C165 1.363 . S
N161 C163 1.371 . S
N161 C164 1.372 . S
N162 C164 1.361 . S
N162 C165 1.377 . S
C163 N160 1.382 . S
C163 N161 1.371 . S
C163 C166 1.480 . S
C164 N161 1.372 . S
C164 N162 1.361 . S
C164 C172 1.457 . S
C165 N160 1.363 . S
C165 N162 1.377 . S
C165 C178 1.479 . S
C166 C163 1.480 . S
C166 C167 1.383 . S
C166 C171 1.385 . S
C167 H148 0.947 . S
C167 C166 1.383 . S
C167 C168 1.388 . S
C168 H149 0.946 . S
C168 C167 1.388 . S
C168 C169 1.384 . S
C169 C168 1.384 . S
C169 C170 1.377 . S
C170 H150 0.953 . S
C170 C169 1.377 . S
C170 C171 1.369 . S
C171 H151 0.945 . S
C171 C166 1.385 . S
C171 C170 1.369 . S
C172 C164 1.457 . S
C172 C173 1.372 . S
C172 C177 1.364 . S
C173 H152 0.952 . S
C173 C172 1.372 . S
C173 C174 1.389 . S
C174 H153 0.949 . S
C174 C173 1.389 . S
C174 C175 1.387 . S
C175 C174 1.387 . S
C175 C176 1.372 . S
C176 H154 0.950 . S
C176 C175 1.372 . S
C176 C177 1.379 . S
C177 H155 0.948 . S
C177 C172 1.364 . S
C177 C176 1.379 . S
C178 C147 1.383 . S
C178 C165 1.479 . S
C178 C179 1.398 . S
C179 C144 1.382 . S
C179 H156 0.951 . S
C179 C178 1.398 . S
C180 C181 1.384 . S
C180 H193 0.947 . S
C180 C215 1.382 . S
C181 C180 1.384 . S
C181 C182 1.378 . S
C182 C181 1.378 . S
C182 C183 1.378 . S
C182 H194 0.952 . S
C183 C182 1.378 . S
C183 H195 0.950 . S
C183 C214 1.383 . S
H184 C203 0.947 . S
H185 C204 0.946 . S
H186 C206 0.953 . S
H187 C207 0.945 . S
H188 C209 0.952 . S
H189 C210 0.949 . S
H190 C212 0.950 . S
H191 C213 0.948 . S
H192 C215 0.951 . S
H193 C180 0.947 . S
H194 C182 0.952 . S
H195 C183 0.950 . S
N196 C199 1.382 . S
N196 C201 1.363 . S
N197 C199 1.371 . S
N197 C200 1.372 . S
N198 C200 1.361 . S
N198 C201 1.377 . S
C199 N196 1.382 . S
C199 N197 1.371 . S
C199 C202 1.480 . S
C200 N197 1.372 . S
C200 N198 1.361 . S
C200 C208 1.457 . S
C201 N196 1.363 . S
C201 N198 1.377 . S
C201 C214 1.479 . S
C202 C199 1.480 . S
C202 C203 1.383 . S
C202 C207 1.385 . S
C203 H184 0.947 . S
C203 C202 1.383 . S
C203 C204 1.388 . S
C204 H185 0.946 . S
C204 C203 1.388 . S
C204 C205 1.384 . S
C205 C204 1.384 . S
C205 C206 1.377 . S
C206 H186 0.953 . S
C206 C205 1.377 . S
C206 C207 1.369 . S
C207 H187 0.945 . S
C207 C202 1.385 . S
C207 C206 1.369 . S
C208 C200 1.457 . S
C208 C209 1.372 . S
C208 C213 1.364 . S
C209 H188 0.952 . S
C209 C208 1.372 . S
C209 C210 1.389 . S
C210 H189 0.949 . S
C210 C209 1.389 . S
C210 C211 1.387 . S
C211 C210 1.387 . S
C211 C212 1.372 . S
C212 H190 0.950 . S
C212 C211 1.372 . S
C212 C213 1.379 . S
C213 H191 0.948 . S
C213 C208 1.364 . S
C213 C212 1.379 . S
C214 C183 1.383 . S
C214 C201 1.479 . S
C214 C215 1.398 . S
C215 C180 1.382 . S
C215 H192 0.951 . S
C215 C214 1.398 . S
C216 C217 1.384 . S
C216 H229 0.947 . S
C216 C251 1.382 . S
C217 C216 1.384 . S
C217 C218 1.378 . S
C218 C217 1.378 . S
C218 C219 1.378 . S
C218 H230 0.952 . S
C219 C218 1.378 . S
C219 H231 0.950 . S
C219 C250 1.383 . S
H220 C239 0.947 . S
H221 C240 0.946 . S
H222 C242 0.953 . S
H223 C243 0.945 . S
H224 C245 0.952 . S
H225 C246 0.949 . S
H226 C248 0.950 . S
H227 C249 0.948 . S
H228 C251 0.951 . S
H229 C216 0.947 . S
H230 C218 0.952 . S
H231 C219 0.950 . S
N232 C235 1.382 . S
N232 C237 1.363 . S
N233 C235 1.371 . S
N233 C236 1.372 . S
N234 C236 1.361 . S
N234 C237 1.377 . S
C235 N232 1.382 . S
C235 N233 1.371 . S
C235 C238 1.480 . S
C236 N233 1.372 . S
C236 N234 1.361 . S
C236 C244 1.457 . S
C237 N232 1.363 . S
C237 N234 1.377 . S
C237 C250 1.479 . S
C238 C235 1.480 . S
C238 C239 1.383 . S
C238 C243 1.385 . S
C239 H220 0.947 . S
C239 C238 1.383 . S
C239 C240 1.388 . S
C240 H221 0.946 . S
C240 C239 1.388 . S
C240 C241 1.384 . S
C241 C240 1.384 . S
C241 C242 1.377 . S
C242 H222 0.953 . S
C242 C241 1.377 . S
C242 C243 1.369 . S
C243 H223 0.945 . S
C243 C238 1.385 . S
C243 C242 1.369 . S
C244 C236 1.457 . S
C244 C245 1.372 . S
C244 C249 1.364 . S
C245 H224 0.952 . S
C245 C244 1.372 . S
C245 C246 1.389 . S
C246 H225 0.949 . S
C246 C245 1.389 . S
C246 C247 1.387 . S
C247 C246 1.387 . S
C247 C248 1.372 . S
C248 H226 0.950 . S
C248 C247 1.372 . S
C248 C249 1.379 . S
C249 H227 0.948 . S
C249 C244 1.364 . S
C249 C248 1.379 . S
C250 C219 1.383 . S
C250 C237 1.479 . S
C250 C251 1.398 . S
C251 C216 1.382 . S
C251 H228 0.951 . S
C251 C250 1.398 . S
C252 C253 1.384 . S
C252 H265 0.947 . S
C252 C287 1.382 . S
C253 C252 1.384 . S
C253 C254 1.378 . S
C254 C253 1.378 . S
C254 C255 1.378 . S
C254 H266 0.952 . S
C255 C254 1.378 . S
C255 H267 0.950 . S
C255 C286 1.383 . S
H256 C275 0.947 . S
H257 C276 0.946 . S
H258 C278 0.953 . S
H259 C279 0.945 . S
H260 C281 0.952 . S
H261 C282 0.949 . S
H262 C284 0.950 . S
H263 C285 0.948 . S
H264 C287 0.951 . S
H265 C252 0.947 . S
H266 C254 0.952 . S
H267 C255 0.950 . S
N268 C271 1.382 . S
N268 C273 1.363 . S
N269 C271 1.371 . S
N269 C272 1.372 . S
N270 C272 1.361 . S
N270 C273 1.377 . S
C271 N268 1.382 . S
C271 N269 1.371 . S
C271 C274 1.480 . S
C272 N269 1.372 . S
C272 N270 1.361 . S
C272 C280 1.457 . S
C273 N268 1.363 . S
C273 N270 1.377 . S
C273 C286 1.479 . S
C274 C271 1.480 . S
C274 C275 1.383 . S
C274 C279 1.385 . S
C275 H256 0.947 . S
C275 C274 1.383 . S
C275 C276 1.388 . S
C276 H257 0.946 . S
C276 C275 1.388 . S
C276 C277 1.384 . S
C277 C276 1.384 . S
C277 C278 1.377 . S
C278 H258 0.953 . S
C278 C277 1.377 . S
C278 C279 1.369 . S
C279 H259 0.945 . S
C279 C274 1.385 . S
C279 C278 1.369 . S
C280 C272 1.457 . S
C280 C281 1.372 . S
C280 C285 1.364 . S
C281 H260 0.952 . S
C281 C280 1.372 . S
C281 C282 1.389 . S
C282 H261 0.949 . S
C282 C281 1.389 . S
C282 C283 1.387 . S
C283 C282 1.387 . S
C283 C284 1.372 . S
C284 H262 0.950 . S
C284 C283 1.372 . S
C284 C285 1.379 . S
C285 H263 0.948 . S
C285 C280 1.364 . S
C285 C284 1.379 . S
C286 C255 1.383 . S
C286 C273 1.479 . S
C286 C287 1.398 . S
C287 C252 1.382 . S
C287 H264 0.951 . S
C287 C286 1.398 . S
C288 C289 1.384 . S
C288 H301 0.947 . S
C288 C323 1.382 . S
C289 C288 1.384 . S
C289 C290 1.378 . S
C290 C289 1.378 . S
C290 C291 1.378 . S
C290 H302 0.952 . S
C291 C290 1.378 . S
C291 H303 0.950 . S
C291 C322 1.383 . S
H292 C311 0.947 . S
H293 C312 0.946 . S
H294 C314 0.953 . S
H295 C315 0.945 . S
H296 C317 0.952 . S
H297 C318 0.949 . S
H298 C320 0.950 . S
H299 C321 0.948 . S
H300 C323 0.951 . S
H301 C288 0.947 . S
H302 C290 0.952 . S
H303 C291 0.950 . S
N304 C307 1.382 . S
N304 C309 1.363 . S
N305 C307 1.371 . S
N305 C308 1.372 . S
N306 C308 1.361 . S
N306 C309 1.377 . S
C307 N304 1.382 . S
C307 N305 1.371 . S
C307 C310 1.480 . S
C308 N305 1.372 . S
C308 N306 1.361 . S
C308 C316 1.457 . S
C309 N304 1.363 . S
C309 N306 1.377 . S
C309 C322 1.479 . S
C310 C307 1.480 . S
C310 C311 1.383 . S
C310 C315 1.385 . S
C311 H292 0.947 . S
C311 C310 1.383 . S
C311 C312 1.388 . S
C312 H293 0.946 . S
C312 C311 1.388 . S
C312 C313 1.384 . S
C313 C312 1.384 . S
C313 C314 1.377 . S
C314 H294 0.953 . S
C314 C313 1.377 . S
C314 C315 1.369 . S
C315 H295 0.945 . S
C315 C310 1.385 . S
C315 C314 1.369 . S
C316 C308 1.457 . S
C316 C317 1.372 . S
C316 C321 1.364 . S
C317 H296 0.952 . S
C317 C316 1.372 . S
C317 C318 1.389 . S
C318 H297 0.949 . S
C318 C317 1.389 . S
C318 C319 1.387 . S
C319 C318 1.387 . S
C319 C320 1.372 . S
C320 H298 0.950 . S
C320 C319 1.372 . S
C320 C321 1.379 . S
C321 H299 0.948 . S
C321 C316 1.364 . S
C321 C320 1.379 . S
C322 C291 1.383 . S
C322 C309 1.479 . S
C322 C323 1.398 . S
C323 C288 1.382 . S
C323 H300 0.951 . S
C323 C322 1.398 . S
C324 C325 1.384 . S
C324 H337 0.947 . S
C324 C359 1.382 . S
C325 C324 1.384 . S
C325 C326 1.378 . S
C326 C325 1.378 . S
C326 C327 1.378 . S
C326 H338 0.952 . S
C327 C326 1.378 . S
C327 H339 0.950 . S
C327 C358 1.383 . S
H328 C347 0.947 . S
H329 C348 0.946 . S
H330 C350 0.953 . S
H331 C351 0.945 . S
H332 C353 0.952 . S
H333 C354 0.949 . S
H334 C356 0.950 . S
H335 C357 0.948 . S
H336 C359 0.951 . S
H337 C324 0.947 . S
H338 C326 0.952 . S
H339 C327 0.950 . S
N340 C343 1.382 . S
N340 C345 1.363 . S
N341 C343 1.371 . S
N341 C344 1.372 . S
N342 C344 1.361 . S
N342 C345 1.377 . S
C343 N340 1.382 . S
C343 N341 1.371 . S
C343 C346 1.480 . S
C344 N341 1.372 . S
C344 N342 1.361 . S
C344 C352 1.457 . S
C345 N340 1.363 . S
C345 N342 1.377 . S
C345 C358 1.479 . S
C346 C343 1.480 . S
C346 C347 1.383 . S
C346 C351 1.385 . S
C347 H328 0.947 . S
C347 C346 1.383 . S
C347 C348 1.388 . S
C348 H329 0.946 . S
C348 C347 1.388 . S
C348 C349 1.384 . S
C349 C348 1.384 . S
C349 C350 1.377 . S
C350 H330 0.953 . S
C350 C349 1.377 . S
C350 C351 1.369 . S
C351 H331 0.945 . S
C351 C346 1.385 . S
C351 C350 1.369 . S
C352 C344 1.457 . S
C352 C353 1.372 . S
C352 C357 1.364 . S
C353 H332 0.952 . S
C353 C352 1.372 . S
C353 C354 1.389 . S
C354 H333 0.949 . S
C354 C353 1.389 . S
C354 C355 1.387 . S
C355 C354 1.387 . S
C355 C356 1.372 . S
C356 H334 0.950 . S
C356 C355 1.372 . S
C356 C357 1.379 . S
C357 H335 0.948 . S
C357 C352 1.364 . S
C357 C356 1.379 . S
C358 C327 1.383 . S
C358 C345 1.479 . S
C358 C359 1.398 . S
C359 C324 1.382 . S
C359 H336 0.951 . S
C359 C358 1.398 . S
C360 C361 1.384 . S
C360 H373 0.947 . S
C360 C395 1.382 . S
C361 C360 1.384 . S
C361 C362 1.378 . S
C362 C361 1.378 . S
C362 C363 1.378 . S
C362 H374 0.952 . S
C363 C362 1.378 . S
C363 H375 0.950 . S
C363 C394 1.383 . S
H364 C383 0.947 . S
H365 C384 0.946 . S
H366 C386 0.953 . S
H367 C387 0.945 . S
H368 C389 0.952 . S
H369 C390 0.949 . S
H370 C392 0.950 . S
H371 C393 0.948 . S
H372 C395 0.951 . S
H373 C360 0.947 . S
H374 C362 0.952 . S
H375 C363 0.950 . S
N376 C379 1.382 . S
N376 C381 1.363 . S
N377 C379 1.371 . S
N377 C380 1.372 . S
N378 C380 1.361 . S
N378 C381 1.377 . S
C379 N376 1.382 . S
C379 N377 1.371 . S
C379 C382 1.480 . S
C380 N377 1.372 . S
C380 N378 1.361 . S
C380 C388 1.457 . S
C381 N376 1.363 . S
C381 N378 1.377 . S
C381 C394 1.479 . S
C382 C379 1.480 . S
C382 C383 1.383 . S
C382 C387 1.385 . S
C383 H364 0.947 . S
C383 C382 1.383 . S
C383 C384 1.388 . S
C384 H365 0.946 . S
C384 C383 1.388 . S
C384 C385 1.384 . S
C385 C384 1.384 . S
C385 C386 1.377 . S
C386 H366 0.953 . S
C386 C385 1.377 . S
C386 C387 1.369 . S
C387 H367 0.945 . S
C387 C382 1.385 . S
C387 C386 1.369 . S
C388 C380 1.457 . S
C388 C389 1.372 . S
C388 C393 1.364 . S
C389 H368 0.952 . S
C389 C388 1.372 . S
C389 C390 1.389 . S
C390 H369 0.949 . S
C390 C389 1.389 . S
C390 C391 1.387 . S
C391 C390 1.387 . S
C391 C392 1.372 . S
C392 H370 0.950 . S
C392 C391 1.372 . S
C392 C393 1.379 . S
C393 H371 0.948 . S
C393 C388 1.364 . S
C393 C392 1.379 . S
C394 C363 1.383 . S
C394 C381 1.479 . S
C394 C395 1.398 . S
C395 C360 1.382 . S
C395 H372 0.951 . S
C395 C394 1.398 . S
C396 C397 1.384 . S
C396 H409 0.947 . S
C396 C431 1.382 . S
C397 C396 1.384 . S
C397 C398 1.378 . S
C398 C397 1.378 . S
C398 C399 1.378 . S
C398 H410 0.952 . S
C399 C398 1.378 . S
C399 H411 0.950 . S
C399 C430 1.383 . S
H400 C419 0.947 . S
H401 C420 0.946 . S
H402 C422 0.953 . S
H403 C423 0.945 . S
H404 C425 0.952 . S
H405 C426 0.949 . S
H406 C428 0.950 . S
H407 C429 0.948 . S
H408 C431 0.951 . S
H409 C396 0.947 . S
H410 C398 0.952 . S
H411 C399 0.950 . S
N412 C415 1.382 . S
N412 C417 1.363 . S
N413 C415 1.371 . S
N413 C416 1.372 . S
N414 C416 1.361 . S
N414 C417 1.377 . S
C415 N412 1.382 . S
C415 N413 1.371 . S
C415 C418 1.480 . S
C416 N413 1.372 . S
C416 N414 1.361 . S
C416 C424 1.457 . S
C417 N412 1.363 . S
C417 N414 1.377 . S
C417 C430 1.479 . S
C418 C415 1.480 . S
C418 C419 1.383 . S
C418 C423 1.385 . S
C419 H400 0.947 . S
C419 C418 1.383 . S
C419 C420 1.388 . S
C420 H401 0.946 . S
C420 C419 1.388 . S
C420 C421 1.384 . S
C421 C420 1.384 . S
C421 C422 1.377 . S
C422 H402 0.953 . S
C422 C421 1.377 . S
C422 C423 1.369 . S
C423 H403 0.945 . S
C423 C418 1.385 . S
C423 C422 1.369 . S
C424 C416 1.457 . S
C424 C425 1.372 . S
C424 C429 1.364 . S
C425 H404 0.952 . S
C425 C424 1.372 . S
C425 C426 1.389 . S
C426 H405 0.949 . S
C426 C425 1.389 . S
C426 C427 1.387 . S
C427 C426 1.387 . S
C427 C428 1.372 . S
C428 H406 0.950 . S
C428 C427 1.372 . S
C428 C429 1.379 . S
C429 H407 0.948 . S
C429 C424 1.364 . S
C429 C428 1.379 . S
C430 C399 1.383 . S
C430 C417 1.479 . S
C430 C431 1.398 . S
C431 C396 1.382 . S
C431 H408 0.951 . S
C431 C430 1.398 . S
C432 C433 1.384 . S
C432 H445 0.947 . S
C432 C467 1.382 . S
C433 C432 1.384 . S
C433 C434 1.378 . S
C434 C433 1.378 . S
C434 C435 1.378 . S
C434 H446 0.952 . S
C435 C434 1.378 . S
C435 H447 0.950 . S
C435 C466 1.383 . S
H436 C455 0.947 . S
H437 C456 0.946 . S
H438 C458 0.953 . S
H439 C459 0.945 . S
H440 C461 0.952 . S
H441 C462 0.949 . S
H442 C464 0.950 . S
H443 C465 0.948 . S
H444 C467 0.951 . S
H445 C432 0.947 . S
H446 C434 0.952 . S
H447 C435 0.950 . S
N448 C451 1.382 . S
N448 C453 1.363 . S
N449 C451 1.371 . S
N449 C452 1.372 . S
N450 C452 1.361 . S
N450 C453 1.377 . S
C451 N448 1.382 . S
C451 N449 1.371 . S
C451 C454 1.480 . S
C452 N449 1.372 . S
C452 N450 1.361 . S
C452 C460 1.457 . S
C453 N448 1.363 . S
C453 N450 1.377 . S
C453 C466 1.479 . S
C454 C451 1.480 . S
C454 C455 1.383 . S
C454 C459 1.385 . S
C455 H436 0.947 . S
C455 C454 1.383 . S
C455 C456 1.388 . S
C456 H437 0.946 . S
C456 C455 1.388 . S
C456 C457 1.384 . S
C457 C456 1.384 . S
C457 C458 1.377 . S
C458 H438 0.953 . S
C458 C457 1.377 . S
C458 C459 1.369 . S
C459 H439 0.945 . S
C459 C454 1.385 . S
C459 C458 1.369 . S
C460 C452 1.457 . S
C460 C461 1.372 . S
C460 C465 1.364 . S
C461 H440 0.952 . S
C461 C460 1.372 . S
C461 C462 1.389 . S
C462 H441 0.949 . S
C462 C461 1.389 . S
C462 C463 1.387 . S
C463 C462 1.387 . S
C463 C464 1.372 . S
C464 H442 0.950 . S
C464 C463 1.372 . S
C464 C465 1.379 . S
C465 H443 0.948 . S
C465 C460 1.364 . S
C465 C464 1.379 . S
C466 C435 1.383 . S
C466 C453 1.479 . S
C466 C467 1.398 . S
C467 C432 1.382 . S
C467 H444 0.951 . S
C467 C466 1.398 . S
C468 C469 1.384 . S
C468 H481 0.947 . S
C468 C503 1.382 . S
C469 C468 1.384 . S
C469 C470 1.378 . S
C470 C469 1.378 . S
C470 C471 1.378 . S
C470 H482 0.952 . S
C471 C470 1.378 . S
C471 H483 0.950 . S
C471 C502 1.383 . S
H472 C491 0.947 . S
H473 C492 0.946 . S
H474 C494 0.953 . S
H475 C495 0.945 . S
H476 C497 0.952 . S
H477 C498 0.949 . S
H478 C500 0.950 . S
H479 C501 0.948 . S
H480 C503 0.951 . S
H481 C468 0.947 . S
H482 C470 0.952 . S
H483 C471 0.950 . S
N484 C487 1.382 . S
N484 C489 1.363 . S
N485 C487 1.371 . S
N485 C488 1.372 . S
N486 C488 1.361 . S
N486 C489 1.377 . S
C487 N484 1.382 . S
C487 N485 1.371 . S
C487 C490 1.480 . S
C488 N485 1.372 . S
C488 N486 1.361 . S
C488 C496 1.457 . S
C489 N484 1.363 . S
C489 N486 1.377 . S
C489 C502 1.479 . S
C490 C487 1.480 . S
C490 C491 1.383 . S
C490 C495 1.385 . S
C491 H472 0.947 . S
C491 C490 1.383 . S
C491 C492 1.388 . S
C492 H473 0.946 . S
C492 C491 1.388 . S
C492 C493 1.384 . S
C493 C492 1.384 . S
C493 C494 1.377 . S
C494 H474 0.953 . S
C494 C493 1.377 . S
C494 C495 1.369 . S
C495 H475 0.945 . S
C495 C490 1.385 . S
C495 C494 1.369 . S
C496 C488 1.457 . S
C496 C497 1.372 . S
C496 C501 1.364 . S
C497 H476 0.952 . S
C497 C496 1.372 . S
C497 C498 1.389 . S
C498 H477 0.949 . S
C498 C497 1.389 . S
C498 C499 1.387 . S
C499 C498 1.387 . S
C499 C500 1.372 . S
C500 H478 0.950 . S
C500 C499 1.372 . S
C500 C501 1.379 . S
C501 H479 0.948 . S
C501 C496 1.364 . S
C501 C500 1.379 . S
C502 C471 1.383 . S
C502 C489 1.479 . S
C502 C503 1.398 . S
C503 C468 1.382 . S
C503 H480 0.951 . S
C503 C502 1.398 . S
C504 C505 1.384 . S
C504 H517 0.947 . S
C504 C539 1.382 . S
C505 C504 1.384 . S
C505 C506 1.378 . S
C506 C505 1.378 . S
C506 C507 1.378 . S
C506 H518 0.952 . S
C507 C506 1.378 . S
C507 H519 0.950 . S
C507 C538 1.383 . S
H508 C527 0.947 . S
H509 C528 0.946 . S
H510 C530 0.953 . S
H511 C531 0.945 . S
H512 C533 0.952 . S
H513 C534 0.949 . S
H514 C536 0.950 . S
H515 C537 0.948 . S
H516 C539 0.951 . S
H517 C504 0.947 . S
H518 C506 0.952 . S
H519 C507 0.950 . S
N520 C523 1.382 . S
N520 C525 1.363 . S
N521 C523 1.371 . S
N521 C524 1.372 . S
N522 C524 1.361 . S
N522 C525 1.377 . S
C523 N520 1.382 . S
C523 N521 1.371 . S
C523 C526 1.480 . S
C524 N521 1.372 . S
C524 N522 1.361 . S
C524 C532 1.457 . S
C525 N520 1.363 . S
C525 N522 1.377 . S
C525 C538 1.479 . S
C526 C523 1.480 . S
C526 C527 1.383 . S
C526 C531 1.385 . S
C527 H508 0.947 . S
C527 C526 1.383 . S
C527 C528 1.388 . S
C528 H509 0.946 . S
C528 C527 1.388 . S
C528 C529 1.384 . S
C529 C528 1.384 . S
C529 C530 1.377 . S
C530 H510 0.953 . S
C530 C529 1.377 . S
C530 C531 1.369 . S
C531 H511 0.945 . S
C531 C526 1.385 . S
C531 C530 1.369 . S
C532 C524 1.457 . S
C532 C533 1.372 . S
C532 C537 1.364 . S
C533 H512 0.952 . S
C533 C532 1.372 . S
C533 C534 1.389 . S
C534 H513 0.949 . S
C534 C533 1.389 . S
C534 C535 1.387 . S
C535 C534 1.387 . S
C535 C536 1.372 . S
C536 H514 0.950 . S
C536 C535 1.372 . S
C536 C537 1.379 . S
C537 H515 0.948 . S
C537 C532 1.364 . S
C537 C536 1.379 . S
C538 C507 1.383 . S
C538 C525 1.479 . S
C538 C539 1.398 . S
C539 C504 1.382 . S
C539 H516 0.951 . S
C539 C538 1.398 . S
C540 C541 1.384 . S
C540 H553 0.947 . S
C540 C575 1.382 . S
C541 C540 1.384 . S
C541 C542 1.378 . S
C542 C541 1.378 . S
C542 C543 1.378 . S
C542 H554 0.952 . S
C543 C542 1.378 . S
C543 H555 0.950 . S
C543 C574 1.383 . S
H544 C563 0.947 . S
H545 C564 0.946 . S
H546 C566 0.953 . S
H547 C567 0.945 . S
H548 C569 0.952 . S
H549 C570 0.949 . S
H550 C572 0.950 . S
H551 C573 0.948 . S
H552 C575 0.951 . S
H553 C540 0.947 . S
H554 C542 0.952 . S
H555 C543 0.950 . S
N556 C559 1.382 . S
N556 C561 1.363 . S
N557 C559 1.371 . S
N557 C560 1.372 . S
N558 C560 1.361 . S
N558 C561 1.377 . S
C559 N556 1.382 . S
C559 N557 1.371 . S
C559 C562 1.480 . S
C560 N557 1.372 . S
C560 N558 1.361 . S
C560 C568 1.457 . S
C561 N556 1.363 . S
C561 N558 1.377 . S
C561 C574 1.479 . S
C562 C559 1.480 . S
C562 C563 1.383 . S
C562 C567 1.385 . S
C563 H544 0.947 . S
C563 C562 1.383 . S
C563 C564 1.388 . S
C564 H545 0.946 . S
C564 C563 1.388 . S
C564 C565 1.384 . S
C565 C564 1.384 . S
C565 C566 1.377 . S
C566 H546 0.953 . S
C566 C565 1.377 . S
C566 C567 1.369 . S
C567 H547 0.945 . S
C567 C562 1.385 . S
C567 C566 1.369 . S
C568 C560 1.457 . S
C568 C569 1.372 . S
C568 C573 1.364 . S
C569 H548 0.952 . S
C569 C568 1.372 . S
C569 C570 1.389 . S
C570 H549 0.949 . S
C570 C569 1.389 . S
C570 C571 1.387 . S
C571 C570 1.387 . S
C571 C572 1.372 . S
C572 H550 0.950 . S
C572 C571 1.372 . S
C572 C573 1.379 . S
C573 H551 0.948 . S
C573 C568 1.364 . S
C573 C572 1.379 . S
C574 C543 1.383 . S
C574 C561 1.479 . S
C574 C575 1.398 . S
C575 C540 1.382 . S
C575 H552 0.951 . S
C575 C574 1.398 . S
C576 C577 1.384 . S
C576 H589 0.947 . S
C576 C611 1.382 . S
C577 C576 1.384 . S
C577 C578 1.378 . S
C578 C577 1.378 . S
C578 C579 1.378 . S
C578 H590 0.952 . S
C579 C578 1.378 . S
C579 H591 0.950 . S
C579 C610 1.383 . S
H580 C599 0.947 . S
H581 C600 0.946 . S
H582 C602 0.953 . S
H583 C603 0.945 . S
H584 C605 0.952 . S
H585 C606 0.949 . S
H586 C608 0.950 . S
H587 C609 0.948 . S
H588 C611 0.951 . S
H589 C576 0.947 . S
H590 C578 0.952 . S
H591 C579 0.950 . S
N592 C595 1.382 . S
N592 C597 1.363 . S
N593 C595 1.371 . S
N593 C596 1.372 . S
N594 C596 1.361 . S
N594 C597 1.377 . S
C595 N592 1.382 . S
C595 N593 1.371 . S
C595 C598 1.480 . S
C596 N593 1.372 . S
C596 N594 1.361 . S
C596 C604 1.457 . S
C597 N592 1.363 . S
C597 N594 1.377 . S
C597 C610 1.479 . S
C598 C595 1.480 . S
C598 C599 1.383 . S
C598 C603 1.385 . S
C599 H580 0.947 . S
C599 C598 1.383 . S
C599 C600 1.388 . S
C600 H581 0.946 . S
C600 C599 1.388 . S
C600 C601 1.384 . S
C601 C600 1.384 . S
C601 C602 1.377 . S
C602 H582 0.953 . S
C602 C601 1.377 . S
C602 C603 1.369 . S
C603 H583 0.945 . S
C603 C598 1.385 . S
C603 C602 1.369 . S
C604 C596 1.457 . S
C604 C605 1.372 . S
C604 C609 1.364 . S
C605 H584 0.952 . S
C605 C604 1.372 . S
C605 C606 1.389 . S
C606 H585 0.949 . S
C606 C605 1.389 . S
C606 C607 1.387 . S
C607 C606 1.387 . S
C607 C608 1.372 . S
C608 H586 0.950 . S
C608 C607 1.372 . S
C608 C609 1.379 . S
C609 H587 0.948 . S
C609 C604 1.364 . S
C609 C608 1.379 . S
C610 C579 1.383 . S
C610 C597 1.479 . S
C610 C611 1.398 . S
C611 C576 1.382 . S
C611 H588 0.951 . S
C611 C610 1.398 . S
C612 C613 1.384 . S
C612 H625 0.947 . S
C612 C647 1.382 . S
C613 C612 1.384 . S
C613 C614 1.378 . S
C614 C613 1.378 . S
C614 C615 1.378 . S
C614 H626 0.952 . S
C615 C614 1.378 . S
C615 H627 0.950 . S
C615 C646 1.383 . S
H616 C635 0.947 . S
H617 C636 0.946 . S
H618 C638 0.953 . S
H619 C639 0.945 . S
H620 C641 0.952 . S
H621 C642 0.949 . S
H622 C644 0.950 . S
H623 C645 0.948 . S
H624 C647 0.951 . S
H625 C612 0.947 . S
H626 C614 0.952 . S
H627 C615 0.950 . S
N628 C631 1.382 . S
N628 C633 1.363 . S
N629 C631 1.371 . S
N629 C632 1.372 . S
N630 C632 1.361 . S
N630 C633 1.377 . S
C631 N628 1.382 . S
C631 N629 1.371 . S
C631 C634 1.480 . S
C632 N629 1.372 . S
C632 N630 1.361 . S
C632 C640 1.457 . S
C633 N628 1.363 . S
C633 N630 1.377 . S
C633 C646 1.479 . S
C634 C631 1.480 . S
C634 C635 1.383 . S
C634 C639 1.385 . S
C635 H616 0.947 . S
C635 C634 1.383 . S
C635 C636 1.388 . S
C636 H617 0.946 . S
C636 C635 1.388 . S
C636 C637 1.384 . S
C637 C636 1.384 . S
C637 C638 1.377 . S
C638 H618 0.953 . S
C638 C637 1.377 . S
C638 C639 1.369 . S
C639 H619 0.945 . S
C639 C634 1.385 . S
C639 C638 1.369 . S
C640 C632 1.457 . S
C640 C641 1.372 . S
C640 C645 1.364 . S
C641 H620 0.952 . S
C641 C640 1.372 . S
C641 C642 1.389 . S
C642 H621 0.949 . S
C642 C641 1.389 . S
C642 C643 1.387 . S
C643 C642 1.387 . S
C643 C644 1.372 . S
C644 H622 0.950 . S
C644 C643 1.372 . S
C644 C645 1.379 . S
C645 H623 0.948 . S
C645 C640 1.364 . S
C645 C644 1.379 . S
C646 C615 1.383 . S
C646 C633 1.479 . S
C646 C647 1.398 . S
C647 C612 1.382 . S
C647 H624 0.951 . S
C647 C646 1.398 . S
Gd648 N679 2.661 . S
Gd648 N685 2.601 . S
Gd648 O692 2.545 . S
Gd648 O693 2.606 1_545 S
Gd648 O695 2.429 . S
Gd648 O696 2.545 1_545 S
Gd648 O697 2.412 . S
Gd648 O699 2.362 1_554 S
Gd648 O700 2.324 1_545 S
Gd648 C707 2.828 . S
Gd649 N658 2.661 . S
Gd649 N662 2.601 . S
Gd649 O693 2.362 1_556 S
Gd649 O694 2.324 1_565 S
Gd649 O698 2.545 . S
Gd649 O699 2.606 1_565 S
Gd649 O701 2.429 . S
Gd649 O702 2.545 1_565 S
Gd649 O703 2.412 . S
Gd649 C716 2.828 . S
C650 C653 1.417 . S
C650 C655 1.431 . S
C650 C656 1.412 . S
C651 C654 1.437 . S
C651 C655 1.317 . S
C651 H670 0.929 . S
C652 C653 1.426 . S
C652 C654 1.413 . S
C652 N662 1.359 . S
C653 C650 1.417 . S
C653 C652 1.426 . S
C653 N658 1.350 . S
C654 C651 1.437 . S
C654 C652 1.413 . S
C654 C664 1.391 . S
C655 C650 1.431 . S
C655 C651 1.317 . S
C655 H666 0.930 . S
C656 C650 1.412 . S
C656 C657 1.355 . S
C656 H668 0.930 . S
C657 C656 1.355 . S
C657 C659 1.402 . S
C657 H669 0.930 . S
N658 Gd649 2.661 . S
N658 C653 1.350 . S
N658 C659 1.307 . S
C659 C657 1.402 . S
C659 N658 1.307 . S
C659 H660 0.930 . S
H660 C659 0.930 . S
C661 N662 1.334 . S
C661 C663 1.394 . S
C661 H665 0.930 . S
N662 Gd649 2.601 . S
N662 C652 1.359 . S
N662 C661 1.334 . S
C663 C661 1.394 . S
C663 C664 1.359 . S
C663 H675 0.930 . S
C664 C654 1.391 . S
C664 C663 1.359 . S
C664 H676 0.929 . S
H665 C661 0.930 . S
H666 C655 0.930 . S
H667 C684 0.930 . S
H668 C656 0.930 . S
H669 C657 0.930 . S
H670 C651 0.929 . S
H671 C689 0.930 . S
H672 C680 0.930 . S
H673 C681 0.930 . S
H674 C705 0.929 . S
H675 C663 0.930 . S
H676 C664 0.929 . S
H677 C706 0.930 . S
H678 C687 0.930 . S
N679 Gd648 2.661 . S
N679 C683 1.350 . S
N679 C684 1.307 . S
C680 H672 0.930 . S
C680 C681 1.355 . S
C680 C682 1.412 . S
C681 H673 0.930 . S
C681 C680 1.355 . S
C681 C684 1.402 . S
C682 C680 1.412 . S
C682 C683 1.417 . S
C682 C706 1.431 . S
C683 N679 1.350 . S
C683 C682 1.417 . S
C683 C686 1.426 . S
C684 H667 0.930 . S
C684 N679 1.307 . S
C684 C681 1.402 . S
N685 Gd648 2.601 . S
N685 C686 1.359 . S
N685 C689 1.334 . S
C686 C683 1.426 . S
C686 N685 1.359 . S
C686 C690 1.413 . S
C687 H678 0.930 . S
C687 C688 1.359 . S
C687 C689 1.394 . S
C688 C687 1.359 . S
C688 C690 1.391 . S
C688 H691 0.929 . S
C689 H671 0.930 . S
C689 N685 1.334 . S
C689 C687 1.394 . S
C690 C686 1.413 . S
C690 C688 1.391 . S
C690 C705 1.437 . S
H691 C688 0.929 . S
O692 Gd648 2.545 . S
O692 C707 1.258 . S
O693 Gd648 2.606 1_565 S
O693 Gd649 2.362 1_554 S
O693 C704 1.284 . S
O694 Gd649 2.324 1_545 S
O694 C714 1.254 . S
O695 Gd648 2.429 . S
O695 C714 1.268 1_554 S
O696 Gd648 2.545 1_565 S
O696 C704 1.250 . S
O697 Gd648 2.412 . S
O697 C707 1.252 . S
O698 Gd649 2.545 . S
O698 C716 1.258 . S
O699 Gd648 2.362 1_556 S
O699 Gd649 2.606 1_545 S
O699 C715 1.284 . S
O700 Gd648 2.324 1_565 S
O700 C723 1.254 . S
O701 Gd649 2.429 . S
O701 C723 1.268 1_556 S
O702 Gd649 2.545 1_545 S
O702 C715 1.250 . S
O703 Gd649 2.412 . S
O703 C716 1.252 . S
C704 O693 1.284 . S
C704 O696 1.250 . S
C705 H674 0.929 . S
C705 C690 1.437 . S
C705 C706 1.317 . S
C706 H677 0.930 . S
C706 C682 1.431 . S
C706 C705 1.317 . S
C707 Gd648 2.828 . S
C707 O692 1.258 . S
C707 O697 1.252 . S
C707 C708 1.497 . S
C708 C707 1.497 . S
C708 C709 1.395 . S
C708 C710 1.380 1_545 S
C709 C708 1.395 . S
C709 C712 1.398 . S
C709 H724 0.930 . S
C710 C708 1.380 1_565 S
C710 C711 1.391 . S
C710 H725 0.930 . S
C711 C710 1.391 . S
C711 C713 1.387 1_565 S
C712 C709 1.398 . S
C712 C713 1.380 . S
C712 H726 0.930 . S
C713 C711 1.387 1_545 S
C713 C712 1.380 . S
C713 H727 0.930 . S
C714 O694 1.254 . S
C714 O695 1.268 1_556 S
C715 O699 1.284 . S
C715 O702 1.250 . S
C716 Gd649 2.828 . S
C716 O698 1.258 . S
C716 O703 1.252 . S
C716 C717 1.497 . S
C717 C716 1.497 . S
C717 C718 1.395 . S
C717 C719 1.380 1_565 S
C718 C717 1.395 . S
C718 C721 1.398 . S
C718 H728 0.930 . S
C719 C717 1.380 1_545 S
C719 C720 1.391 . S
C719 H729 0.930 . S
C720 C719 1.391 . S
C720 C722 1.387 1_545 S
C721 C718 1.398 . S
C721 C722 1.380 . S
C721 H730 0.930 . S
C722 C720 1.387 1_565 S
C722 C721 1.380 . S
C722 H731 0.930 . S
C723 O700 1.254 . S
C723 O701 1.268 1_554 S
H724 C709 0.930 . S
H725 C710 0.930 . S
H726 C712 0.930 . S
H727 C713 0.930 . S
H728 C718 0.930 . S
H729 C719 0.930 . S
H730 C721 0.930 . S
H731 C722 0.930 . S
Gd732 N763 2.661 . S
Gd732 N769 2.601 . S
Gd732 O776 2.545 . S
Gd732 O777 2.606 1_655 S
Gd732 O779 2.429 . S
Gd732 O780 2.545 1_655 S
Gd732 O781 2.412 . S
Gd732 O783 2.362 1_554 S
Gd732 O784 2.324 1_655 S
Gd732 C791 2.828 . S
Gd733 N742 2.661 . S
Gd733 N746 2.601 . S
Gd733 O777 2.362 1_556 S
Gd733 O778 2.324 1_455 S
Gd733 O782 2.545 . S
Gd733 O783 2.606 1_455 S
Gd733 O785 2.429 . S
Gd733 O786 2.545 1_455 S
Gd733 O787 2.412 . S
Gd733 C800 2.828 . S
C734 C737 1.417 . S
C734 C739 1.431 . S
C734 C740 1.412 . S
C735 C738 1.437 . S
C735 C739 1.317 . S
C735 H754 0.929 . S
C736 C737 1.426 . S
C736 C738 1.413 . S
C736 N746 1.359 . S
C737 C734 1.417 . S
C737 C736 1.426 . S
C737 N742 1.350 . S
C738 C735 1.437 . S
C738 C736 1.413 . S
C738 C748 1.391 . S
C739 C734 1.431 . S
C739 C735 1.317 . S
C739 H750 0.930 . S
C740 C734 1.412 . S
C740 C741 1.355 . S
C740 H752 0.930 . S
C741 C740 1.355 . S
C741 C743 1.402 . S
C741 H753 0.930 . S
N742 Gd733 2.661 . S
N742 C737 1.350 . S
N742 C743 1.307 . S
C743 C741 1.402 . S
C743 N742 1.307 . S
C743 H744 0.930 . S
H744 C743 0.930 . S
C745 N746 1.334 . S
C745 C747 1.394 . S
C745 H749 0.930 . S
N746 Gd733 2.601 . S
N746 C736 1.359 . S
N746 C745 1.334 . S
C747 C745 1.394 . S
C747 C748 1.359 . S
C747 H759 0.930 . S
C748 C738 1.391 . S
C748 C747 1.359 . S
C748 H760 0.929 . S
H749 C745 0.930 . S
H750 C739 0.930 . S
H751 C768 0.930 . S
H752 C740 0.930 . S
H753 C741 0.930 . S
H754 C735 0.929 . S
H755 C773 0.930 . S
H756 C764 0.930 . S
H757 C765 0.930 . S
H758 C789 0.929 . S
H759 C747 0.930 . S
H760 C748 0.929 . S
H761 C790 0.930 . S
H762 C771 0.930 . S
N763 Gd732 2.661 . S
N763 C767 1.350 . S
N763 C768 1.307 . S
C764 H756 0.930 . S
C764 C765 1.355 . S
C764 C766 1.412 . S
C765 H757 0.930 . S
C765 C764 1.355 . S
C765 C768 1.402 . S
C766 C764 1.412 . S
C766 C767 1.417 . S
C766 C790 1.431 . S
C767 N763 1.350 . S
C767 C766 1.417 . S
C767 C770 1.426 . S
C768 H751 0.930 . S
C768 N763 1.307 . S
C768 C765 1.402 . S
N769 Gd732 2.601 . S
N769 C770 1.359 . S
N769 C773 1.334 . S
C770 C767 1.426 . S
C770 N769 1.359 . S
C770 C774 1.413 . S
C771 H762 0.930 . S
C771 C772 1.359 . S
C771 C773 1.394 . S
C772 C771 1.359 . S
C772 C774 1.391 . S
C772 H775 0.929 . S
C773 H755 0.930 . S
C773 N769 1.334 . S
C773 C771 1.394 . S
C774 C770 1.413 . S
C774 C772 1.391 . S
C774 C789 1.437 . S
H775 C772 0.929 . S
O776 Gd732 2.545 . S
O776 C791 1.258 . S
O777 Gd732 2.606 1_455 S
O777 Gd733 2.362 1_554 S
O777 C788 1.284 . S
O778 Gd733 2.324 1_655 S
O778 C798 1.254 . S
O779 Gd732 2.429 . S
O779 C798 1.268 1_554 S
O780 Gd732 2.545 1_455 S
O780 C788 1.250 . S
O781 Gd732 2.412 . S
O781 C791 1.252 . S
O782 Gd733 2.545 . S
O782 C800 1.258 . S
O783 Gd732 2.362 1_556 S
O783 Gd733 2.606 1_655 S
O783 C799 1.284 . S
O784 Gd732 2.324 1_455 S
O784 C807 1.254 . S
O785 Gd733 2.429 . S
O785 C807 1.268 1_556 S
O786 Gd733 2.545 1_655 S
O786 C799 1.250 . S
O787 Gd733 2.412 . S
O787 C800 1.252 . S
C788 O777 1.284 . S
C788 O780 1.250 . S
C789 H758 0.929 . S
C789 C774 1.437 . S
C789 C790 1.317 . S
C790 H761 0.930 . S
C790 C766 1.431 . S
C790 C789 1.317 . S
C791 Gd732 2.828 . S
C791 O776 1.258 . S
C791 O781 1.252 . S
C791 C792 1.497 . S
C792 C791 1.497 . S
C792 C793 1.395 . S
C792 C794 1.380 1_655 S
C793 C792 1.395 . S
C793 C796 1.398 . S
C793 H808 0.930 . S
C794 C792 1.380 1_455 S
C794 C795 1.391 . S
C794 H809 0.930 . S
C795 C794 1.391 . S
C795 C797 1.387 1_455 S
C796 C793 1.398 . S
C796 C797 1.380 . S
C796 H810 0.930 . S
C797 C795 1.387 1_655 S
C797 C796 1.380 . S
C797 H811 0.930 . S
C798 O778 1.254 . S
C798 O779 1.268 1_556 S
C799 O783 1.284 . S
C799 O786 1.250 . S
C800 Gd733 2.828 . S
C800 O782 1.258 . S
C800 O787 1.252 . S
C800 C801 1.497 . S
C801 C800 1.497 . S
C801 C802 1.395 . S
C801 C803 1.380 1_455 S
C802 C801 1.395 . S
C802 C805 1.398 . S
C802 H812 0.930 . S
C803 C801 1.380 1_655 S
C803 C804 1.391 . S
C803 H813 0.930 . S
C804 C803 1.391 . S
C804 C806 1.387 1_655 S
C805 C802 1.398 . S
C805 C806 1.380 . S
C805 H814 0.930 . S
C806 C804 1.387 1_455 S
C806 C805 1.380 . S
C806 H815 0.930 . S
C807 O784 1.254 . S
C807 O785 1.268 1_554 S
H808 C793 0.930 . S
H809 C794 0.930 . S
H810 C796 0.930 . S
H811 C797 0.930 . S
H812 C802 0.930 . S
H813 C803 0.930 . S
H814 C805 0.930 . S
H815 C806 0.930 . S
Gd816 N847 2.661 . S
Gd816 N853 2.601 . S
Gd816 O860 2.545 . S
Gd816 O861 2.606 . S
Gd816 O863 2.429 . S
Gd816 O864 2.545 . S
Gd816 O865 2.412 . S
Gd816 O867 2.362 1_556 S
Gd816 O868 2.324 . S
Gd816 C875 2.828 . S
Gd817 N826 2.661 . S
Gd817 N830 2.601 . S
Gd817 O861 2.362 1_554 S
Gd817 O862 2.324 . S
Gd817 O866 2.545 . S
Gd817 O867 2.606 . S
Gd817 O869 2.429 . S
Gd817 O870 2.545 . S
Gd817 O871 2.412 . S
Gd817 C884 2.828 . S
C818 C821 1.417 . S
C818 C823 1.431 . S
C818 C824 1.412 . S
C819 C822 1.437 . S
C819 C823 1.317 . S
C819 H838 0.929 . S
C820 C821 1.426 . S
C820 C822 1.413 . S
C820 N830 1.359 . S
C821 C818 1.417 . S
C821 C820 1.426 . S
C821 N826 1.350 . S
C822 C819 1.437 . S
C822 C820 1.413 . S
C822 C832 1.391 . S
C823 C818 1.431 . S
C823 C819 1.317 . S
C823 H834 0.930 . S
C824 C818 1.412 . S
C824 C825 1.355 . S
C824 H836 0.930 . S
C825 C824 1.355 . S
C825 C827 1.402 . S
C825 H837 0.930 . S
N826 Gd817 2.661 . S
N826 C821 1.350 . S
N826 C827 1.307 . S
C827 C825 1.402 . S
C827 N826 1.307 . S
C827 H828 0.930 . S
H828 C827 0.930 . S
C829 N830 1.334 . S
C829 C831 1.394 . S
C829 H833 0.930 . S
N830 Gd817 2.601 . S
N830 C820 1.359 . S
N830 C829 1.334 . S
C831 C829 1.394 . S
C831 C832 1.359 . S
C831 H843 0.930 . S
C832 C822 1.391 . S
C832 C831 1.359 . S
C832 H844 0.929 . S
H833 C829 0.930 . S
H834 C823 0.930 . S
H835 C852 0.930 . S
H836 C824 0.930 . S
H837 C825 0.930 . S
H838 C819 0.929 . S
H839 C857 0.930 . S
H840 C848 0.930 . S
H841 C849 0.930 . S
H842 C873 0.929 . S
H843 C831 0.930 . S
H844 C832 0.929 . S
H845 C874 0.930 . S
H846 C855 0.930 . S
N847 Gd816 2.661 . S
N847 C851 1.350 . S
N847 C852 1.307 . S
C848 H840 0.930 . S
C848 C849 1.355 . S
C848 C850 1.412 . S
C849 H841 0.930 . S
C849 C848 1.355 . S
C849 C852 1.402 . S
C850 C848 1.412 . S
C850 C851 1.417 . S
C850 C874 1.431 . S
C851 N847 1.350 . S
C851 C850 1.417 . S
C851 C854 1.426 . S
C852 H835 0.930 . S
C852 N847 1.307 . S
C852 C849 1.402 . S
N853 Gd816 2.601 . S
N853 C854 1.359 . S
N853 C857 1.334 . S
C854 C851 1.426 . S
C854 N853 1.359 . S
C854 C858 1.413 . S
C855 H846 0.930 . S
C855 C856 1.359 . S
C855 C857 1.394 . S
C856 C855 1.359 . S
C856 C858 1.391 . S
C856 H859 0.929 . S
C857 H839 0.930 . S
C857 N853 1.334 . S
C857 C855 1.394 . S
C858 C854 1.413 . S
C858 C856 1.391 . S
C858 C873 1.437 . S
H859 C856 0.929 . S
O860 Gd816 2.545 . S
O860 C875 1.258 . S
O861 Gd816 2.606 . S
O861 Gd817 2.362 1_556 S
O861 C872 1.284 . S
O862 Gd817 2.324 . S
O862 C882 1.254 . S
O863 Gd816 2.429 . S
O863 C882 1.268 1_556 S
O864 Gd816 2.545 . S
O864 C872 1.250 . S
O865 Gd816 2.412 . S
O865 C875 1.252 . S
O866 Gd817 2.545 . S
O866 C884 1.258 . S
O867 Gd816 2.362 1_554 S
O867 Gd817 2.606 . S
O867 C883 1.284 . S
O868 Gd816 2.324 . S
O868 C891 1.254 . S
O869 Gd817 2.429 . S
O869 C891 1.268 1_554 S
O870 Gd817 2.545 . S
O870 C883 1.250 . S
O871 Gd817 2.412 . S
O871 C884 1.252 . S
C872 O861 1.284 . S
C872 O864 1.250 . S
C873 H842 0.929 . S
C873 C858 1.437 . S
C873 C874 1.317 . S
C874 H845 0.930 . S
C874 C850 1.431 . S
C874 C873 1.317 . S
C875 Gd816 2.828 . S
C875 O860 1.258 . S
C875 O865 1.252 . S
C875 C876 1.497 . S
C876 C875 1.497 . S
C876 C877 1.395 . S
C876 C878 1.380 . S
C877 C876 1.395 . S
C877 C880 1.398 . S
C877 H892 0.930 . S
C878 C876 1.380 . S
C878 C879 1.391 . S
C878 H893 0.930 . S
C879 C878 1.391 . S
C879 C881 1.387 . S
C880 C877 1.398 . S
C880 C881 1.380 . S
C880 H894 0.930 . S
C881 C879 1.387 . S
C881 C880 1.380 . S
C881 H895 0.930 . S
C882 O862 1.254 . S
C882 O863 1.268 1_554 S
C883 O867 1.284 . S
C883 O870 1.250 . S
C884 Gd817 2.828 . S
C884 O866 1.258 . S
C884 O871 1.252 . S
C884 C885 1.497 . S
C885 C884 1.497 . S
C885 C886 1.395 . S
C885 C887 1.380 . S
C886 C885 1.395 . S
C886 C889 1.398 . S
C886 H896 0.930 . S
C887 C885 1.380 . S
C887 C888 1.391 . S
C887 H897 0.930 . S
C888 C887 1.391 . S
C888 C890 1.387 . S
C889 C886 1.398 . S
C889 C890 1.380 . S
C889 H898 0.930 . S
C890 C888 1.387 . S
C890 C889 1.380 . S
C890 H899 0.930 . S
C891 O868 1.254 . S
C891 O869 1.268 1_556 S
H892 C877 0.930 . S
H893 C878 0.930 . S
H894 C880 0.930 . S
H895 C881 0.930 . S
H896 C886 0.930 . S
H897 C887 0.930 . S
H898 C889 0.930 . S
H899 C890 0.930 . S
Gd900 N931 2.661 . S
Gd900 N937 2.601 . S
Gd900 O944 2.545 . S
Gd900 O945 2.606 . S
Gd900 O947 2.429 . S
Gd900 O948 2.545 . S
Gd900 O949 2.412 . S
Gd900 O951 2.362 . S
Gd900 O952 2.324 . S
Gd900 C959 2.828 . S
Gd901 N910 2.661 . S
Gd901 N914 2.601 . S
Gd901 O945 2.362 . S
Gd901 O946 2.324 . S
Gd901 O950 2.545 . S
Gd901 O951 2.606 . S
Gd901 O953 2.429 . S
Gd901 O954 2.545 . S
Gd901 O955 2.412 . S
Gd901 C968 2.828 . S
C902 C905 1.417 . S
C902 C907 1.431 . S
C902 C908 1.412 . S
C903 C906 1.437 . S
C903 C907 1.317 . S
C903 H922 0.929 . S
C904 C905 1.426 . S
C904 C906 1.413 . S
C904 N914 1.359 . S
C905 C902 1.417 . S
C905 C904 1.426 . S
C905 N910 1.350 . S
C906 C903 1.437 . S
C906 C904 1.413 . S
C906 C916 1.391 . S
C907 C902 1.431 . S
C907 C903 1.317 . S
C907 H918 0.930 . S
C908 C902 1.412 . S
C908 C909 1.355 . S
C908 H920 0.930 . S
C909 C908 1.355 . S
C909 C911 1.402 . S
C909 H921 0.930 . S
N910 Gd901 2.661 . S
N910 C905 1.350 . S
N910 C911 1.307 . S
C911 C909 1.402 . S
C911 N910 1.307 . S
C911 H912 0.930 . S
H912 C911 0.930 . S
C913 N914 1.334 . S
C913 C915 1.394 . S
C913 H917 0.930 . S
N914 Gd901 2.601 . S
N914 C904 1.359 . S
N914 C913 1.334 . S
C915 C913 1.394 . S
C915 C916 1.359 . S
C915 H927 0.930 . S
C916 C906 1.391 . S
C916 C915 1.359 . S
C916 H928 0.929 . S
H917 C913 0.930 . S
H918 C907 0.930 . S
H919 C936 0.930 . S
H920 C908 0.930 . S
H921 C909 0.930 . S
H922 C903 0.929 . S
H923 C941 0.930 . S
H924 C932 0.930 . S
H925 C933 0.930 . S
H926 C957 0.929 . S
H927 C915 0.930 . S
H928 C916 0.929 . S
H929 C958 0.930 . S
H930 C939 0.930 . S
N931 Gd900 2.661 . S
N931 C935 1.350 . S
N931 C936 1.307 . S
C932 H924 0.930 . S
C932 C933 1.355 . S
C932 C934 1.412 . S
C933 H925 0.930 . S
C933 C932 1.355 . S
C933 C936 1.402 . S
C934 C932 1.412 . S
C934 C935 1.417 . S
C934 C958 1.431 . S
C935 N931 1.350 . S
C935 C934 1.417 . S
C935 C938 1.426 . S
C936 H919 0.930 . S
C936 N931 1.307 . S
C936 C933 1.402 . S
N937 Gd900 2.601 . S
N937 C938 1.359 . S
N937 C941 1.334 . S
C938 C935 1.426 . S
C938 N937 1.359 . S
C938 C942 1.413 . S
C939 H930 0.930 . S
C939 C940 1.359 . S
C939 C941 1.394 . S
C940 C939 1.359 . S
C940 C942 1.391 . S
C940 H943 0.929 . S
C941 H923 0.930 . S
C941 N937 1.334 . S
C941 C939 1.394 . S
C942 C938 1.413 . S
C942 C940 1.391 . S
C942 C957 1.437 . S
H943 C940 0.929 . S
O944 Gd900 2.545 . S
O944 C959 1.258 . S
O945 Gd900 2.606 . S
O945 Gd901 2.362 . S
O945 C956 1.284 . S
O946 Gd901 2.324 . S
O946 C966 1.254 . S
O947 Gd900 2.429 . S
O947 C966 1.268 . S
O948 Gd900 2.545 . S
O948 C956 1.250 . S
O949 Gd900 2.412 . S
O949 C959 1.252 . S
O950 Gd901 2.545 . S
O950 C968 1.258 . S
O951 Gd900 2.362 . S
O951 Gd901 2.606 . S
O951 C967 1.284 . S
O952 Gd900 2.324 . S
O952 C975 1.254 . S
O953 Gd901 2.429 . S
O953 C975 1.268 . S
O954 Gd901 2.545 . S
O954 C967 1.250 . S
O955 Gd901 2.412 . S
O955 C968 1.252 . S
C956 O945 1.284 . S
C956 O948 1.250 . S
C957 H926 0.929 . S
C957 C942 1.437 . S
C957 C958 1.317 . S
C958 H929 0.930 . S
C958 C934 1.431 . S
C958 C957 1.317 . S
C959 Gd900 2.828 . S
C959 O944 1.258 . S
C959 O949 1.252 . S
C959 C960 1.497 . S
C960 C959 1.497 . S
C960 C961 1.395 . S
C960 C962 1.380 . S
C961 C960 1.395 . S
C961 C964 1.398 . S
C961 H976 0.930 . S
C962 C960 1.380 . S
C962 C963 1.391 . S
C962 H977 0.930 . S
C963 C962 1.391 . S
C963 C965 1.387 . S
C964 C961 1.398 . S
C964 C965 1.380 . S
C964 H978 0.930 . S
C965 C963 1.387 . S
C965 C964 1.380 . S
C965 H979 0.930 . S
C966 O946 1.254 . S
C966 O947 1.268 . S
C967 O951 1.284 . S
C967 O954 1.250 . S
C968 Gd901 2.828 . S
C968 O950 1.258 . S
C968 O955 1.252 . S
C968 C969 1.497 . S
C969 C968 1.497 . S
C969 C970 1.395 . S
C969 C971 1.380 . S
C970 C969 1.395 . S
C970 C973 1.398 . S
C970 H980 0.930 . S
C971 C969 1.380 . S
C971 C972 1.391 . S
C971 H981 0.930 . S
C972 C971 1.391 . S
C972 C974 1.387 . S
C973 C970 1.398 . S
C973 C974 1.380 . S
C973 H982 0.930 . S
C974 C972 1.387 . S
C974 C973 1.380 . S
C974 H983 0.930 . S
C975 O952 1.254 . S
C975 O953 1.268 . S
H976 C961 0.930 . S
H977 C962 0.930 . S
H978 C964 0.930 . S
H979 C965 0.930 . S
H980 C970 0.930 . S
H981 C971 0.930 . S
H982 C973 0.930 . S
H983 C974 0.930 . S
Gd984 N1015 2.661 . S
Gd984 N1021 2.601 . S
Gd984 O1028 2.545 . S
Gd984 O1029 2.606 . S
Gd984 O1031 2.429 . S
Gd984 O1032 2.545 . S
Gd984 O1033 2.412 . S
Gd984 O1035 2.362 . S
Gd984 O1036 2.324 . S
Gd984 C1043 2.828 . S
Gd985 N994 2.661 . S
Gd985 N998 2.601 . S
Gd985 O1029 2.362 . S
Gd985 O1030 2.324 . S
Gd985 O1034 2.545 . S
Gd985 O1035 2.606 . S
Gd985 O1037 2.429 . S
Gd985 O1038 2.545 . S
Gd985 O1039 2.412 . S
Gd985 C1052 2.828 . S
C986 C989 1.417 . S
C986 C991 1.431 . S
C986 C992 1.412 . S
C987 C990 1.437 . S
C987 C991 1.317 . S
C987 H1006 0.929 . S
C988 C989 1.426 . S
C988 C990 1.413 . S
C988 N998 1.359 . S
C989 C986 1.417 . S
C989 C988 1.426 . S
C989 N994 1.350 . S
C990 C987 1.437 . S
C990 C988 1.413 . S
C990 C1000 1.391 . S
C991 C986 1.431 . S
C991 C987 1.317 . S
C991 H1002 0.930 . S
C992 C986 1.412 . S
C992 C993 1.355 . S
C992 H1004 0.930 . S
C993 C992 1.355 . S
C993 C995 1.402 . S
C993 H1005 0.930 . S
N994 Gd985 2.661 . S
N994 C989 1.350 . S
N994 C995 1.307 . S
C995 C993 1.402 . S
C995 N994 1.307 . S
C995 H996 0.930 . S
H996 C995 0.930 . S
C997 N998 1.334 . S
C997 C999 1.394 . S
C997 H1001 0.930 . S
N998 Gd985 2.601 . S
N998 C988 1.359 . S
N998 C997 1.334 . S
C999 C997 1.394 . S
C999 C1000 1.359 . S
C999 H1011 0.930 . S
C1000 C990 1.391 . S
C1000 C999 1.359 . S
C1000 H1012 0.929 . S
H1001 C997 0.930 . S
H1002 C991 0.930 . S
H1003 C1020 0.930 . S
H1004 C992 0.930 . S
H1005 C993 0.930 . S
H1006 C987 0.929 . S
H1007 C1025 0.930 . S
H1008 C1016 0.930 . S
H1009 C1017 0.930 . S
H1010 C1041 0.929 . S
H1011 C999 0.930 . S
H1012 C1000 0.929 . S
H1013 C1042 0.930 . S
H1014 C1023 0.930 . S
N1015 Gd984 2.661 . S
N1015 C1019 1.350 . S
N1015 C1020 1.307 . S
C1016 H1008 0.930 . S
C1016 C1017 1.355 . S
C1016 C1018 1.412 . S
C1017 H1009 0.930 . S
C1017 C1016 1.355 . S
C1017 C1020 1.402 . S
C1018 C1016 1.412 . S
C1018 C1019 1.417 . S
C1018 C1042 1.431 . S
C1019 N1015 1.350 . S
C1019 C1018 1.417 . S
C1019 C1022 1.426 . S
C1020 H1003 0.930 . S
C1020 N1015 1.307 . S
C1020 C1017 1.402 . S
N1021 Gd984 2.601 . S
N1021 C1022 1.359 . S
N1021 C1025 1.334 . S
C1022 C1019 1.426 . S
C1022 N1021 1.359 . S
C1022 C1026 1.413 . S
C1023 H1014 0.930 . S
C1023 C1024 1.359 . S
C1023 C1025 1.394 . S
C1024 C1023 1.359 . S
C1024 C1026 1.391 . S
C1024 H1027 0.929 . S
C1025 H1007 0.930 . S
C1025 N1021 1.334 . S
C1025 C1023 1.394 . S
C1026 C1022 1.413 . S
C1026 C1024 1.391 . S
C1026 C1041 1.437 . S
H1027 C1024 0.929 . S
O1028 Gd984 2.545 . S
O1028 C1043 1.258 . S
O1029 Gd984 2.606 . S
O1029 Gd985 2.362 . S
O1029 C1040 1.284 . S
O1030 Gd985 2.324 . S
O1030 C1050 1.254 . S
O1031 Gd984 2.429 . S
O1031 C1050 1.268 . S
O1032 Gd984 2.545 . S
O1032 C1040 1.250 . S
O1033 Gd984 2.412 . S
O1033 C1043 1.252 . S
O1034 Gd985 2.545 . S
O1034 C1052 1.258 . S
O1035 Gd984 2.362 . S
O1035 Gd985 2.606 . S
O1035 C1051 1.284 . S
O1036 Gd984 2.324 . S
O1036 C1059 1.254 . S
O1037 Gd985 2.429 . S
O1037 C1059 1.268 . S
O1038 Gd985 2.545 . S
O1038 C1051 1.250 . S
O1039 Gd985 2.412 . S
O1039 C1052 1.252 . S
C1040 O1029 1.284 . S
C1040 O1032 1.250 . S
C1041 H1010 0.929 . S
C1041 C1026 1.437 . S
C1041 C1042 1.317 . S
C1042 H1013 0.930 . S
C1042 C1018 1.431 . S
C1042 C1041 1.317 . S
C1043 Gd984 2.828 . S
C1043 O1028 1.258 . S
C1043 O1033 1.252 . S
C1043 C1044 1.497 . S
C1044 C1043 1.497 . S
C1044 C1045 1.395 . S
C1044 C1046 1.380 . S
C1045 C1044 1.395 . S
C1045 C1048 1.398 . S
C1045 H1060 0.930 . S
C1046 C1044 1.380 . S
C1046 C1047 1.391 . S
C1046 H1061 0.930 . S
C1047 C1046 1.391 . S
C1047 C1049 1.387 . S
C1048 C1045 1.398 . S
C1048 C1049 1.380 . S
C1048 H1062 0.930 . S
C1049 C1047 1.387 . S
C1049 C1048 1.380 . S
C1049 H1063 0.930 . S
C1050 O1030 1.254 . S
C1050 O1031 1.268 . S
C1051 O1035 1.284 . S
C1051 O1038 1.250 . S
C1052 Gd985 2.828 . S
C1052 O1034 1.258 . S
C1052 O1039 1.252 . S
C1052 C1053 1.497 . S
C1053 C1052 1.497 . S
C1053 C1054 1.395 . S
C1053 C1055 1.380 . S
C1054 C1053 1.395 . S
C1054 C1057 1.398 . S
C1054 H1064 0.930 . S
C1055 C1053 1.380 . S
C1055 C1056 1.391 . S
C1055 H1065 0.930 . S
C1056 C1055 1.391 . S
C1056 C1058 1.387 . S
C1057 C1054 1.398 . S
C1057 C1058 1.380 . S
C1057 H1066 0.930 . S
C1058 C1056 1.387 . S
C1058 C1057 1.380 . S
C1058 H1067 0.930 . S
C1059 O1036 1.254 . S
C1059 O1037 1.268 . S
H1060 C1045 0.930 . S
H1061 C1046 0.930 . S
H1062 C1048 0.930 . S
H1063 C1049 0.930 . S
H1064 C1054 0.930 . S
H1065 C1055 0.930 . S
H1066 C1057 0.930 . S
H1067 C1058 0.930 . S
Gd1068 N1099 2.661 . S
Gd1068 N1105 2.601 . S
Gd1068 O1112 2.545 . S
Gd1068 O1113 2.606 . S
Gd1068 O1115 2.429 . S
Gd1068 O1116 2.545 . S
Gd1068 O1117 2.412 . S
Gd1068 O1119 2.362 . S
Gd1068 O1120 2.324 . S
Gd1068 C1127 2.828 . S
Gd1069 N1078 2.661 . S
Gd1069 N1082 2.601 . S
Gd1069 O1113 2.362 . S
Gd1069 O1114 2.324 . S
Gd1069 O1118 2.545 . S
Gd1069 O1119 2.606 . S
Gd1069 O1121 2.429 . S
Gd1069 O1122 2.545 . S
Gd1069 O1123 2.412 . S
Gd1069 C1136 2.828 . S
C1070 C1073 1.417 . S
C1070 C1075 1.431 . S
C1070 C1076 1.412 . S
C1071 C1074 1.437 . S
C1071 C1075 1.317 . S
C1071 H1090 0.929 . S
C1072 C1073 1.426 . S
C1072 C1074 1.413 . S
C1072 N1082 1.359 . S
C1073 C1070 1.417 . S
C1073 C1072 1.426 . S
C1073 N1078 1.350 . S
C1074 C1071 1.437 . S
C1074 C1072 1.413 . S
C1074 C1084 1.391 . S
C1075 C1070 1.431 . S
C1075 C1071 1.317 . S
C1075 H1086 0.930 . S
C1076 C1070 1.412 . S
C1076 C1077 1.355 . S
C1076 H1088 0.930 . S
C1077 C1076 1.355 . S
C1077 C1079 1.402 . S
C1077 H1089 0.930 . S
N1078 Gd1069 2.661 . S
N1078 C1073 1.350 . S
N1078 C1079 1.307 . S
C1079 C1077 1.402 . S
C1079 N1078 1.307 . S
C1079 H1080 0.930 . S
H1080 C1079 0.930 . S
C1081 N1082 1.334 . S
C1081 C1083 1.394 . S
C1081 H1085 0.930 . S
N1082 Gd1069 2.601 . S
N1082 C1072 1.359 . S
N1082 C1081 1.334 . S
C1083 C1081 1.394 . S
C1083 C1084 1.359 . S
C1083 H1095 0.930 . S
C1084 C1074 1.391 . S
C1084 C1083 1.359 . S
C1084 H1096 0.929 . S
H1085 C1081 0.930 . S
H1086 C1075 0.930 . S
H1087 C1104 0.930 . S
H1088 C1076 0.930 . S
H1089 C1077 0.930 . S
H1090 C1071 0.929 . S
H1091 C1109 0.930 . S
H1092 C1100 0.930 . S
H1093 C1101 0.930 . S
H1094 C1125 0.929 . S
H1095 C1083 0.930 . S
H1096 C1084 0.929 . S
H1097 C1126 0.930 . S
H1098 C1107 0.930 . S
N1099 Gd1068 2.661 . S
N1099 C1103 1.350 . S
N1099 C1104 1.307 . S
C1100 H1092 0.930 . S
C1100 C1101 1.355 . S
C1100 C1102 1.412 . S
C1101 H1093 0.930 . S
C1101 C1100 1.355 . S
C1101 C1104 1.402 . S
C1102 C1100 1.412 . S
C1102 C1103 1.417 . S
C1102 C1126 1.431 . S
C1103 N1099 1.350 . S
C1103 C1102 1.417 . S
C1103 C1106 1.426 . S
C1104 H1087 0.930 . S
C1104 N1099 1.307 . S
C1104 C1101 1.402 . S
N1105 Gd1068 2.601 . S
N1105 C1106 1.359 . S
N1105 C1109 1.334 . S
C1106 C1103 1.426 . S
C1106 N1105 1.359 . S
C1106 C1110 1.413 . S
C1107 H1098 0.930 . S
C1107 C1108 1.359 . S
C1107 C1109 1.394 . S
C1108 C1107 1.359 . S
C1108 C1110 1.391 . S
C1108 H1111 0.929 . S
C1109 H1091 0.930 . S
C1109 N1105 1.334 . S
C1109 C1107 1.394 . S
C1110 C1106 1.413 . S
C1110 C1108 1.391 . S
C1110 C1125 1.437 . S
H1111 C1108 0.929 . S
O1112 Gd1068 2.545 . S
O1112 C1127 1.258 . S
O1113 Gd1068 2.606 . S
O1113 Gd1069 2.362 . S
O1113 C1124 1.284 . S
O1114 Gd1069 2.324 . S
O1114 C1134 1.254 . S
O1115 Gd1068 2.429 . S
O1115 C1134 1.268 . S
O1116 Gd1068 2.545 . S
O1116 C1124 1.250 . S
O1117 Gd1068 2.412 . S
O1117 C1127 1.252 . S
O1118 Gd1069 2.545 . S
O1118 C1136 1.258 . S
O1119 Gd1068 2.362 . S
O1119 Gd1069 2.606 . S
O1119 C1135 1.284 . S
O1120 Gd1068 2.324 . S
O1120 C1143 1.254 . S
O1121 Gd1069 2.429 . S
O1121 C1143 1.268 . S
O1122 Gd1069 2.545 . S
O1122 C1135 1.250 . S
O1123 Gd1069 2.412 . S
O1123 C1136 1.252 . S
C1124 O1113 1.284 . S
C1124 O1116 1.250 . S
C1125 H1094 0.929 . S
C1125 C1110 1.437 . S
C1125 C1126 1.317 . S
C1126 H1097 0.930 . S
C1126 C1102 1.431 . S
C1126 C1125 1.317 . S
C1127 Gd1068 2.828 . S
C1127 O1112 1.258 . S
C1127 O1117 1.252 . S
C1127 C1128 1.497 . S
C1128 C1127 1.497 . S
C1128 C1129 1.395 . S
C1128 C1130 1.380 . S
C1129 C1128 1.395 . S
C1129 C1132 1.398 . S
C1129 H1144 0.930 . S
C1130 C1128 1.380 . S
C1130 C1131 1.391 . S
C1130 H1145 0.930 . S
C1131 C1130 1.391 . S
C1131 C1133 1.387 . S
C1132 C1129 1.398 . S
C1132 C1133 1.380 . S
C1132 H1146 0.930 . S
C1133 C1131 1.387 . S
C1133 C1132 1.380 . S
C1133 H1147 0.930 . S
C1134 O1114 1.254 . S
C1134 O1115 1.268 . S
C1135 O1119 1.284 . S
C1135 O1122 1.250 . S
C1136 Gd1069 2.828 . S
C1136 O1118 1.258 . S
C1136 O1123 1.252 . S
C1136 C1137 1.497 . S
C1137 C1136 1.497 . S
C1137 C1138 1.395 . S
C1137 C1139 1.380 . S
C1138 C1137 1.395 . S
C1138 C1141 1.398 . S
C1138 H1148 0.930 . S
C1139 C1137 1.380 . S
C1139 C1140 1.391 . S
C1139 H1149 0.930 . S
C1140 C1139 1.391 . S
C1140 C1142 1.387 . S
C1141 C1138 1.398 . S
C1141 C1142 1.380 . S
C1141 H1150 0.930 . S
C1142 C1140 1.387 . S
C1142 C1141 1.380 . S
C1142 H1151 0.930 . S
C1143 O1120 1.254 . S
C1143 O1121 1.268 . S
H1144 C1129 0.930 . S
H1145 C1130 0.930 . S
H1146 C1132 0.930 . S
H1147 C1133 0.930 . S
H1148 C1138 0.930 . S
H1149 C1139 0.930 . S
H1150 C1141 0.930 . S
H1151 C1142 0.930 . S
Gd1152 N1183 2.661 . S
Gd1152 N1189 2.601 . S
Gd1152 O1196 2.545 . S
Gd1152 O1197 2.606 . S
Gd1152 O1199 2.429 . S
Gd1152 O1200 2.545 . S
Gd1152 O1201 2.412 . S
Gd1152 O1203 2.362 . S
Gd1152 O1204 2.324 . S
Gd1152 C1211 2.828 . S
Gd1153 N1162 2.661 . S
Gd1153 N1166 2.601 . S
Gd1153 O1197 2.362 . S
Gd1153 O1198 2.324 . S
Gd1153 O1202 2.545 . S
Gd1153 O1203 2.606 . S
Gd1153 O1205 2.429 . S
Gd1153 O1206 2.545 . S
Gd1153 O1207 2.412 . S
Gd1153 C1220 2.828 . S
C1154 C1157 1.417 . S
C1154 C1159 1.431 . S
C1154 C1160 1.412 . S
C1155 C1158 1.437 . S
C1155 C1159 1.317 . S
C1155 H1174 0.929 . S
C1156 C1157 1.426 . S
C1156 C1158 1.413 . S
C1156 N1166 1.359 . S
C1157 C1154 1.417 . S
C1157 C1156 1.426 . S
C1157 N1162 1.350 . S
C1158 C1155 1.437 . S
C1158 C1156 1.413 . S
C1158 C1168 1.391 . S
C1159 C1154 1.431 . S
C1159 C1155 1.317 . S
C1159 H1170 0.930 . S
C1160 C1154 1.412 . S
C1160 C1161 1.355 . S
C1160 H1172 0.930 . S
C1161 C1160 1.355 . S
C1161 C1163 1.402 . S
C1161 H1173 0.930 . S
N1162 Gd1153 2.661 . S
N1162 C1157 1.350 . S
N1162 C1163 1.307 . S
C1163 C1161 1.402 . S
C1163 N1162 1.307 . S
C1163 H1164 0.930 . S
H1164 C1163 0.930 . S
C1165 N1166 1.334 . S
C1165 C1167 1.394 . S
C1165 H1169 0.930 . S
N1166 Gd1153 2.601 . S
N1166 C1156 1.359 . S
N1166 C1165 1.334 . S
C1167 C1165 1.394 . S
C1167 C1168 1.359 . S
C1167 H1179 0.930 . S
C1168 C1158 1.391 . S
C1168 C1167 1.359 . S
C1168 H1180 0.929 . S
H1169 C1165 0.930 . S
H1170 C1159 0.930 . S
H1171 C1188 0.930 . S
H1172 C1160 0.930 . S
H1173 C1161 0.930 . S
H1174 C1155 0.929 . S
H1175 C1193 0.930 . S
H1176 C1184 0.930 . S
H1177 C1185 0.930 . S
H1178 C1209 0.929 . S
H1179 C1167 0.930 . S
H1180 C1168 0.929 . S
H1181 C1210 0.930 . S
H1182 C1191 0.930 . S
N1183 Gd1152 2.661 . S
N1183 C1187 1.350 . S
N1183 C1188 1.307 . S
C1184 H1176 0.930 . S
C1184 C1185 1.355 . S
C1184 C1186 1.412 . S
C1185 H1177 0.930 . S
C1185 C1184 1.355 . S
C1185 C1188 1.402 . S
C1186 C1184 1.412 . S
C1186 C1187 1.417 . S
C1186 C1210 1.431 . S
C1187 N1183 1.350 . S
C1187 C1186 1.417 . S
C1187 C1190 1.426 . S
C1188 H1171 0.930 . S
C1188 N1183 1.307 . S
C1188 C1185 1.402 . S
N1189 Gd1152 2.601 . S
N1189 C1190 1.359 . S
N1189 C1193 1.334 . S
C1190 C1187 1.426 . S
C1190 N1189 1.359 . S
C1190 C1194 1.413 . S
C1191 H1182 0.930 . S
C1191 C1192 1.359 . S
C1191 C1193 1.394 . S
C1192 C1191 1.359 . S
C1192 C1194 1.391 . S
C1192 H1195 0.929 . S
C1193 H1175 0.930 . S
C1193 N1189 1.334 . S
C1193 C1191 1.394 . S
C1194 C1190 1.413 . S
C1194 C1192 1.391 . S
C1194 C1209 1.437 . S
H1195 C1192 0.929 . S
O1196 Gd1152 2.545 . S
O1196 C1211 1.258 . S
O1197 Gd1152 2.606 . S
O1197 Gd1153 2.362 . S
O1197 C1208 1.284 . S
O1198 Gd1153 2.324 . S
O1198 C1218 1.254 . S
O1199 Gd1152 2.429 . S
O1199 C1218 1.268 . S
O1200 Gd1152 2.545 . S
O1200 C1208 1.250 . S
O1201 Gd1152 2.412 . S
O1201 C1211 1.252 . S
O1202 Gd1153 2.545 . S
O1202 C1220 1.258 . S
O1203 Gd1152 2.362 . S
O1203 Gd1153 2.606 . S
O1203 C1219 1.284 . S
O1204 Gd1152 2.324 . S
O1204 C1227 1.254 . S
O1205 Gd1153 2.429 . S
O1205 C1227 1.268 . S
O1206 Gd1153 2.545 . S
O1206 C1219 1.250 . S
O1207 Gd1153 2.412 . S
O1207 C1220 1.252 . S
C1208 O1197 1.284 . S
C1208 O1200 1.250 . S
C1209 H1178 0.929 . S
C1209 C1194 1.437 . S
C1209 C1210 1.317 . S
C1210 H1181 0.930 . S
C1210 C1186 1.431 . S
C1210 C1209 1.317 . S
C1211 Gd1152 2.828 . S
C1211 O1196 1.258 . S
C1211 O1201 1.252 . S
C1211 C1212 1.497 . S
C1212 C1211 1.497 . S
C1212 C1213 1.395 . S
C1212 C1214 1.380 . S
C1213 C1212 1.395 . S
C1213 C1216 1.398 . S
C1213 H1228 0.930 . S
C1214 C1212 1.380 . S
C1214 C1215 1.391 . S
C1214 H1229 0.930 . S
C1215 C1214 1.391 . S
C1215 C1217 1.387 . S
C1216 C1213 1.398 . S
C1216 C1217 1.380 . S
C1216 H1230 0.930 . S
C1217 C1215 1.387 . S
C1217 C1216 1.380 . S
C1217 H1231 0.930 . S
C1218 O1198 1.254 . S
C1218 O1199 1.268 . S
C1219 O1203 1.284 . S
C1219 O1206 1.250 . S
C1220 Gd1153 2.828 . S
C1220 O1202 1.258 . S
C1220 O1207 1.252 . S
C1220 C1221 1.497 . S
C1221 C1220 1.497 . S
C1221 C1222 1.395 . S
C1221 C1223 1.380 . S
C1222 C1221 1.395 . S
C1222 C1225 1.398 . S
C1222 H1232 0.930 . S
C1223 C1221 1.380 . S
C1223 C1224 1.391 . S
C1223 H1233 0.930 . S
C1224 C1223 1.391 . S
C1224 C1226 1.387 . S
C1225 C1222 1.398 . S
C1225 C1226 1.380 . S
C1225 H1234 0.930 . S
C1226 C1224 1.387 . S
C1226 C1225 1.380 . S
C1226 H1235 0.930 . S
C1227 O1204 1.254 . S
C1227 O1205 1.268 . S
H1228 C1213 0.930 . S
H1229 C1214 0.930 . S
H1230 C1216 0.930 . S
H1231 C1217 0.930 . S
H1232 C1222 0.930 . S
H1233 C1223 0.930 . S
H1234 C1225 0.930 . S
H1235 C1226 0.930 . S
Gd1236 N1267 2.661 . S
Gd1236 N1273 2.601 . S
Gd1236 O1280 2.545 . S
Gd1236 O1281 2.606 . S
Gd1236 O1283 2.429 . S
Gd1236 O1284 2.545 . S
Gd1236 O1285 2.412 . S
Gd1236 O1287 2.362 . S
Gd1236 O1288 2.324 . S
Gd1236 C1295 2.828 . S
Gd1237 N1246 2.661 . S
Gd1237 N1250 2.601 . S
Gd1237 O1281 2.362 . S
Gd1237 O1282 2.324 . S
Gd1237 O1286 2.545 . S
Gd1237 O1287 2.606 . S
Gd1237 O1289 2.429 . S
Gd1237 O1290 2.545 . S
Gd1237 O1291 2.412 . S
Gd1237 C1304 2.828 . S
C1238 C1241 1.417 . S
C1238 C1243 1.431 . S
C1238 C1244 1.412 . S
C1239 C1242 1.437 . S
C1239 C1243 1.317 . S
C1239 H1258 0.929 . S
C1240 C1241 1.426 . S
C1240 C1242 1.413 . S
C1240 N1250 1.359 . S
C1241 C1238 1.417 . S
C1241 C1240 1.426 . S
C1241 N1246 1.350 . S
C1242 C1239 1.437 . S
C1242 C1240 1.413 . S
C1242 C1252 1.391 . S
C1243 C1238 1.431 . S
C1243 C1239 1.317 . S
C1243 H1254 0.930 . S
C1244 C1238 1.412 . S
C1244 C1245 1.355 . S
C1244 H1256 0.930 . S
C1245 C1244 1.355 . S
C1245 C1247 1.402 . S
C1245 H1257 0.930 . S
N1246 Gd1237 2.661 . S
N1246 C1241 1.350 . S
N1246 C1247 1.307 . S
C1247 C1245 1.402 . S
C1247 N1246 1.307 . S
C1247 H1248 0.930 . S
H1248 C1247 0.930 . S
C1249 N1250 1.334 . S
C1249 C1251 1.394 . S
C1249 H1253 0.930 . S
N1250 Gd1237 2.601 . S
N1250 C1240 1.359 . S
N1250 C1249 1.334 . S
C1251 C1249 1.394 . S
C1251 C1252 1.359 . S
C1251 H1263 0.930 . S
C1252 C1242 1.391 . S
C1252 C1251 1.359 . S
C1252 H1264 0.929 . S
H1253 C1249 0.930 . S
H1254 C1243 0.930 . S
H1255 C1272 0.930 . S
H1256 C1244 0.930 . S
H1257 C1245 0.930 . S
H1258 C1239 0.929 . S
H1259 C1277 0.930 . S
H1260 C1268 0.930 . S
H1261 C1269 0.930 . S
H1262 C1293 0.929 . S
H1263 C1251 0.930 . S
H1264 C1252 0.929 . S
H1265 C1294 0.930 . S
H1266 C1275 0.930 . S
N1267 Gd1236 2.661 . S
N1267 C1271 1.350 . S
N1267 C1272 1.307 . S
C1268 H1260 0.930 . S
C1268 C1269 1.355 . S
C1268 C1270 1.412 . S
C1269 H1261 0.930 . S
C1269 C1268 1.355 . S
C1269 C1272 1.402 . S
C1270 C1268 1.412 . S
C1270 C1271 1.417 . S
C1270 C1294 1.431 . S
C1271 N1267 1.350 . S
C1271 C1270 1.417 . S
C1271 C1274 1.426 . S
C1272 H1255 0.930 . S
C1272 N1267 1.307 . S
C1272 C1269 1.402 . S
N1273 Gd1236 2.601 . S
N1273 C1274 1.359 . S
N1273 C1277 1.334 . S
C1274 C1271 1.426 . S
C1274 N1273 1.359 . S
C1274 C1278 1.413 . S
C1275 H1266 0.930 . S
C1275 C1276 1.359 . S
C1275 C1277 1.394 . S
C1276 C1275 1.359 . S
C1276 C1278 1.391 . S
C1276 H1279 0.929 . S
C1277 H1259 0.930 . S
C1277 N1273 1.334 . S
C1277 C1275 1.394 . S
C1278 C1274 1.413 . S
C1278 C1276 1.391 . S
C1278 C1293 1.437 . S
H1279 C1276 0.929 . S
O1280 Gd1236 2.545 . S
O1280 C1295 1.258 . S
O1281 Gd1236 2.606 . S
O1281 Gd1237 2.362 . S
O1281 C1292 1.284 . S
O1282 Gd1237 2.324 . S
O1282 C1302 1.254 . S
O1283 Gd1236 2.429 . S
O1283 C1302 1.268 . S
O1284 Gd1236 2.545 . S
O1284 C1292 1.250 . S
O1285 Gd1236 2.412 . S
O1285 C1295 1.252 . S
O1286 Gd1237 2.545 . S
O1286 C1304 1.258 . S
O1287 Gd1236 2.362 . S
O1287 Gd1237 2.606 . S
O1287 C1303 1.284 . S
O1288 Gd1236 2.324 . S
O1288 C1311 1.254 . S
O1289 Gd1237 2.429 . S
O1289 C1311 1.268 . S
O1290 Gd1237 2.545 . S
O1290 C1303 1.250 . S
O1291 Gd1237 2.412 . S
O1291 C1304 1.252 . S
C1292 O1281 1.284 . S
C1292 O1284 1.250 . S
C1293 H1262 0.929 . S
C1293 C1278 1.437 . S
C1293 C1294 1.317 . S
C1294 H1265 0.930 . S
C1294 C1270 1.431 . S
C1294 C1293 1.317 . S
C1295 Gd1236 2.828 . S
C1295 O1280 1.258 . S
C1295 O1285 1.252 . S
C1295 C1296 1.497 . S
C1296 C1295 1.497 . S
C1296 C1297 1.395 . S
C1296 C1298 1.380 . S
C1297 C1296 1.395 . S
C1297 C1300 1.398 . S
C1297 H1312 0.930 . S
C1298 C1296 1.380 . S
C1298 C1299 1.391 . S
C1298 H1313 0.930 . S
C1299 C1298 1.391 . S
C1299 C1301 1.387 . S
C1300 C1297 1.398 . S
C1300 C1301 1.380 . S
C1300 H1314 0.930 . S
C1301 C1299 1.387 . S
C1301 C1300 1.380 . S
C1301 H1315 0.930 . S
C1302 O1282 1.254 . S
C1302 O1283 1.268 . S
C1303 O1287 1.284 . S
C1303 O1290 1.250 . S
C1304 Gd1237 2.828 . S
C1304 O1286 1.258 . S
C1304 O1291 1.252 . S
C1304 C1305 1.497 . S
C1305 C1304 1.497 . S
C1305 C1306 1.395 . S
C1305 C1307 1.380 . S
C1306 C1305 1.395 . S
C1306 C1309 1.398 . S
C1306 H1316 0.930 . S
C1307 C1305 1.380 . S
C1307 C1308 1.391 . S
C1307 H1317 0.930 . S
C1308 C1307 1.391 . S
C1308 C1310 1.387 . S
C1309 C1306 1.398 . S
C1309 C1310 1.380 . S
C1309 H1318 0.930 . S
C1310 C1308 1.387 . S
C1310 C1309 1.380 . S
C1310 H1319 0.930 . S
C1311 O1288 1.254 . S
C1311 O1289 1.268 . S
H1312 C1297 0.930 . S
H1313 C1298 0.930 . S
H1314 C1300 0.930 . S
H1315 C1301 0.930 . S
H1316 C1306 0.930 . S
H1317 C1307 0.930 . S
H1318 C1309 0.930 . S
H1319 C1310 0.930 . S
Gd1320 N1351 2.661 . S
Gd1320 N1357 2.601 . S
Gd1320 O1364 2.545 . S
Gd1320 O1365 2.606 . S
Gd1320 O1367 2.429 . S
Gd1320 O1368 2.545 . S
Gd1320 O1369 2.412 . S
Gd1320 O1371 2.362 . S
Gd1320 O1372 2.324 . S
Gd1320 C1379 2.828 . S
Gd1321 N1330 2.661 . S
Gd1321 N1334 2.601 . S
Gd1321 O1365 2.362 . S
Gd1321 O1366 2.324 . S
Gd1321 O1370 2.545 . S
Gd1321 O1371 2.606 . S
Gd1321 O1373 2.429 . S
Gd1321 O1374 2.545 . S
Gd1321 O1375 2.412 . S
Gd1321 C1388 2.828 . S
C1322 C1325 1.417 . S
C1322 C1327 1.431 . S
C1322 C1328 1.412 . S
C1323 C1326 1.437 . S
C1323 C1327 1.317 . S
C1323 H1342 0.929 . S
C1324 C1325 1.426 . S
C1324 C1326 1.413 . S
C1324 N1334 1.359 . S
C1325 C1322 1.417 . S
C1325 C1324 1.426 . S
C1325 N1330 1.350 . S
C1326 C1323 1.437 . S
C1326 C1324 1.413 . S
C1326 C1336 1.391 . S
C1327 C1322 1.431 . S
C1327 C1323 1.317 . S
C1327 H1338 0.930 . S
C1328 C1322 1.412 . S
C1328 C1329 1.355 . S
C1328 H1340 0.930 . S
C1329 C1328 1.355 . S
C1329 C1331 1.402 . S
C1329 H1341 0.930 . S
N1330 Gd1321 2.661 . S
N1330 C1325 1.350 . S
N1330 C1331 1.307 . S
C1331 C1329 1.402 . S
C1331 N1330 1.307 . S
C1331 H1332 0.930 . S
H1332 C1331 0.930 . S
C1333 N1334 1.334 . S
C1333 C1335 1.394 . S
C1333 H1337 0.930 . S
N1334 Gd1321 2.601 . S
N1334 C1324 1.359 . S
N1334 C1333 1.334 . S
C1335 C1333 1.394 . S
C1335 C1336 1.359 . S
C1335 H1347 0.930 . S
C1336 C1326 1.391 . S
C1336 C1335 1.359 . S
C1336 H1348 0.929 . S
H1337 C1333 0.930 . S
H1338 C1327 0.930 . S
H1339 C1356 0.930 . S
H1340 C1328 0.930 . S
H1341 C1329 0.930 . S
H1342 C1323 0.929 . S
H1343 C1361 0.930 . S
H1344 C1352 0.930 . S
H1345 C1353 0.930 . S
H1346 C1377 0.929 . S
H1347 C1335 0.930 . S
H1348 C1336 0.929 . S
H1349 C1378 0.930 . S
H1350 C1359 0.930 . S
N1351 Gd1320 2.661 . S
N1351 C1355 1.350 . S
N1351 C1356 1.307 . S
C1352 H1344 0.930 . S
C1352 C1353 1.355 . S
C1352 C1354 1.412 . S
C1353 H1345 0.930 . S
C1353 C1352 1.355 . S
C1353 C1356 1.402 . S
C1354 C1352 1.412 . S
C1354 C1355 1.417 . S
C1354 C1378 1.431 . S
C1355 N1351 1.350 . S
C1355 C1354 1.417 . S
C1355 C1358 1.426 . S
C1356 H1339 0.930 . S
C1356 N1351 1.307 . S
C1356 C1353 1.402 . S
N1357 Gd1320 2.601 . S
N1357 C1358 1.359 . S
N1357 C1361 1.334 . S
C1358 C1355 1.426 . S
C1358 N1357 1.359 . S
C1358 C1362 1.413 . S
C1359 H1350 0.930 . S
C1359 C1360 1.359 . S
C1359 C1361 1.394 . S
C1360 C1359 1.359 . S
C1360 C1362 1.391 . S
C1360 H1363 0.929 . S
C1361 H1343 0.930 . S
C1361 N1357 1.334 . S
C1361 C1359 1.394 . S
C1362 C1358 1.413 . S
C1362 C1360 1.391 . S
C1362 C1377 1.437 . S
H1363 C1360 0.929 . S
O1364 Gd1320 2.545 . S
O1364 C1379 1.258 . S
O1365 Gd1320 2.606 . S
O1365 Gd1321 2.362 . S
O1365 C1376 1.284 . S
O1366 Gd1321 2.324 . S
O1366 C1386 1.254 . S
O1367 Gd1320 2.429 . S
O1367 C1386 1.268 . S
O1368 Gd1320 2.545 . S
O1368 C1376 1.250 . S
O1369 Gd1320 2.412 . S
O1369 C1379 1.252 . S
O1370 Gd1321 2.545 . S
O1370 C1388 1.258 . S
O1371 Gd1320 2.362 . S
O1371 Gd1321 2.606 . S
O1371 C1387 1.284 . S
O1372 Gd1320 2.324 . S
O1372 C1395 1.254 . S
O1373 Gd1321 2.429 . S
O1373 C1395 1.268 . S
O1374 Gd1321 2.545 . S
O1374 C1387 1.250 . S
O1375 Gd1321 2.412 . S
O1375 C1388 1.252 . S
C1376 O1365 1.284 . S
C1376 O1368 1.250 . S
C1377 H1346 0.929 . S
C1377 C1362 1.437 . S
C1377 C1378 1.317 . S
C1378 H1349 0.930 . S
C1378 C1354 1.431 . S
C1378 C1377 1.317 . S
C1379 Gd1320 2.828 . S
C1379 O1364 1.258 . S
C1379 O1369 1.252 . S
C1379 C1380 1.497 . S
C1380 C1379 1.497 . S
C1380 C1381 1.395 . S
C1380 C1382 1.380 . S
C1381 C1380 1.395 . S
C1381 C1384 1.398 . S
C1381 H1396 0.930 . S
C1382 C1380 1.380 . S
C1382 C1383 1.391 . S
C1382 H1397 0.930 . S
C1383 C1382 1.391 . S
C1383 C1385 1.387 . S
C1384 C1381 1.398 . S
C1384 C1385 1.380 . S
C1384 H1398 0.930 . S
C1385 C1383 1.387 . S
C1385 C1384 1.380 . S
C1385 H1399 0.930 . S
C1386 O1366 1.254 . S
C1386 O1367 1.268 . S
C1387 O1371 1.284 . S
C1387 O1374 1.250 . S
C1388 Gd1321 2.828 . S
C1388 O1370 1.258 . S
C1388 O1375 1.252 . S
C1388 C1389 1.497 . S
C1389 C1388 1.497 . S
C1389 C1390 1.395 . S
C1389 C1391 1.380 . S
C1390 C1389 1.395 . S
C1390 C1393 1.398 . S
C1390 H1400 0.930 . S
C1391 C1389 1.380 . S
C1391 C1392 1.391 . S
C1391 H1401 0.930 . S
C1392 C1391 1.391 . S
C1392 C1394 1.387 . S
C1393 C1390 1.398 . S
C1393 C1394 1.380 . S
C1393 H1402 0.930 . S
C1394 C1392 1.387 . S
C1394 C1393 1.380 . S
C1394 H1403 0.930 . S
C1395 O1372 1.254 . S
C1395 O1373 1.268 . S
H1396 C1381 0.930 . S
H1397 C1382 0.930 . S
H1398 C1384 0.930 . S
H1399 C1385 0.930 . S
H1400 C1390 0.930 . S
H1401 C1391 0.930 . S
H1402 C1393 0.930 . S
H1403 C1394 0.930 . S
C1404 C1405 1.363 . S
C1404 C1410 1.379 . S
C1404 N1412 1.356 . S
C1405 C1404 1.363 . S
C1405 C1411 1.363 . S
C1406 C1407 1.363 . S
C1406 C1411 1.379 . S
C1406 N1413 1.356 . S
C1407 C1406 1.363 . S
C1407 C1410 1.363 . S
N1408 C1410 1.356 . S
N1408 H1420 0.984 . S
N1408 H1421 0.985 . S
N1409 C1411 1.356 . S
N1409 H1414 0.984 . S
N1409 H1415 0.985 . S
C1410 C1404 1.379 . S
C1410 C1407 1.363 . S
C1410 N1408 1.356 . S
C1411 C1405 1.363 . S
C1411 C1406 1.379 . S
C1411 N1409 1.356 . S
N1412 C1404 1.356 . S
N1412 H1418 0.984 . S
N1412 H1419 0.984 . S
N1413 C1406 1.356 . S
N1413 H1416 0.984 . S
N1413 H1417 0.985 . S
H1414 N1409 0.984 . S
H1415 N1409 0.985 . S
H1416 N1413 0.984 . S
H1417 N1413 0.985 . S
H1418 N1412 0.984 . S
H1419 N1412 0.984 . S
H1420 N1408 0.984 . S
H1421 N1408 0.985 . S
C1422 C1423 1.363 . S
C1422 C1428 1.379 . S
C1422 N1430 1.356 . S
C1423 C1422 1.363 . S
C1423 C1429 1.363 . S
C1424 C1425 1.363 . S
C1424 C1429 1.379 . S
C1424 N1431 1.356 . S
C1425 C1424 1.363 . S
C1425 C1428 1.363 . S
N1426 C1428 1.356 1_556 S
N1426 H1438 0.984 . S
N1426 H1439 0.985 . S
N1427 C1429 1.356 . S
N1427 H1432 0.984 . S
N1427 H1433 0.985 . S
C1428 C1422 1.379 . S
C1428 C1425 1.363 . S
C1428 N1426 1.356 1_554 S
C1429 C1423 1.363 . S
C1429 C1424 1.379 . S
C1429 N1427 1.356 . S
N1430 C1422 1.356 . S
N1430 H1436 0.984 1_554 S
N1430 H1437 0.984 . S
N1431 C1424 1.356 . S
N1431 H1434 0.984 . S
N1431 H1435 0.985 . S
H1432 N1427 0.984 . S
H1433 N1427 0.985 . S
H1434 N1431 0.984 . S
H1435 N1431 0.985 . S
H1436 N1430 0.984 1_556 S
H1437 N1430 0.984 . S
H1438 N1426 0.984 . S
H1439 N1426 0.985 . S
C1440 C1441 1.363 . S
C1440 C1446 1.379 . S
C1440 N1448 1.356 . S
C1441 C1440 1.363 . S
C1441 C1447 1.363 . S
C1442 C1443 1.363 . S
C1442 C1447 1.379 . S
C1442 N1449 1.356 1_554 S
C1443 C1442 1.363 . S
C1443 C1446 1.363 . S
N1444 C1446 1.356 . S
N1444 H1456 0.984 . S
N1444 H1457 0.985 . S
N1445 C1447 1.356 . S
N1445 H1450 0.984 . S
N1445 H1451 0.982 . S
C1446 C1440 1.379 . S
C1446 C1443 1.363 . S
C1446 N1444 1.356 . S
C1447 C1441 1.363 . S
C1447 C1442 1.379 . S
C1447 N1445 1.356 . S
N1448 C1440 1.356 . S
N1448 H1454 0.984 . S
N1448 H1455 0.984 . S
N1449 C1442 1.356 1_556 S
N1449 H1452 0.984 . S
N1449 H1453 0.985 . S
H1450 N1445 0.984 . S
H1451 N1445 0.982 . S
H1452 N1449 0.984 . S
H1453 N1449 0.985 . S
H1454 N1448 0.984 . S
H1455 N1448 0.984 . S
H1456 N1444 0.984 . S
H1457 N1444 0.985 . S
C1458 C1459 1.363 . S
C1458 C1464 1.379 . S
C1458 N1466 1.356 . S
C1459 C1458 1.363 . S
C1459 C1465 1.363 . S
C1460 C1461 1.363 . S
C1460 C1465 1.379 . S
C1460 N1467 1.356 1_556 S
C1461 C1460 1.363 . S
C1461 C1464 1.363 . S
N1462 C1464 1.356 . S
N1462 H1474 0.984 . S
N1462 H1475 0.985 . S
N1463 C1465 1.356 . S
N1463 H1468 0.984 . S
N1463 H1469 0.985 1_556 S
C1464 C1458 1.379 . S
C1464 C1461 1.363 . S
C1464 N1462 1.356 . S
C1465 C1459 1.363 . S
C1465 C1460 1.379 . S
C1465 N1463 1.356 . S
N1466 C1458 1.356 . S
N1466 H1472 0.984 . S
N1466 H1473 0.984 . S
N1467 C1460 1.356 1_554 S
N1467 H1470 0.984 . S
N1467 H1471 0.985 . S
H1468 N1463 0.984 . S
H1469 N1463 0.985 1_554 S
H1470 N1467 0.984 . S
H1471 N1467 0.985 . S
H1472 N1466 0.984 . S
H1473 N1466 0.984 . S
H1474 N1462 0.984 . S
H1475 N1462 0.985 . S
C1476 C1477 1.363 . S
C1476 C1482 1.379 . S
C1476 N1484 1.356 . S
C1477 C1476 1.363 . S
C1477 C1483 1.363 . S
C1478 C1479 1.363 . S
C1478 C1483 1.379 . S
C1478 N1485 1.356 . S
C1479 C1478 1.363 . S
C1479 C1482 1.363 . S
N1480 C1482 1.356 1_554 S
N1480 H1492 0.984 . S
N1480 H1493 0.985 . S
N1481 C1483 1.356 . S
N1481 H1486 0.984 . S
N1481 H1487 0.985 . S
C1482 C1476 1.379 . S
C1482 C1479 1.363 . S
C1482 N1480 1.356 1_556 S
C1483 C1477 1.363 . S
C1483 C1478 1.379 . S
C1483 N1481 1.356 . S
N1484 C1476 1.356 . S
N1484 H1490 0.984 . S
N1484 H1491 0.984 . S
N1485 C1478 1.356 . S
N1485 H1488 0.984 . S
N1485 H1489 0.985 . S
H1486 N1481 0.984 . S
H1487 N1481 0.985 . S
H1488 N1485 0.984 . S
H1489 N1485 0.985 . S
H1490 N1484 0.984 . S
H1491 N1484 0.984 . S
H1492 N1480 0.984 . S
H1493 N1480 0.985 . S
C1494 C1495 1.363 . S
C1494 C1500 1.379 . S
C1494 N1502 1.356 . S
C1495 C1494 1.363 . S
C1495 C1501 1.363 . S
C1496 C1497 1.363 . S
C1496 C1501 1.379 . S
C1496 N1503 1.356 . S
C1497 C1496 1.363 . S
C1497 C1500 1.363 . S
N1498 C1500 1.356 . S
N1498 H1510 0.984 . S
N1498 H1511 0.985 . S
N1499 C1501 1.356 . S
N1499 H1504 0.984 . S
N1499 H1505 0.985 . S
C1500 C1494 1.379 . S
C1500 C1497 1.363 . S
C1500 N1498 1.356 . S
C1501 C1495 1.363 . S
C1501 C1496 1.379 . S
C1501 N1499 1.356 . S
N1502 C1494 1.356 . S
N1502 H1508 0.984 . S
N1502 H1509 0.984 . S
N1503 C1496 1.356 . S
N1503 H1506 0.984 . S
N1503 H1507 0.985 . S
H1504 N1499 0.984 . S
H1505 N1499 0.985 . S
H1506 N1503 0.984 . S
H1507 N1503 0.985 . S
H1508 N1502 0.984 . S
H1509 N1502 0.984 . S
H1510 N1498 0.984 . S
H1511 N1498 0.985 . S
C1512 C1513 1.363 . S
C1512 C1518 1.379 . S
C1512 N1520 1.356 . S
C1513 C1512 1.363 . S
C1513 C1519 1.363 . S
C1514 C1515 1.363 . S
C1514 C1519 1.379 . S
C1514 N1521 1.356 . S
C1515 C1514 1.363 . S
C1515 C1518 1.363 . S
N1516 C1518 1.356 1_554 S
N1516 H1528 0.984 . S
N1516 H1529 0.985 . S
N1517 C1519 1.356 . S
N1517 H1522 0.984 . S
N1517 H1523 0.985 . S
C1518 C1512 1.379 . S
C1518 C1515 1.363 . S
C1518 N1516 1.356 1_556 S
C1519 C1513 1.363 . S
C1519 C1514 1.379 . S
C1519 N1517 1.356 . S
N1520 C1512 1.356 . S
N1520 H1526 0.984 1_556 S
N1520 H1527 0.984 . S
N1521 C1514 1.356 . S
N1521 H1524 0.984 . S
N1521 H1525 0.985 . S
H1522 N1517 0.984 . S
H1523 N1517 0.985 . S
H1524 N1521 0.984 . S
H1525 N1521 0.985 . S
H1526 N1520 0.984 1_554 S
H1527 N1520 0.984 . S
H1528 N1516 0.984 . S
H1529 N1516 0.985 . S
C1530 C1531 1.363 . S
C1530 C1536 1.379 . S
C1530 N1538 1.356 . S
C1531 C1530 1.363 . S
C1531 C1537 1.363 . S
C1532 C1533 1.363 . S
C1532 C1537 1.379 . S
C1532 N1539 1.356 . S
C1533 C1532 1.363 . S
C1533 C1536 1.363 . S
N1534 C1536 1.356 . S
N1534 H1546 0.984 . S
N1534 H1547 0.985 . S
N1535 C1537 1.356 . S
N1535 H1540 0.984 . S
N1535 H1541 0.985 . S
C1536 C1530 1.379 . S
C1536 C1533 1.363 . S
C1536 N1534 1.356 . S
C1537 C1531 1.363 . S
C1537 C1532 1.379 . S
C1537 N1535 1.356 . S
N1538 C1530 1.356 . S
N1538 H1544 0.984 . S
N1538 H1545 0.984 . S
N1539 C1532 1.356 . S
N1539 H1542 0.984 . S
N1539 H1543 0.985 . S
H1540 N1535 0.984 . S
H1541 N1535 0.985 . S
H1542 N1539 0.984 . S
H1543 N1539 0.985 . S
H1544 N1538 0.984 . S
H1545 N1538 0.984 . S
H1546 N1534 0.984 . S
H1547 N1534 0.985 . S
C1548 C1549 1.363 . S
C1548 C1554 1.379 . S
C1548 N1556 1.356 . S
C1549 C1548 1.363 . S
C1549 C1555 1.363 . S
C1550 C1551 1.363 . S
C1550 C1555 1.379 . S
C1550 N1557 1.356 . S
C1551 C1550 1.363 . S
C1551 C1554 1.363 . S
N1552 C1554 1.356 . S
N1552 H1564 0.984 1_556 S
N1552 H1565 0.987 . S
N1553 C1555 1.356 . S
N1553 H1558 0.984 . S
N1553 H1559 0.985 . S
C1554 C1548 1.379 . S
C1554 C1551 1.363 . S
C1554 N1552 1.356 . S
C1555 C1549 1.363 . S
C1555 C1550 1.379 . S
C1555 N1553 1.356 . S
N1556 C1548 1.356 . S
N1556 H1562 0.984 . S
N1556 H1563 0.984 . S
N1557 C1550 1.356 . S
N1557 H1560 0.984 . S
N1557 H1561 0.985 . S
H1558 N1553 0.984 . S
H1559 N1553 0.985 . S
H1560 N1557 0.984 . S
H1561 N1557 0.985 . S
H1562 N1556 0.984 . S
H1563 N1556 0.984 . S
H1564 N1552 0.984 1_554 S
H1565 N1552 0.987 . S
C1566 C1567 1.363 . S
C1566 C1572 1.379 . S
C1566 N1574 1.356 . S
C1567 C1566 1.363 . S
C1567 C1573 1.363 . S
C1568 C1569 1.363 . S
C1568 C1573 1.379 . S
C1568 N1575 1.356 . S
C1569 C1568 1.363 . S
C1569 C1572 1.363 . S
N1570 C1572 1.356 . S
N1570 H1582 0.984 . S
N1570 H1583 0.985 . S
N1571 C1573 1.356 . S
N1571 H1576 0.984 . S
N1571 H1577 0.985 . S
C1572 C1566 1.379 . S
C1572 C1569 1.363 . S
C1572 N1570 1.356 . S
C1573 C1567 1.363 . S
C1573 C1568 1.379 . S
C1573 N1571 1.356 . S
N1574 C1566 1.356 . S
N1574 H1580 0.984 . S
N1574 H1581 0.984 . S
N1575 C1568 1.356 . S
N1575 H1578 0.984 . S
N1575 H1579 0.985 1_554 S
H1576 N1571 0.984 . S
H1577 N1571 0.985 . S
H1578 N1575 0.984 . S
H1579 N1575 0.985 1_556 S
H1580 N1574 0.984 . S
H1581 N1574 0.984 . S
H1582 N1570 0.984 . S
H1583 N1570 0.985 . S
C1584 C1585 1.363 . S
C1584 C1590 1.379 . S
C1584 N1592 1.356 . S
C1585 C1584 1.363 . S
C1585 C1591 1.363 . S
C1586 C1587 1.363 . S
C1586 C1591 1.379 . S
C1586 N1593 1.356 . S
C1587 C1586 1.363 . S
C1587 C1590 1.363 . S
N1588 C1590 1.356 . S
N1588 H1600 0.984 . S
N1588 H1601 0.985 . S
N1589 C1591 1.356 . S
N1589 H1594 0.984 . S
N1589 H1595 0.985 . S
C1590 C1584 1.379 . S
C1590 C1587 1.363 . S
C1590 N1588 1.356 . S
C1591 C1585 1.363 . S
C1591 C1586 1.379 . S
C1591 N1589 1.356 . S
N1592 C1584 1.356 . S
N1592 H1598 0.984 . S
N1592 H1599 0.984 . S
N1593 C1586 1.356 . S
N1593 H1596 0.984 . S
N1593 H1597 0.985 . S
H1594 N1589 0.984 . S
H1595 N1589 0.985 . S
H1596 N1593 0.984 . S
H1597 N1593 0.985 . S
H1598 N1592 0.984 . S
H1599 N1592 0.984 . S
H1600 N1588 0.984 . S
H1601 N1588 0.985 . S
C1602 C1603 1.363 . S
C1602 C1608 1.379 . S
C1602 N1610 1.356 . S
C1603 C1602 1.363 . S
C1603 C1609 1.363 . S
C1604 C1605 1.363 . S
C1604 C1609 1.379 . S
C1604 N1611 1.356 . S
C1605 C1604 1.363 . S
C1605 C1608 1.363 . S
N1606 C1608 1.356 1_556 S
N1606 H1618 0.984 . S
N1606 H1619 0.985 . S
N1607 C1609 1.356 . S
N1607 H1612 0.984 . S
N1607 H1613 0.985 . S
C1608 C1602 1.379 . S
C1608 C1605 1.363 . S
C1608 N1606 1.356 1_554 S
C1609 C1603 1.363 . S
C1609 C1604 1.379 . S
C1609 N1607 1.356 . S
N1610 C1602 1.356 . S
N1610 H1616 0.930 1_554 S
N1610 H1617 0.984 . S
N1611 C1604 1.356 . S
N1611 H1614 0.984 . S
N1611 H1615 0.985 . S
H1612 N1607 0.984 . S
H1613 N1607 0.985 . S
H1614 N1611 0.984 . S
H1615 N1611 0.985 . S
H1616 N1610 0.930 1_556 S
H1617 N1610 0.984 . S
H1618 N1606 0.984 . S
H1619 N1606 0.985 . S
C1620 C1621 1.363 . S
C1620 C1626 1.379 . S
C1620 N1628 1.356 . S
C1621 C1620 1.363 . S
C1621 C1627 1.363 . S
C1622 C1623 1.363 . S
C1622 C1627 1.379 . S
C1622 N1629 1.356 . S
C1623 C1622 1.363 . S
C1623 C1626 1.363 . S
N1624 C1626 1.356 . S
N1624 H1636 0.984 . S
N1624 H1637 0.985 . S
N1625 C1627 1.356 . S
N1625 H1630 0.984 1_455 S
N1625 H1631 0.985 . S
C1626 C1620 1.379 . S
C1626 C1623 1.363 . S
C1626 N1624 1.356 . S
C1627 C1621 1.363 . S
C1627 C1622 1.379 . S
C1627 N1625 1.356 . S
N1628 C1620 1.356 . S
N1628 H1634 0.984 . S
N1628 H1635 0.984 1_455 S
N1629 C1622 1.356 . S
N1629 H1632 0.984 . S
N1629 H1633 0.985 . S
H1630 N1625 0.984 1_655 S
H1631 N1625 0.985 . S
H1632 N1629 0.984 . S
H1633 N1629 0.985 . S
H1634 N1628 0.984 . S
H1635 N1628 0.984 1_655 S
H1636 N1624 0.984 . S
H1637 N1624 0.985 . S
C1638 C1639 1.363 . S
C1638 C1644 1.379 . S
C1638 N1646 1.356 . S
C1639 C1638 1.363 . S
C1639 C1645 1.363 . S
C1640 C1641 1.363 . S
C1640 C1645 1.379 . S
C1640 N1647 1.356 . S
C1641 C1640 1.363 . S
C1641 C1644 1.363 . S
N1642 C1644 1.356 . S
N1642 H1654 0.984 . S
N1642 H1655 0.985 . S
N1643 C1645 1.356 . S
N1643 H1648 0.984 . S
N1643 H1649 0.985 . S
C1644 C1638 1.379 . S
C1644 C1641 1.363 . S
C1644 N1642 1.356 . S
C1645 C1639 1.363 . S
C1645 C1640 1.379 . S
C1645 N1643 1.356 . S
N1646 C1638 1.356 . S
N1646 H1652 0.984 . S
N1646 H1653 0.984 . S
N1647 C1640 1.356 . S
N1647 H1650 0.984 . S
N1647 H1651 0.985 . S
H1648 N1643 0.984 . S
H1649 N1643 0.985 . S
H1650 N1647 0.984 . S
H1651 N1647 0.985 . S
H1652 N1646 0.984 . S
H1653 N1646 0.984 . S
H1654 N1642 0.984 . S
H1655 N1642 0.985 . S
C1656 C1657 1.363 . S
C1656 C1662 1.379 . S
C1656 N1664 1.356 . S
C1657 C1656 1.363 . S
C1657 C1663 1.363 . S
C1658 C1659 1.363 . S
C1658 C1663 1.379 . S
C1658 N1665 1.356 . S
C1659 C1658 1.363 . S
C1659 C1662 1.363 . S
N1660 C1662 1.356 . S
N1660 H1672 0.984 . S
N1660 H1673 0.985 . S
N1661 C1663 1.356 1_545 S
N1661 H1666 0.984 . S
N1661 H1667 0.985 . S
C1662 C1656 1.379 . S
C1662 C1659 1.363 . S
C1662 N1660 1.356 . S
C1663 C1657 1.363 . S
C1663 C1658 1.379 . S
C1663 N1661 1.356 1_565 S
N1664 C1656 1.356 . S
N1664 H1670 0.984 . S
N1664 H1671 0.984 1_565 S
N1665 C1658 1.356 . S
N1665 H1668 0.984 . S
N1665 H1669 0.985 . S
H1666 N1661 0.984 . S
H1667 N1661 0.985 . S
H1668 N1665 0.984 . S
H1669 N1665 0.985 . S
H1670 N1664 0.984 . S
H1671 N1664 0.984 1_545 S
H1672 N1660 0.984 . S
H1673 N1660 0.985 . S
C1674 C1675 1.363 . S
C1674 C1680 1.379 . S
C1674 N1682 1.356 . S
C1675 C1674 1.363 . S
C1675 C1681 1.363 . S
C1676 C1677 1.363 . S
C1676 C1681 1.379 . S
C1676 N1683 1.356 . S
C1677 C1676 1.363 . S
C1677 C1680 1.363 . S
N1678 C1680 1.356 . S
N1678 H1690 0.984 . S
N1678 H1691 0.985 . S
N1679 C1681 1.356 . S
N1679 H1684 0.984 . S
N1679 H1685 0.985 . S
C1680 C1674 1.379 . S
C1680 C1677 1.363 . S
C1680 N1678 1.356 . S
C1681 C1675 1.363 . S
C1681 C1676 1.379 . S
C1681 N1679 1.356 . S
N1682 C1674 1.356 . S
N1682 H1688 0.984 . S
N1682 H1689 0.984 . S
N1683 C1676 1.356 . S
N1683 H1686 0.984 . S
N1683 H1687 0.985 . S
H1684 N1679 0.984 . S
H1685 N1679 0.985 . S
H1686 N1683 0.984 . S
H1687 N1683 0.985 . S
H1688 N1682 0.984 . S
H1689 N1682 0.984 . S
H1690 N1678 0.984 . S
H1691 N1678 0.985 . S
C1692 C1693 1.363 . S
C1692 C1698 1.379 . S
C1692 N1700 1.356 . S
C1693 C1692 1.363 . S
C1693 C1699 1.363 . S
C1694 C1695 1.363 . S
C1694 C1699 1.379 . S
C1694 N1701 1.356 . S
C1695 C1694 1.363 . S
C1695 C1698 1.363 . S
N1696 C1698 1.356 . S
N1696 H1708 0.984 . S
N1696 H1709 0.985 . S
N1697 C1699 1.356 . S
N1697 H1702 0.984 . S
N1697 H1703 0.985 . S
C1698 C1692 1.379 . S
C1698 C1695 1.363 . S
C1698 N1696 1.356 . S
C1699 C1693 1.363 . S
C1699 C1694 1.379 . S
C1699 N1697 1.356 . S
N1700 C1692 1.356 . S
N1700 H1706 0.984 . S
N1700 H1707 0.984 . S
N1701 C1694 1.356 . S
N1701 H1704 0.984 . S
N1701 H1705 0.985 . S
H1702 N1697 0.984 . S
H1703 N1697 0.985 . S
H1704 N1701 0.984 . S
H1705 N1701 0.985 . S
H1706 N1700 0.984 . S
H1707 N1700 0.984 . S
H1708 N1696 0.984 . S
H1709 N1696 0.985 . S
C1710 C1711 1.363 . S
C1710 C1716 1.379 . S
C1710 N1718 1.356 . S
C1711 C1710 1.363 . S
C1711 C1717 1.363 . S
C1712 C1713 1.363 . S
C1712 C1717 1.379 . S
C1712 N1719 1.356 . S
C1713 C1712 1.363 . S
C1713 C1716 1.363 . S
N1714 C1716 1.356 . S
N1714 H1726 0.984 . S
N1714 H1727 0.985 . S
N1715 C1717 1.356 . S
N1715 H1720 0.984 . S
N1715 H1721 0.985 . S
C1716 C1710 1.379 . S
C1716 C1713 1.363 . S
C1716 N1714 1.356 . S
C1717 C1711 1.363 . S
C1717 C1712 1.379 . S
C1717 N1715 1.356 . S
N1718 C1710 1.356 . S
N1718 H1724 0.984 . S
N1718 H1725 0.984 . S
N1719 C1712 1.356 . S
N1719 H1722 0.984 . S
N1719 H1723 0.985 . S
H1720 N1715 0.984 . S
H1721 N1715 0.985 . S
H1722 N1719 0.984 . S
H1723 N1719 0.985 . S
H1724 N1718 0.984 . S
H1725 N1718 0.984 . S
H1726 N1714 0.984 . S
H1727 N1714 0.985 . S
C1728 C1729 1.363 . S
C1728 C1734 1.379 . S
C1728 N1736 1.356 . S
C1729 C1728 1.363 . S
C1729 C1735 1.363 . S
C1730 C1731 1.363 . S
C1730 C1735 1.379 . S
C1730 N1737 1.356 . S
C1731 C1730 1.363 . S
C1731 C1734 1.363 . S
N1732 C1734 1.356 . S
N1732 H1744 0.984 . S
N1732 H1745 0.985 . S
N1733 C1735 1.356 . S
N1733 H1738 0.984 . S
N1733 H1739 0.985 . S
C1734 C1728 1.379 . S
C1734 C1731 1.363 . S
C1734 N1732 1.356 . S
C1735 C1729 1.363 . S
C1735 C1730 1.379 . S
C1735 N1733 1.356 . S
N1736 C1728 1.356 . S
N1736 H1742 0.984 . S
N1736 H1743 0.984 . S
N1737 C1730 1.356 . S
N1737 H1740 0.984 . S
N1737 H1741 0.985 . S
H1738 N1733 0.984 . S
H1739 N1733 0.985 . S
H1740 N1737 0.984 . S
H1741 N1737 0.985 . S
H1742 N1736 0.984 . S
H1743 N1736 0.984 . S
H1744 N1732 0.984 . S
H1745 N1732 0.985 . S
C1746 C1747 1.363 . S
C1746 C1752 1.379 . S
C1746 N1754 1.356 . S
C1747 C1746 1.363 . S
C1747 C1753 1.363 . S
C1748 C1749 1.363 . S
C1748 C1753 1.379 . S
C1748 N1755 1.356 . S
C1749 C1748 1.363 . S
C1749 C1752 1.363 . S
N1750 C1752 1.356 . S
N1750 H1762 0.984 . S
N1750 H1763 0.985 . S
N1751 C1753 1.356 . S
N1751 H1756 0.984 . S
N1751 H1757 0.985 . S
C1752 C1746 1.379 . S
C1752 C1749 1.363 . S
C1752 N1750 1.356 . S
C1753 C1747 1.363 . S
C1753 C1748 1.379 . S
C1753 N1751 1.356 . S
N1754 C1746 1.356 . S
N1754 H1760 0.984 . S
N1754 H1761 0.984 . S
N1755 C1748 1.356 . S
N1755 H1758 0.984 . S
N1755 H1759 0.985 . S
H1756 N1751 0.984 . S
H1757 N1751 0.985 . S
H1758 N1755 0.984 . S
H1759 N1755 0.985 . S
H1760 N1754 0.984 . S
H1761 N1754 0.984 . S
H1762 N1750 0.984 . S
H1763 N1750 0.985 . S
C1764 C1765 1.363 . S
C1764 C1770 1.379 . S
C1764 N1772 1.356 . S
C1765 C1764 1.363 . S
C1765 C1771 1.363 . S
C1766 C1767 1.363 . S
C1766 C1771 1.379 . S
C1766 N1773 1.356 . S
C1767 C1766 1.363 . S
C1767 C1770 1.363 . S
N1768 C1770 1.356 . S
N1768 H1780 0.984 . S
N1768 H1781 0.985 . S
N1769 C1771 1.356 . S
N1769 H1774 0.984 . S
N1769 H1775 0.985 . S
C1770 C1764 1.379 . S
C1770 C1767 1.363 . S
C1770 N1768 1.356 . S
C1771 C1765 1.363 . S
C1771 C1766 1.379 . S
C1771 N1769 1.356 . S
N1772 C1764 1.356 . S
N1772 H1778 0.984 . S
N1772 H1779 0.984 . S
N1773 C1766 1.356 . S
N1773 H1776 0.984 . S
N1773 H1777 0.985 . S
H1774 N1769 0.984 . S
H1775 N1769 0.985 . S
H1776 N1773 0.984 . S
H1777 N1773 0.985 . S
H1778 N1772 0.984 . S
H1779 N1772 0.984 . S
H1780 N1768 0.984 . S
H1781 N1768 0.985 . S
C1782 C1783 1.363 . S
C1782 C1788 1.379 . S
C1782 N1790 1.356 . S
C1783 C1782 1.363 . S
C1783 C1789 1.363 . S
C1784 C1785 1.363 . S
C1784 C1789 1.379 . S
C1784 N1791 1.356 . S
C1785 C1784 1.363 . S
C1785 C1788 1.363 . S
N1786 C1788 1.356 . S
N1786 H1798 0.984 . S
N1786 H1799 0.985 . S
N1787 C1789 1.356 1_545 S
N1787 H1792 0.984 . S
N1787 H1793 0.985 . S
C1788 C1782 1.379 . S
C1788 C1785 1.363 . S
C1788 N1786 1.356 . S
C1789 C1783 1.363 . S
C1789 C1784 1.379 . S
C1789 N1787 1.356 1_565 S
N1790 C1782 1.356 . S
N1790 H1796 0.984 . S
N1790 H1797 0.984 . S
N1791 C1784 1.356 . S
N1791 H1794 0.984 . S
N1791 H1795 0.985 . S
H1792 N1787 0.984 . S
H1793 N1787 0.985 . S
H1794 N1791 0.984 . S
H1795 N1791 0.985 . S
H1796 N1790 0.984 . S
H1797 N1790 0.984 . S
H1798 N1786 0.984 . S
H1799 N1786 0.985 . S
C1800 C1801 1.363 . S
C1800 C1806 1.379 . S
C1800 N1808 1.356 . S
C1801 C1800 1.363 . S
C1801 C1807 1.363 . S
C1802 C1803 1.363 . S
C1802 C1807 1.379 . S
C1802 N1809 1.356 . S
C1803 C1802 1.363 . S
C1803 C1806 1.363 . S
N1804 C1806 1.356 . S
N1804 H1816 0.984 . S
N1804 H1817 0.985 . S
N1805 C1807 1.356 . S
N1805 H1810 0.984 . S
N1805 H1811 0.985 . S
C1806 C1800 1.379 . S
C1806 C1803 1.363 . S
C1806 N1804 1.356 . S
C1807 C1801 1.363 . S
C1807 C1802 1.379 . S
C1807 N1805 1.356 . S
N1808 C1800 1.356 . S
N1808 H1814 0.975 . S
N1808 H1815 0.984 1_455 S
N1809 C1802 1.356 . S
N1809 H1812 0.984 . S
N1809 H1813 0.985 . S
H1810 N1805 0.984 . S
H1811 N1805 0.985 . S
H1812 N1809 0.984 . S
H1813 N1809 0.985 . S
H1814 N1808 0.975 . S
H1815 N1808 0.984 1_655 S
H1816 N1804 0.984 . S
H1817 N1804 0.985 . S
C1818 C1819 1.363 . S
C1818 C1824 1.379 . S
C1818 N1826 1.356 . S
C1819 C1818 1.363 . S
C1819 C1825 1.363 . S
C1820 C1821 1.363 . S
C1820 C1825 1.379 . S
C1820 N1827 1.356 . S
C1821 C1820 1.363 . S
C1821 C1824 1.363 . S
N1822 C1824 1.356 . S
N1822 H1834 0.984 . S
N1822 H1835 0.985 . S
N1823 C1825 1.356 . S
N1823 H1828 0.984 . S
N1823 H1829 0.985 . S
C1824 C1818 1.379 . S
C1824 C1821 1.363 . S
C1824 N1822 1.356 . S
C1825 C1819 1.363 . S
C1825 C1820 1.379 . S
C1825 N1823 1.356 . S
N1826 C1818 1.356 . S
N1826 H1832 0.984 . S
N1826 H1833 0.984 . S
N1827 C1820 1.356 . S
N1827 H1830 0.984 . S
N1827 H1831 0.985 . S
H1828 N1823 0.984 . S
H1829 N1823 0.985 . S
H1830 N1827 0.984 . S
H1831 N1827 0.985 . S
H1832 N1826 0.984 . S
H1833 N1826 0.984 . S
H1834 N1822 0.984 . S
H1835 N1822 0.985 . S
C1836 C1837 1.363 . S
C1836 C1842 1.379 . S
C1836 N1844 1.356 . S
C1837 C1836 1.363 . S
C1837 C1843 1.363 . S
C1838 C1839 1.363 . S
C1838 C1843 1.379 . S
C1838 N1845 1.356 . S
C1839 C1838 1.363 . S
C1839 C1842 1.363 . S
N1840 C1842 1.356 . S
N1840 H1852 0.984 . S
N1840 H1853 0.985 . S
N1841 C1843 1.356 . S
N1841 H1846 0.984 . S
N1841 H1847 0.985 . S
C1842 C1836 1.379 . S
C1842 C1839 1.363 . S
C1842 N1840 1.356 . S
C1843 C1837 1.363 . S
C1843 C1838 1.379 . S
C1843 N1841 1.356 . S
N1844 C1836 1.356 . S
N1844 H1850 0.984 . S
N1844 H1851 0.984 . S
N1845 C1838 1.356 . S
N1845 H1848 0.984 . S
N1845 H1849 0.985 . S
H1846 N1841 0.984 . S
H1847 N1841 0.985 . S
H1848 N1845 0.984 . S
H1849 N1845 0.985 . S
H1850 N1844 0.984 . S
H1851 N1844 0.984 . S
H1852 N1840 0.984 . S
H1853 N1840 0.985 . S
C1854 C1855 1.363 . S
C1854 C1860 1.379 . S
C1854 N1862 1.356 . S
C1855 C1854 1.363 . S
C1855 C1861 1.363 . S
C1856 C1857 1.363 . S
C1856 C1861 1.379 . S
C1856 N1863 1.356 . S
C1857 C1856 1.363 . S
C1857 C1860 1.363 . S
N1858 C1860 1.356 . S
N1858 H1870 0.984 . S
N1858 H1871 0.985 . S
N1859 C1861 1.356 . S
N1859 H1864 0.984 . S
N1859 H1865 0.985 . S
C1860 C1854 1.379 . S
C1860 C1857 1.363 . S
C1860 N1858 1.356 . S
C1861 C1855 1.363 . S
C1861 C1856 1.379 . S
C1861 N1859 1.356 . S
N1862 C1854 1.356 . S
N1862 H1868 0.984 . S
N1862 H1869 0.984 . S
N1863 C1856 1.356 . S
N1863 H1866 0.984 . S
N1863 H1867 0.985 . S
H1864 N1859 0.984 . S
H1865 N1859 0.985 . S
H1866 N1863 0.984 . S
H1867 N1863 0.985 . S
H1868 N1862 0.984 . S
H1869 N1862 0.984 . S
H1870 N1858 0.984 . S
H1871 N1858 0.985 . S
C1872 C1873 1.363 . S
C1872 C1878 1.379 . S
C1872 N1880 1.356 . S
C1873 C1872 1.363 . S
C1873 C1879 1.363 . S
C1874 C1875 1.363 . S
C1874 C1879 1.379 . S
C1874 N1881 1.356 . S
C1875 C1874 1.363 . S
C1875 C1878 1.363 . S
N1876 C1878 1.356 . S
N1876 H1888 0.984 . S
N1876 H1889 0.985 . S
N1877 C1879 1.356 . S
N1877 H1882 0.984 . S
N1877 H1883 0.985 . S
C1878 C1872 1.379 . S
C1878 C1875 1.363 . S
C1878 N1876 1.356 . S
C1879 C1873 1.363 . S
C1879 C1874 1.379 . S
C1879 N1877 1.356 . S
N1880 C1872 1.356 . S
N1880 H1886 0.984 . S
N1880 H1887 0.984 . S
N1881 C1874 1.356 . S
N1881 H1884 0.984 . S
N1881 H1885 0.985 . S
H1882 N1877 0.984 . S
H1883 N1877 0.985 . S
H1884 N1881 0.984 . S
H1885 N1881 0.985 . S
H1886 N1880 0.984 . S
H1887 N1880 0.984 . S
H1888 N1876 0.984 . S
H1889 N1876 0.985 . S
C1890 C1891 1.363 . S
C1890 C1896 1.379 . S
C1890 N1898 1.356 1_545 S
C1891 C1890 1.363 . S
C1891 C1897 1.363 . S
C1892 C1893 1.363 . S
C1892 C1897 1.379 . S
C1892 N1899 1.356 . S
C1893 C1892 1.363 . S
C1893 C1896 1.363 . S
N1894 C1896 1.356 . S
N1894 H1906 0.984 . S
N1894 H1907 0.985 . S
N1895 C1897 1.356 . S
N1895 H1900 0.984 . S
N1895 H1901 0.985 . S
C1896 C1890 1.379 . S
C1896 C1893 1.363 . S
C1896 N1894 1.356 . S
C1897 C1891 1.363 . S
C1897 C1892 1.379 . S
C1897 N1895 1.356 . S
N1898 C1890 1.356 1_565 S
N1898 H1904 0.984 . S
N1898 H1905 0.984 . S
N1899 C1892 1.356 . S
N1899 H1902 0.984 . S
N1899 H1903 0.985 . S
H1900 N1895 0.984 . S
H1901 N1895 0.985 . S
H1902 N1899 0.984 . S
H1903 N1899 0.985 . S
H1904 N1898 0.984 . S
H1905 N1898 0.984 . S
H1906 N1894 0.984 . S
H1907 N1894 0.985 . S
C1908 C1909 1.363 . S
C1908 C1914 1.379 . S
C1908 N1916 1.356 . S
C1909 C1908 1.363 . S
C1909 C1915 1.363 . S
C1910 C1911 1.363 . S
C1910 C1915 1.379 . S
C1910 N1917 1.356 . S
C1911 C1910 1.363 . S
C1911 C1914 1.363 . S
N1912 C1914 1.356 . S
N1912 H1924 0.984 . S
N1912 H1925 0.985 . S
N1913 C1915 1.325 1_455 S
N1913 H1918 1.011 . S
N1913 H1919 0.990 . S
C1914 C1908 1.379 . S
C1914 C1911 1.363 . S
C1914 N1912 1.356 . S
C1915 C1909 1.363 . S
C1915 C1910 1.379 . S
C1915 N1913 1.325 1_655 S
N1916 C1908 1.356 . S
N1916 H1922 0.984 . S
N1916 H1923 0.984 . S
N1917 C1910 1.356 . S
N1917 H1920 0.984 . S
N1917 H1921 0.985 . S
H1918 N1913 1.011 . S
H1919 N1913 0.990 . S
H1920 N1917 0.984 . S
H1921 N1917 0.985 . S
H1922 N1916 0.984 . S
H1923 N1916 0.984 . S
H1924 N1912 0.984 . S
H1925 N1912 0.985 . S
C1926 C1927 1.363 . S
C1926 C1932 1.379 . S
C1926 N1934 1.356 . S
C1927 C1926 1.363 . S
C1927 C1933 1.363 . S
C1928 C1929 1.363 . S
C1928 C1933 1.379 . S
C1928 N1935 1.356 . S
C1929 C1928 1.363 . S
C1929 C1932 1.363 . S
N1930 C1932 1.356 . S
N1930 H1942 0.984 . S
N1930 H1943 0.985 . S
N1931 C1933 1.356 . S
N1931 H1936 0.984 . S
N1931 H1937 0.985 . S
C1932 C1926 1.379 . S
C1932 C1929 1.363 . S
C1932 N1930 1.356 . S
C1933 C1927 1.363 . S
C1933 C1928 1.379 . S
C1933 N1931 1.356 . S
N1934 C1926 1.356 . S
N1934 H1940 0.984 . S
N1934 H1941 0.984 . S
N1935 C1928 1.356 . S
N1935 H1938 0.984 . S
N1935 H1939 0.985 . S
H1936 N1931 0.984 . S
H1937 N1931 0.985 . S
H1938 N1935 0.984 . S
H1939 N1935 0.985 . S
H1940 N1934 0.984 . S
H1941 N1934 0.984 . S
H1942 N1930 0.984 . S
H1943 N1930 0.985 . S
C1944 C1945 1.363 . S
C1944 C1950 1.379 . S
C1944 N1952 1.356 1_655 S
C1945 C1944 1.363 . S
C1945 C1951 1.363 . S
C1946 C1947 1.363 . S
C1946 C1951 1.379 . S
C1946 N1953 1.356 . S
C1947 C1946 1.363 . S
C1947 C1950 1.363 . S
N1948 C1950 1.356 . S
N1948 H1960 0.984 . S
N1948 H1961 0.985 . S
N1949 C1951 1.356 . S
N1949 H1954 0.984 . S
N1949 H1955 0.985 . S
C1950 C1944 1.379 . S
C1950 C1947 1.363 . S
C1950 N1948 1.356 . S
C1951 C1945 1.363 . S
C1951 C1946 1.379 . S
C1951 N1949 1.356 . S
N1952 C1944 1.356 1_455 S
N1952 H1958 0.984 . S
N1952 H1959 0.984 . S
N1953 C1946 1.356 . S
N1953 H1956 0.984 . S
N1953 H1957 0.985 . S
H1954 N1949 0.984 . S
H1955 N1949 0.985 . S
H1956 N1953 0.984 . S
H1957 N1953 0.985 . S
H1958 N1952 0.984 . S
H1959 N1952 0.984 . S
H1960 N1948 0.984 . S
H1961 N1948 0.985 . S
C1962 C1963 1.363 . S
C1962 C1968 1.379 . S
C1962 N1970 1.356 . S
C1963 C1962 1.363 . S
C1963 C1969 1.363 . S
C1964 C1965 1.363 . S
C1964 C1969 1.379 . S
C1964 N1971 1.356 . S
C1965 C1964 1.363 . S
C1965 C1968 1.363 . S
N1966 C1968 1.356 . S
N1966 H1978 0.984 . S
N1966 H1979 0.985 . S
N1967 C1969 1.356 . S
N1967 H1972 0.984 . S
N1967 H1973 0.985 . S
C1968 C1962 1.379 . S
C1968 C1965 1.363 . S
C1968 N1966 1.356 . S
C1969 C1963 1.363 . S
C1969 C1964 1.379 . S
C1969 N1967 1.356 . S
N1970 C1962 1.356 . S
N1970 H1976 0.984 . S
N1970 H1977 0.984 . S
N1971 C1964 1.356 . S
N1971 H1974 0.984 . S
N1971 H1975 0.985 . S
H1972 N1967 0.984 . S
H1973 N1967 0.985 . S
H1974 N1971 0.984 . S
H1975 N1971 0.985 . S
H1976 N1970 0.984 . S
H1977 N1970 0.984 . S
H1978 N1966 0.984 . S
H1979 N1966 0.985 . S
C1980 C1981 1.363 . S
C1980 C1986 1.379 . S
C1980 N1988 1.356 1_545 S
C1981 C1980 1.363 . S
C1981 C1987 1.363 . S
C1982 C1983 1.363 . S
C1982 C1987 1.379 . S
C1982 N1989 1.356 . S
C1983 C1982 1.363 . S
C1983 C1986 1.363 . S
N1984 C1986 1.356 . S
N1984 H1996 0.984 . S
N1984 H1997 0.985 . S
N1985 C1987 1.356 . S
N1985 H1990 0.955 1_545 S
N1985 H1991 0.985 . S
C1986 C1980 1.379 . S
C1986 C1983 1.363 . S
C1986 N1984 1.356 . S
C1987 C1981 1.363 . S
C1987 C1982 1.379 . S
C1987 N1985 1.356 . S
N1988 C1980 1.356 1_565 S
N1988 H1994 0.984 . S
N1988 H1995 0.984 . S
N1989 C1982 1.356 . S
N1989 H1992 0.984 . S
N1989 H1993 0.985 . S
H1990 N1985 0.955 1_565 S
H1991 N1985 0.985 . S
H1992 N1989 0.984 . S
H1993 N1989 0.985 . S
H1994 N1988 0.984 . S
H1995 N1988 0.984 . S
H1996 N1984 0.984 . S
H1997 N1984 0.985 . S
C1998 C1999 1.363 . S
C1998 C2004 1.379 . S
C1998 N2006 1.356 . S
C1999 C1998 1.363 . S
C1999 C2005 1.363 . S
C2000 C2001 1.363 . S
C2000 C2005 1.379 . S
C2000 N2007 1.356 . S
C2001 C2000 1.363 . S
C2001 C2004 1.363 . S
N2002 C2004 1.356 . S
N2002 H2014 0.984 . S
N2002 H2015 0.985 . S
N2003 C2005 1.356 . S
N2003 H2008 0.984 . S
N2003 H2009 0.985 . S
C2004 C1998 1.379 . S
C2004 C2001 1.363 . S
C2004 N2002 1.356 . S
C2005 C1999 1.363 . S
C2005 C2000 1.379 . S
C2005 N2003 1.356 . S
N2006 C1998 1.356 . S
N2006 H2012 0.984 . S
N2006 H2013 0.984 . S
N2007 C2000 1.356 . S
N2007 H2010 0.984 . S
N2007 H2011 0.985 . S
H2008 N2003 0.984 . S
H2009 N2003 0.985 . S
H2010 N2007 0.984 . S
H2011 N2007 0.985 . S
H2012 N2006 0.984 . S
H2013 N2006 0.984 . S
H2014 N2002 0.984 . S
H2015 N2002 0.985 . S
C2016 C2017 1.363 . S
C2016 C2022 1.379 . S
C2016 N2024 1.356 . S
C2017 C2016 1.363 . S
C2017 C2023 1.363 . S
C2018 C2019 1.363 . S
C2018 C2023 1.379 . S
C2018 N2025 1.356 . S
C2019 C2018 1.363 . S
C2019 C2022 1.363 . S
N2020 C2022 1.356 . S
N2020 H2032 0.984 . S
N2020 H2033 0.985 . S
N2021 C2023 1.356 . S
N2021 H2026 0.984 . S
N2021 H2027 0.985 . S
C2022 C2016 1.379 . S
C2022 C2019 1.363 . S
C2022 N2020 1.356 . S
C2023 C2017 1.363 . S
C2023 C2018 1.379 . S
C2023 N2021 1.356 . S
N2024 C2016 1.356 . S
N2024 H2030 0.984 . S
N2024 H2031 0.984 . S
N2025 C2018 1.356 . S
N2025 H2028 0.984 . S
N2025 H2029 0.985 . S
H2026 N2021 0.984 . S
H2027 N2021 0.985 . S
H2028 N2025 0.984 . S
H2029 N2025 0.985 . S
H2030 N2024 0.984 . S
H2031 N2024 0.984 . S
H2032 N2020 0.984 . S
H2033 N2020 0.985 . S
C2034 C2035 1.363 . S
C2034 C2040 1.379 . S
C2034 N2042 1.356 . S
C2035 C2034 1.363 . S
C2035 C2041 1.363 . S
C2036 C2037 1.363 . S
C2036 C2041 1.379 . S
C2036 N2043 1.356 . S
C2037 C2036 1.363 . S
C2037 C2040 1.363 . S
N2038 C2040 1.356 . S
N2038 H2050 0.984 . S
N2038 H2051 0.985 . S
N2039 C2041 1.356 . S
N2039 H2044 0.984 . S
N2039 H2045 0.985 . S
C2040 C2034 1.379 . S
C2040 C2037 1.363 . S
C2040 N2038 1.356 . S
C2041 C2035 1.363 . S
C2041 C2036 1.379 . S
C2041 N2039 1.356 . S
N2042 C2034 1.356 . S
N2042 H2048 0.984 . S
N2042 H2049 0.984 . S
N2043 C2036 1.356 . S
N2043 H2046 0.984 . S
N2043 H2047 0.985 . S
H2044 N2039 0.984 . S
H2045 N2039 0.985 . S
H2046 N2043 0.984 . S
H2047 N2043 0.985 . S
H2048 N2042 0.984 . S
H2049 N2042 0.984 . S
H2050 N2038 0.984 . S
H2051 N2038 0.985 . S
C2052 C2053 1.363 . S
C2052 C2058 1.379 . S
C2052 N2060 1.356 . S
C2053 C2052 1.363 . S
C2053 C2059 1.363 . S
C2054 C2055 1.363 . S
C2054 C2059 1.379 . S
C2054 N2061 1.356 1_565 S
C2055 C2054 1.363 . S
C2055 C2058 1.363 . S
N2056 C2058 1.356 . S
N2056 H2068 0.984 . S
N2056 H2069 0.985 . S
N2057 C2059 1.356 . S
N2057 H2062 0.984 . S
N2057 H2063 0.985 1_565 S
C2058 C2052 1.379 . S
C2058 C2055 1.363 . S
C2058 N2056 1.356 . S
C2059 C2053 1.363 . S
C2059 C2054 1.379 . S
C2059 N2057 1.356 . S
N2060 C2052 1.356 . S
N2060 H2066 0.984 . S
N2060 H2067 0.984 . S
N2061 C2054 1.356 1_545 S
N2061 H2064 0.984 . S
N2061 H2065 0.985 . S
H2062 N2057 0.984 . S
H2063 N2057 0.985 1_545 S
H2064 N2061 0.984 . S
H2065 N2061 0.985 . S
H2066 N2060 0.984 . S
H2067 N2060 0.984 . S
H2068 N2056 0.984 . S
H2069 N2056 0.985 . S
C2070 C2071 1.363 . S
C2070 C2076 1.379 . S
C2070 N2078 1.356 . S
C2071 C2070 1.363 . S
C2071 C2077 1.363 . S
C2072 C2073 1.363 . S
C2072 C2077 1.379 . S
C2072 N2079 1.356 . S
C2073 C2072 1.363 . S
C2073 C2076 1.363 . S
N2074 C2076 1.356 . S
N2074 H2086 0.984 . S
N2074 H2087 0.985 . S
N2075 C2077 1.356 . S
N2075 H2080 0.984 . S
N2075 H2081 0.985 . S
C2076 C2070 1.379 . S
C2076 C2073 1.363 . S
C2076 N2074 1.356 . S
C2077 C2071 1.363 . S
C2077 C2072 1.379 . S
C2077 N2075 1.356 . S
N2078 C2070 1.356 . S
N2078 H2084 0.984 . S
N2078 H2085 0.984 . S
N2079 C2072 1.356 . S
N2079 H2082 0.984 . S
N2079 H2083 0.985 . S
H2080 N2075 0.984 . S
H2081 N2075 0.985 . S
H2082 N2079 0.984 . S
H2083 N2079 0.985 . S
H2084 N2078 0.984 . S
H2085 N2078 0.984 . S
H2086 N2074 0.984 . S
H2087 N2074 0.985 . S
C2088 C2089 1.363 . S
C2088 C2094 1.379 . S
C2088 N2096 1.356 . S
C2089 C2088 1.363 . S
C2089 C2095 1.363 . S
C2090 C2091 1.363 . S
C2090 C2095 1.379 . S
C2090 N2097 1.356 . S
C2091 C2090 1.363 . S
C2091 C2094 1.363 . S
N2092 C2094 1.356 . S
N2092 H2104 0.984 . S
N2092 H2105 0.985 . S
N2093 C2095 1.356 . S
N2093 H2098 0.984 . S
N2093 H2099 0.985 . S
C2094 C2088 1.379 . S
C2094 C2091 1.363 . S
C2094 N2092 1.356 . S
C2095 C2089 1.363 . S
C2095 C2090 1.379 . S
C2095 N2093 1.356 . S
N2096 C2088 1.356 . S
N2096 H2102 0.984 . S
N2096 H2103 0.984 . S
N2097 C2090 1.356 . S
N2097 H2100 0.984 . S
N2097 H2101 0.985 . S
H2098 N2093 0.984 . S
H2099 N2093 0.985 . S
H2100 N2097 0.984 . S
H2101 N2097 0.985 . S
H2102 N2096 0.984 . S
H2103 N2096 0.984 . S
H2104 N2092 0.984 . S
H2105 N2092 0.985 . S
C2106 C2107 1.363 . S
C2106 C2112 1.379 . S
C2106 N2114 1.356 . S
C2107 C2106 1.363 . S
C2107 C2113 1.363 . S
C2108 C2109 1.363 . S
C2108 C2113 1.379 . S
C2108 N2115 1.356 1_655 S
C2109 C2108 1.363 . S
C2109 C2112 1.363 . S
N2110 C2112 1.356 . S
N2110 H2122 0.984 . S
N2110 H2123 0.985 . S
N2111 C2113 1.356 . S
N2111 H2116 0.984 . S
N2111 H2117 0.985 1_655 S
C2112 C2106 1.379 . S
C2112 C2109 1.363 . S
C2112 N2110 1.356 . S
C2113 C2107 1.363 . S
C2113 C2108 1.379 . S
C2113 N2111 1.356 . S
N2114 C2106 1.356 . S
N2114 H2120 0.984 . S
N2114 H2121 0.984 . S
N2115 C2108 1.356 1_455 S
N2115 H2118 0.984 . S
N2115 H2119 0.985 . S
H2116 N2111 0.984 . S
H2117 N2111 0.985 1_455 S
H2118 N2115 0.984 . S
H2119 N2115 0.985 . S
H2120 N2114 0.984 . S
H2121 N2114 0.984 . S
H2122 N2110 0.984 . S
H2123 N2110 0.985 . S
C2124 C2125 1.363 . S
C2124 C2130 1.379 . S
C2124 N2132 1.356 . S
C2125 C2124 1.363 . S
C2125 C2131 1.363 . S
C2126 C2127 1.363 . S
C2126 C2131 1.379 . S
C2126 N2133 1.356 . S
C2127 C2126 1.363 . S
C2127 C2130 1.363 . S
N2128 C2130 1.356 . S
N2128 H2140 0.984 . S
N2128 H2141 0.985 . S
N2129 C2131 1.356 . S
N2129 H2134 0.984 . S
N2129 H2135 0.985 . S
C2130 C2124 1.379 . S
C2130 C2127 1.363 . S
C2130 N2128 1.356 . S
C2131 C2125 1.363 . S
C2131 C2126 1.379 . S
C2131 N2129 1.356 . S
N2132 C2124 1.356 . S
N2132 H2138 0.984 . S
N2132 H2139 0.984 . S
N2133 C2126 1.356 . S
N2133 H2136 0.984 . S
N2133 H2137 0.985 . S
H2134 N2129 0.984 . S
H2135 N2129 0.985 . S
H2136 N2133 0.984 . S
H2137 N2133 0.985 . S
H2138 N2132 0.984 . S
H2139 N2132 0.984 . S
H2140 N2128 0.984 . S
H2141 N2128 0.985 . S
C2142 C2143 1.363 . S
C2142 C2148 1.379 . S
C2142 N2150 1.356 . S
C2143 C2142 1.363 . S
C2143 C2149 1.363 . S
C2144 C2145 1.363 . S
C2144 C2149 1.379 . S
C2144 N2151 1.356 . S
C2145 C2144 1.363 . S
C2145 C2148 1.363 . S
N2146 C2148 1.356 1_565 S
N2146 H2158 0.984 . S
N2146 H2159 0.985 . S
N2147 C2149 1.356 . S
N2147 H2152 0.984 . S
N2147 H2153 0.985 . S
C2148 C2142 1.379 . S
C2148 C2145 1.363 . S
C2148 N2146 1.356 1_545 S
C2149 C2143 1.363 . S
C2149 C2144 1.379 . S
C2149 N2147 1.356 . S
N2150 C2142 1.356 . S
N2150 H2156 0.984 1_545 S
N2150 H2157 0.984 . S
N2151 C2144 1.356 . S
N2151 H2154 0.984 . S
N2151 H2155 0.985 . S
H2152 N2147 0.984 . S
H2153 N2147 0.985 . S
H2154 N2151 0.984 . S
H2155 N2151 0.985 . S
H2156 N2150 0.984 1_565 S
H2157 N2150 0.984 . S
H2158 N2146 0.984 . S
H2159 N2146 0.985 . S
C2160 C2161 1.363 . S
C2160 C2166 1.379 . S
C2160 N2168 1.356 . S
C2161 C2160 1.363 . S
C2161 C2167 1.363 . S
C2162 C2163 1.363 . S
C2162 C2167 1.379 . S
C2162 N2169 1.356 . S
C2163 C2162 1.363 . S
C2163 C2166 1.363 . S
N2164 C2166 1.356 . S
N2164 H2176 0.984 . S
N2164 H2177 0.985 . S
N2165 C2167 1.356 . S
N2165 H2170 0.984 . S
N2165 H2171 0.985 . S
C2166 C2160 1.379 . S
C2166 C2163 1.363 . S
C2166 N2164 1.356 . S
C2167 C2161 1.363 . S
C2167 C2162 1.379 . S
C2167 N2165 1.356 . S
N2168 C2160 1.356 . S
N2168 H2174 0.984 . S
N2168 H2175 0.984 . S
N2169 C2162 1.356 . S
N2169 H2172 0.984 . S
N2169 H2173 0.985 . S
H2170 N2165 0.984 . S
H2171 N2165 0.985 . S
H2172 N2169 0.984 . S
H2173 N2169 0.985 . S
H2174 N2168 0.984 . S
H2175 N2168 0.984 . S
H2176 N2164 0.984 . S
H2177 N2164 0.985 . S
C2178 C2179 1.363 . S
C2178 C2184 1.379 . S
C2178 N2186 1.356 . S
C2179 C2178 1.363 . S
C2179 C2185 1.363 . S
C2180 C2181 1.363 . S
C2180 C2185 1.379 . S
C2180 N2187 1.356 . S
C2181 C2180 1.363 . S
C2181 C2184 1.363 . S
N2182 C2184 1.356 . S
N2182 H2194 0.984 . S
N2182 H2195 0.985 . S
N2183 C2185 1.356 . S
N2183 H2188 0.984 . S
N2183 H2189 0.985 . S
C2184 C2178 1.379 . S
C2184 C2181 1.363 . S
C2184 N2182 1.356 . S
C2185 C2179 1.363 . S
C2185 C2180 1.379 . S
C2185 N2183 1.356 . S
N2186 C2178 1.356 . S
N2186 H2192 0.984 . S
N2186 H2193 0.984 . S
N2187 C2180 1.356 . S
N2187 H2190 0.984 . S
N2187 H2191 0.985 . S
H2188 N2183 0.984 . S
H2189 N2183 0.985 . S
H2190 N2187 0.984 . S
H2191 N2187 0.985 . S
H2192 N2186 0.984 . S
H2193 N2186 0.984 . S
H2194 N2182 0.984 . S
H2195 N2182 0.985 . S
C2196 C2197 1.363 . S
C2196 C2202 1.379 . S
C2196 N2204 1.356 . S
C2197 C2196 1.363 . S
C2197 C2203 1.363 . S
C2198 C2199 1.363 . S
C2198 C2203 1.379 . S
C2198 N2205 1.356 . S
C2199 C2198 1.363 . S
C2199 C2202 1.363 . S
N2200 C2202 1.356 . S
N2200 H2212 0.984 . S
N2200 H2213 0.985 . S
N2201 C2203 1.356 . S
N2201 H2206 0.984 . S
N2201 H2207 0.985 . S
C2202 C2196 1.379 . S
C2202 C2199 1.363 . S
C2202 N2200 1.356 . S
C2203 C2197 1.363 . S
C2203 C2198 1.379 . S
C2203 N2201 1.356 . S
N2204 C2196 1.356 . S
N2204 H2210 0.984 . S
N2204 H2211 0.984 . S
N2205 C2198 1.356 . S
N2205 H2208 0.984 . S
N2205 H2209 0.985 . S
H2206 N2201 0.984 . S
H2207 N2201 0.985 . S
H2208 N2205 0.984 . S
H2209 N2205 0.985 . S
H2210 N2204 0.984 . S
H2211 N2204 0.984 . S
H2212 N2200 0.984 . S
H2213 N2200 0.985 . S
C2214 C2215 1.363 . S
C2214 C2220 1.379 . S
C2214 N2222 1.356 . S
C2215 C2214 1.363 . S
C2215 C2221 1.363 . S
C2216 C2217 1.363 . S
C2216 C2221 1.379 . S
C2216 N2223 1.356 . S
C2217 C2216 1.363 . S
C2217 C2220 1.363 . S
N2218 C2220 1.356 . S
N2218 H2230 0.984 . S
N2218 H2231 0.985 . S
N2219 C2221 1.356 . S
N2219 H2224 0.984 . S
N2219 H2225 0.985 . S
C2220 C2214 1.379 . S
C2220 C2217 1.363 . S
C2220 N2218 1.356 . S
C2221 C2215 1.363 . S
C2221 C2216 1.379 . S
C2221 N2219 1.356 . S
N2222 C2214 1.356 . S
N2222 H2228 0.984 . S
N2222 H2229 0.984 . S
N2223 C2216 1.356 . S
N2223 H2226 0.984 . S
N2223 H2227 0.985 . S
H2224 N2219 0.984 . S
H2225 N2219 0.985 . S
H2226 N2223 0.984 . S
H2227 N2223 0.985 . S
H2228 N2222 0.984 . S
H2229 N2222 0.984 . S
H2230 N2218 0.984 . S
H2231 N2218 0.985 . S
C2232 C2233 1.363 . S
C2232 C2238 1.379 . S
C2232 N2240 1.356 . S
C2233 C2232 1.363 . S
C2233 C2239 1.363 . S
C2234 C2235 1.363 . S
C2234 C2239 1.379 . S
C2234 N2241 1.356 . S
C2235 C2234 1.363 . S
C2235 C2238 1.363 . S
N2236 C2238 1.356 . S
N2236 H2248 0.984 . S
N2236 H2249 0.985 . S
N2237 C2239 1.356 . S
N2237 H2242 0.984 . S
N2237 H2243 0.985 . S
C2238 C2232 1.379 . S
C2238 C2235 1.363 . S
C2238 N2236 1.356 . S
C2239 C2233 1.363 . S
C2239 C2234 1.379 . S
C2239 N2237 1.356 . S
N2240 C2232 1.356 . S
N2240 H2246 0.984 . S
N2240 H2247 0.984 . S
N2241 C2234 1.356 . S
N2241 H2244 0.984 . S
N2241 H2245 0.985 . S
H2242 N2237 0.984 . S
H2243 N2237 0.985 . S
H2244 N2241 0.984 . S
H2245 N2241 0.985 . S
H2246 N2240 0.984 . S
H2247 N2240 0.984 . S
H2248 N2236 0.984 . S
H2249 N2236 0.985 . S
C2250 C2251 1.363 . S
C2250 C2256 1.379 . S
C2250 N2258 1.356 . S
C2251 C2250 1.363 . S
C2251 C2257 1.363 . S
C2252 C2253 1.363 . S
C2252 C2257 1.379 . S
C2252 N2259 1.356 . S
C2253 C2252 1.363 . S
C2253 C2256 1.363 . S
N2254 C2256 1.356 . S
N2254 H2266 0.984 . S
N2254 H2267 0.985 . S
N2255 C2257 1.356 . S
N2255 H2260 0.984 . S
N2255 H2261 0.985 . S
C2256 C2250 1.379 . S
C2256 C2253 1.363 . S
C2256 N2254 1.356 . S
C2257 C2251 1.363 . S
C2257 C2252 1.379 . S
C2257 N2255 1.356 . S
N2258 C2250 1.356 . S
N2258 H2264 0.984 . S
N2258 H2265 0.984 . S
N2259 C2252 1.356 . S
N2259 H2262 0.984 . S
N2259 H2263 0.985 . S
H2260 N2255 0.984 . S
H2261 N2255 0.985 . S
H2262 N2259 0.984 . S
H2263 N2259 0.985 . S
H2264 N2258 0.984 . S
H2265 N2258 0.984 . S
H2266 N2254 0.984 . S
H2267 N2254 0.985 . S
C2268 C2269 1.363 . S
C2268 C2274 1.379 . S
C2268 N2276 1.356 . S
C2269 C2268 1.363 . S
C2269 C2275 1.363 . S
C2270 C2271 1.363 . S
C2270 C2275 1.379 . S
C2270 N2277 1.356 . S
C2271 C2270 1.363 . S
C2271 C2274 1.363 . S
N2272 C2274 1.356 . S
N2272 H2284 0.984 . S
N2272 H2285 0.985 . S
N2273 C2275 1.356 . S
N2273 H2278 0.984 . S
N2273 H2279 0.985 . S
C2274 C2268 1.379 . S
C2274 C2271 1.363 . S
C2274 N2272 1.356 . S
C2275 C2269 1.363 . S
C2275 C2270 1.379 . S
C2275 N2273 1.356 . S
N2276 C2268 1.356 . S
N2276 H2282 0.984 . S
N2276 H2283 0.984 . S
N2277 C2270 1.356 . S
N2277 H2280 0.984 . S
N2277 H2281 0.985 . S
H2278 N2273 0.984 . S
H2279 N2273 0.985 . S
H2280 N2277 0.984 . S
H2281 N2277 0.985 . S
H2282 N2276 0.984 . S
H2283 N2276 0.984 . S
H2284 N2272 0.984 . S
H2285 N2272 0.985 . S
C2286 C2287 1.363 . S
C2286 C2292 1.379 . S
C2286 N2294 1.356 . S
C2287 C2286 1.363 . S
C2287 C2293 1.363 . S
C2288 C2289 1.363 . S
C2288 C2293 1.379 . S
C2288 N2295 1.356 . S
C2289 C2288 1.363 . S
C2289 C2292 1.363 . S
N2290 C2292 1.356 . S
N2290 H2302 0.984 . S
N2290 H2303 0.985 . S
N2291 C2293 1.356 . S
N2291 H2296 0.984 . S
N2291 H2297 0.985 . S
C2292 C2286 1.379 . S
C2292 C2289 1.363 . S
C2292 N2290 1.356 . S
C2293 C2287 1.363 . S
C2293 C2288 1.379 . S
C2293 N2291 1.356 . S
N2294 C2286 1.356 . S
N2294 H2300 0.984 . S
N2294 H2301 0.984 . S
N2295 C2288 1.356 . S
N2295 H2298 0.984 . S
N2295 H2299 0.985 . S
H2296 N2291 0.984 . S
H2297 N2291 0.985 . S
H2298 N2295 0.984 . S
H2299 N2295 0.985 . S
H2300 N2294 0.984 . S
H2301 N2294 0.984 . S
H2302 N2290 0.984 . S
H2303 N2290 0.985 . S
C2304 C2305 1.363 . S
C2304 C2310 1.379 . S
C2304 N2312 1.356 . S
C2305 C2304 1.363 . S
C2305 C2311 1.363 . S
C2306 C2307 1.363 . S
C2306 C2311 1.379 . S
C2306 N2313 1.356 . S
C2307 C2306 1.363 . S
C2307 C2310 1.363 . S
N2308 C2310 1.356 . S
N2308 H2320 0.984 . S
N2308 H2321 0.985 . S
N2309 C2311 1.356 . S
N2309 H2314 0.984 . S
N2309 H2315 0.985 . S
C2310 C2304 1.379 . S
C2310 C2307 1.363 . S
C2310 N2308 1.356 . S
C2311 C2305 1.363 . S
C2311 C2306 1.379 . S
C2311 N2309 1.356 . S
N2312 C2304 1.356 . S
N2312 H2318 0.984 . S
N2312 H2319 0.984 . S
N2313 C2306 1.356 . S
N2313 H2316 0.984 . S
N2313 H2317 0.985 . S
H2314 N2309 0.984 . S
H2315 N2309 0.985 . S
H2316 N2313 0.984 . S
H2317 N2313 0.985 . S
H2318 N2312 0.984 . S
H2319 N2312 0.984 . S
H2320 N2308 0.984 . S
H2321 N2308 0.985 . S
C2322 C2323 1.363 . S
C2322 C2328 1.379 . S
C2322 N2330 1.356 . S
C2323 C2322 1.363 . S
C2323 C2329 1.363 . S
C2324 C2325 1.363 . S
C2324 C2329 1.379 . S
C2324 N2331 1.356 . S
C2325 C2324 1.363 . S
C2325 C2328 1.363 . S
N2326 C2328 1.356 . S
N2326 H2338 0.984 . S
N2326 H2339 0.985 . S
N2327 C2329 1.356 . S
N2327 H2332 0.984 . S
N2327 H2333 0.985 . S
C2328 C2322 1.379 . S
C2328 C2325 1.363 . S
C2328 N2326 1.356 . S
C2329 C2323 1.363 . S
C2329 C2324 1.379 . S
C2329 N2327 1.356 . S
N2330 C2322 1.356 . S
N2330 H2336 0.984 . S
N2330 H2337 0.984 . S
N2331 C2324 1.356 . S
N2331 H2334 0.984 . S
N2331 H2335 0.985 . S
H2332 N2327 0.984 . S
H2333 N2327 0.985 . S
H2334 N2331 0.984 . S
H2335 N2331 0.985 . S
H2336 N2330 0.984 . S
H2337 N2330 0.984 . S
H2338 N2326 0.984 . S
H2339 N2326 0.985 . S
C2340 C2341 1.363 . S
C2340 C2346 1.379 . S
C2340 N2348 1.356 . S
C2341 C2340 1.363 . S
C2341 C2347 1.363 . S
C2342 C2343 1.363 . S
C2342 C2347 1.379 . S
C2342 N2349 1.356 . S
C2343 C2342 1.363 . S
C2343 C2346 1.363 . S
N2344 C2346 1.356 . S
N2344 H2356 0.984 . S
N2344 H2357 0.985 . S
N2345 C2347 1.356 . S
N2345 H2350 0.984 . S
N2345 H2351 0.985 . S
C2346 C2340 1.379 . S
C2346 C2343 1.363 . S
C2346 N2344 1.356 . S
C2347 C2341 1.363 . S
C2347 C2342 1.379 . S
C2347 N2345 1.356 . S
N2348 C2340 1.356 . S
N2348 H2354 0.984 . S
N2348 H2355 0.984 . S
N2349 C2342 1.356 . S
N2349 H2352 0.984 . S
N2349 H2353 0.985 . S
H2350 N2345 0.984 . S
H2351 N2345 0.985 . S
H2352 N2349 0.984 . S
H2353 N2349 0.985 . S
H2354 N2348 0.984 . S
H2355 N2348 0.984 . S
H2356 N2344 0.984 . S
H2357 N2344 0.985 . S
C2358 C2359 1.363 . S
C2358 C2364 1.379 . S
C2358 N2366 1.356 . S
C2359 C2358 1.363 . S
C2359 C2365 1.363 . S
C2360 C2361 1.363 . S
C2360 C2365 1.379 . S
C2360 N2367 1.356 . S
C2361 C2360 1.363 . S
C2361 C2364 1.363 . S
N2362 C2364 1.356 . S
N2362 H2374 0.984 . S
N2362 H2375 0.985 . S
N2363 C2365 1.356 . S
N2363 H2368 0.984 . S
N2363 H2369 0.985 . S
C2364 C2358 1.379 . S
C2364 C2361 1.363 . S
C2364 N2362 1.356 . S
C2365 C2359 1.363 . S
C2365 C2360 1.379 . S
C2365 N2363 1.356 . S
N2366 C2358 1.356 . S
N2366 H2372 0.984 . S
N2366 H2373 0.984 . S
N2367 C2360 1.356 . S
N2367 H2370 0.984 . S
N2367 H2371 0.985 . S
H2368 N2363 0.984 . S
H2369 N2363 0.985 . S
H2370 N2367 0.984 . S
H2371 N2367 0.985 . S
H2372 N2366 0.984 . S
H2373 N2366 0.984 . S
H2374 N2362 0.984 . S
H2375 N2362 0.985 . S
C1405 C469 1.487 . S
C1407 C704 1.402 . S
C1423 C505 1.497 . S
C1425 C788 1.420 . S
C1441 C433 1.523 . S
C1443 C882 1.455 . S
C1459 C397 1.477 . S
C1461 C798 1.417 . S
C1479 C872 1.362 . S
C1477 C325 1.444 . S
C1495 C361 1.474 . S
C1497 C714 1.407 . S
C1515 C715 1.403 . S
C1513 C421 1.487 . S
C1533 C799 1.421 . S
C1531 C349 1.496 . S
C1549 C385 1.523 . S
C1551 C891 1.456 . S
C1567 C493 1.476 . S
C1569 C807 1.418 . S
C1585 C529 1.445 . S
C1587 C883 1.363 . S
C1605 C723 1.407 . S
C1603 C457 1.475 . S
C1623 C956 1.402 . S
C1621 C37 1.486 1_455 S
C1639 C73 1.497 . S
C1641 C1040 1.420 . S
C1657 C1 1.524 1_565 S
C1659 C1134 1.455 . S
C1675 C613 1.477 . S
C1677 C1050 1.417 . S
C1693 C541 1.445 . S
C1695 C1124 1.362 . S
C1711 C577 1.474 . S
C1713 C966 1.407 . S
C1729 C637 1.488 . S
C1731 C967 1.403 . S
C1747 C565 1.496 . S
C1749 C1051 1.421 . S
C1767 C1143 1.456 . S
C1765 C601 1.523 . S
C1783 C61 1.476 1_565 S
C1785 C1059 1.418 . S
C1803 C1135 1.363 . S
C1801 C97 1.445 1_455 S
C1819 C25 1.475 . S
C1821 C975 1.407 . S
C1839 C1208 1.402 . S
C1837 C253 1.487 . S
C1855 C289 1.497 . S
C1857 C1292 1.420 . S
C1875 C1386 1.455 . S
C1873 C217 1.524 . S
C1893 C1302 1.417 . S
C1891 C181 1.477 1_545 S
C1911 C1376 1.362 . S
C1909 C109 1.444 1_655 S
C1927 C145 1.474 . S
C1929 C1218 1.407 . S
C1945 C205 1.487 1_655 S
C1947 C1219 1.403 . S
C1963 C133 1.496 . S
C1965 C1303 1.421 . S
C1983 C1395 1.456 . S
C1981 C169 1.523 1_545 S
C1999 C277 1.477 . S
C2001 C1311 1.418 . S
C2017 C313 1.445 . S
C2019 C1387 1.363 . S
C2035 C241 1.475 . S
C2037 C1227 1.407 . S
C2053 C571 1.475 . S
C2055 C711 1.378 . S
C2073 C795 1.369 . S
C2071 C607 1.517 . S
C2089 C643 1.491 . S
C2091 C888 1.364 . S
C2107 C247 1.518 . S
C2109 C804 1.368 . S
C2125 C283 1.492 . S
C2127 C879 1.364 . S
C2145 C720 1.377 . S
C2143 C319 1.476 . S
C2161 C139 1.475 . S
C2163 C963 1.378 . S
C2179 C175 1.517 . S
C2181 C1047 1.369 . S
C2197 C211 1.491 . S
C2199 C1140 1.364 . S
C2215 C463 1.518 . S
C2217 C1056 1.368 . S
C2235 C1131 1.364 . S
C2233 C499 1.492 . S
C2251 C535 1.476 . S
C2253 C972 1.377 . S
C2269 C355 1.475 . S
C2271 C1215 1.378 . S
C2287 C391 1.517 . S
C2289 C1299 1.369 . S
C2307 C1392 1.364 . S
C2305 C427 1.491 . S
C2323 C31 1.518 . S
C2325 C1308 1.368 . S
C2341 C67 1.492 . S
C2343 C1383 1.364 . S
C2359 C103 1.476 . S
C2361 C1224 1.377 . S
