# Generated by pormake.
# Topology ptr, (4,4)-cn, num edge types: 1
# Building blocks:
#     Node 0, Type 0, BuildingBlock: GALJAG_clean_sbu_0, # of connection points: 4
#     Node 1, Type 0, BuildingBlock: GALJAG_clean_sbu_0, # of connection points: 4
#     Node 2, Type 0, BuildingBlock: GALJAG_clean_sbu_0, # of connection points: 4
#     Node 3, Type 0, BuildingBlock: GALJAG_clean_sbu_0, # of connection points: 4
#     Node 4, Type 0, BuildingBlock: GALJAG_clean_sbu_0, # of connection points: 4
#     Node 5, Type 0, BuildingBlock: GALJAG_clean_sbu_0, # of connection points: 4
#     Node 6, Type 0, BuildingBlock: GALJAG_clean_sbu_0, # of connection points: 4
#     Node 7, Type 0, BuildingBlock: GALJAG_clean_sbu_0, # of connection points: 4
#     Node 8, Type 0, BuildingBlock: GALJAG_clean_sbu_0, # of connection points: 4
#     Node 9, Type 0, BuildingBlock: GALJAG_clean_sbu_0, # of connection points: 4
#     Node 10, Type 0, BuildingBlock: GALJAG_clean_sbu_0, # of connection points: 4
#     Node 11, Type 0, BuildingBlock: GALJAG_clean_sbu_0, # of connection points: 4
#     Node 12, Type 0, BuildingBlock: GALJAG_clean_sbu_0, # of connection points: 4
#     Node 13, Type 0, BuildingBlock: GALJAG_clean_sbu_0, # of connection points: 4
#     Node 14, Type 0, BuildingBlock: GALJAG_clean_sbu_0, # of connection points: 4
#     Node 15, Type 0, BuildingBlock: GALJAG_clean_sbu_0, # of connection points: 4
#     Node 16, Type 0, BuildingBlock: GALJAG_clean_sbu_0, # of connection points: 4
#     Node 17, Type 0, BuildingBlock: GALJAG_clean_sbu_0, # of connection points: 4
#     Node 18, Type 1, BuildingBlock: AZAVOO_clean_linker_0, # of connection points: 4
#     Node 19, Type 1, BuildingBlock: AZAVOO_clean_linker_0, # of connection points: 4
#     Node 20, Type 1, BuildingBlock: AZAVOO_clean_linker_0, # of connection points: 4
#     Node 21, Type 1, BuildingBlock: AZAVOO_clean_linker_0, # of connection points: 4
#     Node 22, Type 1, BuildingBlock: AZAVOO_clean_linker_0, # of connection points: 4
#     Node 23, Type 1, BuildingBlock: AZAVOO_clean_linker_0, # of connection points: 4
#     Node 24, Type 1, BuildingBlock: AZAVOO_clean_linker_0, # of connection points: 4
#     Node 25, Type 1, BuildingBlock: AZAVOO_clean_linker_0, # of connection points: 4
#     Node 26, Type 1, BuildingBlock: AZAVOO_clean_linker_0, # of connection points: 4
#     Node 27, Type 1, BuildingBlock: AZAVOO_clean_linker_0, # of connection points: 4
#     Node 28, Type 1, BuildingBlock: AZAVOO_clean_linker_0, # of connection points: 4
#     Node 29, Type 1, BuildingBlock: AZAVOO_clean_linker_0, # of connection points: 4
#     Node 30, Type 1, BuildingBlock: AZAVOO_clean_linker_0, # of connection points: 4
#     Node 31, Type 1, BuildingBlock: AZAVOO_clean_linker_0, # of connection points: 4
#     Node 32, Type 1, BuildingBlock: AZAVOO_clean_linker_0, # of connection points: 4
#     Node 33, Type 1, BuildingBlock: AZAVOO_clean_linker_0, # of connection points: 4
#     Node 34, Type 1, BuildingBlock: AZAVOO_clean_linker_0, # of connection points: 4
#     Node 35, Type 1, BuildingBlock: AZAVOO_clean_linker_0, # of connection points: 4
#     Edge 36, Type (0, 1), BuildingBlock: UVAHIK_clean_linker_0, # of connection points: 2
#     Edge 37, Type (0, 1), BuildingBlock: UVAHIK_clean_linker_0, # of connection points: 2
#     Edge 38, Type (0, 1), BuildingBlock: UVAHIK_clean_linker_0, # of connection points: 2
#     Edge 39, Type (0, 1), BuildingBlock: UVAHIK_clean_linker_0, # of connection points: 2
#     Edge 40, Type (0, 1), BuildingBlock: UVAHIK_clean_linker_0, # of connection points: 2
#     Edge 41, Type (0, 1), BuildingBlock: UVAHIK_clean_linker_0, # of connection points: 2
#     Edge 42, Type (0, 1), BuildingBlock: UVAHIK_clean_linker_0, # of connection points: 2
#     Edge 43, Type (0, 1), BuildingBlock: UVAHIK_clean_linker_0, # of connection points: 2
#     Edge 44, Type (0, 1), BuildingBlock: UVAHIK_clean_linker_0, # of connection points: 2
#     Edge 45, Type (0, 1), BuildingBlock: UVAHIK_clean_linker_0, # of connection points: 2
#     Edge 46, Type (0, 1), BuildingBlock: UVAHIK_clean_linker_0, # of connection points: 2
#     Edge 47, Type (0, 1), BuildingBlock: UVAHIK_clean_linker_0, # of connection points: 2
#     Edge 48, Type (0, 1), BuildingBlock: UVAHIK_clean_linker_0, # of connection points: 2
#     Edge 49, Type (0, 1), BuildingBlock: UVAHIK_clean_linker_0, # of connection points: 2
#     Edge 50, Type (0, 1), BuildingBlock: UVAHIK_clean_linker_0, # of connection points: 2
#     Edge 51, Type (0, 1), BuildingBlock: UVAHIK_clean_linker_0, # of connection points: 2
#     Edge 52, Type (0, 1), BuildingBlock: UVAHIK_clean_linker_0, # of connection points: 2
#     Edge 53, Type (0, 1), BuildingBlock: UVAHIK_clean_linker_0, # of connection points: 2
#     Edge 54, Type (0, 1), BuildingBlock: UVAHIK_clean_linker_0, # of connection points: 2
#     Edge 55, Type (0, 1), BuildingBlock: UVAHIK_clean_linker_0, # of connection points: 2
#     Edge 56, Type (0, 1), BuildingBlock: UVAHIK_clean_linker_0, # of connection points: 2
#     Edge 57, Type (0, 1), BuildingBlock: UVAHIK_clean_linker_0, # of connection points: 2
#     Edge 58, Type (0, 1), BuildingBlock: UVAHIK_clean_linker_0, # of connection points: 2
#     Edge 59, Type (0, 1), BuildingBlock: UVAHIK_clean_linker_0, # of connection points: 2
#     Edge 60, Type (0, 1), BuildingBlock: UVAHIK_clean_linker_0, # of connection points: 2
#     Edge 61, Type (0, 1), BuildingBlock: UVAHIK_clean_linker_0, # of connection points: 2
#     Edge 62, Type (0, 1), BuildingBlock: UVAHIK_clean_linker_0, # of connection points: 2
#     Edge 63, Type (0, 1), BuildingBlock: UVAHIK_clean_linker_0, # of connection points: 2
#     Edge 64, Type (0, 1), BuildingBlock: UVAHIK_clean_linker_0, # of connection points: 2
#     Edge 65, Type (0, 1), BuildingBlock: UVAHIK_clean_linker_0, # of connection points: 2
#     Edge 66, Type (0, 1), BuildingBlock: UVAHIK_clean_linker_0, # of connection points: 2
#     Edge 67, Type (0, 1), BuildingBlock: UVAHIK_clean_linker_0, # of connection points: 2
#     Edge 68, Type (0, 1), BuildingBlock: UVAHIK_clean_linker_0, # of connection points: 2
#     Edge 69, Type (0, 1), BuildingBlock: UVAHIK_clean_linker_0, # of connection points: 2
#     Edge 70, Type (0, 1), BuildingBlock: UVAHIK_clean_linker_0, # of connection points: 2
#     Edge 71, Type (0, 1), BuildingBlock: UVAHIK_clean_linker_0, # of connection points: 2
#     Edge 72, Type (0, 1), BuildingBlock: UVAHIK_clean_linker_0, # of connection points: 2
#     Edge 73, Type (0, 1), BuildingBlock: UVAHIK_clean_linker_0, # of connection points: 2
#     Edge 74, Type (0, 1), BuildingBlock: UVAHIK_clean_linker_0, # of connection points: 2
#     Edge 75, Type (0, 1), BuildingBlock: UVAHIK_clean_linker_0, # of connection points: 2
#     Edge 76, Type (0, 1), BuildingBlock: UVAHIK_clean_linker_0, # of connection points: 2
#     Edge 77, Type (0, 1), BuildingBlock: UVAHIK_clean_linker_0, # of connection points: 2
#     Edge 78, Type (0, 1), BuildingBlock: UVAHIK_clean_linker_0, # of connection points: 2
#     Edge 79, Type (0, 1), BuildingBlock: UVAHIK_clean_linker_0, # of connection points: 2
#     Edge 80, Type (0, 1), BuildingBlock: UVAHIK_clean_linker_0, # of connection points: 2
#     Edge 81, Type (0, 1), BuildingBlock: UVAHIK_clean_linker_0, # of connection points: 2
#     Edge 82, Type (0, 1), BuildingBlock: UVAHIK_clean_linker_0, # of connection points: 2
#     Edge 83, Type (0, 1), BuildingBlock: UVAHIK_clean_linker_0, # of connection points: 2
#     Edge 84, Type (0, 1), BuildingBlock: UVAHIK_clean_linker_0, # of connection points: 2
#     Edge 85, Type (0, 1), BuildingBlock: UVAHIK_clean_linker_0, # of connection points: 2
#     Edge 86, Type (0, 1), BuildingBlock: UVAHIK_clean_linker_0, # of connection points: 2
#     Edge 87, Type (0, 1), BuildingBlock: UVAHIK_clean_linker_0, # of connection points: 2
#     Edge 88, Type (0, 1), BuildingBlock: UVAHIK_clean_linker_0, # of connection points: 2
#     Edge 89, Type (0, 1), BuildingBlock: UVAHIK_clean_linker_0, # of connection points: 2
#     Edge 90, Type (0, 1), BuildingBlock: UVAHIK_clean_linker_0, # of connection points: 2
#     Edge 91, Type (0, 1), BuildingBlock: UVAHIK_clean_linker_0, # of connection points: 2
#     Edge 92, Type (0, 1), BuildingBlock: UVAHIK_clean_linker_0, # of connection points: 2
#     Edge 93, Type (0, 1), BuildingBlock: UVAHIK_clean_linker_0, # of connection points: 2
#     Edge 94, Type (0, 1), BuildingBlock: UVAHIK_clean_linker_0, # of connection points: 2
#     Edge 95, Type (0, 1), BuildingBlock: UVAHIK_clean_linker_0, # of connection points: 2
#     Edge 96, Type (0, 1), BuildingBlock: UVAHIK_clean_linker_0, # of connection points: 2
#     Edge 97, Type (0, 1), BuildingBlock: UVAHIK_clean_linker_0, # of connection points: 2
#     Edge 98, Type (0, 1), BuildingBlock: UVAHIK_clean_linker_0, # of connection points: 2
#     Edge 99, Type (0, 1), BuildingBlock: UVAHIK_clean_linker_0, # of connection points: 2
#     Edge 100, Type (0, 1), BuildingBlock: UVAHIK_clean_linker_0, # of connection points: 2
#     Edge 101, Type (0, 1), BuildingBlock: UVAHIK_clean_linker_0, # of connection points: 2
#     Edge 102, Type (0, 1), BuildingBlock: UVAHIK_clean_linker_0, # of connection points: 2
#     Edge 103, Type (0, 1), BuildingBlock: UVAHIK_clean_linker_0, # of connection points: 2
#     Edge 104, Type (0, 1), BuildingBlock: UVAHIK_clean_linker_0, # of connection points: 2
#     Edge 105, Type (0, 1), BuildingBlock: UVAHIK_clean_linker_0, # of connection points: 2
#     Edge 106, Type (0, 1), BuildingBlock: UVAHIK_clean_linker_0, # of connection points: 2
#     Edge 107, Type (0, 1), BuildingBlock: UVAHIK_clean_linker_0, # of connection points: 2
# Relax obj value: 0.030
# Max RMSD: 0.165
# Mean RMSD: 0.100
data_MOF--net-ptr--node1-GALJAG_clean_sbu_0--node2-AZAVOO_clean_linker_0--edge1-UVAHIK_clean_linker_0
_symmetry_space_group_name_H-M    P1
_symmetry_Int_Tables_number       1
_symmetry_cell_setting            triclinic
loop_
_symmetry_equiv_pos_as_xyz
'x, y, z'
_cell_length_a     100.05369
_cell_length_b     98.201286
_cell_length_c     90.173771
_cell_angle_alpha  92.379123
_cell_angle_beta   92.217136
_cell_angle_gamma 120.23618
loop_
_atom_site_label
_atom_site_type_symbol
_atom_site_fract_x
_atom_site_fract_y
_atom_site_fract_z
_atom_type_partial_charge
In0 In 0.00226 0.3616 0.01239 0.0
O1 O 0.98641 0.36398 0.02853 0.0
O2 O 0.00944 0.3833 0.028 0.0
C3 C 0.98233 0.33348 0.99791 0.0
C4 C 0.0212 0.35467 0.02831 0.0
C5 C 0.00776 0.38033 0.98967 0.0
O6 O 0.97821 0.33987 0.00775 0.0
O7 O 0.9965 0.34124 0.99544 0.0
O8 O 0.01803 0.37784 0.99531 0.0
O9 O 0.99493 0.37342 0.99551 0.0
C10 C 0.99649 0.37776 0.0336 0.0
O11 O 0.02604 0.36435 0.01828 0.0
O12 O 0.00695 0.34859 0.0302 0.0
In13 In 0.62852 0.61905 0.05136 0.0
O14 O 0.6272 0.60228 0.06896 0.0
O15 O 0.60734 0.60428 0.06408 0.0
C16 C 0.65551 0.62573 0.0398 0.0
C17 C 0.63556 0.64553 0.06788 0.0
C18 C 0.60939 0.60885 0.02637 0.0
O19 O 0.64605 0.61212 0.04366 0.0
O20 O 0.6514 0.6358 0.04188 0.0
O21 O 0.6141 0.62221 0.033 0.0
O22 O 0.61431 0.60068 0.03235 0.0
C23 C 0.61342 0.59808 0.0717 0.0
O24 O 0.62624 0.64064 0.05644 0.0
O25 O 0.64125 0.637 0.07102 0.0
In26 In 0.38292 0.99716 0.01312 0.0
O27 O 0.38592 0.02178 0.01232 0.0
O28 O 0.36816 0.00309 0.99803 0.0
C29 C 0.40416 0.00174 0.03501 0.0
C30 C 0.39523 0.99195 0.98898 0.0
C31 C 0.35724 0.97842 0.02714 0.0
O32 O 0.40162 0.01257 0.0314 0.0
O33 O 0.39619 0.98876 0.02739 0.0
O34 O 0.36107 0.97321 0.01601 0.0
O35 O 0.36628 0.99284 0.03096 0.0
C36 C 0.37493 0.0175 0.00251 0.0
O37 O 0.38242 0.98144 0.99332 0.0
O38 O 0.40169 0.00484 0.99687 0.0
In39 In 0.99564 0.63708 0.03717 0.0
O40 O 0.01206 0.63381 0.02245 0.0
O41 O 0.98774 0.6185 0.01792 0.0
C42 C 0.01613 0.66404 0.05307 0.0
C43 C 0.97714 0.64574 0.02297 0.0
C44 C 0.98915 0.61582 0.05769 0.0
O45 O 0.01898 0.66005 0.04062 0.0
O46 O 0.00306 0.6544 0.05748 0.0
O47 O 0.98053 0.62154 0.05505 0.0
O48 O 0.00077 0.6208 0.05001 0.0
C49 C 0.00125 0.62232 0.01451 0.0
O50 O 0.97174 0.63396 0.03083 0.0
O51 O 0.99168 0.65304 0.02251 0.0
In52 In 0.37162 0.37967 0.00096 0.0
O53 O 0.37449 0.39899 0.98585 0.0
O54 O 0.39035 0.39057 0.98468 0.0
C55 C 0.34497 0.37226 0.01364 0.0
C56 C 0.36193 0.35239 0.98463 0.0
C57 C 0.39285 0.39199 0.02443 0.0
O58 O 0.35168 0.38411 0.006 0.0
O59 O 0.35176 0.36448 0.01489 0.0
O60 O 0.38828 0.37847 0.01824 0.0
O61 O 0.38686 0.39934 0.0187 0.0
C62 C 0.38605 0.39975 0.97986 0.0
O63 O 0.37083 0.3563 0.99629 0.0
O64 O 0.35809 0.36233 0.98112 0.0
In65 In 0.61893 0.00456 0.0376 0.0
O66 O 0.61721 0.02039 0.05595 0.0
O67 O 0.60157 0.99556 0.05524 0.0
C68 C 0.64449 0.02389 0.02378 0.0
C69 C 0.62856 0.98546 0.04808 0.0
C70 C 0.59708 0.99933 0.01615 0.0
O71 O 0.64183 0.028 0.03629 0.0
O72 O 0.63437 0.01027 0.0185 0.0
O73 O 0.59914 0.98838 0.02044 0.0
O74 O 0.6057 0.01266 0.02301 0.0
C75 C 0.60622 0.00894 0.0618 0.0
O76 O 0.61844 0.98095 0.03732 0.0
O77 O 0.63371 0.99944 0.05334 0.0
In78 In 0.66977 0.6986 0.34712 0.0
O79 O 0.65207 0.69847 0.36256 0.0
O80 O 0.67481 0.71849 0.36434 0.0
C81 C 0.6494 0.67186 0.33093 0.0
C82 C 0.6881 0.69072 0.36298 0.0
C83 C 0.67832 0.71895 0.3254 0.0
O84 O 0.64549 0.67765 0.34153 0.0
O85 O 0.66358 0.67966 0.32842 0.0
O86 O 0.68653 0.71331 0.32989 0.0
O87 O 0.66594 0.71431 0.33185 0.0
C88 C 0.66136 0.7119 0.36891 0.0
O89 O 0.69326 0.70418 0.35805 0.0
O90 O 0.67387 0.68132 0.35982 0.0
In91 In 0.29297 0.95169 0.38573 0.0
O92 O 0.29032 0.93239 0.40091 0.0
O93 O 0.27609 0.94248 0.40392 0.0
C94 C 0.31813 0.95333 0.37366 0.0
C95 C 0.30198 0.97998 0.39975 0.0
C96 C 0.27237 0.94336 0.36193 0.0
O97 O 0.30516 0.94075 0.373 0.0
O98 O 0.31846 0.96486 0.38064 0.0
O99 O 0.28327 0.95735 0.36498 0.0
O100 O 0.27171 0.93365 0.371 0.0
C101 C 0.27992 0.93276 0.4081 0.0
O102 O 0.292 0.97429 0.38881 0.0
O103 O 0.30734 0.97134 0.40362 0.0
In104 In 0.05327 0.32693 0.34697 0.0
O105 O 0.06027 0.35215 0.34167 0.0
O106 O 0.03794 0.33344 0.33353 0.0
C107 C 0.07334 0.3347 0.371 0.0
C108 C 0.06374 0.31858 0.32306 0.0
C109 C 0.0269 0.30756 0.35975 0.0
O110 O 0.06876 0.34378 0.36658 0.0
O111 O 0.06792 0.32182 0.36323 0.0
O112 O 0.03474 0.30244 0.35345 0.0
O113 O 0.0324 0.32225 0.35959 0.0
C114 C 0.04755 0.34808 0.33453 0.0
O115 O 0.05007 0.31017 0.32686 0.0
O116 O 0.07203 0.33093 0.3314 0.0
In117 In 0.66412 0.96656 0.37073 0.0
O118 O 0.6826 0.96416 0.3585 0.0
O119 O 0.65894 0.9472 0.35289 0.0
C120 C 0.6818 0.99533 0.38501 0.0
C121 C 0.64419 0.97195 0.35456 0.0
C122 C 0.6577 0.9476 0.39338 0.0
O123 O 0.68582 0.99104 0.37343 0.0
O124 O 0.6689 0.98512 0.38935 0.0
O125 O 0.64727 0.94859 0.386 0.0
O126 O 0.67122 0.95608 0.38928 0.0
C127 C 0.6729 0.95193 0.35061 0.0
O128 O 0.63967 0.96138 0.36374 0.0
O129 O 0.65867 0.97978 0.35366 0.0
In130 In 0.03815 0.71694 0.33408 0.0
O131 O 0.03648 0.73219 0.31629 0.0
O132 O 0.05881 0.73669 0.32365 0.0
C133 C 0.01084 0.7064 0.34653 0.0
C134 C 0.03381 0.69183 0.31668 0.0
C135 C 0.05699 0.72776 0.3592 0.0
O136 O 0.01772 0.71959 0.34088 0.0
O137 O 0.01771 0.69862 0.34583 0.0
O138 O 0.0562 0.71699 0.3504 0.0
O139 O 0.04835 0.73309 0.35528 0.0
C140 C 0.05092 0.74025 0.31517 0.0
O141 O 0.04414 0.69809 0.32727 0.0
O142 O 0.0258 0.69833 0.3148 0.0
In143 In 0.28084 0.33695 0.37023 0.0
O144 O 0.28083 0.31372 0.3711 0.0
O145 O 0.29347 0.33172 0.38846 0.0
C146 C 0.25962 0.32967 0.34732 0.0
C147 C 0.26854 0.3437 0.39354 0.0
C148 C 0.3079 0.35537 0.35808 0.0
O149 O 0.26059 0.31922 0.35417 0.0
O150 O 0.26914 0.34367 0.35219 0.0
O151 O 0.30199 0.36113 0.36662 0.0
O152 O 0.30009 0.34057 0.35565 0.0
C153 C 0.28944 0.31804 0.38301 0.0
O154 O 0.28035 0.35424 0.38779 0.0
O155 O 0.26281 0.33001 0.38727 0.0
In156 In 0.33567 0.0319 0.67904 0.0
O157 O 0.35978 0.03574 0.68515 0.0
O158 O 0.34081 0.01881 0.69649 0.0
C159 C 0.34178 0.05104 0.65652 0.0
C160 C 0.32941 0.0476 0.70031 0.0
C161 C 0.31614 0.00318 0.66535 0.0
O162 O 0.3516 0.04776 0.66185 0.0
O163 O 0.32906 0.04471 0.66256 0.0
O164 O 0.31234 0.00895 0.67604 0.0
O165 O 0.32975 0.01192 0.66157 0.0
C166 C 0.35518 0.02573 0.69489 0.0
O167 O 0.31885 0.03561 0.69273 0.0
O168 O 0.34302 0.05163 0.69711 0.0
In169 In 0.95985 0.28197 0.71528 0.0
O170 O 0.95585 0.30243 0.72053 0.0
O171 O 0.97504 0.30276 0.73198 0.0
C172 C 0.93741 0.2673 0.69302 0.0
C173 C 0.94854 0.26214 0.73729 0.0
C174 C 0.98608 0.29098 0.70117 0.0
O175 O 0.94156 0.28095 0.6986 0.0
O176 O 0.94438 0.26093 0.69885 0.0
O177 O 0.98286 0.2826 0.71221 0.0
O178 O 0.97609 0.2946 0.69735 0.0
C179 C 0.96731 0.30955 0.72996 0.0
O180 O 0.95762 0.26143 0.72836 0.0
O181 O 0.94516 0.27266 0.735 0.0
In182 In 0.7194 0.66215 0.67997 0.0
O183 O 0.72325 0.68638 0.67464 0.0
O184 O 0.70152 0.66613 0.66766 0.0
C185 C 0.74149 0.67062 0.70224 0.0
C186 C 0.73002 0.65467 0.65566 0.0
C187 C 0.69464 0.64364 0.69516 0.0
O188 O 0.73742 0.67998 0.69745 0.0
O189 O 0.73462 0.65702 0.69557 0.0
O190 O 0.69858 0.63806 0.68438 0.0
O191 O 0.70328 0.65829 0.69823 0.0
C192 C 0.70992 0.68096 0.66828 0.0
O193 O 0.71777 0.64465 0.66122 0.0
O194 O 0.73688 0.66813 0.66253 0.0
In195 In 0.33035 0.30069 0.70314 0.0
O196 O 0.34777 0.30013 0.68779 0.0
O197 O 0.32483 0.28039 0.68621 0.0
C198 C 0.35044 0.3275 0.71956 0.0
C199 C 0.31156 0.30824 0.68758 0.0
C200 C 0.32231 0.27994 0.72437 0.0
O201 O 0.35394 0.32313 0.7077 0.0
O202 O 0.33687 0.31831 0.72319 0.0
O203 O 0.31397 0.2856 0.72035 0.0
O204 O 0.33465 0.28484 0.71776 0.0
C205 C 0.33826 0.28668 0.6816 0.0
O206 O 0.30632 0.29593 0.69462 0.0
O207 O 0.32611 0.31668 0.68853 0.0
In208 In 0.70654 0.04865 0.66577 0.0
O209 O 0.70482 0.06369 0.6478 0.0
O210 O 0.72669 0.06571 0.65298 0.0
C211 C 0.68166 0.0483 0.67706 0.0
C212 C 0.69933 0.02035 0.65243 0.0
C213 C 0.72776 0.0564 0.68884 0.0
O214 O 0.69522 0.0565 0.68299 0.0
O215 O 0.68064 0.04065 0.66509 0.0
O216 O 0.71829 0.04223 0.68435 0.0
O217 O 0.72661 0.06652 0.6816 0.0
C218 C 0.71899 0.07013 0.64524 0.0
O219 O 0.69564 0.0218 0.66536 0.0
O220 O 0.7069 0.03317 0.64636 0.0
In221 In 0.94619 0.67191 0.70304 0.0
O222 O 0.94482 0.64793 0.70319 0.0
O223 O 0.96007 0.66615 0.7194 0.0
C224 C 0.92395 0.66533 0.6815 0.0
C225 C 0.93474 0.67904 0.72681 0.0
C226 C 0.97217 0.69016 0.68923 0.0
O227 O 0.92558 0.65467 0.68719 0.0
O228 O 0.9332 0.67918 0.68702 0.0
O229 O 0.96979 0.69453 0.70173 0.0
O230 O 0.96152 0.67683 0.68386 0.0
C231 C 0.95461 0.65211 0.71418 0.0
O232 O 0.94531 0.68963 0.7198 0.0
O233 O 0.9298 0.66509 0.72157 0.0
H234 H 0.16348 0.33802 0.05077 0.0
H235 H 0.24765 0.29582 0.16675 0.0
H236 H 0.1573 0.33841 0.13382 0.0
H237 H 0.1383 0.34349 0.12134 0.0
H238 H 0.10538 0.29331 0.11674 0.0
H239 H 0.12452 0.28837 0.12954 0.0
H240 H 0.18104 0.33894 0.1136 0.0
H241 H 0.17709 0.34321 0.08764 0.0
H242 H 0.14118 0.2941 0.08024 0.0
H243 H 0.14538 0.28998 0.10621 0.0
H244 H 0.20664 0.33841 0.1328 0.0
H245 H 0.2266 0.34586 0.11496 0.0
H246 H 0.19921 0.30007 0.09115 0.0
H247 H 0.17929 0.29266 0.10919 0.0
H248 H 0.20562 0.33129 0.16575 0.0
H249 H 0.22897 0.33106 0.17447 0.0
H250 H 0.21226 0.28629 0.14941 0.0
H251 H 0.18889 0.2866 0.14091 0.0
H252 H 0.17595 0.32946 0.17989 0.0
H253 H 0.18256 0.3295 0.20616 0.0
H254 H 0.17971 0.28437 0.19784 0.0
H255 H 0.17197 0.28396 0.17166 0.0
H256 H 0.15155 0.33083 0.16341 0.0
H257 H 0.13575 0.32954 0.18393 0.0
H258 H 0.12146 0.28035 0.18729 0.0
H259 H 0.13712 0.28168 0.16656 0.0
O260 O 0.16492 0.33605 0.06097 0.0
O261 O 0.14651 0.31073 0.05777 0.0
O262 O 0.24659 0.31922 0.17619 0.0
O263 O 0.23853 0.29621 0.16348 0.0
C264 C 0.15482 0.3102 0.13766 0.0
C265 C 0.16579 0.31161 0.12753 0.0
C266 C 0.17912 0.31122 0.13253 0.0
C267 C 0.1813 0.30898 0.14759 0.0
C268 C 0.17019 0.30731 0.15772 0.0
C269 C 0.15684 0.30778 0.1527 0.0
C270 C 0.14223 0.31304 0.13259 0.0
C271 C 0.14585 0.32855 0.13042 0.0
C272 C 0.13505 0.33141 0.12316 0.0
C273 C 0.12043 0.31878 0.11786 0.0
C274 C 0.11653 0.30327 0.12076 0.0
C275 C 0.1274 0.30042 0.12807 0.0
C276 C 0.16356 0.31414 0.11172 0.0
C277 C 0.17241 0.32911 0.10631 0.0
C278 C 0.17009 0.33152 0.0915 0.0
C279 C 0.15883 0.31899 0.08186 0.0
C280 C 0.14996 0.304 0.08736 0.0
C281 C 0.15233 0.3016 0.10217 0.0
C282 C 0.1916 0.31499 0.1223 0.0
C283 C 0.20505 0.32993 0.12383 0.0
C284 C 0.21634 0.33421 0.11357 0.0
C285 C 0.21439 0.32358 0.10161 0.0
C286 C 0.20104 0.30845 0.1003 0.0
C287 C 0.18968 0.30421 0.11055 0.0
C288 C 0.19553 0.30891 0.1528 0.0
C289 C 0.207 0.32141 0.16223 0.0
C290 C 0.22033 0.32126 0.16716 0.0
C291 C 0.22247 0.30863 0.16266 0.0
C292 C 0.21098 0.29618 0.15311 0.0
C293 C 0.19763 0.29633 0.14822 0.0
C294 C 0.17335 0.30666 0.17386 0.0
C295 C 0.17638 0.3194 0.1838 0.0
C296 C 0.18041 0.3195 0.1988 0.0
C297 C 0.18187 0.30702 0.20415 0.0
C298 C 0.17853 0.2941 0.19418 0.0
C299 C 0.17423 0.29389 0.17918 0.0
C300 C 0.1454 0.30632 0.16344 0.0
C301 C 0.14466 0.31966 0.16828 0.0
C302 C 0.13578 0.31895 0.18012 0.0
C303 C 0.12748 0.30488 0.18729 0.0
C304 C 0.12763 0.29132 0.18191 0.0
C305 C 0.13657 0.29206 0.1701 0.0
C306 C 0.15634 0.32161 0.06614 0.0
C307 C 0.2366 0.3084 0.16788 0.0
H308 H 0.65822 0.82322 0.06966 0.0
H309 H 0.71336 0.95491 0.18936 0.0
H310 H 0.66381 0.81807 0.15012 0.0
H311 H 0.65725 0.79184 0.14003 0.0
H312 H 0.70556 0.80522 0.1454 0.0
H313 H 0.71199 0.83154 0.15574 0.0
H314 H 0.66304 0.84295 0.13269 0.0
H315 H 0.65664 0.834 0.1063 0.0
H316 H 0.70257 0.84082 0.10266 0.0
H317 H 0.70887 0.84991 0.12904 0.0
H318 H 0.66726 0.87144 0.15502 0.0
H319 H 0.66066 0.88698 0.139 0.0
H320 H 0.70004 0.89769 0.11353 0.0
H321 H 0.70702 0.88255 0.13006 0.0
H322 H 0.67595 0.87612 0.1868 0.0
H323 H 0.67807 0.90105 0.19567 0.0
H324 H 0.71984 0.92667 0.17244 0.0
H325 H 0.71769 0.90165 0.16381 0.0
H326 H 0.67702 0.8465 0.20003 0.0
H327 H 0.67773 0.85517 0.22585 0.0
H328 H 0.72165 0.8975 0.22079 0.0
H329 H 0.7214 0.88801 0.19523 0.0
H330 H 0.67317 0.81906 0.18202 0.0
H331 H 0.67531 0.80273 0.20062 0.0
H332 H 0.72398 0.83722 0.20932 0.0
H333 H 0.72174 0.85349 0.19058 0.0
O334 O 0.66102 0.82686 0.08007 0.0
O335 O 0.68474 0.8305 0.07881 0.0
O336 O 0.69084 0.93115 0.19792 0.0
O337 O 0.71229 0.94488 0.18608 0.0
C338 C 0.69209 0.84279 0.15887 0.0
C339 C 0.69032 0.8525 0.14879 0.0
C340 C 0.69175 0.86695 0.15405 0.0
C341 C 0.69544 0.87192 0.16934 0.0
C342 C 0.69737 0.86228 0.17944 0.0
C343 C 0.69578 0.84772 0.17417 0.0
C344 C 0.68837 0.8267 0.15352 0.0
C345 C 0.67296 0.81531 0.14914 0.0
C346 C 0.66926 0.80038 0.14332 0.0
C347 C 0.68092 0.79653 0.14175 0.0
C348 C 0.69633 0.80783 0.14654 0.0
C349 C 0.70003 0.82285 0.15239 0.0
C350 C 0.68646 0.8472 0.13273 0.0
C351 C 0.67174 0.84262 0.12614 0.0
C352 C 0.6681 0.83746 0.11108 0.0
C353 C 0.6791 0.83672 0.10236 0.0
C354 C 0.69383 0.84127 0.10905 0.0
C355 C 0.69746 0.84646 0.1241 0.0
C356 C 0.68776 0.87608 0.14386 0.0
C357 C 0.67458 0.87728 0.1461 0.0
C358 C 0.6708 0.88608 0.13694 0.0
C359 C 0.67992 0.89356 0.12514 0.0
C360 C 0.69286 0.89199 0.12257 0.0
C361 C 0.69684 0.88341 0.13198 0.0
C362 C 0.69675 0.88709 0.17479 0.0
C363 C 0.68562 0.88713 0.18374 0.0
C364 C 0.68682 0.90139 0.18874 0.0
C365 C 0.69915 0.91587 0.18478 0.0
C366 C 0.71022 0.91575 0.17572 0.0
C367 C 0.70903 0.90148 0.17077 0.0
C368 C 0.69915 0.8666 0.1957 0.0
C369 C 0.68706 0.85737 0.20464 0.0
C370 C 0.68737 0.86251 0.21935 0.0
C371 C 0.69958 0.87723 0.22537 0.0
C372 C 0.7121 0.88608 0.21661 0.0
C373 C 0.71194 0.88073 0.20195 0.0
C374 C 0.69734 0.83738 0.18483 0.0
C375 C 0.68437 0.82294 0.18772 0.0
C376 C 0.68561 0.81363 0.19836 0.0
C377 C 0.69983 0.81867 0.20641 0.0
C378 C 0.71285 0.83309 0.20338 0.0
C379 C 0.71162 0.84235 0.19265 0.0
C380 C 0.67519 0.83119 0.08637 0.0
C381 C 0.70045 0.93105 0.19002 0.0
H382 H 0.15556 0.84116 0.05841 0.0
H383 H 0.27696 0.94181 0.18177 0.0
H384 H 0.14111 0.85122 0.1331 0.0
H385 H 0.1184 0.82695 0.122 0.0
H386 H 0.13151 0.79919 0.14823 0.0
H387 H 0.15444 0.82341 0.15889 0.0
H388 H 0.1711 0.87497 0.11717 0.0
H389 H 0.16461 0.8647 0.0911 0.0
H390 H 0.16501 0.82267 0.10295 0.0
H391 H 0.1717 0.83318 0.12894 0.0
H392 H 0.20167 0.90331 0.13442 0.0
H393 H 0.22205 0.91562 0.117 0.0
H394 H 0.2258 0.87363 0.11418 0.0
H395 H 0.20537 0.86142 0.13148 0.0
H396 H 0.20038 0.90963 0.16959 0.0
H397 H 0.22574 0.93256 0.17752 0.0
H398 H 0.24722 0.90445 0.16937 0.0
H399 H 0.22177 0.88158 0.16163 0.0
H400 H 0.17315 0.88906 0.18786 0.0
H401 H 0.18065 0.89855 0.2142 0.0
H402 H 0.20971 0.87769 0.21588 0.0
H403 H 0.20224 0.86835 0.18962 0.0
H404 H 0.14116 0.85836 0.17135 0.0
H405 H 0.12356 0.84535 0.19097 0.0
H406 H 0.1532 0.82796 0.20668 0.0
H407 H 0.17073 0.84116 0.18725 0.0
O408 O 0.15824 0.84504 0.06876 0.0
O409 O 0.15849 0.82362 0.07545 0.0
O410 O 0.25516 0.94684 0.18281 0.0
O411 O 0.26678 0.93293 0.17872 0.0
C412 C 0.16453 0.85347 0.15146 0.0
C413 C 0.17552 0.86099 0.14078 0.0
C414 C 0.1902 0.87424 0.14521 0.0
C415 C 0.19384 0.8801 0.16028 0.0
C416 C 0.18293 0.87251 0.17095 0.0
C417 C 0.1683 0.85916 0.16657 0.0
C418 C 0.14943 0.83908 0.14679 0.0
C419 C 0.13893 0.8399 0.13661 0.0
C420 C 0.12603 0.82608 0.13027 0.0
C421 C 0.12328 0.81125 0.13425 0.0
C422 C 0.1333 0.81049 0.14509 0.0
C423 C 0.14636 0.8243 0.15122 0.0
C424 C 0.17181 0.8548 0.12493 0.0
C425 C 0.16985 0.86358 0.11409 0.0
C426 C 0.1661 0.85767 0.09922 0.0
C427 C 0.16425 0.84284 0.09494 0.0
C428 C 0.16632 0.83411 0.10586 0.0
C429 C 0.17012 0.84007 0.12071 0.0
C430 C 0.20207 0.88149 0.13419 0.0
C431 C 0.20687 0.89678 0.12997 0.0
C432 C 0.21853 0.90379 0.12008 0.0
C433 C 0.22555 0.8956 0.11422 0.0
C434 C 0.22049 0.88016 0.11832 0.0
C435 C 0.20887 0.87319 0.12823 0.0
C436 C 0.20927 0.89398 0.165 0.0
C437 C 0.21058 0.90845 0.16956 0.0
C438 C 0.22508 0.92153 0.17406 0.0
C439 C 0.23852 0.92034 0.17406 0.0
C440 C 0.23712 0.90578 0.16949 0.0
C441 C 0.22261 0.89271 0.16503 0.0
C442 C 0.1872 0.87807 0.18689 0.0
C443 C 0.18111 0.88655 0.19396 0.0
C444 C 0.18543 0.89198 0.20894 0.0
C445 C 0.19572 0.8888 0.21706 0.0
C446 C 0.20163 0.88015 0.20993 0.0
C447 C 0.19746 0.8749 0.19495 0.0
C448 C 0.15726 0.85079 0.17799 0.0
C449 C 0.14377 0.85169 0.17903 0.0
C450 C 0.13373 0.84421 0.1902 0.0
C451 C 0.13705 0.83573 0.20048 0.0
C452 C 0.15046 0.83466 0.19916 0.0
C453 C 0.16046 0.84212 0.18803 0.0
C454 C 0.16016 0.83654 0.07916 0.0
C455 C 0.25395 0.9342 0.1788 0.0
H456 H 0.30783 0.17046 0.9852 0.0
H457 H 0.33263 0.07051 0.86895 0.0
H458 H 0.28686 0.16235 0.90731 0.0
H459 H 0.28874 0.18707 0.91694 0.0
H460 H 0.33174 0.21374 0.89599 0.0
H461 H 0.33025 0.18913 0.88708 0.0
H462 H 0.29124 0.13743 0.926 0.0
H463 H 0.29416 0.14746 0.95194 0.0
H464 H 0.33786 0.18853 0.94352 0.0
H465 H 0.33488 0.17825 0.91768 0.0
H466 H 0.29374 0.10891 0.91197 0.0
H467 H 0.30206 0.09566 0.9294 0.0
H468 H 0.34823 0.1366 0.93328 0.0
H469 H 0.33989 0.14957 0.91564 0.0
H470 H 0.28729 0.1014 0.87926 0.0
H471 H 0.29 0.0784 0.87319 0.0
H472 H 0.33991 0.10832 0.87814 0.0
H473 H 0.337 0.13121 0.8841 0.0
H474 H 0.28383 0.11712 0.85645 0.0
H475 H 0.2847 0.10659 0.83165 0.0
H476 H 0.33361 0.14132 0.83215 0.0
H477 H 0.33273 0.15085 0.85728 0.0
H478 H 0.28125 0.1524 0.86581 0.0
H479 H 0.27912 0.16662 0.8449 0.0
H480 H 0.32871 0.18949 0.84158 0.0
H481 H 0.33061 0.17507 0.86218 0.0
O482 O 0.30695 0.16666 0.97493 0.0
O483 O 0.32928 0.1876 0.96999 0.0
O484 O 0.3055 0.06455 0.8688 0.0
O485 O 0.33122 0.0794 0.87128 0.0
C486 C 0.30856 0.15919 0.89261 0.0
C487 C 0.31085 0.15109 0.90418 0.0
C488 C 0.31184 0.13749 0.90072 0.0
C489 C 0.31026 0.1318 0.88576 0.0
C490 C 0.30817 0.13995 0.87422 0.0
C491 C 0.30741 0.1537 0.87762 0.0
C492 C 0.30832 0.17393 0.89632 0.0
C493 C 0.29654 0.17353 0.90459 0.0
C494 C 0.29763 0.18759 0.91009 0.0
C495 C 0.31034 0.20222 0.9071 0.0
C496 C 0.32172 0.20259 0.89823 0.0
C497 C 0.32081 0.18855 0.89304 0.0
C498 C 0.31279 0.15716 0.91996 0.0
C499 C 0.30145 0.14856 0.92981 0.0
C500 C 0.30314 0.15434 0.9446 0.0
C501 C 0.31623 0.16882 0.9498 0.0
C502 C 0.32762 0.17735 0.93988 0.0
C503 C 0.32594 0.17153 0.92511 0.0
C504 C 0.31623 0.13016 0.91256 0.0
C505 C 0.30559 0.11505 0.91675 0.0
C506 C 0.31034 0.10756 0.92674 0.0
C507 C 0.32583 0.11507 0.93264 0.0
C508 C 0.33629 0.13045 0.92878 0.0
C509 C 0.33152 0.13792 0.91882 0.0
C510 C 0.31195 0.1179 0.88208 0.0
C511 C 0.29878 0.10293 0.87898 0.0
C512 C 0.30037 0.08983 0.87555 0.0
C513 C 0.31519 0.09152 0.87518 0.0
C514 C 0.32835 0.1066 0.87832 0.0
C515 C 0.32673 0.11968 0.88173 0.0
C516 C 0.3082 0.13478 0.85857 0.0
C517 C 0.29467 0.12247 0.85109 0.0
C518 C 0.2952 0.11656 0.83688 0.0
C519 C 0.30926 0.12302 0.82986 0.0
C520 C 0.32265 0.13578 0.83728 0.0
C521 C 0.32215 0.14144 0.85157 0.0
C522 C 0.30606 0.16265 0.86539 0.0
C523 C 0.29161 0.16051 0.86053 0.0
C524 C 0.29044 0.16868 0.84865 0.0
C525 C 0.30373 0.17909 0.84149 0.0
C526 C 0.3182 0.18133 0.84662 0.0
C527 C 0.31934 0.17316 0.85843 0.0
C528 C 0.31794 0.17498 0.96549 0.0
C529 C 0.31694 0.07765 0.87156 0.0
H530 H 0.82317 0.16619 0.98546 0.0
H531 H 0.74365 0.02927 0.86889 0.0
H532 H 0.83328 0.16806 0.90505 0.0
H533 H 0.85379 0.19362 0.91621 0.0
H534 H 0.88583 0.17624 0.91658 0.0
H535 H 0.86517 0.15069 0.90512 0.0
H536 H 0.80699 0.1441 0.92256 0.0
H537 H 0.81021 0.15426 0.94849 0.0
H538 H 0.84779 0.14511 0.95648 0.0
H539 H 0.84431 0.13481 0.93057 0.0
H540 H 0.78158 0.1145 0.90099 0.0
H541 H 0.76091 0.10256 0.91801 0.0
H542 H 0.78976 0.09177 0.94623 0.0
H543 H 0.81039 0.10353 0.92889 0.0
H544 H 0.78446 0.10797 0.86964 0.0
H545 H 0.76164 0.08284 0.8606 0.0
H546 H 0.77845 0.05794 0.8868 0.0
H547 H 0.80132 0.08316 0.89561 0.0
H548 H 0.81281 0.13568 0.85694 0.0
H549 H 0.80612 0.12695 0.83064 0.0
H550 H 0.81325 0.08777 0.83795 0.0
H551 H 0.81998 0.09669 0.86445 0.0
H552 H 0.83685 0.16311 0.87276 0.0
H553 H 0.85501 0.17889 0.85471 0.0
H554 H 0.87345 0.14738 0.85401 0.0
H555 H 0.85472 0.13133 0.87169 0.0
O556 O 0.82204 0.16205 0.97526 0.0
O557 O 0.84133 0.15719 0.97877 0.0
O558 O 0.7445 0.05274 0.85892 0.0
O559 O 0.75259 0.03938 0.87225 0.0
C560 C 0.83478 0.14169 0.89908 0.0
C561 C 0.82349 0.13261 0.90896 0.0
C562 C 0.81024 0.11815 0.90371 0.0
C563 C 0.8085 0.11261 0.88863 0.0
C564 C 0.81981 0.12175 0.87873 0.0
C565 C 0.83298 0.13627 0.884 0.0
C566 C 0.84776 0.15756 0.90439 0.0
C567 C 0.84478 0.16985 0.9074 0.0
C568 C 0.85647 0.18438 0.91386 0.0
C569 C 0.87138 0.18688 0.91746 0.0
C570 C 0.87449 0.1747 0.91387 0.0
C571 C 0.86274 0.16012 0.90737 0.0
C572 C 0.82534 0.13863 0.92474 0.0
C573 C 0.81583 0.1442 0.92997 0.0
C574 C 0.81774 0.15005 0.94476 0.0
C575 C 0.82925 0.15049 0.95457 0.0
C576 C 0.8388 0.14493 0.94924 0.0
C577 C 0.83685 0.13905 0.93445 0.0
C578 C 0.79743 0.10975 0.91362 0.0
C579 C 0.78333 0.10927 0.91068 0.0
C580 C 0.77156 0.10249 0.92043 0.0
C581 C 0.77373 0.09623 0.93343 0.0
C582 C 0.78783 0.09661 0.93634 0.0
C583 C 0.79957 0.10323 0.92644 0.0
C584 C 0.79461 0.09736 0.88317 0.0
C585 C 0.78325 0.09707 0.87332 0.0
C586 C 0.7702 0.0827 0.86822 0.0
C587 C 0.76823 0.06836 0.87296 0.0
C588 C 0.77961 0.06874 0.88291 0.0
C589 C 0.79268 0.08312 0.88797 0.0
C590 C 0.81702 0.11692 0.86257 0.0
C591 C 0.81325 0.12541 0.85282 0.0
C592 C 0.80944 0.12039 0.83778 0.0
C593 C 0.80923 0.1067 0.83218 0.0
C594 C 0.81322 0.09831 0.84195 0.0
C595 C 0.81713 0.10341 0.85704 0.0
C596 C 0.84454 0.14615 0.87354 0.0
C597 C 0.84489 0.1597 0.86875 0.0
C598 C 0.85535 0.16874 0.85849 0.0
C599 C 0.8658 0.16448 0.85292 0.0
C600 C 0.86546 0.15091 0.85789 0.0
C601 C 0.85487 0.14178 0.86807 0.0
C602 C 0.83129 0.15676 0.97026 0.0
C603 C 0.75438 0.05306 0.86759 0.0
H604 H 0.86 0.69873 0.00469 0.0
H605 H 0.73493 0.66849 0.88538 0.0
H606 H 0.87113 0.71285 0.9282 0.0
H607 H 0.89194 0.71018 0.94032 0.0
H608 H 0.87257 0.66356 0.91823 0.0
H609 H 0.85196 0.66643 0.90611 0.0
H610 H 0.84188 0.70968 0.94591 0.0
H611 H 0.84972 0.70925 0.97186 0.0
H612 H 0.84586 0.66393 0.96163 0.0
H613 H 0.83779 0.6644 0.93579 0.0
H614 H 0.80808 0.70344 0.93009 0.0
H615 H 0.78748 0.69517 0.94733 0.0
H616 H 0.78704 0.65118 0.95117 0.0
H617 H 0.80678 0.65911 0.93323 0.0
H618 H 0.81218 0.71069 0.89473 0.0
H619 H 0.78755 0.70907 0.88757 0.0
H620 H 0.76299 0.65981 0.89708 0.0
H621 H 0.78771 0.66155 0.90404 0.0
H622 H 0.84053 0.7134 0.87472 0.0
H623 H 0.83251 0.71344 0.84864 0.0
H624 H 0.7953 0.66517 0.85002 0.0
H625 H 0.80353 0.66511 0.87589 0.0
H626 H 0.87 0.71474 0.8919 0.0
H627 H 0.88618 0.71621 0.87157 0.0
H628 H 0.85135 0.6688 0.85515 0.0
H629 H 0.83564 0.66728 0.87573 0.0
O630 O 0.85672 0.69858 0.99441 0.0
O631 O 0.85472 0.67537 0.98852 0.0
O632 O 0.75802 0.69479 0.88334 0.0
O633 O 0.74484 0.66946 0.88813 0.0
C634 C 0.84552 0.68972 0.91207 0.0
C635 C 0.83513 0.68776 0.92312 0.0
C636 C 0.82061 0.68619 0.91913 0.0
C637 C 0.81675 0.68733 0.90417 0.0
C638 C 0.8271 0.68926 0.8931 0.0
C639 C 0.8414 0.69022 0.89703 0.0
C640 C 0.86003 0.68981 0.91633 0.0
C641 C 0.87169 0.70228 0.92565 0.0
C642 C 0.88345 0.70065 0.93267 0.0
C643 C 0.88376 0.68655 0.93041 0.0
C644 C 0.87273 0.6746 0.92014 0.0
C645 C 0.86096 0.67623 0.91316 0.0
C646 C 0.83939 0.68714 0.93896 0.0
C647 C 0.84266 0.69964 0.94933 0.0
C648 C 0.84718 0.69938 0.96412 0.0
C649 C 0.84849 0.68659 0.9688 0.0
C650 C 0.84502 0.67399 0.95839 0.0
C651 C 0.84045 0.67424 0.94362 0.0
C652 C 0.80892 0.68188 0.9304 0.0
C653 C 0.80348 0.69202 0.93467 0.0
C654 C 0.7918 0.68731 0.94462 0.0
C655 C 0.78551 0.67245 0.95063 0.0
C656 C 0.79134 0.66255 0.94657 0.0
C657 C 0.8028 0.66715 0.93646 0.0
C658 C 0.80172 0.68627 0.89998 0.0
C659 C 0.80147 0.69956 0.89525 0.0
C660 C 0.78739 0.69861 0.89118 0.0
C661 C 0.77329 0.68431 0.89178 0.0
C662 C 0.77362 0.671 0.89651 0.0
C663 C 0.78771 0.67197 0.90054 0.0
C664 C 0.8225 0.68931 0.87724 0.0
C665 C 0.83071 0.70282 0.86934 0.0
C666 C 0.82615 0.70281 0.85447 0.0
C667 C 0.81322 0.68934 0.84737 0.0
C668 C 0.80517 0.67578 0.85528 0.0
C669 C 0.80984 0.67574 0.87004 0.0
C670 C 0.85164 0.69093 0.88524 0.0
C671 C 0.866 0.70464 0.88398 0.0
C672 C 0.87514 0.7055 0.8723 0.0
C673 C 0.87006 0.69263 0.86171 0.0
C674 C 0.85574 0.67884 0.86321 0.0
C675 C 0.84668 0.67798 0.87489 0.0
C676 C 0.85348 0.68645 0.98448 0.0
C677 C 0.7583 0.68324 0.88749 0.0
H678 H 0.82716 0.66286 0.38041 0.0
H679 H 0.91235 0.6285 0.50081 0.0
H680 H 0.82299 0.66929 0.46034 0.0
H681 H 0.80339 0.6742 0.44937 0.0
H682 H 0.76784 0.62657 0.45712 0.0
H683 H 0.7879 0.62152 0.4674 0.0
H684 H 0.84629 0.66837 0.44352 0.0
H685 H 0.8419 0.67059 0.41708 0.0
H686 H 0.80341 0.62248 0.41359 0.0
H687 H 0.80806 0.62036 0.44001 0.0
H688 H 0.87118 0.66955 0.46511 0.0
H689 H 0.8914 0.67645 0.4477 0.0
H690 H 0.86399 0.6304 0.42437 0.0
H691 H 0.84378 0.62349 0.44205 0.0
H692 H 0.87023 0.66383 0.49787 0.0
H693 H 0.89364 0.6639 0.50694 0.0
H694 H 0.87682 0.61836 0.48337 0.0
H695 H 0.85339 0.61837 0.47451 0.0
H696 H 0.84039 0.6626 0.5116 0.0
H697 H 0.84757 0.6639 0.53793 0.0
H698 H 0.84546 0.61894 0.53143 0.0
H699 H 0.83708 0.61722 0.50523 0.0
H700 H 0.81535 0.66329 0.49349 0.0
H701 H 0.79935 0.66309 0.51336 0.0
H702 H 0.78731 0.61524 0.5213 0.0
H703 H 0.80285 0.61534 0.50096 0.0
O704 O 0.82874 0.6617 0.39083 0.0
O705 O 0.80901 0.63694 0.38964 0.0
O706 O 0.91129 0.65216 0.50936 0.0
O707 O 0.90319 0.62877 0.4974 0.0
C708 C 0.81936 0.64201 0.46978 0.0
C709 C 0.83018 0.64278 0.45971 0.0
C710 C 0.84354 0.64256 0.46497 0.0
C711 C 0.84582 0.64094 0.48019 0.0
C712 C 0.8348 0.63973 0.49024 0.0
C713 C 0.82147 0.64013 0.485 0.0
C714 C 0.80689 0.64501 0.4645 0.0
C715 C 0.81096 0.65991 0.45968 0.0
C716 C 0.79968 0.66274 0.45356 0.0
C717 C 0.78396 0.6508 0.45235 0.0
C718 C 0.77984 0.63597 0.45767 0.0
C719 C 0.79124 0.63309 0.46367 0.0
C720 C 0.8276 0.64415 0.44363 0.0
C721 C 0.83702 0.65828 0.43699 0.0
C722 C 0.83443 0.65953 0.4219 0.0
C723 C 0.82232 0.6467 0.41321 0.0
C724 C 0.81285 0.63258 0.41995 0.0
C725 C 0.81548 0.63133 0.43503 0.0
C726 C 0.85607 0.64601 0.45486 0.0
C727 C 0.86962 0.66088 0.45634 0.0
C728 C 0.88107 0.66486 0.44631 0.0
C729 C 0.8792 0.65401 0.4346 0.0
C730 C 0.86575 0.63895 0.43333 0.0
C731 C 0.85422 0.63501 0.44336 0.0
C732 C 0.86008 0.64104 0.48564 0.0
C733 C 0.87159 0.65385 0.49475 0.0
C734 C 0.88497 0.65387 0.49988 0.0
C735 C 0.88709 0.64111 0.4959 0.0
C736 C 0.87555 0.62835 0.48666 0.0
C737 C 0.86217 0.62833 0.48157 0.0
C738 C 0.83813 0.63978 0.50648 0.0
C739 C 0.84109 0.65284 0.51593 0.0
C740 C 0.84544 0.65367 0.53097 0.0
C741 C 0.84733 0.64163 0.53683 0.0
C742 C 0.84398 0.62835 0.52738 0.0
C743 C 0.83932 0.6274 0.51236 0.0
C744 C 0.8102 0.6393 0.49571 0.0
C745 C 0.80891 0.65262 0.49924 0.0
C746 C 0.79993 0.65255 0.51074 0.0
C747 C 0.79218 0.6392 0.51904 0.0
C748 C 0.793 0.62565 0.51506 0.0
C749 C 0.80192 0.62571 0.50349 0.0
C750 C 0.81957 0.64809 0.39719 0.0
C751 C 0.90127 0.64107 0.50132 0.0
H752 H 0.32643 0.1612 0.40009 0.0
H753 H 0.38849 0.29255 0.52203 0.0
H754 H 0.33058 0.15368 0.47913 0.0
H755 H 0.32456 0.12786 0.46826 0.0
H756 H 0.37257 0.14096 0.47637 0.0
H757 H 0.37843 0.1668 0.48745 0.0
H758 H 0.3307 0.17989 0.46332 0.0
H759 H 0.32459 0.17154 0.4368 0.0
H760 H 0.37012 0.17719 0.43357 0.0
H761 H 0.37613 0.18568 0.46009 0.0
H762 H 0.3355 0.20795 0.48708 0.0
H763 H 0.32904 0.22408 0.47184 0.0
H764 H 0.36785 0.23475 0.4455 0.0
H765 H 0.37471 0.21895 0.46128 0.0
H766 H 0.34481 0.21389 0.51758 0.0
H767 H 0.34922 0.23968 0.52686 0.0
H768 H 0.3921 0.2625 0.50486 0.0
H769 H 0.38765 0.23659 0.49584 0.0
H770 H 0.34187 0.18462 0.52988 0.0
H771 H 0.34269 0.19434 0.55536 0.0
H772 H 0.39118 0.22929 0.5531 0.0
H773 H 0.39001 0.21972 0.52729 0.0
H774 H 0.3369 0.15467 0.51133 0.0
H775 H 0.33583 0.13664 0.5297 0.0
H776 H 0.3847 0.16767 0.54185 0.0
H777 H 0.38577 0.18531 0.5229 0.0
O778 O 0.32912 0.16463 0.41054 0.0
O779 O 0.35265 0.1677 0.40949 0.0
O780 O 0.36445 0.26987 0.52982 0.0
O781 O 0.3865 0.28219 0.51858 0.0
C782 C 0.35855 0.17808 0.48966 0.0
C783 C 0.35754 0.18836 0.47973 0.0
C784 C 0.35956 0.20299 0.48525 0.0
C785 C 0.36338 0.2077 0.50056 0.0
C786 C 0.36426 0.19738 0.51051 0.0
C787 C 0.36175 0.18251 0.50507 0.0
C788 C 0.35495 0.16213 0.48394 0.0
C789 C 0.33978 0.15094 0.47858 0.0
C790 C 0.33639 0.13625 0.47232 0.0
C791 C 0.34813 0.13243 0.4713 0.0
C792 C 0.36327 0.14352 0.47708 0.0
C793 C 0.36665 0.15827 0.48336 0.0
C794 C 0.3539 0.18351 0.46358 0.0
C795 C 0.33938 0.17943 0.45683 0.0
C796 C 0.3359 0.17461 0.4417 0.0
C797 C 0.34688 0.17371 0.43306 0.0
C798 C 0.36141 0.17778 0.4399 0.0
C799 C 0.36488 0.18263 0.45503 0.0
C800 C 0.35572 0.2125 0.47545 0.0
C801 C 0.34275 0.21391 0.47814 0.0
C802 C 0.33904 0.22306 0.46943 0.0
C803 C 0.34805 0.23071 0.45763 0.0
C804 C 0.36078 0.22895 0.45458 0.0
C805 C 0.36469 0.21998 0.46355 0.0
C806 C 0.36602 0.22337 0.50621 0.0
C807 C 0.35523 0.22446 0.51492 0.0
C808 C 0.35774 0.23921 0.52013 0.0
C809 C 0.37104 0.25316 0.51663 0.0
C810 C 0.38176 0.252 0.50779 0.0
C811 C 0.37925 0.23723 0.50262 0.0
C812 C 0.36587 0.20147 0.52676 0.0
C813 C 0.35277 0.19412 0.53502 0.0
C814 C 0.35329 0.1997 0.54963 0.0
C815 C 0.36699 0.2127 0.55632 0.0
C816 C 0.38037 0.21945 0.54823 0.0
C817 C 0.37979 0.21391 0.53355 0.0
C818 C 0.36144 0.17122 0.51569 0.0
C819 C 0.34743 0.15741 0.51777 0.0
C820 C 0.34681 0.14724 0.52841 0.0
C821 C 0.36016 0.15076 0.53734 0.0
C822 C 0.37425 0.16451 0.53506 0.0
C823 C 0.37488 0.17464 0.52431 0.0
C824 C 0.34312 0.16851 0.41699 0.0
C825 C 0.37374 0.26887 0.5221 0.0
H826 H 0.82269 0.17953 0.38709 0.0
H827 H 0.94449 0.26905 0.51266 0.0
H828 H 0.8078 0.18419 0.46245 0.0
H829 H 0.78427 0.16065 0.45134 0.0
H830 H 0.7961 0.13099 0.47599 0.0
H831 H 0.81987 0.1544 0.48652 0.0
H832 H 0.83915 0.20925 0.44768 0.0
H833 H 0.83256 0.20093 0.42117 0.0
H834 H 0.82939 0.15639 0.42959 0.0
H835 H 0.8362 0.16494 0.45602 0.0
H836 H 0.87215 0.23569 0.46641 0.0
H837 H 0.89347 0.24746 0.45 0.0
H838 H 0.88977 0.20192 0.44178 0.0
H839 H 0.8693 0.19063 0.45898 0.0
H840 H 0.86816 0.23939 0.50164 0.0
H841 H 0.89384 0.26138 0.51028 0.0
H842 H 0.91402 0.2328 0.49853 0.0
H843 H 0.88826 0.21085 0.49009 0.0
H844 H 0.83911 0.21632 0.51996 0.0
H845 H 0.8459 0.2224 0.54682 0.0
H846 H 0.87704 0.20409 0.54378 0.0
H847 H 0.86991 0.19773 0.51714 0.0
H848 H 0.80807 0.18941 0.50153 0.0
H849 H 0.79058 0.17587 0.52108 0.0
H850 H 0.81911 0.15628 0.53415 0.0
H851 H 0.83655 0.17003 0.51484 0.0
O852 O 0.82534 0.18261 0.39761 0.0
O853 O 0.82376 0.15986 0.40254 0.0
O854 O 0.92323 0.27469 0.51528 0.0
O855 O 0.9342 0.26052 0.50937 0.0
C856 C 0.83085 0.18495 0.48038 0.0
C857 C 0.84198 0.19278 0.46988 0.0
C858 C 0.85699 0.20529 0.47471 0.0
C859 C 0.86072 0.21028 0.49 0.0
C860 C 0.84966 0.2024 0.50047 0.0
C861 C 0.83477 0.18968 0.49569 0.0
C862 C 0.81553 0.17102 0.47534 0.0
C863 C 0.8052 0.17262 0.46558 0.0
C864 C 0.79182 0.15922 0.45924 0.0
C865 C 0.78842 0.14408 0.46287 0.0
C866 C 0.79839 0.14256 0.47317 0.0
C867 C 0.81191 0.15591 0.47924 0.0
C868 C 0.83806 0.18767 0.45378 0.0
C869 C 0.83707 0.19772 0.44376 0.0
C870 C 0.83327 0.19292 0.42863 0.0
C871 C 0.8304 0.17797 0.42326 0.0
C872 C 0.83149 0.16796 0.43335 0.0
C873 C 0.83533 0.1728 0.44846 0.0
C874 C 0.86917 0.21231 0.4639 0.0
C875 C 0.876 0.22831 0.46107 0.0
C876 C 0.8881 0.23496 0.45157 0.0
C877 C 0.89343 0.22567 0.44455 0.0
C878 C 0.88623 0.20954 0.44718 0.0
C879 C 0.87435 0.20298 0.45686 0.0
C880 C 0.87637 0.22358 0.49517 0.0
C881 C 0.87815 0.23791 0.50097 0.0
C882 C 0.89282 0.25045 0.50587 0.0
C883 C 0.906 0.24886 0.50506 0.0
C884 C 0.90414 0.23444 0.49928 0.0
C885 C 0.88945 0.2219 0.49441 0.0
C886 C 0.85408 0.20666 0.51663 0.0
C887 C 0.8474 0.21365 0.52515 0.0
C888 C 0.85132 0.21716 0.54044 0.0
C889 C 0.86195 0.21366 0.54743 0.0
C890 C 0.86864 0.20671 0.53878 0.0
C891 C 0.86472 0.20322 0.52354 0.0
C892 C 0.82362 0.1808 0.50688 0.0
C893 C 0.81044 0.18212 0.5086 0.0
C894 C 0.80047 0.17434 0.51972 0.0
C895 C 0.80354 0.16512 0.52927 0.0
C896 C 0.81658 0.16355 0.52721 0.0
C897 C 0.82652 0.17133 0.51614 0.0
C898 C 0.8263 0.17288 0.4072 0.0
C899 C 0.92162 0.26217 0.51022 0.0
H900 H 0.99445 0.51036 0.31832 0.0
H901 H 0.01376 0.40878 0.20056 0.0
H902 H 0.97331 0.50507 0.23968 0.0
H903 H 0.9758 0.53017 0.24874 0.0
H904 H 0.02041 0.55543 0.23001 0.0
H905 H 0.01764 0.53034 0.22081 0.0
H906 H 0.97707 0.47882 0.25844 0.0
H907 H 0.98022 0.48832 0.28459 0.0
H908 H 0.02469 0.52867 0.27681 0.0
H909 H 0.02147 0.51894 0.25075 0.0
H910 H 0.97864 0.4487 0.24094 0.0
H911 H 0.98533 0.43381 0.25762 0.0
H912 H 0.03036 0.47543 0.26845 0.0
H913 H 0.02391 0.48979 0.25084 0.0
H914 H 0.97221 0.44451 0.20629 0.0
H915 H 0.97366 0.42098 0.19921 0.0
H916 H 0.02258 0.44637 0.21305 0.0
H917 H 0.021 0.46986 0.2199 0.0
H918 H 0.96724 0.46828 0.18763 0.0
H919 H 0.96431 0.45725 0.16202 0.0
H920 H 0.01274 0.47078 0.1649 0.0
H921 H 0.01561 0.48216 0.19023 0.0
H922 H 0.96739 0.49782 0.20328 0.0
H923 H 0.9641 0.51219 0.18319 0.0
H924 H 0.01099 0.5279 0.17158 0.0
H925 H 0.01392 0.51315 0.19135 0.0
O926 O 0.99345 0.50679 0.30795 0.0
O927 O 0.01619 0.52738 0.30334 0.0
O928 O 0.9877 0.40542 0.19619 0.0
O929 O 0.01286 0.41792 0.20323 0.0
C930 C 0.99467 0.50084 0.22557 0.0
C931 C 0.99696 0.49245 0.23682 0.0
C932 C 0.99749 0.47865 0.23294 0.0
C933 C 0.99557 0.47316 0.21782 0.0
C934 C 0.99315 0.48149 0.20662 0.0
C935 C 0.99272 0.49533 0.21049 0.0
C936 C 0.99529 0.51594 0.2296 0.0
C937 C 0.98348 0.51607 0.23736 0.0
C938 C 0.98499 0.53039 0.24259 0.0
C939 C 0.99835 0.54481 0.24017 0.0
C940 C 0.00988 0.54458 0.2319 0.0
C941 C 0.00835 0.53026 0.22666 0.0
C942 C 0.99899 0.49824 0.2527 0.0
C943 C 0.98749 0.48969 0.26243 0.0
C944 C 0.98932 0.49516 0.27734 0.0
C945 C 0.00269 0.50928 0.28278 0.0
C946 C 0.01423 0.51778 0.27298 0.0
C947 C 0.0124 0.51227 0.25808 0.0
C948 C 0.00081 0.47029 0.24461 0.0
C949 C 0.98992 0.45459 0.24698 0.0
C950 C 0.99374 0.44615 0.25666 0.0
C951 C 0.00845 0.45336 0.26439 0.0
C952 C 0.01905 0.46937 0.26249 0.0
C953 C 0.01532 0.47769 0.25258 0.0
C954 C 0.99648 0.45886 0.21363 0.0
C955 C 0.98323 0.44497 0.20774 0.0
C956 C 0.98409 0.43155 0.20373 0.0
C957 C 0.99824 0.43179 0.20558 0.0
C958 C 0.0115 0.44577 0.2115 0.0
C959 C 0.01063 0.45919 0.21545 0.0
C960 C 0.99161 0.47593 0.19076 0.0
C961 C 0.97724 0.46904 0.1826 0.0
C962 C 0.97557 0.46266 0.16804 0.0
C963 C 0.98828 0.46308 0.16143 0.0
C964 C 0.00277 0.47044 0.16956 0.0
C965 C 0.00442 0.47683 0.18407 0.0
C966 C 0.99085 0.50439 0.19866 0.0
C967 C 0.97691 0.50439 0.19636 0.0
C968 C 0.9751 0.51266 0.18494 0.0
C969 C 0.98725 0.52112 0.17569 0.0
C970 C 0.00128 0.52125 0.17826 0.0
C971 C 0.00303 0.51292 0.1896 0.0
C972 C 0.00458 0.51508 0.29862 0.0
C973 C 0.99922 0.41756 0.20137 0.0
H974 H 0.49194 0.49847 0.32558 0.0
H975 H 0.40627 0.36842 0.20313 0.0
H976 H 0.49826 0.5047 0.24504 0.0
H977 H 0.51937 0.52998 0.25605 0.0
H978 H 0.55138 0.51293 0.25132 0.0
H979 H 0.53009 0.48763 0.24004 0.0
H980 H 0.4734 0.48086 0.26221 0.0
H981 H 0.47775 0.48935 0.28872 0.0
H982 H 0.51406 0.47778 0.29267 0.0
H983 H 0.50946 0.46916 0.26617 0.0
H984 H 0.44784 0.45492 0.24126 0.0
H985 H 0.42793 0.44303 0.25911 0.0
H986 H 0.45417 0.42473 0.281 0.0
H987 H 0.4741 0.43667 0.26298 0.0
H988 H 0.4479 0.44725 0.20864 0.0
H989 H 0.4245 0.4228 0.19919 0.0
H990 H 0.44191 0.39568 0.22064 0.0
H991 H 0.46533 0.42023 0.22989 0.0
H992 H 0.47457 0.47355 0.19534 0.0
H993 H 0.46754 0.46593 0.16888 0.0
H994 H 0.47869 0.42894 0.17286 0.0
H995 H 0.48518 0.43641 0.19957 0.0
H996 H 0.50181 0.50227 0.21278 0.0
H997 H 0.51891 0.5187 0.19429 0.0
H998 H 0.53372 0.48474 0.18634 0.0
H999 H 0.51685 0.46859 0.20523 0.0
O1000 O 0.49036 0.49497 0.31513 0.0
O1001 O 0.50897 0.48889 0.31656 0.0
O1002 O 0.40701 0.39276 0.19586 0.0
O1003 O 0.41542 0.37827 0.20671 0.0
C1004 C 0.49945 0.47872 0.23629 0.0
C1005 C 0.48846 0.46921 0.24622 0.0
C1006 C 0.4749 0.45516 0.24077 0.0
C1007 C 0.47259 0.45031 0.22547 0.0
C1008 C 0.48366 0.45976 0.21556 0.0
C1009 C 0.49709 0.47398 0.22097 0.0
C1010 C 0.51266 0.49434 0.24188 0.0
C1011 C 0.50986 0.50647 0.24631 0.0
C1012 C 0.52191 0.52085 0.25266 0.0
C1013 C 0.53701 0.52338 0.25473 0.0
C1014 C 0.53989 0.51136 0.2498 0.0
C1015 C 0.52777 0.49692 0.24341 0.0
C1016 C 0.49102 0.47427 0.26233 0.0
C1017 C 0.4822 0.48005 0.26886 0.0
C1018 C 0.48475 0.48495 0.28398 0.0
C1019 C 0.49624 0.48422 0.29282 0.0
C1020 C 0.5051 0.47847 0.28619 0.0
C1021 C 0.50251 0.47354 0.27107 0.0
C1022 C 0.46234 0.44658 0.25082 0.0
C1023 C 0.44918 0.44816 0.24979 0.0
C1024 C 0.43793 0.44152 0.26007 0.0
C1025 C 0.43959 0.43309 0.2715 0.0
C1026 C 0.45259 0.43112 0.27226 0.0
C1027 C 0.46394 0.43791 0.26202 0.0
C1028 C 0.45835 0.43548 0.21982 0.0
C1029 C 0.44668 0.43601 0.2112 0.0
C1030 C 0.43331 0.42203 0.20586 0.0
C1031 C 0.43135 0.40727 0.20913 0.0
C1032 C 0.44306 0.40683 0.21789 0.0
C1033 C 0.45643 0.42083 0.22319 0.0
C1034 C 0.4804 0.45555 0.19932 0.0
C1035 C 0.47562 0.4639 0.19044 0.0
C1036 C 0.4717 0.45956 0.17529 0.0
C1037 C 0.4726 0.44684 0.16866 0.0
C1038 C 0.47768 0.43866 0.1776 0.0
C1039 C 0.48149 0.44295 0.19283 0.0
C1040 C 0.50819 0.48432 0.21039 0.0
C1041 C 0.50893 0.49852 0.2072 0.0
C1042 C 0.51858 0.50778 0.19653 0.0
C1043 C 0.52761 0.50296 0.18878 0.0
C1044 C 0.52703 0.48884 0.19222 0.0
C1045 C 0.51737 0.47958 0.20293 0.0
C1046 C 0.49895 0.48948 0.30888 0.0
C1047 C 0.41718 0.39238 0.20348 0.0
H1048 H 0.50975 0.00198 0.33526 0.0
H1049 H 0.3936 0.98337 0.21207 0.0
H1050 H 0.52738 0.02325 0.25937 0.0
H1051 H 0.54821 0.02025 0.27103 0.0
H1052 H 0.52879 0.97415 0.2479 0.0
H1053 H 0.50798 0.97723 0.23635 0.0
H1054 H 0.49763 0.01906 0.27694 0.0
H1055 H 0.50322 0.01613 0.3029 0.0
H1056 H 0.49737 0.97038 0.2902 0.0
H1057 H 0.49158 0.97337 0.26434 0.0
H1058 H 0.46691 0.01672 0.26031 0.0
H1059 H 0.44656 0.0098 0.27769 0.0
H1060 H 0.4404 0.96301 0.27885 0.0
H1061 H 0.46029 0.96986 0.26108 0.0
H1062 H 0.47056 0.02414 0.22519 0.0
H1063 H 0.44648 0.02337 0.21738 0.0
H1064 H 0.42065 0.9734 0.22401 0.0
H1065 H 0.44484 0.97431 0.23164 0.0
H1066 H 0.49908 0.02813 0.20689 0.0
H1067 H 0.4932 0.03 0.18063 0.0
H1068 H 0.45687 0.98092 0.1778 0.0
H1069 H 0.46306 0.97911 0.20386 0.0
H1070 H 0.52797 0.02757 0.22472 0.0
H1071 H 0.54559 0.03075 0.20527 0.0
H1072 H 0.51168 0.98464 0.18504 0.0
H1073 H 0.49455 0.98137 0.20482 0.0
O1074 O 0.50743 0.00285 0.32494 0.0
O1075 O 0.50439 0.97945 0.31782 0.0
O1076 O 0.41712 0.0097 0.2118 0.0
O1077 O 0.4033 0.98401 0.21509 0.0
C1078 C 0.50204 0.00086 0.24243 0.0
C1079 C 0.49111 0.99844 0.25301 0.0
C1080 C 0.47706 0.99771 0.2486 0.0
C1081 C 0.4741 -0.00016 0.23368 0.0
C1082 C 0.48502 0.00224 0.2231 0.0
C1083 C 0.49894 0.00262 0.22744 0.0
C1084 C 0.5162 0.00045 0.24705 0.0
C1085 C 0.52789 0.0127 0.25654 0.0
C1086 C 0.53975 0.01096 0.26317 0.0
C1087 C 0.54001 0.9969 0.26046 0.0
C1088 C 0.52876 0.98503 0.2503 0.0
C1089 C 0.51697 0.98682 0.24359 0.0
C1090 C 0.49431 0.99648 0.26877 0.0
C1091 C 0.49752 0.0084 0.27981 0.0
C1092 C 0.50073 0.0067 0.29462 0.0
C1093 C 0.50079 0.99303 0.29862 0.0
C1094 C 0.49746 0.98107 0.2875 0.0
C1095 C 0.4942 0.98276 0.27271 0.0
C1096 C 0.46506 0.9938 0.25946 0.0
C1097 C 0.46112 0.00498 0.26432 0.0
C1098 C 0.44958 0.00104 0.27432 0.0
C1099 C 0.44184 0.98584 0.27966 0.0
C1100 C 0.44596 0.97473 0.27481 0.0
C1101 C 0.45742 0.97867 0.26478 0.0
C1102 C 0.45942 0.9993 0.22904 0.0
C1103 C 0.45969 0.01304 0.22493 0.0
C1104 C 0.44592 0.01257 0.22049 0.0
C1105 C 0.43162 0.99831 0.2201 0.0
C1106 C 0.43144 0.98456 0.22421 0.0
C1107 C 0.44522 0.98505 0.22862 0.0
C1108 C 0.48145 0.0035 0.20726 0.0
C1109 C 0.48989 0.0178 0.20054 0.0
C1110 C 0.48647 0.01886 0.1856 0.0
C1111 C 0.47459 0.00559 0.17714 0.0
C1112 C 0.46623 0.99128 0.18394 0.0
C1113 C 0.46963 0.99026 0.19885 0.0
C1114 C 0.50998 0.00427 0.21614 0.0
C1115 C 0.52448 0.01811 0.21617 0.0
C1116 C 0.53444 0.01995 0.20497 0.0
C1117 C 0.53004 0.00797 0.19355 0.0
C1118 C 0.51556 0.99402 0.19375 0.0
C1119 C 0.50568 0.99216 0.20497 0.0
C1120 C 0.5043 0.99131 0.31434 0.0
C1121 C 0.41696 0.99775 0.2154 0.0
H1122 H 0.50495 0.02478 0.72086 0.0
H1123 H 0.59265 0.98545 0.83549 0.0
H1124 H 0.49775 0.02275 0.80303 0.0
H1125 H 0.47767 0.02636 0.79076 0.0
H1126 H 0.44679 0.97573 0.78678 0.0
H1127 H 0.46698 0.97229 0.79941 0.0
H1128 H 0.52284 0.02497 0.78343 0.0
H1129 H 0.51869 0.02957 0.75763 0.0
H1130 H 0.48357 0.98024 0.74958 0.0
H1131 H 0.48796 0.97579 0.77538 0.0
H1132 H 0.54884 0.0248 0.80129 0.0
H1133 H 0.56864 0.0319 0.78341 0.0
H1134 H 0.54183 0.98511 0.76122 0.0
H1135 H 0.52182 0.97837 0.77895 0.0
H1136 H 0.54765 0.01762 0.83528 0.0
H1137 H 0.5716 0.01852 0.8439 0.0
H1138 H 0.55685 0.97452 0.81818 0.0
H1139 H 0.53287 0.97369 0.80979 0.0
H1140 H 0.51692 0.01315 0.85032 0.0
H1141 H 0.52328 0.01192 0.87639 0.0
H1142 H 0.52298 0.96845 0.8654 0.0
H1143 H 0.5154 0.9692 0.83949 0.0
H1144 H 0.49218 0.01462 0.83275 0.0
H1145 H 0.47546 0.01215 0.85276 0.0
H1146 H 0.46382 0.96369 0.85628 0.0
H1147 H 0.48024 0.96614 0.83592 0.0
O1148 O 0.50648 0.02268 0.73099 0.0
O1149 O 0.48849 0.99723 0.72744 0.0
O1150 O 0.5903 0.00796 0.84533 0.0
O1151 O 0.58327 0.98538 0.83227 0.0
C1152 C 0.49693 0.9953 0.80712 0.0
C1153 C 0.50808 0.99734 0.79695 0.0
C1154 C 0.52163 0.99732 0.80183 0.0
C1155 C 0.52394 0.99498 0.81683 0.0
C1156 C 0.51263 0.99261 0.82698 0.0
C1157 C 0.49904 0.99268 0.82208 0.0
C1158 C 0.48377 0.99727 0.80209 0.0
C1159 C 0.48652 0.01247 0.7998 0.0
C1160 C 0.4751 0.01449 0.79266 0.0
C1161 C 0.46073 0.00132 0.78759 0.0
C1162 C 0.45772 0.98611 0.79062 0.0
C1163 C 0.46919 0.9841 0.79783 0.0
C1164 C 0.50576 4e-05 0.78121 0.0
C1165 C 0.51435 0.01516 0.77604 0.0
C1166 C 0.51191 0.01776 0.76132 0.0
C1167 C 0.5008 0.00527 0.75154 0.0
C1168 C 0.49222 0.99011 0.75681 0.0
C1169 C 0.4947 0.98753 0.77153 0.0
C1170 C 0.53397 0.00107 0.79143 0.0
C1171 C 0.54734 0.01607 0.79262 0.0
C1172 C 0.55865 0.02006 0.78242 0.0
C1173 C 0.55688 0.00907 0.77086 0.0
C1174 C 0.54349 0.99394 0.76983 0.0
C1175 C 0.53211 0.99001 0.78001 0.0
C1176 C 0.53851 0.99555 0.82198 0.0
C1177 C 0.54959 0.00816 0.83158 0.0
C1178 C 0.56327 0.00866 0.83645 0.0
C1179 C 0.56613 0.99658 0.83174 0.0
C1180 C 0.55501 0.98401 0.82204 0.0
C1181 C 0.54132 0.98351 0.8172 0.0
C1182 C 0.51562 0.99123 0.84299 0.0
C1183 C 0.51786 0.00316 0.85361 0.0
C1184 C 0.52173 0.00255 0.8685 0.0
C1185 C 0.52385 0.99019 0.87305 0.0
C1186 C 0.52128 0.97806 0.8624 0.0
C1187 C 0.51709 0.97853 0.84753 0.0
C1188 C 0.48735 0.99053 0.83282 0.0
C1189 C 0.48569 0.00335 0.83756 0.0
C1190 C 0.47629 0.00197 0.84913 0.0
C1191 C 0.46841 0.98776 0.8562 0.0
C1192 C 0.46961 0.97474 0.85098 0.0
C1193 C 0.47901 0.97613 0.8394 0.0
C1194 C 0.49818 0.00808 0.73593 0.0
C1195 C 0.58064 0.99704 0.83688 0.0
H1196 H 0.9714 0.47876 0.73568 0.0
H1197 H 0.02573 0.61147 0.85437 0.0
H1198 H 0.98012 0.47424 0.81574 0.0
H1199 H 0.9756 0.44882 0.80531 0.0
H1200 H 0.02492 0.46639 0.8097 0.0
H1201 H 0.02926 0.49176 0.82051 0.0
H1202 H 0.97743 0.49936 0.79862 0.0
H1203 H 0.97049 0.48994 0.77236 0.0
H1204 H 0.01678 0.49814 0.76762 0.0
H1205 H 0.02361 0.50769 0.79386 0.0
H1206 H 0.98183 0.52882 0.81993 0.0
H1207 H 0.97611 0.54522 0.80419 0.0
H1208 H 0.01575 0.55557 0.77928 0.0
H1209 H 0.02188 0.53963 0.79553 0.0
H1210 H 0.99041 0.53279 0.85227 0.0
H1211 H 0.99184 0.5574 0.86114 0.0
H1212 H 0.03308 0.58388 0.83741 0.0
H1213 H 0.03164 0.55918 0.8288 0.0
H1214 H 0.99319 0.50485 0.86619 0.0
H1215 H 0.9948 0.51478 0.89183 0.0
H1216 H 0.03845 0.55653 0.88463 0.0
H1217 H 0.03717 0.54597 0.85927 0.0
H1218 H 0.98947 0.47655 0.84729 0.0
H1219 H 0.99261 0.4601 0.86509 0.0
H1220 H 0.04088 0.49585 0.87383 0.0
H1221 H 0.03769 0.51219 0.85577 0.0
O1222 O 0.97442 0.48261 0.74602 0.0
O1223 O 0.99835 0.48699 0.74419 0.0
O1224 O 0.00381 0.58741 0.86324 0.0
O1225 O 0.02495 0.60157 0.8511 0.0
C1226 C 0.00756 0.50046 0.82418 0.0
C1227 C 0.00517 0.5098 0.8141 0.0
C1228 C 0.00626 0.5241 0.81931 0.0
C1229 C 0.01007 0.52923 0.83456 0.0
C1230 C 0.01257 0.51994 0.84465 0.0
C1231 C 0.01133 0.50553 0.83945 0.0
C1232 C 0.00501 0.48482 0.81877 0.0
C1233 C 0.98992 0.47254 0.81452 0.0
C1234 C 0.98739 0.45808 0.80849 0.0
C1235 C -8e-05 0.45563 0.8065 0.0
C1236 C 0.01502 0.46785 0.81117 0.0
C1237 C 0.01753 0.48235 0.81729 0.0
C1238 C 0.00103 0.50428 0.7981 0.0
C1239 C 0.98608 0.49921 0.79186 0.0
C1240 C 0.98214 0.49379 0.77687 0.0
C1241 C 0.99309 0.49329 0.76789 0.0
C1242 C 0.00807 0.49837 0.77422 0.0
C1243 C 0.012 0.50382 0.7892 0.0
C1244 C 0.00239 0.53323 0.80901 0.0
C1245 C 0.98935 0.5347 0.81114 0.0
C1246 C 0.98607 0.54399 0.80215 0.0
C1247 C 0.99556 0.55165 0.79064 0.0
C1248 C 0.00828 0.54971 0.7881 0.0
C1249 C 0.01177 0.54066 0.79734 0.0
C1250 C 0.011 0.54422 0.83999 0.0
C1251 C -0.00019 0.54393 0.8491 0.0
C1252 C 0.00063 0.558 0.8541 0.0
C1253 C 0.0126 0.57262 0.84999 0.0
C1254 C 0.02373 0.57284 0.8408 0.0
C1255 C 0.02294 0.55875 0.83585 0.0
C1256 C 0.01503 0.52471 0.86084 0.0
C1257 C 0.00335 0.51588 0.87031 0.0
C1258 C 0.00419 0.52171 0.88491 0.0
C1259 C 0.0166 0.53662 0.89024 0.0
C1260 C 0.02877 0.54498 0.88097 0.0
C1261 C 0.02803 0.53901 0.86643 0.0
C1262 C 0.01339 0.49548 0.85009 0.0
C1263 C 0.00078 0.48073 0.85286 0.0
C1264 C 0.0026 0.47135 0.86303 0.0
C1265 C 0.01702 0.47666 0.87078 0.0
C1266 C 0.02962 0.4915 0.86806 0.0
C1267 C 0.02783 0.50081 0.85775 0.0
C1268 C 0.98884 0.48746 0.75199 0.0
C1269 C 0.01347 0.5876 0.85521 0.0
H1270 H 0.49176 0.50612 0.72324 0.0
H1271 H 0.6102 0.61107 0.84659 0.0
H1272 H 0.47612 0.51479 0.79809 0.0
H1273 H 0.45362 0.49017 0.78729 0.0
H1274 H 0.46809 0.46333 0.8133 0.0
H1275 H 0.49087 0.48792 0.82364 0.0
H1276 H 0.50555 0.53939 0.78212 0.0
H1277 H 0.49957 0.52923 0.75601 0.0
H1278 H 0.5021 0.4883 0.7678 0.0
H1279 H 0.50827 0.4987 0.79383 0.0
H1280 H 0.53543 0.56831 0.7989 0.0
H1281 H 0.5557 0.58106 0.78146 0.0
H1282 H 0.56181 0.54046 0.7798 0.0
H1283 H 0.54143 0.52779 0.79704 0.0
H1284 H 0.53316 0.57411 0.83494 0.0
H1285 H 0.55774 0.59805 0.84287 0.0
H1286 H 0.58217 0.57302 0.83391 0.0
H1287 H 0.55749 0.54913 0.82617 0.0
H1288 H 0.50565 0.55037 0.85429 0.0
H1289 H 0.51309 0.55919 0.88075 0.0
H1290 H 0.54754 0.54499 0.87959 0.0
H1291 H 0.53987 0.53603 0.85336 0.0
H1292 H 0.47471 0.51875 0.83568 0.0
H1293 H 0.45678 0.5027 0.85397 0.0
H1294 H 0.49105 0.49201 0.8715 0.0
H1295 H 0.50849 0.50742 0.85284 0.0
O1296 O 0.49423 0.50996 0.73361 0.0
O1297 O 0.49556 0.4891 0.74027 0.0
O1298 O 0.5872 0.61409 0.84799 0.0
O1299 O 0.60031 0.60177 0.84351 0.0
C1300 C 0.49994 0.51789 0.8164 0.0
C1301 C 0.51077 0.5259 0.80572 0.0
C1302 C 0.52512 0.53957 0.81016 0.0
C1303 C 0.52858 0.54541 0.82523 0.0
C1304 C 0.51792 0.53726 0.83595 0.0
C1305 C 0.50361 0.52345 0.83156 0.0
C1306 C 0.48515 0.50316 0.81164 0.0
C1307 C 0.47433 0.5036 0.80159 0.0
C1308 C 0.46154 0.48958 0.79542 0.0
C1309 C 0.4592 0.47491 0.79947 0.0
C1310 C 0.46959 0.47451 0.81012 0.0
C1311 C 0.48255 0.48852 0.81605 0.0
C1312 C 0.50728 0.51975 0.78986 0.0
C1313 C 0.50486 0.52826 0.77902 0.0
C1314 C 0.50141 0.52241 0.76413 0.0
C1315 C 0.50032 0.50793 0.75982 0.0
C1316 C 0.50282 0.49948 0.77074 0.0
C1317 C 0.50632 0.50536 0.78561 0.0
C1318 C 0.53697 0.54714 0.79919 0.0
C1319 C 0.54112 0.56218 0.79469 0.0
C1320 C 0.55274 0.56945 0.78479 0.0
C1321 C 0.56038 0.56177 0.77924 0.0
C1322 C 0.556 0.5466 0.78367 0.0
C1323 C 0.54442 0.53937 0.79356 0.0
C1324 C 0.54357 0.55993 0.8299 0.0
C1325 C 0.54384 0.57383 0.83471 0.0
C1326 C 0.55789 0.58749 0.83922 0.0
C1327 C 0.57194 0.58746 0.839 0.0
C1328 C 0.57159 0.57347 0.83419 0.0
C1329 C 0.55752 0.55982 0.82971 0.0
C1330 C 0.52227 0.54262 0.85194 0.0
C1331 C 0.51477 0.54915 0.85981 0.0
C1332 C 0.51907 0.55423 0.87486 0.0
C1333 C 0.53086 0.55273 0.88225 0.0
C1334 C 0.53827 0.54611 0.87428 0.0
C1335 C 0.53402 0.54111 0.85927 0.0
C1336 C 0.49291 0.5143 0.84298 0.0
C1337 C 0.47829 0.51292 0.84349 0.0
C1338 C 0.46813 0.50384 0.854 0.0
C1339 C 0.47245 0.49602 0.86418 0.0
C1340 C 0.48723 0.49764 0.8637 0.0
C1341 C 0.4973 0.5066 0.85315 0.0
C1342 C 0.49657 0.50172 0.744 0.0
C1343 C 0.5869 0.60193 0.84378 0.0
H1344 H 0.64 0.8322 0.65315 0.0
H1345 H 0.66128 0.73097 0.53641 0.0
H1346 H 0.62351 0.82994 0.57498 0.0
H1347 H 0.62753 0.85555 0.58462 0.0
H1348 H 0.67207 0.87901 0.56559 0.0
H1349 H 0.66789 0.85346 0.55597 0.0
H1350 H 0.62475 0.80171 0.59289 0.0
H1351 H 0.62695 0.81076 0.61905 0.0
H1352 H 0.67207 0.85099 0.61292 0.0
H1353 H 0.6698 0.8417 0.58685 0.0
H1354 H 0.62758 0.77151 0.57624 0.0
H1355 H 0.635 0.75699 0.59275 0.0
H1356 H 0.67931 0.79949 0.60376 0.0
H1357 H 0.67225 0.81342 0.58626 0.0
H1358 H 0.62087 0.768 0.54123 0.0
H1359 H 0.62191 0.74422 0.53426 0.0
H1360 H 0.67061 0.76872 0.54894 0.0
H1361 H 0.66944 0.79246 0.55568 0.0
H1362 H 0.61778 0.79222 0.52155 0.0
H1363 H 0.61632 0.78174 0.49595 0.0
H1364 H 0.66468 0.79537 0.50149 0.0
H1365 H 0.66606 0.80602 0.52682 0.0
H1366 H 0.61965 0.82548 0.53869 0.0
H1367 H 0.61925 0.84249 0.51975 0.0
H1368 H 0.6639 0.85122 0.50674 0.0
H1369 H 0.66447 0.83484 0.52609 0.0
O1370 O 0.6394 0.8288 0.64279 0.0
O1371 O 0.66249 0.84933 0.63902 0.0
O1372 O 0.63551 0.72818 0.53157 0.0
O1373 O 0.66055 0.74022 0.53904 0.0
C1374 C 0.64406 0.8244 0.56072 0.0
C1375 C 0.64555 0.8156 0.57205 0.0
C1376 C 0.64594 0.80171 0.56825 0.0
C1377 C 0.64437 0.79636 0.55313 0.0
C1378 C 0.64271 0.80506 0.54183 0.0
C1379 C 0.64267 0.81914 0.5456 0.0
C1380 C 0.6454 0.83987 0.56477 0.0
C1381 C 0.634 0.84066 0.5727 0.0
C1382 C 0.63637 0.85526 0.57827 0.0
C1383 C 0.65016 0.86931 0.57594 0.0
C1384 C 0.66124 0.86846 0.56742 0.0
C1385 C 0.65888 0.85387 0.56192 0.0
C1386 C 0.64705 0.82111 0.58795 0.0
C1387 C 0.6351 0.81246 0.59724 0.0
C1388 C 0.63639 0.81767 0.61216 0.0
C1389 C 0.64967 0.83163 0.61807 0.0
C1390 C 0.66167 0.84022 0.60872 0.0
C1391 C 0.66038 0.83497 0.59382 0.0
C1392 C 0.6494 0.7935 0.57997 0.0
C1393 C 0.63886 0.77767 0.5823 0.0
C1394 C 0.64309 0.76943 0.59186 0.0
C1395 C 0.65785 0.77699 0.59954 0.0
C1396 C 0.66801 0.79314 0.59779 0.0
C1397 C 0.6639 0.80123 0.58797 0.0
C1398 C 0.64505 0.78191 0.54902 0.0
C1399 C 0.63174 0.7682 0.5429 0.0
C1400 C 0.63238 0.75463 0.53895 0.0
C1401 C 0.64635 0.75456 0.54107 0.0
C1402 C 0.65966 0.76836 0.54718 0.0
C1403 C 0.65902 0.78192 0.55108 0.0
C1404 C 0.642 0.79981 0.526 0.0
C1405 C 0.62807 0.79309 0.51711 0.0
C1406 C 0.62724 0.78703 0.50257 0.0
C1407 C 0.64038 0.78772 0.4967 0.0
C1408 C 0.65441 0.79484 0.50559 0.0
C1409 C 0.6552 0.80084 0.52008 0.0
C1410 C 0.64204 0.82886 0.5337 0.0
C1411 C 0.62932 0.83108 0.53172 0.0
C1412 C 0.62907 0.84071 0.52084 0.0
C1413 C 0.64156 0.84826 0.51174 0.0
C1414 C 0.6542 0.84581 0.51369 0.0
C1415 C 0.65447 0.83629 0.52462 0.0
C1416 C 0.65096 0.83717 0.63391 0.0
C1417 C 0.64708 0.74017 0.53692 0.0
H1418 H 0.15628 0.82741 0.65977 0.0
H1419 H 0.07468 0.69986 0.53519 0.0
H1420 H 0.1667 0.83518 0.58051 0.0
H1421 H 0.18779 0.86008 0.59225 0.0
H1422 H 0.21947 0.84263 0.58747 0.0
H1423 H 0.19819 0.81768 0.57558 0.0
H1424 H 0.14011 0.81037 0.59603 0.0
H1425 H 0.1434 0.81852 0.62256 0.0
H1426 H 0.18035 0.80803 0.62794 0.0
H1427 H 0.17682 0.79974 0.60141 0.0
H1428 H 0.11461 0.7832 0.57238 0.0
H1429 H 0.09326 0.77007 0.58849 0.0
H1430 H 0.12048 0.7561 0.61525 0.0
H1431 H 0.14178 0.76893 0.59871 0.0
H1432 H 0.11728 0.77863 0.54111 0.0
H1433 H 0.09409 0.75441 0.5309 0.0
H1434 H 0.10971 0.72668 0.55402 0.0
H1435 H 0.13295 0.751 0.564 0.0
H1436 H 0.14711 0.80804 0.53011 0.0
H1437 H 0.13934 0.80146 0.50371 0.0
H1438 H 0.14136 0.75866 0.50659 0.0
H1439 H 0.1503 0.76604 0.53292 0.0
H1440 H 0.1703 0.83303 0.54738 0.0
H1441 H 0.18801 0.84988 0.52961 0.0
H1442 H 0.20564 0.81787 0.52445 0.0
H1443 H 0.18717 0.80066 0.54173 0.0
O1444 O 0.15513 0.82406 0.64932 0.0
O1445 O 0.17409 0.81855 0.65148 0.0
O1446 O 0.07631 0.72442 0.52731 0.0
O1447 O 0.08378 0.70963 0.53903 0.0
C1448 C 0.16772 0.80922 0.57123 0.0
C1449 C 0.15625 0.79953 0.5807 0.0
C1450 C 0.14277 0.78567 0.57473 0.0
C1451 C 0.14101 0.78126 0.55933 0.0
C1452 C 0.15246 0.79102 0.54983 0.0
C1453 C 0.16586 0.80497 0.55583 0.0
C1454 C 0.18092 0.82463 0.57734 0.0
C1455 C 0.17821 0.83678 0.58196 0.0
C1456 C 0.19024 0.85093 0.58871 0.0
C1457 C 0.20525 0.85323 0.59094 0.0
C1458 C 0.20805 0.84121 0.58585 0.0
C1459 C 0.19594 0.82698 0.5791 0.0
C1460 C 0.15814 0.80435 0.59684 0.0
C1461 C 0.14883 0.80973 0.60299 0.0
C1462 C 0.15077 0.81443 0.61813 0.0
C1463 C 0.16212 0.81391 0.62738 0.0
C1464 C 0.17148 0.80856 0.62114 0.0
C1465 C 0.1695 0.80383 0.606 0.0
C1466 C 0.12968 0.77686 0.58425 0.0
C1467 C 0.11587 0.77703 0.58152 0.0
C1468 C 0.10372 0.76959 0.59075 0.0
C1469 C 0.10523 0.76205 0.60306 0.0
C1470 C 0.11907 0.76189 0.60585 0.0
C1471 C 0.13118 0.76914 0.59641 0.0
C1472 C 0.12687 0.76656 0.55316 0.0
C1473 C 0.11573 0.76731 0.54385 0.0
C1474 C 0.10247 0.75346 0.53809 0.0
C1475 C 0.10006 0.73859 0.54162 0.0
C1476 C 0.11121 0.73792 0.55105 0.0
C1477 C 0.12449 0.75179 0.55678 0.0
C1478 C 0.14944 0.78762 0.53344 0.0
C1479 C 0.14638 0.79751 0.52495 0.0
C1480 C 0.14164 0.79355 0.50989 0.0
C1481 C 0.13945 0.77937 0.50303 0.0
C1482 C 0.14304 0.76973 0.51145 0.0
C1483 C 0.14807 0.77387 0.52652 0.0
C1484 C 0.17748 0.81566 0.54581 0.0
C1485 C 0.17808 0.82975 0.54247 0.0
C1486 C 0.18832 0.83941 0.53236 0.0
C1487 C 0.19838 0.83532 0.52556 0.0
C1488 C 0.19794 0.8213 0.52925 0.0
C1489 C 0.18749 0.8115 0.53921 0.0
C1490 C 0.16419 0.81896 0.64345 0.0
C1491 C 0.08599 0.72384 0.53553 0.0
H1492 H 0.19217 0.35931 0.67259 0.0
H1493 H 0.07358 0.34464 0.55433 0.0
H1494 H 0.20679 0.3763 0.59623 0.0
H1495 H 0.22628 0.37086 0.60714 0.0
H1496 H 0.20317 0.32491 0.58317 0.0
H1497 H 0.18357 0.33033 0.57259 0.0
H1498 H 0.17899 0.37599 0.61449 0.0
H1499 H 0.18536 0.37337 0.6403 0.0
H1500 H 0.17615 0.3262 0.62816 0.0
H1501 H 0.16959 0.3289 0.60245 0.0
H1502 H 0.14798 0.3749 0.59932 0.0
H1503 H 0.1279 0.36888 0.61689 0.0
H1504 H 0.11939 0.32118 0.61765 0.0
H1505 H 0.13938 0.3273 0.60016 0.0
H1506 H 0.1508 0.3814 0.56363 0.0
H1507 H 0.12725 0.38213 0.55687 0.0
H1508 H 0.09946 0.33274 0.5652 0.0
H1509 H 0.1231 0.33213 0.57177 0.0
H1510 H 0.1759 0.38165 0.54284 0.0
H1511 H 0.1683 0.38124 0.51648 0.0
H1512 H 0.13185 0.33261 0.51789 0.0
H1513 H 0.13954 0.3331 0.54405 0.0
H1514 H 0.20569 0.37993 0.5596 0.0
H1515 H 0.22118 0.38034 0.53902 0.0
H1516 H 0.18404 0.33406 0.52236 0.0
H1517 H 0.1691 0.33351 0.54327 0.0
O1518 O 0.18953 0.36006 0.66233 0.0
O1519 O 0.18475 0.33591 0.65549 0.0
O1520 O 0.0979 0.37003 0.55273 0.0
O1521 O 0.08308 0.34467 0.55692 0.0
C1522 C 0.18023 0.35548 0.57973 0.0
C1523 C 0.17026 0.35444 0.59092 0.0
C1524 C 0.15654 0.35467 0.58716 0.0
C1525 C 0.15299 0.35639 0.57229 0.0
C1526 C 0.16287 0.35733 0.56112 0.0
C1527 C 0.17645 0.35677 0.5648 0.0
C1528 C 0.19378 0.3537 0.58366 0.0
C1529 C 0.20619 0.36524 0.59306 0.0
C1530 C 0.2173 0.36211 0.59926 0.0
C1531 C 0.21614 0.34738 0.59614 0.0
C1532 C 0.20423 0.33627 0.58595 0.0
C1533 C 0.19315 0.33941 0.57975 0.0
C1534 C 0.17396 0.35269 0.6066 0.0
C1535 C 0.17833 0.3651 0.61745 0.0
C1536 C 0.18198 0.36357 0.63217 0.0
C1537 C 0.18131 0.34959 0.63629 0.0
C1538 C 0.17682 0.33714 0.62536 0.0
C1539 C 0.17312 0.33866 0.61066 0.0
C1540 C 0.14516 0.35155 0.59853 0.0
C1541 C 0.14184 0.36321 0.6034 0.0
C1542 C 0.13035 0.35973 0.61337 0.0
C1543 C 0.12209 0.34456 0.61868 0.0
C1544 C 0.12571 0.33304 0.61397 0.0
C1545 C 0.1371 0.3365 0.60396 0.0
C1546 C 0.13863 0.35675 0.56828 0.0
C1547 C 0.1396 0.37076 0.56397 0.0
C1548 C 0.12614 0.37114 0.56013 0.0
C1549 C 0.11146 0.35749 0.56053 0.0
C1550 C 0.11056 0.34346 0.56481 0.0
C1551 C 0.12404 0.34309 0.56861 0.0
C1552 C 0.15822 0.35742 0.54532 0.0
C1553 C 0.16626 0.37095 0.53741 0.0
C1554 C 0.1619 0.37071 0.52242 0.0
C1555 C 0.14955 0.35686 0.51514 0.0
C1556 C 0.14154 0.34337 0.52315 0.0
C1557 C 0.14582 0.34367 0.53811 0.0
C1558 C 0.18625 0.35674 0.55285 0.0
C1559 C 0.20103 0.36984 0.55157 0.0
C1560 C 0.20979 0.37009 0.53973 0.0
C1561 C 0.20386 0.35725 0.52897 0.0
C1562 C 0.18911 0.34406 0.53051 0.0
C1563 C 0.18046 0.34377 0.54238 0.0
C1564 C 0.18529 0.34805 0.65192 0.0
C1565 C 0.09712 0.35784 0.55648 0.0
C1566 C 0.97941 0.37959 0.05219 0.0
C1567 C 0.99348 0.38668 0.04526 0.0
C1568 C 0.97683 0.38795 0.06355 0.0
C1569 C 0.99043 0.42825 0.08006 0.0
H1570 H 0.97489 0.40723 0.11622 0.0
C1571 C 0.99799 0.46203 0.1364 0.0
C1572 C 0.98635 0.45517 0.14646 0.0
C1573 C 0.99694 0.45386 0.12295 0.0
C1574 C 0.97896 0.41321 0.10612 0.0
H1575 H 0.01575 0.40814 0.04458 0.0
H1576 H 0.01127 0.4227 0.06442 0.0
H1577 H 0.97654 0.39247 0.0947 0.0
H1578 H 0.96421 0.43453 0.15003 0.0
H1579 H 0.96218 0.42045 0.12639 0.0
H1580 H 0.99305 0.44906 0.09155 0.0
C1581 C 0.00218 0.41074 0.06101 0.0
C1582 C 0.97992 0.40474 0.09379 0.0
C1583 C 0.0048 0.40236 0.04972 0.0
C1584 C 0.97333 0.44021 0.14249 0.0
C1585 C 0.97225 0.43205 0.12902 0.0
C1586 C 0.9894 0.43671 0.09238 0.0
C1587 C 0.98823 0.40359 0.06813 0.0
C1588 C 0.98592 0.41224 0.08072 0.0
C1589 C 0.9842 0.43865 0.11922 0.0
C1590 C 0.9839 0.42936 0.10564 0.0
H1591 H 0.97046 0.36753 0.04894 0.0
H1592 H 0.96591 0.38218 0.06876 0.0
H1593 H 0.99488 0.43428 0.07005 0.0
H1594 H 0.00808 0.47363 0.13904 0.0
H1595 H 0.00642 0.45925 0.11574 0.0
C1596 C 0.6125 0.58145 0.09248 0.0
C1597 C 0.60514 0.58733 0.08334 0.0
C1598 C 0.60478 0.57203 0.10404 0.0
C1599 C 0.57289 0.56364 0.12804 0.0
H1600 H 0.5741 0.52581 0.13621 0.0
C1601 C 0.53123 0.51889 0.16676 0.0
C1602 C 0.53717 0.51242 0.17685 0.0
C1603 C 0.54017 0.52797 0.15562 0.0
C1604 C 0.57382 0.53645 0.13417 0.0
H1605 H 0.58384 0.58762 0.07885 0.0
H1606 H 0.57039 0.57115 0.09883 0.0
H1607 H 0.5886 0.5417 0.1161 0.0
H1608 H 0.55717 0.51031 0.1831 0.0
H1609 H 0.57286 0.52623 0.16356 0.0
H1610 H 0.5581 0.55846 0.14599 0.0
C1611 C 0.58218 0.57399 0.09728 0.0
C1612 C 0.58211 0.54554 0.12266 0.0
C1613 C 0.58985 0.58335 0.08576 0.0
C1614 C 0.55222 0.51505 0.17541 0.0
C1615 C 0.5612 0.52415 0.16423 0.0
C1616 C 0.56463 0.5546 0.13951 0.0
C1617 C 0.58961 0.5684 0.10668 0.0
C1618 C 0.58154 0.55911 0.11934 0.0
C1619 C 0.5553 0.53081 0.15429 0.0
C1620 C 0.56482 0.54079 0.14258 0.0
H1621 H 0.62429 0.58435 0.09087 0.0
H1622 H 0.61083 0.56795 0.11115 0.0
H1623 H 0.5725 0.57424 0.12598 0.0
H1624 H 0.51955 0.5168 0.16735 0.0
H1625 H 0.53516 0.53264 0.14794 0.0
C1626 C 0.41756 0.99139 0.05091 0.0
C1627 C 0.41476 0.00366 0.04782 0.0
C1628 C 0.42632 0.99247 0.06381 0.0
C1629 C 0.45325 0.02017 0.09468 0.0
H1630 H 0.43605 0.98224 0.11629 0.0
C1631 C 0.46959 0.01964 0.15692 0.0
C1632 C 0.47064 0.00663 0.16135 0.0
C1633 C 0.46466 0.01997 0.14229 0.0
C1634 C 0.44116 0.99288 0.1103 0.0
H1635 H 0.41938 0.02694 0.0555 0.0
H1636 H 0.43447 0.02873 0.07818 0.0
H1637 H 0.42416 0.98161 0.09207 0.0
H1638 H 0.46821 0.98421 0.15369 0.0
H1639 H 0.4596 0.98479 0.12818 0.0
H1640 H 0.47006 0.03149 0.11319 0.0
C1641 C 0.43008 0.01835 0.07055 0.0
C1642 C 0.43435 0.99252 0.09639 0.0
C1643 C 0.42137 0.0173 0.05759 0.0
C1644 C 0.46721 0.99425 0.1507 0.0
C1645 C 0.46229 0.99458 0.13609 0.0
C1646 C 0.46006 0.02054 0.10866 0.0
C1647 C 0.43239 0.0058 0.07396 0.0
C1648 C 0.44025 0.00617 0.08843 0.0
C1649 C 0.46068 0.0073 0.13178 0.0
C1650 C 0.45403 0.00691 0.11665 0.0
H1651 H 0.41271 0.98078 0.04352 0.0
H1652 H 0.42814 0.98272 0.06594 0.0
H1653 H 0.45818 0.03085 0.08876 0.0
H1654 H 0.47202 0.02929 0.1649 0.0
H1655 H 0.46339 0.02986 0.13936 0.0
C1656 C 0.41677 0.00167 0.97198 0.0
C1657 C 0.40215 0.98964 0.97561 0.0
C1658 C 0.42335 -0.00013 0.95924 0.0
C1659 C 0.41367 0.97839 0.92247 0.0
H1660 H 0.45784 0.99375 0.92413 0.0
C1661 C 0.44553 0.9734 0.87171 0.0
C1662 C 0.45988 0.98688 0.86958 0.0
C1663 C 0.43791 0.97248 0.88466 0.0
C1664 C 0.44551 0.98951 0.92345 0.0
H1665 H 0.38296 0.96622 0.96878 0.0
H1666 H 0.39454 0.96303 0.9464 0.0
H1667 H 0.44561 0.9941 0.94685 0.0
H1668 H 0.47751 0.00989 0.87945 0.0
H1669 H 0.46414 0.00841 0.9018 0.0
H1670 H 0.41367 0.97399 0.89898 0.0
C1671 C 0.40084 0.9739 0.95342 0.0
C1672 C 0.4385 0.9897 0.93648 0.0
C1673 C 0.39425 0.97569 0.96625 0.0
C1674 C 0.46638 0.99942 0.88063 0.0
C1675 C 0.45881 0.99848 0.89355 0.0
C1676 C 0.42071 0.9782 0.9094 0.0
C1677 C 0.41548 0.98599 0.94979 0.0
C1678 C 0.42256 0.98441 0.93611 0.0
C1679 C 0.44455 0.98497 0.89578 0.0
C1680 C 0.43676 0.98403 0.90972 0.0
H1681 H 0.42313 0.01259 0.97893 0.0
H1682 H 0.43453 0.00951 0.95665 0.0
H1683 H 0.40139 0.97435 0.92181 0.0
H1684 H 0.44019 0.96357 0.86336 0.0
H1685 H 0.42696 0.96188 0.88608 0.0
C1686 C 0.02437 0.39739 0.97021 0.0
C1687 C 0.01028 0.39037 0.97711 0.0
C1688 C 0.0264 0.40662 0.95813 0.0
C1689 C 0.00387 0.41355 0.92898 0.0
H1690 H 0.04211 0.45313 0.92579 0.0
C1691 C 0.01215 0.45051 0.8788 0.0
C1692 C 0.01868 0.46684 0.88194 0.0
C1693 C 0.01267 0.44104 0.88967 0.0
C1694 C 0.03134 0.44213 0.92655 0.0
H1695 H 0.98739 0.38771 0.97696 0.0
H1696 H 0.991 0.40388 0.95614 0.0
H1697 H 0.03978 0.43694 0.94648 0.0
H1698 H 0.03118 0.48613 0.89881 0.0
H1699 H 0.0319 0.46957 0.91791 0.0
H1700 H 0.99517 0.41891 0.90945 0.0
C1701 C 0.00038 0.40206 0.95981 0.0
C1702 C 0.03007 0.43277 0.93831 0.0
C1703 C 0.99835 0.39287 0.97182 0.0
C1704 C 0.02617 0.47359 0.89604 0.0
C1705 C 0.02661 0.4641 0.90696 0.0
C1706 C 0.00512 0.42288 0.91727 0.0
C1707 C 0.01437 0.40895 0.95273 0.0
C1708 C 0.01623 0.41848 0.93977 0.0
C1709 C 0.01964 0.44766 0.90398 0.0
C1710 C 0.01881 0.43736 0.91598 0.0
H1711 H 0.03375 0.39565 0.97406 0.0
H1712 H 0.03728 0.41168 0.95286 0.0
H1713 H 0.99312 0.40249 0.92964 0.0
H1714 H 0.00653 0.44503 0.86794 0.0
H1715 H 0.00747 0.42847 0.8869 0.0
C1716 C 0.5937 0.58795 0.00612 0.0
C1717 C 0.59906 0.60321 0.01261 0.0
C1718 C 0.58424 0.58268 0.99292 0.0
C1719 C 0.57453 0.5972 0.95975 0.0
H1720 H 0.5406 0.5539 0.9535 0.0
C1721 C 0.53802 0.57288 0.90368 0.0
C1722 C 0.53566 0.55817 0.89817 0.0
C1723 C 0.54376 0.5785 0.9184 0.0
C1724 C 0.55007 0.56601 0.95506 0.0
H1725 H 0.59858 0.62488 0.01052 0.0
H1726 H 0.58202 0.61565 0.98739 0.0
H1727 H 0.55451 0.56362 0.97793 0.0
H1728 H 0.53672 0.53751 0.90393 0.0
H1729 H 0.54691 0.54738 0.92948 0.0
H1730 H 0.57036 0.59949 0.93678 0.0
C1731 C 0.58522 0.60781 0.99247 0.0
C1732 C 0.55804 0.57157 0.96904 0.0
C1733 C 0.59464 0.61306 0.00574 0.0
C1734 C 0.53861 0.54898 0.90781 0.0
C1735 C 0.54429 0.55456 0.9225 0.0
C1736 C 0.56657 0.59163 0.94574 0.0
C1737 C 0.57996 0.59257 0.98589 0.0
C1738 C 0.57055 0.58713 0.97147 0.0
C1739 C 0.54715 0.56949 0.92792 0.0
C1740 C 0.55445 0.57588 0.94317 0.0
H1741 H 0.59692 0.58009 0.01116 0.0
H1742 H 0.58058 0.57096 0.98802 0.0
H1743 H 0.58422 0.60921 0.96121 0.0
H1744 H 0.53592 0.58026 0.89648 0.0
H1745 H 0.5457 0.58998 0.92229 0.0
C1746 C 0.01918 0.61701 -7e-05 0.0
C1747 C 0.00407 0.61358 0.0025 0.0
C1748 C 0.02165 0.60824 0.98888 0.0
C1749 C 0.00118 0.57009 0.9661 0.0
H1750 H 0.03454 0.59108 0.93994 0.0
C1751 C 0.00202 0.54218 0.90924 0.0
C1752 C 0.01613 0.54402 0.9048 0.0
C1753 C 0.00155 0.54993 0.92234 0.0
C1754 C 0.02532 0.58502 0.94731 0.0
H1755 H 0.97974 0.59849 0.99539 0.0
H1756 H 0.98404 0.58346 0.97598 0.0
H1757 H 0.03185 0.60639 0.96045 0.0
H1758 H 0.04079 0.55524 0.91093 0.0
H1759 H 0.03995 0.56906 0.93377 0.0
H1760 H 0.9944 0.54883 0.9527 0.0
C1761 C 0.99398 0.59265 0.98267 0.0
C1762 C 0.02378 0.59378 0.95906 0.0
C1763 C 0.99151 0.60136 0.99372 0.0
C1764 C 0.02975 0.55369 0.91392 0.0
C1765 C 0.02928 0.56158 0.92701 0.0
C1766 C 0.00268 0.56137 0.95434 0.0
C1767 C 0.00906 0.5959 0.98018 0.0
C1768 C 0.01151 0.58646 0.96842 0.0
C1769 C 0.01518 0.55984 0.93129 0.0
C1770 C 0.0146 0.56879 0.94466 0.0
H1771 H 0.02908 0.62633 0.00658 0.0
H1772 H 0.0334 0.61096 0.98731 0.0
H1773 H 0.99182 0.56401 0.97332 0.0
H1774 H 0.99136 0.53516 0.90235 0.0
H1775 H 0.99055 0.54857 0.92521 0.0
C1776 C 0.39018 0.42172 0.96391 0.0
C1777 C 0.39367 0.41007 0.96775 0.0
C1778 C 0.3973 0.43121 0.9522 0.0
C1779 C 0.41602 0.43162 0.91795 0.0
H1780 H 0.43657 0.47728 0.92346 0.0
C1781 C 0.46064 0.47164 0.87836 0.0
C1782 C 0.4616 0.48597 0.87512 0.0
C1783 C 0.45092 0.46238 0.88899 0.0
C1784 C 0.43065 0.46454 0.92162 0.0
H1785 H 0.40729 0.39921 0.96238 0.0
H1786 H 0.41954 0.4156 0.94191 0.0
H1787 H 0.42208 0.46115 0.94341 0.0
H1788 H 0.45288 0.5017 0.88044 0.0
H1789 H 0.43553 0.48528 0.89876 0.0
H1790 H 0.42446 0.43486 0.89622 0.0
C1791 C 0.41131 0.4174 0.94791 0.0
C1792 C 0.4224 0.45532 0.93307 0.0
C1793 C 0.40438 0.40809 0.95969 0.0
C1794 C 0.45234 0.49067 0.88259 0.0
C1795 C 0.44253 0.48135 0.89322 0.0
C1796 C 0.42412 0.4408 0.90647 0.0
C1797 C 0.40783 0.42902 0.94401 0.0
C1798 C 0.4153 0.43879 0.93145 0.0
C1799 C 0.44177 0.46712 0.8966 0.0
C1800 C 0.43185 0.45739 0.90827 0.0
H1801 H 0.38197 0.4235 0.96995 0.0
H1802 H 0.39439 0.44007 0.94939 0.0
H1803 H 0.41041 0.41888 0.91631 0.0
H1804 H 0.46742 0.46752 0.87266 0.0
H1805 H 0.45083 0.45164 0.89143 0.0
C1806 C 0.58702 0.01051 0.9974 0.0
C1807 C 0.58664 0.99724 0.00313 0.0
C1808 C 0.57873 0.00903 0.98405 0.0
C1809 C 0.5468 0.98177 0.95747 0.0
H1810 H 0.57176 0.01059 0.92857 0.0
C1811 C 0.52462 0.97635 0.89579 0.0
C1812 C 0.52954 0.99043 0.88864 0.0
C1813 C 0.53067 0.97668 0.91014 0.0
C1814 C 0.5645 0.00262 0.93655 0.0
H1815 H 0.57665 0.97188 -0.00023 0.0
H1816 H 0.56191 0.96926 0.9764 0.0
H1817 H 0.58334 0.01208 0.9532 0.0
H1818 H 0.54467 0.01592 0.89121 0.0
H1819 H 0.55449 0.01653 0.91632 0.0
H1820 H 0.52783 0.9725 0.9409 0.0
C1821 C 0.56872 0.9808 0.98228 0.0
C1822 C 0.57119 0.00344 0.95065 0.0
C1823 C 0.57717 0.98231 0.9956 0.0
C1824 C 0.54039 0.00483 0.89636 0.0
C1825 C 0.54626 0.00517 0.91074 0.0
C1826 C 0.54001 0.98107 0.94337 0.0
C1827 C 0.56976 0.99423 0.9762 0.0
C1828 C 0.56241 0.99309 0.96127 0.0
C1829 C 0.54169 0.9911 0.91775 0.0
C1830 C 0.54877 0.99156 0.93274 0.0
H1831 H 0.59416 0.02217 0.00296 0.0
H1832 H 0.57958 0.01953 0.97969 0.0
H1833 H 0.53978 0.97368 0.9655 0.0
H1834 H 0.51612 0.96505 0.89029 0.0
H1835 H 0.52694 0.96558 0.91513 0.0
C1836 C 0.5899 0.99726 0.08308 0.0
C1837 C 0.59971 0.01073 0.07569 0.0
C1838 C 0.58413 0.9987 0.09652 0.0
C1839 C 0.5742 0.0237 0.11866 0.0
H1840 H 0.57607 -0.00014 0.15111 0.0
C1841 C 0.54855 0.02464 0.17493 0.0
C1842 C 0.54029 0.01003 0.18128 0.0
C1843 C 0.55751 0.02628 0.16287 0.0
C1844 C 0.57531 0.00648 0.14214 0.0
H1845 H 0.61099 0.03627 0.07644 0.0
H1846 H 0.60055 0.03877 0.09995 0.0
H1847 H 0.58825 -0.00018 0.12825 0.0
H1848 H 0.53546 0.98584 0.18019 0.0
H1849 H 0.55055 0.98851 0.15893 0.0
H1850 H 0.56074 0.02988 0.13228 0.0
C1851 C 0.59747 0.02712 0.09531 0.0
C1852 C 0.58236 0.00651 0.12907 0.0
C1853 C 0.60345 0.02569 0.08191 0.0
C1854 C 0.54147 0.9972 0.17546 0.0
C1855 C 0.55034 0.99881 0.16337 0.0
C1856 C 0.56699 0.02355 0.1317 0.0
C1857 C 0.58789 0.01363 0.1028 0.0
C1858 C 0.58165 0.01489 0.11711 0.0
C1859 C 0.5584 0.01334 0.15684 0.0
C1860 C 0.56722 0.0147 0.1435 0.0
H1861 H 0.58682 0.98556 0.07859 0.0
H1862 H 0.5766 0.98809 0.10196 0.0
H1863 H 0.5734 0.03018 0.10957 0.0
H1864 H 0.5478 0.03473 0.17904 0.0
H1865 H 0.5637 0.03768 0.15824 0.0
C1866 C 0.99459 0.59643 0.06927 0.0
C1867 C 0.98646 0.60462 0.06921 0.0
C1868 C 0.99322 0.58676 0.08068 0.0
C1869 C 0.96981 0.56628 0.11204 0.0
H1870 H 0.00796 0.56807 0.12566 0.0
C1871 C 0.9775 0.53815 0.16514 0.0
C1872 C 0.98538 0.52975 0.16335 0.0
C1873 C 0.97646 0.54684 0.15369 0.0
C1874 C 0.99719 0.56736 0.12191 0.0
H1875 H 0.97015 0.60881 0.0808 0.0
H1876 H 0.96803 0.59213 0.10109 0.0
H1877 H 0.00826 0.58415 0.10577 0.0
H1878 H 0.99763 0.52328 0.14781 0.0
H1879 H 0.9961 0.5387 0.12807 0.0
H1880 H 0.9589 0.54961 0.12855 0.0
C1881 C 0.97529 0.59301 0.09216 0.0
C1882 C 0.99733 0.57653 0.11046 0.0
C1883 C 0.97654 0.60259 0.08058 0.0
C1884 C 0.99183 0.52992 0.14973 0.0
C1885 C 0.9909 0.5387 0.13838 0.0
C1886 C 0.96972 0.55718 0.12365 0.0
C1887 C 0.98387 0.58521 0.09247 0.0
C1888 C 0.98361 0.57592 0.10519 0.0
C1889 C 0.98338 0.5474 0.14031 0.0
C1890 C 0.98338 0.55747 0.12852 0.0
H1891 H 0.00217 0.5976 0.06054 0.0
H1892 H -0.00035 0.5806 0.08032 0.0
H1893 H 0.95903 0.56547 0.10821 0.0
H1894 H 0.97252 0.53838 0.17553 0.0
H1895 H 0.97067 0.55353 0.15548 0.0
C1896 C 0.41093 0.41454 0.04237 0.0
C1897 C 0.40375 0.39843 0.03777 0.0
C1898 C 0.4205 0.42049 0.0555 0.0
C1899 C 0.44108 0.41034 0.08465 0.0
H1900 H 0.4381 0.4423 0.10862 0.0
C1901 C 0.45924 0.42566 0.14778 0.0
C1902 C 0.4676 0.44179 0.15264 0.0
C1903 C 0.45338 0.42091 0.13298 0.0
C1904 C 0.43919 0.43351 0.10196 0.0
H1905 H 0.4011 0.37593 0.0431 0.0
H1906 H 0.41727 0.38611 0.06631 0.0
H1907 H 0.42407 0.43298 0.08433 0.0
H1908 H 0.47708 0.46557 0.14544 0.0
H1909 H 0.4664 0.4572 0.11976 0.0
H1910 H 0.45569 0.41047 0.1028 0.0
C1911 C 0.41592 0.39431 0.05964 0.0
C1912 C 0.43121 0.42819 0.08798 0.0
C1913 C 0.40656 0.38842 0.04637 0.0
C1914 C 0.47039 0.45305 0.1422 0.0
C1915 C 0.46435 0.44828 0.12747 0.0
C1916 C 0.44889 0.4155 0.09877 0.0
C1917 C 0.42289 0.4104 0.06449 0.0
C1918 C 0.43198 0.41649 0.07913 0.0
C1919 C 0.4556 0.43217 0.12278 0.0
C1920 C 0.44797 0.42711 0.10756 0.0
H1921 H 0.40909 0.42255 0.03587 0.0
H1922 H 0.42594 0.433 0.05865 0.0
H1923 H 0.44219 0.40152 0.07809 0.0
H1924 H 0.45668 0.41665 0.15551 0.0
H1925 H 0.44655 0.4084 0.12966 0.0
C1926 C 0.64228 0.71117 0.38654 0.0
C1927 C 0.6569 0.71942 0.3807 0.0
C1928 C 0.63826 0.71834 0.39787 0.0
C1929 C 0.6486 0.75731 0.41559 0.0
H1930 H 0.63131 0.73422 0.45037 0.0
C1931 C 0.65166 0.78805 0.47228 0.0
C1932 C 0.63946 0.78046 0.48165 0.0
C1933 C 0.65161 0.78055 0.45878 0.0
C1934 C 0.63584 0.74075 0.44063 0.0
H1935 H 0.67868 0.74168 0.38197 0.0
H1936 H 0.67168 0.75416 0.4017 0.0
H1937 H 0.63524 0.721 0.42893 0.0
H1938 H 0.61737 0.75923 0.48393 0.0
H1939 H 0.61714 0.74623 0.46016 0.0
H1940 H 0.64943 0.77713 0.42735 0.0
C1941 C 0.66328 0.74221 0.39748 0.0
C1942 C 0.63812 0.73317 0.42835 0.0
C1943 C 0.66733 0.73502 0.38626 0.0
C1944 C 0.6269 0.76543 0.47692 0.0
C1945 C 0.62685 0.75792 0.46338 0.0
C1946 C 0.64626 0.76487 0.42783 0.0
C1947 C 0.64873 0.73394 0.40346 0.0
C1948 C 0.64483 0.74147 0.41583 0.0
C1949 C 0.63935 0.76528 0.45428 0.0
C1950 C 0.64016 0.75678 0.44063 0.0
H1951 H 0.634 0.69914 0.38245 0.0
H1952 H 0.62693 0.71171 0.40221 0.0
H1953 H 0.65354 0.76393 0.40598 0.0
H1954 H 0.66141 0.79971 0.47553 0.0
H1955 H 0.6615 0.78652 0.45213 0.0
C1956 C 0.27306 0.90876 0.422 0.0
C1957 C 0.27279 0.92279 0.42054 0.0
C1958 C 0.26572 0.89912 0.43355 0.0
C1959 C 0.23656 0.89236 0.4613 0.0
H1960 H 0.25242 0.86768 0.47936 0.0
C1961 C 0.2153 0.86191 0.51567 0.0
C1962 C 0.20883 0.8454 0.51432 0.0
C1963 C 0.22393 0.87124 0.50449 0.0
C1964 C 0.24789 0.87451 0.47435 0.0
H1965 H 0.26524 0.93812 0.43025 0.0
H1966 H 0.2532 0.92188 0.45075 0.0
H1967 H 0.26604 0.88449 0.45943 0.0
H1968 H 0.20693 0.82592 0.50021 0.0
H1969 H 0.22261 0.84243 0.48102 0.0
H1970 H 0.21877 0.88277 0.47667 0.0
C1971 C 0.25841 0.91782 0.44271 0.0
C1972 C 0.2556 0.88406 0.46287 0.0
C1973 C 0.26544 0.92724 0.43101 0.0
C1974 C 0.21186 0.83859 0.50179 0.0
C1975 C 0.22078 0.84799 0.49074 0.0
C1976 C 0.22909 0.8831 0.47295 0.0
C1977 C 0.25823 0.90349 0.44404 0.0
C1978 C 0.25005 0.89315 0.45619 0.0
C1979 C 0.22659 0.86434 0.49187 0.0
C1980 C 0.23469 0.87411 0.47957 0.0
H1981 H 0.27861 0.90505 0.41401 0.0
H1982 H 0.26567 0.8881 0.43404 0.0
H1983 H 0.23162 0.89878 0.45623 0.0
H1984 H 0.2136 0.86767 0.52531 0.0
H1985 H 0.22847 0.88387 0.50565 0.0
C1986 C 0.0886 0.35244 0.39351 0.0
C1987 C 0.08367 0.33846 0.38456 0.0
C1988 C 0.09753 0.35543 0.40686 0.0
C1989 C 0.1055 0.33427 0.43533 0.0
H1990 H 0.1395 0.37581 0.44917 0.0
C1991 C 0.14156 0.3433 0.48959 0.0
C1992 C 0.14481 0.35634 0.49925 0.0
C1993 C 0.13576 0.34201 0.47496 0.0
C1994 C 0.12995 0.36417 0.44549 0.0
H1995 H 0.08467 0.31693 0.38227 0.0
H1996 H 0.10034 0.32219 0.40546 0.0
H1997 H 0.12625 0.37191 0.42464 0.0
H1998 H 0.14505 0.37853 0.50107 0.0
H1999 H 0.13472 0.37621 0.47549 0.0
H2000 H 0.10894 0.32651 0.45615 0.0
C2001 C 0.09712 0.33073 0.40231 0.0
C2002 C 0.12238 0.36194 0.43146 0.0
C2003 C 0.08821 0.32775 0.38899 0.0
C2004 C 0.14272 0.36839 0.49382 0.0
C2005 C 0.13683 0.36707 0.47917 0.0
C2006 C 0.11303 0.33649 0.44932 0.0
C2007 C 0.10168 0.34448 0.41152 0.0
C2008 C 0.11007 0.34695 0.42623 0.0
C2009 C 0.13299 0.35369 0.46967 0.0
C2010 C 0.12534 0.35145 0.45458 0.0
H2011 H 0.08528 0.36091 0.39037 0.0
H2012 H 0.10075 0.36606 0.41376 0.0
H2013 H 0.09585 0.32265 0.43177 0.0
H2014 H 0.14335 0.33398 0.4934 0.0
H2015 H 0.13328 0.33174 0.46783 0.0
C2016 C 0.08492 0.32484 0.30612 0.0
C2017 C 0.06957 0.31474 0.30964 0.0
C2018 C 0.09041 0.3218 0.29316 0.0
C2019 C 0.07734 0.3012 0.25586 0.0
H2020 H 0.11984 0.31034 0.25595 0.0
C2021 C 0.1049 0.29209 0.20339 0.0
C2022 C 0.11974 0.3047 0.20104 0.0
C2023 C 0.09801 0.2918 0.21669 0.0
C2024 C 0.10797 0.3078 0.25574 0.0
H2025 H 0.04799 0.2934 0.30245 0.0
H2026 H 0.05767 0.28797 0.27974 0.0
H2027 H 0.1092 0.31208 0.27932 0.0
H2028 H 0.13906 0.32676 0.21085 0.0
H2029 H 0.12703 0.32632 0.23392 0.0
H2030 H 0.07623 0.29704 0.23218 0.0
C2031 C 0.06539 0.29834 0.28698 0.0
C2032 C 0.10187 0.30881 0.26912 0.0
C2033 C 0.05987 0.30139 0.30001 0.0
C2034 C 0.12753 0.31699 0.21224 0.0
C2035 C 0.12072 0.31664 0.22553 0.0
C2036 C 0.08344 0.30012 0.24244 0.0
C2037 C 0.08072 0.30856 0.28338 0.0
C2038 C 0.08659 0.30586 0.26932 0.0
C2039 C 0.10593 0.30401 0.22795 0.0
C2040 C 0.09893 0.30374 0.24222 0.0
H2041 H 0.09266 0.33526 0.31329 0.0
H2042 H 0.10219 0.33008 0.29062 0.0
H2043 H 0.06557 0.29898 0.2556 0.0
H2044 H 0.09861 0.28248 0.19493 0.0
H2045 H 0.08662 0.28189 0.21828 0.0
C2046 C 0.69575 0.73389 0.3055 0.0
C2047 C 0.68269 0.73007 0.31353 0.0
C2048 C 0.6996 0.74426 0.29412 0.0
C2049 C 0.69345 0.77573 0.28045 0.0
H2050 H 0.70327 0.7646 0.24227 0.0
C2051 C 0.70865 0.81663 0.23222 0.0
C2052 C 0.70082 0.80921 0.21838 0.0
C2053 C 0.70852 0.80764 0.24389 0.0
C2054 C 0.70055 0.76787 0.25287 0.0
H2055 H 0.6635 0.73417 0.31605 0.0
H2056 H 0.6702 0.75221 0.29627 0.0
H2057 H 0.69886 0.74765 0.26282 0.0
H2058 H 0.68729 0.78662 0.20573 0.0
H2059 H 0.6869 0.77092 0.22617 0.0
H2060 H 0.69468 0.79566 0.27045 0.0
C2061 C 0.67755 0.74732 0.2988 0.0
C2062 C 0.69818 0.75824 0.26467 0.0
C2063 C 0.67365 0.7369 0.31007 0.0
C2064 C 0.69329 0.79266 0.21632 0.0
C2065 C 0.69321 0.78368 0.22798 0.0
C2066 C 0.6959 0.78538 0.2687 0.0
C2067 C 0.69054 0.7511 0.29068 0.0
C2068 C 0.69434 0.76194 0.27851 0.0
C2069 C 0.70061 0.79106 0.24197 0.0
C2070 C 0.69926 0.78144 0.25472 0.0
H2071 H 0.70293 0.7288 0.30794 0.0
H2072 H 0.70973 0.74704 0.2881 0.0
H2073 H 0.69068 0.77898 0.29103 0.0
H2074 H 0.71446 0.82935 0.23419 0.0
H2075 H 0.71446 0.81368 0.2545 0.0
C2076 C 0.26221 0.94988 0.33915 0.0
C2077 C 0.26184 0.93853 0.34836 0.0
C2078 C 0.25305 0.94522 0.32575 0.0
C2079 C 0.21999 0.91033 0.30432 0.0
H2080 H 0.23961 0.93359 0.27027 0.0
C2081 C 0.20084 0.88478 0.24345 0.0
C2082 C 0.20062 0.89476 0.23284 0.0
C2083 C 0.20647 0.89064 0.25812 0.0
C2084 C 0.23388 0.92711 0.2797 0.0
H2085 H 0.25136 0.91342 0.35097 0.0
H2086 H 0.23574 0.90526 0.32747 0.0
H2087 H 0.25289 0.94296 0.29491 0.0
H2088 H 0.20583 0.91858 0.22928 0.0
H2089 H 0.21582 0.92889 0.25496 0.0
H2090 H 0.20124 0.89413 0.28888 0.0
C2091 C 0.2428 0.91777 0.33066 0.0
C2092 C 0.24147 0.9325 0.29387 0.0
C2093 C 0.25185 0.92244 0.34411 0.0
C2094 C 0.2058 0.91062 0.23726 0.0
C2095 C 0.21161 0.91653 0.2519 0.0
C2096 C 0.21247 0.90487 0.29013 0.0
C2097 C 0.24342 0.9291 0.32121 0.0
C2098 C 0.23472 0.92406 0.30634 0.0
C2099 C 0.21215 0.90664 0.26244 0.0
C2100 C 0.21943 0.9131 0.27765 0.0
H2101 H 0.26973 0.96237 0.3422 0.0
H2102 H 0.25362 0.95427 0.31889 0.0
H2103 H 0.2143 0.9037 0.3137 0.0
H2104 H 0.1968 0.87247 0.24035 0.0
H2105 H 0.20687 0.88277 0.26596 0.0
C2106 C 0.66585 0.93084 0.33044 0.0
C2107 C 0.67737 0.94377 0.33946 0.0
C2108 C 0.66986 0.92313 0.31972 0.0
C2109 C 0.70194 0.92877 0.29708 0.0
H2110 H 0.67562 0.88352 0.28855 0.0
C2111 C 0.71187 0.8933 0.24977 0.0
C2112 C 0.69856 0.88382 0.24018 0.0
C2113 C 0.71078 0.90011 0.26329 0.0
C2114 C 0.6831 0.89615 0.29084 0.0
H2115 H 0.70215 0.95868 0.34447 0.0
H2116 H 0.70921 0.94504 0.32579 0.0
H2117 H 0.67112 0.89642 0.30986 0.0
H2118 H 0.67369 0.87439 0.23733 0.0
H2119 H 0.67179 0.8858 0.26095 0.0
H2120 H 0.7138 0.92841 0.27788 0.0
C2121 C 0.69706 0.941 0.3269 0.0
C2122 C 0.68049 0.90357 0.30299 0.0
C2123 C 0.69302 0.94877 0.33763 0.0
C2124 C 0.68414 0.88121 0.24455 0.0
C2125 C 0.68304 0.88782 0.25809 0.0
C2126 C 0.70463 0.9213 0.28496 0.0
C2127 C 0.68551 0.92809 0.3178 0.0
C2128 C 0.68958 0.92003 0.30601 0.0
C2129 C 0.69633 0.89741 0.26755 0.0
C2130 C 0.69496 0.90499 0.28151 0.0
H2131 H 0.65368 0.92675 0.33153 0.0
H2132 H 0.66066 0.91346 0.31272 0.0
H2133 H 0.7091 0.94147 0.29901 0.0
H2134 H 0.72314 0.89545 0.24685 0.0
H2135 H 0.7212 0.90743 0.27043 0.0
C2136 C 0.07427 0.76235 0.30506 0.0
C2137 C 0.0581 0.75237 0.30431 0.0
C2138 C 0.0813 0.77309 0.29426 0.0
C2139 C 0.0758 0.77872 0.25533 0.0
H2140 H 0.11055 0.82097 0.26535 0.0
C2141 C 0.11048 0.81993 0.20996 0.0
C2142 C 0.1267 0.82808 0.21262 0.0
C2143 C 0.10085 0.81212 0.2213 0.0
C2144 C 0.10092 0.80917 0.26235 0.0
H2145 H 0.03655 0.74602 0.29186 0.0
H2146 H 0.04891 0.76475 0.27279 0.0
H2147 H 0.09591 0.80473 0.28511 0.0
H2148 H 0.14548 0.83493 0.22944 0.0
H2149 H 0.12879 0.82098 0.249 0.0
H2150 H 0.08115 0.78287 0.23263 0.0
C2151 C 0.05611 0.76423 0.28178 0.0
C2152 C 0.09251 0.79991 0.27368 0.0
C2153 C 0.04904 0.75358 0.29271 0.0
C2154 C 0.13304 0.82856 0.22695 0.0
C2155 C 0.12344 0.82074 0.23824 0.0
C2156 C 0.08428 0.78795 0.244 0.0
C2157 C 0.07232 0.77399 0.28238 0.0
C2158 C 0.08006 0.78447 0.2703 0.0
C2159 C 0.10722 0.8123 0.23554 0.0
C2160 C 0.09716 0.80317 0.2474 0.0
H2161 H 0.08154 0.76169 0.31388 0.0
H2162 H 0.09383 0.78032 0.29493 0.0
H2163 H 0.06635 0.76681 0.2524 0.0
H2164 H 0.10522 0.81926 0.19903 0.0
H2165 H 0.0884 0.80586 0.21888 0.0
C2166 C 0.24962 0.33821 0.32601 0.0
C2167 C 0.2488 0.32596 0.33414 0.0
C2168 C 0.24015 0.33482 0.31301 0.0
C2169 C 0.21769 0.30308 0.28349 0.0
H2170 H 0.203 0.33123 0.27225 0.0
C2171 C 0.18179 0.29431 0.22794 0.0
C2172 C 0.18753 0.30791 0.21988 0.0
C2173 C 0.18744 0.29528 0.24264 0.0
C2174 C 0.20703 0.32327 0.27525 0.0
H2175 H 0.23713 0.30054 0.33529 0.0
H2176 H 0.2203 0.29459 0.31268 0.0
H2177 H 0.21574 0.33499 0.2969 0.0
H2178 H 0.20401 0.33314 0.22097 0.0
H2179 H 0.21345 0.33484 0.24659 0.0
H2180 H 0.20897 0.29142 0.26173 0.0
C2181 C 0.22848 0.30683 0.31621 0.0
C2182 C 0.21438 0.32545 0.28935 0.0
C2183 C 0.23804 0.31023 0.3292 0.0
C2184 C 0.199 0.32248 0.2269 0.0
C2185 C 0.20448 0.32347 0.2416 0.0
C2186 C 0.21019 0.30081 0.26942 0.0
C2187 C 0.22953 0.31909 0.30787 0.0
C2188 C 0.22016 0.31563 0.29352 0.0
C2189 C 0.19879 0.3099 0.24961 0.0
C2190 C 0.20512 0.31112 0.26505 0.0
H2191 H 0.25785 0.35045 0.3295 0.0
H2192 H 0.24151 0.34457 0.30676 0.0
H2193 H 0.22212 0.29539 0.28625 0.0
H2194 H 0.17283 0.28292 0.22297 0.0
H2195 H 0.18281 0.28465 0.24861 0.0
C2196 C 0.25186 0.33399 0.41492 0.0
C2197 C 0.26254 0.34675 0.40724 0.0
C2198 C 0.24693 0.33662 0.42844 0.0
C2199 C 0.24135 0.36473 0.45086 0.0
H2200 H 0.24298 0.34127 0.48376 0.0
C2201 C 0.22129 0.37157 0.5087 0.0
C2202 C 0.21279 0.35762 0.51601 0.0
C2203 C 0.22894 0.37161 0.49601 0.0
C2204 C 0.24227 0.34779 0.47467 0.0
H2205 H 0.27611 0.37229 0.40746 0.0
H2206 H 0.26711 0.3769 0.43108 0.0
H2207 H 0.2528 0.33867 0.46015 0.0
H2208 H 0.20616 0.33291 0.51593 0.0
H2209 H 0.21886 0.3328 0.49361 0.0
H2210 H 0.23025 0.37338 0.46512 0.0
C2211 C 0.26272 0.36488 0.42662 0.0
C2212 C 0.24797 0.34635 0.46117 0.0
C2213 C 0.26787 0.36224 0.41316 0.0
C2214 C 0.21238 0.34381 0.51048 0.0
C2215 C 0.2199 0.34382 0.49776 0.0
C2216 C 0.23544 0.36602 0.46433 0.0
C2217 C 0.25239 0.35207 0.43449 0.0
C2218 C 0.24737 0.35461 0.44907 0.0
C2219 C 0.22821 0.35769 0.49028 0.0
C2220 C 0.23561 0.35737 0.47634 0.0
H2221 H 0.24755 0.32192 0.41066 0.0
H2222 H 0.23881 0.32654 0.43419 0.0
H2223 H 0.24069 0.37117 0.44166 0.0
H2224 H 0.22175 0.3824 0.51255 0.0
H2225 H 0.23538 0.38256 0.49067 0.0
C2226 C 0.63922 0.92631 0.40888 0.0
C2227 C 0.65449 0.93752 0.406 0.0
C2228 C 0.63636 0.91675 0.42082 0.0
C2229 C 0.6537 0.91501 0.45681 0.0
H2230 H 0.62731 0.86956 0.45031 0.0
C2231 C 0.65537 0.87285 0.49803 0.0
C2232 C 0.6416 0.85883 0.50038 0.0
C2233 C 0.65564 0.8826 0.48708 0.0
C2234 C 0.63449 0.88224 0.45241 0.0
H2235 H 0.67872 0.94762 0.41339 0.0
H2236 H 0.67373 0.93109 0.43427 0.0
H2237 H 0.62998 0.88638 0.43009 0.0
H2238 H 0.61724 0.84417 0.49312 0.0
H2239 H 0.61761 0.86146 0.47427 0.0
H2240 H 0.65825 0.91101 0.47907 0.0
C2241 C 0.66397 0.92969 0.42734 0.0
C2242 C 0.63604 0.89186 0.44081 0.0
C2243 C 0.66683 0.93908 0.41533 0.0
C2244 C 0.62802 0.85495 0.49168 0.0
C2245 C 0.62828 0.86477 0.48075 0.0
C2246 C 0.65206 0.90544 0.46843 0.0
C2247 C 0.64872 0.91841 0.4302 0.0
C2248 C 0.6459 0.90831 0.44282 0.0
C2249 C 0.64212 0.87868 0.47827 0.0
C2250 C 0.64269 0.88891 0.46629 0.0
H2251 H 0.62949 0.92485 0.40186 0.0
H2252 H 0.6245 0.90818 0.42283 0.0
H2253 H 0.66119 0.92769 0.45873 0.0
H2254 H 0.66599 0.87634 0.50467 0.0
H2255 H 0.66657 0.89309 0.48536 0.0
C2256 C 0.06626 0.74434 0.38322 0.0
C2257 C 0.06707 0.73355 0.37312 0.0
C2258 C 0.07555 0.74965 0.39652 0.0
C2259 C 0.09817 0.73948 0.42258 0.0
H2260 H 0.1143 0.78262 0.43848 0.0
C2261 C 0.1374 0.76641 0.4776 0.0
C2262 C 0.13259 0.77435 0.48745 0.0
C2263 C 0.1307 0.76165 0.46301 0.0
C2264 C 0.10985 0.77054 0.43418 0.0
H2265 H 0.07834 0.71997 0.36893 0.0
H2266 H 0.09483 0.72949 0.39207 0.0
H2267 H 0.10044 0.77408 0.41401 0.0
H2268 H 0.11654 0.78298 0.48973 0.0
H2269 H 0.10527 0.7751 0.46432 0.0
H2270 H 0.10767 0.73605 0.44286 0.0
C2271 C 0.08682 0.73365 0.38983 0.0
C2272 C 0.10185 0.76561 0.42019 0.0
C2273 C 0.07744 0.72826 0.37654 0.0
C2274 C 0.12088 0.77732 0.48237 0.0
C2275 C 0.11435 0.77274 0.46781 0.0
C2276 C 0.10631 0.74448 0.43655 0.0
C2277 C 0.08596 0.74439 0.4 0.0
C2278 C 0.09562 0.74993 0.41434 0.0
C2279 C 0.11918 0.76489 0.45798 0.0
C2280 C 0.11195 0.75996 0.44259 0.0
H2281 H 0.05831 0.74856 0.38093 0.0
H2282 H 0.07434 0.75767 0.4042 0.0
H2283 H 0.09341 0.72729 0.41849 0.0
H2284 H 0.14647 0.76404 0.48108 0.0
H2285 H 0.13466 0.75565 0.45561 0.0
C2286 C 0.33842 0.06746 0.72198 0.0
C2287 C 0.32623 0.05616 0.7122 0.0
C2288 C 0.33553 0.07538 0.73347 0.0
C2289 C 0.30404 0.07261 0.7558 0.0
H2290 H 0.33532 0.1157 0.76881 0.0
C2291 C 0.2978 0.10987 0.80422 0.0
C2292 C 0.31021 0.11609 0.8152 0.0
C2293 C 0.29875 0.10311 0.79062 0.0
C2294 C 0.32647 0.10368 0.76525 0.0
H2295 H 0.30149 0.04446 0.70657 0.0
H2296 H 0.29646 0.05865 0.72642 0.0
H2297 H 0.33868 0.10309 0.74656 0.0
H2298 H 0.33318 0.11961 0.82046 0.0
H2299 H 0.33498 0.10845 0.79659 0.0
H2300 H 0.29183 0.0734 0.77457 0.0
C2301 C 0.30822 0.06114 0.72543 0.0
C2302 C 0.32842 0.0964 0.75257 0.0
C2303 C 0.3111 0.05307 0.71401 0.0
C2304 C 0.32356 0.1154 0.81218 0.0
C2305 C 0.32459 0.1089 0.79853 0.0
C2306 C 0.30199 0.08 0.76839 0.0
C2307 C 0.3204 0.07237 0.73535 0.0
C2308 C 0.31744 0.08062 0.7479 0.0
C2309 C 0.3122 0.10267 0.78765 0.0
C2310 C 0.31338 0.09547 0.7734 0.0
H2311 H 0.3502 0.07001 0.72092 0.0
H2312 H 0.34517 0.08365 0.74106 0.0
H2313 H 0.29541 0.06041 0.75265 0.0
H2314 H 0.28742 0.11036 0.80606 0.0
H2315 H 0.28906 0.0984 0.78235 0.0
C2316 C 0.94227 0.23734 0.74961 0.0
C2317 C 0.94236 0.2517 0.74961 0.0
C2318 C 0.9358 0.22731 0.76113 0.0
C2319 C 0.9264 0.22687 0.79994 0.0
H2320 H 0.8928 0.18404 0.78985 0.0
C2321 C 0.88356 0.19058 0.84267 0.0
C2322 C 0.87678 0.17405 0.84181 0.0
C2323 C 0.89316 0.19953 0.83182 0.0
C2324 C 0.90238 0.19583 0.79293 0.0
H2325 H 0.93617 0.26702 0.76175 0.0
H2326 H 0.92526 0.24972 0.78197 0.0
H2327 H 0.90711 0.2006 0.77013 0.0
H2328 H 0.87514 0.15405 0.82888 0.0
H2329 H 0.89244 0.16974 0.81033 0.0
H2330 H 0.92187 0.22223 0.82268 0.0
C2331 C 0.93005 0.24616 0.77306 0.0
C2332 C 0.91053 0.20532 0.78159 0.0
C2333 C 0.93621 0.256 0.76144 0.0
C2334 C 0.88025 0.16676 0.83001 0.0
C2335 C 0.89002 0.17576 0.81922 0.0
C2336 C 0.91844 0.21733 0.81128 0.0
C2337 C 0.92967 0.23168 0.77296 0.0
C2338 C 0.92236 0.22103 0.78499 0.0
C2339 C 0.89646 0.19225 0.81988 0.0
C2340 C 0.90604 0.20181 0.80792 0.0
H2341 H 0.94691 0.23374 0.74059 0.0
H2342 H 0.93564 0.21619 0.76084 0.0
H2343 H 0.93562 0.23891 0.80283 0.0
H2344 H 0.88139 0.19665 0.85172 0.0
H2345 H 0.89769 0.21216 0.83264 0.0
C2346 C 0.75863 0.68974 0.72316 0.0
C2347 C 0.75242 0.67488 0.71542 0.0
C2348 C 0.76755 0.69319 0.73656 0.0
C2349 C 0.78949 0.68035 0.76046 0.0
H2350 H 0.77691 0.69798 0.79262 0.0
C2351 C 0.79203 0.68363 0.82818 0.0
C2352 C 0.80784 0.68944 0.83187 0.0
C2353 C 0.78678 0.68343 0.81357 0.0
C2354 C 0.78057 0.69308 0.78374 0.0
H2355 H 0.75129 0.65223 0.71524 0.0
H2356 H 0.76687 0.65825 0.73869 0.0
H2357 H 0.76552 0.69482 0.76743 0.0
H2358 H 0.83056 0.69958 0.82319 0.0
H2359 H 0.82132 0.69913 0.79748 0.0
H2360 H 0.80426 0.67825 0.77696 0.0
C2361 C 0.76489 0.66726 0.73437 0.0
C2362 C 0.77417 0.69141 0.76929 0.0
C2363 C 0.75591 0.66379 0.72098 0.0
C2364 C 0.81832 0.69512 0.82065 0.0
C2365 C 0.81303 0.69476 0.80596 0.0
C2366 C 0.796 0.68214 0.77494 0.0
C2367 C 0.77051 0.68187 0.74247 0.0
C2368 C 0.77838 0.68482 0.75753 0.0
C2369 C 0.7972 0.68892 0.80229 0.0
C2370 C 0.79139 0.68827 0.78675 0.0
H2371 H 0.75621 0.69856 0.71911 0.0
H2372 H 0.77191 0.70463 0.74245 0.0
H2373 H 0.79304 0.67534 0.75159 0.0
H2374 H 0.78372 0.67931 0.83664 0.0
H2375 H 0.77449 0.67871 0.81106 0.0
C2376 C 0.72703 0.63685 0.63339 0.0
C2377 C 0.7356 0.6514 0.64178 0.0
C2378 C 0.73198 0.63441 0.61972 0.0
C2379 C 0.75631 0.65687 0.58988 0.0
H2380 H 0.75619 0.61832 0.57838 0.0
C2381 C 0.7909 0.65348 0.54212 0.0
C2382 C 0.78415 0.63981 0.53237 0.0
C2383 C 0.78375 0.65406 0.55492 0.0
C2384 C 0.75608 0.62906 0.58135 0.0
H2385 H 0.75631 0.67459 0.64269 0.0
H2386 H 0.76499 0.67029 0.61907 0.0
H2387 H 0.74603 0.62065 0.60201 0.0
H2388 H 0.76447 0.61602 0.52841 0.0
H2389 H 0.75197 0.61703 0.55089 0.0
H2390 H 0.76648 0.66538 0.56939 0.0
C2391 C 0.7543 0.66086 0.62285 0.0
C2392 C 0.75028 0.6304 0.59488 0.0
C2393 C 0.74938 0.66328 0.63645 0.0
C2394 C 0.77004 0.62669 0.53576 0.0
C2395 C 0.76288 0.62726 0.54862 0.0
C2396 C 0.76208 0.65554 0.57641 0.0
C2397 C 0.74556 0.6465 0.61421 0.0
C2398 C 0.7506 0.64444 0.59941 0.0
C2399 C 0.76967 0.64098 0.55833 0.0
C2400 C 0.76231 0.64174 0.5721 0.0
H2401 H 0.71635 0.62748 0.63723 0.0
H2402 H 0.72498 0.62323 0.6133 0.0
H2403 H 0.75638 0.6677 0.59289 0.0
H2404 H 0.80194 0.66366 0.54007 0.0
H2405 H 0.78945 0.66469 0.56231 0.0
C2406 C 0.33339 0.06483 0.63916 0.0
C2407 C 0.3447 0.06129 0.64407 0.0
C2408 C 0.33583 0.07425 0.62724 0.0
C2409 C 0.36632 0.10375 0.60542 0.0
H2410 H 0.33149 0.09237 0.57715 0.0
C2411 C 0.37109 0.13697 0.55216 0.0
C2412 C 0.3592 0.14037 0.54927 0.0
C2413 C 0.37 0.12708 0.56337 0.0
C2414 C 0.3413 0.09576 0.585 0.0
H2415 H 0.36752 0.0649 0.64044 0.0
H2416 H 0.37176 0.08129 0.61941 0.0
H2417 H 0.32842 0.07547 0.59728 0.0
H2418 H 0.33708 0.13645 0.55626 0.0
H2419 H 0.33511 0.11912 0.5756 0.0
H2420 H 0.37916 0.12411 0.59305 0.0
C2421 C 0.36105 0.07689 0.62491 0.0
C2422 C 0.33954 0.08609 0.59656 0.0
C2423 C 0.3586 0.06746 0.63689 0.0
C2424 C 0.34628 0.13379 0.55794 0.0
C2425 C 0.34516 0.12387 0.56905 0.0
C2426 C 0.36809 0.11342 0.59379 0.0
C2427 C 0.34963 0.0803 0.61989 0.0
C2428 C 0.35194 0.0901 0.60705 0.0
C2429 C 0.35696 0.12034 0.57185 0.0
C2430 C 0.35552 0.10964 0.58361 0.0
H2431 H 0.32259 0.06033 0.64453 0.0
H2432 H 0.32692 0.07689 0.62387 0.0
H2433 H 0.37606 0.10724 0.61339 0.0
H2434 H 0.38113 0.14173 0.5456 0.0
H2435 H 0.37922 0.12448 0.56522 0.0
C2436 C 0.92078 0.26847 0.67226 0.0
C2437 C 0.92621 0.25986 0.67995 0.0
C2438 C 0.91147 0.26202 0.65901 0.0
C2439 C 0.90307 0.23223 0.62837 0.0
H2440 H 0.87052 0.24071 0.61618 0.0
C2441 C 0.86799 0.20667 0.57224 0.0
C2442 C 0.86628 0.21737 0.56363 0.0
C2443 C 0.87328 0.21063 0.58721 0.0
C2444 C 0.87963 0.23831 0.61943 0.0
H2445 H 0.92551 0.23745 0.68025 0.0
H2446 H 0.909 0.22604 0.6573 0.0
H2447 H 0.88322 0.24961 0.64123 0.0
H2448 H 0.86832 0.24044 0.56413 0.0
H2449 H 0.87758 0.24737 0.59033 0.0
H2450 H 0.89964 0.2211 0.60658 0.0
C2451 C 0.91222 0.23793 0.66129 0.0
C2452 C 0.88691 0.24341 0.63376 0.0
C2453 C 0.92161 0.24442 0.67449 0.0
C2454 C 0.8694 0.23189 0.57049 0.0
C2455 C 0.87469 0.23586 0.5855 0.0
C2456 C 0.89576 0.22708 0.61411 0.0
C2457 C 0.90733 0.24678 0.65321 0.0
C2458 C 0.89882 0.24054 0.63836 0.0
C2459 C 0.87698 0.22538 0.59394 0.0
C2460 C 0.88405 0.23017 0.60942 0.0
H2461 H 0.92417 0.28042 0.6762 0.0
H2462 H 0.90806 0.26923 0.65301 0.0
H2463 H 0.91241 0.23009 0.6314 0.0
H2464 H 0.86536 0.19525 0.56736 0.0
H2465 H 0.87464 0.20219 0.59349 0.0
C2466 C 0.33302 0.26253 0.66631 0.0
C2467 C 0.34247 0.27882 0.66991 0.0
C2468 C 0.33681 0.25502 0.65515 0.0
C2469 C 0.36899 0.26064 0.63171 0.0
H2470 H 0.33518 0.2267 0.60679 0.0
C2471 C 0.37483 0.23646 0.5739 0.0
C2472 C 0.36683 0.21992 0.57112 0.0
C2473 C 0.37319 0.24333 0.58708 0.0
C2474 C 0.34473 0.23604 0.61377 0.0
H2475 H 0.36328 0.30008 0.66473 0.0
H2476 H 0.36958 0.28717 0.64478 0.0
H2477 H 0.32947 0.2395 0.62721 0.0
H2478 H 0.35157 0.19767 0.58052 0.0
H2479 H 0.34833 0.20974 0.60328 0.0
H2480 H 0.3842 0.25751 0.61762 0.0
C2481 C 0.35949 0.28002 0.65084 0.0
C2482 C 0.34148 0.24337 0.62554 0.0
C2483 C 0.35583 0.28748 0.6622 0.0
C2484 C 0.35764 0.21044 0.58212 0.0
C2485 C 0.35583 0.21732 0.59519 0.0
C2486 C 0.37223 0.25347 0.61975 0.0
C2487 C 0.34999 0.26369 0.64711 0.0
C2488 C 0.35356 0.25577 0.6347 0.0
C2489 C 0.36336 0.23382 0.59766 0.0
C2490 C 0.36012 0.24109 0.61069 0.0
H2491 H 0.32274 0.25553 0.6722 0.0
H2492 H 0.32941 0.24239 0.65289 0.0
H2493 H 0.37861 0.26994 0.63864 0.0
H2494 H 0.3818 0.24417 0.56562 0.0
H2495 H 0.37902 0.25609 0.58868 0.0
C2496 C 0.71693 0.08377 0.62307 0.0
C2497 C 0.72611 0.08171 0.63392 0.0
C2498 C 0.72388 0.09422 0.61195 0.0
C2499 C 0.7607 0.12862 0.603 0.0
H2500 H 0.74729 0.11271 0.56184 0.0
C2501 C 0.79998 0.15704 0.55548 0.0
C2502 C 0.7934 0.1573 0.54152 0.0
C2503 C 0.79058 0.14915 0.56687 0.0
C2504 C 0.751 0.11749 0.57326 0.0
H2505 H 0.74969 0.08919 0.64188 0.0
H2506 H 0.76178 0.10751 0.62266 0.0
H2507 H 0.73274 0.09658 0.58174 0.0
H2508 H 0.77174 0.14973 0.52868 0.0
H2509 H 0.75527 0.13623 0.54873 0.0
H2510 H 0.77901 0.14944 0.59464 0.0
C2511 C 0.74925 0.10109 0.62271 0.0
C2512 C 0.74267 0.10822 0.58465 0.0
C2513 C 0.74232 0.09052 0.63366 0.0
C2514 C 0.77717 0.14982 0.53933 0.0
C2515 C 0.76773 0.14194 0.55078 0.0
C2516 C 0.76894 0.13793 0.59164 0.0
C2517 C 0.74012 0.10295 0.61167 0.0
C2518 C 0.74768 0.11354 0.59962 0.0
C2519 C 0.77433 0.14141 0.56465 0.0
C2520 C 0.76445 0.13231 0.57663 0.0
H2521 H 0.7044 0.07709 0.62301 0.0
H2522 H 0.71659 0.09548 0.60359 0.0
H2523 H 0.76467 0.13311 0.61445 0.0
H2524 H 0.81244 0.1629 0.55763 0.0
H2525 H 0.79609 0.14882 0.57731 0.0
C2526 C 0.90304 0.64659 0.66247 0.0
C2527 C 0.91326 0.66215 0.66834 0.0
C2528 C 0.89434 0.64377 0.64899 0.0
C2529 C 0.89691 0.66227 0.61437 0.0
H2530 H 0.85303 0.63197 0.60685 0.0
C2531 C 0.86509 0.65836 0.5588 0.0
C2532 C 0.85361 0.64342 0.5525 0.0
C2533 C 0.8714 0.66015 0.5733 0.0
C2534 C 0.86534 0.64032 0.60871 0.0
H2535 H 0.92189 0.6869 0.66507 0.0
H2536 H 0.90684 0.68196 0.64151 0.0
H2537 H 0.86546 0.63585 0.63182 0.0
H2538 H 0.83962 0.61866 0.55674 0.0
H2539 H 0.85114 0.62169 0.58187 0.0
H2540 H 0.89711 0.6665 0.59135 0.0
C2541 C 0.90561 0.67197 0.64729 0.0
C2542 C 0.87241 0.64257 0.62302 0.0
C2543 C 0.91415 0.67478 0.66081 0.0
C2544 C 0.84857 0.63031 0.56115 0.0
C2545 C 0.85503 0.63209 0.57566 0.0
C2546 C 0.88994 0.65989 0.60008 0.0
C2547 C 0.89588 0.65647 0.6411 0.0
C2548 C 0.88822 0.65371 0.626 0.0
C2549 C 0.86662 0.64703 0.58187 0.0
C2550 C 0.87402 0.64903 0.59707 0.0
H2551 H 0.90212 0.63663 0.66806 0.0
H2552 H 0.88695 0.63171 0.64442 0.0
H2553 H 0.90921 0.6707 0.61629 0.0
H2554 H 0.86949 0.66871 0.55245 0.0
H2555 H 0.88008 0.6719 0.57777 0.0
C2556 C 0.93342 0.69796 0.74551 0.0
C2557 C 0.92921 0.68244 0.74066 0.0
C2558 C 0.92862 0.70099 0.75903 0.0
C2559 C 0.91699 0.68468 0.79515 0.0
H2560 H 0.89537 0.70811 0.7976 0.0
C2561 C 0.88037 0.68033 0.844 0.0
C2562 C 0.87941 0.69355 0.84896 0.0
C2563 C 0.88824 0.68074 0.83144 0.0
C2564 C 0.90166 0.70181 0.79721 0.0
H2565 H 0.91661 0.65793 0.74607 0.0
H2566 H 0.90846 0.66325 0.76964 0.0
H2567 H 0.90582 0.70579 0.77418 0.0
H2568 H 0.88632 0.71773 0.84471 0.0
H2569 H 0.9005 0.71861 0.82301 0.0
H2570 H 0.91295 0.68067 0.81807 0.0
C2571 C 0.91545 0.67306 0.76304 0.0
C2572 C 0.90759 0.70045 0.78377 0.0
C2573 C 0.92004 0.67002 0.74949 0.0
C2574 C 0.88693 0.70737 0.84127 0.0
C2575 C 0.89489 0.70781 0.82871 0.0
C2576 C 0.91124 0.68618 0.80859 0.0
C2577 C 0.91977 0.68857 0.768 0.0
C2578 C 0.91497 0.69155 0.78254 0.0
C2579 C 0.89551 0.69443 0.82355 0.0
C2580 C 0.90315 0.69441 0.80971 0.0
H2581 H 0.94049 0.70775 0.73891 0.0
H2582 H 0.9321 0.71305 0.76263 0.0
H2583 H 0.92288 0.67798 0.79455 0.0
H2584 H 0.87491 0.66956 0.84978 0.0
H2585 H 0.88826 0.67013 0.82771 0.0
C2586 C 0.32637 0.26056 0.73795 0.0
C2587 C 0.31803 0.2684 0.73584 0.0
C2588 C 0.32246 0.24965 0.74876 0.0
C2589 C 0.3046 0.23914 0.78411 0.0
H2590 H 0.30319 0.1995 0.77486 0.0
C2591 C 0.29311 0.19427 0.8286 0.0
C2592 C 0.30265 0.18755 0.82863 0.0
C2593 C 0.29279 0.20289 0.81675 0.0
C2594 C 0.30365 0.21056 0.77766 0.0
H2595 H 0.29908 0.27101 0.7434 0.0
H2596 H 0.29238 0.25201 0.76255 0.0
H2597 H 0.30692 0.21712 0.75517 0.0
H2598 H 0.31883 0.18411 0.81595 0.0
H2599 H 0.31864 0.19947 0.79561 0.0
H2600 H 0.30191 0.23289 0.80671 0.0
C2601 C 0.3019 0.25431 0.75576 0.0
C2602 C 0.30574 0.22062 0.76637 0.0
C2603 C 0.3057 0.26512 0.74479 0.0
C2604 C 0.31154 0.18934 0.8164 0.0
C2605 C 0.31126 0.19796 0.80461 0.0
C2606 C 0.30264 0.22913 0.79546 0.0
C2607 C 0.31023 0.24643 0.75781 0.0
C2608 C 0.30652 0.23514 0.76953 0.0
C2609 C 0.30198 0.20496 0.80467 0.0
C2610 C 0.30245 0.21485 0.79242 0.0
H2611 H 0.33593 0.26284 0.73122 0.0
H2612 H 0.32921 0.24391 0.75022 0.0
H2613 H 0.30527 0.25032 0.78687 0.0
H2614 H 0.28618 0.19318 0.8379 0.0
H2615 H 0.28539 0.20798 0.81709 0.0
C2616 C 0.75014 0.07682 0.70533 0.0
C2617 C 0.7387 0.06093 0.70205 0.0
C2618 C 0.75966 0.08147 0.71846 0.0
C2619 C 0.77243 0.06653 0.75007 0.0
H2620 H 0.7796 0.10536 0.77059 0.0
C2621 C 0.79362 0.0848 0.81244 0.0
C2622 C 0.80406 0.10091 0.81635 0.0
C2623 C 0.78733 0.07966 0.79779 0.0
C2624 C 0.77791 0.09461 0.76491 0.0
H2625 H 0.72854 0.03732 0.70969 0.0
H2626 H 0.74493 0.04547 0.73286 0.0
H2627 H 0.76542 0.09686 0.74637 0.0
H2628 H 0.81689 0.12406 0.80775 0.0
H2629 H 0.80587 0.11511 0.78223 0.0
H2630 H 0.78462 0.06417 0.76899 0.0
C2631 C 0.74674 0.05434 0.72517 0.0
C2632 C 0.76979 0.08973 0.75099 0.0
C2633 C 0.73729 0.04966 0.71193 0.0
C2634 C 0.80863 0.11163 0.80516 0.0
C2635 C 0.80234 0.1065 0.79054 0.0
C2636 C 0.7805 0.07139 0.7641 0.0
C2637 C 0.75785 0.07035 0.72872 0.0
C2638 C 0.76693 0.07563 0.74338 0.0
C2639 C 0.79134 0.09053 0.78676 0.0
C2640 C 0.78332 0.08549 0.77166 0.0
H2641 H 0.75159 0.08575 0.69784 0.0
H2642 H 0.76832 0.09384 0.72065 0.0
H2643 H 0.77059 0.05569 0.74446 0.0
H2644 H 0.78974 0.07627 0.82084 0.0
H2645 H 0.7788 0.0673 0.79524 0.0
C2646 C 0.02505 0.33974 0.04815 0.0
C2647 C 0.03131 0.35071 0.03725 0.0
C2648 C 0.03449 0.33595 0.05673 0.0
C2649 C 0.07186 0.33691 0.0574 0.0
H2650 H 0.06645 0.33251 0.09964 0.0
C2651 C 0.11563 0.33261 0.09744 0.0
C2652 C 0.10978 0.32184 0.10857 0.0
C2653 C 0.10579 0.33565 0.08863 0.0
C2654 C 0.06797 0.3335 0.08783 0.0
H2655 H 0.05234 0.36633 0.02678 0.0
H2656 H 0.06891 0.35983 0.0419 0.0
H2657 H 0.04999 0.33904 0.0845 0.0
H2658 H 0.08898 0.30572 0.11909 0.0
H2659 H 0.07168 0.31093 0.10354 0.0
H2660 H 0.08989 0.33145 0.06075 0.0
C2661 C 0.05666 0.35401 0.04368 0.0
C2662 C 0.05855 0.33725 0.07915 0.0
C2663 C 0.0472 0.35781 0.03508 0.0
C2664 C 0.09381 0.31405 0.11058 0.0
C2665 C 0.08394 0.31714 0.10177 0.0
C2666 C 0.08128 0.33317 0.06608 0.0
C2667 C 0.0504 0.34306 0.05462 0.0
C2668 C 0.06041 0.33904 0.06384 0.0
C2669 C 0.08984 0.32799 0.0907 0.0
C2670 C 0.07948 0.33148 0.08141 0.0
H2671 H 0.01283 0.33402 0.05005 0.0
H2672 H 0.02926 0.32731 0.06491 0.0
H2673 H 0.07342 0.33794 0.0456 0.0
H2674 H 0.12784 0.33861 0.09545 0.0
H2675 H 0.11073 0.34418 0.08031 0.0
C2676 C 0.63359 0.6697 0.0724 0.0
C2677 C 0.63984 0.66035 0.07665 0.0
C2678 C 0.63798 0.68397 0.08041 0.0
C2679 C 0.66927 0.71489 0.10583 0.0
H2680 H 0.63871 0.72723 0.11286 0.0
C2681 C 0.6833 0.7722 0.14067 0.0
C2682 C 0.67689 0.78086 0.13478 0.0
C2683 C 0.67894 0.75718 0.1343 0.0
C2684 C 0.6474 0.724 0.11088 0.0
H2685 H 0.65544 0.65847 0.09269 0.0
H2686 H 0.66301 0.68335 0.10679 0.0
H2687 H 0.63052 0.70138 0.10062 0.0
H2688 H 0.66143 0.78086 0.11724 0.0
H2689 H 0.65384 0.75473 0.1062 0.0
H2690 H 0.68616 0.73761 0.11603 0.0
C2691 C 0.65486 0.67974 0.09716 0.0
C2692 C 0.64271 0.7092 0.10387 0.0
C2693 C 0.65046 0.66546 0.08914 0.0
C2694 C 0.66631 0.77433 0.12224 0.0
C2695 C 0.66195 0.75936 0.11592 0.0
C2696 C 0.67396 0.72972 0.11288 0.0
C2697 C 0.64871 0.68918 0.09285 0.0
C2698 C 0.65361 0.70455 0.10108 0.0
C2699 C 0.6681 0.75055 0.12195 0.0
C2700 C 0.6631 0.7345 0.11529 0.0
H2701 H 0.62542 0.66609 0.06279 0.0
H2702 H 0.63319 0.69107 0.07667 0.0
H2703 H 0.67798 0.71173 0.1037 0.0
H2704 H 0.69139 0.77687 0.1504 0.0
H2705 H 0.68381 0.75061 0.13924 0.0
C2706 C 0.33302 0.95269 0.03079 0.0
C2707 C 0.3434 0.96864 0.03532 0.0
C2708 C 0.32004 0.94366 0.03883 0.0
C2709 C 0.30546 0.9427 0.076 0.0
H2710 H 0.26469 0.9159 0.05604 0.0
C2711 C 0.25025 0.91912 0.10761 0.0
C2712 C 0.23852 0.90332 0.10435 0.0
C2713 C 0.26284 0.92624 0.09876 0.0
C2714 C 0.27603 0.92318 0.06177 0.0
H2715 H 0.34827 0.98767 0.0517 0.0
H2716 H 0.32575 0.97204 0.06557 0.0
H2717 H 0.28724 0.92958 0.04131 0.0
H2718 H 0.23061 0.88271 0.08902 0.0
H2719 H 0.25275 0.89511 0.07365 0.0
H2720 H 0.29435 0.93647 0.09642 0.0
C2721 C 0.32767 0.9664 0.05597 0.0
C2722 C 0.28893 0.93099 0.05333 0.0
C2723 C 0.34054 0.97539 0.04795 0.0
C2724 C 0.23955 0.89486 0.0919 0.0
C2725 C 0.25215 0.902 0.08301 0.0
C2726 C 0.29261 0.93491 0.0844 0.0
C2727 C 0.31731 0.95042 0.05158 0.0
C2728 C 0.30375 0.94105 0.06038 0.0
C2729 C 0.26401 0.91773 0.08644 0.0
C2730 C 0.27771 0.92527 0.07739 0.0
H2731 H 0.33495 0.94719 0.02109 0.0
H2732 H 0.31228 0.93135 0.03522 0.0
H2733 H 0.31677 0.95011 0.08176 0.0
H2734 H 0.2499 0.92592 0.1172 0.0
H2735 H 0.27167 0.93845 0.10158 0.0
C2736 C 0.37708 0.04407 0.0028 0.0
C2737 C 0.3701 0.02837 0.99683 0.0
C2738 C 0.37226 0.05419 0.99747 0.0
C2739 C 0.33961 0.05395 0.97626 0.0
H2740 H 0.37042 0.09704 0.96938 0.0
C2741 C 0.32232 0.09732 0.95324 0.0
C2742 C 0.33129 0.10656 0.94205 0.0
C2743 C 0.32723 0.08873 0.96156 0.0
C2744 C 0.36168 0.08502 0.9712 0.0
H2745 H 0.35269 0.01096 0.98056 0.0
H2746 H 0.34451 0.02864 0.97108 0.0
H2747 H 0.37856 0.07994 0.98047 0.0
H2748 H 0.35239 0.114 0.93075 0.0
H2749 H 0.36086 0.09896 0.94511 0.0
H2750 H 0.3228 0.0588 0.96642 0.0
C2751 C 0.35348 0.0331 0.98007 0.0
C2752 C 0.36632 0.07527 0.97772 0.0
C2753 C 0.35826 0.02299 0.98542 0.0
C2754 C 0.34535 0.1072 0.93948 0.0
C2755 C 0.35022 0.09859 0.94774 0.0
C2756 C 0.33497 0.06367 0.9697 0.0
C2757 C 0.36039 0.04881 0.98604 0.0
C2758 C 0.35537 0.05954 0.98011 0.0
C2759 C 0.34117 0.08915 0.9588 0.0
C2760 C 0.34597 0.07926 0.96689 0.0
H2761 H 0.3862 0.04851 0.01165 0.0
H2762 H 0.37772 0.06618 0.0024 0.0
H2763 H 0.33084 0.04196 0.97817 0.0
H2764 H 0.31151 0.09674 0.95558 0.0
H2765 H 0.32008 0.08174 0.97014 0.0
C2766 C 0.97645 0.31191 0.97849 0.0
C2767 C 0.97138 0.31825 0.98971 0.0
C2768 C 0.966 0.29768 0.97048 0.0
C2769 C 0.92421 0.27165 0.96028 0.0
H2770 H 0.93566 0.24016 0.95067 0.0
C2771 C 0.87928 0.20873 0.93719 0.0
C2772 C 0.88335 0.20191 0.9255 0.0
C2773 C 0.89036 0.22294 0.94474 0.0
C2774 C 0.93236 0.24892 0.95312 0.0
H2775 H 0.95148 0.31459 0.00151 0.0
H2776 H 0.93328 0.28967 0.98767 0.0
H2777 H 0.95437 0.26491 0.96456 0.0
H2778 H 0.90231 0.20461 0.91265 0.0
H2779 H 0.92175 0.22953 0.9259 0.0
H2780 H 0.90221 0.25567 0.94892 0.0
C2781 C 0.94527 0.2958 0.98488 0.0
C2782 C 0.94307 0.26309 0.96108 0.0
C2783 C 0.95571 0.31002 0.99288 0.0
C2784 C 0.89884 0.20952 0.92167 0.0
C2785 C 0.90996 0.22377 0.92926 0.0
C2786 C 0.91352 0.2575 0.95235 0.0
C2787 C 0.95028 0.28951 0.97354 0.0
C2788 C 0.93907 0.27456 0.96483 0.0
C2789 C 0.9058 0.23068 0.94081 0.0
C2790 C 0.91743 0.24593 0.94877 0.0
H2791 H 0.98847 0.31802 0.97578 0.0
H2792 H 0.9702 0.29324 0.96171 0.0
H2793 H 0.92087 0.28037 0.96273 0.0
H2794 H 0.86752 0.20297 0.94065 0.0
H2795 H 0.88685 0.22778 0.95379 0.0
C2796 C 0.68144 0.64546 0.03176 0.0
C2797 C 0.66996 0.62959 0.03277 0.0
C2798 C 0.69465 0.64931 0.02418 0.0
C2799 C 0.7075 0.63481 0.99357 0.0
H2800 H 0.74892 0.66652 0.00917 0.0
C2801 C 0.76078 0.65114 0.96005 0.0
C2802 C 0.77268 0.66708 0.96081 0.0
C2803 C 0.74875 0.646 0.96958 0.0
C2804 C 0.73742 0.65779 0.00456 0.0
H2805 H 0.66339 0.60528 0.02693 0.0
H2806 H 0.68647 0.61206 0.01334 0.0
H2807 H 0.72714 0.65843 0.02481 0.0
H2808 H 0.78119 0.69008 0.97234 0.0
H2809 H 0.75981 0.68129 0.98845 0.0
H2810 H 0.7175 0.63456 0.97314 0.0
C2811 C 0.68522 0.62148 0.01852 0.0
C2812 C 0.72498 0.65309 0.01357 0.0
C2813 C 0.67209 0.61761 0.02633 0.0
C2814 C 0.77216 0.67776 0.97131 0.0
C2815 C 0.75999 0.67265 0.98073 0.0
C2816 C 0.71989 0.63965 0.98449 0.0
C2817 C 0.69655 0.63737 0.01727 0.0
C2818 C 0.7099 0.64161 0.00813 0.0
C2819 C 0.74812 0.65669 0.97999 0.0
C2820 C 0.73501 0.65126 0.98983 0.0
H2821 H 0.6801 0.65493 0.03666 0.0
H2822 H 0.70315 0.66165 0.02328 0.0
H2823 H 0.69594 0.62611 0.98903 0.0
H2824 H 0.76063 0.6426 0.95195 0.0
H2825 H 0.73996 0.63359 0.96879 0.0
C2826 C 0.9744 0.66403 0.00644 0.0
C2827 C 0.96738 0.65039 0.01439 0.0
C2828 C 0.9654 0.66816 0.99762 0.0
C2829 C 0.92581 0.6615 0.99118 0.0
H2830 H 0.94018 0.67715 0.95273 0.0
C2831 C 0.89687 0.6879 0.95512 0.0
C2832 C 0.89452 0.68367 0.93975 0.0
C2833 C 0.90595 0.68409 0.96422 0.0
C2834 C 0.93595 0.6727 0.96338 0.0
H2835 H 0.94541 0.63049 0.01955 0.0
H2836 H 0.92961 0.63762 0.00398 0.0
H2837 H 0.95517 0.66952 0.96867 0.0
H2838 H 0.90015 0.6724 0.92184 0.0
H2839 H 0.91586 0.66554 0.93776 0.0
H2840 H 0.9064 0.66436 0.98573 0.0
C2841 C 0.94209 0.64521 0.0047 0.0
C2842 C 0.94463 0.66849 0.9726 0.0
C2843 C 0.95113 0.64109 0.01357 0.0
C2844 C 0.90168 0.67576 0.93365 0.0
C2845 C 0.91078 0.67195 0.94276 0.0
C2846 C 0.91712 0.66571 0.98195 0.0
C2847 C 0.94915 0.65872 0.9965 0.0
C2848 C 0.93971 0.66291 0.98664 0.0
C2849 C 0.91289 0.67593 0.95817 0.0
C2850 C 0.92211 0.6714 0.96796 0.0
H2851 H 0.9869 0.67149 0.00691 0.0
H2852 H 0.9712 0.67879 0.9917 0.0
H2853 H 0.92176 0.65735 0.00196 0.0
H2854 H 0.89131 0.69377 0.96022 0.0
H2855 H 0.90751 0.68752 0.97601 0.0
C2856 C 0.34971 0.33493 0.96134 0.0
C2857 C 0.35599 0.33713 0.97604 0.0
C2858 C 0.34375 0.32034 0.95331 0.0
C2859 C 0.32571 0.27841 0.95759 0.0
H2860 H 0.34185 0.2756 0.91991 0.0
C2861 C 0.31293 0.21885 0.92986 0.0
C2862 C 0.31259 0.21706 0.91432 0.0
C2863 C 0.31685 0.23342 0.93694 0.0
C2864 C 0.33692 0.27615 0.93024 0.0
H2865 H 0.36087 0.32587 0.99394 0.0
H2866 H 0.35003 0.30019 0.97999 0.0
H2867 H 0.35143 0.30135 0.93304 0.0
H2868 H 0.31539 0.22873 0.89388 0.0
H2869 H 0.32151 0.25405 0.90614 0.0
H2870 H 0.31091 0.25336 0.95475 0.0
C2871 C 0.34989 0.30981 0.97468 0.0
C2872 C 0.34252 0.29091 0.93779 0.0
C2873 C 0.35615 0.32449 0.9826 0.0
C2874 C 0.31566 0.2299 0.90591 0.0
C2875 C 0.3193 0.24441 0.91296 0.0
C2876 C 0.31987 0.26367 0.94991 0.0
C2877 C 0.34365 0.30764 0.95998 0.0
C2878 C 0.33713 0.29212 0.95162 0.0
C2879 C 0.32028 0.24647 0.9286 0.0
C2880 C 0.32558 0.26229 0.93623 0.0
H2881 H 0.34947 0.34451 0.95602 0.0
H2882 H 0.33896 0.31889 0.94198 0.0
H2883 H 0.32126 0.27912 0.96818 0.0
H2884 H 0.31083 0.20915 0.93658 0.0
H2885 H 0.31776 0.23454 0.94898 0.0
C2886 C 0.67175 0.04661 0.02312 0.0
C2887 C 0.65832 0.03394 0.01575 0.0
C2888 C 0.68504 0.05535 0.01536 0.0
C2889 C 0.6977 0.0657 0.97777 0.0
H2890 H 0.73648 0.06926 0.99203 0.0
C2891 C 0.74587 0.07951 0.93863 0.0
C2892 C 0.76134 0.08963 0.94397 0.0
C2893 C 0.73399 0.07406 0.94834 0.0
C2894 C 0.72583 0.06862 0.988 0.0
H2895 H 0.64805 0.02072 0.99452 0.0
H2896 H 0.67101 0.03609 0.98101 0.0
H2897 H 0.71438 0.0582 0.00761 0.0
H2898 H 0.77657 0.10186 0.96368 0.0
H2899 H 0.75573 0.09245 0.98073 0.0
H2900 H 0.70894 0.07599 0.9582 0.0
C2901 C 0.67137 0.03926 0.99273 0.0
C2902 C 0.7132 0.0623 0.99693 0.0
C2903 C 0.65825 0.03041 0.00049 0.0
C2904 C 0.76474 0.09394 0.9593 0.0
C2905 C 0.75281 0.08856 0.96904 0.0
C2906 C 0.71032 0.07212 0.96893 0.0
C2907 C 0.68493 0.05172 9e-05 0.0
C2908 C 0.69892 0.06042 0.99171 0.0
C2909 C 0.73727 0.07871 0.96363 0.0
C2910 C 0.72441 0.07327 0.97375 0.0
H2911 H 0.6721 0.04952 0.03489 0.0
H2912 H 0.69537 0.06493 0.02126 0.0
H2913 H 0.68687 0.06458 0.97359 0.0
H2914 H 0.74294 0.0758 0.9269 0.0
H2915 H 0.72221 0.06614 0.94383 0.0
C2916 C 0.64167 0.97948 0.06863 0.0
C2917 C 0.63375 0.9752 0.05449 0.0
C2918 C 0.64634 0.96976 0.07509 0.0
C2919 C 0.65781 0.94092 0.06792 0.0
H2920 H 0.64482 0.92854 0.10751 0.0
C2921 C 0.67316 0.90001 0.10037 0.0
C2922 C 0.67593 0.90319 0.11585 0.0
C2923 C 0.66791 0.90824 0.0919 0.0
C2924 C 0.64876 0.93206 0.09655 0.0
H2925 H 0.62481 0.95761 0.03584 0.0
H2926 H 0.63341 0.94067 0.04712 0.0
H2927 H 0.63576 0.94383 0.09437 0.0
H2928 H 0.6763 0.91792 0.13456 0.0
H2929 H 0.6678 0.93273 0.11984 0.0
H2930 H 0.67134 0.92971 0.07032 0.0
C2931 C 0.6358 0.95151 0.05317 0.0
C2932 C 0.64344 0.9407 0.089 0.0
C2933 C 0.63085 0.96113 0.04678 0.0
C2934 C 0.67402 0.91514 0.12265 0.0
C2935 C 0.66902 0.9235 0.11421 0.0
C2936 C 0.66335 0.93244 0.07559 0.0
C2937 C 0.64341 0.95569 0.06745 0.0
C2938 C 0.64808 0.94538 0.07472 0.0
C2939 C 0.66552 0.91991 0.09877 0.0
C2940 C 0.65908 0.92814 0.09011 0.0
H2941 H 0.64407 0.99024 0.07484 0.0
H2942 H 0.65229 0.97327 0.08607 0.0
H2943 H 0.66158 0.9445 0.05692 0.0
H2944 H 0.67451 0.89077 0.09492 0.0
H2945 H 0.66526 0.9051 0.08006 0.0
C2946 C 0.02477 0.68135 0.07664 0.0
C2947 C 0.02699 0.67901 0.06167 0.0
C2948 C 0.03479 0.69566 0.08473 0.0
C2949 C 0.06066 0.7375 0.0805 0.0
H2950 H 0.07968 0.73796 0.11895 0.0
C2951 C 0.10968 0.79512 0.11062 0.0
C2952 C 0.1108 0.79659 0.12623 0.0
C2953 C 0.0988 0.78088 0.10294 0.0
C2954 C 0.07426 0.73808 0.10837 0.0
H2955 H 0.04136 0.68975 0.04338 0.0
H2956 H 0.05875 0.71494 0.05749 0.0
H2957 H 0.06203 0.71281 0.10519 0.0
H2958 H 0.1012 0.7846 0.14609 0.0
H2959 H 0.08173 0.75984 0.1327 0.0
H2960 H 0.07249 0.76268 0.08372 0.0
C2961 C 0.04929 0.70564 0.06295 0.0
C2962 C 0.06423 0.72365 0.10046 0.0
C2963 C 0.03942 0.69123 0.05492 0.0
C2964 C 0.10059 0.7837 0.13404 0.0
C2965 C 0.08954 0.7695 0.12635 0.0
C2966 C 0.0705 0.75193 0.08849 0.0
C2967 C 0.04706 0.70797 0.07792 0.0
C2968 C 0.05746 0.72324 0.08641 0.0
C2969 C 0.08865 0.76783 0.11069 0.0
C2970 C 0.07756 0.75243 0.10248 0.0
H2971 H 0.01529 0.67212 0.08212 0.0
H2972 H 0.03279 0.6972 0.09624 0.0
H2973 H 0.0554 0.73747 0.06976 0.0
H2974 H 0.11761 0.80482 0.10436 0.0
H2975 H 0.09871 0.77999 0.09093 0.0
C2976 C 0.32401 0.37754 0.02123 0.0
C2977 C 0.33028 0.36757 0.0206 0.0
C2978 C 0.31031 0.37303 0.02831 0.0
C2979 C 0.27576 0.33818 0.04078 0.0
H2980 H 0.27549 0.36779 0.07039 0.0
C2981 C 0.2316 0.31831 0.08581 0.0
C2982 C 0.22623 0.32841 0.09051 0.0
C2983 C 0.24327 0.32321 0.07586 0.0
C2984 C 0.27523 0.35945 0.06198 0.0
H2985 H 0.32703 0.34497 0.02659 0.0
H2986 H 0.30321 0.33712 0.03883 0.0
H2987 H 0.2976 0.37633 0.05518 0.0
H2988 H 0.22837 0.35127 0.08801 0.0
H2989 H 0.24859 0.35976 0.07046 0.0
H2990 H 0.25347 0.32125 0.0476 0.0
C2991 C 0.30878 0.34836 0.03383 0.0
C2992 C 0.28792 0.36436 0.05328 0.0
C2993 C 0.32249 0.35293 0.02692 0.0
C2994 C 0.23249 0.34335 0.08477 0.0
C2995 C 0.24408 0.34821 0.07474 0.0
C2996 C 0.26303 0.3333 0.04941 0.0
C2997 C 0.30259 0.35839 0.0347 0.0
C2998 C 0.28844 0.35369 0.04279 0.0
C2999 C 0.24975 0.33827 0.07028 0.0
C3000 C 0.26272 0.34378 0.0603 0.0
H3001 H 0.32979 0.38889 0.01644 0.0
H3002 H 0.30574 0.38095 0.02877 0.0
H3003 H 0.27577 0.32977 0.03262 0.0
H3004 H 0.22708 0.30679 0.09017 0.0
H3005 H 0.24752 0.31534 0.07286 0.0
C3006 C 0.69252 0.67031 0.37402 0.0
C3007 C 0.69773 0.6863 0.37207 0.0
C3008 C 0.70132 0.66603 0.38298 0.0
C3009 C 0.72932 0.67991 0.41479 0.0
H3010 H 0.74008 0.6494 0.39962 0.0
C3011 C 0.77364 0.66876 0.44654 0.0
C3012 C 0.77218 0.65375 0.44495 0.0
C3013 C 0.76369 0.67214 0.4383 0.0
C3014 C 0.73694 0.65769 0.40418 0.0
H3015 H 0.71616 0.71036 0.37795 0.0
H3016 H 0.73142 0.70285 0.39396 0.0
H3017 H 0.72463 0.65653 0.38373 0.0
H3018 H 0.75852 0.63028 0.43385 0.0
H3019 H 0.74064 0.63589 0.42014 0.0
H3020 H 0.74116 0.68081 0.43536 0.0
C3021 C 0.72058 0.69367 0.38843 0.0
C3022 C 0.72818 0.66186 0.39501 0.0
C3023 C 0.71191 0.69795 0.37923 0.0
C3024 C 0.75997 0.64195 0.43546 0.0
C3025 C 0.74986 0.64526 0.42737 0.0
C3026 C 0.73784 0.67554 0.42407 0.0
C3027 C 0.71535 0.67767 0.39038 0.0
C3028 C 0.72443 0.67311 0.40018 0.0
C3029 C 0.75179 0.66051 0.42842 0.0
C3030 C 0.74191 0.66449 0.41885 0.0
H3031 H 0.68163 0.66109 0.36862 0.0
H3032 H 0.69702 0.65363 0.38437 0.0
H3033 H 0.72637 0.68846 0.41909 0.0
H3034 H 0.78269 0.67807 0.45397 0.0
H3035 H 0.76569 0.68405 0.43937 0.0
C3036 C 0.31794 0.00121 0.41974 0.0
C3037 C 0.30721 0.99565 0.4073 0.0
C3038 C 0.32307 0.01614 0.42675 0.0
C3039 C 0.32689 0.05468 0.4202 0.0
H3040 H 0.32979 0.06034 0.46326 0.0
C3041 C 0.3348 0.1111 0.45075 0.0
C3042 C 0.34456 0.11707 0.46388 0.0
C3043 C 0.33109 0.09652 0.44386 0.0
C3044 C 0.32926 0.05901 0.45123 0.0
H3045 H 0.29336 0.00128 0.39249 0.0
H3046 H 0.30226 0.02733 0.40477 0.0
H3047 H 0.32154 0.03433 0.45126 0.0
H3048 H 0.35819 0.11247 0.48001 0.0
H3049 H 0.35192 0.08706 0.4678 0.0
H3050 H 0.33458 0.07932 0.42013 0.0
C3051 C 0.30683 0.02022 0.40901 0.0
C3052 C 0.32451 0.0441 0.44436 0.0
C3053 C 0.30166 0.00527 0.40204 0.0
C3054 C 0.35071 0.10822 0.46986 0.0
C3055 C 0.34698 0.0936 0.46295 0.0
C3056 C 0.33169 0.06958 0.42706 0.0
C3057 C 0.31761 0.02583 0.42143 0.0
C3058 C 0.32313 0.04175 0.42877 0.0
C3059 C 0.33709 0.08757 0.44989 0.0
C3060 C 0.33278 0.07189 0.44265 0.0
H3061 H 0.32244 0.99405 0.42403 0.0
H3062 H 0.33148 0.02019 0.43621 0.0
H3063 H 0.32622 0.0533 0.40817 0.0
H3064 H 0.33005 0.11773 0.44574 0.0
H3065 H 0.3233 0.09216 0.43392 0.0
C3066 C 0.00219 0.30284 0.36978 0.0
C3067 C 0.01243 0.29736 0.36685 0.0
C3068 C 0.98871 0.29359 0.37694 0.0
C3069 C 0.97284 0.26396 0.40368 0.0
H3070 H 0.93299 0.25727 0.38861 0.0
C3071 C 0.91749 0.22771 0.43462 0.0
C3072 C 0.90661 0.23279 0.43476 0.0
C3073 C 0.9299 0.2344 0.42551 0.0
C3074 C 0.94405 0.2592 0.39309 0.0
H3075 H 0.0166 0.2779 0.36904 0.0
H3076 H 0.99307 0.26179 0.38202 0.0
H3077 H 0.95556 0.27103 0.37405 0.0
H3078 H 0.90031 0.24889 0.42522 0.0
H3079 H 0.92235 0.26111 0.40998 0.0
H3080 H 0.96166 0.25286 0.42301 0.0
C3081 C 0.99549 0.27321 0.37859 0.0
C3082 C 0.95693 0.26697 0.38468 0.0
C3083 C 0.00888 0.28237 0.37114 0.0
C3084 C 0.90854 0.24479 0.42557 0.0
C3085 C 0.92108 0.25163 0.41661 0.0
C3086 C 0.96002 0.25641 0.41221 0.0
C3087 C 0.98531 0.27877 0.38156 0.0
C3088 C 0.97145 0.26952 0.38995 0.0
C3089 C 0.93194 0.24653 0.41644 0.0
C3090 C 0.94546 0.25402 0.40709 0.0
H3091 H 0.00463 0.31434 0.36655 0.0
H3092 H 0.98112 0.29819 0.37922 0.0
H3093 H 0.98397 0.26597 0.40805 0.0
H3094 H 0.91657 0.21868 0.4417 0.0
H3095 H 0.93787 0.22998 0.42556 0.0
C3096 C 0.02842 0.35516 0.32472 0.0
C3097 C 0.04391 0.35952 0.32819 0.0
C3098 C 0.02478 0.36591 0.31885 0.0
C3099 C 0.04151 0.40877 0.3132 0.0
H3100 H 0.00611 0.39267 0.28452 0.0
C3101 C 0.02823 0.44667 0.27407 0.0
C3102 C 0.01299 0.44397 0.2737 0.0
C3103 C 0.03224 0.43713 0.28193 0.0
C3104 C 0.01594 0.39729 0.29261 0.0
H3105 H 0.06779 0.37842 0.32817 0.0
H3106 H 0.06154 0.39703 0.31723 0.0
H3107 H 0.01289 0.37443 0.29522 0.0
H3108 H 0.99023 0.42945 0.28195 0.0
H3109 H 0.99715 0.41241 0.29511 0.0
H3110 H 0.04483 0.43178 0.3099 0.0
C3111 C 0.05212 0.38549 0.31947 0.0
C3112 C 0.01982 0.38685 0.29883 0.0
C3113 C 0.05573 0.37481 0.32564 0.0
C3114 C 0.00197 0.43169 0.28168 0.0
C3115 C 0.00593 0.42198 0.28931 0.0
C3116 C 0.03778 0.41925 0.30674 0.0
C3117 C 0.03657 0.38118 0.316 0.0
C3118 C 0.0326 0.39242 0.30928 0.0
C3119 C 0.02105 0.42454 0.28936 0.0
C3120 C 0.02492 0.41356 0.29646 0.0
H3121 H 0.01905 0.34349 0.32676 0.0
H3122 H 0.01267 0.36224 0.3167 0.0
H3123 H 0.05127 0.41351 0.32137 0.0
H3124 H 0.03698 0.45579 0.26786 0.0
H3125 H 0.04394 0.43922 0.28171 0.0
C3126 C 0.62301 0.64796 0.32653 0.0
C3127 C 0.63836 0.65681 0.32251 0.0
C3128 C 0.61271 0.63341 0.31898 0.0
C3129 C 0.60566 0.60957 0.28389 0.0
H3130 H 0.57898 0.57474 0.30711 0.0
C3131 C 0.56449 0.54618 0.25735 0.0
C3132 C 0.5495 0.53831 0.26248 0.0
C3133 C 0.57606 0.56042 0.26461 0.0
C3134 C 0.58625 0.58438 0.30045 0.0
H3135 H 0.65494 0.65752 0.30731 0.0
H3136 H 0.63691 0.63204 0.29409 0.0
H3137 H 0.59763 0.60022 0.31972 0.0
H3138 H 0.53503 0.53898 0.27947 0.0
H3139 H 0.55502 0.56387 0.29188 0.0
H3140 H 0.5941 0.59376 0.2646 0.0
C3141 C 0.63283 0.63641 0.30304 0.0
C3142 C 0.59693 0.59897 0.30768 0.0
C3143 C 0.64316 0.65095 0.31064 0.0
C3144 C 0.54639 0.54486 0.27511 0.0
C3145 C 0.55792 0.55904 0.28234 0.0
C3146 C 0.59492 0.59496 0.27664 0.0
C3147 C 0.61753 0.62742 0.30722 0.0
C3148 C 0.60663 0.61178 0.29948 0.0
C3149 C 0.57288 0.56701 0.27718 0.0
C3150 C 0.58497 0.58225 0.28484 0.0
H3151 H 0.61897 0.6522 0.3356 0.0
H3152 H 0.60093 0.62686 0.32231 0.0
H3153 H 0.6129 0.61926 0.27727 0.0
H3154 H 0.56721 0.54147 0.2476 0.0
H3155 H 0.58751 0.56621 0.26044 0.0
C3156 C 0.33 0.94247 0.35633 0.0
C3157 C 0.33152 0.95487 0.36594 0.0
C3158 C 0.34228 0.94458 0.34792 0.0
C3159 C 0.38453 0.97013 0.34485 0.0
H3160 H 0.37435 0.95686 0.30285 0.0
C3161 C 0.43091 0.99227 0.30173 0.0
C3162 C 0.42941 0.98149 0.29012 0.0
C3163 C 0.41916 0.98817 0.31152 0.0
C3164 C 0.3774 0.96043 0.31459 0.0
H3165 H 0.34723 0.97898 0.37472 0.0
H3166 H 0.36863 0.98265 0.36007 0.0
H3167 H 0.35363 0.95075 0.31935 0.0
H3168 H 0.4143 0.95796 0.27963 0.0
H3169 H 0.39402 0.95068 0.2969 0.0
H3170 H 0.40831 0.97992 0.34008 0.0
C3171 C 0.35801 0.97128 0.35906 0.0
C3172 C 0.36551 0.95692 0.32405 0.0
C3173 C 0.34572 0.96921 0.3674 0.0
C3174 C 0.41591 0.96649 0.28856 0.0
C3175 C 0.4042 0.96238 0.29835 0.0
C3176 C 0.39643 0.97361 0.3354 0.0
C3177 C 0.35634 0.95909 0.34904 0.0
C3178 C 0.36895 0.96186 0.33926 0.0
C3179 C 0.40565 0.97317 0.30993 0.0
C3180 C 0.39301 0.96893 0.32013 0.0
H3181 H 0.31919 0.93129 0.35499 0.0
H3182 H 0.34072 0.93491 0.34042 0.0
H3183 H 0.38753 0.97393 0.35656 0.0
H3184 H 0.44122 0.00386 0.30335 0.0
H3185 H 0.42059 0.99684 0.3202 0.0
C3186 C 0.61741 0.96417 0.34459 0.0
C3187 C 0.63346 0.97477 0.34527 0.0
C3188 C 0.60737 0.96659 0.33532 0.0
C3189 C 0.60704 0.98818 0.30256 0.0
H3190 H 0.56663 0.97817 0.3151 0.0
C3191 C 0.56688 0.00583 0.27133 0.0
C3192 C 0.55115 0.99409 0.26917 0.0
C3193 C 0.5771 0.00339 0.2803 0.0
C3194 C 0.57784 0.9809 0.3114 0.0
H3195 H 0.6516 0.99638 0.33707 0.0
H3196 H 0.63411 0.00086 0.32125 0.0
H3197 H 0.58409 0.97433 0.33169 0.0
H3198 H 0.53376 0.97068 0.27475 0.0
H3199 H 0.55161 0.96643 0.29039 0.0
H3200 H 0.60081 0.99502 0.28236 0.0
C3201 C 0.62925 0.99045 0.32754 0.0
C3202 C 0.58783 0.97866 0.32089 0.0
C3203 C 0.63927 0.98795 0.3367 0.0
C3204 C 0.54587 0.97985 0.27606 0.0
C3205 C 0.55603 0.97749 0.28514 0.0
C3206 C 0.59709 0.99056 0.29314 0.0
C3207 C 0.61317 0.97974 0.32663 0.0
C3208 C 0.60255 0.98223 0.31658 0.0
C3209 C 0.57173 0.98926 0.28742 0.0
C3210 C 0.58237 0.98689 0.29744 0.0
H3211 H 0.61261 0.95386 0.35103 0.0
H3212 H 0.59509 0.95797 0.33476 0.0
H3213 H 0.61816 0.9908 0.29874 0.0
H3214 H 0.57125 0.0169 0.26612 0.0
H3215 H 0.58913 0.0127 0.28194 0.0
C3216 C 0.018 0.67 0.2972 0.0
C3217 C 0.03085 0.67761 0.30761 0.0
C3218 C 0.01467 0.65604 0.2892 0.0
C3219 C 0.02185 0.62277 0.29091 0.0
H3220 H 0.00557 0.61374 0.24971 0.0
C3221 C 0.00775 0.57379 0.23929 0.0
C3222 C 0.00076 0.55997 0.24701 0.0
C3223 C 0.01111 0.58827 0.24621 0.0
C3224 C 0.01021 0.61613 0.26118 0.0
H3225 H 0.05054 0.67688 0.31752 0.0
H3226 H 0.04491 0.65266 0.30334 0.0
H3227 H 0.01301 0.63924 0.26236 0.0
H3228 H 0.99161 0.5505 0.268 0.0
H3229 H 0.99701 0.57562 0.27989 0.0
H3230 H 0.01943 0.59985 0.28965 0.0
C3231 C 0.03722 0.65729 0.30157 0.0
C3232 C 0.01432 0.63068 0.26848 0.0
C3233 C 0.0405 0.67121 0.30963 0.0
C3234 C 0.99684 0.56088 0.26167 0.0
C3235 C 0.00015 0.57533 0.26857 0.0
C3236 C 0.01779 0.60826 0.2836 0.0
C3237 C 0.02415 0.64943 0.29139 0.0
C3238 C 0.02015 0.63415 0.28345 0.0
C3239 C 0.00753 0.58924 0.261 0.0
C3240 C 0.01186 0.60473 0.26868 0.0
H3241 H 0.01032 0.67465 0.29545 0.0
H3242 H 0.00441 0.6502 0.28159 0.0
H3243 H 0.02611 0.62496 0.30248 0.0
H3244 H 0.01077 0.57346 0.22793 0.0
H3245 H 0.0169 0.59877 0.2401 0.0
C3246 C 0.32978 0.35741 0.34418 0.0
C3247 C 0.32282 0.36496 0.3514 0.0
C3248 C 0.34371 0.36619 0.33754 0.0
C3249 C 0.36662 0.40319 0.32033 0.0
H3250 H 0.3992 0.39286 0.32416 0.0
C3251 C 0.42237 0.4359 0.28925 0.0
C3252 C 0.42784 0.42658 0.28267 0.0
C3253 C 0.41079 0.42962 0.29928 0.0
C3254 C 0.39016 0.3958 0.32287 0.0
H3255 H 0.32501 0.38762 0.35744 0.0
H3256 H 0.34941 0.40306 0.34554 0.0
H3257 H 0.37664 0.37973 0.33885 0.0
H3258 H 0.42566 0.40347 0.28156 0.0
H3259 H 0.40519 0.39234 0.29884 0.0
H3260 H 0.37977 0.41882 0.30397 0.0
C3261 C 0.34404 0.39032 0.34511 0.0
C3262 C 0.37729 0.38833 0.33133 0.0
C3263 C 0.33013 0.38151 0.35194 0.0
C3264 C 0.42174 0.41095 0.28656 0.0
C3265 C 0.41005 0.40461 0.2965 0.0
C3266 C 0.37943 0.41058 0.31177 0.0
C3267 C 0.35094 0.38272 0.33783 0.0
C3268 C 0.36528 0.39178 0.32998 0.0
C3269 C 0.40433 0.41383 0.30289 0.0
C3270 C 0.39126 0.40681 0.31278 0.0
H3271 H 0.32443 0.34466 0.34361 0.0
H3272 H 0.34865 0.35999 0.33184 0.0
H3273 H 0.35745 0.40593 0.31893 0.0
H3274 H 0.42708 0.44809 0.28663 0.0
H3275 H 0.4069 0.43716 0.3042 0.0
C3276 C 0.3017 0.31224 0.40451 0.0
C3277 C 0.29483 0.30816 0.38993 0.0
C3278 C 0.30724 0.30327 0.41105 0.0
C3279 C 0.32243 0.27727 0.40286 0.0
H3280 H 0.31143 0.2644 0.44275 0.0
C3281 C 0.34077 0.23753 0.43333 0.0
C3282 C 0.34401 0.24059 0.44878 0.0
C3283 C 0.33504 0.24568 0.42536 0.0
C3284 C 0.31482 0.26809 0.4317 0.0
H3285 H 0.28843 0.29158 0.37069 0.0
H3286 H 0.29841 0.27593 0.38215 0.0
H3287 H 0.30046 0.27843 0.43033 0.0
H3288 H 0.34483 0.25509 0.46793 0.0
H3289 H 0.33545 0.26972 0.45404 0.0
H3290 H 0.33714 0.26731 0.40438 0.0
C3291 C 0.2994 0.28606 0.38847 0.0
C3292 C 0.30844 0.27604 0.42456 0.0
C3293 C 0.29362 0.29493 0.38198 0.0
C3294 C 0.3422 0.25242 0.45603 0.0
C3295 C 0.33671 0.26067 0.44808 0.0
C3296 C 0.32898 0.26945 0.41009 0.0
C3297 C 0.30621 0.29014 0.40309 0.0
C3298 C 0.3123 0.28085 0.41015 0.0
C3299 C 0.33264 0.25711 0.43272 0.0
C3300 C 0.32539 0.26495 0.42467 0.0
H3301 H 0.3028 0.32239 0.41088 0.0
H3302 H 0.31257 0.30674 0.42229 0.0
H3303 H 0.32565 0.28096 0.39177 0.0
H3304 H 0.34201 0.22838 0.42755 0.0
H3305 H 0.33196 0.24258 0.41356 0.0
C3306 C 0.7038 0.02325 0.38616 0.0
C3307 C 0.69147 0.011 0.39298 0.0
C3308 C 0.71299 0.03806 0.39378 0.0
C3309 C 0.72697 0.05691 0.43094 0.0
H3310 H 0.73579 0.09556 0.41303 0.0
C3311 C 0.76472 0.11734 0.46318 0.0
C3312 C 0.77521 0.12979 0.45511 0.0
C3313 C 0.75314 0.10325 0.45577 0.0
C3314 C 0.73362 0.08491 0.41814 0.0
H3315 H 0.67909 0.00455 0.41309 0.0
H3316 H 0.69543 0.03035 0.42654 0.0
H3317 H 0.71857 0.07006 0.39953 0.0
H3318 H 0.78184 0.13746 0.43305 0.0
H3319 H 0.76202 0.11274 0.42008 0.0
H3320 H 0.74246 0.07155 0.44925 0.0
C3321 C 0.69786 0.02851 0.41527 0.0
C3322 C 0.7237 0.07033 0.41042 0.0
C3323 C 0.68851 0.0138 0.40756 0.0
C3324 C 0.77373 0.12808 0.43951 0.0
C3325 C 0.76232 0.1139 0.4321 0.0
C3326 C 0.73709 0.07148 0.43857 0.0
C3327 C 0.71018 0.04077 0.40844 0.0
C3328 C 0.72033 0.05621 0.41674 0.0
C3329 C 0.75199 0.10121 0.44013 0.0
C3330 C 0.74061 0.0857 0.43226 0.0
H3331 H 0.70631 0.02141 0.37491 0.0
H3332 H 0.7225 0.0473 0.38833 0.0
H3333 H 0.72468 0.04618 0.43598 0.0
H3334 H 0.7656 0.11846 0.47523 0.0
H3335 H 0.74519 0.09391 0.46235 0.0
C3336 C 0.98873 0.68549 0.35924 0.0
C3337 C 0.99612 0.7006 0.35379 0.0
C3338 C 0.97514 0.68015 0.36664 0.0
C3339 C 0.95403 0.69478 0.38818 0.0
H3340 H 0.91991 0.65157 0.38185 0.0
C3341 C 0.89773 0.67352 0.41788 0.0
C3342 C 0.89123 0.65862 0.42371 0.0
C3343 C 0.90965 0.67832 0.40824 0.0
C3344 C 0.92939 0.66363 0.38384 0.0
H3345 H 0.99494 0.72188 0.35156 0.0
H3346 H 0.97115 0.71253 0.36452 0.0
H3347 H 0.94234 0.66064 0.36693 0.0
H3348 H 0.8919 0.63691 0.4238 0.0
H3349 H 0.91291 0.64535 0.40709 0.0
H3350 H 0.94132 0.69775 0.40527 0.0
C3351 C 0.97595 0.70487 0.36315 0.0
C3352 C 0.94223 0.66883 0.37527 0.0
C3353 C 0.98952 0.71019 0.35568 0.0
C3354 C 0.89663 0.64843 0.41939 0.0
C3355 C 0.90864 0.65326 0.4098 0.0
C3356 C 0.94125 0.68958 0.39678 0.0
C3357 C 0.96868 0.68983 0.3688 0.0
C3358 C 0.95472 0.68445 0.3774 0.0
C3359 C 0.91542 0.66835 0.40425 0.0
C3360 C 0.92879 0.67392 0.39476 0.0
H3361 H 0.99355 0.67783 0.35795 0.0
H3362 H 0.96992 0.66859 0.371 0.0
H3363 H 0.96358 0.7068 0.39026 0.0
H3364 H 0.89359 0.68151 0.42079 0.0
H3365 H 0.91436 0.68987 0.40393 0.0
C3366 C 0.35997 0.01153 0.7149 0.0
C3367 C 0.36579 0.02264 0.70407 0.0
C3368 C 0.36999 0.00891 0.72395 0.0
C3369 C 0.41088 0.0278 0.73818 0.0
H3370 H 0.39982 0.98534 0.74759 0.0
C3371 C 0.45463 0.01427 0.76721 0.0
C3372 C 0.44943 0.00349 0.77836 0.0
C3373 C 0.44417 0.01641 0.75838 0.0
C3374 C 0.40299 0.99728 0.74521 0.0
H3375 H 0.38661 0.03958 0.69409 0.0
H3376 H 0.40413 0.03491 0.70982 0.0
H3377 H 0.38214 0.98936 0.73144 0.0
H3378 H 0.42912 0.98643 0.78893 0.0
H3379 H 0.41075 0.99019 0.77345 0.0
H3380 H 0.43173 0.03574 0.75191 0.0
C3381 C 0.39184 0.02836 0.71144 0.0
C3382 C 0.39287 -0.00041 0.73595 0.0
C3383 C 0.38181 0.03097 0.70237 0.0
C3384 C 0.43346 0.99475 0.78037 0.0
C3385 C 0.42296 0.9969 0.7715 0.0
C3386 C 0.42099 0.0255 0.74743 0.0
C3387 C 0.38605 0.01737 0.72239 0.0
C3388 C 0.39674 0.01487 0.73227 0.0
C3389 C 0.42822 0.0078 0.76044 0.0
C3390 C 0.4172 0.01021 0.75099 0.0
H3391 H 0.34767 0.00495 0.71649 0.0
H3392 H 0.36517 0.0005 0.73238 0.0
H3393 H 0.41407 0.03975 0.7358 0.0
H3394 H 0.46682 0.02091 0.76513 0.0
H3395 H 0.44857 0.02465 0.74976 0.0
C3396 C 0.98317 0.33133 0.74954 0.0
C3397 C 0.97119 0.32453 0.73819 0.0
C3398 C 0.9866 0.34535 0.75752 0.0
C3399 C 0.9695 0.37016 0.76673 0.0
H3400 H 0.01218 0.40286 0.77702 0.0
C3401 C 0.98627 0.43331 0.78691 0.0
C3402 C 0.99718 0.44054 0.79915 0.0
C3403 C 0.98337 0.41899 0.78007 0.0
C3404 C 0.00021 0.39375 0.77436 0.0
H3405 H 0.95355 0.32715 0.72611 0.0
H3406 H 0.9597 0.35174 0.7398 0.0
H3407 H 0.00662 0.37815 0.76379 0.0
H3408 H 0.01371 0.43845 0.81374 0.0
H3409 H 0.00876 0.41343 0.80161 0.0
H3410 H 0.96311 0.38586 0.77708 0.0
C3411 C 0.96626 0.34611 0.74278 0.0
C3412 C 0.99701 0.3796 0.76681 0.0
C3413 C 0.96279 0.33207 0.73486 0.0
C3414 C 0.00533 0.43325 0.80425 0.0
C3415 C 0.00249 0.41893 0.79733 0.0
C3416 C 0.9727 0.38432 0.7742 0.0
C3417 C 0.97814 0.35288 0.75426 0.0
C3418 C 0.98161 0.3677 0.76278 0.0
C3419 C 0.99139 0.41161 0.78525 0.0
C3420 C 0.98808 0.39632 0.77797 0.0
H3421 H 0.9898 0.32573 0.75238 0.0
H3422 H 0.99571 0.35015 0.76639 0.0
H3423 H 0.9575 0.36112 0.76409 0.0
H3424 H 0.98005 0.43879 0.78247 0.0
H3425 H 0.97497 0.41379 0.77059 0.0
C3426 C 0.67726 0.64132 0.71514 0.0
C3427 C 0.68065 0.63412 0.70324 0.0
C3428 C 0.6637 0.63281 0.72242 0.0
C3429 C 0.6332 0.5926 0.72951 0.0
H3430 H 0.61073 0.61383 0.74021 0.0
C3431 C 0.57472 0.56116 0.75717 0.0
C3432 C 0.5732 0.56971 0.76924 0.0
C3433 C 0.58717 0.56853 0.74815 0.0
C3434 C 0.61692 0.60777 0.73739 0.0
H3435 H 0.67264 0.61226 0.68979 0.0
H3436 H 0.64876 0.5973 0.70255 0.0
H3437 H 0.63376 0.62736 0.72628 0.0
H3438 H 0.58362 0.59269 0.78132 0.0
H3439 H 0.60523 0.60554 0.76556 0.0
H3440 H 0.61638 0.57304 0.74076 0.0
C3441 C 0.65669 0.60954 0.70627 0.0
C3442 C 0.63013 0.61552 0.72942 0.0
C3443 C 0.67032 0.6181 0.69895 0.0
C3444 C 0.58429 0.58583 0.77197 0.0
C3445 C 0.5967 0.59319 0.76294 0.0
C3446 C 0.61995 0.58482 0.73749 0.0
C3447 C 0.65316 0.61688 0.71798 0.0
C3448 C 0.63856 0.60813 0.72558 0.0
C3449 C 0.59833 0.58461 0.75098 0.0
C3450 C 0.6118 0.59242 0.7417 0.0
H3451 H 0.68503 0.65363 0.71877 0.0
H3452 H 0.66149 0.63873 0.73159 0.0
H3453 H 0.63951 0.58663 0.72682 0.0
H3454 H 0.56625 0.54878 0.75464 0.0
H3455 H 0.588 0.56165 0.7389 0.0
C3456 C 0.71492 0.70679 0.65942 0.0
C3457 C 0.70439 0.69111 0.66228 0.0
C3458 C 0.70959 0.7163 0.65359 0.0
C3459 C 0.6747 0.71379 0.63432 0.0
H3460 H 0.69689 0.75893 0.64472 0.0
C3461 C 0.65241 0.75524 0.61651 0.0
C3462 C 0.663 0.76791 0.6086 0.0
C3463 C 0.65714 0.74612 0.62416 0.0
C3464 C 0.6906 0.74633 0.64176 0.0
H3465 H 0.68008 0.67316 0.66173 0.0
H3466 H 0.67071 0.68988 0.65221 0.0
H3467 H 0.70563 0.74241 0.65613 0.0
H3468 H 0.68695 0.78081 0.60267 0.0
H3469 H 0.69521 0.76531 0.61654 0.0
H3470 H 0.65948 0.71781 0.6202 0.0
C3471 C 0.6831 0.69475 0.65391 0.0
C3472 C 0.69565 0.73686 0.64818 0.0
C3473 C 0.68845 0.68517 0.65945 0.0
C3474 C 0.67851 0.77144 0.60888 0.0
C3475 C 0.68327 0.7625 0.61675 0.0
C3476 C 0.6695 0.72323 0.62813 0.0
C3477 C 0.69359 0.71042 0.65078 0.0
C3478 C 0.68788 0.72047 0.64441 0.0
C3479 C 0.67259 0.74965 0.62428 0.0
C3480 C 0.6775 0.73958 0.63167 0.0
H3481 H 0.72729 0.71162 0.66144 0.0
H3482 H 0.71806 0.72818 0.65108 0.0
H3483 H 0.66858 0.7013 0.63088 0.0
H3484 H 0.64045 0.75232 0.61679 0.0
H3485 H 0.64873 0.7363 0.62999 0.0
C3486 C 0.31028 0.98169 0.64586 0.0
C3487 C 0.30553 0.98743 0.65787 0.0
C3488 C 0.30024 0.96678 0.63876 0.0
C3489 C 0.26521 0.92864 0.64423 0.0
H3490 H 0.26157 0.92347 0.60112 0.0
C3491 C 0.21463 0.87431 0.61171 0.0
C3492 C 0.21774 0.86799 0.59892 0.0
C3493 C 0.22615 0.88841 0.61908 0.0
C3494 C 0.26262 0.92466 0.61316 0.0
H3495 H 0.28661 0.98211 0.67188 0.0
H3496 H 0.26903 0.95613 0.65942 0.0
H3497 H 0.28013 0.9491 0.61364 0.0
H3498 H 0.23542 0.8714 0.58392 0.0
H3499 H 0.25569 0.89606 0.59693 0.0
H3500 H 0.24761 0.90425 0.64377 0.0
C3501 C 0.28057 0.96306 0.6556 0.0
C3502 C 0.27324 0.93934 0.62034 0.0
C3503 C 0.29059 0.97797 0.66267 0.0
C3504 C 0.23271 0.87596 0.59379 0.0
C3505 C 0.24426 0.89013 0.60115 0.0
C3506 C 0.25461 0.91396 0.63706 0.0
C3507 C 0.28528 0.9573 0.64356 0.0
C3508 C 0.27452 0.94154 0.63594 0.0
C3509 C 0.24107 0.89654 0.61384 0.0
C3510 C 0.25307 0.91185 0.62145 0.0
H3511 H 0.32176 0.9887 0.64194 0.0
H3512 H 0.30427 0.96261 0.62962 0.0
H3513 H 0.26614 0.92987 0.65627 0.0
H3514 H 0.20326 0.86832 0.61606 0.0
H3515 H 0.22326 0.89311 0.62872 0.0
C3516 C 0.0114 0.29214 0.6976 0.0
C3517 C 0.00042 0.2964 0.69333 0.0
C3518 C 0.02494 0.29744 0.69004 0.0
C3519 C 0.04118 0.31308 0.65429 0.0
H3520 H 0.08092 0.32795 0.67583 0.0
C3521 C 0.09831 0.34514 0.6255 0.0
C3522 C 0.10921 0.34043 0.62853 0.0
C3523 C 0.08547 0.34016 0.63399 0.0
C3524 C 0.06989 0.32371 0.66966 0.0
H3525 H 0.99506 0.30966 0.67794 0.0
H3526 H 0.01864 0.31902 0.66494 0.0
H3527 H 0.0575 0.31799 0.68946 0.0
H3528 H 0.11553 0.32733 0.64322 0.0
H3529 H 0.093 0.3185 0.65797 0.0
H3530 H 0.05351 0.31881 0.63452 0.0
C3531 C 0.01674 0.31138 0.67392 0.0
C3532 C 0.05647 0.31797 0.67745 0.0
C3533 C 0.00325 0.30609 0.68144 0.0
C3534 C 0.10723 0.33102 0.64052 0.0
C3535 C 0.09441 0.32608 0.64905 0.0
C3536 C 0.05457 0.31883 0.64652 0.0
C3537 C 0.02773 0.30709 0.67808 0.0
C3538 C 0.04197 0.31269 0.66986 0.0
C3539 C 0.08326 0.3304 0.64573 0.0
C3540 C 0.06909 0.3243 0.65411 0.0
H3541 H 0.0095 0.28467 0.70673 0.0
H3542 H 0.03312 0.29381 0.69343 0.0
H3543 H 0.03017 0.30881 0.64806 0.0
H3544 H 0.09943 0.35226 0.61626 0.0
H3545 H 0.07719 0.34386 0.63129 0.0
C3546 C 0.30825 0.32672 0.67173 0.0
C3547 C 0.30162 0.31235 0.67857 0.0
C3548 C 0.29905 0.33052 0.6628 0.0
C3549 C 0.26205 0.31245 0.64024 0.0
H3550 H 0.26825 0.35479 0.64327 0.0
C3551 C 0.22014 0.32828 0.61046 0.0
C3552 C 0.22643 0.3431 0.60446 0.0
C3553 C 0.2295 0.32449 0.61913 0.0
C3554 C 0.26652 0.34297 0.64213 0.0
H3555 H 0.28013 0.29072 0.68154 0.0
H3556 H 0.26399 0.29737 0.66591 0.0
H3557 H 0.28398 0.34826 0.6595 0.0
H3558 H 0.24755 0.36544 0.60261 0.0
H3559 H 0.26401 0.35875 0.61763 0.0
H3560 H 0.24467 0.30716 0.62281 0.0
C3561 C 0.27635 0.30564 0.66738 0.0
C3562 C 0.2755 0.33922 0.65147 0.0
C3563 C 0.28556 0.30188 0.6764 0.0
C3564 C 0.24236 0.35398 0.60718 0.0
C3565 C 0.25176 0.35016 0.61582 0.0
C3566 C 0.25311 0.31621 0.63086 0.0
C3567 C 0.28301 0.31999 0.66045 0.0
C3568 C 0.27334 0.32391 0.65064 0.0
C3569 C 0.24541 0.33541 0.62201 0.0
C3570 C 0.25521 0.33151 0.63171 0.0
H3571 H 0.32061 0.33502 0.67318 0.0
H3572 H 0.30455 0.34158 0.65749 0.0
H3573 H 0.26029 0.30062 0.63918 0.0
H3574 H 0.20785 0.31977 0.60884 0.0
H3575 H 0.22417 0.31314 0.62393 0.0
C3576 C 0.68616 0.99087 0.65195 0.0
C3577 C 0.69459 0.00486 0.64473 0.0
C3578 C 0.68109 0.97618 0.64441 0.0
C3579 C 0.68807 0.95732 0.61156 0.0
H3580 H 0.64678 0.92263 0.61706 0.0
C3581 C 0.66094 0.89857 0.57555 0.0
C3582 C 0.65352 0.88468 0.58314 0.0
C3583 C 0.66531 0.91321 0.58278 0.0
C3584 C 0.65838 0.93217 0.6155 0.0
H3585 H 0.70441 0.01449 0.62402 0.0
H3586 H 0.69542 0.98889 0.61081 0.0
H3587 H 0.65606 0.94824 0.63047 0.0
H3588 H 0.64472 0.8753 0.60425 0.0
H3589 H 0.65223 0.90084 0.61683 0.0
H3590 H 0.69038 0.94126 0.59658 0.0
C3591 C 0.6929 0.98923 0.62235 0.0
C3592 C 0.66372 0.94683 0.6232 0.0
C3593 C 0.698 0.0039 0.62989 0.0
C3594 C 0.65019 0.88573 0.59801 0.0
C3595 C 0.65453 0.90037 0.60523 0.0
C3596 C 0.68272 0.94268 0.60383 0.0
C3597 C 0.68431 0.97518 0.62949 0.0
C3598 C 0.67864 0.95957 0.62134 0.0
C3599 C 0.66233 0.9143 0.59776 0.0
C3600 C 0.66782 0.92994 0.60572 0.0
H3601 H 0.6834 0.99125 0.6634 0.0
H3602 H 0.67471 0.96561 0.6503 0.0
H3603 H 0.69971 0.9668 0.61004 0.0
H3604 H 0.66347 0.89812 0.56402 0.0
H3605 H 0.67107 0.9237 0.57665 0.0
C3606 C -9e-05 0.71188 0.68892 0.0
C3607 C 0.98633 0.69958 0.68139 0.0
C3608 C 0.01349 0.72006 0.68143 0.0
C3609 C 0.02725 0.72996 0.64418 0.0
H3610 H 0.06515 0.73245 0.65977 0.0
C3611 C 0.07714 0.74481 0.60699 0.0
C3612 C 0.09239 0.75469 0.61303 0.0
C3613 C 0.06479 0.73886 0.61616 0.0
C3614 C 0.05475 0.73209 0.65536 0.0
H3615 H 0.97614 0.6864 0.66013 0.0
H3616 H -0.00035 0.70084 0.64705 0.0
H3617 H 0.04245 0.72159 0.67456 0.0
H3618 H 0.10679 0.7659 0.63339 0.0
H3619 H 0.08513 0.7557 0.6495 0.0
H3620 H 0.03936 0.74047 0.62506 0.0
C3621 C -0.00013 0.70413 0.65871 0.0
C3622 C 0.04177 0.72587 0.66384 0.0
C3623 C 0.98645 0.69583 0.66622 0.0
C3624 C 0.09512 0.75819 0.62849 0.0
C3625 C 0.08272 0.75235 0.63769 0.0
C3626 C 0.04022 0.7363 0.6358 0.0
C3627 C 0.01355 0.71623 0.66625 0.0
C3628 C 0.02782 0.72446 0.65817 0.0
C3629 C 0.06738 0.7428 0.63159 0.0
C3630 C 0.05402 0.73711 0.64112 0.0
H3631 H 0.00013 0.71495 0.70064 0.0
H3632 H 0.0239 0.72939 0.68745 0.0
H3633 H 0.01669 0.7292 0.63965 0.0
H3634 H 0.07475 0.74176 0.59512 0.0
H3635 H 0.05318 0.73118 0.61111 0.0
C3636 C 0.96683 0.64542 0.73502 0.0
C3637 C 0.95908 0.64139 0.72081 0.0
C3638 C 0.9707 0.63519 0.74167 0.0
C3639 C 0.9797 0.60431 0.73474 0.0
H3640 H 0.96587 0.59249 0.77421 0.0
C3641 C 0.98971 0.55943 0.76621 0.0
C3642 C 0.99238 0.56209 0.78173 0.0
C3643 C 0.98562 0.56876 0.75803 0.0
C3644 C 0.97006 0.59585 0.7633 0.0
H3645 H 0.94964 0.62371 0.70222 0.0
H3646 H 0.9568 0.60587 0.71382 0.0
H3647 H 0.95895 0.60951 0.76121 0.0
H3648 H 0.9937 0.57686 0.80085 0.0
H3649 H 0.98729 0.59358 0.78664 0.0
H3650 H 0.99134 0.59116 0.73701 0.0
C3651 C 0.9597 0.61691 0.71979 0.0
C3652 C 0.96597 0.6055 0.75583 0.0
C3653 C 0.95556 0.62706 0.71321 0.0
C3654 C 0.99146 0.57449 0.7889 0.0
C3655 C 0.98767 0.58396 0.78074 0.0
C3656 C 0.98403 0.59483 0.74233 0.0
C3657 C 0.96712 0.62084 0.73414 0.0
C3658 C 0.97085 0.60992 0.74156 0.0
C3659 C 0.98438 0.58104 0.76523 0.0
C3660 C 0.9794 0.59062 0.75679 0.0
H3661 H 0.96969 0.65639 0.74113 0.0
H3662 H 0.97652 0.6385 0.75271 0.0
H3663 H 0.98365 0.60766 0.72375 0.0
H3664 H 0.99031 0.54985 0.76049 0.0
H3665 H 0.98305 0.56605 0.74614 0.0
C3666 C 0.35845 0.34502 0.743 0.0
C3667 C 0.36121 0.34242 0.72828 0.0
C3668 C 0.36851 0.35929 0.75116 0.0
C3669 C 0.3953 0.4008 0.74702 0.0
H3670 H 0.41412 0.40125 0.78557 0.0
C3671 C 0.44527 0.45828 0.77618 0.0
C3672 C 0.44666 0.46008 0.79177 0.0
C3673 C 0.43415 0.44397 0.76878 0.0
C3674 C 0.40876 0.40139 0.77496 0.0
H3675 H 0.37654 0.35264 0.71052 0.0
H3676 H 0.39392 0.37776 0.7247 0.0
H3677 H 0.39592 0.37608 0.77209 0.0
H3678 H 0.43736 0.44859 0.81191 0.0
H3679 H 0.41743 0.42372 0.79904 0.0
H3680 H 0.40767 0.426 0.74991 0.0
C3681 C 0.38405 0.3687 0.72992 0.0
C3682 C 0.39841 0.38694 0.76722 0.0
C3683 C 0.37417 0.35433 0.72186 0.0
C3684 C 0.43654 0.44742 0.79986 0.0
C3685 C 0.42521 0.43316 0.79246 0.0
C3686 C 0.40542 0.41524 0.75485 0.0
C3687 C 0.3813 0.37129 0.74464 0.0
C3688 C 0.39176 0.38655 0.75311 0.0
C3689 C 0.42398 0.43118 0.77681 0.0
C3690 C 0.41247 0.41576 0.76885 0.0
H3691 H 0.34855 0.33602 0.74822 0.0
H3692 H 0.36614 0.36106 0.76248 0.0
H3693 H 0.39014 0.40077 0.73622 0.0
H3694 H 0.45313 0.46781 0.7697 0.0
H3695 H 0.43384 0.44285 0.75676 0.0
C3696 C 0.65294 0.03667 0.67784 0.0
C3697 C 0.66799 0.04659 0.6844 0.0
C3698 C 0.64001 0.03369 0.68562 0.0
C3699 C 0.62805 0.04755 0.719 0.0
H3700 H 0.59458 0.00394 0.71751 0.0
C3701 C 0.58472 0.02315 0.76446 0.0
C3702 C 0.5689 0.01348 0.75989 0.0
C3703 C 0.59601 0.02771 0.75414 0.0
C3704 C 0.60375 0.0162 0.7179 0.0
H3705 H 0.68134 0.06158 0.70402 0.0
H3706 H 0.65891 0.0562 0.71765 0.0
H3707 H 0.61571 0.01146 0.70115 0.0
H3708 H 0.55263 0.00107 0.74079 0.0
H3709 H 0.57246 0.00874 0.72284 0.0
H3710 H 0.61632 0.05211 0.73615 0.0
C3711 C 0.65698 0.05089 0.70643 0.0
C3712 C 0.61583 0.02054 0.70848 0.0
C3713 C 0.66988 0.05392 0.69864 0.0
C3714 C 0.5647 0.00831 0.74475 0.0
C3715 C 0.57604 0.01276 0.73444 0.0
C3716 C 0.61605 0.04317 0.72849 0.0
C3717 C 0.64188 0.04052 0.70014 0.0
C3718 C 0.62827 0.03623 0.70908 0.0
C3719 C 0.5918 0.0226 0.73903 0.0
C3720 C 0.6039 0.02741 0.7282 0.0
H3721 H 0.65114 0.03089 0.66685 0.0
H3722 H 0.62854 0.02585 0.68034 0.0
H3723 H 0.63726 0.05979 0.71955 0.0
H3724 H 0.58842 0.02708 0.77606 0.0
H3725 H 0.6081 0.03507 0.75804 0.0
loop_
_geom_bond_atom_site_label_1
_geom_bond_atom_site_label_2
_geom_bond_distance
_geom_bond_site_symmetry_2
_ccdc_geom_bond_type
In0 O1 2.294 1_455 S
In0 O2 2.326 . S
In0 O6 2.266 1_455 S
In0 O7 2.326 1_454 S
In0 O8 2.266 1_554 S
In0 O9 2.326 1_455 S
In0 O11 2.294 . S
In0 O12 2.326 . S
O1 In0 2.294 1_655 S
O1 C10 1.212 1_655 S
O2 In0 2.326 . S
O2 C10 1.311 . S
C3 O6 1.306 . S
C3 O7 1.243 1_554 S
C4 O11 1.240 . S
C4 O12 1.252 . S
C5 O8 1.252 . S
C5 O9 1.260 1_456 S
O6 In0 2.266 1_655 S
O6 C3 1.306 . S
O7 In0 2.326 1_656 S
O7 C3 1.243 1_556 S
O8 In0 2.266 1_556 S
O8 C5 1.252 . S
O9 In0 2.326 1_655 S
O9 C5 1.260 1_654 S
C10 O1 1.212 1_455 S
C10 O2 1.311 . S
O11 In0 2.294 . S
O11 C4 1.240 . S
O12 In0 2.326 . S
O12 C4 1.252 . S
In13 O14 2.294 . S
In13 O15 2.326 . S
In13 O19 2.266 . S
In13 O20 2.326 . S
In13 O21 2.266 . S
In13 O22 2.326 . S
In13 O24 2.294 . S
In13 O25 2.326 . S
O14 In13 2.294 . S
O14 C23 1.240 . S
O15 In13 2.326 . S
O15 C23 1.252 . S
C16 O19 1.252 . S
C16 O20 1.260 . S
C17 O24 1.240 . S
C17 O25 1.252 . S
C18 O21 1.252 . S
C18 O22 1.260 . S
O19 In13 2.266 . S
O19 C16 1.252 . S
O20 In13 2.326 . S
O20 C16 1.260 . S
O21 In13 2.266 . S
O21 C18 1.252 . S
O22 In13 2.326 . S
O22 C18 1.260 . S
C23 O14 1.240 . S
C23 O15 1.252 . S
O24 In13 2.294 . S
O24 C17 1.240 . S
O25 In13 2.326 . S
O25 C17 1.252 . S
In26 O27 2.309 . S
In26 O28 2.334 1_554 S
In26 O32 2.270 . S
In26 O33 2.315 1_545 S
In26 O34 2.257 1_545 S
In26 O35 2.328 1_545 S
In26 O37 2.285 1_544 S
In26 O38 2.327 . S
O27 In26 2.309 . S
O27 C36 1.240 . S
O28 In26 2.334 1_556 S
O28 C36 1.252 1_556 S
C29 O32 1.252 . S
C29 O33 1.260 1_545 S
C30 O37 1.240 . S
C30 O38 1.252 1_566 S
C31 O34 1.252 . S
C31 O35 1.260 . S
O32 In26 2.270 . S
O32 C29 1.252 . S
O33 In26 2.315 1_565 S
O33 C29 1.260 1_565 S
O34 In26 2.257 1_565 S
O34 C31 1.252 . S
O35 In26 2.328 1_565 S
O35 C31 1.260 . S
C36 O27 1.240 . S
C36 O28 1.252 1_554 S
O37 In26 2.285 1_566 S
O37 C30 1.240 . S
O38 In26 2.327 . S
O38 C30 1.252 1_544 S
In39 O40 2.292 . S
In39 O41 2.326 1_455 S
In39 O45 2.265 . S
In39 O46 2.326 . S
In39 O47 2.267 1_455 S
In39 O48 2.324 . S
In39 O50 2.296 1_455 S
In39 O51 2.327 1_455 S
O40 In39 2.292 . S
O40 C49 1.260 . S
O41 In39 2.326 1_655 S
O41 C49 1.215 1_655 S
C42 O45 1.252 . S
C42 O46 1.260 . S
C43 O50 1.240 . S
C43 O51 1.252 . S
C44 O47 1.309 . S
C44 O48 1.217 1_655 S
O45 In39 2.265 . S
O45 C42 1.252 . S
O46 In39 2.326 . S
O46 C42 1.260 . S
O47 In39 2.267 1_655 S
O47 C44 1.309 . S
O48 In39 2.324 . S
O48 C44 1.217 1_455 S
C49 O40 1.260 . S
C49 O41 1.215 1_455 S
O50 In39 2.296 1_655 S
O50 C43 1.240 . S
O51 In39 2.327 1_655 S
O51 C43 1.252 . S
In52 O53 2.294 1_554 S
In52 O54 2.326 1_554 S
In52 O58 2.266 . S
In52 O59 2.326 . S
In52 O60 2.266 . S
In52 O61 2.326 . S
In52 O63 2.294 1_554 S
In52 O64 2.326 1_554 S
O53 In52 2.294 1_556 S
O53 C62 1.240 . S
O54 In52 2.326 1_556 S
O54 C62 1.252 . S
C55 O58 1.252 . S
C55 O59 1.260 . S
C56 O63 1.240 . S
C56 O64 1.252 . S
C57 O60 1.252 . S
C57 O61 1.260 . S
O58 In52 2.266 . S
O58 C55 1.252 . S
O59 In52 2.326 . S
O59 C55 1.260 . S
O60 In52 2.266 . S
O60 C57 1.252 . S
O61 In52 2.326 . S
O61 C57 1.260 . S
C62 O53 1.240 . S
C62 O54 1.252 . S
O63 In52 2.294 1_556 S
O63 C56 1.240 . S
O64 In52 2.326 1_556 S
O64 C56 1.252 . S
In65 O66 2.293 . S
In65 O67 2.326 1_545 S
In65 O71 2.265 . S
In65 O72 2.326 . S
In65 O73 2.267 1_545 S
In65 O74 2.324 . S
In65 O76 2.296 1_545 S
In65 O77 2.327 1_545 S
O66 In65 2.293 . S
O66 C75 1.240 . S
O67 In65 2.326 1_565 S
O67 C75 1.252 1_565 S
C68 O71 1.252 . S
C68 O72 1.260 . S
C69 O76 1.240 . S
C69 O77 1.252 . S
C70 O73 1.252 . S
C70 O74 1.260 1_565 S
O71 In65 2.265 . S
O71 C68 1.252 . S
O72 In65 2.326 . S
O72 C68 1.260 . S
O73 In65 2.267 1_565 S
O73 C70 1.252 . S
O74 In65 2.324 . S
O74 C70 1.260 1_545 S
C75 O66 1.240 . S
C75 O67 1.252 1_545 S
O76 In65 2.296 1_565 S
O76 C69 1.240 . S
O77 In65 2.327 1_565 S
O77 C69 1.252 . S
In78 O79 2.294 . S
In78 O80 2.326 . S
In78 O84 2.266 . S
In78 O85 2.326 . S
In78 O86 2.266 . S
In78 O87 2.326 . S
In78 O89 2.294 . S
In78 O90 2.326 . S
O79 In78 2.294 . S
O79 C88 1.240 . S
O80 In78 2.326 . S
O80 C88 1.252 . S
C81 O84 1.252 . S
C81 O85 1.260 . S
C82 O89 1.240 . S
C82 O90 1.252 . S
C83 O86 1.252 . S
C83 O87 1.260 . S
O84 In78 2.266 . S
O84 C81 1.252 . S
O85 In78 2.326 . S
O85 C81 1.260 . S
O86 In78 2.266 . S
O86 C83 1.252 . S
O87 In78 2.326 . S
O87 C83 1.260 . S
C88 O79 1.240 . S
C88 O80 1.252 . S
O89 In78 2.294 . S
O89 C82 1.240 . S
O90 In78 2.326 . S
O90 C82 1.252 . S
In91 O92 2.294 . S
In91 O93 2.326 . S
In91 O97 2.266 . S
In91 O98 2.326 . S
In91 O99 2.266 . S
In91 O100 2.326 . S
In91 O102 2.294 . S
In91 O103 2.326 . S
O92 In91 2.294 . S
O92 C101 1.240 . S
O93 In91 2.326 . S
O93 C101 1.252 . S
C94 O97 1.252 . S
C94 O98 1.260 . S
C95 O102 1.240 . S
C95 O103 1.252 . S
C96 O99 1.252 . S
C96 O100 1.260 . S
O97 In91 2.266 . S
O97 C94 1.252 . S
O98 In91 2.326 . S
O98 C94 1.260 . S
O99 In91 2.266 . S
O99 C96 1.252 . S
O100 In91 2.326 . S
O100 C96 1.260 . S
C101 O92 1.240 . S
C101 O93 1.252 . S
O102 In91 2.294 . S
O102 C95 1.240 . S
O103 In91 2.326 . S
O103 C95 1.252 . S
In104 O105 2.294 . S
In104 O106 2.326 . S
In104 O110 2.266 . S
In104 O111 2.326 . S
In104 O112 2.266 . S
In104 O113 2.326 . S
In104 O115 2.294 . S
In104 O116 2.326 . S
O105 In104 2.294 . S
O105 C114 1.240 . S
O106 In104 2.326 . S
O106 C114 1.252 . S
C107 O110 1.252 . S
C107 O111 1.260 . S
C108 O115 1.240 . S
C108 O116 1.252 . S
C109 O112 1.252 . S
C109 O113 1.260 . S
O110 In104 2.266 . S
O110 C107 1.252 . S
O111 In104 2.326 . S
O111 C107 1.260 . S
O112 In104 2.266 . S
O112 C109 1.252 . S
O113 In104 2.326 . S
O113 C109 1.260 . S
C114 O105 1.240 . S
C114 O106 1.252 . S
O115 In104 2.294 . S
O115 C108 1.240 . S
O116 In104 2.326 . S
O116 C108 1.252 . S
In117 O118 2.294 . S
In117 O119 2.326 . S
In117 O123 2.266 . S
In117 O124 2.326 . S
In117 O125 2.266 . S
In117 O126 2.326 . S
In117 O128 2.294 . S
In117 O129 2.326 . S
O118 In117 2.294 . S
O118 C127 1.240 . S
O119 In117 2.326 . S
O119 C127 1.252 . S
C120 O123 1.252 . S
C120 O124 1.260 . S
C121 O128 1.240 . S
C121 O129 1.252 . S
C122 O125 1.252 . S
C122 O126 1.260 . S
O123 In117 2.266 . S
O123 C120 1.252 . S
O124 In117 2.326 . S
O124 C120 1.260 . S
O125 In117 2.266 . S
O125 C122 1.252 . S
O126 In117 2.326 . S
O126 C122 1.260 . S
C127 O118 1.240 . S
C127 O119 1.252 . S
O128 In117 2.294 . S
O128 C121 1.240 . S
O129 In117 2.326 . S
O129 C121 1.252 . S
In130 O131 2.294 . S
In130 O132 2.326 . S
In130 O136 2.266 . S
In130 O137 2.326 . S
In130 O138 2.266 . S
In130 O139 2.326 . S
In130 O141 2.294 . S
In130 O142 2.326 . S
O131 In130 2.294 . S
O131 C140 1.240 . S
O132 In130 2.326 . S
O132 C140 1.252 . S
C133 O136 1.252 . S
C133 O137 1.260 . S
C134 O141 1.240 . S
C134 O142 1.252 . S
C135 O138 1.252 . S
C135 O139 1.260 . S
O136 In130 2.266 . S
O136 C133 1.252 . S
O137 In130 2.326 . S
O137 C133 1.260 . S
O138 In130 2.266 . S
O138 C135 1.252 . S
O139 In130 2.326 . S
O139 C135 1.260 . S
C140 O131 1.240 . S
C140 O132 1.252 . S
O141 In130 2.294 . S
O141 C134 1.240 . S
O142 In130 2.326 . S
O142 C134 1.252 . S
In143 O144 2.294 . S
In143 O145 2.326 . S
In143 O149 2.266 . S
In143 O150 2.326 . S
In143 O151 2.266 . S
In143 O152 2.326 . S
In143 O154 2.294 . S
In143 O155 2.326 . S
O144 In143 2.294 . S
O144 C153 1.240 . S
O145 In143 2.326 . S
O145 C153 1.252 . S
C146 O149 1.252 . S
C146 O150 1.260 . S
C147 O154 1.240 . S
C147 O155 1.252 . S
C148 O151 1.252 . S
C148 O152 1.260 . S
O149 In143 2.266 . S
O149 C146 1.252 . S
O150 In143 2.326 . S
O150 C146 1.260 . S
O151 In143 2.266 . S
O151 C148 1.252 . S
O152 In143 2.326 . S
O152 C148 1.260 . S
C153 O144 1.240 . S
C153 O145 1.252 . S
O154 In143 2.294 . S
O154 C147 1.240 . S
O155 In143 2.326 . S
O155 C147 1.252 . S
In156 O157 2.294 . S
In156 O158 2.326 . S
In156 O162 2.266 . S
In156 O163 2.326 . S
In156 O164 2.266 . S
In156 O165 2.326 . S
In156 O167 2.294 . S
In156 O168 2.326 . S
O157 In156 2.294 . S
O157 C166 1.240 . S
O158 In156 2.326 . S
O158 C166 1.252 . S
C159 O162 1.252 . S
C159 O163 1.260 . S
C160 O167 1.240 . S
C160 O168 1.252 . S
C161 O164 1.252 . S
C161 O165 1.260 . S
O162 In156 2.266 . S
O162 C159 1.252 . S
O163 In156 2.326 . S
O163 C159 1.260 . S
O164 In156 2.266 . S
O164 C161 1.252 . S
O165 In156 2.326 . S
O165 C161 1.260 . S
C166 O157 1.240 . S
C166 O158 1.252 . S
O167 In156 2.294 . S
O167 C160 1.240 . S
O168 In156 2.326 . S
O168 C160 1.252 . S
In169 O170 2.294 . S
In169 O171 2.326 . S
In169 O175 2.266 . S
In169 O176 2.326 . S
In169 O177 2.266 . S
In169 O178 2.326 . S
In169 O180 2.294 . S
In169 O181 2.326 . S
O170 In169 2.294 . S
O170 C179 1.240 . S
O171 In169 2.326 . S
O171 C179 1.252 . S
C172 O175 1.252 . S
C172 O176 1.260 . S
C173 O180 1.240 . S
C173 O181 1.252 . S
C174 O177 1.252 . S
C174 O178 1.260 . S
O175 In169 2.266 . S
O175 C172 1.252 . S
O176 In169 2.326 . S
O176 C172 1.260 . S
O177 In169 2.266 . S
O177 C174 1.252 . S
O178 In169 2.326 . S
O178 C174 1.260 . S
C179 O170 1.240 . S
C179 O171 1.252 . S
O180 In169 2.294 . S
O180 C173 1.240 . S
O181 In169 2.326 . S
O181 C173 1.252 . S
In182 O183 2.294 . S
In182 O184 2.326 . S
In182 O188 2.266 . S
In182 O189 2.326 . S
In182 O190 2.266 . S
In182 O191 2.326 . S
In182 O193 2.294 . S
In182 O194 2.326 . S
O183 In182 2.294 . S
O183 C192 1.240 . S
O184 In182 2.326 . S
O184 C192 1.252 . S
C185 O188 1.252 . S
C185 O189 1.260 . S
C186 O193 1.240 . S
C186 O194 1.252 . S
C187 O190 1.252 . S
C187 O191 1.260 . S
O188 In182 2.266 . S
O188 C185 1.252 . S
O189 In182 2.326 . S
O189 C185 1.260 . S
O190 In182 2.266 . S
O190 C187 1.252 . S
O191 In182 2.326 . S
O191 C187 1.260 . S
C192 O183 1.240 . S
C192 O184 1.252 . S
O193 In182 2.294 . S
O193 C186 1.240 . S
O194 In182 2.326 . S
O194 C186 1.252 . S
In195 O196 2.294 . S
In195 O197 2.326 . S
In195 O201 2.266 . S
In195 O202 2.326 . S
In195 O203 2.266 . S
In195 O204 2.326 . S
In195 O206 2.294 . S
In195 O207 2.326 . S
O196 In195 2.294 . S
O196 C205 1.240 . S
O197 In195 2.326 . S
O197 C205 1.252 . S
C198 O201 1.252 . S
C198 O202 1.260 . S
C199 O206 1.240 . S
C199 O207 1.252 . S
C200 O203 1.252 . S
C200 O204 1.260 . S
O201 In195 2.266 . S
O201 C198 1.252 . S
O202 In195 2.326 . S
O202 C198 1.260 . S
O203 In195 2.266 . S
O203 C200 1.252 . S
O204 In195 2.326 . S
O204 C200 1.260 . S
C205 O196 1.240 . S
C205 O197 1.252 . S
O206 In195 2.294 . S
O206 C199 1.240 . S
O207 In195 2.326 . S
O207 C199 1.252 . S
In208 O209 2.294 . S
In208 O210 2.326 . S
In208 O214 2.266 . S
In208 O215 2.326 . S
In208 O216 2.266 . S
In208 O217 2.326 . S
In208 O219 2.294 . S
In208 O220 2.326 . S
O209 In208 2.294 . S
O209 C218 1.240 . S
O210 In208 2.326 . S
O210 C218 1.252 . S
C211 O214 1.252 . S
C211 O215 1.260 . S
C212 O219 1.240 . S
C212 O220 1.252 . S
C213 O216 1.252 . S
C213 O217 1.260 . S
O214 In208 2.266 . S
O214 C211 1.252 . S
O215 In208 2.326 . S
O215 C211 1.260 . S
O216 In208 2.266 . S
O216 C213 1.252 . S
O217 In208 2.326 . S
O217 C213 1.260 . S
C218 O209 1.240 . S
C218 O210 1.252 . S
O219 In208 2.294 . S
O219 C212 1.240 . S
O220 In208 2.326 . S
O220 C212 1.252 . S
In221 O222 2.294 . S
In221 O223 2.326 . S
In221 O227 2.266 . S
In221 O228 2.326 . S
In221 O229 2.266 . S
In221 O230 2.326 . S
In221 O232 2.294 . S
In221 O233 2.326 . S
O222 In221 2.294 . S
O222 C231 1.240 . S
O223 In221 2.326 . S
O223 C231 1.252 . S
C224 O227 1.252 . S
C224 O228 1.260 . S
C225 O232 1.240 . S
C225 O233 1.252 . S
C226 O229 1.252 . S
C226 O230 1.260 . S
O227 In221 2.266 . S
O227 C224 1.252 . S
O228 In221 2.326 . S
O228 C224 1.260 . S
O229 In221 2.266 . S
O229 C226 1.252 . S
O230 In221 2.326 . S
O230 C226 1.260 . S
C231 O222 1.240 . S
C231 O223 1.252 . S
O232 In221 2.294 . S
O232 C225 1.240 . S
O233 In221 2.326 . S
O233 C225 1.252 . S
H234 O260 0.856 . S
H235 O263 0.854 . S
H236 C271 0.930 . S
H237 C272 0.930 . S
H238 C274 0.930 . S
H239 C275 0.930 . S
H240 C277 0.931 . S
H241 C278 0.930 . S
H242 C280 0.930 . S
H243 C281 0.929 . S
H244 C283 0.930 . S
H245 C284 0.931 . S
H246 C286 0.930 . S
H247 C287 0.929 . S
H248 C289 0.931 . S
H249 C290 0.930 . S
H250 C292 0.930 . S
H251 C293 0.932 . S
H252 C295 0.930 . S
H253 C296 0.929 . S
H254 C298 0.931 . S
H255 C299 0.930 . S
H256 C301 0.929 . S
H257 C302 0.931 . S
H258 C304 0.930 . S
H259 C305 0.929 . S
O260 H234 0.856 . S
O260 C306 1.300 . S
O261 C306 1.209 . S
O262 C307 1.199 . S
O263 H235 0.854 . S
O263 C307 1.297 . S
C264 C265 1.404 . S
C264 C269 1.397 . S
C264 C270 1.492 . S
C265 C264 1.404 . S
C265 C266 1.396 . S
C265 C276 1.492 . S
C266 C265 1.396 . S
C266 C267 1.397 . S
C266 C282 1.509 . S
C267 C266 1.397 . S
C267 C268 1.412 . S
C267 C288 1.485 . S
C268 C267 1.412 . S
C268 C269 1.388 . S
C268 C294 1.490 . S
C269 C264 1.397 . S
C269 C268 1.388 . S
C269 C300 1.519 . S
C270 C264 1.492 . S
C270 C271 1.363 . S
C270 C275 1.390 . S
C271 H236 0.930 . S
C271 C270 1.363 . S
C271 C272 1.372 . S
C272 H237 0.930 . S
C272 C271 1.372 . S
C272 C273 1.383 . S
C273 C272 1.383 . S
C273 C274 1.395 . S
C274 H238 0.930 . S
C274 C273 1.395 . S
C274 C275 1.362 . S
C275 H239 0.930 . S
C275 C270 1.390 . S
C275 C274 1.362 . S
C276 C265 1.492 . S
C276 C277 1.377 . S
C276 C281 1.397 . S
C277 H240 0.931 . S
C277 C276 1.377 . S
C277 C278 1.376 . S
C278 H241 0.930 . S
C278 C277 1.376 . S
C278 C279 1.376 . S
C279 C278 1.376 . S
C279 C280 1.378 . S
C279 C306 1.486 . S
C280 H242 0.930 . S
C280 C279 1.378 . S
C280 C281 1.376 . S
C281 H243 0.929 . S
C281 C276 1.397 . S
C281 C280 1.376 . S
C282 C266 1.509 . S
C282 C283 1.391 . S
C282 C287 1.386 . S
C283 H244 0.930 . S
C283 C282 1.391 . S
C283 C284 1.375 . S
C284 H245 0.931 . S
C284 C283 1.375 . S
C284 C285 1.375 . S
C285 C284 1.375 . S
C285 C286 1.361 . S
C286 H246 0.930 . S
C286 C285 1.361 . S
C286 C287 1.399 . S
C287 H247 0.929 . S
C287 C282 1.386 . S
C287 C286 1.399 . S
C288 C267 1.485 . S
C288 C289 1.394 . S
C288 C293 1.360 . S
C289 H248 0.931 . S
C289 C288 1.394 . S
C289 C290 1.372 . S
C290 H249 0.930 . S
C290 C289 1.372 . S
C290 C291 1.397 . S
C291 C290 1.397 . S
C291 C292 1.390 . S
C291 C307 1.476 . S
C292 H250 0.930 . S
C292 C291 1.390 . S
C292 C293 1.366 . S
C293 H251 0.932 . S
C293 C288 1.360 . S
C293 C292 1.366 . S
C294 C268 1.490 . S
C294 C295 1.380 . S
C294 C299 1.386 . S
C295 H252 0.930 . S
C295 C294 1.380 . S
C295 C296 1.381 . S
C296 H253 0.929 . S
C296 C295 1.381 . S
C296 C297 1.371 . S
C297 C296 1.371 . S
C297 C298 1.380 . S
C298 H254 0.931 . S
C298 C297 1.380 . S
C298 C299 1.387 . S
C299 H255 0.930 . S
C299 C294 1.386 . S
C299 C298 1.387 . S
C300 C269 1.519 . S
C300 C301 1.377 . S
C300 C305 1.361 . S
C301 H256 0.929 . S
C301 C300 1.377 . S
C301 C302 1.386 . S
C302 H257 0.931 . S
C302 C301 1.386 . S
C302 C303 1.363 . S
C303 C302 1.363 . S
C303 C304 1.385 . S
C304 H258 0.930 . S
C304 C303 1.385 . S
C304 C305 1.396 . S
C305 H259 0.929 . S
C305 C300 1.361 . S
C305 C304 1.396 . S
C306 O260 1.300 . S
C306 O261 1.209 . S
C306 C279 1.486 . S
C307 O262 1.199 . S
C307 O263 1.297 . S
C307 C291 1.476 . S
H308 O334 0.856 . S
H309 O337 0.854 . S
H310 C345 0.930 . S
H311 C346 0.930 . S
H312 C348 0.930 . S
H313 C349 0.930 . S
H314 C351 0.931 . S
H315 C352 0.930 . S
H316 C354 0.930 . S
H317 C355 0.929 . S
H318 C357 0.930 . S
H319 C358 0.931 . S
H320 C360 0.930 . S
H321 C361 0.929 . S
H322 C363 0.931 . S
H323 C364 0.930 . S
H324 C366 0.930 . S
H325 C367 0.932 . S
H326 C369 0.930 . S
H327 C370 0.929 . S
H328 C372 0.931 . S
H329 C373 0.930 . S
H330 C375 0.929 . S
H331 C376 0.931 . S
H332 C378 0.930 . S
H333 C379 0.929 . S
O334 H308 0.856 . S
O334 C380 1.300 . S
O335 C380 1.209 . S
O336 C381 1.199 . S
O337 H309 0.854 . S
O337 C381 1.297 . S
C338 C339 1.404 . S
C338 C343 1.397 . S
C338 C344 1.492 . S
C339 C338 1.404 . S
C339 C340 1.396 . S
C339 C350 1.492 . S
C340 C339 1.396 . S
C340 C341 1.397 . S
C340 C356 1.509 . S
C341 C340 1.397 . S
C341 C342 1.412 . S
C341 C362 1.485 . S
C342 C341 1.412 . S
C342 C343 1.388 . S
C342 C368 1.490 . S
C343 C338 1.397 . S
C343 C342 1.388 . S
C343 C374 1.519 . S
C344 C338 1.492 . S
C344 C345 1.363 . S
C344 C349 1.390 . S
C345 H310 0.930 . S
C345 C344 1.363 . S
C345 C346 1.372 . S
C346 H311 0.930 . S
C346 C345 1.372 . S
C346 C347 1.383 . S
C347 C346 1.383 . S
C347 C348 1.395 . S
C348 H312 0.930 . S
C348 C347 1.395 . S
C348 C349 1.362 . S
C349 H313 0.930 . S
C349 C344 1.390 . S
C349 C348 1.362 . S
C350 C339 1.492 . S
C350 C351 1.377 . S
C350 C355 1.397 . S
C351 H314 0.931 . S
C351 C350 1.377 . S
C351 C352 1.376 . S
C352 H315 0.930 . S
C352 C351 1.376 . S
C352 C353 1.376 . S
C353 C352 1.376 . S
C353 C354 1.378 . S
C353 C380 1.486 . S
C354 H316 0.930 . S
C354 C353 1.378 . S
C354 C355 1.376 . S
C355 H317 0.929 . S
C355 C350 1.397 . S
C355 C354 1.376 . S
C356 C340 1.509 . S
C356 C357 1.391 . S
C356 C361 1.386 . S
C357 H318 0.930 . S
C357 C356 1.391 . S
C357 C358 1.375 . S
C358 H319 0.931 . S
C358 C357 1.375 . S
C358 C359 1.375 . S
C359 C358 1.375 . S
C359 C360 1.361 . S
C360 H320 0.930 . S
C360 C359 1.361 . S
C360 C361 1.399 . S
C361 H321 0.929 . S
C361 C356 1.386 . S
C361 C360 1.399 . S
C362 C341 1.485 . S
C362 C363 1.394 . S
C362 C367 1.360 . S
C363 H322 0.931 . S
C363 C362 1.394 . S
C363 C364 1.372 . S
C364 H323 0.930 . S
C364 C363 1.372 . S
C364 C365 1.397 . S
C365 C364 1.397 . S
C365 C366 1.390 . S
C365 C381 1.476 . S
C366 H324 0.930 . S
C366 C365 1.390 . S
C366 C367 1.366 . S
C367 H325 0.932 . S
C367 C362 1.360 . S
C367 C366 1.366 . S
C368 C342 1.490 . S
C368 C369 1.380 . S
C368 C373 1.386 . S
C369 H326 0.930 . S
C369 C368 1.380 . S
C369 C370 1.381 . S
C370 H327 0.929 . S
C370 C369 1.381 . S
C370 C371 1.371 . S
C371 C370 1.371 . S
C371 C372 1.380 . S
C372 H328 0.931 . S
C372 C371 1.380 . S
C372 C373 1.387 . S
C373 H329 0.930 . S
C373 C368 1.386 . S
C373 C372 1.387 . S
C374 C343 1.519 . S
C374 C375 1.377 . S
C374 C379 1.361 . S
C375 H330 0.929 . S
C375 C374 1.377 . S
C375 C376 1.386 . S
C376 H331 0.931 . S
C376 C375 1.386 . S
C376 C377 1.363 . S
C377 C376 1.363 . S
C377 C378 1.385 . S
C378 H332 0.930 . S
C378 C377 1.385 . S
C378 C379 1.396 . S
C379 H333 0.929 . S
C379 C374 1.361 . S
C379 C378 1.396 . S
C380 O334 1.300 . S
C380 O335 1.209 . S
C380 C353 1.486 . S
C381 O336 1.199 . S
C381 O337 1.297 . S
C381 C365 1.476 . S
H382 O408 0.856 . S
H383 O411 0.854 . S
H384 C419 0.930 . S
H385 C420 0.930 . S
H386 C422 0.930 . S
H387 C423 0.930 . S
H388 C425 0.931 . S
H389 C426 0.930 . S
H390 C428 0.930 . S
H391 C429 0.929 . S
H392 C431 0.930 . S
H393 C432 0.931 . S
H394 C434 0.930 . S
H395 C435 0.929 . S
H396 C437 0.931 . S
H397 C438 0.930 . S
H398 C440 0.930 . S
H399 C441 0.932 . S
H400 C443 0.930 . S
H401 C444 0.929 . S
H402 C446 0.931 . S
H403 C447 0.930 . S
H404 C449 0.929 . S
H405 C450 0.931 . S
H406 C452 0.930 . S
H407 C453 0.929 . S
O408 H382 0.856 . S
O408 C454 1.300 . S
O409 C454 1.209 . S
O410 C455 1.199 . S
O411 H383 0.854 . S
O411 C455 1.297 . S
C412 C413 1.404 . S
C412 C417 1.397 . S
C412 C418 1.492 . S
C413 C412 1.404 . S
C413 C414 1.396 . S
C413 C424 1.492 . S
C414 C413 1.396 . S
C414 C415 1.397 . S
C414 C430 1.509 . S
C415 C414 1.397 . S
C415 C416 1.412 . S
C415 C436 1.485 . S
C416 C415 1.412 . S
C416 C417 1.388 . S
C416 C442 1.490 . S
C417 C412 1.397 . S
C417 C416 1.388 . S
C417 C448 1.519 . S
C418 C412 1.492 . S
C418 C419 1.363 . S
C418 C423 1.390 . S
C419 H384 0.930 . S
C419 C418 1.363 . S
C419 C420 1.372 . S
C420 H385 0.930 . S
C420 C419 1.372 . S
C420 C421 1.383 . S
C421 C420 1.383 . S
C421 C422 1.395 . S
C422 H386 0.930 . S
C422 C421 1.395 . S
C422 C423 1.362 . S
C423 H387 0.930 . S
C423 C418 1.390 . S
C423 C422 1.362 . S
C424 C413 1.492 . S
C424 C425 1.377 . S
C424 C429 1.397 . S
C425 H388 0.931 . S
C425 C424 1.377 . S
C425 C426 1.376 . S
C426 H389 0.930 . S
C426 C425 1.376 . S
C426 C427 1.376 . S
C427 C426 1.376 . S
C427 C428 1.378 . S
C427 C454 1.486 . S
C428 H390 0.930 . S
C428 C427 1.378 . S
C428 C429 1.376 . S
C429 H391 0.929 . S
C429 C424 1.397 . S
C429 C428 1.376 . S
C430 C414 1.509 . S
C430 C431 1.391 . S
C430 C435 1.386 . S
C431 H392 0.930 . S
C431 C430 1.391 . S
C431 C432 1.375 . S
C432 H393 0.931 . S
C432 C431 1.375 . S
C432 C433 1.375 . S
C433 C432 1.375 . S
C433 C434 1.361 . S
C434 H394 0.930 . S
C434 C433 1.361 . S
C434 C435 1.399 . S
C435 H395 0.929 . S
C435 C430 1.386 . S
C435 C434 1.399 . S
C436 C415 1.485 . S
C436 C437 1.394 . S
C436 C441 1.360 . S
C437 H396 0.931 . S
C437 C436 1.394 . S
C437 C438 1.372 . S
C438 H397 0.930 . S
C438 C437 1.372 . S
C438 C439 1.397 . S
C439 C438 1.397 . S
C439 C440 1.390 . S
C439 C455 1.476 . S
C440 H398 0.930 . S
C440 C439 1.390 . S
C440 C441 1.366 . S
C441 H399 0.932 . S
C441 C436 1.360 . S
C441 C440 1.366 . S
C442 C416 1.490 . S
C442 C443 1.380 . S
C442 C447 1.386 . S
C443 H400 0.930 . S
C443 C442 1.380 . S
C443 C444 1.381 . S
C444 H401 0.929 . S
C444 C443 1.381 . S
C444 C445 1.371 . S
C445 C444 1.371 . S
C445 C446 1.380 . S
C446 H402 0.931 . S
C446 C445 1.380 . S
C446 C447 1.387 . S
C447 H403 0.930 . S
C447 C442 1.386 . S
C447 C446 1.387 . S
C448 C417 1.519 . S
C448 C449 1.377 . S
C448 C453 1.361 . S
C449 H404 0.929 . S
C449 C448 1.377 . S
C449 C450 1.386 . S
C450 H405 0.931 . S
C450 C449 1.386 . S
C450 C451 1.363 . S
C451 C450 1.363 . S
C451 C452 1.385 . S
C452 H406 0.930 . S
C452 C451 1.385 . S
C452 C453 1.396 . S
C453 H407 0.929 . S
C453 C448 1.361 . S
C453 C452 1.396 . S
C454 O408 1.300 . S
C454 O409 1.209 . S
C454 C427 1.486 . S
C455 O410 1.199 . S
C455 O411 1.297 . S
C455 C439 1.476 . S
H456 O482 0.856 . S
H457 O485 0.854 . S
H458 C493 0.930 . S
H459 C494 0.930 . S
H460 C496 0.930 . S
H461 C497 0.930 . S
H462 C499 0.931 . S
H463 C500 0.930 . S
H464 C502 0.930 . S
H465 C503 0.929 . S
H466 C505 0.930 . S
H467 C506 0.931 . S
H468 C508 0.930 . S
H469 C509 0.929 . S
H470 C511 0.931 . S
H471 C512 0.930 . S
H472 C514 0.930 . S
H473 C515 0.932 . S
H474 C517 0.930 . S
H475 C518 0.929 . S
H476 C520 0.931 . S
H477 C521 0.930 . S
H478 C523 0.929 . S
H479 C524 0.931 . S
H480 C526 0.930 . S
H481 C527 0.929 . S
O482 H456 0.856 . S
O482 C528 1.300 . S
O483 C528 1.209 . S
O484 C529 1.199 . S
O485 H457 0.854 . S
O485 C529 1.297 . S
C486 C487 1.404 . S
C486 C491 1.397 . S
C486 C492 1.492 . S
C487 C486 1.404 . S
C487 C488 1.396 . S
C487 C498 1.492 . S
C488 C487 1.396 . S
C488 C489 1.397 . S
C488 C504 1.509 . S
C489 C488 1.397 . S
C489 C490 1.412 . S
C489 C510 1.485 . S
C490 C489 1.412 . S
C490 C491 1.388 . S
C490 C516 1.490 . S
C491 C486 1.397 . S
C491 C490 1.388 . S
C491 C522 1.519 . S
C492 C486 1.492 . S
C492 C493 1.363 . S
C492 C497 1.390 . S
C493 H458 0.930 . S
C493 C492 1.363 . S
C493 C494 1.372 . S
C494 H459 0.930 . S
C494 C493 1.372 . S
C494 C495 1.383 . S
C495 C494 1.383 . S
C495 C496 1.395 . S
C496 H460 0.930 . S
C496 C495 1.395 . S
C496 C497 1.362 . S
C497 H461 0.930 . S
C497 C492 1.390 . S
C497 C496 1.362 . S
C498 C487 1.492 . S
C498 C499 1.377 . S
C498 C503 1.397 . S
C499 H462 0.931 . S
C499 C498 1.377 . S
C499 C500 1.376 . S
C500 H463 0.930 . S
C500 C499 1.376 . S
C500 C501 1.376 . S
C501 C500 1.376 . S
C501 C502 1.378 . S
C501 C528 1.486 . S
C502 H464 0.930 . S
C502 C501 1.378 . S
C502 C503 1.376 . S
C503 H465 0.929 . S
C503 C498 1.397 . S
C503 C502 1.376 . S
C504 C488 1.509 . S
C504 C505 1.391 . S
C504 C509 1.386 . S
C505 H466 0.930 . S
C505 C504 1.391 . S
C505 C506 1.375 . S
C506 H467 0.931 . S
C506 C505 1.375 . S
C506 C507 1.375 . S
C507 C506 1.375 . S
C507 C508 1.361 . S
C508 H468 0.930 . S
C508 C507 1.361 . S
C508 C509 1.399 . S
C509 H469 0.929 . S
C509 C504 1.386 . S
C509 C508 1.399 . S
C510 C489 1.485 . S
C510 C511 1.394 . S
C510 C515 1.360 . S
C511 H470 0.931 . S
C511 C510 1.394 . S
C511 C512 1.372 . S
C512 H471 0.930 . S
C512 C511 1.372 . S
C512 C513 1.397 . S
C513 C512 1.397 . S
C513 C514 1.390 . S
C513 C529 1.476 . S
C514 H472 0.930 . S
C514 C513 1.390 . S
C514 C515 1.366 . S
C515 H473 0.932 . S
C515 C510 1.360 . S
C515 C514 1.366 . S
C516 C490 1.490 . S
C516 C517 1.380 . S
C516 C521 1.386 . S
C517 H474 0.930 . S
C517 C516 1.380 . S
C517 C518 1.381 . S
C518 H475 0.929 . S
C518 C517 1.381 . S
C518 C519 1.371 . S
C519 C518 1.371 . S
C519 C520 1.380 . S
C520 H476 0.931 . S
C520 C519 1.380 . S
C520 C521 1.387 . S
C521 H477 0.930 . S
C521 C516 1.386 . S
C521 C520 1.387 . S
C522 C491 1.519 . S
C522 C523 1.377 . S
C522 C527 1.361 . S
C523 H478 0.929 . S
C523 C522 1.377 . S
C523 C524 1.386 . S
C524 H479 0.931 . S
C524 C523 1.386 . S
C524 C525 1.363 . S
C525 C524 1.363 . S
C525 C526 1.385 . S
C526 H480 0.930 . S
C526 C525 1.385 . S
C526 C527 1.396 . S
C527 H481 0.929 . S
C527 C522 1.361 . S
C527 C526 1.396 . S
C528 O482 1.300 . S
C528 O483 1.209 . S
C528 C501 1.486 . S
C529 O484 1.199 . S
C529 O485 1.297 . S
C529 C513 1.476 . S
H530 O556 0.856 . S
H531 O559 0.854 . S
H532 C567 0.930 . S
H533 C568 0.930 . S
H534 C570 0.930 . S
H535 C571 0.930 . S
H536 C573 0.931 . S
H537 C574 0.930 . S
H538 C576 0.930 . S
H539 C577 0.929 . S
H540 C579 0.930 . S
H541 C580 0.931 . S
H542 C582 0.930 . S
H543 C583 0.929 . S
H544 C585 0.931 . S
H545 C586 0.930 . S
H546 C588 0.930 . S
H547 C589 0.932 . S
H548 C591 0.930 . S
H549 C592 0.929 . S
H550 C594 0.931 . S
H551 C595 0.930 . S
H552 C597 0.929 . S
H553 C598 0.931 . S
H554 C600 0.930 . S
H555 C601 0.929 . S
O556 H530 0.856 . S
O556 C602 1.300 . S
O557 C602 1.209 . S
O558 C603 1.199 . S
O559 H531 0.854 . S
O559 C603 1.297 . S
C560 C561 1.404 . S
C560 C565 1.397 . S
C560 C566 1.492 . S
C561 C560 1.404 . S
C561 C562 1.396 . S
C561 C572 1.492 . S
C562 C561 1.396 . S
C562 C563 1.397 . S
C562 C578 1.509 . S
C563 C562 1.397 . S
C563 C564 1.412 . S
C563 C584 1.485 . S
C564 C563 1.412 . S
C564 C565 1.388 . S
C564 C590 1.490 . S
C565 C560 1.397 . S
C565 C564 1.388 . S
C565 C596 1.519 . S
C566 C560 1.492 . S
C566 C567 1.363 . S
C566 C571 1.390 . S
C567 H532 0.930 . S
C567 C566 1.363 . S
C567 C568 1.372 . S
C568 H533 0.930 . S
C568 C567 1.372 . S
C568 C569 1.383 . S
C569 C568 1.383 . S
C569 C570 1.395 . S
C570 H534 0.930 . S
C570 C569 1.395 . S
C570 C571 1.362 . S
C571 H535 0.930 . S
C571 C566 1.390 . S
C571 C570 1.362 . S
C572 C561 1.492 . S
C572 C573 1.377 . S
C572 C577 1.397 . S
C573 H536 0.931 . S
C573 C572 1.377 . S
C573 C574 1.376 . S
C574 H537 0.930 . S
C574 C573 1.376 . S
C574 C575 1.376 . S
C575 C574 1.376 . S
C575 C576 1.378 . S
C575 C602 1.486 . S
C576 H538 0.930 . S
C576 C575 1.378 . S
C576 C577 1.376 . S
C577 H539 0.929 . S
C577 C572 1.397 . S
C577 C576 1.376 . S
C578 C562 1.509 . S
C578 C579 1.391 . S
C578 C583 1.386 . S
C579 H540 0.930 . S
C579 C578 1.391 . S
C579 C580 1.375 . S
C580 H541 0.931 . S
C580 C579 1.375 . S
C580 C581 1.375 . S
C581 C580 1.375 . S
C581 C582 1.361 . S
C582 H542 0.930 . S
C582 C581 1.361 . S
C582 C583 1.399 . S
C583 H543 0.929 . S
C583 C578 1.386 . S
C583 C582 1.399 . S
C584 C563 1.485 . S
C584 C585 1.394 . S
C584 C589 1.360 . S
C585 H544 0.931 . S
C585 C584 1.394 . S
C585 C586 1.372 . S
C586 H545 0.930 . S
C586 C585 1.372 . S
C586 C587 1.397 . S
C587 C586 1.397 . S
C587 C588 1.390 . S
C587 C603 1.476 . S
C588 H546 0.930 . S
C588 C587 1.390 . S
C588 C589 1.366 . S
C589 H547 0.932 . S
C589 C584 1.360 . S
C589 C588 1.366 . S
C590 C564 1.490 . S
C590 C591 1.380 . S
C590 C595 1.386 . S
C591 H548 0.930 . S
C591 C590 1.380 . S
C591 C592 1.381 . S
C592 H549 0.929 . S
C592 C591 1.381 . S
C592 C593 1.371 . S
C593 C592 1.371 . S
C593 C594 1.380 . S
C594 H550 0.931 . S
C594 C593 1.380 . S
C594 C595 1.387 . S
C595 H551 0.930 . S
C595 C590 1.386 . S
C595 C594 1.387 . S
C596 C565 1.519 . S
C596 C597 1.377 . S
C596 C601 1.361 . S
C597 H552 0.929 . S
C597 C596 1.377 . S
C597 C598 1.386 . S
C598 H553 0.931 . S
C598 C597 1.386 . S
C598 C599 1.363 . S
C599 C598 1.363 . S
C599 C600 1.385 . S
C600 H554 0.930 . S
C600 C599 1.385 . S
C600 C601 1.396 . S
C601 H555 0.929 . S
C601 C596 1.361 . S
C601 C600 1.396 . S
C602 O556 1.300 . S
C602 O557 1.209 . S
C602 C575 1.486 . S
C603 O558 1.199 . S
C603 O559 1.297 . S
C603 C587 1.476 . S
H604 O630 0.856 . S
H605 O633 0.854 . S
H606 C641 0.930 . S
H607 C642 0.930 . S
H608 C644 0.930 . S
H609 C645 0.930 . S
H610 C647 0.931 . S
H611 C648 0.930 . S
H612 C650 0.930 . S
H613 C651 0.929 . S
H614 C653 0.930 . S
H615 C654 0.931 . S
H616 C656 0.930 . S
H617 C657 0.929 . S
H618 C659 0.931 . S
H619 C660 0.930 . S
H620 C662 0.930 . S
H621 C663 0.932 . S
H622 C665 0.930 . S
H623 C666 0.929 . S
H624 C668 0.931 . S
H625 C669 0.930 . S
H626 C671 0.929 . S
H627 C672 0.931 . S
H628 C674 0.930 . S
H629 C675 0.929 . S
O630 H604 0.856 . S
O630 C676 1.300 . S
O631 C676 1.209 . S
O632 C677 1.199 . S
O633 H605 0.854 . S
O633 C677 1.297 . S
C634 C635 1.404 . S
C634 C639 1.397 . S
C634 C640 1.492 . S
C635 C634 1.404 . S
C635 C636 1.396 . S
C635 C646 1.492 . S
C636 C635 1.396 . S
C636 C637 1.397 . S
C636 C652 1.509 . S
C637 C636 1.397 . S
C637 C638 1.412 . S
C637 C658 1.485 . S
C638 C637 1.412 . S
C638 C639 1.388 . S
C638 C664 1.490 . S
C639 C634 1.397 . S
C639 C638 1.388 . S
C639 C670 1.519 . S
C640 C634 1.492 . S
C640 C641 1.363 . S
C640 C645 1.390 . S
C641 H606 0.930 . S
C641 C640 1.363 . S
C641 C642 1.372 . S
C642 H607 0.930 . S
C642 C641 1.372 . S
C642 C643 1.383 . S
C643 C642 1.383 . S
C643 C644 1.395 . S
C644 H608 0.930 . S
C644 C643 1.395 . S
C644 C645 1.362 . S
C645 H609 0.930 . S
C645 C640 1.390 . S
C645 C644 1.362 . S
C646 C635 1.492 . S
C646 C647 1.377 . S
C646 C651 1.397 . S
C647 H610 0.931 . S
C647 C646 1.377 . S
C647 C648 1.376 . S
C648 H611 0.930 . S
C648 C647 1.376 . S
C648 C649 1.376 . S
C649 C648 1.376 . S
C649 C650 1.378 . S
C649 C676 1.486 . S
C650 H612 0.930 . S
C650 C649 1.378 . S
C650 C651 1.376 . S
C651 H613 0.929 . S
C651 C646 1.397 . S
C651 C650 1.376 . S
C652 C636 1.509 . S
C652 C653 1.391 . S
C652 C657 1.386 . S
C653 H614 0.930 . S
C653 C652 1.391 . S
C653 C654 1.375 . S
C654 H615 0.931 . S
C654 C653 1.375 . S
C654 C655 1.375 . S
C655 C654 1.375 . S
C655 C656 1.361 . S
C656 H616 0.930 . S
C656 C655 1.361 . S
C656 C657 1.399 . S
C657 H617 0.929 . S
C657 C652 1.386 . S
C657 C656 1.399 . S
C658 C637 1.485 . S
C658 C659 1.394 . S
C658 C663 1.360 . S
C659 H618 0.931 . S
C659 C658 1.394 . S
C659 C660 1.372 . S
C660 H619 0.930 . S
C660 C659 1.372 . S
C660 C661 1.397 . S
C661 C660 1.397 . S
C661 C662 1.390 . S
C661 C677 1.476 . S
C662 H620 0.930 . S
C662 C661 1.390 . S
C662 C663 1.366 . S
C663 H621 0.932 . S
C663 C658 1.360 . S
C663 C662 1.366 . S
C664 C638 1.490 . S
C664 C665 1.380 . S
C664 C669 1.386 . S
C665 H622 0.930 . S
C665 C664 1.380 . S
C665 C666 1.381 . S
C666 H623 0.929 . S
C666 C665 1.381 . S
C666 C667 1.371 . S
C667 C666 1.371 . S
C667 C668 1.380 . S
C668 H624 0.931 . S
C668 C667 1.380 . S
C668 C669 1.387 . S
C669 H625 0.930 . S
C669 C664 1.386 . S
C669 C668 1.387 . S
C670 C639 1.519 . S
C670 C671 1.377 . S
C670 C675 1.361 . S
C671 H626 0.929 . S
C671 C670 1.377 . S
C671 C672 1.386 . S
C672 H627 0.931 . S
C672 C671 1.386 . S
C672 C673 1.363 . S
C673 C672 1.363 . S
C673 C674 1.385 . S
C674 H628 0.930 . S
C674 C673 1.385 . S
C674 C675 1.396 . S
C675 H629 0.929 . S
C675 C670 1.361 . S
C675 C674 1.396 . S
C676 O630 1.300 . S
C676 O631 1.209 . S
C676 C649 1.486 . S
C677 O632 1.199 . S
C677 O633 1.297 . S
C677 C661 1.476 . S
H678 O704 0.856 . S
H679 O707 0.854 . S
H680 C715 0.930 . S
H681 C716 0.930 . S
H682 C718 0.930 . S
H683 C719 0.930 . S
H684 C721 0.931 . S
H685 C722 0.930 . S
H686 C724 0.930 . S
H687 C725 0.929 . S
H688 C727 0.930 . S
H689 C728 0.931 . S
H690 C730 0.930 . S
H691 C731 0.929 . S
H692 C733 0.931 . S
H693 C734 0.930 . S
H694 C736 0.930 . S
H695 C737 0.932 . S
H696 C739 0.930 . S
H697 C740 0.929 . S
H698 C742 0.931 . S
H699 C743 0.930 . S
H700 C745 0.929 . S
H701 C746 0.931 . S
H702 C748 0.930 . S
H703 C749 0.929 . S
O704 H678 0.856 . S
O704 C750 1.300 . S
O705 C750 1.209 . S
O706 C751 1.199 . S
O707 H679 0.854 . S
O707 C751 1.297 . S
C708 C709 1.404 . S
C708 C713 1.397 . S
C708 C714 1.492 . S
C709 C708 1.404 . S
C709 C710 1.396 . S
C709 C720 1.492 . S
C710 C709 1.396 . S
C710 C711 1.397 . S
C710 C726 1.509 . S
C711 C710 1.397 . S
C711 C712 1.412 . S
C711 C732 1.485 . S
C712 C711 1.412 . S
C712 C713 1.388 . S
C712 C738 1.490 . S
C713 C708 1.397 . S
C713 C712 1.388 . S
C713 C744 1.519 . S
C714 C708 1.492 . S
C714 C715 1.363 . S
C714 C719 1.390 . S
C715 H680 0.930 . S
C715 C714 1.363 . S
C715 C716 1.372 . S
C716 H681 0.930 . S
C716 C715 1.372 . S
C716 C717 1.383 . S
C717 C716 1.383 . S
C717 C718 1.395 . S
C718 H682 0.930 . S
C718 C717 1.395 . S
C718 C719 1.362 . S
C719 H683 0.930 . S
C719 C714 1.390 . S
C719 C718 1.362 . S
C720 C709 1.492 . S
C720 C721 1.377 . S
C720 C725 1.397 . S
C721 H684 0.931 . S
C721 C720 1.377 . S
C721 C722 1.376 . S
C722 H685 0.930 . S
C722 C721 1.376 . S
C722 C723 1.376 . S
C723 C722 1.376 . S
C723 C724 1.378 . S
C723 C750 1.486 . S
C724 H686 0.930 . S
C724 C723 1.378 . S
C724 C725 1.376 . S
C725 H687 0.929 . S
C725 C720 1.397 . S
C725 C724 1.376 . S
C726 C710 1.509 . S
C726 C727 1.391 . S
C726 C731 1.386 . S
C727 H688 0.930 . S
C727 C726 1.391 . S
C727 C728 1.375 . S
C728 H689 0.931 . S
C728 C727 1.375 . S
C728 C729 1.375 . S
C729 C728 1.375 . S
C729 C730 1.361 . S
C730 H690 0.930 . S
C730 C729 1.361 . S
C730 C731 1.399 . S
C731 H691 0.929 . S
C731 C726 1.386 . S
C731 C730 1.399 . S
C732 C711 1.485 . S
C732 C733 1.394 . S
C732 C737 1.360 . S
C733 H692 0.931 . S
C733 C732 1.394 . S
C733 C734 1.372 . S
C734 H693 0.930 . S
C734 C733 1.372 . S
C734 C735 1.397 . S
C735 C734 1.397 . S
C735 C736 1.390 . S
C735 C751 1.476 . S
C736 H694 0.930 . S
C736 C735 1.390 . S
C736 C737 1.366 . S
C737 H695 0.932 . S
C737 C732 1.360 . S
C737 C736 1.366 . S
C738 C712 1.490 . S
C738 C739 1.380 . S
C738 C743 1.386 . S
C739 H696 0.930 . S
C739 C738 1.380 . S
C739 C740 1.381 . S
C740 H697 0.929 . S
C740 C739 1.381 . S
C740 C741 1.371 . S
C741 C740 1.371 . S
C741 C742 1.380 . S
C742 H698 0.931 . S
C742 C741 1.380 . S
C742 C743 1.387 . S
C743 H699 0.930 . S
C743 C738 1.386 . S
C743 C742 1.387 . S
C744 C713 1.519 . S
C744 C745 1.377 . S
C744 C749 1.361 . S
C745 H700 0.929 . S
C745 C744 1.377 . S
C745 C746 1.386 . S
C746 H701 0.931 . S
C746 C745 1.386 . S
C746 C747 1.363 . S
C747 C746 1.363 . S
C747 C748 1.385 . S
C748 H702 0.930 . S
C748 C747 1.385 . S
C748 C749 1.396 . S
C749 H703 0.929 . S
C749 C744 1.361 . S
C749 C748 1.396 . S
C750 O704 1.300 . S
C750 O705 1.209 . S
C750 C723 1.486 . S
C751 O706 1.199 . S
C751 O707 1.297 . S
C751 C735 1.476 . S
H752 O778 0.856 . S
H753 O781 0.854 . S
H754 C789 0.930 . S
H755 C790 0.930 . S
H756 C792 0.930 . S
H757 C793 0.930 . S
H758 C795 0.931 . S
H759 C796 0.930 . S
H760 C798 0.930 . S
H761 C799 0.929 . S
H762 C801 0.930 . S
H763 C802 0.931 . S
H764 C804 0.930 . S
H765 C805 0.929 . S
H766 C807 0.931 . S
H767 C808 0.930 . S
H768 C810 0.930 . S
H769 C811 0.932 . S
H770 C813 0.930 . S
H771 C814 0.929 . S
H772 C816 0.931 . S
H773 C817 0.930 . S
H774 C819 0.929 . S
H775 C820 0.931 . S
H776 C822 0.930 . S
H777 C823 0.929 . S
O778 H752 0.856 . S
O778 C824 1.300 . S
O779 C824 1.209 . S
O780 C825 1.199 . S
O781 H753 0.854 . S
O781 C825 1.297 . S
C782 C783 1.404 . S
C782 C787 1.397 . S
C782 C788 1.492 . S
C783 C782 1.404 . S
C783 C784 1.396 . S
C783 C794 1.492 . S
C784 C783 1.396 . S
C784 C785 1.397 . S
C784 C800 1.509 . S
C785 C784 1.397 . S
C785 C786 1.412 . S
C785 C806 1.485 . S
C786 C785 1.412 . S
C786 C787 1.388 . S
C786 C812 1.490 . S
C787 C782 1.397 . S
C787 C786 1.388 . S
C787 C818 1.519 . S
C788 C782 1.492 . S
C788 C789 1.363 . S
C788 C793 1.390 . S
C789 H754 0.930 . S
C789 C788 1.363 . S
C789 C790 1.372 . S
C790 H755 0.930 . S
C790 C789 1.372 . S
C790 C791 1.383 . S
C791 C790 1.383 . S
C791 C792 1.395 . S
C792 H756 0.930 . S
C792 C791 1.395 . S
C792 C793 1.362 . S
C793 H757 0.930 . S
C793 C788 1.390 . S
C793 C792 1.362 . S
C794 C783 1.492 . S
C794 C795 1.377 . S
C794 C799 1.397 . S
C795 H758 0.931 . S
C795 C794 1.377 . S
C795 C796 1.376 . S
C796 H759 0.930 . S
C796 C795 1.376 . S
C796 C797 1.376 . S
C797 C796 1.376 . S
C797 C798 1.378 . S
C797 C824 1.486 . S
C798 H760 0.930 . S
C798 C797 1.378 . S
C798 C799 1.376 . S
C799 H761 0.929 . S
C799 C794 1.397 . S
C799 C798 1.376 . S
C800 C784 1.509 . S
C800 C801 1.391 . S
C800 C805 1.386 . S
C801 H762 0.930 . S
C801 C800 1.391 . S
C801 C802 1.375 . S
C802 H763 0.931 . S
C802 C801 1.375 . S
C802 C803 1.375 . S
C803 C802 1.375 . S
C803 C804 1.361 . S
C804 H764 0.930 . S
C804 C803 1.361 . S
C804 C805 1.399 . S
C805 H765 0.929 . S
C805 C800 1.386 . S
C805 C804 1.399 . S
C806 C785 1.485 . S
C806 C807 1.394 . S
C806 C811 1.360 . S
C807 H766 0.931 . S
C807 C806 1.394 . S
C807 C808 1.372 . S
C808 H767 0.930 . S
C808 C807 1.372 . S
C808 C809 1.397 . S
C809 C808 1.397 . S
C809 C810 1.390 . S
C809 C825 1.476 . S
C810 H768 0.930 . S
C810 C809 1.390 . S
C810 C811 1.366 . S
C811 H769 0.932 . S
C811 C806 1.360 . S
C811 C810 1.366 . S
C812 C786 1.490 . S
C812 C813 1.380 . S
C812 C817 1.386 . S
C813 H770 0.930 . S
C813 C812 1.380 . S
C813 C814 1.381 . S
C814 H771 0.929 . S
C814 C813 1.381 . S
C814 C815 1.371 . S
C815 C814 1.371 . S
C815 C816 1.380 . S
C816 H772 0.931 . S
C816 C815 1.380 . S
C816 C817 1.387 . S
C817 H773 0.930 . S
C817 C812 1.386 . S
C817 C816 1.387 . S
C818 C787 1.519 . S
C818 C819 1.377 . S
C818 C823 1.361 . S
C819 H774 0.929 . S
C819 C818 1.377 . S
C819 C820 1.386 . S
C820 H775 0.931 . S
C820 C819 1.386 . S
C820 C821 1.363 . S
C821 C820 1.363 . S
C821 C822 1.385 . S
C822 H776 0.930 . S
C822 C821 1.385 . S
C822 C823 1.396 . S
C823 H777 0.929 . S
C823 C818 1.361 . S
C823 C822 1.396 . S
C824 O778 1.300 . S
C824 O779 1.209 . S
C824 C797 1.486 . S
C825 O780 1.199 . S
C825 O781 1.297 . S
C825 C809 1.476 . S
H826 O852 0.856 . S
H827 O855 0.854 . S
H828 C863 0.930 . S
H829 C864 0.930 . S
H830 C866 0.930 . S
H831 C867 0.930 . S
H832 C869 0.931 . S
H833 C870 0.930 . S
H834 C872 0.930 . S
H835 C873 0.929 . S
H836 C875 0.930 . S
H837 C876 0.931 . S
H838 C878 0.930 . S
H839 C879 0.929 . S
H840 C881 0.931 . S
H841 C882 0.930 . S
H842 C884 0.930 . S
H843 C885 0.932 . S
H844 C887 0.930 . S
H845 C888 0.929 . S
H846 C890 0.931 . S
H847 C891 0.930 . S
H848 C893 0.929 . S
H849 C894 0.931 . S
H850 C896 0.930 . S
H851 C897 0.929 . S
O852 H826 0.856 . S
O852 C898 1.300 . S
O853 C898 1.209 . S
O854 C899 1.199 . S
O855 H827 0.854 . S
O855 C899 1.297 . S
C856 C857 1.404 . S
C856 C861 1.397 . S
C856 C862 1.492 . S
C857 C856 1.404 . S
C857 C858 1.396 . S
C857 C868 1.492 . S
C858 C857 1.396 . S
C858 C859 1.397 . S
C858 C874 1.509 . S
C859 C858 1.397 . S
C859 C860 1.412 . S
C859 C880 1.485 . S
C860 C859 1.412 . S
C860 C861 1.388 . S
C860 C886 1.490 . S
C861 C856 1.397 . S
C861 C860 1.388 . S
C861 C892 1.519 . S
C862 C856 1.492 . S
C862 C863 1.363 . S
C862 C867 1.390 . S
C863 H828 0.930 . S
C863 C862 1.363 . S
C863 C864 1.372 . S
C864 H829 0.930 . S
C864 C863 1.372 . S
C864 C865 1.383 . S
C865 C864 1.383 . S
C865 C866 1.395 . S
C866 H830 0.930 . S
C866 C865 1.395 . S
C866 C867 1.362 . S
C867 H831 0.930 . S
C867 C862 1.390 . S
C867 C866 1.362 . S
C868 C857 1.492 . S
C868 C869 1.377 . S
C868 C873 1.397 . S
C869 H832 0.931 . S
C869 C868 1.377 . S
C869 C870 1.376 . S
C870 H833 0.930 . S
C870 C869 1.376 . S
C870 C871 1.376 . S
C871 C870 1.376 . S
C871 C872 1.378 . S
C871 C898 1.486 . S
C872 H834 0.930 . S
C872 C871 1.378 . S
C872 C873 1.376 . S
C873 H835 0.929 . S
C873 C868 1.397 . S
C873 C872 1.376 . S
C874 C858 1.509 . S
C874 C875 1.391 . S
C874 C879 1.386 . S
C875 H836 0.930 . S
C875 C874 1.391 . S
C875 C876 1.375 . S
C876 H837 0.931 . S
C876 C875 1.375 . S
C876 C877 1.375 . S
C877 C876 1.375 . S
C877 C878 1.361 . S
C878 H838 0.930 . S
C878 C877 1.361 . S
C878 C879 1.399 . S
C879 H839 0.929 . S
C879 C874 1.386 . S
C879 C878 1.399 . S
C880 C859 1.485 . S
C880 C881 1.394 . S
C880 C885 1.360 . S
C881 H840 0.931 . S
C881 C880 1.394 . S
C881 C882 1.372 . S
C882 H841 0.930 . S
C882 C881 1.372 . S
C882 C883 1.397 . S
C883 C882 1.397 . S
C883 C884 1.390 . S
C883 C899 1.476 . S
C884 H842 0.930 . S
C884 C883 1.390 . S
C884 C885 1.366 . S
C885 H843 0.932 . S
C885 C880 1.360 . S
C885 C884 1.366 . S
C886 C860 1.490 . S
C886 C887 1.380 . S
C886 C891 1.386 . S
C887 H844 0.930 . S
C887 C886 1.380 . S
C887 C888 1.381 . S
C888 H845 0.929 . S
C888 C887 1.381 . S
C888 C889 1.371 . S
C889 C888 1.371 . S
C889 C890 1.380 . S
C890 H846 0.931 . S
C890 C889 1.380 . S
C890 C891 1.387 . S
C891 H847 0.930 . S
C891 C886 1.386 . S
C891 C890 1.387 . S
C892 C861 1.519 . S
C892 C893 1.377 . S
C892 C897 1.361 . S
C893 H848 0.929 . S
C893 C892 1.377 . S
C893 C894 1.386 . S
C894 H849 0.931 . S
C894 C893 1.386 . S
C894 C895 1.363 . S
C895 C894 1.363 . S
C895 C896 1.385 . S
C896 H850 0.930 . S
C896 C895 1.385 . S
C896 C897 1.396 . S
C897 H851 0.929 . S
C897 C892 1.361 . S
C897 C896 1.396 . S
C898 O852 1.300 . S
C898 O853 1.209 . S
C898 C871 1.486 . S
C899 O854 1.199 . S
C899 O855 1.297 . S
C899 C883 1.476 . S
H900 O926 0.856 . S
H901 O929 0.854 . S
H902 C937 0.930 . S
H903 C938 0.930 . S
H904 C940 0.930 . S
H905 C941 0.930 . S
H906 C943 0.931 . S
H907 C944 0.900 1_655 S
H908 C946 0.930 . S
H909 C947 0.929 . S
H910 C949 0.930 . S
H911 C950 0.926 1_655 S
H912 C952 0.930 . S
H913 C953 0.929 . S
H914 C955 0.931 . S
H915 C956 0.930 . S
H916 C958 0.930 . S
H917 C959 0.932 . S
H918 C961 0.930 . S
H919 C962 0.929 . S
H920 C964 0.931 . S
H921 C965 0.930 . S
H922 C967 0.929 . S
H923 C968 0.931 . S
H924 C970 0.930 . S
H925 C971 0.929 . S
O926 H900 0.856 . S
O926 C972 1.300 . S
O927 C972 1.209 . S
O928 C973 1.199 1_655 S
O929 H901 0.854 . S
O929 C973 1.297 . S
C930 C931 1.404 . S
C930 C935 1.394 . S
C930 C936 1.492 . S
C931 C930 1.404 . S
C931 C932 1.396 . S
C931 C942 1.492 . S
C932 C931 1.396 . S
C932 C933 1.397 . S
C932 C948 1.509 . S
C933 C932 1.397 . S
C933 C934 1.423 . S
C933 C954 1.485 . S
C934 C933 1.423 . S
C934 C935 1.404 . S
C934 C960 1.490 1_455 S
C935 C930 1.394 . S
C935 C934 1.404 . S
C935 C966 1.493 1_455 S
C936 C930 1.492 . S
C936 C937 1.363 1_455 S
C936 C941 1.390 . S
C937 H902 0.930 . S
C937 C936 1.363 1_655 S
C937 C938 1.372 . S
C938 H903 0.930 . S
C938 C937 1.372 . S
C938 C939 1.383 . S
C939 C938 1.383 . S
C939 C940 1.395 1_655 S
C940 H904 0.930 . S
C940 C939 1.395 1_455 S
C940 C941 1.362 . S
C941 H905 0.930 . S
C941 C936 1.390 . S
C941 C940 1.362 . S
C942 C931 1.492 . S
C942 C943 1.377 1_455 S
C942 C947 1.397 . S
C943 H906 0.931 . S
C943 C942 1.377 1_655 S
C943 C944 1.382 1_655 S
C944 H907 0.900 1_455 S
C944 C943 1.382 1_455 S
C944 C945 1.405 . S
C945 C944 1.405 . S
C945 C946 1.378 . S
C945 C972 1.486 . S
C946 H908 0.930 . S
C946 C945 1.378 . S
C946 C947 1.376 . S
C947 H909 0.929 . S
C947 C942 1.397 . S
C947 C946 1.376 . S
C948 C932 1.509 . S
C948 C949 1.391 1_455 S
C948 C953 1.386 . S
C949 H910 0.930 . S
C949 C948 1.391 1_655 S
C949 C950 1.368 1_655 S
C950 H911 0.926 1_455 S
C950 C949 1.368 1_455 S
C950 C951 1.387 . S
C951 C950 1.387 . S
C951 C952 1.361 . S
C952 H912 0.930 . S
C952 C951 1.361 . S
C952 C953 1.399 . S
C953 H913 0.929 . S
C953 C948 1.386 . S
C953 C952 1.399 . S
C954 C933 1.485 . S
C954 C955 1.394 1_455 S
C954 C959 1.360 . S
C955 H914 0.931 . S
C955 C954 1.394 1_655 S
C955 C956 1.372 . S
C956 H915 0.930 . S
C956 C955 1.372 . S
C956 C957 1.397 1_655 S
C957 C956 1.397 1_455 S
C957 C958 1.390 . S
C957 C973 1.476 . S
C958 H916 0.930 . S
C958 C957 1.390 . S
C958 C959 1.366 . S
C959 H917 0.932 . S
C959 C954 1.360 . S
C959 C958 1.366 . S
C960 C934 1.490 1_655 S
C960 C961 1.380 . S
C960 C965 1.386 1_655 S
C961 H918 0.930 . S
C961 C960 1.380 . S
C961 C962 1.381 . S
C962 H919 0.929 . S
C962 C961 1.381 . S
C962 C963 1.371 . S
C963 C962 1.371 . S
C963 C964 1.380 1_655 S
C964 H920 0.931 . S
C964 C963 1.380 1_455 S
C964 C965 1.387 . S
C965 H921 0.930 . S
C965 C960 1.386 1_455 S
C965 C964 1.387 . S
C966 C935 1.493 1_655 S
C966 C967 1.397 . S
C966 C971 1.347 1_655 S
C967 H922 0.929 . S
C967 C966 1.397 . S
C967 C968 1.386 . S
C968 H923 0.931 . S
C968 C967 1.386 . S
C968 C969 1.362 . S
C969 C968 1.362 . S
C969 C970 1.387 1_655 S
C970 H924 0.930 . S
C970 C969 1.387 1_455 S
C970 C971 1.396 . S
C971 H925 0.929 . S
C971 C966 1.347 1_455 S
C971 C970 1.396 . S
C972 O926 1.300 . S
C972 O927 1.209 . S
C972 C945 1.486 . S
C973 O928 1.199 1_455 S
C973 O929 1.297 . S
C973 C957 1.476 . S
H974 O1000 0.856 . S
H975 O1003 0.854 . S
H976 C1011 0.930 . S
H977 C1012 0.930 . S
H978 C1014 0.930 . S
H979 C1015 0.930 . S
H980 C1017 0.931 . S
H981 C1018 0.930 . S
H982 C1020 0.930 . S
H983 C1021 0.929 . S
H984 C1023 0.930 . S
H985 C1024 0.931 . S
H986 C1026 0.930 . S
H987 C1027 0.929 . S
H988 C1029 0.931 . S
H989 C1030 0.930 . S
H990 C1032 0.930 . S
H991 C1033 0.932 . S
H992 C1035 0.930 . S
H993 C1036 0.929 . S
H994 C1038 0.931 . S
H995 C1039 0.930 . S
H996 C1041 0.929 . S
H997 C1042 0.931 . S
H998 C1044 0.930 . S
H999 C1045 0.929 . S
O1000 H974 0.856 . S
O1000 C1046 1.300 . S
O1001 C1046 1.209 . S
O1002 C1047 1.199 . S
O1003 H975 0.854 . S
O1003 C1047 1.297 . S
C1004 C1005 1.404 . S
C1004 C1009 1.397 . S
C1004 C1010 1.492 . S
C1005 C1004 1.404 . S
C1005 C1006 1.396 . S
C1005 C1016 1.492 . S
C1006 C1005 1.396 . S
C1006 C1007 1.397 . S
C1006 C1022 1.509 . S
C1007 C1006 1.397 . S
C1007 C1008 1.412 . S
C1007 C1028 1.485 . S
C1008 C1007 1.412 . S
C1008 C1009 1.388 . S
C1008 C1034 1.490 . S
C1009 C1004 1.397 . S
C1009 C1008 1.388 . S
C1009 C1040 1.519 . S
C1010 C1004 1.492 . S
C1010 C1011 1.363 . S
C1010 C1015 1.390 . S
C1011 H976 0.930 . S
C1011 C1010 1.363 . S
C1011 C1012 1.372 . S
C1012 H977 0.930 . S
C1012 C1011 1.372 . S
C1012 C1013 1.383 . S
C1013 C1012 1.383 . S
C1013 C1014 1.395 . S
C1014 H978 0.930 . S
C1014 C1013 1.395 . S
C1014 C1015 1.362 . S
C1015 H979 0.930 . S
C1015 C1010 1.390 . S
C1015 C1014 1.362 . S
C1016 C1005 1.492 . S
C1016 C1017 1.377 . S
C1016 C1021 1.397 . S
C1017 H980 0.931 . S
C1017 C1016 1.377 . S
C1017 C1018 1.376 . S
C1018 H981 0.930 . S
C1018 C1017 1.376 . S
C1018 C1019 1.376 . S
C1019 C1018 1.376 . S
C1019 C1020 1.378 . S
C1019 C1046 1.486 . S
C1020 H982 0.930 . S
C1020 C1019 1.378 . S
C1020 C1021 1.376 . S
C1021 H983 0.929 . S
C1021 C1016 1.397 . S
C1021 C1020 1.376 . S
C1022 C1006 1.509 . S
C1022 C1023 1.391 . S
C1022 C1027 1.386 . S
C1023 H984 0.930 . S
C1023 C1022 1.391 . S
C1023 C1024 1.375 . S
C1024 H985 0.931 . S
C1024 C1023 1.375 . S
C1024 C1025 1.375 . S
C1025 C1024 1.375 . S
C1025 C1026 1.361 . S
C1026 H986 0.930 . S
C1026 C1025 1.361 . S
C1026 C1027 1.399 . S
C1027 H987 0.929 . S
C1027 C1022 1.386 . S
C1027 C1026 1.399 . S
C1028 C1007 1.485 . S
C1028 C1029 1.394 . S
C1028 C1033 1.360 . S
C1029 H988 0.931 . S
C1029 C1028 1.394 . S
C1029 C1030 1.372 . S
C1030 H989 0.930 . S
C1030 C1029 1.372 . S
C1030 C1031 1.397 . S
C1031 C1030 1.397 . S
C1031 C1032 1.390 . S
C1031 C1047 1.476 . S
C1032 H990 0.930 . S
C1032 C1031 1.390 . S
C1032 C1033 1.366 . S
C1033 H991 0.932 . S
C1033 C1028 1.360 . S
C1033 C1032 1.366 . S
C1034 C1008 1.490 . S
C1034 C1035 1.380 . S
C1034 C1039 1.386 . S
C1035 H992 0.930 . S
C1035 C1034 1.380 . S
C1035 C1036 1.381 . S
C1036 H993 0.929 . S
C1036 C1035 1.381 . S
C1036 C1037 1.371 . S
C1037 C1036 1.371 . S
C1037 C1038 1.380 . S
C1038 H994 0.931 . S
C1038 C1037 1.380 . S
C1038 C1039 1.387 . S
C1039 H995 0.930 . S
C1039 C1034 1.386 . S
C1039 C1038 1.387 . S
C1040 C1009 1.519 . S
C1040 C1041 1.377 . S
C1040 C1045 1.361 . S
C1041 H996 0.929 . S
C1041 C1040 1.377 . S
C1041 C1042 1.386 . S
C1042 H997 0.931 . S
C1042 C1041 1.386 . S
C1042 C1043 1.363 . S
C1043 C1042 1.363 . S
C1043 C1044 1.385 . S
C1044 H998 0.930 . S
C1044 C1043 1.385 . S
C1044 C1045 1.396 . S
C1045 H999 0.929 . S
C1045 C1040 1.361 . S
C1045 C1044 1.396 . S
C1046 O1000 1.300 . S
C1046 O1001 1.209 . S
C1046 C1019 1.486 . S
C1047 O1002 1.199 . S
C1047 O1003 1.297 . S
C1047 C1031 1.476 . S
H1048 O1074 0.856 . S
H1049 O1077 0.854 . S
H1050 C1085 0.930 . S
H1051 C1086 0.930 . S
H1052 C1088 0.930 . S
H1053 C1089 0.930 . S
H1054 C1091 0.931 . S
H1055 C1092 0.983 . S
H1056 C1094 0.930 . S
H1057 C1095 0.929 . S
H1058 C1097 0.930 . S
H1059 C1098 0.931 . S
H1060 C1100 0.930 . S
H1061 C1101 0.929 . S
H1062 C1103 0.931 . S
H1063 C1104 0.930 . S
H1064 C1106 0.930 . S
H1065 C1107 0.932 . S
H1066 C1109 0.930 . S
H1067 C1110 0.929 . S
H1068 C1112 0.931 . S
H1069 C1113 0.930 . S
H1070 C1115 0.929 . S
H1071 C1116 0.931 . S
H1072 C1118 0.930 . S
H1073 C1119 0.929 . S
O1074 H1048 0.856 . S
O1074 C1120 1.300 . S
O1075 C1120 1.209 . S
O1076 C1121 1.199 1_545 S
O1077 H1049 0.854 . S
O1077 C1121 1.297 . S
C1078 C1079 1.404 . S
C1078 C1083 1.412 . S
C1078 C1084 1.492 . S
C1079 C1078 1.404 . S
C1079 C1080 1.396 . S
C1079 C1090 1.492 . S
C1080 C1079 1.396 . S
C1080 C1081 1.397 . S
C1080 C1096 1.509 . S
C1081 C1080 1.397 . S
C1081 C1082 1.410 . S
C1081 C1102 1.485 . S
C1082 C1081 1.410 . S
C1082 C1083 1.370 . S
C1082 C1108 1.487 1_565 S
C1083 C1078 1.412 . S
C1083 C1082 1.370 . S
C1083 C1114 1.536 . S
C1084 C1078 1.492 . S
C1084 C1085 1.363 1_565 S
C1084 C1089 1.390 . S
C1085 H1050 0.930 . S
C1085 C1084 1.363 1_545 S
C1085 C1086 1.372 . S
C1086 H1051 0.930 . S
C1086 C1085 1.372 . S
C1086 C1087 1.383 . S
C1087 C1086 1.383 . S
C1087 C1088 1.395 1_545 S
C1088 H1052 0.930 . S
C1088 C1087 1.395 1_565 S
C1088 C1089 1.362 . S
C1089 H1053 0.930 . S
C1089 C1084 1.390 . S
C1089 C1088 1.362 . S
C1090 C1079 1.492 . S
C1090 C1091 1.377 1_565 S
C1090 C1095 1.397 . S
C1091 H1054 0.931 . S
C1091 C1090 1.377 1_545 S
C1091 C1092 1.402 . S
C1092 H1055 0.983 . S
C1092 C1091 1.402 . S
C1092 C1093 1.300 1_545 S
C1093 C1092 1.300 1_565 S
C1093 C1094 1.378 . S
C1093 C1120 1.486 . S
C1094 H1056 0.930 . S
C1094 C1093 1.378 . S
C1094 C1095 1.376 . S
C1095 H1057 0.929 . S
C1095 C1090 1.397 . S
C1095 C1094 1.376 . S
C1096 C1080 1.509 . S
C1096 C1097 1.391 1_565 S
C1096 C1101 1.386 . S
C1097 H1058 0.930 . S
C1097 C1096 1.391 1_545 S
C1097 C1098 1.375 . S
C1098 H1059 0.931 . S
C1098 C1097 1.375 . S
C1098 C1099 1.375 1_545 S
C1099 C1098 1.375 1_565 S
C1099 C1100 1.361 . S
C1100 H1060 0.930 . S
C1100 C1099 1.361 . S
C1100 C1101 1.399 . S
C1101 H1061 0.929 . S
C1101 C1096 1.386 . S
C1101 C1100 1.399 . S
C1102 C1081 1.485 . S
C1102 C1103 1.394 1_565 S
C1102 C1107 1.360 . S
C1103 H1062 0.931 . S
C1103 C1102 1.394 1_545 S
C1103 C1104 1.372 . S
C1104 H1063 0.930 . S
C1104 C1103 1.372 . S
C1104 C1105 1.397 1_545 S
C1105 C1104 1.397 1_565 S
C1105 C1106 1.390 . S
C1105 C1121 1.476 . S
C1106 H1064 0.930 . S
C1106 C1105 1.390 . S
C1106 C1107 1.366 . S
C1107 H1065 0.932 . S
C1107 C1102 1.360 . S
C1107 C1106 1.366 . S
C1108 C1082 1.487 1_545 S
C1108 C1109 1.380 . S
C1108 C1113 1.386 1_545 S
C1109 H1066 0.930 . S
C1109 C1108 1.380 . S
C1109 C1110 1.381 . S
C1110 H1067 0.929 . S
C1110 C1109 1.381 . S
C1110 C1111 1.371 . S
C1111 C1110 1.371 . S
C1111 C1112 1.380 1_545 S
C1112 H1068 0.931 . S
C1112 C1111 1.380 1_565 S
C1112 C1113 1.387 . S
C1113 H1069 0.930 . S
C1113 C1108 1.386 1_565 S
C1113 C1112 1.387 . S
C1114 C1083 1.536 . S
C1114 C1115 1.379 1_565 S
C1114 C1119 1.356 . S
C1115 H1070 0.929 . S
C1115 C1114 1.379 1_545 S
C1115 C1116 1.386 . S
C1116 H1071 0.931 . S
C1116 C1115 1.386 . S
C1116 C1117 1.301 1_545 S
C1117 C1116 1.301 1_565 S
C1117 C1118 1.419 . S
C1118 H1072 0.930 . S
C1118 C1117 1.419 . S
C1118 C1119 1.396 . S
C1119 H1073 0.929 . S
C1119 C1114 1.356 . S
C1119 C1118 1.396 . S
C1120 O1074 1.300 . S
C1120 O1075 1.209 . S
C1120 C1093 1.486 . S
C1121 O1076 1.199 1_565 S
C1121 O1077 1.297 . S
C1121 C1105 1.476 . S
H1122 O1148 0.856 . S
H1123 O1151 0.854 . S
H1124 C1159 0.930 . S
H1125 C1160 0.930 . S
H1126 C1162 0.930 . S
H1127 C1163 0.930 . S
H1128 C1165 0.931 . S
H1129 C1166 0.930 . S
H1130 C1168 0.930 . S
H1131 C1169 0.929 . S
H1132 C1171 0.930 . S
H1133 C1172 0.931 . S
H1134 C1174 0.930 . S
H1135 C1175 0.929 . S
H1136 C1177 0.931 . S
H1137 C1178 0.930 . S
H1138 C1180 0.930 . S
H1139 C1181 0.932 . S
H1140 C1183 0.930 . S
H1141 C1184 0.929 . S
H1142 C1186 0.931 . S
H1143 C1187 0.930 . S
H1144 C1189 0.929 . S
H1145 C1190 0.931 . S
H1146 C1192 0.930 . S
H1147 C1193 0.929 . S
O1148 H1122 0.856 . S
O1148 C1194 1.300 . S
O1149 C1194 1.209 1_565 S
O1150 C1195 1.199 1_545 S
O1151 H1123 0.854 . S
O1151 C1195 1.297 . S
C1152 C1153 1.404 . S
C1152 C1157 1.398 1_545 S
C1152 C1158 1.492 . S
C1153 C1152 1.404 . S
C1153 C1154 1.431 . S
C1153 C1164 1.492 . S
C1154 C1153 1.431 . S
C1154 C1155 1.381 1_545 S
C1154 C1170 1.505 . S
C1155 C1154 1.381 1_565 S
C1155 C1156 1.417 . S
C1155 C1176 1.492 . S
C1156 C1155 1.417 . S
C1156 C1157 1.371 . S
C1156 C1182 1.489 . S
C1157 C1152 1.398 1_565 S
C1157 C1156 1.371 . S
C1157 C1188 1.520 . S
C1158 C1152 1.492 . S
C1158 C1159 1.363 . S
C1158 C1163 1.390 1_545 S
C1159 H1124 0.930 . S
C1159 C1158 1.363 . S
C1159 C1160 1.372 . S
C1160 H1125 0.930 . S
C1160 C1159 1.372 . S
C1160 C1161 1.383 . S
C1161 C1160 1.383 . S
C1161 C1162 1.395 1_545 S
C1162 H1126 0.930 . S
C1162 C1161 1.395 1_565 S
C1162 C1163 1.362 . S
C1163 H1127 0.930 . S
C1163 C1158 1.390 1_565 S
C1163 C1162 1.362 . S
C1164 C1153 1.492 . S
C1164 C1165 1.377 . S
C1164 C1169 1.397 1_545 S
C1165 H1128 0.931 . S
C1165 C1164 1.377 . S
C1165 C1166 1.376 . S
C1166 H1129 0.930 . S
C1166 C1165 1.376 . S
C1166 C1167 1.376 . S
C1167 C1166 1.376 . S
C1167 C1168 1.378 1_545 S
C1167 C1194 1.486 . S
C1168 H1130 0.930 . S
C1168 C1167 1.378 1_565 S
C1168 C1169 1.376 . S
C1169 H1131 0.929 . S
C1169 C1164 1.397 1_565 S
C1169 C1168 1.376 . S
C1170 C1154 1.505 . S
C1170 C1171 1.413 . S
C1170 C1175 1.349 1_545 S
C1171 H1132 0.930 . S
C1171 C1170 1.413 . S
C1171 C1172 1.375 . S
C1172 H1133 0.931 . S
C1172 C1171 1.375 . S
C1172 C1173 1.391 . S
C1173 C1172 1.391 . S
C1173 C1174 1.353 1_545 S
C1174 H1134 0.930 . S
C1174 C1173 1.353 1_565 S
C1174 C1175 1.399 . S
C1175 H1135 0.929 . S
C1175 C1170 1.349 1_565 S
C1175 C1174 1.399 . S
C1176 C1155 1.492 . S
C1176 C1177 1.394 1_565 S
C1176 C1181 1.360 . S
C1177 H1136 0.931 . S
C1177 C1176 1.394 1_545 S
C1177 C1178 1.372 . S
C1178 H1137 0.930 . S
C1178 C1177 1.372 . S
C1178 C1179 1.397 1_545 S
C1179 C1178 1.397 1_565 S
C1179 C1180 1.390 . S
C1179 C1195 1.476 . S
C1180 H1138 0.930 . S
C1180 C1179 1.390 . S
C1180 C1181 1.366 . S
C1181 H1139 0.932 . S
C1181 C1176 1.360 . S
C1181 C1180 1.366 . S
C1182 C1156 1.489 . S
C1182 C1183 1.354 1_565 S
C1182 C1187 1.418 . S
C1183 H1140 0.930 . S
C1183 C1182 1.354 1_545 S
C1183 C1184 1.381 . S
C1184 H1141 0.929 . S
C1184 C1183 1.381 . S
C1184 C1185 1.410 . S
C1185 C1184 1.410 . S
C1185 C1186 1.348 1_545 S
C1186 H1142 0.931 . S
C1186 C1185 1.348 1_565 S
C1186 C1187 1.387 . S
C1187 H1143 0.930 . S
C1187 C1182 1.418 . S
C1187 C1186 1.387 . S
C1188 C1157 1.520 . S
C1188 C1189 1.377 1_565 S
C1188 C1193 1.361 . S
C1189 H1144 0.929 . S
C1189 C1188 1.377 1_545 S
C1189 C1190 1.386 . S
C1190 H1145 0.931 . S
C1190 C1189 1.386 . S
C1190 C1191 1.363 1_545 S
C1191 C1190 1.363 1_565 S
C1191 C1192 1.385 . S
C1192 H1146 0.930 . S
C1192 C1191 1.385 . S
C1192 C1193 1.396 . S
C1193 H1147 0.929 . S
C1193 C1188 1.361 . S
C1193 C1192 1.396 . S
C1194 O1148 1.300 . S
C1194 O1149 1.209 1_545 S
C1194 C1167 1.486 . S
C1195 O1150 1.199 1_565 S
C1195 O1151 1.297 . S
C1195 C1179 1.476 . S
H1196 O1222 0.856 . S
H1197 O1225 0.854 . S
H1198 C1233 0.930 . S
H1199 C1234 0.930 . S
H1200 C1236 0.930 . S
H1201 C1237 0.930 . S
H1202 C1239 0.931 . S
H1203 C1240 0.930 . S
H1204 C1242 0.930 . S
H1205 C1243 0.929 . S
H1206 C1245 0.930 . S
H1207 C1246 0.931 . S
H1208 C1248 0.930 . S
H1209 C1249 0.929 . S
H1210 C1251 0.931 . S
H1211 C1252 0.930 . S
H1212 C1254 0.930 . S
H1213 C1255 0.932 . S
H1214 C1257 0.930 . S
H1215 C1258 0.929 . S
H1216 C1260 0.931 . S
H1217 C1261 0.930 . S
H1218 C1263 0.929 . S
H1219 C1264 0.931 . S
H1220 C1266 0.930 . S
H1221 C1267 0.929 . S
O1222 H1196 0.856 . S
O1222 C1268 1.300 . S
O1223 C1268 1.209 1_455 S
O1224 C1269 1.199 1_655 S
O1225 H1197 0.854 . S
O1225 C1269 1.297 . S
C1226 C1227 1.404 . S
C1226 C1231 1.396 1_655 S
C1226 C1232 1.492 . S
C1227 C1226 1.404 . S
C1227 C1228 1.396 . S
C1227 C1238 1.492 . S
C1228 C1227 1.396 . S
C1228 C1229 1.398 . S
C1228 C1244 1.509 . S
C1229 C1228 1.398 . S
C1229 C1230 1.403 1_655 S
C1229 C1250 1.519 1_655 S
C1230 C1229 1.403 1_455 S
C1230 C1231 1.409 . S
C1230 C1256 1.498 . S
C1231 C1226 1.396 1_455 S
C1231 C1230 1.409 . S
C1231 C1262 1.514 . S
C1232 C1226 1.492 . S
C1232 C1233 1.363 . S
C1232 C1237 1.390 1_655 S
C1233 H1198 0.930 . S
C1233 C1232 1.363 . S
C1233 C1234 1.372 . S
C1234 H1199 0.930 . S
C1234 C1233 1.372 . S
C1234 C1235 1.383 . S
C1235 C1234 1.383 . S
C1235 C1236 1.395 1_655 S
C1236 H1200 0.930 . S
C1236 C1235 1.395 1_455 S
C1236 C1237 1.362 . S
C1237 H1201 0.930 . S
C1237 C1232 1.390 1_455 S
C1237 C1236 1.362 . S
C1238 C1227 1.492 . S
C1238 C1239 1.377 . S
C1238 C1243 1.397 1_655 S
C1239 H1202 0.931 . S
C1239 C1238 1.377 . S
C1239 C1240 1.376 . S
C1240 H1203 0.930 . S
C1240 C1239 1.376 . S
C1240 C1241 1.376 . S
C1241 C1240 1.376 . S
C1241 C1242 1.378 1_655 S
C1241 C1268 1.486 . S
C1242 H1204 0.930 . S
C1242 C1241 1.378 1_455 S
C1242 C1243 1.376 . S
C1243 H1205 0.929 . S
C1243 C1238 1.397 1_455 S
C1243 C1242 1.376 . S
C1244 C1228 1.509 . S
C1244 C1245 1.391 . S
C1244 C1249 1.386 1_655 S
C1245 H1206 0.930 . S
C1245 C1244 1.391 . S
C1245 C1246 1.375 . S
C1246 H1207 0.931 . S
C1246 C1245 1.375 . S
C1246 C1247 1.375 . S
C1247 C1246 1.375 . S
C1247 C1248 1.361 1_655 S
C1248 H1208 0.930 . S
C1248 C1247 1.361 1_455 S
C1248 C1249 1.399 . S
C1249 H1209 0.929 . S
C1249 C1244 1.386 1_455 S
C1249 C1248 1.399 . S
C1250 C1229 1.519 1_455 S
C1250 C1251 1.329 1_455 S
C1250 C1255 1.391 . S
C1251 H1210 0.931 . S
C1251 C1250 1.329 1_655 S
C1251 C1252 1.372 . S
C1252 H1211 0.930 . S
C1252 C1251 1.372 . S
C1252 C1253 1.397 1_655 S
C1253 C1252 1.397 1_455 S
C1253 C1254 1.390 . S
C1253 C1269 1.476 . S
C1254 H1212 0.930 . S
C1254 C1253 1.390 . S
C1254 C1255 1.366 . S
C1255 H1213 0.932 . S
C1255 C1250 1.391 . S
C1255 C1254 1.366 . S
C1256 C1230 1.498 . S
C1256 C1257 1.335 1_455 S
C1256 C1261 1.421 . S
C1257 H1214 0.930 . S
C1257 C1256 1.335 1_655 S
C1257 C1258 1.381 . S
C1258 H1215 0.929 . S
C1258 C1257 1.381 . S
C1258 C1259 1.346 1_655 S
C1259 C1258 1.346 1_455 S
C1259 C1260 1.419 . S
C1260 H1216 0.931 . S
C1260 C1259 1.419 . S
C1260 C1261 1.387 . S
C1261 H1217 0.930 . S
C1261 C1256 1.421 . S
C1261 C1260 1.387 . S
C1262 C1231 1.514 . S
C1262 C1263 1.377 1_455 S
C1262 C1267 1.361 . S
C1263 H1218 0.929 . S
C1263 C1262 1.377 1_655 S
C1263 C1264 1.386 . S
C1264 H1219 0.931 . S
C1264 C1263 1.386 . S
C1264 C1265 1.363 1_655 S
C1265 C1264 1.363 1_455 S
C1265 C1266 1.385 . S
C1266 H1220 0.930 . S
C1266 C1265 1.385 . S
C1266 C1267 1.396 . S
C1267 H1221 0.929 . S
C1267 C1262 1.361 . S
C1267 C1266 1.396 . S
C1268 O1222 1.300 . S
C1268 O1223 1.209 1_655 S
C1268 C1241 1.486 . S
C1269 O1224 1.199 1_455 S
C1269 O1225 1.297 . S
C1269 C1253 1.476 . S
H1270 O1296 0.856 . S
H1271 O1299 0.854 . S
H1272 C1307 0.930 . S
H1273 C1308 0.930 . S
H1274 C1310 0.930 . S
H1275 C1311 0.930 . S
H1276 C1313 0.931 . S
H1277 C1314 0.930 . S
H1278 C1316 0.930 . S
H1279 C1317 0.929 . S
H1280 C1319 0.930 . S
H1281 C1320 0.931 . S
H1282 C1322 0.930 . S
H1283 C1323 0.929 . S
H1284 C1325 0.931 . S
H1285 C1326 0.930 . S
H1286 C1328 0.930 . S
H1287 C1329 0.932 . S
H1288 C1331 0.930 . S
H1289 C1332 0.929 . S
H1290 C1334 0.931 . S
H1291 C1335 0.930 . S
H1292 C1337 0.929 . S
H1293 C1338 0.931 . S
H1294 C1340 0.930 . S
H1295 C1341 0.929 . S
O1296 H1270 0.856 . S
O1296 C1342 1.300 . S
O1297 C1342 1.209 . S
O1298 C1343 1.199 . S
O1299 H1271 0.854 . S
O1299 C1343 1.297 . S
C1300 C1301 1.404 . S
C1300 C1305 1.397 . S
C1300 C1306 1.492 . S
C1301 C1300 1.404 . S
C1301 C1302 1.396 . S
C1301 C1312 1.492 . S
C1302 C1301 1.396 . S
C1302 C1303 1.397 . S
C1302 C1318 1.509 . S
C1303 C1302 1.397 . S
C1303 C1304 1.412 . S
C1303 C1324 1.485 . S
C1304 C1303 1.412 . S
C1304 C1305 1.388 . S
C1304 C1330 1.490 . S
C1305 C1300 1.397 . S
C1305 C1304 1.388 . S
C1305 C1336 1.519 . S
C1306 C1300 1.492 . S
C1306 C1307 1.363 . S
C1306 C1311 1.390 . S
C1307 H1272 0.930 . S
C1307 C1306 1.363 . S
C1307 C1308 1.372 . S
C1308 H1273 0.930 . S
C1308 C1307 1.372 . S
C1308 C1309 1.383 . S
C1309 C1308 1.383 . S
C1309 C1310 1.395 . S
C1310 H1274 0.930 . S
C1310 C1309 1.395 . S
C1310 C1311 1.362 . S
C1311 H1275 0.930 . S
C1311 C1306 1.390 . S
C1311 C1310 1.362 . S
C1312 C1301 1.492 . S
C1312 C1313 1.377 . S
C1312 C1317 1.397 . S
C1313 H1276 0.931 . S
C1313 C1312 1.377 . S
C1313 C1314 1.376 . S
C1314 H1277 0.930 . S
C1314 C1313 1.376 . S
C1314 C1315 1.376 . S
C1315 C1314 1.376 . S
C1315 C1316 1.378 . S
C1315 C1342 1.486 . S
C1316 H1278 0.930 . S
C1316 C1315 1.378 . S
C1316 C1317 1.376 . S
C1317 H1279 0.929 . S
C1317 C1312 1.397 . S
C1317 C1316 1.376 . S
C1318 C1302 1.509 . S
C1318 C1319 1.391 . S
C1318 C1323 1.386 . S
C1319 H1280 0.930 . S
C1319 C1318 1.391 . S
C1319 C1320 1.375 . S
C1320 H1281 0.931 . S
C1320 C1319 1.375 . S
C1320 C1321 1.375 . S
C1321 C1320 1.375 . S
C1321 C1322 1.361 . S
C1322 H1282 0.930 . S
C1322 C1321 1.361 . S
C1322 C1323 1.399 . S
C1323 H1283 0.929 . S
C1323 C1318 1.386 . S
C1323 C1322 1.399 . S
C1324 C1303 1.485 . S
C1324 C1325 1.394 . S
C1324 C1329 1.360 . S
C1325 H1284 0.931 . S
C1325 C1324 1.394 . S
C1325 C1326 1.372 . S
C1326 H1285 0.930 . S
C1326 C1325 1.372 . S
C1326 C1327 1.397 . S
C1327 C1326 1.397 . S
C1327 C1328 1.390 . S
C1327 C1343 1.476 . S
C1328 H1286 0.930 . S
C1328 C1327 1.390 . S
C1328 C1329 1.366 . S
C1329 H1287 0.932 . S
C1329 C1324 1.360 . S
C1329 C1328 1.366 . S
C1330 C1304 1.490 . S
C1330 C1331 1.380 . S
C1330 C1335 1.386 . S
C1331 H1288 0.930 . S
C1331 C1330 1.380 . S
C1331 C1332 1.381 . S
C1332 H1289 0.929 . S
C1332 C1331 1.381 . S
C1332 C1333 1.371 . S
C1333 C1332 1.371 . S
C1333 C1334 1.380 . S
C1334 H1290 0.931 . S
C1334 C1333 1.380 . S
C1334 C1335 1.387 . S
C1335 H1291 0.930 . S
C1335 C1330 1.386 . S
C1335 C1334 1.387 . S
C1336 C1305 1.519 . S
C1336 C1337 1.377 . S
C1336 C1341 1.361 . S
C1337 H1292 0.929 . S
C1337 C1336 1.377 . S
C1337 C1338 1.386 . S
C1338 H1293 0.931 . S
C1338 C1337 1.386 . S
C1338 C1339 1.363 . S
C1339 C1338 1.363 . S
C1339 C1340 1.385 . S
C1340 H1294 0.930 . S
C1340 C1339 1.385 . S
C1340 C1341 1.396 . S
C1341 H1295 0.929 . S
C1341 C1336 1.361 . S
C1341 C1340 1.396 . S
C1342 O1296 1.300 . S
C1342 O1297 1.209 . S
C1342 C1315 1.486 . S
C1343 O1298 1.199 . S
C1343 O1299 1.297 . S
C1343 C1327 1.476 . S
H1344 O1370 0.856 . S
H1345 O1373 0.854 . S
H1346 C1381 0.930 . S
H1347 C1382 0.930 . S
H1348 C1384 0.930 . S
H1349 C1385 0.930 . S
H1350 C1387 0.931 . S
H1351 C1388 0.930 . S
H1352 C1390 0.930 . S
H1353 C1391 0.929 . S
H1354 C1393 0.930 . S
H1355 C1394 0.931 . S
H1356 C1396 0.930 . S
H1357 C1397 0.929 . S
H1358 C1399 0.931 . S
H1359 C1400 0.930 . S
H1360 C1402 0.930 . S
H1361 C1403 0.932 . S
H1362 C1405 0.930 . S
H1363 C1406 0.929 . S
H1364 C1408 0.931 . S
H1365 C1409 0.930 . S
H1366 C1411 0.929 . S
H1367 C1412 0.931 . S
H1368 C1414 0.930 . S
H1369 C1415 0.929 . S
O1370 H1344 0.856 . S
O1370 C1416 1.300 . S
O1371 C1416 1.209 . S
O1372 C1417 1.199 . S
O1373 H1345 0.854 . S
O1373 C1417 1.297 . S
C1374 C1375 1.404 . S
C1374 C1379 1.397 . S
C1374 C1380 1.492 . S
C1375 C1374 1.404 . S
C1375 C1376 1.396 . S
C1375 C1386 1.492 . S
C1376 C1375 1.396 . S
C1376 C1377 1.397 . S
C1376 C1392 1.509 . S
C1377 C1376 1.397 . S
C1377 C1378 1.412 . S
C1377 C1398 1.485 . S
C1378 C1377 1.412 . S
C1378 C1379 1.388 . S
C1378 C1404 1.490 . S
C1379 C1374 1.397 . S
C1379 C1378 1.388 . S
C1379 C1410 1.519 . S
C1380 C1374 1.492 . S
C1380 C1381 1.363 . S
C1380 C1385 1.390 . S
C1381 H1346 0.930 . S
C1381 C1380 1.363 . S
C1381 C1382 1.372 . S
C1382 H1347 0.930 . S
C1382 C1381 1.372 . S
C1382 C1383 1.383 . S
C1383 C1382 1.383 . S
C1383 C1384 1.395 . S
C1384 H1348 0.930 . S
C1384 C1383 1.395 . S
C1384 C1385 1.362 . S
C1385 H1349 0.930 . S
C1385 C1380 1.390 . S
C1385 C1384 1.362 . S
C1386 C1375 1.492 . S
C1386 C1387 1.377 . S
C1386 C1391 1.397 . S
C1387 H1350 0.931 . S
C1387 C1386 1.377 . S
C1387 C1388 1.376 . S
C1388 H1351 0.930 . S
C1388 C1387 1.376 . S
C1388 C1389 1.376 . S
C1389 C1388 1.376 . S
C1389 C1390 1.378 . S
C1389 C1416 1.486 . S
C1390 H1352 0.930 . S
C1390 C1389 1.378 . S
C1390 C1391 1.376 . S
C1391 H1353 0.929 . S
C1391 C1386 1.397 . S
C1391 C1390 1.376 . S
C1392 C1376 1.509 . S
C1392 C1393 1.391 . S
C1392 C1397 1.386 . S
C1393 H1354 0.930 . S
C1393 C1392 1.391 . S
C1393 C1394 1.375 . S
C1394 H1355 0.931 . S
C1394 C1393 1.375 . S
C1394 C1395 1.375 . S
C1395 C1394 1.375 . S
C1395 C1396 1.361 . S
C1396 H1356 0.930 . S
C1396 C1395 1.361 . S
C1396 C1397 1.399 . S
C1397 H1357 0.929 . S
C1397 C1392 1.386 . S
C1397 C1396 1.399 . S
C1398 C1377 1.485 . S
C1398 C1399 1.394 . S
C1398 C1403 1.360 . S
C1399 H1358 0.931 . S
C1399 C1398 1.394 . S
C1399 C1400 1.372 . S
C1400 H1359 0.930 . S
C1400 C1399 1.372 . S
C1400 C1401 1.397 . S
C1401 C1400 1.397 . S
C1401 C1402 1.390 . S
C1401 C1417 1.476 . S
C1402 H1360 0.930 . S
C1402 C1401 1.390 . S
C1402 C1403 1.366 . S
C1403 H1361 0.932 . S
C1403 C1398 1.360 . S
C1403 C1402 1.366 . S
C1404 C1378 1.490 . S
C1404 C1405 1.380 . S
C1404 C1409 1.386 . S
C1405 H1362 0.930 . S
C1405 C1404 1.380 . S
C1405 C1406 1.381 . S
C1406 H1363 0.929 . S
C1406 C1405 1.381 . S
C1406 C1407 1.371 . S
C1407 C1406 1.371 . S
C1407 C1408 1.380 . S
C1408 H1364 0.931 . S
C1408 C1407 1.380 . S
C1408 C1409 1.387 . S
C1409 H1365 0.930 . S
C1409 C1404 1.386 . S
C1409 C1408 1.387 . S
C1410 C1379 1.519 . S
C1410 C1411 1.377 . S
C1410 C1415 1.361 . S
C1411 H1366 0.929 . S
C1411 C1410 1.377 . S
C1411 C1412 1.386 . S
C1412 H1367 0.931 . S
C1412 C1411 1.386 . S
C1412 C1413 1.363 . S
C1413 C1412 1.363 . S
C1413 C1414 1.385 . S
C1414 H1368 0.930 . S
C1414 C1413 1.385 . S
C1414 C1415 1.396 . S
C1415 H1369 0.929 . S
C1415 C1410 1.361 . S
C1415 C1414 1.396 . S
C1416 O1370 1.300 . S
C1416 O1371 1.209 . S
C1416 C1389 1.486 . S
C1417 O1372 1.199 . S
C1417 O1373 1.297 . S
C1417 C1401 1.476 . S
H1418 O1444 0.856 . S
H1419 O1447 0.854 . S
H1420 C1455 0.930 . S
H1421 C1456 0.930 . S
H1422 C1458 0.930 . S
H1423 C1459 0.930 . S
H1424 C1461 0.931 . S
H1425 C1462 0.930 . S
H1426 C1464 0.930 . S
H1427 C1465 0.929 . S
H1428 C1467 0.930 . S
H1429 C1468 0.931 . S
H1430 C1470 0.930 . S
H1431 C1471 0.929 . S
H1432 C1473 0.931 . S
H1433 C1474 0.930 . S
H1434 C1476 0.930 . S
H1435 C1477 0.932 . S
H1436 C1479 0.930 . S
H1437 C1480 0.929 . S
H1438 C1482 0.931 . S
H1439 C1483 0.930 . S
H1440 C1485 0.929 . S
H1441 C1486 0.931 . S
H1442 C1488 0.930 . S
H1443 C1489 0.929 . S
O1444 H1418 0.856 . S
O1444 C1490 1.300 . S
O1445 C1490 1.209 . S
O1446 C1491 1.199 . S
O1447 H1419 0.854 . S
O1447 C1491 1.297 . S
C1448 C1449 1.404 . S
C1448 C1453 1.397 . S
C1448 C1454 1.492 . S
C1449 C1448 1.404 . S
C1449 C1450 1.396 . S
C1449 C1460 1.492 . S
C1450 C1449 1.396 . S
C1450 C1451 1.397 . S
C1450 C1466 1.509 . S
C1451 C1450 1.397 . S
C1451 C1452 1.412 . S
C1451 C1472 1.485 . S
C1452 C1451 1.412 . S
C1452 C1453 1.388 . S
C1452 C1478 1.490 . S
C1453 C1448 1.397 . S
C1453 C1452 1.388 . S
C1453 C1484 1.519 . S
C1454 C1448 1.492 . S
C1454 C1455 1.363 . S
C1454 C1459 1.390 . S
C1455 H1420 0.930 . S
C1455 C1454 1.363 . S
C1455 C1456 1.372 . S
C1456 H1421 0.930 . S
C1456 C1455 1.372 . S
C1456 C1457 1.383 . S
C1457 C1456 1.383 . S
C1457 C1458 1.395 . S
C1458 H1422 0.930 . S
C1458 C1457 1.395 . S
C1458 C1459 1.362 . S
C1459 H1423 0.930 . S
C1459 C1454 1.390 . S
C1459 C1458 1.362 . S
C1460 C1449 1.492 . S
C1460 C1461 1.377 . S
C1460 C1465 1.397 . S
C1461 H1424 0.931 . S
C1461 C1460 1.377 . S
C1461 C1462 1.376 . S
C1462 H1425 0.930 . S
C1462 C1461 1.376 . S
C1462 C1463 1.376 . S
C1463 C1462 1.376 . S
C1463 C1464 1.378 . S
C1463 C1490 1.486 . S
C1464 H1426 0.930 . S
C1464 C1463 1.378 . S
C1464 C1465 1.376 . S
C1465 H1427 0.929 . S
C1465 C1460 1.397 . S
C1465 C1464 1.376 . S
C1466 C1450 1.509 . S
C1466 C1467 1.391 . S
C1466 C1471 1.386 . S
C1467 H1428 0.930 . S
C1467 C1466 1.391 . S
C1467 C1468 1.375 . S
C1468 H1429 0.931 . S
C1468 C1467 1.375 . S
C1468 C1469 1.375 . S
C1469 C1468 1.375 . S
C1469 C1470 1.361 . S
C1470 H1430 0.930 . S
C1470 C1469 1.361 . S
C1470 C1471 1.399 . S
C1471 H1431 0.929 . S
C1471 C1466 1.386 . S
C1471 C1470 1.399 . S
C1472 C1451 1.485 . S
C1472 C1473 1.394 . S
C1472 C1477 1.360 . S
C1473 H1432 0.931 . S
C1473 C1472 1.394 . S
C1473 C1474 1.372 . S
C1474 H1433 0.930 . S
C1474 C1473 1.372 . S
C1474 C1475 1.397 . S
C1475 C1474 1.397 . S
C1475 C1476 1.390 . S
C1475 C1491 1.476 . S
C1476 H1434 0.930 . S
C1476 C1475 1.390 . S
C1476 C1477 1.366 . S
C1477 H1435 0.932 . S
C1477 C1472 1.360 . S
C1477 C1476 1.366 . S
C1478 C1452 1.490 . S
C1478 C1479 1.380 . S
C1478 C1483 1.386 . S
C1479 H1436 0.930 . S
C1479 C1478 1.380 . S
C1479 C1480 1.381 . S
C1480 H1437 0.929 . S
C1480 C1479 1.381 . S
C1480 C1481 1.371 . S
C1481 C1480 1.371 . S
C1481 C1482 1.380 . S
C1482 H1438 0.931 . S
C1482 C1481 1.380 . S
C1482 C1483 1.387 . S
C1483 H1439 0.930 . S
C1483 C1478 1.386 . S
C1483 C1482 1.387 . S
C1484 C1453 1.519 . S
C1484 C1485 1.377 . S
C1484 C1489 1.361 . S
C1485 H1440 0.929 . S
C1485 C1484 1.377 . S
C1485 C1486 1.386 . S
C1486 H1441 0.931 . S
C1486 C1485 1.386 . S
C1486 C1487 1.363 . S
C1487 C1486 1.363 . S
C1487 C1488 1.385 . S
C1488 H1442 0.930 . S
C1488 C1487 1.385 . S
C1488 C1489 1.396 . S
C1489 H1443 0.929 . S
C1489 C1484 1.361 . S
C1489 C1488 1.396 . S
C1490 O1444 1.300 . S
C1490 O1445 1.209 . S
C1490 C1463 1.486 . S
C1491 O1446 1.199 . S
C1491 O1447 1.297 . S
C1491 C1475 1.476 . S
H1492 O1518 0.856 . S
H1493 O1521 0.854 . S
H1494 C1529 0.930 . S
H1495 C1530 0.930 . S
H1496 C1532 0.930 . S
H1497 C1533 0.930 . S
H1498 C1535 0.931 . S
H1499 C1536 0.930 . S
H1500 C1538 0.930 . S
H1501 C1539 0.929 . S
H1502 C1541 0.930 . S
H1503 C1542 0.931 . S
H1504 C1544 0.930 . S
H1505 C1545 0.929 . S
H1506 C1547 0.931 . S
H1507 C1548 0.930 . S
H1508 C1550 0.930 . S
H1509 C1551 0.932 . S
H1510 C1553 0.930 . S
H1511 C1554 0.929 . S
H1512 C1556 0.931 . S
H1513 C1557 0.930 . S
H1514 C1559 0.929 . S
H1515 C1560 0.931 . S
H1516 C1562 0.930 . S
H1517 C1563 0.929 . S
O1518 H1492 0.856 . S
O1518 C1564 1.300 . S
O1519 C1564 1.209 . S
O1520 C1565 1.199 . S
O1521 H1493 0.854 . S
O1521 C1565 1.297 . S
C1522 C1523 1.404 . S
C1522 C1527 1.397 . S
C1522 C1528 1.492 . S
C1523 C1522 1.404 . S
C1523 C1524 1.396 . S
C1523 C1534 1.492 . S
C1524 C1523 1.396 . S
C1524 C1525 1.397 . S
C1524 C1540 1.509 . S
C1525 C1524 1.397 . S
C1525 C1526 1.412 . S
C1525 C1546 1.485 . S
C1526 C1525 1.412 . S
C1526 C1527 1.388 . S
C1526 C1552 1.490 . S
C1527 C1522 1.397 . S
C1527 C1526 1.388 . S
C1527 C1558 1.519 . S
C1528 C1522 1.492 . S
C1528 C1529 1.363 . S
C1528 C1533 1.390 . S
C1529 H1494 0.930 . S
C1529 C1528 1.363 . S
C1529 C1530 1.372 . S
C1530 H1495 0.930 . S
C1530 C1529 1.372 . S
C1530 C1531 1.383 . S
C1531 C1530 1.383 . S
C1531 C1532 1.395 . S
C1532 H1496 0.930 . S
C1532 C1531 1.395 . S
C1532 C1533 1.362 . S
C1533 H1497 0.930 . S
C1533 C1528 1.390 . S
C1533 C1532 1.362 . S
C1534 C1523 1.492 . S
C1534 C1535 1.377 . S
C1534 C1539 1.397 . S
C1535 H1498 0.931 . S
C1535 C1534 1.377 . S
C1535 C1536 1.376 . S
C1536 H1499 0.930 . S
C1536 C1535 1.376 . S
C1536 C1537 1.376 . S
C1537 C1536 1.376 . S
C1537 C1538 1.378 . S
C1537 C1564 1.486 . S
C1538 H1500 0.930 . S
C1538 C1537 1.378 . S
C1538 C1539 1.376 . S
C1539 H1501 0.929 . S
C1539 C1534 1.397 . S
C1539 C1538 1.376 . S
C1540 C1524 1.509 . S
C1540 C1541 1.391 . S
C1540 C1545 1.386 . S
C1541 H1502 0.930 . S
C1541 C1540 1.391 . S
C1541 C1542 1.375 . S
C1542 H1503 0.931 . S
C1542 C1541 1.375 . S
C1542 C1543 1.375 . S
C1543 C1542 1.375 . S
C1543 C1544 1.361 . S
C1544 H1504 0.930 . S
C1544 C1543 1.361 . S
C1544 C1545 1.399 . S
C1545 H1505 0.929 . S
C1545 C1540 1.386 . S
C1545 C1544 1.399 . S
C1546 C1525 1.485 . S
C1546 C1547 1.394 . S
C1546 C1551 1.360 . S
C1547 H1506 0.931 . S
C1547 C1546 1.394 . S
C1547 C1548 1.372 . S
C1548 H1507 0.930 . S
C1548 C1547 1.372 . S
C1548 C1549 1.397 . S
C1549 C1548 1.397 . S
C1549 C1550 1.390 . S
C1549 C1565 1.476 . S
C1550 H1508 0.930 . S
C1550 C1549 1.390 . S
C1550 C1551 1.366 . S
C1551 H1509 0.932 . S
C1551 C1546 1.360 . S
C1551 C1550 1.366 . S
C1552 C1526 1.490 . S
C1552 C1553 1.380 . S
C1552 C1557 1.386 . S
C1553 H1510 0.930 . S
C1553 C1552 1.380 . S
C1553 C1554 1.381 . S
C1554 H1511 0.929 . S
C1554 C1553 1.381 . S
C1554 C1555 1.371 . S
C1555 C1554 1.371 . S
C1555 C1556 1.380 . S
C1556 H1512 0.931 . S
C1556 C1555 1.380 . S
C1556 C1557 1.387 . S
C1557 H1513 0.930 . S
C1557 C1552 1.386 . S
C1557 C1556 1.387 . S
C1558 C1527 1.519 . S
C1558 C1559 1.377 . S
C1558 C1563 1.361 . S
C1559 H1514 0.929 . S
C1559 C1558 1.377 . S
C1559 C1560 1.386 . S
C1560 H1515 0.931 . S
C1560 C1559 1.386 . S
C1560 C1561 1.363 . S
C1561 C1560 1.363 . S
C1561 C1562 1.385 . S
C1562 H1516 0.930 . S
C1562 C1561 1.385 . S
C1562 C1563 1.396 . S
C1563 H1517 0.929 . S
C1563 C1558 1.361 . S
C1563 C1562 1.396 . S
C1564 O1518 1.300 . S
C1564 O1519 1.209 . S
C1564 C1537 1.486 . S
C1565 O1520 1.199 . S
C1565 O1521 1.297 . S
C1565 C1549 1.476 . S
C1566 C1567 1.349 . S
C1566 C1568 1.327 . S
C1566 H1591 0.950 . S
C1567 C1566 1.349 . S
C1567 C1583 1.349 1_655 S
C1568 C1566 1.327 . S
C1568 C1587 1.429 . S
C1568 H1592 0.950 . S
C1569 C1586 1.599 . S
C1569 C1588 1.358 . S
C1569 H1593 0.939 1_655 S
H1570 C1574 0.949 . S
C1571 C1572 1.349 . S
C1571 C1573 1.327 . S
C1571 H1594 0.950 . S
C1572 C1571 1.349 . S
C1572 C1584 1.349 . S
C1573 C1571 1.327 . S
C1573 C1589 1.429 . S
C1573 H1595 0.950 . S
C1574 H1570 0.949 . S
C1574 C1582 1.574 . S
C1574 C1590 1.368 . S
H1575 C1583 0.950 . S
H1576 C1581 0.950 . S
H1577 C1582 0.949 . S
H1578 C1584 0.950 . S
H1579 C1585 0.950 . S
H1580 C1586 0.950 1_455 S
C1581 H1576 0.950 . S
C1581 C1583 1.327 . S
C1581 C1587 1.429 1_455 S
C1582 C1574 1.574 . S
C1582 H1577 0.949 . S
C1582 C1588 1.368 . S
C1583 C1567 1.349 1_455 S
C1583 H1575 0.950 . S
C1583 C1581 1.327 . S
C1584 C1572 1.349 . S
C1584 H1578 0.950 . S
C1584 C1585 1.327 . S
C1585 H1579 0.950 . S
C1585 C1584 1.327 . S
C1585 C1589 1.429 . S
C1586 C1569 1.599 . S
C1586 H1580 0.950 1_655 S
C1586 C1590 1.368 . S
C1587 C1568 1.429 . S
C1587 C1581 1.429 1_655 S
C1587 C1588 1.523 . S
C1588 C1569 1.358 . S
C1588 C1582 1.368 . S
C1588 C1587 1.523 . S
C1589 C1573 1.429 . S
C1589 C1585 1.429 . S
C1589 C1590 1.523 . S
C1590 C1574 1.368 . S
C1590 C1586 1.368 . S
C1590 C1589 1.523 . S
H1591 C1566 0.950 . S
H1592 C1568 0.950 . S
H1593 C1569 0.939 1_455 S
H1594 C1571 0.950 . S
H1595 C1573 0.950 . S
C1596 C1597 1.349 . S
C1596 C1598 1.327 . S
C1596 H1621 0.950 . S
C1597 C1596 1.349 . S
C1597 C1613 1.349 . S
C1598 C1596 1.327 . S
C1598 C1617 1.429 . S
C1598 H1622 0.950 . S
C1599 C1616 1.574 . S
C1599 C1618 1.368 . S
C1599 H1623 0.949 . S
H1600 C1604 0.949 . S
C1601 C1602 1.349 . S
C1601 C1603 1.327 . S
C1601 H1624 0.950 . S
C1602 C1601 1.349 . S
C1602 C1614 1.349 . S
C1603 C1601 1.327 . S
C1603 C1619 1.429 . S
C1603 H1625 0.950 . S
C1604 H1600 0.949 . S
C1604 C1612 1.574 . S
C1604 C1620 1.368 . S
H1605 C1613 0.950 . S
H1606 C1611 0.950 . S
H1607 C1612 0.949 . S
H1608 C1614 0.950 . S
H1609 C1615 0.950 . S
H1610 C1616 0.949 . S
C1611 H1606 0.950 . S
C1611 C1613 1.327 . S
C1611 C1617 1.429 . S
C1612 C1604 1.574 . S
C1612 H1607 0.949 . S
C1612 C1618 1.368 . S
C1613 C1597 1.349 . S
C1613 H1605 0.950 . S
C1613 C1611 1.327 . S
C1614 C1602 1.349 . S
C1614 H1608 0.950 . S
C1614 C1615 1.327 . S
C1615 H1609 0.950 . S
C1615 C1614 1.327 . S
C1615 C1619 1.429 . S
C1616 C1599 1.574 . S
C1616 H1610 0.949 . S
C1616 C1620 1.368 . S
C1617 C1598 1.429 . S
C1617 C1611 1.429 . S
C1617 C1618 1.523 . S
C1618 C1599 1.368 . S
C1618 C1612 1.368 . S
C1618 C1617 1.523 . S
C1619 C1603 1.429 . S
C1619 C1615 1.429 . S
C1619 C1620 1.523 . S
C1620 C1604 1.368 . S
C1620 C1616 1.368 . S
C1620 C1619 1.523 . S
H1621 C1596 0.950 . S
H1622 C1598 0.950 . S
H1623 C1599 0.949 . S
H1624 C1601 0.950 . S
H1625 C1603 0.950 . S
C1626 C1627 1.349 1_565 S
C1626 C1628 1.327 . S
C1626 H1651 0.950 . S
C1627 C1626 1.349 1_545 S
C1627 C1643 1.349 . S
C1628 C1626 1.327 . S
C1628 C1647 1.429 1_565 S
C1628 H1652 0.950 . S
C1629 C1646 1.574 . S
C1629 C1648 1.368 . S
C1629 H1653 0.949 . S
H1630 C1634 0.949 . S
C1631 C1632 1.349 . S
C1631 C1633 1.327 . S
C1631 H1654 0.950 . S
C1632 C1631 1.349 . S
C1632 C1644 1.356 . S
C1633 C1631 1.327 . S
C1633 C1649 1.429 . S
C1633 H1655 0.950 . S
C1634 H1630 0.949 . S
C1634 C1642 1.574 . S
C1634 C1650 1.368 1_565 S
H1635 C1643 0.950 . S
H1636 C1641 0.950 . S
H1637 C1642 0.949 . S
H1638 C1644 0.941 1_565 S
H1639 C1645 0.950 . S
H1640 C1646 0.949 . S
C1641 H1636 0.950 . S
C1641 C1643 1.327 . S
C1641 C1647 1.429 . S
C1642 C1634 1.574 . S
C1642 H1637 0.949 . S
C1642 C1648 1.368 1_565 S
C1643 C1627 1.349 . S
C1643 H1635 0.950 . S
C1643 C1641 1.327 . S
C1644 C1632 1.356 . S
C1644 H1638 0.941 1_545 S
C1644 C1645 1.329 1_545 S
C1645 H1639 0.950 . S
C1645 C1644 1.329 1_565 S
C1645 C1649 1.429 1_565 S
C1646 C1629 1.574 . S
C1646 H1640 0.949 . S
C1646 C1650 1.368 . S
C1647 C1628 1.429 1_545 S
C1647 C1641 1.429 . S
C1647 C1648 1.523 . S
C1648 C1629 1.368 . S
C1648 C1642 1.368 1_545 S
C1648 C1647 1.523 . S
C1649 C1633 1.429 . S
C1649 C1645 1.429 1_545 S
C1649 C1650 1.523 . S
C1650 C1634 1.368 1_545 S
C1650 C1646 1.368 . S
C1650 C1649 1.523 . S
H1651 C1626 0.950 . S
H1652 C1628 0.950 . S
H1653 C1629 0.949 . S
H1654 C1631 0.950 . S
H1655 C1633 0.950 . S
C1656 C1657 1.349 1_545 S
C1656 C1658 1.327 . S
C1656 H1681 0.950 . S
C1657 C1656 1.349 1_565 S
C1657 C1673 1.349 . S
C1658 C1656 1.327 . S
C1658 C1677 1.429 1_545 S
C1658 H1682 0.950 . S
C1659 C1676 1.574 . S
C1659 C1678 1.368 . S
C1659 H1683 0.949 . S
H1660 C1664 0.949 . S
C1661 C1662 1.349 . S
C1661 C1663 1.327 . S
C1661 H1684 0.950 . S
C1662 C1661 1.349 . S
C1662 C1674 1.349 1_565 S
C1663 C1661 1.327 . S
C1663 C1679 1.429 . S
C1663 H1685 0.950 . S
C1664 H1660 0.949 . S
C1664 C1672 1.574 . S
C1664 C1680 1.368 1_545 S
H1665 C1673 0.950 . S
H1666 C1671 0.950 . S
H1667 C1672 0.949 . S
H1668 C1674 0.950 . S
H1669 C1675 0.950 . S
H1670 C1676 0.949 . S
C1671 H1666 0.950 . S
C1671 C1673 1.327 . S
C1671 C1677 1.429 . S
C1672 C1664 1.574 . S
C1672 H1667 0.949 . S
C1672 C1678 1.368 1_545 S
C1673 C1657 1.349 . S
C1673 H1665 0.950 . S
C1673 C1671 1.327 . S
C1674 C1662 1.349 1_545 S
C1674 H1668 0.950 . S
C1674 C1675 1.327 . S
C1675 H1669 0.950 . S
C1675 C1674 1.327 . S
C1675 C1679 1.429 1_545 S
C1676 C1659 1.574 . S
C1676 H1670 0.949 . S
C1676 C1680 1.368 . S
C1677 C1658 1.429 1_565 S
C1677 C1671 1.429 . S
C1677 C1678 1.523 . S
C1678 C1659 1.368 . S
C1678 C1672 1.368 1_565 S
C1678 C1677 1.523 . S
C1679 C1663 1.429 . S
C1679 C1675 1.429 1_565 S
C1679 C1680 1.523 . S
C1680 C1664 1.368 1_565 S
C1680 C1676 1.368 . S
C1680 C1679 1.523 . S
H1681 C1656 0.950 . S
H1682 C1658 0.950 . S
H1683 C1659 0.949 . S
H1684 C1661 0.950 . S
H1685 C1663 0.950 . S
C1686 C1687 1.349 . S
C1686 C1688 1.327 . S
C1686 H1711 0.950 . S
C1687 C1686 1.349 . S
C1687 C1703 1.349 1_455 S
C1688 C1686 1.327 . S
C1688 C1707 1.429 . S
C1688 H1712 0.950 . S
C1689 C1706 1.574 . S
C1689 C1708 1.368 1_655 S
C1689 H1713 0.949 . S
H1690 C1694 0.949 . S
C1691 C1692 1.360 . S
C1691 C1693 1.350 1_455 S
C1691 H1714 0.925 1_455 S
C1692 C1691 1.360 . S
C1692 C1704 1.349 . S
C1693 C1691 1.350 1_655 S
C1693 C1709 1.423 1_655 S
C1693 H1715 0.952 . S
C1694 H1690 0.949 . S
C1694 C1702 1.574 . S
C1694 C1710 1.368 . S
H1695 C1703 0.950 . S
H1696 C1701 0.950 . S
H1697 C1702 0.949 . S
H1698 C1704 0.950 . S
H1699 C1705 0.950 . S
H1700 C1706 0.949 . S
C1701 H1696 0.950 . S
C1701 C1703 1.327 . S
C1701 C1707 1.429 1_655 S
C1702 C1694 1.574 . S
C1702 H1697 0.949 . S
C1702 C1708 1.368 . S
C1703 C1687 1.349 1_655 S
C1703 H1695 0.950 . S
C1703 C1701 1.327 . S
C1704 C1692 1.349 . S
C1704 H1698 0.950 . S
C1704 C1705 1.327 . S
C1705 H1699 0.950 . S
C1705 C1704 1.327 . S
C1705 C1709 1.429 . S
C1706 C1689 1.574 . S
C1706 H1700 0.949 . S
C1706 C1710 1.368 1_655 S
C1707 C1688 1.429 . S
C1707 C1701 1.429 1_455 S
C1707 C1708 1.523 . S
C1708 C1689 1.368 1_455 S
C1708 C1702 1.368 . S
C1708 C1707 1.523 . S
C1709 C1693 1.423 1_455 S
C1709 C1705 1.429 . S
C1709 C1710 1.523 . S
C1710 C1694 1.368 . S
C1710 C1706 1.368 1_455 S
C1710 C1709 1.523 . S
H1711 C1686 0.950 . S
H1712 C1688 0.950 . S
H1713 C1689 0.949 . S
H1714 C1691 0.925 1_655 S
H1715 C1693 0.952 . S
C1716 C1717 1.349 . S
C1716 C1718 1.327 1_554 S
C1716 H1741 0.950 . S
C1717 C1716 1.349 . S
C1717 C1733 1.349 1_554 S
C1718 C1716 1.327 1_556 S
C1718 C1737 1.429 . S
C1718 H1742 0.950 . S
C1719 C1736 1.574 . S
C1719 C1738 1.368 . S
C1719 H1743 0.949 . S
H1720 C1724 0.949 . S
C1721 C1722 1.349 . S
C1721 C1723 1.327 . S
C1721 H1744 0.950 . S
C1722 C1721 1.349 . S
C1722 C1734 1.349 . S
C1723 C1721 1.327 . S
C1723 C1739 1.429 . S
C1723 H1745 0.950 . S
C1724 H1720 0.949 . S
C1724 C1732 1.574 . S
C1724 C1740 1.368 . S
H1725 C1733 0.950 . S
H1726 C1731 0.950 . S
H1727 C1732 0.949 . S
H1728 C1734 0.950 . S
H1729 C1735 0.950 . S
H1730 C1736 0.949 . S
C1731 H1726 0.950 . S
C1731 C1733 1.327 . S
C1731 C1737 1.429 . S
C1732 C1724 1.574 . S
C1732 H1727 0.949 . S
C1732 C1738 1.368 . S
C1733 C1717 1.349 1_556 S
C1733 H1725 0.950 . S
C1733 C1731 1.327 . S
C1734 C1722 1.349 . S
C1734 H1728 0.950 . S
C1734 C1735 1.327 . S
C1735 H1729 0.950 . S
C1735 C1734 1.327 . S
C1735 C1739 1.429 . S
C1736 C1719 1.574 . S
C1736 H1730 0.949 . S
C1736 C1740 1.368 . S
C1737 C1718 1.429 . S
C1737 C1731 1.429 . S
C1737 C1738 1.523 . S
C1738 C1719 1.368 . S
C1738 C1732 1.368 . S
C1738 C1737 1.523 . S
C1739 C1723 1.429 . S
C1739 C1735 1.429 . S
C1739 C1740 1.523 . S
C1740 C1724 1.368 . S
C1740 C1736 1.368 . S
C1740 C1739 1.523 . S
H1741 C1716 0.950 . S
H1742 C1718 0.950 . S
H1743 C1719 0.949 . S
H1744 C1721 0.950 . S
H1745 C1723 0.950 . S
C1746 C1747 1.343 1_556 S
C1746 C1748 1.327 . S
C1746 H1771 0.950 . S
C1747 C1746 1.343 1_554 S
C1747 C1763 1.346 1_454 S
C1748 C1746 1.327 . S
C1748 C1767 1.466 . S
C1748 H1772 0.950 . S
C1749 C1766 1.574 . S
C1749 C1768 1.329 1_655 S
C1749 H1773 0.949 . S
H1750 C1754 0.949 . S
C1751 C1752 1.318 1_655 S
C1751 C1753 1.327 . S
C1751 H1774 0.950 . S
C1752 C1751 1.318 1_455 S
C1752 C1764 1.367 . S
C1753 C1751 1.327 . S
C1753 C1769 1.407 1_655 S
C1753 H1775 0.950 . S
C1754 H1750 0.949 . S
C1754 C1762 1.574 . S
C1754 C1770 1.403 . S
H1755 C1763 0.917 1_554 S
H1756 C1761 0.950 . S
H1757 C1762 0.949 . S
H1758 C1764 0.950 . S
H1759 C1765 0.950 . S
H1760 C1766 0.949 . S
C1761 H1756 0.950 . S
C1761 C1763 1.327 . S
C1761 C1767 1.360 1_655 S
C1762 C1754 1.574 . S
C1762 H1757 0.949 . S
C1762 C1768 1.431 . S
C1763 C1747 1.346 1_656 S
C1763 H1755 0.917 1_556 S
C1763 C1761 1.327 . S
C1764 C1752 1.367 . S
C1764 H1758 0.950 . S
C1764 C1765 1.327 . S
C1765 H1759 0.950 . S
C1765 C1764 1.327 . S
C1765 C1769 1.472 . S
C1766 C1749 1.574 . S
C1766 H1760 0.949 . S
C1766 C1770 1.318 1_655 S
C1767 C1748 1.466 . S
C1767 C1761 1.360 1_455 S
C1767 C1768 1.526 . S
C1768 C1749 1.329 1_455 S
C1768 C1762 1.431 . S
C1768 C1767 1.526 . S
C1769 C1753 1.407 1_455 S
C1769 C1765 1.472 . S
C1769 C1770 1.526 . S
C1770 C1754 1.403 . S
C1770 C1766 1.318 1_455 S
C1770 C1769 1.526 . S
H1771 C1746 0.950 . S
H1772 C1748 0.950 . S
H1773 C1749 0.949 . S
H1774 C1751 0.950 . S
H1775 C1753 0.950 . S
C1776 C1777 1.349 . S
C1776 C1778 1.327 . S
C1776 H1801 0.950 . S
C1777 C1776 1.349 . S
C1777 C1793 1.349 . S
C1778 C1776 1.327 . S
C1778 C1797 1.429 . S
C1778 H1802 0.950 . S
C1779 C1796 1.574 . S
C1779 C1798 1.368 . S
C1779 H1803 0.949 . S
H1780 C1784 0.949 . S
C1781 C1782 1.349 . S
C1781 C1783 1.327 . S
C1781 H1804 0.950 . S
C1782 C1781 1.349 . S
C1782 C1794 1.349 . S
C1783 C1781 1.327 . S
C1783 C1799 1.429 . S
C1783 H1805 0.950 . S
C1784 H1780 0.949 . S
C1784 C1792 1.574 . S
C1784 C1800 1.368 . S
H1785 C1793 0.950 . S
H1786 C1791 0.950 . S
H1787 C1792 0.949 . S
H1788 C1794 0.950 . S
H1789 C1795 0.950 . S
H1790 C1796 0.949 . S
C1791 H1786 0.950 . S
C1791 C1793 1.327 . S
C1791 C1797 1.429 . S
C1792 C1784 1.574 . S
C1792 H1787 0.949 . S
C1792 C1798 1.368 . S
C1793 C1777 1.349 . S
C1793 H1785 0.950 . S
C1793 C1791 1.327 . S
C1794 C1782 1.349 . S
C1794 H1788 0.950 . S
C1794 C1795 1.327 . S
C1795 H1789 0.950 . S
C1795 C1794 1.327 . S
C1795 C1799 1.429 . S
C1796 C1779 1.574 . S
C1796 H1790 0.949 . S
C1796 C1800 1.368 . S
C1797 C1778 1.429 . S
C1797 C1791 1.429 . S
C1797 C1798 1.523 . S
C1798 C1779 1.368 . S
C1798 C1792 1.368 . S
C1798 C1797 1.523 . S
C1799 C1783 1.429 . S
C1799 C1795 1.429 . S
C1799 C1800 1.523 . S
C1800 C1784 1.368 . S
C1800 C1796 1.368 . S
C1800 C1799 1.523 . S
H1801 C1776 0.950 . S
H1802 C1778 0.950 . S
H1803 C1779 0.949 . S
H1804 C1781 0.950 . S
H1805 C1783 0.950 . S
C1806 C1807 1.349 1_545 S
C1806 C1808 1.327 . S
C1806 H1831 0.950 . S
C1807 C1806 1.349 1_565 S
C1807 C1823 1.349 . S
C1808 C1806 1.327 . S
C1808 C1827 1.429 1_545 S
C1808 H1832 0.950 . S
C1809 C1826 1.574 . S
C1809 C1828 1.368 . S
C1809 H1833 0.949 . S
H1810 C1814 0.949 . S
C1811 C1812 1.349 1_565 S
C1811 C1813 1.327 . S
C1811 H1834 0.950 . S
C1812 C1811 1.349 1_545 S
C1812 C1824 1.349 . S
C1813 C1811 1.327 . S
C1813 C1829 1.431 1_565 S
C1813 H1835 0.950 . S
C1814 H1810 0.949 . S
C1814 C1822 1.574 . S
C1814 C1830 1.354 1_545 S
H1815 C1823 0.946 . S
H1816 C1821 0.950 . S
H1817 C1822 0.949 . S
H1818 C1824 0.950 . S
H1819 C1825 0.950 . S
H1820 C1826 0.949 . S
C1821 H1816 0.950 . S
C1821 C1823 1.327 . S
C1821 C1827 1.429 . S
C1822 C1814 1.574 . S
C1822 H1817 0.949 . S
C1822 C1828 1.368 1_545 S
C1823 C1807 1.349 . S
C1823 H1815 0.946 . S
C1823 C1821 1.327 . S
C1824 C1812 1.349 . S
C1824 H1818 0.950 . S
C1824 C1825 1.327 . S
C1825 H1819 0.950 . S
C1825 C1824 1.327 . S
C1825 C1829 1.423 . S
C1826 C1809 1.574 . S
C1826 H1820 0.949 . S
C1826 C1830 1.395 . S
C1827 C1808 1.429 1_565 S
C1827 C1821 1.429 . S
C1827 C1828 1.523 . S
C1828 C1809 1.368 . S
C1828 C1822 1.368 1_565 S
C1828 C1827 1.523 . S
C1829 C1813 1.431 1_545 S
C1829 C1825 1.423 . S
C1829 C1830 1.511 1_545 S
C1830 C1814 1.354 1_565 S
C1830 C1826 1.395 . S
C1830 C1829 1.511 1_565 S
H1831 C1806 0.950 . S
H1832 C1808 0.950 . S
H1833 C1809 0.949 . S
H1834 C1811 0.950 . S
H1835 C1813 0.950 . S
C1836 C1837 1.349 1_565 S
C1836 C1838 1.327 . S
C1836 H1861 0.950 . S
C1837 C1836 1.349 1_545 S
C1837 C1853 1.349 . S
C1838 C1836 1.327 . S
C1838 C1857 1.429 1_565 S
C1838 H1862 0.950 . S
C1839 C1856 1.574 . S
C1839 C1858 1.368 . S
C1839 H1863 0.949 . S
H1840 C1844 0.949 . S
C1841 C1842 1.292 1_545 S
C1841 C1843 1.327 . S
C1841 H1864 0.950 . S
C1842 C1841 1.292 1_565 S
C1842 C1854 1.423 . S
C1843 C1841 1.327 . S
C1843 C1859 1.441 . S
C1843 H1865 0.950 . S
C1844 H1840 0.949 . S
C1844 C1852 1.574 . S
C1844 C1860 1.296 1_565 S
H1845 C1853 0.950 . S
H1846 C1851 0.950 . S
H1847 C1852 0.949 . S
H1848 C1854 0.950 . S
H1849 C1855 0.950 . S
H1850 C1856 0.949 . S
C1851 H1846 0.950 . S
C1851 C1853 1.327 . S
C1851 C1857 1.429 . S
C1852 C1844 1.574 . S
C1852 H1847 0.949 . S
C1852 C1858 1.368 1_565 S
C1853 C1837 1.349 . S
C1853 H1845 0.950 . S
C1853 C1851 1.327 . S
C1854 C1842 1.423 . S
C1854 H1848 0.950 . S
C1854 C1855 1.327 . S
C1855 H1849 0.950 . S
C1855 C1854 1.327 . S
C1855 C1859 1.419 1_565 S
C1856 C1839 1.574 . S
C1856 H1850 0.949 . S
C1856 C1860 1.430 . S
C1857 C1838 1.429 1_545 S
C1857 C1851 1.429 . S
C1857 C1858 1.523 . S
C1858 C1839 1.368 . S
C1858 C1852 1.368 1_545 S
C1858 C1857 1.523 . S
C1859 C1843 1.441 . S
C1859 C1855 1.419 1_545 S
C1859 C1860 1.537 . S
C1860 C1844 1.296 1_545 S
C1860 C1856 1.430 . S
C1860 C1859 1.537 . S
H1861 C1836 0.950 . S
H1862 C1838 0.950 . S
H1863 C1839 0.949 . S
H1864 C1841 0.950 . S
H1865 C1843 0.950 . S
C1866 C1867 1.349 1_455 S
C1866 C1868 1.327 . S
C1866 H1891 0.950 . S
C1867 C1866 1.349 1_655 S
C1867 C1883 1.349 . S
C1868 C1866 1.327 . S
C1868 C1887 1.378 1_455 S
C1868 H1892 0.950 . S
C1869 C1886 1.574 . S
C1869 C1888 1.417 . S
C1869 H1893 0.949 . S
H1870 C1874 0.949 . S
C1871 C1872 1.344 1_655 S
C1871 C1873 1.327 . S
C1871 H1894 0.950 . S
C1872 C1871 1.344 1_455 S
C1872 C1884 1.352 . S
C1873 C1871 1.327 . S
C1873 C1889 1.435 . S
C1873 H1895 0.950 . S
C1874 H1870 0.949 . S
C1874 C1882 1.574 . S
C1874 C1890 1.346 1_455 S
H1875 C1883 0.950 . S
H1876 C1881 0.950 . S
H1877 C1882 0.949 . S
H1878 C1884 0.950 . S
H1879 C1885 0.950 . S
H1880 C1886 0.949 . S
C1881 H1876 0.950 . S
C1881 C1883 1.327 . S
C1881 C1887 1.508 . S
C1882 C1874 1.574 . S
C1882 H1877 0.949 . S
C1882 C1888 1.306 1_455 S
C1883 C1867 1.349 . S
C1883 H1875 0.950 . S
C1883 C1881 1.327 . S
C1884 C1872 1.352 . S
C1884 H1878 0.950 . S
C1884 C1885 1.327 . S
C1885 H1879 0.950 . S
C1885 C1884 1.327 . S
C1885 C1889 1.419 1_455 S
C1886 C1869 1.574 . S
C1886 H1880 0.949 . S
C1886 C1890 1.398 . S
C1887 C1868 1.378 1_655 S
C1887 C1881 1.508 . S
C1887 C1888 1.517 . S
C1888 C1869 1.417 . S
C1888 C1882 1.306 1_655 S
C1888 C1887 1.517 . S
C1889 C1873 1.435 . S
C1889 C1885 1.419 1_655 S
C1889 C1890 1.517 . S
C1890 C1874 1.346 1_655 S
C1890 C1886 1.398 . S
C1890 C1889 1.517 . S
H1891 C1866 0.950 . S
H1892 C1868 0.950 . S
H1893 C1869 0.949 . S
H1894 C1871 0.950 . S
H1895 C1873 0.950 . S
C1896 C1897 1.349 . S
C1896 C1898 1.327 . S
C1896 H1921 0.950 . S
C1897 C1896 1.349 . S
C1897 C1913 1.349 . S
C1898 C1896 1.327 . S
C1898 C1917 1.429 . S
C1898 H1922 0.950 . S
C1899 C1916 1.574 . S
C1899 C1918 1.368 . S
C1899 H1923 0.949 . S
H1900 C1904 0.949 . S
C1901 C1902 1.349 . S
C1901 C1903 1.327 . S
C1901 H1924 0.950 . S
C1902 C1901 1.349 . S
C1902 C1914 1.349 . S
C1903 C1901 1.327 . S
C1903 C1919 1.429 . S
C1903 H1925 0.950 . S
C1904 H1900 0.949 . S
C1904 C1912 1.574 . S
C1904 C1920 1.368 . S
H1905 C1913 0.950 . S
H1906 C1911 0.950 . S
H1907 C1912 0.949 . S
H1908 C1914 0.950 . S
H1909 C1915 0.950 . S
H1910 C1916 0.949 . S
C1911 H1906 0.950 . S
C1911 C1913 1.327 . S
C1911 C1917 1.429 . S
C1912 C1904 1.574 . S
C1912 H1907 0.949 . S
C1912 C1918 1.368 . S
C1913 C1897 1.349 . S
C1913 H1905 0.950 . S
C1913 C1911 1.327 . S
C1914 C1902 1.349 . S
C1914 H1908 0.950 . S
C1914 C1915 1.327 . S
C1915 H1909 0.950 . S
C1915 C1914 1.327 . S
C1915 C1919 1.429 . S
C1916 C1899 1.574 . S
C1916 H1910 0.949 . S
C1916 C1920 1.368 . S
C1917 C1898 1.429 . S
C1917 C1911 1.429 . S
C1917 C1918 1.523 . S
C1918 C1899 1.368 . S
C1918 C1912 1.368 . S
C1918 C1917 1.523 . S
C1919 C1903 1.429 . S
C1919 C1915 1.429 . S
C1919 C1920 1.523 . S
C1920 C1904 1.368 . S
C1920 C1916 1.368 . S
C1920 C1919 1.523 . S
H1921 C1896 0.950 . S
H1922 C1898 0.950 . S
H1923 C1899 0.949 . S
H1924 C1901 0.950 . S
H1925 C1903 0.950 . S
C1926 C1927 1.349 . S
C1926 C1928 1.327 . S
C1926 H1951 0.950 . S
C1927 C1926 1.349 . S
C1927 C1943 1.349 . S
C1928 C1926 1.327 . S
C1928 C1947 1.429 . S
C1928 H1952 0.950 . S
C1929 C1946 1.574 . S
C1929 C1948 1.368 . S
C1929 H1953 0.949 . S
H1930 C1934 0.949 . S
C1931 C1932 1.349 . S
C1931 C1933 1.327 . S
C1931 H1954 0.950 . S
C1932 C1931 1.349 . S
C1932 C1944 1.349 . S
C1933 C1931 1.327 . S
C1933 C1949 1.429 . S
C1933 H1955 0.950 . S
C1934 H1930 0.949 . S
C1934 C1942 1.574 . S
C1934 C1950 1.368 . S
H1935 C1943 0.950 . S
H1936 C1941 0.950 . S
H1937 C1942 0.949 . S
H1938 C1944 0.950 . S
H1939 C1945 0.950 . S
H1940 C1946 0.949 . S
C1941 H1936 0.950 . S
C1941 C1943 1.327 . S
C1941 C1947 1.429 . S
C1942 C1934 1.574 . S
C1942 H1937 0.949 . S
C1942 C1948 1.368 . S
C1943 C1927 1.349 . S
C1943 H1935 0.950 . S
C1943 C1941 1.327 . S
C1944 C1932 1.349 . S
C1944 H1938 0.950 . S
C1944 C1945 1.327 . S
C1945 H1939 0.950 . S
C1945 C1944 1.327 . S
C1945 C1949 1.429 . S
C1946 C1929 1.574 . S
C1946 H1940 0.949 . S
C1946 C1950 1.368 . S
C1947 C1928 1.429 . S
C1947 C1941 1.429 . S
C1947 C1948 1.523 . S
C1948 C1929 1.368 . S
C1948 C1942 1.368 . S
C1948 C1947 1.523 . S
C1949 C1933 1.429 . S
C1949 C1945 1.429 . S
C1949 C1950 1.523 . S
C1950 C1934 1.368 . S
C1950 C1946 1.368 . S
C1950 C1949 1.523 . S
H1951 C1926 0.950 . S
H1952 C1928 0.950 . S
H1953 C1929 0.949 . S
H1954 C1931 0.950 . S
H1955 C1933 0.950 . S
C1956 C1957 1.349 . S
C1956 C1958 1.327 . S
C1956 H1981 0.950 . S
C1957 C1956 1.349 . S
C1957 C1973 1.349 . S
C1958 C1956 1.327 . S
C1958 C1977 1.429 . S
C1958 H1982 0.950 . S
C1959 C1976 1.574 . S
C1959 C1978 1.368 . S
C1959 H1983 0.949 . S
H1960 C1964 0.949 . S
C1961 C1962 1.349 . S
C1961 C1963 1.327 . S
C1961 H1984 0.950 . S
C1962 C1961 1.349 . S
C1962 C1974 1.349 . S
C1963 C1961 1.327 . S
C1963 C1979 1.429 . S
C1963 H1985 0.950 . S
C1964 H1960 0.949 . S
C1964 C1972 1.574 . S
C1964 C1980 1.368 . S
H1965 C1973 0.950 . S
H1966 C1971 0.950 . S
H1967 C1972 0.949 . S
H1968 C1974 0.950 . S
H1969 C1975 0.950 . S
H1970 C1976 0.949 . S
C1971 H1966 0.950 . S
C1971 C1973 1.327 . S
C1971 C1977 1.429 . S
C1972 C1964 1.574 . S
C1972 H1967 0.949 . S
C1972 C1978 1.368 . S
C1973 C1957 1.349 . S
C1973 H1965 0.950 . S
C1973 C1971 1.327 . S
C1974 C1962 1.349 . S
C1974 H1968 0.950 . S
C1974 C1975 1.327 . S
C1975 H1969 0.950 . S
C1975 C1974 1.327 . S
C1975 C1979 1.429 . S
C1976 C1959 1.574 . S
C1976 H1970 0.949 . S
C1976 C1980 1.368 . S
C1977 C1958 1.429 . S
C1977 C1971 1.429 . S
C1977 C1978 1.523 . S
C1978 C1959 1.368 . S
C1978 C1972 1.368 . S
C1978 C1977 1.523 . S
C1979 C1963 1.429 . S
C1979 C1975 1.429 . S
C1979 C1980 1.523 . S
C1980 C1964 1.368 . S
C1980 C1976 1.368 . S
C1980 C1979 1.523 . S
H1981 C1956 0.950 . S
H1982 C1958 0.950 . S
H1983 C1959 0.949 . S
H1984 C1961 0.950 . S
H1985 C1963 0.950 . S
C1986 C1987 1.349 . S
C1986 C1988 1.327 . S
C1986 H2011 0.950 . S
C1987 C1986 1.349 . S
C1987 C2003 1.349 . S
C1988 C1986 1.327 . S
C1988 C2007 1.429 . S
C1988 H2012 0.950 . S
C1989 C2006 1.574 . S
C1989 C2008 1.368 . S
C1989 H2013 0.949 . S
H1990 C1994 0.949 . S
C1991 C1992 1.349 . S
C1991 C1993 1.327 . S
C1991 H2014 0.950 . S
C1992 C1991 1.349 . S
C1992 C2004 1.349 . S
C1993 C1991 1.327 . S
C1993 C2009 1.429 . S
C1993 H2015 0.950 . S
C1994 H1990 0.949 . S
C1994 C2002 1.574 . S
C1994 C2010 1.368 . S
H1995 C2003 0.950 . S
H1996 C2001 0.950 . S
H1997 C2002 0.949 . S
H1998 C2004 0.950 . S
H1999 C2005 0.950 . S
H2000 C2006 0.949 . S
C2001 H1996 0.950 . S
C2001 C2003 1.327 . S
C2001 C2007 1.429 . S
C2002 C1994 1.574 . S
C2002 H1997 0.949 . S
C2002 C2008 1.368 . S
C2003 C1987 1.349 . S
C2003 H1995 0.950 . S
C2003 C2001 1.327 . S
C2004 C1992 1.349 . S
C2004 H1998 0.950 . S
C2004 C2005 1.327 . S
C2005 H1999 0.950 . S
C2005 C2004 1.327 . S
C2005 C2009 1.429 . S
C2006 C1989 1.574 . S
C2006 H2000 0.949 . S
C2006 C2010 1.368 . S
C2007 C1988 1.429 . S
C2007 C2001 1.429 . S
C2007 C2008 1.523 . S
C2008 C1989 1.368 . S
C2008 C2002 1.368 . S
C2008 C2007 1.523 . S
C2009 C1993 1.429 . S
C2009 C2005 1.429 . S
C2009 C2010 1.523 . S
C2010 C1994 1.368 . S
C2010 C2006 1.368 . S
C2010 C2009 1.523 . S
H2011 C1986 0.950 . S
H2012 C1988 0.950 . S
H2013 C1989 0.949 . S
H2014 C1991 0.950 . S
H2015 C1993 0.950 . S
C2016 C2017 1.349 . S
C2016 C2018 1.327 . S
C2016 H2041 0.950 . S
C2017 C2016 1.349 . S
C2017 C2033 1.349 . S
C2018 C2016 1.327 . S
C2018 C2037 1.429 . S
C2018 H2042 0.950 . S
C2019 C2036 1.574 . S
C2019 C2038 1.368 . S
C2019 H2043 0.949 . S
H2020 C2024 0.949 . S
C2021 C2022 1.349 . S
C2021 C2023 1.327 . S
C2021 H2044 0.950 . S
C2022 C2021 1.349 . S
C2022 C2034 1.349 . S
C2023 C2021 1.327 . S
C2023 C2039 1.429 . S
C2023 H2045 0.950 . S
C2024 H2020 0.949 . S
C2024 C2032 1.574 . S
C2024 C2040 1.368 . S
H2025 C2033 0.950 . S
H2026 C2031 0.950 . S
H2027 C2032 0.949 . S
H2028 C2034 0.950 . S
H2029 C2035 0.950 . S
H2030 C2036 0.949 . S
C2031 H2026 0.950 . S
C2031 C2033 1.327 . S
C2031 C2037 1.429 . S
C2032 C2024 1.574 . S
C2032 H2027 0.949 . S
C2032 C2038 1.368 . S
C2033 C2017 1.349 . S
C2033 H2025 0.950 . S
C2033 C2031 1.327 . S
C2034 C2022 1.349 . S
C2034 H2028 0.950 . S
C2034 C2035 1.327 . S
C2035 H2029 0.950 . S
C2035 C2034 1.327 . S
C2035 C2039 1.429 . S
C2036 C2019 1.574 . S
C2036 H2030 0.949 . S
C2036 C2040 1.368 . S
C2037 C2018 1.429 . S
C2037 C2031 1.429 . S
C2037 C2038 1.523 . S
C2038 C2019 1.368 . S
C2038 C2032 1.368 . S
C2038 C2037 1.523 . S
C2039 C2023 1.429 . S
C2039 C2035 1.429 . S
C2039 C2040 1.523 . S
C2040 C2024 1.368 . S
C2040 C2036 1.368 . S
C2040 C2039 1.523 . S
H2041 C2016 0.950 . S
H2042 C2018 0.950 . S
H2043 C2019 0.949 . S
H2044 C2021 0.950 . S
H2045 C2023 0.950 . S
C2046 C2047 1.349 . S
C2046 C2048 1.327 . S
C2046 H2071 0.950 . S
C2047 C2046 1.349 . S
C2047 C2063 1.349 . S
C2048 C2046 1.327 . S
C2048 C2067 1.429 . S
C2048 H2072 0.950 . S
C2049 C2066 1.574 . S
C2049 C2068 1.368 . S
C2049 H2073 0.949 . S
H2050 C2054 0.949 . S
C2051 C2052 1.349 . S
C2051 C2053 1.327 . S
C2051 H2074 0.950 . S
C2052 C2051 1.349 . S
C2052 C2064 1.349 . S
C2053 C2051 1.327 . S
C2053 C2069 1.429 . S
C2053 H2075 0.950 . S
C2054 H2050 0.949 . S
C2054 C2062 1.574 . S
C2054 C2070 1.368 . S
H2055 C2063 0.950 . S
H2056 C2061 0.950 . S
H2057 C2062 0.949 . S
H2058 C2064 0.950 . S
H2059 C2065 0.950 . S
H2060 C2066 0.949 . S
C2061 H2056 0.950 . S
C2061 C2063 1.327 . S
C2061 C2067 1.429 . S
C2062 C2054 1.574 . S
C2062 H2057 0.949 . S
C2062 C2068 1.368 . S
C2063 C2047 1.349 . S
C2063 H2055 0.950 . S
C2063 C2061 1.327 . S
C2064 C2052 1.349 . S
C2064 H2058 0.950 . S
C2064 C2065 1.327 . S
C2065 H2059 0.950 . S
C2065 C2064 1.327 . S
C2065 C2069 1.429 . S
C2066 C2049 1.574 . S
C2066 H2060 0.949 . S
C2066 C2070 1.368 . S
C2067 C2048 1.429 . S
C2067 C2061 1.429 . S
C2067 C2068 1.523 . S
C2068 C2049 1.368 . S
C2068 C2062 1.368 . S
C2068 C2067 1.523 . S
C2069 C2053 1.429 . S
C2069 C2065 1.429 . S
C2069 C2070 1.523 . S
C2070 C2054 1.368 . S
C2070 C2066 1.368 . S
C2070 C2069 1.523 . S
H2071 C2046 0.950 . S
H2072 C2048 0.950 . S
H2073 C2049 0.949 . S
H2074 C2051 0.950 . S
H2075 C2053 0.950 . S
C2076 C2077 1.349 . S
C2076 C2078 1.327 . S
C2076 H2101 0.950 . S
C2077 C2076 1.349 . S
C2077 C2093 1.349 . S
C2078 C2076 1.327 . S
C2078 C2097 1.429 . S
C2078 H2102 0.950 . S
C2079 C2096 1.574 . S
C2079 C2098 1.368 . S
C2079 H2103 0.949 . S
H2080 C2084 0.949 . S
C2081 C2082 1.349 . S
C2081 C2083 1.327 . S
C2081 H2104 0.950 . S
C2082 C2081 1.349 . S
C2082 C2094 1.349 . S
C2083 C2081 1.327 . S
C2083 C2099 1.429 . S
C2083 H2105 0.950 . S
C2084 H2080 0.949 . S
C2084 C2092 1.574 . S
C2084 C2100 1.368 . S
H2085 C2093 0.950 . S
H2086 C2091 0.950 . S
H2087 C2092 0.949 . S
H2088 C2094 0.950 . S
H2089 C2095 0.950 . S
H2090 C2096 0.949 . S
C2091 H2086 0.950 . S
C2091 C2093 1.327 . S
C2091 C2097 1.429 . S
C2092 C2084 1.574 . S
C2092 H2087 0.949 . S
C2092 C2098 1.368 . S
C2093 C2077 1.349 . S
C2093 H2085 0.950 . S
C2093 C2091 1.327 . S
C2094 C2082 1.349 . S
C2094 H2088 0.950 . S
C2094 C2095 1.327 . S
C2095 H2089 0.950 . S
C2095 C2094 1.327 . S
C2095 C2099 1.429 . S
C2096 C2079 1.574 . S
C2096 H2090 0.949 . S
C2096 C2100 1.368 . S
C2097 C2078 1.429 . S
C2097 C2091 1.429 . S
C2097 C2098 1.523 . S
C2098 C2079 1.368 . S
C2098 C2092 1.368 . S
C2098 C2097 1.523 . S
C2099 C2083 1.429 . S
C2099 C2095 1.429 . S
C2099 C2100 1.523 . S
C2100 C2084 1.368 . S
C2100 C2096 1.368 . S
C2100 C2099 1.523 . S
H2101 C2076 0.950 . S
H2102 C2078 0.950 . S
H2103 C2079 0.949 . S
H2104 C2081 0.950 . S
H2105 C2083 0.950 . S
C2106 C2107 1.349 . S
C2106 C2108 1.327 . S
C2106 H2131 0.950 . S
C2107 C2106 1.349 . S
C2107 C2123 1.349 . S
C2108 C2106 1.327 . S
C2108 C2127 1.429 . S
C2108 H2132 0.950 . S
C2109 C2126 1.574 . S
C2109 C2128 1.368 . S
C2109 H2133 0.949 . S
H2110 C2114 0.949 . S
C2111 C2112 1.349 . S
C2111 C2113 1.327 . S
C2111 H2134 0.950 . S
C2112 C2111 1.349 . S
C2112 C2124 1.349 . S
C2113 C2111 1.327 . S
C2113 C2129 1.429 . S
C2113 H2135 0.950 . S
C2114 H2110 0.949 . S
C2114 C2122 1.574 . S
C2114 C2130 1.368 . S
H2115 C2123 0.950 . S
H2116 C2121 0.950 . S
H2117 C2122 0.949 . S
H2118 C2124 0.950 . S
H2119 C2125 0.950 . S
H2120 C2126 0.949 . S
C2121 H2116 0.950 . S
C2121 C2123 1.327 . S
C2121 C2127 1.429 . S
C2122 C2114 1.574 . S
C2122 H2117 0.949 . S
C2122 C2128 1.368 . S
C2123 C2107 1.349 . S
C2123 H2115 0.950 . S
C2123 C2121 1.327 . S
C2124 C2112 1.349 . S
C2124 H2118 0.950 . S
C2124 C2125 1.327 . S
C2125 H2119 0.950 . S
C2125 C2124 1.327 . S
C2125 C2129 1.429 . S
C2126 C2109 1.574 . S
C2126 H2120 0.949 . S
C2126 C2130 1.368 . S
C2127 C2108 1.429 . S
C2127 C2121 1.429 . S
C2127 C2128 1.523 . S
C2128 C2109 1.368 . S
C2128 C2122 1.368 . S
C2128 C2127 1.523 . S
C2129 C2113 1.429 . S
C2129 C2125 1.429 . S
C2129 C2130 1.523 . S
C2130 C2114 1.368 . S
C2130 C2126 1.368 . S
C2130 C2129 1.523 . S
H2131 C2106 0.950 . S
H2132 C2108 0.950 . S
H2133 C2109 0.949 . S
H2134 C2111 0.950 . S
H2135 C2113 0.950 . S
C2136 C2137 1.349 . S
C2136 C2138 1.327 . S
C2136 H2161 0.950 . S
C2137 C2136 1.349 . S
C2137 C2153 1.349 . S
C2138 C2136 1.327 . S
C2138 C2157 1.429 . S
C2138 H2162 0.950 . S
C2139 C2156 1.574 . S
C2139 C2158 1.368 . S
C2139 H2163 0.949 . S
H2140 C2144 0.949 . S
C2141 C2142 1.349 . S
C2141 C2143 1.327 . S
C2141 H2164 0.950 . S
C2142 C2141 1.349 . S
C2142 C2154 1.349 . S
C2143 C2141 1.327 . S
C2143 C2159 1.429 . S
C2143 H2165 0.950 . S
C2144 H2140 0.949 . S
C2144 C2152 1.574 . S
C2144 C2160 1.368 . S
H2145 C2153 0.950 . S
H2146 C2151 0.950 . S
H2147 C2152 0.949 . S
H2148 C2154 0.950 . S
H2149 C2155 0.950 . S
H2150 C2156 0.949 . S
C2151 H2146 0.950 . S
C2151 C2153 1.327 . S
C2151 C2157 1.429 . S
C2152 C2144 1.574 . S
C2152 H2147 0.949 . S
C2152 C2158 1.368 . S
C2153 C2137 1.349 . S
C2153 H2145 0.950 . S
C2153 C2151 1.327 . S
C2154 C2142 1.349 . S
C2154 H2148 0.950 . S
C2154 C2155 1.327 . S
C2155 H2149 0.950 . S
C2155 C2154 1.327 . S
C2155 C2159 1.429 . S
C2156 C2139 1.574 . S
C2156 H2150 0.949 . S
C2156 C2160 1.368 . S
C2157 C2138 1.429 . S
C2157 C2151 1.429 . S
C2157 C2158 1.523 . S
C2158 C2139 1.368 . S
C2158 C2152 1.368 . S
C2158 C2157 1.523 . S
C2159 C2143 1.429 . S
C2159 C2155 1.429 . S
C2159 C2160 1.523 . S
C2160 C2144 1.368 . S
C2160 C2156 1.368 . S
C2160 C2159 1.523 . S
H2161 C2136 0.950 . S
H2162 C2138 0.950 . S
H2163 C2139 0.949 . S
H2164 C2141 0.950 . S
H2165 C2143 0.950 . S
C2166 C2167 1.349 . S
C2166 C2168 1.327 . S
C2166 H2191 0.950 . S
C2167 C2166 1.349 . S
C2167 C2183 1.349 . S
C2168 C2166 1.327 . S
C2168 C2187 1.429 . S
C2168 H2192 0.950 . S
C2169 C2186 1.574 . S
C2169 C2188 1.368 . S
C2169 H2193 0.949 . S
H2170 C2174 0.949 . S
C2171 C2172 1.349 . S
C2171 C2173 1.327 . S
C2171 H2194 0.950 . S
C2172 C2171 1.349 . S
C2172 C2184 1.349 . S
C2173 C2171 1.327 . S
C2173 C2189 1.429 . S
C2173 H2195 0.950 . S
C2174 H2170 0.949 . S
C2174 C2182 1.574 . S
C2174 C2190 1.368 . S
H2175 C2183 0.950 . S
H2176 C2181 0.950 . S
H2177 C2182 0.949 . S
H2178 C2184 0.950 . S
H2179 C2185 0.950 . S
H2180 C2186 0.949 . S
C2181 H2176 0.950 . S
C2181 C2183 1.327 . S
C2181 C2187 1.429 . S
C2182 C2174 1.574 . S
C2182 H2177 0.949 . S
C2182 C2188 1.368 . S
C2183 C2167 1.349 . S
C2183 H2175 0.950 . S
C2183 C2181 1.327 . S
C2184 C2172 1.349 . S
C2184 H2178 0.950 . S
C2184 C2185 1.327 . S
C2185 H2179 0.950 . S
C2185 C2184 1.327 . S
C2185 C2189 1.429 . S
C2186 C2169 1.574 . S
C2186 H2180 0.949 . S
C2186 C2190 1.368 . S
C2187 C2168 1.429 . S
C2187 C2181 1.429 . S
C2187 C2188 1.523 . S
C2188 C2169 1.368 . S
C2188 C2182 1.368 . S
C2188 C2187 1.523 . S
C2189 C2173 1.429 . S
C2189 C2185 1.429 . S
C2189 C2190 1.523 . S
C2190 C2174 1.368 . S
C2190 C2186 1.368 . S
C2190 C2189 1.523 . S
H2191 C2166 0.950 . S
H2192 C2168 0.950 . S
H2193 C2169 0.949 . S
H2194 C2171 0.950 . S
H2195 C2173 0.950 . S
C2196 C2197 1.349 . S
C2196 C2198 1.327 . S
C2196 H2221 0.950 . S
C2197 C2196 1.349 . S
C2197 C2213 1.349 . S
C2198 C2196 1.327 . S
C2198 C2217 1.429 . S
C2198 H2222 0.950 . S
C2199 C2216 1.574 . S
C2199 C2218 1.368 . S
C2199 H2223 0.949 . S
H2200 C2204 0.949 . S
C2201 C2202 1.349 . S
C2201 C2203 1.327 . S
C2201 H2224 0.950 . S
C2202 C2201 1.349 . S
C2202 C2214 1.349 . S
C2203 C2201 1.327 . S
C2203 C2219 1.429 . S
C2203 H2225 0.950 . S
C2204 H2200 0.949 . S
C2204 C2212 1.574 . S
C2204 C2220 1.368 . S
H2205 C2213 0.950 . S
H2206 C2211 0.950 . S
H2207 C2212 0.949 . S
H2208 C2214 0.950 . S
H2209 C2215 0.950 . S
H2210 C2216 0.949 . S
C2211 H2206 0.950 . S
C2211 C2213 1.327 . S
C2211 C2217 1.429 . S
C2212 C2204 1.574 . S
C2212 H2207 0.949 . S
C2212 C2218 1.368 . S
C2213 C2197 1.349 . S
C2213 H2205 0.950 . S
C2213 C2211 1.327 . S
C2214 C2202 1.349 . S
C2214 H2208 0.950 . S
C2214 C2215 1.327 . S
C2215 H2209 0.950 . S
C2215 C2214 1.327 . S
C2215 C2219 1.429 . S
C2216 C2199 1.574 . S
C2216 H2210 0.949 . S
C2216 C2220 1.368 . S
C2217 C2198 1.429 . S
C2217 C2211 1.429 . S
C2217 C2218 1.523 . S
C2218 C2199 1.368 . S
C2218 C2212 1.368 . S
C2218 C2217 1.523 . S
C2219 C2203 1.429 . S
C2219 C2215 1.429 . S
C2219 C2220 1.523 . S
C2220 C2204 1.368 . S
C2220 C2216 1.368 . S
C2220 C2219 1.523 . S
H2221 C2196 0.950 . S
H2222 C2198 0.950 . S
H2223 C2199 0.949 . S
H2224 C2201 0.950 . S
H2225 C2203 0.950 . S
C2226 C2227 1.349 . S
C2226 C2228 1.327 . S
C2226 H2251 0.950 . S
C2227 C2226 1.349 . S
C2227 C2243 1.349 . S
C2228 C2226 1.327 . S
C2228 C2247 1.429 . S
C2228 H2252 0.950 . S
C2229 C2246 1.574 . S
C2229 C2248 1.368 . S
C2229 H2253 0.949 . S
H2230 C2234 0.949 . S
C2231 C2232 1.349 . S
C2231 C2233 1.327 . S
C2231 H2254 0.950 . S
C2232 C2231 1.349 . S
C2232 C2244 1.349 . S
C2233 C2231 1.327 . S
C2233 C2249 1.429 . S
C2233 H2255 0.950 . S
C2234 H2230 0.949 . S
C2234 C2242 1.574 . S
C2234 C2250 1.368 . S
H2235 C2243 0.950 . S
H2236 C2241 0.950 . S
H2237 C2242 0.949 . S
H2238 C2244 0.950 . S
H2239 C2245 0.950 . S
H2240 C2246 0.949 . S
C2241 H2236 0.950 . S
C2241 C2243 1.327 . S
C2241 C2247 1.429 . S
C2242 C2234 1.574 . S
C2242 H2237 0.949 . S
C2242 C2248 1.368 . S
C2243 C2227 1.349 . S
C2243 H2235 0.950 . S
C2243 C2241 1.327 . S
C2244 C2232 1.349 . S
C2244 H2238 0.950 . S
C2244 C2245 1.327 . S
C2245 H2239 0.950 . S
C2245 C2244 1.327 . S
C2245 C2249 1.429 . S
C2246 C2229 1.574 . S
C2246 H2240 0.949 . S
C2246 C2250 1.368 . S
C2247 C2228 1.429 . S
C2247 C2241 1.429 . S
C2247 C2248 1.523 . S
C2248 C2229 1.368 . S
C2248 C2242 1.368 . S
C2248 C2247 1.523 . S
C2249 C2233 1.429 . S
C2249 C2245 1.429 . S
C2249 C2250 1.523 . S
C2250 C2234 1.368 . S
C2250 C2246 1.368 . S
C2250 C2249 1.523 . S
H2251 C2226 0.950 . S
H2252 C2228 0.950 . S
H2253 C2229 0.949 . S
H2254 C2231 0.950 . S
H2255 C2233 0.950 . S
C2256 C2257 1.349 . S
C2256 C2258 1.327 . S
C2256 H2281 0.950 . S
C2257 C2256 1.349 . S
C2257 C2273 1.349 . S
C2258 C2256 1.327 . S
C2258 C2277 1.429 . S
C2258 H2282 0.950 . S
C2259 C2276 1.574 . S
C2259 C2278 1.368 . S
C2259 H2283 0.949 . S
H2260 C2264 0.949 . S
C2261 C2262 1.349 . S
C2261 C2263 1.327 . S
C2261 H2284 0.950 . S
C2262 C2261 1.349 . S
C2262 C2274 1.349 . S
C2263 C2261 1.327 . S
C2263 C2279 1.429 . S
C2263 H2285 0.950 . S
C2264 H2260 0.949 . S
C2264 C2272 1.574 . S
C2264 C2280 1.368 . S
H2265 C2273 0.950 . S
H2266 C2271 0.950 . S
H2267 C2272 0.949 . S
H2268 C2274 0.950 . S
H2269 C2275 0.950 . S
H2270 C2276 0.949 . S
C2271 H2266 0.950 . S
C2271 C2273 1.327 . S
C2271 C2277 1.429 . S
C2272 C2264 1.574 . S
C2272 H2267 0.949 . S
C2272 C2278 1.368 . S
C2273 C2257 1.349 . S
C2273 H2265 0.950 . S
C2273 C2271 1.327 . S
C2274 C2262 1.349 . S
C2274 H2268 0.950 . S
C2274 C2275 1.327 . S
C2275 H2269 0.950 . S
C2275 C2274 1.327 . S
C2275 C2279 1.429 . S
C2276 C2259 1.574 . S
C2276 H2270 0.949 . S
C2276 C2280 1.368 . S
C2277 C2258 1.429 . S
C2277 C2271 1.429 . S
C2277 C2278 1.523 . S
C2278 C2259 1.368 . S
C2278 C2272 1.368 . S
C2278 C2277 1.523 . S
C2279 C2263 1.429 . S
C2279 C2275 1.429 . S
C2279 C2280 1.523 . S
C2280 C2264 1.368 . S
C2280 C2276 1.368 . S
C2280 C2279 1.523 . S
H2281 C2256 0.950 . S
H2282 C2258 0.950 . S
H2283 C2259 0.949 . S
H2284 C2261 0.950 . S
H2285 C2263 0.950 . S
C2286 C2287 1.349 . S
C2286 C2288 1.327 . S
C2286 H2311 0.950 . S
C2287 C2286 1.349 . S
C2287 C2303 1.349 . S
C2288 C2286 1.327 . S
C2288 C2307 1.429 . S
C2288 H2312 0.950 . S
C2289 C2306 1.574 . S
C2289 C2308 1.368 . S
C2289 H2313 0.949 . S
H2290 C2294 0.949 . S
C2291 C2292 1.349 . S
C2291 C2293 1.327 . S
C2291 H2314 0.950 . S
C2292 C2291 1.349 . S
C2292 C2304 1.349 . S
C2293 C2291 1.327 . S
C2293 C2309 1.429 . S
C2293 H2315 0.950 . S
C2294 H2290 0.949 . S
C2294 C2302 1.574 . S
C2294 C2310 1.368 . S
H2295 C2303 0.950 . S
H2296 C2301 0.950 . S
H2297 C2302 0.949 . S
H2298 C2304 0.950 . S
H2299 C2305 0.950 . S
H2300 C2306 0.949 . S
C2301 H2296 0.950 . S
C2301 C2303 1.327 . S
C2301 C2307 1.429 . S
C2302 C2294 1.574 . S
C2302 H2297 0.949 . S
C2302 C2308 1.368 . S
C2303 C2287 1.349 . S
C2303 H2295 0.950 . S
C2303 C2301 1.327 . S
C2304 C2292 1.349 . S
C2304 H2298 0.950 . S
C2304 C2305 1.327 . S
C2305 H2299 0.950 . S
C2305 C2304 1.327 . S
C2305 C2309 1.429 . S
C2306 C2289 1.574 . S
C2306 H2300 0.949 . S
C2306 C2310 1.368 . S
C2307 C2288 1.429 . S
C2307 C2301 1.429 . S
C2307 C2308 1.523 . S
C2308 C2289 1.368 . S
C2308 C2302 1.368 . S
C2308 C2307 1.523 . S
C2309 C2293 1.429 . S
C2309 C2305 1.429 . S
C2309 C2310 1.523 . S
C2310 C2294 1.368 . S
C2310 C2306 1.368 . S
C2310 C2309 1.523 . S
H2311 C2286 0.950 . S
H2312 C2288 0.950 . S
H2313 C2289 0.949 . S
H2314 C2291 0.950 . S
H2315 C2293 0.950 . S
C2316 C2317 1.349 . S
C2316 C2318 1.327 . S
C2316 H2341 0.950 . S
C2317 C2316 1.349 . S
C2317 C2333 1.349 . S
C2318 C2316 1.327 . S
C2318 C2337 1.429 . S
C2318 H2342 0.950 . S
C2319 C2336 1.574 . S
C2319 C2338 1.368 . S
C2319 H2343 0.949 . S
H2320 C2324 0.949 . S
C2321 C2322 1.349 . S
C2321 C2323 1.327 . S
C2321 H2344 0.950 . S
C2322 C2321 1.349 . S
C2322 C2334 1.349 . S
C2323 C2321 1.327 . S
C2323 C2339 1.429 . S
C2323 H2345 0.950 . S
C2324 H2320 0.949 . S
C2324 C2332 1.574 . S
C2324 C2340 1.368 . S
H2325 C2333 0.950 . S
H2326 C2331 0.950 . S
H2327 C2332 0.949 . S
H2328 C2334 0.950 . S
H2329 C2335 0.950 . S
H2330 C2336 0.949 . S
C2331 H2326 0.950 . S
C2331 C2333 1.327 . S
C2331 C2337 1.429 . S
C2332 C2324 1.574 . S
C2332 H2327 0.949 . S
C2332 C2338 1.368 . S
C2333 C2317 1.349 . S
C2333 H2325 0.950 . S
C2333 C2331 1.327 . S
C2334 C2322 1.349 . S
C2334 H2328 0.950 . S
C2334 C2335 1.327 . S
C2335 H2329 0.950 . S
C2335 C2334 1.327 . S
C2335 C2339 1.429 . S
C2336 C2319 1.574 . S
C2336 H2330 0.949 . S
C2336 C2340 1.368 . S
C2337 C2318 1.429 . S
C2337 C2331 1.429 . S
C2337 C2338 1.523 . S
C2338 C2319 1.368 . S
C2338 C2332 1.368 . S
C2338 C2337 1.523 . S
C2339 C2323 1.429 . S
C2339 C2335 1.429 . S
C2339 C2340 1.523 . S
C2340 C2324 1.368 . S
C2340 C2336 1.368 . S
C2340 C2339 1.523 . S
H2341 C2316 0.950 . S
H2342 C2318 0.950 . S
H2343 C2319 0.949 . S
H2344 C2321 0.950 . S
H2345 C2323 0.950 . S
C2346 C2347 1.349 . S
C2346 C2348 1.327 . S
C2346 H2371 0.950 . S
C2347 C2346 1.349 . S
C2347 C2363 1.349 . S
C2348 C2346 1.327 . S
C2348 C2367 1.429 . S
C2348 H2372 0.950 . S
C2349 C2366 1.574 . S
C2349 C2368 1.368 . S
C2349 H2373 0.949 . S
H2350 C2354 0.949 . S
C2351 C2352 1.349 . S
C2351 C2353 1.327 . S
C2351 H2374 0.950 . S
C2352 C2351 1.349 . S
C2352 C2364 1.349 . S
C2353 C2351 1.327 . S
C2353 C2369 1.429 . S
C2353 H2375 0.950 . S
C2354 H2350 0.949 . S
C2354 C2362 1.574 . S
C2354 C2370 1.368 . S
H2355 C2363 0.950 . S
H2356 C2361 0.950 . S
H2357 C2362 0.949 . S
H2358 C2364 0.950 . S
H2359 C2365 0.950 . S
H2360 C2366 0.949 . S
C2361 H2356 0.950 . S
C2361 C2363 1.327 . S
C2361 C2367 1.429 . S
C2362 C2354 1.574 . S
C2362 H2357 0.949 . S
C2362 C2368 1.368 . S
C2363 C2347 1.349 . S
C2363 H2355 0.950 . S
C2363 C2361 1.327 . S
C2364 C2352 1.349 . S
C2364 H2358 0.950 . S
C2364 C2365 1.327 . S
C2365 H2359 0.950 . S
C2365 C2364 1.327 . S
C2365 C2369 1.429 . S
C2366 C2349 1.574 . S
C2366 H2360 0.949 . S
C2366 C2370 1.368 . S
C2367 C2348 1.429 . S
C2367 C2361 1.429 . S
C2367 C2368 1.523 . S
C2368 C2349 1.368 . S
C2368 C2362 1.368 . S
C2368 C2367 1.523 . S
C2369 C2353 1.429 . S
C2369 C2365 1.429 . S
C2369 C2370 1.523 . S
C2370 C2354 1.368 . S
C2370 C2366 1.368 . S
C2370 C2369 1.523 . S
H2371 C2346 0.950 . S
H2372 C2348 0.950 . S
H2373 C2349 0.949 . S
H2374 C2351 0.950 . S
H2375 C2353 0.950 . S
C2376 C2377 1.349 . S
C2376 C2378 1.327 . S
C2376 H2401 0.950 . S
C2377 C2376 1.349 . S
C2377 C2393 1.349 . S
C2378 C2376 1.327 . S
C2378 C2397 1.429 . S
C2378 H2402 0.950 . S
C2379 C2396 1.574 . S
C2379 C2398 1.368 . S
C2379 H2403 0.949 . S
H2380 C2384 0.949 . S
C2381 C2382 1.349 . S
C2381 C2383 1.327 . S
C2381 H2404 0.950 . S
C2382 C2381 1.349 . S
C2382 C2394 1.349 . S
C2383 C2381 1.327 . S
C2383 C2399 1.429 . S
C2383 H2405 0.950 . S
C2384 H2380 0.949 . S
C2384 C2392 1.574 . S
C2384 C2400 1.368 . S
H2385 C2393 0.950 . S
H2386 C2391 0.950 . S
H2387 C2392 0.949 . S
H2388 C2394 0.950 . S
H2389 C2395 0.950 . S
H2390 C2396 0.949 . S
C2391 H2386 0.950 . S
C2391 C2393 1.327 . S
C2391 C2397 1.429 . S
C2392 C2384 1.574 . S
C2392 H2387 0.949 . S
C2392 C2398 1.368 . S
C2393 C2377 1.349 . S
C2393 H2385 0.950 . S
C2393 C2391 1.327 . S
C2394 C2382 1.349 . S
C2394 H2388 0.950 . S
C2394 C2395 1.327 . S
C2395 H2389 0.950 . S
C2395 C2394 1.327 . S
C2395 C2399 1.429 . S
C2396 C2379 1.574 . S
C2396 H2390 0.949 . S
C2396 C2400 1.368 . S
C2397 C2378 1.429 . S
C2397 C2391 1.429 . S
C2397 C2398 1.523 . S
C2398 C2379 1.368 . S
C2398 C2392 1.368 . S
C2398 C2397 1.523 . S
C2399 C2383 1.429 . S
C2399 C2395 1.429 . S
C2399 C2400 1.523 . S
C2400 C2384 1.368 . S
C2400 C2396 1.368 . S
C2400 C2399 1.523 . S
H2401 C2376 0.950 . S
H2402 C2378 0.950 . S
H2403 C2379 0.949 . S
H2404 C2381 0.950 . S
H2405 C2383 0.950 . S
C2406 C2407 1.349 . S
C2406 C2408 1.327 . S
C2406 H2431 0.950 . S
C2407 C2406 1.349 . S
C2407 C2423 1.349 . S
C2408 C2406 1.327 . S
C2408 C2427 1.429 . S
C2408 H2432 0.950 . S
C2409 C2426 1.574 . S
C2409 C2428 1.368 . S
C2409 H2433 0.949 . S
H2410 C2414 0.949 . S
C2411 C2412 1.349 . S
C2411 C2413 1.327 . S
C2411 H2434 0.950 . S
C2412 C2411 1.349 . S
C2412 C2424 1.349 . S
C2413 C2411 1.327 . S
C2413 C2429 1.429 . S
C2413 H2435 0.950 . S
C2414 H2410 0.949 . S
C2414 C2422 1.574 . S
C2414 C2430 1.368 . S
H2415 C2423 0.950 . S
H2416 C2421 0.950 . S
H2417 C2422 0.949 . S
H2418 C2424 0.950 . S
H2419 C2425 0.950 . S
H2420 C2426 0.949 . S
C2421 H2416 0.950 . S
C2421 C2423 1.327 . S
C2421 C2427 1.429 . S
C2422 C2414 1.574 . S
C2422 H2417 0.949 . S
C2422 C2428 1.368 . S
C2423 C2407 1.349 . S
C2423 H2415 0.950 . S
C2423 C2421 1.327 . S
C2424 C2412 1.349 . S
C2424 H2418 0.950 . S
C2424 C2425 1.327 . S
C2425 H2419 0.950 . S
C2425 C2424 1.327 . S
C2425 C2429 1.429 . S
C2426 C2409 1.574 . S
C2426 H2420 0.949 . S
C2426 C2430 1.368 . S
C2427 C2408 1.429 . S
C2427 C2421 1.429 . S
C2427 C2428 1.523 . S
C2428 C2409 1.368 . S
C2428 C2422 1.368 . S
C2428 C2427 1.523 . S
C2429 C2413 1.429 . S
C2429 C2425 1.429 . S
C2429 C2430 1.523 . S
C2430 C2414 1.368 . S
C2430 C2426 1.368 . S
C2430 C2429 1.523 . S
H2431 C2406 0.950 . S
H2432 C2408 0.950 . S
H2433 C2409 0.949 . S
H2434 C2411 0.950 . S
H2435 C2413 0.950 . S
C2436 C2437 1.349 . S
C2436 C2438 1.327 . S
C2436 H2461 0.950 . S
C2437 C2436 1.349 . S
C2437 C2453 1.349 . S
C2438 C2436 1.327 . S
C2438 C2457 1.429 . S
C2438 H2462 0.950 . S
C2439 C2456 1.574 . S
C2439 C2458 1.368 . S
C2439 H2463 0.949 . S
H2440 C2444 0.949 . S
C2441 C2442 1.349 . S
C2441 C2443 1.327 . S
C2441 H2464 0.950 . S
C2442 C2441 1.349 . S
C2442 C2454 1.349 . S
C2443 C2441 1.327 . S
C2443 C2459 1.429 . S
C2443 H2465 0.950 . S
C2444 H2440 0.949 . S
C2444 C2452 1.574 . S
C2444 C2460 1.368 . S
H2445 C2453 0.950 . S
H2446 C2451 0.950 . S
H2447 C2452 0.949 . S
H2448 C2454 0.950 . S
H2449 C2455 0.950 . S
H2450 C2456 0.949 . S
C2451 H2446 0.950 . S
C2451 C2453 1.327 . S
C2451 C2457 1.429 . S
C2452 C2444 1.574 . S
C2452 H2447 0.949 . S
C2452 C2458 1.368 . S
C2453 C2437 1.349 . S
C2453 H2445 0.950 . S
C2453 C2451 1.327 . S
C2454 C2442 1.349 . S
C2454 H2448 0.950 . S
C2454 C2455 1.327 . S
C2455 H2449 0.950 . S
C2455 C2454 1.327 . S
C2455 C2459 1.429 . S
C2456 C2439 1.574 . S
C2456 H2450 0.949 . S
C2456 C2460 1.368 . S
C2457 C2438 1.429 . S
C2457 C2451 1.429 . S
C2457 C2458 1.523 . S
C2458 C2439 1.368 . S
C2458 C2452 1.368 . S
C2458 C2457 1.523 . S
C2459 C2443 1.429 . S
C2459 C2455 1.429 . S
C2459 C2460 1.523 . S
C2460 C2444 1.368 . S
C2460 C2456 1.368 . S
C2460 C2459 1.523 . S
H2461 C2436 0.950 . S
H2462 C2438 0.950 . S
H2463 C2439 0.949 . S
H2464 C2441 0.950 . S
H2465 C2443 0.950 . S
C2466 C2467 1.349 . S
C2466 C2468 1.327 . S
C2466 H2491 0.950 . S
C2467 C2466 1.349 . S
C2467 C2483 1.349 . S
C2468 C2466 1.327 . S
C2468 C2487 1.429 . S
C2468 H2492 0.950 . S
C2469 C2486 1.574 . S
C2469 C2488 1.368 . S
C2469 H2493 0.949 . S
H2470 C2474 0.949 . S
C2471 C2472 1.349 . S
C2471 C2473 1.327 . S
C2471 H2494 0.950 . S
C2472 C2471 1.349 . S
C2472 C2484 1.349 . S
C2473 C2471 1.327 . S
C2473 C2489 1.429 . S
C2473 H2495 0.950 . S
C2474 H2470 0.949 . S
C2474 C2482 1.574 . S
C2474 C2490 1.368 . S
H2475 C2483 0.950 . S
H2476 C2481 0.950 . S
H2477 C2482 0.949 . S
H2478 C2484 0.950 . S
H2479 C2485 0.950 . S
H2480 C2486 0.949 . S
C2481 H2476 0.950 . S
C2481 C2483 1.327 . S
C2481 C2487 1.429 . S
C2482 C2474 1.574 . S
C2482 H2477 0.949 . S
C2482 C2488 1.368 . S
C2483 C2467 1.349 . S
C2483 H2475 0.950 . S
C2483 C2481 1.327 . S
C2484 C2472 1.349 . S
C2484 H2478 0.950 . S
C2484 C2485 1.327 . S
C2485 H2479 0.950 . S
C2485 C2484 1.327 . S
C2485 C2489 1.429 . S
C2486 C2469 1.574 . S
C2486 H2480 0.949 . S
C2486 C2490 1.368 . S
C2487 C2468 1.429 . S
C2487 C2481 1.429 . S
C2487 C2488 1.523 . S
C2488 C2469 1.368 . S
C2488 C2482 1.368 . S
C2488 C2487 1.523 . S
C2489 C2473 1.429 . S
C2489 C2485 1.429 . S
C2489 C2490 1.523 . S
C2490 C2474 1.368 . S
C2490 C2486 1.368 . S
C2490 C2489 1.523 . S
H2491 C2466 0.950 . S
H2492 C2468 0.950 . S
H2493 C2469 0.949 . S
H2494 C2471 0.950 . S
H2495 C2473 0.950 . S
C2496 C2497 1.349 . S
C2496 C2498 1.327 . S
C2496 H2521 0.950 . S
C2497 C2496 1.349 . S
C2497 C2513 1.349 . S
C2498 C2496 1.327 . S
C2498 C2517 1.429 . S
C2498 H2522 0.950 . S
C2499 C2516 1.574 . S
C2499 C2518 1.368 . S
C2499 H2523 0.949 . S
H2500 C2504 0.949 . S
C2501 C2502 1.349 . S
C2501 C2503 1.327 . S
C2501 H2524 0.950 . S
C2502 C2501 1.349 . S
C2502 C2514 1.349 . S
C2503 C2501 1.327 . S
C2503 C2519 1.429 . S
C2503 H2525 0.950 . S
C2504 H2500 0.949 . S
C2504 C2512 1.574 . S
C2504 C2520 1.368 . S
H2505 C2513 0.950 . S
H2506 C2511 0.950 . S
H2507 C2512 0.949 . S
H2508 C2514 0.950 . S
H2509 C2515 0.950 . S
H2510 C2516 0.949 . S
C2511 H2506 0.950 . S
C2511 C2513 1.327 . S
C2511 C2517 1.429 . S
C2512 C2504 1.574 . S
C2512 H2507 0.949 . S
C2512 C2518 1.368 . S
C2513 C2497 1.349 . S
C2513 H2505 0.950 . S
C2513 C2511 1.327 . S
C2514 C2502 1.349 . S
C2514 H2508 0.950 . S
C2514 C2515 1.327 . S
C2515 H2509 0.950 . S
C2515 C2514 1.327 . S
C2515 C2519 1.429 . S
C2516 C2499 1.574 . S
C2516 H2510 0.949 . S
C2516 C2520 1.368 . S
C2517 C2498 1.429 . S
C2517 C2511 1.429 . S
C2517 C2518 1.523 . S
C2518 C2499 1.368 . S
C2518 C2512 1.368 . S
C2518 C2517 1.523 . S
C2519 C2503 1.429 . S
C2519 C2515 1.429 . S
C2519 C2520 1.523 . S
C2520 C2504 1.368 . S
C2520 C2516 1.368 . S
C2520 C2519 1.523 . S
H2521 C2496 0.950 . S
H2522 C2498 0.950 . S
H2523 C2499 0.949 . S
H2524 C2501 0.950 . S
H2525 C2503 0.950 . S
C2526 C2527 1.349 . S
C2526 C2528 1.327 . S
C2526 H2551 0.950 . S
C2527 C2526 1.349 . S
C2527 C2543 1.349 . S
C2528 C2526 1.327 . S
C2528 C2547 1.429 . S
C2528 H2552 0.950 . S
C2529 C2546 1.574 . S
C2529 C2548 1.368 . S
C2529 H2553 0.949 . S
H2530 C2534 0.949 . S
C2531 C2532 1.349 . S
C2531 C2533 1.327 . S
C2531 H2554 0.950 . S
C2532 C2531 1.349 . S
C2532 C2544 1.349 . S
C2533 C2531 1.327 . S
C2533 C2549 1.429 . S
C2533 H2555 0.950 . S
C2534 H2530 0.949 . S
C2534 C2542 1.574 . S
C2534 C2550 1.368 . S
H2535 C2543 0.950 . S
H2536 C2541 0.950 . S
H2537 C2542 0.949 . S
H2538 C2544 0.950 . S
H2539 C2545 0.950 . S
H2540 C2546 0.949 . S
C2541 H2536 0.950 . S
C2541 C2543 1.327 . S
C2541 C2547 1.429 . S
C2542 C2534 1.574 . S
C2542 H2537 0.949 . S
C2542 C2548 1.368 . S
C2543 C2527 1.349 . S
C2543 H2535 0.950 . S
C2543 C2541 1.327 . S
C2544 C2532 1.349 . S
C2544 H2538 0.950 . S
C2544 C2545 1.327 . S
C2545 H2539 0.950 . S
C2545 C2544 1.327 . S
C2545 C2549 1.429 . S
C2546 C2529 1.574 . S
C2546 H2540 0.949 . S
C2546 C2550 1.368 . S
C2547 C2528 1.429 . S
C2547 C2541 1.429 . S
C2547 C2548 1.523 . S
C2548 C2529 1.368 . S
C2548 C2542 1.368 . S
C2548 C2547 1.523 . S
C2549 C2533 1.429 . S
C2549 C2545 1.429 . S
C2549 C2550 1.523 . S
C2550 C2534 1.368 . S
C2550 C2546 1.368 . S
C2550 C2549 1.523 . S
H2551 C2526 0.950 . S
H2552 C2528 0.950 . S
H2553 C2529 0.949 . S
H2554 C2531 0.950 . S
H2555 C2533 0.950 . S
C2556 C2557 1.349 . S
C2556 C2558 1.327 . S
C2556 H2581 0.950 . S
C2557 C2556 1.349 . S
C2557 C2573 1.349 . S
C2558 C2556 1.327 . S
C2558 C2577 1.429 . S
C2558 H2582 0.950 . S
C2559 C2576 1.574 . S
C2559 C2578 1.368 . S
C2559 H2583 0.949 . S
H2560 C2564 0.949 . S
C2561 C2562 1.349 . S
C2561 C2563 1.327 . S
C2561 H2584 0.950 . S
C2562 C2561 1.349 . S
C2562 C2574 1.349 . S
C2563 C2561 1.327 . S
C2563 C2579 1.429 . S
C2563 H2585 0.950 . S
C2564 H2560 0.949 . S
C2564 C2572 1.574 . S
C2564 C2580 1.368 . S
H2565 C2573 0.950 . S
H2566 C2571 0.950 . S
H2567 C2572 0.949 . S
H2568 C2574 0.950 . S
H2569 C2575 0.950 . S
H2570 C2576 0.949 . S
C2571 H2566 0.950 . S
C2571 C2573 1.327 . S
C2571 C2577 1.429 . S
C2572 C2564 1.574 . S
C2572 H2567 0.949 . S
C2572 C2578 1.368 . S
C2573 C2557 1.349 . S
C2573 H2565 0.950 . S
C2573 C2571 1.327 . S
C2574 C2562 1.349 . S
C2574 H2568 0.950 . S
C2574 C2575 1.327 . S
C2575 H2569 0.950 . S
C2575 C2574 1.327 . S
C2575 C2579 1.429 . S
C2576 C2559 1.574 . S
C2576 H2570 0.949 . S
C2576 C2580 1.368 . S
C2577 C2558 1.429 . S
C2577 C2571 1.429 . S
C2577 C2578 1.523 . S
C2578 C2559 1.368 . S
C2578 C2572 1.368 . S
C2578 C2577 1.523 . S
C2579 C2563 1.429 . S
C2579 C2575 1.429 . S
C2579 C2580 1.523 . S
C2580 C2564 1.368 . S
C2580 C2576 1.368 . S
C2580 C2579 1.523 . S
H2581 C2556 0.950 . S
H2582 C2558 0.950 . S
H2583 C2559 0.949 . S
H2584 C2561 0.950 . S
H2585 C2563 0.950 . S
C2586 C2587 1.349 . S
C2586 C2588 1.327 . S
C2586 H2611 0.950 . S
C2587 C2586 1.349 . S
C2587 C2603 1.349 . S
C2588 C2586 1.327 . S
C2588 C2607 1.429 . S
C2588 H2612 0.950 . S
C2589 C2606 1.574 . S
C2589 C2608 1.368 . S
C2589 H2613 0.949 . S
H2590 C2594 0.949 . S
C2591 C2592 1.349 . S
C2591 C2593 1.327 . S
C2591 H2614 0.950 . S
C2592 C2591 1.349 . S
C2592 C2604 1.349 . S
C2593 C2591 1.327 . S
C2593 C2609 1.429 . S
C2593 H2615 0.950 . S
C2594 H2590 0.949 . S
C2594 C2602 1.574 . S
C2594 C2610 1.368 . S
H2595 C2603 0.950 . S
H2596 C2601 0.950 . S
H2597 C2602 0.949 . S
H2598 C2604 0.950 . S
H2599 C2605 0.950 . S
H2600 C2606 0.949 . S
C2601 H2596 0.950 . S
C2601 C2603 1.327 . S
C2601 C2607 1.429 . S
C2602 C2594 1.574 . S
C2602 H2597 0.949 . S
C2602 C2608 1.368 . S
C2603 C2587 1.349 . S
C2603 H2595 0.950 . S
C2603 C2601 1.327 . S
C2604 C2592 1.349 . S
C2604 H2598 0.950 . S
C2604 C2605 1.327 . S
C2605 H2599 0.950 . S
C2605 C2604 1.327 . S
C2605 C2609 1.429 . S
C2606 C2589 1.574 . S
C2606 H2600 0.949 . S
C2606 C2610 1.368 . S
C2607 C2588 1.429 . S
C2607 C2601 1.429 . S
C2607 C2608 1.523 . S
C2608 C2589 1.368 . S
C2608 C2602 1.368 . S
C2608 C2607 1.523 . S
C2609 C2593 1.429 . S
C2609 C2605 1.429 . S
C2609 C2610 1.523 . S
C2610 C2594 1.368 . S
C2610 C2606 1.368 . S
C2610 C2609 1.523 . S
H2611 C2586 0.950 . S
H2612 C2588 0.950 . S
H2613 C2589 0.949 . S
H2614 C2591 0.950 . S
H2615 C2593 0.950 . S
C2616 C2617 1.349 . S
C2616 C2618 1.327 . S
C2616 H2641 0.950 . S
C2617 C2616 1.349 . S
C2617 C2633 1.349 . S
C2618 C2616 1.327 . S
C2618 C2637 1.429 . S
C2618 H2642 0.950 . S
C2619 C2636 1.574 . S
C2619 C2638 1.368 . S
C2619 H2643 0.949 . S
H2620 C2624 0.949 . S
C2621 C2622 1.349 . S
C2621 C2623 1.327 . S
C2621 H2644 0.950 . S
C2622 C2621 1.349 . S
C2622 C2634 1.349 . S
C2623 C2621 1.327 . S
C2623 C2639 1.429 . S
C2623 H2645 0.950 . S
C2624 H2620 0.949 . S
C2624 C2632 1.574 . S
C2624 C2640 1.368 . S
H2625 C2633 0.950 . S
H2626 C2631 0.950 . S
H2627 C2632 0.949 . S
H2628 C2634 0.950 . S
H2629 C2635 0.950 . S
H2630 C2636 0.949 . S
C2631 H2626 0.950 . S
C2631 C2633 1.327 . S
C2631 C2637 1.429 . S
C2632 C2624 1.574 . S
C2632 H2627 0.949 . S
C2632 C2638 1.368 . S
C2633 C2617 1.349 . S
C2633 H2625 0.950 . S
C2633 C2631 1.327 . S
C2634 C2622 1.349 . S
C2634 H2628 0.950 . S
C2634 C2635 1.327 . S
C2635 H2629 0.950 . S
C2635 C2634 1.327 . S
C2635 C2639 1.429 . S
C2636 C2619 1.574 . S
C2636 H2630 0.949 . S
C2636 C2640 1.368 . S
C2637 C2618 1.429 . S
C2637 C2631 1.429 . S
C2637 C2638 1.523 . S
C2638 C2619 1.368 . S
C2638 C2632 1.368 . S
C2638 C2637 1.523 . S
C2639 C2623 1.429 . S
C2639 C2635 1.429 . S
C2639 C2640 1.523 . S
C2640 C2624 1.368 . S
C2640 C2636 1.368 . S
C2640 C2639 1.523 . S
H2641 C2616 0.950 . S
H2642 C2618 0.950 . S
H2643 C2619 0.949 . S
H2644 C2621 0.950 . S
H2645 C2623 0.950 . S
C2646 C2647 1.349 . S
C2646 C2648 1.327 . S
C2646 H2671 0.950 . S
C2647 C2646 1.349 . S
C2647 C2663 1.349 . S
C2648 C2646 1.327 . S
C2648 C2667 1.429 . S
C2648 H2672 0.950 . S
C2649 C2666 1.574 . S
C2649 C2668 1.368 . S
C2649 H2673 0.949 . S
H2650 C2654 0.949 . S
C2651 C2652 1.349 . S
C2651 C2653 1.327 . S
C2651 H2674 0.950 . S
C2652 C2651 1.349 . S
C2652 C2664 1.349 . S
C2653 C2651 1.327 . S
C2653 C2669 1.429 . S
C2653 H2675 0.950 . S
C2654 H2650 0.949 . S
C2654 C2662 1.574 . S
C2654 C2670 1.368 . S
H2655 C2663 0.950 . S
H2656 C2661 0.950 . S
H2657 C2662 0.949 . S
H2658 C2664 0.950 . S
H2659 C2665 0.950 . S
H2660 C2666 0.949 . S
C2661 H2656 0.950 . S
C2661 C2663 1.327 . S
C2661 C2667 1.429 . S
C2662 C2654 1.574 . S
C2662 H2657 0.949 . S
C2662 C2668 1.368 . S
C2663 C2647 1.349 . S
C2663 H2655 0.950 . S
C2663 C2661 1.327 . S
C2664 C2652 1.349 . S
C2664 H2658 0.950 . S
C2664 C2665 1.327 . S
C2665 H2659 0.950 . S
C2665 C2664 1.327 . S
C2665 C2669 1.429 . S
C2666 C2649 1.574 . S
C2666 H2660 0.949 . S
C2666 C2670 1.368 . S
C2667 C2648 1.429 . S
C2667 C2661 1.429 . S
C2667 C2668 1.523 . S
C2668 C2649 1.368 . S
C2668 C2662 1.368 . S
C2668 C2667 1.523 . S
C2669 C2653 1.429 . S
C2669 C2665 1.429 . S
C2669 C2670 1.523 . S
C2670 C2654 1.368 . S
C2670 C2666 1.368 . S
C2670 C2669 1.523 . S
H2671 C2646 0.950 . S
H2672 C2648 0.950 . S
H2673 C2649 0.949 . S
H2674 C2651 0.950 . S
H2675 C2653 0.950 . S
C2676 C2677 1.349 . S
C2676 C2678 1.327 . S
C2676 H2701 0.950 . S
C2677 C2676 1.349 . S
C2677 C2693 1.349 . S
C2678 C2676 1.327 . S
C2678 C2697 1.429 . S
C2678 H2702 0.950 . S
C2679 C2696 1.574 . S
C2679 C2698 1.368 . S
C2679 H2703 0.949 . S
H2680 C2684 0.949 . S
C2681 C2682 1.349 . S
C2681 C2683 1.327 . S
C2681 H2704 0.950 . S
C2682 C2681 1.349 . S
C2682 C2694 1.349 . S
C2683 C2681 1.327 . S
C2683 C2699 1.429 . S
C2683 H2705 0.950 . S
C2684 H2680 0.949 . S
C2684 C2692 1.574 . S
C2684 C2700 1.368 . S
H2685 C2693 0.950 . S
H2686 C2691 0.950 . S
H2687 C2692 0.949 . S
H2688 C2694 0.950 . S
H2689 C2695 0.950 . S
H2690 C2696 0.949 . S
C2691 H2686 0.950 . S
C2691 C2693 1.327 . S
C2691 C2697 1.429 . S
C2692 C2684 1.574 . S
C2692 H2687 0.949 . S
C2692 C2698 1.368 . S
C2693 C2677 1.349 . S
C2693 H2685 0.950 . S
C2693 C2691 1.327 . S
C2694 C2682 1.349 . S
C2694 H2688 0.950 . S
C2694 C2695 1.327 . S
C2695 H2689 0.950 . S
C2695 C2694 1.327 . S
C2695 C2699 1.429 . S
C2696 C2679 1.574 . S
C2696 H2690 0.949 . S
C2696 C2700 1.368 . S
C2697 C2678 1.429 . S
C2697 C2691 1.429 . S
C2697 C2698 1.523 . S
C2698 C2679 1.368 . S
C2698 C2692 1.368 . S
C2698 C2697 1.523 . S
C2699 C2683 1.429 . S
C2699 C2695 1.429 . S
C2699 C2700 1.523 . S
C2700 C2684 1.368 . S
C2700 C2696 1.368 . S
C2700 C2699 1.523 . S
H2701 C2676 0.950 . S
H2702 C2678 0.950 . S
H2703 C2679 0.949 . S
H2704 C2681 0.950 . S
H2705 C2683 0.950 . S
C2706 C2707 1.349 . S
C2706 C2708 1.327 . S
C2706 H2731 0.950 . S
C2707 C2706 1.349 . S
C2707 C2723 1.349 . S
C2708 C2706 1.327 . S
C2708 C2727 1.429 . S
C2708 H2732 0.950 . S
C2709 C2726 1.574 . S
C2709 C2728 1.368 . S
C2709 H2733 0.949 . S
H2710 C2714 0.949 . S
C2711 C2712 1.349 . S
C2711 C2713 1.327 . S
C2711 H2734 0.950 . S
C2712 C2711 1.349 . S
C2712 C2724 1.349 . S
C2713 C2711 1.327 . S
C2713 C2729 1.429 . S
C2713 H2735 0.950 . S
C2714 H2710 0.949 . S
C2714 C2722 1.574 . S
C2714 C2730 1.368 . S
H2715 C2723 0.950 . S
H2716 C2721 0.950 . S
H2717 C2722 0.949 . S
H2718 C2724 0.950 . S
H2719 C2725 0.950 . S
H2720 C2726 0.949 . S
C2721 H2716 0.950 . S
C2721 C2723 1.327 . S
C2721 C2727 1.429 . S
C2722 C2714 1.574 . S
C2722 H2717 0.949 . S
C2722 C2728 1.368 . S
C2723 C2707 1.349 . S
C2723 H2715 0.950 . S
C2723 C2721 1.327 . S
C2724 C2712 1.349 . S
C2724 H2718 0.950 . S
C2724 C2725 1.327 . S
C2725 H2719 0.950 . S
C2725 C2724 1.327 . S
C2725 C2729 1.429 . S
C2726 C2709 1.574 . S
C2726 H2720 0.949 . S
C2726 C2730 1.368 . S
C2727 C2708 1.429 . S
C2727 C2721 1.429 . S
C2727 C2728 1.523 . S
C2728 C2709 1.368 . S
C2728 C2722 1.368 . S
C2728 C2727 1.523 . S
C2729 C2713 1.429 . S
C2729 C2725 1.429 . S
C2729 C2730 1.523 . S
C2730 C2714 1.368 . S
C2730 C2726 1.368 . S
C2730 C2729 1.523 . S
H2731 C2706 0.950 . S
H2732 C2708 0.950 . S
H2733 C2709 0.949 . S
H2734 C2711 0.950 . S
H2735 C2713 0.950 . S
C2736 C2737 1.349 . S
C2736 C2738 1.327 . S
C2736 H2761 0.950 . S
C2737 C2736 1.349 . S
C2737 C2753 1.349 . S
C2738 C2736 1.327 . S
C2738 C2757 1.429 . S
C2738 H2762 0.950 . S
C2739 C2756 1.574 . S
C2739 C2758 1.368 . S
C2739 H2763 0.949 . S
H2740 C2744 0.949 . S
C2741 C2742 1.349 . S
C2741 C2743 1.327 . S
C2741 H2764 0.950 . S
C2742 C2741 1.349 . S
C2742 C2754 1.349 . S
C2743 C2741 1.327 . S
C2743 C2759 1.429 . S
C2743 H2765 0.950 . S
C2744 H2740 0.949 . S
C2744 C2752 1.574 . S
C2744 C2760 1.368 . S
H2745 C2753 0.950 . S
H2746 C2751 0.950 . S
H2747 C2752 0.949 . S
H2748 C2754 0.950 . S
H2749 C2755 0.950 . S
H2750 C2756 0.949 . S
C2751 H2746 0.950 . S
C2751 C2753 1.327 . S
C2751 C2757 1.429 . S
C2752 C2744 1.574 . S
C2752 H2747 0.949 . S
C2752 C2758 1.368 . S
C2753 C2737 1.349 . S
C2753 H2745 0.950 . S
C2753 C2751 1.327 . S
C2754 C2742 1.349 . S
C2754 H2748 0.950 . S
C2754 C2755 1.327 . S
C2755 H2749 0.950 . S
C2755 C2754 1.327 . S
C2755 C2759 1.429 . S
C2756 C2739 1.574 . S
C2756 H2750 0.949 . S
C2756 C2760 1.368 . S
C2757 C2738 1.429 . S
C2757 C2751 1.429 . S
C2757 C2758 1.523 . S
C2758 C2739 1.368 . S
C2758 C2752 1.368 . S
C2758 C2757 1.523 . S
C2759 C2743 1.429 . S
C2759 C2755 1.429 . S
C2759 C2760 1.523 . S
C2760 C2744 1.368 . S
C2760 C2756 1.368 . S
C2760 C2759 1.523 . S
H2761 C2736 0.950 . S
H2762 C2738 0.950 . S
H2763 C2739 0.949 . S
H2764 C2741 0.950 . S
H2765 C2743 0.950 . S
C2766 C2767 1.349 . S
C2766 C2768 1.327 . S
C2766 H2791 0.950 . S
C2767 C2766 1.349 . S
C2767 C2783 1.349 . S
C2768 C2766 1.327 . S
C2768 C2787 1.429 . S
C2768 H2792 0.950 . S
C2769 C2786 1.574 . S
C2769 C2788 1.368 . S
C2769 H2793 0.949 . S
H2770 C2774 0.949 . S
C2771 C2772 1.349 . S
C2771 C2773 1.327 . S
C2771 H2794 0.950 . S
C2772 C2771 1.349 . S
C2772 C2784 1.349 . S
C2773 C2771 1.327 . S
C2773 C2789 1.429 . S
C2773 H2795 0.950 . S
C2774 H2770 0.949 . S
C2774 C2782 1.574 . S
C2774 C2790 1.368 . S
H2775 C2783 0.950 1_554 S
H2776 C2781 0.950 . S
H2777 C2782 0.949 . S
H2778 C2784 0.950 . S
H2779 C2785 0.950 . S
H2780 C2786 0.949 . S
C2781 H2776 0.950 . S
C2781 C2783 1.327 . S
C2781 C2787 1.429 . S
C2782 C2774 1.574 . S
C2782 H2777 0.949 . S
C2782 C2788 1.368 . S
C2783 C2767 1.349 . S
C2783 H2775 0.950 1_556 S
C2783 C2781 1.327 . S
C2784 C2772 1.349 . S
C2784 H2778 0.950 . S
C2784 C2785 1.327 . S
C2785 H2779 0.950 . S
C2785 C2784 1.327 . S
C2785 C2789 1.429 . S
C2786 C2769 1.574 . S
C2786 H2780 0.949 . S
C2786 C2790 1.368 . S
C2787 C2768 1.429 . S
C2787 C2781 1.429 . S
C2787 C2788 1.523 . S
C2788 C2769 1.368 . S
C2788 C2782 1.368 . S
C2788 C2787 1.523 . S
C2789 C2773 1.429 . S
C2789 C2785 1.429 . S
C2789 C2790 1.523 . S
C2790 C2774 1.368 . S
C2790 C2786 1.368 . S
C2790 C2789 1.523 . S
H2791 C2766 0.950 . S
H2792 C2768 0.950 . S
H2793 C2769 0.949 . S
H2794 C2771 0.950 . S
H2795 C2773 0.950 . S
C2796 C2797 1.349 . S
C2796 C2798 1.327 . S
C2796 H2821 0.950 . S
C2797 C2796 1.349 . S
C2797 C2813 1.349 . S
C2798 C2796 1.327 . S
C2798 C2817 1.429 . S
C2798 H2822 0.950 . S
C2799 C2816 1.574 . S
C2799 C2818 1.367 1_556 S
C2799 H2823 0.949 . S
H2800 C2804 0.951 . S
C2801 C2802 1.349 . S
C2801 C2803 1.327 . S
C2801 H2824 0.950 . S
C2802 C2801 1.349 . S
C2802 C2814 1.349 . S
C2803 C2801 1.327 . S
C2803 C2819 1.429 . S
C2803 H2825 0.950 . S
C2804 H2800 0.951 . S
C2804 C2812 1.574 1_556 S
C2804 C2820 1.368 . S
H2805 C2813 0.950 . S
H2806 C2811 0.950 1_556 S
H2807 C2812 0.949 . S
H2808 C2814 0.950 . S
H2809 C2815 0.950 . S
H2810 C2816 0.949 . S
C2811 H2806 0.950 1_554 S
C2811 C2813 1.327 . S
C2811 C2817 1.429 . S
C2812 C2804 1.574 1_554 S
C2812 H2807 0.949 . S
C2812 C2818 1.369 . S
C2813 C2797 1.349 . S
C2813 H2805 0.950 . S
C2813 C2811 1.327 . S
C2814 C2802 1.349 . S
C2814 H2808 0.950 . S
C2814 C2815 1.327 . S
C2815 H2809 0.950 . S
C2815 C2814 1.327 . S
C2815 C2819 1.429 . S
C2816 C2799 1.574 . S
C2816 H2810 0.949 . S
C2816 C2820 1.368 . S
C2817 C2798 1.429 . S
C2817 C2811 1.429 . S
C2817 C2818 1.524 . S
C2818 C2799 1.367 1_554 S
C2818 C2812 1.369 . S
C2818 C2817 1.524 . S
C2819 C2803 1.429 . S
C2819 C2815 1.429 . S
C2819 C2820 1.523 . S
C2820 C2804 1.368 . S
C2820 C2816 1.368 . S
C2820 C2819 1.523 . S
H2821 C2796 0.950 . S
H2822 C2798 0.950 . S
H2823 C2799 0.949 . S
H2824 C2801 0.950 . S
H2825 C2803 0.950 . S
C2826 C2827 1.349 1_556 S
C2826 C2828 1.327 . S
C2826 H2851 0.950 . S
C2827 C2826 1.349 1_554 S
C2827 C2843 1.349 . S
C2828 C2826 1.327 . S
C2828 C2847 1.429 . S
C2828 H2852 0.950 . S
C2829 C2846 1.574 . S
C2829 C2848 1.368 . S
C2829 H2853 0.949 . S
H2830 C2834 0.949 . S
C2831 C2832 1.349 . S
C2831 C2833 1.327 . S
C2831 H2854 0.950 . S
C2832 C2831 1.349 . S
C2832 C2844 1.349 . S
C2833 C2831 1.327 . S
C2833 C2849 1.429 . S
C2833 H2855 0.950 . S
C2834 H2830 0.949 . S
C2834 C2842 1.574 . S
C2834 C2850 1.368 . S
H2835 C2843 0.950 . S
H2836 C2841 0.950 . S
H2837 C2842 0.949 . S
H2838 C2844 0.950 . S
H2839 C2845 0.950 . S
H2840 C2846 0.949 . S
C2841 H2836 0.950 . S
C2841 C2843 1.327 . S
C2841 C2847 1.429 1_554 S
C2842 C2834 1.574 . S
C2842 H2837 0.949 . S
C2842 C2848 1.368 . S
C2843 C2827 1.349 . S
C2843 H2835 0.950 . S
C2843 C2841 1.327 . S
C2844 C2832 1.349 . S
C2844 H2838 0.950 . S
C2844 C2845 1.327 . S
C2845 H2839 0.950 . S
C2845 C2844 1.327 . S
C2845 C2849 1.429 . S
C2846 C2829 1.574 . S
C2846 H2840 0.949 . S
C2846 C2850 1.368 . S
C2847 C2828 1.429 . S
C2847 C2841 1.429 1_556 S
C2847 C2848 1.523 . S
C2848 C2829 1.368 . S
C2848 C2842 1.368 . S
C2848 C2847 1.523 . S
C2849 C2833 1.429 . S
C2849 C2845 1.429 . S
C2849 C2850 1.523 . S
C2850 C2834 1.368 . S
C2850 C2846 1.368 . S
C2850 C2849 1.523 . S
H2851 C2826 0.950 . S
H2852 C2828 0.950 . S
H2853 C2829 0.949 . S
H2854 C2831 0.950 . S
H2855 C2833 0.950 . S
C2856 C2857 1.349 . S
C2856 C2858 1.327 . S
C2856 H2881 0.950 . S
C2857 C2856 1.349 . S
C2857 C2873 1.349 . S
C2858 C2856 1.327 . S
C2858 C2877 1.429 . S
C2858 H2882 0.950 . S
C2859 C2876 1.574 . S
C2859 C2878 1.368 . S
C2859 H2883 0.949 . S
H2860 C2864 0.949 . S
C2861 C2862 1.349 . S
C2861 C2863 1.327 . S
C2861 H2884 0.950 . S
C2862 C2861 1.349 . S
C2862 C2874 1.349 . S
C2863 C2861 1.327 . S
C2863 C2879 1.429 . S
C2863 H2885 0.950 . S
C2864 H2860 0.949 . S
C2864 C2872 1.574 . S
C2864 C2880 1.368 . S
H2865 C2873 0.950 . S
H2866 C2871 0.950 . S
H2867 C2872 0.949 . S
H2868 C2874 0.950 . S
H2869 C2875 0.950 . S
H2870 C2876 0.949 . S
C2871 H2866 0.950 . S
C2871 C2873 1.327 . S
C2871 C2877 1.429 . S
C2872 C2864 1.574 . S
C2872 H2867 0.949 . S
C2872 C2878 1.368 . S
C2873 C2857 1.349 . S
C2873 H2865 0.950 . S
C2873 C2871 1.327 . S
C2874 C2862 1.349 . S
C2874 H2868 0.950 . S
C2874 C2875 1.327 . S
C2875 H2869 0.950 . S
C2875 C2874 1.327 . S
C2875 C2879 1.429 . S
C2876 C2859 1.574 . S
C2876 H2870 0.949 . S
C2876 C2880 1.368 . S
C2877 C2858 1.429 . S
C2877 C2871 1.429 . S
C2877 C2878 1.523 . S
C2878 C2859 1.368 . S
C2878 C2872 1.368 . S
C2878 C2877 1.523 . S
C2879 C2863 1.429 . S
C2879 C2875 1.429 . S
C2879 C2880 1.523 . S
C2880 C2864 1.368 . S
C2880 C2876 1.368 . S
C2880 C2879 1.523 . S
H2881 C2856 0.950 . S
H2882 C2858 0.950 . S
H2883 C2859 0.949 . S
H2884 C2861 0.950 . S
H2885 C2863 0.950 . S
C2886 C2887 1.349 . S
C2886 C2888 1.327 . S
C2886 H2911 0.950 . S
C2887 C2886 1.349 . S
C2887 C2903 1.349 1_554 S
C2888 C2886 1.327 . S
C2888 C2907 1.429 1_554 S
C2888 H2912 0.950 . S
C2889 C2906 1.574 . S
C2889 C2908 1.368 . S
C2889 H2913 0.949 . S
H2890 C2894 0.949 . S
C2891 C2892 1.349 . S
C2891 C2893 1.327 . S
C2891 H2914 0.950 . S
C2892 C2891 1.349 . S
C2892 C2904 1.349 . S
C2893 C2891 1.327 . S
C2893 C2909 1.429 . S
C2893 H2915 0.950 . S
C2894 H2890 0.949 . S
C2894 C2902 1.574 . S
C2894 C2910 1.368 . S
H2895 C2903 0.950 . S
H2896 C2901 0.950 . S
H2897 C2902 0.949 1_554 S
H2898 C2904 0.950 . S
H2899 C2905 0.950 . S
H2900 C2906 0.949 . S
C2901 H2896 0.950 . S
C2901 C2903 1.327 . S
C2901 C2907 1.429 . S
C2902 C2894 1.574 . S
C2902 H2897 0.949 1_556 S
C2902 C2908 1.368 . S
C2903 C2887 1.349 1_556 S
C2903 H2895 0.950 . S
C2903 C2901 1.327 . S
C2904 C2892 1.349 . S
C2904 H2898 0.950 . S
C2904 C2905 1.327 . S
C2905 H2899 0.950 . S
C2905 C2904 1.327 . S
C2905 C2909 1.429 . S
C2906 C2889 1.574 . S
C2906 H2900 0.949 . S
C2906 C2910 1.368 . S
C2907 C2888 1.429 1_556 S
C2907 C2901 1.429 . S
C2907 C2908 1.523 . S
C2908 C2889 1.368 . S
C2908 C2902 1.368 . S
C2908 C2907 1.523 . S
C2909 C2893 1.429 . S
C2909 C2905 1.429 . S
C2909 C2910 1.523 . S
C2910 C2894 1.368 . S
C2910 C2906 1.368 . S
C2910 C2909 1.523 . S
H2911 C2886 0.950 . S
H2912 C2888 0.950 . S
H2913 C2889 0.949 . S
H2914 C2891 0.950 . S
H2915 C2893 0.950 . S
C2916 C2917 1.349 . S
C2916 C2918 1.327 . S
C2916 H2941 0.950 . S
C2917 C2916 1.349 . S
C2917 C2933 1.349 . S
C2918 C2916 1.327 . S
C2918 C2937 1.429 . S
C2918 H2942 0.950 . S
C2919 C2936 1.574 . S
C2919 C2938 1.368 . S
C2919 H2943 0.949 . S
H2920 C2924 0.949 . S
C2921 C2922 1.349 . S
C2921 C2923 1.327 . S
C2921 H2944 0.950 . S
C2922 C2921 1.349 . S
C2922 C2934 1.349 . S
C2923 C2921 1.327 . S
C2923 C2939 1.429 . S
C2923 H2945 0.950 . S
C2924 H2920 0.949 . S
C2924 C2932 1.574 . S
C2924 C2940 1.368 . S
H2925 C2933 0.950 . S
H2926 C2931 0.950 . S
H2927 C2932 0.949 . S
H2928 C2934 0.950 . S
H2929 C2935 0.950 . S
H2930 C2936 0.949 . S
C2931 H2926 0.950 . S
C2931 C2933 1.327 . S
C2931 C2937 1.429 . S
C2932 C2924 1.574 . S
C2932 H2927 0.949 . S
C2932 C2938 1.368 . S
C2933 C2917 1.349 . S
C2933 H2925 0.950 . S
C2933 C2931 1.327 . S
C2934 C2922 1.349 . S
C2934 H2928 0.950 . S
C2934 C2935 1.327 . S
C2935 H2929 0.950 . S
C2935 C2934 1.327 . S
C2935 C2939 1.429 . S
C2936 C2919 1.574 . S
C2936 H2930 0.949 . S
C2936 C2940 1.368 . S
C2937 C2918 1.429 . S
C2937 C2931 1.429 . S
C2937 C2938 1.523 . S
C2938 C2919 1.368 . S
C2938 C2932 1.368 . S
C2938 C2937 1.523 . S
C2939 C2923 1.429 . S
C2939 C2935 1.429 . S
C2939 C2940 1.523 . S
C2940 C2924 1.368 . S
C2940 C2936 1.368 . S
C2940 C2939 1.523 . S
H2941 C2916 0.950 . S
H2942 C2918 0.950 . S
H2943 C2919 0.949 . S
H2944 C2921 0.950 . S
H2945 C2923 0.950 . S
C2946 C2947 1.349 . S
C2946 C2948 1.327 . S
C2946 H2971 0.950 . S
C2947 C2946 1.349 . S
C2947 C2963 1.349 . S
C2948 C2946 1.327 . S
C2948 C2967 1.429 . S
C2948 H2972 0.950 . S
C2949 C2966 1.574 . S
C2949 C2968 1.368 . S
C2949 H2973 0.949 . S
H2950 C2954 0.949 . S
C2951 C2952 1.349 . S
C2951 C2953 1.327 . S
C2951 H2974 0.950 . S
C2952 C2951 1.349 . S
C2952 C2964 1.349 . S
C2953 C2951 1.327 . S
C2953 C2969 1.429 . S
C2953 H2975 0.950 . S
C2954 H2950 0.949 . S
C2954 C2962 1.574 . S
C2954 C2970 1.368 . S
H2955 C2963 0.950 . S
H2956 C2961 0.950 . S
H2957 C2962 0.949 . S
H2958 C2964 0.950 . S
H2959 C2965 0.950 . S
H2960 C2966 0.949 . S
C2961 H2956 0.950 . S
C2961 C2963 1.327 . S
C2961 C2967 1.429 . S
C2962 C2954 1.574 . S
C2962 H2957 0.949 . S
C2962 C2968 1.368 . S
C2963 C2947 1.349 . S
C2963 H2955 0.950 . S
C2963 C2961 1.327 . S
C2964 C2952 1.349 . S
C2964 H2958 0.950 . S
C2964 C2965 1.327 . S
C2965 H2959 0.950 . S
C2965 C2964 1.327 . S
C2965 C2969 1.429 . S
C2966 C2949 1.574 . S
C2966 H2960 0.949 . S
C2966 C2970 1.368 . S
C2967 C2948 1.429 . S
C2967 C2961 1.429 . S
C2967 C2968 1.523 . S
C2968 C2949 1.368 . S
C2968 C2962 1.368 . S
C2968 C2967 1.523 . S
C2969 C2953 1.429 . S
C2969 C2965 1.429 . S
C2969 C2970 1.523 . S
C2970 C2954 1.368 . S
C2970 C2966 1.368 . S
C2970 C2969 1.523 . S
H2971 C2946 0.950 . S
H2972 C2948 0.950 . S
H2973 C2949 0.949 . S
H2974 C2951 0.950 . S
H2975 C2953 0.950 . S
C2976 C2977 1.349 . S
C2976 C2978 1.327 . S
C2976 H3001 0.950 . S
C2977 C2976 1.349 . S
C2977 C2993 1.349 . S
C2978 C2976 1.327 . S
C2978 C2997 1.429 . S
C2978 H3002 0.950 . S
C2979 C2996 1.574 . S
C2979 C2998 1.368 . S
C2979 H3003 0.949 . S
H2980 C2984 0.949 . S
C2981 C2982 1.349 . S
C2981 C2983 1.327 . S
C2981 H3004 0.950 . S
C2982 C2981 1.349 . S
C2982 C2994 1.349 . S
C2983 C2981 1.327 . S
C2983 C2999 1.429 . S
C2983 H3005 0.950 . S
C2984 H2980 0.949 . S
C2984 C2992 1.574 . S
C2984 C3000 1.368 . S
H2985 C2993 0.950 . S
H2986 C2991 0.950 . S
H2987 C2992 0.949 . S
H2988 C2994 0.950 . S
H2989 C2995 0.950 . S
H2990 C2996 0.949 . S
C2991 H2986 0.950 . S
C2991 C2993 1.327 . S
C2991 C2997 1.429 . S
C2992 C2984 1.574 . S
C2992 H2987 0.949 . S
C2992 C2998 1.368 . S
C2993 C2977 1.349 . S
C2993 H2985 0.950 . S
C2993 C2991 1.327 . S
C2994 C2982 1.349 . S
C2994 H2988 0.950 . S
C2994 C2995 1.327 . S
C2995 H2989 0.950 . S
C2995 C2994 1.327 . S
C2995 C2999 1.429 . S
C2996 C2979 1.574 . S
C2996 H2990 0.949 . S
C2996 C3000 1.368 . S
C2997 C2978 1.429 . S
C2997 C2991 1.429 . S
C2997 C2998 1.523 . S
C2998 C2979 1.368 . S
C2998 C2992 1.368 . S
C2998 C2997 1.523 . S
C2999 C2983 1.429 . S
C2999 C2995 1.429 . S
C2999 C3000 1.523 . S
C3000 C2984 1.368 . S
C3000 C2996 1.368 . S
C3000 C2999 1.523 . S
H3001 C2976 0.950 . S
H3002 C2978 0.950 . S
H3003 C2979 0.949 . S
H3004 C2981 0.950 . S
H3005 C2983 0.950 . S
C3006 C3007 1.349 . S
C3006 C3008 1.327 . S
C3006 H3031 0.950 . S
C3007 C3006 1.349 . S
C3007 C3023 1.349 . S
C3008 C3006 1.327 . S
C3008 C3027 1.429 . S
C3008 H3032 0.950 . S
C3009 C3026 1.574 . S
C3009 C3028 1.368 . S
C3009 H3033 0.949 . S
H3010 C3014 0.949 . S
C3011 C3012 1.349 . S
C3011 C3013 1.327 . S
C3011 H3034 0.950 . S
C3012 C3011 1.349 . S
C3012 C3024 1.349 . S
C3013 C3011 1.327 . S
C3013 C3029 1.429 . S
C3013 H3035 0.950 . S
C3014 H3010 0.949 . S
C3014 C3022 1.574 . S
C3014 C3030 1.368 . S
H3015 C3023 0.950 . S
H3016 C3021 0.950 . S
H3017 C3022 0.949 . S
H3018 C3024 0.950 . S
H3019 C3025 0.950 . S
H3020 C3026 0.949 . S
C3021 H3016 0.950 . S
C3021 C3023 1.327 . S
C3021 C3027 1.429 . S
C3022 C3014 1.574 . S
C3022 H3017 0.949 . S
C3022 C3028 1.368 . S
C3023 C3007 1.349 . S
C3023 H3015 0.950 . S
C3023 C3021 1.327 . S
C3024 C3012 1.349 . S
C3024 H3018 0.950 . S
C3024 C3025 1.327 . S
C3025 H3019 0.950 . S
C3025 C3024 1.327 . S
C3025 C3029 1.429 . S
C3026 C3009 1.574 . S
C3026 H3020 0.949 . S
C3026 C3030 1.368 . S
C3027 C3008 1.429 . S
C3027 C3021 1.429 . S
C3027 C3028 1.523 . S
C3028 C3009 1.368 . S
C3028 C3022 1.368 . S
C3028 C3027 1.523 . S
C3029 C3013 1.429 . S
C3029 C3025 1.429 . S
C3029 C3030 1.523 . S
C3030 C3014 1.368 . S
C3030 C3026 1.368 . S
C3030 C3029 1.523 . S
H3031 C3006 0.950 . S
H3032 C3008 0.950 . S
H3033 C3009 0.949 . S
H3034 C3011 0.950 . S
H3035 C3013 0.950 . S
C3036 C3037 1.349 . S
C3036 C3038 1.310 1_565 S
C3036 H3061 0.968 . S
C3037 C3036 1.349 . S
C3037 C3053 1.296 1_565 S
C3038 C3036 1.310 1_545 S
C3038 C3057 1.429 . S
C3038 H3062 0.950 . S
C3039 C3056 1.574 . S
C3039 C3058 1.368 . S
C3039 H3063 0.949 . S
H3040 C3044 0.949 . S
C3041 C3042 1.349 . S
C3041 C3043 1.327 . S
C3041 H3064 0.950 . S
C3042 C3041 1.349 . S
C3042 C3054 1.349 . S
C3043 C3041 1.327 . S
C3043 C3059 1.429 . S
C3043 H3065 0.950 . S
C3044 H3040 0.949 . S
C3044 C3052 1.574 . S
C3044 C3060 1.368 . S
H3045 C3053 0.950 . S
H3046 C3051 0.950 . S
H3047 C3052 0.949 . S
H3048 C3054 0.950 . S
H3049 C3055 0.950 . S
H3050 C3056 0.949 . S
C3051 H3046 0.950 . S
C3051 C3053 1.327 . S
C3051 C3057 1.429 . S
C3052 C3044 1.574 . S
C3052 H3047 0.949 . S
C3052 C3058 1.368 . S
C3053 C3037 1.296 1_545 S
C3053 H3045 0.950 . S
C3053 C3051 1.327 . S
C3054 C3042 1.349 . S
C3054 H3048 0.950 . S
C3054 C3055 1.327 . S
C3055 H3049 0.950 . S
C3055 C3054 1.327 . S
C3055 C3059 1.429 . S
C3056 C3039 1.574 . S
C3056 H3050 0.949 . S
C3056 C3060 1.368 . S
C3057 C3038 1.429 . S
C3057 C3051 1.429 . S
C3057 C3058 1.523 . S
C3058 C3039 1.368 . S
C3058 C3052 1.368 . S
C3058 C3057 1.523 . S
C3059 C3043 1.429 . S
C3059 C3055 1.429 . S
C3059 C3060 1.523 . S
C3060 C3044 1.368 . S
C3060 C3056 1.368 . S
C3060 C3059 1.523 . S
H3061 C3036 0.968 . S
H3062 C3038 0.950 . S
H3063 C3039 0.949 . S
H3064 C3041 0.950 . S
H3065 C3043 0.950 . S
C3066 C3067 1.349 1_655 S
C3066 C3068 1.327 . S
C3066 H3091 0.950 . S
C3067 C3066 1.349 1_455 S
C3067 C3083 1.349 . S
C3068 C3066 1.327 . S
C3068 C3087 1.429 . S
C3068 H3092 0.950 . S
C3069 C3086 1.574 . S
C3069 C3088 1.368 . S
C3069 H3093 0.949 . S
H3070 C3074 0.949 . S
C3071 C3072 1.349 . S
C3071 C3073 1.327 . S
C3071 H3094 0.950 . S
C3072 C3071 1.349 . S
C3072 C3084 1.349 . S
C3073 C3071 1.327 . S
C3073 C3089 1.429 . S
C3073 H3095 0.950 . S
C3074 H3070 0.949 . S
C3074 C3082 1.574 . S
C3074 C3090 1.368 . S
H3075 C3083 0.950 . S
H3076 C3081 0.975 . S
H3077 C3082 0.949 . S
H3078 C3084 0.950 . S
H3079 C3085 0.950 . S
H3080 C3086 0.949 . S
C3081 H3076 0.975 . S
C3081 C3083 1.327 1_655 S
C3081 C3087 1.429 . S
C3082 C3074 1.574 . S
C3082 H3077 0.949 . S
C3082 C3088 1.368 . S
C3083 C3067 1.349 . S
C3083 H3075 0.950 . S
C3083 C3081 1.327 1_455 S
C3084 C3072 1.349 . S
C3084 H3078 0.950 . S
C3084 C3085 1.327 . S
C3085 H3079 0.950 . S
C3085 C3084 1.327 . S
C3085 C3089 1.429 . S
C3086 C3069 1.574 . S
C3086 H3080 0.949 . S
C3086 C3090 1.368 . S
C3087 C3068 1.429 . S
C3087 C3081 1.429 . S
C3087 C3088 1.523 . S
C3088 C3069 1.368 . S
C3088 C3082 1.368 . S
C3088 C3087 1.523 . S
C3089 C3073 1.429 . S
C3089 C3085 1.429 . S
C3089 C3090 1.523 . S
C3090 C3074 1.368 . S
C3090 C3086 1.368 . S
C3090 C3089 1.523 . S
H3091 C3066 0.950 . S
H3092 C3068 0.950 . S
H3093 C3069 0.949 . S
H3094 C3071 0.950 . S
H3095 C3073 0.950 . S
C3096 C3097 1.349 . S
C3096 C3098 1.327 . S
C3096 H3121 0.950 . S
C3097 C3096 1.349 . S
C3097 C3113 1.349 . S
C3098 C3096 1.327 . S
C3098 C3117 1.429 . S
C3098 H3122 0.950 . S
C3099 C3116 1.574 . S
C3099 C3118 1.368 . S
C3099 H3123 0.949 . S
H3100 C3104 0.949 . S
C3101 C3102 1.349 . S
C3101 C3103 1.327 . S
C3101 H3124 0.950 . S
C3102 C3101 1.349 . S
C3102 C3114 1.349 . S
C3103 C3101 1.327 . S
C3103 C3119 1.429 . S
C3103 H3125 0.950 . S
C3104 H3100 0.949 . S
C3104 C3112 1.574 . S
C3104 C3120 1.368 . S
H3105 C3113 0.950 . S
H3106 C3111 0.950 . S
H3107 C3112 0.949 . S
H3108 C3114 0.950 1_655 S
H3109 C3115 0.977 . S
H3110 C3116 0.949 . S
C3111 H3106 0.950 . S
C3111 C3113 1.327 . S
C3111 C3117 1.429 . S
C3112 C3104 1.574 . S
C3112 H3107 0.949 . S
C3112 C3118 1.368 . S
C3113 C3097 1.349 . S
C3113 H3105 0.950 . S
C3113 C3111 1.327 . S
C3114 C3102 1.349 . S
C3114 H3108 0.950 1_455 S
C3114 C3115 1.327 . S
C3115 H3109 0.977 . S
C3115 C3114 1.327 . S
C3115 C3119 1.429 . S
C3116 C3099 1.574 . S
C3116 H3110 0.949 . S
C3116 C3120 1.368 . S
C3117 C3098 1.429 . S
C3117 C3111 1.429 . S
C3117 C3118 1.523 . S
C3118 C3099 1.368 . S
C3118 C3112 1.368 . S
C3118 C3117 1.523 . S
C3119 C3103 1.429 . S
C3119 C3115 1.429 . S
C3119 C3120 1.523 . S
C3120 C3104 1.368 . S
C3120 C3116 1.368 . S
C3120 C3119 1.523 . S
H3121 C3096 0.950 . S
H3122 C3098 0.950 . S
H3123 C3099 0.949 . S
H3124 C3101 0.950 . S
H3125 C3103 0.950 . S
C3126 C3127 1.349 . S
C3126 C3128 1.327 . S
C3126 H3151 0.950 . S
C3127 C3126 1.349 . S
C3127 C3143 1.349 . S
C3128 C3126 1.327 . S
C3128 C3147 1.429 . S
C3128 H3152 0.950 . S
C3129 C3146 1.574 . S
C3129 C3148 1.368 . S
C3129 H3153 0.949 . S
H3130 C3134 0.949 . S
C3131 C3132 1.349 . S
C3131 C3133 1.327 . S
C3131 H3154 0.950 . S
C3132 C3131 1.349 . S
C3132 C3144 1.349 . S
C3133 C3131 1.327 . S
C3133 C3149 1.429 . S
C3133 H3155 0.950 . S
C3134 H3130 0.949 . S
C3134 C3142 1.574 . S
C3134 C3150 1.368 . S
H3135 C3143 0.950 . S
H3136 C3141 0.950 . S
H3137 C3142 0.949 . S
H3138 C3144 0.950 . S
H3139 C3145 0.950 . S
H3140 C3146 0.949 . S
C3141 H3136 0.950 . S
C3141 C3143 1.327 . S
C3141 C3147 1.429 . S
C3142 C3134 1.574 . S
C3142 H3137 0.949 . S
C3142 C3148 1.368 . S
C3143 C3127 1.349 . S
C3143 H3135 0.950 . S
C3143 C3141 1.327 . S
C3144 C3132 1.349 . S
C3144 H3138 0.950 . S
C3144 C3145 1.327 . S
C3145 H3139 0.950 . S
C3145 C3144 1.327 . S
C3145 C3149 1.429 . S
C3146 C3129 1.574 . S
C3146 H3140 0.949 . S
C3146 C3150 1.368 . S
C3147 C3128 1.429 . S
C3147 C3141 1.429 . S
C3147 C3148 1.523 . S
C3148 C3129 1.368 . S
C3148 C3142 1.368 . S
C3148 C3147 1.523 . S
C3149 C3133 1.429 . S
C3149 C3145 1.429 . S
C3149 C3150 1.523 . S
C3150 C3134 1.368 . S
C3150 C3146 1.368 . S
C3150 C3149 1.523 . S
H3151 C3126 0.950 . S
H3152 C3128 0.950 . S
H3153 C3129 0.949 . S
H3154 C3131 0.950 . S
H3155 C3133 0.950 . S
C3156 C3157 1.349 . S
C3156 C3158 1.327 . S
C3156 H3181 0.950 . S
C3157 C3156 1.349 . S
C3157 C3173 1.349 . S
C3158 C3156 1.327 . S
C3158 C3177 1.429 . S
C3158 H3182 0.950 . S
C3159 C3176 1.574 . S
C3159 C3178 1.368 . S
C3159 H3183 0.949 . S
H3160 C3164 0.949 . S
C3161 C3162 1.349 . S
C3161 C3163 1.327 . S
C3161 H3184 0.950 1_565 S
C3162 C3161 1.349 . S
C3162 C3174 1.349 . S
C3163 C3161 1.327 . S
C3163 C3179 1.429 . S
C3163 H3185 0.950 1_565 S
C3164 H3160 0.949 . S
C3164 C3172 1.574 . S
C3164 C3180 1.368 . S
H3165 C3173 0.950 . S
H3166 C3171 0.950 . S
H3167 C3172 0.949 . S
H3168 C3174 0.950 . S
H3169 C3175 0.950 . S
H3170 C3176 0.949 . S
C3171 H3166 0.950 . S
C3171 C3173 1.327 . S
C3171 C3177 1.429 . S
C3172 C3164 1.574 . S
C3172 H3167 0.949 . S
C3172 C3178 1.368 . S
C3173 C3157 1.349 . S
C3173 H3165 0.950 . S
C3173 C3171 1.327 . S
C3174 C3162 1.349 . S
C3174 H3168 0.950 . S
C3174 C3175 1.327 . S
C3175 H3169 0.950 . S
C3175 C3174 1.327 . S
C3175 C3179 1.429 . S
C3176 C3159 1.574 . S
C3176 H3170 0.949 . S
C3176 C3180 1.368 . S
C3177 C3158 1.429 . S
C3177 C3171 1.429 . S
C3177 C3178 1.523 . S
C3178 C3159 1.368 . S
C3178 C3172 1.368 . S
C3178 C3177 1.523 . S
C3179 C3163 1.429 . S
C3179 C3175 1.429 . S
C3179 C3180 1.523 . S
C3180 C3164 1.368 . S
C3180 C3176 1.368 . S
C3180 C3179 1.523 . S
H3181 C3156 0.950 . S
H3182 C3158 0.950 . S
H3183 C3159 0.949 . S
H3184 C3161 0.950 1_545 S
H3185 C3163 0.950 1_545 S
C3186 C3187 1.349 . S
C3186 C3188 1.327 . S
C3186 H3211 0.950 . S
C3187 C3186 1.349 . S
C3187 C3203 1.349 . S
C3188 C3186 1.327 . S
C3188 C3207 1.429 . S
C3188 H3212 0.950 . S
C3189 C3206 1.574 . S
C3189 C3208 1.368 . S
C3189 H3213 0.949 . S
H3190 C3194 0.949 . S
C3191 C3192 1.348 . S
C3191 C3193 1.327 . S
C3191 H3214 0.950 . S
C3192 C3191 1.348 . S
C3192 C3204 1.342 1_545 S
C3193 C3191 1.327 . S
C3193 C3209 1.429 1_545 S
C3193 H3215 0.950 . S
C3194 H3190 0.949 . S
C3194 C3202 1.574 . S
C3194 C3210 1.368 . S
H3195 C3203 0.950 . S
H3196 C3201 0.950 . S
H3197 C3202 0.949 . S
H3198 C3204 0.950 . S
H3199 C3205 0.950 . S
H3200 C3206 0.949 1_545 S
C3201 H3196 0.950 . S
C3201 C3203 1.327 . S
C3201 C3207 1.429 . S
C3202 C3194 1.574 . S
C3202 H3197 0.949 . S
C3202 C3208 1.368 . S
C3203 C3187 1.349 . S
C3203 H3195 0.950 . S
C3203 C3201 1.327 . S
C3204 C3192 1.342 1_565 S
C3204 H3198 0.950 . S
C3204 C3205 1.327 . S
C3205 H3199 0.950 . S
C3205 C3204 1.327 . S
C3205 C3209 1.429 . S
C3206 C3189 1.574 . S
C3206 H3200 0.949 1_565 S
C3206 C3210 1.368 . S
C3207 C3188 1.429 . S
C3207 C3201 1.429 . S
C3207 C3208 1.523 . S
C3208 C3189 1.368 . S
C3208 C3202 1.368 . S
C3208 C3207 1.523 . S
C3209 C3193 1.429 1_565 S
C3209 C3205 1.429 . S
C3209 C3210 1.523 . S
C3210 C3194 1.368 . S
C3210 C3206 1.368 . S
C3210 C3209 1.523 . S
H3211 C3186 0.950 . S
H3212 C3188 0.950 . S
H3213 C3189 0.949 . S
H3214 C3191 0.950 . S
H3215 C3193 0.950 . S
C3216 C3217 1.349 . S
C3216 C3218 1.327 . S
C3216 H3241 0.950 . S
C3217 C3216 1.349 . S
C3217 C3233 1.349 . S
C3218 C3216 1.327 . S
C3218 C3237 1.429 . S
C3218 H3242 0.950 . S
C3219 C3236 1.574 . S
C3219 C3238 1.368 . S
C3219 H3243 0.949 . S
H3220 C3224 0.989 . S
C3221 C3222 1.309 1_455 S
C3221 C3223 1.327 . S
C3221 H3244 0.950 . S
C3222 C3221 1.309 1_655 S
C3222 C3234 1.412 . S
C3223 C3221 1.327 . S
C3223 C3239 1.429 . S
C3223 H3245 0.950 . S
C3224 H3220 0.989 . S
C3224 C3232 1.595 1_655 S
C3224 C3240 1.309 1_655 S
H3225 C3233 0.950 . S
H3226 C3231 0.950 . S
H3227 C3232 0.949 1_655 S
H3228 C3234 0.950 . S
H3229 C3235 0.950 . S
H3230 C3236 0.949 . S
C3231 H3226 0.950 . S
C3231 C3233 1.327 . S
C3231 C3237 1.429 . S
C3232 C3224 1.595 1_455 S
C3232 H3227 0.949 1_455 S
C3232 C3238 1.368 . S
C3233 C3217 1.349 . S
C3233 H3225 0.950 . S
C3233 C3231 1.327 . S
C3234 C3222 1.412 . S
C3234 H3228 0.950 . S
C3234 C3235 1.327 . S
C3235 H3229 0.950 . S
C3235 C3234 1.327 . S
C3235 C3239 1.429 1_655 S
C3236 C3219 1.574 . S
C3236 H3230 0.949 . S
C3236 C3240 1.368 . S
C3237 C3218 1.429 . S
C3237 C3231 1.429 . S
C3237 C3238 1.523 . S
C3238 C3219 1.368 . S
C3238 C3232 1.368 . S
C3238 C3237 1.523 . S
C3239 C3223 1.429 . S
C3239 C3235 1.429 1_455 S
C3239 C3240 1.523 . S
C3240 C3224 1.309 1_455 S
C3240 C3236 1.368 . S
C3240 C3239 1.523 . S
H3241 C3216 0.950 . S
H3242 C3218 0.950 . S
H3243 C3219 0.949 . S
H3244 C3221 0.950 . S
H3245 C3223 0.950 . S
C3246 C3247 1.349 . S
C3246 C3248 1.327 . S
C3246 H3271 0.950 . S
C3247 C3246 1.349 . S
C3247 C3263 1.349 . S
C3248 C3246 1.327 . S
C3248 C3267 1.429 . S
C3248 H3272 0.950 . S
C3249 C3266 1.574 . S
C3249 C3268 1.368 . S
C3249 H3273 0.949 . S
H3250 C3254 0.949 . S
C3251 C3252 1.349 . S
C3251 C3253 1.327 . S
C3251 H3274 0.950 . S
C3252 C3251 1.349 . S
C3252 C3264 1.349 . S
C3253 C3251 1.327 . S
C3253 C3269 1.429 . S
C3253 H3275 0.950 . S
C3254 H3250 0.949 . S
C3254 C3262 1.574 . S
C3254 C3270 1.368 . S
H3255 C3263 0.950 . S
H3256 C3261 0.950 . S
H3257 C3262 0.949 . S
H3258 C3264 0.950 . S
H3259 C3265 0.950 . S
H3260 C3266 0.949 . S
C3261 H3256 0.950 . S
C3261 C3263 1.327 . S
C3261 C3267 1.429 . S
C3262 C3254 1.574 . S
C3262 H3257 0.949 . S
C3262 C3268 1.368 . S
C3263 C3247 1.349 . S
C3263 H3255 0.950 . S
C3263 C3261 1.327 . S
C3264 C3252 1.349 . S
C3264 H3258 0.950 . S
C3264 C3265 1.327 . S
C3265 H3259 0.950 . S
C3265 C3264 1.327 . S
C3265 C3269 1.429 . S
C3266 C3249 1.574 . S
C3266 H3260 0.949 . S
C3266 C3270 1.368 . S
C3267 C3248 1.429 . S
C3267 C3261 1.429 . S
C3267 C3268 1.523 . S
C3268 C3249 1.368 . S
C3268 C3262 1.368 . S
C3268 C3267 1.523 . S
C3269 C3253 1.429 . S
C3269 C3265 1.429 . S
C3269 C3270 1.523 . S
C3270 C3254 1.368 . S
C3270 C3266 1.368 . S
C3270 C3269 1.523 . S
H3271 C3246 0.950 . S
H3272 C3248 0.950 . S
H3273 C3249 0.949 . S
H3274 C3251 0.950 . S
H3275 C3253 0.950 . S
C3276 C3277 1.349 . S
C3276 C3278 1.327 . S
C3276 H3301 0.950 . S
C3277 C3276 1.349 . S
C3277 C3293 1.349 . S
C3278 C3276 1.327 . S
C3278 C3297 1.429 . S
C3278 H3302 0.950 . S
C3279 C3296 1.574 . S
C3279 C3298 1.368 . S
C3279 H3303 0.949 . S
H3280 C3284 0.949 . S
C3281 C3282 1.349 . S
C3281 C3283 1.327 . S
C3281 H3304 0.950 . S
C3282 C3281 1.349 . S
C3282 C3294 1.349 . S
C3283 C3281 1.327 . S
C3283 C3299 1.429 . S
C3283 H3305 0.950 . S
C3284 H3280 0.949 . S
C3284 C3292 1.574 . S
C3284 C3300 1.368 . S
H3285 C3293 0.950 . S
H3286 C3291 0.950 . S
H3287 C3292 0.949 . S
H3288 C3294 0.950 . S
H3289 C3295 0.950 . S
H3290 C3296 0.949 . S
C3291 H3286 0.950 . S
C3291 C3293 1.327 . S
C3291 C3297 1.429 . S
C3292 C3284 1.574 . S
C3292 H3287 0.949 . S
C3292 C3298 1.368 . S
C3293 C3277 1.349 . S
C3293 H3285 0.950 . S
C3293 C3291 1.327 . S
C3294 C3282 1.349 . S
C3294 H3288 0.950 . S
C3294 C3295 1.327 . S
C3295 H3289 0.950 . S
C3295 C3294 1.327 . S
C3295 C3299 1.429 . S
C3296 C3279 1.574 . S
C3296 H3290 0.949 . S
C3296 C3300 1.368 . S
C3297 C3278 1.429 . S
C3297 C3291 1.429 . S
C3297 C3298 1.523 . S
C3298 C3279 1.368 . S
C3298 C3292 1.368 . S
C3298 C3297 1.523 . S
C3299 C3283 1.429 . S
C3299 C3295 1.429 . S
C3299 C3300 1.523 . S
C3300 C3284 1.368 . S
C3300 C3296 1.368 . S
C3300 C3299 1.523 . S
H3301 C3276 0.950 . S
H3302 C3278 0.950 . S
H3303 C3279 0.949 . S
H3304 C3281 0.950 . S
H3305 C3283 0.950 . S
C3306 C3307 1.349 . S
C3306 C3308 1.327 . S
C3306 H3331 0.950 . S
C3307 C3306 1.349 . S
C3307 C3323 1.349 . S
C3308 C3306 1.327 . S
C3308 C3327 1.429 . S
C3308 H3332 0.950 . S
C3309 C3326 1.574 . S
C3309 C3328 1.368 . S
C3309 H3333 0.949 . S
H3310 C3314 0.949 . S
C3311 C3312 1.349 . S
C3311 C3313 1.327 . S
C3311 H3334 0.950 . S
C3312 C3311 1.349 . S
C3312 C3324 1.349 . S
C3313 C3311 1.327 . S
C3313 C3329 1.429 . S
C3313 H3335 0.950 . S
C3314 H3310 0.949 . S
C3314 C3322 1.574 . S
C3314 C3330 1.368 . S
H3315 C3323 0.895 1_565 S
H3316 C3321 0.950 . S
H3317 C3322 0.949 . S
H3318 C3324 0.950 . S
H3319 C3325 0.950 . S
H3320 C3326 0.949 . S
C3321 H3316 0.950 . S
C3321 C3323 1.327 . S
C3321 C3327 1.429 . S
C3322 C3314 1.574 . S
C3322 H3317 0.949 . S
C3322 C3328 1.368 . S
C3323 C3307 1.349 . S
C3323 H3315 0.895 1_545 S
C3323 C3321 1.327 . S
C3324 C3312 1.349 . S
C3324 H3318 0.950 . S
C3324 C3325 1.327 . S
C3325 H3319 0.950 . S
C3325 C3324 1.327 . S
C3325 C3329 1.429 . S
C3326 C3309 1.574 . S
C3326 H3320 0.949 . S
C3326 C3330 1.368 . S
C3327 C3308 1.429 . S
C3327 C3321 1.429 . S
C3327 C3328 1.523 . S
C3328 C3309 1.368 . S
C3328 C3322 1.368 . S
C3328 C3327 1.523 . S
C3329 C3313 1.429 . S
C3329 C3325 1.429 . S
C3329 C3330 1.523 . S
C3330 C3314 1.368 . S
C3330 C3326 1.368 . S
C3330 C3329 1.523 . S
H3331 C3306 0.950 . S
H3332 C3308 0.950 . S
H3333 C3309 0.949 . S
H3334 C3311 0.950 . S
H3335 C3313 0.950 . S
C3336 C3337 1.349 . S
C3336 C3338 1.327 . S
C3336 H3361 0.950 . S
C3337 C3336 1.349 . S
C3337 C3353 1.349 . S
C3338 C3336 1.327 . S
C3338 C3357 1.429 . S
C3338 H3362 0.950 . S
C3339 C3356 1.574 . S
C3339 C3358 1.368 . S
C3339 H3363 0.949 . S
H3340 C3344 0.949 . S
C3341 C3342 1.349 . S
C3341 C3343 1.327 . S
C3341 H3364 0.950 . S
C3342 C3341 1.349 . S
C3342 C3354 1.349 . S
C3343 C3341 1.327 . S
C3343 C3359 1.429 . S
C3343 H3365 0.950 . S
C3344 H3340 0.949 . S
C3344 C3352 1.574 . S
C3344 C3360 1.368 . S
H3345 C3353 0.950 . S
H3346 C3351 0.950 . S
H3347 C3352 0.949 . S
H3348 C3354 0.950 . S
H3349 C3355 0.950 . S
H3350 C3356 0.949 . S
C3351 H3346 0.950 . S
C3351 C3353 1.327 . S
C3351 C3357 1.429 . S
C3352 C3344 1.574 . S
C3352 H3347 0.949 . S
C3352 C3358 1.368 . S
C3353 C3337 1.349 . S
C3353 H3345 0.950 . S
C3353 C3351 1.327 . S
C3354 C3342 1.349 . S
C3354 H3348 0.950 . S
C3354 C3355 1.327 . S
C3355 H3349 0.950 . S
C3355 C3354 1.327 . S
C3355 C3359 1.429 . S
C3356 C3339 1.574 . S
C3356 H3350 0.949 . S
C3356 C3360 1.368 . S
C3357 C3338 1.429 . S
C3357 C3351 1.429 . S
C3357 C3358 1.523 . S
C3358 C3339 1.368 . S
C3358 C3352 1.368 . S
C3358 C3357 1.523 . S
C3359 C3343 1.429 . S
C3359 C3355 1.429 . S
C3359 C3360 1.523 . S
C3360 C3344 1.368 . S
C3360 C3356 1.368 . S
C3360 C3359 1.523 . S
H3361 C3336 0.950 . S
H3362 C3338 0.950 . S
H3363 C3339 0.949 . S
H3364 C3341 0.950 . S
H3365 C3343 0.950 . S
C3366 C3367 1.349 . S
C3366 C3368 1.327 . S
C3366 H3391 0.950 . S
C3367 C3366 1.349 . S
C3367 C3383 1.349 . S
C3368 C3366 1.327 . S
C3368 C3387 1.429 . S
C3368 H3392 1.008 . S
C3369 C3386 1.574 . S
C3369 C3388 1.368 . S
C3369 H3393 0.949 . S
H3370 C3374 0.949 1_565 S
C3371 C3372 1.349 . S
C3371 C3373 1.327 . S
C3371 H3394 0.950 . S
C3372 C3371 1.349 . S
C3372 C3384 1.349 1_545 S
C3373 C3371 1.327 . S
C3373 C3389 1.429 . S
C3373 H3395 0.950 . S
C3374 H3370 0.949 1_545 S
C3374 C3382 1.574 . S
C3374 C3390 1.368 . S
H3375 C3383 0.950 . S
H3376 C3381 0.950 . S
H3377 C3382 0.949 1_565 S
H3378 C3384 0.950 . S
H3379 C3385 0.944 1_565 S
H3380 C3386 0.949 . S
C3381 H3376 0.950 . S
C3381 C3383 1.327 . S
C3381 C3387 1.429 . S
C3382 C3374 1.574 . S
C3382 H3377 0.949 1_545 S
C3382 C3388 1.368 . S
C3383 C3367 1.349 . S
C3383 H3375 0.950 . S
C3383 C3381 1.327 . S
C3384 C3372 1.349 1_565 S
C3384 H3378 0.950 . S
C3384 C3385 1.319 1_565 S
C3385 H3379 0.944 1_545 S
C3385 C3384 1.319 1_545 S
C3385 C3389 1.443 . S
C3386 C3369 1.574 . S
C3386 H3380 0.949 . S
C3386 C3390 1.368 . S
C3387 C3368 1.429 . S
C3387 C3381 1.429 . S
C3387 C3388 1.523 . S
C3388 C3369 1.368 . S
C3388 C3382 1.368 . S
C3388 C3387 1.523 . S
C3389 C3373 1.429 . S
C3389 C3385 1.443 . S
C3389 C3390 1.523 . S
C3390 C3374 1.368 . S
C3390 C3386 1.368 . S
C3390 C3389 1.523 . S
H3391 C3366 0.950 . S
H3392 C3368 1.008 . S
H3393 C3369 0.949 . S
H3394 C3371 0.950 . S
H3395 C3373 0.950 . S
C3396 C3397 1.349 . S
C3396 C3398 1.327 . S
C3396 H3421 0.950 . S
C3397 C3396 1.349 . S
C3397 C3413 1.349 . S
C3398 C3396 1.327 . S
C3398 C3417 1.429 . S
C3398 H3422 0.950 . S
C3399 C3416 1.574 . S
C3399 C3418 1.368 . S
C3399 H3423 0.949 . S
H3400 C3404 0.949 1_455 S
C3401 C3402 1.349 . S
C3401 C3403 1.327 . S
C3401 H3424 0.950 . S
C3402 C3401 1.349 . S
C3402 C3414 1.387 . S
C3403 C3401 1.327 . S
C3403 C3419 1.429 . S
C3403 H3425 0.950 . S
C3404 H3400 0.949 1_655 S
C3404 C3412 1.574 . S
C3404 C3420 1.368 . S
H3405 C3413 0.950 . S
H3406 C3411 0.950 . S
H3407 C3412 0.949 . S
H3408 C3414 0.926 1_455 S
H3409 C3415 0.950 1_455 S
H3410 C3416 0.949 . S
C3411 H3406 0.950 . S
C3411 C3413 1.327 . S
C3411 C3417 1.429 . S
C3412 C3404 1.574 . S
C3412 H3407 0.949 . S
C3412 C3418 1.368 . S
C3413 C3397 1.349 . S
C3413 H3405 0.950 . S
C3413 C3411 1.327 . S
C3414 C3402 1.387 . S
C3414 H3408 0.926 1_655 S
C3414 C3415 1.313 . S
C3415 H3409 0.950 1_655 S
C3415 C3414 1.313 . S
C3415 C3419 1.429 . S
C3416 C3399 1.574 . S
C3416 H3410 0.949 . S
C3416 C3420 1.368 . S
C3417 C3398 1.429 . S
C3417 C3411 1.429 . S
C3417 C3418 1.523 . S
C3418 C3399 1.368 . S
C3418 C3412 1.368 . S
C3418 C3417 1.523 . S
C3419 C3403 1.429 . S
C3419 C3415 1.429 . S
C3419 C3420 1.523 . S
C3420 C3404 1.368 . S
C3420 C3416 1.368 . S
C3420 C3419 1.523 . S
H3421 C3396 0.950 . S
H3422 C3398 0.950 . S
H3423 C3399 0.949 . S
H3424 C3401 0.950 . S
H3425 C3403 0.950 . S
C3426 C3427 1.349 . S
C3426 C3428 1.327 . S
C3426 H3451 0.950 . S
C3427 C3426 1.349 . S
C3427 C3443 1.349 . S
C3428 C3426 1.327 . S
C3428 C3447 1.429 . S
C3428 H3452 0.950 . S
C3429 C3446 1.574 . S
C3429 C3448 1.368 . S
C3429 H3453 0.949 . S
H3430 C3434 0.949 . S
C3431 C3432 1.349 . S
C3431 C3433 1.327 . S
C3431 H3454 0.950 . S
C3432 C3431 1.349 . S
C3432 C3444 1.349 . S
C3433 C3431 1.327 . S
C3433 C3449 1.429 . S
C3433 H3455 0.950 . S
C3434 H3430 0.949 . S
C3434 C3442 1.574 . S
C3434 C3450 1.368 . S
H3435 C3443 0.950 . S
H3436 C3441 0.950 . S
H3437 C3442 0.949 . S
H3438 C3444 0.950 . S
H3439 C3445 0.950 . S
H3440 C3446 0.949 . S
C3441 H3436 0.950 . S
C3441 C3443 1.327 . S
C3441 C3447 1.429 . S
C3442 C3434 1.574 . S
C3442 H3437 0.949 . S
C3442 C3448 1.368 . S
C3443 C3427 1.349 . S
C3443 H3435 0.950 . S
C3443 C3441 1.327 . S
C3444 C3432 1.349 . S
C3444 H3438 0.950 . S
C3444 C3445 1.327 . S
C3445 H3439 0.950 . S
C3445 C3444 1.327 . S
C3445 C3449 1.429 . S
C3446 C3429 1.574 . S
C3446 H3440 0.949 . S
C3446 C3450 1.368 . S
C3447 C3428 1.429 . S
C3447 C3441 1.429 . S
C3447 C3448 1.523 . S
C3448 C3429 1.368 . S
C3448 C3442 1.368 . S
C3448 C3447 1.523 . S
C3449 C3433 1.429 . S
C3449 C3445 1.429 . S
C3449 C3450 1.523 . S
C3450 C3434 1.368 . S
C3450 C3446 1.368 . S
C3450 C3449 1.523 . S
H3451 C3426 0.950 . S
H3452 C3428 0.950 . S
H3453 C3429 0.949 . S
H3454 C3431 0.950 . S
H3455 C3433 0.950 . S
C3456 C3457 1.349 . S
C3456 C3458 1.327 . S
C3456 H3481 0.950 . S
C3457 C3456 1.349 . S
C3457 C3473 1.349 . S
C3458 C3456 1.327 . S
C3458 C3477 1.429 . S
C3458 H3482 0.950 . S
C3459 C3476 1.574 . S
C3459 C3478 1.368 . S
C3459 H3483 0.949 . S
H3460 C3464 0.949 . S
C3461 C3462 1.349 . S
C3461 C3463 1.327 . S
C3461 H3484 0.950 . S
C3462 C3461 1.349 . S
C3462 C3474 1.349 . S
C3463 C3461 1.327 . S
C3463 C3479 1.429 . S
C3463 H3485 0.950 . S
C3464 H3460 0.949 . S
C3464 C3472 1.574 . S
C3464 C3480 1.368 . S
H3465 C3473 0.950 . S
H3466 C3471 0.950 . S
H3467 C3472 0.949 . S
H3468 C3474 0.950 . S
H3469 C3475 0.950 . S
H3470 C3476 0.949 . S
C3471 H3466 0.950 . S
C3471 C3473 1.327 . S
C3471 C3477 1.429 . S
C3472 C3464 1.574 . S
C3472 H3467 0.949 . S
C3472 C3478 1.368 . S
C3473 C3457 1.349 . S
C3473 H3465 0.950 . S
C3473 C3471 1.327 . S
C3474 C3462 1.349 . S
C3474 H3468 0.950 . S
C3474 C3475 1.327 . S
C3475 H3469 0.950 . S
C3475 C3474 1.327 . S
C3475 C3479 1.429 . S
C3476 C3459 1.574 . S
C3476 H3470 0.949 . S
C3476 C3480 1.368 . S
C3477 C3458 1.429 . S
C3477 C3471 1.429 . S
C3477 C3478 1.523 . S
C3478 C3459 1.368 . S
C3478 C3472 1.368 . S
C3478 C3477 1.523 . S
C3479 C3463 1.429 . S
C3479 C3475 1.429 . S
C3479 C3480 1.523 . S
C3480 C3464 1.368 . S
C3480 C3476 1.368 . S
C3480 C3479 1.523 . S
H3481 C3456 0.950 . S
H3482 C3458 0.950 . S
H3483 C3459 0.949 . S
H3484 C3461 0.950 . S
H3485 C3463 0.950 . S
C3486 C3487 1.349 . S
C3486 C3488 1.327 . S
C3486 H3511 0.950 . S
C3487 C3486 1.349 . S
C3487 C3503 1.349 . S
C3488 C3486 1.327 . S
C3488 C3507 1.429 . S
C3488 H3512 0.950 . S
C3489 C3506 1.574 . S
C3489 C3508 1.368 . S
C3489 H3513 0.949 . S
H3490 C3494 0.949 . S
C3491 C3492 1.349 . S
C3491 C3493 1.327 . S
C3491 H3514 0.950 . S
C3492 C3491 1.349 . S
C3492 C3504 1.349 . S
C3493 C3491 1.327 . S
C3493 C3509 1.429 . S
C3493 H3515 0.950 . S
C3494 H3490 0.949 . S
C3494 C3502 1.574 . S
C3494 C3510 1.368 . S
H3495 C3503 0.950 . S
H3496 C3501 0.950 . S
H3497 C3502 0.949 . S
H3498 C3504 0.950 . S
H3499 C3505 0.950 . S
H3500 C3506 0.949 . S
C3501 H3496 0.950 . S
C3501 C3503 1.327 . S
C3501 C3507 1.429 . S
C3502 C3494 1.574 . S
C3502 H3497 0.949 . S
C3502 C3508 1.368 . S
C3503 C3487 1.349 . S
C3503 H3495 0.950 . S
C3503 C3501 1.327 . S
C3504 C3492 1.349 . S
C3504 H3498 0.950 . S
C3504 C3505 1.327 . S
C3505 H3499 0.950 . S
C3505 C3504 1.327 . S
C3505 C3509 1.429 . S
C3506 C3489 1.574 . S
C3506 H3500 0.949 . S
C3506 C3510 1.368 . S
C3507 C3488 1.429 . S
C3507 C3501 1.429 . S
C3507 C3508 1.523 . S
C3508 C3489 1.368 . S
C3508 C3502 1.368 . S
C3508 C3507 1.523 . S
C3509 C3493 1.429 . S
C3509 C3505 1.429 . S
C3509 C3510 1.523 . S
C3510 C3494 1.368 . S
C3510 C3506 1.368 . S
C3510 C3509 1.523 . S
H3511 C3486 0.950 . S
H3512 C3488 0.950 . S
H3513 C3489 0.949 . S
H3514 C3491 0.950 . S
H3515 C3493 0.950 . S
C3516 C3517 1.349 . S
C3516 C3518 1.327 . S
C3516 H3541 0.950 . S
C3517 C3516 1.349 . S
C3517 C3533 1.349 . S
C3518 C3516 1.327 . S
C3518 C3537 1.429 . S
C3518 H3542 0.950 . S
C3519 C3536 1.574 . S
C3519 C3538 1.368 . S
C3519 H3543 0.949 . S
H3520 C3524 0.949 . S
C3521 C3522 1.349 . S
C3521 C3523 1.327 . S
C3521 H3544 0.950 . S
C3522 C3521 1.349 . S
C3522 C3534 1.349 . S
C3523 C3521 1.327 . S
C3523 C3539 1.429 . S
C3523 H3545 0.950 . S
C3524 H3520 0.949 . S
C3524 C3532 1.574 . S
C3524 C3540 1.368 . S
H3525 C3533 0.950 1_655 S
H3526 C3531 0.950 . S
H3527 C3532 0.949 . S
H3528 C3534 0.950 . S
H3529 C3535 0.950 . S
H3530 C3536 0.949 . S
C3531 H3526 0.950 . S
C3531 C3533 1.327 . S
C3531 C3537 1.429 . S
C3532 C3524 1.574 . S
C3532 H3527 0.949 . S
C3532 C3538 1.368 . S
C3533 C3517 1.349 . S
C3533 H3525 0.950 1_455 S
C3533 C3531 1.327 . S
C3534 C3522 1.349 . S
C3534 H3528 0.950 . S
C3534 C3535 1.327 . S
C3535 H3529 0.950 . S
C3535 C3534 1.327 . S
C3535 C3539 1.429 . S
C3536 C3519 1.574 . S
C3536 H3530 0.949 . S
C3536 C3540 1.368 . S
C3537 C3518 1.429 . S
C3537 C3531 1.429 . S
C3537 C3538 1.523 . S
C3538 C3519 1.368 . S
C3538 C3532 1.368 . S
C3538 C3537 1.523 . S
C3539 C3523 1.429 . S
C3539 C3535 1.429 . S
C3539 C3540 1.523 . S
C3540 C3524 1.368 . S
C3540 C3536 1.368 . S
C3540 C3539 1.523 . S
H3541 C3516 0.950 . S
H3542 C3518 0.950 . S
H3543 C3519 0.949 . S
H3544 C3521 0.950 . S
H3545 C3523 0.950 . S
C3546 C3547 1.349 . S
C3546 C3548 1.327 . S
C3546 H3571 0.950 . S
C3547 C3546 1.349 . S
C3547 C3563 1.349 . S
C3548 C3546 1.327 . S
C3548 C3567 1.429 . S
C3548 H3572 0.950 . S
C3549 C3566 1.574 . S
C3549 C3568 1.368 . S
C3549 H3573 0.949 . S
H3550 C3554 0.949 . S
C3551 C3552 1.349 . S
C3551 C3553 1.327 . S
C3551 H3574 0.950 . S
C3552 C3551 1.349 . S
C3552 C3564 1.349 . S
C3553 C3551 1.327 . S
C3553 C3569 1.429 . S
C3553 H3575 0.950 . S
C3554 H3550 0.949 . S
C3554 C3562 1.574 . S
C3554 C3570 1.368 . S
H3555 C3563 0.950 . S
H3556 C3561 0.950 . S
H3557 C3562 0.949 . S
H3558 C3564 0.950 . S
H3559 C3565 0.950 . S
H3560 C3566 0.949 . S
C3561 H3556 0.950 . S
C3561 C3563 1.327 . S
C3561 C3567 1.429 . S
C3562 C3554 1.574 . S
C3562 H3557 0.949 . S
C3562 C3568 1.368 . S
C3563 C3547 1.349 . S
C3563 H3555 0.950 . S
C3563 C3561 1.327 . S
C3564 C3552 1.349 . S
C3564 H3558 0.950 . S
C3564 C3565 1.327 . S
C3565 H3559 0.950 . S
C3565 C3564 1.327 . S
C3565 C3569 1.429 . S
C3566 C3549 1.574 . S
C3566 H3560 0.949 . S
C3566 C3570 1.368 . S
C3567 C3548 1.429 . S
C3567 C3561 1.429 . S
C3567 C3568 1.523 . S
C3568 C3549 1.368 . S
C3568 C3562 1.368 . S
C3568 C3567 1.523 . S
C3569 C3553 1.429 . S
C3569 C3565 1.429 . S
C3569 C3570 1.523 . S
C3570 C3554 1.368 . S
C3570 C3566 1.368 . S
C3570 C3569 1.523 . S
H3571 C3546 0.950 . S
H3572 C3548 0.950 . S
H3573 C3549 0.949 . S
H3574 C3551 0.950 . S
H3575 C3553 0.950 . S
C3576 C3577 1.381 . S
C3576 C3578 1.327 . S
C3576 H3601 0.950 . S
C3577 C3576 1.381 . S
C3577 C3593 1.372 . S
C3578 C3576 1.327 . S
C3578 C3597 1.429 . S
C3578 H3602 0.950 . S
C3579 C3596 1.574 . S
C3579 C3598 1.368 . S
C3579 H3603 0.949 . S
H3580 C3584 0.949 . S
C3581 C3582 1.349 . S
C3581 C3583 1.327 . S
C3581 H3604 0.950 . S
C3582 C3581 1.349 . S
C3582 C3594 1.349 . S
C3583 C3581 1.327 . S
C3583 C3599 1.429 . S
C3583 H3605 0.950 . S
C3584 H3580 0.949 . S
C3584 C3592 1.574 . S
C3584 C3600 1.368 . S
H3585 C3593 0.950 1_545 S
H3586 C3591 0.950 . S
H3587 C3592 0.949 . S
H3588 C3594 0.950 . S
H3589 C3595 0.950 . S
H3590 C3596 0.949 . S
C3591 H3586 0.950 . S
C3591 C3593 1.327 . S
C3591 C3597 1.429 . S
C3592 C3584 1.574 . S
C3592 H3587 0.949 . S
C3592 C3598 1.368 . S
C3593 C3577 1.372 . S
C3593 H3585 0.950 1_565 S
C3593 C3591 1.327 . S
C3594 C3582 1.349 . S
C3594 H3588 0.950 . S
C3594 C3595 1.327 . S
C3595 H3589 0.950 . S
C3595 C3594 1.327 . S
C3595 C3599 1.429 . S
C3596 C3579 1.574 . S
C3596 H3590 0.949 . S
C3596 C3600 1.368 . S
C3597 C3578 1.429 . S
C3597 C3591 1.429 . S
C3597 C3598 1.523 . S
C3598 C3579 1.368 . S
C3598 C3592 1.368 . S
C3598 C3597 1.523 . S
C3599 C3583 1.429 . S
C3599 C3595 1.429 . S
C3599 C3600 1.523 . S
C3600 C3584 1.368 . S
C3600 C3596 1.368 . S
C3600 C3599 1.523 . S
H3601 C3576 0.950 . S
H3602 C3578 0.950 . S
H3603 C3579 0.949 . S
H3604 C3581 0.950 . S
H3605 C3583 0.950 . S
C3606 C3607 1.349 1_455 S
C3606 C3608 1.327 . S
C3606 H3631 0.950 . S
C3607 C3606 1.349 1_655 S
C3607 C3623 1.349 . S
C3608 C3606 1.327 . S
C3608 C3627 1.429 . S
C3608 H3632 0.950 . S
C3609 C3626 1.574 . S
C3609 C3628 1.368 . S
C3609 H3633 0.949 . S
H3610 C3614 0.949 . S
C3611 C3612 1.349 . S
C3611 C3613 1.327 . S
C3611 H3634 0.950 . S
C3612 C3611 1.349 . S
C3612 C3624 1.349 . S
C3613 C3611 1.327 . S
C3613 C3629 1.429 . S
C3613 H3635 0.950 . S
C3614 H3610 0.949 . S
C3614 C3622 1.574 . S
C3614 C3630 1.368 . S
H3615 C3623 0.950 . S
H3616 C3621 0.950 . S
H3617 C3622 0.949 . S
H3618 C3624 0.950 . S
H3619 C3625 0.950 . S
H3620 C3626 0.949 . S
C3621 H3616 0.950 . S
C3621 C3623 1.327 1_455 S
C3621 C3627 1.429 . S
C3622 C3614 1.574 . S
C3622 H3617 0.949 . S
C3622 C3628 1.368 . S
C3623 C3607 1.349 . S
C3623 H3615 0.950 . S
C3623 C3621 1.327 1_655 S
C3624 C3612 1.349 . S
C3624 H3618 0.950 . S
C3624 C3625 1.327 . S
C3625 H3619 0.950 . S
C3625 C3624 1.327 . S
C3625 C3629 1.429 . S
C3626 C3609 1.574 . S
C3626 H3620 0.949 . S
C3626 C3630 1.368 . S
C3627 C3608 1.429 . S
C3627 C3621 1.429 . S
C3627 C3628 1.523 . S
C3628 C3609 1.368 . S
C3628 C3622 1.368 . S
C3628 C3627 1.523 . S
C3629 C3613 1.429 . S
C3629 C3625 1.429 . S
C3629 C3630 1.523 . S
C3630 C3614 1.368 . S
C3630 C3626 1.368 . S
C3630 C3629 1.523 . S
H3631 C3606 0.950 . S
H3632 C3608 0.950 . S
H3633 C3609 0.949 . S
H3634 C3611 0.950 . S
H3635 C3613 0.950 . S
C3636 C3637 1.349 . S
C3636 C3638 1.327 . S
C3636 H3661 0.950 . S
C3637 C3636 1.349 . S
C3637 C3653 1.349 . S
C3638 C3636 1.327 . S
C3638 C3657 1.429 . S
C3638 H3662 0.950 . S
C3639 C3656 1.574 . S
C3639 C3658 1.368 . S
C3639 H3663 0.949 . S
H3640 C3644 0.949 . S
C3641 C3642 1.349 . S
C3641 C3643 1.327 . S
C3641 H3664 0.950 1_655 S
C3642 C3641 1.349 . S
C3642 C3654 1.349 . S
C3643 C3641 1.327 . S
C3643 C3659 1.429 . S
C3643 H3665 0.950 . S
C3644 H3640 0.949 . S
C3644 C3652 1.574 . S
C3644 C3660 1.368 . S
H3645 C3653 0.950 . S
H3646 C3651 0.950 . S
H3647 C3652 0.949 . S
H3648 C3654 0.950 . S
H3649 C3655 0.950 . S
H3650 C3656 0.949 . S
C3651 H3646 0.950 . S
C3651 C3653 1.327 . S
C3651 C3657 1.429 . S
C3652 C3644 1.574 . S
C3652 H3647 0.949 . S
C3652 C3658 1.368 . S
C3653 C3637 1.349 . S
C3653 H3645 0.950 . S
C3653 C3651 1.327 . S
C3654 C3642 1.349 . S
C3654 H3648 0.950 . S
C3654 C3655 1.327 . S
C3655 H3649 0.950 . S
C3655 C3654 1.327 . S
C3655 C3659 1.429 . S
C3656 C3639 1.574 . S
C3656 H3650 0.949 . S
C3656 C3660 1.368 . S
C3657 C3638 1.429 . S
C3657 C3651 1.429 . S
C3657 C3658 1.523 . S
C3658 C3639 1.368 . S
C3658 C3652 1.368 . S
C3658 C3657 1.523 . S
C3659 C3643 1.429 . S
C3659 C3655 1.429 . S
C3659 C3660 1.523 . S
C3660 C3644 1.368 . S
C3660 C3656 1.368 . S
C3660 C3659 1.523 . S
H3661 C3636 0.950 . S
H3662 C3638 0.950 . S
H3663 C3639 0.949 . S
H3664 C3641 0.950 1_455 S
H3665 C3643 0.950 . S
C3666 C3667 1.349 . S
C3666 C3668 1.327 . S
C3666 H3691 0.950 . S
C3667 C3666 1.349 . S
C3667 C3683 1.349 . S
C3668 C3666 1.327 . S
C3668 C3687 1.429 . S
C3668 H3692 0.950 . S
C3669 C3686 1.574 . S
C3669 C3688 1.368 . S
C3669 H3693 0.949 . S
H3670 C3674 0.949 . S
C3671 C3672 1.349 . S
C3671 C3673 1.327 . S
C3671 H3694 0.950 . S
C3672 C3671 1.349 . S
C3672 C3684 1.349 . S
C3673 C3671 1.327 . S
C3673 C3689 1.429 . S
C3673 H3695 0.950 . S
C3674 H3670 0.949 . S
C3674 C3682 1.574 . S
C3674 C3690 1.368 . S
H3675 C3683 0.950 . S
H3676 C3681 0.950 . S
H3677 C3682 0.949 . S
H3678 C3684 0.950 . S
H3679 C3685 0.950 . S
H3680 C3686 0.949 . S
C3681 H3676 0.950 . S
C3681 C3683 1.327 . S
C3681 C3687 1.429 . S
C3682 C3674 1.574 . S
C3682 H3677 0.949 . S
C3682 C3688 1.368 . S
C3683 C3667 1.349 . S
C3683 H3675 0.950 . S
C3683 C3681 1.327 . S
C3684 C3672 1.349 . S
C3684 H3678 0.950 . S
C3684 C3685 1.327 . S
C3685 H3679 0.950 . S
C3685 C3684 1.327 . S
C3685 C3689 1.429 . S
C3686 C3669 1.574 . S
C3686 H3680 0.949 . S
C3686 C3690 1.368 . S
C3687 C3668 1.429 . S
C3687 C3681 1.429 . S
C3687 C3688 1.523 . S
C3688 C3669 1.368 . S
C3688 C3682 1.368 . S
C3688 C3687 1.523 . S
C3689 C3673 1.429 . S
C3689 C3685 1.429 . S
C3689 C3690 1.523 . S
C3690 C3674 1.368 . S
C3690 C3686 1.368 . S
C3690 C3689 1.523 . S
H3691 C3666 0.950 . S
H3692 C3668 0.950 . S
H3693 C3669 0.949 . S
H3694 C3671 0.950 . S
H3695 C3673 0.950 . S
C3696 C3697 1.349 . S
C3696 C3698 1.327 . S
C3696 H3721 0.950 . S
C3697 C3696 1.349 . S
C3697 C3713 1.349 . S
C3698 C3696 1.327 . S
C3698 C3717 1.429 . S
C3698 H3722 0.950 . S
C3699 C3716 1.574 . S
C3699 C3718 1.368 . S
C3699 H3723 0.949 . S
H3700 C3704 0.949 1_565 S
C3701 C3702 1.349 . S
C3701 C3703 1.327 . S
C3701 H3724 0.950 . S
C3702 C3701 1.349 . S
C3702 C3714 1.349 1_545 S
C3703 C3701 1.327 . S
C3703 C3719 1.429 . S
C3703 H3725 0.950 . S
C3704 H3700 0.949 1_545 S
C3704 C3712 1.574 . S
C3704 C3720 1.368 . S
H3705 C3713 0.950 . S
H3706 C3711 0.950 . S
H3707 C3712 0.949 . S
H3708 C3714 0.950 . S
H3709 C3715 0.950 . S
H3710 C3716 0.949 . S
C3711 H3706 0.950 . S
C3711 C3713 1.327 . S
C3711 C3717 1.429 . S
C3712 C3704 1.574 . S
C3712 H3707 0.949 . S
C3712 C3718 1.368 . S
C3713 C3697 1.349 . S
C3713 H3705 0.950 . S
C3713 C3711 1.327 . S
C3714 C3702 1.349 1_565 S
C3714 H3708 0.950 . S
C3714 C3715 1.327 . S
C3715 H3709 0.950 . S
C3715 C3714 1.327 . S
C3715 C3719 1.429 1_565 S
C3716 C3699 1.574 . S
C3716 H3710 0.949 . S
C3716 C3720 1.368 . S
C3717 C3698 1.429 . S
C3717 C3711 1.429 . S
C3717 C3718 1.523 . S
C3718 C3699 1.368 . S
C3718 C3712 1.368 . S
C3718 C3717 1.523 . S
C3719 C3703 1.429 . S
C3719 C3715 1.429 1_545 S
C3719 C3720 1.523 . S
C3720 C3704 1.368 . S
C3720 C3716 1.368 . S
C3720 C3719 1.523 . S
H3721 C3696 0.950 . S
H3722 C3698 0.950 . S
H3723 C3699 0.949 . S
H3724 C3701 0.950 . S
H3725 C3703 0.950 . S
C1567 C10 1.086 1_655 S
C1572 C963 1.078 . S
C1597 C23 1.591 . S
C1602 C1043 1.560 . S
C1632 C1111 1.349 . S
C1627 C29 1.382 . S
C1657 C30 1.855 . S
C1662 C1191 1.828 . S
C1687 C5 1.594 . S
C1692 C1265 1.578 . S
C1717 C18 1.584 . S
C1722 C1333 1.530 . S
C1747 C49 1.057 . S
C1752 C1259 0.999 . S
C1782 C1339 1.489 . S
C1777 C62 1.491 . S
C1812 C1185 1.298 . S
C1807 C70 1.318 1_556 S
C1837 C75 1.806 . S
C1842 C1117 1.796 . S
C1872 C969 1.538 1_455 S
C1867 C44 1.525 . S
C1897 C57 1.451 . S
C1902 C1037 1.437 . S
C1927 C88 1.270 . S
C1932 C1407 1.214 . S
C1957 C101 1.625 . S
C1962 C1487 1.590 . S
C1992 C1555 1.466 . S
C1987 C107 1.519 . S
C2017 C108 1.968 . S
C2022 C303 1.921 . S
C2047 C83 1.709 . S
C2052 C377 1.672 . S
C2077 C96 1.601 . S
C2082 C445 1.546 . S
C2107 C127 1.054 . S
C2112 C371 1.037 . S
C2137 C140 1.525 . S
C2142 C451 1.521 . S
C2172 C297 1.369 . S
C2167 C146 1.381 . S
C2202 C1561 1.909 . S
C2197 C147 1.921 . S
C2232 C1413 1.580 . S
C2227 C122 1.585 . S
C2262 C1481 1.485 . S
C2257 C135 1.498 . S
C2287 C160 1.199 . S
C2292 C519 1.148 . S
C2317 C173 1.632 . S
C2322 C599 1.597 . S
C2347 C185 1.521 . S
C2352 C667 1.469 . S
C2377 C186 2.028 . S
C2382 C747 1.979 . S
C2412 C821 1.662 . S
C2407 C159 1.699 . S
C2442 C889 1.584 . S
C2437 C172 1.641 . S
C2472 C815 1.106 . S
C2467 C205 1.126 . S
C2502 C895 1.510 . S
C2497 C218 1.514 . S
C2527 C224 1.371 . S
C2532 C741 1.360 . S
C2562 C673 1.848 . S
C2557 C225 1.859 . S
C2587 C200 1.601 . S
C2592 C525 1.597 . S
C2622 C593 1.448 . S
C2617 C213 1.460 . S
C2652 C273 1.962 . S
C2647 C4 1.997 . S
C2677 C17 1.447 . S
C2682 C347 1.432 . S
C2712 C433 1.438 . S
C2707 C31 1.439 . S
C2742 C507 1.122 . S
C2737 C36 1.133 1_556 S
C2772 C569 1.604 . S
C2767 C3 1.589 1_556 S
C2802 C655 1.522 . S
C2797 C16 1.525 . S
C2827 C43 2.113 . S
C2832 C643 2.046 . S
C2857 C56 1.570 . S
C2862 C495 1.519 . S
C2887 C68 1.582 . S
C2892 C581 1.557 . S
C2917 C69 1.294 . S
C2922 C359 1.267 . S
C2952 C421 1.687 . S
C2947 C42 1.743 . S
C2977 C55 1.671 . S
C2982 C285 1.644 . S
C3012 C717 1.955 . S
C3007 C82 1.990 . S
C3037 C95 1.606 . S
C3042 C791 1.537 . S
C3067 C109 1.478 . S
C3072 C877 1.473 . S
C3102 C951 1.030 . S
C3097 C114 1.033 . S
C3127 C81 1.600 . S
C3132 C1013 1.583 . S
C3157 C94 1.463 . S
C3162 C1099 1.464 . S
C3187 C121 1.960 . S
C3192 C1087 1.908 . S
C3217 C134 1.480 . S
C3222 C939 1.415 . S
C3252 C1025 1.533 . S
C3247 C148 1.557 . S
C3277 C153 1.285 . S
C3282 C803 1.249 . S
C3307 C120 1.793 1_545 S
C3312 C865 1.736 . S
C3342 C729 1.710 . S
C3337 C133 1.740 1_655 S
C3372 C1161 1.874 . S
C3367 C166 1.903 . S
C3397 C179 1.405 . S
C3402 C1235 1.394 . S
C3427 C187 1.425 . S
C3432 C1321 1.422 . S
C3462 C1395 1.113 . S
C3457 C192 1.125 . S
C3492 C1457 1.654 . S
C3487 C161 1.671 1_565 S
C3517 C174 1.595 1_455 S
C3522 C1543 1.592 . S
C3547 C199 2.104 . S
C3552 C1531 2.028 . S
C3577 C212 1.618 1_565 S
C3582 C1383 1.618 . S
C3612 C1469 1.589 . S
C3607 C226 1.617 . S
C3642 C1247 1.106 . S
C3637 C231 1.121 . S
C3672 C1309 1.666 . S
C3667 C198 1.720 . S
C3697 C211 1.535 . S
C3702 C1173 1.520 . S
