# Generated by pormake.
# Topology anh, (6,3)-cn, num edge types: 1
# Building blocks:
#     Node 0, Type 0, BuildingBlock: BETDEL_clean_sbu_0, # of connection points: 6
#     Node 1, Type 0, BuildingBlock: BETDEL_clean_sbu_0, # of connection points: 6
#     Node 2, Type 0, BuildingBlock: BETDEL_clean_sbu_0, # of connection points: 6
#     Node 3, Type 1, BuildingBlock: CUQRIR_clean_linker_1, # of connection points: 3
#     Node 4, Type 1, BuildingBlock: CUQRIR_clean_linker_1, # of connection points: 3
#     Node 5, Type 1, BuildingBlock: CUQRIR_clean_linker_1, # of connection points: 3
#     Node 6, Type 1, BuildingBlock: CUQRIR_clean_linker_1, # of connection points: 3
#     Node 7, Type 1, BuildingBlock: CUQRIR_clean_linker_1, # of connection points: 3
#     Node 8, Type 1, BuildingBlock: CUQRIR_clean_linker_1, # of connection points: 3
#     Edge 9, Type (0, 1), BuildingBlock: MIFKUJ_clean_linker_0, # of connection points: 2
#     Edge 10, Type (0, 1), BuildingBlock: MIFKUJ_clean_linker_0, # of connection points: 2
#     Edge 11, Type (0, 1), BuildingBlock: MIFKUJ_clean_linker_0, # of connection points: 2
#     Edge 12, Type (0, 1), BuildingBlock: MIFKUJ_clean_linker_0, # of connection points: 2
#     Edge 13, Type (0, 1), BuildingBlock: MIFKUJ_clean_linker_0, # of connection points: 2
#     Edge 14, Type (0, 1), BuildingBlock: MIFKUJ_clean_linker_0, # of connection points: 2
#     Edge 15, Type (0, 1), BuildingBlock: MIFKUJ_clean_linker_0, # of connection points: 2
#     Edge 16, Type (0, 1), BuildingBlock: MIFKUJ_clean_linker_0, # of connection points: 2
#     Edge 17, Type (0, 1), BuildingBlock: MIFKUJ_clean_linker_0, # of connection points: 2
#     Edge 18, Type (0, 1), BuildingBlock: MIFKUJ_clean_linker_0, # of connection points: 2
#     Edge 19, Type (0, 1), BuildingBlock: MIFKUJ_clean_linker_0, # of connection points: 2
#     Edge 20, Type (0, 1), BuildingBlock: MIFKUJ_clean_linker_0, # of connection points: 2
#     Edge 21, Type (0, 1), BuildingBlock: MIFKUJ_clean_linker_0, # of connection points: 2
#     Edge 22, Type (0, 1), BuildingBlock: MIFKUJ_clean_linker_0, # of connection points: 2
#     Edge 23, Type (0, 1), BuildingBlock: MIFKUJ_clean_linker_0, # of connection points: 2
#     Edge 24, Type (0, 1), BuildingBlock: MIFKUJ_clean_linker_0, # of connection points: 2
#     Edge 25, Type (0, 1), BuildingBlock: MIFKUJ_clean_linker_0, # of connection points: 2
#     Edge 26, Type (0, 1), BuildingBlock: MIFKUJ_clean_linker_0, # of connection points: 2
# Relax obj value: 0.117
# Max RMSD: 0.197
# Mean RMSD: 0.139
data_MOF--net-anh--node1-BETDEL_clean_sbu_0--node2-CUQRIR_clean_linker_1--edge1-MIFKUJ_clean_linker_0
_symmetry_space_group_name_H-M    P1
_symmetry_Int_Tables_number       1
_symmetry_cell_setting            triclinic
loop_
_symmetry_equiv_pos_as_xyz
'x, y, z'
_cell_length_a     36.531023
_cell_length_b     36.541721
_cell_length_c     59.973388
_cell_angle_alpha  85.845572
_cell_angle_beta   89.518947
_cell_angle_gamma 120.00924
loop_
_atom_site_label
_atom_site_type_symbol
_atom_site_fract_x
_atom_site_fract_y
_atom_site_fract_z
_atom_type_partial_charge
Dy0 Dy 0.03451 0.48775 0.1768 0.0
C1 C 0.93727 0.57525 0.17727 0.0
C2 C 0.07969 0.45137 0.1646 0.0
Dy3 Dy 0.98893 0.5417 0.175 0.0
O4 O 0.05179 0.43702 0.18127 0.0
O5 O 0.08266 0.4855 0.15442 0.0
O6 O 0.03417 0.47704 0.21463 0.0
O7 O 1.00883 0.51166 0.19986 0.0
C8 C 1.01514 0.49817 0.21838 0.0
C9 C 0.02783 0.54161 0.13693 0.0
O10 O 0.05152 0.58924 0.18735 0.0
O11 O 0.08867 0.55576 0.17725 0.0
O12 O 0.95616 0.57412 0.15916 0.0
O13 O 0.94668 0.55808 0.19432 0.0
O14 O 0.02658 0.57434 0.14301 0.0
O15 O 1.00646 0.50977 0.15085 0.0
O16 O 0.96767 0.43576 0.1728 0.0
O17 O 0.93337 0.47435 0.1774 0.0
C18 C 0.08768 0.58942 0.18385 0.0
C19 C 0.93258 0.43783 0.17554 0.0
Dy20 Dy 0.54643 0.06137 0.50153 0.0
C21 C 0.72652 0.16766 0.51679 0.0
C22 C 0.47041 0.01793 0.48297 0.0
Dy23 Dy 0.64528 0.11177 0.50699 0.0
O24 O 0.47872 0.04421 0.49822 0.0
O25 O 0.50388 0.01587 0.47762 0.0
O26 O 0.52527 0.04251 0.53827 0.0
O27 O 0.58878 0.07695 0.52815 0.0
C28 C 0.56368 0.06082 0.54504 0.0
C29 C 0.6194 0.09515 0.46517 0.0
O30 O 0.63047 0.04535 0.51792 0.0
O31 O 0.5659 0.01129 0.50092 0.0
O32 O 0.71569 0.14266 0.50079 0.0
O33 O 0.69278 0.16076 0.52801 0.0
O34 O 0.65418 0.09798 0.4721 0.0
O35 O 0.6023 0.1048 0.48021 0.0
O36 O 0.55768 0.12835 0.50008 0.0
O37 O 0.62903 0.16367 0.50835 0.0
C38 C 0.59821 0.01057 0.51078 0.0
C39 C 0.5929 0.16326 0.50478 0.0
Dy40 Dy 0.59574 0.66227 0.83787 0.0
C41 C 0.52013 0.48284 0.85387 0.0
C42 C 0.6243 0.74422 0.82175 0.0
Dy43 Dy 0.54817 0.5672 0.84416 0.0
O44 O 0.62219 0.73122 0.8427 0.0
O45 O 0.61102 0.71246 0.80954 0.0
O46 O 0.62737 0.66631 0.86998 0.0
O47 O 0.56487 0.61623 0.86685 0.0
C48 C 0.59614 0.6309 0.8792 0.0
C49 C 0.55186 0.60063 0.80224 0.0
O50 O 0.49448 0.57613 0.85492 0.0
O51 O 0.52679 0.64643 0.84048 0.0
O52 O 0.51819 0.50034 0.8347 0.0
O53 O 0.53671 0.51142 0.86807 0.0
O54 O 0.51859 0.56734 0.81157 0.0
O55 O 0.58173 0.6134 0.81539 0.0
O56 O 0.6516 0.65332 0.83196 0.0
O57 O 0.61628 0.58227 0.84522 0.0
C58 C 0.49276 0.61101 0.84927 0.0
C59 C 0.65184 0.61796 0.83859 0.0
C60 C 0.50815 0.01327 0.2034 0.0
N61 N 0.53313 0.04242 0.21756 0.0
N62 N 0.47188 0.98206 0.21436 0.0
C63 C 0.51816 0.01612 0.17881 0.0
C64 C 0.4758 0.9931 0.23562 0.0
N65 N 0.51258 0.02974 0.23756 0.0
C66 C 0.44495 0.96631 0.25486 0.0
H67 H 0.5352 0.04971 0.17169 0.0
H68 H 0.48889 0.99784 0.16977 0.0
H69 H 0.53901 1.00261 0.17634 0.0
H70 H 0.42576 0.93265 0.25119 0.0
H71 H 0.42322 0.97859 0.25789 0.0
H72 H 0.46188 0.96792 0.27034 0.0
C73 C 0.59335 0.58354 0.53475 0.0
N74 N 0.59523 0.61158 0.54918 0.0
N75 N 0.59767 0.55198 0.54567 0.0
C76 C 0.58971 0.5881 0.50993 0.0
C77 C 0.60203 0.5618 0.5672 0.0
N78 N 0.60088 0.59787 0.56931 0.0
C79 C 0.60466 0.53451 0.58645 0.0
H80 H 0.55577 0.5739 0.50632 0.0
H81 H 0.60299 0.57133 0.50109 0.0
H82 H 0.60627 0.62208 0.50351 0.0
H83 H 0.63846 0.54542 0.58918 0.0
H84 H 0.58877 0.50073 0.58285 0.0
H85 H 0.59001 0.5371 0.60207 0.0
C86 C 0.06789 0.60442 0.86993 0.0
N87 N 0.09092 0.59607 0.88516 0.0
N88 N 0.0301 0.59592 0.87939 0.0
C89 C 0.08101 0.61848 0.84562 0.0
C90 C 0.03114 0.5824 0.90087 0.0
N91 N 0.06755 0.58203 0.90431 0.0
C92 C 0.99777 0.57252 0.91895 0.0
H93 H 0.10104 0.65356 0.84363 0.0
H94 H 0.05298 0.60916 0.83541 0.0
H95 H 0.0998 0.60472 0.83941 0.0
H96 H 0.97505 0.53787 0.92058 0.0
H97 H 0.98009 0.5893 0.91484 0.0
H98 H 1.01205 0.58164 0.93533 0.0
C99 C 0.04479 0.62824 0.46857 0.0
N100 N 0.01772 0.59816 0.4557 0.0
N101 N 0.0641 0.66675 0.45688 0.0
C102 C 0.05341 0.62023 0.49235 0.0
C103 C 0.04821 0.65907 0.43636 0.0
N104 N 0.01954 0.61738 0.43569 0.0
C105 C 0.06504 0.69103 0.41616 0.0
H106 H 0.06377 0.64894 0.50147 0.0
H107 H 0.07926 0.61262 0.49236 0.0
H108 H 0.02484 0.59308 0.50117 0.0
H109 H 0.07197 0.67728 0.40192 0.0
H110 H 0.0941 0.72074 0.41952 0.0
H111 H 0.04053 0.69898 0.4111 0.0
C112 C 0.62052 0.14539 0.80935 0.0
N113 N 0.6258 0.12847 0.79111 0.0
N114 N 0.61373 0.1778 0.80313 0.0
C115 C 0.62355 0.1314 0.83311 0.0
C116 C 0.61483 0.17975 0.78047 0.0
N117 N 0.62254 0.15001 0.77321 0.0
C118 C 0.60425 0.20781 0.76558 0.0
H119 H 0.59181 0.10571 0.83968 0.0
H120 H 0.63434 0.15808 0.84385 0.0
H121 H 0.64565 0.11886 0.83398 0.0
H122 H 0.63344 0.23894 0.76164 0.0
H123 H 0.58054 0.21324 0.77414 0.0
H124 H 0.59181 0.19386 0.74961 0.0
C125 C 0.49545 0.46152 0.13893 0.0
N126 N 0.52908 0.47943 0.12395 0.0
N127 N 0.45994 0.45489 0.12877 0.0
C128 C 0.4977 0.45247 0.16364 0.0
C129 C 0.47321 0.46991 0.10719 0.0
N130 N 0.51527 0.48511 0.10431 0.0
C131 C 0.44564 0.47232 0.08924 0.0
H132 H 0.50062 0.42372 0.16638 0.0
H133 H 0.46902 0.44642 0.17335 0.0
H134 H 0.52605 0.47933 0.17011 0.0
H135 H 0.44415 0.50174 0.09031 0.0
H136 H 0.41296 0.44506 0.0914 0.0
H137 H 0.45856 0.473 0.07232 0.0
H138 H 0.09659 0.40169 0.19346 0.0
H139 H 0.15785 0.39178 0.19096 0.0
H140 H 0.19094 0.457 0.1246 0.0
H141 H 0.13097 0.46896 0.12757 0.0
H142 H 0.19303 0.35958 0.16738 0.0
H143 H 0.2933 0.52649 0.11878 0.0
H144 H 0.29394 0.5945 0.11447 0.0
H145 H 0.22824 0.56581 0.17869 0.0
H146 H 0.22781 0.49799 0.18354 0.0
H147 H 0.3847 0.38774 0.12132 0.0
H148 H 0.31527 0.37728 0.1324 0.0
H149 H 0.37575 0.48536 0.17153 0.0
H150 H 0.44508 0.49784 0.15851 0.0
H151 H 0.32639 0.49564 0.14837 0.0
H152 H 0.30771 0.37739 0.19493 0.0
H153 H 0.30788 0.31121 0.20608 0.0
H154 H 0.21408 0.24613 0.15877 0.0
H155 H 0.21376 0.31207 0.14709 0.0
C156 C 0.11647 0.41308 0.17816 0.0
C157 C 0.10979 0.43675 0.16085 0.0
C158 C 0.15136 0.4073 0.17673 0.0
C159 C 0.17953 0.42468 0.15786 0.0
C160 C 0.17016 0.44437 0.13957 0.0
C161 C 0.13588 0.45101 0.14121 0.0
C162 C 0.22092 0.42661 0.15825 0.0
C163 C 0.2223 0.38922 0.16322 0.0
C164 C 0.25915 0.46569 0.15398 0.0
C165 C 0.26019 0.50697 0.15141 0.0
C166 C 0.27921 0.53481 0.13203 0.0
C167 C 0.2795 0.57331 0.12949 0.0
C168 C 0.26103 0.5844 0.14627 0.0
C169 C 0.24243 0.55713 0.16568 0.0
C170 C 0.24215 0.51866 0.16833 0.0
C171 C 0.38274 0.40873 0.13251 0.0
C172 C 0.41969 0.44368 0.13899 0.0
C173 C 0.34319 0.40253 0.13909 0.0
C174 C 0.34008 0.43041 0.15294 0.0
C175 C 0.37723 0.46358 0.16073 0.0
C176 C 0.41674 0.47051 0.15353 0.0
C177 C 0.2989 0.42829 0.15691 0.0
C178 C 0.29742 0.46583 0.15275 0.0
C179 C 0.26097 0.38967 0.16306 0.0
C180 C 0.26094 0.34982 0.17002 0.0
C181 C 0.28733 0.34905 0.18678 0.0
C182 C 0.28742 0.31156 0.19322 0.0
C183 C 0.26107 0.27451 0.18311 0.0
C184 C 0.23449 0.27486 0.16658 0.0
C185 C 0.23429 0.31228 0.16007 0.0
H186 H 0.26119 0.24552 0.18812 0.0
H187 H 0.2612 0.61417 0.14425 0.0
H188 H 0.74785 0.23364 0.54215 0.0
H189 H 0.8071 0.30585 0.53389 0.0
H190 H 0.85718 0.26277 0.48303 0.0
H191 H 0.79753 0.19058 0.49096 0.0
H192 H 0.89329 0.35188 0.53044 0.0
H193 H 0.87995 0.32954 0.43624 0.0
H194 H 0.8284 0.28221 0.4105 0.0
H195 H 0.72586 0.25865 0.45588 0.0
H196 H 0.77676 0.3064 0.48165 0.0
H197 H 0.04619 0.54667 0.47185 0.0
H198 H 1.00343 0.4706 0.48362 0.0
H199 H 0.89077 0.47257 0.46436 0.0
H200 H 0.93389 0.54871 0.4525 0.0
H201 H 0.88849 0.40332 0.45217 0.0
H202 H 0.9178 0.4761 0.51903 0.0
H203 H 0.96356 0.52528 0.5459 0.0
H204 H 0.0239 0.45107 0.5577 0.0
H205 H 0.97894 0.40182 0.53059 0.0
C206 C 0.77228 0.23928 0.52976 0.0
C207 C 0.76786 0.20677 0.51693 0.0
C208 C 0.80612 0.28058 0.52505 0.0
C209 C 0.8359 0.28976 0.50749 0.0
C210 C 0.83406 0.25639 0.49639 0.0
C211 C 0.80012 0.21515 0.50101 0.0
C212 C 0.86481 0.33443 0.49881 0.0
C213 C 0.89264 0.36309 0.51328 0.0
C214 C 0.86307 0.34922 0.47656 0.0
C215 C 0.83218 0.32114 0.46096 0.0
C216 C 0.8464 0.31432 0.44067 0.0
C217 C 0.81729 0.28746 0.42608 0.0
C218 C 0.7739 0.26729 0.4316 0.0
C219 C 0.75948 0.27418 0.45165 0.0
C220 C 0.78844 0.30116 0.46625 0.0
C221 C 1.01225 0.53071 0.47036 0.0
C222 C 0.99291 0.55328 0.46184 0.0
C223 C 0.98792 0.4874 0.47696 0.0
C224 C 0.94382 0.4661 0.47526 0.0
C225 C 0.92472 0.48842 0.46593 0.0
C226 C 0.94915 0.53172 0.45924 0.0
C227 C 0.91737 0.42086 0.48375 0.0
C228 C 0.88981 0.39207 0.46923 0.0
C229 C 0.91862 0.40625 0.50612 0.0
C230 C 0.94532 0.43553 0.52262 0.0
C231 C 0.94103 0.47044 0.52724 0.0
C232 C 0.96681 0.49831 0.54252 0.0
C233 C 0.99669 0.49136 0.55346 0.0
C234 C 1.00078 0.45645 0.54918 0.0
C235 C 0.97516 0.42854 0.53387 0.0
H236 H 0.01662 0.51297 0.56529 0.0
H237 H 0.75143 0.24636 0.42035 0.0
H238 H 0.6246 0.77463 0.77876 0.0
H239 H 0.63669 0.84535 0.76601 0.0
H240 H 0.66044 0.88152 0.83364 0.0
H241 H 0.64908 0.81149 0.84628 0.0
H242 H 0.59117 0.87928 0.7777 0.0
H243 H 0.72673 0.98477 0.83483 0.0
H244 H 0.79206 0.98959 0.84896 0.0
H245 H 0.80069 0.92528 0.79375 0.0
H246 H 0.73578 0.9206 0.77909 0.0
H247 H 0.57539 0.05005 0.81103 0.0
H248 H 0.58447 0.98823 0.80904 0.0
H249 H 0.69865 0.06462 0.76725 0.0
H250 H 0.68949 0.12656 0.76948 0.0
H251 H 0.70902 0.01541 0.79964 0.0
H252 H 0.61302 0.99537 0.74326 0.0
H253 H 0.55054 0.99193 0.72597 0.0
H254 H 0.4687 0.8883 0.7737 0.0
H255 H 0.53077 0.89126 0.79135 0.0
C256 C 0.63313 0.79803 0.79077 0.0
C257 C 0.63583 0.78774 0.81349 0.0
C258 C 0.63994 0.8383 0.78349 0.0
C259 C 0.64982 0.86884 0.79883 0.0
C260 C 0.65368 0.8588 0.82142 0.0
C261 C 0.64693 0.81868 0.82866 0.0
C262 C 0.65235 0.90986 0.79195 0.0
C263 C 0.61716 0.9091 0.78226 0.0
C264 C 0.68678 0.94898 0.79733 0.0
C265 C 0.72619 0.95215 0.80592 0.0
C266 C 0.74269 0.97189 0.82561 0.0
C267 C 0.77963 0.97454 0.83374 0.0
C268 C 0.80046 0.95768 0.82228 0.0
C269 C 0.78445 0.93822 0.80265 0.0
C270 C 0.74755 0.9355 0.79444 0.0
C271 C 0.60253 0.05348 0.80164 0.0
C272 C 0.63197 0.09271 0.79056 0.0
C273 C 0.6075 0.01827 0.80028 0.0
C274 C 0.64195 0.02178 0.78773 0.0
C275 C 0.67173 0.06121 0.77686 0.0
C276 C 0.66655 0.0964 0.77813 0.0
C277 C 0.64695 0.98421 0.78652 0.0
C278 C 0.68348 0.98568 0.79468 0.0
C279 C 0.6142 0.94593 0.77927 0.0
C280 C 0.57662 0.94371 0.76868 0.0
C281 C 0.58172 0.97202 0.75014 0.0
C282 C 0.54637 0.97015 0.74028 0.0
C283 C 0.50567 0.94004 0.74879 0.0
C284 C 0.50025 0.91162 0.76713 0.0
C285 C 0.53552 0.9133 0.77703 0.0
H286 H 0.47833 0.93866 0.74114 0.0
H287 H 0.82904 0.95975 0.82861 0.0
H288 H 0.87114 0.54503 0.2078 0.0
H289 H 0.8034 0.5414 0.20114 0.0
H290 H 0.85675 0.62123 0.13955 0.0
H291 H 0.92417 0.62387 0.14573 0.0
H292 H 0.78154 0.6214 0.17372 0.0
H293 H 0.82397 0.54292 0.12313 0.0
H294 H 0.85527 0.49729 0.11935 0.0
H295 H 0.76673 0.40671 0.17038 0.0
H296 H 0.73555 0.4523 0.17473 0.0
H297 H 0.59585 0.55816 0.11378 0.0
H298 H 0.66917 0.58397 0.12358 0.0
H299 H 0.63217 0.46073 0.15697 0.0
H300 H 0.56015 0.43405 0.14496 0.0
H301 H 0.70188 0.4867 0.13775 0.0
H302 H 0.64983 0.55309 0.18486 0.0
H303 H 0.61764 0.59604 0.19369 0.0
H304 H 0.71941 0.70501 0.1564 0.0
H305 H 0.75194 0.66254 0.14711 0.0
C306 C 0.86891 0.56324 0.19334 0.0
C307 C 0.90243 0.58428 0.1771 0.0
C308 C 0.83031 0.56122 0.18959 0.0
C309 C 0.82536 0.58095 0.16984 0.0
C310 C 0.8603 0.6061 0.15494 0.0
C311 C 0.89861 0.60741 0.15844 0.0
C312 C 0.78256 0.56746 0.16237 0.0
C313 C 0.76401 0.59225 0.16565 0.0
C314 C 0.75975 0.52891 0.15243 0.0
C315 C 0.77773 0.50108 0.14937 0.0
C316 C 0.81142 0.51339 0.13363 0.0
C317 C 0.82913 0.48756 0.13139 0.0
C318 C 0.81308 0.44916 0.14466 0.0
C319 C 0.77922 0.43649 0.16016 0.0
C320 C 0.76152 0.4623 0.16252 0.0
C321 C 0.6038 0.53649 0.12275 0.0
C322 C 0.57251 0.49424 0.12881 0.0
C323 C 0.64546 0.55142 0.12874 0.0
C324 C 0.6561 0.52468 0.1416 0.0
C325 C 0.62484 0.48216 0.14721 0.0
C326 C 0.58359 0.46699 0.14062 0.0
C327 C 0.69975 0.54047 0.14905 0.0
C328 C 0.71885 0.51602 0.14575 0.0
C329 C 0.72245 0.57887 0.15946 0.0
C330 C 0.70309 0.60453 0.16512 0.0
C331 C 0.6652 0.58614 0.17843 0.0
C332 C 0.64691 0.61041 0.18353 0.0
C333 C 0.66641 0.6532 0.17556 0.0
C334 C 0.70431 0.67185 0.16254 0.0
C335 C 0.7227 0.6477 0.15736 0.0
H336 H 0.6522 0.67193 0.17953 0.0
H337 H 0.8268 0.42919 0.14288 0.0
H338 H 0.39887 0.02136 0.49115 0.0
H339 H 0.32617 0.96712 0.48472 0.0
H340 H 0.37287 0.89435 0.45371 0.0
H341 H 0.44554 0.94925 0.45936 0.0
H342 H 0.30692 0.88646 0.43317 0.0
H343 H 0.33975 0.87531 0.50996 0.0
H344 H 0.36298 0.90058 0.54711 0.0
H345 H 0.26062 0.9256 0.5541 0.0
H346 H 0.23711 0.90097 0.51683 0.0
H347 H 0.14115 0.67566 0.45711 0.0
H348 H 0.20819 0.74164 0.46081 0.0
H349 H 0.13921 0.80669 0.47173 0.0
H350 H 0.07207 0.74047 0.46754 0.0
H351 H 0.2117 0.8226 0.50164 0.0
H352 H 0.17572 0.82348 0.42446 0.0
H353 H 0.15327 0.79121 0.38876 0.0
H354 H 0.26399 0.77906 0.38392 0.0
H355 H 0.28668 0.81047 0.41986 0.0
C356 C 0.39355 0.99418 0.48254 0.0
C357 C 0.4276 0.98915 0.47593 0.0
C358 C 0.35207 0.96313 0.47901 0.0
C359 C 0.34405 0.9262 0.46923 0.0
C360 C 0.37827 0.92248 0.46138 0.0
C361 C 0.41977 0.95381 0.46463 0.0
C362 C 0.30027 0.89012 0.46857 0.0
C363 C 0.2862 0.8725 0.44816 0.0
C364 C 0.27298 0.87206 0.4881 0.0
C365 C 0.287 0.88681 0.51051 0.0
C366 C 0.3224 0.88651 0.51935 0.0
C367 C 0.33558 0.90067 0.54044 0.0
C368 C 0.31337 0.91482 0.55293 0.0
C369 C 0.27785 0.91472 0.54438 0.0
C370 C 0.26457 0.90066 0.52329 0.0
C371 C 0.1406 0.70399 0.46074 0.0
C372 C 0.10213 0.70358 0.46225 0.0
C373 C 0.17858 0.74147 0.46273 0.0
C374 C 0.17839 0.77884 0.4664 0.0
C375 C 0.13976 0.77801 0.46893 0.0
C376 C 0.1017 0.74052 0.46661 0.0
C377 C 0.21886 0.81907 0.46637 0.0
C378 C 0.23226 0.83722 0.48663 0.0
C379 C 0.24583 0.83709 0.44683 0.0
C380 C 0.23272 0.81902 0.42496 0.0
C381 C 0.19512 0.81362 0.41589 0.0
C382 C 0.18237 0.79552 0.39559 0.0
C383 C 0.20715 0.78302 0.3841 0.0
C384 C 0.24481 0.78872 0.39285 0.0
C385 C 0.25764 0.8067 0.41318 0.0
H386 H 0.19721 0.76899 0.36839 0.0
H387 H 0.32362 0.92576 0.56925 0.0
H388 H 0.53272 0.4445 0.89132 0.0
H389 H 0.53717 0.37942 0.89362 0.0
H390 H 0.50105 0.36138 0.82522 0.0
H391 H 0.49505 0.42493 0.82326 0.0
H392 H 0.47246 0.28784 0.84624 0.0
H393 H 0.61054 0.41782 0.83904 0.0
H394 H 0.66491 0.48648 0.85093 0.0
H395 H 0.66475 0.42633 0.91522 0.0
H396 H 0.61042 0.35694 0.90347 0.0
H397 H 0.65236 0.26262 0.80154 0.0
H398 H 0.6284 0.30422 0.82083 0.0
H399 H 0.52869 0.18923 0.856 0.0
H400 H 0.55179 0.14756 0.83578 0.0
H401 H 0.61811 0.31911 0.86167 0.0
H402 H 0.44042 0.19994 0.86005 0.0
H403 H 0.39133 0.13828 0.84017 0.0
H404 H 0.47755 0.18715 0.7823 0.0
H405 H 0.52678 0.24931 0.80174 0.0
C406 C 0.52445 0.42571 0.87711 0.0
C407 C 0.51403 0.43979 0.85709 0.0
C408 C 0.5272 0.38878 0.87837 0.0
C409 C 0.52031 0.36597 0.85947 0.0
C410 C 0.50658 0.37834 0.84005 0.0
C411 C 0.50333 0.41484 0.8389 0.0
C412 C 0.53234 0.33279 0.85861 0.0
C413 C 0.50403 0.29431 0.85003 0.0
C414 C 0.57364 0.34121 0.86334 0.0
C415 C 0.6063 0.38249 0.87049 0.0
C416 C 0.62207 0.41934 0.85573 0.0
C417 C 0.65288 0.45837 0.86245 0.0
C418 C 0.66817 0.46096 0.88391 0.0
C419 C 0.65284 0.42433 0.89862 0.0
C420 C 0.62214 0.3851 0.89192 0.0
C421 C 0.62564 0.24649 0.81358 0.0
C422 C 0.60359 0.20214 0.8171 0.0
C423 C 0.61215 0.27014 0.82473 0.0
C424 C 0.57643 0.24979 0.83969 0.0
C425 C 0.55601 0.20553 0.84434 0.0
C426 C 0.56935 0.18182 0.83297 0.0
C427 C 0.55878 0.27497 0.84849 0.0
C428 C 0.58596 0.3118 0.85872 0.0
C429 C 0.51701 0.26578 0.84441 0.0
C430 C 0.48746 0.22886 0.83247 0.0
C431 C 0.4488 0.1975 0.84307 0.0
C432 C 0.42096 0.1625 0.83188 0.0
C433 C 0.43139 0.15871 0.81002 0.0
C434 C 0.46957 0.19003 0.79926 0.0
C435 C 0.49745 0.22514 0.81036 0.0
H436 H 0.40983 0.13156 0.8014 0.0
H437 H 0.69198 0.49127 0.8891 0.0
H438 H 0.53845 0.93237 0.49825 0.0
H439 H 0.53742 0.86494 0.50385 0.0
H440 H 0.6553 0.92649 0.5367 0.0
H441 H 0.65692 0.9943 0.53083 0.0
H442 H 0.65746 0.87356 0.50967 0.0
H443 H 0.55713 0.86139 0.56604 0.0
H444 H 0.49455 0.86273 0.58065 0.0
H445 H 0.41473 0.76323 0.54008 0.0
H446 H 0.47695 0.7617 0.52499 0.0
H447 H 0.653 0.68924 0.56059 0.0
H448 H 0.6525 0.75588 0.5534 0.0
H449 H 0.53688 0.69044 0.5189 0.0
H450 H 0.53705 0.62339 0.52663 0.0
H451 H 0.5325 0.74445 0.54581 0.0
H452 H 0.63276 0.75556 0.49011 0.0
H453 H 0.69538 0.75414 0.47566 0.0
H454 H 0.77537 0.85564 0.5151 0.0
H455 H 0.71311 0.85726 0.53005 0.0
C456 C 0.56425 0.93175 0.50669 0.0
C457 C 0.59773 0.96917 0.51412 0.0
C458 C 0.56349 0.89287 0.51 0.0
C459 C 0.59598 0.89002 0.52102 0.0
C460 C 0.62972 0.92745 0.5282 0.0
C461 C 0.63054 0.96638 0.52486 0.0
C462 C 0.59498 0.8483 0.52493 0.0
C463 C 0.63028 0.84556 0.51785 0.0
C464 C 0.55924 0.81103 0.53509 0.0
C465 C 0.52176 0.81174 0.54421 0.0
C466 C 0.52627 0.84002 0.56011 0.0
C467 C 0.49086 0.84078 0.5685 0.0
C468 C 0.4507 0.81317 0.56125 0.0
C469 C 0.44586 0.78465 0.54565 0.0
C470 C 0.48119 0.7838 0.53719 0.0
C471 C 0.62746 0.68911 0.55151 0.0
C472 C 0.59521 0.65109 0.54407 0.0
C473 C 0.6273 0.72733 0.54724 0.0
C474 C 0.59492 0.72871 0.53532 0.0
C475 C 0.56237 0.69055 0.52804 0.0
C476 C 0.56262 0.65225 0.53228 0.0
C477 C 0.59506 0.76985 0.53065 0.0
C478 C 0.55962 0.77246 0.53758 0.0
C479 C 0.63068 0.80702 0.52038 0.0
C480 C 0.66821 0.80626 0.51136 0.0
C481 C 0.66366 0.77736 0.49584 0.0
C482 C 0.6991 0.77656 0.48753 0.0
C483 C 0.73932 0.80471 0.4945 0.0
C484 C 0.74419 0.83381 0.50974 0.0
C485 C 0.70884 0.83472 0.51812 0.0
H486 H 0.76671 0.80404 0.48805 0.0
H487 H 0.42333 0.81381 0.56777 0.0
H488 H 0.73337 0.68432 0.82784 0.0
H489 H 0.80009 0.6843 0.83214 0.0
H490 H 0.73051 0.55215 0.85657 0.0
H491 H 0.66407 0.55221 0.85288 0.0
H492 H 0.79233 0.58936 0.88166 0.0
H493 H 0.78218 0.59154 0.80167 0.0
H494 H 0.77547 0.61939 0.76416 0.0
H495 H 0.89034 0.73668 0.77098 0.0
H496 H 0.89745 0.70971 0.80867 0.0
H497 H 0.94959 0.53298 0.8772 0.0
H498 H 0.88828 0.53994 0.86719 0.0
H499 H 0.97064 0.67425 0.85064 0.0
H500 H 0.03223 0.66685 0.86049 0.0
H501 H 0.90583 0.64144 0.82172 0.0
H502 H 0.91703 0.63659 0.9013 0.0
H503 H 0.92364 0.60703 0.93832 0.0
H504 H 0.80539 0.49291 0.93191 0.0
H505 H 0.79839 0.52151 0.89467 0.0
C506 C 0.73219 0.65511 0.83396 0.0
C507 C 0.69297 0.61813 0.8398 0.0
C508 C 0.77055 0.65508 0.83634 0.0
C509 C 0.77074 0.61798 0.84446 0.0
C510 C 0.73156 0.58117 0.85023 0.0
C511 C 0.69338 0.58121 0.84795 0.0
C512 C 0.81128 0.61724 0.84768 0.0
C513 C 0.81678 0.60032 0.86838 0.0
C514 C 0.84424 0.63256 0.83073 0.0
C515 C 0.84009 0.64878 0.80808 0.0
C516 C 0.80583 0.62339 0.79524 0.0
C517 C 0.80199 0.63899 0.77393 0.0
C518 C 0.83239 0.67982 0.76522 0.0
C519 C 0.86678 0.70509 0.77777 0.0
C520 C 0.87074 0.68965 0.79909 0.0
C521 C 0.95459 0.56379 0.87098 0.0
C522 C 0.99561 0.59935 0.86962 0.0
C523 C 0.91952 0.56789 0.86541 0.0
C524 C 0.92441 0.60782 0.85857 0.0
C525 C 0.96577 0.6431 0.85595 0.0
C526 C 1.00102 0.63891 0.86148 0.0
C527 C 0.88619 0.61273 0.85549 0.0
C528 C 0.88129 0.63057 0.83494 0.0
C529 C 0.85357 0.59809 0.87253 0.0
C530 C 0.85738 0.58107 0.89509 0.0
C531 C 0.89256 0.60509 0.90771 0.0
C532 C 0.89637 0.58851 0.92875 0.0
C533 C 0.86501 0.54808 0.93744 0.0
C534 C 0.82969 0.5242 0.92514 0.0
C535 C 0.82577 0.54059 0.90407 0.0
H536 H 0.86804 0.53529 0.95372 0.0
H537 H 0.82936 0.69185 0.74873 0.0
H538 H 0.10001 0.66799 0.19167 0.0
H539 H 0.16682 0.7338 0.19478 0.0
H540 H 0.2356 0.66805 0.18593 0.0
H541 H 0.16877 0.60192 0.1826 0.0
H542 H 0.26699 0.72342 0.22005 0.0
H543 H 0.23364 0.72919 0.14341 0.0
H544 H 0.18857 0.72546 0.11228 0.0
H545 H 0.17965 0.82968 0.13492 0.0
H546 H 0.22411 0.83358 0.16643 0.0
H547 H 0.46992 0.91137 0.20205 0.0
H548 H 0.40639 0.84412 0.19476 0.0
H549 H 0.32963 0.90207 0.20213 0.0
H550 H 0.39311 0.96883 0.20965 0.0
H551 H 0.30399 0.84957 0.16741 0.0
H552 H 0.33465 0.8426 0.24449 0.0
H553 H 0.37922 0.84693 0.27596 0.0
H554 H 0.39238 0.74527 0.25301 0.0
H555 H 0.34852 0.7409 0.22112 0.0
C556 C 0.12923 0.66728 0.19043 0.0
C557 C 0.12865 0.62932 0.18675 0.0
C558 C 0.16759 0.70516 0.19216 0.0
C559 C 0.20657 0.70627 0.1904 0.0
C560 C 0.20612 0.66825 0.18732 0.0
C561 C 0.16773 0.63036 0.18535 0.0
C562 C 0.24757 0.74724 0.1914 0.0
C563 C 0.27535 0.75074 0.20829 0.0
C564 C 0.25841 0.78345 0.17642 0.0
C565 C 0.23187 0.7814 0.15742 0.0
C566 C 0.22177 0.75108 0.14187 0.0
C567 C 0.19638 0.74897 0.12414 0.0
C568 C 0.18117 0.77724 0.12166 0.0
C569 C 0.19141 0.80776 0.13689 0.0
C570 C 0.21673 0.80995 0.15468 0.0
C571 C 0.43956 0.90982 0.20153 0.0
C572 C 0.43636 0.94531 0.20609 0.0
C573 C 0.4032 0.87136 0.19758 0.0
C574 C 0.36288 0.86768 0.19804 0.0
C575 C 0.36014 0.90388 0.2016 0.0
C576 C 0.39638 0.94207 0.20581 0.0
C577 C 0.32339 0.82578 0.19606 0.0
C578 C 0.2958 0.82214 0.17905 0.0
C579 C 0.31266 0.78951 0.21099 0.0
C580 C 0.33871 0.79176 0.23026 0.0
C581 C 0.34735 0.82141 0.24603 0.0
C582 C 0.37245 0.82385 0.26396 0.0
C583 C 0.38871 0.79646 0.26645 0.0
C584 C 0.37982 0.76652 0.25103 0.0
C585 C 0.35485 0.76405 0.23302 0.0
H586 H 0.40812 0.79837 0.28035 0.0
H587 H 0.16152 0.77557 0.10792 0.0
H588 H 0.65854 0.24089 0.51408 0.0
H589 H 0.65756 0.30612 0.51876 0.0
H590 H 0.52545 0.24412 0.50449 0.0
H591 H 0.52618 0.17836 0.49956 0.0
H592 H 0.56773 0.32489 0.4841 0.0
H593 H 0.55678 0.26078 0.5585 0.0
H594 H 0.57791 0.22861 0.58967 0.0
H595 H 0.69867 0.34266 0.58911 0.0
H596 H 0.67851 0.37542 0.55777 0.0
H597 H 0.53441 0.48705 0.52579 0.0
H598 H 0.5316 0.42107 0.51676 0.0
H599 H 0.65919 0.4695 0.53783 0.0
H600 H 0.66109 0.53453 0.54741 0.0
H601 H 0.6156 0.39315 0.55486 0.0
H602 H 0.6287 0.45732 0.48034 0.0
H603 H 0.60961 0.49021 0.44861 0.0
H604 H 0.48762 0.37769 0.44856 0.0
H605 H 0.50578 0.34433 0.4805 0.0
C606 C 0.62915 0.24087 0.51183 0.0
C607 C 0.59234 0.20383 0.50652 0.0
C608 C 0.62863 0.27843 0.51463 0.0
C609 C 0.59128 0.28027 0.51235 0.0
C610 C 0.55471 0.24375 0.50644 0.0
C611 C 0.55517 0.206 0.50366 0.0
C612 C 0.59047 0.32003 0.51653 0.0
C613 C 0.57764 0.33948 0.49971 0.0
C614 C 0.60422 0.33995 0.53667 0.0
C615 C 0.61625 0.32043 0.55566 0.0
C616 C 0.58795 0.27891 0.56493 0.0
C617 C 0.59973 0.26057 0.58263 0.0
C618 C 0.63962 0.2835 0.59131 0.0
C619 C 0.66779 0.32491 0.58235 0.0
C620 C 0.65619 0.34341 0.56464 0.0
C621 C 0.56204 0.48375 0.528 0.0
C622 C 0.5981 0.51602 0.53711 0.0
C623 C 0.56052 0.44598 0.52287 0.0
C624 C 0.59532 0.43984 0.52641 0.0
C625 C 0.63174 0.47286 0.53496 0.0
C626 C 0.63304 0.51027 0.54028 0.0
C627 C 0.59347 0.39866 0.52228 0.0
C628 C 0.60567 0.37875 0.53921 0.0
C629 C 0.57942 0.37856 0.50218 0.0
C630 C 0.56844 0.39851 0.48297 0.0
C631 C 0.59768 0.43972 0.47368 0.0
C632 C 0.58705 0.45842 0.45563 0.0
C633 C 0.54738 0.4361 0.44662 0.0
C634 C 0.5183 0.39497 0.45559 0.0
C635 C 0.52876 0.37614 0.47365 0.0
H636 H 0.53921 0.45063 0.43264 0.0
H637 H 0.64866 0.26922 0.60501 0.0
H638 H 0.41648 0.54487 0.86702 0.0
H639 H 0.3496 0.54357 0.873 0.0
H640 H 0.40808 0.6742 0.8461 0.0
H641 H 0.47546 0.67592 0.84034 0.0
H642 H 0.35799 0.66181 0.88193 0.0
H643 H 0.34017 0.5905 0.81546 0.0
H644 H 0.3401 0.53748 0.79224 0.0
H645 H 0.246 0.43683 0.83741 0.0
H646 H 0.24593 0.48927 0.86109 0.0
H647 H 0.16409 0.66326 0.86667 0.0
H648 H 0.23243 0.66674 0.86041 0.0
H649 H 0.17803 0.53767 0.8894 0.0
H650 H 0.10968 0.53417 0.8953 0.0
H651 H 0.2262 0.55013 0.85202 0.0
H652 H 0.24367 0.62101 0.91841 0.0
H653 H 0.24276 0.6737 0.9415 0.0
H654 H 0.337 0.77485 0.89658 0.0
H655 H 0.33792 0.72271 0.87298 0.0
C656 C 0.41532 0.57343 0.86233 0.0
C657 C 0.45174 0.61047 0.85306 0.0
C658 C 0.37675 0.57258 0.8657 0.0
C659 C 0.37315 0.6086 0.85976 0.0
C660 C 0.40963 0.64585 0.85083 0.0
C661 C 0.44829 0.64675 0.84745 0.0
C662 C 0.33147 0.60731 0.86282 0.0
C663 C 0.32937 0.63771 0.87508 0.0
C664 C 0.29349 0.57542 0.8544 0.0
C665 C 0.29335 0.54382 0.84016 0.0
C666 C 0.31969 0.55705 0.82053 0.0
C667 C 0.31964 0.52711 0.80727 0.0
C668 C 0.29315 0.48381 0.81338 0.0
C669 C 0.26655 0.47037 0.83272 0.0
C670 C 0.26651 0.5002 0.84606 0.0
C671 C 0.16675 0.63562 0.87155 0.0
C672 C 0.13147 0.59842 0.88144 0.0
C673 C 0.20593 0.63767 0.86813 0.0
C674 C 0.21086 0.60255 0.87454 0.0
C675 C 0.17539 0.56526 0.88427 0.0
C676 C 0.13634 0.56333 0.88779 0.0
C677 C 0.25276 0.60456 0.87113 0.0
C678 C 0.25487 0.57427 0.85883 0.0
C679 C 0.29068 0.63651 0.87952 0.0
C680 C 0.29055 0.66794 0.89379 0.0
C681 C 0.26397 0.65449 0.91335 0.0
C682 C 0.26348 0.68425 0.92655 0.0
C683 C 0.28975 0.7276 0.92048 0.0
C684 C 0.31663 0.74126 0.90124 0.0
C685 C 0.31716 0.71161 0.88795 0.0
H686 H 0.28933 0.75061 0.93072 0.0
H687 H 0.29315 0.46067 0.80309 0.0
H688 H 0.85438 0.42591 0.18814 0.0
H689 H 0.78707 0.35917 0.19418 0.0
H690 H 0.84765 0.29054 0.17421 0.0
H691 H 0.91521 0.35719 0.16811 0.0
H692 H 0.77022 0.25955 0.15652 0.0
H693 H 0.82521 0.29251 0.22945 0.0
H694 H 0.85373 0.33744 0.26079 0.0
H695 H 0.73971 0.34343 0.26714 0.0
H696 H 0.71074 0.29901 0.23561 0.0
H697 H 0.60508 0.05234 0.19779 0.0
H698 H 0.6727 0.11875 0.1898 0.0
H699 H 0.61841 0.18805 0.21722 0.0
H700 H 0.55135 0.1214 0.22565 0.0
H701 H 0.69347 0.21898 0.23083 0.0
H702 H 0.63792 0.1872 0.15822 0.0
H703 H 0.60875 0.14354 0.12646 0.0
H704 H 0.72221 0.13693 0.11873 0.0
H705 H 0.75183 0.18005 0.15066 0.0
C706 C 0.85351 0.39674 0.18483 0.0
C707 C 0.89065 0.39729 0.17764 0.0
C708 C 0.81483 0.3584 0.18843 0.0
C709 C 0.81201 0.3194 0.18493 0.0
C710 C 0.84873 0.31997 0.17711 0.0
C711 C 0.88752 0.35828 0.17366 0.0
C712 C 0.77114 0.27812 0.18983 0.0
C713 C 0.75373 0.25048 0.17286 0.0
C714 C 0.74876 0.26633 0.21097 0.0
C715 C 0.76598 0.29276 0.23004 0.0
C716 C 0.80634 0.30366 0.23743 0.0
C717 C 0.82257 0.329 0.25524 0.0
C718 C 0.79859 0.34337 0.26591 0.0
C719 C 0.75827 0.33232 0.25883 0.0
C720 C 0.74192 0.30704 0.24101 0.0
C721 C 0.60762 0.08187 0.20188 0.0
C722 C 0.57284 0.08174 0.21217 0.0
C723 C 0.64631 0.11998 0.19728 0.0
C724 C 0.65101 0.1591 0.2025 0.0
C725 C 0.6161 0.15869 0.21294 0.0
C726 C 0.57764 0.12057 0.21774 0.0
C727 C 0.69217 0.20026 0.19746 0.0
C728 C 0.70977 0.22794 0.21444 0.0
C729 C 0.71453 0.21222 0.17625 0.0
C730 C 0.69691 0.1865 0.15697 0.0
C731 C 0.65653 0.17618 0.14984 0.0
C732 C 0.63993 0.15156 0.1318 0.0
C733 C 0.66357 0.13738 0.12062 0.0
C734 C 0.70391 0.14788 0.12743 0.0
C735 C 0.72063 0.17244 0.14549 0.0
H736 H 0.65067 0.11832 0.10666 0.0
H737 H 0.81121 0.36299 0.27969 0.0
H738 H 0.09197 0.608 0.11243 0.0
H739 H 0.11298 0.61199 0.07318 0.0
H740 H 0.02161 0.47908 0.07117 0.0
H741 H 1.00185 0.47462 0.11102 0.0
H742 H 0.08965 0.50116 0.04357 0.0
H743 H 0.99634 0.55571 0.05532 0.0
H744 H 0.97254 0.60042 0.07209 0.0
H745 H 0.08503 0.71261 0.04477 0.0
H746 H 0.10977 0.66851 0.02808 0.0
H747 H 0.03138 0.50796 0.92984 0.0
H748 H 0.0398 0.49864 0.97004 0.0
H749 H 0.13937 0.62951 0.96786 0.0
H750 H 0.13075 0.63844 0.92753 0.0
H751 H 0.07326 0.61001 0.99753 0.0
H752 H 0.1612 0.55219 0.98146 0.0
H753 H 0.18079 0.50501 0.96395 0.0
H754 H 0.07377 0.39611 0.99809 0.0
H755 H 0.05308 0.44261 0.01554 0.0
C756 C 0.07702 0.5794 0.10374 0.0
C757 C 0.04491 0.54114 0.11461 0.0
C758 C 0.08894 0.58174 0.08128 0.0
C759 C 0.06803 0.54616 0.06897 0.0
C760 C 0.038 0.50706 0.08024 0.0
C761 C 0.02666 0.5045 0.10298 0.0
C762 C 0.07461 0.55106 0.04411 0.0
C763 C 0.08578 0.52473 0.03348 0.0
C764 C 0.07013 0.58221 0.03086 0.0
C765 C 0.05509 0.60881 0.04064 0.0
C766 C 0.01611 0.58991 0.053 0.0
C767 C 1.00244 0.61514 0.06248 0.0
C768 C 0.02731 0.65933 0.05954 0.0
C769 C 0.06583 0.67838 0.04705 0.0
C770 C 0.07968 0.65329 0.03757 0.0
C771 C 0.05613 0.53408 0.93788 0.0
C772 C 0.08055 0.57381 0.9258 0.0
C773 C 0.06093 0.52886 0.9608 0.0
C774 C 0.09017 0.56341 0.97202 0.0
C775 C 0.11666 0.6024 0.95956 0.0
C776 C 0.11204 0.60747 0.93656 0.0
C777 C 0.08862 0.56037 0.99693 0.0
C778 C 0.07787 0.58687 0.00759 0.0
C779 C 0.0929 0.52902 0.01004 0.0
C780 C 0.10539 0.50092 0.99969 0.0
C781 C 0.14161 0.51817 0.98511 0.0
C782 C 0.15296 0.49154 0.97521 0.0
C783 C 0.1285 0.44758 0.97987 0.0
C784 C 0.09268 0.43017 0.99449 0.0
C785 C 0.08115 0.45666 0.00441 0.0
H786 H 0.13734 0.42702 0.97219 0.0
H787 H 0.01668 0.67881 0.0669 0.0
H788 H 0.66034 0.08406 0.43065 0.0
H789 H 0.64289 0.07931 0.39135 0.0
H790 H 0.53376 0.09071 0.40708 0.0
H791 H 0.55112 0.09536 0.44666 0.0
H792 H 0.51576 0.02889 0.37885 0.0
H793 H 0.62124 0.17446 0.38208 0.0
H794 H 0.68971 0.23414 0.39151 0.0
H795 H 0.75539 0.19239 0.34986 0.0
H796 H 0.68729 0.13205 0.34044 0.0
H797 H 0.47544 0.05637 0.26608 0.0
H798 H 0.49538 0.07473 0.3044 0.0
H799 H 0.60541 0.06204 0.29409 0.0
H800 H 0.58516 0.04358 0.25573 0.0
H801 H 0.62186 0.12825 0.31961 0.0
H802 H 0.51757 0.98034 0.31877 0.0
H803 H 0.44956 0.91972 0.30954 0.0
H804 H 0.38225 0.9656 0.34684 0.0
H805 H 0.44992 0.02679 0.35611 0.0
C806 C 0.63256 0.08547 0.42576 0.0
C807 C 0.60719 0.09029 0.44167 0.0
C808 C 0.62275 0.08297 0.40327 0.0
C809 C 0.58743 0.08537 0.39618 0.0
C810 C 0.56133 0.08907 0.41215 0.0
C811 C 0.57125 0.09173 0.43472 0.0
C812 C 0.57781 0.08365 0.37211 0.0
C813 C 0.53866 0.0511 0.36593 0.0
C814 C 0.60808 0.11206 0.35519 0.0
C815 C 0.64913 0.1485 0.3607 0.0
C816 C 0.65028 0.1778 0.37506 0.0
C817 C 0.68904 0.21179 0.38038 0.0
C818 C 0.72688 0.217 0.37133 0.0
C819 C 0.72604 0.18829 0.35688 0.0
C820 C 0.68737 0.15421 0.35152 0.0
C821 C 0.50426 0.05834 0.27197 0.0
C822 C 0.52867 0.04833 0.25821 0.0
C823 C 0.51557 0.06865 0.29381 0.0
C824 C 0.55145 0.06895 0.30226 0.0
C825 C 0.57752 0.06185 0.28795 0.0
C826 C 0.56612 0.05149 0.26608 0.0
C827 C 0.55991 0.07342 0.3264 0.0
C828 C 0.59885 0.10635 0.33256 0.0
C829 C 0.52951 0.0453 0.34333 0.0
C830 C 0.48879 1.00838 0.33793 0.0
C831 C 0.48826 0.97766 0.32487 0.0
C832 C 0.44978 0.94316 0.31967 0.0
C833 C 0.41161 0.9389 0.32753 0.0
C834 C 0.41185 0.96901 0.34072 0.0
C835 C 0.45025 1.00357 0.34598 0.0
H836 H 0.38186 0.9122 0.32344 0.0
H837 H 0.75686 0.24333 0.37547 0.0
H838 H 0.62578 0.64704 0.77674 0.0
H839 H 0.63399 0.65824 0.73586 0.0
H840 H 0.49811 0.59342 0.73197 0.0
H841 H 0.48994 0.58053 0.77278 0.0
H842 H 0.52689 0.56313 0.70478 0.0
H843 H 0.56553 0.70436 0.7179 0.0
H844 H 0.60364 0.7719 0.7353 0.0
H845 H 0.72181 0.79268 0.70738 0.0
H846 H 0.68448 0.72493 0.69005 0.0
H847 H 0.53511 0.60118 0.5873 0.0
H848 H 0.52703 0.61485 0.62611 0.0
H849 H 0.65493 0.64384 0.63725 0.0
H850 H 0.66256 0.62962 0.59851 0.0
H851 H 0.62737 0.69661 0.65958 0.0
H852 H 0.58508 0.54877 0.65095 0.0
H853 H 0.54428 0.48085 0.63411 0.0
H854 H 0.42813 0.47529 0.65364 0.0
H855 H 0.4683 0.54329 0.67054 0.0
C856 C 0.59772 0.63575 0.76714 0.0
C857 C 0.55721 0.61268 0.77788 0.0
C858 C 0.60241 0.64238 0.74374 0.0
C859 C 0.56667 0.62696 0.73068 0.0
C860 C 0.52621 0.60549 0.74157 0.0
C861 C 0.52154 0.59824 0.7649 0.0
C862 C 0.57125 0.62995 0.70575 0.0
C863 C 0.54825 0.59265 0.69497 0.0
C864 C 0.5996 0.66819 0.69276 0.0
C865 C 0.6222 0.70935 0.70282 0.0
C866 C 0.59968 0.7232 0.71558 0.0
C867 C 0.62113 0.76153 0.72542 0.0
C868 C 0.66512 0.7865 0.72251 0.0
C869 C 0.68773 0.77327 0.70964 0.0
C870 C 0.66643 0.73493 0.69977 0.0
C871 C 0.56175 0.61175 0.59792 0.0
C872 C 0.59938 0.6144 0.59017 0.0
C873 C 0.55716 0.6194 0.62002 0.0
C874 C 0.59034 0.63015 0.63458 0.0
C875 C 0.62905 0.63581 0.62628 0.0
C876 C 0.63341 0.62765 0.60427 0.0
C877 C 0.58294 0.62993 0.65898 0.0
C878 C 0.60558 0.66751 0.66957 0.0
C879 C 0.55376 0.59215 0.67186 0.0
C880 C 0.52967 0.55127 0.66178 0.0
C881 C 0.55085 0.5332 0.65151 0.0
C882 C 0.52785 0.49467 0.642 0.0
C883 C 0.48366 0.47389 0.64271 0.0
C884 C 0.46237 0.49148 0.65305 0.0
C885 C 0.48522 0.52995 0.66264 0.0
H886 H 0.46592 0.44409 0.63531 0.0
H887 H 0.68168 0.81613 0.73018 0.0
H888 H 0.51181 0.01658 0.58131 0.0
H889 H 0.52623 0.0287 0.62059 0.0
H890 H 0.65376 0.12829 0.60128 0.0
H891 H 0.6397 0.11506 0.56184 0.0
H892 H 0.65179 0.0835 0.63968 0.0
H893 H 0.57603 0.15108 0.61115 0.0
H894 H 0.51807 0.15447 0.5921 0.0
H895 H 0.42805 0.06327 0.64236 0.0
H896 H 0.48525 0.0584 0.6614 0.0
H897 H 0.67878 0.19413 0.73883 0.0
H898 H 0.67286 0.17544 0.69982 0.0
H899 H 0.55346 0.06192 0.71834 0.0
H900 H 0.5603 0.08015 0.75738 0.0
H901 H 0.5536 0.11546 0.68039 0.0
H902 H 0.62947 0.047 0.70816 0.0
H903 H 0.68751 0.04356 0.72711 0.0
H904 H 0.77802 0.13971 0.67876 0.0
H905 H 0.72051 0.14387 0.65958 0.0
C906 C 0.54311 0.04065 0.58548 0.0
C907 C 0.57457 0.0653 0.56862 0.0
C908 C 0.55127 0.04764 0.6079 0.0
C909 C 0.59074 0.08009 0.61381 0.0
C910 C 0.62299 0.10327 0.59706 0.0
C911 C 0.61496 0.09581 0.57457 0.0
C912 C 0.59719 0.0913 0.63728 0.0
C913 C 0.63066 0.09103 0.64849 0.0
C914 C 0.56929 0.10066 0.64886 0.0
C915 C 0.53492 0.1041 0.63761 0.0
C916 C 0.54385 0.13152 0.61807 0.0
C917 C 0.51114 0.13373 0.60727 0.0
C918 C 0.46945 0.10914 0.61603 0.0
C919 C 0.46037 0.08228 0.6356 0.0
C920 C 0.49291 0.07975 0.64639 0.0
C921 C 0.65169 0.16505 0.73441 0.0
C922 C 0.61999 0.13837 0.75071 0.0
C923 C 0.64832 0.15436 0.71232 0.0
C924 C 0.61283 0.1172 0.70634 0.0
C925 C 0.58116 0.09054 0.72273 0.0
C926 C 0.58499 0.10084 0.74487 0.0
C927 C 0.60776 0.10713 0.68276 0.0
C928 C 0.57468 0.10792 0.67153 0.0
C929 C 0.63613 0.0986 0.67118 0.0
C930 C 0.67075 0.09606 0.68259 0.0
C931 C 0.66179 0.06766 0.7017 0.0
C932 C 0.69456 0.06553 0.71245 0.0
C933 C 0.73642 0.09157 0.70422 0.0
C934 C 0.74558 0.11962 0.68514 0.0
C935 C 0.7129 0.12182 0.67429 0.0
H936 H 0.76175 0.08989 0.71258 0.0
H937 H 0.44419 0.11093 0.60765 0.0
H938 H 0.66497 0.65152 0.9035 0.0
H939 H 0.66696 0.62382 0.94151 0.0
H940 H 0.53136 0.54105 0.94361 0.0
H941 H 0.52962 0.56766 0.90521 0.0
H942 H 0.63761 0.63235 0.97744 0.0
H943 H 0.49765 0.45747 0.98024 0.0
H944 H 0.4693 0.3959 0.95782 0.0
H945 H 0.58981 0.44878 0.92209 0.0
H946 H 0.61902 0.51067 0.9444 0.0
H947 H 0.52537 0.55483 0.08054 0.0
H948 H 0.55693 0.58067 0.04255 0.0
H949 H 0.59481 0.4859 0.04425 0.0
H950 H 0.56128 0.45903 0.08217 0.0
H951 H 0.55579 0.48207 0.00853 0.0
H952 H 0.6689 0.59417 0.04081 0.0
H953 H 0.70535 0.65166 0.06554 0.0
H954 H 0.65322 0.72164 0.03186 0.0
H955 H 0.61578 0.66424 0.00718 0.0
C956 C 0.63566 0.62704 0.91202 0.0
C957 C 0.59706 0.61197 0.90158 0.0
C958 C 0.63684 0.61119 0.93372 0.0
C959 C 0.5994 0.58016 0.94549 0.0
C960 C 0.56086 0.56432 0.9348 0.0
C961 C 0.55976 0.57981 0.91293 0.0
C962 C 0.60001 0.56741 0.96954 0.0
C963 C 0.62004 0.59942 0.98419 0.0
C964 C 0.57838 0.52446 0.97842 0.0
C965 C 0.56045 0.48878 0.96395 0.0
C966 C 0.51809 0.45603 0.96757 0.0
C967 C 0.50188 0.42107 0.9549 0.0
C968 C 0.52778 0.41837 0.93864 0.0
C969 C 0.56982 0.45093 0.93475 0.0
C970 C 0.58616 0.48608 0.94732 0.0
C971 C 0.54107 0.54012 0.07281 0.0
C972 C 0.54054 0.50472 0.08385 0.0
C973 C 0.55948 0.55507 0.05124 0.0
C974 C 0.5785 0.53539 0.04051 0.0
C975 C 0.58027 0.50154 0.05217 0.0
C976 C 0.56143 0.48634 0.07377 0.0
C977 C 0.59163 0.54705 0.01636 0.0
C978 C 0.57411 0.51492 0.00171 0.0
C979 C 0.61666 0.58978 0.00747 0.0
C980 C 0.63937 0.62472 0.02216 0.0
C981 C 0.66497 0.62168 0.03875 0.0
C982 C 0.68583 0.65428 0.05277 0.0
C983 C 0.68159 0.69027 0.05028 0.0
C984 C 0.6565 0.69375 0.03375 0.0
C985 C 0.63549 0.6612 0.01972 0.0
H986 H 0.69777 0.71548 0.06115 0.0
H987 H 0.51519 0.39098 0.92909 0.0
H988 H 0.98009 0.54602 0.22858 0.0
H989 H 0.96391 0.55905 0.26589 0.0
H990 H 1.00966 0.47938 0.29571 0.0
H991 H 0.02441 0.46525 0.25845 0.0
H992 H 0.94103 0.46785 0.31938 0.0
H993 H 0.07328 0.58632 0.2878 0.0
H994 H 0.11787 0.64364 0.25875 0.0
H995 H 0.04197 0.70154 0.26742 0.0
H996 H 0.99648 0.64413 0.29627 0.0
H997 H 0.03108 0.5566 0.42 0.0
H998 H 1.01276 0.52887 0.3833 0.0
H999 H 0.95587 0.60619 0.36869 0.0
H1000 H 0.973 0.63282 0.40592 0.0
H1001 H 0.01813 0.6183 0.33673 0.0
H1002 H 0.89365 0.5044 0.37387 0.0
H1003 H 0.85215 0.44752 0.40365 0.0
H1004 H 0.91584 0.38121 0.38565 0.0
H1005 H 0.95843 0.43816 0.356 0.0
C1006 C 0.98589 0.53075 0.24309 0.0
C1007 C 1.00349 0.50476 0.24067 0.0
C1008 C 0.97683 0.5383 0.26439 0.0
C1009 C 0.98595 0.52048 0.28358 0.0
C1010 C 1.00223 0.49334 0.28115 0.0
C1011 C 1.01097 0.48558 0.25987 0.0
C1012 C 0.98195 0.53268 0.30612 0.0
C1013 C 0.95791 0.5007 0.32322 0.0
C1014 C 1.00332 0.57566 0.31098 0.0
C1015 C 0.0312 0.61069 0.294 0.0
C1016 C 0.06596 0.61115 0.28342 0.0
C1017 C 0.0914 0.64365 0.26699 0.0
C1018 C 0.08268 0.67614 0.2612 0.0
C1019 C 0.04862 0.6763 0.27189 0.0
C1020 C 0.023 0.6438 0.28828 0.0
C1021 C 1.01329 0.56639 0.40926 0.0
C1022 C 1.00313 0.59653 0.41568 0.0
C1023 C 1.00307 0.5508 0.38829 0.0
C1024 C 0.98288 0.56545 0.37335 0.0
C1025 C 0.9714 0.59451 0.38003 0.0
C1026 C 0.98116 0.60967 0.40117 0.0
C1027 C 0.97777 0.55344 0.35007 0.0
C1028 C 1.00038 0.5855 0.33282 0.0
C1029 C 0.95544 0.51056 0.34519 0.0
C1030 C 0.92947 0.47577 0.36277 0.0
C1031 C 0.89908 0.47787 0.37635 0.0
C1032 C 0.87533 0.4456 0.3932 0.0
C1033 C 0.8814 0.41082 0.39654 0.0
C1034 C 0.9112 0.4082 0.38302 0.0
C1035 C 0.93513 0.44046 0.36617 0.0
H1036 H 0.86292 0.38589 0.40957 0.0
H1037 H 0.10238 0.70123 0.24845 0.0
loop_
_geom_bond_atom_site_label_1
_geom_bond_atom_site_label_2
_geom_bond_distance
_geom_bond_site_symmetry_2
_ccdc_geom_bond_type
Dy0 O4 2.398 . S
Dy0 O5 2.491 . S
Dy0 O6 2.403 . S
Dy0 O7 2.664 1_455 S
Dy0 O11 2.326 . S
Dy0 O15 2.310 . S
Dy0 O16 2.351 1_455 S
C1 O12 1.185 . S
C1 O13 1.355 . S
C2 O4 1.185 . S
C2 O5 1.355 . S
Dy3 O7 2.310 . S
Dy3 O10 2.351 1_655 S
Dy3 O12 2.398 . S
Dy3 O13 2.491 . S
Dy3 O14 2.403 . S
Dy3 O15 2.664 1_655 S
Dy3 O17 2.326 . S
O4 Dy0 2.398 . S
O4 C2 1.185 . S
O5 Dy0 2.491 . S
O5 C2 1.355 . S
O6 Dy0 2.403 . S
O6 C8 1.254 . S
O7 Dy0 2.664 1_655 S
O7 Dy3 2.310 . S
O7 C8 1.268 1_655 S
C8 O6 1.254 . S
C8 O7 1.268 1_455 S
C9 O14 1.254 1_455 S
C9 O15 1.268 . S
O10 Dy3 2.351 1_455 S
O10 C18 1.249 . S
O11 Dy0 2.326 . S
O11 C18 1.267 . S
O12 C1 1.185 . S
O12 Dy3 2.398 . S
O13 C1 1.355 . S
O13 Dy3 2.491 . S
O14 Dy3 2.403 . S
O14 C9 1.254 1_655 S
O15 Dy0 2.310 . S
O15 Dy3 2.664 1_455 S
O15 C9 1.268 . S
O16 Dy0 2.351 1_655 S
O16 C19 1.249 . S
O17 Dy3 2.326 . S
O17 C19 1.267 . S
C18 O10 1.249 . S
C18 O11 1.267 . S
C19 O16 1.249 . S
C19 O17 1.267 . S
Dy20 O24 2.398 1_545 S
Dy20 O25 2.491 1_545 S
Dy20 O26 2.403 . S
Dy20 O27 2.664 . S
Dy20 O31 2.326 1_545 S
Dy20 O35 2.310 . S
Dy20 O36 2.351 . S
C21 O32 1.185 . S
C21 O33 1.355 . S
C22 O24 1.185 . S
C22 O25 1.355 . S
Dy23 O27 2.310 . S
Dy23 O30 2.351 . S
Dy23 O32 2.398 . S
Dy23 O33 2.491 . S
Dy23 O34 2.403 . S
Dy23 O35 2.664 . S
Dy23 O37 2.326 . S
O24 Dy20 2.398 1_565 S
O24 C22 1.185 . S
O25 Dy20 2.491 1_565 S
O25 C22 1.355 . S
O26 Dy20 2.403 . S
O26 C28 1.254 . S
O27 Dy20 2.664 . S
O27 Dy23 2.310 . S
O27 C28 1.268 . S
C28 O26 1.254 . S
C28 O27 1.268 . S
C29 O34 1.254 . S
C29 O35 1.268 . S
O30 Dy23 2.351 . S
O30 C38 1.249 1_545 S
O31 Dy20 2.326 1_565 S
O31 C38 1.267 . S
O32 C21 1.185 . S
O32 Dy23 2.398 . S
O33 C21 1.355 . S
O33 Dy23 2.491 . S
O34 Dy23 2.403 . S
O34 C29 1.254 . S
O35 Dy20 2.310 . S
O35 Dy23 2.664 . S
O35 C29 1.268 . S
O36 Dy20 2.351 . S
O36 C39 1.249 . S
O37 Dy23 2.326 . S
O37 C39 1.267 . S
C38 O30 1.249 1_565 S
C38 O31 1.267 . S
C39 O36 1.249 . S
C39 O37 1.267 . S
Dy40 O44 2.398 . S
Dy40 O45 2.491 . S
Dy40 O46 2.403 . S
Dy40 O47 2.664 . S
Dy40 O51 2.326 . S
Dy40 O55 2.310 . S
Dy40 O56 2.351 . S
C41 O52 1.185 . S
C41 O53 1.355 . S
C42 O44 1.185 . S
C42 O45 1.355 . S
Dy43 O47 2.310 . S
Dy43 O50 2.351 . S
Dy43 O52 2.398 . S
Dy43 O53 2.491 . S
Dy43 O54 2.403 . S
Dy43 O55 2.664 . S
Dy43 O57 2.326 . S
O44 Dy40 2.398 . S
O44 C42 1.185 . S
O45 Dy40 2.491 . S
O45 C42 1.355 . S
O46 Dy40 2.403 . S
O46 C48 1.254 . S
O47 Dy40 2.664 . S
O47 Dy43 2.310 . S
O47 C48 1.268 . S
C48 O46 1.254 . S
C48 O47 1.268 . S
C49 O54 1.254 . S
C49 O55 1.268 . S
O50 Dy43 2.351 . S
O50 C58 1.249 . S
O51 Dy40 2.326 . S
O51 C58 1.267 . S
O52 C41 1.185 . S
O52 Dy43 2.398 . S
O53 C41 1.355 . S
O53 Dy43 2.491 . S
O54 Dy43 2.403 . S
O54 C49 1.254 . S
O55 Dy40 2.310 . S
O55 Dy43 2.664 . S
O55 C49 1.268 . S
O56 Dy40 2.351 . S
O56 C59 1.249 . S
O57 Dy43 2.326 . S
O57 C59 1.267 . S
C58 O50 1.249 . S
C58 O51 1.267 . S
C59 O56 1.249 . S
C59 O57 1.267 . S
C60 N61 1.317 . S
C60 N62 1.348 1_545 S
C60 C63 1.485 . S
N61 C60 1.317 . S
N61 N65 1.370 . S
N62 C60 1.348 1_565 S
N62 C64 1.346 . S
C63 C60 1.485 . S
C63 H67 0.960 . S
C63 H68 0.961 1_545 S
C63 H69 0.960 . S
C64 N62 1.346 . S
C64 N65 1.307 1_565 S
C64 C66 1.486 . S
N65 N61 1.370 . S
N65 C64 1.307 1_545 S
C66 C64 1.486 . S
C66 H70 0.960 . S
C66 H71 0.960 . S
C66 H72 0.959 . S
H67 C63 0.960 . S
H68 C63 0.961 1_565 S
H69 C63 0.960 . S
H70 C66 0.960 . S
H71 C66 0.960 . S
H72 C66 0.959 . S
C73 N74 1.317 . S
C73 N75 1.348 . S
C73 C76 1.485 . S
N74 C73 1.317 . S
N74 N78 1.370 . S
N75 C73 1.348 . S
N75 C77 1.346 . S
C76 C73 1.485 . S
C76 H80 0.960 . S
C76 H81 0.961 . S
C76 H82 0.960 . S
C77 N75 1.346 . S
C77 N78 1.307 . S
C77 C79 1.486 . S
N78 N74 1.370 . S
N78 C77 1.307 . S
C79 C77 1.486 . S
C79 H83 0.960 . S
C79 H84 0.960 . S
C79 H85 0.959 . S
H80 C76 0.960 . S
H81 C76 0.961 . S
H82 C76 0.960 . S
H83 C79 0.960 . S
H84 C79 0.960 . S
H85 C79 0.959 . S
C86 N87 1.317 . S
C86 N88 1.348 . S
C86 C89 1.485 . S
N87 C86 1.317 . S
N87 N91 1.370 . S
N88 C86 1.348 . S
N88 C90 1.346 . S
C89 C86 1.485 . S
C89 H93 0.960 . S
C89 H94 0.961 . S
C89 H95 0.960 . S
C90 N88 1.346 . S
C90 N91 1.307 . S
C90 C92 1.486 1_455 S
N91 N87 1.370 . S
N91 C90 1.307 . S
C92 C90 1.486 1_655 S
C92 H96 0.960 . S
C92 H97 0.960 . S
C92 H98 0.959 . S
H93 C89 0.960 . S
H94 C89 0.961 . S
H95 C89 0.960 . S
H96 C92 0.960 . S
H97 C92 0.960 . S
H98 C92 0.959 . S
C99 N100 1.317 . S
C99 N101 1.348 . S
C99 C102 1.485 . S
N100 C99 1.317 . S
N100 N104 1.370 . S
N101 C99 1.348 . S
N101 C103 1.346 . S
C102 C99 1.485 . S
C102 H106 0.960 . S
C102 H107 0.961 . S
C102 H108 0.960 . S
C103 N101 1.346 . S
C103 N104 1.307 . S
C103 C105 1.486 . S
N104 N100 1.370 . S
N104 C103 1.307 . S
C105 C103 1.486 . S
C105 H109 0.960 . S
C105 H110 0.960 . S
C105 H111 0.959 . S
H106 C102 0.960 . S
H107 C102 0.961 . S
H108 C102 0.960 . S
H109 C105 0.960 . S
H110 C105 0.960 . S
H111 C105 0.959 . S
C112 N113 1.317 . S
C112 N114 1.348 . S
C112 C115 1.485 . S
N113 C112 1.317 . S
N113 N117 1.370 . S
N114 C112 1.348 . S
N114 C116 1.346 . S
C115 C112 1.485 . S
C115 H119 0.960 . S
C115 H120 0.961 . S
C115 H121 0.960 . S
C116 N114 1.346 . S
C116 N117 1.307 . S
C116 C118 1.486 . S
N117 N113 1.370 . S
N117 C116 1.307 . S
C118 C116 1.486 . S
C118 H122 0.960 . S
C118 H123 0.960 . S
C118 H124 0.959 . S
H119 C115 0.960 . S
H120 C115 0.961 . S
H121 C115 0.960 . S
H122 C118 0.960 . S
H123 C118 0.960 . S
H124 C118 0.959 . S
C125 N126 1.317 . S
C125 N127 1.348 . S
C125 C128 1.485 . S
N126 C125 1.317 . S
N126 N130 1.370 . S
N127 C125 1.348 . S
N127 C129 1.346 . S
C128 C125 1.485 . S
C128 H132 0.960 . S
C128 H133 0.961 . S
C128 H134 0.960 . S
C129 N127 1.346 . S
C129 N130 1.307 . S
C129 C131 1.486 . S
N130 N126 1.370 . S
N130 C129 1.307 . S
C131 C129 1.486 . S
C131 H135 0.960 . S
C131 H136 0.960 . S
C131 H137 0.959 . S
H132 C128 0.960 . S
H133 C128 0.961 . S
H134 C128 0.960 . S
H135 C131 0.960 . S
H136 C131 0.960 . S
H137 C131 0.959 . S
H138 C156 0.951 . S
H139 C158 0.951 . S
H140 C160 0.950 . S
H141 C161 0.950 . S
H142 C163 0.950 . S
H143 C166 0.950 . S
H144 C167 0.950 . S
H145 C169 0.950 . S
H146 C170 0.950 . S
H147 C171 0.951 . S
H148 C173 0.951 . S
H149 C175 0.950 . S
H150 C176 0.950 . S
H151 C178 0.950 . S
H152 C181 0.950 . S
H153 C182 0.950 . S
H154 C184 0.950 . S
H155 C185 0.950 . S
C156 H138 0.951 . S
C156 C157 1.366 . S
C156 C158 1.388 . S
C157 C156 1.366 . S
C157 C161 1.385 . S
C158 H139 0.951 . S
C158 C156 1.388 . S
C158 C159 1.366 . S
C159 C158 1.366 . S
C159 C160 1.414 . S
C159 C162 1.499 . S
C160 H140 0.950 . S
C160 C159 1.414 . S
C160 C161 1.374 . S
C161 H141 0.950 . S
C161 C157 1.385 . S
C161 C160 1.374 . S
C162 C159 1.499 . S
C162 C163 1.373 . S
C162 C164 1.389 . S
C163 H142 0.950 . S
C163 C162 1.373 . S
C163 C179 1.377 . S
C164 C162 1.389 . S
C164 C165 1.524 . S
C164 C178 1.377 . S
C165 C164 1.524 . S
C165 C166 1.397 . S
C165 C170 1.363 . S
C166 H143 0.950 . S
C166 C165 1.397 . S
C166 C167 1.334 . S
C167 H144 0.950 . S
C167 C166 1.334 . S
C167 C168 1.287 . S
C168 C167 1.287 . S
C168 C169 1.524 . S
C168 H187 0.913 . S
C169 H145 0.950 . S
C169 C168 1.524 . S
C169 C170 1.415 . S
C170 H146 0.950 . S
C170 C165 1.363 . S
C170 C169 1.415 . S
C171 H147 0.951 . S
C171 C172 1.366 . S
C171 C173 1.388 . S
C172 C171 1.366 . S
C172 C176 1.385 . S
C173 H148 0.951 . S
C173 C171 1.388 . S
C173 C174 1.366 . S
C174 C173 1.366 . S
C174 C175 1.414 . S
C174 C177 1.499 . S
C175 H149 0.950 . S
C175 C174 1.414 . S
C175 C176 1.374 . S
C176 H150 0.950 . S
C176 C172 1.385 . S
C176 C175 1.374 . S
C177 C174 1.499 . S
C177 C178 1.373 . S
C177 C179 1.389 . S
C178 H151 0.950 . S
C178 C164 1.377 . S
C178 C177 1.373 . S
C179 C163 1.377 . S
C179 C177 1.389 . S
C179 C180 1.524 . S
C180 C179 1.524 . S
C180 C181 1.397 . S
C180 C185 1.363 . S
C181 H152 0.950 . S
C181 C180 1.397 . S
C181 C182 1.334 . S
C182 H153 0.950 . S
C182 C181 1.334 . S
C182 C183 1.287 . S
C183 C182 1.287 . S
C183 C184 1.524 . S
C183 H186 0.999 . S
C184 H154 0.950 . S
C184 C183 1.524 . S
C184 C185 1.415 . S
C185 H155 0.950 . S
C185 C180 1.363 . S
C185 C184 1.415 . S
H186 C183 0.999 . S
H187 C168 0.913 . S
H188 C206 0.951 . S
H189 C208 0.951 . S
H190 C210 0.950 . S
H191 C211 0.950 . S
H192 C213 0.950 . S
H193 C216 0.950 . S
H194 C217 0.950 . S
H195 C219 0.950 . S
H196 C220 0.950 . S
H197 C221 0.951 1_455 S
H198 C223 0.951 . S
H199 C225 0.950 . S
H200 C226 0.950 . S
H201 C228 0.950 . S
H202 C231 0.950 . S
H203 C232 0.950 . S
H204 C234 0.950 . S
H205 C235 0.950 . S
C206 H188 0.951 . S
C206 C207 1.366 . S
C206 C208 1.388 . S
C207 C206 1.366 . S
C207 C211 1.385 . S
C208 H189 0.951 . S
C208 C206 1.388 . S
C208 C209 1.366 . S
C209 C208 1.366 . S
C209 C210 1.414 . S
C209 C212 1.499 . S
C210 H190 0.950 . S
C210 C209 1.414 . S
C210 C211 1.374 . S
C211 H191 0.950 . S
C211 C207 1.385 . S
C211 C210 1.374 . S
C212 C209 1.499 . S
C212 C213 1.373 . S
C212 C214 1.389 . S
C213 H192 0.950 . S
C213 C212 1.373 . S
C213 C229 1.377 . S
C214 C212 1.389 . S
C214 C215 1.524 . S
C214 C228 1.377 . S
C215 C214 1.524 . S
C215 C216 1.397 . S
C215 C220 1.363 . S
C216 H193 0.950 . S
C216 C215 1.397 . S
C216 C217 1.334 . S
C217 H194 0.950 . S
C217 C216 1.334 . S
C217 C218 1.287 . S
C218 C217 1.287 . S
C218 C219 1.524 . S
C218 H237 0.913 . S
C219 H195 0.950 . S
C219 C218 1.524 . S
C219 C220 1.415 . S
C220 H196 0.950 . S
C220 C215 1.363 . S
C220 C219 1.415 . S
C221 H197 0.951 1_655 S
C221 C222 1.366 . S
C221 C223 1.388 . S
C222 C221 1.366 . S
C222 C226 1.385 . S
C223 H198 0.951 . S
C223 C221 1.388 . S
C223 C224 1.366 . S
C224 C223 1.366 . S
C224 C225 1.414 . S
C224 C227 1.499 . S
C225 H199 0.950 . S
C225 C224 1.414 . S
C225 C226 1.374 . S
C226 H200 0.950 . S
C226 C222 1.385 . S
C226 C225 1.374 . S
C227 C224 1.499 . S
C227 C228 1.373 . S
C227 C229 1.389 . S
C228 H201 0.950 . S
C228 C214 1.377 . S
C228 C227 1.373 . S
C229 C213 1.377 . S
C229 C227 1.389 . S
C229 C230 1.524 . S
C230 C229 1.524 . S
C230 C231 1.397 . S
C230 C235 1.363 . S
C231 H202 0.950 . S
C231 C230 1.397 . S
C231 C232 1.334 . S
C232 H203 0.950 . S
C232 C231 1.334 . S
C232 C233 1.287 . S
C233 C232 1.287 . S
C233 C234 1.524 . S
C233 H236 0.999 . S
C234 H204 0.950 . S
C234 C233 1.524 . S
C234 C235 1.415 . S
C235 H205 0.950 . S
C235 C230 1.363 . S
C235 C234 1.415 . S
H236 C233 0.999 . S
H237 C218 0.913 . S
H238 C256 0.951 . S
H239 C258 0.951 . S
H240 C260 0.950 . S
H241 C261 0.950 . S
H242 C263 0.950 . S
H243 C266 0.950 . S
H244 C267 0.950 . S
H245 C269 0.950 . S
H246 C270 0.950 . S
H247 C271 0.951 . S
H248 C273 0.943 1_565 S
H249 C275 0.950 . S
H250 C276 0.950 . S
H251 C278 0.950 . S
H252 C281 0.950 . S
H253 C282 0.950 . S
H254 C284 0.950 . S
H255 C285 0.950 . S
C256 H238 0.951 . S
C256 C257 1.366 . S
C256 C258 1.388 . S
C257 C256 1.366 . S
C257 C261 1.385 . S
C258 H239 0.951 . S
C258 C256 1.388 . S
C258 C259 1.366 . S
C259 C258 1.366 . S
C259 C260 1.414 . S
C259 C262 1.499 . S
C260 H240 0.950 . S
C260 C259 1.414 . S
C260 C261 1.374 . S
C261 H241 0.950 . S
C261 C257 1.385 . S
C261 C260 1.374 . S
C262 C259 1.499 . S
C262 C263 1.373 . S
C262 C264 1.389 . S
C263 H242 0.950 . S
C263 C262 1.373 . S
C263 C279 1.377 . S
C264 C262 1.389 . S
C264 C265 1.524 . S
C264 C278 1.377 . S
C265 C264 1.524 . S
C265 C266 1.397 . S
C265 C270 1.363 . S
C266 H243 0.950 . S
C266 C265 1.397 . S
C266 C267 1.334 . S
C267 H244 0.950 . S
C267 C266 1.334 . S
C267 C268 1.287 . S
C268 C267 1.287 . S
C268 C269 1.524 . S
C268 H287 0.913 . S
C269 H245 0.950 . S
C269 C268 1.524 . S
C269 C270 1.415 . S
C270 H246 0.950 . S
C270 C265 1.363 . S
C270 C269 1.415 . S
C271 H247 0.951 . S
C271 C272 1.366 . S
C271 C273 1.406 . S
C272 C271 1.366 . S
C272 C276 1.385 . S
C273 H248 0.943 1_545 S
C273 C271 1.406 . S
C273 C274 1.355 1_545 S
C274 C273 1.355 1_565 S
C274 C275 1.414 1_565 S
C274 C277 1.499 . S
C275 H249 0.950 . S
C275 C274 1.414 1_545 S
C275 C276 1.374 . S
C276 H250 0.950 . S
C276 C272 1.385 . S
C276 C275 1.374 . S
C277 C274 1.499 . S
C277 C278 1.373 . S
C277 C279 1.389 . S
C278 H251 0.950 . S
C278 C264 1.377 . S
C278 C277 1.373 . S
C279 C263 1.377 . S
C279 C277 1.389 . S
C279 C280 1.524 . S
C280 C279 1.524 . S
C280 C281 1.397 . S
C280 C285 1.363 . S
C281 H252 0.950 . S
C281 C280 1.397 . S
C281 C282 1.334 . S
C282 H253 0.950 . S
C282 C281 1.334 . S
C282 C283 1.287 . S
C283 C282 1.287 . S
C283 C284 1.524 . S
C283 H286 0.999 . S
C284 H254 0.950 . S
C284 C283 1.524 . S
C284 C285 1.415 . S
C285 H255 0.950 . S
C285 C280 1.363 . S
C285 C284 1.415 . S
H286 C283 0.999 . S
H287 C268 0.913 . S
H288 C306 0.951 . S
H289 C308 0.951 . S
H290 C310 0.950 . S
H291 C311 0.950 . S
H292 C313 0.950 . S
H293 C316 0.950 . S
H294 C317 0.950 . S
H295 C319 0.950 . S
H296 C320 0.950 . S
H297 C321 0.951 . S
H298 C323 0.951 . S
H299 C325 0.950 . S
H300 C326 0.950 . S
H301 C328 0.950 . S
H302 C331 0.950 . S
H303 C332 0.950 . S
H304 C334 0.950 . S
H305 C335 0.950 . S
C306 H288 0.951 . S
C306 C307 1.366 . S
C306 C308 1.388 . S
C307 C306 1.366 . S
C307 C311 1.385 . S
C308 H289 0.951 . S
C308 C306 1.388 . S
C308 C309 1.366 . S
C309 C308 1.366 . S
C309 C310 1.414 . S
C309 C312 1.499 . S
C310 H290 0.950 . S
C310 C309 1.414 . S
C310 C311 1.374 . S
C311 H291 0.950 . S
C311 C307 1.385 . S
C311 C310 1.374 . S
C312 C309 1.499 . S
C312 C313 1.373 . S
C312 C314 1.389 . S
C313 H292 0.950 . S
C313 C312 1.373 . S
C313 C329 1.377 . S
C314 C312 1.389 . S
C314 C315 1.524 . S
C314 C328 1.377 . S
C315 C314 1.524 . S
C315 C316 1.397 . S
C315 C320 1.363 . S
C316 H293 0.950 . S
C316 C315 1.397 . S
C316 C317 1.334 . S
C317 H294 0.950 . S
C317 C316 1.334 . S
C317 C318 1.287 . S
C318 C317 1.287 . S
C318 C319 1.524 . S
C318 H337 0.913 . S
C319 H295 0.950 . S
C319 C318 1.524 . S
C319 C320 1.415 . S
C320 H296 0.950 . S
C320 C315 1.363 . S
C320 C319 1.415 . S
C321 H297 0.951 . S
C321 C322 1.366 . S
C321 C323 1.388 . S
C322 C321 1.366 . S
C322 C326 1.385 . S
C323 H298 0.951 . S
C323 C321 1.388 . S
C323 C324 1.366 . S
C324 C323 1.366 . S
C324 C325 1.414 . S
C324 C327 1.499 . S
C325 H299 0.950 . S
C325 C324 1.414 . S
C325 C326 1.374 . S
C326 H300 0.950 . S
C326 C322 1.385 . S
C326 C325 1.374 . S
C327 C324 1.499 . S
C327 C328 1.373 . S
C327 C329 1.389 . S
C328 H301 0.950 . S
C328 C314 1.377 . S
C328 C327 1.373 . S
C329 C313 1.377 . S
C329 C327 1.389 . S
C329 C330 1.524 . S
C330 C329 1.524 . S
C330 C331 1.397 . S
C330 C335 1.363 . S
C331 H302 0.950 . S
C331 C330 1.397 . S
C331 C332 1.334 . S
C332 H303 0.950 . S
C332 C331 1.334 . S
C332 C333 1.287 . S
C333 C332 1.287 . S
C333 C334 1.524 . S
C333 H336 0.999 . S
C334 H304 0.950 . S
C334 C333 1.524 . S
C334 C335 1.415 . S
C335 H305 0.950 . S
C335 C330 1.363 . S
C335 C334 1.415 . S
H336 C333 0.999 . S
H337 C318 0.913 . S
H338 C356 0.951 . S
H339 C358 0.951 . S
H340 C360 0.950 . S
H341 C361 0.950 . S
H342 C363 0.950 . S
H343 C366 0.950 . S
H344 C367 0.950 . S
H345 C369 0.950 . S
H346 C370 0.950 . S
H347 C371 0.951 . S
H348 C373 0.951 . S
H349 C375 0.950 . S
H350 C376 0.950 . S
H351 C378 0.950 . S
H352 C381 0.950 . S
H353 C382 0.950 . S
H354 C384 0.950 . S
H355 C385 0.950 . S
C356 H338 0.951 . S
C356 C357 1.366 . S
C356 C358 1.388 . S
C357 C356 1.366 . S
C357 C361 1.385 . S
C358 H339 0.951 . S
C358 C356 1.388 . S
C358 C359 1.366 . S
C359 C358 1.366 . S
C359 C360 1.414 . S
C359 C362 1.499 . S
C360 H340 0.950 . S
C360 C359 1.414 . S
C360 C361 1.374 . S
C361 H341 0.950 . S
C361 C357 1.385 . S
C361 C360 1.374 . S
C362 C359 1.499 . S
C362 C363 1.373 . S
C362 C364 1.389 . S
C363 H342 0.950 . S
C363 C362 1.373 . S
C363 C379 1.377 . S
C364 C362 1.389 . S
C364 C365 1.524 . S
C364 C378 1.377 . S
C365 C364 1.524 . S
C365 C366 1.397 . S
C365 C370 1.363 . S
C366 H343 0.950 . S
C366 C365 1.397 . S
C366 C367 1.334 . S
C367 H344 0.950 . S
C367 C366 1.334 . S
C367 C368 1.287 . S
C368 C367 1.287 . S
C368 C369 1.524 . S
C368 H387 0.913 . S
C369 H345 0.950 . S
C369 C368 1.524 . S
C369 C370 1.415 . S
C370 H346 0.950 . S
C370 C365 1.363 . S
C370 C369 1.415 . S
C371 H347 0.951 . S
C371 C372 1.366 . S
C371 C373 1.388 . S
C372 C371 1.366 . S
C372 C376 1.385 . S
C373 H348 0.951 . S
C373 C371 1.388 . S
C373 C374 1.366 . S
C374 C373 1.366 . S
C374 C375 1.414 . S
C374 C377 1.499 . S
C375 H349 0.950 . S
C375 C374 1.414 . S
C375 C376 1.374 . S
C376 H350 0.950 . S
C376 C372 1.385 . S
C376 C375 1.374 . S
C377 C374 1.499 . S
C377 C378 1.373 . S
C377 C379 1.389 . S
C378 H351 0.950 . S
C378 C364 1.377 . S
C378 C377 1.373 . S
C379 C363 1.377 . S
C379 C377 1.389 . S
C379 C380 1.524 . S
C380 C379 1.524 . S
C380 C381 1.397 . S
C380 C385 1.363 . S
C381 H352 0.950 . S
C381 C380 1.397 . S
C381 C382 1.334 . S
C382 H353 0.950 . S
C382 C381 1.334 . S
C382 C383 1.287 . S
C383 C382 1.287 . S
C383 C384 1.524 . S
C383 H386 0.999 . S
C384 H354 0.950 . S
C384 C383 1.524 . S
C384 C385 1.415 . S
C385 H355 0.950 . S
C385 C380 1.363 . S
C385 C384 1.415 . S
H386 C383 0.999 . S
H387 C368 0.913 . S
H388 C406 0.951 . S
H389 C408 0.951 . S
H390 C410 0.950 . S
H391 C411 0.950 . S
H392 C413 0.950 . S
H393 C416 0.950 . S
H394 C417 0.950 . S
H395 C419 0.950 . S
H396 C420 0.950 . S
H397 C421 0.951 . S
H398 C423 0.951 . S
H399 C425 0.950 . S
H400 C426 0.950 . S
H401 C428 0.950 . S
H402 C431 0.950 . S
H403 C432 0.950 . S
H404 C434 0.950 . S
H405 C435 0.950 . S
C406 H388 0.951 . S
C406 C407 1.366 . S
C406 C408 1.388 . S
C407 C406 1.366 . S
C407 C411 1.385 . S
C408 H389 0.951 . S
C408 C406 1.388 . S
C408 C409 1.366 . S
C409 C408 1.366 . S
C409 C410 1.414 . S
C409 C412 1.499 . S
C410 H390 0.950 . S
C410 C409 1.414 . S
C410 C411 1.374 . S
C411 H391 0.950 . S
C411 C407 1.385 . S
C411 C410 1.374 . S
C412 C409 1.499 . S
C412 C413 1.373 . S
C412 C414 1.389 . S
C413 H392 0.950 . S
C413 C412 1.373 . S
C413 C429 1.377 . S
C414 C412 1.389 . S
C414 C415 1.524 . S
C414 C428 1.377 . S
C415 C414 1.524 . S
C415 C416 1.397 . S
C415 C420 1.363 . S
C416 H393 0.950 . S
C416 C415 1.397 . S
C416 C417 1.334 . S
C417 H394 0.950 . S
C417 C416 1.334 . S
C417 C418 1.287 . S
C418 C417 1.287 . S
C418 C419 1.524 . S
C418 H437 0.913 . S
C419 H395 0.950 . S
C419 C418 1.524 . S
C419 C420 1.415 . S
C420 H396 0.950 . S
C420 C415 1.363 . S
C420 C419 1.415 . S
C421 H397 0.951 . S
C421 C422 1.366 . S
C421 C423 1.388 . S
C422 C421 1.366 . S
C422 C426 1.385 . S
C423 H398 0.951 . S
C423 C421 1.388 . S
C423 C424 1.366 . S
C424 C423 1.366 . S
C424 C425 1.414 . S
C424 C427 1.499 . S
C425 H399 0.950 . S
C425 C424 1.414 . S
C425 C426 1.374 . S
C426 H400 0.950 . S
C426 C422 1.385 . S
C426 C425 1.374 . S
C427 C424 1.499 . S
C427 C428 1.373 . S
C427 C429 1.389 . S
C428 H401 0.950 . S
C428 C414 1.377 . S
C428 C427 1.373 . S
C429 C413 1.377 . S
C429 C427 1.389 . S
C429 C430 1.524 . S
C430 C429 1.524 . S
C430 C431 1.397 . S
C430 C435 1.363 . S
C431 H402 0.950 . S
C431 C430 1.397 . S
C431 C432 1.334 . S
C432 H403 0.950 . S
C432 C431 1.334 . S
C432 C433 1.287 . S
C433 C432 1.287 . S
C433 C434 1.524 . S
C433 H436 0.999 . S
C434 H404 0.950 . S
C434 C433 1.524 . S
C434 C435 1.415 . S
C435 H405 0.950 . S
C435 C430 1.363 . S
C435 C434 1.415 . S
H436 C433 0.999 . S
H437 C418 0.913 . S
H438 C456 0.951 . S
H439 C458 0.951 . S
H440 C460 0.950 . S
H441 C461 0.950 . S
H442 C463 0.950 . S
H443 C466 0.950 . S
H444 C467 0.950 . S
H445 C469 0.950 . S
H446 C470 0.950 . S
H447 C471 0.951 . S
H448 C473 0.951 . S
H449 C475 0.950 . S
H450 C476 0.950 . S
H451 C478 0.950 . S
H452 C481 0.950 . S
H453 C482 0.950 . S
H454 C484 0.950 . S
H455 C485 0.950 . S
C456 H438 0.951 . S
C456 C457 1.366 . S
C456 C458 1.388 . S
C457 C456 1.366 . S
C457 C461 1.385 . S
C458 H439 0.951 . S
C458 C456 1.388 . S
C458 C459 1.366 . S
C459 C458 1.366 . S
C459 C460 1.414 . S
C459 C462 1.499 . S
C460 H440 0.950 . S
C460 C459 1.414 . S
C460 C461 1.374 . S
C461 H441 0.950 . S
C461 C457 1.385 . S
C461 C460 1.374 . S
C462 C459 1.499 . S
C462 C463 1.373 . S
C462 C464 1.389 . S
C463 H442 0.950 . S
C463 C462 1.373 . S
C463 C479 1.377 . S
C464 C462 1.389 . S
C464 C465 1.524 . S
C464 C478 1.377 . S
C465 C464 1.524 . S
C465 C466 1.397 . S
C465 C470 1.363 . S
C466 H443 0.950 . S
C466 C465 1.397 . S
C466 C467 1.334 . S
C467 H444 0.950 . S
C467 C466 1.334 . S
C467 C468 1.287 . S
C468 C467 1.287 . S
C468 C469 1.524 . S
C468 H487 0.913 . S
C469 H445 0.950 . S
C469 C468 1.524 . S
C469 C470 1.415 . S
C470 H446 0.950 . S
C470 C465 1.363 . S
C470 C469 1.415 . S
C471 H447 0.951 . S
C471 C472 1.366 . S
C471 C473 1.388 . S
C472 C471 1.366 . S
C472 C476 1.385 . S
C473 H448 0.951 . S
C473 C471 1.388 . S
C473 C474 1.366 . S
C474 C473 1.366 . S
C474 C475 1.414 . S
C474 C477 1.499 . S
C475 H449 0.950 . S
C475 C474 1.414 . S
C475 C476 1.374 . S
C476 H450 0.950 . S
C476 C472 1.385 . S
C476 C475 1.374 . S
C477 C474 1.499 . S
C477 C478 1.373 . S
C477 C479 1.389 . S
C478 H451 0.950 . S
C478 C464 1.377 . S
C478 C477 1.373 . S
C479 C463 1.377 . S
C479 C477 1.389 . S
C479 C480 1.524 . S
C480 C479 1.524 . S
C480 C481 1.397 . S
C480 C485 1.363 . S
C481 H452 0.950 . S
C481 C480 1.397 . S
C481 C482 1.334 . S
C482 H453 0.950 . S
C482 C481 1.334 . S
C482 C483 1.287 . S
C483 C482 1.287 . S
C483 C484 1.524 . S
C483 H486 0.999 . S
C484 H454 0.950 . S
C484 C483 1.524 . S
C484 C485 1.415 . S
C485 H455 0.950 . S
C485 C480 1.363 . S
C485 C484 1.415 . S
H486 C483 0.999 . S
H487 C468 0.913 . S
H488 C506 0.951 . S
H489 C508 0.951 . S
H490 C510 0.950 . S
H491 C511 0.950 . S
H492 C513 0.950 . S
H493 C516 0.950 . S
H494 C517 0.950 . S
H495 C519 0.950 . S
H496 C520 0.950 . S
H497 C521 0.951 . S
H498 C523 0.951 . S
H499 C525 0.950 . S
H500 C526 0.950 1_455 S
H501 C528 0.950 . S
H502 C531 0.950 . S
H503 C532 0.950 . S
H504 C534 0.950 . S
H505 C535 0.950 . S
C506 H488 0.951 . S
C506 C507 1.366 . S
C506 C508 1.388 . S
C507 C506 1.366 . S
C507 C511 1.385 . S
C508 H489 0.951 . S
C508 C506 1.388 . S
C508 C509 1.366 . S
C509 C508 1.366 . S
C509 C510 1.414 . S
C509 C512 1.499 . S
C510 H490 0.950 . S
C510 C509 1.414 . S
C510 C511 1.374 . S
C511 H491 0.950 . S
C511 C507 1.385 . S
C511 C510 1.374 . S
C512 C509 1.499 . S
C512 C513 1.373 . S
C512 C514 1.389 . S
C513 H492 0.950 . S
C513 C512 1.373 . S
C513 C529 1.377 . S
C514 C512 1.389 . S
C514 C515 1.524 . S
C514 C528 1.377 . S
C515 C514 1.524 . S
C515 C516 1.397 . S
C515 C520 1.363 . S
C516 H493 0.950 . S
C516 C515 1.397 . S
C516 C517 1.334 . S
C517 H494 0.950 . S
C517 C516 1.334 . S
C517 C518 1.287 . S
C518 C517 1.287 . S
C518 C519 1.524 . S
C518 H537 0.913 . S
C519 H495 0.950 . S
C519 C518 1.524 . S
C519 C520 1.415 . S
C520 H496 0.950 . S
C520 C515 1.363 . S
C520 C519 1.415 . S
C521 H497 0.951 . S
C521 C522 1.366 . S
C521 C523 1.388 . S
C522 C521 1.366 . S
C522 C526 1.385 . S
C523 H498 0.951 . S
C523 C521 1.388 . S
C523 C524 1.366 . S
C524 C523 1.366 . S
C524 C525 1.414 . S
C524 C527 1.499 . S
C525 H499 0.950 . S
C525 C524 1.414 . S
C525 C526 1.374 . S
C526 H500 0.950 1_655 S
C526 C522 1.385 . S
C526 C525 1.374 . S
C527 C524 1.499 . S
C527 C528 1.373 . S
C527 C529 1.389 . S
C528 H501 0.950 . S
C528 C514 1.377 . S
C528 C527 1.373 . S
C529 C513 1.377 . S
C529 C527 1.389 . S
C529 C530 1.524 . S
C530 C529 1.524 . S
C530 C531 1.397 . S
C530 C535 1.363 . S
C531 H502 0.950 . S
C531 C530 1.397 . S
C531 C532 1.334 . S
C532 H503 0.950 . S
C532 C531 1.334 . S
C532 C533 1.287 . S
C533 C532 1.287 . S
C533 C534 1.524 . S
C533 H536 0.999 . S
C534 H504 0.950 . S
C534 C533 1.524 . S
C534 C535 1.415 . S
C535 H505 0.950 . S
C535 C530 1.363 . S
C535 C534 1.415 . S
H536 C533 0.999 . S
H537 C518 0.913 . S
H538 C556 0.951 . S
H539 C558 0.951 . S
H540 C560 0.950 . S
H541 C561 0.950 . S
H542 C563 0.950 . S
H543 C566 0.950 . S
H544 C567 0.950 . S
H545 C569 0.950 . S
H546 C570 0.950 . S
H547 C571 0.951 . S
H548 C573 0.951 . S
H549 C575 0.950 . S
H550 C576 0.950 . S
H551 C578 0.950 . S
H552 C581 0.950 . S
H553 C582 0.950 . S
H554 C584 0.950 . S
H555 C585 0.950 . S
C556 H538 0.951 . S
C556 C557 1.366 . S
C556 C558 1.388 . S
C557 C556 1.366 . S
C557 C561 1.385 . S
C558 H539 0.951 . S
C558 C556 1.388 . S
C558 C559 1.366 . S
C559 C558 1.366 . S
C559 C560 1.414 . S
C559 C562 1.499 . S
C560 H540 0.950 . S
C560 C559 1.414 . S
C560 C561 1.374 . S
C561 H541 0.950 . S
C561 C557 1.385 . S
C561 C560 1.374 . S
C562 C559 1.499 . S
C562 C563 1.373 . S
C562 C564 1.389 . S
C563 H542 0.950 . S
C563 C562 1.373 . S
C563 C579 1.377 . S
C564 C562 1.389 . S
C564 C565 1.524 . S
C564 C578 1.377 . S
C565 C564 1.524 . S
C565 C566 1.397 . S
C565 C570 1.363 . S
C566 H543 0.950 . S
C566 C565 1.397 . S
C566 C567 1.334 . S
C567 H544 0.950 . S
C567 C566 1.334 . S
C567 C568 1.287 . S
C568 C567 1.287 . S
C568 C569 1.524 . S
C568 H587 0.913 . S
C569 H545 0.950 . S
C569 C568 1.524 . S
C569 C570 1.415 . S
C570 H546 0.950 . S
C570 C565 1.363 . S
C570 C569 1.415 . S
C571 H547 0.951 . S
C571 C572 1.366 . S
C571 C573 1.388 . S
C572 C571 1.366 . S
C572 C576 1.385 . S
C573 H548 0.951 . S
C573 C571 1.388 . S
C573 C574 1.366 . S
C574 C573 1.366 . S
C574 C575 1.414 . S
C574 C577 1.499 . S
C575 H549 0.950 . S
C575 C574 1.414 . S
C575 C576 1.374 . S
C576 H550 0.950 . S
C576 C572 1.385 . S
C576 C575 1.374 . S
C577 C574 1.499 . S
C577 C578 1.373 . S
C577 C579 1.389 . S
C578 H551 0.950 . S
C578 C564 1.377 . S
C578 C577 1.373 . S
C579 C563 1.377 . S
C579 C577 1.389 . S
C579 C580 1.524 . S
C580 C579 1.524 . S
C580 C581 1.397 . S
C580 C585 1.363 . S
C581 H552 0.950 . S
C581 C580 1.397 . S
C581 C582 1.334 . S
C582 H553 0.950 . S
C582 C581 1.334 . S
C582 C583 1.287 . S
C583 C582 1.287 . S
C583 C584 1.524 . S
C583 H586 0.999 . S
C584 H554 0.950 . S
C584 C583 1.524 . S
C584 C585 1.415 . S
C585 H555 0.950 . S
C585 C580 1.363 . S
C585 C584 1.415 . S
H586 C583 0.999 . S
H587 C568 0.913 . S
H588 C606 0.951 . S
H589 C608 0.951 . S
H590 C610 0.950 . S
H591 C611 0.950 . S
H592 C613 0.950 . S
H593 C616 0.950 . S
H594 C617 0.950 . S
H595 C619 0.950 . S
H596 C620 0.950 . S
H597 C621 0.951 . S
H598 C623 0.951 . S
H599 C625 0.950 . S
H600 C626 0.950 . S
H601 C628 0.950 . S
H602 C631 0.950 . S
H603 C632 0.950 . S
H604 C634 0.950 . S
H605 C635 0.950 . S
C606 H588 0.951 . S
C606 C607 1.366 . S
C606 C608 1.388 . S
C607 C606 1.366 . S
C607 C611 1.385 . S
C608 H589 0.951 . S
C608 C606 1.388 . S
C608 C609 1.366 . S
C609 C608 1.366 . S
C609 C610 1.414 . S
C609 C612 1.499 . S
C610 H590 0.950 . S
C610 C609 1.414 . S
C610 C611 1.374 . S
C611 H591 0.950 . S
C611 C607 1.385 . S
C611 C610 1.374 . S
C612 C609 1.499 . S
C612 C613 1.373 . S
C612 C614 1.389 . S
C613 H592 0.950 . S
C613 C612 1.373 . S
C613 C629 1.377 . S
C614 C612 1.389 . S
C614 C615 1.524 . S
C614 C628 1.377 . S
C615 C614 1.524 . S
C615 C616 1.397 . S
C615 C620 1.363 . S
C616 H593 0.950 . S
C616 C615 1.397 . S
C616 C617 1.334 . S
C617 H594 0.950 . S
C617 C616 1.334 . S
C617 C618 1.287 . S
C618 C617 1.287 . S
C618 C619 1.524 . S
C618 H637 0.913 . S
C619 H595 0.950 . S
C619 C618 1.524 . S
C619 C620 1.415 . S
C620 H596 0.950 . S
C620 C615 1.363 . S
C620 C619 1.415 . S
C621 H597 0.951 . S
C621 C622 1.366 . S
C621 C623 1.388 . S
C622 C621 1.366 . S
C622 C626 1.385 . S
C623 H598 0.951 . S
C623 C621 1.388 . S
C623 C624 1.366 . S
C624 C623 1.366 . S
C624 C625 1.414 . S
C624 C627 1.499 . S
C625 H599 0.950 . S
C625 C624 1.414 . S
C625 C626 1.374 . S
C626 H600 0.950 . S
C626 C622 1.385 . S
C626 C625 1.374 . S
C627 C624 1.499 . S
C627 C628 1.373 . S
C627 C629 1.389 . S
C628 H601 0.950 . S
C628 C614 1.377 . S
C628 C627 1.373 . S
C629 C613 1.377 . S
C629 C627 1.389 . S
C629 C630 1.524 . S
C630 C629 1.524 . S
C630 C631 1.397 . S
C630 C635 1.363 . S
C631 H602 0.950 . S
C631 C630 1.397 . S
C631 C632 1.334 . S
C632 H603 0.950 . S
C632 C631 1.334 . S
C632 C633 1.287 . S
C633 C632 1.287 . S
C633 C634 1.524 . S
C633 H636 0.999 . S
C634 H604 0.950 . S
C634 C633 1.524 . S
C634 C635 1.415 . S
C635 H605 0.950 . S
C635 C630 1.363 . S
C635 C634 1.415 . S
H636 C633 0.999 . S
H637 C618 0.913 . S
H638 C656 0.951 . S
H639 C658 0.951 . S
H640 C660 0.950 . S
H641 C661 0.950 . S
H642 C663 0.950 . S
H643 C666 0.950 . S
H644 C667 0.950 . S
H645 C669 0.950 . S
H646 C670 0.950 . S
H647 C671 0.951 . S
H648 C673 0.951 . S
H649 C675 0.950 . S
H650 C676 0.950 . S
H651 C678 0.950 . S
H652 C681 0.950 . S
H653 C682 0.950 . S
H654 C684 0.950 . S
H655 C685 0.950 . S
C656 H638 0.951 . S
C656 C657 1.366 . S
C656 C658 1.388 . S
C657 C656 1.366 . S
C657 C661 1.385 . S
C658 H639 0.951 . S
C658 C656 1.388 . S
C658 C659 1.366 . S
C659 C658 1.366 . S
C659 C660 1.414 . S
C659 C662 1.499 . S
C660 H640 0.950 . S
C660 C659 1.414 . S
C660 C661 1.374 . S
C661 H641 0.950 . S
C661 C657 1.385 . S
C661 C660 1.374 . S
C662 C659 1.499 . S
C662 C663 1.373 . S
C662 C664 1.389 . S
C663 H642 0.950 . S
C663 C662 1.373 . S
C663 C679 1.377 . S
C664 C662 1.389 . S
C664 C665 1.524 . S
C664 C678 1.377 . S
C665 C664 1.524 . S
C665 C666 1.397 . S
C665 C670 1.363 . S
C666 H643 0.950 . S
C666 C665 1.397 . S
C666 C667 1.334 . S
C667 H644 0.950 . S
C667 C666 1.334 . S
C667 C668 1.287 . S
C668 C667 1.287 . S
C668 C669 1.524 . S
C668 H687 0.913 . S
C669 H645 0.950 . S
C669 C668 1.524 . S
C669 C670 1.415 . S
C670 H646 0.950 . S
C670 C665 1.363 . S
C670 C669 1.415 . S
C671 H647 0.951 . S
C671 C672 1.366 . S
C671 C673 1.388 . S
C672 C671 1.366 . S
C672 C676 1.385 . S
C673 H648 0.951 . S
C673 C671 1.388 . S
C673 C674 1.366 . S
C674 C673 1.366 . S
C674 C675 1.414 . S
C674 C677 1.499 . S
C675 H649 0.950 . S
C675 C674 1.414 . S
C675 C676 1.374 . S
C676 H650 0.950 . S
C676 C672 1.385 . S
C676 C675 1.374 . S
C677 C674 1.499 . S
C677 C678 1.373 . S
C677 C679 1.389 . S
C678 H651 0.950 . S
C678 C664 1.377 . S
C678 C677 1.373 . S
C679 C663 1.377 . S
C679 C677 1.389 . S
C679 C680 1.524 . S
C680 C679 1.524 . S
C680 C681 1.397 . S
C680 C685 1.363 . S
C681 H652 0.950 . S
C681 C680 1.397 . S
C681 C682 1.334 . S
C682 H653 0.950 . S
C682 C681 1.334 . S
C682 C683 1.287 . S
C683 C682 1.287 . S
C683 C684 1.524 . S
C683 H686 0.999 . S
C684 H654 0.950 . S
C684 C683 1.524 . S
C684 C685 1.415 . S
C685 H655 0.950 . S
C685 C680 1.363 . S
C685 C684 1.415 . S
H686 C683 0.999 . S
H687 C668 0.913 . S
H688 C706 0.951 . S
H689 C708 0.951 . S
H690 C710 0.950 . S
H691 C711 0.950 . S
H692 C713 0.950 . S
H693 C716 0.950 . S
H694 C717 0.950 . S
H695 C719 0.950 . S
H696 C720 0.950 . S
H697 C721 0.951 . S
H698 C723 0.951 . S
H699 C725 0.950 . S
H700 C726 0.950 . S
H701 C728 0.950 . S
H702 C731 0.950 . S
H703 C732 0.950 . S
H704 C734 0.950 . S
H705 C735 0.950 . S
C706 H688 0.951 . S
C706 C707 1.366 . S
C706 C708 1.388 . S
C707 C706 1.366 . S
C707 C711 1.385 . S
C708 H689 0.951 . S
C708 C706 1.388 . S
C708 C709 1.366 . S
C709 C708 1.366 . S
C709 C710 1.414 . S
C709 C712 1.499 . S
C710 H690 0.950 . S
C710 C709 1.414 . S
C710 C711 1.374 . S
C711 H691 0.950 . S
C711 C707 1.385 . S
C711 C710 1.374 . S
C712 C709 1.499 . S
C712 C713 1.373 . S
C712 C714 1.389 . S
C713 H692 0.950 . S
C713 C712 1.373 . S
C713 C729 1.377 . S
C714 C712 1.389 . S
C714 C715 1.524 . S
C714 C728 1.377 . S
C715 C714 1.524 . S
C715 C716 1.397 . S
C715 C720 1.363 . S
C716 H693 0.950 . S
C716 C715 1.397 . S
C716 C717 1.334 . S
C717 H694 0.950 . S
C717 C716 1.334 . S
C717 C718 1.287 . S
C718 C717 1.287 . S
C718 C719 1.524 . S
C718 H737 0.913 . S
C719 H695 0.950 . S
C719 C718 1.524 . S
C719 C720 1.415 . S
C720 H696 0.950 . S
C720 C715 1.363 . S
C720 C719 1.415 . S
C721 H697 0.951 . S
C721 C722 1.366 . S
C721 C723 1.388 . S
C722 C721 1.366 . S
C722 C726 1.385 . S
C723 H698 0.951 . S
C723 C721 1.388 . S
C723 C724 1.366 . S
C724 C723 1.366 . S
C724 C725 1.414 . S
C724 C727 1.499 . S
C725 H699 0.950 . S
C725 C724 1.414 . S
C725 C726 1.374 . S
C726 H700 0.950 . S
C726 C722 1.385 . S
C726 C725 1.374 . S
C727 C724 1.499 . S
C727 C728 1.373 . S
C727 C729 1.389 . S
C728 H701 0.950 . S
C728 C714 1.377 . S
C728 C727 1.373 . S
C729 C713 1.377 . S
C729 C727 1.389 . S
C729 C730 1.524 . S
C730 C729 1.524 . S
C730 C731 1.397 . S
C730 C735 1.363 . S
C731 H702 0.950 . S
C731 C730 1.397 . S
C731 C732 1.334 . S
C732 H703 0.950 . S
C732 C731 1.334 . S
C732 C733 1.287 . S
C733 C732 1.287 . S
C733 C734 1.524 . S
C733 H736 0.999 . S
C734 H704 0.950 . S
C734 C733 1.524 . S
C734 C735 1.415 . S
C735 H705 0.950 . S
C735 C730 1.363 . S
C735 C734 1.415 . S
H736 C733 0.999 . S
H737 C718 0.913 . S
H738 C756 0.951 . S
H739 C758 0.951 . S
H740 C760 0.950 1_655 S
H741 C761 0.950 1_655 S
H742 C763 0.950 . S
H743 C766 0.950 . S
H744 C767 0.950 . S
H745 C769 0.950 . S
H746 C770 0.950 . S
H747 C771 0.951 . S
H748 C773 0.951 . S
H749 C775 0.950 . S
H750 C776 0.950 . S
H751 C778 0.950 1_556 S
H752 C781 0.950 . S
H753 C782 0.950 . S
H754 C784 0.950 . S
H755 C785 0.938 1_554 S
C756 H738 0.951 . S
C756 C757 1.366 . S
C756 C758 1.388 . S
C757 C756 1.366 . S
C757 C761 1.385 . S
C758 H739 0.951 . S
C758 C756 1.388 . S
C758 C759 1.366 . S
C759 C758 1.366 . S
C759 C760 1.414 . S
C759 C762 1.499 . S
C760 H740 0.950 1_455 S
C760 C759 1.414 . S
C760 C761 1.374 . S
C761 H741 0.950 1_455 S
C761 C757 1.385 . S
C761 C760 1.374 . S
C762 C759 1.499 . S
C762 C763 1.373 . S
C762 C764 1.389 . S
C763 H742 0.950 . S
C763 C762 1.373 . S
C763 C779 1.371 . S
C764 C762 1.389 . S
C764 C765 1.524 . S
C764 C778 1.377 . S
C765 C764 1.524 . S
C765 C766 1.397 1_455 S
C765 C770 1.363 . S
C766 H743 0.950 . S
C766 C765 1.397 1_655 S
C766 C767 1.334 . S
C767 H744 0.950 . S
C767 C766 1.334 . S
C767 C768 1.287 . S
C768 C767 1.287 . S
C768 C769 1.524 1_655 S
C768 H787 0.913 . S
C769 H745 0.950 . S
C769 C768 1.524 1_455 S
C769 C770 1.415 . S
C770 H746 0.950 . S
C770 C765 1.363 . S
C770 C769 1.415 . S
C771 H747 0.951 . S
C771 C772 1.366 . S
C771 C773 1.388 . S
C772 C771 1.366 . S
C772 C776 1.385 . S
C773 H748 0.951 . S
C773 C771 1.388 . S
C773 C774 1.366 . S
C774 C773 1.366 . S
C774 C775 1.414 . S
C774 C777 1.499 . S
C775 H749 0.950 . S
C775 C774 1.414 . S
C775 C776 1.374 . S
C776 H750 0.950 . S
C776 C772 1.385 . S
C776 C775 1.374 . S
C777 C774 1.499 . S
C777 C778 1.373 1_556 S
C777 C779 1.392 1_556 S
C778 H751 0.950 1_554 S
C778 C764 1.377 . S
C778 C777 1.373 1_554 S
C779 C763 1.371 . S
C779 C777 1.392 1_554 S
C779 C780 1.527 1_554 S
C780 C779 1.527 1_556 S
C780 C781 1.397 . S
C780 C785 1.363 . S
C781 H752 0.950 . S
C781 C780 1.397 . S
C781 C782 1.334 . S
C782 H753 0.950 . S
C782 C781 1.334 . S
C782 C783 1.287 . S
C783 C782 1.287 . S
C783 C784 1.524 . S
C783 H786 0.999 . S
C784 H754 0.950 . S
C784 C783 1.524 . S
C784 C785 1.415 . S
C785 H755 0.938 1_556 S
C785 C780 1.363 . S
C785 C784 1.415 . S
H786 C783 0.999 . S
H787 C768 0.913 . S
H788 C806 0.951 . S
H789 C808 0.951 . S
H790 C810 0.950 . S
H791 C811 0.950 . S
H792 C813 0.950 1_565 S
H793 C816 0.950 . S
H794 C817 0.950 . S
H795 C819 0.950 . S
H796 C820 0.950 . S
H797 C821 0.951 1_565 S
H798 C823 0.951 1_565 S
H799 C825 0.950 . S
H800 C826 0.950 . S
H801 C828 0.950 . S
H802 C831 0.950 . S
H803 C832 0.950 . S
H804 C834 0.950 . S
H805 C835 0.950 . S
C806 H788 0.951 . S
C806 C807 1.366 . S
C806 C808 1.388 . S
C807 C806 1.366 . S
C807 C811 1.385 . S
C808 H789 0.951 . S
C808 C806 1.388 . S
C808 C809 1.366 . S
C809 C808 1.366 . S
C809 C810 1.414 . S
C809 C812 1.499 . S
C810 H790 0.950 . S
C810 C809 1.414 . S
C810 C811 1.374 . S
C811 H791 0.950 . S
C811 C807 1.385 . S
C811 C810 1.374 . S
C812 C809 1.499 . S
C812 C813 1.373 . S
C812 C814 1.389 . S
C813 H792 0.950 1_545 S
C813 C812 1.373 . S
C813 C829 1.377 . S
C814 C812 1.389 . S
C814 C815 1.524 . S
C814 C828 1.377 . S
C815 C814 1.524 . S
C815 C816 1.397 . S
C815 C820 1.363 . S
C816 H793 0.950 . S
C816 C815 1.397 . S
C816 C817 1.334 . S
C817 H794 0.950 . S
C817 C816 1.334 . S
C817 C818 1.287 . S
C818 C817 1.287 . S
C818 C819 1.524 . S
C818 H837 0.913 . S
C819 H795 0.950 . S
C819 C818 1.524 . S
C819 C820 1.415 . S
C820 H796 0.950 . S
C820 C815 1.363 . S
C820 C819 1.415 . S
C821 H797 0.951 1_545 S
C821 C822 1.366 . S
C821 C823 1.388 . S
C822 C821 1.366 . S
C822 C826 1.385 . S
C823 H798 0.951 1_545 S
C823 C821 1.388 . S
C823 C824 1.366 . S
C824 C823 1.366 . S
C824 C825 1.414 . S
C824 C827 1.499 . S
C825 H799 0.950 . S
C825 C824 1.414 . S
C825 C826 1.374 . S
C826 H800 0.950 . S
C826 C822 1.385 . S
C826 C825 1.374 . S
C827 C824 1.499 . S
C827 C828 1.373 . S
C827 C829 1.389 . S
C828 H801 0.950 . S
C828 C814 1.377 . S
C828 C827 1.373 . S
C829 C813 1.377 . S
C829 C827 1.389 . S
C829 C830 1.524 1_545 S
C830 C829 1.524 1_565 S
C830 C831 1.397 . S
C830 C835 1.363 . S
C831 H802 0.950 . S
C831 C830 1.397 . S
C831 C832 1.334 . S
C832 H803 0.950 . S
C832 C831 1.334 . S
C832 C833 1.287 . S
C833 C832 1.287 . S
C833 C834 1.524 . S
C833 H836 0.999 . S
C834 H804 0.950 . S
C834 C833 1.524 . S
C834 C835 1.415 . S
C835 H805 0.950 . S
C835 C830 1.363 . S
C835 C834 1.415 . S
H836 C833 0.999 . S
H837 C818 0.913 . S
H838 C856 0.951 . S
H839 C858 0.951 . S
H840 C860 0.950 . S
H841 C861 0.950 . S
H842 C863 0.950 . S
H843 C866 0.950 . S
H844 C867 0.950 . S
H845 C869 0.950 . S
H846 C870 0.950 . S
H847 C871 0.951 . S
H848 C873 0.951 . S
H849 C875 0.950 . S
H850 C876 0.950 . S
H851 C878 0.950 . S
H852 C881 0.950 . S
H853 C882 0.950 . S
H854 C884 0.950 . S
H855 C885 0.950 . S
C856 H838 0.951 . S
C856 C857 1.366 . S
C856 C858 1.388 . S
C857 C856 1.366 . S
C857 C861 1.385 . S
C858 H839 0.951 . S
C858 C856 1.388 . S
C858 C859 1.366 . S
C859 C858 1.366 . S
C859 C860 1.414 . S
C859 C862 1.499 . S
C860 H840 0.950 . S
C860 C859 1.414 . S
C860 C861 1.374 . S
C861 H841 0.950 . S
C861 C857 1.385 . S
C861 C860 1.374 . S
C862 C859 1.499 . S
C862 C863 1.373 . S
C862 C864 1.389 . S
C863 H842 0.950 . S
C863 C862 1.373 . S
C863 C879 1.377 . S
C864 C862 1.389 . S
C864 C865 1.524 . S
C864 C878 1.377 . S
C865 C864 1.524 . S
C865 C866 1.397 . S
C865 C870 1.363 . S
C866 H843 0.950 . S
C866 C865 1.397 . S
C866 C867 1.334 . S
C867 H844 0.950 . S
C867 C866 1.334 . S
C867 C868 1.287 . S
C868 C867 1.287 . S
C868 C869 1.524 . S
C868 H887 0.913 . S
C869 H845 0.950 . S
C869 C868 1.524 . S
C869 C870 1.415 . S
C870 H846 0.950 . S
C870 C865 1.363 . S
C870 C869 1.415 . S
C871 H847 0.951 . S
C871 C872 1.366 . S
C871 C873 1.388 . S
C872 C871 1.366 . S
C872 C876 1.385 . S
C873 H848 0.951 . S
C873 C871 1.388 . S
C873 C874 1.366 . S
C874 C873 1.366 . S
C874 C875 1.414 . S
C874 C877 1.499 . S
C875 H849 0.950 . S
C875 C874 1.414 . S
C875 C876 1.374 . S
C876 H850 0.950 . S
C876 C872 1.385 . S
C876 C875 1.374 . S
C877 C874 1.499 . S
C877 C878 1.373 . S
C877 C879 1.389 . S
C878 H851 0.950 . S
C878 C864 1.377 . S
C878 C877 1.373 . S
C879 C863 1.377 . S
C879 C877 1.389 . S
C879 C880 1.524 . S
C880 C879 1.524 . S
C880 C881 1.397 . S
C880 C885 1.363 . S
C881 H852 0.950 . S
C881 C880 1.397 . S
C881 C882 1.334 . S
C882 H853 0.950 . S
C882 C881 1.334 . S
C882 C883 1.287 . S
C883 C882 1.287 . S
C883 C884 1.524 . S
C883 H886 0.999 . S
C884 H854 0.950 . S
C884 C883 1.524 . S
C884 C885 1.415 . S
C885 H855 0.950 . S
C885 C880 1.363 . S
C885 C884 1.415 . S
H886 C883 0.999 . S
H887 C868 0.913 . S
H888 C906 0.951 . S
H889 C908 0.951 . S
H890 C910 0.950 . S
H891 C911 0.950 . S
H892 C913 0.950 . S
H893 C916 0.950 . S
H894 C917 0.950 . S
H895 C919 0.950 . S
H896 C920 0.950 . S
H897 C921 0.951 . S
H898 C923 0.951 . S
H899 C925 0.950 . S
H900 C926 0.950 . S
H901 C928 0.950 . S
H902 C931 0.950 . S
H903 C932 0.950 . S
H904 C934 0.950 . S
H905 C935 0.950 . S
C906 H888 0.951 . S
C906 C907 1.366 . S
C906 C908 1.388 . S
C907 C906 1.366 . S
C907 C911 1.385 . S
C908 H889 0.951 . S
C908 C906 1.388 . S
C908 C909 1.366 . S
C909 C908 1.366 . S
C909 C910 1.414 . S
C909 C912 1.499 . S
C910 H890 0.950 . S
C910 C909 1.414 . S
C910 C911 1.374 . S
C911 H891 0.950 . S
C911 C907 1.385 . S
C911 C910 1.374 . S
C912 C909 1.499 . S
C912 C913 1.373 . S
C912 C914 1.389 . S
C913 H892 0.950 . S
C913 C912 1.373 . S
C913 C929 1.377 . S
C914 C912 1.389 . S
C914 C915 1.524 . S
C914 C928 1.377 . S
C915 C914 1.524 . S
C915 C916 1.397 . S
C915 C920 1.363 . S
C916 H893 0.950 . S
C916 C915 1.397 . S
C916 C917 1.334 . S
C917 H894 0.950 . S
C917 C916 1.334 . S
C917 C918 1.287 . S
C918 C917 1.287 . S
C918 C919 1.524 . S
C918 H937 0.913 . S
C919 H895 0.950 . S
C919 C918 1.524 . S
C919 C920 1.415 . S
C920 H896 0.950 . S
C920 C915 1.363 . S
C920 C919 1.415 . S
C921 H897 0.951 . S
C921 C922 1.366 . S
C921 C923 1.388 . S
C922 C921 1.366 . S
C922 C926 1.385 . S
C923 H898 0.951 . S
C923 C921 1.388 . S
C923 C924 1.366 . S
C924 C923 1.366 . S
C924 C925 1.414 . S
C924 C927 1.499 . S
C925 H899 0.950 . S
C925 C924 1.414 . S
C925 C926 1.374 . S
C926 H900 0.950 . S
C926 C922 1.385 . S
C926 C925 1.374 . S
C927 C924 1.499 . S
C927 C928 1.373 . S
C927 C929 1.389 . S
C928 H901 0.950 . S
C928 C914 1.377 . S
C928 C927 1.373 . S
C929 C913 1.377 . S
C929 C927 1.389 . S
C929 C930 1.524 . S
C930 C929 1.524 . S
C930 C931 1.397 . S
C930 C935 1.363 . S
C931 H902 0.950 . S
C931 C930 1.397 . S
C931 C932 1.334 . S
C932 H903 0.950 . S
C932 C931 1.334 . S
C932 C933 1.287 . S
C933 C932 1.287 . S
C933 C934 1.524 . S
C933 H936 0.999 . S
C934 H904 0.950 . S
C934 C933 1.524 . S
C934 C935 1.415 . S
C935 H905 0.950 . S
C935 C930 1.363 . S
C935 C934 1.415 . S
H936 C933 0.999 . S
H937 C918 0.913 . S
H938 C956 0.951 . S
H939 C958 0.951 . S
H940 C960 0.950 . S
H941 C961 0.950 . S
H942 C963 0.950 . S
H943 C966 0.950 . S
H944 C967 0.950 . S
H945 C969 0.950 . S
H946 C970 0.950 . S
H947 C971 0.951 . S
H948 C973 0.951 . S
H949 C975 0.950 . S
H950 C976 0.950 . S
H951 C978 0.950 . S
H952 C981 0.950 . S
H953 C982 0.950 . S
H954 C984 0.950 . S
H955 C985 0.950 . S
C956 H938 0.951 . S
C956 C957 1.366 . S
C956 C958 1.388 . S
C957 C956 1.366 . S
C957 C961 1.385 . S
C958 H939 0.951 . S
C958 C956 1.388 . S
C958 C959 1.366 . S
C959 C958 1.366 . S
C959 C960 1.414 . S
C959 C962 1.499 . S
C960 H940 0.950 . S
C960 C959 1.414 . S
C960 C961 1.374 . S
C961 H941 0.950 . S
C961 C957 1.385 . S
C961 C960 1.374 . S
C962 C959 1.499 . S
C962 C963 1.373 . S
C962 C964 1.389 . S
C963 H942 0.950 . S
C963 C962 1.373 . S
C963 C979 1.377 1_556 S
C964 C962 1.389 . S
C964 C965 1.524 . S
C964 C978 1.377 1_556 S
C965 C964 1.524 . S
C965 C966 1.397 . S
C965 C970 1.363 . S
C966 H943 0.950 . S
C966 C965 1.397 . S
C966 C967 1.334 . S
C967 H944 0.950 . S
C967 C966 1.334 . S
C967 C968 1.287 . S
C968 C967 1.287 . S
C968 C969 1.524 . S
C968 H987 0.913 . S
C969 H945 0.950 . S
C969 C968 1.524 . S
C969 C970 1.415 . S
C970 H946 0.950 . S
C970 C965 1.363 . S
C970 C969 1.415 . S
C971 H947 0.951 . S
C971 C972 1.366 . S
C971 C973 1.388 . S
C972 C971 1.366 . S
C972 C976 1.385 . S
C973 H948 0.951 . S
C973 C971 1.388 . S
C973 C974 1.366 . S
C974 C973 1.366 . S
C974 C975 1.414 . S
C974 C977 1.499 . S
C975 H949 0.950 . S
C975 C974 1.414 . S
C975 C976 1.374 . S
C976 H950 0.950 . S
C976 C972 1.385 . S
C976 C975 1.374 . S
C977 C974 1.499 . S
C977 C978 1.373 . S
C977 C979 1.389 . S
C978 H951 0.950 . S
C978 C964 1.377 1_554 S
C978 C977 1.373 . S
C979 C963 1.377 1_554 S
C979 C977 1.389 . S
C979 C980 1.524 . S
C980 C979 1.524 . S
C980 C981 1.397 . S
C980 C985 1.363 . S
C981 H952 0.950 . S
C981 C980 1.397 . S
C981 C982 1.334 . S
C982 H953 0.950 . S
C982 C981 1.334 . S
C982 C983 1.287 . S
C983 C982 1.287 . S
C983 C984 1.524 . S
C983 H986 0.999 . S
C984 H954 0.950 . S
C984 C983 1.524 . S
C984 C985 1.415 . S
C985 H955 0.950 . S
C985 C980 1.363 . S
C985 C984 1.415 . S
H986 C983 0.999 . S
H987 C968 0.913 . S
H988 C1006 0.951 1_655 S
H989 C1008 0.951 . S
H990 C1010 0.950 . S
H991 C1011 0.950 . S
H992 C1013 0.950 . S
H993 C1016 0.950 . S
H994 C1017 0.950 . S
H995 C1019 0.950 . S
H996 C1020 0.950 . S
H997 C1021 0.951 . S
H998 C1023 0.951 . S
H999 C1025 0.950 . S
H1000 C1026 0.950 . S
H1001 C1028 0.950 . S
H1002 C1031 0.950 . S
H1003 C1032 0.950 . S
H1004 C1034 0.950 . S
H1005 C1035 0.950 . S
C1006 H988 0.951 1_455 S
C1006 C1007 1.366 . S
C1006 C1008 1.388 . S
C1007 C1006 1.366 . S
C1007 C1011 1.385 . S
C1008 H989 0.951 . S
C1008 C1006 1.388 . S
C1008 C1009 1.366 . S
C1009 C1008 1.366 . S
C1009 C1010 1.414 . S
C1009 C1012 1.499 . S
C1010 H990 0.950 . S
C1010 C1009 1.414 . S
C1010 C1011 1.374 . S
C1011 H991 0.950 . S
C1011 C1007 1.385 . S
C1011 C1010 1.374 . S
C1012 C1009 1.499 . S
C1012 C1013 1.373 1_455 S
C1012 C1014 1.389 . S
C1013 H992 0.950 . S
C1013 C1012 1.373 1_655 S
C1013 C1029 1.377 . S
C1014 C1012 1.389 . S
C1014 C1015 1.524 . S
C1014 C1028 1.377 . S
C1015 C1014 1.524 . S
C1015 C1016 1.397 . S
C1015 C1020 1.363 . S
C1016 H993 0.950 . S
C1016 C1015 1.397 . S
C1016 C1017 1.334 . S
C1017 H994 0.950 . S
C1017 C1016 1.334 . S
C1017 C1018 1.287 . S
C1018 C1017 1.287 . S
C1018 C1019 1.524 . S
C1018 H1037 0.913 . S
C1019 H995 0.950 . S
C1019 C1018 1.524 . S
C1019 C1020 1.415 . S
C1020 H996 0.950 . S
C1020 C1015 1.363 . S
C1020 C1019 1.415 . S
C1021 H997 0.951 . S
C1021 C1022 1.366 . S
C1021 C1023 1.388 . S
C1022 C1021 1.366 . S
C1022 C1026 1.385 . S
C1023 H998 0.951 . S
C1023 C1021 1.388 . S
C1023 C1024 1.366 . S
C1024 C1023 1.366 . S
C1024 C1025 1.414 . S
C1024 C1027 1.499 . S
C1025 H999 0.950 . S
C1025 C1024 1.414 . S
C1025 C1026 1.374 . S
C1026 H1000 0.950 . S
C1026 C1022 1.385 . S
C1026 C1025 1.374 . S
C1027 C1024 1.499 . S
C1027 C1028 1.373 . S
C1027 C1029 1.389 1_455 S
C1028 H1001 0.950 . S
C1028 C1014 1.377 . S
C1028 C1027 1.373 . S
C1029 C1013 1.377 . S
C1029 C1027 1.389 1_655 S
C1029 C1030 1.524 . S
C1030 C1029 1.524 . S
C1030 C1031 1.397 . S
C1030 C1035 1.363 . S
C1031 H1002 0.950 . S
C1031 C1030 1.397 . S
C1031 C1032 1.334 . S
C1032 H1003 0.950 . S
C1032 C1031 1.334 . S
C1032 C1033 1.287 . S
C1033 C1032 1.287 . S
C1033 C1034 1.524 . S
C1033 H1036 0.999 . S
C1034 H1004 0.950 . S
C1034 C1033 1.524 . S
C1034 C1035 1.415 . S
C1035 H1005 0.950 . S
C1035 C1030 1.363 . S
C1035 C1034 1.415 . S
H1036 C1033 0.999 . S
H1037 C1018 0.913 . S
C157 C2 0.708 . S
C172 N127 0.709 . S
C207 C21 0.857 . S
C222 N100 0.858 1_655 S
C257 C42 0.938 . S
C272 N113 0.941 . S
C307 C1 1.265 . S
C322 N126 1.299 . S
C372 N101 1.123 . S
C357 C22 1.114 . S
C422 N114 1.018 . S
C407 C41 1.004 . S
C457 C38 1.695 . S
C472 N74 1.707 . S
C507 C59 1.571 . S
C522 N88 1.544 1_655 S
C557 C18 1.864 . S
C572 N62 1.875 . S
C622 N75 1.957 . S
C607 C39 1.979 . S
C672 N87 2.167 . S
C657 C58 2.130 . S
C707 C19 1.790 . S
C722 N61 1.789 . S
C772 N91 1.595 . S
C757 C9 1.562 . S
C807 C29 1.552 . S
C822 N65 1.565 . S
C857 C49 1.530 . S
C872 N78 1.612 . S
C922 N117 1.442 . S
C907 C28 1.408 . S
C972 N130 1.469 . S
C957 C48 1.475 . S
C1007 C8 1.475 . S
C1022 N104 1.491 . S
