# Generated by pormake.
# Topology anh, (6,3)-cn, num edge types: 1
# Building blocks:
#     Node 0, Type 0, BuildingBlock: CUWYAW_clean_sbu_0, # of connection points: 6
#     Node 1, Type 0, BuildingBlock: CUWYAW_clean_sbu_0, # of connection points: 6
#     Node 2, Type 0, BuildingBlock: CUWYAW_clean_sbu_0, # of connection points: 6
#     Node 3, Type 1, BuildingBlock: PAMTOO_clean_linker_0, # of connection points: 3
#     Node 4, Type 1, BuildingBlock: PAMTOO_clean_linker_0, # of connection points: 3
#     Node 5, Type 1, BuildingBlock: PAMTOO_clean_linker_0, # of connection points: 3
#     Node 6, Type 1, BuildingBlock: PAMTOO_clean_linker_0, # of connection points: 3
#     Node 7, Type 1, BuildingBlock: PAMTOO_clean_linker_0, # of connection points: 3
#     Node 8, Type 1, BuildingBlock: PAMTOO_clean_linker_0, # of connection points: 3
#     Edge 9, Type (0, 1), BuildingBlock: XIVTED_clean_linker_0, # of connection points: 2
#     Edge 10, Type (0, 1), BuildingBlock: XIVTED_clean_linker_0, # of connection points: 2
#     Edge 11, Type (0, 1), BuildingBlock: XIVTED_clean_linker_0, # of connection points: 2
#     Edge 12, Type (0, 1), BuildingBlock: XIVTED_clean_linker_0, # of connection points: 2
#     Edge 13, Type (0, 1), BuildingBlock: XIVTED_clean_linker_0, # of connection points: 2
#     Edge 14, Type (0, 1), BuildingBlock: XIVTED_clean_linker_0, # of connection points: 2
#     Edge 15, Type (0, 1), BuildingBlock: XIVTED_clean_linker_0, # of connection points: 2
#     Edge 16, Type (0, 1), BuildingBlock: XIVTED_clean_linker_0, # of connection points: 2
#     Edge 17, Type (0, 1), BuildingBlock: XIVTED_clean_linker_0, # of connection points: 2
#     Edge 18, Type (0, 1), BuildingBlock: XIVTED_clean_linker_0, # of connection points: 2
#     Edge 19, Type (0, 1), BuildingBlock: XIVTED_clean_linker_0, # of connection points: 2
#     Edge 20, Type (0, 1), BuildingBlock: XIVTED_clean_linker_0, # of connection points: 2
#     Edge 21, Type (0, 1), BuildingBlock: XIVTED_clean_linker_0, # of connection points: 2
#     Edge 22, Type (0, 1), BuildingBlock: XIVTED_clean_linker_0, # of connection points: 2
#     Edge 23, Type (0, 1), BuildingBlock: XIVTED_clean_linker_0, # of connection points: 2
#     Edge 24, Type (0, 1), BuildingBlock: XIVTED_clean_linker_0, # of connection points: 2
#     Edge 25, Type (0, 1), BuildingBlock: XIVTED_clean_linker_0, # of connection points: 2
#     Edge 26, Type (0, 1), BuildingBlock: XIVTED_clean_linker_0, # of connection points: 2
# Relax obj value: 0.252
# Max RMSD: 0.148
# Mean RMSD: 0.113
data_MOF--net-anh--node1-CUWYAW_clean_sbu_0--node2-PAMTOO_clean_linker_0--edge1-XIVTED_clean_linker_0
_symmetry_space_group_name_H-M    P1
_symmetry_Int_Tables_number       1
_symmetry_cell_setting            triclinic
loop_
_symmetry_equiv_pos_as_xyz
'x, y, z'
_cell_length_a     31.397847
_cell_length_b     31.293371
_cell_length_c     50.033525
_cell_angle_alpha  86.339937
_cell_angle_beta   92.768248
_cell_angle_gamma 119.84803
loop_
_atom_site_label
_atom_site_type_symbol
_atom_site_fract_x
_atom_site_fract_y
_atom_site_fract_z
_atom_type_partial_charge
C0 C 1.09197 0.41706 0.14283 0.0
Eu1 Eu 0.15386 0.50783 0.1541 0.0
C2 C 1.03936 0.39335 0.13553 0.0
C3 C 1.00611 0.34876 0.14859 0.0
C4 C 0.95559 0.33095 0.14587 0.0
C5 C 0.93766 0.3577 0.13013 0.0
C6 C 0.97089 0.40042 0.11553 0.0
C7 C 1.02131 0.41816 0.11822 0.0
C8 C 0.18005 0.5426 0.20415 0.0
C9 C 1.08792 0.56711 0.14924 0.0
C10 C 0.26322 0.70858 0.16141 0.0
Eu11 Eu 0.20639 0.6153 0.15308 0.0
C12 C 0.26225 0.7551 0.16046 0.0
C13 C 0.2238 0.7587 0.17135 0.0
C14 C 0.22578 0.80442 0.1712 0.0
C15 C 0.26595 0.84693 0.15995 0.0
C16 C 0.3034 0.84256 0.14831 0.0
C17 C 0.30156 0.79713 0.14863 0.0
C18 C 0.17816 0.57696 0.10443 0.0
C19 C 0.27294 0.55739 0.15242 0.0
O20 O 0.12211 0.44985 0.12539 0.0
O21 O 0.10303 0.43179 0.16734 0.0
O22 O 0.18279 0.50556 0.19586 0.0
O23 O 0.1634 0.56004 0.18551 0.0
O24 O 1.08939 0.5255 0.14697 0.0
O25 O 0.12978 0.60842 0.1538 0.0
O26 O 0.25901 0.68934 0.13837 0.0
O27 O 0.23919 0.67554 0.18048 0.0
O28 O 0.17463 0.61446 0.11115 0.0
O29 O 0.19713 0.56298 0.12315 0.0
O30 O 0.272 0.59885 0.15622 0.0
O31 O 0.23046 0.51574 0.14969 0.0
H32 H 1.01929 0.32919 0.16208 0.0
H33 H 0.93082 0.2981 0.15752 0.0
H34 H 0.95799 0.42146 0.10309 0.0
H35 H 1.04613 0.45272 0.10787 0.0
H36 H 0.19278 0.7265 0.18033 0.0
H37 H 0.19634 0.8067 0.18023 0.0
H38 H 0.3353 0.87467 0.13994 0.0
H39 H 0.3315 0.79502 0.14009 0.0
C40 C 0.60707 0.18978 0.47511 0.0
Eu41 Eu 0.63877 0.12738 0.48262 0.0
C42 C 0.62864 0.24004 0.48466 0.0
C43 C 0.64856 0.25008 0.51076 0.0
C44 C 0.67701 0.29855 0.51842 0.0
C45 C 0.68658 0.33812 0.50012 0.0
C46 C 0.66493 0.32806 0.47433 0.0
C47 C 0.63611 0.27932 0.46668 0.0
C48 C 0.65596 0.10125 0.53343 0.0
C49 C 0.7616 0.19617 0.48073 0.0
C50 C 0.7333 1.0216 0.49111 0.0
Eu51 Eu 0.69351 0.0771 0.48251 0.0
C52 C 0.72976 0.97586 0.48259 0.0
C53 C 0.77291 0.97751 0.47505 0.0
C54 C 0.77237 0.9347 0.46851 0.0
C55 C 0.72854 0.88906 0.46943 0.0
C56 C 0.68474 0.88772 0.47596 0.0
C57 C 0.6853 0.9309 0.48245 0.0
C58 C 0.67377 0.10335 0.43264 0.0
C59 C 0.57064 1.00813 0.47791 0.0
O60 O 0.6333 0.18424 0.4576 0.0
O61 O 0.58981 0.15388 0.49346 0.0
O62 O 0.61508 0.098 0.52469 0.0
O63 O 0.68738 0.11915 0.515 0.0
O64 O 0.71851 0.19396 0.47559 0.0
O65 O 0.76104 0.15441 0.4881 0.0
O66 O 0.69855 1.01845 0.50597 0.0
O67 O 0.74844 1.0578 0.47305 0.0
O68 O 0.71512 0.10585 0.43946 0.0
O69 O 0.64444 0.08476 0.45158 0.0
O70 O 0.61296 1.00906 0.48433 0.0
O71 O 0.57212 1.05119 0.47294 0.0
H72 H 0.64429 0.22058 0.52491 0.0
H73 H 0.69384 0.30493 0.53825 0.0
H74 H 0.67145 0.35784 0.45986 0.0
H75 H 0.62154 0.27235 0.44636 0.0
H76 H 0.80755 1.01188 0.47501 0.0
H77 H 0.807 0.93713 0.46418 0.0
H78 H 0.65036 0.85316 0.47674 0.0
H79 H 0.65137 0.9289 0.48791 0.0
C80 C 0.85899 0.69092 0.80612 0.0
Eu81 Eu 0.7669 0.63866 0.81902 0.0
C82 C 0.8965 0.67843 0.79904 0.0
C83 C 0.93673 0.69008 0.81648 0.0
C84 C 0.96772 0.67093 0.81297 0.0
C85 C 0.95926 0.63992 0.79181 0.0
C86 C 0.92142 0.63172 0.77306 0.0
C87 C 0.8903 0.65076 0.77664 0.0
C88 C 0.73581 0.61147 0.87021 0.0
C89 C 0.71512 0.51894 0.81807 0.0
C90 C 0.56935 0.52903 0.8378 0.0
Eu91 Eu 0.6597 0.5872 0.82304 0.0
C92 C 0.52348 0.5247 0.84716 0.0
C93 C 0.49644 0.5418 0.83122 0.0
C94 C 0.44869 0.52874 0.83819 0.0
C95 C 0.42714 0.49831 0.86116 0.0
C96 C 0.4555 0.48383 0.87787 0.0
C97 C 0.5031 0.49683 0.87089 0.0
C98 C 0.6929 0.60837 0.77236 0.0
C99 C 0.71005 0.70641 0.81644 0.0
O100 O 0.82268 0.68047 0.789 0.0
O101 O 0.84421 0.67961 0.83086 0.0
O102 O 0.77086 0.60751 0.86015 0.0
O103 O 0.71841 0.63045 0.85288 0.0
O104 O 0.7555 0.5612 0.81174 0.0
O105 O 0.67561 0.52085 0.82534 0.0
O106 O 0.60698 0.54432 0.85446 0.0
O107 O 0.58194 0.54451 0.81301 0.0
O108 O 0.65587 0.61242 0.77948 0.0
O109 O 0.7084 0.59208 0.79164 0.0
O110 O 0.66951 0.66541 0.82413 0.0
O111 O 0.75015 0.70367 0.81174 0.0
H112 H 0.94255 0.71169 0.83376 0.0
H113 H 0.99616 0.67772 0.82797 0.0
H114 H 0.9145 0.60877 0.75627 0.0
H115 H 0.86019 0.64187 0.76252 0.0
H116 H 0.51127 0.56345 0.81279 0.0
H117 H 0.42806 0.54107 0.8251 0.0
H118 H 0.43995 0.45989 0.89553 0.0
H119 H 0.52304 0.48283 0.88337 0.0
H120 H 0.66969 0.25958 0.24056 0.0
H121 H 0.51655 0.16497 0.25853 0.0
H122 H 0.55924 0.22243 0.17837 0.0
H123 H 0.46522 0.21422 0.19202 0.0
C124 C 0.4522 0.18231 0.20678 0.0
O125 O 0.48585 0.16618 0.20949 0.0
H126 H 0.44712 0.19398 0.22637 0.0
C127 C 0.63127 0.24177 0.23451 0.0
C128 C 0.6188 0.24542 0.20747 0.0
C129 C 0.59494 0.2122 0.25325 0.0
C130 C 0.54534 0.1893 0.24484 0.0
C131 C 0.53265 0.19396 0.21803 0.0
C132 C 0.5693 0.22141 0.19934 0.0
H133 H 0.79521 0.68479 0.57249 0.0
H134 H 0.91604 0.6726 0.60898 0.0
H135 H 0.91205 0.69976 0.52428 0.0
H136 H 0.98145 0.64333 0.58502 0.0
C137 C 0.97114 0.65079 0.5644 0.0
O138 O 0.96332 0.69064 0.56454 0.0
H139 H 1.00305 0.66109 0.55157 0.0
C140 C 0.82856 0.68309 0.57075 0.0
C141 C 0.84955 0.69133 0.54542 0.0
C142 C 0.85149 0.67569 0.59399 0.0
C143 C 0.89726 0.67837 0.59162 0.0
C144 C 0.9189 0.6873 0.56655 0.0
C145 C 0.89487 0.69313 0.54352 0.0
H146 H 1.09362 0.48919 0.9046 0.0
H147 H 1.064 0.34914 0.94137 0.0
H148 H 1.04349 0.36269 0.85663 0.0
H149 H 1.05413 0.25575 0.87911 0.0
C150 C 1.06862 0.28271 0.89518 0.0
O151 O 1.03814 0.30272 0.89676 0.0
H152 H 1.0665 0.26154 0.91425 0.0
C153 C 1.08284 0.45075 0.90291 0.0
C154 C 1.06886 0.42971 0.87774 0.0
C155 C 1.08133 0.42224 0.92607 0.0
C156 C 1.06626 0.37216 0.92377 0.0
C157 C 1.05326 0.35114 0.89873 0.0
C158 C 1.05447 0.37974 0.8758 0.0
H159 H 1.06951 0.4962 0.40298 0.0
H160 H 0.21008 0.6287 0.40687 0.0
H161 H 0.12925 0.56065 0.47938 0.0
H162 H 0.21295 0.68879 0.48004 0.0
C163 C 0.22804 0.68696 0.4608 0.0
O164 O 0.21627 0.63737 0.45813 0.0
H165 H 0.20771 0.69637 0.44486 0.0
C166 C 1.09813 0.52474 0.41486 0.0
C167 C 1.09221 0.52249 0.4428 0.0
C168 C 0.14005 0.56261 0.4018 0.0
C169 C 0.17747 0.60029 0.41685 0.0
C170 C 0.17498 0.6012 0.44474 0.0
C171 C 0.1318 0.56142 0.45785 0.0
H172 H 0.70682 1.0163 0.73525 0.0
H173 H 0.71117 0.15506 0.74021 0.0
H174 H 0.71397 0.07391 0.81276 0.0
H175 H 0.65502 0.14798 0.80931 0.0
C176 C 0.68104 0.17349 0.79387 0.0
O177 O 0.71787 0.16029 0.79183 0.0
H178 H 0.65956 0.16605 0.77473 0.0
C179 C 0.70883 1.04468 0.74746 0.0
C180 C 0.71102 1.03867 0.77566 0.0
C181 C 0.70755 0.0855 0.73458 0.0
C182 C 0.7103 0.12283 0.75014 0.0
C183 C 0.71205 0.11988 0.77827 0.0
C184 C 0.71172 0.07675 0.79113 0.0
H185 H 0.78462 0.57416 0.07492 0.0
H186 H 0.65064 0.58012 0.07665 0.0
H187 H 0.71889 0.5636 0.15066 0.0
H188 H 0.5877 0.5037 0.1405 0.0
C189 C 0.59072 0.53521 0.1275 0.0
O190 O 0.64077 0.5728 0.12823 0.0
H191 H 0.58094 0.52155 0.10689 0.0
C192 C 0.75541 0.57286 0.08626 0.0
C193 C 0.75793 0.56842 0.1144 0.0
C194 C 0.71702 0.57663 0.0724 0.0
C195 C 0.67994 0.57688 0.08716 0.0
C196 C 0.67857 0.57118 0.1153 0.0
C197 C 0.71837 0.56705 0.12901 0.0
H198 H 0.36834 0.6368 0.14299 0.0
H199 H 0.50661 0.47501 0.1558 0.0
H200 H 0.29278 0.47907 0.15628 0.0
H201 H 0.57503 0.61803 0.11508 0.0
H202 H 0.43307 0.48136 0.16184 0.0
H203 H 0.44591 0.6358 0.13807 0.0
C204 C 0.36765 0.60181 0.14509 0.0
C205 C 0.32246 0.55791 0.15019 0.0
C206 C 0.46421 0.51197 0.15195 0.0
C207 C 0.41372 0.55667 0.14476 0.0
C208 C 0.50715 0.50871 0.14872 0.0
C209 C 0.54933 0.54668 0.13565 0.0
C210 C 0.4615 0.55381 0.14216 0.0
C211 C 0.54508 0.58818 0.12609 0.0
C212 C 0.41249 0.60133 0.14213 0.0
C213 C 0.32562 0.51414 0.15239 0.0
N214 N 0.50277 0.59069 0.12968 0.0
N215 N 0.36961 0.5148 0.14992 0.0
H216 H 0.85851 0.21705 0.49218 0.0
H217 H 0.99626 0.50295 0.43427 0.0
H218 H 0.78015 0.29064 0.46169 0.0
H219 H 1.07518 0.43734 0.47448 0.0
H220 H 0.91836 0.42692 0.44433 0.0
H221 H 0.93658 0.29515 0.48594 0.0
C222 C 0.8572 0.24937 0.48423 0.0
C223 C 0.81105 0.24567 0.47761 0.0
C224 C 0.95244 0.42899 0.4514 0.0
C225 C 0.90322 0.33793 0.46999 0.0
C226 C 0.99752 0.47315 0.44586 0.0
C227 C 1.04374 0.47863 0.45414 0.0
C228 C 0.9519 0.38772 0.46502 0.0
C229 C 1.04138 0.43666 0.46824 0.0
C230 C 0.90246 0.29455 0.48064 0.0
C231 C 0.81371 0.29029 0.46728 0.0
N232 N 0.99707 0.39377 0.47299 0.0
N233 N 0.8581 0.3335 0.46378 0.0
H234 H 0.78231 0.79621 0.79392 0.0
H235 H 0.64955 0.9604 0.81181 0.0
H236 H 0.64001 0.73346 0.8292 0.0
H237 H 0.77651 1.00785 0.76361 0.0
H238 H 0.6485 0.88131 0.82247 0.0
H239 H 0.78346 0.87521 0.78657 0.0
C240 C 0.75116 0.79864 0.80032 0.0
C241 C 0.71098 0.75655 0.81233 0.0
C242 C 0.677 0.90918 0.80979 0.0
C243 C 0.7123 0.85001 0.80388 0.0
C244 C 0.67798 0.95508 0.8039 0.0
C245 C 0.71367 0.99253 0.78693 0.0
C246 C 0.71221 0.89961 0.79895 0.0
C247 C 0.7484 0.98129 0.77696 0.0
C248 C 0.75186 0.8444 0.796 0.0
C249 C 0.67203 0.76385 0.81986 0.0
N250 N 0.74681 0.93692 0.78306 0.0
N251 N 0.67378 0.8089 0.81565 0.0
H252 H 1.06882 0.64574 0.15083 0.0
H253 H 0.77383 0.48823 0.11919 0.0
H254 H 0.9918 0.48933 0.14062 0.0
H255 H 0.84891 0.64316 0.13316 0.0
H256 H 0.85142 0.48743 0.12827 0.0
H257 H 0.99014 0.64544 0.14544 0.0
C258 C 1.03563 0.61108 0.14746 0.0
C259 C 1.03848 0.56743 0.14616 0.0
C260 C 0.8511 0.5216 0.1299 0.0
C261 C 0.94552 0.56689 0.13977 0.0
C262 C 0.80612 0.52195 0.12503 0.0
C263 C 0.80298 0.56539 0.12638 0.0
C264 C 0.89518 0.56535 0.1358 0.0
C265 C 0.84794 0.60815 0.13277 0.0
C266 C 0.99012 0.611 0.14436 0.0
C267 C 0.99277 0.52417 0.14169 0.0
N268 N 0.89127 0.60701 0.13711 0.0
N269 N 0.94918 0.52509 0.13866 0.0
H270 H 0.48088 0.99195 0.45563 0.0
H271 H 0.31437 0.69593 0.48862 0.0
H272 H 0.54555 0.90948 0.49301 0.0
H273 H 0.2696 0.77913 0.43443 0.0
H274 H 0.3967 0.77063 0.4926 0.0
H275 H 0.40299 0.91457 0.45043 0.0
C276 C 0.47913 0.95779 0.4629 0.0
C277 C 0.52142 0.95882 0.47486 0.0
C278 C 0.36915 0.77245 0.47948 0.0
C279 C 0.42907 0.86704 0.46901 0.0
C280 C 0.32179 0.72916 0.47694 0.0
C281 C 0.28397 0.72931 0.46031 0.0
C282 C 0.37958 0.81782 0.46597 0.0
C283 C 0.29684 0.77545 0.44689 0.0
C284 C 0.43399 0.91296 0.45981 0.0
C285 C 0.51495 0.91181 0.48361 0.0
N286 N 0.34231 0.81675 0.45008 0.0
N287 N 0.47038 0.86871 0.4807 0.0
H288 H 0.64411 0.42412 0.83591 0.0
H289 H 0.75418 0.26704 0.77144 0.0
H290 H 0.78105 0.49676 0.7943 0.0
H291 H 0.63926 0.20606 0.82927 0.0
H292 H 0.76451 0.34988 0.77753 0.0
H293 H 0.64068 0.34457 0.83148 0.0
C294 C 0.67366 0.42379 0.8258 0.0
C295 C 0.71304 0.4687 0.81563 0.0
C296 C 0.73751 0.31853 0.78925 0.0
C297 C 0.70893 0.37485 0.81002 0.0
C298 C 0.73196 0.27083 0.78597 0.0
C299 C 0.69689 0.22831 0.80053 0.0
C300 C 0.70688 0.32474 0.80671 0.0
C301 C 0.66793 0.23689 0.81807 0.0
C302 C 0.67167 0.37775 0.82328 0.0
C303 C 0.74983 0.46407 0.80271 0.0
N304 N 0.67336 0.28299 0.82047 0.0
N305 N 0.74672 0.41878 0.80019 0.0
H306 H 0.78225 0.87036 0.43481 0.0
H307 H 0.89418 0.76168 0.50508 0.0
H308 H 0.68072 0.80303 0.49986 0.0
H309 H 0.75133 0.64887 0.5322 0.0
H310 H 0.85492 0.79521 0.47432 0.0
H311 H 0.80537 0.80643 0.4419 0.0
C312 C 0.76413 0.84161 0.45024 0.0
C313 C 0.73089 0.84316 0.46746 0.0
C314 C 0.83186 0.76197 0.48617 0.0
C315 C 0.75758 0.77059 0.47583 0.0
C316 C 0.85444 0.74278 0.5039 0.0
C317 C 0.82609 0.70323 0.52183 0.0
C318 C 0.78064 0.74181 0.48667 0.0
C319 C 0.77469 0.68055 0.51939 0.0
C320 C 0.77751 0.80531 0.45432 0.0
C321 C 0.70711 0.80391 0.48638 0.0
N322 N 0.75365 0.7011 0.50277 0.0
N323 N 0.72171 0.76979 0.49044 0.0
H324 H 0.92023 0.54301 0.78022 0.0
H325 H 0.13314 0.52564 0.86182 0.0
H326 H 1.05622 0.66962 0.80423 0.0
H327 H 0.99359 0.40065 0.84086 0.0
H328 H 0.1152 0.57798 0.83039 0.0
H329 H 0.95641 0.49092 0.79089 0.0
C330 C 0.95821 0.56023 0.787 0.0
C331 C 0.98485 0.61076 0.79189 0.0
C332 C 1.08895 0.53891 0.83224 0.0
C333 C 1.02604 0.55073 0.80497 0.0
C334 C 1.09912 0.50906 0.85022 0.0
C335 C 1.06428 0.45897 0.85442 0.0
C336 C 1.04344 0.51856 0.81854 0.0
C337 C 1.02138 0.43912 0.83841 0.0
C338 C 0.97875 0.53023 0.79334 0.0
C339 C 1.03384 0.63063 0.80091 0.0
N340 N 1.01174 0.46917 0.82156 0.0
N341 N 1.05254 0.60042 0.80767 0.0
H342 H 0.29782 0.92377 0.12237 0.0
H343 H 0.37462 0.11324 0.23643 0.0
H344 H 0.24922 0.88358 0.20397 0.0
H345 H 0.42559 0.15361 0.15539 0.0
H346 H 0.31074 1.03256 0.22186 0.0
H347 H 0.32662 1.01004 0.13088 0.0
C348 C 0.29238 0.93303 0.14194 0.0
C349 C 0.27217 0.89663 0.16268 0.0
C350 C 0.33495 1.05947 0.20706 0.0
C351 C 0.3053 0.99524 0.17264 0.0
C352 C 0.37112 0.10561 0.21537 0.0
C353 C 0.40504 0.13995 0.19701 0.0
C354 C 0.33361 1.0473 0.18035 0.0
C355 C 0.39975 0.12809 0.17006 0.0
C356 C 0.30873 0.98228 0.14678 0.0
C357 C 0.26491 0.91046 0.18745 0.0
N358 N 0.36526 0.08239 0.1626 0.0
N359 N 0.28238 0.95881 0.1919 0.0
H360 H 0.75973 0.41045 0.46925 0.0
H361 H 0.89573 0.57731 0.59344 0.0
H362 H 0.69697 0.38141 0.54772 0.0
H363 H 0.94554 0.62264 0.51243 0.0
H364 H 0.82218 0.50527 0.57677 0.0
H365 H 0.82668 0.48938 0.48388 0.0
C366 C 0.75945 0.42111 0.48938 0.0
C367 C 0.72286 0.3891 0.50736 0.0
C368 C 0.84915 0.53084 0.56258 0.0
C369 C 0.8 0.47878 0.52442 0.0
C370 C 0.8912 0.57161 0.57213 0.0
C371 C 0.92696 0.605 0.55426 0.0
C372 C 0.84295 0.52332 0.53495 0.0
C373 C 0.91909 0.59695 0.52679 0.0
C374 C 0.79793 0.466 0.4978 0.0
C375 C 0.72486 0.40455 0.53335 0.0
N376 N 0.87803 0.55662 0.51794 0.0
N377 N 0.76305 0.44804 0.54117 0.0
H378 H 0.38198 0.48325 0.90936 0.0
H379 H 0.11163 0.32258 0.84658 0.0
H380 H 0.35084 0.46391 0.82462 0.0
H381 H 0.14433 0.33053 0.93132 0.0
H382 H 0.19791 0.38328 0.83795 0.0
H383 H 0.29381 0.43671 0.91764 0.0
C384 C 0.35662 0.46964 0.89247 0.0
C385 C 0.37396 0.47715 0.86628 0.0
C386 C 0.18629 0.37181 0.85845 0.0
C387 C 0.27294 0.4238 0.87561 0.0
C388 C 0.13723 0.3371 0.86331 0.0
C389 C 0.12155 0.32074 0.88961 0.0
C390 C 0.21973 0.39043 0.8801 0.0
C391 C 0.15551 0.34148 0.91073 0.0
C392 C 0.30627 0.44312 0.89721 0.0
C393 C 0.33929 0.45939 0.84514 0.0
N394 N 0.20315 0.37499 0.90552 0.0
N395 N 0.29052 0.43314 0.85029 0.0
H396 H 0.90273 0.4198 0.13835 0.0
H397 H 0.62913 0.2023 0.16464 0.0
H398 H 0.85471 0.26668 0.1273 0.0
H399 H 0.6985 0.33823 0.20599 0.0
H400 H 0.70294 0.23322 0.13775 0.0
H401 H 0.81906 0.39705 0.14974 0.0
C402 C 0.87432 0.38154 0.13762 0.0
C403 C 0.88572 0.34498 0.1321 0.0
C404 C 0.70149 0.25663 0.1523 0.0
C405 C 0.79014 0.31879 0.14527 0.0
C406 C 0.65939 0.23924 0.16745 0.0
C407 C 0.65812 0.26783 0.18755 0.0
C408 C 0.74214 0.30305 0.15715 0.0
C409 C 0.69838 0.31512 0.19074 0.0
C410 C 0.8267 0.3686 0.1443 0.0
C411 C 0.84751 0.29587 0.13178 0.0
N412 N 0.73902 0.33119 0.17581 0.0
N413 N 0.80138 0.28409 0.13852 0.0
H414 H 0.19552 0.50699 0.08655 0.0
H415 H 1.05629 0.48646 0.9457 0.0
H416 H 0.12825 0.59516 0.063 0.0
H417 H 0.13551 0.40889 0.96698 0.0
H418 H 1.07967 0.52456 -0.01099 0.0
H419 H 0.17094 0.46838 0.04344 0.0
C420 C 0.17548 0.51817 0.07225 0.0
C421 C 0.1638 0.55424 0.07826 0.0
C422 C 1.09196 0.49924 0.98421 0.0
C423 C 0.13565 0.5103 0.02884 0.0
C424 C 1.07885 0.47764 0.95942 0.0
C425 C 1.09424 0.44463 0.95262 0.0
C426 C 0.12056 0.48769 0.00242 0.0
C427 C 0.12248 0.43377 0.97146 0.0
C428 C 0.16153 0.49617 0.04763 0.0
C429 C 0.13803 0.56755 0.05904 0.0
N430 N 0.1348 0.45532 -0.00453 0.0
N431 N 0.12473 0.5455 0.03514 0.0
H432 H 0.59049 0.10609 0.41787 0.0
H433 H 0.67216 0.19701 0.26703 0.0
H434 H 0.73126 0.13976 0.38846 0.0
H435 H 0.54941 0.19872 0.30137 0.0
H436 H 0.6927 0.17334 0.31086 0.0
H437 H 0.57243 0.13588 0.37479 0.0
C438 C 0.61754 0.1197 0.40228 0.0
C439 C 0.66236 0.12041 0.4066 0.0
C440 C 0.6615 0.17928 0.30888 0.0
C441 C 0.642 0.1544 0.35734 0.0
C442 C 0.64991 0.1933 0.28383 0.0
C443 C 0.60914 0.20045 0.28039 0.0
C444 C 0.63183 0.1716 0.33076 0.0
C445 C 0.58091 0.19329 0.30294 0.0
C446 C 0.60734 0.13687 0.37776 0.0
C447 C 0.6962 0.13851 0.38585 0.0
N448 N 0.59266 0.17904 0.32713 0.0
N449 N 0.68525 0.15462 0.36204 0.0
H450 H 0.66094 0.63591 0.72558 0.0
H451 H 0.89598 0.70279 0.64379 0.0
H452 H 0.77175 0.60297 0.75796 0.0
H453 H 0.75261 0.62736 0.60522 0.0
H454 H 0.85601 0.68655 0.68683 0.0
H455 H 0.69907 0.6531 0.68125 0.0
C456 C 0.69335 0.63267 0.72339 0.0
C457 C 0.71378 0.61876 0.74543 0.0
C458 C 0.83359 0.67392 0.66879 0.0
C459 C 0.75758 0.63919 0.69559 0.0
C460 C 0.85627 0.68266 0.64419 0.0
C461 C 0.82789 0.6664 0.62055 0.0
C462 C 0.78225 0.64989 0.66976 0.0
C463 C 0.77633 0.6417 0.62263 0.0
C464 C 0.71491 0.64235 0.69825 0.0
C465 C 0.75553 0.61464 0.7416 0.0
N466 N 0.75516 0.63452 0.64678 0.0
N467 N 0.77645 0.62538 0.71724 0.0
H468 H 0.73813 0.10501 0.55935 0.0
H469 H 0.64566 0.10946 0.70545 0.0
H470 H 0.59797 0.09186 0.57453 0.0
H471 H 0.75626 1.0688 0.69528 0.0
H472 H 0.63536 0.1138 0.65681 0.0
H473 H 0.75262 0.10126 0.60828 0.0
C474 C 0.71052 0.10141 0.57289 0.0
C475 C 0.66678 0.0988 0.56273 0.0
C476 C 0.66196 0.10394 0.66514 0.0
C477 C 0.68332 0.09512 0.61858 0.0
C478 C 0.66808 0.10175 0.69299 0.0
C479 C 0.70191 0.08875 0.70465 0.0
C480 C 0.69024 0.0937 0.64844 0.0
C481 C 0.72947 0.07861 0.68726 0.0
C482 C 0.71873 0.09916 0.60078 0.0
C483 C 0.63223 0.09401 0.58128 0.0
N484 N 0.72325 0.08154 0.66008 0.0
N485 N 0.64136 0.09268 0.60809 0.0
H486 H 0.68656 0.64357 0.90105 0.0
H487 H 0.74087 0.52729 0.03778 0.0
H488 H 0.76373 0.5615 0.90626 0.0
H489 H 0.68922 0.6319 0.0377 0.0
H490 H 0.7413 0.53383 -0.01095 0.0
H491 H 0.67848 0.6338 0.95028 0.0
C492 C 0.70137 0.62319 0.91247 0.0
C493 C 0.72609 0.60354 0.89949 0.0
C494 C 0.72984 0.55545 -0.0004 0.0
C495 C 0.71697 0.59215 0.95566 0.0
C496 C 0.7299 0.55199 0.0276 0.0
C497 C 0.71562 0.57954 0.04223 0.0
C498 C 0.71513 0.58655 0.98565 0.0
C499 C 0.70036 0.6097 0.02749 0.0
C500 C 0.69697 0.6178 0.94056 0.0
C501 C 0.74466 0.57757 0.91533 0.0
N502 N 0.70067 0.61252 0.0001 0.0
N503 N 0.73976 0.57271 0.94237 0.0
H504 H 0.18521 0.4855 0.24631 0.0
H505 H 0.16751 0.6384 0.36329 0.0
H506 H 0.16873 0.61326 0.22863 0.0
H507 H 0.12649 0.48487 0.37298 0.0
H508 H 0.17861 0.6359 0.31513 0.0
H509 H 0.17544 0.49127 0.29383 0.0
C510 C 0.17987 0.51508 0.25241 0.0
C511 C 0.17761 0.54885 0.23329 0.0
C512 C 0.16703 0.60277 0.32781 0.0
C513 C 0.16657 0.55578 0.28816 0.0
C514 C 0.16086 0.60418 0.35531 0.0
C515 C 0.14584 0.5617 0.37228 0.0
C516 C 0.15915 0.55883 0.31719 0.0
C517 C 0.13759 0.51837 0.36072 0.0
C518 C 0.17403 0.51816 0.27963 0.0
C519 C 0.17061 0.58635 0.24261 0.0
N520 N 0.1447 0.51818 0.33407 0.0
N521 N 0.1655 0.58892 0.26937 0.0
loop_
_geom_bond_atom_site_label_1
_geom_bond_atom_site_label_2
_geom_bond_distance
_geom_bond_site_symmetry_2
_ccdc_geom_bond_type
C0 Eu1 2.835 . S
C0 C2 1.500 . S
C0 O20 1.257 . S
C0 O21 1.260 . S
Eu1 C0 2.835 . S
Eu1 O20 2.473 . S
Eu1 O21 2.480 . S
Eu1 O22 2.430 1_655 S
Eu1 O23 2.670 1_655 S
Eu1 O24 2.394 . S
Eu1 O29 2.355 1_655 S
Eu1 O31 2.374 1_655 S
C2 C0 1.500 . S
C2 C3 1.377 . S
C2 C7 1.377 . S
C3 C2 1.377 . S
C3 C4 1.395 . S
C3 H32 0.931 . S
C4 C3 1.395 . S
C4 C5 1.383 . S
C4 H33 0.931 . S
C5 C4 1.383 . S
C5 C6 1.394 . S
C6 C5 1.394 . S
C6 C7 1.378 . S
C6 H34 0.931 . S
C7 C2 1.377 . S
C7 C6 1.378 . S
C7 H35 0.931 . S
C8 O22 1.259 . S
C8 O23 1.270 . S
C9 O24 1.251 . S
C9 O25 1.251 . S
C10 Eu11 2.835 . S
C10 C12 1.500 . S
C10 O26 1.257 . S
C10 O27 1.260 . S
Eu11 C10 2.835 . S
Eu11 O23 2.355 . S
Eu11 O25 2.374 1_455 S
Eu11 O26 2.473 . S
Eu11 O27 2.480 . S
Eu11 O28 2.430 . S
Eu11 O29 2.670 . S
Eu11 O30 2.394 . S
C12 C10 1.500 . S
C12 C13 1.377 . S
C12 C17 1.377 . S
C13 C12 1.377 . S
C13 C14 1.395 . S
C13 H36 0.931 . S
C14 C13 1.395 . S
C14 C15 1.383 . S
C14 H37 0.931 . S
C15 C14 1.383 . S
C15 C16 1.394 . S
C16 C15 1.394 . S
C16 C17 1.378 . S
C16 H38 0.931 . S
C17 C12 1.377 . S
C17 C16 1.378 . S
C17 H39 0.931 . S
C18 O28 1.259 . S
C18 O29 1.270 . S
C19 O30 1.251 . S
C19 O31 1.251 . S
O20 C0 1.257 . S
O20 Eu1 2.473 . S
O21 C0 1.260 . S
O21 Eu1 2.480 . S
O22 Eu1 2.430 1_455 S
O22 C8 1.259 . S
O23 Eu1 2.670 1_455 S
O23 C8 1.270 . S
O23 Eu11 2.355 . S
O24 Eu1 2.394 . S
O24 C9 1.251 . S
O25 C9 1.251 . S
O25 Eu11 2.374 1_655 S
O26 C10 1.257 . S
O26 Eu11 2.473 . S
O27 C10 1.260 . S
O27 Eu11 2.480 . S
O28 Eu11 2.430 . S
O28 C18 1.259 . S
O29 Eu1 2.355 1_455 S
O29 Eu11 2.670 . S
O29 C18 1.270 . S
O30 Eu11 2.394 . S
O30 C19 1.251 . S
O31 Eu1 2.374 1_455 S
O31 C19 1.251 . S
H32 C3 0.931 . S
H33 C4 0.931 . S
H34 C6 0.931 . S
H35 C7 0.931 . S
H36 C13 0.931 . S
H37 C14 0.931 . S
H38 C16 0.931 . S
H39 C17 0.931 . S
C40 Eu41 2.835 . S
C40 C42 1.500 . S
C40 O60 1.257 . S
C40 O61 1.260 . S
Eu41 C40 2.835 . S
Eu41 O60 2.473 . S
Eu41 O61 2.480 . S
Eu41 O62 2.430 . S
Eu41 O63 2.670 . S
Eu41 O64 2.394 . S
Eu41 O69 2.355 . S
Eu41 O71 2.374 1_545 S
C42 C40 1.500 . S
C42 C43 1.377 . S
C42 C47 1.377 . S
C43 C42 1.377 . S
C43 C44 1.395 . S
C43 H72 0.931 . S
C44 C43 1.395 . S
C44 C45 1.383 . S
C44 H73 0.931 . S
C45 C44 1.383 . S
C45 C46 1.394 . S
C46 C45 1.394 . S
C46 C47 1.378 . S
C46 H74 0.931 . S
C47 C42 1.377 . S
C47 C46 1.378 . S
C47 H75 0.931 . S
C48 O62 1.259 . S
C48 O63 1.270 . S
C49 O64 1.251 . S
C49 O65 1.251 . S
C50 Eu51 2.835 1_565 S
C50 C52 1.500 . S
C50 O66 1.257 . S
C50 O67 1.260 . S
Eu51 C50 2.835 1_545 S
Eu51 O63 2.355 . S
Eu51 O65 2.374 . S
Eu51 O66 2.473 1_545 S
Eu51 O67 2.480 1_545 S
Eu51 O68 2.430 . S
Eu51 O69 2.670 . S
Eu51 O70 2.394 1_545 S
C52 C50 1.500 . S
C52 C53 1.377 . S
C52 C57 1.377 . S
C53 C52 1.377 . S
C53 C54 1.395 . S
C53 H76 0.931 . S
C54 C53 1.395 . S
C54 C55 1.383 . S
C54 H77 0.931 . S
C55 C54 1.383 . S
C55 C56 1.394 . S
C56 C55 1.394 . S
C56 C57 1.378 . S
C56 H78 0.931 . S
C57 C52 1.377 . S
C57 C56 1.378 . S
C57 H79 0.931 . S
C58 O68 1.259 . S
C58 O69 1.270 . S
C59 O70 1.251 . S
C59 O71 1.251 . S
O60 C40 1.257 . S
O60 Eu41 2.473 . S
O61 C40 1.260 . S
O61 Eu41 2.480 . S
O62 Eu41 2.430 . S
O62 C48 1.259 . S
O63 Eu41 2.670 . S
O63 C48 1.270 . S
O63 Eu51 2.355 . S
O64 Eu41 2.394 . S
O64 C49 1.251 . S
O65 C49 1.251 . S
O65 Eu51 2.374 . S
O66 C50 1.257 . S
O66 Eu51 2.473 1_565 S
O67 C50 1.260 . S
O67 Eu51 2.480 1_565 S
O68 Eu51 2.430 . S
O68 C58 1.259 . S
O69 Eu41 2.355 . S
O69 Eu51 2.670 . S
O69 C58 1.270 . S
O70 Eu51 2.394 1_565 S
O70 C59 1.251 . S
O71 Eu41 2.374 1_565 S
O71 C59 1.251 . S
H72 C43 0.931 . S
H73 C44 0.931 . S
H74 C46 0.931 . S
H75 C47 0.931 . S
H76 C53 0.931 . S
H77 C54 0.931 . S
H78 C56 0.931 . S
H79 C57 0.931 . S
C80 Eu81 2.835 . S
C80 C82 1.500 . S
C80 O100 1.257 . S
C80 O101 1.260 . S
Eu81 C80 2.835 . S
Eu81 O100 2.473 . S
Eu81 O101 2.480 . S
Eu81 O102 2.430 . S
Eu81 O103 2.670 . S
Eu81 O104 2.394 . S
Eu81 O109 2.355 . S
Eu81 O111 2.374 . S
C82 C80 1.500 . S
C82 C83 1.377 . S
C82 C87 1.377 . S
C83 C82 1.377 . S
C83 C84 1.395 . S
C83 H112 0.931 . S
C84 C83 1.395 . S
C84 C85 1.383 . S
C84 H113 0.931 . S
C85 C84 1.383 . S
C85 C86 1.394 . S
C86 C85 1.394 . S
C86 C87 1.378 . S
C86 H114 0.931 . S
C87 C82 1.377 . S
C87 C86 1.378 . S
C87 H115 0.931 . S
C88 O102 1.259 . S
C88 O103 1.270 . S
C89 O104 1.251 . S
C89 O105 1.251 . S
C90 Eu91 2.835 . S
C90 C92 1.500 . S
C90 O106 1.257 . S
C90 O107 1.260 . S
Eu91 C90 2.835 . S
Eu91 O103 2.355 . S
Eu91 O105 2.374 . S
Eu91 O106 2.473 . S
Eu91 O107 2.480 . S
Eu91 O108 2.430 . S
Eu91 O109 2.670 . S
Eu91 O110 2.394 . S
C92 C90 1.500 . S
C92 C93 1.377 . S
C92 C97 1.377 . S
C93 C92 1.377 . S
C93 C94 1.395 . S
C93 H116 0.931 . S
C94 C93 1.395 . S
C94 C95 1.383 . S
C94 H117 0.931 . S
C95 C94 1.383 . S
C95 C96 1.394 . S
C96 C95 1.394 . S
C96 C97 1.378 . S
C96 H118 0.931 . S
C97 C92 1.377 . S
C97 C96 1.378 . S
C97 H119 0.931 . S
C98 O108 1.259 . S
C98 O109 1.270 . S
C99 O110 1.251 . S
C99 O111 1.251 . S
O100 C80 1.257 . S
O100 Eu81 2.473 . S
O101 C80 1.260 . S
O101 Eu81 2.480 . S
O102 Eu81 2.430 . S
O102 C88 1.259 . S
O103 Eu81 2.670 . S
O103 C88 1.270 . S
O103 Eu91 2.355 . S
O104 Eu81 2.394 . S
O104 C89 1.251 . S
O105 C89 1.251 . S
O105 Eu91 2.374 . S
O106 C90 1.257 . S
O106 Eu91 2.473 . S
O107 C90 1.260 . S
O107 Eu91 2.480 . S
O108 Eu91 2.430 . S
O108 C98 1.259 . S
O109 Eu81 2.355 . S
O109 Eu91 2.670 . S
O109 C98 1.270 . S
O110 Eu91 2.394 . S
O110 C99 1.251 . S
O111 Eu81 2.374 . S
O111 C99 1.251 . S
H112 C83 0.931 . S
H113 C84 0.931 . S
H114 C86 0.931 . S
H115 C87 0.931 . S
H116 C93 0.931 . S
H117 C94 0.931 . S
H118 C96 0.931 . S
H119 C97 0.931 . S
H120 C127 0.929 . S
H121 C130 0.930 1_565 S
H122 C132 0.929 . S
H123 C124 0.969 . S
C124 H123 0.969 . S
C124 O125 1.550 . S
C124 H126 0.973 . S
O125 C124 1.550 . S
O125 C131 1.412 1_565 S
H126 C124 0.973 . S
C127 H120 0.929 . S
C127 C128 1.400 . S
C127 C129 1.364 . S
C128 C127 1.400 . S
C128 C132 1.377 . S
C129 C127 1.364 . S
C129 C130 1.374 . S
C130 H121 0.930 1_545 S
C130 C129 1.374 . S
C130 C131 1.383 . S
C131 O125 1.412 1_545 S
C131 C130 1.383 . S
C131 C132 1.394 . S
C132 H122 0.929 . S
C132 C128 1.377 . S
C132 C131 1.394 . S
H133 C140 0.929 . S
H134 C143 0.930 . S
H135 C145 0.929 . S
H136 C137 0.969 . S
C137 H136 0.969 . S
C137 O138 1.550 . S
C137 H139 0.973 . S
O138 C137 1.550 . S
O138 C144 1.412 . S
H139 C137 0.973 . S
C140 H133 0.929 . S
C140 C141 1.400 . S
C140 C142 1.364 . S
C141 C140 1.400 . S
C141 C145 1.377 . S
C142 C140 1.364 . S
C142 C143 1.374 . S
C143 H134 0.930 . S
C143 C142 1.374 . S
C143 C144 1.383 . S
C144 O138 1.412 . S
C144 C143 1.383 . S
C144 C145 1.394 . S
C145 H135 0.929 . S
C145 C141 1.377 . S
C145 C144 1.394 . S
H146 C153 0.929 . S
H147 C156 0.930 . S
H148 C158 0.929 . S
H149 C150 0.969 . S
C150 H149 0.969 . S
C150 O151 1.550 . S
C150 H152 0.973 . S
O151 C150 1.550 . S
O151 C157 1.412 . S
H152 C150 0.973 . S
C153 H146 0.929 . S
C153 C154 1.400 . S
C153 C155 1.364 1_655 S
C154 C153 1.400 . S
C154 C158 1.377 1_655 S
C155 C153 1.364 1_455 S
C155 C156 1.374 . S
C156 H147 0.930 . S
C156 C155 1.374 . S
C156 C157 1.383 . S
C157 O151 1.412 . S
C157 C156 1.383 . S
C157 C158 1.394 . S
C158 H148 0.929 . S
C158 C154 1.377 1_455 S
C158 C157 1.394 . S
H159 C166 0.929 . S
H160 C169 0.930 . S
H161 C171 0.929 . S
H162 C163 0.969 . S
C163 H162 0.969 . S
C163 O164 1.550 . S
C163 H165 0.973 . S
O164 C163 1.550 . S
O164 C170 1.412 . S
H165 C163 0.973 . S
C166 H159 0.929 . S
C166 C167 1.400 . S
C166 C168 1.364 . S
C167 C166 1.400 . S
C167 C171 1.377 . S
C168 C166 1.364 . S
C168 C169 1.374 . S
C169 H160 0.930 . S
C169 C168 1.374 . S
C169 C170 1.383 . S
C170 O164 1.412 . S
C170 C169 1.383 . S
C170 C171 1.394 . S
C171 H161 0.929 . S
C171 C167 1.377 . S
C171 C170 1.394 . S
H172 C179 0.929 . S
H173 C182 0.930 . S
H174 C184 0.929 . S
H175 C176 0.969 . S
C176 H175 0.969 . S
C176 O177 1.550 . S
C176 H178 0.973 . S
O177 C176 1.550 . S
O177 C183 1.412 . S
H178 C176 0.973 . S
C179 H172 0.929 . S
C179 C180 1.400 . S
C179 C181 1.364 1_565 S
C180 C179 1.400 . S
C180 C184 1.377 . S
C181 C179 1.364 1_545 S
C181 C182 1.374 . S
C182 H173 0.930 . S
C182 C181 1.374 . S
C182 C183 1.383 . S
C183 O177 1.412 . S
C183 C182 1.383 . S
C183 C184 1.394 1_545 S
C184 H174 0.929 . S
C184 C180 1.377 . S
C184 C183 1.394 1_565 S
H185 C192 0.929 . S
H186 C195 0.930 . S
H187 C197 0.929 . S
H188 C189 0.969 . S
C189 H188 0.969 . S
C189 O190 1.550 . S
C189 H191 0.973 . S
O190 C189 1.550 . S
O190 C196 1.412 . S
H191 C189 0.973 . S
C192 H185 0.929 . S
C192 C193 1.400 . S
C192 C194 1.364 . S
C193 C192 1.400 . S
C193 C197 1.377 . S
C194 C192 1.364 . S
C194 C195 1.374 . S
C195 H186 0.930 . S
C195 C194 1.374 . S
C195 C196 1.383 . S
C196 O190 1.412 . S
C196 C195 1.383 . S
C196 C197 1.394 . S
C197 H187 0.929 . S
C197 C193 1.377 . S
C197 C196 1.394 . S
H198 C204 0.930 . S
H199 C208 0.930 . S
H200 C213 0.929 . S
H201 C211 0.929 . S
H202 C206 0.929 . S
H203 C212 0.929 . S
C204 H198 0.930 . S
C204 C205 1.367 . S
C204 C212 1.378 . S
C205 C204 1.367 . S
C205 C213 1.433 . S
C206 H202 0.929 . S
C206 C208 1.378 . S
C206 C210 1.350 . S
C207 C210 1.463 . S
C207 C212 1.350 . S
C207 N215 1.427 . S
C208 H199 0.930 . S
C208 C206 1.378 . S
C208 C209 1.367 . S
C209 C208 1.367 . S
C209 C211 1.433 . S
C210 C206 1.350 . S
C210 C207 1.463 . S
C210 N214 1.427 . S
C211 H201 0.929 . S
C211 C209 1.433 . S
C211 N214 1.384 . S
C212 H203 0.929 . S
C212 C204 1.378 . S
C212 C207 1.350 . S
C213 H200 0.929 . S
C213 C205 1.433 . S
C213 N215 1.384 . S
N214 C210 1.427 . S
N214 C211 1.384 . S
N215 C207 1.427 . S
N215 C213 1.384 . S
H216 C222 0.930 . S
H217 C226 0.930 . S
H218 C231 0.929 . S
H219 C229 0.929 . S
H220 C224 0.929 . S
H221 C230 0.929 . S
C222 H216 0.930 . S
C222 C223 1.367 . S
C222 C230 1.378 . S
C223 C222 1.367 . S
C223 C231 1.433 . S
C224 H220 0.929 . S
C224 C226 1.378 . S
C224 C228 1.350 . S
C225 C228 1.463 . S
C225 C230 1.350 . S
C225 N233 1.427 . S
C226 H217 0.930 . S
C226 C224 1.378 . S
C226 C227 1.367 . S
C227 C226 1.367 . S
C227 C229 1.433 . S
C228 C224 1.350 . S
C228 C225 1.463 . S
C228 N232 1.427 . S
C229 H219 0.929 . S
C229 C227 1.433 . S
C229 N232 1.384 . S
C230 H221 0.929 . S
C230 C222 1.378 . S
C230 C225 1.350 . S
C231 H218 0.929 . S
C231 C223 1.433 . S
C231 N233 1.384 . S
N232 C228 1.427 . S
N232 C229 1.384 . S
N233 C225 1.427 . S
N233 C231 1.384 . S
H234 C240 0.930 . S
H235 C244 0.930 . S
H236 C249 0.929 . S
H237 C247 0.929 . S
H238 C242 0.929 . S
H239 C248 0.929 . S
C240 H234 0.930 . S
C240 C241 1.367 . S
C240 C248 1.378 . S
C241 C240 1.367 . S
C241 C249 1.433 . S
C242 H238 0.929 . S
C242 C244 1.378 . S
C242 C246 1.350 . S
C243 C246 1.463 . S
C243 C248 1.350 . S
C243 N251 1.427 . S
C244 H235 0.930 . S
C244 C242 1.378 . S
C244 C245 1.367 . S
C245 C244 1.367 . S
C245 C247 1.433 . S
C246 C242 1.350 . S
C246 C243 1.463 . S
C246 N250 1.427 . S
C247 H237 0.929 . S
C247 C245 1.433 . S
C247 N250 1.384 . S
C248 H239 0.929 . S
C248 C240 1.378 . S
C248 C243 1.350 . S
C249 H236 0.929 . S
C249 C241 1.433 . S
C249 N251 1.384 . S
N250 C246 1.427 . S
N250 C247 1.384 . S
N251 C243 1.427 . S
N251 C249 1.384 . S
H252 C258 0.930 . S
H253 C262 0.930 . S
H254 C267 0.929 . S
H255 C265 0.929 . S
H256 C260 0.929 . S
H257 C266 0.929 . S
C258 H252 0.930 . S
C258 C259 1.367 . S
C258 C266 1.378 . S
C259 C258 1.367 . S
C259 C267 1.433 . S
C260 H256 0.929 . S
C260 C262 1.378 . S
C260 C264 1.350 . S
C261 C264 1.463 . S
C261 C266 1.350 . S
C261 N269 1.427 . S
C262 H253 0.930 . S
C262 C260 1.378 . S
C262 C263 1.367 . S
C263 C262 1.367 . S
C263 C265 1.433 . S
C264 C260 1.350 . S
C264 C261 1.463 . S
C264 N268 1.427 . S
C265 H255 0.929 . S
C265 C263 1.433 . S
C265 N268 1.384 . S
C266 H257 0.929 . S
C266 C258 1.378 . S
C266 C261 1.350 . S
C267 H254 0.929 . S
C267 C259 1.433 . S
C267 N269 1.384 . S
N268 C264 1.427 . S
N268 C265 1.384 . S
N269 C261 1.427 . S
N269 C267 1.384 . S
H270 C276 0.930 . S
H271 C280 0.930 . S
H272 C285 0.929 . S
H273 C283 0.929 . S
H274 C278 0.929 . S
H275 C284 0.929 . S
C276 H270 0.930 . S
C276 C277 1.367 . S
C276 C284 1.378 . S
C277 C276 1.367 . S
C277 C285 1.433 . S
C278 H274 0.929 . S
C278 C280 1.378 . S
C278 C282 1.350 . S
C279 C282 1.463 . S
C279 C284 1.350 . S
C279 N287 1.427 . S
C280 H271 0.930 . S
C280 C278 1.378 . S
C280 C281 1.367 . S
C281 C280 1.367 . S
C281 C283 1.433 . S
C282 C278 1.350 . S
C282 C279 1.463 . S
C282 N286 1.427 . S
C283 H273 0.929 . S
C283 C281 1.433 . S
C283 N286 1.384 . S
C284 H275 0.929 . S
C284 C276 1.378 . S
C284 C279 1.350 . S
C285 H272 0.929 . S
C285 C277 1.433 . S
C285 N287 1.384 . S
N286 C282 1.427 . S
N286 C283 1.384 . S
N287 C279 1.427 . S
N287 C285 1.384 . S
H288 C294 0.930 . S
H289 C298 0.930 . S
H290 C303 0.929 . S
H291 C301 0.929 . S
H292 C296 0.929 . S
H293 C302 0.929 . S
C294 H288 0.930 . S
C294 C295 1.367 . S
C294 C302 1.378 . S
C295 C294 1.367 . S
C295 C303 1.433 . S
C296 H292 0.929 . S
C296 C298 1.378 . S
C296 C300 1.350 . S
C297 C300 1.463 . S
C297 C302 1.350 . S
C297 N305 1.427 . S
C298 H289 0.930 . S
C298 C296 1.378 . S
C298 C299 1.367 . S
C299 C298 1.367 . S
C299 C301 1.433 . S
C300 C296 1.350 . S
C300 C297 1.463 . S
C300 N304 1.427 . S
C301 H291 0.929 . S
C301 C299 1.433 . S
C301 N304 1.384 . S
C302 H293 0.929 . S
C302 C294 1.378 . S
C302 C297 1.350 . S
C303 H290 0.929 . S
C303 C295 1.433 . S
C303 N305 1.384 . S
N304 C300 1.427 . S
N304 C301 1.384 . S
N305 C297 1.427 . S
N305 C303 1.384 . S
H306 C312 0.930 . S
H307 C316 0.930 . S
H308 C321 0.929 . S
H309 C319 0.929 . S
H310 C314 0.929 . S
H311 C320 0.929 . S
C312 H306 0.930 . S
C312 C313 1.367 . S
C312 C320 1.378 . S
C313 C312 1.367 . S
C313 C321 1.433 . S
C314 H310 0.929 . S
C314 C316 1.378 . S
C314 C318 1.350 . S
C315 C318 1.463 . S
C315 C320 1.350 . S
C315 N323 1.427 . S
C316 H307 0.930 . S
C316 C314 1.378 . S
C316 C317 1.367 . S
C317 C316 1.367 . S
C317 C319 1.433 . S
C318 C314 1.350 . S
C318 C315 1.463 . S
C318 N322 1.427 . S
C319 H309 0.929 . S
C319 C317 1.433 . S
C319 N322 1.384 . S
C320 H311 0.929 . S
C320 C312 1.378 . S
C320 C315 1.350 . S
C321 H308 0.929 . S
C321 C313 1.433 . S
C321 N323 1.384 . S
N322 C318 1.427 . S
N322 C319 1.384 . S
N323 C315 1.427 . S
N323 C321 1.384 . S
H324 C330 0.930 . S
H325 C334 0.930 1_455 S
H326 C339 0.929 . S
H327 C337 0.929 . S
H328 C332 0.929 . S
H329 C338 0.929 . S
C330 H324 0.930 . S
C330 C331 1.367 . S
C330 C338 1.378 . S
C331 C330 1.367 . S
C331 C339 1.433 . S
C332 H328 0.929 . S
C332 C334 1.378 . S
C332 C336 1.350 . S
C333 C336 1.463 . S
C333 C338 1.350 . S
C333 N341 1.427 . S
C334 H325 0.930 1_655 S
C334 C332 1.378 . S
C334 C335 1.367 . S
C335 C334 1.367 . S
C335 C337 1.433 . S
C336 C332 1.350 . S
C336 C333 1.463 . S
C336 N340 1.427 . S
C337 H327 0.929 . S
C337 C335 1.433 . S
C337 N340 1.384 . S
C338 H329 0.929 . S
C338 C330 1.378 . S
C338 C333 1.350 . S
C339 H326 0.929 . S
C339 C331 1.433 . S
C339 N341 1.384 . S
N340 C336 1.427 . S
N340 C337 1.384 . S
N341 C333 1.427 . S
N341 C339 1.384 . S
H342 C348 0.930 . S
H343 C352 0.930 . S
H344 C357 0.929 . S
H345 C355 0.929 . S
H346 C350 0.929 . S
H347 C356 0.929 . S
C348 H342 0.930 . S
C348 C349 1.367 . S
C348 C356 1.378 . S
C349 C348 1.367 . S
C349 C357 1.433 . S
C350 H346 0.929 . S
C350 C352 1.378 . S
C350 C354 1.350 . S
C351 C354 1.463 . S
C351 C356 1.350 . S
C351 N359 1.427 . S
C352 H343 0.930 . S
C352 C350 1.378 . S
C352 C353 1.367 . S
C353 C352 1.367 . S
C353 C355 1.433 . S
C354 C350 1.350 . S
C354 C351 1.463 . S
C354 N358 1.427 . S
C355 H345 0.929 . S
C355 C353 1.433 . S
C355 N358 1.384 . S
C356 H347 0.929 . S
C356 C348 1.378 . S
C356 C351 1.350 . S
C357 H344 0.929 . S
C357 C349 1.433 . S
C357 N359 1.384 . S
N358 C354 1.427 . S
N358 C355 1.384 . S
N359 C351 1.427 . S
N359 C357 1.384 . S
H360 C366 0.930 . S
H361 C370 0.930 . S
H362 C375 0.929 . S
H363 C373 0.929 . S
H364 C368 0.929 . S
H365 C374 0.929 . S
C366 H360 0.930 . S
C366 C367 1.367 . S
C366 C374 1.378 . S
C367 C366 1.367 . S
C367 C375 1.433 . S
C368 H364 0.929 . S
C368 C370 1.378 . S
C368 C372 1.350 . S
C369 C372 1.463 . S
C369 C374 1.350 . S
C369 N377 1.427 . S
C370 H361 0.930 . S
C370 C368 1.378 . S
C370 C371 1.367 . S
C371 C370 1.367 . S
C371 C373 1.433 . S
C372 C368 1.350 . S
C372 C369 1.463 . S
C372 N376 1.427 . S
C373 H363 0.929 . S
C373 C371 1.433 . S
C373 N376 1.384 . S
C374 H365 0.929 . S
C374 C366 1.378 . S
C374 C369 1.350 . S
C375 H362 0.929 . S
C375 C367 1.433 . S
C375 N377 1.384 . S
N376 C372 1.427 . S
N376 C373 1.384 . S
N377 C369 1.427 . S
N377 C375 1.384 . S
H378 C384 0.930 . S
H379 C388 0.930 . S
H380 C393 0.929 . S
H381 C391 0.929 . S
H382 C386 0.929 . S
H383 C392 0.929 . S
C384 H378 0.930 . S
C384 C385 1.367 . S
C384 C392 1.378 . S
C385 C384 1.367 . S
C385 C393 1.433 . S
C386 H382 0.929 . S
C386 C388 1.378 . S
C386 C390 1.350 . S
C387 C390 1.463 . S
C387 C392 1.350 . S
C387 N395 1.427 . S
C388 H379 0.930 . S
C388 C386 1.378 . S
C388 C389 1.367 . S
C389 C388 1.367 . S
C389 C391 1.433 . S
C390 C386 1.350 . S
C390 C387 1.463 . S
C390 N394 1.427 . S
C391 H381 0.929 . S
C391 C389 1.433 . S
C391 N394 1.384 . S
C392 H383 0.929 . S
C392 C384 1.378 . S
C392 C387 1.350 . S
C393 H380 0.929 . S
C393 C385 1.433 . S
C393 N395 1.384 . S
N394 C390 1.427 . S
N394 C391 1.384 . S
N395 C387 1.427 . S
N395 C393 1.384 . S
H396 C402 0.930 . S
H397 C406 0.930 . S
H398 C411 0.929 . S
H399 C409 0.929 . S
H400 C404 0.929 . S
H401 C410 0.929 . S
C402 H396 0.930 . S
C402 C403 1.367 . S
C402 C410 1.378 . S
C403 C402 1.367 . S
C403 C411 1.433 . S
C404 H400 0.929 . S
C404 C406 1.378 . S
C404 C408 1.350 . S
C405 C408 1.463 . S
C405 C410 1.350 . S
C405 N413 1.427 . S
C406 H397 0.930 . S
C406 C404 1.378 . S
C406 C407 1.367 . S
C407 C406 1.367 . S
C407 C409 1.433 . S
C408 C404 1.350 . S
C408 C405 1.463 . S
C408 N412 1.427 . S
C409 H399 0.929 . S
C409 C407 1.433 . S
C409 N412 1.384 . S
C410 H401 0.929 . S
C410 C402 1.378 . S
C410 C405 1.350 . S
C411 H398 0.929 . S
C411 C403 1.433 . S
C411 N413 1.384 . S
N412 C408 1.427 . S
N412 C409 1.384 . S
N413 C405 1.427 . S
N413 C411 1.384 . S
H414 C420 0.930 . S
H415 C424 0.930 . S
H416 C429 0.929 . S
H417 C427 0.929 . S
H418 C422 0.930 . S
H419 C428 0.929 . S
C420 H414 0.930 . S
C420 C421 1.367 . S
C420 C428 1.378 . S
C421 C420 1.367 . S
C421 C429 1.433 1_455 S
C422 H418 0.930 . S
C422 C424 1.378 . S
C422 C426 1.350 1_656 S
C423 C426 1.463 . S
C423 C428 1.350 . S
C423 N431 1.427 1_455 S
C424 H415 0.930 . S
C424 C422 1.378 . S
C424 C425 1.367 1_655 S
C425 C424 1.367 1_455 S
C425 C427 1.433 . S
C426 C422 1.350 1_454 S
C426 C423 1.463 . S
C426 N430 1.427 1_554 S
C427 H417 0.929 . S
C427 C425 1.433 . S
C427 N430 1.384 . S
C428 H419 0.929 . S
C428 C420 1.378 . S
C428 C423 1.350 . S
C429 H416 0.929 . S
C429 C421 1.433 1_655 S
C429 N431 1.384 . S
N430 C426 1.427 1_556 S
N430 C427 1.384 . S
N431 C423 1.427 1_655 S
N431 C429 1.384 . S
H432 C438 0.930 1_565 S
H433 C442 0.930 . S
H434 C447 0.929 . S
H435 C445 0.929 1_565 S
H436 C440 0.929 . S
H437 C446 0.929 1_565 S
C438 H432 0.930 1_545 S
C438 C439 1.367 . S
C438 C446 1.378 . S
C439 C438 1.367 . S
C439 C447 1.433 . S
C440 H436 0.929 . S
C440 C442 1.378 . S
C440 C444 1.350 . S
C441 C444 1.463 . S
C441 C446 1.350 . S
C441 N449 1.427 . S
C442 H433 0.930 . S
C442 C440 1.378 . S
C442 C443 1.367 . S
C443 C442 1.367 . S
C443 C445 1.433 . S
C444 C440 1.350 . S
C444 C441 1.463 . S
C444 N448 1.427 . S
C445 H435 0.929 1_545 S
C445 C443 1.433 . S
C445 N448 1.384 . S
C446 H437 0.929 1_545 S
C446 C438 1.378 . S
C446 C441 1.350 . S
C447 H434 0.929 . S
C447 C439 1.433 . S
C447 N449 1.384 . S
N448 C444 1.427 . S
N448 C445 1.384 . S
N449 C441 1.427 . S
N449 C447 1.384 . S
H450 C456 0.930 . S
H451 C460 0.930 . S
H452 C465 0.929 . S
H453 C463 0.929 . S
H454 C458 0.929 . S
H455 C464 0.929 . S
C456 H450 0.930 . S
C456 C457 1.367 . S
C456 C464 1.378 . S
C457 C456 1.367 . S
C457 C465 1.433 . S
C458 H454 0.929 . S
C458 C460 1.378 . S
C458 C462 1.350 . S
C459 C462 1.463 . S
C459 C464 1.350 . S
C459 N467 1.427 . S
C460 H451 0.930 . S
C460 C458 1.378 . S
C460 C461 1.367 . S
C461 C460 1.367 . S
C461 C463 1.433 . S
C462 C458 1.350 . S
C462 C459 1.463 . S
C462 N466 1.427 . S
C463 H453 0.929 . S
C463 C461 1.433 . S
C463 N466 1.384 . S
C464 H455 0.929 . S
C464 C456 1.378 . S
C464 C459 1.350 . S
C465 H452 0.929 . S
C465 C457 1.433 . S
C465 N467 1.384 . S
N466 C462 1.427 . S
N466 C463 1.384 . S
N467 C459 1.427 . S
N467 C465 1.384 . S
H468 C474 0.930 . S
H469 C478 0.930 . S
H470 C483 0.929 . S
H471 C481 0.929 . S
H472 C476 0.929 . S
H473 C482 0.929 . S
C474 H468 0.930 . S
C474 C475 1.367 1_565 S
C474 C482 1.378 . S
C475 C474 1.367 1_545 S
C475 C483 1.433 . S
C476 H472 0.929 . S
C476 C478 1.378 . S
C476 C480 1.350 . S
C477 C480 1.463 . S
C477 C482 1.350 1_545 S
C477 N485 1.427 . S
C478 H469 0.930 . S
C478 C476 1.378 . S
C478 C479 1.367 . S
C479 C478 1.367 . S
C479 C481 1.433 1_545 S
C480 C476 1.350 . S
C480 C477 1.463 . S
C480 N484 1.427 1_545 S
C481 H471 0.929 . S
C481 C479 1.433 1_565 S
C481 N484 1.384 . S
C482 H473 0.929 . S
C482 C474 1.378 . S
C482 C477 1.350 1_565 S
C483 H470 0.929 . S
C483 C475 1.433 . S
C483 N485 1.384 . S
N484 C480 1.427 1_565 S
N484 C481 1.384 . S
N485 C477 1.427 . S
N485 C483 1.384 . S
H486 C492 0.930 . S
H487 C496 0.930 . S
H488 C501 0.929 . S
H489 C499 0.929 . S
H490 C494 0.929 . S
H491 C500 0.929 . S
C492 H486 0.930 . S
C492 C493 1.367 . S
C492 C500 1.378 . S
C493 C492 1.367 . S
C493 C501 1.433 . S
C494 H490 0.929 . S
C494 C496 1.378 . S
C494 C498 1.350 . S
C495 C498 1.463 1_556 S
C495 C500 1.350 . S
C495 N503 1.427 . S
C496 H487 0.930 . S
C496 C494 1.378 . S
C496 C497 1.367 . S
C497 C496 1.367 . S
C497 C499 1.433 . S
C498 C494 1.350 . S
C498 C495 1.463 1_554 S
C498 N502 1.427 . S
C499 H489 0.929 . S
C499 C497 1.433 . S
C499 N502 1.384 . S
C500 H491 0.929 . S
C500 C492 1.378 . S
C500 C495 1.350 . S
C501 H488 0.929 . S
C501 C493 1.433 . S
C501 N503 1.384 . S
N502 C498 1.427 . S
N502 C499 1.384 . S
N503 C495 1.427 . S
N503 C501 1.384 . S
H504 C510 0.930 1_655 S
H505 C514 0.930 . S
H506 C519 0.929 . S
H507 C517 0.929 . S
H508 C512 0.929 . S
H509 C518 0.929 1_655 S
C510 H504 0.930 1_455 S
C510 C511 1.367 . S
C510 C518 1.378 . S
C511 C510 1.367 . S
C511 C519 1.433 . S
C512 H508 0.929 . S
C512 C514 1.378 . S
C512 C516 1.350 . S
C513 C516 1.463 . S
C513 C518 1.350 . S
C513 N521 1.427 . S
C514 H505 0.930 . S
C514 C512 1.378 . S
C514 C515 1.367 . S
C515 C514 1.367 . S
C515 C517 1.433 . S
C516 C512 1.350 . S
C516 C513 1.463 . S
C516 N520 1.427 . S
C517 H507 0.929 . S
C517 C515 1.433 . S
C517 N520 1.384 . S
C518 H509 0.929 1_455 S
C518 C510 1.378 . S
C518 C513 1.350 . S
C519 H506 0.929 . S
C519 C511 1.433 . S
C519 N521 1.384 . S
N520 C516 1.427 . S
N520 C517 1.384 . S
N521 C513 1.427 . S
N521 C519 1.384 . S
C205 C19 3.039 . S
C209 C189 2.862 . S
C223 C49 2.991 . S
C227 C167 2.954 1_655 S
C241 C99 2.923 . S
C245 C180 2.902 . S
C259 C9 2.998 . S
C263 C193 2.964 . S
C281 C163 2.890 . S
C277 C59 3.049 . S
C299 C176 2.932 . S
C295 C89 3.135 . S
C313 C55 0.213 . S
C317 C141 0.226 . S
C331 C85 0.357 . S
C335 C154 0.260 . S
C349 C15 0.444 . S
C353 C124 0.524 . S
C371 C137 0.468 . S
C367 C45 0.435 . S
C389 C150 0.579 . S
C385 C95 0.545 . S
C403 C5 0.344 . S
C407 C128 0.222 . S
C425 C155 1.244 . S
C421 C18 1.220 . S
C439 C58 1.266 . S
C443 C129 1.272 . S
C457 C98 1.157 . S
C461 C142 1.211 . S
C479 C181 1.811 . S
C475 C48 1.696 . S
C497 C194 1.734 . S
C493 C88 1.688 . S
C511 C8 1.689 . S
C515 C168 1.764 . S
