# Generated by pormake.
# Topology zzz, (3,6)-cn, num edge types: 1
# Building blocks:
#     Node 0, Type 0, BuildingBlock: ESEHIV_clean_linker_0, # of connection points: 3
#     Node 1, Type 0, BuildingBlock: ESEHIV_clean_linker_0, # of connection points: 3
#     Node 2, Type 0, BuildingBlock: ESEHIV_clean_linker_0, # of connection points: 3
#     Node 3, Type 0, BuildingBlock: ESEHIV_clean_linker_0, # of connection points: 3
#     Node 4, Type 0, BuildingBlock: ESEHIV_clean_linker_0, # of connection points: 3
#     Node 5, Type 0, BuildingBlock: ESEHIV_clean_linker_0, # of connection points: 3
#     Node 6, Type 0, BuildingBlock: ESEHIV_clean_linker_0, # of connection points: 3
#     Node 7, Type 0, BuildingBlock: ESEHIV_clean_linker_0, # of connection points: 3
#     Node 8, Type 1, BuildingBlock: BETDIP_clean_sbu_0, # of connection points: 6
#     Node 9, Type 1, BuildingBlock: BETDIP_clean_sbu_0, # of connection points: 6
#     Node 10, Type 1, BuildingBlock: BETDIP_clean_sbu_0, # of connection points: 6
#     Node 11, Type 1, BuildingBlock: BETDIP_clean_sbu_0, # of connection points: 6
#     Edge 12, Type (0, 1), BuildingBlock: UVAHIK_clean_linker_0, # of connection points: 2
#     Edge 13, Type (0, 1), BuildingBlock: UVAHIK_clean_linker_0, # of connection points: 2
#     Edge 14, Type (0, 1), BuildingBlock: UVAHIK_clean_linker_0, # of connection points: 2
#     Edge 15, Type (0, 1), BuildingBlock: UVAHIK_clean_linker_0, # of connection points: 2
#     Edge 16, Type (0, 1), BuildingBlock: UVAHIK_clean_linker_0, # of connection points: 2
#     Edge 17, Type (0, 1), BuildingBlock: UVAHIK_clean_linker_0, # of connection points: 2
#     Edge 18, Type (0, 1), BuildingBlock: UVAHIK_clean_linker_0, # of connection points: 2
#     Edge 19, Type (0, 1), BuildingBlock: UVAHIK_clean_linker_0, # of connection points: 2
#     Edge 20, Type (0, 1), BuildingBlock: UVAHIK_clean_linker_0, # of connection points: 2
#     Edge 21, Type (0, 1), BuildingBlock: UVAHIK_clean_linker_0, # of connection points: 2
#     Edge 22, Type (0, 1), BuildingBlock: UVAHIK_clean_linker_0, # of connection points: 2
#     Edge 23, Type (0, 1), BuildingBlock: UVAHIK_clean_linker_0, # of connection points: 2
#     Edge 24, Type (0, 1), BuildingBlock: UVAHIK_clean_linker_0, # of connection points: 2
#     Edge 25, Type (0, 1), BuildingBlock: UVAHIK_clean_linker_0, # of connection points: 2
#     Edge 26, Type (0, 1), BuildingBlock: UVAHIK_clean_linker_0, # of connection points: 2
#     Edge 27, Type (0, 1), BuildingBlock: UVAHIK_clean_linker_0, # of connection points: 2
#     Edge 28, Type (0, 1), BuildingBlock: UVAHIK_clean_linker_0, # of connection points: 2
#     Edge 29, Type (0, 1), BuildingBlock: UVAHIK_clean_linker_0, # of connection points: 2
#     Edge 30, Type (0, 1), BuildingBlock: UVAHIK_clean_linker_0, # of connection points: 2
#     Edge 31, Type (0, 1), BuildingBlock: UVAHIK_clean_linker_0, # of connection points: 2
#     Edge 32, Type (0, 1), BuildingBlock: UVAHIK_clean_linker_0, # of connection points: 2
#     Edge 33, Type (0, 1), BuildingBlock: UVAHIK_clean_linker_0, # of connection points: 2
#     Edge 34, Type (0, 1), BuildingBlock: UVAHIK_clean_linker_0, # of connection points: 2
#     Edge 35, Type (0, 1), BuildingBlock: UVAHIK_clean_linker_0, # of connection points: 2
# Relax obj value: 0.439
# Max RMSD: 0.263
# Mean RMSD: 0.241
data_MOF--net-zzz--node1-BETDIP_clean_sbu_0--node2-ESEHIV_clean_linker_0--edge1-UVAHIK_clean_linker_0
_symmetry_space_group_name_H-M    P1
_symmetry_Int_Tables_number       1
_symmetry_cell_setting            triclinic
loop_
_symmetry_equiv_pos_as_xyz
'x, y, z'
_cell_length_a     60.214816
_cell_length_b     60.248117
_cell_length_c     18.814699
_cell_angle_alpha  89.787747
_cell_angle_beta   89.975944
_cell_angle_gamma 89.926522
loop_
_atom_site_label
_atom_site_type_symbol
_atom_site_fract_x
_atom_site_fract_y
_atom_site_fract_z
_atom_type_partial_charge
H0 H 0.77656 0.45651 0.30506 0.0
H1 H 0.71743 0.45338 0.17933 0.0
H2 H 0.72436 0.50415 0.33952 0.0
C3 C 0.75997 0.46255 0.2933 0.0
C4 C 0.75187 0.48119 0.32928 0.0
C5 C 0.74767 0.4526 0.23914 0.0
C6 C 0.72662 0.46092 0.22248 0.0
C7 C 0.71765 0.47921 0.25908 0.0
C8 C 0.73065 0.48968 0.31203 0.0
H9 H 0.05093 0.77594 0.28453 0.0
H10 H 0.04056 0.72241 0.13823 0.0
H11 H 1.00069 0.72698 0.32765 0.0
C12 C 0.04234 0.76086 0.26976 0.0
C13 C 0.02514 0.75304 0.31349 0.0
C14 C 0.04775 0.7504 0.20555 0.0
C15 C 0.03676 0.7307 0.18781 0.0
C16 C 0.02022 0.72184 0.23222 0.0
C17 C 0.01402 0.73328 0.29461 0.0
H18 H 0.73243 0.04333 0.30078 0.0
H19 H 0.78783 0.0471 0.1578 0.0
H20 H 0.7881 0.99961 0.33016 0.0
C21 C 0.74874 0.03772 0.28409 0.0
C22 C 0.75883 0.02032 0.32144 0.0
C23 C 0.75879 0.04723 0.22419 0.0
C24 C 0.78014 0.0402 0.20503 0.0
C25 C 0.79128 0.02349 0.24376 0.0
C26 C 0.7802 0.01304 0.30126 0.0
H27 H 0.4506 0.73783 0.32263 0.0
H28 H 0.50691 0.78164 0.31669 0.0
H29 H 0.45157 0.79216 0.1749 0.0
C30 C 0.45835 0.75286 0.30268 0.0
C31 C 0.44847 0.76441 0.24618 0.0
C32 C 0.47927 0.75892 0.32894 0.0
C33 C 0.49038 0.77734 0.29874 0.0
C34 C 0.48028 0.78956 0.24312 0.0
C35 C 0.45924 0.78308 0.21831 0.0
H36 H 0.23972 0.55834 0.12503 0.0
H37 H 0.29755 0.55069 0.25541 0.0
H38 H 0.28498 0.5042 0.08649 0.0
C39 C 0.25522 0.54985 0.13626 0.0
C40 C 0.26097 0.53093 0.09681 0.0
C41 C 0.26816 0.55696 0.19363 0.0
C42 C 0.28755 0.54534 0.2107 0.0
C43 C 0.29387 0.52649 0.17207 0.0
C44 C 0.2804 0.51902 0.11547 0.0
H45 H 0.95111 0.23822 0.12782 0.0
H46 H 0.95752 0.2975 0.25085 0.0
H47 H 0.00597 0.28254 0.08884 0.0
C48 C 0.95958 0.25378 0.13786 0.0
C49 C 0.97892 0.25895 0.09942 0.0
C50 C 0.95192 0.26742 0.19272 0.0
C51 C 0.96334 0.28699 0.20797 0.0
C52 C 0.98267 0.29275 0.1705 0.0
C53 C 0.99081 0.27843 0.11696 0.0
H54 H 0.27504 0.96342 0.1198 0.0
H55 H 0.22196 0.9748 0.26758 0.0
H56 H 0.22536 0.01283 0.07357 0.0
C57 C 0.2599 0.97203 0.13426 0.0
C58 C 0.2517 0.98868 0.08895 0.0
C59 C 0.24971 0.96717 0.19949 0.0
C60 C 0.23001 0.97822 0.21716 0.0
C61 C 0.22084 0.9943 0.17156 0.0
C62 C 0.23192 0.99988 0.10773 0.0
H63 H 0.55968 0.27338 0.12453 0.0
H64 H 0.51118 0.22315 0.07551 0.0
H65 H 0.5576 0.21379 0.2483 0.0
C66 C 0.55271 0.25702 0.13378 0.0
C67 C 0.56084 0.2442 0.19007 0.0
C68 C 0.53483 0.24978 0.0921 0.0
C69 C 0.52502 0.22894 0.10717 0.0
C70 C 0.53376 0.21539 0.1623 0.0
C71 C 0.55137 0.2235 0.20392 0.0
Tb72 Tb 0.02113 0.99963 0.76022 0.0
Tb73 Tb 0.99086 0.01231 0.64934 0.0
C74 C 0.04191 0.97922 0.85569 0.0
C75 C 0.05389 0.95779 0.85418 0.0
C76 C 0.04418 0.939 0.88546 0.0
C77 C 0.05425 0.91825 0.87924 0.0
C78 C 0.07436 0.91581 0.84204 0.0
C79 C 0.08445 0.93467 0.81231 0.0
C80 C 0.07427 0.95548 0.81805 0.0
C81 C 0.0411 0.01443 0.64366 0.0
C82 C 1.00428 0.963 0.65035 0.0
C83 C 0.97037 0.03154 0.55038 0.0
C84 C 0.95686 0.05199 0.54527 0.0
C85 C 0.96687 0.07304 0.545 0.0
C86 C 0.95392 0.09218 0.53935 0.0
C87 C 0.93064 0.09079 0.53413 0.0
C88 C 0.92063 0.06972 0.53534 0.0
C89 C 0.93361 0.05054 0.5405 0.0
C90 C 0.97072 0.99743 0.76572 0.0
C91 C 0.00717 0.04874 0.76175 0.0
O92 O 0.02034 0.97808 0.84801 0.0
O93 O 0.0505 0.99545 0.81856 0.0
O94 O 0.02456 1.00169 0.64617 0.0
O95 O 0.04734 0.01867 0.70782 0.0
O96 O 0.01151 0.96723 0.71525 0.0
O97 O 0.99843 0.97947 0.60788 0.0
O98 O 0.99169 0.03392 0.56176 0.0
O99 O 0.9619 0.01547 0.58838 0.0
O100 O 0.98734 0.01007 0.76332 0.0
O101 O 0.96433 0.99363 0.70142 0.0
O102 O 0.99985 0.04478 0.69654 0.0
O103 O 0.01341 0.03213 0.80315 0.0
H104 H 0.02859 0.94029 0.91393 0.0
H105 H 0.04635 0.90409 0.90429 0.0
H106 H 0.09999 0.93328 0.78368 0.0
H107 H 0.08223 0.96963 0.79326 0.0
H108 H 0.98474 0.07478 0.54833 0.0
H109 H 0.96229 0.10806 0.53691 0.0
H110 H 0.90276 0.06803 0.53195 0.0
H111 H 0.92544 0.03453 0.54053 0.0
Tb112 Tb 0.511 0.02053 0.75697 0.0
Tb113 Tb 0.50041 0.98836 0.6519 0.0
C114 C 0.52949 0.04313 0.85183 0.0
C115 C 0.55046 0.05591 0.85335 0.0
C116 C 0.57079 0.04516 0.86598 0.0
C117 C 0.59059 0.05712 0.86575 0.0
C118 C 0.59062 0.08014 0.85289 0.0
C119 C 0.57028 0.09093 0.8403 0.0
C120 C 0.55041 0.07894 0.84071 0.0
C121 C 0.49667 0.03861 0.63678 0.0
C122 C 0.54923 1.00282 0.65226 0.0
C123 C 0.4814 0.96513 0.55979 0.0
C124 C 0.45931 0.95437 0.55999 0.0
C125 C 0.44048 0.96612 0.53696 0.0
C126 C 0.41943 0.95665 0.54205 0.0
C127 C 0.41665 0.93515 0.57014 0.0
C128 C 0.4355 0.92319 0.59191 0.0
C129 C 0.45663 0.93269 0.5868 0.0
C130 C 0.51505 0.97085 0.77269 0.0
C131 C 0.4622 0.00618 0.75526 0.0
O132 O 0.53126 0.02152 0.84749 0.0
O133 O 0.51392 0.05088 0.81029 0.0
O134 O 0.50981 0.02237 0.64224 0.0
O135 O 0.49172 0.04543 0.69982 0.0
O136 O 0.54414 0.01188 0.71424 0.0
O137 O 0.53344 0.99487 0.61105 0.0
O138 O 0.48157 0.98686 0.55824 0.0
O139 O 0.49586 0.95721 0.60492 0.0
O140 O 0.50137 0.98658 0.7664 0.0
O141 O 0.52073 0.96434 0.70995 0.0
O142 O 0.46727 0.99807 0.69206 0.0
O143 O 0.4781 0.01313 0.79783 0.0
H144 H 0.57147 0.02748 0.8764 0.0
H145 H 0.60585 0.04832 0.87764 0.0
H146 H 0.56972 0.10863 0.8302 0.0
H147 H 0.53498 0.08771 0.831 0.0
H148 H 0.44194 0.98276 0.51546 0.0
H149 H 0.40534 0.9661 0.52283 0.0
H150 H 0.43392 0.90659 0.61356 0.0
H151 H 0.47082 0.92313 0.60476 0.0
Tb152 Tb 0.489 0.5111 0.77621 0.0
Tb153 Tb 0.51971 0.49967 0.66457 0.0
C154 C 0.46825 0.52818 0.87832 0.0
C155 C 0.45377 0.54769 0.88905 0.0
C156 C 0.46195 0.5694 0.88191 0.0
C157 C 0.44822 0.58757 0.8956 0.0
C158 C 0.42594 0.58448 0.91625 0.0
C159 C 0.41765 0.56273 0.92143 0.0
C160 C 0.43146 0.54454 0.90831 0.0
C161 C 0.46934 0.49734 0.65806 0.0
C162 C 0.50545 0.54893 0.66802 0.0
C163 C 0.54061 0.4818 0.5643 0.0
C164 C 0.55374 0.4612 0.55718 0.0
C165 C 0.5434 0.44032 0.55583 0.0
C166 C 0.55606 0.42104 0.54879 0.0
C167 C 0.57935 0.42214 0.54333 0.0
C168 C 0.58968 0.44303 0.54566 0.0
C169 C 0.57699 0.46235 0.55214 0.0
C170 C 0.53943 0.51361 0.7825 0.0
C171 C 0.5036 0.46193 0.77205 0.0
O172 O 0.4893 0.53187 0.86533 0.0
O173 O 0.46015 0.51246 0.83844 0.0
O174 O 0.48589 0.51002 0.66204 0.0
O175 O 0.46279 0.49272 0.72175 0.0
O176 O 0.49704 0.54424 0.7315 0.0
O177 O 0.51252 0.53288 0.62617 0.0
O178 O 0.51915 0.47971 0.57349 0.0
O179 O 0.54909 0.49695 0.60556 0.0
O180 O 0.5229 0.50088 0.77884 0.0
O181 O 0.54591 0.51804 0.71861 0.0
O182 O 0.51078 0.46662 0.70725 0.0
O183 O 0.49746 0.47807 0.81505 0.0
H184 H 0.47907 0.57241 0.86706 0.0
H185 H 0.45536 0.60403 0.89236 0.0
H186 H 0.40055 0.55972 0.93636 0.0
H187 H 0.42475 0.52795 0.914 0.0
H188 H 0.52552 0.43881 0.55947 0.0
H189 H 0.54745 0.4053 0.54555 0.0
H190 H 0.60757 0.44449 0.54217 0.0
H191 H 0.58539 0.47824 0.5531 0.0
Tb192 Tb 1.00148 0.48923 0.76621 0.0
Tb193 Tb 0.01162 0.51979 0.65381 0.0
C194 C 0.98523 0.46809 0.86935 0.0
C195 C 0.96629 0.45311 0.87808 0.0
C196 C 0.95272 0.44775 0.82005 0.0
C197 C 0.93416 0.43416 0.82965 0.0
C198 C 0.92902 0.42564 0.89739 0.0
C199 C 0.94312 0.43059 0.95483 0.0
C200 C 0.96159 0.44424 0.94519 0.0
C201 C 0.0155 0.46954 0.64835 0.0
C202 C 0.9628 0.50453 0.65956 0.0
C203 C 0.02885 0.54116 0.553 0.0
C204 C 0.04959 0.55399 0.54485 0.0
C205 C 0.07042 0.54349 0.54585 0.0
C206 C 0.08984 0.5559 0.53856 0.0
C207 C 0.08892 0.57913 0.5306 0.0
C208 C 0.06805 0.58963 0.53043 0.0
C209 C 0.0486 0.57717 0.53713 0.0
C210 C 0.99725 0.53934 0.7715 0.0
C211 C 0.05008 0.50487 0.76058 0.0
O212 O 0.98034 0.48877 0.85484 0.0
O213 O 1.00132 0.46059 0.8296 0.0
O214 O 1.00224 0.48567 0.65207 0.0
O215 O 0.02073 0.46356 0.71212 0.0
O216 O 0.96801 0.49662 0.72326 0.0
O217 O 0.9785 0.5118 0.61649 0.0
O218 O 0.0307 0.51962 0.56051 0.0
O219 O 0.0142 0.54956 0.59641 0.0
O220 O 0.01071 0.52337 0.76793 0.0
O221 O 0.99199 0.54521 0.70762 0.0
O222 O 0.04506 0.5116 0.69548 0.0
O223 O 0.03414 0.49871 0.80443 0.0
H224 H 0.9563 0.45432 0.76762 0.0
H225 H 0.92369 0.43055 0.78437 0.0
H226 H 0.93941 0.42465 0.00791 0.0
H227 H 0.97197 0.44821 0.99042 0.0
H228 H 0.0718 0.52565 0.55172 0.0
H229 H 0.10555 0.54715 0.53732 0.0
H230 H 0.06672 0.60748 0.52504 0.0
H231 H 0.03274 0.58568 0.5364 0.0
C232 C 0.1795 0.99766 0.16678 0.0
C233 C 0.19986 0.00503 0.19419 0.0
C234 C 0.15955 1.00266 0.2019 0.0
C235 C 0.13452 0.03705 0.34663 0.0
H236 H 0.09776 0.98518 0.37846 0.0
C237 C 0.07574 0.0292 0.58766 0.0
C238 C 0.05582 0.01728 0.58105 0.0
C239 C 0.09081 0.03038 0.53114 0.0
C240 C 0.10751 0.99999 0.36924 0.0
H241 H 0.21539 0.0241 0.27757 0.0
H242 H 0.18074 0.03319 0.33823 0.0
H243 H 0.12829 0.98338 0.29384 0.0
H244 H 0.03566 0.99791 0.50901 0.0
H245 H 0.0619 1.00011 0.40968 0.0
H246 H 0.11406 0.0535 0.42335 0.0
C247 C 0.17995 0.02375 0.28943 0.0
C248 C 0.12508 0.99897 0.32047 0.0
C249 C 0.19984 0.01863 0.25462 0.0
C250 C 0.05093 0.00715 0.51575 0.0
C251 C 0.06605 0.0083 0.45904 0.0
C252 C 0.11692 0.0381 0.39527 0.0
C253 C 0.1596 0.01515 0.2651 0.0
C254 C 0.13913 0.01733 0.30961 0.0
C255 C 0.08637 0.01968 0.4663 0.0
C256 C 0.10347 0.01942 0.40851 0.0
H257 H 0.17915 0.98679 0.12105 0.0
H258 H 0.14418 0.99598 0.18118 0.0
H259 H 0.14477 0.05162 0.33889 0.0
H260 H 0.07998 0.03719 0.63731 0.0
H261 H 0.10634 0.03903 0.53936 0.0
C262 C 0.53999 0.17559 0.19429 0.0
C263 C 0.52495 0.1929 0.17991 0.0
C264 C 0.533 0.15605 0.22737 0.0
C265 C 0.48718 0.13556 0.34347 0.0
H266 H 0.52334 0.08235 0.34003 0.0
C267 C 0.48856 0.07551 0.5817 0.0
C268 C 0.49501 0.05326 0.57341 0.0
C269 C 0.48876 0.0902 0.52403 0.0
C270 C 0.51266 0.09679 0.34133 0.0
H271 H 0.49029 0.20232 0.18297 0.0
H272 H 0.47767 0.16757 0.23755 0.0
H273 H 0.52874 0.11064 0.25027 0.0
H274 H 0.50575 0.02867 0.49729 0.0
H275 H 0.505 0.05395 0.39527 0.0
H276 H 0.47031 0.12122 0.43225 0.0
C277 C 0.49517 0.16949 0.226 0.0
C278 C 0.51608 0.11339 0.29012 0.0
C279 C 0.50229 0.18932 0.1935 0.0
C280 C 0.50083 0.04578 0.50533 0.0
C281 C 0.50058 0.06041 0.44696 0.0
C282 C 0.48337 0.11871 0.39358 0.0
C283 C 0.51058 0.15289 0.24608 0.0
C284 C 0.50405 0.13348 0.29206 0.0
C285 C 0.49492 0.08302 0.45557 0.0
C286 C 0.49665 0.09941 0.39527 0.0
H287 H 0.55755 0.17773 0.18372 0.0
H288 H 0.54561 0.14408 0.24205 0.0
H289 H 0.47747 0.15062 0.34754 0.0
H290 H 0.48408 0.08187 0.63355 0.0
H291 H 0.48481 0.10741 0.53423 0.0
C292 C 0.33507 0.52274 0.17355 0.0
C293 C 0.31425 0.5148 0.19537 0.0
C294 C 0.35434 0.51687 0.21097 0.0
C295 C 0.37676 0.47985 0.35472 0.0
H296 H 0.41413 0.53061 0.39523 0.0
C297 C 0.46008 0.50597 0.53052 0.0
C298 C 0.45478 0.4953 0.59483 0.0
C299 C 0.44512 0.50573 0.47334 0.0
C300 C 0.40419 0.5161 0.38365 0.0
H301 H 0.2972 0.49406 0.27173 0.0
H302 H 0.33071 0.48361 0.33699 0.0
H303 H 0.3844 0.53405 0.30855 0.0
H304 H 0.43004 0.47531 0.64872 0.0
H305 H 0.40395 0.47502 0.54978 0.0
H306 H 0.39627 0.46209 0.43146 0.0
C307 C 0.3324 0.49403 0.2903 0.0
C308 C 0.38707 0.51807 0.33364 0.0
C309 C 0.31316 0.4999 0.25275 0.0
C310 C 0.4346 0.48371 0.59986 0.0
C311 C 0.41968 0.48343 0.54282 0.0
C312 C 0.39391 0.47788 0.40481 0.0
C313 C 0.35316 0.50311 0.27159 0.0
C314 C 0.37287 0.50008 0.3192 0.0
C315 C 0.42454 0.49475 0.4791 0.0
C316 C 0.40763 0.4961 0.42089 0.0
H317 H 0.33625 0.53464 0.1304 0.0
H318 H 0.37004 0.5239 0.19423 0.0
H319 H 0.3664 0.46554 0.34436 0.0
H320 H 0.47556 0.51497 0.52494 0.0
H321 H 0.4496 0.51436 0.42483 0.0
C322 C 0.01337 0.31231 0.23425 0.0
C323 C 0.99416 0.31341 0.19219 0.0
C324 C 0.02036 0.33089 0.27304 0.0
C325 C 0.01128 0.39181 0.29993 0.0
H326 H 0.02246 0.3774 0.49759 0.0
C327 C 1.00401 0.4569 0.52637 0.0
C328 C 0.01761 0.45444 0.58656 0.0
C329 C 1.00441 0.441 0.472 0.0
C330 C 0.01982 0.38186 0.44244 0.0
H331 H 0.96788 0.33495 0.15458 0.0
H332 H 0.9802 0.36743 0.2208 0.0
H333 H 0.01871 0.34775 0.41146 0.0
H334 H 0.04313 0.43412 0.63519 0.0
H335 H 0.04435 0.40684 0.53997 0.0
H336 H 0.01208 0.42598 0.33132 0.0
C337 C 0.99004 0.3524 0.22388 0.0
C338 C 0.01768 0.36474 0.3928 0.0
C339 C 0.98299 0.33381 0.18566 0.0
C340 C 0.0323 0.43635 0.58975 0.0
C341 C 0.03285 0.42059 0.53528 0.0
C342 C 0.01356 0.40899 0.34961 0.0
C343 C 0.00829 0.35096 0.27035 0.0
C344 C 0.01307 0.36943 0.32102 0.0
C345 C 0.01855 0.42236 0.47631 0.0
C346 C 0.01757 0.40426 0.42187 0.0
H347 H 0.02202 0.29667 0.24119 0.0
H348 H 0.03466 0.32927 0.30758 0.0
H349 H 0.00794 0.39606 0.24499 0.0
H350 H 0.99247 0.47066 0.52249 0.0
H351 H 0.99299 0.44292 0.42797 0.0
C352 C 0.82923 0.03357 0.19996 0.0
C353 C 0.81407 0.01698 0.22034 0.0
C354 C 0.849 0.02817 0.16531 0.0
C355 C 0.8735 0.98327 0.0554 0.0
H356 H 0.92376 0.02336 0.05538 0.0
C357 C 0.9339 0.98767 0.81845 0.0
C358 C 0.95581 0.99503 0.82802 0.0
C359 C 0.91895 0.98723 0.87533 0.0
C360 C 0.91015 0.01165 0.05516 0.0
H361 H 0.80871 0.98148 0.22496 0.0
H362 H 0.84381 0.97185 0.16678 0.0
H363 H 0.89484 0.02762 0.14384 0.0
H364 H 0.97958 0.0067 0.90552 0.0
H365 H 0.9538 0.00508 0.00591 0.0
H366 H 0.88918 0.96682 0.96827 0.0
C367 C 0.84002 0.9892 0.17554 0.0
C368 C 0.89324 0.01435 0.10555 0.0
C369 C 0.82001 0.99466 0.2099 0.0
C370 C 0.96273 1.00109 0.89649 0.0
C371 C 0.94784 1.00033 0.95391 0.0
C372 C 0.89061 0.98032 0.00579 0.0
C373 C 0.85451 0.00594 0.15074 0.0
C374 C 0.87424 1.00071 0.10493 0.0
C375 C 0.92555 0.99376 0.94398 0.0
C376 C 0.90887 0.99493 0.00323 0.0
H377 H 0.82532 0.05093 0.20805 0.0
H378 H 0.85936 0.04167 0.14676 0.0
H379 H 0.85923 0.9724 0.05256 0.0
H380 H 0.92801 0.98294 0.76626 0.0
H381 H 0.90196 0.98249 0.86448 0.0
C382 C 0.49909 0.82707 0.24104 0.0
C383 C 0.49177 0.808 0.20523 0.0
C384 C 0.50621 0.84582 0.20251 0.0
C385 C 0.52244 0.86442 0.01893 0.0
H386 H 0.50101 0.92184 0.08091 0.0
C387 C 0.53463 0.94098 0.84006 0.0
C388 C 0.51698 0.95615 0.83564 0.0
C389 C 0.5352 0.92488 0.89383 0.0
C390 C 0.50702 0.90593 0.06243 0.0
H391 H 0.48739 0.79315 0.10155 0.0
H392 H 0.49939 0.82547 0.03494 0.0
H393 H 0.49587 0.8894 0.15705 0.0
H394 H 0.48644 0.96693 0.88552 0.0
H395 H 0.48682 0.9383 0.97773 0.0
H396 H 0.53228 0.88036 0.92265 0.0
C397 C 0.49993 0.82621 0.09239 0.0
C398 C 0.50438 0.88732 0.10681 0.0
C399 C 0.49287 0.80764 0.13064 0.0
C400 C 0.50032 0.9555 0.88788 0.0
C401 C 0.50064 0.93908 0.94102 0.0
C402 C 0.52485 0.88289 0.97438 0.0
C403 C 0.50629 0.84579 0.12748 0.0
C404 C 0.51163 0.86618 0.08499 0.0
C405 C 0.51784 0.92315 0.94381 0.0
C406 C 0.51687 0.90392 0.99476 0.0
H407 H 0.49831 0.82783 0.29849 0.0
H408 H 0.51126 0.86047 0.23146 0.0
H409 H 0.52866 0.84857 1.0006 0.0
H410 H 0.5478 0.94126 0.80081 0.0
H411 H 0.54911 0.91349 0.89509 0.0
C412 C 0.69103 0.5098 0.22298 0.0
C413 C 0.69514 0.48728 0.2377 0.0
C414 C 0.67124 0.51635 0.18911 0.0
C415 C 0.61584 0.49426 0.12499 0.0
H416 H 0.62282 0.54004 0.98193 0.0
C417 C 0.54727 0.50949 0.91345 0.0
C418 C 0.55444 0.51522 0.8448 0.0
C419 C 0.56218 0.50968 0.97087 0.0
C420 C 0.62055 0.52699 0.02092 0.0
H421 H 0.68083 0.45432 0.23417 0.0
H422 H 0.64729 0.46532 0.17324 0.0
H423 H 0.65245 0.53329 0.06612 0.0
H424 H 0.58279 0.52593 0.78263 0.0
H425 H 0.60883 0.52519 0.88051 0.0
H426 H 0.58478 0.48668 0.07612 0.0
C427 C 0.65886 0.47822 0.18808 0.0
C428 C 0.63752 0.52341 0.07065 0.0
C429 C 0.67837 0.47178 0.22253 0.0
C430 C 0.57668 0.52152 0.83497 0.0
C431 C 0.59164 0.5213 0.89176 0.0
C432 C 0.5991 0.4975 0.07426 0.0
C433 C 0.65518 0.50052 0.16876 0.0
C434 C 0.63572 0.50658 0.12247 0.0
C435 C 0.58476 0.51523 0.96074 0.0
C436 C 0.6014 0.51355 0.02016 0.0
H437 H 0.70357 0.52218 0.23404 0.0
H438 H 0.6689 0.53377 0.17702 0.0
H439 H 0.61334 0.48158 0.16509 0.0
H440 H 0.53017 0.50468 0.92266 0.0
H441 H 0.55596 0.50534 0.02305 0.0
C442 C 0.01734 0.68051 0.23763 0.0
C443 C 0.00967 0.70078 0.20995 0.0
C444 C 0.01235 0.66049 0.20331 0.0
C445 C 0.97711 0.63484 0.06231 0.0
H446 H 0.02895 0.59809 0.02888 0.0
C447 C 0.0061 0.55022 0.89752 0.0
C448 C 0.99494 0.55442 0.83327 0.0
C449 C 0.00545 0.56577 0.95294 0.0
C450 C 0.01414 0.60783 0.03861 0.0
H451 H 0.99019 0.71608 0.1266 0.0
H452 H 0.98105 0.68125 0.06736 0.0
H453 H 0.03132 0.62913 0.11097 0.0
H454 H 0.97375 0.57781 0.77767 0.0
H455 H 0.97285 0.6049 0.87312 0.0
H456 H 0.96003 0.61379 0.98898 0.0
C457 C 0.99073 0.68062 0.11583 0.0
C458 C 0.01551 0.62571 0.08588 0.0
C459 C 0.99587 0.7006 0.14983 0.0
C460 C 0.98253 0.57408 0.82653 0.0
C461 C 0.9819 0.58958 0.88167 0.0
C462 C 0.97571 0.6169 0.01529 0.0
C463 C 0.99955 0.66036 0.14062 0.0
C464 C 0.99715 0.63974 0.09729 0.0
C465 C 0.9936 0.58585 0.94538 0.0
C466 C 0.99434 0.60342 1.0015 0.0
H467 H 0.02839 0.68029 0.28308 0.0
H468 H 0.01921 0.64519 0.22431 0.0
H469 H 0.96255 0.64509 0.07054 0.0
H470 H 0.01574 0.53518 0.90436 0.0
H471 H 0.01441 0.56212 1.00148 0.0
C472 C 0.93764 0.25773 0.31316 0.0
C473 C 0.93392 0.25932 0.2397 0.0
C474 C 0.92394 0.24447 0.35544 0.0
C475 C 0.89479 0.19289 0.32669 0.0
H476 H 0.89202 0.19351 0.53245 0.0
C477 C 0.89976 0.11126 0.47242 0.0
C478 C 0.91726 0.11121 0.52193 0.0
C479 C 0.89011 0.13123 0.45042 0.0
C480 C 0.89246 0.19309 0.47493 0.0
H481 H 0.91136 0.25096 0.15436 0.0
H482 H 0.88705 0.22814 0.2285 0.0
H483 H 0.8955 0.22846 0.46711 0.0
H484 H 0.93633 0.13183 0.59371 0.0
H485 H 0.92047 0.16661 0.5528 0.0
H486 H 0.89351 0.15769 0.33385 0.0
C487 C 0.9009 0.23657 0.2532 0.0
C488 C 0.89442 0.21312 0.43751 0.0
C489 C 0.91476 0.24965 0.21076 0.0
C490 C 0.92336 0.13135 0.55387 0.0
C491 C 0.91392 0.15132 0.53126 0.0
C492 C 0.89288 0.17297 0.36393 0.0
C493 C 0.90621 0.23265 0.32499 0.0
C494 C 0.89692 0.2131 0.36316 0.0
C495 C 0.89797 0.15159 0.47666 0.0
C496 C 0.893 0.17272 0.43864 0.0
H497 H 0.95233 0.26498 0.33683 0.0
H498 H 0.92867 0.24181 0.41033 0.0
H499 H 0.89684 0.19208 0.26958 0.0
H500 H 0.89452 0.09607 0.44683 0.0
H501 H 0.8775 0.1308 0.40942 0.0
C502 C 0.28414 0.95221 0.25635 0.0
C503 C 0.26085 0.95205 0.25117 0.0
C504 C 0.29499 0.93871 0.30519 0.0
C505 C 0.29249 0.91852 0.47854 0.0
H506 H 0.34609 0.88896 0.41509 0.0
C507 C 0.37561 0.93818 0.58884 0.0
C508 C 0.39418 0.92506 0.57224 0.0
C509 C 0.35423 0.93063 0.57419 0.0
C510 C 0.33097 0.89638 0.43517 0.0
H511 H 0.23074 0.93751 0.2947 0.0
H512 H 0.25006 0.9146 0.38378 0.0
H513 H 0.31617 0.89539 0.332 0.0
H514 H 0.40475 0.89246 0.53711 0.0
H515 H 0.36737 0.87895 0.51383 0.0
H516 H 0.30794 0.92099 0.58063 0.0
C517 C 0.25966 0.92488 0.34779 0.0
C518 C 0.31381 0.90014 0.38699 0.0
C519 C 0.24869 0.93813 0.29734 0.0
C520 C 0.3908 0.90312 0.54958 0.0
C521 C 0.36934 0.89543 0.53575 0.0
C522 C 0.30965 0.91462 0.52716 0.0
C523 C 0.28293 0.925 0.35149 0.0
C524 C 0.2953 0.9128 0.4069 0.0
C525 C 0.35092 0.90965 0.54318 0.0
C526 C 0.32986 0.90523 0.50424 0.0
H527 H 0.29414 0.96325 0.22406 0.0
H528 H 0.31294 0.93963 0.30856 0.0
H529 H 0.27824 0.9282 0.49517 0.0
H530 H 0.37766 0.95492 0.60867 0.0
H531 H 0.34062 0.94217 0.58104 0.0
C532 C 0.57322 0.25507 0.31143 0.0
C533 C 0.57765 0.25374 0.23836 0.0
C534 C 0.58602 0.26879 0.35473 0.0
C535 C 0.61428 0.32123 0.32997 0.0
H536 H 0.61683 0.31906 0.5357 0.0
C537 C 0.60992 0.40177 0.48023 0.0
C538 C 0.59243 0.40164 0.5298 0.0
C539 C 0.61932 0.38187 0.45706 0.0
C540 C 0.61643 0.31991 0.47821 0.0
H541 H 0.60043 0.26332 0.15467 0.0
H542 H 0.6232 0.28693 0.23063 0.0
H543 H 0.61355 0.28459 0.46843 0.0
H544 H 0.57308 0.38069 0.60039 0.0
H545 H 0.58851 0.34604 0.55737 0.0
H546 H 0.61548 0.35637 0.33904 0.0
C547 C 0.60948 0.27792 0.25422 0.0
C548 C 0.61458 0.30017 0.4397 0.0
C549 C 0.5965 0.26441 0.21076 0.0
C550 C 0.58605 0.38133 0.56055 0.0
C551 C 0.59524 0.36142 0.53673 0.0
C552 C 0.6161 0.34087 0.36828 0.0
C553 C 0.60357 0.28131 0.32573 0.0
C554 C 0.61226 0.30074 0.36532 0.0
C555 C 0.61121 0.36141 0.48213 0.0
C556 C 0.61597 0.34054 0.44299 0.0
H557 H 0.55873 0.24705 0.33394 0.0
H558 H 0.58083 0.27106 0.40933 0.0
H559 H 0.61234 0.32246 0.27288 0.0
H560 H 0.61536 0.41709 0.45552 0.0
H561 H 0.63194 0.38247 0.41609 0.0
C562 C 0.25739 0.57044 0.31393 0.0
C563 C 0.25951 0.57459 0.24079 0.0
C564 C 0.24382 0.5839 0.35575 0.0
C565 C 0.19239 0.6132 0.32479 0.0
H566 H 0.19219 0.61588 0.53055 0.0
C567 C 0.11006 0.60917 0.46697 0.0
C568 C 0.10964 0.59195 0.51764 0.0
C569 C 0.13022 0.61839 0.44516 0.0
C570 C 0.19199 0.61544 0.47301 0.0
H571 H 0.2517 0.59766 0.15587 0.0
H572 H 0.22825 0.62149 0.22922 0.0
H573 H 0.2274 0.61222 0.46706 0.0
H574 H 0.12985 0.5729 0.59132 0.0
H575 H 0.16495 0.58797 0.55064 0.0
H576 H 0.15716 0.61462 0.33006 0.0
C577 C 0.23656 0.60751 0.25394 0.0
C578 C 0.21217 0.6134 0.43667 0.0
C579 C 0.24998 0.59391 0.21196 0.0
C580 C 0.12963 0.58564 0.55058 0.0
C581 C 0.1498 0.59464 0.5281 0.0
C582 C 0.17231 0.61517 0.36095 0.0
C583 C 0.2322 0.60182 0.32517 0.0
C584 C 0.21245 0.611 0.36235 0.0
C585 C 0.15042 0.61037 0.47269 0.0
C586 C 0.17175 0.61504 0.43565 0.0
H587 H 0.26451 0.55562 0.33753 0.0
H588 H 0.2408 0.57889 0.41023 0.0
H589 H 0.19184 0.61122 0.26763 0.0
H590 H 0.095 0.61455 0.44056 0.0
H591 H 0.13005 0.63085 0.40351 0.0
C592 C 0.0772 0.7489 0.10912 0.0
C593 C 0.06333 0.76129 0.15468 0.0
C594 C 0.09059 0.75964 0.05853 0.0
C595 C 0.09598 0.79215 0.92654 0.0
H596 H 0.12545 0.84612 0.98591 0.0
C597 C 0.07189 0.87484 0.82462 0.0
C598 C 0.08496 0.89366 0.83755 0.0
C599 C 0.08039 0.85365 0.8368 0.0
C600 C 0.11805 0.83088 0.96691 0.0
H601 H 0.05258 0.79478 0.18085 0.0
H602 H 0.07647 0.81312 0.0965 0.0
H603 H 0.12066 0.81603 0.06994 0.0
H604 H 0.11806 0.90505 0.86397 0.0
H605 H 0.13312 0.86791 0.88426 0.0
H606 H 0.09171 0.80773 0.82502 0.0
C607 C 0.07722 0.79518 0.10036 0.0
C608 C 0.11527 0.81362 0.01556 0.0
C609 C 0.06356 0.78457 0.14919 0.0
C610 C 0.10751 0.89082 0.85445 0.0
C611 C 0.1161 0.86954 0.86635 0.0
C612 C 0.09889 0.80941 0.87748 0.0
C613 C 0.09071 0.78289 0.05421 0.0
C614 C 0.10253 0.79501 0.99743 0.0
C615 C 0.10222 0.8508 0.8621 0.0
C616 C 0.10813 0.82975 0.8993 0.0
H617 H 0.0776 0.73096 0.11202 0.0
H618 H 0.10067 0.74986 0.02264 0.0
H619 H 0.08624 0.77783 0.91122 0.0
H620 H 0.05459 0.87656 0.80966 0.0
H621 H 0.06907 0.83977 0.83286 0.0
C622 C 0.75643 0.08085 0.14306 0.0
C623 C 0.74605 0.06305 0.17884 0.0
C624 C 0.74407 0.095 0.09874 0.0
C625 C 0.68745 0.11418 0.06695 0.0
H626 H 0.69701 0.10655 0.86487 0.0
C627 C 0.61242 0.11304 0.89548 0.0
C628 C 0.61171 0.09279 0.85865 0.0
C629 C 0.63276 0.12202 0.91654 0.0
C630 C 0.6942 0.10922 0.92104 0.0
H631 H 0.71461 0.0459 0.1935 0.0
H632 H 0.69327 0.07091 0.1198 0.0
H633 H 0.72684 0.09769 0.94837 0.0
H634 H 0.63179 0.06807 0.80514 0.0
H635 H 0.66694 0.08276 0.84513 0.0
H636 H 0.65425 0.1231 0.04193 0.0
C637 C 0.71084 0.07412 0.12669 0.0
C638 C 0.7114 0.1044 0.96869 0.0
C639 C 0.72313 0.05983 0.16935 0.0
C640 C 0.63176 0.08326 0.83576 0.0
C641 C 0.65205 0.09201 0.85771 0.0
C642 C 0.67027 0.11885 0.01968 0.0
C643 C 0.72113 0.09178 0.09098 0.0
C644 C 0.70751 0.1053 0.04211 0.0
C645 C 0.65274 0.11069 0.90241 0.0
C646 C 0.67288 0.1147 0.94653 0.0
H647 H 0.77404 0.08387 0.14929 0.0
H648 H 0.75233 0.1084 0.07085 0.0
H649 H 0.6842 0.11517 0.12352 0.0
H650 H 0.59729 0.12102 0.91327 0.0
H651 H 0.63269 0.13683 0.94899 0.0
C652 C 0.42985 0.75228 0.13432 0.0
C653 C 0.42923 0.75442 0.20866 0.0
C654 C 0.4156 0.7376 0.09992 0.0
C655 C 0.3933 0.684 0.14432 0.0
H656 H 0.37975 0.68347 0.94298 0.0
C657 C 0.39811 0.60251 0.99729 0.0
C658 C 0.41216 0.60386 0.93765 0.0
C659 C 0.38836 0.62163 0.02533 0.0
C660 C 0.38328 0.68333 0.99941 0.0
H661 H 0.41113 0.74526 0.30392 0.0
H662 H 0.38621 0.71946 0.24368 0.0
H663 H 0.38302 0.71886 0.00509 0.0
H664 H 0.42481 0.626 0.85601 0.0
H665 H 0.4089 0.65936 0.90682 0.0
H666 H 0.39542 0.64882 0.13828 0.0
C667 C 0.39803 0.72883 0.21225 0.0
C668 C 0.38505 0.7036 0.03502 0.0
C669 C 0.41231 0.74356 0.24674 0.0
C670 C 0.41461 0.62445 0.9032 0.0
C671 C 0.4051 0.64359 0.93173 0.0
C672 C 0.39163 0.66382 0.10882 0.0
C673 C 0.40046 0.72469 0.13913 0.0
C674 C 0.39134 0.70415 0.10697 0.0
C675 C 0.39268 0.64256 0.99503 0.0
C676 C 0.38785 0.66327 0.03509 0.0
H677 H 0.44272 0.76028 0.10325 0.0
H678 H 0.41809 0.73477 0.04366 0.0
H679 H 0.39834 0.68371 0.19957 0.0
H680 H 0.39577 0.58696 0.02528 0.0
H681 H 0.37849 0.62015 0.07325 0.0
C682 C 0.76931 0.41734 0.22636 0.0
C683 C 0.75816 0.43531 0.19477 0.0
C684 C 0.78324 0.40385 0.18574 0.0
C685 C 0.80554 0.39573 1.00068 0.0
H686 H 0.86164 0.39416 0.1014 0.0
C687 C 0.88801 0.42157 0.88139 0.0
C688 C 0.90797 0.41351 0.91024 0.0
C689 C 0.86765 0.41335 0.90517 0.0
C690 C 0.8461 0.39377 0.07241 0.0
H691 H 0.75133 0.45226 0.09549 0.0
H692 H 0.77612 0.42941 0.0251 0.0
H693 H 0.82769 0.39922 0.1672 0.0
H694 H 0.92238 0.3887 0.98019 0.0
H695 H 0.88675 0.37439 0.02211 0.0
H696 H 0.82457 0.39214 0.90504 0.0
C697 C 0.77386 0.42518 0.08059 0.0
C698 C 0.82646 0.39667 0.11042 0.0
C699 C 0.75968 0.43843 0.12102 0.0
C700 C 0.90722 0.39559 0.95825 0.0
C701 C 0.88685 0.38734 0.982 0.0
C702 C 0.82529 0.39299 0.96249 0.0
C703 C 0.78664 0.4084 0.11309 0.0
C704 C 0.80605 0.39888 0.07476 0.0
C705 C 0.86686 0.3969 0.95832 0.0
C706 C 0.84586 0.39313 0.9978 0.0
H707 H 0.76811 0.41445 0.28311 0.0
H708 H 0.79239 0.39072 0.21217 0.0
H709 H 0.79004 0.39678 0.97168 0.0
H710 H 0.888 0.43545 0.8446 0.0
H711 H 0.8526 0.42126 0.88628 0.0
C712 C 0.00777 0.23317 0.04704 0.0
C713 C 0.98643 0.2427 0.04463 0.0
C714 C 0.01255 0.21387 0.00781 0.0
C715 C 0.98466 0.16402 0.95588 0.0
H716 H 0.03092 0.15226 0.81753 0.0
C717 C 0.00749 0.07531 0.86429 0.0
C718 C 0.00692 0.07174 0.79045 0.0
C719 C 0.00657 0.09683 0.892 0.0
C720 C 0.01795 0.15536 0.85615 0.0
H721 H 0.95414 0.24065 0.99424 0.0
H722 H 0.96235 0.207 0.92743 0.0
H723 H 0.02731 0.18962 0.86947 0.0
H724 H 0.00543 0.08816 0.68782 0.0
H725 H 1.00443 0.12591 0.73655 0.0
H726 H 0.97552 0.12985 0.94418 0.0
C727 C 0.97531 0.21429 0.95972 0.0
C728 C 0.01597 0.17665 0.88602 0.0
C729 C 0.97066 0.23359 0.99785 0.0
C730 C 0.00586 0.09031 0.74494 0.0
C731 C 0.00541 0.11192 0.77275 0.0
C732 C 0.98695 0.14272 0.92741 0.0
C733 C 0.99601 0.20377 0.96615 0.0
C734 C 0.99914 0.18121 0.93567 0.0
C735 C 0.00551 0.11539 0.84664 0.0
C736 C 1.0035 0.13815 0.87688 0.0
H737 H 0.0202 0.23966 0.08296 0.0
H738 H 0.02866 0.20605 0.01368 0.0
H739 H 0.97159 0.16706 0.99425 0.0
H740 H 0.00824 0.06142 0.90095 0.0
H741 H 0.00672 0.09899 0.94914 0.0
C742 C 0.27441 0.01657 0.02094 0.0
C743 C 0.26574 0.99501 0.02683 0.0
C744 C 0.29296 0.02078 0.97755 0.0
C745 C 0.3319 0.99398 0.84496 0.0
H746 H 0.37494 0.03292 0.93276 0.0
C747 C 0.42116 1.00347 0.73071 0.0
C748 C 0.43863 0.00676 0.77915 0.0
C749 C 0.39896 1.00424 0.7533 0.0
C750 C 0.36328 0.02175 0.90772 0.0
H751 H 0.26838 0.96148 0.98689 0.0
H752 H 0.30062 0.96848 0.91313 0.0
H753 H 0.33774 0.03061 0.98122 0.0
H754 H 0.44636 0.01303 0.88973 0.0
H755 H 0.40798 0.01348 0.92962 0.0
H756 H 0.35791 0.98398 0.77455 0.0
C757 C 0.29329 0.98238 0.94084 0.0
C758 C 0.34161 0.02077 0.93481 0.0
C759 C 0.2747 0.97828 0.98347 0.0
C760 C 0.43335 0.01064 0.85079 0.0
C761 C 0.41119 0.01109 0.87357 0.0
C762 C 0.35368 0.99471 0.81854 0.0
C763 C 0.30335 1.00347 0.93948 0.0
C764 C 0.32563 0.00658 0.9047 0.0
C765 C 0.39358 0.00802 0.82522 0.0
C766 C 0.36986 0.00833 0.85024 0.0
H767 H 0.26797 0.02979 0.05397 0.0
H768 H 0.29974 0.03741 0.97653 0.0
H769 H 0.3201 0.98315 0.81907 0.0
H770 H 0.42461 1.00053 0.67501 0.0
H771 H 0.38604 1.00211 0.71394 0.0
C772 C 0.50528 0.27446 0.03892 0.0
C773 C 0.52673 0.26525 0.03576 0.0
C774 C 0.50017 0.2939 1.00043 0.0
C775 C 0.52774 0.34434 0.95163 0.0
H776 H 0.48041 0.35767 0.81838 0.0
C777 C 0.50377 0.43409 0.87181 0.0
C778 C 0.50399 0.4386 0.7984 0.0
C779 C 0.50493 0.41221 0.8971 0.0
C780 C 0.49368 0.35413 0.85559 0.0
H781 H 0.55896 0.26804 0.98534 0.0
H782 H 0.55014 0.30185 0.91924 0.0
H783 H 0.48456 0.31967 0.86581 0.0
H784 H 0.50506 0.42351 0.694 0.0
H785 H 0.50646 0.38517 0.73849 0.0
H786 H 0.53662 0.37869 0.94317 0.0
C787 C 0.53731 0.29418 0.95136 0.0
C788 C 0.49598 0.33247 0.88285 0.0
C789 C 0.54228 0.27474 0.98883 0.0
C790 C 0.5049 0.42063 0.75086 0.0
C791 C 0.50558 0.39868 0.77624 0.0
C792 C 0.52514 0.36599 0.92582 0.0
C793 C 0.51652 0.30447 0.9589 0.0
C794 C 0.51319 0.32735 0.93062 0.0
C795 C 0.50587 0.39426 0.84968 0.0
C796 C 0.50819 0.37114 0.87719 0.0
H797 H 0.49307 0.2677 0.07532 0.0
H798 H 0.48402 0.30153 0.00721 0.0
H799 H 0.54108 0.34088 0.9887 0.0
H800 H 0.50315 0.4475 0.90996 0.0
H801 H 0.50508 0.40931 0.95396 0.0
C802 C 0.23642 0.50196 0.04036 0.0
C803 C 0.24522 0.52355 0.04037 0.0
C804 C 0.21771 0.49686 0.99878 0.0
C805 C 0.17955 0.5203 0.85741 0.0
H806 H 0.13594 0.48322 0.95138 0.0
C807 C 0.09133 0.50735 0.73815 0.0
C808 C 0.0735 0.50522 0.78597 0.0
C809 C 0.11336 0.50727 0.76268 0.0
C810 C 0.14778 0.49384 0.9245 0.0
H811 H 0.2424 0.55616 0.99238 0.0
H812 H 0.20986 0.54765 0.92201 0.0
H813 H 0.1727 0.48697 1.00244 0.0
H814 H 0.06494 0.50178 0.89739 0.0
H815 H 0.10294 0.50254 0.94024 0.0
H816 H 0.15417 0.52832 0.78206 0.0
C817 C 0.21724 0.5344 0.95301 0.0
C818 C 0.16917 0.49565 0.95325 0.0
C819 C 0.23594 0.53938 0.99392 0.0
C820 C 0.07824 0.50324 0.85887 0.0
C821 C 0.10018 0.50347 0.88347 0.0
C822 C 0.15805 0.51874 0.82921 0.0
C823 C 0.20732 0.51327 0.95645 0.0
C824 C 0.18533 0.50923 0.92093 0.0
C825 C 0.11817 0.50535 0.83587 0.0
C826 C 0.14166 0.50579 0.86296 0.0
H827 H 0.24312 0.4894 0.07573 0.0
H828 H 0.21097 0.48024 1.00178 0.0
H829 H 0.19152 0.53057 0.82979 0.0
H830 H 0.0883 0.50879 0.68157 0.0
H831 H 0.12661 0.50845 0.72396 0.0
C832 C 0.99667 0.77636 0.37651 0.0
C833 C 0.01822 0.76742 0.37393 0.0
C834 C 0.9921 0.79503 0.4187 0.0
C835 C 0.01727 0.83341 0.55535 0.0
H836 H 0.97994 0.87711 0.46235 0.0
C837 C 0.00604 0.92179 0.67233 0.0
C838 C 1.00372 0.93966 0.62455 0.0
C839 C 0.00552 0.8998 0.6482 0.0
C840 C 0.99064 0.86525 0.4889 0.0
H841 H 0.05129 0.76981 0.41817 0.0
H842 H 0.04363 0.80223 0.49011 0.0
H843 H 0.98283 0.84007 0.41322 0.0
H844 H 0.99929 0.9483 0.51357 0.0
H845 H 0.99925 0.9102 0.4711 0.0
H846 H 0.02624 0.859 0.62827 0.0
C847 C 0.03003 0.795 0.46064 0.0
C848 C 0.99195 0.8437 0.46134 0.0
C849 C 0.03451 0.77632 0.41911 0.0
C850 C 1.00096 0.93496 0.55199 0.0
C851 C 1.00075 0.91299 0.52769 0.0
C852 C 0.0162 0.85505 0.58232 0.0
C853 C 0.009 0.80525 0.45896 0.0
C854 C 0.00556 0.82748 0.49342 0.0
C855 C 1.00298 0.89499 0.57537 0.0
C856 C 1.00311 0.87146 0.54897 0.0
H857 H 0.98381 0.76999 0.34194 0.0
H858 H 0.97552 0.80199 0.41725 0.0
H859 H 0.02763 0.82143 0.58267 0.0
H860 H 0.00808 0.92476 0.72871 0.0
H861 H 0.00692 0.88658 0.68706 0.0
C862 C 0.74271 0.0201 0.44332 0.0
C863 C 0.74525 0.00955 0.37742 0.0
C864 C 0.72399 0.01593 0.48568 0.0
C865 C 0.67245 0.98082 0.50113 0.0
H866 H 0.64723 0.03509 0.57667 0.0
C867 C 0.57882 0.99029 0.56679 0.0
C868 C 0.57281 1.00206 0.62832 0.0
C869 C 0.601 0.98945 0.54424 0.0
C870 C 0.65411 0.01969 0.55685 0.0
H871 H 0.7308 0.98572 0.30553 0.0
H872 H 0.69823 0.97836 0.37869 0.0
H873 H 0.68449 0.03547 0.52693 0.0
H874 H 0.58561 0.02215 0.71452 0.0
H875 H 0.62422 0.02083 0.67485 0.0
H876 H 0.64158 0.96532 0.52898 0.0
C877 C 0.71076 0.98951 0.39907 0.0
C878 C 0.67564 0.01985 0.52849 0.0
C879 C 0.72958 0.99356 0.35712 0.0
C880 C 0.58958 0.01296 0.6668 0.0
C881 C 0.61175 0.01227 0.64389 0.0
C882 C 0.65084 0.98071 0.52906 0.0
C883 C 0.70717 1.0014 0.46244 0.0
C884 C 0.68508 1.00049 0.49938 0.0
C885 C 0.61776 1.0005 0.58228 0.0
C886 C 0.64127 1.00022 0.55651 0.0
H887 H 0.75429 0.03288 0.45937 0.0
H888 H 0.72215 0.02504 0.53483 0.0
H889 H 0.67917 0.96549 0.48035 0.0
H890 H 0.56639 0.98166 0.53584 0.0
H891 H 0.60493 0.98048 0.49608 0.0
C892 C 0.5078 0.73024 0.35989 0.0
C893 C 0.48984 0.74357 0.38097 0.0
C894 C 0.51327 0.711 0.39843 0.0
C895 C 0.50318 0.67954 0.56682 0.0
H896 H 0.50759 0.62808 0.44465 0.0
C897 C 0.49391 0.58922 0.67489 0.0
C898 C 0.50601 0.57224 0.64137 0.0
C899 C 0.49402 0.61094 0.64734 0.0
C900 C 0.50682 0.6422 0.47997 0.0
H901 H 0.46449 0.74808 0.46115 0.0
H902 H 0.47434 0.71493 0.52941 0.0
H903 H 0.50609 0.66495 0.39233 0.0
H904 H 0.52838 0.56506 0.55406 0.0
H905 H 0.52914 0.6027 0.50769 0.0
H906 H 0.50388 0.65675 0.6546 0.0
C907 C 0.48424 0.7192 0.48328 0.0
C908 C 0.50596 0.66345 0.44972 0.0
C909 C 0.47864 0.73827 0.44438 0.0
C910 C 0.51862 0.57762 0.58081 0.0
C911 C 0.51894 0.5993 0.55384 0.0
C912 C 0.50426 0.65824 0.59725 0.0
C913 C 0.501 0.70479 0.45914 0.0
C914 C 0.50395 0.68242 0.49259 0.0
C915 C 0.50642 0.61628 0.58596 0.0
C916 C 0.50592 0.63919 0.55424 0.0
H917 H 0.51645 0.7337 0.3106 0.0
H918 H 0.52647 0.70043 0.37886 0.0
H919 H 0.50174 0.69378 0.60148 0.0
H920 H 0.48398 0.58567 0.72157 0.0
H921 H 0.48394 0.62339 0.67332 0.0
C922 C 0.76966 0.48246 0.44888 0.0
C923 C 0.76708 0.49178 0.38091 0.0
C924 C 0.78865 0.48696 0.4895 0.0
C925 C 0.84026 0.52202 0.49717 0.0
H926 H 0.86514 0.46975 0.58808 0.0
C927 C 0.93341 0.51489 0.57046 0.0
C928 C 0.93927 0.50451 0.63491 0.0
C929 C 0.91137 0.51496 0.54667 0.0
C930 C 0.85834 0.48462 0.56391 0.0
H931 H 0.78196 0.51353 0.30278 0.0
H932 H 0.81504 0.52149 0.37299 0.0
H933 H 0.82813 0.46812 0.53646 0.0
H934 H 0.92629 0.48605 0.72495 0.0
H935 H 0.88783 0.48605 0.68315 0.0
H936 H 0.87089 0.53825 0.52287 0.0
C937 C 0.8023 0.51109 0.39626 0.0
C938 C 0.83698 0.48373 0.53439 0.0
C939 C 0.78324 0.50667 0.35594 0.0
C940 C 0.92243 0.49419 0.67503 0.0
C941 C 0.90037 0.49411 0.65089 0.0
C942 C 0.86169 0.52285 0.52634 0.0
C943 C 0.8057 0.50063 0.46254 0.0
C944 C 0.82768 0.50234 0.49978 0.0
C945 C 0.89453 0.50452 0.58636 0.0
C946 C 0.87114 0.50408 0.55935 0.0
H947 H 0.75768 0.47052 0.46858 0.0
H948 H 0.79038 0.47894 0.54078 0.0
H949 H 0.83363 0.53682 0.47214 0.0
H950 H 0.94588 0.52302 0.53808 0.0
H951 H 0.90761 0.52286 0.49629 0.0
loop_
_geom_bond_atom_site_label_1
_geom_bond_atom_site_label_2
_geom_bond_distance
_geom_bond_site_symmetry_2
_ccdc_geom_bond_type
H0 C3 0.931 . S
H1 C6 0.928 . S
H2 C8 0.930 . S
C3 H0 0.931 . S
C3 C4 1.413 . S
C3 C5 1.360 . S
C4 C3 1.413 . S
C4 C8 1.429 . S
C5 C3 1.360 . S
C5 C6 1.372 . S
C6 H1 0.928 . S
C6 C5 1.372 . S
C6 C7 1.404 . S
C7 C6 1.404 . S
C7 C8 1.391 . S
C8 H2 0.930 . S
C8 C4 1.429 . S
C8 C7 1.391 . S
H9 C12 0.931 . S
H10 C15 0.928 . S
H11 C17 0.930 . S
C12 H9 0.931 . S
C12 C13 1.413 . S
C12 C14 1.360 . S
C13 C12 1.413 . S
C13 C17 1.429 1_655 S
C14 C12 1.360 . S
C14 C15 1.372 . S
C15 H10 0.928 . S
C15 C14 1.372 . S
C15 C16 1.404 . S
C16 C15 1.404 . S
C16 C17 1.390 1_655 S
C17 H11 0.930 . S
C17 C13 1.429 1_455 S
C17 C16 1.390 1_455 S
H18 C21 0.931 . S
H19 C24 0.928 . S
H20 C26 0.930 . S
C21 H18 0.931 . S
C21 C22 1.413 . S
C21 C23 1.360 . S
C22 C21 1.413 . S
C22 C26 1.429 1_565 S
C23 C21 1.360 . S
C23 C24 1.372 . S
C24 H19 0.928 . S
C24 C23 1.372 . S
C24 C25 1.404 . S
C25 C24 1.404 . S
C25 C26 1.390 1_565 S
C26 H20 0.930 . S
C26 C22 1.429 1_545 S
C26 C25 1.390 1_545 S
H27 C30 0.931 . S
H28 C33 0.928 . S
H29 C35 0.930 . S
C30 H27 0.931 . S
C30 C31 1.413 . S
C30 C32 1.360 . S
C31 C30 1.413 . S
C31 C35 1.429 . S
C32 C30 1.360 . S
C32 C33 1.372 . S
C33 H28 0.928 . S
C33 C32 1.372 . S
C33 C34 1.404 . S
C34 C33 1.404 . S
C34 C35 1.391 . S
C35 H29 0.930 . S
C35 C31 1.429 . S
C35 C34 1.391 . S
H36 C39 0.931 . S
H37 C42 0.928 . S
H38 C44 0.932 . S
C39 H36 0.931 . S
C39 C40 1.413 1_554 S
C39 C41 1.360 . S
C40 C39 1.413 1_556 S
C40 C44 1.430 . S
C41 C39 1.360 . S
C41 C42 1.372 . S
C42 H37 0.928 . S
C42 C41 1.372 . S
C42 C43 1.404 . S
C43 C42 1.404 . S
C43 C44 1.389 1_554 S
C44 H38 0.932 . S
C44 C40 1.430 . S
C44 C43 1.389 1_556 S
H45 C48 0.931 . S
H46 C51 0.928 . S
H47 C53 0.930 1_556 S
C48 H45 0.931 . S
C48 C49 1.413 1_554 S
C48 C50 1.360 . S
C49 C48 1.413 1_556 S
C49 C53 1.429 1_656 S
C50 C48 1.360 . S
C50 C51 1.372 . S
C51 H46 0.928 . S
C51 C50 1.372 . S
C51 C52 1.404 . S
C52 C51 1.404 . S
C52 C53 1.391 1_655 S
C53 H47 0.930 1_554 S
C53 C49 1.429 1_454 S
C53 C52 1.391 1_455 S
H54 C57 0.931 . S
H55 C60 0.928 . S
H56 C62 0.920 1_556 S
C57 H54 0.931 . S
C57 C58 1.413 1_554 S
C57 C59 1.360 . S
C58 C57 1.413 1_556 S
C58 C62 1.426 1_566 S
C59 C57 1.360 . S
C59 C60 1.372 . S
C60 H55 0.928 . S
C60 C59 1.372 . S
C60 C61 1.404 . S
C61 C60 1.404 . S
C61 C62 1.404 1_565 S
C62 H56 0.920 1_554 S
C62 C58 1.426 1_544 S
C62 C61 1.404 1_545 S
H63 C66 0.931 . S
H64 C69 0.928 . S
H65 C71 0.930 . S
C66 H63 0.931 . S
C66 C67 1.413 . S
C66 C68 1.360 1_554 S
C67 C66 1.413 . S
C67 C71 1.429 . S
C68 C66 1.360 1_556 S
C68 C69 1.372 . S
C69 H64 0.928 . S
C69 C68 1.372 . S
C69 C70 1.404 1_556 S
C70 C69 1.404 1_554 S
C70 C71 1.391 . S
C71 H65 0.930 . S
C71 C67 1.429 . S
C71 C70 1.391 . S
Tb72 C74 2.809 . S
Tb72 O92 2.484 . S
Tb72 O93 2.440 . S
Tb72 O94 2.658 1_565 S
Tb72 O95 2.409 . S
Tb72 O96 2.378 . S
Tb72 O100 2.325 1_455 S
Tb72 O103 2.341 1_565 S
Tb73 C83 2.809 . S
Tb73 O94 2.325 1_655 S
Tb73 O97 2.341 1_545 S
Tb73 O98 2.484 . S
Tb73 O99 2.440 . S
Tb73 O100 2.658 1_545 S
Tb73 O101 2.409 . S
Tb73 O102 2.378 . S
C74 Tb72 2.809 . S
C74 C75 1.514 . S
C74 O92 1.248 . S
C74 O93 1.266 . S
C75 C74 1.514 . S
C75 C76 1.359 . S
C75 C80 1.348 . S
C76 C75 1.359 . S
C76 C77 1.380 . S
C76 H104 0.929 1_455 S
C77 C76 1.380 . S
C77 C78 1.347 . S
C77 H105 0.931 1_455 S
C78 C77 1.347 . S
C78 C79 1.369 . S
C79 C78 1.369 . S
C79 C80 1.408 . S
C79 H106 0.930 . S
C80 C75 1.348 . S
C80 C79 1.408 . S
C80 H107 0.930 . S
C81 O94 1.281 1_565 S
C81 O95 1.254 . S
C82 O96 1.236 1_655 S
C82 O97 1.266 . S
C83 Tb73 2.809 . S
C83 C84 1.514 . S
C83 O98 1.248 . S
C83 O99 1.266 . S
C84 C83 1.514 . S
C84 C85 1.359 . S
C84 C89 1.348 . S
C85 C84 1.359 . S
C85 C86 1.380 . S
C85 H108 0.929 1_655 S
C86 C85 1.380 . S
C86 C87 1.347 . S
C86 H109 0.931 1_655 S
C87 C86 1.347 . S
C87 C88 1.369 . S
C88 C87 1.369 . S
C88 C89 1.408 . S
C88 H110 0.930 . S
C89 C84 1.348 . S
C89 C88 1.408 . S
C89 H111 0.930 . S
C90 O100 1.281 1_545 S
C90 O101 1.254 . S
C91 O102 1.236 1_455 S
C91 O103 1.266 . S
O92 Tb72 2.484 . S
O92 C74 1.248 . S
O93 Tb72 2.440 . S
O93 C74 1.266 . S
O94 Tb72 2.658 1_545 S
O94 Tb73 2.325 1_455 S
O94 C81 1.281 1_545 S
O95 Tb72 2.409 . S
O95 C81 1.254 . S
O96 Tb72 2.378 . S
O96 C82 1.236 1_455 S
O97 Tb73 2.341 1_565 S
O97 C82 1.266 . S
O98 Tb73 2.484 . S
O98 C83 1.248 . S
O99 Tb73 2.440 . S
O99 C83 1.266 . S
O100 Tb72 2.325 1_655 S
O100 Tb73 2.658 1_565 S
O100 C90 1.281 1_565 S
O101 Tb73 2.409 . S
O101 C90 1.254 . S
O102 Tb73 2.378 . S
O102 C91 1.236 1_655 S
O103 Tb72 2.341 1_545 S
O103 C91 1.266 . S
H104 C76 0.929 1_655 S
H105 C77 0.931 1_655 S
H106 C79 0.930 . S
H107 C80 0.930 . S
H108 C85 0.929 1_455 S
H109 C86 0.931 1_455 S
H110 C88 0.930 . S
H111 C89 0.930 . S
Tb112 C114 2.809 . S
Tb112 O132 2.484 . S
Tb112 O133 2.440 . S
Tb112 O134 2.658 . S
Tb112 O135 2.409 . S
Tb112 O136 2.378 . S
Tb112 O140 2.325 1_545 S
Tb112 O143 2.341 . S
Tb113 C123 2.809 . S
Tb113 O134 2.325 1_565 S
Tb113 O137 2.341 . S
Tb113 O138 2.484 . S
Tb113 O139 2.440 . S
Tb113 O140 2.658 . S
Tb113 O141 2.409 . S
Tb113 O142 2.378 . S
C114 Tb112 2.809 . S
C114 C115 1.514 . S
C114 O132 1.248 . S
C114 O133 1.266 . S
C115 C114 1.514 . S
C115 C116 1.359 . S
C115 C120 1.348 . S
C116 C115 1.359 . S
C116 C117 1.380 . S
C116 H144 0.929 1_545 S
C117 C116 1.380 . S
C117 C118 1.347 . S
C117 H145 0.931 1_545 S
C118 C117 1.347 . S
C118 C119 1.369 . S
C119 C118 1.369 . S
C119 C120 1.408 . S
C119 H146 0.930 . S
C120 C115 1.348 . S
C120 C119 1.408 . S
C120 H147 0.930 . S
C121 O134 1.281 . S
C121 O135 1.254 . S
C122 O136 1.236 1_565 S
C122 O137 1.266 . S
C123 Tb113 2.809 . S
C123 C124 1.514 . S
C123 O138 1.248 . S
C123 O139 1.266 . S
C124 C123 1.514 . S
C124 C125 1.359 . S
C124 C129 1.348 . S
C125 C124 1.359 . S
C125 C126 1.380 . S
C125 H148 0.929 1_565 S
C126 C125 1.380 . S
C126 C127 1.347 . S
C126 H149 0.931 1_565 S
C127 C126 1.347 . S
C127 C128 1.369 . S
C128 C127 1.369 . S
C128 C129 1.408 . S
C128 H150 0.930 . S
C129 C124 1.348 . S
C129 C128 1.408 . S
C129 H151 0.930 . S
C130 O140 1.281 . S
C130 O141 1.254 . S
C131 O142 1.236 1_545 S
C131 O143 1.266 . S
O132 Tb112 2.484 . S
O132 C114 1.248 . S
O133 Tb112 2.440 . S
O133 C114 1.266 . S
O134 Tb112 2.658 . S
O134 Tb113 2.325 1_545 S
O134 C121 1.281 . S
O135 Tb112 2.409 . S
O135 C121 1.254 . S
O136 Tb112 2.378 . S
O136 C122 1.236 1_545 S
O137 Tb113 2.341 . S
O137 C122 1.266 . S
O138 Tb113 2.484 . S
O138 C123 1.248 . S
O139 Tb113 2.440 . S
O139 C123 1.266 . S
O140 Tb112 2.325 1_565 S
O140 Tb113 2.658 . S
O140 C130 1.281 . S
O141 Tb113 2.409 . S
O141 C130 1.254 . S
O142 Tb113 2.378 . S
O142 C131 1.236 1_565 S
O143 Tb112 2.341 . S
O143 C131 1.266 . S
H144 C116 0.929 1_565 S
H145 C117 0.931 1_565 S
H146 C119 0.930 . S
H147 C120 0.930 . S
H148 C125 0.929 1_545 S
H149 C126 0.931 1_545 S
H150 C128 0.930 . S
H151 C129 0.930 . S
Tb152 C154 2.809 . S
Tb152 O172 2.484 . S
Tb152 O173 2.440 . S
Tb152 O174 2.658 . S
Tb152 O175 2.409 . S
Tb152 O176 2.378 . S
Tb152 O180 2.325 . S
Tb152 O183 2.341 . S
Tb153 C163 2.809 . S
Tb153 O174 2.325 . S
Tb153 O177 2.341 . S
Tb153 O178 2.484 . S
Tb153 O179 2.440 . S
Tb153 O180 2.658 . S
Tb153 O181 2.409 . S
Tb153 O182 2.378 . S
C154 Tb152 2.809 . S
C154 C155 1.514 . S
C154 O172 1.248 . S
C154 O173 1.266 . S
C155 C154 1.514 . S
C155 C156 1.359 . S
C155 C160 1.348 . S
C156 C155 1.359 . S
C156 C157 1.380 . S
C156 H184 0.929 . S
C157 C156 1.380 . S
C157 C158 1.347 . S
C157 H185 0.931 . S
C158 C157 1.347 . S
C158 C159 1.369 . S
C159 C158 1.369 . S
C159 C160 1.408 . S
C159 H186 0.930 . S
C160 C155 1.348 . S
C160 C159 1.408 . S
C160 H187 0.930 . S
C161 O174 1.281 . S
C161 O175 1.254 . S
C162 O176 1.236 . S
C162 O177 1.266 . S
C163 Tb153 2.809 . S
C163 C164 1.514 . S
C163 O178 1.248 . S
C163 O179 1.266 . S
C164 C163 1.514 . S
C164 C165 1.359 . S
C164 C169 1.348 . S
C165 C164 1.359 . S
C165 C166 1.380 . S
C165 H188 0.929 . S
C166 C165 1.380 . S
C166 C167 1.347 . S
C166 H189 0.931 . S
C167 C166 1.347 . S
C167 C168 1.369 . S
C168 C167 1.369 . S
C168 C169 1.408 . S
C168 H190 0.930 . S
C169 C164 1.348 . S
C169 C168 1.408 . S
C169 H191 0.930 . S
C170 O180 1.281 . S
C170 O181 1.254 . S
C171 O182 1.236 . S
C171 O183 1.266 . S
O172 Tb152 2.484 . S
O172 C154 1.248 . S
O173 Tb152 2.440 . S
O173 C154 1.266 . S
O174 Tb152 2.658 . S
O174 Tb153 2.325 . S
O174 C161 1.281 . S
O175 Tb152 2.409 . S
O175 C161 1.254 . S
O176 Tb152 2.378 . S
O176 C162 1.236 . S
O177 Tb153 2.341 . S
O177 C162 1.266 . S
O178 Tb153 2.484 . S
O178 C163 1.248 . S
O179 Tb153 2.440 . S
O179 C163 1.266 . S
O180 Tb152 2.325 . S
O180 Tb153 2.658 . S
O180 C170 1.281 . S
O181 Tb153 2.409 . S
O181 C170 1.254 . S
O182 Tb153 2.378 . S
O182 C171 1.236 . S
O183 Tb152 2.341 . S
O183 C171 1.266 . S
H184 C156 0.929 . S
H185 C157 0.931 . S
H186 C159 0.930 . S
H187 C160 0.930 . S
H188 C165 0.929 . S
H189 C166 0.931 . S
H190 C168 0.930 . S
H191 C169 0.930 . S
Tb192 C194 2.809 . S
Tb192 O212 2.484 . S
Tb192 O213 2.440 . S
Tb192 O214 2.658 1_655 S
Tb192 O215 2.409 . S
Tb192 O216 2.378 . S
Tb192 O220 2.325 . S
Tb192 O223 2.341 1_655 S
Tb193 C203 2.809 . S
Tb193 O214 2.325 . S
Tb193 O217 2.341 1_455 S
Tb193 O218 2.484 . S
Tb193 O219 2.440 . S
Tb193 O220 2.658 1_455 S
Tb193 O221 2.409 . S
Tb193 O222 2.378 . S
C194 Tb192 2.809 . S
C194 C195 1.514 . S
C194 O212 1.248 . S
C194 O213 1.266 . S
C195 C194 1.514 . S
C195 C196 1.359 . S
C195 C200 1.348 . S
C196 C195 1.359 . S
C196 C197 1.380 . S
C196 H224 0.929 . S
C197 C196 1.380 . S
C197 C198 1.347 . S
C197 H225 0.931 . S
C198 C197 1.347 . S
C198 C199 1.369 . S
C199 C198 1.369 . S
C199 C200 1.408 . S
C199 H226 0.930 . S
C200 C195 1.348 . S
C200 C199 1.408 . S
C200 H227 0.930 . S
C201 O214 1.275 1_655 S
C201 O215 1.261 . S
C202 O216 1.236 . S
C202 O217 1.266 . S
C203 Tb193 2.809 . S
C203 C204 1.514 . S
C203 O218 1.248 . S
C203 O219 1.266 . S
C204 C203 1.514 . S
C204 C205 1.359 . S
C204 C209 1.348 . S
C205 C204 1.359 . S
C205 C206 1.380 . S
C205 H228 0.929 . S
C206 C205 1.380 . S
C206 C207 1.347 . S
C206 H229 0.931 . S
C207 C206 1.347 . S
C207 C208 1.369 . S
C208 C207 1.369 . S
C208 C209 1.408 . S
C208 H230 0.930 . S
C209 C204 1.348 . S
C209 C208 1.408 . S
C209 H231 0.930 . S
C210 O220 1.272 1_455 S
C210 O221 1.267 . S
C211 O222 1.236 . S
C211 O223 1.266 . S
O212 Tb192 2.484 . S
O212 C194 1.248 . S
O213 Tb192 2.440 . S
O213 C194 1.266 . S
O214 Tb192 2.658 1_455 S
O214 Tb193 2.325 . S
O214 C201 1.275 1_455 S
O215 Tb192 2.409 . S
O215 C201 1.261 . S
O216 Tb192 2.378 . S
O216 C202 1.236 . S
O217 Tb193 2.341 1_655 S
O217 C202 1.266 . S
O218 Tb193 2.484 . S
O218 C203 1.248 . S
O219 Tb193 2.440 . S
O219 C203 1.266 . S
O220 Tb192 2.325 . S
O220 Tb193 2.658 1_655 S
O220 C210 1.272 1_655 S
O221 Tb193 2.409 . S
O221 C210 1.267 . S
O222 Tb193 2.378 . S
O222 C211 1.236 . S
O223 Tb192 2.341 1_455 S
O223 C211 1.266 . S
H224 C196 0.929 . S
H225 C197 0.931 . S
H226 C199 0.930 . S
H227 C200 0.930 . S
H228 C205 0.929 . S
H229 C206 0.931 . S
H230 C208 0.930 . S
H231 C209 0.930 . S
C232 C233 1.348 1_565 S
C232 C234 1.327 . S
C232 H257 0.950 . S
C233 C232 1.348 1_545 S
C233 C249 1.350 . S
C234 C232 1.327 . S
C234 C253 1.425 1_565 S
C234 H258 0.950 . S
C235 C252 1.574 . S
C235 C254 1.373 . S
C235 H259 0.949 . S
H236 C240 0.949 . S
C237 C238 1.359 . S
C237 C239 1.327 . S
C237 H260 0.950 . S
C238 C237 1.359 . S
C238 C250 1.339 1_545 S
C239 C237 1.327 . S
C239 C255 1.436 . S
C239 H261 0.950 . S
C240 H236 0.949 . S
C240 C248 1.574 . S
C240 C256 1.361 1_565 S
H241 C249 0.950 . S
H242 C247 0.950 . S
H243 C248 0.949 . S
H244 C250 0.950 . S
H245 C251 0.950 . S
H246 C252 0.949 . S
C247 H242 0.950 . S
C247 C249 1.327 . S
C247 C253 1.432 . S
C248 C240 1.574 . S
C248 H243 0.949 . S
C248 C254 1.364 1_565 S
C249 C233 1.350 . S
C249 H241 0.950 . S
C249 C247 1.327 . S
C250 C238 1.339 1_565 S
C250 H244 0.950 . S
C250 C251 1.327 . S
C251 H245 0.950 . S
C251 C250 1.327 . S
C251 C255 1.421 1_565 S
C252 C235 1.574 . S
C252 H246 0.949 . S
C252 C256 1.375 . S
C253 C234 1.425 1_545 S
C253 C247 1.432 . S
C253 C254 1.523 . S
C254 C235 1.373 . S
C254 C248 1.364 1_545 S
C254 C253 1.523 . S
C255 C239 1.436 . S
C255 C251 1.421 1_545 S
C255 C256 1.523 . S
C256 C240 1.361 1_545 S
C256 C252 1.375 . S
C256 C255 1.523 . S
H257 C232 0.950 . S
H258 C234 0.950 . S
H259 C235 0.949 . S
H260 C237 0.950 . S
H261 C239 0.950 . S
C262 C263 1.349 . S
C262 C264 1.327 . S
C262 H287 0.950 . S
C263 C262 1.349 . S
C263 C279 1.349 . S
C264 C262 1.327 . S
C264 C283 1.429 . S
C264 H288 0.950 . S
C265 C282 1.574 . S
C265 C284 1.368 . S
C265 H289 0.949 . S
H266 C270 0.949 . S
C267 C268 1.349 . S
C267 C269 1.327 . S
C267 H290 0.950 . S
C268 C267 1.349 . S
C268 C280 1.349 . S
C269 C267 1.327 . S
C269 C285 1.429 . S
C269 H291 0.950 . S
C270 H266 0.949 . S
C270 C278 1.574 . S
C270 C286 1.368 . S
H271 C279 0.950 . S
H272 C277 0.950 . S
H273 C278 0.949 . S
H274 C280 0.950 . S
H275 C281 0.950 . S
H276 C282 0.949 . S
C277 H272 0.950 . S
C277 C279 1.327 . S
C277 C283 1.429 . S
C278 C270 1.574 . S
C278 H273 0.949 . S
C278 C284 1.368 . S
C279 C263 1.349 . S
C279 H271 0.950 . S
C279 C277 1.327 . S
C280 C268 1.349 . S
C280 H274 0.950 . S
C280 C281 1.327 . S
C281 H275 0.950 . S
C281 C280 1.327 . S
C281 C285 1.429 . S
C282 C265 1.574 . S
C282 H276 0.949 . S
C282 C286 1.368 . S
C283 C264 1.429 . S
C283 C277 1.429 . S
C283 C284 1.523 . S
C284 C265 1.368 . S
C284 C278 1.368 . S
C284 C283 1.523 . S
C285 C269 1.429 . S
C285 C281 1.429 . S
C285 C286 1.523 . S
C286 C270 1.368 . S
C286 C282 1.368 . S
C286 C285 1.523 . S
H287 C262 0.950 . S
H288 C264 0.950 . S
H289 C265 0.949 . S
H290 C267 0.950 . S
H291 C269 0.950 . S
C292 C293 1.349 . S
C292 C294 1.327 . S
C292 H317 0.950 . S
C293 C292 1.349 . S
C293 C309 1.349 . S
C294 C292 1.327 . S
C294 C313 1.429 . S
C294 H318 0.950 . S
C295 C312 1.574 . S
C295 C314 1.368 . S
C295 H319 0.949 . S
H296 C300 0.949 . S
C297 C298 1.349 . S
C297 C299 1.327 . S
C297 H320 0.950 . S
C298 C297 1.349 . S
C298 C310 1.349 . S
C299 C297 1.327 . S
C299 C315 1.429 . S
C299 H321 0.950 . S
C300 H296 0.949 . S
C300 C308 1.574 . S
C300 C316 1.368 . S
H301 C309 0.950 . S
H302 C307 0.950 . S
H303 C308 0.949 . S
H304 C310 0.950 . S
H305 C311 0.950 . S
H306 C312 0.949 . S
C307 H302 0.950 . S
C307 C309 1.327 . S
C307 C313 1.429 . S
C308 C300 1.574 . S
C308 H303 0.949 . S
C308 C314 1.368 . S
C309 C293 1.349 . S
C309 H301 0.950 . S
C309 C307 1.327 . S
C310 C298 1.349 . S
C310 H304 0.950 . S
C310 C311 1.327 . S
C311 H305 0.950 . S
C311 C310 1.327 . S
C311 C315 1.429 . S
C312 C295 1.574 . S
C312 H306 0.949 . S
C312 C316 1.368 . S
C313 C294 1.429 . S
C313 C307 1.429 . S
C313 C314 1.523 . S
C314 C295 1.368 . S
C314 C308 1.368 . S
C314 C313 1.523 . S
C315 C299 1.429 . S
C315 C311 1.429 . S
C315 C316 1.523 . S
C316 C300 1.368 . S
C316 C312 1.368 . S
C316 C315 1.523 . S
H317 C292 0.950 . S
H318 C294 0.950 . S
H319 C295 0.949 . S
H320 C297 0.950 . S
H321 C299 0.950 . S
C322 C323 1.351 . S
C322 C324 1.327 . S
C322 H347 0.950 . S
C323 C322 1.351 . S
C323 C339 1.347 1_455 S
C324 C322 1.327 . S
C324 C343 1.435 . S
C324 H348 0.950 . S
C325 C342 1.574 . S
C325 C344 1.358 1_655 S
C325 H349 0.949 . S
H326 C330 0.949 . S
C327 C328 1.349 1_655 S
C327 C329 1.327 . S
C327 H350 0.950 . S
C328 C327 1.349 1_455 S
C328 C340 1.349 . S
C329 C327 1.327 . S
C329 C345 1.413 1_655 S
C329 H351 0.950 . S
C330 H326 0.949 . S
C330 C338 1.574 . S
C330 C346 1.384 . S
H331 C339 0.950 . S
H332 C337 0.950 . S
H333 C338 0.949 . S
H334 C340 0.950 . S
H335 C341 0.950 . S
H336 C342 0.949 . S
C337 H332 0.950 . S
C337 C339 1.327 . S
C337 C343 1.422 1_655 S
C338 C330 1.574 . S
C338 H333 0.949 . S
C338 C344 1.379 . S
C339 C323 1.347 1_655 S
C339 H331 0.950 . S
C339 C337 1.327 . S
C340 C328 1.349 . S
C340 H334 0.950 . S
C340 C341 1.327 . S
C341 H335 0.950 . S
C341 C340 1.327 . S
C341 C345 1.446 . S
C342 C325 1.574 . S
C342 H336 0.949 . S
C342 C346 1.353 1_655 S
C343 C324 1.435 . S
C343 C337 1.422 1_455 S
C343 C344 1.523 . S
C344 C325 1.358 1_455 S
C344 C338 1.379 . S
C344 C343 1.523 . S
C345 C329 1.413 1_455 S
C345 C341 1.446 . S
C345 C346 1.523 . S
C346 C330 1.384 . S
C346 C342 1.353 1_455 S
C346 C345 1.523 . S
H347 C322 0.950 . S
H348 C324 0.950 . S
H349 C325 0.949 . S
H350 C327 0.950 . S
H351 C329 0.950 . S
C352 C353 1.348 . S
C352 C354 1.327 . S
C352 H377 0.950 . S
C353 C352 1.348 . S
C353 C369 1.350 1_545 S
C354 C352 1.327 . S
C354 C373 1.425 . S
C354 H378 0.950 . S
C355 C372 1.574 . S
C355 C374 1.364 . S
C355 H379 0.949 . S
H356 C360 0.949 . S
C357 C358 1.350 . S
C357 C359 1.327 . S
C357 H380 0.950 . S
C358 C357 1.350 . S
C358 C370 1.347 1_565 S
C359 C357 1.327 . S
C359 C375 1.428 . S
C359 H381 0.950 . S
C360 H356 0.949 . S
C360 C368 1.574 . S
C360 C376 1.370 1_545 S
H361 C369 0.950 . S
H362 C367 0.950 . S
H363 C368 0.949 . S
H364 C370 0.950 . S
H365 C371 0.950 . S
H366 C372 0.949 1_556 S
C367 H362 0.950 . S
C367 C369 1.327 . S
C367 C373 1.432 1_565 S
C368 C360 1.574 . S
C368 H363 0.949 . S
C368 C374 1.373 1_545 S
C369 C353 1.350 1_565 S
C369 H361 0.950 . S
C369 C367 1.327 . S
C370 C358 1.347 1_545 S
C370 H364 0.950 . S
C370 C371 1.327 . S
C371 H365 0.950 . S
C371 C370 1.327 . S
C371 C375 1.429 1_545 S
C372 C355 1.574 . S
C372 H366 0.949 1_554 S
C372 C376 1.366 . S
C373 C354 1.425 . S
C373 C367 1.432 1_545 S
C373 C374 1.523 1_545 S
C374 C355 1.364 . S
C374 C368 1.373 1_565 S
C374 C373 1.523 1_565 S
C375 C359 1.428 . S
C375 C371 1.429 1_565 S
C375 C376 1.523 1_556 S
C376 C360 1.370 1_565 S
C376 C372 1.366 . S
C376 C375 1.523 1_554 S
H377 C352 0.950 . S
H378 C354 0.950 . S
H379 C355 0.949 . S
H380 C357 0.950 . S
H381 C359 0.950 . S
C382 C383 1.349 . S
C382 C384 1.327 . S
C382 H407 0.950 . S
C383 C382 1.349 . S
C383 C399 1.349 . S
C384 C382 1.327 . S
C384 C403 1.429 . S
C384 H408 0.950 . S
C385 C402 1.574 . S
C385 C404 1.368 . S
C385 H409 0.949 . S
H386 C390 0.949 1_556 S
C387 C388 1.349 . S
C387 C389 1.327 . S
C387 H410 0.950 . S
C388 C387 1.349 . S
C388 C400 1.349 . S
C389 C387 1.327 . S
C389 C405 1.429 . S
C389 H411 0.950 . S
C390 H386 0.949 1_554 S
C390 C398 1.574 . S
C390 C406 1.368 . S
H391 C399 0.950 . S
H392 C397 0.950 . S
H393 C398 0.949 . S
H394 C400 0.950 . S
H395 C401 0.950 . S
H396 C402 0.949 . S
C397 H392 0.950 . S
C397 C399 1.327 . S
C397 C403 1.429 . S
C398 C390 1.574 . S
C398 H393 0.949 . S
C398 C404 1.368 . S
C399 C383 1.349 . S
C399 H391 0.950 . S
C399 C397 1.327 . S
C400 C388 1.349 . S
C400 H394 0.950 . S
C400 C401 1.327 . S
C401 H395 0.950 . S
C401 C400 1.327 . S
C401 C405 1.429 . S
C402 C385 1.574 . S
C402 H396 0.949 . S
C402 C406 1.368 . S
C403 C384 1.429 . S
C403 C397 1.429 . S
C403 C404 1.523 . S
C404 C385 1.368 . S
C404 C398 1.368 . S
C404 C403 1.523 . S
C405 C389 1.429 . S
C405 C401 1.429 . S
C405 C406 1.523 1_556 S
C406 C390 1.368 . S
C406 C402 1.368 . S
C406 C405 1.523 1_554 S
H407 C382 0.950 . S
H408 C384 0.950 . S
H409 C385 0.949 . S
H410 C387 0.950 . S
H411 C389 0.950 . S
C412 C413 1.349 . S
C412 C414 1.327 . S
C412 H437 0.950 . S
C413 C412 1.349 . S
C413 C429 1.349 . S
C414 C412 1.327 . S
C414 C433 1.429 . S
C414 H438 0.950 . S
C415 C432 1.574 . S
C415 C434 1.368 . S
C415 H439 0.949 . S
H416 C420 0.949 1_556 S
C417 C418 1.349 . S
C417 C419 1.327 . S
C417 H440 0.950 . S
C418 C417 1.349 . S
C418 C430 1.349 . S
C419 C417 1.327 . S
C419 C435 1.429 . S
C419 H441 0.950 . S
C420 H416 0.949 1_554 S
C420 C428 1.574 . S
C420 C436 1.368 . S
H421 C429 0.950 . S
H422 C427 0.950 . S
H423 C428 0.949 . S
H424 C430 0.950 . S
H425 C431 0.950 . S
H426 C432 0.949 . S
C427 H422 0.950 . S
C427 C429 1.327 . S
C427 C433 1.429 . S
C428 C420 1.574 . S
C428 H423 0.949 . S
C428 C434 1.368 . S
C429 C413 1.349 . S
C429 H421 0.950 . S
C429 C427 1.327 . S
C430 C418 1.349 . S
C430 H424 0.950 . S
C430 C431 1.327 . S
C431 H425 0.950 . S
C431 C430 1.327 . S
C431 C435 1.429 . S
C432 C415 1.574 . S
C432 H426 0.949 . S
C432 C436 1.368 . S
C433 C414 1.429 . S
C433 C427 1.429 . S
C433 C434 1.523 . S
C434 C415 1.368 . S
C434 C428 1.368 . S
C434 C433 1.523 . S
C435 C419 1.429 . S
C435 C431 1.429 . S
C435 C436 1.523 1_556 S
C436 C420 1.368 . S
C436 C432 1.368 . S
C436 C435 1.523 1_554 S
H437 C412 0.950 . S
H438 C414 0.950 . S
H439 C415 0.949 . S
H440 C417 0.950 . S
H441 C419 0.950 . S
C442 C443 1.346 1_455 S
C442 C444 1.327 . S
C442 H467 0.950 . S
C443 C442 1.346 1_655 S
C443 C459 1.352 . S
C444 C442 1.327 . S
C444 C463 1.418 1_455 S
C444 H468 0.950 . S
C445 C462 1.574 . S
C445 C464 1.385 . S
C445 H469 0.949 . S
H446 C450 0.949 . S
C447 C448 1.349 . S
C447 C449 1.327 . S
C447 H470 0.950 . S
C448 C447 1.349 . S
C448 C460 1.349 1_655 S
C449 C447 1.327 . S
C449 C465 1.456 . S
C449 H471 0.950 . S
C450 H446 0.949 . S
C450 C458 1.574 1_556 S
C450 C466 1.344 1_456 S
H451 C459 0.950 . S
H452 C457 0.950 . S
H453 C458 0.949 . S
H454 C460 0.950 . S
H455 C461 0.950 . S
H456 C462 0.949 . S
C457 H452 0.950 . S
C457 C459 1.327 . S
C457 C463 1.439 . S
C458 C450 1.574 1_554 S
C458 H453 0.949 . S
C458 C464 1.352 1_455 S
C459 C443 1.352 . S
C459 H451 0.950 . S
C459 C457 1.327 . S
C460 C448 1.349 1_455 S
C460 H454 0.950 . S
C460 C461 1.327 . S
C461 H455 0.950 . S
C461 C460 1.327 . S
C461 C465 1.403 1_455 S
C462 C445 1.574 . S
C462 H456 0.949 . S
C462 C466 1.393 . S
C463 C444 1.418 1_655 S
C463 C457 1.439 . S
C463 C464 1.523 . S
C464 C445 1.385 . S
C464 C458 1.352 1_655 S
C464 C463 1.523 . S
C465 C449 1.456 . S
C465 C461 1.403 1_655 S
C465 C466 1.523 1_556 S
C466 C450 1.344 1_654 S
C466 C462 1.393 . S
C466 C465 1.523 1_554 S
H467 C442 0.950 . S
H468 C444 0.950 . S
H469 C445 0.949 . S
H470 C447 0.950 . S
H471 C449 0.950 . S
C472 C473 1.349 . S
C472 C474 1.335 . S
C472 H497 0.950 . S
C473 C472 1.349 . S
C473 C489 1.349 1_455 S
C474 C472 1.335 . S
C474 C493 1.416 1_455 S
C474 H498 0.956 . S
C475 C492 1.574 . S
C475 C494 1.368 . S
C475 H499 0.949 . S
H476 C480 0.949 . S
C477 C478 1.349 . S
C477 C479 1.327 . S
C477 H500 0.950 . S
C478 C477 1.349 . S
C478 C490 1.349 . S
C479 C477 1.327 . S
C479 C495 1.429 . S
C479 H501 0.950 . S
C480 H476 0.949 . S
C480 C488 1.574 . S
C480 C496 1.368 . S
H481 C489 0.950 . S
H482 C487 0.950 . S
H483 C488 0.949 . S
H484 C490 0.950 . S
H485 C491 0.950 . S
H486 C492 0.949 . S
C487 H482 0.950 . S
C487 C489 1.327 . S
C487 C493 1.429 . S
C488 C480 1.574 . S
C488 H483 0.949 . S
C488 C494 1.368 . S
C489 C473 1.349 1_655 S
C489 H481 0.950 . S
C489 C487 1.327 . S
C490 C478 1.349 . S
C490 H484 0.950 . S
C490 C491 1.327 . S
C491 H485 0.950 . S
C491 C490 1.327 . S
C491 C495 1.429 . S
C492 C475 1.574 . S
C492 H486 0.949 . S
C492 C496 1.368 . S
C493 C474 1.416 1_655 S
C493 C487 1.429 . S
C493 C494 1.523 . S
C494 C475 1.368 . S
C494 C488 1.368 . S
C494 C493 1.523 . S
C495 C479 1.429 . S
C495 C491 1.429 . S
C495 C496 1.523 . S
C496 C480 1.368 . S
C496 C492 1.368 . S
C496 C495 1.523 . S
H497 C472 0.950 . S
H498 C474 0.956 . S
H499 C475 0.949 . S
H500 C477 0.950 . S
H501 C479 0.950 . S
C502 C503 1.349 . S
C502 C504 1.327 . S
C502 H527 0.950 . S
C503 C502 1.349 . S
C503 C519 1.349 1_545 S
C504 C502 1.327 . S
C504 C523 1.429 1_545 S
C504 H528 0.950 . S
C505 C522 1.574 . S
C505 C524 1.368 . S
C505 H529 0.949 . S
H506 C510 0.949 1_545 S
C507 C508 1.349 . S
C507 C509 1.327 . S
C507 H530 0.950 . S
C508 C507 1.349 . S
C508 C520 1.349 . S
C509 C507 1.327 . S
C509 C525 1.429 . S
C509 H531 0.950 . S
C510 H506 0.949 1_565 S
C510 C518 1.577 . S
C510 C526 1.368 . S
H511 C519 0.950 . S
H512 C517 0.950 . S
H513 C518 0.939 1_545 S
H514 C520 0.950 . S
H515 C521 0.950 . S
H516 C522 0.949 . S
C517 H512 0.950 . S
C517 C519 1.327 . S
C517 C523 1.429 . S
C518 C510 1.577 . S
C518 H513 0.939 1_565 S
C518 C524 1.376 . S
C519 C503 1.349 1_565 S
C519 H511 0.950 . S
C519 C517 1.327 . S
C520 C508 1.349 . S
C520 H514 0.950 . S
C520 C521 1.327 . S
C521 H515 0.950 . S
C521 C520 1.327 . S
C521 C525 1.429 . S
C522 C505 1.574 . S
C522 H516 0.949 . S
C522 C526 1.368 . S
C523 C504 1.429 1_565 S
C523 C517 1.429 . S
C523 C524 1.523 . S
C524 C505 1.368 . S
C524 C518 1.376 . S
C524 C523 1.523 . S
C525 C509 1.429 . S
C525 C521 1.429 . S
C525 C526 1.523 . S
C526 C510 1.368 . S
C526 C522 1.368 . S
C526 C525 1.523 . S
H527 C502 0.950 . S
H528 C504 0.950 . S
H529 C505 0.949 . S
H530 C507 0.950 . S
H531 C509 0.950 . S
C532 C533 1.349 . S
C532 C534 1.327 . S
C532 H557 0.950 . S
C533 C532 1.349 . S
C533 C549 1.349 . S
C534 C532 1.327 . S
C534 C553 1.429 . S
C534 H558 0.950 . S
C535 C552 1.574 . S
C535 C554 1.368 . S
C535 H559 0.949 . S
H536 C540 0.949 . S
C537 C538 1.349 . S
C537 C539 1.327 . S
C537 H560 0.950 . S
C538 C537 1.349 . S
C538 C550 1.349 . S
C539 C537 1.327 . S
C539 C555 1.429 . S
C539 H561 0.950 . S
C540 H536 0.949 . S
C540 C548 1.574 . S
C540 C556 1.368 . S
H541 C549 0.950 . S
H542 C547 0.950 . S
H543 C548 0.949 . S
H544 C550 0.950 . S
H545 C551 0.950 . S
H546 C552 0.949 . S
C547 H542 0.950 . S
C547 C549 1.327 . S
C547 C553 1.429 . S
C548 C540 1.574 . S
C548 H543 0.949 . S
C548 C554 1.368 . S
C549 C533 1.349 . S
C549 H541 0.950 . S
C549 C547 1.327 . S
C550 C538 1.349 . S
C550 H544 0.950 . S
C550 C551 1.327 . S
C551 H545 0.950 . S
C551 C550 1.327 . S
C551 C555 1.429 . S
C552 C535 1.574 . S
C552 H546 0.949 . S
C552 C556 1.368 . S
C553 C534 1.429 . S
C553 C547 1.429 . S
C553 C554 1.523 . S
C554 C535 1.368 . S
C554 C548 1.368 . S
C554 C553 1.523 . S
C555 C539 1.429 . S
C555 C551 1.429 . S
C555 C556 1.523 . S
C556 C540 1.368 . S
C556 C552 1.368 . S
C556 C555 1.523 . S
H557 C532 0.950 . S
H558 C534 0.950 . S
H559 C535 0.949 . S
H560 C537 0.950 . S
H561 C539 0.950 . S
C562 C563 1.349 . S
C562 C564 1.327 . S
C562 H587 0.950 . S
C563 C562 1.349 . S
C563 C579 1.349 . S
C564 C562 1.327 . S
C564 C583 1.429 . S
C564 H588 0.950 . S
C565 C582 1.574 . S
C565 C584 1.368 . S
C565 H589 0.949 . S
H566 C570 0.949 . S
C567 C568 1.349 . S
C567 C569 1.327 . S
C567 H590 0.950 . S
C568 C567 1.349 . S
C568 C580 1.349 . S
C569 C567 1.327 . S
C569 C585 1.429 . S
C569 H591 0.950 . S
C570 H566 0.949 . S
C570 C578 1.574 . S
C570 C586 1.368 . S
H571 C579 0.950 . S
H572 C577 0.950 . S
H573 C578 0.949 . S
H574 C580 0.950 . S
H575 C581 0.950 . S
H576 C582 0.949 . S
C577 H572 0.950 . S
C577 C579 1.327 . S
C577 C583 1.429 . S
C578 C570 1.574 . S
C578 H573 0.949 . S
C578 C584 1.368 . S
C579 C563 1.349 . S
C579 H571 0.950 . S
C579 C577 1.327 . S
C580 C568 1.349 . S
C580 H574 0.950 . S
C580 C581 1.327 . S
C581 H575 0.950 . S
C581 C580 1.327 . S
C581 C585 1.429 . S
C582 C565 1.574 . S
C582 H576 0.949 . S
C582 C586 1.368 . S
C583 C564 1.429 . S
C583 C577 1.429 . S
C583 C584 1.523 . S
C584 C565 1.368 . S
C584 C578 1.368 . S
C584 C583 1.523 . S
C585 C569 1.429 . S
C585 C581 1.429 . S
C585 C586 1.523 . S
C586 C570 1.368 . S
C586 C582 1.368 . S
C586 C585 1.523 . S
H587 C562 0.950 . S
H588 C564 0.950 . S
H589 C565 0.949 . S
H590 C567 0.950 . S
H591 C569 0.950 . S
C592 C593 1.349 1_455 S
C592 C594 1.327 . S
C592 H617 0.950 . S
C593 C592 1.349 1_655 S
C593 C609 1.349 . S
C594 C592 1.327 . S
C594 C613 1.429 . S
C594 H618 0.950 . S
C595 C612 1.574 . S
C595 C614 1.368 . S
C595 H619 0.950 1_455 S
H596 C600 0.949 . S
C597 C598 1.349 . S
C597 C599 1.327 . S
C597 H620 0.950 . S
C598 C597 1.349 . S
C598 C610 1.349 1_556 S
C599 C597 1.327 . S
C599 C615 1.429 1_556 S
C599 H621 0.950 . S
C600 H596 0.949 . S
C600 C608 1.574 . S
C600 C616 1.368 . S
H601 C609 0.950 . S
H602 C607 0.950 . S
H603 C608 0.949 . S
H604 C610 0.950 . S
H605 C611 0.950 . S
H606 C612 0.949 1_556 S
C607 H602 0.950 . S
C607 C609 1.327 . S
C607 C613 1.429 1_655 S
C608 C600 1.574 . S
C608 H603 0.949 . S
C608 C614 1.368 . S
C609 C593 1.349 . S
C609 H601 0.950 . S
C609 C607 1.327 . S
C610 C598 1.349 1_554 S
C610 H604 0.950 . S
C610 C611 1.327 . S
C611 H605 0.950 . S
C611 C610 1.327 . S
C611 C615 1.429 . S
C612 C595 1.574 . S
C612 H606 0.949 1_554 S
C612 C616 1.368 . S
C613 C594 1.429 . S
C613 C607 1.429 1_455 S
C613 C614 1.523 . S
C614 C595 1.368 . S
C614 C608 1.368 . S
C614 C613 1.523 . S
C615 C599 1.429 1_554 S
C615 C611 1.429 . S
C615 C616 1.523 . S
C616 C600 1.368 . S
C616 C612 1.368 . S
C616 C615 1.523 . S
H617 C592 0.950 . S
H618 C594 0.950 . S
H619 C595 0.950 1_655 S
H620 C597 0.950 . S
H621 C599 0.950 . S
C622 C623 1.349 1_545 S
C622 C624 1.327 . S
C622 H647 0.950 . S
C623 C622 1.349 1_565 S
C623 C639 1.349 . S
C624 C622 1.327 . S
C624 C643 1.429 . S
C624 H648 0.950 . S
C625 C642 1.574 . S
C625 C644 1.368 1_565 S
C625 H649 0.949 . S
H626 C630 0.949 . S
C627 C628 1.349 . S
C627 C629 1.327 1_556 S
C627 H650 0.950 . S
C628 C627 1.349 . S
C628 C640 1.349 . S
C629 C627 1.327 1_554 S
C629 C645 1.429 . S
C629 H651 0.950 1_545 S
C630 H626 0.949 . S
C630 C638 1.574 . S
C630 C646 1.368 . S
H631 C639 0.950 . S
H632 C637 0.950 . S
H633 C638 0.949 . S
H634 C640 0.950 . S
H635 C641 0.950 . S
H636 C642 0.949 . S
C637 H632 0.950 . S
C637 C639 1.327 . S
C637 C643 1.429 1_565 S
C638 C630 1.574 . S
C638 H633 0.949 . S
C638 C644 1.368 . S
C639 C623 1.349 . S
C639 H631 0.950 . S
C639 C637 1.327 . S
C640 C628 1.349 . S
C640 H634 0.950 . S
C640 C641 1.327 . S
C641 H635 0.950 . S
C641 C640 1.327 . S
C641 C645 1.429 1_556 S
C642 C625 1.574 . S
C642 H636 0.949 . S
C642 C646 1.368 1_565 S
C643 C624 1.429 . S
C643 C637 1.429 1_545 S
C643 C644 1.523 . S
C644 C625 1.368 1_545 S
C644 C638 1.368 . S
C644 C643 1.523 . S
C645 C629 1.429 . S
C645 C641 1.429 1_554 S
C645 C646 1.523 . S
C646 C630 1.368 . S
C646 C642 1.368 1_545 S
C646 C645 1.523 . S
H647 C622 0.950 . S
H648 C624 0.950 . S
H649 C625 0.949 . S
H650 C627 0.950 . S
H651 C629 0.950 1_565 S
C652 C653 1.349 . S
C652 C654 1.327 . S
C652 H677 0.950 . S
C653 C652 1.349 . S
C653 C669 1.349 . S
C654 C652 1.327 . S
C654 C673 1.429 . S
C654 H678 0.950 . S
C655 C672 1.574 . S
C655 C674 1.368 . S
C655 H679 0.949 . S
H656 C660 0.949 . S
C657 C658 1.349 1_554 S
C657 C659 1.327 . S
C657 H680 0.950 . S
C658 C657 1.349 1_556 S
C658 C670 1.349 . S
C659 C657 1.327 . S
C659 C675 1.429 . S
C659 H681 0.950 . S
C660 H656 0.949 . S
C660 C668 1.574 . S
C660 C676 1.368 . S
H661 C669 0.950 . S
H662 C667 0.950 . S
H663 C668 0.949 . S
H664 C670 0.950 . S
H665 C671 0.950 . S
H666 C672 0.949 . S
C667 H662 0.950 . S
C667 C669 1.327 . S
C667 C673 1.429 . S
C668 C660 1.574 . S
C668 H663 0.949 . S
C668 C674 1.368 . S
C669 C653 1.349 . S
C669 H661 0.950 . S
C669 C667 1.327 . S
C670 C658 1.349 . S
C670 H664 0.950 . S
C670 C671 1.327 . S
C671 H665 0.950 . S
C671 C670 1.327 . S
C671 C675 1.429 1_556 S
C672 C655 1.574 . S
C672 H666 0.949 . S
C672 C676 1.368 . S
C673 C654 1.429 . S
C673 C667 1.429 . S
C673 C674 1.523 . S
C674 C655 1.368 . S
C674 C668 1.368 . S
C674 C673 1.523 . S
C675 C659 1.429 . S
C675 C671 1.429 1_554 S
C675 C676 1.523 . S
C676 C660 1.368 . S
C676 C672 1.368 . S
C676 C675 1.523 . S
H677 C652 0.950 . S
H678 C654 0.950 . S
H679 C655 0.949 . S
H680 C657 0.950 . S
H681 C659 0.950 . S
C682 C683 1.349 . S
C682 C684 1.327 . S
C682 H707 0.950 . S
C683 C682 1.349 . S
C683 C699 1.349 . S
C684 C682 1.327 . S
C684 C703 1.429 . S
C684 H708 0.950 . S
C685 C702 1.574 . S
C685 C704 1.368 . S
C685 H709 0.949 . S
H686 C690 0.949 . S
C687 C688 1.349 . S
C687 C689 1.327 1_556 S
C687 H710 0.950 . S
C688 C687 1.349 . S
C688 C700 1.349 . S
C689 C687 1.327 1_554 S
C689 C705 1.429 . S
C689 H711 0.950 . S
C690 H686 0.949 . S
C690 C698 1.574 . S
C690 C706 1.368 . S
H691 C699 0.950 . S
H692 C697 0.950 . S
H693 C698 0.949 . S
H694 C700 0.950 . S
H695 C701 0.950 . S
H696 C702 0.949 . S
C697 H692 0.950 . S
C697 C699 1.327 . S
C697 C703 1.429 . S
C698 C690 1.574 . S
C698 H693 0.949 . S
C698 C704 1.368 . S
C699 C683 1.349 . S
C699 H691 0.950 . S
C699 C697 1.327 . S
C700 C688 1.349 . S
C700 H694 0.950 . S
C700 C701 1.327 . S
C701 H695 0.950 . S
C701 C700 1.327 . S
C701 C705 1.429 1_556 S
C702 C685 1.574 . S
C702 H696 0.949 . S
C702 C706 1.368 . S
C703 C684 1.429 . S
C703 C697 1.429 . S
C703 C704 1.523 . S
C704 C685 1.368 . S
C704 C698 1.368 . S
C704 C703 1.523 . S
C705 C689 1.429 . S
C705 C701 1.429 1_554 S
C705 C706 1.523 . S
C706 C690 1.368 . S
C706 C702 1.368 . S
C706 C705 1.523 . S
H707 C682 0.950 . S
H708 C684 0.950 . S
H709 C685 0.949 . S
H710 C687 0.950 . S
H711 C689 0.950 . S
C712 C713 1.349 . S
C712 C714 1.327 . S
C712 H737 0.950 . S
C713 C712 1.349 . S
C713 C729 1.349 1_455 S
C714 C712 1.327 . S
C714 C733 1.429 . S
C714 H738 0.950 . S
C715 C732 1.574 . S
C715 C734 1.368 1_655 S
C715 H739 0.949 . S
H716 C720 0.949 . S
C717 C718 1.339 1_655 S
C717 C719 1.328 . S
C717 H740 0.958 . S
C718 C717 1.339 1_455 S
C718 C730 1.349 . S
C719 C717 1.328 . S
C719 C735 1.429 1_655 S
C719 H741 0.950 . S
C720 H716 0.949 . S
C720 C728 1.574 . S
C720 C736 1.368 . S
H721 C729 0.950 1_554 S
H722 C727 0.950 . S
H723 C728 0.949 . S
H724 C730 0.950 . S
H725 C731 0.950 . S
H726 C732 0.949 . S
C727 H722 0.950 . S
C727 C729 1.327 . S
C727 C733 1.429 1_655 S
C728 C720 1.574 . S
C728 H723 0.949 . S
C728 C734 1.368 . S
C729 C713 1.349 1_655 S
C729 H721 0.950 1_556 S
C729 C727 1.327 . S
C730 C718 1.349 . S
C730 H724 0.950 . S
C730 C731 1.327 . S
C731 H725 0.950 . S
C731 C730 1.327 . S
C731 C735 1.429 . S
C732 C715 1.574 . S
C732 H726 0.949 . S
C732 C736 1.368 1_655 S
C733 C714 1.429 . S
C733 C727 1.429 1_455 S
C733 C734 1.523 . S
C734 C715 1.368 1_455 S
C734 C728 1.368 . S
C734 C733 1.523 . S
C735 C719 1.429 1_455 S
C735 C731 1.429 . S
C735 C736 1.523 . S
C736 C720 1.368 . S
C736 C732 1.368 1_455 S
C736 C735 1.523 . S
H737 C712 0.950 . S
H738 C714 0.950 . S
H739 C715 0.949 . S
H740 C717 0.958 . S
H741 C719 0.950 . S
C742 C743 1.349 . S
C742 C744 1.327 . S
C742 H767 0.950 1_556 S
C743 C742 1.349 . S
C743 C759 1.349 1_545 S
C744 C742 1.327 . S
C744 C763 1.429 . S
C744 H768 0.950 . S
C745 C762 1.574 . S
C745 C764 1.368 1_565 S
C745 H769 0.949 . S
H746 C750 0.949 . S
C747 C748 1.349 1_565 S
C747 C749 1.327 . S
C747 H770 0.950 . S
C748 C747 1.349 1_545 S
C748 C760 1.349 . S
C749 C747 1.327 . S
C749 C765 1.429 1_565 S
C749 H771 0.950 . S
C750 H746 0.949 . S
C750 C758 1.574 . S
C750 C766 1.368 . S
H751 C759 0.950 . S
H752 C757 0.950 . S
H753 C758 0.949 . S
H754 C760 0.950 . S
H755 C761 0.950 . S
H756 C762 0.949 . S
C757 H752 0.950 . S
C757 C759 1.327 . S
C757 C763 1.429 1_565 S
C758 C750 1.574 . S
C758 H753 0.949 . S
C758 C764 1.368 . S
C759 C743 1.349 1_565 S
C759 H751 0.950 . S
C759 C757 1.327 . S
C760 C748 1.349 . S
C760 H754 0.950 . S
C760 C761 1.327 . S
C761 H755 0.950 . S
C761 C760 1.327 . S
C761 C765 1.429 . S
C762 C745 1.574 . S
C762 H756 0.949 . S
C762 C766 1.368 1_565 S
C763 C744 1.429 . S
C763 C757 1.429 1_545 S
C763 C764 1.523 . S
C764 C745 1.368 1_545 S
C764 C758 1.368 . S
C764 C763 1.523 . S
C765 C749 1.429 1_545 S
C765 C761 1.429 . S
C765 C766 1.523 . S
C766 C750 1.368 . S
C766 C762 1.368 1_545 S
C766 C765 1.523 . S
H767 C742 0.950 1_554 S
H768 C744 0.950 . S
H769 C745 0.949 . S
H770 C747 0.950 . S
H771 C749 0.950 . S
C772 C773 1.349 . S
C772 C774 1.327 . S
C772 H797 0.950 . S
C773 C772 1.349 . S
C773 C789 1.349 . S
C774 C772 1.327 . S
C774 C793 1.429 . S
C774 H798 0.950 . S
C775 C792 1.574 . S
C775 C794 1.368 . S
C775 H799 0.949 . S
H776 C780 0.949 . S
C777 C778 1.349 . S
C777 C779 1.327 . S
C777 H800 0.950 . S
C778 C777 1.349 . S
C778 C790 1.349 . S
C779 C777 1.327 . S
C779 C795 1.429 . S
C779 H801 0.950 . S
C780 H776 0.949 . S
C780 C788 1.574 . S
C780 C796 1.368 . S
H781 C789 0.950 1_554 S
H782 C787 0.950 . S
H783 C788 0.949 . S
H784 C790 0.950 . S
H785 C791 0.950 . S
H786 C792 0.949 . S
C787 H782 0.950 . S
C787 C789 1.327 . S
C787 C793 1.429 . S
C788 C780 1.574 . S
C788 H783 0.949 . S
C788 C794 1.368 . S
C789 C773 1.349 . S
C789 H781 0.950 1_556 S
C789 C787 1.327 . S
C790 C778 1.349 . S
C790 H784 0.950 . S
C790 C791 1.327 . S
C791 H785 0.950 . S
C791 C790 1.327 . S
C791 C795 1.429 . S
C792 C775 1.574 . S
C792 H786 0.949 . S
C792 C796 1.368 . S
C793 C774 1.429 . S
C793 C787 1.429 . S
C793 C794 1.523 . S
C794 C775 1.368 . S
C794 C788 1.368 . S
C794 C793 1.523 . S
C795 C779 1.429 . S
C795 C791 1.429 . S
C795 C796 1.523 . S
C796 C780 1.368 . S
C796 C792 1.368 . S
C796 C795 1.523 . S
H797 C772 0.950 . S
H798 C774 0.950 . S
H799 C775 0.949 . S
H800 C777 0.950 . S
H801 C779 0.950 . S
C802 C803 1.349 . S
C802 C804 1.327 . S
C802 H827 0.950 . S
C803 C802 1.349 . S
C803 C819 1.349 . S
C804 C802 1.327 . S
C804 C823 1.429 . S
C804 H828 0.950 . S
C805 C822 1.574 . S
C805 C824 1.368 . S
C805 H829 0.949 . S
H806 C810 0.949 . S
C807 C808 1.349 . S
C807 C809 1.327 . S
C807 H830 0.950 . S
C808 C807 1.349 . S
C808 C820 1.349 . S
C809 C807 1.327 . S
C809 C825 1.429 . S
C809 H831 0.950 . S
C810 H806 0.949 . S
C810 C818 1.574 . S
C810 C826 1.368 . S
H811 C819 0.950 . S
H812 C817 0.950 . S
H813 C818 0.949 . S
H814 C820 0.950 . S
H815 C821 0.950 . S
H816 C822 0.949 . S
C817 H812 0.950 . S
C817 C819 1.327 . S
C817 C823 1.429 . S
C818 C810 1.574 . S
C818 H813 0.949 . S
C818 C824 1.368 . S
C819 C803 1.349 . S
C819 H811 0.950 . S
C819 C817 1.327 . S
C820 C808 1.349 . S
C820 H814 0.950 . S
C820 C821 1.327 . S
C821 H815 0.950 . S
C821 C820 1.327 . S
C821 C825 1.429 . S
C822 C805 1.574 . S
C822 H816 0.949 . S
C822 C826 1.368 . S
C823 C804 1.429 . S
C823 C817 1.429 . S
C823 C824 1.523 . S
C824 C805 1.368 . S
C824 C818 1.368 . S
C824 C823 1.523 . S
C825 C809 1.429 . S
C825 C821 1.429 . S
C825 C826 1.523 . S
C826 C810 1.368 . S
C826 C822 1.368 . S
C826 C825 1.523 . S
H827 C802 0.950 . S
H828 C804 0.950 . S
H829 C805 0.949 . S
H830 C807 0.950 . S
H831 C809 0.950 . S
C832 C833 1.349 . S
C832 C834 1.327 . S
C832 H857 0.950 . S
C833 C832 1.349 . S
C833 C849 1.349 1_655 S
C834 C832 1.327 . S
C834 C853 1.429 . S
C834 H858 0.950 . S
C835 C852 1.574 . S
C835 C854 1.368 1_455 S
C835 H859 0.949 . S
H836 C840 0.949 . S
C837 C838 1.346 1_455 S
C837 C839 1.327 . S
C837 H860 0.952 . S
C838 C837 1.346 1_655 S
C838 C850 1.349 . S
C839 C837 1.327 . S
C839 C855 1.429 1_455 S
C839 H861 0.950 . S
C840 H836 0.949 . S
C840 C848 1.574 . S
C840 C856 1.368 . S
H841 C849 0.950 . S
H842 C847 0.950 . S
H843 C848 0.949 . S
H844 C850 0.950 . S
H845 C851 0.950 . S
H846 C852 0.949 . S
C847 H842 0.950 . S
C847 C849 1.327 . S
C847 C853 1.429 1_455 S
C848 C840 1.574 . S
C848 H843 0.949 . S
C848 C854 1.368 . S
C849 C833 1.349 1_455 S
C849 H841 0.950 . S
C849 C847 1.327 . S
C850 C838 1.349 . S
C850 H844 0.950 . S
C850 C851 1.327 . S
C851 H845 0.950 . S
C851 C850 1.327 . S
C851 C855 1.429 . S
C852 C835 1.574 . S
C852 H846 0.949 . S
C852 C856 1.368 1_455 S
C853 C834 1.429 . S
C853 C847 1.429 1_655 S
C853 C854 1.523 . S
C854 C835 1.368 1_655 S
C854 C848 1.368 . S
C854 C853 1.523 . S
C855 C839 1.429 1_655 S
C855 C851 1.429 . S
C855 C856 1.523 . S
C856 C840 1.368 . S
C856 C852 1.368 1_655 S
C856 C855 1.523 . S
H857 C832 0.950 . S
H858 C834 0.950 . S
H859 C835 0.949 . S
H860 C837 0.952 . S
H861 C839 0.950 . S
C862 C863 1.313 1_545 S
C862 C864 1.327 . S
C862 H887 0.950 . S
C863 C862 1.313 1_565 S
C863 C879 1.387 . S
C864 C862 1.327 . S
C864 C883 1.429 1_545 S
C864 H888 0.950 . S
C865 C882 1.574 . S
C865 C884 1.368 . S
C865 H889 0.949 . S
H866 C870 0.949 . S
C867 C868 1.349 . S
C867 C869 1.327 . S
C867 H890 0.950 . S
C868 C867 1.349 . S
C868 C880 1.349 1_565 S
C869 C867 1.327 . S
C869 C885 1.429 . S
C869 H891 0.950 . S
C870 H866 0.949 . S
C870 C878 1.574 . S
C870 C886 1.368 1_545 S
H871 C879 0.950 . S
H872 C877 0.950 . S
H873 C878 0.949 . S
H874 C880 0.950 . S
H875 C881 0.950 . S
H876 C882 0.949 . S
C877 H872 0.950 . S
C877 C879 1.327 . S
C877 C883 1.429 . S
C878 C870 1.574 . S
C878 H873 0.949 . S
C878 C884 1.368 1_545 S
C879 C863 1.387 . S
C879 H871 0.950 . S
C879 C877 1.327 . S
C880 C868 1.349 1_545 S
C880 H874 0.950 . S
C880 C881 1.327 . S
C881 H875 0.950 . S
C881 C880 1.327 . S
C881 C885 1.429 1_545 S
C882 C865 1.574 . S
C882 H876 0.949 . S
C882 C886 1.368 . S
C883 C864 1.429 1_565 S
C883 C877 1.429 . S
C883 C884 1.523 . S
C884 C865 1.368 . S
C884 C878 1.368 1_565 S
C884 C883 1.523 . S
C885 C869 1.429 . S
C885 C881 1.429 1_565 S
C885 C886 1.523 . S
C886 C870 1.368 1_565 S
C886 C882 1.368 . S
C886 C885 1.523 . S
H887 C862 0.950 . S
H888 C864 0.950 . S
H889 C865 0.949 . S
H890 C867 0.950 . S
H891 C869 0.950 . S
C892 C893 1.349 . S
C892 C894 1.327 . S
C892 H917 0.950 . S
C893 C892 1.349 . S
C893 C909 1.349 . S
C894 C892 1.327 . S
C894 C913 1.429 . S
C894 H918 0.950 . S
C895 C912 1.574 . S
C895 C914 1.368 . S
C895 H919 0.949 . S
H896 C900 0.949 . S
C897 C898 1.349 . S
C897 C899 1.327 . S
C897 H920 0.950 . S
C898 C897 1.349 . S
C898 C910 1.349 . S
C899 C897 1.327 . S
C899 C915 1.429 . S
C899 H921 0.950 . S
C900 H896 0.949 . S
C900 C908 1.574 . S
C900 C916 1.368 . S
H901 C909 0.950 . S
H902 C907 0.950 . S
H903 C908 0.949 . S
H904 C910 0.950 . S
H905 C911 0.950 . S
H906 C912 0.949 . S
C907 H902 0.950 . S
C907 C909 1.327 . S
C907 C913 1.429 . S
C908 C900 1.574 . S
C908 H903 0.949 . S
C908 C914 1.368 . S
C909 C893 1.349 . S
C909 H901 0.950 . S
C909 C907 1.327 . S
C910 C898 1.349 . S
C910 H904 0.950 . S
C910 C911 1.327 . S
C911 H905 0.950 . S
C911 C910 1.327 . S
C911 C915 1.429 . S
C912 C895 1.574 . S
C912 H906 0.949 . S
C912 C916 1.368 . S
C913 C894 1.429 . S
C913 C907 1.429 . S
C913 C914 1.523 . S
C914 C895 1.368 . S
C914 C908 1.368 . S
C914 C913 1.523 . S
C915 C899 1.429 . S
C915 C911 1.429 . S
C915 C916 1.523 . S
C916 C900 1.368 . S
C916 C912 1.368 . S
C916 C915 1.523 . S
H917 C892 0.950 . S
H918 C894 0.950 . S
H919 C895 0.949 . S
H920 C897 0.950 . S
H921 C899 0.950 . S
C922 C923 1.349 . S
C922 C924 1.327 . S
C922 H947 0.950 . S
C923 C922 1.349 . S
C923 C939 1.349 . S
C924 C922 1.327 . S
C924 C943 1.429 . S
C924 H948 0.950 . S
C925 C942 1.574 . S
C925 C944 1.368 . S
C925 H949 0.949 . S
H926 C930 0.949 . S
C927 C928 1.349 . S
C927 C929 1.327 . S
C927 H950 0.950 . S
C928 C927 1.349 . S
C928 C940 1.349 . S
C929 C927 1.327 . S
C929 C945 1.429 . S
C929 H951 0.950 . S
C930 H926 0.949 . S
C930 C938 1.574 . S
C930 C946 1.368 . S
H931 C939 0.950 . S
H932 C937 0.950 . S
H933 C938 0.949 . S
H934 C940 0.950 . S
H935 C941 0.950 . S
H936 C942 0.949 . S
C937 H932 0.950 . S
C937 C939 1.327 . S
C937 C943 1.429 . S
C938 C930 1.574 . S
C938 H933 0.949 . S
C938 C944 1.368 . S
C939 C923 1.349 . S
C939 H931 0.950 . S
C939 C937 1.327 . S
C940 C928 1.349 . S
C940 H934 0.950 . S
C940 C941 1.327 . S
C941 H935 0.950 . S
C941 C940 1.327 . S
C941 C945 1.429 . S
C942 C925 1.574 . S
C942 H936 0.949 . S
C942 C946 1.368 . S
C943 C924 1.429 . S
C943 C937 1.429 . S
C943 C944 1.523 . S
C944 C925 1.368 . S
C944 C938 1.368 . S
C944 C943 1.523 . S
C945 C929 1.429 . S
C945 C941 1.429 . S
C945 C946 1.523 . S
C946 C930 1.368 . S
C946 C942 1.368 . S
C946 C945 1.523 . S
H947 C922 0.950 . S
H948 C924 0.950 . S
H949 C925 0.949 . S
H950 C927 0.950 . S
H951 C929 0.950 . S
C233 C61 1.641 1_545 S
C238 C81 1.724 1_545 S
C268 C121 1.744 . S
C263 C70 1.661 . S
C298 C161 1.752 . S
C293 C43 1.666 . S
C328 C201 1.739 1_455 S
C323 C52 1.653 1_455 S
C358 C90 1.729 1_565 S
C353 C25 1.646 1_545 S
C383 C34 1.667 . S
C388 C130 1.748 . S
C413 C7 1.665 . S
C418 C170 1.752 . S
C443 C16 1.653 . S
C448 C210 1.739 1_655 S
C478 C87 0.304 . S
C473 C50 0.251 1_455 S
C508 C127 0.307 . S
C503 C59 0.266 1_545 S
C538 C167 0.310 . S
C533 C67 0.261 . S
C563 C41 0.258 . S
C568 C207 0.302 . S
C593 C14 0.247 . S
C598 C78 0.299 . S
C628 C118 0.307 . S
C623 C23 0.257 . S
C658 C158 0.310 . S
C653 C31 0.267 . S
C683 C5 0.245 . S
C688 C198 0.310 . S
C713 C49 1.845 1_455 S
C718 C91 2.020 . S
C743 C58 1.800 1_545 S
C748 C131 1.978 . S
C778 C171 1.955 . S
C773 C68 1.776 . S
C808 C211 1.999 . S
C803 C40 1.814 . S
C833 C13 1.844 . S
C838 C82 2.033 . S
C868 C122 1.977 . S
C863 C22 1.798 . S
C898 C162 1.955 . S
C893 C32 1.778 . S
C923 C4 1.818 . S
C928 C202 2.005 . S
