# Generated by pormake.
# Topology pyr, (3,6)-cn, num edge types: 1
# Building blocks:
#     Node 0, Type 0, BuildingBlock: QEWDON_clean_linker_0, # of connection points: 3
#     Node 1, Type 0, BuildingBlock: QEWDON_clean_linker_0, # of connection points: 3
#     Node 2, Type 0, BuildingBlock: QEWDON_clean_linker_0, # of connection points: 3
#     Node 3, Type 0, BuildingBlock: QEWDON_clean_linker_0, # of connection points: 3
#     Node 4, Type 0, BuildingBlock: QEWDON_clean_linker_0, # of connection points: 3
#     Node 5, Type 0, BuildingBlock: QEWDON_clean_linker_0, # of connection points: 3
#     Node 6, Type 0, BuildingBlock: QEWDON_clean_linker_0, # of connection points: 3
#     Node 7, Type 0, BuildingBlock: QEWDON_clean_linker_0, # of connection points: 3
#     Node 8, Type 1, BuildingBlock: CIFDUS_clean_sbu_1, # of connection points: 6
#     Node 9, Type 1, BuildingBlock: CIFDUS_clean_sbu_1, # of connection points: 6
#     Node 10, Type 1, BuildingBlock: CIFDUS_clean_sbu_1, # of connection points: 6
#     Node 11, Type 1, BuildingBlock: CIFDUS_clean_sbu_1, # of connection points: 6
#     Edge 12, Type (0, 1), BuildingBlock: ZUJKAS_clean_linker_0, # of connection points: 2
#     Edge 13, Type (0, 1), BuildingBlock: ZUJKAS_clean_linker_0, # of connection points: 2
#     Edge 14, Type (0, 1), BuildingBlock: ZUJKAS_clean_linker_0, # of connection points: 2
#     Edge 15, Type (0, 1), BuildingBlock: ZUJKAS_clean_linker_0, # of connection points: 2
#     Edge 16, Type (0, 1), BuildingBlock: ZUJKAS_clean_linker_0, # of connection points: 2
#     Edge 17, Type (0, 1), BuildingBlock: ZUJKAS_clean_linker_0, # of connection points: 2
#     Edge 18, Type (0, 1), BuildingBlock: ZUJKAS_clean_linker_0, # of connection points: 2
#     Edge 19, Type (0, 1), BuildingBlock: ZUJKAS_clean_linker_0, # of connection points: 2
#     Edge 20, Type (0, 1), BuildingBlock: ZUJKAS_clean_linker_0, # of connection points: 2
#     Edge 21, Type (0, 1), BuildingBlock: ZUJKAS_clean_linker_0, # of connection points: 2
#     Edge 22, Type (0, 1), BuildingBlock: ZUJKAS_clean_linker_0, # of connection points: 2
#     Edge 23, Type (0, 1), BuildingBlock: ZUJKAS_clean_linker_0, # of connection points: 2
#     Edge 24, Type (0, 1), BuildingBlock: ZUJKAS_clean_linker_0, # of connection points: 2
#     Edge 25, Type (0, 1), BuildingBlock: ZUJKAS_clean_linker_0, # of connection points: 2
#     Edge 26, Type (0, 1), BuildingBlock: ZUJKAS_clean_linker_0, # of connection points: 2
#     Edge 27, Type (0, 1), BuildingBlock: ZUJKAS_clean_linker_0, # of connection points: 2
#     Edge 28, Type (0, 1), BuildingBlock: ZUJKAS_clean_linker_0, # of connection points: 2
#     Edge 29, Type (0, 1), BuildingBlock: ZUJKAS_clean_linker_0, # of connection points: 2
#     Edge 30, Type (0, 1), BuildingBlock: ZUJKAS_clean_linker_0, # of connection points: 2
#     Edge 31, Type (0, 1), BuildingBlock: ZUJKAS_clean_linker_0, # of connection points: 2
#     Edge 32, Type (0, 1), BuildingBlock: ZUJKAS_clean_linker_0, # of connection points: 2
#     Edge 33, Type (0, 1), BuildingBlock: ZUJKAS_clean_linker_0, # of connection points: 2
#     Edge 34, Type (0, 1), BuildingBlock: ZUJKAS_clean_linker_0, # of connection points: 2
#     Edge 35, Type (0, 1), BuildingBlock: ZUJKAS_clean_linker_0, # of connection points: 2
# Relax obj value: 0.133
# Max RMSD: 0.254
# Mean RMSD: 0.193
data_MOF--net-pry--node1-CIFDUS_clean_sbu_1--node2-QEWDON_clean_linker_0--edge1-ZUJKAS_clean_linker_0
_symmetry_space_group_name_H-M    P1
_symmetry_Int_Tables_number       1
_symmetry_cell_setting            triclinic
loop_
_symmetry_equiv_pos_as_xyz
'x, y, z'
_cell_length_a     47.490894
_cell_length_b     46.181919
_cell_length_c     48.816282
_cell_angle_alpha  91.740488
_cell_angle_beta   91.710112
_cell_angle_gamma 102.59081
loop_
_atom_site_label
_atom_site_type_symbol
_atom_site_fract_x
_atom_site_fract_y
_atom_site_fract_z
_atom_type_partial_charge
H0 H 0.22119 0.23508 0.16734 0.0
C1 C 0.20844 0.22429 0.18369 0.0
C2 C 0.21388 0.1975 0.1938 0.0
C3 C 0.18844 0.23884 0.19591 0.0
H4 H 0.20181 0.16466 0.22447 0.0
C5 C 0.19841 0.18539 0.21672 0.0
C6 C 0.17854 0.19965 0.22979 0.0
C7 C 0.17369 0.22629 0.21888 0.0
C8 C 0.1895 0.27074 0.18992 0.0
H9 H 0.15988 0.23849 0.22938 0.0
C10 C 0.17029 0.2807 0.17114 0.0
C11 C 0.17395 0.31162 0.16612 0.0
C12 C 0.21146 0.29186 0.20371 0.0
H13 H 0.22629 0.28494 0.21812 0.0
C14 C 0.21473 0.32198 0.1992 0.0
H15 H 0.15327 0.26469 0.16025 0.0
C16 C 0.19632 0.33175 0.18066 0.0
H17 H 0.19952 0.35541 0.17782 0.0
H18 H 0.23177 0.33792 0.21013 0.0
H19 H 0.33495 0.91694 0.74105 0.0
C20 C 0.34879 0.90488 0.73042 0.0
C21 C 0.37723 0.90625 0.74063 0.0
C22 C 0.33739 0.88673 0.70735 0.0
H23 H 0.41622 0.89033 0.73412 0.0
C24 C 0.39447 0.88971 0.72644 0.0
C25 C 0.38345 0.87149 0.70301 0.0
C26 C 0.35477 0.87025 0.69389 0.0
C27 C 0.30587 0.87989 0.70073 0.0
H28 H 0.34519 0.85511 0.67706 0.0
C29 C 0.29197 0.89943 0.6865 0.0
C30 C 0.26181 0.89143 0.68054 0.0
C31 C 0.28956 0.85254 0.7087 0.0
H32 H 0.29984 0.83724 0.71955 0.0
C33 C 0.25998 0.8446 0.70283 0.0
H34 H 0.30444 0.92057 0.68025 0.0
C35 C 0.2462 0.86379 0.68888 0.0
H36 H 0.22322 0.85674 0.68427 0.0
H37 H 0.24765 0.82339 0.70902 0.0
H38 H 0.70302 0.3839 0.83521 0.0
C39 C 0.69833 0.36059 0.83992 0.0
C40 C 0.7157 0.35024 0.85963 0.0
C41 C 0.67365 0.3415 0.82787 0.0
H42 H 0.72058 0.31263 0.88308 0.0
C43 C 0.70795 0.32042 0.86721 0.0
C44 C 0.68338 0.30098 0.85527 0.0
C45 C 0.6672 0.31156 0.83483 0.0
C46 C 0.65226 0.35318 0.811 0.0
H47 H 0.64859 0.29665 0.825 0.0
C48 C 0.66067 0.37385 0.79042 0.0
C49 C 0.63968 0.38508 0.77561 0.0
C50 C 0.62272 0.34401 0.81636 0.0
H51 H 0.61556 0.32873 0.83242 0.0
C52 C 0.60202 0.35481 0.80151 0.0
H53 H 0.6833 0.38133 0.78614 0.0
C54 C 0.61037 0.37518 0.78129 0.0
H55 H 0.59381 0.38321 0.76998 0.0
H56 H 0.5794 0.34752 0.80582 0.0
H57 H 0.88495 0.73951 0.34886 0.0
C58 C 0.86924 0.72761 0.36249 0.0
C59 C 0.87468 0.73041 0.39117 0.0
C60 C 0.84256 0.71132 0.35145 0.0
H61 H 0.85637 0.71931 0.43051 0.0
C62 C 0.85334 0.71578 0.40847 0.0
C63 C 0.82675 0.6993 0.39779 0.0
C64 C 0.82179 0.69677 0.36926 0.0
C65 C 0.83417 0.71294 0.32203 0.0
H66 H 0.80113 0.68439 0.36084 0.0
C67 C 0.85097 0.70551 0.3006 0.0
C68 C 0.84095 0.7054 0.27305 0.0
C69 C 0.80815 0.72145 0.31543 0.0
H70 H 0.79507 0.72774 0.33143 0.0
C71 C 0.79864 0.72193 0.28822 0.0
H72 H 0.87098 0.69874 0.30534 0.0
C73 C 0.81476 0.71371 0.26716 0.0
H74 H 0.80678 0.71385 0.24615 0.0
H75 H 0.77854 0.72843 0.28345 0.0
H76 H 0.84098 0.86623 0.90499 0.0
C77 C 0.85121 0.87663 0.88716 0.0
C78 C 0.87668 0.86902 0.87774 0.0
C79 C 0.83784 0.89665 0.87323 0.0
H80 H 0.90806 0.87674 0.84592 0.0
C81 C 0.88885 0.88254 0.85377 0.0
C82 C 0.87599 0.90294 0.83939 0.0
C83 C 0.8505 0.90973 0.84957 0.0
C84 C 0.80726 0.89758 0.87903 0.0
H85 H 0.83936 0.92385 0.83807 0.0
C86 C 0.79903 0.91964 0.89617 0.0
C87 C 0.76927 0.91856 0.90046 0.0
C88 C 0.78563 0.87499 0.8666 0.0
H89 H 0.79131 0.85794 0.85348 0.0
C90 C 0.75657 0.87403 0.87078 0.0
H91 H 0.81541 0.93722 0.90598 0.0
C92 C 0.74845 0.89555 0.8875 0.0
H93 H 0.72567 0.89422 0.8904 0.0
H94 H 0.74019 0.85644 0.86099 0.0
H95 H 0.70032 0.20852 0.45655 0.0
C96 C 0.6925 0.20403 0.43543 0.0
C97 C 0.708 0.19001 0.41697 0.0
C98 C 0.66597 0.21074 0.42762 0.0
H99 H 0.70756 0.17141 0.37574 0.0
C100 C 0.6962 0.18265 0.39006 0.0
C101 C 0.66937 0.18883 0.38176 0.0
C102 C 0.65466 0.20331 0.40077 0.0
C103 C 0.64806 0.22029 0.4492 0.0
H104 H 0.63387 0.20786 0.39506 0.0
C105 C 0.64189 0.24898 0.45072 0.0
C106 C 0.62681 0.25745 0.4732 0.0
C107 C 0.63816 0.20019 0.46963 0.0
H108 H 0.64256 0.17811 0.46885 0.0
C109 C 0.62275 0.20826 0.49132 0.0
H110 H 0.64964 0.2648 0.43524 0.0
C111 C 0.61728 0.23666 0.49323 0.0
H112 H 0.60544 0.24243 0.51046 0.0
H113 H 0.61525 0.19252 0.50691 0.0
H114 H 0.36444 0.79264 0.28163 0.0
C115 C 0.34706 0.78394 0.26674 0.0
C116 C 0.33814 0.8028 0.24766 0.0
C117 C 0.33491 0.75334 0.2656 0.0
H118 H 0.3087 0.80448 0.21333 0.0
C119 C 0.31563 0.79054 0.2284 0.0
C120 C 0.30264 0.7601 0.22755 0.0
C121 C 0.31261 0.74169 0.24618 0.0
C122 C 0.34813 0.73278 0.28177 0.0
H123 H 0.30379 0.71795 0.24496 0.0
C124 C 0.35044 0.73496 0.31068 0.0
C125 C 0.3632 0.7149 0.32515 0.0
C126 C 0.35885 0.71066 0.26774 0.0
H127 H 0.35749 0.70874 0.24554 0.0
C128 C 0.37175 0.69108 0.28212 0.0
H129 H 0.34209 0.75177 0.32176 0.0
C130 C 0.37393 0.69315 0.31066 0.0
H131 H 0.38378 0.67755 0.32153 0.0
H132 H 0.38002 0.6742 0.27112 0.0
H133 H 0.18572 0.41887 0.71298 0.0
C134 C 0.16972 0.40883 0.6972 0.0
C135 C 0.17585 0.41317 0.66943 0.0
C136 C 0.1442 0.38929 0.70448 0.0
H137 H 0.1608 0.40205 0.6276 0.0
C138 C 0.15583 0.39881 0.64897 0.0
C139 C 0.12996 0.3797 0.65583 0.0
C140 C 0.12425 0.37531 0.68366 0.0
C141 C 0.13999 0.38012 0.73327 0.0
H142 H 0.10491 0.35968 0.6892 0.0
C143 C 0.14268 0.40106 0.75539 0.0
C144 C 0.13806 0.39156 0.7825 0.0
C145 C 0.13331 0.34969 0.73858 0.0
H146 H 0.13157 0.33313 0.72205 0.0
C147 C 0.12903 0.34023 0.76524 0.0
H148 H 0.148 0.42454 0.75142 0.0
C149 C 0.13119 0.36089 0.787 0.0
H150 H 0.1268 0.3527 0.80733 0.0
H151 H 0.12373 0.31672 0.76902 0.0
O152 O 0.97163 0.07685 0.52068 0.0
Mn153 Mn 0.0078 0.05734 0.5287 0.0
O154 O 0.94318 0.04766 0.48861 0.0
Mn155 Mn 0.9719 0.02944 0.47729 0.0
O156 O 0.04384 0.03823 0.53716 0.0
O157 O 0.02637 0.09463 0.55013 0.0
Mn158 Mn 0.04168 0.08621 0.58134 0.0
O159 O 0.98785 0.03809 0.56493 0.0
O160 O 0.06965 0.06588 0.57199 0.0
O161 O 0.02799 0.07609 0.49245 0.0
O162 O 1.00041 0.05207 0.45692 0.0
O163 O 0.04925 0.12704 0.58076 0.0
O164 O 0.01154 0.06534 0.60102 0.0
C165 C 0.98158 0.99273 0.49813 0.0
C166 C 0.94787 0.06938 0.50598 0.0
C167 C 0.06626 0.04502 0.55371 0.0
C168 C 0.03542 0.12229 0.55724 0.0
C169 C 0.99133 0.04444 0.5911 0.0
C170 C 0.02258 0.07104 0.46628 0.0
O171 O 0.98937 0.02002 0.50702 0.0
O172 O 0.96627 0.98881 0.47539 0.0
O173 O 0.48563 0.04781 0.02328 0.0
Mn174 Mn 0.50698 0.06519 0.06116 0.0
O175 O 0.47918 0.99799 0.02447 0.0
Mn176 Mn 0.50211 0.99704 0.05568 0.0
O177 O 0.52865 0.08234 0.09882 0.0
O178 O 0.51836 0.10516 0.04481 0.0
Mn179 Mn 0.51092 0.13295 0.06721 0.0
O180 O 0.4675 0.07529 0.07555 0.0
O181 O 0.53331 0.13196 0.0989 0.0
O182 O 0.54596 0.05467 0.04656 0.0
O183 O 0.54144 0.00532 0.05022 0.0
O184 O 0.52673 0.15212 0.03677 0.0
O185 O 0.47146 0.12444 0.07147 0.0
C186 C 0.48649 0.00574 0.09522 0.0
C187 C 0.47591 0.02137 0.01258 0.0
C188 C 0.53779 0.1086 0.11002 0.0
C189 C 0.52857 0.1258 0.0283 0.0
C190 C 0.4568 0.09889 0.07694 0.0
C191 C 0.55616 0.03081 0.04454 0.0
O192 O 0.49585 0.02555 0.07775 0.0
O193 O 0.48714 0.979 0.08702 0.0
O194 O 0.55625 0.59988 0.55327 0.0
Mn195 Mn 0.51626 0.57919 0.56826 0.0
O196 O 0.55121 0.59434 0.50713 0.0
Mn197 Mn 0.51426 0.57048 0.50505 0.0
O198 O 0.47622 0.55845 0.58294 0.0
O199 O 0.53588 0.57476 0.60423 0.0
Mn200 Mn 0.51728 0.58573 0.63187 0.0
O201 O 0.50869 0.62116 0.58153 0.0
O202 O 0.48083 0.56065 0.62913 0.0
O203 O 0.52392 0.53714 0.55538 0.0
O204 O 0.5123 0.53068 0.51033 0.0
O205 O 0.54814 0.57237 0.64694 0.0
O206 O 0.51787 0.6254 0.6272 0.0
C207 C 0.47969 0.59178 0.51422 0.0
C208 C 0.56604 0.60415 0.52905 0.0
C209 C 0.46619 0.55241 0.6068 0.0
C210 C 0.55325 0.5667 0.6217 0.0
C211 C 0.51127 0.63609 0.60471 0.0
C212 C 0.52016 0.52107 0.53284 0.0
O213 O 0.49648 0.58364 0.53227 0.0
O214 O 0.48438 0.58459 0.48921 0.0
O215 O 0.97817 0.55389 0.99941 0.0
Mn216 Mn 0.01397 0.57951 0.02138 0.0
O217 O 0.98329 0.56737 0.95555 0.0
Mn218 Mn 0.01784 0.59541 0.96086 0.0
O219 O 0.04978 0.60498 0.04359 0.0
O220 O 0.99055 0.57685 0.05539 0.0
Mn221 Mn 0.00923 0.56331 0.08206 0.0
O222 O 0.0289 0.53963 0.03051 0.0
O223 O 0.04344 0.59171 0.08752 0.0
O224 O 0.99898 0.61948 0.01241 0.0
O225 O 0.01456 0.63314 0.97088 0.0
O226 O 0.97616 0.56995 0.09707 0.0
O227 O 0.01293 0.52572 0.07188 0.0
C228 C 0.0558 0.5792 0.96874 0.0
C229 C 0.9694 0.55182 0.97405 0.0
C230 C 0.05771 0.60721 0.06919 0.0
C231 C 0.97175 0.58008 0.07326 0.0
C232 C 0.02511 0.52074 0.04997 0.0
C233 C 1.00269 0.63831 0.99288 0.0
O234 O 0.03727 0.58192 0.98713 0.0
O235 O 0.05055 0.58914 0.94504 0.0
H236 H 0.12315 0.19919 0.24652 0.0
H237 H 0.10057 0.18064 0.28883 0.0
H238 H 0.1786 0.15456 0.31492 0.0
H239 H 0.20132 0.17304 0.27271 0.0
H240 H 0.13358 0.11166 0.32467 0.0
H241 H 0.10979 0.21638 0.36539 0.0
H242 H 0.09411 0.20636 0.33162 0.0
H243 H 0.13279 0.21526 0.33679 0.0
C244 C 0.13573 0.18982 0.26132 0.0
C245 C 0.16426 0.18778 0.25579 0.0
C246 C 0.12273 0.17926 0.28576 0.0
C247 C 0.13787 0.16657 0.30573 0.0
C248 C 0.16625 0.16426 0.30015 0.0
H249 H 0.07061 0.11906 0.47219 0.0
H250 H 0.10092 0.14337 0.43544 0.0
C251 C 0.17923 0.17474 0.27571 0.0
C252 C 0.1239 0.15462 0.33176 0.0
H253 H 0.0864 0.17194 0.38686 0.0
C254 C 0.12352 0.12506 0.3383 0.0
C255 C 0.11104 0.17191 0.35022 0.0
C256 C 0.11218 0.20432 0.34585 0.0
C257 C 0.10993 0.11216 0.36174 0.0
C258 C 0.0957 0.12893 0.37934 0.0
C259 C 0.097 0.15883 0.37348 0.0
C260 C 0.07755 0.11494 0.40237 0.0
C261 C 0.11096 0.08047 0.36742 0.0
C262 C 0.054 0.09121 0.39633 0.0
C263 C 0.03681 0.07743 0.41709 0.0
C264 C 0.04223 0.08683 0.44498 0.0
C265 C 0.06571 0.11093 0.45117 0.0
C266 C 0.08304 0.12494 0.43007 0.0
H267 H 0.12974 0.07402 0.35785 0.0
H268 H 0.11219 0.077 0.38979 0.0
H269 H 0.09107 0.06546 0.35856 0.0
H270 H 0.0487 0.08328 0.37529 0.0
H271 H 0.01905 0.05914 0.41101 0.0
H272 H 0.43209 0.93901 0.75474 0.0
H273 H 0.44972 0.9644 0.79879 0.0
H274 H 0.36476 0.93762 0.83072 0.0
H275 H 0.34708 0.91172 0.78718 0.0
H276 H 0.39226 0.99839 0.84423 0.0
H277 H 0.46307 0.92072 0.86907 0.0
H278 H 0.46852 0.93803 0.83659 0.0
H279 H 0.43513 0.91238 0.84232 0.0
C280 C 0.41713 0.93833 0.77113 0.0
C281 C 0.38806 0.92314 0.76712 0.0
C282 C 0.42726 0.95299 0.79636 0.0
C283 C 0.40865 0.95282 0.81826 0.0
C284 C 0.37956 0.93826 0.81417 0.0
H285 H 0.43883 0.9717 0.99175 0.0
H286 H 0.4231 0.95902 0.94417 0.0
C287 C 0.36944 0.92352 0.78906 0.0
C288 C 0.41949 0.96678 0.84577 0.0
H289 H 0.46324 0.95988 0.90107 0.0
C290 C 0.40799 0.99016 0.85656 0.0
C291 C 0.43985 0.95593 0.86205 0.0
C292 C 0.45227 0.93025 0.85214 0.0
C293 C 0.41608 0.00271 0.88316 0.0
C294 C 0.43622 0.99164 0.89948 0.0
C295 C 0.44798 0.96855 0.88853 0.0
C296 C 0.44352 1.00157 0.92881 0.0
C297 C 0.4023 0.02697 0.89407 0.0
C298 C 0.4597 0.03021 0.93642 0.0
C299 C 0.46884 0.0377 0.96401 0.0
C300 C 0.46206 0.0166 0.9844 0.0
C301 C 0.44468 0.98854 0.9767 0.0
C302 C 0.43566 0.98114 0.94938 0.0
H303 H 0.3844 0.03049 0.8803 0.0
H304 H 0.39381 0.02157 0.91469 0.0
H305 H 0.41882 0.04807 0.89627 0.0
H306 H 0.46627 0.04634 0.92091 0.0
H307 H 0.48243 0.05938 0.96908 0.0
H308 H 0.67298 0.38262 0.73086 0.0
H309 H 0.67806 0.4158 0.69186 0.0
H310 H 0.62725 0.46947 0.73316 0.0
H311 H 0.62285 0.43717 0.7719 0.0
H312 H 0.63536 0.42447 0.65861 0.0
H313 H 0.68845 0.53322 0.70421 0.0
H314 H 0.68929 0.49921 0.72126 0.0
H315 H 0.65968 0.51748 0.72576 0.0
C316 C 0.66376 0.4021 0.73184 0.0
C317 C 0.64749 0.40737 0.75432 0.0
C318 C 0.66653 0.42091 0.70954 0.0
C319 C 0.65343 0.44546 0.70968 0.0
C320 C 0.63828 0.45127 0.73275 0.0
H321 H 0.53974 0.50761 0.62232 0.0
H322 H 0.57343 0.47666 0.63321 0.0
C323 C 0.63549 0.43258 0.75483 0.0
C324 C 0.65208 0.46317 0.68492 0.0
H325 H 0.64976 0.53386 0.66902 0.0
C326 C 0.63938 0.44849 0.66049 0.0
C327 C 0.65836 0.49455 0.68664 0.0
C328 C 0.67504 0.51193 0.71083 0.0
C329 C 0.62938 0.46418 0.63939 0.0
C330 C 0.63121 0.49506 0.6433 0.0
C331 C 0.64745 0.51008 0.66605 0.0
C332 C 0.61195 0.51092 0.62787 0.0
C333 C 0.61579 0.44724 0.61369 0.0
C334 C 0.62198 0.54045 0.62022 0.0
C335 C 0.60241 0.55839 0.61435 0.0
C336 C 0.57263 0.54685 0.61556 0.0
C337 C 0.56263 0.5167 0.62048 0.0
C338 C 0.58205 0.49891 0.62661 0.0
H339 H 0.62766 0.42987 0.60785 0.0
H340 H 0.59329 0.43574 0.61759 0.0
H341 H 0.61562 0.46208 0.59625 0.0
H342 H 0.64488 0.55038 0.62118 0.0
H343 H 0.61056 0.58185 0.61145 0.0
H344 H 0.82206 0.65806 0.23814 0.0
H345 H 0.84452 0.64495 0.19641 0.0
H346 H 0.91619 0.71949 0.21267 0.0
H347 H 0.89412 0.73183 0.25517 0.0
H348 H 0.85624 0.67546 0.15137 0.0
H349 H 0.9587 0.6556 0.19677 0.0
H350 H 0.92893 0.65972 0.21748 0.0
H351 H 0.95272 0.6919 0.20472 0.0
C352 C 0.84293 0.6712 0.23305 0.0
C353 C 0.85663 0.69565 0.24997 0.0
C354 C 0.85563 0.6639 0.2091 0.0
C355 C 0.8822 0.68106 0.20137 0.0
C356 C 0.89605 0.70546 0.21843 0.0
H357 H 0.98641 0.63952 0.06843 0.0
H358 H 0.96196 0.6724 0.09432 0.0
C359 C 0.88349 0.71251 0.2427 0.0
C360 C 0.89475 0.67348 0.17515 0.0
H361 H 0.95324 0.65231 0.14869 0.0
C362 C 0.87756 0.67061 0.15079 0.0
C363 C 0.92263 0.66728 0.17423 0.0
C364 C 0.94174 0.66849 0.1997 0.0
C365 C 0.88711 0.66087 0.12585 0.0
C366 C 0.91459 0.65391 0.12516 0.0
C367 C 0.93228 0.65803 0.14918 0.0
C368 C 0.92402 0.63824 0.10123 0.0
C369 C 0.86753 0.6575 0.10053 0.0
C370 C 0.90983 0.60877 0.09465 0.0
C371 C 0.92379 0.59003 0.07982 0.0
C372 C 0.95208 0.60049 0.07138 0.0
C373 C 0.96438 0.63102 0.07424 0.0
C374 C 0.95059 0.64975 0.08945 0.0
H375 H 0.85148 0.67167 0.10219 0.0
H376 H 0.88015 0.66327 0.08192 0.0
H377 H 0.85556 0.63404 0.09797 0.0
H378 H 0.88951 0.59926 0.10374 0.0
H379 H 0.9141 0.56648 0.07835 0.0
H380 H 0.25074 0.16665 0.21961 0.0
H381 H 0.2888 0.14536 0.19986 0.0
H382 H 0.26875 0.17517 0.12039 0.0
H383 H 0.23009 0.19581 0.13967 0.0
H384 H 0.28824 0.10186 0.15591 0.0
H385 H 0.35592 0.21128 0.1319 0.0
H386 H 0.32634 0.20755 0.15485 0.0
H387 H 0.3194 0.2046 0.11837 0.0
C388 C 0.25391 0.16837 0.19781 0.0
C389 C 0.23692 0.18331 0.18147 0.0
C390 C 0.27601 0.15623 0.18653 0.0
C391 C 0.28219 0.15885 0.15858 0.0
C392 C 0.26501 0.17321 0.14209 0.0
H393 H 0.41644 0.12404 0.05272 0.0
H394 H 0.37323 0.13515 0.07253 0.0
C395 C 0.24279 0.18518 0.15329 0.0
C396 C 0.30681 0.14715 0.14679 0.0
H397 H 0.37097 0.1689 0.11497 0.0
C398 C 0.30638 0.11655 0.14703 0.0
C399 C 0.33072 0.16607 0.13518 0.0
C400 C 0.33341 0.19924 0.1352 0.0
C401 C 0.32847 0.1044 0.1353 0.0
C402 C 0.35234 0.12336 0.12348 0.0
C403 C 0.35286 0.15403 0.12371 0.0
C404 C 0.37669 0.11232 0.11013 0.0
C405 C 0.32538 0.0712 0.13488 0.0
C406 C 0.39308 0.09465 0.12388 0.0
C407 C 0.41774 0.08755 0.11207 0.0
C408 C 0.4269 0.09833 0.08638 0.0
C409 C 0.40987 0.11496 0.07233 0.0
C410 C 0.38519 0.12165 0.08386 0.0
H411 H 0.30254 0.05941 0.13689 0.0
H412 H 0.33347 0.06307 0.11565 0.0
H413 H 0.33812 0.06531 0.15245 0.0
H414 H 0.38779 0.08758 0.14438 0.0
H415 H 0.43073 0.07545 0.12387 0.0
H416 H 0.21086 0.90535 0.6937 0.0
H417 H 0.18087 0.93108 0.66629 0.0
H418 H 0.24624 0.94788 0.60581 0.0
H419 H 0.27626 0.92129 0.63308 0.0
H420 H 0.18987 0.98752 0.64943 0.0
H421 H 0.17415 0.9089 0.55906 0.0
H422 H 0.18916 0.90063 0.59156 0.0
H423 H 0.21113 0.92514 0.56887 0.0
C424 C 0.21895 0.91455 0.67458 0.0
C425 C 0.24588 0.91098 0.66547 0.0
C426 C 0.20175 0.92931 0.65891 0.0
C427 C 0.2109 0.94089 0.63362 0.0
C428 C 0.23834 0.93853 0.62492 0.0
H429 H 0.12407 0.06585 0.55566 0.0
H430 H 0.16062 0.03941 0.57105 0.0
C431 C 0.25569 0.92372 0.64072 0.0
C432 C 0.19151 0.95555 0.61687 0.0
H433 H 0.15295 0.95066 0.55576 0.0
C434 C 0.18196 0.97952 0.6289 0.0
C435 C 0.18071 0.94484 0.59021 0.0
C436 C 0.18905 0.91831 0.57666 0.0
C437 C 0.16206 0.99302 0.61517 0.0
C438 C 0.15169 0.98277 0.58829 0.0
C439 C 0.16109 0.95871 0.57622 0.0
C440 C 0.13087 0.99686 0.57293 0.0
C441 C 0.15171 0.01775 0.62994 0.0
C442 C 0.10232 0.98128 0.56678 0.0
C443 C 0.08135 0.99635 0.55734 0.0
C444 C 0.08871 0.0272 0.55408 0.0
C445 C 0.1178 0.04207 0.55794 0.0
C446 C 0.13868 0.02703 0.567 0.0
H447 H 0.15598 0.0179 0.65245 0.0
H448 H 0.16326 0.0394 0.62242 0.0
H449 H 0.1282 0.01574 0.62597 0.0
H450 H 0.09581 0.95794 0.57106 0.0
H451 H 0.05905 0.98441 0.55491 0.0
H452 H 0.73197 0.35439 0.91432 0.0
H453 H 0.77323 0.38851 0.93714 0.0
H454 H 0.7973 0.42758 0.85981 0.0
H455 H 0.75625 0.3933 0.83672 0.0
H456 H 0.83229 0.39585 0.92725 0.0
H457 H 0.79471 0.49964 0.91021 0.0
H458 H 0.77106 0.46333 0.90595 0.0
H459 H 0.79517 0.47753 0.87939 0.0
C460 C 0.74617 0.37004 0.90208 0.0
C461 C 0.74081 0.37104 0.87362 0.0
C462 C 0.76965 0.38965 0.91522 0.0
C463 C 0.7881 0.41085 0.90026 0.0
C464 C 0.78297 0.41181 0.87186 0.0
H465 H 0.94442 0.54201 0.92252 0.0
H466 H 0.89993 0.50738 0.90769 0.0
C467 C 0.75951 0.39219 0.85868 0.0
C468 C 0.81312 0.43154 0.9142 0.0
H469 H 0.84386 0.50514 0.92535 0.0
C470 C 0.83472 0.41975 0.92713 0.0
C471 C 0.81611 0.46268 0.91417 0.0
C472 C 0.79292 0.47661 0.90193 0.0
C473 C 0.85989 0.43834 0.93892 0.0
C474 C 0.86327 0.4695 0.9381 0.0
C475 C 0.84126 0.48124 0.9259 0.0
C476 C 0.89034 0.49036 0.94792 0.0
C477 C 0.88317 0.42451 0.95112 0.0
C478 C 0.89971 0.49249 0.97563 0.0
C479 C 0.92539 0.51241 0.98432 0.0
C480 C 0.94205 0.53059 0.96542 0.0
C481 C 0.93231 0.52841 0.93773 0.0
C482 C 0.90678 0.50861 0.92915 0.0
H483 H 0.87965 0.40048 0.94543 0.0
H484 H 0.90475 0.43591 0.9443 0.0
H485 H 0.88331 0.42694 0.97381 0.0
H486 H 0.88709 0.47893 0.99056 0.0
H487 H 0.93212 0.51357 1.00579 0.0
H488 H 0.77052 0.7037 0.39214 0.0
H489 H 0.73218 0.68963 0.42446 0.0
H490 H 0.7906 0.6575 0.47901 0.0
H491 H 0.82923 0.67099 0.4463 0.0
H492 H 0.73474 0.6191 0.47128 0.0
H493 H 0.72728 0.73437 0.49796 0.0
H494 H 0.72577 0.72684 0.4616 0.0
H495 H 0.75803 0.72553 0.48139 0.0
C496 C 0.77518 0.69318 0.41077 0.0
C497 C 0.80294 0.68837 0.41658 0.0
C498 C 0.75333 0.68556 0.42942 0.0
C499 C 0.75874 0.67314 0.45438 0.0
C500 C 0.78612 0.66741 0.45999 0.0
H501 H 0.61369 0.60433 0.56253 0.0
H502 H 0.66453 0.62317 0.55137 0.0
C503 C 0.80812 0.67514 0.44131 0.0
C504 C 0.73535 0.66581 0.47413 0.0
H505 H 0.68543 0.69608 0.50679 0.0
C506 C 0.72433 0.63592 0.47967 0.0
C507 C 0.72207 0.68788 0.48529 0.0
C508 C 0.73408 0.72049 0.48151 0.0
C509 C 0.69888 0.62733 0.49415 0.0
C510 C 0.68438 0.64927 0.50346 0.0
C511 C 0.69657 0.6793 0.49958 0.0
C512 C 0.65439 0.64122 0.51281 0.0
C513 C 0.6865 0.59473 0.49765 0.0
C514 C 0.63209 0.64619 0.49538 0.0
C515 C 0.60336 0.6355 0.50162 0.0
C516 C 0.59627 0.61984 0.52559 0.0
C517 C 0.61858 0.61647 0.544 0.0
C518 C 0.64755 0.62697 0.53755 0.0
H519 H 0.69926 0.58039 0.48728 0.0
H520 H 0.68615 0.59003 0.51981 0.0
H521 H 0.66391 0.58864 0.48926 0.0
H522 H 0.63692 0.65721 0.47625 0.0
H523 H 0.58662 0.63861 0.48714 0.0
H524 H 0.19194 0.34999 0.1255 0.0
H525 H 0.16443 0.38032 0.1005 0.0
H526 H 0.0864 0.33393 0.13653 0.0
H527 H 0.11429 0.30395 0.1624 0.0
H528 H 0.12092 0.37322 0.06329 0.0
H529 H 0.08526 0.41775 0.15984 0.0
H530 H 0.11176 0.39513 0.15954 0.0
H531 H 0.07391 0.37817 0.15542 0.0
C532 C 0.16881 0.34585 0.12784 0.0
C533 C 0.15547 0.32451 0.14623 0.0
C534 C 0.15302 0.36336 0.11347 0.0
C535 C 0.12326 0.36031 0.11698 0.0
C536 C 0.10943 0.33757 0.13389 0.0
H537 H 1.00011 0.46654 0.068 0.0
H538 H 0.02359 0.42672 0.081 0.0
C539 C 0.12533 0.31996 0.14839 0.0
C540 C 0.10743 0.38183 0.1039 0.0
H541 H 0.06705 0.43317 0.11862 0.0
C542 C 0.10911 0.38626 0.07546 0.0
C543 C 0.09216 0.39941 0.11951 0.0
C544 C 0.09084 0.39768 0.15028 0.0
C545 C 0.09568 0.407 0.06236 0.0
C546 C 0.08028 0.42438 0.07799 0.0
C547 C 0.07862 0.41994 0.10638 0.0
C548 C 0.06526 0.44695 0.06568 0.0
C549 C 0.09763 0.40966 0.03174 0.0
C550 C 0.08025 0.47157 0.05155 0.0
C551 C 0.06654 0.49452 0.04365 0.0
C552 C 0.03756 0.4935 0.04986 0.0
C553 C 0.02233 0.46806 0.06258 0.0
C554 C 0.03589 0.44526 0.07032 0.0
H555 H 0.10318 0.38976 0.02183 0.0
H556 H 0.07697 0.41281 0.02235 0.0
H557 H 0.1148 0.42925 0.02731 0.0
H558 H 0.10302 0.47398 0.04801 0.0
H559 H 0.07922 0.51403 0.03461 0.0
H560 H 0.71465 0.26096 0.87397 0.0
H561 H 0.69591 0.21402 0.89624 0.0
H562 H 0.60908 0.2261 0.8835 0.0
H563 H 0.62729 0.27304 0.86253 0.0
H564 H 0.66288 0.21076 0.94377 0.0
H565 H 0.60158 0.1381 0.86058 0.0
H566 H 0.63004 0.16992 0.85416 0.0
H567 H 0.59413 0.17456 0.86069 0.0
C568 C 0.69155 0.25352 0.87574 0.0
C569 C 0.67254 0.27087 0.86618 0.0
C570 C 0.68089 0.22654 0.88822 0.0
C571 C 0.65106 0.21622 0.89091 0.0
C572 C 0.63211 0.23311 0.88083 0.0
H573 H 0.51643 0.14329 0.97824 0.0
H574 H 0.55063 0.15487 0.94177 0.0
C575 C 0.64266 0.26007 0.86874 0.0
C576 C 0.63937 0.19018 0.90741 0.0
H577 H 0.58351 0.12948 0.90658 0.0
C578 C 0.64619 0.19233 0.93563 0.0
C579 C 0.61774 0.16616 0.89664 0.0
C580 C 0.61065 0.16186 0.86628 0.0
C581 C 0.62974 0.17309 0.95379 0.0
C582 C 0.60627 0.15062 0.94323 0.0
C583 C 0.60139 0.1467 0.9147 0.0
C584 C 0.58341 0.13565 0.96136 0.0
C585 C 0.63589 0.17895 0.98423 0.0
C586 C 0.58961 0.11918 0.98364 0.0
C587 C 0.56994 0.11262 1.00463 0.0
C588 C 0.54372 0.1219 1.00317 0.0
C589 C 0.53636 0.13551 0.97955 0.0
C590 C 0.55596 0.1422 0.95874 0.0
H591 H 0.65243 0.19969 0.9889 0.0
H592 H 0.61588 0.18071 0.99474 0.0
H593 H 0.64397 0.16026 0.99295 0.0
H594 H 0.61046 0.11343 0.98585 0.0
H595 H 0.57642 0.10293 0.02305 0.0
H596 H 0.89909 0.78568 0.37344 0.0
H597 H 0.93117 0.82576 0.3998 0.0
H598 H 0.93746 0.76642 0.46511 0.0
H599 H 0.90683 0.72556 0.43803 0.0
H600 H 0.91162 0.84358 0.44631 0.0
H601 H 0.01845 0.81767 0.4686 0.0
H602 H 0.99391 0.79853 0.44162 0.0
H603 H 0.98831 0.78871 0.4767 0.0
C604 C 0.90834 0.78064 0.39278 0.0
C605 C 0.89992 0.75237 0.40372 0.0
C606 C 0.92655 0.80376 0.40801 0.0
C607 C 0.93661 0.79924 0.43458 0.0
C608 C 0.9303 0.77049 0.44461 0.0
H609 H 0.95682 0.95688 0.5379 0.0
H610 H 0.95078 0.90309 0.53168 0.0
C611 C 0.91241 0.7472 0.42918 0.0
C612 C 0.94913 0.82535 0.45307 0.0
H613 H 0.00782 0.85884 0.49376 0.0
C614 C 0.93267 0.84686 0.45667 0.0
C615 C 0.97649 0.8295 0.46678 0.0
C616 C 0.99547 0.80752 0.4631 0.0
C617 C 0.943 0.87281 0.47274 0.0
C618 C 0.97028 0.87702 0.48674 0.0
C619 C 0.98666 0.85527 0.4836 0.0
C620 C 0.98326 0.90588 0.50113 0.0
C621 C 0.92509 0.89617 0.47326 0.0
C622 C 1.0064 0.92491 0.4892 0.0
C623 C 0.01057 0.95561 0.49361 0.0
C624 C 0.99127 0.96741 0.50948 0.0
C625 C 0.972 0.9483 0.52558 0.0
C626 C 0.96823 0.91751 0.52165 0.0
H627 H 0.90758 0.89182 0.45706 0.0
H628 H 0.91487 0.89641 0.49338 0.0
H629 H 0.93877 0.91856 0.47033 0.0
H630 H 0.01862 0.91647 0.47361 0.0
H631 H 0.02558 0.96996 0.48094 0.0
H632 H 0.42184 0.84124 0.72627 0.0
H633 H 0.4466 0.80635 0.70371 0.0
H634 H 0.40792 0.82081 0.62583 0.0
H635 H 0.38392 0.8566 0.64791 0.0
H636 H 0.40164 0.75792 0.6417 0.0
H637 H 0.51486 0.82304 0.64848 0.0
H638 H 0.49505 0.82198 0.67943 0.0
H639 H 0.48419 0.84024 0.65028 0.0
C640 C 0.41907 0.83768 0.70425 0.0
C641 C 0.40067 0.85194 0.68906 0.0
C642 C 0.43317 0.81749 0.69137 0.0
C643 C 0.4292 0.81095 0.66303 0.0
C644 C 0.41129 0.82541 0.64772 0.0
H645 H 0.4774 0.66154 0.56947 0.0
H646 H 0.4585 0.70621 0.57898 0.0
C647 C 0.39743 0.84581 0.66049 0.0
C648 C 0.44265 0.78803 0.64965 0.0
H649 H 0.50769 0.77225 0.6347 0.0
C650 C 0.42481 0.76109 0.63988 0.0
C651 C 0.47285 0.79221 0.64726 0.0
C652 C 0.49297 0.82098 0.65669 0.0
C653 C 0.4364 0.73771 0.62905 0.0
C654 C 0.46676 0.74163 0.62705 0.0
C655 C 0.48447 0.76907 0.63604 0.0
C656 C 0.48074 0.71672 0.61867 0.0
C657 C 0.41601 0.70851 0.62124 0.0
C658 C 0.50108 0.70871 0.6367 0.0
C659 C 0.51237 0.68377 0.63097 0.0
C660 C 0.50365 0.6658 0.60704 0.0
C661 C 0.48467 0.6748 0.58804 0.0
C662 C 0.47345 0.70011 0.59373 0.0
H663 H 0.39445 0.70695 0.63007 0.0
H664 H 0.41293 0.70637 0.5986 0.0
H665 H 0.42485 0.68954 0.62829 0.0
H666 H 0.5074 0.72108 0.65593 0.0
H667 H 0.52715 0.67785 0.64605 0.0
H668 H 0.89795 0.87563 0.79606 0.0
H669 H 0.91564 0.89681 0.75259 0.0
H670 H 0.89831 0.98094 0.77858 0.0
H671 H 0.88085 0.96009 0.82204 0.0
H672 H 0.88604 0.9249 0.71085 0.0
H673 H 0.98357 0.0024 0.75568 0.0
H674 H 0.96407 0.97129 0.77392 0.0
H675 H 0.95049 0.00457 0.77174 0.0
C676 C 0.8982 0.89876 0.79275 0.0
C677 C 0.888 0.91606 0.81295 0.0
C678 C 0.90813 0.91081 0.76765 0.0
C679 C 0.90863 0.94067 0.76209 0.0
C680 C 0.89854 0.95798 0.78223 0.0
H681 H 0.97025 0.06609 0.63655 0.0
H682 H 0.94864 0.03925 0.67569 0.0
C683 C 0.88834 0.94589 0.80716 0.0
C684 C 0.9196 0.95382 0.73543 0.0
H685 H 0.97164 0.00822 0.70912 0.0
C686 C 0.90487 0.94301 0.71045 0.0
C687 C 0.94417 0.9775 0.7346 0.0
C688 C 0.96172 0.98954 0.76034 0.0
C689 C 0.91334 0.95583 0.68509 0.0
C690 C 0.93782 0.97979 0.68428 0.0
C691 C 0.95281 0.99009 0.70931 0.0
C692 C 0.94788 0.99543 0.65827 0.0
C693 C 0.89518 0.94425 0.65959 0.0
C694 C 0.95413 0.98014 0.63443 0.0
C695 C 0.96607 0.9957 0.61143 0.0
C696 C 0.97255 0.02698 0.61184 0.0
C697 C 0.96542 0.04204 0.6353 0.0
C698 C 0.95321 0.02661 0.65795 0.0
H699 H 0.87306 0.93244 0.66462 0.0
H700 H 0.89344 0.96253 0.64582 0.0
H701 H 0.90536 0.92824 0.64831 0.0
H702 H 0.95103 0.95622 0.63399 0.0
H703 H 0.97188 0.98333 0.59407 0.0
H704 H 0.69574 0.18997 0.33203 0.0
H705 H 0.67354 0.17297 0.28674 0.0
H706 H 0.59051 0.14697 0.32281 0.0
H707 H 0.61246 0.16377 0.36805 0.0
H708 H 0.64291 0.1179 0.26617 0.0
H709 H 0.57347 0.20003 0.26253 0.0
H710 H 0.6026 0.20282 0.28772 0.0
H711 H 0.56857 0.17751 0.29207 0.0
C712 C 0.67276 0.18054 0.3304 0.0
C713 C 0.65594 0.17865 0.35385 0.0
C714 C 0.66006 0.17083 0.30441 0.0
C715 C 0.63019 0.15906 0.30112 0.0
C716 C 0.61345 0.1566 0.32455 0.0
H717 H 0.5408 0.06729 0.14963 0.0
H718 H 0.56316 0.07702 0.19612 0.0
C719 C 0.62609 0.16634 0.3505 0.0
C720 C 0.61654 0.14965 0.27324 0.0
H721 H 0.56583 0.16305 0.22689 0.0
C722 C 0.62604 0.12775 0.25759 0.0
C723 C 0.59464 0.1626 0.2618 0.0
C724 C 0.58436 0.18724 0.27674 0.0
C725 C 0.61426 0.11851 0.23101 0.0
C726 C 0.59209 0.13121 0.21976 0.0
C727 C 0.58261 0.15304 0.23547 0.0
C728 C 0.57979 0.12403 0.19106 0.0
C729 C 0.62627 0.09588 0.21489 0.0
C730 C 0.58151 0.147 0.17261 0.0
C731 C 0.56867 0.14154 0.14627 0.0
C732 C 0.55356 0.11287 0.13739 0.0
C733 C 0.55241 0.08957 0.1556 0.0
C734 C 0.56527 0.09514 0.18222 0.0
H735 H 0.64735 0.09329 0.22378 0.0
H736 H 0.61091 0.07403 0.21507 0.0
H737 H 0.62913 0.10218 0.19321 0.0
H738 H 0.5926 0.16944 0.17872 0.0
H739 H 0.5703 0.16012 0.13294 0.0
H740 H 0.32174 0.68901 0.35911 0.0
H741 H 0.32942 0.67654 0.40691 0.0
H742 H 0.41737 0.72663 0.40609 0.0
H743 H 0.40965 0.73895 0.35839 0.0
H744 H 0.37113 0.64366 0.41531 0.0
H745 H 0.39449 0.7433 0.485 0.0
H746 H 0.37457 0.74176 0.45263 0.0
H747 H 0.41335 0.74849 0.45357 0.0
C748 C 0.34224 0.69845 0.36966 0.0
C749 C 0.36502 0.71523 0.35539 0.0
C750 C 0.34665 0.69128 0.39688 0.0
C751 C 0.37386 0.70095 0.41024 0.0
C752 C 0.396 0.71955 0.39652 0.0
H753 H 0.49434 0.65072 0.51011 0.0
H754 H 0.46111 0.67971 0.49252 0.0
C755 C 0.39164 0.72653 0.36926 0.0
C756 C 0.38106 0.68676 0.43567 0.0
H757 H 0.41408 0.70176 0.49923 0.0
C758 C 0.37979 0.65616 0.43401 0.0
C759 C 0.39259 0.70321 0.45986 0.0
C760 C 0.39362 0.73599 0.46304 0.0
C761 C 0.39185 0.6419 0.45484 0.0
C762 C 0.40456 0.65854 0.47875 0.0
C763 C 0.40416 0.68889 0.48114 0.0
C764 C 0.42258 0.64594 0.49871 0.0
C765 C 0.39307 0.60974 0.44974 0.0
C766 C 0.41192 0.61857 0.51073 0.0
C767 C 0.43111 0.60171 0.52042 0.0
C768 C 0.46099 0.61266 0.5192 0.0
C769 C 0.47134 0.64198 0.51154 0.0
C770 C 0.45229 0.65852 0.50129 0.0
H771 H 0.3873 0.6021 0.42809 0.0
H772 H 0.41502 0.60623 0.45471 0.0
H773 H 0.37752 0.59553 0.46288 0.0
H774 H 0.389 0.60885 0.50986 0.0
H775 H 0.42265 0.57898 0.52587 0.0
H776 H 0.11788 0.44297 0.78367 0.0
H777 H 0.11311 0.47428 0.82375 0.0
H778 H 0.15263 0.41888 0.87529 0.0
H779 H 0.15906 0.38857 0.83516 0.0
H780 H 0.0806 0.45621 0.86552 0.0
H781 H 0.19264 0.49925 0.90599 0.0
H782 H 0.18455 0.48178 0.87226 0.0
H783 H 0.18319 0.45952 0.90202 0.0
C784 C 0.12643 0.43797 0.80335 0.0
C785 C 0.13867 0.41305 0.80611 0.0
C786 C 0.12344 0.45576 0.82635 0.0
C787 C 0.13261 0.44907 0.85262 0.0
C788 C 0.14583 0.4249 0.85528 0.0
H789 H 0.04665 0.52186 0.98459 0.0
H790 H 0.07056 0.4854 0.96359 0.0
C791 C 0.14909 0.40729 0.83228 0.0
C792 C 0.12577 0.46566 0.8773 0.0
H793 H 0.15509 0.50697 0.93467 0.0
C794 C 0.09691 0.46728 0.88064 0.0
C795 C 0.14705 0.48007 0.89709 0.0
C796 C 0.17863 0.48036 0.89408 0.0
C797 C 0.08875 0.48345 0.90268 0.0
C798 C 0.10993 0.49761 0.92274 0.0
C799 C 0.13878 0.49557 0.9197 0.0
C800 C 0.10296 0.51811 0.94437 0.0
C801 C 0.05772 0.48648 0.90329 0.0
C802 C 0.11557 0.54849 0.94363 0.0
C803 C 0.10265 0.56933 0.95665 0.0
C804 C 0.07681 0.56009 0.97035 0.0
C805 C 0.06686 0.52972 0.97473 0.0
C806 C 0.08013 0.50879 0.96206 0.0
H807 H 0.04585 0.47949 0.88339 0.0
H808 H 0.04645 0.4722 0.91925 0.0
H809 H 0.05651 0.50979 0.90826 0.0
H810 H 0.13341 0.55629 0.93046 0.0
H811 H 0.11065 0.59262 0.95283 0.0
H812 H 0.75884 0.9162 0.95519 0.0
H813 H 0.72794 0.94317 0.98052 0.0
H814 H 0.72111 0.99547 0.90999 0.0
H815 H 0.75163 0.96816 0.88461 0.0
H816 H 0.72816 1.00214 0.99558 0.0
H817 H 0.63702 0.95756 0.92151 0.0
H818 H 0.66993 0.94411 0.92199 0.0
H819 H 0.66862 0.97852 0.90626 0.0
C820 C 0.75159 0.93419 0.94547 0.0
C821 C 0.75829 0.94049 0.91808 0.0
C822 C 0.73362 0.94945 0.95987 0.0
C823 C 0.72149 0.97109 0.94714 0.0
C824 C 0.72956 0.97855 0.92027 0.0
H825 H 0.57874 0.05437 0.99668 0.0
H826 H 0.62121 0.04444 0.97369 0.0
C827 C 0.7475 0.96328 0.90587 0.0
C828 C 0.69929 0.9845 0.96136 0.0
H829 H 0.62867 0.99082 0.95633 0.0
C830 C 0.70644 0.99969 0.98691 0.0
C831 C 0.67076 0.9815 0.95028 0.0
C832 C 0.66093 0.96433 0.92364 0.0
C833 C 0.68617 0.01197 1.00143 0.0
C834 C 0.6575 0.00855 0.99054 0.0
C835 C 0.65052 0.99375 0.9648 0.0
C836 C 0.63398 0.0184 1.0061 0.0
C837 C 0.69589 0.02888 0.02818 0.0
C838 C 0.62691 0.00774 0.03227 0.0
C839 C 0.60293 0.01392 0.04558 0.0
C840 C 0.5852 0.03107 0.03327 0.0
C841 C 0.59265 0.04245 1.00741 0.0
C842 C 0.6167 0.03619 0.99399 0.0
H843 H 0.71955 0.03819 0.029 0.0
H844 H 0.68462 0.04733 0.03143 0.0
H845 H 0.69101 0.01354 0.04532 0.0
H846 H 0.63907 0.9933 0.04194 0.0
H847 H 0.5974 0.00406 0.06511 0.0
H848 H 0.7276 0.13942 0.40345 0.0
H849 H 0.77057 0.12435 0.42169 0.0
H850 H 0.79322 0.20518 0.4715 0.0
H851 H 0.75087 0.22098 0.4528 0.0
H852 H 0.83211 0.15597 0.4224 0.0
H853 H 0.78906 0.13601 0.52652 0.0
H854 H 0.76604 0.13783 0.49677 0.0
H855 H 0.7879 0.17125 0.5123 0.0
C856 C 0.74191 0.15436 0.41788 0.0
C857 C 0.73539 0.18146 0.42664 0.0
C858 C 0.76645 0.14555 0.42847 0.0
C859 C 0.78499 0.16341 0.44829 0.0
C860 C 0.77903 0.19075 0.4566 0.0
H861 H 0.95454 0.12989 0.50278 0.0
H862 H 0.91619 0.15635 0.49124 0.0
C863 C 0.75465 0.1997 0.44588 0.0
C864 C 0.81026 0.15321 0.4605 0.0
H865 H 0.83596 0.12859 0.51973 0.0
C866 C 0.83307 0.15023 0.44373 0.0
C867 C 0.81149 0.14553 0.48832 0.0
C868 C 0.7873 0.14756 0.50711 0.0
C869 C 0.8569 0.13965 0.45397 0.0
C870 C 0.85808 0.13185 0.48177 0.0
C871 C 0.83531 0.13495 0.49856 0.0
C872 C 0.88124 0.11757 0.49282 0.0
C873 C 0.88022 0.1359 0.43472 0.0
C874 C 0.87433 0.08738 0.49882 0.0
C875 C 0.89611 0.07237 0.50541 0.0
C876 C 0.92535 0.08724 0.50668 0.0
C877 C 0.9322 0.11796 0.50256 0.0
C878 C 0.91031 0.13298 0.49557 0.0
H879 H 0.87418 0.139 0.41302 0.0
H880 H 0.90035 0.15249 0.44048 0.0
H881 H 0.88493 0.11348 0.4364 0.0
H882 H 0.85215 0.07499 0.49691 0.0
H883 H 0.89017 0.04865 0.50817 0.0
H884 H 0.29951 0.7736 0.17314 0.0
H885 H 0.2615 0.75218 0.1387 0.0
H886 H 0.21647 0.69523 0.19905 0.0
H887 H 0.2538 0.71703 0.23385 0.0
H888 H 0.22667 0.6677 0.14336 0.0
H889 H 0.17458 0.76478 0.14006 0.0
H890 H 0.2133 0.77096 0.13854 0.0
H891 H 0.19609 0.75854 0.16955 0.0
C892 C 0.28133 0.75683 0.17924 0.0
C893 C 0.27966 0.74719 0.20639 0.0
C894 C 0.25975 0.74449 0.15945 0.0
C895 C 0.23621 0.72223 0.16641 0.0
C896 C 0.23456 0.71236 0.19331 0.0
H897 H 0.0696 0.63399 0.11963 0.0
H898 H 0.11512 0.66469 0.13765 0.0
C899 C 0.25598 0.72477 0.21313 0.0
C900 C 0.21302 0.70913 0.14586 0.0
H901 H 0.15148 0.72145 0.11491 0.0
C902 C 0.21051 0.67957 0.13665 0.0
C903 C 0.19205 0.72477 0.13725 0.0
C904 C 0.19385 0.75651 0.14682 0.0
C905 C 0.18685 0.66483 0.11989 0.0
C906 C 0.16521 0.68007 0.11227 0.0
C907 C 0.16831 0.70999 0.12059 0.0
C908 C 0.13723 0.66395 0.09966 0.0
C909 C 0.18418 0.63256 0.11169 0.0
C910 C 0.13442 0.6539 0.07204 0.0
C911 C 0.10814 0.63639 0.06149 0.0
C912 C 0.08459 0.62842 0.07861 0.0
C913 C 0.0874 0.63944 0.10597 0.0
C914 C 0.11337 0.65711 0.11631 0.0
H915 H 0.20238 0.6236 0.12016 0.0
H916 H 0.16362 0.61913 0.11895 0.0
H917 H 0.18362 0.62992 0.089 0.0
H918 H 0.15267 0.65907 0.05889 0.0
H919 H 0.10661 0.62816 0.04036 0.0
H920 H 0.20181 0.47125 0.68182 0.0
H921 H 0.24918 0.49834 0.66735 0.0
H922 H 0.26225 0.41836 0.62644 0.0
H923 H 0.21452 0.39199 0.63955 0.0
H924 H 0.30043 0.49304 0.67865 0.0
H925 H 0.2845 0.47349 0.56683 0.0
H926 H 0.25502 0.46454 0.58975 0.0
H927 H 0.2778 0.43867 0.58329 0.0
C928 C 0.21481 0.45971 0.6695 0.0
C929 C 0.20454 0.42974 0.66147 0.0
C930 C 0.2418 0.47512 0.66121 0.0
C931 C 0.25908 0.46066 0.6451 0.0
C932 C 0.24899 0.43043 0.63783 0.0
H933 H 0.44452 0.51143 0.64376 0.0
H934 H 0.3938 0.48979 0.65139 0.0
C935 C 0.22184 0.41526 0.64558 0.0
C936 C 0.28834 0.47652 0.63724 0.0
H937 H 0.33414 0.48627 0.58396 0.0
C938 C 0.30762 0.49187 0.65784 0.0
C939 C 0.29773 0.47578 0.60997 0.0
C940 C 0.27751 0.46252 0.5862 0.0
C941 C 0.3362 0.50535 0.65223 0.0
C942 C 0.34631 0.50223 0.6255 0.0
C943 C 0.32671 0.48806 0.60461 0.0
C944 C 0.37716 0.51317 0.61898 0.0
C945 C 0.35504 0.52312 0.67504 0.0
C946 C 0.38487 0.53176 0.59687 0.0
C947 C 0.41399 0.5433 0.59184 0.0
C948 C 0.4358 0.53673 0.60908 0.0
C949 C 0.42808 0.51714 0.63039 0.0
C950 C 0.39909 0.50506 0.63497 0.0
H951 H 0.34189 0.53216 0.69021 0.0
H952 H 0.36681 0.50845 0.68609 0.0
H953 H 0.37101 0.54192 0.66705 0.0
H954 H 0.36839 0.53809 0.58402 0.0
H955 H 0.4194 0.55849 0.57536 0.0
H956 H 0.84847 0.81829 0.90283 0.0
H957 H 0.86895 0.78206 0.92745 0.0
H958 H 0.9546 0.82921 0.90917 0.0
H959 H 0.93433 0.8665 0.88561 0.0
H960 H 0.8994 0.74339 0.91223 0.0
H961 H 0.967 0.82011 0.9894 0.0
H962 H 0.94054 0.83153 0.9674 0.0
H963 H 0.9756 0.83025 0.95498 0.0
C964 C 0.87174 0.82151 0.90442 0.0
C965 C 0.88956 0.84603 0.89233 0.0
C966 C 0.88349 0.80038 0.91841 0.0
C967 C 0.91353 0.80285 0.92095 0.0
C968 C 0.93141 0.8269 0.9084 0.0
H969 H 0.0288 0.69308 0.9769 0.0
H970 H 1.00577 0.73284 0.96255 0.0
C971 C 0.91967 0.84815 0.89445 0.0
C972 C 0.92587 0.77986 0.93596 0.0
H973 H 0.97533 0.77102 0.98609 0.0
C974 C 0.91579 0.74954 0.92857 0.0
C975 C 0.94729 0.78739 0.9575 0.0
C976 C 0.95804 0.81905 0.96801 0.0
C977 C 0.92701 0.72702 0.9412 0.0
C978 C 0.94879 0.73461 0.96237 0.0
C979 C 0.95863 0.76488 0.97002 0.0
C980 C 0.96316 0.71182 0.97518 0.0
C981 C 0.91617 0.69527 0.93095 0.0
C982 C 0.9475 0.68705 0.98867 0.0
C983 C 0.96092 0.66421 0.99743 0.0
C984 C 0.99033 0.66558 0.99286 0.0
C985 C 1.00622 0.69134 0.98109 0.0
C986 C 0.99295 0.71411 0.97261 0.0
H987 H 0.90427 0.69377 0.91083 0.0
H988 H 0.93434 0.68386 0.92883 0.0
H989 H 0.90123 0.68322 0.94592 0.0
H990 H 0.92463 0.68481 0.99157 0.0
H991 H 0.94784 0.64458 1.00594 0.0
H992 H 0.31726 0.85151 0.23217 0.0
H993 H 0.3455 0.89886 0.21777 0.0
H994 H 0.4237 0.87463 0.24625 0.0
H995 H 0.3962 0.82617 0.25804 0.0
H996 H 0.38416 0.94746 0.23699 0.0
H997 H 0.43733 0.88154 0.16619 0.0
H998 H 0.40726 0.86465 0.18612 0.0
H999 H 0.44319 0.8743 0.20151 0.0
C1000 C 0.34049 0.85606 0.23527 0.0
C1001 C 0.35434 0.83426 0.2454 0.0
C1002 C 0.35659 0.88345 0.22739 0.0
C1003 C 0.38683 0.88991 0.23004 0.0
C1004 C 0.40044 0.86973 0.24316 0.0
H1005 H 0.51494 0.00829 0.14397 0.0
H1006 H 0.4912 0.98906 0.18542 0.0
C1007 C 0.38449 0.84203 0.25032 0.0
C1008 C 0.4041 0.91574 0.21613 0.0
H1009 H 0.45353 0.9332 0.16657 0.0
C1010 C 0.3995 0.94442 0.22173 0.0
C1011 C 0.42375 0.91172 0.1958 0.0
C1012 C 0.42799 0.88139 0.1868 0.0
C1013 C 0.41412 0.96907 0.20757 0.0
C1014 C 0.43391 0.9649 0.18762 0.0
C1015 C 0.43875 0.93641 0.18235 0.0
C1016 C 0.44808 0.98859 0.16962 0.0
C1017 C 0.40823 0.99932 0.21372 0.0
C1018 C 0.43189 0.99701 0.1479 0.0
C1019 C 0.44555 0.00828 0.12423 0.0
C1020 C 0.47543 0.01113 0.12215 0.0
C1021 C 0.49193 0.00677 0.14534 0.0
C1022 C 0.47834 0.99561 0.16899 0.0
H1023 H 0.39671 1.00003 0.23312 0.0
H1024 H 0.42874 0.01641 0.21512 0.0
H1025 H 0.39465 0.00511 0.19673 0.0
H1026 H 0.40852 0.9914 0.14776 0.0
H1027 H 0.43237 0.01094 0.10637 0.0
H1028 H 0.14552 0.35132 0.61071 0.0
H1029 H 0.11442 0.31589 0.57901 0.0
H1030 H 0.03939 0.33057 0.62024 0.0
H1031 H 0.07062 0.36628 0.65231 0.0
H1032 H 0.04133 0.27401 0.61841 0.0
H1033 H 0.05999 0.31396 0.51409 0.0
H1034 H 0.09383 0.31575 0.53201 0.0
H1035 H 0.06979 0.33819 0.54425 0.0
C1036 C 0.12236 0.34787 0.61252 0.0
C1037 C 0.11058 0.36164 0.63412 0.0
C1038 C 0.10452 0.32764 0.59419 0.0
C1039 C 0.07445 0.32087 0.59683 0.0
C1040 C 0.0625 0.33563 0.6176 0.0
H1041 H 0.98526 0.14081 0.55011 0.0
H1042 H 0.98445 0.19372 0.5499 0.0
C1043 C 0.08038 0.35585 0.63604 0.0
C1044 C 0.05656 0.2948 0.58122 0.0
H1045 H 0.04835 0.25966 0.51796 0.0
C1046 C 0.04196 0.27116 0.59631 0.0
C1047 C 0.0573 0.29112 0.55238 0.0
C1048 C 0.07084 0.3163 0.53477 0.0
C1049 C 0.03083 0.24305 0.5839 0.0
C1050 C 0.03375 0.23861 0.55531 0.0
C1051 C 0.04607 0.26299 0.53981 0.0
C1052 C 0.03011 0.20813 0.54298 0.0
C1053 C 0.0187 0.21776 0.6021 0.0
C1054 C 0.05504 0.19863 0.53551 0.0
C1055 C 0.05527 0.16847 0.53489 0.0
C1056 C 0.03063 0.14754 0.54173 0.0
C1057 C 1.00446 0.15658 0.54449 0.0
C1058 C 1.00413 0.18687 0.54485 0.0
H1059 H 0.02139 0.22447 0.62424 0.0
H1060 H 0.99528 0.20973 0.59724 0.0
H1061 H 0.02947 0.19898 0.59859 0.0
H1062 H 0.07528 0.21455 0.53367 0.0
H1063 H 0.07574 0.16198 0.53291 0.0
H1064 H 0.59678 0.28683 0.43865 0.0
H1065 H 0.57974 0.33244 0.4496 0.0
H1066 H 0.62534 0.34092 0.52811 0.0
H1067 H 0.6422 0.29558 0.51731 0.0
H1068 H 0.54559 0.33895 0.49729 0.0
H1069 H 0.647 0.42583 0.49839 0.0
H1070 H 0.64335 0.39009 0.48091 0.0
H1071 H 0.64865 0.39357 0.51754 0.0
C1072 C 0.60378 0.29894 0.45788 0.0
C1073 C 0.62099 0.28777 0.47703 0.0
C1074 C 0.59386 0.32484 0.46424 0.0
C1075 C 0.60138 0.3403 0.48965 0.0
C1076 C 0.61954 0.32974 0.50826 0.0
H1077 H 0.55858 0.49969 0.5659 0.0
H1078 H 0.57664 0.45426 0.55812 0.0
C1079 C 0.62916 0.30379 0.50206 0.0
C1080 C 0.58863 0.36605 0.4977 0.0
H1081 H 0.60577 0.44022 0.51554 0.0
C1082 C 0.55873 0.36114 0.5011 0.0
C1083 C 0.60579 0.3949 0.50327 0.0
C1084 C 0.63797 0.40163 0.49968 0.0
C1085 C 0.54555 0.38413 0.51003 0.0
C1086 C 0.56258 0.41324 0.51496 0.0
C1087 C 0.59259 0.41803 0.51185 0.0
C1088 C 0.54956 0.43927 0.52174 0.0
C1089 C 0.51356 0.3767 0.51472 0.0
C1090 C 0.52802 0.44599 0.50428 0.0
C1091 C 0.51729 0.47153 0.50908 0.0
C1092 C 0.52803 0.49147 0.53131 0.0
C1093 C 0.54918 0.48447 0.54917 0.0
C1094 C 0.55984 0.45868 0.54443 0.0
H1095 H 0.50604 0.35301 0.51972 0.0
H1096 H 0.50786 0.39075 0.53163 0.0
H1097 H 0.50169 0.38039 0.49569 0.0
H1098 H 0.52017 0.43205 0.48622 0.0
H1099 H 0.50124 0.47623 0.49466 0.0
loop_
_geom_bond_atom_site_label_1
_geom_bond_atom_site_label_2
_geom_bond_distance
_geom_bond_site_symmetry_2
_ccdc_geom_bond_type
H0 C1 0.949 . S
C1 H0 0.949 . S
C1 C2 1.395 . S
C1 C3 1.391 . S
C2 C1 1.395 . S
C2 C5 1.390 . S
C3 C1 1.391 . S
C3 C7 1.387 . S
C3 C8 1.491 . S
H4 C5 0.950 . S
C5 C2 1.390 . S
C5 H4 0.950 . S
C5 C6 1.378 . S
C6 C5 1.378 . S
C6 C7 1.409 . S
C7 C3 1.387 . S
C7 C6 1.409 . S
C7 H9 0.951 . S
C8 C3 1.491 . S
C8 C10 1.382 . S
C8 C12 1.404 . S
H9 C7 0.951 . S
C10 C8 1.382 . S
C10 C11 1.390 . S
C10 H15 0.949 . S
C11 C10 1.390 . S
C11 C16 1.399 . S
C12 C8 1.404 . S
C12 H13 0.950 . S
C12 C14 1.375 . S
H13 C12 0.950 . S
C14 C12 1.375 . S
C14 C16 1.382 . S
C14 H18 0.950 . S
H15 C10 0.949 . S
C16 C11 1.399 . S
C16 C14 1.382 . S
C16 H17 0.952 . S
H17 C16 0.952 . S
H18 C14 0.950 . S
H19 C20 0.949 . S
C20 H19 0.949 . S
C20 C21 1.395 . S
C20 C22 1.391 . S
C21 C20 1.395 . S
C21 C24 1.390 . S
C22 C20 1.391 . S
C22 C26 1.387 . S
C22 C27 1.491 . S
H23 C24 0.950 . S
C24 C21 1.390 . S
C24 H23 0.950 . S
C24 C25 1.378 . S
C25 C24 1.378 . S
C25 C26 1.409 . S
C26 C22 1.387 . S
C26 C25 1.409 . S
C26 H28 0.951 . S
C27 C22 1.491 . S
C27 C29 1.382 . S
C27 C31 1.404 . S
H28 C26 0.951 . S
C29 C27 1.382 . S
C29 C30 1.390 . S
C29 H34 0.949 . S
C30 C29 1.390 . S
C30 C35 1.399 . S
C31 C27 1.404 . S
C31 H32 0.950 . S
C31 C33 1.375 . S
H32 C31 0.950 . S
C33 C31 1.375 . S
C33 C35 1.382 . S
C33 H37 0.950 . S
H34 C29 0.949 . S
C35 C30 1.399 . S
C35 C33 1.382 . S
C35 H36 0.952 . S
H36 C35 0.952 . S
H37 C33 0.950 . S
H38 C39 0.949 . S
C39 H38 0.949 . S
C39 C40 1.395 . S
C39 C41 1.391 . S
C40 C39 1.395 . S
C40 C43 1.390 . S
C41 C39 1.391 . S
C41 C45 1.387 . S
C41 C46 1.491 . S
H42 C43 0.950 . S
C43 C40 1.390 . S
C43 H42 0.950 . S
C43 C44 1.378 . S
C44 C43 1.378 . S
C44 C45 1.409 . S
C45 C41 1.387 . S
C45 C44 1.409 . S
C45 H47 0.951 . S
C46 C41 1.491 . S
C46 C48 1.382 . S
C46 C50 1.404 . S
H47 C45 0.951 . S
C48 C46 1.382 . S
C48 C49 1.390 . S
C48 H53 0.949 . S
C49 C48 1.390 . S
C49 C54 1.399 . S
C50 C46 1.404 . S
C50 H51 0.950 . S
C50 C52 1.375 . S
H51 C50 0.950 . S
C52 C50 1.375 . S
C52 C54 1.382 . S
C52 H56 0.950 . S
H53 C48 0.949 . S
C54 C49 1.399 . S
C54 C52 1.382 . S
C54 H55 0.952 . S
H55 C54 0.952 . S
H56 C52 0.950 . S
H57 C58 0.949 . S
C58 H57 0.949 . S
C58 C59 1.395 . S
C58 C60 1.391 . S
C59 C58 1.395 . S
C59 C62 1.390 . S
C60 C58 1.391 . S
C60 C64 1.387 . S
C60 C65 1.491 . S
H61 C62 0.950 . S
C62 C59 1.390 . S
C62 H61 0.950 . S
C62 C63 1.378 . S
C63 C62 1.378 . S
C63 C64 1.409 . S
C64 C60 1.387 . S
C64 C63 1.409 . S
C64 H66 0.951 . S
C65 C60 1.491 . S
C65 C67 1.382 . S
C65 C69 1.404 . S
H66 C64 0.951 . S
C67 C65 1.382 . S
C67 C68 1.390 . S
C67 H72 0.949 . S
C68 C67 1.390 . S
C68 C73 1.399 . S
C69 C65 1.404 . S
C69 H70 0.950 . S
C69 C71 1.375 . S
H70 C69 0.950 . S
C71 C69 1.375 . S
C71 C73 1.382 . S
C71 H75 0.950 . S
H72 C67 0.949 . S
C73 C68 1.399 . S
C73 C71 1.382 . S
C73 H74 0.952 . S
H74 C73 0.952 . S
H75 C71 0.950 . S
H76 C77 0.949 . S
C77 H76 0.949 . S
C77 C78 1.395 . S
C77 C79 1.391 . S
C78 C77 1.395 . S
C78 C81 1.390 . S
C79 C77 1.391 . S
C79 C83 1.387 . S
C79 C84 1.491 . S
H80 C81 0.950 . S
C81 C78 1.390 . S
C81 H80 0.950 . S
C81 C82 1.378 . S
C82 C81 1.378 . S
C82 C83 1.409 . S
C83 C79 1.387 . S
C83 C82 1.409 . S
C83 H85 0.951 . S
C84 C79 1.491 . S
C84 C86 1.382 . S
C84 C88 1.404 . S
H85 C83 0.951 . S
C86 C84 1.382 . S
C86 C87 1.390 . S
C86 H91 0.949 . S
C87 C86 1.390 . S
C87 C92 1.399 . S
C88 C84 1.404 . S
C88 H89 0.950 . S
C88 C90 1.375 . S
H89 C88 0.950 . S
C90 C88 1.375 . S
C90 C92 1.382 . S
C90 H94 0.950 . S
H91 C86 0.949 . S
C92 C87 1.399 . S
C92 C90 1.382 . S
C92 H93 0.952 . S
H93 C92 0.952 . S
H94 C90 0.950 . S
H95 C96 0.949 . S
C96 H95 0.949 . S
C96 C97 1.395 . S
C96 C98 1.391 . S
C97 C96 1.395 . S
C97 C100 1.390 . S
C98 C96 1.391 . S
C98 C102 1.387 . S
C98 C103 1.491 . S
H99 C100 0.950 . S
C100 C97 1.390 . S
C100 H99 0.950 . S
C100 C101 1.378 . S
C101 C100 1.378 . S
C101 C102 1.409 . S
C102 C98 1.387 . S
C102 C101 1.409 . S
C102 H104 0.951 . S
C103 C98 1.491 . S
C103 C105 1.382 . S
C103 C107 1.404 . S
H104 C102 0.951 . S
C105 C103 1.382 . S
C105 C106 1.390 . S
C105 H110 0.949 . S
C106 C105 1.390 . S
C106 C111 1.399 . S
C107 C103 1.404 . S
C107 H108 0.950 . S
C107 C109 1.375 . S
H108 C107 0.950 . S
C109 C107 1.375 . S
C109 C111 1.382 . S
C109 H113 0.950 . S
H110 C105 0.949 . S
C111 C106 1.399 . S
C111 C109 1.382 . S
C111 H112 0.952 . S
H112 C111 0.952 . S
H113 C109 0.950 . S
H114 C115 0.949 . S
C115 H114 0.949 . S
C115 C116 1.395 . S
C115 C117 1.391 . S
C116 C115 1.395 . S
C116 C119 1.390 . S
C117 C115 1.391 . S
C117 C121 1.387 . S
C117 C122 1.491 . S
H118 C119 0.950 . S
C119 C116 1.390 . S
C119 H118 0.950 . S
C119 C120 1.378 . S
C120 C119 1.378 . S
C120 C121 1.409 . S
C121 C117 1.387 . S
C121 C120 1.409 . S
C121 H123 0.951 . S
C122 C117 1.491 . S
C122 C124 1.382 . S
C122 C126 1.404 . S
H123 C121 0.951 . S
C124 C122 1.382 . S
C124 C125 1.390 . S
C124 H129 0.949 . S
C125 C124 1.390 . S
C125 C130 1.399 . S
C126 C122 1.404 . S
C126 H127 0.950 . S
C126 C128 1.375 . S
H127 C126 0.950 . S
C128 C126 1.375 . S
C128 C130 1.382 . S
C128 H132 0.950 . S
H129 C124 0.949 . S
C130 C125 1.399 . S
C130 C128 1.382 . S
C130 H131 0.952 . S
H131 C130 0.952 . S
H132 C128 0.950 . S
H133 C134 0.949 . S
C134 H133 0.949 . S
C134 C135 1.395 . S
C134 C136 1.391 . S
C135 C134 1.395 . S
C135 C138 1.390 . S
C136 C134 1.391 . S
C136 C140 1.387 . S
C136 C141 1.491 . S
H137 C138 0.950 . S
C138 C135 1.390 . S
C138 H137 0.950 . S
C138 C139 1.378 . S
C139 C138 1.378 . S
C139 C140 1.409 . S
C140 C136 1.387 . S
C140 C139 1.409 . S
C140 H142 0.951 . S
C141 C136 1.491 . S
C141 C143 1.382 . S
C141 C145 1.404 . S
H142 C140 0.951 . S
C143 C141 1.382 . S
C143 C144 1.390 . S
C143 H148 0.949 . S
C144 C143 1.390 . S
C144 C149 1.399 . S
C145 C141 1.404 . S
C145 H146 0.950 . S
C145 C147 1.375 . S
H146 C145 0.950 . S
C147 C145 1.375 . S
C147 C149 1.382 . S
C147 H151 0.950 . S
H148 C143 0.949 . S
C149 C144 1.399 . S
C149 C147 1.382 . S
C149 H150 0.952 . S
H150 C149 0.952 . S
H151 C147 0.950 . S
O152 Mn153 2.163 1_655 S
O152 C166 1.244 . S
Mn153 O152 2.163 1_455 S
Mn153 O156 2.160 . S
Mn153 O157 2.221 . S
Mn153 O159 2.163 1_455 S
Mn153 O161 2.160 . S
Mn153 O171 2.222 1_445 S
O154 Mn155 2.087 . S
O154 C166 1.256 . S
Mn155 O154 2.087 . S
Mn155 O162 2.089 . S
Mn155 O171 2.291 1_545 S
Mn155 O172 2.251 1_545 S
O156 Mn153 2.160 . S
O156 C167 1.239 . S
O157 Mn153 2.221 . S
O157 Mn158 2.290 . S
O157 C168 1.278 . S
Mn158 O157 2.290 . S
Mn158 O160 2.089 . S
Mn158 O163 2.251 . S
Mn158 O164 2.087 . S
O159 Mn153 2.163 1_655 S
O159 C169 1.244 . S
O160 Mn158 2.089 . S
O160 C167 1.256 . S
O161 Mn153 2.160 . S
O161 C170 1.239 . S
O162 Mn155 2.089 . S
O162 C170 1.256 1_655 S
O163 Mn158 2.251 . S
O163 C168 1.241 . S
O164 Mn158 2.087 . S
O164 C169 1.256 1_455 S
C165 O171 1.277 . S
C165 O172 1.241 . S
C166 O152 1.244 . S
C166 O154 1.256 . S
C167 O156 1.239 . S
C167 O160 1.256 . S
C168 O157 1.278 . S
C168 O163 1.241 . S
C169 O159 1.244 . S
C169 O164 1.256 1_655 S
C170 O161 1.239 . S
C170 O162 1.256 1_455 S
O171 Mn153 2.222 1_665 S
O171 Mn155 2.291 1_565 S
O171 C165 1.277 . S
O172 Mn155 2.251 1_565 S
O172 C165 1.241 . S
O173 Mn174 2.163 . S
O173 C187 1.244 1_554 S
Mn174 O173 2.163 . S
Mn174 O177 2.160 . S
Mn174 O178 2.221 . S
Mn174 O180 2.163 . S
Mn174 O182 2.160 . S
Mn174 O192 2.221 1_545 S
O175 Mn176 2.087 . S
O175 C187 1.256 1_564 S
Mn176 O175 2.087 . S
Mn176 O183 2.089 . S
Mn176 O192 2.290 . S
Mn176 O193 2.251 . S
O177 Mn174 2.160 . S
O177 C188 1.239 . S
O178 Mn174 2.221 . S
O178 Mn179 2.290 . S
O178 C189 1.278 . S
Mn179 O178 2.290 . S
Mn179 O181 2.089 . S
Mn179 O184 2.251 . S
Mn179 O185 2.087 . S
O180 Mn174 2.163 . S
O180 C190 1.244 . S
O181 Mn179 2.089 . S
O181 C188 1.256 . S
O182 Mn174 2.160 . S
O182 C191 1.239 . S
O183 Mn176 2.089 . S
O183 C191 1.256 1_565 S
O184 Mn179 2.251 . S
O184 C189 1.241 . S
O185 Mn179 2.087 . S
O185 C190 1.256 . S
C186 O192 1.278 . S
C186 O193 1.241 . S
C187 O173 1.244 1_556 S
C187 O175 1.256 1_546 S
C188 O177 1.239 . S
C188 O181 1.256 . S
C189 O178 1.278 . S
C189 O184 1.241 . S
C190 O180 1.244 . S
C190 O185 1.256 . S
C191 O182 1.239 . S
C191 O183 1.256 1_545 S
O192 Mn174 2.221 1_565 S
O192 Mn176 2.290 . S
O192 C186 1.278 . S
O193 Mn176 2.251 . S
O193 C186 1.241 . S
O194 Mn195 2.163 . S
O194 C208 1.244 . S
Mn195 O194 2.163 . S
Mn195 O198 2.160 . S
Mn195 O199 2.221 . S
Mn195 O201 2.163 . S
Mn195 O203 2.160 . S
Mn195 O213 2.221 . S
O196 Mn197 2.087 . S
O196 C208 1.256 . S
Mn197 O196 2.087 . S
Mn197 O204 2.089 . S
Mn197 O213 2.290 . S
Mn197 O214 2.251 . S
O198 Mn195 2.160 . S
O198 C209 1.239 . S
O199 Mn195 2.221 . S
O199 Mn200 2.290 . S
O199 C210 1.278 . S
Mn200 O199 2.290 . S
Mn200 O202 2.089 . S
Mn200 O205 2.251 . S
Mn200 O206 2.087 . S
O201 Mn195 2.163 . S
O201 C211 1.244 . S
O202 Mn200 2.089 . S
O202 C209 1.256 . S
O203 Mn195 2.160 . S
O203 C212 1.239 . S
O204 Mn197 2.089 . S
O204 C212 1.256 . S
O205 Mn200 2.251 . S
O205 C210 1.241 . S
O206 Mn200 2.087 . S
O206 C211 1.256 . S
C207 O213 1.278 . S
C207 O214 1.241 . S
C208 O194 1.244 . S
C208 O196 1.256 . S
C209 O198 1.239 . S
C209 O202 1.256 . S
C210 O199 1.278 . S
C210 O205 1.241 . S
C211 O201 1.244 . S
C211 O206 1.256 . S
C212 O203 1.239 . S
C212 O204 1.256 . S
O213 Mn195 2.221 . S
O213 Mn197 2.290 . S
O213 C207 1.278 . S
O214 Mn197 2.251 . S
O214 C207 1.241 . S
O215 Mn216 2.163 1_655 S
O215 C229 1.244 1_554 S
Mn216 O215 2.163 1_455 S
Mn216 O219 2.160 . S
Mn216 O220 2.221 . S
Mn216 O222 2.163 . S
Mn216 O224 2.160 . S
Mn216 O234 2.221 1_554 S
O217 Mn218 2.087 . S
O217 C229 1.256 . S
Mn218 O217 2.087 . S
Mn218 O225 2.089 . S
Mn218 O234 2.290 1_655 S
Mn218 O235 2.251 1_655 S
O219 Mn216 2.160 . S
O219 C230 1.239 . S
O220 Mn216 2.221 . S
O220 Mn221 2.290 . S
O220 C231 1.278 1_455 S
Mn221 O220 2.290 . S
Mn221 O223 2.089 . S
Mn221 O226 2.251 1_455 S
Mn221 O227 2.087 . S
O222 Mn216 2.163 . S
O222 C232 1.244 . S
O223 Mn221 2.089 . S
O223 C230 1.256 . S
O224 Mn216 2.160 . S
O224 C233 1.239 1_454 S
O225 Mn218 2.089 . S
O225 C233 1.256 . S
O226 Mn221 2.251 1_655 S
O226 C231 1.241 . S
O227 Mn221 2.087 . S
O227 C232 1.256 . S
C228 O234 1.278 . S
C228 O235 1.241 . S
C229 O215 1.244 1_556 S
C229 O217 1.256 . S
C230 O219 1.239 . S
C230 O223 1.256 . S
C231 O220 1.278 1_655 S
C231 O226 1.241 . S
C232 O222 1.244 . S
C232 O227 1.256 . S
C233 O224 1.239 1_656 S
C233 O225 1.256 . S
O234 Mn216 2.221 1_556 S
O234 Mn218 2.290 1_455 S
O234 C228 1.278 . S
O235 Mn218 2.251 1_455 S
O235 C228 1.241 . S
H236 C244 0.929 . S
H237 C246 0.930 . S
H238 C248 0.930 . S
H239 C251 0.929 . S
H240 C254 0.930 . S
H241 C256 0.960 . S
H242 C256 0.960 . S
H243 C256 0.960 . S
C244 H236 0.929 . S
C244 C245 1.377 . S
C244 C246 1.384 . S
C245 C244 1.377 . S
C245 C251 1.390 . S
C246 H237 0.930 . S
C246 C244 1.384 . S
C246 C247 1.372 . S
C247 C246 1.372 . S
C247 C248 1.400 . S
C247 C252 1.490 . S
C248 H238 0.930 . S
C248 C247 1.400 . S
C248 C251 1.386 . S
H249 C265 0.930 . S
H250 C266 0.931 . S
C251 H239 0.929 . S
C251 C245 1.390 . S
C251 C248 1.386 . S
C252 C247 1.490 . S
C252 C254 1.395 . S
C252 C255 1.403 . S
H253 C259 0.930 . S
C254 H240 0.930 . S
C254 C252 1.395 . S
C254 C257 1.403 . S
C255 C252 1.403 . S
C255 C256 1.524 . S
C255 C259 1.400 . S
C256 H241 0.960 . S
C256 H242 0.960 . S
C256 H243 0.960 . S
C256 C255 1.524 . S
C257 C254 1.403 . S
C257 C258 1.392 . S
C257 C261 1.495 . S
C258 C257 1.392 . S
C258 C259 1.385 . S
C258 C260 1.478 . S
C259 H253 0.930 . S
C259 C255 1.400 . S
C259 C258 1.385 . S
C260 C258 1.478 . S
C260 C262 1.381 . S
C260 C266 1.383 . S
C261 C257 1.495 . S
C261 H267 0.959 . S
C261 H268 0.961 . S
C261 H269 0.960 . S
C262 C260 1.381 . S
C262 C263 1.394 . S
C262 H270 0.930 . S
C263 C262 1.394 . S
C263 C264 1.383 . S
C263 H271 0.929 . S
C264 C263 1.383 . S
C264 C265 1.377 . S
C265 H249 0.930 . S
C265 C264 1.377 . S
C265 C266 1.379 . S
C266 H250 0.931 . S
C266 C260 1.383 . S
C266 C265 1.379 . S
H267 C261 0.959 . S
H268 C261 0.961 . S
H269 C261 0.960 . S
H270 C262 0.930 . S
H271 C263 0.929 . S
H272 C280 0.929 . S
H273 C282 0.930 . S
H274 C284 0.930 . S
H275 C287 0.929 . S
H276 C290 0.930 . S
H277 C292 0.960 . S
H278 C292 0.960 . S
H279 C292 0.960 . S
C280 H272 0.929 . S
C280 C281 1.377 . S
C280 C282 1.384 . S
C281 C280 1.377 . S
C281 C287 1.390 . S
C282 H273 0.930 . S
C282 C280 1.384 . S
C282 C283 1.372 . S
C283 C282 1.372 . S
C283 C284 1.400 . S
C283 C288 1.490 . S
C284 H274 0.930 . S
C284 C283 1.400 . S
C284 C287 1.386 . S
H285 C301 0.930 . S
H286 C302 0.931 . S
C287 H275 0.929 . S
C287 C281 1.390 . S
C287 C284 1.386 . S
C288 C283 1.490 . S
C288 C290 1.395 . S
C288 C291 1.403 . S
H289 C295 0.930 . S
C290 H276 0.930 . S
C290 C288 1.395 . S
C290 C293 1.403 1_565 S
C291 C288 1.403 . S
C291 C292 1.524 . S
C291 C295 1.400 . S
C292 H277 0.960 . S
C292 H278 0.960 . S
C292 H279 0.960 . S
C292 C291 1.524 . S
C293 C290 1.403 1_545 S
C293 C294 1.392 1_545 S
C293 C297 1.495 . S
C294 C293 1.392 1_565 S
C294 C295 1.385 . S
C294 C296 1.478 1_565 S
C295 H289 0.930 . S
C295 C291 1.400 . S
C295 C294 1.385 . S
C296 C294 1.478 1_545 S
C296 C298 1.381 1_545 S
C296 C302 1.383 . S
C297 C293 1.495 . S
C297 H303 0.959 . S
C297 H304 0.961 . S
C297 H305 0.960 . S
C298 C296 1.381 1_565 S
C298 C299 1.394 . S
C298 H306 0.930 . S
C299 C298 1.394 . S
C299 C300 1.383 1_565 S
C299 H307 0.929 . S
C300 C299 1.383 1_545 S
C300 C301 1.377 . S
C301 H285 0.930 . S
C301 C300 1.377 . S
C301 C302 1.379 . S
C302 H286 0.931 . S
C302 C296 1.383 . S
C302 C301 1.379 . S
H303 C297 0.959 . S
H304 C297 0.961 . S
H305 C297 0.960 . S
H306 C298 0.930 . S
H307 C299 0.929 . S
H308 C316 0.929 . S
H309 C318 0.930 . S
H310 C320 0.930 . S
H311 C323 0.929 . S
H312 C326 0.930 . S
H313 C328 0.960 . S
H314 C328 0.960 . S
H315 C328 0.960 . S
C316 H308 0.929 . S
C316 C317 1.377 . S
C316 C318 1.384 . S
C317 C316 1.377 . S
C317 C323 1.390 . S
C318 H309 0.930 . S
C318 C316 1.384 . S
C318 C319 1.372 . S
C319 C318 1.372 . S
C319 C320 1.400 . S
C319 C324 1.490 . S
C320 H310 0.930 . S
C320 C319 1.400 . S
C320 C323 1.386 . S
H321 C337 0.930 . S
H322 C338 0.931 . S
C323 H311 0.929 . S
C323 C317 1.390 . S
C323 C320 1.386 . S
C324 C319 1.490 . S
C324 C326 1.395 . S
C324 C327 1.403 . S
H325 C331 0.930 . S
C326 H312 0.930 . S
C326 C324 1.395 . S
C326 C329 1.403 . S
C327 C324 1.403 . S
C327 C328 1.524 . S
C327 C331 1.400 . S
C328 H313 0.960 . S
C328 H314 0.960 . S
C328 H315 0.960 . S
C328 C327 1.524 . S
C329 C326 1.403 . S
C329 C330 1.392 . S
C329 C333 1.495 . S
C330 C329 1.392 . S
C330 C331 1.385 . S
C330 C332 1.478 . S
C331 H325 0.930 . S
C331 C327 1.400 . S
C331 C330 1.385 . S
C332 C330 1.478 . S
C332 C334 1.381 . S
C332 C338 1.383 . S
C333 C329 1.495 . S
C333 H339 0.959 . S
C333 H340 0.961 . S
C333 H341 0.960 . S
C334 C332 1.381 . S
C334 C335 1.394 . S
C334 H342 0.930 . S
C335 C334 1.394 . S
C335 C336 1.383 . S
C335 H343 0.929 . S
C336 C335 1.383 . S
C336 C337 1.377 . S
C337 H321 0.930 . S
C337 C336 1.377 . S
C337 C338 1.379 . S
C338 H322 0.931 . S
C338 C332 1.383 . S
C338 C337 1.379 . S
H339 C333 0.959 . S
H340 C333 0.961 . S
H341 C333 0.960 . S
H342 C334 0.930 . S
H343 C335 0.929 . S
H344 C352 0.929 . S
H345 C354 0.930 . S
H346 C356 0.930 . S
H347 C359 0.929 . S
H348 C362 0.930 . S
H349 C364 0.960 . S
H350 C364 0.960 . S
H351 C364 0.960 . S
C352 H344 0.929 . S
C352 C353 1.377 . S
C352 C354 1.384 . S
C353 C352 1.377 . S
C353 C359 1.390 . S
C354 H345 0.930 . S
C354 C352 1.384 . S
C354 C355 1.372 . S
C355 C354 1.372 . S
C355 C356 1.400 . S
C355 C360 1.490 . S
C356 H346 0.930 . S
C356 C355 1.400 . S
C356 C359 1.386 . S
H357 C373 0.930 . S
H358 C374 0.931 . S
C359 H347 0.929 . S
C359 C353 1.390 . S
C359 C356 1.386 . S
C360 C355 1.490 . S
C360 C362 1.395 . S
C360 C363 1.403 . S
H361 C367 0.930 . S
C362 H348 0.930 . S
C362 C360 1.395 . S
C362 C365 1.403 . S
C363 C360 1.403 . S
C363 C364 1.524 . S
C363 C367 1.400 . S
C364 H349 0.960 . S
C364 H350 0.960 . S
C364 H351 0.960 . S
C364 C363 1.524 . S
C365 C362 1.403 . S
C365 C366 1.392 . S
C365 C369 1.495 . S
C366 C365 1.392 . S
C366 C367 1.385 . S
C366 C368 1.478 . S
C367 H361 0.930 . S
C367 C363 1.400 . S
C367 C366 1.385 . S
C368 C366 1.478 . S
C368 C370 1.381 . S
C368 C374 1.383 . S
C369 C365 1.495 . S
C369 H375 0.959 . S
C369 H376 0.961 . S
C369 H377 0.960 . S
C370 C368 1.381 . S
C370 C371 1.394 . S
C370 H378 0.930 . S
C371 C370 1.394 . S
C371 C372 1.383 . S
C371 H379 0.929 . S
C372 C371 1.383 . S
C372 C373 1.377 . S
C373 H357 0.930 . S
C373 C372 1.377 . S
C373 C374 1.379 . S
C374 H358 0.931 . S
C374 C368 1.383 . S
C374 C373 1.379 . S
H375 C369 0.959 . S
H376 C369 0.961 . S
H377 C369 0.960 . S
H378 C370 0.930 . S
H379 C371 0.929 . S
H380 C388 0.929 . S
H381 C390 0.930 . S
H382 C392 0.930 . S
H383 C395 0.929 . S
H384 C398 0.930 . S
H385 C400 0.960 . S
H386 C400 0.960 . S
H387 C400 0.960 . S
C388 H380 0.929 . S
C388 C389 1.377 . S
C388 C390 1.384 . S
C389 C388 1.377 . S
C389 C395 1.390 . S
C390 H381 0.930 . S
C390 C388 1.384 . S
C390 C391 1.372 . S
C391 C390 1.372 . S
C391 C392 1.400 . S
C391 C396 1.490 . S
C392 H382 0.930 . S
C392 C391 1.400 . S
C392 C395 1.386 . S
H393 C409 0.930 . S
H394 C410 0.931 . S
C395 H383 0.929 . S
C395 C389 1.390 . S
C395 C392 1.386 . S
C396 C391 1.490 . S
C396 C398 1.395 . S
C396 C399 1.403 . S
H397 C403 0.930 . S
C398 H384 0.930 . S
C398 C396 1.395 . S
C398 C401 1.403 . S
C399 C396 1.403 . S
C399 C400 1.524 . S
C399 C403 1.400 . S
C400 H385 0.960 . S
C400 H386 0.960 . S
C400 H387 0.960 . S
C400 C399 1.524 . S
C401 C398 1.403 . S
C401 C402 1.392 . S
C401 C405 1.495 . S
C402 C401 1.392 . S
C402 C403 1.385 . S
C402 C404 1.478 . S
C403 H397 0.930 . S
C403 C399 1.400 . S
C403 C402 1.385 . S
C404 C402 1.478 . S
C404 C406 1.381 . S
C404 C410 1.383 . S
C405 C401 1.495 . S
C405 H411 0.959 . S
C405 H412 0.961 . S
C405 H413 0.960 . S
C406 C404 1.381 . S
C406 C407 1.394 . S
C406 H414 0.930 . S
C407 C406 1.394 . S
C407 C408 1.383 . S
C407 H415 0.929 . S
C408 C407 1.383 . S
C408 C409 1.377 . S
C409 H393 0.930 . S
C409 C408 1.377 . S
C409 C410 1.379 . S
C410 H394 0.931 . S
C410 C404 1.383 . S
C410 C409 1.379 . S
H411 C405 0.959 . S
H412 C405 0.961 . S
H413 C405 0.960 . S
H414 C406 0.930 . S
H415 C407 0.929 . S
H416 C424 0.929 . S
H417 C426 0.930 . S
H418 C428 0.930 1_545 S
H419 C431 0.929 . S
H420 C434 0.930 . S
H421 C436 0.960 . S
H422 C436 0.960 . S
H423 C436 0.960 . S
C424 H416 0.929 . S
C424 C425 1.377 . S
C424 C426 1.384 . S
C425 C424 1.377 . S
C425 C431 1.390 . S
C426 H417 0.930 . S
C426 C424 1.384 . S
C426 C427 1.372 . S
C427 C426 1.372 . S
C427 C428 1.400 . S
C427 C432 1.490 . S
C428 H418 0.930 1_565 S
C428 C427 1.400 . S
C428 C431 1.386 . S
H429 C445 0.930 . S
H430 C446 0.931 . S
C431 H419 0.929 . S
C431 C425 1.390 . S
C431 C428 1.386 . S
C432 C427 1.490 . S
C432 C434 1.395 1_565 S
C432 C435 1.403 . S
H433 C439 0.930 . S
C434 H420 0.930 . S
C434 C432 1.395 1_545 S
C434 C437 1.403 . S
C435 C432 1.403 . S
C435 C436 1.524 . S
C435 C439 1.400 . S
C436 H421 0.960 . S
C436 H422 0.960 . S
C436 H423 0.960 . S
C436 C435 1.524 . S
C437 C434 1.403 . S
C437 C438 1.392 . S
C437 C441 1.495 . S
C438 C437 1.392 . S
C438 C439 1.385 1_545 S
C438 C440 1.478 . S
C439 H433 0.930 . S
C439 C435 1.400 . S
C439 C438 1.385 1_565 S
C440 C438 1.478 . S
C440 C442 1.381 1_545 S
C440 C446 1.383 . S
C441 C437 1.495 . S
C441 H447 0.959 . S
C441 H448 0.961 . S
C441 H449 0.960 . S
C442 C440 1.381 1_565 S
C442 C443 1.394 . S
C442 H450 0.930 . S
C443 C442 1.394 . S
C443 C444 1.383 1_565 S
C443 H451 0.929 . S
C444 C443 1.383 1_545 S
C444 C445 1.377 . S
C445 H429 0.930 . S
C445 C444 1.377 . S
C445 C446 1.379 . S
C446 H430 0.931 . S
C446 C440 1.383 . S
C446 C445 1.379 . S
H447 C441 0.959 . S
H448 C441 0.961 . S
H449 C441 0.960 . S
H450 C442 0.930 . S
H451 C443 0.929 . S
H452 C460 0.929 . S
H453 C462 0.930 . S
H454 C464 0.930 . S
H455 C467 0.929 . S
H456 C470 0.930 . S
H457 C472 0.960 . S
H458 C472 0.960 . S
H459 C472 0.960 . S
C460 H452 0.929 . S
C460 C461 1.377 . S
C460 C462 1.384 . S
C461 C460 1.377 . S
C461 C467 1.390 . S
C462 H453 0.930 . S
C462 C460 1.384 . S
C462 C463 1.372 . S
C463 C462 1.372 . S
C463 C464 1.400 . S
C463 C468 1.490 . S
C464 H454 0.930 . S
C464 C463 1.400 . S
C464 C467 1.386 . S
H465 C481 0.930 . S
H466 C482 0.931 . S
C467 H455 0.929 . S
C467 C461 1.390 . S
C467 C464 1.386 . S
C468 C463 1.490 . S
C468 C470 1.395 . S
C468 C471 1.403 . S
H469 C475 0.930 . S
C470 H456 0.930 . S
C470 C468 1.395 . S
C470 C473 1.403 . S
C471 C468 1.403 . S
C471 C472 1.524 . S
C471 C475 1.400 . S
C472 H457 0.960 . S
C472 H458 0.960 . S
C472 H459 0.960 . S
C472 C471 1.524 . S
C473 C470 1.403 . S
C473 C474 1.392 . S
C473 C477 1.495 . S
C474 C473 1.392 . S
C474 C475 1.385 . S
C474 C476 1.478 . S
C475 H469 0.930 . S
C475 C471 1.400 . S
C475 C474 1.385 . S
C476 C474 1.478 . S
C476 C478 1.381 . S
C476 C482 1.383 . S
C477 C473 1.495 . S
C477 H483 0.959 . S
C477 H484 0.961 . S
C477 H485 0.960 . S
C478 C476 1.381 . S
C478 C479 1.394 1_556 S
C478 H486 0.930 1_556 S
C479 C478 1.394 1_554 S
C479 C480 1.383 1_554 S
C479 H487 0.929 . S
C480 C479 1.383 1_556 S
C480 C481 1.377 . S
C481 H465 0.930 . S
C481 C480 1.377 . S
C481 C482 1.379 . S
C482 H466 0.931 . S
C482 C476 1.383 . S
C482 C481 1.379 . S
H483 C477 0.959 . S
H484 C477 0.961 . S
H485 C477 0.960 . S
H486 C478 0.930 1_554 S
H487 C479 0.929 . S
H488 C496 0.929 . S
H489 C498 0.930 . S
H490 C500 0.930 . S
H491 C503 0.929 . S
H492 C506 0.930 . S
H493 C508 0.960 . S
H494 C508 0.960 . S
H495 C508 0.960 . S
C496 H488 0.929 . S
C496 C497 1.377 . S
C496 C498 1.384 . S
C497 C496 1.377 . S
C497 C503 1.390 . S
C498 H489 0.930 . S
C498 C496 1.384 . S
C498 C499 1.372 . S
C499 C498 1.372 . S
C499 C500 1.400 . S
C499 C504 1.490 . S
C500 H490 0.930 . S
C500 C499 1.400 . S
C500 C503 1.386 . S
H501 C517 0.930 . S
H502 C518 0.931 . S
C503 H491 0.929 . S
C503 C497 1.390 . S
C503 C500 1.386 . S
C504 C499 1.490 . S
C504 C506 1.395 . S
C504 C507 1.403 . S
H505 C511 0.930 . S
C506 H492 0.930 . S
C506 C504 1.395 . S
C506 C509 1.403 . S
C507 C504 1.403 . S
C507 C508 1.524 . S
C507 C511 1.400 . S
C508 H493 0.960 . S
C508 H494 0.960 . S
C508 H495 0.960 . S
C508 C507 1.524 . S
C509 C506 1.403 . S
C509 C510 1.392 . S
C509 C513 1.495 . S
C510 C509 1.392 . S
C510 C511 1.385 . S
C510 C512 1.478 . S
C511 H505 0.930 . S
C511 C507 1.400 . S
C511 C510 1.385 . S
C512 C510 1.478 . S
C512 C514 1.381 . S
C512 C518 1.383 . S
C513 C509 1.495 . S
C513 H519 0.959 . S
C513 H520 0.961 . S
C513 H521 0.960 . S
C514 C512 1.381 . S
C514 C515 1.394 . S
C514 H522 0.930 . S
C515 C514 1.394 . S
C515 C516 1.383 . S
C515 H523 0.929 . S
C516 C515 1.383 . S
C516 C517 1.377 . S
C517 H501 0.930 . S
C517 C516 1.377 . S
C517 C518 1.379 . S
C518 H502 0.931 . S
C518 C512 1.383 . S
C518 C517 1.379 . S
H519 C513 0.959 . S
H520 C513 0.961 . S
H521 C513 0.960 . S
H522 C514 0.930 . S
H523 C515 0.929 . S
H524 C532 0.929 . S
H525 C534 0.930 . S
H526 C536 0.930 . S
H527 C539 0.929 . S
H528 C542 0.930 . S
H529 C544 0.960 . S
H530 C544 0.960 . S
H531 C544 0.960 . S
C532 H524 0.929 . S
C532 C533 1.377 . S
C532 C534 1.384 . S
C533 C532 1.377 . S
C533 C539 1.390 . S
C534 H525 0.930 . S
C534 C532 1.384 . S
C534 C535 1.372 . S
C535 C534 1.372 . S
C535 C536 1.400 . S
C535 C540 1.490 . S
C536 H526 0.930 . S
C536 C535 1.400 . S
C536 C539 1.386 . S
H537 C553 0.930 1_655 S
H538 C554 0.931 . S
C539 H527 0.929 . S
C539 C533 1.390 . S
C539 C536 1.386 . S
C540 C535 1.490 . S
C540 C542 1.395 . S
C540 C543 1.403 . S
H541 C547 0.930 . S
C542 H528 0.930 . S
C542 C540 1.395 . S
C542 C545 1.403 . S
C543 C540 1.403 . S
C543 C544 1.524 . S
C543 C547 1.400 . S
C544 H529 0.960 . S
C544 H530 0.960 . S
C544 H531 0.960 . S
C544 C543 1.524 . S
C545 C542 1.403 . S
C545 C546 1.392 . S
C545 C549 1.495 . S
C546 C545 1.392 . S
C546 C547 1.385 . S
C546 C548 1.478 . S
C547 H541 0.930 . S
C547 C543 1.400 . S
C547 C546 1.385 . S
C548 C546 1.478 . S
C548 C550 1.381 . S
C548 C554 1.383 . S
C549 C545 1.495 . S
C549 H555 0.950 1_554 S
C549 H556 0.961 1_554 S
C549 H557 0.960 . S
C550 C548 1.381 . S
C550 C551 1.394 . S
C550 H558 0.930 . S
C551 C550 1.394 . S
C551 C552 1.383 . S
C551 H559 0.929 . S
C552 C551 1.383 . S
C552 C553 1.377 . S
C553 H537 0.930 1_455 S
C553 C552 1.377 . S
C553 C554 1.379 . S
C554 H538 0.931 . S
C554 C548 1.383 . S
C554 C553 1.379 . S
H555 C549 0.950 1_556 S
H556 C549 0.961 1_556 S
H557 C549 0.960 . S
H558 C550 0.930 . S
H559 C551 0.929 . S
H560 C568 0.929 . S
H561 C570 0.930 . S
H562 C572 0.930 . S
H563 C575 0.929 . S
H564 C578 0.930 1_554 S
H565 C580 0.960 . S
H566 C580 0.960 . S
H567 C580 0.960 . S
C568 H560 0.929 . S
C568 C569 1.377 . S
C568 C570 1.384 . S
C569 C568 1.377 . S
C569 C575 1.390 . S
C570 H561 0.930 . S
C570 C568 1.384 . S
C570 C571 1.372 . S
C571 C570 1.372 . S
C571 C572 1.400 . S
C571 C576 1.490 . S
C572 H562 0.930 . S
C572 C571 1.400 . S
C572 C575 1.386 . S
H573 C589 0.930 . S
H574 C590 0.931 . S
C575 H563 0.929 . S
C575 C569 1.390 . S
C575 C572 1.386 . S
C576 C571 1.490 . S
C576 C578 1.395 . S
C576 C579 1.403 . S
H577 C583 0.930 . S
C578 H564 0.930 1_556 S
C578 C576 1.395 . S
C578 C581 1.403 1_556 S
C579 C576 1.403 . S
C579 C580 1.524 . S
C579 C583 1.400 . S
C580 H565 0.960 . S
C580 H566 0.960 . S
C580 H567 0.960 . S
C580 C579 1.524 . S
C581 C578 1.403 1_554 S
C581 C582 1.392 1_554 S
C581 C585 1.495 . S
C582 C581 1.392 1_556 S
C582 C583 1.385 . S
C582 C584 1.477 1_556 S
C583 H577 0.930 . S
C583 C579 1.400 . S
C583 C582 1.385 . S
C584 C582 1.477 1_554 S
C584 C586 1.381 . S
C584 C590 1.383 . S
C585 C581 1.495 . S
C585 H591 0.959 . S
C585 H592 0.961 . S
C585 H593 0.960 . S
C586 C584 1.381 . S
C586 C587 1.394 . S
C586 H594 0.930 . S
C587 C586 1.394 . S
C587 C588 1.383 . S
C587 H595 0.929 . S
C588 C587 1.383 . S
C588 C589 1.377 . S
C589 H573 0.930 . S
C589 C588 1.377 . S
C589 C590 1.379 . S
C590 H574 0.931 . S
C590 C584 1.383 . S
C590 C589 1.379 . S
H591 C585 0.959 . S
H592 C585 0.961 . S
H593 C585 0.960 . S
H594 C586 0.930 . S
H595 C587 0.929 . S
H596 C604 0.929 . S
H597 C606 0.930 . S
H598 C608 0.930 . S
H599 C611 0.929 . S
H600 C614 0.930 . S
H601 C616 0.960 . S
H602 C616 0.960 . S
H603 C616 0.960 . S
C604 H596 0.929 . S
C604 C605 1.377 . S
C604 C606 1.384 . S
C605 C604 1.377 . S
C605 C611 1.390 . S
C606 H597 0.930 . S
C606 C604 1.384 . S
C606 C607 1.372 . S
C607 C606 1.372 . S
C607 C608 1.400 . S
C607 C612 1.490 . S
C608 H598 0.930 . S
C608 C607 1.400 . S
C608 C611 1.386 . S
H609 C625 0.930 . S
H610 C626 0.931 . S
C611 H599 0.929 . S
C611 C605 1.390 . S
C611 C608 1.386 . S
C612 C607 1.490 . S
C612 C614 1.395 . S
C612 C615 1.403 . S
H613 C619 0.930 . S
C614 H600 0.930 . S
C614 C612 1.395 . S
C614 C617 1.403 . S
C615 C612 1.403 . S
C615 C616 1.524 . S
C615 C619 1.400 . S
C616 H601 0.960 . S
C616 H602 0.960 . S
C616 H603 0.960 . S
C616 C615 1.524 . S
C617 C614 1.403 . S
C617 C618 1.392 . S
C617 C621 1.495 . S
C618 C617 1.392 . S
C618 C619 1.385 . S
C618 C620 1.478 . S
C619 H613 0.930 . S
C619 C615 1.400 . S
C619 C618 1.385 . S
C620 C618 1.478 . S
C620 C622 1.381 . S
C620 C626 1.383 . S
C621 C617 1.495 . S
C621 H627 0.959 . S
C621 H628 0.961 . S
C621 H629 0.960 . S
C622 C620 1.381 . S
C622 C623 1.394 . S
C622 H630 0.930 . S
C623 C622 1.394 . S
C623 C624 1.383 . S
C623 H631 0.929 . S
C624 C623 1.383 . S
C624 C625 1.377 . S
C625 H609 0.930 . S
C625 C624 1.377 . S
C625 C626 1.379 . S
C626 H610 0.931 . S
C626 C620 1.383 . S
C626 C625 1.379 . S
H627 C621 0.959 . S
H628 C621 0.961 . S
H629 C621 0.960 . S
H630 C622 0.930 . S
H631 C623 0.929 . S
H632 C640 0.929 . S
H633 C642 0.930 . S
H634 C644 0.930 . S
H635 C647 0.929 . S
H636 C650 0.930 . S
H637 C652 0.960 . S
H638 C652 0.960 . S
H639 C652 0.960 . S
C640 H632 0.929 . S
C640 C641 1.377 . S
C640 C642 1.384 . S
C641 C640 1.377 . S
C641 C647 1.390 . S
C642 H633 0.930 . S
C642 C640 1.384 . S
C642 C643 1.372 . S
C643 C642 1.372 . S
C643 C644 1.400 . S
C643 C648 1.490 . S
C644 H634 0.930 . S
C644 C643 1.400 . S
C644 C647 1.386 . S
H645 C661 0.930 . S
H646 C662 0.931 . S
C647 H635 0.929 . S
C647 C641 1.390 . S
C647 C644 1.386 . S
C648 C643 1.490 . S
C648 C650 1.395 . S
C648 C651 1.403 . S
H649 C655 0.930 . S
C650 H636 0.930 . S
C650 C648 1.395 . S
C650 C653 1.403 . S
C651 C648 1.403 . S
C651 C652 1.524 . S
C651 C655 1.400 . S
C652 H637 0.960 . S
C652 H638 0.960 . S
C652 H639 0.960 . S
C652 C651 1.524 . S
C653 C650 1.403 . S
C653 C654 1.392 . S
C653 C657 1.495 . S
C654 C653 1.392 . S
C654 C655 1.385 . S
C654 C656 1.478 . S
C655 H649 0.930 . S
C655 C651 1.400 . S
C655 C654 1.385 . S
C656 C654 1.478 . S
C656 C658 1.381 . S
C656 C662 1.383 . S
C657 C653 1.495 . S
C657 H663 0.959 . S
C657 H664 0.961 . S
C657 H665 0.960 . S
C658 C656 1.381 . S
C658 C659 1.394 . S
C658 H666 0.930 . S
C659 C658 1.394 . S
C659 C660 1.383 . S
C659 H667 0.929 . S
C660 C659 1.383 . S
C660 C661 1.377 . S
C661 H645 0.930 . S
C661 C660 1.377 . S
C661 C662 1.379 . S
C662 H646 0.931 . S
C662 C656 1.383 . S
C662 C661 1.379 . S
H663 C657 0.959 . S
H664 C657 0.961 . S
H665 C657 0.960 . S
H666 C658 0.930 . S
H667 C659 0.929 . S
H668 C676 0.929 . S
H669 C678 0.930 . S
H670 C680 0.930 1_545 S
H671 C683 0.929 . S
H672 C686 0.930 . S
H673 C688 0.960 . S
H674 C688 0.960 . S
H675 C688 0.960 . S
C676 H668 0.929 . S
C676 C677 1.377 . S
C676 C678 1.384 . S
C677 C676 1.377 . S
C677 C683 1.390 . S
C678 H669 0.930 . S
C678 C676 1.384 . S
C678 C679 1.372 . S
C679 C678 1.372 . S
C679 C680 1.400 . S
C679 C684 1.490 . S
C680 H670 0.930 1_565 S
C680 C679 1.400 . S
C680 C683 1.386 . S
H681 C697 0.930 . S
H682 C698 0.931 . S
C683 H671 0.929 . S
C683 C677 1.390 . S
C683 C680 1.386 . S
C684 C679 1.490 . S
C684 C686 1.395 . S
C684 C687 1.403 . S
H685 C691 0.930 1_545 S
C686 H672 0.930 . S
C686 C684 1.395 . S
C686 C689 1.403 . S
C687 C684 1.403 . S
C687 C688 1.524 1_565 S
C687 C691 1.400 . S
C688 H673 0.960 . S
C688 H674 0.960 . S
C688 H675 0.960 . S
C688 C687 1.524 1_545 S
C689 C686 1.403 . S
C689 C690 1.392 . S
C689 C693 1.495 . S
C690 C689 1.392 . S
C690 C691 1.385 . S
C690 C692 1.478 . S
C691 H685 0.930 1_565 S
C691 C687 1.400 . S
C691 C690 1.385 . S
C692 C690 1.478 . S
C692 C694 1.381 . S
C692 C698 1.383 1_565 S
C693 C689 1.495 . S
C693 H699 0.959 . S
C693 H700 0.961 . S
C693 H701 0.960 . S
C694 C692 1.381 . S
C694 C695 1.394 . S
C694 H702 0.930 . S
C695 C694 1.394 . S
C695 C696 1.383 1_565 S
C695 H703 0.929 . S
C696 C695 1.383 1_545 S
C696 C697 1.377 . S
C697 H681 0.930 . S
C697 C696 1.377 . S
C697 C698 1.379 . S
C698 H682 0.931 . S
C698 C692 1.383 1_545 S
C698 C697 1.379 . S
H699 C693 0.959 . S
H700 C693 0.961 . S
H701 C693 0.960 . S
H702 C694 0.930 . S
H703 C695 0.929 . S
H704 C712 0.929 . S
H705 C714 0.930 . S
H706 C716 0.930 . S
H707 C719 0.929 . S
H708 C722 0.930 . S
H709 C724 0.960 . S
H710 C724 0.960 . S
H711 C724 0.960 . S
C712 H704 0.929 . S
C712 C713 1.377 . S
C712 C714 1.384 . S
C713 C712 1.377 . S
C713 C719 1.390 . S
C714 H705 0.930 . S
C714 C712 1.384 . S
C714 C715 1.372 . S
C715 C714 1.372 . S
C715 C716 1.400 . S
C715 C720 1.490 . S
C716 H706 0.930 . S
C716 C715 1.400 . S
C716 C719 1.386 . S
H717 C733 0.930 . S
H718 C734 0.931 . S
C719 H707 0.929 . S
C719 C713 1.390 . S
C719 C716 1.386 . S
C720 C715 1.490 . S
C720 C722 1.395 . S
C720 C723 1.403 . S
H721 C727 0.930 . S
C722 H708 0.930 . S
C722 C720 1.395 . S
C722 C725 1.403 . S
C723 C720 1.403 . S
C723 C724 1.524 . S
C723 C727 1.400 . S
C724 H709 0.960 . S
C724 H710 0.960 . S
C724 H711 0.960 . S
C724 C723 1.524 . S
C725 C722 1.403 . S
C725 C726 1.392 . S
C725 C729 1.495 . S
C726 C725 1.392 . S
C726 C727 1.385 . S
C726 C728 1.478 . S
C727 H721 0.930 . S
C727 C723 1.400 . S
C727 C726 1.385 . S
C728 C726 1.478 . S
C728 C730 1.381 . S
C728 C734 1.383 . S
C729 C725 1.495 . S
C729 H735 0.959 . S
C729 H736 0.961 . S
C729 H737 0.960 . S
C730 C728 1.381 . S
C730 C731 1.394 . S
C730 H738 0.930 . S
C731 C730 1.394 . S
C731 C732 1.383 . S
C731 H739 0.929 . S
C732 C731 1.383 . S
C732 C733 1.377 . S
C733 H717 0.930 . S
C733 C732 1.377 . S
C733 C734 1.379 . S
C734 H718 0.931 . S
C734 C728 1.383 . S
C734 C733 1.379 . S
H735 C729 0.959 . S
H736 C729 0.961 . S
H737 C729 0.960 . S
H738 C730 0.930 . S
H739 C731 0.929 . S
H740 C748 0.929 . S
H741 C750 0.930 . S
H742 C752 0.930 . S
H743 C755 0.929 . S
H744 C758 0.930 . S
H745 C760 0.960 . S
H746 C760 0.960 . S
H747 C760 0.960 . S
C748 H740 0.929 . S
C748 C749 1.377 . S
C748 C750 1.384 . S
C749 C748 1.377 . S
C749 C755 1.390 . S
C750 H741 0.930 . S
C750 C748 1.384 . S
C750 C751 1.372 . S
C751 C750 1.372 . S
C751 C752 1.400 . S
C751 C756 1.490 . S
C752 H742 0.930 . S
C752 C751 1.400 . S
C752 C755 1.386 . S
H753 C769 0.930 . S
H754 C770 0.931 . S
C755 H743 0.929 . S
C755 C749 1.390 . S
C755 C752 1.386 . S
C756 C751 1.490 . S
C756 C758 1.395 . S
C756 C759 1.403 . S
H757 C763 0.930 . S
C758 H744 0.930 . S
C758 C756 1.395 . S
C758 C761 1.403 . S
C759 C756 1.403 . S
C759 C760 1.524 . S
C759 C763 1.400 . S
C760 H745 0.960 . S
C760 H746 0.960 . S
C760 H747 0.960 . S
C760 C759 1.524 . S
C761 C758 1.403 . S
C761 C762 1.392 . S
C761 C765 1.495 . S
C762 C761 1.392 . S
C762 C763 1.385 . S
C762 C764 1.478 . S
C763 H757 0.930 . S
C763 C759 1.400 . S
C763 C762 1.385 . S
C764 C762 1.478 . S
C764 C766 1.381 . S
C764 C770 1.383 . S
C765 C761 1.495 . S
C765 H771 0.959 . S
C765 H772 0.961 . S
C765 H773 0.960 . S
C766 C764 1.381 . S
C766 C767 1.394 . S
C766 H774 0.930 . S
C767 C766 1.394 . S
C767 C768 1.383 . S
C767 H775 0.929 . S
C768 C767 1.383 . S
C768 C769 1.377 . S
C769 H753 0.930 . S
C769 C768 1.377 . S
C769 C770 1.379 . S
C770 H754 0.931 . S
C770 C764 1.383 . S
C770 C769 1.379 . S
H771 C765 0.959 . S
H772 C765 0.961 . S
H773 C765 0.960 . S
H774 C766 0.930 . S
H775 C767 0.929 . S
H776 C784 0.929 . S
H777 C786 0.930 . S
H778 C788 0.930 . S
H779 C791 0.929 . S
H780 C794 0.930 . S
H781 C796 0.960 . S
H782 C796 0.960 . S
H783 C796 0.960 . S
C784 H776 0.929 . S
C784 C785 1.377 . S
C784 C786 1.384 . S
C785 C784 1.377 . S
C785 C791 1.390 . S
C786 H777 0.930 . S
C786 C784 1.384 . S
C786 C787 1.372 . S
C787 C786 1.372 . S
C787 C788 1.400 . S
C787 C792 1.490 . S
C788 H778 0.930 . S
C788 C787 1.400 . S
C788 C791 1.386 . S
H789 C805 0.930 . S
H790 C806 0.931 . S
C791 H779 0.929 . S
C791 C785 1.390 . S
C791 C788 1.386 . S
C792 C787 1.490 . S
C792 C794 1.395 . S
C792 C795 1.403 . S
H793 C799 0.930 . S
C794 H780 0.930 . S
C794 C792 1.395 . S
C794 C797 1.403 . S
C795 C792 1.403 . S
C795 C796 1.524 . S
C795 C799 1.400 . S
C796 H781 0.960 . S
C796 H782 0.960 . S
C796 H783 0.960 . S
C796 C795 1.524 . S
C797 C794 1.403 . S
C797 C798 1.392 . S
C797 C801 1.495 . S
C798 C797 1.392 . S
C798 C799 1.385 . S
C798 C800 1.478 . S
C799 H793 0.930 . S
C799 C795 1.400 . S
C799 C798 1.385 . S
C800 C798 1.478 . S
C800 C802 1.381 . S
C800 C806 1.383 . S
C801 C797 1.495 . S
C801 H807 0.959 1_455 S
C801 H808 0.961 1_455 S
C801 H809 0.960 . S
C802 C800 1.381 . S
C802 C803 1.394 . S
C802 H810 0.930 . S
C803 C802 1.394 . S
C803 C804 1.383 . S
C803 H811 0.929 . S
C804 C803 1.383 . S
C804 C805 1.377 . S
C805 H789 0.930 . S
C805 C804 1.377 . S
C805 C806 1.379 . S
C806 H790 0.931 . S
C806 C800 1.383 . S
C806 C805 1.379 . S
H807 C801 0.959 1_655 S
H808 C801 0.961 1_655 S
H809 C801 0.960 . S
H810 C802 0.930 . S
H811 C803 0.929 . S
H812 C820 0.929 . S
H813 C822 0.930 . S
H814 C824 0.930 . S
H815 C827 0.929 1_545 S
H816 C830 0.930 1_554 S
H817 C832 0.960 . S
H818 C832 0.960 . S
H819 C832 0.960 . S
C820 H812 0.929 . S
C820 C821 1.377 . S
C820 C822 1.384 . S
C821 C820 1.377 . S
C821 C827 1.390 . S
C822 H813 0.930 . S
C822 C820 1.384 . S
C822 C823 1.372 . S
C823 C822 1.372 . S
C823 C824 1.400 1_565 S
C823 C828 1.490 . S
C824 H814 0.930 . S
C824 C823 1.400 1_545 S
C824 C827 1.386 1_545 S
H825 C841 0.930 . S
H826 C842 0.931 . S
C827 H815 0.929 1_565 S
C827 C821 1.390 . S
C827 C824 1.386 1_565 S
C828 C823 1.490 . S
C828 C830 1.395 . S
C828 C831 1.403 1_565 S
H829 C835 0.930 . S
C830 H816 0.930 1_556 S
C830 C828 1.395 . S
C830 C833 1.403 1_556 S
C831 C828 1.403 1_545 S
C831 C832 1.524 . S
C831 C835 1.400 . S
C832 H817 0.960 . S
C832 H818 0.960 . S
C832 H819 0.960 . S
C832 C831 1.524 . S
C833 C830 1.403 1_554 S
C833 C834 1.407 . S
C833 C837 1.495 . S
C834 C833 1.407 . S
C834 C835 1.355 1_564 S
C834 C836 1.494 1_565 S
C835 H829 0.930 . S
C835 C831 1.400 . S
C835 C834 1.355 1_546 S
C836 C834 1.494 1_545 S
C836 C838 1.381 1_545 S
C836 C842 1.383 . S
C837 C833 1.495 . S
C837 H843 0.959 . S
C837 H844 0.961 . S
C837 H845 0.960 . S
C838 C836 1.381 1_565 S
C838 C839 1.394 . S
C838 H846 0.930 1_554 S
C839 C838 1.394 . S
C839 C840 1.383 1_565 S
C839 H847 0.929 . S
C840 C839 1.383 1_545 S
C840 C841 1.377 . S
C841 H825 0.930 . S
C841 C840 1.377 . S
C841 C842 1.379 . S
C842 H826 0.931 . S
C842 C836 1.383 . S
C842 C841 1.379 . S
H843 C837 0.959 . S
H844 C837 0.961 . S
H845 C837 0.960 . S
H846 C838 0.930 1_556 S
H847 C839 0.929 . S
H848 C856 0.929 . S
H849 C858 0.930 . S
H850 C860 0.930 . S
H851 C863 0.929 . S
H852 C866 0.930 . S
H853 C868 0.960 . S
H854 C868 0.960 . S
H855 C868 0.960 . S
C856 H848 0.929 . S
C856 C857 1.377 . S
C856 C858 1.384 . S
C857 C856 1.377 . S
C857 C863 1.390 . S
C858 H849 0.930 . S
C858 C856 1.384 . S
C858 C859 1.372 . S
C859 C858 1.372 . S
C859 C860 1.400 . S
C859 C864 1.490 . S
C860 H850 0.930 . S
C860 C859 1.400 . S
C860 C863 1.386 . S
H861 C877 0.930 . S
H862 C878 0.931 . S
C863 H851 0.929 . S
C863 C857 1.390 . S
C863 C860 1.386 . S
C864 C859 1.490 . S
C864 C866 1.395 . S
C864 C867 1.403 . S
H865 C871 0.930 . S
C866 H852 0.930 . S
C866 C864 1.395 . S
C866 C869 1.403 . S
C867 C864 1.403 . S
C867 C868 1.524 . S
C867 C871 1.400 . S
C868 H853 0.960 . S
C868 H854 0.960 . S
C868 H855 0.960 . S
C868 C867 1.524 . S
C869 C866 1.403 . S
C869 C870 1.392 . S
C869 C873 1.495 . S
C870 C869 1.392 . S
C870 C871 1.385 . S
C870 C872 1.478 . S
C871 H865 0.930 . S
C871 C867 1.400 . S
C871 C870 1.385 . S
C872 C870 1.478 . S
C872 C874 1.381 . S
C872 C878 1.383 . S
C873 C869 1.495 . S
C873 H879 0.959 . S
C873 H880 0.961 . S
C873 H881 0.960 . S
C874 C872 1.381 . S
C874 C875 1.394 . S
C874 H882 0.930 . S
C875 C874 1.394 . S
C875 C876 1.383 . S
C875 H883 0.929 . S
C876 C875 1.383 . S
C876 C877 1.377 . S
C877 H861 0.930 . S
C877 C876 1.377 . S
C877 C878 1.379 . S
C878 H862 0.931 . S
C878 C872 1.383 . S
C878 C877 1.379 . S
H879 C873 0.959 . S
H880 C873 0.961 . S
H881 C873 0.960 . S
H882 C874 0.930 . S
H883 C875 0.929 . S
H884 C892 0.929 . S
H885 C894 0.930 . S
H886 C896 0.930 . S
H887 C899 0.929 . S
H888 C902 0.930 . S
H889 C904 0.960 . S
H890 C904 0.960 . S
H891 C904 0.960 . S
C892 H884 0.929 . S
C892 C893 1.377 . S
C892 C894 1.384 . S
C893 C892 1.377 . S
C893 C899 1.390 . S
C894 H885 0.930 . S
C894 C892 1.384 . S
C894 C895 1.372 . S
C895 C894 1.372 . S
C895 C896 1.400 . S
C895 C900 1.490 . S
C896 H886 0.930 . S
C896 C895 1.400 . S
C896 C899 1.386 . S
H897 C913 0.930 . S
H898 C914 0.931 . S
C899 H887 0.929 . S
C899 C893 1.390 . S
C899 C896 1.386 . S
C900 C895 1.490 . S
C900 C902 1.395 . S
C900 C903 1.403 . S
H901 C907 0.930 . S
C902 H888 0.930 . S
C902 C900 1.395 . S
C902 C905 1.403 . S
C903 C900 1.403 . S
C903 C904 1.524 . S
C903 C907 1.400 . S
C904 H889 0.960 . S
C904 H890 0.960 . S
C904 H891 0.960 . S
C904 C903 1.524 . S
C905 C902 1.403 . S
C905 C906 1.392 . S
C905 C909 1.495 . S
C906 C905 1.392 . S
C906 C907 1.385 . S
C906 C908 1.478 . S
C907 H901 0.930 . S
C907 C903 1.400 . S
C907 C906 1.385 . S
C908 C906 1.478 . S
C908 C910 1.381 . S
C908 C914 1.383 . S
C909 C905 1.495 . S
C909 H915 0.959 . S
C909 H916 0.961 . S
C909 H917 0.960 . S
C910 C908 1.381 . S
C910 C911 1.394 . S
C910 H918 0.930 . S
C911 C910 1.394 . S
C911 C912 1.383 . S
C911 H919 0.929 . S
C912 C911 1.383 . S
C912 C913 1.377 . S
C913 H897 0.930 . S
C913 C912 1.377 . S
C913 C914 1.379 . S
C914 H898 0.931 . S
C914 C908 1.383 . S
C914 C913 1.379 . S
H915 C909 0.959 . S
H916 C909 0.961 . S
H917 C909 0.960 . S
H918 C910 0.930 . S
H919 C911 0.929 . S
H920 C928 0.929 . S
H921 C930 0.930 . S
H922 C932 0.930 . S
H923 C935 0.929 . S
H924 C938 0.930 . S
H925 C940 0.960 . S
H926 C940 0.960 . S
H927 C940 0.960 . S
C928 H920 0.929 . S
C928 C929 1.377 . S
C928 C930 1.384 . S
C929 C928 1.377 . S
C929 C935 1.390 . S
C930 H921 0.930 . S
C930 C928 1.384 . S
C930 C931 1.372 . S
C931 C930 1.372 . S
C931 C932 1.400 . S
C931 C936 1.490 . S
C932 H922 0.930 . S
C932 C931 1.400 . S
C932 C935 1.386 . S
H933 C949 0.930 . S
H934 C950 0.931 . S
C935 H923 0.929 . S
C935 C929 1.390 . S
C935 C932 1.386 . S
C936 C931 1.490 . S
C936 C938 1.395 . S
C936 C939 1.403 . S
H937 C943 0.930 . S
C938 H924 0.930 . S
C938 C936 1.395 . S
C938 C941 1.403 . S
C939 C936 1.403 . S
C939 C940 1.524 . S
C939 C943 1.400 . S
C940 H925 0.960 . S
C940 H926 0.960 . S
C940 H927 0.960 . S
C940 C939 1.524 . S
C941 C938 1.403 . S
C941 C942 1.392 . S
C941 C945 1.495 . S
C942 C941 1.392 . S
C942 C943 1.385 . S
C942 C944 1.478 . S
C943 H937 0.930 . S
C943 C939 1.400 . S
C943 C942 1.385 . S
C944 C942 1.478 . S
C944 C946 1.381 . S
C944 C950 1.383 . S
C945 C941 1.495 . S
C945 H951 0.959 . S
C945 H952 0.961 . S
C945 H953 0.960 . S
C946 C944 1.381 . S
C946 C947 1.394 . S
C946 H954 0.930 . S
C947 C946 1.394 . S
C947 C948 1.383 . S
C947 H955 0.929 . S
C948 C947 1.383 . S
C948 C949 1.377 . S
C949 H933 0.930 . S
C949 C948 1.377 . S
C949 C950 1.379 . S
C950 H934 0.931 . S
C950 C944 1.383 . S
C950 C949 1.379 . S
H951 C945 0.959 . S
H952 C945 0.961 . S
H953 C945 0.960 . S
H954 C946 0.930 . S
H955 C947 0.929 . S
H956 C964 0.929 . S
H957 C966 0.930 . S
H958 C968 0.930 . S
H959 C971 0.929 . S
H960 C974 0.930 . S
H961 C976 0.960 1_554 S
H962 C976 0.960 . S
H963 C976 0.960 . S
C964 H956 0.929 . S
C964 C965 1.377 . S
C964 C966 1.384 . S
C965 C964 1.377 . S
C965 C971 1.390 . S
C966 H957 0.930 . S
C966 C964 1.384 . S
C966 C967 1.372 . S
C967 C966 1.372 . S
C967 C968 1.400 . S
C967 C972 1.490 . S
C968 H958 0.930 . S
C968 C967 1.400 . S
C968 C971 1.386 . S
H969 C985 0.930 . S
H970 C986 0.931 1_455 S
C971 H959 0.929 . S
C971 C965 1.390 . S
C971 C968 1.386 . S
C972 C967 1.490 . S
C972 C974 1.395 . S
C972 C975 1.403 . S
H973 C979 0.930 . S
C974 H960 0.930 . S
C974 C972 1.395 . S
C974 C977 1.403 . S
C975 C972 1.403 . S
C975 C976 1.524 . S
C975 C979 1.400 . S
C976 H961 0.960 1_556 S
C976 H962 0.960 . S
C976 H963 0.960 . S
C976 C975 1.524 . S
C977 C974 1.403 . S
C977 C978 1.392 . S
C977 C981 1.495 . S
C978 C977 1.392 . S
C978 C979 1.385 . S
C978 C980 1.478 . S
C979 H973 0.930 . S
C979 C975 1.400 . S
C979 C978 1.385 . S
C980 C978 1.478 . S
C980 C982 1.381 . S
C980 C986 1.383 . S
C981 C977 1.495 . S
C981 H987 0.959 . S
C981 H988 0.961 . S
C981 H989 0.960 . S
C982 C980 1.381 . S
C982 C983 1.394 . S
C982 H990 0.930 . S
C983 C982 1.394 . S
C983 C984 1.383 . S
C983 H991 0.929 . S
C984 C983 1.383 . S
C984 C985 1.377 1_655 S
C985 H969 0.930 . S
C985 C984 1.377 1_455 S
C985 C986 1.379 1_455 S
C986 H970 0.931 1_655 S
C986 C980 1.383 . S
C986 C985 1.379 1_655 S
H987 C981 0.959 . S
H988 C981 0.961 . S
H989 C981 0.960 . S
H990 C982 0.930 . S
H991 C983 0.929 . S
H992 C1000 0.929 . S
H993 C1002 0.930 . S
H994 C1004 0.930 . S
H995 C1007 0.929 . S
H996 C1010 0.930 . S
H997 C1012 0.960 . S
H998 C1012 0.960 . S
H999 C1012 0.960 . S
C1000 H992 0.929 . S
C1000 C1001 1.377 . S
C1000 C1002 1.384 . S
C1001 C1000 1.377 . S
C1001 C1007 1.390 . S
C1002 H993 0.930 . S
C1002 C1000 1.384 . S
C1002 C1003 1.372 . S
C1003 C1002 1.372 . S
C1003 C1004 1.400 . S
C1003 C1008 1.490 . S
C1004 H994 0.930 . S
C1004 C1003 1.400 . S
C1004 C1007 1.386 . S
H1005 C1021 0.930 . S
H1006 C1022 0.931 . S
C1007 H995 0.929 . S
C1007 C1001 1.390 . S
C1007 C1004 1.386 . S
C1008 C1003 1.490 . S
C1008 C1010 1.395 . S
C1008 C1011 1.403 . S
H1009 C1015 0.930 . S
C1010 H996 0.930 . S
C1010 C1008 1.395 . S
C1010 C1013 1.403 . S
C1011 C1008 1.403 . S
C1011 C1012 1.524 . S
C1011 C1015 1.400 . S
C1012 H997 0.960 . S
C1012 H998 0.960 . S
C1012 H999 0.960 . S
C1012 C1011 1.524 . S
C1013 C1010 1.403 . S
C1013 C1014 1.392 . S
C1013 C1017 1.495 . S
C1014 C1013 1.392 . S
C1014 C1015 1.385 . S
C1014 C1016 1.478 . S
C1015 H1009 0.930 . S
C1015 C1011 1.400 . S
C1015 C1014 1.385 . S
C1016 C1014 1.478 . S
C1016 C1018 1.381 . S
C1016 C1022 1.383 . S
C1017 C1013 1.495 . S
C1017 H1023 0.959 . S
C1017 H1024 0.961 . S
C1017 H1025 0.960 . S
C1018 C1016 1.381 . S
C1018 C1019 1.394 . S
C1018 H1026 0.930 . S
C1019 C1018 1.394 . S
C1019 C1020 1.383 . S
C1019 H1027 0.929 . S
C1020 C1019 1.383 . S
C1020 C1021 1.377 . S
C1021 H1005 0.930 . S
C1021 C1020 1.377 . S
C1021 C1022 1.379 . S
C1022 H1006 0.931 . S
C1022 C1016 1.383 . S
C1022 C1021 1.379 . S
H1023 C1017 0.959 . S
H1024 C1017 0.961 . S
H1025 C1017 0.960 . S
H1026 C1018 0.930 . S
H1027 C1019 0.929 . S
H1028 C1036 0.929 . S
H1029 C1038 0.930 . S
H1030 C1040 0.930 . S
H1031 C1043 0.929 . S
H1032 C1046 0.930 . S
H1033 C1048 0.960 . S
H1034 C1048 0.960 . S
H1035 C1048 0.960 . S
C1036 H1028 0.929 . S
C1036 C1037 1.377 . S
C1036 C1038 1.384 . S
C1037 C1036 1.377 . S
C1037 C1043 1.390 . S
C1038 H1029 0.930 . S
C1038 C1036 1.384 . S
C1038 C1039 1.372 . S
C1039 C1038 1.372 . S
C1039 C1040 1.400 . S
C1039 C1044 1.490 . S
C1040 H1030 0.930 . S
C1040 C1039 1.400 . S
C1040 C1043 1.386 . S
H1041 C1057 0.930 1_655 S
H1042 C1058 0.931 . S
C1043 H1031 0.929 . S
C1043 C1037 1.390 . S
C1043 C1040 1.386 . S
C1044 C1039 1.490 . S
C1044 C1046 1.395 . S
C1044 C1047 1.403 . S
H1045 C1051 0.930 . S
C1046 H1032 0.930 . S
C1046 C1044 1.395 . S
C1046 C1049 1.403 . S
C1047 C1044 1.403 . S
C1047 C1048 1.524 . S
C1047 C1051 1.400 . S
C1048 H1033 0.960 . S
C1048 H1034 0.960 . S
C1048 H1035 0.960 . S
C1048 C1047 1.524 . S
C1049 C1046 1.403 . S
C1049 C1050 1.392 . S
C1049 C1053 1.495 . S
C1050 C1049 1.392 . S
C1050 C1051 1.385 . S
C1050 C1052 1.478 . S
C1051 H1045 0.930 . S
C1051 C1047 1.400 . S
C1051 C1050 1.385 . S
C1052 C1050 1.478 . S
C1052 C1054 1.381 . S
C1052 C1058 1.383 . S
C1053 C1049 1.495 . S
C1053 H1059 0.959 . S
C1053 H1060 0.961 . S
C1053 H1061 0.960 . S
C1054 C1052 1.381 . S
C1054 C1055 1.394 . S
C1054 H1062 0.930 . S
C1055 C1054 1.394 . S
C1055 C1056 1.383 . S
C1055 H1063 0.929 . S
C1056 C1055 1.383 . S
C1056 C1057 1.377 . S
C1057 H1041 0.930 1_455 S
C1057 C1056 1.377 . S
C1057 C1058 1.379 . S
C1058 H1042 0.931 . S
C1058 C1052 1.383 . S
C1058 C1057 1.379 . S
H1059 C1053 0.959 . S
H1060 C1053 0.961 . S
H1061 C1053 0.960 . S
H1062 C1054 0.930 . S
H1063 C1055 0.929 . S
H1064 C1072 0.929 . S
H1065 C1074 0.930 . S
H1066 C1076 0.930 . S
H1067 C1079 0.929 . S
H1068 C1082 0.930 . S
H1069 C1084 0.960 . S
H1070 C1084 0.960 . S
H1071 C1084 0.960 . S
C1072 H1064 0.929 . S
C1072 C1073 1.377 . S
C1072 C1074 1.384 . S
C1073 C1072 1.377 . S
C1073 C1079 1.390 . S
C1074 H1065 0.930 . S
C1074 C1072 1.384 . S
C1074 C1075 1.372 . S
C1075 C1074 1.372 . S
C1075 C1076 1.400 . S
C1075 C1080 1.490 . S
C1076 H1066 0.930 . S
C1076 C1075 1.400 . S
C1076 C1079 1.386 . S
H1077 C1093 0.930 . S
H1078 C1094 0.931 . S
C1079 H1067 0.929 . S
C1079 C1073 1.390 . S
C1079 C1076 1.386 . S
C1080 C1075 1.490 . S
C1080 C1082 1.395 . S
C1080 C1083 1.403 . S
H1081 C1087 0.930 . S
C1082 H1068 0.930 . S
C1082 C1080 1.395 . S
C1082 C1085 1.403 . S
C1083 C1080 1.403 . S
C1083 C1084 1.524 . S
C1083 C1087 1.400 . S
C1084 H1069 0.960 . S
C1084 H1070 0.960 . S
C1084 H1071 0.960 . S
C1084 C1083 1.524 . S
C1085 C1082 1.403 . S
C1085 C1086 1.392 . S
C1085 C1089 1.495 . S
C1086 C1085 1.392 . S
C1086 C1087 1.385 . S
C1086 C1088 1.478 . S
C1087 H1081 0.930 . S
C1087 C1083 1.400 . S
C1087 C1086 1.385 . S
C1088 C1086 1.478 . S
C1088 C1090 1.381 . S
C1088 C1094 1.383 . S
C1089 C1085 1.495 . S
C1089 H1095 0.959 . S
C1089 H1096 0.961 . S
C1089 H1097 0.960 . S
C1090 C1088 1.381 . S
C1090 C1091 1.394 . S
C1090 H1098 0.930 . S
C1091 C1090 1.394 . S
C1091 C1092 1.383 . S
C1091 H1099 0.929 . S
C1092 C1091 1.383 . S
C1092 C1093 1.377 . S
C1093 H1077 0.930 . S
C1093 C1092 1.377 . S
C1093 C1094 1.379 . S
C1094 H1078 0.931 . S
C1094 C1088 1.383 . S
C1094 C1093 1.379 . S
H1095 C1089 0.959 . S
H1096 C1089 0.961 . S
H1097 C1089 0.960 . S
H1098 C1090 0.930 . S
H1099 C1091 0.929 . S
C245 C6 1.922 . S
C264 C170 1.858 . S
C281 C21 2.067 . S
C300 C187 2.044 . S
C336 C210 0.796 . S
C317 C49 0.709 . S
C353 C68 1.397 . S
C372 C231 1.310 . S
C408 C190 2.579 . S
C389 C2 2.644 . S
C444 C167 1.322 . S
C425 C30 1.259 . S
C480 C229 0.970 . S
C461 C40 0.993 . S
C516 C208 1.059 . S
C497 C63 1.170 . S
C533 C11 1.581 . S
C552 C232 1.754 . S
C588 C189 1.423 . S
C569 C44 1.740 . S
C605 C59 1.323 . S
C624 C165 1.114 . S
C641 C25 1.732 . S
C660 C211 1.696 . S
C696 C169 2.122 . S
C677 C82 2.200 . S
C713 C101 1.584 . S
C732 C188 1.555 . S
C749 C125 1.174 . S
C768 C207 1.043 . S
C785 C144 0.989 . S
C804 C228 0.848 . S
C821 C87 1.351 . S
C840 C191 1.467 . S
C876 C166 2.541 . S
C857 C97 2.573 . S
C912 C230 0.922 . S
C893 C120 0.960 . S
C948 C209 1.239 . S
C929 C135 1.284 . S
C965 C78 1.953 . S
C984 C233 1.871 . S
C1020 C186 0.971 . S
C1001 C116 1.005 . S
C1056 C168 1.313 . S
C1037 C139 1.558 . S
C1073 C106 1.393 . S
C1092 C212 1.479 . S
