# Generated by pormake.
# Topology rtl, (3,6)-cn, num edge types: 1
# Building blocks:
#     Node 0, Type 0, BuildingBlock: KAKCAD_clean_linker_0, # of connection points: 3
#     Node 1, Type 0, BuildingBlock: KAKCAD_clean_linker_0, # of connection points: 3
#     Node 2, Type 0, BuildingBlock: KAKCAD_clean_linker_0, # of connection points: 3
#     Node 3, Type 0, BuildingBlock: KAKCAD_clean_linker_0, # of connection points: 3
#     Node 4, Type 1, BuildingBlock: VOLQOD_clean_sbu_1, # of connection points: 6
#     Node 5, Type 1, BuildingBlock: VOLQOD_clean_sbu_1, # of connection points: 6
#     Edge 6, Type (0, 1), BuildingBlock: ZUJKAS_clean_linker_0, # of connection points: 2
#     Edge 7, Type (0, 1), BuildingBlock: ZUJKAS_clean_linker_0, # of connection points: 2
#     Edge 8, Type (0, 1), BuildingBlock: ZUJKAS_clean_linker_0, # of connection points: 2
#     Edge 9, Type (0, 1), BuildingBlock: ZUJKAS_clean_linker_0, # of connection points: 2
#     Edge 10, Type (0, 1), BuildingBlock: ZUJKAS_clean_linker_0, # of connection points: 2
#     Edge 11, Type (0, 1), BuildingBlock: ZUJKAS_clean_linker_0, # of connection points: 2
#     Edge 12, Type (0, 1), BuildingBlock: ZUJKAS_clean_linker_0, # of connection points: 2
#     Edge 13, Type (0, 1), BuildingBlock: ZUJKAS_clean_linker_0, # of connection points: 2
#     Edge 14, Type (0, 1), BuildingBlock: ZUJKAS_clean_linker_0, # of connection points: 2
#     Edge 15, Type (0, 1), BuildingBlock: ZUJKAS_clean_linker_0, # of connection points: 2
#     Edge 16, Type (0, 1), BuildingBlock: ZUJKAS_clean_linker_0, # of connection points: 2
#     Edge 17, Type (0, 1), BuildingBlock: ZUJKAS_clean_linker_0, # of connection points: 2
# Relax obj value: 0.079
# Max RMSD: 0.156
# Mean RMSD: 0.088
data_MOF--net-rtl--node1-VOLQOD_clean_sbu_1--node2-KAKCAD_clean_linker_0--edge1-ZUJKAS_clean_linker_0
_symmetry_space_group_name_H-M    P1
_symmetry_Int_Tables_number       1
_symmetry_cell_setting            triclinic
loop_
_symmetry_equiv_pos_as_xyz
'x, y, z'
_cell_length_a     55.487253
_cell_length_b     48.103139
_cell_length_c     36.049407
_cell_angle_alpha  89.8991
_cell_angle_beta   90.299988
_cell_angle_gamma 90.054412
loop_
_atom_site_label
_atom_site_type_symbol
_atom_site_fract_x
_atom_site_fract_y
_atom_site_fract_z
_atom_type_partial_charge
C0 C 0.08757 0.73441 0.87626 0.0
C1 C 0.07847 0.76164 0.87621 0.0
C2 C 0.09585 0.7223 0.90933 0.0
C3 C 0.09557 0.73744 0.94275 0.0
C4 C 0.08659 0.76481 0.94222 0.0
C5 C 0.07794 0.77661 0.9095 0.0
C6 C 0.10549 0.72562 0.97791 0.0
C7 C 0.12624 0.70886 0.97786 0.0
C8 C 0.1374 0.70097 0.01137 0.0
C9 C 0.12774 0.71012 0.04518 0.0
C10 C 0.10704 0.72681 0.04571 0.0
C11 C 0.09556 0.73346 0.01209 0.0
C12 C 0.09886 0.74003 0.08062 0.0
C13 C 0.09789 0.72513 0.11418 0.0
C14 C 0.09273 0.76837 0.08055 0.0
C15 C 0.08586 0.78156 0.11314 0.0
C16 C 0.08505 0.76685 0.14679 0.0
C17 C 0.16033 0.6852 0.01083 0.0
C18 C 0.16282 0.66154 0.98837 0.0
C19 C 0.18012 0.69426 0.03207 0.0
C20 C 0.20205 0.68013 0.03061 0.0
C21 C 0.20459 0.65651 0.0081 0.0
C22 C 0.18472 0.6472 0.98722 0.0
C23 C 0.09091 0.73841 0.14699 0.0
H24 H 0.08816 0.72251 0.85079 0.0
H25 H 0.10246 0.70114 0.90867 0.0
H26 H 0.0868 0.77758 0.96692 0.0
H27 H 0.07148 0.79786 0.91 0.0
H28 H 0.1346 0.70328 0.95183 0.0
H29 H 0.07918 0.74569 0.01265 0.0
H30 H 0.13686 0.70507 0.07099 0.0
H31 H 0.10246 0.70325 0.11504 0.0
H32 H 0.09367 0.78059 0.05533 0.0
H33 H 0.0811 0.80338 0.11194 0.0
H34 H 0.14781 0.65411 0.97181 0.0
H35 H 0.17879 0.71262 0.04929 0.0
H36 H 0.09053 0.72658 0.17257 0.0
H37 H 0.18625 0.62915 0.96947 0.0
H38 H 0.21701 0.68761 0.04723 0.0
C39 C 0.59152 0.77009 0.63551 0.0
C40 C 0.58486 0.74189 0.63547 0.0
C41 C 0.59924 0.78297 0.60277 0.0
C42 C 0.60061 0.76777 0.56952 0.0
C43 C 0.59446 0.7394 0.56994 0.0
C44 C 0.58655 0.72669 0.60241 0.0
C45 C 0.6085 0.78104 0.53431 0.0
C46 C 0.62788 0.79984 0.53367 0.0
C47 C 0.63659 0.81043 0.49983 0.0
C48 C 0.62575 0.80169 0.4664 0.0
C49 C 0.60654 0.78266 0.46659 0.0
C50 C 0.59757 0.7733 0.50071 0.0
C51 C 0.59702 0.77058 0.43148 0.0
C52 C 0.59387 0.78687 0.39937 0.0
C53 C 0.59153 0.74205 0.42986 0.0
C54 C 0.5828 0.73017 0.39726 0.0
C55 C 0.57955 0.74638 0.36525 0.0
C56 C 0.658 0.82911 0.4994 0.0
C57 C 0.66116 0.84958 0.52685 0.0
C58 C 0.67588 0.82599 0.47219 0.0
C59 C 0.69647 0.84271 0.47262 0.0
C60 C 0.6998 0.86274 0.50047 0.0
C61 C 0.6819 0.86611 0.52748 0.0
C62 C 0.58529 0.77484 0.36647 0.0
H63 H 0.59035 0.78226 0.66069 0.0
H64 H 0.60376 0.80487 0.60336 0.0
H65 H 0.59598 0.72682 0.54518 0.0
H66 H 0.58207 0.70477 0.60177 0.0
H67 H 0.63693 0.80517 0.55939 0.0
H68 H 0.58219 0.75941 0.50105 0.0
H69 H 0.63269 0.8091 0.44016 0.0
H70 H 0.59782 0.80892 0.39974 0.0
H71 H 0.59439 0.72866 0.45366 0.0
H72 H 0.57908 0.70805 0.39691 0.0
H73 H 0.64761 0.85282 0.5479 0.0
H74 H 0.67437 0.81009 0.45109 0.0
H75 H 0.58291 0.78781 0.34214 0.0
H76 H 0.68392 0.88158 0.54908 0.0
H77 H 0.71016 0.83934 0.45179 0.0
C78 C 0.89407 0.23784 0.12932 0.0
C79 C 0.91869 0.23559 0.138 0.0
C80 C 0.88654 0.25295 0.0983 0.0
C81 C 0.9035 0.2658 0.07508 0.0
C82 C 0.92811 0.26397 0.0841 0.0
C83 C 0.93564 0.24919 0.11553 0.0
C84 C 0.89543 0.27949 0.04038 0.0
C85 C 0.8758 0.29781 0.04066 0.0
C86 C 0.86621 0.30839 0.00738 0.0
C87 C 0.87681 0.30075 0.97356 0.0
C88 C 0.89642 0.28225 0.97277 0.0
C89 C 0.90582 0.27206 0.00643 0.0
C90 C 0.90544 0.27107 0.93702 0.0
C91 C 0.88912 0.26313 0.90901 0.0
C92 C 0.93015 0.26606 0.93181 0.0
C93 C 0.93823 0.25229 0.90011 0.0
C94 C 0.92177 0.24325 0.87291 0.0
C95 C 0.84391 0.32543 0.00778 0.0
C96 C 0.82464 0.31785 0.03085 0.0
C97 C 0.84129 0.34863 0.98432 0.0
C98 C 0.81974 0.36372 0.9837 0.0
C99 C 0.80036 0.35579 0.00636 0.0
C100 C 0.80316 0.33286 0.03019 0.0
C101 C 0.8972 0.24944 0.87731 0.0
H102 H 0.88066 0.22767 0.14637 0.0
H103 H 0.86747 0.2538 0.09175 0.0
H104 H 0.94151 0.27375 0.06663 0.0
H105 H 0.95473 0.24762 0.12161 0.0
H106 H 0.86775 0.3035 0.06691 0.0
H107 H 0.92021 0.25685 0.00617 0.0
H108 H 0.86918 0.30833 0.94774 0.0
H109 H 0.86993 0.26637 0.91223 0.0
H110 H 0.94321 0.27219 0.9527 0.0
H111 H 0.95727 0.24773 0.89769 0.0
H112 H 0.82593 0.29987 0.04888 0.0
H113 H 0.85588 0.35507 0.9664 0.0
H114 H 0.88409 0.24315 0.85659 0.0
H115 H 0.78868 0.32644 0.04835 0.0
H116 H 0.81807 0.3812 0.96489 0.0
C117 C 0.3934 0.26713 0.37693 0.0
C118 C 0.41808 0.27238 0.3719 0.0
C119 C 0.38537 0.25273 0.40817 0.0
C120 C 0.40184 0.24339 0.43517 0.0
C121 C 0.42659 0.24802 0.42971 0.0
C122 C 0.43464 0.26228 0.39829 0.0
C123 C 0.39303 0.23031 0.46985 0.0
C124 C 0.37435 0.21063 0.46878 0.0
C125 C 0.3644 0.20006 0.50168 0.0
C126 C 0.37376 0.20899 0.53598 0.0
C127 C 0.39246 0.22871 0.53761 0.0
C128 C 0.40206 0.23909 0.50433 0.0
C129 C 0.40071 0.24028 0.57376 0.0
C130 C 0.38397 0.24672 0.6016 0.0
C131 C 0.42515 0.24665 0.57982 0.0
C132 C 0.43253 0.26015 0.61225 0.0
C133 C 0.41565 0.26746 0.63951 0.0
C134 C 0.34316 0.18124 0.50022 0.0
C135 C 0.3243 0.1865 0.47498 0.0
C136 C 0.34108 0.15862 0.52476 0.0
C137 C 0.32045 0.14188 0.52437 0.0
C138 C 0.3015 0.14738 0.49938 0.0
C139 C 0.30375 0.16976 0.47454 0.0
C140 C 0.39136 0.26005 0.63412 0.0
H141 H 0.38025 0.27444 0.35685 0.0
H142 H 0.36617 0.24972 0.41177 0.0
H143 H 0.43969 0.24089 0.44996 0.0
H144 H 0.45376 0.26617 0.39526 0.0
H145 H 0.36744 0.20368 0.44219 0.0
H146 H 0.4157 0.25521 0.50522 0.0
H147 H 0.36597 0.20121 0.56147 0.0
H148 H 0.36496 0.24239 0.59777 0.0
H149 H 0.43856 0.24166 0.55916 0.0
H150 H 0.45135 0.26571 0.6153 0.0
H151 H 0.32508 0.20408 0.45621 0.0
H152 H 0.35541 0.15384 0.54425 0.0
H153 H 0.37794 0.26496 0.6548 0.0
H154 H 0.2893 0.17489 0.45541 0.0
H155 H 0.31935 0.1246 0.54359 0.0
O156 O 0.94246 0.00572 0.51157 0.0
Zn157 Zn 0.97383 0.02722 0.51123 0.0
O158 O 0.0017 0.00223 0.51083 0.0
Zn159 Zn 0.02221 0.00944 0.55413 0.0
Zn160 Zn 0.9905 0.96369 0.51219 0.0
Zn161 Zn 0.02027 0.00833 0.46559 0.0
O162 O 0.05526 0.02229 0.53886 0.0
O163 O 0.05391 0.02155 0.47735 0.0
O164 O 0.97455 0.05186 0.55632 0.0
O165 O 0.00794 0.03945 0.58623 0.0
O166 O 0.0264 0.97487 0.58531 0.0
O167 O 0.00313 0.94373 0.55716 0.0
O168 O 0.00186 0.94221 0.46768 0.0
O169 O 0.97351 0.052 0.4661 0.0
O170 O 0.02313 0.97316 0.43596 0.0
O171 O 0.00462 0.03723 0.43302 0.0
C172 C 0.93769 0.97982 0.5127 0.0
C173 C 0.06526 0.02608 0.50754 0.0
C174 C 0.01747 0.95051 0.58329 0.0
C175 C 0.9891 0.05445 0.58355 0.0
C176 C 0.01485 0.94865 0.43995 0.0
C177 C 0.98654 0.05319 0.43716 0.0
O178 O 0.95439 0.9617 0.51331 0.0
O179 O 0.56173 0.5061 0.00376 0.0
Zn180 Zn 0.53156 0.52936 0.00259 0.0
O181 O 0.50252 0.50627 0.0023 0.0
Zn182 Zn 0.48362 0.51427 0.95745 0.0
Zn183 Zn 0.51175 0.46703 0.00307 0.0
Zn184 Zn 0.48332 0.51447 0.04629 0.0
O185 O 0.4503 0.52785 0.97043 0.0
O186 O 0.44984 0.52643 0.03199 0.0
O187 O 0.53294 0.55369 0.95739 0.0
O188 O 0.49951 0.54379 0.92606 0.0
O189 O 0.47975 0.47979 0.92622 0.0
O190 O 0.49835 0.4468 0.95863 0.0
O191 O 0.49973 0.44774 0.04908 0.0
O192 O 0.53204 0.55508 0.0464 0.0
O193 O 0.48025 0.48089 0.07932 0.0
O194 O 0.49821 0.54544 0.07638 0.0
C195 C 0.56533 0.47996 0.00331 0.0
C196 C 0.43939 0.53119 0.0011 0.0
C197 C 0.48627 0.45457 0.93031 0.0
C198 C 0.51905 0.55746 0.92964 0.0
C199 C 0.48757 0.45589 0.07686 0.0
C200 C 0.51758 0.55943 0.07306 0.0
O201 O 0.54781 0.46284 0.00264 0.0
H202 H 0.27645 0.12925 0.55996 0.0
H203 H 0.23767 0.10506 0.56073 0.0
H204 H 0.23662 0.10403 0.44112 0.0
H205 H 0.27548 0.1281 0.44008 0.0
H206 H 0.19471 0.12509 0.4725 0.0
H207 H 0.21977 0.02432 0.53722 0.0
H208 H 0.22949 0.05433 0.56283 0.0
H209 H 0.2418 0.04773 0.51767 0.0
C210 C 0.26823 0.12334 0.53383 0.0
C211 C 0.27902 0.13062 0.49995 0.0
C212 C 0.24607 0.10951 0.53432 0.0
C213 C 0.23442 0.1025 0.50098 0.0
C214 C 0.24537 0.10922 0.46715 0.0
H215 H 0.09282 0.03592 0.44607 0.0
H216 H 0.13407 0.05368 0.44403 0.0
C217 C 0.26749 0.12307 0.46662 0.0
C218 C 0.21002 0.09001 0.50132 0.0
H219 H 0.17784 0.03384 0.53129 0.0
C220 C 0.19103 0.10504 0.48508 0.0
C221 C 0.20531 0.06394 0.51797 0.0
C222 C 0.22518 0.04648 0.53464 0.0
C223 C 0.16732 0.09494 0.48565 0.0
C224 C 0.16258 0.06889 0.50234 0.0
C225 C 0.18157 0.05381 0.51851 0.0
C226 C 0.13794 0.05713 0.5036 0.0
C227 C 0.14745 0.11258 0.46924 0.0
C228 C 0.12672 0.05247 0.53781 0.0
C229 C 0.10318 0.04219 0.53914 0.0
C230 C 0.09045 0.03627 0.5062 0.0
C231 C 0.10199 0.04045 0.47197 0.0
C232 C 0.12554 0.0507 0.47071 0.0
H233 H 0.1531 0.13461 0.46592 0.0
H234 H 0.14257 0.10443 0.44142 0.0
H235 H 0.13109 0.1119 0.48686 0.0
H236 H 0.13606 0.05721 0.56351 0.0
H237 H 0.09491 0.03913 0.56598 0.0
H238 H 0.21298 0.60058 0.0125 0.0
H239 H 0.25207 0.57684 0.01178 0.0
H240 H 0.28796 0.65573 0.99769 0.0
H241 H 0.24907 0.67953 -0.00089 0.0
H242 H 0.28708 0.57403 0.95991 0.0
H243 H 0.323 0.62438 0.08668 0.0
H244 H 0.2917 0.62667 0.07327 0.0
H245 H 0.31372 0.64919 0.05229 0.0
C246 C 0.22924 0.6128 0.00915 0.0
C247 C 0.22805 0.64191 0.00627 0.0
C248 C 0.25152 0.59925 0.00882 0.0
C249 C 0.27295 0.61458 0.00549 0.0
C250 C 0.27172 0.64357 0.00141 0.0
H251 H 0.4142 0.55458 0.9435 0.0
H252 H 0.3732 0.57306 0.94455 0.0
C253 C 0.2495 0.65713 0.00211 0.0
C254 C 0.29662 0.60033 0.00602 0.0
H255 H 0.35142 0.60011 0.04937 0.0
C256 C 0.30111 0.57956 0.97963 0.0
C257 C 0.31475 0.60721 0.0322 0.0
C258 C 0.31049 0.62787 0.06295 0.0
C259 C 0.32349 0.566 0.97809 0.0
C260 C 0.34203 0.57397 0.00301 0.0
C261 C 0.3373 0.59423 0.02998 0.0
C262 C 0.36653 0.5617 0.00174 0.0
C263 C 0.32687 0.54304 0.95014 0.0
C264 C 0.37667 0.54978 0.03377 0.0
C265 C 0.40025 0.53967 0.03346 0.0
C266 C 0.41416 0.54118 0.00102 0.0
C267 C 0.40389 0.55287 0.96884 0.0
C268 C 0.38038 0.56327 0.96931 0.0
H269 H 0.30934 0.53373 0.94173 0.0
H270 H 0.33542 0.55171 0.92488 0.0
H271 H 0.33863 0.52632 0.96132 0.0
H272 H 0.36635 0.54845 0.05915 0.0
H273 H 0.40757 0.53072 0.05869 0.0
H274 H 0.7225 0.88951 0.44356 0.0
H275 H 0.76151 0.91336 0.44547 0.0
H276 H 0.76738 0.8962 0.56266 0.0
H277 H 0.72819 0.87279 0.56104 0.0
H278 H 0.78258 0.9487 0.5456 0.0
H279 H 0.82471 0.87161 0.45173 0.0
H280 H 0.79887 0.88863 0.43202 0.0
H281 H 0.79535 0.86638 0.47179 0.0
C282 C 0.73211 0.89093 0.46973 0.0
C283 C 0.72244 0.87911 0.50209 0.0
C284 C 0.75439 0.90447 0.47077 0.0
C285 C 0.76757 0.90602 0.50405 0.0
C286 C 0.75754 0.89515 0.53666 0.0
H287 H 0.92083 0.92763 0.52725 0.0
H288 H 0.87915 0.91154 0.52618 0.0
C289 C 0.73515 0.88184 0.53572 0.0
C290 C 0.79216 0.9181 0.50475 0.0
H291 H 0.84847 0.91044 0.46856 0.0
C292 C 0.79702 0.94039 0.52876 0.0
C293 C 0.81103 0.90692 0.48313 0.0
C294 C 0.80736 0.8819 0.45848 0.0
C295 C 0.82025 0.95183 0.53172 0.0
C296 C 0.83897 0.94105 0.50945 0.0
C297 C 0.83406 0.91882 0.4854 0.0
C298 C 0.86406 0.9516 0.51163 0.0
C299 C 0.82467 0.97476 0.55946 0.0
C300 C 0.86946 0.97952 0.5038 0.0
C301 C 0.89335 0.98889 0.50473 0.0
C302 C 0.91227 0.97038 0.51294 0.0
C303 C 0.90674 0.94244 0.52071 0.0
C304 C 0.8829 0.93319 0.52011 0.0
H305 H 0.81037 0.97546 0.5809 0.0
H306 H 0.84238 0.97214 0.57351 0.0
H307 H 0.82472 0.99506 0.5448 0.0
H308 H 0.85528 0.99396 0.49634 0.0
H309 H 0.897 0.01049 0.49832 0.0
H310 H 0.75514 0.33349 0.00564 0.0
H311 H 0.71665 0.35807 0.00516 0.0
H312 H 0.75414 0.43662 0.00285 0.0
H313 H 0.79288 0.41212 0.00355 0.0
H314 H 0.7006 0.39671 0.05823 0.0
H315 H 0.70506 0.44318 0.91697 0.0
H316 H 0.72442 0.41499 0.9315 0.0
H317 H 0.73049 0.44982 0.94678 0.0
C318 C 0.75523 0.356 0.00517 0.0
C319 C 0.77706 0.37088 0.00478 0.0
C320 C 0.73323 0.36999 0.00471 0.0
C321 C 0.73258 0.39912 0.00364 0.0
C322 C 0.75428 0.41411 0.00302 0.0
H323 H 0.6075 0.50977 0.00272 0.0
H324 H 0.6487 0.4916 0.00425 0.0
C325 C 0.77637 0.4001 0.00343 0.0
C326 C 0.70906 0.41356 0.00447 0.0
H327 H 0.6712 0.45456 0.95331 0.0
C328 C 0.69418 0.40942 0.03535 0.0
C329 C 0.70086 0.43025 0.97465 0.0
C330 C 0.7159 0.43475 0.94041 0.0
C331 C 0.67117 0.42132 0.03708 0.0
C332 C 0.6627 0.43739 0.00685 0.0
C333 C 0.67779 0.44215 0.97637 0.0
C334 C 0.63783 0.44843 0.00576 0.0
C335 C 0.65613 0.41666 0.0713 0.0
C336 C 0.61816 0.43011 0.00555 0.0
C337 C 0.59464 0.44036 0.00466 0.0
C338 C 0.59034 0.46918 0.00381 0.0
C339 C 0.61015 0.48748 0.00352 0.0
C340 C 0.6337 0.47716 0.00435 0.0
H341 H 0.66742 0.41058 0.09553 0.0
H342 H 0.64579 0.43563 0.07852 0.0
H343 H 0.64309 0.39961 0.06593 0.0
H344 H 0.621 0.40784 0.00592 0.0
H345 H 0.57985 0.42565 0.0047 0.0
H346 H 0.05451 0.74912 0.20168 0.0
H347 H 0.04048 0.77595 0.25537 0.0
H348 H 0.08583 0.84451 0.22286 0.0
H349 H 0.10018 0.81788 0.1698 0.0
H350 H 0.06949 0.80552 0.31528 0.0
H351 H 0.0141 0.87452 0.22529 0.0
H352 H 0.02424 0.84061 0.21059 0.0
H353 H 0.04466 0.8696 0.21034 0.0
C354 C 0.06176 0.76973 0.20638 0.0
C355 C 0.07818 0.78157 0.18126 0.0
C356 C 0.05367 0.78502 0.23689 0.0
C357 C 0.06187 0.81229 0.24254 0.0
C358 C 0.07903 0.82363 0.2185 0.0
H359 H 0.0429 0.95452 0.37834 0.0
H360 H 0.05282 0.91922 0.33241 0.0
C361 C 0.08713 0.80843 0.18818 0.0
C362 C 0.05202 0.82961 0.27262 0.0
H363 H 0.02051 0.88936 0.28742 0.0
C364 C 0.05849 0.82365 0.30942 0.0
C365 C 0.03767 0.85314 0.26463 0.0
C366 C 0.02954 0.85982 0.22561 0.0
C367 C 0.05193 0.84154 0.33844 0.0
C368 C 0.03826 0.86562 0.33024 0.0
C369 C 0.03109 0.87094 0.29355 0.0
C370 C 0.03233 0.8865 0.35884 0.0
C371 C 0.06055 0.83523 0.37731 0.0
C372 C 0.01734 0.87981 0.38876 0.0
C373 C 0.01162 0.89997 0.41519 0.0
C374 C 0.0207 0.92721 0.41197 0.0
C375 C 0.03559 0.93379 0.38174 0.0
C376 C 0.04129 0.91365 0.35543 0.0
H377 H 0.07484 0.81907 0.37771 0.0
H378 H 0.06766 0.8543 0.39084 0.0
H379 H 0.04518 0.82754 0.39402 0.0
H380 H 0.00988 0.8591 0.39148 0.0
H381 H 3e-05 0.89422 0.43803 0.0
H382 H 0.54562 0.70841 0.64296 0.0
H383 H 0.53393 0.68124 0.69737 0.0
H384 H 0.59331 0.71621 0.75932 0.0
H385 H 0.60526 0.7434 0.70468 0.0
H386 H 0.59028 0.65623 0.75846 0.0
H387 H 0.50351 0.70534 0.79724 0.0
H388 H 0.50629 0.69707 0.74885 0.0
H389 H 0.52578 0.72279 0.76914 0.0
C390 C 0.55603 0.71052 0.66831 0.0
C391 C 0.57639 0.72791 0.66963 0.0
C392 C 0.54922 0.69518 0.69941 0.0
C393 C 0.56263 0.69696 0.73239 0.0
C394 C 0.58265 0.71477 0.73413 0.0
H395 H 0.55721 0.59349 0.93122 0.0
H396 H 0.56808 0.62824 0.88481 0.0
C397 C 0.58938 0.73034 0.70304 0.0
C398 C 0.55681 0.67841 0.76382 0.0
H399 H 0.51212 0.66122 0.82435 0.0
C400 C 0.57333 0.65748 0.77325 0.0
C401 C 0.5346 0.68003 0.78267 0.0
C402 C 0.51656 0.70265 0.77426 0.0
C403 C 0.5679 0.63749 0.80032 0.0
C404 C 0.54556 0.63891 0.81896 0.0
C405 C 0.5292 0.66016 0.80994 0.0
C406 C 0.53867 0.61826 0.8475 0.0
C407 C 0.58574 0.61443 0.8077 0.0
C408 C 0.51813 0.60164 0.84237 0.0
C409 C 0.51171 0.58186 0.869 0.0
C410 C 0.52572 0.5784 0.90131 0.0
C411 C 0.54613 0.59538 0.90652 0.0
C412 C 0.55246 0.61521 0.87995 0.0
H413 H 0.59886 0.61222 0.78471 0.0
H414 H 0.59602 0.61917 0.8334 0.0
H415 H 0.57638 0.59423 0.81166 0.0
H416 H 0.50719 0.60378 0.81754 0.0
H417 H 0.49585 0.56922 0.86415 0.0
H418 H 0.94947 0.24938 0.1945 0.0
H419 H 0.9618 0.22011 0.24706 0.0
H420 H 0.91862 0.15274 0.20385 0.0
H421 H 0.90562 0.18224 0.15224 0.0
H422 H 0.91185 0.15784 0.27536 0.0
H423 H 0.01015 0.15855 0.24877 0.0
H424 H 0.99795 0.19274 0.25483 0.0
H425 H 0.98856 0.17202 0.2158 0.0
C426 C 0.94276 0.22826 0.19627 0.0
C427 C 0.92661 0.21801 0.16946 0.0
C428 C 0.94991 0.21151 0.22612 0.0
C429 C 0.94148 0.18404 0.22907 0.0
C430 C 0.92538 0.17384 0.20217 0.0
H431 H 0.00081 0.05227 0.36478 0.0
H432 H 0.98954 0.08463 0.31536 0.0
C433 C 0.91794 0.19069 0.17274 0.0
C434 C 0.94876 0.16599 0.26062 0.0
H435 H 0.99747 0.1383 0.30555 0.0
C436 C 0.93058 0.15351 0.2819 0.0
C437 C 0.9732 0.16007 0.26886 0.0
C438 C 0.99358 0.17131 0.24564 0.0
C439 C 0.9361 0.13519 0.31103 0.0
C440 C 0.96055 0.12999 0.32006 0.0
C441 C 0.97874 0.14252 0.29886 0.0
C442 C 0.96764 0.1108 0.35048 0.0
C443 C 0.91563 0.12093 0.33092 0.0
C444 C 0.95938 0.11496 0.3868 0.0
C445 C 0.96545 0.0962 0.41497 0.0
C446 C 0.98039 0.07331 0.40753 0.0
C447 C 0.98927 0.06969 0.37141 0.0
C448 C 0.98286 0.0882 0.34314 0.0
H449 H 0.89892 0.12069 0.3138 0.0
H450 H 0.92034 0.09916 0.33824 0.0
H451 H 0.91163 0.13236 0.35687 0.0
H452 H 0.94822 0.1327 0.3934 0.0
H453 H 0.95861 0.09977 0.44265 0.0
H454 H 0.39125 0.3103 0.67208 0.0
H455 H 0.40431 0.33925 0.72399 0.0
H456 H 0.47025 0.29233 0.73258 0.0
H457 H 0.45709 0.26263 0.68116 0.0
H458 H 0.41954 0.32198 0.79952 0.0
H459 H 0.49034 0.37636 0.71783 0.0
H460 H 0.46584 0.35762 0.69611 0.0
H461 H 0.49047 0.33895 0.71677 0.0
C462 C 0.40834 0.30572 0.68538 0.0
C463 C 0.42312 0.2841 0.67237 0.0
C464 C 0.41582 0.32243 0.7149 0.0
C465 C 0.4383 0.31804 0.73177 0.0
C466 C 0.45295 0.29621 0.71952 0.0
H467 H 0.49234 0.39807 0.93289 0.0
H468 H 0.48104 0.36401 0.88551 0.0
C469 C 0.44543 0.27935 0.69007 0.0
C470 C 0.44653 0.33684 0.76166 0.0
H471 H 0.48642 0.38903 0.78066 0.0
C472 C 0.43425 0.33654 0.79558 0.0
C473 C 0.46555 0.35593 0.75609 0.0
C474 C 0.4788 0.35753 0.7197 0.0
C475 C 0.44055 0.35494 0.82421 0.0
C476 C 0.45961 0.37398 0.81867 0.0
C477 C 0.4719 0.37426 0.78477 0.0
C478 C 0.46653 0.39448 0.84732 0.0
C479 C 0.42644 0.35441 0.85987 0.0
C480 C 0.46237 0.42286 0.84119 0.0
C481 C 0.46872 0.44238 0.86816 0.0
C482 C 0.4796 0.43387 0.90165 0.0
C483 C 0.48397 0.40536 0.90747 0.0
C484 C 0.47746 0.38584 0.88052 0.0
H485 H 0.40973 0.34179 0.85738 0.0
H486 H 0.43778 0.34532 0.88223 0.0
H487 H 0.42151 0.37584 0.86833 0.0
H488 H 0.45401 0.42987 0.81561 0.0
H489 H 0.46517 0.46414 0.86269 0.0
H490 H 0.54196 0.71037 0.35747 0.0
H491 H 0.53088 0.68353 0.30237 0.0
H492 H 0.58623 0.72532 0.23985 0.0
H493 H 0.59767 0.75205 0.29517 0.0
H494 H 0.51744 0.70094 0.22707 0.0
H495 H 0.60288 0.64046 0.23529 0.0
H496 H 0.59193 0.66088 0.27363 0.0
H497 H 0.60555 0.67773 0.23453 0.0
C498 C 0.55165 0.71398 0.3319 0.0
C499 C 0.57085 0.73305 0.33066 0.0
C500 C 0.54523 0.69876 0.30046 0.0
C501 C 0.55797 0.70223 0.26731 0.0
C502 C 0.57638 0.72219 0.26539 0.0
H503 H 0.55449 0.59714 0.07065 0.0
H504 H 0.56367 0.63385 0.11528 0.0
C505 C 0.58277 0.73756 0.29686 0.0
C506 C 0.55279 0.68364 0.23566 0.0
H507 H 0.57556 0.62847 0.18799 0.0
C508 C 0.53017 0.68521 0.21825 0.0
C509 C 0.56949 0.66318 0.2244 0.0
C510 C 0.59379 0.66018 0.24298 0.0
C511 C 0.52373 0.66668 0.18983 0.0
C512 C 0.54017 0.64568 0.17928 0.0
C513 C 0.56299 0.64456 0.19618 0.0
C514 C 0.53389 0.62412 0.15158 0.0
C515 C 0.49947 0.6699 0.17124 0.0
C516 C 0.51425 0.60625 0.15742 0.0
C517 C 0.50888 0.58528 0.1319 0.0
C518 C 0.52325 0.58157 0.10027 0.0
C519 C 0.54305 0.59937 0.09471 0.0
C520 C 0.54832 0.62041 0.12014 0.0
H521 H 0.4924 0.69138 0.17425 0.0
H522 H 0.50043 0.6648 0.14125 0.0
H523 H 0.48641 0.65552 0.18445 0.0
H524 H 0.50326 0.60826 0.18201 0.0
H525 H 0.4936 0.57184 0.13717 0.0
H526 H 0.89962 0.19731 0.84424 0.0
H527 H 0.91361 0.16734 0.79428 0.0
H528 H 0.97673 0.2187 0.78117 0.0
H529 H 0.96245 0.24948 0.83055 0.0
H530 H 0.95451 0.20346 0.71359 0.0
H531 H 0.96954 0.11208 0.80474 0.0
H532 H 0.93978 0.1264 0.80829 0.0
H533 H 0.96536 0.14675 0.82269 0.0
C534 C 0.91631 0.20253 0.83042 0.0
C535 C 0.92993 0.22581 0.84141 0.0
C536 C 0.92442 0.18515 0.80218 0.0
C537 C 0.9464 0.19053 0.78455 0.0
C538 C 0.95981 0.21408 0.79473 0.0
H539 H 0.01679 0.06771 0.64417 0.0
H540 H 0.00821 0.10225 0.69197 0.0
C541 C 0.9517 0.23153 0.82304 0.0
C542 C 0.95523 0.17148 0.75545 0.0
H543 H 0.9699 0.10368 0.73956 0.0
C544 C 0.95808 0.18169 0.71926 0.0
C545 C 0.96024 0.14322 0.7631 0.0
C546 C 0.95882 0.13147 0.80188 0.0
C547 C 0.965 0.16409 0.69017 0.0
C548 C 0.96877 0.13551 0.69749 0.0
C549 C 0.96674 0.12554 0.73394 0.0
C550 C 0.97435 0.1154 0.66767 0.0
C551 C 0.96829 0.17628 0.65194 0.0
C552 C 0.95802 0.11115 0.63838 0.0
C553 C 0.96286 0.09146 0.61099 0.0
C554 C 0.98404 0.07544 0.61253 0.0
C555 C 0.00031 0.07967 0.64208 0.0
C556 C 0.99546 0.09942 0.66942 0.0
H557 H 0.97165 0.19904 0.65311 0.0
H558 H 0.98351 0.16622 0.63729 0.0
H559 H 0.95163 0.17285 0.63541 0.0
H560 H 0.94134 0.12279 0.63699 0.0
H561 H 0.94986 0.08867 0.58878 0.0
H562 H 0.39871 0.32092 0.34662 0.0
H563 H 0.41279 0.34992 0.29528 0.0
H564 H 0.47044 0.29207 0.27461 0.0
H565 H 0.45636 0.26271 0.32594 0.0
H566 H 0.46447 0.37177 0.28932 0.0
H567 H 0.43257 0.30587 0.17184 0.0
H568 H 0.41889 0.3042 0.21719 0.0
H569 H 0.44811 0.28939 0.20999 0.0
C570 C 0.41421 0.31418 0.33087 0.0
C571 C 0.42637 0.28947 0.34015 0.0
C572 C 0.42229 0.33084 0.30175 0.0
C573 C 0.44251 0.32298 0.28117 0.0
C574 C 0.45468 0.29831 0.29013 0.0
H575 H 0.50449 0.40278 0.08594 0.0
H576 H 0.49525 0.37025 0.13616 0.0
C577 C 0.44671 0.28169 0.3195 0.0
C578 C 0.45113 0.34113 0.25095 0.0
H579 H 0.45228 0.34769 0.15675 0.0
C580 C 0.46193 0.36653 0.2603 0.0
C581 C 0.44792 0.33398 0.21328 0.0
C582 C 0.43616 0.30695 0.20216 0.0
C583 C 0.46952 0.3852 0.2328 0.0
C584 C 0.46554 0.37854 0.19502 0.0
C585 C 0.45521 0.3528 0.18571 0.0
C586 C 0.47131 0.39836 0.16481 0.0
C587 C 0.48195 0.41171 0.24452 0.0
C588 C 0.46064 0.42479 0.16399 0.0
C589 C 0.46599 0.44348 0.13552 0.0
C590 C 0.48187 0.43597 0.10697 0.0
C591 C 0.49221 0.40927 0.10752 0.0
C592 C 0.48696 0.39064 0.13618 0.0
H593 H 0.49023 0.40966 0.27252 0.0
H594 H 0.4962 0.41773 0.22453 0.0
H595 H 0.4685 0.42873 0.24572 0.0
H596 H 0.44801 0.43091 0.18526 0.0
H597 H 0.4575 0.46375 0.13579 0.0
H598 H 0.10345 0.76694 0.81164 0.0
H599 H 0.09303 0.79672 0.75857 0.0
H600 H 0.02517 0.8168 0.80986 0.0
H601 H 0.03583 0.78775 0.86329 0.0
H602 H 0.05624 0.79956 0.70786 0.0
H603 H 0.05596 0.8926 0.79831 0.0
H604 H 0.06698 0.85929 0.81391 0.0
H605 H 0.03513 0.8664 0.81327 0.0
C606 C 0.08614 0.77735 0.81116 0.0
C607 C 0.07052 0.77538 0.84158 0.0
C608 C 0.08025 0.79439 0.78098 0.0
C609 C 0.05862 0.80953 0.7808 0.0
C610 C 0.04226 0.80594 0.80998 0.0
H611 H 0.99535 0.90077 0.59695 0.0
H612 H 0.00617 0.86614 0.64373 0.0
C613 C 0.04827 0.78924 0.8403 0.0
C614 C 0.05367 0.83015 0.75118 0.0
H615 H 0.04109 0.89878 0.73694 0.0
C616 C 0.05302 0.82128 0.71413 0.0
C617 C 0.05003 0.85861 0.75939 0.0
C618 C 0.0523 0.86988 0.79832 0.0
C619 C 0.04822 0.84002 0.68509 0.0
C620 C 0.04337 0.8682 0.69353 0.0
C621 C 0.04454 0.87712 0.73052 0.0
C622 C 0.03706 0.88891 0.66458 0.0
C623 C 0.04887 0.82951 0.6457 0.0
C624 C 0.0503 0.9137 0.66157 0.0
C625 C 0.04386 0.93382 0.63536 0.0
C626 C 0.0241 0.92946 0.61151 0.0
C627 C 0.01082 0.90465 0.61466 0.0
C628 C 0.01711 0.8847 0.64118 0.0
H629 H 0.05998 0.8104 0.64335 0.0
H630 H 0.03028 0.82424 0.63659 0.0
H631 H 0.05619 0.84548 0.62654 0.0
H632 H 0.06568 0.91747 0.67953 0.0
H633 H 0.0545 0.95266 0.63359 0.0
loop_
_geom_bond_atom_site_label_1
_geom_bond_atom_site_label_2
_geom_bond_distance
_geom_bond_site_symmetry_2
_ccdc_geom_bond_type
C0 C1 1.386 . S
C0 C2 1.397 . S
C0 H24 0.931 . S
C1 C0 1.386 . S
C1 C5 1.397 . S
C2 C0 1.397 . S
C2 C3 1.384 . S
C2 H25 0.930 . S
C3 C2 1.384 . S
C3 C4 1.377 . S
C3 C6 1.481 . S
C4 C3 1.377 . S
C4 C5 1.389 . S
C4 H26 0.929 . S
C5 C1 1.397 . S
C5 C4 1.389 . S
C5 H27 0.931 . S
C6 C3 1.481 . S
C6 C7 1.387 . S
C6 C11 1.390 1_556 S
C7 C6 1.387 . S
C7 C8 1.401 1_556 S
C7 H28 0.930 . S
C8 C7 1.401 1_554 S
C8 C9 1.376 . S
C8 C17 1.511 . S
C9 C8 1.376 . S
C9 C10 1.392 . S
C9 H30 0.931 . S
C10 C9 1.392 . S
C10 C11 1.361 . S
C10 C12 1.500 . S
C11 C6 1.390 1_554 S
C11 C10 1.361 . S
C11 H29 0.931 . S
C12 C10 1.500 . S
C12 C13 1.371 . S
C12 C14 1.365 . S
C13 C12 1.371 . S
C13 C23 1.386 . S
C13 H31 0.931 . S
C14 C12 1.365 . S
C14 C15 1.409 . S
C14 H32 0.929 . S
C15 C14 1.409 . S
C15 C16 1.380 . S
C15 H33 0.930 . S
C16 C15 1.380 . S
C16 C23 1.357 . S
C17 C8 1.511 . S
C17 C18 1.341 1_554 S
C17 C19 1.371 . S
C18 C17 1.341 1_556 S
C18 C22 1.394 . S
C18 H34 0.930 . S
C19 C17 1.371 . S
C19 C20 1.392 . S
C19 H35 0.931 . S
C20 C19 1.392 . S
C20 C21 1.331 . S
C20 H38 0.932 . S
C21 C20 1.331 . S
C21 C22 1.336 1_554 S
C22 C18 1.394 . S
C22 C21 1.336 1_556 S
C22 H37 0.929 . S
C23 C13 1.386 . S
C23 C16 1.357 . S
C23 H36 0.928 . S
H24 C0 0.931 . S
H25 C2 0.930 . S
H26 C4 0.929 . S
H27 C5 0.931 . S
H28 C7 0.930 . S
H29 C11 0.931 . S
H30 C9 0.931 . S
H31 C13 0.931 . S
H32 C14 0.929 . S
H33 C15 0.930 . S
H34 C18 0.930 . S
H35 C19 0.931 . S
H36 C23 0.928 . S
H37 C22 0.929 . S
H38 C20 0.932 . S
C39 C40 1.386 . S
C39 C41 1.397 . S
C39 H63 0.931 . S
C40 C39 1.386 . S
C40 C44 1.397 . S
C41 C39 1.397 . S
C41 C42 1.384 . S
C41 H64 0.930 . S
C42 C41 1.384 . S
C42 C43 1.377 . S
C42 C45 1.481 . S
C43 C42 1.377 . S
C43 C44 1.389 . S
C43 H65 0.929 . S
C44 C40 1.397 . S
C44 C43 1.389 . S
C44 H66 0.931 . S
C45 C42 1.481 . S
C45 C46 1.387 . S
C45 C50 1.390 . S
C46 C45 1.387 . S
C46 C47 1.401 . S
C46 H67 0.930 . S
C47 C46 1.401 . S
C47 C48 1.376 . S
C47 C56 1.511 . S
C48 C47 1.376 . S
C48 C49 1.392 . S
C48 H69 0.931 . S
C49 C48 1.392 . S
C49 C50 1.361 . S
C49 C51 1.500 . S
C50 C45 1.390 . S
C50 C49 1.361 . S
C50 H68 0.931 . S
C51 C49 1.500 . S
C51 C52 1.371 . S
C51 C53 1.365 . S
C52 C51 1.371 . S
C52 C62 1.386 . S
C52 H70 0.931 . S
C53 C51 1.365 . S
C53 C54 1.409 . S
C53 H71 0.929 . S
C54 C53 1.409 . S
C54 C55 1.380 . S
C54 H72 0.930 . S
C55 C54 1.380 . S
C55 C62 1.357 . S
C56 C47 1.511 . S
C56 C57 1.341 . S
C56 C58 1.371 . S
C57 C56 1.341 . S
C57 C61 1.394 . S
C57 H73 0.930 . S
C58 C56 1.371 . S
C58 C59 1.392 . S
C58 H74 0.931 . S
C59 C58 1.392 . S
C59 C60 1.331 . S
C59 H77 0.932 . S
C60 C59 1.331 . S
C60 C61 1.336 . S
C61 C57 1.394 . S
C61 C60 1.336 . S
C61 H76 0.929 . S
C62 C52 1.386 . S
C62 C55 1.357 . S
C62 H75 0.928 . S
H63 C39 0.931 . S
H64 C41 0.930 . S
H65 C43 0.929 . S
H66 C44 0.931 . S
H67 C46 0.930 . S
H68 C50 0.931 . S
H69 C48 0.931 . S
H70 C52 0.931 . S
H71 C53 0.929 . S
H72 C54 0.930 . S
H73 C57 0.930 . S
H74 C58 0.931 . S
H75 C62 0.928 . S
H76 C61 0.929 . S
H77 C59 0.932 . S
C78 C79 1.386 . S
C78 C80 1.397 . S
C78 H102 0.931 . S
C79 C78 1.386 . S
C79 C83 1.397 . S
C80 C78 1.397 . S
C80 C81 1.384 . S
C80 H103 0.930 . S
C81 C80 1.384 . S
C81 C82 1.377 . S
C81 C84 1.481 . S
C82 C81 1.377 . S
C82 C83 1.389 . S
C82 H104 0.929 . S
C83 C79 1.397 . S
C83 C82 1.389 . S
C83 H105 0.931 . S
C84 C81 1.481 . S
C84 C85 1.387 . S
C84 C89 1.390 . S
C85 C84 1.387 . S
C85 C86 1.401 . S
C85 H106 0.930 . S
C86 C85 1.401 . S
C86 C87 1.376 1_554 S
C86 C95 1.511 . S
C87 C86 1.376 1_556 S
C87 C88 1.392 . S
C87 H108 0.931 . S
C88 C87 1.392 . S
C88 C89 1.361 1_556 S
C88 C90 1.500 . S
C89 C84 1.390 . S
C89 C88 1.361 1_554 S
C89 H107 0.931 . S
C90 C88 1.500 . S
C90 C91 1.371 . S
C90 C92 1.365 . S
C91 C90 1.371 . S
C91 C101 1.386 . S
C91 H109 0.931 . S
C92 C90 1.365 . S
C92 C93 1.409 . S
C92 H110 0.929 . S
C93 C92 1.409 . S
C93 C94 1.380 . S
C93 H111 0.930 . S
C94 C93 1.380 . S
C94 C101 1.357 . S
C95 C86 1.511 . S
C95 C96 1.341 . S
C95 C97 1.371 1_554 S
C96 C95 1.341 . S
C96 C100 1.394 . S
C96 H112 0.930 . S
C97 C95 1.371 1_556 S
C97 C98 1.392 . S
C97 H113 0.931 . S
C98 C97 1.392 . S
C98 C99 1.331 1_556 S
C98 H116 0.932 . S
C99 C98 1.331 1_554 S
C99 C100 1.336 . S
C100 C96 1.394 . S
C100 C99 1.336 . S
C100 H115 0.929 . S
C101 C91 1.386 . S
C101 C94 1.357 . S
C101 H114 0.928 . S
H102 C78 0.931 . S
H103 C80 0.930 . S
H104 C82 0.929 . S
H105 C83 0.931 . S
H106 C85 0.930 . S
H107 C89 0.931 . S
H108 C87 0.931 . S
H109 C91 0.931 . S
H110 C92 0.929 . S
H111 C93 0.930 . S
H112 C96 0.930 . S
H113 C97 0.931 . S
H114 C101 0.928 . S
H115 C100 0.929 . S
H116 C98 0.932 . S
C117 C118 1.386 . S
C117 C119 1.397 . S
C117 H141 0.931 . S
C118 C117 1.386 . S
C118 C122 1.397 . S
C119 C117 1.397 . S
C119 C120 1.384 . S
C119 H142 0.930 . S
C120 C119 1.384 . S
C120 C121 1.377 . S
C120 C123 1.481 . S
C121 C120 1.377 . S
C121 C122 1.389 . S
C121 H143 0.929 . S
C122 C118 1.397 . S
C122 C121 1.389 . S
C122 H144 0.931 . S
C123 C120 1.481 . S
C123 C124 1.387 . S
C123 C128 1.390 . S
C124 C123 1.387 . S
C124 C125 1.401 . S
C124 H145 0.930 . S
C125 C124 1.401 . S
C125 C126 1.376 . S
C125 C134 1.511 . S
C126 C125 1.376 . S
C126 C127 1.392 . S
C126 H147 0.931 . S
C127 C126 1.392 . S
C127 C128 1.361 . S
C127 C129 1.500 . S
C128 C123 1.390 . S
C128 C127 1.361 . S
C128 H146 0.931 . S
C129 C127 1.500 . S
C129 C130 1.371 . S
C129 C131 1.365 . S
C130 C129 1.371 . S
C130 C140 1.386 . S
C130 H148 0.931 . S
C131 C129 1.365 . S
C131 C132 1.409 . S
C131 H149 0.929 . S
C132 C131 1.409 . S
C132 C133 1.380 . S
C132 H150 0.930 . S
C133 C132 1.380 . S
C133 C140 1.357 . S
C134 C125 1.511 . S
C134 C135 1.341 . S
C134 C136 1.371 . S
C135 C134 1.341 . S
C135 C139 1.394 . S
C135 H151 0.930 . S
C136 C134 1.371 . S
C136 C137 1.392 . S
C136 H152 0.931 . S
C137 C136 1.392 . S
C137 C138 1.331 . S
C137 H155 0.932 . S
C138 C137 1.331 . S
C138 C139 1.336 . S
C139 C135 1.394 . S
C139 C138 1.336 . S
C139 H154 0.929 . S
C140 C130 1.386 . S
C140 C133 1.357 . S
C140 H153 0.928 . S
H141 C117 0.931 . S
H142 C119 0.930 . S
H143 C121 0.929 . S
H144 C122 0.931 . S
H145 C124 0.930 . S
H146 C128 0.931 . S
H147 C126 0.931 . S
H148 C130 0.931 . S
H149 C131 0.929 . S
H150 C132 0.930 . S
H151 C135 0.930 . S
H152 C136 0.931 . S
H153 C140 0.928 . S
H154 C139 0.929 . S
H155 C137 0.932 . S
O156 Zn157 1.953 1_565 S
O156 C172 1.225 . S
Zn157 O156 1.953 1_545 S
Zn157 O158 1.949 1_655 S
Zn157 O164 1.919 . S
Zn157 O169 1.924 . S
O158 Zn157 1.949 1_455 S
O158 Zn159 1.923 . S
O158 Zn160 1.950 1_445 S
O158 Zn161 1.945 . S
Zn159 O158 1.923 . S
Zn159 O162 1.933 . S
Zn159 O165 1.941 . S
Zn159 O166 1.965 1_545 S
Zn160 O158 1.950 1_665 S
Zn160 O167 1.938 1_655 S
Zn160 O168 1.906 1_655 S
Zn160 O178 1.953 . S
Zn161 O158 1.945 . S
Zn161 O163 1.932 . S
Zn161 O170 1.977 1_545 S
Zn161 O171 1.910 1_455 S
O162 Zn159 1.933 . S
O162 C173 1.226 . S
O163 Zn161 1.932 . S
O163 C173 1.307 . S
O164 Zn157 1.919 . S
O164 C175 1.253 . S
O165 Zn159 1.941 . S
O165 C175 1.283 1_455 S
O166 Zn159 1.965 1_565 S
O166 C174 1.303 . S
O167 Zn160 1.938 1_455 S
O167 C174 1.247 . S
O168 Zn160 1.906 1_455 S
O168 C176 1.304 . S
O169 Zn157 1.924 . S
O169 C177 1.311 . S
O170 Zn161 1.977 1_565 S
O170 C176 1.272 . S
O171 Zn161 1.910 1_655 S
O171 C177 1.231 . S
C172 O156 1.225 . S
C172 O178 1.298 . S
C173 O162 1.226 . S
C173 O163 1.307 . S
C174 O166 1.303 . S
C174 O167 1.247 . S
C175 O164 1.253 . S
C175 O165 1.283 1_655 S
C176 O168 1.304 . S
C176 O170 1.272 . S
C177 O169 1.311 . S
C177 O171 1.231 . S
O178 Zn160 1.953 . S
O178 C172 1.298 . S
O179 Zn180 1.953 1_556 S
O179 C195 1.225 1_556 S
Zn180 O179 1.953 1_554 S
Zn180 O181 1.948 . S
Zn180 O187 1.920 1_554 S
Zn180 O192 1.923 . S
O181 Zn180 1.948 . S
O181 Zn182 1.923 1_554 S
O181 Zn183 1.950 . S
O181 Zn184 1.945 . S
Zn182 O181 1.923 1_556 S
Zn182 O185 1.933 . S
Zn182 O188 1.941 . S
Zn182 O189 1.965 . S
Zn183 O181 1.950 . S
Zn183 O190 1.938 1_554 S
Zn183 O191 1.906 . S
Zn183 O201 1.953 . S
Zn184 O181 1.945 . S
Zn184 O186 1.932 . S
Zn184 O193 1.977 . S
Zn184 O194 1.910 . S
O185 Zn182 1.933 . S
O185 C196 1.226 1_556 S
O186 Zn184 1.932 . S
O186 C196 1.307 . S
O187 Zn180 1.920 1_556 S
O187 C198 1.253 . S
O188 Zn182 1.941 . S
O188 C198 1.283 . S
O189 Zn182 1.965 . S
O189 C197 1.303 . S
O190 Zn183 1.938 1_556 S
O190 C197 1.247 . S
O191 Zn183 1.906 . S
O191 C199 1.304 . S
O192 Zn180 1.923 . S
O192 C200 1.311 . S
O193 Zn184 1.977 . S
O193 C199 1.272 . S
O194 Zn184 1.910 . S
O194 C200 1.231 . S
C195 O179 1.225 1_554 S
C195 O201 1.298 . S
C196 O185 1.226 1_554 S
C196 O186 1.307 . S
C197 O189 1.303 . S
C197 O190 1.247 . S
C198 O187 1.253 . S
C198 O188 1.283 . S
C199 O191 1.304 . S
C199 O193 1.272 . S
C200 O192 1.311 . S
C200 O194 1.231 . S
O201 Zn183 1.953 . S
O201 C195 1.298 . S
H202 C210 0.929 . S
H203 C212 0.930 . S
H204 C214 0.930 . S
H205 C217 0.929 . S
H206 C220 0.930 . S
H207 C222 0.960 . S
H208 C222 0.960 . S
H209 C222 0.960 . S
C210 H202 0.929 . S
C210 C211 1.377 . S
C210 C212 1.384 . S
C211 C210 1.377 . S
C211 C217 1.390 . S
C212 H203 0.930 . S
C212 C210 1.384 . S
C212 C213 1.372 . S
C213 C212 1.372 . S
C213 C214 1.400 . S
C213 C218 1.490 . S
C214 H204 0.930 . S
C214 C213 1.400 . S
C214 C217 1.386 . S
H215 C231 0.930 . S
H216 C232 0.931 . S
C217 H205 0.929 . S
C217 C211 1.390 . S
C217 C214 1.386 . S
C218 C213 1.490 . S
C218 C220 1.395 . S
C218 C221 1.403 . S
H219 C225 0.930 . S
C220 H206 0.930 . S
C220 C218 1.395 . S
C220 C223 1.403 . S
C221 C218 1.403 . S
C221 C222 1.524 . S
C221 C225 1.400 . S
C222 H207 0.960 . S
C222 H208 0.960 . S
C222 H209 0.960 . S
C222 C221 1.524 . S
C223 C220 1.403 . S
C223 C224 1.392 . S
C223 C227 1.495 . S
C224 C223 1.392 . S
C224 C225 1.385 . S
C224 C226 1.478 . S
C225 H219 0.930 . S
C225 C221 1.400 . S
C225 C224 1.385 . S
C226 C224 1.478 . S
C226 C228 1.381 . S
C226 C232 1.383 . S
C227 C223 1.495 . S
C227 H233 0.959 . S
C227 H234 0.961 . S
C227 H235 0.960 . S
C228 C226 1.381 . S
C228 C229 1.394 . S
C228 H236 0.930 . S
C229 C228 1.394 . S
C229 C230 1.383 . S
C229 H237 0.929 . S
C230 C229 1.383 . S
C230 C231 1.377 . S
C231 H215 0.930 . S
C231 C230 1.377 . S
C231 C232 1.379 . S
C232 H216 0.931 . S
C232 C226 1.383 . S
C232 C231 1.379 . S
H233 C227 0.959 . S
H234 C227 0.961 . S
H235 C227 0.960 . S
H236 C228 0.930 . S
H237 C229 0.929 . S
H238 C246 0.929 . S
H239 C248 0.930 . S
H240 C250 0.930 . S
H241 C253 0.929 . S
H242 C256 0.930 . S
H243 C258 0.960 . S
H244 C258 0.960 . S
H245 C258 0.960 . S
C246 H238 0.929 . S
C246 C247 1.377 . S
C246 C248 1.384 . S
C247 C246 1.377 . S
C247 C253 1.390 1_554 S
C248 H239 0.930 . S
C248 C246 1.384 . S
C248 C249 1.372 . S
C249 C248 1.372 . S
C249 C250 1.400 1_554 S
C249 C254 1.490 . S
C250 H240 0.930 . S
C250 C249 1.400 1_556 S
C250 C253 1.386 . S
H251 C267 0.930 . S
H252 C268 0.931 . S
C253 H241 0.929 . S
C253 C247 1.390 1_556 S
C253 C250 1.386 . S
C254 C249 1.490 . S
C254 C256 1.395 1_554 S
C254 C257 1.403 . S
H255 C261 0.930 . S
C256 H242 0.930 . S
C256 C254 1.395 1_556 S
C256 C259 1.403 . S
C257 C254 1.403 . S
C257 C258 1.524 . S
C257 C261 1.400 . S
C258 H243 0.960 . S
C258 H244 0.960 . S
C258 H245 0.960 . S
C258 C257 1.524 . S
C259 C256 1.403 . S
C259 C260 1.392 1_556 S
C259 C263 1.495 . S
C260 C259 1.392 1_554 S
C260 C261 1.385 . S
C260 C262 1.478 . S
C261 H255 0.930 . S
C261 C257 1.400 . S
C261 C260 1.385 . S
C262 C260 1.478 . S
C262 C264 1.381 . S
C262 C268 1.383 1_554 S
C263 C259 1.495 . S
C263 H269 0.959 . S
C263 H270 0.961 . S
C263 H271 0.960 . S
C264 C262 1.381 . S
C264 C265 1.394 . S
C264 H272 0.930 . S
C265 C264 1.394 . S
C265 C266 1.383 . S
C265 H273 0.929 . S
C266 C265 1.383 . S
C266 C267 1.377 1_554 S
C267 H251 0.930 . S
C267 C266 1.377 1_556 S
C267 C268 1.379 . S
C268 H252 0.931 . S
C268 C262 1.383 1_556 S
C268 C267 1.379 . S
H269 C263 0.959 . S
H270 C263 0.961 . S
H271 C263 0.960 . S
H272 C264 0.930 . S
H273 C265 0.929 . S
H274 C282 0.929 . S
H275 C284 0.930 . S
H276 C286 0.930 . S
H277 C289 0.929 . S
H278 C292 0.930 . S
H279 C294 0.960 . S
H280 C294 0.960 . S
H281 C294 0.960 . S
C282 H274 0.929 . S
C282 C283 1.377 . S
C282 C284 1.384 . S
C283 C282 1.377 . S
C283 C289 1.390 . S
C284 H275 0.930 . S
C284 C282 1.384 . S
C284 C285 1.372 . S
C285 C284 1.372 . S
C285 C286 1.400 . S
C285 C290 1.490 . S
C286 H276 0.930 . S
C286 C285 1.400 . S
C286 C289 1.386 . S
H287 C303 0.930 . S
H288 C304 0.931 . S
C289 H277 0.929 . S
C289 C283 1.390 . S
C289 C286 1.386 . S
C290 C285 1.490 . S
C290 C292 1.395 . S
C290 C293 1.403 . S
H291 C297 0.930 . S
C292 H278 0.930 . S
C292 C290 1.395 . S
C292 C295 1.403 . S
C293 C290 1.403 . S
C293 C294 1.524 . S
C293 C297 1.400 . S
C294 H279 0.960 . S
C294 H280 0.960 . S
C294 H281 0.960 . S
C294 C293 1.524 . S
C295 C292 1.403 . S
C295 C296 1.392 . S
C295 C299 1.495 . S
C296 C295 1.392 . S
C296 C297 1.385 . S
C296 C298 1.478 . S
C297 H291 0.930 . S
C297 C293 1.400 . S
C297 C296 1.385 . S
C298 C296 1.478 . S
C298 C300 1.381 . S
C298 C304 1.383 . S
C299 C295 1.495 . S
C299 H305 0.959 . S
C299 H306 0.961 . S
C299 H307 0.960 . S
C300 C298 1.381 . S
C300 C301 1.394 . S
C300 H308 0.930 . S
C301 C300 1.394 . S
C301 C302 1.383 . S
C301 H309 0.929 . S
C302 C301 1.383 . S
C302 C303 1.377 . S
C303 H287 0.930 . S
C303 C302 1.377 . S
C303 C304 1.379 . S
C304 H288 0.931 . S
C304 C298 1.383 . S
C304 C303 1.379 . S
H305 C299 0.959 . S
H306 C299 0.961 . S
H307 C299 0.960 . S
H308 C300 0.930 . S
H309 C301 0.929 . S
H310 C318 0.929 . S
H311 C320 0.930 . S
H312 C322 0.930 . S
H313 C325 0.929 . S
H314 C328 0.930 . S
H315 C330 0.960 . S
H316 C330 0.960 . S
H317 C330 0.960 . S
C318 H310 0.929 . S
C318 C319 1.377 1_556 S
C318 C320 1.384 . S
C319 C318 1.377 1_554 S
C319 C325 1.390 . S
C320 H311 0.930 . S
C320 C318 1.384 . S
C320 C321 1.372 1_556 S
C321 C320 1.372 1_554 S
C321 C322 1.400 . S
C321 C326 1.490 . S
C322 H312 0.930 . S
C322 C321 1.400 . S
C322 C325 1.386 . S
H323 C339 0.930 . S
H324 C340 0.931 . S
C325 H313 0.929 . S
C325 C319 1.390 . S
C325 C322 1.386 . S
C326 C321 1.490 . S
C326 C328 1.395 . S
C326 C329 1.403 1_554 S
H327 C333 0.930 . S
C328 H314 0.930 . S
C328 C326 1.395 . S
C328 C331 1.403 . S
C329 C326 1.403 1_556 S
C329 C330 1.524 . S
C329 C333 1.400 . S
C330 H315 0.960 . S
C330 H316 0.960 . S
C330 H317 0.960 . S
C330 C329 1.524 . S
C331 C328 1.403 . S
C331 C332 1.392 . S
C331 C335 1.495 . S
C332 C331 1.392 . S
C332 C333 1.385 1_554 S
C332 C334 1.478 . S
C333 H327 0.930 . S
C333 C329 1.400 . S
C333 C332 1.385 1_556 S
C334 C332 1.478 . S
C334 C336 1.377 1_554 S
C334 C340 1.383 . S
C335 C331 1.495 . S
C335 H341 0.959 . S
C335 H342 0.961 . S
C335 H343 0.960 . S
C336 C334 1.377 1_556 S
C336 C337 1.395 . S
C336 H344 0.934 . S
C337 C336 1.395 . S
C337 C338 1.383 1_556 S
C337 H345 0.929 . S
C338 C337 1.383 1_554 S
C338 C339 1.377 . S
C339 H323 0.930 . S
C339 C338 1.377 . S
C339 C340 1.379 . S
C340 H324 0.931 . S
C340 C334 1.383 . S
C340 C339 1.379 . S
H341 C335 0.959 . S
H342 C335 0.961 . S
H343 C335 0.960 . S
H344 C336 0.934 . S
H345 C337 0.929 . S
H346 C354 0.929 . S
H347 C356 0.930 . S
H348 C358 0.930 . S
H349 C361 0.929 . S
H350 C364 0.930 . S
H351 C366 0.960 . S
H352 C366 0.960 . S
H353 C366 0.960 . S
C354 H346 0.929 . S
C354 C355 1.377 . S
C354 C356 1.384 . S
C355 C354 1.377 . S
C355 C361 1.390 . S
C356 H347 0.930 . S
C356 C354 1.384 . S
C356 C357 1.372 . S
C357 C356 1.372 . S
C357 C358 1.400 . S
C357 C362 1.490 . S
C358 H348 0.930 . S
C358 C357 1.400 . S
C358 C361 1.386 . S
H359 C375 0.930 . S
H360 C376 0.931 . S
C361 H349 0.929 . S
C361 C355 1.390 . S
C361 C358 1.386 . S
C362 C357 1.490 . S
C362 C364 1.395 . S
C362 C365 1.403 . S
H363 C369 0.930 . S
C364 H350 0.930 . S
C364 C362 1.395 . S
C364 C367 1.403 . S
C365 C362 1.403 . S
C365 C366 1.524 . S
C365 C369 1.400 . S
C366 H351 0.960 . S
C366 H352 0.960 . S
C366 H353 0.960 . S
C366 C365 1.524 . S
C367 C364 1.403 . S
C367 C368 1.392 . S
C367 C371 1.495 . S
C368 C367 1.392 . S
C368 C369 1.385 . S
C368 C370 1.478 . S
C369 H363 0.930 . S
C369 C365 1.400 . S
C369 C368 1.385 . S
C370 C368 1.478 . S
C370 C372 1.381 . S
C370 C376 1.383 . S
C371 C367 1.495 . S
C371 H377 0.959 . S
C371 H378 0.961 . S
C371 H379 0.960 . S
C372 C370 1.381 . S
C372 C373 1.394 . S
C372 H380 0.930 . S
C373 C372 1.394 . S
C373 C374 1.383 . S
C373 H381 0.929 . S
C374 C373 1.383 . S
C374 C375 1.377 . S
C375 H359 0.930 . S
C375 C374 1.377 . S
C375 C376 1.379 . S
C376 H360 0.931 . S
C376 C370 1.383 . S
C376 C375 1.379 . S
H377 C371 0.959 . S
H378 C371 0.961 . S
H379 C371 0.960 . S
H380 C372 0.930 . S
H381 C373 0.929 . S
H382 C390 0.929 . S
H383 C392 0.930 . S
H384 C394 0.930 . S
H385 C397 0.929 . S
H386 C400 0.930 . S
H387 C402 0.960 . S
H388 C402 0.960 . S
H389 C402 0.960 . S
C390 H382 0.929 . S
C390 C391 1.377 . S
C390 C392 1.384 . S
C391 C390 1.377 . S
C391 C397 1.390 . S
C392 H383 0.930 . S
C392 C390 1.384 . S
C392 C393 1.372 . S
C393 C392 1.372 . S
C393 C394 1.400 . S
C393 C398 1.490 . S
C394 H384 0.930 . S
C394 C393 1.400 . S
C394 C397 1.386 . S
H395 C411 0.930 . S
H396 C412 0.931 . S
C397 H385 0.929 . S
C397 C391 1.390 . S
C397 C394 1.386 . S
C398 C393 1.490 . S
C398 C400 1.395 . S
C398 C401 1.403 . S
H399 C405 0.930 . S
C400 H386 0.930 . S
C400 C398 1.395 . S
C400 C403 1.403 . S
C401 C398 1.403 . S
C401 C402 1.524 . S
C401 C405 1.400 . S
C402 H387 0.960 . S
C402 H388 0.960 . S
C402 H389 0.960 . S
C402 C401 1.524 . S
C403 C400 1.403 . S
C403 C404 1.392 . S
C403 C407 1.495 . S
C404 C403 1.392 . S
C404 C405 1.385 . S
C404 C406 1.478 . S
C405 H399 0.930 . S
C405 C401 1.400 . S
C405 C404 1.385 . S
C406 C404 1.478 . S
C406 C408 1.381 . S
C406 C412 1.383 . S
C407 C403 1.495 . S
C407 H413 0.959 . S
C407 H414 0.961 . S
C407 H415 0.960 . S
C408 C406 1.381 . S
C408 C409 1.394 . S
C408 H416 0.930 . S
C409 C408 1.394 . S
C409 C410 1.383 . S
C409 H417 0.929 . S
C410 C409 1.383 . S
C410 C411 1.377 . S
C411 H395 0.930 . S
C411 C410 1.377 . S
C411 C412 1.379 . S
C412 H396 0.931 . S
C412 C406 1.383 . S
C412 C411 1.379 . S
H413 C407 0.959 . S
H414 C407 0.961 . S
H415 C407 0.960 . S
H416 C408 0.930 . S
H417 C409 0.929 . S
H418 C426 0.929 . S
H419 C428 0.930 . S
H420 C430 0.930 . S
H421 C433 0.929 . S
H422 C436 0.930 . S
H423 C438 0.960 . S
H424 C438 0.960 . S
H425 C438 0.960 . S
C426 H418 0.929 . S
C426 C427 1.377 . S
C426 C428 1.384 . S
C427 C426 1.377 . S
C427 C433 1.390 . S
C428 H419 0.930 . S
C428 C426 1.384 . S
C428 C429 1.372 . S
C429 C428 1.372 . S
C429 C430 1.400 . S
C429 C434 1.490 . S
C430 H420 0.930 . S
C430 C429 1.400 . S
C430 C433 1.386 . S
H431 C447 0.930 . S
H432 C448 0.931 . S
C433 H421 0.929 . S
C433 C427 1.390 . S
C433 C430 1.386 . S
C434 C429 1.490 . S
C434 C436 1.395 . S
C434 C437 1.403 . S
H435 C441 0.930 . S
C436 H422 0.930 . S
C436 C434 1.395 . S
C436 C439 1.403 . S
C437 C434 1.403 . S
C437 C438 1.524 . S
C437 C441 1.400 . S
C438 H423 0.960 . S
C438 H424 0.960 . S
C438 H425 0.960 . S
C438 C437 1.524 . S
C439 C436 1.403 . S
C439 C440 1.392 . S
C439 C443 1.495 . S
C440 C439 1.392 . S
C440 C441 1.385 . S
C440 C442 1.478 . S
C441 H435 0.930 . S
C441 C437 1.400 . S
C441 C440 1.385 . S
C442 C440 1.478 . S
C442 C444 1.381 . S
C442 C448 1.383 . S
C443 C439 1.495 . S
C443 H449 0.959 . S
C443 H450 0.961 . S
C443 H451 0.960 . S
C444 C442 1.381 . S
C444 C445 1.394 . S
C444 H452 0.930 . S
C445 C444 1.394 . S
C445 C446 1.383 . S
C445 H453 0.929 . S
C446 C445 1.383 . S
C446 C447 1.377 . S
C447 H431 0.930 . S
C447 C446 1.377 . S
C447 C448 1.379 . S
C448 H432 0.931 . S
C448 C442 1.383 . S
C448 C447 1.379 . S
H449 C443 0.959 . S
H450 C443 0.961 . S
H451 C443 0.960 . S
H452 C444 0.930 . S
H453 C445 0.929 . S
H454 C462 0.929 . S
H455 C464 0.930 . S
H456 C466 0.930 . S
H457 C469 0.929 . S
H458 C472 0.930 . S
H459 C474 0.960 . S
H460 C474 0.960 . S
H461 C474 0.960 . S
C462 H454 0.929 . S
C462 C463 1.377 . S
C462 C464 1.384 . S
C463 C462 1.377 . S
C463 C469 1.390 . S
C464 H455 0.930 . S
C464 C462 1.384 . S
C464 C465 1.372 . S
C465 C464 1.372 . S
C465 C466 1.400 . S
C465 C470 1.490 . S
C466 H456 0.930 . S
C466 C465 1.400 . S
C466 C469 1.386 . S
H467 C483 0.930 . S
H468 C484 0.931 . S
C469 H457 0.929 . S
C469 C463 1.390 . S
C469 C466 1.386 . S
C470 C465 1.490 . S
C470 C472 1.395 . S
C470 C473 1.403 . S
H471 C477 0.930 . S
C472 H458 0.930 . S
C472 C470 1.395 . S
C472 C475 1.403 . S
C473 C470 1.403 . S
C473 C474 1.524 . S
C473 C477 1.400 . S
C474 H459 0.960 . S
C474 H460 0.960 . S
C474 H461 0.960 . S
C474 C473 1.524 . S
C475 C472 1.403 . S
C475 C476 1.392 . S
C475 C479 1.495 . S
C476 C475 1.392 . S
C476 C477 1.385 . S
C476 C478 1.478 . S
C477 H471 0.930 . S
C477 C473 1.400 . S
C477 C476 1.385 . S
C478 C476 1.478 . S
C478 C480 1.381 . S
C478 C484 1.383 . S
C479 C475 1.495 . S
C479 H485 0.959 . S
C479 H486 0.961 . S
C479 H487 0.960 . S
C480 C478 1.381 . S
C480 C481 1.394 . S
C480 H488 0.930 . S
C481 C480 1.394 . S
C481 C482 1.383 . S
C481 H489 0.929 . S
C482 C481 1.383 . S
C482 C483 1.377 . S
C483 H467 0.930 . S
C483 C482 1.377 . S
C483 C484 1.379 . S
C484 H468 0.931 . S
C484 C478 1.383 . S
C484 C483 1.379 . S
H485 C479 0.959 . S
H486 C479 0.961 . S
H487 C479 0.960 . S
H488 C480 0.930 . S
H489 C481 0.929 . S
H490 C498 0.929 . S
H491 C500 0.930 . S
H492 C502 0.930 . S
H493 C505 0.929 . S
H494 C508 0.930 . S
H495 C510 0.960 . S
H496 C510 0.960 . S
H497 C510 0.960 . S
C498 H490 0.929 . S
C498 C499 1.377 . S
C498 C500 1.384 . S
C499 C498 1.377 . S
C499 C505 1.390 . S
C500 H491 0.930 . S
C500 C498 1.384 . S
C500 C501 1.372 . S
C501 C500 1.372 . S
C501 C502 1.400 . S
C501 C506 1.490 . S
C502 H492 0.930 . S
C502 C501 1.400 . S
C502 C505 1.386 . S
H503 C519 0.930 . S
H504 C520 0.931 . S
C505 H493 0.929 . S
C505 C499 1.390 . S
C505 C502 1.386 . S
C506 C501 1.490 . S
C506 C508 1.395 . S
C506 C509 1.403 . S
H507 C513 0.930 . S
C508 H494 0.930 . S
C508 C506 1.395 . S
C508 C511 1.403 . S
C509 C506 1.403 . S
C509 C510 1.524 . S
C509 C513 1.400 . S
C510 H495 0.960 . S
C510 H496 0.960 . S
C510 H497 0.960 . S
C510 C509 1.524 . S
C511 C508 1.403 . S
C511 C512 1.392 . S
C511 C515 1.495 . S
C512 C511 1.392 . S
C512 C513 1.385 . S
C512 C514 1.478 . S
C513 H507 0.930 . S
C513 C509 1.400 . S
C513 C512 1.385 . S
C514 C512 1.478 . S
C514 C516 1.381 . S
C514 C520 1.383 . S
C515 C511 1.495 . S
C515 H521 0.959 . S
C515 H522 0.961 . S
C515 H523 0.960 . S
C516 C514 1.381 . S
C516 C517 1.394 . S
C516 H524 0.930 . S
C517 C516 1.394 . S
C517 C518 1.383 . S
C517 H525 0.929 . S
C518 C517 1.383 . S
C518 C519 1.377 . S
C519 H503 0.930 . S
C519 C518 1.377 . S
C519 C520 1.379 . S
C520 H504 0.931 . S
C520 C514 1.383 . S
C520 C519 1.379 . S
H521 C515 0.959 . S
H522 C515 0.961 . S
H523 C515 0.960 . S
H524 C516 0.930 . S
H525 C517 0.929 . S
H526 C534 0.929 . S
H527 C536 0.930 . S
H528 C538 0.930 . S
H529 C541 0.929 . S
H530 C544 0.930 . S
H531 C546 0.960 1_455 S
H532 C546 0.960 . S
H533 C546 0.960 . S
C534 H526 0.929 . S
C534 C535 1.377 . S
C534 C536 1.384 . S
C535 C534 1.377 . S
C535 C541 1.390 . S
C536 H527 0.930 . S
C536 C534 1.384 . S
C536 C537 1.372 . S
C537 C536 1.372 . S
C537 C538 1.400 . S
C537 C542 1.490 . S
C538 H528 0.930 . S
C538 C537 1.400 . S
C538 C541 1.386 . S
H539 C555 0.903 1_455 S
H540 C556 0.928 1_455 S
C541 H529 0.929 . S
C541 C535 1.390 . S
C541 C538 1.386 . S
C542 C537 1.490 . S
C542 C544 1.395 . S
C542 C545 1.403 . S
H543 C549 0.930 . S
C544 H530 0.930 . S
C544 C542 1.395 . S
C544 C547 1.403 . S
C545 C542 1.403 . S
C545 C546 1.524 . S
C545 C549 1.400 . S
C546 H531 0.960 1_655 S
C546 H532 0.960 . S
C546 H533 0.960 . S
C546 C545 1.524 . S
C547 C544 1.403 . S
C547 C548 1.392 . S
C547 C551 1.495 . S
C548 C547 1.392 . S
C548 C549 1.385 . S
C548 C550 1.478 . S
C549 H543 0.930 . S
C549 C545 1.400 . S
C549 C548 1.385 . S
C550 C548 1.478 . S
C550 C552 1.381 . S
C550 C556 1.383 . S
C551 C547 1.495 . S
C551 H557 0.959 . S
C551 H558 0.961 . S
C551 H559 0.960 . S
C552 C550 1.381 . S
C552 C553 1.394 . S
C552 H560 0.930 . S
C553 C552 1.394 . S
C553 C554 1.383 . S
C553 H561 0.929 . S
C554 C553 1.383 . S
C554 C555 1.393 . S
C555 H539 0.903 1_655 S
C555 C554 1.393 . S
C555 C556 1.390 . S
C556 H540 0.928 1_655 S
C556 C550 1.383 . S
C556 C555 1.390 . S
H557 C551 0.959 . S
H558 C551 0.961 . S
H559 C551 0.960 . S
H560 C552 0.930 . S
H561 C553 0.929 . S
H562 C570 0.929 . S
H563 C572 0.930 . S
H564 C574 0.930 . S
H565 C577 0.929 . S
H566 C580 0.930 . S
H567 C582 0.960 . S
H568 C582 0.960 . S
H569 C582 0.960 . S
C570 H562 0.929 . S
C570 C571 1.377 . S
C570 C572 1.384 . S
C571 C570 1.377 . S
C571 C577 1.390 . S
C572 H563 0.930 . S
C572 C570 1.384 . S
C572 C573 1.372 . S
C573 C572 1.372 . S
C573 C574 1.400 . S
C573 C578 1.490 . S
C574 H564 0.930 . S
C574 C573 1.400 . S
C574 C577 1.386 . S
H575 C591 0.930 . S
H576 C592 0.931 . S
C577 H565 0.929 . S
C577 C571 1.390 . S
C577 C574 1.386 . S
C578 C573 1.490 . S
C578 C580 1.395 . S
C578 C581 1.403 . S
H579 C585 0.930 . S
C580 H566 0.930 . S
C580 C578 1.395 . S
C580 C583 1.403 . S
C581 C578 1.403 . S
C581 C582 1.524 . S
C581 C585 1.400 . S
C582 H567 0.960 . S
C582 H568 0.960 . S
C582 H569 0.960 . S
C582 C581 1.524 . S
C583 C580 1.403 . S
C583 C584 1.392 . S
C583 C587 1.495 . S
C584 C583 1.392 . S
C584 C585 1.385 . S
C584 C586 1.478 . S
C585 H579 0.930 . S
C585 C581 1.400 . S
C585 C584 1.385 . S
C586 C584 1.478 . S
C586 C588 1.381 . S
C586 C592 1.383 . S
C587 C583 1.495 . S
C587 H593 0.959 . S
C587 H594 0.961 . S
C587 H595 0.960 . S
C588 C586 1.381 . S
C588 C589 1.394 . S
C588 H596 0.930 . S
C589 C588 1.394 . S
C589 C590 1.383 . S
C589 H597 0.929 . S
C590 C589 1.383 . S
C590 C591 1.377 . S
C591 H575 0.930 . S
C591 C590 1.377 . S
C591 C592 1.379 . S
C592 H576 0.931 . S
C592 C586 1.383 . S
C592 C591 1.379 . S
H593 C587 0.959 . S
H594 C587 0.961 . S
H595 C587 0.960 . S
H596 C588 0.930 . S
H597 C589 0.929 . S
H598 C606 0.929 . S
H599 C608 0.930 . S
H600 C610 0.930 . S
H601 C613 0.929 . S
H602 C616 0.930 . S
H603 C618 0.960 . S
H604 C618 0.960 . S
H605 C618 0.960 . S
C606 H598 0.929 . S
C606 C607 1.377 . S
C606 C608 1.384 . S
C607 C606 1.377 . S
C607 C613 1.390 . S
C608 H599 0.930 . S
C608 C606 1.384 . S
C608 C609 1.372 . S
C609 C608 1.372 . S
C609 C610 1.400 . S
C609 C614 1.490 . S
C610 H600 0.930 . S
C610 C609 1.400 . S
C610 C613 1.386 . S
H611 C627 0.930 1_655 S
H612 C628 0.931 1_655 S
C613 H601 0.929 . S
C613 C607 1.390 . S
C613 C610 1.386 . S
C614 C609 1.490 . S
C614 C616 1.395 . S
C614 C617 1.403 . S
H615 C621 0.930 . S
C616 H602 0.930 . S
C616 C614 1.395 . S
C616 C619 1.403 . S
C617 C614 1.403 . S
C617 C618 1.524 . S
C617 C621 1.400 . S
C618 H603 0.960 . S
C618 H604 0.960 . S
C618 H605 0.960 . S
C618 C617 1.524 . S
C619 C616 1.403 . S
C619 C620 1.392 . S
C619 C623 1.495 . S
C620 C619 1.392 . S
C620 C621 1.385 . S
C620 C622 1.478 . S
C621 H615 0.930 . S
C621 C617 1.400 . S
C621 C620 1.385 . S
C622 C620 1.478 . S
C622 C624 1.381 . S
C622 C628 1.383 . S
C623 C619 1.495 . S
C623 H629 0.959 . S
C623 H630 0.961 . S
C623 H631 0.960 . S
C624 C622 1.381 . S
C624 C625 1.394 . S
C624 H632 0.930 . S
C625 C624 1.394 . S
C625 C626 1.383 . S
C625 H633 0.929 . S
C626 C625 1.383 . S
C626 C627 1.377 . S
C627 H611 0.930 1_455 S
C627 C626 1.377 . S
C627 C628 1.379 . S
C628 H612 0.931 1_455 S
C628 C622 1.383 . S
C628 C627 1.379 . S
H629 C623 0.959 . S
H630 C623 0.961 . S
H631 C623 0.960 . S
H632 C624 0.930 . S
H633 C625 0.929 . S
C230 C173 1.633 . S
C211 C138 1.601 . S
C247 C21 1.613 . S
C266 C196 1.617 . S
C283 C60 1.633 . S
C302 C172 1.641 . S
C319 C99 1.622 . S
C338 C195 1.653 . S
C374 C176 1.580 . S
C355 C16 1.606 . S
C410 C198 1.587 . S
C391 C40 1.628 . S
C427 C79 1.622 . S
C446 C177 1.591 . S
C463 C133 1.599 . S
C482 C197 1.564 . S
C518 C200 1.558 . S
C499 C55 1.615 . S
C554 C175 1.603 . S
C535 C94 1.623 . S
C590 C199 1.570 . S
C571 C118 1.603 . S
C607 C1 1.602 . S
C626 C174 1.569 . S
