# Generated by pormake.
# Topology pyr, (3,6)-cn, num edge types: 1
# Building blocks:
#     Node 0, Type 0, BuildingBlock: QEWDON_clean_linker_0, # of connection points: 3
#     Node 1, Type 0, BuildingBlock: QEWDON_clean_linker_0, # of connection points: 3
#     Node 2, Type 0, BuildingBlock: QEWDON_clean_linker_0, # of connection points: 3
#     Node 3, Type 0, BuildingBlock: QEWDON_clean_linker_0, # of connection points: 3
#     Node 4, Type 0, BuildingBlock: QEWDON_clean_linker_0, # of connection points: 3
#     Node 5, Type 0, BuildingBlock: QEWDON_clean_linker_0, # of connection points: 3
#     Node 6, Type 0, BuildingBlock: QEWDON_clean_linker_0, # of connection points: 3
#     Node 7, Type 0, BuildingBlock: QEWDON_clean_linker_0, # of connection points: 3
#     Node 8, Type 1, BuildingBlock: PAMTUU_clean_sbu_0, # of connection points: 6
#     Node 9, Type 1, BuildingBlock: PAMTUU_clean_sbu_0, # of connection points: 6
#     Node 10, Type 1, BuildingBlock: PAMTUU_clean_sbu_0, # of connection points: 6
#     Node 11, Type 1, BuildingBlock: PAMTUU_clean_sbu_0, # of connection points: 6
#     Edge 12, Type (0, 1), BuildingBlock: ZUJKAS_clean_linker_0, # of connection points: 2
#     Edge 13, Type (0, 1), BuildingBlock: ZUJKAS_clean_linker_0, # of connection points: 2
#     Edge 14, Type (0, 1), BuildingBlock: ZUJKAS_clean_linker_0, # of connection points: 2
#     Edge 15, Type (0, 1), BuildingBlock: ZUJKAS_clean_linker_0, # of connection points: 2
#     Edge 16, Type (0, 1), BuildingBlock: ZUJKAS_clean_linker_0, # of connection points: 2
#     Edge 17, Type (0, 1), BuildingBlock: ZUJKAS_clean_linker_0, # of connection points: 2
#     Edge 18, Type (0, 1), BuildingBlock: ZUJKAS_clean_linker_0, # of connection points: 2
#     Edge 19, Type (0, 1), BuildingBlock: ZUJKAS_clean_linker_0, # of connection points: 2
#     Edge 20, Type (0, 1), BuildingBlock: ZUJKAS_clean_linker_0, # of connection points: 2
#     Edge 21, Type (0, 1), BuildingBlock: ZUJKAS_clean_linker_0, # of connection points: 2
#     Edge 22, Type (0, 1), BuildingBlock: ZUJKAS_clean_linker_0, # of connection points: 2
#     Edge 23, Type (0, 1), BuildingBlock: ZUJKAS_clean_linker_0, # of connection points: 2
#     Edge 24, Type (0, 1), BuildingBlock: ZUJKAS_clean_linker_0, # of connection points: 2
#     Edge 25, Type (0, 1), BuildingBlock: ZUJKAS_clean_linker_0, # of connection points: 2
#     Edge 26, Type (0, 1), BuildingBlock: ZUJKAS_clean_linker_0, # of connection points: 2
#     Edge 27, Type (0, 1), BuildingBlock: ZUJKAS_clean_linker_0, # of connection points: 2
#     Edge 28, Type (0, 1), BuildingBlock: ZUJKAS_clean_linker_0, # of connection points: 2
#     Edge 29, Type (0, 1), BuildingBlock: ZUJKAS_clean_linker_0, # of connection points: 2
#     Edge 30, Type (0, 1), BuildingBlock: ZUJKAS_clean_linker_0, # of connection points: 2
#     Edge 31, Type (0, 1), BuildingBlock: ZUJKAS_clean_linker_0, # of connection points: 2
#     Edge 32, Type (0, 1), BuildingBlock: ZUJKAS_clean_linker_0, # of connection points: 2
#     Edge 33, Type (0, 1), BuildingBlock: ZUJKAS_clean_linker_0, # of connection points: 2
#     Edge 34, Type (0, 1), BuildingBlock: ZUJKAS_clean_linker_0, # of connection points: 2
#     Edge 35, Type (0, 1), BuildingBlock: ZUJKAS_clean_linker_0, # of connection points: 2
# Relax obj value: 0.129
# Max RMSD: 0.247
# Mean RMSD: 0.188
data_MOF--net-pyr--node1-PAMTUU_clean_sbu_0--node2-QEWDON_clean_linker_0--edge1-ZUJKAS_clean_linker_0
_symmetry_space_group_name_H-M    P1
_symmetry_Int_Tables_number       1
_symmetry_cell_setting            triclinic
loop_
_symmetry_equiv_pos_as_xyz
'x, y, z'
_cell_length_a     49.8774
_cell_length_b     51.070147
_cell_length_c     51.894581
_cell_angle_alpha  90.064329
_cell_angle_beta   89.499912
_cell_angle_gamma 108.51314
loop_
_atom_site_label
_atom_site_type_symbol
_atom_site_fract_x
_atom_site_fract_y
_atom_site_fract_z
_atom_type_partial_charge
H0 H 0.36152 0.30214 0.1787 0.0
C1 C 0.34678 0.29397 0.19442 0.0
C2 C 0.34428 0.26786 0.20468 0.0
C3 C 0.3297 0.3092 0.2037 0.0
H4 H 0.32273 0.23707 0.23265 0.0
C5 C 0.32468 0.25719 0.22464 0.0
C6 C 0.30766 0.27225 0.23441 0.0
C7 C 0.31015 0.29816 0.22365 0.0
C8 C 0.33243 0.33674 0.19267 0.0
H9 H 0.29746 0.31015 0.23133 0.0
C10 C 0.30822 0.34383 0.18635 0.0
C11 C 0.31069 0.36995 0.17589 0.0
C12 C 0.35929 0.35608 0.18841 0.0
H13 H 0.37826 0.35126 0.19332 0.0
C14 C 0.36191 0.38203 0.17819 0.0
H15 H 0.2875 0.32871 0.18897 0.0
C16 C 0.33785 0.38899 0.172 0.0
H17 H 0.34054 0.40943 0.16444 0.0
H18 H 0.38268 0.39688 0.17518 0.0
H19 H 0.21767 0.84601 0.75488 0.0
C20 C 0.23 0.83421 0.74617 0.0
C21 C 0.25742 0.83758 0.75501 0.0
C22 C 0.21837 0.81554 0.72619 0.0
H23 H 0.29431 0.82467 0.75042 0.0
C24 C 0.27314 0.82214 0.74364 0.0
C25 C 0.26185 0.80337 0.72374 0.0
C26 C 0.23442 0.80019 0.71508 0.0
C27 C 0.18942 0.81196 0.71688 0.0
H28 H 0.22552 0.78575 0.6997 0.0
C29 C 0.18124 0.83506 0.71047 0.0
C30 C 0.15405 0.83171 0.7008 0.0
C31 C 0.17003 0.78537 0.71391 0.0
H32 H 0.17578 0.76726 0.71886 0.0
C33 C 0.14293 0.7819 0.7047 0.0
H34 H 0.19618 0.8556 0.71273 0.0
C35 C 0.13496 0.80485 0.69811 0.0
H36 H 0.11404 0.80152 0.69038 0.0
H37 H 0.12811 0.76133 0.70245 0.0
H38 H 0.69755 0.45738 0.89664 0.0
C39 C 0.68879 0.43541 0.90037 0.0
C40 C 0.70363 0.42223 0.91602 0.0
C41 C 0.66148 0.42093 0.89151 0.0
H42 H 0.70236 0.38388 0.934 0.0
C43 C 0.69113 0.39403 0.92181 0.0
C44 C 0.66381 0.37914 0.91336 0.0
C45 C 0.64915 0.39288 0.89815 0.0
C46 C 0.64343 0.43639 0.88073 0.0
H47 H 0.62774 0.38208 0.89211 0.0
C48 C 0.64536 0.44542 0.85477 0.0
C49 C 0.62806 0.46084 0.84598 0.0
C50 C 0.62403 0.44256 0.89746 0.0
H51 H 0.62222 0.43583 0.91738 0.0
C52 C 0.60701 0.45766 0.88884 0.0
H53 H 0.66024 0.4407 0.84168 0.0
C54 C 0.60903 0.46679 0.8634 0.0
H55 H 0.59532 0.47827 0.8572 0.0
H56 H 0.59216 0.46232 0.90197 0.0
H57 H 0.89083 0.77948 0.36701 0.0
C58 C 0.8753 0.76333 0.37768 0.0
C59 C 0.8707 0.76699 0.40408 0.0
C60 C 0.85827 0.73995 0.36445 0.0
H61 H 0.84543 0.74923 0.43746 0.0
C62 C 0.84936 0.74645 0.41722 0.0
C63 C 0.8318 0.72324 0.40424 0.0
C64 C 0.83649 0.7201 0.37781 0.0
C65 C 0.85897 0.73941 0.33593 0.0
H66 H 0.82245 0.70284 0.36735 0.0
C67 C 0.87487 0.72562 0.3219 0.0
C68 C 0.87483 0.72585 0.29459 0.0
C69 C 0.8429 0.75301 0.32264 0.0
H70 H 0.83051 0.7636 0.3331 0.0
C71 C 0.84247 0.75296 0.29583 0.0
H72 H 0.88743 0.71523 0.33214 0.0
C73 C 0.8582 0.73951 0.28191 0.0
H74 H 0.85706 0.73956 0.26108 0.0
H75 H 0.82981 0.76334 0.28576 0.0
H76 H 0.7274 0.79139 0.93631 0.0
C77 C 0.73573 0.80426 0.91963 0.0
C78 C 0.76279 0.8065 0.91006 0.0
C79 C 0.71909 0.81812 0.90741 0.0
H80 H 0.79406 0.82485 0.88091 0.0
C81 C 0.77298 0.82268 0.88806 0.0
C82 C 0.75648 0.83636 0.8754 0.0
C83 C 0.72965 0.83434 0.88548 0.0
C84 C 0.68984 0.81402 0.91639 0.0
H85 H 0.71642 0.84433 0.87567 0.0
C86 C 0.68134 0.83655 0.92434 0.0
C87 C 0.65325 0.83254 0.93255 0.0
C88 C 0.67017 0.78738 0.91659 0.0
H89 H 0.67632 0.7698 0.91044 0.0
C90 C 0.64225 0.78329 0.92413 0.0
H91 H 0.69686 0.85695 0.92476 0.0
C92 C 0.63377 0.80563 0.93193 0.0
H93 H 0.61183 0.80175 0.93734 0.0
H94 H 0.62708 0.76272 0.92387 0.0
H95 H 0.84089 0.26563 0.46542 0.0
C96 C 0.82976 0.26205 0.44727 0.0
C97 C 0.83888 0.24786 0.42764 0.0
C98 C 0.80596 0.27076 0.44407 0.0
H99 H 0.83202 0.23309 0.38858 0.0
C100 C 0.82519 0.24416 0.40378 0.0
C101 C 0.80183 0.25342 0.39982 0.0
C102 C 0.7923 0.2666 0.42009 0.0
C103 C 0.79401 0.28183 0.46645 0.0
H104 H 0.77326 0.27217 0.41757 0.0
C105 C 0.78066 0.3021 0.46307 0.0
C106 C 0.76802 0.3113 0.48409 0.0
C107 C 0.79484 0.27119 0.49137 0.0
H108 H 0.8041 0.255 0.49472 0.0
C109 C 0.78293 0.28069 0.51231 0.0
H110 H 0.78017 0.31083 0.44413 0.0
C111 C 0.76951 0.3005 0.50876 0.0
H112 H 0.75958 0.30676 0.52526 0.0
H113 H 0.78358 0.27221 0.53132 0.0
H114 H 0.41005 0.75471 0.24679 0.0
C115 C 0.38842 0.74552 0.24049 0.0
C116 C 0.37562 0.76103 0.2253 0.0
C117 C 0.37383 0.71773 0.24651 0.0
H118 H 0.33837 0.76009 0.20414 0.0
C119 C 0.34804 0.74835 0.21622 0.0
C120 C 0.33346 0.72035 0.22126 0.0
C121 C 0.34643 0.70534 0.23681 0.0
C122 C 0.38903 0.69993 0.258 0.0
H123 H 0.33599 0.68349 0.24007 0.0
C124 C 0.39265 0.69813 0.2849 0.0
C125 C 0.40548 0.67918 0.29477 0.0
C126 C 0.39896 0.68339 0.24129 0.0
H127 H 0.39636 0.68448 0.22064 0.0
C128 C 0.41207 0.66517 0.25094 0.0
H129 H 0.38482 0.71063 0.29797 0.0
C130 C 0.41519 0.66294 0.27742 0.0
H131 H 0.42536 0.6485 0.28441 0.0
H132 H 0.41965 0.65252 0.23785 0.0
H133 H 0.21196 0.44424 0.7577 0.0
C134 C 0.20023 0.42639 0.74654 0.0
C135 C 0.20845 0.42349 0.7209 0.0
C136 C 0.17798 0.40547 0.75831 0.0
H137 H 0.20039 0.39704 0.68753 0.0
C138 C 0.19378 0.39963 0.70706 0.0
C139 C 0.17177 0.37835 0.71851 0.0
C140 C 0.16377 0.38164 0.74406 0.0
C141 C 0.1727 0.40607 0.78655 0.0
H142 H 0.14744 0.36499 0.7534 0.0
C143 C 0.16542 0.42779 0.79863 0.0
C144 C 0.16127 0.42752 0.82565 0.0
C145 C 0.17567 0.3844 0.80175 0.0
H146 H 0.18143 0.36764 0.793 0.0
C147 C 0.17177 0.3843 0.82836 0.0
H148 H 0.16291 0.44457 0.78719 0.0
C149 C 0.1647 0.4057 0.84025 0.0
H150 H 0.16157 0.40508 0.86096 0.0
H151 H 0.17425 0.36754 0.83983 0.0
Tb152 Tb 0.05724 0.07636 0.5423 0.0
Tb153 Tb 1.00376 0.0645 0.58315 0.0
C154 C 0.00555 0.02158 0.53996 0.0
C155 C 0.10992 0.1041 0.48881 0.0
C156 C 0.13351 0.13862 0.44651 0.0
C157 C 0.12645 0.1098 0.44439 0.0
C158 C 0.11486 0.09276 0.46533 0.0
C159 C 0.11671 0.13291 0.49104 0.0
C160 C 0.12857 0.15005 0.47007 0.0
C161 C 0.09769 0.08522 0.51037 0.0
O162 O 0.02447 0.08763 0.5222 0.0
O163 O 1.00118 0.09706 0.55751 0.0
O164 O 0.03882 0.09819 0.5982 0.0
O165 O 0.06134 0.11592 0.56055 0.0
O166 O 0.96036 0.05678 0.59021 0.0
O167 O 0.99006 0.06392 0.62152 0.0
O168 O 0.0253 0.03529 0.59342 0.0
O169 O 0.06926 0.05953 0.57732 0.0
O170 O 0.03314 0.03284 0.53847 0.0
O171 O 0.9897 0.03314 0.55322 0.0
C172 C 0.00669 0.09882 0.53269 0.0
O173 O 0.10033 0.09542 0.53362 0.0
O174 O 0.07253 0.06792 0.50652 0.0
C175 C 0.05578 0.11882 0.58497 0.0
C176 C 0.94304 0.03742 0.63087 0.0
C177 C 0.90446 0.99919 0.66345 0.0
C178 C 0.90875 0.02766 0.66584 0.0
C179 C 0.92781 0.04653 0.64968 0.0
C180 C 0.93889 0.00909 0.62814 0.0
C181 C 0.91969 0.99006 0.64435 0.0
C182 C 0.96365 0.05823 0.61512 0.0
C183 C 0.05277 0.04008 0.59223 0.0
H184 H 0.13041 0.1004 0.42664 0.0
H185 H 0.10984 0.07061 0.46322 0.0
H186 H 0.11292 0.14217 0.50892 0.0
H187 H 0.13369 0.17219 0.4722 0.0
H188 H 0.8979 0.03548 0.68065 0.0
H189 H 0.93097 0.06838 0.65214 0.0
H190 H 0.9506 1.00176 0.61369 0.0
H191 H 0.91674 0.96826 0.64193 0.0
Tb192 Tb 0.55267 0.07896 0.09074 0.0
Tb193 Tb 0.49765 0.06212 0.05247 0.0
C194 C 0.54954 0.0406 0.04239 0.0
C195 C 0.61221 0.11417 0.13637 0.0
C196 C 0.64702 0.15169 0.17151 0.0
C197 C 0.65831 0.1357 0.15525 0.0
C198 C 0.64103 0.11706 0.13793 0.0
C199 C 0.60121 0.13143 0.15128 0.0
C200 C 0.61849 0.15005 0.16873 0.0
C201 C 0.59377 0.09094 0.1215 0.0
O202 O 0.56447 0.10771 0.05836 0.0
O203 O 0.51998 0.10576 0.0457 0.0
O204 O 0.48615 0.07814 0.08831 0.0
O205 O 0.52943 0.10726 0.09993 0.0
O206 O 0.47999 0.06558 0.01668 0.0
O207 O 0.45368 0.04416 0.04837 0.0
O208 O 0.49609 0.02383 0.07164 0.0
O209 O 0.52008 0.04365 0.10779 0.0
O210 O 0.55807 0.04662 0.06619 0.0
O211 O 0.52904 0.04815 0.03222 0.0
C212 C 0.54747 0.11792 0.04547 0.0
O213 O 0.56731 0.08151 0.12859 0.0
O214 O 0.59675 0.0918 0.09651 0.0
C215 C 0.50175 0.09998 0.10074 0.0
C216 C 0.43813 0.02995 1.00626 0.0
C217 C 0.40642 0.99318 0.96899 0.0
C218 C 0.39397 0.00932 0.98387 0.0
C219 C 0.40972 0.02754 1.00231 0.0
C220 C 0.45052 0.01331 0.99208 0.0
C221 C 0.43477 0.99508 0.97351 0.0
C222 C 0.45457 0.0511 0.02415 0.0
C223 C 0.50304 0.02216 0.09578 0.0
H224 H 0.68032 0.13687 0.15659 0.0
H225 H 0.64994 0.10401 0.12653 0.0
H226 H 0.579 0.12965 0.15034 0.0
H227 H 0.60911 0.16198 0.18104 0.0
H228 H 0.37233 0.00863 0.98064 0.0
H229 H 0.39988 0.04032 1.01305 0.0
H230 H 0.47245 0.01483 0.99499 0.0
H231 H 0.44483 0.98268 0.96255 0.0
Tb232 Tb 0.51919 0.54786 0.55403 0.0
Tb233 Tb 0.52855 0.60616 0.58457 0.0
C234 C 0.49901 0.5956 0.53121 0.0
C235 C 0.53521 0.48952 0.52337 0.0
C236 C 0.57507 0.4632 0.50968 0.0
C237 C 0.54625 0.45094 0.50389 0.0
C238 C 0.52648 0.46407 0.51064 0.0
C239 C 0.56381 0.50169 0.52944 0.0
C240 C 0.58358 0.48874 0.52257 0.0
C241 C 0.51479 0.50392 0.52949 0.0
O242 O 0.56432 0.5698 0.55175 0.0
O243 O 0.56239 0.61379 0.55594 0.0
O244 O 0.55517 0.5862 0.60462 0.0
O245 O 0.5318 0.54142 0.59308 0.0
O246 O 0.53734 0.64914 0.58302 0.0
O247 O 0.53027 0.62761 0.61939 0.0
O248 O 0.49079 0.57677 0.60123 0.0
O249 O 0.47724 0.54545 0.56825 0.0
O250 O 0.51168 0.57711 0.52664 0.0
O251 O 0.49766 0.60477 0.55467 0.0
C252 C 0.57555 0.59653 0.54832 0.0
O253 O 0.50806 0.50451 0.55373 0.0
O254 O 0.52016 0.52809 0.51879 0.0
C255 C 0.54917 0.55946 0.60835 0.0
C256 C 0.51116 0.66358 0.61449 0.0
C257 C 0.469 0.68676 0.62872 0.0
C258 C 0.49652 0.69749 0.6386 0.0
C259 C 0.51748 0.68598 0.63148 0.0
C260 C 0.48376 0.6528 0.6046 0.0
C261 C 0.46288 0.66435 0.61157 0.0
C262 C 0.53271 0.65078 0.60763 0.0
C263 C 0.47171 0.55626 0.58988 0.0
H264 H 0.53892 0.43111 0.49432 0.0
H265 H 0.50445 0.45442 0.50583 0.0
H266 H 0.57091 0.52139 0.53923 0.0
H267 H 0.60561 0.49898 0.527 0.0
H268 H 0.50187 0.71487 0.65171 0.0
H269 H 0.53852 0.69445 0.63935 0.0
H270 H 0.47844 0.63526 0.59166 0.0
H271 H 0.44179 0.65537 0.60396 0.0
Tb272 Tb 0.02613 0.6047 0.04719 0.0
Tb273 Tb 0.01674 0.54657 0.07832 0.0
C274 C 0.04829 0.55874 0.0243 0.0
C275 C 0.00812 0.66134 0.0163 0.0
C276 C 0.96628 0.68531 1.00332 0.0
C277 C 0.99517 0.7009 1.00202 0.0
C278 C 0.0159 0.68899 1.00846 0.0
C279 C 0.97938 0.6457 0.01772 0.0
C280 C 0.95866 0.65753 1.01122 0.0
C281 C 0.0298 0.64899 0.02371 0.0
O282 O 0.98951 0.57428 0.03027 0.0
O283 O 0.97498 0.54402 0.06407 0.0
O284 O 0.00642 0.57461 0.10548 0.0
O285 O 0.99451 0.60308 0.0769 0.0
O286 O 1.00362 0.50317 0.07875 0.0
O287 O 0.02026 0.52658 0.11284 0.0
O288 O 0.06164 0.56938 0.08121 0.0
O289 O 0.0594 0.61317 0.07592 0.0
O290 O 0.05422 0.58544 0.02809 0.0
O291 O 0.03022 0.54065 0.03926 0.0
C292 C 0.97007 0.55404 0.0419 0.0
O293 O 0.0335 0.64754 0.04841 0.0
O294 O 0.02849 0.62594 1.01219 0.0
C295 C 0.99455 0.59356 0.10039 0.0
C296 C 0.03261 0.48671 0.10565 0.0
C297 C 0.0736 0.46075 0.11556 0.0
C298 C 0.04982 0.45616 0.13183 0.0
C299 C 0.02949 0.46904 0.12688 0.0
C300 C 0.05603 0.49099 0.0891 0.0
C301 C 0.07627 0.47801 0.09394 0.0
C302 C 0.01275 0.50233 0.10209 0.0
C303 C 0.07249 0.59621 0.08426 0.0
H304 H 1.00176 0.72243 0.99636 0.0
H305 H 0.038 0.7014 1.00749 0.0
H306 H 0.97298 0.62431 0.02387 0.0
H307 H 0.93669 0.6448 1.01209 0.0
H308 H 0.04708 0.4428 0.1485 0.0
H309 H 0.01164 0.46568 0.13993 0.0
H310 H 0.059 0.5049 0.07279 0.0
H311 H 0.09453 0.48225 0.08126 0.0
H312 H 0.31693 0.2462 0.27777 0.0
H313 H 0.28348 0.22589 0.31253 0.0
H314 H 0.21983 0.25281 0.27529 0.0
H315 H 0.25315 0.273 0.24013 0.0
H316 H 0.22454 0.26268 0.32994 0.0
H317 H 0.21536 0.15466 0.30447 0.0
H318 H 0.25115 0.1768 0.30819 0.0
H319 H 0.22996 0.18321 0.28261 0.0
C320 C 0.29574 0.24761 0.27682 0.0
C321 C 0.28759 0.26093 0.25602 0.0
C322 C 0.2767 0.23607 0.29674 0.0
C323 C 0.2491 0.23751 0.29625 0.0
C324 C 0.24104 0.25143 0.27594 0.0
H325 H 0.11796 0.13185 0.39599 0.0
H326 H 0.14319 0.15802 0.35883 0.0
C327 C 0.26012 0.263 0.25594 0.0
C328 C 0.22868 0.2241 0.31686 0.0
H329 H 0.19669 0.16167 0.3453 0.0
C330 C 0.21821 0.24057 0.33322 0.0
C331 C 0.22013 0.19523 0.32079 0.0
C332 C 0.22948 0.17636 0.30296 0.0
C333 C 0.20017 0.22896 0.35406 0.0
C334 C 0.19281 0.20025 0.35876 0.0
C335 C 0.20252 0.18372 0.34181 0.0
C336 C 0.17571 0.18678 0.38145 0.0
C337 C 0.18912 0.24751 0.37077 0.0
C338 C 0.18541 0.19448 0.40654 0.0
C339 C 0.171 0.17957 0.42781 0.0
C340 C 0.14685 0.15647 0.42433 0.0
C341 C 0.1367 0.14936 0.39924 0.0
C342 C 0.15101 0.16434 0.37802 0.0
H343 H 0.18957 0.26667 0.36039 0.0
H344 H 0.16713 0.23676 0.37737 0.0
H345 H 0.20268 0.25362 0.38801 0.0
H346 H 0.20478 0.21131 0.40962 0.0
H347 H 0.17951 0.18532 0.44688 0.0
H348 H 0.31054 0.87458 0.75798 0.0
H349 H 0.33283 0.90153 0.79547 0.0
H350 H 0.25449 0.8708 0.83816 0.0
H351 H 0.23218 0.84314 0.80084 0.0
H352 H 0.31875 0.94221 0.82452 0.0
H353 H 0.31202 0.84899 0.88293 0.0
H354 H 0.30637 0.84751 0.84857 0.0
H355 H 0.27915 0.85049 0.87016 0.0
C356 C 0.29805 0.87359 0.77534 0.0
C357 C 0.26972 0.8565 0.7766 0.0
C358 C 0.31076 0.88909 0.79668 0.0
C359 C 0.29544 0.88772 0.81968 0.0
C360 C 0.26679 0.87171 0.82068 0.0
H361 H 0.35122 0.95984 0.97002 0.0
H362 H 0.3234 0.93449 0.93398 0.0
C363 C 0.25401 0.85618 0.79929 0.0
C364 C 0.30991 0.90249 0.84274 0.0
H365 H 0.33199 0.89225 0.9029 0.0
C366 C 0.32158 0.93133 0.84171 0.0
C367 C 0.31357 0.88816 0.86507 0.0
C368 C 0.30235 0.85706 0.86682 0.0
C369 C 0.33686 0.9463 0.86247 0.0
C370 C 0.34094 0.93193 0.8846 0.0
C371 C 0.32884 0.90313 0.88584 0.0
C372 C 0.35807 0.94644 0.90655 0.0
C373 C 0.3483 0.97737 0.86062 0.0
C374 C 0.38692 0.9609 0.90315 0.0
C375 C 0.40284 0.97545 0.92364 0.0
C376 C 0.39018 0.97568 0.94792 0.0
C377 C 0.36147 0.96037 0.95145 0.0
C378 C 0.34558 0.94581 0.93094 0.0
H379 H 0.33728 0.98552 0.84562 0.0
H380 H 0.34621 0.98709 0.87936 0.0
H381 H 0.37108 0.98364 0.85537 0.0
H382 H 0.39705 0.96119 0.88456 0.0
H383 H 0.42483 0.98719 0.92024 0.0
H384 H 0.63496 0.51323 0.82963 0.0
H385 H 0.62647 0.52821 0.78654 0.0
H386 H 0.61273 0.44578 0.75785 0.0
H387 H 0.6212 0.43063 0.80121 0.0
H388 H 0.65104 0.52576 0.73616 0.0
H389 H 0.53766 0.46219 0.74288 0.0
H390 H 0.56035 0.46992 0.77066 0.0
H391 H 0.56306 0.4444 0.74786 0.0
C392 C 0.63067 0.4984 0.81402 0.0
C393 C 0.62868 0.47071 0.81885 0.0
C394 C 0.62579 0.50699 0.78939 0.0
C395 C 0.61847 0.48807 0.76898 0.0
C396 C 0.61796 0.4607 0.77336 0.0
H397 H 0.54732 0.50621 0.61865 0.0
H398 H 0.56606 0.48885 0.65597 0.0
C399 C 0.62311 0.45211 0.79807 0.0
C400 C 0.60979 0.49685 0.74377 0.0
H401 H 0.55231 0.48875 0.70537 0.0
C402 C 0.62949 0.51755 0.72933 0.0
C403 C 0.58166 0.48622 0.73482 0.0
C404 C 0.5593 0.4646 0.74986 0.0
C405 C 0.6219 0.5278 0.70622 0.0
C406 C 0.59356 0.51767 0.69758 0.0
C407 C 0.574 0.49663 0.71187 0.0
C408 C 0.58352 0.52877 0.6741 0.0
C409 C 0.64452 0.54907 0.69111 0.0
C410 C 0.58689 0.55708 0.67163 0.0
C411 C 0.57633 0.56716 0.6501 0.0
C412 C 0.56174 0.54912 0.63065 0.0
C413 C 0.5584 0.52079 0.63317 0.0
C414 C 0.56912 0.51078 0.65459 0.0
H415 H 0.66591 0.54796 0.69545 0.0
H416 H 0.64097 0.54637 0.67005 0.0
H417 H 0.6442 0.57 0.69651 0.0
H418 H 0.59716 0.5714 0.68664 0.0
H419 H 0.57909 0.58904 0.64902 0.0
H420 H 0.88153 0.67473 0.30178 0.0
H421 H 0.90484 0.65064 0.2725 0.0
H422 H 0.92776 0.72112 0.22161 0.0
H423 H 0.9058 0.74552 0.25105 0.0
H424 H 0.89147 0.63513 0.22336 0.0
H425 H 1.00131 0.70575 0.22417 0.0
H426 H 0.97528 0.70808 0.24766 0.0
H427 H 0.9771 0.72397 0.21641 0.0
C428 C 0.89218 0.68532 0.28468 0.0
C429 C 0.89165 0.71204 0.27876 0.0
C430 C 0.90531 0.67145 0.26783 0.0
C431 C 0.91842 0.68412 0.24489 0.0
C432 C 0.91843 0.71102 0.23936 0.0
H433 H 0.97652 0.63906 0.0996 0.0
H434 H 0.95791 0.65934 0.13563 0.0
C435 C 0.90548 0.72486 0.25613 0.0
C436 C 0.93045 0.66887 0.22578 0.0
H437 H 0.98859 0.67502 0.18777 0.0
C438 C 0.91286 0.64366 0.2159 0.0
C439 C 0.95842 0.67987 0.21595 0.0
C440 C 0.97918 0.70575 0.22681 0.0
C441 C 0.92206 0.62987 0.19585 0.0
C442 C 0.94953 0.64153 0.18535 0.0
C443 C 0.96739 0.66628 0.19563 0.0
C444 C 0.95999 0.62854 0.16342 0.0
C445 C 0.9021 0.60333 0.18537 0.0
C446 C 0.96734 0.60447 0.16707 0.0
C447 C 0.97817 0.5929 0.14655 0.0
C448 C 0.98173 0.60507 0.12187 0.0
C449 C 0.97395 0.62901 0.11825 0.0
C450 C 0.96338 0.64071 0.13885 0.0
H451 H 0.8804 0.59863 0.19351 0.0
H452 H 0.90107 0.60449 0.16405 0.0
H453 H 0.91014 0.58601 0.19012 0.0
H454 H 0.96507 0.59486 0.1859 0.0
H455 H 0.98393 0.57449 0.1501 0.0
H456 H 0.40107 0.28582 0.19395 0.0
H457 H 0.42999 0.25862 0.17708 0.0
H458 H 0.35638 0.18603 0.17587 0.0
H459 H 0.32731 0.21305 0.1924 0.0
H460 H 0.43619 0.20767 0.19977 0.0
H461 H 0.39095 0.19342 0.1013 0.0
H462 H 0.38801 0.22029 0.12274 0.0
H463 H 0.36554 0.18533 0.12727 0.0
C464 C 0.39104 0.26411 0.18989 0.0
C465 C 0.36192 0.25156 0.19444 0.0
C466 C 0.40759 0.2486 0.18042 0.0
C467 C 0.39523 0.22042 0.17507 0.0
C468 C 0.36623 0.20783 0.17968 0.0
H469 H 0.44546 0.08771 0.11142 0.0
H470 H 0.42136 0.11757 0.13104 0.0
C471 C 0.34971 0.22324 0.18928 0.0
C472 C 0.41255 0.20401 0.16472 0.0
H473 H 0.42071 0.16711 0.11209 0.0
C474 C 0.43303 0.19892 0.18054 0.0
C475 C 0.40827 0.1927 0.13966 0.0
C476 C 0.38718 0.19833 0.1216 0.0
C477 C 0.44877 0.18198 0.17222 0.0
C478 C 0.44423 0.17036 0.14723 0.0
C479 C 0.42408 0.17593 0.13128 0.0
C480 C 0.45953 0.15179 0.13728 0.0
C481 C 0.46937 0.17592 0.19055 0.0
C482 C 0.4891 0.16102 0.13449 0.0
C483 C 0.50303 0.14386 0.12341 0.0
C484 C 0.48757 0.11733 0.11463 0.0
C485 C 0.45803 0.10804 0.11789 0.0
C486 C 0.44418 0.1251 0.12909 0.0
H487 H 0.46509 0.18043 0.21084 0.0
H488 H 0.46856 0.15398 0.1892 0.0
H489 H 0.49113 0.18906 0.18546 0.0
H490 H 0.50132 0.18174 0.14019 0.0
H491 H 0.52579 0.15171 0.121 0.0
H492 H 0.10326 0.84077 0.70833 0.0
H493 H 0.08882 0.87912 0.69198 0.0
H494 H 0.17205 0.91647 0.65936 0.0
H495 H 0.18636 0.87771 0.67472 0.0
H496 H 0.1104 0.93609 0.7005 0.0
H497 H 0.12033 0.91042 0.59751 0.0
H498 H 0.12068 0.88691 0.62334 0.0
H499 H 0.15181 0.91544 0.61603 0.0
C500 C 0.11845 0.85705 0.69753 0.0
C501 C 0.14589 0.85602 0.69262 0.0
C502 C 0.11023 0.87905 0.68838 0.0
C503 C 0.12922 0.90038 0.67411 0.0
C504 C 0.15691 0.89995 0.66994 0.0
H505 H 0.10791 0.04079 0.59188 0.0
H506 H 0.12772 0.00879 0.61368 0.0
C507 C 0.16514 0.87792 0.67901 0.0
C508 C 0.11979 0.92271 0.66311 0.0
H509 H 0.10935 0.95129 0.60616 0.0
C510 C 0.11017 0.93946 0.67988 0.0
C511 C 0.1195 0.927 0.63619 0.0
C512 C 0.12838 0.90887 0.61716 0.0
C513 C 0.10042 0.96053 0.67044 0.0
C514 C 0.09996 0.96466 0.64354 0.0
C515 C 0.10986 0.94812 0.62679 0.0
C516 C 0.0884 0.98536 0.63217 0.0
C517 C 0.09096 0.97838 0.68931 0.0
C518 C 0.05973 0.98279 0.63541 0.0
C519 C 0.04829 1.00101 0.62295 0.0
C520 C 0.06531 0.02206 0.60692 0.0
C521 C 0.09418 0.02486 0.60411 0.0
C522 C 0.10556 0.00659 0.61653 0.0
H523 H 0.09951 0.97749 0.70888 0.0
H524 H 0.09769 1.00023 0.68278 0.0
H525 H 0.06754 0.97095 0.69074 0.0
H526 H 0.04599 0.96622 0.647 0.0
H527 H 0.02597 0.99819 0.6255 0.0
H528 H 0.7492 0.46261 0.89466 0.0
H529 H 0.79468 0.48673 0.91511 0.0
H530 H 0.76527 0.44185 0.98558 0.0
H531 H 0.71994 0.41822 0.96568 0.0
H532 H 0.80623 0.51945 0.96272 0.0
H533 H 0.84027 0.42615 0.96824 0.0
H534 H 0.8124 0.42835 0.94721 0.0
H535 H 0.80552 0.42177 0.98103 0.0
C536 C 0.75237 0.45803 0.91456 0.0
C537 C 0.73103 0.43803 0.92831 0.0
C538 C 0.77839 0.47176 0.92619 0.0
C539 C 0.78358 0.46566 0.95172 0.0
C540 C 0.76202 0.44641 0.96569 0.0
H541 H 0.92355 0.5122 0.05922 0.0
H542 H 0.87831 0.49212 0.03737 0.0
C543 C 0.7361 0.43282 0.95418 0.0
C544 C 0.81141 0.47924 0.96401 0.0
H545 H 0.86764 0.46551 0.99133 0.0
C546 C 0.81981 0.50775 0.9688 0.0
C547 C 0.82901 0.4639 0.97209 0.0
C548 C 0.82155 0.43339 0.96673 0.0
C549 C 0.84495 0.52119 0.98206 0.0
C550 C 0.86252 0.5058 0.99026 0.0
C551 C 0.85419 0.47733 0.9852 0.0
C552 C 0.88974 0.51877 1.00392 0.0
C553 C 0.85195 0.55157 0.98787 0.0
C554 C 0.91139 0.54032 0.9924 0.0
C555 C 0.93721 0.55194 1.0049 0.0
C556 C 0.94219 0.54206 0.02915 0.0
C557 C 0.92051 0.52038 0.04063 0.0
C558 C 0.8946 0.50884 0.02812 0.0
H559 H 0.83285 0.55828 0.98723 0.0
H560 H 0.86176 0.55663 1.00713 0.0
H561 H 0.86717 0.56363 0.97318 0.0
H562 H 0.90852 0.54793 0.97349 0.0
H563 H 0.9534 0.56848 0.99534 0.0
H564 H 0.77705 0.70523 0.38784 0.0
H565 H 0.73486 0.68022 0.41285 0.0
H566 H 0.78742 0.67376 0.47652 0.0
H567 H 0.82966 0.6993 0.45175 0.0
H568 H 0.71494 0.63013 0.43573 0.0
H569 H 0.73703 0.71214 0.51012 0.0
H570 H 0.75654 0.71642 0.48017 0.0
H571 H 0.76491 0.69725 0.50627 0.0
C572 C 0.77964 0.69804 0.40699 0.0
C573 C 0.80668 0.7044 0.41789 0.0
C574 C 0.75549 0.68385 0.42134 0.0
C575 C 0.75787 0.67567 0.44683 0.0
C576 C 0.78495 0.68055 0.45719 0.0
H577 H 0.61267 0.56883 0.53491 0.0
H578 H 0.65732 0.58681 0.51106 0.0
C579 C 0.80909 0.69498 0.44296 0.0
C580 C 0.73198 0.66307 0.46279 0.0
H581 H 0.69824 0.672 0.51813 0.0
C582 C 0.7113 0.63924 0.45378 0.0
C583 C 0.72697 0.67521 0.48616 0.0
C584 C 0.74738 0.70181 0.49617 0.0
C585 C 0.68583 0.62725 0.46743 0.0
C586 C 0.68116 0.63901 0.49112 0.0
C587 C 0.70188 0.6628 0.50013 0.0
C588 C 0.65439 0.62792 0.50626 0.0
C589 C 0.66382 0.60266 0.45585 0.0
C590 C 0.63831 0.64524 0.51243 0.0
C591 C 0.61303 0.63516 0.52646 0.0
C592 C 0.60315 0.60745 0.53461 0.0
C593 C 0.6195 0.59021 0.52878 0.0
C594 C 0.64496 0.60041 0.51493 0.0
H595 H 0.66728 0.60098 0.43482 0.0
H596 H 0.66502 0.58351 0.46513 0.0
H597 H 0.64219 0.60387 0.45901 0.0
H598 H 0.64513 0.66656 0.50608 0.0
H599 H 0.60102 0.64903 0.53052 0.0
H600 H 0.26031 0.35761 0.20238 0.0
H601 H 0.2186 0.37051 0.19123 0.0
H602 H 0.26149 0.41249 0.12328 0.0
H603 H 0.30304 0.39915 0.13385 0.0
H604 H 0.23555 0.44391 0.15626 0.0
H605 H 0.16227 0.34026 0.13054 0.0
H606 H 0.18036 0.34253 0.16072 0.0
H607 H 0.20021 0.34793 0.13109 0.0
C608 C 0.26075 0.3692 0.18483 0.0
C609 C 0.28508 0.37733 0.16901 0.0
C610 C 0.23691 0.37659 0.17854 0.0
C611 C 0.23694 0.39224 0.15634 0.0
C612 C 0.26109 0.40038 0.1405 0.0
H613 H 0.10149 0.43615 0.08259 0.0
H614 H 0.14087 0.41894 0.09262 0.0
C615 C 0.28487 0.39289 0.14668 0.0
C616 C 0.2122 0.40106 0.15011 0.0
H617 H 0.14287 0.37702 0.13241 0.0
C618 C 0.21529 0.42932 0.15102 0.0
C619 C 0.18592 0.38194 0.1431 0.0
C620 C 0.18187 0.35146 0.14107 0.0
C621 C 0.19259 0.43896 0.14544 0.0
C622 C 0.16616 0.41981 0.13891 0.0
C623 C 0.16315 0.39158 0.13762 0.0
C624 C 0.14149 0.42889 0.13318 0.0
C625 C 0.19705 0.46959 0.14629 0.0
C626 C 0.12861 0.43971 0.15277 0.0
C627 C 0.10615 0.4495 0.14713 0.0
C628 C 0.09624 0.4487 0.12176 0.0
C629 C 0.10886 0.4373 0.10226 0.0
C630 C 0.13122 0.42734 0.10797 0.0
H631 H 0.21984 0.48189 0.1469 0.0
H632 H 0.18741 0.4761 0.12925 0.0
H633 H 0.18659 0.47442 0.1638 0.0
H634 H 0.13617 0.44088 0.17238 0.0
H635 H 0.09706 0.4584 0.16252 0.0
H636 H 0.68779 0.33787 0.91908 0.0
H637 H 0.66718 0.29286 0.9398 0.0
H638 H 0.5881 0.30916 0.94947 0.0
H639 H 0.60875 0.35468 0.92955 0.0
H640 H 0.64119 0.28648 0.99302 0.0
H641 H 0.56847 0.22886 0.91667 0.0
H642 H 0.59901 0.25844 0.90956 0.0
H643 H 0.56813 0.26323 0.92404 0.0
C644 C 0.66598 0.33195 0.92554 0.0
C645 C 0.65005 0.35015 0.9227 0.0
C646 C 0.65421 0.30612 0.93729 0.0
C647 C 0.6261 0.29761 0.94613 0.0
C648 C 0.60976 0.31519 0.94254 0.0
H649 H 0.5188 0.1502 0.02418 0.0
H650 H 0.53824 0.19371 1.00076 0.0
C651 C 0.62159 0.34118 0.93098 0.0
C652 C 0.61447 0.27111 0.96043 0.0
H653 H 0.56681 0.20622 0.95654 0.0
C654 C 0.62498 0.26887 0.98505 0.0
C655 C 0.59319 0.24829 0.95009 0.0
C656 C 0.58153 0.24954 0.92357 0.0
C657 C 0.61449 0.24457 0.99979 0.0
C658 C 0.59347 0.22146 0.9893 0.0
C659 C 0.58296 0.22379 0.96462 0.0
C660 C 0.58185 0.19484 1.00369 0.0
C661 C 0.62546 0.2443 0.02677 0.0
C662 C 0.59975 0.18061 1.01299 0.0
C663 C 0.58869 0.15579 0.0267 0.0
C664 C 0.55939 0.14434 0.03103 0.0
C665 C 0.54147 0.15835 0.02126 0.0
C666 C 0.55257 0.18328 1.00779 0.0
H667 H 0.63448 0.26554 0.03456 0.0
H668 H 0.60849 0.23222 0.04007 0.0
H669 H 0.64255 0.23472 0.02646 0.0
H670 H 0.62233 0.18857 1.00949 0.0
H671 H 0.60311 0.14545 0.03366 0.0
H672 H 0.84853 0.79712 0.43656 0.0
H673 H 0.87311 0.83984 0.45906 0.0
H674 H 0.95204 0.83976 0.42454 0.0
H675 H 0.92742 0.79675 0.40179 0.0
H676 H 0.91564 0.85012 0.49443 0.0
H677 H 0.9514 0.91755 0.40869 0.0
H678 H 0.92529 0.88377 0.40675 0.0
H679 H 0.96221 0.88719 0.40879 0.0
C680 C 0.87117 0.80601 0.43385 0.0
C681 C 0.88604 0.79332 0.41748 0.0
C682 C 0.88518 0.83057 0.44666 0.0
C683 C 0.91439 0.84324 0.44335 0.0
C684 C 0.92939 0.8307 0.42703 0.0
H685 H 0.03135 0.99268 0.50946 0.0
H686 H 0.00957 0.94923 0.48686 0.0
C687 C 0.91532 0.80607 0.41409 0.0
C688 C 0.92894 0.86923 0.4575 0.0
H689 H 0.96754 0.93724 0.44926 0.0
C690 C 0.92696 0.86917 0.48454 0.0
C691 C 0.94374 0.89412 0.44462 0.0
C692 C 0.94564 0.89587 0.41561 0.0
C693 C 0.93948 0.89318 0.49902 0.0
C694 C 0.95406 0.91811 0.48614 0.0
C695 C 0.95632 0.91813 0.45913 0.0
C696 C 0.96712 0.9444 0.50031 0.0
C697 C 0.9374 0.89153 0.52803 0.0
C698 C 0.95048 0.95636 0.5153 0.0
C699 C 0.96288 0.98129 0.52833 0.0
C700 C 0.9922 0.99487 0.52655 0.0
C701 C 0.00874 0.98284 0.51141 0.0
C702 C 0.99632 0.95797 0.49838 0.0
H703 H 0.93212 0.86991 0.53502 0.0
H704 H 0.95752 0.90408 0.53698 0.0
H705 H 0.92042 0.89973 0.53466 0.0
H706 H 0.92782 0.94655 0.51671 0.0
H707 H 0.94945 0.98997 0.53967 0.0
H708 H 0.26855 0.79357 0.67255 0.0
H709 H 0.29987 0.77012 0.65347 0.0
H710 H 0.32623 0.75503 0.72945 0.0
H711 H 0.29435 0.77743 0.7486 0.0
H712 H 0.35753 0.78615 0.65825 0.0
H713 H 0.31016 0.67999 0.69608 0.0
H714 H 0.29161 0.70514 0.69668 0.0
H715 H 0.31714 0.70548 0.72109 0.0
C716 C 0.28055 0.78468 0.68517 0.0
C717 C 0.27904 0.78739 0.71207 0.0
C718 C 0.29854 0.77146 0.67426 0.0
C719 C 0.31509 0.76054 0.69006 0.0
C720 C 0.31322 0.7628 0.7169 0.0
H721 H 0.45697 0.70088 0.67721 0.0
H722 H 0.41893 0.71891 0.69038 0.0
C723 C 0.29526 0.77593 0.72781 0.0
C724 C 0.33588 0.74855 0.67863 0.0
H725 H 0.35794 0.69177 0.6803 0.0
C726 C 0.3574 0.76538 0.66273 0.0
C727 C 0.33565 0.72144 0.68455 0.0
C728 C 0.31223 0.70188 0.70032 0.0
C729 C 0.37936 0.75619 0.65344 0.0
C730 C 0.37959 0.72945 0.6601 0.0
C731 C 0.35773 0.71236 0.67543 0.0
C732 C 0.40277 0.71907 0.65186 0.0
C733 C 0.40268 0.77542 0.63733 0.0
C734 C 0.40613 0.7132 0.62586 0.0
C735 C 0.42782 0.70294 0.61829 0.0
C736 C 0.44652 0.69844 0.63661 0.0
C737 C 0.44313 0.70448 0.66263 0.0
C738 C 0.42133 0.71458 0.6702 0.0
H739 H 0.40189 0.79691 0.63753 0.0
H740 H 0.42369 0.77551 0.64435 0.0
H741 H 0.40064 0.76807 0.61709 0.0
H742 H 0.39182 0.71633 0.61149 0.0
H743 H 0.43004 0.69864 0.59808 0.0
H744 H 0.7528 0.88671 0.86059 0.0
H745 H 0.77251 0.91291 0.82148 0.0
H746 H 0.80502 0.84791 0.79725 0.0
H747 H 0.78451 0.82124 0.83556 0.0
H748 H 0.82815 0.9323 0.80757 0.0
H749 H 0.76802 0.86178 0.73198 0.0
H750 H 0.75744 0.85811 0.76549 0.0
H751 H 0.78477 0.8449 0.75395 0.0
C752 C 0.76367 0.87779 0.84667 0.0
C753 C 0.76719 0.85195 0.85125 0.0
C754 C 0.77504 0.89283 0.82441 0.0
C755 C 0.78989 0.88218 0.80627 0.0
C756 C 0.79313 0.85628 0.81067 0.0
H757 H 0.91216 0.95419 0.68719 0.0
H758 H 0.88224 0.92493 0.72058 0.0
C759 C 0.78175 0.84124 0.83281 0.0
C760 C 0.80375 0.89887 0.78363 0.0
H761 H 0.8102 0.89713 0.71805 0.0
C762 C 0.82396 0.92474 0.78799 0.0
C763 C 0.79825 0.88898 0.75807 0.0
C764 C 0.77573 0.86204 0.75204 0.0
C765 C 0.83942 0.94059 0.76754 0.0
C766 C 0.83454 0.93028 0.74218 0.0
C767 C 0.81398 0.90474 0.73765 0.0
C768 C 0.85088 0.94598 0.72022 0.0
C769 C 0.86129 0.96809 0.77307 0.0
C770 C 0.84264 0.96696 0.70872 0.0
C771 C 0.8595 0.98355 0.68954 0.0
C772 C 0.88499 0.97951 0.68165 0.0
C773 C 0.89257 0.9577 0.69262 0.0
C774 C 0.87561 0.94106 0.71177 0.0
H775 H 0.86325 0.97278 0.79401 0.0
H776 H 0.8822 0.96827 0.7654 0.0
H777 H 0.85552 0.98474 0.7631 0.0
H778 H 0.82353 0.97092 0.71502 0.0
H779 H 0.85281 0.99986 0.68119 0.0
H780 H 0.78037 0.28743 0.37156 0.0
H781 H 0.75213 0.27589 0.33215 0.0
H782 H 0.75933 0.19396 0.33349 0.0
H783 H 0.78679 0.205 0.37298 0.0
H784 H 0.76625 0.25649 0.28329 0.0
H785 H 0.67343 0.1809 0.33005 0.0
H786 H 0.70058 0.20588 0.34812 0.0
H787 H 0.7061 0.17464 0.33687 0.0
C788 C 0.7758 0.26693 0.36347 0.0
C789 C 0.78582 0.24713 0.37536 0.0
C790 C 0.75981 0.26044 0.34094 0.0
C791 C 0.75336 0.23398 0.33018 0.0
C792 C 0.76375 0.21438 0.34174 0.0
H793 H 0.6819 0.13544 0.20327 0.0
H794 H 0.70732 0.15954 0.24069 0.0
C795 C 0.77972 0.22084 0.36415 0.0
C796 C 0.73581 0.22648 0.30681 0.0
H797 H 0.67637 0.17848 0.28401 0.0
C798 C 0.74633 0.2398 0.28344 0.0
C799 C 0.70973 0.20486 0.30719 0.0
C800 C 0.69662 0.19091 0.33195 0.0
C801 C 0.73222 0.23082 0.26015 0.0
C802 C 0.70703 0.20816 0.26043 0.0
C803 C 0.69583 0.19577 0.28393 0.0
C804 C 0.69329 0.19523 0.23645 0.0
C805 C 0.74491 0.24458 0.23522 0.0
C806 C 0.67718 0.20752 0.22159 0.0
C807 C 0.66261 0.1938 0.20001 0.0
C808 C 0.66408 0.16764 0.193 0.0
C809 C 0.68074 0.15577 0.20778 0.0
C810 C 0.69512 0.1694 0.2293 0.0
H811 H 0.76551 0.26094 0.23815 0.0
H812 H 0.74806 0.22896 0.22164 0.0
H813 H 0.73012 0.25398 0.22609 0.0
H814 H 0.67539 0.2274 0.22701 0.0
H815 H 0.65002 0.2035 0.18896 0.0
H816 H 0.38754 0.6312 0.32188 0.0
H817 H 0.4003 0.62256 0.36567 0.0
H818 H 0.44509 0.70934 0.37495 0.0
H819 H 0.43231 0.71806 0.33074 0.0
H820 H 0.47758 0.67555 0.38702 0.0
H821 H 0.3742 0.63764 0.43735 0.0
H822 H 0.37454 0.62025 0.40734 0.0
H823 H 0.37902 0.65663 0.40739 0.0
C824 C 0.39954 0.64855 0.33347 0.0
C825 C 0.40883 0.67533 0.3229 0.0
C826 C 0.40673 0.64361 0.35858 0.0
C827 C 0.42345 0.66529 0.37383 0.0
C828 C 0.432 0.69228 0.36366 0.0
H829 H 0.46976 0.63328 0.53229 0.0
H830 H 0.45173 0.65265 0.49548 0.0
C831 C 0.42454 0.69729 0.33848 0.0
C832 C 0.43407 0.6591 0.39921 0.0
H833 H 0.41252 0.62573 0.45661 0.0
C834 C 0.46334 0.66503 0.40238 0.0
C835 C 0.41562 0.64556 0.41945 0.0
C836 C 0.38411 0.63988 0.41787 0.0
C837 C 0.47452 0.65664 0.42456 0.0
C838 C 0.45596 0.64162 0.4441 0.0
C839 C 0.42678 0.63691 0.44154 0.0
C840 C 0.46642 0.62964 0.46665 0.0
C841 C 0.50616 0.66373 0.42678 0.0
C842 C 0.4802 0.60984 0.46283 0.0
C843 C 0.4904 0.59866 0.48377 0.0
C844 C 0.48706 0.60693 0.50918 0.0
C845 C 0.47281 0.62645 0.51303 0.0
C846 C 0.46247 0.63756 0.492 0.0
H847 H 0.51747 0.68155 0.4143 0.0
H848 H 0.51306 0.6687 0.447 0.0
H849 H 0.5125 0.64573 0.42056 0.0
H850 H 0.48304 0.60295 0.44355 0.0
H851 H 0.50111 0.58363 0.47994 0.0
H852 H 0.19301 0.46638 0.85836 0.0
H853 H 0.17602 0.4941 0.88918 0.0
H854 H 0.09246 0.46275 0.85699 0.0
H855 H 0.10978 0.43567 0.82556 0.0
H856 H 0.10501 0.51722 0.87213 0.0
H857 H 0.12986 0.45506 0.95046 0.0
H858 H 0.16005 0.47313 0.93113 0.0
H859 H 0.13131 0.44638 0.9169 0.0
C860 C 0.17124 0.46615 0.85737 0.0
C861 C 0.15274 0.44912 0.83948 0.0
C862 C 0.16144 0.48169 0.8752 0.0
C863 C 0.13275 0.47998 0.87594 0.0
C864 C 0.11464 0.46434 0.85694 0.0
H865 H 0.03977 0.50506 1.01021 0.0
H866 H 0.06026 0.48775 0.97375 0.0
C867 C 0.12456 0.449 0.83888 0.0
C868 C 0.12127 0.49274 0.89757 0.0
H869 H 0.11409 0.49216 0.96321 0.0
C870 C 0.10704 0.51179 0.89205 0.0
C871 C 0.12341 0.48532 0.92361 0.0
C872 C 0.13672 0.46366 0.93094 0.0
C873 C 0.09517 0.52375 0.9118 0.0
C874 C 0.09801 0.51687 0.93787 0.0
C875 C 0.11213 0.49772 0.94331 0.0
C876 C 0.08535 0.52807 0.95981 0.0
C877 C 0.07897 0.54301 0.90447 0.0
C878 C 0.09277 0.55662 0.96449 0.0
C879 C 0.08092 0.56669 0.98543 0.0
C880 C 0.06156 0.54841 1.00229 0.0
C881 C 0.05452 0.51985 0.9977 0.0
C882 C 0.06626 0.50985 0.97678 0.0
H883 H 0.07246 0.54053 0.88395 0.0
H884 H 0.05978 0.53942 0.91674 0.0
H885 H 0.09262 0.56466 0.90727 0.0
H886 H 0.10795 0.57114 0.9521 0.0
H887 H 0.08697 0.58879 0.98839 0.0
H888 H 0.67051 0.88664 0.91574 0.0
H889 H 0.65639 0.92502 0.93278 0.0
H890 H 0.60002 0.86977 0.9869 0.0
H891 H 0.61547 0.83192 0.97148 0.0
H892 H 0.60736 0.93466 0.9344 0.0
H893 H 0.64217 0.9295 0.03446 0.0
H894 H 0.65151 0.91028 1.00866 0.0
H895 H 0.61773 0.89706 0.02481 0.0
C896 C 0.65553 0.88272 0.93162 0.0
C897 C 0.64431 0.85605 0.94227 0.0
C898 C 0.64725 0.90467 0.94116 0.0
C899 C 0.62754 0.90045 0.96149 0.0
C900 C 0.61582 0.87377 0.97169 0.0
H901 H 0.52518 1.00314 1.00485 0.0
H902 H 0.54542 0.97085 0.98355 0.0
C903 C 0.62436 0.85196 0.96247 0.0
C904 C 0.61881 0.9237 0.97185 0.0
H905 H 0.60979 0.95485 0.02798 0.0
C906 C 0.60818 0.93931 0.95483 0.0
C907 C 0.62039 0.9302 0.99844 0.0
C908 C 0.63387 0.91607 0.01757 0.0
C909 C 0.59829 0.96062 0.96377 0.0
C910 C 0.59814 0.96585 0.99058 0.0
C911 C 0.60951 0.95072 1.00746 0.0
C912 C 0.58633 0.98676 1.0018 0.0
C913 C 0.5886 0.97752 0.94429 0.0
C914 C 0.60224 1.00616 0.01958 0.0
C915 C 0.59042 0.02402 0.03231 0.0
C916 C 0.56254 0.0232 0.02724 0.0
C917 C 0.54685 1.00446 1.00887 0.0
C918 C 0.55851 0.98612 0.99654 0.0
H919 H 0.59896 0.97752 0.92524 0.0
H920 H 0.56546 0.96834 0.94158 0.0
H921 H 0.59318 0.99923 0.95072 0.0
H922 H 0.62372 0.00713 0.02402 0.0
H923 H 0.60304 0.03834 0.04631 0.0
H924 H 0.84283 0.21943 0.4709 0.0
H925 H 0.87629 0.19489 0.47995 0.0
H926 H 0.91613 0.21894 0.4058 0.0
H927 H 0.88291 0.24446 0.39674 0.0
H928 H 0.88333 0.15069 0.44842 0.0
H929 H 0.98247 0.23947 0.4592 0.0
H930 H 0.94799 0.24376 0.46208 0.0
H931 H 0.96113 0.23795 0.43106 0.0
C932 C 0.85905 0.22008 0.45668 0.0
C933 C 0.86041 0.2342 0.43321 0.0
C934 C 0.87799 0.2058 0.4618 0.0
C935 C 0.89872 0.20525 0.44361 0.0
C936 C 0.90041 0.21938 0.42017 0.0
H937 H 0.01833 0.115 0.48219 0.0
H938 H 0.99404 0.14009 0.45554 0.0
C939 C 0.88135 0.23377 0.41498 0.0
C940 C 0.9177 0.18898 0.44942 0.0
H941 H 0.98413 0.19545 0.47055 0.0
C942 C 0.90553 0.16038 0.45275 0.0
C943 C 0.94664 0.20172 0.45491 0.0
C944 C 0.96051 0.23243 0.45178 0.0
C945 C 0.92114 0.14438 0.46285 0.0
C946 C 0.94952 0.15739 0.46996 0.0
C947 C 0.96231 0.18565 0.46505 0.0
C948 C 0.96476 0.14271 0.48564 0.0
C949 C 0.90686 0.11386 0.46697 0.0
C950 C 0.95645 0.13632 0.51133 0.0
C951 C 0.97025 0.12224 0.52657 0.0
C952 C 0.99262 0.11418 0.51636 0.0
C953 C 1.00108 0.12081 0.49058 0.0
C954 C 0.98732 0.13516 0.47535 0.0
H955 H 0.88763 0.10588 0.45499 0.0
H956 H 0.92156 0.10207 0.46239 0.0
H957 H 0.90044 0.11009 0.48752 0.0
H958 H 0.93918 0.14222 0.5196 0.0
H959 H 0.96314 0.11747 0.5463 0.0
H960 H 0.31903 0.72659 0.17139 0.0
H961 H 0.27438 0.70398 0.14983 0.0
H962 H 0.24125 0.65851 0.21926 0.0
H963 H 0.28581 0.68175 0.24134 0.0
H964 H 0.24781 0.64815 0.1409 0.0
H965 H 0.17966 0.69246 0.20032 0.0
H966 H 0.21777 0.70615 0.20068 0.0
H967 H 0.19975 0.67508 0.21813 0.0
C968 C 0.30213 0.71215 0.1823 0.0
C969 C 0.30596 0.70635 0.20829 0.0
C970 C 0.27666 0.69901 0.16982 0.0
C971 C 0.25427 0.67979 0.18296 0.0
C972 C 0.25803 0.67362 0.20882 0.0
H973 H 0.10537 0.56798 0.10588 0.0
H974 H 0.1492 0.58703 0.13004 0.0
C975 C 0.28362 0.68676 0.22136 0.0
C976 C 0.22725 0.6661 0.16931 0.0
H977 H 0.15685 0.65952 0.16895 0.0
C978 C 0.2279 0.65054 0.14709 0.0
C979 C 0.20131 0.66948 0.1772 0.0
C980 C 0.19945 0.68687 0.20025 0.0
C981 C 0.2034 0.63834 0.13256 0.0
C982 C 0.17739 0.64145 0.14062 0.0
C983 C 0.17673 0.65698 0.16286 0.0
C984 C 0.15082 0.62965 0.12575 0.0
C985 C 0.20576 0.62289 0.10829 0.0
C986 C 0.1368 0.64716 0.11559 0.0
C987 C 0.11167 0.63634 0.10183 0.0
C988 C 0.09983 0.60769 0.098 0.0
C989 C 0.11392 0.59016 0.10823 0.0
C990 C 0.13909 0.60103 0.12201 0.0
H991 H 0.22803 0.62803 0.1015 0.0
H992 H 0.19765 0.60037 0.11218 0.0
H993 H 0.19298 0.62758 0.0926 0.0
H994 H 0.14537 0.6693 0.11825 0.0
H995 H 0.10143 0.65051 0.09436 0.0
H996 H 0.21492 0.44544 0.67224 0.0
H997 H 0.25922 0.47108 0.65043 0.0
H998 H 0.3048 0.47189 0.72078 0.0
H999 H 0.26062 0.4458 0.74261 0.0
H1000 H 0.30232 0.52241 0.66059 0.0
H1001 H 0.34145 0.43224 0.66798 0.0
H1002 H 0.30495 0.4296 0.6738 0.0
H1003 H 0.33105 0.44389 0.698 0.0
C1004 C 0.23434 0.45138 0.68315 0.0
C1005 C 0.23427 0.4434 0.70912 0.0
C1006 C 0.25963 0.46608 0.67067 0.0
C1007 C 0.28538 0.47294 0.68384 0.0
C1008 C 0.28521 0.46642 0.71014 0.0
H1009 H 0.45108 0.57688 0.63156 0.0
H1010 H 0.40554 0.55733 0.65337 0.0
C1011 C 0.25989 0.45179 0.72268 0.0
C1012 C 0.31245 0.48554 0.66964 0.0
H1013 H 0.37297 0.47317 0.65018 0.0
C1014 C 0.31781 0.5117 0.65834 0.0
C1015 C 0.3324 0.47131 0.66631 0.0
C1016 C 0.3272 0.4426 0.67694 0.0
C1017 C 0.34282 0.52419 0.64419 0.0
C1018 C 0.36309 0.51024 0.64144 0.0
C1019 C 0.3575 0.48391 0.65241 0.0
C1020 C 0.39038 0.52264 0.62747 0.0
C1021 C 0.34711 0.55201 0.63193 0.0
C1022 C 0.39727 0.50945 0.60581 0.0
C1023 C 0.42345 0.52054 0.59326 0.0
C1024 C 0.44339 0.54491 0.60232 0.0
C1025 C 0.43631 0.55809 0.62399 0.0
C1026 C 0.41014 0.54705 0.63643 0.0
H1027 H 0.32686 0.55657 0.6301 0.0
H1028 H 0.36143 0.56829 0.64413 0.0
H1029 H 0.35699 0.55316 0.61253 0.0
H1030 H 0.38239 0.4905 0.59864 0.0
H1031 H 0.42818 0.50978 0.57671 0.0
H1032 H 0.77358 0.8036 0.9615 0.0
H1033 H 0.80571 0.78174 0.98132 0.0
H1034 H 0.82414 0.75458 0.90647 0.0
H1035 H 0.79195 0.77601 0.88664 0.0
H1036 H 0.81322 0.71354 0.94751 0.0
H1037 H 0.89388 0.81378 0.97213 0.0
H1038 H 0.85815 0.80882 0.98271 0.0
H1039 H 0.86641 0.81119 0.9489 0.0
C1040 C 0.78425 0.79267 0.94936 0.0
C1041 C 0.78049 0.79171 0.92251 0.0
C1042 C 0.80271 0.7804 0.96066 0.0
C1043 C 0.81751 0.76688 0.94528 0.0
C1044 C 0.81301 0.76506 0.91863 0.0
H1045 H 0.96732 0.72104 0.96367 0.0
H1046 H 0.93046 0.74076 0.95167 0.0
C1047 C 0.79476 0.77743 0.90733 0.0
C1048 C 0.83834 0.75516 0.95663 0.0
H1049 H 0.9042 0.77326 0.98298 0.0
C1050 C 0.83301 0.72651 0.95551 0.0
C1051 C 0.86422 0.77227 0.96673 0.0
C1052 C 0.87128 0.80326 0.96761 0.0
C1053 C 0.85306 0.71449 0.96403 0.0
C1054 C 0.87898 0.73161 0.97405 0.0
C1055 C 0.88421 0.76023 0.9754 0.0
C1056 C 0.9015 0.72028 0.9821 0.0
C1057 C 0.84678 0.68369 0.9615 0.0
C1058 C 0.89754 0.70259 1.00343 0.0
C1059 C 0.91866 0.69145 1.01048 0.0
C1060 C 0.94414 0.69782 0.99632 0.0
C1061 C 0.94814 0.71593 0.97518 0.0
C1062 C 0.92705 0.72712 0.96821 0.0
H1063 H 0.82821 0.67417 0.94907 0.0
H1064 H 0.86534 0.67888 0.95335 0.0
H1065 H 0.84223 0.67403 0.98087 0.0
H1066 H 0.87813 0.69744 1.01463 0.0
H1067 H 0.91509 0.678 0.02715 0.0
H1068 H 0.3588 0.80703 0.22697 0.0
H1069 H 0.38213 0.85208 0.20707 0.0
H1070 H 0.45104 0.82393 0.18216 0.0
H1071 H 0.42816 0.77913 0.20284 0.0
H1072 H 0.47084 0.87619 0.19689 0.0
H1073 H 0.38109 0.86559 0.13135 0.0
H1074 H 0.37064 0.86425 0.16458 0.0
H1075 H 0.38328 0.83761 0.15147 0.0
C1076 C 0.3791 0.8106 0.2175 0.0
C1077 C 0.39159 0.7895 0.21638 0.0
C1078 C 0.39231 0.83628 0.2059 0.0
C1079 C 0.41799 0.84125 0.19236 0.0
C1080 C 0.43114 0.82062 0.19227 0.0
H1081 H 0.47721 0.97061 0.07584 0.0
H1082 H 0.45818 0.92698 0.09925 0.0
C1083 C 0.41811 0.79504 0.20421 0.0
C1084 C 0.4308 0.86763 0.17785 0.0
H1085 H 0.41661 0.90952 0.13215 0.0
C1086 C 0.45899 0.88342 0.18267 0.0
C1087 C 0.41565 0.87691 0.15883 0.0
C1088 C 0.38611 0.86006 0.15102 0.0
C1089 C 0.47222 0.9083 0.16941 0.0
C1090 C 0.45661 0.91824 0.1513 0.0
C1091 C 0.42857 0.90222 0.14621 0.0
C1092 C 0.46894 0.94493 0.13711 0.0
C1093 C 0.50305 0.92322 0.17452 0.0
C1094 C 0.48115 0.9698 0.15044 0.0
C1095 C 0.49242 0.99477 0.13704 0.0
C1096 C 0.49119 0.9956 0.10997 0.0
C1097 C 0.4785 0.97078 0.09667 0.0
C1098 C 0.46759 0.94577 0.11007 0.0
H1099 H 0.51393 0.90894 0.18206 0.0
H1100 H 0.51427 0.93326 0.15679 0.0
H1101 H 0.50477 0.93938 0.1893 0.0
H1102 H 0.48171 0.97002 0.17129 0.0
H1103 H 0.50173 0.0135 0.14796 0.0
H1104 H 0.11574 0.34671 0.71568 0.0
H1105 H 0.09556 0.30273 0.69284 0.0
H1106 H 0.17888 0.30629 0.66661 0.0
H1107 H 0.19918 0.34968 0.68967 0.0
H1108 H 0.09953 0.29064 0.63879 0.0
H1109 H 0.14752 0.22964 0.70121 0.0
H1110 H 0.14508 0.26286 0.71065 0.0
H1111 H 0.17215 0.26078 0.68841 0.0
C1112 C 0.12974 0.33802 0.70516 0.0
C1113 C 0.15907 0.35181 0.70446 0.0
C1114 C 0.11818 0.31298 0.692 0.0
C1115 C 0.13575 0.30109 0.6782 0.0
C1116 C 0.16495 0.31489 0.67735 0.0
H1117 H 0.08929 0.16804 0.56412 0.0
H1118 H 0.10851 0.21256 0.5861 0.0
C1119 C 0.17648 0.33989 0.69036 0.0
C1120 C 0.12372 0.27425 0.66468 0.0
H1121 H 0.12546 0.20791 0.66303 0.0
C1122 C 0.10511 0.27251 0.64411 0.0
C1123 C 0.13085 0.25056 0.67177 0.0
C1124 C 0.14979 0.25085 0.69436 0.0
C1125 C 0.0938 0.24781 0.63021 0.0
C1126 C 0.10152 0.22431 0.6369 0.0
C1127 C 0.11979 0.22599 0.65772 0.0
C1128 C 0.09004 0.19744 0.62327 0.0
C1129 C 0.07329 0.24691 0.60879 0.0
C1130 C 0.07383 0.17399 0.63692 0.0
C1131 C 0.06295 0.14856 0.62449 0.0
C1132 C 0.06818 0.14587 0.59806 0.0
C1133 C 0.08477 0.16934 0.58444 0.0
C1134 C 0.09561 0.19487 0.59695 0.0
H1135 H 0.0646 0.2644 0.60995 0.0
H1136 H 0.08437 0.24821 0.58997 0.0
H1137 H 0.05545 0.22724 0.60927 0.0
H1138 H 0.06935 0.17542 0.65725 0.0
H1139 H 0.05033 0.131 0.63566 0.0
H1140 H 0.76736 0.35456 0.51499 0.0
H1141 H 0.73591 0.38258 0.51206 0.0
H1142 H 0.70167 0.34155 0.44133 0.0
H1143 H 0.73214 0.31249 0.44472 0.0
H1144 H 0.7275 0.41847 0.47534 0.0
H1145 H 0.63185 0.32634 0.48736 0.0
H1146 H 0.66709 0.325 0.49262 0.0
H1147 H 0.65424 0.32515 0.46039 0.0
C1148 C 0.75312 0.35145 0.49881 0.0
C1149 C 0.75192 0.33096 0.48033 0.0
C1150 C 0.73534 0.36765 0.49705 0.0
C1151 C 0.71607 0.36373 0.47676 0.0
C1152 C 0.71598 0.34448 0.45743 0.0
H1153 H 0.57789 0.43496 0.46523 0.0
H1154 H 0.61267 0.412 0.45386 0.0
C1155 C 0.73366 0.32812 0.45925 0.0
C1156 C 0.69514 0.37878 0.47688 0.0
H1157 H 0.62456 0.36943 0.48388 0.0
C1158 C 0.70497 0.40777 0.47698 0.0
C1159 C 0.66575 0.36472 0.47903 0.0
C1160 C 0.65401 0.3336 0.48007 0.0
C1161 C 0.68622 0.42308 0.47971 0.0
C1162 C 0.65699 0.40899 0.48265 0.0
C1163 C 0.64703 0.38008 0.48157 0.0
C1164 C 0.63662 0.42371 0.48891 0.0
C1165 C 0.69781 0.45419 0.47976 0.0
C1166 C 0.63842 0.43745 0.51254 0.0
C1167 C 0.61843 0.45021 0.51927 0.0
C1168 C 0.59623 0.44949 0.50245 0.0
C1169 C 0.5945 0.43563 0.47875 0.0
C1170 C 0.61446 0.42271 0.47211 0.0
H1171 H 0.7191 0.46175 0.47058 0.0
H1172 H 0.68342 0.46331 0.46952 0.0
H1173 H 0.69973 0.46166 0.49996 0.0
H1174 H 0.65501 0.43786 0.52602 0.0
H1175 H 0.62009 0.46019 0.53787 0.0
loop_
_geom_bond_atom_site_label_1
_geom_bond_atom_site_label_2
_geom_bond_distance
_geom_bond_site_symmetry_2
_ccdc_geom_bond_type
H0 C1 0.949 . S
C1 H0 0.949 . S
C1 C2 1.395 . S
C1 C3 1.391 . S
C2 C1 1.395 . S
C2 C5 1.390 . S
C3 C1 1.391 . S
C3 C7 1.387 . S
C3 C8 1.491 . S
H4 C5 0.950 . S
C5 C2 1.390 . S
C5 H4 0.950 . S
C5 C6 1.378 . S
C6 C5 1.378 . S
C6 C7 1.409 . S
C7 C3 1.387 . S
C7 C6 1.409 . S
C7 H9 0.951 . S
C8 C3 1.491 . S
C8 C10 1.382 . S
C8 C12 1.404 . S
H9 C7 0.951 . S
C10 C8 1.382 . S
C10 C11 1.390 . S
C10 H15 0.949 . S
C11 C10 1.390 . S
C11 C16 1.399 . S
C12 C8 1.404 . S
C12 H13 0.950 . S
C12 C14 1.375 . S
H13 C12 0.950 . S
C14 C12 1.375 . S
C14 C16 1.382 . S
C14 H18 0.950 . S
H15 C10 0.949 . S
C16 C11 1.399 . S
C16 C14 1.382 . S
C16 H17 0.952 . S
H17 C16 0.952 . S
H18 C14 0.950 . S
H19 C20 0.949 . S
C20 H19 0.949 . S
C20 C21 1.395 . S
C20 C22 1.391 . S
C21 C20 1.395 . S
C21 C24 1.390 . S
C22 C20 1.391 . S
C22 C26 1.387 . S
C22 C27 1.491 . S
H23 C24 0.950 . S
C24 C21 1.390 . S
C24 H23 0.950 . S
C24 C25 1.378 . S
C25 C24 1.378 . S
C25 C26 1.409 . S
C26 C22 1.387 . S
C26 C25 1.409 . S
C26 H28 0.951 . S
C27 C22 1.491 . S
C27 C29 1.382 . S
C27 C31 1.404 . S
H28 C26 0.951 . S
C29 C27 1.382 . S
C29 C30 1.390 . S
C29 H34 0.949 . S
C30 C29 1.390 . S
C30 C35 1.399 . S
C31 C27 1.404 . S
C31 H32 0.950 . S
C31 C33 1.375 . S
H32 C31 0.950 . S
C33 C31 1.375 . S
C33 C35 1.382 . S
C33 H37 0.950 . S
H34 C29 0.949 . S
C35 C30 1.399 . S
C35 C33 1.382 . S
C35 H36 0.952 . S
H36 C35 0.952 . S
H37 C33 0.950 . S
H38 C39 0.949 . S
C39 H38 0.949 . S
C39 C40 1.395 . S
C39 C41 1.391 . S
C40 C39 1.395 . S
C40 C43 1.390 . S
C41 C39 1.391 . S
C41 C45 1.387 . S
C41 C46 1.491 . S
H42 C43 0.950 . S
C43 C40 1.390 . S
C43 H42 0.950 . S
C43 C44 1.378 . S
C44 C43 1.378 . S
C44 C45 1.409 . S
C45 C41 1.387 . S
C45 C44 1.409 . S
C45 H47 0.951 . S
C46 C41 1.491 . S
C46 C48 1.382 . S
C46 C50 1.404 . S
H47 C45 0.951 . S
C48 C46 1.382 . S
C48 C49 1.390 . S
C48 H53 0.949 . S
C49 C48 1.390 . S
C49 C54 1.399 . S
C50 C46 1.404 . S
C50 H51 0.950 . S
C50 C52 1.375 . S
H51 C50 0.950 . S
C52 C50 1.375 . S
C52 C54 1.382 . S
C52 H56 0.950 . S
H53 C48 0.949 . S
C54 C49 1.399 . S
C54 C52 1.382 . S
C54 H55 0.952 . S
H55 C54 0.952 . S
H56 C52 0.950 . S
H57 C58 0.949 . S
C58 H57 0.949 . S
C58 C59 1.395 . S
C58 C60 1.391 . S
C59 C58 1.395 . S
C59 C62 1.390 . S
C60 C58 1.391 . S
C60 C64 1.387 . S
C60 C65 1.491 . S
H61 C62 0.950 . S
C62 C59 1.390 . S
C62 H61 0.950 . S
C62 C63 1.378 . S
C63 C62 1.378 . S
C63 C64 1.409 . S
C64 C60 1.387 . S
C64 C63 1.409 . S
C64 H66 0.951 . S
C65 C60 1.491 . S
C65 C67 1.382 . S
C65 C69 1.404 . S
H66 C64 0.951 . S
C67 C65 1.382 . S
C67 C68 1.390 . S
C67 H72 0.949 . S
C68 C67 1.390 . S
C68 C73 1.399 . S
C69 C65 1.404 . S
C69 H70 0.950 . S
C69 C71 1.375 . S
H70 C69 0.950 . S
C71 C69 1.375 . S
C71 C73 1.382 . S
C71 H75 0.950 . S
H72 C67 0.949 . S
C73 C68 1.399 . S
C73 C71 1.382 . S
C73 H74 0.952 . S
H74 C73 0.952 . S
H75 C71 0.950 . S
H76 C77 0.949 . S
C77 H76 0.949 . S
C77 C78 1.395 . S
C77 C79 1.391 . S
C78 C77 1.395 . S
C78 C81 1.390 . S
C79 C77 1.391 . S
C79 C83 1.387 . S
C79 C84 1.491 . S
H80 C81 0.950 . S
C81 C78 1.390 . S
C81 H80 0.950 . S
C81 C82 1.378 . S
C82 C81 1.378 . S
C82 C83 1.409 . S
C83 C79 1.387 . S
C83 C82 1.409 . S
C83 H85 0.951 . S
C84 C79 1.491 . S
C84 C86 1.382 . S
C84 C88 1.404 . S
H85 C83 0.951 . S
C86 C84 1.382 . S
C86 C87 1.390 . S
C86 H91 0.949 . S
C87 C86 1.390 . S
C87 C92 1.399 . S
C88 C84 1.404 . S
C88 H89 0.950 . S
C88 C90 1.375 . S
H89 C88 0.950 . S
C90 C88 1.375 . S
C90 C92 1.382 . S
C90 H94 0.950 . S
H91 C86 0.949 . S
C92 C87 1.399 . S
C92 C90 1.382 . S
C92 H93 0.952 . S
H93 C92 0.952 . S
H94 C90 0.950 . S
H95 C96 0.949 . S
C96 H95 0.949 . S
C96 C97 1.395 . S
C96 C98 1.391 . S
C97 C96 1.395 . S
C97 C100 1.390 . S
C98 C96 1.391 . S
C98 C102 1.387 . S
C98 C103 1.491 . S
H99 C100 0.950 . S
C100 C97 1.390 . S
C100 H99 0.950 . S
C100 C101 1.378 . S
C101 C100 1.378 . S
C101 C102 1.409 . S
C102 C98 1.387 . S
C102 C101 1.409 . S
C102 H104 0.951 . S
C103 C98 1.491 . S
C103 C105 1.382 . S
C103 C107 1.404 . S
H104 C102 0.951 . S
C105 C103 1.382 . S
C105 C106 1.390 . S
C105 H110 0.949 . S
C106 C105 1.390 . S
C106 C111 1.399 . S
C107 C103 1.404 . S
C107 H108 0.950 . S
C107 C109 1.375 . S
H108 C107 0.950 . S
C109 C107 1.375 . S
C109 C111 1.382 . S
C109 H113 0.950 . S
H110 C105 0.949 . S
C111 C106 1.399 . S
C111 C109 1.382 . S
C111 H112 0.952 . S
H112 C111 0.952 . S
H113 C109 0.950 . S
H114 C115 0.949 . S
C115 H114 0.949 . S
C115 C116 1.395 . S
C115 C117 1.391 . S
C116 C115 1.395 . S
C116 C119 1.390 . S
C117 C115 1.391 . S
C117 C121 1.387 . S
C117 C122 1.491 . S
H118 C119 0.950 . S
C119 C116 1.390 . S
C119 H118 0.950 . S
C119 C120 1.378 . S
C120 C119 1.378 . S
C120 C121 1.409 . S
C121 C117 1.387 . S
C121 C120 1.409 . S
C121 H123 0.951 . S
C122 C117 1.491 . S
C122 C124 1.382 . S
C122 C126 1.404 . S
H123 C121 0.951 . S
C124 C122 1.382 . S
C124 C125 1.390 . S
C124 H129 0.949 . S
C125 C124 1.390 . S
C125 C130 1.399 . S
C126 C122 1.404 . S
C126 H127 0.950 . S
C126 C128 1.375 . S
H127 C126 0.950 . S
C128 C126 1.375 . S
C128 C130 1.382 . S
C128 H132 0.950 . S
H129 C124 0.949 . S
C130 C125 1.399 . S
C130 C128 1.382 . S
C130 H131 0.952 . S
H131 C130 0.952 . S
H132 C128 0.950 . S
H133 C134 0.949 . S
C134 H133 0.949 . S
C134 C135 1.395 . S
C134 C136 1.391 . S
C135 C134 1.395 . S
C135 C138 1.390 . S
C136 C134 1.391 . S
C136 C140 1.387 . S
C136 C141 1.491 . S
H137 C138 0.950 . S
C138 C135 1.390 . S
C138 H137 0.950 . S
C138 C139 1.378 . S
C139 C138 1.378 . S
C139 C140 1.409 . S
C140 C136 1.387 . S
C140 C139 1.409 . S
C140 H142 0.951 . S
C141 C136 1.491 . S
C141 C143 1.382 . S
C141 C145 1.404 . S
H142 C140 0.951 . S
C143 C141 1.382 . S
C143 C144 1.390 . S
C143 H148 0.949 . S
C144 C143 1.390 . S
C144 C149 1.399 . S
C145 C141 1.404 . S
C145 H146 0.950 . S
C145 C147 1.375 . S
H146 C145 0.950 . S
C147 C145 1.375 . S
C147 C149 1.382 . S
C147 H151 0.950 . S
H148 C143 0.949 . S
C149 C144 1.399 . S
C149 C147 1.382 . S
C149 H150 0.952 . S
H150 C149 0.952 . S
H151 C147 0.950 . S
Tb152 C161 2.764 . S
Tb152 O162 2.325 . S
Tb152 O165 2.303 . S
Tb152 O169 2.322 . S
Tb152 O170 2.349 . S
Tb152 O173 2.415 . S
Tb152 O174 2.399 . S
Tb153 O163 2.322 . S
Tb153 O164 2.349 1_655 S
Tb153 O166 2.415 1_545 S
Tb153 O167 2.399 . S
Tb153 O168 2.325 1_655 S
Tb153 O171 2.303 . S
Tb153 C182 2.764 1_545 S
C154 O170 1.261 1_665 S
C154 O171 1.257 1_565 S
C155 C158 1.358 . S
C155 C159 1.332 . S
C155 C161 1.504 . S
C156 C157 1.373 . S
C156 C160 1.308 . S
C157 C156 1.373 . S
C157 C158 1.429 . S
C157 H184 0.932 . S
C158 C155 1.358 . S
C158 C157 1.429 . S
C158 H185 0.930 . S
C159 C155 1.332 . S
C159 C160 1.394 . S
C159 H186 0.932 . S
C160 C156 1.308 . S
C160 C159 1.394 . S
C160 H187 0.929 . S
C161 Tb152 2.764 . S
C161 C155 1.504 . S
C161 O173 1.239 . S
C161 O174 1.263 . S
O162 Tb152 2.325 . S
O162 C172 1.236 1_455 S
O163 Tb153 2.322 . S
O163 C172 1.257 . S
O164 Tb153 2.349 1_455 S
O164 C175 1.261 . S
O165 Tb152 2.303 . S
O165 C175 1.257 . S
O166 Tb153 2.415 1_565 S
O166 C182 1.239 . S
O167 Tb153 2.399 . S
O167 C182 1.263 1_545 S
O168 Tb153 2.325 1_455 S
O168 C183 1.236 . S
O169 Tb152 2.322 . S
O169 C183 1.257 . S
O170 Tb152 2.349 . S
O170 C154 1.261 1_445 S
O171 Tb153 2.303 . S
O171 C154 1.257 1_545 S
C172 O162 1.236 1_655 S
C172 O163 1.257 . S
O173 Tb152 2.415 . S
O173 C161 1.239 . S
O174 Tb152 2.399 . S
O174 C161 1.263 . S
C175 O164 1.261 . S
C175 O165 1.257 . S
C176 C179 1.358 . S
C176 C180 1.332 . S
C176 C182 1.504 . S
C177 C178 1.373 . S
C177 C181 1.308 . S
C178 C177 1.373 . S
C178 C179 1.429 . S
C178 H188 0.932 . S
C179 C176 1.358 . S
C179 C178 1.429 . S
C179 H189 0.930 1_565 S
C180 C176 1.332 . S
C180 C181 1.394 . S
C180 H190 0.932 . S
C181 C177 1.308 . S
C181 C180 1.394 . S
C181 H191 0.929 . S
C182 Tb153 2.764 1_565 S
C182 O166 1.239 . S
C182 O167 1.263 1_565 S
C182 C176 1.504 . S
C183 O168 1.236 . S
C183 O169 1.257 . S
H184 C157 0.932 . S
H185 C158 0.930 . S
H186 C159 0.932 . S
H187 C160 0.929 . S
H188 C178 0.932 . S
H189 C179 0.930 1_545 S
H190 C180 0.932 . S
H191 C181 0.929 . S
Tb192 C201 2.764 . S
Tb192 O202 2.325 . S
Tb192 O205 2.303 . S
Tb192 O209 2.322 1_545 S
Tb192 O210 2.349 . S
Tb192 O213 2.415 . S
Tb192 O214 2.399 . S
Tb193 O203 2.322 . S
Tb193 O204 2.349 . S
Tb193 O206 2.415 1_545 S
Tb193 O207 2.399 . S
Tb193 O208 2.325 1_545 S
Tb193 O211 2.303 . S
Tb193 C222 2.764 1_545 S
C194 O210 1.261 . S
C194 O211 1.257 . S
C195 C198 1.358 . S
C195 C199 1.332 . S
C195 C201 1.504 . S
C196 C197 1.373 . S
C196 C200 1.308 . S
C197 C196 1.373 . S
C197 C198 1.429 . S
C197 H224 0.932 . S
C198 C195 1.358 . S
C198 C197 1.429 . S
C198 H225 0.930 . S
C199 C195 1.332 . S
C199 C200 1.394 . S
C199 H226 0.932 . S
C200 C196 1.308 . S
C200 C199 1.394 . S
C200 H227 0.929 . S
C201 Tb192 2.764 . S
C201 C195 1.504 . S
C201 O213 1.239 . S
C201 O214 1.263 . S
O202 Tb192 2.325 . S
O202 C212 1.236 . S
O203 Tb193 2.322 . S
O203 C212 1.257 . S
O204 Tb193 2.349 . S
O204 C215 1.261 . S
O205 Tb192 2.303 . S
O205 C215 1.257 . S
O206 Tb193 2.415 1_565 S
O206 C222 1.239 . S
O207 Tb193 2.399 . S
O207 C222 1.263 1_545 S
O208 Tb193 2.325 1_565 S
O208 C223 1.236 . S
O209 Tb192 2.322 1_565 S
O209 C223 1.257 . S
O210 Tb192 2.349 . S
O210 C194 1.261 . S
O211 Tb193 2.303 . S
O211 C194 1.257 . S
C212 O202 1.236 . S
C212 O203 1.257 . S
O213 Tb192 2.415 . S
O213 C201 1.239 . S
O214 Tb192 2.399 . S
O214 C201 1.263 . S
C215 O204 1.261 . S
C215 O205 1.257 . S
C216 C219 1.362 . S
C216 C220 1.328 1_554 S
C216 C222 1.504 . S
C217 C218 1.373 . S
C217 C221 1.308 . S
C218 C217 1.373 . S
C218 C219 1.418 1_556 S
C218 H228 0.932 . S
C219 C216 1.362 . S
C219 C218 1.418 1_554 S
C219 H229 0.937 . S
C220 C216 1.328 1_556 S
C220 C221 1.402 . S
C220 H230 0.927 1_556 S
C221 C217 1.308 . S
C221 C220 1.402 . S
C221 H231 0.929 . S
C222 Tb193 2.764 1_565 S
C222 O206 1.239 . S
C222 O207 1.263 1_565 S
C222 C216 1.504 . S
C223 O208 1.236 . S
C223 O209 1.257 . S
H224 C197 0.932 . S
H225 C198 0.930 . S
H226 C199 0.932 . S
H227 C200 0.929 . S
H228 C218 0.932 . S
H229 C219 0.937 . S
H230 C220 0.927 1_554 S
H231 C221 0.929 . S
Tb232 C241 2.764 . S
Tb232 O242 2.325 . S
Tb232 O245 2.303 . S
Tb232 O249 2.322 . S
Tb232 O250 2.349 . S
Tb232 O253 2.415 . S
Tb232 O254 2.399 . S
Tb233 O243 2.322 . S
Tb233 O244 2.349 . S
Tb233 O246 2.415 . S
Tb233 O247 2.399 . S
Tb233 O248 2.325 . S
Tb233 O251 2.303 . S
Tb233 C262 2.764 . S
C234 O250 1.261 . S
C234 O251 1.257 . S
C235 C238 1.358 . S
C235 C239 1.332 . S
C235 C241 1.504 . S
C236 C237 1.373 . S
C236 C240 1.308 . S
C237 C236 1.373 . S
C237 C238 1.429 . S
C237 H264 0.932 . S
C238 C235 1.358 . S
C238 C237 1.429 . S
C238 H265 0.930 . S
C239 C235 1.332 . S
C239 C240 1.394 . S
C239 H266 0.932 . S
C240 C236 1.308 . S
C240 C239 1.394 . S
C240 H267 0.929 . S
C241 Tb232 2.764 . S
C241 C235 1.504 . S
C241 O253 1.239 . S
C241 O254 1.263 . S
O242 Tb232 2.325 . S
O242 C252 1.236 . S
O243 Tb233 2.322 . S
O243 C252 1.257 . S
O244 Tb233 2.349 . S
O244 C255 1.261 . S
O245 Tb232 2.303 . S
O245 C255 1.257 . S
O246 Tb233 2.415 . S
O246 C262 1.239 . S
O247 Tb233 2.399 . S
O247 C262 1.263 . S
O248 Tb233 2.325 . S
O248 C263 1.236 . S
O249 Tb232 2.322 . S
O249 C263 1.257 . S
O250 Tb232 2.349 . S
O250 C234 1.261 . S
O251 Tb233 2.303 . S
O251 C234 1.257 . S
C252 O242 1.236 . S
C252 O243 1.257 . S
O253 Tb232 2.415 . S
O253 C241 1.239 . S
O254 Tb232 2.399 . S
O254 C241 1.263 . S
C255 O244 1.261 . S
C255 O245 1.257 . S
C256 C259 1.358 . S
C256 C260 1.332 . S
C256 C262 1.504 . S
C257 C258 1.373 . S
C257 C261 1.308 . S
C258 C257 1.373 . S
C258 C259 1.429 . S
C258 H268 0.932 . S
C259 C256 1.358 . S
C259 C258 1.429 . S
C259 H269 0.930 . S
C260 C256 1.332 . S
C260 C261 1.394 . S
C260 H270 0.932 . S
C261 C257 1.308 . S
C261 C260 1.394 . S
C261 H271 0.929 . S
C262 Tb233 2.764 . S
C262 O246 1.239 . S
C262 O247 1.263 . S
C262 C256 1.504 . S
C263 O248 1.236 . S
C263 O249 1.257 . S
H264 C237 0.932 . S
H265 C238 0.930 . S
H266 C239 0.932 . S
H267 C240 0.929 . S
H268 C258 0.932 . S
H269 C259 0.930 . S
H270 C260 0.932 . S
H271 C261 0.929 . S
Tb272 C281 2.764 . S
Tb272 O282 2.325 . S
Tb272 O285 2.303 1_556 S
Tb272 O289 2.322 1_556 S
Tb272 O290 2.349 . S
Tb272 O293 2.414 1_556 S
Tb272 O294 2.399 . S
Tb273 O283 2.322 1_455 S
Tb273 O284 2.349 . S
Tb273 O286 2.415 . S
Tb273 O287 2.399 . S
Tb273 O288 2.325 . S
Tb273 O291 2.303 1_554 S
Tb273 C302 2.764 . S
C274 O290 1.261 . S
C274 O291 1.257 . S
C275 C278 1.358 . S
C275 C279 1.332 . S
C275 C281 1.504 1_655 S
C276 C277 1.373 . S
C276 C280 1.308 . S
C277 C276 1.373 . S
C277 C278 1.429 . S
C277 H304 0.932 . S
C278 C275 1.358 . S
C278 C277 1.429 . S
C278 H305 0.930 1_655 S
C279 C275 1.332 . S
C279 C280 1.394 . S
C279 H306 0.932 . S
C280 C276 1.308 . S
C280 C279 1.394 . S
C280 H307 0.929 . S
C281 Tb272 2.764 . S
C281 C275 1.504 1_455 S
C281 O293 1.203 1_556 S
C281 O294 1.263 . S
O282 Tb272 2.325 . S
O282 C292 1.236 1_455 S
O283 Tb273 2.322 1_655 S
O283 C292 1.257 1_554 S
O284 Tb273 2.349 . S
O284 C295 1.261 . S
O285 Tb272 2.303 1_554 S
O285 C295 1.257 . S
O286 Tb273 2.415 . S
O286 C302 1.239 . S
O287 Tb273 2.399 . S
O287 C302 1.263 . S
O288 Tb273 2.325 . S
O288 C303 1.236 . S
O289 Tb272 2.322 1_554 S
O289 C303 1.257 . S
O290 Tb272 2.349 . S
O290 C274 1.261 . S
O291 Tb273 2.303 1_556 S
O291 C274 1.257 . S
C292 O282 1.236 1_655 S
C292 O283 1.257 1_556 S
O293 Tb272 2.414 1_554 S
O293 C281 1.203 1_554 S
O294 Tb272 2.399 . S
O294 C281 1.263 . S
C295 O284 1.261 . S
C295 O285 1.257 . S
C296 C299 1.358 . S
C296 C300 1.332 . S
C296 C302 1.504 . S
C297 C298 1.373 . S
C297 C301 1.308 . S
C298 C297 1.373 . S
C298 C299 1.429 . S
C298 H308 0.932 . S
C299 C296 1.358 . S
C299 C298 1.429 . S
C299 H309 0.930 . S
C300 C296 1.332 . S
C300 C301 1.394 . S
C300 H310 0.932 . S
C301 C297 1.308 . S
C301 C300 1.394 . S
C301 H311 0.929 . S
C302 Tb273 2.764 . S
C302 O286 1.239 . S
C302 O287 1.263 . S
C302 C296 1.504 . S
C303 O288 1.236 . S
C303 O289 1.257 . S
H304 C277 0.932 . S
H305 C278 0.930 1_455 S
H306 C279 0.932 . S
H307 C280 0.929 . S
H308 C298 0.932 . S
H309 C299 0.930 . S
H310 C300 0.932 . S
H311 C301 0.929 . S
H312 C320 0.929 . S
H313 C322 0.930 . S
H314 C324 0.930 . S
H315 C327 0.929 . S
H316 C330 0.930 . S
H317 C332 0.960 . S
H318 C332 0.960 . S
H319 C332 0.960 . S
C320 H312 0.929 . S
C320 C321 1.377 . S
C320 C322 1.384 . S
C321 C320 1.377 . S
C321 C327 1.390 . S
C322 H313 0.930 . S
C322 C320 1.384 . S
C322 C323 1.372 . S
C323 C322 1.372 . S
C323 C324 1.400 . S
C323 C328 1.490 . S
C324 H314 0.930 . S
C324 C323 1.400 . S
C324 C327 1.386 . S
H325 C341 0.930 . S
H326 C342 0.931 . S
C327 H315 0.929 . S
C327 C321 1.390 . S
C327 C324 1.386 . S
C328 C323 1.490 . S
C328 C330 1.395 . S
C328 C331 1.403 . S
H329 C335 0.930 . S
C330 H316 0.930 . S
C330 C328 1.395 . S
C330 C333 1.403 . S
C331 C328 1.403 . S
C331 C332 1.524 . S
C331 C335 1.400 . S
C332 H317 0.960 . S
C332 H318 0.960 . S
C332 H319 0.960 . S
C332 C331 1.524 . S
C333 C330 1.403 . S
C333 C334 1.392 . S
C333 C337 1.495 . S
C334 C333 1.392 . S
C334 C335 1.385 . S
C334 C336 1.478 . S
C335 H329 0.930 . S
C335 C331 1.400 . S
C335 C334 1.385 . S
C336 C334 1.478 . S
C336 C338 1.381 . S
C336 C342 1.383 . S
C337 C333 1.495 . S
C337 H343 0.959 . S
C337 H344 0.961 . S
C337 H345 0.960 . S
C338 C336 1.381 . S
C338 C339 1.394 . S
C338 H346 0.930 . S
C339 C338 1.394 . S
C339 C340 1.383 . S
C339 H347 0.929 . S
C340 C339 1.383 . S
C340 C341 1.377 . S
C341 H325 0.930 . S
C341 C340 1.377 . S
C341 C342 1.379 . S
C342 H326 0.931 . S
C342 C336 1.383 . S
C342 C341 1.379 . S
H343 C337 0.959 . S
H344 C337 0.961 . S
H345 C337 0.960 . S
H346 C338 0.930 . S
H347 C339 0.929 . S
H348 C356 0.929 . S
H349 C358 0.930 . S
H350 C360 0.930 . S
H351 C363 0.929 . S
H352 C366 0.930 . S
H353 C368 0.960 . S
H354 C368 0.960 . S
H355 C368 0.960 . S
C356 H348 0.929 . S
C356 C357 1.377 . S
C356 C358 1.384 . S
C357 C356 1.377 . S
C357 C363 1.390 . S
C358 H349 0.930 . S
C358 C356 1.384 . S
C358 C359 1.372 . S
C359 C358 1.372 . S
C359 C360 1.400 . S
C359 C364 1.490 . S
C360 H350 0.930 . S
C360 C359 1.400 . S
C360 C363 1.386 . S
H361 C377 0.930 . S
H362 C378 0.931 . S
C363 H351 0.929 . S
C363 C357 1.390 . S
C363 C360 1.386 . S
C364 C359 1.490 . S
C364 C366 1.395 . S
C364 C367 1.403 . S
H365 C371 0.930 . S
C366 H352 0.930 . S
C366 C364 1.395 . S
C366 C369 1.403 . S
C367 C364 1.403 . S
C367 C368 1.524 . S
C367 C371 1.400 . S
C368 H353 0.960 . S
C368 H354 0.960 . S
C368 H355 0.960 . S
C368 C367 1.524 . S
C369 C366 1.403 . S
C369 C370 1.392 . S
C369 C373 1.495 . S
C370 C369 1.392 . S
C370 C371 1.385 . S
C370 C372 1.478 . S
C371 H365 0.930 . S
C371 C367 1.400 . S
C371 C370 1.385 . S
C372 C370 1.478 . S
C372 C374 1.381 . S
C372 C378 1.383 . S
C373 C369 1.495 . S
C373 H379 0.959 . S
C373 H380 0.961 . S
C373 H381 0.960 . S
C374 C372 1.381 . S
C374 C375 1.394 . S
C374 H382 0.930 . S
C375 C374 1.394 . S
C375 C376 1.383 . S
C375 H383 0.929 . S
C376 C375 1.383 . S
C376 C377 1.377 . S
C377 H361 0.930 . S
C377 C376 1.377 . S
C377 C378 1.379 . S
C378 H362 0.931 . S
C378 C372 1.383 . S
C378 C377 1.379 . S
H379 C373 0.959 . S
H380 C373 0.961 . S
H381 C373 0.960 . S
H382 C374 0.930 . S
H383 C375 0.929 . S
H384 C392 0.929 . S
H385 C394 0.930 . S
H386 C396 0.930 . S
H387 C399 0.929 . S
H388 C402 0.930 . S
H389 C404 0.960 . S
H390 C404 0.960 . S
H391 C404 0.960 . S
C392 H384 0.929 . S
C392 C393 1.377 . S
C392 C394 1.384 . S
C393 C392 1.377 . S
C393 C399 1.390 . S
C394 H385 0.930 . S
C394 C392 1.384 . S
C394 C395 1.372 . S
C395 C394 1.372 . S
C395 C396 1.400 . S
C395 C400 1.490 . S
C396 H386 0.930 . S
C396 C395 1.400 . S
C396 C399 1.386 . S
H397 C413 0.930 . S
H398 C414 0.931 . S
C399 H387 0.929 . S
C399 C393 1.390 . S
C399 C396 1.386 . S
C400 C395 1.490 . S
C400 C402 1.395 . S
C400 C403 1.403 . S
H401 C407 0.930 . S
C402 H388 0.930 . S
C402 C400 1.395 . S
C402 C405 1.403 . S
C403 C400 1.403 . S
C403 C404 1.524 . S
C403 C407 1.400 . S
C404 H389 0.960 . S
C404 H390 0.960 . S
C404 H391 0.960 . S
C404 C403 1.524 . S
C405 C402 1.403 . S
C405 C406 1.392 . S
C405 C409 1.495 . S
C406 C405 1.392 . S
C406 C407 1.385 . S
C406 C408 1.478 . S
C407 H401 0.930 . S
C407 C403 1.400 . S
C407 C406 1.385 . S
C408 C406 1.478 . S
C408 C410 1.381 . S
C408 C414 1.383 . S
C409 C405 1.495 . S
C409 H415 0.959 . S
C409 H416 0.961 . S
C409 H417 0.960 . S
C410 C408 1.381 . S
C410 C411 1.394 . S
C410 H418 0.930 . S
C411 C410 1.394 . S
C411 C412 1.383 . S
C411 H419 0.929 . S
C412 C411 1.383 . S
C412 C413 1.377 . S
C413 H397 0.930 . S
C413 C412 1.377 . S
C413 C414 1.379 . S
C414 H398 0.931 . S
C414 C408 1.383 . S
C414 C413 1.379 . S
H415 C409 0.959 . S
H416 C409 0.961 . S
H417 C409 0.960 . S
H418 C410 0.930 . S
H419 C411 0.929 . S
H420 C428 0.929 . S
H421 C430 0.930 . S
H422 C432 0.930 . S
H423 C435 0.929 . S
H424 C438 0.930 . S
H425 C440 0.960 . S
H426 C440 0.960 . S
H427 C440 0.960 . S
C428 H420 0.929 . S
C428 C429 1.377 . S
C428 C430 1.384 . S
C429 C428 1.377 . S
C429 C435 1.390 . S
C430 H421 0.930 . S
C430 C428 1.384 . S
C430 C431 1.372 . S
C431 C430 1.372 . S
C431 C432 1.400 . S
C431 C436 1.490 . S
C432 H422 0.930 . S
C432 C431 1.400 . S
C432 C435 1.386 . S
H433 C449 0.930 . S
H434 C450 0.931 . S
C435 H423 0.929 . S
C435 C429 1.390 . S
C435 C432 1.386 . S
C436 C431 1.490 . S
C436 C438 1.395 . S
C436 C439 1.403 . S
H437 C443 0.930 . S
C438 H424 0.930 . S
C438 C436 1.395 . S
C438 C441 1.403 . S
C439 C436 1.403 . S
C439 C440 1.524 . S
C439 C443 1.400 . S
C440 H425 0.960 . S
C440 H426 0.960 . S
C440 H427 0.960 . S
C440 C439 1.524 . S
C441 C438 1.403 . S
C441 C442 1.392 . S
C441 C445 1.495 . S
C442 C441 1.392 . S
C442 C443 1.385 . S
C442 C444 1.478 . S
C443 H437 0.930 . S
C443 C439 1.400 . S
C443 C442 1.385 . S
C444 C442 1.478 . S
C444 C446 1.381 1_655 S
C444 C450 1.383 . S
C445 C441 1.495 . S
C445 H451 0.959 . S
C445 H452 0.961 . S
C445 H453 0.960 . S
C446 C444 1.381 1_455 S
C446 C447 1.394 . S
C446 H454 0.930 . S
C447 C446 1.394 . S
C447 C448 1.383 1_455 S
C447 H455 0.929 . S
C448 C447 1.383 1_655 S
C448 C449 1.377 . S
C449 H433 0.930 . S
C449 C448 1.377 . S
C449 C450 1.379 . S
C450 H434 0.931 . S
C450 C444 1.383 . S
C450 C449 1.379 . S
H451 C445 0.959 . S
H452 C445 0.961 . S
H453 C445 0.960 . S
H454 C446 0.930 . S
H455 C447 0.929 . S
H456 C464 0.929 . S
H457 C466 0.930 . S
H458 C468 0.930 . S
H459 C471 0.929 . S
H460 C474 0.930 . S
H461 C476 0.960 . S
H462 C476 0.960 . S
H463 C476 0.960 . S
C464 H456 0.929 . S
C464 C465 1.377 . S
C464 C466 1.384 . S
C465 C464 1.377 . S
C465 C471 1.390 . S
C466 H457 0.930 . S
C466 C464 1.384 . S
C466 C467 1.372 . S
C467 C466 1.372 . S
C467 C468 1.400 . S
C467 C472 1.490 . S
C468 H458 0.930 . S
C468 C467 1.400 . S
C468 C471 1.386 . S
H469 C485 0.930 . S
H470 C486 0.931 . S
C471 H459 0.929 . S
C471 C465 1.390 . S
C471 C468 1.386 . S
C472 C467 1.490 . S
C472 C474 1.395 . S
C472 C475 1.403 . S
H473 C479 0.930 . S
C474 H460 0.930 . S
C474 C472 1.395 . S
C474 C477 1.403 . S
C475 C472 1.403 . S
C475 C476 1.524 . S
C475 C479 1.400 . S
C476 H461 0.960 . S
C476 H462 0.960 . S
C476 H463 0.960 . S
C476 C475 1.524 . S
C477 C474 1.403 . S
C477 C478 1.392 . S
C477 C481 1.495 . S
C478 C477 1.392 . S
C478 C479 1.385 . S
C478 C480 1.478 . S
C479 H473 0.930 . S
C479 C475 1.400 . S
C479 C478 1.385 . S
C480 C478 1.478 . S
C480 C482 1.381 . S
C480 C486 1.383 . S
C481 C477 1.495 . S
C481 H487 0.959 . S
C481 H488 0.961 . S
C481 H489 0.960 . S
C482 C480 1.381 . S
C482 C483 1.394 . S
C482 H490 0.930 . S
C483 C482 1.394 . S
C483 C484 1.383 . S
C483 H491 0.929 . S
C484 C483 1.383 . S
C484 C485 1.377 . S
C485 H469 0.930 . S
C485 C484 1.377 . S
C485 C486 1.379 . S
C486 H470 0.931 . S
C486 C480 1.383 . S
C486 C485 1.379 . S
H487 C481 0.959 . S
H488 C481 0.961 . S
H489 C481 0.960 . S
H490 C482 0.930 . S
H491 C483 0.929 . S
H492 C500 0.929 . S
H493 C502 0.930 . S
H494 C504 0.930 . S
H495 C507 0.929 . S
H496 C510 0.930 . S
H497 C512 0.960 . S
H498 C512 0.960 . S
H499 C512 0.960 . S
C500 H492 0.929 . S
C500 C501 1.377 . S
C500 C502 1.384 . S
C501 C500 1.377 . S
C501 C507 1.390 . S
C502 H493 0.930 . S
C502 C500 1.384 . S
C502 C503 1.372 . S
C503 C502 1.372 . S
C503 C504 1.400 . S
C503 C508 1.490 . S
C504 H494 0.930 . S
C504 C503 1.400 . S
C504 C507 1.386 . S
H505 C521 0.930 1_545 S
H506 C522 0.931 . S
C507 H495 0.929 . S
C507 C501 1.390 . S
C507 C504 1.386 . S
C508 C503 1.490 . S
C508 C510 1.395 . S
C508 C511 1.403 . S
H509 C515 0.930 . S
C510 H496 0.930 . S
C510 C508 1.395 . S
C510 C513 1.403 . S
C511 C508 1.403 . S
C511 C512 1.524 . S
C511 C515 1.400 . S
C512 H497 0.960 . S
C512 H498 0.960 . S
C512 H499 0.960 . S
C512 C511 1.524 . S
C513 C510 1.403 . S
C513 C514 1.392 . S
C513 C517 1.495 . S
C514 C513 1.392 . S
C514 C515 1.385 . S
C514 C516 1.478 . S
C515 H509 0.930 . S
C515 C511 1.400 . S
C515 C514 1.385 . S
C516 C514 1.478 . S
C516 C518 1.381 . S
C516 C522 1.383 . S
C517 C513 1.495 . S
C517 H523 0.959 . S
C517 H524 0.961 . S
C517 H525 0.960 . S
C518 C516 1.381 . S
C518 C519 1.394 . S
C518 H526 0.930 . S
C519 C518 1.394 . S
C519 C520 1.383 . S
C519 H527 0.929 . S
C520 C519 1.383 . S
C520 C521 1.377 . S
C521 H505 0.930 1_565 S
C521 C520 1.377 . S
C521 C522 1.379 . S
C522 H506 0.931 . S
C522 C516 1.383 . S
C522 C521 1.379 . S
H523 C517 0.959 . S
H524 C517 0.961 . S
H525 C517 0.960 . S
H526 C518 0.930 . S
H527 C519 0.929 . S
H528 C536 0.929 . S
H529 C538 0.930 . S
H530 C540 0.930 . S
H531 C543 0.929 . S
H532 C546 0.930 . S
H533 C548 0.960 . S
H534 C548 0.960 . S
H535 C548 0.960 . S
C536 H528 0.929 . S
C536 C537 1.377 . S
C536 C538 1.384 . S
C537 C536 1.377 . S
C537 C543 1.390 . S
C538 H529 0.930 . S
C538 C536 1.384 . S
C538 C539 1.372 . S
C539 C538 1.372 . S
C539 C540 1.400 . S
C539 C544 1.490 . S
C540 H530 0.930 . S
C540 C539 1.400 . S
C540 C543 1.386 . S
H541 C557 0.930 . S
H542 C558 0.931 1_554 S
C543 H531 0.929 . S
C543 C537 1.390 . S
C543 C540 1.386 . S
C544 C539 1.490 . S
C544 C546 1.395 . S
C544 C547 1.403 . S
H545 C551 0.930 . S
C546 H532 0.930 . S
C546 C544 1.395 . S
C546 C549 1.403 . S
C547 C544 1.403 . S
C547 C548 1.524 . S
C547 C551 1.400 . S
C548 H533 0.960 . S
C548 H534 0.960 . S
C548 H535 0.960 . S
C548 C547 1.524 . S
C549 C546 1.403 . S
C549 C550 1.392 . S
C549 C553 1.495 . S
C550 C549 1.392 . S
C550 C551 1.385 . S
C550 C552 1.478 . S
C551 H545 0.930 . S
C551 C547 1.400 . S
C551 C550 1.385 . S
C552 C550 1.478 . S
C552 C554 1.381 . S
C552 C558 1.383 . S
C553 C549 1.495 . S
C553 H559 0.959 . S
C553 H560 0.961 . S
C553 H561 0.960 . S
C554 C552 1.381 . S
C554 C555 1.394 . S
C554 H562 0.930 . S
C555 C554 1.394 . S
C555 C556 1.383 . S
C555 H563 0.929 . S
C556 C555 1.383 . S
C556 C557 1.377 1_556 S
C557 H541 0.930 . S
C557 C556 1.377 1_554 S
C557 C558 1.379 1_554 S
C558 H542 0.931 1_556 S
C558 C552 1.383 . S
C558 C557 1.379 1_556 S
H559 C553 0.959 . S
H560 C553 0.961 . S
H561 C553 0.960 . S
H562 C554 0.930 . S
H563 C555 0.929 . S
H564 C572 0.929 . S
H565 C574 0.930 . S
H566 C576 0.930 . S
H567 C579 0.929 . S
H568 C582 0.930 . S
H569 C584 0.960 . S
H570 C584 0.960 . S
H571 C584 0.960 . S
C572 H564 0.929 . S
C572 C573 1.377 . S
C572 C574 1.384 . S
C573 C572 1.377 . S
C573 C579 1.390 . S
C574 H565 0.930 . S
C574 C572 1.384 . S
C574 C575 1.372 . S
C575 C574 1.372 . S
C575 C576 1.400 . S
C575 C580 1.490 . S
C576 H566 0.930 . S
C576 C575 1.400 . S
C576 C579 1.386 . S
H577 C593 0.930 . S
H578 C594 0.931 . S
C579 H567 0.929 . S
C579 C573 1.390 . S
C579 C576 1.386 . S
C580 C575 1.490 . S
C580 C582 1.395 . S
C580 C583 1.403 . S
H581 C587 0.930 . S
C582 H568 0.930 . S
C582 C580 1.395 . S
C582 C585 1.403 . S
C583 C580 1.403 . S
C583 C584 1.524 . S
C583 C587 1.400 . S
C584 H569 0.960 . S
C584 H570 0.960 . S
C584 H571 0.960 . S
C584 C583 1.524 . S
C585 C582 1.403 . S
C585 C586 1.392 . S
C585 C589 1.495 . S
C586 C585 1.392 . S
C586 C587 1.385 . S
C586 C588 1.478 . S
C587 H581 0.930 . S
C587 C583 1.400 . S
C587 C586 1.385 . S
C588 C586 1.478 . S
C588 C590 1.381 . S
C588 C594 1.383 . S
C589 C585 1.495 . S
C589 H595 0.959 . S
C589 H596 0.961 . S
C589 H597 0.960 . S
C590 C588 1.381 . S
C590 C591 1.394 . S
C590 H598 0.930 . S
C591 C590 1.394 . S
C591 C592 1.383 . S
C591 H599 0.929 . S
C592 C591 1.383 . S
C592 C593 1.377 . S
C593 H577 0.930 . S
C593 C592 1.377 . S
C593 C594 1.379 . S
C594 H578 0.931 . S
C594 C588 1.383 . S
C594 C593 1.379 . S
H595 C589 0.959 . S
H596 C589 0.961 . S
H597 C589 0.960 . S
H598 C590 0.930 . S
H599 C591 0.929 . S
H600 C608 0.929 . S
H601 C610 0.930 . S
H602 C612 0.930 . S
H603 C615 0.929 . S
H604 C618 0.930 . S
H605 C620 0.960 . S
H606 C620 0.960 . S
H607 C620 0.960 . S
C608 H600 0.929 . S
C608 C609 1.377 . S
C608 C610 1.384 . S
C609 C608 1.377 . S
C609 C615 1.390 . S
C610 H601 0.930 . S
C610 C608 1.384 . S
C610 C611 1.372 . S
C611 C610 1.372 . S
C611 C612 1.400 . S
C611 C616 1.490 . S
C612 H602 0.930 . S
C612 C611 1.400 . S
C612 C615 1.386 . S
H613 C629 0.930 . S
H614 C630 0.931 . S
C615 H603 0.929 . S
C615 C609 1.390 . S
C615 C612 1.386 . S
C616 C611 1.490 . S
C616 C618 1.395 . S
C616 C619 1.403 . S
H617 C623 0.930 . S
C618 H604 0.930 . S
C618 C616 1.395 . S
C618 C621 1.403 . S
C619 C616 1.403 . S
C619 C620 1.524 . S
C619 C623 1.400 . S
C620 H605 0.960 . S
C620 H606 0.960 . S
C620 H607 0.960 . S
C620 C619 1.524 . S
C621 C618 1.403 . S
C621 C622 1.392 . S
C621 C625 1.495 . S
C622 C621 1.392 . S
C622 C623 1.385 . S
C622 C624 1.478 . S
C623 H617 0.930 . S
C623 C619 1.400 . S
C623 C622 1.385 . S
C624 C622 1.478 . S
C624 C626 1.381 . S
C624 C630 1.383 . S
C625 C621 1.495 . S
C625 H631 0.959 . S
C625 H632 0.961 . S
C625 H633 0.960 . S
C626 C624 1.381 . S
C626 C627 1.394 . S
C626 H634 0.930 . S
C627 C626 1.394 . S
C627 C628 1.383 . S
C627 H635 0.929 . S
C628 C627 1.383 . S
C628 C629 1.377 . S
C629 H613 0.930 . S
C629 C628 1.377 . S
C629 C630 1.379 . S
C630 H614 0.931 . S
C630 C624 1.383 . S
C630 C629 1.379 . S
H631 C625 0.959 . S
H632 C625 0.961 . S
H633 C625 0.960 . S
H634 C626 0.930 . S
H635 C627 0.929 . S
H636 C644 0.929 . S
H637 C646 0.930 . S
H638 C648 0.930 . S
H639 C651 0.929 . S
H640 C654 0.930 . S
H641 C656 0.960 . S
H642 C656 0.960 . S
H643 C656 0.960 . S
C644 H636 0.929 . S
C644 C645 1.377 . S
C644 C646 1.384 . S
C645 C644 1.377 . S
C645 C651 1.390 . S
C646 H637 0.930 . S
C646 C644 1.384 . S
C646 C647 1.372 . S
C647 C646 1.372 . S
C647 C648 1.400 . S
C647 C652 1.490 . S
C648 H638 0.930 . S
C648 C647 1.400 . S
C648 C651 1.386 . S
H649 C665 0.930 . S
H650 C666 0.931 . S
C651 H639 0.929 . S
C651 C645 1.390 . S
C651 C648 1.386 . S
C652 C647 1.490 . S
C652 C654 1.395 1_556 S
C652 C655 1.403 . S
H653 C659 0.930 . S
C654 H640 0.930 . S
C654 C652 1.395 1_554 S
C654 C657 1.403 . S
C655 C652 1.403 . S
C655 C656 1.524 . S
C655 C659 1.400 . S
C656 H641 0.960 . S
C656 H642 0.960 . S
C656 H643 0.960 . S
C656 C655 1.524 . S
C657 C654 1.403 . S
C657 C658 1.392 . S
C657 C661 1.495 . S
C658 C657 1.392 . S
C658 C659 1.385 1_554 S
C658 C660 1.478 . S
C659 H653 0.930 . S
C659 C655 1.400 . S
C659 C658 1.385 1_556 S
C660 C658 1.478 . S
C660 C662 1.381 . S
C660 C666 1.383 . S
C661 C657 1.495 . S
C661 H667 0.959 . S
C661 H668 0.961 . S
C661 H669 0.960 . S
C662 C660 1.381 . S
C662 C663 1.394 . S
C662 H670 0.930 . S
C663 C662 1.394 . S
C663 C664 1.383 . S
C663 H671 0.929 . S
C664 C663 1.383 . S
C664 C665 1.377 . S
C665 H649 0.930 . S
C665 C664 1.377 . S
C665 C666 1.379 . S
C666 H650 0.931 . S
C666 C660 1.383 . S
C666 C665 1.379 . S
H667 C661 0.959 . S
H668 C661 0.961 . S
H669 C661 0.960 . S
H670 C662 0.930 . S
H671 C663 0.929 . S
H672 C680 0.929 . S
H673 C682 0.930 . S
H674 C684 0.930 . S
H675 C687 0.929 . S
H676 C690 0.930 . S
H677 C692 0.960 . S
H678 C692 0.960 . S
H679 C692 0.960 . S
C680 H672 0.929 . S
C680 C681 1.377 . S
C680 C682 1.384 . S
C681 C680 1.377 . S
C681 C687 1.390 . S
C682 H673 0.930 . S
C682 C680 1.384 . S
C682 C683 1.372 . S
C683 C682 1.372 . S
C683 C684 1.400 . S
C683 C688 1.490 . S
C684 H674 0.930 . S
C684 C683 1.400 . S
C684 C687 1.386 . S
H685 C701 0.930 1_455 S
H686 C702 0.931 . S
C687 H675 0.929 . S
C687 C681 1.390 . S
C687 C684 1.386 . S
C688 C683 1.490 . S
C688 C690 1.395 . S
C688 C691 1.403 . S
H689 C695 0.930 . S
C690 H676 0.930 . S
C690 C688 1.395 . S
C690 C693 1.403 . S
C691 C688 1.403 . S
C691 C692 1.524 . S
C691 C695 1.400 . S
C692 H677 0.960 . S
C692 H678 0.960 . S
C692 H679 0.960 . S
C692 C691 1.524 . S
C693 C690 1.403 . S
C693 C694 1.392 . S
C693 C697 1.495 . S
C694 C693 1.392 . S
C694 C695 1.385 . S
C694 C696 1.478 . S
C695 H689 0.930 . S
C695 C691 1.400 . S
C695 C694 1.385 . S
C696 C694 1.478 . S
C696 C698 1.381 . S
C696 C702 1.383 . S
C697 C693 1.495 . S
C697 H703 0.959 . S
C697 H704 0.961 . S
C697 H705 0.960 . S
C698 C696 1.381 . S
C698 C699 1.394 . S
C698 H706 0.930 . S
C699 C698 1.394 . S
C699 C700 1.383 . S
C699 H707 0.929 . S
C700 C699 1.383 . S
C700 C701 1.377 . S
C701 H685 0.930 1_655 S
C701 C700 1.377 . S
C701 C702 1.379 . S
C702 H686 0.931 . S
C702 C696 1.383 . S
C702 C701 1.379 . S
H703 C697 0.959 . S
H704 C697 0.961 . S
H705 C697 0.960 . S
H706 C698 0.930 . S
H707 C699 0.929 . S
H708 C716 0.929 . S
H709 C718 0.930 . S
H710 C720 0.930 . S
H711 C723 0.929 . S
H712 C726 0.930 . S
H713 C728 0.960 . S
H714 C728 0.960 . S
H715 C728 0.960 . S
C716 H708 0.929 . S
C716 C717 1.377 . S
C716 C718 1.384 . S
C717 C716 1.377 . S
C717 C723 1.390 . S
C718 H709 0.930 . S
C718 C716 1.384 . S
C718 C719 1.372 . S
C719 C718 1.372 . S
C719 C720 1.400 . S
C719 C724 1.490 . S
C720 H710 0.930 . S
C720 C719 1.400 . S
C720 C723 1.386 . S
H721 C737 0.930 . S
H722 C738 0.931 . S
C723 H711 0.929 . S
C723 C717 1.390 . S
C723 C720 1.386 . S
C724 C719 1.490 . S
C724 C726 1.395 . S
C724 C727 1.403 . S
H725 C731 0.930 . S
C726 H712 0.930 . S
C726 C724 1.395 . S
C726 C729 1.403 . S
C727 C724 1.403 . S
C727 C728 1.524 . S
C727 C731 1.400 . S
C728 H713 0.960 . S
C728 H714 0.960 . S
C728 H715 0.960 . S
C728 C727 1.524 . S
C729 C726 1.403 . S
C729 C730 1.392 . S
C729 C733 1.495 . S
C730 C729 1.392 . S
C730 C731 1.385 . S
C730 C732 1.478 . S
C731 H725 0.930 . S
C731 C727 1.400 . S
C731 C730 1.385 . S
C732 C730 1.478 . S
C732 C734 1.381 . S
C732 C738 1.383 . S
C733 C729 1.495 . S
C733 H739 0.959 . S
C733 H740 0.961 . S
C733 H741 0.960 . S
C734 C732 1.381 . S
C734 C735 1.394 . S
C734 H742 0.930 . S
C735 C734 1.394 . S
C735 C736 1.383 . S
C735 H743 0.929 . S
C736 C735 1.383 . S
C736 C737 1.377 . S
C737 H721 0.930 . S
C737 C736 1.377 . S
C737 C738 1.379 . S
C738 H722 0.931 . S
C738 C732 1.383 . S
C738 C737 1.379 . S
H739 C733 0.959 . S
H740 C733 0.961 . S
H741 C733 0.960 . S
H742 C734 0.930 . S
H743 C735 0.929 . S
H744 C752 0.929 . S
H745 C754 0.930 . S
H746 C756 0.930 . S
H747 C759 0.929 . S
H748 C762 0.930 . S
H749 C764 0.960 . S
H750 C764 0.960 . S
H751 C764 0.960 . S
C752 H744 0.929 . S
C752 C753 1.377 . S
C752 C754 1.384 . S
C753 C752 1.377 . S
C753 C759 1.390 . S
C754 H745 0.930 . S
C754 C752 1.384 . S
C754 C755 1.372 . S
C755 C754 1.372 . S
C755 C756 1.400 . S
C755 C760 1.490 . S
C756 H746 0.930 . S
C756 C755 1.400 . S
C756 C759 1.386 . S
H757 C773 0.930 . S
H758 C774 0.931 . S
C759 H747 0.929 . S
C759 C753 1.390 . S
C759 C756 1.386 . S
C760 C755 1.490 . S
C760 C762 1.395 . S
C760 C763 1.403 . S
H761 C767 0.930 . S
C762 H748 0.930 . S
C762 C760 1.395 . S
C762 C765 1.403 . S
C763 C760 1.403 . S
C763 C764 1.524 . S
C763 C767 1.400 . S
C764 H749 0.960 . S
C764 H750 0.960 . S
C764 H751 0.960 . S
C764 C763 1.524 . S
C765 C762 1.403 . S
C765 C766 1.392 . S
C765 C769 1.495 . S
C766 C765 1.392 . S
C766 C767 1.385 . S
C766 C768 1.478 . S
C767 H761 0.930 . S
C767 C763 1.400 . S
C767 C766 1.385 . S
C768 C766 1.478 . S
C768 C770 1.381 . S
C768 C774 1.383 . S
C769 C765 1.495 . S
C769 H775 0.959 . S
C769 H776 0.961 . S
C769 H777 0.960 . S
C770 C768 1.381 . S
C770 C771 1.394 . S
C770 H778 0.930 . S
C771 C770 1.394 . S
C771 C772 1.383 . S
C771 H779 0.929 . S
C772 C771 1.383 . S
C772 C773 1.377 . S
C773 H757 0.930 . S
C773 C772 1.377 . S
C773 C774 1.379 . S
C774 H758 0.931 . S
C774 C768 1.383 . S
C774 C773 1.379 . S
H775 C769 0.959 . S
H776 C769 0.961 . S
H777 C769 0.960 . S
H778 C770 0.930 . S
H779 C771 0.929 . S
H780 C788 0.929 . S
H781 C790 0.930 . S
H782 C792 0.930 . S
H783 C795 0.929 . S
H784 C798 0.930 . S
H785 C800 0.960 . S
H786 C800 0.960 . S
H787 C800 0.960 . S
C788 H780 0.929 . S
C788 C789 1.377 . S
C788 C790 1.384 . S
C789 C788 1.377 . S
C789 C795 1.390 . S
C790 H781 0.930 . S
C790 C788 1.384 . S
C790 C791 1.372 . S
C791 C790 1.372 . S
C791 C792 1.400 . S
C791 C796 1.490 . S
C792 H782 0.930 . S
C792 C791 1.400 . S
C792 C795 1.386 . S
H793 C809 0.930 . S
H794 C810 0.931 . S
C795 H783 0.929 . S
C795 C789 1.390 . S
C795 C792 1.386 . S
C796 C791 1.490 . S
C796 C798 1.395 . S
C796 C799 1.403 . S
H797 C803 0.930 . S
C798 H784 0.930 . S
C798 C796 1.395 . S
C798 C801 1.403 . S
C799 C796 1.403 . S
C799 C800 1.524 . S
C799 C803 1.400 . S
C800 H785 0.960 . S
C800 H786 0.960 . S
C800 H787 0.960 . S
C800 C799 1.524 . S
C801 C798 1.403 . S
C801 C802 1.392 . S
C801 C805 1.495 . S
C802 C801 1.392 . S
C802 C803 1.385 . S
C802 C804 1.478 . S
C803 H797 0.930 . S
C803 C799 1.400 . S
C803 C802 1.385 . S
C804 C802 1.478 . S
C804 C806 1.381 . S
C804 C810 1.383 . S
C805 C801 1.495 . S
C805 H811 0.959 . S
C805 H812 0.961 . S
C805 H813 0.960 . S
C806 C804 1.381 . S
C806 C807 1.394 . S
C806 H814 0.930 . S
C807 C806 1.394 . S
C807 C808 1.383 . S
C807 H815 0.929 . S
C808 C807 1.383 . S
C808 C809 1.377 . S
C809 H793 0.930 . S
C809 C808 1.377 . S
C809 C810 1.379 . S
C810 H794 0.931 . S
C810 C804 1.383 . S
C810 C809 1.379 . S
H811 C805 0.959 . S
H812 C805 0.961 . S
H813 C805 0.960 . S
H814 C806 0.930 . S
H815 C807 0.929 . S
H816 C824 0.929 . S
H817 C826 0.930 . S
H818 C828 0.930 . S
H819 C831 0.929 . S
H820 C834 0.930 . S
H821 C836 0.960 . S
H822 C836 0.960 . S
H823 C836 0.960 . S
C824 H816 0.929 . S
C824 C825 1.377 . S
C824 C826 1.384 . S
C825 C824 1.377 . S
C825 C831 1.390 . S
C826 H817 0.930 . S
C826 C824 1.384 . S
C826 C827 1.372 . S
C827 C826 1.372 . S
C827 C828 1.400 . S
C827 C832 1.490 . S
C828 H818 0.930 . S
C828 C827 1.400 . S
C828 C831 1.386 . S
H829 C845 0.930 . S
H830 C846 0.931 . S
C831 H819 0.929 . S
C831 C825 1.390 . S
C831 C828 1.386 . S
C832 C827 1.490 . S
C832 C834 1.395 . S
C832 C835 1.403 . S
H833 C839 0.930 . S
C834 H820 0.930 . S
C834 C832 1.395 . S
C834 C837 1.403 . S
C835 C832 1.403 . S
C835 C836 1.524 . S
C835 C839 1.400 . S
C836 H821 0.960 . S
C836 H822 0.960 . S
C836 H823 0.960 . S
C836 C835 1.524 . S
C837 C834 1.403 . S
C837 C838 1.392 . S
C837 C841 1.495 . S
C838 C837 1.392 . S
C838 C839 1.385 . S
C838 C840 1.478 . S
C839 H833 0.930 . S
C839 C835 1.400 . S
C839 C838 1.385 . S
C840 C838 1.478 . S
C840 C842 1.381 . S
C840 C846 1.383 . S
C841 C837 1.495 . S
C841 H847 0.959 . S
C841 H848 0.961 . S
C841 H849 0.960 . S
C842 C840 1.381 . S
C842 C843 1.394 . S
C842 H850 0.930 . S
C843 C842 1.394 . S
C843 C844 1.383 . S
C843 H851 0.929 . S
C844 C843 1.383 . S
C844 C845 1.377 . S
C845 H829 0.930 . S
C845 C844 1.377 . S
C845 C846 1.379 . S
C846 H830 0.931 . S
C846 C840 1.383 . S
C846 C845 1.379 . S
H847 C841 0.959 . S
H848 C841 0.961 . S
H849 C841 0.960 . S
H850 C842 0.930 . S
H851 C843 0.929 . S
H852 C860 0.929 . S
H853 C862 0.930 . S
H854 C864 0.930 . S
H855 C867 0.929 . S
H856 C870 0.930 . S
H857 C872 0.960 . S
H858 C872 0.960 . S
H859 C872 0.960 . S
C860 H852 0.929 . S
C860 C861 1.377 . S
C860 C862 1.384 . S
C861 C860 1.377 . S
C861 C867 1.390 . S
C862 H853 0.930 . S
C862 C860 1.384 . S
C862 C863 1.372 . S
C863 C862 1.372 . S
C863 C864 1.400 . S
C863 C868 1.490 . S
C864 H854 0.930 . S
C864 C863 1.400 . S
C864 C867 1.386 . S
H865 C881 0.930 . S
H866 C882 0.931 . S
C867 H855 0.929 . S
C867 C861 1.390 . S
C867 C864 1.386 . S
C868 C863 1.490 . S
C868 C870 1.395 . S
C868 C871 1.403 . S
H869 C875 0.930 . S
C870 H856 0.930 . S
C870 C868 1.395 . S
C870 C873 1.403 . S
C871 C868 1.403 . S
C871 C872 1.524 . S
C871 C875 1.400 . S
C872 H857 0.960 . S
C872 H858 0.960 . S
C872 H859 0.960 . S
C872 C871 1.524 . S
C873 C870 1.403 . S
C873 C874 1.392 . S
C873 C877 1.495 . S
C874 C873 1.392 . S
C874 C875 1.385 . S
C874 C876 1.478 . S
C875 H869 0.930 . S
C875 C871 1.400 . S
C875 C874 1.385 . S
C876 C874 1.478 . S
C876 C878 1.381 . S
C876 C882 1.383 . S
C877 C873 1.495 . S
C877 H883 0.959 . S
C877 H884 0.961 . S
C877 H885 0.960 . S
C878 C876 1.381 . S
C878 C879 1.394 . S
C878 H886 0.930 . S
C879 C878 1.394 . S
C879 C880 1.383 . S
C879 H887 0.929 . S
C880 C879 1.383 . S
C880 C881 1.377 . S
C881 H865 0.930 . S
C881 C880 1.377 . S
C881 C882 1.379 . S
C882 H866 0.931 . S
C882 C876 1.383 . S
C882 C881 1.379 . S
H883 C877 0.959 . S
H884 C877 0.961 . S
H885 C877 0.960 . S
H886 C878 0.930 . S
H887 C879 0.929 . S
H888 C896 0.929 . S
H889 C898 0.930 . S
H890 C900 0.930 . S
H891 C903 0.929 . S
H892 C906 0.930 . S
H893 C908 0.960 . S
H894 C908 0.960 . S
H895 C908 0.960 1_556 S
C896 H888 0.929 . S
C896 C897 1.377 . S
C896 C898 1.384 . S
C897 C896 1.377 . S
C897 C903 1.390 . S
C898 H889 0.930 . S
C898 C896 1.384 . S
C898 C899 1.372 . S
C899 C898 1.372 . S
C899 C900 1.400 . S
C899 C904 1.490 . S
C900 H890 0.930 . S
C900 C899 1.400 . S
C900 C903 1.386 . S
H901 C917 0.930 . S
H902 C918 0.931 1_556 S
C903 H891 0.929 . S
C903 C897 1.390 . S
C903 C900 1.386 . S
C904 C899 1.490 . S
C904 C906 1.395 . S
C904 C907 1.403 . S
H905 C911 0.930 . S
C906 H892 0.930 . S
C906 C904 1.395 . S
C906 C909 1.403 . S
C907 C904 1.403 . S
C907 C908 1.524 1_556 S
C907 C911 1.400 1_556 S
C908 H893 0.960 . S
C908 H894 0.960 . S
C908 H895 0.960 1_554 S
C908 C907 1.524 1_554 S
C909 C906 1.403 . S
C909 C910 1.392 1_556 S
C909 C913 1.495 . S
C910 C909 1.392 1_554 S
C910 C911 1.385 . S
C910 C912 1.478 . S
C911 H905 0.930 . S
C911 C907 1.400 1_554 S
C911 C910 1.385 . S
C912 C910 1.478 . S
C912 C914 1.381 . S
C912 C918 1.383 . S
C913 C909 1.495 . S
C913 H919 0.959 . S
C913 H920 0.961 . S
C913 H921 0.960 . S
C914 C912 1.381 . S
C914 C915 1.372 1_565 S
C914 H922 0.930 . S
C915 C914 1.372 1_545 S
C915 C916 1.394 1_545 S
C915 H923 0.943 . S
C916 C915 1.394 1_565 S
C916 C917 1.380 . S
C917 H901 0.930 . S
C917 C916 1.380 . S
C917 C918 1.379 . S
C918 H902 0.931 1_554 S
C918 C912 1.383 . S
C918 C917 1.379 . S
H919 C913 0.959 . S
H920 C913 0.961 . S
H921 C913 0.960 . S
H922 C914 0.930 . S
H923 C915 0.943 . S
H924 C932 0.929 . S
H925 C934 0.930 . S
H926 C936 0.930 . S
H927 C939 0.929 . S
H928 C942 0.930 . S
H929 C944 0.960 . S
H930 C944 0.960 . S
H931 C944 0.960 . S
C932 H924 0.929 . S
C932 C933 1.377 . S
C932 C934 1.384 . S
C933 C932 1.377 . S
C933 C939 1.390 . S
C934 H925 0.930 . S
C934 C932 1.384 . S
C934 C935 1.372 . S
C935 C934 1.372 . S
C935 C936 1.400 . S
C935 C940 1.490 . S
C936 H926 0.930 . S
C936 C935 1.400 . S
C936 C939 1.386 . S
H937 C953 0.930 . S
H938 C954 0.931 . S
C939 H927 0.929 . S
C939 C933 1.390 . S
C939 C936 1.386 . S
C940 C935 1.490 . S
C940 C942 1.395 . S
C940 C943 1.403 . S
H941 C947 0.930 . S
C942 H928 0.930 . S
C942 C940 1.395 . S
C942 C945 1.403 . S
C943 C940 1.403 . S
C943 C944 1.524 . S
C943 C947 1.400 . S
C944 H929 0.960 . S
C944 H930 0.960 . S
C944 H931 0.960 . S
C944 C943 1.524 . S
C945 C942 1.403 . S
C945 C946 1.392 . S
C945 C949 1.495 . S
C946 C945 1.392 . S
C946 C947 1.385 . S
C946 C948 1.478 . S
C947 H941 0.930 . S
C947 C943 1.400 . S
C947 C946 1.385 . S
C948 C946 1.478 . S
C948 C950 1.381 . S
C948 C954 1.383 . S
C949 C945 1.495 . S
C949 H955 0.959 . S
C949 H956 0.961 . S
C949 H957 0.960 . S
C950 C948 1.381 . S
C950 C951 1.394 . S
C950 H958 0.930 . S
C951 C950 1.394 . S
C951 C952 1.383 . S
C951 H959 0.929 . S
C952 C951 1.383 . S
C952 C953 1.377 . S
C953 H937 0.930 . S
C953 C952 1.377 . S
C953 C954 1.379 . S
C954 H938 0.931 . S
C954 C948 1.383 . S
C954 C953 1.379 . S
H955 C949 0.959 . S
H956 C949 0.961 . S
H957 C949 0.960 . S
H958 C950 0.930 . S
H959 C951 0.929 . S
H960 C968 0.929 . S
H961 C970 0.930 . S
H962 C972 0.930 . S
H963 C975 0.929 . S
H964 C978 0.930 . S
H965 C980 0.960 . S
H966 C980 0.960 . S
H967 C980 0.960 . S
C968 H960 0.929 . S
C968 C969 1.377 . S
C968 C970 1.384 . S
C969 C968 1.377 . S
C969 C975 1.390 . S
C970 H961 0.930 . S
C970 C968 1.384 . S
C970 C971 1.372 . S
C971 C970 1.372 . S
C971 C972 1.400 . S
C971 C976 1.490 . S
C972 H962 0.930 . S
C972 C971 1.400 . S
C972 C975 1.386 . S
H973 C989 0.930 . S
H974 C990 0.931 . S
C975 H963 0.929 . S
C975 C969 1.390 . S
C975 C972 1.386 . S
C976 C971 1.490 . S
C976 C978 1.395 . S
C976 C979 1.403 . S
H977 C983 0.930 . S
C978 H964 0.930 . S
C978 C976 1.395 . S
C978 C981 1.403 . S
C979 C976 1.403 . S
C979 C980 1.524 . S
C979 C983 1.400 . S
C980 H965 0.960 . S
C980 H966 0.960 . S
C980 H967 0.960 . S
C980 C979 1.524 . S
C981 C978 1.403 . S
C981 C982 1.392 . S
C981 C985 1.495 . S
C982 C981 1.392 . S
C982 C983 1.385 . S
C982 C984 1.478 . S
C983 H977 0.930 . S
C983 C979 1.400 . S
C983 C982 1.385 . S
C984 C982 1.478 . S
C984 C986 1.381 . S
C984 C990 1.383 . S
C985 C981 1.495 . S
C985 H991 0.959 . S
C985 H992 0.961 . S
C985 H993 0.960 . S
C986 C984 1.381 . S
C986 C987 1.394 . S
C986 H994 0.930 . S
C987 C986 1.394 . S
C987 C988 1.383 . S
C987 H995 0.929 . S
C988 C987 1.383 . S
C988 C989 1.377 . S
C989 H973 0.930 . S
C989 C988 1.377 . S
C989 C990 1.379 . S
C990 H974 0.931 . S
C990 C984 1.383 . S
C990 C989 1.379 . S
H991 C985 0.959 . S
H992 C985 0.961 . S
H993 C985 0.960 . S
H994 C986 0.930 . S
H995 C987 0.929 . S
H996 C1004 0.929 . S
H997 C1006 0.930 . S
H998 C1008 0.930 . S
H999 C1011 0.929 . S
H1000 C1014 0.930 . S
H1001 C1016 0.960 . S
H1002 C1016 0.960 . S
H1003 C1016 0.960 . S
C1004 H996 0.929 . S
C1004 C1005 1.377 . S
C1004 C1006 1.384 . S
C1005 C1004 1.377 . S
C1005 C1011 1.390 . S
C1006 H997 0.930 . S
C1006 C1004 1.384 . S
C1006 C1007 1.372 . S
C1007 C1006 1.372 . S
C1007 C1008 1.400 . S
C1007 C1012 1.490 . S
C1008 H998 0.930 . S
C1008 C1007 1.400 . S
C1008 C1011 1.386 . S
H1009 C1025 0.930 . S
H1010 C1026 0.931 . S
C1011 H999 0.929 . S
C1011 C1005 1.390 . S
C1011 C1008 1.386 . S
C1012 C1007 1.490 . S
C1012 C1014 1.395 . S
C1012 C1015 1.403 . S
H1013 C1019 0.930 . S
C1014 H1000 0.930 . S
C1014 C1012 1.395 . S
C1014 C1017 1.403 . S
C1015 C1012 1.403 . S
C1015 C1016 1.524 . S
C1015 C1019 1.400 . S
C1016 H1001 0.960 . S
C1016 H1002 0.960 . S
C1016 H1003 0.960 . S
C1016 C1015 1.524 . S
C1017 C1014 1.403 . S
C1017 C1018 1.392 . S
C1017 C1021 1.495 . S
C1018 C1017 1.392 . S
C1018 C1019 1.385 . S
C1018 C1020 1.478 . S
C1019 H1013 0.930 . S
C1019 C1015 1.400 . S
C1019 C1018 1.385 . S
C1020 C1018 1.478 . S
C1020 C1022 1.381 . S
C1020 C1026 1.383 . S
C1021 C1017 1.495 . S
C1021 H1027 0.959 . S
C1021 H1028 0.961 . S
C1021 H1029 0.960 . S
C1022 C1020 1.381 . S
C1022 C1023 1.394 . S
C1022 H1030 0.930 . S
C1023 C1022 1.394 . S
C1023 C1024 1.383 . S
C1023 H1031 0.929 . S
C1024 C1023 1.383 . S
C1024 C1025 1.377 . S
C1025 H1009 0.930 . S
C1025 C1024 1.377 . S
C1025 C1026 1.379 . S
C1026 H1010 0.931 . S
C1026 C1020 1.383 . S
C1026 C1025 1.379 . S
H1027 C1021 0.959 . S
H1028 C1021 0.961 . S
H1029 C1021 0.960 . S
H1030 C1022 0.930 . S
H1031 C1023 0.929 . S
H1032 C1040 0.929 . S
H1033 C1042 0.930 . S
H1034 C1044 0.930 . S
H1035 C1047 0.929 . S
H1036 C1050 0.930 . S
H1037 C1052 0.960 . S
H1038 C1052 0.960 . S
H1039 C1052 0.960 . S
C1040 H1032 0.929 . S
C1040 C1041 1.377 . S
C1040 C1042 1.384 . S
C1041 C1040 1.377 . S
C1041 C1047 1.390 . S
C1042 H1033 0.930 . S
C1042 C1040 1.384 . S
C1042 C1043 1.372 . S
C1043 C1042 1.372 . S
C1043 C1044 1.400 . S
C1043 C1048 1.490 . S
C1044 H1034 0.930 . S
C1044 C1043 1.400 . S
C1044 C1047 1.386 . S
H1045 C1061 0.930 . S
H1046 C1062 0.931 . S
C1047 H1035 0.929 . S
C1047 C1041 1.390 . S
C1047 C1044 1.386 . S
C1048 C1043 1.490 . S
C1048 C1050 1.395 . S
C1048 C1051 1.403 . S
H1049 C1055 0.930 . S
C1050 H1036 0.930 . S
C1050 C1048 1.395 . S
C1050 C1053 1.403 . S
C1051 C1048 1.403 . S
C1051 C1052 1.524 . S
C1051 C1055 1.400 . S
C1052 H1037 0.960 . S
C1052 H1038 0.960 . S
C1052 H1039 0.960 . S
C1052 C1051 1.524 . S
C1053 C1050 1.403 . S
C1053 C1054 1.392 . S
C1053 C1057 1.495 . S
C1054 C1053 1.392 . S
C1054 C1055 1.385 . S
C1054 C1056 1.478 . S
C1055 H1049 0.930 . S
C1055 C1051 1.400 . S
C1055 C1054 1.385 . S
C1056 C1054 1.478 . S
C1056 C1058 1.381 . S
C1056 C1062 1.383 . S
C1057 C1053 1.495 . S
C1057 H1063 0.959 . S
C1057 H1064 0.961 . S
C1057 H1065 0.960 . S
C1058 C1056 1.381 . S
C1058 C1059 1.394 . S
C1058 H1066 0.930 . S
C1059 C1058 1.394 . S
C1059 C1060 1.383 . S
C1059 H1067 0.929 . S
C1060 C1059 1.383 . S
C1060 C1061 1.377 . S
C1061 H1045 0.930 . S
C1061 C1060 1.377 . S
C1061 C1062 1.379 . S
C1062 H1046 0.931 . S
C1062 C1056 1.383 . S
C1062 C1061 1.379 . S
H1063 C1057 0.959 . S
H1064 C1057 0.961 . S
H1065 C1057 0.960 . S
H1066 C1058 0.930 . S
H1067 C1059 0.929 . S
H1068 C1076 0.929 . S
H1069 C1078 0.930 . S
H1070 C1080 0.930 . S
H1071 C1083 0.929 . S
H1072 C1086 0.930 . S
H1073 C1088 0.960 . S
H1074 C1088 0.960 . S
H1075 C1088 0.960 . S
C1076 H1068 0.929 . S
C1076 C1077 1.377 . S
C1076 C1078 1.384 . S
C1077 C1076 1.377 . S
C1077 C1083 1.390 . S
C1078 H1069 0.930 . S
C1078 C1076 1.384 . S
C1078 C1079 1.372 . S
C1079 C1078 1.372 . S
C1079 C1080 1.400 . S
C1079 C1084 1.490 . S
C1080 H1070 0.930 . S
C1080 C1079 1.400 . S
C1080 C1083 1.386 . S
H1081 C1097 0.930 . S
H1082 C1098 0.931 . S
C1083 H1071 0.929 . S
C1083 C1077 1.390 . S
C1083 C1080 1.386 . S
C1084 C1079 1.490 . S
C1084 C1086 1.395 . S
C1084 C1087 1.403 . S
H1085 C1091 0.930 . S
C1086 H1072 0.930 . S
C1086 C1084 1.395 . S
C1086 C1089 1.403 . S
C1087 C1084 1.403 . S
C1087 C1088 1.524 . S
C1087 C1091 1.400 . S
C1088 H1073 0.960 . S
C1088 H1074 0.960 . S
C1088 H1075 0.960 . S
C1088 C1087 1.524 . S
C1089 C1086 1.403 . S
C1089 C1090 1.392 . S
C1089 C1093 1.495 . S
C1090 C1089 1.392 . S
C1090 C1091 1.385 . S
C1090 C1092 1.478 . S
C1091 H1085 0.930 . S
C1091 C1087 1.400 . S
C1091 C1090 1.385 . S
C1092 C1090 1.478 . S
C1092 C1094 1.381 . S
C1092 C1098 1.383 . S
C1093 C1089 1.495 . S
C1093 H1099 0.959 . S
C1093 H1100 0.961 . S
C1093 H1101 0.960 . S
C1094 C1092 1.381 . S
C1094 C1095 1.394 . S
C1094 H1102 0.930 . S
C1095 C1094 1.394 . S
C1095 C1096 1.383 . S
C1095 H1103 0.929 . S
C1096 C1095 1.383 . S
C1096 C1097 1.377 . S
C1097 H1081 0.930 . S
C1097 C1096 1.377 . S
C1097 C1098 1.379 . S
C1098 H1082 0.931 . S
C1098 C1092 1.383 . S
C1098 C1097 1.379 . S
H1099 C1093 0.959 . S
H1100 C1093 0.961 . S
H1101 C1093 0.960 . S
H1102 C1094 0.930 . S
H1103 C1095 0.929 . S
H1104 C1112 0.929 . S
H1105 C1114 0.930 . S
H1106 C1116 0.930 . S
H1107 C1119 0.929 . S
H1108 C1122 0.930 . S
H1109 C1124 0.960 . S
H1110 C1124 0.960 . S
H1111 C1124 0.960 . S
C1112 H1104 0.929 . S
C1112 C1113 1.377 . S
C1112 C1114 1.384 . S
C1113 C1112 1.377 . S
C1113 C1119 1.390 . S
C1114 H1105 0.930 . S
C1114 C1112 1.384 . S
C1114 C1115 1.372 . S
C1115 C1114 1.372 . S
C1115 C1116 1.400 . S
C1115 C1120 1.490 . S
C1116 H1106 0.930 . S
C1116 C1115 1.400 . S
C1116 C1119 1.386 . S
H1117 C1133 0.930 . S
H1118 C1134 0.931 . S
C1119 H1107 0.929 . S
C1119 C1113 1.390 . S
C1119 C1116 1.386 . S
C1120 C1115 1.490 . S
C1120 C1122 1.395 . S
C1120 C1123 1.403 . S
H1121 C1127 0.930 . S
C1122 H1108 0.930 . S
C1122 C1120 1.395 . S
C1122 C1125 1.403 . S
C1123 C1120 1.403 . S
C1123 C1124 1.524 . S
C1123 C1127 1.400 . S
C1124 H1109 0.960 . S
C1124 H1110 0.960 . S
C1124 H1111 0.960 . S
C1124 C1123 1.524 . S
C1125 C1122 1.403 . S
C1125 C1126 1.392 . S
C1125 C1129 1.495 . S
C1126 C1125 1.392 . S
C1126 C1127 1.385 . S
C1126 C1128 1.478 . S
C1127 H1121 0.930 . S
C1127 C1123 1.400 . S
C1127 C1126 1.385 . S
C1128 C1126 1.478 . S
C1128 C1130 1.381 . S
C1128 C1134 1.383 . S
C1129 C1125 1.495 . S
C1129 H1135 0.959 . S
C1129 H1136 0.961 . S
C1129 H1137 0.960 . S
C1130 C1128 1.381 . S
C1130 C1131 1.394 . S
C1130 H1138 0.930 . S
C1131 C1130 1.394 . S
C1131 C1132 1.383 . S
C1131 H1139 0.929 . S
C1132 C1131 1.383 . S
C1132 C1133 1.377 . S
C1133 H1117 0.930 . S
C1133 C1132 1.377 . S
C1133 C1134 1.379 . S
C1134 H1118 0.931 . S
C1134 C1128 1.383 . S
C1134 C1133 1.379 . S
H1135 C1129 0.959 . S
H1136 C1129 0.961 . S
H1137 C1129 0.960 . S
H1138 C1130 0.930 . S
H1139 C1131 0.929 . S
H1140 C1148 0.929 . S
H1141 C1150 0.930 . S
H1142 C1152 0.930 . S
H1143 C1155 0.929 . S
H1144 C1158 0.930 . S
H1145 C1160 0.960 . S
H1146 C1160 0.960 . S
H1147 C1160 0.960 . S
C1148 H1140 0.929 . S
C1148 C1149 1.377 . S
C1148 C1150 1.384 . S
C1149 C1148 1.377 . S
C1149 C1155 1.390 . S
C1150 H1141 0.930 . S
C1150 C1148 1.384 . S
C1150 C1151 1.372 . S
C1151 C1150 1.372 . S
C1151 C1152 1.400 . S
C1151 C1156 1.490 . S
C1152 H1142 0.930 . S
C1152 C1151 1.400 . S
C1152 C1155 1.386 . S
H1153 C1169 0.930 . S
H1154 C1170 0.931 . S
C1155 H1143 0.929 . S
C1155 C1149 1.390 . S
C1155 C1152 1.386 . S
C1156 C1151 1.490 . S
C1156 C1158 1.395 . S
C1156 C1159 1.403 . S
H1157 C1163 0.930 . S
C1158 H1144 0.930 . S
C1158 C1156 1.395 . S
C1158 C1161 1.403 . S
C1159 C1156 1.403 . S
C1159 C1160 1.524 . S
C1159 C1163 1.400 . S
C1160 H1145 0.960 . S
C1160 H1146 0.960 . S
C1160 H1147 0.960 . S
C1160 C1159 1.524 . S
C1161 C1158 1.403 . S
C1161 C1162 1.392 . S
C1161 C1165 1.495 . S
C1162 C1161 1.392 . S
C1162 C1163 1.385 . S
C1162 C1164 1.478 . S
C1163 H1157 0.930 . S
C1163 C1159 1.400 . S
C1163 C1162 1.385 . S
C1164 C1162 1.478 . S
C1164 C1166 1.381 . S
C1164 C1170 1.383 . S
C1165 C1161 1.495 . S
C1165 H1171 0.959 . S
C1165 H1172 0.961 . S
C1165 H1173 0.960 . S
C1166 C1164 1.381 . S
C1166 C1167 1.394 . S
C1166 H1174 0.930 . S
C1167 C1166 1.394 . S
C1167 C1168 1.383 . S
C1167 H1175 0.929 . S
C1168 C1167 1.383 . S
C1168 C1169 1.377 . S
C1169 H1153 0.930 . S
C1169 C1168 1.377 . S
C1169 C1170 1.379 . S
C1170 H1154 0.931 . S
C1170 C1164 1.383 . S
C1170 C1169 1.379 . S
H1171 C1165 0.959 . S
H1172 C1165 0.961 . S
H1173 C1165 0.960 . S
H1174 C1166 0.930 . S
H1175 C1167 0.929 . S
C321 C6 1.003 . S
C340 C156 1.005 . S
C357 C21 1.624 . S
C376 C217 1.652 . S
C412 C255 1.810 . S
C393 C49 1.742 . S
C429 C68 1.980 . S
C448 C295 2.039 1_655 S
C484 C215 2.265 . S
C465 C2 2.255 . S
C520 C183 1.639 1_565 S
C501 C30 1.583 . S
C556 C292 1.505 . S
C537 C40 1.504 . S
C592 C252 1.444 . S
C573 C63 1.504 . S
C609 C11 0.883 . S
C628 C297 0.962 . S
C664 C212 2.738 . S
C645 C44 2.742 . S
C681 C59 1.635 . S
C700 C154 1.629 . S
C717 C25 1.786 . S
C736 C257 1.809 . S
C772 C177 1.303 . S
C753 C82 1.299 . S
C789 C101 1.246 . S
C808 C196 1.278 . S
C825 C125 2.244 . S
C844 C234 2.244 . S
C861 C144 1.551 . S
C880 C274 1.609 . S
C897 C87 0.901 . S
C916 C194 0.921 1_565 S
C952 C172 2.850 . S
C933 C97 2.785 . S
C988 C303 1.338 . S
C969 C120 1.352 . S
C1024 C263 1.692 . S
C1005 C135 1.687 . S
C1041 C78 1.443 . S
C1060 C276 1.453 . S
C1096 C223 1.903 . S
C1077 C116 1.893 . S
C1132 C175 2.420 . S
C1113 C139 2.461 . S
C1149 C106 1.086 . S
C1168 C236 1.325 . S
