# Generated by pormake.
# Topology pyr, (3,6)-cn, num edge types: 1
# Building blocks:
#     Node 0, Type 0, BuildingBlock: CUQRIR_clean_linker_1, # of connection points: 3
#     Node 1, Type 0, BuildingBlock: CUQRIR_clean_linker_1, # of connection points: 3
#     Node 2, Type 0, BuildingBlock: CUQRIR_clean_linker_1, # of connection points: 3
#     Node 3, Type 0, BuildingBlock: CUQRIR_clean_linker_1, # of connection points: 3
#     Node 4, Type 0, BuildingBlock: CUQRIR_clean_linker_1, # of connection points: 3
#     Node 5, Type 0, BuildingBlock: CUQRIR_clean_linker_1, # of connection points: 3
#     Node 6, Type 0, BuildingBlock: CUQRIR_clean_linker_1, # of connection points: 3
#     Node 7, Type 0, BuildingBlock: CUQRIR_clean_linker_1, # of connection points: 3
#     Node 8, Type 1, BuildingBlock: BETDEL_clean_sbu_0, # of connection points: 6
#     Node 9, Type 1, BuildingBlock: BETDEL_clean_sbu_0, # of connection points: 6
#     Node 10, Type 1, BuildingBlock: BETDEL_clean_sbu_0, # of connection points: 6
#     Node 11, Type 1, BuildingBlock: BETDEL_clean_sbu_0, # of connection points: 6
#     Edge 12, Type (0, 1), BuildingBlock: ZUJKAS_clean_linker_0, # of connection points: 2
#     Edge 13, Type (0, 1), BuildingBlock: ZUJKAS_clean_linker_0, # of connection points: 2
#     Edge 14, Type (0, 1), BuildingBlock: ZUJKAS_clean_linker_0, # of connection points: 2
#     Edge 15, Type (0, 1), BuildingBlock: ZUJKAS_clean_linker_0, # of connection points: 2
#     Edge 16, Type (0, 1), BuildingBlock: ZUJKAS_clean_linker_0, # of connection points: 2
#     Edge 17, Type (0, 1), BuildingBlock: ZUJKAS_clean_linker_0, # of connection points: 2
#     Edge 18, Type (0, 1), BuildingBlock: ZUJKAS_clean_linker_0, # of connection points: 2
#     Edge 19, Type (0, 1), BuildingBlock: ZUJKAS_clean_linker_0, # of connection points: 2
#     Edge 20, Type (0, 1), BuildingBlock: ZUJKAS_clean_linker_0, # of connection points: 2
#     Edge 21, Type (0, 1), BuildingBlock: ZUJKAS_clean_linker_0, # of connection points: 2
#     Edge 22, Type (0, 1), BuildingBlock: ZUJKAS_clean_linker_0, # of connection points: 2
#     Edge 23, Type (0, 1), BuildingBlock: ZUJKAS_clean_linker_0, # of connection points: 2
#     Edge 24, Type (0, 1), BuildingBlock: ZUJKAS_clean_linker_0, # of connection points: 2
#     Edge 25, Type (0, 1), BuildingBlock: ZUJKAS_clean_linker_0, # of connection points: 2
#     Edge 26, Type (0, 1), BuildingBlock: ZUJKAS_clean_linker_0, # of connection points: 2
#     Edge 27, Type (0, 1), BuildingBlock: ZUJKAS_clean_linker_0, # of connection points: 2
#     Edge 28, Type (0, 1), BuildingBlock: ZUJKAS_clean_linker_0, # of connection points: 2
#     Edge 29, Type (0, 1), BuildingBlock: ZUJKAS_clean_linker_0, # of connection points: 2
#     Edge 30, Type (0, 1), BuildingBlock: ZUJKAS_clean_linker_0, # of connection points: 2
#     Edge 31, Type (0, 1), BuildingBlock: ZUJKAS_clean_linker_0, # of connection points: 2
#     Edge 32, Type (0, 1), BuildingBlock: ZUJKAS_clean_linker_0, # of connection points: 2
#     Edge 33, Type (0, 1), BuildingBlock: ZUJKAS_clean_linker_0, # of connection points: 2
#     Edge 34, Type (0, 1), BuildingBlock: ZUJKAS_clean_linker_0, # of connection points: 2
#     Edge 35, Type (0, 1), BuildingBlock: ZUJKAS_clean_linker_0, # of connection points: 2
# Relax obj value: 0.093
# Max RMSD: 0.226
# Mean RMSD: 0.154
data_MOF--net-pyr--node1-BETDEL_clean_sbu_0--node2-CUQRIR_clean_linker_1--edge1-ZUJKAS_clean_linker_0
_symmetry_space_group_name_H-M    P1
_symmetry_Int_Tables_number       1
_symmetry_cell_setting            triclinic
loop_
_symmetry_equiv_pos_as_xyz
'x, y, z'
_cell_length_a     45.039576
_cell_length_b     46.744049
_cell_length_c     42.220057
_cell_angle_alpha  90.412826
_cell_angle_beta   90.908444
_cell_angle_gamma 98.265748
loop_
_atom_site_label
_atom_site_type_symbol
_atom_site_fract_x
_atom_site_fract_y
_atom_site_fract_z
_atom_type_partial_charge
C0 C 0.21068 0.25081 0.16526 0.0
N1 N 0.22571 0.22824 0.17053 0.0
N2 N 0.22051 0.26495 0.13878 0.0
C3 C 0.18379 0.25677 0.18352 0.0
C4 C 0.24178 0.24997 0.12781 0.0
N5 N 0.245 0.22763 0.14718 0.0
C6 C 0.25861 0.2568 0.09773 0.0
H7 H 0.16317 0.24591 0.17132 0.0
H8 H 0.18263 0.28031 0.18441 0.0
H9 H 0.18448 0.24836 0.20799 0.0
H10 H 0.2601 0.28015 0.09226 0.0
H11 H 0.24637 0.2443 0.07792 0.0
H12 H 0.2815 0.25074 0.09961 0.0
C13 C 0.29192 0.83927 0.65026 0.0
N14 N 0.28843 0.86262 0.66841 0.0
N15 N 0.31565 0.82692 0.66077 0.0
C16 C 0.27398 0.83014 0.6206 0.0
C17 C 0.32655 0.84365 0.68581 0.0
N18 N 0.31029 0.8655 0.69021 0.0
C19 C 0.35208 0.83777 0.7071 0.0
H20 H 0.25347 0.81539 0.62706 0.0
H21 H 0.28704 0.81855 0.60399 0.0
H22 H 0.26703 0.84913 0.60843 0.0
H23 H 0.37323 0.85027 0.69861 0.0
H24 H 0.35442 0.81446 0.70686 0.0
H25 H 0.34868 0.8447 0.73181 0.0
C26 C 0.62012 0.35113 0.84876 0.0
N27 N 0.63731 0.3475 0.87459 0.0
N28 N 0.62711 0.37816 0.83729 0.0
C29 C 0.59557 0.32875 0.83564 0.0
C30 C 0.64915 0.39086 0.85705 0.0
N31 N 0.65508 0.37233 0.88008 0.0
C32 C 0.66693 0.42024 0.85178 0.0
H33 H 0.60552 0.31434 0.81912 0.0
H34 H 0.57842 0.339 0.8225 0.0
H35 H 0.58462 0.3153 0.85491 0.0
H36 H 0.65765 0.43639 0.86665 0.0
H37 H 0.66565 0.42675 0.82664 0.0
H38 H 0.69085 0.42045 0.85864 0.0
C39 C 0.83324 0.67095 0.32507 0.0
N40 N 0.85761 0.69018 0.31772 0.0
N41 N 0.81702 0.68176 0.34792 0.0
C42 C 0.82439 0.64228 0.30855 0.0
C43 C 0.83243 0.70841 0.35403 0.0
N44 N 0.85692 0.71367 0.33551 0.0
C45 C 0.82473 0.72859 0.3796 0.0
H46 H 0.79975 0.63564 0.30895 0.0
H47 H 0.83545 0.62565 0.32087 0.0
H48 H 0.83182 0.64319 0.2836 0.0
H49 H 0.81221 0.71648 0.39888 0.0
H50 H 0.8105 0.74372 0.36916 0.0
H51 H 0.84528 0.74155 0.38978 0.0
C52 C 0.80822 0.8594 0.87554 0.0
N53 N 0.83414 0.8562 0.86108 0.0
N54 N 0.80082 0.88594 0.86987 0.0
C55 C 0.7915 0.83765 0.8974 0.0
C56 C 0.82331 0.89893 0.85181 0.0
N57 N 0.84381 0.88092 0.84677 0.0
C58 C 0.8239 0.9282 0.83703 0.0
H59 H 0.77535 0.82233 0.8832 0.0
H60 H 0.77881 0.84836 0.91516 0.0
H61 H 0.80714 0.82513 0.90996 0.0
H62 H 0.83807 0.94454 0.85202 0.0
H63 H 0.80103 0.93429 0.83522 0.0
H64 H 0.8337 0.92853 0.81306 0.0
C65 C 0.75252 0.23632 0.4058 0.0
N66 N 0.75977 0.21525 0.38611 0.0
N67 N 0.72783 0.24688 0.39476 0.0
C68 C 0.76774 0.24489 0.43707 0.0
C69 C 0.7204 0.23176 0.36772 0.0
N70 N 0.73953 0.21253 0.36257 0.0
C71 C 0.69455 0.23603 0.34598 0.0
H72 H 0.7767 0.22631 0.44802 0.0
H73 H 0.75197 0.25315 0.45361 0.0
H74 H 0.78669 0.2624 0.43317 0.0
H75 H 0.68972 0.25861 0.34732 0.0
H76 H 0.67429 0.22135 0.3533 0.0
H77 H 0.69921 0.23078 0.32106 0.0
C78 C 0.34338 0.6789 0.1771 0.0
N79 N 0.36978 0.69551 0.18455 0.0
N80 N 0.32613 0.69363 0.15854 0.0
C81 C 0.33341 0.64922 0.19011 0.0
C82 C 0.34283 0.71982 0.15516 0.0
N83 N 0.36914 0.7211 0.17133 0.0
C84 C 0.33416 0.7437 0.13475 0.0
H85 H 0.34228 0.633 0.17498 0.0
H86 H 0.30859 0.64417 0.19031 0.0
H87 H 0.34233 0.6474 0.21455 0.0
H88 H 0.31825 0.73496 0.11555 0.0
H89 H 0.35421 0.75633 0.12409 0.0
H90 H 0.32321 0.7586 0.14973 0.0
C91 C 0.14395 0.36328 0.69533 0.0
N92 N 0.16312 0.35736 0.67249 0.0
N93 N 0.15609 0.38639 0.71311 0.0
C94 C 0.11415 0.34537 0.70166 0.0
C95 C 0.18346 0.39426 0.70039 0.0
N96 N 0.18792 0.37648 0.67587 0.0
C97 C 0.20487 0.42059 0.71046 0.0
H98 H 0.10745 0.34787 0.72659 0.0
H99 H 0.11497 0.32217 0.69663 0.0
H100 H 0.09682 0.35262 0.68588 0.0
H101 H 0.22204 0.4139 0.72685 0.0
H102 H 0.19306 0.43653 0.72288 0.0
H103 H 0.21654 0.43105 0.68968 0.0
Dy104 Dy 0.04966 0.04079 0.46534 0.0
C105 C 0.00682 0.98931 0.58394 0.0
C106 C 0.06881 0.05866 0.40703 0.0
Dy107 Dy 0.01932 0.01818 0.52897 0.0
O108 O 0.07699 0.03691 0.42212 0.0
O109 O 0.04957 0.07047 0.42358 0.0
O110 O 0.09449 0.04064 0.48955 0.0
O111 O 0.05812 0.01005 0.50225 0.0
C112 C 0.08509 0.01982 0.50869 0.0
C113 C 0.98313 0.04987 0.49723 0.0
O114 O 0.04774 0.06018 0.54413 0.0
O115 O 0.05503 0.08136 0.49445 0.0
O116 O 0.02937 0.00977 0.58038 0.0
O117 O 0.99128 0.98505 0.55776 0.0
O118 O 0.97692 0.03872 0.52487 0.0
O119 O 0.00815 0.04347 0.48917 0.0
O120 O 0.02047 1.00051 0.44803 0.0
O121 O 0.00917 0.97915 0.49686 0.0
C122 C 0.05653 0.08291 0.52588 0.0
C123 C 0.00892 0.97818 0.46538 0.0
Dy124 Dy 0.54019 0.04843 0.06269 0.0
C125 C 0.45707 0.99455 0.96235 0.0
C126 C 0.58509 0.07984 0.09744 0.0
Dy127 Dy 0.49282 0.02273 0.00902 0.0
O128 O 0.58354 0.05267 0.09003 0.0
O129 O 0.56202 0.09023 0.08552 0.0
O130 O 0.53063 0.01227 0.09794 0.0
O131 O 0.50776 0.01028 0.05497 0.0
C132 C 0.51082 0.99665 0.08005 0.0
C133 C 0.51773 0.07833 0.00389 0.0
O134 O 0.46298 0.03686 0.04585 0.0
O135 O 0.49919 0.06868 0.07373 0.0
O136 O 0.48256 0.01082 0.95808 0.0
O137 O 0.45116 0.99314 0.99247 0.0
O138 O 0.49066 0.06856 0.99422 0.0
O139 O 0.53059 0.05779 0.01345 0.0
O140 O 0.56869 0.02987 0.02745 0.0
O141 O 0.53146 0.99849 1.00088 0.0
C142 C 0.47078 0.05814 0.0667 0.0
C143 C 0.56006 0.00775 0.00796 0.0
Dy144 Dy 0.50675 0.50131 0.48288 0.0
C145 C 0.45612 0.59076 0.5476 0.0
C146 C 0.54272 0.46394 0.45931 0.0
Dy147 Dy 0.48704 0.55097 0.52034 0.0
O148 O 0.51356 0.45908 0.45959 0.0
O149 O 0.552 0.48939 0.47115 0.0
O150 O 0.45904 0.4798 0.47786 0.0
O151 O 0.47253 0.50432 0.51875 0.0
C152 C 0.45026 0.49036 0.50415 0.0
C153 C 0.54361 0.56093 0.49911 0.0
O154 O 0.50058 0.52562 0.56129 0.0
O155 O 0.52689 0.49625 0.5314 0.0
O156 O 0.48506 0.59332 0.54528 0.0
O157 O 0.44393 0.56623 0.53526 0.0
O158 O 0.53527 0.5716 0.52546 0.0
O159 O 0.52102 0.54765 0.48466 0.0
O160 O 0.49328 0.52725 0.44194 0.0
O161 O 0.46683 0.55651 0.47203 0.0
C162 C 0.51937 0.50638 0.55913 0.0
C163 C 0.47483 0.54693 0.44419 0.0
Dy164 Dy 1.00299 0.50969 0.02245 0.0
C165 C 0.95236 0.60867 0.97038 0.0
C166 C 0.0336 0.46405 0.02843 0.0
Dy167 Dy 0.97978 0.56406 0.99132 0.0
O168 O 0.00663 0.46466 0.03887 0.0
O169 O 0.04361 0.48825 0.01477 0.0
O170 O 0.99237 0.51907 0.07371 0.0
O171 O 0.98267 0.54618 0.03783 0.0
C172 C 0.9813 0.54267 0.06728 0.0
C173 C 0.01371 0.53448 0.95486 0.0
O174 O 0.02156 0.58507 0.01602 0.0
O175 O 0.04367 0.54328 0.0219 0.0
O176 O 0.95354 0.58487 0.9547 0.0
O177 O 0.96577 0.60796 0.9978 0.0
O178 O 0.01334 0.56212 0.95271 0.0
O179 O 0.99444 0.52394 0.97451 0.0
O180 O 0.95821 0.48986 1.00358 0.0
O181 O 0.93747 0.53236 0.99599 0.0
C182 C 0.04495 0.57179 0.02277 0.0
C183 C 0.93499 0.5037 0.99783 0.0
H184 H 0.24804 0.21854 0.22822 0.0
H185 H 0.22537 0.18283 0.26655 0.0
H186 H 0.15613 0.15174 0.19763 0.0
H187 H 0.17987 0.18642 0.15917 0.0
H188 H 0.17276 0.18338 0.29044 0.0
H189 H 0.17171 0.07664 0.23324 0.0
H190 H 0.19419 0.10885 0.21882 0.0
H191 H 0.15507 0.10057 0.20768 0.0
C192 C 0.22872 0.20317 0.22113 0.0
C193 C 0.21581 0.20453 0.19092 0.0
C194 C 0.21563 0.18301 0.24294 0.0
C195 C 0.18924 0.16428 0.23485 0.0
C196 C 0.17694 0.16524 0.20417 0.0
H197 H 0.0536 0.10304 0.37147 0.0
H198 H 0.08209 0.12722 0.32779 0.0
C199 C 0.19031 0.18507 0.1823 0.0
C200 C 0.1725 0.14648 0.25948 0.0
H201 H 0.1359 0.07899 0.27477 0.0
C202 C 0.16505 0.16046 0.28716 0.0
C203 C 0.16261 0.11653 0.25536 0.0
C204 C 0.17161 0.09975 0.2273 0.0
C205 C 0.14746 0.14554 0.31051 0.0
C206 C 0.13602 0.11602 0.3055 0.0
C207 C 0.14412 0.10179 0.27824 0.0
C208 C 0.1166 0.09936 0.32895 0.0
C209 C 0.14179 0.16153 0.34052 0.0
C210 C 0.1255 0.07462 0.34263 0.0
C211 C 0.10891 0.06046 0.36699 0.0
C212 C 0.08328 0.07093 0.3782 0.0
C213 C 0.07345 0.09474 0.3634 0.0
C214 C 0.08984 0.10868 0.33869 0.0
H215 H 0.15902 0.18079 0.34458 0.0
H216 H 0.11963 0.16915 0.33854 0.0
H217 H 0.14169 0.14733 0.3615 0.0
H218 H 0.14592 0.06692 0.3353 0.0
H219 H 0.11693 0.04207 0.37798 0.0
H220 H 0.27614 0.86912 0.74132 0.0
H221 H 0.29211 0.89618 0.79046 0.0
H222 H 0.37313 0.93461 0.74497 0.0
H223 H 0.35698 0.90761 0.69625 0.0
H224 H 0.34452 0.88704 0.82219 0.0
H225 H 0.34952 1.00305 0.79432 0.0
H226 H 0.3278 0.97487 0.77072 0.0
H227 H 0.36758 0.98375 0.76515 0.0
C228 C 0.29667 0.88436 0.74166 0.0
C229 C 0.31524 0.88678 0.71519 0.0
C230 C 0.30593 0.89956 0.76967 0.0
C231 C 0.33372 0.91764 0.77135 0.0
C232 C 0.35134 0.92134 0.74413 0.0
H233 H 0.46893 0.99572 0.89957 0.0
H234 H 0.43567 0.97681 0.85568 0.0
C235 C 0.34216 0.90601 0.71631 0.0
C236 C 0.34639 0.92951 0.80224 0.0
H237 H 0.38024 0.99158 0.83835 0.0
C238 C 0.3518 0.90996 0.82605 0.0
C239 C 0.356 0.95937 0.80715 0.0
C240 C 0.34967 0.9815 0.78309 0.0
C241 C 0.36806 0.91929 0.85384 0.0
C242 C 0.37873 0.94907 0.85819 0.0
C243 C 0.37219 0.96874 0.83496 0.0
C244 C 0.3986 0.96005 0.88541 0.0
C245 C 0.3751 0.89703 0.87746 0.0
C246 C 0.38889 0.95687 0.91685 0.0
C247 C 0.40805 0.96751 0.94211 0.0
C248 C 0.43709 0.98169 0.93626 0.0
C249 C 0.4467 0.9848 0.90482 0.0
C250 C 0.42766 0.97412 0.87969 0.0
H251 H 0.37077 0.87474 0.86745 0.0
H252 H 0.39892 0.90152 0.88553 0.0
H253 H 0.36077 0.89789 0.89847 0.0
H254 H 0.36639 0.94652 0.92184 0.0
H255 H 0.39998 0.96506 0.96611 0.0
H256 H 0.62563 0.35749 0.77756 0.0
H257 H 0.60666 0.37978 0.73014 0.0
H258 H 0.58247 0.44896 0.78808 0.0
H259 H 0.60133 0.42649 0.83544 0.0
H260 H 0.53687 0.4218 0.74117 0.0
H261 H 0.64951 0.45735 0.69098 0.0
H262 H 0.64181 0.42017 0.70286 0.0
H263 H 0.64425 0.44837 0.73226 0.0
C264 C 0.616 0.3773 0.77999 0.0
C265 C 0.61482 0.39043 0.80982 0.0
C266 C 0.60541 0.39008 0.75305 0.0
C267 C 0.5935 0.41613 0.7557 0.0
C268 C 0.59172 0.42892 0.78563 0.0
H269 H 0.51251 0.52343 0.62052 0.0
H270 H 0.53047 0.50223 0.6687 0.0
C271 C 0.60246 0.41621 0.81252 0.0
C272 C 0.58301 0.43011 0.7272 0.0
H273 H 0.60746 0.46436 0.65937 0.0
C274 C 0.55223 0.43122 0.72328 0.0
C275 C 0.60321 0.44228 0.70403 0.0
C276 C 0.63659 0.44226 0.70768 0.0
C277 C 0.54096 0.44369 0.69631 0.0
C278 C 0.56119 0.45598 0.67313 0.0
C279 C 0.59202 0.45497 0.6772 0.0
C280 C 0.55082 0.46941 0.64407 0.0
C281 C 0.50747 0.44281 0.69247 0.0
C282 C 0.55721 0.45865 0.61423 0.0
C283 C 0.54733 0.47093 0.58667 0.0
C284 C 0.53084 0.49425 0.58841 0.0
C285 C 0.52492 0.50534 0.61834 0.0
C286 C 0.53499 0.49312 0.64592 0.0
H287 H 0.49492 0.42608 0.70767 0.0
H288 H 0.50132 0.46408 0.69952 0.0
H289 H 0.50016 0.43838 0.66746 0.0
H290 H 0.56954 0.44047 0.61227 0.0
H291 H 0.55234 0.46185 0.56404 0.0
H292 H 0.8623 0.71344 0.25947 0.0
H293 H 0.88723 0.69387 0.21424 0.0
H294 H 0.92431 0.63528 0.277 0.0
H295 H 0.8991 0.65467 0.3218 0.0
H296 H 0.94893 0.68274 0.19944 0.0
H297 H 0.86748 0.583 0.21456 0.0
H298 H 0.863 0.61695 0.2332 0.0
H299 H 0.88884 0.59492 0.24971 0.0
C300 C 0.87685 0.69727 0.26361 0.0
C301 C 0.87919 0.68573 0.29401 0.0
C302 C 0.89085 0.6859 0.23781 0.0
C303 C 0.90723 0.66274 0.24212 0.0
C304 C 0.91152 0.65289 0.273 0.0
H305 H 0.98105 0.536 0.13099 0.0
H306 H 0.9635 0.56704 0.17132 0.0
C307 C 0.89748 0.66417 0.29864 0.0
C308 C 0.91715 0.64677 0.2144 0.0
H309 H 0.90644 0.58037 0.17809 0.0
C310 C 0.93954 0.66043 0.19458 0.0
C311 C 0.90468 0.61772 0.20786 0.0
C312 C 0.87947 0.60229 0.22722 0.0
C313 C 0.95064 0.64539 0.16925 0.0
C314 C 0.93867 0.61607 0.16328 0.0
C315 C 0.91576 0.60276 0.18268 0.0
C316 C 0.95039 0.59819 0.13815 0.0
C317 C 0.9758 0.66068 0.1498 0.0
C318 C 0.94878 0.60515 0.10583 0.0
C319 C 0.95886 0.58727 0.08258 0.0
C320 C 0.97059 0.56209 0.09123 0.0
C321 C 0.97213 0.55523 0.12352 0.0
C322 C 0.96211 0.573 0.14664 0.0
H323 H 0.98692 0.68079 0.16163 0.0
H324 H 0.99293 0.64634 0.14523 0.0
H325 H 0.96662 0.66662 0.12661 0.0
H326 H 0.93927 0.6241 0.09854 0.0
H327 H 0.95722 0.593 0.05791 0.0
H328 H 0.2461 0.19252 0.09647 0.0
H329 H 0.28244 0.15906 0.08685 0.0
H330 H 0.32343 0.18087 0.17856 0.0
H331 H 0.28734 0.21464 0.18781 0.0
H332 H 0.34565 0.17788 0.08698 0.0
H333 H 0.31362 0.09093 0.17436 0.0
H334 H 0.28823 0.11526 0.16136 0.0
H335 H 0.31754 0.12728 0.18975 0.0
C336 C 0.26279 0.18988 0.11454 0.0
C337 C 0.26424 0.20602 0.14278 0.0
C338 C 0.28335 0.17078 0.10916 0.0
C339 C 0.30539 0.16735 0.13213 0.0
C340 C 0.30623 0.18282 0.16081 0.0
H341 H 0.47643 0.10833 0.10153 0.0
H342 H 0.43606 0.13385 0.11987 0.0
C343 C 0.28571 0.20202 0.1661 0.0
C344 C 0.32915 0.14969 0.12486 0.0
H345 H 0.35949 0.08999 0.14749 0.0
C346 C 0.34865 0.15862 0.10013 0.0
C347 C 0.33283 0.12458 0.14208 0.0
C348 C 0.31184 0.1137 0.16823 0.0
C349 C 0.37205 0.14325 0.09232 0.0
C350 C 0.37611 0.11846 0.10989 0.0
C351 C 0.3564 0.10923 0.13436 0.0
C352 C 0.40032 0.1015 0.10227 0.0
C353 C 0.3921 0.1534 0.06511 0.0
C354 C 0.39341 0.07454 0.08716 0.0
C355 C 0.41637 0.05993 0.07654 0.0
C356 C 0.44662 0.072 0.08105 0.0
C357 C 0.4534 0.09842 0.0976 0.0
C358 C 0.43041 0.11308 0.10805 0.0
H359 H 0.38284 0.16989 0.0506 0.0
H360 H 0.41444 0.16312 0.07457 0.0
H361 H 0.39539 0.13491 0.04954 0.0
H362 H 0.37026 0.06532 0.08256 0.0
H363 H 0.41034 0.03952 0.06409 0.0
H364 H 0.22829 0.84961 0.66513 0.0
H365 H 0.19296 0.8808 0.64479 0.0
H366 H 0.26559 0.95136 0.63796 0.0
H367 H 0.30094 0.91987 0.6578 0.0
H368 H 0.17752 0.93661 0.66252 0.0
H369 H 0.23328 0.93695 0.54591 0.0
H370 H 0.23973 0.91208 0.5769 0.0
H371 H 0.25749 0.94901 0.57905 0.0
C372 C 0.23646 0.87196 0.65984 0.0
C373 C 0.26721 0.88241 0.66277 0.0
C374 C 0.21635 0.88974 0.64828 0.0
C375 C 0.22673 0.91825 0.63935 0.0
C376 C 0.25718 0.9293 0.64431 0.0
H377 H 0.14332 0.0393 0.52421 0.0
H378 H 0.17687 0.0165 0.55894 0.0
C379 C 0.27729 0.91148 0.65592 0.0
C380 C 0.2062 0.93539 0.62239 0.0
H381 H 0.19337 0.96403 0.55011 0.0
C382 C 0.181 0.94275 0.63798 0.0
C383 C 0.21067 0.94317 0.5903 0.0
C384 C 0.23658 0.93474 0.57186 0.0
C385 C 0.16036 0.95803 0.62244 0.0
C386 C 0.16473 0.96561 0.59025 0.0
C387 C 0.19005 0.95835 0.5748 0.0
C388 C 0.14331 0.98072 0.57175 0.0
C389 C 0.13435 0.9663 0.64078 0.0
C390 C 0.11314 0.96837 0.56749 0.0
C391 C 0.09385 0.98149 0.54772 0.0
C392 C 0.10451 0.00699 0.53155 0.0
C393 C 0.1345 0.0196 0.5363 0.0
C394 C 0.1537 0.00659 0.55615 0.0
H395 H 0.13899 0.96666 0.66672 0.0
H396 H 0.12913 0.98786 0.63362 0.0
H397 H 0.11419 0.95013 0.63597 0.0
H398 H 0.10471 0.9481 0.57865 0.0
H399 H 0.07084 0.97126 0.54441 0.0
H400 H 0.66555 0.4162 0.92218 0.0
H401 H 0.71307 0.43179 0.95054 0.0
H402 H 0.74643 0.35465 0.91869 0.0
H403 H 0.69938 0.33995 0.8889 0.0
H404 H 0.74914 0.41217 0.99532 0.0
H405 H 0.80382 0.41752 0.87791 0.0
H406 H 0.76366 0.4109 0.88194 0.0
H407 H 0.78569 0.38218 0.8882 0.0
C408 C 0.68291 0.40241 0.92182 0.0
C409 C 0.67924 0.37724 0.90304 0.0
C410 C 0.70996 0.41123 0.93804 0.0
C411 C 0.73361 0.3948 0.93594 0.0
C412 C 0.72875 0.36804 0.9199 0.0
H413 H 0.92228 0.44527 0.98827 0.0
H414 H 0.87338 0.4168 0.97669 0.0
C415 C 0.70179 0.35943 0.9033 0.0
C416 C 0.76399 0.4073 0.94758 0.0
H417 H 0.8348 0.43145 0.92228 0.0
C418 C 0.76793 0.41619 0.97942 0.0
C419 C 0.78842 0.41288 0.92666 0.0
C420 C 0.78524 0.40565 0.89172 0.0
C421 C 0.79559 0.43064 0.99081 0.0
C422 C 0.81978 0.43629 0.96983 0.0
C423 C 0.81612 0.42686 0.93826 0.0
C424 C 0.84881 0.45316 0.9796 0.0
C425 C 0.79882 0.44 0.02509 0.0
C426 C 0.85107 0.48305 0.98492 0.0
C427 C 0.87902 0.49951 0.9912 0.0
C428 C 0.90516 0.48628 0.99239 0.0
C429 C 0.90263 0.45618 0.98763 0.0
C430 C 0.87472 0.43982 0.98105 0.0
H431 H 0.77995 0.4295 0.0395 0.0
H432 H 0.82026 0.43484 0.03537 0.0
H433 H 0.79929 0.46377 0.0267 0.0
H434 H 0.8313 0.49375 0.98342 0.0
H435 H 0.88015 0.52261 0.99483 0.0
H436 H 0.80709 0.62838 0.37336 0.0
H437 H 0.7607 0.60485 0.39733 0.0
H438 H 0.71987 0.68166 0.38137 0.0
H439 H 0.76559 0.70434 0.35564 0.0
H440 H 0.73236 0.61699 0.4481 0.0
H441 H 0.65536 0.62251 0.34581 0.0
H442 H 0.69553 0.63076 0.34246 0.0
H443 H 0.67408 0.65765 0.35701 0.0
C444 C 0.78797 0.63994 0.3745 0.0
C445 C 0.78981 0.66806 0.36242 0.0
C446 C 0.76154 0.62662 0.38841 0.0
C447 C 0.73642 0.64119 0.39069 0.0
C448 C 0.73851 0.66955 0.37915 0.0
H449 H 0.58991 0.60008 0.52198 0.0
H450 H 0.63689 0.61804 0.49584 0.0
C451 C 0.76479 0.68271 0.36487 0.0
C452 C 0.70845 0.62707 0.40599 0.0
H453 H 0.63234 0.61171 0.39582 0.0
C454 C 0.71053 0.61565 0.43652 0.0
C455 C 0.6799 0.6247 0.39079 0.0
C456 C 0.67608 0.63427 0.35709 0.0
C457 C 0.68495 0.60266 0.4525 0.0
C458 C 0.65622 0.60186 0.43804 0.0
C459 C 0.65422 0.61261 0.40719 0.0
C460 C 0.62794 0.59026 0.45448 0.0
C461 C 0.68916 0.58947 0.48449 0.0
C462 C 0.60664 0.5692 0.4397 0.0
C463 C 0.57943 0.55934 0.45437 0.0
C464 C 0.57299 0.57021 0.48423 0.0
C465 C 0.59436 0.59106 0.49913 0.0
C466 C 0.62138 0.60119 0.48428 0.0
H467 H 0.71191 0.58313 0.48718 0.0
H468 H 0.68677 0.60566 0.50329 0.0
H469 H 0.67227 0.5701 0.48829 0.0
H470 H 0.61099 0.5605 0.41666 0.0
H471 H 0.5633 0.54343 0.44218 0.0
H472 H 0.22309 0.32149 0.15162 0.0
H473 H 0.19156 0.35451 0.12736 0.0
H474 H 0.15112 0.28563 0.06506 0.0
H475 H 0.18339 0.25309 0.08886 0.0
H476 H 0.16095 0.3375 0.03478 0.0
H477 H 0.10332 0.34811 0.14841 0.0
H478 H 0.14313 0.35894 0.15149 0.0
H479 H 0.12845 0.32189 0.14232 0.0
C480 C 0.20784 0.31385 0.1323 0.0
C481 C 0.20539 0.28513 0.12183 0.0
C482 C 0.18971 0.33245 0.11871 0.0
C483 C 0.16856 0.32226 0.09493 0.0
C484 C 0.1672 0.29384 0.08347 0.0
H485 H 0.01541 0.41128 0.0543 0.0
H486 H 0.04675 0.37396 0.06682 0.0
C487 C 0.18554 0.27536 0.09689 0.0
C488 C 0.14692 0.34078 0.08304 0.0
H489 H 0.0928 0.37974 0.10717 0.0
C490 C 0.14592 0.34665 0.05053 0.0
C491 C 0.12681 0.35202 0.10355 0.0
C492 C 0.12519 0.34469 0.13832 0.0
C493 C 0.12593 0.36426 0.03809 0.0
C494 C 0.10703 0.37684 0.05891 0.0
C495 C 0.10747 0.37026 0.09127 0.0
C496 C 0.08741 0.39778 0.04807 0.0
C497 C 0.12506 0.36893 1.00278 0.0
C498 C 0.09983 0.42336 0.03318 0.0
C499 C 0.08194 0.44445 0.02574 0.0
C500 C 0.05147 0.44053 0.03362 0.0
C501 C 0.03887 0.41476 0.04801 0.0
C502 C 0.05673 0.3935 0.05516 0.0
H503 H 0.13279 0.35075 0.98967 0.0
H504 H 0.1021 0.37129 0.99424 0.0
H505 H 0.14034 0.38894 0.99702 0.0
H506 H 0.12358 0.4275 0.02828 0.0
H507 H 0.09222 0.46425 0.0148 0.0
H508 H 0.64977 0.29517 0.85773 0.0
H509 H 0.63554 0.2499 0.88649 0.0
H510 H 0.60283 0.29781 0.96304 0.0
H511 H 0.61815 0.34315 0.93449 0.0
H512 H 0.62841 0.25043 0.98438 0.0
H513 H 0.54641 0.21945 0.88631 0.0
H514 H 0.58451 0.2261 0.8734 0.0
H515 H 0.56743 0.2552 0.89004 0.0
C516 C 0.64032 0.29588 0.8811 0.0
C517 C 0.6348 0.32225 0.89405 0.0
C518 C 0.63201 0.27016 0.89738 0.0
C519 C 0.6174 0.27044 0.92651 0.0
C520 C 0.61391 0.29709 0.94052 0.0
H521 H 0.49153 0.12518 0.98836 0.0
H522 H 0.51642 0.1732 0.97402 0.0
C523 C 0.62266 0.32289 0.92436 0.0
C524 C 0.60314 0.243 0.94065 0.0
H525 H 0.55097 0.18396 0.92497 0.0
C526 C 0.61144 0.23586 0.97148 0.0
C527 C 0.58049 0.22437 0.92404 0.0
C528 C 0.56892 0.23175 0.89176 0.0
C529 C 0.59804 0.21027 0.98592 0.0
C530 C 0.57623 0.19112 0.96876 0.0
C531 C 0.56778 0.19853 0.93809 0.0
C532 C 0.56148 0.16331 0.98182 0.0
C533 C 0.6069 0.20436 0.01959 0.0
C534 C 0.57847 0.1419 0.99165 0.0
C535 C 0.56421 0.11453 1.0003 0.0
C536 C 0.53278 0.108 0.99859 0.0
C537 C 0.5158 0.12964 0.98969 0.0
C538 C 0.53001 0.15706 0.9815 0.0
H539 H 0.6164 0.22458 0.03232 0.0
H540 H 0.58744 0.1936 0.03296 0.0
H541 H 0.62438 0.18988 0.0194 0.0
H542 H 0.60274 0.14591 0.99142 0.0
H543 H 0.5778 0.09815 0.007 0.0
H544 H 0.84827 0.76635 0.31631 0.0
H545 H 0.87851 0.81225 0.33225 0.0
H546 H 0.94307 0.76525 0.37724 0.0
H547 H 0.91285 0.71939 0.36054 0.0
H548 H 0.8876 0.8276 0.39344 0.0
H549 H 0.99807 0.83073 0.33663 0.0
H550 H 0.96527 0.80643 0.32351 0.0
H551 H 0.98647 0.79793 0.35776 0.0
C552 C 0.86963 0.76602 0.32834 0.0
C553 C 0.87863 0.73952 0.3367 0.0
C554 C 0.88674 0.79217 0.33778 0.0
C555 C 0.91324 0.7924 0.35591 0.0
C556 C 0.92313 0.76583 0.36275 0.0
H557 H 0.98289 0.92746 0.4921 0.0
H558 H 0.96062 0.88284 0.46523 0.0
C559 C 0.90599 0.73961 0.3531 0.0
C560 C 0.92825 0.82003 0.37067 0.0
H561 H 0.9952 0.86474 0.37861 0.0
C562 C 0.9111 0.83576 0.38999 0.0
C563 C 0.95888 0.8309 0.36615 0.0
C564 C 0.97822 0.8158 0.34465 0.0
C565 C 0.92369 0.86167 0.40516 0.0
C566 C 0.95454 0.87207 0.40149 0.0
C567 C 0.97164 0.85667 0.38173 0.0
C568 C 0.96925 0.89898 0.41786 0.0
C569 C 0.90366 0.8779 0.42464 0.0
C570 C 0.98231 0.92282 0.40032 0.0
C571 C 0.99521 0.94846 0.41566 0.0
C572 C 0.99554 0.95082 0.44897 0.0
C573 C 0.98292 0.92665 0.46646 0.0
C574 C 0.97003 0.90106 0.4511 0.0
H575 H 0.87958 0.87143 0.41829 0.0
H576 H 0.90675 0.87307 0.45007 0.0
H577 H 0.90939 0.9016 0.42147 0.0
H578 H 0.98211 0.92175 0.37468 0.0
H579 H 0.00479 0.96648 0.40133 0.0
H580 H 0.3726 0.82471 0.64359 0.0
H581 H 0.3935 0.78216 0.62455 0.0
H582 H 0.30597 0.73114 0.62942 0.0
H583 H 0.28519 0.77373 0.64904 0.0
H584 H 0.38997 0.72717 0.6585 0.0
H585 H 0.33687 0.71614 0.53822 0.0
H586 H 0.34088 0.74958 0.56064 0.0
H587 H 0.31272 0.72016 0.57102 0.0
C588 C 0.35793 0.80437 0.64058 0.0
C589 C 0.32739 0.80231 0.64783 0.0
C590 C 0.36979 0.78018 0.62964 0.0
C591 C 0.35124 0.75359 0.6254 0.0
C592 C 0.32058 0.75157 0.63216 0.0
H593 H 0.39555 0.58824 0.55482 0.0
H594 H 0.36871 0.62637 0.57557 0.0
C595 C 0.30874 0.77579 0.64329 0.0
C596 C 0.36438 0.72782 0.6151 0.0
H597 H 0.36693 0.68097 0.5531 0.0
C598 C 0.3849 0.71699 0.6355 0.0
C599 C 0.35747 0.71449 0.58522 0.0
C600 C 0.33593 0.72567 0.5623 0.0
C601 C 0.39888 0.69321 0.62675 0.0
C602 C 0.39273 0.68038 0.59642 0.0
C603 C 0.37167 0.69085 0.5763 0.0
C604 C 0.40886 0.65695 0.58465 0.0
C605 C 0.41985 0.68189 0.65024 0.0
C606 C 0.44027 0.66155 0.58259 0.0
C607 C 0.45556 0.63982 0.57099 0.0
C608 C 0.43973 0.61316 0.56083 0.0
C609 C 0.40829 0.60856 0.56264 0.0
C610 C 0.39297 0.63032 0.57441 0.0
H611 H 0.4148 0.68767 0.67496 0.0
H612 H 0.41847 0.65803 0.64836 0.0
H613 H 0.44324 0.69172 0.64542 0.0
H614 H 0.45298 0.68214 0.58956 0.0
H615 H 0.47979 0.64405 0.56958 0.0
H616 H 0.88951 0.9248 0.85079 0.0
H617 H 0.92652 0.9391 0.80952 0.0
H618 H 0.89137 0.86303 0.75502 0.0
H619 H 0.85422 0.84897 0.79614 0.0
H620 H 0.97053 0.90333 0.76958 0.0
H621 H 0.87362 0.94278 0.70872 0.0
H622 H 0.87499 0.93777 0.75105 0.0
H623 H 0.86762 0.90698 0.72506 0.0
C624 C 0.89035 0.91089 0.8303 0.0
C625 C 0.86907 0.88604 0.8262 0.0
C626 C 0.91149 0.9189 0.80697 0.0
C627 C 0.91152 0.9021 0.77935 0.0
C628 C 0.89171 0.87612 0.77634 0.0
H629 H 0.96699 0.94078 0.58991 0.0
H630 H 0.94804 0.91788 0.63873 0.0
C631 C 0.87061 0.8681 0.79971 0.0
C632 C 0.92851 0.91398 0.75169 0.0
H633 H 0.91901 0.94722 0.68149 0.0
C634 C 0.95943 0.91295 0.75023 0.0
C635 C 0.91381 0.92666 0.72682 0.0
C636 C 0.88071 0.92888 0.72783 0.0
C637 C 0.97598 0.92375 0.72381 0.0
C638 C 0.96114 0.93619 0.69876 0.0
C639 C 0.93029 0.93752 0.70066 0.0
C640 C 0.97654 0.94746 0.66973 0.0
C641 C 0.00893 0.92115 0.72254 0.0
C642 C 0.99942 0.97132 0.67096 0.0
C643 C 0.01052 0.98436 0.64292 0.0
C644 C 0.99848 0.97391 0.61347 0.0
C645 C 0.97649 0.94938 0.61235 0.0
C646 C 0.9657 0.93624 0.64019 0.0
H647 H 0.01525 0.90515 0.73981 0.0
H648 H 0.0151 0.91472 0.69843 0.0
H649 H 0.02224 0.94245 0.72837 0.0
H650 H 0.00771 0.98065 0.69352 0.0
H651 H 0.02744 1.00331 0.64432 0.0
H652 H 0.70525 0.16107 0.35942 0.0
H653 H 0.68737 0.1353 0.31055 0.0
H654 H 0.74638 0.19693 0.25662 0.0
H655 H 0.76526 0.22159 0.30601 0.0
H656 H 0.65695 0.16185 0.2696 0.0
H657 H 0.75143 0.12439 0.20654 0.0
H658 H 0.75393 0.13472 0.24789 0.0
H659 H 0.75868 0.16189 0.2177 0.0
C660 C 0.71563 0.16787 0.33723 0.0
C661 C 0.73714 0.19265 0.33629 0.0
C662 C 0.70516 0.1535 0.30929 0.0
C663 C 0.71552 0.16411 0.2798 0.0
C664 C 0.73852 0.18785 0.27901 0.0
H665 H 0.59254 0.13683 0.11574 0.0
H666 H 0.62695 0.15997 0.15715 0.0
C667 C 0.74941 0.20189 0.30715 0.0
C668 C 0.69888 0.15328 0.25043 0.0
H669 H 0.70621 0.12535 0.17644 0.0
C670 C 0.66775 0.15371 0.24932 0.0
C671 C 0.71294 0.14277 0.2239 0.0
C672 C 0.74604 0.14062 0.22409 0.0
C673 C 0.65022 0.14357 0.22275 0.0
C674 C 0.66431 0.13366 0.1959 0.0
C675 C 0.69549 0.13337 0.19685 0.0
C676 C 0.64662 0.1214 0.16775 0.0
C677 C 0.61661 0.14266 0.22426 0.0
C678 C 0.64748 0.0926 0.15873 0.0
C679 C 0.6283 0.07959 0.13482 0.0
C680 C 0.60778 0.09509 0.11957 0.0
C681 C 0.60795 0.12435 0.12738 0.0
C682 C 0.62745 0.13749 0.15113 0.0
H683 H 0.60893 0.14394 0.24905 0.0
H684 H 0.61 0.16138 0.21129 0.0
H685 H 0.60469 0.12253 0.21318 0.0
H686 H 0.66215 0.07979 0.17108 0.0
H687 H 0.62876 0.05702 0.12916 0.0
H688 H 0.40325 0.65296 0.17732 0.0
H689 H 0.42853 0.63023 0.22037 0.0
H690 H 0.40939 0.69683 0.28491 0.0
H691 H 0.3842 0.71955 0.24166 0.0
H692 H 0.47619 0.65559 0.27577 0.0
H693 H 0.35883 0.61186 0.30751 0.0
H694 H 0.36867 0.62367 0.26792 0.0
H695 H 0.36737 0.64983 0.29893 0.0
C696 C 0.40572 0.66332 0.20042 0.0
C697 C 0.39206 0.68794 0.20641 0.0
C698 C 0.41998 0.65034 0.22495 0.0
C699 C 0.4206 0.66179 0.25577 0.0
C700 C 0.40919 0.68779 0.2612 0.0
H701 H 0.43926 0.58945 0.44049 0.0
H702 H 0.42772 0.61667 0.39408 0.0
C703 C 0.39506 0.70085 0.23657 0.0
C704 C 0.42879 0.64431 0.28275 0.0
H705 H 0.39746 0.59906 0.34007 0.0
C706 C 0.4591 0.6432 0.28991 0.0
C707 C 0.40632 0.6281 0.30088 0.0
C708 C 0.37341 0.62814 0.29351 0.0
C709 C 0.46755 0.62671 0.31541 0.0
C710 C 0.44501 0.61044 0.33361 0.0
C711 C 0.41471 0.61146 0.3261 0.0
C712 C 0.45215 0.59324 0.36146 0.0
C713 C 0.50047 0.62751 0.32319 0.0
C714 C 0.46921 0.57047 0.35851 0.0
C715 C 0.47597 0.55476 0.38518 0.0
C716 C 0.46558 0.56142 0.41523 0.0
C717 C 0.44773 0.58367 0.41781 0.0
C718 C 0.44112 0.59936 0.39125 0.0
H719 H 0.51433 0.64634 0.31227 0.0
H720 H 0.50459 0.62845 0.3492 0.0
H721 H 0.50806 0.60757 0.31388 0.0
H722 H 0.47732 0.56485 0.3356 0.0
H723 H 0.4897 0.53774 0.3823 0.0
H724 H 0.17743 0.39383 0.77312 0.0
H725 H 0.15404 0.41596 0.81758 0.0
H726 H 0.08163 0.43251 0.75531 0.0
H727 H 0.10463 0.40945 0.71138 0.0
H728 H 0.14226 0.46818 0.82799 0.0
H729 H 0.03403 0.39563 0.82654 0.0
H730 H 0.06552 0.38805 0.80367 0.0
H731 H 0.04108 0.41242 0.78886 0.0
C732 C 0.15644 0.40212 0.76919 0.0
C733 C 0.14262 0.39982 0.73907 0.0
C734 C 0.14306 0.41473 0.7945 0.0
C735 C 0.11562 0.42541 0.79015 0.0
C736 C 0.10221 0.42363 0.75972 0.0
H737 H 0.04863 0.55484 0.90572 0.0
H738 H 0.07406 0.52744 0.86789 0.0
C739 C 0.11542 0.4107 0.73455 0.0
C740 C 0.10162 0.4393 0.81705 0.0
H741 H 0.0355 0.4401 0.85563 0.0
C742 C 0.11898 0.46181 0.83418 0.0
C743 C 0.0714 0.43072 0.82583 0.0
C744 C 0.05205 0.40517 0.81048 0.0
C745 C 0.1068 0.47653 0.85891 0.0
C746 C 0.07603 0.46926 0.86621 0.0
C747 C 0.05894 0.44608 0.84986 0.0
C748 C 0.06091 0.48595 0.88993 0.0
C749 C 0.12726 0.49947 0.87721 0.0
C750 C 0.04405 0.47182 0.91453 0.0
C751 C 0.02889 0.48749 0.93593 0.0
C752 C 0.03037 0.51762 0.93319 0.0
C753 C 0.04728 0.53169 0.90867 0.0
C754 C 0.06209 0.51603 0.88713 0.0
H755 H 0.15095 0.49537 0.87661 0.0
H756 H 0.12631 0.52081 0.8662 0.0
H757 H 0.12053 0.50058 0.90232 0.0
H758 H 0.04254 0.44862 0.91715 0.0
H759 H 0.01584 0.47601 0.95442 0.0
H760 H 0.7429 0.86335 0.86146 0.0
H761 H 0.69918 0.88212 0.88344 0.0
H762 H 0.75796 0.9537 0.92581 0.0
H763 H 0.80159 0.93466 0.90408 0.0
H764 H 0.7145 0.92094 0.96746 0.0
H765 H 0.66336 0.95623 0.85604 0.0
H766 H 0.67317 0.92026 0.85628 0.0
H767 H 0.70222 0.9508 0.85892 0.0
C768 C 0.74623 0.88315 0.87534 0.0
C769 C 0.77527 0.89774 0.8812 0.0
C770 C 0.72143 0.8939 0.88767 0.0
C771 C 0.72547 0.91938 0.90593 0.0
C772 C 0.7545 0.93408 0.91159 0.0
H773 H 0.62077 0.02241 0.01392 0.0
H774 H 0.65954 0.99894 0.98924 0.0
C775 C 0.77926 0.92337 0.89916 0.0
C776 C 0.69958 0.9301 0.92041 0.0
H777 H 0.63708 0.96088 0.90329 0.0
C778 C 0.69752 0.92965 0.95349 0.0
C779 C 0.67743 0.94109 0.90196 0.0
C780 C 0.67908 0.94239 0.86632 0.0
C781 C 0.67386 0.94017 0.96876 0.0
C782 C 0.65216 0.95199 0.95039 0.0
C783 C 0.65384 0.95182 0.91724 0.0
C784 C 0.62842 0.96592 0.96527 0.0
C785 C 0.67221 0.93838 0.00439 0.0
C786 C 0.59807 0.95554 0.95923 0.0
C787 C 0.57573 0.96906 0.97313 0.0
C788 C 0.58347 0.99326 0.99315 0.0
C789 C 0.61397 1.0037 0.99883 0.0
C790 C 0.63621 0.99023 0.98489 0.0
H791 H 0.68481 0.92143 0.0138 0.0
H792 H 0.68235 0.9594 0.01495 0.0
H793 H 0.64859 0.93369 0.01218 0.0
H794 H 0.59169 0.9369 0.94392 0.0
H795 H 0.55246 0.96051 0.9682 0.0
H796 H 0.81812 0.23509 0.39921 0.0
H797 H 0.85798 0.20636 0.41177 0.0
H798 H 0.79663 0.12817 0.39258 0.0
H799 H 0.75621 0.15687 0.3835 0.0
H800 H 0.82399 0.1204 0.44239 0.0
H801 H 0.91229 0.16694 0.36121 0.0
H802 H 0.90177 0.19486 0.38609 0.0
H803 H 0.87466 0.17578 0.35861 0.0
C804 C 0.81323 0.21176 0.39773 0.0
C805 C 0.78402 0.19828 0.39016 0.0
C806 C 0.83621 0.19529 0.40431 0.0
C807 C 0.83078 0.16491 0.40244 0.0
C808 C 0.8017 0.15151 0.39399 0.0
H809 H 0.97762 0.05968 0.43316 0.0
H810 H 0.94082 0.08668 0.40733 0.0
C811 C 0.77857 0.16797 0.38827 0.0
C812 C 0.85442 0.14706 0.41213 0.0
H813 H 0.92895 0.1408 0.4059 0.0
C814 C 0.84679 0.12471 0.43391 0.0
C815 C 0.88423 0.15197 0.40084 0.0
C816 C 0.89359 0.17347 0.37512 0.0
C817 C 0.86805 0.10801 0.44546 0.0
C818 C 0.8984 0.11462 0.43633 0.0
C819 C 0.9059 0.13609 0.41354 0.0
C820 C 0.92256 0.10018 0.45127 0.0
C821 C 0.85747 0.08318 0.46713 0.0
C822 C 0.9255 0.09977 0.48441 0.0
C823 C 0.94584 0.08397 0.49897 0.0
C824 C 0.96457 0.06902 0.48082 0.0
C825 C 0.96335 0.07101 0.44765 0.0
C826 C 0.94232 0.08638 0.43294 0.0
H827 H 0.8335 0.07454 0.46237 0.0
H828 H 0.87094 0.06523 0.46441 0.0
H829 H 0.85941 0.09094 0.49208 0.0
H830 H 0.91151 0.11116 0.49915 0.0
H831 H 0.94664 0.08319 0.52461 0.0
H832 H 0.27677 0.71962 0.16382 0.0
H833 H 0.2268 0.70296 0.14053 0.0
H834 H 0.2599 0.62865 0.10064 0.0
H835 H 0.3099 0.64562 0.12343 0.0
H836 H 0.21218 0.6887 0.07212 0.0
H837 H 0.18431 0.59706 0.15471 0.0
H838 H 0.21277 0.62751 0.1637 0.0
H839 H 0.22061 0.59962 0.13694 0.0
C840 C 0.27323 0.69985 0.1499 0.0
C841 C 0.29686 0.68375 0.14534 0.0
C842 C 0.24486 0.69037 0.13672 0.0
C843 C 0.23979 0.66453 0.11915 0.0
C844 C 0.26342 0.6485 0.11446 0.0
H845 H 0.1 0.55446 0.02398 0.0
H846 H 0.14646 0.58028 0.04644 0.0
C847 C 0.2918 0.65807 0.12746 0.0
C848 C 0.20977 0.65404 0.10569 0.0
H849 H 0.15247 0.59812 0.10956 0.0
C850 C 0.19887 0.66908 0.08041 0.0
C851 C 0.19263 0.62856 0.11682 0.0
C852 C 0.20296 0.6123 0.14471 0.0
C853 C 0.17167 0.65842 0.0649 0.0
C854 C 0.15497 0.63241 0.07544 0.0
C855 C 0.16547 0.61799 0.10145 0.0
C856 C 0.12735 0.61864 0.05895 0.0
C857 C 0.16162 0.67436 0.03664 0.0
C858 C 0.10133 0.63195 0.05803 0.0
C859 C 0.07462 0.61725 0.04498 0.0
C860 C 0.07358 0.58895 0.03308 0.0
C861 C 0.09997 0.57614 0.0332 0.0
C862 C 0.12657 0.59086 0.04599 0.0
H863 H 0.17989 0.69069 0.02774 0.0
H864 H 0.15363 0.65903 0.01708 0.0
H865 H 0.14267 0.68573 0.04352 0.0
H866 H 0.10141 0.65323 0.06838 0.0
H867 H 0.05458 0.62758 0.04539 0.0
H868 H 0.24595 0.37567 0.6916 0.0
H869 H 0.28961 0.39258 0.65898 0.0
H870 H 0.23043 0.40469 0.58047 0.0
H871 H 0.18676 0.38774 0.61333 0.0
H872 H 0.30933 0.37482 0.59734 0.0
H873 H 0.27981 0.48632 0.59866 0.0
H874 H 0.26379 0.45884 0.62576 0.0
H875 H 0.2507 0.45817 0.58535 0.0
C876 C 0.24243 0.3813 0.66713 0.0
C877 C 0.21314 0.3804 0.65485 0.0
C878 C 0.2673 0.39106 0.64855 0.0
C879 C 0.26332 0.40038 0.61742 0.0
C880 C 0.23405 0.39796 0.60455 0.0
H881 H 0.40507 0.4503 0.48043 0.0
H882 H 0.35948 0.4286 0.50709 0.0
C883 C 0.20916 0.38798 0.62312 0.0
C884 C 0.28971 0.4141 0.59929 0.0
H885 H 0.3224 0.47881 0.5696 0.0
C886 C 0.31211 0.3975 0.5911 0.0
C887 C 0.29361 0.44385 0.59162 0.0
C888 C 0.27089 0.46302 0.60095 0.0
C889 C 0.33809 0.40976 0.5752 0.0
C890 C 0.34178 0.43941 0.56711 0.0
C891 C 0.3195 0.45606 0.57557 0.0
C892 C 0.36885 0.45357 0.55035 0.0
C893 C 0.36176 0.39103 0.56778 0.0
C894 C 0.38894 0.47551 0.56536 0.0
C895 C 0.41508 0.48798 0.55014 0.0
C896 C 0.42152 0.47894 0.51947 0.0
C897 C 0.40087 0.45766 0.5041 0.0
C898 C 0.37486 0.4451 0.51939 0.0
H899 H 0.35871 0.37064 0.58148 0.0
H900 H 0.3604 0.38531 0.5422 0.0
H901 H 0.38456 0.4028 0.57297 0.0
H902 H 0.38471 0.48254 0.58916 0.0
H903 H 0.43049 0.50435 0.56258 0.0
H904 H 0.81289 0.80124 0.8453 0.0
H905 H 0.83577 0.75834 0.8595 0.0
H906 H 0.91354 0.81338 0.89731 0.0
H907 H 0.89042 0.85628 0.88323 0.0
H908 H 0.92389 0.75989 0.86074 0.0
H909 H 0.84145 0.7421 0.95799 0.0
H910 H 0.82613 0.74644 0.919 0.0
H911 H 0.84959 0.77621 0.93785 0.0
C912 C 0.83511 0.80399 0.85607 0.0
C913 C 0.84992 0.83173 0.8636 0.0
C914 C 0.8481 0.77965 0.86415 0.0
C915 C 0.87607 0.78285 0.87982 0.0
C916 C 0.89189 0.81061 0.88526 0.0
H917 H 0.94915 0.65996 1.00021 0.0
H918 H 0.93138 0.70275 0.97759 0.0
C919 C 0.87883 0.83498 0.87717 0.0
C920 C 0.88735 0.75738 0.89328 0.0
H921 H 0.8733 0.70668 0.95091 0.0
C922 C 0.91291 0.74819 0.88042 0.0
C923 C 0.87309 0.74257 0.91924 0.0
C924 C 0.84617 0.75236 0.9346 0.0
C925 C 0.92434 0.72405 0.89262 0.0
C926 C 0.90961 0.70882 0.91809 0.0
C927 C 0.88435 0.71835 0.93124 0.0
C928 C 0.92014 0.68297 0.93164 0.0
C929 C 0.95225 0.71522 0.87849 0.0
C930 C 0.91904 0.65763 0.91342 0.0
C931 C 0.92898 0.6332 0.92631 0.0
C932 C 0.94011 0.6338 0.9576 0.0
C933 C 0.94067 0.659 0.97601 0.0
C934 C 0.93062 0.6834 0.96313 0.0
H935 H 0.96453 0.73274 0.86408 0.0
H936 H 0.9676 0.7092 0.89736 0.0
H937 H 0.94586 0.69605 0.86288 0.0
H938 H 0.91047 0.65676 0.88926 0.0
H939 H 0.92828 0.61399 0.91166 0.0
H940 H 0.37108 0.7706 0.20385 0.0
H941 H 0.40027 0.81681 0.18883 0.0
H942 H 0.44711 0.77228 0.11994 0.0
H943 H 0.41821 0.72603 0.13572 0.0
H944 H 0.48318 0.8202 0.14838 0.0
H945 H 0.37467 0.84801 0.10338 0.0
H946 H 0.37444 0.83941 0.14476 0.0
H947 H 0.37926 0.81205 0.11588 0.0
C948 C 0.3887 0.77072 0.18667 0.0
C949 C 0.39284 0.74506 0.17108 0.0
C950 C 0.40495 0.79703 0.17769 0.0
C951 C 0.42518 0.798 0.15263 0.0
C952 C 0.43143 0.772 0.13917 0.0
H953 H 0.47596 0.95632 0.04226 0.0
H954 H 0.45574 0.90641 0.05691 0.0
C955 C 0.41528 0.74563 0.14838 0.0
C956 C 0.43744 0.82607 0.13852 0.0
H957 H 0.41619 0.88581 0.10356 0.0
C958 C 0.46859 0.8345 0.13845 0.0
C959 C 0.41837 0.84429 0.12464 0.0
C960 C 0.38485 0.83541 0.1218 0.0
C961 C 0.48111 0.86132 0.12619 0.0
C962 C 0.4619 0.88035 0.11426 0.0
C963 C 0.43085 0.87134 0.11303 0.0
C964 C 0.47347 0.91038 0.105 0.0
C965 C 0.51482 0.86898 0.12612 0.0
C966 C 0.4892 0.92926 0.12739 0.0
C967 C 0.50062 0.95743 0.11912 0.0
C968 C 0.49623 0.9675 0.08838 0.0
C969 C 0.47958 0.94902 0.06612 0.0
C970 C 0.46819 0.92058 0.07443 0.0
H971 H 0.52602 0.8493 0.126 0.0
H972 H 0.52233 0.88229 0.10527 0.0
H973 H 0.52231 0.88158 0.1479 0.0
H974 H 0.49273 0.92218 0.15136 0.0
H975 H 0.51316 0.9713 0.13685 0.0
H976 H 0.19589 0.31349 0.66944 0.0
H977 H 0.1811 0.26674 0.64226 0.0
H978 H 0.10395 0.29875 0.60153 0.0
H979 H 0.1187 0.34516 0.62906 0.0
H980 H 0.08843 0.24774 0.63157 0.0
H981 H 0.18284 0.23833 0.55121 0.0
H982 H 0.19412 0.24575 0.59177 0.0
H983 H 0.17738 0.27215 0.56956 0.0
C984 C 0.17639 0.3107 0.65379 0.0
C985 C 0.15848 0.33282 0.65111 0.0
C986 C 0.16785 0.28401 0.63834 0.0
C987 C 0.14139 0.27912 0.61968 0.0
C988 C 0.1244 0.30187 0.61577 0.0
H989 H 0.07566 0.13403 0.49621 0.0
H990 H 0.09633 0.18045 0.52002 0.0
C991 C 0.13289 0.32842 0.63128 0.0
C992 C 0.12991 0.2498 0.60643 0.0
H993 H 0.14695 0.19625 0.55718 0.0
C994 C 0.10125 0.23652 0.61526 0.0
C995 C 0.14648 0.23512 0.58502 0.0
C996 C 0.1768 0.24862 0.57355 0.0
C997 C 0.08876 0.20914 0.60337 0.0
C998 C 0.10554 0.19421 0.58242 0.0
C999 C 0.13417 0.2075 0.57348 0.0
C1000 C 0.09321 0.16544 0.56834 0.0
C1001 C 0.05733 0.19682 0.61271 0.0
C1002 C 0.08469 0.14122 0.58748 0.0
C1003 C 0.07265 0.11445 0.57389 0.0
C1004 C 0.06904 0.11125 0.5408 0.0
C1005 C 0.07795 0.13552 0.52176 0.0
C1006 C 0.08991 0.16219 0.53535 0.0
H1007 H 0.04491 0.21374 0.62237 0.0
H1008 H 0.04442 0.18617 0.59216 0.0
H1009 H 0.05847 0.18037 0.63133 0.0
H1010 H 0.0875 0.14297 0.61297 0.0
H1011 H 0.06631 0.09626 0.58932 0.0
H1012 H 0.6698 0.24046 0.41089 0.0
H1013 H 0.6406 0.27911 0.42441 0.0
H1014 H 0.72133 0.34118 0.42291 0.0
H1015 H 0.75033 0.30238 0.40832 0.0
H1016 H 0.64245 0.31864 0.47256 0.0
H1017 H 0.66809 0.37427 0.3583 0.0
H1018 H 0.67676 0.33845 0.36597 0.0
H1019 H 0.70053 0.3696 0.38188 0.0
C1020 C 0.68123 0.26236 0.41381 0.0
C1021 C 0.71212 0.26866 0.40828 0.0
C1022 C 0.66462 0.28439 0.42153 0.0
C1023 C 0.67862 0.31318 0.42391 0.0
C1024 C 0.70991 0.31925 0.42041 0.0
H1025 H 0.60369 0.47275 0.4565 0.0
H1026 H 0.63706 0.43646 0.44791 0.0
C1027 C 0.72653 0.29712 0.41253 0.0
C1028 C 0.66009 0.33671 0.4288 0.0
H1029 H 0.63913 0.39693 0.39441 0.0
C1030 C 0.64177 0.33577 0.4555 0.0
C1031 C 0.65904 0.35899 0.40639 0.0
C1032 C 0.67692 0.36036 0.37636 0.0
C1033 C 0.6226 0.35654 0.46048 0.0
C1034 C 0.62148 0.37868 0.43802 0.0
C1035 C 0.64004 0.3799 0.41155 0.0
C1036 C 0.60112 0.40077 0.44163 0.0
C1037 C 0.60387 0.35483 0.48989 0.0
C1038 C 0.56984 0.39285 0.44009 0.0
C1039 C 0.55072 0.41358 0.44472 0.0
C1040 C 0.5626 0.44255 0.45105 0.0
C1041 C 0.59391 0.45057 0.45168 0.0
C1042 C 0.613 0.42987 0.44684 0.0
H1043 H 0.61198 0.3405 0.50798 0.0
H1044 H 0.60397 0.37664 0.50054 0.0
H1045 H 0.58031 0.34603 0.48348 0.0
H1046 H 0.56022 0.37056 0.43561 0.0
H1047 H 0.52668 0.40681 0.44414 0.0
loop_
_geom_bond_atom_site_label_1
_geom_bond_atom_site_label_2
_geom_bond_distance
_geom_bond_site_symmetry_2
_ccdc_geom_bond_type
C0 N1 1.317 . S
C0 N2 1.348 . S
C0 C3 1.485 . S
N1 C0 1.317 . S
N1 N5 1.370 . S
N2 C0 1.348 . S
N2 C4 1.346 . S
C3 C0 1.485 . S
C3 H7 0.960 . S
C3 H8 0.961 . S
C3 H9 0.960 . S
C4 N2 1.346 . S
C4 N5 1.307 . S
C4 C6 1.486 . S
N5 N1 1.370 . S
N5 C4 1.307 . S
C6 C4 1.486 . S
C6 H10 0.960 . S
C6 H11 0.960 . S
C6 H12 0.959 . S
H7 C3 0.960 . S
H8 C3 0.961 . S
H9 C3 0.960 . S
H10 C6 0.960 . S
H11 C6 0.960 . S
H12 C6 0.959 . S
C13 N14 1.317 . S
C13 N15 1.348 . S
C13 C16 1.485 . S
N14 C13 1.317 . S
N14 N18 1.370 . S
N15 C13 1.348 . S
N15 C17 1.346 . S
C16 C13 1.485 . S
C16 H20 0.960 . S
C16 H21 0.961 . S
C16 H22 0.960 . S
C17 N15 1.346 . S
C17 N18 1.307 . S
C17 C19 1.486 . S
N18 N14 1.370 . S
N18 C17 1.307 . S
C19 C17 1.486 . S
C19 H23 0.960 . S
C19 H24 0.960 . S
C19 H25 0.959 . S
H20 C16 0.960 . S
H21 C16 0.961 . S
H22 C16 0.960 . S
H23 C19 0.960 . S
H24 C19 0.960 . S
H25 C19 0.959 . S
C26 N27 1.317 . S
C26 N28 1.348 . S
C26 C29 1.485 . S
N27 C26 1.317 . S
N27 N31 1.370 . S
N28 C26 1.348 . S
N28 C30 1.346 . S
C29 C26 1.485 . S
C29 H33 0.960 . S
C29 H34 0.961 . S
C29 H35 0.960 . S
C30 N28 1.346 . S
C30 N31 1.307 . S
C30 C32 1.486 . S
N31 N27 1.370 . S
N31 C30 1.307 . S
C32 C30 1.486 . S
C32 H36 0.960 . S
C32 H37 0.960 . S
C32 H38 0.959 . S
H33 C29 0.960 . S
H34 C29 0.961 . S
H35 C29 0.960 . S
H36 C32 0.960 . S
H37 C32 0.960 . S
H38 C32 0.959 . S
C39 N40 1.317 . S
C39 N41 1.348 . S
C39 C42 1.485 . S
N40 C39 1.317 . S
N40 N44 1.370 . S
N41 C39 1.348 . S
N41 C43 1.346 . S
C42 C39 1.485 . S
C42 H46 0.960 . S
C42 H47 0.961 . S
C42 H48 0.960 . S
C43 N41 1.346 . S
C43 N44 1.307 . S
C43 C45 1.486 . S
N44 N40 1.370 . S
N44 C43 1.307 . S
C45 C43 1.486 . S
C45 H49 0.960 . S
C45 H50 0.960 . S
C45 H51 0.959 . S
H46 C42 0.960 . S
H47 C42 0.961 . S
H48 C42 0.960 . S
H49 C45 0.960 . S
H50 C45 0.960 . S
H51 C45 0.959 . S
C52 N53 1.317 . S
C52 N54 1.348 . S
C52 C55 1.485 . S
N53 C52 1.317 . S
N53 N57 1.370 . S
N54 C52 1.348 . S
N54 C56 1.346 . S
C55 C52 1.485 . S
C55 H59 0.960 . S
C55 H60 0.961 . S
C55 H61 0.960 . S
C56 N54 1.346 . S
C56 N57 1.307 . S
C56 C58 1.486 . S
N57 N53 1.370 . S
N57 C56 1.307 . S
C58 C56 1.486 . S
C58 H62 0.960 . S
C58 H63 0.960 . S
C58 H64 0.959 . S
H59 C55 0.960 . S
H60 C55 0.961 . S
H61 C55 0.960 . S
H62 C58 0.960 . S
H63 C58 0.960 . S
H64 C58 0.959 . S
C65 N66 1.317 . S
C65 N67 1.348 . S
C65 C68 1.485 . S
N66 C65 1.317 . S
N66 N70 1.370 . S
N67 C65 1.348 . S
N67 C69 1.346 . S
C68 C65 1.485 . S
C68 H72 0.960 . S
C68 H73 0.961 . S
C68 H74 0.960 . S
C69 N67 1.346 . S
C69 N70 1.307 . S
C69 C71 1.486 . S
N70 N66 1.370 . S
N70 C69 1.307 . S
C71 C69 1.486 . S
C71 H75 0.960 . S
C71 H76 0.960 . S
C71 H77 0.959 . S
H72 C68 0.960 . S
H73 C68 0.961 . S
H74 C68 0.960 . S
H75 C71 0.960 . S
H76 C71 0.960 . S
H77 C71 0.959 . S
C78 N79 1.317 . S
C78 N80 1.348 . S
C78 C81 1.485 . S
N79 C78 1.317 . S
N79 N83 1.370 . S
N80 C78 1.348 . S
N80 C82 1.346 . S
C81 C78 1.485 . S
C81 H85 0.960 . S
C81 H86 0.961 . S
C81 H87 0.960 . S
C82 N80 1.346 . S
C82 N83 1.307 . S
C82 C84 1.486 . S
N83 N79 1.370 . S
N83 C82 1.307 . S
C84 C82 1.486 . S
C84 H88 0.960 . S
C84 H89 0.960 . S
C84 H90 0.959 . S
H85 C81 0.960 . S
H86 C81 0.961 . S
H87 C81 0.960 . S
H88 C84 0.960 . S
H89 C84 0.960 . S
H90 C84 0.959 . S
C91 N92 1.317 . S
C91 N93 1.348 . S
C91 C94 1.485 . S
N92 C91 1.317 . S
N92 N96 1.370 . S
N93 C91 1.348 . S
N93 C95 1.346 . S
C94 C91 1.485 . S
C94 H98 0.960 . S
C94 H99 0.961 . S
C94 H100 0.960 . S
C95 N93 1.346 . S
C95 N96 1.307 . S
C95 C97 1.486 . S
N96 N92 1.370 . S
N96 C95 1.307 . S
C97 C95 1.486 . S
C97 H101 0.960 . S
C97 H102 0.960 . S
C97 H103 0.959 . S
H98 C94 0.960 . S
H99 C94 0.961 . S
H100 C94 0.960 . S
H101 C97 0.960 . S
H102 C97 0.960 . S
H103 C97 0.959 . S
Dy104 O108 2.398 . S
Dy104 O109 2.491 . S
Dy104 O110 2.403 . S
Dy104 O111 2.647 1_545 S
Dy104 O115 2.326 . S
Dy104 O119 2.310 . S
Dy104 O120 2.351 1_545 S
C105 O116 1.185 . S
C105 O117 1.355 1_655 S
C106 O108 1.185 . S
C106 O109 1.355 . S
Dy107 O111 2.297 1_545 S
Dy107 O114 2.351 . S
Dy107 O116 2.398 1_445 S
Dy107 O117 2.491 1_545 S
Dy107 O118 2.403 1_455 S
Dy107 O119 2.664 . S
Dy107 O121 2.326 1_445 S
O108 Dy104 2.398 . S
O108 C106 1.185 . S
O109 Dy104 2.491 . S
O109 C106 1.355 . S
O110 Dy104 2.403 . S
O110 C112 1.254 1_545 S
O111 Dy104 2.647 1_565 S
O111 Dy107 2.297 1_565 S
O111 C112 1.279 . S
C112 O110 1.254 1_565 S
C112 O111 1.279 . S
C113 O118 1.254 . S
C113 O119 1.268 1_655 S
O114 Dy107 2.351 . S
O114 C122 1.249 . S
O115 Dy104 2.326 . S
O115 C122 1.267 . S
O116 C105 1.185 . S
O116 Dy107 2.398 1_665 S
O117 C105 1.355 1_455 S
O117 Dy107 2.491 1_565 S
O118 Dy107 2.403 1_655 S
O118 C113 1.254 . S
O119 Dy104 2.310 . S
O119 Dy107 2.664 . S
O119 C113 1.268 1_455 S
O120 Dy104 2.351 1_565 S
O120 C123 1.249 . S
O121 Dy107 2.326 1_665 S
O121 C123 1.267 1_655 S
C122 O114 1.249 . S
C122 O115 1.267 . S
C123 O120 1.249 . S
C123 O121 1.267 1_455 S
Dy124 O128 2.398 . S
Dy124 O129 2.491 . S
Dy124 O130 2.403 1_545 S
Dy124 O131 2.663 . S
Dy124 O135 2.326 . S
Dy124 O139 2.310 . S
Dy124 O140 2.351 . S
C125 O136 1.185 1_565 S
C125 O137 1.355 . S
C126 O128 1.185 . S
C126 O129 1.355 . S
Dy127 O131 2.308 1_556 S
Dy127 O134 2.351 1_556 S
Dy127 O136 2.398 . S
Dy127 O137 2.491 1_545 S
Dy127 O138 2.403 . S
Dy127 O139 2.664 1_556 S
Dy127 O141 2.326 . S
O128 Dy124 2.398 . S
O128 C126 1.185 . S
O129 Dy124 2.491 . S
O129 C126 1.355 . S
O130 Dy124 2.403 1_565 S
O130 C132 1.254 . S
O131 Dy124 2.663 . S
O131 Dy127 2.308 1_554 S
O131 C132 1.269 1_545 S
C132 O130 1.254 . S
C132 O131 1.269 1_565 S
C133 O138 1.254 1_554 S
C133 O139 1.268 . S
O134 Dy127 2.351 1_554 S
O134 C142 1.249 . S
O135 Dy124 2.326 . S
O135 C142 1.267 . S
O136 C125 1.185 1_545 S
O136 Dy127 2.398 . S
O137 C125 1.355 . S
O137 Dy127 2.491 1_565 S
O138 Dy127 2.403 . S
O138 C133 1.254 1_556 S
O139 Dy124 2.310 . S
O139 Dy127 2.664 1_554 S
O139 C133 1.268 . S
O140 Dy124 2.351 . S
O140 C143 1.251 . S
O141 Dy127 2.326 . S
O141 C143 1.275 1_556 S
C142 O134 1.249 . S
C142 O135 1.267 . S
C143 O140 1.251 . S
C143 O141 1.275 1_554 S
Dy144 O148 2.398 . S
Dy144 O149 2.491 . S
Dy144 O150 2.403 . S
Dy144 O151 2.664 . S
Dy144 O155 2.326 . S
Dy144 O159 2.310 . S
Dy144 O160 2.351 . S
C145 O156 1.185 . S
C145 O157 1.355 . S
C146 O148 1.185 . S
C146 O149 1.355 . S
Dy147 O151 2.310 . S
Dy147 O154 2.351 . S
Dy147 O156 2.398 . S
Dy147 O157 2.491 . S
Dy147 O158 2.403 . S
Dy147 O159 2.664 . S
Dy147 O161 2.326 . S
O148 Dy144 2.398 . S
O148 C146 1.185 . S
O149 Dy144 2.491 . S
O149 C146 1.355 . S
O150 Dy144 2.403 . S
O150 C152 1.254 . S
O151 Dy144 2.664 . S
O151 Dy147 2.310 . S
O151 C152 1.268 . S
C152 O150 1.254 . S
C152 O151 1.268 . S
C153 O158 1.254 . S
C153 O159 1.268 . S
O154 Dy147 2.351 . S
O154 C162 1.249 . S
O155 Dy144 2.326 . S
O155 C162 1.267 . S
O156 C145 1.185 . S
O156 Dy147 2.398 . S
O157 C145 1.355 . S
O157 Dy147 2.491 . S
O158 Dy147 2.403 . S
O158 C153 1.254 . S
O159 Dy144 2.310 . S
O159 Dy147 2.664 . S
O159 C153 1.268 . S
O160 Dy144 2.351 . S
O160 C163 1.249 . S
O161 Dy147 2.326 . S
O161 C163 1.267 . S
C162 O154 1.249 . S
C162 O155 1.267 . S
C163 O160 1.249 . S
C163 O161 1.267 . S
Dy164 O168 2.398 . S
Dy164 O169 2.491 . S
Dy164 O170 2.403 1_455 S
Dy164 O171 2.664 1_455 S
Dy164 O175 2.326 . S
Dy164 O179 2.310 1_554 S
Dy164 O180 2.351 1_454 S
C165 O176 1.185 . S
C165 O177 1.355 . S
C166 O168 1.185 . S
C166 O169 1.355 . S
Dy167 O171 2.310 1_556 S
Dy167 O174 2.351 1_656 S
Dy167 O176 2.398 . S
Dy167 O177 2.491 . S
Dy167 O178 2.403 1_655 S
Dy167 O179 2.664 1_655 S
Dy167 O181 2.326 . S
O168 Dy164 2.398 . S
O168 C166 1.185 . S
O169 Dy164 2.491 . S
O169 C166 1.355 . S
O170 Dy164 2.403 1_655 S
O170 C172 1.254 . S
O171 Dy164 2.664 1_655 S
O171 Dy167 2.310 1_554 S
O171 C172 1.268 . S
C172 O170 1.254 . S
C172 O171 1.268 . S
C173 O178 1.254 . S
C173 O179 1.268 . S
O174 Dy167 2.351 1_454 S
O174 C182 1.249 . S
O175 Dy164 2.326 . S
O175 C182 1.267 . S
O176 C165 1.185 . S
O176 Dy167 2.398 . S
O177 C165 1.355 . S
O177 Dy167 2.491 . S
O178 Dy167 2.403 1_455 S
O178 C173 1.254 . S
O179 Dy164 2.310 1_556 S
O179 Dy167 2.664 1_455 S
O179 C173 1.268 . S
O180 Dy164 2.351 1_656 S
O180 C183 1.249 . S
O181 Dy167 2.326 . S
O181 C183 1.267 . S
C182 O174 1.249 . S
C182 O175 1.267 . S
C183 O180 1.249 . S
C183 O181 1.267 . S
H184 C192 0.929 . S
H185 C194 0.930 . S
H186 C196 0.930 . S
H187 C199 0.929 . S
H188 C202 0.930 . S
H189 C204 0.960 . S
H190 C204 0.960 . S
H191 C204 0.960 . S
C192 H184 0.929 . S
C192 C193 1.377 . S
C192 C194 1.384 . S
C193 C192 1.377 . S
C193 C199 1.390 . S
C194 H185 0.930 . S
C194 C192 1.384 . S
C194 C195 1.372 . S
C195 C194 1.372 . S
C195 C196 1.400 . S
C195 C200 1.490 . S
C196 H186 0.930 . S
C196 C195 1.400 . S
C196 C199 1.386 . S
H197 C213 0.930 . S
H198 C214 0.931 . S
C199 H187 0.929 . S
C199 C193 1.390 . S
C199 C196 1.386 . S
C200 C195 1.490 . S
C200 C202 1.395 . S
C200 C203 1.403 . S
H201 C207 0.930 . S
C202 H188 0.930 . S
C202 C200 1.395 . S
C202 C205 1.403 . S
C203 C200 1.403 . S
C203 C204 1.524 . S
C203 C207 1.400 . S
C204 H189 0.960 . S
C204 H190 0.960 . S
C204 H191 0.960 . S
C204 C203 1.524 . S
C205 C202 1.403 . S
C205 C206 1.392 . S
C205 C209 1.495 . S
C206 C205 1.392 . S
C206 C207 1.385 . S
C206 C208 1.478 . S
C207 H201 0.930 . S
C207 C203 1.400 . S
C207 C206 1.385 . S
C208 C206 1.478 . S
C208 C210 1.381 . S
C208 C214 1.383 . S
C209 C205 1.495 . S
C209 H215 0.959 . S
C209 H216 0.961 . S
C209 H217 0.960 . S
C210 C208 1.381 . S
C210 C211 1.394 . S
C210 H218 0.930 . S
C211 C210 1.394 . S
C211 C212 1.383 . S
C211 H219 0.929 . S
C212 C211 1.383 . S
C212 C213 1.377 . S
C213 H197 0.930 . S
C213 C212 1.377 . S
C213 C214 1.379 . S
C214 H198 0.931 . S
C214 C208 1.383 . S
C214 C213 1.379 . S
H215 C209 0.959 . S
H216 C209 0.961 . S
H217 C209 0.960 . S
H218 C210 0.930 . S
H219 C211 0.929 . S
H220 C228 0.929 . S
H221 C230 0.930 . S
H222 C232 0.930 . S
H223 C235 0.929 . S
H224 C238 0.930 . S
H225 C240 0.960 . S
H226 C240 0.960 . S
H227 C240 0.960 . S
C228 H220 0.929 . S
C228 C229 1.377 . S
C228 C230 1.384 . S
C229 C228 1.377 . S
C229 C235 1.390 . S
C230 H221 0.930 . S
C230 C228 1.384 . S
C230 C231 1.372 . S
C231 C230 1.372 . S
C231 C232 1.400 . S
C231 C236 1.490 . S
C232 H222 0.930 . S
C232 C231 1.400 . S
C232 C235 1.386 . S
H233 C249 0.930 . S
H234 C250 0.931 . S
C235 H223 0.929 . S
C235 C229 1.390 . S
C235 C232 1.386 . S
C236 C231 1.490 . S
C236 C238 1.395 . S
C236 C239 1.403 . S
H237 C243 0.930 . S
C238 H224 0.930 . S
C238 C236 1.395 . S
C238 C241 1.403 . S
C239 C236 1.403 . S
C239 C240 1.524 . S
C239 C243 1.400 . S
C240 H225 0.960 . S
C240 H226 0.960 . S
C240 H227 0.960 . S
C240 C239 1.524 . S
C241 C238 1.403 . S
C241 C242 1.392 . S
C241 C245 1.495 . S
C242 C241 1.392 . S
C242 C243 1.385 . S
C242 C244 1.478 . S
C243 H237 0.930 . S
C243 C239 1.400 . S
C243 C242 1.385 . S
C244 C242 1.478 . S
C244 C246 1.381 . S
C244 C250 1.383 . S
C245 C241 1.495 . S
C245 H251 0.959 . S
C245 H252 0.961 . S
C245 H253 0.960 . S
C246 C244 1.381 . S
C246 C247 1.394 . S
C246 H254 0.930 . S
C247 C246 1.394 . S
C247 C248 1.383 . S
C247 H255 0.929 . S
C248 C247 1.383 . S
C248 C249 1.377 . S
C249 H233 0.930 . S
C249 C248 1.377 . S
C249 C250 1.379 . S
C250 H234 0.931 . S
C250 C244 1.383 . S
C250 C249 1.379 . S
H251 C245 0.959 . S
H252 C245 0.961 . S
H253 C245 0.960 . S
H254 C246 0.930 . S
H255 C247 0.929 . S
H256 C264 0.929 . S
H257 C266 0.930 . S
H258 C268 0.930 . S
H259 C271 0.929 . S
H260 C274 0.930 . S
H261 C276 0.960 . S
H262 C276 0.960 . S
H263 C276 0.960 . S
C264 H256 0.929 . S
C264 C265 1.377 . S
C264 C266 1.384 . S
C265 C264 1.377 . S
C265 C271 1.390 . S
C266 H257 0.930 . S
C266 C264 1.384 . S
C266 C267 1.372 . S
C267 C266 1.372 . S
C267 C268 1.400 . S
C267 C272 1.490 . S
C268 H258 0.930 . S
C268 C267 1.400 . S
C268 C271 1.386 . S
H269 C285 0.930 . S
H270 C286 0.931 . S
C271 H259 0.929 . S
C271 C265 1.390 . S
C271 C268 1.386 . S
C272 C267 1.490 . S
C272 C274 1.395 . S
C272 C275 1.403 . S
H273 C279 0.930 . S
C274 H260 0.930 . S
C274 C272 1.395 . S
C274 C277 1.403 . S
C275 C272 1.403 . S
C275 C276 1.524 . S
C275 C279 1.400 . S
C276 H261 0.960 . S
C276 H262 0.960 . S
C276 H263 0.960 . S
C276 C275 1.524 . S
C277 C274 1.403 . S
C277 C278 1.392 . S
C277 C281 1.495 . S
C278 C277 1.392 . S
C278 C279 1.385 . S
C278 C280 1.478 . S
C279 H273 0.930 . S
C279 C275 1.400 . S
C279 C278 1.385 . S
C280 C278 1.478 . S
C280 C282 1.381 . S
C280 C286 1.383 . S
C281 C277 1.495 . S
C281 H287 0.959 . S
C281 H288 0.961 . S
C281 H289 0.960 . S
C282 C280 1.381 . S
C282 C283 1.394 . S
C282 H290 0.930 . S
C283 C282 1.394 . S
C283 C284 1.383 . S
C283 H291 0.929 . S
C284 C283 1.383 . S
C284 C285 1.377 . S
C285 H269 0.930 . S
C285 C284 1.377 . S
C285 C286 1.379 . S
C286 H270 0.931 . S
C286 C280 1.383 . S
C286 C285 1.379 . S
H287 C281 0.959 . S
H288 C281 0.961 . S
H289 C281 0.960 . S
H290 C282 0.930 . S
H291 C283 0.929 . S
H292 C300 0.929 . S
H293 C302 0.930 . S
H294 C304 0.930 . S
H295 C307 0.929 . S
H296 C310 0.930 . S
H297 C312 0.960 . S
H298 C312 0.960 . S
H299 C312 0.960 . S
C300 H292 0.929 . S
C300 C301 1.377 . S
C300 C302 1.384 . S
C301 C300 1.377 . S
C301 C307 1.390 . S
C302 H293 0.930 . S
C302 C300 1.384 . S
C302 C303 1.372 . S
C303 C302 1.372 . S
C303 C304 1.400 . S
C303 C308 1.490 . S
C304 H294 0.930 . S
C304 C303 1.400 . S
C304 C307 1.386 . S
H305 C321 0.930 . S
H306 C322 0.931 . S
C307 H295 0.929 . S
C307 C301 1.390 . S
C307 C304 1.386 . S
C308 C303 1.490 . S
C308 C310 1.395 . S
C308 C311 1.403 . S
H309 C315 0.930 . S
C310 H296 0.930 . S
C310 C308 1.395 . S
C310 C313 1.403 . S
C311 C308 1.403 . S
C311 C312 1.524 . S
C311 C315 1.400 . S
C312 H297 0.960 . S
C312 H298 0.960 . S
C312 H299 0.960 . S
C312 C311 1.524 . S
C313 C310 1.403 . S
C313 C314 1.392 . S
C313 C317 1.495 . S
C314 C313 1.392 . S
C314 C315 1.385 . S
C314 C316 1.478 . S
C315 H309 0.930 . S
C315 C311 1.400 . S
C315 C314 1.385 . S
C316 C314 1.478 . S
C316 C318 1.381 . S
C316 C322 1.383 . S
C317 C313 1.495 . S
C317 H323 0.959 . S
C317 H324 0.961 . S
C317 H325 0.960 . S
C318 C316 1.381 . S
C318 C319 1.394 . S
C318 H326 0.930 . S
C319 C318 1.394 . S
C319 C320 1.383 . S
C319 H327 0.929 . S
C320 C319 1.383 . S
C320 C321 1.377 . S
C321 H305 0.930 . S
C321 C320 1.377 . S
C321 C322 1.379 . S
C322 H306 0.931 . S
C322 C316 1.383 . S
C322 C321 1.379 . S
H323 C317 0.959 . S
H324 C317 0.961 . S
H325 C317 0.960 . S
H326 C318 0.930 . S
H327 C319 0.929 . S
H328 C336 0.929 . S
H329 C338 0.930 . S
H330 C340 0.930 . S
H331 C343 0.929 . S
H332 C346 0.930 . S
H333 C348 0.960 . S
H334 C348 0.960 . S
H335 C348 0.960 . S
C336 H328 0.929 . S
C336 C337 1.377 . S
C336 C338 1.384 . S
C337 C336 1.377 . S
C337 C343 1.390 . S
C338 H329 0.930 . S
C338 C336 1.384 . S
C338 C339 1.372 . S
C339 C338 1.372 . S
C339 C340 1.400 . S
C339 C344 1.490 . S
C340 H330 0.930 . S
C340 C339 1.400 . S
C340 C343 1.386 . S
H341 C357 0.930 . S
H342 C358 0.931 . S
C343 H331 0.929 . S
C343 C337 1.390 . S
C343 C340 1.386 . S
C344 C339 1.490 . S
C344 C346 1.395 . S
C344 C347 1.403 . S
H345 C351 0.930 . S
C346 H332 0.930 . S
C346 C344 1.395 . S
C346 C349 1.403 . S
C347 C344 1.403 . S
C347 C348 1.524 . S
C347 C351 1.400 . S
C348 H333 0.960 . S
C348 H334 0.960 . S
C348 H335 0.960 . S
C348 C347 1.524 . S
C349 C346 1.403 . S
C349 C350 1.392 . S
C349 C353 1.495 . S
C350 C349 1.392 . S
C350 C351 1.385 . S
C350 C352 1.478 . S
C351 H345 0.930 . S
C351 C347 1.400 . S
C351 C350 1.385 . S
C352 C350 1.478 . S
C352 C354 1.381 . S
C352 C358 1.383 . S
C353 C349 1.495 . S
C353 H359 0.959 . S
C353 H360 0.961 . S
C353 H361 0.960 . S
C354 C352 1.381 . S
C354 C355 1.394 . S
C354 H362 0.930 . S
C355 C354 1.394 . S
C355 C356 1.383 . S
C355 H363 0.929 . S
C356 C355 1.383 . S
C356 C357 1.377 . S
C357 H341 0.930 . S
C357 C356 1.377 . S
C357 C358 1.379 . S
C358 H342 0.931 . S
C358 C352 1.383 . S
C358 C357 1.379 . S
H359 C353 0.959 . S
H360 C353 0.961 . S
H361 C353 0.960 . S
H362 C354 0.930 . S
H363 C355 0.929 . S
H364 C372 0.929 . S
H365 C374 0.930 . S
H366 C376 0.930 . S
H367 C379 0.929 . S
H368 C382 0.930 . S
H369 C384 0.960 . S
H370 C384 0.960 . S
H371 C384 0.960 . S
C372 H364 0.929 . S
C372 C373 1.377 . S
C372 C374 1.384 . S
C373 C372 1.377 . S
C373 C379 1.390 . S
C374 H365 0.930 . S
C374 C372 1.384 . S
C374 C375 1.372 . S
C375 C374 1.372 . S
C375 C376 1.400 . S
C375 C380 1.490 . S
C376 H366 0.930 . S
C376 C375 1.400 . S
C376 C379 1.386 . S
H377 C393 0.904 1_545 S
H378 C394 0.921 1_545 S
C379 H367 0.929 . S
C379 C373 1.390 . S
C379 C376 1.386 . S
C380 C375 1.490 . S
C380 C382 1.395 . S
C380 C383 1.403 . S
H381 C387 0.930 . S
C382 H368 0.930 . S
C382 C380 1.395 . S
C382 C385 1.403 . S
C383 C380 1.403 . S
C383 C384 1.524 . S
C383 C387 1.400 . S
C384 H369 0.960 . S
C384 H370 0.960 . S
C384 H371 0.960 . S
C384 C383 1.524 . S
C385 C382 1.403 . S
C385 C386 1.392 . S
C385 C389 1.495 . S
C386 C385 1.392 . S
C386 C387 1.385 . S
C386 C388 1.478 . S
C387 H381 0.930 . S
C387 C383 1.400 . S
C387 C386 1.385 . S
C388 C386 1.478 . S
C388 C390 1.381 . S
C388 C394 1.383 . S
C389 C385 1.495 . S
C389 H395 0.959 . S
C389 H396 0.961 . S
C389 H397 0.960 . S
C390 C388 1.381 . S
C390 C391 1.394 . S
C390 H398 0.930 . S
C391 C390 1.394 . S
C391 C392 1.383 . S
C391 H399 0.929 . S
C392 C391 1.383 . S
C392 C393 1.389 . S
C393 H377 0.904 1_565 S
C393 C392 1.389 . S
C393 C394 1.392 . S
C394 H378 0.921 1_565 S
C394 C388 1.383 . S
C394 C393 1.392 . S
H395 C389 0.959 . S
H396 C389 0.961 . S
H397 C389 0.960 . S
H398 C390 0.930 . S
H399 C391 0.929 . S
H400 C408 0.929 . S
H401 C410 0.930 . S
H402 C412 0.930 . S
H403 C415 0.929 . S
H404 C418 0.930 . S
H405 C420 0.960 . S
H406 C420 0.960 . S
H407 C420 0.960 . S
C408 H400 0.929 . S
C408 C409 1.377 . S
C408 C410 1.384 . S
C409 C408 1.377 . S
C409 C415 1.390 . S
C410 H401 0.930 . S
C410 C408 1.384 . S
C410 C411 1.372 . S
C411 C410 1.372 . S
C411 C412 1.400 . S
C411 C416 1.490 . S
C412 H402 0.930 . S
C412 C411 1.400 . S
C412 C415 1.386 . S
H413 C429 0.903 1_554 S
H414 C430 0.931 . S
C415 H403 0.929 . S
C415 C409 1.390 . S
C415 C412 1.386 . S
C416 C411 1.490 . S
C416 C418 1.395 . S
C416 C419 1.403 . S
H417 C423 0.930 . S
C418 H404 0.930 . S
C418 C416 1.395 . S
C418 C421 1.403 . S
C419 C416 1.403 . S
C419 C420 1.524 . S
C419 C423 1.400 . S
C420 H405 0.960 . S
C420 H406 0.960 . S
C420 H407 0.960 . S
C420 C419 1.524 . S
C421 C418 1.403 . S
C421 C422 1.392 . S
C421 C425 1.495 . S
C422 C421 1.392 . S
C422 C423 1.385 . S
C422 C424 1.478 . S
C423 H417 0.930 . S
C423 C419 1.400 . S
C423 C422 1.385 . S
C424 C422 1.478 . S
C424 C426 1.381 . S
C424 C430 1.383 . S
C425 C421 1.495 . S
C425 H431 0.959 . S
C425 H432 0.961 . S
C425 H433 0.960 . S
C426 C424 1.381 . S
C426 C427 1.394 . S
C426 H434 0.930 . S
C427 C426 1.394 . S
C427 C428 1.383 . S
C427 H435 0.929 . S
C428 C427 1.383 . S
C428 C429 1.377 . S
C429 H413 0.903 1_556 S
C429 C428 1.377 . S
C429 C430 1.379 . S
C430 H414 0.931 . S
C430 C424 1.383 . S
C430 C429 1.379 . S
H431 C425 0.959 . S
H432 C425 0.961 . S
H433 C425 0.960 . S
H434 C426 0.930 . S
H435 C427 0.929 . S
H436 C444 0.929 . S
H437 C446 0.930 . S
H438 C448 0.930 . S
H439 C451 0.929 . S
H440 C454 0.930 . S
H441 C456 0.960 . S
H442 C456 0.960 . S
H443 C456 0.960 . S
C444 H436 0.929 . S
C444 C445 1.377 . S
C444 C446 1.384 . S
C445 C444 1.377 . S
C445 C451 1.390 . S
C446 H437 0.930 . S
C446 C444 1.384 . S
C446 C447 1.372 . S
C447 C446 1.372 . S
C447 C448 1.400 . S
C447 C452 1.490 . S
C448 H438 0.930 . S
C448 C447 1.400 . S
C448 C451 1.386 . S
H449 C465 0.930 . S
H450 C466 0.931 . S
C451 H439 0.929 . S
C451 C445 1.390 . S
C451 C448 1.386 . S
C452 C447 1.490 . S
C452 C454 1.395 . S
C452 C455 1.403 . S
H453 C459 0.930 . S
C454 H440 0.930 . S
C454 C452 1.395 . S
C454 C457 1.403 . S
C455 C452 1.403 . S
C455 C456 1.524 . S
C455 C459 1.400 . S
C456 H441 0.960 . S
C456 H442 0.960 . S
C456 H443 0.960 . S
C456 C455 1.524 . S
C457 C454 1.403 . S
C457 C458 1.392 . S
C457 C461 1.495 . S
C458 C457 1.392 . S
C458 C459 1.385 . S
C458 C460 1.478 . S
C459 H453 0.930 . S
C459 C455 1.400 . S
C459 C458 1.385 . S
C460 C458 1.478 . S
C460 C462 1.381 . S
C460 C466 1.383 . S
C461 C457 1.495 . S
C461 H467 0.959 . S
C461 H468 0.961 . S
C461 H469 0.960 . S
C462 C460 1.381 . S
C462 C463 1.394 . S
C462 H470 0.930 . S
C463 C462 1.394 . S
C463 C464 1.383 . S
C463 H471 0.929 . S
C464 C463 1.383 . S
C464 C465 1.377 . S
C465 H449 0.930 . S
C465 C464 1.377 . S
C465 C466 1.379 . S
C466 H450 0.931 . S
C466 C460 1.383 . S
C466 C465 1.379 . S
H467 C461 0.959 . S
H468 C461 0.961 . S
H469 C461 0.960 . S
H470 C462 0.930 . S
H471 C463 0.929 . S
H472 C480 0.929 . S
H473 C482 0.930 . S
H474 C484 0.930 . S
H475 C487 0.929 . S
H476 C490 0.930 . S
H477 C492 0.960 . S
H478 C492 0.960 . S
H479 C492 0.960 . S
C480 H472 0.929 . S
C480 C481 1.377 . S
C480 C482 1.384 . S
C481 C480 1.377 . S
C481 C487 1.390 . S
C482 H473 0.930 . S
C482 C480 1.384 . S
C482 C483 1.372 . S
C483 C482 1.372 . S
C483 C484 1.400 . S
C483 C488 1.490 . S
C484 H474 0.930 . S
C484 C483 1.400 . S
C484 C487 1.386 . S
H485 C501 0.930 . S
H486 C502 0.931 . S
C487 H475 0.929 . S
C487 C481 1.390 . S
C487 C484 1.386 . S
C488 C483 1.490 . S
C488 C490 1.395 . S
C488 C491 1.403 . S
H489 C495 0.930 . S
C490 H476 0.930 . S
C490 C488 1.395 . S
C490 C493 1.403 . S
C491 C488 1.403 . S
C491 C492 1.524 . S
C491 C495 1.400 . S
C492 H477 0.960 . S
C492 H478 0.960 . S
C492 H479 0.960 . S
C492 C491 1.524 . S
C493 C490 1.403 . S
C493 C494 1.392 . S
C493 C497 1.495 . S
C494 C493 1.392 . S
C494 C495 1.385 . S
C494 C496 1.478 . S
C495 H489 0.930 . S
C495 C491 1.400 . S
C495 C494 1.385 . S
C496 C494 1.478 . S
C496 C498 1.381 . S
C496 C502 1.383 . S
C497 C493 1.495 . S
C497 H503 0.959 . S
C497 H504 0.961 . S
C497 H505 0.960 . S
C498 C496 1.381 . S
C498 C499 1.394 . S
C498 H506 0.930 . S
C499 C498 1.394 . S
C499 C500 1.383 . S
C499 H507 0.929 . S
C500 C499 1.383 . S
C500 C501 1.377 . S
C501 H485 0.930 . S
C501 C500 1.377 . S
C501 C502 1.379 . S
C502 H486 0.931 . S
C502 C496 1.383 . S
C502 C501 1.379 . S
H503 C497 0.959 . S
H504 C497 0.961 . S
H505 C497 0.960 . S
H506 C498 0.930 . S
H507 C499 0.929 . S
H508 C516 0.929 . S
H509 C518 0.930 . S
H510 C520 0.930 . S
H511 C523 0.929 . S
H512 C526 0.930 . S
H513 C528 0.960 . S
H514 C528 0.960 . S
H515 C528 0.960 . S
C516 H508 0.929 . S
C516 C517 1.377 . S
C516 C518 1.384 . S
C517 C516 1.377 . S
C517 C523 1.390 . S
C518 H509 0.930 . S
C518 C516 1.384 . S
C518 C519 1.372 . S
C519 C518 1.372 . S
C519 C520 1.400 . S
C519 C524 1.490 . S
C520 H510 0.930 . S
C520 C519 1.400 . S
C520 C523 1.386 . S
H521 C537 0.930 1_554 S
H522 C538 0.931 . S
C523 H511 0.929 . S
C523 C517 1.390 . S
C523 C520 1.386 . S
C524 C519 1.490 . S
C524 C526 1.395 . S
C524 C527 1.403 . S
H525 C531 0.930 . S
C526 H512 0.930 . S
C526 C524 1.395 . S
C526 C529 1.403 . S
C527 C524 1.403 . S
C527 C528 1.524 . S
C527 C531 1.400 . S
C528 H513 0.960 . S
C528 H514 0.960 . S
C528 H515 0.960 . S
C528 C527 1.524 . S
C529 C526 1.403 . S
C529 C530 1.392 . S
C529 C533 1.495 . S
C530 C529 1.392 . S
C530 C531 1.385 . S
C530 C532 1.478 . S
C531 H525 0.930 . S
C531 C527 1.400 . S
C531 C530 1.385 . S
C532 C530 1.478 . S
C532 C534 1.381 . S
C532 C538 1.383 . S
C533 C529 1.495 . S
C533 H539 0.959 . S
C533 H540 0.961 1_556 S
C533 H541 0.960 . S
C534 C532 1.381 . S
C534 C535 1.394 . S
C534 H542 0.930 . S
C535 C534 1.394 . S
C535 C536 1.383 . S
C535 H543 0.929 . S
C536 C535 1.383 . S
C536 C537 1.377 . S
C537 H521 0.930 1_556 S
C537 C536 1.377 . S
C537 C538 1.379 . S
C538 H522 0.931 . S
C538 C532 1.383 . S
C538 C537 1.379 . S
H539 C533 0.959 . S
H540 C533 0.961 1_554 S
H541 C533 0.960 . S
H542 C534 0.930 . S
H543 C535 0.929 . S
H544 C552 0.929 . S
H545 C554 0.930 . S
H546 C556 0.930 . S
H547 C559 0.929 . S
H548 C562 0.930 . S
H549 C564 0.960 . S
H550 C564 0.960 . S
H551 C564 0.960 . S
C552 H544 0.929 . S
C552 C553 1.377 . S
C552 C554 1.384 . S
C553 C552 1.377 . S
C553 C559 1.390 . S
C554 H545 0.930 . S
C554 C552 1.384 . S
C554 C555 1.372 . S
C555 C554 1.372 . S
C555 C556 1.400 . S
C555 C560 1.490 . S
C556 H546 0.930 . S
C556 C555 1.400 . S
C556 C559 1.386 . S
H557 C573 0.930 1_455 S
H558 C574 0.931 . S
C559 H547 0.929 . S
C559 C553 1.390 . S
C559 C556 1.386 . S
C560 C555 1.490 . S
C560 C562 1.395 . S
C560 C563 1.403 . S
H561 C567 0.930 . S
C562 H548 0.930 . S
C562 C560 1.395 . S
C562 C565 1.403 . S
C563 C560 1.403 . S
C563 C564 1.524 . S
C563 C567 1.400 . S
C564 H549 0.960 . S
C564 H550 0.960 . S
C564 H551 0.960 . S
C564 C563 1.524 . S
C565 C562 1.403 . S
C565 C566 1.392 . S
C565 C569 1.495 . S
C566 C565 1.392 . S
C566 C567 1.385 . S
C566 C568 1.478 . S
C567 H561 0.930 . S
C567 C563 1.400 . S
C567 C566 1.385 . S
C568 C566 1.478 . S
C568 C570 1.381 . S
C568 C574 1.383 . S
C569 C565 1.495 . S
C569 H575 0.959 . S
C569 H576 0.961 . S
C569 H577 0.960 . S
C570 C568 1.381 . S
C570 C571 1.394 . S
C570 H578 0.930 . S
C571 C570 1.394 . S
C571 C572 1.383 . S
C571 H579 0.929 . S
C572 C571 1.383 . S
C572 C573 1.377 . S
C573 H557 0.930 1_655 S
C573 C572 1.377 . S
C573 C574 1.379 . S
C574 H558 0.931 . S
C574 C568 1.383 . S
C574 C573 1.379 . S
H575 C569 0.959 . S
H576 C569 0.961 . S
H577 C569 0.960 . S
H578 C570 0.930 . S
H579 C571 0.929 . S
H580 C588 0.929 . S
H581 C590 0.930 . S
H582 C592 0.930 . S
H583 C595 0.929 . S
H584 C598 0.930 . S
H585 C600 0.960 . S
H586 C600 0.960 . S
H587 C600 0.960 . S
C588 H580 0.929 . S
C588 C589 1.377 . S
C588 C590 1.384 . S
C589 C588 1.377 . S
C589 C595 1.390 . S
C590 H581 0.930 . S
C590 C588 1.384 . S
C590 C591 1.372 . S
C591 C590 1.372 . S
C591 C592 1.400 . S
C591 C596 1.490 . S
C592 H582 0.930 . S
C592 C591 1.400 . S
C592 C595 1.386 . S
H593 C609 0.930 . S
H594 C610 0.931 . S
C595 H583 0.929 . S
C595 C589 1.390 . S
C595 C592 1.386 . S
C596 C591 1.490 . S
C596 C598 1.395 . S
C596 C599 1.403 . S
H597 C603 0.930 . S
C598 H584 0.930 . S
C598 C596 1.395 . S
C598 C601 1.403 . S
C599 C596 1.403 . S
C599 C600 1.524 . S
C599 C603 1.400 . S
C600 H585 0.960 . S
C600 H586 0.960 . S
C600 H587 0.960 . S
C600 C599 1.524 . S
C601 C598 1.403 . S
C601 C602 1.392 . S
C601 C605 1.495 . S
C602 C601 1.392 . S
C602 C603 1.385 . S
C602 C604 1.478 . S
C603 H597 0.930 . S
C603 C599 1.400 . S
C603 C602 1.385 . S
C604 C602 1.478 . S
C604 C606 1.381 . S
C604 C610 1.383 . S
C605 C601 1.495 . S
C605 H611 0.959 . S
C605 H612 0.961 . S
C605 H613 0.960 . S
C606 C604 1.381 . S
C606 C607 1.394 . S
C606 H614 0.930 . S
C607 C606 1.394 . S
C607 C608 1.383 . S
C607 H615 0.929 . S
C608 C607 1.383 . S
C608 C609 1.377 . S
C609 H593 0.930 . S
C609 C608 1.377 . S
C609 C610 1.379 . S
C610 H594 0.931 . S
C610 C604 1.383 . S
C610 C609 1.379 . S
H611 C605 0.959 . S
H612 C605 0.961 . S
H613 C605 0.960 . S
H614 C606 0.930 . S
H615 C607 0.929 . S
H616 C624 0.929 . S
H617 C626 0.930 . S
H618 C628 0.930 . S
H619 C631 0.929 . S
H620 C634 0.930 . S
H621 C636 0.960 . S
H622 C636 0.960 . S
H623 C636 0.960 . S
C624 H616 0.929 . S
C624 C625 1.377 . S
C624 C626 1.384 . S
C625 C624 1.377 . S
C625 C631 1.390 . S
C626 H617 0.930 . S
C626 C624 1.384 . S
C626 C627 1.372 . S
C627 C626 1.372 . S
C627 C628 1.400 . S
C627 C632 1.490 . S
C628 H618 0.930 . S
C628 C627 1.400 . S
C628 C631 1.386 . S
H629 C645 0.930 . S
H630 C646 0.931 . S
C631 H619 0.929 . S
C631 C625 1.390 . S
C631 C628 1.386 . S
C632 C627 1.490 . S
C632 C634 1.395 . S
C632 C635 1.403 . S
H633 C639 0.930 . S
C634 H620 0.930 . S
C634 C632 1.395 . S
C634 C637 1.403 . S
C635 C632 1.403 . S
C635 C636 1.524 . S
C635 C639 1.400 . S
C636 H621 0.960 . S
C636 H622 0.960 . S
C636 H623 0.960 . S
C636 C635 1.524 . S
C637 C634 1.403 . S
C637 C638 1.392 . S
C637 C641 1.495 . S
C638 C637 1.392 . S
C638 C639 1.385 . S
C638 C640 1.478 . S
C639 H633 0.930 . S
C639 C635 1.400 . S
C639 C638 1.385 . S
C640 C638 1.478 . S
C640 C642 1.381 . S
C640 C646 1.383 . S
C641 C637 1.495 . S
C641 H647 0.959 . S
C641 H648 0.961 . S
C641 H649 0.960 . S
C642 C640 1.381 . S
C642 C643 1.394 . S
C642 H650 0.930 . S
C643 C642 1.394 . S
C643 C644 1.383 . S
C643 H651 0.929 . S
C644 C643 1.383 . S
C644 C645 1.377 . S
C645 H629 0.930 . S
C645 C644 1.377 . S
C645 C646 1.379 . S
C646 H630 0.931 . S
C646 C640 1.383 . S
C646 C645 1.379 . S
H647 C641 0.959 . S
H648 C641 0.961 . S
H649 C641 0.960 . S
H650 C642 0.930 . S
H651 C643 0.929 . S
H652 C660 0.929 . S
H653 C662 0.930 . S
H654 C664 0.930 . S
H655 C667 0.929 . S
H656 C670 0.930 . S
H657 C672 0.960 . S
H658 C672 0.960 . S
H659 C672 0.960 . S
C660 H652 0.929 . S
C660 C661 1.377 . S
C660 C662 1.384 . S
C661 C660 1.377 . S
C661 C667 1.390 . S
C662 H653 0.930 . S
C662 C660 1.384 . S
C662 C663 1.372 . S
C663 C662 1.372 . S
C663 C664 1.400 . S
C663 C668 1.490 . S
C664 H654 0.930 . S
C664 C663 1.400 . S
C664 C667 1.386 . S
H665 C681 0.930 . S
H666 C682 0.931 . S
C667 H655 0.929 . S
C667 C661 1.390 . S
C667 C664 1.386 . S
C668 C663 1.490 . S
C668 C670 1.395 . S
C668 C671 1.403 . S
H669 C675 0.930 . S
C670 H656 0.930 . S
C670 C668 1.395 . S
C670 C673 1.403 . S
C671 C668 1.403 . S
C671 C672 1.524 . S
C671 C675 1.400 . S
C672 H657 0.960 . S
C672 H658 0.960 . S
C672 H659 0.960 . S
C672 C671 1.524 . S
C673 C670 1.403 . S
C673 C674 1.392 . S
C673 C677 1.495 . S
C674 C673 1.392 . S
C674 C675 1.385 . S
C674 C676 1.478 . S
C675 H669 0.930 . S
C675 C671 1.400 . S
C675 C674 1.385 . S
C676 C674 1.478 . S
C676 C678 1.381 . S
C676 C682 1.383 . S
C677 C673 1.495 . S
C677 H683 0.959 . S
C677 H684 0.961 . S
C677 H685 0.960 . S
C678 C676 1.381 . S
C678 C679 1.394 . S
C678 H686 0.930 . S
C679 C678 1.394 . S
C679 C680 1.383 . S
C679 H687 0.929 . S
C680 C679 1.383 . S
C680 C681 1.377 . S
C681 H665 0.930 . S
C681 C680 1.377 . S
C681 C682 1.379 . S
C682 H666 0.931 . S
C682 C676 1.383 . S
C682 C681 1.379 . S
H683 C677 0.959 . S
H684 C677 0.961 . S
H685 C677 0.960 . S
H686 C678 0.930 . S
H687 C679 0.929 . S
H688 C696 0.929 . S
H689 C698 0.930 . S
H690 C700 0.930 . S
H691 C703 0.929 . S
H692 C706 0.930 . S
H693 C708 0.960 . S
H694 C708 0.960 . S
H695 C708 0.960 . S
C696 H688 0.929 . S
C696 C697 1.377 . S
C696 C698 1.384 . S
C697 C696 1.377 . S
C697 C703 1.390 . S
C698 H689 0.930 . S
C698 C696 1.384 . S
C698 C699 1.372 . S
C699 C698 1.372 . S
C699 C700 1.400 . S
C699 C704 1.490 . S
C700 H690 0.930 . S
C700 C699 1.400 . S
C700 C703 1.386 . S
H701 C717 0.930 . S
H702 C718 0.931 . S
C703 H691 0.929 . S
C703 C697 1.390 . S
C703 C700 1.386 . S
C704 C699 1.490 . S
C704 C706 1.395 . S
C704 C707 1.403 . S
H705 C711 0.930 . S
C706 H692 0.930 . S
C706 C704 1.395 . S
C706 C709 1.403 . S
C707 C704 1.403 . S
C707 C708 1.524 . S
C707 C711 1.400 . S
C708 H693 0.960 . S
C708 H694 0.960 . S
C708 H695 0.960 . S
C708 C707 1.524 . S
C709 C706 1.403 . S
C709 C710 1.392 . S
C709 C713 1.495 . S
C710 C709 1.392 . S
C710 C711 1.385 . S
C710 C712 1.478 . S
C711 H705 0.930 . S
C711 C707 1.400 . S
C711 C710 1.385 . S
C712 C710 1.478 . S
C712 C714 1.381 . S
C712 C718 1.383 . S
C713 C709 1.495 . S
C713 H719 0.959 . S
C713 H720 0.961 . S
C713 H721 0.960 . S
C714 C712 1.381 . S
C714 C715 1.394 . S
C714 H722 0.930 . S
C715 C714 1.394 . S
C715 C716 1.383 . S
C715 H723 0.929 . S
C716 C715 1.383 . S
C716 C717 1.377 . S
C717 H701 0.930 . S
C717 C716 1.377 . S
C717 C718 1.379 . S
C718 H702 0.931 . S
C718 C712 1.383 . S
C718 C717 1.379 . S
H719 C713 0.959 . S
H720 C713 0.961 . S
H721 C713 0.960 . S
H722 C714 0.930 . S
H723 C715 0.929 . S
H724 C732 0.929 . S
H725 C734 0.930 . S
H726 C736 0.930 . S
H727 C739 0.929 . S
H728 C742 0.930 . S
H729 C744 0.960 . S
H730 C744 0.960 . S
H731 C744 0.960 . S
C732 H724 0.929 . S
C732 C733 1.377 . S
C732 C734 1.384 . S
C733 C732 1.377 . S
C733 C739 1.390 . S
C734 H725 0.930 . S
C734 C732 1.384 . S
C734 C735 1.372 . S
C735 C734 1.372 . S
C735 C736 1.400 . S
C735 C740 1.490 . S
C736 H726 0.930 . S
C736 C735 1.400 . S
C736 C739 1.386 . S
H737 C753 0.930 . S
H738 C754 0.931 . S
C739 H727 0.929 . S
C739 C733 1.390 . S
C739 C736 1.386 . S
C740 C735 1.490 . S
C740 C742 1.395 . S
C740 C743 1.403 . S
H741 C747 0.930 . S
C742 H728 0.930 . S
C742 C740 1.395 . S
C742 C745 1.403 . S
C743 C740 1.403 . S
C743 C744 1.524 . S
C743 C747 1.400 . S
C744 H729 0.960 . S
C744 H730 0.960 . S
C744 H731 0.960 . S
C744 C743 1.524 . S
C745 C742 1.403 . S
C745 C746 1.392 . S
C745 C749 1.495 . S
C746 C745 1.392 . S
C746 C747 1.385 . S
C746 C748 1.478 . S
C747 H741 0.930 . S
C747 C743 1.400 . S
C747 C746 1.385 . S
C748 C746 1.478 . S
C748 C750 1.381 . S
C748 C754 1.383 . S
C749 C745 1.495 . S
C749 H755 0.959 . S
C749 H756 0.961 . S
C749 H757 0.960 . S
C750 C748 1.381 . S
C750 C751 1.394 . S
C750 H758 0.930 . S
C751 C750 1.394 . S
C751 C752 1.383 . S
C751 H759 0.929 . S
C752 C751 1.383 . S
C752 C753 1.377 . S
C753 H737 0.930 . S
C753 C752 1.377 . S
C753 C754 1.379 . S
C754 H738 0.931 . S
C754 C748 1.383 . S
C754 C753 1.379 . S
H755 C749 0.959 . S
H756 C749 0.961 . S
H757 C749 0.960 . S
H758 C750 0.930 . S
H759 C751 0.929 . S
H760 C768 0.929 . S
H761 C770 0.930 . S
H762 C772 0.930 . S
H763 C775 0.929 . S
H764 C778 0.930 . S
H765 C780 0.960 . S
H766 C780 0.960 . S
H767 C780 0.960 . S
C768 H760 0.929 . S
C768 C769 1.377 . S
C768 C770 1.384 . S
C769 C768 1.377 . S
C769 C775 1.390 . S
C770 H761 0.930 . S
C770 C768 1.384 . S
C770 C771 1.372 . S
C771 C770 1.372 . S
C771 C772 1.400 . S
C771 C776 1.490 . S
C772 H762 0.930 . S
C772 C771 1.400 . S
C772 C775 1.386 . S
H773 C789 0.930 1_545 S
H774 C790 0.931 . S
C775 H763 0.929 . S
C775 C769 1.390 . S
C775 C772 1.386 . S
C776 C771 1.490 . S
C776 C778 1.395 . S
C776 C779 1.403 . S
H777 C783 0.930 . S
C778 H764 0.930 . S
C778 C776 1.395 . S
C778 C781 1.403 . S
C779 C776 1.403 . S
C779 C780 1.524 . S
C779 C783 1.400 . S
C780 H765 0.960 . S
C780 H766 0.960 . S
C780 H767 0.960 . S
C780 C779 1.524 . S
C781 C778 1.403 . S
C781 C782 1.392 . S
C781 C785 1.495 . S
C782 C781 1.392 . S
C782 C783 1.385 . S
C782 C784 1.478 . S
C783 H777 0.930 . S
C783 C779 1.400 . S
C783 C782 1.385 . S
C784 C782 1.478 . S
C784 C786 1.381 . S
C784 C790 1.383 . S
C785 C781 1.495 . S
C785 H791 0.959 . S
C785 H792 0.961 . S
C785 H793 0.960 . S
C786 C784 1.381 . S
C786 C787 1.394 . S
C786 H794 0.930 . S
C787 C786 1.394 . S
C787 C788 1.383 . S
C787 H795 0.950 . S
C788 C787 1.383 . S
C788 C789 1.377 . S
C789 H773 0.930 1_565 S
C789 C788 1.377 . S
C789 C790 1.379 . S
C790 H774 0.931 . S
C790 C784 1.383 . S
C790 C789 1.379 . S
H791 C785 0.959 . S
H792 C785 0.961 . S
H793 C785 0.960 . S
H794 C786 0.930 . S
H795 C787 0.950 . S
H796 C804 0.929 . S
H797 C806 0.930 . S
H798 C808 0.930 . S
H799 C811 0.929 . S
H800 C814 0.930 . S
H801 C816 0.960 . S
H802 C816 0.960 . S
H803 C816 0.960 . S
C804 H796 0.929 . S
C804 C805 1.377 . S
C804 C806 1.384 . S
C805 C804 1.377 . S
C805 C811 1.390 . S
C806 H797 0.930 . S
C806 C804 1.384 . S
C806 C807 1.372 . S
C807 C806 1.372 . S
C807 C808 1.400 . S
C807 C812 1.490 . S
C808 H798 0.930 . S
C808 C807 1.400 . S
C808 C811 1.386 . S
H809 C825 0.930 . S
H810 C826 0.931 . S
C811 H799 0.929 . S
C811 C805 1.390 . S
C811 C808 1.386 . S
C812 C807 1.490 . S
C812 C814 1.395 . S
C812 C815 1.403 . S
H813 C819 0.930 . S
C814 H800 0.930 . S
C814 C812 1.395 . S
C814 C817 1.403 . S
C815 C812 1.403 . S
C815 C816 1.524 . S
C815 C819 1.400 . S
C816 H801 0.960 . S
C816 H802 0.960 . S
C816 H803 0.960 . S
C816 C815 1.524 . S
C817 C814 1.403 . S
C817 C818 1.392 . S
C817 C821 1.495 . S
C818 C817 1.392 . S
C818 C819 1.385 . S
C818 C820 1.478 . S
C819 H813 0.930 . S
C819 C815 1.400 . S
C819 C818 1.385 . S
C820 C818 1.478 . S
C820 C822 1.381 . S
C820 C826 1.383 . S
C821 C817 1.495 . S
C821 H827 0.959 . S
C821 H828 0.961 . S
C821 H829 0.960 . S
C822 C820 1.381 . S
C822 C823 1.394 . S
C822 H830 0.930 . S
C823 C822 1.394 . S
C823 C824 1.383 . S
C823 H831 0.929 . S
C824 C823 1.383 . S
C824 C825 1.377 . S
C825 H809 0.930 . S
C825 C824 1.377 . S
C825 C826 1.379 . S
C826 H810 0.931 . S
C826 C820 1.383 . S
C826 C825 1.379 . S
H827 C821 0.959 . S
H828 C821 0.961 . S
H829 C821 0.960 . S
H830 C822 0.930 . S
H831 C823 0.929 . S
H832 C840 0.929 . S
H833 C842 0.930 . S
H834 C844 0.930 . S
H835 C847 0.929 . S
H836 C850 0.930 . S
H837 C852 0.960 . S
H838 C852 0.960 . S
H839 C852 0.960 . S
C840 H832 0.929 . S
C840 C841 1.377 . S
C840 C842 1.384 . S
C841 C840 1.377 . S
C841 C847 1.390 . S
C842 H833 0.930 . S
C842 C840 1.384 . S
C842 C843 1.372 . S
C843 C842 1.372 . S
C843 C844 1.400 . S
C843 C848 1.490 . S
C844 H834 0.930 . S
C844 C843 1.400 . S
C844 C847 1.386 . S
H845 C861 0.930 . S
H846 C862 0.931 . S
C847 H835 0.929 . S
C847 C841 1.390 . S
C847 C844 1.386 . S
C848 C843 1.490 . S
C848 C850 1.395 . S
C848 C851 1.403 . S
H849 C855 0.930 . S
C850 H836 0.930 . S
C850 C848 1.395 . S
C850 C853 1.403 . S
C851 C848 1.403 . S
C851 C852 1.524 . S
C851 C855 1.400 . S
C852 H837 0.960 . S
C852 H838 0.960 . S
C852 H839 0.960 . S
C852 C851 1.524 . S
C853 C850 1.403 . S
C853 C854 1.392 . S
C853 C857 1.495 . S
C854 C853 1.392 . S
C854 C855 1.385 . S
C854 C856 1.478 . S
C855 H849 0.930 . S
C855 C851 1.400 . S
C855 C854 1.385 . S
C856 C854 1.478 . S
C856 C858 1.381 . S
C856 C862 1.383 . S
C857 C853 1.495 . S
C857 H863 0.959 . S
C857 H864 0.961 . S
C857 H865 0.960 . S
C858 C856 1.381 . S
C858 C859 1.394 . S
C858 H866 0.930 . S
C859 C858 1.394 . S
C859 C860 1.383 . S
C859 H867 0.929 . S
C860 C859 1.383 . S
C860 C861 1.377 . S
C861 H845 0.930 . S
C861 C860 1.377 . S
C861 C862 1.379 . S
C862 H846 0.931 . S
C862 C856 1.383 . S
C862 C861 1.379 . S
H863 C857 0.959 . S
H864 C857 0.961 . S
H865 C857 0.960 . S
H866 C858 0.930 . S
H867 C859 0.929 . S
H868 C876 0.929 . S
H869 C878 0.930 . S
H870 C880 0.930 . S
H871 C883 0.929 . S
H872 C886 0.930 . S
H873 C888 0.960 . S
H874 C888 0.960 . S
H875 C888 0.960 . S
C876 H868 0.929 . S
C876 C877 1.377 . S
C876 C878 1.384 . S
C877 C876 1.377 . S
C877 C883 1.390 . S
C878 H869 0.930 . S
C878 C876 1.384 . S
C878 C879 1.372 . S
C879 C878 1.372 . S
C879 C880 1.400 . S
C879 C884 1.490 . S
C880 H870 0.930 . S
C880 C879 1.400 . S
C880 C883 1.386 . S
H881 C897 0.930 . S
H882 C898 0.931 . S
C883 H871 0.929 . S
C883 C877 1.390 . S
C883 C880 1.386 . S
C884 C879 1.490 . S
C884 C886 1.395 . S
C884 C887 1.403 . S
H885 C891 0.930 . S
C886 H872 0.930 . S
C886 C884 1.395 . S
C886 C889 1.403 . S
C887 C884 1.403 . S
C887 C888 1.524 . S
C887 C891 1.400 . S
C888 H873 0.960 . S
C888 H874 0.960 . S
C888 H875 0.960 . S
C888 C887 1.524 . S
C889 C886 1.403 . S
C889 C890 1.392 . S
C889 C893 1.495 . S
C890 C889 1.392 . S
C890 C891 1.385 . S
C890 C892 1.478 . S
C891 H885 0.930 . S
C891 C887 1.400 . S
C891 C890 1.385 . S
C892 C890 1.478 . S
C892 C894 1.381 . S
C892 C898 1.383 . S
C893 C889 1.495 . S
C893 H899 0.959 . S
C893 H900 0.961 . S
C893 H901 0.960 . S
C894 C892 1.381 . S
C894 C895 1.394 . S
C894 H902 0.930 . S
C895 C894 1.394 . S
C895 C896 1.383 . S
C895 H903 0.929 . S
C896 C895 1.383 . S
C896 C897 1.377 . S
C897 H881 0.930 . S
C897 C896 1.377 . S
C897 C898 1.379 . S
C898 H882 0.931 . S
C898 C892 1.383 . S
C898 C897 1.379 . S
H899 C893 0.959 . S
H900 C893 0.961 . S
H901 C893 0.960 . S
H902 C894 0.930 . S
H903 C895 0.929 . S
H904 C912 0.929 . S
H905 C914 0.930 . S
H906 C916 0.930 . S
H907 C919 0.929 . S
H908 C922 0.930 . S
H909 C924 0.960 . S
H910 C924 0.960 . S
H911 C924 0.960 . S
C912 H904 0.929 . S
C912 C913 1.377 . S
C912 C914 1.384 . S
C913 C912 1.377 . S
C913 C919 1.390 . S
C914 H905 0.930 . S
C914 C912 1.384 . S
C914 C915 1.372 . S
C915 C914 1.372 . S
C915 C916 1.400 . S
C915 C920 1.490 . S
C916 H906 0.930 . S
C916 C915 1.400 . S
C916 C919 1.386 . S
H917 C933 0.930 . S
H918 C934 0.931 . S
C919 H907 0.929 . S
C919 C913 1.390 . S
C919 C916 1.386 . S
C920 C915 1.490 . S
C920 C922 1.395 . S
C920 C923 1.403 . S
H921 C927 0.930 . S
C922 H908 0.930 . S
C922 C920 1.395 . S
C922 C925 1.403 . S
C923 C920 1.403 . S
C923 C924 1.524 . S
C923 C927 1.400 . S
C924 H909 0.960 . S
C924 H910 0.960 . S
C924 H911 0.960 . S
C924 C923 1.524 . S
C925 C922 1.403 . S
C925 C926 1.392 . S
C925 C929 1.495 . S
C926 C925 1.392 . S
C926 C927 1.385 . S
C926 C928 1.478 . S
C927 H921 0.930 . S
C927 C923 1.400 . S
C927 C926 1.385 . S
C928 C926 1.478 . S
C928 C930 1.381 . S
C928 C934 1.383 . S
C929 C925 1.495 . S
C929 H935 0.959 . S
C929 H936 0.961 . S
C929 H937 0.960 . S
C930 C928 1.381 . S
C930 C931 1.394 . S
C930 H938 0.930 . S
C931 C930 1.394 . S
C931 C932 1.383 . S
C931 H939 0.929 . S
C932 C931 1.383 . S
C932 C933 1.377 . S
C933 H917 0.930 . S
C933 C932 1.377 . S
C933 C934 1.379 . S
C934 H918 0.931 . S
C934 C928 1.383 . S
C934 C933 1.379 . S
H935 C929 0.959 . S
H936 C929 0.961 . S
H937 C929 0.960 . S
H938 C930 0.930 . S
H939 C931 0.929 . S
H940 C948 0.929 . S
H941 C950 0.930 . S
H942 C952 0.930 . S
H943 C955 0.929 . S
H944 C958 0.930 . S
H945 C960 0.960 . S
H946 C960 0.960 . S
H947 C960 0.960 . S
C948 H940 0.929 . S
C948 C949 1.377 . S
C948 C950 1.384 . S
C949 C948 1.377 . S
C949 C955 1.390 . S
C950 H941 0.930 . S
C950 C948 1.384 . S
C950 C951 1.372 . S
C951 C950 1.372 . S
C951 C952 1.400 . S
C951 C956 1.490 . S
C952 H942 0.930 . S
C952 C951 1.400 . S
C952 C955 1.386 . S
H953 C969 0.930 . S
H954 C970 0.931 . S
C955 H943 0.929 . S
C955 C949 1.390 . S
C955 C952 1.386 . S
C956 C951 1.490 . S
C956 C958 1.395 . S
C956 C959 1.403 . S
H957 C963 0.930 . S
C958 H944 0.930 . S
C958 C956 1.395 . S
C958 C961 1.403 . S
C959 C956 1.403 . S
C959 C960 1.524 . S
C959 C963 1.400 . S
C960 H945 0.960 . S
C960 H946 0.960 . S
C960 H947 0.960 . S
C960 C959 1.524 . S
C961 C958 1.403 . S
C961 C962 1.392 . S
C961 C965 1.495 . S
C962 C961 1.392 . S
C962 C963 1.385 . S
C962 C964 1.478 . S
C963 H957 0.930 . S
C963 C959 1.400 . S
C963 C962 1.385 . S
C964 C962 1.478 . S
C964 C966 1.381 . S
C964 C970 1.383 . S
C965 C961 1.495 . S
C965 H971 0.959 . S
C965 H972 0.961 . S
C965 H973 0.960 . S
C966 C964 1.381 . S
C966 C967 1.394 . S
C966 H974 0.930 . S
C967 C966 1.394 . S
C967 C968 1.383 . S
C967 H975 0.929 . S
C968 C967 1.383 . S
C968 C969 1.377 . S
C969 H953 0.930 . S
C969 C968 1.377 . S
C969 C970 1.379 . S
C970 H954 0.931 . S
C970 C964 1.383 . S
C970 C969 1.379 . S
H971 C965 0.959 . S
H972 C965 0.961 . S
H973 C965 0.960 . S
H974 C966 0.930 . S
H975 C967 0.929 . S
H976 C984 0.929 . S
H977 C986 0.930 . S
H978 C988 0.930 . S
H979 C991 0.929 . S
H980 C994 0.930 . S
H981 C996 0.960 . S
H982 C996 0.960 . S
H983 C996 0.960 . S
C984 H976 0.929 . S
C984 C985 1.377 . S
C984 C986 1.384 . S
C985 C984 1.377 . S
C985 C991 1.390 . S
C986 H977 0.930 . S
C986 C984 1.384 . S
C986 C987 1.372 . S
C987 C986 1.372 . S
C987 C988 1.400 . S
C987 C992 1.490 . S
C988 H978 0.930 . S
C988 C987 1.400 . S
C988 C991 1.386 . S
H989 C1005 0.930 . S
H990 C1006 0.931 . S
C991 H979 0.929 . S
C991 C985 1.390 . S
C991 C988 1.386 . S
C992 C987 1.490 . S
C992 C994 1.395 . S
C992 C995 1.403 . S
H993 C999 0.930 . S
C994 H980 0.930 . S
C994 C992 1.395 . S
C994 C997 1.403 . S
C995 C992 1.403 . S
C995 C996 1.524 . S
C995 C999 1.400 . S
C996 H981 0.960 . S
C996 H982 0.960 . S
C996 H983 0.960 . S
C996 C995 1.524 . S
C997 C994 1.403 . S
C997 C998 1.392 . S
C997 C1001 1.495 . S
C998 C997 1.392 . S
C998 C999 1.385 . S
C998 C1000 1.478 . S
C999 H993 0.930 . S
C999 C995 1.400 . S
C999 C998 1.385 . S
C1000 C998 1.478 . S
C1000 C1002 1.381 . S
C1000 C1006 1.383 . S
C1001 C997 1.495 . S
C1001 H1007 0.959 . S
C1001 H1008 0.961 . S
C1001 H1009 0.960 . S
C1002 C1000 1.381 . S
C1002 C1003 1.394 . S
C1002 H1010 0.930 . S
C1003 C1002 1.394 . S
C1003 C1004 1.383 . S
C1003 H1011 0.929 . S
C1004 C1003 1.383 . S
C1004 C1005 1.377 . S
C1005 H989 0.930 . S
C1005 C1004 1.377 . S
C1005 C1006 1.379 . S
C1006 H990 0.931 . S
C1006 C1000 1.383 . S
C1006 C1005 1.379 . S
H1007 C1001 0.959 . S
H1008 C1001 0.961 . S
H1009 C1001 0.960 . S
H1010 C1002 0.930 . S
H1011 C1003 0.929 . S
H1012 C1020 0.929 . S
H1013 C1022 0.930 . S
H1014 C1024 0.930 . S
H1015 C1027 0.929 . S
H1016 C1030 0.930 . S
H1017 C1032 0.960 . S
H1018 C1032 0.960 . S
H1019 C1032 0.960 . S
C1020 H1012 0.929 . S
C1020 C1021 1.377 . S
C1020 C1022 1.384 . S
C1021 C1020 1.377 . S
C1021 C1027 1.390 . S
C1022 H1013 0.930 . S
C1022 C1020 1.384 . S
C1022 C1023 1.372 . S
C1023 C1022 1.372 . S
C1023 C1024 1.400 . S
C1023 C1028 1.490 . S
C1024 H1014 0.930 . S
C1024 C1023 1.400 . S
C1024 C1027 1.386 . S
H1025 C1041 0.930 . S
H1026 C1042 0.931 . S
C1027 H1015 0.929 . S
C1027 C1021 1.390 . S
C1027 C1024 1.386 . S
C1028 C1023 1.490 . S
C1028 C1030 1.395 . S
C1028 C1031 1.403 . S
H1029 C1035 0.930 . S
C1030 H1016 0.930 . S
C1030 C1028 1.395 . S
C1030 C1033 1.403 . S
C1031 C1028 1.403 . S
C1031 C1032 1.524 . S
C1031 C1035 1.400 . S
C1032 H1017 0.960 . S
C1032 H1018 0.960 . S
C1032 H1019 0.960 . S
C1032 C1031 1.524 . S
C1033 C1030 1.403 . S
C1033 C1034 1.392 . S
C1033 C1037 1.495 . S
C1034 C1033 1.392 . S
C1034 C1035 1.385 . S
C1034 C1036 1.478 . S
C1035 H1029 0.930 . S
C1035 C1031 1.400 . S
C1035 C1034 1.385 . S
C1036 C1034 1.478 . S
C1036 C1038 1.381 . S
C1036 C1042 1.383 . S
C1037 C1033 1.495 . S
C1037 H1043 0.959 . S
C1037 H1044 0.961 . S
C1037 H1045 0.960 . S
C1038 C1036 1.381 . S
C1038 C1039 1.394 . S
C1038 H1046 0.930 . S
C1039 C1038 1.394 . S
C1039 C1040 1.383 . S
C1039 H1047 0.929 . S
C1040 C1039 1.383 . S
C1040 C1041 1.377 . S
C1041 H1025 0.930 . S
C1041 C1040 1.377 . S
C1041 C1042 1.379 . S
C1042 H1026 0.931 . S
C1042 C1036 1.383 . S
C1042 C1041 1.379 . S
H1043 C1037 0.959 . S
H1044 C1037 0.961 . S
H1045 C1037 0.960 . S
H1046 C1038 0.930 . S
H1047 C1039 0.929 . S
C193 N1 1.375 . S
C212 C106 1.390 . S
C229 N18 1.641 . S
C248 C125 1.659 . S
C284 C162 1.238 . S
C265 N28 1.280 . S
C301 N40 1.836 . S
C320 C172 1.814 . S
C356 C142 2.316 . S
C337 N5 2.308 . S
C392 C112 1.523 . S
C373 N14 1.528 . S
C428 C183 1.585 . S
C409 N31 1.562 . S
C464 C153 0.961 . S
C445 N41 0.995 . S
C481 N2 1.564 . S
C500 C166 1.568 . S
C536 C133 1.819 1_556 S
C517 N27 1.848 . S
C553 N44 1.805 . S
C572 C123 1.813 1_655 S
C589 N15 1.040 . S
C608 C145 0.990 . S
C644 C105 1.756 . S
C625 N57 1.771 . S
C661 N70 1.223 . S
C680 C126 1.246 . S
C697 N79 1.565 . S
C716 C163 1.581 . S
C733 N93 1.563 . S
C752 C173 1.530 . S
C769 N54 1.737 . S
C788 C143 1.743 1_566 S
C824 C113 1.957 . S
C805 N66 2.059 . S
C860 C182 0.873 . S
C841 N80 0.867 . S
C896 C152 1.386 . S
C877 N96 1.398 . S
C913 N53 1.579 . S
C932 C165 1.578 . S
C968 C132 1.576 . S
C949 N83 1.593 . S
C1004 C122 1.979 . S
C985 N92 1.956 . S
C1021 N67 1.115 . S
C1040 C146 1.136 . S
