# Generated by pormake.
# Topology ftw, (4,12)-cn, num edge types: 1
# Building blocks:
#     Node 0, Type 0, BuildingBlock: NAHDIM_clean_linker_0, # of connection points: 4
#     Node 1, Type 0, BuildingBlock: NAHDIM_clean_linker_0, # of connection points: 4
#     Node 2, Type 0, BuildingBlock: NAHDIM_clean_linker_0, # of connection points: 4
#     Node 3, Type 1, BuildingBlock: QEWDON_clean_sbu_0, # of connection points: 12
#     Edge 4, Type (0, 1), BuildingBlock: KIFKEQ_clean_linker_1, # of connection points: 2
#     Edge 5, Type (0, 1), BuildingBlock: KIFKEQ_clean_linker_1, # of connection points: 2
#     Edge 6, Type (0, 1), BuildingBlock: KIFKEQ_clean_linker_1, # of connection points: 2
#     Edge 7, Type (0, 1), BuildingBlock: KIFKEQ_clean_linker_1, # of connection points: 2
#     Edge 8, Type (0, 1), BuildingBlock: KIFKEQ_clean_linker_1, # of connection points: 2
#     Edge 9, Type (0, 1), BuildingBlock: KIFKEQ_clean_linker_1, # of connection points: 2
#     Edge 10, Type (0, 1), BuildingBlock: KIFKEQ_clean_linker_1, # of connection points: 2
#     Edge 11, Type (0, 1), BuildingBlock: KIFKEQ_clean_linker_1, # of connection points: 2
#     Edge 12, Type (0, 1), BuildingBlock: KIFKEQ_clean_linker_1, # of connection points: 2
#     Edge 13, Type (0, 1), BuildingBlock: KIFKEQ_clean_linker_1, # of connection points: 2
#     Edge 14, Type (0, 1), BuildingBlock: KIFKEQ_clean_linker_1, # of connection points: 2
#     Edge 15, Type (0, 1), BuildingBlock: KIFKEQ_clean_linker_1, # of connection points: 2
# Relax obj value: 0.036
# Max RMSD: 0.107
# Mean RMSD: 0.083
data_MOF--net-ftw--node1-QEWDON_clean_sbu_0--node2-NAHDIM_clean_linker_0--edge1-KIFKEQ_clean_linker_1
_symmetry_space_group_name_H-M    P1
_symmetry_Int_Tables_number       1
_symmetry_cell_setting            triclinic
loop_
_symmetry_equiv_pos_as_xyz
'x, y, z'
_cell_length_a     32.6311
_cell_length_b     32.136192
_cell_length_c     33.54583
_cell_angle_alpha  90.451782
_cell_angle_beta   89.599945
_cell_angle_gamma 89.701303
loop_
_atom_site_label
_atom_site_type_symbol
_atom_site_fract_x
_atom_site_fract_y
_atom_site_fract_z
_atom_type_partial_charge
C0 C 0.94865 0.64592 0.26563 0.0
C1 C 0.95916 0.68157 0.29452 0.0
C2 C 0.99208 0.64058 0.34753 0.0
C3 C 0.95635 0.62168 0.36233 0.0
C4 C 0.95878 0.58895 0.38976 0.0
C5 C 0.9976 0.57529 0.40307 0.0
C6 C 0.03345 0.59555 0.38965 0.0
C7 C 0.03015 0.62799 0.36208 0.0
C8 C 0.91993 0.56829 0.40386 0.0
C9 C 0.0753 0.58222 0.40369 0.0
C10 C 0.10028 0.26683 0.38962 0.0
C11 C 0.08105 0.2869 0.35274 0.0
C12 C 0.03745 0.34441 0.37799 0.0
C13 C 0.06944 0.37082 0.38992 0.0
C14 C 0.06103 0.41018 0.40654 0.0
C15 C 0.01988 0.42343 0.41143 0.0
C16 C 0.98766 0.39738 0.39869 0.0
C17 C 0.99693 0.35812 0.38225 0.0
C18 C 0.09611 0.43725 0.41991 0.0
C19 C 0.94347 0.41062 0.40345 0.0
C20 C 0.01536 0.35909 0.66798 0.0
C21 C 0.05 0.38 0.65321 0.0
C22 C 0.04582 0.41766 0.6327 0.0
C23 C 0.00623 0.43433 0.62608 0.0
C24 C 0.97142 0.4138 0.64152 0.0
C25 C 0.97654 0.37658 0.66253 0.0
C26 C 0.08372 0.43921 0.61734 0.0
C27 C 0.92878 0.43068 0.63499 0.0
C28 C 0.94163 0.75109 0.6653 0.0
C29 C 0.95342 0.72175 0.69919 0.0
C30 C 0.98629 0.66153 0.6651 0.0
C31 C 0.02412 0.64281 0.65678 0.0
C32 C 0.02692 0.60593 0.63435 0.0
C33 C 0.99073 0.58707 0.62014 0.0
C34 C 0.9522 0.60581 0.62833 0.0
C35 C 0.95034 0.64309 0.65049 0.0
C36 C 0.06855 0.58693 0.62609 0.0
C37 C 0.91304 0.58621 0.61388 0.0
C38 C 0.00089 0.53817 0.42898 0.0
C39 C 0.00713 0.49951 0.41037 0.0
C40 C 0.01065 0.46314 0.43263 0.0
C41 C 0.0071 0.465 0.47461 0.0
C42 C 0.00941 0.42878 0.49774 0.0
C43 C 0.0068 0.43088 0.53904 0.0
C44 C 0.00234 0.46934 0.55891 0.0
C45 C 0.00118 0.47183 0.60098 0.0
C46 C 0.99652 0.51048 0.61985 0.0
C47 C 0.99334 0.54709 0.59779 0.0
C48 C 0.99464 0.54528 0.55562 0.0
C49 C 0.99196 0.58148 0.53242 0.0
C50 C 0.99366 0.57927 0.49093 0.0
C51 C 0.9985 0.54083 0.47108 0.0
C52 C 0.00143 0.50401 0.49391 0.0
C53 C 0.99926 0.50621 0.53617 0.0
C54 C 0.06143 0.27275 0.65373 0.0
C55 C 0.0518 0.29684 0.6923 0.0
O56 O 0.99152 0.67038 0.31892 0.0
O57 O 0.98638 0.69715 0.68724 0.0
O58 O 0.01765 0.32207 0.68725 0.0
O59 O 0.04396 0.3054 0.36307 0.0
H60 H 0.93187 0.68942 0.31324 0.0
H61 H 0.93782 0.61819 0.28201 0.0
H62 H 0.976 0.63678 0.24761 0.0
H63 H 0.92377 0.65567 0.24521 0.0
H64 H 0.92655 0.63181 0.35224 0.0
H65 H 0.05752 0.64307 0.35093 0.0
H66 H 0.92062 0.53481 0.39538 0.0
H67 H 0.89204 0.58281 0.39109 0.0
H68 H 0.91786 0.57013 0.43688 0.0
H69 H 0.09985 0.60332 0.39308 0.0
H70 H 0.08205 0.55027 0.39256 0.0
H71 H 0.07586 0.58135 0.43677 0.0
H72 H 0.10287 0.31056 0.34132 0.0
H73 H 0.1291 0.25026 0.38134 0.0
H74 H 0.07855 0.24481 0.40377 0.0
H75 H 0.1079 0.29106 0.41207 0.0
H76 H 0.10102 0.36083 0.38717 0.0
H77 H 0.97243 0.33765 0.37296 0.0
H78 H 0.09358 0.46844 0.40611 0.0
H79 H 0.12646 0.42356 0.41201 0.0
H80 H 0.09451 0.4417 0.45274 0.0
H81 H 0.922 0.38757 0.39046 0.0
H82 H 0.93854 0.44112 0.38884 0.0
H83 H 0.93608 0.41473 0.43561 0.0
H84 H 0.07865 0.31614 0.70064 0.0
H85 H 0.08036 0.36717 0.65718 0.0
H86 H 0.95003 0.36038 0.67417 0.0
H87 H 0.0849 0.43665 0.58434 0.0
H88 H 0.11229 0.42545 0.62948 0.0
H89 H 0.08266 0.47283 0.62524 0.0
H90 H 0.90478 0.41043 0.64806 0.0
H91 H 0.92308 0.43383 0.60254 0.0
H92 H 0.92602 0.46218 0.6486 0.0
H93 H 0.92682 0.70191 0.70719 0.0
H94 H 0.91458 0.77036 0.67391 0.0
H95 H 0.93358 0.7329 0.63823 0.0
H96 H 0.96761 0.77192 0.65785 0.0
H97 H 0.05167 0.65733 0.66808 0.0
H98 H 0.92078 0.65734 0.65625 0.0
H99 H 0.07247 0.58095 0.59363 0.0
H100 H 0.07096 0.55655 0.64145 0.0
H101 H 0.09388 0.6072 0.63644 0.0
H102 H 0.88538 0.60369 0.62406 0.0
H103 H 0.91098 0.55373 0.62475 0.0
H104 H 0.9132 0.58491 0.5808 0.0
H105 H 0.00973 0.49775 0.37813 0.0
H106 H 0.01326 0.3983 0.48422 0.0
H107 H 0.00867 0.40191 0.55519 0.0
H108 H 0.99605 0.51216 0.65217 0.0
H109 H 0.98851 0.61193 0.54611 0.0
H110 H 0.99144 0.60811 0.47458 0.0
H111 H 0.08845 0.25211 0.65794 0.0
H112 H 0.06862 0.29461 0.62923 0.0
H113 H 0.03479 0.25353 0.6447 0.0
C114 C 0.73693 0.10162 0.66283 0.0
C115 C 0.71548 0.06877 0.68837 0.0
C116 C 0.66983 0.02974 0.64346 0.0
C117 C 0.66261 0.99065 0.62644 0.0
C118 C 0.62694 0.98276 0.60453 0.0
C119 C 0.59794 0.01506 0.5991 0.0
C120 C 0.60533 0.05497 0.61552 0.0
C121 C 0.64112 0.06193 0.63758 0.0
C122 C 0.61999 0.93977 0.58757 0.0
C123 C 0.5752 0.0902 0.60997 0.0
C124 C 0.38241 0.90475 0.74748 0.0
C125 C 0.37451 0.94979 0.73501 0.0
C126 C 0.39125 0.95929 0.66584 0.0
C127 C 0.39922 0.00044 0.65539 0.0
C128 C 0.42938 0.0097 0.62679 0.0
C129 C 0.45215 0.9769 0.60867 0.0
C130 C 0.44329 0.93512 0.61858 0.0
C131 C 0.41253 0.9268 0.64688 0.0
C132 C 0.43772 0.05455 0.61676 0.0
C133 C 0.46711 0.89942 0.60015 0.0
C134 C 0.36685 0.94897 0.35365 0.0
C135 C 0.37163 0.99076 0.3652 0.0
C136 C 0.40752 0.00411 0.38426 0.0
C137 C 0.43926 0.97509 0.39179 0.0
C138 C 0.43505 0.93329 0.37891 0.0
C139 C 0.39899 0.92089 0.35962 0.0
C140 C 0.41152 0.04916 0.39654 0.0
C141 C 0.46844 0.90161 0.38602 0.0
C142 C 0.74099 0.10426 0.34979 0.0
C143 C 0.72418 0.06383 0.33211 0.0
C144 C 0.65055 0.05489 0.34024 0.0
C145 C 0.61733 0.08141 0.34777 0.0
C146 C 0.58319 0.06785 0.36973 0.0
C147 C 0.58194 0.02632 0.38347 0.0
C148 C 0.61453 0.99864 0.37389 0.0
C149 C 0.64865 0.01331 0.35254 0.0
C150 C 0.54889 0.09814 0.37902 0.0
C151 C 0.61356 0.95376 0.38671 0.0
C152 C 0.55917 0.00663 0.57753 0.0
C153 C 0.52477 0.99586 0.60014 0.0
C154 C 0.4874 0.98658 0.58207 0.0
C155 C 0.4843 0.98713 0.54001 0.0
C156 C 0.44759 0.9768 0.52068 0.0
C157 C 0.44511 0.97682 0.47923 0.0
C158 C 0.47899 0.98804 0.45552 0.0
C159 C 0.47676 0.98826 0.41337 0.0
C160 C 0.51079 0.00054 0.39082 0.0
C161 C 0.54734 0.01244 0.40915 0.0
C162 C 0.55039 0.01157 0.45122 0.0
C163 C 0.58682 0.02279 0.47068 0.0
C164 C 0.58983 0.02104 0.51199 0.0
C165 C 0.55631 0.00873 0.53554 0.0
C166 C 0.51889 0.99838 0.51669 0.0
C167 C 0.51608 0.99933 0.47444 0.0
C168 C 0.27301 0.90952 0.37022 0.0
C169 C 0.29242 0.94573 0.34752 0.0
O170 O 0.70472 0.03478 0.66503 0.0
O171 O 0.68382 0.07012 0.32079 0.0
O172 O 0.33203 0.93493 0.33614 0.0
O173 O 0.36379 0.95098 0.69512 0.0
H174 H 0.68757 0.08307 0.70206 0.0
H175 H 0.71587 0.11348 0.63967 0.0
H176 H 0.76439 0.08827 0.64761 0.0
H177 H 0.74646 0.12836 0.68175 0.0
H178 H 0.68493 0.96605 0.63087 0.0
H179 H 0.64627 0.0926 0.64995 0.0
H180 H 0.59058 0.92724 0.59908 0.0
H181 H 0.64507 0.91777 0.59516 0.0
H182 H 0.61759 0.94143 0.55462 0.0
H183 H 0.58681 0.12022 0.62187 0.0
H184 H 0.54603 0.08275 0.62549 0.0
H185 H 0.56827 0.0939 0.57782 0.0
H186 H 0.40344 0.9675 0.73976 0.0
H187 H 0.38985 0.90342 0.77973 0.0
H188 H 0.40886 0.8917 0.73046 0.0
H189 H 0.35511 0.88517 0.74164 0.0
H190 H 0.38229 0.02526 0.67024 0.0
H191 H 0.40573 0.89502 0.65506 0.0
H192 H 0.43852 0.05864 0.58392 0.0
H193 H 0.4682 0.06346 0.62846 0.0
H194 H 0.41429 0.07598 0.62979 0.0
H195 H 0.45675 0.86875 0.61133 0.0
H196 H 0.50022 0.90298 0.60674 0.0
H197 H 0.46371 0.89985 0.56725 0.0
H198 H 0.29233 0.97224 0.36907 0.0
H199 H 0.3476 0.0131 0.35899 0.0
H200 H 0.3953 0.88888 0.34996 0.0
H201 H 0.41431 0.05142 0.42945 0.0
H202 H 0.38485 0.06824 0.38713 0.0
H203 H 0.43985 0.06242 0.38334 0.0
H204 H 0.46018 0.87016 0.3748 0.0
H205 H 0.47483 0.89968 0.41843 0.0
H206 H 0.49713 0.91159 0.37097 0.0
H207 H 0.72613 0.0401 0.35607 0.0
H208 H 0.77343 0.09996 0.35881 0.0
H209 H 0.72279 0.11328 0.37663 0.0
H210 H 0.73914 0.12996 0.3279 0.0
H211 H 0.61885 0.11327 0.33751 0.0
H212 H 0.67374 0.99231 0.34529 0.0
H213 H 0.54374 0.1 0.41175 0.0
H214 H 0.52008 0.0869 0.36533 0.0
H215 H 0.55537 0.12986 0.36775 0.0
H216 H 0.63876 0.93511 0.37294 0.0
H217 H 0.58378 0.93951 0.37863 0.0
H218 H 0.61647 0.95218 0.41961 0.0
H219 H 0.52709 0.99477 0.63238 0.0
H220 H 0.42048 0.9682 0.53742 0.0
H221 H 0.41619 0.96814 0.46601 0.0
H222 H 0.50879 0.0009 0.35855 0.0
H223 H 0.6136 0.03276 0.45417 0.0
H224 H 0.61876 0.02966 0.52527 0.0
H225 H 0.27561 0.87995 0.35302 0.0
H226 H 0.2402 0.91622 0.37681 0.0
H227 H 0.28916 0.90518 0.39895 0.0
C228 C 0.77452 0.5694 0.90454 0.0
C229 C 0.75942 0.60356 0.93332 0.0
C230 C 0.7008 0.5824 0.97446 0.0
C231 C 0.68832 0.58013 0.01427 0.0
C232 C 0.64666 0.5782 0.02465 0.0
C233 C 0.61681 0.57752 0.99426 0.0
C234 C 0.62929 0.57835 0.95379 0.0
C235 C 0.67118 0.58089 0.94427 0.0
C236 C 0.6345 0.57725 0.06812 0.0
C237 C 0.59836 0.57672 0.9206 0.0
C238 C 0.37423 0.81719 0.98161 0.0
C239 C 0.40964 0.78872 0.97371 0.0
C240 C 0.44607 0.73307 0.00866 0.0
C241 C 0.45654 0.71041 0.974 0.0
C242 C 0.47654 0.67183 0.97639 0.0
C243 C 0.48804 0.65634 0.01409 0.0
C244 C 0.47943 0.68004 0.04893 0.0
C245 C 0.45787 0.71779 0.04575 0.0
C246 C 0.48538 0.64774 0.93844 0.0
C247 C 0.4928 0.66547 0.0895 0.0
C248 C 0.30902 0.46914 0.11486 0.0
C249 C 0.31325 0.46325 0.07342 0.0
C250 C 0.35223 0.46199 0.05534 0.0
C251 C 0.38756 0.46669 0.07911 0.0
C252 C 0.38337 0.4717 0.12089 0.0
C253 C 0.34412 0.47269 0.13817 0.0
C254 C 0.35576 0.45595 0.01081 0.0
C255 C 0.42041 0.47631 0.14724 0.0
C256 C 0.65438 0.33398 0.99943 0.0
C257 C 0.63822 0.30107 0.02856 0.0
C258 C 0.56652 0.31961 0.02889 0.0
C259 C 0.53986 0.33079 0.99838 0.0
C260 C 0.5123 0.36411 0.00351 0.0
C261 C 0.5114 0.38615 0.0402 0.0
C262 C 0.53552 0.37226 0.07237 0.0
C263 C 0.56281 0.33895 0.06638 0.0
C264 C 0.48622 0.3776 0.96895 0.0
C265 C 0.53441 0.39433 0.11223 0.0
C266 C 0.57256 0.57646 0.00489 0.0
C267 C 0.55106 0.61414 0.00629 0.0
C268 C 0.5095 0.61561 0.01664 0.0
C269 C 0.48885 0.57857 0.02708 0.0
C270 C 0.44732 0.5789 0.03869 0.0
C271 C 0.42772 0.5424 0.05 0.0
C272 C 0.44846 0.50394 0.04878 0.0
C273 C 0.42901 0.46666 0.06055 0.0
C274 C 0.44992 0.42869 0.05703 0.0
C275 C 0.49031 0.42703 0.043 0.0
C276 C 0.51089 0.46416 0.03285 0.0
C277 C 0.55214 0.46368 0.02021 0.0
C278 C 0.5724 0.50037 0.01111 0.0
C279 C 0.55211 0.53896 0.01379 0.0
C280 C 0.51028 0.54012 0.02553 0.0
C281 C 0.48981 0.5027 0.0356 0.0
C282 C 0.20495 0.49777 0.14562 0.0
C283 C 0.23395 0.47602 0.11604 0.0
O284 O 0.74157 0.58553 0.96653 0.0
O285 O 0.59747 0.29245 0.02067 0.0
O286 O 0.27199 0.47143 0.13362 0.0
O287 O 0.4241 0.76916 0.00764 0.0
H288 H 0.73669 0.62273 0.91687 0.0
H289 H 0.74806 0.55123 0.89341 0.0
H290 H 0.79563 0.54758 0.91981 0.0
H291 H 0.79027 0.58335 0.87842 0.0
H292 H 0.71143 0.58082 0.03731 0.0
H293 H 0.68053 0.58123 0.91327 0.0
H294 H 0.61257 0.60293 0.07489 0.0
H295 H 0.66131 0.58022 0.08816 0.0
H296 H 0.61875 0.54752 0.07468 0.0
H297 H 0.61308 0.57296 0.89082 0.0
H298 H 0.58017 0.60597 0.92079 0.0
H299 H 0.57677 0.55059 0.92534 0.0
H300 H 0.43479 0.80165 0.95494 0.0
H301 H 0.38594 0.84914 0.97426 0.0
H302 H 0.37325 0.823 0.01479 0.0
H303 H 0.32581 0.78916 0.95059 0.0
H304 H 0.44884 0.72229 0.94491 0.0
H305 H 0.45012 0.73565 0.07232 0.0
H306 H 0.47735 0.61443 0.942 0.0
H307 H 0.51862 0.64949 0.93159 0.0
H308 H 0.46828 0.66034 0.91263 0.0
H309 H 0.48919 0.6902 0.11261 0.0
H310 H 0.52536 0.65527 0.08852 0.0
H311 H 0.4741 0.63835 0.09852 0.0
H312 H 0.23652 0.49684 0.08975 0.0
H313 H 0.28638 0.45948 0.05506 0.0
H314 H 0.34059 0.4768 0.17012 0.0
H315 H 0.37152 0.48309 0.99747 0.0
H316 H 0.32541 0.45228 0.99644 0.0
H317 H 0.37473 0.42794 0.00408 0.0
H318 H 0.41196 0.47969 0.17925 0.0
H319 H 0.43824 0.50402 0.1381 0.0
H320 H 0.44071 0.44868 0.1436 0.0
H321 H 0.64141 0.31484 0.0589 0.0
H322 H 0.68806 0.33765 0.00252 0.0
H323 H 0.6397 0.36455 0.0061 0.0
H324 H 0.64703 0.32554 0.96813 0.0
H325 H 0.54255 0.31514 0.96973 0.0
H326 H 0.58215 0.32895 0.09062 0.0
H327 H 0.49746 0.4079 0.95769 0.0
H328 H 0.45397 0.38217 0.9789 0.0
H329 H 0.487 0.3546 0.94404 0.0
H330 H 0.55217 0.37744 0.13521 0.0
H331 H 0.50224 0.39791 0.12272 0.0
H332 H 0.54741 0.426 0.109 0.0
H333 H 0.5668 0.64273 0.99877 0.0
H334 H 0.42963 0.60747 0.03974 0.0
H335 H 0.39596 0.54466 0.05936 0.0
H336 H 0.43482 0.40019 0.06591 0.0
H337 H 0.56946 0.43496 0.01751 0.0
H338 H 0.60418 0.49807 0.00181 0.0
H339 H 0.17426 0.5022 0.1321 0.0
H340 H 0.21729 0.52884 0.15369 0.0
H341 H 0.20162 0.47926 0.17329 0.0
Zn342 Zn 0.11906 0.12051 0.98283 0.0
Zn343 Zn 0.0829 0.11156 0.07302 0.0
O344 O 0.09538 0.0798 0.02267 0.0
H345 H 0.08474 0.05275 0.01566 0.0
C346 C 0.98536 0.11499 0.92795 0.0
O347 O 0.99963 0.12572 0.96307 0.0
Zn348 Zn 0.95881 0.91733 0.05677 0.0
Zn349 Zn 0.95497 0.92294 0.95979 0.0
O350 O 0.95342 0.95676 0.01093 0.0
H351 H 0.95204 0.98675 0.01196 0.0
Zn352 Zn 0.93607 0.06336 0.97915 0.0
O353 O 0.97559 0.06522 0.02544 0.0
Zn354 Zn 0.93974 0.06113 0.07364 0.0
H355 H 0.00456 0.05931 0.02334 0.0
Zn356 Zn 0.07784 0.96732 0.97225 0.0
O357 O 0.05207 0.97596 0.02644 0.0
H358 H 0.02616 0.98971 0.03134 0.0
Zn359 Zn 0.09538 0.96834 0.06745 0.0
C360 C 0.04343 0.89574 0.93386 0.0
O361 O 0.0632 0.87878 0.96366 0.0
O362 O 0.12829 0.17915 0.00636 0.0
O363 O 0.10156 0.17206 0.06718 0.0
O364 O 0.94648 0.86097 0.97096 0.0
O365 O 0.94484 0.85821 0.03739 0.0
O366 O 0.87753 0.08134 0.99553 0.0
O367 O 0.88378 0.08584 0.06148 0.0
C368 C 0.11841 0.04659 0.11839 0.0
O369 O 0.13805 0.9487 0.97616 0.0
O370 O 0.148 0.94608 0.04173 0.0
O371 O 0.92311 0.94576 0.91089 0.0
C372 C 0.11919 0.19413 0.04062 0.0
O373 O 0.15987 0.09851 0.93948 0.0
C374 C 0.9142 0.97453 0.10648 0.0
O375 O 0.95765 0.08743 0.92596 0.0
C376 C 0.94173 0.8407 0.00314 0.0
O377 O 0.04373 0.93509 0.93043 0.0
C378 C 0.00192 0.1074 0.11716 0.0
O379 O 0.11407 0.08589 0.11833 0.0
O380 O 0.10343 0.02614 0.08944 0.0
C381 C 0.86282 0.09051 0.0298 0.0
O382 O 0.91945 0.93577 0.10032 0.0
O383 O 0.93435 -0.00044 0.0847 0.0
C384 C 0.03911 0.91255 0.10657 0.0
O385 O 0.96592 0.0925 0.11946 0.0
O386 O 0.02232 0.10273 0.08492 0.0
C387 C 0.16075 0.94071 0.00593 0.0
O388 O 0.07493 0.92789 0.10909 0.0
O389 O 0.01678 0.92384 0.07755 0.0
C390 C 0.89994 0.97753 0.91421 0.0
O391 O 0.89681 0.99654 0.94889 0.0
C392 C 0.15711 0.0619 0.92514 0.0
O393 O 0.12752 0.03763 0.93771 0.0
H394 H 0.0608 0.3073 0.27769 0.0
H395 H 0.08266 0.19853 0.34981 0.0
H396 H 0.04454 0.26256 0.22127 0.0
H397 H 0.06843 0.1541 0.29303 0.0
H398 H 0.99112 0.08949 0.19578 0.0
H399 H 0.01297 0.13099 0.25306 0.0
H400 H 0.07279 0.21701 0.1734 0.0
H401 H 0.04784 0.17712 0.11663 0.0
C402 C 0.06282 0.27387 0.2813 0.0
C403 C 0.0736 0.25695 0.31827 0.0
C404 C 0.05379 0.24815 0.24888 0.0
C405 C 0.05553 0.20459 0.2524 0.0
C406 C 0.06642 0.18749 0.28931 0.0
C407 C 0.075 0.21326 0.32196 0.0
C408 C 0.00939 0.11704 0.19073 0.0
C409 C 0.01916 0.12948 0.1518 0.0
C410 C 0.02217 0.14068 0.2235 0.0
C411 C 0.04483 0.17738 0.21793 0.0
C412 C 0.05525 0.18911 0.17887 0.0
C413 C 0.04212 0.16565 0.14624 0.0
H414 H 0.7781 0.99832 0.32757 0.0
H415 H 0.72925 0.09878 0.25738 0.0
H416 H 0.82283 0.97782 0.27219 0.0
H417 H 0.77403 0.07816 0.2016 0.0
H418 H 0.89645 0.05466 0.13183 0.0
H419 H 0.84884 0.0763 0.18455 0.0
H420 H 0.81757 0.94778 0.20486 0.0
H421 H 0.86492 0.92622 0.15239 0.0
C422 C 0.77664 0.01572 0.30009 0.0
C423 C 0.7499 0.04987 0.29665 0.0
C424 C 0.8022 0.00398 0.26834 0.0
C425 C 0.80189 0.0263 0.23245 0.0
C426 C 0.77519 0.06054 0.22896 0.0
C427 C 0.74937 0.07214 0.26071 0.0
C428 C 0.87918 0.0311 0.14715 0.0
C429 C 0.88459 0.98876 0.1376 0.0
C430 C 0.85179 0.04349 0.1774 0.0
C431 C 0.82953 0.01372 0.199 0.0
C432 C 0.83465 0.97146 0.18916 0.0
C433 C 0.86174 0.95916 0.15889 0.0
H434 H 0.9101 0.74674 0.27174 0.0
H435 H 0.03405 0.70023 0.26097 0.0
H436 H 0.92766 0.80535 0.22872 0.0
H437 H 0.05156 0.75841 0.21803 0.0
H438 H 0.0802 0.88701 0.17249 0.0
H439 H 0.06006 0.83439 0.22037 0.0
H440 H 0.94621 0.81666 0.15778 0.0
H441 H 0.96623 0.86962 0.11003 0.0
C442 C 0.94122 0.74944 0.26064 0.0
C443 C 0.97095 0.71951 0.27055 0.0
C444 C 0.95117 0.78272 0.23577 0.0
C445 C 0.99107 0.78668 0.22021 0.0
C446 C 0.02077 0.75673 0.23017 0.0
C447 C 0.01077 0.7234 0.25478 0.0
C448 C 0.0507 0.87217 0.16896 0.0
C449 C 0.0249 0.88253 0.13705 0.0
C450 C 0.03927 0.84183 0.19639 0.0
C451 C 0.00169 0.82111 0.19273 0.0
C452 C 0.97526 0.8323 0.16163 0.0
C453 C 0.98681 0.86262 0.13406 0.0
H454 H 0.2731 0.02416 0.32319 0.0
H455 H 0.25823 0.89559 0.28823 0.0
H456 H 0.23149 0.04568 0.26716 0.0
H457 H 0.21421 0.91681 0.2336 0.0
H458 H 0.16488 0.97493 0.11725 0.0
H459 H 0.20842 0.94896 0.17087 0.0
H460 H 0.16303 0.04727 0.24845 0.0
H461 H 0.12169 0.07401 0.19452 0.0
C462 C 0.26043 0.00044 0.30382 0.0
C463 C 0.26772 0.95813 0.31123 0.0
C464 C 0.23621 0.01271 0.2718 0.0
C465 C 0.21828 0.98298 0.24632 0.0
C466 C 0.2272 0.94065 0.25258 0.0
C467 C 0.25208 0.92841 0.28433 0.0
C468 C 0.16409 0.99056 0.14594 0.0
C469 C 0.14037 0.02672 0.15161 0.0
C470 C 0.18899 0.97574 0.17675 0.0
C471 C 0.19007 0.99649 0.21395 0.0
C472 C 0.16433 0.03127 0.21994 0.0
C473 C 0.14021 0.04641 0.1891 0.0
H474 H 0.03039 0.73599 0.73215 0.0
H475 H 0.90185 0.76495 0.74941 0.0
H476 H 0.04683 0.77617 0.79156 0.0
H477 H 0.91904 0.80683 0.80848 0.0
H478 H 0.99373 0.91984 0.87264 0.0
H479 H 0.96778 0.87634 0.81822 0.0
H480 H 0.02571 0.76872 0.86987 0.0
H481 H 0.05066 0.81163 0.92487 0.0
C482 C 0.00551 0.75067 0.7486 0.0
C483 C 0.96453 0.74671 0.7362 0.0
C484 C 0.01506 0.77371 0.78267 0.0
C485 C 0.98414 0.79421 0.80457 0.0
C486 C 0.94334 0.79113 0.79201 0.0
C487 C 0.93359 0.76725 0.75835 0.0
C488 C 1.0003 0.88678 0.87278 0.0
C489 C 0.02447 0.86922 0.90292 0.0
C490 C 0.98538 0.86196 0.84172 0.0
C491 C 0.9951 0.8194 0.8399 0.0
C492 C 0.01811 0.80159 0.8706 0.0
C493 C 0.03231 0.82617 0.90203 0.0
H494 H 0.38246 0.00428 0.79765 0.0
H495 H 0.29112 0.93693 0.73121 0.0
H496 H 0.32929 0.03169 0.8422 0.0
H497 H 0.23755 0.9649 0.77544 0.0
H498 H 0.16262 0.98417 0.89153 0.0
H499 H 0.21423 0.95823 0.84446 0.0
H500 H 0.27125 0.07925 0.8435 0.0
H501 H 0.22036 0.10487 0.89129 0.0
C502 C 0.35087 0.99587 0.79225 0.0
C503 C 0.34086 0.96898 0.76061 0.0
C504 C 0.32037 0.01163 0.8177 0.0
C505 C 0.27911 0.00063 0.81232 0.0
C506 C 0.26906 0.97373 0.78061 0.0
C507 C 0.29962 0.95802 0.75507 0.0
C508 C 0.18614 0.00526 0.88124 0.0
C509 C 0.18749 0.04652 0.89537 0.0
C510 C 0.21557 0.99046 0.85403 0.0
C511 C 0.24693 0.01665 0.84022 0.0
C512 C 0.24788 0.05808 0.85396 0.0
C513 C 0.21855 0.07283 0.88122 0.0
H514 H 0.10594 0.26781 0.74777 0.0
H515 H 0.98004 0.25617 0.71087 0.0
H516 H 0.09321 0.21966 0.80239 0.0
H517 H 0.96676 0.20929 0.76618 0.0
H518 H 0.96171 0.10125 0.85083 0.0
H519 H 0.98046 0.1414 0.79214 0.0
H520 H 0.05739 0.21984 0.86501 0.0
H521 H 0.03969 0.17902 0.92328 0.0
C522 C 0.07546 0.25521 0.75163 0.0
C523 C 0.0437 0.26667 0.72582 0.0
C524 C 0.06811 0.22773 0.78292 0.0
C525 C 0.02885 0.21094 0.78897 0.0
C526 C 0.99744 0.22136 0.76227 0.0
C527 C 0.00487 0.24864 0.73087 0.0
C528 C 0.98295 0.12681 0.85421 0.0
C529 C 0.99897 0.13715 0.89177 0.0
C530 C 0.99349 0.14999 0.82062 0.0
C531 C 0.02017 0.18408 0.82388 0.0
C532 C 0.03712 0.19354 0.86128 0.0
C533 C 0.02673 0.17028 0.8948 0.0
H534 H 0.7878 0.02441 0.68247 0.0
H535 H 0.70611 0.08107 0.76909 0.0
H536 H 0.83406 0.00396 0.7358 0.0
H537 H 0.75109 0.05899 0.82261 0.0
H538 H 0.85773 0.05065 0.90727 0.0
H539 H 0.81484 0.07297 0.85226 0.0
H540 H 0.84168 0.95777 0.78964 0.0
H541 H 0.88594 0.93634 0.84399 0.0
C542 C 0.77966 0.03221 0.71299 0.0
C543 C 0.74341 0.05448 0.72157 0.0
C544 C 0.80598 0.02024 0.74363 0.0
C545 C 0.79649 0.02987 0.78367 0.0
C546 C 0.75992 0.05172 0.79217 0.0
C547 C 0.73386 0.06405 0.76151 0.0
C548 C 0.85462 0.03019 0.88165 0.0
C549 C 0.87513 0.99167 0.88006 0.0
C550 C 0.82976 0.04285 0.85017 0.0
C551 C 0.82438 0.01708 0.81649 0.0
C552 C 0.84542 0.97874 0.81476 0.0
C553 C 0.87067 0.9663 0.84607 0.0
H554 H 0.23464 0.40287 0.15829 0.0
H555 H 0.1931 0.45551 0.04767 0.0
H556 H 0.20474 0.33598 0.1397 0.0
H557 H 0.16244 0.38891 0.02923 0.0
H558 H 0.15638 0.25068 0.99184 0.0
H559 H 0.18325 0.3187 0.00993 0.0
H560 H 0.13811 0.30335 0.13026 0.0
H561 H 0.11192 0.23484 0.11241 0.0
C562 C 0.21924 0.39998 0.12991 0.0
C563 C 0.21676 0.4341 0.10407 0.0
C564 C 0.20174 0.36186 0.11942 0.0
C565 C 0.18118 0.3571 0.08296 0.0
C566 C 0.17854 0.39136 0.05727 0.0
C567 C 0.196 0.42949 0.0678 0.0
C568 C 0.15186 0.26187 0.0221 0.0
C569 C 0.13206 0.23713 0.05071 0.0
C570 C 0.16715 0.30101 0.03242 0.0
C571 C 0.16305 0.31638 0.07159 0.0
C572 C 0.14235 0.29213 0.09997 0.0
C573 C 0.127 0.25299 0.08964 0.0
H574 H 0.3476 0.72835 0.01429 0.0
H575 H 0.38915 0.80852 0.88829 0.0
H576 H 0.28763 0.79258 0.03147 0.0
H577 H 0.32838 0.87074 0.90858 0.0
H578 H 0.1993 0.92839 0.93428 0.0
H579 H 0.25906 0.8855 0.92061 0.0
H580 H 0.27407 0.86468 0.04676 0.0
H581 H 0.21336 0.90716 0.06059 0.0
C582 C 0.34298 0.75404 0.99413 0.0
C583 C 0.37979 0.76583 0.95319 0.0
C584 C 0.30742 0.79537 0.00565 0.0
C585 C 0.30341 0.84029 0.97373 0.0
C586 C 0.33261 0.84432 0.92789 0.0
C587 C 0.36905 0.80465 0.91376 0.0
C588 C 0.21567 0.91532 0.95924 0.0
C589 C 0.20112 0.92076 0.9985 0.0
C590 C 0.25028 0.89087 0.95138 0.0
C591 C 0.27108 0.87131 0.98259 0.0
C592 C 0.25813 0.87871 0.02202 0.0
C593 C 0.22352 0.90334 0.02996 0.0
H594 H 0.67571 0.26006 0.96398 0.0
H595 H 0.65463 0.24993 0.09077 0.0
H596 H 0.72353 0.20233 0.96628 0.0
H597 H 0.70039 0.18987 0.09274 0.0
H598 H 0.83188 0.1371 0.09129 0.0
H599 H 0.77106 0.18063 0.09094 0.0
H600 H 0.7398 0.13243 0.97431 0.0
H601 H 0.80222 0.09049 0.97389 0.0
C602 C 0.68098 0.24533 0.99237 0.0
C603 C 0.66314 0.26114 0.02769 0.0
C604 C 0.70802 0.21153 0.9936 0.0
C605 C 0.71676 0.19184 0.02994 0.0
C606 C 0.69565 0.20515 0.06449 0.0
C607 C 0.66924 0.23943 0.06336 0.0
C608 C 0.81171 0.13529 0.06583 0.0
C609 C 0.8222 0.1109 0.03235 0.0
C610 C 0.7765 0.16011 0.06569 0.0
C611 C 0.75052 0.16058 0.03236 0.0
C612 C 0.75958 0.13378 1.00006 0.0
C613 C 0.79522 0.10949 0.99991 0.0
H614 H 0.84617 0.59861 0.92721 0.0
H615 H 0.74727 0.67601 0.97272 0.0
H616 H 0.89556 0.64992 0.94969 0.0
H617 H 0.79713 0.72705 0.99562 0.0
H618 H 0.89565 0.79836 0.05758 0.0
H619 H 0.85567 0.73554 0.04487 0.0
H620 H 0.91094 0.72416 0.92796 0.0
H621 H 0.95067 0.78691 0.94044 0.0
C622 C 0.83468 0.62638 0.94194 0.0
C623 C 0.79229 0.63353 0.94739 0.0
C624 C 0.86324 0.65575 0.95499 0.0
C625 C 0.85022 0.69235 0.97449 0.0
C626 C 0.80813 0.69885 0.98113 0.0
C627 C 0.77959 0.66985 0.96768 0.0
C628 C 0.90019 0.78174 0.02966 0.0
C629 C 0.92596 0.79778 0.99984 0.0
C630 C 0.87704 0.74602 0.02227 0.0
C631 C 0.87982 0.72537 0.98524 0.0
C632 C 0.90823 0.73939 0.95679 0.0
C633 C 0.9309 0.77538 0.96393 0.0
loop_
_geom_bond_atom_site_label_1
_geom_bond_atom_site_label_2
_geom_bond_distance
_geom_bond_site_symmetry_2
_ccdc_geom_bond_type
C0 C1 1.560 . S
C0 H61 0.959 . S
C0 H62 0.959 . S
C0 H63 0.960 . S
C1 C0 1.560 . S
C1 O56 1.426 . S
C1 H60 0.980 . S
C2 C3 1.385 1_455 S
C2 C7 1.418 . S
C2 O56 1.334 . S
C3 C2 1.385 1_655 S
C3 C4 1.367 . S
C3 H64 0.943 . S
C4 C3 1.367 . S
C4 C5 1.401 1_655 S
C4 C8 1.527 . S
C5 C4 1.401 1_455 S
C5 C6 1.405 . S
C5 C38 1.587 1_455 S
C6 C5 1.405 . S
C6 C7 1.332 . S
C6 C9 1.496 . S
C7 C2 1.418 . S
C7 C6 1.332 . S
C7 H65 0.929 . S
C8 C4 1.527 . S
C8 H66 0.959 . S
C8 H67 0.961 . S
C8 H68 0.961 . S
C9 C6 1.496 . S
C9 H69 0.960 . S
C9 H70 0.960 . S
C9 H71 0.961 . S
C10 C11 1.517 . S
C10 H73 0.961 1_655 S
C10 H74 0.960 . S
C10 H75 0.959 . S
C11 C10 1.517 . S
C11 O59 1.468 . S
C11 H72 0.980 1_655 S
C12 C13 1.349 1_655 S
C12 C17 1.367 . S
C12 O59 1.408 . S
C13 C12 1.349 1_455 S
C13 C14 1.407 . S
C13 H76 0.930 . S
C14 C13 1.407 . S
C14 C15 1.449 1_455 S
C14 C18 1.535 . S
C15 C14 1.449 1_655 S
C15 C16 1.384 . S
C15 C40 1.553 . S
C16 C15 1.384 . S
C16 C17 1.364 . S
C16 C19 1.450 . S
C17 C12 1.367 . S
C17 C16 1.364 . S
C17 H77 0.931 . S
C18 C14 1.535 . S
C18 H78 0.959 . S
C18 H79 0.961 . S
C18 H80 0.959 . S
C19 C16 1.450 . S
C19 H81 0.960 . S
C19 H82 0.960 . S
C19 H83 0.960 . S
C20 C21 1.309 1_655 S
C20 C25 1.304 . S
C20 O58 1.435 . S
C21 C20 1.309 1_455 S
C21 C22 1.476 . S
C21 H85 0.930 . S
C22 C21 1.476 . S
C22 C23 1.400 1_455 S
C22 C26 1.567 . S
C23 C22 1.400 1_655 S
C23 C24 1.373 . S
C23 C45 1.432 . S
C24 C23 1.373 . S
C24 C25 1.339 . S
C24 C27 1.530 . S
C25 C20 1.304 . S
C25 C24 1.339 . S
C25 H86 0.930 . S
C26 C22 1.567 . S
C26 H87 0.961 . S
C26 H88 0.960 . S
C26 H89 0.958 . S
C27 C24 1.530 . S
C27 H90 0.961 . S
C27 H91 0.960 . S
C27 H92 0.960 . S
C28 C29 1.530 . S
C28 H94 0.961 . S
C28 H95 0.961 . S
C28 H96 0.959 . S
C29 C28 1.530 . S
C29 O57 1.412 . S
C29 H93 0.980 . S
C30 C31 1.288 . S
C30 C35 1.366 1_455 S
C30 O57 1.393 . S
C31 C30 1.288 . S
C31 C32 1.369 . S
C31 H97 0.932 . S
C32 C31 1.369 . S
C32 C33 1.398 . S
C32 C36 1.527 . S
C33 C32 1.398 . S
C33 C34 1.380 1_455 S
C33 C47 1.497 . S
C34 C33 1.380 1_655 S
C34 C35 1.386 . S
C34 C37 1.603 . S
C35 C30 1.366 1_655 S
C35 C34 1.386 . S
C35 H98 0.936 . S
C36 C32 1.527 . S
C36 H99 0.961 . S
C36 H100 0.959 . S
C36 H101 0.959 . S
C37 C34 1.603 . S
C37 H102 0.960 . S
C37 H103 0.962 . S
C37 H104 0.961 . S
C38 C5 1.587 1_655 S
C38 C39 1.360 . S
C38 C51 1.412 . S
C39 C38 1.360 . S
C39 C40 1.365 . S
C39 H105 0.929 . S
C40 C15 1.553 . S
C40 C39 1.365 . S
C40 C41 1.404 . S
C41 C40 1.404 . S
C41 C42 1.395 . S
C41 C52 1.451 . S
C42 C41 1.395 . S
C42 C43 1.322 . S
C42 H106 0.930 . S
C43 C42 1.322 . S
C43 C44 1.459 . S
C43 H107 0.929 . S
C44 C43 1.459 . S
C44 C45 1.445 . S
C44 C53 1.395 . S
C45 C23 1.432 . S
C45 C44 1.445 . S
C45 C46 1.370 1_655 S
C46 C45 1.370 1_455 S
C46 C47 1.438 . S
C46 H108 0.930 . S
C47 C33 1.497 . S
C47 C46 1.438 . S
C47 C48 1.360 . S
C48 C47 1.360 . S
C48 C49 1.401 . S
C48 C53 1.446 1_455 S
C49 C48 1.401 . S
C49 C50 1.347 . S
C49 H109 0.929 . S
C50 C49 1.347 . S
C50 C51 1.455 1_455 S
C50 H110 0.930 . S
C51 C38 1.412 . S
C51 C50 1.455 1_655 S
C51 C52 1.331 . S
C52 C41 1.451 . S
C52 C51 1.331 . S
C52 C53 1.497 . S
C53 C44 1.395 . S
C53 C48 1.446 1_655 S
C53 C52 1.497 . S
C54 C55 1.582 1_655 S
C54 H111 0.955 1_655 S
C54 H112 0.959 . S
C54 H113 0.958 . S
C55 C54 1.582 1_455 S
C55 O58 1.458 1_455 S
C55 H84 0.980 . S
O56 C1 1.426 . S
O56 C2 1.334 . S
O57 C29 1.412 . S
O57 C30 1.393 . S
O58 C20 1.435 . S
O58 C55 1.458 1_655 S
O59 C11 1.468 . S
O59 C12 1.408 . S
H60 C1 0.980 . S
H61 C0 0.959 . S
H62 C0 0.959 . S
H63 C0 0.960 . S
H64 C3 0.943 . S
H65 C7 0.929 . S
H66 C8 0.959 . S
H67 C8 0.961 . S
H68 C8 0.961 . S
H69 C9 0.960 . S
H70 C9 0.960 . S
H71 C9 0.961 . S
H72 C11 0.980 1_455 S
H73 C10 0.961 1_455 S
H74 C10 0.960 . S
H75 C10 0.959 . S
H76 C13 0.930 . S
H77 C17 0.931 . S
H78 C18 0.959 . S
H79 C18 0.961 . S
H80 C18 0.959 . S
H81 C19 0.960 . S
H82 C19 0.960 . S
H83 C19 0.960 . S
H84 C55 0.980 . S
H85 C21 0.930 . S
H86 C25 0.930 . S
H87 C26 0.961 . S
H88 C26 0.960 . S
H89 C26 0.958 . S
H90 C27 0.961 . S
H91 C27 0.960 . S
H92 C27 0.960 . S
H93 C29 0.980 . S
H94 C28 0.961 . S
H95 C28 0.961 . S
H96 C28 0.959 . S
H97 C31 0.932 . S
H98 C35 0.936 . S
H99 C36 0.961 . S
H100 C36 0.959 . S
H101 C36 0.959 . S
H102 C37 0.960 . S
H103 C37 0.962 . S
H104 C37 0.961 . S
H105 C39 0.929 . S
H106 C42 0.930 . S
H107 C43 0.929 . S
H108 C46 0.930 . S
H109 C49 0.929 . S
H110 C50 0.930 . S
H111 C54 0.955 1_455 S
H112 C54 0.959 . S
H113 C54 0.958 . S
C114 C115 1.560 . S
C114 H175 0.959 . S
C114 H176 0.959 . S
C114 H177 0.960 . S
C115 C114 1.560 . S
C115 O170 1.426 . S
C115 H174 0.980 . S
C116 C117 1.407 1_545 S
C116 C121 1.418 . S
C116 O170 1.334 . S
C117 C116 1.407 1_565 S
C117 C118 1.360 . S
C117 H178 0.929 . S
C118 C117 1.360 . S
C118 C119 1.401 1_565 S
C118 C122 1.527 . S
C119 C118 1.401 1_545 S
C119 C120 1.405 . S
C119 C152 1.587 1_545 S
C120 C119 1.405 . S
C120 C121 1.332 . S
C120 C123 1.496 . S
C121 C116 1.418 . S
C121 C120 1.332 . S
C121 H179 0.929 . S
C122 C118 1.527 . S
C122 H180 0.959 . S
C122 H181 0.961 . S
C122 H182 0.961 . S
C123 C120 1.496 . S
C123 H183 0.960 . S
C123 H184 0.960 . S
C123 H185 0.961 . S
C124 C125 1.517 . S
C124 H187 0.961 1_565 S
C124 H188 0.960 . S
C124 H189 0.959 . S
C125 C124 1.517 . S
C125 O173 1.468 . S
C125 H186 0.980 1_565 S
C126 C127 1.347 1_565 S
C126 C131 1.367 . S
C126 O173 1.408 . S
C127 C126 1.347 1_545 S
C127 C128 1.408 . S
C127 H190 0.932 . S
C128 C127 1.408 . S
C128 C129 1.449 1_545 S
C128 C132 1.535 . S
C129 C128 1.449 1_565 S
C129 C130 1.384 . S
C129 C154 1.553 . S
C130 C129 1.384 . S
C130 C131 1.364 . S
C130 C133 1.450 . S
C131 C126 1.367 . S
C131 C130 1.364 . S
C131 H191 0.931 . S
C132 C128 1.535 . S
C132 H192 0.959 . S
C132 H193 0.961 . S
C132 H194 0.959 . S
C133 C130 1.450 . S
C133 H195 0.960 . S
C133 H196 0.960 . S
C133 H197 0.960 . S
C134 C135 1.309 1_565 S
C134 C139 1.304 . S
C134 O172 1.435 . S
C135 C134 1.309 1_545 S
C135 C136 1.476 . S
C135 H199 0.930 . S
C136 C135 1.476 . S
C136 C137 1.400 1_545 S
C136 C140 1.567 . S
C137 C136 1.400 1_565 S
C137 C138 1.373 . S
C137 C159 1.432 . S
C138 C137 1.373 . S
C138 C139 1.339 . S
C138 C141 1.530 . S
C139 C134 1.304 . S
C139 C138 1.339 . S
C139 H200 0.930 . S
C140 C136 1.567 . S
C140 H201 0.961 . S
C140 H202 0.960 . S
C140 H203 0.958 . S
C141 C138 1.530 . S
C141 H204 0.961 . S
C141 H205 0.960 . S
C141 H206 0.960 . S
C142 C143 1.530 . S
C142 H208 0.961 . S
C142 H209 0.961 . S
C142 H210 0.959 . S
C143 C142 1.530 . S
C143 O171 1.412 . S
C143 H207 0.980 . S
C144 C145 1.288 . S
C144 C149 1.377 1_545 S
C144 O171 1.393 . S
C145 C144 1.288 . S
C145 C146 1.369 . S
C145 H211 0.932 . S
C146 C145 1.369 . S
C146 C147 1.398 . S
C146 C150 1.527 . S
C147 C146 1.398 . S
C147 C148 1.380 1_545 S
C147 C161 1.497 . S
C148 C147 1.380 1_565 S
C148 C149 1.383 . S
C148 C151 1.603 . S
C149 C144 1.377 1_565 S
C149 C148 1.383 . S
C149 H212 0.929 . S
C150 C146 1.527 . S
C150 H213 0.961 . S
C150 H214 0.959 . S
C150 H215 0.959 . S
C151 C148 1.603 . S
C151 H216 0.960 . S
C151 H217 0.962 . S
C151 H218 0.961 . S
C152 C119 1.587 1_565 S
C152 C153 1.360 . S
C152 C165 1.412 . S
C153 C152 1.360 . S
C153 C154 1.365 . S
C153 H219 0.929 . S
C154 C129 1.553 . S
C154 C153 1.365 . S
C154 C155 1.404 . S
C155 C154 1.404 . S
C155 C156 1.395 . S
C155 C166 1.451 . S
C156 C155 1.395 . S
C156 C157 1.322 . S
C156 H220 0.930 . S
C157 C156 1.322 . S
C157 C158 1.459 . S
C157 H221 0.929 . S
C158 C157 1.459 . S
C158 C159 1.445 . S
C158 C167 1.395 . S
C159 C137 1.432 . S
C159 C158 1.445 . S
C159 C160 1.370 . S
C160 C159 1.370 . S
C160 C161 1.438 1_565 S
C160 H222 0.932 . S
C161 C147 1.497 . S
C161 C160 1.438 1_545 S
C161 C162 1.360 1_545 S
C162 C161 1.360 1_565 S
C162 C163 1.401 1_565 S
C162 C167 1.446 . S
C163 C162 1.401 1_545 S
C163 C164 1.347 . S
C163 H223 0.929 . S
C164 C163 1.347 . S
C164 C165 1.455 1_545 S
C164 H224 0.930 . S
C165 C152 1.412 . S
C165 C164 1.455 1_565 S
C165 C166 1.331 . S
C166 C155 1.451 . S
C166 C165 1.331 . S
C166 C167 1.497 . S
C167 C158 1.395 . S
C167 C162 1.446 . S
C167 C166 1.497 . S
C168 C169 1.582 1_565 S
C168 H225 0.962 . S
C168 H226 0.959 . S
C168 H227 0.958 . S
C169 C168 1.582 1_545 S
C169 O172 1.458 1_545 S
C169 H198 0.980 . S
O170 C115 1.426 . S
O170 C116 1.334 . S
O171 C143 1.412 . S
O171 C144 1.393 . S
O172 C134 1.435 . S
O172 C169 1.458 1_565 S
O173 C125 1.468 . S
O173 C126 1.408 . S
H174 C115 0.980 . S
H175 C114 0.959 . S
H176 C114 0.959 . S
H177 C114 0.960 . S
H178 C117 0.929 . S
H179 C121 0.929 . S
H180 C122 0.959 . S
H181 C122 0.961 . S
H182 C122 0.961 . S
H183 C123 0.960 . S
H184 C123 0.960 . S
H185 C123 0.961 . S
H186 C125 0.980 1_545 S
H187 C124 0.961 1_545 S
H188 C124 0.960 . S
H189 C124 0.959 . S
H190 C127 0.932 . S
H191 C131 0.931 . S
H192 C132 0.959 . S
H193 C132 0.961 . S
H194 C132 0.959 . S
H195 C133 0.960 . S
H196 C133 0.960 . S
H197 C133 0.960 . S
H198 C169 0.980 . S
H199 C135 0.930 . S
H200 C139 0.930 . S
H201 C140 0.961 . S
H202 C140 0.960 . S
H203 C140 0.958 . S
H204 C141 0.961 . S
H205 C141 0.960 . S
H206 C141 0.960 . S
H207 C143 0.980 . S
H208 C142 0.961 . S
H209 C142 0.961 . S
H210 C142 0.959 . S
H211 C145 0.932 . S
H212 C149 0.929 . S
H213 C150 0.961 . S
H214 C150 0.959 . S
H215 C150 0.959 . S
H216 C151 0.960 . S
H217 C151 0.962 . S
H218 C151 0.961 . S
H219 C153 0.929 . S
H220 C156 0.930 . S
H221 C157 0.929 . S
H222 C160 0.932 . S
H223 C163 0.929 . S
H224 C164 0.930 . S
H225 C168 0.962 . S
H226 C168 0.959 . S
H227 C168 0.958 . S
C228 C229 1.560 . S
C228 H289 0.959 . S
C228 H290 0.959 . S
C228 H291 0.960 . S
C229 C228 1.560 . S
C229 O284 1.426 . S
C229 H288 0.980 1_556 S
C230 C231 1.407 1_556 S
C230 C235 1.418 . S
C230 O284 1.334 . S
C231 C230 1.407 1_554 S
C231 C232 1.360 . S
C231 H292 0.929 . S
C232 C231 1.360 . S
C232 C233 1.401 . S
C232 C236 1.527 . S
C233 C232 1.401 . S
C233 C234 1.405 1_554 S
C233 C266 1.587 . S
C234 C233 1.405 1_556 S
C234 C235 1.332 . S
C234 C237 1.496 . S
C235 C230 1.418 . S
C235 C234 1.332 . S
C235 H293 0.929 . S
C236 C232 1.527 . S
C236 H294 0.959 . S
C236 H295 0.961 . S
C236 H296 0.961 . S
C237 C234 1.496 . S
C237 H297 0.960 . S
C237 H298 0.960 . S
C237 H299 0.961 . S
C238 C239 1.517 . S
C238 H301 0.961 . S
C238 H302 0.960 . S
C238 H303 0.959 . S
C239 C238 1.517 . S
C239 O287 1.468 . S
C239 H300 0.980 . S
C240 C241 1.349 . S
C240 C245 1.367 . S
C240 O287 1.408 . S
C241 C240 1.349 . S
C241 C242 1.407 . S
C241 H304 0.930 . S
C242 C241 1.407 . S
C242 C243 1.449 . S
C242 C246 1.535 1_554 S
C243 C242 1.449 . S
C243 C244 1.384 . S
C243 C268 1.553 . S
C244 C243 1.384 . S
C244 C245 1.364 . S
C244 C247 1.450 . S
C245 C240 1.367 . S
C245 C244 1.364 . S
C245 H305 0.931 . S
C246 C242 1.535 1_556 S
C246 H306 0.959 . S
C246 H307 0.961 . S
C246 H308 0.959 . S
C247 C244 1.450 . S
C247 H309 0.960 . S
C247 H310 0.960 . S
C247 H311 0.960 . S
C248 C249 1.309 . S
C248 C253 1.304 . S
C248 O286 1.435 . S
C249 C248 1.309 . S
C249 C250 1.476 . S
C249 H313 0.930 1_554 S
C250 C249 1.476 . S
C250 C251 1.400 . S
C250 C254 1.567 1_554 S
C251 C250 1.400 . S
C251 C252 1.373 . S
C251 C273 1.432 . S
C252 C251 1.373 . S
C252 C253 1.339 . S
C252 C255 1.530 . S
C253 C248 1.304 . S
C253 C252 1.339 . S
C253 H314 0.930 . S
C254 C250 1.567 1_556 S
C254 H315 0.961 . S
C254 H316 0.960 . S
C254 H317 0.958 . S
C255 C252 1.530 . S
C255 H318 0.961 . S
C255 H319 0.960 . S
C255 H320 0.960 . S
C256 C257 1.530 1_556 S
C256 H322 0.961 . S
C256 H323 0.961 . S
C256 H324 0.959 . S
C257 C256 1.530 1_554 S
C257 O285 1.412 1_554 S
C257 H321 0.980 . S
C258 C259 1.288 . S
C258 C263 1.377 1_556 S
C258 O285 1.393 . S
C259 C258 1.288 . S
C259 C260 1.369 . S
C259 H325 0.932 . S
C260 C259 1.369 . S
C260 C261 1.398 1_556 S
C260 C264 1.527 . S
C261 C260 1.398 1_554 S
C261 C262 1.380 . S
C261 C275 1.497 . S
C262 C261 1.380 . S
C262 C263 1.383 . S
C262 C265 1.603 . S
C263 C258 1.377 1_554 S
C263 C262 1.383 . S
C263 H326 0.929 . S
C264 C260 1.527 . S
C264 H327 0.961 . S
C264 H328 0.959 . S
C264 H329 0.959 . S
C265 C262 1.603 . S
C265 H330 0.960 . S
C265 H331 0.962 . S
C265 H332 0.961 . S
C266 C233 1.587 . S
C266 C267 1.360 . S
C266 C279 1.412 . S
C267 C266 1.360 . S
C267 C268 1.365 . S
C267 H333 0.929 . S
C268 C243 1.553 . S
C268 C267 1.365 . S
C268 C269 1.404 . S
C269 C268 1.404 . S
C269 C270 1.395 . S
C269 C280 1.451 . S
C270 C269 1.395 . S
C270 C271 1.322 . S
C270 H334 0.930 . S
C271 C270 1.322 . S
C271 C272 1.459 . S
C271 H335 0.929 . S
C272 C271 1.459 . S
C272 C273 1.445 . S
C272 C281 1.395 . S
C273 C251 1.432 . S
C273 C272 1.445 . S
C273 C274 1.370 . S
C274 C273 1.370 . S
C274 C275 1.438 . S
C274 H336 0.930 . S
C275 C261 1.497 . S
C275 C274 1.438 . S
C275 C276 1.360 . S
C276 C275 1.360 . S
C276 C277 1.401 . S
C276 C281 1.446 . S
C277 C276 1.401 . S
C277 C278 1.347 . S
C277 H337 0.929 . S
C278 C277 1.347 . S
C278 C279 1.455 . S
C278 H338 0.930 . S
C279 C266 1.412 . S
C279 C278 1.455 . S
C279 C280 1.331 . S
C280 C269 1.451 . S
C280 C279 1.331 . S
C280 C281 1.497 . S
C281 C272 1.395 . S
C281 C276 1.446 . S
C281 C280 1.497 . S
C282 C283 1.582 . S
C282 H339 0.962 . S
C282 H340 0.959 . S
C282 H341 0.958 . S
C283 C282 1.582 . S
C283 O286 1.458 . S
C283 H312 0.980 . S
O284 C229 1.426 . S
O284 C230 1.334 . S
O285 C257 1.412 1_556 S
O285 C258 1.393 . S
O286 C248 1.435 . S
O286 C283 1.458 . S
O287 C239 1.468 . S
O287 C240 1.408 . S
H288 C229 0.980 1_554 S
H289 C228 0.959 . S
H290 C228 0.959 . S
H291 C228 0.960 . S
H292 C231 0.929 . S
H293 C235 0.929 . S
H294 C236 0.959 . S
H295 C236 0.961 . S
H296 C236 0.961 . S
H297 C237 0.960 . S
H298 C237 0.960 . S
H299 C237 0.961 . S
H300 C239 0.980 . S
H301 C238 0.961 . S
H302 C238 0.960 . S
H303 C238 0.959 . S
H304 C241 0.930 . S
H305 C245 0.931 . S
H306 C246 0.959 . S
H307 C246 0.961 . S
H308 C246 0.959 . S
H309 C247 0.960 . S
H310 C247 0.960 . S
H311 C247 0.960 . S
H312 C283 0.980 . S
H313 C249 0.930 1_556 S
H314 C253 0.930 . S
H315 C254 0.961 . S
H316 C254 0.960 . S
H317 C254 0.958 . S
H318 C255 0.961 . S
H319 C255 0.960 . S
H320 C255 0.960 . S
H321 C257 0.980 . S
H322 C256 0.961 . S
H323 C256 0.961 . S
H324 C256 0.959 . S
H325 C259 0.932 . S
H326 C263 0.929 . S
H327 C264 0.961 . S
H328 C264 0.959 . S
H329 C264 0.959 . S
H330 C265 0.960 . S
H331 C265 0.962 . S
H332 C265 0.961 . S
H333 C267 0.929 . S
H334 C270 0.930 . S
H335 C271 0.929 . S
H336 C274 0.930 . S
H337 C277 0.929 . S
H338 C278 0.930 . S
H339 C282 0.962 . S
H340 C282 0.959 . S
H341 C282 0.958 . S
Zn342 O344 1.933 1_556 S
Zn342 O362 1.985 . S
Zn342 O373 1.955 . S
Zn343 O344 1.911 . S
Zn343 O363 1.970 . S
Zn343 O379 1.945 . S
Zn343 O386 1.981 . S
O344 Zn342 1.933 1_554 S
O344 Zn343 1.911 . S
O344 H345 0.841 . S
H345 O344 0.841 . S
C346 O347 1.246 . S
C346 O375 1.276 1_455 S
O347 C346 1.246 . S
Zn348 O350 1.911 . S
Zn348 O365 1.970 . S
Zn348 O382 1.945 . S
Zn348 O389 1.981 . S
Zn349 O350 1.933 1_556 S
Zn349 O364 1.985 . S
Zn349 O371 1.955 . S
O350 Zn348 1.911 . S
O350 Zn349 1.933 1_554 S
O350 H351 0.841 1_565 S
H351 O350 0.841 1_545 S
Zn352 O353 1.933 1_556 S
Zn352 O366 1.985 . S
Zn352 O375 1.955 . S
O353 Zn352 1.933 1_554 S
O353 Zn354 1.911 . S
O353 H355 0.841 1_655 S
Zn354 O353 1.911 . S
Zn354 O367 1.970 . S
Zn354 O383 1.981 . S
Zn354 O385 1.945 . S
H355 O353 0.841 1_455 S
Zn356 O357 1.933 1_556 S
Zn356 O369 1.985 . S
Zn356 O377 1.955 . S
O357 Zn356 1.933 1_554 S
O357 H358 0.841 . S
O357 Zn359 1.911 . S
H358 O357 0.841 . S
Zn359 O357 1.911 . S
Zn359 O370 1.970 . S
Zn359 O380 1.981 . S
Zn359 O388 1.945 . S
C360 O361 1.246 1_455 S
C360 O377 1.276 . S
O361 C360 1.246 1_655 S
O362 Zn342 1.985 . S
O362 C372 1.245 1_556 S
O363 Zn343 1.970 . S
O363 C372 1.263 . S
O364 Zn349 1.985 . S
O364 C376 1.245 1_556 S
O365 Zn348 1.970 . S
O365 C376 1.263 . S
O366 Zn352 1.985 . S
O366 C381 1.245 1_556 S
O367 Zn354 1.970 . S
O367 C381 1.263 . S
C368 O379 1.262 . S
C368 O380 1.245 1_545 S
O369 Zn356 1.985 . S
O369 C387 1.245 1_556 S
O370 Zn359 1.970 . S
O370 C387 1.263 . S
O371 Zn349 1.955 . S
O371 C390 1.276 1_565 S
C372 O362 1.245 1_554 S
C372 O363 1.263 . S
O373 Zn342 1.955 . S
O373 C392 1.276 . S
C374 O382 1.262 1_545 S
C374 O383 1.245 . S
O375 C346 1.276 1_655 S
O375 Zn352 1.955 . S
C376 O364 1.245 1_554 S
C376 O365 1.263 . S
O377 Zn356 1.955 . S
O377 C360 1.276 . S
C378 O385 1.262 1_455 S
C378 O386 1.245 . S
O379 Zn343 1.945 . S
O379 C368 1.262 . S
O380 Zn359 1.981 . S
O380 C368 1.245 1_565 S
C381 O366 1.245 1_554 S
C381 O367 1.263 . S
O382 Zn348 1.945 . S
O382 C374 1.262 1_565 S
O383 Zn354 1.981 . S
O383 C374 1.245 . S
C384 O388 1.262 . S
C384 O389 1.245 1_455 S
O385 Zn354 1.945 . S
O385 C378 1.262 1_655 S
O386 Zn343 1.981 . S
O386 C378 1.245 . S
C387 O369 1.245 1_554 S
C387 O370 1.263 . S
O388 Zn359 1.945 . S
O388 C384 1.262 . S
O389 Zn348 1.981 . S
O389 C384 1.245 1_655 S
C390 O371 1.276 1_545 S
C390 O391 1.246 . S
O391 C390 1.246 . S
C392 O373 1.276 . S
C392 O393 1.246 1_545 S
O393 C392 1.246 1_565 S
H394 C402 0.950 1_655 S
H395 C407 0.950 . S
H396 C404 0.950 1_655 S
H397 C406 0.950 . S
H398 C408 0.950 . S
H399 C410 0.950 . S
H400 C412 0.950 1_655 S
H401 C413 0.950 . S
C402 H394 0.950 1_455 S
C402 C403 1.386 . S
C402 C404 1.391 . S
C403 C402 1.386 . S
C403 C407 1.393 . S
C404 H396 0.950 1_455 S
C404 C402 1.391 . S
C404 C405 1.400 . S
C405 C404 1.400 . S
C405 C406 1.398 . S
C405 C411 1.491 . S
C406 H397 0.950 . S
C406 C405 1.398 . S
C406 C407 1.391 . S
C407 H395 0.950 . S
C407 C403 1.393 . S
C407 C406 1.391 . S
C408 H398 0.950 . S
C408 C409 1.386 . S
C408 C410 1.391 . S
C409 C408 1.386 . S
C409 C413 1.393 . S
C410 H399 0.950 . S
C410 C408 1.391 . S
C410 C411 1.400 . S
C411 C405 1.491 . S
C411 C410 1.400 . S
C411 C412 1.398 . S
C412 H400 0.950 1_455 S
C412 C411 1.398 . S
C412 C413 1.391 . S
C413 H401 0.950 . S
C413 C409 1.393 . S
C413 C412 1.391 . S
H414 C422 0.950 . S
H415 C427 0.950 . S
H416 C424 0.950 . S
H417 C426 0.950 . S
H418 C428 0.950 . S
H419 C430 0.950 . S
H420 C432 0.950 . S
H421 C433 0.950 . S
C422 H414 0.950 . S
C422 C423 1.386 1_565 S
C422 C424 1.391 . S
C423 C422 1.386 1_545 S
C423 C427 1.393 . S
C424 H416 0.950 . S
C424 C422 1.391 . S
C424 C425 1.400 1_565 S
C425 C424 1.400 1_545 S
C425 C426 1.398 . S
C425 C431 1.491 . S
C426 H417 0.950 . S
C426 C425 1.398 . S
C426 C427 1.391 . S
C427 H415 0.950 . S
C427 C423 1.393 . S
C427 C426 1.391 . S
C428 H418 0.950 . S
C428 C429 1.386 . S
C428 C430 1.391 . S
C429 C428 1.386 . S
C429 C433 1.393 1_545 S
C430 H419 0.950 . S
C430 C428 1.391 . S
C430 C431 1.400 . S
C431 C425 1.491 . S
C431 C430 1.400 . S
C431 C432 1.398 1_545 S
C432 H420 0.950 . S
C432 C431 1.398 1_565 S
C432 C433 1.391 . S
C433 H421 0.950 . S
C433 C429 1.393 1_565 S
C433 C432 1.391 . S
H434 C442 0.950 . S
H435 C447 0.950 . S
H436 C444 0.950 . S
H437 C446 0.950 . S
H438 C448 0.950 1_655 S
H439 C450 0.950 . S
H440 C452 0.950 . S
H441 C453 0.950 . S
C442 H434 0.950 . S
C442 C443 1.386 . S
C442 C444 1.391 . S
C443 C442 1.386 . S
C443 C447 1.393 . S
C444 H436 0.950 . S
C444 C442 1.391 . S
C444 C445 1.400 . S
C445 C444 1.400 . S
C445 C446 1.398 . S
C445 C451 1.491 . S
C446 H437 0.950 . S
C446 C445 1.398 . S
C446 C447 1.391 . S
C447 H435 0.950 . S
C447 C443 1.393 . S
C447 C446 1.391 . S
C448 H438 0.950 1_455 S
C448 C449 1.386 . S
C448 C450 1.391 . S
C449 C448 1.386 . S
C449 C453 1.393 . S
C450 H439 0.950 . S
C450 C448 1.391 . S
C450 C451 1.400 . S
C451 C445 1.491 . S
C451 C450 1.400 . S
C451 C452 1.398 . S
C452 H440 0.950 . S
C452 C451 1.398 . S
C452 C453 1.391 . S
C453 H441 0.950 . S
C453 C449 1.393 . S
C453 C452 1.391 . S
H454 C462 0.950 . S
H455 C467 0.945 1_565 S
H456 C464 0.950 . S
H457 C466 0.950 1_565 S
H458 C468 0.950 . S
H459 C470 0.950 . S
H460 C472 0.950 . S
H461 C473 0.950 . S
C462 H454 0.950 . S
C462 C463 1.386 . S
C462 C464 1.391 . S
C463 C462 1.386 . S
C463 C467 1.393 . S
C464 H456 0.950 . S
C464 C462 1.391 . S
C464 C465 1.400 . S
C465 C464 1.400 . S
C465 C466 1.398 . S
C465 C471 1.491 . S
C466 H457 0.950 1_545 S
C466 C465 1.398 . S
C466 C467 1.391 . S
C467 H455 0.945 1_545 S
C467 C463 1.393 . S
C467 C466 1.391 . S
C468 H458 0.950 . S
C468 C469 1.386 1_565 S
C468 C470 1.391 . S
C469 C468 1.386 1_545 S
C469 C473 1.393 . S
C470 H459 0.950 . S
C470 C468 1.391 . S
C470 C471 1.400 1_565 S
C471 C465 1.491 . S
C471 C470 1.400 1_545 S
C471 C472 1.398 . S
C472 H460 0.950 . S
C472 C471 1.398 . S
C472 C473 1.391 . S
C473 H461 0.950 . S
C473 C469 1.393 . S
C473 C472 1.391 . S
H474 C482 0.950 . S
H475 C487 0.950 . S
H476 C484 0.950 . S
H477 C486 0.950 . S
H478 C488 0.950 . S
H479 C490 0.950 . S
H480 C492 0.950 . S
H481 C493 0.950 . S
C482 H474 0.950 . S
C482 C483 1.386 . S
C482 C484 1.391 . S
C483 C482 1.386 . S
C483 C487 1.393 1_455 S
C484 H476 0.950 . S
C484 C482 1.391 . S
C484 C485 1.400 . S
C485 C484 1.400 . S
C485 C486 1.398 1_455 S
C485 C491 1.491 . S
C486 H477 0.950 . S
C486 C485 1.398 1_655 S
C486 C487 1.391 . S
C487 H475 0.950 . S
C487 C483 1.393 1_655 S
C487 C486 1.391 . S
C488 H478 0.950 . S
C488 C489 1.386 1_655 S
C488 C490 1.391 . S
C489 C488 1.386 1_455 S
C489 C493 1.393 . S
C490 H479 0.950 . S
C490 C488 1.391 . S
C490 C491 1.400 1_655 S
C491 C485 1.491 . S
C491 C490 1.400 1_455 S
C491 C492 1.398 . S
C492 H480 0.950 . S
C492 C491 1.398 . S
C492 C493 1.391 . S
C493 H481 0.950 . S
C493 C489 1.393 . S
C493 C492 1.391 . S
H494 C502 0.950 . S
H495 C507 0.950 . S
H496 C504 0.950 . S
H497 C506 0.950 . S
H498 C508 0.950 . S
H499 C510 0.950 . S
H500 C512 0.950 . S
H501 C513 0.950 . S
C502 H494 0.950 . S
C502 C503 1.386 . S
C502 C504 1.391 . S
C503 C502 1.386 . S
C503 C507 1.393 1_545 S
C504 H496 0.950 . S
C504 C502 1.391 . S
C504 C505 1.400 . S
C505 C504 1.400 . S
C505 C506 1.398 1_545 S
C505 C511 1.491 . S
C506 H497 0.950 . S
C506 C505 1.398 1_565 S
C506 C507 1.391 . S
C507 H495 0.950 . S
C507 C503 1.393 1_565 S
C507 C506 1.391 . S
C508 H498 0.950 . S
C508 C509 1.386 . S
C508 C510 1.391 . S
C509 C508 1.386 . S
C509 C513 1.393 1_565 S
C510 H499 0.950 . S
C510 C508 1.391 . S
C510 C511 1.392 1_565 S
C511 C505 1.491 . S
C511 C510 1.392 1_545 S
C511 C512 1.406 . S
C512 H500 0.950 . S
C512 C511 1.406 . S
C512 C513 1.391 . S
C513 H501 0.950 . S
C513 C509 1.393 1_545 S
C513 C512 1.391 . S
H514 C522 0.950 . S
H515 C527 0.950 . S
H516 C524 0.950 . S
H517 C526 0.950 . S
H518 C528 0.950 . S
H519 C530 0.950 . S
H520 C532 0.950 . S
H521 C533 0.950 . S
C522 H514 0.950 . S
C522 C523 1.386 . S
C522 C524 1.391 . S
C523 C522 1.386 . S
C523 C527 1.393 1_455 S
C524 H516 0.950 . S
C524 C522 1.391 . S
C524 C525 1.400 . S
C525 C524 1.400 . S
C525 C526 1.398 1_455 S
C525 C531 1.491 . S
C526 H517 0.950 . S
C526 C525 1.398 1_655 S
C526 C527 1.391 . S
C527 H515 0.950 . S
C527 C523 1.393 1_655 S
C527 C526 1.391 . S
C528 H518 0.950 . S
C528 C529 1.386 1_655 S
C528 C530 1.391 . S
C529 C528 1.386 1_455 S
C529 C533 1.393 . S
C530 H519 0.950 . S
C530 C528 1.391 . S
C530 C531 1.400 1_655 S
C531 C525 1.491 . S
C531 C530 1.400 1_455 S
C531 C532 1.398 . S
C532 H520 0.950 . S
C532 C531 1.398 . S
C532 C533 1.391 . S
C533 H521 0.950 . S
C533 C529 1.393 . S
C533 C532 1.391 . S
H534 C542 0.950 . S
H535 C547 0.950 . S
H536 C544 0.950 . S
H537 C546 0.950 . S
H538 C548 0.950 . S
H539 C550 0.950 . S
H540 C552 0.950 . S
H541 C553 0.950 . S
C542 H534 0.950 . S
C542 C543 1.386 . S
C542 C544 1.391 . S
C543 C542 1.386 . S
C543 C547 1.393 . S
C544 H536 0.950 . S
C544 C542 1.391 . S
C544 C545 1.400 . S
C545 C544 1.400 . S
C545 C546 1.398 . S
C545 C551 1.491 . S
C546 H537 0.950 . S
C546 C545 1.398 . S
C546 C547 1.391 . S
C547 H535 0.950 . S
C547 C543 1.393 . S
C547 C546 1.391 . S
C548 H538 0.950 . S
C548 C549 1.386 . S
C548 C550 1.391 . S
C549 C548 1.386 . S
C549 C553 1.393 . S
C550 H539 0.950 . S
C550 C548 1.391 . S
C550 C551 1.400 . S
C551 C545 1.491 . S
C551 C550 1.400 . S
C551 C552 1.398 . S
C552 H540 0.950 . S
C552 C551 1.398 . S
C552 C553 1.391 . S
C553 H541 0.950 . S
C553 C549 1.393 . S
C553 C552 1.391 . S
H554 C562 0.950 . S
H555 C567 0.950 . S
H556 C564 0.950 . S
H557 C566 0.950 . S
H558 C568 0.950 . S
H559 C570 0.950 . S
H560 C572 0.950 . S
H561 C573 0.950 . S
C562 H554 0.950 . S
C562 C563 1.386 . S
C562 C564 1.391 . S
C563 C562 1.386 . S
C563 C567 1.393 1_554 S
C564 H556 0.950 . S
C564 C562 1.391 . S
C564 C565 1.400 . S
C565 C564 1.400 . S
C565 C566 1.398 1_554 S
C565 C571 1.491 . S
C566 H557 0.950 . S
C566 C565 1.398 1_556 S
C566 C567 1.391 . S
C567 H555 0.950 . S
C567 C563 1.393 1_556 S
C567 C566 1.391 . S
C568 H558 0.950 . S
C568 C569 1.386 1_556 S
C568 C570 1.391 . S
C569 C568 1.386 1_554 S
C569 C573 1.393 . S
C570 H559 0.950 . S
C570 C568 1.391 . S
C570 C571 1.400 1_556 S
C571 C565 1.491 . S
C571 C570 1.400 1_554 S
C571 C572 1.398 . S
C572 H560 0.950 . S
C572 C571 1.398 . S
C572 C573 1.391 . S
C573 H561 0.950 . S
C573 C569 1.393 . S
C573 C572 1.391 . S
H574 C582 0.950 . S
H575 C587 0.950 . S
H576 C584 0.950 . S
H577 C586 0.950 . S
H578 C588 0.950 . S
H579 C590 0.950 . S
H580 C592 0.950 . S
H581 C593 0.950 . S
C582 H574 0.950 . S
C582 C583 1.386 . S
C582 C584 1.391 . S
C583 C582 1.386 . S
C583 C587 1.393 1_554 S
C584 H576 0.950 . S
C584 C582 1.391 . S
C584 C585 1.400 . S
C585 C584 1.400 . S
C585 C586 1.398 1_554 S
C585 C591 1.491 . S
C586 H577 0.950 . S
C586 C585 1.398 1_556 S
C586 C587 1.391 . S
C587 H575 0.950 . S
C587 C583 1.393 1_556 S
C587 C586 1.391 . S
C588 H578 0.950 . S
C588 C589 1.386 1_556 S
C588 C590 1.391 . S
C589 C588 1.386 1_554 S
C589 C593 1.393 . S
C590 H579 0.950 . S
C590 C588 1.391 . S
C590 C591 1.400 1_556 S
C591 C585 1.491 . S
C591 C590 1.400 1_554 S
C591 C592 1.398 . S
C592 H580 0.950 . S
C592 C591 1.398 . S
C592 C593 1.391 . S
C593 H581 0.950 . S
C593 C589 1.393 . S
C593 C592 1.391 . S
H594 C602 0.950 1_556 S
H595 C607 0.950 . S
H596 C604 0.950 1_556 S
H597 C606 0.950 . S
H598 C608 0.950 . S
H599 C610 0.950 . S
H600 C612 0.950 1_556 S
H601 C613 0.957 . S
C602 H594 0.950 1_554 S
C602 C603 1.386 . S
C602 C604 1.391 . S
C603 C602 1.386 . S
C603 C607 1.393 . S
C604 H596 0.950 1_554 S
C604 C602 1.391 . S
C604 C605 1.400 . S
C605 C604 1.400 . S
C605 C606 1.398 . S
C605 C611 1.491 . S
C606 H597 0.950 . S
C606 C605 1.398 . S
C606 C607 1.391 . S
C607 H595 0.950 . S
C607 C603 1.393 . S
C607 C606 1.391 . S
C608 H598 0.950 . S
C608 C609 1.386 . S
C608 C610 1.391 . S
C609 C608 1.386 . S
C609 C613 1.386 1_554 S
C610 H599 0.950 . S
C610 C608 1.391 . S
C610 C611 1.400 . S
C611 C605 1.491 . S
C611 C610 1.400 . S
C611 C612 1.398 . S
C612 H600 0.950 1_554 S
C612 C611 1.398 . S
C612 C613 1.390 1_554 S
C613 H601 0.957 . S
C613 C609 1.386 1_556 S
C613 C612 1.390 1_556 S
H614 C622 0.950 . S
H615 C627 0.950 . S
H616 C624 0.950 . S
H617 C626 0.950 . S
H618 C628 0.950 . S
H619 C630 0.950 . S
H620 C632 0.950 . S
H621 C633 0.950 . S
C622 H614 0.950 . S
C622 C623 1.386 1_556 S
C622 C624 1.391 . S
C623 C622 1.386 1_554 S
C623 C627 1.393 . S
C624 H616 0.950 . S
C624 C622 1.391 . S
C624 C625 1.400 1_556 S
C625 C624 1.400 1_554 S
C625 C626 1.398 . S
C625 C631 1.491 . S
C626 H617 0.950 . S
C626 C625 1.398 . S
C626 C627 1.391 . S
C627 H615 0.950 . S
C627 C623 1.393 . S
C627 C626 1.391 . S
C628 H618 0.950 . S
C628 C629 1.386 . S
C628 C630 1.391 . S
C629 C628 1.386 . S
C629 C633 1.393 1_554 S
C630 H619 0.950 . S
C630 C628 1.391 . S
C630 C631 1.400 . S
C631 C625 1.491 . S
C631 C630 1.400 . S
C631 C632 1.398 1_554 S
C632 H620 0.950 . S
C632 C631 1.398 1_556 S
C632 C633 1.391 . S
C633 H621 0.950 . S
C633 C629 1.393 1_556 S
C633 C632 1.391 . S
C409 C378 1.638 . S
C403 C11 1.024 1_455 S
C429 C374 1.589 . S
C423 C143 1.379 . S
C449 C384 1.390 . S
C443 C1 1.134 . S
C469 C368 1.749 . S
C463 C169 1.406 . S
C483 C29 1.402 . S
C489 C360 1.613 . S
C509 C392 1.838 1_565 S
C503 C125 1.172 1_545 S
C523 C55 1.468 . S
C529 C346 1.771 . S
C543 C115 1.265 . S
C549 C390 1.586 . S
C563 C283 0.833 . S
C569 C372 1.104 . S
C583 C239 0.658 . S
C589 C387 1.119 . S
C609 C381 0.996 . S
C603 C257 0.842 . S
C629 C376 0.900 . S
C623 C229 0.755 1_554 S
