# Generated by pormake.
# Topology nom, (4,4)-cn, num edge types: 1
# Building blocks:
#     Node 0, Type 0, BuildingBlock: NAWXER_clean_linker_0, # of connection points: 4
#     Node 1, Type 0, BuildingBlock: NAWXER_clean_linker_0, # of connection points: 4
#     Node 2, Type 0, BuildingBlock: NAWXER_clean_linker_0, # of connection points: 4
#     Node 3, Type 0, BuildingBlock: NAWXER_clean_linker_0, # of connection points: 4
#     Node 4, Type 0, BuildingBlock: NAWXER_clean_linker_0, # of connection points: 4
#     Node 5, Type 0, BuildingBlock: NAWXER_clean_linker_0, # of connection points: 4
#     Node 6, Type 1, BuildingBlock: QUQFOY_clean_sbu_1, # of connection points: 4
#     Node 7, Type 1, BuildingBlock: QUQFOY_clean_sbu_1, # of connection points: 4
#     Node 8, Type 1, BuildingBlock: QUQFOY_clean_sbu_1, # of connection points: 4
#     Node 9, Type 1, BuildingBlock: QUQFOY_clean_sbu_1, # of connection points: 4
#     Node 10, Type 1, BuildingBlock: QUQFOY_clean_sbu_1, # of connection points: 4
#     Node 11, Type 1, BuildingBlock: QUQFOY_clean_sbu_1, # of connection points: 4
#     Edge 12, Type (0, 1), BuildingBlock: XUDNAN_clean_linker_2, # of connection points: 2
#     Edge 13, Type (0, 1), BuildingBlock: XUDNAN_clean_linker_2, # of connection points: 2
#     Edge 14, Type (0, 1), BuildingBlock: XUDNAN_clean_linker_2, # of connection points: 2
#     Edge 15, Type (0, 1), BuildingBlock: XUDNAN_clean_linker_2, # of connection points: 2
#     Edge 16, Type (0, 1), BuildingBlock: XUDNAN_clean_linker_2, # of connection points: 2
#     Edge 17, Type (0, 1), BuildingBlock: XUDNAN_clean_linker_2, # of connection points: 2
#     Edge 18, Type (0, 1), BuildingBlock: XUDNAN_clean_linker_2, # of connection points: 2
#     Edge 19, Type (0, 1), BuildingBlock: XUDNAN_clean_linker_2, # of connection points: 2
#     Edge 20, Type (0, 1), BuildingBlock: XUDNAN_clean_linker_2, # of connection points: 2
#     Edge 21, Type (0, 1), BuildingBlock: XUDNAN_clean_linker_2, # of connection points: 2
#     Edge 22, Type (0, 1), BuildingBlock: XUDNAN_clean_linker_2, # of connection points: 2
#     Edge 23, Type (0, 1), BuildingBlock: XUDNAN_clean_linker_2, # of connection points: 2
#     Edge 24, Type (0, 1), BuildingBlock: XUDNAN_clean_linker_2, # of connection points: 2
#     Edge 25, Type (0, 1), BuildingBlock: XUDNAN_clean_linker_2, # of connection points: 2
#     Edge 26, Type (0, 1), BuildingBlock: XUDNAN_clean_linker_2, # of connection points: 2
#     Edge 27, Type (0, 1), BuildingBlock: XUDNAN_clean_linker_2, # of connection points: 2
#     Edge 28, Type (0, 1), BuildingBlock: XUDNAN_clean_linker_2, # of connection points: 2
#     Edge 29, Type (0, 1), BuildingBlock: XUDNAN_clean_linker_2, # of connection points: 2
#     Edge 30, Type (0, 1), BuildingBlock: XUDNAN_clean_linker_2, # of connection points: 2
#     Edge 31, Type (0, 1), BuildingBlock: XUDNAN_clean_linker_2, # of connection points: 2
#     Edge 32, Type (0, 1), BuildingBlock: XUDNAN_clean_linker_2, # of connection points: 2
#     Edge 33, Type (0, 1), BuildingBlock: XUDNAN_clean_linker_2, # of connection points: 2
#     Edge 34, Type (0, 1), BuildingBlock: XUDNAN_clean_linker_2, # of connection points: 2
#     Edge 35, Type (0, 1), BuildingBlock: XUDNAN_clean_linker_2, # of connection points: 2
# Relax obj value: 0.026
# Max RMSD: 0.132
# Mean RMSD: 0.124
data_MOF--net-nom--node1-QUQFOY_clean_sbu_1--node2-NAWXER_clean_linker_0--edge1-XUDNAN_clean_linker_2
_symmetry_space_group_name_H-M    P1
_symmetry_Int_Tables_number       1
_symmetry_cell_setting            triclinic
loop_
_symmetry_equiv_pos_as_xyz
'x, y, z'
_cell_length_a     54.611532
_cell_length_b     54.566256
_cell_length_c     54.877972
_cell_angle_alpha  90.044778
_cell_angle_beta   89.936549
_cell_angle_gamma 119.97958
loop_
_atom_site_label
_atom_site_type_symbol
_atom_site_fract_x
_atom_site_fract_y
_atom_site_fract_z
_atom_type_partial_charge
C0 C 0.91649 0.48437 0.34343 0.0
C1 C 0.90819 0.46495 0.36278 0.0
C2 C 0.94339 0.49563 0.33313 0.0
C3 C 0.9625 0.48757 0.34186 0.0
C4 C 0.9275 0.45721 0.37173 0.0
C5 C 0.9545 0.46861 0.36148 0.0
C6 C 0.99104 0.49945 0.33096 0.0
C7 C 0.92984 0.44266 0.27458 0.0
C8 C 0.92905 0.45618 0.25303 0.0
C9 C 0.9514 0.45691 0.29161 0.0
C10 C 0.97243 0.48519 0.28771 0.0
C11 C 0.95032 0.4844 0.24902 0.0
C12 C 0.97186 0.49869 0.26613 0.0
C13 C 0.99567 0.50025 0.30554 0.0
C14 C 0.10935 0.54854 0.27186 0.0
C15 C 0.12823 0.57599 0.28032 0.0
C16 C 0.08238 0.53279 0.28209 0.0
C17 C 0.07394 0.54398 0.30125 0.0
C18 C 0.11945 0.58739 0.29913 0.0
C19 C 0.09257 0.57158 0.30944 0.0
C20 C 0.04547 0.52706 0.31223 0.0
C21 C 0.08434 0.55415 0.39506 0.0
C22 C 0.10612 0.54778 0.39179 0.0
C23 C 0.06348 0.54682 0.37727 0.0
C24 C 0.06406 0.5332 0.35575 0.0
C25 C 0.10668 0.53421 0.37016 0.0
C26 C 0.08577 0.52678 0.35246 0.0
C27 C 0.04087 0.52396 0.3377 0.0
H28 H 0.90206 0.49063 0.33602 0.0
H29 H 0.94927 0.51072 0.31837 0.0
H30 H 0.92185 0.44257 0.38682 0.0
H31 H 0.96901 0.46233 0.36867 0.0
H32 H 0.91373 0.42102 0.27836 0.0
H33 H 0.95175 0.44567 0.30774 0.0
H34 H 0.95066 0.4953 0.23243 0.0
H35 H 0.98806 0.52036 0.26255 0.0
H36 H 0.11537 0.53932 0.25719 0.0
H37 H 0.06824 0.51167 0.2753 0.0
H38 H 0.13354 0.6084 0.30615 0.0
H39 H 0.08634 0.58095 0.32383 0.0
H40 H 0.08296 0.56415 0.41165 0.0
H41 H 0.04675 0.55165 0.38041 0.0
H42 H 0.12322 0.52914 0.36694 0.0
H43 H 0.0863 0.5155 0.33641 0.0
N44 N 0.0138 0.51079 0.34607 0.0
N45 N 0.02272 0.51455 0.29713 0.0
C46 C 0.42363 0.91363 0.49999 0.0
C47 C 0.43637 0.90361 0.51645 0.0
C48 C 0.4382 0.94158 0.49172 0.0
C49 C 0.4661 0.96003 0.49928 0.0
C50 C 0.46399 0.92243 0.52459 0.0
C51 C 0.47864 0.95035 0.51615 0.0
C52 C 0.48198 0.9896 0.49022 0.0
C53 C 0.46555 0.9329 0.42616 0.0
C54 C 0.44714 0.93389 0.40881 0.0
C55 C 0.47753 0.95356 0.4443 0.0
C56 C 0.47107 0.97544 0.44565 0.0
C57 C 0.44152 0.9564 0.40971 0.0
C58 C 0.45348 0.97703 0.42789 0.0
C59 C 0.48282 0.99684 0.46535 0.0
C60 C 0.56577 0.12237 0.46539 0.0
C61 C 0.55129 0.13247 0.4511 0.0
C62 C 0.55235 0.09417 0.47299 0.0
C63 C 0.52399 0.07552 0.46688 0.0
C64 C 0.52315 0.11349 0.44436 0.0
C65 C 0.50969 0.08528 0.45209 0.0
C66 C 0.50921 0.04585 0.47566 0.0
C67 C 0.53089 0.10245 0.54096 0.0
C68 C 0.55222 0.10221 0.55509 0.0
C69 C 0.51641 0.08149 0.52342 0.0
C70 C 0.523 0.05995 0.51979 0.0
C71 C 0.55818 0.08015 0.55186 0.0
C72 C 0.54351 0.05908 0.5345 0.0
C73 C 0.50909 0.03857 0.5004 0.0
H74 H 0.40249 0.89978 0.49317 0.0
H75 H 0.42764 0.94871 0.47933 0.0
H76 H 0.47427 0.91566 0.53763 0.0
H77 H 0.49996 0.9643 0.52257 0.0
H78 H 0.47028 0.91585 0.42603 0.0
H79 H 0.49168 0.95231 0.45741 0.0
H80 H 0.42791 0.95812 0.39633 0.0
H81 H 0.44855 0.99395 0.42835 0.0
H82 H 0.58737 0.13636 0.47109 0.0
H83 H 0.56414 0.08699 0.4838 0.0
H84 H 0.51152 0.12038 0.43301 0.0
H85 H 0.48792 0.07118 0.44686 0.0
H86 H 0.52588 0.1192 0.54308 0.0
H87 H 0.50032 0.08229 0.51248 0.0
H88 H 0.5742 0.07921 0.56277 0.0
H89 H 0.54873 0.04251 0.5321 0.0
N90 N 0.49553 0.01077 0.50673 0.0
N91 N 0.49602 0.02468 0.45908 0.0
C92 C 0.57565 0.49137 0.61735 0.0
C93 C 0.56347 0.47971 0.59464 0.0
C94 C 0.56047 0.4968 0.63492 0.0
C95 C 0.53244 0.49004 0.63049 0.0
C96 C 0.53561 0.47356 0.59001 0.0
C97 C 0.5203 0.47876 0.60774 0.0
C98 C 0.5162 0.49567 0.6492 0.0
C99 C 0.53222 0.42936 0.68053 0.0
C100 C 0.55069 0.43836 0.7006 0.0
C101 C 0.52088 0.44572 0.67204 0.0
C102 C 0.52797 0.47158 0.68328 0.0
C103 C 0.55724 0.46394 0.71217 0.0
C104 C 0.54582 0.48028 0.70369 0.0
C105 C 0.51621 0.48914 0.67418 0.0
C106 C 0.43578 0.51946 0.72116 0.0
C107 C 0.45221 0.53627 0.74076 0.0
C108 C 0.44798 0.51166 0.70255 0.0
C109 C 0.47704 0.52115 0.7027 0.0
C110 C 0.48135 0.54559 0.74094 0.0
C111 C 0.4936 0.53802 0.72211 0.0
C112 C 0.48999 0.51214 0.68356 0.0
C113 C 0.4726 0.57477 0.64135 0.0
C114 C 0.4438 0.55909 0.6347 0.0
C115 C 0.48719 0.56112 0.64896 0.0
C116 C 0.4736 0.53155 0.64944 0.0
C117 C 0.43055 0.52928 0.63493 0.0
C118 C 0.44549 0.51574 0.64171 0.0
C119 C 0.48846 0.51706 0.65851 0.0
H120 H 0.59693 0.49618 0.62171 0.0
H121 H 0.57076 0.50641 0.65197 0.0
H122 H 0.52571 0.4651 0.57257 0.0
H123 H 0.49887 0.47377 0.60373 0.0
H124 H 0.52687 0.40987 0.67111 0.0
H125 H 0.50658 0.43817 0.65664 0.0
H126 H 0.57106 0.47125 0.72789 0.0
H127 H 0.55127 0.49996 0.71285 0.0
H128 H 0.41334 0.51204 0.72024 0.0
H129 H 0.43448 0.49758 0.68844 0.0
H130 H 0.49458 0.55812 0.75592 0.0
H131 H 0.51601 0.54519 0.7228 0.0
H132 H 0.48403 0.59764 0.64076 0.0
H133 H 0.50908 0.57365 0.65455 0.0
H134 H 0.4084 0.51616 0.63053 0.0
H135 H 0.43472 0.49283 0.64189 0.0
N136 N 0.5019 0.509 0.64226 0.0
N137 N 0.50365 0.4982 0.69045 0.0
C138 C 0.90801 0.43831 0.80576 0.0
C139 C 0.89879 0.45033 0.78789 0.0
C140 C 0.93553 0.4533 0.81486 0.0
C141 C 0.95438 0.48072 0.80642 0.0
C142 C 0.9178 0.47763 0.77922 0.0
C143 C 0.94541 0.49258 0.78827 0.0
C144 C 0.98364 0.49663 0.81597 0.0
C145 C 0.92827 0.49284 0.8775 0.0
C146 C 0.92864 0.47813 0.89838 0.0
C147 C 0.94795 0.49919 0.85886 0.0
C148 C 0.96818 0.49053 0.86039 0.0
C149 C 0.94893 0.46947 0.89994 0.0
C150 C 0.96862 0.47578 0.88119 0.0
C151 C 0.99001 0.49863 0.84114 0.0
C152 C 0.1119 0.57898 0.85169 0.0
C153 C 0.12487 0.56294 0.85752 0.0
C154 C 0.08404 0.5658 0.84322 0.0
C155 C 0.0684 0.53632 0.84087 0.0
C156 C 0.10883 0.53326 0.85511 0.0
C157 C 0.08076 0.5201 0.84723 0.0
C158 C 0.03918 0.52239 0.83166 0.0
C159 C 0.09795 0.54509 0.76717 0.0
C160 C 0.09679 0.56516 0.75186 0.0
C161 C 0.07717 0.53087 0.78492 0.0
C162 C 0.05497 0.53661 0.78786 0.0
C163 C 0.07413 0.57031 0.75449 0.0
C164 C 0.05341 0.55611 0.77223 0.0
C165 C 0.03289 0.52217 0.80671 0.0
H166 H 0.89383 0.41741 0.81294 0.0
H167 H 0.94211 0.44338 0.82844 0.0
H168 H 0.91143 0.48729 0.76522 0.0
H169 H 0.95968 0.51358 0.78129 0.0
H170 H 0.91282 0.49963 0.87557 0.0
H171 H 0.94762 0.51138 0.84342 0.0
H172 H 0.95006 0.45845 0.91593 0.0
H173 H 0.98428 0.46924 0.88296 0.0
H174 H 0.12313 0.60174 0.85379 0.0
H175 H 0.07464 0.57858 0.83858 0.0
H176 H 0.118 0.52008 0.85882 0.0
H177 H 0.06892 0.49728 0.84544 0.0
H178 H 0.1151 0.5406 0.76562 0.0
H179 H 0.07834 0.51521 0.79618 0.0
H180 H 0.07224 0.58517 0.74268 0.0
H181 H 0.03627 0.56062 0.77394 0.0
N182 N 0.00532 0.50907 0.79977 0.0
N183 N 0.01759 0.51099 0.84801 0.0
C184 C 0.50239 0.91417 0.95719 0.0
C185 C 0.47334 0.89743 0.95187 0.0
C186 C 0.51351 0.9418 0.9659 0.0
C187 C 0.49603 0.95353 0.96901 0.0
C188 C 0.45597 0.90954 0.955 0.0
C189 C 0.46731 0.93745 0.96311 0.0
C190 C 0.50804 0.98261 0.97843 0.0
C191 C 0.46736 0.92389 0.04186 0.0
C192 C 0.48733 0.92386 0.058 0.0
C193 C 0.47561 0.9451 0.02426 0.0
C194 C 0.50401 0.9665 0.02226 0.0
C195 C 0.51565 0.94577 0.05631 0.0
C196 C 0.52386 0.96693 0.03868 0.0
C197 C 0.51306 0.98883 0.0035 0.0
C198 C 0.55396 0.1126 0.00961 0.0
C199 C 0.58225 0.12508 0.01765 0.0
C200 C 0.53907 0.08425 0.00234 0.0
C201 C 0.5517 0.06741 0.00375 0.0
C202 C 0.59451 0.10767 0.01936 0.0
C203 C 0.57917 0.07905 0.01299 0.0
C204 C 0.5368 0.0381 0.99447 0.0
C205 C 0.58452 0.09438 0.93182 0.0
C206 C 0.56774 0.0944 0.91239 0.0
C207 C 0.57286 0.0742 0.95026 0.0
C208 C 0.54392 0.05408 0.95028 0.0
C209 C 0.53873 0.07412 0.91233 0.0
C210 C 0.52697 0.05408 0.93107 0.0
C211 C 0.53191 0.03188 0.96933 0.0
H212 H 0.51673 0.90614 0.95448 0.0
H213 H 0.53585 0.9541 0.97011 0.0
H214 H 0.43346 0.89739 0.9516 0.0
H215 H 0.45355 0.94627 0.96536 0.0
H216 H 0.4454 0.90736 0.04263 0.0
H217 H 0.45972 0.94489 0.01236 0.0
H218 H 0.53147 0.94673 0.06877 0.0
H219 H 0.54582 0.98348 0.03768 0.0
H220 H 0.54313 0.12462 0.00875 0.0
H221 H 0.5177 0.07547 0.99551 0.0
H222 H 0.61626 0.11612 0.02487 0.0
H223 H 0.58927 0.06632 0.01409 0.0
H224 H 0.60685 0.1098 0.9327 0.0
H225 H 0.58675 0.07394 0.96415 0.0
H226 H 0.52526 0.0732 0.89748 0.0
H227 H 0.50467 0.03844 0.93047 0.0
N228 N 0.51768 0.00431 0.96223 0.0
N229 N 0.5274 0.01639 0.01064 0.0
C230 C 0.49582 0.59826 0.18653 0.0
C231 C 0.47685 0.5874 0.20622 0.0
C232 C 0.50787 0.58303 0.17681 0.0
C233 C 0.50106 0.55654 0.1865 0.0
C234 C 0.47064 0.56121 0.21628 0.0
C235 C 0.48281 0.54605 0.20663 0.0
C236 C 0.51315 0.5399 0.17594 0.0
C237 C 0.45356 0.5412 0.12105 0.0
C238 C 0.46555 0.5535 0.09843 0.0
C239 C 0.46865 0.5347 0.13785 0.0
C240 C 0.49648 0.54113 0.13283 0.0
C241 C 0.49318 0.55924 0.09317 0.0
C242 C 0.50844 0.55308 0.11018 0.0
C243 C 0.51266 0.53436 0.15068 0.0
C244 C 0.56089 0.45618 0.14677 0.0
C245 C 0.58277 0.46978 0.1296 0.0
C246 C 0.54638 0.46945 0.15553 0.0
C247 C 0.5535 0.49659 0.14732 0.0
C248 C 0.58922 0.49658 0.12085 0.0
C249 C 0.57454 0.50974 0.12949 0.0
C250 C 0.5398 0.51175 0.15784 0.0
C251 C 0.59488 0.50591 0.21564 0.0
C252 C 0.58052 0.492 0.2371 0.0
C253 C 0.58179 0.51411 0.19818 0.0
C254 C 0.55373 0.50788 0.20142 0.0
C255 C 0.5526 0.4863 0.24049 0.0
C256 C 0.5394 0.4942 0.22285 0.0
C257 C 0.53952 0.51653 0.18315 0.0
H258 H 0.50093 0.61829 0.17828 0.0
H259 H 0.52239 0.59186 0.16162 0.0
H260 H 0.45641 0.55248 0.23167 0.0
H261 H 0.47754 0.52582 0.21458 0.0
H262 H 0.43249 0.53666 0.12593 0.0
H263 H 0.45841 0.52449 0.15475 0.0
H264 H 0.50294 0.56811 0.07577 0.0
H265 H 0.52968 0.55779 0.10568 0.0
H266 H 0.55551 0.4356 0.15395 0.0
H267 H 0.52993 0.45874 0.16906 0.0
H268 H 0.60569 0.50741 0.10738 0.0
H269 H 0.58021 0.53059 0.12279 0.0
H270 H 0.61629 0.51049 0.21226 0.0
H271 H 0.59373 0.52551 0.18224 0.0
H272 H 0.54107 0.47621 0.25698 0.0
H273 H 0.5179 0.48955 0.22595 0.0
N274 N 0.5262 0.53042 0.19118 0.0
N275 N 0.52638 0.52084 0.14257 0.0
O276 O 0.61764 0.39712 0.44838 0.0
Cd277 Cd 0.62006 0.37806 0.4166 0.0
Cd278 Cd 0.67525 0.41924 0.41796 0.0
O279 O 0.66309 0.42871 0.45069 0.0
O280 O 0.59202 0.33661 0.41776 0.0
O281 O 0.63843 0.35432 0.41765 0.0
C282 C 0.61333 0.33247 0.41841 0.0
C283 C 0.71844 0.42004 0.41505 0.0
C284 C 0.63818 0.41759 0.45938 0.0
C285 C 0.63927 0.41861 0.37537 0.0
O286 O 0.66285 0.43051 0.38646 0.0
O287 O 0.61849 0.39616 0.38391 0.0
O288 O 0.71735 0.44302 0.41677 0.0
O289 O 0.69491 0.39633 0.41585 0.0
O290 O 0.23686 0.61211 0.60865 0.0
Cd291 Cd 0.26216 0.6145 0.57961 0.0
Cd292 Cd 0.26132 0.66255 0.56933 0.0
O293 O 0.24028 0.65366 0.60234 0.0
O294 O 0.27893 0.59009 0.58695 0.0
O295 O 0.30423 0.63679 0.58432 0.0
C296 C 0.30318 0.61295 0.58825 0.0
C297 C 0.3008 0.70717 0.56276 0.0
C298 C 0.23135 0.63127 0.61501 0.0
C299 C 0.23478 0.61578 0.53248 0.0
O300 O 0.23891 0.63991 0.53905 0.0
O301 O 0.24362 0.60261 0.54561 0.0
O302 O 0.27551 0.70335 0.56202 0.0
O303 O 0.30368 0.68557 0.56757 0.0
O304 O 0.64915 0.24113 0.76445 0.0
Cd305 Cd 0.66241 0.2676 0.73459 0.0
Cd306 Cd 0.60739 0.2539 0.73669 0.0
O307 O 0.60522 0.23217 0.76826 0.0
O308 O 0.70448 0.28518 0.73571 0.0
O309 O 0.68274 0.30992 0.73925 0.0
C310 C 0.70603 0.30928 0.73907 0.0
C311 C 0.6027 0.29396 0.73659 0.0
C312 C 0.62562 0.22915 0.77566 0.0
C313 C 0.62552 0.23552 0.69202 0.0
O314 O 0.60486 0.23419 0.70388 0.0
O315 O 0.65045 0.249 0.70064 0.0
O316 O 0.58066 0.26893 0.73671 0.0
O317 O 0.62731 0.29604 0.73714 0.0
O318 O 0.41329 0.63587 0.95165 0.0
Cd319 Cd 0.412 0.65353 0.91867 0.0
Cd320 Cd 0.35691 0.61236 0.92003 0.0
O321 O 0.36756 0.60558 0.95448 0.0
O322 O 0.44034 0.69497 0.91949 0.0
O323 O 0.39404 0.67762 0.91694 0.0
C324 C 0.41917 0.69931 0.91836 0.0
C325 C 0.31507 0.61325 0.91312 0.0
C326 C 0.39236 0.61668 0.96334 0.0
C327 C 0.39415 0.60994 0.87995 0.0
O328 O 0.37053 0.59825 0.89105 0.0
O329 O 0.41431 0.63363 0.88725 0.0
O330 O 0.31464 0.59 0.91825 0.0
O331 O 0.33925 0.63627 0.91281 0.0
O332 O 0.78992 0.38624 0.04267 0.0
Cd333 Cd 0.76449 0.36288 0.07148 0.0
Cd334 Cd 0.76493 0.41156 0.08223 0.0
O335 O 0.78709 0.42458 0.0498 0.0
O336 O 0.74805 0.32174 0.06391 0.0
O337 O 0.72245 0.34282 0.06659 0.0
C338 C 0.72372 0.32016 0.06256 0.0
C339 C 0.72462 0.41557 0.08793 0.0
C340 C 0.796 0.41124 0.03689 0.0
C341 C 0.79158 0.39129 0.11886 0.0
O342 O 0.78689 0.41103 0.11268 0.0
O343 O 0.78316 0.36953 0.10543 0.0
O344 O 0.74966 0.43733 0.08959 0.0
O345 O 0.7225 0.39148 0.08279 0.0
O346 O 0.42386 0.78563 0.20988 0.0
Cd347 Cd 0.41214 0.76475 0.24281 0.0
Cd348 Cd 0.36263 0.76255 0.2309 0.0
O349 O 0.3834 0.78235 0.19899 0.0
O350 O 0.43876 0.7501 0.24829 0.0
O351 O 0.39275 0.72242 0.2427 0.0
C352 C 0.41734 0.72495 0.24579 0.0
C353 C 0.31933 0.72045 0.23131 0.0
C354 C 0.40922 0.79039 0.19462 0.0
C355 C 0.39263 0.79425 0.27677 0.0
O356 O 0.37226 0.78688 0.26194 0.0
O357 O 0.41119 0.78704 0.27307 0.0
O358 O 0.32071 0.74433 0.22681 0.0
O359 O 0.34273 0.72041 0.23451 0.0
H360 H 0.15664 0.63218 0.26766 0.0
H361 H 0.16527 0.55737 0.26979 0.0
H362 H 0.21422 0.58548 0.25442 0.0
H363 H 0.19881 0.66309 0.2126 0.0
H364 H 0.21418 0.69876 0.22398 0.0
H365 H 0.17925 0.6723 0.23358 0.0
H366 H 0.19494 0.68257 0.27876 0.0
H367 H 0.22985 0.70907 0.26931 0.0
H368 H 0.22527 0.68039 0.28866 0.0
H369 H 0.26354 0.6227 0.24211 0.0
H370 H 0.30894 0.66589 0.23292 0.0
H371 H 0.26759 0.71603 0.23792 0.0
C372 C 0.16879 0.62168 0.26479 0.0
C373 C 0.15713 0.59256 0.26989 0.0
C374 C 0.17365 0.57957 0.26572 0.0
C375 C 0.2015 0.59538 0.25707 0.0
C376 C 0.21243 0.62411 0.25246 0.0
C377 C 0.19651 0.63709 0.25602 0.0
C378 C 0.2135 0.66843 0.25045 0.0
C379 C 0.20067 0.67609 0.22887 0.0
C380 C 0.21604 0.68615 0.27315 0.0
C381 C 0.24166 0.6712 0.2437 0.0
C382 C 0.24061 0.64539 0.24489 0.0
C383 C 0.26451 0.64296 0.24079 0.0
C384 C 0.2902 0.66759 0.2356 0.0
C385 C 0.29174 0.69426 0.23445 0.0
C386 C 0.267 0.69589 0.23823 0.0
H387 H 0.52836 0.16734 0.44883 0.0
H388 H 0.60638 0.16631 0.43638 0.0
H389 H 0.63043 0.21701 0.4258 0.0
H390 H 0.53751 0.21526 0.39889 0.0
H391 H 0.52227 0.23276 0.41572 0.0
H392 H 0.51107 0.19621 0.42185 0.0
H393 H 0.52381 0.20823 0.46742 0.0
H394 H 0.53512 0.2448 0.46144 0.0
H395 H 0.55903 0.23538 0.47564 0.0
H396 H 0.64653 0.26838 0.41822 0.0
H397 H 0.65312 0.31631 0.41322 0.0
H398 H 0.56416 0.28335 0.42899 0.0
C399 C 0.55038 0.1776 0.4435 0.0
C400 C 0.56545 0.16274 0.44355 0.0
C401 C 0.59443 0.17725 0.43687 0.0
C402 C 0.60825 0.20603 0.43065 0.0
C403 C 0.59281 0.22004 0.43101 0.0
C404 C 0.56447 0.20628 0.43711 0.0
C405 C 0.55283 0.22632 0.43646 0.0
C406 C 0.52954 0.21708 0.41707 0.0
C407 C 0.54207 0.22883 0.46174 0.0
C408 C 0.57912 0.25357 0.42925 0.0
C409 C 0.60196 0.2495 0.42621 0.0
C410 C 0.62874 0.27177 0.42035 0.0
C411 C 0.63229 0.29893 0.41759 0.0
C412 C 0.60914 0.30356 0.42057 0.0
C413 C 0.58221 0.28046 0.42633 0.0
H414 H 0.39722 0.54015 0.60417 0.0
H415 H 0.45238 0.61088 0.65094 0.0
H416 H 0.42504 0.63408 0.64095 0.0
H417 H 0.38193 0.57841 0.55883 0.0
H418 H 0.34524 0.55152 0.55634 0.0
H419 H 0.37125 0.54189 0.5646 0.0
H420 H 0.34299 0.51762 0.6038 0.0
H421 H 0.31685 0.52705 0.59562 0.0
H422 H 0.33424 0.53754 0.62478 0.0
H423 H 0.39094 0.64952 0.6264 0.0
H424 H 0.34991 0.65323 0.61213 0.0
H425 H 0.3139 0.56984 0.57961 0.0
C426 C 0.40369 0.56041 0.61258 0.0
C427 C 0.42751 0.5736 0.62819 0.0
C428 C 0.43497 0.60044 0.6383 0.0
C429 C 0.41936 0.61381 0.6329 0.0
C430 C 0.39595 0.59999 0.6177 0.0
C431 C 0.3879 0.57369 0.60797 0.0
C432 C 0.3605 0.56222 0.59387 0.0
C433 C 0.36501 0.55829 0.56681 0.0
C434 C 0.33728 0.53447 0.6052 0.0
C435 C 0.35425 0.58608 0.59739 0.0
C436 C 0.37527 0.60796 0.61073 0.0
C437 C 0.3743 0.63247 0.61602 0.0
C438 C 0.35101 0.63443 0.60779 0.0
C439 C 0.32875 0.61176 0.59494 0.0
C440 C 0.33056 0.58741 0.58957 0.0
H441 H 0.86886 0.39425 0.77527 0.0
H442 H 0.86228 0.47018 0.77932 0.0
H443 H 0.81275 0.44297 0.76511 0.0
H444 H 0.82542 0.36455 0.72128 0.0
H445 H 0.80962 0.32871 0.73231 0.0
H446 H 0.8449 0.35457 0.74157 0.0
H447 H 0.82991 0.34405 0.78692 0.0
H448 H 0.79463 0.31817 0.7778 0.0
H449 H 0.80018 0.34686 0.79762 0.0
H450 H 0.76286 0.40652 0.75284 0.0
H451 H 0.71716 0.3641 0.74273 0.0
H452 H 0.75706 0.31252 0.74646 0.0
C453 C 0.85702 0.40518 0.77316 0.0
C454 C 0.86942 0.43434 0.77841 0.0
C455 C 0.8533 0.44792 0.77514 0.0
C456 C 0.82513 0.43262 0.76718 0.0
C457 C 0.81349 0.40382 0.76239 0.0
C458 C 0.829 0.3903 0.76515 0.0
C459 C 0.81143 0.35908 0.75937 0.0
C460 C 0.82357 0.35128 0.73732 0.0
C461 C 0.80889 0.34098 0.78176 0.0
C462 C 0.78346 0.35702 0.75328 0.0
C463 C 0.78503 0.38303 0.75506 0.0
C464 C 0.76147 0.3861 0.75117 0.0
C465 C 0.7356 0.36189 0.74546 0.0
C466 C 0.73357 0.33504 0.74366 0.0
C467 C 0.75795 0.33277 0.74743 0.0
H468 H 0.49074 0.85913 0.96352 0.0
H469 H 0.42856 0.8675 0.92037 0.0
H470 H 0.40789 0.8179 0.90738 0.0
H471 H 0.50226 0.81698 0.91871 0.0
H472 H 0.50727 0.79607 0.94145 0.0
H473 H 0.51655 0.83202 0.94813 0.0
H474 H 0.48393 0.81487 0.98608 0.0
H475 H 0.47447 0.77887 0.97949 0.0
H476 H 0.44727 0.7882 0.98258 0.0
H477 H 0.39243 0.76635 0.90061 0.0
H478 H 0.38601 0.71818 0.89803 0.0
H479 H 0.46143 0.74533 0.94165 0.0
C480 C 0.47309 0.85091 0.95101 0.0
C481 C 0.46127 0.86755 0.94327 0.0
C482 C 0.43773 0.85528 0.92722 0.0
C483 C 0.42593 0.82709 0.91949 0.0
C484 C 0.43813 0.81145 0.92755 0.0
C485 C 0.46144 0.82304 0.94268 0.0
C486 C 0.471 0.80194 0.94826 0.0
C487 C 0.50105 0.81238 0.93855 0.0
C488 C 0.46904 0.7956 0.97573 0.0
C489 C 0.44928 0.77654 0.93405 0.0
C490 C 0.43029 0.78235 0.92245 0.0
C491 C 0.40741 0.76169 0.90932 0.0
C492 C 0.40389 0.73442 0.90799 0.0
C493 C 0.42345 0.72824 0.91934 0.0
C494 C 0.44649 0.74966 0.93239 0.0
H495 H 0.6403 0.49476 0.12462 0.0
H496 H 0.56263 0.41446 0.11639 0.0
H497 H 0.59031 0.39191 0.104 0.0
H498 H 0.67767 0.48681 0.07335 0.0
H499 H 0.71126 0.50342 0.08883 0.0
H500 H 0.6852 0.51325 0.09637 0.0
H501 H 0.68741 0.50127 0.14172 0.0
H502 H 0.71342 0.49135 0.13432 0.0
H503 H 0.68127 0.4666 0.14971 0.0
H504 H 0.62675 0.37803 0.09312 0.0
H505 H 0.66902 0.37378 0.0851 0.0
H506 H 0.72273 0.46326 0.10054 0.0
C507 C 0.62908 0.47251 0.11988 0.0
C508 C 0.59928 0.45637 0.12137 0.0
C509 C 0.58545 0.42718 0.11552 0.0
C510 C 0.60098 0.41423 0.10837 0.0
C511 C 0.63035 0.43074 0.10721 0.0
C512 C 0.64426 0.45924 0.11284 0.0
C513 C 0.676 0.47208 0.11082 0.0
C514 C 0.68824 0.49526 0.09117 0.0
C515 C 0.69036 0.48349 0.13562 0.0
C516 C 0.67781 0.44637 0.10315 0.0
C517 C 0.65126 0.42273 0.10113 0.0
C518 C 0.64763 0.39642 0.09459 0.0
C519 C 0.67178 0.39421 0.09007 0.0
C520 C 0.6992 0.41817 0.09215 0.0
C521 C 0.70209 0.44455 0.09871 0.0
H522 H 0.37976 0.87081 0.52745 0.0
H523 H 0.45793 0.86827 0.52431 0.0
H524 H 0.43224 0.81838 0.53754 0.0
H525 H 0.34958 0.82548 0.5798 0.0
H526 H 0.31412 0.80833 0.5678 0.0
H527 H 0.33896 0.84426 0.55928 0.0
H528 H 0.33076 0.83014 0.51366 0.0
H529 H 0.30587 0.79419 0.52203 0.0
H530 H 0.33573 0.80165 0.50299 0.0
H531 H 0.39756 0.7681 0.55004 0.0
H532 H 0.35654 0.72138 0.56011 0.0
H533 H 0.30109 0.7567 0.5537 0.0
C534 C 0.39154 0.8598 0.52941 0.0
C535 C 0.42097 0.87364 0.5249 0.0
C536 C 0.43551 0.85839 0.52804 0.0
C537 C 0.42106 0.82996 0.53542 0.0
C538 C 0.39205 0.81699 0.53956 0.0
C539 C 0.37745 0.83141 0.53662 0.0
C540 C 0.34619 0.81243 0.54155 0.0
C541 C 0.33667 0.82327 0.56341 0.0
C542 C 0.32861 0.80943 0.5187 0.0
C543 C 0.34543 0.78497 0.54754 0.0
C544 C 0.3721 0.78805 0.54643 0.0
C545 C 0.37658 0.76547 0.55101 0.0
C546 C 0.35316 0.73901 0.55673 0.0
C547 C 0.3256 0.73535 0.5577 0.0
C548 C 0.32186 0.75877 0.55314 0.0
H549 H 0.52462 0.38058 0.70559 0.0
H550 H 0.60549 0.45748 0.71456 0.0
H551 H 0.62706 0.42902 0.72709 0.0
H552 H 0.53188 0.34193 0.75651 0.0
H553 H 0.51486 0.30857 0.7406 0.0
H554 H 0.50548 0.33511 0.7337 0.0
H555 H 0.51717 0.3335 0.68814 0.0
H556 H 0.52655 0.30696 0.69488 0.0
H557 H 0.55159 0.33924 0.67981 0.0
H558 H 0.64046 0.39199 0.73609 0.0
H559 H 0.64449 0.3492 0.74157 0.0
H560 H 0.55476 0.29655 0.72696 0.0
C561 C 0.54686 0.39146 0.71022 0.0
C562 C 0.56336 0.42129 0.70914 0.0
C563 C 0.59234 0.43469 0.71557 0.0
C564 C 0.60481 0.4187 0.72261 0.0
C565 C 0.58799 0.38933 0.72326 0.0
C566 C 0.55961 0.37584 0.71735 0.0
C567 C 0.54638 0.344 0.71888 0.0
C568 C 0.52329 0.33168 0.7386 0.0
C569 C 0.53475 0.33012 0.69395 0.0
C570 C 0.57185 0.34164 0.72619 0.0
C571 C 0.59563 0.36803 0.7287 0.0
C572 C 0.62193 0.37122 0.7344 0.0
C573 C 0.62401 0.34679 0.73745 0.0
C574 C 0.59992 0.31953 0.73484 0.0
C575 C 0.57349 0.31706 0.72937 0.0
H576 H 0.1498 0.54253 0.88931 0.0
H577 H 0.16893 0.6152 0.84384 0.0
H578 H 0.21867 0.63792 0.85668 0.0
H579 H 0.1996 0.57949 0.938 0.0
H580 H 0.20915 0.55247 0.94133 0.0
H581 H 0.17429 0.54318 0.93091 0.0
H582 H 0.18134 0.52008 0.89225 0.0
H583 H 0.2161 0.52912 0.90261 0.0
H584 H 0.21161 0.54057 0.87299 0.0
H585 H 0.26699 0.65218 0.87325 0.0
H586 H 0.31054 0.65476 0.8892 0.0
H587 H 0.26044 0.57107 0.92064 0.0
C588 C 0.1643 0.56317 0.88188 0.0
C589 C 0.155 0.57704 0.86568 0.0
C590 C 0.17503 0.60426 0.85678 0.0
C591 C 0.20349 0.61736 0.86385 0.0
C592 C 0.21183 0.60293 0.87965 0.0
C593 C 0.19286 0.57631 0.88834 0.0
C594 C 0.20759 0.56434 0.90351 0.0
C595 C 0.19703 0.5596 0.93001 0.0
C596 C 0.20394 0.53691 0.89215 0.0
C597 C 0.23788 0.58824 0.90171 0.0
C598 C 0.23983 0.61054 0.88825 0.0
C599 C 0.26572 0.63487 0.88386 0.0
C600 C 0.29032 0.63618 0.89305 0.0
C601 C 0.28886 0.61311 0.90612 0.0
C602 C 0.26222 0.58904 0.91073 0.0
H603 H 0.62811 0.15301 0.04907 0.0
H604 H 0.57576 0.16865 0.99884 0.0
H605 H 0.60352 0.21932 0.00796 0.0
H606 H 0.64301 0.20804 0.09264 0.0
H607 H 0.67944 0.21734 0.0964 0.0
H608 H 0.65328 0.18164 0.08844 0.0
H609 H 0.6826 0.18406 0.05042 0.0
H610 H 0.7089 0.21969 0.05832 0.0
H611 H 0.69251 0.21225 0.02868 0.0
H612 H 0.6374 0.26893 0.0223 0.0
H613 H 0.6782 0.31373 0.03681 0.0
H614 H 0.71215 0.26632 0.07263 0.0
C615 C 0.62235 0.16681 0.0397 0.0
C616 C 0.59905 0.1561 0.02345 0.0
C617 C 0.59261 0.1756 0.01206 0.0
C618 C 0.6085 0.20469 0.01693 0.0
C619 C 0.63129 0.21431 0.03285 0.0
C620 C 0.63851 0.19601 0.04372 0.0
C621 C 0.66548 0.21197 0.05841 0.0
C622 C 0.65996 0.20429 0.08558 0.0
C623 C 0.68874 0.20668 0.04835 0.0
C624 C 0.67238 0.24215 0.05394 0.0
C625 C 0.65204 0.24302 0.0396 0.0
C626 C 0.65354 0.26852 0.03342 0.0
C627 C 0.67669 0.29381 0.04179 0.0
C628 C 0.69831 0.29339 0.05566 0.0
C629 C 0.69599 0.2672 0.06188 0.0
H630 H 0.50133 0.64444 0.21506 0.0
H631 H 0.42121 0.56581 0.21862 0.0
H632 H 0.39774 0.59209 0.23246 0.0
H633 H 0.48959 0.67812 0.26811 0.0
H634 H 0.50681 0.71266 0.2542 0.0
H635 H 0.51762 0.68739 0.24632 0.0
H636 H 0.50867 0.69223 0.20067 0.0
H637 H 0.49792 0.71753 0.20839 0.0
H638 H 0.4745 0.68627 0.19125 0.0
H639 H 0.38233 0.62744 0.24241 0.0
H640 H 0.3764 0.66908 0.24852 0.0
H641 H 0.46677 0.72442 0.23933 0.0
C642 C 0.47887 0.63273 0.21887 0.0
C643 C 0.4631 0.60305 0.21581 0.0
C644 C 0.43378 0.58849 0.22115 0.0
C645 C 0.42026 0.60324 0.22894 0.0
C646 C 0.43638 0.63252 0.23153 0.0
C647 C 0.46508 0.64709 0.2268 0.0
C648 C 0.4774 0.67864 0.23012 0.0
C649 C 0.49914 0.68986 0.25093 0.0
C650 C 0.49038 0.6946 0.20618 0.0
C651 C 0.45103 0.67963 0.23691 0.0
C652 C 0.42759 0.65281 0.23772 0.0
C653 C 0.40059 0.64852 0.24217 0.0
C654 C 0.39742 0.67229 0.2456 0.0
C655 C 0.42114 0.69996 0.24466 0.0
C656 C 0.44829 0.70353 0.24061 0.0
H657 H 0.87953 0.49277 0.3741 0.0
H658 H 0.87177 0.40968 0.37534 0.0
H659 H 0.82309 0.38925 0.39139 0.0
H660 H 0.8389 0.48436 0.42926 0.0
H661 H 0.82294 0.50374 0.41706 0.0
H662 H 0.85765 0.51189 0.40707 0.0
H663 H 0.84056 0.50366 0.36219 0.0
H664 H 0.80586 0.49554 0.37204 0.0
H665 H 0.81012 0.47047 0.35373 0.0
H666 H 0.77391 0.37751 0.40463 0.0
H667 H 0.72884 0.37571 0.41468 0.0
H668 H 0.76955 0.4667 0.40516 0.0
C669 C 0.86762 0.47028 0.37779 0.0
C670 C 0.87944 0.4528 0.37347 0.0
C671 C 0.86325 0.42352 0.37877 0.0
C672 C 0.83556 0.41171 0.38781 0.0
C673 C 0.82447 0.42952 0.39162 0.0
C674 C 0.84008 0.45821 0.3869 0.0
C675 C 0.82309 0.47268 0.39187 0.0
C676 C 0.83645 0.49445 0.41255 0.0
C677 C 0.81971 0.48638 0.36857 0.0
C678 C 0.79528 0.44758 0.39972 0.0
C679 C 0.79646 0.42287 0.39954 0.0
C680 C 0.77285 0.39679 0.40508 0.0
C681 C 0.74735 0.39596 0.41076 0.0
C682 C 0.74572 0.42107 0.41088 0.0
C683 C 0.77016 0.44717 0.40554 0.0
H684 H 0.13238 0.59523 0.4209 0.0
H685 H 0.12791 0.51473 0.40706 0.0
H686 H 0.16238 0.52467 0.43994 0.0
H687 H 0.2071 0.63502 0.43599 0.0
H688 H 0.20228 0.65507 0.45973 0.0
H689 H 0.17846 0.64241 0.43414 0.0
H690 H 0.13585 0.617 0.46356 0.0
H691 H 0.15951 0.62962 0.48923 0.0
H692 H 0.13538 0.59225 0.48556 0.0
H693 H 0.19556 0.54221 0.47556 0.0
H694 H 0.2249 0.56601 0.51159 0.0
H695 H 0.20735 0.63485 0.50266 0.0
C696 C 0.13862 0.57967 0.42476 0.0
C697 C 0.12751 0.55426 0.41122 0.0
C698 C 0.13647 0.53458 0.41681 0.0
C699 C 0.15595 0.53997 0.43556 0.0
C700 C 0.16634 0.56513 0.44859 0.0
C701 C 0.15803 0.58468 0.44344 0.0
C702 C 0.17172 0.60967 0.46071 0.0
C703 C 0.19104 0.63717 0.44681 0.0
C704 C 0.14927 0.61227 0.47565 0.0
C705 C 0.18874 0.60091 0.47657 0.0
C706 C 0.18544 0.57523 0.46919 0.0
C707 C 0.19844 0.56242 0.48143 0.0
C708 C 0.21506 0.57612 0.5019 0.0
C709 C 0.21854 0.60236 0.50997 0.0
C710 C 0.20533 0.61494 0.4969 0.0
H711 H 0.53188 0.1243 0.58928 0.0
H712 H 0.60948 0.13149 0.56117 0.0
H713 H 0.63697 0.16867 0.59155 0.0
H714 H 0.56046 0.19937 0.60317 0.0
H715 H 0.54 0.19227 0.63072 0.0
H716 H 0.52658 0.16752 0.60575 0.0
H717 H 0.52106 0.1274 0.6345 0.0
H718 H 0.53442 0.15199 0.65952 0.0
H719 H 0.55121 0.13182 0.65154 0.0
H720 H 0.65579 0.20362 0.62579 0.0
H721 H 0.66465 0.23268 0.66268 0.0
H722 H 0.57468 0.20247 0.66889 0.0
C723 C 0.55469 0.13402 0.58933 0.0
C724 C 0.56861 0.12509 0.57289 0.0
C725 C 0.59843 0.1379 0.57375 0.0
C726 C 0.61421 0.15914 0.59081 0.0
C727 C 0.59984 0.16731 0.60689 0.0
C728 C 0.57076 0.15512 0.60636 0.0
C729 C 0.56042 0.16672 0.62649 0.0
C730 C 0.54602 0.18241 0.61589 0.0
C731 C 0.54061 0.14307 0.64405 0.0
C732 C 0.5882 0.18705 0.63862 0.0
C733 C 0.61069 0.18726 0.62687 0.0
C734 C 0.63837 0.20376 0.63508 0.0
C735 C 0.64318 0.22021 0.65607 0.0
C736 C 0.62039 0.21993 0.66873 0.0
C737 C 0.5926 0.20332 0.65961 0.0
H738 H 0.47356 0.58589 0.76734 0.0
H739 H 0.40041 0.5015 0.76131 0.0
H740 H 0.37753 0.51212 0.79506 0.0
H741 H 0.47348 0.58844 0.83299 0.0
H742 H 0.48437 0.62552 0.83435 0.0
H743 H 0.49478 0.61189 0.8089 0.0
H744 H 0.4725 0.6321 0.77914 0.0
H745 H 0.46195 0.64572 0.8045 0.0
H746 H 0.43593 0.62238 0.78281 0.0
H747 H 0.36248 0.53122 0.82928 0.0
H748 H 0.3566 0.55716 0.86328 0.0
H749 H 0.44015 0.62882 0.84896 0.0
C750 C 0.4528 0.56957 0.77318 0.0
C751 C 0.4387 0.54294 0.76134 0.0
C752 C 0.41144 0.52229 0.76956 0.0
C753 C 0.3983 0.52803 0.78888 0.0
C754 C 0.41272 0.55444 0.80001 0.0
C755 C 0.43941 0.57485 0.79262 0.0
C756 C 0.45042 0.60127 0.80821 0.0
C757 C 0.47736 0.60711 0.82193 0.0
C758 C 0.45549 0.62688 0.79274 0.0
C759 C 0.42574 0.59241 0.82553 0.0
C760 C 0.40421 0.56536 0.82031 0.0
C761 C 0.37918 0.55241 0.8336 0.0
C762 C 0.37607 0.5674 0.8529 0.0
C763 C 0.39792 0.59509 0.85889 0.0
C764 C 0.42307 0.60772 0.8449 0.0
H765 H 0.8998 0.42995 0.92639 0.0
H766 H 0.91219 0.51438 0.91665 0.0
H767 H 0.87852 0.50576 0.94994 0.0
H768 H 0.82541 0.39526 0.94053 0.0
H769 H 0.82711 0.37227 0.9632 0.0
H770 H 0.8518 0.38473 0.93819 0.0
H771 H 0.89363 0.40511 0.96863 0.0
H772 H 0.86908 0.39261 0.99373 0.0
H773 H 0.89576 0.42947 0.99188 0.0
H774 H 0.84415 0.48847 0.98458 0.0
H775 H 0.81191 0.4639 0.01886 0.0
H776 H 0.82212 0.39082 0.00673 0.0
C777 C 0.89555 0.44668 0.93134 0.0
C778 C 0.90852 0.47278 0.91872 0.0
C779 C 0.90217 0.49403 0.92569 0.0
C780 C 0.88317 0.4894 0.94468 0.0
C781 C 0.87068 0.46343 0.95663 0.0
C782 C 0.87662 0.44243 0.9503 0.0
C783 C 0.86053 0.41656 0.96634 0.0
C784 C 0.83999 0.39068 0.95115 0.0
C785 C 0.88097 0.4106 0.98102 0.0
C786 C 0.84476 0.4264 0.98273 0.0
C787 C 0.85088 0.45347 0.97674 0.0
C788 C 0.83915 0.46724 0.98942 0.0
C789 C 0.82083 0.45308 0.00888 0.0
C790 C 0.81439 0.42538 0.01554 0.0
C791 C 0.82647 0.4119 0.00209 0.0
H792 H 0.43921 0.89948 0.08632 0.0
H793 H 0.51606 0.89691 0.07171 0.0
H794 H 0.50294 0.86056 0.10356 0.0
H795 H 0.43926 0.89204 0.1502 0.0
H796 H 0.40148 0.8698 0.15296 0.0
H797 H 0.41616 0.89462 0.12819 0.0
H798 H 0.38939 0.85394 0.09719 0.0
H799 H 0.37461 0.82896 0.12189 0.0
H800 H 0.39411 0.82353 0.09803 0.0
H801 H 0.48309 0.82676 0.13833 0.0
H802 H 0.4576 0.79727 0.1738 0.0
H803 H 0.39257 0.82021 0.16509 0.0
C804 C 0.45306 0.89094 0.08952 0.0
C805 C 0.47875 0.90115 0.07654 0.0
C806 C 0.4965 0.88975 0.08164 0.0
C807 C 0.48912 0.86893 0.09956 0.0
C808 C 0.46381 0.85953 0.11212 0.0
C809 C 0.44597 0.87004 0.1073 0.0
C810 C 0.42044 0.85696 0.12403 0.0
C811 C 0.41929 0.87971 0.13978 0.0
C812 C 0.39302 0.83983 0.10941 0.0
C813 C 0.42698 0.83779 0.13928 0.0
C814 C 0.45206 0.83957 0.13201 0.0
C815 C 0.46328 0.82496 0.14404 0.0
C816 C 0.44866 0.80831 0.1642 0.0
C817 C 0.42301 0.8063 0.17213 0.0
C818 C 0.41189 0.82098 0.15924 0.0
H819 H 0.55752 0.44451 0.26644 0.0
H820 H 0.63602 0.5223 0.25143 0.0
H821 H 0.65985 0.51011 0.28322 0.0
H822 H 0.56582 0.44793 0.33107 0.0
H823 H 0.55035 0.41025 0.33496 0.0
H824 H 0.5398 0.42392 0.30971 0.0
H825 H 0.55313 0.3958 0.27966 0.0
H826 H 0.56382 0.3821 0.30483 0.0
H827 H 0.58828 0.40063 0.28042 0.0
H828 H 0.67492 0.49073 0.31737 0.0
H829 H 0.68007 0.46623 0.35287 0.0
H830 H 0.59143 0.40172 0.34731 0.0
C831 C 0.57971 0.45906 0.26984 0.0
C832 C 0.59489 0.48428 0.25615 0.0
C833 C 0.62399 0.50255 0.26116 0.0
C834 C 0.63772 0.4959 0.27933 0.0
C835 C 0.6221 0.47097 0.29245 0.0
C836 C 0.59373 0.45287 0.28805 0.0
C837 C 0.58161 0.42803 0.30556 0.0
C838 C 0.558 0.42752 0.32125 0.0
C839 C 0.5711 0.39998 0.29179 0.0
C840 C 0.60758 0.43524 0.32067 0.0
C841 C 0.63072 0.45997 0.31261 0.0
C842 C 0.65699 0.47129 0.32382 0.0
C843 C 0.65966 0.45717 0.34402 0.0
C844 C 0.63615 0.432 0.35297 0.0
C845 C 0.60983 0.42081 0.34091 0.0
H846 H 0.47092 0.90805 0.38242 0.0
H847 H 0.39236 0.90857 0.3929 0.0
H848 H 0.3696 0.87165 0.36144 0.0
H849 H 0.46552 0.89855 0.31817 0.0
H850 H 0.48016 0.87538 0.3175 0.0
H851 H 0.49014 0.90131 0.34136 0.0
H852 H 0.47423 0.86179 0.37385 0.0
H853 H 0.46416 0.8357 0.35007 0.0
H854 H 0.43876 0.83201 0.37288 0.0
H855 H 0.35577 0.83603 0.32813 0.0
H856 H 0.35167 0.80401 0.29474 0.0
H857 H 0.43879 0.82537 0.30639 0.0
C858 C 0.44883 0.90016 0.37832 0.0
C859 C 0.43346 0.91132 0.39009 0.0
C860 C 0.40471 0.90069 0.38389 0.0
C861 C 0.39152 0.87955 0.36619 0.0
C862 C 0.4073 0.86912 0.3549 0.0
C863 C 0.4353 0.87899 0.36071 0.0
C864 C 0.44762 0.8646 0.34541 0.0
C865 C 0.47231 0.88625 0.32968 0.0
C866 C 0.45672 0.84751 0.36152 0.0
C867 C 0.42222 0.84531 0.32991 0.0
C868 C 0.39919 0.84823 0.33577 0.0
C869 C 0.37359 0.83341 0.32347 0.0
C870 C 0.37151 0.8153 0.30449 0.0
C871 C 0.39488 0.81209 0.29796 0.0
C872 C 0.42046 0.82712 0.31109 0.0
H873 H 0.54438 0.4351 0.56231 0.0
H874 H 0.61999 0.51248 0.584 0.0
H875 H 0.64762 0.50343 0.55346 0.0
H876 H 0.57766 0.39362 0.54994 0.0
H877 H 0.5561 0.37637 0.52365 0.0
H878 H 0.54231 0.38813 0.54802 0.0
H879 H 0.53157 0.41765 0.51739 0.0
H880 H 0.54514 0.40585 0.49292 0.0
H881 H 0.55953 0.44317 0.49823 0.0
H882 H 0.66703 0.48651 0.52021 0.0
H883 H 0.67639 0.46418 0.48508 0.0
H884 H 0.58785 0.39876 0.48384 0.0
C885 C 0.5667 0.45027 0.56058 0.0
C886 C 0.57998 0.47439 0.57583 0.0
C887 C 0.60936 0.49352 0.57299 0.0
C888 C 0.62525 0.48866 0.55557 0.0
C889 C 0.6115 0.46465 0.54098 0.0
C890 C 0.58287 0.44586 0.54316 0.0
C891 C 0.57309 0.42218 0.52465 0.0
C892 C 0.56162 0.39337 0.53733 0.0
C893 C 0.55103 0.42223 0.50726 0.0
C894 C 0.60068 0.43074 0.5116 0.0
C895 C 0.62261 0.45517 0.52145 0.0
C896 C 0.65004 0.46735 0.51234 0.0
C897 C 0.65514 0.45445 0.49239 0.0
C898 C 0.63288 0.42969 0.48163 0.0
C899 C 0.60537 0.41762 0.49162 0.0
H900 H 0.12225 0.5442 0.72152 0.0
H901 H 0.12154 0.62127 0.73979 0.0
H902 H 0.15689 0.6468 0.70766 0.0
H903 H 0.19787 0.57801 0.70861 0.0
H904 H 0.19313 0.55438 0.68379 0.0
H905 H 0.16837 0.54234 0.70875 0.0
H906 H 0.12716 0.52831 0.67837 0.0
H907 H 0.15178 0.54037 0.65334 0.0
H908 H 0.12843 0.55446 0.65754 0.0
H909 H 0.19081 0.66353 0.67257 0.0
H910 H 0.22145 0.67049 0.63714 0.0
H911 H 0.20115 0.58287 0.64227 0.0
C912 C 0.12984 0.56654 0.71903 0.0
C913 C 0.119 0.58069 0.73316 0.0
C914 C 0.12918 0.60986 0.72899 0.0
C915 C 0.14942 0.6246 0.71089 0.0
C916 C 0.15942 0.60996 0.69716 0.0
C917 C 0.15009 0.58162 0.70106 0.0
C918 C 0.16379 0.57074 0.68335 0.0
C919 C 0.18187 0.56078 0.69694 0.0
C920 C 0.14145 0.54707 0.6672 0.0
C921 C 0.18205 0.59732 0.66874 0.0
C922 C 0.17925 0.6197 0.67705 0.0
C923 C 0.19334 0.64621 0.666 0.0
C924 C 0.21066 0.64993 0.64584 0.0
C925 C 0.21383 0.62728 0.63693 0.0
C926 C 0.19941 0.6007 0.64873 0.0
H927 H 0.5457 0.12231 0.88619 0.0
H928 H 0.61957 0.11221 0.89169 0.0
H929 H 0.64252 0.14681 0.85877 0.0
H930 H 0.54687 0.1271 0.82042 0.0
H931 H 0.5354 0.15287 0.81979 0.0
H932 H 0.52489 0.12797 0.84456 0.0
H933 H 0.54601 0.16943 0.87544 0.0
H934 H 0.55674 0.19447 0.85076 0.0
H935 H 0.58249 0.1968 0.87255 0.0
H936 H 0.65785 0.1823 0.8258 0.0
H937 H 0.66379 0.21491 0.79253 0.0
H938 H 0.57937 0.20102 0.80626 0.0
C939 C 0.56662 0.12722 0.88038 0.0
C940 C 0.58095 0.11478 0.89191 0.0
C941 C 0.60838 0.12194 0.88372 0.0
C942 C 0.62157 0.14146 0.86487 0.0
C943 C 0.60703 0.15351 0.85415 0.0
C944 C 0.58009 0.14656 0.86137 0.0
C945 C 0.569 0.16218 0.84619 0.0
C946 C 0.54247 0.14128 0.83189 0.0
C947 C 0.56323 0.18189 0.86219 0.0
C948 C 0.59395 0.17891 0.82932 0.0
C949 C 0.61568 0.17366 0.83443 0.0
C950 C 0.64098 0.18656 0.82154 0.0
C951 C 0.64414 0.20513 0.80267 0.0
C952 C 0.62204 0.21057 0.79667 0.0
C953 C 0.59665 0.19733 0.81035 0.0
H954 H 0.4851 0.59848 0.06639 0.0
H955 H 0.40857 0.52239 0.08889 0.0
H956 H 0.38114 0.5327 0.05923 0.0
H957 H 0.45353 0.642 0.05449 0.0
H958 H 0.47489 0.65837 0.02787 0.0
H959 H 0.48841 0.64632 0.0522 0.0
H960 H 0.49749 0.61545 0.02167 0.0
H961 H 0.4842 0.62756 0.99725 0.0
H962 H 0.46884 0.59019 0.00294 0.0
H963 H 0.36208 0.55023 0.02627 0.0
H964 H 0.35329 0.57208 0.99051 0.0
H965 H 0.44248 0.63549 0.98801 0.0
C966 C 0.4626 0.58387 0.06508 0.0
C967 C 0.44906 0.55975 0.08032 0.0
C968 C 0.41946 0.54139 0.07797 0.0
C969 C 0.40366 0.54697 0.06105 0.0
C970 C 0.41769 0.5709 0.04642 0.0
C971 C 0.44651 0.58896 0.04812 0.0
C972 C 0.45664 0.6124 0.02935 0.0
C973 C 0.4691 0.64149 0.04172 0.0
C974 C 0.47805 0.61132 0.01176 0.0
C975 C 0.42904 0.60446 0.01662 0.0
C976 C 0.40679 0.58066 0.02696 0.0
C977 C 0.37932 0.56894 0.01806 0.0
C978 C 0.37454 0.58156 0.99775 0.0
C979 C 0.39717 0.60553 0.98639 0.0
C980 C 0.42469 0.61728 0.99628 0.0
H981 H 0.90049 0.47623 0.2257 0.0
H982 H 0.90685 0.40106 0.2383 0.0
H983 H 0.86999 0.37536 0.20737 0.0
H984 H 0.82472 0.44025 0.21494 0.0
H985 H 0.82745 0.46436 0.19125 0.0
H986 H 0.85319 0.47645 0.21543 0.0
H987 H 0.89354 0.49319 0.18363 0.0
H988 H 0.86796 0.48128 0.15938 0.0
H989 H 0.89256 0.46844 0.16132 0.0
H990 H 0.83415 0.35846 0.17369 0.0
H991 H 0.80253 0.35187 0.13916 0.0
H992 H 0.81982 0.43818 0.14814 0.0
C993 C 0.89418 0.45438 0.22195 0.0
C994 C 0.90651 0.44065 0.23459 0.0
C995 C 0.89741 0.41193 0.22922 0.0
C996 C 0.87656 0.39716 0.21159 0.0
C997 C 0.86492 0.41135 0.19948 0.0
C998 C 0.87339 0.43931 0.2044 0.0
C999 C 0.85821 0.44991 0.18818 0.0
C1000 C 0.8398 0.45823 0.20336 0.0
C1001 C 0.87933 0.47466 0.17218 0.0
C1002 C 0.84021 0.42367 0.1731 0.0
C1003 C 0.84426 0.40161 0.18002 0.0
C1004 C 0.83066 0.37552 0.16821 0.0
C1005 C 0.81273 0.37199 0.1486 0.0
C1006 C 0.80856 0.39445 0.14094 0.0
C1007 C 0.82229 0.42048 0.15365 0.0
loop_
_geom_bond_atom_site_label_1
_geom_bond_atom_site_label_2
_geom_bond_distance
_geom_bond_site_symmetry_2
_ccdc_geom_bond_type
C0 C1 1.384 . S
C0 C2 1.384 . S
C0 H28 0.931 . S
C1 C0 1.384 . S
C1 C4 1.382 . S
C2 C0 1.384 . S
C2 C3 1.381 . S
C2 H29 0.930 . S
C3 C2 1.381 . S
C3 C5 1.381 . S
C3 C6 1.487 . S
C4 C1 1.382 . S
C4 C5 1.387 . S
C4 H30 0.930 . S
C5 C3 1.381 . S
C5 C4 1.387 . S
C5 H31 0.931 . S
C6 C3 1.487 . S
C6 C13 1.399 . S
C6 N44 1.343 1_655 S
C7 C8 1.384 . S
C7 C9 1.384 . S
C7 H32 0.931 . S
C8 C7 1.384 . S
C8 C11 1.382 . S
C9 C7 1.384 . S
C9 C10 1.381 . S
C9 H33 0.930 . S
C10 C9 1.381 . S
C10 C12 1.381 . S
C10 C13 1.487 . S
C11 C8 1.382 . S
C11 C12 1.387 . S
C11 H34 0.930 . S
C12 C10 1.381 . S
C12 C11 1.387 . S
C12 H35 0.931 . S
C13 C6 1.399 . S
C13 C10 1.487 . S
C13 N45 1.343 1_655 S
C14 C15 1.384 . S
C14 C16 1.384 . S
C14 H36 0.931 . S
C15 C14 1.384 . S
C15 C18 1.382 . S
C16 C14 1.384 . S
C16 C17 1.381 . S
C16 H37 0.930 . S
C17 C16 1.381 . S
C17 C19 1.381 . S
C17 C20 1.487 . S
C18 C15 1.382 . S
C18 C19 1.387 . S
C18 H38 0.930 . S
C19 C17 1.381 . S
C19 C18 1.387 . S
C19 H39 0.931 . S
C20 C17 1.487 . S
C20 C27 1.399 . S
C20 N45 1.343 . S
C21 C22 1.384 . S
C21 C23 1.384 . S
C21 H40 0.931 . S
C22 C21 1.384 . S
C22 C25 1.382 . S
C23 C21 1.384 . S
C23 C24 1.381 . S
C23 H41 0.930 . S
C24 C23 1.381 . S
C24 C26 1.381 . S
C24 C27 1.487 . S
C25 C22 1.382 . S
C25 C26 1.387 . S
C25 H42 0.930 . S
C26 C24 1.381 . S
C26 C25 1.387 . S
C26 H43 0.931 . S
C27 C20 1.399 . S
C27 C24 1.487 . S
C27 N44 1.343 . S
H28 C0 0.931 . S
H29 C2 0.930 . S
H30 C4 0.930 . S
H31 C5 0.931 . S
H32 C7 0.931 . S
H33 C9 0.930 . S
H34 C11 0.930 . S
H35 C12 0.931 . S
H36 C14 0.931 . S
H37 C16 0.930 . S
H38 C18 0.930 . S
H39 C19 0.931 . S
H40 C21 0.931 . S
H41 C23 0.930 . S
H42 C25 0.930 . S
H43 C26 0.931 . S
N44 C6 1.343 1_455 S
N44 C27 1.343 . S
N45 C13 1.343 1_455 S
N45 C20 1.343 . S
C46 C47 1.384 . S
C46 C48 1.384 . S
C46 H74 0.931 . S
C47 C46 1.384 . S
C47 C50 1.382 . S
C48 C46 1.384 . S
C48 C49 1.381 . S
C48 H75 0.930 . S
C49 C48 1.381 . S
C49 C51 1.381 . S
C49 C52 1.487 . S
C50 C47 1.382 . S
C50 C51 1.387 . S
C50 H76 0.930 . S
C51 C49 1.381 . S
C51 C50 1.387 . S
C51 H77 0.931 . S
C52 C49 1.487 . S
C52 C59 1.399 . S
C52 N90 1.343 1_565 S
C53 C54 1.384 . S
C53 C55 1.384 . S
C53 H78 0.931 . S
C54 C53 1.384 . S
C54 C57 1.382 . S
C55 C53 1.384 . S
C55 C56 1.381 . S
C55 H79 0.930 . S
C56 C55 1.381 . S
C56 C58 1.381 . S
C56 C59 1.487 . S
C57 C54 1.382 . S
C57 C58 1.387 . S
C57 H80 0.930 . S
C58 C56 1.381 . S
C58 C57 1.387 . S
C58 H81 0.931 . S
C59 C52 1.399 . S
C59 C56 1.487 . S
C59 N91 1.343 1_565 S
C60 C61 1.384 . S
C60 C62 1.384 . S
C60 H82 0.931 . S
C61 C60 1.384 . S
C61 C64 1.382 . S
C62 C60 1.384 . S
C62 C63 1.381 . S
C62 H83 0.930 . S
C63 C62 1.381 . S
C63 C65 1.381 . S
C63 C66 1.487 . S
C64 C61 1.382 . S
C64 C65 1.387 . S
C64 H84 0.930 . S
C65 C63 1.381 . S
C65 C64 1.387 . S
C65 H85 0.931 . S
C66 C63 1.487 . S
C66 C73 1.399 . S
C66 N91 1.343 . S
C67 C68 1.384 . S
C67 C69 1.384 . S
C67 H86 0.931 . S
C68 C67 1.384 . S
C68 C71 1.382 . S
C69 C67 1.384 . S
C69 C70 1.381 . S
C69 H87 0.930 . S
C70 C69 1.381 . S
C70 C72 1.381 . S
C70 C73 1.487 . S
C71 C68 1.382 . S
C71 C72 1.387 . S
C71 H88 0.930 . S
C72 C70 1.381 . S
C72 C71 1.387 . S
C72 H89 0.931 . S
C73 C66 1.399 . S
C73 C70 1.487 . S
C73 N90 1.343 . S
H74 C46 0.931 . S
H75 C48 0.930 . S
H76 C50 0.930 . S
H77 C51 0.931 . S
H78 C53 0.931 . S
H79 C55 0.930 . S
H80 C57 0.930 . S
H81 C58 0.931 . S
H82 C60 0.931 . S
H83 C62 0.930 . S
H84 C64 0.930 . S
H85 C65 0.931 . S
H86 C67 0.931 . S
H87 C69 0.930 . S
H88 C71 0.930 . S
H89 C72 0.931 . S
N90 C52 1.343 1_545 S
N90 C73 1.343 . S
N91 C59 1.343 1_545 S
N91 C66 1.343 . S
C92 C93 1.384 . S
C92 C94 1.384 . S
C92 H120 0.931 . S
C93 C92 1.384 . S
C93 C96 1.382 . S
C94 C92 1.384 . S
C94 C95 1.381 . S
C94 H121 0.930 . S
C95 C94 1.381 . S
C95 C97 1.381 . S
C95 C98 1.487 . S
C96 C93 1.382 . S
C96 C97 1.387 . S
C96 H122 0.930 . S
C97 C95 1.381 . S
C97 C96 1.387 . S
C97 H123 0.931 . S
C98 C95 1.487 . S
C98 C105 1.399 . S
C98 N136 1.343 . S
C99 C100 1.384 . S
C99 C101 1.384 . S
C99 H124 0.931 . S
C100 C99 1.384 . S
C100 C103 1.382 . S
C101 C99 1.384 . S
C101 C102 1.381 . S
C101 H125 0.930 . S
C102 C101 1.381 . S
C102 C104 1.381 . S
C102 C105 1.487 . S
C103 C100 1.382 . S
C103 C104 1.387 . S
C103 H126 0.930 . S
C104 C102 1.381 . S
C104 C103 1.387 . S
C104 H127 0.931 . S
C105 C98 1.399 . S
C105 C102 1.487 . S
C105 N137 1.343 . S
C106 C107 1.384 . S
C106 C108 1.384 . S
C106 H128 0.931 . S
C107 C106 1.384 . S
C107 C110 1.382 . S
C108 C106 1.384 . S
C108 C109 1.381 . S
C108 H129 0.930 . S
C109 C108 1.381 . S
C109 C111 1.381 . S
C109 C112 1.487 . S
C110 C107 1.382 . S
C110 C111 1.387 . S
C110 H130 0.930 . S
C111 C109 1.381 . S
C111 C110 1.387 . S
C111 H131 0.931 . S
C112 C109 1.487 . S
C112 C119 1.399 . S
C112 N137 1.343 . S
C113 C114 1.384 . S
C113 C115 1.384 . S
C113 H132 0.931 . S
C114 C113 1.384 . S
C114 C117 1.382 . S
C115 C113 1.384 . S
C115 C116 1.381 . S
C115 H133 0.930 . S
C116 C115 1.381 . S
C116 C118 1.381 . S
C116 C119 1.487 . S
C117 C114 1.382 . S
C117 C118 1.387 . S
C117 H134 0.930 . S
C118 C116 1.381 . S
C118 C117 1.387 . S
C118 H135 0.931 . S
C119 C112 1.399 . S
C119 C116 1.487 . S
C119 N136 1.343 . S
H120 C92 0.931 . S
H121 C94 0.930 . S
H122 C96 0.930 . S
H123 C97 0.931 . S
H124 C99 0.931 . S
H125 C101 0.930 . S
H126 C103 0.930 . S
H127 C104 0.931 . S
H128 C106 0.931 . S
H129 C108 0.930 . S
H130 C110 0.930 . S
H131 C111 0.931 . S
H132 C113 0.931 . S
H133 C115 0.930 . S
H134 C117 0.930 . S
H135 C118 0.931 . S
N136 C98 1.343 . S
N136 C119 1.343 . S
N137 C105 1.343 . S
N137 C112 1.343 . S
C138 C139 1.384 . S
C138 C140 1.384 . S
C138 H166 0.931 . S
C139 C138 1.384 . S
C139 C142 1.382 . S
C140 C138 1.384 . S
C140 C141 1.381 . S
C140 H167 0.930 . S
C141 C140 1.381 . S
C141 C143 1.381 . S
C141 C144 1.487 . S
C142 C139 1.382 . S
C142 C143 1.387 . S
C142 H168 0.930 . S
C143 C141 1.381 . S
C143 C142 1.387 . S
C143 H169 0.931 . S
C144 C141 1.487 . S
C144 C151 1.399 . S
C144 N182 1.343 1_655 S
C145 C146 1.384 . S
C145 C147 1.384 . S
C145 H170 0.931 . S
C146 C145 1.384 . S
C146 C149 1.382 . S
C147 C145 1.384 . S
C147 C148 1.381 . S
C147 H171 0.930 . S
C148 C147 1.381 . S
C148 C150 1.381 . S
C148 C151 1.487 . S
C149 C146 1.382 . S
C149 C150 1.387 . S
C149 H172 0.930 . S
C150 C148 1.381 . S
C150 C149 1.387 . S
C150 H173 0.931 . S
C151 C144 1.399 . S
C151 C148 1.487 . S
C151 N183 1.343 1_655 S
C152 C153 1.384 . S
C152 C154 1.384 . S
C152 H174 0.931 . S
C153 C152 1.384 . S
C153 C156 1.382 . S
C154 C152 1.384 . S
C154 C155 1.381 . S
C154 H175 0.930 . S
C155 C154 1.381 . S
C155 C157 1.381 . S
C155 C158 1.487 . S
C156 C153 1.382 . S
C156 C157 1.387 . S
C156 H176 0.930 . S
C157 C155 1.381 . S
C157 C156 1.387 . S
C157 H177 0.931 . S
C158 C155 1.487 . S
C158 C165 1.399 . S
C158 N183 1.343 . S
C159 C160 1.384 . S
C159 C161 1.384 . S
C159 H178 0.931 . S
C160 C159 1.384 . S
C160 C163 1.382 . S
C161 C159 1.384 . S
C161 C162 1.381 . S
C161 H179 0.930 . S
C162 C161 1.381 . S
C162 C164 1.381 . S
C162 C165 1.487 . S
C163 C160 1.382 . S
C163 C164 1.387 . S
C163 H180 0.930 . S
C164 C162 1.381 . S
C164 C163 1.387 . S
C164 H181 0.931 . S
C165 C158 1.399 . S
C165 C162 1.487 . S
C165 N182 1.343 . S
H166 C138 0.931 . S
H167 C140 0.930 . S
H168 C142 0.930 . S
H169 C143 0.931 . S
H170 C145 0.931 . S
H171 C147 0.930 . S
H172 C149 0.930 . S
H173 C150 0.931 . S
H174 C152 0.931 . S
H175 C154 0.930 . S
H176 C156 0.930 . S
H177 C157 0.931 . S
H178 C159 0.931 . S
H179 C161 0.930 . S
H180 C163 0.930 . S
H181 C164 0.931 . S
N182 C144 1.343 1_455 S
N182 C165 1.343 . S
N183 C151 1.343 1_455 S
N183 C158 1.343 . S
C184 C185 1.384 . S
C184 C186 1.384 . S
C184 H212 0.931 . S
C185 C184 1.384 . S
C185 C188 1.382 . S
C186 C184 1.384 . S
C186 C187 1.381 . S
C186 H213 0.956 . S
C187 C186 1.381 . S
C187 C189 1.381 . S
C187 C190 1.487 . S
C188 C185 1.382 . S
C188 C189 1.387 . S
C188 H214 0.930 . S
C189 C187 1.381 . S
C189 C188 1.387 . S
C189 H215 0.931 . S
C190 C187 1.487 . S
C190 C197 1.399 1_556 S
C190 N228 1.343 1_565 S
C191 C192 1.384 . S
C191 C193 1.384 . S
C191 H216 0.931 . S
C192 C191 1.384 . S
C192 C195 1.382 . S
C193 C191 1.384 . S
C193 C194 1.381 . S
C193 H217 0.930 . S
C194 C193 1.381 . S
C194 C196 1.381 . S
C194 C197 1.487 . S
C195 C192 1.382 . S
C195 C196 1.387 . S
C195 H218 0.930 . S
C196 C194 1.381 . S
C196 C195 1.387 . S
C196 H219 0.931 . S
C197 C190 1.399 1_554 S
C197 C194 1.487 . S
C197 N229 1.343 1_565 S
C198 C199 1.384 . S
C198 C200 1.384 1_554 S
C198 H220 0.931 1_554 S
C199 C198 1.384 . S
C199 C202 1.382 . S
C200 C198 1.384 1_556 S
C200 C201 1.381 1_556 S
C200 H221 0.930 . S
C201 C200 1.381 1_554 S
C201 C203 1.381 . S
C201 C204 1.487 1_554 S
C202 C199 1.382 . S
C202 C203 1.387 . S
C202 H222 0.930 . S
C203 C201 1.381 . S
C203 C202 1.387 . S
C203 H223 0.931 . S
C204 C201 1.487 1_556 S
C204 C211 1.399 . S
C204 N229 1.343 1_556 S
C205 C206 1.384 . S
C205 C207 1.384 . S
C205 H224 0.931 . S
C206 C205 1.384 . S
C206 C209 1.382 . S
C207 C205 1.384 . S
C207 C208 1.381 . S
C207 H225 0.930 . S
C208 C207 1.381 . S
C208 C210 1.381 . S
C208 C211 1.487 . S
C209 C206 1.382 . S
C209 C210 1.387 . S
C209 H226 0.930 . S
C210 C208 1.381 . S
C210 C209 1.387 . S
C210 H227 0.931 . S
C211 C204 1.399 . S
C211 C208 1.487 . S
C211 N228 1.343 . S
H212 C184 0.931 . S
H213 C186 0.956 . S
H214 C188 0.930 . S
H215 C189 0.931 . S
H216 C191 0.931 . S
H217 C193 0.930 . S
H218 C195 0.930 . S
H219 C196 0.931 . S
H220 C198 0.931 1_556 S
H221 C200 0.930 . S
H222 C202 0.930 . S
H223 C203 0.931 . S
H224 C205 0.931 . S
H225 C207 0.930 . S
H226 C209 0.930 . S
H227 C210 0.931 . S
N228 C190 1.343 1_545 S
N228 C211 1.343 . S
N229 C197 1.343 1_545 S
N229 C204 1.343 1_554 S
C230 C231 1.384 . S
C230 C232 1.384 . S
C230 H258 0.931 . S
C231 C230 1.384 . S
C231 C234 1.382 . S
C232 C230 1.384 . S
C232 C233 1.381 . S
C232 H259 0.930 . S
C233 C232 1.381 . S
C233 C235 1.381 . S
C233 C236 1.487 . S
C234 C231 1.382 . S
C234 C235 1.387 . S
C234 H260 0.930 . S
C235 C233 1.381 . S
C235 C234 1.387 . S
C235 H261 0.931 . S
C236 C233 1.487 . S
C236 C243 1.399 . S
C236 N274 1.343 . S
C237 C238 1.384 . S
C237 C239 1.384 . S
C237 H262 0.931 . S
C238 C237 1.384 . S
C238 C241 1.382 . S
C239 C237 1.384 . S
C239 C240 1.381 . S
C239 H263 0.930 . S
C240 C239 1.381 . S
C240 C242 1.381 . S
C240 C243 1.487 . S
C241 C238 1.382 . S
C241 C242 1.387 . S
C241 H264 0.930 . S
C242 C240 1.381 . S
C242 C241 1.387 . S
C242 H265 0.931 . S
C243 C236 1.399 . S
C243 C240 1.487 . S
C243 N275 1.343 . S
C244 C245 1.384 . S
C244 C246 1.384 . S
C244 H266 0.931 . S
C245 C244 1.384 . S
C245 C248 1.382 . S
C246 C244 1.384 . S
C246 C247 1.381 . S
C246 H267 0.930 . S
C247 C246 1.381 . S
C247 C249 1.381 . S
C247 C250 1.487 . S
C248 C245 1.382 . S
C248 C249 1.387 . S
C248 H268 0.930 . S
C249 C247 1.381 . S
C249 C248 1.387 . S
C249 H269 0.931 . S
C250 C247 1.487 . S
C250 C257 1.399 . S
C250 N275 1.343 . S
C251 C252 1.384 . S
C251 C253 1.384 . S
C251 H270 0.931 . S
C252 C251 1.384 . S
C252 C255 1.382 . S
C253 C251 1.384 . S
C253 C254 1.381 . S
C253 H271 0.930 . S
C254 C253 1.381 . S
C254 C256 1.381 . S
C254 C257 1.487 . S
C255 C252 1.382 . S
C255 C256 1.387 . S
C255 H272 0.930 . S
C256 C254 1.381 . S
C256 C255 1.387 . S
C256 H273 0.931 . S
C257 C250 1.399 . S
C257 C254 1.487 . S
C257 N274 1.343 . S
H258 C230 0.931 . S
H259 C232 0.930 . S
H260 C234 0.930 . S
H261 C235 0.931 . S
H262 C237 0.931 . S
H263 C239 0.930 . S
H264 C241 0.930 . S
H265 C242 0.931 . S
H266 C244 0.931 . S
H267 C246 0.930 . S
H268 C248 0.930 . S
H269 C249 0.931 . S
H270 C251 0.931 . S
H271 C253 0.930 . S
H272 C255 0.930 . S
H273 C256 0.931 . S
N274 C236 1.343 . S
N274 C257 1.343 . S
N275 C243 1.343 . S
N275 C250 1.343 . S
O276 Cd277 2.223 . S
O276 C284 1.315 . S
Cd277 O276 2.223 . S
Cd277 O280 2.297 . S
Cd277 O281 2.439 . S
Cd277 O287 2.240 . S
Cd278 O279 2.240 . S
Cd278 O286 2.223 . S
Cd278 O288 2.297 . S
Cd278 O289 2.439 . S
O279 Cd278 2.240 . S
O279 C284 1.279 . S
O280 Cd277 2.297 . S
O280 C282 1.247 . S
O281 Cd277 2.439 . S
O281 C282 1.208 . S
C282 O280 1.247 . S
C282 O281 1.208 . S
C283 O288 1.247 . S
C283 O289 1.208 . S
C284 O276 1.315 . S
C284 O279 1.279 . S
C285 O286 1.315 . S
C285 O287 1.279 . S
O286 Cd278 2.223 . S
O286 C285 1.315 . S
O287 Cd277 2.240 . S
O287 C285 1.279 . S
O288 Cd278 2.297 . S
O288 C283 1.247 . S
O289 Cd278 2.439 . S
O289 C283 1.208 . S
O290 Cd291 2.223 . S
O290 C298 1.315 . S
Cd291 O290 2.223 . S
Cd291 O294 2.297 . S
Cd291 O295 2.439 . S
Cd291 O301 2.240 . S
Cd292 O293 2.240 . S
Cd292 O300 2.223 . S
Cd292 O302 2.297 . S
Cd292 O303 2.439 . S
O293 Cd292 2.240 . S
O293 C298 1.279 . S
O294 Cd291 2.297 . S
O294 C296 1.247 . S
O295 Cd291 2.439 . S
O295 C296 1.208 . S
C296 O294 1.247 . S
C296 O295 1.208 . S
C297 O302 1.247 . S
C297 O303 1.208 . S
C298 O290 1.315 . S
C298 O293 1.279 . S
C299 O300 1.315 . S
C299 O301 1.279 . S
O300 Cd292 2.223 . S
O300 C299 1.315 . S
O301 Cd291 2.240 . S
O301 C299 1.279 . S
O302 Cd292 2.297 . S
O302 C297 1.247 . S
O303 Cd292 2.439 . S
O303 C297 1.208 . S
O304 Cd305 2.223 . S
O304 C312 1.315 . S
Cd305 O304 2.223 . S
Cd305 O308 2.297 . S
Cd305 O309 2.439 . S
Cd305 O315 2.240 . S
Cd306 O307 2.240 . S
Cd306 O314 2.223 . S
Cd306 O316 2.297 . S
Cd306 O317 2.439 . S
O307 Cd306 2.240 . S
O307 C312 1.279 . S
O308 Cd305 2.297 . S
O308 C310 1.247 . S
O309 Cd305 2.439 . S
O309 C310 1.208 . S
C310 O308 1.247 . S
C310 O309 1.208 . S
C311 O316 1.247 . S
C311 O317 1.208 . S
C312 O304 1.315 . S
C312 O307 1.279 . S
C313 O314 1.315 . S
C313 O315 1.279 . S
O314 Cd306 2.223 . S
O314 C313 1.315 . S
O315 Cd305 2.240 . S
O315 C313 1.279 . S
O316 Cd306 2.297 . S
O316 C311 1.247 . S
O317 Cd306 2.439 . S
O317 C311 1.208 . S
O318 Cd319 2.223 . S
O318 C326 1.315 . S
Cd319 O318 2.223 . S
Cd319 O322 2.297 . S
Cd319 O323 2.439 . S
Cd319 O329 2.240 . S
Cd320 O321 2.240 . S
Cd320 O328 2.223 . S
Cd320 O330 2.297 . S
Cd320 O331 2.439 . S
O321 Cd320 2.240 . S
O321 C326 1.279 . S
O322 Cd319 2.297 . S
O322 C324 1.247 . S
O323 Cd319 2.439 . S
O323 C324 1.208 . S
C324 O322 1.247 . S
C324 O323 1.208 . S
C325 O330 1.247 . S
C325 O331 1.208 . S
C326 O318 1.315 . S
C326 O321 1.279 . S
C327 O328 1.315 . S
C327 O329 1.279 . S
O328 Cd320 2.223 . S
O328 C327 1.315 . S
O329 Cd319 2.240 . S
O329 C327 1.279 . S
O330 Cd320 2.297 . S
O330 C325 1.247 . S
O331 Cd320 2.439 . S
O331 C325 1.208 . S
O332 Cd333 2.223 . S
O332 C340 1.315 . S
Cd333 O332 2.223 . S
Cd333 O336 2.297 . S
Cd333 O337 2.439 . S
Cd333 O343 2.240 . S
Cd334 O335 2.240 . S
Cd334 O342 2.223 . S
Cd334 O344 2.297 . S
Cd334 O345 2.439 . S
O335 Cd334 2.240 . S
O335 C340 1.279 . S
O336 Cd333 2.297 . S
O336 C338 1.247 . S
O337 Cd333 2.439 . S
O337 C338 1.208 . S
C338 O336 1.247 . S
C338 O337 1.208 . S
C339 O344 1.247 . S
C339 O345 1.208 . S
C340 O332 1.315 . S
C340 O335 1.279 . S
C341 O342 1.315 . S
C341 O343 1.279 . S
O342 Cd334 2.223 . S
O342 C341 1.315 . S
O343 Cd333 2.240 . S
O343 C341 1.279 . S
O344 Cd334 2.297 . S
O344 C339 1.247 . S
O345 Cd334 2.439 . S
O345 C339 1.208 . S
O346 Cd347 2.223 . S
O346 C354 1.315 . S
Cd347 O346 2.223 . S
Cd347 O350 2.297 . S
Cd347 O351 2.439 . S
Cd347 O357 2.240 . S
Cd348 O349 2.240 . S
Cd348 O356 2.223 . S
Cd348 O358 2.297 . S
Cd348 O359 2.439 . S
O349 Cd348 2.240 . S
O349 C354 1.279 . S
O350 Cd347 2.297 . S
O350 C352 1.247 . S
O351 Cd347 2.439 . S
O351 C352 1.208 . S
C352 O350 1.247 . S
C352 O351 1.208 . S
C353 O358 1.247 . S
C353 O359 1.208 . S
C354 O346 1.315 . S
C354 O349 1.279 . S
C355 O356 1.315 . S
C355 O357 1.279 . S
O356 Cd348 2.223 . S
O356 C355 1.315 . S
O357 Cd347 2.240 . S
O357 C355 1.279 . S
O358 Cd348 2.297 . S
O358 C353 1.247 . S
O359 Cd348 2.439 . S
O359 C353 1.208 . S
H360 C372 0.930 . S
H361 C374 0.930 . S
H362 C375 0.930 . S
H363 C379 0.959 . S
H364 C379 0.959 . S
H365 C379 0.961 . S
H366 C380 0.960 . S
H367 C380 0.961 . S
H368 C380 0.959 . S
H369 C383 0.929 . S
H370 C384 0.931 . S
H371 C386 0.930 . S
C372 H360 0.930 . S
C372 C373 1.399 . S
C372 C377 1.399 . S
C373 C372 1.399 . S
C373 C374 1.376 . S
C374 H361 0.930 . S
C374 C373 1.376 . S
C374 C375 1.388 . S
C375 H362 0.930 . S
C375 C374 1.388 . S
C375 C376 1.390 . S
C376 C375 1.390 . S
C376 C377 1.394 . S
C376 C382 1.465 . S
C377 C372 1.399 . S
C377 C376 1.394 . S
C377 C378 1.516 . S
C378 C377 1.516 . S
C378 C379 1.502 . S
C378 C380 1.561 . S
C378 C381 1.526 . S
C379 H363 0.959 . S
C379 H364 0.959 . S
C379 H365 0.961 . S
C379 C378 1.502 . S
C380 H366 0.960 . S
C380 H367 0.961 . S
C380 H368 0.959 . S
C380 C378 1.561 . S
C381 C378 1.526 . S
C381 C382 1.396 . S
C381 C386 1.390 . S
C382 C376 1.465 . S
C382 C381 1.396 . S
C382 C383 1.399 . S
C383 H369 0.929 . S
C383 C382 1.399 . S
C383 C384 1.385 . S
C384 H370 0.931 . S
C384 C383 1.385 . S
C384 C385 1.389 . S
C385 C384 1.389 . S
C385 C386 1.387 . S
C386 H371 0.930 . S
C386 C381 1.390 . S
C386 C385 1.387 . S
H387 C399 0.930 . S
H388 C401 0.930 . S
H389 C402 0.930 . S
H390 C406 0.959 . S
H391 C406 0.959 . S
H392 C406 0.961 . S
H393 C407 0.960 . S
H394 C407 0.961 . S
H395 C407 0.959 . S
H396 C410 0.929 . S
H397 C411 0.931 . S
H398 C413 0.930 . S
C399 H387 0.930 . S
C399 C400 1.399 . S
C399 C404 1.399 . S
C400 C399 1.399 . S
C400 C401 1.376 . S
C401 H388 0.930 . S
C401 C400 1.376 . S
C401 C402 1.388 . S
C402 H389 0.930 . S
C402 C401 1.388 . S
C402 C403 1.390 . S
C403 C402 1.390 . S
C403 C404 1.394 . S
C403 C409 1.465 . S
C404 C399 1.399 . S
C404 C403 1.394 . S
C404 C405 1.516 . S
C405 C404 1.516 . S
C405 C406 1.502 . S
C405 C407 1.561 . S
C405 C408 1.526 . S
C406 H390 0.959 . S
C406 H391 0.959 . S
C406 H392 0.961 . S
C406 C405 1.502 . S
C407 H393 0.960 . S
C407 H394 0.961 . S
C407 H395 0.959 . S
C407 C405 1.561 . S
C408 C405 1.526 . S
C408 C409 1.396 . S
C408 C413 1.390 . S
C409 C403 1.465 . S
C409 C408 1.396 . S
C409 C410 1.399 . S
C410 H396 0.929 . S
C410 C409 1.399 . S
C410 C411 1.385 . S
C411 H397 0.931 . S
C411 C410 1.385 . S
C411 C412 1.389 . S
C412 C411 1.389 . S
C412 C413 1.387 . S
C413 H398 0.930 . S
C413 C408 1.390 . S
C413 C412 1.387 . S
H414 C426 0.930 . S
H415 C428 0.930 . S
H416 C429 0.930 . S
H417 C433 0.959 . S
H418 C433 0.959 . S
H419 C433 0.961 . S
H420 C434 0.960 . S
H421 C434 0.961 . S
H422 C434 0.959 . S
H423 C437 0.929 . S
H424 C438 0.931 . S
H425 C440 0.930 . S
C426 H414 0.930 . S
C426 C427 1.399 . S
C426 C431 1.399 . S
C427 C426 1.399 . S
C427 C428 1.376 . S
C428 H415 0.930 . S
C428 C427 1.376 . S
C428 C429 1.388 . S
C429 H416 0.930 . S
C429 C428 1.388 . S
C429 C430 1.390 . S
C430 C429 1.390 . S
C430 C431 1.394 . S
C430 C436 1.465 . S
C431 C426 1.399 . S
C431 C430 1.394 . S
C431 C432 1.516 . S
C432 C431 1.516 . S
C432 C433 1.502 . S
C432 C434 1.561 . S
C432 C435 1.526 . S
C433 H417 0.959 . S
C433 H418 0.959 . S
C433 H419 0.961 . S
C433 C432 1.502 . S
C434 H420 0.960 . S
C434 H421 0.961 . S
C434 H422 0.959 . S
C434 C432 1.561 . S
C435 C432 1.526 . S
C435 C436 1.396 . S
C435 C440 1.390 . S
C436 C430 1.465 . S
C436 C435 1.396 . S
C436 C437 1.399 . S
C437 H423 0.929 . S
C437 C436 1.399 . S
C437 C438 1.385 . S
C438 H424 0.931 . S
C438 C437 1.385 . S
C438 C439 1.389 . S
C439 C438 1.389 . S
C439 C440 1.387 . S
C440 H425 0.930 . S
C440 C435 1.390 . S
C440 C439 1.387 . S
H441 C453 0.930 . S
H442 C455 0.930 . S
H443 C456 0.930 . S
H444 C460 0.959 . S
H445 C460 0.959 . S
H446 C460 0.961 . S
H447 C461 0.960 . S
H448 C461 0.961 . S
H449 C461 0.959 . S
H450 C464 0.929 . S
H451 C465 0.931 . S
H452 C467 0.930 . S
C453 H441 0.930 . S
C453 C454 1.399 . S
C453 C458 1.399 . S
C454 C453 1.399 . S
C454 C455 1.376 . S
C455 H442 0.930 . S
C455 C454 1.376 . S
C455 C456 1.388 . S
C456 H443 0.930 . S
C456 C455 1.388 . S
C456 C457 1.390 . S
C457 C456 1.390 . S
C457 C458 1.394 . S
C457 C463 1.465 . S
C458 C453 1.399 . S
C458 C457 1.394 . S
C458 C459 1.516 . S
C459 C458 1.516 . S
C459 C460 1.502 . S
C459 C461 1.561 . S
C459 C462 1.526 . S
C460 H444 0.959 . S
C460 H445 0.959 . S
C460 H446 0.961 . S
C460 C459 1.502 . S
C461 H447 0.960 . S
C461 H448 0.961 . S
C461 H449 0.959 . S
C461 C459 1.561 . S
C462 C459 1.526 . S
C462 C463 1.396 . S
C462 C467 1.390 . S
C463 C457 1.465 . S
C463 C462 1.396 . S
C463 C464 1.399 . S
C464 H450 0.929 . S
C464 C463 1.399 . S
C464 C465 1.385 . S
C465 H451 0.931 . S
C465 C464 1.385 . S
C465 C466 1.389 . S
C466 C465 1.389 . S
C466 C467 1.387 . S
C467 H452 0.930 . S
C467 C462 1.390 . S
C467 C466 1.387 . S
H468 C480 0.930 . S
H469 C482 0.930 . S
H470 C483 0.930 . S
H471 C487 0.959 . S
H472 C487 0.959 . S
H473 C487 0.961 . S
H474 C488 0.960 1_554 S
H475 C488 0.961 1_554 S
H476 C488 0.959 . S
H477 C491 0.929 . S
H478 C492 0.931 . S
H479 C494 0.930 . S
C480 H468 0.930 . S
C480 C481 1.399 . S
C480 C485 1.399 . S
C481 C480 1.399 . S
C481 C482 1.376 . S
C482 H469 0.930 . S
C482 C481 1.376 . S
C482 C483 1.388 . S
C483 H470 0.930 . S
C483 C482 1.388 . S
C483 C484 1.390 . S
C484 C483 1.390 . S
C484 C485 1.394 . S
C484 C490 1.465 . S
C485 C480 1.399 . S
C485 C484 1.394 . S
C485 C486 1.516 . S
C486 C485 1.516 . S
C486 C487 1.502 . S
C486 C488 1.561 . S
C486 C489 1.526 . S
C487 H471 0.959 . S
C487 H472 0.959 . S
C487 H473 0.961 . S
C487 C486 1.502 . S
C488 H474 0.960 1_556 S
C488 H475 0.961 1_556 S
C488 H476 0.959 . S
C488 C486 1.561 . S
C489 C486 1.526 . S
C489 C490 1.396 . S
C489 C494 1.390 . S
C490 C484 1.465 . S
C490 C489 1.396 . S
C490 C491 1.399 . S
C491 H477 0.929 . S
C491 C490 1.399 . S
C491 C492 1.385 . S
C492 H478 0.931 . S
C492 C491 1.385 . S
C492 C493 1.389 . S
C493 C492 1.389 . S
C493 C494 1.387 . S
C494 H479 0.930 . S
C494 C489 1.390 . S
C494 C493 1.387 . S
H495 C507 0.930 . S
H496 C509 0.930 . S
H497 C510 0.930 . S
H498 C514 0.959 . S
H499 C514 0.959 . S
H500 C514 0.961 . S
H501 C515 0.960 . S
H502 C515 0.961 . S
H503 C515 0.959 . S
H504 C518 0.929 . S
H505 C519 0.931 . S
H506 C521 0.930 . S
C507 H495 0.930 . S
C507 C508 1.399 . S
C507 C512 1.399 . S
C508 C507 1.399 . S
C508 C509 1.376 . S
C509 H496 0.930 . S
C509 C508 1.376 . S
C509 C510 1.388 . S
C510 H497 0.930 . S
C510 C509 1.388 . S
C510 C511 1.390 . S
C511 C510 1.390 . S
C511 C512 1.394 . S
C511 C517 1.465 . S
C512 C507 1.399 . S
C512 C511 1.394 . S
C512 C513 1.516 . S
C513 C512 1.516 . S
C513 C514 1.502 . S
C513 C515 1.561 . S
C513 C516 1.526 . S
C514 H498 0.959 . S
C514 H499 0.959 . S
C514 H500 0.961 . S
C514 C513 1.502 . S
C515 H501 0.960 . S
C515 H502 0.961 . S
C515 H503 0.959 . S
C515 C513 1.561 . S
C516 C513 1.526 . S
C516 C517 1.396 . S
C516 C521 1.390 . S
C517 C511 1.465 . S
C517 C516 1.396 . S
C517 C518 1.399 . S
C518 H504 0.929 . S
C518 C517 1.399 . S
C518 C519 1.385 . S
C519 H505 0.931 . S
C519 C518 1.385 . S
C519 C520 1.389 . S
C520 C519 1.389 . S
C520 C521 1.387 . S
C521 H506 0.930 . S
C521 C516 1.390 . S
C521 C520 1.387 . S
H522 C534 0.930 . S
H523 C536 0.930 . S
H524 C537 0.930 . S
H525 C541 0.959 . S
H526 C541 0.959 . S
H527 C541 0.961 . S
H528 C542 0.960 . S
H529 C542 0.961 . S
H530 C542 0.959 . S
H531 C545 0.929 . S
H532 C546 0.931 . S
H533 C548 0.930 . S
C534 H522 0.930 . S
C534 C535 1.399 . S
C534 C539 1.399 . S
C535 C534 1.399 . S
C535 C536 1.376 . S
C536 H523 0.930 . S
C536 C535 1.376 . S
C536 C537 1.388 . S
C537 H524 0.930 . S
C537 C536 1.388 . S
C537 C538 1.390 . S
C538 C537 1.390 . S
C538 C539 1.394 . S
C538 C544 1.465 . S
C539 C534 1.399 . S
C539 C538 1.394 . S
C539 C540 1.516 . S
C540 C539 1.516 . S
C540 C541 1.502 . S
C540 C542 1.561 . S
C540 C543 1.526 . S
C541 H525 0.959 . S
C541 H526 0.959 . S
C541 H527 0.961 . S
C541 C540 1.502 . S
C542 H528 0.960 . S
C542 H529 0.961 . S
C542 H530 0.959 . S
C542 C540 1.561 . S
C543 C540 1.526 . S
C543 C544 1.396 . S
C543 C548 1.390 . S
C544 C538 1.465 . S
C544 C543 1.396 . S
C544 C545 1.399 . S
C545 H531 0.929 . S
C545 C544 1.399 . S
C545 C546 1.385 . S
C546 H532 0.931 . S
C546 C545 1.385 . S
C546 C547 1.389 . S
C547 C546 1.389 . S
C547 C548 1.387 . S
C548 H533 0.930 . S
C548 C543 1.390 . S
C548 C547 1.387 . S
H549 C561 0.930 . S
H550 C563 0.930 . S
H551 C564 0.930 . S
H552 C568 0.959 . S
H553 C568 0.959 . S
H554 C568 0.961 . S
H555 C569 0.960 . S
H556 C569 0.961 . S
H557 C569 0.959 . S
H558 C572 0.929 . S
H559 C573 0.931 . S
H560 C575 0.930 . S
C561 H549 0.930 . S
C561 C562 1.399 . S
C561 C566 1.399 . S
C562 C561 1.399 . S
C562 C563 1.376 . S
C563 H550 0.930 . S
C563 C562 1.376 . S
C563 C564 1.388 . S
C564 H551 0.930 . S
C564 C563 1.388 . S
C564 C565 1.390 . S
C565 C564 1.390 . S
C565 C566 1.394 . S
C565 C571 1.465 . S
C566 C561 1.399 . S
C566 C565 1.394 . S
C566 C567 1.516 . S
C567 C566 1.516 . S
C567 C568 1.502 . S
C567 C569 1.561 . S
C567 C570 1.526 . S
C568 H552 0.959 . S
C568 H553 0.959 . S
C568 H554 0.961 . S
C568 C567 1.502 . S
C569 H555 0.960 . S
C569 H556 0.961 . S
C569 H557 0.959 . S
C569 C567 1.561 . S
C570 C567 1.526 . S
C570 C571 1.396 . S
C570 C575 1.390 . S
C571 C565 1.465 . S
C571 C570 1.396 . S
C571 C572 1.399 . S
C572 H558 0.929 . S
C572 C571 1.399 . S
C572 C573 1.385 . S
C573 H559 0.931 . S
C573 C572 1.385 . S
C573 C574 1.389 . S
C574 C573 1.389 . S
C574 C575 1.387 . S
C575 H560 0.930 . S
C575 C570 1.390 . S
C575 C574 1.387 . S
H576 C588 0.930 . S
H577 C590 0.930 . S
H578 C591 0.930 . S
H579 C595 0.959 . S
H580 C595 0.959 . S
H581 C595 0.961 . S
H582 C596 0.960 . S
H583 C596 0.961 . S
H584 C596 0.959 . S
H585 C599 0.929 . S
H586 C600 0.931 . S
H587 C602 0.930 . S
C588 H576 0.930 . S
C588 C589 1.399 . S
C588 C593 1.399 . S
C589 C588 1.399 . S
C589 C590 1.376 . S
C590 H577 0.930 . S
C590 C589 1.376 . S
C590 C591 1.388 . S
C591 H578 0.930 . S
C591 C590 1.388 . S
C591 C592 1.390 . S
C592 C591 1.390 . S
C592 C593 1.394 . S
C592 C598 1.465 . S
C593 C588 1.399 . S
C593 C592 1.394 . S
C593 C594 1.516 . S
C594 C593 1.516 . S
C594 C595 1.502 . S
C594 C596 1.561 . S
C594 C597 1.526 . S
C595 H579 0.959 . S
C595 H580 0.959 . S
C595 H581 0.961 . S
C595 C594 1.502 . S
C596 H582 0.960 . S
C596 H583 0.961 . S
C596 H584 0.959 . S
C596 C594 1.561 . S
C597 C594 1.526 . S
C597 C598 1.396 . S
C597 C602 1.390 . S
C598 C592 1.465 . S
C598 C597 1.396 . S
C598 C599 1.399 . S
C599 H585 0.929 . S
C599 C598 1.399 . S
C599 C600 1.385 . S
C600 H586 0.931 . S
C600 C599 1.385 . S
C600 C601 1.389 . S
C601 C600 1.389 . S
C601 C602 1.387 . S
C602 H587 0.930 . S
C602 C597 1.390 . S
C602 C601 1.387 . S
H603 C615 0.930 . S
H604 C617 0.930 1_556 S
H605 C618 0.930 1_556 S
H606 C622 0.959 . S
H607 C622 0.959 . S
H608 C622 0.961 . S
H609 C623 0.960 . S
H610 C623 0.961 . S
H611 C623 0.959 . S
H612 C626 0.893 1_556 S
H613 C627 0.931 . S
H614 C629 0.930 . S
C615 H603 0.930 . S
C615 C616 1.399 . S
C615 C620 1.399 . S
C616 C615 1.399 . S
C616 C617 1.376 . S
C617 H604 0.930 1_554 S
C617 C616 1.376 . S
C617 C618 1.388 . S
C618 H605 0.930 1_554 S
C618 C617 1.388 . S
C618 C619 1.390 . S
C619 C618 1.390 . S
C619 C620 1.394 . S
C619 C625 1.465 . S
C620 C615 1.399 . S
C620 C619 1.394 . S
C620 C621 1.516 . S
C621 C620 1.516 . S
C621 C622 1.502 . S
C621 C623 1.561 . S
C621 C624 1.526 . S
C622 H606 0.959 . S
C622 H607 0.959 . S
C622 H608 0.961 . S
C622 C621 1.502 . S
C623 H609 0.960 . S
C623 H610 0.961 . S
C623 H611 0.959 . S
C623 C621 1.561 . S
C624 C621 1.526 . S
C624 C625 1.396 . S
C624 C629 1.390 . S
C625 C619 1.465 . S
C625 C624 1.396 . S
C625 C626 1.399 . S
C626 H612 0.893 1_554 S
C626 C625 1.399 . S
C626 C627 1.385 . S
C627 H613 0.931 . S
C627 C626 1.385 . S
C627 C628 1.389 . S
C628 C627 1.389 . S
C628 C629 1.387 . S
C629 H614 0.930 . S
C629 C624 1.390 . S
C629 C628 1.387 . S
H630 C642 0.930 . S
H631 C644 0.930 . S
H632 C645 0.930 . S
H633 C649 0.959 . S
H634 C649 0.959 . S
H635 C649 0.961 . S
H636 C650 0.960 . S
H637 C650 0.961 . S
H638 C650 0.959 . S
H639 C653 0.929 . S
H640 C654 0.931 . S
H641 C656 0.930 . S
C642 H630 0.930 . S
C642 C643 1.399 . S
C642 C647 1.399 . S
C643 C642 1.399 . S
C643 C644 1.376 . S
C644 H631 0.930 . S
C644 C643 1.376 . S
C644 C645 1.388 . S
C645 H632 0.930 . S
C645 C644 1.388 . S
C645 C646 1.390 . S
C646 C645 1.390 . S
C646 C647 1.394 . S
C646 C652 1.465 . S
C647 C642 1.399 . S
C647 C646 1.394 . S
C647 C648 1.516 . S
C648 C647 1.516 . S
C648 C649 1.502 . S
C648 C650 1.561 . S
C648 C651 1.526 . S
C649 H633 0.959 . S
C649 H634 0.959 . S
C649 H635 0.961 . S
C649 C648 1.502 . S
C650 H636 0.960 . S
C650 H637 0.961 . S
C650 H638 0.959 . S
C650 C648 1.561 . S
C651 C648 1.526 . S
C651 C652 1.396 . S
C651 C656 1.390 . S
C652 C646 1.465 . S
C652 C651 1.396 . S
C652 C653 1.399 . S
C653 H639 0.929 . S
C653 C652 1.399 . S
C653 C654 1.385 . S
C654 H640 0.931 . S
C654 C653 1.385 . S
C654 C655 1.389 . S
C655 C654 1.389 . S
C655 C656 1.387 . S
C656 H641 0.930 . S
C656 C651 1.390 . S
C656 C655 1.387 . S
H657 C669 0.930 . S
H658 C671 0.930 . S
H659 C672 0.930 . S
H660 C676 0.959 . S
H661 C676 0.959 . S
H662 C676 0.961 . S
H663 C677 0.960 . S
H664 C677 0.961 . S
H665 C677 0.959 . S
H666 C680 0.929 . S
H667 C681 0.931 . S
H668 C683 0.930 . S
C669 H657 0.930 . S
C669 C670 1.399 . S
C669 C674 1.399 . S
C670 C669 1.399 . S
C670 C671 1.376 . S
C671 H658 0.930 . S
C671 C670 1.376 . S
C671 C672 1.388 . S
C672 H659 0.930 . S
C672 C671 1.388 . S
C672 C673 1.390 . S
C673 C672 1.390 . S
C673 C674 1.394 . S
C673 C679 1.465 . S
C674 C669 1.399 . S
C674 C673 1.394 . S
C674 C675 1.516 . S
C675 C674 1.516 . S
C675 C676 1.502 . S
C675 C677 1.561 . S
C675 C678 1.526 . S
C676 H660 0.959 . S
C676 H661 0.959 . S
C676 H662 0.961 . S
C676 C675 1.502 . S
C677 H663 0.960 . S
C677 H664 0.961 . S
C677 H665 0.959 . S
C677 C675 1.561 . S
C678 C675 1.526 . S
C678 C679 1.396 . S
C678 C683 1.390 . S
C679 C673 1.465 . S
C679 C678 1.396 . S
C679 C680 1.399 . S
C680 H666 0.929 . S
C680 C679 1.399 . S
C680 C681 1.385 . S
C681 H667 0.931 . S
C681 C680 1.385 . S
C681 C682 1.389 . S
C682 C681 1.389 . S
C682 C683 1.387 . S
C683 H668 0.930 . S
C683 C678 1.390 . S
C683 C682 1.387 . S
H684 C696 0.930 . S
H685 C698 0.930 . S
H686 C699 0.930 . S
H687 C703 0.959 . S
H688 C703 0.959 . S
H689 C703 0.961 . S
H690 C704 0.960 . S
H691 C704 0.961 . S
H692 C704 0.959 . S
H693 C707 0.929 . S
H694 C708 0.931 . S
H695 C710 0.930 . S
C696 H684 0.930 . S
C696 C697 1.399 . S
C696 C701 1.399 . S
C697 C696 1.399 . S
C697 C698 1.376 . S
C698 H685 0.930 . S
C698 C697 1.376 . S
C698 C699 1.388 . S
C699 H686 0.930 . S
C699 C698 1.388 . S
C699 C700 1.390 . S
C700 C699 1.390 . S
C700 C701 1.394 . S
C700 C706 1.465 . S
C701 C696 1.399 . S
C701 C700 1.394 . S
C701 C702 1.516 . S
C702 C701 1.516 . S
C702 C703 1.502 . S
C702 C704 1.561 . S
C702 C705 1.526 . S
C703 H687 0.959 . S
C703 H688 0.959 . S
C703 H689 0.961 . S
C703 C702 1.502 . S
C704 H690 0.960 . S
C704 H691 0.961 . S
C704 H692 0.959 . S
C704 C702 1.561 . S
C705 C702 1.526 . S
C705 C706 1.396 . S
C705 C710 1.390 . S
C706 C700 1.465 . S
C706 C705 1.396 . S
C706 C707 1.399 . S
C707 H693 0.929 . S
C707 C706 1.399 . S
C707 C708 1.385 . S
C708 H694 0.931 . S
C708 C707 1.385 . S
C708 C709 1.389 . S
C709 C708 1.389 . S
C709 C710 1.387 . S
C710 H695 0.930 . S
C710 C705 1.390 . S
C710 C709 1.387 . S
H711 C723 0.930 . S
H712 C725 0.930 . S
H713 C726 0.930 . S
H714 C730 0.959 . S
H715 C730 0.959 . S
H716 C730 0.961 . S
H717 C731 0.960 . S
H718 C731 0.961 . S
H719 C731 0.959 . S
H720 C734 0.929 . S
H721 C735 0.931 . S
H722 C737 0.930 . S
C723 H711 0.930 . S
C723 C724 1.399 . S
C723 C728 1.399 . S
C724 C723 1.399 . S
C724 C725 1.376 . S
C725 H712 0.930 . S
C725 C724 1.376 . S
C725 C726 1.388 . S
C726 H713 0.930 . S
C726 C725 1.388 . S
C726 C727 1.390 . S
C727 C726 1.390 . S
C727 C728 1.394 . S
C727 C733 1.465 . S
C728 C723 1.399 . S
C728 C727 1.394 . S
C728 C729 1.516 . S
C729 C728 1.516 . S
C729 C730 1.502 . S
C729 C731 1.561 . S
C729 C732 1.526 . S
C730 H714 0.959 . S
C730 H715 0.959 . S
C730 H716 0.961 . S
C730 C729 1.502 . S
C731 H717 0.960 . S
C731 H718 0.961 . S
C731 H719 0.959 . S
C731 C729 1.561 . S
C732 C729 1.526 . S
C732 C733 1.396 . S
C732 C737 1.390 . S
C733 C727 1.465 . S
C733 C732 1.396 . S
C733 C734 1.399 . S
C734 H720 0.929 . S
C734 C733 1.399 . S
C734 C735 1.385 . S
C735 H721 0.931 . S
C735 C734 1.385 . S
C735 C736 1.389 . S
C736 C735 1.389 . S
C736 C737 1.387 . S
C737 H722 0.930 . S
C737 C732 1.390 . S
C737 C736 1.387 . S
H738 C750 0.930 . S
H739 C752 0.930 . S
H740 C753 0.930 . S
H741 C757 0.959 . S
H742 C757 0.959 . S
H743 C757 0.961 . S
H744 C758 0.960 . S
H745 C758 0.961 . S
H746 C758 0.959 . S
H747 C761 0.929 . S
H748 C762 0.931 . S
H749 C764 0.930 . S
C750 H738 0.930 . S
C750 C751 1.399 . S
C750 C755 1.399 . S
C751 C750 1.399 . S
C751 C752 1.376 . S
C752 H739 0.930 . S
C752 C751 1.376 . S
C752 C753 1.388 . S
C753 H740 0.930 . S
C753 C752 1.388 . S
C753 C754 1.390 . S
C754 C753 1.390 . S
C754 C755 1.394 . S
C754 C760 1.465 . S
C755 C750 1.399 . S
C755 C754 1.394 . S
C755 C756 1.516 . S
C756 C755 1.516 . S
C756 C757 1.502 . S
C756 C758 1.561 . S
C756 C759 1.526 . S
C757 H741 0.959 . S
C757 H742 0.959 . S
C757 H743 0.961 . S
C757 C756 1.502 . S
C758 H744 0.960 . S
C758 H745 0.961 . S
C758 H746 0.959 . S
C758 C756 1.561 . S
C759 C756 1.526 . S
C759 C760 1.396 . S
C759 C764 1.390 . S
C760 C754 1.465 . S
C760 C759 1.396 . S
C760 C761 1.399 . S
C761 H747 0.929 . S
C761 C760 1.399 . S
C761 C762 1.385 . S
C762 H748 0.931 . S
C762 C761 1.385 . S
C762 C763 1.389 . S
C763 C762 1.389 . S
C763 C764 1.387 . S
C764 H749 0.930 . S
C764 C759 1.390 . S
C764 C763 1.387 . S
H765 C777 0.930 . S
H766 C779 0.930 . S
H767 C780 0.930 . S
H768 C784 0.959 . S
H769 C784 0.959 . S
H770 C784 0.961 . S
H771 C785 0.960 . S
H772 C785 0.961 . S
H773 C785 0.959 . S
H774 C788 0.929 . S
H775 C789 0.931 . S
H776 C791 0.930 . S
C777 H765 0.930 . S
C777 C778 1.399 . S
C777 C782 1.399 . S
C778 C777 1.399 . S
C778 C779 1.376 . S
C779 H766 0.930 . S
C779 C778 1.376 . S
C779 C780 1.388 . S
C780 H767 0.930 . S
C780 C779 1.388 . S
C780 C781 1.390 . S
C781 C780 1.390 . S
C781 C782 1.394 . S
C781 C787 1.465 . S
C782 C777 1.399 . S
C782 C781 1.394 . S
C782 C783 1.516 . S
C783 C782 1.516 . S
C783 C784 1.502 . S
C783 C785 1.561 . S
C783 C786 1.526 . S
C784 H768 0.959 . S
C784 H769 0.959 . S
C784 H770 0.961 . S
C784 C783 1.502 . S
C785 H771 0.960 . S
C785 H772 0.961 . S
C785 H773 0.959 . S
C785 C783 1.561 . S
C786 C783 1.526 . S
C786 C787 1.396 . S
C786 C791 1.390 1_556 S
C787 C781 1.465 . S
C787 C786 1.396 . S
C787 C788 1.399 1_556 S
C788 H774 0.929 . S
C788 C787 1.399 1_554 S
C788 C789 1.385 . S
C789 H775 0.931 . S
C789 C788 1.385 . S
C789 C790 1.389 . S
C790 C789 1.389 . S
C790 C791 1.387 . S
C791 H776 0.930 . S
C791 C786 1.390 1_554 S
C791 C790 1.387 . S
H792 C804 0.930 . S
H793 C806 0.930 . S
H794 C807 0.930 . S
H795 C811 0.959 . S
H796 C811 0.959 . S
H797 C811 0.961 . S
H798 C812 0.960 . S
H799 C812 0.961 . S
H800 C812 0.959 . S
H801 C815 0.929 . S
H802 C816 0.931 . S
H803 C818 0.930 . S
C804 H792 0.930 . S
C804 C805 1.399 . S
C804 C809 1.399 . S
C805 C804 1.399 . S
C805 C806 1.376 . S
C806 H793 0.930 . S
C806 C805 1.376 . S
C806 C807 1.388 . S
C807 H794 0.930 . S
C807 C806 1.388 . S
C807 C808 1.390 . S
C808 C807 1.390 . S
C808 C809 1.394 . S
C808 C814 1.465 . S
C809 C804 1.399 . S
C809 C808 1.394 . S
C809 C810 1.516 . S
C810 C809 1.516 . S
C810 C811 1.502 . S
C810 C812 1.561 . S
C810 C813 1.526 . S
C811 H795 0.959 . S
C811 H796 0.959 . S
C811 H797 0.961 . S
C811 C810 1.502 . S
C812 H798 0.960 . S
C812 H799 0.961 . S
C812 H800 0.959 . S
C812 C810 1.561 . S
C813 C810 1.526 . S
C813 C814 1.396 . S
C813 C818 1.390 . S
C814 C808 1.465 . S
C814 C813 1.396 . S
C814 C815 1.399 . S
C815 H801 0.929 . S
C815 C814 1.399 . S
C815 C816 1.385 . S
C816 H802 0.931 . S
C816 C815 1.385 . S
C816 C817 1.389 . S
C817 C816 1.389 . S
C817 C818 1.387 . S
C818 H803 0.930 . S
C818 C813 1.390 . S
C818 C817 1.387 . S
H819 C831 0.930 . S
H820 C833 0.930 . S
H821 C834 0.930 . S
H822 C838 0.959 . S
H823 C838 0.959 . S
H824 C838 0.961 . S
H825 C839 0.960 . S
H826 C839 0.961 . S
H827 C839 0.959 . S
H828 C842 0.929 . S
H829 C843 0.931 . S
H830 C845 0.930 . S
C831 H819 0.930 . S
C831 C832 1.399 . S
C831 C836 1.399 . S
C832 C831 1.399 . S
C832 C833 1.376 . S
C833 H820 0.930 . S
C833 C832 1.376 . S
C833 C834 1.388 . S
C834 H821 0.930 . S
C834 C833 1.388 . S
C834 C835 1.390 . S
C835 C834 1.390 . S
C835 C836 1.394 . S
C835 C841 1.465 . S
C836 C831 1.399 . S
C836 C835 1.394 . S
C836 C837 1.516 . S
C837 C836 1.516 . S
C837 C838 1.502 . S
C837 C839 1.561 . S
C837 C840 1.526 . S
C838 H822 0.959 . S
C838 H823 0.959 . S
C838 H824 0.961 . S
C838 C837 1.502 . S
C839 H825 0.960 . S
C839 H826 0.961 . S
C839 H827 0.959 . S
C839 C837 1.561 . S
C840 C837 1.526 . S
C840 C841 1.396 . S
C840 C845 1.390 . S
C841 C835 1.465 . S
C841 C840 1.396 . S
C841 C842 1.399 . S
C842 H828 0.929 . S
C842 C841 1.399 . S
C842 C843 1.385 . S
C843 H829 0.931 . S
C843 C842 1.385 . S
C843 C844 1.389 . S
C844 C843 1.389 . S
C844 C845 1.387 . S
C845 H830 0.930 . S
C845 C840 1.390 . S
C845 C844 1.387 . S
H846 C858 0.930 . S
H847 C860 0.930 . S
H848 C861 0.930 . S
H849 C865 0.959 . S
H850 C865 0.959 . S
H851 C865 0.961 . S
H852 C866 0.960 . S
H853 C866 0.961 . S
H854 C866 0.959 . S
H855 C869 0.929 . S
H856 C870 0.931 . S
H857 C872 0.930 . S
C858 H846 0.930 . S
C858 C859 1.399 . S
C858 C863 1.399 . S
C859 C858 1.399 . S
C859 C860 1.376 . S
C860 H847 0.930 . S
C860 C859 1.376 . S
C860 C861 1.388 . S
C861 H848 0.930 . S
C861 C860 1.388 . S
C861 C862 1.390 . S
C862 C861 1.390 . S
C862 C863 1.394 . S
C862 C868 1.465 . S
C863 C858 1.399 . S
C863 C862 1.394 . S
C863 C864 1.516 . S
C864 C863 1.516 . S
C864 C865 1.502 . S
C864 C866 1.561 . S
C864 C867 1.526 . S
C865 H849 0.959 . S
C865 H850 0.959 . S
C865 H851 0.961 . S
C865 C864 1.502 . S
C866 H852 0.960 . S
C866 H853 0.961 . S
C866 H854 0.959 . S
C866 C864 1.561 . S
C867 C864 1.526 . S
C867 C868 1.396 . S
C867 C872 1.390 . S
C868 C862 1.465 . S
C868 C867 1.396 . S
C868 C869 1.399 . S
C869 H855 0.929 . S
C869 C868 1.399 . S
C869 C870 1.385 . S
C870 H856 0.931 . S
C870 C869 1.385 . S
C870 C871 1.389 . S
C871 C870 1.389 . S
C871 C872 1.387 . S
C872 H857 0.930 . S
C872 C867 1.390 . S
C872 C871 1.387 . S
H873 C885 0.930 . S
H874 C887 0.930 . S
H875 C888 0.930 . S
H876 C892 0.959 . S
H877 C892 0.959 . S
H878 C892 0.961 . S
H879 C893 0.960 . S
H880 C893 0.961 . S
H881 C893 0.959 . S
H882 C896 0.929 . S
H883 C897 0.931 . S
H884 C899 0.930 . S
C885 H873 0.930 . S
C885 C886 1.399 . S
C885 C890 1.399 . S
C886 C885 1.399 . S
C886 C887 1.376 . S
C887 H874 0.930 . S
C887 C886 1.376 . S
C887 C888 1.388 . S
C888 H875 0.930 . S
C888 C887 1.388 . S
C888 C889 1.390 . S
C889 C888 1.390 . S
C889 C890 1.394 . S
C889 C895 1.465 . S
C890 C885 1.399 . S
C890 C889 1.394 . S
C890 C891 1.516 . S
C891 C890 1.516 . S
C891 C892 1.502 . S
C891 C893 1.561 . S
C891 C894 1.526 . S
C892 H876 0.959 . S
C892 H877 0.959 . S
C892 H878 0.961 . S
C892 C891 1.502 . S
C893 H879 0.960 . S
C893 H880 0.961 . S
C893 H881 0.959 . S
C893 C891 1.561 . S
C894 C891 1.526 . S
C894 C895 1.396 . S
C894 C899 1.390 . S
C895 C889 1.465 . S
C895 C894 1.396 . S
C895 C896 1.399 . S
C896 H882 0.929 . S
C896 C895 1.399 . S
C896 C897 1.385 . S
C897 H883 0.931 . S
C897 C896 1.385 . S
C897 C898 1.389 . S
C898 C897 1.389 . S
C898 C899 1.387 . S
C899 H884 0.930 . S
C899 C894 1.390 . S
C899 C898 1.387 . S
H900 C912 0.930 . S
H901 C914 0.930 . S
H902 C915 0.930 . S
H903 C919 0.959 . S
H904 C919 0.959 . S
H905 C919 0.961 . S
H906 C920 0.960 . S
H907 C920 0.961 . S
H908 C920 0.959 . S
H909 C923 0.929 . S
H910 C924 0.931 . S
H911 C926 0.930 . S
C912 H900 0.930 . S
C912 C913 1.399 . S
C912 C917 1.399 . S
C913 C912 1.399 . S
C913 C914 1.376 . S
C914 H901 0.930 . S
C914 C913 1.376 . S
C914 C915 1.388 . S
C915 H902 0.930 . S
C915 C914 1.388 . S
C915 C916 1.390 . S
C916 C915 1.390 . S
C916 C917 1.394 . S
C916 C922 1.465 . S
C917 C912 1.399 . S
C917 C916 1.394 . S
C917 C918 1.516 . S
C918 C917 1.516 . S
C918 C919 1.502 . S
C918 C920 1.561 . S
C918 C921 1.526 . S
C919 H903 0.959 . S
C919 H904 0.959 . S
C919 H905 0.961 . S
C919 C918 1.502 . S
C920 H906 0.960 . S
C920 H907 0.961 . S
C920 H908 0.959 . S
C920 C918 1.561 . S
C921 C918 1.526 . S
C921 C922 1.396 . S
C921 C926 1.390 . S
C922 C916 1.465 . S
C922 C921 1.396 . S
C922 C923 1.399 . S
C923 H909 0.929 . S
C923 C922 1.399 . S
C923 C924 1.385 . S
C924 H910 0.931 . S
C924 C923 1.385 . S
C924 C925 1.389 . S
C925 C924 1.389 . S
C925 C926 1.387 . S
C926 H911 0.930 . S
C926 C921 1.390 . S
C926 C925 1.387 . S
H927 C939 0.930 . S
H928 C941 0.930 . S
H929 C942 0.930 . S
H930 C946 0.959 . S
H931 C946 0.959 . S
H932 C946 0.961 . S
H933 C947 0.960 . S
H934 C947 0.961 . S
H935 C947 0.959 . S
H936 C950 0.929 . S
H937 C951 0.931 . S
H938 C953 0.930 . S
C939 H927 0.930 . S
C939 C940 1.399 . S
C939 C944 1.399 . S
C940 C939 1.399 . S
C940 C941 1.376 . S
C941 H928 0.930 . S
C941 C940 1.376 . S
C941 C942 1.388 . S
C942 H929 0.930 . S
C942 C941 1.388 . S
C942 C943 1.390 . S
C943 C942 1.390 . S
C943 C944 1.394 . S
C943 C949 1.465 . S
C944 C939 1.399 . S
C944 C943 1.394 . S
C944 C945 1.516 . S
C945 C944 1.516 . S
C945 C946 1.502 . S
C945 C947 1.561 . S
C945 C948 1.526 . S
C946 H930 0.959 . S
C946 H931 0.959 . S
C946 H932 0.961 . S
C946 C945 1.502 . S
C947 H933 0.960 . S
C947 H934 0.961 . S
C947 H935 0.959 . S
C947 C945 1.561 . S
C948 C945 1.526 . S
C948 C949 1.396 . S
C948 C953 1.390 . S
C949 C943 1.465 . S
C949 C948 1.396 . S
C949 C950 1.399 . S
C950 H936 0.929 . S
C950 C949 1.399 . S
C950 C951 1.385 . S
C951 H937 0.931 . S
C951 C950 1.385 . S
C951 C952 1.389 . S
C952 C951 1.389 . S
C952 C953 1.387 . S
C953 H938 0.930 . S
C953 C948 1.390 . S
C953 C952 1.387 . S
H954 C966 0.930 . S
H955 C968 0.930 . S
H956 C969 0.930 . S
H957 C973 0.959 . S
H958 C973 0.959 . S
H959 C973 0.961 . S
H960 C974 0.960 . S
H961 C974 0.961 1_556 S
H962 C974 0.959 1_556 S
H963 C977 0.929 . S
H964 C978 0.931 . S
H965 C980 0.930 . S
C966 H954 0.930 . S
C966 C967 1.399 . S
C966 C971 1.399 . S
C967 C966 1.399 . S
C967 C968 1.376 . S
C968 H955 0.930 . S
C968 C967 1.376 . S
C968 C969 1.388 . S
C969 H956 0.930 . S
C969 C968 1.388 . S
C969 C970 1.390 . S
C970 C969 1.390 . S
C970 C971 1.394 . S
C970 C976 1.465 1_554 S
C971 C966 1.399 . S
C971 C970 1.394 . S
C971 C972 1.516 . S
C972 C971 1.516 . S
C972 C973 1.502 . S
C972 C974 1.561 . S
C972 C975 1.526 1_554 S
C973 H957 0.959 . S
C973 H958 0.959 . S
C973 H959 0.961 . S
C973 C972 1.502 . S
C974 H960 0.960 . S
C974 H961 0.961 1_554 S
C974 H962 0.959 1_554 S
C974 C972 1.561 . S
C975 C972 1.526 1_556 S
C975 C976 1.396 . S
C975 C980 1.390 . S
C976 C970 1.465 1_556 S
C976 C975 1.396 . S
C976 C977 1.399 . S
C977 H963 0.929 . S
C977 C976 1.399 . S
C977 C978 1.385 . S
C978 H964 0.931 . S
C978 C977 1.385 . S
C978 C979 1.389 . S
C979 C978 1.389 . S
C979 C980 1.387 . S
C980 H965 0.930 . S
C980 C975 1.390 . S
C980 C979 1.387 . S
H981 C993 0.930 . S
H982 C995 0.930 . S
H983 C996 0.930 . S
H984 C1000 0.959 . S
H985 C1000 0.959 . S
H986 C1000 0.961 . S
H987 C1001 0.960 . S
H988 C1001 0.961 . S
H989 C1001 0.959 . S
H990 C1004 0.929 . S
H991 C1005 0.931 . S
H992 C1007 0.930 . S
C993 H981 0.930 . S
C993 C994 1.399 . S
C993 C998 1.399 . S
C994 C993 1.399 . S
C994 C995 1.376 . S
C995 H982 0.930 . S
C995 C994 1.376 . S
C995 C996 1.388 . S
C996 H983 0.930 . S
C996 C995 1.388 . S
C996 C997 1.390 . S
C997 C996 1.390 . S
C997 C998 1.394 . S
C997 C1003 1.465 . S
C998 C993 1.399 . S
C998 C997 1.394 . S
C998 C999 1.516 . S
C999 C998 1.516 . S
C999 C1000 1.502 . S
C999 C1001 1.561 . S
C999 C1002 1.526 . S
C1000 H984 0.959 . S
C1000 H985 0.959 . S
C1000 H986 0.961 . S
C1000 C999 1.502 . S
C1001 H987 0.960 . S
C1001 H988 0.961 . S
C1001 H989 0.959 . S
C1001 C999 1.561 . S
C1002 C999 1.526 . S
C1002 C1003 1.396 . S
C1002 C1007 1.390 . S
C1003 C997 1.465 . S
C1003 C1002 1.396 . S
C1003 C1004 1.399 . S
C1004 H990 0.929 . S
C1004 C1003 1.399 . S
C1004 C1005 1.385 . S
C1005 H991 0.931 . S
C1005 C1004 1.385 . S
C1005 C1006 1.389 . S
C1006 C1005 1.389 . S
C1006 C1007 1.387 . S
C1007 H992 0.930 . S
C1007 C1002 1.390 . S
C1007 C1006 1.387 . S
C385 C353 1.594 . S
C373 C15 1.542 . S
C400 C61 1.469 . S
C412 C282 1.421 . S
C427 C114 1.541 . S
C439 C296 1.591 . S
C454 C139 1.446 . S
C466 C310 1.436 . S
C493 C324 1.570 . S
C481 C185 1.609 . S
C508 C245 1.471 . S
C520 C339 1.413 . S
C535 C47 1.441 . S
C547 C297 1.449 . S
C562 C100 1.582 . S
C574 C311 1.604 . S
C589 C153 1.442 . S
C601 C325 1.441 . S
C628 C338 1.590 . S
C616 C199 1.541 . S
C655 C352 1.456 . S
C643 C231 1.441 . S
C682 C283 1.605 . S
C670 C1 1.580 . S
C697 C22 1.478 . S
C709 C299 1.472 . S
C724 C68 1.657 . S
C736 C313 1.662 . S
C763 C327 1.434 . S
C751 C107 1.467 . S
C778 C146 1.692 . S
C790 C340 1.687 . S
C817 C354 1.437 . S
C805 C192 1.470 . S
C844 C285 1.651 . S
C832 C252 1.704 . S
C871 C355 1.641 . S
C859 C54 1.690 . S
C886 C93 1.479 . S
C898 C284 1.477 . S
C925 C298 1.696 . S
C913 C160 1.657 . S
C940 C206 1.478 . S
C952 C312 1.442 . S
C967 C238 1.693 . S
C979 C326 1.687 . S
C994 C8 1.479 . S
C1006 C341 1.478 . S
