# Generated by pormake.
# Topology zzz, (3,6)-cn, num edge types: 1
# Building blocks:
#     Node 0, Type 0, BuildingBlock: VETTIZ_charged_linker_0, # of connection points: 3
#     Node 1, Type 0, BuildingBlock: VETTIZ_charged_linker_0, # of connection points: 3
#     Node 2, Type 0, BuildingBlock: VETTIZ_charged_linker_0, # of connection points: 3
#     Node 3, Type 0, BuildingBlock: VETTIZ_charged_linker_0, # of connection points: 3
#     Node 4, Type 0, BuildingBlock: VETTIZ_charged_linker_0, # of connection points: 3
#     Node 5, Type 0, BuildingBlock: VETTIZ_charged_linker_0, # of connection points: 3
#     Node 6, Type 0, BuildingBlock: VETTIZ_charged_linker_0, # of connection points: 3
#     Node 7, Type 0, BuildingBlock: VETTIZ_charged_linker_0, # of connection points: 3
#     Node 8, Type 1, BuildingBlock: BETDEL_clean_sbu_0, # of connection points: 6
#     Node 9, Type 1, BuildingBlock: BETDEL_clean_sbu_0, # of connection points: 6
#     Node 10, Type 1, BuildingBlock: BETDEL_clean_sbu_0, # of connection points: 6
#     Node 11, Type 1, BuildingBlock: BETDEL_clean_sbu_0, # of connection points: 6
#     Edge 12, Type (0, 1), BuildingBlock: XIVTED_clean_linker_0, # of connection points: 2
#     Edge 13, Type (0, 1), BuildingBlock: XIVTED_clean_linker_0, # of connection points: 2
#     Edge 14, Type (0, 1), BuildingBlock: XIVTED_clean_linker_0, # of connection points: 2
#     Edge 15, Type (0, 1), BuildingBlock: XIVTED_clean_linker_0, # of connection points: 2
#     Edge 16, Type (0, 1), BuildingBlock: XIVTED_clean_linker_0, # of connection points: 2
#     Edge 17, Type (0, 1), BuildingBlock: XIVTED_clean_linker_0, # of connection points: 2
#     Edge 18, Type (0, 1), BuildingBlock: XIVTED_clean_linker_0, # of connection points: 2
#     Edge 19, Type (0, 1), BuildingBlock: XIVTED_clean_linker_0, # of connection points: 2
#     Edge 20, Type (0, 1), BuildingBlock: XIVTED_clean_linker_0, # of connection points: 2
#     Edge 21, Type (0, 1), BuildingBlock: XIVTED_clean_linker_0, # of connection points: 2
#     Edge 22, Type (0, 1), BuildingBlock: XIVTED_clean_linker_0, # of connection points: 2
#     Edge 23, Type (0, 1), BuildingBlock: XIVTED_clean_linker_0, # of connection points: 2
#     Edge 24, Type (0, 1), BuildingBlock: XIVTED_clean_linker_0, # of connection points: 2
#     Edge 25, Type (0, 1), BuildingBlock: XIVTED_clean_linker_0, # of connection points: 2
#     Edge 26, Type (0, 1), BuildingBlock: XIVTED_clean_linker_0, # of connection points: 2
#     Edge 27, Type (0, 1), BuildingBlock: XIVTED_clean_linker_0, # of connection points: 2
#     Edge 28, Type (0, 1), BuildingBlock: XIVTED_clean_linker_0, # of connection points: 2
#     Edge 29, Type (0, 1), BuildingBlock: XIVTED_clean_linker_0, # of connection points: 2
#     Edge 30, Type (0, 1), BuildingBlock: XIVTED_clean_linker_0, # of connection points: 2
#     Edge 31, Type (0, 1), BuildingBlock: XIVTED_clean_linker_0, # of connection points: 2
#     Edge 32, Type (0, 1), BuildingBlock: XIVTED_clean_linker_0, # of connection points: 2
#     Edge 33, Type (0, 1), BuildingBlock: XIVTED_clean_linker_0, # of connection points: 2
#     Edge 34, Type (0, 1), BuildingBlock: XIVTED_clean_linker_0, # of connection points: 2
#     Edge 35, Type (0, 1), BuildingBlock: XIVTED_clean_linker_0, # of connection points: 2
# Relax obj value: 0.342
# Max RMSD: 0.231
# Mean RMSD: 0.212
data_MOF--net-zzz--node1-BETDEL_clean_sbu_0--node2-VETTIZ_charged_linker_0--edge1-XIVTED_clean_linker_0
_symmetry_space_group_name_H-M    P1
_symmetry_Int_Tables_number       1
_symmetry_cell_setting            triclinic
loop_
_symmetry_equiv_pos_as_xyz
'x, y, z'
_cell_length_a     56.036774
_cell_length_b     56.020312
_cell_length_c     19.889846
_cell_angle_alpha  91.156541
_cell_angle_beta   89.212583
_cell_angle_gamma 95.844759
loop_
_atom_site_label
_atom_site_type_symbol
_atom_site_fract_x
_atom_site_fract_y
_atom_site_fract_z
_atom_type_partial_charge
C0 C 0.80348 0.49937 0.18228 0.0
C1 C 0.81985 0.48847 0.22294 0.0
C2 C 0.8197 0.46332 0.22061 0.0
C3 C 0.79259 0.46092 0.12761 0.0
C4 C 0.78919 0.48475 0.13602 0.0
C5 C 0.76824 0.49063 0.09315 0.0
H6 H 0.69661 0.453 0.82407 0.0
C7 C 0.77884 0.45086 0.07029 0.0
C8 C 0.76313 0.46741 0.05082 0.0
H9 H 0.68784 0.51476 0.95221 0.0
H10 H 0.7224 0.50605 0.01786 0.0
H11 H 0.74718 0.46047 0.80497 0.0
H12 H 0.70512 0.41582 0.94041 0.0
H13 H 0.7278 0.39913 0.90707 0.0
H14 H 0.70768 0.41173 0.85085 0.0
H15 H 0.74122 0.42918 0.7867 0.0
H16 H 0.76809 0.44117 0.8298 0.0
C17 C 0.77609 0.51244 0.04934 0.0
C18 C 0.74712 0.49482 0.14102 0.0
C19 C 0.82097 0.39467 0.92107 0.0
C20 C 0.81707 0.38785 0.8534 0.0
C21 C 0.79372 0.38771 0.82773 0.0
C22 C 0.77582 0.39788 0.86522 0.0
C23 C 0.78152 0.40862 0.92821 0.0
C24 C 0.8032 0.40551 0.95709 0.0
C25 C 0.80637 0.41827 0.02413 0.0
C26 C 0.78376 0.43149 0.02722 0.0
C27 C 0.76978 0.42626 0.97003 0.0
C28 C 0.82958 0.43587 0.02177 0.0
C29 C 0.80704 0.39914 0.07922 0.0
C30 C 0.7014 0.46441 0.86738 0.0
C31 C 0.68874 0.48417 0.88362 0.0
C32 C 0.69695 0.4992 0.93853 0.0
C33 C 0.71677 0.49395 0.97732 0.0
C34 C 0.72846 0.47339 0.96148 0.0
C35 C 0.72064 0.45926 0.90667 0.0
C36 C 0.73509 0.43855 0.89419 0.0
C37 C 0.75178 0.4412 0.95364 0.0
C38 C 0.74837 0.46188 0.99306 0.0
C39 C 0.74855 0.44234 0.82554 0.0
C40 C 0.71812 0.41497 0.89783 0.0
H41 H 0.80528 0.43036 0.17528 0.0
H42 H 0.80193 0.51845 0.18655 0.0
H43 H 0.7448 0.48065 0.17963 0.0
H44 H 0.72988 0.49405 0.1148 0.0
H45 H 0.75039 0.51247 0.16759 0.0
H46 H 0.79235 0.50921 0.01916 0.0
H47 H 0.7804 0.5288 0.08115 0.0
H48 H 0.76196 0.51608 0.01389 0.0
H49 H 0.83852 0.39446 0.94287 0.0
H50 H 0.78996 0.38178 0.77644 0.0
H51 H 0.75877 0.39845 0.84191 0.0
H52 H 0.82902 0.44849 0.9795 0.0
H53 H 0.84573 0.42609 0.01521 0.0
H54 H 0.8324 0.44664 0.06851 0.0
H55 H 0.80976 0.38108 0.05793 0.0
H56 H 0.78998 0.39705 0.10871 0.0
H57 H 0.82222 0.40364 0.11402 0.0
H58 H 0.83104 0.45439 0.25364 0.0
C59 C 0.8057 0.44948 0.1741 0.0
C60 C 0.91138 0.78976 0.86122 0.0
C61 C 0.90431 0.81287 0.87467 0.0
C62 C 0.88913 0.81621 0.93061 0.0
C63 C 0.89804 0.7783 0.97246 0.0
C64 C 0.90764 0.77239 0.91111 0.0
C65 C 0.91705 0.74817 0.91279 0.0
H66 H 0.98085 0.67411 0.04956 0.0
C67 C 0.90635 0.76251 0.02302 0.0
C68 C 0.91438 0.7429 0.98816 0.0
H69 H 0.92497 0.65421 0.90405 0.0
H70 H 0.90593 0.69024 0.93567 0.0
H71 H 0.98731 0.73579 0.03015 0.0
H72 H 0.93808 0.69376 0.16353 0.0
H73 H 0.9551 0.71814 0.20456 0.0
H74 H 0.97003 0.69353 0.17093 0.0
H75 H 0.99828 0.71729 0.09344 0.0
H76 H 0.98855 0.74604 0.11519 0.0
C77 C 0.94359 0.74998 0.88935 0.0
C78 C 0.90125 0.7306 0.86742 0.0
C79 C 0.9388 0.80915 0.22727 0.0
C80 C 0.95837 0.80765 0.26952 0.0
C81 C 0.97091 0.78698 0.26377 0.0
C82 C 0.96406 0.76852 0.21604 0.0
C83 C 0.94485 0.771 0.17253 0.0
C84 C 0.9328 0.79129 0.17881 0.0
C85 C 0.91449 0.79287 0.1255 0.0
C86 C 0.91685 0.76968 0.08607 0.0
C87 C 0.93455 0.75661 0.11402 0.0
C88 C 0.92165 0.81596 0.08425 0.0
C89 C 0.88955 0.79258 0.15972 0.0
C90 C 0.96499 0.67784 0.02279 0.0
C91 C 0.95503 0.66177 0.97202 0.0
C92 C 0.93349 0.66652 0.94127 0.0
C93 C 0.92311 0.6876 0.9564 0.0
C94 C 0.93481 0.70435 1.00043 0.0
C95 C 0.95387 0.69888 0.03784 0.0
C96 C 0.95913 0.7176 0.09386 0.0
C97 C 0.93997 0.73475 0.08154 0.0
C98 C 0.92752 0.72719 0.02323 0.0
C99 C 0.98474 0.72988 0.08306 0.0
C100 C 0.95551 0.70518 0.16218 0.0
H101 H 0.87546 0.80214 0.02416 0.0
H102 H 0.92185 0.78632 0.81658 0.0
H103 H 0.89693 0.73934 0.81999 0.0
H104 H 0.88408 0.72435 0.89313 0.0
H105 H 0.91073 0.71497 0.85159 0.0
H106 H 0.95468 0.76355 0.92022 0.0
H107 H 0.94543 0.75508 0.83573 0.0
H108 H 0.95104 0.73248 0.89381 0.0
H109 H 0.92909 0.82491 0.2283 0.0
H110 H 0.98608 0.78516 0.29575 0.0
H111 H 0.97422 0.75329 0.21364 0.0
H112 H 0.93451 0.82924 0.11059 0.0
H113 H 0.906 0.82593 0.07458 0.0
H114 H 0.93068 0.81179 0.03599 0.0
H115 H 0.88723 0.77866 0.19908 0.0
H116 H 0.87483 0.78812 0.12379 0.0
H117 H 0.88725 0.81025 0.18402 0.0
H118 H 0.8825 0.83341 0.94113 0.0
C119 C 0.88564 0.79859 0.97954 0.0
C120 C 0.8239 0.99444 0.97799 0.0
C121 C 0.83606 0.98495 0.92165 0.0
C122 C 0.82664 0.96302 0.89195 0.0
C123 C 0.79122 0.96364 0.96027 0.0
C124 C 0.80136 0.98267 0.99803 0.0
C125 C 0.78464 0.98761 0.05724 0.0
H126 H 0.67155 0.95677 0.19592 0.0
C127 C 0.76688 0.95725 0.9826 0.0
C128 C 0.76265 0.96939 0.04304 0.0
H129 H 0.72547 0.00881 0.27982 0.0
H130 H 0.7531 1.00055 0.18699 0.0
H131 H 0.66838 0.97138 0.07872 0.0
H132 H 0.70444 0.91542 0.13782 0.0
H133 H 0.6911 0.90836 0.05852 0.0
H134 H 0.6732 0.91904 0.12642 0.0
H135 H 0.66241 0.94486 0.03097 0.0
H136 H 0.68364 0.96904 1.00088 0.0
C137 C 0.77836 0.01368 0.0543 0.0
C138 C 0.79706 0.98227 0.12301 0.0
C139 C 0.70289 0.95405 0.81291 0.0
C140 C 0.67789 0.9508 0.82329 0.0
C141 C 0.6685 0.93514 0.87406 0.0
C142 C 0.6837 0.9276 0.92278 0.0
C143 C 0.7079 0.93649 0.92061 0.0
C144 C 0.71776 0.94643 0.86255 0.0
C145 C 0.74448 0.95196 0.86812 0.0
C146 C 0.74769 0.94721 0.94309 0.0
C147 C 0.72555 0.94083 0.97433 0.0
C148 C 0.75208 0.97847 0.85044 0.0
C149 C 0.75659 0.93465 0.82041 0.0
C150 C 0.68949 0.96607 0.19543 0.0
C151 C 0.69649 0.98294 0.24597 0.0
C152 C 0.7197 0.99546 0.24173 0.0
C153 C 0.73568 0.99062 0.18818 0.0
C154 C 0.72807 0.97364 0.13755 0.0
C155 C 0.70498 0.96223 0.14155 0.0
C156 C 0.69799 0.94729 0.08049 0.0
C157 C 0.72141 0.94972 0.04063 0.0
C158 C 0.73933 0.96511 0.07404 0.0
C159 C 0.67717 0.95858 0.04558 0.0
C160 C 0.69119 0.92108 0.10177 0.0
H161 H 0.79764 0.9349 0.89067 0.0
H162 H 0.83132 0.01065 0.00379 0.0
H163 H 0.80327 0.96404 0.12047 0.0
H164 H 0.78492 0.98278 0.167 0.0
H165 H 0.81294 0.99549 0.13179 0.0
H166 H 0.77134 0.01731 0.00388 0.0
H167 H 0.7945 0.02649 0.06369 0.0
H168 H 0.76443 0.0174 0.09175 0.0
H169 H 0.71056 0.96499 0.77231 0.0
H170 H 0.64929 0.93107 0.88047 0.0
H171 H 0.67611 0.91688 0.96347 0.0
H172 H 0.74252 0.99078 0.88326 0.0
H173 H 0.74819 0.98195 0.79716 0.0
H174 H 0.77163 0.98314 0.85653 0.0
H175 H 0.74669 0.93189 0.77232 0.0
H176 H 0.75715 0.91682 0.84355 0.0
H177 H 0.77496 0.94205 0.8058 0.0
H178 H 0.83621 0.95484 0.85129 0.0
C179 C 0.80435 0.95207 0.9121 0.0
C180 C 0.56177 0.7363 0.25832 0.0
C181 C 0.57492 0.71953 0.29058 0.0
C182 C 0.59991 0.72045 0.27895 0.0
C183 C 0.59639 0.74745 0.18856 0.0
C184 C 0.57352 0.75109 0.20881 0.0
C185 C 0.56491 0.77162 0.16989 0.0
H186 H 0.58122 0.83657 0.88015 0.0
C187 C 0.6015 0.75891 0.12434 0.0
C188 C 0.58409 0.77476 0.11404 0.0
H189 H 0.53578 0.85263 0.04849 0.0
H190 H 0.54691 0.81737 0.10643 0.0
H191 H 0.62791 0.82003 0.95221 0.0
H192 H 0.56264 0.78484 0.87633 0.0
H193 H 0.57988 0.7607 0.88738 0.0
H194 H 0.58977 0.78413 0.82905 0.0
H195 H 0.61833 0.81741 0.86615 0.0
H196 H 0.63374 0.79439 0.90284 0.0
C197 C 0.56588 0.79375 0.21776 0.0
C198 C 0.53968 0.76428 0.1418 0.0
C199 C 0.63507 0.70438 0.95259 0.0
C200 C 0.62838 0.70183 0.88472 0.0
C201 C 0.62457 0.72289 0.85005 0.0
C202 C 0.62306 0.74463 0.88524 0.0
C203 C 0.62366 0.74491 0.95572 0.0
C204 C 0.6305 0.72523 0.98841 0.0
C205 C 0.6258 0.72647 0.06303 0.0
C206 C 0.61451 0.75019 0.06909 0.0
C207 C 0.61308 0.76061 0.00601 0.0
C208 C 0.64987 0.72686 0.10069 0.0
C209 C 0.60775 0.7046 0.08175 0.0
C210 C 0.5742 0.83293 0.93033 0.0
C211 C 0.55837 0.84784 0.96083 0.0
C212 C 0.54845 0.84168 0.02462 0.0
C213 C 0.55519 0.82155 0.05861 0.0
C214 C 0.57187 0.80743 0.02824 0.0
C215 C 0.58055 0.81296 0.96436 0.0
C216 C 0.59586 0.7946 0.93618 0.0
C217 C 0.59849 0.77962 0.99783 0.0
C218 C 0.58384 0.78664 0.0513 0.0
C219 C 0.6203 0.80722 0.91274 0.0
C220 C 0.58149 0.78034 0.87927 0.0
H221 H 0.62976 0.73493 0.21889 0.0
H222 H 0.54293 0.73714 0.2697 0.0
H223 H 0.53955 0.74735 0.11159 0.0
H224 H 0.53377 0.77815 0.10886 0.0
H225 H 0.52628 0.76137 0.18326 0.0
H226 H 0.58202 0.7948 0.25009 0.0
H227 H 0.54982 0.79284 0.25138 0.0
H228 H 0.56738 0.81083 0.19077 0.0
H229 H 0.64024 0.68926 0.97983 0.0
H230 H 0.62048 0.72241 0.79708 0.0
H231 H 0.61955 0.75989 0.85684 0.0
H232 H 0.6646 0.72147 0.06747 0.0
H233 H 0.64853 0.71398 0.14258 0.0
H234 H 0.65578 0.74508 0.1212 0.0
H235 H 0.59104 0.70445 0.05215 0.0
H236 H 0.6026 0.70425 0.13525 0.0
H237 H 0.61555 0.68742 0.07183 0.0
H238 H 0.61064 0.70865 0.30516 0.0
C239 C 0.61083 0.73478 0.22833 0.0
C240 C 0.31879 0.52854 0.19664 0.0
C241 C 0.33234 0.54019 0.24979 0.0
C242 C 0.32835 0.56385 0.26819 0.0
C243 C 0.2964 0.56332 0.18779 0.0
C244 C 0.30079 0.54058 0.16612 0.0
C245 C 0.28385 0.53167 0.10975 0.0
H246 H 0.19203 0.5577 0.90511 0.0
C247 C 0.27657 0.57115 0.14899 0.0
C248 C 0.26946 0.55323 0.10061 0.0
H249 H 0.22168 0.48986 0.91274 0.0
H250 H 0.25087 0.5066 0.99631 0.0
H251 H 0.18297 0.56292 0.03411 0.0
H252 H 0.24146 0.59434 0.92222 0.0
H253 H 0.23329 0.61657 0.97973 0.0
H254 H 0.21099 0.60171 0.92426 0.0
H255 H 0.18489 0.59421 0.02028 0.0
H256 H 0.19566 0.58238 0.09693 0.0
C257 C 0.26784 0.5095 0.13476 0.0
C258 C 0.29875 0.52646 0.04643 0.0
C259 C 0.22658 0.63289 0.24659 0.0
C260 C 0.20351 0.6375 0.22596 0.0
C261 C 0.19899 0.63724 0.15626 0.0
C262 C 0.2145 0.62698 0.11103 0.0
C263 C 0.23389 0.61616 0.13632 0.0
C264 C 0.24117 0.62122 0.20137 0.0
C265 C 0.26276 0.60857 0.21836 0.0
C266 C 0.26399 0.59179 0.15704 0.0
C267 C 0.24672 0.59617 0.11 0.0
C268 C 0.2575 0.59455 0.28427 0.0
C269 C 0.28487 0.62766 0.22265 0.0
C270 C 0.20509 0.54653 0.92383 0.0
C271 C 0.20484 0.52269 0.90192 0.0
C272 C 0.22163 0.50842 0.92895 0.0
C273 C 0.2384 0.51812 0.97761 0.0
C274 C 0.23776 0.54204 1.00086 0.0
C275 C 0.22098 0.55554 0.97385 0.0
C276 C 0.22014 0.57935 0.00834 0.0
C277 C 0.2399 0.57872 0.0593 0.0
C278 C 0.25061 0.55698 0.05504 0.0
C279 C 0.19476 0.57995 0.04152 0.0
C280 C 0.22665 0.59916 0.95606 0.0
H281 H 0.30882 0.59347 0.25302 0.0
H282 H 0.32179 0.51051 0.18048 0.0
H283 H 0.31214 0.542 0.03565 0.0
H284 H 0.28755 0.52334 1.0013 0.0
H285 H 0.30858 0.51046 0.05356 0.0
H286 H 0.26105 0.5128 0.1866 0.0
H287 H 0.27809 0.49355 0.1358 0.0
H288 H 0.25181 0.50512 0.10366 0.0
H289 H 0.23147 0.6349 0.29896 0.0
H290 H 0.18215 0.64191 0.13707 0.0
H291 H 0.20959 0.62582 0.05916 0.0
H292 H 0.23989 0.58347 0.28137 0.0
H293 H 0.25701 0.60701 0.32827 0.0
H294 H 0.27099 0.58221 0.29508 0.0
H295 H 0.28068 0.64577 0.2075 0.0
H296 H 0.29961 0.62307 0.18837 0.0
H297 H 0.29184 0.62968 0.2747 0.0
H298 H 0.33896 0.57347 0.30715 0.0
C299 C 0.31084 0.5755 0.23687 0.0
C300 C 0.12071 0.22659 0.28943 0.0
C301 C 0.12546 0.20271 0.27535 0.0
C302 C 0.13891 0.19802 0.21677 0.0
C303 C 0.13183 0.23659 0.17539 0.0
C304 C 0.12407 0.24343 0.23807 0.0
C305 C 0.11602 0.26826 0.23738 0.0
H306 H 0.0537 0.3454 0.10146 0.0
C307 C 0.12353 0.2528 0.12584 0.0
C308 C 0.11693 0.27293 0.16147 0.0
H309 H 0.10969 0.36189 0.2489 0.0
H310 H 0.12694 0.32523 0.21607 0.0
H311 H 0.09442 0.3241 0.9891 0.0
H312 H 0.04394 0.28371 0.12251 0.0
H313 H 0.04222 0.27311 0.03799 0.0
H314 H 0.0338 0.30248 0.05867 0.0
H315 H 0.06259 0.325 0.98108 0.0
H316 H 0.07712 0.30011 0.94747 0.0
C317 C 0.13392 0.28518 0.27883 0.0
C318 C 0.09024 0.26807 0.26627 0.0
C319 C 0.08731 0.20793 0.92341 0.0
C320 C 0.06716 0.21037 0.88467 0.0
C321 C 0.05624 0.23197 0.88951 0.0
C322 C 0.0648 0.25033 0.93573 0.0
C323 C 0.08408 0.24671 0.97802 0.0
C324 C 0.0949 0.22565 0.97089 0.0
C325 C 0.1133 0.22297 0.0232 0.0
C326 C 0.11238 0.24629 0.06321 0.0
C327 C 0.09536 0.26041 0.03633 0.0
C328 C 0.13788 0.22203 0.98763 0.0
C329 C 0.10518 0.20006 0.06442 0.0
C330 C 0.06899 0.34067 0.12908 0.0
C331 C 0.07964 0.35629 0.1799 0.0
C332 C 0.10058 0.35013 0.21143 0.0
C333 C 0.10991 0.32854 0.19593 0.0
C334 C 0.09758 0.31239 0.15159 0.0
C335 C 0.07888 0.3189 0.11439 0.0
C336 C 0.07275 0.30051 0.05816 0.0
C337 C 0.09106 0.28243 0.06976 0.0
C338 C 0.10393 0.28924 0.12798 0.0
C339 C 0.07679 0.313 0.99001 0.0
C340 C 0.04674 0.28932 0.06941 0.0
H341 H 0.15154 0.21086 0.12101 0.0
H342 H 0.112 0.23118 0.33613 0.0
H343 H 0.0777 0.25489 0.2383 0.0
H344 H 0.08367 0.28602 0.26277 0.0
H345 H 0.08956 0.26337 0.32028 0.0
H346 H 0.13998 0.27601 0.32368 0.0
H347 H 0.12549 0.30088 0.2993 0.0
H348 H 0.15007 0.29132 0.24832 0.0
H349 H 0.09605 0.19153 0.92023 0.0
H350 H 0.04063 0.23422 0.85969 0.0
H351 H 0.05565 0.26623 0.93851 0.0
H352 H 0.14059 0.23586 0.94809 0.0
H353 H 0.13915 0.20417 0.96326 0.0
H354 H 0.15298 0.22586 0.02266 0.0
H355 H 0.09114 0.18772 0.03931 0.0
H356 H 0.09718 0.20466 0.11382 0.0
H357 H 0.12012 0.18891 0.07191 0.0
H358 H 0.14398 0.18026 0.20522 0.0
C359 C 0.14258 0.21532 0.16696 0.0
C360 C 0.3102 0.00494 0.92602 0.0
C361 C 0.33088 0.99607 0.89652 0.0
C362 C 0.33809 0.97439 0.91923 0.0
C363 C 0.30571 0.97088 1.00091 0.0
C364 C 0.29757 0.99167 0.97797 0.0
C365 C 0.27456 0.99678 0.01515 0.0
H366 H 0.19336 0.96019 0.2662 0.0
C367 C 0.28997 0.96141 0.05609 0.0
C368 C 0.27106 0.97599 0.06471 0.0
H369 H 0.18892 0.02118 0.13962 0.0
H370 H 0.22609 0.01256 0.08147 0.0
H371 H 0.20849 0.92342 0.15247 0.0
H372 H 0.24465 0.97084 0.29785 0.0
H373 H 0.2634 0.94785 0.28831 0.0
H374 H 0.23305 0.94094 0.3189 0.0
H375 H 0.20767 0.91856 0.24144 0.0
H376 H 0.23058 0.90757 0.18806 0.0
C377 C 0.25405 0.99568 0.96403 0.0
C378 C 0.27887 0.02128 0.05185 0.0
C379 C 0.32049 0.89969 0.20546 0.0
C380 C 0.31266 0.89138 0.26912 0.0
C381 C 0.28852 0.89292 0.28811 0.0
C382 C 0.27371 0.90573 0.24918 0.0
C383 C 0.2832 0.9172 0.19094 0.0
C384 C 0.3057 0.91289 0.16799 0.0
C385 C 0.31322 0.92696 0.10642 0.0
C386 C 0.29236 0.9421 0.09976 0.0
C387 C 0.27495 0.93632 0.14924 0.0
C388 C 0.31462 0.90881 0.04668 0.0
C389 C 0.33714 0.94257 0.12199 0.0
C390 C 0.1999 0.97155 0.22504 0.0
C391 C 0.18772 0.99098 0.20665 0.0
C392 C 0.19779 0.00588 0.15463 0.0
C393 C 0.21927 1.00079 0.12075 0.0
C394 C 0.2309 0.98077 0.13958 0.0
C395 C 0.22096 0.9668 0.19153 0.0
C396 C 0.23547 0.94698 0.20905 0.0
C397 C 0.25546 0.95035 0.15755 0.0
C398 C 0.25322 0.97023 0.1162 0.0
C399 C 0.21983 0.92278 0.19778 0.0
C400 C 0.24457 0.95164 0.28224 0.0
H401 H 0.33259 0.94569 0.98527 0.0
H402 H 0.30401 0.02141 0.90871 0.0
H403 H 0.29552 0.02221 0.08199 0.0
H404 H 0.26412 0.02451 0.08708 0.0
H405 H 0.2809 0.0361 0.01524 0.0
H406 H 0.25366 0.97897 0.93268 0.0
H407 H 0.25652 0.01123 0.92995 0.0
H408 H 0.23629 0.99549 0.98866 0.0
H409 H 0.33883 0.89876 0.18873 0.0
H410 H 0.28175 0.88605 0.33597 0.0
H411 H 0.25601 0.90755 0.26849 0.0
H412 H 0.30448 0.89112 0.05718 0.0
H413 H 0.33345 0.90544 0.0352 0.0
H414 H 0.30635 0.91495 1.00058 0.0
H415 H 0.33691 0.94999 0.17429 0.0
H416 H 0.34061 0.95841 0.09006 0.0
H417 H 0.35269 0.93182 0.11694 0.0
H418 H 0.3538 0.96722 0.8976 0.0
C419 C 0.32567 0.96182 0.97042 0.0
C420 C 0.4771 0.29234 0.8502 0.0
C421 C 0.46486 0.3096 0.81691 0.0
C422 C 0.43977 0.3092 0.82545 0.0
C423 C 0.44113 0.28131 0.91457 0.0
C424 C 0.4642 0.27738 0.89742 0.0
C425 C 0.47154 0.2562 0.93619 0.0
H426 H 0.44667 0.18697 0.21535 0.0
C427 C 0.43438 0.26909 0.97655 0.0
C428 C 0.45102 0.25261 0.9882 0.0
H429 H 0.49746 0.17383 0.0573 0.0
H430 H 0.48773 0.2097 0.99981 0.0
H431 H 0.46408 0.23757 0.2311 0.0
H432 H 0.40242 0.20437 0.13234 0.0
H433 H 0.3946 0.2292 0.18201 0.0
H434 H 0.40862 0.20562 0.22093 0.0
H435 H 0.43532 0.23832 0.26949 0.0
H436 H 0.44812 0.26241 0.21688 0.0
C437 C 0.49604 0.26293 0.9694 0.0
C438 C 0.47151 0.23466 0.88648 0.0
C439 C 0.40164 0.32287 0.15102 0.0
C440 C 0.40363 0.32208 0.22106 0.0
C441 C 0.40391 0.29967 0.25166 0.0
C442 C 0.40563 0.27889 0.21215 0.0
C443 C 0.40856 0.28096 0.14217 0.0
C444 C 0.40526 0.30242 0.11222 0.0
C445 C 0.41169 0.30241 0.03857 0.0
C446 C 0.42053 0.27753 0.03031 0.0
C447 C 0.41938 0.26553 0.0916 0.0
C448 C 0.43204 0.32287 0.02591 0.0
C449 C 0.38894 0.30545 0.99757 0.0
C450 C 0.45519 0.19137 0.16732 0.0
C451 C 0.47214 0.17713 0.13957 0.0
C452 C 0.48392 0.18427 0.07888 0.0
C453 C 0.47803 0.20478 0.04512 0.0
C454 C 0.46034 0.21832 0.07271 0.0
C455 C 0.44974 0.21178 0.13375 0.0
C456 C 0.43352 0.22961 0.16011 0.0
C457 C 0.43305 0.24582 0.10007 0.0
C458 C 0.4492 0.23956 0.04926 0.0
C459 C 0.44569 0.24265 0.22256 0.0
C460 C 0.4084 0.21656 0.17503 0.0
H461 H 0.40862 0.29443 0.88004 0.0
H462 H 0.49602 0.29112 0.84101 0.0
H463 H 0.45597 0.23398 0.85203 0.0
H464 H 0.46965 0.21726 0.91181 0.0
H465 H 0.48814 0.23605 0.8551 0.0
H466 H 0.49562 0.27957 1.00063 0.0
H467 H 0.51044 0.26611 0.93071 0.0
H468 H 0.50094 0.24865 0.00255 0.0
H469 H 0.40108 0.33991 0.12674 0.0
H470 H 0.40488 0.29861 0.30586 0.0
H471 H 0.40637 0.26232 0.23757 0.0
H472 H 0.44778 0.3207 0.05786 0.0
H473 H 0.4259 0.34075 0.03707 0.0
H474 H 0.43828 0.3236 0.97319 0.0
H475 H 0.3752 0.31392 0.02813 0.0
H476 H 0.38041 0.28788 0.97855 0.0
H477 H 0.39302 0.31757 0.95461 0.0
H478 H 0.42975 0.32131 0.79806 0.0
C479 C 0.42773 0.29466 0.87381 0.0
Dy480 Dy 0.01842 0.99445 0.63831 0.0
C481 C 0.01986 0.0575 0.4092 0.0
C482 C 0.99642 0.96415 0.72895 0.0
Dy483 Dy 0.00812 0.02525 0.50746 0.0
O484 O 0.01926 0.97198 0.73134 0.0
O485 O 0.98626 0.97305 0.67835 0.0
O486 O 0.05611 0.98624 0.60628 0.0
O487 O 0.03584 0.00668 0.54829 0.0
C488 C 0.05566 0.99807 0.55021 0.0
C489 C 0.97135 0.01554 0.59412 0.0
O490 O 1.00156 0.9882 0.46192 0.0
O491 O 1.00572 0.96661 0.5602 0.0
O492 O 1.00322 0.05941 0.45474 0.0
O493 O 0.02866 0.03707 0.41477 0.0
O494 O 0.96818 0.01916 0.53016 0.0
O495 O 0.99339 0.01921 0.60695 0.0
O496 O 0.02724 0.03144 0.68234 0.0
O497 O 0.02705 0.05209 0.58063 0.0
C498 C 1.00127 0.96777 0.49502 0.0
C499 C 0.03074 0.05149 0.64674 0.0
Dy500 Dy 0.4932 0.9928 0.5204 0.0
C501 C 0.56782 0.0533 0.64164 0.0
C502 C 0.45451 0.96392 0.47519 0.0
Dy503 Dy 0.52619 0.03097 0.59051 0.0
O504 O 0.47667 0.96073 0.46125 0.0
O505 O 0.45352 0.98334 0.51126 0.0
O506 O 0.52481 0.97321 0.48914 0.0
O507 O 0.5288 0.01073 0.4966 0.0
C508 C 0.53986 0.99242 0.48637 0.0
C509 C 0.47991 0.03047 0.62903 0.0
O510 O 0.51783 0.05265 0.5028 0.0
O511 O 0.48767 0.02538 0.45874 0.0
O512 O 0.54783 0.04879 0.67516 0.0
O513 O 0.56417 0.04708 0.57924 0.0
O514 O 0.49478 0.04996 0.62783 0.0
O515 O 0.49113 0.01248 0.61538 0.0
O516 O 0.49923 0.97357 0.615 0.0
O517 O 0.53419 0.99695 0.64173 0.0
C518 C 0.50061 0.04669 0.45873 0.0
C519 C 0.51913 0.97737 0.65027 0.0
Dy520 Dy 0.51143 0.52785 0.61647 0.0
C521 C 0.49485 0.47256 0.37598 0.0
C522 C 0.52428 0.55982 0.71739 0.0
Dy523 Dy 0.51743 0.49999 0.47405 0.0
O524 O 0.50909 0.56295 0.67042 0.0
O525 O 0.53095 0.5383 0.71214 0.0
O526 O 0.47098 0.52139 0.60563 0.0
O527 O 0.49361 0.52401 0.52076 0.0
C528 C 0.47214 0.51952 0.54001 0.0
C529 C 0.5566 0.50056 0.5528 0.0
O530 O 0.52588 0.53772 0.43902 0.0
O531 O 0.53066 0.5552 0.54686 0.0
O532 O 0.51792 0.47936 0.37523 0.0
O533 O 0.48474 0.481 0.42901 0.0
O534 O 0.55524 0.48965 0.49397 0.0
O535 O 0.53741 0.50995 0.56176 0.0
O536 O 0.50813 0.48986 0.6524 0.0
O537 O 0.50337 0.47137 0.54625 0.0
C538 C 0.53178 0.55649 0.47993 0.0
C539 C 0.50354 0.4705 0.61295 0.0
Dy540 Dy 0.99993 0.49294 0.60222 0.0
C541 C 0.05745 0.55355 0.42256 0.0
C542 C 0.96695 0.46585 0.67808 0.0
Dy543 Dy 0.02605 0.53153 0.51252 0.0
O544 O 0.98561 0.45802 0.64925 0.0
O545 O 0.96692 0.48864 0.66764 0.0
O546 O 0.02175 0.46594 0.55338 0.0
O547 O 0.01152 0.49417 0.49605 0.0
C548 C 0.02361 0.47635 0.49568 0.0
C549 C 0.01378 0.55302 0.62878 0.0
O550 O 0.99012 0.52873 0.46173 0.0
O551 O 0.96967 0.50292 0.5381 0.0
O552 O 0.03733 0.56144 0.44145 0.0
O553 O 0.0597 0.53312 0.45041 0.0
O554 O 0.02468 0.5643 0.57912 0.0
O555 O 0.0097 0.53112 0.61251 0.0
O556 O 0.03325 0.50145 0.66265 0.0
O557 O 0.05555 0.51748 0.57231 0.0
C558 C 0.97 0.51682 0.48464 0.0
C559 C 0.05419 0.50883 0.63416 0.0
H560 H 0.1725 0.03322 0.26027 0.0
H561 H 0.08191 0.96203 0.51189 0.0
H562 H 0.15101 0.95732 0.23952 0.0
H563 H 0.07149 0.03497 0.46537 0.0
H564 H 0.11175 0.9618 0.4209 0.0
H565 H 0.13874 0.03646 0.34022 0.0
C566 C 0.16048 0.01737 0.27134 0.0
C567 C 0.16493 0.99488 0.24384 0.0
C568 C 0.10287 0.97785 0.43019 0.0
C569 C 0.12686 0.99836 0.33644 0.0
C570 C 0.08594 0.97802 0.4824 0.0
C571 C 0.07399 0.99842 0.49551 0.0
C572 C 0.10847 0.99846 0.39152 0.0
C573 C 0.07995 0.0187 0.45576 0.0
C574 C 0.14135 0.0192 0.31732 0.0
C575 C 0.14873 0.97494 0.26051 0.0
N576 N 0.09696 0.01833 0.40585 0.0
N577 N 0.13083 0.97707 0.30631 0.0
H578 H 0.51602 0.16424 0.17692 0.0
H579 H 0.46137 0.04776 0.37733 0.0
H580 H 0.44036 0.14096 0.18657 0.0
H581 H 0.53063 0.08571 0.41959 0.0
H582 H 0.45511 0.07763 0.29241 0.0
H583 H 0.52357 0.13098 0.24998 0.0
C584 C 0.50107 0.15188 0.19346 0.0
C585 C 0.47754 0.15539 0.17595 0.0
C586 C 0.4717 0.07934 0.32024 0.0
C587 C 0.48595 0.11744 0.25954 0.0
C588 C 0.47529 0.06228 0.36866 0.0
C589 C 0.49647 0.06429 0.40618 0.0
C590 C 0.48955 0.09836 0.30842 0.0
C591 C 0.5139 0.08353 0.39252 0.0
C592 C 0.50534 0.13305 0.23557 0.0
C593 C 0.45876 0.13897 0.19934 0.0
N594 N 0.51008 0.09974 0.3448 0.0
N595 N 0.46335 0.12076 0.23993 0.0
H596 H 0.37262 0.52099 0.20064 0.0
H597 H 0.47297 0.52615 0.4043 0.0
H598 H 0.33487 0.5348 0.38517 0.0
H599 H 0.4239 0.51031 0.56996 0.0
H600 H 0.43913 0.52551 0.32867 0.0
H601 H 0.40701 0.51134 0.26656 0.0
C602 C 0.37142 0.52152 0.25504 0.0
C603 C 0.35095 0.52887 0.28743 0.0
C604 C 0.43558 0.52155 0.38106 0.0
C605 C 0.3906 0.51896 0.36361 0.0
C606 C 0.45502 0.52209 0.42463 0.0
C607 C 0.45134 0.51796 0.49365 0.0
C608 C 0.41204 0.51717 0.40652 0.0
C609 C 0.42761 0.51342 0.51713 0.0
C610 C 0.39125 0.51649 0.29284 0.0
C611 C 0.35041 0.52939 0.35818 0.0
N612 N 0.40889 0.51337 0.47382 0.0
N613 N 0.36993 0.52473 0.39373 0.0
H614 H 0.03237 0.3629 0.20735 0.0
H615 H 0.06838 0.4644 0.46993 0.0
H616 H 0.1035 0.40046 0.2076 0.0
H617 H 0.99756 0.45952 0.3861 0.0
H618 H 0.08119 0.43902 0.37707 0.0
H619 H 0.01788 0.39649 0.27246 0.0
C620 C 0.0448 0.37843 0.21946 0.0
C621 C 0.0693 0.37858 0.20322 0.0
C622 C 0.06295 0.44382 0.37822 0.0
C623 C 0.05301 0.41659 0.27902 0.0
C624 C 0.05568 0.45827 0.4311 0.0
C625 C 0.03205 0.4642 0.43481 0.0
C626 C 0.0462 0.4345 0.33005 0.0
C627 C 0.01607 0.45554 0.38409 0.0
C628 C 0.03655 0.3975 0.25695 0.0
C629 C 0.0846 0.3992 0.22065 0.0
N630 N 0.0233 0.4407 0.33427 0.0
N631 N 0.07635 0.41705 0.25882 0.0
H632 H 0.83563 0.01227 0.81163 0.0
H633 H 0.97627 0.0155 0.73122 0.0
H634 H 0.88398 0.98377 0.94817 0.0
H635 H 0.92247 0.01202 0.57746 0.0
H636 H 0.94439 0.01199 0.81728 0.0
H637 H 0.86917 0.0219 0.73302 0.0
C638 C 0.85355 0.00896 0.8262 0.0
C639 C 0.85715 0.99775 0.8872 0.0
C640 C 0.93958 0.012 0.76473 0.0
C641 C 0.89554 0.00795 0.79639 0.0
C642 C 0.95774 0.01386 0.71543 0.0
C643 C 0.95205 0.01352 0.64671 0.0
C644 C 0.91546 0.01051 0.74551 0.0
C645 C 0.92772 0.01204 0.62963 0.0
C646 C 0.87259 0.01405 0.78082 0.0
C647 C 0.88057 0.99298 0.90249 0.0
N648 N 0.91036 0.01067 0.67859 0.0
N649 N 0.89889 0.99803 0.85729 0.0
H650 H 0.58937 0.88264 0.90404 0.0
H651 H 0.4887 0.94034 0.70033 0.0
H652 H 0.51385 0.86175 0.93354 0.0
H653 H 0.56134 0.97369 0.71664 0.0
H654 H 0.49766 0.91066 0.78238 0.0
H655 H 0.57966 0.91548 0.83332 0.0
C656 C 0.57071 0.88513 0.89601 0.0
C657 C 0.55237 0.86941 0.92457 0.0
C658 C 0.51161 0.92454 0.7683 0.0
C659 C 0.54109 0.90682 0.84268 0.0
C660 C 0.50655 0.94145 0.72111 0.0
C661 C 0.52432 0.95954 0.70114 0.0
C662 C 0.53471 0.92542 0.7953 0.0
C663 C 0.54707 0.9601 0.73036 0.0
C664 C 0.56518 0.90389 0.85569 0.0
C665 C 0.52851 0.87353 0.9128 0.0
N666 N 0.55165 0.9432 0.77546 0.0
N667 N 0.52355 0.89165 0.8721 0.0
H668 H 0.67257 0.52727 0.8449 0.0
H669 H 0.58503 0.46454 0.56757 0.0
H670 H 0.65529 0.45051 0.82803 0.0
H671 H 0.57218 0.53366 0.65113 0.0
H672 H 0.61588 0.4615 0.65221 0.0
H673 H 0.63969 0.53239 0.76697 0.0
C674 C 0.66187 0.51151 0.82555 0.0
C675 C 0.66728 0.48838 0.84237 0.0
C676 C 0.60628 0.47733 0.65229 0.0
C677 C 0.63003 0.49418 0.75186 0.0
C678 C 0.58876 0.47912 0.60373 0.0
C679 C 0.57582 0.49922 0.60294 0.0
C680 C 0.6114 0.49605 0.6997 0.0
C681 C 0.58143 0.51763 0.65102 0.0
C682 C 0.64318 0.51448 0.78075 0.0
C683 C 0.6526 0.46871 0.81513 0.0
N684 N 0.59894 0.51571 0.69723 0.0
N685 N 0.63503 0.47205 0.77086 0.0
H686 H 0.93582 0.61522 0.95063 0.0
H687 H 0.03622 0.59419 0.67906 0.0
H688 H 1.00165 0.66158 0.93 0.0
H689 H 0.97914 0.53925 0.72522 0.0
H690 H 0.02545 0.61703 0.7783 0.0
H691 H 0.95282 0.58506 0.87867 0.0
C692 C 0.95411 0.61878 0.93234 0.0
C693 C 0.96728 0.64106 0.94583 0.0
C694 C 0.01537 0.59987 0.76758 0.0
C695 C 0.98667 0.6068 0.86221 0.0
C696 C 0.02147 0.58682 0.71063 0.0
C697 C 0.00839 0.5649 0.69357 0.0
C698 C 0.99564 0.59127 0.80753 0.0
C699 C 0.98962 0.55612 0.73661 0.0
C700 C 0.96377 0.60158 0.89105 0.0
C701 C 0.99089 0.64467 0.92107 0.0
N702 N 0.98352 0.56955 0.79112 0.0
N703 N 0.99964 0.62795 0.87947 0.0
H704 H 0.07942 0.20134 0.32382 0.0
H705 H 0.06236 0.05874 0.3408 0.0
H706 H 0.13811 0.15725 0.30085 0.0
H707 H 0.00859 0.10374 0.40987 0.0
H708 H 0.08914 0.09465 0.31491 0.0
H709 H 0.05297 0.16603 0.3526 0.0
C710 C 0.08705 0.1844 0.32664 0.0
C711 C 0.11123 0.18244 0.30939 0.0
C712 C 0.0714 0.09667 0.33512 0.0
C713 C 0.08037 0.14151 0.33956 0.0
C714 C 0.05597 0.07619 0.34893 0.0
C715 C 0.03324 0.07834 0.37748 0.0
C716 C 0.06397 0.11941 0.34966 0.0
C717 C 0.02595 0.10134 0.38767 0.0
C718 C 0.07169 0.1641 0.34203 0.0
C719 C 0.11958 0.15967 0.3125 0.0
N720 N 0.04134 0.12103 0.37415 0.0
N721 N 0.10411 0.14005 0.32636 0.0
H722 H 0.35473 0.86971 0.25521 0.0
H723 H 0.40925 0.96403 0.52488 0.0
H724 H 0.31319 0.90694 0.40022 0.0
H725 H 0.45256 0.92493 0.38955 0.0
H726 H 0.37424 0.93664 0.49518 0.0
H727 H 0.39064 0.88138 0.32128 0.0
C728 C 0.35297 0.87964 0.30201 0.0
C729 C 0.33104 0.88822 0.32048 0.0
C730 C 0.3914 0.93382 0.47227 0.0
C731 C 0.37197 0.90173 0.39585 0.0
C732 C 0.41133 0.94962 0.48878 0.0
C733 C 0.4336 0.94698 0.45837 0.0
C734 C 0.39366 0.91548 0.42405 0.0
C735 C 0.43552 0.92774 0.41316 0.0
C736 C 0.37352 0.8864 0.33956 0.0
C737 C 0.32969 0.90026 0.38284 0.0
N738 N 0.41568 0.91289 0.39646 0.0
N739 N 0.35 0.90724 0.41724 0.0
H740 H 0.38554 0.36591 0.22337 0.0
H741 H 0.51287 0.4328 0.3227 0.0
H742 H 0.44447 0.32935 0.29248 0.0
H743 H 0.448 0.46773 0.34334 0.0
H744 H 0.48873 0.39565 0.28805 0.0
H745 H 0.40832 0.40449 0.25234 0.0
C746 C 0.40293 0.36602 0.24655 0.0
C747 C 0.41303 0.34446 0.25638 0.0
C748 C 0.47986 0.4116 0.2991 0.0
C749 C 0.4395 0.38822 0.28611 0.0
C750 C 0.49365 0.43284 0.3175 0.0
C751 C 0.48231 0.45319 0.33548 0.0
C752 C 0.45471 0.41098 0.29809 0.0
C753 C 0.45731 0.45229 0.32955 0.0
C754 C 0.41602 0.38796 0.26214 0.0
C755 C 0.43583 0.34553 0.28527 0.0
N756 N 0.44426 0.43144 0.31167 0.0
N757 N 0.44846 0.36706 0.29814 0.0
H758 H 0.20003 0.61034 0.33975 0.0
H759 H 0.05774 0.59847 0.36917 0.0
H760 H 0.15881 0.65533 0.22203 0.0
H761 H 0.10304 0.54244 0.40665 0.0
H762 H 0.09348 0.6246 0.33282 0.0
H763 H 0.16353 0.59303 0.39177 0.0
C764 C 0.18352 0.61732 0.32583 0.0
C765 C 0.18278 0.634 0.27405 0.0
C766 C 0.09543 0.60654 0.34879 0.0
C767 C 0.14035 0.61299 0.33272 0.0
C768 C 0.07512 0.5916 0.36886 0.0
C769 C 0.07753 0.56828 0.39058 0.0
C770 C 0.11812 0.59811 0.35202 0.0
C771 C 0.10037 0.56025 0.38999 0.0
C772 C 0.16248 0.6069 0.35507 0.0
C773 C 0.16034 0.64187 0.25952 0.0
N774 N 0.11977 0.57521 0.37162 0.0
N775 N 0.13988 0.63089 0.28757 0.0
H776 H 0.95214 0.82008 0.84598 0.0
H777 H 0.94923 0.95805 0.75826 0.0
H778 H 0.88697 0.85487 0.83698 0.0
H779 H 0.01476 0.92501 0.78099 0.0
H780 H 0.92628 0.92083 0.79179 0.0
H781 H 0.97525 0.85791 0.81919 0.0
C782 C 0.94258 0.83552 0.83653 0.0
C783 C 0.91747 0.83421 0.84337 0.0
C784 C 0.94567 0.92172 0.79053 0.0
C785 C 0.94408 0.87792 0.81525 0.0
C786 C 0.95879 0.94305 0.77216 0.0
C787 C 0.98387 0.94449 0.76719 0.0
C788 C 0.95772 0.90155 0.80309 0.0
C789 C 0.99544 0.9246 0.78503 0.0
C790 C 0.95589 0.85726 0.8225 0.0
C791 C 0.90626 0.85505 0.83246 0.0
N792 N 0.98221 0.90374 0.80136 0.0
N793 N 0.91966 0.87607 0.81925 0.0
H794 H 0.64524 0.97475 0.89148 0.0
H795 H 0.61044 0.04835 0.57789 0.0
H796 H 0.67794 0.9687 0.69482 0.0
H797 H 0.57812 0.05315 0.77515 0.0
H798 H 0.64151 0.02642 0.62507 0.0
H799 H 0.6247 0.00787 0.85291 0.0
C800 C 0.64768 0.98002 0.83952 0.0
C801 C 0.66289 0.96847 0.79574 0.0
C802 C 0.62801 0.03283 0.65841 0.0
C803 C 0.63999 0.00725 0.75186 0.0
C804 C 0.61046 0.0457 0.63172 0.0
C805 C 0.59126 0.05181 0.67248 0.0
C806 C 0.62623 0.02624 0.72613 0.0
C807 C 0.59232 0.04824 0.74178 0.0
C808 C 0.6363 0.99933 0.81794 0.0
C809 C 0.66615 0.97689 0.72995 0.0
N810 N 0.60914 0.03506 0.76622 0.0
N811 N 0.65464 0.99571 0.7098 0.0
H812 H 0.6228 0.68633 0.75102 0.0
H813 H 0.55462 0.55822 0.82341 0.0
H814 H 0.61201 0.66097 0.95481 0.0
H815 H 0.52881 0.60642 0.68102 0.0
H816 H 0.58441 0.59086 0.86181 0.0
H817 H 0.59771 0.65074 0.71159 0.0
C818 C 0.61563 0.67343 0.78767 0.0
C819 C 0.61936 0.67752 0.857 0.0
C820 C 0.57206 0.59417 0.82243 0.0
C821 C 0.59135 0.63626 0.81119 0.0
C822 C 0.55497 0.57575 0.80121 0.0
C823 C 0.53903 0.57984 0.75001 0.0
C824 C 0.5736 0.6164 0.79048 0.0
C825 C 0.54049 0.60268 0.72157 0.0
C826 C 0.60135 0.65306 0.76481 0.0
C827 C 0.61016 0.65918 0.90096 0.0
N828 N 0.55769 0.62006 0.74166 0.0
N829 N 0.59651 0.63952 0.87733 0.0
H830 H 0.82237 0.40917 0.73165 0.0
H831 H 0.96473 0.41904 0.71824 0.0
H832 H 0.86049 0.36928 0.87136 0.0
H833 H 0.92145 0.47741 0.69014 0.0
H834 H 0.92799 0.3929 0.74735 0.0
H835 H 0.86034 0.42412 0.68036 0.0
C836 C 0.83858 0.40268 0.75 0.0
C837 C 0.83819 0.38838 0.80728 0.0
C838 C 0.92673 0.41144 0.7347 0.0
C839 C 0.88182 0.40616 0.74952 0.0
C840 C 0.94755 0.42634 0.71871 0.0
C841 C 0.94601 0.45041 0.70265 0.0
C842 C 0.90441 0.42065 0.73223 0.0
C843 C 0.92343 0.45904 0.70308 0.0
C844 C 0.86032 0.41161 0.72121 0.0
C845 C 0.86003 0.3808 0.82845 0.0
N846 N 0.90351 0.44411 0.71704 0.0
N847 N 0.88113 0.39025 0.80052 0.0
H848 H 0.0629 0.20359 0.7475 0.0
H849 H 0.03271 0.06095 0.78305 0.0
H850 H 0.04943 0.16787 0.93603 0.0
H851 H 0.04168 0.09587 0.59144 0.0
H852 H 0.03872 0.10024 0.83938 0.0
H853 H 0.05358 0.16478 0.68805 0.0
C854 C 0.05738 0.18768 0.77611 0.0
C855 C 0.05676 0.18886 0.84654 0.0
C856 C 0.03942 0.09932 0.78497 0.0
C857 C 0.0468 0.14447 0.77966 0.0
C858 C 0.03617 0.07681 0.75274 0.0
C859 C 0.03671 0.07495 0.68228 0.0
C860 C 0.04331 0.12024 0.74666 0.0
C861 C 0.04108 0.0963 0.64587 0.0
C862 C 0.05234 0.16551 0.74241 0.0
C863 C 0.04999 0.16767 0.88156 0.0
N864 N 0.04418 0.11799 0.67839 0.0
N865 N 0.04547 0.1464 0.84791 0.0
H866 H 0.33743 0.97955 0.7693 0.0
H867 H 0.45708 0.06613 0.69267 0.0
H868 H 0.36065 0.0383 0.90365 0.0
H869 H 0.44723 0.99087 0.63899 0.0
H870 H 0.41748 0.06204 0.74927 0.0
H871 H 0.37228 0.99048 0.69669 0.0
C872 C 0.34936 0.9954 0.78202 0.0
C873 C 0.34598 0.00815 0.84237 0.0
C874 C 0.42393 0.04655 0.7243 0.0
C875 C 0.38644 0.0204 0.7602 0.0
C876 C 0.44649 0.04884 0.69192 0.0
C877 C 0.45547 0.02883 0.66039 0.0
C878 C 0.41001 0.02421 0.72386 0.0
C879 C 0.44099 0.00686 0.66153 0.0
C880 C 0.36947 1.00139 0.74112 0.0
C881 C 0.36236 0.02822 0.85712 0.0
N882 N 0.41903 0.00518 0.69232 0.0
N883 N 0.38206 0.03359 0.81673 0.0
H884 H 0.49856 0.3441 0.86464 0.0
H885 H 0.48456 0.42908 0.55113 0.0
H886 H 0.45794 0.3225 0.68749 0.0
H887 H 0.51299 0.45615 0.74164 0.0
H888 H 0.47957 0.38883 0.59591 0.0
H889 H 0.50997 0.38348 0.8146 0.0
C890 C 0.49277 0.34737 0.81419 0.0
C891 C 0.47748 0.32997 0.77978 0.0
C892 C 0.48688 0.40351 0.62814 0.0
C893 C 0.48982 0.37511 0.72315 0.0
C894 C 0.48972 0.42663 0.60262 0.0
C895 C 0.49913 0.44623 0.6427 0.0
C896 C 0.49358 0.39963 0.69443 0.0
C897 C 0.50545 0.44169 0.70907 0.0
C898 C 0.49895 0.36996 0.78616 0.0
C899 C 0.46992 0.33535 0.71539 0.0
N900 N 0.5026 0.41886 0.73284 0.0
N901 N 0.47602 0.35743 0.68942 0.0
H902 H 0.20103 0.53361 0.77012 0.0
H903 H 0.06032 0.49052 0.76011 0.0
H904 H 0.16406 0.49305 0.92843 0.0
H905 H 0.10026 0.52379 0.59376 0.0
H906 H 0.09804 0.48935 0.82058 0.0
H907 H 0.16483 0.52744 0.70172 0.0
C908 C 0.18546 0.52271 0.78949 0.0
C909 C 0.18569 0.51339 0.85439 0.0
C910 C 0.09855 0.49677 0.77068 0.0
C911 C 0.14364 0.50713 0.77765 0.0
C912 C 0.07696 0.49753 0.73612 0.0
C913 C 0.07694 0.50739 0.67164 0.0
C914 C 0.12038 0.50606 0.74088 0.0
C915 C 0.09921 0.51609 0.64332 0.0
C916 C 0.16467 0.51941 0.75081 0.0
C917 C 0.16478 0.50006 0.87803 0.0
N918 N 0.11988 0.51533 0.67812 0.0
N919 N 0.14453 0.49755 0.84006 0.0
H920 H 1.00448 0.82691 0.30108 0.0
H921 H 0.96566 0.95418 0.40456 0.0
H922 H 0.93015 0.8374 0.33899 0.0
H923 H 0.02564 0.92846 0.50411 0.0
H924 H 0.95587 0.91377 0.35473 0.0
H925 H 0.01612 0.866 0.3563 0.0
C926 C 0.99061 0.83712 0.32174 0.0
C927 C 0.96623 0.82886 0.31395 0.0
C928 C 0.97127 0.91711 0.38715 0.0
C929 C 0.97948 0.87397 0.37425 0.0
C930 C 0.97694 0.94013 0.415 0.0
C931 C 0.9964 0.94454 0.4585 0.0
C932 C 0.98558 0.89866 0.40145 0.0
C933 C 0.01038 0.92567 0.47102 0.0
C934 C 0.99729 0.85953 0.35253 0.0
C935 C 0.94914 0.8432 0.34154 0.0
N936 N 1.00483 0.90357 0.44226 0.0
N937 N 0.95605 0.86517 0.36909 0.0
H938 H 0.67787 0.02527 0.28161 0.0
H939 H 0.56619 0.95434 0.47317 0.0
H940 H 0.67272 0.95021 0.32867 0.0
H941 H 0.57126 0.03074 0.44437 0.0
H942 H 0.60681 0.95372 0.42766 0.0
H943 H 0.64125 0.02922 0.34945 0.0
C944 C 0.66947 0.00981 0.30787 0.0
C945 C 0.67843 0.98739 0.29961 0.0
C946 C 0.59921 0.97071 0.43155 0.0
C947 C 0.63617 0.99156 0.37575 0.0
C948 C 0.57592 0.97105 0.4575 0.0
C949 C 0.56519 0.99258 0.4623 0.0
C950 C 0.61205 0.99206 0.40929 0.0
C951 C 0.57881 0.01371 0.44156 0.0
C952 C 0.6484 0.01199 0.34596 0.0
C953 C 0.66648 0.96784 0.33368 0.0
N954 N 0.60142 0.0129 0.4154 0.0
N955 N 0.64598 0.97032 0.36943 0.0
H956 H 0.58471 0.70539 0.41735 0.0
H957 H 0.52417 0.5717 0.35173 0.0
H958 H 0.54015 0.68555 0.24636 0.0
H959 H 0.55294 0.59686 0.54358 0.0
H960 H 0.53122 0.6128 0.31019 0.0
H961 H 0.57324 0.6658 0.46481 0.0
C962 C 0.57195 0.6929 0.3908 0.0
C963 C 0.56315 0.69884 0.32824 0.0
C964 C 0.53598 0.60928 0.36136 0.0
C965 C 0.55069 0.65307 0.38074 0.0
C966 C 0.53221 0.58575 0.38489 0.0
C967 C 0.53806 0.58069 0.45121 0.0
C968 C 0.5459 0.62788 0.40417 0.0
C969 C 0.54814 0.5998 0.49208 0.0
C970 C 0.56559 0.6702 0.4175 0.0
C971 C 0.54701 0.68182 0.29526 0.0
N972 N 0.55179 0.62243 0.46788 0.0
N973 N 0.54158 0.65959 0.32137 0.0
H974 H 0.82266 0.48756 0.35941 0.0
H975 H 0.96254 0.53597 0.36015 0.0
H976 H 0.85968 0.51772 0.18497 0.0
H977 H 0.92459 0.50004 0.52572 0.0
H978 H 0.92444 0.53496 0.29981 0.0
H979 H 0.85856 0.49862 0.42624 0.0
C980 C 0.83812 0.49733 0.33579 0.0
C981 C 0.83805 0.50204 0.26676 0.0
C982 C 0.92447 0.52747 0.34957 0.0
C983 C 0.87983 0.51387 0.34237 0.0
C984 C 0.94625 0.52805 0.38415 0.0
C985 C 0.94697 0.5179 0.44814 0.0
C986 C 0.90315 0.51681 0.37923 0.0
C987 C 0.92514 0.50791 0.4764 0.0
C988 C 0.85879 0.50334 0.37371 0.0
C989 C 0.85883 0.51417 0.2383 0.0
N990 N 0.9043 0.50755 0.44183 0.0
N991 N 0.87899 0.51937 0.27592 0.0
loop_
_geom_bond_atom_site_label_1
_geom_bond_atom_site_label_2
_geom_bond_distance
_geom_bond_site_symmetry_2
_ccdc_geom_bond_type
C0 C1 1.391 . S
C0 C4 1.391 . S
C0 H42 0.948 . S
C1 C0 1.391 . S
C1 C2 1.391 . S
C2 C1 1.391 . S
C2 H58 0.947 . S
C2 C59 1.392 . S
C3 C4 1.391 . S
C3 C7 1.397 . S
C3 C59 1.419 . S
C4 C0 1.391 . S
C4 C3 1.391 . S
C4 C5 1.399 . S
C5 C4 1.399 . S
C5 C8 1.396 . S
C5 C17 1.453 . S
C5 C18 1.684 . S
H6 C30 0.948 . S
C7 C3 1.397 . S
C7 C8 1.394 . S
C7 C26 1.723 . S
C8 C5 1.396 . S
C8 C7 1.394 . S
C8 C38 1.723 . S
H9 C32 0.947 . S
H10 C33 0.948 . S
H11 C39 0.982 . S
H12 C40 0.979 . S
H13 C40 0.980 . S
H14 C40 0.983 . S
H15 C39 0.979 . S
H16 C39 0.977 . S
C17 C5 1.453 . S
C17 H46 0.982 . S
C17 H47 0.979 . S
C17 H48 0.977 . S
C18 C5 1.684 . S
C18 H43 0.979 . S
C18 H44 0.980 . S
C18 H45 0.983 . S
C19 C20 1.391 . S
C19 C24 1.391 . S
C19 H49 0.948 . S
C20 C19 1.391 . S
C20 C21 1.391 . S
C21 C20 1.391 . S
C21 C22 1.392 . S
C21 H50 0.947 . S
C22 C21 1.392 . S
C22 C23 1.419 . S
C22 H51 0.948 . S
C23 C22 1.419 . S
C23 C24 1.391 . S
C23 C27 1.397 . S
C24 C19 1.391 . S
C24 C23 1.391 . S
C24 C25 1.399 . S
C25 C24 1.399 . S
C25 C26 1.396 1_556 S
C25 C28 1.453 1_556 S
C25 C29 1.684 1_556 S
C26 C7 1.723 . S
C26 C25 1.396 1_554 S
C26 C27 1.394 1_554 S
C27 C23 1.397 . S
C27 C26 1.394 1_556 S
C27 C37 1.723 . S
C28 C25 1.453 1_554 S
C28 H52 0.982 . S
C28 H53 0.979 . S
C28 H54 0.977 . S
C29 C25 1.684 1_554 S
C29 H55 0.979 . S
C29 H56 0.980 . S
C29 H57 0.983 . S
C30 H6 0.948 . S
C30 C31 1.391 . S
C30 C35 1.391 . S
C31 C30 1.391 . S
C31 C32 1.391 1_556 S
C32 H9 0.947 . S
C32 C31 1.391 1_554 S
C32 C33 1.392 . S
C33 H10 0.948 . S
C33 C32 1.392 . S
C33 C34 1.419 . S
C34 C33 1.419 . S
C34 C35 1.391 1_554 S
C34 C38 1.397 . S
C35 C30 1.391 . S
C35 C34 1.391 1_556 S
C35 C36 1.399 . S
C36 C35 1.399 . S
C36 C37 1.396 . S
C36 C39 1.453 . S
C36 C40 1.684 . S
C37 C27 1.723 . S
C37 C36 1.396 . S
C37 C38 1.394 1_556 S
C38 C8 1.723 . S
C38 C34 1.397 . S
C38 C37 1.394 1_554 S
C39 H11 0.982 . S
C39 H15 0.979 . S
C39 H16 0.977 . S
C39 C36 1.453 . S
C40 H12 0.979 . S
C40 H13 0.980 . S
C40 H14 0.983 . S
C40 C36 1.684 . S
H41 C59 0.948 . S
H42 C0 0.948 . S
H43 C18 0.979 . S
H44 C18 0.980 . S
H45 C18 0.983 . S
H46 C17 0.982 . S
H47 C17 0.979 . S
H48 C17 0.977 . S
H49 C19 0.948 . S
H50 C21 0.947 . S
H51 C22 0.948 . S
H52 C28 0.982 . S
H53 C28 0.979 . S
H54 C28 0.977 . S
H55 C29 0.979 . S
H56 C29 0.980 . S
H57 C29 0.983 . S
H58 C2 0.947 . S
C59 C2 1.392 . S
C59 C3 1.419 . S
C59 H41 0.948 . S
C60 C61 1.391 . S
C60 C64 1.391 . S
C60 H102 0.948 . S
C61 C60 1.391 . S
C61 C62 1.391 . S
C62 C61 1.391 . S
C62 H118 0.947 . S
C62 C119 1.392 . S
C63 C64 1.391 . S
C63 C67 1.397 . S
C63 C119 1.419 . S
C64 C60 1.391 . S
C64 C63 1.391 . S
C64 C65 1.399 . S
C65 C64 1.399 . S
C65 C68 1.396 . S
C65 C77 1.453 . S
C65 C78 1.684 . S
H66 C90 0.948 1_554 S
C67 C63 1.397 . S
C67 C68 1.394 . S
C67 C86 1.723 1_556 S
C68 C65 1.396 . S
C68 C67 1.394 . S
C68 C98 1.723 . S
H69 C92 0.947 . S
H70 C93 0.948 . S
H71 C99 0.982 . S
H72 C100 0.979 . S
H73 C100 0.980 . S
H74 C100 0.983 . S
H75 C99 0.979 . S
H76 C99 0.977 . S
C77 C65 1.453 . S
C77 H106 0.982 . S
C77 H107 0.979 . S
C77 H108 0.977 . S
C78 C65 1.684 . S
C78 H103 0.979 . S
C78 H104 0.980 . S
C78 H105 0.983 . S
C79 C80 1.391 . S
C79 C84 1.391 . S
C79 H109 0.948 . S
C80 C79 1.391 . S
C80 C81 1.391 . S
C81 C80 1.391 . S
C81 C82 1.392 . S
C81 H110 0.947 . S
C82 C81 1.392 . S
C82 C83 1.419 . S
C82 H111 0.948 . S
C83 C82 1.419 . S
C83 C84 1.391 . S
C83 C87 1.397 . S
C84 C79 1.391 . S
C84 C83 1.391 . S
C84 C85 1.399 . S
C85 C84 1.399 . S
C85 C86 1.396 . S
C85 C88 1.453 . S
C85 C89 1.684 . S
C86 C67 1.723 1_554 S
C86 C85 1.396 . S
C86 C87 1.394 . S
C87 C83 1.397 . S
C87 C86 1.394 . S
C87 C97 1.723 . S
C88 C85 1.453 . S
C88 H112 0.982 . S
C88 H113 0.979 . S
C88 H114 0.977 . S
C89 C85 1.684 . S
C89 H115 0.979 . S
C89 H116 0.980 . S
C89 H117 0.983 . S
C90 H66 0.948 1_556 S
C90 C91 1.391 . S
C90 C95 1.391 1_556 S
C91 C90 1.391 . S
C91 C92 1.391 . S
C92 H69 0.947 . S
C92 C91 1.391 . S
C92 C93 1.392 . S
C93 H70 0.948 . S
C93 C92 1.392 . S
C93 C94 1.419 . S
C94 C93 1.419 . S
C94 C95 1.391 1_556 S
C94 C98 1.397 . S
C95 C90 1.391 1_554 S
C95 C94 1.391 1_554 S
C95 C96 1.399 . S
C96 C95 1.399 . S
C96 C97 1.396 . S
C96 C99 1.453 . S
C96 C100 1.684 . S
C97 C87 1.723 . S
C97 C96 1.396 . S
C97 C98 1.394 1_554 S
C98 C68 1.723 . S
C98 C94 1.397 . S
C98 C97 1.394 1_556 S
C99 H71 0.982 . S
C99 H75 0.979 . S
C99 H76 0.977 . S
C99 C96 1.453 . S
C100 H72 0.979 . S
C100 H73 0.980 . S
C100 H74 0.983 . S
C100 C96 1.684 . S
H101 C119 0.948 . S
H102 C60 0.948 . S
H103 C78 0.979 . S
H104 C78 0.980 . S
H105 C78 0.983 . S
H106 C77 0.982 . S
H107 C77 0.979 . S
H108 C77 0.977 . S
H109 C79 0.948 . S
H110 C81 0.947 . S
H111 C82 0.948 . S
H112 C88 0.982 . S
H113 C88 0.979 . S
H114 C88 0.977 . S
H115 C89 0.979 . S
H116 C89 0.980 . S
H117 C89 0.983 . S
H118 C62 0.947 . S
C119 C62 1.392 . S
C119 C63 1.419 . S
C119 H101 0.948 . S
C120 C121 1.391 1_554 S
C120 C124 1.391 . S
C120 H162 0.948 . S
C121 C120 1.391 1_556 S
C121 C122 1.391 . S
C122 C121 1.391 . S
C122 H178 0.947 . S
C122 C179 1.392 . S
C123 C124 1.391 1_556 S
C123 C127 1.397 1_566 S
C123 C179 1.419 . S
C124 C120 1.391 . S
C124 C123 1.391 1_554 S
C124 C125 1.399 . S
C125 C124 1.399 . S
C125 C128 1.396 1_565 S
C125 C137 1.453 1_565 S
C125 C138 1.684 . S
H126 C150 0.948 . S
C127 C123 1.397 1_544 S
C127 C128 1.394 . S
C127 C146 1.722 1_554 S
C128 C125 1.396 1_545 S
C128 C127 1.394 . S
C128 C158 1.723 . S
H129 C152 0.947 . S
H130 C153 0.948 . S
H131 C159 0.982 . S
H132 C160 0.979 . S
H133 C160 0.980 . S
H134 C160 0.983 . S
H135 C159 0.979 . S
H136 C159 0.977 . S
C137 C125 1.453 1_545 S
C137 H166 0.982 . S
C137 H167 0.979 . S
C137 H168 0.977 . S
C138 C125 1.684 . S
C138 H163 0.979 . S
C138 H164 0.980 . S
C138 H165 0.983 . S
C139 C140 1.391 . S
C139 C144 1.391 . S
C139 H169 0.948 . S
C140 C139 1.391 . S
C140 C141 1.391 . S
C141 C140 1.391 . S
C141 C142 1.392 . S
C141 H170 0.947 . S
C142 C141 1.392 . S
C142 C143 1.419 . S
C142 H171 0.948 1_556 S
C143 C142 1.419 . S
C143 C144 1.391 . S
C143 C147 1.397 1_565 S
C144 C139 1.391 . S
C144 C143 1.391 . S
C144 C145 1.399 . S
C145 C144 1.399 . S
C145 C146 1.396 1_565 S
C145 C148 1.453 1_565 S
C145 C149 1.684 . S
C146 C127 1.722 1_556 S
C146 C145 1.396 1_545 S
C146 C147 1.394 . S
C147 C143 1.397 1_545 S
C147 C146 1.394 . S
C147 C157 1.723 1_556 S
C148 C145 1.453 1_545 S
C148 H172 0.982 . S
C148 H173 0.979 . S
C148 H174 0.977 . S
C149 C145 1.684 . S
C149 H175 0.979 . S
C149 H176 0.980 . S
C149 H177 0.983 . S
C150 H126 0.948 . S
C150 C151 1.391 . S
C150 C155 1.391 . S
C151 C150 1.391 . S
C151 C152 1.391 . S
C152 H129 0.947 . S
C152 C151 1.391 . S
C152 C153 1.392 . S
C153 H130 0.948 . S
C153 C152 1.392 . S
C153 C154 1.419 . S
C154 C153 1.419 . S
C154 C155 1.391 . S
C154 C158 1.397 1_565 S
C155 C150 1.391 . S
C155 C154 1.391 . S
C155 C156 1.399 . S
C156 C155 1.399 . S
C156 C157 1.396 1_565 S
C156 C159 1.453 1_565 S
C156 C160 1.684 . S
C157 C147 1.723 1_554 S
C157 C156 1.396 1_545 S
C157 C158 1.394 . S
C158 C128 1.723 . S
C158 C154 1.397 1_545 S
C158 C157 1.394 . S
C159 H131 0.982 . S
C159 H135 0.979 . S
C159 H136 0.977 . S
C159 C156 1.453 1_545 S
C160 H132 0.979 . S
C160 H133 0.980 . S
C160 H134 0.983 . S
C160 C156 1.684 . S
H161 C179 0.948 . S
H162 C120 0.948 . S
H163 C138 0.979 . S
H164 C138 0.980 . S
H165 C138 0.983 . S
H166 C137 0.982 . S
H167 C137 0.979 . S
H168 C137 0.977 . S
H169 C139 0.948 . S
H170 C141 0.947 . S
H171 C142 0.948 1_554 S
H172 C148 0.982 . S
H173 C148 0.979 . S
H174 C148 0.977 . S
H175 C149 0.979 . S
H176 C149 0.980 . S
H177 C149 0.983 . S
H178 C122 0.947 . S
C179 C122 1.392 . S
C179 C123 1.419 . S
C179 H161 0.948 . S
C180 C181 1.391 . S
C180 C184 1.391 . S
C180 H222 0.948 . S
C181 C180 1.391 . S
C181 C182 1.391 . S
C182 C181 1.391 . S
C182 H238 0.947 . S
C182 C239 1.392 . S
C183 C184 1.391 . S
C183 C187 1.397 . S
C183 C239 1.419 . S
C184 C180 1.391 . S
C184 C183 1.391 . S
C184 C185 1.399 . S
C185 C184 1.399 . S
C185 C188 1.396 . S
C185 C197 1.453 . S
C185 C198 1.684 . S
H186 C210 0.948 . S
C187 C183 1.397 . S
C187 C188 1.394 . S
C187 C206 1.723 . S
C188 C185 1.396 . S
C188 C187 1.394 . S
C188 C218 1.723 . S
H189 C212 0.947 . S
H190 C213 0.948 . S
H191 C219 0.982 . S
H192 C220 0.979 . S
H193 C220 0.980 . S
H194 C220 0.983 . S
H195 C219 0.979 . S
H196 C219 0.977 . S
C197 C185 1.453 . S
C197 H226 0.982 . S
C197 H227 0.979 . S
C197 H228 0.977 . S
C198 C185 1.684 . S
C198 H223 0.979 . S
C198 H224 0.980 . S
C198 H225 0.983 . S
C199 C200 1.391 . S
C199 C204 1.391 . S
C199 H229 0.948 . S
C200 C199 1.391 . S
C200 C201 1.391 . S
C201 C200 1.391 . S
C201 C202 1.392 . S
C201 H230 0.947 . S
C202 C201 1.392 . S
C202 C203 1.419 . S
C202 H231 0.948 . S
C203 C202 1.419 . S
C203 C204 1.391 . S
C203 C207 1.397 1_556 S
C204 C199 1.391 . S
C204 C203 1.391 . S
C204 C205 1.399 1_556 S
C205 C204 1.399 1_554 S
C205 C206 1.396 . S
C205 C208 1.453 . S
C205 C209 1.684 . S
C206 C187 1.723 . S
C206 C205 1.396 . S
C206 C207 1.394 . S
C207 C203 1.397 1_554 S
C207 C206 1.394 . S
C207 C217 1.723 1_554 S
C208 C205 1.453 . S
C208 H232 0.982 . S
C208 H233 0.979 . S
C208 H234 0.977 . S
C209 C205 1.684 . S
C209 H235 0.979 . S
C209 H236 0.980 . S
C209 H237 0.983 . S
C210 H186 0.948 . S
C210 C211 1.391 1_556 S
C210 C215 1.391 . S
C211 C210 1.391 1_554 S
C211 C212 1.391 . S
C212 H189 0.947 . S
C212 C211 1.391 . S
C212 C213 1.392 . S
C213 H190 0.948 . S
C213 C212 1.392 . S
C213 C214 1.419 . S
C214 C213 1.419 . S
C214 C215 1.391 1_554 S
C214 C218 1.397 . S
C215 C210 1.391 . S
C215 C214 1.391 1_556 S
C215 C216 1.399 . S
C216 C215 1.399 . S
C216 C217 1.396 . S
C216 C219 1.453 . S
C216 C220 1.684 . S
C217 C207 1.723 1_556 S
C217 C216 1.396 . S
C217 C218 1.394 1_556 S
C218 C188 1.723 . S
C218 C214 1.397 . S
C218 C217 1.394 1_554 S
C219 H191 0.982 . S
C219 H195 0.979 . S
C219 H196 0.977 . S
C219 C216 1.453 . S
C220 H192 0.979 . S
C220 H193 0.980 . S
C220 H194 0.983 . S
C220 C216 1.684 . S
H221 C239 0.948 . S
H222 C180 0.948 . S
H223 C198 0.979 . S
H224 C198 0.980 . S
H225 C198 0.983 . S
H226 C197 0.982 . S
H227 C197 0.979 . S
H228 C197 0.977 . S
H229 C199 0.948 . S
H230 C201 0.947 . S
H231 C202 0.948 . S
H232 C208 0.982 . S
H233 C208 0.979 . S
H234 C208 0.977 . S
H235 C209 0.979 . S
H236 C209 0.980 . S
H237 C209 0.983 . S
H238 C182 0.947 . S
C239 C182 1.392 . S
C239 C183 1.419 . S
C239 H221 0.948 . S
C240 C241 1.391 . S
C240 C244 1.391 . S
C240 H282 0.948 . S
C241 C240 1.391 . S
C241 C242 1.391 . S
C242 C241 1.391 . S
C242 H298 0.947 . S
C242 C299 1.392 . S
C243 C244 1.391 . S
C243 C247 1.397 . S
C243 C299 1.419 . S
C244 C240 1.391 . S
C244 C243 1.391 . S
C244 C245 1.399 . S
C245 C244 1.399 . S
C245 C248 1.396 . S
C245 C257 1.453 1_554 S
C245 C258 1.684 1_554 S
H246 C270 0.948 . S
C247 C243 1.397 . S
C247 C248 1.394 . S
C247 C266 1.723 . S
C248 C245 1.396 . S
C248 C247 1.394 . S
C248 C278 1.723 . S
H249 C272 0.947 . S
H250 C273 0.948 . S
H251 C279 0.982 . S
H252 C280 0.979 . S
H253 C280 0.980 . S
H254 C280 0.983 1_556 S
H255 C279 0.979 1_556 S
H256 C279 0.977 . S
C257 C245 1.453 1_556 S
C257 H286 0.982 1_556 S
C257 H287 0.979 . S
C257 H288 0.977 . S
C258 C245 1.684 1_556 S
C258 H283 0.979 . S
C258 H284 0.980 . S
C258 H285 0.983 . S
C259 C260 1.391 . S
C259 C264 1.391 . S
C259 H289 0.948 . S
C260 C259 1.391 . S
C260 C261 1.391 . S
C261 C260 1.391 . S
C261 C262 1.392 . S
C261 H290 0.947 . S
C262 C261 1.392 . S
C262 C263 1.419 . S
C262 H291 0.948 . S
C263 C262 1.419 . S
C263 C264 1.391 . S
C263 C267 1.397 . S
C264 C259 1.391 . S
C264 C263 1.391 . S
C264 C265 1.399 . S
C265 C264 1.399 . S
C265 C266 1.396 . S
C265 C268 1.453 . S
C265 C269 1.684 . S
C266 C247 1.723 . S
C266 C265 1.396 . S
C266 C267 1.394 . S
C267 C263 1.397 . S
C267 C266 1.394 . S
C267 C277 1.723 . S
C268 C265 1.453 . S
C268 H292 0.982 . S
C268 H293 0.979 . S
C268 H294 0.977 . S
C269 C265 1.684 . S
C269 H295 0.979 . S
C269 H296 0.980 . S
C269 H297 0.983 . S
C270 H246 0.948 . S
C270 C271 1.391 . S
C270 C275 1.391 . S
C271 C270 1.391 . S
C271 C272 1.391 . S
C272 H249 0.947 . S
C272 C271 1.391 . S
C272 C273 1.392 . S
C273 H250 0.948 . S
C273 C272 1.392 . S
C273 C274 1.419 . S
C274 C273 1.419 . S
C274 C275 1.391 . S
C274 C278 1.397 1_556 S
C275 C270 1.391 . S
C275 C274 1.391 . S
C275 C276 1.399 1_556 S
C276 C275 1.399 1_554 S
C276 C277 1.396 . S
C276 C279 1.453 . S
C276 C280 1.684 . S
C277 C267 1.723 . S
C277 C276 1.396 . S
C277 C278 1.394 . S
C278 C248 1.723 . S
C278 C274 1.397 1_554 S
C278 C277 1.394 . S
C279 H251 0.982 . S
C279 H255 0.979 1_554 S
C279 H256 0.977 . S
C279 C276 1.453 . S
C280 H252 0.979 . S
C280 H253 0.980 . S
C280 H254 0.983 1_554 S
C280 C276 1.684 . S
H281 C299 0.948 . S
H282 C240 0.948 . S
H283 C258 0.979 . S
H284 C258 0.980 . S
H285 C258 0.983 . S
H286 C257 0.982 1_554 S
H287 C257 0.979 . S
H288 C257 0.977 . S
H289 C259 0.948 . S
H290 C261 0.947 . S
H291 C262 0.948 . S
H292 C268 0.982 . S
H293 C268 0.979 . S
H294 C268 0.977 . S
H295 C269 0.979 . S
H296 C269 0.980 . S
H297 C269 0.983 . S
H298 C242 0.947 . S
C299 C242 1.392 . S
C299 C243 1.419 . S
C299 H281 0.948 . S
C300 C301 1.391 . S
C300 C304 1.391 . S
C300 H342 0.948 . S
C301 C300 1.391 . S
C301 C302 1.391 . S
C302 C301 1.391 . S
C302 H358 0.947 . S
C302 C359 1.392 . S
C303 C304 1.391 . S
C303 C307 1.397 . S
C303 C359 1.419 . S
C304 C300 1.391 . S
C304 C303 1.391 . S
C304 C305 1.399 . S
C305 C304 1.399 . S
C305 C308 1.396 . S
C305 C317 1.453 . S
C305 C318 1.684 . S
H306 C330 0.948 . S
C307 C303 1.397 . S
C307 C308 1.394 . S
C307 C326 1.723 . S
C308 C305 1.396 . S
C308 C307 1.394 . S
C308 C338 1.723 . S
H309 C332 0.947 . S
H310 C333 0.948 . S
H311 C339 0.989 . S
H312 C340 0.979 1_554 S
H313 C340 0.980 . S
H314 C340 0.983 . S
H315 C339 0.974 1_556 S
H316 C339 0.965 1_556 S
C317 C305 1.453 . S
C317 H346 0.982 . S
C317 H347 0.979 . S
C317 H348 0.977 . S
C318 C305 1.684 . S
C318 H343 0.979 . S
C318 H344 0.980 . S
C318 H345 0.983 . S
C319 C320 1.391 . S
C319 C324 1.391 . S
C319 H349 0.948 . S
C320 C319 1.391 . S
C320 C321 1.391 . S
C321 C320 1.391 . S
C321 C322 1.392 . S
C321 H350 0.947 . S
C322 C321 1.392 . S
C322 C323 1.419 . S
C322 H351 0.948 . S
C323 C322 1.419 . S
C323 C324 1.391 . S
C323 C327 1.397 1_556 S
C324 C319 1.391 . S
C324 C323 1.391 . S
C324 C325 1.399 1_556 S
C325 C324 1.399 1_554 S
C325 C326 1.396 . S
C325 C328 1.453 . S
C325 C329 1.684 . S
C326 C307 1.723 . S
C326 C325 1.396 . S
C326 C327 1.394 . S
C327 C323 1.397 1_554 S
C327 C326 1.394 . S
C327 C337 1.723 . S
C328 C325 1.453 . S
C328 H352 0.982 . S
C328 H353 0.979 1_554 S
C328 H354 0.977 . S
C329 C325 1.684 . S
C329 H355 0.979 . S
C329 H356 0.980 . S
C329 H357 0.983 1_554 S
C330 H306 0.948 . S
C330 C331 1.391 . S
C330 C335 1.391 . S
C331 C330 1.391 . S
C331 C332 1.391 . S
C332 H309 0.947 . S
C332 C331 1.391 . S
C332 C333 1.392 . S
C333 H310 0.948 . S
C333 C332 1.392 . S
C333 C334 1.419 . S
C334 C333 1.419 . S
C334 C335 1.391 . S
C334 C338 1.397 . S
C335 C330 1.391 . S
C335 C334 1.391 . S
C335 C336 1.399 . S
C336 C335 1.399 . S
C336 C337 1.396 . S
C336 C339 1.463 . S
C336 C340 1.684 1_554 S
C337 C327 1.723 . S
C337 C336 1.396 . S
C337 C338 1.394 . S
C338 C308 1.723 . S
C338 C334 1.397 . S
C338 C337 1.394 . S
C339 H311 0.989 . S
C339 H315 0.974 1_554 S
C339 H316 0.965 1_554 S
C339 C336 1.463 . S
C340 H312 0.979 1_556 S
C340 H313 0.980 . S
C340 H314 0.983 . S
C340 C336 1.684 1_556 S
H341 C359 0.948 . S
H342 C300 0.948 . S
H343 C318 0.979 . S
H344 C318 0.980 . S
H345 C318 0.983 . S
H346 C317 0.982 . S
H347 C317 0.979 . S
H348 C317 0.977 . S
H349 C319 0.948 . S
H350 C321 0.947 . S
H351 C322 0.948 . S
H352 C328 0.982 . S
H353 C328 0.979 1_556 S
H354 C328 0.977 . S
H355 C329 0.979 . S
H356 C329 0.980 . S
H357 C329 0.983 1_556 S
H358 C302 0.947 . S
C359 C302 1.392 . S
C359 C303 1.419 . S
C359 H341 0.948 . S
C360 C361 1.391 . S
C360 C364 1.391 . S
C360 H402 0.948 . S
C361 C360 1.391 . S
C361 C362 1.391 . S
C362 C361 1.391 . S
C362 H418 0.947 . S
C362 C419 1.392 . S
C363 C364 1.391 . S
C363 C367 1.397 1_546 S
C363 C419 1.419 . S
C364 C360 1.391 . S
C364 C363 1.391 . S
C364 C365 1.399 . S
C365 C364 1.399 . S
C365 C368 1.396 1_546 S
C365 C377 1.453 1_545 S
C365 C378 1.684 . S
H366 C390 0.948 . S
C367 C363 1.397 1_564 S
C367 C368 1.394 . S
C367 C386 1.723 . S
C368 C365 1.396 1_564 S
C368 C367 1.394 . S
C368 C398 1.723 . S
H369 C392 0.947 . S
H370 C393 0.948 1_556 S
H371 C399 0.982 . S
H372 C400 0.979 . S
H373 C400 0.980 . S
H374 C400 0.983 . S
H375 C399 0.979 . S
H376 C399 0.977 . S
C377 C365 1.453 1_565 S
C377 H406 0.982 . S
C377 H407 0.979 . S
C377 H408 0.977 . S
C378 C365 1.684 . S
C378 H403 0.979 . S
C378 H404 0.980 . S
C378 H405 0.983 . S
C379 C380 1.391 . S
C379 C384 1.391 . S
C379 H409 0.948 . S
C380 C379 1.391 . S
C380 C381 1.391 . S
C381 C380 1.391 . S
C381 C382 1.392 . S
C381 H410 0.947 . S
C382 C381 1.392 . S
C382 C383 1.419 . S
C382 H411 0.948 . S
C383 C382 1.419 . S
C383 C384 1.391 . S
C383 C387 1.397 1_545 S
C384 C379 1.391 . S
C384 C383 1.391 . S
C384 C385 1.399 . S
C385 C384 1.399 . S
C385 C386 1.396 1_545 S
C385 C388 1.453 1_545 S
C385 C389 1.684 . S
C386 C367 1.723 . S
C386 C385 1.396 1_565 S
C386 C387 1.394 . S
C387 C383 1.397 1_565 S
C387 C386 1.394 . S
C387 C397 1.723 . S
C388 C385 1.453 1_565 S
C388 H412 0.982 . S
C388 H413 0.979 . S
C388 H414 0.977 . S
C389 C385 1.684 . S
C389 H415 0.979 . S
C389 H416 0.980 . S
C389 H417 0.983 . S
C390 H366 0.948 . S
C390 C391 1.391 . S
C390 C395 1.391 . S
C391 C390 1.391 . S
C391 C392 1.391 . S
C392 H369 0.947 . S
C392 C391 1.391 . S
C392 C393 1.392 . S
C393 H370 0.948 1_554 S
C393 C392 1.392 . S
C393 C394 1.419 . S
C394 C393 1.419 . S
C394 C395 1.391 . S
C394 C398 1.397 1_545 S
C395 C390 1.391 . S
C395 C394 1.391 . S
C395 C396 1.399 . S
C396 C395 1.399 . S
C396 C397 1.396 1_545 S
C396 C399 1.453 1_545 S
C396 C400 1.684 . S
C397 C387 1.723 . S
C397 C396 1.396 1_565 S
C397 C398 1.394 . S
C398 C368 1.723 . S
C398 C394 1.397 1_565 S
C398 C397 1.394 . S
C399 H371 0.982 . S
C399 H375 0.979 . S
C399 H376 0.977 . S
C399 C396 1.453 1_565 S
C400 H372 0.979 . S
C400 H373 0.980 . S
C400 H374 0.983 . S
C400 C396 1.684 . S
H401 C419 0.948 . S
H402 C360 0.948 . S
H403 C378 0.979 . S
H404 C378 0.980 . S
H405 C378 0.983 . S
H406 C377 0.982 . S
H407 C377 0.979 . S
H408 C377 0.977 . S
H409 C379 0.948 . S
H410 C381 0.947 . S
H411 C382 0.948 . S
H412 C388 0.982 . S
H413 C388 0.979 . S
H414 C388 0.977 . S
H415 C389 0.979 . S
H416 C389 0.980 . S
H417 C389 0.983 . S
H418 C362 0.947 . S
C419 C362 1.392 . S
C419 C363 1.419 . S
C419 H401 0.948 . S
C420 C421 1.391 . S
C420 C424 1.391 . S
C420 H462 0.948 . S
C421 C420 1.391 . S
C421 C422 1.391 . S
C422 C421 1.391 . S
C422 H478 0.947 . S
C422 C479 1.392 . S
C423 C424 1.391 . S
C423 C427 1.397 . S
C423 C479 1.419 . S
C424 C420 1.391 . S
C424 C423 1.391 . S
C424 C425 1.399 . S
C425 C424 1.399 . S
C425 C428 1.396 . S
C425 C437 1.453 . S
C425 C438 1.684 . S
H426 C450 0.948 . S
C427 C423 1.397 . S
C427 C428 1.394 . S
C427 C446 1.723 1_556 S
C428 C425 1.396 . S
C428 C427 1.394 . S
C428 C458 1.723 1_556 S
H429 C452 0.947 . S
H430 C453 0.948 1_556 S
H431 C459 0.982 . S
H432 C460 0.979 . S
H433 C460 0.980 . S
H434 C460 0.983 . S
H435 C459 0.979 . S
H436 C459 0.977 . S
C437 C425 1.453 . S
C437 H466 0.982 . S
C437 H467 0.979 . S
C437 H468 0.977 . S
C438 C425 1.684 . S
C438 H463 0.979 . S
C438 H464 0.980 . S
C438 H465 0.983 . S
C439 C440 1.391 . S
C439 C444 1.391 . S
C439 H469 0.948 . S
C440 C439 1.391 . S
C440 C441 1.391 . S
C441 C440 1.391 . S
C441 C442 1.392 . S
C441 H470 0.947 . S
C442 C441 1.392 . S
C442 C443 1.419 . S
C442 H471 0.948 . S
C443 C442 1.419 . S
C443 C444 1.391 . S
C443 C447 1.397 . S
C444 C439 1.391 . S
C444 C443 1.391 . S
C444 C445 1.399 . S
C445 C444 1.399 . S
C445 C446 1.396 . S
C445 C448 1.453 . S
C445 C449 1.684 . S
C446 C427 1.723 1_554 S
C446 C445 1.396 . S
C446 C447 1.394 . S
C447 C443 1.397 . S
C447 C446 1.394 . S
C447 C457 1.723 . S
C448 C445 1.453 . S
C448 H472 0.982 . S
C448 H473 0.979 . S
C448 H474 0.984 . S
C449 C445 1.684 . S
C449 H475 0.979 . S
C449 H476 0.980 1_554 S
C449 H477 0.983 . S
C450 H426 0.948 . S
C450 C451 1.391 . S
C450 C455 1.391 . S
C451 C450 1.391 . S
C451 C452 1.391 . S
C452 H429 0.947 . S
C452 C451 1.391 . S
C452 C453 1.392 . S
C453 H430 0.948 1_554 S
C453 C452 1.392 . S
C453 C454 1.419 . S
C454 C453 1.419 . S
C454 C455 1.391 . S
C454 C458 1.397 . S
C455 C450 1.391 . S
C455 C454 1.391 . S
C455 C456 1.399 . S
C456 C455 1.399 . S
C456 C457 1.396 . S
C456 C459 1.453 . S
C456 C460 1.684 . S
C457 C447 1.723 . S
C457 C456 1.396 . S
C457 C458 1.394 . S
C458 C428 1.723 1_554 S
C458 C454 1.397 . S
C458 C457 1.394 . S
C459 H431 0.982 . S
C459 H435 0.979 . S
C459 H436 0.977 . S
C459 C456 1.453 . S
C460 H432 0.979 . S
C460 H433 0.980 . S
C460 H434 0.983 . S
C460 C456 1.684 . S
H461 C479 0.948 . S
H462 C420 0.948 . S
H463 C438 0.979 . S
H464 C438 0.980 . S
H465 C438 0.983 . S
H466 C437 0.982 . S
H467 C437 0.979 . S
H468 C437 0.977 . S
H469 C439 0.948 . S
H470 C441 0.947 . S
H471 C442 0.948 . S
H472 C448 0.982 . S
H473 C448 0.979 . S
H474 C448 0.984 . S
H475 C449 0.979 . S
H476 C449 0.980 1_556 S
H477 C449 0.983 . S
H478 C422 0.947 . S
C479 C422 1.392 . S
C479 C423 1.419 . S
C479 H461 0.948 . S
Dy480 O484 2.398 . S
Dy480 O485 2.491 1_455 S
Dy480 O486 2.403 . S
Dy480 O487 2.664 1_565 S
Dy480 O491 2.326 . S
Dy480 O495 2.310 1_455 S
Dy480 O496 2.351 1_565 S
C481 O492 1.185 1_455 S
C481 O493 1.355 . S
C482 O484 1.185 . S
C482 O485 1.355 1_455 S
Dy483 O487 2.310 1_655 S
Dy483 O490 2.351 1_545 S
Dy483 O492 2.398 . S
Dy483 O493 2.491 1_655 S
Dy483 O494 2.403 . S
Dy483 O495 2.664 1_545 S
Dy483 O497 2.326 1_655 S
O484 Dy480 2.398 . S
O484 C482 1.185 . S
O485 Dy480 2.491 1_655 S
O485 C482 1.355 1_655 S
O486 Dy480 2.403 . S
O486 C488 1.254 . S
O487 Dy480 2.664 1_545 S
O487 Dy483 2.310 1_455 S
O487 C488 1.268 1_545 S
C488 O486 1.254 . S
C488 O487 1.268 1_565 S
C489 O494 1.254 . S
C489 O495 1.268 1_545 S
O490 Dy483 2.351 1_565 S
O490 C498 1.249 . S
O491 Dy480 2.326 . S
O491 C498 1.267 1_455 S
O492 C481 1.185 1_655 S
O492 Dy483 2.398 . S
O493 C481 1.355 . S
O493 Dy483 2.491 1_455 S
O494 Dy483 2.403 . S
O494 C489 1.254 . S
O495 Dy480 2.310 1_655 S
O495 Dy483 2.664 1_565 S
O495 C489 1.268 1_565 S
O496 Dy480 2.351 1_545 S
O496 C499 1.249 . S
O497 Dy483 2.326 1_455 S
O497 C499 1.267 . S
C498 O490 1.249 . S
C498 O491 1.267 1_655 S
C499 O496 1.249 . S
C499 O497 1.267 . S
Dy500 O504 2.398 . S
Dy500 O505 2.491 . S
Dy500 O506 2.403 . S
Dy500 O507 2.664 . S
Dy500 O511 2.326 1_565 S
Dy500 O515 2.310 1_565 S
Dy500 O516 2.351 . S
C501 O512 1.185 . S
C501 O513 1.355 . S
C502 O504 1.185 . S
C502 O505 1.355 . S
Dy503 O507 2.310 1_545 S
Dy503 O510 2.351 . S
Dy503 O512 2.398 . S
Dy503 O513 2.491 . S
Dy503 O514 2.403 . S
Dy503 O515 2.664 . S
Dy503 O517 2.326 1_545 S
O504 Dy500 2.398 . S
O504 C502 1.185 . S
O505 Dy500 2.491 . S
O505 C502 1.355 . S
O506 Dy500 2.403 . S
O506 C508 1.254 . S
O507 Dy500 2.664 . S
O507 Dy503 2.310 1_565 S
O507 C508 1.268 . S
C508 O506 1.254 . S
C508 O507 1.268 . S
C509 O514 1.254 . S
C509 O515 1.268 . S
O510 Dy503 2.351 . S
O510 C518 1.249 . S
O511 Dy500 2.326 1_545 S
O511 C518 1.267 . S
O512 C501 1.185 . S
O512 Dy503 2.398 . S
O513 C501 1.355 . S
O513 Dy503 2.491 . S
O514 Dy503 2.403 . S
O514 C509 1.254 . S
O515 Dy500 2.310 1_545 S
O515 Dy503 2.664 . S
O515 C509 1.268 . S
O516 Dy500 2.351 . S
O516 C519 1.249 . S
O517 Dy503 2.326 1_565 S
O517 C519 1.267 . S
C518 O510 1.249 . S
C518 O511 1.267 . S
C519 O516 1.249 . S
C519 O517 1.267 . S
Dy520 O524 2.398 . S
Dy520 O525 2.491 . S
Dy520 O526 2.403 . S
Dy520 O527 2.664 . S
Dy520 O531 2.326 . S
Dy520 O535 2.310 . S
Dy520 O536 2.351 . S
C521 O532 1.185 . S
C521 O533 1.355 . S
C522 O524 1.185 . S
C522 O525 1.355 . S
Dy523 O527 2.310 . S
Dy523 O530 2.351 . S
Dy523 O532 2.398 . S
Dy523 O533 2.491 . S
Dy523 O534 2.403 . S
Dy523 O535 2.664 . S
Dy523 O537 2.326 . S
O524 Dy520 2.398 . S
O524 C522 1.185 . S
O525 Dy520 2.491 . S
O525 C522 1.355 . S
O526 Dy520 2.403 . S
O526 C528 1.254 . S
O527 Dy520 2.664 . S
O527 Dy523 2.310 . S
O527 C528 1.268 . S
C528 O526 1.254 . S
C528 O527 1.268 . S
C529 O534 1.254 . S
C529 O535 1.268 . S
O530 Dy523 2.351 . S
O530 C538 1.249 . S
O531 Dy520 2.326 . S
O531 C538 1.267 . S
O532 C521 1.185 . S
O532 Dy523 2.398 . S
O533 C521 1.355 . S
O533 Dy523 2.491 . S
O534 Dy523 2.403 . S
O534 C529 1.254 . S
O535 Dy520 2.310 . S
O535 Dy523 2.664 . S
O535 C529 1.268 . S
O536 Dy520 2.351 . S
O536 C539 1.249 . S
O537 Dy523 2.326 . S
O537 C539 1.267 . S
C538 O530 1.249 . S
C538 O531 1.267 . S
C539 O536 1.249 . S
C539 O537 1.267 . S
Dy540 O544 2.398 . S
Dy540 O545 2.491 . S
Dy540 O546 2.403 1_655 S
Dy540 O547 2.664 1_655 S
Dy540 O551 2.326 . S
Dy540 O555 2.310 . S
Dy540 O556 2.351 1_655 S
C541 O552 1.185 . S
C541 O553 1.355 . S
C542 O544 1.185 . S
C542 O545 1.355 . S
Dy543 O547 2.310 . S
Dy543 O550 2.351 1_455 S
Dy543 O552 2.398 . S
Dy543 O553 2.491 . S
Dy543 O554 2.403 . S
Dy543 O555 2.664 1_455 S
Dy543 O557 2.326 . S
O544 Dy540 2.398 . S
O544 C542 1.185 . S
O545 Dy540 2.491 . S
O545 C542 1.355 . S
O546 Dy540 2.403 1_455 S
O546 C548 1.254 . S
O547 Dy540 2.664 1_455 S
O547 Dy543 2.310 . S
O547 C548 1.268 . S
C548 O546 1.254 . S
C548 O547 1.268 . S
C549 O554 1.254 1_655 S
C549 O555 1.268 . S
O550 Dy543 2.351 1_655 S
O550 C558 1.249 . S
O551 Dy540 2.326 . S
O551 C558 1.267 . S
O552 C541 1.185 . S
O552 Dy543 2.398 . S
O553 C541 1.355 . S
O553 Dy543 2.491 . S
O554 Dy543 2.403 . S
O554 C549 1.254 1_455 S
O555 Dy540 2.310 . S
O555 Dy543 2.664 1_655 S
O555 C549 1.268 . S
O556 Dy540 2.351 1_455 S
O556 C559 1.249 . S
O557 Dy543 2.326 . S
O557 C559 1.267 . S
C558 O550 1.249 . S
C558 O551 1.267 . S
C559 O556 1.249 . S
C559 O557 1.267 . S
H560 C566 0.930 . S
H561 C570 0.930 . S
H562 C575 0.929 . S
H563 C573 0.929 . S
H564 C568 0.929 . S
H565 C574 0.929 . S
C566 H560 0.930 . S
C566 C567 1.366 . S
C566 C574 1.378 . S
C567 C566 1.366 . S
C567 C575 1.434 1_545 S
C568 H564 0.929 . S
C568 C570 1.378 . S
C568 C572 1.350 . S
C569 C572 1.463 . S
C569 C574 1.350 1_565 S
C569 N577 1.427 . S
C570 H561 0.930 . S
C570 C568 1.378 . S
C570 C571 1.367 . S
C571 C570 1.367 . S
C571 C573 1.433 1_565 S
C572 C568 1.350 . S
C572 C569 1.463 . S
C572 N576 1.427 1_565 S
C573 H563 0.929 . S
C573 C571 1.433 1_545 S
C573 N576 1.384 . S
C574 H565 0.929 . S
C574 C566 1.378 . S
C574 C569 1.350 1_545 S
C575 H562 0.929 . S
C575 C567 1.434 1_565 S
C575 N577 1.384 . S
N576 C572 1.427 1_545 S
N576 C573 1.384 . S
N577 C569 1.427 . S
N577 C575 1.384 . S
H578 C584 0.930 . S
H579 C588 0.930 . S
H580 C593 0.929 . S
H581 C591 0.929 . S
H582 C586 0.929 . S
H583 C592 0.929 . S
C584 H578 0.930 . S
C584 C585 1.367 . S
C584 C592 1.378 . S
C585 C584 1.367 . S
C585 C593 1.433 . S
C586 H582 0.929 . S
C586 C588 1.378 . S
C586 C590 1.350 . S
C587 C590 1.463 . S
C587 C592 1.350 . S
C587 N595 1.427 . S
C588 H579 0.930 . S
C588 C586 1.378 . S
C588 C589 1.367 . S
C589 C588 1.367 . S
C589 C591 1.433 . S
C590 C586 1.350 . S
C590 C587 1.463 . S
C590 N594 1.427 . S
C591 H581 0.929 . S
C591 C589 1.433 . S
C591 N594 1.384 . S
C592 H583 0.929 . S
C592 C584 1.378 . S
C592 C587 1.350 . S
C593 H580 0.929 . S
C593 C585 1.433 . S
C593 N595 1.384 . S
N594 C590 1.427 . S
N594 C591 1.384 . S
N595 C587 1.427 . S
N595 C593 1.384 . S
H596 C602 0.930 . S
H597 C606 0.930 . S
H598 C611 0.929 . S
H599 C609 0.929 . S
H600 C604 0.929 . S
H601 C610 0.929 . S
C602 H596 0.930 . S
C602 C603 1.367 . S
C602 C610 1.378 . S
C603 C602 1.367 . S
C603 C611 1.433 . S
C604 H600 0.929 . S
C604 C606 1.378 . S
C604 C608 1.350 . S
C605 C608 1.463 . S
C605 C610 1.350 . S
C605 N613 1.427 . S
C606 H597 0.930 . S
C606 C604 1.378 . S
C606 C607 1.367 . S
C607 C606 1.367 . S
C607 C609 1.433 . S
C608 C604 1.350 . S
C608 C605 1.463 . S
C608 N612 1.427 . S
C609 H599 0.929 . S
C609 C607 1.433 . S
C609 N612 1.384 . S
C610 H601 0.929 . S
C610 C602 1.378 . S
C610 C605 1.350 . S
C611 H598 0.929 . S
C611 C603 1.433 . S
C611 N613 1.384 . S
N612 C608 1.427 . S
N612 C609 1.384 . S
N613 C605 1.427 . S
N613 C611 1.384 . S
H614 C620 0.930 . S
H615 C624 0.930 . S
H616 C629 0.929 . S
H617 C627 0.929 1_655 S
H618 C622 0.929 . S
H619 C628 0.929 . S
C620 H614 0.930 . S
C620 C621 1.367 . S
C620 C628 1.378 . S
C621 C620 1.367 . S
C621 C629 1.433 . S
C622 H618 0.929 . S
C622 C624 1.378 . S
C622 C626 1.350 . S
C623 C626 1.463 . S
C623 C628 1.350 . S
C623 N631 1.427 . S
C624 H615 0.930 . S
C624 C622 1.378 . S
C624 C625 1.367 . S
C625 C624 1.367 . S
C625 C627 1.433 . S
C626 C622 1.350 . S
C626 C623 1.463 . S
C626 N630 1.427 . S
C627 H617 0.929 1_455 S
C627 C625 1.433 . S
C627 N630 1.384 . S
C628 H619 0.929 . S
C628 C620 1.378 . S
C628 C623 1.350 . S
C629 H616 0.929 . S
C629 C621 1.433 . S
C629 N631 1.384 . S
N630 C626 1.427 . S
N630 C627 1.384 . S
N631 C623 1.427 . S
N631 C629 1.384 . S
H632 C638 0.930 . S
H633 C642 0.932 . S
H634 C647 0.929 . S
H635 C645 0.929 . S
H636 C640 0.939 . S
H637 C646 0.929 . S
C638 H632 0.930 . S
C638 C639 1.374 . S
C638 C646 1.378 . S
C639 C638 1.374 . S
C639 C647 1.425 1_545 S
C640 H636 0.939 . S
C640 C642 1.379 . S
C640 C644 1.340 1_565 S
C641 C644 1.463 . S
C641 C646 1.350 . S
C641 N649 1.427 1_545 S
C642 H633 0.932 . S
C642 C640 1.379 . S
C642 C643 1.365 1_565 S
C643 C642 1.365 1_545 S
C643 C645 1.433 . S
C644 C640 1.340 1_545 S
C644 C641 1.463 . S
C644 N648 1.427 . S
C645 H635 0.929 . S
C645 C643 1.433 . S
C645 N648 1.384 . S
C646 H637 0.929 . S
C646 C638 1.378 . S
C646 C641 1.350 . S
C647 H634 0.929 . S
C647 C639 1.425 1_565 S
C647 N649 1.384 . S
N648 C644 1.427 . S
N648 C645 1.384 . S
N649 C641 1.427 1_565 S
N649 C647 1.384 . S
H650 C656 0.930 . S
H651 C660 0.930 . S
H652 C665 0.929 . S
H653 C663 0.929 . S
H654 C658 0.929 . S
H655 C664 0.929 . S
C656 H650 0.930 . S
C656 C657 1.367 . S
C656 C664 1.378 . S
C657 C656 1.367 . S
C657 C665 1.433 . S
C658 H654 0.929 . S
C658 C660 1.378 . S
C658 C662 1.350 . S
C659 C662 1.463 . S
C659 C664 1.350 . S
C659 N667 1.427 . S
C660 H651 0.930 . S
C660 C658 1.378 . S
C660 C661 1.367 . S
C661 C660 1.367 . S
C661 C663 1.433 . S
C662 C658 1.350 . S
C662 C659 1.463 . S
C662 N666 1.427 . S
C663 H653 0.929 . S
C663 C661 1.433 . S
C663 N666 1.384 . S
C664 H655 0.929 . S
C664 C656 1.378 . S
C664 C659 1.350 . S
C665 H652 0.929 . S
C665 C657 1.433 . S
C665 N667 1.384 . S
N666 C662 1.427 . S
N666 C663 1.384 . S
N667 C659 1.427 . S
N667 C665 1.384 . S
H668 C674 0.930 . S
H669 C678 0.930 . S
H670 C683 0.929 . S
H671 C681 0.929 . S
H672 C676 0.929 . S
H673 C682 0.929 . S
C674 H668 0.930 . S
C674 C675 1.367 . S
C674 C682 1.378 . S
C675 C674 1.367 . S
C675 C683 1.433 . S
C676 H672 0.929 . S
C676 C678 1.378 . S
C676 C680 1.350 . S
C677 C680 1.463 . S
C677 C682 1.350 . S
C677 N685 1.427 . S
C678 H669 0.930 . S
C678 C676 1.378 . S
C678 C679 1.367 . S
C679 C678 1.367 . S
C679 C681 1.433 . S
C680 C676 1.350 . S
C680 C677 1.463 . S
C680 N684 1.427 . S
C681 H671 0.929 . S
C681 C679 1.433 . S
C681 N684 1.384 . S
C682 H673 0.929 . S
C682 C674 1.378 . S
C682 C677 1.350 . S
C683 H670 0.929 . S
C683 C675 1.433 . S
C683 N685 1.384 . S
N684 C680 1.427 . S
N684 C681 1.384 . S
N685 C677 1.427 . S
N685 C683 1.384 . S
H686 C692 0.930 . S
H687 C696 0.930 1_455 S
H688 C701 0.929 . S
H689 C699 0.929 . S
H690 C694 0.929 . S
H691 C700 0.929 . S
C692 H686 0.930 . S
C692 C693 1.367 . S
C692 C700 1.378 . S
C693 C692 1.367 . S
C693 C701 1.433 . S
C694 H690 0.929 . S
C694 C696 1.378 . S
C694 C698 1.350 . S
C695 C698 1.463 . S
C695 C700 1.350 . S
C695 N703 1.427 . S
C696 H687 0.930 1_655 S
C696 C694 1.378 . S
C696 C697 1.367 . S
C697 C696 1.367 . S
C697 C699 1.433 . S
C698 C694 1.350 . S
C698 C695 1.463 . S
C698 N702 1.427 . S
C699 H689 0.929 . S
C699 C697 1.433 . S
C699 N702 1.384 . S
C700 H691 0.929 . S
C700 C692 1.378 . S
C700 C695 1.350 . S
C701 H688 0.929 . S
C701 C693 1.433 . S
C701 N703 1.384 . S
N702 C698 1.427 . S
N702 C699 1.384 . S
N703 C695 1.427 . S
N703 C701 1.384 . S
H704 C710 0.930 . S
H705 C714 0.930 . S
H706 C719 0.929 . S
H707 C717 0.929 . S
H708 C712 0.929 . S
H709 C718 0.929 . S
C710 H704 0.930 . S
C710 C711 1.367 . S
C710 C718 1.378 . S
C711 C710 1.367 . S
C711 C719 1.433 . S
C712 H708 0.929 . S
C712 C714 1.378 . S
C712 C716 1.350 . S
C713 C716 1.463 . S
C713 C718 1.350 . S
C713 N721 1.427 . S
C714 H705 0.930 . S
C714 C712 1.378 . S
C714 C715 1.367 . S
C715 C714 1.367 . S
C715 C717 1.433 . S
C716 C712 1.350 . S
C716 C713 1.463 . S
C716 N720 1.427 . S
C717 H707 0.929 . S
C717 C715 1.433 . S
C717 N720 1.384 . S
C718 H709 0.929 . S
C718 C710 1.378 . S
C718 C713 1.350 . S
C719 H706 0.929 . S
C719 C711 1.433 . S
C719 N721 1.384 . S
N720 C716 1.427 . S
N720 C717 1.384 . S
N721 C713 1.427 . S
N721 C719 1.384 . S
H722 C728 0.930 . S
H723 C732 0.930 . S
H724 C737 0.929 . S
H725 C735 0.929 . S
H726 C730 0.929 . S
H727 C736 0.929 . S
C728 H722 0.930 . S
C728 C729 1.333 1_565 S
C728 C736 1.378 . S
C729 C728 1.333 1_545 S
C729 C737 1.460 . S
C730 H726 0.929 . S
C730 C732 1.378 . S
C730 C734 1.350 1_545 S
C731 C734 1.463 . S
C731 C736 1.350 . S
C731 N739 1.427 1_565 S
C732 H723 0.930 . S
C732 C730 1.378 . S
C732 C733 1.367 1_545 S
C733 C732 1.367 1_565 S
C733 C735 1.433 . S
C734 C730 1.350 1_565 S
C734 C731 1.463 . S
C734 N738 1.427 . S
C735 H725 0.929 . S
C735 C733 1.433 . S
C735 N738 1.384 . S
C736 H727 0.929 . S
C736 C728 1.378 . S
C736 C731 1.350 . S
C737 H724 0.929 . S
C737 C729 1.460 . S
C737 N739 1.384 . S
N738 C734 1.427 . S
N738 C735 1.384 . S
N739 C731 1.427 1_545 S
N739 C737 1.384 . S
H740 C746 0.930 . S
H741 C750 0.930 . S
H742 C755 0.929 . S
H743 C753 0.929 . S
H744 C748 0.929 . S
H745 C754 0.929 . S
C746 H740 0.930 . S
C746 C747 1.367 . S
C746 C754 1.378 . S
C747 C746 1.367 . S
C747 C755 1.433 . S
C748 H744 0.929 . S
C748 C750 1.378 . S
C748 C752 1.350 . S
C749 C752 1.463 . S
C749 C754 1.350 . S
C749 N757 1.427 . S
C750 H741 0.930 . S
C750 C748 1.378 . S
C750 C751 1.367 . S
C751 C750 1.367 . S
C751 C753 1.433 . S
C752 C748 1.350 . S
C752 C749 1.463 . S
C752 N756 1.427 . S
C753 H743 0.929 . S
C753 C751 1.433 . S
C753 N756 1.384 . S
C754 H745 0.929 . S
C754 C746 1.378 . S
C754 C749 1.350 . S
C755 H742 0.929 . S
C755 C747 1.433 . S
C755 N757 1.384 . S
N756 C752 1.427 . S
N756 C753 1.384 . S
N757 C749 1.427 . S
N757 C755 1.384 . S
H758 C764 0.930 . S
H759 C768 0.930 . S
H760 C773 0.929 . S
H761 C771 0.929 . S
H762 C766 0.929 . S
H763 C772 0.929 . S
C764 H758 0.930 . S
C764 C765 1.367 . S
C764 C772 1.378 . S
C765 C764 1.367 . S
C765 C773 1.433 . S
C766 H762 0.929 . S
C766 C768 1.378 . S
C766 C770 1.350 . S
C767 C770 1.463 . S
C767 C772 1.350 . S
C767 N775 1.427 . S
C768 H759 0.930 . S
C768 C766 1.378 . S
C768 C769 1.367 . S
C769 C768 1.367 . S
C769 C771 1.433 . S
C770 C766 1.350 . S
C770 C767 1.463 . S
C770 N774 1.427 . S
C771 H761 0.929 . S
C771 C769 1.433 . S
C771 N774 1.384 . S
C772 H763 0.929 . S
C772 C764 1.378 . S
C772 C767 1.350 . S
C773 H760 0.929 . S
C773 C765 1.433 . S
C773 N775 1.384 . S
N774 C770 1.427 . S
N774 C771 1.384 . S
N775 C767 1.427 . S
N775 C773 1.384 . S
H776 C782 0.930 . S
H777 C786 0.930 . S
H778 C791 0.929 . S
H779 C789 0.929 . S
H780 C784 0.929 . S
H781 C790 0.929 . S
C782 H776 0.930 . S
C782 C783 1.367 . S
C782 C790 1.378 . S
C783 C782 1.367 . S
C783 C791 1.433 . S
C784 H780 0.929 . S
C784 C786 1.378 . S
C784 C788 1.350 . S
C785 C788 1.463 . S
C785 C790 1.350 . S
C785 N793 1.427 . S
C786 H777 0.930 . S
C786 C784 1.378 . S
C786 C787 1.367 . S
C787 C786 1.367 . S
C787 C789 1.433 1_655 S
C788 C784 1.350 . S
C788 C785 1.463 . S
C788 N792 1.427 . S
C789 H779 0.929 . S
C789 C787 1.433 1_455 S
C789 N792 1.384 1_455 S
C790 H781 0.929 . S
C790 C782 1.378 . S
C790 C785 1.350 . S
C791 H778 0.929 . S
C791 C783 1.433 . S
C791 N793 1.384 . S
N792 C788 1.427 . S
N792 C789 1.384 1_655 S
N793 C785 1.427 . S
N793 C791 1.384 . S
H794 C800 0.930 . S
H795 C804 0.930 . S
H796 C809 0.929 . S
H797 C807 0.929 . S
H798 C802 0.929 . S
H799 C808 0.929 . S
C800 H794 0.930 . S
C800 C801 1.342 1_545 S
C800 C808 1.378 . S
C801 C800 1.342 1_565 S
C801 C809 1.452 . S
C802 H798 0.929 . S
C802 C804 1.378 . S
C802 C806 1.350 1_565 S
C803 C806 1.463 . S
C803 C808 1.350 . S
C803 N811 1.427 1_545 S
C804 H795 0.930 . S
C804 C802 1.378 . S
C804 C805 1.367 1_565 S
C805 C804 1.367 1_545 S
C805 C807 1.433 . S
C806 C802 1.350 1_545 S
C806 C803 1.463 . S
C806 N810 1.427 . S
C807 H797 0.929 . S
C807 C805 1.433 . S
C807 N810 1.384 . S
C808 H799 0.929 . S
C808 C800 1.378 . S
C808 C803 1.350 . S
C809 H796 0.929 . S
C809 C801 1.452 . S
C809 N811 1.384 . S
N810 C806 1.427 . S
N810 C807 1.384 . S
N811 C803 1.427 1_565 S
N811 C809 1.384 . S
H812 C818 0.930 . S
H813 C822 0.930 . S
H814 C827 0.929 . S
H815 C825 0.929 . S
H816 C820 0.929 . S
H817 C826 0.929 . S
C818 H812 0.930 . S
C818 C819 1.367 . S
C818 C826 1.378 . S
C819 C818 1.367 . S
C819 C827 1.433 . S
C820 H816 0.929 . S
C820 C822 1.378 . S
C820 C824 1.350 . S
C821 C824 1.463 . S
C821 C826 1.350 . S
C821 N829 1.427 . S
C822 H813 0.930 . S
C822 C820 1.378 . S
C822 C823 1.367 . S
C823 C822 1.367 . S
C823 C825 1.433 . S
C824 C820 1.350 . S
C824 C821 1.463 . S
C824 N828 1.427 . S
C825 H815 0.929 . S
C825 C823 1.433 . S
C825 N828 1.384 . S
C826 H817 0.929 . S
C826 C818 1.378 . S
C826 C821 1.350 . S
C827 H814 0.929 . S
C827 C819 1.433 . S
C827 N829 1.384 . S
N828 C824 1.427 . S
N828 C825 1.384 . S
N829 C821 1.427 . S
N829 C827 1.384 . S
H830 C836 0.930 . S
H831 C840 0.930 . S
H832 C845 0.929 . S
H833 C843 0.929 . S
H834 C838 0.929 . S
H835 C844 0.929 . S
C836 H830 0.930 . S
C836 C837 1.367 . S
C836 C844 1.378 . S
C837 C836 1.367 . S
C837 C845 1.433 . S
C838 H834 0.929 . S
C838 C840 1.378 . S
C838 C842 1.350 . S
C839 C842 1.463 . S
C839 C844 1.350 . S
C839 N847 1.427 . S
C840 H831 0.930 . S
C840 C838 1.378 . S
C840 C841 1.367 . S
C841 C840 1.367 . S
C841 C843 1.433 . S
C842 C838 1.350 . S
C842 C839 1.463 . S
C842 N846 1.427 . S
C843 H833 0.929 . S
C843 C841 1.433 . S
C843 N846 1.384 . S
C844 H835 0.929 . S
C844 C836 1.378 . S
C844 C839 1.350 . S
C845 H832 0.929 . S
C845 C837 1.433 . S
C845 N847 1.384 . S
N846 C842 1.427 . S
N846 C843 1.384 . S
N847 C839 1.427 . S
N847 C845 1.384 . S
H848 C854 0.930 . S
H849 C858 0.930 . S
H850 C863 0.929 . S
H851 C861 0.929 . S
H852 C856 0.929 . S
H853 C862 0.929 . S
C854 H848 0.930 . S
C854 C855 1.367 . S
C854 C862 1.378 . S
C855 C854 1.367 . S
C855 C863 1.433 . S
C856 H852 0.929 . S
C856 C858 1.378 . S
C856 C860 1.350 . S
C857 C860 1.463 . S
C857 C862 1.350 . S
C857 N865 1.427 . S
C858 H849 0.930 . S
C858 C856 1.378 . S
C858 C859 1.367 . S
C859 C858 1.367 . S
C859 C861 1.433 . S
C860 C856 1.350 . S
C860 C857 1.463 . S
C860 N864 1.427 . S
C861 H851 0.929 . S
C861 C859 1.433 . S
C861 N864 1.384 . S
C862 H853 0.929 . S
C862 C854 1.378 . S
C862 C857 1.350 . S
C863 H850 0.929 . S
C863 C855 1.433 . S
C863 N865 1.384 . S
N864 C860 1.427 . S
N864 C861 1.384 . S
N865 C857 1.427 . S
N865 C863 1.384 . S
H866 C872 0.930 . S
H867 C876 0.930 . S
H868 C881 0.929 . S
H869 C879 0.929 . S
H870 C874 0.929 . S
H871 C880 0.929 . S
C872 H866 0.930 . S
C872 C873 1.366 . S
C872 C880 1.376 . S
C873 C872 1.366 . S
C873 C881 1.435 . S
C874 H870 0.929 . S
C874 C876 1.378 . S
C874 C878 1.350 . S
C875 C878 1.463 . S
C875 C880 1.350 . S
C875 N883 1.427 . S
C876 H867 0.930 . S
C876 C874 1.378 . S
C876 C877 1.367 . S
C877 C876 1.367 . S
C877 C879 1.433 . S
C878 C874 1.350 . S
C878 C875 1.463 . S
C878 N882 1.427 . S
C879 H869 0.929 . S
C879 C877 1.433 . S
C879 N882 1.384 . S
C880 H871 0.929 . S
C880 C872 1.376 . S
C880 C875 1.350 . S
C881 H868 0.929 . S
C881 C873 1.435 . S
C881 N883 1.384 . S
N882 C878 1.427 . S
N882 C879 1.384 . S
N883 C875 1.427 . S
N883 C881 1.384 . S
H884 C890 0.930 . S
H885 C894 0.930 . S
H886 C899 0.929 . S
H887 C897 0.929 . S
H888 C892 0.929 . S
H889 C898 0.929 . S
C890 H884 0.930 . S
C890 C891 1.367 . S
C890 C898 1.378 . S
C891 C890 1.367 . S
C891 C899 1.433 . S
C892 H888 0.929 . S
C892 C894 1.378 . S
C892 C896 1.350 . S
C893 C896 1.463 . S
C893 C898 1.350 . S
C893 N901 1.427 . S
C894 H885 0.930 . S
C894 C892 1.378 . S
C894 C895 1.367 . S
C895 C894 1.367 . S
C895 C897 1.433 . S
C896 C892 1.350 . S
C896 C893 1.463 . S
C896 N900 1.427 . S
C897 H887 0.929 . S
C897 C895 1.433 . S
C897 N900 1.384 . S
C898 H889 0.929 . S
C898 C890 1.378 . S
C898 C893 1.350 . S
C899 H886 0.929 . S
C899 C891 1.433 . S
C899 N901 1.384 . S
N900 C896 1.427 . S
N900 C897 1.384 . S
N901 C893 1.427 . S
N901 C899 1.384 . S
H902 C908 0.930 . S
H903 C912 0.930 . S
H904 C917 0.929 . S
H905 C915 0.929 . S
H906 C910 0.929 . S
H907 C916 0.929 . S
C908 H902 0.930 . S
C908 C909 1.367 . S
C908 C916 1.378 . S
C909 C908 1.367 . S
C909 C917 1.433 . S
C910 H906 0.929 . S
C910 C912 1.378 . S
C910 C914 1.350 . S
C911 C914 1.463 . S
C911 C916 1.350 . S
C911 N919 1.427 . S
C912 H903 0.930 . S
C912 C910 1.378 . S
C912 C913 1.367 . S
C913 C912 1.367 . S
C913 C915 1.433 . S
C914 C910 1.350 . S
C914 C911 1.463 . S
C914 N918 1.427 . S
C915 H905 0.929 . S
C915 C913 1.433 . S
C915 N918 1.384 . S
C916 H907 0.929 . S
C916 C908 1.378 . S
C916 C911 1.350 . S
C917 H904 0.929 . S
C917 C909 1.433 . S
C917 N919 1.384 . S
N918 C914 1.427 . S
N918 C915 1.384 . S
N919 C911 1.427 . S
N919 C917 1.384 . S
H920 C926 0.930 . S
H921 C930 0.930 . S
H922 C935 0.929 . S
H923 C933 0.929 . S
H924 C928 0.929 . S
H925 C934 0.929 . S
C926 H920 0.930 . S
C926 C927 1.367 . S
C926 C934 1.378 . S
C927 C926 1.367 . S
C927 C935 1.433 . S
C928 H924 0.929 . S
C928 C930 1.378 . S
C928 C932 1.350 . S
C929 C932 1.463 . S
C929 C934 1.350 . S
C929 N937 1.427 . S
C930 H921 0.930 . S
C930 C928 1.378 . S
C930 C931 1.367 . S
C931 C930 1.367 . S
C931 C933 1.433 . S
C932 C928 1.350 . S
C932 C929 1.463 . S
C932 N936 1.427 . S
C933 H923 0.929 . S
C933 C931 1.433 . S
C933 N936 1.384 . S
C934 H925 0.929 . S
C934 C926 1.378 . S
C934 C929 1.350 . S
C935 H922 0.929 . S
C935 C927 1.433 . S
C935 N937 1.384 . S
N936 C932 1.427 . S
N936 C933 1.384 . S
N937 C929 1.427 . S
N937 C935 1.384 . S
H938 C944 0.930 . S
H939 C948 0.930 . S
H940 C953 0.929 . S
H941 C951 0.929 . S
H942 C946 0.929 . S
H943 C952 0.929 . S
C944 H938 0.930 . S
C944 C945 1.362 1_545 S
C944 C952 1.378 . S
C945 C944 1.362 1_565 S
C945 C953 1.438 . S
C946 H942 0.929 . S
C946 C948 1.378 . S
C946 C950 1.350 . S
C947 C950 1.463 . S
C947 C952 1.350 1_565 S
C947 N955 1.427 . S
C948 H939 0.930 . S
C948 C946 1.378 . S
C948 C949 1.367 . S
C949 C948 1.367 . S
C949 C951 1.433 1_565 S
C950 C946 1.350 . S
C950 C947 1.463 . S
C950 N954 1.427 1_565 S
C951 H941 0.929 . S
C951 C949 1.433 1_545 S
C951 N954 1.384 . S
C952 H943 0.929 . S
C952 C944 1.378 . S
C952 C947 1.350 1_545 S
C953 H940 0.929 . S
C953 C945 1.438 . S
C953 N955 1.384 . S
N954 C950 1.427 1_545 S
N954 C951 1.384 . S
N955 C947 1.427 . S
N955 C953 1.384 . S
H956 C962 0.930 . S
H957 C966 0.930 . S
H958 C971 0.929 . S
H959 C969 0.929 . S
H960 C964 0.929 . S
H961 C970 0.929 . S
C962 H956 0.930 . S
C962 C963 1.367 . S
C962 C970 1.378 . S
C963 C962 1.367 . S
C963 C971 1.433 . S
C964 H960 0.929 . S
C964 C966 1.378 . S
C964 C968 1.350 . S
C965 C968 1.463 . S
C965 C970 1.350 . S
C965 N973 1.427 . S
C966 H957 0.930 . S
C966 C964 1.378 . S
C966 C967 1.367 . S
C967 C966 1.367 . S
C967 C969 1.433 . S
C968 C964 1.350 . S
C968 C965 1.463 . S
C968 N972 1.427 . S
C969 H959 0.929 . S
C969 C967 1.433 . S
C969 N972 1.384 . S
C970 H961 0.929 . S
C970 C962 1.378 . S
C970 C965 1.350 . S
C971 H958 0.929 . S
C971 C963 1.433 . S
C971 N973 1.384 . S
N972 C968 1.427 . S
N972 C969 1.384 . S
N973 C965 1.427 . S
N973 C971 1.384 . S
H974 C980 0.930 . S
H975 C984 0.930 . S
H976 C989 0.929 . S
H977 C987 0.929 . S
H978 C982 0.929 . S
H979 C988 0.929 . S
C980 H974 0.930 . S
C980 C981 1.367 . S
C980 C988 1.378 . S
C981 C980 1.367 . S
C981 C989 1.433 . S
C982 H978 0.929 . S
C982 C984 1.378 . S
C982 C986 1.350 . S
C983 C986 1.463 . S
C983 C988 1.350 . S
C983 N991 1.427 . S
C984 H975 0.930 . S
C984 C982 1.378 . S
C984 C985 1.367 . S
C985 C984 1.367 . S
C985 C987 1.433 . S
C986 C982 1.350 . S
C986 C983 1.463 . S
C986 N990 1.427 . S
C987 H977 0.929 . S
C987 C985 1.433 . S
C987 N990 1.384 . S
C988 H979 0.929 . S
C988 C980 1.378 . S
C988 C983 1.350 . S
C989 H976 0.929 . S
C989 C981 1.433 . S
C989 N991 1.384 . S
N990 C986 1.427 . S
N990 C987 1.384 . S
N991 C983 1.427 . S
N991 C989 1.384 . S
C567 C391 1.769 . S
C571 C488 1.792 . S
C589 C518 2.407 . S
C585 C451 2.400 . S
C607 C528 1.880 . S
C603 C241 1.700 . S
C625 C548 1.773 . S
C621 C331 1.494 . S
C643 C489 1.793 . S
C639 C121 1.591 1_545 S
C657 C211 2.315 1_556 S
C661 C519 2.406 . S
C675 C31 1.882 . S
C679 C529 1.875 . S
C693 C91 1.588 . S
C697 C549 1.774 . S
C715 C481 0.795 . S
C711 C301 0.787 . S
C733 C502 0.301 . S
C729 C380 0.232 . S
C751 C521 1.097 . S
C747 C440 1.078 . S
C765 C260 0.630 . S
C769 C541 0.542 . S
C783 C61 0.779 . S
C787 C482 0.803 1_655 S
C805 C501 0.298 . S
C801 C140 0.571 . S
C823 C522 1.091 . S
C819 C200 1.024 . S
C837 C20 0.547 . S
C841 C542 0.543 . S
C855 C320 2.350 . S
C859 C499 2.484 . S
C873 C361 1.613 . S
C877 C509 2.021 . S
C895 C539 2.685 . S
C891 C421 2.284 . S
C913 C559 2.560 . S
C909 C271 2.493 . S
C927 C80 2.411 . S
C931 C498 2.496 . S
C949 C508 2.020 . S
C945 C151 1.902 . S
C967 C538 2.686 . S
C963 C181 2.211 . S
C981 C1 2.210 . S
C985 C558 2.560 . S
