# Generated by pormake.
# Topology anh, (6,3)-cn, num edge types: 1
# Building blocks:
#     Node 0, Type 0, BuildingBlock: INOVEN_clean_sbu_0, # of connection points: 6
#     Node 1, Type 0, BuildingBlock: INOVEN_clean_sbu_0, # of connection points: 6
#     Node 2, Type 0, BuildingBlock: INOVEN_clean_sbu_0, # of connection points: 6
#     Node 3, Type 1, BuildingBlock: CUQRIR_clean_linker_1, # of connection points: 3
#     Node 4, Type 1, BuildingBlock: CUQRIR_clean_linker_1, # of connection points: 3
#     Node 5, Type 1, BuildingBlock: CUQRIR_clean_linker_1, # of connection points: 3
#     Node 6, Type 1, BuildingBlock: CUQRIR_clean_linker_1, # of connection points: 3
#     Node 7, Type 1, BuildingBlock: CUQRIR_clean_linker_1, # of connection points: 3
#     Node 8, Type 1, BuildingBlock: CUQRIR_clean_linker_1, # of connection points: 3
#     Edge 9, Type (0, 1), BuildingBlock: OJICUG_clean_linker_0, # of connection points: 2
#     Edge 10, Type (0, 1), BuildingBlock: OJICUG_clean_linker_0, # of connection points: 2
#     Edge 11, Type (0, 1), BuildingBlock: OJICUG_clean_linker_0, # of connection points: 2
#     Edge 12, Type (0, 1), BuildingBlock: OJICUG_clean_linker_0, # of connection points: 2
#     Edge 13, Type (0, 1), BuildingBlock: OJICUG_clean_linker_0, # of connection points: 2
#     Edge 14, Type (0, 1), BuildingBlock: OJICUG_clean_linker_0, # of connection points: 2
#     Edge 15, Type (0, 1), BuildingBlock: OJICUG_clean_linker_0, # of connection points: 2
#     Edge 16, Type (0, 1), BuildingBlock: OJICUG_clean_linker_0, # of connection points: 2
#     Edge 17, Type (0, 1), BuildingBlock: OJICUG_clean_linker_0, # of connection points: 2
#     Edge 18, Type (0, 1), BuildingBlock: OJICUG_clean_linker_0, # of connection points: 2
#     Edge 19, Type (0, 1), BuildingBlock: OJICUG_clean_linker_0, # of connection points: 2
#     Edge 20, Type (0, 1), BuildingBlock: OJICUG_clean_linker_0, # of connection points: 2
#     Edge 21, Type (0, 1), BuildingBlock: OJICUG_clean_linker_0, # of connection points: 2
#     Edge 22, Type (0, 1), BuildingBlock: OJICUG_clean_linker_0, # of connection points: 2
#     Edge 23, Type (0, 1), BuildingBlock: OJICUG_clean_linker_0, # of connection points: 2
#     Edge 24, Type (0, 1), BuildingBlock: OJICUG_clean_linker_0, # of connection points: 2
#     Edge 25, Type (0, 1), BuildingBlock: OJICUG_clean_linker_0, # of connection points: 2
#     Edge 26, Type (0, 1), BuildingBlock: OJICUG_clean_linker_0, # of connection points: 2
# Relax obj value: 0.276
# Max RMSD: 0.230
# Mean RMSD: 0.178
data_MOF--net-anh--node1-INOVEN_clean_sbu_0--node2-CUQRIR_clean_linker_1--edge1-OJICUG_clean_linker_0
_symmetry_space_group_name_H-M    P1
_symmetry_Int_Tables_number       1
_symmetry_cell_setting            triclinic
loop_
_symmetry_equiv_pos_as_xyz
'x, y, z'
_cell_length_a     20.832689
_cell_length_b     26.549473
_cell_length_c     33.332988
_cell_angle_alpha  87.42796
_cell_angle_beta   91.50428
_cell_angle_gamma 133.37013
loop_
_atom_site_label
_atom_site_type_symbol
_atom_site_fract_x
_atom_site_fract_y
_atom_site_fract_z
_atom_type_partial_charge
Gd0 Gd 0.21372 0.46839 0.16333 0.0
Gd1 Gd 1.11357 0.49313 0.14952 0.0
C2 C 0.30675 0.62899 0.1646 0.0
C3 C 0.34004 0.47308 0.17481 0.0
C4 C 0.41013 0.50842 0.20551 0.0
C5 C 0.39859 0.47326 0.24153 0.0
C6 C 0.49045 0.57701 0.19879 0.0
C7 C 0.55588 0.56338 0.25452 0.0
C8 C 0.56209 0.60515 0.22386 0.0
C9 C 0.47046 0.50179 0.26668 0.0
C10 C 0.14705 0.46448 0.23421 0.0
C11 C 1.01927 0.33236 0.15578 0.0
C12 C 0.98249 0.48251 0.13857 0.0
C13 C 0.90618 0.43729 0.11187 0.0
C14 C 0.91658 0.44086 0.06998 0.0
C15 C 0.82118 0.39023 0.12837 0.0
C16 C 0.75948 0.37119 0.06161 0.0
C17 C 0.74808 0.35585 0.10344 0.0
C18 C 0.84322 0.40683 0.04497 0.0
C19 C 0.18873 0.50612 0.07925 0.0
O20 O 0.31779 0.58755 0.15499 0.0
O21 O 0.2256 0.6004 0.17189 0.0
O22 O 0.25994 0.42135 0.1878 0.0
O23 O 0.34426 0.51215 0.14748 0.0
O24 O 0.1486 0.41924 0.22389 0.0
O25 O 0.17937 0.50967 0.20639 0.0
O26 O 1.01208 0.37632 0.16409 0.0
O27 O 1.09776 0.35848 0.14547 0.0
O28 O 1.05907 0.53174 0.12138 0.0
O29 O 0.98574 0.45132 0.16871 0.0
O30 O 0.19055 0.55147 0.09313 0.0
O31 O 0.1509 0.45571 0.10461 0.0
H32 H 0.33582 0.42166 0.24891 0.0
H33 H 0.50025 0.60728 0.17254 0.0
H34 H 0.62488 0.65556 0.21498 0.0
H35 H 0.46127 0.47044 0.29208 0.0
H36 H 0.98155 0.47365 0.05639 0.0
H37 H 0.81139 0.38388 0.16064 0.0
H38 H 0.68457 0.32592 0.11794 0.0
H39 H 0.85397 0.41649 0.01282 0.0
Gd40 Gd 0.80834 0.08078 0.47008 0.0
Gd41 Gd 0.68618 0.09862 0.45262 0.0
C42 C 0.59753 0.94372 0.45739 0.0
C43 C 0.88235 0.04151 0.50342 0.0
C44 C 0.85086 0.97608 0.52129 0.0
C45 C 0.90811 0.96549 0.5238 0.0
C46 C 0.76345 0.92329 0.53508 0.0
C47 C 0.78994 0.84879 0.55221 0.0
C48 C 0.73312 0.86007 0.55022 0.0
C49 C 0.87807 0.9025 0.53924 0.0
C50 C 0.79257 0.09666 0.3906 0.0
C51 C 0.90039 0.23763 0.45671 0.0
C52 C 0.60997 0.14077 0.42992 0.0
C53 C 0.62183 0.19706 0.44634 0.0
C54 C 0.65985 0.22098 0.48437 0.0
C55 C 0.59787 0.22824 0.42444 0.0
C56 C 0.64831 0.30614 0.47915 0.0
C57 C 0.61105 0.28251 0.44072 0.0
C58 C 0.67231 0.27448 0.50072 0.0
C59 C 0.70216 0.08226 0.53198 0.0
O60 O 0.67101 0.96982 0.47654 0.0
O61 O 0.59333 0.98601 0.43818 0.0
O62 O 0.87258 0.04288 0.46461 0.0
O63 O 0.8616 0.07036 0.52289 0.0
O64 O 0.86602 0.12156 0.40735 0.0
O65 O 0.73063 0.06121 0.41604 0.0
O66 O 0.82039 0.20988 0.44586 0.0
O67 O 0.91324 0.19784 0.47093 0.0
O68 O 0.5732 0.08742 0.4546 0.0
O69 O 0.67893 0.16026 0.41139 0.0
O70 O 0.62868 0.05458 0.51461 0.0
O71 O 0.76465 0.11976 0.50688 0.0
H72 H 0.97575 1.00561 0.51328 0.0
H73 H 0.71839 0.93066 0.53388 0.0
H74 H 0.66513 0.81992 0.56025 0.0
H75 H 0.92313 0.89508 0.53984 0.0
H76 H 0.67946 0.19785 0.50162 0.0
H77 H 0.56932 0.21081 0.39484 0.0
H78 H 0.59277 0.30626 0.42311 0.0
H79 H 0.69944 0.29012 0.53065 0.0
Gd80 Gd 0.71588 0.65003 0.84462 0.0
Gd81 Gd 0.58513 0.50109 0.8605 0.0
C82 C 0.49935 0.56992 0.85997 0.0
C83 C 0.7983 0.76854 0.80767 0.0
C84 C 0.78038 0.81175 0.79494 0.0
C85 C 0.7251 0.81249 0.81748 0.0
C86 C 0.81686 0.85107 0.75879 0.0
C87 C 0.74457 0.89285 0.76802 0.0
C88 C 0.79914 0.89116 0.7454 0.0
C89 C 0.7077 0.85288 0.80424 0.0
C90 C 0.69524 0.61694 0.9228 0.0
C91 C 0.80188 0.58019 0.85643 0.0
C92 C 0.50636 0.3754 0.88037 0.0
C93 C 0.52845 0.33843 0.86353 0.0
C94 C 0.57856 0.36516 0.82795 0.0
C95 C 0.50417 0.27937 0.8828 0.0
C96 C 0.57975 0.27412 0.83062 0.0
C97 C 0.52942 0.24726 0.86639 0.0
C98 C 0.6036 0.33337 0.81165 0.0
C99 C 0.61597 0.54031 0.78175 0.0
O100 O 0.581 0.62584 0.84562 0.0
O101 O 0.48688 0.51472 0.87201 0.0
O102 O 0.80577 0.76194 0.84625 0.0
O103 O 0.75287 0.71035 0.78918 0.0
O104 O 0.77096 0.66975 0.90641 0.0
O105 O 0.63301 0.58666 0.8978 0.0
O106 O 0.71713 0.52353 0.86545 0.0
O107 O 0.81893 0.63779 0.84514 0.0
O108 O 0.47328 0.39091 0.85454 0.0
O109 O 0.5679 0.42759 0.90261 0.0
O110 O 0.53793 0.49065 0.79673 0.0
O111 O 0.6727 0.56496 0.80878 0.0
H112 H 0.6955 0.78197 0.84531 0.0
H113 H 0.8588 0.85045 0.74072 0.0
H114 H 0.82757 0.92028 0.71712 0.0
H115 H 0.66643 0.85356 0.82279 0.0
H116 H 0.59857 0.41103 0.81266 0.0
H117 H 0.46639 0.25845 0.91051 0.0
H118 H 0.51061 0.20206 0.88198 0.0
H119 H 0.64079 0.35488 0.78376 0.0
C120 C 0.67137 0.98135 0.16877 0.0
N121 N 0.72442 0.03706 0.19295 0.0
N122 N 0.60557 0.92184 0.19039 0.0
C123 C 0.68072 0.98561 0.124 0.0
C124 C 0.62108 0.94344 0.22843 0.0
N125 N 0.69175 1.01274 0.23001 0.0
C126 C 0.56991 0.89557 0.2646 0.0
H127 H 0.70144 0.03439 0.11144 0.0
H128 H 0.61796 0.94042 0.10997 0.0
H129 H 0.73269 0.98603 0.11658 0.0
H130 H 0.6134 0.91412 0.29116 0.0
H131 H 0.53884 0.84204 0.2588 0.0
H132 H 0.51696 0.89417 0.27172 0.0
C133 C 0.68482 0.55754 0.55064 0.0
N134 N 0.68637 0.58822 0.58257 0.0
N135 N 0.67869 0.50516 0.56308 0.0
C136 C 0.69568 0.5817 0.50753 0.0
C137 C 0.67695 0.50513 0.60359 0.0
N138 N 0.68254 0.55604 0.61545 0.0
C139 C 0.66663 0.45381 0.63153 0.0
H140 H 0.6309 0.56035 0.49604 0.0
H141 H 0.71912 0.5637 0.48855 0.0
H142 H 0.74301 0.63911 0.50501 0.0
H143 H 0.73313 0.47639 0.64098 0.0
H144 H 0.63292 0.40465 0.61645 0.0
H145 H 0.62885 0.44263 0.65888 0.0
C146 C 0.15389 0.57695 0.85774 0.0
N147 N 0.19507 0.56009 0.88091 0.0
N148 N 1.0831 0.56248 0.87734 0.0
C149 C 0.18072 0.60537 0.81549 0.0
C150 C 1.08538 0.53738 0.91342 0.0
N151 N 0.14932 0.53512 0.9154 0.0
C152 C 1.02879 0.52019 0.94892 0.0
H153 H 0.23925 0.662 0.81596 0.0
H154 H 1.12657 0.59646 0.79933 0.0
H155 H 0.19957 0.58126 0.79957 0.0
H156 H 1.0064 0.54789 0.94648 0.0
H157 H 1.06522 0.53425 0.97754 0.0
H158 H 0.9699 0.46356 0.95035 0.0
C159 C 0.25205 0.58837 0.45407 0.0
N160 N 0.19606 0.53477 0.42884 0.0
N161 N 0.31021 0.65024 0.43301 0.0
C162 C 0.24716 0.58086 0.499 0.0
C163 C 0.28792 0.63209 0.3943 0.0
N164 N 0.21841 0.56284 0.39174 0.0
C165 C 0.33917 0.6819 0.3588 0.0
H166 H 0.17746 0.53947 0.50917 0.0
H167 H 0.27809 0.63045 0.51271 0.0
H168 H 0.28313 0.56569 0.50935 0.0
H169 H 0.33955 0.65612 0.33365 0.0
H170 H 0.40847 0.72729 0.36703 0.0
H171 H 0.3077 0.70087 0.34832 0.0
C172 C 0.67287 0.0959 0.76302 0.0
N173 N 0.6919 0.07563 0.73262 0.0
N174 N 0.67454 0.14577 0.74988 0.0
C175 C 0.65775 0.07006 0.80602 0.0
C176 C 0.69593 0.15548 0.71041 0.0
N177 N 0.7076 0.11343 0.7 0.0
C178 C 0.69796 0.20161 0.68133 0.0
H179 H 0.58709 1.02194 0.81026 0.0
H180 H 0.67432 0.10901 0.82683 0.0
H181 H 0.69802 0.05779 0.81369 0.0
H182 H 0.76722 0.25208 0.67773 0.0
H183 H 0.65745 0.21115 0.69237 0.0
H184 H 0.67357 0.17843 0.65141 0.0
C185 C 0.67989 0.49075 0.1352 0.0
N186 N 0.66046 0.48798 0.09581 0.0
N187 N 0.69419 0.54286 0.15262 0.0
C188 C 0.69715 0.44905 0.15513 0.0
C189 C 0.68329 0.57196 0.12193 0.0
N190 N 0.66446 0.53932 0.08746 0.0
C191 C 0.68348 0.6283 0.12584 0.0
H192 H 0.63354 0.3948 0.16055 0.0
H193 H 0.73235 0.47104 0.184 0.0
H194 H 0.73793 0.44821 0.13505 0.0
H195 H 0.75246 0.67883 0.12864 0.0
H196 H 0.64609 0.61817 0.15296 0.0
H197 H 0.65324 0.63181 0.09933 0.0
C198 C 0.6083 0.50426 0.25554 0.0
C199 C 0.63126 0.5676 0.2596 0.0
H200 H 0.6001 0.44347 0.21225 0.0
C201 C 0.71394 0.6269 0.24334 0.0
H202 H 0.55291 0.45767 0.27188 0.0
C203 C 0.7451 0.61964 0.20944 0.0
C204 C 0.69691 0.55308 0.19498 0.0
H205 H 0.74173 0.67818 0.24984 0.0
H206 H 0.79828 0.66539 0.1918 0.0
C207 C 0.63578 0.49568 0.22102 0.0
C208 C 1.0616 0.34914 0.46678 0.0
C209 C 0.97672 0.31507 0.45172 0.0
H210 H 0.19756 0.44581 0.47182 0.0
C211 C 0.96549 0.35598 0.43084 0.0
H212 H 1.07329 0.31985 0.48303 0.0
C213 C 1.03673 0.42781 0.42437 0.0
C214 C 1.12147 0.46155 0.43893 0.0
H215 H 0.90169 0.33233 0.41871 0.0
H216 H 1.0259 0.45722 0.40752 0.0
C217 C 0.13286 0.42146 0.46065 0.0
C218 C 0.64498 0.91507 0.76097 0.0
C219 C 0.72784 0.93733 0.75453 0.0
H220 H 0.56844 0.94197 0.75821 0.0
C221 C 0.79566 1.00369 0.73663 0.0
H222 H 0.59056 0.86382 0.77373 0.0
C223 C 0.78207 0.0477 0.72723 0.0
C224 C 0.70089 1.02649 0.7358 0.0
H225 H 0.86053 1.02296 0.7315 0.0
H226 H 0.83626 0.09964 0.71521 0.0
C227 C 0.63182 0.95932 0.75179 0.0
C228 C 0.61562 0.33852 0.05774 0.0
C229 C 0.70001 0.37677 0.04095 0.0
H230 H 0.53991 0.34808 0.09308 0.0
C231 C 0.74265 0.44276 0.02367 0.0
H232 H 0.57625 0.28511 0.06796 0.0
C233 C 0.72341 0.47934 0.03859 0.0
C234 C 0.65552 0.44691 0.06693 0.0
H235 H 0.80345 0.47234 0.00673 0.0
H236 H 0.76918 0.53472 0.03249 0.0
C237 C 0.59537 0.37462 0.07271 0.0
C238 C 0.43992 0.84006 0.43891 0.0
C239 C 0.52024 0.86659 0.45588 0.0
H240 H 0.30978 0.75042 0.41958 0.0
C241 C 0.52574 0.8186 0.46985 0.0
H242 H 0.43223 0.87473 0.42807 0.0
C243 C 0.45445 0.74663 0.46504 0.0
C244 C 0.3759 0.721 0.44644 0.0
H245 H 0.58621 0.83674 0.48316 0.0
H246 H 0.46219 0.71135 0.474 0.0
C247 C 0.36911 0.7686 0.43435 0.0
C248 C 0.68985 0.28111 0.79383 0.0
C249 C 0.60645 0.2405 0.81237 0.0
H250 H 0.77652 0.28222 0.75932 0.0
C251 C 0.5475 0.16784 0.81141 0.0
H252 H 0.73766 0.33714 0.79462 0.0
C253 C 0.57051 0.13678 0.79146 0.0
C254 C 0.65267 0.17766 0.77206 0.0
H255 H 0.48248 0.13498 0.82492 0.0
H256 H 0.52334 0.08083 0.79023 0.0
C257 C 0.71247 0.24997 0.77375 0.0
C258 C 0.80779 0.77504 0.59014 0.0
C259 C 0.75651 0.78002 0.56534 0.0
H260 H 0.824 0.70859 0.61554 0.0
C261 C 0.67589 0.71897 0.55059 0.0
H262 H 0.86965 0.82106 0.60233 0.0
C263 C 0.64995 0.65498 0.55842 0.0
C264 C 0.70373 0.65084 0.58128 0.0
H265 H 0.63516 0.72106 0.53122 0.0
H266 H 0.58987 0.60902 0.54517 0.0
C267 C 0.78137 0.71087 0.59814 0.0
C268 C 0.96984 0.63457 0.8518 0.0
C269 C 0.87685 0.57696 0.85897 0.0
H270 H 1.10477 0.67705 0.85081 0.0
C271 C 0.85663 0.5144 0.86919 0.0
H272 H 0.99261 0.68464 0.84387 0.0
C273 C 0.92219 0.50984 0.87273 0.0
C274 C 1.01511 0.56723 0.86626 0.0
H275 H 0.78839 0.4675 0.87513 0.0
H276 H 0.89932 0.46001 0.88162 0.0
C277 C 1.03606 0.63004 0.85542 0.0
C278 C 0.37199 0.74895 0.18041 0.0
C279 C 0.38425 0.70606 0.1678 0.0
H280 H 0.4326 0.85106 0.1967 0.0
C281 C 0.47141 0.73779 0.15898 0.0
H282 H 0.30644 0.72709 0.18744 0.0
C283 C 0.54393 0.80958 0.16382 0.0
C284 C 0.53135 0.85158 0.17768 0.0
H285 H 0.48394 0.70687 0.14913 0.0
H286 H 0.61019 0.83176 0.15841 0.0
C287 C 0.44429 0.82031 0.18541 0.0
C288 C 0.59604 0.36563 0.49289 0.0
C289 C 0.66032 0.36217 0.49754 0.0
H290 H 0.55238 0.41501 0.51045 0.0
C291 C 0.73391 0.41029 0.52198 0.0
H292 H 0.53813 0.32906 0.47468 0.0
C293 C 0.74075 0.45822 0.5428 0.0
C294 C 0.67508 0.45978 0.53908 0.0
H295 H 0.78577 0.41033 0.52554 0.0
H296 H 0.79664 0.4936 0.56228 0.0
C297 C 0.60367 0.41433 0.5134 0.0
C298 C 0.3367 0.51085 0.88116 0.0
C299 C 0.42078 0.56857 0.86362 0.0
H300 H 0.20461 0.46165 0.8993 0.0
C301 C 0.42564 0.62338 0.85014 0.0
H302 H 0.32547 0.46637 0.89225 0.0
C303 C 0.35335 0.62057 0.85421 0.0
C304 C 0.26973 0.56274 0.87238 0.0
H305 H 0.48657 0.66974 0.83634 0.0
H306 H 0.36445 0.66522 0.84376 0.0
C307 C 0.26518 0.50816 0.88543 0.0
C308 C 0.86507 0.2307 0.1825 0.0
C309 C 0.94171 0.25533 0.16274 0.0
H310 H 0.73725 0.143 0.20755 0.0
C311 C 0.9439 0.20571 0.15188 0.0
H312 H 0.86023 0.26666 0.19159 0.0
C313 C 0.8721 0.13413 0.16079 0.0
C314 C 0.79672 0.11022 0.18135 0.0
H315 H 1.00145 0.22221 0.13681 0.0
H316 H 0.87639 0.09754 0.15253 0.0
C317 C 0.7943 0.1596 0.19187 0.0
C318 C 0.2594 0.56639 0.01345 0.0
C319 C 0.1925 0.50386 0.03502 0.0
H320 H 0.2986 0.62471 0.95756 0.0
C321 C 1.11942 0.44712 0.01387 0.0
H322 H 0.31584 0.61128 0.02912 0.0
C323 C 1.10948 0.45525 0.97283 0.0
C324 C 0.17253 0.52 0.95232 0.0
H325 H 1.06593 0.39886 0.02977 0.0
H326 H 1.0489 0.41289 0.95793 0.0
C327 C 0.24978 0.57424 0.97249 0.0
C328 C 0.69624 0.06638 0.33205 0.0
C329 C 0.77647 0.09008 0.3468 0.0
H330 H 0.60796 1.02548 0.28206 0.0
C331 C 0.83565 0.09998 0.31998 0.0
H332 H 0.64983 0.05904 0.35191 0.0
C333 C 0.81108 0.0802 0.27999 0.0
C334 C 0.72763 0.05105 0.26636 0.0
H335 H 0.89813 0.11845 0.33052 0.0
H336 H 0.85426 0.0828 0.2606 0.0
C337 C 0.67242 0.04757 0.29214 0.0
C338 C 0.56964 0.52797 0.71018 0.0
C339 C 0.63652 0.55384 0.73839 0.0
H340 H 0.53384 0.51076 0.64781 0.0
C341 C 0.72213 0.58895 0.72478 0.0
H342 H 0.50325 0.501 0.71992 0.0
C343 C 0.73895 0.59382 0.68376 0.0
C344 C 0.67111 0.5653 0.65584 0.0
H345 H 0.77493 0.60944 0.74591 0.0
H346 H 0.80367 0.61692 0.67386 0.0
C347 C 0.58707 0.53409 0.66912 0.0
C348 C 0.63951 0.03192 0.60048 0.0
C349 C 0.7116 0.08599 0.5761 0.0
H350 H 0.58343 0.99812 0.6599 0.0
C351 C 0.78757 0.14581 0.59419 0.0
H352 H 0.58026 0.98523 0.58724 0.0
C353 C 0.78851 0.15337 0.63565 0.0
C354 C 0.71452 0.10058 0.65957 0.0
H355 H 0.84383 0.18835 0.57603 0.0
H356 H 0.84515 0.20154 0.64885 0.0
C357 C 0.64134 0.03892 0.64193 0.0
C358 C 0.60369 0.53541 0.98077 0.0
C359 C 0.68252 0.59974 0.966 0.0
H360 H 0.53635 0.46566 0.03225 0.0
C361 C 0.751 0.64659 -0.00735 0.0
H362 H 0.54995 0.49856 0.96068 0.0
C363 C 0.74219 0.62831 0.03331 0.0
C364 C 0.66548 0.56264 0.04768 0.0
H365 H 0.81223 0.69664 0.98194 0.0
H366 H 0.79717 0.6637 0.05321 0.0
C367 C 0.59557 0.51673 0.02143 0.0
C368 C 0.14042 0.52582 0.28575 0.0
C369 C 0.14675 0.47836 0.27649 0.0
H370 H 0.15466 0.58771 0.33102 0.0
C371 C 0.16301 0.45065 0.3075 0.0
H372 H 1.12714 0.54739 0.26245 0.0
C373 C 0.18069 0.47495 0.34642 0.0
C374 C 0.18081 0.52626 0.35491 0.0
H375 H 0.16814 0.41387 0.30115 0.0
H376 H 0.19998 0.45716 0.36917 0.0
C377 C 0.15618 0.54886 0.3248 0.0
loop_
_geom_bond_atom_site_label_1
_geom_bond_atom_site_label_2
_geom_bond_distance
_geom_bond_site_symmetry_2
_ccdc_geom_bond_type
Gd0 C3 2.818 . S
Gd0 O20 2.377 . S
Gd0 O22 2.448 . S
Gd0 O23 2.506 . S
Gd0 O24 2.435 . S
Gd0 O25 2.717 1_455 S
Gd0 O27 2.395 1_455 S
Gd0 O31 2.327 . S
Gd1 C12 2.818 . S
Gd1 O21 2.395 1_655 S
Gd1 O25 2.327 . S
Gd1 O26 2.377 . S
Gd1 O28 2.448 . S
Gd1 O29 2.506 . S
Gd1 O30 2.435 . S
Gd1 O31 2.717 1_655 S
C2 O20 1.240 . S
C2 O21 1.240 . S
C3 Gd0 2.818 . S
C3 C4 1.510 . S
C3 O22 1.249 . S
C3 O23 1.252 . S
C4 C3 1.510 . S
C4 C5 1.404 . S
C4 C6 1.352 . S
C5 C4 1.404 . S
C5 C9 1.389 . S
C5 H32 0.930 . S
C6 C4 1.352 . S
C6 C8 1.374 . S
C6 H33 0.931 . S
C7 C8 1.359 . S
C7 C9 1.364 . S
C8 C6 1.374 . S
C8 C7 1.359 . S
C8 H34 0.931 . S
C9 C5 1.389 . S
C9 C7 1.364 . S
C9 H35 0.931 . S
C10 O24 1.256 . S
C10 O25 1.257 1_455 S
C11 O26 1.240 . S
C11 O27 1.240 . S
C12 Gd1 2.818 . S
C12 C13 1.510 . S
C12 O28 1.249 . S
C12 O29 1.252 . S
C13 C12 1.510 . S
C13 C14 1.404 . S
C13 C15 1.352 . S
C14 C13 1.404 . S
C14 C18 1.389 . S
C14 H36 0.930 . S
C15 C13 1.352 . S
C15 C17 1.374 . S
C15 H37 0.931 . S
C16 C17 1.359 . S
C16 C18 1.364 . S
C17 C15 1.374 . S
C17 C16 1.359 . S
C17 H38 0.931 . S
C18 C14 1.389 . S
C18 C16 1.364 . S
C18 H39 0.931 . S
C19 O30 1.256 1_455 S
C19 O31 1.257 . S
O20 Gd0 2.377 . S
O20 C2 1.240 . S
O21 Gd1 2.395 1_455 S
O21 C2 1.240 . S
O22 Gd0 2.448 . S
O22 C3 1.249 . S
O23 Gd0 2.506 . S
O23 C3 1.252 . S
O24 Gd0 2.435 . S
O24 C10 1.256 . S
O25 Gd0 2.717 1_655 S
O25 Gd1 2.327 . S
O25 C10 1.257 1_655 S
O26 Gd1 2.377 . S
O26 C11 1.240 . S
O27 Gd0 2.395 1_655 S
O27 C11 1.240 . S
O28 Gd1 2.448 . S
O28 C12 1.249 . S
O29 Gd1 2.506 . S
O29 C12 1.252 . S
O30 Gd1 2.435 . S
O30 C19 1.256 1_655 S
O31 Gd0 2.327 . S
O31 Gd1 2.717 1_455 S
O31 C19 1.257 . S
H32 C5 0.930 . S
H33 C6 0.931 . S
H34 C8 0.931 . S
H35 C9 0.931 . S
H36 C14 0.930 . S
H37 C15 0.931 . S
H38 C17 0.931 . S
H39 C18 0.931 . S
Gd40 C43 2.818 1_545 S
Gd40 O60 2.377 1_545 S
Gd40 O62 2.448 1_545 S
Gd40 O63 2.506 1_545 S
Gd40 O64 2.435 . S
Gd40 O65 2.717 . S
Gd40 O67 2.395 . S
Gd40 O71 2.327 . S
Gd41 C52 2.818 . S
Gd41 O61 2.395 1_545 S
Gd41 O65 2.327 . S
Gd41 O66 2.377 . S
Gd41 O68 2.448 . S
Gd41 O69 2.506 . S
Gd41 O70 2.435 . S
Gd41 O71 2.717 . S
C42 O60 1.240 . S
C42 O61 1.240 . S
C43 Gd40 2.818 1_565 S
C43 C44 1.510 . S
C43 O62 1.249 . S
C43 O63 1.252 . S
C44 C43 1.510 . S
C44 C45 1.404 . S
C44 C46 1.352 . S
C45 C44 1.404 . S
C45 C49 1.389 . S
C45 H72 0.930 . S
C46 C44 1.352 . S
C46 C48 1.374 . S
C46 H73 0.931 . S
C47 C48 1.359 . S
C47 C49 1.364 . S
C48 C46 1.374 . S
C48 C47 1.359 . S
C48 H74 0.931 . S
C49 C45 1.389 . S
C49 C47 1.364 . S
C49 H75 0.931 . S
C50 O64 1.256 . S
C50 O65 1.257 . S
C51 O66 1.240 . S
C51 O67 1.240 . S
C52 Gd41 2.818 . S
C52 C53 1.510 . S
C52 O68 1.249 . S
C52 O69 1.252 . S
C53 C52 1.510 . S
C53 C54 1.404 . S
C53 C55 1.352 . S
C54 C53 1.404 . S
C54 C58 1.389 . S
C54 H76 0.930 . S
C55 C53 1.352 . S
C55 C57 1.374 . S
C55 H77 0.931 . S
C56 C57 1.359 . S
C56 C58 1.364 . S
C57 C55 1.374 . S
C57 C56 1.359 . S
C57 H78 0.931 . S
C58 C54 1.389 . S
C58 C56 1.364 . S
C58 H79 0.931 . S
C59 O70 1.256 . S
C59 O71 1.257 . S
O60 Gd40 2.377 1_565 S
O60 C42 1.240 . S
O61 Gd41 2.395 1_565 S
O61 C42 1.240 . S
O62 Gd40 2.448 1_565 S
O62 C43 1.249 . S
O63 Gd40 2.506 1_565 S
O63 C43 1.252 . S
O64 Gd40 2.435 . S
O64 C50 1.256 . S
O65 Gd40 2.717 . S
O65 Gd41 2.327 . S
O65 C50 1.257 . S
O66 Gd41 2.377 . S
O66 C51 1.240 . S
O67 Gd40 2.395 . S
O67 C51 1.240 . S
O68 Gd41 2.448 . S
O68 C52 1.249 . S
O69 Gd41 2.506 . S
O69 C52 1.252 . S
O70 Gd41 2.435 . S
O70 C59 1.256 . S
O71 Gd40 2.327 . S
O71 Gd41 2.717 . S
O71 C59 1.257 . S
H72 C45 0.930 . S
H73 C46 0.931 . S
H74 C48 0.931 . S
H75 C49 0.931 . S
H76 C54 0.930 . S
H77 C55 0.931 . S
H78 C57 0.931 . S
H79 C58 0.931 . S
Gd80 C83 2.818 . S
Gd80 O100 2.377 . S
Gd80 O102 2.448 . S
Gd80 O103 2.506 . S
Gd80 O104 2.435 . S
Gd80 O105 2.717 . S
Gd80 O107 2.395 . S
Gd80 O111 2.327 . S
Gd81 C92 2.818 . S
Gd81 O101 2.395 . S
Gd81 O105 2.327 . S
Gd81 O106 2.377 . S
Gd81 O108 2.448 . S
Gd81 O109 2.506 . S
Gd81 O110 2.435 . S
Gd81 O111 2.717 . S
C82 O100 1.240 . S
C82 O101 1.240 . S
C83 Gd80 2.818 . S
C83 C84 1.510 . S
C83 O102 1.249 . S
C83 O103 1.252 . S
C84 C83 1.510 . S
C84 C85 1.404 . S
C84 C86 1.352 . S
C85 C84 1.404 . S
C85 C89 1.389 . S
C85 H112 0.930 . S
C86 C84 1.352 . S
C86 C88 1.374 . S
C86 H113 0.931 . S
C87 C88 1.359 . S
C87 C89 1.364 . S
C88 C86 1.374 . S
C88 C87 1.359 . S
C88 H114 0.931 . S
C89 C85 1.389 . S
C89 C87 1.364 . S
C89 H115 0.931 . S
C90 O104 1.256 . S
C90 O105 1.257 . S
C91 O106 1.240 . S
C91 O107 1.240 . S
C92 Gd81 2.818 . S
C92 C93 1.510 . S
C92 O108 1.249 . S
C92 O109 1.252 . S
C93 C92 1.510 . S
C93 C94 1.404 . S
C93 C95 1.352 . S
C94 C93 1.404 . S
C94 C98 1.389 . S
C94 H116 0.930 . S
C95 C93 1.352 . S
C95 C97 1.374 . S
C95 H117 0.931 . S
C96 C97 1.359 . S
C96 C98 1.364 . S
C97 C95 1.374 . S
C97 C96 1.359 . S
C97 H118 0.931 . S
C98 C94 1.389 . S
C98 C96 1.364 . S
C98 H119 0.931 . S
C99 O110 1.256 . S
C99 O111 1.257 . S
O100 Gd80 2.377 . S
O100 C82 1.240 . S
O101 Gd81 2.395 . S
O101 C82 1.240 . S
O102 Gd80 2.448 . S
O102 C83 1.249 . S
O103 Gd80 2.506 . S
O103 C83 1.252 . S
O104 Gd80 2.435 . S
O104 C90 1.256 . S
O105 Gd80 2.717 . S
O105 Gd81 2.327 . S
O105 C90 1.257 . S
O106 Gd81 2.377 . S
O106 C91 1.240 . S
O107 Gd80 2.395 . S
O107 C91 1.240 . S
O108 Gd81 2.448 . S
O108 C92 1.249 . S
O109 Gd81 2.506 . S
O109 C92 1.252 . S
O110 Gd81 2.435 . S
O110 C99 1.256 . S
O111 Gd80 2.327 . S
O111 Gd81 2.717 . S
O111 C99 1.257 . S
H112 C85 0.930 . S
H113 C86 0.931 . S
H114 C88 0.931 . S
H115 C89 0.931 . S
H116 C94 0.930 . S
H117 C95 0.931 . S
H118 C97 0.931 . S
H119 C98 0.931 . S
C120 N121 1.317 1_565 S
C120 N122 1.348 . S
C120 C123 1.485 1_565 S
N121 C120 1.317 1_545 S
N121 N125 1.370 . S
N122 C120 1.348 . S
N122 C124 1.346 . S
C123 C120 1.485 1_545 S
C123 H127 0.960 . S
C123 H128 0.961 1_545 S
C123 H129 0.960 . S
C124 N122 1.346 . S
C124 N125 1.307 1_565 S
C124 C126 1.486 . S
N125 N121 1.370 . S
N125 C124 1.307 1_545 S
C126 C124 1.486 . S
C126 H130 0.960 . S
C126 H131 0.960 . S
C126 H132 0.959 . S
H127 C123 0.960 . S
H128 C123 0.961 1_565 S
H129 C123 0.960 . S
H130 C126 0.960 . S
H131 C126 0.960 . S
H132 C126 0.959 . S
C133 N134 1.317 . S
C133 N135 1.348 . S
C133 C136 1.485 . S
N134 C133 1.317 . S
N134 N138 1.370 . S
N135 C133 1.348 . S
N135 C137 1.346 . S
C136 C133 1.485 . S
C136 H140 0.960 . S
C136 H141 0.961 . S
C136 H142 0.960 . S
C137 N135 1.346 . S
C137 N138 1.307 . S
C137 C139 1.486 . S
N138 N134 1.370 . S
N138 C137 1.307 . S
C139 C137 1.486 . S
C139 H143 0.960 . S
C139 H144 0.960 . S
C139 H145 0.959 . S
H140 C136 0.960 . S
H141 C136 0.961 . S
H142 C136 0.960 . S
H143 C139 0.960 . S
H144 C139 0.960 . S
H145 C139 0.959 . S
C146 N147 1.317 . S
C146 N148 1.348 . S
C146 C149 1.485 . S
N147 C146 1.317 . S
N147 N151 1.370 . S
N148 C146 1.348 . S
N148 C150 1.346 . S
C149 C146 1.485 . S
C149 H153 0.960 . S
C149 H154 0.961 . S
C149 H155 0.960 . S
C150 N148 1.346 . S
C150 N151 1.307 . S
C150 C152 1.486 1_455 S
N151 N147 1.370 . S
N151 C150 1.307 . S
C152 C150 1.486 1_655 S
C152 H156 0.960 . S
C152 H157 0.960 . S
C152 H158 0.959 . S
H153 C149 0.960 . S
H154 C149 0.961 . S
H155 C149 0.960 . S
H156 C152 0.960 . S
H157 C152 0.960 . S
H158 C152 0.959 . S
C159 N160 1.317 . S
C159 N161 1.348 . S
C159 C162 1.485 . S
N160 C159 1.317 . S
N160 N164 1.370 . S
N161 C159 1.348 . S
N161 C163 1.346 . S
C162 C159 1.485 . S
C162 H166 0.960 . S
C162 H167 0.961 . S
C162 H168 0.960 . S
C163 N161 1.346 . S
C163 N164 1.307 . S
C163 C165 1.486 . S
N164 N160 1.370 . S
N164 C163 1.307 . S
C165 C163 1.486 . S
C165 H169 0.960 . S
C165 H170 0.960 . S
C165 H171 0.959 . S
H166 C162 0.960 . S
H167 C162 0.961 . S
H168 C162 0.960 . S
H169 C165 0.960 . S
H170 C165 0.960 . S
H171 C165 0.959 . S
C172 N173 1.317 . S
C172 N174 1.348 . S
C172 C175 1.485 . S
N173 C172 1.317 . S
N173 N177 1.370 . S
N174 C172 1.348 . S
N174 C176 1.346 . S
C175 C172 1.485 . S
C175 H179 0.960 . S
C175 H180 0.961 . S
C175 H181 0.960 . S
C176 N174 1.346 . S
C176 N177 1.307 . S
C176 C178 1.486 . S
N177 N173 1.370 . S
N177 C176 1.307 . S
C178 C176 1.486 . S
C178 H182 0.960 . S
C178 H183 0.960 . S
C178 H184 0.959 . S
H179 C175 0.960 . S
H180 C175 0.961 . S
H181 C175 0.960 . S
H182 C178 0.960 . S
H183 C178 0.960 . S
H184 C178 0.959 . S
C185 N186 1.317 . S
C185 N187 1.348 . S
C185 C188 1.485 . S
N186 C185 1.317 . S
N186 N190 1.370 . S
N187 C185 1.348 . S
N187 C189 1.346 . S
C188 C185 1.485 . S
C188 H192 0.960 . S
C188 H193 0.961 . S
C188 H194 0.960 . S
C189 N187 1.346 . S
C189 N190 1.307 . S
C189 C191 1.486 . S
N190 N186 1.370 . S
N190 C189 1.307 . S
C191 C189 1.486 . S
C191 H195 0.960 . S
C191 H196 0.960 . S
C191 H197 0.959 . S
H192 C188 0.960 . S
H193 C188 0.961 . S
H194 C188 0.960 . S
H195 C191 0.960 . S
H196 C191 0.960 . S
H197 C191 0.959 . S
C198 C199 1.387 . S
C198 H202 0.950 . S
C198 C207 1.390 . S
C199 C198 1.387 . S
C199 C201 1.387 . S
H200 C207 0.950 . S
C201 C199 1.387 . S
C201 C203 1.390 . S
C201 H205 0.950 . S
H202 C198 0.950 . S
C203 C201 1.390 . S
C203 C204 1.387 . S
C203 H206 0.950 . S
C204 C203 1.387 . S
C204 C207 1.387 . S
H205 C201 0.950 . S
H206 C203 0.950 . S
C207 C198 1.390 . S
C207 H200 0.950 . S
C207 C204 1.387 . S
C208 C209 1.387 . S
C208 H212 0.950 . S
C208 C217 1.390 . S
C209 C208 1.387 . S
C209 C211 1.387 . S
H210 C217 0.950 . S
C211 C209 1.387 . S
C211 C213 1.390 . S
C211 H215 0.950 . S
H212 C208 0.950 . S
C213 C211 1.390 . S
C213 C214 1.387 . S
C213 H216 0.950 . S
C214 C213 1.387 . S
C214 C217 1.387 . S
H215 C211 0.950 . S
H216 C213 0.950 . S
C217 C208 1.390 . S
C217 H210 0.950 . S
C217 C214 1.387 . S
C218 C219 1.387 . S
C218 H222 0.950 . S
C218 C227 1.390 . S
C219 C218 1.387 . S
C219 C221 1.387 . S
H220 C227 0.950 . S
C221 C219 1.387 . S
C221 C223 1.390 1_565 S
C221 H225 0.950 1_565 S
H222 C218 0.950 . S
C223 C221 1.390 1_545 S
C223 C224 1.387 1_545 S
C223 H226 0.950 . S
C224 C223 1.387 1_565 S
C224 C227 1.387 . S
H225 C221 0.950 1_545 S
H226 C223 0.950 . S
C227 C218 1.390 . S
C227 H220 0.950 . S
C227 C224 1.387 . S
C228 C229 1.387 . S
C228 H232 0.950 . S
C228 C237 1.390 . S
C229 C228 1.387 . S
C229 C231 1.387 . S
H230 C237 0.950 . S
C231 C229 1.387 . S
C231 C233 1.390 . S
C231 H235 0.950 . S
H232 C228 0.950 . S
C233 C231 1.390 . S
C233 C234 1.387 . S
C233 H236 0.950 . S
C234 C233 1.387 . S
C234 C237 1.387 . S
H235 C231 0.950 . S
H236 C233 0.950 . S
C237 C228 1.390 . S
C237 H230 0.950 . S
C237 C234 1.387 . S
C238 C239 1.387 . S
C238 H242 0.950 . S
C238 C247 1.390 . S
C239 C238 1.387 . S
C239 C241 1.387 . S
H240 C247 0.950 . S
C241 C239 1.387 . S
C241 C243 1.390 . S
C241 H245 0.950 . S
H242 C238 0.950 . S
C243 C241 1.390 . S
C243 C244 1.387 . S
C243 H246 0.950 . S
C244 C243 1.387 . S
C244 C247 1.387 . S
H245 C241 0.950 . S
H246 C243 0.950 . S
C247 C238 1.390 . S
C247 H240 0.950 . S
C247 C244 1.387 . S
C248 C249 1.387 . S
C248 H252 0.950 . S
C248 C257 1.390 . S
C249 C248 1.387 . S
C249 C251 1.387 . S
H250 C257 0.950 . S
C251 C249 1.387 . S
C251 C253 1.390 . S
C251 H255 0.950 . S
H252 C248 0.950 . S
C253 C251 1.390 . S
C253 C254 1.387 . S
C253 H256 0.950 . S
C254 C253 1.387 . S
C254 C257 1.387 . S
H255 C251 0.950 . S
H256 C253 0.950 . S
C257 C248 1.390 . S
C257 H250 0.950 . S
C257 C254 1.387 . S
C258 C259 1.387 . S
C258 H262 0.950 . S
C258 C267 1.390 . S
C259 C258 1.387 . S
C259 C261 1.387 . S
H260 C267 0.950 . S
C261 C259 1.387 . S
C261 C263 1.390 . S
C261 H265 0.950 . S
H262 C258 0.950 . S
C263 C261 1.390 . S
C263 C264 1.387 . S
C263 H266 0.950 . S
C264 C263 1.387 . S
C264 C267 1.387 . S
H265 C261 0.950 . S
H266 C263 0.950 . S
C267 C258 1.390 . S
C267 H260 0.950 . S
C267 C264 1.387 . S
C268 C269 1.387 . S
C268 H272 0.950 . S
C268 C277 1.390 . S
C269 C268 1.387 . S
C269 C271 1.387 . S
H270 C277 0.950 . S
C271 C269 1.387 . S
C271 C273 1.390 . S
C271 H275 0.950 . S
H272 C268 0.950 . S
C273 C271 1.390 . S
C273 C274 1.387 . S
C273 H276 0.950 . S
C274 C273 1.387 . S
C274 C277 1.387 . S
H275 C271 0.950 . S
H276 C273 0.950 . S
C277 C268 1.390 . S
C277 H270 0.950 . S
C277 C274 1.387 . S
C278 C279 1.387 . S
C278 H282 0.950 . S
C278 C287 1.390 . S
C279 C278 1.387 . S
C279 C281 1.387 . S
H280 C287 0.950 . S
C281 C279 1.387 . S
C281 C283 1.390 . S
C281 H285 0.950 . S
H282 C278 0.950 . S
C283 C281 1.390 . S
C283 C284 1.387 . S
C283 H286 0.950 . S
C284 C283 1.387 . S
C284 C287 1.387 . S
H285 C281 0.950 . S
H286 C283 0.950 . S
C287 C278 1.390 . S
C287 H280 0.950 . S
C287 C284 1.387 . S
C288 C289 1.387 . S
C288 H292 0.950 . S
C288 C297 1.390 . S
C289 C288 1.387 . S
C289 C291 1.387 . S
H290 C297 0.950 . S
C291 C289 1.387 . S
C291 C293 1.390 . S
C291 H295 0.950 . S
H292 C288 0.950 . S
C293 C291 1.390 . S
C293 C294 1.387 . S
C293 H296 0.950 . S
C294 C293 1.387 . S
C294 C297 1.387 . S
H295 C291 0.950 . S
H296 C293 0.950 . S
C297 C288 1.390 . S
C297 H290 0.950 . S
C297 C294 1.387 . S
C298 C299 1.387 . S
C298 H302 0.950 . S
C298 C307 1.390 . S
C299 C298 1.387 . S
C299 C301 1.387 . S
H300 C307 0.950 . S
C301 C299 1.387 . S
C301 C303 1.390 . S
C301 H305 0.950 . S
H302 C298 0.950 . S
C303 C301 1.390 . S
C303 C304 1.387 . S
C303 H306 0.950 . S
C304 C303 1.387 . S
C304 C307 1.387 . S
H305 C301 0.950 . S
H306 C303 0.950 . S
C307 C298 1.390 . S
C307 H300 0.950 . S
C307 C304 1.387 . S
C308 C309 1.387 . S
C308 H312 0.950 . S
C308 C317 1.390 . S
C309 C308 1.387 . S
C309 C311 1.387 . S
H310 C317 0.950 . S
C311 C309 1.387 . S
C311 C313 1.390 . S
C311 H315 0.950 . S
H312 C308 0.950 . S
C313 C311 1.390 . S
C313 C314 1.387 . S
C313 H316 0.950 . S
C314 C313 1.387 . S
C314 C317 1.387 . S
H315 C311 0.950 . S
H316 C313 0.950 . S
C317 C308 1.390 . S
C317 H310 0.950 . S
C317 C314 1.387 . S
C318 C319 1.387 . S
C318 H322 0.950 . S
C318 C327 1.390 1_554 S
C319 C318 1.387 . S
C319 C321 1.387 . S
H320 C327 0.950 . S
C321 C319 1.387 . S
C321 C323 1.391 1_554 S
C321 H325 0.950 1_455 S
H322 C318 0.950 . S
C323 C321 1.391 1_556 S
C323 C324 1.387 . S
C323 H326 0.950 1_455 S
C324 C323 1.387 . S
C324 C327 1.387 . S
H325 C321 0.950 1_655 S
H326 C323 0.950 1_655 S
C327 C318 1.390 1_556 S
C327 H320 0.950 . S
C327 C324 1.387 . S
C328 C329 1.387 . S
C328 H332 0.950 . S
C328 C337 1.390 . S
C329 C328 1.387 . S
C329 C331 1.387 1_545 S
H330 C337 0.950 . S
C331 C329 1.387 1_565 S
C331 C333 1.390 . S
C331 H335 0.950 . S
H332 C328 0.950 . S
C333 C331 1.390 . S
C333 C334 1.387 1_565 S
C333 H336 0.950 . S
C334 C333 1.387 1_545 S
C334 C337 1.387 . S
H335 C331 0.950 . S
H336 C333 0.950 . S
C337 C328 1.390 . S
C337 H330 0.950 . S
C337 C334 1.387 . S
C338 C339 1.387 . S
C338 H342 0.950 . S
C338 C347 1.390 . S
C339 C338 1.387 . S
C339 C341 1.387 . S
H340 C347 0.950 . S
C341 C339 1.387 . S
C341 C343 1.390 . S
C341 H345 0.950 . S
H342 C338 0.950 . S
C343 C341 1.390 . S
C343 C344 1.387 . S
C343 H346 0.950 . S
C344 C343 1.387 . S
C344 C347 1.387 . S
H345 C341 0.950 . S
H346 C343 0.950 . S
C347 C338 1.390 . S
C347 H340 0.950 . S
C347 C344 1.387 . S
C348 C349 1.387 1_565 S
C348 H352 0.950 . S
C348 C357 1.390 . S
C349 C348 1.387 1_545 S
C349 C351 1.387 . S
H350 C357 0.950 . S
C351 C349 1.387 . S
C351 C353 1.390 . S
C351 H355 0.950 . S
H352 C348 0.950 . S
C353 C351 1.390 . S
C353 C354 1.387 . S
C353 H356 0.950 . S
C354 C353 1.387 . S
C354 C357 1.387 1_545 S
H355 C351 0.950 . S
H356 C353 0.950 . S
C357 C348 1.390 . S
C357 H350 0.950 . S
C357 C354 1.387 1_565 S
C358 C359 1.387 . S
C358 H362 0.950 . S
C358 C367 1.390 1_556 S
C359 C358 1.387 . S
C359 C361 1.387 . S
H360 C367 0.950 . S
C361 C359 1.387 . S
C361 C363 1.390 1_556 S
C361 H365 0.950 . S
H362 C358 0.950 . S
C363 C361 1.390 1_554 S
C363 C364 1.387 . S
C363 H366 0.950 . S
C364 C363 1.387 . S
C364 C367 1.387 . S
H365 C361 0.950 . S
H366 C363 0.950 . S
C367 C358 1.390 1_554 S
C367 H360 0.950 . S
C367 C364 1.387 . S
C368 C369 1.387 . S
C368 H372 0.950 . S
C368 C377 1.390 . S
C369 C368 1.387 . S
C369 C371 1.387 1_655 S
H370 C377 0.950 . S
C371 C369 1.387 1_455 S
C371 C373 1.390 . S
C371 H375 0.950 . S
H372 C368 0.950 . S
C373 C371 1.390 . S
C373 C374 1.387 . S
C373 H376 0.950 . S
C374 C373 1.387 . S
C374 C377 1.387 1_455 S
H375 C371 0.950 . S
H376 C373 0.950 . S
C377 C368 1.390 . S
C377 H370 0.950 . S
C377 C374 1.387 1_655 S
C199 C7 0.835 . S
C204 N187 0.879 . S
C209 C51 1.862 . S
C214 N160 1.855 1_655 S
C219 C87 1.376 . S
C224 N173 1.387 1_565 S
C229 C16 1.049 . S
C234 N186 1.149 . S
C244 N161 1.995 . S
C239 C42 2.015 . S
C254 N174 1.506 . S
C249 C96 1.452 . S
C259 C47 1.169 . S
C264 N134 1.177 . S
C269 C91 2.948 . S
C274 N148 2.894 1_655 S
C279 C2 2.047 . S
C284 N122 2.048 . S
C294 N135 1.586 . S
C289 C56 1.510 . S
C304 N147 3.267 . S
C299 C82 3.237 . S
C309 C11 1.866 . S
C314 N121 1.893 . S
C324 N151 1.768 . S
C319 C19 1.777 . S
C329 C50 1.445 . S
C334 N125 1.453 . S
C339 C99 1.484 . S
C344 N138 1.594 . S
C354 N177 1.527 . S
C349 C59 1.450 . S
C364 N190 1.190 . S
C359 C90 1.216 . S
C369 C10 1.394 1_655 S
C374 N164 1.426 . S
