# Generated by pormake.
# Topology anh, (6,3)-cn, num edge types: 1
# Building blocks:
#     Node 0, Type 0, BuildingBlock: NUHQIS_clean_sbu_0, # of connection points: 6
#     Node 1, Type 0, BuildingBlock: NUHQIS_clean_sbu_0, # of connection points: 6
#     Node 2, Type 0, BuildingBlock: NUHQIS_clean_sbu_0, # of connection points: 6
#     Node 3, Type 1, BuildingBlock: CUQRIR_clean_linker_1, # of connection points: 3
#     Node 4, Type 1, BuildingBlock: CUQRIR_clean_linker_1, # of connection points: 3
#     Node 5, Type 1, BuildingBlock: CUQRIR_clean_linker_1, # of connection points: 3
#     Node 6, Type 1, BuildingBlock: CUQRIR_clean_linker_1, # of connection points: 3
#     Node 7, Type 1, BuildingBlock: CUQRIR_clean_linker_1, # of connection points: 3
#     Node 8, Type 1, BuildingBlock: CUQRIR_clean_linker_1, # of connection points: 3
#     Edge 9, Type (0, 1), BuildingBlock: ZUJKAS_clean_linker_0, # of connection points: 2
#     Edge 10, Type (0, 1), BuildingBlock: ZUJKAS_clean_linker_0, # of connection points: 2
#     Edge 11, Type (0, 1), BuildingBlock: ZUJKAS_clean_linker_0, # of connection points: 2
#     Edge 12, Type (0, 1), BuildingBlock: ZUJKAS_clean_linker_0, # of connection points: 2
#     Edge 13, Type (0, 1), BuildingBlock: ZUJKAS_clean_linker_0, # of connection points: 2
#     Edge 14, Type (0, 1), BuildingBlock: ZUJKAS_clean_linker_0, # of connection points: 2
#     Edge 15, Type (0, 1), BuildingBlock: ZUJKAS_clean_linker_0, # of connection points: 2
#     Edge 16, Type (0, 1), BuildingBlock: ZUJKAS_clean_linker_0, # of connection points: 2
#     Edge 17, Type (0, 1), BuildingBlock: ZUJKAS_clean_linker_0, # of connection points: 2
#     Edge 18, Type (0, 1), BuildingBlock: ZUJKAS_clean_linker_0, # of connection points: 2
#     Edge 19, Type (0, 1), BuildingBlock: ZUJKAS_clean_linker_0, # of connection points: 2
#     Edge 20, Type (0, 1), BuildingBlock: ZUJKAS_clean_linker_0, # of connection points: 2
#     Edge 21, Type (0, 1), BuildingBlock: ZUJKAS_clean_linker_0, # of connection points: 2
#     Edge 22, Type (0, 1), BuildingBlock: ZUJKAS_clean_linker_0, # of connection points: 2
#     Edge 23, Type (0, 1), BuildingBlock: ZUJKAS_clean_linker_0, # of connection points: 2
#     Edge 24, Type (0, 1), BuildingBlock: ZUJKAS_clean_linker_0, # of connection points: 2
#     Edge 25, Type (0, 1), BuildingBlock: ZUJKAS_clean_linker_0, # of connection points: 2
#     Edge 26, Type (0, 1), BuildingBlock: ZUJKAS_clean_linker_0, # of connection points: 2
# Relax obj value: 0.226
# Max RMSD: 0.218
# Mean RMSD: 0.156
data_MOF--net-anh--node1-NUHQIS_clean_sbu_0--node2-CUQRIR_clean_linker_1--edge1-ZUJKAS_clean_linker_0
_symmetry_space_group_name_H-M    P1
_symmetry_Int_Tables_number       1
_symmetry_cell_setting            triclinic
loop_
_symmetry_equiv_pos_as_xyz
'x, y, z'
_cell_length_a     38.255093
_cell_length_b     38.302425
_cell_length_c     62.046551
_cell_angle_alpha  87.009576
_cell_angle_beta   92.768257
_cell_angle_gamma 119.94819
loop_
_atom_site_label
_atom_site_type_symbol
_atom_site_fract_x
_atom_site_fract_y
_atom_site_fract_z
_atom_type_partial_charge
Tb0 Tb 0.13239 0.54978 0.16907 0.0
Eu1 Eu 0.08696 0.59618 0.15345 0.0
C2 C 0.09919 0.58274 0.2028 0.0
C3 C 1.03383 0.49675 0.16405 0.0
C4 C 0.20531 0.52535 0.19703 0.0
C5 C 0.2446 0.5047 0.22054 0.0
C6 C 0.20919 0.49511 0.20866 0.0
C7 C 0.23591 0.56574 0.19866 0.0
C8 C 0.27149 0.57533 0.21039 0.0
C9 C 0.27669 0.54469 0.22079 0.0
C10 C 0.16979 0.51421 0.18285 0.0
O11 O 0.11921 0.53858 0.13422 0.0
O12 O 0.12526 0.59928 0.12631 0.0
O13 O 0.15045 0.6491 0.16335 0.0
O14 O 0.1844 0.61377 0.16585 0.0
C15 C 0.12554 0.56756 0.11992 0.0
O16 O 1.05951 0.61182 0.12602 0.0
O17 O 1.06007 0.63405 0.15756 0.0
O18 O 0.07233 0.58027 0.18825 0.0
O19 O 0.13084 0.58099 0.19715 0.0
O20 O 1.06784 0.5006 0.17294 0.0
O21 O 1.03552 0.52841 0.15314 0.0
C22 C 0.18524 0.64906 0.16562 0.0
O23 O 0.13837 0.51081 0.19208 0.0
O24 O 0.17625 0.53362 0.16422 0.0
C25 C 1.00213 0.61309 0.13487 0.0
C26 C 0.91981 0.57152 0.12288 0.0
C27 C 0.9467 0.60758 0.1119 0.0
C28 C 0.98759 0.62815 0.11785 0.0
C29 C 0.97519 0.57815 0.1465 0.0
C30 C 0.9343 0.5576 0.14061 0.0
C31 C 1.04561 0.62922 0.13774 0.0
H32 H 0.24801 0.48041 0.22812 0.0
H33 H 0.18557 0.46386 0.20778 0.0
H34 H 0.23306 0.58962 0.19012 0.0
H35 H 0.29582 0.60636 0.21032 0.0
H36 H 0.93657 0.61886 0.09804 0.0
H37 H 1.00819 0.65465 0.10845 0.0
H38 H 0.98605 0.56574 0.1595 0.0
H39 H 0.91423 0.5303 0.1496 0.0
Tb40 Tb 0.69165 0.0916 0.49437 0.0
Eu41 Eu 0.59642 1.04562 0.49238 0.0
C42 C 0.643 0.06959 0.53678 0.0
C43 C 0.64471 0.99288 0.49867 0.0
C44 C 0.79454 0.17575 0.49712 0.0
C45 C 0.80134 0.24033 0.50483 0.0
C46 C 0.7809 0.19842 0.50734 0.0
C47 C 0.83028 0.19555 0.4856 0.0
C48 C 0.85071 0.23749 0.48301 0.0
C49 C 0.83552 0.26017 0.49189 0.0
C50 C 0.76759 0.13245 0.49453 0.0
O51 O 0.6737 0.07058 0.46126 0.0
O52 O 0.61563 0.07262 0.45887 0.0
O53 O 0.61292 0.11124 0.49953 0.0
O54 O 0.67937 0.14383 0.49072 0.0
C55 C 0.64602 0.0738 0.44942 0.0
O56 O 0.53843 0.99723 0.48015 0.0
O57 O 0.54045 1.04142 0.50145 0.0
O58 O 0.61326 1.03953 0.52678 0.0
O59 O 0.67331 0.09791 0.52594 0.0
O60 O 0.67794 1.02792 0.50265 0.0
O61 O 0.61131 0.99335 0.49207 0.0
C62 C 0.64689 0.14562 0.49601 0.0
O63 O 0.7471 0.11163 0.5113 0.0
O64 O 0.74484 0.12404 0.47713 0.0
C65 C 0.48352 0.976 0.5037 0.0
C66 C 0.41122 0.92189 0.52435 0.0
C67 C 0.41671 0.91706 0.50266 0.0
C68 C 0.45247 0.94397 0.49244 0.0
C69 C 0.47923 0.97934 0.52579 0.0
C70 C 0.44325 0.95259 0.536 0.0
C71 C 0.51773 1.00785 0.49161 0.0
H72 H 0.78927 0.25703 0.51214 0.0
H73 H 0.75305 0.18362 0.51613 0.0
H74 H 0.84082 0.17844 0.47733 0.0
H75 H 0.87671 0.25177 0.47279 0.0
H76 H 0.39238 0.89409 0.49314 0.0
H77 H 0.45505 0.94092 0.47541 0.0
H78 H 0.50289 1.00364 0.53496 0.0
H79 H 0.43988 0.95684 0.55274 0.0
Tb80 Tb 0.62359 0.63141 0.82788 0.0
Eu81 Eu 0.57665 0.53495 0.83068 0.0
C82 C 0.60406 0.58581 0.87205 0.0
C83 C 0.67691 0.58393 0.83288 0.0
C84 C 0.64492 0.73553 0.82893 0.0
C85 C 0.64995 0.79943 0.81804 0.0
C86 C 0.66793 0.77552 0.82151 0.0
C87 C 0.60468 0.72059 0.83438 0.0
C88 C 0.58631 0.7439 0.83031 0.0
C89 C 0.60831 0.78316 0.82124 0.0
C90 C 0.66013 0.70754 0.82712 0.0
O91 O 0.61126 0.61587 0.79374 0.0
O92 O 0.58305 0.54691 0.79465 0.0
O93 O 0.52485 0.55052 0.83124 0.0
O94 O 0.55987 0.61957 0.82938 0.0
C95 C 0.59715 0.58157 0.78389 0.0
O96 O 0.56004 0.47394 0.8222 0.0
O97 O 0.53125 0.48315 0.8489 0.0
O98 O 0.60726 0.55804 0.86262 0.0
O99 O 0.60025 0.61304 0.8603 0.0
O100 O 0.67516 0.61796 0.83102 0.0
O101 O 0.64288 0.54877 0.83296 0.0
C102 C 0.52496 0.58527 0.83127 0.0
O103 O 0.65822 0.68561 0.84426 0.0
O104 O 0.64662 0.68592 0.81001 0.0
C105 C 0.54918 0.43332 0.85381 0.0
C106 C 0.57126 0.38703 0.8819 0.0
C107 C 0.60094 0.42267 0.87178 0.0
C108 C 0.59 0.44566 0.85799 0.0
C109 C 0.51944 0.39899 0.8646 0.0
C110 C 0.53037 0.37602 0.87861 0.0
C111 C 0.538 0.45776 0.83925 0.0
H112 H 0.66838 0.83006 0.81191 0.0
H113 H 0.69916 0.78761 0.81733 0.0
H114 H 0.58669 0.69 0.84052 0.0
H115 H 0.55431 0.73 0.83304 0.0
H116 H 0.63265 0.43183 0.87355 0.0
H117 H 0.61351 0.47265 0.8502 0.0
H118 H 0.48781 0.38969 0.862 0.0
H119 H 0.50679 0.34902 0.88635 0.0
C120 C 0.61207 0.07291 0.18475 0.0
N121 N 0.64027 0.10102 0.19898 0.0
N122 N 0.57987 1.04053 0.19512 0.0
C123 C 0.61471 0.07774 0.16069 0.0
C124 C 0.58979 0.05022 0.21609 0.0
N125 N 0.62507 0.0858 0.2185 0.0
C126 C 0.56462 1.0243 0.23468 0.0
H127 H 0.62818 0.11 0.15561 0.0
H128 H 0.58441 0.06005 0.15291 0.0
H129 H 0.6343 0.06638 0.15524 0.0
H130 H 0.54445 0.99264 0.23005 0.0
H131 H 0.54572 1.0366 0.23995 0.0
H132 H 0.58413 1.02468 0.2486 0.0
C133 C 0.64301 0.56721 0.52051 0.0
N134 N 0.63778 0.59199 0.5342 0.0
N135 N 0.63969 0.53256 0.53092 0.0
C136 C 0.65173 0.57693 0.497 0.0
C137 C 0.63179 0.53744 0.55135 0.0
N138 N 0.63081 0.57227 0.55341 0.0
C139 C 0.62418 0.50728 0.56972 0.0
H140 H 0.63511 0.59178 0.48988 0.0
H141 H 0.64353 0.54945 0.48808 0.0
H142 H 0.68452 0.59801 0.49523 0.0
H143 H 0.65324 0.51531 0.57828 0.0
H144 H 0.6109 0.47629 0.56375 0.0
H145 H 0.60346 0.5075 0.58153 0.0
C146 C 0.10328 0.5826 0.8563 0.0
N147 N 0.13084 0.57835 0.87022 0.0
N148 N 1.07041 0.57938 0.86685 0.0
C149 C 0.10835 0.59007 0.83241 0.0
C150 C 0.07904 0.57239 0.88758 0.0
N151 N 0.11453 0.57197 0.88971 0.0
C152 C 1.05207 0.56533 0.90623 0.0
H153 H 0.12878 0.62272 0.82909 0.0
H154 H 0.07913 0.5813 0.82392 0.0
H155 H 0.12192 0.57315 0.82599 0.0
H156 H 1.02005 0.55211 0.90079 0.0
H157 H 1.06174 0.59455 0.91375 0.0
H158 H 1.0541 0.54475 0.9188 0.0
C159 C 1.02747 0.69077 0.44258 0.0
N160 N 1.01942 0.67033 0.42416 0.0
N161 N 1.06061 0.72773 0.44055 0.0
C162 C 1.00829 0.6716 0.46382 0.0
C163 C 0.07224 0.72902 0.42011 0.0
N164 N 1.04751 0.69409 0.41022 0.0
C165 C 0.10973 0.76347 0.41058 0.0
H166 H 1.01408 0.69465 0.4757 0.0
H167 H 1.02098 0.65264 0.4704 0.0
H168 H 0.97524 0.6519 0.46152 0.0
H169 H 0.1357 0.75875 0.4145 0.0
H170 H 0.11634 0.79229 0.41759 0.0
H171 H 0.10632 0.76536 0.39276 0.0
C172 C 0.56891 0.10391 0.78855 0.0
N173 N 0.56397 0.09242 0.76786 0.0
N174 N 0.59512 0.14385 0.78981 0.0
C175 C 0.55243 0.07532 0.80785 0.0
C176 C 0.60639 0.15633 0.76922 0.0
N177 N 0.58767 0.12492 0.75585 0.0
C178 C 0.63431 0.19933 0.76217 0.0
H179 H 0.57011 0.08883 0.82283 0.0
H180 H 0.55272 1.047 0.80536 0.0
H181 H 0.52073 0.0676 0.81006 0.0
H182 H 0.66586 0.20532 0.76333 0.0
H183 H 0.63185 0.22034 0.77284 0.0
H184 H 0.62748 0.2051 0.74521 0.0
C185 C 0.51259 0.43873 0.12119 0.0
N186 N 0.52337 0.44574 0.10029 0.0
N187 N 0.48996 0.45554 0.12551 0.0
C188 C 0.52766 0.41906 0.13787 0.0
C189 C 0.48708 0.47285 0.10639 0.0
N190 N 0.50762 0.46708 0.09113 0.0
C191 C 0.46754 0.49856 0.10325 0.0
H192 H 0.52561 0.39165 0.13139 0.0
H193 H 0.51003 0.41047 0.15282 0.0
H194 H 0.55989 0.44026 0.14184 0.0
H195 H 0.4854 0.52662 0.11232 0.0
H196 H 0.43673 0.4825 0.10974 0.0
H197 H 0.46528 0.50641 0.08599 0.0
H198 H 0.34377 0.58431 0.19736 0.0
H199 H 0.40223 0.57601 0.20101 0.0
H200 H 0.36228 0.51523 0.26308 0.0
H201 H 0.30114 0.52088 0.25851 0.0
H202 H 0.46442 0.58617 0.22338 0.0
H203 H 0.3502 0.42264 0.23311 0.0
H204 H 0.33387 0.45916 0.22944 0.0
H205 H 0.35805 0.4557 0.25449 0.0
C206 C 0.34796 0.5704 0.21217 0.0
C207 C 0.31747 0.55231 0.22738 0.0
C208 C 0.38166 0.56562 0.21431 0.0
C209 C 0.38593 0.54324 0.2319 0.0
C210 C 0.35868 0.53078 0.24884 0.0
H211 H 0.54233 0.49111 0.15875 0.0
H212 H 0.52703 0.50754 0.19349 0.0
C213 C 0.32404 0.53445 0.24637 0.0
C214 C 0.41376 0.52716 0.22957 0.0
H215 H 0.40672 0.4398 0.21382 0.0
C216 C 0.45237 0.55406 0.22177 0.0
C217 C 0.39861 0.48509 0.22821 0.0
C218 C 0.35797 0.45386 0.23671 0.0
C219 C 0.47214 0.54085 0.20869 0.0
C220 C 0.45396 0.49916 0.20479 0.0
C221 C 0.41969 0.47181 0.21629 0.0
C222 C 0.46359 0.48419 0.18562 0.0
C223 C 0.50943 0.57211 0.19721 0.0
C224 C 0.43265 0.46319 0.17021 0.0
C225 C 0.44106 0.45225 0.1509 0.0
C226 C 0.48066 0.46289 0.14637 0.0
C227 C 0.51147 0.48258 0.162 0.0
C228 C 0.50287 0.49251 0.18168 0.0
H229 H 0.51619 0.60334 0.19992 0.0
H230 H 0.53582 0.56948 0.20324 0.0
H231 H 0.50587 0.5674 0.17956 0.0
H232 H 0.402 0.45626 0.17282 0.0
H233 H 0.41682 0.43626 0.13925 0.0
H234 H 0.91505 0.31807 0.48769 0.0
H235 H 0.94168 0.3871 0.47309 0.0
H236 H 0.82087 0.36856 0.46676 0.0
H237 H 0.7939 0.29952 0.48097 0.0
H238 H 0.91924 0.40796 0.43117 0.0
H239 H 0.88569 0.47583 0.49875 0.0
H240 H 0.88738 0.42957 0.50211 0.0
H241 H 0.8444 0.42944 0.48906 0.0
C242 C 0.89419 0.32879 0.48332 0.0
C243 C 0.8524 0.30337 0.48557 0.0
C244 C 0.90944 0.36816 0.47502 0.0
C245 C 0.8832 0.38281 0.46899 0.0
C246 C 0.8416 0.35792 0.47165 0.0
H247 H 0.93862 0.62372 0.42323 0.0
H248 H 0.90072 0.55024 0.43005 0.0
C249 C 0.82631 0.31855 0.47989 0.0
C250 C 0.89923 0.42362 0.45908 0.0
H251 H 0.91223 0.51666 0.46738 0.0
C252 C 0.91769 0.43178 0.43902 0.0
C253 C 0.89661 0.45428 0.4693 0.0
C254 C 0.87773 0.44714 0.49107 0.0
C255 C 0.93402 0.47015 0.42895 0.0
C256 C 0.93248 0.5012 0.43946 0.0
C257 C 0.91314 0.4927 0.45929 0.0
C258 C 0.95376 0.54354 0.43131 0.0
C259 C 0.95267 0.47702 0.40715 0.0
C260 C 0.99581 0.56374 0.42925 0.0
C261 C 1.0171 0.60529 0.42525 0.0
C262 C 0.9967 0.62721 0.42341 0.0
C263 C 0.95455 0.60693 0.42437 0.0
C264 C 0.93313 0.56526 0.42834 0.0
H265 H 0.93956 0.44853 0.39828 0.0
H266 H 0.94843 0.49953 0.39708 0.0
H267 H 0.98553 0.48845 0.40941 0.0
H268 H 1.01247 0.54784 0.43205 0.0
H269 H 1.04974 0.6208 0.42502 0.0
H270 H 0.62637 0.83497 0.78607 0.0
H271 H 0.59263 0.87143 0.77295 0.0
H272 H 0.50484 0.81405 0.82284 0.0
H273 H 0.54115 0.78071 0.83772 0.0
H274 H 0.52035 0.84971 0.75666 0.0
H275 H 0.54064 0.92796 0.83347 0.0
H276 H 0.56423 0.89832 0.82953 0.0
H277 H 0.51134 0.87403 0.83526 0.0
C278 C 0.60069 0.83088 0.79479 0.0
C279 C 0.58729 0.80545 0.81336 0.0
C280 C 0.58079 0.85115 0.78691 0.0
C281 C 0.54644 0.8459 0.79704 0.0
C282 C 0.53184 0.81934 0.81504 0.0
H283 H 0.48673 1.0346 0.77354 0.0
H284 H 0.46285 0.96196 0.77491 0.0
C285 C 0.55247 0.79987 0.82336 0.0
C286 C 0.52798 0.87035 0.78918 0.0
H287 H 0.51683 0.94892 0.80337 0.0
C288 C 0.51876 0.87088 0.76697 0.0
C289 C 0.52539 0.89765 0.80267 0.0
C290 C 0.53617 0.89983 0.8265 0.0
C291 C 0.51087 0.90044 0.75761 0.0
C292 C 0.51149 0.9295 0.77087 0.0
C293 C 0.51622 0.92627 0.79331 0.0
C294 C 0.51743 0.9685 0.76205 0.0
C295 C 0.50463 0.90213 0.7335 0.0
C296 C 0.55504 0.99575 0.75331 0.0
C297 C 0.56899 1.03701 0.75312 0.0
C298 C 0.5452 0.05136 0.76133 0.0
C299 C 0.50547 1.02386 0.76728 0.0
C300 C 0.49177 0.98253 0.76791 0.0
H301 H 0.49242 0.87192 0.72657 0.0
H302 H 0.48377 0.91385 0.72921 0.0
H303 H 0.53407 0.92272 0.72601 0.0
H304 H 0.57559 0.98559 0.74909 0.0
H305 H 0.59988 0.05769 0.74874 0.0
H306 H 0.87421 0.48953 0.11974 0.0
H307 H 0.80389 0.45031 0.10704 0.0
H308 H 0.79949 0.56011 0.09565 0.0
H309 H 0.86927 0.59942 0.10865 0.0
H310 H 0.73802 0.44969 0.12504 0.0
H311 H 0.7514 0.49999 0.0393 0.0
H312 H 0.79405 0.50552 0.05579 0.0
H313 H 0.77732 0.54179 0.05681 0.0
C314 C 0.85819 0.50531 0.11461 0.0
C315 C 0.87728 0.54762 0.11521 0.0
C316 C 0.81823 0.48287 0.10714 0.0
C317 C 0.79696 0.50243 0.09992 0.0
C318 C 0.81588 0.54458 0.10053 0.0
H319 H 0.5942 0.51093 0.09195 0.0
H320 H 0.65758 0.51275 0.08577 0.0
C321 C 0.85567 0.56699 0.10806 0.0
C322 C 0.75379 0.47916 0.09368 0.0
H323 H 0.68659 0.47874 0.05546 0.0
C324 C 0.72652 0.45478 0.10958 0.0
C325 C 0.73912 0.48557 0.0734 0.0
C326 C 0.76707 0.50932 0.05527 0.0
C327 C 0.68506 0.44044 0.10662 0.0
C328 C 0.67082 0.45039 0.08711 0.0
C329 C 0.69769 0.47127 0.0704 0.0
C330 C 0.63103 0.44785 0.08589 0.0
C331 C 0.65741 0.41826 0.12515 0.0
C332 C 0.59493 0.41075 0.08708 0.0
C333 C 0.55856 0.40983 0.09043 0.0
C334 C 0.55823 0.44594 0.09259 0.0
C335 C 0.59389 0.48287 0.08994 0.0
C336 C 0.62998 0.48384 0.0865 0.0
H337 H 0.67398 0.41556 0.13976 0.0
H338 H 0.64116 0.43407 0.12946 0.0
H339 H 0.63454 0.38746 0.12025 0.0
H340 H 0.59523 0.38269 0.08649 0.0
H341 H 0.5311 0.38113 0.09239 0.0
H342 H 0.37161 0.95057 0.54666 0.0
H343 H 0.29877 0.9174 0.55127 0.0
H344 H 0.28548 0.80878 0.52551 0.0
H345 H 0.35811 0.84128 0.52161 0.0
H346 H 0.25647 0.89998 0.51522 0.0
H347 H 0.19202 0.76022 0.56473 0.0
H348 H 0.24424 0.79914 0.5679 0.0
H349 H 0.22936 0.76079 0.54819 0.0
C350 C 0.35336 0.91896 0.54305 0.0
C351 C 0.37037 0.89864 0.5334 0.0
C352 C 0.31168 0.90006 0.54566 0.0
C353 C 0.28652 0.8606 0.53874 0.0
C354 C 0.30411 0.83895 0.53138 0.0
H355 H 0.12552 0.72333 0.45391 0.0
H356 H 0.1713 0.75778 0.48422 0.0
C357 C 0.34569 0.85775 0.52883 0.0
C358 C 0.24318 0.84573 0.53375 0.0
H359 H 0.15507 0.75663 0.5296 0.0
C360 C 0.23363 0.86914 0.51909 0.0
C361 C 0.21316 0.80577 0.53898 0.0
C362 C 0.22027 0.78033 0.55603 0.0
C363 C 0.19713 0.85187 0.50716 0.0
C364 C 0.16949 0.81033 0.51027 0.0
C365 C 0.17668 0.78838 0.52701 0.0
C366 C 0.1391 0.78769 0.49332 0.0
C367 C 0.1905 0.87694 0.48962 0.0
C368 C 0.10589 0.79319 0.48841 0.0
C369 C 0.08006 0.77385 0.47082 0.0
C370 C 0.08739 0.74906 0.45812 0.0
C371 C 0.12005 0.74304 0.46337 0.0
C372 C 0.14571 0.76221 0.48078 0.0
H373 H 0.21593 0.9085 0.48876 0.0
H374 H 0.18672 0.86332 0.4737 0.0
H375 H 0.16249 0.87759 0.49265 0.0
H376 H 0.10022 0.81257 0.49801 0.0
H377 H 1.05448 0.77813 0.46708 0.0
H378 H 0.63785 0.404 0.9082 0.0
H379 H 0.668 0.36069 0.91345 0.0
H380 H 0.56137 0.26291 0.88462 0.0
H381 H 0.53156 0.30538 0.8792 0.0
H382 H 0.604 0.23618 0.91342 0.0
H383 H 0.70623 0.35437 0.85433 0.0
H384 H 0.70412 0.36677 0.88161 0.0
H385 H 0.66274 0.35587 0.86294 0.0
C386 C 0.62037 0.37282 0.90364 0.0
C387 C 0.58293 0.35858 0.89253 0.0
C388 C 0.63759 0.34811 0.90676 0.0
C389 C 0.6175 0.30909 0.89874 0.0
C390 C 0.57761 0.29307 0.89082 0.0
H391 H 0.54823 0.15 0.81809 0.0
H392 H 0.5697 0.18721 0.85142 0.0
C393 C 0.56047 0.31758 0.8877 0.0
C394 C 0.63948 0.2884 0.89299 0.0
H395 H 0.68431 0.28742 0.84712 0.0
C396 C 0.62327 0.24774 0.89954 0.0
C397 C 0.66574 0.30368 0.87528 0.0
C398 C 0.68593 0.34755 0.86805 0.0
C399 C 0.62633 0.22067 0.88646 0.0
C400 C 0.64561 0.23487 0.86645 0.0
C401 C 0.66848 0.27647 0.86219 0.0
C402 C 0.63339 0.20826 0.84783 0.0
C403 C 0.60526 0.17658 0.89306 0.0
C404 C 0.66208 0.20899 0.83423 0.0
C405 C 0.64966 0.18817 0.81494 0.0
C406 C 0.60853 0.1668 0.80902 0.0
C407 C 0.58002 0.1662 0.82255 0.0
C408 C 0.5923 0.18682 0.84173 0.0
H409 H 0.60849 0.17276 0.91078 0.0
H410 H 0.57253 0.16286 0.88908 0.0
H411 H 0.61743 0.16014 0.88467 0.0
H412 H 0.69397 0.22608 0.83839 0.0
H413 H 0.67196 0.1885 0.8047 0.0
H414 H 0.59003 0.91535 0.48331 0.0
H415 H 0.59056 0.85158 0.48799 0.0
H416 H 0.69811 0.91036 0.52805 0.0
H417 H 0.699 0.97443 0.52203 0.0
H418 H 0.57996 0.79617 0.51206 0.0
H419 H 0.74159 0.85379 0.50154 0.0
H420 H 0.73481 0.87789 0.52361 0.0
H421 H 0.71977 0.88562 0.4965 0.0
C422 C 0.61432 0.91519 0.49293 0.0
C423 C 0.64478 0.95185 0.50191 0.0
C424 C 0.61458 0.87776 0.49578 0.0
C425 C 0.64506 0.87387 0.50805 0.0
C426 C 0.67482 0.91049 0.51755 0.0
H427 H 0.68957 0.65947 0.50855 0.0
H428 H 0.68988 0.72345 0.5017 0.0
C429 C 0.67506 0.94809 0.51431 0.0
C430 C 0.64467 0.83217 0.51123 0.0
H431 H 0.70486 0.78751 0.5168 0.0
C432 C 0.60772 0.79502 0.51293 0.0
C433 C 0.67985 0.82761 0.51204 0.0
C434 C 0.72116 0.86325 0.50808 0.0
C435 C 0.60492 0.75599 0.51555 0.0
C436 C 0.64019 0.75166 0.51779 0.0
C437 C 0.67713 0.78871 0.51569 0.0
C438 C 0.63954 0.70998 0.52182 0.0
C439 C 0.5632 0.71956 0.51477 0.0
C440 C 0.61176 0.67834 0.53565 0.0
C441 C 0.61075 0.6405 0.53905 0.0
C442 C 0.63838 0.6315 0.52961 0.0
C443 C 0.66687 0.6633 0.5161 0.0
C444 C 0.66737 0.70106 0.51234 0.0
H445 H 0.54179 0.72623 0.50519 0.0
H446 H 0.56315 0.69368 0.50749 0.0
H447 H 0.55167 0.71083 0.53139 0.0
H448 H 0.59049 0.68268 0.54432 0.0
H449 H 0.58734 0.61791 0.54906 0.0
H450 H 0.69501 0.52533 0.8503 0.0
H451 H 0.75967 0.52666 0.85488 0.0
H452 H 0.81929 0.6445 0.82379 0.0
H453 H 0.75515 0.64429 0.82086 0.0
H454 H 0.81247 0.52313 0.83769 0.0
H455 H 0.90598 0.67839 0.86459 0.0
H456 H 0.85215 0.65581 0.86148 0.0
H457 H 0.88421 0.67873 0.83848 0.0
C458 C 0.72187 0.55199 0.84463 0.0
C459 C 0.71839 0.58491 0.83537 0.0
C460 C 0.75976 0.55273 0.84721 0.0
C461 C 0.79704 0.58622 0.84043 0.0
C462 C 0.79312 0.6186 0.83049 0.0
H463 H 1.04533 0.62891 0.88259 0.0
H464 H 0.98151 0.62832 0.8764 0.0
C465 C 0.75537 0.61829 0.82843 0.0
C466 C 0.83857 0.58641 0.84331 0.0
H467 H 0.94146 0.64664 0.85377 0.0
C468 C 0.84035 0.55047 0.84139 0.0
C469 C 0.87674 0.62102 0.84862 0.0
C470 C 0.87971 0.66051 0.85366 0.0
C471 C 0.87683 0.54815 0.84432 0.0
C472 C 0.91538 0.58326 0.84839 0.0
C473 C 0.91352 0.61913 0.85042 0.0
C474 C 0.95694 0.58358 0.85167 0.0
C475 C 0.87258 0.50689 0.84398 0.0
C476 C 0.96812 0.55962 0.83993 0.0
C477 C 1.00529 0.55915 0.84405 0.0
C478 C 1.03461 0.58377 0.85964 0.0
C479 C 1.02446 0.60918 0.87049 0.0
C480 C 0.98708 0.60892 0.86678 0.0
H481 H 0.84158 0.48285 0.84812 0.0
H482 H 0.87828 0.5014 0.82747 0.0
H483 H 0.89409 0.50402 0.85558 0.0
H484 H 0.94809 0.54076 0.82737 0.0
H485 H 1.01046 0.53849 0.83531 0.0
H486 H 0.20127 0.72929 0.1682 0.0
H487 H 0.26574 0.79276 0.17171 0.0
H488 H 0.32962 0.72687 0.1724 0.0
H489 H 0.26534 0.66358 0.16869 0.0
H490 H 0.32625 0.82897 0.19975 0.0
H491 H 0.40116 0.81121 0.13091 0.0
H492 H 0.34827 0.77787 0.13563 0.0
H493 H 0.38585 0.77032 0.15039 0.0
C494 C 0.22887 0.72788 0.16895 0.0
C495 C 0.22644 0.68969 0.1679 0.0
C496 C 0.26657 0.765 0.17105 0.0
C497 C 0.30469 0.7668 0.17194 0.0
C498 C 0.30217 0.72849 0.17114 0.0
H499 H 0.56806 0.96568 0.18517 0.0
H500 H 0.50385 0.90224 0.1798 0.0
C501 C 0.26449 0.69136 0.16918 0.0
C502 C 0.34599 0.80782 0.17413 0.0
H503 H 0.44273 0.8648 0.15401 0.0
C504 C 0.35135 0.83644 0.1895 0.0
C505 C 0.38059 0.81968 0.16126 0.0
C506 C 0.37874 0.79343 0.14348 0.0
C507 C 0.38849 0.87399 0.19264 0.0
C508 C 0.42305 0.88608 0.17964 0.0
C509 C 0.41767 0.85739 0.16428 0.0
C510 C 0.46432 0.92724 0.18183 0.0
C511 C 0.39042 0.89953 0.21083 0.0
C512 C 0.46652 0.96512 0.18421 0.0
C513 C 0.50397 1.00203 0.18721 0.0
C514 C 0.54208 1.0041 0.18739 0.0
C515 C 0.54024 0.96666 0.18445 0.0
C516 C 0.5027 0.92962 0.18155 0.0
H517 H 0.36858 0.88107 0.22353 0.0
H518 H 0.42106 0.91537 0.21845 0.0
H519 H 0.38235 0.92226 0.20444 0.0
H520 H 0.43897 0.96651 0.18388 0.0
H521 H 0.503 1.02921 0.18995 0.0
H522 H 0.59061 0.16198 0.51392 0.0
H523 H 0.59199 0.22581 0.51846 0.0
H524 H 0.70598 0.28926 0.48682 0.0
H525 H 0.70568 0.2256 0.48359 0.0
H526 H 0.58563 0.28003 0.50063 0.0
H527 H 0.74395 0.37183 0.52775 0.0
H528 H 0.74106 0.35278 0.50161 0.0
H529 H 0.72136 0.31838 0.52468 0.0
C530 C 0.61643 0.18943 0.50803 0.0
C531 C 0.64813 0.18696 0.49842 0.0
C532 C 0.61718 0.22689 0.51061 0.0
C533 C 0.64957 0.26497 0.50365 0.0
C534 C 0.68089 0.26228 0.49353 0.0
H535 H 0.68942 0.50492 0.54841 0.0
H536 H 0.69012 0.44283 0.54175 0.0
C537 C 0.68049 0.2248 0.4913 0.0
C538 C 0.64956 0.30599 0.5066 0.0
H539 H 0.70962 0.40755 0.51803 0.0
C540 C 0.61314 0.30758 0.50455 0.0
C541 C 0.68441 0.34372 0.51214 0.0
C542 C 0.72479 0.34664 0.51691 0.0
C543 C 0.61055 0.34341 0.50755 0.0
C544 C 0.64568 0.38155 0.5121 0.0
C545 C 0.68206 0.3799 0.51431 0.0
C546 C 0.64546 0.42229 0.5156 0.0
C547 C 0.56905 0.33888 0.5067 0.0
C548 C 0.62113 0.43517 0.50322 0.0
C549 C 0.62025 0.47144 0.50739 0.0
C550 C 0.64451 0.4981 0.52386 0.0
C551 C 0.67003 0.48622 0.53556 0.0
C552 C 0.67046 0.44983 0.53162 0.0
H553 H 0.54539 0.30726 0.51038 0.0
H554 H 0.56668 0.35857 0.51836 0.0
H555 H 0.56255 0.34699 0.49016 0.0
H556 H 0.60233 0.41715 0.49007 0.0
H557 H 0.59952 0.47795 0.49796 0.0
H558 H 0.44392 0.52591 0.82279 0.0
H559 H 0.38099 0.52651 0.82773 0.0
H560 H 0.44929 0.64457 0.8542 0.0
H561 H 0.51194 0.6451 0.84751 0.0
H562 H 0.33325 0.5219 0.85222 0.0
H563 H 0.38131 0.67781 0.82528 0.0
H564 H 0.41292 0.65621 0.82202 0.0
H565 H 0.41323 0.67789 0.84731 0.0
C566 C 0.44591 0.55252 0.82932 0.0
C567 C 0.48463 0.58575 0.83422 0.0
C568 C 0.40902 0.55284 0.83237 0.0
C569 C 0.4079 0.5861 0.84097 0.0
C570 C 0.44684 0.6188 0.84649 0.0
H571 H 0.1912 0.62651 0.8406 0.0
H572 H 0.25343 0.62633 0.83312 0.0
C573 C 0.48375 0.61894 0.84286 0.0
C574 C 0.36679 0.58559 0.84467 0.0
H575 H 0.32106 0.64459 0.84509 0.0
C576 C 0.33126 0.54913 0.85039 0.0
C577 C 0.36101 0.61995 0.84212 0.0
C578 C 0.39397 0.66002 0.83361 0.0
C579 C 0.29268 0.54606 0.85365 0.0
C580 C 0.28763 0.5809 0.85262 0.0
C581 C 0.32298 0.61729 0.84658 0.0
C582 C 0.24677 0.5803 0.85713 0.0
C583 C 0.25724 0.50425 0.85709 0.0
C584 C 0.21949 0.55511 0.87335 0.0
C585 C 0.1822 0.55396 0.87707 0.0
C586 C 0.16974 0.57918 0.86557 0.0
C587 C 0.19748 0.60542 0.84977 0.0
C588 C 0.23444 0.60578 0.84564 0.0
H589 H 0.26198 0.48133 0.84952 0.0
H590 H 0.25388 0.49664 0.87464 0.0
H591 H 0.22883 0.50181 0.85017 0.0
H592 H 0.22691 0.53602 0.88367 0.0
H593 H 0.16283 0.53238 0.88905 0.0
H594 H 0.95455 0.47251 0.14747 0.0
H595 H 0.89105 0.40829 0.15232 0.0
H596 H 0.95393 0.36246 0.19331 0.0
H597 H 1.01723 0.42572 0.18784 0.0
H598 H 0.8385 0.36433 0.17956 0.0
H599 H 0.89604 0.26286 0.16295 0.0
H600 H 0.9234 0.29373 0.18526 0.0
H601 H 0.92632 0.3166 0.15871 0.0
C602 C 0.95535 0.44876 0.15736 0.0
C603 C 0.99286 0.45582 0.16688 0.0
C604 C 0.91814 0.4112 0.16028 0.0
C605 C 0.91561 0.37778 0.17287 0.0
C606 C 0.95309 0.38537 0.18273 0.0
H607 H 0.70046 0.12047 0.1691 0.0
H608 H 0.76301 0.18473 0.16261 0.0
C609 C 0.99022 0.42273 0.17972 0.0
C610 C 0.87457 0.33641 0.17603 0.0
H611 H 0.8317 0.23191 0.17899 0.0
C612 C 0.83766 0.33565 0.17935 0.0
C613 C 0.87059 0.2971 0.17549 0.0
C614 C 0.90605 0.29244 0.17018 0.0
C615 C 0.79937 0.2991 0.18242 0.0
C616 C 0.7958 0.25986 0.18297 0.0
C617 C 0.83252 0.26059 0.17915 0.0
C618 C 0.75508 0.21856 0.18698 0.0
C619 C 0.76261 0.30349 0.18421 0.0
C620 C 0.72724 0.21289 0.20309 0.0
C621 C 0.69036 0.17554 0.20663 0.0
C622 C 0.67858 0.1405 0.19461 0.0
C623 C 0.70657 0.14577 0.1787 0.0
C624 C 0.74347 0.18333 0.17508 0.0
H625 H 0.76696 0.33189 0.1761 0.0
H626 H 0.73539 0.27789 0.17692 0.0
H627 H 0.75725 0.3047 0.20149 0.0
H628 H 0.73406 0.23744 0.21345 0.0
H629 H 0.67073 0.17454 0.2189 0.0
H630 H 0.15142 0.62807 0.08901 0.0
H631 H 0.15664 0.62445 0.05026 0.0
H632 H 0.11759 0.49788 0.05797 0.0
H633 H 0.11222 0.50125 0.09713 0.0
H634 H 0.20258 0.60064 0.02628 0.0
H635 H 1.03777 0.50156 0.01157 0.0
H636 H 1.05821 0.52812 0.03633 0.0
H637 H 1.06101 0.48371 0.03173 0.0
C638 C 0.14403 0.59934 0.0826 0.0
C639 C 0.13116 0.56486 0.09639 0.0
C640 C 0.14715 0.59739 0.06031 0.0
C641 C 0.13708 0.56085 0.05094 0.0
C642 C 0.12502 0.52641 0.06465 0.0
H643 H 0.1011 0.50521 0.91303 0.0
H644 H 0.11181 0.50107 0.9522 0.0
C645 C 0.1222 0.5284 0.08712 0.0
C646 C 0.13864 0.55923 0.02684 0.0
H647 H 0.07911 0.52139 0.98143 0.0
C648 C 0.17559 0.58307 0.0165 0.0
C649 C 0.10358 0.5364 0.01388 0.0
C650 C 1.06276 0.51117 0.02381 0.0
C651 C 0.17843 0.58466 0.99379 0.0
C652 C 0.14315 0.56268 0.98075 0.0
C653 C 0.10632 0.53828 0.99118 0.0
C654 C 0.1431 0.56557 0.95639 0.0
C655 C 0.21949 0.6095 0.98408 0.0
C656 C 0.15823 0.60311 0.9452 0.0
C657 C 0.15302 0.60536 0.92266 0.0
C658 C 0.13232 0.57023 0.91065 0.0
C659 C 0.11865 0.5328 0.92169 0.0
C660 C 0.12413 0.53049 0.94419 0.0
H661 H 0.24378 0.61237 0.99567 0.0
H662 H 0.22182 0.59614 0.96913 0.0
H663 H 0.22485 0.64032 0.98002 0.0
H664 H 0.17187 0.63072 0.95401 0.0
H665 H 0.16226 0.63444 0.91477 0.0
H666 H 0.59758 0.08785 0.42028 0.0
H667 H 0.60263 0.09644 0.38095 0.0
H668 H 0.70605 0.07964 0.38419 0.0
H669 H 0.70124 0.071 0.42359 0.0
H670 H 0.66863 0.15445 0.35545 0.0
H671 H 0.63071 0.99801 0.33901 0.0
H672 H 0.6206 1.01156 0.36447 0.0
H673 H 0.67099 1.02381 0.35845 0.0
C674 C 0.62135 0.08577 0.41269 0.0
C675 C 0.64884 0.07843 0.42528 0.0
C676 C 0.62427 0.09084 0.39011 0.0
C677 C 0.65445 0.08829 0.3794 0.0
C678 C 0.68207 0.08115 0.39191 0.0
H679 H 0.68675 0.08274 0.23995 0.0
H680 H 0.70018 0.08887 0.27921 0.0
C681 C 0.67935 0.07634 0.41453 0.0
C682 C 0.65703 0.09343 0.35524 0.0
H683 H 0.64793 1.04364 0.30917 0.0
C684 C 0.66418 0.13022 0.34535 0.0
C685 C 0.6516 0.06207 0.3419 0.0
C686 C 0.64273 1.02148 0.35139 0.0
C687 C 0.66608 0.13649 0.32269 0.0
C688 C 0.65956 0.10475 0.30927 0.0
C689 C 0.6531 0.06818 0.31924 0.0
C690 C 0.65675 0.10772 0.285 0.0
C691 C 0.67574 0.17745 0.31343 0.0
C692 C 0.62892 0.11747 0.2748 0.0
C693 C 0.62197 0.1147 0.25237 0.0
C694 C 0.64234 0.10183 0.23946 0.0
C695 C 0.67161 0.09399 0.2494 0.0
C696 C 0.67873 0.09686 0.2719 0.0
H697 H 0.69378 0.20143 0.32512 0.0
H698 H 0.6927 0.18488 0.29827 0.0
H699 H 0.64717 0.17773 0.30986 0.0
H700 H 0.6106 0.1248 0.2843 0.0
H701 H 0.59829 0.11957 0.24522 0.0
H702 H 0.59899 0.52649 0.75792 0.0
H703 H 0.60562 0.53036 0.71871 0.0
H704 H 0.60245 0.64151 0.71553 0.0
H705 H 0.59837 0.63894 0.75485 0.0
H706 H 0.56305 0.5272 0.68607 0.0
H707 H 0.6971 0.67911 0.68001 0.0
H708 H 0.67862 0.65362 0.70565 0.0
H709 H 0.65636 0.68084 0.69198 0.0
C710 C 0.59983 0.55185 0.74889 0.0
C711 C 0.59845 0.58255 0.75971 0.0
C712 C 0.60365 0.5541 0.72633 0.0
C713 C 0.60567 0.58682 0.71379 0.0
C714 C 0.60271 0.61671 0.72457 0.0
H715 H 0.56298 0.55821 0.57279 0.0
H716 H 0.55623 0.56575 0.61113 0.0
C717 C 0.59985 0.61496 0.74718 0.0
C718 C 0.6099 0.58894 0.68956 0.0
H719 H 0.66223 0.65124 0.64691 0.0
C720 C 0.58496 0.55439 0.67763 0.0
C721 C 0.6389 0.62399 0.67815 0.0
C722 C 0.66954 0.66129 0.68964 0.0
C723 C 0.58795 0.55382 0.65505 0.0
C724 C 0.6154 0.58951 0.64349 0.0
C725 C 0.64057 0.62399 0.65542 0.0
C726 C 0.61985 0.59106 0.61932 0.0
C727 C 0.56261 0.51422 0.64408 0.0
C728 C 0.65812 0.60603 0.61035 0.0
C729 C 0.66206 0.60369 0.58811 0.0
C730 C 0.62796 0.58638 0.57418 0.0
C731 C 0.58994 0.57308 0.58293 0.0
C732 C 0.58603 0.57632 0.60506 0.0
H733 H 0.55394 0.48819 0.65563 0.0
H734 H 0.53436 0.51256 0.63749 0.0
H735 H 0.57887 0.51098 0.63067 0.0
H736 H 0.68491 0.6177 0.62072 0.0
H737 H 0.69154 0.61283 0.58198 0.0
H738 H 0.57869 1.02382 0.56259 0.0
H739 H 0.57098 1.03571 0.59989 0.0
H740 H 0.69214 0.13719 0.60096 0.0
H741 H 0.69989 0.12611 0.56345 0.0
H742 H 0.61275 1.03724 0.63724 0.0
H743 H 0.62634 0.18695 0.61905 0.0
H744 H 0.61963 0.15283 0.59821 0.0
H745 H 0.66857 0.18322 0.61065 0.0
C746 C 0.60385 0.04853 0.57077 0.0
C747 C 0.63983 0.07423 0.55999 0.0
C748 C 0.59934 0.0553 0.59209 0.0
C749 C 0.63066 0.08783 0.60302 0.0
C750 C 0.66722 0.11254 0.59262 0.0
H751 H 0.65923 0.15434 0.73668 0.0
H752 H 0.66984 0.14733 0.69878 0.0
C753 C 0.6717 0.10596 0.57124 0.0
C754 C 0.62484 0.09593 0.62526 0.0
H755 H 0.62441 0.16707 0.65612 0.0
C756 C 0.61521 0.06557 0.64135 0.0
C757 C 0.62773 0.13285 0.63052 0.0
C758 C 0.63574 0.16571 0.61368 0.0
C759 C 0.60897 0.0714 0.66264 0.0
C760 C 0.6125 0.10846 0.66789 0.0
C761 C 0.62199 0.1388 0.6519 0.0
C762 C 0.60627 0.11593 0.69004 0.0
C763 C 0.5988 1.03815 0.67953 0.0
C764 C 0.5671 0.10128 0.69733 0.0
C765 C 0.56111 0.10576 0.71881 0.0
C766 C 0.59418 0.12485 0.73321 0.0
C767 C 0.63342 0.14039 0.7257 0.0
C768 C 0.63944 0.13609 0.7042 0.0
H769 H 0.59955 1.01198 0.67313 0.0
H770 H 0.62038 0.04976 0.69348 0.0
H771 H 0.56817 1.02764 0.6856 0.0
H772 H 0.54122 0.08562 0.68654 0.0
H773 H 0.53066 0.09352 0.72437 0.0
H774 H 0.57904 0.62625 0.8966 0.0
H775 H 0.56621 0.6163 0.93542 0.0
H776 H 0.60685 0.52942 0.9396 0.0
H777 H 0.61966 0.53902 0.90098 0.0
H778 H 0.51149 0.5389 0.95515 0.0
H779 H 0.66649 0.60477 0.99078 0.0
H780 H 0.65618 0.61726 0.96361 0.0
H781 H 0.65623 0.57082 0.96938 0.0
C782 C 0.58589 0.60555 0.90587 0.0
C783 C 0.60032 0.58338 0.89574 0.0
C784 C 0.57847 0.59986 0.928 0.0
C785 C 0.58599 0.57245 0.94035 0.0
C786 C 0.60148 0.55119 0.9304 0.0
H787 H 0.49193 0.42719 0.05456 0.0
H788 H 0.50996 0.4566 0.01781 0.0
C789 C 0.60857 0.55658 0.9083 0.0
C790 C 0.57463 0.56331 0.96325 0.0
H791 H 0.6124 0.56092 0.01394 0.0
C792 C 0.53356 0.54424 0.96807 0.0
C793 C 0.60355 0.57054 0.98003 0.0
C794 C 0.64814 0.5923 0.97579 0.0
C795 C 0.52048 0.53049 0.98916 0.0
C796 C 0.54924 0.53586 0.00572 0.0
C797 C 0.59045 0.55661 0.00111 0.0
C798 C 0.53695 0.51833 0.0277 0.0
C799 C 0.47598 0.50971 0.99355 0.0
C800 C 0.5466 0.54338 0.04531 0.0
C801 C 0.53604 0.52656 0.06615 0.0
C802 C 0.51596 0.48455 0.06961 0.0
C803 C 0.50676 0.4596 0.05203 0.0
C804 C 0.51698 0.47634 0.03118 0.0
H805 H 0.4589 0.51602 0.98042 0.0
H806 H 0.46385 0.47665 0.99481 0.0
H807 H 0.47069 0.51933 0.00907 0.0
H808 H 0.56246 0.57586 0.04292 0.0
H809 H 0.54432 0.54623 0.07966 0.0
H810 H 0.15378 0.60078 0.23663 0.0
H811 H 0.14658 0.6155 0.27364 0.0
H812 H 1.02757 0.59608 0.257 0.0
H813 H 1.03431 0.58123 0.22018 0.0
H814 H 0.13183 0.67801 0.2855 0.0
H815 H 1.01079 0.52716 0.31303 0.0
H816 H 1.04092 0.53457 0.28987 0.0
H817 H 0.99974 0.54466 0.2876 0.0
C818 C 0.12593 0.59926 0.24092 0.0
C819 C 0.09462 0.58984 0.22545 0.0
C820 C 0.12189 0.6077 0.26204 0.0
C821 C 0.08634 0.60633 0.2681 0.0
C822 C 1.05495 0.59655 0.25276 0.0
H823 H 0.99462 0.66404 0.37692 0.0
H824 H 1.00552 0.64201 0.34254 0.0
C825 C 1.05901 0.58834 0.23167 0.0
C826 C 0.08266 0.61741 0.29005 0.0
H827 H 1.02437 0.58246 0.33467 0.0
C828 C 0.10868 0.65705 0.2964 0.0
C829 C 1.05228 0.58998 0.30412 0.0
C830 C 1.02453 0.54659 0.29844 0.0
C831 C 0.1042 0.67048 0.31615 0.0
C832 C 0.07336 0.64323 0.33009 0.0
C833 C 1.04786 0.60333 0.32391 0.0
C834 C 1.06659 0.65578 0.35096 0.0
C835 C 0.13157 0.71411 0.32156 0.0
C836 C 0.09694 0.66999 0.36718 0.0
C837 C 0.09074 0.6827 0.38661 0.0
C838 C 1.0541 0.68133 0.39014 0.0
C839 C 1.02327 0.66589 0.37426 0.0
C840 C 1.02948 0.65328 0.35476 0.0
H841 H 0.14649 0.73309 0.30703 0.0
H842 H 0.11454 0.72652 0.32913 0.0
H843 H 0.15553 0.71639 0.3332 0.0
H844 H 0.12532 0.67102 0.36485 0.0
H845 H 0.1143 0.69305 0.39903 0.0
loop_
_geom_bond_atom_site_label_1
_geom_bond_atom_site_label_2
_geom_bond_distance
_geom_bond_site_symmetry_2
_ccdc_geom_bond_type
Tb0 C10 2.825 . S
Tb0 O11 2.347 . S
Tb0 O14 2.366 . S
Tb0 O19 2.418 . S
Tb0 O20 2.384 1_455 S
Tb0 O23 2.479 . S
Tb0 O24 2.471 . S
Eu1 O12 2.418 . S
Eu1 O13 2.384 1_655 S
Eu1 O16 2.479 . S
Eu1 O17 2.471 . S
Eu1 O18 2.347 . S
Eu1 O21 2.366 . S
Eu1 C31 2.825 . S
C2 O18 1.259 1_455 S
C2 O19 1.265 . S
C3 O20 1.255 . S
C3 O21 1.265 . S
C4 C6 1.380 . S
C4 C7 1.374 . S
C4 C10 1.507 . S
C5 C6 1.384 . S
C5 C9 1.387 . S
C5 H32 0.930 . S
C6 C4 1.380 . S
C6 C5 1.384 . S
C6 H33 0.931 . S
C7 C4 1.374 . S
C7 C8 1.390 . S
C7 H34 0.930 . S
C8 C7 1.390 . S
C8 C9 1.391 . S
C8 H35 0.930 . S
C9 C5 1.387 . S
C9 C8 1.391 . S
C10 Tb0 2.825 . S
C10 C4 1.507 . S
C10 O23 1.238 . S
C10 O24 1.247 . S
O11 Tb0 2.347 . S
O11 C15 1.265 . S
O12 Eu1 2.418 . S
O12 C15 1.251 1_655 S
O13 Eu1 2.384 1_455 S
O13 C22 1.255 . S
O14 Tb0 2.366 . S
O14 C22 1.265 . S
C15 O11 1.265 . S
C15 O12 1.251 1_455 S
O16 Eu1 2.479 . S
O16 C31 1.238 . S
O17 Eu1 2.471 . S
O17 C31 1.247 . S
O18 Eu1 2.347 . S
O18 C2 1.259 1_655 S
O19 Tb0 2.418 . S
O19 C2 1.265 . S
O20 Tb0 2.384 1_655 S
O20 C3 1.255 . S
O21 Eu1 2.366 . S
O21 C3 1.265 . S
C22 O13 1.255 . S
C22 O14 1.265 . S
O23 Tb0 2.479 . S
O23 C10 1.238 . S
O24 Tb0 2.471 . S
O24 C10 1.247 . S
C25 C28 1.380 . S
C25 C29 1.374 . S
C25 C31 1.507 . S
C26 C27 1.387 . S
C26 C30 1.391 . S
C27 C26 1.387 . S
C27 C28 1.384 . S
C27 H36 0.930 . S
C28 C25 1.380 . S
C28 C27 1.384 . S
C28 H37 0.931 . S
C29 C25 1.374 . S
C29 C30 1.390 . S
C29 H38 0.930 . S
C30 C26 1.391 . S
C30 C29 1.390 . S
C30 H39 0.930 . S
C31 Eu1 2.825 . S
C31 O16 1.238 . S
C31 O17 1.247 . S
C31 C25 1.507 . S
H32 C5 0.930 . S
H33 C6 0.931 . S
H34 C7 0.930 . S
H35 C8 0.930 . S
H36 C27 0.930 . S
H37 C28 0.931 . S
H38 C29 0.930 . S
H39 C30 0.930 . S
Tb40 C50 2.825 . S
Tb40 O51 2.347 . S
Tb40 O54 2.366 . S
Tb40 O59 2.418 . S
Tb40 O60 2.384 . S
Tb40 O63 2.479 . S
Tb40 O64 2.471 . S
Eu41 O52 2.418 . S
Eu41 O53 2.384 . S
Eu41 O56 2.479 1_545 S
Eu41 O57 2.471 1_545 S
Eu41 O58 2.347 . S
Eu41 O61 2.366 1_545 S
Eu41 C71 2.825 1_545 S
C42 O58 1.259 . S
C42 O59 1.265 . S
C43 O60 1.255 1_565 S
C43 O61 1.265 . S
C44 C46 1.380 . S
C44 C47 1.374 . S
C44 C50 1.507 . S
C45 C46 1.384 . S
C45 C49 1.387 . S
C45 H72 0.930 . S
C46 C44 1.380 . S
C46 C45 1.384 . S
C46 H73 0.931 . S
C47 C44 1.374 . S
C47 C48 1.390 . S
C47 H74 0.930 . S
C48 C47 1.390 . S
C48 C49 1.391 . S
C48 H75 0.930 . S
C49 C45 1.387 . S
C49 C48 1.391 . S
C50 Tb40 2.825 . S
C50 C44 1.507 . S
C50 O63 1.238 . S
C50 O64 1.247 . S
O51 Tb40 2.347 . S
O51 C55 1.259 . S
O52 Eu41 2.418 . S
O52 C55 1.265 . S
O53 Eu41 2.384 . S
O53 C62 1.255 . S
O54 Tb40 2.366 . S
O54 C62 1.265 . S
C55 O51 1.259 . S
C55 O52 1.265 . S
O56 Eu41 2.479 1_565 S
O56 C71 1.238 . S
O57 Eu41 2.471 1_565 S
O57 C71 1.247 . S
O58 Eu41 2.347 . S
O58 C42 1.259 . S
O59 Tb40 2.418 . S
O59 C42 1.265 . S
O60 Tb40 2.384 . S
O60 C43 1.255 1_545 S
O61 Eu41 2.366 1_565 S
O61 C43 1.265 . S
C62 O53 1.255 . S
C62 O54 1.265 . S
O63 Tb40 2.479 . S
O63 C50 1.238 . S
O64 Tb40 2.471 . S
O64 C50 1.247 . S
C65 C68 1.380 . S
C65 C69 1.374 . S
C65 C71 1.507 . S
C66 C67 1.387 . S
C66 C70 1.391 . S
C67 C66 1.387 . S
C67 C68 1.384 . S
C67 H76 0.930 . S
C68 C65 1.380 . S
C68 C67 1.384 . S
C68 H77 0.931 . S
C69 C65 1.374 . S
C69 C70 1.390 . S
C69 H78 0.930 . S
C70 C66 1.391 . S
C70 C69 1.390 . S
C70 H79 0.930 . S
C71 Eu41 2.825 1_565 S
C71 O56 1.238 . S
C71 O57 1.247 . S
C71 C65 1.507 . S
H72 C45 0.930 . S
H73 C46 0.931 . S
H74 C47 0.930 . S
H75 C48 0.930 . S
H76 C67 0.930 . S
H77 C68 0.931 . S
H78 C69 0.930 . S
H79 C70 0.930 . S
Tb80 C90 2.825 . S
Tb80 O91 2.347 . S
Tb80 O94 2.366 . S
Tb80 O99 2.418 . S
Tb80 O100 2.384 . S
Tb80 O103 2.479 . S
Tb80 O104 2.471 . S
Eu81 O92 2.418 . S
Eu81 O93 2.384 . S
Eu81 O96 2.479 . S
Eu81 O97 2.471 . S
Eu81 O98 2.347 . S
Eu81 O101 2.366 . S
Eu81 C111 2.825 . S
C82 O98 1.259 . S
C82 O99 1.265 . S
C83 O100 1.255 . S
C83 O101 1.265 . S
C84 C86 1.380 . S
C84 C87 1.374 . S
C84 C90 1.507 . S
C85 C86 1.384 . S
C85 C89 1.387 . S
C85 H112 0.930 . S
C86 C84 1.380 . S
C86 C85 1.384 . S
C86 H113 0.931 . S
C87 C84 1.374 . S
C87 C88 1.390 . S
C87 H114 0.930 . S
C88 C87 1.390 . S
C88 C89 1.391 . S
C88 H115 0.930 . S
C89 C85 1.387 . S
C89 C88 1.391 . S
C90 Tb80 2.825 . S
C90 C84 1.507 . S
C90 O103 1.238 . S
C90 O104 1.247 . S
O91 Tb80 2.347 . S
O91 C95 1.259 . S
O92 Eu81 2.418 . S
O92 C95 1.265 . S
O93 Eu81 2.384 . S
O93 C102 1.255 . S
O94 Tb80 2.366 . S
O94 C102 1.265 . S
C95 O91 1.259 . S
C95 O92 1.265 . S
O96 Eu81 2.479 . S
O96 C111 1.238 . S
O97 Eu81 2.471 . S
O97 C111 1.247 . S
O98 Eu81 2.347 . S
O98 C82 1.259 . S
O99 Tb80 2.418 . S
O99 C82 1.265 . S
O100 Tb80 2.384 . S
O100 C83 1.255 . S
O101 Eu81 2.366 . S
O101 C83 1.265 . S
C102 O93 1.255 . S
C102 O94 1.265 . S
O103 Tb80 2.479 . S
O103 C90 1.238 . S
O104 Tb80 2.471 . S
O104 C90 1.247 . S
C105 C108 1.380 . S
C105 C109 1.374 . S
C105 C111 1.507 . S
C106 C107 1.387 . S
C106 C110 1.391 . S
C107 C106 1.387 . S
C107 C108 1.384 . S
C107 H116 0.930 . S
C108 C105 1.380 . S
C108 C107 1.384 . S
C108 H117 0.931 . S
C109 C105 1.374 . S
C109 C110 1.390 . S
C109 H118 0.930 . S
C110 C106 1.391 . S
C110 C109 1.390 . S
C110 H119 0.930 . S
C111 Eu81 2.825 . S
C111 O96 1.238 . S
C111 O97 1.247 . S
C111 C105 1.507 . S
H112 C85 0.930 . S
H113 C86 0.931 . S
H114 C87 0.930 . S
H115 C88 0.930 . S
H116 C107 0.930 . S
H117 C108 0.931 . S
H118 C109 0.930 . S
H119 C110 0.930 . S
C120 N121 1.317 1_565 S
C120 N122 1.348 . S
C120 C123 1.485 1_565 S
N121 C120 1.317 1_545 S
N121 N125 1.370 . S
N122 C120 1.348 . S
N122 C124 1.346 . S
C123 C120 1.485 1_545 S
C123 H127 0.960 . S
C123 H128 0.961 1_545 S
C123 H129 0.960 . S
C124 N122 1.346 . S
C124 N125 1.307 1_565 S
C124 C126 1.486 . S
N125 N121 1.370 . S
N125 C124 1.307 1_545 S
C126 C124 1.486 . S
C126 H130 0.960 . S
C126 H131 0.960 . S
C126 H132 0.959 . S
H127 C123 0.960 . S
H128 C123 0.961 1_565 S
H129 C123 0.960 . S
H130 C126 0.960 . S
H131 C126 0.960 . S
H132 C126 0.959 . S
C133 N134 1.317 . S
C133 N135 1.348 . S
C133 C136 1.485 . S
N134 C133 1.317 . S
N134 N138 1.370 . S
N135 C133 1.348 . S
N135 C137 1.346 . S
C136 C133 1.485 . S
C136 H140 0.960 . S
C136 H141 0.961 . S
C136 H142 0.960 . S
C137 N135 1.346 . S
C137 N138 1.307 . S
C137 C139 1.486 . S
N138 N134 1.370 . S
N138 C137 1.307 . S
C139 C137 1.486 . S
C139 H143 0.960 . S
C139 H144 0.960 . S
C139 H145 0.959 . S
H140 C136 0.960 . S
H141 C136 0.961 . S
H142 C136 0.960 . S
H143 C139 0.960 . S
H144 C139 0.960 . S
H145 C139 0.959 . S
C146 N147 1.317 . S
C146 N148 1.348 1_455 S
C146 C149 1.485 . S
N147 C146 1.317 . S
N147 N151 1.370 . S
N148 C146 1.348 1_655 S
N148 C150 1.346 . S
C149 C146 1.485 . S
C149 H153 0.960 . S
C149 H154 0.961 . S
C149 H155 0.960 . S
C150 N148 1.346 . S
C150 N151 1.307 1_655 S
C150 C152 1.486 . S
N151 N147 1.370 . S
N151 C150 1.307 1_455 S
C152 C150 1.486 . S
C152 H156 0.960 . S
C152 H157 0.960 . S
C152 H158 0.959 . S
H153 C149 0.960 . S
H154 C149 0.961 . S
H155 C149 0.960 . S
H156 C152 0.960 . S
H157 C152 0.960 . S
H158 C152 0.959 . S
C159 N160 1.317 . S
C159 N161 1.348 . S
C159 C162 1.485 . S
N160 C159 1.317 . S
N160 N164 1.370 . S
N161 C159 1.348 . S
N161 C163 1.346 . S
C162 C159 1.485 . S
C162 H166 0.960 . S
C162 H167 0.961 . S
C162 H168 0.960 . S
C163 N161 1.346 . S
C163 N164 1.307 . S
C163 C165 1.486 . S
N164 N160 1.370 . S
N164 C163 1.307 . S
C165 C163 1.486 . S
C165 H169 0.960 . S
C165 H170 0.960 . S
C165 H171 0.959 . S
H166 C162 0.960 . S
H167 C162 0.961 . S
H168 C162 0.960 . S
H169 C165 0.960 . S
H170 C165 0.960 . S
H171 C165 0.959 . S
C172 N173 1.317 . S
C172 N174 1.348 . S
C172 C175 1.485 . S
N173 C172 1.317 . S
N173 N177 1.370 . S
N174 C172 1.348 . S
N174 C176 1.346 . S
C175 C172 1.485 . S
C175 H179 0.960 . S
C175 H180 0.961 . S
C175 H181 0.960 . S
C176 N174 1.346 . S
C176 N177 1.307 . S
C176 C178 1.486 . S
N177 N173 1.370 . S
N177 C176 1.307 . S
C178 C176 1.486 . S
C178 H182 0.960 . S
C178 H183 0.960 . S
C178 H184 0.959 . S
H179 C175 0.960 . S
H180 C175 0.961 . S
H181 C175 0.960 . S
H182 C178 0.960 . S
H183 C178 0.960 . S
H184 C178 0.959 . S
C185 N186 1.317 . S
C185 N187 1.348 . S
C185 C188 1.485 . S
N186 C185 1.317 . S
N186 N190 1.370 . S
N187 C185 1.348 . S
N187 C189 1.346 . S
C188 C185 1.485 . S
C188 H192 0.960 . S
C188 H193 0.961 . S
C188 H194 0.960 . S
C189 N187 1.346 . S
C189 N190 1.307 . S
C189 C191 1.486 . S
N190 N186 1.370 . S
N190 C189 1.307 . S
C191 C189 1.486 . S
C191 H195 0.960 . S
C191 H196 0.960 . S
C191 H197 0.959 . S
H192 C188 0.960 . S
H193 C188 0.961 . S
H194 C188 0.960 . S
H195 C191 0.960 . S
H196 C191 0.960 . S
H197 C191 0.959 . S
H198 C206 0.929 . S
H199 C208 0.930 . S
H200 C210 0.930 . S
H201 C213 0.929 . S
H202 C216 0.930 . S
H203 C218 0.960 . S
H204 C218 0.960 . S
H205 C218 0.960 . S
C206 H198 0.929 . S
C206 C207 1.377 . S
C206 C208 1.384 . S
C207 C206 1.377 . S
C207 C213 1.390 . S
C208 H199 0.930 . S
C208 C206 1.384 . S
C208 C209 1.372 . S
C209 C208 1.372 . S
C209 C210 1.400 . S
C209 C214 1.490 . S
C210 H200 0.930 . S
C210 C209 1.400 . S
C210 C213 1.386 . S
H211 C227 0.930 . S
H212 C228 0.931 . S
C213 H201 0.929 . S
C213 C207 1.390 . S
C213 C210 1.386 . S
C214 C209 1.490 . S
C214 C216 1.395 . S
C214 C217 1.403 . S
H215 C221 0.930 . S
C216 H202 0.930 . S
C216 C214 1.395 . S
C216 C219 1.403 . S
C217 C214 1.403 . S
C217 C218 1.524 . S
C217 C221 1.400 . S
C218 H203 0.960 . S
C218 H204 0.960 . S
C218 H205 0.960 . S
C218 C217 1.524 . S
C219 C216 1.403 . S
C219 C220 1.392 . S
C219 C223 1.495 . S
C220 C219 1.392 . S
C220 C221 1.385 . S
C220 C222 1.478 . S
C221 H215 0.930 . S
C221 C217 1.400 . S
C221 C220 1.385 . S
C222 C220 1.478 . S
C222 C224 1.381 . S
C222 C228 1.383 . S
C223 C219 1.495 . S
C223 H229 0.959 . S
C223 H230 0.961 . S
C223 H231 0.960 . S
C224 C222 1.381 . S
C224 C225 1.394 . S
C224 H232 0.930 . S
C225 C224 1.394 . S
C225 C226 1.383 . S
C225 H233 0.929 . S
C226 C225 1.383 . S
C226 C227 1.377 . S
C227 H211 0.930 . S
C227 C226 1.377 . S
C227 C228 1.379 . S
C228 H212 0.931 . S
C228 C222 1.383 . S
C228 C227 1.379 . S
H229 C223 0.959 . S
H230 C223 0.961 . S
H231 C223 0.960 . S
H232 C224 0.930 . S
H233 C225 0.929 . S
H234 C242 0.929 . S
H235 C244 0.930 . S
H236 C246 0.930 . S
H237 C249 0.929 . S
H238 C252 0.930 . S
H239 C254 0.960 . S
H240 C254 0.960 . S
H241 C254 0.960 . S
C242 H234 0.929 . S
C242 C243 1.377 . S
C242 C244 1.384 . S
C243 C242 1.377 . S
C243 C249 1.390 . S
C244 H235 0.930 . S
C244 C242 1.384 . S
C244 C245 1.372 . S
C245 C244 1.372 . S
C245 C246 1.400 . S
C245 C250 1.490 . S
C246 H236 0.930 . S
C246 C245 1.400 . S
C246 C249 1.386 . S
H247 C263 0.930 . S
H248 C264 0.931 . S
C249 H237 0.929 . S
C249 C243 1.390 . S
C249 C246 1.386 . S
C250 C245 1.490 . S
C250 C252 1.395 . S
C250 C253 1.403 . S
H251 C257 0.930 . S
C252 H238 0.930 . S
C252 C250 1.395 . S
C252 C255 1.403 . S
C253 C250 1.403 . S
C253 C254 1.524 . S
C253 C257 1.400 . S
C254 H239 0.960 . S
C254 H240 0.960 . S
C254 H241 0.960 . S
C254 C253 1.524 . S
C255 C252 1.403 . S
C255 C256 1.392 . S
C255 C259 1.495 . S
C256 C255 1.392 . S
C256 C257 1.385 . S
C256 C258 1.478 . S
C257 H251 0.930 . S
C257 C253 1.400 . S
C257 C256 1.385 . S
C258 C256 1.478 . S
C258 C260 1.381 . S
C258 C264 1.383 . S
C259 C255 1.495 . S
C259 H265 0.959 . S
C259 H266 0.961 . S
C259 H267 0.960 . S
C260 C258 1.381 . S
C260 C261 1.394 1_655 S
C260 H268 0.930 . S
C261 C260 1.394 1_455 S
C261 C262 1.383 . S
C261 H269 0.929 . S
C262 C261 1.383 . S
C262 C263 1.377 1_455 S
C263 H247 0.930 . S
C263 C262 1.377 1_655 S
C263 C264 1.379 . S
C264 H248 0.931 . S
C264 C258 1.383 . S
C264 C263 1.379 . S
H265 C259 0.959 . S
H266 C259 0.961 . S
H267 C259 0.960 . S
H268 C260 0.930 . S
H269 C261 0.929 . S
H270 C278 0.929 . S
H271 C280 0.930 . S
H272 C282 0.930 . S
H273 C285 0.929 . S
H274 C288 0.930 . S
H275 C290 0.960 . S
H276 C290 0.960 . S
H277 C290 0.960 . S
C278 H270 0.929 . S
C278 C279 1.377 . S
C278 C280 1.384 . S
C279 C278 1.377 . S
C279 C285 1.390 . S
C280 H271 0.930 . S
C280 C278 1.384 . S
C280 C281 1.372 . S
C281 C280 1.372 . S
C281 C282 1.400 . S
C281 C286 1.490 . S
C282 H272 0.930 . S
C282 C281 1.400 . S
C282 C285 1.386 . S
H283 C299 0.930 . S
H284 C300 0.931 . S
C285 H273 0.929 . S
C285 C279 1.390 . S
C285 C282 1.386 . S
C286 C281 1.490 . S
C286 C288 1.395 . S
C286 C289 1.403 . S
H287 C293 0.930 . S
C288 H274 0.930 . S
C288 C286 1.395 . S
C288 C291 1.403 . S
C289 C286 1.403 . S
C289 C290 1.524 . S
C289 C293 1.400 . S
C290 H275 0.960 . S
C290 H276 0.960 . S
C290 H277 0.960 . S
C290 C289 1.524 . S
C291 C288 1.403 . S
C291 C292 1.392 . S
C291 C295 1.495 . S
C292 C291 1.392 . S
C292 C293 1.385 . S
C292 C294 1.478 . S
C293 H287 0.930 . S
C293 C289 1.400 . S
C293 C292 1.385 . S
C294 C292 1.478 . S
C294 C296 1.381 . S
C294 C300 1.383 . S
C295 C291 1.495 . S
C295 H301 0.959 . S
C295 H302 0.961 . S
C295 H303 0.960 . S
C296 C294 1.381 . S
C296 C297 1.394 1_565 S
C296 H304 0.930 . S
C297 C296 1.394 1_545 S
C297 C298 1.383 . S
C297 H305 0.929 . S
C298 C297 1.383 . S
C298 C299 1.377 1_545 S
C299 H283 0.930 . S
C299 C298 1.377 1_565 S
C299 C300 1.379 . S
C300 H284 0.931 . S
C300 C294 1.383 . S
C300 C299 1.379 . S
H301 C295 0.959 . S
H302 C295 0.961 . S
H303 C295 0.960 . S
H304 C296 0.930 . S
H305 C297 0.929 . S
H306 C314 0.929 . S
H307 C316 0.930 . S
H308 C318 0.930 . S
H309 C321 0.929 . S
H310 C324 0.930 . S
H311 C326 0.960 . S
H312 C326 0.960 . S
H313 C326 0.960 . S
C314 H306 0.929 . S
C314 C315 1.377 . S
C314 C316 1.384 . S
C315 C314 1.377 . S
C315 C321 1.390 . S
C316 H307 0.930 . S
C316 C314 1.384 . S
C316 C317 1.372 . S
C317 C316 1.372 . S
C317 C318 1.400 . S
C317 C322 1.490 . S
C318 H308 0.930 . S
C318 C317 1.400 . S
C318 C321 1.386 . S
H319 C335 0.930 . S
H320 C336 0.931 . S
C321 H309 0.929 . S
C321 C315 1.390 . S
C321 C318 1.386 . S
C322 C317 1.490 . S
C322 C324 1.395 . S
C322 C325 1.403 . S
H323 C329 0.930 . S
C324 H310 0.930 . S
C324 C322 1.395 . S
C324 C327 1.403 . S
C325 C322 1.403 . S
C325 C326 1.524 . S
C325 C329 1.400 . S
C326 H311 0.960 . S
C326 H312 0.960 . S
C326 H313 0.960 . S
C326 C325 1.524 . S
C327 C324 1.403 . S
C327 C328 1.392 . S
C327 C331 1.495 . S
C328 C327 1.392 . S
C328 C329 1.385 . S
C328 C330 1.478 . S
C329 H323 0.930 . S
C329 C325 1.400 . S
C329 C328 1.385 . S
C330 C328 1.478 . S
C330 C332 1.381 . S
C330 C336 1.383 . S
C331 C327 1.495 . S
C331 H337 0.959 . S
C331 H338 0.961 . S
C331 H339 0.960 . S
C332 C330 1.381 . S
C332 C333 1.394 . S
C332 H340 0.930 . S
C333 C332 1.394 . S
C333 C334 1.383 . S
C333 H341 0.929 . S
C334 C333 1.383 . S
C334 C335 1.377 . S
C335 H319 0.930 . S
C335 C334 1.377 . S
C335 C336 1.379 . S
C336 H320 0.931 . S
C336 C330 1.383 . S
C336 C335 1.379 . S
H337 C331 0.959 . S
H338 C331 0.961 . S
H339 C331 0.960 . S
H340 C332 0.930 . S
H341 C333 0.929 . S
H342 C350 0.929 . S
H343 C352 0.930 . S
H344 C354 0.930 . S
H345 C357 0.929 . S
H346 C360 0.930 . S
H347 C362 0.960 . S
H348 C362 0.960 . S
H349 C362 0.960 . S
C350 H342 0.929 . S
C350 C351 1.377 . S
C350 C352 1.384 . S
C351 C350 1.377 . S
C351 C357 1.390 . S
C352 H343 0.930 . S
C352 C350 1.384 . S
C352 C353 1.372 . S
C353 C352 1.372 . S
C353 C354 1.400 . S
C353 C358 1.490 . S
C354 H344 0.930 . S
C354 C353 1.400 . S
C354 C357 1.386 . S
H355 C371 0.930 . S
H356 C372 0.931 . S
C357 H345 0.929 . S
C357 C351 1.390 . S
C357 C354 1.386 . S
C358 C353 1.490 . S
C358 C360 1.395 . S
C358 C361 1.403 . S
H359 C365 0.930 . S
C360 H346 0.930 . S
C360 C358 1.395 . S
C360 C363 1.403 . S
C361 C358 1.403 . S
C361 C362 1.524 . S
C361 C365 1.400 . S
C362 H347 0.960 . S
C362 H348 0.960 . S
C362 H349 0.960 . S
C362 C361 1.524 . S
C363 C360 1.403 . S
C363 C364 1.392 . S
C363 C367 1.495 . S
C364 C363 1.392 . S
C364 C365 1.385 . S
C364 C366 1.478 . S
C365 H359 0.930 . S
C365 C361 1.400 . S
C365 C364 1.385 . S
C366 C364 1.478 . S
C366 C368 1.381 . S
C366 C372 1.383 . S
C367 C363 1.495 . S
C367 H373 0.959 . S
C367 H374 0.961 . S
C367 H375 0.960 . S
C368 C366 1.381 . S
C368 C369 1.394 . S
C368 H376 0.930 . S
C369 C368 1.394 . S
C369 C370 1.383 . S
C369 H377 0.929 . S
C370 C369 1.383 . S
C370 C371 1.377 . S
C371 H355 0.930 . S
C371 C370 1.377 . S
C371 C372 1.379 . S
C372 H356 0.931 . S
C372 C366 1.383 . S
C372 C371 1.379 . S
H373 C367 0.959 . S
H374 C367 0.961 . S
H375 C367 0.960 . S
H376 C368 0.930 . S
H377 C369 0.929 . S
H378 C386 0.929 . S
H379 C388 0.930 . S
H380 C390 0.930 . S
H381 C393 0.929 . S
H382 C396 0.930 . S
H383 C398 0.960 . S
H384 C398 0.960 . S
H385 C398 0.960 . S
C386 H378 0.929 . S
C386 C387 1.377 . S
C386 C388 1.384 . S
C387 C386 1.377 . S
C387 C393 1.390 . S
C388 H379 0.930 . S
C388 C386 1.384 . S
C388 C389 1.372 . S
C389 C388 1.372 . S
C389 C390 1.400 . S
C389 C394 1.490 . S
C390 H380 0.930 . S
C390 C389 1.400 . S
C390 C393 1.386 . S
H391 C407 0.930 . S
H392 C408 0.931 . S
C393 H381 0.929 . S
C393 C387 1.390 . S
C393 C390 1.386 . S
C394 C389 1.490 . S
C394 C396 1.395 . S
C394 C397 1.403 . S
H395 C401 0.930 . S
C396 H382 0.930 . S
C396 C394 1.395 . S
C396 C399 1.403 . S
C397 C394 1.403 . S
C397 C398 1.524 . S
C397 C401 1.400 . S
C398 H383 0.960 . S
C398 H384 0.960 . S
C398 H385 0.960 . S
C398 C397 1.524 . S
C399 C396 1.403 . S
C399 C400 1.392 . S
C399 C403 1.495 . S
C400 C399 1.392 . S
C400 C401 1.385 . S
C400 C402 1.478 . S
C401 H395 0.930 . S
C401 C397 1.400 . S
C401 C400 1.385 . S
C402 C400 1.478 . S
C402 C404 1.381 . S
C402 C408 1.383 . S
C403 C399 1.495 . S
C403 H409 0.959 . S
C403 H410 0.961 . S
C403 H411 0.960 . S
C404 C402 1.381 . S
C404 C405 1.394 . S
C404 H412 0.930 . S
C405 C404 1.394 . S
C405 C406 1.383 . S
C405 H413 0.929 . S
C406 C405 1.383 . S
C406 C407 1.377 . S
C407 H391 0.930 . S
C407 C406 1.377 . S
C407 C408 1.379 . S
C408 H392 0.931 . S
C408 C402 1.383 . S
C408 C407 1.379 . S
H409 C403 0.959 . S
H410 C403 0.961 . S
H411 C403 0.960 . S
H412 C404 0.930 . S
H413 C405 0.929 . S
H414 C422 0.929 . S
H415 C424 0.930 . S
H416 C426 0.930 . S
H417 C429 0.929 . S
H418 C432 0.930 . S
H419 C434 0.960 . S
H420 C434 0.960 . S
H421 C434 0.960 . S
C422 H414 0.929 . S
C422 C423 1.377 . S
C422 C424 1.384 . S
C423 C422 1.377 . S
C423 C429 1.390 . S
C424 H415 0.930 . S
C424 C422 1.384 . S
C424 C425 1.372 . S
C425 C424 1.372 . S
C425 C426 1.400 . S
C425 C430 1.490 . S
C426 H416 0.930 . S
C426 C425 1.400 . S
C426 C429 1.386 . S
H427 C443 0.930 . S
H428 C444 0.931 . S
C429 H417 0.929 . S
C429 C423 1.390 . S
C429 C426 1.386 . S
C430 C425 1.490 . S
C430 C432 1.395 . S
C430 C433 1.403 . S
H431 C437 0.930 . S
C432 H418 0.930 . S
C432 C430 1.395 . S
C432 C435 1.403 . S
C433 C430 1.403 . S
C433 C434 1.524 . S
C433 C437 1.400 . S
C434 H419 0.960 . S
C434 H420 0.960 . S
C434 H421 0.960 . S
C434 C433 1.524 . S
C435 C432 1.403 . S
C435 C436 1.392 . S
C435 C439 1.495 . S
C436 C435 1.392 . S
C436 C437 1.385 . S
C436 C438 1.478 . S
C437 H431 0.930 . S
C437 C433 1.400 . S
C437 C436 1.385 . S
C438 C436 1.478 . S
C438 C440 1.381 . S
C438 C444 1.383 . S
C439 C435 1.495 . S
C439 H445 0.959 . S
C439 H446 0.961 . S
C439 H447 0.960 . S
C440 C438 1.381 . S
C440 C441 1.394 . S
C440 H448 0.930 . S
C441 C440 1.394 . S
C441 C442 1.383 . S
C441 H449 0.929 . S
C442 C441 1.383 . S
C442 C443 1.377 . S
C443 H427 0.930 . S
C443 C442 1.377 . S
C443 C444 1.379 . S
C444 H428 0.931 . S
C444 C438 1.383 . S
C444 C443 1.379 . S
H445 C439 0.959 . S
H446 C439 0.961 . S
H447 C439 0.960 . S
H448 C440 0.930 . S
H449 C441 0.929 . S
H450 C458 0.929 . S
H451 C460 0.930 . S
H452 C462 0.930 . S
H453 C465 0.929 . S
H454 C468 0.930 . S
H455 C470 0.960 . S
H456 C470 0.960 . S
H457 C470 0.960 . S
C458 H450 0.929 . S
C458 C459 1.377 . S
C458 C460 1.384 . S
C459 C458 1.377 . S
C459 C465 1.390 . S
C460 H451 0.930 . S
C460 C458 1.384 . S
C460 C461 1.372 . S
C461 C460 1.372 . S
C461 C462 1.400 . S
C461 C466 1.490 . S
C462 H452 0.930 . S
C462 C461 1.400 . S
C462 C465 1.386 . S
H463 C479 0.930 . S
H464 C480 0.931 . S
C465 H453 0.929 . S
C465 C459 1.390 . S
C465 C462 1.386 . S
C466 C461 1.490 . S
C466 C468 1.395 . S
C466 C469 1.403 . S
H467 C473 0.930 . S
C468 H454 0.930 . S
C468 C466 1.395 . S
C468 C471 1.403 . S
C469 C466 1.403 . S
C469 C470 1.524 . S
C469 C473 1.400 . S
C470 H455 0.960 . S
C470 H456 0.960 . S
C470 H457 0.960 . S
C470 C469 1.524 . S
C471 C468 1.403 . S
C471 C472 1.392 . S
C471 C475 1.495 . S
C472 C471 1.392 . S
C472 C473 1.385 . S
C472 C474 1.478 . S
C473 H467 0.930 . S
C473 C469 1.400 . S
C473 C472 1.385 . S
C474 C472 1.478 . S
C474 C476 1.381 . S
C474 C480 1.383 . S
C475 C471 1.495 . S
C475 H481 0.959 . S
C475 H482 0.961 . S
C475 H483 0.960 . S
C476 C474 1.381 . S
C476 C477 1.394 . S
C476 H484 0.930 . S
C477 C476 1.394 . S
C477 C478 1.383 . S
C477 H485 0.929 . S
C478 C477 1.383 . S
C478 C479 1.377 . S
C479 H463 0.930 . S
C479 C478 1.377 . S
C479 C480 1.379 . S
C480 H464 0.931 . S
C480 C474 1.383 . S
C480 C479 1.379 . S
H481 C475 0.959 . S
H482 C475 0.961 . S
H483 C475 0.960 . S
H484 C476 0.930 . S
H485 C477 0.929 . S
H486 C494 0.929 . S
H487 C496 0.930 . S
H488 C498 0.930 . S
H489 C501 0.929 . S
H490 C504 0.930 . S
H491 C506 0.960 . S
H492 C506 0.960 . S
H493 C506 0.960 . S
C494 H486 0.929 . S
C494 C495 1.377 . S
C494 C496 1.384 . S
C495 C494 1.377 . S
C495 C501 1.390 . S
C496 H487 0.930 . S
C496 C494 1.384 . S
C496 C497 1.372 . S
C497 C496 1.372 . S
C497 C498 1.400 . S
C497 C502 1.490 . S
C498 H488 0.930 . S
C498 C497 1.400 . S
C498 C501 1.386 . S
H499 C515 0.930 . S
H500 C516 0.931 . S
C501 H489 0.929 . S
C501 C495 1.390 . S
C501 C498 1.386 . S
C502 C497 1.490 . S
C502 C504 1.395 . S
C502 C505 1.403 . S
H503 C509 0.930 . S
C504 H490 0.930 . S
C504 C502 1.395 . S
C504 C507 1.403 . S
C505 C502 1.403 . S
C505 C506 1.524 . S
C505 C509 1.400 . S
C506 H491 0.960 . S
C506 H492 0.960 . S
C506 H493 0.960 . S
C506 C505 1.524 . S
C507 C504 1.403 . S
C507 C508 1.392 . S
C507 C511 1.495 . S
C508 C507 1.392 . S
C508 C509 1.385 . S
C508 C510 1.478 . S
C509 H503 0.930 . S
C509 C505 1.400 . S
C509 C508 1.385 . S
C510 C508 1.478 . S
C510 C512 1.381 . S
C510 C516 1.383 . S
C511 C507 1.495 . S
C511 H517 0.959 . S
C511 H518 0.961 . S
C511 H519 0.960 . S
C512 C510 1.381 . S
C512 C513 1.394 . S
C512 H520 0.930 . S
C513 C512 1.394 . S
C513 C514 1.383 . S
C513 H521 0.929 . S
C514 C513 1.383 . S
C514 C515 1.377 . S
C515 H499 0.930 . S
C515 C514 1.377 . S
C515 C516 1.379 . S
C516 H500 0.931 . S
C516 C510 1.383 . S
C516 C515 1.379 . S
H517 C511 0.959 . S
H518 C511 0.961 . S
H519 C511 0.960 . S
H520 C512 0.930 . S
H521 C513 0.929 . S
H522 C530 0.929 . S
H523 C532 0.930 . S
H524 C534 0.930 . S
H525 C537 0.929 . S
H526 C540 0.930 . S
H527 C542 0.960 . S
H528 C542 0.960 . S
H529 C542 0.960 . S
C530 H522 0.929 . S
C530 C531 1.377 . S
C530 C532 1.384 . S
C531 C530 1.377 . S
C531 C537 1.390 . S
C532 H523 0.930 . S
C532 C530 1.384 . S
C532 C533 1.372 . S
C533 C532 1.372 . S
C533 C534 1.400 . S
C533 C538 1.490 . S
C534 H524 0.930 . S
C534 C533 1.400 . S
C534 C537 1.386 . S
H535 C551 0.930 . S
H536 C552 0.931 . S
C537 H525 0.929 . S
C537 C531 1.390 . S
C537 C534 1.386 . S
C538 C533 1.490 . S
C538 C540 1.395 . S
C538 C541 1.403 . S
H539 C545 0.930 . S
C540 H526 0.930 . S
C540 C538 1.395 . S
C540 C543 1.403 . S
C541 C538 1.403 . S
C541 C542 1.524 . S
C541 C545 1.400 . S
C542 H527 0.960 . S
C542 H528 0.960 . S
C542 H529 0.960 . S
C542 C541 1.524 . S
C543 C540 1.403 . S
C543 C544 1.392 . S
C543 C547 1.495 . S
C544 C543 1.392 . S
C544 C545 1.385 . S
C544 C546 1.478 . S
C545 H539 0.930 . S
C545 C541 1.400 . S
C545 C544 1.385 . S
C546 C544 1.478 . S
C546 C548 1.381 . S
C546 C552 1.383 . S
C547 C543 1.495 . S
C547 H553 0.959 . S
C547 H554 0.961 . S
C547 H555 0.960 . S
C548 C546 1.381 . S
C548 C549 1.394 . S
C548 H556 0.930 . S
C549 C548 1.394 . S
C549 C550 1.383 . S
C549 H557 0.929 . S
C550 C549 1.383 . S
C550 C551 1.377 . S
C551 H535 0.930 . S
C551 C550 1.377 . S
C551 C552 1.379 . S
C552 H536 0.931 . S
C552 C546 1.383 . S
C552 C551 1.379 . S
H553 C547 0.959 . S
H554 C547 0.961 . S
H555 C547 0.960 . S
H556 C548 0.930 . S
H557 C549 0.929 . S
H558 C566 0.929 . S
H559 C568 0.930 . S
H560 C570 0.930 . S
H561 C573 0.929 . S
H562 C576 0.930 . S
H563 C578 0.960 . S
H564 C578 0.960 . S
H565 C578 0.960 . S
C566 H558 0.929 . S
C566 C567 1.377 . S
C566 C568 1.384 . S
C567 C566 1.377 . S
C567 C573 1.390 . S
C568 H559 0.930 . S
C568 C566 1.384 . S
C568 C569 1.372 . S
C569 C568 1.372 . S
C569 C570 1.400 . S
C569 C574 1.490 . S
C570 H560 0.930 . S
C570 C569 1.400 . S
C570 C573 1.386 . S
H571 C587 0.930 . S
H572 C588 0.931 . S
C573 H561 0.929 . S
C573 C567 1.390 . S
C573 C570 1.386 . S
C574 C569 1.490 . S
C574 C576 1.395 . S
C574 C577 1.403 . S
H575 C581 0.930 . S
C576 H562 0.930 . S
C576 C574 1.395 . S
C576 C579 1.403 . S
C577 C574 1.403 . S
C577 C578 1.524 . S
C577 C581 1.400 . S
C578 H563 0.960 . S
C578 H564 0.960 . S
C578 H565 0.960 . S
C578 C577 1.524 . S
C579 C576 1.403 . S
C579 C580 1.392 . S
C579 C583 1.495 . S
C580 C579 1.392 . S
C580 C581 1.385 . S
C580 C582 1.478 . S
C581 H575 0.930 . S
C581 C577 1.400 . S
C581 C580 1.385 . S
C582 C580 1.478 . S
C582 C584 1.381 . S
C582 C588 1.383 . S
C583 C579 1.495 . S
C583 H589 0.959 . S
C583 H590 0.961 . S
C583 H591 0.960 . S
C584 C582 1.381 . S
C584 C585 1.394 . S
C584 H592 0.930 . S
C585 C584 1.394 . S
C585 C586 1.383 . S
C585 H593 0.929 . S
C586 C585 1.383 . S
C586 C587 1.377 . S
C587 H571 0.930 . S
C587 C586 1.377 . S
C587 C588 1.379 . S
C588 H572 0.931 . S
C588 C582 1.383 . S
C588 C587 1.379 . S
H589 C583 0.959 . S
H590 C583 0.961 . S
H591 C583 0.960 . S
H592 C584 0.930 . S
H593 C585 0.929 . S
H594 C602 0.929 . S
H595 C604 0.930 . S
H596 C606 0.930 . S
H597 C609 0.929 . S
H598 C612 0.930 . S
H599 C614 0.960 . S
H600 C614 0.960 . S
H601 C614 0.960 . S
C602 H594 0.929 . S
C602 C603 1.377 . S
C602 C604 1.384 . S
C603 C602 1.377 . S
C603 C609 1.390 . S
C604 H595 0.930 . S
C604 C602 1.384 . S
C604 C605 1.372 . S
C605 C604 1.372 . S
C605 C606 1.400 . S
C605 C610 1.490 . S
C606 H596 0.930 . S
C606 C605 1.400 . S
C606 C609 1.386 . S
H607 C623 0.930 . S
H608 C624 0.931 . S
C609 H597 0.929 . S
C609 C603 1.390 . S
C609 C606 1.386 . S
C610 C605 1.490 . S
C610 C612 1.395 . S
C610 C613 1.403 . S
H611 C617 0.930 . S
C612 H598 0.930 . S
C612 C610 1.395 . S
C612 C615 1.403 . S
C613 C610 1.403 . S
C613 C614 1.524 . S
C613 C617 1.400 . S
C614 H599 0.960 . S
C614 H600 0.960 . S
C614 H601 0.960 . S
C614 C613 1.524 . S
C615 C612 1.403 . S
C615 C616 1.392 . S
C615 C619 1.495 . S
C616 C615 1.392 . S
C616 C617 1.385 . S
C616 C618 1.478 . S
C617 H611 0.930 . S
C617 C613 1.400 . S
C617 C616 1.385 . S
C618 C616 1.478 . S
C618 C620 1.381 . S
C618 C624 1.383 . S
C619 C615 1.495 . S
C619 H625 0.959 . S
C619 H626 0.961 . S
C619 H627 0.960 . S
C620 C618 1.381 . S
C620 C621 1.394 . S
C620 H628 0.930 . S
C621 C620 1.394 . S
C621 C622 1.383 . S
C621 H629 0.929 . S
C622 C621 1.383 . S
C622 C623 1.377 . S
C623 H607 0.930 . S
C623 C622 1.377 . S
C623 C624 1.379 . S
C624 H608 0.931 . S
C624 C618 1.383 . S
C624 C623 1.379 . S
H625 C619 0.959 . S
H626 C619 0.961 . S
H627 C619 0.960 . S
H628 C620 0.930 . S
H629 C621 0.929 . S
H630 C638 0.929 . S
H631 C640 0.930 . S
H632 C642 0.930 . S
H633 C645 0.929 . S
H634 C648 0.930 . S
H635 C650 0.960 . S
H636 C650 0.960 . S
H637 C650 0.960 . S
C638 H630 0.929 . S
C638 C639 1.377 1_655 S
C638 C640 1.384 . S
C639 C638 1.377 1_455 S
C639 C645 1.390 . S
C640 H631 0.930 . S
C640 C638 1.384 . S
C640 C641 1.372 1_655 S
C641 C640 1.372 1_455 S
C641 C642 1.400 . S
C641 C646 1.490 . S
C642 H632 0.930 . S
C642 C641 1.400 . S
C642 C645 1.386 . S
H643 C659 0.930 . S
H644 C660 0.931 . S
C645 H633 0.929 . S
C645 C639 1.390 . S
C645 C642 1.386 . S
C646 C641 1.490 . S
C646 C648 1.395 . S
C646 C649 1.403 1_455 S
H647 C653 0.930 1_655 S
C648 H634 0.930 . S
C648 C646 1.395 . S
C648 C651 1.403 . S
C649 C646 1.403 1_655 S
C649 C650 1.524 . S
C649 C653 1.400 1_654 S
C650 H635 0.960 . S
C650 H636 0.960 . S
C650 H637 0.960 . S
C650 C649 1.524 . S
C651 C648 1.403 . S
C651 C652 1.392 1_554 S
C651 C655 1.495 1_554 S
C652 C651 1.392 1_556 S
C652 C653 1.385 . S
C652 C654 1.478 . S
C653 H647 0.930 1_455 S
C653 C649 1.400 1_456 S
C653 C652 1.385 . S
C654 C652 1.478 . S
C654 C656 1.381 . S
C654 C660 1.383 . S
C655 C651 1.495 1_556 S
C655 H661 0.959 1_556 S
C655 H662 0.961 . S
C655 H663 0.960 . S
C656 C654 1.381 . S
C656 C657 1.394 . S
C656 H664 0.930 1_455 S
C657 C656 1.394 . S
C657 C658 1.383 . S
C657 H665 0.929 1_455 S
C658 C657 1.383 . S
C658 C659 1.377 . S
C659 H643 0.930 . S
C659 C658 1.377 . S
C659 C660 1.379 . S
C660 H644 0.931 . S
C660 C654 1.383 . S
C660 C659 1.379 . S
H661 C655 0.959 1_554 S
H662 C655 0.961 . S
H663 C655 0.960 . S
H664 C656 0.930 1_655 S
H665 C657 0.929 1_655 S
H666 C674 0.929 . S
H667 C676 0.930 . S
H668 C678 0.930 . S
H669 C681 0.929 . S
H670 C684 0.930 . S
H671 C686 0.960 . S
H672 C686 0.960 . S
H673 C686 0.960 . S
C674 H666 0.929 . S
C674 C675 1.377 . S
C674 C676 1.384 . S
C675 C674 1.377 . S
C675 C681 1.390 . S
C676 H667 0.930 . S
C676 C674 1.384 . S
C676 C677 1.372 . S
C677 C676 1.372 . S
C677 C678 1.400 . S
C677 C682 1.490 . S
C678 H668 0.930 . S
C678 C677 1.400 . S
C678 C681 1.386 . S
H679 C695 0.938 . S
H680 C696 0.931 . S
C681 H669 0.929 . S
C681 C675 1.390 . S
C681 C678 1.386 . S
C682 C677 1.490 . S
C682 C684 1.395 . S
C682 C685 1.403 . S
H683 C689 0.930 1_565 S
C684 H670 0.930 . S
C684 C682 1.395 . S
C684 C687 1.403 . S
C685 C682 1.403 . S
C685 C686 1.524 1_545 S
C685 C689 1.400 . S
C686 H671 0.960 . S
C686 H672 0.960 . S
C686 H673 0.960 . S
C686 C685 1.524 1_565 S
C687 C684 1.403 . S
C687 C688 1.392 . S
C687 C691 1.495 . S
C688 C687 1.392 . S
C688 C689 1.385 . S
C688 C690 1.478 . S
C689 H683 0.930 1_545 S
C689 C685 1.400 . S
C689 C688 1.385 . S
C690 C688 1.478 . S
C690 C692 1.381 . S
C690 C696 1.383 . S
C691 C687 1.495 . S
C691 H697 0.959 . S
C691 H698 0.961 . S
C691 H699 0.960 . S
C692 C690 1.381 . S
C692 C693 1.394 . S
C692 H700 0.930 . S
C693 C692 1.394 . S
C693 C694 1.383 . S
C693 H701 0.929 . S
C694 C693 1.383 . S
C694 C695 1.377 . S
C695 H679 0.938 . S
C695 C694 1.377 . S
C695 C696 1.379 . S
C696 H680 0.931 . S
C696 C690 1.383 . S
C696 C695 1.379 . S
H697 C691 0.959 . S
H698 C691 0.961 . S
H699 C691 0.960 . S
H700 C692 0.930 . S
H701 C693 0.929 . S
H702 C710 0.929 . S
H703 C712 0.930 . S
H704 C714 0.930 . S
H705 C717 0.929 . S
H706 C720 0.930 . S
H707 C722 0.960 . S
H708 C722 0.960 . S
H709 C722 0.960 . S
C710 H702 0.929 . S
C710 C711 1.377 . S
C710 C712 1.384 . S
C711 C710 1.377 . S
C711 C717 1.390 . S
C712 H703 0.930 . S
C712 C710 1.384 . S
C712 C713 1.372 . S
C713 C712 1.372 . S
C713 C714 1.400 . S
C713 C718 1.490 . S
C714 H704 0.930 . S
C714 C713 1.400 . S
C714 C717 1.386 . S
H715 C731 0.930 . S
H716 C732 0.931 . S
C717 H705 0.929 . S
C717 C711 1.390 . S
C717 C714 1.386 . S
C718 C713 1.490 . S
C718 C720 1.395 . S
C718 C721 1.403 . S
H719 C725 0.930 . S
C720 H706 0.930 . S
C720 C718 1.395 . S
C720 C723 1.403 . S
C721 C718 1.403 . S
C721 C722 1.524 . S
C721 C725 1.400 . S
C722 H707 0.960 . S
C722 H708 0.960 . S
C722 H709 0.960 . S
C722 C721 1.524 . S
C723 C720 1.403 . S
C723 C724 1.392 . S
C723 C727 1.495 . S
C724 C723 1.392 . S
C724 C725 1.385 . S
C724 C726 1.478 . S
C725 H719 0.930 . S
C725 C721 1.400 . S
C725 C724 1.385 . S
C726 C724 1.478 . S
C726 C728 1.381 . S
C726 C732 1.383 . S
C727 C723 1.495 . S
C727 H733 0.959 . S
C727 H734 0.961 . S
C727 H735 0.960 . S
C728 C726 1.381 . S
C728 C729 1.394 . S
C728 H736 0.930 . S
C729 C728 1.394 . S
C729 C730 1.383 . S
C729 H737 0.929 . S
C730 C729 1.383 . S
C730 C731 1.377 . S
C731 H715 0.930 . S
C731 C730 1.377 . S
C731 C732 1.379 . S
C732 H716 0.931 . S
C732 C726 1.383 . S
C732 C731 1.379 . S
H733 C727 0.959 . S
H734 C727 0.961 . S
H735 C727 0.960 . S
H736 C728 0.930 . S
H737 C729 0.929 . S
H738 C746 0.923 1_565 S
H739 C748 0.930 1_565 S
H740 C750 0.930 . S
H741 C753 0.929 . S
H742 C756 0.930 1_565 S
H743 C758 0.960 . S
H744 C758 0.960 . S
H745 C758 0.960 . S
C746 H738 0.923 1_545 S
C746 C747 1.377 . S
C746 C748 1.384 . S
C747 C746 1.377 . S
C747 C753 1.390 . S
C748 H739 0.930 1_545 S
C748 C746 1.384 . S
C748 C749 1.372 . S
C749 C748 1.372 . S
C749 C750 1.400 . S
C749 C754 1.490 . S
C750 H740 0.930 . S
C750 C749 1.400 . S
C750 C753 1.386 . S
H751 C767 0.930 . S
H752 C768 0.931 . S
C753 H741 0.929 . S
C753 C747 1.390 . S
C753 C750 1.386 . S
C754 C749 1.490 . S
C754 C756 1.395 . S
C754 C757 1.403 . S
H755 C761 0.930 . S
C756 H742 0.930 1_545 S
C756 C754 1.395 . S
C756 C759 1.403 . S
C757 C754 1.403 . S
C757 C758 1.524 . S
C757 C761 1.400 . S
C758 H743 0.960 . S
C758 H744 0.960 . S
C758 H745 0.960 . S
C758 C757 1.524 . S
C759 C756 1.403 . S
C759 C760 1.392 . S
C759 C763 1.495 1_545 S
C760 C759 1.392 . S
C760 C761 1.385 . S
C760 C762 1.478 . S
C761 H755 0.930 . S
C761 C757 1.400 . S
C761 C760 1.385 . S
C762 C760 1.478 . S
C762 C764 1.381 . S
C762 C768 1.383 . S
C763 C759 1.495 1_565 S
C763 H769 0.959 . S
C763 H770 0.961 . S
C763 H771 0.960 . S
C764 C762 1.381 . S
C764 C765 1.394 . S
C764 H772 0.930 1_545 S
C765 C764 1.394 . S
C765 C766 1.383 . S
C765 H773 0.929 1_545 S
C766 C765 1.383 . S
C766 C767 1.377 . S
C767 H751 0.930 . S
C767 C766 1.377 . S
C767 C768 1.379 . S
C768 H752 0.931 . S
C768 C762 1.383 . S
C768 C767 1.379 . S
H769 C763 0.959 . S
H770 C763 0.961 . S
H771 C763 0.960 . S
H772 C764 0.930 1_565 S
H773 C765 0.929 1_565 S
H774 C782 0.929 . S
H775 C784 0.930 . S
H776 C786 0.930 . S
H777 C789 0.929 . S
H778 C792 0.930 . S
H779 C794 0.960 . S
H780 C794 0.960 . S
H781 C794 0.960 . S
C782 H774 0.929 . S
C782 C783 1.377 . S
C782 C784 1.384 . S
C783 C782 1.377 . S
C783 C789 1.390 . S
C784 H775 0.930 . S
C784 C782 1.384 . S
C784 C785 1.372 . S
C785 C784 1.372 . S
C785 C786 1.400 . S
C785 C790 1.490 . S
C786 H776 0.930 . S
C786 C785 1.400 . S
C786 C789 1.386 . S
H787 C803 0.930 . S
H788 C804 0.931 . S
C789 H777 0.929 . S
C789 C783 1.390 . S
C789 C786 1.386 . S
C790 C785 1.490 . S
C790 C792 1.395 . S
C790 C793 1.403 . S
H791 C797 0.930 . S
C792 H778 0.930 . S
C792 C790 1.395 . S
C792 C795 1.403 . S
C793 C790 1.403 . S
C793 C794 1.524 . S
C793 C797 1.400 1_556 S
C794 H779 0.960 . S
C794 H780 0.960 . S
C794 H781 0.960 . S
C794 C793 1.524 . S
C795 C792 1.403 . S
C795 C796 1.392 1_556 S
C795 C799 1.495 1_556 S
C796 C795 1.392 1_554 S
C796 C797 1.385 . S
C796 C798 1.478 . S
C797 H791 0.930 . S
C797 C793 1.400 1_554 S
C797 C796 1.385 . S
C798 C796 1.478 . S
C798 C800 1.381 . S
C798 C804 1.383 . S
C799 C795 1.495 1_554 S
C799 H805 0.959 1_554 S
C799 H806 0.961 . S
C799 H807 0.960 . S
C800 C798 1.381 . S
C800 C801 1.394 . S
C800 H808 0.930 . S
C801 C800 1.394 . S
C801 C802 1.383 . S
C801 H809 0.929 . S
C802 C801 1.383 . S
C802 C803 1.377 . S
C803 H787 0.930 . S
C803 C802 1.377 . S
C803 C804 1.379 . S
C804 H788 0.931 . S
C804 C798 1.383 . S
C804 C803 1.379 . S
H805 C799 0.959 1_556 S
H806 C799 0.961 . S
H807 C799 0.960 . S
H808 C800 0.930 . S
H809 C801 0.929 . S
H810 C818 0.929 . S
H811 C820 0.930 . S
H812 C822 0.949 . S
H813 C825 0.929 . S
H814 C828 0.930 . S
H815 C830 0.960 . S
H816 C830 0.960 . S
H817 C830 0.960 . S
C818 H810 0.929 . S
C818 C819 1.377 . S
C818 C820 1.384 . S
C819 C818 1.377 . S
C819 C825 1.390 1_455 S
C820 H811 0.930 . S
C820 C818 1.384 . S
C820 C821 1.372 . S
C821 C820 1.372 . S
C821 C822 1.384 1_455 S
C821 C826 1.490 . S
C822 H812 0.949 . S
C822 C821 1.384 1_655 S
C822 C825 1.383 . S
H823 C839 0.930 . S
H824 C840 0.931 . S
C825 H813 0.929 . S
C825 C819 1.390 1_655 S
C825 C822 1.383 . S
C826 C821 1.490 . S
C826 C828 1.395 . S
C826 C829 1.403 1_455 S
H827 C833 0.930 . S
C828 H814 0.930 . S
C828 C826 1.395 . S
C828 C831 1.403 . S
C829 C826 1.403 1_655 S
C829 C830 1.524 . S
C829 C833 1.400 . S
C830 H815 0.960 . S
C830 H816 0.960 . S
C830 H817 0.960 . S
C830 C829 1.524 . S
C831 C828 1.403 . S
C831 C832 1.392 . S
C831 C835 1.495 . S
C832 C831 1.392 . S
C832 C833 1.385 1_455 S
C832 C834 1.478 . S
C833 H827 0.930 . S
C833 C829 1.400 . S
C833 C832 1.385 1_655 S
C834 C832 1.478 . S
C834 C836 1.381 . S
C834 C840 1.383 . S
C835 C831 1.495 . S
C835 H841 0.959 . S
C835 H842 0.961 . S
C835 H843 0.960 . S
C836 C834 1.381 . S
C836 C837 1.394 . S
C836 H844 0.930 . S
C837 C836 1.394 . S
C837 C838 1.383 . S
C837 H845 0.929 . S
C838 C837 1.383 . S
C838 C839 1.377 . S
C839 H823 0.930 . S
C839 C838 1.377 . S
C839 C840 1.379 . S
C840 H824 0.931 . S
C840 C834 1.383 . S
C840 C839 1.379 . S
H841 C835 0.959 . S
H842 C835 0.961 . S
H843 C835 0.960 . S
H844 C836 0.930 . S
H845 C837 0.929 . S
C207 C9 0.244 . S
C226 N187 0.198 . S
C243 C49 0.179 . S
C262 N160 0.154 . S
C279 C89 0.163 . S
C298 N173 0.239 . S
C315 C26 0.565 . S
C334 N186 0.499 . S
C370 N161 0.494 . S
C351 C66 0.534 . S
C406 N174 0.437 . S
C387 C106 0.503 . S
C423 C43 2.789 . S
C442 N134 2.786 . S
C459 C83 2.695 . S
C478 N148 2.652 . S
C495 C22 3.148 . S
C514 N122 3.105 . S
C550 N135 3.125 . S
C531 C62 3.153 . S
C586 N147 3.306 . S
C567 C102 3.297 . S
C603 C3 2.789 . S
C622 N121 2.790 . S
C658 N151 1.759 . S
C639 C15 1.740 . S
C675 C55 1.700 . S
C694 N125 1.777 . S
C711 C95 1.696 . S
C730 N138 1.739 . S
C766 N177 1.292 . S
C747 C42 1.281 . S
C802 N190 1.232 . S
C783 C82 1.245 . S
C819 C2 1.277 . S
C838 N164 1.255 . S
