# Generated by pormake.
# Topology apo, (3,6)-cn, num edge types: 1
# Building blocks:
#     Node 0, Type 0, BuildingBlock: KAKCAD_clean_linker_0, # of connection points: 3
#     Node 1, Type 0, BuildingBlock: KAKCAD_clean_linker_0, # of connection points: 3
#     Node 2, Type 0, BuildingBlock: KAKCAD_clean_linker_0, # of connection points: 3
#     Node 3, Type 0, BuildingBlock: KAKCAD_clean_linker_0, # of connection points: 3
#     Node 4, Type 0, BuildingBlock: KAKCAD_clean_linker_0, # of connection points: 3
#     Node 5, Type 0, BuildingBlock: KAKCAD_clean_linker_0, # of connection points: 3
#     Node 6, Type 0, BuildingBlock: KAKCAD_clean_linker_0, # of connection points: 3
#     Node 7, Type 0, BuildingBlock: KAKCAD_clean_linker_0, # of connection points: 3
#     Node 8, Type 1, BuildingBlock: KUMBUR_clean_sbu_1, # of connection points: 6
#     Node 9, Type 1, BuildingBlock: KUMBUR_clean_sbu_1, # of connection points: 6
#     Node 10, Type 1, BuildingBlock: KUMBUR_clean_sbu_1, # of connection points: 6
#     Node 11, Type 1, BuildingBlock: KUMBUR_clean_sbu_1, # of connection points: 6
#     Edge 12, Type (0, 1), BuildingBlock: ZUJKAS_clean_linker_0, # of connection points: 2
#     Edge 13, Type (0, 1), BuildingBlock: ZUJKAS_clean_linker_0, # of connection points: 2
#     Edge 14, Type (0, 1), BuildingBlock: ZUJKAS_clean_linker_0, # of connection points: 2
#     Edge 15, Type (0, 1), BuildingBlock: ZUJKAS_clean_linker_0, # of connection points: 2
#     Edge 16, Type (0, 1), BuildingBlock: ZUJKAS_clean_linker_0, # of connection points: 2
#     Edge 17, Type (0, 1), BuildingBlock: ZUJKAS_clean_linker_0, # of connection points: 2
#     Edge 18, Type (0, 1), BuildingBlock: ZUJKAS_clean_linker_0, # of connection points: 2
#     Edge 19, Type (0, 1), BuildingBlock: ZUJKAS_clean_linker_0, # of connection points: 2
#     Edge 20, Type (0, 1), BuildingBlock: ZUJKAS_clean_linker_0, # of connection points: 2
#     Edge 21, Type (0, 1), BuildingBlock: ZUJKAS_clean_linker_0, # of connection points: 2
#     Edge 22, Type (0, 1), BuildingBlock: ZUJKAS_clean_linker_0, # of connection points: 2
#     Edge 23, Type (0, 1), BuildingBlock: ZUJKAS_clean_linker_0, # of connection points: 2
#     Edge 24, Type (0, 1), BuildingBlock: ZUJKAS_clean_linker_0, # of connection points: 2
#     Edge 25, Type (0, 1), BuildingBlock: ZUJKAS_clean_linker_0, # of connection points: 2
#     Edge 26, Type (0, 1), BuildingBlock: ZUJKAS_clean_linker_0, # of connection points: 2
#     Edge 27, Type (0, 1), BuildingBlock: ZUJKAS_clean_linker_0, # of connection points: 2
#     Edge 28, Type (0, 1), BuildingBlock: ZUJKAS_clean_linker_0, # of connection points: 2
#     Edge 29, Type (0, 1), BuildingBlock: ZUJKAS_clean_linker_0, # of connection points: 2
#     Edge 30, Type (0, 1), BuildingBlock: ZUJKAS_clean_linker_0, # of connection points: 2
#     Edge 31, Type (0, 1), BuildingBlock: ZUJKAS_clean_linker_0, # of connection points: 2
#     Edge 32, Type (0, 1), BuildingBlock: ZUJKAS_clean_linker_0, # of connection points: 2
#     Edge 33, Type (0, 1), BuildingBlock: ZUJKAS_clean_linker_0, # of connection points: 2
#     Edge 34, Type (0, 1), BuildingBlock: ZUJKAS_clean_linker_0, # of connection points: 2
#     Edge 35, Type (0, 1), BuildingBlock: ZUJKAS_clean_linker_0, # of connection points: 2
# Relax obj value: 0.010
# Max RMSD: 0.087
# Mean RMSD: 0.069
data_MOF--net-apo--node1-KUMBUR_clean_sbu_1--node2-KAKCAD_clean_linker_0--edge1-ZUJKAS_clean_linker_0
_symmetry_space_group_name_H-M    P1
_symmetry_Int_Tables_number       1
_symmetry_cell_setting            triclinic
loop_
_symmetry_equiv_pos_as_xyz
'x, y, z'
_cell_length_a     36.277454
_cell_length_b     65.2907
_cell_length_c     77.24418
_cell_angle_alpha  90.007643
_cell_angle_beta   89.963926
_cell_angle_gamma 90.346118
loop_
_atom_site_label
_atom_site_type_symbol
_atom_site_fract_x
_atom_site_fract_y
_atom_site_fract_z
_atom_type_partial_charge
C0 C 0.28793 0.44538 0.38053 0.0
C1 C 0.324 0.45288 0.38286 0.0
C2 C 0.27514 0.42861 0.39008 0.0
C3 C 0.2981 0.41893 0.40219 0.0
C4 C 0.33401 0.4266 0.4047 0.0
C5 C 0.34681 0.44338 0.39514 0.0
C6 C 0.28495 0.40062 0.41189 0.0
C7 C 0.26475 0.38522 0.40339 0.0
C8 C 0.25269 0.36761 0.41227 0.0
C9 C 0.26145 0.36546 0.42993 0.0
C10 C 0.28193 0.38066 0.43865 0.0
C11 C 0.29323 0.39825 0.42952 0.0
C12 C 0.29214 0.37818 0.4572 0.0
C13 C 0.26689 0.3701 0.46926 0.0
C14 C 0.32734 0.38412 0.46302 0.0
C15 C 0.33692 0.3823 0.48045 0.0
C16 C 0.31166 0.37433 0.49256 0.0
C17 C 0.23205 0.3513 0.40279 0.0
C18 C 0.20572 0.35651 0.39019 0.0
C19 C 0.23956 0.33047 0.40568 0.0
C20 C 0.22189 0.31527 0.3959 0.0
C21 C 0.19642 0.32056 0.38296 0.0
C22 C 0.18823 0.34134 0.38037 0.0
C23 C 0.27654 0.3682 0.48673 0.0
H24 H 0.26944 0.45257 0.37139 0.0
H25 H 0.24714 0.42328 0.38804 0.0
H26 H 0.35257 0.41932 0.41375 0.0
H27 H 0.3749 0.44859 0.39709 0.0
H28 H 0.25947 0.38665 0.38964 0.0
H29 H 0.30808 0.41032 0.43622 0.0
H30 H 0.25262 0.35186 0.43685 0.0
H31 H 0.23945 0.36554 0.46526 0.0
H32 H 0.34768 0.39015 0.45407 0.0
H33 H 0.36403 0.38745 0.48447 0.0
H34 H 0.19868 0.37236 0.38786 0.0
H35 H 0.25999 0.32589 0.41512 0.0
H36 H 0.25652 0.36181 0.49566 0.0
H37 H 0.16823 0.3459 0.37072 0.0
H38 H 0.22905 0.29941 0.39812 0.0
C39 C 0.22512 0.05857 0.87774 0.0
C40 C 0.18989 0.0502 0.88058 0.0
C41 C 0.2372 0.07552 0.88726 0.0
C42 C 0.21416 0.08458 0.89972 0.0
C43 C 0.17881 0.07621 0.90246 0.0
C44 C 0.1669 0.05915 0.89306 0.0
C45 C 0.22691 0.10265 0.90985 0.0
C46 C 0.24794 0.11819 0.90196 0.0
C47 C 0.26015 0.13533 0.91145 0.0
C48 C 0.25065 0.13688 0.92907 0.0
C49 C 0.229 0.12166 0.93704 0.0
C50 C 0.21766 0.10454 0.92741 0.0
C51 C 0.21754 0.1236 0.95537 0.0
C52 C 0.24332 0.12853 0.96829 0.0
C53 C 0.18065 0.11997 0.96008 0.0
C54 C 0.16979 0.12105 0.97739 0.0
C55 C 0.19566 0.1256 0.99037 0.0
C56 C 0.28165 0.15184 0.90269 0.0
C57 C 0.30816 0.14699 0.89006 0.0
C58 C 0.2748 0.17258 0.90632 0.0
C59 C 0.29332 0.18805 0.89724 0.0
C60 C 0.31896 0.18319 0.88422 0.0
C61 C 0.32644 0.16244 0.8809 0.0
C62 C 0.23252 0.12941 0.98565 0.0
H63 H 0.24354 0.05183 0.86831 0.0
H64 H 0.2648 0.08136 0.88501 0.0
H65 H 0.16005 0.083 0.9117 0.0
H66 H 0.13938 0.0532 0.89533 0.0
H67 H 0.25384 0.11725 0.88824 0.0
H68 H 0.20201 0.0925 0.93375 0.0
H69 H 0.25971 0.15 0.93656 0.0
H70 H 0.27196 0.13129 0.965 0.0
H71 H 0.16016 0.1163 0.95035 0.0
H72 H 0.14127 0.11791 0.98066 0.0
H73 H 0.31458 0.13119 0.88712 0.0
H74 H 0.25438 0.17691 0.91585 0.0
H75 H 0.25296 0.13313 0.99539 0.0
H76 H 0.34572 0.15806 0.87087 0.0
H77 H 0.2873 0.20385 0.90037 0.0
C78 C 0.78853 0.06169 0.63685 0.0
C79 C 0.82372 0.05334 0.63436 0.0
C80 C 0.77637 0.07786 0.62652 0.0
C81 C 0.79928 0.08616 0.61356 0.0
C82 C 0.83435 0.0776 0.61097 0.0
C83 C 0.84636 0.06132 0.6212 0.0
C84 C 0.7872 0.1041 0.60317 0.0
C85 C 0.7675 0.12005 0.61099 0.0
C86 C 0.75689 0.13739 0.60149 0.0
C87 C 0.76698 0.13889 0.58394 0.0
C88 C 0.78676 0.12304 0.57583 0.0
C89 C 0.7962 0.10561 0.58553 0.0
C90 C 0.79795 0.12456 0.5573 0.0
C91 C 0.77434 0.13323 0.5449 0.0
C92 C 0.83236 0.11705 0.55182 0.0
C93 C 0.84266 0.11793 0.53441 0.0
C94 C 0.81903 0.12655 0.52205 0.0
C95 C 0.73606 0.15398 0.61026 0.0
C96 C 0.70731 0.14905 0.62177 0.0
C97 C 0.74589 0.17466 0.60799 0.0
C98 C 0.72833 0.18999 0.61757 0.0
C99 C 0.70055 0.18495 0.62959 0.0
C100 C 0.68979 0.16433 0.63131 0.0
C101 C 0.78482 0.13427 0.52748 0.0
H102 H 0.77031 0.05565 0.64675 0.0
H103 H 0.74895 0.08382 0.62867 0.0
H104 H 0.85298 0.08381 0.60132 0.0
H105 H 0.8738 0.05535 0.61913 0.0
H106 H 0.76136 0.11931 0.6247 0.0
H107 H 0.81024 0.09302 0.57929 0.0
H108 H 0.75952 0.15242 0.57666 0.0
H109 H 0.74745 0.13888 0.54856 0.0
H110 H 0.85163 0.11067 0.56103 0.0
H111 H 0.86943 0.11215 0.53066 0.0
H112 H 0.6986 0.13329 0.62355 0.0
H113 H 0.76811 0.17893 0.59932 0.0
H114 H 0.76587 0.14083 0.51821 0.0
H115 H 0.66793 0.15995 0.64014 0.0
H116 H 0.73748 0.20571 0.61602 0.0
C117 C 0.71953 0.44265 0.13891 0.0
C118 C 0.68487 0.4514 0.13567 0.0
C119 C 0.73253 0.42658 0.12871 0.0
C120 C 0.71098 0.41852 0.11516 0.0
C121 C 0.6765 0.42742 0.11178 0.0
C122 C 0.66377 0.44374 0.1218 0.0
C123 C 0.72403 0.40062 0.10492 0.0
C124 C 0.744 0.38489 0.11296 0.0
C125 C 0.7562 0.3678 0.10356 0.0
C126 C 0.74747 0.36626 0.08587 0.0
C127 C 0.72708 0.38171 0.07763 0.0
C128 C 0.71597 0.39891 0.0872 0.0
C129 C 0.71661 0.37987 0.05911 0.0
C130 C 0.74236 0.3736 0.04661 0.0
C131 C 0.68061 0.38464 0.0538 0.0
C132 C 0.67057 0.38323 0.0364 0.0
C133 C 0.69631 0.37708 0.02387 0.0
C134 C 0.77722 0.35148 0.11255 0.0
C135 C 0.80485 0.35674 0.12453 0.0
C136 C 0.76863 0.33068 0.10999 0.0
C137 C 0.78635 0.31553 0.11969 0.0
C138 C 0.81305 0.32088 0.13213 0.0
C139 C 0.82254 0.34164 0.13419 0.0
C140 C 0.73235 0.37231 0.02915 0.0
H141 H 0.73648 0.44789 0.14958 0.0
H142 H 0.75952 0.42042 0.13153 0.0
H143 H 0.65888 0.42154 0.1016 0.0
H144 H 0.63726 0.45028 0.11865 0.0
H145 H 0.74919 0.38561 0.12676 0.0
H146 H 0.70137 0.41113 0.0807 0.0
H147 H 0.75627 0.35298 0.07857 0.0
H148 H 0.77037 0.36997 0.0503 0.0
H149 H 0.66005 0.38933 0.06315 0.0
H150 H 0.64269 0.38719 0.03273 0.0
H151 H 0.8126 0.37261 0.12656 0.0
H152 H 0.74726 0.32615 0.10096 0.0
H153 H 0.7527 0.36734 0.0198 0.0
H154 H 0.84357 0.34627 0.14337 0.0
H155 H 0.77819 0.29969 0.11787 0.0
C156 C 0.68241 0.57162 0.63902 0.0
C157 C 0.68497 0.55164 0.63232 0.0
C158 C 0.69539 0.58838 0.62954 0.0
C159 C 0.71121 0.58563 0.6131 0.0
C160 C 0.71365 0.56569 0.60633 0.0
C161 C 0.70071 0.54889 0.61584 0.0
C162 C 0.72493 0.60356 0.60306 0.0
C163 C 0.74434 0.61941 0.61139 0.0
C164 C 0.75648 0.63672 0.60219 0.0
C165 C 0.74936 0.63805 0.58434 0.0
C166 C 0.72974 0.62239 0.57577 0.0
C167 C 0.71781 0.60518 0.58525 0.0
C168 C 0.72034 0.62422 0.55709 0.0
C169 C 0.70771 0.64286 0.55025 0.0
C170 C 0.72265 0.60712 0.5461 0.0
C171 C 0.71212 0.60854 0.52874 0.0
C172 C 0.69894 0.62708 0.52194 0.0
C173 C 0.77547 0.65364 0.61149 0.0
C174 C 0.7606 0.66122 0.62699 0.0
C175 C 0.80861 0.66208 0.6052 0.0
C176 C 0.82682 0.67759 0.61445 0.0
C177 C 0.81185 0.68516 0.62996 0.0
C178 C 0.77848 0.67685 0.63608 0.0
C179 C 0.6971 0.64427 0.53288 0.0
H180 H 0.66979 0.57437 0.6515 0.0
H181 H 0.69247 0.60357 0.63499 0.0
H182 H 0.72606 0.56304 0.59377 0.0
H183 H 0.70355 0.5337 0.61037 0.0
H184 H 0.75041 0.61819 0.62509 0.0
H185 H 0.7017 0.59336 0.57888 0.0
H186 H 0.7586 0.65142 0.57721 0.0
H187 H 0.70509 0.65625 0.55843 0.0
H188 H 0.73277 0.59262 0.5509 0.0
H189 H 0.71464 0.5951 0.52062 0.0
H190 H 0.73495 0.6551 0.63207 0.0
H191 H 0.82075 0.65643 0.59332 0.0
H192 H 0.68668 0.65873 0.52815 0.0
H193 H 0.76646 0.68223 0.64808 0.0
H194 H 0.85242 0.68379 0.6094 0.0
C195 C 0.77355 0.8702 0.02899 0.0
C196 C 0.80918 0.87527 0.02314 0.0
C197 C 0.76456 0.87172 0.04657 0.0
C198 C 0.79088 0.87859 0.05862 0.0
C199 C 0.82652 0.88358 0.05277 0.0
C200 C 0.83561 0.88186 0.03525 0.0
C201 C 0.78121 0.88089 0.07722 0.0
C202 C 0.76209 0.86525 0.08606 0.0
C203 C 0.75414 0.86713 0.10382 0.0
C204 C 0.76472 0.88514 0.11254 0.0
C205 C 0.78358 0.90098 0.10392 0.0
C206 C 0.79181 0.89867 0.08626 0.0
C207 C 0.79535 0.91966 0.11354 0.0
C208 C 0.77187 0.92866 0.12584 0.0
C209 C 0.83058 0.92824 0.11094 0.0
C210 C 0.84231 0.94514 0.12067 0.0
C211 C 0.8191 0.95383 0.13324 0.0
C212 C 0.73589 0.85018 0.11355 0.0
C213 C 0.70581 0.83933 0.10651 0.0
C214 C 0.74825 0.84496 0.13022 0.0
C215 C 0.73055 0.82966 0.13978 0.0
C216 C 0.7 0.81908 0.13294 0.0
C217 C 0.68805 0.82394 0.11611 0.0
C218 C 0.78362 0.94551 0.13558 0.0
H219 H 0.75268 0.86494 0.01998 0.0
H220 H 0.73682 0.86788 0.05069 0.0
H221 H 0.84748 0.88874 0.06178 0.0
H222 H 0.86318 0.88606 0.03113 0.0
H223 H 0.75468 0.8513 0.07927 0.0
H224 H 0.80592 0.91092 0.07943 0.0
H225 H 0.75861 0.88673 0.12621 0.0
H226 H 0.74432 0.92268 0.12793 0.0
H227 H 0.84953 0.92154 0.10173 0.0
H228 H 0.86996 0.95102 0.11868 0.0
H229 H 0.69546 0.84306 0.09376 0.0
H230 H 0.77187 0.85266 0.13589 0.0
H231 H 0.76483 0.95207 0.14494 0.0
H232 H 0.66445 0.81618 0.1105 0.0
H233 H 0.74105 0.826 0.15252 0.0
C234 C 0.17801 0.93245 0.37639 0.0
C235 C 0.18464 0.95259 0.38211 0.0
C236 C 0.19024 0.91577 0.38603 0.0
C237 C 0.20924 0.9188 0.40166 0.0
C238 C 0.21549 0.93888 0.40755 0.0
C239 C 0.20339 0.95562 0.39784 0.0
C240 C 0.22264 0.90097 0.41168 0.0
C241 C 0.23984 0.88466 0.40314 0.0
C242 C 0.25176 0.86743 0.41233 0.0
C243 C 0.24648 0.86655 0.43032 0.0
C244 C 0.22869 0.88263 0.43907 0.0
C245 C 0.21724 0.89988 0.42964 0.0
C246 C 0.21974 0.88094 0.45779 0.0
C247 C 0.20598 0.86245 0.46459 0.0
C248 C 0.22286 0.89804 0.46879 0.0
C249 C 0.21169 0.8968 0.48608 0.0
C250 C 0.19709 0.87843 0.49275 0.0
C251 C 0.26871 0.8502 0.40285 0.0
C252 C 0.25061 0.84172 0.38845 0.0
C253 C 0.30356 0.8428 0.40754 0.0
C254 C 0.32054 0.82759 0.39761 0.0
C255 C 0.30259 0.8193 0.38306 0.0
C256 C 0.26727 0.82632 0.37872 0.0
C257 C 0.19483 0.86121 0.48186 0.0
H258 H 0.16292 0.92954 0.36454 0.0
H259 H 0.18443 0.90045 0.38134 0.0
H260 H 0.23033 0.94165 0.4195 0.0
H261 H 0.20928 0.97093 0.40253 0.0
H262 H 0.24436 0.88544 0.38928 0.0
H263 H 0.2026 0.9121 0.43614 0.0
H264 H 0.25553 0.85316 0.4374 0.0
H265 H 0.20281 0.84906 0.45644 0.0
H266 H 0.23367 0.91246 0.46398 0.0
H267 H 0.21363 0.91036 0.49411 0.0
H268 H 0.22363 0.84713 0.38465 0.0
H269 H 0.31805 0.84919 0.41857 0.0
H270 H 0.18427 0.84674 0.48667 0.0
H271 H 0.25293 0.8203 0.36751 0.0
H272 H 0.3477 0.82232 0.40128 0.0
C273 C 0.27717 0.63383 0.98487 0.0
C274 C 0.31187 0.6269 0.99041 0.0
C275 C 0.26678 0.63215 0.96749 0.0
C276 C 0.29086 0.62351 0.95527 0.0
C277 C 0.32547 0.61653 0.96086 0.0
C278 C 0.33576 0.61812 0.9782 0.0
C279 C 0.28031 0.62182 0.93673 0.0
C280 C 0.26194 0.63791 0.92828 0.0
C281 C 0.25424 0.63676 0.91047 0.0
C282 C 0.26455 0.6192 0.90119 0.0
C283 C 0.28265 0.60298 0.90942 0.0
C284 C 0.29013 0.60434 0.92719 0.0
C285 C 0.2952 0.58501 0.8993 0.0
C286 C 0.27214 0.57594 0.88683 0.0
C287 C 0.33086 0.57722 0.90169 0.0
C288 C 0.34342 0.56092 0.89162 0.0
C289 C 0.32058 0.55202 0.87896 0.0
C290 C 0.23693 0.65417 0.90126 0.0
C291 C 0.20532 0.66372 0.90791 0.0
C292 C 0.25169 0.66106 0.88547 0.0
C293 C 0.23497 0.67696 0.87637 0.0
C294 C 0.20296 0.68629 0.88281 0.0
C295 C 0.18833 0.67955 0.8987 0.0
C296 C 0.28466 0.55959 0.87679 0.0
H297 H 0.25826 0.64088 0.9939 0.0
H298 H 0.23981 0.63752 0.96364 0.0
H299 H 0.34495 0.61006 0.95178 0.0
H300 H 0.3625 0.6124 0.98205 0.0
H301 H 0.25506 0.6517 0.93536 0.0
H302 H 0.30353 0.59166 0.93363 0.0
H303 H 0.25903 0.61833 0.88742 0.0
H304 H 0.24435 0.58145 0.88487 0.0
H305 H 0.34946 0.58408 0.91103 0.0
H306 H 0.37142 0.55568 0.89345 0.0
H307 H 0.19333 0.65867 0.92003 0.0
H308 H 0.27627 0.65414 0.88013 0.0
H309 H 0.26615 0.55285 0.86736 0.0
H310 H 0.16384 0.68656 0.90403 0.0
H311 H 0.24671 0.68168 0.8641 0.0
Tb312 Tb 0.04631 0.13675 0.24212 0.0
C313 C 0.88707 0.11758 0.26145 0.0
N314 N 0.90361 0.13626 0.26061 0.0
C315 C 0.85261 0.14942 0.24445 0.0
C316 C 0.85322 0.11381 0.25309 0.0
C317 C 0.88644 0.15233 0.2528 0.0
C318 C 0.83609 0.13002 0.24443 0.0
C319 C 0.8889 0.08244 0.27137 0.0
C320 C 0.90482 0.10216 0.27043 0.0
C321 C 0.85553 0.07841 0.26273 0.0
C322 C 0.83769 0.09407 0.25365 0.0
Tb323 Tb 0.9586 0.1395 0.27451 0.0
N324 N 0.93724 0.10664 0.27853 0.0
C325 C 0.90663 0.06749 0.28123 0.0
C326 C 0.95289 0.09253 0.28929 0.0
C327 C 0.93841 0.07267 0.29046 0.0
H328 H 0.89869 0.16743 0.25305 0.0
H329 H 0.95142 0.06147 0.29874 0.0
H330 H 0.10089 0.10124 0.25985 0.0
H331 H 0.07925 0.21302 0.22055 0.0
H332 H 0.97578 0.09653 0.29748 0.0
H333 H 0.89534 0.05214 0.28227 0.0
H334 H 0.0425 0.18101 0.22207 0.0
H335 H 0.83925 0.16214 0.23809 0.0
H336 H 0.84302 0.06331 0.26322 0.0
H337 H 0.81179 0.0908 0.2472 0.0
H338 H 0.15833 0.1005 0.27671 0.0
H339 H 0.80997 0.12779 0.23789 0.0
H340 H 0.13664 0.21643 0.2377 0.0
N341 N 0.10096 0.13367 0.25689 0.0
C342 C 0.12183 0.15098 0.25803 0.0
C343 C 0.14804 0.11491 0.27182 0.0
C344 C 0.15594 0.15115 0.26675 0.0
C345 C 0.11479 0.11548 0.26267 0.0
C346 C 0.16841 0.13291 0.27416 0.0
N347 N 0.07795 0.16697 0.2404 0.0
C348 C 0.06723 0.18252 0.22975 0.0
C349 C 0.13221 0.186 0.2487 0.0
C350 C 0.11028 0.16815 0.24918 0.0
C351 C 0.12051 0.20244 0.23848 0.0
C352 C 0.0881 0.20059 0.22879 0.0
H353 H 0.19447 0.13236 0.28098 0.0
H354 H 0.20331 0.16972 0.27389 0.0
H355 H 0.18247 0.20029 0.25806 0.0
O356 O 0.04115 0.13756 0.21487 0.0
O357 O 0.03932 0.16332 0.25935 0.0
O358 O 0.01244 0.15002 0.28378 0.0
O359 O 0.08502 0.1211 0.22697 0.0
O360 O 0.9968 0.15259 0.23289 0.0
O361 O 0.96751 0.16595 0.25729 0.0
O362 O 0.93241 0.1366 0.29886 0.0
O363 O 0.95346 0.12722 0.24813 0.0
O364 O 0.00805 0.1108 0.24379 0.0
O365 O 0.93481 0.16597 0.28538 0.0
O366 O 0.00838 0.12438 0.28437 0.0
O367 O 0.03709 0.11103 0.26006 0.0
C368 C 0.03422 0.16337 0.27617 0.0
C369 C 0.09859 0.13709 0.20044 0.0
C370 C 0.11972 0.14394 0.17101 0.0
C371 C 0.14975 0.15507 0.17776 0.0
C372 C 0.12929 0.14789 0.20686 0.0
C373 C 0.15448 0.15696 0.19558 0.0
C374 C 0.09408 0.13496 0.18245 0.0
C375 C 0.97564 0.16632 0.24057 0.0
C376 C 0.07175 0.12771 0.21243 0.0
C377 C 0.17717 0.16923 0.26712 0.0
C378 C 0.16536 0.18663 0.25807 0.0
C379 C 0.97222 0.11185 0.24186 0.0
C380 C 0.90348 0.16554 0.31332 0.0
C381 C 0.88549 0.16697 0.34386 0.0
C382 C 0.86393 0.18429 0.3401 0.0
C383 C 0.88232 0.18301 0.31005 0.0
C384 C 0.90493 0.15748 0.33024 0.0
C385 C 0.86251 0.19222 0.32336 0.0
C386 C 0.03119 0.11142 0.27689 0.0
C387 C 0.92387 0.15589 0.299 0.0
H388 H 0.17014 0.16188 0.16924 0.0
H389 H 0.13422 0.1491 0.22059 0.0
H390 H 0.17801 0.16526 0.20067 0.0
H391 H 0.07077 0.1264 0.17739 0.0
H392 H 0.84779 0.19166 0.35009 0.0
H393 H 0.88074 0.18941 0.29713 0.0
H394 H 0.92182 0.1442 0.33285 0.0
H395 H 0.84588 0.20556 0.3207 0.0
Tb396 Tb 0.4623 0.36327 0.74166 0.0
C397 C 0.62729 0.37823 0.75667 0.0
N398 N 0.60693 0.36104 0.75956 0.0
C399 C 0.6552 0.34058 0.74731 0.0
C400 C 0.66181 0.37738 0.74832 0.0
C401 C 0.62155 0.34224 0.75604 0.0
C402 C 0.67512 0.35827 0.74313 0.0
C403 C 0.6366 0.41441 0.76241 0.0
C404 C 0.61494 0.39648 0.76352 0.0
C405 C 0.6701 0.41392 0.75329 0.0
C406 C 0.68263 0.39544 0.74621 0.0
Tb407 Tb 0.55143 0.36596 0.77317 0.0
N408 N 0.58234 0.39637 0.77211 0.0
C409 C 0.62448 0.43203 0.771 0.0
C410 C 0.57143 0.41307 0.78142 0.0
C411 C 0.59205 0.43124 0.7808 0.0
H412 H 0.60774 0.32841 0.76021 0.0
H413 H 0.58294 0.44461 0.78786 0.0
H414 H 0.39996 0.38903 0.76356 0.0
H415 H 0.4654 0.28436 0.71946 0.0
H416 H 0.54654 0.41238 0.78908 0.0
H417 H 0.6404 0.44611 0.77054 0.0
H418 H 0.48426 0.32049 0.71942 0.0
H419 H 0.66611 0.32565 0.74416 0.0
H420 H 0.687 0.42758 0.75209 0.0
H421 H 0.70908 0.39513 0.73969 0.0
H422 H 0.34226 0.38165 0.7794 0.0
H423 H 0.70151 0.35693 0.73666 0.0
H424 H 0.41212 0.27305 0.73711 0.0
N425 N 0.40893 0.35799 0.75655 0.0
C426 C 0.39511 0.33863 0.75634 0.0
C427 C 0.35704 0.36936 0.77311 0.0
C428 C 0.36233 0.33365 0.76522 0.0
C429 C 0.38993 0.37348 0.76427 0.0
C430 C 0.34334 0.34932 0.77373 0.0
N431 N 0.44566 0.32943 0.73878 0.0
C432 C 0.46266 0.31572 0.7281 0.0
C433 C 0.4017 0.30335 0.74732 0.0
C434 C 0.4146 0.32375 0.7475 0.0
C435 C 0.42105 0.28891 0.73757 0.0
C436 C 0.45127 0.29521 0.72768 0.0
H437 H 0.31799 0.34615 0.78068 0.0
H438 H 0.3249 0.30905 0.77231 0.0
H439 H 0.35943 0.28247 0.75666 0.0
O440 O 0.43514 0.35844 0.71783 0.0
O441 O 0.46076 0.35243 0.76867 0.0
O442 O 0.51745 0.33828 0.77311 0.0
O443 O 0.43268 0.38753 0.73065 0.0
O444 O 0.5137 0.34979 0.73192 0.0
O445 O 0.54511 0.33881 0.75634 0.0
O446 O 0.54186 0.36925 0.79985 0.0
O447 O 0.5412 0.39088 0.75472 0.0
O448 O 0.51409 0.37553 0.73114 0.0
O449 O 0.5926 0.35661 0.79061 0.0
O450 O 0.50068 0.38114 0.78156 0.0
O451 O 0.46846 0.39139 0.75701 0.0
C452 C 0.48161 0.33809 0.77534 0.0
C453 C 0.43612 0.38778 0.70005 0.0
C454 C 0.43301 0.38989 0.66849 0.0
C455 C 0.45878 0.40602 0.66886 0.0
C456 C 0.46159 0.40412 0.70007 0.0
C457 C 0.47269 0.41318 0.68456 0.0
C458 C 0.42147 0.38088 0.68417 0.0
C459 C 0.53852 0.33817 0.73955 0.0
C460 C 0.42575 0.37753 0.71643 0.0
C461 C 0.34984 0.31325 0.76541 0.0
C462 C 0.36957 0.29812 0.75654 0.0
C463 C 0.5355 0.38967 0.73797 0.0
C464 C 0.57232 0.34641 0.81832 0.0
C465 C 0.58235 0.33899 0.84893 0.0
C466 C 0.57001 0.31879 0.84603 0.0
C467 C 0.56021 0.32625 0.81565 0.0
C468 C 0.58325 0.35273 0.8349 0.0
C469 C 0.55899 0.31252 0.8295 0.0
C470 C 0.47783 0.39355 0.77345 0.0
C471 C 0.57327 0.36133 0.80416 0.0
H472 H 0.46777 0.41331 0.65697 0.0
H473 H 0.47317 0.40985 0.71205 0.0
H474 H 0.49223 0.42576 0.68471 0.0
H475 H 0.40179 0.36832 0.68399 0.0
H476 H 0.56938 0.30773 0.85648 0.0
H477 H 0.55183 0.32119 0.8029 0.0
H478 H 0.59203 0.36846 0.83689 0.0
H479 H 0.54965 0.29694 0.82741 0.0
Tb480 Tb 0.04521 0.86715 0.74201 0.0
C481 C 0.88662 0.84151 0.75897 0.0
N482 N 0.902 0.86052 0.75894 0.0
C483 C 0.85034 0.87359 0.74316 0.0
C484 C 0.85298 0.83761 0.75044 0.0
C485 C 0.88394 0.87665 0.75167 0.0
C486 C 0.83491 0.85395 0.74241 0.0
C487 C 0.89083 0.8058 0.76713 0.0
C488 C 0.90539 0.82586 0.76722 0.0
C489 C 0.85762 0.80171 0.75839 0.0
C490 C 0.83868 0.81759 0.75011 0.0
Tb491 Tb 0.95612 0.86398 0.77355 0.0
N492 N 0.9376 0.8304 0.77548 0.0
C493 C 0.90982 0.79051 0.77605 0.0
C494 C 0.95473 0.81579 0.78519 0.0
C495 C 0.94162 0.7956 0.78531 0.0
H496 H 0.89505 0.89196 0.75259 0.0
H497 H 0.95571 0.78403 0.79281 0.0
H498 H 0.10265 0.83096 0.75695 0.0
H499 H 0.07175 0.94616 0.72661 0.0
H500 H 0.97778 0.81958 0.79335 0.0
H501 H 0.8996 0.77488 0.77629 0.0
H502 H 0.0375 0.91323 0.72561 0.0
H503 H 0.83627 0.8864 0.73728 0.0
H504 H 0.84613 0.78636 0.75811 0.0
H505 H 0.81298 0.81424 0.74352 0.0
H506 H 0.16036 0.82991 0.77356 0.0
H507 H 0.80895 0.85161 0.73576 0.0
H508 H 0.12889 0.94905 0.74401 0.0
N509 N 0.10031 0.86361 0.75629 0.0
C510 C 0.11972 0.88123 0.75881 0.0
C511 C 0.14892 0.84451 0.76975 0.0
C512 C 0.15382 0.8813 0.76755 0.0
C513 C 0.1156 0.84522 0.76066 0.0
C514 C 0.16781 0.86267 0.7735 0.0
N515 N 0.07419 0.89815 0.74276 0.0
C516 C 0.06225 0.91451 0.73331 0.0
C517 C 0.12707 0.91741 0.75244 0.0
C518 C 0.10664 0.89904 0.75143 0.0
C519 C 0.11394 0.93464 0.74362 0.0
C520 C 0.08167 0.93308 0.7338 0.0
H521 H 0.19389 0.86204 0.78029 0.0
H522 H 0.19958 0.90019 0.77625 0.0
H523 H 0.17613 0.93183 0.76297 0.0
O524 O 0.03746 0.8707 0.71523 0.0
O525 O 0.03424 0.89193 0.76048 0.0
O526 O 0.00775 0.8764 0.7841 0.0
O527 O 0.0872 0.85751 0.72511 0.0
O528 O 0.99348 0.88111 0.73355 0.0
O529 O 0.96266 0.89208 0.75821 0.0
O530 O 0.93108 0.85847 0.79782 0.0
O531 O 0.95427 0.85229 0.74676 0.0
O532 O 0.0118 0.83918 0.74187 0.0
O533 O 0.92549 0.88748 0.78504 0.0
O534 O 0.00736 0.8502 0.78318 0.0
O535 O 0.03919 0.83986 0.75861 0.0
C536 C 0.02924 0.89048 0.77725 0.0
C537 C 0.06779 0.84728 0.69729 0.0
C538 C 0.07625 0.83959 0.66665 0.0
C539 C 0.06476 0.8193 0.66985 0.0
C540 C 0.05672 0.827 0.70029 0.0
C541 C 0.05511 0.81309 0.68658 0.0
C542 C 0.07752 0.85352 0.68053 0.0
C543 C 0.97123 0.89384 0.74165 0.0
C544 C 0.06877 0.86237 0.71132 0.0
C545 C 0.17349 0.89979 0.76943 0.0
C546 C 0.16019 0.91781 0.76184 0.0
C547 C 0.97588 0.83845 0.73982 0.0
C548 C 0.9315 0.88797 0.81547 0.0
C549 C 0.92932 0.89139 0.84705 0.0
C550 C 0.95361 0.90822 0.84581 0.0
C551 C 0.95601 0.90469 0.81473 0.0
C552 C 0.91813 0.88136 0.8317 0.0
C553 C 0.96674 0.91472 0.82978 0.0
C554 C 0.03258 0.839 0.77539 0.0
C555 C 0.92044 0.87735 0.79938 0.0
H556 H 0.06385 0.80814 0.65949 0.0
H557 H 0.04949 0.82199 0.7132 0.0
H558 H 0.04659 0.79743 0.68894 0.0
H559 H 0.08566 0.8693 0.67829 0.0
H560 H 0.96207 0.91662 0.85724 0.0
H561 H 0.9669 0.91011 0.80249 0.0
H562 H 0.89952 0.86834 0.83236 0.0
H563 H 0.98516 0.92769 0.82896 0.0
Tb564 Tb 0.45621 0.63791 0.24055 0.0
C565 C 0.61386 0.66126 0.26275 0.0
N566 N 0.59821 0.64234 0.2629 0.0
C567 C 0.65177 0.62836 0.2492 0.0
C568 C 0.64861 0.66468 0.25509 0.0
C569 C 0.61698 0.62583 0.25675 0.0
C570 C 0.6675 0.64792 0.24818 0.0
C571 C 0.60944 0.69721 0.27003 0.0
C572 C 0.59444 0.67725 0.27007 0.0
C573 C 0.64365 0.70087 0.262 0.0
C574 C 0.66322 0.68463 0.25457 0.0
Tb575 Tb 0.5409 0.63987 0.27482 0.0
N576 N 0.56128 0.67308 0.27758 0.0
C577 C 0.58994 0.71279 0.27833 0.0
C578 C 0.54375 0.68792 0.2869 0.0
C579 C 0.55729 0.70803 0.28707 0.0
H580 H 0.60543 0.61065 0.25784 0.0
H581 H 0.54282 0.71979 0.29419 0.0
H582 H 0.39908 0.6754 0.25352 0.0
H583 H 0.42536 0.55905 0.22608 0.0
H584 H 0.51993 0.68435 0.29465 0.0
H585 H 0.60046 0.72835 0.27858 0.0
H586 H 0.46131 0.59143 0.22462 0.0
H587 H 0.66644 0.61523 0.24422 0.0
H588 H 0.65546 0.71615 0.2617 0.0
H589 H 0.68972 0.68764 0.24858 0.0
H590 H 0.34118 0.67788 0.26988 0.0
H591 H 0.69434 0.64986 0.24223 0.0
H592 H 0.368 0.55745 0.24346 0.0
N593 N 0.40052 0.64274 0.25415 0.0
C594 C 0.3802 0.62549 0.25696 0.0
C595 C 0.35218 0.66299 0.26663 0.0
C596 C 0.3459 0.6262 0.26552 0.0
C597 C 0.38566 0.66148 0.25774 0.0
C598 C 0.33256 0.64523 0.27088 0.0
N599 N 0.42508 0.6075 0.24136 0.0
C600 C 0.4363 0.59074 0.23221 0.0
C601 C 0.37121 0.58927 0.25128 0.0
C602 C 0.39249 0.6073 0.24997 0.0
C603 C 0.38361 0.57162 0.24282 0.0
C604 C 0.41599 0.57246 0.23299 0.0
H605 H 0.30635 0.64646 0.27752 0.0
H606 H 0.29913 0.60825 0.27446 0.0
H607 H 0.32135 0.57587 0.26197 0.0
O608 O 0.46542 0.63333 0.214 0.0
O609 O 0.46417 0.61289 0.25916 0.0
O610 O 0.48559 0.63031 0.28255 0.0
O611 O 0.41648 0.6483 0.22278 0.0
O612 O 0.50781 0.62274 0.23344 0.0
O613 O 0.53704 0.61205 0.25874 0.0
O614 O 0.5619 0.64474 0.29989 0.0
O615 O 0.54845 0.65049 0.24797 0.0
O616 O 0.49284 0.66468 0.24064 0.0
O617 O 0.56046 0.61448 0.28875 0.0
O618 O 0.48932 0.65529 0.28185 0.0
O619 O 0.46193 0.66602 0.2563 0.0
C620 C 0.46848 0.61453 0.27591 0.0
C621 C 0.4394 0.6574 0.19529 0.0
C622 C 0.43218 0.66533 0.16466 0.0
C623 C 0.44964 0.68434 0.16748 0.0
C624 C 0.4565 0.67644 0.19794 0.0
C625 C 0.46162 0.68985 0.18405 0.0
C626 C 0.42715 0.65193 0.17871 0.0
C627 C 0.52944 0.6101 0.24204 0.0
C628 C 0.43544 0.64258 0.2094 0.0
C629 C 0.32536 0.60805 0.26775 0.0
C630 C 0.33796 0.58962 0.2606 0.0
C631 C 0.52905 0.66456 0.24002 0.0
C632 C 0.6034 0.62059 0.31156 0.0
C633 C 0.63504 0.61759 0.33936 0.0
C634 C 0.66515 0.60865 0.3308 0.0
C635 C 0.63372 0.61168 0.30325 0.0
C636 C 0.60435 0.6237 0.32957 0.0
C637 C 0.6645 0.60584 0.31287 0.0
C638 C 0.46761 0.66771 0.27312 0.0
C639 C 0.56929 0.6255 0.30221 0.0
H640 H 0.45366 0.69504 0.15692 0.0
H641 H 0.46598 0.68084 0.21069 0.0
H642 H 0.47496 0.70452 0.18612 0.0
H643 H 0.41441 0.63705 0.1767 0.0
H644 H 0.6893 0.60393 0.33798 0.0
H645 H 0.63343 0.60894 0.28945 0.0
H646 H 0.58064 0.63026 0.33604 0.0
H647 H 0.6878 0.5989 0.30643 0.0
H648 H 0.15394 0.98841 0.39363 0.0
H649 H 0.13039 0.01674 0.37609 0.0
H650 H 0.16172 0.98489 0.32954 0.0
H651 H 0.18634 0.95678 0.34687 0.0
H652 H 0.17563 0.03856 0.34347 0.0
H653 H 0.04119 0.99911 0.33169 0.0
H654 H 0.06761 0.99484 0.35118 0.0
H655 H 0.08304 0.98435 0.33102 0.0
C656 C 0.1564 0.98756 0.37968 0.0
C657 C 0.17181 0.97025 0.37165 0.0
C658 C 0.1428 0.00371 0.36971 0.0
C659 C 0.14427 0.00274 0.35161 0.0
C660 C 0.16027 0.98577 0.34353 0.0
H661 H 0.05128 0.07274 0.26772 0.0
H662 H 0.08038 0.04686 0.28609 0.0
C663 C 0.17403 0.96969 0.35346 0.0
C664 C 0.12787 0.01909 0.34102 0.0
H665 H 0.05111 0.03065 0.31761 0.0
C666 C 0.14837 0.03696 0.33785 0.0
C667 C 0.09244 0.01673 0.33373 0.0
C668 C 0.0695 0.99779 0.33704 0.0
C669 C 0.13435 0.05257 0.32728 0.0
C670 C 0.09881 0.05024 0.32 0.0
C671 C 0.07834 0.03235 0.32324 0.0
C672 C 0.08232 0.06613 0.30887 0.0
C673 C 0.1579 0.0712 0.32364 0.0
C674 C 0.07355 0.0854 0.3157 0.0
C675 C 0.05695 0.10016 0.30525 0.0
C676 C 0.04896 0.09586 0.28784 0.0
C677 C 0.05759 0.07651 0.28106 0.0
C678 C 0.07406 0.06174 0.29152 0.0
H679 H 0.18728 0.06862 0.327 0.0
H680 H 0.15614 0.0756 0.30977 0.0
H681 H 0.14778 0.08426 0.33148 0.0
H682 H 0.07916 0.08893 0.32914 0.0
H683 H 0.05048 0.11497 0.31078 0.0
H684 H 0.36348 0.51944 0.88833 0.0
H685 H 0.38879 0.49285 0.86952 0.0
H686 H 0.33364 0.51961 0.82565 0.0
H687 H 0.30934 0.54669 0.8442 0.0
H688 H 0.35148 0.46428 0.84864 0.0
H689 H 0.44089 0.51578 0.80938 0.0
H690 H 0.42071 0.52363 0.82967 0.0
H691 H 0.39327 0.52308 0.81031 0.0
C692 C 0.35703 0.5198 0.87465 0.0
C693 C 0.33458 0.53528 0.86775 0.0
C694 C 0.37131 0.50452 0.86395 0.0
C695 C 0.36353 0.50448 0.84617 0.0
C696 C 0.3405 0.5196 0.83929 0.0
H697 H 0.43389 0.42483 0.76191 0.0
H698 H 0.40449 0.45149 0.77933 0.0
C699 C 0.32627 0.53491 0.84996 0.0
C700 C 0.37936 0.48849 0.83486 0.0
H701 H 0.43691 0.48117 0.80044 0.0
C702 C 0.37019 0.46795 0.83811 0.0
C703 C 0.40366 0.49337 0.82111 0.0
C704 C 0.41554 0.51513 0.81745 0.0
C705 C 0.38445 0.45211 0.82788 0.0
C706 C 0.40906 0.45697 0.81424 0.0
C707 C 0.41796 0.47752 0.81088 0.0
C708 C 0.4268 0.44088 0.80368 0.0
C709 C 0.37266 0.43034 0.83162 0.0
C710 C 0.4496 0.42636 0.81157 0.0
C711 C 0.46621 0.41108 0.80172 0.0
C712 C 0.46066 0.41011 0.7837 0.0
C713 C 0.43847 0.425 0.77576 0.0
C714 C 0.42171 0.44026 0.78568 0.0
H715 H 0.34627 0.42976 0.83892 0.0
H716 H 0.3694 0.42141 0.81948 0.0
H717 H 0.39404 0.42283 0.83965 0.0
H718 H 0.45464 0.42687 0.82539 0.0
H719 H 0.48332 0.4 0.80829 0.0
H720 H 0.69099 0.54511 0.66724 0.0
H721 H 0.66575 0.51661 0.68411 0.0
H722 H 0.62279 0.48921 0.63748 0.0
H723 H 0.64717 0.51789 0.62048 0.0
H724 H 0.58748 0.50418 0.68441 0.0
H725 H 0.68201 0.44259 0.66239 0.0
H726 H 0.69346 0.46946 0.6603 0.0
H727 H 0.66065 0.4579 0.64588 0.0
C728 C 0.67601 0.5331 0.66055 0.0
C729 C 0.67103 0.53385 0.64249 0.0
C730 C 0.66183 0.51677 0.67021 0.0
C731 C 0.64275 0.50076 0.66201 0.0
C732 C 0.63797 0.50128 0.644 0.0
H733 H 0.54507 0.38819 0.70283 0.0
H734 H 0.56951 0.41524 0.68401 0.0
C735 C 0.65201 0.51767 0.63431 0.0
C736 C 0.62655 0.48397 0.67245 0.0
H737 H 0.63404 0.43298 0.68137 0.0
C738 C 0.59759 0.48859 0.68378 0.0
C739 C 0.63957 0.46366 0.67138 0.0
C740 C 0.67079 0.458 0.65943 0.0
C741 C 0.58105 0.47339 0.69407 0.0
C742 C 0.59484 0.45313 0.69346 0.0
C743 C 0.62358 0.44849 0.68192 0.0
C744 C 0.58027 0.43663 0.70486 0.0
C745 C 0.54842 0.47921 0.70513 0.0
C746 C 0.57867 0.43947 0.72285 0.0
C747 C 0.56371 0.42432 0.73351 0.0
C748 C 0.55146 0.40561 0.72656 0.0
C749 C 0.55419 0.40247 0.7086 0.0
C750 C 0.56835 0.41787 0.69785 0.0
H751 H 0.53386 0.4927 0.69973 0.0
H752 H 0.52836 0.46637 0.7063 0.0
H753 H 0.55821 0.48343 0.71827 0.0
H754 H 0.58872 0.4535 0.7287 0.0
H755 H 0.56119 0.42745 0.74717 0.0
H756 H 0.80938 0.95897 0.16808 0.0
H757 H 0.83232 0.98683 0.1863 0.0
H758 H 0.88161 0.01562 0.14159 0.0
H759 H 0.85897 0.98766 0.12329 0.0
H760 H 0.92871 0.01468 0.16788 0.0
H761 H 0.79552 0.04452 0.19157 0.0
H762 H 0.80047 0.01768 0.19587 0.0
H763 H 0.79863 0.02662 0.17384 0.0
C764 C 0.82462 0.97139 0.16207 0.0
C765 C 0.83217 0.97114 0.1442 0.0
C766 C 0.83764 0.98735 0.17251 0.0
C767 C 0.85809 0.00355 0.16528 0.0
C768 C 0.86571 0.00334 0.14745 0.0
H769 H 0.91212 0.11617 0.22101 0.0
H770 H 0.88406 0.09003 0.20234 0.0
C771 C 0.85289 0.98731 0.13701 0.0
C772 C 0.87315 0.02014 0.17645 0.0
H773 H 0.84935 0.0557 0.20684 0.0
C774 C 0.91131 0.02376 0.1763 0.0
C775 C 0.85041 0.03224 0.18723 0.0
C776 C 0.80896 0.03024 0.18702 0.0
C777 C 0.92748 0.03886 0.18682 0.0
C778 C 0.90501 0.05017 0.19836 0.0
C779 C 0.8667 0.04684 0.19824 0.0
C780 C 0.92066 0.06573 0.21042 0.0
C781 C 0.96839 0.04276 0.18509 0.0
C782 C 0.94972 0.06067 0.22162 0.0
C783 C 0.96628 0.07568 0.23194 0.0
C784 C 0.95328 0.09587 0.23169 0.0
C785 C 0.92277 0.10071 0.22133 0.0
C786 C 0.90674 0.08578 0.21069 0.0
H787 H 0.97875 0.038 0.17217 0.0
H788 H 0.97527 0.0592 0.18701 0.0
H789 H 0.98326 0.03364 0.19496 0.0
H790 H 0.95995 0.04515 0.22224 0.0
H791 H 0.98925 0.0715 0.24015 0.0
H792 H 0.81854 0.05082 0.66957 0.0
H793 H 0.84309 0.02405 0.68844 0.0
H794 H 0.88335 0.99149 0.64373 0.0
H795 H 0.8593 0.01834 0.62481 0.0
H796 H 0.82818 0.98299 0.6901 0.0
H797 H 0.97515 0.99585 0.67326 0.0
H798 H 0.93944 0.01362 0.66728 0.0
H799 H 0.94661 0.99071 0.65479 0.0
C800 C 0.83246 0.03789 0.66377 0.0
C801 C 0.83725 0.03672 0.64573 0.0
C802 C 0.84657 0.02266 0.67456 0.0
C803 C 0.86568 0.006 0.66751 0.0
C804 C 0.86959 0.0045 0.64947 0.0
H805 H 0.96904 0.89723 0.7065 0.0
H806 H 0.94229 0.92471 0.68935 0.0
C807 C 0.85576 0.0198 0.63868 0.0
C808 C 0.88123 0.9901 0.67903 0.0
H809 H 0.9613 0.96604 0.68977 0.0
C810 C 0.85732 0.97936 0.69013 0.0
C811 C 0.91929 0.98547 0.67907 0.0
C812 C 0.94668 0.99715 0.66809 0.0
C813 C 0.87028 0.96369 0.70093 0.0
C814 C 0.90823 0.95888 0.70077 0.0
C815 C 0.93219 0.96976 0.68982 0.0
C816 C 0.92362 0.94217 0.71145 0.0
C817 C 0.84314 0.95202 0.71205 0.0
C818 C 0.92219 0.94296 0.7296 0.0
C819 C 0.93743 0.92719 0.7395 0.0
C820 C 0.95457 0.91049 0.73138 0.0
C821 C 0.95611 0.90988 0.71319 0.0
C822 C 0.94081 0.92557 0.70334 0.0
H823 H 0.81426 0.95432 0.70771 0.0
H824 H 0.84917 0.93536 0.7119 0.0
H825 H 0.84537 0.95747 0.72561 0.0
H826 H 0.90971 0.95587 0.7361 0.0
H827 H 0.93614 0.92821 0.75348 0.0
H828 H 0.72369 0.48266 0.15131 0.0
H829 H 0.70038 0.50871 0.17104 0.0
H830 H 0.58991 0.48529 0.16424 0.0
H831 H 0.61323 0.45819 0.14567 0.0
H832 H 0.65508 0.539 0.16659 0.0
H833 H 0.59409 0.48729 0.21565 0.0
H834 H 0.62349 0.47807 0.19855 0.0
H835 H 0.57521 0.48247 0.1946 0.0
C836 C 0.69452 0.48273 0.15427 0.0
C837 C 0.67049 0.46807 0.14697 0.0
C838 C 0.68118 0.4978 0.16544 0.0
C839 C 0.64349 0.4987 0.16947 0.0
C840 C 0.61926 0.48455 0.16178 0.0
H841 H 0.52724 0.60406 0.20708 0.0
H842 H 0.55659 0.57716 0.19038 0.0
C843 C 0.63263 0.46925 0.15084 0.0
C844 C 0.6294 0.51478 0.18131 0.0
H845 H 0.57534 0.52241 0.21692 0.0
C846 C 0.63795 0.53534 0.17769 0.0
C847 C 0.60767 0.51003 0.19603 0.0
C848 C 0.59994 0.48825 0.20155 0.0
C849 C 0.62443 0.55129 0.18803 0.0
C850 C 0.60068 0.5466 0.20205 0.0
C851 C 0.59312 0.52602 0.20602 0.0
C852 C 0.58257 0.5628 0.21243 0.0
C853 C 0.63612 0.57298 0.18391 0.0
C854 C 0.58598 0.56319 0.23055 0.0
C855 C 0.56846 0.57838 0.24027 0.0
C856 C 0.54741 0.59355 0.23203 0.0
C857 C 0.54353 0.59282 0.21391 0.0
C858 C 0.56065 0.57753 0.20426 0.0
H859 H 0.66301 0.57337 0.17702 0.0
H860 H 0.61532 0.58006 0.17529 0.0
H861 H 0.63851 0.5824 0.19583 0.0
H862 H 0.60237 0.55179 0.23715 0.0
H863 H 0.5715 0.57824 0.25421 0.0
H864 H 0.3669 0.48526 0.39344 0.0
H865 H 0.39063 0.51357 0.37582 0.0
H866 H 0.33689 0.48816 0.33083 0.0
H867 H 0.31321 0.45979 0.34829 0.0
H868 H 0.4361 0.51212 0.34711 0.0
H869 H 0.30199 0.54735 0.3303 0.0
H870 H 0.30661 0.52858 0.34732 0.0
H871 H 0.30454 0.52061 0.32504 0.0
C872 C 0.3602 0.48567 0.37978 0.0
C873 C 0.33798 0.47031 0.3723 0.0
C874 C 0.37365 0.5019 0.36976 0.0
C875 C 0.36501 0.50315 0.35209 0.0
C876 C 0.34312 0.48778 0.34453 0.0
H877 H 0.44797 0.57561 0.26712 0.0
H878 H 0.42226 0.54907 0.286 0.0
C879 C 0.32962 0.47157 0.35454 0.0
C880 C 0.37988 0.52017 0.34142 0.0
H881 H 0.35464 0.55946 0.3148 0.0
C882 C 0.41829 0.52257 0.34017 0.0
C883 C 0.35656 0.53381 0.3324 0.0
C884 C 0.31513 0.53263 0.33393 0.0
C885 C 0.43397 0.538 0.32982 0.0
C886 C 0.41064 0.55129 0.32057 0.0
C887 C 0.37231 0.5491 0.32192 0.0
C888 C 0.42573 0.56745 0.30923 0.0
C889 C 0.47533 0.53992 0.32856 0.0
C890 C 0.436 0.58651 0.31611 0.0
C891 C 0.45012 0.60183 0.30529 0.0
C892 C 0.45411 0.59828 0.28744 0.0
C893 C 0.44423 0.57902 0.28069 0.0
C894 C 0.42987 0.56378 0.29148 0.0
H895 H 0.48973 0.52798 0.33619 0.0
H896 H 0.48402 0.53873 0.31481 0.0
H897 H 0.48414 0.55523 0.33332 0.0
H898 H 0.43298 0.58952 0.32983 0.0
H899 H 0.45759 0.61649 0.31089 0.0
H900 H 0.15499 0.01589 0.89261 0.0
H901 H 0.13127 0.98699 0.87571 0.0
H902 H 0.17052 0.01562 0.82878 0.0
H903 H 0.19494 0.04434 0.84568 0.0
H904 H 0.07916 0.98769 0.8516 0.0
H905 H 0.20763 0.95829 0.82212 0.0
H906 H 0.2079 0.97648 0.83972 0.0
H907 H 0.20066 0.98498 0.81783 0.0
C908 C 0.15876 0.01593 0.8787 0.0
C909 C 0.17688 0.03231 0.87044 0.0
C910 C 0.14534 0.9994 0.86907 0.0
C911 C 0.14969 0.99896 0.85101 0.0
C912 C 0.16782 0.01531 0.84274 0.0
H913 H 0.05218 0.9289 0.76846 0.0
H914 H 0.08272 0.95426 0.78683 0.0
C915 C 0.18159 0.03176 0.85239 0.0
C916 C 0.13291 0.98213 0.84077 0.0
H917 H 0.15097 0.94587 0.81005 0.0
C918 C 0.09498 0.97843 0.84264 0.0
C919 C 0.15358 0.97003 0.8291 0.0
C920 C 0.19476 0.97249 0.82718 0.0
C921 C 0.07697 0.9633 0.83289 0.0
C922 C 0.09745 0.95148 0.82103 0.0
C923 C 0.13541 0.95501 0.81919 0.0
C924 C 0.07966 0.9358 0.81002 0.0
C925 C 0.03612 0.96018 0.83525 0.0
C926 C 0.06799 0.91701 0.81701 0.0
C927 C 0.05145 0.90222 0.80638 0.0
C928 C 0.04614 0.90611 0.78866 0.0
C929 C 0.05714 0.92515 0.78187 0.0
C930 C 0.07419 0.93975 0.79239 0.0
H931 H 0.02309 0.97328 0.84205 0.0
H932 H 0.02229 0.95802 0.82256 0.0
H933 H 0.03161 0.94622 0.84318 0.0
H934 H 0.07192 0.91377 0.83063 0.0
H935 H 0.04305 0.88773 0.81201 0.0
H936 H 0.23046 0.10819 0.01794 0.0
H937 H 0.2115 0.10886 0.04833 0.0
H938 H 0.11673 0.1451 0.03476 0.0
H939 H 0.13517 0.1441 1.00431 0.0
H940 H 0.20517 0.14067 0.0691 0.0
H941 H 0.06918 0.10204 0.06464 0.0
H942 H 0.1019 0.10201 0.04703 0.0
H943 H 0.07273 0.12382 0.05058 0.0
C944 C 0.20555 0.11627 0.02146 0.0
C945 C 0.18424 0.12607 0.00878 0.0
C946 C 0.19464 0.11654 0.03879 0.0
C947 C 0.1623 0.12668 0.04379 0.0
C948 C 0.14114 0.13664 0.03116 0.0
H949 H 0.124 0.17349 0.1463 0.0
H950 H 0.13062 0.16857 0.11507 0.0
C951 C 0.15184 0.13619 0.01378 0.0
C952 C 0.15217 0.12795 0.06236 0.0
H953 H 0.08223 0.11957 0.09123 0.0
C954 C 0.17837 0.1359 0.07393 0.0
C955 C 0.11734 0.1215 0.0687 0.0
C956 C 0.08882 0.11167 0.05712 0.0
C957 C 0.17052 0.13799 0.09159 0.0
C958 C 0.13511 0.1325 0.09779 0.0
C959 C 0.10913 0.12405 0.08636 0.0
C960 C 0.12495 0.13559 0.11615 0.0
C961 C 0.20042 0.14587 0.10349 0.0
C962 C 0.11733 0.11877 0.12692 0.0
C963 C 0.11318 0.12157 0.14478 0.0
C964 C 0.11674 0.14123 0.15204 0.0
C965 C 0.12173 0.15815 0.14104 0.0
C966 C 0.12559 0.15536 0.12324 0.0
H967 H 0.22825 0.14408 0.09769 0.0
H968 H 0.19603 0.16242 0.10596 0.0
H969 H 0.19981 0.13773 0.11611 0.0
H970 H 0.11648 0.1034 0.12163 0.0
H971 H 0.1094 0.10828 0.153 0.0
H972 H 0.37817 0.36309 0.50636 0.0
H973 H 0.39612 0.36259 0.53684 0.0
H974 H 0.28667 0.38122 0.55151 0.0
H975 H 0.26858 0.38219 0.52102 0.0
H976 H 0.39306 0.39686 0.55952 0.0
H977 H 0.30784 0.33182 0.58361 0.0
H978 H 0.31735 0.33575 0.56088 0.0
H979 H 0.2835 0.35112 0.57167 0.0
C980 C 0.35787 0.36713 0.51604 0.0
C981 C 0.32192 0.37275 0.51119 0.0
C982 C 0.36813 0.36668 0.53346 0.0
C983 C 0.34261 0.37162 0.54644 0.0
C984 C 0.30658 0.37694 0.54172 0.0
H985 H 0.36104 0.38777 0.65812 0.0
H986 H 0.33832 0.38206 0.62852 0.0
C987 C 0.29629 0.37748 0.52427 0.0
C988 C 0.35452 0.37248 0.56478 0.0
H989 H 0.34056 0.35113 0.60466 0.0
C990 C 0.38173 0.3868 0.56939 0.0
C991 C 0.33937 0.35948 0.57762 0.0
C992 C 0.31058 0.34354 0.57325 0.0
C993 C 0.39397 0.38869 0.58653 0.0
C994 C 0.37937 0.37543 0.59939 0.0
C995 C 0.3519 0.36118 0.5948 0.0
C996 C 0.39231 0.37634 0.61763 0.0
C997 C 0.42176 0.40527 0.59074 0.0
C998 C 0.42988 0.37408 0.62149 0.0
C999 C 0.44284 0.37759 0.63825 0.0
C1000 C 0.41836 0.38293 0.65158 0.0
C1001 C 0.38041 0.38366 0.64804 0.0
C1002 C 0.36748 0.38045 0.63116 0.0
H1003 H 0.42164 0.41766 0.58088 0.0
H1004 H 0.41628 0.41217 0.60362 0.0
H1005 H 0.44979 0.39857 0.5909 0.0
H1006 H 0.4494 0.37026 0.61139 0.0
H1007 H 0.47218 0.3767 0.64073 0.0
H1008 H 0.7349 0.38998 0.99534 0.0
H1009 H 0.71631 0.38741 0.96491 0.0
H1010 H 0.61491 0.35774 0.98032 0.0
H1011 H 0.6331 0.36045 0.01066 0.0
H1012 H 0.70246 0.35399 0.94572 0.0
H1013 H 0.57654 0.40122 0.94827 0.0
H1014 H 0.60978 0.40087 0.96564 0.0
H1015 H 0.57535 0.38097 0.96394 0.0
C1016 C 0.70864 0.38292 0.99221 0.0
C1017 C 0.68535 0.37552 1.0054 0.0
C1018 C 0.69797 0.38156 0.97485 0.0
C1019 C 0.66384 0.37281 0.97036 0.0
C1020 C 0.64082 0.36516 0.98349 0.0
H1021 H 0.55077 0.32965 0.88019 0.0
H1022 H 0.57214 0.33952 0.90904 0.0
C1023 C 0.65133 0.36663 1.00083 0.0
C1024 C 0.65307 0.3706 0.95192 0.0
H1025 H 0.58279 0.37926 0.92349 0.0
C1026 C 0.67653 0.35976 0.94078 0.0
C1027 C 0.61931 0.37823 0.94547 0.0
C1028 C 0.594 0.39116 0.95642 0.0
C1029 C 0.6664 0.35552 0.92361 0.0
C1030 C 0.63201 0.36248 0.91739 0.0
C1031 C 0.60902 0.37382 0.92835 0.0
C1032 C 0.61868 0.35728 0.89979 0.0
C1033 C 0.69195 0.34298 0.91248 0.0
C1034 C 0.63744 0.36428 0.88504 0.0
C1035 C 0.62551 0.35849 0.86852 0.0
C1036 C 0.59444 0.34568 0.86646 0.0
C1037 C 0.57519 0.33917 0.8813 0.0
C1038 C 0.58717 0.34495 0.8978 0.0
H1039 H 0.71359 0.33529 0.92025 0.0
H1040 H 0.67631 0.33114 0.90516 0.0
H1041 H 0.70582 0.35317 0.90297 0.0
H1042 H 0.66147 0.37409 0.8863 0.0
H1043 H 0.6411 0.36372 0.85739 0.0
H1044 H 0.85086 0.09657 0.50235 0.0
H1045 H 0.86975 0.09871 0.47186 0.0
H1046 H 0.83147 0.16101 0.46964 0.0
H1047 H 0.8126 0.15906 0.50006 0.0
H1048 H 0.81477 0.11521 0.44169 0.0
H1049 H 0.94786 0.15608 0.45242 0.0
H1050 H 0.92791 0.13901 0.46836 0.0
H1051 H 0.90865 0.16393 0.46508 0.0
C1052 C 0.84667 0.11075 0.49538 0.0
C1053 C 0.83023 0.12766 0.50358 0.0
C1054 C 0.85733 0.11191 0.47799 0.0
C1055 C 0.85211 0.13004 0.46863 0.0
C1056 C 0.83577 0.14692 0.47674 0.0
H1057 H 0.88919 0.18938 0.37368 0.0
H1058 H 0.88449 0.1772 0.40335 0.0
C1059 C 0.82483 0.14573 0.49405 0.0
C1060 C 0.86308 0.13147 0.45025 0.0
H1061 H 0.92616 0.15414 0.42358 0.0
C1062 C 0.83937 0.12344 0.43762 0.0
C1063 C 0.89518 0.14219 0.44517 0.0
C1064 C 0.92164 0.15075 0.4584 0.0
C1065 C 0.84582 0.12688 0.41991 0.0
C1066 C 0.87739 0.13827 0.41476 0.0
C1067 C 0.90201 0.14542 0.42749 0.0
C1068 C 0.8831 0.14504 0.39656 0.0
C1069 C 0.8176 0.11933 0.40702 0.0
C1070 C 0.88498 0.13102 0.38278 0.0
C1071 C 0.88683 0.13801 0.36562 0.0
C1072 C 0.8873 0.15915 0.36198 0.0
C1073 C 0.88772 0.17302 0.37593 0.0
C1074 C 0.88545 0.16606 0.39296 0.0
H1075 H 0.79125 0.11487 0.41337 0.0
H1076 H 0.8117 0.13124 0.39716 0.0
H1077 H 0.82848 0.10564 0.40026 0.0
H1078 H 0.88427 0.1147 0.38525 0.0
H1079 H 0.88665 0.12687 0.35524 0.0
H1080 H 0.76866 0.88878 0.9956 0.0
H1081 H 0.7857 0.88821 0.96489 0.0
H1082 H 0.88836 0.859 0.97774 0.0
H1083 H 0.87144 0.85938 0.00846 0.0
H1084 H 0.85358 0.90703 0.95097 0.0
H1085 H 0.84199 0.82353 0.93754 0.0
H1086 H 0.81852 0.83566 0.95543 0.0
H1087 H 0.86704 0.83072 0.95673 0.0
C1088 C 0.79461 0.88196 0.99186 0.0
C1089 C 0.81869 0.87409 1.00444 0.0
C1090 C 0.80436 0.88173 0.97433 0.0
C1091 C 0.83808 0.87337 0.96906 0.0
C1092 C 0.86199 0.86528 0.98154 0.0
H1093 H 0.96841 0.88859 0.87719 0.0
H1094 H 0.9444 0.88304 0.90639 0.0
C1095 C 0.85242 0.86566 0.99908 0.0
C1096 C 0.84921 0.87414 0.95061 0.0
H1097 H 0.86885 0.84421 0.91552 0.0
C1098 C 0.85666 0.89332 0.94317 0.0
C1099 C 0.85312 0.85622 0.94051 0.0
C1100 C 0.84453 0.83533 0.94785 0.0
C1101 C 0.86878 0.89501 0.92597 0.0
C1102 C 0.87344 0.87707 0.91598 0.0
C1103 C 0.86525 0.85791 0.92327 0.0
C1104 C 0.88814 0.87815 0.89813 0.0
C1105 C 0.87697 0.91594 0.91858 0.0
C1106 C 0.8645 0.87666 0.88381 0.0
C1107 C 0.87806 0.88005 0.86704 0.0
C1108 C 0.91549 0.88496 0.86439 0.0
C1109 C 0.93931 0.88529 0.87878 0.0
C1110 C 0.92573 0.88201 0.89547 0.0
H1111 H 0.86703 0.92843 0.92713 0.0
H1112 H 0.90721 0.91776 0.9169 0.0
H1113 H 0.864 0.91759 0.90564 0.0
H1114 H 0.83536 0.87367 0.88566 0.0
H1115 H 0.85896 0.87975 0.85627 0.0
H1116 H 0.71068 0.6586 0.49906 0.0
H1117 H 0.69254 0.6603 0.46861 0.0
H1118 H 0.64407 0.59999 0.47241 0.0
H1119 H 0.66061 0.59853 0.50301 0.0
H1120 H 0.71539 0.63555 0.44293 0.0
H1121 H 0.56329 0.63077 0.44775 0.0
H1122 H 0.59225 0.63621 0.46622 0.0
H1123 H 0.58575 0.61025 0.45893 0.0
C1124 C 0.69547 0.64587 0.49353 0.0
C1125 C 0.68711 0.62843 0.50352 0.0
C1126 C 0.68529 0.64682 0.47609 0.0
C1127 C 0.66642 0.63042 0.46828 0.0
C1128 C 0.65784 0.61304 0.47823 0.0
H1129 H 0.65526 0.58942 0.36358 0.0
H1130 H 0.65997 0.59413 0.39496 0.0
C1131 C 0.66787 0.6121 0.49568 0.0
C1132 C 0.65823 0.63079 0.44946 0.0
H1133 H 0.58945 0.62399 0.4197 0.0
C1134 C 0.68777 0.63328 0.43788 0.0
C1135 C 0.62212 0.62799 0.44284 0.0
C1136 C 0.58899 0.62636 0.45459 0.0
C1137 C 0.68241 0.63225 0.41993 0.0
C1138 C 0.64669 0.62849 0.41338 0.0
C1139 C 0.61686 0.62671 0.42484 0.0
C1140 C 0.64058 0.62536 0.39464 0.0
C1141 C 0.71502 0.63483 0.40798 0.0
C1142 C 0.62744 0.64129 0.3842 0.0
C1143 C 0.62482 0.63868 0.36623 0.0
C1144 C 0.6355 0.62011 0.35849 0.0
C1145 C 0.64753 0.60401 0.36913 0.0
C1146 C 0.65 0.60662 0.38704 0.0
H1147 H 0.74018 0.63994 0.41498 0.0
H1148 H 0.72092 0.62002 0.40152 0.0
H1149 H 0.70858 0.64618 0.39772 0.0
H1150 H 0.62016 0.65589 0.38989 0.0
H1151 H 0.61555 0.65136 0.35835 0.0
H1152 H 0.27056 0.62099 0.01981 0.0
H1153 H 0.28991 0.62614 0.0499 0.0
H1154 H 0.39918 0.64244 0.03254 0.0
H1155 H 0.37988 0.63812 1.0025 0.0
H1156 H 0.34857 0.60735 0.0689 0.0
H1157 H 0.36781 0.69143 0.06245 0.0
H1158 H 0.34265 0.67638 0.04675 0.0
H1159 H 0.39221 0.67662 0.04662 0.0
C1160 C 0.29861 0.62587 0.02239 0.0
C1161 C 0.3236 0.62928 0.00873 0.0
C1162 C 0.30967 0.62862 0.03958 0.0
C1163 C 0.3458 0.63493 0.04338 0.0
C1164 C 0.37101 0.63787 0.02984 0.0
H1165 H 0.46943 0.66948 0.13413 0.0
H1166 H 0.44799 0.66049 0.10508 0.0
C1167 C 0.36 0.63518 0.01268 0.0
C1168 C 0.35717 0.63879 0.06148 0.0
H1169 H 0.38955 0.67624 0.08833 0.0
C1170 C 0.35736 0.62241 0.07323 0.0
C1171 C 0.36854 0.65847 0.06702 0.0
C1172 C 0.36753 0.67679 0.05511 0.0
C1173 C 0.36974 0.62508 0.09032 0.0
C1174 C 0.38149 0.64475 0.09581 0.0
C1175 C 0.38075 0.66115 0.08407 0.0
C1176 C 0.39501 0.64884 0.11359 0.0
C1177 C 0.37113 0.6067 0.10215 0.0
C1178 C 0.37233 0.64529 0.12802 0.0
C1179 C 0.38458 0.65037 0.14465 0.0
C1180 C 0.41952 0.65937 0.14709 0.0
C1181 C 0.4422 0.66281 0.13262 0.0
C1182 C 0.43007 0.65758 0.11605 0.0
H1183 H 0.3713 0.59212 0.09472 0.0
H1184 H 0.39592 0.60723 0.11056 0.0
H1185 H 0.34634 0.60661 0.11057 0.0
H1186 H 0.34482 0.63904 0.12641 0.0
H1187 H 0.36633 0.64775 0.15554 0.0
H1188 H 0.1346 0.85955 0.50456 0.0
H1189 H 0.11378 0.85603 0.53448 0.0
H1190 H 0.20776 0.89112 0.55192 0.0
H1191 H 0.22902 0.8946 0.52195 0.0
H1192 H 0.15397 0.83729 0.5608 0.0
H1193 H 0.12117 0.91795 0.57761 0.0
H1194 H 0.12649 0.90937 0.55552 0.0
H1195 H 0.16638 0.91387 0.56877 0.0
C1196 C 0.1509 0.8665 0.51474 0.0
C1197 C 0.18363 0.87722 0.51088 0.0
C1198 C 0.13881 0.86461 0.53182 0.0
C1199 C 0.15902 0.87349 0.54538 0.0
C1200 C 0.19137 0.8845 0.5416 0.0
H1201 H 0.13469 0.86403 0.65731 0.0
H1202 H 0.15447 0.87331 0.62801 0.0
C1203 C 0.20352 0.88643 0.52448 0.0
C1204 C 0.14742 0.86988 0.5635 0.0
H1205 H 0.11793 0.8936 0.60037 0.0
C1206 C 0.14598 0.84959 0.56944 0.0
C1207 C 0.13737 0.886 0.57475 0.0
C1208 C 0.13759 0.90803 0.56886 0.0
C1209 C 0.13478 0.84494 0.58635 0.0
C1210 C 0.12402 0.86099 0.59753 0.0
C1211 C 0.12601 0.88134 0.59171 0.0
C1212 C 0.11039 0.85676 0.61525 0.0
C1213 C 0.1351 0.82287 0.59219 0.0
C1214 C 0.07851 0.84485 0.61775 0.0
C1215 C 0.06714 0.83952 0.63444 0.0
C1216 C 0.08729 0.84614 0.64896 0.0
C1217 C 0.11846 0.85874 0.64641 0.0
C1218 C 0.12986 0.86403 0.62969 0.0
H1219 H 0.15307 0.81331 0.58383 0.0
H1220 H 0.14475 0.82158 0.60578 0.0
H1221 H 0.1067 0.81652 0.59146 0.0
H1222 H 0.06265 0.83947 0.60676 0.0
H1223 H 0.04256 0.83019 0.63597 0.0
H1224 H 0.18593 0.32144 0.3479 0.0
H1225 H 0.15792 0.29498 0.32961 0.0
H1226 H 0.14095 0.25677 0.37446 0.0
H1227 H 0.1683 0.28331 0.39291 0.0
H1228 H 0.18111 0.25347 0.32551 0.0
H1229 H 0.03836 0.25889 0.3511 0.0
H1230 H 0.07253 0.27872 0.35448 0.0
H1231 H 0.07342 0.25577 0.3673 0.0
C1232 C 0.17582 0.30751 0.35391 0.0
C1233 C 0.17914 0.30453 0.37189 0.0
C1234 C 0.16006 0.29236 0.34342 0.0
C1235 C 0.14701 0.27403 0.3507 0.0
C1236 C 0.1504 0.27094 0.36861 0.0
H1237 H 0.04509 0.16325 0.31113 0.0
H1238 H 0.07357 0.19012 0.32883 0.0
C1239 C 0.16632 0.28604 0.37911 0.0
C1240 C 0.13047 0.25797 0.33952 0.0
H1241 H 0.0508 0.23129 0.33209 0.0
C1242 C 0.15258 0.24866 0.32687 0.0
C1243 C 0.09324 0.25179 0.34133 0.0
C1244 C 0.06782 0.2619 0.35417 0.0
C1245 C 0.13864 0.23297 0.31623 0.0
C1246 C 0.10148 0.22669 0.31815 0.0
C1247 C 0.07933 0.23609 0.33072 0.0
C1248 C 0.08498 0.21033 0.30727 0.0
C1249 C 0.16398 0.2229 0.30331 0.0
C1250 C 0.0815 0.21294 0.28932 0.0
C1251 C 0.06492 0.1977 0.27921 0.0
C1252 C 0.05181 0.17952 0.28683 0.0
C1253 C 0.05506 0.17704 0.30484 0.0
C1254 C 0.07139 0.19235 0.31497 0.0
H1255 H 0.19345 0.22598 0.30629 0.0
H1256 H 0.1594 0.20607 0.303 0.0
H1257 H 0.15817 0.22901 0.29019 0.0
H1258 H 0.091 0.22691 0.28316 0.0
H1259 H 0.06171 0.20037 0.26548 0.0
H1260 H 0.39014 0.18473 0.87199 0.0
H1261 H 0.41826 0.21109 0.85364 0.0
H1262 H 0.31707 0.24531 0.85453 0.0
H1263 H 0.28825 0.21881 0.87238 0.0
H1264 H 0.38915 0.22537 0.81987 0.0
H1265 H 0.40025 0.28677 0.86955 0.0
H1266 H 0.39534 0.26002 0.87514 0.0
H1267 H 0.35614 0.27421 0.86778 0.0
C1268 C 0.37372 0.19778 0.86821 0.0
C1269 C 0.33688 0.19962 0.87374 0.0
C1270 C 0.38994 0.21287 0.85781 0.0
C1271 C 0.36982 0.23019 0.85291 0.0
C1272 C 0.33321 0.23218 0.85843 0.0
H1273 H 0.41674 0.33972 0.79325 0.0
H1274 H 0.38896 0.31285 0.81116 0.0
C1275 C 0.31686 0.21705 0.86871 0.0
C1276 C 0.38672 0.24594 0.84159 0.0
H1277 H 0.41478 0.29591 0.84071 0.0
C1278 C 0.39496 0.24078 0.8244 0.0
C1279 C 0.39393 0.26602 0.84757 0.0
C1280 C 0.38626 0.27216 0.86605 0.0
C1281 C 0.40962 0.25533 0.81287 0.0
C1282 C 0.41716 0.27541 0.81889 0.0
C1283 C 0.40899 0.28052 0.83612 0.0
C1284 C 0.43354 0.29137 0.80753 0.0
C1285 C 0.41588 0.24922 0.79426 0.0
C1286 C 0.4679 0.28829 0.79961 0.0
C1287 C 0.48335 0.30343 0.78903 0.0
C1288 C 0.46502 0.32207 0.78642 0.0
C1289 C 0.43103 0.32531 0.79466 0.0
C1290 C 0.41533 0.31006 0.80505 0.0
H1291 H 0.39904 0.23561 0.79064 0.0
H1292 H 0.40916 0.26195 0.78529 0.0
H1293 H 0.44531 0.24521 0.79244 0.0
H1294 H 0.48294 0.27423 0.80171 0.0
H1295 H 0.50964 0.30051 0.78288 0.0
H1296 H 0.67945 0.2239 0.62067 0.0
H1297 H 0.65323 0.25023 0.63959 0.0
H1298 H 0.6568 0.2083 0.68267 0.0
H1299 H 0.68389 0.18217 0.66405 0.0
H1300 H 0.58721 0.24834 0.65952 0.0
H1301 H 0.71054 0.25942 0.70112 0.0
H1302 H 0.71254 0.2466 0.68043 0.0
H1303 H 0.69522 0.23332 0.69915 0.0
C1304 C 0.67498 0.22036 0.6342 0.0
C1305 C 0.68385 0.20093 0.64084 0.0
C1306 C 0.65981 0.23537 0.64497 0.0
C1307 C 0.65357 0.2313 0.66258 0.0
C1308 C 0.66196 0.21188 0.66918 0.0
H1309 H 0.5643 0.30049 0.74918 0.0
H1310 H 0.59233 0.27452 0.73042 0.0
C1311 C 0.67705 0.19687 0.65846 0.0
C1312 C 0.63778 0.24724 0.67403 0.0
H1313 H 0.6556 0.27579 0.71017 0.0
C1314 C 0.6022 0.25444 0.67055 0.0
C1315 C 0.65735 0.25505 0.68846 0.0
C1316 C 0.69616 0.24837 0.69248 0.0
C1317 C 0.58536 0.26902 0.68128 0.0
C1318 C 0.60501 0.27692 0.69567 0.0
C1319 C 0.64059 0.2697 0.69916 0.0
C1320 C 0.58923 0.29287 0.70714 0.0
C1321 C 0.54635 0.27545 0.67735 0.0
C1322 C 0.57906 0.31195 0.70035 0.0
C1323 C 0.56315 0.32674 0.71101 0.0
C1324 C 0.55754 0.32285 0.72871 0.0
C1325 C 0.56865 0.30396 0.73561 0.0
C1326 C 0.58448 0.28911 0.72491 0.0
H1327 H 0.53183 0.264 0.66914 0.0
H1328 H 0.53026 0.27767 0.68944 0.0
H1329 H 0.54694 0.29019 0.6702 0.0
H1330 H 0.58331 0.31538 0.68678 0.0
H1331 H 0.55512 0.34124 0.70537 0.0
H1332 H 0.83709 0.28258 0.12293 0.0
H1333 H 0.86435 0.25651 0.14175 0.0
H1334 H 0.85569 0.29743 0.18535 0.0
H1335 H 0.82756 0.3233 0.16682 0.0
H1336 H 0.92961 0.26 0.16235 0.0
H1337 H 0.80546 0.24445 0.20253 0.0
H1338 H 0.80317 0.25759 0.18199 0.0
H1339 H 0.81869 0.27095 0.201 0.0
C1340 C 0.84064 0.28595 0.13656 0.0
C1341 C 0.8301 0.30503 0.14336 0.0
C1342 C 0.8564 0.27109 0.14726 0.0
C1343 C 0.86159 0.27496 0.16497 0.0
C1344 C 0.8514 0.29402 0.17177 0.0
H1345 H 0.94637 0.20292 0.25097 0.0
H1346 H 0.91996 0.2297 0.23263 0.0
C1347 C 0.83572 0.30887 0.1611 0.0
C1348 C 0.87826 0.25921 0.1763 0.0
H1349 H 0.86105 0.22885 0.21142 0.0
C1350 C 0.91462 0.25311 0.17304 0.0
C1351 C 0.85871 0.2504 0.19032 0.0
C1352 C 0.81924 0.25602 0.19414 0.0
C1353 C 0.9322 0.23862 0.18358 0.0
C1354 C 0.91248 0.22958 0.19748 0.0
C1355 C 0.87614 0.23577 0.20077 0.0
C1356 C 0.9288 0.21342 0.20858 0.0
C1357 C 0.97199 0.23353 0.17994 0.0
C1358 C 0.94204 0.19525 0.2012 0.0
C1359 C 0.95746 0.18006 0.2116 0.0
C1360 C 0.95932 0.18254 0.22966 0.0
C1361 C 0.94535 0.20055 0.23709 0.0
C1362 C 0.93026 0.21586 0.22664 0.0
H1363 H 0.98605 0.24603 0.1727 0.0
H1364 H 0.98743 0.23068 0.1921 0.0
H1365 H 0.97319 0.2195 0.17185 0.0
H1366 H 0.94018 0.19272 0.18737 0.0
H1367 H 0.96749 0.16624 0.20548 0.0
H1368 H 0.88497 0.68773 0.63864 0.0
H1369 H 0.91482 0.71346 0.65718 0.0
H1370 H 0.81157 0.7454 0.66195 0.0
H1371 H 0.78156 0.71957 0.64381 0.0
H1372 H 0.92451 0.75449 0.6548 0.0
H1373 H 0.83783 0.73698 0.71199 0.0
H1374 H 0.83835 0.72087 0.69302 0.0
H1375 H 0.81073 0.7437 0.69346 0.0
C1376 C 0.86876 0.70033 0.64357 0.0
C1377 C 0.83084 0.70152 0.63997 0.0
C1378 C 0.88579 0.71497 0.6542 0.0
C1379 C 0.86521 0.73106 0.66134 0.0
C1380 C 0.82774 0.73276 0.65708 0.0
H1381 H 0.90947 0.83873 0.72308 0.0
H1382 H 0.88356 0.81206 0.70433 0.0
C1383 C 0.81066 0.71805 0.64664 0.0
C1384 C 0.88268 0.74605 0.67333 0.0
H1385 H 0.87368 0.76773 0.71339 0.0
C1386 C 0.91358 0.75727 0.66766 0.0
C1387 C 0.86864 0.74954 0.6902 0.0
C1388 C 0.83732 0.73698 0.69761 0.0
C1389 C 0.93001 0.77233 0.67818 0.0
C1390 C 0.91515 0.7762 0.69478 0.0
C1391 C 0.88469 0.76482 0.70056 0.0
C1392 C 0.93074 0.7921 0.70635 0.0
C1393 C 0.96274 0.78424 0.67142 0.0
C1394 C 0.96547 0.78947 0.71395 0.0
C1395 C 0.97989 0.80443 0.72502 0.0
C1396 C 0.96001 0.82239 0.72851 0.0
C1397 C 0.92517 0.82493 0.72089 0.0
C1398 C 0.9105 0.80981 0.71005 0.0
H1399 H 0.96645 0.78223 0.65724 0.0
H1400 H 0.95981 0.80083 0.67428 0.0
H1401 H 0.98805 0.77881 0.67799 0.0
H1402 H 0.98126 0.77576 0.71143 0.0
H1403 H 0.00656 0.80188 0.73091 0.0
H1404 H 0.67331 0.78164 0.12237 0.0
H1405 H 0.644 0.75511 0.14019 0.0
H1406 H 0.65417 0.7939 0.18514 0.0
H1407 H 0.68329 0.82046 0.16746 0.0
H1408 H 0.6778 0.75476 0.19135 0.0
H1409 H 0.53999 0.75368 0.16022 0.0
H1410 H 0.57759 0.75002 0.14543 0.0
H1411 H 0.57307 0.774 0.15665 0.0
C1412 C 0.66884 0.78463 0.136 0.0
C1413 C 0.68077 0.80317 0.14349 0.0
C1414 C 0.65208 0.76944 0.14617 0.0
C1415 C 0.64659 0.77258 0.16398 0.0
C1416 C 0.65819 0.79112 0.17144 0.0
H1417 H 0.50459 0.70278 0.23236 0.0
H1418 H 0.53448 0.72863 0.21418 0.0
C1419 C 0.67498 0.80626 0.16131 0.0
C1420 C 0.62982 0.75637 0.17502 0.0
H1421 H 0.55185 0.72761 0.18079 0.0
C1422 C 0.65024 0.74882 0.18906 0.0
C1423 C 0.59369 0.74884 0.17216 0.0
C1424 C 0.56961 0.75716 0.15791 0.0
C1425 C 0.63561 0.73391 0.20029 0.0
C1426 C 0.59984 0.72595 0.19715 0.0
C1427 C 0.57938 0.73356 0.18312 0.0
C1428 C 0.58251 0.71026 0.20855 0.0
C1429 C 0.65822 0.7273 0.21569 0.0
C1430 C 0.59945 0.69125 0.21145 0.0
C1431 C 0.58247 0.67649 0.22195 0.0
C1432 C 0.54798 0.68034 0.22951 0.0
C1433 C 0.53106 0.69933 0.22659 0.0
C1434 C 0.54814 0.71412 0.21621 0.0
H1435 H 0.67982 0.73879 0.21897 0.0
H1436 H 0.64055 0.72484 0.22725 0.0
H1437 H 0.67223 0.71268 0.21262 0.0
H1438 H 0.62551 0.68768 0.20535 0.0
H1439 H 0.59589 0.66188 0.22379 0.0
H1440 H 0.27372 0.78327 0.37124 0.0
H1441 H 0.30286 0.75837 0.35199 0.0
H1442 H 0.40092 0.79605 0.35001 0.0
H1443 H 0.37223 0.82066 0.36971 0.0
H1444 H 0.32624 0.76238 0.31962 0.0
H1445 H 0.44497 0.74164 0.36113 0.0
H1446 H 0.40682 0.7565 0.3691 0.0
H1447 H 0.4428 0.76854 0.35659 0.0
C1448 C 0.30161 0.78612 0.36679 0.0
C1449 C 0.32086 0.80379 0.37205 0.0
C1450 C 0.31821 0.77193 0.35578 0.0
C1451 C 0.35429 0.77517 0.34972 0.0
C1452 C 0.37346 0.79291 0.35487 0.0
H1453 H 0.44722 0.70601 0.26232 0.0
H1454 H 0.41936 0.7331 0.28004 0.0
C1455 C 0.35704 0.80699 0.36609 0.0
C1456 C 0.37127 0.76019 0.3377 0.0
H1457 H 0.44546 0.7289 0.3324 0.0
C1458 C 0.35229 0.75503 0.32243 0.0
C1459 C 0.40514 0.75049 0.34142 0.0
C1460 C 0.42595 0.7544 0.35802 0.0
C1461 C 0.36606 0.74033 0.31087 0.0
C1462 C 0.40023 0.73094 0.31445 0.0
C1463 C 0.41939 0.73625 0.32961 0.0
C1464 C 0.41571 0.71462 0.30328 0.0
C1465 C 0.34328 0.73451 0.29526 0.0
C1466 C 0.42326 0.69539 0.31048 0.0
C1467 C 0.43941 0.6801 0.30049 0.0
C1468 C 0.44826 0.68369 0.28305 0.0
C1469 C 0.44021 0.70281 0.27569 0.0
C1470 C 0.42426 0.71824 0.28578 0.0
H1471 H 0.31405 0.73918 0.29674 0.0
H1472 H 0.35461 0.74233 0.28366 0.0
H1473 H 0.34412 0.71773 0.29294 0.0
H1474 H 0.41686 0.69223 0.32393 0.0
H1475 H 0.4452 0.66546 0.30648 0.0
H1476 H 0.12938 0.69048 0.87594 0.0
H1477 H 0.10001 0.71616 0.85749 0.0
H1478 H 0.20575 0.74491 0.84866 0.0
H1479 H 0.23527 0.71909 0.86679 0.0
H1480 H 0.09456 0.75676 0.85923 0.0
H1481 H 0.1711 0.73629 0.7998 0.0
H1482 H 0.17211 0.72072 0.81907 0.0
H1483 H 0.20147 0.74296 0.81725 0.0
C1484 C 0.14629 0.70236 0.87014 0.0
C1485 C 0.18468 0.70265 0.87266 0.0
C1486 C 0.12952 0.71698 0.85956 0.0
C1487 C 0.15079 0.73218 0.85133 0.0
C1488 C 0.18891 0.73296 0.8544 0.0
H1489 H 0.06139 0.84409 0.80744 0.0
H1490 H 0.09081 0.81822 0.82563 0.0
C1491 C 0.20573 0.71825 0.86483 0.0
C1492 C 0.13312 0.74729 0.83964 0.0
H1493 H 0.13797 0.76774 0.79902 0.0
C1494 C 0.10388 0.75908 0.84602 0.0
C1495 C 0.14471 0.75001 0.82228 0.0
C1496 C 0.17378 0.73666 0.81413 0.0
C1497 C 0.08644 0.77381 0.83566 0.0
C1498 C 0.09952 0.7774 0.81862 0.0
C1499 C 0.12825 0.76527 0.81214 0.0
C1500 C 0.08358 0.79345 0.80722 0.0
C1501 C 0.05361 0.78494 0.84303 0.0
C1502 C 0.07175 0.78854 0.79038 0.0
C1503 C 0.0562 0.80352 0.77974 0.0
C1504 C 0.05171 0.82356 0.7859 0.0
C1505 C 0.06417 0.82862 0.80255 0.0
C1506 C 0.0806 0.81379 0.813 0.0
H1507 H 0.0399 0.77584 0.85337 0.0
H1508 H 0.06302 0.79957 0.84891 0.0
H1509 H 0.03295 0.78839 0.83286 0.0
H1510 H 0.07396 0.77301 0.78555 0.0
H1511 H 0.0466 0.7993 0.76694 0.0
loop_
_geom_bond_atom_site_label_1
_geom_bond_atom_site_label_2
_geom_bond_distance
_geom_bond_site_symmetry_2
_ccdc_geom_bond_type
C0 C1 1.386 . S
C0 C2 1.397 . S
C0 H24 0.931 . S
C1 C0 1.386 . S
C1 C5 1.397 . S
C2 C0 1.397 . S
C2 C3 1.384 . S
C2 H25 0.930 . S
C3 C2 1.384 . S
C3 C4 1.377 . S
C3 C6 1.481 . S
C4 C3 1.377 . S
C4 C5 1.389 . S
C4 H26 0.929 . S
C5 C1 1.397 . S
C5 C4 1.389 . S
C5 H27 0.931 . S
C6 C3 1.481 . S
C6 C7 1.387 . S
C6 C11 1.390 . S
C7 C6 1.387 . S
C7 C8 1.401 . S
C7 H28 0.930 . S
C8 C7 1.401 . S
C8 C9 1.376 . S
C8 C17 1.511 . S
C9 C8 1.376 . S
C9 C10 1.392 . S
C9 H30 0.931 . S
C10 C9 1.392 . S
C10 C11 1.361 . S
C10 C12 1.500 . S
C11 C6 1.390 . S
C11 C10 1.361 . S
C11 H29 0.931 . S
C12 C10 1.500 . S
C12 C13 1.371 . S
C12 C14 1.365 . S
C13 C12 1.371 . S
C13 C23 1.386 . S
C13 H31 0.931 . S
C14 C12 1.365 . S
C14 C15 1.409 . S
C14 H32 0.929 . S
C15 C14 1.409 . S
C15 C16 1.380 . S
C15 H33 0.930 . S
C16 C15 1.380 . S
C16 C23 1.357 . S
C17 C8 1.511 . S
C17 C18 1.341 . S
C17 C19 1.371 . S
C18 C17 1.341 . S
C18 C22 1.394 . S
C18 H34 0.930 . S
C19 C17 1.371 . S
C19 C20 1.392 . S
C19 H35 0.931 . S
C20 C19 1.392 . S
C20 C21 1.331 . S
C20 H38 0.932 . S
C21 C20 1.331 . S
C21 C22 1.336 . S
C22 C18 1.394 . S
C22 C21 1.336 . S
C22 H37 0.929 . S
C23 C13 1.386 . S
C23 C16 1.357 . S
C23 H36 0.928 . S
H24 C0 0.931 . S
H25 C2 0.930 . S
H26 C4 0.929 . S
H27 C5 0.931 . S
H28 C7 0.930 . S
H29 C11 0.931 . S
H30 C9 0.931 . S
H31 C13 0.931 . S
H32 C14 0.929 . S
H33 C15 0.930 . S
H34 C18 0.930 . S
H35 C19 0.931 . S
H36 C23 0.928 . S
H37 C22 0.929 . S
H38 C20 0.932 . S
C39 C40 1.386 . S
C39 C41 1.397 . S
C39 H63 0.931 . S
C40 C39 1.386 . S
C40 C44 1.397 . S
C41 C39 1.397 . S
C41 C42 1.384 . S
C41 H64 0.930 . S
C42 C41 1.384 . S
C42 C43 1.377 . S
C42 C45 1.481 . S
C43 C42 1.377 . S
C43 C44 1.389 . S
C43 H65 0.929 . S
C44 C40 1.397 . S
C44 C43 1.389 . S
C44 H66 0.931 . S
C45 C42 1.481 . S
C45 C46 1.387 . S
C45 C50 1.390 . S
C46 C45 1.387 . S
C46 C47 1.401 . S
C46 H67 0.930 . S
C47 C46 1.401 . S
C47 C48 1.376 . S
C47 C56 1.511 . S
C48 C47 1.376 . S
C48 C49 1.392 . S
C48 H69 0.931 . S
C49 C48 1.392 . S
C49 C50 1.361 . S
C49 C51 1.500 . S
C50 C45 1.390 . S
C50 C49 1.361 . S
C50 H68 0.931 . S
C51 C49 1.500 . S
C51 C52 1.371 . S
C51 C53 1.365 . S
C52 C51 1.371 . S
C52 C62 1.386 . S
C52 H70 0.931 . S
C53 C51 1.365 . S
C53 C54 1.409 . S
C53 H71 0.929 . S
C54 C53 1.409 . S
C54 C55 1.380 . S
C54 H72 0.930 . S
C55 C54 1.380 . S
C55 C62 1.357 . S
C56 C47 1.511 . S
C56 C57 1.341 . S
C56 C58 1.371 . S
C57 C56 1.341 . S
C57 C61 1.394 . S
C57 H73 0.930 . S
C58 C56 1.371 . S
C58 C59 1.392 . S
C58 H74 0.931 . S
C59 C58 1.392 . S
C59 C60 1.331 . S
C59 H77 0.932 . S
C60 C59 1.331 . S
C60 C61 1.336 . S
C61 C57 1.394 . S
C61 C60 1.336 . S
C61 H76 0.929 . S
C62 C52 1.386 . S
C62 C55 1.357 . S
C62 H75 0.928 . S
H63 C39 0.931 . S
H64 C41 0.930 . S
H65 C43 0.929 . S
H66 C44 0.931 . S
H67 C46 0.930 . S
H68 C50 0.931 . S
H69 C48 0.931 . S
H70 C52 0.931 . S
H71 C53 0.929 . S
H72 C54 0.930 . S
H73 C57 0.930 . S
H74 C58 0.931 . S
H75 C62 0.928 . S
H76 C61 0.929 . S
H77 C59 0.932 . S
C78 C79 1.386 . S
C78 C80 1.397 . S
C78 H102 0.931 . S
C79 C78 1.386 . S
C79 C83 1.397 . S
C80 C78 1.397 . S
C80 C81 1.384 . S
C80 H103 0.930 . S
C81 C80 1.384 . S
C81 C82 1.377 . S
C81 C84 1.481 . S
C82 C81 1.377 . S
C82 C83 1.389 . S
C82 H104 0.929 . S
C83 C79 1.397 . S
C83 C82 1.389 . S
C83 H105 0.931 . S
C84 C81 1.481 . S
C84 C85 1.387 . S
C84 C89 1.390 . S
C85 C84 1.387 . S
C85 C86 1.401 . S
C85 H106 0.930 . S
C86 C85 1.401 . S
C86 C87 1.376 . S
C86 C95 1.511 . S
C87 C86 1.376 . S
C87 C88 1.392 . S
C87 H108 0.931 . S
C88 C87 1.392 . S
C88 C89 1.361 . S
C88 C90 1.500 . S
C89 C84 1.390 . S
C89 C88 1.361 . S
C89 H107 0.931 . S
C90 C88 1.500 . S
C90 C91 1.371 . S
C90 C92 1.365 . S
C91 C90 1.371 . S
C91 C101 1.386 . S
C91 H109 0.931 . S
C92 C90 1.365 . S
C92 C93 1.409 . S
C92 H110 0.929 . S
C93 C92 1.409 . S
C93 C94 1.380 . S
C93 H111 0.930 . S
C94 C93 1.380 . S
C94 C101 1.357 . S
C95 C86 1.511 . S
C95 C96 1.341 . S
C95 C97 1.371 . S
C96 C95 1.341 . S
C96 C100 1.394 . S
C96 H112 0.930 . S
C97 C95 1.371 . S
C97 C98 1.392 . S
C97 H113 0.931 . S
C98 C97 1.392 . S
C98 C99 1.331 . S
C98 H116 0.932 . S
C99 C98 1.331 . S
C99 C100 1.336 . S
C100 C96 1.394 . S
C100 C99 1.336 . S
C100 H115 0.929 . S
C101 C91 1.386 . S
C101 C94 1.357 . S
C101 H114 0.928 . S
H102 C78 0.931 . S
H103 C80 0.930 . S
H104 C82 0.929 . S
H105 C83 0.931 . S
H106 C85 0.930 . S
H107 C89 0.931 . S
H108 C87 0.931 . S
H109 C91 0.931 . S
H110 C92 0.929 . S
H111 C93 0.930 . S
H112 C96 0.930 . S
H113 C97 0.931 . S
H114 C101 0.928 . S
H115 C100 0.929 . S
H116 C98 0.932 . S
C117 C118 1.386 . S
C117 C119 1.397 . S
C117 H141 0.931 . S
C118 C117 1.386 . S
C118 C122 1.397 . S
C119 C117 1.397 . S
C119 C120 1.384 . S
C119 H142 0.930 . S
C120 C119 1.384 . S
C120 C121 1.377 . S
C120 C123 1.481 . S
C121 C120 1.377 . S
C121 C122 1.389 . S
C121 H143 0.929 . S
C122 C118 1.397 . S
C122 C121 1.389 . S
C122 H144 0.931 . S
C123 C120 1.481 . S
C123 C124 1.387 . S
C123 C128 1.390 . S
C124 C123 1.387 . S
C124 C125 1.401 . S
C124 H145 0.930 . S
C125 C124 1.401 . S
C125 C126 1.376 . S
C125 C134 1.511 . S
C126 C125 1.376 . S
C126 C127 1.392 . S
C126 H147 0.931 . S
C127 C126 1.392 . S
C127 C128 1.361 . S
C127 C129 1.500 . S
C128 C123 1.390 . S
C128 C127 1.361 . S
C128 H146 0.931 . S
C129 C127 1.500 . S
C129 C130 1.371 . S
C129 C131 1.365 . S
C130 C129 1.371 . S
C130 C140 1.386 . S
C130 H148 0.931 . S
C131 C129 1.365 . S
C131 C132 1.409 . S
C131 H149 0.929 . S
C132 C131 1.409 . S
C132 C133 1.380 . S
C132 H150 0.930 . S
C133 C132 1.380 . S
C133 C140 1.357 . S
C134 C125 1.511 . S
C134 C135 1.341 . S
C134 C136 1.371 . S
C135 C134 1.341 . S
C135 C139 1.394 . S
C135 H151 0.930 . S
C136 C134 1.371 . S
C136 C137 1.392 . S
C136 H152 0.931 . S
C137 C136 1.392 . S
C137 C138 1.331 . S
C137 H155 0.932 . S
C138 C137 1.331 . S
C138 C139 1.336 . S
C139 C135 1.394 . S
C139 C138 1.336 . S
C139 H154 0.929 . S
C140 C130 1.386 . S
C140 C133 1.357 . S
C140 H153 0.928 . S
H141 C117 0.931 . S
H142 C119 0.930 . S
H143 C121 0.929 . S
H144 C122 0.931 . S
H145 C124 0.930 . S
H146 C128 0.931 . S
H147 C126 0.931 . S
H148 C130 0.931 . S
H149 C131 0.929 . S
H150 C132 0.930 . S
H151 C135 0.930 . S
H152 C136 0.931 . S
H153 C140 0.928 . S
H154 C139 0.929 . S
H155 C137 0.932 . S
C156 C157 1.386 . S
C156 C158 1.397 . S
C156 H180 0.931 . S
C157 C156 1.386 . S
C157 C161 1.397 . S
C158 C156 1.397 . S
C158 C159 1.384 . S
C158 H181 0.930 . S
C159 C158 1.384 . S
C159 C160 1.377 . S
C159 C162 1.481 . S
C160 C159 1.377 . S
C160 C161 1.389 . S
C160 H182 0.929 . S
C161 C157 1.397 . S
C161 C160 1.389 . S
C161 H183 0.931 . S
C162 C159 1.481 . S
C162 C163 1.387 . S
C162 C167 1.390 . S
C163 C162 1.387 . S
C163 C164 1.401 . S
C163 H184 0.930 . S
C164 C163 1.401 . S
C164 C165 1.376 . S
C164 C173 1.511 . S
C165 C164 1.376 . S
C165 C166 1.392 . S
C165 H186 0.931 . S
C166 C165 1.392 . S
C166 C167 1.361 . S
C166 C168 1.500 . S
C167 C162 1.390 . S
C167 C166 1.361 . S
C167 H185 0.931 . S
C168 C166 1.500 . S
C168 C169 1.371 . S
C168 C170 1.365 . S
C169 C168 1.371 . S
C169 C179 1.386 . S
C169 H187 0.931 . S
C170 C168 1.365 . S
C170 C171 1.409 . S
C170 H188 0.929 . S
C171 C170 1.409 . S
C171 C172 1.380 . S
C171 H189 0.930 . S
C172 C171 1.380 . S
C172 C179 1.357 . S
C173 C164 1.511 . S
C173 C174 1.341 . S
C173 C175 1.371 . S
C174 C173 1.341 . S
C174 C178 1.394 . S
C174 H190 0.930 . S
C175 C173 1.371 . S
C175 C176 1.392 . S
C175 H191 0.931 . S
C176 C175 1.392 . S
C176 C177 1.331 . S
C176 H194 0.932 . S
C177 C176 1.331 . S
C177 C178 1.336 . S
C178 C174 1.394 . S
C178 C177 1.336 . S
C178 H193 0.929 . S
C179 C169 1.386 . S
C179 C172 1.357 . S
C179 H192 0.928 . S
H180 C156 0.931 . S
H181 C158 0.930 . S
H182 C160 0.929 . S
H183 C161 0.931 . S
H184 C163 0.930 . S
H185 C167 0.931 . S
H186 C165 0.931 . S
H187 C169 0.931 . S
H188 C170 0.929 . S
H189 C171 0.930 . S
H190 C174 0.930 . S
H191 C175 0.931 . S
H192 C179 0.928 . S
H193 C178 0.929 . S
H194 C176 0.932 . S
C195 C196 1.386 . S
C195 C197 1.397 . S
C195 H219 0.931 . S
C196 C195 1.386 . S
C196 C200 1.397 . S
C197 C195 1.397 . S
C197 C198 1.384 . S
C197 H220 0.930 . S
C198 C197 1.384 . S
C198 C199 1.377 . S
C198 C201 1.481 . S
C199 C198 1.377 . S
C199 C200 1.389 . S
C199 H221 0.929 . S
C200 C196 1.397 . S
C200 C199 1.389 . S
C200 H222 0.931 . S
C201 C198 1.481 . S
C201 C202 1.387 . S
C201 C206 1.390 . S
C202 C201 1.387 . S
C202 C203 1.401 . S
C202 H223 0.930 . S
C203 C202 1.401 . S
C203 C204 1.376 . S
C203 C212 1.511 . S
C204 C203 1.376 . S
C204 C205 1.392 . S
C204 H225 0.931 . S
C205 C204 1.392 . S
C205 C206 1.361 . S
C205 C207 1.500 . S
C206 C201 1.390 . S
C206 C205 1.361 . S
C206 H224 0.931 . S
C207 C205 1.500 . S
C207 C208 1.371 . S
C207 C209 1.365 . S
C208 C207 1.371 . S
C208 C218 1.386 . S
C208 H226 0.931 . S
C209 C207 1.365 . S
C209 C210 1.409 . S
C209 H227 0.929 . S
C210 C209 1.409 . S
C210 C211 1.380 . S
C210 H228 0.930 . S
C211 C210 1.380 . S
C211 C218 1.357 . S
C212 C203 1.511 . S
C212 C213 1.341 . S
C212 C214 1.371 . S
C213 C212 1.341 . S
C213 C217 1.394 . S
C213 H229 0.930 . S
C214 C212 1.371 . S
C214 C215 1.392 . S
C214 H230 0.931 . S
C215 C214 1.392 . S
C215 C216 1.331 . S
C215 H233 0.932 . S
C216 C215 1.331 . S
C216 C217 1.336 . S
C217 C213 1.394 . S
C217 C216 1.336 . S
C217 H232 0.929 . S
C218 C208 1.386 . S
C218 C211 1.357 . S
C218 H231 0.928 . S
H219 C195 0.931 . S
H220 C197 0.930 . S
H221 C199 0.929 . S
H222 C200 0.931 . S
H223 C202 0.930 . S
H224 C206 0.931 . S
H225 C204 0.931 . S
H226 C208 0.931 . S
H227 C209 0.929 . S
H228 C210 0.930 . S
H229 C213 0.930 . S
H230 C214 0.931 . S
H231 C218 0.928 . S
H232 C217 0.929 . S
H233 C215 0.932 . S
C234 C235 1.386 . S
C234 C236 1.397 . S
C234 H258 0.931 . S
C235 C234 1.386 . S
C235 C239 1.397 . S
C236 C234 1.397 . S
C236 C237 1.384 . S
C236 H259 0.930 . S
C237 C236 1.384 . S
C237 C238 1.377 . S
C237 C240 1.481 . S
C238 C237 1.377 . S
C238 C239 1.389 . S
C238 H260 0.929 . S
C239 C235 1.397 . S
C239 C238 1.389 . S
C239 H261 0.931 . S
C240 C237 1.481 . S
C240 C241 1.387 . S
C240 C245 1.390 . S
C241 C240 1.387 . S
C241 C242 1.401 . S
C241 H262 0.930 . S
C242 C241 1.401 . S
C242 C243 1.376 . S
C242 C251 1.511 . S
C243 C242 1.376 . S
C243 C244 1.392 . S
C243 H264 0.931 . S
C244 C243 1.392 . S
C244 C245 1.361 . S
C244 C246 1.500 . S
C245 C240 1.390 . S
C245 C244 1.361 . S
C245 H263 0.931 . S
C246 C244 1.500 . S
C246 C247 1.371 . S
C246 C248 1.365 . S
C247 C246 1.371 . S
C247 C257 1.386 . S
C247 H265 0.931 . S
C248 C246 1.365 . S
C248 C249 1.409 . S
C248 H266 0.929 . S
C249 C248 1.409 . S
C249 C250 1.380 . S
C249 H267 0.930 . S
C250 C249 1.380 . S
C250 C257 1.357 . S
C251 C242 1.511 . S
C251 C252 1.341 . S
C251 C253 1.371 . S
C252 C251 1.341 . S
C252 C256 1.394 . S
C252 H268 0.930 . S
C253 C251 1.371 . S
C253 C254 1.392 . S
C253 H269 0.931 . S
C254 C253 1.392 . S
C254 C255 1.331 . S
C254 H272 0.932 . S
C255 C254 1.331 . S
C255 C256 1.336 . S
C256 C252 1.394 . S
C256 C255 1.336 . S
C256 H271 0.929 . S
C257 C247 1.386 . S
C257 C250 1.357 . S
C257 H270 0.928 . S
H258 C234 0.931 . S
H259 C236 0.930 . S
H260 C238 0.929 . S
H261 C239 0.931 . S
H262 C241 0.930 . S
H263 C245 0.931 . S
H264 C243 0.931 . S
H265 C247 0.931 . S
H266 C248 0.929 . S
H267 C249 0.930 . S
H268 C252 0.930 . S
H269 C253 0.931 . S
H270 C257 0.928 . S
H271 C256 0.929 . S
H272 C254 0.932 . S
C273 C274 1.386 . S
C273 C275 1.397 . S
C273 H297 0.931 . S
C274 C273 1.386 . S
C274 C278 1.397 . S
C275 C273 1.397 . S
C275 C276 1.384 . S
C275 H298 0.930 . S
C276 C275 1.384 . S
C276 C277 1.377 . S
C276 C279 1.481 . S
C277 C276 1.377 . S
C277 C278 1.389 . S
C277 H299 0.929 . S
C278 C274 1.397 . S
C278 C277 1.389 . S
C278 H300 0.931 . S
C279 C276 1.481 . S
C279 C280 1.387 . S
C279 C284 1.390 . S
C280 C279 1.387 . S
C280 C281 1.401 . S
C280 H301 0.930 . S
C281 C280 1.401 . S
C281 C282 1.376 . S
C281 C290 1.511 . S
C282 C281 1.376 . S
C282 C283 1.392 . S
C282 H303 0.931 . S
C283 C282 1.392 . S
C283 C284 1.361 . S
C283 C285 1.500 . S
C284 C279 1.390 . S
C284 C283 1.361 . S
C284 H302 0.931 . S
C285 C283 1.500 . S
C285 C286 1.371 . S
C285 C287 1.365 . S
C286 C285 1.371 . S
C286 C296 1.386 . S
C286 H304 0.931 . S
C287 C285 1.365 . S
C287 C288 1.409 . S
C287 H305 0.929 . S
C288 C287 1.409 . S
C288 C289 1.380 . S
C288 H306 0.930 . S
C289 C288 1.380 . S
C289 C296 1.357 . S
C290 C281 1.511 . S
C290 C291 1.341 . S
C290 C292 1.371 . S
C291 C290 1.341 . S
C291 C295 1.394 . S
C291 H307 0.930 . S
C292 C290 1.371 . S
C292 C293 1.392 . S
C292 H308 0.931 . S
C293 C292 1.392 . S
C293 C294 1.331 . S
C293 H311 0.932 . S
C294 C293 1.331 . S
C294 C295 1.336 . S
C295 C291 1.394 . S
C295 C294 1.336 . S
C295 H310 0.929 . S
C296 C286 1.386 . S
C296 C289 1.357 . S
C296 H309 0.928 . S
H297 C273 0.931 . S
H298 C275 0.930 . S
H299 C277 0.929 . S
H300 C278 0.931 . S
H301 C280 0.930 . S
H302 C284 0.931 . S
H303 C282 0.931 . S
H304 C286 0.931 . S
H305 C287 0.929 . S
H306 C288 0.930 . S
H307 C291 0.930 . S
H308 C292 0.931 . S
H309 C296 0.928 . S
H310 C295 0.929 . S
H311 C293 0.932 . S
Tb312 N341 2.617 . S
Tb312 N347 2.572 . S
Tb312 O356 2.465 . S
Tb312 O357 2.387 . S
Tb312 O359 2.428 . S
Tb312 O360 2.308 . S
Tb312 O364 2.349 . S
Tb312 O367 2.393 . S
Tb312 C376 2.802 . S
C313 N314 1.379 . S
C313 C316 1.416 . S
C313 C320 1.424 . S
N314 C313 1.379 . S
N314 C317 1.334 . S
N314 Tb323 2.617 . S
C315 C317 1.390 . S
C315 C318 1.339 . S
C315 H335 0.930 . S
C316 C313 1.416 . S
C316 C318 1.416 . S
C316 C322 1.448 . S
C317 N314 1.334 . S
C317 C315 1.390 . S
C317 H328 0.930 . S
C318 C315 1.339 . S
C318 C316 1.416 . S
C318 H339 0.930 . S
C319 C320 1.413 . S
C319 C321 1.427 . S
C319 C325 1.416 . S
C320 C313 1.424 . S
C320 C319 1.413 . S
C320 N324 1.361 . S
C321 C319 1.427 . S
C321 C322 1.328 . S
C321 H336 0.929 . S
C322 C316 1.448 . S
C322 C321 1.328 . S
C322 H337 0.930 . S
Tb323 N314 2.617 . S
Tb323 N324 2.572 . S
Tb323 O358 2.349 1_655 S
Tb323 O361 2.393 . S
Tb323 O362 2.465 . S
Tb323 O363 2.387 . S
Tb323 O365 2.428 . S
Tb323 O366 2.308 1_655 S
Tb323 C387 2.802 . S
N324 C320 1.361 . S
N324 Tb323 2.572 . S
N324 C326 1.340 . S
C325 C319 1.416 . S
C325 C327 1.332 . S
C325 H333 0.931 . S
C326 N324 1.340 . S
C326 C327 1.407 . S
C326 H332 0.930 . S
C327 C325 1.332 . S
C327 C326 1.407 . S
C327 H329 0.929 . S
H328 C317 0.930 . S
H329 C327 0.929 . S
H330 C345 0.930 . S
H331 C352 0.929 . S
H332 C326 0.930 . S
H333 C325 0.931 . S
H334 C348 0.930 . S
H335 C315 0.930 . S
H336 C321 0.929 . S
H337 C322 0.930 . S
H338 C343 0.930 . S
H339 C318 0.930 . S
H340 C351 0.931 . S
N341 Tb312 2.617 . S
N341 C342 1.379 . S
N341 C345 1.334 . S
C342 N341 1.379 . S
C342 C344 1.416 . S
C342 C350 1.424 . S
C343 H338 0.930 . S
C343 C345 1.390 . S
C343 C346 1.339 . S
C344 C342 1.416 . S
C344 C346 1.416 . S
C344 C377 1.448 . S
C345 H330 0.930 . S
C345 N341 1.334 . S
C345 C343 1.390 . S
C346 C343 1.339 . S
C346 C344 1.416 . S
C346 H353 0.930 . S
N347 Tb312 2.572 . S
N347 C348 1.340 . S
N347 C350 1.361 . S
C348 H334 0.930 . S
C348 N347 1.340 . S
C348 C352 1.407 . S
C349 C350 1.413 . S
C349 C351 1.416 . S
C349 C378 1.427 . S
C350 C342 1.424 . S
C350 N347 1.361 . S
C350 C349 1.413 . S
C351 H340 0.931 . S
C351 C349 1.416 . S
C351 C352 1.332 . S
C352 H331 0.929 . S
C352 C348 1.407 . S
C352 C351 1.332 . S
H353 C346 0.930 . S
H354 C377 0.930 . S
H355 C378 0.929 . S
O356 Tb312 2.465 . S
O356 C376 1.264 . S
O357 Tb312 2.387 . S
O357 C368 1.264 . S
O358 Tb323 2.349 1_455 S
O358 C368 1.243 . S
O359 Tb312 2.428 . S
O359 C376 1.256 . S
O360 Tb312 2.308 . S
O360 C375 1.266 1_455 S
O361 Tb323 2.393 . S
O361 C375 1.248 . S
O362 Tb323 2.465 . S
O362 C387 1.264 . S
O363 Tb323 2.387 . S
O363 C379 1.264 . S
O364 Tb312 2.349 . S
O364 C379 1.243 1_455 S
O365 Tb323 2.428 . S
O365 C387 1.256 . S
O366 Tb323 2.308 1_455 S
O366 C386 1.266 . S
O367 Tb312 2.393 . S
O367 C386 1.248 . S
C368 O357 1.264 . S
C368 O358 1.243 . S
C369 C372 1.399 . S
C369 C374 1.383 . S
C369 C376 1.496 . S
C370 C371 1.399 . S
C370 C374 1.389 . S
C371 C370 1.399 . S
C371 C373 1.380 . S
C371 H388 0.929 . S
C372 C369 1.399 . S
C372 C373 1.392 . S
C372 H389 0.929 . S
C373 C371 1.380 . S
C373 C372 1.392 . S
C373 H390 0.929 . S
C374 C369 1.383 . S
C374 C370 1.389 . S
C374 H391 0.931 . S
C375 O360 1.266 1_655 S
C375 O361 1.248 . S
C376 Tb312 2.802 . S
C376 O356 1.264 . S
C376 O359 1.256 . S
C376 C369 1.496 . S
C377 C344 1.448 . S
C377 H354 0.930 . S
C377 C378 1.328 . S
C378 C349 1.427 . S
C378 H355 0.929 . S
C378 C377 1.328 . S
C379 O363 1.264 . S
C379 O364 1.243 1_655 S
C380 C383 1.399 . S
C380 C384 1.383 . S
C380 C387 1.496 . S
C381 C382 1.399 . S
C381 C384 1.389 . S
C382 C381 1.399 . S
C382 C385 1.380 . S
C382 H392 0.929 . S
C383 C380 1.399 . S
C383 C385 1.392 . S
C383 H393 0.929 . S
C384 C380 1.383 . S
C384 C381 1.389 . S
C384 H394 0.931 . S
C385 C382 1.380 . S
C385 C383 1.392 . S
C385 H395 0.929 . S
C386 O366 1.266 . S
C386 O367 1.248 . S
C387 Tb323 2.802 . S
C387 O362 1.264 . S
C387 O365 1.256 . S
C387 C380 1.496 . S
H388 C371 0.929 . S
H389 C372 0.929 . S
H390 C373 0.929 . S
H391 C374 0.931 . S
H392 C382 0.929 . S
H393 C383 0.929 . S
H394 C384 0.931 . S
H395 C385 0.929 . S
Tb396 N425 2.617 . S
Tb396 N431 2.572 . S
Tb396 O440 2.465 . S
Tb396 O441 2.387 . S
Tb396 O443 2.428 . S
Tb396 O444 2.308 . S
Tb396 O448 2.349 . S
Tb396 O451 2.393 . S
Tb396 C460 2.802 . S
C397 N398 1.379 . S
C397 C400 1.416 . S
C397 C404 1.424 . S
N398 C397 1.379 . S
N398 C401 1.334 . S
N398 Tb407 2.617 . S
C399 C401 1.390 . S
C399 C402 1.339 . S
C399 H419 0.930 . S
C400 C397 1.416 . S
C400 C402 1.416 . S
C400 C406 1.448 . S
C401 N398 1.334 . S
C401 C399 1.390 . S
C401 H412 0.930 . S
C402 C399 1.339 . S
C402 C400 1.416 . S
C402 H423 0.930 . S
C403 C404 1.413 . S
C403 C405 1.427 . S
C403 C409 1.416 . S
C404 C397 1.424 . S
C404 C403 1.413 . S
C404 N408 1.361 . S
C405 C403 1.427 . S
C405 C406 1.328 . S
C405 H420 0.929 . S
C406 C400 1.448 . S
C406 C405 1.328 . S
C406 H421 0.930 . S
Tb407 N398 2.617 . S
Tb407 N408 2.572 . S
Tb407 O442 2.349 . S
Tb407 O445 2.393 . S
Tb407 O446 2.465 . S
Tb407 O447 2.387 . S
Tb407 O449 2.428 . S
Tb407 O450 2.308 . S
Tb407 C471 2.802 . S
N408 C404 1.361 . S
N408 Tb407 2.572 . S
N408 C410 1.340 . S
C409 C403 1.416 . S
C409 C411 1.332 . S
C409 H417 0.931 . S
C410 N408 1.340 . S
C410 C411 1.407 . S
C410 H416 0.930 . S
C411 C409 1.332 . S
C411 C410 1.407 . S
C411 H413 0.929 . S
H412 C401 0.930 . S
H413 C411 0.929 . S
H414 C429 0.930 . S
H415 C436 0.929 . S
H416 C410 0.930 . S
H417 C409 0.931 . S
H418 C432 0.930 . S
H419 C399 0.930 . S
H420 C405 0.929 . S
H421 C406 0.930 . S
H422 C427 0.930 . S
H423 C402 0.930 . S
H424 C435 0.931 . S
N425 Tb396 2.617 . S
N425 C426 1.379 . S
N425 C429 1.334 . S
C426 N425 1.379 . S
C426 C428 1.416 . S
C426 C434 1.424 . S
C427 H422 0.930 . S
C427 C429 1.390 . S
C427 C430 1.339 . S
C428 C426 1.416 . S
C428 C430 1.416 . S
C428 C461 1.448 . S
C429 H414 0.930 . S
C429 N425 1.334 . S
C429 C427 1.390 . S
C430 C427 1.339 . S
C430 C428 1.416 . S
C430 H437 0.930 . S
N431 Tb396 2.572 . S
N431 C432 1.340 . S
N431 C434 1.361 . S
C432 H418 0.930 . S
C432 N431 1.340 . S
C432 C436 1.407 . S
C433 C434 1.413 . S
C433 C435 1.416 . S
C433 C462 1.427 . S
C434 C426 1.424 . S
C434 N431 1.361 . S
C434 C433 1.413 . S
C435 H424 0.931 . S
C435 C433 1.416 . S
C435 C436 1.332 . S
C436 H415 0.929 . S
C436 C432 1.407 . S
C436 C435 1.332 . S
H437 C430 0.930 . S
H438 C461 0.930 . S
H439 C462 0.929 . S
O440 Tb396 2.465 . S
O440 C460 1.264 . S
O441 Tb396 2.387 . S
O441 C452 1.264 . S
O442 Tb407 2.349 . S
O442 C452 1.243 . S
O443 Tb396 2.428 . S
O443 C460 1.256 . S
O444 Tb396 2.308 . S
O444 C459 1.266 . S
O445 Tb407 2.393 . S
O445 C459 1.248 . S
O446 Tb407 2.465 . S
O446 C471 1.264 . S
O447 Tb407 2.387 . S
O447 C463 1.264 . S
O448 Tb396 2.349 . S
O448 C463 1.243 . S
O449 Tb407 2.428 . S
O449 C471 1.256 . S
O450 Tb407 2.308 . S
O450 C470 1.266 . S
O451 Tb396 2.393 . S
O451 C470 1.248 . S
C452 O441 1.264 . S
C452 O442 1.243 . S
C453 C456 1.399 . S
C453 C458 1.383 . S
C453 C460 1.496 . S
C454 C455 1.399 . S
C454 C458 1.389 . S
C455 C454 1.399 . S
C455 C457 1.380 . S
C455 H472 0.929 . S
C456 C453 1.399 . S
C456 C457 1.392 . S
C456 H473 0.929 . S
C457 C455 1.380 . S
C457 C456 1.392 . S
C457 H474 0.929 . S
C458 C453 1.383 . S
C458 C454 1.389 . S
C458 H475 0.931 . S
C459 O444 1.266 . S
C459 O445 1.248 . S
C460 Tb396 2.802 . S
C460 O440 1.264 . S
C460 O443 1.256 . S
C460 C453 1.496 . S
C461 C428 1.448 . S
C461 H438 0.930 . S
C461 C462 1.328 . S
C462 C433 1.427 . S
C462 H439 0.929 . S
C462 C461 1.328 . S
C463 O447 1.264 . S
C463 O448 1.243 . S
C464 C467 1.399 . S
C464 C468 1.383 . S
C464 C471 1.496 . S
C465 C466 1.399 . S
C465 C468 1.389 . S
C466 C465 1.399 . S
C466 C469 1.380 . S
C466 H476 0.929 . S
C467 C464 1.399 . S
C467 C469 1.392 . S
C467 H477 0.929 . S
C468 C464 1.383 . S
C468 C465 1.389 . S
C468 H478 0.931 . S
C469 C466 1.380 . S
C469 C467 1.392 . S
C469 H479 0.929 . S
C470 O450 1.266 . S
C470 O451 1.248 . S
C471 Tb407 2.802 . S
C471 O446 1.264 . S
C471 O449 1.256 . S
C471 C464 1.496 . S
H472 C455 0.929 . S
H473 C456 0.929 . S
H474 C457 0.929 . S
H475 C458 0.931 . S
H476 C466 0.929 . S
H477 C467 0.929 . S
H478 C468 0.931 . S
H479 C469 0.929 . S
Tb480 N509 2.617 . S
Tb480 N515 2.572 . S
Tb480 O524 2.465 . S
Tb480 O525 2.387 . S
Tb480 O527 2.428 . S
Tb480 O528 2.308 . S
Tb480 O532 2.349 . S
Tb480 O535 2.393 . S
Tb480 C544 2.802 . S
C481 N482 1.379 . S
C481 C484 1.416 . S
C481 C488 1.424 . S
N482 C481 1.379 . S
N482 C485 1.334 . S
N482 Tb491 2.617 . S
C483 C485 1.390 . S
C483 C486 1.339 . S
C483 H503 0.930 . S
C484 C481 1.416 . S
C484 C486 1.416 . S
C484 C490 1.448 . S
C485 N482 1.334 . S
C485 C483 1.390 . S
C485 H496 0.930 . S
C486 C483 1.339 . S
C486 C484 1.416 . S
C486 H507 0.930 . S
C487 C488 1.413 . S
C487 C489 1.427 . S
C487 C493 1.416 . S
C488 C481 1.424 . S
C488 C487 1.413 . S
C488 N492 1.361 . S
C489 C487 1.427 . S
C489 C490 1.328 . S
C489 H504 0.929 . S
C490 C484 1.448 . S
C490 C489 1.328 . S
C490 H505 0.930 . S
Tb491 N482 2.617 . S
Tb491 N492 2.572 . S
Tb491 O526 2.349 1_655 S
Tb491 O529 2.393 . S
Tb491 O530 2.465 . S
Tb491 O531 2.387 . S
Tb491 O533 2.428 . S
Tb491 O534 2.308 1_655 S
Tb491 C555 2.802 . S
N492 C488 1.361 . S
N492 Tb491 2.572 . S
N492 C494 1.340 . S
C493 C487 1.416 . S
C493 C495 1.332 . S
C493 H501 0.931 . S
C494 N492 1.340 . S
C494 C495 1.407 . S
C494 H500 0.930 . S
C495 C493 1.332 . S
C495 C494 1.407 . S
C495 H497 0.929 . S
H496 C485 0.930 . S
H497 C495 0.929 . S
H498 C513 0.930 . S
H499 C520 0.929 . S
H500 C494 0.930 . S
H501 C493 0.931 . S
H502 C516 0.930 . S
H503 C483 0.930 . S
H504 C489 0.929 . S
H505 C490 0.930 . S
H506 C511 0.930 . S
H507 C486 0.930 . S
H508 C519 0.931 . S
N509 Tb480 2.617 . S
N509 C510 1.379 . S
N509 C513 1.334 . S
C510 N509 1.379 . S
C510 C512 1.416 . S
C510 C518 1.424 . S
C511 H506 0.930 . S
C511 C513 1.390 . S
C511 C514 1.339 . S
C512 C510 1.416 . S
C512 C514 1.416 . S
C512 C545 1.448 . S
C513 H498 0.930 . S
C513 N509 1.334 . S
C513 C511 1.390 . S
C514 C511 1.339 . S
C514 C512 1.416 . S
C514 H521 0.930 . S
N515 Tb480 2.572 . S
N515 C516 1.340 . S
N515 C518 1.361 . S
C516 H502 0.930 . S
C516 N515 1.340 . S
C516 C520 1.407 . S
C517 C518 1.413 . S
C517 C519 1.416 . S
C517 C546 1.427 . S
C518 C510 1.424 . S
C518 N515 1.361 . S
C518 C517 1.413 . S
C519 H508 0.931 . S
C519 C517 1.416 . S
C519 C520 1.332 . S
C520 H499 0.929 . S
C520 C516 1.407 . S
C520 C519 1.332 . S
H521 C514 0.930 . S
H522 C545 0.930 . S
H523 C546 0.929 . S
O524 Tb480 2.465 . S
O524 C544 1.264 . S
O525 Tb480 2.387 . S
O525 C536 1.264 . S
O526 Tb491 2.349 1_455 S
O526 C536 1.243 . S
O527 Tb480 2.428 . S
O527 C544 1.256 . S
O528 Tb480 2.308 . S
O528 C543 1.266 1_455 S
O529 Tb491 2.393 . S
O529 C543 1.248 . S
O530 Tb491 2.465 . S
O530 C555 1.264 . S
O531 Tb491 2.387 . S
O531 C547 1.264 . S
O532 Tb480 2.349 . S
O532 C547 1.243 1_455 S
O533 Tb491 2.428 . S
O533 C555 1.256 . S
O534 Tb491 2.308 1_455 S
O534 C554 1.266 . S
O535 Tb480 2.393 . S
O535 C554 1.248 . S
C536 O525 1.264 . S
C536 O526 1.243 . S
C537 C540 1.399 . S
C537 C542 1.383 . S
C537 C544 1.496 . S
C538 C539 1.399 . S
C538 C542 1.389 . S
C539 C538 1.399 . S
C539 C541 1.380 . S
C539 H556 0.929 . S
C540 C537 1.399 . S
C540 C541 1.392 . S
C540 H557 0.929 . S
C541 C539 1.380 . S
C541 C540 1.392 . S
C541 H558 0.929 . S
C542 C537 1.383 . S
C542 C538 1.389 . S
C542 H559 0.931 . S
C543 O528 1.266 1_655 S
C543 O529 1.248 . S
C544 Tb480 2.802 . S
C544 O524 1.264 . S
C544 O527 1.256 . S
C544 C537 1.496 . S
C545 C512 1.448 . S
C545 H522 0.930 . S
C545 C546 1.328 . S
C546 C517 1.427 . S
C546 H523 0.929 . S
C546 C545 1.328 . S
C547 O531 1.264 . S
C547 O532 1.243 1_655 S
C548 C551 1.399 . S
C548 C552 1.383 . S
C548 C555 1.496 . S
C549 C550 1.399 . S
C549 C552 1.389 . S
C550 C549 1.399 . S
C550 C553 1.380 . S
C550 H560 0.929 . S
C551 C548 1.399 . S
C551 C553 1.392 . S
C551 H561 0.929 . S
C552 C548 1.383 . S
C552 C549 1.389 . S
C552 H562 0.931 . S
C553 C550 1.380 . S
C553 C551 1.392 . S
C553 H563 0.929 . S
C554 O534 1.266 . S
C554 O535 1.248 . S
C555 Tb491 2.802 . S
C555 O530 1.264 . S
C555 O533 1.256 . S
C555 C548 1.496 . S
H556 C539 0.929 . S
H557 C540 0.929 . S
H558 C541 0.929 . S
H559 C542 0.931 . S
H560 C550 0.929 . S
H561 C551 0.929 . S
H562 C552 0.931 . S
H563 C553 0.929 . S
Tb564 N593 2.617 . S
Tb564 N599 2.572 . S
Tb564 O608 2.465 . S
Tb564 O609 2.387 . S
Tb564 O611 2.428 . S
Tb564 O612 2.308 . S
Tb564 O616 2.349 . S
Tb564 O619 2.393 . S
Tb564 C628 2.802 . S
C565 N566 1.379 . S
C565 C568 1.416 . S
C565 C572 1.424 . S
N566 C565 1.379 . S
N566 C569 1.334 . S
N566 Tb575 2.617 . S
C567 C569 1.390 . S
C567 C570 1.339 . S
C567 H587 0.930 . S
C568 C565 1.416 . S
C568 C570 1.416 . S
C568 C574 1.448 . S
C569 N566 1.334 . S
C569 C567 1.390 . S
C569 H580 0.930 . S
C570 C567 1.339 . S
C570 C568 1.416 . S
C570 H591 0.930 . S
C571 C572 1.413 . S
C571 C573 1.427 . S
C571 C577 1.416 . S
C572 C565 1.424 . S
C572 C571 1.413 . S
C572 N576 1.361 . S
C573 C571 1.427 . S
C573 C574 1.328 . S
C573 H588 0.929 . S
C574 C568 1.448 . S
C574 C573 1.328 . S
C574 H589 0.930 . S
Tb575 N566 2.617 . S
Tb575 N576 2.572 . S
Tb575 O610 2.349 . S
Tb575 O613 2.393 . S
Tb575 O614 2.465 . S
Tb575 O615 2.387 . S
Tb575 O617 2.428 . S
Tb575 O618 2.308 . S
Tb575 C639 2.802 . S
N576 C572 1.361 . S
N576 Tb575 2.572 . S
N576 C578 1.340 . S
C577 C571 1.416 . S
C577 C579 1.332 . S
C577 H585 0.931 . S
C578 N576 1.340 . S
C578 C579 1.407 . S
C578 H584 0.930 . S
C579 C577 1.332 . S
C579 C578 1.407 . S
C579 H581 0.929 . S
H580 C569 0.930 . S
H581 C579 0.929 . S
H582 C597 0.930 . S
H583 C604 0.929 . S
H584 C578 0.930 . S
H585 C577 0.931 . S
H586 C600 0.930 . S
H587 C567 0.930 . S
H588 C573 0.929 . S
H589 C574 0.930 . S
H590 C595 0.930 . S
H591 C570 0.930 . S
H592 C603 0.931 . S
N593 Tb564 2.617 . S
N593 C594 1.379 . S
N593 C597 1.334 . S
C594 N593 1.379 . S
C594 C596 1.416 . S
C594 C602 1.424 . S
C595 H590 0.930 . S
C595 C597 1.390 . S
C595 C598 1.339 . S
C596 C594 1.416 . S
C596 C598 1.416 . S
C596 C629 1.448 . S
C597 H582 0.930 . S
C597 N593 1.334 . S
C597 C595 1.390 . S
C598 C595 1.339 . S
C598 C596 1.416 . S
C598 H605 0.930 . S
N599 Tb564 2.572 . S
N599 C600 1.340 . S
N599 C602 1.361 . S
C600 H586 0.930 . S
C600 N599 1.340 . S
C600 C604 1.407 . S
C601 C602 1.413 . S
C601 C603 1.416 . S
C601 C630 1.427 . S
C602 C594 1.424 . S
C602 N599 1.361 . S
C602 C601 1.413 . S
C603 H592 0.931 . S
C603 C601 1.416 . S
C603 C604 1.332 . S
C604 H583 0.929 . S
C604 C600 1.407 . S
C604 C603 1.332 . S
H605 C598 0.930 . S
H606 C629 0.930 . S
H607 C630 0.929 . S
O608 Tb564 2.465 . S
O608 C628 1.264 . S
O609 Tb564 2.387 . S
O609 C620 1.264 . S
O610 Tb575 2.349 . S
O610 C620 1.243 . S
O611 Tb564 2.428 . S
O611 C628 1.256 . S
O612 Tb564 2.308 . S
O612 C627 1.266 . S
O613 Tb575 2.393 . S
O613 C627 1.248 . S
O614 Tb575 2.465 . S
O614 C639 1.264 . S
O615 Tb575 2.387 . S
O615 C631 1.264 . S
O616 Tb564 2.349 . S
O616 C631 1.243 . S
O617 Tb575 2.428 . S
O617 C639 1.256 . S
O618 Tb575 2.308 . S
O618 C638 1.266 . S
O619 Tb564 2.393 . S
O619 C638 1.248 . S
C620 O609 1.264 . S
C620 O610 1.243 . S
C621 C624 1.399 . S
C621 C626 1.383 . S
C621 C628 1.496 . S
C622 C623 1.399 . S
C622 C626 1.389 . S
C623 C622 1.399 . S
C623 C625 1.380 . S
C623 H640 0.929 . S
C624 C621 1.399 . S
C624 C625 1.392 . S
C624 H641 0.929 . S
C625 C623 1.380 . S
C625 C624 1.392 . S
C625 H642 0.929 . S
C626 C621 1.383 . S
C626 C622 1.389 . S
C626 H643 0.931 . S
C627 O612 1.266 . S
C627 O613 1.248 . S
C628 Tb564 2.802 . S
C628 O608 1.264 . S
C628 O611 1.256 . S
C628 C621 1.496 . S
C629 C596 1.448 . S
C629 H606 0.930 . S
C629 C630 1.328 . S
C630 C601 1.427 . S
C630 H607 0.929 . S
C630 C629 1.328 . S
C631 O615 1.264 . S
C631 O616 1.243 . S
C632 C635 1.399 . S
C632 C636 1.383 . S
C632 C639 1.496 . S
C633 C634 1.399 . S
C633 C636 1.389 . S
C634 C633 1.399 . S
C634 C637 1.380 . S
C634 H644 0.929 . S
C635 C632 1.399 . S
C635 C637 1.392 . S
C635 H645 0.929 . S
C636 C632 1.383 . S
C636 C633 1.389 . S
C636 H646 0.931 . S
C637 C634 1.380 . S
C637 C635 1.392 . S
C637 H647 0.929 . S
C638 O618 1.266 . S
C638 O619 1.248 . S
C639 Tb575 2.802 . S
C639 O614 1.264 . S
C639 O617 1.256 . S
C639 C632 1.496 . S
H640 C623 0.929 . S
H641 C624 0.929 . S
H642 C625 0.929 . S
H643 C626 0.931 . S
H644 C634 0.929 . S
H645 C635 0.929 . S
H646 C636 0.931 . S
H647 C637 0.929 . S
H648 C656 0.929 . S
H649 C658 0.930 . S
H650 C660 0.930 . S
H651 C663 0.929 . S
H652 C666 0.930 . S
H653 C668 0.960 . S
H654 C668 0.960 . S
H655 C668 0.960 1_565 S
C656 H648 0.929 . S
C656 C657 1.377 . S
C656 C658 1.384 1_565 S
C657 C656 1.377 . S
C657 C663 1.390 . S
C658 H649 0.930 . S
C658 C656 1.384 1_545 S
C658 C659 1.375 . S
C659 C658 1.375 . S
C659 C660 1.387 1_545 S
C659 C664 1.500 . S
C660 H650 0.930 . S
C660 C659 1.387 1_565 S
C660 C663 1.386 . S
H661 C677 0.930 . S
H662 C678 0.931 . S
C663 H651 0.929 . S
C663 C657 1.390 . S
C663 C660 1.386 . S
C664 C659 1.500 . S
C664 C666 1.395 . S
C664 C667 1.403 . S
H665 C671 0.930 . S
C666 H652 0.930 . S
C666 C664 1.395 . S
C666 C669 1.403 . S
C667 C664 1.403 . S
C667 C668 1.524 . S
C667 C671 1.400 . S
C668 H653 0.960 . S
C668 H654 0.960 . S
C668 H655 0.960 1_545 S
C668 C667 1.524 . S
C669 C666 1.403 . S
C669 C670 1.392 . S
C669 C673 1.495 . S
C670 C669 1.392 . S
C670 C671 1.385 . S
C670 C672 1.478 . S
C671 H665 0.930 . S
C671 C667 1.400 . S
C671 C670 1.385 . S
C672 C670 1.478 . S
C672 C674 1.381 . S
C672 C678 1.383 . S
C673 C669 1.495 . S
C673 H679 0.959 . S
C673 H680 0.961 . S
C673 H681 0.960 . S
C674 C672 1.381 . S
C674 C675 1.394 . S
C674 H682 0.930 . S
C675 C674 1.394 . S
C675 C676 1.383 . S
C675 H683 0.929 . S
C676 C675 1.383 . S
C676 C677 1.377 . S
C677 H661 0.930 . S
C677 C676 1.377 . S
C677 C678 1.379 . S
C678 H662 0.931 . S
C678 C672 1.383 . S
C678 C677 1.379 . S
H679 C673 0.959 . S
H680 C673 0.961 . S
H681 C673 0.960 . S
H682 C674 0.930 . S
H683 C675 0.929 . S
H684 C692 0.929 . S
H685 C694 0.930 . S
H686 C696 0.930 . S
H687 C699 0.929 . S
H688 C702 0.930 . S
H689 C704 0.960 . S
H690 C704 0.960 . S
H691 C704 0.960 . S
C692 H684 0.929 . S
C692 C693 1.377 . S
C692 C694 1.384 . S
C693 C692 1.377 . S
C693 C699 1.390 . S
C694 H685 0.930 . S
C694 C692 1.384 . S
C694 C695 1.372 . S
C695 C694 1.372 . S
C695 C696 1.400 . S
C695 C700 1.490 . S
C696 H686 0.930 . S
C696 C695 1.400 . S
C696 C699 1.386 . S
H697 C713 0.930 . S
H698 C714 0.931 . S
C699 H687 0.929 . S
C699 C693 1.390 . S
C699 C696 1.386 . S
C700 C695 1.490 . S
C700 C702 1.395 . S
C700 C703 1.403 . S
H701 C707 0.930 . S
C702 H688 0.930 . S
C702 C700 1.395 . S
C702 C705 1.403 . S
C703 C700 1.403 . S
C703 C704 1.524 . S
C703 C707 1.400 . S
C704 H689 0.960 . S
C704 H690 0.960 . S
C704 H691 0.960 . S
C704 C703 1.524 . S
C705 C702 1.403 . S
C705 C706 1.392 . S
C705 C709 1.495 . S
C706 C705 1.392 . S
C706 C707 1.385 . S
C706 C708 1.478 . S
C707 H701 0.930 . S
C707 C703 1.400 . S
C707 C706 1.385 . S
C708 C706 1.478 . S
C708 C710 1.381 . S
C708 C714 1.383 . S
C709 C705 1.495 . S
C709 H715 0.959 . S
C709 H716 0.961 . S
C709 H717 0.960 . S
C710 C708 1.381 . S
C710 C711 1.394 . S
C710 H718 0.930 . S
C711 C710 1.394 . S
C711 C712 1.383 . S
C711 H719 0.929 . S
C712 C711 1.383 . S
C712 C713 1.377 . S
C713 H697 0.930 . S
C713 C712 1.377 . S
C713 C714 1.379 . S
C714 H698 0.931 . S
C714 C708 1.383 . S
C714 C713 1.379 . S
H715 C709 0.959 . S
H716 C709 0.961 . S
H717 C709 0.960 . S
H718 C710 0.930 . S
H719 C711 0.929 . S
H720 C728 0.929 . S
H721 C730 0.930 . S
H722 C732 0.930 . S
H723 C735 0.929 . S
H724 C738 0.930 . S
H725 C740 0.960 . S
H726 C740 0.960 . S
H727 C740 0.960 . S
C728 H720 0.929 . S
C728 C729 1.377 . S
C728 C730 1.384 . S
C729 C728 1.377 . S
C729 C735 1.390 . S
C730 H721 0.930 . S
C730 C728 1.384 . S
C730 C731 1.372 . S
C731 C730 1.372 . S
C731 C732 1.400 . S
C731 C736 1.490 . S
C732 H722 0.930 . S
C732 C731 1.400 . S
C732 C735 1.386 . S
H733 C749 0.930 . S
H734 C750 0.931 . S
C735 H723 0.929 . S
C735 C729 1.390 . S
C735 C732 1.386 . S
C736 C731 1.490 . S
C736 C738 1.395 . S
C736 C739 1.403 . S
H737 C743 0.930 . S
C738 H724 0.930 . S
C738 C736 1.395 . S
C738 C741 1.403 . S
C739 C736 1.403 . S
C739 C740 1.524 . S
C739 C743 1.400 . S
C740 H725 0.960 . S
C740 H726 0.960 . S
C740 H727 0.960 . S
C740 C739 1.524 . S
C741 C738 1.403 . S
C741 C742 1.392 . S
C741 C745 1.495 . S
C742 C741 1.392 . S
C742 C743 1.385 . S
C742 C744 1.478 . S
C743 H737 0.930 . S
C743 C739 1.400 . S
C743 C742 1.385 . S
C744 C742 1.478 . S
C744 C746 1.381 . S
C744 C750 1.383 . S
C745 C741 1.495 . S
C745 H751 0.959 . S
C745 H752 0.961 . S
C745 H753 0.960 . S
C746 C744 1.381 . S
C746 C747 1.394 . S
C746 H754 0.930 . S
C747 C746 1.394 . S
C747 C748 1.383 . S
C747 H755 0.929 . S
C748 C747 1.383 . S
C748 C749 1.377 . S
C749 H733 0.930 . S
C749 C748 1.377 . S
C749 C750 1.379 . S
C750 H734 0.931 . S
C750 C744 1.383 . S
C750 C749 1.379 . S
H751 C745 0.959 . S
H752 C745 0.961 . S
H753 C745 0.960 . S
H754 C746 0.930 . S
H755 C747 0.929 . S
H756 C764 0.929 . S
H757 C766 0.930 . S
H758 C768 0.930 . S
H759 C771 0.929 . S
H760 C774 0.930 . S
H761 C776 0.960 . S
H762 C776 0.960 . S
H763 C776 0.960 . S
C764 H756 0.929 . S
C764 C765 1.377 . S
C764 C766 1.384 . S
C765 C764 1.377 . S
C765 C771 1.390 . S
C766 H757 0.930 . S
C766 C764 1.384 . S
C766 C767 1.324 1_565 S
C767 C766 1.324 1_545 S
C767 C768 1.413 . S
C767 C772 1.524 . S
C768 H758 0.930 . S
C768 C767 1.413 . S
C768 C771 1.386 1_545 S
H769 C785 0.930 . S
H770 C786 0.931 . S
C771 H759 0.929 . S
C771 C765 1.390 . S
C771 C768 1.386 1_565 S
C772 C767 1.524 . S
C772 C774 1.395 . S
C772 C775 1.403 . S
H773 C779 0.930 . S
C774 H760 0.930 . S
C774 C772 1.395 . S
C774 C777 1.403 . S
C775 C772 1.403 . S
C775 C776 1.524 . S
C775 C779 1.400 . S
C776 H761 0.960 . S
C776 H762 0.960 . S
C776 H763 0.960 . S
C776 C775 1.524 . S
C777 C774 1.403 . S
C777 C778 1.392 . S
C777 C781 1.495 . S
C778 C777 1.392 . S
C778 C779 1.385 . S
C778 C780 1.478 . S
C779 H773 0.930 . S
C779 C775 1.400 . S
C779 C778 1.385 . S
C780 C778 1.478 . S
C780 C782 1.381 . S
C780 C786 1.383 . S
C781 C777 1.495 . S
C781 H787 0.959 . S
C781 H788 0.961 . S
C781 H789 0.960 . S
C782 C780 1.381 . S
C782 C783 1.394 . S
C782 H790 0.930 . S
C783 C782 1.394 . S
C783 C784 1.383 . S
C783 H791 0.929 . S
C784 C783 1.383 . S
C784 C785 1.377 . S
C785 H769 0.930 . S
C785 C784 1.377 . S
C785 C786 1.379 . S
C786 H770 0.931 . S
C786 C780 1.383 . S
C786 C785 1.379 . S
H787 C781 0.959 . S
H788 C781 0.961 . S
H789 C781 0.960 . S
H790 C782 0.930 . S
H791 C783 0.929 . S
H792 C800 0.929 . S
H793 C802 0.930 . S
H794 C804 0.930 . S
H795 C807 0.929 . S
H796 C810 0.930 . S
H797 C812 0.960 . S
H798 C812 0.960 1_545 S
H799 C812 0.960 . S
C800 H792 0.929 . S
C800 C801 1.377 . S
C800 C802 1.384 . S
C801 C800 1.377 . S
C801 C807 1.390 . S
C802 H793 0.930 . S
C802 C800 1.384 . S
C802 C803 1.372 . S
C803 C802 1.372 . S
C803 C804 1.400 1_545 S
C803 C808 1.490 1_545 S
C804 H794 0.930 . S
C804 C803 1.400 1_565 S
C804 C807 1.386 1_565 S
H805 C821 0.930 . S
H806 C822 0.931 . S
C807 H795 0.929 . S
C807 C801 1.390 . S
C807 C804 1.386 1_545 S
C808 C803 1.490 1_565 S
C808 C810 1.395 . S
C808 C811 1.403 . S
H809 C815 0.930 . S
C810 H796 0.930 . S
C810 C808 1.395 . S
C810 C813 1.403 . S
C811 C808 1.403 . S
C811 C812 1.524 . S
C811 C815 1.400 . S
C812 H797 0.960 . S
C812 H798 0.960 1_565 S
C812 H799 0.960 . S
C812 C811 1.524 . S
C813 C810 1.403 . S
C813 C814 1.392 . S
C813 C817 1.495 . S
C814 C813 1.392 . S
C814 C815 1.385 . S
C814 C816 1.478 . S
C815 H809 0.930 . S
C815 C811 1.400 . S
C815 C814 1.385 . S
C816 C814 1.478 . S
C816 C818 1.381 . S
C816 C822 1.383 . S
C817 C813 1.495 . S
C817 H823 0.959 . S
C817 H824 0.961 . S
C817 H825 0.960 . S
C818 C816 1.381 . S
C818 C819 1.394 . S
C818 H826 0.930 . S
C819 C818 1.394 . S
C819 C820 1.383 . S
C819 H827 0.929 . S
C820 C819 1.383 . S
C820 C821 1.377 . S
C821 H805 0.930 . S
C821 C820 1.377 . S
C821 C822 1.379 . S
C822 H806 0.931 . S
C822 C816 1.383 . S
C822 C821 1.379 . S
H823 C817 0.959 . S
H824 C817 0.961 . S
H825 C817 0.960 . S
H826 C818 0.930 . S
H827 C819 0.929 . S
H828 C836 0.929 . S
H829 C838 0.930 . S
H830 C840 0.930 . S
H831 C843 0.929 . S
H832 C846 0.930 . S
H833 C848 0.960 . S
H834 C848 0.960 . S
H835 C848 0.960 . S
C836 H828 0.929 . S
C836 C837 1.377 . S
C836 C838 1.384 . S
C837 C836 1.377 . S
C837 C843 1.390 . S
C838 H829 0.930 . S
C838 C836 1.384 . S
C838 C839 1.372 . S
C839 C838 1.372 . S
C839 C840 1.400 . S
C839 C844 1.490 . S
C840 H830 0.930 . S
C840 C839 1.400 . S
C840 C843 1.386 . S
H841 C857 0.930 . S
H842 C858 0.931 . S
C843 H831 0.929 . S
C843 C837 1.390 . S
C843 C840 1.386 . S
C844 C839 1.490 . S
C844 C846 1.395 . S
C844 C847 1.403 . S
H845 C851 0.930 . S
C846 H832 0.930 . S
C846 C844 1.395 . S
C846 C849 1.403 . S
C847 C844 1.403 . S
C847 C848 1.524 . S
C847 C851 1.400 . S
C848 H833 0.960 . S
C848 H834 0.960 . S
C848 H835 0.960 . S
C848 C847 1.524 . S
C849 C846 1.403 . S
C849 C850 1.392 . S
C849 C853 1.495 . S
C850 C849 1.392 . S
C850 C851 1.385 . S
C850 C852 1.478 . S
C851 H845 0.930 . S
C851 C847 1.400 . S
C851 C850 1.385 . S
C852 C850 1.478 . S
C852 C854 1.381 . S
C852 C858 1.383 . S
C853 C849 1.495 . S
C853 H859 0.959 . S
C853 H860 0.961 . S
C853 H861 0.960 . S
C854 C852 1.381 . S
C854 C855 1.394 . S
C854 H862 0.930 . S
C855 C854 1.394 . S
C855 C856 1.383 . S
C855 H863 0.929 . S
C856 C855 1.383 . S
C856 C857 1.377 . S
C857 H841 0.930 . S
C857 C856 1.377 . S
C857 C858 1.379 . S
C858 H842 0.931 . S
C858 C852 1.383 . S
C858 C857 1.379 . S
H859 C853 0.959 . S
H860 C853 0.961 . S
H861 C853 0.960 . S
H862 C854 0.930 . S
H863 C855 0.929 . S
H864 C872 0.929 . S
H865 C874 0.930 . S
H866 C876 0.930 . S
H867 C879 0.929 . S
H868 C882 0.930 . S
H869 C884 0.960 . S
H870 C884 0.960 . S
H871 C884 0.960 . S
C872 H864 0.929 . S
C872 C873 1.377 . S
C872 C874 1.384 . S
C873 C872 1.377 . S
C873 C879 1.390 . S
C874 H865 0.930 . S
C874 C872 1.384 . S
C874 C875 1.372 . S
C875 C874 1.372 . S
C875 C876 1.400 . S
C875 C880 1.490 . S
C876 H866 0.930 . S
C876 C875 1.400 . S
C876 C879 1.386 . S
H877 C893 0.930 . S
H878 C894 0.931 . S
C879 H867 0.929 . S
C879 C873 1.390 . S
C879 C876 1.386 . S
C880 C875 1.490 . S
C880 C882 1.395 . S
C880 C883 1.403 . S
H881 C887 0.930 . S
C882 H868 0.930 . S
C882 C880 1.395 . S
C882 C885 1.403 . S
C883 C880 1.403 . S
C883 C884 1.524 . S
C883 C887 1.400 . S
C884 H869 0.960 . S
C884 H870 0.960 . S
C884 H871 0.960 . S
C884 C883 1.524 . S
C885 C882 1.403 . S
C885 C886 1.392 . S
C885 C889 1.495 . S
C886 C885 1.392 . S
C886 C887 1.385 . S
C886 C888 1.478 . S
C887 H881 0.930 . S
C887 C883 1.400 . S
C887 C886 1.385 . S
C888 C886 1.478 . S
C888 C890 1.381 . S
C888 C894 1.383 . S
C889 C885 1.495 . S
C889 H895 0.959 . S
C889 H896 0.961 . S
C889 H897 0.960 . S
C890 C888 1.381 . S
C890 C891 1.394 . S
C890 H898 0.930 . S
C891 C890 1.394 . S
C891 C892 1.383 . S
C891 H899 0.929 . S
C892 C891 1.383 . S
C892 C893 1.377 . S
C893 H877 0.930 . S
C893 C892 1.377 . S
C893 C894 1.379 . S
C894 H878 0.931 . S
C894 C888 1.383 . S
C894 C893 1.379 . S
H895 C889 0.959 . S
H896 C889 0.961 . S
H897 C889 0.960 . S
H898 C890 0.930 . S
H899 C891 0.929 . S
H900 C908 0.929 . S
H901 C910 0.930 . S
H902 C912 0.930 . S
H903 C915 0.929 . S
H904 C918 0.930 . S
H905 C920 0.960 . S
H906 C920 0.960 . S
H907 C920 0.960 . S
C908 H900 0.929 . S
C908 C909 1.377 . S
C908 C910 1.384 1_545 S
C909 C908 1.377 . S
C909 C915 1.390 . S
C910 H901 0.930 . S
C910 C908 1.384 1_565 S
C910 C911 1.372 . S
C911 C910 1.372 . S
C911 C912 1.400 1_565 S
C911 C916 1.490 . S
C912 H902 0.930 . S
C912 C911 1.400 1_545 S
C912 C915 1.386 . S
H913 C929 0.930 . S
H914 C930 0.931 . S
C915 H903 0.929 . S
C915 C909 1.390 . S
C915 C912 1.386 . S
C916 C911 1.490 . S
C916 C918 1.395 . S
C916 C919 1.403 . S
H917 C923 0.930 . S
C918 H904 0.930 . S
C918 C916 1.395 . S
C918 C921 1.403 . S
C919 C916 1.403 . S
C919 C920 1.524 . S
C919 C923 1.400 . S
C920 H905 0.960 . S
C920 H906 0.960 . S
C920 H907 0.960 . S
C920 C919 1.524 . S
C921 C918 1.403 . S
C921 C922 1.392 . S
C921 C925 1.495 . S
C922 C921 1.392 . S
C922 C923 1.385 . S
C922 C924 1.478 . S
C923 H917 0.930 . S
C923 C919 1.400 . S
C923 C922 1.385 . S
C924 C922 1.478 . S
C924 C926 1.381 . S
C924 C930 1.383 . S
C925 C921 1.495 . S
C925 H931 0.959 . S
C925 H932 0.961 . S
C925 H933 0.960 . S
C926 C924 1.381 . S
C926 C927 1.394 . S
C926 H934 0.930 . S
C927 C926 1.394 . S
C927 C928 1.383 . S
C927 H935 0.929 . S
C928 C927 1.383 . S
C928 C929 1.377 . S
C929 H913 0.930 . S
C929 C928 1.377 . S
C929 C930 1.379 . S
C930 H914 0.931 . S
C930 C924 1.383 . S
C930 C929 1.379 . S
H931 C925 0.959 . S
H932 C925 0.961 . S
H933 C925 0.960 . S
H934 C926 0.930 . S
H935 C927 0.929 . S
H936 C944 0.929 . S
H937 C946 0.930 . S
H938 C948 0.930 . S
H939 C951 0.929 1_556 S
H940 C954 0.930 . S
H941 C956 0.960 . S
H942 C956 0.960 . S
H943 C956 0.960 . S
C944 H936 0.929 . S
C944 C945 1.377 . S
C944 C946 1.384 . S
C945 C944 1.377 . S
C945 C951 1.390 . S
C946 H937 0.930 . S
C946 C944 1.384 . S
C946 C947 1.372 . S
C947 C946 1.372 . S
C947 C948 1.400 . S
C947 C952 1.490 . S
C948 H938 0.930 . S
C948 C947 1.400 . S
C948 C951 1.386 . S
H949 C965 0.930 . S
H950 C966 0.931 . S
C951 H939 0.929 1_554 S
C951 C945 1.390 . S
C951 C948 1.386 . S
C952 C947 1.490 . S
C952 C954 1.395 . S
C952 C955 1.403 . S
H953 C959 0.930 . S
C954 H940 0.930 . S
C954 C952 1.395 . S
C954 C957 1.403 . S
C955 C952 1.403 . S
C955 C956 1.524 . S
C955 C959 1.400 . S
C956 H941 0.960 . S
C956 H942 0.960 . S
C956 H943 0.960 . S
C956 C955 1.524 . S
C957 C954 1.403 . S
C957 C958 1.392 . S
C957 C961 1.495 . S
C958 C957 1.392 . S
C958 C959 1.385 . S
C958 C960 1.478 . S
C959 H953 0.930 . S
C959 C955 1.400 . S
C959 C958 1.385 . S
C960 C958 1.478 . S
C960 C962 1.381 . S
C960 C966 1.383 . S
C961 C957 1.495 . S
C961 H967 0.959 . S
C961 H968 0.961 . S
C961 H969 0.960 . S
C962 C960 1.381 . S
C962 C963 1.394 . S
C962 H970 0.930 . S
C963 C962 1.394 . S
C963 C964 1.383 . S
C963 H971 0.929 . S
C964 C963 1.383 . S
C964 C965 1.377 . S
C965 H949 0.930 . S
C965 C964 1.377 . S
C965 C966 1.379 . S
C966 H950 0.931 . S
C966 C960 1.383 . S
C966 C965 1.379 . S
H967 C961 0.959 . S
H968 C961 0.961 . S
H969 C961 0.960 . S
H970 C962 0.930 . S
H971 C963 0.929 . S
H972 C980 0.929 . S
H973 C982 0.930 . S
H974 C984 0.930 . S
H975 C987 0.929 . S
H976 C990 0.930 . S
H977 C992 0.960 . S
H978 C992 0.960 . S
H979 C992 0.960 . S
C980 H972 0.929 . S
C980 C981 1.377 . S
C980 C982 1.384 . S
C981 C980 1.377 . S
C981 C987 1.390 . S
C982 H973 0.930 . S
C982 C980 1.384 . S
C982 C983 1.372 . S
C983 C982 1.372 . S
C983 C984 1.400 . S
C983 C988 1.490 . S
C984 H974 0.930 . S
C984 C983 1.400 . S
C984 C987 1.386 . S
H985 C1001 0.930 . S
H986 C1002 0.931 . S
C987 H975 0.929 . S
C987 C981 1.390 . S
C987 C984 1.386 . S
C988 C983 1.490 . S
C988 C990 1.395 . S
C988 C991 1.403 . S
H989 C995 0.930 . S
C990 H976 0.930 . S
C990 C988 1.395 . S
C990 C993 1.403 . S
C991 C988 1.403 . S
C991 C992 1.524 . S
C991 C995 1.400 . S
C992 H977 0.960 . S
C992 H978 0.960 . S
C992 H979 0.960 . S
C992 C991 1.524 . S
C993 C990 1.403 . S
C993 C994 1.392 . S
C993 C997 1.495 . S
C994 C993 1.392 . S
C994 C995 1.385 . S
C994 C996 1.478 . S
C995 H989 0.930 . S
C995 C991 1.400 . S
C995 C994 1.385 . S
C996 C994 1.478 . S
C996 C998 1.381 . S
C996 C1002 1.383 . S
C997 C993 1.495 . S
C997 H1003 0.959 . S
C997 H1004 0.961 . S
C997 H1005 0.960 . S
C998 C996 1.381 . S
C998 C999 1.394 . S
C998 H1006 0.930 . S
C999 C998 1.394 . S
C999 C1000 1.383 . S
C999 H1007 0.929 . S
C1000 C999 1.383 . S
C1000 C1001 1.377 . S
C1001 H985 0.930 . S
C1001 C1000 1.377 . S
C1001 C1002 1.379 . S
C1002 H986 0.931 . S
C1002 C996 1.383 . S
C1002 C1001 1.379 . S
H1003 C997 0.959 . S
H1004 C997 0.961 . S
H1005 C997 0.960 . S
H1006 C998 0.930 . S
H1007 C999 0.929 . S
H1008 C1016 0.929 . S
H1009 C1018 0.930 . S
H1010 C1020 0.930 . S
H1011 C1023 0.929 1_554 S
H1012 C1026 0.930 . S
H1013 C1028 0.960 . S
H1014 C1028 0.960 . S
H1015 C1028 0.960 . S
C1016 H1008 0.929 . S
C1016 C1017 1.376 1_556 S
C1016 C1018 1.384 . S
C1017 C1016 1.376 1_554 S
C1017 C1023 1.389 1_554 S
C1018 H1009 0.930 . S
C1018 C1016 1.384 . S
C1018 C1019 1.372 . S
C1019 C1018 1.372 . S
C1019 C1020 1.400 . S
C1019 C1024 1.490 . S
C1020 H1010 0.930 . S
C1020 C1019 1.400 . S
C1020 C1023 1.386 . S
H1021 C1037 0.930 . S
H1022 C1038 0.931 . S
C1023 H1011 0.929 1_556 S
C1023 C1017 1.389 1_556 S
C1023 C1020 1.386 . S
C1024 C1019 1.490 . S
C1024 C1026 1.395 . S
C1024 C1027 1.403 . S
H1025 C1031 0.930 . S
C1026 H1012 0.930 . S
C1026 C1024 1.395 . S
C1026 C1029 1.403 . S
C1027 C1024 1.403 . S
C1027 C1028 1.524 . S
C1027 C1031 1.400 . S
C1028 H1013 0.960 . S
C1028 H1014 0.960 . S
C1028 H1015 0.960 . S
C1028 C1027 1.524 . S
C1029 C1026 1.403 . S
C1029 C1030 1.392 . S
C1029 C1033 1.495 . S
C1030 C1029 1.392 . S
C1030 C1031 1.385 . S
C1030 C1032 1.478 . S
C1031 H1025 0.930 . S
C1031 C1027 1.400 . S
C1031 C1030 1.385 . S
C1032 C1030 1.478 . S
C1032 C1034 1.381 . S
C1032 C1038 1.383 . S
C1033 C1029 1.495 . S
C1033 H1039 0.959 . S
C1033 H1040 0.961 . S
C1033 H1041 0.960 . S
C1034 C1032 1.381 . S
C1034 C1035 1.394 . S
C1034 H1042 0.930 . S
C1035 C1034 1.394 . S
C1035 C1036 1.383 . S
C1035 H1043 0.929 . S
C1036 C1035 1.383 . S
C1036 C1037 1.377 . S
C1037 H1021 0.930 . S
C1037 C1036 1.377 . S
C1037 C1038 1.379 . S
C1038 H1022 0.931 . S
C1038 C1032 1.383 . S
C1038 C1037 1.379 . S
H1039 C1033 0.959 . S
H1040 C1033 0.961 . S
H1041 C1033 0.960 . S
H1042 C1034 0.930 . S
H1043 C1035 0.929 . S
H1044 C1052 0.929 . S
H1045 C1054 0.930 . S
H1046 C1056 0.930 . S
H1047 C1059 0.929 . S
H1048 C1062 0.930 . S
H1049 C1064 0.960 . S
H1050 C1064 0.960 . S
H1051 C1064 0.960 . S
C1052 H1044 0.929 . S
C1052 C1053 1.377 . S
C1052 C1054 1.384 . S
C1053 C1052 1.377 . S
C1053 C1059 1.390 . S
C1054 H1045 0.930 . S
C1054 C1052 1.384 . S
C1054 C1055 1.372 . S
C1055 C1054 1.372 . S
C1055 C1056 1.400 . S
C1055 C1060 1.490 . S
C1056 H1046 0.930 . S
C1056 C1055 1.400 . S
C1056 C1059 1.386 . S
H1057 C1073 0.930 . S
H1058 C1074 0.931 . S
C1059 H1047 0.929 . S
C1059 C1053 1.390 . S
C1059 C1056 1.386 . S
C1060 C1055 1.490 . S
C1060 C1062 1.395 . S
C1060 C1063 1.403 . S
H1061 C1067 0.930 . S
C1062 H1048 0.930 . S
C1062 C1060 1.395 . S
C1062 C1065 1.403 . S
C1063 C1060 1.403 . S
C1063 C1064 1.524 . S
C1063 C1067 1.400 . S
C1064 H1049 0.960 . S
C1064 H1050 0.960 . S
C1064 H1051 0.960 . S
C1064 C1063 1.524 . S
C1065 C1062 1.403 . S
C1065 C1066 1.392 . S
C1065 C1069 1.495 . S
C1066 C1065 1.392 . S
C1066 C1067 1.385 . S
C1066 C1068 1.478 . S
C1067 H1061 0.930 . S
C1067 C1063 1.400 . S
C1067 C1066 1.385 . S
C1068 C1066 1.478 . S
C1068 C1070 1.381 . S
C1068 C1074 1.383 . S
C1069 C1065 1.495 . S
C1069 H1075 0.959 . S
C1069 H1076 0.961 . S
C1069 H1077 0.960 . S
C1070 C1068 1.381 . S
C1070 C1071 1.394 . S
C1070 H1078 0.930 . S
C1071 C1070 1.394 . S
C1071 C1072 1.383 . S
C1071 H1079 0.929 . S
C1072 C1071 1.383 . S
C1072 C1073 1.377 . S
C1073 H1057 0.930 . S
C1073 C1072 1.377 . S
C1073 C1074 1.379 . S
C1074 H1058 0.931 . S
C1074 C1068 1.383 . S
C1074 C1073 1.379 . S
H1075 C1069 0.959 . S
H1076 C1069 0.961 . S
H1077 C1069 0.960 . S
H1078 C1070 0.930 . S
H1079 C1071 0.929 . S
H1080 C1088 0.929 . S
H1081 C1090 0.930 . S
H1082 C1092 0.930 . S
H1083 C1095 0.929 1_554 S
H1084 C1098 0.930 . S
H1085 C1100 0.960 . S
H1086 C1100 0.960 . S
H1087 C1100 0.960 . S
C1088 H1080 0.929 . S
C1088 C1089 1.377 . S
C1088 C1090 1.384 . S
C1089 C1088 1.377 . S
C1089 C1095 1.390 . S
C1090 H1081 0.930 . S
C1090 C1088 1.384 . S
C1090 C1091 1.372 . S
C1091 C1090 1.372 . S
C1091 C1092 1.400 . S
C1091 C1096 1.490 . S
C1092 H1082 0.930 . S
C1092 C1091 1.400 . S
C1092 C1095 1.386 . S
H1093 C1109 0.930 . S
H1094 C1110 0.931 . S
C1095 H1083 0.929 1_556 S
C1095 C1089 1.390 . S
C1095 C1092 1.386 . S
C1096 C1091 1.490 . S
C1096 C1098 1.395 . S
C1096 C1099 1.403 . S
H1097 C1103 0.930 . S
C1098 H1084 0.930 . S
C1098 C1096 1.395 . S
C1098 C1101 1.403 . S
C1099 C1096 1.403 . S
C1099 C1100 1.524 . S
C1099 C1103 1.400 . S
C1100 H1085 0.960 . S
C1100 H1086 0.960 . S
C1100 H1087 0.960 . S
C1100 C1099 1.524 . S
C1101 C1098 1.403 . S
C1101 C1102 1.392 . S
C1101 C1105 1.495 . S
C1102 C1101 1.392 . S
C1102 C1103 1.385 . S
C1102 C1104 1.478 . S
C1103 H1097 0.930 . S
C1103 C1099 1.400 . S
C1103 C1102 1.385 . S
C1104 C1102 1.478 . S
C1104 C1106 1.381 . S
C1104 C1110 1.383 . S
C1105 C1101 1.495 . S
C1105 H1111 0.959 . S
C1105 H1112 0.961 . S
C1105 H1113 0.960 . S
C1106 C1104 1.381 . S
C1106 C1107 1.394 . S
C1106 H1114 0.930 . S
C1107 C1106 1.394 . S
C1107 C1108 1.383 . S
C1107 H1115 0.929 . S
C1108 C1107 1.383 . S
C1108 C1109 1.377 . S
C1109 H1093 0.930 . S
C1109 C1108 1.377 . S
C1109 C1110 1.379 . S
C1110 H1094 0.931 . S
C1110 C1104 1.383 . S
C1110 C1109 1.379 . S
H1111 C1105 0.959 . S
H1112 C1105 0.961 . S
H1113 C1105 0.960 . S
H1114 C1106 0.930 . S
H1115 C1107 0.929 . S
H1116 C1124 0.929 . S
H1117 C1126 0.930 . S
H1118 C1128 0.930 . S
H1119 C1131 0.929 . S
H1120 C1134 0.930 . S
H1121 C1136 0.960 . S
H1122 C1136 0.960 . S
H1123 C1136 0.960 . S
C1124 H1116 0.929 . S
C1124 C1125 1.377 . S
C1124 C1126 1.384 . S
C1125 C1124 1.377 . S
C1125 C1131 1.390 . S
C1126 H1117 0.930 . S
C1126 C1124 1.384 . S
C1126 C1127 1.372 . S
C1127 C1126 1.372 . S
C1127 C1128 1.400 . S
C1127 C1132 1.490 . S
C1128 H1118 0.930 . S
C1128 C1127 1.400 . S
C1128 C1131 1.386 . S
H1129 C1145 0.930 . S
H1130 C1146 0.931 . S
C1131 H1119 0.929 . S
C1131 C1125 1.390 . S
C1131 C1128 1.386 . S
C1132 C1127 1.490 . S
C1132 C1134 1.395 . S
C1132 C1135 1.403 . S
H1133 C1139 0.930 . S
C1134 H1120 0.930 . S
C1134 C1132 1.395 . S
C1134 C1137 1.403 . S
C1135 C1132 1.403 . S
C1135 C1136 1.524 . S
C1135 C1139 1.400 . S
C1136 H1121 0.960 . S
C1136 H1122 0.960 . S
C1136 H1123 0.960 . S
C1136 C1135 1.524 . S
C1137 C1134 1.403 . S
C1137 C1138 1.392 . S
C1137 C1141 1.495 . S
C1138 C1137 1.392 . S
C1138 C1139 1.385 . S
C1138 C1140 1.478 . S
C1139 H1133 0.930 . S
C1139 C1135 1.400 . S
C1139 C1138 1.385 . S
C1140 C1138 1.478 . S
C1140 C1142 1.381 . S
C1140 C1146 1.383 . S
C1141 C1137 1.495 . S
C1141 H1147 0.959 . S
C1141 H1148 0.961 . S
C1141 H1149 0.960 . S
C1142 C1140 1.381 . S
C1142 C1143 1.394 . S
C1142 H1150 0.930 . S
C1143 C1142 1.394 . S
C1143 C1144 1.383 . S
C1143 H1151 0.929 . S
C1144 C1143 1.383 . S
C1144 C1145 1.377 . S
C1145 H1129 0.930 . S
C1145 C1144 1.377 . S
C1145 C1146 1.379 . S
C1146 H1130 0.931 . S
C1146 C1140 1.383 . S
C1146 C1145 1.379 . S
H1147 C1141 0.959 . S
H1148 C1141 0.961 . S
H1149 C1141 0.960 . S
H1150 C1142 0.930 . S
H1151 C1143 0.929 . S
H1152 C1160 0.929 . S
H1153 C1162 0.930 . S
H1154 C1164 0.930 . S
H1155 C1167 0.929 1_556 S
H1156 C1170 0.930 . S
H1157 C1172 0.960 . S
H1158 C1172 0.960 . S
H1159 C1172 0.960 . S
C1160 H1152 0.929 . S
C1160 C1161 1.360 1_554 S
C1160 C1162 1.384 . S
C1161 C1160 1.360 1_556 S
C1161 C1167 1.385 1_556 S
C1162 H1153 0.930 . S
C1162 C1160 1.384 . S
C1162 C1163 1.372 . S
C1163 C1162 1.372 . S
C1163 C1164 1.400 . S
C1163 C1168 1.490 . S
C1164 H1154 0.930 . S
C1164 C1163 1.400 . S
C1164 C1167 1.386 . S
H1165 C1181 0.930 . S
H1166 C1182 0.931 . S
C1167 H1155 0.929 1_554 S
C1167 C1161 1.385 1_554 S
C1167 C1164 1.386 . S
C1168 C1163 1.490 . S
C1168 C1170 1.395 . S
C1168 C1171 1.403 . S
H1169 C1175 0.930 . S
C1170 H1156 0.930 . S
C1170 C1168 1.395 . S
C1170 C1173 1.403 . S
C1171 C1168 1.403 . S
C1171 C1172 1.524 . S
C1171 C1175 1.400 . S
C1172 H1157 0.960 . S
C1172 H1158 0.960 . S
C1172 H1159 0.960 . S
C1172 C1171 1.524 . S
C1173 C1170 1.403 . S
C1173 C1174 1.392 . S
C1173 C1177 1.495 . S
C1174 C1173 1.392 . S
C1174 C1175 1.385 . S
C1174 C1176 1.478 . S
C1175 H1169 0.930 . S
C1175 C1171 1.400 . S
C1175 C1174 1.385 . S
C1176 C1174 1.478 . S
C1176 C1178 1.381 . S
C1176 C1182 1.383 . S
C1177 C1173 1.495 . S
C1177 H1183 0.959 . S
C1177 H1184 0.961 . S
C1177 H1185 0.960 . S
C1178 C1176 1.381 . S
C1178 C1179 1.394 . S
C1178 H1186 0.930 . S
C1179 C1178 1.394 . S
C1179 C1180 1.383 . S
C1179 H1187 0.929 . S
C1180 C1179 1.383 . S
C1180 C1181 1.377 . S
C1181 H1165 0.930 . S
C1181 C1180 1.377 . S
C1181 C1182 1.379 . S
C1182 H1166 0.931 . S
C1182 C1176 1.383 . S
C1182 C1181 1.379 . S
H1183 C1177 0.959 . S
H1184 C1177 0.961 . S
H1185 C1177 0.960 . S
H1186 C1178 0.930 . S
H1187 C1179 0.929 . S
H1188 C1196 0.929 . S
H1189 C1198 0.930 . S
H1190 C1200 0.930 . S
H1191 C1203 0.929 . S
H1192 C1206 0.930 . S
H1193 C1208 0.960 . S
H1194 C1208 0.960 . S
H1195 C1208 0.960 . S
C1196 H1188 0.929 . S
C1196 C1197 1.377 . S
C1196 C1198 1.384 . S
C1197 C1196 1.377 . S
C1197 C1203 1.390 . S
C1198 H1189 0.930 . S
C1198 C1196 1.384 . S
C1198 C1199 1.372 . S
C1199 C1198 1.372 . S
C1199 C1200 1.400 . S
C1199 C1204 1.490 . S
C1200 H1190 0.930 . S
C1200 C1199 1.400 . S
C1200 C1203 1.386 . S
H1201 C1217 0.930 . S
H1202 C1218 0.931 . S
C1203 H1191 0.929 . S
C1203 C1197 1.390 . S
C1203 C1200 1.386 . S
C1204 C1199 1.490 . S
C1204 C1206 1.395 . S
C1204 C1207 1.403 . S
H1205 C1211 0.930 . S
C1206 H1192 0.930 . S
C1206 C1204 1.395 . S
C1206 C1209 1.403 . S
C1207 C1204 1.403 . S
C1207 C1208 1.524 . S
C1207 C1211 1.400 . S
C1208 H1193 0.960 . S
C1208 H1194 0.960 . S
C1208 H1195 0.960 . S
C1208 C1207 1.524 . S
C1209 C1206 1.403 . S
C1209 C1210 1.392 . S
C1209 C1213 1.495 . S
C1210 C1209 1.392 . S
C1210 C1211 1.385 . S
C1210 C1212 1.478 . S
C1211 H1205 0.930 . S
C1211 C1207 1.400 . S
C1211 C1210 1.385 . S
C1212 C1210 1.478 . S
C1212 C1214 1.381 . S
C1212 C1218 1.383 . S
C1213 C1209 1.495 . S
C1213 H1219 0.959 . S
C1213 H1220 0.961 . S
C1213 H1221 0.960 . S
C1214 C1212 1.381 . S
C1214 C1215 1.394 . S
C1214 H1222 0.930 . S
C1215 C1214 1.394 . S
C1215 C1216 1.383 . S
C1215 H1223 0.929 . S
C1216 C1215 1.383 . S
C1216 C1217 1.377 . S
C1217 H1201 0.930 . S
C1217 C1216 1.377 . S
C1217 C1218 1.379 . S
C1218 H1202 0.931 . S
C1218 C1212 1.383 . S
C1218 C1217 1.379 . S
H1219 C1213 0.959 . S
H1220 C1213 0.961 . S
H1221 C1213 0.960 . S
H1222 C1214 0.930 . S
H1223 C1215 0.929 . S
H1224 C1232 0.929 . S
H1225 C1234 0.930 . S
H1226 C1236 0.930 . S
H1227 C1239 0.929 . S
H1228 C1242 0.930 . S
H1229 C1244 0.960 . S
H1230 C1244 0.960 . S
H1231 C1244 0.960 . S
C1232 H1224 0.929 . S
C1232 C1233 1.377 . S
C1232 C1234 1.384 . S
C1233 C1232 1.377 . S
C1233 C1239 1.390 . S
C1234 H1225 0.930 . S
C1234 C1232 1.384 . S
C1234 C1235 1.372 . S
C1235 C1234 1.372 . S
C1235 C1236 1.400 . S
C1235 C1240 1.490 . S
C1236 H1226 0.930 . S
C1236 C1235 1.400 . S
C1236 C1239 1.386 . S
H1237 C1253 0.930 . S
H1238 C1254 0.931 . S
C1239 H1227 0.929 . S
C1239 C1233 1.390 . S
C1239 C1236 1.386 . S
C1240 C1235 1.490 . S
C1240 C1242 1.395 . S
C1240 C1243 1.403 . S
H1241 C1247 0.930 . S
C1242 H1228 0.930 . S
C1242 C1240 1.395 . S
C1242 C1245 1.403 . S
C1243 C1240 1.403 . S
C1243 C1244 1.524 . S
C1243 C1247 1.400 . S
C1244 H1229 0.960 . S
C1244 H1230 0.960 . S
C1244 H1231 0.960 . S
C1244 C1243 1.524 . S
C1245 C1242 1.403 . S
C1245 C1246 1.392 . S
C1245 C1249 1.495 . S
C1246 C1245 1.392 . S
C1246 C1247 1.385 . S
C1246 C1248 1.478 . S
C1247 H1241 0.930 . S
C1247 C1243 1.400 . S
C1247 C1246 1.385 . S
C1248 C1246 1.478 . S
C1248 C1250 1.381 . S
C1248 C1254 1.383 . S
C1249 C1245 1.495 . S
C1249 H1255 0.959 . S
C1249 H1256 0.961 . S
C1249 H1257 0.960 . S
C1250 C1248 1.381 . S
C1250 C1251 1.394 . S
C1250 H1258 0.930 . S
C1251 C1250 1.394 . S
C1251 C1252 1.383 . S
C1251 H1259 0.929 . S
C1252 C1251 1.383 . S
C1252 C1253 1.377 . S
C1253 H1237 0.930 . S
C1253 C1252 1.377 . S
C1253 C1254 1.379 . S
C1254 H1238 0.931 . S
C1254 C1248 1.383 . S
C1254 C1253 1.379 . S
H1255 C1249 0.959 . S
H1256 C1249 0.961 . S
H1257 C1249 0.960 . S
H1258 C1250 0.930 . S
H1259 C1251 0.929 . S
H1260 C1268 0.929 . S
H1261 C1270 0.930 . S
H1262 C1272 0.930 . S
H1263 C1275 0.929 . S
H1264 C1278 0.930 . S
H1265 C1280 0.960 . S
H1266 C1280 0.960 . S
H1267 C1280 0.960 . S
C1268 H1260 0.929 . S
C1268 C1269 1.377 . S
C1268 C1270 1.384 . S
C1269 C1268 1.377 . S
C1269 C1275 1.390 . S
C1270 H1261 0.930 . S
C1270 C1268 1.384 . S
C1270 C1271 1.372 . S
C1271 C1270 1.372 . S
C1271 C1272 1.400 . S
C1271 C1276 1.490 . S
C1272 H1262 0.930 . S
C1272 C1271 1.400 . S
C1272 C1275 1.386 . S
H1273 C1289 0.930 . S
H1274 C1290 0.931 . S
C1275 H1263 0.929 . S
C1275 C1269 1.390 . S
C1275 C1272 1.386 . S
C1276 C1271 1.490 . S
C1276 C1278 1.395 . S
C1276 C1279 1.403 . S
H1277 C1283 0.930 . S
C1278 H1264 0.930 . S
C1278 C1276 1.395 . S
C1278 C1281 1.403 . S
C1279 C1276 1.403 . S
C1279 C1280 1.524 . S
C1279 C1283 1.400 . S
C1280 H1265 0.960 . S
C1280 H1266 0.960 . S
C1280 H1267 0.960 . S
C1280 C1279 1.524 . S
C1281 C1278 1.403 . S
C1281 C1282 1.392 . S
C1281 C1285 1.495 . S
C1282 C1281 1.392 . S
C1282 C1283 1.385 . S
C1282 C1284 1.478 . S
C1283 H1277 0.930 . S
C1283 C1279 1.400 . S
C1283 C1282 1.385 . S
C1284 C1282 1.478 . S
C1284 C1286 1.381 . S
C1284 C1290 1.383 . S
C1285 C1281 1.495 . S
C1285 H1291 0.959 . S
C1285 H1292 0.961 . S
C1285 H1293 0.960 . S
C1286 C1284 1.381 . S
C1286 C1287 1.394 . S
C1286 H1294 0.930 . S
C1287 C1286 1.394 . S
C1287 C1288 1.383 . S
C1287 H1295 0.929 . S
C1288 C1287 1.383 . S
C1288 C1289 1.377 . S
C1289 H1273 0.930 . S
C1289 C1288 1.377 . S
C1289 C1290 1.379 . S
C1290 H1274 0.931 . S
C1290 C1284 1.383 . S
C1290 C1289 1.379 . S
H1291 C1285 0.959 . S
H1292 C1285 0.961 . S
H1293 C1285 0.960 . S
H1294 C1286 0.930 . S
H1295 C1287 0.929 . S
H1296 C1304 0.929 . S
H1297 C1306 0.930 . S
H1298 C1308 0.930 . S
H1299 C1311 0.929 . S
H1300 C1314 0.930 . S
H1301 C1316 0.960 . S
H1302 C1316 0.960 . S
H1303 C1316 0.960 . S
C1304 H1296 0.929 . S
C1304 C1305 1.377 . S
C1304 C1306 1.384 . S
C1305 C1304 1.377 . S
C1305 C1311 1.390 . S
C1306 H1297 0.930 . S
C1306 C1304 1.384 . S
C1306 C1307 1.372 . S
C1307 C1306 1.372 . S
C1307 C1308 1.400 . S
C1307 C1312 1.490 . S
C1308 H1298 0.930 . S
C1308 C1307 1.400 . S
C1308 C1311 1.386 . S
H1309 C1325 0.930 . S
H1310 C1326 0.931 . S
C1311 H1299 0.929 . S
C1311 C1305 1.390 . S
C1311 C1308 1.386 . S
C1312 C1307 1.490 . S
C1312 C1314 1.395 . S
C1312 C1315 1.403 . S
H1313 C1319 0.930 . S
C1314 H1300 0.930 . S
C1314 C1312 1.395 . S
C1314 C1317 1.403 . S
C1315 C1312 1.403 . S
C1315 C1316 1.524 . S
C1315 C1319 1.400 . S
C1316 H1301 0.960 . S
C1316 H1302 0.960 . S
C1316 H1303 0.960 . S
C1316 C1315 1.524 . S
C1317 C1314 1.403 . S
C1317 C1318 1.392 . S
C1317 C1321 1.495 . S
C1318 C1317 1.392 . S
C1318 C1319 1.385 . S
C1318 C1320 1.478 . S
C1319 H1313 0.930 . S
C1319 C1315 1.400 . S
C1319 C1318 1.385 . S
C1320 C1318 1.478 . S
C1320 C1322 1.381 . S
C1320 C1326 1.383 . S
C1321 C1317 1.495 . S
C1321 H1327 0.959 . S
C1321 H1328 0.961 . S
C1321 H1329 0.960 . S
C1322 C1320 1.381 . S
C1322 C1323 1.394 . S
C1322 H1330 0.930 . S
C1323 C1322 1.394 . S
C1323 C1324 1.383 . S
C1323 H1331 0.929 . S
C1324 C1323 1.383 . S
C1324 C1325 1.377 . S
C1325 H1309 0.930 . S
C1325 C1324 1.377 . S
C1325 C1326 1.379 . S
C1326 H1310 0.931 . S
C1326 C1320 1.383 . S
C1326 C1325 1.379 . S
H1327 C1321 0.959 . S
H1328 C1321 0.961 . S
H1329 C1321 0.960 . S
H1330 C1322 0.930 . S
H1331 C1323 0.929 . S
H1332 C1340 0.929 . S
H1333 C1342 0.930 . S
H1334 C1344 0.930 . S
H1335 C1347 0.929 . S
H1336 C1350 0.930 . S
H1337 C1352 0.960 . S
H1338 C1352 0.960 . S
H1339 C1352 0.960 . S
C1340 H1332 0.929 . S
C1340 C1341 1.377 . S
C1340 C1342 1.384 . S
C1341 C1340 1.377 . S
C1341 C1347 1.390 . S
C1342 H1333 0.930 . S
C1342 C1340 1.384 . S
C1342 C1343 1.372 . S
C1343 C1342 1.372 . S
C1343 C1344 1.400 . S
C1343 C1348 1.490 . S
C1344 H1334 0.930 . S
C1344 C1343 1.400 . S
C1344 C1347 1.386 . S
H1345 C1361 0.930 . S
H1346 C1362 0.931 . S
C1347 H1335 0.929 . S
C1347 C1341 1.390 . S
C1347 C1344 1.386 . S
C1348 C1343 1.490 . S
C1348 C1350 1.395 . S
C1348 C1351 1.403 . S
H1349 C1355 0.930 . S
C1350 H1336 0.930 . S
C1350 C1348 1.395 . S
C1350 C1353 1.403 . S
C1351 C1348 1.403 . S
C1351 C1352 1.524 . S
C1351 C1355 1.400 . S
C1352 H1337 0.960 . S
C1352 H1338 0.960 . S
C1352 H1339 0.960 . S
C1352 C1351 1.524 . S
C1353 C1350 1.403 . S
C1353 C1354 1.392 . S
C1353 C1357 1.495 . S
C1354 C1353 1.392 . S
C1354 C1355 1.385 . S
C1354 C1356 1.478 . S
C1355 H1349 0.930 . S
C1355 C1351 1.400 . S
C1355 C1354 1.385 . S
C1356 C1354 1.478 . S
C1356 C1358 1.381 . S
C1356 C1362 1.383 . S
C1357 C1353 1.495 . S
C1357 H1363 0.959 . S
C1357 H1364 0.961 . S
C1357 H1365 0.960 . S
C1358 C1356 1.381 . S
C1358 C1359 1.394 . S
C1358 H1366 0.930 . S
C1359 C1358 1.394 . S
C1359 C1360 1.383 . S
C1359 H1367 0.929 . S
C1360 C1359 1.383 . S
C1360 C1361 1.377 . S
C1361 H1345 0.930 . S
C1361 C1360 1.377 . S
C1361 C1362 1.379 . S
C1362 H1346 0.931 . S
C1362 C1356 1.383 . S
C1362 C1361 1.379 . S
H1363 C1357 0.959 . S
H1364 C1357 0.961 . S
H1365 C1357 0.960 . S
H1366 C1358 0.930 . S
H1367 C1359 0.929 . S
H1368 C1376 0.929 . S
H1369 C1378 0.930 . S
H1370 C1380 0.930 . S
H1371 C1383 0.929 . S
H1372 C1386 0.930 . S
H1373 C1388 0.960 . S
H1374 C1388 0.960 . S
H1375 C1388 0.960 . S
C1376 H1368 0.929 . S
C1376 C1377 1.377 . S
C1376 C1378 1.384 . S
C1377 C1376 1.377 . S
C1377 C1383 1.390 . S
C1378 H1369 0.930 . S
C1378 C1376 1.384 . S
C1378 C1379 1.372 . S
C1379 C1378 1.372 . S
C1379 C1380 1.400 . S
C1379 C1384 1.490 . S
C1380 H1370 0.930 . S
C1380 C1379 1.400 . S
C1380 C1383 1.386 . S
H1381 C1397 0.930 . S
H1382 C1398 0.931 . S
C1383 H1371 0.929 . S
C1383 C1377 1.390 . S
C1383 C1380 1.386 . S
C1384 C1379 1.490 . S
C1384 C1386 1.395 . S
C1384 C1387 1.403 . S
H1385 C1391 0.930 . S
C1386 H1372 0.930 . S
C1386 C1384 1.395 . S
C1386 C1389 1.403 . S
C1387 C1384 1.403 . S
C1387 C1388 1.524 . S
C1387 C1391 1.400 . S
C1388 H1373 0.960 . S
C1388 H1374 0.960 . S
C1388 H1375 0.960 . S
C1388 C1387 1.524 . S
C1389 C1386 1.403 . S
C1389 C1390 1.392 . S
C1389 C1393 1.495 . S
C1390 C1389 1.392 . S
C1390 C1391 1.385 . S
C1390 C1392 1.478 . S
C1391 H1385 0.930 . S
C1391 C1387 1.400 . S
C1391 C1390 1.385 . S
C1392 C1390 1.478 . S
C1392 C1394 1.381 . S
C1392 C1398 1.383 . S
C1393 C1389 1.495 . S
C1393 H1399 0.959 . S
C1393 H1400 0.961 . S
C1393 H1401 0.960 . S
C1394 C1392 1.381 . S
C1394 C1395 1.394 . S
C1394 H1402 0.930 . S
C1395 C1394 1.394 . S
C1395 C1396 1.383 . S
C1395 H1403 0.905 1_655 S
C1396 C1395 1.383 . S
C1396 C1397 1.377 . S
C1397 H1381 0.930 . S
C1397 C1396 1.377 . S
C1397 C1398 1.379 . S
C1398 H1382 0.931 . S
C1398 C1392 1.383 . S
C1398 C1397 1.379 . S
H1399 C1393 0.959 . S
H1400 C1393 0.961 . S
H1401 C1393 0.960 . S
H1402 C1394 0.930 . S
H1403 C1395 0.905 1_455 S
H1404 C1412 0.929 . S
H1405 C1414 0.930 . S
H1406 C1416 0.930 . S
H1407 C1419 0.929 . S
H1408 C1422 0.930 . S
H1409 C1424 0.960 . S
H1410 C1424 0.960 . S
H1411 C1424 0.960 . S
C1412 H1404 0.929 . S
C1412 C1413 1.377 . S
C1412 C1414 1.384 . S
C1413 C1412 1.377 . S
C1413 C1419 1.390 . S
C1414 H1405 0.930 . S
C1414 C1412 1.384 . S
C1414 C1415 1.372 . S
C1415 C1414 1.372 . S
C1415 C1416 1.400 . S
C1415 C1420 1.490 . S
C1416 H1406 0.930 . S
C1416 C1415 1.400 . S
C1416 C1419 1.386 . S
H1417 C1433 0.930 . S
H1418 C1434 0.931 . S
C1419 H1407 0.929 . S
C1419 C1413 1.390 . S
C1419 C1416 1.386 . S
C1420 C1415 1.490 . S
C1420 C1422 1.395 . S
C1420 C1423 1.403 . S
H1421 C1427 0.930 . S
C1422 H1408 0.930 . S
C1422 C1420 1.395 . S
C1422 C1425 1.403 . S
C1423 C1420 1.403 . S
C1423 C1424 1.524 . S
C1423 C1427 1.400 . S
C1424 H1409 0.960 . S
C1424 H1410 0.960 . S
C1424 H1411 0.960 . S
C1424 C1423 1.524 . S
C1425 C1422 1.403 . S
C1425 C1426 1.392 . S
C1425 C1429 1.495 . S
C1426 C1425 1.392 . S
C1426 C1427 1.385 . S
C1426 C1428 1.478 . S
C1427 H1421 0.930 . S
C1427 C1423 1.400 . S
C1427 C1426 1.385 . S
C1428 C1426 1.478 . S
C1428 C1430 1.381 . S
C1428 C1434 1.383 . S
C1429 C1425 1.495 . S
C1429 H1435 0.959 . S
C1429 H1436 0.961 . S
C1429 H1437 0.960 . S
C1430 C1428 1.381 . S
C1430 C1431 1.394 . S
C1430 H1438 0.930 . S
C1431 C1430 1.394 . S
C1431 C1432 1.383 . S
C1431 H1439 0.929 . S
C1432 C1431 1.383 . S
C1432 C1433 1.377 . S
C1433 H1417 0.930 . S
C1433 C1432 1.377 . S
C1433 C1434 1.379 . S
C1434 H1418 0.931 . S
C1434 C1428 1.383 . S
C1434 C1433 1.379 . S
H1435 C1429 0.959 . S
H1436 C1429 0.961 . S
H1437 C1429 0.960 . S
H1438 C1430 0.930 . S
H1439 C1431 0.929 . S
H1440 C1448 0.929 . S
H1441 C1450 0.930 . S
H1442 C1452 0.930 . S
H1443 C1455 0.929 . S
H1444 C1458 0.930 . S
H1445 C1460 0.960 . S
H1446 C1460 0.960 . S
H1447 C1460 0.960 . S
C1448 H1440 0.929 . S
C1448 C1449 1.377 . S
C1448 C1450 1.384 . S
C1449 C1448 1.377 . S
C1449 C1455 1.390 . S
C1450 H1441 0.930 . S
C1450 C1448 1.384 . S
C1450 C1451 1.372 . S
C1451 C1450 1.372 . S
C1451 C1452 1.400 . S
C1451 C1456 1.490 . S
C1452 H1442 0.930 . S
C1452 C1451 1.400 . S
C1452 C1455 1.386 . S
H1453 C1469 0.930 . S
H1454 C1470 0.931 . S
C1455 H1443 0.929 . S
C1455 C1449 1.390 . S
C1455 C1452 1.386 . S
C1456 C1451 1.490 . S
C1456 C1458 1.395 . S
C1456 C1459 1.403 . S
H1457 C1463 0.930 . S
C1458 H1444 0.930 . S
C1458 C1456 1.395 . S
C1458 C1461 1.403 . S
C1459 C1456 1.403 . S
C1459 C1460 1.524 . S
C1459 C1463 1.400 . S
C1460 H1445 0.960 . S
C1460 H1446 0.960 . S
C1460 H1447 0.960 . S
C1460 C1459 1.524 . S
C1461 C1458 1.403 . S
C1461 C1462 1.392 . S
C1461 C1465 1.495 . S
C1462 C1461 1.392 . S
C1462 C1463 1.385 . S
C1462 C1464 1.478 . S
C1463 H1457 0.930 . S
C1463 C1459 1.400 . S
C1463 C1462 1.385 . S
C1464 C1462 1.478 . S
C1464 C1466 1.381 . S
C1464 C1470 1.383 . S
C1465 C1461 1.495 . S
C1465 H1471 0.959 . S
C1465 H1472 0.961 . S
C1465 H1473 0.960 . S
C1466 C1464 1.381 . S
C1466 C1467 1.394 . S
C1466 H1474 0.930 . S
C1467 C1466 1.394 . S
C1467 C1468 1.383 . S
C1467 H1475 0.929 . S
C1468 C1467 1.383 . S
C1468 C1469 1.377 . S
C1469 H1453 0.930 . S
C1469 C1468 1.377 . S
C1469 C1470 1.379 . S
C1470 H1454 0.931 . S
C1470 C1464 1.383 . S
C1470 C1469 1.379 . S
H1471 C1465 0.959 . S
H1472 C1465 0.961 . S
H1473 C1465 0.960 . S
H1474 C1466 0.930 . S
H1475 C1467 0.929 . S
H1476 C1484 0.929 . S
H1477 C1486 0.930 . S
H1478 C1488 0.930 . S
H1479 C1491 0.929 . S
H1480 C1494 0.930 . S
H1481 C1496 0.960 . S
H1482 C1496 0.960 . S
H1483 C1496 0.960 . S
C1484 H1476 0.929 . S
C1484 C1485 1.377 . S
C1484 C1486 1.384 . S
C1485 C1484 1.377 . S
C1485 C1491 1.390 . S
C1486 H1477 0.930 . S
C1486 C1484 1.384 . S
C1486 C1487 1.372 . S
C1487 C1486 1.372 . S
C1487 C1488 1.400 . S
C1487 C1492 1.490 . S
C1488 H1478 0.930 . S
C1488 C1487 1.400 . S
C1488 C1491 1.386 . S
H1489 C1505 0.930 . S
H1490 C1506 0.931 . S
C1491 H1479 0.929 . S
C1491 C1485 1.390 . S
C1491 C1488 1.386 . S
C1492 C1487 1.490 . S
C1492 C1494 1.395 . S
C1492 C1495 1.403 . S
H1493 C1499 0.930 . S
C1494 H1480 0.930 . S
C1494 C1492 1.395 . S
C1494 C1497 1.403 . S
C1495 C1492 1.403 . S
C1495 C1496 1.524 . S
C1495 C1499 1.400 . S
C1496 H1481 0.960 . S
C1496 H1482 0.960 . S
C1496 H1483 0.960 . S
C1496 C1495 1.524 . S
C1497 C1494 1.403 . S
C1497 C1498 1.392 . S
C1497 C1501 1.495 . S
C1498 C1497 1.392 . S
C1498 C1499 1.385 . S
C1498 C1500 1.478 . S
C1499 H1493 0.930 . S
C1499 C1495 1.400 . S
C1499 C1498 1.385 . S
C1500 C1498 1.478 . S
C1500 C1502 1.381 . S
C1500 C1506 1.383 . S
C1501 C1497 1.495 . S
C1501 H1507 0.959 . S
C1501 H1508 0.961 . S
C1501 H1509 0.960 . S
C1502 C1500 1.381 . S
C1502 C1503 1.394 . S
C1502 H1510 0.930 . S
C1503 C1502 1.394 . S
C1503 C1504 1.383 . S
C1503 H1511 0.929 . S
C1504 C1503 1.383 . S
C1504 C1505 1.377 . S
C1505 H1489 0.930 . S
C1505 C1504 1.377 . S
C1505 C1506 1.379 . S
C1506 H1490 0.931 . S
C1506 C1500 1.383 . S
C1506 C1505 1.379 . S
H1507 C1501 0.959 . S
H1508 C1501 0.961 . S
H1509 C1501 0.960 . S
H1510 C1502 0.930 . S
H1511 C1503 0.929 . S
C657 C235 1.474 . S
C676 C386 1.453 . S
C712 C470 1.467 . S
C693 C289 1.469 . S
C748 C463 1.468 . S
C729 C157 1.463 . S
C765 C211 1.459 . S
C784 C379 1.462 . S
C820 C543 1.445 . S
C801 C79 1.473 . S
C856 C627 1.468 . S
C837 C118 1.477 . S
C873 C1 1.465 . S
C892 C620 1.464 . S
C909 C40 1.468 . S
C928 C536 1.464 . S
C964 C370 1.317 . S
C945 C55 1.514 1_554 S
C1000 C454 1.343 . S
C981 C16 1.514 . S
C1036 C465 1.361 . S
C1017 C133 1.542 . S
C1072 C381 1.390 . S
C1053 C94 1.539 . S
C1108 C549 1.321 . S
C1089 C196 1.522 1_556 S
C1125 C172 1.520 . S
C1144 C633 1.310 . S
C1180 C622 1.417 . S
C1161 C274 1.569 . S
C1197 C250 1.545 . S
C1216 C538 1.379 . S
C1252 C368 1.586 . S
C1233 C21 1.588 . S
C1288 C452 1.597 . S
C1269 C60 1.594 . S
C1305 C99 1.576 . S
C1324 C459 1.569 . S
C1360 C375 1.573 . S
C1341 C138 1.580 . S
C1396 C547 1.591 . S
C1377 C177 1.591 . S
C1413 C216 1.593 . S
C1432 C631 1.591 . S
C1449 C255 1.581 . S
C1468 C638 1.557 . S
C1485 C294 1.577 . S
C1504 C554 1.578 . S
