# Generated by pormake.
# Topology sqc, (4,8)-cn, num edge types: 1
# Building blocks:
#     Node 0, Type 0, BuildingBlock: NAHDIM_clean_linker_0, # of connection points: 4
#     Node 1, Type 0, BuildingBlock: NAHDIM_clean_linker_0, # of connection points: 4
#     Node 2, Type 0, BuildingBlock: NAHDIM_clean_linker_0, # of connection points: 4
#     Node 3, Type 0, BuildingBlock: NAHDIM_clean_linker_0, # of connection points: 4
#     Node 4, Type 0, BuildingBlock: NAHDIM_clean_linker_0, # of connection points: 4
#     Node 5, Type 0, BuildingBlock: NAHDIM_clean_linker_0, # of connection points: 4
#     Node 6, Type 0, BuildingBlock: NAHDIM_clean_linker_0, # of connection points: 4
#     Node 7, Type 0, BuildingBlock: NAHDIM_clean_linker_0, # of connection points: 4
#     Node 8, Type 1, BuildingBlock: TAGTUT_clean_sbu_3, # of connection points: 8
#     Node 9, Type 1, BuildingBlock: TAGTUT_clean_sbu_3, # of connection points: 8
#     Node 10, Type 1, BuildingBlock: TAGTUT_clean_sbu_3, # of connection points: 8
#     Node 11, Type 1, BuildingBlock: TAGTUT_clean_sbu_3, # of connection points: 8
#     Edge 12, Type (0, 1), BuildingBlock: XIVTED_clean_linker_0, # of connection points: 2
#     Edge 13, Type (0, 1), BuildingBlock: XIVTED_clean_linker_0, # of connection points: 2
#     Edge 14, Type (0, 1), BuildingBlock: XIVTED_clean_linker_0, # of connection points: 2
#     Edge 15, Type (0, 1), BuildingBlock: XIVTED_clean_linker_0, # of connection points: 2
#     Edge 16, Type (0, 1), BuildingBlock: XIVTED_clean_linker_0, # of connection points: 2
#     Edge 17, Type (0, 1), BuildingBlock: XIVTED_clean_linker_0, # of connection points: 2
#     Edge 18, Type (0, 1), BuildingBlock: XIVTED_clean_linker_0, # of connection points: 2
#     Edge 19, Type (0, 1), BuildingBlock: XIVTED_clean_linker_0, # of connection points: 2
#     Edge 20, Type (0, 1), BuildingBlock: XIVTED_clean_linker_0, # of connection points: 2
#     Edge 21, Type (0, 1), BuildingBlock: XIVTED_clean_linker_0, # of connection points: 2
#     Edge 22, Type (0, 1), BuildingBlock: XIVTED_clean_linker_0, # of connection points: 2
#     Edge 23, Type (0, 1), BuildingBlock: XIVTED_clean_linker_0, # of connection points: 2
#     Edge 24, Type (0, 1), BuildingBlock: XIVTED_clean_linker_0, # of connection points: 2
#     Edge 25, Type (0, 1), BuildingBlock: XIVTED_clean_linker_0, # of connection points: 2
#     Edge 26, Type (0, 1), BuildingBlock: XIVTED_clean_linker_0, # of connection points: 2
#     Edge 27, Type (0, 1), BuildingBlock: XIVTED_clean_linker_0, # of connection points: 2
#     Edge 28, Type (0, 1), BuildingBlock: XIVTED_clean_linker_0, # of connection points: 2
#     Edge 29, Type (0, 1), BuildingBlock: XIVTED_clean_linker_0, # of connection points: 2
#     Edge 30, Type (0, 1), BuildingBlock: XIVTED_clean_linker_0, # of connection points: 2
#     Edge 31, Type (0, 1), BuildingBlock: XIVTED_clean_linker_0, # of connection points: 2
#     Edge 32, Type (0, 1), BuildingBlock: XIVTED_clean_linker_0, # of connection points: 2
#     Edge 33, Type (0, 1), BuildingBlock: XIVTED_clean_linker_0, # of connection points: 2
#     Edge 34, Type (0, 1), BuildingBlock: XIVTED_clean_linker_0, # of connection points: 2
#     Edge 35, Type (0, 1), BuildingBlock: XIVTED_clean_linker_0, # of connection points: 2
#     Edge 36, Type (0, 1), BuildingBlock: XIVTED_clean_linker_0, # of connection points: 2
#     Edge 37, Type (0, 1), BuildingBlock: XIVTED_clean_linker_0, # of connection points: 2
#     Edge 38, Type (0, 1), BuildingBlock: XIVTED_clean_linker_0, # of connection points: 2
#     Edge 39, Type (0, 1), BuildingBlock: XIVTED_clean_linker_0, # of connection points: 2
#     Edge 40, Type (0, 1), BuildingBlock: XIVTED_clean_linker_0, # of connection points: 2
#     Edge 41, Type (0, 1), BuildingBlock: XIVTED_clean_linker_0, # of connection points: 2
#     Edge 42, Type (0, 1), BuildingBlock: XIVTED_clean_linker_0, # of connection points: 2
#     Edge 43, Type (0, 1), BuildingBlock: XIVTED_clean_linker_0, # of connection points: 2
# Relax obj value: 0.120
# Max RMSD: 0.249
# Mean RMSD: 0.121
data_MOF--net-sqc--node1-TAGTUT_clean_sbu_3--node2-NAHDIM_clean_linker_0--edge1-XIVTED_clean_linker_0
_symmetry_space_group_name_H-M    P1
_symmetry_Int_Tables_number       1
_symmetry_cell_setting            triclinic
loop_
_symmetry_equiv_pos_as_xyz
'x, y, z'
_cell_length_a     31.021232
_cell_length_b     30.989814
_cell_length_c     104.00086
_cell_angle_alpha  90.28341
_cell_angle_beta   89.539177
_cell_angle_gamma 89.997748
loop_
_atom_site_label
_atom_site_type_symbol
_atom_site_fract_x
_atom_site_fract_y
_atom_site_fract_z
_atom_type_partial_charge
C0 C 0.75555 0.00304 0.47445 0.0
C1 C 0.77931 0.97897 0.46363 0.0
C2 C 0.84585 0.95003 0.47326 0.0
C3 C 0.86498 0.913 0.4783 0.0
C4 C 0.90663 0.91415 0.4835 0.0
C5 C 0.93002 0.95331 0.48343 0.0
C6 C 0.91147 0.99065 0.47796 0.0
C7 C 0.86934 0.98888 0.47317 0.0
C8 C 0.92523 0.87378 0.48931 0.0
C9 C 0.9358 0.03284 0.47736 0.0
C10 C 0.19478 0.90849 0.43782 0.0
C11 C 0.21833 0.90201 0.45061 0.0
C12 C 0.15856 0.89841 0.46625 0.0
C13 C 0.1464 0.94208 0.46534 0.0
C14 C 0.11091 0.95819 0.47228 0.0
C15 C 0.08773 0.93046 0.48059 0.0
C16 C 0.10015 0.88673 0.48169 0.0
C17 C 0.13531 0.87126 0.47445 0.0
C18 C 0.09814 0.00489 0.47073 0.0
C19 C 0.07625 0.85635 0.49052 0.0
C20 C 0.19617 0.08756 0.5459 0.0
C21 C 0.1723 0.11064 0.53675 0.0
C22 C 0.13106 0.09683 0.53308 0.0
C23 C 0.11334 0.05899 0.53856 0.0
C24 C 0.1371 0.03579 0.54778 0.0
C25 C 0.17823 0.05041 0.55132 0.0
C26 C 0.10654 0.12248 0.52324 0.0
C27 C 0.11919 0.99528 0.55377 0.0
C28 C 0.77865 0.03216 0.54776 0.0
C29 C 0.79818 0.04547 0.5607 0.0
C30 C 0.871 0.07065 0.55509 0.0
C31 C 0.8908 0.1023 0.54756 0.0
C32 C 0.93225 0.09594 0.54237 0.0
C33 C 0.95448 0.05716 0.54499 0.0
C34 C 0.93621 0.02679 0.55354 0.0
C35 C 0.89462 0.0338 0.55852 0.0
C36 C 0.95112 0.12928 0.53344 0.0
C37 C 0.95973 0.98575 0.55686 0.0
C38 C 0.97271 0.95631 0.48977 0.0
C39 C 0.00917 0.94132 0.48315 0.0
C40 C 0.05053 0.94722 0.48814 0.0
C41 C 0.05599 0.96983 0.49987 0.0
C42 C 0.09718 0.9784 0.50485 0.0
C43 C 0.1021 0.00248 0.51609 0.0
C44 C 0.066 0.01783 0.52299 0.0
C45 C 0.07054 0.04318 0.53426 0.0
C46 C 0.03387 0.05584 0.54127 0.0
C47 C 0.99257 0.04473 0.53709 0.0
C48 C 0.98741 0.02144 0.52548 0.0
C49 C 0.94619 0.01152 0.52073 0.0
C50 C 0.94132 0.9898 0.50913 0.0
C51 C 0.97743 0.97667 0.50187 0.0
C52 C 0.01923 0.98455 0.50676 0.0
C53 C 0.02423 0.00779 0.51845 0.0
C54 C 0.28255 0.13001 0.53346 0.0
C55 C 0.25884 0.13657 0.54632 0.0
O56 O 0.80491 0.94662 0.4687 0.0
O57 O 0.82934 0.07698 0.55881 0.0
O58 O 0.23644 0.09951 0.54968 0.0
O59 O 0.1919 0.88102 0.45938 0.0
H60 H 0.79943 0.00245 0.45822 0.0
H61 H 0.77915 0.01885 0.48091 0.0
H62 H 0.73559 0.98043 0.48024 0.0
H63 H 0.73441 0.02841 0.47039 0.0
H64 H 0.84676 0.88315 0.47834 0.0
H65 H 0.85528 0.01818 0.46951 0.0
H66 H 0.95434 0.8638 0.48377 0.0
H67 H 0.90188 0.8466 0.48933 0.0
H68 H 0.93538 0.88034 0.49935 0.0
H69 H 0.92069 0.056 0.47064 0.0
H70 H 0.96974 0.02737 0.47429 0.0
H71 H 0.93622 0.04785 0.48707 0.0
H72 H 0.22783 0.93404 0.45455 0.0
H73 H 0.21653 0.92427 0.43071 0.0
H74 H 0.16606 0.92938 0.43912 0.0
H75 H 0.18385 0.87707 0.43382 0.0
H76 H 0.16407 0.96391 0.45918 0.0
H77 H 0.14486 0.83771 0.47514 0.0
H78 H 0.10355 0.02251 0.47989 0.0
H79 H 0.06328 0.00728 0.4685 0.0
H80 H 0.11684 0.02116 0.463 0.0
H81 H 0.09144 0.82392 0.49085 0.0
H82 H 0.04251 0.85271 0.48721 0.0
H83 H 0.07506 0.87001 0.50041 0.0
H84 H 0.23607 0.16404 0.54527 0.0
H85 H 0.18556 0.13921 0.53231 0.0
H86 H 0.19675 0.03271 0.55834 0.0
H87 H 0.10211 0.1026 0.51444 0.0
H88 H 0.12342 0.15275 0.52053 0.0
H89 H 0.07399 0.13076 0.52703 0.0
H90 H 0.14187 0.98059 0.56071 0.0
H91 H 0.11191 0.97127 0.54613 0.0
H92 H 0.08846 0.00278 0.55886 0.0
H93 H 0.81215 0.0158 0.56489 0.0
H94 H 0.75056 0.01049 0.54929 0.0
H95 H 0.80316 0.01446 0.54195 0.0
H96 H 0.76845 0.06078 0.54218 0.0
H97 H 0.87279 0.13116 0.54523 0.0
H98 H 0.88097 0.01015 0.56497 0.0
H99 H 0.95211 0.11609 0.52349 0.0
H100 H 0.98476 0.13684 0.53624 0.0
H101 H 0.93201 0.1596 0.53345 0.0
H102 H 0.94392 0.96817 0.5649 0.0
H103 H 0.99355 0.99307 0.55953 0.0
H104 H 0.9607 0.96421 0.5483 0.0
H105 H 0.00538 0.92555 0.47389 0.0
H106 H 0.12613 0.96728 0.49999 0.0
H107 H 0.13459 0.00874 0.51934 0.0
H108 H 0.03749 0.07475 0.55 0.0
H109 H 0.91706 0.02095 0.5258 0.0
H110 H 0.9088 0.98346 0.50592 0.0
H111 H 0.30175 0.15918 0.53104 0.0
H112 H 0.30438 0.10165 0.53384 0.0
H113 H 0.25909 0.12447 0.52562 0.0
C114 C 0.06058 0.8622 0.81331 0.0
C115 C 0.10988 0.86205 0.81279 0.0
C116 C 0.15268 0.82545 0.79647 0.0
C117 C 0.19046 0.81834 0.80346 0.0
C118 C 0.21972 0.78599 0.79973 0.0
C119 C 0.21055 0.75972 0.78891 0.0
C120 C 0.17245 0.76701 0.78182 0.0
C121 C 0.14442 0.80048 0.78556 0.0
C122 C 0.26044 0.77992 0.80735 0.0
C123 C 0.1612 0.73936 0.77034 0.0
C124 C 0.23587 0.42466 0.8221 0.0
C125 C 0.24788 0.45378 0.81146 0.0
C126 C 0.26074 0.53198 0.80873 0.0
C127 C 0.24594 0.53537 0.79603 0.0
C128 C 0.2476 0.57494 0.78951 0.0
C129 C 0.26576 0.61152 0.79564 0.0
C130 C 0.28098 0.60808 0.80838 0.0
C131 C 0.27775 0.56847 0.81478 0.0
C132 C 0.22994 0.57753 0.77604 0.0
C133 C 0.30078 0.64615 0.81524 0.0
C134 C 0.48877 0.58168 0.73952 0.0
C135 C 0.44563 0.57426 0.73619 0.0
C136 C 0.41388 0.60553 0.73871 0.0
C137 C 0.42532 0.64422 0.74515 0.0
C138 C 0.46896 0.65185 0.74837 0.0
C139 C 0.50022 0.62076 0.74525 0.0
C140 C 0.3682 0.59707 0.73447 0.0
C141 C 0.48273 0.6927 0.75515 0.0
C142 C 0.30899 0.95845 0.72786 0.0
C143 C 0.35197 0.94445 0.72175 0.0
C144 C 0.35416 0.86544 0.72288 0.0
C145 C 0.32983 0.8298 0.71904 0.0
C146 C 0.33275 0.79037 0.72553 0.0
C147 C 0.3611 0.78662 0.73604 0.0
C148 C 0.38763 0.82179 0.73953 0.0
C149 C 0.38416 0.86079 0.73285 0.0
C150 C 0.30457 0.75316 0.72144 0.0
C151 C 0.41893 0.8184 0.75052 0.0
C152 C 0.24132 0.72525 0.78492 0.0
C153 C 0.2402 0.68598 0.7915 0.0
C154 C 0.26964 0.65301 0.78861 0.0
C155 C 0.30142 0.6594 0.77897 0.0
C156 C 0.33314 0.62806 0.77633 0.0
C157 C 0.36334 0.63402 0.76653 0.0
C158 C 0.36256 0.67122 0.75885 0.0
C159 C 0.39189 0.67685 0.74848 0.0
C160 C 0.39022 0.71444 0.74112 0.0
C161 C 0.36068 0.74714 0.744 0.0
C162 C 0.33148 0.74235 0.75439 0.0
C163 C 0.30207 0.7752 0.75772 0.0
C164 C 0.27309 0.77002 0.76785 0.0
C165 C 0.27171 0.73142 0.77488 0.0
C166 C 0.30164 0.69824 0.77186 0.0
C167 C 0.33189 0.70391 0.76168 0.0
C168 C 0.55654 0.48722 0.74232 0.0
C169 C 0.51498 0.50776 0.73746 0.0
O170 O 0.12343 0.85569 0.80019 0.0
O171 O 0.34801 0.9033 0.71663 0.0
O172 O 0.5202 0.55211 0.73724 0.0
O173 O 0.25867 0.49494 0.81566 0.0
H174 H 0.12026 0.83443 0.81887 0.0
H175 H 0.04788 0.83188 0.80904 0.0
H176 H 0.04733 0.88992 0.80791 0.0
H177 H 0.04916 0.86441 0.82345 0.0
H178 H 0.1972 0.83835 0.81178 0.0
H179 H 0.11521 0.80643 0.78021 0.0
H180 H 0.25928 0.74827 0.81228 0.0
H181 H 0.26483 0.80561 0.81471 0.0
H182 H 0.28893 0.77971 0.80081 0.0
H183 H 0.12799 0.74564 0.76689 0.0
H184 H 0.16411 0.70465 0.77279 0.0
H185 H 0.18416 0.746 0.76236 0.0
H186 H 0.22614 0.45181 0.80304 0.0
H187 H 0.20142 0.41481 0.82021 0.0
H188 H 0.2272 0.44586 0.83061 0.0
H189 H 0.28939 0.37626 0.82242 0.0
H190 H 0.23267 0.50774 0.7911 0.0
H191 H 0.28895 0.56565 0.82459 0.0
H192 H 0.25707 0.5795 0.76905 0.0
H193 H 0.20993 0.60697 0.77493 0.0
H194 H 0.21011 0.54888 0.77355 0.0
H195 H 0.31649 0.63668 0.82436 0.0
H196 H 0.27522 0.67012 0.8175 0.0
H197 H 0.32506 0.66215 0.80896 0.0
H198 H 0.48894 0.49916 0.74444 0.0
H199 H 0.43673 0.54443 0.73146 0.0
H200 H 0.53372 0.62635 0.74763 0.0
H201 H 0.34815 0.58833 0.74294 0.0
H202 H 0.36644 0.57018 0.72739 0.0
H203 H 0.35402 0.62643 0.73012 0.0
H204 H 0.51608 0.69036 0.75891 0.0
H205 H 0.46047 0.70029 0.76327 0.0
H206 H 0.48156 0.71995 0.74828 0.0
H207 H 0.376 0.94579 0.72957 0.0
H208 H 0.31016 0.99303 0.73071 0.0
H209 H 0.3027 0.93901 0.73663 0.0
H210 H 0.28176 0.95308 0.72118 0.0
H211 H 0.30748 0.8334 0.71116 0.0
H212 H 0.40524 0.88708 0.73546 0.0
H213 H 0.28087 0.74598 0.7292 0.0
H214 H 0.3245 0.72378 0.71992 0.0
H215 H 0.28674 0.76015 0.71247 0.0
H216 H 0.43765 0.84857 0.75197 0.0
H217 H 0.44177 0.79149 0.74865 0.0
H218 H 0.40114 0.81094 0.75954 0.0
H219 H 0.21618 0.68105 0.79898 0.0
H220 H 0.335 0.59852 0.78181 0.0
H221 H 0.38698 0.60881 0.76497 0.0
H222 H 0.41254 0.71852 0.73313 0.0
H223 H 0.30111 0.80539 0.75253 0.0
H224 H 0.25138 0.7965 0.76997 0.0
H225 H 0.5841 0.49503 0.73585 0.0
H226 H 0.55297 0.45159 0.74287 0.0
H227 H 0.56385 0.49968 0.7521 0.0
C228 C 0.79796 0.02706 0.08333 0.0
C229 C 0.79219 0.9787 0.08073 0.0
C230 C 0.75468 0.9661 0.06035 0.0
C231 C 0.75873 0.94363 0.04875 0.0
C232 C 0.72309 0.93703 0.04078 0.0
C233 C 0.68269 0.95485 0.04435 0.0
C234 C 0.67847 0.97828 0.056 0.0
C235 C 0.71446 0.98337 0.06396 0.0
C236 C 0.72869 0.91102 0.02857 0.0
C237 C 0.63601 0.99816 0.06002 0.0
C238 C 0.46395 0.70417 0.05573 0.0
C239 C 0.47004 0.7526 0.05795 0.0
C240 C 0.49456 0.80602 0.04272 0.0
C241 C 0.49313 0.84577 0.04913 0.0
C242 C 0.51999 0.8799 0.04526 0.0
C243 C 0.54964 0.87355 0.03498 0.0
C244 C 0.55151 0.83292 0.02866 0.0
C245 C 0.52311 0.79998 0.03243 0.0
C246 C 0.51671 0.92265 0.05221 0.0
C247 C 0.58372 0.824 0.01801 0.0
C248 C 0.45263 0.96784 0.96178 0.0
C249 C 0.45134 0.00528 0.96946 0.0
C250 C 0.48742 0.0181 0.97656 0.0
C251 C 0.52571 0.99343 0.97576 0.0
C252 C 0.52814 0.95776 0.96724 0.0
C253 C 0.49145 0.94549 0.96033 0.0
C254 C 0.4842 0.05703 0.98529 0.0
C255 C 0.56887 0.93148 0.9659 0.0
C256 C 0.80709 0.21018 0.98483 0.0
C257 C 0.79227 0.16907 0.97796 0.0
C258 C 0.71925 0.13992 0.97861 0.0
C259 C 0.67832 0.15183 0.98302 0.0
C260 C 0.64784 0.12058 0.98663 0.0
C261 C 0.65824 0.07626 0.98538 0.0
C262 C 0.69896 0.06402 0.98027 0.0
C263 C 0.72923 0.09601 0.97706 0.0
C264 C 0.60476 0.135 0.99195 0.0
C265 C 0.71063 0.01717 0.97827 0.0
C266 C 0.64499 0.94915 0.03583 0.0
C267 C 0.61511 0.91701 0.03893 0.0
C268 C 0.57954 0.90887 0.03112 0.0
C269 C 0.5738 0.93323 0.01977 0.0
C270 C 0.53831 0.92631 0.01171 0.0
C271 C 0.53404 0.94904 0.00029 0.0
C272 C 0.5649 0.97993 0.99653 0.0
C273 C 0.56153 0.00224 0.98475 0.0
C274 C 0.59242 0.03309 0.98136 0.0
C275 C 0.62672 0.04281 0.98953 0.0
C276 C 0.63061 0.0208 0.00138 0.0
C277 C 0.66424 0.03008 0.00994 0.0
C278 C 0.6687 0.0071 0.02131 0.0
C279 C 0.63965 0.97398 0.02459 0.0
C280 C 0.60439 0.9654 0.0164 0.0
C281 C 0.59993 0.98878 0.00477 0.0
C282 C 0.35546 0.91104 0.96188 0.0
C283 C 0.37493 0.95607 0.96006 0.0
O284 O 0.7905 0.9709 0.06763 0.0
O285 O 0.74824 0.17153 0.97591 0.0
O286 O 0.41718 0.95205 0.95579 0.0
O287 O 0.46802 0.77337 0.04621 0.0
H288 H 0.76184 0.9678 0.0855 0.0
H289 H 0.76996 0.04534 0.07963 0.0
H290 H 0.82755 0.03943 0.07852 0.0
H291 H 0.80025 0.03319 0.09384 0.0
H292 H 0.78995 0.9306 0.04605 0.0
H293 H 0.71106 0.00141 0.07284 0.0
H294 H 0.70277 0.88646 0.02777 0.0
H295 H 0.76043 0.89444 0.02812 0.0
H296 H 0.72623 0.9327 0.02015 0.0
H297 H 0.63915 0.01935 0.06861 0.0
H298 H 0.61263 0.97215 0.06229 0.0
H299 H 0.62252 0.01735 0.052 0.0
H300 H 0.50264 0.75719 0.06221 0.0
H301 H 0.46702 0.68631 0.06492 0.0
H302 H 0.48893 0.69197 0.04892 0.0
H303 H 0.43168 0.69765 0.0516 0.0
H304 H 0.47054 0.85023 0.05702 0.0
H305 H 0.52381 0.76894 0.02758 0.0
H306 H 0.51597 0.94962 0.04522 0.0
H307 H 0.54552 0.92705 0.05833 0.0
H308 H 0.48754 0.92457 0.05846 0.0
H309 H 0.5862 0.789 0.01575 0.0
H310 H 0.61613 0.83617 0.02067 0.0
H311 H 0.57367 0.84105 0.00917 0.0
H312 H 0.3732 0.97133 0.96976 0.0
H313 H 0.42213 0.02428 0.97008 0.0
H314 H 0.49243 0.91726 0.95413 0.0
H315 H 0.48962 0.04716 0.9954 0.0
H316 H 0.45231 0.07319 0.98469 0.0
H317 H 0.5097 0.08064 0.98271 0.0
H318 H 0.56721 0.90806 0.9578 0.0
H319 H 0.57438 0.91335 0.97492 0.0
H320 H 0.59701 0.95306 0.96437 0.0
H321 H 0.79973 0.14191 0.98457 0.0
H322 H 0.84241 0.20905 0.98652 0.0
H323 H 0.79043 0.21305 0.99429 0.0
H324 H 0.79945 0.23929 0.97908 0.0
H325 H 0.67079 0.18585 0.98401 0.0
H326 H 0.76049 0.08671 0.97325 0.0
H327 H 0.59765 0.11824 0.00114 0.0
H328 H 0.57906 0.12623 0.98505 0.0
H329 H 0.6035 0.1704 0.99365 0.0
H330 H 0.74068 0.01324 0.9725 0.0
H331 H 0.68404 0.99985 0.97336 0.0
H332 H 0.71543 0.00163 0.98774 0.0
H333 H 0.61983 0.89778 0.04749 0.0
H334 H 0.51362 0.9029 0.01408 0.0
H335 H 0.50627 0.94187 0.99442 0.0
H336 H 0.58964 0.04984 0.97227 0.0
H337 H 0.68775 0.05499 0.0079 0.0
H338 H 0.69545 0.01544 0.02747 0.0
H339 H 0.32068 0.9135 0.96443 0.0
H340 H 0.37223 0.89432 0.96984 0.0
H341 H 0.35927 0.89098 0.95307 0.0
C342 C 0.15609 0.0725 0.23904 0.0
C343 C 0.1727 0.08533 0.22567 0.0
C344 C 0.23052 0.13875 0.22896 0.0
C345 C 0.2747 0.14557 0.22742 0.0
C346 C 0.29351 0.18537 0.23048 0.0
C347 C 0.26738 0.2192 0.23537 0.0
C348 C 0.22238 0.21309 0.23664 0.0
C349 C 0.2043 0.17289 0.23342 0.0
C350 C 0.34163 0.19075 0.22887 0.0
C351 C 0.19378 0.2485 0.24189 0.0
C352 C 0.39266 0.54084 0.20823 0.0
C353 C 0.34814 0.52033 0.20982 0.0
C354 C 0.34009 0.44179 0.21247 0.0
C355 C 0.30875 0.44186 0.22229 0.0
C356 C 0.30074 0.40452 0.22954 0.0
C357 C 0.32444 0.36638 0.22689 0.0
C358 C 0.35436 0.36565 0.21656 0.0
C359 C 0.36147 0.40335 0.20941 0.0
C360 C 0.26767 0.4061 0.24025 0.0
C361 C 0.37988 0.32551 0.21337 0.0
C362 C 0.51163 0.41527 0.28689 0.0
C363 C 0.46884 0.42605 0.29009 0.0
C364 C 0.43621 0.39478 0.28974 0.0
C365 C 0.4464 0.35227 0.28573 0.0
C366 C 0.48987 0.34076 0.28328 0.0
C367 C 0.52207 0.37242 0.28409 0.0
C368 C 0.39054 0.40769 0.29307 0.0
C369 C 0.50204 0.29553 0.27922 0.0
C370 C 0.24792 0.09323 0.32695 0.0
C371 C 0.29503 0.09742 0.32272 0.0
C372 C 0.32644 0.16716 0.31732 0.0
C373 C 0.31404 0.21032 0.31827 0.0
C374 C 0.32839 0.24072 0.30925 0.0
C375 C 0.35707 0.22766 0.29931 0.0
C376 C 0.37211 0.18451 0.29885 0.0
C377 C 0.35616 0.15449 0.30778 0.0
C378 C 0.31199 0.2865 0.31015 0.0
C379 C 0.40427 0.16991 0.28877 0.0
C380 C 0.28831 0.25889 0.24038 0.0
C381 C 0.29412 0.29407 0.23214 0.0
C382 C 0.32059 0.32873 0.23565 0.0
C383 C 0.34347 0.3272 0.24736 0.0
C384 C 0.37435 0.35865 0.2505 0.0
C385 C 0.39727 0.35631 0.26191 0.0
C386 C 0.3889 0.32351 0.27092 0.0
C387 C 0.41136 0.32138 0.28269 0.0
C388 C 0.40096 0.28941 0.29164 0.0
C389 C 0.36913 0.25867 0.28903 0.0
C390 C 0.34789 0.25899 0.27703 0.0
C391 C 0.3172 0.2274 0.27381 0.0
C392 C 0.2979 0.22705 0.26178 0.0
C393 C 0.30688 0.25953 0.25275 0.0
C394 C 0.33572 0.29303 0.25607 0.0
C395 C 0.35747 0.29188 0.26803 0.0
C396 C 0.57772 0.50629 0.27687 0.0
C397 C 0.53753 0.48876 0.28365 0.0
O398 O 0.21522 0.09857 0.22631 0.0
O399 O 0.30931 0.1386 0.32577 0.0
O400 O 0.54341 0.44532 0.28619 0.0
O401 O 0.35031 0.47772 0.20564 0.0
H402 H 0.15209 0.11214 0.22217 0.0
H403 H 0.15625 0.10085 0.24559 0.0
H404 H 0.17649 0.04706 0.24335 0.0
H405 H 0.12246 0.06075 0.23837 0.0
H406 H 0.29462 0.11918 0.22394 0.0
H407 H 0.17001 0.16827 0.23473 0.0
H408 H 0.34889 0.2209 0.22355 0.0
H409 H 0.35661 0.16314 0.22364 0.0
H410 H 0.35675 0.19345 0.23848 0.0
H411 H 0.15911 0.23955 0.2417 0.0
H412 H 0.19854 0.27838 0.2362 0.0
H413 H 0.20294 0.25589 0.25196 0.0
H414 H 0.33989 0.52223 0.22024 0.0
H415 H 0.39217 0.57485 0.21167 0.0
H416 H 0.40307 0.54012 0.19798 0.0
H417 H 0.4166 0.52275 0.21398 0.0
H418 H 0.29045 0.47088 0.22431 0.0
H419 H 0.38492 0.40338 0.20162 0.0
H420 H 0.24556 0.37801 0.23954 0.0
H421 H 0.24831 0.43626 0.2401 0.0
H422 H 0.28424 0.40408 0.24965 0.0
H423 H 0.40241 0.33039 0.20515 0.0
H424 H 0.35752 0.29876 0.21096 0.0
H425 H 0.3987 0.31543 0.22188 0.0
H426 H 0.51021 0.49273 0.27685 0.0
H427 H 0.4606 0.45889 0.29269 0.0
H428 H 0.55534 0.3643 0.28192 0.0
H429 H 0.37175 0.41105 0.2841 0.0
H430 H 0.38924 0.43891 0.29835 0.0
H431 H 0.37474 0.38247 0.29902 0.0
H432 H 0.53731 0.29186 0.27762 0.0
H433 H 0.48511 0.28689 0.2702 0.0
H434 H 0.49158 0.27231 0.28671 0.0
H435 H 0.29607 0.09205 0.31211 0.0
H436 H 0.23517 0.06083 0.32438 0.0
H437 H 0.22814 0.11793 0.32202 0.0
H438 H 0.24467 0.09811 0.33751 0.0
H439 H 0.29166 0.21979 0.32582 0.0
H440 H 0.36692 0.12125 0.30736 0.0
H441 H 0.29698 0.29595 0.30093 0.0
H442 H 0.33939 0.30875 0.3119 0.0
H443 H 0.28792 0.29082 0.31802 0.0
H444 H 0.41801 0.13772 0.291 0.0
H445 H 0.43098 0.19362 0.28792 0.0
H446 H 0.38818 0.16793 0.2793 0.0
H447 H 0.27878 0.29397 0.2228 0.0
H448 H 0.38187 0.38494 0.24405 0.0
H449 H 0.42132 0.38093 0.26361 0.0
H450 H 0.4176 0.28864 0.30077 0.0
H451 H 0.30837 0.20199 0.28042 0.0
H452 H 0.27532 0.20134 0.25973 0.0
H453 H 0.57266 0.54044 0.27405 0.0
H454 H 0.58443 0.48711 0.26802 0.0
H455 H 0.60623 0.50453 0.28322 0.0
C456 C 0.60737 0.37657 0.31371 0.0
C457 C 0.65591 0.38263 0.31166 0.0
C458 C 0.69601 0.34136 0.29576 0.0
C459 C 0.73699 0.34083 0.30133 0.0
C460 C 0.76725 0.30905 0.29788 0.0
C461 C 0.75591 0.27677 0.28882 0.0
C462 C 0.71424 0.27699 0.28334 0.0
C463 C 0.68514 0.30998 0.28668 0.0
C464 C 0.81144 0.31016 0.30383 0.0
C465 C 0.70041 0.24249 0.27394 0.0
C466 C 0.89874 0.00107 0.33253 0.0
C467 C 0.85183 0.01448 0.33033 0.0
C468 C 0.83925 0.05973 0.31143 0.0
C469 C 0.81443 0.06039 0.30031 0.0
C470 C 0.80794 0.09874 0.29351 0.0
C471 C 0.82795 0.13726 0.29776 0.0
C472 C 0.85301 0.13695 0.30907 0.0
C473 C 0.85843 0.09813 0.31581 0.0
C474 C 0.78047 0.09779 0.28159 0.0
C475 C 0.8751 0.17733 0.31378 0.0
C476 C 0.00977 0.08588 0.23619 0.0
C477 C 0.96595 0.08044 0.23329 0.0
C478 C 0.93678 0.11474 0.23473 0.0
C479 C 0.9517 0.15519 0.23925 0.0
C480 C 0.99626 0.16148 0.24138 0.0
C481 C 0.02484 0.12672 0.23969 0.0
C482 C 0.88969 0.10717 0.23197 0.0
C483 C 0.01332 0.2043 0.24605 0.0
C484 C 0.7467 0.4182 0.20131 0.0
C485 C 0.79325 0.4112 0.20553 0.0
C486 C 0.82673 0.34164 0.21 0.0
C487 C 0.81666 0.29788 0.20913 0.0
C488 C 0.83456 0.26802 0.21764 0.0
C489 C 0.86444 0.28232 0.22697 0.0
C490 C 0.87748 0.32612 0.22717 0.0
C491 C 0.85801 0.35553 0.21878 0.0
C492 C 0.82034 0.22148 0.21695 0.0
C493 C 0.91069 0.3421 0.23657 0.0
C494 C 0.78819 0.24375 0.28482 0.0
C495 C 0.79483 0.20824 0.29284 0.0
C496 C 0.82546 0.17666 0.28971 0.0
C497 C 0.85104 0.18108 0.27848 0.0
C498 C 0.88375 0.15123 0.27544 0.0
C499 C 0.90722 0.15446 0.26405 0.0
C500 C 0.89842 0.18722 0.25513 0.0
C501 C 0.92015 0.18901 0.24312 0.0
C502 C 0.90987 0.22141 0.23434 0.0
C503 C 0.87829 0.25232 0.23724 0.0
C504 C 0.85702 0.25161 0.24935 0.0
C505 C 0.82568 0.28262 0.25271 0.0
C506 C 0.80426 0.28104 0.26449 0.0
C507 C 0.81176 0.24722 0.27315 0.0
C508 C 0.84334 0.21578 0.27 0.0
C509 C 0.86662 0.21849 0.25821 0.0
C510 C 0.06296 0.98804 0.2459 0.0
C511 C 0.0278 0.00939 0.23789 0.0
O512 O 0.66636 0.37167 0.29909 0.0
O513 O 0.80541 0.36947 0.20229 0.0
O514 O 0.0381 0.05243 0.23598 0.0
O515 O 0.84499 0.02121 0.31736 0.0
H516 H 0.67188 0.36017 0.31849 0.0
H517 H 0.59881 0.34205 0.31234 0.0
H518 H 0.58877 0.39584 0.3067 0.0
H519 H 0.59785 0.38638 0.32362 0.0
H520 H 0.74542 0.36564 0.30824 0.0
H521 H 0.65331 0.31078 0.28246 0.0
H522 H 0.81602 0.28094 0.30979 0.0
H523 H 0.81623 0.33914 0.30998 0.0
H524 H 0.83662 0.30976 0.29617 0.0
H525 H 0.66512 0.24323 0.27222 0.0
H526 H 0.70936 0.21004 0.27753 0.0
H527 H 0.71728 0.24734 0.26461 0.0
H528 H 0.84645 0.04469 0.33597 0.0
H529 H 0.90344 0.99134 0.34269 0.0
H530 H 0.92041 0.02875 0.33047 0.0
H531 H 0.90821 0.97409 0.32603 0.0
H532 H 0.79996 0.03056 0.29698 0.0
H533 H 0.87869 0.09772 0.32423 0.0
H534 H 0.75752 0.1253 0.28166 0.0
H535 H 0.76196 0.06724 0.28071 0.0
H536 H 0.80145 0.10104 0.27295 0.0
H537 H 0.89409 0.17169 0.32262 0.0
H538 H 0.85064 0.20266 0.31583 0.0
H539 H 0.89697 0.18987 0.30616 0.0
H540 H 0.99753 0.00675 0.24368 0.0
H541 H 0.95426 0.04932 0.23009 0.0
H542 H 0.05886 0.13079 0.24166 0.0
H543 H 0.87132 0.10623 0.24116 0.0
H544 H 0.88426 0.07629 0.22675 0.0
H545 H 0.87655 0.13402 0.22616 0.0
H546 H 0.04903 0.20448 0.2468 0.0
H547 H 0.99922 0.21185 0.25565 0.0
H548 H 0.00335 0.2303 0.23939 0.0
H549 H 0.79386 0.41573 0.21617 0.0
H550 H 0.73558 0.4511 0.20405 0.0
H551 H 0.7253 0.39434 0.2061 0.0
H552 H 0.74383 0.41411 0.19072 0.0
H553 H 0.79312 0.28749 0.20212 0.0
H554 H 0.86702 0.38928 0.21912 0.0
H555 H 0.80807 0.21079 0.22648 0.0
H556 H 0.84837 0.20084 0.21438 0.0
H557 H 0.79474 0.21622 0.2097 0.0
H558 H 0.92294 0.37465 0.234 0.0
H559 H 0.93828 0.31931 0.23699 0.0
H560 H 0.89606 0.34393 0.24633 0.0
H561 H 0.77551 0.20483 0.30152 0.0
H562 H 0.89154 0.1249 0.28182 0.0
H563 H 0.93187 0.1304 0.26225 0.0
H564 H 0.92562 0.22175 0.22499 0.0
H565 H 0.81731 0.30863 0.24629 0.0
H566 H 0.78092 0.30613 0.26656 0.0
H567 H 0.05414 0.95402 0.24798 0.0
H568 H 0.06648 0.00552 0.25518 0.0
H569 H 0.09451 0.98844 0.24077 0.0
C570 C 0.63326 0.59302 0.74279 0.0
C571 C 0.64828 0.60859 0.72952 0.0
C572 C 0.70983 0.65803 0.73225 0.0
C573 C 0.75358 0.66289 0.7294 0.0
C574 C 0.77521 0.70158 0.73202 0.0
C575 C 0.75253 0.73617 0.73788 0.0
C576 C 0.70802 0.73187 0.74064 0.0
C577 C 0.68701 0.69281 0.73779 0.0
C578 C 0.82264 0.70506 0.72882 0.0
C579 C 0.68307 0.76809 0.74696 0.0
C580 C 0.85815 0.04291 0.70936 0.0
C581 C 0.81748 0.02684 0.70259 0.0
C582 C 0.79339 0.96729 0.7167 0.0
C583 C 0.76467 0.95709 0.72663 0.0
C584 C 0.76703 0.91752 0.73306 0.0
C585 C 0.79868 0.88696 0.72932 0.0
C586 C 0.82692 0.89627 0.71894 0.0
C587 C 0.8243 0.93653 0.7128 0.0
C588 C 0.73625 0.90878 0.74406 0.0
C589 C 0.86048 0.86405 0.71458 0.0
C590 C 0.01089 0.93598 0.78544 0.0
C591 C 0.96763 0.94615 0.78816 0.0
C592 C 0.9354 0.91462 0.78722 0.0
C593 C 0.9464 0.87271 0.78283 0.0
C594 C 0.99007 0.86223 0.78027 0.0
C595 C 0.02183 0.89395 0.78182 0.0
C596 C 0.8896 0.92639 0.7908 0.0
C597 C 0.00321 0.8177 0.77579 0.0
C598 C 0.7799 0.60672 0.83045 0.0
C599 C 0.82454 0.61298 0.8244 0.0
C600 C 0.84952 0.68356 0.81759 0.0
C601 C 0.83421 0.72575 0.81865 0.0
C602 C 0.84256 0.75601 0.80896 0.0
C603 C 0.86813 0.74393 0.79819 0.0
C604 C 0.88587 0.70188 0.79746 0.0
C605 C 0.8759 0.67188 0.80712 0.0
C606 C 0.8234 0.80065 0.81015 0.0
C607 C 0.91491 0.68854 0.78643 0.0
C608 C 0.7766 0.77511 0.74207 0.0
C609 C 0.77753 0.81128 0.73405 0.0
C610 C 0.8037 0.8468 0.73694 0.0
C611 C 0.83159 0.84509 0.74762 0.0
C612 C 0.86168 0.878 0.75004 0.0
C613 C 0.88919 0.87573 0.76051 0.0
C614 C 0.88583 0.84188 0.76944 0.0
C615 C 0.91222 0.84027 0.78046 0.0
C616 C 0.90643 0.8074 0.78946 0.0
C617 C 0.87543 0.77529 0.78765 0.0
C618 C 0.85037 0.77498 0.77634 0.0
C619 C 0.82029 0.74206 0.77388 0.0
C620 C 0.79657 0.74164 0.76258 0.0
C621 C 0.80054 0.77519 0.75358 0.0
C622 C 0.82916 0.80964 0.75615 0.0
C623 C 0.85521 0.80878 0.7673 0.0
C624 C 0.08323 0.02784 0.7813 0.0
C625 C 0.03913 0.0096 0.78506 0.0
O626 O 0.69164 0.619 0.72977 0.0
O627 O 0.83821 0.65479 0.82679 0.0
O628 O 0.04306 0.9654 0.7865 0.0
O629 O 0.78998 0.00714 0.71135 0.0
H630 H 0.62869 0.63735 0.72698 0.0
H631 H 0.63417 0.62009 0.74981 0.0
H632 H 0.65435 0.56689 0.74641 0.0
H633 H 0.59964 0.58097 0.74232 0.0
H634 H 0.77089 0.63593 0.72514 0.0
H635 H 0.65322 0.68947 0.74021 0.0
H636 H 0.82924 0.73549 0.72356 0.0
H637 H 0.83425 0.67744 0.72289 0.0
H638 H 0.84142 0.70597 0.73786 0.0
H639 H 0.64861 0.75972 0.74854 0.0
H640 H 0.68492 0.79737 0.74087 0.0
H641 H 0.69774 0.77623 0.75637 0.0
H642 H 0.82665 0.00347 0.69489 0.0
H643 H 0.87995 0.05918 0.70237 0.0
H644 H 0.87591 0.01542 0.7136 0.0
H645 H 0.84962 0.06601 0.71718 0.0
H646 H 0.7408 0.98084 0.72952 0.0
H647 H 0.84668 0.94365 0.70507 0.0
H648 H 0.71743 0.87909 0.74203 0.0
H649 H 0.71343 0.93589 0.74576 0.0
H650 H 0.75469 0.90315 0.753 0.0
H651 H 0.87717 0.87424 0.70561 0.0
H652 H 0.84529 0.83205 0.71295 0.0
H653 H 0.8849 0.86007 0.72223 0.0
H654 H 0.01668 0.01643 0.777 0.0
H655 H 0.95878 0.9784 0.79117 0.0
H656 H 0.05542 0.8863 0.77996 0.0
H657 H 0.87081 0.93189 0.78193 0.0
H658 H 0.88809 0.9563 0.79672 0.0
H659 H 0.87385 0.89982 0.79621 0.0
H660 H 0.03763 0.81628 0.77279 0.0
H661 H 0.98299 0.80727 0.76758 0.0
H662 H 0.99803 0.79438 0.78372 0.0
H663 H 0.82091 0.60736 0.81386 0.0
H664 H 0.76797 0.57349 0.82855 0.0
H665 H 0.75681 0.62995 0.8262 0.0
H666 H 0.78091 0.61231 0.841 0.0
H667 H 0.81437 0.73444 0.82688 0.0
H668 H 0.88881 0.63943 0.80655 0.0
H669 H 0.8051 0.80859 0.80134 0.0
H670 H 0.84968 0.82474 0.81109 0.0
H671 H 0.80152 0.80382 0.81861 0.0
H672 H 0.93049 0.65682 0.78813 0.0
H673 H 0.94035 0.71321 0.78486 0.0
H674 H 0.89578 0.68624 0.77749 0.0
H675 H 0.75756 0.81189 0.72554 0.0
H676 H 0.86499 0.90545 0.74372 0.0
H677 H 0.91252 0.90139 0.76163 0.0
H678 H 0.92593 0.80715 0.79807 0.0
H679 H 0.81523 0.71584 0.78056 0.0
H680 H 0.77445 0.71509 0.76111 0.0
H681 H 0.10699 0.02203 0.78905 0.0
H682 H 0.08102 0.06309 0.77951 0.0
H683 H 0.09502 0.01192 0.77235 0.0
C684 C 0.70082 0.59061 0.07866 0.0
C685 C 0.72838 0.59851 0.06653 0.0
C686 C 0.67132 0.61048 0.05064 0.0
C687 C 0.6563 0.56763 0.05045 0.0
C688 C 0.61827 0.55652 0.04405 0.0
C689 C 0.59573 0.58842 0.03707 0.0
C690 C 0.61177 0.63119 0.03674 0.0
C691 C 0.64924 0.64166 0.0436 0.0
C692 C 0.60173 0.51076 0.04512 0.0
C693 C 0.58881 0.66611 0.0294 0.0
C694 C 0.25557 0.61297 0.07158 0.0
C695 C 0.28718 0.61452 0.06093 0.0
C696 C 0.36355 0.59856 0.05728 0.0
C697 C 0.36991 0.62216 0.04593 0.0
C698 C 0.40739 0.61628 0.03846 0.0
C699 C 0.43817 0.58514 0.0422 0.0
C700 C 0.43198 0.56185 0.05375 0.0
C701 C 0.39507 0.56957 0.06125 0.0
C702 C 0.41407 0.64323 0.02657 0.0
C703 C 0.46395 0.52829 0.05809 0.0
C704 C 0.33471 0.42073 0.9818 0.0
C705 C 0.35558 0.45418 0.97512 0.0
C706 C 0.39839 0.46534 0.97792 0.0
C707 C 0.42097 0.44216 0.98743 0.0
C708 C 0.40104 0.4065 0.99349 0.0
C709 C 0.35815 0.39615 0.99054 0.0
C710 C 0.41912 0.5028 0.97102 0.0
C711 C 0.42446 0.38056 0.00348 0.0
C712 C 0.75389 0.41176 0.98215 0.0
C713 C 0.73249 0.37843 0.97324 0.0
C714 C 0.65893 0.40923 0.97277 0.0
C715 C 0.63281 0.43762 0.96593 0.0
C716 C 0.59406 0.45337 0.97119 0.0
C717 C 0.58068 0.4395 0.98353 0.0
C718 C 0.6059 0.40901 0.99025 0.0
C719 C 0.64502 0.39455 0.98487 0.0
C720 C 0.56803 0.48566 0.96371 0.0
C721 C 0.59199 0.39227 0.00325 0.0
C722 C 0.55379 0.57747 0.03104 0.0
C723 C 0.51628 0.59016 0.03757 0.0
C724 C 0.47581 0.57513 0.03382 0.0
C725 C 0.47228 0.54711 0.02311 0.0
C726 C 0.43216 0.53054 0.01927 0.0
C727 C 0.42909 0.50218 0.00893 0.0
C728 C 0.46613 0.48828 0.00222 0.0
C729 C 0.46338 0.45819 0.99199 0.0
C730 C 0.50106 0.44317 0.98599 0.0
C731 C 0.54162 0.45844 0.98971 0.0
C732 C 0.54473 0.49026 -0.00052 0.0
C733 C 0.58472 0.508 0.00303 0.0
C734 C 0.58766 0.5375 0.01313 0.0
C735 C 0.5508 0.55016 0.02013 0.0
C736 C 0.50995 0.5344 0.01629 0.0
C737 C 0.50691 0.5045 0.00593 0.0
C738 C 0.23326 0.44827 0.98965 0.0
C739 C 0.25936 0.43948 0.97733 0.0
O740 O 0.70597 0.62323 0.05771 0.0
O741 O 0.69725 0.39744 0.96735 0.0
O742 O 0.29246 0.4108 0.97998 0.0
O743 O 0.32827 0.6036 0.06489 0.0
H744 H 0.73696 0.56692 0.06207 0.0
H745 H 0.67167 0.57141 0.07642 0.0
H746 H 0.69018 0.62169 0.08301 0.0
H747 H 0.71965 0.57237 0.08588 0.0
H748 H 0.67333 0.54264 0.05553 0.0
H749 H 0.66108 0.67457 0.04367 0.0
H750 H 0.56641 0.51036 0.04695 0.0
H751 H 0.61776 0.49274 0.05296 0.0
H752 H 0.60804 0.49329 0.03597 0.0
H753 H 0.609 0.69549 0.02827 0.0
H754 H 0.55884 0.67526 0.03464 0.0
H755 H 0.57948 0.65417 0.01973 0.0
H756 H 0.28508 0.64355 0.05471 0.0
H757 H 0.24281 0.64699 0.07258 0.0
H758 H 0.2744 0.6145 0.08084 0.0
H759 H 0.21252 0.55762 0.06645 0.0
H760 H 0.3463 0.64574 0.043 0.0
H761 H 0.39 0.55203 0.07013 0.0
H762 H 0.40989 0.62272 0.01789 0.0
H763 H 0.44737 0.65638 0.0263 0.0
H764 H 0.39087 0.67048 0.02609 0.0
H765 H 0.45205 0.50988 0.06655 0.0
H766 H 0.49466 0.5443 0.06073 0.0
H767 H 0.47106 0.50522 0.05015 0.0
H768 H 0.27188 0.47146 0.9743 0.0
H769 H 0.33876 0.47172 0.96772 0.0
H770 H 0.34219 0.36967 0.9954 0.0
H771 H 0.42597 0.52902 0.97802 0.0
H772 H 0.39833 0.51589 0.96331 0.0
H773 H 0.45037 0.49256 0.9667 0.0
H774 H 0.40597 0.35154 0.00648 0.0
H775 H 0.43019 0.40103 0.01209 0.0
H776 H 0.45641 0.37022 -0.00031 0.0
H777 H 0.722 0.34992 0.97889 0.0
H778 H 0.77981 0.39679 0.9879 0.0
H779 H 0.73 0.42533 0.98906 0.0
H780 H 0.76765 0.43875 0.97644 0.0
H781 H 0.64361 0.44842 0.95654 0.0
H782 H 0.66449 0.37206 0.99022 0.0
H783 H 0.56188 0.51486 0.96968 0.0
H784 H 0.53629 0.47141 0.96126 0.0
H785 H 0.58445 0.49554 0.95466 0.0
H786 H 0.61065 0.3633 0.0061 0.0
H787 H 0.55716 0.38401 0.00324 0.0
H788 H 0.597 0.41776 0.01062 0.0
H789 H 0.51879 0.61017 0.04613 0.0
H790 H 0.40256 0.53917 0.02422 0.0
H791 H 0.39726 0.49071 0.00645 0.0
H792 H 0.4988 0.41918 0.97839 0.0
H793 H 0.61428 0.49902 0.9981 0.0
H794 H 0.61928 0.54982 0.01552 0.0
H795 H 0.2041 0.46768 0.98749 0.0
H796 H 0.25334 0.4668 0.99654 0.0
H797 H 0.22351 0.41775 0.9944 0.0
C798 C 0.93393 0.70298 0.47269 0.0
C799 C 0.94837 0.66798 0.46315 0.0
C800 C 0.98517 0.60879 0.47429 0.0
C801 C 0.98326 0.56426 0.47608 0.0
C802 C 0.01853 0.54145 0.48092 0.0
C803 C 0.05619 0.56421 0.48449 0.0
C804 C 0.05798 0.60957 0.48303 0.0
C805 C 0.02251 0.63143 0.47785 0.0
C806 C 0.0156 0.49295 0.48203 0.0
C807 C 0.09737 0.63493 0.48689 0.0
C808 C 0.38278 0.45439 0.45931 0.0
C809 C 0.35491 0.49485 0.45793 0.0
C810 C 0.27652 0.4915 0.4608 0.0
C811 C 0.2716 0.5283 0.46861 0.0
C812 C 0.23415 0.53436 0.47605 0.0
C813 C 0.2006 0.50351 0.47541 0.0
C814 C 0.20418 0.46808 0.46685 0.0
C815 C 0.24222 0.46257 0.45963 0.0
C816 C 0.23086 0.57315 0.48483 0.0
C817 C 0.16847 0.43529 0.46568 0.0
C818 C 0.26546 0.33634 0.53797 0.0
C819 C 0.2703 0.37978 0.54162 0.0
C820 C 0.23553 0.40855 0.54098 0.0
C821 C 0.19528 0.39362 0.53648 0.0
C822 C 0.18949 0.34926 0.53371 0.0
C823 C 0.22471 0.32105 0.53462 0.0
C824 C 0.24242 0.45539 0.54442 0.0
C825 C 0.14676 0.33219 0.5291 0.0
C826 C 0.92716 0.57942 0.57929 0.0
C827 C 0.93507 0.53407 0.57392 0.0
C828 C 0.0056 0.50598 0.56787 0.0
C829 C 0.04826 0.52001 0.56837 0.0
C830 C 0.07848 0.50679 0.55906 0.0
C831 C 0.06585 0.47751 0.54929 0.0
C832 C 0.02324 0.46105 0.54923 0.0
C833 C 0.99332 0.47598 0.55844 0.0
C834 C 0.12367 0.52477 0.55955 0.0
C835 C 0.00914 0.42822 0.53937 0.0
C836 C 0.09402 0.54014 0.48933 0.0
C837 C 0.12839 0.5327 0.48082 0.0
C838 C 0.16328 0.50703 0.48436 0.0
C839 C 0.16311 0.48644 0.49646 0.0
C840 C 0.1962 0.45795 0.49995 0.0
C841 C 0.19536 0.43731 0.51178 0.0
C842 C 0.16219 0.4455 0.52078 0.0
C843 C 0.16151 0.42516 0.53292 0.0
C844 C 0.12913 0.43526 0.54185 0.0
C845 C 0.097 0.46534 0.53897 0.0
C846 C 0.0963 0.48492 0.52669 0.0
C847 C 0.06404 0.51465 0.52331 0.0
C848 C 0.06305 0.53266 0.51107 0.0
C849 C 0.09504 0.52271 0.50188 0.0
C850 C 0.12906 0.49468 0.5053 0.0
C851 C 0.1291 0.47493 0.51759 0.0
C852 C 0.36378 0.28642 0.52657 0.0
C853 C 0.34205 0.32023 0.53522 0.0
O854 O 0.95007 0.62841 0.46926 0.0
O855 O 0.97705 0.52204 0.5766 0.0
O856 O 0.29938 0.30867 0.53724 0.0
O857 O 0.31371 0.48273 0.45431 0.0
H858 H 0.98067 0.6766 0.45918 0.0
H859 H 0.95714 0.70543 0.48073 0.0
H860 H 0.90161 0.69529 0.47676 0.0
H861 H 0.93251 0.7348 0.46784 0.0
H862 H 0.95418 0.54721 0.47338 0.0
H863 H 0.02403 0.66609 0.47675 0.0
H864 H 0.04478 0.4775 0.4778 0.0
H865 H 0.98669 0.47977 0.47714 0.0
H866 H 0.01387 0.48387 0.49232 0.0
H867 H 0.09131 0.67026 0.48699 0.0
H868 H 0.12398 0.6281 0.47998 0.0
H869 H 0.10829 0.62495 0.49658 0.0
H870 H 0.35484 0.51046 0.46759 0.0
H871 H 0.41629 0.4634 0.4619 0.0
H872 H 0.38346 0.43529 0.45024 0.0
H873 H 0.36938 0.43367 0.46706 0.0
H874 H 0.29695 0.55226 0.46901 0.0
H875 H 0.24592 0.43481 0.45334 0.0
H876 H 0.20188 0.59233 0.48238 0.0
H877 H 0.25968 0.59433 0.48417 0.0
H878 H 0.22701 0.56236 0.49495 0.0
H879 H 0.17444 0.41197 0.45771 0.0
H880 H 0.13726 0.45184 0.46404 0.0
H881 H 0.16547 0.4171 0.47481 0.0
H882 H 0.34389 0.35121 0.52984 0.0
H883 H 0.30131 0.39163 0.54472 0.0
H884 H 0.22109 0.28729 0.53208 0.0
H885 H 0.24211 0.47505 0.53553 0.0
H886 H 0.2736 0.46075 0.54936 0.0
H887 H 0.21584 0.46709 0.55074 0.0
H888 H 0.14663 0.29645 0.5282 0.0
H889 H 0.13939 0.34629 0.51957 0.0
H890 H 0.12065 0.34214 0.53585 0.0
H891 H 0.93024 0.5359 0.56332 0.0
H892 H 0.89386 0.59021 0.57709 0.0
H893 H 0.95016 0.60247 0.5748 0.0
H894 H 0.93179 0.58012 0.58987 0.0
H895 H 0.05743 0.54269 0.57583 0.0
H896 H 0.96048 0.46412 0.55832 0.0
H897 H 0.13317 0.53789 0.55002 0.0
H898 H 0.14652 0.49847 0.5619 0.0
H899 H 0.12694 0.5507 0.56689 0.0
H900 H 0.97762 0.41341 0.54192 0.0
H901 H 0.03365 0.40227 0.53835 0.0
H902 H 0.00599 0.44407 0.52988 0.0
H903 H 0.12797 0.547 0.47132 0.0
H904 H 0.22284 0.45071 0.49351 0.0
H905 H 0.22137 0.41513 0.51379 0.0
H906 H 0.12939 0.42014 0.55124 0.0
H907 H 0.03881 0.52391 0.53002 0.0
H908 H 0.03712 0.55483 0.50894 0.0
H909 H 0.36129 0.25369 0.53082 0.0
H910 H 0.39834 0.29455 0.52507 0.0
H911 H 0.34782 0.28578 0.51705 0.0
C912 C 0.12592 0.67852 0.15844 0.0
C913 C 0.96203 0.63849 0.15831 0.0
C914 C 0.9631 0.70164 0.12121 0.0
Mg915 Mg 0.17859 0.75393 0.1444 0.0
Mg916 Mg 0.13914 0.83887 0.12901 0.0
O917 O 0.1319 0.78223 0.13431 0.0
Mg918 Mg 0.08024 0.75206 0.14144 0.0
O919 O 0.0325 0.71547 0.14842 0.0
Mg920 Mg 0.046 0.66117 0.13859 0.0
Mg921 Mg 0.97473 0.73278 0.14905 0.0
C922 C 0.04193 0.8242 0.12035 0.0
O923 O 0.05841 0.80481 0.15602 0.0
O924 O 0.22953 0.78466 0.13056 0.0
O925 O 0.98674 0.79408 0.1587 0.0
O926 O 0.18046 0.81512 0.15826 0.0
O927 O 0.19753 0.83303 0.11781 0.0
O928 O 0.15234 0.86935 0.14681 0.0
O929 O 0.09794 0.69841 0.12733 0.0
O930 O 0.16966 0.69796 0.1302 0.0
C931 C 0.13546 0.68259 0.125 0.0
C932 C 0.23034 0.81044 0.12092 0.0
O933 O 0.03814 0.78885 0.12671 0.0
O934 O 0.99424 0.62755 0.15118 0.0
O935 O 0.07635 0.84725 0.12034 0.0
O936 O 0.99412 0.67525 0.12318 0.0
O937 O 0.94943 0.67776 0.1594 0.0
O938 O 0.95167 0.72943 0.12966 0.0
O939 O 0.12481 0.71914 0.15592 0.0
O940 O 0.09855 0.65206 0.1536 0.0
C941 C 0.16897 0.85489 0.15712 0.0
C942 C 0.02152 0.81543 0.16089 0.0
C943 C 0.6324 0.80866 0.39703 0.0
C944 C 0.72504 0.6727 0.39409 0.0
C945 C 0.66334 0.65351 0.35675 0.0
Mg946 Mg 0.5402 0.83288 0.38535 0.0
Mg947 Mg 0.46924 0.76235 0.37442 0.0
O948 O 0.5266 0.78106 0.37454 0.0
Mg949 Mg 0.57583 0.74362 0.37976 0.0
O950 O 0.62837 0.71122 0.38492 0.0
Mg951 Mg 0.67373 0.74422 0.37508 0.0
Mg952 Mg 0.63264 0.65131 0.3849 0.0
C953 C 0.51583 0.68429 0.36 0.0
O954 O 0.53601 0.70192 0.39412 0.0
O955 O 0.48618 0.86853 0.37434 0.0
O956 O 0.57073 0.63773 0.39384 0.0
O957 O 0.49056 0.81361 0.40105 0.0
O958 O 0.44154 0.81922 0.36577 0.0
O959 O 0.44882 0.75963 0.39419 0.0
O960 O 0.61832 0.78189 0.36555 0.0
O961 O 0.58957 0.84698 0.36962 0.0
C962 C 0.61713 0.82293 0.36374 0.0
C963 C 0.45342 0.85847 0.36746 0.0
O964 O 0.55304 0.6946 0.36447 0.0
O965 O 0.72429 0.70641 0.38694 0.0
O966 O 0.48086 0.70425 0.36307 0.0
O967 O 0.67784 0.69181 0.35857 0.0
O968 O 0.69265 0.64721 0.39513 0.0
O969 O 0.64292 0.63293 0.36543 0.0
O970 O 0.59454 0.79367 0.39487 0.0
O971 O 0.66594 0.79426 0.39113 0.0
C972 C 0.46046 0.78602 0.40297 0.0
C973 C 0.53873 0.66177 0.39714 0.0
C974 C 0.62241 0.22155 0.65691 0.0
C975 C 0.46851 0.15312 0.6569 0.0
C976 C 0.4596 0.20767 0.61909 0.0
Mg977 Mg 0.66124 0.30419 0.64185 0.0
Mg978 Mg 0.60217 0.37979 0.6276 0.0
O979 O 0.61105 0.32141 0.63101 0.0
Mg980 Mg 0.56634 0.28216 0.63832 0.0
O981 O 0.52577 0.23858 0.6457 0.0
Mg982 Mg 0.54884 0.18553 0.63701 0.0
Mg983 Mg 0.46606 0.24601 0.64611 0.0
C984 C 0.5175 0.34042 0.61557 0.0
O985 O 0.53376 0.33253 0.65205 0.0
O986 O 0.70465 0.34705 0.62847 0.0
O987 O 0.46559 0.30897 0.65528 0.0
O988 O 0.65015 0.36327 0.65568 0.0
O989 O 0.66157 0.39234 0.61766 0.0
O990 O 0.60577 0.40981 0.64602 0.0
O991 O 0.59498 0.22987 0.62534 0.0
O992 O 0.665 0.24631 0.62806 0.0
C993 C 0.63523 0.2223 0.62332 0.0
C994 C 0.69882 0.37652 0.61998 0.0
O995 O 0.52168 0.30582 0.62223 0.0
O996 O 0.50313 0.14606 0.65035 0.0
O997 O 0.5424 0.37327 0.61685 0.0
O998 O 0.49459 0.18681 0.62125 0.0
O999 O 0.44918 0.18962 0.65689 0.0
O1000 O 0.4449 0.23573 0.627 0.0
O1001 O 0.61462 0.26054 0.65345 0.0
O1002 O 0.60111 0.18934 0.65246 0.0
C1003 C 0.6283 0.39849 0.65566 0.0
C1004 C 0.49583 0.33661 0.65708 0.0
C1005 C 0.12282 0.28158 0.90478 0.0
C1006 C 0.17882 0.12104 0.90228 0.0
C1007 C 0.12451 0.12351 0.86462 0.0
Mg1008 Mg 0.04385 0.32743 0.89023 0.0
Mg1009 Mg 0.96369 0.27564 0.87583 0.0
O1010 O 0.02249 0.27916 0.87906 0.0
Mg1011 Mg 0.05803 0.23096 0.88585 0.0
O1012 O 0.0985 0.18683 0.89273 0.0
Mg1013 Mg 0.15315 0.20706 0.88409 0.0
Mg1014 Mg 0.08553 0.12813 0.89167 0.0
C1015 C 0.99391 0.18687 0.86357 0.0
O1016 O 0.00541 0.20193 0.89924 0.0
O1017 O 0.00455 0.37502 0.87721 0.0
O1018 O 0.02243 0.13137 0.90111 0.0
O1019 O 0.98441 0.3208 0.90418 0.0
O1020 O 0.95635 0.3357 0.86615 0.0
O1021 O 0.93385 0.28171 0.89422 0.0
O1022 O 0.11212 0.2565 0.87292 0.0
O1023 O 0.10164 0.32747 0.87629 0.0
C1024 C 0.12288 0.2961 0.87117 0.0
C1025 C 0.97494 0.37158 0.86866 0.0
O1026 O 0.02957 0.18757 0.86981 0.0
O1027 O 0.18887 0.15674 0.89676 0.0
O1028 O 0.96449 0.21571 0.86495 0.0
O1029 O 0.1491 0.15503 0.86772 0.0
O1030 O 0.14103 0.10449 0.90167 0.0
O1031 O 0.09436 0.11017 0.87199 0.0
O1032 O 0.08336 0.27655 0.90141 0.0
O1033 O 0.15332 0.25839 0.9 0.0
C1034 C 0.94733 0.30238 0.90404 0.0
C1035 C 0.99765 0.16374 0.90352 0.0
H1036 H 0.22573 0.81534 0.44468 0.0
H1037 H 0.47105 0.8421 0.42316 0.0
H1038 H 0.30253 0.92948 0.45081 0.0
H1039 H 0.38789 0.74005 0.40962 0.0
H1040 H 0.41613 0.86236 0.43896 0.0
H1041 H 0.29052 0.7771 0.43718 0.0
C1042 C 0.25642 0.83201 0.4447 0.0
C1043 C 0.25877 0.87573 0.44825 0.0
C1044 C 0.41021 0.83504 0.43268 0.0
C1045 C 0.33275 0.83239 0.43967 0.0
C1046 C 0.44167 0.82328 0.42368 0.0
C1047 C 0.43354 0.79019 0.41475 0.0
C1048 C 0.37032 0.81366 0.43275 0.0
C1049 C 0.39517 0.76647 0.4161 0.0
C1050 C 0.2933 0.81025 0.44041 0.0
C1051 C 0.29926 0.89588 0.4481 0.0
N1052 N 0.36456 0.77926 0.42474 0.0
N1053 N 0.33454 0.8742 0.44374 0.0
H1054 H 0.30492 0.98819 0.70301 0.0
H1055 H 0.51104 0.08338 0.66673 0.0
H1056 H 0.43498 0.96559 0.71584 0.0
H1057 H 0.38605 0.14455 0.66586 0.0
H1058 H 0.48206 0.02971 0.68172 0.0
H1059 H 0.33304 0.03587 0.68634 0.0
C1060 C 0.33931 0.99363 0.70247 0.0
C1061 C 0.36757 0.9744 0.71126 0.0
C1062 C 0.46103 0.05481 0.67817 0.0
C1063 C 0.39992 0.02739 0.69178 0.0
C1064 C 0.47743 0.08524 0.66958 0.0
C1065 C 0.45095 0.1186 0.66513 0.0
C1066 C 0.41775 0.05742 0.68214 0.0
C1067 C 0.40767 0.1196 0.66917 0.0
C1068 C 0.35533 0.02066 0.69288 0.0
C1069 C 0.41203 0.981 0.70956 0.0
N1070 N 0.39239 0.08942 0.67744 0.0
N1071 N 0.42687 0.00709 0.70005 0.0
H1072 H 0.34506 0.03901 0.96305 0.0
H1073 H 0.18833 0.03425 0.90435 0.0
H1074 H 0.34939 0.93496 0.93533 0.0
H1075 H 0.24375 0.15482 0.91692 0.0
H1076 H 0.24059 0.99545 0.91749 0.0
H1077 H 0.30189 0.08132 0.94799 0.0
C1078 C 0.33682 0.02502 0.95383 0.0
C1079 C 0.34961 0.98284 0.95062 0.0
C1080 C 0.24149 0.03038 0.91728 0.0
C1081 C 0.30038 0.03085 0.93347 0.0
C1082 C 0.21163 0.0525 0.90987 0.0
C1083 C 0.2118 0.09772 0.90961 0.0
C1084 C 0.27093 0.05368 0.92475 0.0
C1085 C 0.24277 0.1199 0.91685 0.0
C1086 C 0.31245 0.04923 0.94524 0.0
C1087 C 0.33894 0.96669 0.93841 0.0
N1088 N 0.2708 0.09763 0.92432 0.0
N1089 N 0.31425 0.99042 0.93036 0.0
H1090 H 0.13539 0.08504 0.2019 0.0
H1091 H 0.18637 0.8399 0.18293 0.0
H1092 H 0.20596 0.00213 0.22746 0.0
H1093 H 0.1612 0.94193 0.15584 0.0
H1094 H 0.18668 0.89436 0.20035 0.0
H1095 H 0.13537 0.02752 0.18584 0.0
C1096 C 0.15049 0.05455 0.20419 0.0
C1097 C 0.16998 0.04824 0.21614 0.0
C1098 C 0.18139 0.90451 0.19054 0.0
C1099 C 0.17082 0.9822 0.19767 0.0
C1100 C 0.18135 0.87355 0.18062 0.0
C1101 C 0.17351 0.88618 0.16789 0.0
C1102 C 0.1732 0.94805 0.18765 0.0
C1103 C 0.16698 0.9303 0.16547 0.0
C1104 C 0.1507 0.02175 0.19499 0.0
C1105 C 0.18967 0.0081 0.21849 0.0
N1106 N 0.16672 0.95935 0.17522 0.0
N1107 N 0.18949 0.97649 0.20934 0.0
H1108 H 0.26304 0.21092 0.56079 0.0
H1109 H 0.47191 0.14369 0.60082 0.0
H1110 H 0.32589 0.08765 0.55594 0.0
H1111 H 0.38741 0.24949 0.61099 0.0
H1112 H 0.4244 0.12628 0.58273 0.0
H1113 H 0.31338 0.22868 0.57791 0.0
C1114 C 0.28756 0.18762 0.56331 0.0
C1115 C 0.29034 0.1478 0.55689 0.0
C1116 C 0.41645 0.15331 0.58895 0.0
C1117 C 0.34868 0.1682 0.5764 0.0
C1118 C 0.44365 0.16341 0.59922 0.0
C1119 C 0.43365 0.19802 0.60749 0.0
C1120 C 0.37924 0.17817 0.58691 0.0
C1121 C 0.39645 0.22235 0.60496 0.0
C1122 C 0.31634 0.19777 0.57309 0.0
C1123 C 0.32285 0.11885 0.56057 0.0
N1124 N 0.3707 0.21191 0.59494 0.0
N1125 N 0.3509 0.12968 0.57005 0.0
H1126 H 0.14886 0.87534 0.836 0.0
H1127 H 0.09351 0.12051 0.83993 0.0
H1128 H 0.1098 0.94364 0.80204 0.0
H1129 H 0.18258 0.0598 0.86572 0.0
H1130 H 0.10243 0.05931 0.82491 0.0
H1131 H 0.16496 0.94406 0.8464 0.0
C1132 C 0.1444 0.90489 0.83065 0.0
C1133 C 0.12744 0.9039 0.81821 0.0
C1134 C 0.12072 0.05988 0.83372 0.0
C1135 C 0.14475 0.98296 0.83018 0.0
C1136 C 0.11572 0.09476 0.84223 0.0
C1137 C 0.13727 0.09473 0.85401 0.0
C1138 C 0.14644 0.02456 0.83729 0.0
C1139 C 0.16556 0.06082 0.85667 0.0
C1140 C 0.15358 0.94418 0.83659 0.0
C1141 C 0.12234 0.9432 0.81171 0.0
N1142 N 0.16871 0.02668 0.8485 0.0
N1143 N 0.13005 0.9813 0.81787 0.0
H1144 H 0.38789 0.78339 0.05286 0.0
H1145 H 0.31098 0.77887 0.12598 0.0
H1146 H 0.47402 0.75696 0.08418 0.0
H1147 H 0.23721 0.8404 0.0962 0.0
H1148 H 0.37101 0.77044 0.11083 0.0
H1149 H 0.33184 0.80389 0.06846 0.0
C1150 C 0.39521 0.78262 0.06302 0.0
C1151 C 0.43595 0.76927 0.06725 0.0
C1152 C 0.34187 0.78622 0.10765 0.0
C1153 C 0.37165 0.79149 0.08515 0.0
C1154 C 0.30754 0.79105 0.1163 0.0
C1155 C 0.26885 0.81022 0.11237 0.0
C1156 C 0.33736 0.80006 0.09489 0.0
C1157 C 0.26639 0.82548 0.09969 0.0
C1158 C 0.36321 0.79422 0.07192 0.0
C1159 C 0.44327 0.76773 0.08053 0.0
N1160 N 0.29995 0.81959 0.09136 0.0
N1161 N 0.41141 0.77845 0.08901 0.0
H1162 H 0.33892 0.10242 0.34585 0.0
H1163 H 0.39491 0.85122 0.34794 0.0
H1164 H 0.30984 0.01445 0.31484 0.0
H1165 H 0.45755 0.94548 0.37214 0.0
H1166 H 0.35767 0.90974 0.33693 0.0
H1167 H 0.37764 0.04448 0.35674 0.0
C1168 C 0.34125 0.07108 0.34124 0.0
C1169 C 0.32203 0.06344 0.32926 0.0
C1170 C 0.37961 0.91756 0.34464 0.0
C1171 C 0.36501 0.99672 0.34187 0.0
C1172 C 0.40071 0.88417 0.35099 0.0
C1173 C 0.42948 0.89341 0.36098 0.0
C1174 C 0.3869 0.96051 0.34841 0.0
C1175 C 0.43582 0.93681 0.36446 0.0
C1176 C 0.36317 0.03799 0.34749 0.0
C1177 C 0.32492 0.02182 0.32394 0.0
N1178 N 0.41459 0.96872 0.35821 0.0
N1179 N 0.34589 0.98999 0.33029 0.0
H1180 H 0.79237 0.02962 0.58643 0.0
H1181 H 0.5996 0.19467 0.60074 0.0
H1182 H 0.73036 0.10294 0.55662 0.0
H1183 H 0.70253 0.16843 0.6272 0.0
H1184 H 0.63249 0.14339 0.58535 0.0
H1185 H 0.74462 0.06364 0.60232 0.0
C1186 C 0.76805 0.05208 0.58319 0.0
C1187 C 0.76488 0.06267 0.57013 0.0
C1188 C 0.64726 0.14839 0.59464 0.0
C1189 C 0.71048 0.10196 0.58826 0.0
C1190 C 0.62842 0.17725 0.60342 0.0
C1191 C 0.64876 0.18587 0.61514 0.0
C1192 C 0.68598 0.12762 0.59782 0.0
C1193 C 0.68618 0.16289 0.61819 0.0
C1194 C 0.74096 0.07153 0.59225 0.0
C1195 C 0.73344 0.09292 0.56651 0.0
N1196 N 0.70371 0.13492 0.60956 0.0
N1197 N 0.70744 0.11153 0.57554 0.0
H1198 H 0.85704 0.92365 0.33181 0.0
H1199 H 0.60988 0.90068 0.35233 0.0
H1200 H 0.7702 0.03056 0.33839 0.0
H1201 H 0.70067 0.79705 0.35793 0.0
H1202 H 0.66721 0.94458 0.34328 0.0
H1203 H 0.79972 0.8739 0.33829 0.0
C1204 C 0.82628 0.93689 0.33479 0.0
C1205 C 0.81897 0.98178 0.33501 0.0
C1206 C 0.67472 0.91218 0.34641 0.0
C1207 C 0.75279 0.92456 0.34184 0.0
C1208 C 0.64192 0.88694 0.35154 0.0
C1209 C 0.65063 0.84535 0.35611 0.0
C1210 C 0.71686 0.89595 0.34583 0.0
C1211 C 0.69262 0.82904 0.35461 0.0
C1212 C 0.79348 0.90829 0.3384 0.0
C1213 C 0.77769 0.99643 0.33845 0.0
N1214 N 0.72446 0.85464 0.3497 0.0
N1215 N 0.7463 0.96801 0.34173 0.0
H1216 H 0.87629 0.97693 0.07227 0.0
H1217 H 0.9565 0.81085 0.1257 0.0
H1218 H 0.79265 0.92315 0.10139 0.0
H1219 H 0.04176 0.87779 0.09962 0.0
H1220 H 0.89484 0.84506 0.11538 0.0
H1221 H 0.93636 0.93554 0.08095 0.0
C1222 C 0.87068 0.95638 0.08051 0.0
C1223 C 0.82952 0.95348 0.08614 0.0
C1224 C 0.92701 0.85194 0.11184 0.0
C1225 C 0.89797 0.90582 0.0961 0.0
C1226 C 0.96217 0.83191 0.1176 0.0
C1227 C 0.00424 0.84109 0.11341 0.0
C1228 C 0.93407 0.88148 0.10184 0.0
C1229 C 0.00984 0.86988 0.10317 0.0
C1230 C 0.90489 0.9327 0.08544 0.0
C1231 C 0.82389 0.9263 0.09677 0.0
N1232 N 0.97517 0.88914 0.09776 0.0
N1233 N 0.85776 0.90349 0.10141 0.0
H1234 H 0.99976 0.08782 0.78725 0.0
H1235 H 0.01799 0.10177 0.86335 0.0
H1236 H 0.04142 0.98105 0.81047 0.0
H1237 H 0.95817 0.19948 0.84017 0.0
H1238 H 0.02076 0.05383 0.84453 0.0
H1239 H 0.97877 0.12673 0.80679 0.0
C1240 C 0.00421 0.0725 0.79648 0.0
C1241 C 0.02292 0.03146 0.79723 0.0
C1242 C 0.00655 0.08557 0.8436 0.0
C1243 C 0.99931 0.07574 0.81968 0.0
C1244 C 0.00537 0.11297 0.8543 0.0
C1245 C 0.98893 0.15486 0.85318 0.0
C1246 C 0.9919 0.10068 0.83169 0.0
C1247 C 0.97144 0.16745 0.8414 0.0
C1248 C 0.99218 0.09462 0.80764 0.0
C1249 C 0.02799 0.01296 0.80944 0.0
N1250 N 0.97408 0.14076 0.83104 0.0
N1251 N 0.01653 0.03537 0.82019 0.0
H1252 H 0.72432 0.90985 0.46729 0.0
H1253 H 0.67588 0.883 0.39339 0.0
H1254 H 0.76186 0.00388 0.43889 0.0
H1255 H 0.60652 0.81095 0.42221 0.0
H1256 H 0.70282 0.93126 0.41011 0.0
H1257 H 0.67718 0.87559 0.45139 0.0
C1258 C 0.72233 0.92342 0.45773 0.0
C1259 C 0.74762 0.95922 0.45431 0.0
C1260 C 0.68099 0.90552 0.41281 0.0
C1261 C 0.69388 0.92042 0.43613 0.0
C1262 C 0.66551 0.87815 0.40326 0.0
C1263 C 0.63906 0.84321 0.4065 0.0
C1264 C 0.67095 0.89709 0.42575 0.0
C1265 C 0.62667 0.83787 0.41938 0.0
C1266 C 0.69531 0.90405 0.4487 0.0
C1267 C 0.7435 0.9759 0.44186 0.0
N1268 N 0.6435 0.86404 0.42862 0.0
N1269 N 0.71764 0.95604 0.43319 0.0
H1270 H 0.96142 0.95753 0.22982 0.0
H1271 H 0.0827 0.87687 0.1661 0.0
H1272 H 0.08377 0.00838 0.21725 0.0
H1273 H 0.9552 0.83553 0.17737 0.0
H1274 H 0.08182 0.92938 0.18377 0.0
H1275 H 0.95664 0.91619 0.20981 0.0
C1276 C 0.98711 0.96024 0.22275 0.0
C1277 C 0.02306 0.98637 0.22513 0.0
C1278 C 0.05399 0.90897 0.18232 0.0
C1279 C 0.01822 0.93883 0.20227 0.0
C1280 C 0.05454 0.87896 0.17225 0.0
C1281 C 0.01941 0.85121 0.17037 0.0
C1282 C 0.01812 0.91103 0.19062 0.0
C1283 C 0.98323 0.85597 0.17847 0.0
C1284 C 0.98442 0.93668 0.21133 0.0
C1285 C 0.05557 0.98864 0.2157 0.0
N1286 N 0.98375 0.88489 0.18831 0.0
N1287 N 0.05258 0.96492 0.20472 0.0
H1288 H 0.78662 0.21755 0.9558 0.0
H1289 H 0.98752 0.10063 0.92163 0.0
H1290 H 0.85346 0.10834 0.97169 0.0
H1291 H 0.92462 0.21273 0.90624 0.0
H1292 H 0.93277 0.09746 0.93861 0.0
H1293 H 0.83167 0.21192 0.93639 0.0
C1294 C 0.81041 0.19203 0.9551 0.0
C1295 C 0.81639 0.16337 0.96535 0.0
C1296 C 0.93077 0.12272 0.93148 0.0
C1297 C 0.86804 0.15668 0.94323 0.0
C1298 C 0.96191 0.1244 0.92173 0.0
C1299 C 0.96124 0.15779 0.91266 0.0
C1300 C 0.89861 0.15462 0.93218 0.0
C1301 C 0.92719 0.18751 0.91327 0.0
C1302 C 0.83614 0.18884 0.94405 0.0
C1303 C 0.8478 0.13105 0.96401 0.0
N1304 N 0.89747 0.18554 0.92293 0.0
N1305 N 0.87254 0.1287 0.95319 0.0
H1306 H 0.82503 0.05612 0.67778 0.0
H1307 H 0.62394 0.21389 0.68287 0.0
H1308 H 0.7595 0.08451 0.71355 0.0
H1309 H 0.70307 0.20143 0.64889 0.0
H1310 H 0.6782 0.17402 0.69506 0.0
H1311 H 0.78539 0.11484 0.66758 0.0
C1312 C 0.8022 0.07473 0.68347 0.0
C1313 C 0.79441 0.06444 0.6964 0.0
C1314 C 0.68435 0.18096 0.68501 0.0
C1315 C 0.74925 0.13209 0.68486 0.0
C1316 C 0.65362 0.20413 0.67812 0.0
C1317 C 0.65958 0.21127 0.66495 0.0
C1318 C 0.72066 0.16401 0.67856 0.0
C1319 C 0.69776 0.1969 0.65908 0.0
C1320 C 0.77977 0.10842 0.67768 0.0
C1321 C 0.76548 0.09046 0.70345 0.0
N1322 N 0.72661 0.17336 0.66588 0.0
N1323 N 0.74348 0.12264 0.69754 0.0
H1324 H 0.7235 0.37446 0.94654 0.0
H1325 H 0.9656 0.32789 0.92888 0.0
H1326 H 0.81342 0.34236 0.97659 0.0
H1327 H 0.86077 0.28785 0.90448 0.0
H1328 H 0.91322 0.34075 0.94639 0.0
H1329 H 0.77603 0.35043 0.93065 0.0
C1330 C 0.7543 0.36281 0.94989 0.0
C1331 C 0.76437 0.36222 0.96306 0.0
C1332 C 0.90201 0.3287 0.93722 0.0
C1333 C 0.82485 0.33434 0.94466 0.0
C1334 C 0.93175 0.32158 0.92722 0.0
C1335 C 0.91753 0.30719 0.91516 0.0
C1336 C 0.85788 0.3223 0.93497 0.0
C1337 C 0.87329 0.29917 0.91358 0.0
C1338 C 0.78423 0.34878 0.94074 0.0
C1339 C 0.8047 0.34518 0.96659 0.0
N1340 N 0.84504 0.30743 0.9233 0.0
N1341 N 0.83379 0.33264 0.95744 0.0
H1342 H 0.81209 0.49284 0.21379 0.0
H1343 H 0.96631 0.55116 0.15453 0.0
H1344 H 0.83838 0.40477 0.18245 0.0
H1345 H 0.90509 0.64796 0.17847 0.0
H1346 H 0.92768 0.49521 0.1664 0.0
H1347 H 0.85441 0.54834 0.20269 0.0
C1348 C 0.82733 0.48508 0.20466 0.0
C1349 C 0.82244 0.44397 0.19916 0.0
C1350 C 0.92272 0.5287 0.16904 0.0
C1351 C 0.87033 0.50721 0.18635 0.0
C1352 C 0.94484 0.56069 0.1623 0.0
C1353 C 0.93885 0.60439 0.16548 0.0
C1354 C 0.89478 0.54038 0.17915 0.0
C1355 C 0.91051 0.61473 0.17563 0.0
C1356 C 0.85117 0.51675 0.1983 0.0
C1357 C 0.84201 0.43576 0.18717 0.0
N1358 N 0.88962 0.58293 0.18214 0.0
N1359 N 0.86526 0.46705 0.18119 0.0
H1360 H 0.87095 0.6244 0.4622 0.0
H1361 H 0.80209 0.71631 0.39398 0.0
H1362 H 0.95357 0.70621 0.43935 0.0
H1363 H 0.7334 0.61474 0.41373 0.0
H1364 H 0.8588 0.71221 0.41009 0.0
H1365 H 0.82021 0.62071 0.44441 0.0
C1366 C 0.87858 0.64124 0.45337 0.0
C1367 C 0.91694 0.66496 0.45214 0.0
C1368 C 0.83153 0.69052 0.41081 0.0
C1369 C 0.85856 0.66157 0.43181 0.0
C1370 C 0.79913 0.69276 0.4016 0.0
C1371 C 0.76263 0.6661 0.40255 0.0
C1372 C 0.82723 0.66172 0.42112 0.0
C1373 C 0.76077 0.63609 0.41261 0.0
C1374 C 0.84962 0.63913 0.44322 0.0
C1375 C 0.92466 0.68707 0.4406 0.0
N1376 N 0.79234 0.63508 0.42158 0.0
N1377 N 0.89569 0.68491 0.43088 0.0
H1378 H 0.67721 0.52392 0.72901 0.0
H1379 H 0.59657 0.48044 0.65731 0.0
H1380 H 0.60755 0.61648 0.70632 0.0
H1381 H 0.66296 0.38431 0.67964 0.0
H1382 H 0.59916 0.52956 0.67552 0.0
H1383 H 0.67059 0.4713 0.71153 0.0
C1384 C 0.65988 0.53295 0.72044 0.0
C1385 C 0.6419 0.57438 0.71926 0.0
C1386 C 0.61316 0.49775 0.67649 0.0
C1387 C 0.63565 0.51479 0.69903 0.0
C1388 C 0.61168 0.46952 0.66607 0.0
C1389 C 0.6296 0.42801 0.66691 0.0
C1390 C 0.6328 0.48469 0.68793 0.0
C1391 C 0.64882 0.41599 0.67854 0.0
C1392 C 0.65643 0.50299 0.71043 0.0
C1393 C 0.62122 0.58474 0.70774 0.0
N1394 N 0.64994 0.44424 0.6886 0.0
N1395 N 0.61875 0.55522 0.69809 0.0
H1396 H 0.81013 0.56484 0.06765 0.0
H1397 H 0.89467 0.75106 0.11337 0.0
H1398 H 0.73983 0.68277 0.07466 0.0
H1399 H 0.96996 0.63925 0.10252 0.0
H1400 H 0.84272 0.73266 0.0967 0.0
H1401 H 0.87341 0.59691 0.07767 0.0
C1402 C 0.80834 0.59788 0.07106 0.0
C1403 C 0.76964 0.62114 0.07036 0.0
C1404 C 0.87095 0.71254 0.09783 0.0
C1405 C 0.8417 0.6578 0.08219 0.0
C1406 C 0.90072 0.72304 0.10735 0.0
C1407 C 0.93633 0.69614 0.10956 0.0
C1408 C 0.87662 0.67466 0.09053 0.0
C1409 C 0.94268 0.66061 0.10133 0.0
C1410 C 0.84446 0.61618 0.07683 0.0
C1411 C 0.76906 0.66375 0.07503 0.0
N1412 N 0.91275 0.65052 0.09234 0.0
N1413 N 0.80433 0.68049 0.08093 0.0
H1414 H 0.63433 0.45763 0.299 0.0
H1415 H 0.73573 0.60691 0.35383 0.0
H1416 H 0.70776 0.41189 0.33113 0.0
H1417 H 0.61794 0.63993 0.33463 0.0
H1418 H 0.74423 0.54462 0.33947 0.0
H1419 H 0.64519 0.53239 0.30657 0.0
C1420 C 0.65328 0.46351 0.30751 0.0
C1421 C 0.66914 0.42868 0.31464 0.0
C1422 C 0.71718 0.5662 0.33813 0.0
C1423 C 0.68305 0.51343 0.32306 0.0
C1424 C 0.71266 0.60202 0.34619 0.0
C1425 C 0.67615 0.62837 0.34534 0.0
C1426 C 0.68481 0.55665 0.3292 0.0
C1427 C 0.64652 0.62017 0.33552 0.0
C1428 C 0.65955 0.50594 0.31179 0.0
C1429 C 0.69436 0.43775 0.32545 0.0
N1430 N 0.65111 0.58453 0.32791 0.0
N1431 N 0.70029 0.47918 0.32937 0.0
H1432 H 0.85771 0.50816 0.56416 0.0
H1433 H 0.78513 0.37102 0.62574 0.0
H1434 H 0.93903 0.49101 0.59717 0.0
H1435 H 0.69743 0.42053 0.59735 0.0
H1436 H 0.84533 0.40368 0.6138 0.0
H1437 H 0.80211 0.46439 0.5746 0.0
C1438 C 0.86408 0.4945 0.57352 0.0
C1439 C 0.90316 0.50272 0.57974 0.0
C1440 C 0.81288 0.40712 0.61019 0.0
C1441 C 0.83948 0.45326 0.59186 0.0
C1442 C 0.77856 0.38841 0.61696 0.0
C1443 C 0.73613 0.3934 0.6126 0.0
C1444 C 0.80467 0.43045 0.59891 0.0
C1445 C 0.72951 0.41627 0.60117 0.0
C1446 C 0.8323 0.46976 0.57951 0.0
C1447 C 0.90954 0.48492 0.59198 0.0
N1448 N 0.76335 0.43393 0.59475 0.0
N1449 N 0.87796 0.46105 0.59766 0.0
H1450 H 0.85 0.53595 0.8139 0.0
H1451 H 0.98287 0.45745 0.87528 0.0
H1452 H 0.86828 0.61577 0.84749 0.0
H1453 H 0.93494 0.37308 0.84549 0.0
H1454 H 0.95299 0.5194 0.86366 0.0
H1455 H 0.89351 0.47959 0.82377 0.0
C1456 C 0.86384 0.54183 0.82328 0.0
C1457 C 0.85591 0.58065 0.82984 0.0
C1458 C 0.94938 0.48729 0.85966 0.0
C1459 C 0.90508 0.51604 0.84134 0.0
C1460 C 0.96653 0.45201 0.86625 0.0
C1461 C 0.96094 0.41001 0.86142 0.0
C1462 C 0.92706 0.48041 0.84812 0.0
C1463 C 0.9395 0.40479 0.84968 0.0
C1464 C 0.88848 0.50961 0.82894 0.0
C1465 C 0.87407 0.58642 0.84207 0.0
N1466 N 0.92329 0.43949 0.84347 0.0
N1467 N 0.8977 0.55435 0.84746 0.0
H1468 H 0.30049 0.52301 0.07212 0.0
H1469 H 0.09142 0.67511 0.10248 0.0
H1470 H 0.20294 0.62599 0.04654 0.0
H1471 H 0.1934 0.61687 0.12437 0.0
H1472 H 0.11557 0.63412 0.08347 0.0
H1473 H 0.2407 0.53626 0.09313 0.0
C1474 C 0.27073 0.54062 0.07084 0.0
C1475 C 0.26212 0.57898 0.05739 0.0
C1476 C 0.13177 0.62946 0.09255 0.0
C1477 C 0.1908 0.5874 0.08182 0.0
C1478 C 0.11788 0.65254 0.10339 0.0
C1479 C 0.14104 0.64975 0.11489 0.0
C1480 C 0.16844 0.60321 0.09339 0.0
C1481 C 0.1752 0.6203 0.11559 0.0
C1482 C 0.2347 0.55065 0.08387 0.0
C1483 C 0.20928 0.60573 0.05475 0.0
N1484 N 0.18826 0.59849 0.10491 0.0
N1485 N 0.18091 0.61015 0.06795 0.0
H1486 H 0.32485 0.46232 0.83023 0.0
H1487 H 0.14713 0.25608 0.84874 0.0
H1488 H 0.24343 0.3678 0.79742 0.0
H1489 H 0.18022 0.36158 0.874 0.0
H1490 H 0.19881 0.28401 0.83273 0.0
H1491 H 0.28614 0.40788 0.84961 0.0
C1492 C 0.30655 0.43386 0.82769 0.0
C1493 C 0.28276 0.42537 0.81147 0.0
C1494 C 0.1952 0.30045 0.84189 0.0
C1495 C 0.24395 0.36016 0.83463 0.0
C1496 C 0.16607 0.28443 0.85102 0.0
C1497 C 0.15925 0.30693 0.86259 0.0
C1498 C 0.218 0.33851 0.84455 0.0
C1499 C 0.18428 0.34366 0.86511 0.0
C1500 C 0.28071 0.40151 0.83953 0.0
C1501 C 0.25508 0.3743 0.80701 0.0
N1502 N 0.2125 0.35845 0.85612 0.0
N1503 N 0.23524 0.3492 0.81945 0.0
H1504 H 0.35116 0.25896 0.55402 0.0
H1505 H 0.48043 0.40931 0.60313 0.0
H1506 H 0.38461 0.39067 0.54526 0.0
H1507 H 0.4874 0.27048 0.60286 0.0
H1508 H 0.43444 0.40592 0.58399 0.0
H1509 H 0.39044 0.26528 0.57425 0.0
C1510 C 0.36663 0.28922 0.55641 0.0
C1511 C 0.36498 0.3242 0.54794 0.0
C1512 C 0.44554 0.37623 0.5883 0.0
C1513 C 0.40894 0.33201 0.57117 0.0
C1514 C 0.47158 0.37813 0.59922 0.0
C1515 C 0.48652 0.33993 0.60485 0.0
C1516 C 0.43454 0.33587 0.58305 0.0
C1517 C 0.47478 0.30047 0.59925 0.0
C1518 C 0.38887 0.29287 0.56795 0.0
C1519 C 0.38531 0.36289 0.55152 0.0
N1520 N 0.4495 0.29942 0.58869 0.0
N1521 N 0.40641 0.36584 0.5629 0.0
H1522 H 0.49206 0.56372 0.28629 0.0
H1523 H 0.56377 0.61045 0.35817 0.0
H1524 H 0.56322 0.4716 0.30864 0.0
H1525 H 0.46266 0.6811 0.33938 0.0
H1526 H 0.56454 0.55873 0.34025 0.0
H1527 H 0.48155 0.60772 0.30566 0.0
C1528 C 0.50522 0.55269 0.29531 0.0
C1529 C 0.52868 0.51411 0.29586 0.0
C1530 C 0.54193 0.58534 0.34011 0.0
C1531 C 0.51743 0.56436 0.31799 0.0
C1532 C 0.54169 0.6149 0.35028 0.0
C1533 C 0.51358 0.65027 0.35012 0.0
C1534 C 0.51453 0.59192 0.32961 0.0
C1535 C 0.48494 0.65427 0.33983 0.0
C1536 C 0.49922 0.57769 0.30635 0.0
C1537 C 0.54542 0.50134 0.30775 0.0
N1538 N 0.48659 0.6258 0.32988 0.0
N1539 N 0.53976 0.52657 0.31834 0.0
H1540 H 0.19439 0.37695 0.97817 0.0
H1541 H 0.191 0.33584 0.90368 0.0
H1542 H 0.26462 0.4583 0.95174 0.0
H1543 H 0.08311 0.30031 0.92776 0.0
H1544 H 0.2193 0.38019 0.92118 0.0
H1545 H 0.15459 0.34654 0.96012 0.0
C1546 C 0.20092 0.38913 0.96863 0.0
C1547 C 0.23214 0.42132 0.96653 0.0
C1548 C 0.18905 0.36334 0.92259 0.0
C1549 C 0.1876 0.38526 0.94576 0.0
C1550 C 0.17291 0.33809 0.91262 0.0
C1551 C 0.1348 0.31447 0.91435 0.0
C1552 C 0.16754 0.36401 0.93451 0.0
C1553 C 0.11252 0.31831 0.92608 0.0
C1554 C 0.17813 0.37165 0.95831 0.0
C1555 C 0.24024 0.43428 0.95382 0.0
N1556 N 0.12969 0.34198 0.93585 0.0
N1557 N 0.21836 0.41604 0.94392 0.0
H1558 H 0.5476 0.53268 0.71386 0.0
H1559 H 0.43618 0.33682 0.67653 0.0
H1560 H 0.4596 0.44227 0.73124 0.0
H1561 H 0.5381 0.41374 0.66013 0.0
H1562 H 0.43386 0.38502 0.69509 0.0
H1563 H 0.5352 0.4985 0.69287 0.0
C1564 C 0.52536 0.50593 0.71319 0.0
C1565 C 0.5045 0.49031 0.72424 0.0
C1566 C 0.45663 0.39164 0.6874 0.0
C1567 C 0.49066 0.45065 0.70042 0.0
C1568 C 0.45776 0.36429 0.67672 0.0
C1569 C 0.48849 0.37058 0.66692 0.0
C1570 C 0.48637 0.42564 0.6883 0.0
C1571 C 0.5153 0.40686 0.66771 0.0
C1572 C 0.51839 0.48636 0.70126 0.0
C1573 C 0.47613 0.45539 0.72293 0.0
N1574 N 0.51408 0.43278 0.67831 0.0
N1575 N 0.47021 0.43661 0.71126 0.0
H1576 H 0.38835 0.5764 0.46156 0.0
H1577 H 0.50991 0.57965 0.39499 0.0
H1578 H 0.36467 0.48189 0.43188 0.0
H1579 H 0.48857 0.69741 0.41639 0.0
H1580 H 0.45779 0.54301 0.40878 0.0
H1581 H 0.42578 0.62164 0.44571 0.0
C1582 C 0.39071 0.5654 0.45168 0.0
C1583 C 0.37403 0.52508 0.44804 0.0
C1584 C 0.46404 0.57699 0.41039 0.0
C1585 C 0.41694 0.57628 0.42997 0.0
C1586 C 0.49394 0.59785 0.40257 0.0
C1587 C 0.50379 0.64146 0.40466 0.0
C1588 C 0.44447 0.59957 0.4206 0.0
C1589 C 0.48184 0.6637 0.4145 0.0
C1590 C 0.41188 0.59125 0.44265 0.0
C1591 C 0.37764 0.51247 0.43511 0.0
N1592 N 0.45365 0.64227 0.4223 0.0
N1593 N 0.39925 0.53766 0.42658 0.0
H1594 H 0.29952 0.59006 0.21754 0.0
H1595 H 0.16591 0.6034 0.15276 0.0
H1596 H 0.3246 0.5094 0.18441 0.0
H1597 H 0.16928 0.70977 0.17963 0.0
H1598 H 0.22157 0.56701 0.16497 0.0
H1599 H 0.24884 0.63265 0.20472 0.0
C1600 C 0.29396 0.58108 0.20761 0.0
C1601 C 0.3153 0.54538 0.20214 0.0
C1602 C 0.2105 0.59842 0.16819 0.0
C1603 C 0.25815 0.59419 0.18741 0.0
C1604 C 0.17859 0.61918 0.16125 0.0
C1605 C 0.16275 0.65947 0.16528 0.0
C1606 C 0.22642 0.61762 0.17943 0.0
C1607 C 0.18072 0.6787 0.17623 0.0
C1608 C 0.26542 0.60558 0.20029 0.0
C1609 C 0.30798 0.53586 0.18914 0.0
N1610 N 0.21132 0.65728 0.18307 0.0
N1611 N 0.27977 0.55984 0.18227 0.0
loop_
_geom_bond_atom_site_label_1
_geom_bond_atom_site_label_2
_geom_bond_distance
_geom_bond_site_symmetry_2
_ccdc_geom_bond_type
C0 C1 1.560 . S
C0 H61 0.959 . S
C0 H62 0.959 . S
C0 H63 0.960 . S
C1 C0 1.560 . S
C1 O56 1.426 . S
C1 H60 0.980 . S
C2 C3 1.407 . S
C2 C7 1.418 . S
C2 O56 1.334 . S
C3 C2 1.407 . S
C3 C4 1.360 . S
C3 H64 0.929 . S
C4 C3 1.360 . S
C4 C5 1.401 . S
C4 C8 1.527 . S
C5 C4 1.401 . S
C5 C6 1.405 . S
C5 C38 1.587 . S
C6 C5 1.405 . S
C6 C7 1.332 . S
C6 C9 1.496 1_565 S
C7 C2 1.418 . S
C7 C6 1.332 . S
C7 H65 0.932 . S
C8 C4 1.527 . S
C8 H66 0.959 . S
C8 H67 0.961 . S
C8 H68 0.961 . S
C9 C6 1.496 1_545 S
C9 H69 0.960 . S
C9 H70 0.960 . S
C9 H71 0.961 . S
C10 C11 1.517 . S
C10 H73 0.961 . S
C10 H74 0.960 . S
C10 H75 0.959 . S
C11 C10 1.517 . S
C11 O59 1.468 . S
C11 H72 0.980 . S
C12 C13 1.349 . S
C12 C17 1.367 . S
C12 O59 1.408 . S
C13 C12 1.349 . S
C13 C14 1.407 . S
C13 H76 0.930 . S
C14 C13 1.407 . S
C14 C15 1.449 . S
C14 C18 1.535 . S
C15 C14 1.449 . S
C15 C16 1.384 . S
C15 C40 1.553 . S
C16 C15 1.384 . S
C16 C17 1.364 . S
C16 C19 1.450 . S
C17 C12 1.367 . S
C17 C16 1.364 . S
C17 H77 0.931 . S
C18 C14 1.535 . S
C18 H78 0.959 . S
C18 H79 0.961 . S
C18 H80 0.959 . S
C19 C16 1.450 . S
C19 H81 0.960 . S
C19 H82 0.960 . S
C19 H83 0.960 . S
C20 C21 1.309 . S
C20 C25 1.304 . S
C20 O58 1.435 . S
C21 C20 1.309 . S
C21 C22 1.476 . S
C21 H85 0.930 . S
C22 C21 1.476 . S
C22 C23 1.400 . S
C22 C26 1.567 . S
C23 C22 1.400 . S
C23 C24 1.373 . S
C23 C45 1.432 . S
C24 C23 1.373 . S
C24 C25 1.339 . S
C24 C27 1.530 1_545 S
C25 C20 1.304 . S
C25 C24 1.339 . S
C25 H86 0.930 1_545 S
C26 C22 1.567 . S
C26 H87 0.961 . S
C26 H88 0.960 . S
C26 H89 0.958 . S
C27 C24 1.530 1_565 S
C27 H90 0.961 . S
C27 H91 0.960 . S
C27 H92 0.960 . S
C28 C29 1.530 . S
C28 H94 0.961 . S
C28 H95 0.961 . S
C28 H96 0.959 . S
C29 C28 1.530 . S
C29 O57 1.412 . S
C29 H93 0.980 . S
C30 C31 1.288 . S
C30 C35 1.377 . S
C30 O57 1.393 . S
C31 C30 1.288 . S
C31 C32 1.369 . S
C31 H97 0.932 . S
C32 C31 1.369 . S
C32 C33 1.398 . S
C32 C36 1.527 . S
C33 C32 1.398 . S
C33 C34 1.380 . S
C33 C47 1.497 . S
C34 C33 1.380 . S
C34 C35 1.383 . S
C34 C37 1.603 1_545 S
C35 C30 1.377 . S
C35 C34 1.383 . S
C35 H98 0.929 . S
C36 C32 1.527 . S
C36 H99 0.961 . S
C36 H100 0.959 . S
C36 H101 0.959 . S
C37 C34 1.603 1_565 S
C37 H102 0.960 . S
C37 H103 0.962 . S
C37 H104 0.961 . S
C38 C5 1.587 . S
C38 C39 1.360 1_655 S
C38 C51 1.412 . S
C39 C38 1.360 1_455 S
C39 C40 1.365 . S
C39 H105 0.929 . S
C40 C15 1.553 . S
C40 C39 1.365 . S
C40 C41 1.404 . S
C41 C40 1.404 . S
C41 C42 1.395 . S
C41 C52 1.451 . S
C42 C41 1.395 . S
C42 C43 1.322 . S
C42 H106 0.930 . S
C43 C42 1.322 . S
C43 C44 1.459 . S
C43 H107 0.929 . S
C44 C43 1.459 . S
C44 C45 1.445 1_565 S
C44 C53 1.395 . S
C45 C23 1.432 . S
C45 C44 1.445 1_545 S
C45 C46 1.370 . S
C46 C45 1.370 . S
C46 C47 1.438 1_455 S
C46 H108 0.930 . S
C47 C33 1.497 . S
C47 C46 1.438 1_655 S
C47 C48 1.360 . S
C48 C47 1.360 . S
C48 C49 1.401 . S
C48 C53 1.446 1_645 S
C49 C48 1.401 . S
C49 C50 1.347 1_545 S
C49 H109 0.929 . S
C50 C49 1.347 1_565 S
C50 C51 1.455 . S
C50 H110 0.930 . S
C51 C38 1.412 . S
C51 C50 1.455 . S
C51 C52 1.331 1_655 S
C52 C41 1.451 . S
C52 C51 1.331 1_455 S
C52 C53 1.497 . S
C53 C44 1.395 . S
C53 C48 1.446 1_465 S
C53 C52 1.497 . S
C54 C55 1.582 . S
C54 H111 0.962 . S
C54 H112 0.959 . S
C54 H113 0.958 . S
C55 C54 1.582 . S
C55 O58 1.458 . S
C55 H84 0.980 . S
O56 C1 1.426 . S
O56 C2 1.334 . S
O57 C29 1.412 . S
O57 C30 1.393 . S
O58 C20 1.435 . S
O58 C55 1.458 . S
O59 C11 1.468 . S
O59 C12 1.408 . S
H60 C1 0.980 . S
H61 C0 0.959 . S
H62 C0 0.959 . S
H63 C0 0.960 . S
H64 C3 0.929 . S
H65 C7 0.932 . S
H66 C8 0.959 . S
H67 C8 0.961 . S
H68 C8 0.961 . S
H69 C9 0.960 . S
H70 C9 0.960 . S
H71 C9 0.961 . S
H72 C11 0.980 . S
H73 C10 0.961 . S
H74 C10 0.960 . S
H75 C10 0.959 . S
H76 C13 0.930 . S
H77 C17 0.931 . S
H78 C18 0.959 . S
H79 C18 0.961 . S
H80 C18 0.959 . S
H81 C19 0.960 . S
H82 C19 0.960 . S
H83 C19 0.960 . S
H84 C55 0.980 . S
H85 C21 0.930 . S
H86 C25 0.930 1_565 S
H87 C26 0.961 . S
H88 C26 0.960 . S
H89 C26 0.958 . S
H90 C27 0.961 . S
H91 C27 0.960 . S
H92 C27 0.960 . S
H93 C29 0.980 . S
H94 C28 0.961 . S
H95 C28 0.961 . S
H96 C28 0.959 . S
H97 C31 0.932 . S
H98 C35 0.929 . S
H99 C36 0.961 . S
H100 C36 0.959 . S
H101 C36 0.959 . S
H102 C37 0.960 . S
H103 C37 0.962 . S
H104 C37 0.961 . S
H105 C39 0.929 . S
H106 C42 0.930 . S
H107 C43 0.929 . S
H108 C46 0.930 . S
H109 C49 0.929 . S
H110 C50 0.930 . S
H111 C54 0.962 . S
H112 C54 0.959 . S
H113 C54 0.958 . S
C114 C115 1.560 . S
C114 H175 0.959 . S
C114 H176 0.959 . S
C114 H177 0.960 . S
C115 C114 1.560 . S
C115 O170 1.426 . S
C115 H174 0.980 . S
C116 C117 1.407 . S
C116 C121 1.418 . S
C116 O170 1.334 . S
C117 C116 1.407 . S
C117 C118 1.360 . S
C117 H178 0.929 . S
C118 C117 1.360 . S
C118 C119 1.401 . S
C118 C122 1.527 . S
C119 C118 1.401 . S
C119 C120 1.405 . S
C119 C152 1.587 . S
C120 C119 1.405 . S
C120 C121 1.332 . S
C120 C123 1.496 . S
C121 C116 1.418 . S
C121 C120 1.332 . S
C121 H179 0.929 . S
C122 C118 1.527 . S
C122 H180 0.959 . S
C122 H181 0.961 . S
C122 H182 0.961 . S
C123 C120 1.496 . S
C123 H183 0.960 . S
C123 H184 0.960 . S
C123 H185 0.961 . S
C124 C125 1.517 . S
C124 H187 0.961 . S
C124 H188 0.960 . S
C124 H189 0.959 . S
C125 C124 1.517 . S
C125 O173 1.468 . S
C125 H186 0.980 . S
C126 C127 1.349 . S
C126 C131 1.367 . S
C126 O173 1.408 . S
C127 C126 1.349 . S
C127 C128 1.407 . S
C127 H190 0.930 . S
C128 C127 1.407 . S
C128 C129 1.449 . S
C128 C132 1.535 . S
C129 C128 1.449 . S
C129 C130 1.384 . S
C129 C154 1.553 . S
C130 C129 1.384 . S
C130 C131 1.364 . S
C130 C133 1.450 . S
C131 C126 1.367 . S
C131 C130 1.364 . S
C131 H191 0.931 . S
C132 C128 1.535 . S
C132 H192 0.959 . S
C132 H193 0.961 . S
C132 H194 0.959 . S
C133 C130 1.450 . S
C133 H195 0.960 . S
C133 H196 0.960 . S
C133 H197 0.960 . S
C134 C135 1.309 . S
C134 C139 1.304 . S
C134 O172 1.435 . S
C135 C134 1.309 . S
C135 C136 1.476 . S
C135 H199 0.930 . S
C136 C135 1.476 . S
C136 C137 1.400 . S
C136 C140 1.567 . S
C137 C136 1.400 . S
C137 C138 1.373 . S
C137 C159 1.432 . S
C138 C137 1.373 . S
C138 C139 1.339 . S
C138 C141 1.530 . S
C139 C134 1.304 . S
C139 C138 1.339 . S
C139 H200 0.930 . S
C140 C136 1.567 . S
C140 H201 0.961 . S
C140 H202 0.960 . S
C140 H203 0.958 . S
C141 C138 1.530 . S
C141 H204 0.961 . S
C141 H205 0.960 . S
C141 H206 0.960 . S
C142 C143 1.530 . S
C142 H208 0.961 . S
C142 H209 0.961 . S
C142 H210 0.959 . S
C143 C142 1.530 . S
C143 O171 1.412 . S
C143 H207 0.980 . S
C144 C145 1.288 . S
C144 C149 1.377 . S
C144 O171 1.393 . S
C145 C144 1.288 . S
C145 C146 1.369 . S
C145 H211 0.932 . S
C146 C145 1.369 . S
C146 C147 1.398 . S
C146 C150 1.527 . S
C147 C146 1.398 . S
C147 C148 1.380 . S
C147 C161 1.497 . S
C148 C147 1.380 . S
C148 C149 1.383 . S
C148 C151 1.603 . S
C149 C144 1.377 . S
C149 C148 1.383 . S
C149 H212 0.929 . S
C150 C146 1.527 . S
C150 H213 0.961 . S
C150 H214 0.959 . S
C150 H215 0.959 . S
C151 C148 1.603 . S
C151 H216 0.960 . S
C151 H217 0.962 . S
C151 H218 0.961 . S
C152 C119 1.587 . S
C152 C153 1.360 . S
C152 C165 1.412 . S
C153 C152 1.360 . S
C153 C154 1.365 . S
C153 H219 0.929 . S
C154 C129 1.553 . S
C154 C153 1.365 . S
C154 C155 1.404 . S
C155 C154 1.404 . S
C155 C156 1.395 . S
C155 C166 1.451 . S
C156 C155 1.395 . S
C156 C157 1.322 . S
C156 H220 0.930 . S
C157 C156 1.322 . S
C157 C158 1.459 . S
C157 H221 0.929 . S
C158 C157 1.459 . S
C158 C159 1.445 . S
C158 C167 1.395 . S
C159 C137 1.432 . S
C159 C158 1.445 . S
C159 C160 1.370 . S
C160 C159 1.370 . S
C160 C161 1.438 . S
C160 H222 0.930 . S
C161 C147 1.497 . S
C161 C160 1.438 . S
C161 C162 1.360 . S
C162 C161 1.360 . S
C162 C163 1.401 . S
C162 C167 1.446 . S
C163 C162 1.401 . S
C163 C164 1.347 . S
C163 H223 0.929 . S
C164 C163 1.347 . S
C164 C165 1.455 . S
C164 H224 0.930 . S
C165 C152 1.412 . S
C165 C164 1.455 . S
C165 C166 1.331 . S
C166 C155 1.451 . S
C166 C165 1.331 . S
C166 C167 1.497 . S
C167 C158 1.395 . S
C167 C162 1.446 . S
C167 C166 1.497 . S
C168 C169 1.582 . S
C168 H225 0.962 . S
C168 H226 0.959 . S
C168 H227 0.958 . S
C169 C168 1.582 . S
C169 O172 1.458 . S
C169 H198 0.980 . S
O170 C115 1.426 . S
O170 C116 1.334 . S
O171 C143 1.412 . S
O171 C144 1.393 . S
O172 C134 1.435 . S
O172 C169 1.458 . S
O173 C125 1.468 . S
O173 C126 1.408 . S
H174 C115 0.980 . S
H175 C114 0.959 . S
H176 C114 0.959 . S
H177 C114 0.960 . S
H178 C117 0.929 . S
H179 C121 0.929 . S
H180 C122 0.959 . S
H181 C122 0.961 . S
H182 C122 0.961 . S
H183 C123 0.960 . S
H184 C123 0.960 . S
H185 C123 0.961 . S
H186 C125 0.980 . S
H187 C124 0.961 . S
H188 C124 0.960 . S
H189 C124 0.959 . S
H190 C127 0.930 . S
H191 C131 0.931 . S
H192 C132 0.959 . S
H193 C132 0.961 . S
H194 C132 0.959 . S
H195 C133 0.960 . S
H196 C133 0.960 . S
H197 C133 0.960 . S
H198 C169 0.980 . S
H199 C135 0.930 . S
H200 C139 0.930 . S
H201 C140 0.961 . S
H202 C140 0.960 . S
H203 C140 0.958 . S
H204 C141 0.961 . S
H205 C141 0.960 . S
H206 C141 0.960 . S
H207 C143 0.980 . S
H208 C142 0.961 . S
H209 C142 0.961 . S
H210 C142 0.959 . S
H211 C145 0.932 . S
H212 C149 0.929 . S
H213 C150 0.961 . S
H214 C150 0.959 . S
H215 C150 0.959 . S
H216 C151 0.960 . S
H217 C151 0.962 . S
H218 C151 0.961 . S
H219 C153 0.929 . S
H220 C156 0.930 . S
H221 C157 0.929 . S
H222 C160 0.930 . S
H223 C163 0.929 . S
H224 C164 0.930 . S
H225 C168 0.962 . S
H226 C168 0.959 . S
H227 C168 0.958 . S
C228 C229 1.560 . S
C228 H289 0.959 . S
C228 H290 0.959 . S
C228 H291 0.960 . S
C229 C228 1.560 . S
C229 O284 1.426 . S
C229 H288 0.980 . S
C230 C231 1.407 . S
C230 C235 1.418 . S
C230 O284 1.334 . S
C231 C230 1.407 . S
C231 C232 1.360 . S
C231 H292 0.929 . S
C232 C231 1.360 . S
C232 C233 1.401 . S
C232 C236 1.527 . S
C233 C232 1.401 . S
C233 C234 1.405 . S
C233 C266 1.587 . S
C234 C233 1.405 . S
C234 C235 1.332 . S
C234 C237 1.496 1_565 S
C235 C230 1.418 . S
C235 C234 1.332 . S
C235 H293 0.929 . S
C236 C232 1.527 . S
C236 H294 0.959 . S
C236 H295 0.961 . S
C236 H296 0.961 . S
C237 C234 1.496 1_545 S
C237 H297 0.960 . S
C237 H298 0.961 . S
C237 H299 0.961 . S
C238 C239 1.517 . S
C238 H301 0.961 . S
C238 H302 0.960 . S
C238 H303 0.959 . S
C239 C238 1.517 . S
C239 O287 1.468 . S
C239 H300 0.980 . S
C240 C241 1.349 . S
C240 C245 1.367 . S
C240 O287 1.408 . S
C241 C240 1.349 . S
C241 C242 1.407 . S
C241 H304 0.930 . S
C242 C241 1.407 . S
C242 C243 1.449 . S
C242 C246 1.535 . S
C243 C242 1.449 . S
C243 C244 1.384 . S
C243 C268 1.553 . S
C244 C243 1.384 . S
C244 C245 1.364 . S
C244 C247 1.450 . S
C245 C240 1.367 . S
C245 C244 1.364 . S
C245 H305 0.931 . S
C246 C242 1.535 . S
C246 H306 0.959 . S
C246 H307 0.961 . S
C246 H308 0.959 . S
C247 C244 1.450 . S
C247 H309 0.960 . S
C247 H310 0.960 . S
C247 H311 0.960 . S
C248 C249 1.309 . S
C248 C253 1.304 . S
C248 O286 1.435 . S
C249 C248 1.309 . S
C249 C250 1.476 . S
C249 H313 0.930 . S
C250 C249 1.476 . S
C250 C251 1.400 . S
C250 C254 1.567 . S
C251 C250 1.400 . S
C251 C252 1.373 . S
C251 C273 1.432 . S
C252 C251 1.373 . S
C252 C253 1.339 . S
C252 C255 1.530 1_545 S
C253 C248 1.304 . S
C253 C252 1.339 . S
C253 H314 0.930 1_545 S
C254 C250 1.567 . S
C254 H315 0.961 1_556 S
C254 H316 0.960 1_556 S
C254 H317 0.958 . S
C255 C252 1.530 1_565 S
C255 H318 0.961 . S
C255 H319 0.960 . S
C255 H320 0.960 . S
C256 C257 1.530 . S
C256 H322 0.961 . S
C256 H323 0.961 . S
C256 H324 0.959 . S
C257 C256 1.530 . S
C257 O285 1.412 . S
C257 H321 0.980 . S
C258 C259 1.288 . S
C258 C263 1.377 . S
C258 O285 1.393 . S
C259 C258 1.288 . S
C259 C260 1.369 . S
C259 H325 0.932 . S
C260 C259 1.369 . S
C260 C261 1.398 . S
C260 C264 1.527 . S
C261 C260 1.398 . S
C261 C262 1.380 . S
C261 C275 1.497 . S
C262 C261 1.380 . S
C262 C263 1.383 . S
C262 C265 1.603 1_545 S
C263 C258 1.377 . S
C263 C262 1.383 . S
C263 H326 0.929 . S
C264 C260 1.527 . S
C264 H327 0.961 1_556 S
C264 H328 0.959 . S
C264 H329 0.959 1_556 S
C265 C262 1.603 1_565 S
C265 H330 0.960 . S
C265 H331 0.962 . S
C265 H332 0.961 . S
C266 C233 1.587 . S
C266 C267 1.360 . S
C266 C279 1.412 . S
C267 C266 1.360 . S
C267 C268 1.365 . S
C267 H333 0.929 . S
C268 C243 1.553 . S
C268 C267 1.365 . S
C268 C269 1.404 . S
C269 C268 1.404 . S
C269 C270 1.395 . S
C269 C280 1.451 . S
C270 C269 1.395 . S
C270 C271 1.322 . S
C270 H334 0.930 . S
C271 C270 1.322 . S
C271 C272 1.456 1_554 S
C271 H335 0.976 . S
C272 C271 1.456 1_556 S
C272 C273 1.450 1_565 S
C272 C281 1.392 1_556 S
C273 C251 1.432 . S
C273 C272 1.450 1_545 S
C273 C274 1.370 . S
C274 C273 1.370 . S
C274 C275 1.438 . S
C274 H336 0.930 . S
C275 C261 1.497 . S
C275 C274 1.438 . S
C275 C276 1.360 1_556 S
C276 C275 1.360 1_554 S
C276 C277 1.401 . S
C276 C281 1.446 1_545 S
C277 C276 1.401 . S
C277 C278 1.347 1_545 S
C277 H337 0.929 . S
C278 C277 1.347 1_565 S
C278 C279 1.455 . S
C278 H338 0.930 . S
C279 C266 1.412 . S
C279 C278 1.455 . S
C279 C280 1.331 . S
C280 C269 1.451 . S
C280 C279 1.331 . S
C280 C281 1.497 . S
C281 C272 1.392 1_554 S
C281 C276 1.446 1_565 S
C281 C280 1.497 . S
C282 C283 1.582 . S
C282 H339 0.962 . S
C282 H340 0.959 . S
C282 H341 0.958 . S
C283 C282 1.582 . S
C283 O286 1.458 . S
C283 H312 0.980 . S
O284 C229 1.426 . S
O284 C230 1.334 . S
O285 C257 1.412 . S
O285 C258 1.393 . S
O286 C248 1.435 . S
O286 C283 1.458 . S
O287 C239 1.468 . S
O287 C240 1.408 . S
H288 C229 0.980 . S
H289 C228 0.959 . S
H290 C228 0.959 . S
H291 C228 0.960 . S
H292 C231 0.929 . S
H293 C235 0.929 . S
H294 C236 0.959 . S
H295 C236 0.961 . S
H296 C236 0.961 . S
H297 C237 0.960 . S
H298 C237 0.961 . S
H299 C237 0.961 . S
H300 C239 0.980 . S
H301 C238 0.961 . S
H302 C238 0.960 . S
H303 C238 0.959 . S
H304 C241 0.930 . S
H305 C245 0.931 . S
H306 C246 0.959 . S
H307 C246 0.961 . S
H308 C246 0.959 . S
H309 C247 0.960 . S
H310 C247 0.960 . S
H311 C247 0.960 . S
H312 C283 0.980 . S
H313 C249 0.930 . S
H314 C253 0.930 1_565 S
H315 C254 0.961 1_554 S
H316 C254 0.960 1_554 S
H317 C254 0.958 . S
H318 C255 0.961 . S
H319 C255 0.960 . S
H320 C255 0.960 . S
H321 C257 0.980 . S
H322 C256 0.961 . S
H323 C256 0.961 . S
H324 C256 0.959 . S
H325 C259 0.932 . S
H326 C263 0.929 . S
H327 C264 0.961 1_554 S
H328 C264 0.959 . S
H329 C264 0.959 1_554 S
H330 C265 0.960 . S
H331 C265 0.962 . S
H332 C265 0.961 . S
H333 C267 0.929 . S
H334 C270 0.930 . S
H335 C271 0.976 . S
H336 C274 0.930 . S
H337 C277 0.929 . S
H338 C278 0.930 . S
H339 C282 0.962 . S
H340 C282 0.959 . S
H341 C282 0.958 . S
C342 C343 1.560 . S
C342 H403 0.959 . S
C342 H404 0.959 . S
C342 H405 0.960 . S
C343 C342 1.560 . S
C343 O398 1.426 . S
C343 H402 0.980 . S
C344 C345 1.407 . S
C344 C349 1.418 . S
C344 O398 1.334 . S
C345 C344 1.407 . S
C345 C346 1.360 . S
C345 H406 0.929 . S
C346 C345 1.360 . S
C346 C347 1.401 . S
C346 C350 1.527 . S
C347 C346 1.401 . S
C347 C348 1.405 . S
C347 C380 1.587 . S
C348 C347 1.405 . S
C348 C349 1.332 . S
C348 C351 1.496 . S
C349 C344 1.418 . S
C349 C348 1.332 . S
C349 H407 0.929 . S
C350 C346 1.527 . S
C350 H408 0.959 . S
C350 H409 0.961 . S
C350 H410 0.961 . S
C351 C348 1.496 . S
C351 H411 0.960 . S
C351 H412 0.960 . S
C351 H413 0.961 . S
C352 C353 1.517 . S
C352 H415 0.961 . S
C352 H416 0.960 . S
C352 H417 0.959 . S
C353 C352 1.517 . S
C353 O401 1.468 . S
C353 H414 0.980 . S
C354 C355 1.349 . S
C354 C359 1.367 . S
C354 O401 1.408 . S
C355 C354 1.349 . S
C355 C356 1.407 . S
C355 H418 0.930 . S
C356 C355 1.407 . S
C356 C357 1.449 . S
C356 C360 1.535 . S
C357 C356 1.449 . S
C357 C358 1.384 . S
C357 C382 1.553 . S
C358 C357 1.384 . S
C358 C359 1.364 . S
C358 C361 1.450 . S
C359 C354 1.367 . S
C359 C358 1.364 . S
C359 H419 0.931 . S
C360 C356 1.535 . S
C360 H420 0.959 . S
C360 H421 0.961 . S
C360 H422 0.959 . S
C361 C358 1.450 . S
C361 H423 0.960 . S
C361 H424 0.960 . S
C361 H425 0.960 . S
C362 C363 1.309 . S
C362 C367 1.304 . S
C362 O400 1.435 . S
C363 C362 1.309 . S
C363 C364 1.476 . S
C363 H427 0.930 . S
C364 C363 1.476 . S
C364 C365 1.400 . S
C364 C368 1.567 . S
C365 C364 1.400 . S
C365 C366 1.373 . S
C365 C387 1.432 . S
C366 C365 1.373 . S
C366 C367 1.339 . S
C366 C369 1.530 . S
C367 C362 1.304 . S
C367 C366 1.339 . S
C367 H428 0.930 . S
C368 C364 1.567 . S
C368 H429 0.961 . S
C368 H430 0.960 . S
C368 H431 0.958 . S
C369 C366 1.530 . S
C369 H432 0.961 . S
C369 H433 0.960 . S
C369 H434 0.960 . S
C370 C371 1.530 . S
C370 H436 0.961 . S
C370 H437 0.961 . S
C370 H438 0.959 . S
C371 C370 1.530 . S
C371 O399 1.412 . S
C371 H435 0.980 . S
C372 C373 1.288 . S
C372 C377 1.377 . S
C372 O399 1.393 . S
C373 C372 1.288 . S
C373 C374 1.369 . S
C373 H439 0.932 . S
C374 C373 1.369 . S
C374 C375 1.398 . S
C374 C378 1.527 . S
C375 C374 1.398 . S
C375 C376 1.380 . S
C375 C389 1.497 . S
C376 C375 1.380 . S
C376 C377 1.383 . S
C376 C379 1.603 . S
C377 C372 1.377 . S
C377 C376 1.383 . S
C377 H440 0.929 . S
C378 C374 1.527 . S
C378 H441 0.961 . S
C378 H442 0.959 . S
C378 H443 0.959 . S
C379 C376 1.603 . S
C379 H444 0.960 . S
C379 H445 0.962 . S
C379 H446 0.961 . S
C380 C347 1.587 . S
C380 C381 1.360 . S
C380 C393 1.412 . S
C381 C380 1.360 . S
C381 C382 1.365 . S
C381 H447 0.929 . S
C382 C357 1.553 . S
C382 C381 1.365 . S
C382 C383 1.404 . S
C383 C382 1.404 . S
C383 C384 1.395 . S
C383 C394 1.451 . S
C384 C383 1.395 . S
C384 C385 1.322 . S
C384 H448 0.930 . S
C385 C384 1.322 . S
C385 C386 1.459 . S
C385 H449 0.929 . S
C386 C385 1.459 . S
C386 C387 1.445 . S
C386 C395 1.395 . S
C387 C365 1.432 . S
C387 C386 1.445 . S
C387 C388 1.370 . S
C388 C387 1.370 . S
C388 C389 1.438 . S
C388 H450 0.930 . S
C389 C375 1.497 . S
C389 C388 1.438 . S
C389 C390 1.360 . S
C390 C389 1.360 . S
C390 C391 1.401 . S
C390 C395 1.446 . S
C391 C390 1.401 . S
C391 C392 1.347 . S
C391 H451 0.929 . S
C392 C391 1.347 . S
C392 C393 1.455 . S
C392 H452 0.930 . S
C393 C380 1.412 . S
C393 C392 1.455 . S
C393 C394 1.331 . S
C394 C383 1.451 . S
C394 C393 1.331 . S
C394 C395 1.497 . S
C395 C386 1.395 . S
C395 C390 1.446 . S
C395 C394 1.497 . S
C396 C397 1.582 . S
C396 H453 0.962 . S
C396 H454 0.959 . S
C396 H455 0.958 . S
C397 C396 1.582 . S
C397 O400 1.458 . S
C397 H426 0.980 . S
O398 C343 1.426 . S
O398 C344 1.334 . S
O399 C371 1.412 . S
O399 C372 1.393 . S
O400 C362 1.435 . S
O400 C397 1.458 . S
O401 C353 1.468 . S
O401 C354 1.408 . S
H402 C343 0.980 . S
H403 C342 0.959 . S
H404 C342 0.959 . S
H405 C342 0.960 . S
H406 C345 0.929 . S
H407 C349 0.929 . S
H408 C350 0.959 . S
H409 C350 0.961 . S
H410 C350 0.961 . S
H411 C351 0.960 . S
H412 C351 0.960 . S
H413 C351 0.961 . S
H414 C353 0.980 . S
H415 C352 0.961 . S
H416 C352 0.960 . S
H417 C352 0.959 . S
H418 C355 0.930 . S
H419 C359 0.931 . S
H420 C360 0.959 . S
H421 C360 0.961 . S
H422 C360 0.959 . S
H423 C361 0.960 . S
H424 C361 0.960 . S
H425 C361 0.960 . S
H426 C397 0.980 . S
H427 C363 0.930 . S
H428 C367 0.930 . S
H429 C368 0.961 . S
H430 C368 0.960 . S
H431 C368 0.958 . S
H432 C369 0.961 . S
H433 C369 0.960 . S
H434 C369 0.960 . S
H435 C371 0.980 . S
H436 C370 0.961 . S
H437 C370 0.961 . S
H438 C370 0.959 . S
H439 C373 0.932 . S
H440 C377 0.929 . S
H441 C378 0.961 . S
H442 C378 0.959 . S
H443 C378 0.959 . S
H444 C379 0.960 . S
H445 C379 0.962 . S
H446 C379 0.961 . S
H447 C381 0.929 . S
H448 C384 0.930 . S
H449 C385 0.929 . S
H450 C388 0.930 . S
H451 C391 0.929 . S
H452 C392 0.930 . S
H453 C396 0.962 . S
H454 C396 0.959 . S
H455 C396 0.958 . S
C456 C457 1.560 . S
C456 H517 0.959 . S
C456 H518 0.959 . S
C456 H519 0.960 . S
C457 C456 1.560 . S
C457 O512 1.426 . S
C457 H516 0.980 . S
C458 C459 1.407 . S
C458 C463 1.418 . S
C458 O512 1.334 . S
C459 C458 1.407 . S
C459 C460 1.360 . S
C459 H520 0.929 . S
C460 C459 1.360 . S
C460 C461 1.401 . S
C460 C464 1.527 . S
C461 C460 1.401 . S
C461 C462 1.405 . S
C461 C494 1.587 . S
C462 C461 1.405 . S
C462 C463 1.332 . S
C462 C465 1.496 . S
C463 C458 1.418 . S
C463 C462 1.332 . S
C463 H521 0.929 . S
C464 C460 1.527 . S
C464 H522 0.959 . S
C464 H523 0.961 . S
C464 H524 0.961 . S
C465 C462 1.496 . S
C465 H525 0.960 . S
C465 H526 0.960 . S
C465 H527 0.961 . S
C466 C467 1.517 . S
C466 H529 0.961 . S
C466 H530 0.960 . S
C466 H531 0.959 . S
C467 C466 1.517 . S
C467 O515 1.468 . S
C467 H528 0.980 . S
C468 C469 1.349 . S
C468 C473 1.367 . S
C468 O515 1.408 1_545 S
C469 C468 1.349 . S
C469 C470 1.407 . S
C469 H532 0.930 . S
C470 C469 1.407 . S
C470 C471 1.449 . S
C470 C474 1.535 . S
C471 C470 1.449 . S
C471 C472 1.384 . S
C471 C496 1.553 . S
C472 C471 1.384 . S
C472 C473 1.364 . S
C472 C475 1.450 . S
C473 C468 1.367 . S
C473 C472 1.364 . S
C473 H533 0.931 . S
C474 C470 1.535 . S
C474 H534 0.959 . S
C474 H535 0.961 . S
C474 H536 0.959 . S
C475 C472 1.450 . S
C475 H537 0.960 . S
C475 H538 0.960 . S
C475 H539 0.960 . S
C476 C477 1.309 . S
C476 C481 1.304 . S
C476 O514 1.435 1_545 S
C477 C476 1.309 . S
C477 C478 1.476 . S
C477 H541 0.930 . S
C478 C477 1.476 . S
C478 C479 1.400 . S
C478 C482 1.567 . S
C479 C478 1.400 . S
C479 C480 1.373 . S
C479 C501 1.432 . S
C480 C479 1.373 . S
C480 C481 1.339 . S
C480 C483 1.530 . S
C481 C476 1.304 . S
C481 C480 1.339 . S
C481 H542 0.930 . S
C482 C478 1.567 . S
C482 H543 0.961 . S
C482 H544 0.960 . S
C482 H545 0.958 . S
C483 C480 1.530 . S
C483 H546 0.961 . S
C483 H547 0.960 . S
C483 H548 0.960 . S
C484 C485 1.530 . S
C484 H550 0.961 . S
C484 H551 0.961 . S
C484 H552 0.959 . S
C485 C484 1.530 . S
C485 O513 1.412 . S
C485 H549 0.980 . S
C486 C487 1.288 . S
C486 C491 1.377 . S
C486 O513 1.393 . S
C487 C486 1.288 . S
C487 C488 1.369 . S
C487 H553 0.932 . S
C488 C487 1.369 . S
C488 C489 1.398 . S
C488 C492 1.527 . S
C489 C488 1.398 . S
C489 C490 1.380 . S
C489 C503 1.497 . S
C490 C489 1.380 . S
C490 C491 1.383 . S
C490 C493 1.603 . S
C491 C486 1.377 . S
C491 C490 1.383 . S
C491 H554 0.929 . S
C492 C488 1.527 . S
C492 H555 0.961 . S
C492 H556 0.959 . S
C492 H557 0.959 . S
C493 C490 1.603 . S
C493 H558 0.960 . S
C493 H559 0.962 . S
C493 H560 0.961 . S
C494 C461 1.587 . S
C494 C495 1.360 . S
C494 C507 1.412 . S
C495 C494 1.360 . S
C495 C496 1.365 . S
C495 H561 0.929 . S
C496 C471 1.553 . S
C496 C495 1.365 . S
C496 C497 1.404 . S
C497 C496 1.404 . S
C497 C498 1.395 . S
C497 C508 1.451 . S
C498 C497 1.395 . S
C498 C499 1.322 . S
C498 H562 0.930 . S
C499 C498 1.322 . S
C499 C500 1.459 . S
C499 H563 0.929 . S
C500 C499 1.459 . S
C500 C501 1.445 . S
C500 C509 1.395 . S
C501 C479 1.432 . S
C501 C500 1.445 . S
C501 C502 1.370 . S
C502 C501 1.370 . S
C502 C503 1.438 . S
C502 H564 0.930 . S
C503 C489 1.497 . S
C503 C502 1.438 . S
C503 C504 1.360 . S
C504 C503 1.360 . S
C504 C505 1.401 . S
C504 C509 1.446 . S
C505 C504 1.401 . S
C505 C506 1.347 . S
C505 H565 0.929 . S
C506 C505 1.347 . S
C506 C507 1.455 . S
C506 H566 0.930 . S
C507 C494 1.412 . S
C507 C506 1.455 . S
C507 C508 1.331 . S
C508 C497 1.451 . S
C508 C507 1.331 . S
C508 C509 1.497 . S
C509 C500 1.395 . S
C509 C504 1.446 . S
C509 C508 1.497 . S
C510 C511 1.582 . S
C510 H567 0.962 . S
C510 H568 0.959 . S
C510 H569 0.958 . S
C511 C510 1.582 . S
C511 O514 1.458 . S
C511 H540 0.980 . S
O512 C457 1.426 . S
O512 C458 1.334 . S
O513 C485 1.412 . S
O513 C486 1.393 . S
O514 C476 1.435 1_565 S
O514 C511 1.458 . S
O515 C467 1.468 . S
O515 C468 1.408 1_565 S
H516 C457 0.980 . S
H517 C456 0.959 . S
H518 C456 0.959 . S
H519 C456 0.960 . S
H520 C459 0.929 . S
H521 C463 0.929 . S
H522 C464 0.959 . S
H523 C464 0.961 . S
H524 C464 0.961 . S
H525 C465 0.960 . S
H526 C465 0.960 . S
H527 C465 0.961 . S
H528 C467 0.980 . S
H529 C466 0.961 . S
H530 C466 0.960 . S
H531 C466 0.959 . S
H532 C469 0.930 . S
H533 C473 0.931 . S
H534 C474 0.959 . S
H535 C474 0.961 . S
H536 C474 0.959 . S
H537 C475 0.960 . S
H538 C475 0.960 . S
H539 C475 0.960 . S
H540 C511 0.980 . S
H541 C477 0.930 . S
H542 C481 0.930 . S
H543 C482 0.961 . S
H544 C482 0.960 . S
H545 C482 0.958 . S
H546 C483 0.961 . S
H547 C483 0.960 . S
H548 C483 0.960 . S
H549 C485 0.980 . S
H550 C484 0.961 . S
H551 C484 0.961 . S
H552 C484 0.959 . S
H553 C487 0.932 . S
H554 C491 0.929 . S
H555 C492 0.961 . S
H556 C492 0.959 . S
H557 C492 0.959 . S
H558 C493 0.960 . S
H559 C493 0.962 . S
H560 C493 0.961 . S
H561 C495 0.929 . S
H562 C498 0.930 . S
H563 C499 0.929 . S
H564 C502 0.930 . S
H565 C505 0.929 . S
H566 C506 0.930 . S
H567 C510 0.962 . S
H568 C510 0.959 . S
H569 C510 0.958 . S
C570 C571 1.560 . S
C570 H631 0.959 . S
C570 H632 0.959 . S
C570 H633 0.960 . S
C571 C570 1.560 . S
C571 O626 1.426 . S
C571 H630 0.980 . S
C572 C573 1.407 . S
C572 C577 1.418 . S
C572 O626 1.334 . S
C573 C572 1.407 . S
C573 C574 1.360 . S
C573 H634 0.929 . S
C574 C573 1.360 . S
C574 C575 1.401 . S
C574 C578 1.527 . S
C575 C574 1.401 . S
C575 C576 1.405 . S
C575 C608 1.587 . S
C576 C575 1.405 . S
C576 C577 1.332 . S
C576 C579 1.496 . S
C577 C572 1.418 . S
C577 C576 1.332 . S
C577 H635 0.929 . S
C578 C574 1.527 . S
C578 H636 0.959 . S
C578 H637 0.961 . S
C578 H638 0.961 . S
C579 C576 1.496 . S
C579 H639 0.960 . S
C579 H640 0.960 . S
C579 H641 0.961 . S
C580 C581 1.517 . S
C580 H643 0.961 . S
C580 H644 0.960 . S
C580 H645 0.959 . S
C581 C580 1.517 . S
C581 O629 1.468 . S
C581 H642 0.980 . S
C582 C583 1.349 . S
C582 C587 1.367 . S
C582 O629 1.408 1_565 S
C583 C582 1.349 . S
C583 C584 1.407 . S
C583 H646 0.930 . S
C584 C583 1.407 . S
C584 C585 1.449 . S
C584 C588 1.535 . S
C585 C584 1.449 . S
C585 C586 1.384 . S
C585 C610 1.553 . S
C586 C585 1.384 . S
C586 C587 1.364 . S
C586 C589 1.450 . S
C587 C582 1.367 . S
C587 C586 1.364 . S
C587 H647 0.931 . S
C588 C584 1.535 . S
C588 H648 0.959 . S
C588 H649 0.961 . S
C588 H650 0.959 . S
C589 C586 1.450 . S
C589 H651 0.960 . S
C589 H652 0.960 . S
C589 H653 0.960 . S
C590 C591 1.309 . S
C590 C595 1.304 . S
C590 O628 1.435 1_565 S
C591 C590 1.309 . S
C591 C592 1.476 . S
C591 H655 0.930 . S
C592 C591 1.476 . S
C592 C593 1.400 . S
C592 C596 1.567 . S
C593 C592 1.400 . S
C593 C594 1.373 . S
C593 C615 1.432 . S
C594 C593 1.373 . S
C594 C595 1.339 . S
C594 C597 1.530 . S
C595 C590 1.304 . S
C595 C594 1.339 . S
C595 H656 0.930 . S
C596 C592 1.567 . S
C596 H657 0.961 . S
C596 H658 0.960 . S
C596 H659 0.958 . S
C597 C594 1.530 . S
C597 H660 0.961 . S
C597 H661 0.960 . S
C597 H662 0.960 . S
C598 C599 1.530 . S
C598 H664 0.961 . S
C598 H665 0.961 . S
C598 H666 0.959 . S
C599 C598 1.530 . S
C599 O627 1.412 . S
C599 H663 0.980 . S
C600 C601 1.288 . S
C600 C605 1.377 . S
C600 O627 1.393 . S
C601 C600 1.288 . S
C601 C602 1.369 . S
C601 H667 0.932 . S
C602 C601 1.369 . S
C602 C603 1.398 . S
C602 C606 1.527 . S
C603 C602 1.398 . S
C603 C604 1.380 . S
C603 C617 1.497 . S
C604 C603 1.380 . S
C604 C605 1.383 . S
C604 C607 1.603 . S
C605 C600 1.377 . S
C605 C604 1.383 . S
C605 H668 0.929 . S
C606 C602 1.527 . S
C606 H669 0.961 . S
C606 H670 0.959 . S
C606 H671 0.959 . S
C607 C604 1.603 . S
C607 H672 0.960 . S
C607 H673 0.962 . S
C607 H674 0.961 . S
C608 C575 1.587 . S
C608 C609 1.360 . S
C608 C621 1.412 . S
C609 C608 1.360 . S
C609 C610 1.365 . S
C609 H675 0.929 . S
C610 C585 1.553 . S
C610 C609 1.365 . S
C610 C611 1.404 . S
C611 C610 1.404 . S
C611 C612 1.395 . S
C611 C622 1.451 . S
C612 C611 1.395 . S
C612 C613 1.322 . S
C612 H676 0.930 . S
C613 C612 1.322 . S
C613 C614 1.459 . S
C613 H677 0.929 . S
C614 C613 1.459 . S
C614 C615 1.445 . S
C614 C623 1.395 . S
C615 C593 1.432 . S
C615 C614 1.445 . S
C615 C616 1.370 . S
C616 C615 1.370 . S
C616 C617 1.438 . S
C616 H678 0.930 . S
C617 C603 1.497 . S
C617 C616 1.438 . S
C617 C618 1.360 . S
C618 C617 1.360 . S
C618 C619 1.401 . S
C618 C623 1.446 . S
C619 C618 1.401 . S
C619 C620 1.347 . S
C619 H679 0.929 . S
C620 C619 1.347 . S
C620 C621 1.455 . S
C620 H680 0.930 . S
C621 C608 1.412 . S
C621 C620 1.455 . S
C621 C622 1.331 . S
C622 C611 1.451 . S
C622 C621 1.331 . S
C622 C623 1.497 . S
C623 C614 1.395 . S
C623 C618 1.446 . S
C623 C622 1.497 . S
C624 C625 1.582 . S
C624 H681 0.962 . S
C624 H682 0.959 . S
C624 H683 0.958 . S
C625 C624 1.582 . S
C625 O628 1.458 . S
C625 H654 0.980 . S
O626 C571 1.426 . S
O626 C572 1.334 . S
O627 C599 1.412 . S
O627 C600 1.393 . S
O628 C590 1.435 1_545 S
O628 C625 1.458 . S
O629 C581 1.468 . S
O629 C582 1.408 1_545 S
H630 C571 0.980 . S
H631 C570 0.959 . S
H632 C570 0.959 . S
H633 C570 0.960 . S
H634 C573 0.929 . S
H635 C577 0.929 . S
H636 C578 0.959 . S
H637 C578 0.961 . S
H638 C578 0.961 . S
H639 C579 0.960 . S
H640 C579 0.960 . S
H641 C579 0.961 . S
H642 C581 0.980 . S
H643 C580 0.961 . S
H644 C580 0.960 . S
H645 C580 0.959 . S
H646 C583 0.930 . S
H647 C587 0.931 . S
H648 C588 0.959 . S
H649 C588 0.961 . S
H650 C588 0.959 . S
H651 C589 0.960 . S
H652 C589 0.960 . S
H653 C589 0.960 . S
H654 C625 0.980 . S
H655 C591 0.930 . S
H656 C595 0.930 . S
H657 C596 0.961 . S
H658 C596 0.960 . S
H659 C596 0.958 . S
H660 C597 0.961 . S
H661 C597 0.960 . S
H662 C597 0.960 . S
H663 C599 0.980 . S
H664 C598 0.961 . S
H665 C598 0.961 . S
H666 C598 0.959 . S
H667 C601 0.932 . S
H668 C605 0.929 . S
H669 C606 0.961 . S
H670 C606 0.959 . S
H671 C606 0.959 . S
H672 C607 0.960 . S
H673 C607 0.962 . S
H674 C607 0.961 . S
H675 C609 0.929 . S
H676 C612 0.930 . S
H677 C613 0.929 . S
H678 C616 0.930 . S
H679 C619 0.929 . S
H680 C620 0.930 . S
H681 C624 0.962 . S
H682 C624 0.959 . S
H683 C624 0.958 . S
C684 C685 1.560 . S
C684 H745 0.959 . S
C684 H746 0.959 . S
C684 H747 0.960 . S
C685 C684 1.560 . S
C685 O740 1.426 . S
C685 H744 0.980 . S
C686 C687 1.407 . S
C686 C691 1.418 . S
C686 O740 1.334 . S
C687 C686 1.407 . S
C687 C688 1.360 . S
C687 H748 0.929 . S
C688 C687 1.360 . S
C688 C689 1.401 . S
C688 C692 1.527 . S
C689 C688 1.401 . S
C689 C690 1.405 . S
C689 C722 1.587 . S
C690 C689 1.405 . S
C690 C691 1.332 . S
C690 C693 1.496 . S
C691 C686 1.418 . S
C691 C690 1.332 . S
C691 H749 0.929 . S
C692 C688 1.527 . S
C692 H750 0.959 . S
C692 H751 0.961 . S
C692 H752 0.961 . S
C693 C690 1.496 . S
C693 H753 0.960 . S
C693 H754 0.960 . S
C693 H755 0.961 . S
C694 C695 1.517 . S
C694 H757 0.961 . S
C694 H758 0.960 . S
C694 H759 0.959 . S
C695 C694 1.517 . S
C695 O743 1.468 . S
C695 H756 0.980 . S
C696 C697 1.349 . S
C696 C701 1.367 . S
C696 O743 1.408 . S
C697 C696 1.349 . S
C697 C698 1.407 . S
C697 H760 0.930 . S
C698 C697 1.407 . S
C698 C699 1.449 . S
C698 C702 1.535 . S
C699 C698 1.449 . S
C699 C700 1.384 . S
C699 C724 1.553 . S
C700 C699 1.384 . S
C700 C701 1.364 . S
C700 C703 1.450 . S
C701 C696 1.367 . S
C701 C700 1.364 . S
C701 H761 0.931 . S
C702 C698 1.535 . S
C702 H762 0.959 . S
C702 H763 0.961 . S
C702 H764 0.959 . S
C703 C700 1.450 . S
C703 H765 0.960 . S
C703 H766 0.960 . S
C703 H767 0.960 . S
C704 C705 1.309 . S
C704 C709 1.304 . S
C704 O742 1.435 . S
C705 C704 1.309 . S
C705 C706 1.476 . S
C705 H769 0.930 . S
C706 C705 1.476 . S
C706 C707 1.400 . S
C706 C710 1.567 . S
C707 C706 1.400 . S
C707 C708 1.373 . S
C707 C729 1.432 . S
C708 C707 1.373 . S
C708 C709 1.339 . S
C708 C711 1.530 1_556 S
C709 C704 1.304 . S
C709 C708 1.339 . S
C709 H770 0.930 . S
C710 C706 1.567 . S
C710 H771 0.961 . S
C710 H772 0.960 . S
C710 H773 0.958 . S
C711 C708 1.530 1_554 S
C711 H774 0.961 . S
C711 H775 0.960 . S
C711 H776 0.960 1_554 S
C712 C713 1.530 . S
C712 H778 0.961 . S
C712 H779 0.961 . S
C712 H780 0.959 . S
C713 C712 1.530 . S
C713 O741 1.412 . S
C713 H777 0.980 . S
C714 C715 1.288 . S
C714 C719 1.377 . S
C714 O741 1.393 . S
C715 C714 1.288 . S
C715 C716 1.369 . S
C715 H781 0.932 . S
C716 C715 1.369 . S
C716 C717 1.398 . S
C716 C720 1.527 . S
C717 C716 1.398 . S
C717 C718 1.380 . S
C717 C731 1.497 . S
C718 C717 1.380 . S
C718 C719 1.383 . S
C718 C721 1.603 . S
C719 C714 1.377 . S
C719 C718 1.383 . S
C719 H782 0.929 . S
C720 C716 1.527 . S
C720 H783 0.961 . S
C720 H784 0.959 . S
C720 H785 0.959 . S
C721 C718 1.603 . S
C721 H786 0.960 . S
C721 H787 0.964 . S
C721 H788 0.961 1_556 S
C722 C689 1.587 . S
C722 C723 1.360 . S
C722 C735 1.412 . S
C723 C722 1.360 . S
C723 C724 1.365 . S
C723 H789 0.929 . S
C724 C699 1.553 . S
C724 C723 1.365 . S
C724 C725 1.404 . S
C725 C724 1.404 . S
C725 C726 1.395 . S
C725 C736 1.451 . S
C726 C725 1.395 . S
C726 C727 1.322 . S
C726 H790 0.930 . S
C727 C726 1.322 . S
C727 C728 1.459 . S
C727 H791 0.929 . S
C728 C727 1.459 . S
C728 C729 1.445 1_554 S
C728 C737 1.395 . S
C729 C707 1.432 . S
C729 C728 1.445 1_556 S
C729 C730 1.370 . S
C730 C729 1.370 . S
C730 C731 1.438 . S
C730 H792 0.930 . S
C731 C717 1.497 . S
C731 C730 1.438 . S
C731 C732 1.360 1_556 S
C732 C731 1.360 1_554 S
C732 C733 1.401 . S
C732 C737 1.446 . S
C733 C732 1.401 . S
C733 C734 1.347 . S
C733 H793 0.929 . S
C734 C733 1.347 . S
C734 C735 1.455 . S
C734 H794 0.930 . S
C735 C722 1.412 . S
C735 C734 1.455 . S
C735 C736 1.331 . S
C736 C725 1.451 . S
C736 C735 1.331 . S
C736 C737 1.497 . S
C737 C728 1.395 . S
C737 C732 1.446 . S
C737 C736 1.497 . S
C738 C739 1.582 . S
C738 H795 0.962 . S
C738 H796 0.959 . S
C738 H797 0.958 . S
C739 C738 1.582 . S
C739 O742 1.458 . S
C739 H768 0.980 . S
O740 C685 1.426 . S
O740 C686 1.334 . S
O741 C713 1.412 . S
O741 C714 1.393 . S
O742 C704 1.435 . S
O742 C739 1.458 . S
O743 C695 1.468 . S
O743 C696 1.408 . S
H744 C685 0.980 . S
H745 C684 0.959 . S
H746 C684 0.959 . S
H747 C684 0.960 . S
H748 C687 0.929 . S
H749 C691 0.929 . S
H750 C692 0.959 . S
H751 C692 0.961 . S
H752 C692 0.961 . S
H753 C693 0.960 . S
H754 C693 0.960 . S
H755 C693 0.961 . S
H756 C695 0.980 . S
H757 C694 0.961 . S
H758 C694 0.960 . S
H759 C694 0.959 . S
H760 C697 0.930 . S
H761 C701 0.931 . S
H762 C702 0.959 . S
H763 C702 0.961 . S
H764 C702 0.959 . S
H765 C703 0.960 . S
H766 C703 0.960 . S
H767 C703 0.960 . S
H768 C739 0.980 . S
H769 C705 0.930 . S
H770 C709 0.930 . S
H771 C710 0.961 . S
H772 C710 0.960 . S
H773 C710 0.958 . S
H774 C711 0.961 . S
H775 C711 0.960 . S
H776 C711 0.960 1_556 S
H777 C713 0.980 . S
H778 C712 0.961 . S
H779 C712 0.961 . S
H780 C712 0.959 . S
H781 C715 0.932 . S
H782 C719 0.929 . S
H783 C720 0.961 . S
H784 C720 0.959 . S
H785 C720 0.959 . S
H786 C721 0.960 . S
H787 C721 0.964 . S
H788 C721 0.961 1_554 S
H789 C723 0.929 . S
H790 C726 0.930 . S
H791 C727 0.929 . S
H792 C730 0.930 . S
H793 C733 0.929 . S
H794 C734 0.930 . S
H795 C738 0.962 . S
H796 C738 0.959 . S
H797 C738 0.958 . S
C798 C799 1.560 . S
C798 H859 0.959 . S
C798 H860 0.959 . S
C798 H861 0.960 . S
C799 C798 1.560 . S
C799 O854 1.426 . S
C799 H858 0.980 . S
C800 C801 1.407 . S
C800 C805 1.418 1_655 S
C800 O854 1.334 . S
C801 C800 1.407 . S
C801 C802 1.360 1_655 S
C801 H862 0.929 . S
C802 C801 1.360 1_455 S
C802 C803 1.401 . S
C802 C806 1.527 . S
C803 C802 1.401 . S
C803 C804 1.405 . S
C803 C836 1.587 . S
C804 C803 1.405 . S
C804 C805 1.332 . S
C804 C807 1.496 . S
C805 C800 1.418 1_455 S
C805 C804 1.332 . S
C805 H863 0.929 . S
C806 C802 1.527 . S
C806 H864 0.959 . S
C806 H865 0.961 . S
C806 H866 0.961 . S
C807 C804 1.496 . S
C807 H867 0.960 . S
C807 H868 0.960 . S
C807 H869 0.961 . S
C808 C809 1.517 . S
C808 H871 0.961 . S
C808 H872 0.960 . S
C808 H873 0.959 . S
C809 C808 1.517 . S
C809 O857 1.468 . S
C809 H870 0.980 . S
C810 C811 1.349 . S
C810 C815 1.367 . S
C810 O857 1.408 . S
C811 C810 1.349 . S
C811 C812 1.407 . S
C811 H874 0.930 . S
C812 C811 1.407 . S
C812 C813 1.449 . S
C812 C816 1.535 . S
C813 C812 1.449 . S
C813 C814 1.384 . S
C813 C838 1.553 . S
C814 C813 1.384 . S
C814 C815 1.364 . S
C814 C817 1.450 . S
C815 C810 1.367 . S
C815 C814 1.364 . S
C815 H875 0.931 . S
C816 C812 1.535 . S
C816 H876 0.959 . S
C816 H877 0.961 . S
C816 H878 0.959 . S
C817 C814 1.450 . S
C817 H879 0.960 . S
C817 H880 0.960 . S
C817 H881 0.960 . S
C818 C819 1.309 . S
C818 C823 1.304 . S
C818 O856 1.435 . S
C819 C818 1.309 . S
C819 C820 1.476 . S
C819 H883 0.930 . S
C820 C819 1.476 . S
C820 C821 1.400 . S
C820 C824 1.567 . S
C821 C820 1.400 . S
C821 C822 1.373 . S
C821 C843 1.432 . S
C822 C821 1.373 . S
C822 C823 1.339 . S
C822 C825 1.530 . S
C823 C818 1.304 . S
C823 C822 1.339 . S
C823 H884 0.930 . S
C824 C820 1.567 . S
C824 H885 0.961 . S
C824 H886 0.960 . S
C824 H887 0.958 . S
C825 C822 1.530 . S
C825 H888 0.961 . S
C825 H889 0.960 . S
C825 H890 0.960 . S
C826 C827 1.530 . S
C826 H892 0.961 . S
C826 H893 0.961 . S
C826 H894 0.959 . S
C827 C826 1.530 . S
C827 O855 1.412 . S
C827 H891 0.980 . S
C828 C829 1.288 1_655 S
C828 C833 1.377 1_655 S
C828 O855 1.393 . S
C829 C828 1.288 1_455 S
C829 C830 1.369 . S
C829 H895 0.932 . S
C830 C829 1.369 . S
C830 C831 1.398 . S
C830 C834 1.527 . S
C831 C830 1.398 . S
C831 C832 1.380 . S
C831 C845 1.497 . S
C832 C831 1.380 . S
C832 C833 1.383 . S
C832 C835 1.603 . S
C833 C828 1.377 1_455 S
C833 C832 1.383 . S
C833 H896 0.929 1_455 S
C834 C830 1.527 . S
C834 H897 0.961 . S
C834 H898 0.959 . S
C834 H899 0.959 . S
C835 C832 1.603 . S
C835 H900 0.960 . S
C835 H901 0.962 . S
C835 H902 0.961 . S
C836 C803 1.587 . S
C836 C837 1.360 . S
C836 C849 1.412 . S
C837 C836 1.360 . S
C837 C838 1.365 . S
C837 H903 0.929 . S
C838 C813 1.553 . S
C838 C837 1.365 . S
C838 C839 1.404 . S
C839 C838 1.404 . S
C839 C840 1.395 . S
C839 C850 1.451 . S
C840 C839 1.395 . S
C840 C841 1.322 . S
C840 H904 0.930 . S
C841 C840 1.322 . S
C841 C842 1.459 . S
C841 H905 0.929 . S
C842 C841 1.459 . S
C842 C843 1.445 . S
C842 C851 1.395 . S
C843 C821 1.432 . S
C843 C842 1.445 . S
C843 C844 1.370 . S
C844 C843 1.370 . S
C844 C845 1.438 . S
C844 H906 0.930 . S
C845 C831 1.497 . S
C845 C844 1.438 . S
C845 C846 1.360 . S
C846 C845 1.360 . S
C846 C847 1.401 . S
C846 C851 1.446 . S
C847 C846 1.401 . S
C847 C848 1.347 . S
C847 H907 0.929 . S
C848 C847 1.347 . S
C848 C849 1.455 . S
C848 H908 0.930 . S
C849 C836 1.412 . S
C849 C848 1.455 . S
C849 C850 1.331 . S
C850 C839 1.451 . S
C850 C849 1.331 . S
C850 C851 1.497 . S
C851 C842 1.395 . S
C851 C846 1.446 . S
C851 C850 1.497 . S
C852 C853 1.582 . S
C852 H909 0.962 . S
C852 H910 0.959 . S
C852 H911 0.958 . S
C853 C852 1.582 . S
C853 O856 1.458 . S
C853 H882 0.980 . S
O854 C799 1.426 . S
O854 C800 1.334 . S
O855 C827 1.412 . S
O855 C828 1.393 . S
O856 C818 1.435 . S
O856 C853 1.458 . S
O857 C809 1.468 . S
O857 C810 1.408 . S
H858 C799 0.980 . S
H859 C798 0.959 . S
H860 C798 0.959 . S
H861 C798 0.960 . S
H862 C801 0.929 . S
H863 C805 0.929 . S
H864 C806 0.959 . S
H865 C806 0.961 . S
H866 C806 0.961 . S
H867 C807 0.960 . S
H868 C807 0.960 . S
H869 C807 0.961 . S
H870 C809 0.980 . S
H871 C808 0.961 . S
H872 C808 0.960 . S
H873 C808 0.959 . S
H874 C811 0.930 . S
H875 C815 0.931 . S
H876 C816 0.959 . S
H877 C816 0.961 . S
H878 C816 0.959 . S
H879 C817 0.960 . S
H880 C817 0.960 . S
H881 C817 0.960 . S
H882 C853 0.980 . S
H883 C819 0.930 . S
H884 C823 0.930 . S
H885 C824 0.961 . S
H886 C824 0.960 . S
H887 C824 0.958 . S
H888 C825 0.961 . S
H889 C825 0.960 . S
H890 C825 0.960 . S
H891 C827 0.980 . S
H892 C826 0.961 . S
H893 C826 0.961 . S
H894 C826 0.959 . S
H895 C829 0.932 . S
H896 C833 0.929 1_655 S
H897 C834 0.961 . S
H898 C834 0.959 . S
H899 C834 0.959 . S
H900 C835 0.960 . S
H901 C835 0.962 . S
H902 C835 0.961 . S
H903 C837 0.929 . S
H904 C840 0.930 . S
H905 C841 0.929 . S
H906 C844 0.930 . S
H907 C847 0.929 . S
H908 C848 0.930 . S
H909 C852 0.962 . S
H910 C852 0.959 . S
H911 C852 0.958 . S
C912 O939 1.312 . S
C912 O940 1.208 . S
C913 O934 1.331 1_655 S
C913 O937 1.244 . S
C914 O936 1.264 1_655 S
C914 O938 1.273 . S
Mg915 O917 1.936 . S
Mg915 O924 2.081 . S
Mg915 O926 2.023 . S
Mg915 O930 2.031 . S
Mg915 O939 2.291 . S
Mg916 O917 1.963 . S
Mg916 O927 1.942 . S
Mg916 O928 1.955 . S
Mg916 O935 1.986 . S
O917 Mg915 1.936 . S
O917 Mg916 1.963 . S
O917 Mg918 1.915 . S
Mg918 O917 1.915 . S
Mg918 O919 1.915 . S
Mg918 O923 2.013 . S
Mg918 O929 2.114 . S
Mg918 O933 2.013 . S
Mg918 O939 2.114 . S
O919 Mg918 1.915 . S
O919 Mg920 1.936 . S
O919 Mg921 1.963 1_455 S
Mg920 O919 1.936 . S
Mg920 O929 2.291 . S
Mg920 O934 2.081 . S
Mg920 O936 2.023 . S
Mg920 O940 2.031 . S
Mg921 O919 1.963 1_655 S
Mg921 O925 1.986 . S
Mg921 O937 1.942 . S
Mg921 O938 1.955 . S
C922 O933 1.191 . S
C922 O935 1.307 . S
O923 Mg918 2.013 . S
O923 C942 1.191 . S
O924 Mg915 2.081 . S
O924 C932 1.331 . S
O925 Mg921 1.986 . S
O925 C942 1.307 1_655 S
O926 Mg915 2.023 . S
O926 C941 1.264 . S
O927 Mg916 1.942 . S
O927 C932 1.244 . S
O928 Mg916 1.955 . S
O928 C941 1.273 . S
O929 Mg918 2.114 . S
O929 Mg920 2.291 . S
O929 C931 1.312 . S
O930 Mg915 2.031 . S
O930 C931 1.208 . S
C931 O929 1.312 . S
C931 O930 1.208 . S
C932 O924 1.331 . S
C932 O927 1.244 . S
O933 Mg918 2.013 . S
O933 C922 1.191 . S
O934 C913 1.331 1_455 S
O934 Mg920 2.081 . S
O935 Mg916 1.986 . S
O935 C922 1.307 . S
O936 C914 1.264 1_455 S
O936 Mg920 2.023 . S
O937 C913 1.244 . S
O937 Mg921 1.942 . S
O938 C914 1.273 . S
O938 Mg921 1.955 . S
O939 C912 1.312 . S
O939 Mg915 2.291 . S
O939 Mg918 2.114 . S
O940 C912 1.208 . S
O940 Mg920 2.031 . S
C941 O926 1.264 . S
C941 O928 1.273 . S
C942 O923 1.191 . S
C942 O925 1.307 1_455 S
C943 O970 1.312 . S
C943 O971 1.208 . S
C944 O965 1.331 . S
C944 O968 1.244 . S
C945 O967 1.264 . S
C945 O969 1.273 . S
Mg946 O948 1.936 . S
Mg946 O955 2.081 . S
Mg946 O957 2.023 . S
Mg946 O961 2.031 . S
Mg946 O970 2.291 . S
Mg947 O948 1.963 . S
Mg947 O958 1.942 . S
Mg947 O959 1.955 . S
Mg947 O966 1.986 . S
O948 Mg946 1.936 . S
O948 Mg947 1.963 . S
O948 Mg949 1.915 . S
Mg949 O948 1.915 . S
Mg949 O950 1.915 . S
Mg949 O954 2.013 . S
Mg949 O960 2.114 . S
Mg949 O964 2.013 . S
Mg949 O970 2.114 . S
O950 Mg949 1.915 . S
O950 Mg951 1.936 . S
O950 Mg952 1.963 . S
Mg951 O950 1.936 . S
Mg951 O960 2.291 . S
Mg951 O965 2.081 . S
Mg951 O967 2.023 . S
Mg951 O971 2.031 . S
Mg952 O950 1.963 . S
Mg952 O956 1.986 . S
Mg952 O968 1.942 . S
Mg952 O969 1.955 . S
C953 O964 1.191 . S
C953 O966 1.307 . S
O954 Mg949 2.013 . S
O954 C973 1.191 . S
O955 Mg946 2.081 . S
O955 C963 1.331 . S
O956 Mg952 1.986 . S
O956 C973 1.307 . S
O957 Mg946 2.023 . S
O957 C972 1.264 . S
O958 Mg947 1.942 . S
O958 C963 1.244 . S
O959 Mg947 1.955 . S
O959 C972 1.273 . S
O960 Mg949 2.114 . S
O960 Mg951 2.291 . S
O960 C962 1.312 . S
O961 Mg946 2.031 . S
O961 C962 1.208 . S
C962 O960 1.312 . S
C962 O961 1.208 . S
C963 O955 1.331 . S
C963 O958 1.244 . S
O964 Mg949 2.013 . S
O964 C953 1.191 . S
O965 C944 1.331 . S
O965 Mg951 2.081 . S
O966 Mg947 1.986 . S
O966 C953 1.307 . S
O967 C945 1.264 . S
O967 Mg951 2.023 . S
O968 C944 1.244 . S
O968 Mg952 1.942 . S
O969 C945 1.273 . S
O969 Mg952 1.955 . S
O970 C943 1.312 . S
O970 Mg946 2.291 . S
O970 Mg949 2.114 . S
O971 C943 1.208 . S
O971 Mg951 2.031 . S
C972 O957 1.264 . S
C972 O959 1.273 . S
C973 O954 1.191 . S
C973 O956 1.307 . S
C974 O1001 1.312 . S
C974 O1002 1.208 . S
C975 O996 1.331 . S
C975 O999 1.244 . S
C976 O998 1.264 . S
C976 O1000 1.273 . S
Mg977 O979 1.936 . S
Mg977 O986 2.081 . S
Mg977 O988 2.023 . S
Mg977 O992 2.031 . S
Mg977 O1001 2.291 . S
Mg978 O979 1.963 . S
Mg978 O989 1.942 . S
Mg978 O990 1.955 . S
Mg978 O997 1.986 . S
O979 Mg977 1.936 . S
O979 Mg978 1.963 . S
O979 Mg980 1.915 . S
Mg980 O979 1.915 . S
Mg980 O981 1.915 . S
Mg980 O985 2.013 . S
Mg980 O991 2.114 . S
Mg980 O995 2.013 . S
Mg980 O1001 2.114 . S
O981 Mg980 1.915 . S
O981 Mg982 1.936 . S
O981 Mg983 1.963 . S
Mg982 O981 1.936 . S
Mg982 O991 2.291 . S
Mg982 O996 2.081 . S
Mg982 O998 2.023 . S
Mg982 O1002 2.031 . S
Mg983 O981 1.963 . S
Mg983 O987 1.986 . S
Mg983 O999 1.942 . S
Mg983 O1000 1.955 . S
C984 O995 1.191 . S
C984 O997 1.307 . S
O985 Mg980 2.013 . S
O985 C1004 1.191 . S
O986 Mg977 2.081 . S
O986 C994 1.331 . S
O987 Mg983 1.986 . S
O987 C1004 1.307 . S
O988 Mg977 2.023 . S
O988 C1003 1.264 . S
O989 Mg978 1.942 . S
O989 C994 1.244 . S
O990 Mg978 1.955 . S
O990 C1003 1.273 . S
O991 Mg980 2.114 . S
O991 Mg982 2.291 . S
O991 C993 1.312 . S
O992 Mg977 2.031 . S
O992 C993 1.208 . S
C993 O991 1.312 . S
C993 O992 1.208 . S
C994 O986 1.331 . S
C994 O989 1.244 . S
O995 Mg980 2.013 . S
O995 C984 1.191 . S
O996 C975 1.331 . S
O996 Mg982 2.081 . S
O997 Mg978 1.986 . S
O997 C984 1.307 . S
O998 C976 1.264 . S
O998 Mg982 2.023 . S
O999 C975 1.244 . S
O999 Mg983 1.942 . S
O1000 C976 1.273 . S
O1000 Mg983 1.955 . S
O1001 C974 1.312 . S
O1001 Mg977 2.291 . S
O1001 Mg980 2.114 . S
O1002 C974 1.208 . S
O1002 Mg982 2.031 . S
C1003 O988 1.264 . S
C1003 O990 1.273 . S
C1004 O985 1.191 . S
C1004 O987 1.307 . S
C1005 O1032 1.312 . S
C1005 O1033 1.208 . S
C1006 O1027 1.331 . S
C1006 O1030 1.244 . S
C1007 O1029 1.264 . S
C1007 O1031 1.273 . S
Mg1008 O1010 1.936 . S
Mg1008 O1017 2.081 . S
Mg1008 O1019 2.023 . S
Mg1008 O1023 2.031 . S
Mg1008 O1032 2.291 . S
Mg1009 O1010 1.963 1_655 S
Mg1009 O1020 1.942 . S
Mg1009 O1021 1.955 . S
Mg1009 O1028 1.986 . S
O1010 Mg1008 1.936 . S
O1010 Mg1009 1.963 1_455 S
O1010 Mg1011 1.915 . S
Mg1011 O1010 1.915 . S
Mg1011 O1012 1.915 . S
Mg1011 O1016 2.013 . S
Mg1011 O1022 2.114 . S
Mg1011 O1026 2.013 . S
Mg1011 O1032 2.114 . S
O1012 Mg1011 1.915 . S
O1012 Mg1013 1.936 . S
O1012 Mg1014 1.963 . S
Mg1013 O1012 1.936 . S
Mg1013 O1022 2.291 . S
Mg1013 O1027 2.081 . S
Mg1013 O1029 2.023 . S
Mg1013 O1033 2.031 . S
Mg1014 O1012 1.963 . S
Mg1014 O1018 1.986 . S
Mg1014 O1030 1.942 . S
Mg1014 O1031 1.955 . S
C1015 O1026 1.191 . S
C1015 O1028 1.307 1_455 S
O1016 Mg1011 2.013 . S
O1016 C1035 1.191 . S
O1017 Mg1008 2.081 . S
O1017 C1025 1.331 1_455 S
O1018 Mg1014 1.986 . S
O1018 C1035 1.307 . S
O1019 Mg1008 2.023 . S
O1019 C1034 1.264 1_455 S
O1020 Mg1009 1.942 . S
O1020 C1025 1.244 . S
O1021 Mg1009 1.955 . S
O1021 C1034 1.273 . S
O1022 Mg1011 2.114 . S
O1022 Mg1013 2.291 . S
O1022 C1024 1.312 . S
O1023 Mg1008 2.031 . S
O1023 C1024 1.208 . S
C1024 O1022 1.312 . S
C1024 O1023 1.208 . S
C1025 O1017 1.331 1_655 S
C1025 O1020 1.244 . S
O1026 Mg1011 2.013 . S
O1026 C1015 1.191 . S
O1027 C1006 1.331 . S
O1027 Mg1013 2.081 . S
O1028 Mg1009 1.986 . S
O1028 C1015 1.307 1_655 S
O1029 C1007 1.264 . S
O1029 Mg1013 2.023 . S
O1030 C1006 1.244 . S
O1030 Mg1014 1.942 . S
O1031 C1007 1.273 . S
O1031 Mg1014 1.955 . S
O1032 C1005 1.312 . S
O1032 Mg1008 2.291 . S
O1032 Mg1011 2.114 . S
O1033 C1005 1.208 . S
O1033 Mg1013 2.031 . S
C1034 O1019 1.264 1_655 S
C1034 O1021 1.273 . S
C1035 O1016 1.191 . S
C1035 O1018 1.307 . S
H1036 C1042 0.930 . S
H1037 C1046 0.930 . S
H1038 C1051 0.929 . S
H1039 C1049 0.929 . S
H1040 C1044 0.929 . S
H1041 C1050 0.929 . S
C1042 H1036 0.930 . S
C1042 C1043 1.367 . S
C1042 C1050 1.378 . S
C1043 C1042 1.367 . S
C1043 C1051 1.433 . S
C1044 H1040 0.929 . S
C1044 C1046 1.378 . S
C1044 C1048 1.350 . S
C1045 C1048 1.463 . S
C1045 C1050 1.350 . S
C1045 N1053 1.427 . S
C1046 H1037 0.930 . S
C1046 C1044 1.378 . S
C1046 C1047 1.367 . S
C1047 C1046 1.367 . S
C1047 C1049 1.433 . S
C1048 C1044 1.350 . S
C1048 C1045 1.463 . S
C1048 N1052 1.427 . S
C1049 H1039 0.929 . S
C1049 C1047 1.433 . S
C1049 N1052 1.384 . S
C1050 H1041 0.929 . S
C1050 C1042 1.378 . S
C1050 C1045 1.350 . S
C1051 H1038 0.929 . S
C1051 C1043 1.433 . S
C1051 N1053 1.384 . S
N1052 C1048 1.427 . S
N1052 C1049 1.384 . S
N1053 C1045 1.427 . S
N1053 C1051 1.384 . S
H1054 C1060 0.930 . S
H1055 C1064 0.930 . S
H1056 C1069 0.929 . S
H1057 C1067 0.929 . S
H1058 C1062 0.929 . S
H1059 C1068 0.929 . S
C1060 H1054 0.930 . S
C1060 C1061 1.367 . S
C1060 C1068 1.378 . S
C1061 C1060 1.367 . S
C1061 C1069 1.433 . S
C1062 H1058 0.929 . S
C1062 C1064 1.378 . S
C1062 C1066 1.350 . S
C1063 C1066 1.463 1_565 S
C1063 C1068 1.350 . S
C1063 N1071 1.427 . S
C1064 H1055 0.930 . S
C1064 C1062 1.378 . S
C1064 C1065 1.367 . S
C1065 C1064 1.367 . S
C1065 C1067 1.433 . S
C1066 C1062 1.350 . S
C1066 C1063 1.463 1_545 S
C1066 N1070 1.427 . S
C1067 H1057 0.929 . S
C1067 C1065 1.433 . S
C1067 N1070 1.384 . S
C1068 H1059 0.929 . S
C1068 C1060 1.378 . S
C1068 C1063 1.350 . S
C1069 H1056 0.929 . S
C1069 C1061 1.433 . S
C1069 N1071 1.384 . S
N1070 C1066 1.427 . S
N1070 C1067 1.384 . S
N1071 C1063 1.427 . S
N1071 C1069 1.384 . S
H1072 C1078 0.930 . S
H1073 C1082 0.930 . S
H1074 C1087 0.929 . S
H1075 C1085 0.929 . S
H1076 C1080 0.929 . S
H1077 C1086 0.929 . S
C1078 H1072 0.930 . S
C1078 C1079 1.367 . S
C1078 C1086 1.378 . S
C1079 C1078 1.367 . S
C1079 C1087 1.433 . S
C1080 H1076 0.929 . S
C1080 C1082 1.378 . S
C1080 C1084 1.350 . S
C1081 C1084 1.463 . S
C1081 C1086 1.350 . S
C1081 N1089 1.427 . S
C1082 H1073 0.930 . S
C1082 C1080 1.378 . S
C1082 C1083 1.367 . S
C1083 C1082 1.367 . S
C1083 C1085 1.433 . S
C1084 C1080 1.350 . S
C1084 C1081 1.463 . S
C1084 N1088 1.427 . S
C1085 H1075 0.929 . S
C1085 C1083 1.433 . S
C1085 N1088 1.384 . S
C1086 H1077 0.929 . S
C1086 C1078 1.378 . S
C1086 C1081 1.350 . S
C1087 H1074 0.929 . S
C1087 C1079 1.433 . S
C1087 N1089 1.384 . S
N1088 C1084 1.427 . S
N1088 C1085 1.384 . S
N1089 C1081 1.427 . S
N1089 C1087 1.384 . S
H1090 C1096 0.930 . S
H1091 C1100 0.930 . S
H1092 C1105 0.929 . S
H1093 C1103 0.929 . S
H1094 C1098 0.929 . S
H1095 C1104 0.929 . S
C1096 H1090 0.930 . S
C1096 C1097 1.367 . S
C1096 C1104 1.378 . S
C1097 C1096 1.367 . S
C1097 C1105 1.433 . S
C1098 H1094 0.929 . S
C1098 C1100 1.378 . S
C1098 C1102 1.350 . S
C1099 C1102 1.463 . S
C1099 C1104 1.350 1_565 S
C1099 N1107 1.427 . S
C1100 H1091 0.930 . S
C1100 C1098 1.378 . S
C1100 C1101 1.367 . S
C1101 C1100 1.367 . S
C1101 C1103 1.433 . S
C1102 C1098 1.350 . S
C1102 C1099 1.463 . S
C1102 N1106 1.427 . S
C1103 H1093 0.929 . S
C1103 C1101 1.433 . S
C1103 N1106 1.384 . S
C1104 H1095 0.929 . S
C1104 C1096 1.378 . S
C1104 C1099 1.350 1_545 S
C1105 H1092 0.929 . S
C1105 C1097 1.433 . S
C1105 N1107 1.384 1_545 S
N1106 C1102 1.427 . S
N1106 C1103 1.384 . S
N1107 C1099 1.427 . S
N1107 C1105 1.384 1_565 S
H1108 C1114 0.930 . S
H1109 C1118 0.930 . S
H1110 C1123 0.929 . S
H1111 C1121 0.929 . S
H1112 C1116 0.929 . S
H1113 C1122 0.929 . S
C1114 H1108 0.930 . S
C1114 C1115 1.367 . S
C1114 C1122 1.378 . S
C1115 C1114 1.367 . S
C1115 C1123 1.433 . S
C1116 H1112 0.929 . S
C1116 C1118 1.378 . S
C1116 C1120 1.350 . S
C1117 C1120 1.463 . S
C1117 C1122 1.350 . S
C1117 N1125 1.427 . S
C1118 H1109 0.930 . S
C1118 C1116 1.378 . S
C1118 C1119 1.367 . S
C1119 C1118 1.367 . S
C1119 C1121 1.433 . S
C1120 C1116 1.350 . S
C1120 C1117 1.463 . S
C1120 N1124 1.427 . S
C1121 H1111 0.929 . S
C1121 C1119 1.433 . S
C1121 N1124 1.384 . S
C1122 H1113 0.929 . S
C1122 C1114 1.378 . S
C1122 C1117 1.350 . S
C1123 H1110 0.929 . S
C1123 C1115 1.433 . S
C1123 N1125 1.384 . S
N1124 C1120 1.427 . S
N1124 C1121 1.384 . S
N1125 C1117 1.427 . S
N1125 C1123 1.384 . S
H1126 C1132 0.930 . S
H1127 C1136 0.930 . S
H1128 C1141 0.929 . S
H1129 C1139 0.929 . S
H1130 C1134 0.929 . S
H1131 C1140 0.929 . S
C1132 H1126 0.930 . S
C1132 C1133 1.367 . S
C1132 C1140 1.378 . S
C1133 C1132 1.367 . S
C1133 C1141 1.433 . S
C1134 H1130 0.929 . S
C1134 C1136 1.378 . S
C1134 C1138 1.350 . S
C1135 C1138 1.463 . S
C1135 C1140 1.350 1_545 S
C1135 N1143 1.427 . S
C1136 H1127 0.930 . S
C1136 C1134 1.378 . S
C1136 C1137 1.367 . S
C1137 C1136 1.367 . S
C1137 C1139 1.433 . S
C1138 C1134 1.350 . S
C1138 C1135 1.463 . S
C1138 N1142 1.427 . S
C1139 H1129 0.929 . S
C1139 C1137 1.433 . S
C1139 N1142 1.384 . S
C1140 H1131 0.929 . S
C1140 C1132 1.378 . S
C1140 C1135 1.350 1_565 S
C1141 H1128 0.929 . S
C1141 C1133 1.433 . S
C1141 N1143 1.384 1_565 S
N1142 C1138 1.427 . S
N1142 C1139 1.384 . S
N1143 C1135 1.427 . S
N1143 C1141 1.384 1_545 S
H1144 C1150 0.930 . S
H1145 C1154 0.930 . S
H1146 C1159 0.929 . S
H1147 C1157 0.929 . S
H1148 C1152 0.929 . S
H1149 C1158 0.929 . S
C1150 H1144 0.930 . S
C1150 C1151 1.367 . S
C1150 C1158 1.378 . S
C1151 C1150 1.367 . S
C1151 C1159 1.433 . S
C1152 H1148 0.929 . S
C1152 C1154 1.378 . S
C1152 C1156 1.350 . S
C1153 C1156 1.463 . S
C1153 C1158 1.350 . S
C1153 N1161 1.427 . S
C1154 H1145 0.930 . S
C1154 C1152 1.378 . S
C1154 C1155 1.367 . S
C1155 C1154 1.367 . S
C1155 C1157 1.433 . S
C1156 C1152 1.350 . S
C1156 C1153 1.463 . S
C1156 N1160 1.427 . S
C1157 H1147 0.929 . S
C1157 C1155 1.433 . S
C1157 N1160 1.384 . S
C1158 H1149 0.929 . S
C1158 C1150 1.378 . S
C1158 C1153 1.350 . S
C1159 H1146 0.929 . S
C1159 C1151 1.433 . S
C1159 N1161 1.384 . S
N1160 C1156 1.427 . S
N1160 C1157 1.384 . S
N1161 C1153 1.427 . S
N1161 C1159 1.384 . S
H1162 C1168 0.930 . S
H1163 C1172 0.930 . S
H1164 C1177 0.929 . S
H1165 C1175 0.929 . S
H1166 C1170 0.929 . S
H1167 C1176 0.929 . S
C1168 H1162 0.930 . S
C1168 C1169 1.367 . S
C1168 C1176 1.378 . S
C1169 C1168 1.367 . S
C1169 C1177 1.433 . S
C1170 H1166 0.929 . S
C1170 C1172 1.378 . S
C1170 C1174 1.350 . S
C1171 C1174 1.463 1_545 S
C1171 C1176 1.350 . S
C1171 N1179 1.427 . S
C1172 H1163 0.930 . S
C1172 C1170 1.378 . S
C1172 C1173 1.367 . S
C1173 C1172 1.367 . S
C1173 C1175 1.433 . S
C1174 C1170 1.350 . S
C1174 C1171 1.463 1_565 S
C1174 N1178 1.427 . S
C1175 H1165 0.929 . S
C1175 C1173 1.433 . S
C1175 N1178 1.384 . S
C1176 H1167 0.929 . S
C1176 C1168 1.378 . S
C1176 C1171 1.350 . S
C1177 H1164 0.929 . S
C1177 C1169 1.433 . S
C1177 N1179 1.384 . S
N1178 C1174 1.427 . S
N1178 C1175 1.384 . S
N1179 C1171 1.427 . S
N1179 C1177 1.384 . S
H1180 C1186 0.930 . S
H1181 C1190 0.930 . S
H1182 C1195 0.929 . S
H1183 C1193 0.929 . S
H1184 C1188 0.929 . S
H1185 C1194 0.929 . S
C1186 H1180 0.930 . S
C1186 C1187 1.367 . S
C1186 C1194 1.378 . S
C1187 C1186 1.367 . S
C1187 C1195 1.433 . S
C1188 H1184 0.929 . S
C1188 C1190 1.378 . S
C1188 C1192 1.350 . S
C1189 C1192 1.463 . S
C1189 C1194 1.350 . S
C1189 N1197 1.427 . S
C1190 H1181 0.930 . S
C1190 C1188 1.378 . S
C1190 C1191 1.367 . S
C1191 C1190 1.367 . S
C1191 C1193 1.433 . S
C1192 C1188 1.350 . S
C1192 C1189 1.463 . S
C1192 N1196 1.427 . S
C1193 H1183 0.929 . S
C1193 C1191 1.433 . S
C1193 N1196 1.384 . S
C1194 H1185 0.929 . S
C1194 C1186 1.378 . S
C1194 C1189 1.350 . S
C1195 H1182 0.929 . S
C1195 C1187 1.433 . S
C1195 N1197 1.384 . S
N1196 C1192 1.427 . S
N1196 C1193 1.384 . S
N1197 C1189 1.427 . S
N1197 C1195 1.384 . S
H1198 C1204 0.930 . S
H1199 C1208 0.930 . S
H1200 C1213 0.929 . S
H1201 C1211 0.929 . S
H1202 C1206 0.929 . S
H1203 C1212 0.929 . S
C1204 H1198 0.930 . S
C1204 C1205 1.367 . S
C1204 C1212 1.378 . S
C1205 C1204 1.367 . S
C1205 C1213 1.433 . S
C1206 H1202 0.929 . S
C1206 C1208 1.378 . S
C1206 C1210 1.350 . S
C1207 C1210 1.463 . S
C1207 C1212 1.350 . S
C1207 N1215 1.427 . S
C1208 H1199 0.930 . S
C1208 C1206 1.378 . S
C1208 C1209 1.367 . S
C1209 C1208 1.367 . S
C1209 C1211 1.433 . S
C1210 C1206 1.350 . S
C1210 C1207 1.463 . S
C1210 N1214 1.427 . S
C1211 H1201 0.929 . S
C1211 C1209 1.433 . S
C1211 N1214 1.384 . S
C1212 H1203 0.929 . S
C1212 C1204 1.378 . S
C1212 C1207 1.350 . S
C1213 H1200 0.929 . S
C1213 C1205 1.433 . S
C1213 N1215 1.384 . S
N1214 C1210 1.427 . S
N1214 C1211 1.384 . S
N1215 C1207 1.427 . S
N1215 C1213 1.384 . S
H1216 C1222 0.930 . S
H1217 C1226 0.930 . S
H1218 C1231 0.929 . S
H1219 C1229 0.929 . S
H1220 C1224 0.929 . S
H1221 C1230 0.929 . S
C1222 H1216 0.930 . S
C1222 C1223 1.367 . S
C1222 C1230 1.378 . S
C1223 C1222 1.367 . S
C1223 C1231 1.433 . S
C1224 H1220 0.929 . S
C1224 C1226 1.378 . S
C1224 C1228 1.350 . S
C1225 C1228 1.463 . S
C1225 C1230 1.350 . S
C1225 N1233 1.427 . S
C1226 H1217 0.930 . S
C1226 C1224 1.378 . S
C1226 C1227 1.367 1_655 S
C1227 C1226 1.367 1_455 S
C1227 C1229 1.433 . S
C1228 C1224 1.350 . S
C1228 C1225 1.463 . S
C1228 N1232 1.427 . S
C1229 H1219 0.929 . S
C1229 C1227 1.433 . S
C1229 N1232 1.384 1_455 S
C1230 H1221 0.929 . S
C1230 C1222 1.378 . S
C1230 C1225 1.350 . S
C1231 H1218 0.929 . S
C1231 C1223 1.433 . S
C1231 N1233 1.384 . S
N1232 C1228 1.427 . S
N1232 C1229 1.384 1_655 S
N1233 C1225 1.427 . S
N1233 C1231 1.384 . S
H1234 C1240 0.930 . S
H1235 C1244 0.930 . S
H1236 C1249 0.935 . S
H1237 C1247 0.929 . S
H1238 C1242 0.929 . S
H1239 C1248 0.929 . S
C1240 H1234 0.930 . S
C1240 C1241 1.367 . S
C1240 C1248 1.378 . S
C1241 C1240 1.367 . S
C1241 C1249 1.433 . S
C1242 H1238 0.929 . S
C1242 C1244 1.378 1_655 S
C1242 C1246 1.350 . S
C1243 C1246 1.463 . S
C1243 C1248 1.350 . S
C1243 N1251 1.427 . S
C1244 H1235 0.930 . S
C1244 C1242 1.378 1_455 S
C1244 C1245 1.367 . S
C1245 C1244 1.367 . S
C1245 C1247 1.433 1_455 S
C1246 C1242 1.350 . S
C1246 C1243 1.463 . S
C1246 N1250 1.427 . S
C1247 H1237 0.929 . S
C1247 C1245 1.433 1_655 S
C1247 N1250 1.384 . S
C1248 H1239 0.929 . S
C1248 C1240 1.378 . S
C1248 C1243 1.350 . S
C1249 H1236 0.935 . S
C1249 C1241 1.433 . S
C1249 N1251 1.384 . S
N1250 C1246 1.427 . S
N1250 C1247 1.384 . S
N1251 C1243 1.427 . S
N1251 C1249 1.384 . S
H1252 C1258 0.930 . S
H1253 C1262 0.930 . S
H1254 C1267 0.929 . S
H1255 C1265 0.929 . S
H1256 C1260 0.929 . S
H1257 C1266 0.929 . S
C1258 H1252 0.930 . S
C1258 C1259 1.367 . S
C1258 C1266 1.378 . S
C1259 C1258 1.367 . S
C1259 C1267 1.433 . S
C1260 H1256 0.929 . S
C1260 C1262 1.378 . S
C1260 C1264 1.350 . S
C1261 C1264 1.463 . S
C1261 C1266 1.350 . S
C1261 N1269 1.427 . S
C1262 H1253 0.930 . S
C1262 C1260 1.378 . S
C1262 C1263 1.367 . S
C1263 C1262 1.367 . S
C1263 C1265 1.433 . S
C1264 C1260 1.350 . S
C1264 C1261 1.463 . S
C1264 N1268 1.427 . S
C1265 H1255 0.929 . S
C1265 C1263 1.433 . S
C1265 N1268 1.384 . S
C1266 H1257 0.929 . S
C1266 C1258 1.378 . S
C1266 C1261 1.350 . S
C1267 H1254 0.929 . S
C1267 C1259 1.433 . S
C1267 N1269 1.384 . S
N1268 C1264 1.427 . S
N1268 C1265 1.384 . S
N1269 C1261 1.427 . S
N1269 C1267 1.384 . S
H1270 C1276 0.930 . S
H1271 C1280 0.930 . S
H1272 C1285 0.929 . S
H1273 C1283 0.929 . S
H1274 C1278 0.929 . S
H1275 C1284 0.929 . S
C1276 H1270 0.930 . S
C1276 C1277 1.367 . S
C1276 C1284 1.378 . S
C1277 C1276 1.367 . S
C1277 C1285 1.433 . S
C1278 H1274 0.929 . S
C1278 C1280 1.378 . S
C1278 C1282 1.350 1_455 S
C1279 C1282 1.463 . S
C1279 C1284 1.350 . S
C1279 N1287 1.427 . S
C1280 H1271 0.930 . S
C1280 C1278 1.378 . S
C1280 C1281 1.367 . S
C1281 C1280 1.367 . S
C1281 C1283 1.433 1_455 S
C1282 C1278 1.350 1_655 S
C1282 C1279 1.463 . S
C1282 N1286 1.427 . S
C1283 H1273 0.929 . S
C1283 C1281 1.433 1_655 S
C1283 N1286 1.384 . S
C1284 H1275 0.929 . S
C1284 C1276 1.378 . S
C1284 C1279 1.350 . S
C1285 H1272 0.929 . S
C1285 C1277 1.433 . S
C1285 N1287 1.384 . S
N1286 C1282 1.427 . S
N1286 C1283 1.384 . S
N1287 C1279 1.427 . S
N1287 C1285 1.384 . S
H1288 C1294 0.930 . S
H1289 C1298 0.930 . S
H1290 C1303 0.929 . S
H1291 C1301 0.929 . S
H1292 C1296 0.929 . S
H1293 C1302 0.929 . S
C1294 H1288 0.930 . S
C1294 C1295 1.367 . S
C1294 C1302 1.378 . S
C1295 C1294 1.367 . S
C1295 C1303 1.433 . S
C1296 H1292 0.929 . S
C1296 C1298 1.378 1_655 S
C1296 C1300 1.350 . S
C1297 C1300 1.463 . S
C1297 C1302 1.350 . S
C1297 N1305 1.427 . S
C1298 H1289 0.930 . S
C1298 C1296 1.378 1_455 S
C1298 C1299 1.367 . S
C1299 C1298 1.367 . S
C1299 C1301 1.433 1_455 S
C1300 C1296 1.350 . S
C1300 C1297 1.463 . S
C1300 N1304 1.427 . S
C1301 H1291 0.929 . S
C1301 C1299 1.433 1_655 S
C1301 N1304 1.384 . S
C1302 H1293 0.929 . S
C1302 C1294 1.378 . S
C1302 C1297 1.350 . S
C1303 H1290 0.929 . S
C1303 C1295 1.433 . S
C1303 N1305 1.384 . S
N1304 C1300 1.427 . S
N1304 C1301 1.384 . S
N1305 C1297 1.427 . S
N1305 C1303 1.384 . S
H1306 C1312 0.930 . S
H1307 C1316 0.930 . S
H1308 C1321 0.951 . S
H1309 C1319 0.929 . S
H1310 C1314 0.929 . S
H1311 C1320 0.929 . S
C1312 H1306 0.930 . S
C1312 C1313 1.367 . S
C1312 C1320 1.378 . S
C1313 C1312 1.367 . S
C1313 C1321 1.433 . S
C1314 H1310 0.929 . S
C1314 C1316 1.378 . S
C1314 C1318 1.350 . S
C1315 C1318 1.463 . S
C1315 C1320 1.350 . S
C1315 N1323 1.427 . S
C1316 H1307 0.930 . S
C1316 C1314 1.378 . S
C1316 C1317 1.367 . S
C1317 C1316 1.367 . S
C1317 C1319 1.433 . S
C1318 C1314 1.350 . S
C1318 C1315 1.463 . S
C1318 N1322 1.427 . S
C1319 H1309 0.929 . S
C1319 C1317 1.433 . S
C1319 N1322 1.384 . S
C1320 H1311 0.929 . S
C1320 C1312 1.378 . S
C1320 C1315 1.350 . S
C1321 H1308 0.951 . S
C1321 C1313 1.433 . S
C1321 N1323 1.384 . S
N1322 C1318 1.427 . S
N1322 C1319 1.384 . S
N1323 C1315 1.427 . S
N1323 C1321 1.384 . S
H1324 C1330 0.930 . S
H1325 C1334 0.930 . S
H1326 C1339 0.929 . S
H1327 C1337 0.929 . S
H1328 C1332 0.929 . S
H1329 C1338 0.929 . S
C1330 H1324 0.930 . S
C1330 C1331 1.367 . S
C1330 C1338 1.378 . S
C1331 C1330 1.367 . S
C1331 C1339 1.433 . S
C1332 H1328 0.929 . S
C1332 C1334 1.378 . S
C1332 C1336 1.350 . S
C1333 C1336 1.463 . S
C1333 C1338 1.350 . S
C1333 N1341 1.427 . S
C1334 H1325 0.930 . S
C1334 C1332 1.378 . S
C1334 C1335 1.367 . S
C1335 C1334 1.367 . S
C1335 C1337 1.433 . S
C1336 C1332 1.350 . S
C1336 C1333 1.463 . S
C1336 N1340 1.427 . S
C1337 H1327 0.929 . S
C1337 C1335 1.433 . S
C1337 N1340 1.384 . S
C1338 H1329 0.929 . S
C1338 C1330 1.378 . S
C1338 C1333 1.350 . S
C1339 H1326 0.929 . S
C1339 C1331 1.433 . S
C1339 N1341 1.384 . S
N1340 C1336 1.427 . S
N1340 C1337 1.384 . S
N1341 C1333 1.427 . S
N1341 C1339 1.384 . S
H1342 C1348 0.930 . S
H1343 C1352 0.930 . S
H1344 C1357 0.929 . S
H1345 C1355 0.929 . S
H1346 C1350 0.929 . S
H1347 C1356 0.929 . S
C1348 H1342 0.930 . S
C1348 C1349 1.367 . S
C1348 C1356 1.378 . S
C1349 C1348 1.367 . S
C1349 C1357 1.433 . S
C1350 H1346 0.929 . S
C1350 C1352 1.378 . S
C1350 C1354 1.350 . S
C1351 C1354 1.463 . S
C1351 C1356 1.350 . S
C1351 N1359 1.427 . S
C1352 H1343 0.930 . S
C1352 C1350 1.378 . S
C1352 C1353 1.367 . S
C1353 C1352 1.367 . S
C1353 C1355 1.433 . S
C1354 C1350 1.350 . S
C1354 C1351 1.463 . S
C1354 N1358 1.427 . S
C1355 H1345 0.929 . S
C1355 C1353 1.433 . S
C1355 N1358 1.384 . S
C1356 H1347 0.929 . S
C1356 C1348 1.378 . S
C1356 C1351 1.350 . S
C1357 H1344 0.929 . S
C1357 C1349 1.433 . S
C1357 N1359 1.384 . S
N1358 C1354 1.427 . S
N1358 C1355 1.384 . S
N1359 C1351 1.427 . S
N1359 C1357 1.384 . S
H1360 C1366 0.930 . S
H1361 C1370 0.930 . S
H1362 C1375 0.929 . S
H1363 C1373 0.929 . S
H1364 C1368 0.929 . S
H1365 C1374 0.929 . S
C1366 H1360 0.930 . S
C1366 C1367 1.367 . S
C1366 C1374 1.378 . S
C1367 C1366 1.367 . S
C1367 C1375 1.433 . S
C1368 H1364 0.929 . S
C1368 C1370 1.378 . S
C1368 C1372 1.350 . S
C1369 C1372 1.463 . S
C1369 C1374 1.350 . S
C1369 N1377 1.427 . S
C1370 H1361 0.930 . S
C1370 C1368 1.378 . S
C1370 C1371 1.367 . S
C1371 C1370 1.367 . S
C1371 C1373 1.433 . S
C1372 C1368 1.350 . S
C1372 C1369 1.463 . S
C1372 N1376 1.427 . S
C1373 H1363 0.929 . S
C1373 C1371 1.433 . S
C1373 N1376 1.384 . S
C1374 H1365 0.929 . S
C1374 C1366 1.378 . S
C1374 C1369 1.350 . S
C1375 H1362 0.929 . S
C1375 C1367 1.433 . S
C1375 N1377 1.384 . S
N1376 C1372 1.427 . S
N1376 C1373 1.384 . S
N1377 C1369 1.427 . S
N1377 C1375 1.384 . S
H1378 C1384 0.930 . S
H1379 C1388 0.930 . S
H1380 C1393 0.929 . S
H1381 C1391 0.929 . S
H1382 C1386 0.929 . S
H1383 C1392 0.929 . S
C1384 H1378 0.930 . S
C1384 C1385 1.367 . S
C1384 C1392 1.378 . S
C1385 C1384 1.367 . S
C1385 C1393 1.433 . S
C1386 H1382 0.929 . S
C1386 C1388 1.378 . S
C1386 C1390 1.350 . S
C1387 C1390 1.463 . S
C1387 C1392 1.350 . S
C1387 N1395 1.427 . S
C1388 H1379 0.930 . S
C1388 C1386 1.378 . S
C1388 C1389 1.367 . S
C1389 C1388 1.367 . S
C1389 C1391 1.433 . S
C1390 C1386 1.350 . S
C1390 C1387 1.463 . S
C1390 N1394 1.427 . S
C1391 H1381 0.929 . S
C1391 C1389 1.433 . S
C1391 N1394 1.384 . S
C1392 H1383 0.929 . S
C1392 C1384 1.378 . S
C1392 C1387 1.350 . S
C1393 H1380 0.929 . S
C1393 C1385 1.433 . S
C1393 N1395 1.384 . S
N1394 C1390 1.427 . S
N1394 C1391 1.384 . S
N1395 C1387 1.427 . S
N1395 C1393 1.384 . S
H1396 C1402 0.930 . S
H1397 C1406 0.930 . S
H1398 C1411 0.929 . S
H1399 C1409 0.929 . S
H1400 C1404 0.929 . S
H1401 C1410 0.929 . S
C1402 H1396 0.930 . S
C1402 C1403 1.367 . S
C1402 C1410 1.378 . S
C1403 C1402 1.367 . S
C1403 C1411 1.433 . S
C1404 H1400 0.929 . S
C1404 C1406 1.378 . S
C1404 C1408 1.350 . S
C1405 C1408 1.463 . S
C1405 C1410 1.350 . S
C1405 N1413 1.427 . S
C1406 H1397 0.930 . S
C1406 C1404 1.378 . S
C1406 C1407 1.367 . S
C1407 C1406 1.367 . S
C1407 C1409 1.433 . S
C1408 C1404 1.350 . S
C1408 C1405 1.463 . S
C1408 N1412 1.427 . S
C1409 H1399 0.929 . S
C1409 C1407 1.433 . S
C1409 N1412 1.384 . S
C1410 H1401 0.929 . S
C1410 C1402 1.378 . S
C1410 C1405 1.350 . S
C1411 H1398 0.929 . S
C1411 C1403 1.433 . S
C1411 N1413 1.384 . S
N1412 C1408 1.427 . S
N1412 C1409 1.384 . S
N1413 C1405 1.427 . S
N1413 C1411 1.384 . S
H1414 C1420 0.930 . S
H1415 C1424 0.930 . S
H1416 C1429 0.929 . S
H1417 C1427 0.929 . S
H1418 C1422 0.929 . S
H1419 C1428 0.929 . S
C1420 H1414 0.930 . S
C1420 C1421 1.367 . S
C1420 C1428 1.378 . S
C1421 C1420 1.367 . S
C1421 C1429 1.433 . S
C1422 H1418 0.929 . S
C1422 C1424 1.378 . S
C1422 C1426 1.350 . S
C1423 C1426 1.463 . S
C1423 C1428 1.350 . S
C1423 N1431 1.427 . S
C1424 H1415 0.930 . S
C1424 C1422 1.378 . S
C1424 C1425 1.367 . S
C1425 C1424 1.367 . S
C1425 C1427 1.433 . S
C1426 C1422 1.350 . S
C1426 C1423 1.463 . S
C1426 N1430 1.427 . S
C1427 H1417 0.929 . S
C1427 C1425 1.433 . S
C1427 N1430 1.384 . S
C1428 H1419 0.929 . S
C1428 C1420 1.378 . S
C1428 C1423 1.350 . S
C1429 H1416 0.929 . S
C1429 C1421 1.433 . S
C1429 N1431 1.384 . S
N1430 C1426 1.427 . S
N1430 C1427 1.384 . S
N1431 C1423 1.427 . S
N1431 C1429 1.384 . S
H1432 C1438 0.930 . S
H1433 C1442 0.930 . S
H1434 C1447 0.929 . S
H1435 C1445 0.929 . S
H1436 C1440 0.929 . S
H1437 C1446 0.929 . S
C1438 H1432 0.930 . S
C1438 C1439 1.367 . S
C1438 C1446 1.378 . S
C1439 C1438 1.367 . S
C1439 C1447 1.433 . S
C1440 H1436 0.929 . S
C1440 C1442 1.378 . S
C1440 C1444 1.350 . S
C1441 C1444 1.463 . S
C1441 C1446 1.350 . S
C1441 N1449 1.427 . S
C1442 H1433 0.930 . S
C1442 C1440 1.378 . S
C1442 C1443 1.367 . S
C1443 C1442 1.367 . S
C1443 C1445 1.433 . S
C1444 C1440 1.350 . S
C1444 C1441 1.463 . S
C1444 N1448 1.427 . S
C1445 H1435 0.929 . S
C1445 C1443 1.433 . S
C1445 N1448 1.384 . S
C1446 H1437 0.929 . S
C1446 C1438 1.378 . S
C1446 C1441 1.350 . S
C1447 H1434 0.929 . S
C1447 C1439 1.433 . S
C1447 N1449 1.384 . S
N1448 C1444 1.427 . S
N1448 C1445 1.384 . S
N1449 C1441 1.427 . S
N1449 C1447 1.384 . S
H1450 C1456 0.930 . S
H1451 C1460 0.930 . S
H1452 C1465 0.929 . S
H1453 C1463 0.929 . S
H1454 C1458 0.929 . S
H1455 C1464 0.929 . S
C1456 H1450 0.930 . S
C1456 C1457 1.367 . S
C1456 C1464 1.378 . S
C1457 C1456 1.367 . S
C1457 C1465 1.433 . S
C1458 H1454 0.929 . S
C1458 C1460 1.378 . S
C1458 C1462 1.350 . S
C1459 C1462 1.463 . S
C1459 C1464 1.350 . S
C1459 N1467 1.427 . S
C1460 H1451 0.930 . S
C1460 C1458 1.378 . S
C1460 C1461 1.367 . S
C1461 C1460 1.367 . S
C1461 C1463 1.433 . S
C1462 C1458 1.350 . S
C1462 C1459 1.463 . S
C1462 N1466 1.427 . S
C1463 H1453 0.929 . S
C1463 C1461 1.433 . S
C1463 N1466 1.384 . S
C1464 H1455 0.929 . S
C1464 C1456 1.378 . S
C1464 C1459 1.350 . S
C1465 H1452 0.929 . S
C1465 C1457 1.433 . S
C1465 N1467 1.384 . S
N1466 C1462 1.427 . S
N1466 C1463 1.384 . S
N1467 C1459 1.427 . S
N1467 C1465 1.384 . S
H1468 C1474 0.930 . S
H1469 C1478 0.930 . S
H1470 C1483 0.929 . S
H1471 C1481 0.929 . S
H1472 C1476 0.929 . S
H1473 C1482 0.929 . S
C1474 H1468 0.930 . S
C1474 C1475 1.367 . S
C1474 C1482 1.378 . S
C1475 C1474 1.367 . S
C1475 C1483 1.433 . S
C1476 H1472 0.929 . S
C1476 C1478 1.378 . S
C1476 C1480 1.350 . S
C1477 C1480 1.463 . S
C1477 C1482 1.350 . S
C1477 N1485 1.427 . S
C1478 H1469 0.930 . S
C1478 C1476 1.378 . S
C1478 C1479 1.367 . S
C1479 C1478 1.367 . S
C1479 C1481 1.433 . S
C1480 C1476 1.350 . S
C1480 C1477 1.463 . S
C1480 N1484 1.427 . S
C1481 H1471 0.929 . S
C1481 C1479 1.433 . S
C1481 N1484 1.384 . S
C1482 H1473 0.929 . S
C1482 C1474 1.378 . S
C1482 C1477 1.350 . S
C1483 H1470 0.929 . S
C1483 C1475 1.433 . S
C1483 N1485 1.384 . S
N1484 C1480 1.427 . S
N1484 C1481 1.384 . S
N1485 C1477 1.427 . S
N1485 C1483 1.384 . S
H1486 C1492 0.930 . S
H1487 C1496 0.930 . S
H1488 C1501 0.929 . S
H1489 C1499 0.929 . S
H1490 C1494 0.929 . S
H1491 C1500 0.929 . S
C1492 H1486 0.930 . S
C1492 C1493 1.367 . S
C1492 C1500 1.378 . S
C1493 C1492 1.367 . S
C1493 C1501 1.433 . S
C1494 H1490 0.929 . S
C1494 C1496 1.378 . S
C1494 C1498 1.350 . S
C1495 C1498 1.463 . S
C1495 C1500 1.350 . S
C1495 N1503 1.427 . S
C1496 H1487 0.930 . S
C1496 C1494 1.378 . S
C1496 C1497 1.367 . S
C1497 C1496 1.367 . S
C1497 C1499 1.433 . S
C1498 C1494 1.350 . S
C1498 C1495 1.463 . S
C1498 N1502 1.427 . S
C1499 H1489 0.929 . S
C1499 C1497 1.433 . S
C1499 N1502 1.384 . S
C1500 H1491 0.929 . S
C1500 C1492 1.378 . S
C1500 C1495 1.350 . S
C1501 H1488 0.929 . S
C1501 C1493 1.433 . S
C1501 N1503 1.384 . S
N1502 C1498 1.427 . S
N1502 C1499 1.384 . S
N1503 C1495 1.427 . S
N1503 C1501 1.384 . S
H1504 C1510 0.930 . S
H1505 C1514 0.930 . S
H1506 C1519 0.929 . S
H1507 C1517 0.929 . S
H1508 C1512 0.929 . S
H1509 C1518 0.929 . S
C1510 H1504 0.930 . S
C1510 C1511 1.367 . S
C1510 C1518 1.378 . S
C1511 C1510 1.367 . S
C1511 C1519 1.433 . S
C1512 H1508 0.929 . S
C1512 C1514 1.378 . S
C1512 C1516 1.350 . S
C1513 C1516 1.463 . S
C1513 C1518 1.350 . S
C1513 N1521 1.427 . S
C1514 H1505 0.930 . S
C1514 C1512 1.378 . S
C1514 C1515 1.367 . S
C1515 C1514 1.367 . S
C1515 C1517 1.433 . S
C1516 C1512 1.350 . S
C1516 C1513 1.463 . S
C1516 N1520 1.427 . S
C1517 H1507 0.929 . S
C1517 C1515 1.433 . S
C1517 N1520 1.384 . S
C1518 H1509 0.929 . S
C1518 C1510 1.378 . S
C1518 C1513 1.350 . S
C1519 H1506 0.929 . S
C1519 C1511 1.433 . S
C1519 N1521 1.384 . S
N1520 C1516 1.427 . S
N1520 C1517 1.384 . S
N1521 C1513 1.427 . S
N1521 C1519 1.384 . S
H1522 C1528 0.930 . S
H1523 C1532 0.930 . S
H1524 C1537 0.929 . S
H1525 C1535 0.929 . S
H1526 C1530 0.929 . S
H1527 C1536 0.929 . S
C1528 H1522 0.930 . S
C1528 C1529 1.367 . S
C1528 C1536 1.378 . S
C1529 C1528 1.367 . S
C1529 C1537 1.433 . S
C1530 H1526 0.929 . S
C1530 C1532 1.378 . S
C1530 C1534 1.350 . S
C1531 C1534 1.463 . S
C1531 C1536 1.350 . S
C1531 N1539 1.427 . S
C1532 H1523 0.930 . S
C1532 C1530 1.378 . S
C1532 C1533 1.367 . S
C1533 C1532 1.367 . S
C1533 C1535 1.433 . S
C1534 C1530 1.350 . S
C1534 C1531 1.463 . S
C1534 N1538 1.427 . S
C1535 H1525 0.929 . S
C1535 C1533 1.433 . S
C1535 N1538 1.384 . S
C1536 H1527 0.929 . S
C1536 C1528 1.378 . S
C1536 C1531 1.350 . S
C1537 H1524 0.929 . S
C1537 C1529 1.433 . S
C1537 N1539 1.384 . S
N1538 C1534 1.427 . S
N1538 C1535 1.384 . S
N1539 C1531 1.427 . S
N1539 C1537 1.384 . S
H1540 C1546 0.930 . S
H1541 C1550 0.930 . S
H1542 C1555 0.929 . S
H1543 C1553 0.929 . S
H1544 C1548 0.929 . S
H1545 C1554 0.929 . S
C1546 H1540 0.930 . S
C1546 C1547 1.367 . S
C1546 C1554 1.378 . S
C1547 C1546 1.367 . S
C1547 C1555 1.433 . S
C1548 H1544 0.929 . S
C1548 C1550 1.378 . S
C1548 C1552 1.350 . S
C1549 C1552 1.463 . S
C1549 C1554 1.350 . S
C1549 N1557 1.427 . S
C1550 H1541 0.930 . S
C1550 C1548 1.378 . S
C1550 C1551 1.367 . S
C1551 C1550 1.367 . S
C1551 C1553 1.433 . S
C1552 C1548 1.350 . S
C1552 C1549 1.463 . S
C1552 N1556 1.427 . S
C1553 H1543 0.929 . S
C1553 C1551 1.433 . S
C1553 N1556 1.384 . S
C1554 H1545 0.929 . S
C1554 C1546 1.378 . S
C1554 C1549 1.350 . S
C1555 H1542 0.929 . S
C1555 C1547 1.433 . S
C1555 N1557 1.384 . S
N1556 C1552 1.427 . S
N1556 C1553 1.384 . S
N1557 C1549 1.427 . S
N1557 C1555 1.384 . S
H1558 C1564 0.930 . S
H1559 C1568 0.930 . S
H1560 C1573 0.929 . S
H1561 C1571 0.929 . S
H1562 C1566 0.929 . S
H1563 C1572 0.929 . S
C1564 H1558 0.930 . S
C1564 C1565 1.367 . S
C1564 C1572 1.378 . S
C1565 C1564 1.367 . S
C1565 C1573 1.433 . S
C1566 H1562 0.929 . S
C1566 C1568 1.378 . S
C1566 C1570 1.350 . S
C1567 C1570 1.463 . S
C1567 C1572 1.350 . S
C1567 N1575 1.427 . S
C1568 H1559 0.930 . S
C1568 C1566 1.378 . S
C1568 C1569 1.367 . S
C1569 C1568 1.367 . S
C1569 C1571 1.433 . S
C1570 C1566 1.350 . S
C1570 C1567 1.463 . S
C1570 N1574 1.427 . S
C1571 H1561 0.929 . S
C1571 C1569 1.433 . S
C1571 N1574 1.384 . S
C1572 H1563 0.929 . S
C1572 C1564 1.378 . S
C1572 C1567 1.350 . S
C1573 H1560 0.929 . S
C1573 C1565 1.433 . S
C1573 N1575 1.384 . S
N1574 C1570 1.427 . S
N1574 C1571 1.384 . S
N1575 C1567 1.427 . S
N1575 C1573 1.384 . S
H1576 C1582 0.930 . S
H1577 C1586 0.930 . S
H1578 C1591 0.929 . S
H1579 C1589 0.929 . S
H1580 C1584 0.929 . S
H1581 C1590 0.929 . S
C1582 H1576 0.930 . S
C1582 C1583 1.367 . S
C1582 C1590 1.378 . S
C1583 C1582 1.367 . S
C1583 C1591 1.433 . S
C1584 H1580 0.929 . S
C1584 C1586 1.378 . S
C1584 C1588 1.350 . S
C1585 C1588 1.463 . S
C1585 C1590 1.350 . S
C1585 N1593 1.427 . S
C1586 H1577 0.930 . S
C1586 C1584 1.378 . S
C1586 C1587 1.367 . S
C1587 C1586 1.367 . S
C1587 C1589 1.433 . S
C1588 C1584 1.350 . S
C1588 C1585 1.463 . S
C1588 N1592 1.427 . S
C1589 H1579 0.929 . S
C1589 C1587 1.433 . S
C1589 N1592 1.384 . S
C1590 H1581 0.929 . S
C1590 C1582 1.378 . S
C1590 C1585 1.350 . S
C1591 H1578 0.929 . S
C1591 C1583 1.433 . S
C1591 N1593 1.384 . S
N1592 C1588 1.427 . S
N1592 C1589 1.384 . S
N1593 C1585 1.427 . S
N1593 C1591 1.384 . S
H1594 C1600 0.930 . S
H1595 C1604 0.930 . S
H1596 C1609 0.929 . S
H1597 C1607 0.929 . S
H1598 C1602 0.929 . S
H1599 C1608 0.929 . S
C1600 H1594 0.930 . S
C1600 C1601 1.367 . S
C1600 C1608 1.378 . S
C1601 C1600 1.367 . S
C1601 C1609 1.433 . S
C1602 H1598 0.929 . S
C1602 C1604 1.378 . S
C1602 C1606 1.350 . S
C1603 C1606 1.463 . S
C1603 C1608 1.350 . S
C1603 N1611 1.427 . S
C1604 H1595 0.930 . S
C1604 C1602 1.378 . S
C1604 C1605 1.367 . S
C1605 C1604 1.367 . S
C1605 C1607 1.433 . S
C1606 C1602 1.350 . S
C1606 C1603 1.463 . S
C1606 N1610 1.427 . S
C1607 H1597 0.929 . S
C1607 C1605 1.433 . S
C1607 N1610 1.384 . S
C1608 H1599 0.929 . S
C1608 C1600 1.378 . S
C1608 C1603 1.350 . S
C1609 H1596 0.929 . S
C1609 C1601 1.433 . S
C1609 N1611 1.384 . S
N1610 C1606 1.427 . S
N1610 C1607 1.384 . S
N1611 C1603 1.427 . S
N1611 C1609 1.384 . S
C1047 C972 1.881 . S
C1043 C11 1.316 . S
C1061 C143 1.361 . S
C1065 C975 1.762 . S
C1079 C283 1.306 . S
C1083 C1006 1.834 . S
C1101 C941 1.720 . S
C1097 C343 1.486 . S
C1119 C976 1.938 . S
C1115 C55 1.416 . S
C1137 C1007 1.702 . S
C1133 C115 1.473 . S
C1155 C932 1.775 . S
C1151 C239 1.246 . S
C1173 C963 1.784 . S
C1169 C371 1.390 . S
C1187 C29 0.983 . S
C1191 C993 1.076 . S
C1205 C467 0.722 . S
C1209 C962 1.173 . S
C1223 C229 0.826 . S
C1227 C922 0.964 . S
C1245 C1015 1.226 . S
C1241 C625 0.962 . S
C1263 C943 1.028 . S
C1259 C1 0.830 . S
C1277 C511 0.966 . S
C1281 C942 1.215 . S
C1295 C257 0.910 . S
C1299 C1035 1.026 . S
C1317 C974 1.184 . S
C1313 C581 0.739 . S
C1331 C713 1.467 . S
C1335 C1034 1.842 . S
C1349 C485 1.362 . S
C1353 C913 1.749 . S
C1367 C799 1.401 . S
C1371 C944 1.638 . S
C1385 C571 1.488 . S
C1389 C1003 1.690 . S
C1407 C914 1.732 . S
C1403 C685 1.515 . S
C1421 C457 1.476 . S
C1425 C945 1.685 . S
C1439 C827 1.338 . S
C1443 C994 1.735 . S
C1461 C1025 1.759 . S
C1457 C599 1.373 . S
C1475 C695 0.715 . S
C1479 C931 1.217 . S
C1493 C125 0.717 . S
C1497 C1024 1.202 . S
C1511 C853 0.989 . S
C1515 C984 1.221 . S
C1533 C953 1.255 . S
C1529 C397 0.989 . S
C1551 C1005 1.247 . S
C1547 C739 1.010 . S
C1569 C1004 1.238 . S
C1565 C169 0.995 . S
C1587 C973 1.181 . S
C1583 C809 0.725 . S
C1605 C912 1.217 . S
C1601 C353 0.754 . S
