# Generated by pormake.
# Topology tsx, (6,3)-cn, num edge types: 1
# Building blocks:
#     Node 0, Type 0, BuildingBlock: LEVNOQ01_clean_sbu_1, # of connection points: 6
#     Node 1, Type 0, BuildingBlock: LEVNOQ01_clean_sbu_1, # of connection points: 6
#     Node 2, Type 1, BuildingBlock: CUQRIR_clean_linker_1, # of connection points: 3
#     Node 3, Type 1, BuildingBlock: CUQRIR_clean_linker_1, # of connection points: 3
#     Node 4, Type 1, BuildingBlock: CUQRIR_clean_linker_1, # of connection points: 3
#     Node 5, Type 1, BuildingBlock: CUQRIR_clean_linker_1, # of connection points: 3
#     Edge 6, Type (0, 1), BuildingBlock: ZUJKAS_clean_linker_0, # of connection points: 2
#     Edge 7, Type (0, 1), BuildingBlock: ZUJKAS_clean_linker_0, # of connection points: 2
#     Edge 8, Type (0, 1), BuildingBlock: ZUJKAS_clean_linker_0, # of connection points: 2
#     Edge 9, Type (0, 1), BuildingBlock: ZUJKAS_clean_linker_0, # of connection points: 2
#     Edge 10, Type (0, 1), BuildingBlock: ZUJKAS_clean_linker_0, # of connection points: 2
#     Edge 11, Type (0, 1), BuildingBlock: ZUJKAS_clean_linker_0, # of connection points: 2
#     Edge 12, Type (0, 1), BuildingBlock: ZUJKAS_clean_linker_0, # of connection points: 2
#     Edge 13, Type (0, 1), BuildingBlock: ZUJKAS_clean_linker_0, # of connection points: 2
#     Edge 14, Type (0, 1), BuildingBlock: ZUJKAS_clean_linker_0, # of connection points: 2
#     Edge 15, Type (0, 1), BuildingBlock: ZUJKAS_clean_linker_0, # of connection points: 2
#     Edge 16, Type (0, 1), BuildingBlock: ZUJKAS_clean_linker_0, # of connection points: 2
#     Edge 17, Type (0, 1), BuildingBlock: ZUJKAS_clean_linker_0, # of connection points: 2
# Relax obj value: 0.159
# Max RMSD: 0.179
# Mean RMSD: 0.164
data_MOF--net-tsx--node1-LEVNOQ01_clean_sbu_1--node2-CUQRIR_clean_linker_1--edge1-ZUJKAS_clean_linker_0
_symmetry_space_group_name_H-M    P1
_symmetry_Int_Tables_number       1
_symmetry_cell_setting            triclinic
loop_
_symmetry_equiv_pos_as_xyz
'x, y, z'
_cell_length_a     22.838874
_cell_length_b     27.298286
_cell_length_c     42.101052
_cell_angle_alpha  87.305816
_cell_angle_beta   90.312372
_cell_angle_gamma 90.839725
loop_
_atom_site_label
_atom_site_type_symbol
_atom_site_fract_x
_atom_site_fract_y
_atom_site_fract_z
_atom_type_partial_charge
O0 O 0.17791 0.01438 0.07576 0.0
Mg1 Mg 0.21511 0.04201 0.03261 0.0
O2 O 0.08746 0.02597 0.05831 0.0
Mg3 Mg 0.10317 0.04175 0.00386 0.0
O4 O 0.17635 0.10234 0.01079 0.0
O5 O 0.26389 0.1036 0.03538 0.0
O6 O 0.12952 0.06406 0.95004 0.0
O7 O 0.03776 0.10631 0.00357 0.0
Mg8 Mg 0.04407 0.017 0.96089 0.0
O9 O 0.02423 0.98146 0.00259 0.0
O10 O 0.1132 0.992 0.93266 0.0
O11 O 0.01039 0.08985 0.95505 0.0
O12 O 0.97668 0.9697 0.95668 0.0
C13 C 0.21554 0.96058 0.99677 0.0
C14 C 0.12321 0.01351 0.08056 0.0
C15 C 0.22367 0.12602 0.01896 0.0
C16 C 0.13743 0.03345 0.92869 0.0
C17 C 0.00911 0.1179 0.97825 0.0
C18 C 0.98332 0.95944 0.98665 0.0
O19 O 0.25409 0.99161 0.00402 0.0
O20 O 0.16157 0.97117 -0.00072 0.0
O21 O 0.64778 0.51256 0.5693 0.0
Mg22 Mg 0.67671 0.54724 0.52593 0.0
O23 O 0.55617 0.53267 0.55922 0.0
Mg24 Mg 0.56501 0.55131 0.50486 0.0
O25 O 0.63971 0.61238 0.51096 0.0
O26 O 0.73001 0.60532 0.53201 0.0
O27 O 0.57805 0.56939 0.45048 0.0
O28 O 0.50424 0.62043 0.51077 0.0
Mg29 Mg 0.45042 0.5433 0.46865 0.0
O30 O 0.48895 0.49373 0.49966 0.0
O31 O 0.49347 0.56007 0.42569 0.0
O32 O 0.41612 0.60175 0.49228 0.0
O33 O 0.4061 0.4787 0.4726 0.0
C34 C 0.67242 0.47001 0.48904 0.0
C35 C 0.59493 0.51446 0.57802 0.0
C36 C 0.68965 0.63223 0.51904 0.0
C37 C 0.54751 0.57073 0.42504 0.0
C38 C 0.45019 0.63072 0.50629 0.0
C39 C 0.4443 0.46522 0.49385 0.0
O40 O 0.71106 0.50287 0.49186 0.0
O41 O 0.61993 0.47894 0.49704 0.0
C42 C 0.99458 0.99829 0.45405 0.0
N43 N 0.02503 0.97055 0.43422 0.0
N44 N 0.94516 0.01527 0.43978 0.0
C45 C 0.01301 0.00959 0.48721 0.0
C46 C 0.94665 0.9969 0.41053 0.0
N47 N 0.99482 0.96934 0.4072 0.0
C48 C 0.90649 0.01249 0.38357 0.0
H49 H 0.97522 0.0222 0.50082 0.0
H50 H 0.04662 0.03931 0.48611 0.0
H51 H 0.03222 0.97676 0.49957 0.0
H52 H 0.92759 0.04317 0.36945 0.0
H53 H 0.86392 0.02506 0.39247 0.0
H54 H 0.89868 0.98181 0.36764 0.0
C55 C 0.97575 0.11498 0.56231 0.0
N56 N 0.01142 0.13271 0.58506 0.0
N57 N 0.93594 0.08273 0.57527 0.0
C58 C 0.97911 0.12931 0.52755 0.0
C59 C 0.94856 0.0816 0.60673 0.0
N60 N 0.99386 0.11224 0.61268 0.0
C61 C 0.92089 0.04666 0.63116 0.0
H62 H 0.9927 0.16838 0.524 0.0
H63 H 0.93613 0.12325 0.51598 0.0
H64 H 0.01199 0.10654 0.51619 0.0
H65 H 0.95288 0.01794 0.63831 0.0
H66 H 0.88071 0.02897 0.62181 0.0
H67 H 0.90962 0.06633 0.65269 0.0
C68 C 0.50536 0.47536 0.95152 0.0
N69 N 0.53156 0.44477 0.93172 0.0
N70 N 0.45658 0.49473 0.93787 0.0
C71 C 0.52787 0.4878 0.98377 0.0
C72 C 0.45413 0.47491 0.90905 0.0
N73 N 0.49952 0.4444 0.90529 0.0
C74 C 0.41382 0.49221 0.88255 0.0
H75 H 0.49236 0.50269 -0.00188 0.0
H76 H 0.56275 0.51634 0.98101 0.0
H77 H 0.54656 0.45494 0.99635 0.0
H78 H 0.43476 0.52385 0.86929 0.0
H79 H 0.37142 0.50421 0.89197 0.0
H80 H 0.40557 0.46277 0.86574 0.0
C81 C 0.49592 0.60378 0.06021 0.0
N82 N 0.5304 0.62395 0.08251 0.0
N83 N 0.45789 0.57077 0.0739 0.0
C84 C 0.50006 0.6152 0.02511 0.0
C85 C 0.47068 0.57134 0.1053 0.0
N86 N 0.51432 0.60399 0.11053 0.0
C87 C 0.44362 0.53763 0.13063 0.0
H88 H 0.51288 0.65417 0.02015 0.0
H89 H 0.45762 0.60743 0.01349 0.0
H90 H 0.53366 0.59164 0.01494 0.0
H91 H 0.47859 0.51693 0.14353 0.0
H92 H 0.41148 0.51158 0.12069 0.0
H93 H 0.42097 0.55971 0.14814 0.0
H94 H 0.14137 0.19651 0.00368 0.0
H95 H 0.15973 0.28552 0.99592 0.0
H96 H 0.3452 0.26175 0.00716 0.0
H97 H 0.32748 0.17429 0.01462 0.0
H98 H 0.20985 0.34132 0.04138 0.0
H99 H 0.34522 0.36186 0.93387 0.0
H100 H 0.29999 0.30795 0.9424 0.0
H101 H 0.37277 0.31263 0.95901 0.0
C102 C 0.18604 0.21042 0.00371 0.0
C103 C 0.23296 0.17856 0.01003 0.0
C104 C 0.19647 0.26113 -0.00074 0.0
C105 C 0.25397 0.28025 0.00034 0.0
C106 C 0.30065 0.24796 0.0053 0.0
H107 H 0.48332 0.47653 0.06822 0.0
H108 H 0.42232 0.41394 0.04347 0.0
C109 C 0.29032 0.19784 0.01002 0.0
C110 C 0.26626 0.33369 0.00114 0.0
H111 H 0.37083 0.41753 0.97672 0.0
C112 C 0.24329 0.35895 0.02645 0.0
C113 C 0.30966 0.35685 0.98154 0.0
C114 C 0.33274 0.33345 0.95248 0.0
C115 C 0.26742 0.40418 0.03488 0.0
C116 C 0.31535 0.42443 0.01742 0.0
C117 C 0.33433 0.40165 0.99023 0.0
C118 C 0.35247 0.46373 0.03021 0.0
C119 C 0.24531 0.42779 0.06411 0.0
C120 C 0.33343 0.51236 0.03065 0.0
C121 C 0.36868 0.54809 0.04445 0.0
C122 C 0.42265 0.5352 0.05828 0.0
C123 C 0.44166 0.48675 0.05765 0.0
C124 C 0.40704 0.45134 0.0435 0.0
H125 H 0.20874 0.40651 0.07564 0.0
H126 H 0.28148 0.43131 0.08163 0.0
H127 H 0.22979 0.46526 0.05755 0.0
H128 H 0.29142 0.52249 0.02048 0.0
H129 H 0.35368 0.58551 0.04483 0.0
H130 H 0.14625 0.8785 0.99012 0.0
H131 H 0.17894 0.79483 0.98171 0.0
H132 H 0.35775 0.8472 0.97566 0.0
H133 H 0.32591 0.93028 0.98443 0.0
H134 H 0.24296 0.75522 0.93224 0.0
H135 H 0.36506 0.73923 0.04623 0.0
H136 H 0.3127 0.78702 0.03757 0.0
H137 H 0.38603 0.7926 0.02224 0.0
C138 C 0.19248 0.8722 0.98678 0.0
C139 C 0.23356 0.91095 0.98834 0.0
C140 C 0.21105 0.8244 0.98206 0.0
C141 C 0.27089 0.8147 0.97889 0.0
C142 C 0.31153 0.85368 0.97894 0.0
H143 H 0.5039 0.58481 0.93982 0.0
H144 H 0.45274 0.66093 0.95023 0.0
C145 C 0.29315 0.90124 0.98375 0.0
C146 C 0.29154 0.76398 0.97562 0.0
H147 H 0.38631 0.67977 0.00813 0.0
C148 C 0.27365 0.73835 0.94903 0.0
C149 C 0.33127 0.74197 -0.00228 0.0
C150 C 0.34946 0.7664 0.02772 0.0
C151 C 0.29688 0.69229 0.9431 0.0
C152 C 0.33849 0.67139 0.96449 0.0
C153 C 0.35471 0.69617 0.99167 0.0
C154 C 0.36848 0.62525 0.95815 0.0
C155 C 0.27871 0.66715 0.91338 0.0
C156 C 0.33798 0.5802 0.9593 0.0
C157 C 0.36722 0.53693 0.95331 0.0
C158 C 0.42724 0.53826 0.94647 0.0
C159 C 0.45772 0.58323 0.94554 0.0
C160 C 0.42851 0.62648 0.95122 0.0
H161 H 0.25275 0.69146 0.89694 0.0
H162 H 0.31783 0.65475 0.9006 0.0
H163 H 0.2516 0.63422 0.92 0.0
H164 H 0.29172 0.57855 0.96483 0.0
H165 H 0.3431 0.50249 0.9537 0.0
H166 H 0.97064 0.93616 0.05075 0.0
H167 H 0.89659 0.88063 0.07575 0.0
H168 H 0.83031 0.84685 0.9831 0.0
H169 H 0.90293 0.90171 0.95813 0.0
H170 H 0.7443 0.87731 0.02752 0.0
H171 H 0.88594 0.72656 0.07584 0.0
H172 H 0.90544 0.78867 0.08464 0.0
H173 H 0.91042 0.76955 0.0446 0.0
C174 C 0.94062 0.91645 0.03577 0.0
C175 C 0.94251 0.92355 0.00246 0.0
C176 C 0.89849 0.88477 0.05007 0.0
C177 C 0.85812 0.85973 0.03119 0.0
C178 C 0.86095 0.866 -0.00195 0.0
H179 H 0.62395 0.61578 0.04451 0.0
H180 H 0.70417 0.67575 0.03615 0.0
C181 C 0.90264 0.89744 0.98383 0.0
C182 C 0.81096 0.82818 0.0453 0.0
H183 H 0.78401 0.71494 0.08043 0.0
C184 C 0.75281 0.8421 0.03956 0.0
C185 C 0.82254 0.78224 0.0607 0.0
C186 C 0.88437 0.76541 0.06679 0.0
C187 C 0.7058 0.81047 0.04769 0.0
C188 C 0.71735 0.76397 0.06243 0.0
C189 C 0.77545 0.7507 0.0692 0.0
C190 C 0.66997 0.72728 0.06867 0.0
C191 C 0.6444 0.82603 0.03894 0.0
C192 C 0.62456 0.7363 0.08986 0.0
C193 C 0.57846 0.70246 0.09418 0.0
C194 C 0.57734 0.65911 0.07754 0.0
C195 C 0.62339 0.64959 0.05693 0.0
C196 C 0.66938 0.68345 0.05251 0.0
H197 H 0.64415 0.85862 0.0221 0.0
H198 H 0.61975 0.79571 0.02801 0.0
H199 H 0.62091 0.83557 0.06075 0.0
H200 H 0.62466 0.76956 0.1029 0.0
H201 H 0.5434 0.71013 0.11034 0.0
H202 H 0.97626 0.17841 0.02561 0.0
H203 H 0.90292 0.2435 0.02157 0.0
H204 H 0.88075 0.21932 0.92171 0.0
H205 H 0.95403 0.15557 0.92532 0.0
H206 H 0.88153 0.3172 0.93384 0.0
H207 H 0.72785 0.21211 0.01434 0.0
H208 H 0.79869 0.22559 0.03082 0.0
H209 H 0.79245 0.1851 -0.00149 0.0
C210 C 0.95631 0.18749 0.00274 0.0
C211 C 0.97059 0.16133 0.9759 0.0
C212 C 0.91408 0.22442 0.0005 0.0
C213 C 0.88547 0.23563 0.97144 0.0
C214 C 0.90192 0.21121 0.94441 0.0
H215 H 0.54583 0.3487 0.92423 0.0
H216 H 0.6347 0.30093 0.93485 0.0
C217 C 0.94384 0.17454 0.94659 0.0
C218 C 0.83646 0.27096 0.96888 0.0
H219 H 0.69494 0.28713 0.99172 0.0
C220 C 0.84092 0.31098 0.94675 0.0
C221 C 0.78317 0.26234 0.98538 0.0
C222 C 0.77472 0.2188 0.00842 0.0
C223 C 0.79328 0.34198 0.94018 0.0
C224 C 0.73997 0.33323 0.95661 0.0
C225 C 0.7359 0.29386 0.97923 0.0
C226 C 0.68687 0.36281 0.94956 0.0
C227 C 0.79968 0.38249 0.91473 0.0
C228 C 0.68667 0.41347 0.95412 0.0
C229 C 0.63608 0.44069 0.94779 0.0
C230 C 0.58463 0.41759 0.93724 0.0
C231 C 0.58506 0.36713 0.93237 0.0
C232 C 0.6356 0.33993 0.9386 0.0
H233 H 0.83812 0.37703 0.89929 0.0
H234 H 0.75982 0.38493 0.89955 0.0
H235 H 0.80584 0.41803 0.92614 0.0
H236 H 0.72544 0.43188 0.96285 0.0
H237 H 0.63724 0.47977 0.95098 0.0
H238 H 0.61152 0.70765 0.50776 0.0
H239 H 0.63484 0.79622 0.50348 0.0
H240 H 0.81844 0.76455 0.51472 0.0
H241 H 0.79595 0.67743 0.51881 0.0
H242 H 0.69096 0.84935 0.55039 0.0
H243 H 0.82094 0.86483 0.44038 0.0
H244 H 0.77242 0.81323 0.44956 0.0
H245 H 0.84569 0.81461 0.46568 0.0
C246 C 0.65684 0.71975 0.50877 0.0
C247 C 0.70183 0.68551 0.51375 0.0
C248 C 0.6701 0.77026 0.50632 0.0
C249 C 0.72854 0.787 0.50815 0.0
C250 C 0.77322 0.75263 0.5124 0.0
H251 H 0.96537 0.98966 0.56834 0.0
H252 H 0.90495 0.92493 0.54555 0.0
C253 C 0.76011 0.70266 0.51511 0.0
C254 C 0.74396 0.84 0.50906 0.0
H255 H 0.84715 0.92272 0.48102 0.0
C256 C 0.72359 0.8662 0.53459 0.0
C257 C 0.7864 0.86208 0.48835 0.0
C258 C 0.8071 0.83732 0.45926 0.0
C259 C 0.74871 0.91174 0.54175 0.0
C260 C 0.79499 0.9315 0.52274 0.0
C261 C 0.8119 0.9073 0.49568 0.0
C262 C 0.8323 0.97242 0.5335 0.0
C263 C 0.72908 0.93652 0.57107 0.0
C264 C 0.81182 0.0207 0.53371 0.0
C265 C 0.84683 0.05777 0.54634 0.0
C266 C 0.90216 0.04665 0.55914 0.0
C267 C 0.92281 0.99866 0.5584 0.0
C268 C 0.88845 0.96195 0.54541 0.0
H269 H 0.69466 0.91499 0.5843 0.0
H270 H 0.76698 0.94209 0.58721 0.0
H271 H 0.71144 0.97318 0.56415 0.0
H272 H 0.76866 0.02947 0.52452 0.0
H273 H 0.83033 0.0947 0.54693 0.0
H274 H 0.6071 0.38438 0.49264 0.0
H275 H 0.6428 0.30078 0.48675 0.0
H276 H 0.81393 0.35928 0.46246 0.0
H277 H 0.77913 0.44233 0.46825 0.0
H278 H 0.70258 0.25633 0.43324 0.0
H279 H 0.84033 0.26432 0.54182 0.0
H280 H 0.78092 0.30602 0.53341 0.0
H281 H 0.85046 0.31583 0.51416 0.0
C282 C 0.6521 0.37943 0.48561 0.0
C283 C 0.69043 0.42002 0.48125 0.0
C284 C 0.67242 0.33168 0.48237 0.0
C285 C 0.73129 0.32395 0.47486 0.0
C286 C 0.76865 0.36448 0.46891 0.0
H287 H 0.98289 0.10829 0.44079 0.0
H288 H 0.92419 0.18043 0.45117 0.0
C289 C 0.74853 0.41197 0.4721 0.0
C290 C 0.75494 0.27379 0.4739 0.0
H291 H 0.86083 0.20027 0.50699 0.0
C292 C 0.73648 0.24358 0.44962 0.0
C293 C 0.79895 0.25732 0.49547 0.0
C294 C 0.81855 0.28732 0.52289 0.0
C295 C 0.76345 0.19842 0.4452 0.0
C296 C 0.80931 0.18303 0.46593 0.0
C297 C 0.82586 0.2123 0.49105 0.0
C298 C 0.8441 0.13888 0.46041 0.0
C299 C 0.7448 0.16871 0.41746 0.0
C300 C 0.81866 0.09168 0.46251 0.0
C301 C 0.85223 0.05065 0.45647 0.0
C302 C 0.91159 0.05643 0.44865 0.0
C303 C 0.9372 0.1034 0.44711 0.0
C304 C 0.90371 0.14436 0.45286 0.0
H305 H 0.71594 0.18969 0.4006 0.0
H306 H 0.78364 0.15653 0.40435 0.0
H307 H 0.7204 0.13548 0.42643 0.0
H308 H 0.77294 0.08663 0.4687 0.0
H309 H 0.83199 0.01451 0.45753 0.0
H310 H 0.41816 0.37721 0.47066 0.0
H311 H 0.36153 0.31196 0.49844 0.0
H312 H 0.38041 0.38639 0.58606 0.0
H313 H 0.43849 0.45163 0.55827 0.0
H314 H 0.36896 0.24992 0.56439 0.0
H315 H 0.20163 0.39626 0.54933 0.0
H316 H 0.26725 0.39763 0.5256 0.0
H317 H 0.27153 0.41066 0.56689 0.0
C318 C 0.41288 0.37828 0.49618 0.0
C319 C 0.4325 0.41923 0.5124 0.0
C320 C 0.3804 0.34109 0.51201 0.0
C321 C 0.36632 0.34474 0.54415 0.0
C322 C 0.39106 0.38299 0.56122 0.0
H323 H 0.03796 0.21392 0.61642 0.0
H324 H 0.12836 0.2634 0.6122 0.0
C325 C 0.4245 0.42 0.54542 0.0
C326 C 0.31699 0.31461 0.55726 0.0
H327 H 0.1684 0.31745 0.56457 0.0
C328 C 0.32518 0.26469 0.56505 0.0
C329 C 0.26002 0.33412 0.55799 0.0
C330 C 0.249 0.38754 0.54945 0.0
C331 C 0.27741 0.23342 0.57296 0.0
C332 C 0.21991 0.25239 0.57186 0.0
C333 C 0.21229 0.30278 0.56528 0.0
C334 C 0.16671 0.22064 0.57579 0.0
C335 C 0.28917 0.18046 0.58237 0.0
C336 C 0.15766 0.18053 0.5565 0.0
C337 C 0.10648 0.15197 0.55928 0.0
C338 C 0.06272 0.16369 0.58082 0.0
C339 C 0.07124 0.20421 0.59971 0.0
C340 C 0.12278 0.23238 0.59729 0.0
H341 H 0.33353 0.1762 0.59303 0.0
H342 H 0.25633 0.1653 0.59968 0.0
H343 H 0.28735 0.15849 0.56087 0.0
H344 H 0.18996 0.17148 0.53907 0.0
H345 H 0.10151 0.12026 0.54498 0.0
H346 H 0.49814 0.72042 0.48999 0.0
H347 H 0.44303 0.79687 0.48292 0.0
H348 H 0.29268 0.72546 0.52723 0.0
H349 H 0.34716 0.64949 0.53396 0.0
H350 H 0.34275 0.79442 0.44413 0.0
H351 H 0.2865 0.86332 0.56139 0.0
H352 H 0.34756 0.82324 0.55582 0.0
H353 H 0.27439 0.79838 0.5597 0.0
C354 C 0.45437 0.72193 0.49965 0.0
C355 C 0.42688 0.67929 0.5127 0.0
C356 C 0.42273 0.76543 0.49533 0.0
C357 C 0.36376 0.76695 0.50464 0.0
C358 C 0.33833 0.72553 0.52036 0.0
H359 H 0.04875 0.87607 0.42567 0.0
H360 H 0.13897 0.8327 0.44067 0.0
C361 C 0.36951 0.68208 0.52424 0.0
C362 C 0.32546 0.80766 0.49324 0.0
H363 H 0.21962 0.88401 0.5181 0.0
C364 C 0.31681 0.81489 0.4603 0.0
C365 C 0.29166 0.83444 0.51427 0.0
C366 C 0.30086 0.82984 0.54977 0.0
C367 C 0.2727 0.84575 0.44795 0.0
C368 C 0.23613 0.86971 0.46909 0.0
C369 C 0.24727 0.86509 0.50192 0.0
C370 C 0.18366 0.89689 0.45776 0.0
C371 C 0.26445 0.85139 0.4124 0.0
C372 C 0.17907 0.9473 0.46218 0.0
C373 C 0.12782 0.97202 0.45334 0.0
C374 C 0.07994 0.9465 0.44059 0.0
C375 C 0.08521 0.89639 0.43539 0.0
C376 C 0.13659 0.87174 0.44396 0.0
H377 H 0.30468 0.84171 0.39952 0.0
H378 H 0.22849 0.82649 0.40509 0.0
H379 H 0.25232 0.88954 0.40508 0.0
H380 H 0.21499 0.9674 0.47264 0.0
H381 H 0.12543 0.01098 0.45666 0.0
H382 H 0.16418 0.93737 0.11684 0.0
H383 H 0.13907 0.91398 0.17178 0.0
H384 H 0.01391 0.03104 0.17178 0.0
H385 H 0.03658 0.05242 0.11589 0.0
H386 H 0.15879 0.9631 0.22004 0.0
H387 H 0.92034 0.92763 0.21747 0.0
H388 H 0.96306 0.93432 0.18159 0.0
H389 H 0.93704 0.98764 0.20062 0.0
C390 C 0.13031 0.95734 0.12841 0.0
C391 C 0.1022 0.99664 0.11228 0.0
C392 C 0.11607 0.94404 0.15982 0.0
C393 C 0.07426 0.97041 0.17606 0.0
C394 C 0.0451 0.00913 0.15965 0.0
H395 H 0.07543 0.02169 0.37447 0.0
H396 H 0.09908 0.01464 0.31826 0.0
C397 C 0.05828 0.02162 0.12779 0.0
C398 C 0.06577 0.9603 0.21079 0.0
H399 H 0.96198 0.94526 0.26857 0.0
C400 C 0.11566 0.95842 0.23052 0.0
C401 C 0.00979 0.95316 0.22466 0.0
C402 C 0.95466 0.95023 0.20489 0.0
C403 C 0.11109 0.95146 0.26363 0.0
C404 C 0.05496 0.94837 0.27766 0.0
C405 C 0.00511 0.94823 0.25792 0.0
C406 C 0.04667 0.94869 0.31264 0.0
C407 C 0.16665 0.9473 0.28309 0.0
C408 C 0.00921 0.91422 0.32834 0.0
C409 C 0.99512 0.91892 0.36034 0.0
C410 C 0.01868 0.95781 0.37706 0.0
C411 C 0.05817 0.99082 0.36195 0.0
C412 C 0.07162 0.98665 0.32992 0.0
H413 H 0.20237 0.93139 0.26922 0.0
H414 H 0.18138 0.98445 0.28958 0.0
H415 H 0.16005 0.92417 0.30522 0.0
H416 H 0.98916 0.88479 0.31551 0.0
H417 H 0.96374 0.89374 0.37169 0.0
H418 H 0.14294 0.12681 0.90238 0.0
H419 H 0.14327 0.14872 0.84536 0.0
H420 H 0.17634 0.99826 0.82528 0.0
H421 H 0.1752 0.97585 0.88217 0.0
H422 H 0.21531 0.12835 0.7852 0.0
H423 H 0.9997 0.03227 0.80011 0.0
H424 H 0.04193 0.05269 0.83345 0.0
H425 H 0.06261 0.99851 0.81393 0.0
C426 C 0.15276 0.09877 0.88591 0.0
C427 C 0.15769 0.04941 0.89659 0.0
C428 C 0.15301 0.1114 0.85334 0.0
C429 C 0.15887 0.0749 0.83127 0.0
C430 C 0.17138 0.0268 0.84206 0.0
H431 H 0.10174 0.07952 0.62691 0.0
H432 H 0.14871 0.07666 0.67972 0.0
C433 C 0.17056 0.01406 0.87454 0.0
C434 C 0.13932 0.08445 0.79811 0.0
H435 H 0.02492 0.06092 0.74851 0.0
C436 C 0.17382 0.11366 0.77702 0.0
C437 C 0.08463 0.06583 0.78788 0.0
C438 C 0.04468 0.03589 0.81 0.0
C439 C 0.1551 0.12415 0.74555 0.0
C440 C 0.10088 0.10465 0.73525 0.0
C441 C 0.06646 0.07581 0.75652 0.0
C442 C 0.07797 0.11329 0.70258 0.0
C443 C 0.19275 0.15656 0.72377 0.0
C444 C 0.02295 0.1349 0.698 0.0
C445 C 0.9962 0.13596 0.66813 0.0
C446 C 0.02403 0.11542 0.6425 0.0
C447 C 0.08003 0.09567 0.64661 0.0
C448 C 0.10685 0.09441 0.67656 0.0
H449 H 0.2256 0.17782 0.73723 0.0
H450 H 0.21658 0.1334 0.70731 0.0
H451 H 0.16545 0.18251 0.70922 0.0
H452 H 0.99984 0.1494 0.71783 0.0
H453 H 0.9531 0.15157 0.6651 0.0
H454 H 0.64144 0.43531 0.60923 0.0
H455 H 0.62315 0.40531 0.66384 0.0
H456 H 0.49891 0.52106 0.67457 0.0
H457 H 0.51455 0.54914 0.61907 0.0
H458 H 0.64792 0.44655 0.71438 0.0
H459 H 0.40944 0.41252 0.7171 0.0
H460 H 0.44842 0.424 0.6803 0.0
H461 H 0.42449 0.47433 0.70307 0.0
C462 C 0.60938 0.45374 0.62312 0.0
C463 C 0.57938 0.49454 0.61006 0.0
C464 C 0.59898 0.43661 0.65433 0.0
C465 C 0.55919 0.46048 0.67342 0.0
C466 C 0.52849 0.50096 0.66018 0.0
H467 H 0.58092 0.49475 0.8721 0.0
H468 H 0.60031 0.48935 0.81536 0.0
C469 C 0.53775 0.51732 0.62855 0.0
C470 C 0.55411 0.44574 0.70779 0.0
H471 H 0.45588 0.42552 0.76791 0.0
C472 C 0.60581 0.44109 0.72591 0.0
C473 C 0.49949 0.43734 0.72297 0.0
C474 C 0.44246 0.43675 0.70472 0.0
C475 C 0.60434 0.43069 0.75883 0.0
C476 C 0.54964 0.42693 0.77442 0.0
C477 C 0.49796 0.42906 0.75614 0.0
C478 C 0.54475 0.42521 0.80965 0.0
C479 C 0.66162 0.42391 0.77644 0.0
C480 C 0.50702 0.39113 0.82555 0.0
C481 C 0.49528 0.39498 0.85793 0.0
C482 C 0.52151 0.43259 0.87478 0.0
C483 C 0.56159 0.46483 0.85945 0.0
C484 C 0.57264 0.46158 0.82709 0.0
H485 H 0.69502 0.40804 0.76098 0.0
H486 H 0.67862 0.46018 0.78339 0.0
H487 H 0.65648 0.3996 0.79816 0.0
H488 H 0.4847 0.36294 0.81262 0.0
H489 H 0.46344 0.37043 0.86946 0.0
H490 H 0.65969 0.55642 0.40429 0.0
H491 H 0.6971 0.57471 0.35008 0.0
H492 H 0.53121 0.63833 0.32317 0.0
H493 H 0.49385 0.61972 0.37637 0.0
H494 H 0.6392 0.53482 0.29593 0.0
H495 H 0.65165 0.73656 0.28308 0.0
H496 H 0.65634 0.70349 0.32126 0.0
H497 H 0.58608 0.71643 0.30335 0.0
C498 C 0.63191 0.57519 0.38685 0.0
C499 C 0.5738 0.58631 0.39428 0.0
C500 C 0.65327 0.58567 0.35606 0.0
C501 C 0.61721 0.60864 0.33287 0.0
C502 C 0.56021 0.62162 0.34089 0.0
H503 H 0.46697 0.63857 0.16288 0.0
H504 H 0.51378 0.64375 0.2152 0.0
C505 C 0.53867 0.61043 0.3712 0.0
C506 C 0.63403 0.61307 0.29902 0.0
H507 H 0.61947 0.69423 0.23558 0.0
C508 C 0.63747 0.56973 0.28257 0.0
C509 C 0.63207 0.65869 0.2818 0.0
C510 C 0.63196 0.70645 0.29837 0.0
C511 C 0.63118 0.57042 0.24938 0.0
C512 C 0.62218 0.61575 0.2325 0.0
C513 C 0.62573 0.65949 0.24866 0.0
C514 C 0.59769 0.6176 0.19992 0.0
C515 C 0.62803 0.52239 0.23304 0.0
C516 C 0.62977 0.60208 0.174 0.0
C517 C 0.60271 0.59876 0.14427 0.0
C518 C 0.54356 0.61099 0.14027 0.0
C519 C 0.51238 0.62839 0.16582 0.0
C520 C 0.53924 0.63171 0.19545 0.0
H521 H 0.63144 0.49022 0.25008 0.0
H522 H 0.58616 0.51939 0.21969 0.0
H523 H 0.66433 0.52093 0.21572 0.0
H524 H 0.67504 0.59146 0.17695 0.0
H525 H 0.62724 0.58533 0.12461 0.0
loop_
_geom_bond_atom_site_label_1
_geom_bond_atom_site_label_2
_geom_bond_distance
_geom_bond_site_symmetry_2
_ccdc_geom_bond_type
O0 Mg1 1.990 . S
O0 C14 1.253 . S
Mg1 O0 1.990 . S
Mg1 O4 2.180 . S
Mg1 O5 2.117 . S
Mg1 O19 2.030 1_545 S
O2 Mg3 2.072 . S
O2 C14 1.260 . S
Mg3 O2 2.072 . S
Mg3 O4 2.099 . S
Mg3 O6 2.079 1_554 S
Mg3 O7 2.072 . S
Mg3 O9 2.099 1_544 S
Mg3 O20 2.076 1_544 S
O4 Mg1 2.180 . S
O4 Mg3 2.099 . S
O4 C15 1.279 . S
O5 Mg1 2.117 . S
O5 C15 1.250 . S
O6 Mg3 2.079 1_556 S
O6 C16 1.264 . S
O7 Mg3 2.072 . S
O7 C17 1.260 1_454 S
Mg8 O9 2.180 1_645 S
Mg8 O10 2.030 . S
Mg8 O11 1.990 . S
Mg8 O12 2.117 1_545 S
O9 Mg3 2.099 1_566 S
O9 Mg8 2.180 1_465 S
O9 C18 1.279 1_456 S
O10 Mg8 2.030 . S
O10 C16 1.248 1_655 S
O11 Mg8 1.990 . S
O11 C17 1.253 . S
O12 Mg8 2.117 1_565 S
O12 C18 1.250 1_556 S
C13 O19 1.248 . S
C13 O20 1.245 1_554 S
C14 O0 1.253 . S
C14 O2 1.260 . S
C15 O4 1.279 . S
C15 O5 1.250 . S
C16 O6 1.264 . S
C16 O10 1.248 1_455 S
C17 O7 1.260 1_656 S
C17 O11 1.253 . S
C18 O9 1.279 1_654 S
C18 O12 1.250 1_554 S
O19 Mg1 2.030 1_565 S
O19 C13 1.248 . S
O20 Mg3 2.076 1_566 S
O20 C13 1.245 1_556 S
O21 Mg22 1.990 . S
O21 C35 1.253 . S
Mg22 O21 1.990 . S
Mg22 O25 2.180 . S
Mg22 O26 2.117 . S
Mg22 O40 2.030 . S
O23 Mg24 2.072 . S
O23 C35 1.260 . S
Mg24 O23 2.072 . S
Mg24 O25 2.099 . S
Mg24 O27 2.079 . S
Mg24 O28 2.072 . S
Mg24 O30 2.099 . S
Mg24 O41 2.079 . S
O25 Mg22 2.180 . S
O25 Mg24 2.099 . S
O25 C36 1.279 . S
O26 Mg22 2.117 . S
O26 C36 1.250 . S
O27 Mg24 2.079 . S
O27 C37 1.264 . S
O28 Mg24 2.072 . S
O28 C38 1.260 . S
Mg29 O30 2.180 . S
Mg29 O31 2.030 . S
Mg29 O32 1.990 . S
Mg29 O33 2.117 . S
O30 Mg24 2.099 . S
O30 Mg29 2.180 . S
O30 C39 1.279 . S
O31 Mg29 2.030 . S
O31 C37 1.248 . S
O32 Mg29 1.990 . S
O32 C38 1.253 . S
O33 Mg29 2.117 . S
O33 C39 1.250 . S
C34 O40 1.248 . S
C34 O41 1.264 . S
C35 O21 1.253 . S
C35 O23 1.260 . S
C36 O25 1.279 . S
C36 O26 1.250 . S
C37 O27 1.264 . S
C37 O31 1.248 . S
C38 O28 1.260 . S
C38 O32 1.253 . S
C39 O30 1.279 . S
C39 O33 1.250 . S
O40 Mg22 2.030 . S
O40 C34 1.248 . S
O41 Mg24 2.079 . S
O41 C34 1.264 . S
C42 N43 1.317 1_545 S
C42 N44 1.348 . S
C42 C45 1.488 . S
N43 C42 1.317 1_565 S
N43 N47 1.370 1_565 S
N44 C42 1.348 . S
N44 C46 1.346 . S
C45 C42 1.488 . S
C45 H49 0.947 1_545 S
C45 H50 0.982 . S
C45 H51 0.949 1_545 S
C46 N44 1.346 . S
C46 N47 1.307 . S
C46 C48 1.486 1_455 S
N47 N43 1.370 1_545 S
N47 C46 1.307 . S
C48 C46 1.486 1_655 S
C48 H52 0.960 . S
C48 H53 0.960 . S
C48 H54 0.959 . S
H49 C45 0.947 1_565 S
H50 C45 0.982 . S
H51 C45 0.949 1_565 S
H52 C48 0.960 . S
H53 C48 0.960 . S
H54 C48 0.959 . S
C55 N56 1.317 . S
C55 N57 1.348 1_455 S
C55 C58 1.485 . S
N56 C55 1.317 . S
N56 N60 1.370 . S
N57 C55 1.348 1_655 S
N57 C59 1.346 . S
C58 C55 1.485 . S
C58 H62 0.960 1_455 S
C58 H63 0.961 . S
C58 H64 0.960 . S
C59 N57 1.346 . S
C59 N60 1.307 1_655 S
C59 C61 1.486 . S
N60 N56 1.370 . S
N60 C59 1.307 1_455 S
C61 C59 1.486 . S
C61 H65 0.960 1_545 S
C61 H66 0.960 . S
C61 H67 0.959 . S
H62 C58 0.960 1_655 S
H63 C58 0.961 . S
H64 C58 0.960 . S
H65 C61 0.960 1_565 S
H66 C61 0.960 . S
H67 C61 0.959 . S
C68 N69 1.317 . S
C68 N70 1.348 . S
C68 C71 1.485 1_556 S
N69 C68 1.317 . S
N69 N73 1.370 . S
N70 C68 1.348 . S
N70 C72 1.346 . S
C71 C68 1.485 1_554 S
C71 H75 0.960 . S
C71 H76 0.961 . S
C71 H77 0.960 . S
C72 N70 1.346 . S
C72 N73 1.307 . S
C72 C74 1.486 . S
N73 N69 1.370 . S
N73 C72 1.307 . S
C74 C72 1.486 . S
C74 H78 0.960 . S
C74 H79 0.960 . S
C74 H80 0.959 . S
H75 C71 0.960 . S
H76 C71 0.961 . S
H77 C71 0.960 . S
H78 C74 0.960 . S
H79 C74 0.960 . S
H80 C74 0.959 . S
C81 N82 1.317 . S
C81 N83 1.348 . S
C81 C84 1.485 . S
N82 C81 1.317 . S
N82 N86 1.370 . S
N83 C81 1.348 . S
N83 C85 1.346 . S
C84 C81 1.485 . S
C84 H88 0.960 1_554 S
C84 H89 0.961 1_554 S
C84 H90 0.960 . S
C85 N83 1.346 . S
C85 N86 1.307 . S
C85 C87 1.486 . S
N86 N82 1.370 . S
N86 C85 1.307 . S
C87 C85 1.486 . S
C87 H91 0.960 . S
C87 H92 0.960 . S
C87 H93 0.959 . S
H88 C84 0.960 1_556 S
H89 C84 0.961 1_556 S
H90 C84 0.960 . S
H91 C87 0.960 . S
H92 C87 0.960 . S
H93 C87 0.959 . S
H94 C102 0.929 . S
H95 C104 0.930 . S
H96 C106 0.930 . S
H97 C109 0.929 . S
H98 C112 0.930 . S
H99 C114 0.960 . S
H100 C114 0.960 1_556 S
H101 C114 0.960 . S
C102 H94 0.929 . S
C102 C103 1.377 1_556 S
C102 C104 1.384 . S
C103 C102 1.377 1_554 S
C103 C109 1.390 . S
C104 H95 0.930 . S
C104 C102 1.384 . S
C104 C105 1.372 1_556 S
C105 C104 1.372 1_554 S
C105 C106 1.400 . S
C105 C110 1.490 . S
C106 H96 0.930 . S
C106 C105 1.400 . S
C106 C109 1.386 . S
H107 C123 0.930 . S
H108 C124 0.931 . S
C109 H97 0.929 . S
C109 C103 1.390 . S
C109 C106 1.386 . S
C110 C105 1.490 . S
C110 C112 1.395 . S
C110 C113 1.403 . S
H111 C117 0.930 . S
C112 H98 0.930 . S
C112 C110 1.395 . S
C112 C115 1.403 . S
C113 C110 1.403 . S
C113 C114 1.524 . S
C113 C117 1.400 . S
C114 H99 0.960 . S
C114 H100 0.960 1_554 S
C114 H101 0.960 . S
C114 C113 1.524 . S
C115 C112 1.403 . S
C115 C116 1.392 . S
C115 C119 1.495 . S
C116 C115 1.392 . S
C116 C117 1.385 . S
C116 C118 1.478 . S
C117 H111 0.930 . S
C117 C113 1.400 . S
C117 C116 1.385 . S
C118 C116 1.478 . S
C118 C120 1.381 . S
C118 C124 1.383 . S
C119 C115 1.495 . S
C119 H125 0.959 . S
C119 H126 0.961 . S
C119 H127 0.960 . S
C120 C118 1.381 . S
C120 C121 1.394 . S
C120 H128 0.930 1_554 S
C121 C120 1.394 . S
C121 C122 1.383 . S
C121 H129 0.929 . S
C122 C121 1.383 . S
C122 C123 1.377 . S
C123 H107 0.930 . S
C123 C122 1.377 . S
C123 C124 1.379 . S
C124 H108 0.931 . S
C124 C118 1.383 . S
C124 C123 1.379 . S
H125 C119 0.959 . S
H126 C119 0.961 . S
H127 C119 0.960 . S
H128 C120 0.930 1_556 S
H129 C121 0.929 . S
H130 C138 0.929 . S
H131 C140 0.930 . S
H132 C142 0.930 . S
H133 C145 0.929 . S
H134 C148 0.930 . S
H135 C150 0.960 . S
H136 C150 0.960 . S
H137 C150 0.960 . S
C138 H130 0.929 . S
C138 C139 1.377 . S
C138 C140 1.384 . S
C139 C138 1.377 . S
C139 C145 1.390 1_554 S
C140 H131 0.930 . S
C140 C138 1.384 . S
C140 C141 1.388 . S
C141 C140 1.388 . S
C141 C142 1.390 1_554 S
C141 C146 1.484 1_554 S
C142 H132 0.930 . S
C142 C141 1.390 1_556 S
C142 C145 1.386 . S
H143 C159 0.930 . S
H144 C160 0.931 . S
C145 H133 0.929 . S
C145 C139 1.390 1_556 S
C145 C142 1.386 . S
C146 C141 1.484 1_556 S
C146 C148 1.395 . S
C146 C149 1.403 1_556 S
H147 C153 0.919 1_554 S
C148 H134 0.930 . S
C148 C146 1.395 . S
C148 C151 1.403 . S
C149 C146 1.403 1_554 S
C149 C150 1.524 . S
C149 C153 1.391 1_554 S
C150 H135 0.960 . S
C150 H136 0.960 . S
C150 H137 0.960 . S
C150 C149 1.524 . S
C151 C148 1.403 . S
C151 C152 1.392 . S
C151 C155 1.495 . S
C152 C151 1.392 . S
C152 C153 1.405 . S
C152 C154 1.478 . S
C153 H147 0.919 1_556 S
C153 C149 1.391 1_556 S
C153 C152 1.405 . S
C154 C152 1.478 . S
C154 C156 1.381 . S
C154 C160 1.383 . S
C155 C151 1.495 . S
C155 H161 0.959 . S
C155 H162 0.961 . S
C155 H163 0.960 . S
C156 C154 1.381 . S
C156 C157 1.394 . S
C156 H164 0.930 1_556 S
C157 C156 1.394 . S
C157 C158 1.383 . S
C157 H165 0.929 . S
C158 C157 1.383 . S
C158 C159 1.377 . S
C159 H143 0.930 . S
C159 C158 1.377 . S
C159 C160 1.379 . S
C160 H144 0.931 . S
C160 C154 1.383 . S
C160 C159 1.379 . S
H161 C155 0.959 . S
H162 C155 0.961 . S
H163 C155 0.960 . S
H164 C156 0.930 1_554 S
H165 C157 0.929 . S
H166 C174 0.929 . S
H167 C176 0.930 . S
H168 C178 0.930 1_556 S
H169 C181 0.929 1_556 S
H170 C184 0.930 . S
H171 C186 0.960 . S
H172 C186 0.960 . S
H173 C186 0.960 . S
C174 H166 0.929 . S
C174 C175 1.377 . S
C174 C176 1.384 . S
C175 C174 1.377 . S
C175 C181 1.390 . S
C176 H167 0.930 . S
C176 C174 1.384 . S
C176 C177 1.372 . S
C177 C176 1.372 . S
C177 C178 1.400 . S
C177 C182 1.490 . S
C178 H168 0.930 1_554 S
C178 C177 1.400 . S
C178 C181 1.386 . S
H179 C195 0.930 . S
H180 C196 0.931 . S
C181 H169 0.929 1_554 S
C181 C175 1.390 . S
C181 C178 1.386 . S
C182 C177 1.490 . S
C182 C184 1.395 . S
C182 C185 1.403 . S
H183 C189 0.930 . S
C184 H170 0.930 . S
C184 C182 1.395 . S
C184 C187 1.403 . S
C185 C182 1.403 . S
C185 C186 1.524 . S
C185 C189 1.400 . S
C186 H171 0.960 . S
C186 H172 0.960 . S
C186 H173 0.960 . S
C186 C185 1.524 . S
C187 C184 1.403 . S
C187 C188 1.392 . S
C187 C191 1.495 . S
C188 C187 1.392 . S
C188 C189 1.385 . S
C188 C190 1.478 . S
C189 H183 0.930 . S
C189 C185 1.400 . S
C189 C188 1.385 . S
C190 C188 1.478 . S
C190 C192 1.381 . S
C190 C196 1.383 . S
C191 C187 1.495 . S
C191 H197 0.959 . S
C191 H198 0.961 . S
C191 H199 0.960 . S
C192 C190 1.381 . S
C192 C193 1.394 . S
C192 H200 0.930 . S
C193 C192 1.394 . S
C193 C194 1.383 . S
C193 H201 0.929 . S
C194 C193 1.383 . S
C194 C195 1.377 . S
C195 H179 0.930 . S
C195 C194 1.377 . S
C195 C196 1.379 . S
C196 H180 0.931 . S
C196 C190 1.383 . S
C196 C195 1.379 . S
H197 C191 0.959 . S
H198 C191 0.961 . S
H199 C191 0.960 . S
H200 C192 0.930 . S
H201 C193 0.929 . S
H202 C210 0.929 1_454 S
H203 C212 0.930 . S
H204 C214 0.930 . S
H205 C217 0.929 . S
H206 C220 0.930 . S
H207 C222 0.960 . S
H208 C222 0.960 . S
H209 C222 0.960 . S
C210 H202 0.929 1_656 S
C210 C211 1.377 . S
C210 C212 1.384 . S
C211 C210 1.377 . S
C211 C217 1.390 . S
C212 H203 0.930 . S
C212 C210 1.384 . S
C212 C213 1.372 . S
C213 C212 1.372 . S
C213 C214 1.400 . S
C213 C218 1.490 . S
C214 H204 0.930 . S
C214 C213 1.400 . S
C214 C217 1.386 . S
H215 C231 0.930 . S
H216 C232 0.931 . S
C217 H205 0.929 . S
C217 C211 1.390 . S
C217 C214 1.386 . S
C218 C213 1.490 . S
C218 C220 1.395 . S
C218 C221 1.403 . S
H219 C225 0.911 1_554 S
C220 H206 0.930 . S
C220 C218 1.395 . S
C220 C223 1.403 . S
C221 C218 1.403 . S
C221 C222 1.524 1_556 S
C221 C225 1.400 . S
C222 H207 0.960 . S
C222 H208 0.960 . S
C222 H209 0.960 . S
C222 C221 1.524 1_554 S
C223 C220 1.403 . S
C223 C224 1.392 . S
C223 C227 1.495 . S
C224 C223 1.392 . S
C224 C225 1.385 . S
C224 C226 1.478 . S
C225 H219 0.911 1_556 S
C225 C221 1.400 . S
C225 C224 1.385 . S
C226 C224 1.478 . S
C226 C228 1.381 . S
C226 C232 1.383 . S
C227 C223 1.495 . S
C227 H233 0.959 . S
C227 H234 0.961 . S
C227 H235 0.960 . S
C228 C226 1.381 . S
C228 C229 1.394 . S
C228 H236 0.930 . S
C229 C228 1.394 . S
C229 C230 1.383 . S
C229 H237 0.929 . S
C230 C229 1.383 . S
C230 C231 1.377 . S
C231 H215 0.930 . S
C231 C230 1.377 . S
C231 C232 1.379 . S
C232 H216 0.931 . S
C232 C226 1.383 . S
C232 C231 1.379 . S
H233 C227 0.959 . S
H234 C227 0.961 . S
H235 C227 0.960 . S
H236 C228 0.930 . S
H237 C229 0.929 . S
H238 C246 0.929 . S
H239 C248 0.930 . S
H240 C250 0.930 . S
H241 C253 0.929 . S
H242 C256 0.930 . S
H243 C258 0.960 . S
H244 C258 0.960 . S
H245 C258 0.960 . S
C246 H238 0.929 . S
C246 C247 1.377 . S
C246 C248 1.384 . S
C247 C246 1.377 . S
C247 C253 1.390 . S
C248 H239 0.930 . S
C248 C246 1.384 . S
C248 C249 1.372 . S
C249 C248 1.372 . S
C249 C250 1.400 . S
C249 C254 1.490 . S
C250 H240 0.930 . S
C250 C249 1.400 . S
C250 C253 1.386 . S
H251 C267 0.930 . S
H252 C268 0.931 . S
C253 H241 0.929 . S
C253 C247 1.390 . S
C253 C250 1.386 . S
C254 C249 1.490 . S
C254 C256 1.395 . S
C254 C257 1.403 . S
H255 C261 0.930 . S
C256 H242 0.930 . S
C256 C254 1.395 . S
C256 C259 1.403 . S
C257 C254 1.403 . S
C257 C258 1.524 . S
C257 C261 1.400 . S
C258 H243 0.960 . S
C258 H244 0.960 . S
C258 H245 0.960 . S
C258 C257 1.524 . S
C259 C256 1.403 . S
C259 C260 1.392 . S
C259 C263 1.495 . S
C260 C259 1.392 . S
C260 C261 1.385 . S
C260 C262 1.478 . S
C261 H255 0.930 . S
C261 C257 1.400 . S
C261 C260 1.385 . S
C262 C260 1.478 . S
C262 C264 1.381 . S
C262 C268 1.383 . S
C263 C259 1.495 . S
C263 H269 0.959 . S
C263 H270 0.961 . S
C263 H271 0.960 . S
C264 C262 1.381 . S
C264 C265 1.394 1_565 S
C264 H272 0.930 . S
C265 C264 1.394 1_545 S
C265 C266 1.383 . S
C265 H273 0.929 . S
C266 C265 1.383 . S
C266 C267 1.377 1_545 S
C267 H251 0.930 . S
C267 C266 1.377 1_565 S
C267 C268 1.379 . S
C268 H252 0.931 . S
C268 C262 1.383 . S
C268 C267 1.379 . S
H269 C263 0.959 . S
H270 C263 0.961 . S
H271 C263 0.960 . S
H272 C264 0.930 . S
H273 C265 0.929 . S
H274 C282 0.929 . S
H275 C284 0.930 . S
H276 C286 0.930 . S
H277 C289 0.929 . S
H278 C292 0.930 . S
H279 C294 0.960 . S
H280 C294 0.960 . S
H281 C294 0.960 . S
C282 H274 0.929 . S
C282 C283 1.377 . S
C282 C284 1.384 . S
C283 C282 1.377 . S
C283 C289 1.390 . S
C284 H275 0.930 . S
C284 C282 1.384 . S
C284 C285 1.372 . S
C285 C284 1.372 . S
C285 C286 1.400 . S
C285 C290 1.490 . S
C286 H276 0.930 . S
C286 C285 1.400 . S
C286 C289 1.386 . S
H287 C303 0.930 . S
H288 C304 0.931 . S
C289 H277 0.929 . S
C289 C283 1.390 . S
C289 C286 1.386 . S
C290 C285 1.490 . S
C290 C292 1.395 . S
C290 C293 1.403 . S
H291 C297 0.930 . S
C292 H278 0.930 . S
C292 C290 1.395 . S
C292 C295 1.403 . S
C293 C290 1.403 . S
C293 C294 1.524 . S
C293 C297 1.400 . S
C294 H279 0.960 . S
C294 H280 0.960 . S
C294 H281 0.960 . S
C294 C293 1.524 . S
C295 C292 1.403 . S
C295 C296 1.392 . S
C295 C299 1.495 . S
C296 C295 1.392 . S
C296 C297 1.385 . S
C296 C298 1.478 . S
C297 H291 0.930 . S
C297 C293 1.400 . S
C297 C296 1.385 . S
C298 C296 1.478 . S
C298 C300 1.381 . S
C298 C304 1.383 . S
C299 C295 1.495 . S
C299 H305 0.959 . S
C299 H306 0.961 . S
C299 H307 0.960 . S
C300 C298 1.381 . S
C300 C301 1.394 . S
C300 H308 0.930 . S
C301 C300 1.394 . S
C301 C302 1.383 . S
C301 H309 0.929 . S
C302 C301 1.383 . S
C302 C303 1.377 . S
C303 H287 0.930 . S
C303 C302 1.377 . S
C303 C304 1.379 . S
C304 H288 0.931 . S
C304 C298 1.383 . S
C304 C303 1.379 . S
H305 C299 0.959 . S
H306 C299 0.961 . S
H307 C299 0.960 . S
H308 C300 0.930 . S
H309 C301 0.929 . S
H310 C318 0.929 . S
H311 C320 0.930 . S
H312 C322 0.930 . S
H313 C325 0.929 . S
H314 C328 0.930 . S
H315 C330 0.960 . S
H316 C330 0.960 . S
H317 C330 0.960 . S
C318 H310 0.929 . S
C318 C319 1.377 . S
C318 C320 1.384 . S
C319 C318 1.377 . S
C319 C325 1.390 . S
C320 H311 0.930 . S
C320 C318 1.384 . S
C320 C321 1.372 . S
C321 C320 1.372 . S
C321 C322 1.400 . S
C321 C326 1.490 . S
C322 H312 0.930 . S
C322 C321 1.400 . S
C322 C325 1.386 . S
H323 C339 0.930 . S
H324 C340 0.931 . S
C325 H313 0.929 . S
C325 C319 1.390 . S
C325 C322 1.386 . S
C326 C321 1.490 . S
C326 C328 1.395 . S
C326 C329 1.403 . S
H327 C333 0.930 . S
C328 H314 0.930 . S
C328 C326 1.395 . S
C328 C331 1.403 . S
C329 C326 1.403 . S
C329 C330 1.524 . S
C329 C333 1.400 . S
C330 H315 0.960 . S
C330 H316 0.960 . S
C330 H317 0.960 . S
C330 C329 1.524 . S
C331 C328 1.403 . S
C331 C332 1.392 . S
C331 C335 1.495 . S
C332 C331 1.392 . S
C332 C333 1.385 . S
C332 C334 1.478 . S
C333 H327 0.930 . S
C333 C329 1.400 . S
C333 C332 1.385 . S
C334 C332 1.478 . S
C334 C336 1.381 . S
C334 C340 1.383 . S
C335 C331 1.495 . S
C335 H341 0.959 . S
C335 H342 0.961 . S
C335 H343 0.960 . S
C336 C334 1.381 . S
C336 C337 1.394 . S
C336 H344 0.930 . S
C337 C336 1.394 . S
C337 C338 1.383 . S
C337 H345 0.929 . S
C338 C337 1.383 . S
C338 C339 1.377 . S
C339 H323 0.930 . S
C339 C338 1.377 . S
C339 C340 1.379 . S
C340 H324 0.931 . S
C340 C334 1.383 . S
C340 C339 1.379 . S
H341 C335 0.959 . S
H342 C335 0.961 . S
H343 C335 0.960 . S
H344 C336 0.930 . S
H345 C337 0.929 . S
H346 C354 0.929 . S
H347 C356 0.930 . S
H348 C358 0.930 . S
H349 C361 0.929 . S
H350 C364 0.930 . S
H351 C366 0.960 . S
H352 C366 0.960 . S
H353 C366 0.960 . S
C354 H346 0.929 . S
C354 C355 1.377 . S
C354 C356 1.384 . S
C355 C354 1.377 . S
C355 C361 1.390 . S
C356 H347 0.930 . S
C356 C354 1.384 . S
C356 C357 1.372 . S
C357 C356 1.372 . S
C357 C358 1.400 . S
C357 C362 1.490 . S
C358 H348 0.930 . S
C358 C357 1.400 . S
C358 C361 1.386 . S
H359 C375 0.930 . S
H360 C376 0.931 . S
C361 H349 0.929 . S
C361 C355 1.390 . S
C361 C358 1.386 . S
C362 C357 1.490 . S
C362 C364 1.395 . S
C362 C365 1.403 . S
H363 C369 0.930 . S
C364 H350 0.930 . S
C364 C362 1.395 . S
C364 C367 1.403 . S
C365 C362 1.403 . S
C365 C366 1.524 . S
C365 C369 1.400 . S
C366 H351 0.960 . S
C366 H352 0.960 . S
C366 H353 0.960 . S
C366 C365 1.524 . S
C367 C364 1.403 . S
C367 C368 1.392 . S
C367 C371 1.495 . S
C368 C367 1.392 . S
C368 C369 1.385 . S
C368 C370 1.478 . S
C369 H363 0.930 . S
C369 C365 1.400 . S
C369 C368 1.385 . S
C370 C368 1.478 . S
C370 C372 1.381 . S
C370 C376 1.383 . S
C371 C367 1.495 . S
C371 H377 0.959 . S
C371 H378 0.961 . S
C371 H379 0.960 . S
C372 C370 1.381 . S
C372 C373 1.394 . S
C372 H380 0.930 . S
C373 C372 1.394 . S
C373 C374 1.383 . S
C373 H381 0.929 . S
C374 C373 1.383 . S
C374 C375 1.377 . S
C375 H359 0.930 . S
C375 C374 1.377 . S
C375 C376 1.379 . S
C376 H360 0.931 . S
C376 C370 1.383 . S
C376 C375 1.379 . S
H377 C371 0.959 . S
H378 C371 0.961 . S
H379 C371 0.960 . S
H380 C372 0.930 . S
H381 C373 0.929 . S
H382 C390 0.929 . S
H383 C392 0.930 . S
H384 C394 0.930 . S
H385 C397 0.929 . S
H386 C400 0.930 . S
H387 C402 0.960 . S
H388 C402 0.960 . S
H389 C402 0.960 . S
C390 H382 0.929 . S
C390 C391 1.377 1_565 S
C390 C392 1.384 . S
C391 C390 1.377 1_545 S
C391 C397 1.390 . S
C392 H383 0.930 . S
C392 C390 1.384 . S
C392 C393 1.372 1_565 S
C393 C392 1.372 1_545 S
C393 C394 1.400 . S
C393 C398 1.490 . S
C394 H384 0.930 . S
C394 C393 1.400 . S
C394 C397 1.386 . S
H395 C411 0.930 . S
H396 C412 0.931 . S
C397 H385 0.929 . S
C397 C391 1.390 . S
C397 C394 1.386 . S
C398 C393 1.490 . S
C398 C400 1.395 1_545 S
C398 C401 1.403 . S
H399 C405 0.930 1_655 S
C400 H386 0.930 . S
C400 C398 1.395 1_565 S
C400 C403 1.403 . S
C401 C398 1.403 . S
C401 C402 1.524 1_455 S
C401 C405 1.400 . S
C402 H387 0.960 . S
C402 H388 0.960 . S
C402 H389 0.960 . S
C402 C401 1.524 1_655 S
C403 C400 1.403 . S
C403 C404 1.392 . S
C403 C407 1.495 . S
C404 C403 1.392 . S
C404 C405 1.385 1_565 S
C404 C406 1.478 . S
C405 H399 0.930 1_455 S
C405 C401 1.400 . S
C405 C404 1.385 1_545 S
C406 C404 1.478 . S
C406 C408 1.381 . S
C406 C412 1.383 1_565 S
C407 C403 1.495 . S
C407 H413 0.959 . S
C407 H414 0.961 . S
C407 H415 0.960 . S
C408 C406 1.381 . S
C408 C409 1.394 . S
C408 H416 0.930 . S
C409 C408 1.394 . S
C409 C410 1.383 . S
C409 H417 0.929 . S
C410 C409 1.383 . S
C410 C411 1.377 1_565 S
C411 H395 0.930 . S
C411 C410 1.377 1_545 S
C411 C412 1.379 . S
C412 H396 0.931 . S
C412 C406 1.383 1_545 S
C412 C411 1.379 . S
H413 C407 0.959 . S
H414 C407 0.961 . S
H415 C407 0.960 . S
H416 C408 0.930 . S
H417 C409 0.929 . S
H418 C426 0.929 1_655 S
H419 C428 0.930 1_655 S
H420 C430 0.930 . S
H421 C433 0.929 . S
H422 C436 0.930 . S
H423 C438 0.960 . S
H424 C438 0.960 . S
H425 C438 0.960 . S
C426 H418 0.929 1_455 S
C426 C427 1.377 . S
C426 C428 1.384 . S
C427 C426 1.377 . S
C427 C433 1.390 . S
C428 H419 0.930 1_455 S
C428 C426 1.384 . S
C428 C429 1.372 . S
C429 C428 1.372 . S
C429 C430 1.400 . S
C429 C434 1.490 . S
C430 H420 0.930 . S
C430 C429 1.400 . S
C430 C433 1.386 . S
H431 C447 0.930 . S
H432 C448 0.931 . S
C433 H421 0.929 . S
C433 C427 1.390 . S
C433 C430 1.386 . S
C434 C429 1.490 . S
C434 C436 1.395 . S
C434 C437 1.403 . S
H435 C441 0.930 . S
C436 H422 0.930 . S
C436 C434 1.395 . S
C436 C439 1.403 . S
C437 C434 1.403 . S
C437 C438 1.524 1_545 S
C437 C441 1.400 . S
C438 H423 0.960 . S
C438 H424 0.960 . S
C438 H425 0.960 . S
C438 C437 1.524 1_565 S
C439 C436 1.403 . S
C439 C440 1.392 . S
C439 C443 1.495 . S
C440 C439 1.392 . S
C440 C441 1.385 . S
C440 C442 1.478 . S
C441 H435 0.930 . S
C441 C437 1.400 . S
C441 C440 1.385 . S
C442 C440 1.478 . S
C442 C444 1.381 1_455 S
C442 C448 1.383 . S
C443 C439 1.495 . S
C443 H449 0.959 . S
C443 H450 0.961 . S
C443 H451 0.960 1_455 S
C444 C442 1.381 1_655 S
C444 C445 1.394 . S
C444 H452 0.930 . S
C445 C444 1.394 . S
C445 C446 1.383 1_655 S
C445 H453 0.929 . S
C446 C445 1.383 1_455 S
C446 C447 1.377 . S
C447 H431 0.930 . S
C447 C446 1.377 . S
C447 C448 1.379 . S
C448 H432 0.931 . S
C448 C442 1.383 . S
C448 C447 1.379 . S
H449 C443 0.959 . S
H450 C443 0.961 . S
H451 C443 0.960 1_655 S
H452 C444 0.930 . S
H453 C445 0.929 . S
H454 C462 0.929 . S
H455 C464 0.930 . S
H456 C466 0.930 . S
H457 C469 0.929 . S
H458 C472 0.930 . S
H459 C474 0.960 . S
H460 C474 0.960 . S
H461 C474 0.960 . S
C462 H454 0.929 . S
C462 C463 1.377 . S
C462 C464 1.384 . S
C463 C462 1.377 . S
C463 C469 1.390 . S
C464 H455 0.930 . S
C464 C462 1.384 . S
C464 C465 1.372 . S
C465 C464 1.372 . S
C465 C466 1.400 . S
C465 C470 1.490 . S
C466 H456 0.930 . S
C466 C465 1.400 . S
C466 C469 1.386 . S
H467 C483 0.930 . S
H468 C484 0.931 . S
C469 H457 0.929 . S
C469 C463 1.390 . S
C469 C466 1.386 . S
C470 C465 1.490 . S
C470 C472 1.395 . S
C470 C473 1.403 . S
H471 C477 0.930 . S
C472 H458 0.930 . S
C472 C470 1.395 . S
C472 C475 1.403 . S
C473 C470 1.403 . S
C473 C474 1.524 . S
C473 C477 1.400 . S
C474 H459 0.960 . S
C474 H460 0.960 . S
C474 H461 0.960 . S
C474 C473 1.524 . S
C475 C472 1.403 . S
C475 C476 1.392 . S
C475 C479 1.495 . S
C476 C475 1.392 . S
C476 C477 1.385 . S
C476 C478 1.478 . S
C477 H471 0.930 . S
C477 C473 1.400 . S
C477 C476 1.385 . S
C478 C476 1.478 . S
C478 C480 1.381 . S
C478 C484 1.383 . S
C479 C475 1.495 . S
C479 H485 0.959 . S
C479 H486 0.961 . S
C479 H487 0.960 . S
C480 C478 1.381 . S
C480 C481 1.394 . S
C480 H488 0.930 . S
C481 C480 1.394 . S
C481 C482 1.383 . S
C481 H489 0.929 . S
C482 C481 1.383 . S
C482 C483 1.377 . S
C483 H467 0.930 . S
C483 C482 1.377 . S
C483 C484 1.379 . S
C484 H468 0.931 . S
C484 C478 1.383 . S
C484 C483 1.379 . S
H485 C479 0.959 . S
H486 C479 0.961 . S
H487 C479 0.960 . S
H488 C480 0.930 . S
H489 C481 0.929 . S
H490 C498 0.929 . S
H491 C500 0.930 . S
H492 C502 0.930 . S
H493 C505 0.929 . S
H494 C508 0.930 . S
H495 C510 0.960 . S
H496 C510 0.960 . S
H497 C510 0.960 . S
C498 H490 0.929 . S
C498 C499 1.377 . S
C498 C500 1.384 . S
C499 C498 1.377 . S
C499 C505 1.390 . S
C500 H491 0.930 . S
C500 C498 1.384 . S
C500 C501 1.372 . S
C501 C500 1.372 . S
C501 C502 1.400 . S
C501 C506 1.490 . S
C502 H492 0.930 . S
C502 C501 1.400 . S
C502 C505 1.386 . S
H503 C519 0.930 . S
H504 C520 0.931 . S
C505 H493 0.929 . S
C505 C499 1.390 . S
C505 C502 1.386 . S
C506 C501 1.490 . S
C506 C508 1.395 . S
C506 C509 1.403 . S
H507 C513 0.930 . S
C508 H494 0.930 . S
C508 C506 1.395 . S
C508 C511 1.403 . S
C509 C506 1.403 . S
C509 C510 1.524 . S
C509 C513 1.400 . S
C510 H495 0.960 . S
C510 H496 0.960 . S
C510 H497 0.960 . S
C510 C509 1.524 . S
C511 C508 1.403 . S
C511 C512 1.392 . S
C511 C515 1.495 . S
C512 C511 1.392 . S
C512 C513 1.385 . S
C512 C514 1.478 . S
C513 H507 0.930 . S
C513 C509 1.400 . S
C513 C512 1.385 . S
C514 C512 1.478 . S
C514 C516 1.381 . S
C514 C520 1.383 . S
C515 C511 1.495 . S
C515 H521 0.959 . S
C515 H522 0.961 . S
C515 H523 0.960 . S
C516 C514 1.381 . S
C516 C517 1.394 . S
C516 H524 0.930 . S
C517 C516 1.394 . S
C517 C518 1.383 . S
C517 H525 0.929 . S
C518 C517 1.383 . S
C518 C519 1.377 . S
C519 H503 0.930 . S
C519 C518 1.377 . S
C519 C520 1.379 . S
C520 H504 0.931 . S
C520 C514 1.383 . S
C520 C519 1.379 . S
H521 C515 0.959 . S
H522 C515 0.961 . S
H523 C515 0.960 . S
H524 C516 0.930 . S
H525 C517 0.929 . S
C122 N83 1.318 . S
C103 C15 1.155 . S
C139 C13 1.371 . S
C158 N70 1.358 . S
C175 C18 1.342 . S
C194 N82 1.555 . S
C211 C17 1.407 . S
C230 N69 1.462 . S
C247 C36 1.158 . S
C266 N57 1.309 . S
C283 C34 1.370 . S
C302 N44 1.367 1_655 S
C338 N56 1.533 . S
C319 C39 1.325 . S
C374 N43 1.460 . S
C355 C38 1.405 . S
C391 C14 1.567 . S
C410 N47 1.605 1_565 S
C427 C16 1.395 . S
C446 N60 1.450 . S
C482 N73 1.597 . S
C463 C35 1.566 . S
C499 C37 1.406 . S
C518 N86 1.414 . S
