# Generated by pormake.
# Topology anh, (6,3)-cn, num edge types: 1
# Building blocks:
#     Node 0, Type 0, BuildingBlock: HISSIN_clean_sbu_0, # of connection points: 6
#     Node 1, Type 0, BuildingBlock: HISSIN_clean_sbu_0, # of connection points: 6
#     Node 2, Type 0, BuildingBlock: HISSIN_clean_sbu_0, # of connection points: 6
#     Node 3, Type 1, BuildingBlock: KAKCAD_clean_linker_0, # of connection points: 3
#     Node 4, Type 1, BuildingBlock: KAKCAD_clean_linker_0, # of connection points: 3
#     Node 5, Type 1, BuildingBlock: KAKCAD_clean_linker_0, # of connection points: 3
#     Node 6, Type 1, BuildingBlock: KAKCAD_clean_linker_0, # of connection points: 3
#     Node 7, Type 1, BuildingBlock: KAKCAD_clean_linker_0, # of connection points: 3
#     Node 8, Type 1, BuildingBlock: KAKCAD_clean_linker_0, # of connection points: 3
#     Edge 9, Type (0, 1), BuildingBlock: TEMPAE_clean_linker_10, # of connection points: 2
#     Edge 10, Type (0, 1), BuildingBlock: TEMPAE_clean_linker_10, # of connection points: 2
#     Edge 11, Type (0, 1), BuildingBlock: TEMPAE_clean_linker_10, # of connection points: 2
#     Edge 12, Type (0, 1), BuildingBlock: TEMPAE_clean_linker_10, # of connection points: 2
#     Edge 13, Type (0, 1), BuildingBlock: TEMPAE_clean_linker_10, # of connection points: 2
#     Edge 14, Type (0, 1), BuildingBlock: TEMPAE_clean_linker_10, # of connection points: 2
#     Edge 15, Type (0, 1), BuildingBlock: TEMPAE_clean_linker_10, # of connection points: 2
#     Edge 16, Type (0, 1), BuildingBlock: TEMPAE_clean_linker_10, # of connection points: 2
#     Edge 17, Type (0, 1), BuildingBlock: TEMPAE_clean_linker_10, # of connection points: 2
#     Edge 18, Type (0, 1), BuildingBlock: TEMPAE_clean_linker_10, # of connection points: 2
#     Edge 19, Type (0, 1), BuildingBlock: TEMPAE_clean_linker_10, # of connection points: 2
#     Edge 20, Type (0, 1), BuildingBlock: TEMPAE_clean_linker_10, # of connection points: 2
#     Edge 21, Type (0, 1), BuildingBlock: TEMPAE_clean_linker_10, # of connection points: 2
#     Edge 22, Type (0, 1), BuildingBlock: TEMPAE_clean_linker_10, # of connection points: 2
#     Edge 23, Type (0, 1), BuildingBlock: TEMPAE_clean_linker_10, # of connection points: 2
#     Edge 24, Type (0, 1), BuildingBlock: TEMPAE_clean_linker_10, # of connection points: 2
#     Edge 25, Type (0, 1), BuildingBlock: TEMPAE_clean_linker_10, # of connection points: 2
#     Edge 26, Type (0, 1), BuildingBlock: TEMPAE_clean_linker_10, # of connection points: 2
# Relax obj value: 0.234
# Max RMSD: 0.187
# Mean RMSD: 0.154
data_MOF--net-anh--node1-HISSIN_clean_sbu_0--node2-KAKCAD_clean_linker_0--edge1-TEMPAE_clean_linker_10
_symmetry_space_group_name_H-M    P1
_symmetry_Int_Tables_number       1
_symmetry_cell_setting            triclinic
loop_
_symmetry_equiv_pos_as_xyz
'x, y, z'
_cell_length_a     36.826775
_cell_length_b     36.836984
_cell_length_c     67.298749
_cell_angle_alpha  92.449551
_cell_angle_beta   90.600737
_cell_angle_gamma 119.97581
loop_
_atom_site_label
_atom_site_type_symbol
_atom_site_fract_x
_atom_site_fract_y
_atom_site_fract_z
_atom_type_partial_charge
Eu0 Eu 1.06413 0.49691 0.16528 0.0
Eu1 Eu 0.11361 0.59749 0.17417 0.0
C2 C 1.07737 0.53676 0.21092 0.0
C3 C 0.96979 0.39169 0.1584 0.0
C4 C 0.95196 0.39268 0.17662 0.0
C5 C 0.90028 0.35753 0.14228 0.0
C6 C 0.90893 0.37715 0.17756 0.0
C7 C 0.94342 0.37279 0.14136 0.0
C8 C 0.88285 0.36056 0.1603 0.0
C9 C 1.01548 0.41729 0.15623 0.0
O10 O 0.16503 0.58151 0.1669 0.0
O11 O 0.13095 0.51059 0.17114 0.0
C12 C 0.16586 0.54628 0.16864 0.0
O13 O 0.1007 0.52569 0.13796 0.0
O14 O 0.16204 0.65513 0.18949 0.0
O15 O 0.12453 0.65842 0.16539 0.0
O16 O 0.09454 0.5835 0.14181 0.0
C17 C 0.10216 0.55859 0.13055 0.0
O18 O 1.01548 0.51751 0.16078 0.0
O19 O 1.0459 0.5805 0.17876 0.0
O20 O 0.10469 0.57376 0.20489 0.0
O21 O 1.02647 0.44607 0.14333 0.0
O22 O 1.03891 0.43154 0.1726 0.0
O23 O 1.05514 0.50448 0.19827 0.0
C24 C 0.19606 0.70914 0.1672 0.0
C25 C 0.19757 0.74392 0.15873 0.0
C26 C 0.26711 0.73246 0.15699 0.0
C27 C 0.23391 0.77327 0.1498 0.0
C28 C 0.23061 0.70291 0.16572 0.0
C29 C 0.26954 0.76855 0.14941 0.0
C30 C 0.15794 0.67905 0.17698 0.0
C31 C 1.01286 0.54893 0.16942 0.0
H32 H 0.97142 0.40765 0.18996 0.0
H33 H 0.88078 0.34459 0.1288 0.0
H34 H 0.89647 0.38039 0.19161 0.0
H35 H 0.95654 0.37209 0.12711 0.0
H36 H 0.17087 0.74873 0.15933 0.0
H37 H 0.29406 0.72804 0.15713 0.0
H38 H 0.23461 0.80041 0.14379 0.0
H39 H 0.22989 0.67578 0.17176 0.0
Eu40 Eu 0.58852 1.02269 0.49974 0.0
Eu41 Eu 0.54317 0.07714 0.50716 0.0
C42 C 0.5697 1.04379 0.54369 0.0
C43 C 0.61982 0.93951 0.48592 0.0
C44 C 0.65345 0.93783 0.47738 0.0
C45 C 0.57885 0.86346 0.48349 0.0
C46 C 0.65054 0.89923 0.47271 0.0
C47 C 0.58177 0.90221 0.48812 0.0
C48 C 0.61391 0.86166 0.47663 0.0
C49 C 0.62691 0.98001 0.49428 0.0
O50 O 0.61308 0.1235 0.51259 0.0
O51 O 0.63934 0.08945 0.49399 0.0
C52 C 0.64414 0.12423 0.50277 0.0
O53 O 0.55599 1.01886 0.4706 0.0
O54 O 0.53386 0.1219 0.52555 0.0
O55 O 0.50701 0.10442 0.49551 0.0
O56 O 0.56534 0.08405 0.47589 0.0
C57 C 0.55824 1.05251 0.46367 0.0
O58 O 0.51998 0.97232 0.50251 0.0
O59 O 0.48702 1.01126 0.5 0.0
O60 O 0.53824 1.04617 0.5359 0.0
O61 O 0.62799 1.00652 0.48176 0.0
O62 O 0.60733 0.9795 0.51042 0.0
O63 O 0.59913 1.04542 0.53227 0.0
C64 C 0.54624 0.17637 0.50526 0.0
C65 C 0.58028 0.18625 0.49301 0.0
C66 C 0.57474 0.25074 0.51333 0.0
C67 C 0.61203 0.22774 0.4915 0.0
C68 C 0.5431 0.20895 0.51503 0.0
C69 C 0.61043 0.2605 0.50215 0.0
C70 C 0.51941 0.13245 0.51039 0.0
C71 C 0.4854 0.97455 0.50044 0.0
H72 H 0.68294 0.96638 0.47549 0.0
H73 H 0.55013 0.83497 0.48648 0.0
H74 H 0.67829 0.89903 0.46768 0.0
H75 H 0.55521 0.90296 0.49444 0.0
H76 H 0.5838 0.16166 0.48553 0.0
H77 H 0.57203 0.27527 0.52144 0.0
H78 H 0.63911 0.23368 0.48302 0.0
H79 H 0.51734 0.20202 0.5247 0.0
Eu80 Eu 0.5472 0.49717 0.83097 0.0
Eu81 Eu 0.64684 0.54951 0.84158 0.0
C82 C 0.58185 0.51706 0.87629 0.0
C83 C 0.44527 0.48483 0.81561 0.0
C84 C 0.46748 0.52487 0.80797 0.0
C85 C 0.3869 0.49613 0.82182 0.0
C86 C 0.45012 0.55095 0.80796 0.0
C87 C 0.40428 0.47 0.8218 0.0
C88 C 0.41046 0.53752 0.81576 0.0
C89 C 0.46792 0.46317 0.8211 0.0
O90 O 0.63201 0.48099 0.84131 0.0
O91 O 0.56479 0.44628 0.82747 0.0
C92 C 0.59886 0.44623 0.83374 0.0
O93 O 0.5817 0.52701 0.80315 0.0
O94 O 0.70273 0.56243 0.85941 0.0
O95 O 0.7064 0.60521 0.83714 0.0
O96 O 0.64112 0.52501 0.81018 0.0
C97 C 0.61553 0.52689 0.79726 0.0
O98 O 0.56025 0.5637 0.83782 0.0
O99 O 0.62977 0.59781 0.83123 0.0
O100 O 0.61543 0.54931 0.86994 0.0
O101 O 0.49575 0.46494 0.80874 0.0
O102 O 0.48232 0.47135 0.83949 0.0
O103 O 0.55398 0.48803 0.86367 0.0
C104 C 0.7705 0.60878 0.84675 0.0
C105 C 0.78976 0.62832 0.82929 0.0
C106 C 0.83893 0.6293 0.86142 0.0
C107 C 0.83345 0.64968 0.82827 0.0
C108 C 0.79537 0.6081 0.86245 0.0
C109 C 0.85851 0.65179 0.84466 0.0
C110 C 0.7267 0.59687 0.85048 0.0
C111 C 0.59452 0.59828 0.83361 0.0
H112 H 0.4995 0.53724 0.80342 0.0
H113 H 0.35604 0.48491 0.82771 0.0
H114 H 0.46914 0.58277 0.80339 0.0
H115 H 0.38689 0.43941 0.82793 0.0
H116 H 0.77137 0.62938 0.8169 0.0
H117 H 0.85727 0.63066 0.87441 0.0
H118 H 0.84767 0.66627 0.81507 0.0
H119 H 0.78133 0.59372 0.87614 0.0
C120 C 0.52078 0.11884 0.31251 0.0
C121 C 0.54273 0.09855 0.31815 0.0
C122 C 0.52039 0.12923 0.2928 0.0
C123 C 0.54174 0.11929 0.27834 0.0
C124 C 0.56376 0.0991 0.28401 0.0
C125 C 0.56424 0.08885 0.30369 0.0
C126 C 0.54092 0.12947 0.25732 0.0
C127 C 0.54708 0.16895 0.25252 0.0
C128 C 0.54822 0.17897 0.23254 0.0
C129 C 0.54288 0.14905 0.21741 0.0
C130 C 0.53704 0.10983 0.22193 0.0
C131 C 0.53572 0.10009 0.24191 0.0
C132 C 0.53276 0.0793 0.20572 0.0
C133 C 0.50692 0.07243 0.18886 0.0
C134 C 0.55346 1.05613 0.20716 0.0
C135 C 0.54645 1.02492 0.19256 0.0
C136 C 0.51839 1.01617 0.17634 0.0
C137 C 0.56257 0.22241 0.22694 0.0
C138 C 0.60102 0.25497 0.23497 0.0
C139 C 0.54495 0.22926 0.20986 0.0
C140 C 0.56903 0.26431 0.19889 0.0
C141 C 0.61083 0.29273 0.20496 0.0
C142 C 0.62502 0.29009 0.22406 0.0
C143 C 0.49979 1.04123 0.17435 0.0
H144 H 0.5043 0.12713 0.3234 0.0
H145 H 0.50297 0.14456 0.28883 0.0
H146 H 0.58096 0.0915 0.27325 0.0
H147 H 0.58119 0.07297 0.30755 0.0
H148 H 0.55265 0.19242 0.26426 0.0
H149 H 0.53027 0.06938 0.24547 0.0
H150 H 0.54586 0.15724 0.20199 0.0
H151 H 0.49043 0.0897 0.18737 0.0
H152 H 0.57436 1.06149 0.21978 0.0
H153 H 0.56149 1.00638 0.19443 0.0
H154 H 0.61525 0.25078 0.24821 0.0
H155 H 0.51481 0.20496 0.20363 0.0
H156 H 0.47727 1.03483 0.16231 0.0
H157 H 0.657 0.31163 0.22928 0.0
H158 H 0.557 0.26612 0.18443 0.0
C159 C 0.71458 0.60304 0.6456 0.0
C160 C 0.73889 0.60732 0.66266 0.0
C161 C 0.73315 0.61454 0.62727 0.0
C162 C 0.77648 0.63053 0.62554 0.0
C163 C 0.80093 0.63485 0.6426 0.0
C164 C 0.78232 0.62362 0.66105 0.0
C165 C 0.79511 0.64097 0.60571 0.0
C166 C 0.7827 0.66211 0.59287 0.0
C167 C 0.79341 0.66552 0.57289 0.0
C168 C 0.81761 0.64852 0.56582 0.0
C169 C 0.83038 0.62695 0.57832 0.0
C170 C 0.82012 0.62466 0.59854 0.0
C171 C 0.84503 0.59924 0.56897 0.0
C172 C 0.86605 0.60941 0.55087 0.0
C173 C 0.82904 0.5582 0.57528 0.0
C174 C 0.82791 0.5269 0.56244 0.0
C175 C 0.84192 0.53588 0.54301 0.0
C176 C 0.7741 0.68091 0.55864 0.0
C177 C 0.73052 0.66466 0.55821 0.0
C178 C 0.79843 0.70957 0.54457 0.0
C179 C 0.77951 0.72226 0.53049 0.0
C180 C 0.7359 0.70593 0.53008 0.0
C181 C 0.71158 0.67693 0.54401 0.0
C182 C 0.86348 0.57771 0.53773 0.0
H183 H 0.68113 0.59089 0.64643 0.0
H184 H 0.71333 0.61015 0.61433 0.0
H185 H 0.83436 0.64701 0.64166 0.0
H186 H 0.80172 0.62694 0.67398 0.0
H187 H 0.76307 0.67441 0.59822 0.0
H188 H 0.82869 0.60738 0.60835 0.0
H189 H 0.82261 0.64856 0.54998 0.0
H190 H 0.88037 0.64105 0.54588 0.0
H191 H 0.81272 0.54871 0.58904 0.0
H192 H 0.81095 0.4947 0.56678 0.0
H193 H 0.71099 0.64192 0.56867 0.0
H194 H 0.83206 0.72228 0.54456 0.0
H195 H 0.87471 0.58529 0.52282 0.0
H196 H 0.67798 0.66436 0.54417 0.0
H197 H 0.79888 0.74475 0.5199 0.0
C198 C 0.25957 0.71856 0.99831 0.0
C199 C 0.21734 0.69615 0.00358 0.0
C200 C 0.27126 0.74404 0.98202 0.0
C201 C 0.24101 0.74792 0.97084 0.0
C202 C 0.19892 0.72575 0.97629 0.0
C203 C 0.18727 0.70029 0.99245 0.0
C204 C 0.2522 0.77262 0.95275 0.0
C205 C 0.27698 0.76753 0.93843 0.0
C206 C 0.28136 0.7844 0.91966 0.0
C207 C 0.26101 0.80699 0.91548 0.0
C208 C 0.23519 0.81151 0.92941 0.0
C209 C 0.23284 0.79606 0.94838 0.0
C210 C 0.20411 0.82348 0.9226 0.0
C211 C 0.21308 0.85135 0.90727 0.0
C212 C 0.16259 0.80088 0.92886 0.0
C213 C 0.13045 0.80283 0.91882 0.0
C214 C 0.13879 0.82702 0.90212 0.0
C215 C 0.30179 0.77302 0.90353 0.0
C216 C 0.33749 0.76979 0.90769 0.0
C217 C 0.28364 0.76201 0.88412 0.0
C218 C 0.29976 0.74662 0.86949 0.0
C219 C 0.33396 0.7411 0.87396 0.0
C220 C 0.35326 0.7538 0.89311 0.0
C221 C 0.18061 0.85272 0.89695 0.0
H222 H 0.28342 0.71591 0.00661 0.0
H223 H 0.30391 0.76068 0.97814 0.0
H224 H 0.17466 0.72732 0.96778 0.0
H225 H 0.1546 0.684 0.9963 0.0
H226 H 0.28999 0.74752 0.94132 0.0
H227 H 0.21359 0.79987 0.9594 0.0
H228 H 0.26285 0.81831 0.90075 0.0
H229 H 0.24481 0.8701 0.90238 0.0
H230 H 0.15389 0.77855 0.94033 0.0
H231 H 0.09852 0.78221 0.92306 0.0
H232 H 0.35253 0.77842 0.9224 0.0
H233 H 0.25569 0.76335 0.88037 0.0
H234 H 0.18792 0.87206 0.88427 0.0
H235 H 0.37936 0.74955 0.89719 0.0
H236 H 0.2845 0.73773 0.85483 0.0
C237 C 1.01579 0.51682 0.37118 0.0
C238 C 1.05236 0.52578 0.36102 0.0
C239 C 1.01648 0.52072 0.39204 0.0
C240 C 1.05377 0.53376 0.40335 0.0
C241 C 1.09019 0.5423 0.39317 0.0
C242 C 1.08952 0.53847 0.37235 0.0
C243 C 1.05502 0.53884 0.42561 0.0
C244 C 1.02183 0.5099 0.43672 0.0
C245 C 1.02303 0.51354 0.45768 0.0
C246 C 1.05907 0.54782 0.4677 0.0
C247 C 1.09307 0.5778 0.45669 0.0
C248 C 1.08991 0.57258 0.43575 0.0
C249 C 0.13277 0.61499 0.46594 0.0
C250 C 0.13208 0.64447 0.47979 0.0
C251 C 0.17211 0.62445 0.45854 0.0
C252 C 0.20883 0.66263 0.46382 0.0
C253 C 0.20809 0.69324 0.47684 0.0
C254 C 0.98588 0.48012 0.46809 0.0
C255 C 0.94534 0.47346 0.46393 0.0
C256 C 0.98899 0.44989 0.47895 0.0
C257 C 0.95265 0.41339 0.48474 0.0
C258 C 0.91181 0.40582 0.47991 0.0
C259 C 0.90914 0.43739 0.46987 0.0
C260 C 0.16916 0.68294 0.48519 0.0
H261 H 0.98647 0.50655 0.36302 0.0
H262 H 0.98787 0.51416 0.39929 0.0
H263 H 0.11938 0.55183 0.40131 0.0
H264 H 0.11846 0.54618 0.36514 0.0
H265 H 0.99508 0.48345 0.42902 0.0
H266 H 0.11483 0.59569 0.42715 0.0
H267 H 1.06068 0.55099 0.4838 0.0
H268 H 0.10256 0.63877 0.48571 0.0
H269 H 0.17436 0.6026 0.44804 0.0
H270 H 0.23795 0.66832 0.45742 0.0
H271 H 0.94155 0.49573 0.45541 0.0
H272 H 1.0195 0.45329 0.48203 0.0
H273 H 0.16691 0.70537 0.49527 0.0
H274 H 0.8789 0.43406 0.46622 0.0
H275 H 0.95676 0.3902 0.49222 0.0
C276 C 0.55834 0.98642 0.70276 0.0
C277 C 0.58789 1.0223 0.69327 0.0
C278 C 0.56005 0.98449 0.7235 0.0
C279 C 0.59107 1.01853 0.73534 0.0
C280 C 0.62094 1.05411 0.72589 0.0
C281 C 0.61952 1.05589 0.70517 0.0
C282 C 0.59157 1.01772 0.75752 0.0
C283 C 0.58696 0.98249 0.76699 0.0
C284 C 0.58758 0.9813 0.78795 0.0
C285 C 0.59266 1.01718 0.79952 0.0
C286 C 0.59713 1.05314 0.79006 0.0
C287 C 0.59662 1.05251 0.76916 0.0
C288 C 0.60243 0.09246 0.80084 0.0
C289 C 0.57012 0.09236 0.81192 0.0
C290 C 0.63653 0.1318 0.79648 0.0
C291 C 0.63751 0.16953 0.80209 0.0
C292 C 0.60423 0.16968 0.81222 0.0
C293 C 0.58334 0.94209 0.79675 0.0
C294 C 0.55383 0.90204 0.78829 0.0
C295 C 0.61145 0.94374 0.81164 0.0
C296 C 0.6113 0.90686 0.81709 0.0
C297 C 0.583 0.86703 0.80783 0.0
C298 C 0.55364 0.86544 0.79369 0.0
C299 C 0.57105 0.13036 0.81757 0.0
H300 H 0.53315 0.96012 0.69423 0.0
H301 H 0.53633 0.95679 0.73033 0.0
H302 H 0.64563 0.08063 0.73455 0.0
H303 H 0.64345 0.08366 0.69849 0.0
H304 H 0.58404 0.95612 0.75788 0.0
H305 H 0.59933 0.07934 0.76179 0.0
H306 H 0.59313 1.01713 0.8156 0.0
H307 H 0.5429 0.06282 0.81519 0.0
H308 H 0.66186 0.13328 0.78785 0.0
H309 H 0.66421 0.19874 0.79805 0.0
H310 H 0.53118 0.89902 0.77699 0.0
H311 H 0.63493 0.97377 0.81842 0.0
H312 H 0.54463 0.12866 0.82527 0.0
H313 H 0.53044 0.83572 0.78654 0.0
H314 H 0.63457 0.90991 0.82801 0.0
C315 C 0.58899 0.50307 0.03778 0.0
C316 C 0.57057 0.52199 0.02691 0.0
C317 C 0.5918 0.50675 0.05863 0.0
C318 C 0.5771 0.53022 0.06937 0.0
C319 C 0.55899 0.54942 0.05849 0.0
C320 C 0.55537 0.545 0.03767 0.0
C321 C 0.58049 0.53453 0.09174 0.0
C322 C 0.61444 0.53581 0.10213 0.0
C323 C 0.61784 0.53841 0.12313 0.0
C324 C 0.58662 0.54247 0.13393 0.0
C325 C 0.5525 0.54266 0.12365 0.0
C326 C 0.54976 0.53744 0.10272 0.0
C327 C 0.5188 0.54862 0.13352 0.0
C328 C 0.49332 0.52268 0.14831 0.0
C329 C 0.50748 0.57659 0.12555 0.0
C330 C 0.47094 0.57692 0.13111 0.0
C331 C 0.44407 0.54954 0.14507 0.0
C332 C 0.65472 0.53675 0.13262 0.0
C333 C 0.66784 0.50978 0.1239 0.0
C334 C 0.68 0.56442 0.14857 0.0
C335 C 0.71804 0.56643 0.15473 0.0
C336 C 0.73217 0.54119 0.14498 0.0
C337 C 0.7058 0.51226 0.12977 0.0
C338 C 0.4566 0.52326 0.15407 0.0
H339 H 0.60184 0.4857 0.03024 0.0
H340 H 0.60533 0.49081 0.06629 0.0
H341 H 0.54785 0.56837 0.066 0.0
H342 H 0.54033 0.55956 0.03006 0.0
H343 H 0.63915 0.53547 0.09369 0.0
H344 H 0.52279 0.53517 0.09489 0.0
H345 H 0.58886 0.54551 0.15003 0.0
H346 H 0.5005 0.50039 0.15468 0.0
H347 H 0.52626 0.59739 0.11425 0.0
H348 H 0.46338 0.59839 0.12414 0.0
H349 H 0.64912 0.48716 0.11195 0.0
H350 H 0.67141 0.58581 0.15571 0.0
H351 H 0.43698 0.5017 0.1649 0.0
H352 H 0.71476 0.49155 0.12218 0.0
H353 H 0.73727 0.58901 0.16658 0.0
C354 C 0.24547 0.58431 0.1663 0.0
C355 C 0.20691 0.54645 0.16651 0.0
C356 C 0.28396 0.58489 0.16371 0.0
C357 C 0.28458 0.54673 0.16092 0.0
C358 C 0.24578 0.50842 0.16118 0.0
C359 C 0.20782 0.50874 0.16408 0.0
C360 C 0.3241 0.62662 0.16381 0.0
C361 C 0.24419 0.46686 0.15799 0.0
C362 C 0.3778 0.54949 0.13384 0.0
C363 C 0.40277 0.54779 0.14939 0.0
C364 C 0.33959 0.54879 0.13736 0.0
C365 C 0.32539 0.54688 0.15703 0.0
C366 C 0.35034 0.54506 0.17283 0.0
C367 C 0.38822 0.54515 0.16884 0.0
C368 C 0.31425 0.54998 0.11988 0.0
C369 C 0.33725 0.54358 0.19407 0.0
H370 H 0.24569 0.61377 0.16817 0.0
H371 H 0.17858 0.47916 0.16406 0.0
H372 H 0.3468 0.62779 0.17515 0.0
H373 H 0.33872 0.63043 0.14915 0.0
H374 H 0.31886 0.65347 0.16701 0.0
H375 H 0.2119 0.43978 0.15889 0.0
H376 H 0.25623 0.465 0.14315 0.0
H377 H 0.26475 0.46412 0.16927 0.0
H378 H 0.38792 0.55085 0.11869 0.0
H379 H 0.40699 0.54411 0.18107 0.0
H380 H 0.31081 0.57818 0.12154 0.0
H381 H 0.28224 0.52213 0.11945 0.0
H382 H 0.32887 0.55054 0.10546 0.0
H383 H 0.33445 0.57159 0.19809 0.0
H384 H 0.35989 0.54255 0.20474 0.0
H385 H 0.30594 0.51556 0.19572 0.0
C386 C 0.68996 0.20293 0.50992 0.0
C387 C 0.68457 0.16529 0.50094 0.0
C388 C 0.72675 0.24197 0.50756 0.0
C389 C 0.75968 0.24426 0.49586 0.0
C390 C 0.75473 0.20621 0.48705 0.0
C391 C 0.71754 0.16754 0.48964 0.0
C392 C 0.73005 0.28094 0.51746 0.0
C393 C 0.78869 0.20636 0.47464 0.0
C394 C 0.83618 0.34739 0.47178 0.0
C395 C 0.87241 0.36486 0.48446 0.0
C396 C 0.7996 0.30898 0.47547 0.0
C397 C 0.79843 0.28631 0.49222 0.0
C398 C 0.83464 0.30364 0.50515 0.0
C399 C 0.87075 0.34237 0.5012 0.0
C400 C 0.7621 0.29234 0.46123 0.0
C401 C 0.83545 0.28099 0.52315 0.0
H402 H 0.66509 0.20207 0.51872 0.0
H403 H 0.71417 0.13898 0.48257 0.0
H404 H 0.75778 0.29613 0.52788 0.0
H405 H 0.73459 0.30342 0.50604 0.0
H406 H 0.70177 0.27432 0.52585 0.0
H407 H 0.78119 0.17421 0.46952 0.0
H408 H 0.79322 0.22493 0.4614 0.0
H409 H 0.81891 0.22164 0.48335 0.0
H410 H 0.83645 0.36328 0.45857 0.0
H411 H 0.89771 0.35513 0.51144 0.0
H412 H 0.73401 0.28702 0.46944 0.0
H413 H 0.75518 0.26162 0.45425 0.0
H414 H 0.76711 0.31405 0.44926 0.0
H415 H 0.81016 0.277 0.53318 0.0
H416 H 0.86593 0.29799 0.53166 0.0
H417 H 0.82939 0.24913 0.51848 0.0
C418 C 0.55522 0.63879 0.83248 0.0
C419 C 0.59293 0.63805 0.83072 0.0
C420 C 0.55296 0.67543 0.82928 0.0
C421 C 0.58924 0.71301 0.82416 0.0
C422 C 0.62743 0.71249 0.82244 0.0
C423 C 0.62881 0.67539 0.82571 0.0
C424 C 0.51151 0.67386 0.83141 0.0
C425 C 0.667 0.75122 0.81692 0.0
C426 C 0.57636 0.79652 0.79706 0.0
C427 C 0.58453 0.82752 0.81226 0.0
C428 C 0.57753 0.7595 0.80073 0.0
C429 C 0.58715 0.7524 0.82017 0.0
C430 C 0.59529 0.78338 0.83562 0.0
C431 C 0.59404 0.82028 0.83152 0.0
C432 C 0.56871 0.72796 0.78365 0.0
C433 C 0.60521 0.77745 0.85663 0.0
H434 H 0.52712 0.6105 0.8363 0.0
H435 H 0.65821 0.67565 0.8242 0.0
H436 H 0.51523 0.69869 0.84252 0.0
H437 H 0.5013 0.68024 0.81705 0.0
H438 H 0.48646 0.64303 0.83618 0.0
H439 H 0.69434 0.74622 0.8164 0.0
H440 H 0.66229 0.76076 0.80213 0.0
H441 H 0.67443 0.77765 0.82783 0.0
H442 H 0.56967 0.80145 0.78202 0.0
H443 H 0.59996 0.84325 0.84356 0.0
H444 H 0.54171 0.69704 0.78698 0.0
H445 H 0.59619 0.7236 0.78168 0.0
H446 H 0.56158 0.73772 0.76942 0.0
H447 H 0.57892 0.74812 0.86201 0.0
H448 H 0.61074 0.80408 0.86705 0.0
H449 H 0.63352 0.7741 0.85698 0.0
C450 C 0.93385 0.51158 0.1635 0.0
C451 C 0.97191 0.54909 0.16775 0.0
C452 C 0.8953 0.51101 0.16112 0.0
C453 C 0.89405 0.549 0.16242 0.0
C454 C 0.93242 0.58703 0.1668 0.0
C455 C 0.97049 0.58658 0.16964 0.0
C456 C 0.85639 0.46913 0.15674 0.0
C457 C 0.9335 0.62853 0.1679 0.0
C458 C 0.80111 0.54749 0.13451 0.0
C459 C 0.77451 0.54535 0.14986 0.0
C460 C 0.84005 0.54968 0.13844 0.0
C461 C 0.85329 0.54914 0.15826 0.0
C462 C 0.82642 0.54661 0.17384 0.0
C463 C 0.78794 0.54542 0.16953 0.0
C464 C 0.86673 0.55163 0.12121 0.0
C465 C 0.83747 0.54324 0.19505 0.0
H466 H 0.93396 0.4822 0.16205 0.0
H467 H 0.99947 0.61592 0.17276 0.0
H468 H 0.82696 0.47012 0.15805 0.0
H469 H 0.85756 0.45772 0.14136 0.0
H470 H 0.85565 0.44604 0.16705 0.0
H471 H 0.96541 0.65533 0.1717 0.0
H472 H 0.92267 0.63358 0.15336 0.0
H473 H 0.9117 0.62827 0.17922 0.0
H474 H 0.79145 0.54756 0.11925 0.0
H475 H 0.76762 0.54306 0.18154 0.0
H476 H 0.86856 0.52244 0.12001 0.0
H477 H 0.89918 0.57834 0.12381 0.0
H478 H 0.85397 0.55513 0.10684 0.0
H479 H 0.83872 0.5139 0.19622 0.0
H480 H 0.81435 0.5429 0.20563 0.0
H481 H 0.86902 0.56983 0.19954 0.0
C482 C 0.4061 0.93375 0.4933 0.0
C483 C 0.44356 0.93402 0.49811 0.0
C484 C 0.36719 0.89573 0.49037 0.0
C485 C 0.36492 0.85636 0.49239 0.0
C486 C 0.40251 0.8565 0.49753 0.0
C487 C 0.44097 0.89489 0.50022 0.0
C488 C 0.32847 0.8977 0.48478 0.0
C489 C 0.40224 0.81585 0.50001 0.0
C490 C 0.25801 0.75646 0.50001 0.0
C491 C 0.24756 0.73575 0.48096 0.0
C492 C 0.2956 0.79545 0.50391 0.0
C493 C 0.32382 0.81513 0.48844 0.0
C494 C 0.31304 0.79475 0.46914 0.0
C495 C 0.27555 0.75573 0.46569 0.0
C496 C 0.30545 0.81534 0.52477 0.0
C497 C 0.34133 0.81416 0.452 0.0
H498 H 0.40719 0.96337 0.49153 0.0
H499 H 0.46926 0.8941 0.50394 0.0
H500 H 0.31576 0.88139 0.46997 0.0
H501 H 0.30375 0.88118 0.49563 0.0
H502 H 0.33488 0.93048 0.48425 0.0
H503 H 0.43353 0.82101 0.50475 0.0
H504 H 0.37924 0.79734 0.51121 0.0
H505 H 0.39225 0.79666 0.48574 0.0
H506 H 0.23723 0.7417 0.51206 0.0
H507 H 0.26795 0.74098 0.4508 0.0
H508 H 0.31004 0.84748 0.52471 0.0
H509 H 0.33522 0.81832 0.53053 0.0
H510 H 0.28023 0.79685 0.53513 0.0
H511 H 0.3464 0.84612 0.45007 0.0
H512 H 0.32825 0.79519 0.43777 0.0
H513 H 0.37248 0.81748 0.45524 0.0
C514 C 0.63469 0.40279 0.83836 0.0
C515 C 0.59982 0.40554 0.83168 0.0
C516 C 0.63585 0.36487 0.83605 0.0
C517 C 0.60143 0.32823 0.82672 0.0
C518 C 0.56608 0.33078 0.82008 0.0
C519 C 0.56567 0.36896 0.82264 0.0
C520 C 0.67424 0.36412 0.84347 0.0
C521 C 0.52861 0.29311 0.80998 0.0
C522 C 0.6192 0.24186 0.80233 0.0
C523 C 0.60366 0.2104 0.81625 0.0
C524 C 0.61893 0.27997 0.80561 0.0
C525 C 0.60275 0.28774 0.82333 0.0
C526 C 0.58703 0.25626 0.83749 0.0
C527 C 0.58752 0.21824 0.83379 0.0
C528 C 0.63567 0.31189 0.78988 0.0
C529 C 0.5696 0.26274 0.85664 0.0
H530 H 0.66137 0.43042 0.84538 0.0
H531 H 0.53841 0.37011 0.81733 0.0
H532 H 0.66519 0.339 0.85409 0.0
H533 H 0.68904 0.35677 0.83083 0.0
H534 H 0.69785 0.39452 0.85097 0.0
H535 H 0.50317 0.29965 0.80598 0.0
H536 H 0.53828 0.28305 0.79622 0.0
H537 H 0.5159 0.26642 0.81985 0.0
H538 H 0.63101 0.23643 0.78851 0.0
H539 H 0.5757 0.19482 0.84484 0.0
H540 H 0.66127 0.34232 0.79639 0.0
H541 H 0.61048 0.31741 0.7843 0.0
H542 H 0.64789 0.30175 0.77707 0.0
H543 H 0.59373 0.29167 0.86497 0.0
H544 H 0.55921 0.23587 0.86634 0.0
H545 H 0.54252 0.26715 0.85334 0.0
C546 C 0.6041 0.80076 0.49513 0.0
C547 C 0.61612 0.82272 0.47768 0.0
C548 C 0.61842 0.77334 0.49985 0.0
C549 C 0.64508 0.76759 0.48669 0.0
C550 C 0.65249 0.78512 0.46784 0.0
C551 C 0.63808 0.81283 0.46358 0.0
C552 C 0.60939 0.75491 0.52005 0.0
C553 C 0.6793 0.77825 0.45308 0.0
C554 C 0.7321 0.76449 0.51516 0.0
C555 C 0.71592 0.72129 0.5162 0.0
C556 C 0.71032 0.77993 0.50454 0.0
C557 C 0.67171 0.75137 0.49449 0.0
C558 C 0.65682 0.70775 0.49425 0.0
C559 C 0.6789 0.69313 0.50536 0.0
C560 C 0.72728 0.82678 0.50525 0.0
C561 C 0.61652 0.6764 0.48324 0.0
H562 H 0.58719 0.80823 0.50613 0.0
H563 H 0.6467 0.82914 0.44987 0.0
H564 H 0.60063 0.72139 0.51884 0.0
H565 H 0.63808 0.77185 0.52986 0.0
H566 H 0.58373 0.7575 0.52728 0.0
H567 H 0.67372 0.78507 0.43778 0.0
H568 H 0.71288 0.79948 0.45737 0.0
H569 H 0.67315 0.74552 0.453 0.0
H570 H 0.7606 0.78622 0.52363 0.0
H571 H 0.66671 0.65965 0.50598 0.0
H572 H 0.70556 0.83429 0.51336 0.0
H573 H 0.72947 0.83771 0.48998 0.0
H574 H 0.7588 0.84469 0.5128 0.0
H575 H 0.58954 0.67083 0.49241 0.0
H576 H 0.61511 0.64583 0.4802 0.0
H577 H 0.61286 0.68835 0.46894 0.0
C578 C 0.93151 0.67049 0.85483 0.0
C579 C 0.90439 0.68155 0.84565 0.0
C580 C 0.97298 0.70089 0.86016 0.0
C581 C 0.9878 0.74331 0.85595 0.0
C582 C 0.96187 0.75397 0.84495 0.0
C583 C 0.92026 0.72295 0.84004 0.0
C584 C 0.9998 0.68806 0.87168 0.0
C585 C 0.97684 0.79857 0.83969 0.0
C586 C 1.06583 0.81316 0.8964 0.0
C587 C 0.10329 0.81892 0.88853 0.0
C588 C 1.02806 0.79182 0.88515 0.0
C589 C 1.02804 0.77645 0.8655 0.0
C590 C 1.06651 0.78706 0.85664 0.0
C591 C 0.10384 0.80807 0.86833 0.0
C592 C 0.98774 0.78174 0.89508 0.0
C593 C 1.06793 0.77255 0.8355 0.0
H594 H 0.9196 0.63836 0.85881 0.0
H595 H 0.89948 0.73186 0.83299 0.0
H596 H 1.03063 0.69978 0.86477 0.0
H597 H 1.0058 0.70225 0.8871 0.0
H598 H 0.98469 0.65345 0.87243 0.0
H599 H 0.95758 0.79986 0.82722 0.0
H600 H 0.97442 0.81643 0.8528 0.0
H601 H 1.01017 0.81448 0.83553 0.0
H602 H 1.06552 0.82228 0.91191 0.0
H603 H 0.13272 0.81248 0.86211 0.0
H604 H 0.97018 0.74785 0.89801 0.0
H605 H 0.9675 0.78812 0.88522 0.0
H606 H 0.99349 0.80013 0.90945 0.0
H607 H 1.06 0.73923 0.8351 0.0
H608 H 0.09962 0.79134 0.82944 0.0
H609 H 1.04468 0.77457 0.82569 0.0
C610 C 0.32263 0.84447 0.15129 0.0
C611 C 0.31071 0.80373 0.14402 0.0
C612 C 0.36398 0.87711 0.15034 0.0
C613 C 0.39437 0.86886 0.14182 0.0
C614 C 0.38179 0.8288 0.13271 0.0
C615 C 0.34001 0.79648 0.13405 0.0
C616 C 0.37565 0.91952 0.16008 0.0
C617 C 0.41251 0.81892 0.12269 0.0
C618 C 0.48921 0.97462 0.1439 0.0
C619 C 0.5016 0.97649 0.1639 0.0
C620 C 0.45821 0.93659 0.13461 0.0
C621 C 0.43927 0.90041 0.14579 0.0
C622 C 0.45765 0.90067 0.1644 0.0
C623 C 0.48872 0.93893 0.17331 0.0
C624 C 0.4416 0.93657 0.11405 0.0
C625 C 0.43978 0.8621 0.1764 0.0
H626 H 0.30036 0.85034 0.15915 0.0
H627 H 0.33074 0.76518 0.128 0.0
H628 H 0.39711 0.92645 0.17318 0.0
H629 H 0.39226 0.94456 0.14955 0.0
H630 H 0.34781 0.92105 0.16516 0.0
H631 H 0.3972 0.79666 0.10958 0.0
H632 H 0.4405 0.84748 0.11779 0.0
H633 H 0.42305 0.80342 0.13324 0.0
H634 H 0.50048 1.00341 0.13622 0.0
H635 H 0.49869 0.93979 0.18862 0.0
H636 H 0.41486 0.94235 0.11526 0.0
H637 H 0.43017 0.90579 0.10584 0.0
H638 H 0.46607 0.96172 0.10538 0.0
H639 H 0.40983 0.85657 0.18274 0.0
H640 H 0.46152 0.8656 0.18887 0.0
H641 H 0.43302 0.83404 0.16683 0.0
C642 C 0.65995 0.32715 0.52153 0.0
C643 C 0.6478 0.30361 0.50331 0.0
C644 C 0.69686 0.36618 0.52362 0.0
C645 C 0.72297 0.38205 0.50717 0.0
C646 C 0.71103 0.35876 0.48867 0.0
C647 C 0.6734 0.31993 0.48691 0.0
C648 C 0.70802 0.39028 0.5436 0.0
C649 C 0.73842 0.37441 0.47094 0.0
C650 C 0.78951 0.49884 0.51574 0.0
C651 C 0.82233 0.50144 0.52757 0.0
C652 C 0.75864 0.46031 0.50693 0.0
C653 C 0.76162 0.42396 0.50959 0.0
C654 C 0.79828 0.42798 0.51892 0.0
C655 C 0.82783 0.46663 0.52829 0.0
C656 C 0.7201 0.45776 0.49737 0.0
C657 C 0.8041 0.39064 0.52094 0.0
H658 H 0.64122 0.31455 0.53444 0.0
H659 H 0.66431 0.30214 0.47272 0.0
H660 H 0.73789 0.39404 0.54969 0.0
H661 H 0.71272 0.42217 0.54191 0.0
H662 H 0.68342 0.37437 0.55461 0.0
H663 H 0.72425 0.35302 0.45746 0.0
H664 H 0.74423 0.40601 0.46751 0.0
H665 H 0.76941 0.37758 0.47444 0.0
H666 H 0.78516 0.52585 0.51537 0.0
H667 H 0.85335 0.46883 0.53743 0.0
H668 H 0.69467 0.44607 0.5082 0.0
H669 H 0.70861 0.43558 0.48411 0.0
H670 H 0.7262 0.48895 0.49288 0.0
H671 H 0.78366 0.37107 0.53268 0.0
H672 H 0.83707 0.40019 0.52511 0.0
H673 H 0.79511 0.37129 0.50677 0.0
C674 C 0.40094 0.5979 0.80683 0.0
C675 C 0.39682 0.56842 0.82047 0.0
C676 C 0.39133 0.6294 0.81211 0.0
C677 C 0.37826 0.63183 0.83159 0.0
C678 C 0.37404 0.60206 0.84535 0.0
C679 C 0.38316 0.57066 0.83958 0.0
C680 C 0.39598 0.66038 0.79698 0.0
C681 C 0.36073 0.60383 0.86638 0.0
C682 C 0.38888 0.72902 0.85836 0.0
C683 C 0.34667 0.71815 0.85955 0.0
C684 C 0.40025 0.70278 0.84782 0.0
C685 C 0.36871 0.66513 0.83803 0.0
C686 C 0.32663 0.65617 0.8375 0.0
C687 C 0.31601 0.68254 0.84844 0.0
C688 C 0.44556 0.71375 0.84845 0.0
C689 C 0.29227 0.61692 0.82674 0.0
H690 H 0.41182 0.59639 0.79208 0.0
H691 H 0.38102 0.54864 0.85034 0.0
H692 H 0.36944 0.66657 0.79739 0.0
H693 H 0.42524 0.69061 0.80048 0.0
H694 H 0.39775 0.64912 0.78163 0.0
H695 H 0.35955 0.57859 0.87529 0.0
H696 H 0.38291 0.6346 0.874 0.0
H697 H 0.32922 0.60084 0.86614 0.0
H698 H 0.41289 0.75714 0.86641 0.0
H699 H 0.28325 0.67364 0.84925 0.0
H700 H 0.45595 0.71259 0.83316 0.0
H701 H 0.44889 0.69033 0.85694 0.0
H702 H 0.46665 0.74545 0.85556 0.0
H703 H 0.30235 0.61219 0.81183 0.0
H704 H 0.26286 0.61807 0.8249 0.0
H705 H 0.28544 0.58926 0.83531 0.0
C706 C 0.81442 0.32787 0.17698 0.0
C707 C 0.83842 0.34979 0.1611 0.0
C708 C 0.77457 0.32274 0.17974 0.0
C709 C 0.75853 0.34056 0.16641 0.0
C710 C 0.78179 0.3612 0.14982 0.0
C711 C 0.82136 0.36505 0.1472 0.0
C712 C 0.75015 0.29921 0.19729 0.0
C713 C 0.76566 0.3806 0.13538 0.0
C714 C 0.64299 0.29007 0.17325 0.0
C715 C 0.64263 0.31426 0.18988 0.0
C716 C 0.68021 0.30105 0.16353 0.0
C717 C 0.71757 0.3375 0.1704 0.0
C718 C 0.71577 0.36556 0.18491 0.0
C719 C 0.6782 0.3534 0.19465 0.0
C720 C 0.68046 0.27007 0.14818 0.0
C721 C 0.75464 0.40572 0.19201 0.0
H722 H 0.82725 0.31538 0.18752 0.0
H723 H 0.83996 0.38212 0.13491 0.0
H724 H 0.74601 0.3208 0.20779 0.0
H725 H 0.71844 0.27368 0.19221 0.0
H726 H 0.76608 0.28522 0.2055 0.0
H727 H 0.78786 0.39606 0.12338 0.0
H728 H 0.73513 0.35629 0.12849 0.0
H729 H 0.7601 0.40421 0.14342 0.0
H730 H 0.61566 0.25972 0.1694 0.0
H731 H 0.67784 0.37249 0.20728 0.0
H732 H 0.68936 0.2492 0.15565 0.0
H733 H 0.70353 0.28604 0.13661 0.0
H734 H 0.64897 0.25012 0.14083 0.0
H735 H 0.77351 0.39839 0.20234 0.0
H736 H 0.74678 0.42778 0.19999 0.0
H737 H 0.77437 0.42147 0.17933 0.0
C738 C 0.14042 0.55629 0.10033 0.0
C739 C 0.11642 0.57084 0.11021 0.0
C740 C 0.15851 0.57238 0.08213 0.0
C741 C 0.15208 0.60339 0.07367 0.0
C742 C 0.12652 0.61688 0.08327 0.0
C743 C 0.10914 0.60054 0.10141 0.0
C744 C 0.18568 0.55737 0.07233 0.0
C745 C 0.11846 0.64955 0.07467 0.0
C746 C 0.22692 0.68389 0.03914 0.0
C747 C 0.20426 0.66924 0.0209 0.0
C748 C 0.21162 0.66122 0.05628 0.0
C749 C 0.17276 0.62306 0.05512 0.0
C750 C 0.15117 0.60681 0.03649 0.0
C751 C 0.1672 0.63009 0.01961 0.0
C752 C 0.23568 0.67952 0.07587 0.0
C753 C 0.10979 0.56617 0.03461 0.0
H754 H 0.14641 0.53359 0.10717 0.0
H755 H 1.0904 0.61172 0.10893 0.0
H756 H 0.1754 0.54728 0.05652 0.0
H757 H 0.21861 0.58357 0.0725 0.0
H758 H 0.18493 0.53086 0.07996 0.0
H759 H 0.09654 0.65541 0.08361 0.0
H760 H 0.14846 0.67959 0.07396 0.0
H761 H 0.10512 0.63946 0.05924 0.0
H762 H 0.2555 0.71415 0.04025 0.0
H763 H 0.15001 0.6182 0.00545 0.0
H764 H 0.23848 0.65526 0.08386 0.0
H765 H 0.21842 0.69056 0.08548 0.0
H766 H 0.26763 0.70643 0.07388 0.0
H767 H 0.11176 0.54125 0.0424 0.0
H768 H 0.09977 0.55517 0.01882 0.0
H769 H 1.08521 0.57069 0.04175 0.0
C770 C 0.55991 0.09392 0.43504 0.0
C771 C 0.55475 1.05634 0.44204 0.0
C772 C 0.55709 0.09876 0.41467 0.0
C773 C 0.54878 0.06516 0.40091 0.0
C774 C 0.54329 1.02702 0.40783 0.0
C775 C 0.5464 1.02305 0.42836 0.0
C776 C 0.56326 0.13999 0.40787 0.0
C777 C 0.53431 0.99054 0.39354 0.0
C778 C 0.50712 0.07047 0.34999 0.0
C779 C 0.54376 0.08805 0.3391 0.0
C780 C 0.508 1.06152 0.36998 0.0
C781 C 0.54648 0.07054 0.37928 0.0
C782 C 0.58341 0.08749 0.36825 0.0
C783 C 0.5816 0.09604 0.34828 0.0
C784 C 0.46796 1.0433 0.38128 0.0
C785 C 0.62509 0.09781 0.37771 0.0
H786 H 0.56637 0.11985 0.44548 0.0
H787 H 0.5423 0.99392 0.43368 0.0
H788 H 0.59012 0.15408 0.39788 0.0
H789 H 0.53504 0.13466 0.39923 0.0
H790 H 0.56928 0.16292 0.42052 0.0
H791 H 0.5302 0.96281 0.40133 0.0
H792 H 0.50546 0.98126 0.38438 0.0
H793 H 0.56041 0.99999 0.38318 0.0
H794 H 0.4777 0.06368 0.34285 0.0
H795 H 0.61009 0.11003 0.33999 0.0
H796 H 0.47081 0.06602 0.39342 0.0
H797 H 0.46244 1.01435 0.3883 0.0
H798 H 0.44023 1.03569 0.37156 0.0
H799 H 0.63454 0.12304 0.38959 0.0
H800 H 0.65031 0.10837 0.36676 0.0
H801 H 0.62237 0.06997 0.38482 0.0
C802 C 0.61321 0.55349 0.76393 0.0
C803 C 0.62812 0.53389 0.77639 0.0
C804 C 0.62906 0.56465 0.74488 0.0
C805 C 0.66001 0.55539 0.73813 0.0
C806 C 0.67378 0.534 0.75036 0.0
C807 C 0.65785 0.52375 0.76938 0.0
C808 C 0.61385 0.58769 0.73228 0.0
C809 C 0.70623 0.52297 0.74357 0.0
C810 C 0.68146 0.55562 0.6831 0.0
C811 C 0.71861 0.59425 0.68199 0.0
C812 C 0.66166 0.54279 0.70123 0.0
C813 C 0.67932 0.56938 0.71862 0.0
C814 C 0.7166 0.60862 0.71755 0.0
C815 C 0.73594 0.62049 0.69925 0.0
C816 C 0.62229 0.50049 0.70184 0.0
C817 C 0.73617 0.63794 0.73578 0.0
H818 H 0.5904 0.5616 0.76935 0.0
H819 H 0.6692 0.50825 0.7789 0.0
H820 H 0.64027 0.61962 0.7299 0.0
H821 H 0.60247 0.57119 0.71742 0.0
H822 H 0.58819 0.59066 0.73927 0.0
H823 H 0.71164 0.50403 0.75438 0.0
H824 H 0.69629 0.50507 0.72897 0.0
H825 H 0.73644 0.55211 0.74155 0.0
H826 H 0.66822 0.53509 0.6698 0.0
H827 H 0.76437 0.65057 0.69837 0.0
H828 H 0.59651 0.50417 0.70812 0.0
H829 H 0.62784 0.48029 0.71174 0.0
H830 H 0.61186 0.48415 0.68687 0.0
H831 H 0.71293 0.64484 0.74272 0.0
H832 H 0.76418 0.66805 0.73227 0.0
H833 H 0.74568 0.62273 0.74697 0.0
C834 C 0.53807 1.03111 0.57739 0.0
C835 C 0.57248 1.04017 0.56556 0.0
C836 C 0.54013 1.02744 0.59805 0.0
C837 C 0.57767 1.03345 0.60725 0.0
C838 C 0.61255 1.04272 0.59541 0.0
C839 C 0.60946 1.0457 0.57473 0.0
C840 C 0.50203 1.01705 0.61005 0.0
C841 C 0.65333 1.04987 0.60461 0.0
C842 C 0.59544 0.06329 0.66295 0.0
C843 C 0.58546 1.02506 0.67116 0.0
C844 C 0.59344 0.06651 0.64225 0.0
C845 C 0.58057 1.03054 0.62929 0.0
C846 C 0.57021 0.99181 0.63742 0.0
C847 C 0.573 0.98959 0.65818 0.0
C848 C 0.60499 0.10849 0.63425 0.0
C849 C 0.55609 0.95262 0.62417 0.0
H850 H 0.50926 1.02654 0.57048 0.0
H851 H 0.63629 1.05284 0.56578 0.0
H852 H 0.49257 0.98803 0.61801 0.0
H853 H 0.50965 1.04266 0.62149 0.0
H854 H 0.47494 1.01244 0.60063 0.0
H855 H 0.67755 1.05682 0.59339 0.0
H856 H 0.66568 0.07648 0.61593 0.0
H857 H 0.64798 1.02173 0.61237 0.0
H858 H 0.60434 0.0908 0.67272 0.0
H859 H 0.56579 0.96001 0.66421 0.0
H860 H 0.57762 0.10626 0.62604 0.0
H861 H 0.63048 0.11759 0.62357 0.0
H862 H 0.6155 0.13373 0.64624 0.0
H863 H 0.52786 0.94586 0.6151 0.0
H864 H 0.54857 0.9248 0.63279 0.0
H865 H 0.58098 0.95744 0.6137 0.0
C866 C 0.61259 0.53108 0.91086 0.0
C867 C 0.57679 0.5137 0.89812 0.0
C868 C 0.60938 0.52988 0.93162 0.0
C869 C 0.56935 0.51184 0.94002 0.0
C870 C 0.53296 0.49404 0.92724 0.0
C871 C 0.53709 0.49463 0.90641 0.0
C872 C 0.64899 0.54824 0.94457 0.0
C873 C 0.48977 0.47543 0.93557 0.0
C874 C 0.56288 0.48212 0.99404 0.0
C875 C 0.56785 0.5183 0.00453 0.0
C876 C 0.56253 0.47923 0.9731 0.0
C877 C 0.56609 0.51281 0.96218 0.0
C878 C 0.56954 0.54873 0.97256 0.0
C879 C 0.57098 0.55129 0.9935 0.0
C880 C 0.55959 0.44068 0.96268 0.0
C881 C 0.57278 0.58504 0.96154 0.0
H882 H 0.64338 0.54547 0.90455 0.0
H883 H 0.50934 0.48139 0.89663 0.0
H884 H 0.65243 0.57543 0.95388 0.0
H885 H 0.64719 0.52462 0.95481 0.0
H886 H 0.6775 0.55886 0.9357 0.0
H887 H 0.46461 0.46217 0.9237 0.0
H888 H 0.48444 0.45027 0.94562 0.0
H889 H 0.48723 0.49995 0.94458 0.0
H890 H 0.55939 0.45588 0.00217 0.0
H891 H 0.57558 0.57979 0.00119 0.0
H892 H 0.58842 0.4497 0.9543 0.0
H893 H 0.53275 0.42627 0.95172 0.0
H894 H 0.55575 0.41673 0.97324 0.0
H895 H 0.603 0.60073 0.95392 0.0
H896 H 0.57096 0.60871 0.97163 0.0
H897 H 0.5473 0.57356 0.94991 0.0
C898 C 0.09832 0.56528 0.24629 0.0
C899 C 1.0716 0.53204 0.23278 0.0
C900 C 0.09353 0.56212 0.26695 0.0
C901 C 1.06104 0.52485 0.27449 0.0
C902 C 1.03391 0.49109 0.26099 0.0
C903 C 1.03957 0.49502 0.24033 0.0
C904 C 0.12336 0.59884 0.28072 0.0
C905 C 0.99878 0.4509 0.2684 0.0
C906 C 1.07573 0.50757 0.32882 0.0
C907 C 1.05219 0.52278 0.33872 0.0
C908 C 1.07789 0.5069 0.30794 0.0
C909 C 1.05581 0.5216 0.29652 0.0
C910 C 1.03099 0.53583 0.30634 0.0
C911 C 1.02955 0.53634 0.32725 0.0
C912 C 0.10474 0.49147 0.29814 0.0
C913 C 1.00692 0.55176 0.29479 0.0
H914 H 0.12331 0.59403 0.24076 0.0
H915 H 1.01865 0.46916 0.23009 0.0
H916 H 0.1056 0.61 0.28986 0.0
H917 H 0.13991 0.58889 0.29111 0.0
H918 H 0.14714 0.62553 0.27252 0.0
H919 H 0.9804 0.42755 0.25604 0.0
H920 H 1.01168 0.43675 0.2785 0.0
H921 H 0.97725 0.45766 0.27714 0.0
H922 H 1.09273 0.49626 0.33742 0.0
H923 H 1.01162 0.54861 0.33465 0.0
H924 H 0.13094 0.51758 0.29069 0.0
H925 H 1.08605 0.46646 0.28649 0.0
H926 H 0.11814 0.47897 0.30896 0.0
H927 H 1.0292 0.58083 0.28756 0.0
H928 H 0.98663 0.55877 0.30442 0.0
H929 H 0.98702 0.52829 0.2828 0.0
loop_
_geom_bond_atom_site_label_1
_geom_bond_atom_site_label_2
_geom_bond_distance
_geom_bond_site_symmetry_2
_ccdc_geom_bond_type
Eu0 C9 2.828 . S
Eu0 O11 2.392 1_655 S
Eu0 O13 2.418 . S
Eu0 O18 2.373 . S
Eu0 O21 2.488 . S
Eu0 O22 2.471 . S
Eu0 O23 2.349 . S
Eu1 O10 2.373 . S
Eu1 O14 2.488 . S
Eu1 O15 2.471 . S
Eu1 O16 2.349 . S
Eu1 O19 2.392 1_455 S
Eu1 O20 2.418 . S
Eu1 C30 2.828 . S
C2 O20 1.244 . S
C2 O23 1.265 1_455 S
C3 C4 1.379 . S
C3 C7 1.373 . S
C3 C9 1.505 . S
C4 C3 1.379 . S
C4 C6 1.369 . S
C4 H32 0.930 . S
C5 C7 1.383 . S
C5 C8 1.382 . S
C5 H33 0.930 . S
C6 C4 1.369 . S
C6 C8 1.392 . S
C6 H34 0.930 . S
C7 C3 1.373 . S
C7 C5 1.383 . S
C7 H35 0.931 . S
C8 C5 1.382 . S
C8 C6 1.392 . S
C9 Eu0 2.828 . S
C9 C3 1.505 . S
C9 O21 1.249 . S
C9 O22 1.244 . S
O10 Eu1 2.373 . S
O10 C12 1.258 . S
O11 Eu0 2.392 1_455 S
O11 C12 1.242 . S
C12 O10 1.258 . S
C12 O11 1.242 . S
O13 Eu0 2.418 . S
O13 C17 1.242 1_655 S
O14 Eu1 2.488 . S
O14 C30 1.249 . S
O15 Eu1 2.471 . S
O15 C30 1.244 . S
O16 Eu1 2.349 . S
O16 C17 1.267 . S
C17 O13 1.242 1_455 S
C17 O16 1.267 . S
O18 Eu0 2.373 . S
O18 C31 1.258 . S
O19 Eu1 2.392 1_655 S
O19 C31 1.242 . S
O20 Eu1 2.418 . S
O20 C2 1.244 . S
O21 Eu0 2.488 . S
O21 C9 1.249 . S
O22 Eu0 2.471 . S
O22 C9 1.244 . S
O23 Eu0 2.349 . S
O23 C2 1.265 1_655 S
C24 C25 1.379 . S
C24 C28 1.373 . S
C24 C30 1.505 . S
C25 C24 1.379 . S
C25 C27 1.369 . S
C25 H36 0.930 . S
C26 C28 1.383 . S
C26 C29 1.382 . S
C26 H37 0.930 . S
C27 C25 1.369 . S
C27 C29 1.392 . S
C27 H38 0.930 . S
C28 C24 1.373 . S
C28 C26 1.383 . S
C28 H39 0.931 . S
C29 C26 1.382 . S
C29 C27 1.392 . S
C30 Eu1 2.828 . S
C30 O14 1.249 . S
C30 O15 1.244 . S
C30 C24 1.505 . S
C31 O18 1.258 . S
C31 O19 1.242 . S
H32 C4 0.930 . S
H33 C5 0.930 . S
H34 C6 0.930 . S
H35 C7 0.931 . S
H36 C25 0.930 . S
H37 C26 0.930 . S
H38 C27 0.930 . S
H39 C28 0.931 . S
Eu40 C49 2.828 . S
Eu40 O51 2.392 1_565 S
Eu40 O53 2.418 . S
Eu40 O58 2.373 . S
Eu40 O61 2.488 . S
Eu40 O62 2.471 . S
Eu40 O63 2.347 1_565 S
Eu41 O50 2.373 . S
Eu41 O54 2.488 . S
Eu41 O55 2.471 . S
Eu41 O56 2.349 . S
Eu41 O59 2.392 1_545 S
Eu41 O60 2.418 . S
Eu41 C70 2.828 . S
C42 O60 1.244 . S
C42 O63 1.267 . S
C43 C44 1.379 . S
C43 C47 1.373 . S
C43 C49 1.505 . S
C44 C43 1.379 . S
C44 C46 1.369 . S
C44 H72 0.930 . S
C45 C47 1.383 . S
C45 C48 1.382 . S
C45 H73 0.930 . S
C46 C44 1.369 . S
C46 C48 1.392 . S
C46 H74 0.930 . S
C47 C43 1.373 . S
C47 C45 1.383 . S
C47 H75 0.931 . S
C48 C45 1.382 . S
C48 C46 1.392 . S
C49 Eu40 2.828 . S
C49 C43 1.505 . S
C49 O61 1.249 . S
C49 O62 1.244 . S
O50 Eu41 2.373 . S
O50 C52 1.258 . S
O51 Eu40 2.392 1_545 S
O51 C52 1.242 . S
C52 O50 1.258 . S
C52 O51 1.242 . S
O53 Eu40 2.418 . S
O53 C57 1.244 1_565 S
O54 Eu41 2.488 . S
O54 C70 1.249 . S
O55 Eu41 2.471 . S
O55 C70 1.244 . S
O56 Eu41 2.349 . S
O56 C57 1.265 . S
C57 O53 1.244 1_545 S
C57 O56 1.265 . S
O58 Eu40 2.373 . S
O58 C71 1.258 . S
O59 Eu41 2.392 1_565 S
O59 C71 1.242 . S
O60 Eu41 2.418 . S
O60 C42 1.244 . S
O61 Eu40 2.488 . S
O61 C49 1.249 . S
O62 Eu40 2.471 . S
O62 C49 1.244 . S
O63 Eu40 2.347 1_545 S
O63 C42 1.267 . S
C64 C65 1.379 . S
C64 C68 1.373 . S
C64 C70 1.505 . S
C65 C64 1.379 . S
C65 C67 1.369 . S
C65 H76 0.930 . S
C66 C68 1.383 . S
C66 C69 1.382 . S
C66 H77 0.930 . S
C67 C65 1.369 . S
C67 C69 1.392 . S
C67 H78 0.930 . S
C68 C64 1.373 . S
C68 C66 1.383 . S
C68 H79 0.931 . S
C69 C66 1.382 . S
C69 C67 1.392 . S
C70 Eu41 2.828 . S
C70 O54 1.249 . S
C70 O55 1.244 . S
C70 C64 1.505 . S
C71 O58 1.258 . S
C71 O59 1.242 . S
H72 C44 0.930 . S
H73 C45 0.930 . S
H74 C46 0.930 . S
H75 C47 0.931 . S
H76 C65 0.930 . S
H77 C66 0.930 . S
H78 C67 0.930 . S
H79 C68 0.931 . S
Eu80 C89 2.828 . S
Eu80 O91 2.392 . S
Eu80 O93 2.418 . S
Eu80 O98 2.373 . S
Eu80 O101 2.488 . S
Eu80 O102 2.471 . S
Eu80 O103 2.349 . S
Eu81 O90 2.373 . S
Eu81 O94 2.488 . S
Eu81 O95 2.471 . S
Eu81 O96 2.349 . S
Eu81 O99 2.392 . S
Eu81 O100 2.418 . S
Eu81 C110 2.828 . S
C82 O100 1.244 . S
C82 O103 1.265 . S
C83 C84 1.379 . S
C83 C87 1.373 . S
C83 C89 1.505 . S
C84 C83 1.379 . S
C84 C86 1.369 . S
C84 H112 0.930 . S
C85 C87 1.383 . S
C85 C88 1.382 . S
C85 H113 0.930 . S
C86 C84 1.369 . S
C86 C88 1.392 . S
C86 H114 0.930 . S
C87 C83 1.373 . S
C87 C85 1.383 . S
C87 H115 0.931 . S
C88 C85 1.382 . S
C88 C86 1.392 . S
C89 Eu80 2.828 . S
C89 C83 1.505 . S
C89 O101 1.249 . S
C89 O102 1.244 . S
O90 Eu81 2.373 . S
O90 C92 1.258 . S
O91 Eu80 2.392 . S
O91 C92 1.242 . S
C92 O90 1.258 . S
C92 O91 1.242 . S
O93 Eu80 2.418 . S
O93 C97 1.244 . S
O94 Eu81 2.488 . S
O94 C110 1.249 . S
O95 Eu81 2.471 . S
O95 C110 1.244 . S
O96 Eu81 2.349 . S
O96 C97 1.265 . S
C97 O93 1.244 . S
C97 O96 1.265 . S
O98 Eu80 2.373 . S
O98 C111 1.258 . S
O99 Eu81 2.392 . S
O99 C111 1.242 . S
O100 Eu81 2.418 . S
O100 C82 1.244 . S
O101 Eu80 2.488 . S
O101 C89 1.249 . S
O102 Eu80 2.471 . S
O102 C89 1.244 . S
O103 Eu80 2.349 . S
O103 C82 1.265 . S
C104 C105 1.379 . S
C104 C108 1.373 . S
C104 C110 1.505 . S
C105 C104 1.379 . S
C105 C107 1.369 . S
C105 H116 0.930 . S
C106 C108 1.383 . S
C106 C109 1.382 . S
C106 H117 0.930 . S
C107 C105 1.369 . S
C107 C109 1.392 . S
C107 H118 0.930 . S
C108 C104 1.373 . S
C108 C106 1.383 . S
C108 H119 0.931 . S
C109 C106 1.382 . S
C109 C107 1.392 . S
C110 Eu81 2.828 . S
C110 O94 1.249 . S
C110 O95 1.244 . S
C110 C104 1.505 . S
C111 O98 1.258 . S
C111 O99 1.242 . S
H112 C84 0.930 . S
H113 C85 0.930 . S
H114 C86 0.930 . S
H115 C87 0.931 . S
H116 C105 0.930 . S
H117 C106 0.930 . S
H118 C107 0.930 . S
H119 C108 0.931 . S
C120 C121 1.386 . S
C120 C122 1.397 . S
C120 H144 0.931 . S
C121 C120 1.386 . S
C121 C125 1.397 1_545 S
C122 C120 1.397 . S
C122 C123 1.384 . S
C122 H145 0.930 . S
C123 C122 1.384 . S
C123 C124 1.377 1_545 S
C123 C126 1.481 . S
C124 C123 1.377 1_565 S
C124 C125 1.389 . S
C124 H146 0.929 . S
C125 C121 1.397 1_565 S
C125 C124 1.389 . S
C125 H147 0.931 . S
C126 C123 1.481 . S
C126 C127 1.387 . S
C126 C131 1.391 . S
C127 C126 1.387 . S
C127 C128 1.401 . S
C127 H148 0.930 . S
C128 C127 1.401 . S
C128 C129 1.376 . S
C128 C137 1.511 . S
C129 C128 1.376 . S
C129 C130 1.392 1_545 S
C129 H150 0.931 . S
C130 C129 1.392 1_565 S
C130 C131 1.361 1_565 S
C130 C132 1.500 . S
C131 C126 1.391 . S
C131 C130 1.361 1_545 S
C131 H149 0.930 1_545 S
C132 C130 1.500 . S
C132 C133 1.371 . S
C132 C134 1.365 . S
C133 C132 1.371 . S
C133 C143 1.386 . S
C133 H151 0.931 . S
C134 C132 1.365 . S
C134 C135 1.409 . S
C134 H152 0.929 . S
C135 C134 1.409 . S
C135 C136 1.380 . S
C135 H153 0.930 . S
C136 C135 1.380 . S
C136 C143 1.357 . S
C137 C128 1.511 . S
C137 C138 1.341 . S
C137 C139 1.371 . S
C138 C137 1.341 . S
C138 C142 1.394 . S
C138 H154 0.930 . S
C139 C137 1.371 . S
C139 C140 1.392 . S
C139 H155 0.931 . S
C140 C139 1.392 . S
C140 C141 1.331 . S
C140 H158 0.932 . S
C141 C140 1.331 . S
C141 C142 1.336 . S
C142 C138 1.394 . S
C142 C141 1.336 . S
C142 H157 0.929 . S
C143 C133 1.386 . S
C143 C136 1.357 . S
C143 H156 0.928 . S
H144 C120 0.931 . S
H145 C122 0.930 . S
H146 C124 0.929 . S
H147 C125 0.931 . S
H148 C127 0.930 . S
H149 C131 0.930 1_565 S
H150 C129 0.931 . S
H151 C133 0.931 . S
H152 C134 0.929 . S
H153 C135 0.930 . S
H154 C138 0.930 . S
H155 C139 0.931 . S
H156 C143 0.928 . S
H157 C142 0.929 . S
H158 C140 0.932 . S
C159 C160 1.386 . S
C159 C161 1.397 . S
C159 H183 0.931 . S
C160 C159 1.386 . S
C160 C164 1.397 . S
C161 C159 1.397 . S
C161 C162 1.384 . S
C161 H184 0.930 . S
C162 C161 1.384 . S
C162 C163 1.377 . S
C162 C165 1.481 . S
C163 C162 1.377 . S
C163 C164 1.389 . S
C163 H185 0.929 . S
C164 C160 1.397 . S
C164 C163 1.389 . S
C164 H186 0.931 . S
C165 C162 1.481 . S
C165 C166 1.387 . S
C165 C170 1.390 . S
C166 C165 1.387 . S
C166 C167 1.401 . S
C166 H187 0.930 . S
C167 C166 1.401 . S
C167 C168 1.376 . S
C167 C176 1.511 . S
C168 C167 1.376 . S
C168 C169 1.392 . S
C168 H189 0.931 . S
C169 C168 1.392 . S
C169 C170 1.361 . S
C169 C171 1.500 . S
C170 C165 1.390 . S
C170 C169 1.361 . S
C170 H188 0.931 . S
C171 C169 1.500 . S
C171 C172 1.371 . S
C171 C173 1.365 . S
C172 C171 1.371 . S
C172 C182 1.386 . S
C172 H190 0.931 . S
C173 C171 1.365 . S
C173 C174 1.409 . S
C173 H191 0.929 . S
C174 C173 1.409 . S
C174 C175 1.380 . S
C174 H192 0.930 . S
C175 C174 1.380 . S
C175 C182 1.357 . S
C176 C167 1.511 . S
C176 C177 1.341 . S
C176 C178 1.371 . S
C177 C176 1.341 . S
C177 C181 1.394 . S
C177 H193 0.930 . S
C178 C176 1.371 . S
C178 C179 1.392 . S
C178 H194 0.931 . S
C179 C178 1.392 . S
C179 C180 1.331 . S
C179 H197 0.932 . S
C180 C179 1.331 . S
C180 C181 1.336 . S
C181 C177 1.394 . S
C181 C180 1.336 . S
C181 H196 0.929 . S
C182 C172 1.386 . S
C182 C175 1.357 . S
C182 H195 0.928 . S
H183 C159 0.931 . S
H184 C161 0.930 . S
H185 C163 0.929 . S
H186 C164 0.931 . S
H187 C166 0.930 . S
H188 C170 0.931 . S
H189 C168 0.931 . S
H190 C172 0.931 . S
H191 C173 0.929 . S
H192 C174 0.930 . S
H193 C177 0.930 . S
H194 C178 0.931 . S
H195 C182 0.928 . S
H196 C181 0.929 . S
H197 C179 0.932 . S
C198 C199 1.386 . S
C198 C200 1.397 . S
C198 H222 0.931 . S
C199 C198 1.386 . S
C199 C203 1.397 . S
C200 C198 1.397 . S
C200 C201 1.384 . S
C200 H223 0.930 . S
C201 C200 1.384 . S
C201 C202 1.377 . S
C201 C204 1.481 . S
C202 C201 1.377 . S
C202 C203 1.389 . S
C202 H224 0.929 1_455 S
C203 C199 1.397 . S
C203 C202 1.389 . S
C203 H225 0.931 1_455 S
C204 C201 1.481 . S
C204 C205 1.387 . S
C204 C209 1.390 . S
C205 C204 1.387 . S
C205 C206 1.401 . S
C205 H226 0.930 . S
C206 C205 1.401 . S
C206 C207 1.376 . S
C206 C215 1.511 . S
C207 C206 1.376 . S
C207 C208 1.392 . S
C207 H228 0.931 . S
C208 C207 1.392 . S
C208 C209 1.361 . S
C208 C210 1.500 1_455 S
C209 C204 1.390 . S
C209 C208 1.361 . S
C209 H227 0.931 1_455 S
C210 C208 1.500 1_655 S
C210 C211 1.371 . S
C210 C212 1.365 . S
C211 C210 1.371 . S
C211 C221 1.386 . S
C211 H229 0.931 1_655 S
C212 C210 1.365 . S
C212 C213 1.409 . S
C212 H230 0.929 . S
C213 C212 1.409 . S
C213 C214 1.380 . S
C213 H231 0.930 . S
C214 C213 1.380 . S
C214 C221 1.357 . S
C215 C206 1.511 . S
C215 C216 1.341 . S
C215 C217 1.371 . S
C216 C215 1.341 . S
C216 C220 1.394 . S
C216 H232 0.930 . S
C217 C215 1.371 . S
C217 C218 1.392 . S
C217 H233 0.931 . S
C218 C217 1.392 . S
C218 C219 1.331 . S
C218 H236 0.932 . S
C219 C218 1.331 . S
C219 C220 1.336 . S
C220 C216 1.394 . S
C220 C219 1.336 . S
C220 H235 0.929 . S
C221 C211 1.386 . S
C221 C214 1.357 . S
C221 H234 0.928 . S
H222 C198 0.931 . S
H223 C200 0.930 . S
H224 C202 0.929 1_655 S
H225 C203 0.931 1_655 S
H226 C205 0.930 . S
H227 C209 0.931 1_655 S
H228 C207 0.931 . S
H229 C211 0.931 1_455 S
H230 C212 0.929 . S
H231 C213 0.930 . S
H232 C216 0.930 . S
H233 C217 0.931 . S
H234 C221 0.928 . S
H235 C220 0.929 . S
H236 C218 0.932 . S
C237 C238 1.386 1_655 S
C237 C239 1.397 . S
C237 H261 0.931 . S
C238 C237 1.386 1_455 S
C238 C242 1.397 . S
C239 C237 1.397 . S
C239 C240 1.384 1_655 S
C239 H262 0.930 . S
C240 C239 1.384 1_455 S
C240 C241 1.377 . S
C240 C243 1.481 . S
C241 C240 1.377 . S
C241 C242 1.389 . S
C241 H263 0.929 . S
C242 C238 1.397 . S
C242 C241 1.389 . S
C242 H264 0.931 . S
C243 C240 1.481 . S
C243 C244 1.387 1_455 S
C243 C248 1.390 . S
C244 C243 1.387 1_655 S
C244 C245 1.401 . S
C244 H265 0.930 . S
C245 C244 1.401 . S
C245 C246 1.376 1_655 S
C245 C254 1.511 . S
C246 C245 1.376 1_455 S
C246 C247 1.392 . S
C246 H267 0.931 . S
C247 C246 1.392 . S
C247 C248 1.361 . S
C247 C249 1.500 . S
C248 C243 1.390 . S
C248 C247 1.361 . S
C248 H266 0.931 . S
C249 C247 1.500 . S
C249 C250 1.371 . S
C249 C251 1.365 . S
C250 C249 1.371 . S
C250 C260 1.386 . S
C250 H268 0.931 . S
C251 C249 1.365 . S
C251 C252 1.409 . S
C251 H269 0.929 . S
C252 C251 1.409 . S
C252 C253 1.380 . S
C252 H270 0.930 . S
C253 C252 1.380 . S
C253 C260 1.357 . S
C254 C245 1.511 . S
C254 C255 1.341 . S
C254 C256 1.371 . S
C255 C254 1.341 . S
C255 C259 1.394 . S
C255 H271 0.930 . S
C256 C254 1.371 . S
C256 C257 1.392 . S
C256 H272 0.931 . S
C257 C256 1.392 . S
C257 C258 1.331 . S
C257 H275 0.932 . S
C258 C257 1.331 . S
C258 C259 1.336 . S
C259 C255 1.394 . S
C259 C258 1.336 . S
C259 H274 0.929 . S
C260 C250 1.386 . S
C260 C253 1.357 . S
C260 H273 0.928 . S
H261 C237 0.931 . S
H262 C239 0.930 . S
H263 C241 0.929 . S
H264 C242 0.931 . S
H265 C244 0.930 . S
H266 C248 0.931 . S
H267 C246 0.931 . S
H268 C250 0.931 . S
H269 C251 0.929 . S
H270 C252 0.930 . S
H271 C255 0.930 . S
H272 C256 0.931 . S
H273 C260 0.928 . S
H274 C259 0.929 . S
H275 C257 0.932 . S
C276 C277 1.386 1_565 S
C276 C278 1.397 . S
C276 H300 0.931 . S
C277 C276 1.386 1_545 S
C277 C281 1.397 . S
C278 C276 1.397 . S
C278 C279 1.384 1_565 S
C278 H301 0.930 . S
C279 C278 1.384 1_545 S
C279 C280 1.377 . S
C279 C282 1.481 . S
C280 C279 1.377 . S
C280 C281 1.389 . S
C280 H302 0.929 . S
C281 C277 1.397 . S
C281 C280 1.389 . S
C281 H303 0.931 . S
C282 C279 1.481 . S
C282 C283 1.387 1_545 S
C282 C287 1.390 . S
C283 C282 1.387 1_565 S
C283 C284 1.401 . S
C283 H304 0.930 . S
C284 C283 1.401 . S
C284 C285 1.376 1_565 S
C284 C293 1.511 . S
C285 C284 1.376 1_545 S
C285 C286 1.392 . S
C285 H306 0.931 . S
C286 C285 1.392 . S
C286 C287 1.361 . S
C286 C288 1.500 . S
C287 C282 1.390 . S
C287 C286 1.361 . S
C287 H305 0.931 . S
C288 C286 1.500 . S
C288 C289 1.371 . S
C288 C290 1.365 . S
C289 C288 1.371 . S
C289 C299 1.386 . S
C289 H307 0.931 . S
C290 C288 1.365 . S
C290 C291 1.409 . S
C290 H308 0.929 . S
C291 C290 1.409 . S
C291 C292 1.380 . S
C291 H309 0.930 . S
C292 C291 1.380 . S
C292 C299 1.357 . S
C293 C284 1.511 . S
C293 C294 1.341 . S
C293 C295 1.371 . S
C294 C293 1.341 . S
C294 C298 1.394 . S
C294 H310 0.930 . S
C295 C293 1.371 . S
C295 C296 1.392 . S
C295 H311 0.931 . S
C296 C295 1.392 . S
C296 C297 1.331 . S
C296 H314 0.932 . S
C297 C296 1.331 . S
C297 C298 1.336 . S
C298 C294 1.394 . S
C298 C297 1.336 . S
C298 H313 0.929 . S
C299 C289 1.386 . S
C299 C292 1.357 . S
C299 H312 0.928 . S
H300 C276 0.931 . S
H301 C278 0.930 . S
H302 C280 0.929 . S
H303 C281 0.931 . S
H304 C283 0.930 . S
H305 C287 0.931 . S
H306 C285 0.931 . S
H307 C289 0.931 . S
H308 C290 0.929 . S
H309 C291 0.930 . S
H310 C294 0.930 . S
H311 C295 0.931 . S
H312 C299 0.928 . S
H313 C298 0.929 . S
H314 C296 0.932 . S
C315 C316 1.386 . S
C315 C317 1.397 . S
C315 H339 0.931 . S
C316 C315 1.386 . S
C316 C320 1.397 . S
C317 C315 1.397 . S
C317 C318 1.384 . S
C317 H340 0.930 . S
C318 C317 1.384 . S
C318 C319 1.377 . S
C318 C321 1.481 . S
C319 C318 1.377 . S
C319 C320 1.389 . S
C319 H341 0.929 . S
C320 C316 1.397 . S
C320 C319 1.389 . S
C320 H342 0.931 . S
C321 C318 1.481 . S
C321 C322 1.387 . S
C321 C326 1.390 . S
C322 C321 1.387 . S
C322 C323 1.401 . S
C322 H343 0.930 . S
C323 C322 1.401 . S
C323 C324 1.376 . S
C323 C332 1.511 . S
C324 C323 1.376 . S
C324 C325 1.392 . S
C324 H345 0.931 . S
C325 C324 1.392 . S
C325 C326 1.361 . S
C325 C327 1.500 . S
C326 C321 1.390 . S
C326 C325 1.361 . S
C326 H344 0.931 . S
C327 C325 1.500 . S
C327 C328 1.371 . S
C327 C329 1.365 . S
C328 C327 1.371 . S
C328 C338 1.386 . S
C328 H346 0.931 . S
C329 C327 1.365 . S
C329 C330 1.409 . S
C329 H347 0.929 . S
C330 C329 1.409 . S
C330 C331 1.380 . S
C330 H348 0.930 . S
C331 C330 1.380 . S
C331 C338 1.357 . S
C332 C323 1.511 . S
C332 C333 1.341 . S
C332 C334 1.371 . S
C333 C332 1.341 . S
C333 C337 1.394 . S
C333 H349 0.930 . S
C334 C332 1.371 . S
C334 C335 1.392 . S
C334 H350 0.931 . S
C335 C334 1.392 . S
C335 C336 1.331 . S
C335 H353 0.932 . S
C336 C335 1.331 . S
C336 C337 1.336 . S
C337 C333 1.394 . S
C337 C336 1.336 . S
C337 H352 0.929 . S
C338 C328 1.386 . S
C338 C331 1.357 . S
C338 H351 0.928 . S
H339 C315 0.931 . S
H340 C317 0.930 . S
H341 C319 0.929 . S
H342 C320 0.931 . S
H343 C322 0.930 . S
H344 C326 0.931 . S
H345 C324 0.931 . S
H346 C328 0.931 . S
H347 C329 0.929 . S
H348 C330 0.930 . S
H349 C333 0.930 . S
H350 C334 0.931 . S
H351 C338 0.928 . S
H352 C337 0.929 . S
H353 C335 0.932 . S
C354 C355 1.391 . S
C354 C356 1.394 . S
C354 H370 0.931 . S
C355 C354 1.391 . S
C355 C359 1.376 . S
C356 C354 1.394 . S
C356 C357 1.369 . S
C356 C360 1.531 . S
C357 C356 1.369 . S
C357 C358 1.410 . S
C357 C365 1.503 . S
C358 C357 1.410 . S
C358 C359 1.392 . S
C358 C361 1.511 . S
C359 C355 1.376 . S
C359 C358 1.392 . S
C359 H371 0.929 . S
C360 C356 1.531 . S
C360 H372 0.960 . S
C360 H373 0.962 . S
C360 H374 0.960 . S
C361 C358 1.511 . S
C361 H375 0.961 . S
C361 H376 0.961 . S
C361 H377 0.961 . S
C362 C363 1.370 . S
C362 C364 1.363 . S
C362 H378 0.931 . S
C363 C362 1.370 . S
C363 C367 1.408 . S
C364 C362 1.363 . S
C364 C365 1.370 . S
C364 C368 1.524 . S
C365 C357 1.503 . S
C365 C364 1.370 . S
C365 C366 1.403 . S
C366 C365 1.403 . S
C366 C367 1.404 . S
C366 C369 1.539 . S
C367 C363 1.408 . S
C367 C366 1.404 . S
C367 H379 0.930 . S
C368 C364 1.524 . S
C368 H380 0.956 . S
C368 H381 0.961 . S
C368 H382 0.961 . S
C369 C366 1.539 . S
C369 H383 0.958 . S
C369 H384 0.961 . S
C369 H385 0.960 . S
H370 C354 0.931 . S
H371 C359 0.929 . S
H372 C360 0.960 . S
H373 C360 0.962 . S
H374 C360 0.960 . S
H375 C361 0.961 . S
H376 C361 0.961 . S
H377 C361 0.961 . S
H378 C362 0.931 . S
H379 C367 0.930 . S
H380 C368 0.956 . S
H381 C368 0.961 . S
H382 C368 0.961 . S
H383 C369 0.958 . S
H384 C369 0.961 . S
H385 C369 0.960 . S
C386 C387 1.391 . S
C386 C388 1.394 . S
C386 H402 0.931 . S
C387 C386 1.391 . S
C387 C391 1.376 . S
C388 C386 1.394 . S
C388 C389 1.369 . S
C388 C392 1.531 . S
C389 C388 1.369 . S
C389 C390 1.410 . S
C389 C397 1.503 . S
C390 C389 1.410 . S
C390 C391 1.392 . S
C390 C393 1.511 . S
C391 C387 1.376 . S
C391 C390 1.392 . S
C391 H403 0.929 . S
C392 C388 1.531 . S
C392 H404 0.960 . S
C392 H405 0.962 . S
C392 H406 0.960 . S
C393 C390 1.511 . S
C393 H407 0.961 . S
C393 H408 0.961 . S
C393 H409 0.961 . S
C394 C395 1.370 . S
C394 C396 1.363 . S
C394 H410 0.931 . S
C395 C394 1.370 . S
C395 C399 1.408 . S
C396 C394 1.363 . S
C396 C397 1.370 . S
C396 C400 1.524 . S
C397 C389 1.503 . S
C397 C396 1.370 . S
C397 C398 1.403 . S
C398 C397 1.403 . S
C398 C399 1.404 . S
C398 C401 1.539 . S
C399 C395 1.408 . S
C399 C398 1.404 . S
C399 H411 0.930 . S
C400 C396 1.524 . S
C400 H412 0.956 . S
C400 H413 0.961 . S
C400 H414 0.961 . S
C401 C398 1.539 . S
C401 H415 0.958 . S
C401 H416 0.961 . S
C401 H417 0.960 . S
H402 C386 0.931 . S
H403 C391 0.929 . S
H404 C392 0.960 . S
H405 C392 0.962 . S
H406 C392 0.960 . S
H407 C393 0.961 . S
H408 C393 0.961 . S
H409 C393 0.961 . S
H410 C394 0.931 . S
H411 C399 0.930 . S
H412 C400 0.956 . S
H413 C400 0.961 . S
H414 C400 0.961 . S
H415 C401 0.958 . S
H416 C401 0.961 . S
H417 C401 0.960 . S
C418 C419 1.391 . S
C418 C420 1.394 . S
C418 H434 0.931 . S
C419 C418 1.391 . S
C419 C423 1.376 . S
C420 C418 1.394 . S
C420 C421 1.369 . S
C420 C424 1.531 . S
C421 C420 1.369 . S
C421 C422 1.410 . S
C421 C429 1.503 . S
C422 C421 1.410 . S
C422 C423 1.392 . S
C422 C425 1.511 . S
C423 C419 1.376 . S
C423 C422 1.392 . S
C423 H435 0.929 . S
C424 C420 1.531 . S
C424 H436 0.960 . S
C424 H437 0.962 . S
C424 H438 0.960 . S
C425 C422 1.511 . S
C425 H439 0.961 . S
C425 H440 0.961 . S
C425 H441 0.961 . S
C426 C427 1.370 . S
C426 C428 1.363 . S
C426 H442 0.931 . S
C427 C426 1.370 . S
C427 C431 1.408 . S
C428 C426 1.363 . S
C428 C429 1.370 . S
C428 C432 1.524 . S
C429 C421 1.503 . S
C429 C428 1.370 . S
C429 C430 1.403 . S
C430 C429 1.403 . S
C430 C431 1.404 . S
C430 C433 1.539 . S
C431 C427 1.408 . S
C431 C430 1.404 . S
C431 H443 0.930 . S
C432 C428 1.524 . S
C432 H444 0.956 . S
C432 H445 0.961 . S
C432 H446 0.961 . S
C433 C430 1.539 . S
C433 H447 0.958 . S
C433 H448 0.961 . S
C433 H449 0.960 . S
H434 C418 0.931 . S
H435 C423 0.929 . S
H436 C424 0.960 . S
H437 C424 0.962 . S
H438 C424 0.960 . S
H439 C425 0.961 . S
H440 C425 0.961 . S
H441 C425 0.961 . S
H442 C426 0.931 . S
H443 C431 0.930 . S
H444 C432 0.956 . S
H445 C432 0.961 . S
H446 C432 0.961 . S
H447 C433 0.958 . S
H448 C433 0.961 . S
H449 C433 0.960 . S
C450 C451 1.391 . S
C450 C452 1.394 . S
C450 H466 0.931 . S
C451 C450 1.391 . S
C451 C455 1.376 . S
C452 C450 1.394 . S
C452 C453 1.369 . S
C452 C456 1.531 . S
C453 C452 1.369 . S
C453 C454 1.410 . S
C453 C461 1.503 . S
C454 C453 1.410 . S
C454 C455 1.392 . S
C454 C457 1.511 . S
C455 C451 1.376 . S
C455 C454 1.392 . S
C455 H467 0.929 . S
C456 C452 1.531 . S
C456 H468 0.960 . S
C456 H469 0.962 . S
C456 H470 0.960 . S
C457 C454 1.511 . S
C457 H471 0.961 . S
C457 H472 0.961 . S
C457 H473 0.961 . S
C458 C459 1.370 . S
C458 C460 1.363 . S
C458 H474 0.931 . S
C459 C458 1.370 . S
C459 C463 1.408 . S
C460 C458 1.363 . S
C460 C461 1.370 . S
C460 C464 1.524 . S
C461 C453 1.503 . S
C461 C460 1.370 . S
C461 C462 1.403 . S
C462 C461 1.403 . S
C462 C463 1.404 . S
C462 C465 1.539 . S
C463 C459 1.408 . S
C463 C462 1.404 . S
C463 H475 0.930 . S
C464 C460 1.524 . S
C464 H476 0.956 . S
C464 H477 0.961 . S
C464 H478 0.961 . S
C465 C462 1.539 . S
C465 H479 0.958 . S
C465 H480 0.961 . S
C465 H481 0.960 . S
H466 C450 0.931 . S
H467 C455 0.929 . S
H468 C456 0.960 . S
H469 C456 0.962 . S
H470 C456 0.960 . S
H471 C457 0.961 . S
H472 C457 0.961 . S
H473 C457 0.961 . S
H474 C458 0.931 . S
H475 C463 0.930 . S
H476 C464 0.956 . S
H477 C464 0.961 . S
H478 C464 0.961 . S
H479 C465 0.958 . S
H480 C465 0.961 . S
H481 C465 0.960 . S
C482 C483 1.391 . S
C482 C484 1.394 . S
C482 H498 0.931 . S
C483 C482 1.391 . S
C483 C487 1.376 . S
C484 C482 1.394 . S
C484 C485 1.369 . S
C484 C488 1.531 . S
C485 C484 1.369 . S
C485 C486 1.410 . S
C485 C493 1.503 . S
C486 C485 1.410 . S
C486 C487 1.392 . S
C486 C489 1.511 . S
C487 C483 1.376 . S
C487 C486 1.392 . S
C487 H499 0.929 . S
C488 C484 1.531 . S
C488 H500 0.960 . S
C488 H501 0.962 . S
C488 H502 0.960 . S
C489 C486 1.511 . S
C489 H503 0.961 . S
C489 H504 0.961 . S
C489 H505 0.961 . S
C490 C491 1.370 . S
C490 C492 1.363 . S
C490 H506 0.931 . S
C491 C490 1.370 . S
C491 C495 1.408 . S
C492 C490 1.363 . S
C492 C493 1.370 . S
C492 C496 1.524 . S
C493 C485 1.503 . S
C493 C492 1.370 . S
C493 C494 1.403 . S
C494 C493 1.403 . S
C494 C495 1.404 . S
C494 C497 1.539 . S
C495 C491 1.408 . S
C495 C494 1.404 . S
C495 H507 0.930 . S
C496 C492 1.524 . S
C496 H508 0.956 . S
C496 H509 0.961 . S
C496 H510 0.961 . S
C497 C494 1.539 . S
C497 H511 0.958 . S
C497 H512 0.961 . S
C497 H513 0.960 . S
H498 C482 0.931 . S
H499 C487 0.929 . S
H500 C488 0.960 . S
H501 C488 0.962 . S
H502 C488 0.960 . S
H503 C489 0.961 . S
H504 C489 0.961 . S
H505 C489 0.961 . S
H506 C490 0.931 . S
H507 C495 0.930 . S
H508 C496 0.956 . S
H509 C496 0.961 . S
H510 C496 0.961 . S
H511 C497 0.958 . S
H512 C497 0.961 . S
H513 C497 0.960 . S
C514 C515 1.391 . S
C514 C516 1.394 . S
C514 H530 0.931 . S
C515 C514 1.391 . S
C515 C519 1.376 . S
C516 C514 1.394 . S
C516 C517 1.369 . S
C516 C520 1.531 . S
C517 C516 1.369 . S
C517 C518 1.410 . S
C517 C525 1.503 . S
C518 C517 1.410 . S
C518 C519 1.392 . S
C518 C521 1.511 . S
C519 C515 1.376 . S
C519 C518 1.392 . S
C519 H531 0.929 . S
C520 C516 1.531 . S
C520 H532 0.960 . S
C520 H533 0.962 . S
C520 H534 0.960 . S
C521 C518 1.511 . S
C521 H535 0.961 . S
C521 H536 0.961 . S
C521 H537 0.961 . S
C522 C523 1.370 . S
C522 C524 1.363 . S
C522 H538 0.931 . S
C523 C522 1.370 . S
C523 C527 1.408 . S
C524 C522 1.363 . S
C524 C525 1.370 . S
C524 C528 1.524 . S
C525 C517 1.503 . S
C525 C524 1.370 . S
C525 C526 1.403 . S
C526 C525 1.403 . S
C526 C527 1.404 . S
C526 C529 1.539 . S
C527 C523 1.408 . S
C527 C526 1.404 . S
C527 H539 0.930 . S
C528 C524 1.524 . S
C528 H540 0.956 . S
C528 H541 0.961 . S
C528 H542 0.961 . S
C529 C526 1.539 . S
C529 H543 0.958 . S
C529 H544 0.961 . S
C529 H545 0.960 . S
H530 C514 0.931 . S
H531 C519 0.929 . S
H532 C520 0.960 . S
H533 C520 0.962 . S
H534 C520 0.960 . S
H535 C521 0.961 . S
H536 C521 0.961 . S
H537 C521 0.961 . S
H538 C522 0.931 . S
H539 C527 0.930 . S
H540 C528 0.956 . S
H541 C528 0.961 . S
H542 C528 0.961 . S
H543 C529 0.958 . S
H544 C529 0.961 . S
H545 C529 0.960 . S
C546 C547 1.391 . S
C546 C548 1.394 . S
C546 H562 0.931 . S
C547 C546 1.391 . S
C547 C551 1.376 . S
C548 C546 1.394 . S
C548 C549 1.369 . S
C548 C552 1.531 . S
C549 C548 1.369 . S
C549 C550 1.410 . S
C549 C557 1.503 . S
C550 C549 1.410 . S
C550 C551 1.392 . S
C550 C553 1.511 . S
C551 C547 1.376 . S
C551 C550 1.392 . S
C551 H563 0.929 . S
C552 C548 1.531 . S
C552 H564 0.960 . S
C552 H565 0.962 . S
C552 H566 0.960 . S
C553 C550 1.511 . S
C553 H567 0.961 . S
C553 H568 0.961 . S
C553 H569 0.961 . S
C554 C555 1.370 . S
C554 C556 1.363 . S
C554 H570 0.931 . S
C555 C554 1.370 . S
C555 C559 1.408 . S
C556 C554 1.363 . S
C556 C557 1.370 . S
C556 C560 1.524 . S
C557 C549 1.503 . S
C557 C556 1.370 . S
C557 C558 1.403 . S
C558 C557 1.403 . S
C558 C559 1.404 . S
C558 C561 1.539 . S
C559 C555 1.408 . S
C559 C558 1.404 . S
C559 H571 0.930 . S
C560 C556 1.524 . S
C560 H572 0.956 . S
C560 H573 0.961 . S
C560 H574 0.961 . S
C561 C558 1.539 . S
C561 H575 0.958 . S
C561 H576 0.961 . S
C561 H577 0.960 . S
H562 C546 0.931 . S
H563 C551 0.929 . S
H564 C552 0.960 . S
H565 C552 0.962 . S
H566 C552 0.960 . S
H567 C553 0.961 . S
H568 C553 0.961 . S
H569 C553 0.961 . S
H570 C554 0.931 . S
H571 C559 0.930 . S
H572 C560 0.956 . S
H573 C560 0.961 . S
H574 C560 0.961 . S
H575 C561 0.958 . S
H576 C561 0.961 . S
H577 C561 0.960 . S
C578 C579 1.391 . S
C578 C580 1.394 . S
C578 H594 0.931 . S
C579 C578 1.391 . S
C579 C583 1.376 . S
C580 C578 1.394 . S
C580 C581 1.369 . S
C580 C584 1.531 . S
C581 C580 1.369 . S
C581 C582 1.410 . S
C581 C589 1.503 . S
C582 C581 1.410 . S
C582 C583 1.392 . S
C582 C585 1.511 . S
C583 C579 1.376 . S
C583 C582 1.392 . S
C583 H595 0.929 . S
C584 C580 1.531 . S
C584 H596 0.960 . S
C584 H597 0.962 . S
C584 H598 0.960 . S
C585 C582 1.511 . S
C585 H599 0.961 . S
C585 H600 0.961 . S
C585 H601 0.961 . S
C586 C587 1.370 . S
C586 C588 1.363 . S
C586 H602 0.931 . S
C587 C586 1.370 . S
C587 C591 1.408 . S
C588 C586 1.363 . S
C588 C589 1.370 . S
C588 C592 1.524 . S
C589 C581 1.503 . S
C589 C588 1.370 . S
C589 C590 1.403 . S
C590 C589 1.403 . S
C590 C591 1.404 . S
C590 C593 1.539 . S
C591 C587 1.408 . S
C591 C590 1.404 . S
C591 H603 0.930 . S
C592 C588 1.524 . S
C592 H604 0.956 . S
C592 H605 0.961 . S
C592 H606 0.961 . S
C593 C590 1.539 . S
C593 H607 0.958 . S
C593 H608 0.961 . S
C593 H609 0.960 . S
H594 C578 0.931 . S
H595 C583 0.929 . S
H596 C584 0.960 . S
H597 C584 0.962 . S
H598 C584 0.960 . S
H599 C585 0.961 . S
H600 C585 0.961 . S
H601 C585 0.961 . S
H602 C586 0.931 . S
H603 C591 0.930 . S
H604 C592 0.956 . S
H605 C592 0.961 . S
H606 C592 0.961 . S
H607 C593 0.958 . S
H608 C593 0.961 . S
H609 C593 0.960 . S
C610 C611 1.391 . S
C610 C612 1.394 . S
C610 H626 0.931 . S
C611 C610 1.391 . S
C611 C615 1.376 . S
C612 C610 1.394 . S
C612 C613 1.369 . S
C612 C616 1.531 . S
C613 C612 1.369 . S
C613 C614 1.410 . S
C613 C621 1.503 . S
C614 C613 1.410 . S
C614 C615 1.392 . S
C614 C617 1.511 . S
C615 C611 1.376 . S
C615 C614 1.392 . S
C615 H627 0.929 . S
C616 C612 1.531 . S
C616 H628 0.960 . S
C616 H629 0.962 . S
C616 H630 0.960 . S
C617 C614 1.511 . S
C617 H631 0.961 . S
C617 H632 0.961 . S
C617 H633 0.961 . S
C618 C619 1.370 . S
C618 C620 1.363 . S
C618 H634 0.931 . S
C619 C618 1.370 . S
C619 C623 1.408 . S
C620 C618 1.363 . S
C620 C621 1.370 . S
C620 C624 1.524 . S
C621 C613 1.503 . S
C621 C620 1.370 . S
C621 C622 1.403 . S
C622 C621 1.403 . S
C622 C623 1.404 . S
C622 C625 1.539 . S
C623 C619 1.408 . S
C623 C622 1.404 . S
C623 H635 0.930 . S
C624 C620 1.524 . S
C624 H636 0.956 . S
C624 H637 0.961 . S
C624 H638 0.961 . S
C625 C622 1.539 . S
C625 H639 0.958 . S
C625 H640 0.961 . S
C625 H641 0.960 . S
H626 C610 0.931 . S
H627 C615 0.929 . S
H628 C616 0.960 . S
H629 C616 0.962 . S
H630 C616 0.960 . S
H631 C617 0.961 . S
H632 C617 0.961 . S
H633 C617 0.961 . S
H634 C618 0.931 . S
H635 C623 0.930 . S
H636 C624 0.956 . S
H637 C624 0.961 . S
H638 C624 0.961 . S
H639 C625 0.958 . S
H640 C625 0.961 . S
H641 C625 0.960 . S
C642 C643 1.391 . S
C642 C644 1.394 . S
C642 H658 0.931 . S
C643 C642 1.391 . S
C643 C647 1.376 . S
C644 C642 1.394 . S
C644 C645 1.369 . S
C644 C648 1.531 . S
C645 C644 1.369 . S
C645 C646 1.410 . S
C645 C653 1.503 . S
C646 C645 1.410 . S
C646 C647 1.392 . S
C646 C649 1.511 . S
C647 C643 1.376 . S
C647 C646 1.392 . S
C647 H659 0.929 . S
C648 C644 1.531 . S
C648 H660 0.960 . S
C648 H661 0.962 . S
C648 H662 0.960 . S
C649 C646 1.511 . S
C649 H663 0.961 . S
C649 H664 0.961 . S
C649 H665 0.961 . S
C650 C651 1.370 . S
C650 C652 1.363 . S
C650 H666 0.931 . S
C651 C650 1.370 . S
C651 C655 1.408 . S
C652 C650 1.363 . S
C652 C653 1.370 . S
C652 C656 1.524 . S
C653 C645 1.503 . S
C653 C652 1.370 . S
C653 C654 1.403 . S
C654 C653 1.403 . S
C654 C655 1.404 . S
C654 C657 1.539 . S
C655 C651 1.408 . S
C655 C654 1.404 . S
C655 H667 0.930 . S
C656 C652 1.524 . S
C656 H668 0.956 . S
C656 H669 0.961 . S
C656 H670 0.961 . S
C657 C654 1.539 . S
C657 H671 0.958 . S
C657 H672 0.961 . S
C657 H673 0.960 . S
H658 C642 0.931 . S
H659 C647 0.929 . S
H660 C648 0.960 . S
H661 C648 0.962 . S
H662 C648 0.960 . S
H663 C649 0.961 . S
H664 C649 0.961 . S
H665 C649 0.961 . S
H666 C650 0.931 . S
H667 C655 0.930 . S
H668 C656 0.956 . S
H669 C656 0.961 . S
H670 C656 0.961 . S
H671 C657 0.958 . S
H672 C657 0.961 . S
H673 C657 0.960 . S
C674 C675 1.391 . S
C674 C676 1.394 . S
C674 H690 0.931 . S
C675 C674 1.391 . S
C675 C679 1.376 . S
C676 C674 1.394 . S
C676 C677 1.369 . S
C676 C680 1.531 . S
C677 C676 1.369 . S
C677 C678 1.410 . S
C677 C685 1.503 . S
C678 C677 1.410 . S
C678 C679 1.392 . S
C678 C681 1.511 . S
C679 C675 1.376 . S
C679 C678 1.392 . S
C679 H691 0.929 . S
C680 C676 1.531 . S
C680 H692 0.960 . S
C680 H693 0.962 . S
C680 H694 0.960 . S
C681 C678 1.511 . S
C681 H695 0.961 . S
C681 H696 0.961 . S
C681 H697 0.961 . S
C682 C683 1.370 . S
C682 C684 1.363 . S
C682 H698 0.931 . S
C683 C682 1.370 . S
C683 C687 1.408 . S
C684 C682 1.363 . S
C684 C685 1.370 . S
C684 C688 1.524 . S
C685 C677 1.503 . S
C685 C684 1.370 . S
C685 C686 1.403 . S
C686 C685 1.403 . S
C686 C687 1.404 . S
C686 C689 1.539 . S
C687 C683 1.408 . S
C687 C686 1.404 . S
C687 H699 0.930 . S
C688 C684 1.524 . S
C688 H700 0.956 . S
C688 H701 0.961 . S
C688 H702 0.961 . S
C689 C686 1.539 . S
C689 H703 0.958 . S
C689 H704 0.961 . S
C689 H705 0.960 . S
H690 C674 0.931 . S
H691 C679 0.929 . S
H692 C680 0.960 . S
H693 C680 0.962 . S
H694 C680 0.960 . S
H695 C681 0.961 . S
H696 C681 0.961 . S
H697 C681 0.961 . S
H698 C682 0.931 . S
H699 C687 0.930 . S
H700 C688 0.956 . S
H701 C688 0.961 . S
H702 C688 0.961 . S
H703 C689 0.958 . S
H704 C689 0.961 . S
H705 C689 0.960 . S
C706 C707 1.391 . S
C706 C708 1.394 . S
C706 H722 0.931 . S
C707 C706 1.391 . S
C707 C711 1.376 . S
C708 C706 1.394 . S
C708 C709 1.369 . S
C708 C712 1.531 . S
C709 C708 1.369 . S
C709 C710 1.410 . S
C709 C717 1.503 . S
C710 C709 1.410 . S
C710 C711 1.392 . S
C710 C713 1.511 . S
C711 C707 1.376 . S
C711 C710 1.392 . S
C711 H723 0.929 . S
C712 C708 1.531 . S
C712 H724 0.960 . S
C712 H725 0.962 . S
C712 H726 0.960 . S
C713 C710 1.511 . S
C713 H727 0.961 . S
C713 H728 0.961 . S
C713 H729 0.961 . S
C714 C715 1.370 . S
C714 C716 1.363 . S
C714 H730 0.931 . S
C715 C714 1.370 . S
C715 C719 1.408 . S
C716 C714 1.363 . S
C716 C717 1.370 . S
C716 C720 1.524 . S
C717 C709 1.503 . S
C717 C716 1.370 . S
C717 C718 1.403 . S
C718 C717 1.403 . S
C718 C719 1.404 . S
C718 C721 1.539 . S
C719 C715 1.408 . S
C719 C718 1.404 . S
C719 H731 0.930 . S
C720 C716 1.524 . S
C720 H732 0.956 . S
C720 H733 0.961 . S
C720 H734 0.961 . S
C721 C718 1.539 . S
C721 H735 0.958 . S
C721 H736 0.961 . S
C721 H737 0.960 . S
H722 C706 0.931 . S
H723 C711 0.929 . S
H724 C712 0.960 . S
H725 C712 0.962 . S
H726 C712 0.960 . S
H727 C713 0.961 . S
H728 C713 0.961 . S
H729 C713 0.961 . S
H730 C714 0.931 . S
H731 C719 0.930 . S
H732 C720 0.956 . S
H733 C720 0.961 . S
H734 C720 0.961 . S
H735 C721 0.958 . S
H736 C721 0.961 . S
H737 C721 0.960 . S
C738 C739 1.391 . S
C738 C740 1.394 . S
C738 H754 0.931 . S
C739 C738 1.391 . S
C739 C743 1.376 1_455 S
C740 C738 1.394 . S
C740 C741 1.369 . S
C740 C744 1.531 . S
C741 C740 1.369 . S
C741 C742 1.410 1_455 S
C741 C749 1.503 . S
C742 C741 1.410 1_655 S
C742 C743 1.392 . S
C742 C745 1.511 . S
C743 C739 1.376 1_655 S
C743 C742 1.392 . S
C743 H755 0.929 . S
C744 C740 1.531 . S
C744 H756 0.960 . S
C744 H757 0.962 . S
C744 H758 0.960 . S
C745 C742 1.511 . S
C745 H759 0.961 . S
C745 H760 0.961 . S
C745 H761 0.961 . S
C746 C747 1.370 . S
C746 C748 1.363 . S
C746 H762 0.931 . S
C747 C746 1.370 . S
C747 C751 1.409 1_455 S
C748 C746 1.363 . S
C748 C749 1.370 . S
C748 C752 1.524 . S
C749 C741 1.503 . S
C749 C748 1.370 . S
C749 C750 1.403 1_455 S
C750 C749 1.403 1_655 S
C750 C751 1.404 . S
C750 C753 1.539 . S
C751 C747 1.409 1_655 S
C751 C750 1.404 . S
C751 H763 0.929 . S
C752 C748 1.524 . S
C752 H764 0.956 . S
C752 H765 0.961 . S
C752 H766 0.961 . S
C753 C750 1.539 . S
C753 H767 0.958 . S
C753 H768 0.961 . S
C753 H769 0.960 . S
H754 C738 0.931 . S
H755 C743 0.929 . S
H756 C744 0.960 . S
H757 C744 0.962 . S
H758 C744 0.960 . S
H759 C745 0.961 . S
H760 C745 0.961 . S
H761 C745 0.961 . S
H762 C746 0.931 . S
H763 C751 0.929 . S
H764 C752 0.956 . S
H765 C752 0.961 . S
H766 C752 0.961 . S
H767 C753 0.958 . S
H768 C753 0.961 . S
H769 C753 0.960 . S
C770 C771 1.391 . S
C770 C772 1.394 . S
C770 H786 0.931 . S
C771 C770 1.391 . S
C771 C775 1.376 1_545 S
C772 C770 1.394 . S
C772 C773 1.369 . S
C772 C776 1.531 . S
C773 C772 1.369 . S
C773 C774 1.410 1_545 S
C773 C781 1.503 . S
C774 C773 1.410 1_565 S
C774 C775 1.392 . S
C774 C777 1.511 . S
C775 C771 1.376 1_565 S
C775 C774 1.392 . S
C775 H787 0.929 . S
C776 C772 1.531 . S
C776 H788 0.960 . S
C776 H789 0.962 . S
C776 H790 0.960 . S
C777 C774 1.511 . S
C777 H791 0.961 . S
C777 H792 0.961 . S
C777 H793 0.961 . S
C778 C779 1.370 . S
C778 C780 1.363 . S
C778 H794 0.931 . S
C779 C778 1.370 . S
C779 C783 1.408 . S
C780 C778 1.363 . S
C780 C781 1.370 . S
C780 C784 1.524 . S
C781 C773 1.503 . S
C781 C780 1.370 . S
C781 C782 1.403 . S
C782 C781 1.403 . S
C782 C783 1.404 . S
C782 C785 1.539 1_545 S
C783 C779 1.408 . S
C783 C782 1.404 . S
C783 H795 0.930 . S
C784 C780 1.524 . S
C784 H796 0.956 . S
C784 H797 0.961 . S
C784 H798 0.961 . S
C785 C782 1.539 1_565 S
C785 H799 0.958 1_565 S
C785 H800 0.961 . S
C785 H801 0.960 . S
H786 C770 0.931 . S
H787 C775 0.929 . S
H788 C776 0.960 . S
H789 C776 0.962 . S
H790 C776 0.960 . S
H791 C777 0.961 . S
H792 C777 0.961 . S
H793 C777 0.961 . S
H794 C778 0.931 . S
H795 C783 0.930 . S
H796 C784 0.956 . S
H797 C784 0.961 . S
H798 C784 0.961 . S
H799 C785 0.958 1_545 S
H800 C785 0.961 . S
H801 C785 0.960 . S
C802 C803 1.391 . S
C802 C804 1.394 . S
C802 H818 0.931 . S
C803 C802 1.391 . S
C803 C807 1.376 . S
C804 C802 1.394 . S
C804 C805 1.369 . S
C804 C808 1.531 . S
C805 C804 1.369 . S
C805 C806 1.410 . S
C805 C813 1.503 . S
C806 C805 1.410 . S
C806 C807 1.392 . S
C806 C809 1.511 . S
C807 C803 1.376 . S
C807 C806 1.392 . S
C807 H819 0.929 . S
C808 C804 1.531 . S
C808 H820 0.960 . S
C808 H821 0.962 . S
C808 H822 0.960 . S
C809 C806 1.511 . S
C809 H823 0.961 . S
C809 H824 0.961 . S
C809 H825 0.961 . S
C810 C811 1.370 . S
C810 C812 1.363 . S
C810 H826 0.931 . S
C811 C810 1.370 . S
C811 C815 1.408 . S
C812 C810 1.363 . S
C812 C813 1.370 . S
C812 C816 1.524 . S
C813 C805 1.503 . S
C813 C812 1.370 . S
C813 C814 1.403 . S
C814 C813 1.403 . S
C814 C815 1.404 . S
C814 C817 1.539 . S
C815 C811 1.408 . S
C815 C814 1.404 . S
C815 H827 0.930 . S
C816 C812 1.524 . S
C816 H828 0.956 . S
C816 H829 0.961 . S
C816 H830 0.961 . S
C817 C814 1.539 . S
C817 H831 0.958 . S
C817 H832 0.961 . S
C817 H833 0.960 . S
H818 C802 0.931 . S
H819 C807 0.929 . S
H820 C808 0.960 . S
H821 C808 0.962 . S
H822 C808 0.960 . S
H823 C809 0.961 . S
H824 C809 0.961 . S
H825 C809 0.961 . S
H826 C810 0.931 . S
H827 C815 0.930 . S
H828 C816 0.956 . S
H829 C816 0.961 . S
H830 C816 0.961 . S
H831 C817 0.958 . S
H832 C817 0.961 . S
H833 C817 0.960 . S
C834 C835 1.391 1_565 S
C834 C836 1.394 . S
C834 H850 0.931 . S
C835 C834 1.391 1_545 S
C835 C839 1.376 . S
C836 C834 1.394 . S
C836 C837 1.373 1_565 S
C836 C840 1.531 . S
C837 C836 1.373 1_545 S
C837 C838 1.407 . S
C837 C845 1.504 . S
C838 C837 1.407 . S
C838 C839 1.392 . S
C838 C841 1.511 . S
C839 C835 1.376 . S
C839 C838 1.392 . S
C839 H851 0.929 . S
C840 C836 1.531 . S
C840 H852 0.960 . S
C840 H853 0.962 . S
C840 H854 0.960 . S
C841 C838 1.511 . S
C841 H855 0.961 . S
C841 H856 0.961 . S
C841 H857 0.961 . S
C842 C843 1.370 . S
C842 C844 1.363 . S
C842 H858 0.931 . S
C843 C842 1.370 . S
C843 C847 1.408 1_545 S
C844 C842 1.363 . S
C844 C845 1.370 . S
C844 C848 1.524 . S
C845 C837 1.504 . S
C845 C844 1.370 . S
C845 C846 1.403 1_545 S
C846 C845 1.403 1_565 S
C846 C847 1.404 . S
C846 C849 1.539 . S
C847 C843 1.408 1_565 S
C847 C846 1.404 . S
C847 H859 0.930 . S
C848 C844 1.524 . S
C848 H860 0.956 . S
C848 H861 0.961 . S
C848 H862 0.961 . S
C849 C846 1.539 . S
C849 H863 0.958 . S
C849 H864 0.961 . S
C849 H865 0.960 . S
H850 C834 0.931 . S
H851 C839 0.929 . S
H852 C840 0.960 . S
H853 C840 0.962 . S
H854 C840 0.960 . S
H855 C841 0.961 . S
H856 C841 0.961 . S
H857 C841 0.961 . S
H858 C842 0.931 . S
H859 C847 0.930 . S
H860 C848 0.956 . S
H861 C848 0.961 . S
H862 C848 0.961 . S
H863 C849 0.958 . S
H864 C849 0.961 . S
H865 C849 0.960 . S
C866 C867 1.391 . S
C866 C868 1.394 . S
C866 H882 0.931 . S
C867 C866 1.391 . S
C867 C871 1.376 . S
C868 C866 1.394 . S
C868 C869 1.369 . S
C868 C872 1.531 . S
C869 C868 1.369 . S
C869 C870 1.410 . S
C869 C877 1.503 . S
C870 C869 1.410 . S
C870 C871 1.392 . S
C870 C873 1.511 . S
C871 C867 1.376 . S
C871 C870 1.392 . S
C871 H883 0.929 . S
C872 C868 1.531 . S
C872 H884 0.960 . S
C872 H885 0.962 . S
C872 H886 0.960 . S
C873 C870 1.511 . S
C873 H887 0.961 . S
C873 H888 0.961 . S
C873 H889 0.961 . S
C874 C875 1.370 . S
C874 C876 1.363 . S
C874 H890 0.931 . S
C875 C874 1.370 . S
C875 C879 1.408 . S
C876 C874 1.363 . S
C876 C877 1.370 . S
C876 C880 1.524 . S
C877 C869 1.503 . S
C877 C876 1.370 . S
C877 C878 1.403 . S
C878 C877 1.403 . S
C878 C879 1.404 . S
C878 C881 1.539 . S
C879 C875 1.408 . S
C879 C878 1.404 . S
C879 H891 0.930 . S
C880 C876 1.524 . S
C880 H892 0.956 . S
C880 H893 0.961 . S
C880 H894 0.961 . S
C881 C878 1.539 . S
C881 H895 0.958 . S
C881 H896 0.961 . S
C881 H897 0.960 . S
H882 C866 0.931 . S
H883 C871 0.929 . S
H884 C872 0.960 . S
H885 C872 0.962 . S
H886 C872 0.960 . S
H887 C873 0.961 . S
H888 C873 0.961 . S
H889 C873 0.961 . S
H890 C874 0.931 . S
H891 C879 0.930 . S
H892 C880 0.956 . S
H893 C880 0.961 . S
H894 C880 0.961 . S
H895 C881 0.958 . S
H896 C881 0.961 . S
H897 C881 0.960 . S
C898 C899 1.390 1_455 S
C898 C900 1.394 . S
C898 H914 0.931 . S
C899 C898 1.390 1_655 S
C899 C903 1.377 . S
C900 C898 1.394 . S
C900 C901 1.369 1_455 S
C900 C904 1.531 . S
C901 C900 1.369 1_655 S
C901 C902 1.410 . S
C901 C909 1.503 1_655 S
C902 C901 1.410 . S
C902 C903 1.392 . S
C902 C905 1.511 . S
C903 C899 1.377 . S
C903 C902 1.392 . S
C903 H915 0.929 . S
C904 C900 1.531 . S
C904 H916 0.960 . S
C904 H917 0.962 . S
C904 H918 0.960 . S
C905 C902 1.511 . S
C905 H919 0.961 . S
C905 H920 0.961 . S
C905 H921 0.961 . S
C906 C907 1.370 . S
C906 C908 1.363 . S
C906 H922 0.931 . S
C907 C906 1.370 . S
C907 C911 1.408 1_455 S
C908 C906 1.363 . S
C908 C909 1.370 . S
C908 C912 1.524 . S
C909 C901 1.503 1_455 S
C909 C908 1.370 . S
C909 C910 1.403 1_455 S
C910 C909 1.403 1_655 S
C910 C911 1.404 . S
C910 C913 1.539 . S
C911 C907 1.408 1_655 S
C911 C910 1.404 . S
C911 H923 0.930 . S
C912 C908 1.524 . S
C912 H924 0.956 . S
C912 H925 0.961 . S
C912 H926 0.961 . S
C913 C910 1.539 . S
C913 H927 0.958 . S
C913 H928 0.961 . S
C913 H929 0.960 . S
H914 C898 0.931 . S
H915 C903 0.929 . S
H916 C904 0.960 . S
H917 C904 0.962 . S
H918 C904 0.960 . S
H919 C905 0.961 . S
H920 C905 0.961 . S
H921 C905 0.961 . S
H922 C906 0.931 . S
H923 C911 0.930 . S
H924 C912 0.956 . S
H925 C912 0.961 . S
H926 C912 0.961 . S
H927 C913 0.958 . S
H928 C913 0.961 . S
H929 C913 0.960 . S
C355 C12 2.953 . S
C363 C331 2.914 . S
C387 C52 2.946 . S
C395 C258 2.910 . S
C419 C111 3.000 . S
C427 C297 2.957 . S
C451 C31 3.129 . S
C459 C336 3.075 . S
C491 C253 3.071 . S
C483 C71 3.138 . S
C523 C292 3.025 . S
C515 C92 3.076 . S
C547 C48 0.594 . S
C555 C180 0.466 . S
C579 C109 0.573 . S
C587 C214 0.485 . S
C611 C29 0.426 . S
C619 C136 0.384 . S
C651 C175 0.346 . S
C643 C69 0.421 . S
C683 C219 0.282 . S
C675 C88 0.279 . S
C707 C8 0.329 . S
C715 C141 0.287 . S
C747 C199 1.078 1_554 S
C739 C17 1.042 . S
C771 C57 1.032 . S
C779 C121 1.072 . S
C803 C97 1.101 . S
C811 C160 1.093 . S
C843 C277 1.786 . S
C835 C42 1.739 . S
C875 C316 1.785 1_556 S
C867 C82 1.738 . S
C899 C2 1.731 1_655 S
C907 C238 1.787 . S
