# Generated by pormake.
# Topology pts, (4,4)-cn, num edge types: 1
# Building blocks:
#     Node 0, Type 0, BuildingBlock: NAHDIM_clean_linker_0, # of connection points: 4
#     Node 1, Type 0, BuildingBlock: NAHDIM_clean_linker_0, # of connection points: 4
#     Node 2, Type 1, BuildingBlock: QUQFOY_clean_sbu_1, # of connection points: 4
#     Node 3, Type 1, BuildingBlock: QUQFOY_clean_sbu_1, # of connection points: 4
#     Edge 4, Type (0, 1), BuildingBlock: EZIPEK_clean_linker_0, # of connection points: 2
#     Edge 5, Type (0, 1), BuildingBlock: EZIPEK_clean_linker_0, # of connection points: 2
#     Edge 6, Type (0, 1), BuildingBlock: EZIPEK_clean_linker_0, # of connection points: 2
#     Edge 7, Type (0, 1), BuildingBlock: EZIPEK_clean_linker_0, # of connection points: 2
#     Edge 8, Type (0, 1), BuildingBlock: EZIPEK_clean_linker_0, # of connection points: 2
#     Edge 9, Type (0, 1), BuildingBlock: EZIPEK_clean_linker_0, # of connection points: 2
#     Edge 10, Type (0, 1), BuildingBlock: EZIPEK_clean_linker_0, # of connection points: 2
#     Edge 11, Type (0, 1), BuildingBlock: EZIPEK_clean_linker_0, # of connection points: 2
# Relax obj value: 0.113
# Max RMSD: 0.243
# Mean RMSD: 0.150
data_MOF--net-pts--node1-QUQFOY_clean_sbu_1--node2-NAHDIM_clean_linker_0--edge1-EZIPEK_clean_linker_0
_symmetry_space_group_name_H-M    P1
_symmetry_Int_Tables_number       1
_symmetry_cell_setting            triclinic
loop_
_symmetry_equiv_pos_as_xyz
'x, y, z'
_cell_length_a     24.229845
_cell_length_b     27.228419
_cell_length_c     44.921567
_cell_angle_alpha  90.273808
_cell_angle_beta   89.083605
_cell_angle_gamma 89.886184
loop_
_atom_site_label
_atom_site_type_symbol
_atom_site_fract_x
_atom_site_fract_y
_atom_site_fract_z
_atom_type_partial_charge
C0 C 0.75549 0.17008 0.19057 0.0
C1 C 0.74725 0.1207 0.17472 0.0
C2 C 0.69943 0.10428 0.12879 0.0
C3 C 0.70181 0.05323 0.12532 0.0
C4 C 0.66258 0.02852 0.10815 0.0
C5 C 0.61981 0.05562 0.09463 0.0
C6 C 0.61741 0.10729 0.09833 0.0
C7 C 0.65815 0.13106 0.11486 0.0
C8 C 0.66693 0.97354 0.10441 0.0
C9 C 0.57158 0.13743 0.08514 0.0
C10 C 0.32591 0.84922 0.20259 0.0
C11 C 0.33066 0.89619 0.18404 0.0
C12 C 0.37537 0.90839 0.13577 0.0
C13 C 0.3728 0.95949 0.13273 0.0
C14 C 0.40932 0.98405 0.11334 0.0
C15 C 0.44966 0.95681 0.09707 0.0
C16 C 0.45176 0.90506 0.09995 0.0
C17 C 0.41362 0.88145 0.11881 0.0
C18 C 0.40505 0.03911 0.11045 0.0
C19 C 0.49501 0.87474 0.08369 0.0
C20 C 0.35843 0.91616 0.90254 0.0
C21 C 0.35416 0.9663 0.90938 0.0
C22 C 0.39512 0.98999 0.92585 0.0
C23 C 0.44174 0.96303 0.9351 0.0
C24 C 0.44711 0.91285 0.92722 0.0
C25 C 0.40535 0.8901 0.91087 0.0
C26 C 0.38877 0.04382 0.93325 0.0
C27 C 0.49686 0.88329 0.93616 0.0
C28 C 0.80945 0.19509 0.89021 0.0
C29 C 0.7858 0.14289 0.89128 0.0
C30 C 0.69112 0.11692 0.90114 0.0
C31 C 0.64264 0.1397 0.91122 0.0
C32 C 0.60263 0.11344 0.92744 0.0
C33 C 0.61128 0.063 0.93324 0.0
C34 C 0.65926 0.03926 0.92195 0.0
C35 C 0.69859 0.06651 0.9058 0.0
C36 C 0.55148 0.13969 0.93872 0.0
C37 C 0.66903 0.98527 0.92713 0.0
C38 C 0.57678 0.02994 0.07729 0.0
C39 C 0.53494 0.00576 0.0931 0.0
C40 C 0.49159 0.98264 0.07846 0.0
C41 C 0.48936 0.98399 0.04701 0.0
C42 C 0.44557 0.9624 0.03151 0.0
C43 C 0.44428 0.96332 0.00054 0.0
C44 C 0.48642 0.98636 0.98388 0.0
C45 C 0.48558 0.98751 0.9524 0.0
C46 C 0.52715 0.01212 0.9366 0.0
C47 C 0.57024 0.03536 0.95135 0.0
C48 C 0.57277 0.03339 0.98275 0.0
C49 C 0.61647 0.05517 0.99822 0.0
C50 C 0.6183 0.0535 0.02914 0.0
C51 C 0.5761 0.03061 0.04581 0.0
C52 C 0.53201 0.00783 0.03065 0.0
C53 C 0.53045 0.00911 0.99907 0.0
C54 C 0.2341 0.84738 0.88971 0.0
C55 C 0.26226 0.89768 0.89164 0.0
O56 O 0.73744 0.12866 0.14486 0.0
O57 O 0.72944 0.1444 0.8866 0.0
O58 O 0.3187 0.89209 0.88739 0.0
O59 O 0.34084 0.88398 0.15449 0.0
H60 H 0.70893 0.10644 0.18534 0.0
H61 H 0.71808 0.19327 0.18807 0.0
H62 H 0.79127 0.19063 0.18136 0.0
H63 H 0.76196 0.16413 0.21472 0.0
H64 H 0.73485 0.03292 0.1356 0.0
H65 H 0.65719 0.17062 0.11762 0.0
H66 H 0.63206 0.95572 0.11646 0.0
H67 H 0.70619 0.95879 0.11321 0.0
H68 H 0.66397 0.96337 0.08052 0.0
H69 H 0.57105 0.17571 0.09381 0.0
H70 H 0.53089 0.12031 0.09002 0.0
H71 H 0.57707 0.13878 0.06059 0.0
H72 H 0.36815 0.91386 0.19287 0.0
H73 H 0.32011 0.8587 0.22653 0.0
H74 H 0.36445 0.82729 0.20011 0.0
H75 H 0.29093 0.82588 0.19564 0.0
H76 H 0.34181 0.98008 0.14513 0.0
H77 H 0.41468 0.84186 0.12118 0.0
H78 H 0.40607 0.04977 0.08661 0.0
H79 H 0.44097 0.05653 0.12128 0.0
H80 H 0.3667 0.05386 0.12106 0.0
H81 H 0.49531 0.83595 0.09123 0.0
H82 H 0.53663 0.89067 0.08703 0.0
H83 H 0.48687 0.87513 0.05946 0.0
H84 H 0.25453 0.90834 0.9151 0.0
H85 H 0.31959 0.98717 0.90134 0.0
H86 H 0.40868 0.85157 0.90493 0.0
H87 H 0.39219 0.04956 0.95764 0.0
H88 H 0.3486 0.05889 0.9259 0.0
H89 H 0.42259 0.06482 0.92228 0.0
H90 H 0.49564 0.84503 0.92749 0.0
H91 H 0.4991 0.88212 0.96081 0.0
H92 H 0.53512 0.90124 0.92775 0.0
H93 H 0.7925 0.13237 0.91469 0.0
H94 H 0.85431 0.19426 0.89498 0.0
H95 H 0.78862 0.21833 0.90743 0.0
H96 H 0.80369 0.2128 0.86832 0.0
H97 H 0.63689 0.1785 0.90695 0.0
H98 H 0.73457 0.04829 0.89645 0.0
H99 H 0.54952 0.13803 0.96341 0.0
H100 H 0.51416 0.12102 0.93023 0.0
H101 H 0.55046 0.17881 0.93184 0.0
H102 H 0.70846 0.97223 0.91686 0.0
H103 H 0.63452 0.96367 0.91775 0.0
H104 H 0.66981 0.97794 0.95141 0.0
H105 H 0.536 0.0051 0.11724 0.0
H106 H 0.41184 0.94445 0.04318 0.0
H107 H 0.40968 0.94591 0.9898 0.0
H108 H 0.52579 0.01346 0.91248 0.0
H109 H 0.64988 0.07365 0.98659 0.0
H110 H 0.65313 0.07061 0.03982 0.0
H111 H 0.18905 0.85132 0.89417 0.0
H112 H 0.25129 0.82243 0.90675 0.0
H113 H 0.24016 0.82973 0.86762 0.0
C114 C 0.09499 0.236 0.61367 0.0
C115 C 0.08074 0.26622 0.64178 0.0
C116 C 0.03142 0.33934 0.6228 0.0
C117 C 0.97907 0.3602 0.61995 0.0
C118 C 0.97149 0.40461 0.60481 0.0
C119 C 0.0178 0.42928 0.59254 0.0
C120 C 0.07116 0.40883 0.59563 0.0
C121 C 0.07744 0.36381 0.61044 0.0
C122 C 0.91392 0.42503 0.60182 0.0
C123 C 0.12155 0.43449 0.58317 0.0
C124 C 0.96599 0.8149 0.61334 0.0
C125 C 0.99239 0.78689 0.63916 0.0
C126 C 0.97598 0.69917 0.62874 0.0
C127 C 0.02835 0.68541 0.61759 0.0
C128 C 0.03588 0.64087 0.60211 0.0
C129 C 0.99016 0.60961 0.59756 0.0
C130 C 0.93782 0.62264 0.60959 0.0
C131 C 0.93164 0.66703 0.62533 0.0
C132 C 0.09258 0.62744 0.59024 0.0
C133 C 0.88819 0.59014 0.6053 0.0
C134 C 0.95297 0.71276 0.41316 0.0
C135 C 0.00749 0.69546 0.41528 0.0
C136 C 0.01853 0.64903 0.42739 0.0
C137 C 0.97419 0.61901 0.43705 0.0
C138 C 0.91922 0.6352 0.43329 0.0
C139 C 0.90939 0.68185 0.42128 0.0
C140 C 0.07758 0.63242 0.43051 0.0
C141 C 0.87091 0.60374 0.44275 0.0
C142 C 0.0881 0.3315 0.33729 0.0
C143 C 0.06669 0.29572 0.36135 0.0
C144 C 0.01854 0.35485 0.39484 0.0
C145 C 0.06548 0.37928 0.40541 0.0
C146 C 0.06016 0.4217 0.42319 0.0
C147 C 0.00692 0.43942 0.43111 0.0
C148 C 0.95968 0.41426 0.42106 0.0
C149 C 0.9662 0.37233 0.40305 0.0
C150 C 0.11142 0.44762 0.43357 0.0
C151 C 0.9023 0.43168 0.42937 0.0
C152 C 0.0102 0.47614 0.57617 0.0
C153 C 0.00483 0.51963 0.59274 0.0
C154 C 0.99638 0.56477 0.57876 0.0
C155 C 0.99349 0.56689 0.54737 0.0
C156 C 0.98463 0.61162 0.53263 0.0
C157 C 0.98206 0.61349 0.50177 0.0
C158 C 0.98802 0.57068 0.48437 0.0
C159 C 0.98519 0.57231 0.45295 0.0
C160 C 0.99185 0.52912 0.43628 0.0
C161 C 0.00058 0.48391 0.45019 0.0
C162 C 0.00258 0.48152 0.48163 0.0
C163 C 0.00989 0.43659 0.49641 0.0
C164 C 0.0121 0.43466 0.52733 0.0
C165 C 0.00742 0.47762 0.54472 0.0
C166 C -0.00066 0.52322 0.5303 0.0
C167 C 0.99674 0.52515 0.49874 0.0
C168 C 0.93829 0.83838 0.42248 0.0
C169 C 0.9724 0.8004 0.40483 0.0
O170 O 0.03494 0.29591 0.63761 0.0
O171 O 0.02132 0.31452 0.37683 0.0
O172 O 0.94055 0.75831 0.40276 0.0
O173 O 0.96654 0.74205 0.64366 0.0
H174 H 0.11728 0.28953 0.6449 0.0
H175 H 0.10414 0.26087 0.59472 0.0
H176 H 0.06132 0.21114 0.60691 0.0
H177 H 0.13241 0.21341 0.61755 0.0
H178 H 0.9438 0.34117 0.62951 0.0
H179 H 0.11836 0.34838 0.61215 0.0
H180 H 0.91047 0.46012 0.61438 0.0
H181 H 0.88187 0.3994 0.61042 0.0
H182 H 0.90551 0.43305 0.5781 0.0
H183 H 0.16054 0.41638 0.58984 0.0
H184 H 0.12217 0.47333 0.59083 0.0
H185 H 0.11993 0.43469 0.55849 0.0
H186 H 0.03523 0.7817 0.63103 0.0
H187 H 0.98458 0.85203 0.6113 0.0
H188 H 0.92071 0.81892 0.61582 0.0
H189 H 0.9741 0.79478 0.59214 0.0
H190 H 0.0638 0.70855 0.6212 0.0
H191 H 0.89162 0.67748 0.63447 0.0
H192 H 0.10357 0.58964 0.59722 0.0
H193 H 0.12485 0.65319 0.59803 0.0
H194 H 0.09247 0.62789 0.56553 0.0
H195 H 0.84996 0.60622 0.61529 0.0
H196 H 0.8957 0.55385 0.61565 0.0
H197 H 0.88166 0.58381 0.58117 0.0
H198 H 0.00922 0.79211 0.41814 0.0
H199 H 0.04152 0.7179 0.40746 0.0
H200 H 0.86745 0.69498 0.41886 0.0
H201 H 0.08661 0.62665 0.4544 0.0
H202 H 0.10747 0.65944 0.42126 0.0
H203 H 0.08377 0.5967 0.41889 0.0
H204 H 0.83074 0.62001 0.43635 0.0
H205 H 0.87099 0.59913 0.4673 0.0
H206 H 0.87479 0.56664 0.43256 0.0
H207 H 0.10144 0.29175 0.37684 0.0
H208 H 0.05494 0.34519 0.32281 0.0
H209 H 0.12009 0.31319 0.3231 0.0
H210 H 0.10765 0.36402 0.34764 0.0
H211 H 0.10634 0.3656 0.39998 0.0
H212 H 0.93022 0.35307 0.39503 0.0
H213 H 0.11354 0.44562 0.4582 0.0
H214 H 0.10964 0.48707 0.42747 0.0
H215 H 0.14975 0.4313 0.42384 0.0
H216 H 0.86985 0.40651 0.42113 0.0
H217 H 0.89531 0.46871 0.41988 0.0
H218 H 0.89802 0.43496 0.45395 0.0
H219 H 0.00692 0.51828 0.61683 0.0
H220 H 0.97958 0.64581 0.54477 0.0
H221 H 0.97535 0.64905 0.49176 0.0
H222 H 0.98981 0.53066 0.41219 0.0
H223 H 0.01392 0.40233 0.48423 0.0
H224 H 0.01769 0.39901 0.53743 0.0
H225 H 0.90009 0.84776 0.41035 0.0
H226 H 0.96206 0.87257 0.42631 0.0
H227 H 0.92632 0.82315 0.44456 0.0
O228 O 0.95004 0.98593 0.22995 0.0
Cd229 Cd 0.01703 0.96289 0.2542 0.0
Cd230 Cd 0.04757 0.06072 0.25166 0.0
O231 O 0.9757 0.06365 0.22787 0.0
O232 O -0.00014 0.89688 0.27079 0.0
O233 O 0.01338 0.96276 0.29889 0.0
C234 C 0.00347 0.91623 0.29695 0.0
C235 C 0.05354 0.12071 0.28853 0.0
C236 C 0.94149 0.0299 0.22181 0.0
C237 C 0.12784 0.98726 0.22618 0.0
O238 O 0.11834 0.03241 0.23158 0.0
O239 O 0.09252 0.95466 0.2331 0.0
O240 O 0.06261 0.13094 0.26091 0.0
O241 O 0.04299 0.07571 0.29558 0.0
O242 O 0.97909 0.0823 0.80403 0.0
Cd243 Cd 0.05086 0.07219 0.77961 0.0
Cd244 Cd 0.01357 0.97777 0.77854 0.0
O245 O 0.94598 0.00683 0.80099 0.0
O246 O 0.0717 0.1393 0.76609 0.0
O247 O 0.0498 0.07913 0.73507 0.0
C248 C 0.06331 0.12453 0.73923 0.0
C249 C 0.00167 0.92514 0.73832 0.0
C250 C 0.94172 0.05105 0.80987 0.0
C251 C 0.12052 0.99785 0.80978 0.0
O252 O 0.08364 0.96692 0.80295 0.0
O253 O 0.117 0.0425 0.80188 0.0
O254 O 0.99195 0.91083 0.76519 0.0
O255 O 0.01694 0.97001 0.734 0.0
C256 C 0.2808 0.97019 0.20727 0.0
C257 C 0.27861 0.92818 0.18824 0.0
C258 C 0.17786 0.9392 0.1865 0.0
C259 C 0.18009 0.97163 0.21119 0.0
N260 N 0.23537 0.01347 0.24778 0.0
N261 N 0.22095 0.87206 0.1599 0.0
C262 C 0.23199 0.98632 0.22221 0.0
C263 C 0.22604 0.91276 0.17756 0.0
N264 N 0.32869 0.99593 0.21051 0.0
N265 N 0.12992 0.93441 0.17112 0.0
H266 H 0.25387 0.85168 0.15137 0.0
H267 H 0.18291 0.85621 0.15525 0.0
H268 H 0.09435 0.95446 0.17649 0.0
H269 H 0.12737 0.91503 0.15113 0.0
H270 H 0.33058 0.02864 0.22261 0.0
H271 H 0.36414 0.98936 0.19769 0.0
H272 H 0.27273 0.02043 0.25818 0.0
H273 H 0.20098 0.02479 0.26024 0.0
C274 C 0.11034 0.2324 0.69235 0.0
C275 C 0.07111 0.23288 0.66902 0.0
C276 C 0.02106 0.1664 0.6951 0.0
C277 C 0.06659 0.15993 0.71419 0.0
N278 N 0.15985 0.1816 0.72684 0.0
N279 N 0.98679 0.19818 0.6489 0.0
C280 C 0.11286 0.19129 0.7115 0.0
C281 C 0.02579 0.19919 0.67054 0.0
N282 N 0.14263 0.2724 0.69793 0.0
N283 N 0.97196 0.14366 0.70138 0.0
H284 H 0.98353 0.22417 0.63216 0.0
H285 H 0.95861 0.16958 0.64674 0.0
H286 H 0.96583 0.12073 0.71963 0.0
H287 H 0.93554 0.15154 0.69033 0.0
H288 H 0.16906 0.2742 0.71599 0.0
H289 H 0.13663 0.30646 0.68803 0.0
H290 H 0.19637 0.2011 0.72339 0.0
H291 H 0.16411 0.1509 0.74043 0.0
C292 C 0.79124 0.04679 0.19976 0.0
C293 C 0.79699 0.08657 0.17951 0.0
C294 C 0.89723 0.07198 0.17898 0.0
C295 C 0.89139 0.04309 0.20498 0.0
N296 N 0.83087 0.00651 0.24209 0.0
N297 N 0.85879 0.13553 0.14838 0.0
C298 C 0.83789 0.0308 0.21576 0.0
C299 C 0.85089 0.09831 0.16829 0.0
N300 N 0.74189 0.02318 0.20322 0.0
N301 N 0.94694 0.07351 0.16418 0.0
H302 H 0.8271 0.1546 0.13825 0.0
H303 H 0.89766 0.14961 0.14308 0.0
H304 H 0.98117 0.05341 0.17101 0.0
H305 H 0.95243 0.09004 0.14348 0.0
H306 H 0.73723 0.99187 0.21628 0.0
H307 H 0.70811 0.03004 0.18979 0.0
H308 H 0.79221 1.00164 0.25216 0.0
H309 H 0.86345 0.99539 0.25533 0.0
C310 C 0.04331 0.82759 0.68201 0.0
C311 C 0.9922 0.81681 0.66834 0.0
C312 C 0.94549 0.87252 0.70428 0.0
C313 C 0.99788 0.88963 0.71341 0.0
N314 N 0.09727 0.88628 0.70961 0.0
N315 N 0.89241 0.82065 0.67131 0.0
C316 C 0.04693 0.8682 0.70173 0.0
C317 C 0.94243 0.83664 0.68104 0.0
N318 N 0.08734 0.79659 0.6782 0.0
N319 N 0.89883 0.89024 0.71821 0.0
H320 H 0.88779 0.78934 0.65823 0.0
H321 H 0.85504 0.83797 0.67613 0.0
H322 H 0.8996 0.91833 0.73407 0.0
H323 H 0.8594 0.87631 0.71517 0.0
H324 H 0.12425 0.80066 0.68952 0.0
H325 H 0.08431 0.76273 0.66742 0.0
H326 H 0.13402 0.87561 0.69906 0.0
H327 H 0.10209 0.9147 0.725 0.0
C328 C 0.24239 0.92591 0.83776 0.0
C329 C 0.23686 0.93378 0.86929 0.0
C330 C 0.15985 0.99068 0.8606 0.0
C331 C 0.16501 0.98195 0.82965 0.0
N332 N 0.21956 0.95347 0.78801 0.0
N333 N 0.20402 0.98982 0.90821 0.0
C334 C 0.20923 0.95364 0.81803 0.0
C335 C 0.20003 0.97126 0.87998 0.0
N336 N 0.27702 0.89052 0.82642 0.0
N337 N 0.11522 0.01596 0.87177 0.0
H338 H 0.23464 0.98024 0.92306 0.0
H339 H 0.18131 0.0201 0.91571 0.0
H340 H 0.08581 0.03241 0.85832 0.0
H341 H 0.10521 0.01753 0.89441 0.0
H342 H 0.27606 0.87858 0.80438 0.0
H343 H 0.30478 0.87049 0.83889 0.0
H344 H 0.2548 0.93806 0.7782 0.0
H345 H 0.1954 0.9731 0.77312 0.0
C346 C 0.08241 0.20308 0.35533 0.0
C347 C 0.05186 0.24568 0.34746 0.0
C348 C 0.00881 0.19766 0.30745 0.0
C349 C 0.04974 0.16091 0.31081 0.0
N350 N 0.12701 0.12859 0.33766 0.0
N351 N 0.97757 0.2802 0.31847 0.0
C352 C 0.08663 0.16327 0.33486 0.0
C353 C 0.012 0.24181 0.32445 0.0
N354 N 0.10473 0.19935 0.38295 0.0
N355 N 0.96573 0.18945 0.28874 0.0
H356 H 0.97266 0.31066 0.3323 0.0
H357 H 0.9546 0.28262 0.29914 0.0
H358 H 0.96162 0.15712 0.27641 0.0
H359 H 0.93129 0.21221 0.28752 0.0
H360 H 0.12405 0.16761 0.39044 0.0
H361 H 0.09666 0.22486 0.39986 0.0
H362 H 0.15881 0.13177 0.3529 0.0
H363 H 0.13123 0.09865 0.32323 0.0
C364 C 0.81326 0.11734 0.83735 0.0
C365 C 0.81623 0.10906 0.86881 0.0
C366 C 0.89788 0.05676 0.8604 0.0
C367 C 0.89519 0.06585 0.82952 0.0
N368 N 0.84315 0.09252 0.78755 0.0
N369 N 0.84862 0.05382 0.90733 0.0
C370 C 0.85036 0.09208 0.81768 0.0
C371 C 0.85447 0.07345 0.87948 0.0
N372 N 0.77697 0.15069 0.82607 0.0
N373 N 0.94292 0.0335 0.87179 0.0
H374 H 0.81543 0.06099 0.92166 0.0
H375 H 0.87271 0.02477 0.91478 0.0
H376 H 0.97476 0.01903 0.8585 0.0
H377 H 0.95065 0.03182 0.89452 0.0
H378 H 0.77917 0.16332 0.80425 0.0
H379 H 0.74623 0.16832 0.83846 0.0
H380 H 0.80793 0.10622 0.77749 0.0
H381 H 0.87023 0.07486 0.77267 0.0
C382 C 0.03086 0.86001 0.37299 0.0
C383 C 0.98969 0.82226 0.37434 0.0
C384 C 0.95531 0.85021 0.32623 0.0
C385 C 0.99844 0.88498 0.32389 0.0
N386 N 0.08755 0.91142 0.34111 0.0
N387 N 0.9347 0.76882 0.34294 0.0
C388 C 0.03937 0.8865 0.34607 0.0
C389 C 0.95789 0.81351 0.34838 0.0
N390 N 0.06123 0.872 0.39737 0.0
N391 N 0.91138 0.85211 0.3076 0.0
H392 H 0.94656 0.73719 0.35405 0.0
H393 H 0.91305 0.7612 0.32358 0.0
H394 H 0.9066 0.87961 0.29175 0.0
H395 H 0.87697 0.82951 0.31033 0.0
H396 H 0.08558 0.90348 0.39828 0.0
H397 H 0.06009 0.8531 0.41742 0.0
H398 H 0.12107 0.90926 0.35531 0.0
H399 H 0.0966 0.92974 0.32131 0.0
loop_
_geom_bond_atom_site_label_1
_geom_bond_atom_site_label_2
_geom_bond_distance
_geom_bond_site_symmetry_2
_ccdc_geom_bond_type
C0 C1 1.560 . S
C0 H61 0.959 . S
C0 H62 0.959 . S
C0 H63 0.960 . S
C1 C0 1.560 . S
C1 O56 1.426 . S
C1 H60 0.980 . S
C2 C3 1.407 1_545 S
C2 C7 1.418 . S
C2 O56 1.334 . S
C3 C2 1.407 1_565 S
C3 C4 1.360 . S
C3 H64 0.929 . S
C4 C3 1.360 . S
C4 C5 1.401 1_565 S
C4 C8 1.527 . S
C5 C4 1.401 1_545 S
C5 C6 1.405 . S
C5 C38 1.587 1_545 S
C6 C5 1.405 . S
C6 C7 1.332 . S
C6 C9 1.496 . S
C7 C2 1.418 . S
C7 C6 1.332 . S
C7 H65 0.929 . S
C8 C4 1.527 . S
C8 H66 0.959 . S
C8 H67 0.961 . S
C8 H68 0.961 . S
C9 C6 1.496 . S
C9 H69 0.960 . S
C9 H70 0.960 . S
C9 H71 0.961 . S
C10 C11 1.517 . S
C10 H73 0.961 1_565 S
C10 H74 0.960 . S
C10 H75 0.959 . S
C11 C10 1.517 . S
C11 O59 1.468 . S
C11 H72 0.980 1_565 S
C12 C13 1.349 1_565 S
C12 C17 1.367 . S
C12 O59 1.408 . S
C13 C12 1.349 1_545 S
C13 C14 1.407 . S
C13 H76 0.930 . S
C14 C13 1.407 . S
C14 C15 1.449 1_545 S
C14 C18 1.535 . S
C15 C14 1.449 1_565 S
C15 C16 1.384 . S
C15 C40 1.553 . S
C16 C15 1.384 . S
C16 C17 1.364 . S
C16 C19 1.450 . S
C17 C12 1.367 . S
C17 C16 1.364 . S
C17 H77 0.931 . S
C18 C14 1.535 . S
C18 H78 0.959 . S
C18 H79 0.961 . S
C18 H80 0.959 . S
C19 C16 1.450 . S
C19 H81 0.960 . S
C19 H82 0.960 . S
C19 H83 0.960 . S
C20 C21 1.309 1_565 S
C20 C25 1.304 . S
C20 O58 1.435 . S
C21 C20 1.309 1_545 S
C21 C22 1.476 . S
C21 H85 0.930 . S
C22 C21 1.476 . S
C22 C23 1.400 1_545 S
C22 C26 1.567 . S
C23 C22 1.400 1_565 S
C23 C24 1.373 . S
C23 C45 1.432 . S
C24 C23 1.373 . S
C24 C25 1.339 . S
C24 C27 1.530 . S
C25 C20 1.304 . S
C25 C24 1.339 . S
C25 H86 0.930 . S
C26 C22 1.567 . S
C26 H87 0.961 . S
C26 H88 0.960 . S
C26 H89 0.958 . S
C27 C24 1.530 . S
C27 H90 0.961 . S
C27 H91 0.960 . S
C27 H92 0.960 . S
C28 C29 1.530 . S
C28 H94 0.961 . S
C28 H95 0.961 . S
C28 H96 0.959 . S
C29 C28 1.530 . S
C29 O57 1.412 . S
C29 H93 0.980 . S
C30 C31 1.288 . S
C30 C35 1.377 1_545 S
C30 O57 1.393 . S
C31 C30 1.288 . S
C31 C32 1.369 . S
C31 H97 0.932 . S
C32 C31 1.369 . S
C32 C33 1.398 . S
C32 C36 1.527 . S
C33 C32 1.398 . S
C33 C34 1.380 1_545 S
C33 C47 1.497 . S
C34 C33 1.380 1_565 S
C34 C35 1.383 . S
C34 C37 1.603 . S
C35 C30 1.377 1_565 S
C35 C34 1.383 . S
C35 H98 0.929 . S
C36 C32 1.527 . S
C36 H99 0.961 . S
C36 H100 0.959 . S
C36 H101 0.959 . S
C37 C34 1.603 . S
C37 H102 0.960 . S
C37 H103 0.962 . S
C37 H104 0.961 . S
C38 C5 1.587 1_565 S
C38 C39 1.360 . S
C38 C51 1.412 . S
C39 C38 1.360 . S
C39 C40 1.365 . S
C39 H105 0.929 . S
C40 C15 1.553 . S
C40 C39 1.365 . S
C40 C41 1.404 . S
C41 C40 1.404 . S
C41 C42 1.395 . S
C41 C52 1.451 . S
C42 C41 1.395 . S
C42 C43 1.322 . S
C42 H106 0.930 . S
C43 C42 1.322 . S
C43 C44 1.459 1_554 S
C43 H107 0.929 1_554 S
C44 C43 1.459 1_556 S
C44 C45 1.445 . S
C44 C53 1.395 1_556 S
C45 C23 1.432 . S
C45 C44 1.445 . S
C45 C46 1.370 . S
C46 C45 1.370 . S
C46 C47 1.438 1_565 S
C46 H108 0.930 . S
C47 C33 1.497 . S
C47 C46 1.438 1_545 S
C47 C48 1.359 1_545 S
C48 C47 1.359 1_565 S
C48 C49 1.399 1_566 S
C48 C53 1.448 1_556 S
C49 C48 1.399 1_544 S
C49 C50 1.347 . S
C49 H109 0.929 1_554 S
C50 C49 1.347 . S
C50 C51 1.455 1_545 S
C50 H110 0.930 . S
C51 C38 1.412 . S
C51 C50 1.455 1_565 S
C51 C52 1.331 . S
C52 C41 1.451 . S
C52 C51 1.331 . S
C52 C53 1.497 . S
C53 C44 1.395 1_554 S
C53 C48 1.448 1_554 S
C53 C52 1.497 . S
C54 C55 1.582 1_565 S
C54 H111 0.962 . S
C54 H112 0.959 . S
C54 H113 0.958 . S
C55 C54 1.582 1_545 S
C55 O58 1.458 1_545 S
C55 H84 0.980 . S
O56 C1 1.426 . S
O56 C2 1.334 . S
O57 C29 1.412 . S
O57 C30 1.393 . S
O58 C20 1.435 . S
O58 C55 1.458 1_565 S
O59 C11 1.468 . S
O59 C12 1.408 . S
H60 C1 0.980 . S
H61 C0 0.959 . S
H62 C0 0.959 . S
H63 C0 0.960 . S
H64 C3 0.929 . S
H65 C7 0.929 . S
H66 C8 0.959 . S
H67 C8 0.961 . S
H68 C8 0.961 . S
H69 C9 0.960 . S
H70 C9 0.960 . S
H71 C9 0.961 . S
H72 C11 0.980 1_545 S
H73 C10 0.961 1_545 S
H74 C10 0.960 . S
H75 C10 0.959 . S
H76 C13 0.930 . S
H77 C17 0.931 . S
H78 C18 0.959 . S
H79 C18 0.961 . S
H80 C18 0.959 . S
H81 C19 0.960 . S
H82 C19 0.960 . S
H83 C19 0.960 . S
H84 C55 0.980 . S
H85 C21 0.930 . S
H86 C25 0.930 . S
H87 C26 0.961 . S
H88 C26 0.960 . S
H89 C26 0.958 . S
H90 C27 0.961 . S
H91 C27 0.960 . S
H92 C27 0.960 . S
H93 C29 0.980 . S
H94 C28 0.961 . S
H95 C28 0.961 . S
H96 C28 0.959 . S
H97 C31 0.932 . S
H98 C35 0.929 . S
H99 C36 0.961 . S
H100 C36 0.959 . S
H101 C36 0.959 . S
H102 C37 0.960 . S
H103 C37 0.962 . S
H104 C37 0.961 . S
H105 C39 0.929 . S
H106 C42 0.930 . S
H107 C43 0.929 1_556 S
H108 C46 0.930 . S
H109 C49 0.929 1_556 S
H110 C50 0.930 . S
H111 C54 0.962 . S
H112 C54 0.959 . S
H113 C54 0.958 . S
C114 C115 1.560 . S
C114 H175 0.959 . S
C114 H176 0.959 . S
C114 H177 0.960 . S
C115 C114 1.560 . S
C115 O170 1.426 . S
C115 H174 0.980 . S
C116 C117 1.407 . S
C116 C121 1.418 . S
C116 O170 1.334 . S
C117 C116 1.407 . S
C117 C118 1.360 1_455 S
C117 H178 0.929 1_455 S
C118 C117 1.360 1_655 S
C118 C119 1.401 1_655 S
C118 C122 1.527 . S
C119 C118 1.401 1_455 S
C119 C120 1.405 . S
C119 C152 1.587 . S
C120 C119 1.405 . S
C120 C121 1.332 . S
C120 C123 1.496 . S
C121 C116 1.418 . S
C121 C120 1.332 . S
C121 H179 0.929 . S
C122 C118 1.527 . S
C122 H180 0.959 . S
C122 H181 0.961 . S
C122 H182 0.961 . S
C123 C120 1.496 . S
C123 H183 0.960 . S
C123 H184 0.960 . S
C123 H185 0.961 . S
C124 C125 1.517 1_655 S
C124 H187 0.961 1_655 S
C124 H188 0.960 . S
C124 H189 0.959 . S
C125 C124 1.517 1_455 S
C125 O173 1.468 1_455 S
C125 H186 0.980 . S
C126 C127 1.349 1_655 S
C126 C131 1.367 . S
C126 O173 1.408 . S
C127 C126 1.349 1_455 S
C127 C128 1.407 . S
C127 H190 0.930 . S
C128 C127 1.407 . S
C128 C129 1.449 1_455 S
C128 C132 1.535 . S
C129 C128 1.449 1_655 S
C129 C130 1.384 . S
C129 C154 1.553 . S
C130 C129 1.384 . S
C130 C131 1.364 . S
C130 C133 1.450 . S
C131 C126 1.367 . S
C131 C130 1.364 . S
C131 H191 0.931 . S
C132 C128 1.535 . S
C132 H192 0.959 . S
C132 H193 0.961 . S
C132 H194 0.959 . S
C133 C130 1.450 . S
C133 H195 0.960 . S
C133 H196 0.960 . S
C133 H197 0.960 . S
C134 C135 1.309 1_655 S
C134 C139 1.304 . S
C134 O172 1.435 . S
C135 C134 1.309 1_455 S
C135 C136 1.476 . S
C135 H199 0.930 . S
C136 C135 1.476 . S
C136 C137 1.400 1_455 S
C136 C140 1.567 . S
C137 C136 1.400 1_655 S
C137 C138 1.373 . S
C137 C159 1.432 1_655 S
C138 C137 1.373 . S
C138 C139 1.339 . S
C138 C141 1.530 . S
C139 C134 1.304 . S
C139 C138 1.339 . S
C139 H200 0.930 . S
C140 C136 1.567 . S
C140 H201 0.961 . S
C140 H202 0.960 . S
C140 H203 0.958 . S
C141 C138 1.530 . S
C141 H204 0.961 . S
C141 H205 0.960 . S
C141 H206 0.960 . S
C142 C143 1.530 . S
C142 H208 0.961 . S
C142 H209 0.961 . S
C142 H210 0.959 . S
C143 C142 1.530 . S
C143 O171 1.412 . S
C143 H207 0.980 . S
C144 C145 1.288 . S
C144 C149 1.377 . S
C144 O171 1.393 . S
C145 C144 1.288 . S
C145 C146 1.369 . S
C145 H211 0.932 . S
C146 C145 1.369 . S
C146 C147 1.398 . S
C146 C150 1.527 . S
C147 C146 1.398 . S
C147 C148 1.380 1_455 S
C147 C161 1.497 . S
C148 C147 1.380 1_655 S
C148 C149 1.383 1_655 S
C148 C151 1.603 . S
C149 C144 1.377 . S
C149 C148 1.383 1_455 S
C149 H212 0.929 1_455 S
C150 C146 1.527 . S
C150 H213 0.961 . S
C150 H214 0.959 . S
C150 H215 0.959 . S
C151 C148 1.603 . S
C151 H216 0.960 . S
C151 H217 0.962 . S
C151 H218 0.961 . S
C152 C119 1.587 . S
C152 C153 1.360 1_455 S
C152 C165 1.412 . S
C153 C152 1.360 1_655 S
C153 C154 1.365 . S
C153 H219 0.929 . S
C154 C129 1.553 . S
C154 C153 1.365 . S
C154 C155 1.404 . S
C155 C154 1.404 . S
C155 C156 1.395 . S
C155 C166 1.451 1_655 S
C156 C155 1.395 . S
C156 C157 1.322 . S
C156 H220 0.930 . S
C157 C156 1.322 . S
C157 C158 1.459 . S
C157 H221 0.929 . S
C158 C157 1.459 . S
C158 C159 1.445 1_655 S
C158 C167 1.395 1_655 S
C159 C137 1.432 1_455 S
C159 C158 1.445 1_455 S
C159 C160 1.370 . S
C160 C159 1.370 . S
C160 C161 1.438 . S
C160 H222 0.930 . S
C161 C147 1.497 . S
C161 C160 1.438 . S
C161 C162 1.360 . S
C162 C161 1.360 . S
C162 C163 1.401 . S
C162 C167 1.446 . S
C163 C162 1.401 . S
C163 C164 1.347 . S
C163 H223 0.929 . S
C164 C163 1.347 . S
C164 C165 1.455 . S
C164 H224 0.930 . S
C165 C152 1.412 . S
C165 C164 1.455 . S
C165 C166 1.331 . S
C166 C155 1.451 1_455 S
C166 C165 1.331 . S
C166 C167 1.497 . S
C167 C158 1.395 1_455 S
C167 C162 1.446 . S
C167 C166 1.497 . S
C168 C169 1.582 1_655 S
C168 H225 0.962 1_655 S
C168 H226 0.959 . S
C168 H227 0.958 . S
C169 C168 1.582 1_455 S
C169 O172 1.458 1_455 S
C169 H198 0.980 . S
O170 C115 1.426 . S
O170 C116 1.334 . S
O171 C143 1.412 . S
O171 C144 1.393 . S
O172 C134 1.435 . S
O172 C169 1.458 1_655 S
O173 C125 1.468 1_655 S
O173 C126 1.408 . S
H174 C115 0.980 . S
H175 C114 0.959 . S
H176 C114 0.959 . S
H177 C114 0.960 . S
H178 C117 0.929 1_655 S
H179 C121 0.929 . S
H180 C122 0.959 . S
H181 C122 0.961 . S
H182 C122 0.961 . S
H183 C123 0.960 . S
H184 C123 0.960 . S
H185 C123 0.961 . S
H186 C125 0.980 . S
H187 C124 0.961 1_455 S
H188 C124 0.960 . S
H189 C124 0.959 . S
H190 C127 0.930 . S
H191 C131 0.931 . S
H192 C132 0.959 . S
H193 C132 0.961 . S
H194 C132 0.959 . S
H195 C133 0.960 . S
H196 C133 0.960 . S
H197 C133 0.960 . S
H198 C169 0.980 . S
H199 C135 0.930 . S
H200 C139 0.930 . S
H201 C140 0.961 . S
H202 C140 0.960 . S
H203 C140 0.958 . S
H204 C141 0.961 . S
H205 C141 0.960 . S
H206 C141 0.960 . S
H207 C143 0.980 . S
H208 C142 0.961 . S
H209 C142 0.961 . S
H210 C142 0.959 . S
H211 C145 0.932 . S
H212 C149 0.929 1_655 S
H213 C150 0.961 . S
H214 C150 0.959 . S
H215 C150 0.959 . S
H216 C151 0.960 . S
H217 C151 0.962 . S
H218 C151 0.961 . S
H219 C153 0.929 . S
H220 C156 0.930 . S
H221 C157 0.929 . S
H222 C160 0.930 . S
H223 C163 0.929 . S
H224 C164 0.930 . S
H225 C168 0.962 1_455 S
H226 C168 0.959 . S
H227 C168 0.958 . S
O228 Cd229 2.223 . S
O228 C236 1.315 1_455 S
Cd229 O228 2.223 . S
Cd229 O232 2.297 . S
Cd229 O233 2.439 . S
Cd229 O239 2.240 1_565 S
Cd230 O231 2.239 1_455 S
Cd230 O238 2.224 . S
Cd230 O240 2.298 . S
Cd230 O241 2.440 . S
O231 Cd230 2.239 1_655 S
O231 C236 1.279 1_545 S
O232 Cd229 2.297 . S
O232 C234 1.247 . S
O233 Cd229 2.439 . S
O233 C234 1.208 . S
C234 O232 1.247 . S
C234 O233 1.208 . S
C235 O240 1.247 . S
C235 O241 1.208 . S
C236 O228 1.315 1_655 S
C236 O231 1.279 1_565 S
C237 O238 1.315 . S
C237 O239 1.279 . S
O238 Cd230 2.224 . S
O238 C237 1.315 . S
O239 Cd229 2.240 1_545 S
O239 C237 1.279 . S
O240 Cd230 2.298 . S
O240 C235 1.247 . S
O241 Cd230 2.440 . S
O241 C235 1.208 . S
O242 Cd243 2.223 . S
O242 C250 1.315 1_455 S
Cd243 O242 2.223 . S
Cd243 O246 2.297 . S
Cd243 O247 2.439 . S
Cd243 O253 2.240 . S
Cd244 O245 2.240 1_565 S
Cd244 O252 2.223 1_655 S
Cd244 O254 2.298 1_655 S
Cd244 O255 2.439 1_655 S
O245 Cd244 2.240 1_545 S
O245 C250 1.279 . S
O246 Cd243 2.297 . S
O246 C248 1.247 . S
O247 Cd243 2.439 . S
O247 C248 1.208 . S
C248 O246 1.247 . S
C248 O247 1.208 . S
C249 O254 1.247 . S
C249 O255 1.208 . S
C250 O242 1.315 1_655 S
C250 O245 1.279 . S
C251 O252 1.315 . S
C251 O253 1.279 1_565 S
O252 Cd244 2.223 1_455 S
O252 C251 1.315 . S
O253 Cd243 2.240 . S
O253 C251 1.279 1_545 S
O254 Cd244 2.298 1_455 S
O254 C249 1.247 . S
O255 Cd244 2.439 1_455 S
O255 C249 1.208 . S
C256 C257 1.363 . S
C256 C262 1.379 . S
C256 N264 1.356 . S
C257 C256 1.363 . S
C257 C263 1.363 1_545 S
C258 C259 1.363 . S
C258 C263 1.379 1_545 S
C258 N265 1.356 1_545 S
C259 C258 1.363 . S
C259 C262 1.363 . S
N260 C262 1.356 . S
N260 H272 0.984 . S
N260 H273 0.985 . S
N261 C263 1.356 . S
N261 H266 0.984 . S
N261 H267 0.985 . S
C262 C256 1.379 . S
C262 C259 1.363 . S
C262 N260 1.356 . S
C263 C257 1.363 1_565 S
C263 C258 1.379 1_565 S
C263 N261 1.356 . S
N264 C256 1.356 . S
N264 H270 0.984 . S
N264 H271 0.984 . S
N265 C258 1.356 1_565 S
N265 H268 0.984 1_565 S
N265 H269 0.985 . S
H266 N261 0.984 . S
H267 N261 0.985 . S
H268 N265 0.984 1_545 S
H269 N265 0.985 . S
H270 N264 0.984 . S
H271 N264 0.984 . S
H272 N260 0.984 . S
H273 N260 0.985 . S
C274 C275 1.363 . S
C274 C280 1.379 . S
C274 N282 1.356 . S
C275 C274 1.363 . S
C275 C281 1.363 1_455 S
C276 C277 1.363 1_655 S
C276 C281 1.379 . S
C276 N283 1.356 . S
C277 C276 1.363 1_455 S
C277 C280 1.363 . S
N278 C280 1.356 . S
N278 H290 0.984 . S
N278 H291 0.985 . S
N279 C281 1.356 . S
N279 H284 0.984 . S
N279 H285 0.985 . S
C280 C274 1.379 . S
C280 C277 1.363 . S
C280 N278 1.356 . S
C281 C275 1.363 1_655 S
C281 C276 1.379 . S
C281 N279 1.356 . S
N282 C274 1.356 . S
N282 H288 0.984 . S
N282 H289 0.984 . S
N283 C276 1.356 . S
N283 H286 0.984 . S
N283 H287 0.985 . S
H284 N279 0.984 . S
H285 N279 0.985 . S
H286 N283 0.984 . S
H287 N283 0.985 . S
H288 N282 0.984 . S
H289 N282 0.984 . S
H290 N278 0.984 . S
H291 N278 0.985 . S
C292 C293 1.363 1_565 S
C292 C298 1.379 . S
C292 N300 1.356 . S
C293 C292 1.363 1_545 S
C293 C299 1.363 . S
C294 C295 1.363 . S
C294 C299 1.379 . S
C294 N301 1.356 . S
C295 C294 1.363 . S
C295 C298 1.363 1_545 S
N296 C298 1.356 . S
N296 H308 0.984 . S
N296 H309 0.985 . S
N297 C299 1.356 . S
N297 H302 0.984 . S
N297 H303 0.985 . S
C298 C292 1.379 . S
C298 C295 1.363 1_565 S
C298 N296 1.356 . S
C299 C293 1.363 . S
C299 C294 1.379 . S
C299 N297 1.356 . S
N300 C292 1.356 . S
N300 H306 0.984 . S
N300 H307 0.984 . S
N301 C294 1.356 . S
N301 H304 0.984 . S
N301 H305 0.985 . S
H302 N297 0.984 . S
H303 N297 0.985 . S
H304 N301 0.984 . S
H305 N301 0.985 . S
H306 N300 0.984 . S
H307 N300 0.984 . S
H308 N296 0.984 . S
H309 N296 0.985 . S
C310 C311 1.363 . S
C310 C316 1.379 . S
C310 N318 1.356 . S
C311 C310 1.363 . S
C311 C317 1.363 . S
C312 C313 1.363 . S
C312 C317 1.379 . S
C312 N319 1.356 . S
C313 C312 1.363 . S
C313 C316 1.363 . S
N314 C316 1.356 . S
N314 H326 0.984 . S
N314 H327 0.985 . S
N315 C317 1.356 . S
N315 H320 0.984 1_455 S
N315 H321 0.985 1_455 S
C316 C310 1.379 . S
C316 C313 1.363 . S
C316 N314 1.356 . S
C317 C311 1.363 . S
C317 C312 1.379 . S
C317 N315 1.356 . S
N318 C310 1.356 . S
N318 H324 0.984 . S
N318 H325 0.984 . S
N319 C312 1.356 . S
N319 H322 0.984 . S
N319 H323 0.985 . S
H320 N315 0.984 1_655 S
H321 N315 0.985 1_655 S
H322 N319 0.984 . S
H323 N319 0.985 . S
H324 N318 0.984 . S
H325 N318 0.984 . S
H326 N314 0.984 . S
H327 N314 0.985 . S
C328 C329 1.363 1_565 S
C328 C334 1.379 . S
C328 N336 1.356 . S
C329 C328 1.363 1_545 S
C329 C335 1.363 . S
C330 C331 1.363 1_545 S
C330 C335 1.379 . S
C330 N337 1.356 . S
C331 C330 1.363 1_565 S
C331 C334 1.363 . S
N332 C334 1.356 . S
N332 H344 0.984 . S
N332 H345 0.985 . S
N333 C335 1.356 . S
N333 H338 0.984 . S
N333 H339 0.985 . S
C334 C328 1.379 . S
C334 C331 1.363 . S
C334 N332 1.356 . S
C335 C329 1.363 . S
C335 C330 1.379 . S
C335 N333 1.356 . S
N336 C328 1.356 . S
N336 H342 0.984 . S
N336 H343 0.984 . S
N337 C330 1.356 . S
N337 H340 0.984 . S
N337 H341 0.985 . S
H338 N333 0.984 . S
H339 N333 0.985 . S
H340 N337 0.984 . S
H341 N337 0.985 . S
H342 N336 0.984 . S
H343 N336 0.984 . S
H344 N332 0.984 . S
H345 N332 0.985 . S
C346 C347 1.363 . S
C346 C352 1.379 . S
C346 N354 1.356 . S
C347 C346 1.363 . S
C347 C353 1.363 . S
C348 C349 1.363 . S
C348 C353 1.379 . S
C348 N355 1.356 . S
C349 C348 1.363 . S
C349 C352 1.363 . S
N350 C352 1.356 . S
N350 H362 0.984 . S
N350 H363 0.985 . S
N351 C353 1.356 1_655 S
N351 H356 0.984 . S
N351 H357 0.985 . S
C352 C346 1.379 . S
C352 C349 1.363 . S
C352 N350 1.356 . S
C353 C347 1.363 . S
C353 C348 1.379 . S
C353 N351 1.356 1_455 S
N354 C346 1.356 . S
N354 H360 0.984 . S
N354 H361 0.984 . S
N355 C348 1.356 . S
N355 H358 0.984 . S
N355 H359 0.985 1_455 S
H356 N351 0.984 . S
H357 N351 0.985 . S
H358 N355 0.984 . S
H359 N355 0.985 1_655 S
H360 N354 0.984 . S
H361 N354 0.984 . S
H362 N350 0.984 . S
H363 N350 0.985 . S
C364 C365 1.363 . S
C364 C370 1.379 . S
C364 N372 1.356 . S
C365 C364 1.363 . S
C365 C371 1.363 1_545 S
C366 C367 1.363 1_565 S
C366 C371 1.379 . S
C366 N373 1.356 . S
C367 C366 1.363 1_545 S
C367 C370 1.363 . S
N368 C370 1.356 . S
N368 H380 0.984 . S
N368 H381 0.985 . S
N369 C371 1.356 . S
N369 H374 0.984 . S
N369 H375 0.985 . S
C370 C364 1.379 . S
C370 C367 1.363 . S
C370 N368 1.356 . S
C371 C365 1.363 1_565 S
C371 C366 1.379 . S
C371 N369 1.356 . S
N372 C364 1.356 . S
N372 H378 0.984 . S
N372 H379 0.984 . S
N373 C366 1.356 . S
N373 H376 0.984 . S
N373 H377 0.985 . S
H374 N369 0.984 . S
H375 N369 0.985 . S
H376 N373 0.984 . S
H377 N373 0.985 . S
H378 N372 0.984 . S
H379 N372 0.984 . S
H380 N368 0.984 . S
H381 N368 0.985 . S
C382 C383 1.363 . S
C382 C388 1.378 1_455 S
C382 N390 1.356 . S
C383 C382 1.363 . S
C383 C389 1.363 . S
C384 C385 1.363 . S
C384 C389 1.379 . S
C384 N391 1.356 . S
C385 C384 1.363 . S
C385 C388 1.363 1_455 S
N386 C388 1.357 . S
N386 H398 0.984 . S
N386 H399 0.985 . S
N387 C389 1.356 . S
N387 H392 0.984 . S
N387 H393 0.985 . S
C388 C382 1.378 1_655 S
C388 C385 1.363 1_655 S
C388 N386 1.357 . S
C389 C383 1.363 . S
C389 C384 1.379 . S
C389 N387 1.356 . S
N390 C382 1.356 . S
N390 H396 0.984 . S
N390 H397 0.984 . S
N391 C384 1.356 . S
N391 H394 0.984 . S
N391 H395 0.985 . S
H392 N387 0.984 . S
H393 N387 0.985 . S
H394 N391 0.984 . S
H395 N391 0.985 . S
H396 N390 0.984 . S
H397 N390 0.984 . S
H398 N386 0.984 . S
H399 N386 0.985 . S
C259 C237 1.647 . S
C257 C11 1.063 1_545 S
C277 C248 1.422 . S
C275 C115 1.297 . S
C295 C236 1.471 1_545 S
C293 C1 1.196 . S
C313 C249 1.549 . S
C311 C125 1.097 . S
C331 C251 1.674 . S
C329 C55 1.182 . S
C349 C235 1.497 . S
C347 C143 1.162 . S
C367 C250 1.575 . S
C365 C29 1.168 . S
C383 C169 1.146 . S
C385 C234 1.622 . S
