# Generated by pormake.
# Topology ssc, (4,4)-cn, num edge types: 1
# Building blocks:
#     Node 0, Type 0, BuildingBlock: CEKHIL_clean_sbu_0, # of connection points: 4
#     Node 1, Type 0, BuildingBlock: CEKHIL_clean_sbu_0, # of connection points: 4
#     Node 2, Type 0, BuildingBlock: CEKHIL_clean_sbu_0, # of connection points: 4
#     Node 3, Type 0, BuildingBlock: CEKHIL_clean_sbu_0, # of connection points: 4
#     Node 4, Type 0, BuildingBlock: CEKHIL_clean_sbu_0, # of connection points: 4
#     Node 5, Type 0, BuildingBlock: CEKHIL_clean_sbu_0, # of connection points: 4
#     Node 6, Type 0, BuildingBlock: CEKHIL_clean_sbu_0, # of connection points: 4
#     Node 7, Type 0, BuildingBlock: CEKHIL_clean_sbu_0, # of connection points: 4
#     Node 8, Type 0, BuildingBlock: CEKHIL_clean_sbu_0, # of connection points: 4
#     Node 9, Type 0, BuildingBlock: CEKHIL_clean_sbu_0, # of connection points: 4
#     Node 10, Type 0, BuildingBlock: CEKHIL_clean_sbu_0, # of connection points: 4
#     Node 11, Type 0, BuildingBlock: CEKHIL_clean_sbu_0, # of connection points: 4
#     Node 12, Type 1, BuildingBlock: GIZVER_clean_linker_0, # of connection points: 4
#     Node 13, Type 1, BuildingBlock: GIZVER_clean_linker_0, # of connection points: 4
#     Node 14, Type 1, BuildingBlock: GIZVER_clean_linker_0, # of connection points: 4
#     Node 15, Type 1, BuildingBlock: GIZVER_clean_linker_0, # of connection points: 4
#     Node 16, Type 1, BuildingBlock: GIZVER_clean_linker_0, # of connection points: 4
#     Node 17, Type 1, BuildingBlock: GIZVER_clean_linker_0, # of connection points: 4
#     Node 18, Type 1, BuildingBlock: GIZVER_clean_linker_0, # of connection points: 4
#     Node 19, Type 1, BuildingBlock: GIZVER_clean_linker_0, # of connection points: 4
#     Node 20, Type 1, BuildingBlock: GIZVER_clean_linker_0, # of connection points: 4
#     Node 21, Type 1, BuildingBlock: GIZVER_clean_linker_0, # of connection points: 4
#     Node 22, Type 1, BuildingBlock: GIZVER_clean_linker_0, # of connection points: 4
#     Node 23, Type 1, BuildingBlock: GIZVER_clean_linker_0, # of connection points: 4
#     Edge 24, Type (0, 1), BuildingBlock: XIVTED_clean_linker_0, # of connection points: 2
#     Edge 25, Type (0, 1), BuildingBlock: XIVTED_clean_linker_0, # of connection points: 2
#     Edge 26, Type (0, 1), BuildingBlock: XIVTED_clean_linker_0, # of connection points: 2
#     Edge 27, Type (0, 1), BuildingBlock: XIVTED_clean_linker_0, # of connection points: 2
#     Edge 28, Type (0, 1), BuildingBlock: XIVTED_clean_linker_0, # of connection points: 2
#     Edge 29, Type (0, 1), BuildingBlock: XIVTED_clean_linker_0, # of connection points: 2
#     Edge 30, Type (0, 1), BuildingBlock: XIVTED_clean_linker_0, # of connection points: 2
#     Edge 31, Type (0, 1), BuildingBlock: XIVTED_clean_linker_0, # of connection points: 2
#     Edge 32, Type (0, 1), BuildingBlock: XIVTED_clean_linker_0, # of connection points: 2
#     Edge 33, Type (0, 1), BuildingBlock: XIVTED_clean_linker_0, # of connection points: 2
#     Edge 34, Type (0, 1), BuildingBlock: XIVTED_clean_linker_0, # of connection points: 2
#     Edge 35, Type (0, 1), BuildingBlock: XIVTED_clean_linker_0, # of connection points: 2
#     Edge 36, Type (0, 1), BuildingBlock: XIVTED_clean_linker_0, # of connection points: 2
#     Edge 37, Type (0, 1), BuildingBlock: XIVTED_clean_linker_0, # of connection points: 2
#     Edge 38, Type (0, 1), BuildingBlock: XIVTED_clean_linker_0, # of connection points: 2
#     Edge 39, Type (0, 1), BuildingBlock: XIVTED_clean_linker_0, # of connection points: 2
#     Edge 40, Type (0, 1), BuildingBlock: XIVTED_clean_linker_0, # of connection points: 2
#     Edge 41, Type (0, 1), BuildingBlock: XIVTED_clean_linker_0, # of connection points: 2
#     Edge 42, Type (0, 1), BuildingBlock: XIVTED_clean_linker_0, # of connection points: 2
#     Edge 43, Type (0, 1), BuildingBlock: XIVTED_clean_linker_0, # of connection points: 2
#     Edge 44, Type (0, 1), BuildingBlock: XIVTED_clean_linker_0, # of connection points: 2
#     Edge 45, Type (0, 1), BuildingBlock: XIVTED_clean_linker_0, # of connection points: 2
#     Edge 46, Type (0, 1), BuildingBlock: XIVTED_clean_linker_0, # of connection points: 2
#     Edge 47, Type (0, 1), BuildingBlock: XIVTED_clean_linker_0, # of connection points: 2
#     Edge 48, Type (0, 1), BuildingBlock: XIVTED_clean_linker_0, # of connection points: 2
#     Edge 49, Type (0, 1), BuildingBlock: XIVTED_clean_linker_0, # of connection points: 2
#     Edge 50, Type (0, 1), BuildingBlock: XIVTED_clean_linker_0, # of connection points: 2
#     Edge 51, Type (0, 1), BuildingBlock: XIVTED_clean_linker_0, # of connection points: 2
#     Edge 52, Type (0, 1), BuildingBlock: XIVTED_clean_linker_0, # of connection points: 2
#     Edge 53, Type (0, 1), BuildingBlock: XIVTED_clean_linker_0, # of connection points: 2
#     Edge 54, Type (0, 1), BuildingBlock: XIVTED_clean_linker_0, # of connection points: 2
#     Edge 55, Type (0, 1), BuildingBlock: XIVTED_clean_linker_0, # of connection points: 2
#     Edge 56, Type (0, 1), BuildingBlock: XIVTED_clean_linker_0, # of connection points: 2
#     Edge 57, Type (0, 1), BuildingBlock: XIVTED_clean_linker_0, # of connection points: 2
#     Edge 58, Type (0, 1), BuildingBlock: XIVTED_clean_linker_0, # of connection points: 2
#     Edge 59, Type (0, 1), BuildingBlock: XIVTED_clean_linker_0, # of connection points: 2
#     Edge 60, Type (0, 1), BuildingBlock: XIVTED_clean_linker_0, # of connection points: 2
#     Edge 61, Type (0, 1), BuildingBlock: XIVTED_clean_linker_0, # of connection points: 2
#     Edge 62, Type (0, 1), BuildingBlock: XIVTED_clean_linker_0, # of connection points: 2
#     Edge 63, Type (0, 1), BuildingBlock: XIVTED_clean_linker_0, # of connection points: 2
#     Edge 64, Type (0, 1), BuildingBlock: XIVTED_clean_linker_0, # of connection points: 2
#     Edge 65, Type (0, 1), BuildingBlock: XIVTED_clean_linker_0, # of connection points: 2
#     Edge 66, Type (0, 1), BuildingBlock: XIVTED_clean_linker_0, # of connection points: 2
#     Edge 67, Type (0, 1), BuildingBlock: XIVTED_clean_linker_0, # of connection points: 2
#     Edge 68, Type (0, 1), BuildingBlock: XIVTED_clean_linker_0, # of connection points: 2
#     Edge 69, Type (0, 1), BuildingBlock: XIVTED_clean_linker_0, # of connection points: 2
#     Edge 70, Type (0, 1), BuildingBlock: XIVTED_clean_linker_0, # of connection points: 2
#     Edge 71, Type (0, 1), BuildingBlock: XIVTED_clean_linker_0, # of connection points: 2
# Relax obj value: 0.117
# Max RMSD: 0.302
# Mean RMSD: 0.276
data_MOF--net-ssc--node1-CEKHIL_clean_sbu_0--node2-GIZVER_clean_linker_0--edge1-XIVTED_clean_linker_0
_symmetry_space_group_name_H-M    P1
_symmetry_Int_Tables_number       1
_symmetry_cell_setting            triclinic
loop_
_symmetry_equiv_pos_as_xyz
'x, y, z'
_cell_length_a     31.054903
_cell_length_b     31.184152
_cell_length_c     31.013698
_cell_angle_alpha  91.28263
_cell_angle_beta   90.032666
_cell_angle_gamma 93.525756
loop_
_atom_site_label
_atom_site_type_symbol
_atom_site_fract_x
_atom_site_fract_y
_atom_site_fract_z
_atom_type_partial_charge
Co0 Co 0.02717 0.23342 0.09038 0.0
O1 O 0.06975 0.23717 0.04534 0.0
O2 O 0.01273 0.2765 0.05003 0.0
C3 C 0.07404 0.23314 0.14577 0.0
O4 O 0.97834 0.24223 0.13279 0.0
Co5 Co 0.01612 0.15505 0.1498 0.0
O6 O 0.97562 0.19038 0.18216 0.0
C7 C 0.98308 0.14722 0.06103 0.0
C8 C 0.04797 0.26774 0.03006 0.0
C9 C 0.96306 0.22527 0.16736 0.0
O10 O 0.99191 0.18774 0.05632 0.0
O11 O 0.99266 0.12728 0.09501 0.0
O12 O 0.06544 0.26893 0.12791 0.0
O13 O 0.05731 0.19841 0.12725 0.0
Co14 Co 0.0461 0.79669 0.4499 0.0
O15 O 0.08315 0.77336 0.4925 0.0
O16 O 0.01577 0.74957 0.47804 0.0
C17 C 0.09433 0.8002 0.39578 0.0
O18 O 0.99796 0.80853 0.40838 0.0
Co19 Co 0.06264 0.88437 0.40583 0.0
O20 O 0.02382 0.85648 0.36081 0.0
C21 C 0.0305 0.88143 0.49575 0.0
C22 C 0.05111 0.74547 0.49944 0.0
C23 C 0.99643 0.82663 0.37175 0.0
O24 O 0.02584 0.84003 0.49348 0.0
O25 O 0.04667 0.90436 0.46531 0.0
O26 O 0.07326 0.76404 0.40421 0.0
O27 O 0.08824 0.83189 0.42209 0.0
Co28 Co 0.5198 0.77304 0.61064 0.0
O29 O 0.56456 0.7904 0.57086 0.0
O30 O 0.50318 0.82243 0.57933 0.0
C31 C 0.5637 0.76506 0.66701 0.0
O32 O 0.46767 0.76702 0.65054 0.0
Co33 Co 0.51481 0.68245 0.64961 0.0
O34 O 0.4709 0.70639 0.68801 0.0
C35 C 0.489 0.69194 0.55957 0.0
C36 C 0.54048 0.82119 0.5605 0.0
C37 C 0.45414 0.74177 0.68056 0.0
O38 O 0.49189 0.73303 0.56538 0.0
O39 O 0.49944 0.66574 0.58839 0.0
O40 O 0.55183 0.80286 0.65709 0.0
O41 O 0.55195 0.73392 0.64047 0.0
Co42 Co 0.52965 0.30666 0.92411 0.0
O43 O 0.56286 0.29833 0.9758 0.0
O44 O 0.50048 0.26368 0.95897 0.0
C45 C 0.5841 0.30514 0.87647 0.0
O46 O 0.48687 0.30246 0.87426 0.0
Co47 Co 0.54284 0.38554 0.86531 0.0
O48 O 0.50499 0.35126 0.82422 0.0
C49 C 0.50106 0.39549 0.94976 0.0
C50 C 0.53285 0.26911 0.98539 0.0
C51 C 0.48262 0.31825 0.83668 0.0
O52 O 0.4994 0.35441 0.95433 0.0
O53 O 0.51917 0.41444 0.91775 0.0
O54 O 0.5663 0.26957 0.89116 0.0
O55 O 0.57142 0.34019 0.89398 0.0
Co56 Co 0.09721 0.98659 0.22655 0.0
O57 O 0.15429 0.9683 0.21613 0.0
O58 O 0.12303 0.97163 0.28031 0.0
C59 C 0.06444 0.94902 0.17192 0.0
O60 O 0.03942 0.00245 0.25041 0.0
Co61 Co 0.05067 0.04069 0.16043 0.0
O62 O 0.0008 0.03476 0.20074 0.0
C63 C 0.12858 0.07557 0.20526 0.0
C64 C 0.1568 0.96344 0.25757 0.0
C65 C 0.0048 0.0192 0.23814 0.0
O66 O 0.12153 0.04717 0.23406 0.0
O67 O 0.10703 0.07571 0.17005 0.0
O68 O 0.07209 0.93044 0.20806 0.0
O69 O 0.08002 0.98817 0.16874 0.0
Co70 Co 0.23905 0.91277 0.59438 0.0
O71 O 0.22237 0.94841 0.64227 0.0
O72 O 0.19034 0.94441 0.57824 0.0
C73 C 0.24636 0.8528 0.63211 0.0
O74 O 0.24386 0.87857 0.53832 0.0
Co75 Co 0.32825 0.87231 0.58975 0.0
O76 O 0.30382 0.84165 0.5377 0.0
C77 C 0.32263 0.96474 0.57454 0.0
C78 C 0.19159 0.95998 0.61742 0.0
C79 C 0.26839 0.85145 0.52085 0.0
O80 O 0.28105 0.96002 0.57335 0.0
O81 O 0.34657 0.93463 0.58496 0.0
O82 O 0.20827 0.863 0.62006 0.0
O83 O 0.27761 0.88065 0.6244 0.0
Co84 Co 0.43889 0.04595 0.7762 0.0
O85 O 0.39253 0.07671 0.75314 0.0
O86 O 0.40658 0.0711 0.82274 0.0
C87 C 0.48962 0.07175 0.7305 0.0
O88 O 0.48482 0.0197 0.81227 0.0
Co89 Co 0.48688 0.97933 0.72113 0.0
O90 O 0.53113 0.98881 0.76742 0.0
C91 C 0.39858 0.95799 0.75184 0.0
C92 C 0.38294 0.08637 0.79278 0.0
C93 C 0.52114 0.00338 0.8046 0.0
O94 O 0.40067 0.99134 0.77718 0.0
O95 O 0.42764 0.94978 0.72411 0.0
O96 O 0.47999 0.09432 0.76456 0.0
O97 O 0.46638 0.03665 0.72366 0.0
Co98 Co 0.3039 0.11397 0.0494 0.0
O99 O 0.30457 0.06505 0.08622 0.0
O100 O 0.34743 0.07639 0.0299 0.0
C101 C 0.3015 0.16388 0.10271 0.0
O102 O 0.31464 0.16051 0.00465 0.0
Co103 Co 0.22844 0.17505 0.04791 0.0
O104 O 0.27205 0.21442 0.0199 0.0
C105 C 0.21715 0.08748 0.00928 0.0
C106 C 0.33569 0.05235 0.06202 0.0
C107 C 0.30407 0.19944 0.00028 0.0
O108 O 0.2579 0.0824 0.01287 0.0
O109 O 0.19909 0.12083 0.02342 0.0
O110 O 0.3383 0.14925 0.09146 0.0
O111 O 0.26795 0.14598 0.08371 0.0
Co112 Co 0.73762 0.41836 0.07058 0.0
O113 O 0.7064 0.44517 0.11651 0.0
O114 O 0.68806 0.44401 0.04736 0.0
C115 C 0.74699 0.35646 0.10431 0.0
O116 O 0.75824 0.39228 0.01434 0.0
Co117 Co 0.83159 0.39129 0.07781 0.0
O118 O 0.81036 0.34946 0.03191 0.0
C119 C 0.81505 0.48314 0.06962 0.0
C120 C 0.67925 0.45493 0.08685 0.0
C121 C 0.78006 0.35933 0.007 0.0
O122 O 0.7748 0.473 0.06228 0.0
O123 O 0.84221 0.45548 0.07911 0.0
O124 O 0.71053 0.36269 0.08553 0.0
O125 O 0.77517 0.38876 0.10507 0.0
Co126 Co 0.91348 0.55283 0.22999 0.0
O127 O 0.87302 0.5875 0.20213 0.0
O128 O 0.87707 0.57847 0.27264 0.0
C129 C 0.9724 0.57654 0.19367 0.0
O130 O 0.95198 0.52189 0.27098 0.0
Co131 Co 0.96225 0.48376 0.18014 0.0
O132 O 0.00207 0.49159 0.23024 0.0
C133 C 0.87146 0.46475 0.20401 0.0
C134 C 0.8584 0.59591 0.24044 0.0
C135 C 0.98852 0.50495 0.26659 0.0
O136 O 0.87133 0.5012 0.22425 0.0
O137 O 0.90404 0.45207 0.1831 0.0
O138 O 0.95863 0.59862 0.22637 0.0
O139 O 0.94793 0.54352 0.18132 0.0
Co140 Co 0.73363 0.5851 0.53454 0.0
O141 O 0.74704 0.53984 0.57279 0.0
O142 O 0.77836 0.55211 0.50963 0.0
C143 C 0.73359 0.63847 0.58448 0.0
O144 O 0.73057 0.62886 0.48671 0.0
Co145 Co 0.64866 0.6323 0.54311 0.0
O146 O 0.67309 0.66853 0.49633 0.0
C147 C 0.64583 0.54329 0.50985 0.0
C148 C 0.77526 0.52927 0.54412 0.0
C149 C 0.70719 0.65963 0.47603 0.0
O150 O 0.68726 0.54562 0.50696 0.0
O151 O 0.62431 0.57327 0.52631 0.0
O152 O 0.76973 0.62668 0.56824 0.0
O153 O 0.69944 0.6152 0.5732 0.0
Co154 Co 0.6179 0.48894 0.73889 0.0
O155 O 0.66223 0.4533 0.71802 0.0
O156 O 0.65018 0.46898 0.78686 0.0
C157 C 0.56367 0.46052 0.69735 0.0
O158 O 0.57509 0.52203 0.77388 0.0
Co159 Co 0.57257 0.55234 0.68149 0.0
O160 O 0.52865 0.5495 0.72822 0.0
C161 C 0.66142 0.57402 0.71061 0.0
C162 C 0.67316 0.44975 0.75824 0.0
C163 C 0.53923 0.53876 0.766 0.0
O164 O 0.65925 0.54074 0.73441 0.0
O165 O 0.63094 0.58402 0.68567 0.0
O166 O 0.57415 0.44169 0.73256 0.0
O167 O 0.58852 0.49323 0.68644 0.0
H168 H 0.11991 0.30049 0.79914 0.0
H169 H 0.02429 0.23758 0.71468 0.0
H170 H 0.10973 0.16339 0.78664 0.0
H171 H 0.0622 0.34225 0.77178 0.0
H172 H 0.07532 0.32785 0.71805 0.0
H173 H 0.98478 0.31108 0.79952 0.0
H174 H 0.88707 0.32901 0.70503 0.0
H175 H 0.01991 0.33393 0.66688 0.0
C176 C 0.10253 0.27144 0.78734 0.0
C177 C 0.11762 0.23148 0.79779 0.0
C178 C 0.06723 0.27409 0.75913 0.0
C179 C 0.04862 0.23603 0.73955 0.0
C180 C 0.06326 0.1959 0.75022 0.0
C181 C 0.09634 0.19406 0.78075 0.0
C182 C 0.05454 0.31797 0.74573 0.0
C183 C 0.00747 0.31943 0.73396 0.0
C184 C 0.97557 0.31509 0.7662 0.0
C185 C 0.93196 0.31748 0.7554 0.0
C186 C 0.92058 0.32433 0.71254 0.0
C187 C 0.95182 0.33107 0.68054 0.0
C188 C 0.99541 0.32812 0.69129 0.0
H189 H 0.10326 0.75304 0.78178 0.0
H190 H 0.02677 0.80508 0.884 0.0
H191 H 0.11757 0.88706 0.81574 0.0
H192 H 0.0449 0.70834 0.81021 0.0
H193 H 0.05937 0.71664 0.8652 0.0
H194 H 0.97151 0.73197 0.78464 0.0
H195 H 0.87195 0.70737 0.87799 0.0
H196 H 0.00484 0.72162 0.91833 0.0
C197 C 0.09207 0.78049 0.79962 0.0
C198 C 0.11293 0.82111 0.79406 0.0
C199 C 0.05901 0.77472 0.83041 0.0
C200 C 0.04876 0.80978 0.85719 0.0
C201 C 0.0692 0.85053 0.85121 0.0
C202 C 0.09964 0.85621 0.81829 0.0
C203 C 0.04035 0.72987 0.83874 0.0
C204 C 0.99311 0.72816 0.8505 0.0
C205 C 0.9617 0.7287 0.81801 0.0
C206 C 0.91781 0.72251 0.82822 0.0
C207 C 0.90558 0.71582 0.87122 0.0
C208 C 0.93655 0.71432 0.90418 0.0
C209 C 0.98032 0.72226 0.89355 0.0
H210 H 0.4531 0.6737 0.22186 0.0
H211 H 0.55212 0.74563 0.29578 0.0
H212 H 0.58626 0.66622 0.18786 0.0
H213 H 0.43349 0.71258 0.28481 0.0
H214 H 0.47487 0.7298 0.32302 0.0
H215 H 0.47637 0.77747 0.21234 0.0
H216 H 0.42118 0.89273 0.25593 0.0
H217 H 0.42402 0.78624 0.3409 0.0
C218 C 0.48665 0.68444 0.22667 0.0
C219 C 0.51826 0.66783 0.20007 0.0
C220 C 0.49862 0.71387 0.26036 0.0
C221 C 0.54261 0.72487 0.26848 0.0
C222 C 0.5742 0.70815 0.24181 0.0
C223 C 0.56164 0.68088 0.20707 0.0
C224 C 0.46448 0.73188 0.28881 0.0
C225 C 0.45613 0.77812 0.27966 0.0
C226 C 0.46345 0.79614 0.23862 0.0
C227 C 0.45216 0.8381 0.23084 0.0
C228 C 0.43275 0.86161 0.26353 0.0
C229 C 0.42117 0.84279 0.30274 0.0
C230 C 0.4339 0.80142 0.31106 0.0
H231 H 0.59855 0.22727 0.23586 0.0
H232 H 0.51891 0.24926 0.34767 0.0
H233 H 0.6019 0.35124 0.29932 0.0
H234 H 0.53689 0.17562 0.25118 0.0
H235 H 0.55973 0.16668 0.30229 0.0
H236 H 0.45929 0.194 0.24518 0.0
H237 H 0.37729 0.16288 0.35274 0.0
H238 H 0.51489 0.16218 0.36693 0.0
C239 C 0.5862 0.24862 0.26031 0.0
C240 C 0.60312 0.29138 0.26364 0.0
C241 C 0.55402 0.23323 0.28923 0.0
C242 C 0.54109 0.26071 0.32302 0.0
C243 C 0.55762 0.30338 0.32593 0.0
C244 C 0.58763 0.31869 0.29562 0.0
C245 C 0.53683 0.18672 0.28552 0.0
C246 C 0.49205 0.17905 0.30407 0.0
C247 C 0.45549 0.18539 0.2787 0.0
C248 C 0.41406 0.18026 0.29657 0.0
C249 C 0.40947 0.16906 0.33986 0.0
C250 C 0.44537 0.16221 0.36563 0.0
C251 C 0.48674 0.1671 0.34741 0.0
H252 H 0.62169 0.007 0.17955 0.0
H253 H 0.75631 0.02612 0.21472 0.0
H254 H 0.68085 0.13442 0.19493 0.0
H255 H 0.66244 0.94554 0.1877 0.0
H256 H 0.71926 0.95493 0.17829 0.0
H257 H 0.65516 0.98633 0.27712 0.0
H258 H 0.71817 0.89987 0.35803 0.0
H259 H 0.74177 0.89709 0.22188 0.0
C260 C 0.64935 0.02829 0.18833 0.0
C261 C 0.64606 0.073 0.18714 0.0
C262 C 0.68876 0.01107 0.19965 0.0
C263 C 0.72535 0.039 0.2084 0.0
C264 C 0.72194 0.08354 0.20779 0.0
C265 C 0.68224 0.09994 0.19811 0.0
C266 C 0.69238 0.96293 0.20016 0.0
C267 C 0.70129 0.94705 0.24487 0.0
C268 C 0.67883 0.96259 0.28099 0.0
C269 C 0.68583 0.94638 0.32201 0.0
C270 C 0.71493 0.91429 0.32674 0.0
C271 C 0.73449 0.89567 0.29091 0.0
C272 C 0.72781 0.91228 0.24991 0.0
H273 H 0.23167 0.22887 0.60189 0.0
H274 H 0.25481 0.35018 0.53936 0.0
H275 H 0.35899 0.29028 0.59902 0.0
H276 H 0.17575 0.25296 0.55585 0.0
H277 H 0.17537 0.30635 0.5772 0.0
H278 H 0.20182 0.24309 0.47597 0.0
H279 H 0.16506 0.34269 0.39262 0.0
H280 H 0.16023 0.36274 0.5298 0.0
C281 C 0.25403 0.25373 0.58963 0.0
C282 C 0.29754 0.25493 0.60223 0.0
C283 C 0.23875 0.28651 0.56407 0.0
C284 C 0.26696 0.32226 0.55431 0.0
C285 C 0.31053 0.32292 0.56617 0.0
C286 C 0.32588 0.28794 0.58745 0.0
C287 C 0.19126 0.28589 0.5529 0.0
C288 C 0.18346 0.30169 0.50803 0.0
C289 C 0.19141 0.27527 0.47174 0.0
C290 C 0.18528 0.29039 0.43008 0.0
C291 C 0.17139 0.33175 0.42489 0.0
C292 C 0.1618 0.35777 0.46046 0.0
C293 C 0.16784 0.34274 0.50215 0.0
H294 H 0.81431 0.04134 0.70092 0.0
H295 H 0.70208 0.95692 0.72595 0.0
H296 H 0.82318 0.90455 0.69517 0.0
H297 H 0.7399 0.06817 0.70298 0.0
H298 H 0.69499 0.03374 0.72046 0.0
H299 H 0.78585 0.01677 0.79134 0.0
H300 H 0.75411 0.11122 0.88565 0.0
H301 H 0.6937 0.11062 0.76121 0.0
C302 C 0.79946 0.00919 0.7041 0.0
C303 C 0.82433 0.97352 0.69812 0.0
C304 C 0.75551 0.00342 0.71524 0.0
C305 C 0.73609 0.96159 0.71838 0.0
C306 C 0.76072 0.92584 0.71178 0.0
C307 C 0.80468 0.93223 0.70233 0.0
C308 C 0.73002 0.04204 0.72544 0.0
C309 C 0.7366 0.05951 0.77123 0.0
C310 C 0.76621 0.04295 0.80044 0.0
C311 C 0.77214 0.06137 0.84175 0.0
C312 C 0.74784 0.0956 0.85443 0.0
C313 C 0.72011 0.11385 0.82546 0.0
C314 C 0.71437 0.09576 0.78397 0.0
H315 H 0.30382 0.81689 0.11429 0.0
H316 H 0.29211 0.68655 0.0625 0.0
H317 H 0.19115 0.73474 0.13964 0.0
H318 H 0.35712 0.7952 0.06387 0.0
H319 H 0.36986 0.74415 0.08308 0.0
H320 H 0.32201 0.80025 0.98987 0.0
H321 H 0.34612 0.69797 0.89995 0.0
H322 H 0.37469 0.68384 0.034 0.0
C323 C 0.28538 0.7866 0.10921 0.0
C324 C 0.24495 0.78017 0.12898 0.0
C325 C 0.30224 0.75352 0.08364 0.0
C326 C 0.2789 0.71318 0.07991 0.0
C327 C 0.23862 0.70702 0.09966 0.0
C328 C 0.22176 0.74062 0.12323 0.0
C329 C 0.34626 0.76054 0.06325 0.0
C330 C 0.34684 0.74336 0.01736 0.0
C331 C 0.33202 0.76804 0.98343 0.0
C332 C 0.33114 0.75127 0.9411 0.0
C333 C 0.34474 0.70987 0.93306 0.0
C334 C 0.36091 0.68549 0.96602 0.0
C335 C 0.36198 0.70239 0.00828 0.0
H336 H 0.75022 0.73463 0.13342 0.0
H337 H 0.79059 0.79778 0.01607 0.0
H338 H 0.88417 0.76453 0.1083 0.0
H339 H 0.70271 0.73078 0.05981 0.0
H340 H 0.69997 0.78045 0.08769 0.0
H341 H 0.71426 0.72786 0.98001 0.0
H342 H 0.69392 0.84205 0.91012 0.0
H343 H 0.69849 0.84815 0.04842 0.0
C344 C 0.77545 0.74657 0.11199 0.0
C345 C 0.81865 0.74638 0.12499 0.0
C346 C 0.76447 0.76374 0.07209 0.0
C347 C 0.79774 0.7818 0.0456 0.0
C348 C 0.84099 0.78111 0.05824 0.0
C349 C 0.85096 0.7622 0.09716 0.0
C350 C 0.71696 0.7644 0.06081 0.0
C351 C 0.70818 0.78578 0.01889 0.0
C352 C 0.70964 0.76203 0.97981 0.0
C353 C 0.70532 0.78257 0.94054 0.0
C354 C 0.69946 0.82668 0.94053 0.0
C355 C 0.69634 0.85046 0.97904 0.0
C356 C 0.70085 0.82996 0.01842 0.0
H357 H 0.30388 0.5639 0.17862 0.0
H358 H 0.23465 0.466 0.25211 0.0
H359 H 0.35353 0.43923 0.18967 0.0
H360 H 0.22178 0.56507 0.20068 0.0
H361 H 0.20475 0.53381 0.24628 0.0
H362 H 0.30561 0.55232 0.28493 0.0
H363 H 0.29491 0.67905 0.33706 0.0
H364 H 0.19836 0.62665 0.24831 0.0
C365 C 0.30153 0.53186 0.19162 0.0
C366 C 0.33384 0.50347 0.18257 0.0
C367 C 0.26625 0.51889 0.21793 0.0
C368 C 0.26249 0.47667 0.23323 0.0
C369 C 0.29425 0.44793 0.22351 0.0
C370 C 0.33009 0.46204 0.19917 0.0
C371 C 0.23315 0.55036 0.2306 0.0
C372 C 0.25107 0.58596 0.2608 0.0
C373 C 0.2886 0.5816 0.286 0.0
C374 C 0.30509 0.61577 0.31224 0.0
C375 C 0.28296 0.65324 0.31528 0.0
C376 C 0.24441 0.65726 0.29288 0.0
C377 C 0.22835 0.62365 0.26556 0.0
H378 H 0.80455 0.30206 0.59317 0.0
H379 H 0.77116 0.17861 0.53217 0.0
H380 H 0.68366 0.23444 0.62014 0.0
H381 H 0.84938 0.27877 0.5351 0.0
H382 H 0.85566 0.22444 0.54877 0.0
H383 H 0.81989 0.29643 0.46321 0.0
H384 H 0.82038 0.19767 0.36468 0.0
H385 H 0.84215 0.16596 0.49632 0.0
C386 C 0.78125 0.27561 0.58606 0.0
C387 C 0.74236 0.2725 0.60908 0.0
C388 C 0.7909 0.24313 0.5557 0.0
C389 C 0.76253 0.20607 0.55147 0.0
C390 C 0.72359 0.20358 0.57409 0.0
C391 C 0.71285 0.23776 0.60087 0.0
C392 C 0.8337 0.24576 0.53237 0.0
C393 C 0.82918 0.23225 0.48536 0.0
C394 C 0.82131 0.26282 0.45396 0.0
C395 C 0.81748 0.2502 0.41033 0.0
C396 C 0.82052 0.20681 0.39864 0.0
C397 C 0.82994 0.17622 0.42903 0.0
C398 C 0.8342 0.18916 0.47252 0.0
H399 H 0.16499 0.46714 0.65833 0.0
H400 H 0.28256 0.51854 0.72026 0.0
H401 H 0.18109 0.60105 0.69291 0.0
H402 H 0.22022 0.41929 0.67321 0.0
H403 H 0.27382 0.44448 0.67531 0.0
H404 H 0.1811 0.44121 0.75562 0.0
H405 H 0.25692 0.38586 0.85325 0.0
H406 H 0.31056 0.40523 0.72756 0.0
C407 C 0.18393 0.49375 0.67337 0.0
C408 C 0.16769 0.53476 0.6748 0.0
C409 C 0.22492 0.48736 0.69112 0.0
C410 C 0.2503 0.52277 0.70839 0.0
C411 C 0.23386 0.56359 0.70999 0.0
C412 C 0.19258 0.56889 0.69387 0.0
C413 C 0.24182 0.44298 0.69147 0.0
C414 C 0.24634 0.4277 0.7371 0.0
C415 C 0.21135 0.42929 0.7661 0.0
C416 C 0.21535 0.41532 0.80852 0.0
C417 C 0.25424 0.39904 0.82133 0.0
C418 C 0.28838 0.39506 0.79252 0.0
C419 C 0.28447 0.40922 0.75022 0.0
H420 H 0.00314 0.31204 0.97091 0.0
H421 H 0.132 0.38445 0.79204 0.0
H422 H 0.13189 0.2854 0.01026 0.0
H423 H 0.2151 0.43631 0.89441 0.0
H424 H 0.08133 0.35542 0.84666 0.0
H425 H 0.03439 0.35983 0.91502 0.0
C426 C 0.03786 0.31617 0.96765 0.0
C427 C 0.06511 0.29446 0.99471 0.0
C428 C 0.11008 0.37432 0.85686 0.0
C429 C 0.10049 0.34966 0.93278 0.0
C430 C 0.13882 0.39115 0.82585 0.0
C431 C 0.17836 0.41175 0.83879 0.0
C432 C 0.12173 0.37759 0.90056 0.0
C433 C 0.18557 0.41946 0.88307 0.0
C434 C 0.0555 0.34335 0.936 0.0
C435 C 0.1098 0.30103 0.98961 0.0
N436 N 0.15836 0.40099 0.91238 0.0
N437 N 0.12609 0.32844 0.95958 0.0
H438 H 0.91354 0.79523 0.38769 0.0
H439 H 0.88317 0.69795 0.15224 0.0
H440 H 0.00534 0.81808 0.28509 0.0
H441 H 0.78485 0.77867 0.19978 0.0
H442 H 0.92251 0.7105 0.22015 0.0
H443 H 0.86166 0.7622 0.33439 0.0
C444 C 0.9226 0.79351 0.35401 0.0
C445 C 0.96346 0.80993 0.34048 0.0
C446 C 0.89155 0.72417 0.21613 0.0
C447 C 0.9055 0.77108 0.28067 0.0
C448 C 0.86901 0.7169 0.17764 0.0
C449 C 0.83134 0.73825 0.17001 0.0
C450 C 0.87598 0.75244 0.24728 0.0
C451 C 0.814 0.76194 0.20424 0.0
C452 C 0.89315 0.77467 0.32394 0.0
C453 C 0.97393 0.80655 0.29668 0.0
N454 N 0.83706 0.76931 0.24129 0.0
N455 N 0.94524 0.78714 0.26837 0.0
H456 H 0.48589 0.73282 0.48282 0.0
H457 H 0.32094 0.55923 0.37588 0.0
H458 H 0.45301 0.61086 0.54138 0.0
H459 H 0.37657 0.66909 0.30985 0.0
H460 H 0.3759 0.5712 0.43263 0.0
H461 H 0.45221 0.70552 0.41593 0.0
C462 C 0.47172 0.70018 0.48154 0.0
C463 C 0.47168 0.67432 0.51795 0.0
C464 C 0.37689 0.59198 0.4051 0.0
C465 C 0.43271 0.64277 0.44134 0.0
C466 C 0.34582 0.58486 0.37259 0.0
C467 C 0.34446 0.61348 0.33852 0.0
C468 C 0.4062 0.62818 0.40337 0.0
C469 C 0.37687 0.64654 0.33582 0.0
C470 C 0.45271 0.68446 0.4432 0.0
C471 C 0.45348 0.63202 0.51416 0.0
N472 N 0.40595 0.65351 0.36821 0.0
N473 N 0.43407 0.61776 0.47673 0.0
H474 H 0.62031 0.23681 0.83761 0.0
H475 H 0.7802 0.26067 0.68538 0.0
H476 H 0.61303 0.37418 0.82901 0.0
H477 H 0.68513 0.33426 0.6246 0.0
H478 H 0.74406 0.27078 0.75475 0.0
H479 H 0.66709 0.23789 0.774 0.0
C480 C 0.62897 0.26722 0.82274 0.0
C481 C 0.6133 0.30554 0.83897 0.0
C482 C 0.73207 0.28585 0.72639 0.0
C483 C 0.66701 0.30684 0.76695 0.0
C484 C 0.75319 0.28105 0.68712 0.0
C485 C 0.73564 0.29691 0.64943 0.0
C486 C 0.694 0.30774 0.728 0.0
C487 C 0.69981 0.32206 0.65315 0.0
C488 C 0.65592 0.2678 0.78683 0.0
C489 C 0.62487 0.34396 0.81786 0.0
N490 N 0.67973 0.3264 0.69184 0.0
N491 N 0.65067 0.34355 0.78246 0.0
H492 H 0.0189 0.66323 0.48539 0.0
H493 H 0.10009 0.57721 0.70636 0.0
H494 H 0.09436 0.74346 0.57596 0.0
H495 H 0.14873 0.52095 0.58935 0.0
H496 H 0.05926 0.62551 0.66313 0.0
H497 H 0.03234 0.60014 0.52886 0.0
C498 C 0.03754 0.66762 0.51486 0.0
C499 C 0.05571 0.70841 0.52728 0.0
C500 C 0.07742 0.60127 0.64705 0.0
C501 C 0.06962 0.63729 0.57719 0.0
C502 C 0.10026 0.57339 0.67154 0.0
C503 C 0.12848 0.54574 0.6513 0.0
C504 C 0.08184 0.60039 0.60216 0.0
C505 C 0.12757 0.54202 0.60613 0.0
C506 C 0.04513 0.63176 0.53938 0.0
C507 C 0.08 0.71249 0.56533 0.0
N508 N 0.10539 0.56994 0.58285 0.0
N509 N 0.08607 0.67731 0.58917 0.0
H510 H 0.61549 0.8258 0.70789 0.0
H511 H 0.75365 0.79492 0.86843 0.0
H512 H 0.5743 0.69127 0.7118 0.0
H513 H 0.64456 0.71929 0.91781 0.0
H514 H 0.72583 0.78175 0.79531 0.0
H515 H 0.66202 0.8169 0.76984 0.0
C516 C 0.61647 0.79427 0.72172 0.0
C517 C 0.59146 0.75913 0.70456 0.0
C518 C 0.70885 0.76674 0.82203 0.0
C519 C 0.64441 0.74872 0.77563 0.0
C520 C 0.72494 0.77379 0.86361 0.0
C521 C 0.7008 0.75882 0.89898 0.0
C522 C 0.66859 0.74449 0.816 0.0
C523 C 0.66381 0.73161 0.8912 0.0
C524 C 0.64339 0.7891 0.75674 0.0
C525 C 0.59356 0.71905 0.72397 0.0
N526 N 0.6481 0.72608 0.85036 0.0
N527 N 0.61897 0.71508 0.75931 0.0
H528 H 0.4626 0.47161 0.94075 0.0
H529 H 0.41987 0.49471 0.19324 0.0
H530 H 0.49844 0.38147 0.03603 0.0
H531 H 0.32662 0.53056 0.09974 0.0
H532 H 0.46931 0.47869 0.13454 0.0
H533 H 0.43085 0.51516 0.99833 0.0
C534 C 0.46402 0.46118 0.97379 0.0
C535 C 0.48237 0.42249 0.98371 0.0
C536 C 0.43864 0.49155 0.127 0.0
C537 C 0.44786 0.47271 0.04924 0.0
C538 C 0.41061 0.50106 0.1604 0.0
C539 C 0.36879 0.51292 0.15111 0.0
C540 C 0.42496 0.49469 0.08418 0.0
C541 C 0.35845 0.52106 0.10813 0.0
C542 C 0.44614 0.48608 0.00644 0.0
C543 C 0.4838 0.41059 0.02695 0.0
N544 N 0.38606 0.51082 0.07596 0.0
N545 N 0.4668 0.43565 0.05814 0.0
H546 H 0.96927 0.30825 0.1974 0.0
H547 H 0.88066 0.31289 0.39808 0.0
H548 H 0.88507 0.19313 0.19522 0.0
H549 H 0.76429 0.25533 0.34036 0.0
H550 H 0.90937 0.32704 0.3265 0.0
H551 H 0.92241 0.34006 0.25187 0.0
C552 C 0.94019 0.29028 0.20751 0.0
C553 C 0.93106 0.24793 0.19252 0.0
C554 C 0.8766 0.31343 0.32925 0.0
C555 C 0.8774 0.284 0.25369 0.0
C556 C 0.85993 0.30574 0.3704 0.0
C557 C 0.82078 0.28138 0.37498 0.0
C558 C 0.85386 0.29615 0.29303 0.0
C559 C 0.79524 0.27313 0.338 0.0
C560 C 0.91366 0.30832 0.23857 0.0
C561 C 0.89334 0.2257 0.20653 0.0
N562 N 0.81309 0.27849 0.29839 0.0
N563 N 0.86798 0.24396 0.23649 0.0
H564 H 0.00848 0.00742 0.32533 0.0
H565 H 0.79062 0.1236 0.36664 0.0
H566 H 0.9224 0.04395 0.22494 0.0
H567 H 0.8998 0.13277 0.45318 0.0
H568 H 0.8262 0.06963 0.32336 0.0
H569 H 0.9565 0.02932 0.37932 0.0
C570 C 0.97831 0.01921 0.3145 0.0
C571 C 0.97026 0.02474 0.27041 0.0
C572 C 0.84177 0.08261 0.35251 0.0
C573 C 0.91058 0.04948 0.33227 0.0
C574 C 0.82146 0.11325 0.37733 0.0
C575 C 0.84284 0.13363 0.4129 0.0
C576 C 0.88347 0.07191 0.36368 0.0
C577 C 0.88229 0.11829 0.42582 0.0
C578 C 0.9487 0.03171 0.34544 0.0
C579 C 0.93037 0.03985 0.25852 0.0
N580 N 0.90179 0.08896 0.40068 0.0
N581 N 0.90223 0.05218 0.2893 0.0
H582 H 0.32191 0.81257 0.63493 0.0
H583 H 0.21858 0.62173 0.77375 0.0
H584 H 0.18859 0.79911 0.67417 0.0
H585 H 0.30513 0.59724 0.66885 0.0
H586 H 0.23038 0.69886 0.76237 0.0
H587 H 0.33368 0.74305 0.66665 0.0
C588 C 0.29536 0.79542 0.65097 0.0
C589 C 0.25413 0.81152 0.65197 0.0
C590 C 0.24827 0.67664 0.74313 0.0
C591 C 0.26855 0.73409 0.6912 0.0
C592 C 0.24225 0.63273 0.75015 0.0
C593 C 0.26008 0.60327 0.72142 0.0
C594 C 0.27325 0.69084 0.70804 0.0
C595 C 0.29039 0.61904 0.69127 0.0
C596 C 0.30237 0.75615 0.66956 0.0
C597 C 0.22084 0.78784 0.6728 0.0
N598 N 0.29516 0.662 0.68441 0.0
N599 N 0.22889 0.75048 0.69207 0.0
H600 H 0.50305 -0.0014 0.89099 0.0
H601 H 0.73554 0.91812 0.93719 0.0
H602 H 0.6085 0.99802 0.80044 0.0
H603 H 0.6222 0.88099 0.01069 0.0
H604 H 0.69624 0.97432 0.90377 0.0
H605 H 0.55257 0.9803 0.94846 0.0
C606 C 0.53675 0.9954 0.88335 0.0
C607 C 0.5515 -0.00137 0.84068 0.0
C608 C 0.68037 0.95489 0.92832 0.0
C609 C 0.60819 0.97845 0.90622 0.0
C610 C 0.70298 0.92324 0.94781 0.0
C611 C 0.68169 0.89449 0.97602 0.0
C612 C 0.6362 0.95738 0.93695 0.0
C613 C 0.63956 0.90234 0.98877 0.0
C614 C 0.56495 0.98506 0.91616 0.0
C615 C 0.59554 0.99464 0.83268 0.0
N616 N 0.61766 0.93232 0.96817 0.0
N617 N 0.62221 0.9843 0.86503 0.0
H618 H 0.22791 0.20113 0.1257 0.0
H619 H 0.35193 0.39335 0.25517 0.0
H620 H 0.36559 0.21117 0.14715 0.0
H621 H 0.2221 0.39613 0.20638 0.0
H622 H 0.35065 0.31636 0.23766 0.0
H623 H 0.22067 0.26323 0.17313 0.0
C624 C 0.25669 0.2163 0.14058 0.0
C625 C 0.29754 0.20111 0.13224 0.0
C626 C 0.32205 0.33362 0.23188 0.0
C627 C 0.28913 0.27218 0.1872 0.0
C628 C 0.32259 0.37739 0.24224 0.0
C629 C 0.28753 0.40128 0.23094 0.0
C630 C 0.28619 0.31391 0.21021 0.0
C631 C 0.25005 0.37906 0.21505 0.0
C632 C 0.25237 0.25153 0.16808 0.0
C633 C 0.33356 0.22205 0.15252 0.0
N634 N 0.25075 0.33674 0.20408 0.0
N635 N 0.32854 0.25676 0.17898 0.0
H636 H 0.05785 0.86337 0.15369 0.0
H637 H 0.842 0.86696 0.04444 0.0
H638 H 0.01493 0.98409 0.11039 0.0
H639 H 0.92001 0.75802 0.03035 0.0
H640 H 0.90743 0.91361 0.05407 0.0
H641 H 0.01136 0.82574 0.09985 0.0
C642 C 0.0388 0.88192 0.13251 0.0
C643 C 0.03948 0.9267 0.13688 0.0
C644 C 0.91045 0.87978 0.04689 0.0
C645 C 0.98592 0.884 0.07539 0.0
C646 C 0.873 0.85315 0.04076 0.0
C647 C 0.87569 0.80843 0.03808 0.0
C648 C 0.95027 0.86111 0.05084 0.0
C649 C 0.91666 0.79231 0.03329 0.0
C650 C 0.01267 0.86053 0.1014 0.0
C651 C 0.01484 0.94939 0.10822 0.0
N652 N 0.95242 0.81839 0.04168 0.0
N653 N 0.98811 0.92771 0.07932 0.0
H654 H 0.32076 0.82384 0.45724 0.0
H655 H 0.17359 0.66255 0.34355 0.0
H656 H 0.18638 0.8322 0.48994 0.0
H657 H 0.26563 0.73925 0.2699 0.0
H658 H 0.16975 0.72224 0.39589 0.0
H659 H 0.29916 0.78639 0.39006 0.0
C660 C 0.28671 0.81828 0.44999 0.0
C661 C 0.25531 0.83108 0.47912 0.0
C662 C 0.18926 0.72666 0.3672 0.0
C663 C 0.23057 0.78934 0.40178 0.0
C664 C 0.19083 0.69294 0.33688 0.0
C665 C 0.2209 0.69577 0.30315 0.0
C666 C 0.2183 0.76262 0.36344 0.0
C667 C 0.24263 0.73571 0.29602 0.0
C668 C 0.27445 0.79766 0.41133 0.0
C669 C 0.21156 0.823 0.46809 0.0
N670 N 0.24262 0.76696 0.32715 0.0
N671 N 0.20037 0.80176 0.43051 0.0
H672 H 0.56681 0.11157 0.75495 0.0
H673 H 0.64765 0.17805 0.5347 0.0
H674 H 0.49787 0.05501 0.64486 0.0
H675 H 0.73891 0.14143 0.62963 0.0
H676 H 0.59111 0.1333 0.57031 0.0
H677 H 0.62955 0.12742 0.70849 0.0
C678 C 0.56494 0.10271 0.72099 0.0
C679 C 0.52727 0.08249 0.70339 0.0
C680 C 0.62393 0.13366 0.58223 0.0
C681 C 0.59823 0.10029 0.65053 0.0
C682 C 0.65621 0.1586 0.56155 0.0
C683 C 0.69777 0.16301 0.57926 0.0
C684 C 0.63338 0.1146 0.62142 0.0
C685 C 0.70718 0.13833 0.61492 0.0
C686 C 0.60077 0.11111 0.69472 0.0
C687 C 0.52647 0.0709 0.65939 0.0
N688 N 0.67481 0.11633 0.6359 0.0
N689 N 0.56124 0.08074 0.63412 0.0
H690 H 0.34072 0.17518 0.92378 0.0
H691 H 0.35171 0.41807 0.85082 0.0
H692 H 0.31894 0.28636 0.00394 0.0
H693 H 0.30064 0.31276 0.77074 0.0
H694 H 0.37934 0.3667 0.90097 0.0
H695 H 0.36161 0.22304 0.86416 0.0
C696 C 0.34136 0.20962 0.92908 0.0
C697 C 0.32659 0.22694 0.96812 0.0
C698 C 0.36385 0.35481 0.87137 0.0
C699 C 0.35246 0.28146 0.90144 0.0
C700 C 0.34872 0.3841 0.84244 0.0
C701 C 0.32377 0.36931 0.80682 0.0
C702 C 0.3535 0.31071 0.86458 0.0
C703 C 0.31996 0.32505 0.79782 0.0
C704 C 0.35356 0.23679 0.89528 0.0
C705 C 0.32901 0.27173 0.97391 0.0
N706 N 0.33343 0.29708 0.82724 0.0
N707 N 0.34126 0.29743 0.9408 0.0
H708 H 0.42124 0.03859 0.05234 0.0
H709 H 0.39602 0.81237 0.16755 0.0
H710 H 0.30064 0.97816 0.09519 0.0
H711 H 0.50044 0.90562 0.19763 0.0
H712 H 0.37137 0.85966 0.11171 0.0
H713 H 0.45887 0.9771 0.07898 0.0
C714 C 0.40265 0.01192 0.06643 0.0
C715 C 0.35793 0.01342 0.07211 0.0
C716 C 0.40069 0.86881 0.12935 0.0
C717 C 0.40031 0.94314 0.10122 0.0
C718 C 0.41515 0.84167 0.1607 0.0
C719 C 0.45034 0.85524 0.18698 0.0
C720 C 0.42186 0.90938 0.12412 0.0
C721 C 0.47335 0.89406 0.17768 0.0
C722 C 0.42408 0.97705 0.08156 0.0
C723 C 0.33524 0.97832 0.09071 0.0
N724 N 0.45828 0.92025 0.14738 0.0
N725 N 0.35669 0.94458 0.10468 0.0
H726 H 0.77105 0.55194 0.04304 0.0
H727 H 0.98224 0.66296 0.95635 0.0
H728 H 0.89772 0.51739 0.08189 0.0
H729 H 0.86062 0.72301 0.94984 0.0
H730 H 0.95363 0.61837 0.01354 0.0
H731 H 0.80272 0.62118 0.01953 0.0
C732 C 0.80538 0.55908 0.04729 0.0
C733 C 0.83192 0.52808 0.06309 0.0
C734 C 0.93334 0.64186 0.00026 0.0
C735 C 0.86838 0.60722 0.036 0.0
C736 C 0.9499 0.66792 0.96755 0.0
C737 C 0.92349 0.69617 0.94676 0.0
C738 C 0.8897 0.64304 0.01168 0.0
C739 C 0.88167 0.70033 0.96328 0.0
C740 C 0.82344 0.59877 0.03399 0.0
C741 C 0.87607 0.53965 0.06868 0.0
N742 N 0.86564 0.67318 0.99387 0.0
N743 N 0.893 0.57786 0.05429 0.0
H744 H 0.81794 0.61721 0.31615 0.0
H745 H 0.63977 0.74319 0.19354 0.0
H746 H 0.81359 0.63511 0.17863 0.0
H747 H 0.61322 0.6782 0.31262 0.0
H748 H 0.71516 0.72514 0.1987 0.0
H749 H 0.7528 0.65763 0.32392 0.0
C750 C 0.8037 0.63011 0.28771 0.0
C751 C 0.82116 0.62272 0.24663 0.0
C752 C 0.69306 0.71564 0.22412 0.0
C753 C 0.74764 0.66958 0.25551 0.0
C754 C 0.65033 0.72655 0.22159 0.0
C755 C 0.62051 0.71216 0.25275 0.0
C756 C 0.70587 0.68985 0.25773 0.0
C757 C 0.63547 0.69011 0.28816 0.0
C758 C 0.76671 0.65325 0.29224 0.0
C759 C 0.80132 0.64004 0.21091 0.0
N760 N 0.67708 0.6788 0.2893 0.0
N761 N 0.76565 0.6626 0.21618 0.0
H762 H 0.56438 0.53658 0.47574 0.0
H763 H 0.58137 0.28998 0.40825 0.0
H764 H 0.67261 0.46172 0.50514 0.0
H765 H 0.52017 0.38013 0.32871 0.0
H766 H 0.59253 0.34617 0.46446 0.0
H767 H 0.52805 0.47262 0.44113 0.0
C768 C 0.58017 0.50655 0.47548 0.0
C769 C 0.62187 0.50447 0.4925 0.0
C770 C 0.57535 0.35315 0.43528 0.0
C771 C 0.58019 0.43154 0.45423 0.0
C772 C 0.56857 0.32109 0.40352 0.0
C773 C 0.55004 0.33082 0.36403 0.0
C774 C 0.56315 0.39484 0.42732 0.0
C775 C 0.53462 0.37169 0.35891 0.0
C776 C 0.55941 0.47022 0.45587 0.0
C777 C 0.64083 0.46481 0.49158 0.0
N778 N 0.54207 0.40256 0.39004 0.0
N779 N 0.61989 0.42988 0.47254 0.0
H780 H 0.23328 0.95103 0.21811 0.0
H781 H 0.41692 0.9259 0.3325 0.0
H782 H 0.17143 0.94605 0.3428 0.0
H783 H 0.34417 0.80371 0.32474 0.0
H784 H 0.34899 0.96191 0.33658 0.0
H785 H 0.29873 0.92656 0.25083 0.0
C786 C 0.2335 0.94509 0.25239 0.0
C787 C 0.19677 0.95021 0.27773 0.0
C788 C 0.3482 0.92712 0.3365 0.0
C789 C 0.27139 0.92243 0.31495 0.0
C790 C 0.38681 0.90655 0.33434 0.0
C791 C 0.38603 0.86185 0.32742 0.0
C792 C 0.30904 0.90261 0.33227 0.0
C793 C 0.34619 0.83824 0.32985 0.0
C794 C 0.27086 0.93148 0.27096 0.0
C795 C 0.19909 0.94226 0.32215 0.0
N796 N 0.30905 0.85903 0.33058 0.0
N797 N 0.23573 0.92781 0.33943 0.0
H798 H 0.16679 0.9726 0.70057 0.0
H799 H 0.06736 0.18752 0.66266 0.0
H800 H 0.14102 0.01112 0.57081 0.0
H801 H 0.03946 0.11489 0.77699 0.0
H802 H 0.08472 0.12134 0.62468 0.0
H803 H 0.11494 0.02239 0.72756 0.0
C804 C 0.15008 0.99154 0.67777 0.0
C805 C 0.15872 0.98845 0.63353 0.0
C806 C 0.07324 0.11956 0.65759 0.0
C807 C 0.09935 0.04555 0.66411 0.0
C808 C 0.06277 0.15733 0.67917 0.0
C809 C 0.053 0.15673 0.72334 0.0
C810 C 0.07452 0.08144 0.68073 0.0
C811 C 0.04775 0.11672 0.74314 0.0
C812 C 0.12007 0.01956 0.6931 0.0
C813 C 0.13555 0.01302 0.60526 0.0
N814 N 0.06003 0.08082 0.72215 0.0
N815 N 0.10753 0.04131 0.6211 0.0
H816 H 0.86653 0.37788 0.21213 0.0
H817 H 0.60868 0.35978 0.21078 0.0
H818 H 0.78764 0.48589 0.20038 0.0
H819 H 0.68399 0.26189 0.26362 0.0
H820 H 0.67541 0.40024 0.1908 0.0
H821 H 0.80098 0.33054 0.22002 0.0
C822 C 0.83535 0.39141 0.21077 0.0
C823 C 0.83232 0.43568 0.20595 0.0
C824 C 0.67733 0.36963 0.20616 0.0
C825 C 0.75753 0.38179 0.21284 0.0
C826 C 0.63935 0.34622 0.21684 0.0
C827 C 0.64101 0.30754 0.23876 0.0
C828 C 0.71721 0.35445 0.2178 0.0
C829 C 0.68147 0.29148 0.24643 0.0
C830 C 0.79809 0.36451 0.21525 0.0
C831 C 0.79127 0.45188 0.20435 0.0
N832 N 0.71813 0.31538 0.23657 0.0
N833 N 0.75542 0.42487 0.20744 0.0
H834 H 0.74335 0.5492 0.70702 0.0
H835 H 0.84019 0.75874 0.81981 0.0
H836 H 0.66978 0.66136 0.71956 0.0
H837 H 0.91981 0.66535 0.76086 0.0
H838 H 0.7788 0.72873 0.7769 0.0
H839 H 0.80947 0.59402 0.72078 0.0
C840 C 0.74133 0.58349 0.71234 0.0
C841 C 0.70131 0.60181 0.71287 0.0
C842 C 0.80993 0.71557 0.77256 0.0
C843 C 0.77637 0.65304 0.72983 0.0
C844 C 0.84496 0.73277 0.79685 0.0
C845 C 0.88488 0.71413 0.79409 0.0
C846 C 0.81469 0.67882 0.74645 0.0
C847 C 0.88951 0.68057 0.76394 0.0
C848 C 0.77899 0.60909 0.72002 0.0
C849 C 0.70015 0.64626 0.7195 0.0
N850 N 0.85453 0.66326 0.74204 0.0
N851 N 0.73711 0.67033 0.72891 0.0
H852 H 0.49373 0.86479 0.50242 0.0
H853 H 0.70973 0.97323 0.40317 0.0
H854 H 0.62285 0.85221 0.54972 0.0
H855 H 0.5981 0.93592 0.32534 0.0
H856 H 0.66771 0.95664 0.468 0.0
H857 H 0.5232 0.91456 0.4475 0.0
C858 C 0.52811 0.87309 0.50163 0.0
C859 C 0.55613 0.854 0.52993 0.0
C860 C 0.65198 0.95345 0.4368 0.0
C861 C 0.5895 0.91134 0.46879 0.0
C862 C 0.67579 0.96339 0.39991 0.0
C863 C 0.65746 0.9552 0.35901 0.0
C864 C 0.60973 0.93511 0.4326 0.0
C865 C 0.61339 0.94242 0.35639 0.0
C866 C 0.54479 0.90142 0.47051 0.0
C867 C 0.60032 0.86571 0.5279 0.0
N868 N 0.59116 0.93162 0.39276 0.0
N869 N 0.61564 0.89353 0.49779 0.0
H870 H 0.45428 0.23325 0.83324 0.0
H871 H 0.36612 0.20407 0.61031 0.0
H872 H 0.43996 0.35391 0.77075 0.0
H873 H 0.26453 0.26041 0.68247 0.0
H874 H 0.4109 0.2074 0.67578 0.0
H875 H 0.4044 0.19773 0.78005 0.0
C876 C 0.44028 0.2523 0.80868 0.0
C877 C 0.45118 0.29663 0.80637 0.0
C878 C 0.37798 0.21696 0.67759 0.0
C879 C 0.39373 0.25646 0.74681 0.0
C880 C 0.35219 0.21451 0.6405 0.0
C881 C 0.31182 0.23264 0.64086 0.0
C882 C 0.36301 0.23768 0.71467 0.0
C883 C 0.29553 0.24633 0.68068 0.0
C884 C 0.41196 0.23195 0.7785 0.0
C885 C 0.43259 0.3197 0.77362 0.0
N886 N 0.322 0.25048 0.71554 0.0
N887 N 0.40447 0.29936 0.74531 0.0
H888 H 0.93102 0.07357 0.06801 0.0
H889 H 0.8567 0.07338 0.82151 0.0
H890 H 0.98002 0.16538 0.97519 0.0
H891 H 0.77155 0.03293 0.92451 0.0
H892 H 0.91592 0.08424 0.87369 0.0
H893 H 0.88568 0.03793 0.01143 0.0
C894 C 0.93277 0.08583 0.03561 0.0
C895 C 0.95889 0.12288 0.02637 0.0
C896 C 0.88459 0.0717 0.8846 0.0
C897 C 0.90783 0.08178 0.96167 0.0
C898 C 0.85102 0.06493 0.85482 0.0
C899 C 0.80938 0.05231 0.86894 0.0
C900 C 0.87637 0.06535 0.92856 0.0
C901 C 0.80335 0.04264 0.91255 0.0
C902 C 0.90689 0.06548 0.00346 0.0
C903 C 0.95988 0.13731 0.98384 0.0
N904 N 0.83642 0.04988 0.94104 0.0
N905 N 0.93458 0.11681 0.95307 0.0
H906 H 0.08159 0.75531 0.31992 0.0
H907 H 0.28545 0.81478 0.20118 0.0
H908 H 0.15769 0.86177 0.37802 0.0
H909 H 0.16511 0.81163 0.13148 0.0
H910 H 0.24676 0.83264 0.26751 0.0
H911 H 0.1186 0.76889 0.25131 0.0
C912 C 0.10621 0.78137 0.31825 0.0
C913 C 0.11696 0.80725 0.35461 0.0
C914 C 0.22921 0.82944 0.23736 0.0
C915 C 0.15921 0.82272 0.27676 0.0
C916 C 0.25131 0.81992 0.1994 0.0
C917 C 0.22813 0.81064 0.16113 0.0
C918 C 0.184 0.82843 0.23668 0.0
C919 C 0.18388 0.81765 0.16067 0.0
C920 C 0.12687 0.7894 0.27913 0.0
C921 C 0.1487 0.841 0.35063 0.0
N922 N 0.16283 0.82426 0.1983 0.0
N923 N 0.16953 0.8472 0.31251 0.0
H924 H 0.58009 0.28448 0.05934 0.0
H925 H 0.60204 0.04856 0.113 0.0
H926 H 0.49589 0.18829 0.99471 0.0
H927 H 0.60671 0.14472 0.21536 0.0
H928 H 0.56156 0.09631 0.06876 0.0
H929 H 0.59231 0.23315 0.11626 0.0
C930 C 0.56381 0.25275 0.05743 0.0
C931 C 0.53708 0.24052 0.0223 0.0
C932 C 0.57042 0.10639 0.10139 0.0
C933 C 0.55145 0.1816 0.08658 0.0
C934 C 0.59313 0.07895 0.12686 0.0
C935 C 0.60867 0.09308 0.16758 0.0
C936 C 0.56416 0.14834 0.11655 0.0
C937 C 0.59629 0.13303 0.18367 0.0
C938 C 0.57054 0.22361 0.08997 0.0
C939 C 0.5167 0.19899 0.02135 0.0
N940 N 0.57606 0.1599 0.15761 0.0
N941 N 0.52503 0.17064 0.05254 0.0
H942 H 0.13232 0.29549 0.1748 0.0
H943 H 0.24155 0.29882 0.36315 0.0
H944 H 0.07541 0.17057 0.20665 0.0
H945 H 0.13059 0.2224 0.40703 0.0
H946 H 0.22474 0.27517 0.28889 0.0
H947 H 0.17233 0.29782 0.24238 0.0
C948 C 0.12871 0.26826 0.19587 0.0
C949 C 0.10055 0.2328 0.1852 0.0
C950 C 0.20444 0.26299 0.31481 0.0
C951 C 0.14692 0.23483 0.26253 0.0
C952 C 0.21461 0.27569 0.35719 0.0
C953 C 0.18713 0.26276 0.39097 0.0
C954 C 0.16594 0.23814 0.30633 0.0
C955 C 0.15246 0.23304 0.38171 0.0
C956 C 0.15209 0.26929 0.23422 0.0
C957 C 0.097 0.19843 0.21367 0.0
N958 N 0.14216 0.22245 0.34001 0.0
N959 N 0.11921 0.20073 0.2516 0.0
H960 H 0.01573 0.96687 0.50457 0.0
H961 H 0.89358 0.93269 0.72752 0.0
H962 H 0.00793 0.84838 0.5745 0.0
H963 H 0.85696 0.02189 0.6318 0.0
H964 H 0.95806 0.91895 0.68539 0.0
H965 H 0.97928 0.00197 0.56424 0.0
C966 C 0.00703 0.94833 0.53272 0.0
C967 C 0.01399 0.90424 0.53408 0.0
C968 C 0.93653 0.94244 0.6743 0.0
C969 C 0.97287 0.9446 0.60252 0.0
C970 C 0.89991 0.95046 0.69834 0.0
C971 C 0.86936 0.97751 0.68238 0.0
C972 C 0.94268 0.96189 0.63428 0.0
C973 C 0.87944 0.0004 0.64494 0.0
C974 C 0.9863 0.96851 0.56673 0.0
C975 C 0.00239 0.88214 0.57164 0.0
N976 N 0.91488 0.99134 0.62154 0.0
N977 N 0.98197 0.90247 0.60422 0.0
H978 H 0.39462 0.68948 0.72099 0.0
H979 H 0.26754 0.7389 0.88073 0.0
H980 H 0.4351 0.82329 0.70688 0.0
H981 H 0.38068 0.81995 0.91305 0.0
H982 H 0.28276 0.74946 0.80422 0.0
H983 H 0.34516 0.70951 0.77773 0.0
C984 C 0.39245 0.72321 0.72931 0.0
C985 C 0.41915 0.75474 0.7094 0.0
C986 C 0.30314 0.76647 0.82811 0.0
C987 C 0.36247 0.778 0.77454 0.0
C988 C 0.29409 0.76107 0.87176 0.0
C989 C 0.32374 0.7775 0.90302 0.0
C990 C 0.34201 0.78829 0.81612 0.0
C991 C 0.35756 0.80606 0.88975 0.0
C992 C 0.36375 0.73473 0.76131 0.0
C993 C 0.41487 0.79804 0.72138 0.0
N994 N 0.36682 0.80936 0.84704 0.0
N995 N 0.38801 0.80837 0.75426 0.0
H996 H 0.45232 0.54683 0.76275 0.0
H997 H 0.44206 0.66314 0.98679 0.0
H998 H 0.55926 0.54959 0.85189 0.0
H999 H 0.32838 0.61867 0.91509 0.0
H1000 H 0.48408 0.61319 0.94471 0.0
H1001 H 0.40517 0.56648 0.82187 0.0
C1002 C 0.46583 0.55142 0.79486 0.0
C1003 C 0.50991 0.54742 0.80227 0.0
C1004 C 0.44968 0.61341 0.93903 0.0
C1005 C 0.45613 0.57006 0.87027 0.0
C1006 C 0.42561 0.64163 0.96339 0.0
C1007 C 0.38195 0.64567 0.95363 0.0
C1008 C 0.4299 0.58979 0.90446 0.0
C1009 C 0.36224 0.61713 0.9229 0.0
C1010 C 0.43882 0.56223 0.82875 0.0
C1011 C 0.52551 0.55284 0.84471 0.0
N1012 N 0.38658 0.59123 0.89857 0.0
N1013 N 0.49881 0.56473 0.87701 0.0
H1014 H 0.68919 0.29184 0.12647 0.0
H1015 H 0.74263 0.14554 0.2687 0.0
H1016 H 0.826 0.32584 0.12244 0.0
H1017 H 0.78245 0.09549 0.14559 0.0
H1018 H 0.76263 0.21826 0.24491 0.0
H1019 H 0.70453 0.22435 0.16064 0.0
C1020 C 0.72242 0.28494 0.13237 0.0
C1021 C 0.75635 0.31452 0.12201 0.0
C1022 C 0.76944 0.19111 0.22415 0.0
C1023 C 0.77383 0.2379 0.1609 0.0
C1024 C 0.75871 0.14954 0.23792 0.0
C1025 C 0.75957 0.11479 0.20842 0.0
C1026 C 0.78214 0.19724 0.18127 0.0
C1027 C 0.78051 0.12171 0.16887 0.0
C1028 C 0.73105 0.24678 0.1521 0.0
C1029 C 0.79895 0.30391 0.13035 0.0
N1030 N 0.78917 0.16255 0.15547 0.0
N1031 N 0.80666 0.26616 0.14935 0.0
H1032 H 0.07588 0.51008 0.27094 0.0
H1033 H 0.08038 0.37786 0.48244 0.0
H1034 H 0.96255 0.48593 0.34907 0.0
H1035 H 0.19432 0.42657 0.41613 0.0
H1036 H 0.03796 0.42862 0.44388 0.0
H1037 H 0.12073 0.49054 0.331 0.0
C1038 C 0.06051 0.50096 0.30102 0.0
C1039 C 0.01548 0.49877 0.30488 0.0
C1040 C 0.07249 0.42929 0.4388 0.0
C1041 C 0.06658 0.47569 0.37383 0.0
C1042 C 0.09676 0.40065 0.46122 0.0
C1043 C 0.14072 0.39794 0.45203 0.0
C1044 C 0.09247 0.45477 0.40677 0.0
C1045 C 0.16039 0.42763 0.42382 0.0
C1046 C 0.08613 0.49003 0.33546 0.0
C1047 C 0.9972 0.48762 0.34476 0.0
N1048 N 0.13598 0.45415 0.40148 0.0
N1049 N 0.02278 0.47554 0.37749 0.0
H1050 H 0.8 0.68299 0.6258 0.0
H1051 H 0.69182 0.8951 0.66301 0.0
H1052 H 0.66248 0.68264 0.60522 0.0
H1053 H 0.78736 0.8555 0.75233 0.0
H1054 H 0.67825 0.81985 0.63924 0.0
H1055 H 0.79696 0.74965 0.66831 0.0
C1056 C 0.76917 0.69693 0.63028 0.0
C1057 C 0.73151 0.67754 0.61177 0.0
C1058 C 0.70123 0.82762 0.66496 0.0
C1059 C 0.72787 0.75365 0.66009 0.0
C1060 C 0.70863 0.87039 0.67885 0.0
C1061 C 0.7412 0.88141 0.70916 0.0
C1062 C 0.72683 0.79623 0.68143 0.0
C1063 C 0.76242 0.84825 0.72839 0.0
C1064 C 0.7674 0.73471 0.6548 0.0
C1065 C 0.69228 0.69672 0.61892 0.0
N1066 N 0.75574 0.80722 0.71334 0.0
N1067 N 0.69152 0.73427 0.64203 0.0
H1068 H 0.48869 0.4244 0.72979 0.0
H1069 H 0.38267 0.34436 0.51911 0.0
H1070 H 0.54676 0.47075 0.61199 0.0
H1071 H 0.30392 0.38803 0.62349 0.0
H1072 H 0.444 0.38935 0.54833 0.0
H1073 H 0.42153 0.40567 0.69019 0.0
C1074 C 0.48725 0.43053 0.69558 0.0
C1075 C 0.52321 0.4488 0.67395 0.0
C1076 C 0.41281 0.39042 0.5638 0.0
C1077 C 0.44694 0.42748 0.62865 0.0
C1078 C 0.37773 0.36533 0.54677 0.0
C1079 C 0.33825 0.36296 0.56878 0.0
C1080 C 0.4084 0.41182 0.60371 0.0
C1081 C 0.33375 0.38958 0.60535 0.0
C1082 C 0.44889 0.42039 0.67317 0.0
C1083 C 0.51962 0.45659 0.6297 0.0
N1084 N 0.36885 0.4118 0.6226 0.0
N1085 N 0.48232 0.44513 0.60821 0.0
H1086 H 0.75567 0.37473 0.92356 0.0
H1087 H 0.66475 0.13308 0.8897 0.0
H1088 H 0.76691 0.27401 0.01526 0.0
H1089 H 0.74617 0.19051 0.79157 0.0
H1090 H 0.66997 0.20135 0.93056 0.0
H1091 H 0.72518 0.32047 0.8705 0.0
C1092 C 0.75182 0.34129 0.93234 0.0
C1093 C 0.76464 0.32834 0.97325 0.0
C1094 C 0.68519 0.19941 0.8992 0.0
C1095 C 0.72796 0.26776 0.91458 0.0
C1096 C 0.68169 0.1608 0.87567 0.0
C1097 C 0.70525 0.15638 0.8375 0.0
C1098 C 0.71227 0.23351 0.88424 0.0
C1099 C 0.72753 0.1929 0.82093 0.0
C1100 C 0.73425 0.31073 0.90239 0.0
C1101 C 0.75841 0.28497 0.98364 0.0
N1102 N 0.73151 0.22991 0.84503 0.0
N1103 N 0.74023 0.25627 0.95459 0.0
H1104 H 0.04377 0.60731 0.23762 0.0
H1105 H 0.1785 0.67564 0.04156 0.0
H1106 H 0.00061 0.56242 0.11142 0.0
H1107 H 0.23883 0.64807 0.16199 0.0
H1108 H 0.11512 0.62978 0.06192 0.0
H1109 H 0.1164 0.62154 0.20889 0.0
C1110 C 0.0497 0.60054 0.20379 0.0
C1111 C 0.01629 0.58434 0.17659 0.0
C1112 C 0.14296 0.63227 0.08308 0.0
C1113 C 0.09903 0.60054 0.14348 0.0
C1114 C 0.17934 0.65789 0.07115 0.0
C1115 C 0.21375 0.66536 0.10014 0.0
C1116 C 0.14095 0.6153 0.12464 0.0
C1117 C 0.21292 0.64275 0.13871 0.0
C1118 C 0.0912 0.60809 0.18753 0.0
C1119 C 0.02568 0.57526 0.13322 0.0
N1120 N 0.17644 0.61982 0.15051 0.0
N1121 N 0.06612 0.58435 0.11766 0.0
H1122 H 0.65336 0.69429 0.41941 0.0
H1123 H 0.80237 0.87531 0.34149 0.0
H1124 H 0.78857 0.68464 0.44686 0.0
H1125 H 0.70221 0.81932 0.25798 0.0
H1126 H 0.80434 0.80671 0.37842 0.0
H1127 H 0.67257 0.74298 0.36113 0.0
C1128 C 0.68717 0.70206 0.41279 0.0
C1129 C 0.71942 0.68567 0.43815 0.0
C1130 C 0.7833 0.8089 0.35078 0.0
C1131 C 0.74162 0.74119 0.37109 0.0
C1132 C 0.7825 0.84787 0.32941 0.0
C1133 C 0.75172 0.85302 0.29699 0.0
C1134 C 0.75247 0.7756 0.34012 0.0
C1135 C 0.72629 0.81673 0.28291 0.0
C1136 C 0.69811 0.72942 0.37918 0.0
C1137 C 0.76277 0.69662 0.42794 0.0
N1138 N 0.72604 0.78001 0.30566 0.0
N1139 N 0.7727 0.72455 0.39566 0.0
H1140 H 0.75525 0.45528 0.58646 0.0
H1141 H 0.98467 0.40363 0.64129 0.0
H1142 H 0.85869 0.52251 0.51805 0.0
H1143 H 0.88518 0.30145 0.628 0.0
H1144 H 0.94341 0.4475 0.59364 0.0
H1145 H 0.80372 0.39879 0.60296 0.0
C1146 C 0.78812 0.45789 0.57465 0.0
C1147 C 0.8032 0.49353 0.55111 0.0
C1148 C 0.93139 0.41491 0.59997 0.0
C1149 C 0.85888 0.42966 0.57037 0.0
C1150 C 0.95515 0.38966 0.62681 0.0
C1151 C 0.93783 0.3492 0.63934 0.0
C1152 C 0.88995 0.39969 0.58651 0.0
C1153 C 0.89921 0.33288 0.61983 0.0
C1154 C 0.81562 0.42555 0.58371 0.0
C1155 C 0.84597 0.49539 0.5363 0.0
N1156 N 0.87582 0.35872 0.59557 0.0
N1157 N 0.87276 0.46433 0.54703 0.0
H1158 H 0.28654 0.03745 0.54559 0.0
H1159 H 0.48743 0.09937 0.40604 0.0
H1160 H 0.4095 0.98346 0.56652 0.0
H1161 H 0.38621 0.18663 0.4258 0.0
H1162 H 0.46289 0.06074 0.46987 0.0
H1163 H 0.32372 0.09621 0.50668 0.0
C1164 C 0.32134 0.03826 0.5427 0.0
C1165 C 0.34469 0.00479 0.55847 0.0
C1166 C 0.44658 0.0889 0.46078 0.0
C1167 C 0.38731 0.0716 0.51359 0.0
C1168 C 0.4608 0.11119 0.42441 0.0
C1169 C 0.43816 0.14564 0.40981 0.0
C1170 C 0.40905 0.1007 0.48218 0.0
C1171 C 0.40373 0.1593 0.43505 0.0
C1172 C 0.34259 0.0719 0.52057 0.0
C1173 C 0.38989 0.00796 0.55418 0.0
N1174 N 0.38951 0.13616 0.46935 0.0
N1175 N 0.40957 0.04019 0.53138 0.0
H1176 H 0.33753 0.0939 0.8685 0.0
H1177 H 0.19286 0.27145 0.77138 0.0
H1178 H 0.34741 0.14245 0.7395 0.0
H1179 H 0.14172 0.18009 0.8634 0.0
H1180 H 0.26354 0.24236 0.77893 0.0
H1181 H 0.27685 0.13974 0.88215 0.0
C1182 C 0.32736 0.11459 0.84332 0.0
C1183 C 0.3474 0.11439 0.80276 0.0
C1184 C 0.23718 0.22967 0.79847 0.0
C1185 C 0.28 0.16802 0.8189 0.0
C1186 C 0.19691 0.24667 0.79472 0.0
C1187 C 0.16122 0.22759 0.81624 0.0
C1188 C 0.24183 0.19376 0.82411 0.0
C1189 C 0.16843 0.19524 0.84582 0.0
C1190 C 0.29299 0.14075 0.85121 0.0
C1191 C 0.33278 0.14151 0.77116 0.0
N1192 N 0.20783 0.1786 0.84825 0.0
N1193 N 0.30028 0.16746 0.78002 0.0
H1194 H 0.22973 0.00157 0.00755 0.0
H1195 H 0.04833 0.93379 0.84299 0.0
H1196 H 0.13985 0.09357 0.96835 0.0
H1197 H 0.09421 0.8448 0.9342 0.0
H1198 H 0.07784 0.99364 0.88874 0.0
H1199 H 0.1806 0.94359 0.97863 0.0
C1200 C 0.1998 0.00955 0.99259 0.0
C1201 C 0.18899 0.05239 0.98992 0.0
C1202 C 0.08014 0.96105 0.89948 0.0
C1203 C 0.1326 0.98638 0.95723 0.0
C1204 C 0.06286 0.927 0.87367 0.0
C1205 C 0.06899 0.88451 0.88497 0.0
C1206 C 0.10455 0.95222 0.93599 0.0
C1207 C 0.08869 0.87719 0.92458 0.0
C1208 C 0.17151 0.97647 0.97671 0.0
C1209 C 0.14944 0.06092 0.97088 0.0
N1210 N 0.10695 0.91074 0.94813 0.0
N1211 N 0.12287 0.02821 0.95471 0.0
H1212 H 0.72944 0.41169 0.70466 0.0
H1213 H 0.92532 0.38203 0.81477 0.0
H1214 H 0.7031 0.43418 0.83977 0.0
H1215 H 0.85888 0.26588 0.76555 0.0
H1216 H 0.85548 0.41138 0.83064 0.0
H1217 H 0.79074 0.37091 0.72486 0.0
C1218 C 0.73638 0.40794 0.73856 0.0
C1219 C 0.71077 0.42586 0.77057 0.0
C1220 C 0.85634 0.37854 0.81865 0.0
C1221 C 0.78064 0.37922 0.7936 0.0
C1222 C 0.89617 0.36153 0.81006 0.0
C1223 C 0.89767 0.3219 0.78791 0.0
C1224 C 0.81851 0.35565 0.80456 0.0
C1225 C 0.85892 0.29683 0.78212 0.0
C1226 C 0.77114 0.38455 0.74997 0.0
C1227 C 0.72187 0.4205 0.8141 0.0
N1228 N 0.82072 0.31494 0.78838 0.0
N1229 N 0.75637 0.39774 0.82452 0.0
H1230 H 0.63998 0.46096 0.16512 0.0
H1231 H 0.52859 0.66248 0.11279 0.0
H1232 H 0.62837 0.49822 0.03272 0.0
H1233 H 0.4921 0.58741 0.22321 0.0
H1234 H 0.5525 0.59783 0.07645 0.0
H1235 H 0.57782 0.50163 0.18354 0.0
C1236 C 0.6241 0.47745 0.13985 0.0
C1237 C 0.63983 0.47696 0.09755 0.0
C1238 C 0.53758 0.59499 0.1079 0.0
C1239 C 0.56876 0.52399 0.11839 0.0
C1240 C 0.52339 0.63185 0.12836 0.0
C1241 C 0.50921 0.63018 0.17124 0.0
C1242 C 0.53864 0.55696 0.1312 0.0
C1243 C 0.50335 0.58994 0.19026 0.0
C1244 C 0.58825 0.50031 0.15024 0.0
C1245 C 0.61759 0.49837 0.06591 0.0
N1246 N 0.51974 0.5551 0.17081 0.0
N1247 N 0.58373 0.52193 0.07715 0.0
H1248 H 0.36002 0.92317 0.82296 0.0
H1249 H 0.13682 0.87636 0.73004 0.0
H1250 H 0.34973 0.92647 0.68441 0.0
H1251 H 0.18533 0.78107 0.81293 0.0
H1252 H 0.21137 0.90236 0.71484 0.0
H1253 H 0.29237 0.87776 0.82475 0.0
C1254 C 0.34355 0.91409 0.79302 0.0
C1255 C 0.35998 0.92851 0.75352 0.0
C1256 C 0.20553 0.87485 0.73515 0.0
C1257 C 0.2831 0.87794 0.75543 0.0
C1258 C 0.16322 0.85981 0.7435 0.0
C1259 C 0.15514 0.82632 0.7724 0.0
C1260 C 0.23958 0.85678 0.75653 0.0
C1261 C 0.19035 0.80655 0.78997 0.0
C1262 C 0.30539 0.88808 0.79402 0.0
C1263 C 0.33788 0.91581 0.71546 0.0
N1264 N 0.23119 0.82287 0.78269 0.0
N1265 N 0.29987 0.892 0.71742 0.0
H1266 H 0.15341 0.11852 0.27913 0.0
H1267 H 0.3943 0.13521 0.22204 0.0
H1268 H 0.19084 0.09792 0.14679 0.0
H1269 H 0.34319 0.2254 0.31305 0.0
H1270 H 0.32137 0.11968 0.19298 0.0
H1271 H 0.22326 0.15707 0.29309 0.0
C1272 C 0.1761 0.12298 0.25284 0.0
C1273 C 0.16634 0.10572 0.21166 0.0
C1274 C 0.32642 0.14377 0.21849 0.0
C1275 C 0.24676 0.1475 0.22785 0.0
C1276 C 0.368 0.15293 0.23475 0.0
C1277 C 0.37451 0.18131 0.27015 0.0
C1278 C 0.29148 0.16319 0.23789 0.0
C1279 C 0.33927 0.20301 0.28593 0.0
C1280 C 0.21584 0.14488 0.26078 0.0
C1281 C 0.19698 0.11154 0.17879 0.0
N1282 N 0.29903 0.19284 0.27029 0.0
N1283 N 0.23643 0.13092 0.18792 0.0
loop_
_geom_bond_atom_site_label_1
_geom_bond_atom_site_label_2
_geom_bond_distance
_geom_bond_site_symmetry_2
_ccdc_geom_bond_type
Co0 O1 2.216 . S
Co0 O2 2.091 . S
Co0 O4 2.004 1_455 S
Co0 O10 2.021 1_455 S
Co0 O12 2.137 . S
Co0 O13 2.244 . S
O1 Co0 2.216 . S
O1 C8 1.247 . S
O2 Co0 2.091 . S
O2 C8 1.261 . S
C3 O12 1.247 . S
C3 O13 1.272 . S
O4 Co0 2.004 1_655 S
O4 C9 1.259 . S
Co5 O6 2.061 1_455 S
Co5 O11 2.052 1_455 S
Co5 O13 2.135 . S
O6 Co5 2.061 1_655 S
O6 C9 1.235 . S
C7 O10 1.238 . S
C7 O11 1.241 . S
C8 O1 1.247 . S
C8 O2 1.261 . S
C9 O4 1.259 . S
C9 O6 1.235 . S
O10 Co0 2.021 1_655 S
O10 C7 1.238 . S
O11 Co5 2.052 1_655 S
O11 C7 1.241 . S
O12 Co0 2.137 . S
O12 C3 1.247 . S
O13 Co0 2.244 . S
O13 C3 1.272 . S
O13 Co5 2.135 . S
Co14 O15 2.216 . S
Co14 O16 2.091 1_455 S
Co14 O18 2.004 1_455 S
Co14 O24 2.021 1_455 S
Co14 O26 2.137 . S
Co14 O27 2.244 . S
O15 Co14 2.216 . S
O15 C22 1.247 . S
O16 Co14 2.091 1_655 S
O16 C22 1.261 1_655 S
C17 O26 1.247 . S
C17 O27 1.272 . S
O18 Co14 2.004 1_655 S
O18 C23 1.259 . S
Co19 O20 2.061 1_455 S
Co19 O25 2.052 1_455 S
Co19 O27 2.135 . S
O20 Co19 2.061 1_655 S
O20 C23 1.235 . S
C21 O24 1.238 . S
C21 O25 1.241 . S
C22 O15 1.247 . S
C22 O16 1.261 1_455 S
C23 O18 1.259 . S
C23 O20 1.235 . S
O24 Co14 2.021 1_655 S
O24 C21 1.238 . S
O25 Co19 2.052 1_655 S
O25 C21 1.241 . S
O26 Co14 2.137 . S
O26 C17 1.247 . S
O27 Co14 2.244 . S
O27 C17 1.272 . S
O27 Co19 2.135 . S
Co28 O29 2.216 . S
Co28 O30 2.091 . S
Co28 O32 2.004 . S
Co28 O38 2.021 . S
Co28 O40 2.137 . S
Co28 O41 2.244 . S
O29 Co28 2.216 . S
O29 C36 1.247 . S
O30 Co28 2.091 . S
O30 C36 1.261 . S
C31 O40 1.247 . S
C31 O41 1.272 . S
O32 Co28 2.004 . S
O32 C37 1.259 . S
Co33 O34 2.061 . S
Co33 O39 2.052 . S
Co33 O41 2.135 . S
O34 Co33 2.061 . S
O34 C37 1.235 . S
C35 O38 1.238 . S
C35 O39 1.241 . S
C36 O29 1.247 . S
C36 O30 1.261 . S
C37 O32 1.259 . S
C37 O34 1.235 . S
O38 Co28 2.021 . S
O38 C35 1.238 . S
O39 Co33 2.052 . S
O39 C35 1.241 . S
O40 Co28 2.137 . S
O40 C31 1.247 . S
O41 Co28 2.244 . S
O41 C31 1.272 . S
O41 Co33 2.135 . S
Co42 O43 2.216 . S
Co42 O44 2.091 . S
Co42 O46 2.004 . S
Co42 O52 2.021 . S
Co42 O54 2.137 . S
Co42 O55 2.244 . S
O43 Co42 2.216 . S
O43 C50 1.247 . S
O44 Co42 2.091 . S
O44 C50 1.261 . S
C45 O54 1.247 . S
C45 O55 1.272 . S
O46 Co42 2.004 . S
O46 C51 1.259 . S
Co47 O48 2.061 . S
Co47 O53 2.052 . S
Co47 O55 2.135 . S
O48 Co47 2.061 . S
O48 C51 1.235 . S
C49 O52 1.238 . S
C49 O53 1.241 . S
C50 O43 1.247 . S
C50 O44 1.261 . S
C51 O46 1.259 . S
C51 O48 1.235 . S
O52 Co42 2.021 . S
O52 C49 1.238 . S
O53 Co47 2.052 . S
O53 C49 1.241 . S
O54 Co42 2.137 . S
O54 C45 1.247 . S
O55 Co42 2.244 . S
O55 C45 1.272 . S
O55 Co47 2.135 . S
Co56 O57 2.216 . S
Co56 O58 2.091 . S
Co56 O60 2.004 1_565 S
Co56 O66 2.021 1_565 S
Co56 O68 2.137 . S
Co56 O69 2.244 1_565 S
O57 Co56 2.216 . S
O57 C64 1.247 . S
O58 Co56 2.091 . S
O58 C64 1.261 . S
C59 O68 1.247 . S
C59 O69 1.272 1_565 S
O60 Co56 2.004 1_545 S
O60 C65 1.259 . S
Co61 O62 2.061 . S
Co61 O67 2.052 . S
Co61 O69 2.135 . S
O62 Co61 2.061 . S
O62 C65 1.235 . S
C63 O66 1.238 . S
C63 O67 1.241 . S
C64 O57 1.247 . S
C64 O58 1.261 . S
C65 O60 1.259 . S
C65 O62 1.235 . S
O66 Co56 2.021 1_545 S
O66 C63 1.238 . S
O67 Co61 2.052 . S
O67 C63 1.241 . S
O68 Co56 2.137 . S
O68 C59 1.247 . S
O69 Co56 2.244 1_545 S
O69 C59 1.272 1_545 S
O69 Co61 2.135 . S
Co70 O71 2.216 . S
Co70 O72 2.091 . S
Co70 O74 2.004 . S
Co70 O80 2.021 . S
Co70 O82 2.137 . S
Co70 O83 2.244 . S
O71 Co70 2.216 . S
O71 C78 1.247 . S
O72 Co70 2.091 . S
O72 C78 1.261 . S
C73 O82 1.247 . S
C73 O83 1.272 . S
O74 Co70 2.004 . S
O74 C79 1.259 . S
Co75 O76 2.061 . S
Co75 O81 2.052 . S
Co75 O83 2.135 . S
O76 Co75 2.061 . S
O76 C79 1.235 . S
C77 O80 1.238 . S
C77 O81 1.241 . S
C78 O71 1.247 . S
C78 O72 1.261 . S
C79 O74 1.259 . S
C79 O76 1.235 . S
O80 Co70 2.021 . S
O80 C77 1.238 . S
O81 Co75 2.052 . S
O81 C77 1.241 . S
O82 Co70 2.137 . S
O82 C73 1.247 . S
O83 Co70 2.244 . S
O83 C73 1.272 . S
O83 Co75 2.135 . S
Co84 O85 2.216 . S
Co84 O86 2.091 . S
Co84 O88 2.004 . S
Co84 O94 2.021 . S
Co84 O96 2.137 . S
Co84 O97 2.244 . S
O85 Co84 2.216 . S
O85 C92 1.247 . S
O86 Co84 2.091 . S
O86 C92 1.261 . S
C87 O96 1.247 . S
C87 O97 1.272 . S
O88 Co84 2.004 . S
O88 C93 1.259 . S
Co89 O90 2.061 . S
Co89 O95 2.052 . S
Co89 O97 2.135 1_565 S
O90 Co89 2.061 . S
O90 C93 1.235 1_565 S
C91 O94 1.238 1_565 S
C91 O95 1.241 . S
C92 O85 1.247 . S
C92 O86 1.261 . S
C93 O88 1.259 . S
C93 O90 1.235 1_545 S
O94 Co84 2.021 . S
O94 C91 1.238 1_545 S
O95 Co89 2.052 . S
O95 C91 1.241 . S
O96 Co84 2.137 . S
O96 C87 1.247 . S
O97 Co84 2.244 . S
O97 C87 1.272 . S
O97 Co89 2.135 1_545 S
Co98 O99 2.216 . S
Co98 O100 2.091 1_554 S
Co98 O102 2.004 1_554 S
Co98 O108 2.021 1_554 S
Co98 O110 2.137 . S
Co98 O111 2.244 . S
O99 Co98 2.216 . S
O99 C106 1.247 . S
O100 Co98 2.091 1_556 S
O100 C106 1.261 1_556 S
C101 O110 1.247 . S
C101 O111 1.272 . S
O102 Co98 2.004 1_556 S
O102 C107 1.259 . S
Co103 O104 2.061 1_554 S
Co103 O109 2.052 1_554 S
Co103 O111 2.135 . S
O104 Co103 2.061 1_556 S
O104 C107 1.235 . S
C105 O108 1.238 . S
C105 O109 1.241 . S
C106 O99 1.247 . S
C106 O100 1.261 1_554 S
C107 O102 1.259 . S
C107 O104 1.235 . S
O108 Co98 2.021 1_556 S
O108 C105 1.238 . S
O109 Co103 2.052 1_556 S
O109 C105 1.241 . S
O110 Co98 2.137 . S
O110 C101 1.247 . S
O111 Co98 2.244 . S
O111 C101 1.272 . S
O111 Co103 2.135 . S
Co112 O113 2.216 . S
Co112 O114 2.091 . S
Co112 O116 2.004 1_554 S
Co112 O122 2.021 1_554 S
Co112 O124 2.137 . S
Co112 O125 2.244 . S
O113 Co112 2.216 . S
O113 C120 1.247 . S
O114 Co112 2.091 . S
O114 C120 1.261 . S
C115 O124 1.247 . S
C115 O125 1.272 . S
O116 Co112 2.004 1_556 S
O116 C121 1.259 . S
Co117 O118 2.061 1_554 S
Co117 O123 2.052 . S
Co117 O125 2.135 . S
O118 Co117 2.061 1_556 S
O118 C121 1.235 . S
C119 O122 1.238 . S
C119 O123 1.241 1_556 S
C120 O113 1.247 . S
C120 O114 1.261 . S
C121 O116 1.259 . S
C121 O118 1.235 . S
O122 Co112 2.021 1_556 S
O122 C119 1.238 . S
O123 Co117 2.052 . S
O123 C119 1.241 1_554 S
O124 Co112 2.137 . S
O124 C115 1.247 . S
O125 Co112 2.244 . S
O125 C115 1.272 . S
O125 Co117 2.135 . S
Co126 O127 2.216 . S
Co126 O128 2.091 . S
Co126 O130 2.004 . S
Co126 O136 2.021 . S
Co126 O138 2.137 . S
Co126 O139 2.244 . S
O127 Co126 2.216 . S
O127 C134 1.247 . S
O128 Co126 2.091 . S
O128 C134 1.261 . S
C129 O138 1.247 . S
C129 O139 1.272 . S
O130 Co126 2.004 . S
O130 C135 1.259 . S
Co131 O132 2.061 . S
Co131 O137 2.052 . S
Co131 O139 2.135 . S
O132 Co131 2.061 . S
O132 C135 1.235 . S
C133 O136 1.238 . S
C133 O137 1.241 . S
C134 O127 1.247 . S
C134 O128 1.261 . S
C135 O130 1.259 . S
C135 O132 1.235 . S
O136 Co126 2.021 . S
O136 C133 1.238 . S
O137 Co131 2.052 . S
O137 C133 1.241 . S
O138 Co126 2.137 . S
O138 C129 1.247 . S
O139 Co126 2.244 . S
O139 C129 1.272 . S
O139 Co131 2.135 . S
Co140 O141 2.216 . S
Co140 O142 2.091 . S
Co140 O144 2.004 . S
Co140 O150 2.021 . S
Co140 O152 2.137 . S
Co140 O153 2.244 . S
O141 Co140 2.216 . S
O141 C148 1.247 . S
O142 Co140 2.091 . S
O142 C148 1.261 . S
C143 O152 1.247 . S
C143 O153 1.272 . S
O144 Co140 2.004 . S
O144 C149 1.259 . S
Co145 O146 2.061 . S
Co145 O151 2.052 . S
Co145 O153 2.135 . S
O146 Co145 2.061 . S
O146 C149 1.235 . S
C147 O150 1.238 . S
C147 O151 1.241 . S
C148 O141 1.247 . S
C148 O142 1.261 . S
C149 O144 1.259 . S
C149 O146 1.235 . S
O150 Co140 2.021 . S
O150 C147 1.238 . S
O151 Co145 2.052 . S
O151 C147 1.241 . S
O152 Co140 2.137 . S
O152 C143 1.247 . S
O153 Co140 2.244 . S
O153 C143 1.272 . S
O153 Co145 2.135 . S
Co154 O155 2.216 . S
Co154 O156 2.091 . S
Co154 O158 2.004 . S
Co154 O164 2.021 . S
Co154 O166 2.137 . S
Co154 O167 2.244 . S
O155 Co154 2.216 . S
O155 C162 1.247 . S
O156 Co154 2.091 . S
O156 C162 1.261 . S
C157 O166 1.247 . S
C157 O167 1.272 . S
O158 Co154 2.004 . S
O158 C163 1.259 . S
Co159 O160 2.061 . S
Co159 O165 2.052 . S
Co159 O167 2.135 . S
O160 Co159 2.061 . S
O160 C163 1.235 . S
C161 O164 1.238 . S
C161 O165 1.241 . S
C162 O155 1.247 . S
C162 O156 1.261 . S
C163 O158 1.259 . S
C163 O160 1.235 . S
O164 Co154 2.021 . S
O164 C161 1.238 . S
O165 Co159 2.052 . S
O165 C161 1.241 . S
O166 Co154 2.137 . S
O166 C157 1.247 . S
O167 Co154 2.244 . S
O167 C157 1.272 . S
O167 Co159 2.135 . S
H168 C176 0.930 . S
H169 C179 0.930 . S
H170 C181 0.930 . S
H171 C182 0.970 . S
H172 C182 0.970 . S
H173 C184 0.933 . S
H174 C186 0.930 . S
H175 C188 0.930 1_455 S
C176 H168 0.930 . S
C176 C177 1.382 . S
C176 C178 1.426 . S
C177 C176 1.382 . S
C177 C181 1.389 . S
C178 C176 1.426 . S
C178 C179 1.375 . S
C178 C182 1.532 . S
C179 H169 0.930 . S
C179 C178 1.375 . S
C179 C180 1.416 . S
C180 C179 1.416 . S
C180 C181 1.371 . S
C181 H170 0.930 . S
C181 C177 1.389 . S
C181 C180 1.371 . S
C182 H171 0.970 . S
C182 H172 0.970 . S
C182 C178 1.532 . S
C182 C183 1.499 . S
C183 C182 1.499 . S
C183 C184 1.370 1_455 S
C183 C188 1.415 1_455 S
C184 H173 0.933 . S
C184 C183 1.370 1_655 S
C184 C185 1.407 . S
C185 C184 1.407 . S
C185 C186 1.365 . S
C186 H174 0.930 . S
C186 C185 1.365 . S
C186 C187 1.393 . S
C187 C186 1.393 . S
C187 C188 1.387 . S
C188 H175 0.930 1_655 S
C188 C183 1.415 1_655 S
C188 C187 1.387 . S
H189 C197 0.930 . S
H190 C200 0.930 . S
H191 C202 0.930 . S
H192 C203 0.970 . S
H193 C203 0.970 . S
H194 C205 0.930 1_455 S
H195 C207 0.930 . S
H196 C209 0.930 1_455 S
C197 H189 0.930 . S
C197 C198 1.382 . S
C197 C199 1.426 . S
C198 C197 1.382 . S
C198 C202 1.389 . S
C199 C197 1.426 . S
C199 C200 1.375 . S
C199 C203 1.532 . S
C200 H190 0.930 . S
C200 C199 1.375 . S
C200 C201 1.416 . S
C201 C200 1.416 . S
C201 C202 1.371 . S
C202 H191 0.930 . S
C202 C198 1.389 . S
C202 C201 1.371 . S
C203 H192 0.970 . S
C203 H193 0.970 . S
C203 C199 1.532 . S
C203 C204 1.499 . S
C204 C203 1.499 . S
C204 C205 1.370 1_455 S
C204 C209 1.415 1_455 S
C205 H194 0.930 1_655 S
C205 C204 1.370 1_655 S
C205 C206 1.407 . S
C206 C205 1.407 . S
C206 C207 1.365 . S
C207 H195 0.930 . S
C207 C206 1.365 . S
C207 C208 1.393 . S
C208 C207 1.393 . S
C208 C209 1.387 . S
C209 H196 0.930 1_655 S
C209 C204 1.415 1_655 S
C209 C208 1.387 . S
H210 C218 0.930 . S
H211 C221 0.930 . S
H212 C223 0.930 . S
H213 C224 0.970 . S
H214 C224 0.970 . S
H215 C226 0.930 . S
H216 C228 0.930 . S
H217 C230 0.930 . S
C218 H210 0.930 . S
C218 C219 1.382 . S
C218 C220 1.426 . S
C219 C218 1.382 . S
C219 C223 1.389 . S
C220 C218 1.426 . S
C220 C221 1.375 . S
C220 C224 1.532 . S
C221 H211 0.930 . S
C221 C220 1.375 . S
C221 C222 1.416 . S
C222 C221 1.416 . S
C222 C223 1.371 . S
C223 H212 0.930 . S
C223 C219 1.389 . S
C223 C222 1.371 . S
C224 H213 0.970 . S
C224 H214 0.970 . S
C224 C220 1.532 . S
C224 C225 1.499 . S
C225 C224 1.499 . S
C225 C226 1.370 . S
C225 C230 1.415 . S
C226 H215 0.930 . S
C226 C225 1.370 . S
C226 C227 1.407 . S
C227 C226 1.407 . S
C227 C228 1.365 . S
C228 H216 0.930 . S
C228 C227 1.365 . S
C228 C229 1.393 . S
C229 C228 1.393 . S
C229 C230 1.387 . S
C230 H217 0.930 . S
C230 C225 1.415 . S
C230 C229 1.387 . S
H231 C239 0.930 . S
H232 C242 0.930 . S
H233 C244 0.930 . S
H234 C245 0.970 . S
H235 C245 0.970 . S
H236 C247 0.930 . S
H237 C249 0.930 . S
H238 C251 0.930 . S
C239 H231 0.930 . S
C239 C240 1.382 . S
C239 C241 1.426 . S
C240 C239 1.382 . S
C240 C244 1.389 . S
C241 C239 1.426 . S
C241 C242 1.375 . S
C241 C245 1.532 . S
C242 H232 0.930 . S
C242 C241 1.375 . S
C242 C243 1.416 . S
C243 C242 1.416 . S
C243 C244 1.371 . S
C244 H233 0.930 . S
C244 C240 1.389 . S
C244 C243 1.371 . S
C245 H234 0.970 . S
C245 H235 0.970 . S
C245 C241 1.532 . S
C245 C246 1.499 . S
C246 C245 1.499 . S
C246 C247 1.370 . S
C246 C251 1.415 . S
C247 H236 0.930 . S
C247 C246 1.370 . S
C247 C248 1.407 . S
C248 C247 1.407 . S
C248 C249 1.365 . S
C249 H237 0.930 . S
C249 C248 1.365 . S
C249 C250 1.393 . S
C250 C249 1.393 . S
C250 C251 1.387 . S
C251 H238 0.930 . S
C251 C246 1.415 . S
C251 C250 1.387 . S
H252 C260 0.930 . S
H253 C263 0.930 . S
H254 C265 0.930 . S
H255 C266 0.970 . S
H256 C266 0.970 . S
H257 C268 0.930 . S
H258 C270 0.930 . S
H259 C272 0.930 . S
C260 H252 0.930 . S
C260 C261 1.382 . S
C260 C262 1.426 . S
C261 C260 1.382 . S
C261 C265 1.389 . S
C262 C260 1.426 . S
C262 C263 1.375 . S
C262 C266 1.532 1_545 S
C263 H253 0.930 . S
C263 C262 1.375 . S
C263 C264 1.416 . S
C264 C263 1.416 . S
C264 C265 1.371 . S
C265 H254 0.930 . S
C265 C261 1.389 . S
C265 C264 1.371 . S
C266 H255 0.970 . S
C266 H256 0.970 . S
C266 C262 1.532 1_565 S
C266 C267 1.499 . S
C267 C266 1.499 . S
C267 C268 1.370 . S
C267 C272 1.415 . S
C268 H257 0.930 . S
C268 C267 1.370 . S
C268 C269 1.407 . S
C269 C268 1.407 . S
C269 C270 1.365 . S
C270 H258 0.930 . S
C270 C269 1.365 . S
C270 C271 1.393 . S
C271 C270 1.393 . S
C271 C272 1.387 . S
C272 H259 0.930 . S
C272 C267 1.415 . S
C272 C271 1.387 . S
H273 C281 0.930 . S
H274 C284 0.930 . S
H275 C286 0.930 . S
H276 C287 0.970 . S
H277 C287 0.970 . S
H278 C289 0.930 . S
H279 C291 0.930 . S
H280 C293 0.930 . S
C281 H273 0.930 . S
C281 C282 1.382 . S
C281 C283 1.426 . S
C282 C281 1.382 . S
C282 C286 1.389 . S
C283 C281 1.426 . S
C283 C284 1.375 . S
C283 C287 1.532 . S
C284 H274 0.930 . S
C284 C283 1.375 . S
C284 C285 1.416 . S
C285 C284 1.416 . S
C285 C286 1.371 . S
C286 H275 0.930 . S
C286 C282 1.389 . S
C286 C285 1.371 . S
C287 H276 0.970 . S
C287 H277 0.970 . S
C287 C283 1.532 . S
C287 C288 1.499 . S
C288 C287 1.499 . S
C288 C289 1.370 . S
C288 C293 1.415 . S
C289 H278 0.930 . S
C289 C288 1.370 . S
C289 C290 1.407 . S
C290 C289 1.407 . S
C290 C291 1.365 . S
C291 H279 0.930 . S
C291 C290 1.365 . S
C291 C292 1.393 . S
C292 C291 1.393 . S
C292 C293 1.387 . S
C293 H280 0.930 . S
C293 C288 1.415 . S
C293 C292 1.387 . S
H294 C302 0.930 . S
H295 C305 0.930 . S
H296 C307 0.930 . S
H297 C308 0.970 . S
H298 C308 0.970 . S
H299 C310 0.930 . S
H300 C312 0.930 . S
H301 C314 0.930 . S
C302 H294 0.930 . S
C302 C303 1.382 . S
C302 C304 1.426 1_565 S
C303 C302 1.382 . S
C303 C307 1.389 . S
C304 C302 1.426 1_545 S
C304 C305 1.375 1_545 S
C304 C308 1.532 . S
C305 H295 0.930 . S
C305 C304 1.375 1_565 S
C305 C306 1.416 . S
C306 C305 1.416 . S
C306 C307 1.371 . S
C307 H296 0.930 . S
C307 C303 1.389 . S
C307 C306 1.371 . S
C308 H297 0.970 . S
C308 H298 0.970 . S
C308 C304 1.532 . S
C308 C309 1.499 . S
C309 C308 1.499 . S
C309 C310 1.370 . S
C309 C314 1.415 . S
C310 H299 0.930 . S
C310 C309 1.370 . S
C310 C311 1.407 . S
C311 C310 1.407 . S
C311 C312 1.365 . S
C312 H300 0.930 . S
C312 C311 1.365 . S
C312 C313 1.393 . S
C313 C312 1.393 . S
C313 C314 1.387 . S
C314 H301 0.930 . S
C314 C309 1.415 . S
C314 C313 1.387 . S
H315 C323 0.930 . S
H316 C326 0.930 . S
H317 C328 0.930 . S
H318 C329 0.970 . S
H319 C329 0.970 . S
H320 C331 0.930 . S
H321 C333 0.930 . S
H322 C335 0.930 . S
C323 H315 0.930 . S
C323 C324 1.382 . S
C323 C325 1.426 . S
C324 C323 1.382 . S
C324 C328 1.389 . S
C325 C323 1.426 . S
C325 C326 1.375 . S
C325 C329 1.532 . S
C326 H316 0.930 . S
C326 C325 1.375 . S
C326 C327 1.416 . S
C327 C326 1.416 . S
C327 C328 1.371 . S
C328 H317 0.930 . S
C328 C324 1.389 . S
C328 C327 1.371 . S
C329 H318 0.970 . S
C329 H319 0.970 . S
C329 C325 1.532 . S
C329 C330 1.499 . S
C330 C329 1.499 . S
C330 C331 1.370 . S
C330 C335 1.415 . S
C331 H320 0.930 . S
C331 C330 1.370 . S
C331 C332 1.407 1_554 S
C332 C331 1.407 1_556 S
C332 C333 1.365 . S
C333 H321 0.930 . S
C333 C332 1.365 . S
C333 C334 1.393 . S
C334 C333 1.393 . S
C334 C335 1.387 1_556 S
C335 H322 0.930 . S
C335 C330 1.415 . S
C335 C334 1.387 1_554 S
H336 C344 0.930 . S
H337 C347 0.930 . S
H338 C349 0.930 . S
H339 C350 0.970 . S
H340 C350 0.970 . S
H341 C352 0.930 1_554 S
H342 C354 0.930 . S
H343 C356 0.930 . S
C344 H336 0.930 . S
C344 C345 1.382 . S
C344 C346 1.426 . S
C345 C344 1.382 . S
C345 C349 1.389 . S
C346 C344 1.426 . S
C346 C347 1.375 . S
C346 C350 1.532 . S
C347 H337 0.930 . S
C347 C346 1.375 . S
C347 C348 1.416 . S
C348 C347 1.416 . S
C348 C349 1.371 . S
C349 H338 0.930 . S
C349 C345 1.389 . S
C349 C348 1.371 . S
C350 H339 0.970 . S
C350 H340 0.970 . S
C350 C346 1.532 . S
C350 C351 1.499 . S
C351 C350 1.499 . S
C351 C352 1.370 1_554 S
C351 C356 1.415 . S
C352 H341 0.930 1_556 S
C352 C351 1.370 1_556 S
C352 C353 1.407 . S
C353 C352 1.407 . S
C353 C354 1.365 . S
C354 H342 0.930 . S
C354 C353 1.365 . S
C354 C355 1.393 . S
C355 C354 1.393 . S
C355 C356 1.387 1_556 S
C356 H343 0.930 . S
C356 C351 1.415 . S
C356 C355 1.387 1_554 S
H357 C365 0.930 . S
H358 C368 0.930 . S
H359 C370 0.930 . S
H360 C371 0.970 . S
H361 C371 0.970 . S
H362 C373 0.930 . S
H363 C375 0.930 . S
H364 C377 0.930 . S
C365 H357 0.930 . S
C365 C366 1.382 . S
C365 C367 1.426 . S
C366 C365 1.382 . S
C366 C370 1.389 . S
C367 C365 1.426 . S
C367 C368 1.375 . S
C367 C371 1.532 . S
C368 H358 0.930 . S
C368 C367 1.375 . S
C368 C369 1.416 . S
C369 C368 1.416 . S
C369 C370 1.371 . S
C370 H359 0.930 . S
C370 C366 1.389 . S
C370 C369 1.371 . S
C371 H360 0.970 . S
C371 H361 0.970 . S
C371 C367 1.532 . S
C371 C372 1.499 . S
C372 C371 1.499 . S
C372 C373 1.370 . S
C372 C377 1.415 . S
C373 H362 0.930 . S
C373 C372 1.370 . S
C373 C374 1.407 . S
C374 C373 1.407 . S
C374 C375 1.365 . S
C375 H363 0.930 . S
C375 C374 1.365 . S
C375 C376 1.393 . S
C376 C375 1.393 . S
C376 C377 1.387 . S
C377 H364 0.930 . S
C377 C372 1.415 . S
C377 C376 1.387 . S
H378 C386 0.930 . S
H379 C389 0.930 . S
H380 C391 0.930 . S
H381 C392 0.970 . S
H382 C392 0.970 . S
H383 C394 0.930 . S
H384 C396 0.930 . S
H385 C398 0.930 . S
C386 H378 0.930 . S
C386 C387 1.382 . S
C386 C388 1.426 . S
C387 C386 1.382 . S
C387 C391 1.389 . S
C388 C386 1.426 . S
C388 C389 1.375 . S
C388 C392 1.532 . S
C389 H379 0.930 . S
C389 C388 1.375 . S
C389 C390 1.416 . S
C390 C389 1.416 . S
C390 C391 1.371 . S
C391 H380 0.930 . S
C391 C387 1.389 . S
C391 C390 1.371 . S
C392 H381 0.970 . S
C392 H382 0.970 . S
C392 C388 1.532 . S
C392 C393 1.499 . S
C393 C392 1.499 . S
C393 C394 1.370 . S
C393 C398 1.415 . S
C394 H383 0.930 . S
C394 C393 1.370 . S
C394 C395 1.407 . S
C395 C394 1.407 . S
C395 C396 1.365 . S
C396 H384 0.930 . S
C396 C395 1.365 . S
C396 C397 1.393 . S
C397 C396 1.393 . S
C397 C398 1.387 . S
C398 H385 0.930 . S
C398 C393 1.415 . S
C398 C397 1.387 . S
H399 C407 0.930 . S
H400 C410 0.930 . S
H401 C412 0.930 . S
H402 C413 0.970 . S
H403 C413 0.970 . S
H404 C415 0.930 . S
H405 C417 0.930 . S
H406 C419 0.930 . S
C407 H399 0.930 . S
C407 C408 1.382 . S
C407 C409 1.426 . S
C408 C407 1.382 . S
C408 C412 1.389 . S
C409 C407 1.426 . S
C409 C410 1.375 . S
C409 C413 1.532 . S
C410 H400 0.930 . S
C410 C409 1.375 . S
C410 C411 1.416 . S
C411 C410 1.416 . S
C411 C412 1.371 . S
C412 H401 0.930 . S
C412 C408 1.389 . S
C412 C411 1.371 . S
C413 H402 0.970 . S
C413 H403 0.970 . S
C413 C409 1.532 . S
C413 C414 1.499 . S
C414 C413 1.499 . S
C414 C415 1.370 . S
C414 C419 1.415 . S
C415 H404 0.930 . S
C415 C414 1.370 . S
C415 C416 1.407 . S
C416 C415 1.407 . S
C416 C417 1.365 . S
C417 H405 0.930 . S
C417 C416 1.365 . S
C417 C418 1.393 . S
C418 C417 1.393 . S
C418 C419 1.387 . S
C419 H406 0.930 . S
C419 C414 1.415 . S
C419 C418 1.387 . S
H420 C426 0.930 1_655 S
H421 C430 0.930 . S
H422 C435 0.929 . S
H423 C433 0.929 . S
H424 C428 0.929 . S
H425 C434 0.929 . S
C426 H420 0.930 1_455 S
C426 C427 1.367 . S
C426 C434 1.378 1_554 S
C427 C426 1.367 . S
C427 C435 1.433 . S
C428 H424 0.929 . S
C428 C430 1.378 . S
C428 C432 1.350 . S
C429 C432 1.463 . S
C429 C434 1.350 . S
C429 N437 1.427 1_556 S
C430 H421 0.930 . S
C430 C428 1.378 . S
C430 C431 1.367 . S
C431 C430 1.367 . S
C431 C433 1.433 . S
C432 C428 1.350 . S
C432 C429 1.463 . S
C432 N436 1.427 . S
C433 H423 0.929 . S
C433 C431 1.433 . S
C433 N436 1.384 . S
C434 H425 0.929 . S
C434 C426 1.378 1_556 S
C434 C429 1.350 . S
C435 H422 0.929 . S
C435 C427 1.433 . S
C435 N437 1.384 . S
N436 C432 1.427 . S
N436 C433 1.384 . S
N437 C429 1.427 1_554 S
N437 C435 1.384 . S
H438 C444 0.930 . S
H439 C448 0.930 . S
H440 C453 0.929 . S
H441 C451 0.929 . S
H442 C446 0.929 . S
H443 C452 0.929 . S
C444 H438 0.930 . S
C444 C445 1.367 . S
C444 C452 1.378 . S
C445 C444 1.367 . S
C445 C453 1.433 . S
C446 H442 0.929 . S
C446 C448 1.378 . S
C446 C450 1.350 . S
C447 C450 1.463 . S
C447 C452 1.350 . S
C447 N455 1.427 . S
C448 H439 0.930 . S
C448 C446 1.378 . S
C448 C449 1.367 . S
C449 C448 1.367 . S
C449 C451 1.433 . S
C450 C446 1.350 . S
C450 C447 1.463 . S
C450 N454 1.427 . S
C451 H441 0.929 . S
C451 C449 1.433 . S
C451 N454 1.384 . S
C452 H443 0.929 . S
C452 C444 1.378 . S
C452 C447 1.350 . S
C453 H440 0.929 . S
C453 C445 1.433 . S
C453 N455 1.384 . S
N454 C450 1.427 . S
N454 C451 1.384 . S
N455 C447 1.427 . S
N455 C453 1.384 . S
H456 C462 0.930 . S
H457 C466 0.930 . S
H458 C471 0.929 . S
H459 C469 0.929 . S
H460 C464 0.929 . S
H461 C470 0.929 . S
C462 H456 0.930 . S
C462 C463 1.367 . S
C462 C470 1.378 . S
C463 C462 1.367 . S
C463 C471 1.433 . S
C464 H460 0.929 . S
C464 C466 1.378 . S
C464 C468 1.350 . S
C465 C468 1.463 . S
C465 C470 1.350 . S
C465 N473 1.427 . S
C466 H457 0.930 . S
C466 C464 1.378 . S
C466 C467 1.367 . S
C467 C466 1.367 . S
C467 C469 1.433 . S
C468 C464 1.350 . S
C468 C465 1.463 . S
C468 N472 1.427 . S
C469 H459 0.929 . S
C469 C467 1.433 . S
C469 N472 1.384 . S
C470 H461 0.929 . S
C470 C462 1.378 . S
C470 C465 1.350 . S
C471 H458 0.929 . S
C471 C463 1.433 . S
C471 N473 1.384 . S
N472 C468 1.427 . S
N472 C469 1.384 . S
N473 C465 1.427 . S
N473 C471 1.384 . S
H474 C480 0.930 . S
H475 C484 0.930 . S
H476 C489 0.929 . S
H477 C487 0.929 . S
H478 C482 0.929 . S
H479 C488 0.929 . S
C480 H474 0.930 . S
C480 C481 1.367 . S
C480 C488 1.378 . S
C481 C480 1.367 . S
C481 C489 1.433 . S
C482 H478 0.929 . S
C482 C484 1.378 . S
C482 C486 1.350 . S
C483 C486 1.463 . S
C483 C488 1.350 . S
C483 N491 1.427 . S
C484 H475 0.930 . S
C484 C482 1.378 . S
C484 C485 1.367 . S
C485 C484 1.367 . S
C485 C487 1.433 . S
C486 C482 1.350 . S
C486 C483 1.463 . S
C486 N490 1.427 . S
C487 H477 0.929 . S
C487 C485 1.433 . S
C487 N490 1.384 . S
C488 H479 0.929 . S
C488 C480 1.378 . S
C488 C483 1.350 . S
C489 H476 0.929 . S
C489 C481 1.433 . S
C489 N491 1.384 . S
N490 C486 1.427 . S
N490 C487 1.384 . S
N491 C483 1.427 . S
N491 C489 1.384 . S
H492 C498 0.930 . S
H493 C502 0.930 . S
H494 C507 0.929 . S
H495 C505 0.929 . S
H496 C500 0.929 . S
H497 C506 0.929 . S
C498 H492 0.930 . S
C498 C499 1.367 . S
C498 C506 1.378 . S
C499 C498 1.367 . S
C499 C507 1.433 . S
C500 H496 0.929 . S
C500 C502 1.378 . S
C500 C504 1.350 . S
C501 C504 1.463 . S
C501 C506 1.350 . S
C501 N509 1.427 . S
C502 H493 0.930 . S
C502 C500 1.378 . S
C502 C503 1.367 . S
C503 C502 1.367 . S
C503 C505 1.433 . S
C504 C500 1.350 . S
C504 C501 1.463 . S
C504 N508 1.427 . S
C505 H495 0.929 . S
C505 C503 1.433 . S
C505 N508 1.384 . S
C506 H497 0.929 . S
C506 C498 1.378 . S
C506 C501 1.350 . S
C507 H494 0.929 . S
C507 C499 1.433 . S
C507 N509 1.384 . S
N508 C504 1.427 . S
N508 C505 1.384 . S
N509 C501 1.427 . S
N509 C507 1.384 . S
H510 C516 0.930 . S
H511 C520 0.930 . S
H512 C525 0.929 . S
H513 C523 0.929 . S
H514 C518 0.929 . S
H515 C524 0.929 . S
C516 H510 0.930 . S
C516 C517 1.367 . S
C516 C524 1.378 . S
C517 C516 1.367 . S
C517 C525 1.433 . S
C518 H514 0.929 . S
C518 C520 1.378 . S
C518 C522 1.350 . S
C519 C522 1.463 . S
C519 C524 1.350 . S
C519 N527 1.427 . S
C520 H511 0.930 . S
C520 C518 1.378 . S
C520 C521 1.367 . S
C521 C520 1.367 . S
C521 C523 1.433 . S
C522 C518 1.350 . S
C522 C519 1.463 . S
C522 N526 1.427 . S
C523 H513 0.929 . S
C523 C521 1.433 . S
C523 N526 1.384 . S
C524 H515 0.929 . S
C524 C516 1.378 . S
C524 C519 1.350 . S
C525 H512 0.929 . S
C525 C517 1.433 . S
C525 N527 1.384 . S
N526 C522 1.427 . S
N526 C523 1.384 . S
N527 C519 1.427 . S
N527 C525 1.384 . S
H528 C534 0.930 . S
H529 C538 0.930 . S
H530 C543 0.929 . S
H531 C541 0.929 . S
H532 C536 0.929 . S
H533 C542 0.929 . S
C534 H528 0.930 . S
C534 C535 1.367 . S
C534 C542 1.378 1_556 S
C535 C534 1.367 . S
C535 C543 1.433 1_556 S
C536 H532 0.929 . S
C536 C538 1.378 . S
C536 C540 1.350 . S
C537 C540 1.463 . S
C537 C542 1.350 . S
C537 N545 1.427 . S
C538 H529 0.930 . S
C538 C536 1.378 . S
C538 C539 1.367 . S
C539 C538 1.367 . S
C539 C541 1.433 . S
C540 C536 1.350 . S
C540 C537 1.463 . S
C540 N544 1.427 . S
C541 H531 0.929 . S
C541 C539 1.433 . S
C541 N544 1.384 . S
C542 H533 0.929 . S
C542 C534 1.378 1_554 S
C542 C537 1.350 . S
C543 H530 0.929 . S
C543 C535 1.433 1_554 S
C543 N545 1.384 . S
N544 C540 1.427 . S
N544 C541 1.384 . S
N545 C537 1.427 . S
N545 C543 1.384 . S
H546 C552 0.930 . S
H547 C556 0.930 . S
H548 C561 0.929 . S
H549 C559 0.929 . S
H550 C554 0.929 . S
H551 C560 0.929 . S
C552 H546 0.930 . S
C552 C553 1.367 . S
C552 C560 1.378 . S
C553 C552 1.367 . S
C553 C561 1.433 . S
C554 H550 0.929 . S
C554 C556 1.378 . S
C554 C558 1.350 . S
C555 C558 1.463 . S
C555 C560 1.350 . S
C555 N563 1.427 . S
C556 H547 0.930 . S
C556 C554 1.378 . S
C556 C557 1.367 . S
C557 C556 1.367 . S
C557 C559 1.433 . S
C558 C554 1.350 . S
C558 C555 1.463 . S
C558 N562 1.427 . S
C559 H549 0.929 . S
C559 C557 1.433 . S
C559 N562 1.384 . S
C560 H551 0.929 . S
C560 C552 1.378 . S
C560 C555 1.350 . S
C561 H548 0.929 . S
C561 C553 1.433 . S
C561 N563 1.384 . S
N562 C558 1.427 . S
N562 C559 1.384 . S
N563 C555 1.427 . S
N563 C561 1.384 . S
H564 C570 0.930 . S
H565 C574 0.930 . S
H566 C579 0.929 . S
H567 C577 0.929 . S
H568 C572 0.929 . S
H569 C578 0.929 . S
C570 H564 0.930 . S
C570 C571 1.367 . S
C570 C578 1.378 1_455 S
C571 C570 1.367 . S
C571 C579 1.433 . S
C572 H568 0.929 . S
C572 C574 1.378 . S
C572 C576 1.350 . S
C573 C576 1.463 . S
C573 C578 1.350 . S
C573 N581 1.427 . S
C574 H565 0.930 . S
C574 C572 1.378 . S
C574 C575 1.367 . S
C575 C574 1.367 . S
C575 C577 1.433 . S
C576 C572 1.350 . S
C576 C573 1.463 . S
C576 N580 1.427 . S
C577 H567 0.929 . S
C577 C575 1.433 . S
C577 N580 1.384 . S
C578 H569 0.929 . S
C578 C570 1.378 1_655 S
C578 C573 1.350 . S
C579 H566 0.929 . S
C579 C571 1.433 . S
C579 N581 1.384 1_455 S
N580 C576 1.427 . S
N580 C577 1.384 . S
N581 C573 1.427 . S
N581 C579 1.384 1_655 S
H582 C588 0.930 . S
H583 C592 0.930 . S
H584 C597 0.929 . S
H585 C595 0.929 . S
H586 C590 0.929 . S
H587 C596 0.929 . S
C588 H582 0.930 . S
C588 C589 1.367 . S
C588 C596 1.378 . S
C589 C588 1.367 . S
C589 C597 1.433 . S
C590 H586 0.929 . S
C590 C592 1.378 . S
C590 C594 1.350 . S
C591 C594 1.463 . S
C591 C596 1.350 . S
C591 N599 1.427 . S
C592 H583 0.930 . S
C592 C590 1.378 . S
C592 C593 1.367 . S
C593 C592 1.367 . S
C593 C595 1.433 . S
C594 C590 1.350 . S
C594 C591 1.463 . S
C594 N598 1.427 . S
C595 H585 0.929 . S
C595 C593 1.433 . S
C595 N598 1.384 . S
C596 H587 0.929 . S
C596 C588 1.378 . S
C596 C591 1.350 . S
C597 H584 0.929 . S
C597 C589 1.433 . S
C597 N599 1.384 . S
N598 C594 1.427 . S
N598 C595 1.384 . S
N599 C591 1.427 . S
N599 C597 1.384 . S
H600 C606 0.930 . S
H601 C610 0.930 . S
H602 C615 0.929 . S
H603 C613 0.929 . S
H604 C608 0.929 . S
H605 C614 0.929 . S
C606 H600 0.930 . S
C606 C607 1.367 . S
C606 C614 1.378 . S
C607 C606 1.367 . S
C607 C615 1.433 1_565 S
C608 H604 0.929 . S
C608 C610 1.378 . S
C608 C612 1.350 . S
C609 C612 1.463 . S
C609 C614 1.350 . S
C609 N617 1.427 . S
C610 H601 0.930 . S
C610 C608 1.378 . S
C610 C611 1.367 . S
C611 C610 1.367 . S
C611 C613 1.433 . S
C612 C608 1.350 . S
C612 C609 1.463 . S
C612 N616 1.427 . S
C613 H603 0.929 . S
C613 C611 1.433 . S
C613 N616 1.384 . S
C614 H605 0.929 . S
C614 C606 1.378 . S
C614 C609 1.350 . S
C615 H602 0.929 . S
C615 C607 1.433 1_545 S
C615 N617 1.384 1_545 S
N616 C612 1.427 . S
N616 C613 1.384 . S
N617 C609 1.427 . S
N617 C615 1.384 1_565 S
H618 C624 0.930 . S
H619 C628 0.930 . S
H620 C633 0.929 . S
H621 C631 0.929 . S
H622 C626 0.929 . S
H623 C632 0.929 . S
C624 H618 0.930 . S
C624 C625 1.367 . S
C624 C632 1.378 . S
C625 C624 1.367 . S
C625 C633 1.433 . S
C626 H622 0.929 . S
C626 C628 1.378 . S
C626 C630 1.350 . S
C627 C630 1.463 . S
C627 C632 1.350 . S
C627 N635 1.427 . S
C628 H619 0.930 . S
C628 C626 1.378 . S
C628 C629 1.367 . S
C629 C628 1.367 . S
C629 C631 1.433 . S
C630 C626 1.350 . S
C630 C627 1.463 . S
C630 N634 1.427 . S
C631 H621 0.929 . S
C631 C629 1.433 . S
C631 N634 1.384 . S
C632 H623 0.929 . S
C632 C624 1.378 . S
C632 C627 1.350 . S
C633 H620 0.929 . S
C633 C625 1.433 . S
C633 N635 1.384 . S
N634 C630 1.427 . S
N634 C631 1.384 . S
N635 C627 1.427 . S
N635 C633 1.384 . S
H636 C642 0.930 . S
H637 C646 0.930 . S
H638 C651 0.929 1_545 S
H639 C649 0.929 . S
H640 C644 0.929 . S
H641 C650 0.928 1_655 S
C642 H636 0.930 . S
C642 C643 1.367 . S
C642 C650 1.380 . S
C643 C642 1.367 . S
C643 C651 1.433 . S
C644 H640 0.929 . S
C644 C646 1.378 . S
C644 C648 1.350 . S
C645 C648 1.463 . S
C645 C650 1.348 1_655 S
C645 N653 1.427 . S
C646 H637 0.930 . S
C646 C644 1.378 . S
C646 C647 1.367 . S
C647 C646 1.367 . S
C647 C649 1.433 . S
C648 C644 1.350 . S
C648 C645 1.463 . S
C648 N652 1.427 . S
C649 H639 0.929 . S
C649 C647 1.433 . S
C649 N652 1.384 . S
C650 H641 0.928 1_455 S
C650 C642 1.380 . S
C650 C645 1.348 1_455 S
C651 H638 0.929 1_565 S
C651 C643 1.433 . S
C651 N653 1.384 1_455 S
N652 C648 1.427 . S
N652 C649 1.384 . S
N653 C645 1.427 . S
N653 C651 1.384 1_655 S
H654 C660 0.930 . S
H655 C664 0.930 . S
H656 C669 0.929 . S
H657 C667 0.929 . S
H658 C662 0.929 . S
H659 C668 0.929 . S
C660 H654 0.930 . S
C660 C661 1.367 . S
C660 C668 1.378 . S
C661 C660 1.367 . S
C661 C669 1.433 . S
C662 H658 0.929 . S
C662 C664 1.378 . S
C662 C666 1.350 . S
C663 C666 1.463 . S
C663 C668 1.350 . S
C663 N671 1.427 . S
C664 H655 0.930 . S
C664 C662 1.378 . S
C664 C665 1.367 . S
C665 C664 1.367 . S
C665 C667 1.433 . S
C666 C662 1.350 . S
C666 C663 1.463 . S
C666 N670 1.427 . S
C667 H657 0.929 . S
C667 C665 1.433 . S
C667 N670 1.384 . S
C668 H659 0.929 . S
C668 C660 1.378 . S
C668 C663 1.350 . S
C669 H656 0.929 . S
C669 C661 1.433 . S
C669 N671 1.384 . S
N670 C666 1.427 . S
N670 C667 1.384 . S
N671 C663 1.427 . S
N671 C669 1.384 . S
H672 C678 0.930 . S
H673 C682 0.930 . S
H674 C687 0.929 . S
H675 C685 0.929 . S
H676 C680 0.929 . S
H677 C686 0.929 . S
C678 H672 0.930 . S
C678 C679 1.367 . S
C678 C686 1.378 . S
C679 C678 1.367 . S
C679 C687 1.433 . S
C680 H676 0.929 . S
C680 C682 1.378 . S
C680 C684 1.350 . S
C681 C684 1.463 . S
C681 C686 1.350 . S
C681 N689 1.427 . S
C682 H673 0.930 . S
C682 C680 1.378 . S
C682 C683 1.367 . S
C683 C682 1.367 . S
C683 C685 1.433 . S
C684 C680 1.350 . S
C684 C681 1.463 . S
C684 N688 1.427 . S
C685 H675 0.929 . S
C685 C683 1.433 . S
C685 N688 1.384 . S
C686 H677 0.929 . S
C686 C678 1.378 . S
C686 C681 1.350 . S
C687 H674 0.929 . S
C687 C679 1.433 . S
C687 N689 1.384 . S
N688 C684 1.427 . S
N688 C685 1.384 . S
N689 C681 1.427 . S
N689 C687 1.384 . S
H690 C696 0.930 . S
H691 C700 0.930 . S
H692 C705 0.929 . S
H693 C703 0.929 . S
H694 C698 0.929 . S
H695 C704 0.929 . S
C696 H690 0.930 . S
C696 C697 1.367 . S
C696 C704 1.378 . S
C697 C696 1.367 . S
C697 C705 1.433 . S
C698 H694 0.929 . S
C698 C700 1.378 . S
C698 C702 1.350 . S
C699 C702 1.463 . S
C699 C704 1.350 . S
C699 N707 1.427 . S
C700 H691 0.930 . S
C700 C698 1.378 . S
C700 C701 1.367 . S
C701 C700 1.367 . S
C701 C703 1.433 . S
C702 C698 1.350 . S
C702 C699 1.463 . S
C702 N706 1.427 . S
C703 H693 0.929 . S
C703 C701 1.433 . S
C703 N706 1.384 . S
C704 H695 0.929 . S
C704 C696 1.378 . S
C704 C699 1.350 . S
C705 H692 0.929 . S
C705 C697 1.433 . S
C705 N707 1.384 . S
N706 C702 1.427 . S
N706 C703 1.384 . S
N707 C699 1.427 . S
N707 C705 1.384 . S
H708 C714 0.930 . S
H709 C718 0.930 . S
H710 C723 0.929 . S
H711 C721 0.929 . S
H712 C716 0.929 . S
H713 C722 0.929 . S
C714 H708 0.930 . S
C714 C715 1.367 . S
C714 C722 1.378 . S
C715 C714 1.367 . S
C715 C723 1.433 . S
C716 H712 0.929 . S
C716 C718 1.378 . S
C716 C720 1.350 . S
C717 C720 1.463 . S
C717 C722 1.350 1_565 S
C717 N725 1.427 . S
C718 H709 0.930 . S
C718 C716 1.378 . S
C718 C719 1.367 . S
C719 C718 1.367 . S
C719 C721 1.433 . S
C720 C716 1.350 . S
C720 C717 1.463 . S
C720 N724 1.427 . S
C721 H711 0.929 . S
C721 C719 1.433 . S
C721 N724 1.384 . S
C722 H713 0.929 . S
C722 C714 1.378 . S
C722 C717 1.350 1_545 S
C723 H710 0.929 . S
C723 C715 1.433 . S
C723 N725 1.384 1_545 S
N724 C720 1.427 . S
N724 C721 1.384 . S
N725 C717 1.427 . S
N725 C723 1.384 1_565 S
H726 C732 0.930 . S
H727 C736 0.930 . S
H728 C741 0.929 1_554 S
H729 C739 0.929 . S
H730 C734 0.929 . S
H731 C740 0.929 . S
C732 H726 0.930 . S
C732 C733 1.367 . S
C732 C740 1.378 . S
C733 C732 1.367 . S
C733 C741 1.433 . S
C734 H730 0.929 . S
C734 C736 1.378 . S
C734 C738 1.350 . S
C735 C738 1.463 . S
C735 C740 1.350 . S
C735 N743 1.427 . S
C736 H727 0.930 . S
C736 C734 1.378 . S
C736 C737 1.367 . S
C737 C736 1.367 . S
C737 C739 1.433 . S
C738 C734 1.350 . S
C738 C735 1.463 . S
C738 N742 1.427 . S
C739 H729 0.929 . S
C739 C737 1.433 . S
C739 N742 1.384 . S
C740 H731 0.929 . S
C740 C732 1.378 . S
C740 C735 1.350 . S
C741 H728 0.929 1_556 S
C741 C733 1.433 . S
C741 N743 1.384 . S
N742 C738 1.427 . S
N742 C739 1.384 . S
N743 C735 1.427 . S
N743 C741 1.384 . S
H744 C750 0.930 . S
H745 C754 0.930 . S
H746 C759 0.929 . S
H747 C757 0.929 . S
H748 C752 0.929 . S
H749 C758 0.929 . S
C750 H744 0.930 . S
C750 C751 1.367 . S
C750 C758 1.378 . S
C751 C750 1.367 . S
C751 C759 1.433 . S
C752 H748 0.929 . S
C752 C754 1.378 . S
C752 C756 1.350 . S
C753 C756 1.463 . S
C753 C758 1.350 . S
C753 N761 1.427 . S
C754 H745 0.930 . S
C754 C752 1.378 . S
C754 C755 1.367 . S
C755 C754 1.367 . S
C755 C757 1.433 . S
C756 C752 1.350 . S
C756 C753 1.463 . S
C756 N760 1.427 . S
C757 H747 0.929 . S
C757 C755 1.433 . S
C757 N760 1.384 . S
C758 H749 0.929 . S
C758 C750 1.378 . S
C758 C753 1.350 . S
C759 H746 0.929 . S
C759 C751 1.433 . S
C759 N761 1.384 . S
N760 C756 1.427 . S
N760 C757 1.384 . S
N761 C753 1.427 . S
N761 C759 1.384 . S
H762 C768 0.930 . S
H763 C772 0.930 . S
H764 C777 0.929 . S
H765 C775 0.929 . S
H766 C770 0.929 . S
H767 C776 0.929 . S
C768 H762 0.930 . S
C768 C769 1.367 . S
C768 C776 1.378 . S
C769 C768 1.367 . S
C769 C777 1.433 . S
C770 H766 0.929 . S
C770 C772 1.378 . S
C770 C774 1.350 . S
C771 C774 1.463 . S
C771 C776 1.350 . S
C771 N779 1.427 . S
C772 H763 0.930 . S
C772 C770 1.378 . S
C772 C773 1.367 . S
C773 C772 1.367 . S
C773 C775 1.433 . S
C774 C770 1.350 . S
C774 C771 1.463 . S
C774 N778 1.427 . S
C775 H765 0.929 . S
C775 C773 1.433 . S
C775 N778 1.384 . S
C776 H767 0.929 . S
C776 C768 1.378 . S
C776 C771 1.350 . S
C777 H764 0.929 . S
C777 C769 1.433 . S
C777 N779 1.384 . S
N778 C774 1.427 . S
N778 C775 1.384 . S
N779 C771 1.427 . S
N779 C777 1.384 . S
H780 C786 0.930 . S
H781 C790 0.930 . S
H782 C795 0.929 . S
H783 C793 0.929 . S
H784 C788 0.929 . S
H785 C794 0.929 . S
C786 H780 0.930 . S
C786 C787 1.367 . S
C786 C794 1.378 . S
C787 C786 1.367 . S
C787 C795 1.433 . S
C788 H784 0.929 . S
C788 C790 1.378 . S
C788 C792 1.350 . S
C789 C792 1.463 . S
C789 C794 1.350 . S
C789 N797 1.427 . S
C790 H781 0.930 . S
C790 C788 1.378 . S
C790 C791 1.367 . S
C791 C790 1.367 . S
C791 C793 1.433 . S
C792 C788 1.350 . S
C792 C789 1.463 . S
C792 N796 1.427 . S
C793 H783 0.929 . S
C793 C791 1.433 . S
C793 N796 1.384 . S
C794 H785 0.929 . S
C794 C786 1.378 . S
C794 C789 1.350 . S
C795 H782 0.929 . S
C795 C787 1.433 . S
C795 N797 1.384 . S
N796 C792 1.427 . S
N796 C793 1.384 . S
N797 C789 1.427 . S
N797 C795 1.384 . S
H798 C804 0.930 . S
H799 C808 0.930 . S
H800 C813 0.929 . S
H801 C811 0.929 . S
H802 C806 0.929 . S
H803 C812 0.929 . S
C804 H798 0.930 . S
C804 C805 1.367 . S
C804 C812 1.378 1_565 S
C805 C804 1.367 . S
C805 C813 1.433 1_565 S
C806 H802 0.929 . S
C806 C808 1.378 . S
C806 C810 1.350 . S
C807 C810 1.463 . S
C807 C812 1.350 . S
C807 N815 1.427 . S
C808 H799 0.930 . S
C808 C806 1.378 . S
C808 C809 1.367 . S
C809 C808 1.367 . S
C809 C811 1.433 . S
C810 C806 1.350 . S
C810 C807 1.463 . S
C810 N814 1.427 . S
C811 H801 0.929 . S
C811 C809 1.433 . S
C811 N814 1.384 . S
C812 H803 0.929 . S
C812 C804 1.378 1_545 S
C812 C807 1.350 . S
C813 H800 0.929 . S
C813 C805 1.433 1_545 S
C813 N815 1.384 . S
N814 C810 1.427 . S
N814 C811 1.384 . S
N815 C807 1.427 . S
N815 C813 1.384 . S
H816 C822 0.930 . S
H817 C826 0.930 . S
H818 C831 0.929 . S
H819 C829 0.929 . S
H820 C824 0.929 . S
H821 C830 0.929 . S
C822 H816 0.930 . S
C822 C823 1.367 . S
C822 C830 1.378 . S
C823 C822 1.367 . S
C823 C831 1.433 . S
C824 H820 0.929 . S
C824 C826 1.378 . S
C824 C828 1.350 . S
C825 C828 1.463 . S
C825 C830 1.350 . S
C825 N833 1.427 . S
C826 H817 0.930 . S
C826 C824 1.378 . S
C826 C827 1.367 . S
C827 C826 1.367 . S
C827 C829 1.433 . S
C828 C824 1.350 . S
C828 C825 1.463 . S
C828 N832 1.427 . S
C829 H819 0.929 . S
C829 C827 1.433 . S
C829 N832 1.384 . S
C830 H821 0.929 . S
C830 C822 1.378 . S
C830 C825 1.350 . S
C831 H818 0.929 . S
C831 C823 1.433 . S
C831 N833 1.384 . S
N832 C828 1.427 . S
N832 C829 1.384 . S
N833 C825 1.427 . S
N833 C831 1.384 . S
H834 C840 0.930 . S
H835 C844 0.930 . S
H836 C849 0.929 . S
H837 C847 0.929 . S
H838 C842 0.929 . S
H839 C848 0.929 . S
C840 H834 0.930 . S
C840 C841 1.367 . S
C840 C848 1.378 . S
C841 C840 1.367 . S
C841 C849 1.433 . S
C842 H838 0.929 . S
C842 C844 1.378 . S
C842 C846 1.350 . S
C843 C846 1.463 . S
C843 C848 1.350 . S
C843 N851 1.427 . S
C844 H835 0.930 . S
C844 C842 1.378 . S
C844 C845 1.367 . S
C845 C844 1.367 . S
C845 C847 1.433 . S
C846 C842 1.350 . S
C846 C843 1.463 . S
C846 N850 1.427 . S
C847 H837 0.929 . S
C847 C845 1.433 . S
C847 N850 1.384 . S
C848 H839 0.929 . S
C848 C840 1.378 . S
C848 C843 1.350 . S
C849 H836 0.929 . S
C849 C841 1.433 . S
C849 N851 1.384 . S
N850 C846 1.427 . S
N850 C847 1.384 . S
N851 C843 1.427 . S
N851 C849 1.384 . S
H852 C858 0.930 . S
H853 C862 0.930 . S
H854 C867 0.929 . S
H855 C865 0.929 . S
H856 C860 0.929 . S
H857 C866 0.929 . S
C858 H852 0.930 . S
C858 C859 1.367 . S
C858 C866 1.378 . S
C859 C858 1.367 . S
C859 C867 1.433 . S
C860 H856 0.929 . S
C860 C862 1.378 . S
C860 C864 1.350 . S
C861 C864 1.463 . S
C861 C866 1.350 . S
C861 N869 1.427 . S
C862 H853 0.930 . S
C862 C860 1.378 . S
C862 C863 1.367 . S
C863 C862 1.367 . S
C863 C865 1.433 . S
C864 C860 1.350 . S
C864 C861 1.463 . S
C864 N868 1.427 . S
C865 H855 0.929 . S
C865 C863 1.433 . S
C865 N868 1.384 . S
C866 H857 0.929 . S
C866 C858 1.378 . S
C866 C861 1.350 . S
C867 H854 0.929 . S
C867 C859 1.433 . S
C867 N869 1.384 . S
N868 C864 1.427 . S
N868 C865 1.384 . S
N869 C861 1.427 . S
N869 C867 1.384 . S
H870 C876 0.930 . S
H871 C880 0.930 . S
H872 C885 0.929 . S
H873 C883 0.929 . S
H874 C878 0.929 . S
H875 C884 0.929 . S
C876 H870 0.930 . S
C876 C877 1.367 . S
C876 C884 1.378 . S
C877 C876 1.367 . S
C877 C885 1.433 . S
C878 H874 0.929 . S
C878 C880 1.378 . S
C878 C882 1.350 . S
C879 C882 1.463 . S
C879 C884 1.350 . S
C879 N887 1.427 . S
C880 H871 0.930 . S
C880 C878 1.378 . S
C880 C881 1.367 . S
C881 C880 1.367 . S
C881 C883 1.433 . S
C882 C878 1.350 . S
C882 C879 1.463 . S
C882 N886 1.427 . S
C883 H873 0.929 . S
C883 C881 1.433 . S
C883 N886 1.384 . S
C884 H875 0.929 . S
C884 C876 1.378 . S
C884 C879 1.350 . S
C885 H872 0.929 . S
C885 C877 1.433 . S
C885 N887 1.384 . S
N886 C882 1.427 . S
N886 C883 1.384 . S
N887 C879 1.427 . S
N887 C885 1.384 . S
H888 C894 0.930 1_455 S
H889 C898 0.930 . S
H890 C903 0.929 . S
H891 C901 0.929 . S
H892 C896 0.929 . S
H893 C902 0.929 . S
C894 H888 0.930 1_655 S
C894 C895 1.367 . S
C894 C902 1.378 1_554 S
C895 C894 1.367 . S
C895 C903 1.433 . S
C896 H892 0.929 . S
C896 C898 1.378 . S
C896 C900 1.350 . S
C897 C900 1.463 . S
C897 C902 1.350 . S
C897 N905 1.427 1_556 S
C898 H889 0.930 . S
C898 C896 1.378 . S
C898 C899 1.367 . S
C899 C898 1.367 . S
C899 C901 1.433 . S
C900 C896 1.350 . S
C900 C897 1.463 . S
C900 N904 1.427 . S
C901 H891 0.929 . S
C901 C899 1.433 . S
C901 N904 1.384 . S
C902 H893 0.929 . S
C902 C894 1.378 1_556 S
C902 C897 1.350 . S
C903 H890 0.929 . S
C903 C895 1.433 . S
C903 N905 1.384 . S
N904 C900 1.427 . S
N904 C901 1.384 . S
N905 C897 1.427 1_554 S
N905 C903 1.384 . S
H906 C912 0.930 . S
H907 C916 0.930 . S
H908 C921 0.929 . S
H909 C919 0.929 . S
H910 C914 0.929 . S
H911 C920 0.929 . S
C912 H906 0.930 . S
C912 C913 1.367 . S
C912 C920 1.378 . S
C913 C912 1.367 . S
C913 C921 1.433 . S
C914 H910 0.929 . S
C914 C916 1.378 . S
C914 C918 1.350 . S
C915 C918 1.463 . S
C915 C920 1.350 . S
C915 N923 1.427 . S
C916 H907 0.930 . S
C916 C914 1.378 . S
C916 C917 1.367 . S
C917 C916 1.367 . S
C917 C919 1.433 . S
C918 C914 1.350 . S
C918 C915 1.463 . S
C918 N922 1.427 . S
C919 H909 0.929 . S
C919 C917 1.433 . S
C919 N922 1.384 . S
C920 H911 0.929 . S
C920 C912 1.378 . S
C920 C915 1.350 . S
C921 H908 0.929 . S
C921 C913 1.433 . S
C921 N923 1.384 . S
N922 C918 1.427 . S
N922 C919 1.384 . S
N923 C915 1.427 . S
N923 C921 1.384 . S
H924 C930 0.930 . S
H925 C934 0.930 . S
H926 C939 0.929 . S
H927 C937 0.929 . S
H928 C932 0.929 . S
H929 C938 0.929 . S
C930 H924 0.930 . S
C930 C931 1.367 1_554 S
C930 C938 1.378 . S
C931 C930 1.367 1_556 S
C931 C939 1.433 . S
C932 H928 0.929 . S
C932 C934 1.378 . S
C932 C936 1.350 . S
C933 C936 1.463 . S
C933 C938 1.350 . S
C933 N941 1.427 . S
C934 H925 0.930 . S
C934 C932 1.378 . S
C934 C935 1.367 . S
C935 C934 1.367 . S
C935 C937 1.433 . S
C936 C932 1.350 . S
C936 C933 1.463 . S
C936 N940 1.427 . S
C937 H927 0.929 . S
C937 C935 1.433 . S
C937 N940 1.384 . S
C938 H929 0.929 . S
C938 C930 1.378 . S
C938 C933 1.350 . S
C939 H926 0.929 . S
C939 C931 1.433 . S
C939 N941 1.384 1_556 S
N940 C936 1.427 . S
N940 C937 1.384 . S
N941 C933 1.427 . S
N941 C939 1.384 1_554 S
H942 C948 0.930 . S
H943 C952 0.930 . S
H944 C957 0.929 . S
H945 C955 0.929 . S
H946 C950 0.929 . S
H947 C956 0.929 . S
C948 H942 0.930 . S
C948 C949 1.367 . S
C948 C956 1.378 . S
C949 C948 1.367 . S
C949 C957 1.433 . S
C950 H946 0.929 . S
C950 C952 1.378 . S
C950 C954 1.350 . S
C951 C954 1.463 . S
C951 C956 1.350 . S
C951 N959 1.427 . S
C952 H943 0.930 . S
C952 C950 1.378 . S
C952 C953 1.367 . S
C953 C952 1.367 . S
C953 C955 1.433 . S
C954 C950 1.350 . S
C954 C951 1.463 . S
C954 N958 1.427 . S
C955 H945 0.929 . S
C955 C953 1.433 . S
C955 N958 1.384 . S
C956 H947 0.929 . S
C956 C948 1.378 . S
C956 C951 1.350 . S
C957 H944 0.929 . S
C957 C949 1.433 . S
C957 N959 1.384 . S
N958 C954 1.427 . S
N958 C955 1.384 . S
N959 C951 1.427 . S
N959 C957 1.384 . S
H960 C966 0.930 . S
H961 C970 0.930 . S
H962 C975 0.929 1_455 S
H963 C973 0.929 . S
H964 C968 0.929 . S
H965 C974 0.929 . S
C966 H960 0.930 . S
C966 C967 1.367 . S
C966 C974 1.378 . S
C967 C966 1.367 . S
C967 C975 1.433 . S
C968 H964 0.929 . S
C968 C970 1.378 . S
C968 C972 1.350 . S
C969 C972 1.463 . S
C969 C974 1.350 . S
C969 N977 1.427 . S
C970 H961 0.930 . S
C970 C968 1.378 . S
C970 C971 1.367 . S
C971 C970 1.367 . S
C971 C973 1.433 . S
C972 C968 1.350 . S
C972 C969 1.463 . S
C972 N976 1.427 . S
C973 H963 0.929 . S
C973 C971 1.433 . S
C973 N976 1.384 . S
C974 H965 0.929 . S
C974 C966 1.378 . S
C974 C969 1.350 . S
C975 H962 0.929 1_655 S
C975 C967 1.433 . S
C975 N977 1.384 . S
N976 C972 1.427 . S
N976 C973 1.384 . S
N977 C969 1.427 . S
N977 C975 1.384 . S
H978 C984 0.930 . S
H979 C988 0.930 . S
H980 C993 0.929 . S
H981 C991 0.929 . S
H982 C986 0.929 . S
H983 C992 0.929 . S
C984 H978 0.930 . S
C984 C985 1.367 . S
C984 C992 1.378 . S
C985 C984 1.367 . S
C985 C993 1.433 . S
C986 H982 0.929 . S
C986 C988 1.378 . S
C986 C990 1.350 . S
C987 C990 1.463 . S
C987 C992 1.350 . S
C987 N995 1.427 . S
C988 H979 0.930 . S
C988 C986 1.378 . S
C988 C989 1.367 . S
C989 C988 1.367 . S
C989 C991 1.433 . S
C990 C986 1.350 . S
C990 C987 1.463 . S
C990 N994 1.427 . S
C991 H981 0.929 . S
C991 C989 1.433 . S
C991 N994 1.384 . S
C992 H983 0.929 . S
C992 C984 1.378 . S
C992 C987 1.350 . S
C993 H980 0.929 . S
C993 C985 1.433 . S
C993 N995 1.384 . S
N994 C990 1.427 . S
N994 C991 1.384 . S
N995 C987 1.427 . S
N995 C993 1.384 . S
H996 C1002 0.930 . S
H997 C1006 0.930 1_554 S
H998 C1011 0.929 . S
H999 C1009 0.929 . S
H1000 C1004 0.929 . S
H1001 C1010 0.929 . S
C1002 H996 0.930 . S
C1002 C1003 1.367 . S
C1002 C1010 1.378 . S
C1003 C1002 1.367 . S
C1003 C1011 1.433 . S
C1004 H1000 0.929 . S
C1004 C1006 1.378 . S
C1004 C1008 1.350 . S
C1005 C1008 1.463 . S
C1005 C1010 1.350 . S
C1005 N1013 1.427 . S
C1006 H997 0.930 1_556 S
C1006 C1004 1.378 . S
C1006 C1007 1.367 . S
C1007 C1006 1.367 . S
C1007 C1009 1.433 . S
C1008 C1004 1.350 . S
C1008 C1005 1.463 . S
C1008 N1012 1.427 . S
C1009 H999 0.929 . S
C1009 C1007 1.433 . S
C1009 N1012 1.384 . S
C1010 H1001 0.929 . S
C1010 C1002 1.378 . S
C1010 C1005 1.350 . S
C1011 H998 0.929 . S
C1011 C1003 1.433 . S
C1011 N1013 1.384 . S
N1012 C1008 1.427 . S
N1012 C1009 1.384 . S
N1013 C1005 1.427 . S
N1013 C1011 1.384 . S
H1014 C1020 0.930 . S
H1015 C1024 0.930 . S
H1016 C1029 0.929 . S
H1017 C1027 0.929 . S
H1018 C1022 0.929 . S
H1019 C1028 0.929 . S
C1020 H1014 0.930 . S
C1020 C1021 1.367 . S
C1020 C1028 1.378 . S
C1021 C1020 1.367 . S
C1021 C1029 1.433 . S
C1022 H1018 0.929 . S
C1022 C1024 1.378 . S
C1022 C1026 1.350 . S
C1023 C1026 1.463 . S
C1023 C1028 1.350 . S
C1023 N1031 1.427 . S
C1024 H1015 0.930 . S
C1024 C1022 1.378 . S
C1024 C1025 1.367 . S
C1025 C1024 1.367 . S
C1025 C1027 1.433 . S
C1026 C1022 1.350 . S
C1026 C1023 1.463 . S
C1026 N1030 1.427 . S
C1027 H1017 0.929 . S
C1027 C1025 1.433 . S
C1027 N1030 1.384 . S
C1028 H1019 0.929 . S
C1028 C1020 1.378 . S
C1028 C1023 1.350 . S
C1029 H1016 0.929 . S
C1029 C1021 1.433 . S
C1029 N1031 1.384 . S
N1030 C1026 1.427 . S
N1030 C1027 1.384 . S
N1031 C1023 1.427 . S
N1031 C1029 1.384 . S
H1032 C1038 0.930 . S
H1033 C1042 0.930 . S
H1034 C1047 0.929 . S
H1035 C1045 0.929 . S
H1036 C1040 0.929 . S
H1037 C1046 0.929 . S
C1038 H1032 0.930 . S
C1038 C1039 1.367 1_455 S
C1038 C1046 1.378 . S
C1039 C1038 1.367 1_655 S
C1039 C1047 1.433 . S
C1040 H1036 0.929 . S
C1040 C1042 1.378 . S
C1040 C1044 1.350 . S
C1041 C1044 1.463 . S
C1041 C1046 1.350 . S
C1041 N1049 1.427 . S
C1042 H1033 0.930 . S
C1042 C1040 1.378 . S
C1042 C1043 1.367 . S
C1043 C1042 1.367 . S
C1043 C1045 1.433 . S
C1044 C1040 1.350 . S
C1044 C1041 1.463 . S
C1044 N1048 1.427 . S
C1045 H1035 0.929 . S
C1045 C1043 1.433 . S
C1045 N1048 1.384 . S
C1046 H1037 0.929 . S
C1046 C1038 1.378 . S
C1046 C1041 1.350 . S
C1047 H1034 0.929 . S
C1047 C1039 1.433 . S
C1047 N1049 1.384 1_655 S
N1048 C1044 1.427 . S
N1048 C1045 1.384 . S
N1049 C1041 1.427 . S
N1049 C1047 1.384 1_455 S
H1050 C1056 0.930 . S
H1051 C1060 0.930 . S
H1052 C1065 0.929 . S
H1053 C1063 0.929 . S
H1054 C1058 0.929 . S
H1055 C1064 0.929 . S
C1056 H1050 0.930 . S
C1056 C1057 1.367 . S
C1056 C1064 1.378 . S
C1057 C1056 1.367 . S
C1057 C1065 1.433 . S
C1058 H1054 0.929 . S
C1058 C1060 1.378 . S
C1058 C1062 1.350 . S
C1059 C1062 1.463 . S
C1059 C1064 1.350 . S
C1059 N1067 1.427 . S
C1060 H1051 0.930 . S
C1060 C1058 1.378 . S
C1060 C1061 1.367 . S
C1061 C1060 1.367 . S
C1061 C1063 1.433 . S
C1062 C1058 1.350 . S
C1062 C1059 1.463 . S
C1062 N1066 1.427 . S
C1063 H1053 0.929 . S
C1063 C1061 1.433 . S
C1063 N1066 1.384 . S
C1064 H1055 0.929 . S
C1064 C1056 1.378 . S
C1064 C1059 1.350 . S
C1065 H1052 0.929 . S
C1065 C1057 1.433 . S
C1065 N1067 1.384 . S
N1066 C1062 1.427 . S
N1066 C1063 1.384 . S
N1067 C1059 1.427 . S
N1067 C1065 1.384 . S
H1068 C1074 0.930 . S
H1069 C1078 0.930 . S
H1070 C1083 0.929 . S
H1071 C1081 0.929 . S
H1072 C1076 0.929 . S
H1073 C1082 0.929 . S
C1074 H1068 0.930 . S
C1074 C1075 1.367 . S
C1074 C1082 1.378 . S
C1075 C1074 1.367 . S
C1075 C1083 1.433 . S
C1076 H1072 0.929 . S
C1076 C1078 1.378 . S
C1076 C1080 1.350 . S
C1077 C1080 1.463 . S
C1077 C1082 1.350 . S
C1077 N1085 1.427 . S
C1078 H1069 0.930 . S
C1078 C1076 1.378 . S
C1078 C1079 1.367 . S
C1079 C1078 1.367 . S
C1079 C1081 1.433 . S
C1080 C1076 1.350 . S
C1080 C1077 1.463 . S
C1080 N1084 1.427 . S
C1081 H1071 0.929 . S
C1081 C1079 1.433 . S
C1081 N1084 1.384 . S
C1082 H1073 0.929 . S
C1082 C1074 1.378 . S
C1082 C1077 1.350 . S
C1083 H1070 0.929 . S
C1083 C1075 1.433 . S
C1083 N1085 1.384 . S
N1084 C1080 1.427 . S
N1084 C1081 1.384 . S
N1085 C1077 1.427 . S
N1085 C1083 1.384 . S
H1086 C1092 0.930 . S
H1087 C1096 0.930 . S
H1088 C1101 0.929 . S
H1089 C1099 0.929 . S
H1090 C1094 0.929 . S
H1091 C1100 0.929 . S
C1092 H1086 0.930 . S
C1092 C1093 1.367 . S
C1092 C1100 1.378 . S
C1093 C1092 1.367 . S
C1093 C1101 1.433 . S
C1094 H1090 0.929 . S
C1094 C1096 1.378 . S
C1094 C1098 1.350 . S
C1095 C1098 1.463 . S
C1095 C1100 1.350 . S
C1095 N1103 1.427 . S
C1096 H1087 0.930 . S
C1096 C1094 1.378 . S
C1096 C1097 1.367 . S
C1097 C1096 1.367 . S
C1097 C1099 1.433 . S
C1098 C1094 1.350 . S
C1098 C1095 1.463 . S
C1098 N1102 1.427 . S
C1099 H1089 0.929 . S
C1099 C1097 1.433 . S
C1099 N1102 1.384 . S
C1100 H1091 0.929 . S
C1100 C1092 1.378 . S
C1100 C1095 1.350 . S
C1101 H1088 0.929 . S
C1101 C1093 1.433 . S
C1101 N1103 1.384 . S
N1102 C1098 1.427 . S
N1102 C1099 1.384 . S
N1103 C1095 1.427 . S
N1103 C1101 1.384 . S
H1104 C1110 0.930 . S
H1105 C1114 0.930 . S
H1106 C1119 0.929 . S
H1107 C1117 0.929 . S
H1108 C1112 0.929 . S
H1109 C1118 0.929 . S
C1110 H1104 0.930 . S
C1110 C1111 1.367 1_455 S
C1110 C1118 1.378 . S
C1111 C1110 1.367 1_655 S
C1111 C1119 1.433 . S
C1112 H1108 0.929 . S
C1112 C1114 1.378 . S
C1112 C1116 1.350 . S
C1113 C1116 1.463 . S
C1113 C1118 1.350 . S
C1113 N1121 1.427 . S
C1114 H1105 0.930 . S
C1114 C1112 1.378 . S
C1114 C1115 1.367 . S
C1115 C1114 1.367 . S
C1115 C1117 1.433 . S
C1116 C1112 1.350 . S
C1116 C1113 1.463 . S
C1116 N1120 1.427 . S
C1117 H1107 0.929 . S
C1117 C1115 1.433 . S
C1117 N1120 1.384 . S
C1118 H1109 0.929 . S
C1118 C1110 1.378 . S
C1118 C1113 1.350 . S
C1119 H1106 0.929 . S
C1119 C1111 1.433 . S
C1119 N1121 1.384 1_655 S
N1120 C1116 1.427 . S
N1120 C1117 1.384 . S
N1121 C1113 1.427 . S
N1121 C1119 1.384 1_455 S
H1122 C1128 0.930 . S
H1123 C1132 0.930 . S
H1124 C1137 0.929 . S
H1125 C1135 0.929 . S
H1126 C1130 0.929 . S
H1127 C1136 0.929 . S
C1128 H1122 0.930 . S
C1128 C1129 1.367 . S
C1128 C1136 1.378 . S
C1129 C1128 1.367 . S
C1129 C1137 1.433 . S
C1130 H1126 0.929 . S
C1130 C1132 1.378 . S
C1130 C1134 1.350 . S
C1131 C1134 1.463 . S
C1131 C1136 1.350 . S
C1131 N1139 1.427 . S
C1132 H1123 0.930 . S
C1132 C1130 1.378 . S
C1132 C1133 1.367 . S
C1133 C1132 1.367 . S
C1133 C1135 1.433 . S
C1134 C1130 1.350 . S
C1134 C1131 1.463 . S
C1134 N1138 1.427 . S
C1135 H1125 0.929 . S
C1135 C1133 1.433 . S
C1135 N1138 1.384 . S
C1136 H1127 0.929 . S
C1136 C1128 1.378 . S
C1136 C1131 1.350 . S
C1137 H1124 0.929 . S
C1137 C1129 1.433 . S
C1137 N1139 1.384 . S
N1138 C1134 1.427 . S
N1138 C1135 1.384 . S
N1139 C1131 1.427 . S
N1139 C1137 1.384 . S
H1140 C1146 0.930 . S
H1141 C1150 0.930 . S
H1142 C1155 0.929 . S
H1143 C1153 0.929 . S
H1144 C1148 0.929 . S
H1145 C1154 0.929 . S
C1146 H1140 0.930 . S
C1146 C1147 1.367 . S
C1146 C1154 1.378 . S
C1147 C1146 1.367 . S
C1147 C1155 1.433 . S
C1148 H1144 0.929 . S
C1148 C1150 1.378 . S
C1148 C1152 1.350 . S
C1149 C1152 1.463 . S
C1149 C1154 1.350 . S
C1149 N1157 1.427 . S
C1150 H1141 0.930 . S
C1150 C1148 1.378 . S
C1150 C1151 1.367 . S
C1151 C1150 1.367 . S
C1151 C1153 1.433 . S
C1152 C1148 1.350 . S
C1152 C1149 1.463 . S
C1152 N1156 1.427 . S
C1153 H1143 0.929 . S
C1153 C1151 1.433 . S
C1153 N1156 1.384 . S
C1154 H1145 0.929 . S
C1154 C1146 1.378 . S
C1154 C1149 1.350 . S
C1155 H1142 0.929 . S
C1155 C1147 1.433 . S
C1155 N1157 1.384 . S
N1156 C1152 1.427 . S
N1156 C1153 1.384 . S
N1157 C1149 1.427 . S
N1157 C1155 1.384 . S
H1158 C1164 0.930 . S
H1159 C1168 0.930 . S
H1160 C1173 0.929 . S
H1161 C1171 0.929 . S
H1162 C1166 0.929 . S
H1163 C1172 0.929 . S
C1164 H1158 0.930 . S
C1164 C1165 1.367 1_545 S
C1164 C1172 1.378 . S
C1165 C1164 1.367 1_565 S
C1165 C1173 1.433 . S
C1166 H1162 0.929 . S
C1166 C1168 1.378 . S
C1166 C1170 1.350 . S
C1167 C1170 1.463 . S
C1167 C1172 1.350 . S
C1167 N1175 1.427 . S
C1168 H1159 0.930 . S
C1168 C1166 1.378 . S
C1168 C1169 1.367 . S
C1169 C1168 1.367 . S
C1169 C1171 1.433 . S
C1170 C1166 1.350 . S
C1170 C1167 1.463 . S
C1170 N1174 1.427 . S
C1171 H1161 0.929 . S
C1171 C1169 1.433 . S
C1171 N1174 1.384 . S
C1172 H1163 0.929 . S
C1172 C1164 1.378 . S
C1172 C1167 1.350 . S
C1173 H1160 0.929 . S
C1173 C1165 1.433 . S
C1173 N1175 1.384 1_565 S
N1174 C1170 1.427 . S
N1174 C1171 1.384 . S
N1175 C1167 1.427 . S
N1175 C1173 1.384 1_545 S
H1176 C1182 0.930 . S
H1177 C1186 0.930 . S
H1178 C1191 0.929 . S
H1179 C1189 0.929 . S
H1180 C1184 0.929 . S
H1181 C1190 0.929 . S
C1182 H1176 0.930 . S
C1182 C1183 1.367 . S
C1182 C1190 1.378 . S
C1183 C1182 1.367 . S
C1183 C1191 1.433 . S
C1184 H1180 0.929 . S
C1184 C1186 1.378 . S
C1184 C1188 1.350 . S
C1185 C1188 1.463 . S
C1185 C1190 1.350 . S
C1185 N1193 1.427 . S
C1186 H1177 0.930 . S
C1186 C1184 1.378 . S
C1186 C1187 1.367 . S
C1187 C1186 1.367 . S
C1187 C1189 1.433 . S
C1188 C1184 1.350 . S
C1188 C1185 1.463 . S
C1188 N1192 1.427 . S
C1189 H1179 0.929 . S
C1189 C1187 1.433 . S
C1189 N1192 1.384 . S
C1190 H1181 0.929 . S
C1190 C1182 1.378 . S
C1190 C1185 1.350 . S
C1191 H1178 0.929 . S
C1191 C1183 1.433 . S
C1191 N1193 1.384 . S
N1192 C1188 1.427 . S
N1192 C1189 1.384 . S
N1193 C1185 1.427 . S
N1193 C1191 1.384 . S
H1194 C1200 0.930 . S
H1195 C1204 0.930 . S
H1196 C1209 0.929 1_554 S
H1197 C1207 0.929 . S
H1198 C1202 0.929 . S
H1199 C1208 0.929 1_565 S
C1200 H1194 0.930 . S
C1200 C1201 1.367 . S
C1200 C1208 1.378 . S
C1201 C1200 1.367 . S
C1201 C1209 1.433 . S
C1202 H1198 0.929 . S
C1202 C1204 1.378 . S
C1202 C1206 1.350 . S
C1203 C1206 1.463 . S
C1203 C1208 1.350 1_565 S
C1203 N1211 1.427 . S
C1204 H1195 0.930 . S
C1204 C1202 1.378 . S
C1204 C1205 1.367 . S
C1205 C1204 1.367 . S
C1205 C1207 1.433 . S
C1206 C1202 1.350 . S
C1206 C1203 1.463 . S
C1206 N1210 1.427 . S
C1207 H1197 0.929 . S
C1207 C1205 1.433 . S
C1207 N1210 1.384 . S
C1208 H1199 0.929 1_545 S
C1208 C1200 1.378 . S
C1208 C1203 1.350 1_545 S
C1209 H1196 0.929 1_556 S
C1209 C1201 1.433 . S
C1209 N1211 1.384 1_545 S
N1210 C1206 1.427 . S
N1210 C1207 1.384 . S
N1211 C1203 1.427 . S
N1211 C1209 1.384 1_565 S
H1212 C1218 0.930 . S
H1213 C1222 0.930 . S
H1214 C1227 0.929 . S
H1215 C1225 0.929 . S
H1216 C1220 0.929 . S
H1217 C1226 0.929 . S
C1218 H1212 0.930 . S
C1218 C1219 1.367 . S
C1218 C1226 1.378 . S
C1219 C1218 1.367 . S
C1219 C1227 1.433 . S
C1220 H1216 0.929 . S
C1220 C1222 1.378 . S
C1220 C1224 1.350 . S
C1221 C1224 1.463 . S
C1221 C1226 1.350 . S
C1221 N1229 1.427 . S
C1222 H1213 0.930 . S
C1222 C1220 1.378 . S
C1222 C1223 1.367 . S
C1223 C1222 1.367 . S
C1223 C1225 1.433 . S
C1224 C1220 1.350 . S
C1224 C1221 1.463 . S
C1224 N1228 1.427 . S
C1225 H1215 0.929 . S
C1225 C1223 1.433 . S
C1225 N1228 1.384 . S
C1226 H1217 0.929 . S
C1226 C1218 1.378 . S
C1226 C1221 1.350 . S
C1227 H1214 0.929 . S
C1227 C1219 1.433 . S
C1227 N1229 1.384 . S
N1228 C1224 1.427 . S
N1228 C1225 1.384 . S
N1229 C1221 1.427 . S
N1229 C1227 1.384 . S
H1230 C1236 0.930 . S
H1231 C1240 0.930 . S
H1232 C1245 0.931 1_556 S
H1233 C1243 0.929 . S
H1234 C1238 0.929 . S
H1235 C1244 0.929 . S
C1236 H1230 0.930 . S
C1236 C1237 1.367 . S
C1236 C1244 1.378 . S
C1237 C1236 1.367 . S
C1237 C1245 1.433 . S
C1238 H1234 0.929 . S
C1238 C1240 1.378 . S
C1238 C1242 1.350 . S
C1239 C1242 1.463 . S
C1239 C1244 1.350 . S
C1239 N1247 1.427 . S
C1240 H1231 0.930 . S
C1240 C1238 1.378 . S
C1240 C1241 1.367 . S
C1241 C1240 1.367 . S
C1241 C1243 1.433 . S
C1242 C1238 1.350 . S
C1242 C1239 1.463 . S
C1242 N1246 1.427 . S
C1243 H1233 0.929 . S
C1243 C1241 1.433 . S
C1243 N1246 1.384 . S
C1244 H1235 0.929 . S
C1244 C1236 1.378 . S
C1244 C1239 1.350 . S
C1245 H1232 0.931 1_554 S
C1245 C1237 1.433 . S
C1245 N1247 1.384 . S
N1246 C1242 1.427 . S
N1246 C1243 1.384 . S
N1247 C1239 1.427 . S
N1247 C1245 1.384 . S
H1248 C1254 0.930 . S
H1249 C1258 0.930 . S
H1250 C1263 0.929 . S
H1251 C1261 0.929 . S
H1252 C1256 0.929 . S
H1253 C1262 0.929 . S
C1254 H1248 0.930 . S
C1254 C1255 1.367 . S
C1254 C1262 1.378 . S
C1255 C1254 1.367 . S
C1255 C1263 1.433 . S
C1256 H1252 0.929 . S
C1256 C1258 1.378 . S
C1256 C1260 1.350 . S
C1257 C1260 1.463 . S
C1257 C1262 1.350 . S
C1257 N1265 1.427 . S
C1258 H1249 0.930 . S
C1258 C1256 1.378 . S
C1258 C1259 1.367 . S
C1259 C1258 1.367 . S
C1259 C1261 1.433 . S
C1260 C1256 1.350 . S
C1260 C1257 1.463 . S
C1260 N1264 1.427 . S
C1261 H1251 0.929 . S
C1261 C1259 1.433 . S
C1261 N1264 1.384 . S
C1262 H1253 0.929 . S
C1262 C1254 1.378 . S
C1262 C1257 1.350 . S
C1263 H1250 0.929 . S
C1263 C1255 1.433 . S
C1263 N1265 1.384 . S
N1264 C1260 1.427 . S
N1264 C1261 1.384 . S
N1265 C1257 1.427 . S
N1265 C1263 1.384 . S
H1266 C1272 0.930 . S
H1267 C1276 0.930 . S
H1268 C1281 0.929 . S
H1269 C1279 0.929 . S
H1270 C1274 0.929 . S
H1271 C1280 0.929 . S
C1272 H1266 0.930 . S
C1272 C1273 1.367 . S
C1272 C1280 1.378 . S
C1273 C1272 1.367 . S
C1273 C1281 1.433 . S
C1274 H1270 0.929 . S
C1274 C1276 1.378 . S
C1274 C1278 1.350 . S
C1275 C1278 1.463 . S
C1275 C1280 1.350 . S
C1275 N1283 1.427 . S
C1276 H1267 0.930 . S
C1276 C1274 1.378 . S
C1276 C1277 1.367 . S
C1277 C1276 1.367 . S
C1277 C1279 1.433 . S
C1278 C1274 1.350 . S
C1278 C1275 1.463 . S
C1278 N1282 1.427 . S
C1279 H1269 0.929 . S
C1279 C1277 1.433 . S
C1279 N1282 1.384 . S
C1280 H1271 0.929 . S
C1280 C1272 1.378 . S
C1280 C1275 1.350 . S
C1281 H1268 0.929 . S
C1281 C1273 1.433 . S
C1281 N1283 1.384 . S
N1282 C1278 1.427 . S
N1282 C1279 1.384 . S
N1283 C1275 1.427 . S
N1283 C1281 1.384 . S
C431 C416 1.246 . S
C427 C8 1.327 . S
C445 C23 1.215 . S
C449 C345 1.026 . S
C463 C35 1.355 . S
C467 C374 1.280 . S
C485 C387 0.989 . S
C481 C45 1.189 . S
C499 C22 1.345 . S
C503 C408 1.199 . S
C521 C353 1.051 . S
C517 C31 1.137 . S
C539 C366 1.197 . S
C535 C49 1.361 . S
C557 C395 1.051 . S
C553 C9 1.168 . S
C571 C65 1.301 . S
C575 C397 1.241 . S
C593 C411 1.045 . S
C589 C73 1.192 . S
C611 C355 1.278 . S
C607 C93 1.323 1_565 S
C629 C369 0.993 . S
C625 C101 1.152 . S
C643 C59 1.291 . S
C647 C348 1.229 . S
C661 C79 1.178 . S
C665 C376 1.043 . S
C679 C87 1.287 . S
C683 C390 1.204 . S
C701 C418 1.124 . S
C697 C107 1.255 . S
C719 C227 1.336 . S
C715 C106 1.401 . S
C737 C208 1.196 . S
C733 C119 1.309 . S
C755 C222 1.110 . S
C751 C134 1.219 . S
C773 C243 1.185 . S
C769 C147 1.294 . S
C787 C64 1.213 . S
C791 C229 1.054 . S
C805 C78 1.349 . S
C809 C180 1.286 . S
C823 C133 1.242 . S
C827 C240 0.990 . S
C841 C161 1.208 . S
C845 C206 1.045 . S
C863 C269 1.249 . S
C859 C36 1.320 . S
C881 C282 1.005 . S
C877 C51 1.202 . S
C895 C7 1.352 . S
C899 C311 1.257 . S
C913 C17 1.184 . S
C917 C324 0.974 . S
C935 C261 1.174 . S
C931 C50 1.334 . S
C953 C290 1.053 . S
C949 C3 1.136 . S
C967 C21 1.369 . S
C971 C303 1.204 . S
C989 C332 1.090 . S
C985 C37 1.153 . S
C1003 C163 1.293 . S
C1007 C334 1.243 . S
C1021 C115 1.174 . S
C1025 C264 1.043 . S
C1043 C292 1.263 . S
C1039 C135 1.331 . S
C1057 C143 1.138 . S
C1061 C306 0.993 . S
C1079 C285 1.231 . S
C1075 C157 1.300 . S
C1093 C121 1.173 . S
C1097 C313 1.014 . S
C1115 C327 1.225 . S
C1111 C129 1.293 . S
C1133 C271 1.111 . S
C1129 C149 1.240 . S
C1151 C187 1.277 . S
C1147 C148 1.388 . S
C1169 C250 1.202 . S
C1165 C77 1.341 . S
C1183 C92 1.241 . S
C1187 C177 1.022 . S
C1205 C201 1.234 . S
C1201 C105 1.323 . S
C1223 C185 1.098 . S
C1219 C162 1.198 . S
C1237 C120 1.351 . S
C1241 C219 1.222 . S
C1255 C91 1.211 . S
C1259 C198 0.972 . S
C1273 C63 1.174 . S
C1277 C248 0.989 . S
