# Generated by pormake.
# Topology tsx, (6,3)-cn, num edge types: 1
# Building blocks:
#     Node 0, Type 0, BuildingBlock: MIDCAF_clean_sbu_0, # of connection points: 6
#     Node 1, Type 0, BuildingBlock: MIDCAF_clean_sbu_0, # of connection points: 6
#     Node 2, Type 1, BuildingBlock: CUQRIR_clean_linker_1, # of connection points: 3
#     Node 3, Type 1, BuildingBlock: CUQRIR_clean_linker_1, # of connection points: 3
#     Node 4, Type 1, BuildingBlock: CUQRIR_clean_linker_1, # of connection points: 3
#     Node 5, Type 1, BuildingBlock: CUQRIR_clean_linker_1, # of connection points: 3
#     Edge 6, Type (0, 1), BuildingBlock: FUNLAD_clean_linker_1, # of connection points: 2
#     Edge 7, Type (0, 1), BuildingBlock: FUNLAD_clean_linker_1, # of connection points: 2
#     Edge 8, Type (0, 1), BuildingBlock: FUNLAD_clean_linker_1, # of connection points: 2
#     Edge 9, Type (0, 1), BuildingBlock: FUNLAD_clean_linker_1, # of connection points: 2
#     Edge 10, Type (0, 1), BuildingBlock: FUNLAD_clean_linker_1, # of connection points: 2
#     Edge 11, Type (0, 1), BuildingBlock: FUNLAD_clean_linker_1, # of connection points: 2
#     Edge 12, Type (0, 1), BuildingBlock: FUNLAD_clean_linker_1, # of connection points: 2
#     Edge 13, Type (0, 1), BuildingBlock: FUNLAD_clean_linker_1, # of connection points: 2
#     Edge 14, Type (0, 1), BuildingBlock: FUNLAD_clean_linker_1, # of connection points: 2
#     Edge 15, Type (0, 1), BuildingBlock: FUNLAD_clean_linker_1, # of connection points: 2
#     Edge 16, Type (0, 1), BuildingBlock: FUNLAD_clean_linker_1, # of connection points: 2
#     Edge 17, Type (0, 1), BuildingBlock: FUNLAD_clean_linker_1, # of connection points: 2
# Relax obj value: 0.118
# Max RMSD: 0.170
# Mean RMSD: 0.151
data_MOF--net-tsx--node1-MIDCAF_clean_sbu_0--node2-CUQRIR_clean_linker_1--edge1-FUNLAD_clean_linker_1
_symmetry_space_group_name_H-M    P1
_symmetry_Int_Tables_number       1
_symmetry_cell_setting            triclinic
loop_
_symmetry_equiv_pos_as_xyz
'x, y, z'
_cell_length_a     18.930257
_cell_length_b     20.036549
_cell_length_c     35.072566
_cell_angle_alpha  79.72746
_cell_angle_beta   94.772917
_cell_angle_gamma 89.847013
loop_
_atom_site_label
_atom_site_type_symbol
_atom_site_fract_x
_atom_site_fract_y
_atom_site_fract_z
_atom_type_partial_charge
Zn0 Zn 0.96015 0.99325 0.9606 0.0
Zn1 Zn 0.19756 0.99961 0.04343 0.0
Zn2 Zn 0.07655 0.00306 0.00394 0.0
C3 C 0.15059 0.13629 0.02368 0.0
C4 C 0.23126 0.94195 0.98441 0.0
O5 O 1.00734 0.9277 0.03729 0.0
O6 O 0.91861 0.91648 0.99393 0.0
C7 C 0.96488 0.12734 0.97301 0.0
O8 O 0.09463 0.11012 0.00937 0.0
O9 O 0.2027 0.09864 0.03902 0.0
O10 O 0.26321 0.95691 0.01457 0.0
O11 O 0.16446 0.95658 0.97616 0.0
O12 O 0.92312 0.08515 0.96092 0.0
O13 O 0.02757 0.10773 0.98833 0.0
O14 O 0.10478 0.97225 0.95016 0.0
O15 O 1.00366 0.97812 0.91319 0.0
C16 C 0.07012 0.96929 0.91735 0.0
O17 O 0.06246 0.94607 0.06301 0.0
O18 O 0.16952 0.94813 0.09303 0.0
C19 C 0.94951 0.89875 0.02755 0.0
C20 C 0.10511 0.93231 0.09409 0.0
Zn21 Zn 0.68886 0.49584 0.54989 0.0
Zn22 Zn 0.44893 0.48379 0.47288 0.0
Zn23 Zn 0.56075 0.49477 0.51385 0.0
C24 C 0.55245 0.47715 0.42482 0.0
C25 C 0.44297 0.61048 0.49302 0.0
O26 O 0.55259 0.43511 0.57228 0.0
O27 O 0.66077 0.44455 0.59993 0.0
C28 C 0.71057 0.43109 0.49083 0.0
O29 O 0.58653 0.46744 0.45868 0.0
O30 O 0.48723 0.49247 0.42122 0.0
O31 O 0.40105 0.56487 0.48545 0.0
O32 O 0.50975 0.59693 0.50074 0.0
O33 O 0.74719 0.44736 0.51935 0.0
O34 O 0.64394 0.44718 0.4848 0.0
O35 O 0.57925 0.6023 0.51765 0.0
O36 O 0.69136 0.59628 0.54159 0.0
C37 C 0.63637 0.63141 0.52806 0.0
O38 O 0.49205 0.42083 0.54828 0.0
O39 O 0.42284 0.39313 0.49994 0.0
C40 C 0.59832 0.42318 0.60209 0.0
C41 C 0.44463 0.38228 0.53555 0.0
C42 C 0.12383 0.07498 0.42079 0.0
N43 N 0.15027 0.03587 0.39742 0.0
N44 N 0.06297 0.10678 0.40363 0.0
C45 C 0.16142 0.08691 0.45848 0.0
C46 C 0.05471 0.08717 0.36844 0.0
N47 N 0.10735 0.04302 0.36496 0.0
C48 C 1.00338 0.1209 0.33542 0.0
H49 H 0.16566 0.03884 0.47973 0.0
H50 H 0.13397 0.12517 0.47142 0.0
H51 H 0.21625 0.1036 0.45345 0.0
H52 H 0.99458 0.17476 0.33749 0.0
H53 H 0.95198 0.09451 0.33685 0.0
H54 H 0.023 0.11992 0.30674 0.0
C55 C 0.03714 0.98943 0.57494 0.0
N56 N 0.0777 0.01134 0.60372 0.0
N57 N 0.97277 0.97044 0.58673 0.0
C58 C 0.05805 0.99286 0.53429 0.0
C59 C 0.97636 0.97927 0.62421 0.0
N60 N 0.04002 0.00428 0.63449 0.0
C61 C 0.92038 0.95748 0.65174 0.0
H62 H 0.07018 0.04617 0.52223 0.0
H63 H 1.01558 0.97496 0.51501 0.0
H64 H 0.107 0.9619 0.53504 0.0
H65 H 0.89037 0.91402 0.64348 0.0
H66 H 0.88276 0.00052 0.65052 0.0
H67 H 0.94395 0.94269 0.68213 0.0
C68 C 0.54105 0.52593 0.90894 0.0
N69 N 0.56062 0.47518 0.89061 0.0
N70 N 0.47381 0.54786 0.89608 0.0
C71 C 0.58392 0.54932 0.94191 0.0
C72 C 0.45294 0.5085 0.86996 0.0
N73 N 0.50514 0.46457 0.86671 0.0
C74 C 0.38183 0.51397 0.84682 0.0
H75 H 0.60886 0.50526 0.96225 0.0
H76 H 0.55098 0.57831 0.95808 0.0
H77 H 0.62619 0.58308 0.93007 0.0
H78 H 0.38798 0.50919 0.81624 0.0
H79 H 0.35435 0.56278 0.84721 0.0
H80 H 0.34839 0.47166 0.85944 0.0
C81 C 0.53912 0.52131 0.08173 0.0
N82 N 0.57476 0.54755 0.11066 0.0
N83 N 0.47819 0.49249 0.0937 0.0
C84 C 0.56118 0.52764 0.04117 0.0
C85 C 0.47849 0.50115 0.13108 0.0
N86 N 0.5366 0.53508 0.14112 0.0
C87 C 0.42562 0.47105 0.15881 0.0
H88 H 0.57807 0.58022 0.03063 0.0
H89 H 0.51751 0.51413 0.02099 0.0
H90 H 0.60708 0.49301 0.04136 0.0
H91 H 0.4038 0.42354 0.15092 0.0
H92 H 0.38134 0.50803 0.15739 0.0
H93 H 0.45 0.45986 0.18919 0.0
H94 H 0.10995 0.24327 0.01364 0.0
C95 C 0.15609 0.2102 0.02283 0.0
H96 H 0.26505 0.20241 0.04238 0.0
H97 H 0.37628 0.48763 0.99667 0.0
H98 H 0.3883 0.45123 0.93507 0.0
H99 H 0.32645 0.35071 0.91877 0.0
H100 H 0.25239 0.28464 0.96472 0.0
C101 C 0.21861 0.23551 0.0343 0.0
C102 C 0.23103 0.30747 0.03712 0.0
C103 C 0.27219 0.34648 0.00979 0.0
C104 C 0.30875 0.40392 0.01933 0.0
C105 C 0.34945 0.44208 0.9914 0.0
C106 C 0.35601 0.42235 0.95573 0.0
C107 C 0.32127 0.36551 0.94664 0.0
C108 C 0.27946 0.3279 0.97324 0.0
H109 H 0.44784 0.41545 0.05912 0.0
C110 C 0.42802 0.4555 0.0728 0.0
H111 H 0.33924 0.50897 0.08458 0.0
H112 H 0.14572 0.25049 0.09265 0.0
H113 H 0.13073 0.28739 0.15384 0.0
H114 H 0.19355 0.38729 0.17069 0.0
H115 H 0.27188 0.45036 0.12684 0.0
C116 C 0.3578 0.46792 0.07134 0.0
C117 C 0.30523 0.42106 0.05665 0.0
C118 C 0.25638 0.38738 0.08188 0.0
C119 C 0.21959 0.33007 0.07212 0.0
C120 C 0.17465 0.2944 0.09873 0.0
C121 C 0.16548 0.31513 0.13386 0.0
C122 C 0.20088 0.37136 0.14335 0.0
C123 C 0.24597 0.40711 0.11786 0.0
H124 H 0.32939 0.90894 0.96389 0.0
C125 C 0.27202 0.9043 0.9609 0.0
H126 H 0.18791 0.84481 0.94289 0.0
H127 H 0.42401 0.73115 0.84224 0.0
H128 H 0.37271 0.81995 0.79103 0.0
H129 H 0.28584 0.90242 0.80502 0.0
H130 H 0.24846 0.89538 0.87019 0.0
C131 C 0.24444 0.85434 0.94382 0.0
C132 C 0.2931 0.80221 0.93431 0.0
C133 C 0.31511 0.80733 0.8963 0.0
C134 C 0.36627 0.76051 0.88845 0.0
C135 C 0.38605 0.76588 0.84996 0.0
C136 C 0.35699 0.81657 0.82028 0.0
C137 C 0.30799 0.86295 0.82815 0.0
C138 C 0.28708 0.85854 0.86566 0.0
H139 H 0.3757 0.57984 0.91637 0.0
C140 C 0.42919 0.59493 0.90995 0.0
H141 H 0.4988 0.67676 0.90029 0.0
H142 H 0.25827 0.77466 0.00975 0.0
H143 H 0.3121 0.68827 0.06146 0.0
H144 H 0.40661 0.61224 0.04883 0.0
H145 H 0.44614 0.62036 0.98427 0.0
C146 C 0.44802 0.65924 0.91013 0.0
C147 C 0.39603 0.70922 0.9188 0.0
C148 C 0.37412 0.70419 0.95689 0.0
C149 C 0.32158 0.74983 0.96445 0.0
C150 C 0.29924 0.74242 0.00254 0.0
C151 C 0.32949 0.69289 0.03248 0.0
C152 C 0.38243 0.6498 0.02534 0.0
C153 C 0.40454 0.65497 0.98807 0.0
H154 H 0.95685 0.81071 0.07639 0.0
C155 C 0.92126 0.84059 0.05379 0.0
H156 H 0.81998 0.85106 0.02353 0.0
H157 H 0.71591 0.56421 0.02502 0.0
H158 H 0.75067 0.59373 0.95939 0.0
H159 H 0.82243 0.69453 0.94001 0.0
H160 H 0.85972 0.76678 0.98624 0.0
C161 C 0.85429 0.82058 0.04658 0.0
C162 C 0.82773 0.75191 0.06193 0.0
C163 C 0.80836 0.70854 0.03503 0.0
C164 C 0.76805 0.64963 0.04645 0.0
C165 C 0.74706 0.60917 0.01831 0.0
C166 C 0.76665 0.62548 0.9804 0.0
C167 C 0.80703 0.68229 0.96946 0.0
C168 C 0.82774 0.72351 0.99627 0.0
H169 H 0.62294 0.64497 0.11414 0.0
C170 C 0.63172 0.59519 0.10697 0.0
H171 H 0.70274 0.52972 0.0883 0.0
H172 H 0.86207 0.82011 0.12185 0.0
H173 H 0.83994 0.78338 0.18948 0.0
H174 H 0.77908 0.67596 0.21044 0.0
H175 H 0.73847 0.6055 0.16356 0.0
C176 C 0.69416 0.58 0.09472 0.0
C177 C 0.74796 0.63359 0.08505 0.0
C178 C 0.7749 0.67241 0.11308 0.0
C179 C 0.81326 0.73265 0.10132 0.0
C180 C 0.83482 0.77288 0.12938 0.0
C181 C 0.82226 0.75245 0.1683 0.0
C182 C 0.78777 0.69208 0.18008 0.0
C183 C 0.76417 0.65241 0.1529 0.0
H184 H 0.97873 0.23871 0.97072 0.0
C185 C 0.94051 0.1993 0.96761 0.0
H186 H 0.83427 0.17532 0.95325 0.0
H187 H 0.73144 0.46965 0.97838 0.0
H188 H 0.78599 0.44269 0.04449 0.0
H189 H 0.86652 0.34337 0.06494 0.0
H190 H 0.89319 0.27068 0.01932 0.0
C191 C 0.87151 0.21547 0.95667 0.0
C192 C 0.84196 0.28553 0.94302 0.0
C193 C 0.82812 0.3282 0.96983 0.0
C194 C 0.78115 0.38535 0.95805 0.0
C195 C 0.76658 0.42588 0.98572 0.0
C196 C 0.79755 0.4109 0.02377 0.0
C197 C 0.8429 0.35497 0.03528 0.0
C198 C 0.85784 0.31367 0.00881 0.0
H199 H 0.61393 0.37682 0.89753 0.0
C200 C 0.62167 0.42974 0.89987 0.0
H201 H 0.69809 0.50247 0.91089 0.0
H202 H 0.86653 0.22099 0.88291 0.0
H203 H 0.81686 0.25175 0.81587 0.0
H204 H 0.73822 0.35243 0.79523 0.0
H205 H 0.70884 0.42267 0.84159 0.0
C206 C 0.68768 0.4498 0.90951 0.0
C207 C 0.74765 0.39916 0.91966 0.0
C208 C 0.76773 0.36081 0.89189 0.0
C209 C 0.81414 0.3036 0.90367 0.0
C210 C 0.83106 0.26471 0.87555 0.0
C211 C 0.80332 0.28205 0.83695 0.0
C212 C 0.75903 0.33868 0.82533 0.0
C213 C 0.74182 0.37808 0.85229 0.0
H214 H 0.59075 0.7364 0.51864 0.0
C215 C 0.63929 0.70601 0.52474 0.0
H216 H 0.75073 0.70494 0.5348 0.0
H217 H 0.86068 0.98459 0.48833 0.0
H218 H 0.86622 0.94892 0.42568 0.0
H219 H 0.8009 0.84865 0.41102 0.0
H220 H 0.72885 0.78397 0.45877 0.0
C221 C 0.70219 0.73544 0.53047 0.0
C222 C 0.71242 0.80855 0.53135 0.0
C223 C 0.75293 0.84625 0.50314 0.0
C224 C 0.7915 0.90307 0.51183 0.0
C225 C 0.83193 0.93989 0.48327 0.0
C226 C 0.8351 0.9202 0.44727 0.0
C227 C 0.79827 0.86375 0.43901 0.0
C228 C 0.75758 0.82692 0.46658 0.0
H229 H 0.93007 0.8983 0.55171 0.0
C230 C 0.91674 0.94047 0.56561 0.0
H231 H 0.83638 0.00432 0.57762 0.0
H232 H 0.62395 0.75856 0.58716 0.0
H233 H 0.60973 0.80073 0.6468 0.0
H234 H 0.67689 0.8994 0.66206 0.0
H235 H 0.75861 0.95632 0.61782 0.0
C236 C 0.84886 0.96158 0.56408 0.0
C237 C 0.79052 0.92082 0.54909 0.0
C238 C 0.74029 0.89068 0.57445 0.0
C239 C 0.70125 0.83396 0.56559 0.0
C240 C 0.65474 0.80179 0.59243 0.0
C241 C 0.64599 0.82561 0.62674 0.0
C242 C 0.68382 0.88117 0.63533 0.0
C243 C 0.73078 0.91329 0.60971 0.0
H244 H 0.7072 0.36193 0.44827 0.0
C245 C 0.74238 0.38822 0.46651 0.0
H246 H 0.84744 0.40107 0.4886 0.0
H247 H 0.9603 0.10933 0.48656 0.0
H248 H 0.95901 0.1093 0.55577 0.0
H249 H 0.90551 0.20432 0.57947 0.0
H250 H 0.85175 0.30005 0.53437 0.0
C251 C 0.81259 0.3757 0.46971 0.0
C252 C 0.84336 0.31828 0.4546 0.0
C253 C 0.87572 0.26313 0.48151 0.0
C254 C 0.90777 0.20865 0.4679 0.0
C255 C 0.93729 0.15304 0.49537 0.0
C256 C 0.93633 0.15194 0.53513 0.0
C257 C 0.90611 0.20556 0.54851 0.0
C258 C 0.87579 0.26046 0.5222 0.0
H259 H 0.04831 0.19157 0.43398 0.0
C260 C 0.02142 0.15607 0.41791 0.0
H261 H 0.92184 0.12203 0.39785 0.0
H262 H 0.78735 0.41675 0.39498 0.0
H263 H 0.78107 0.41267 0.32614 0.0
H264 H 0.82981 0.31436 0.3029 0.0
H265 H 0.88684 0.22041 0.34844 0.0
C266 C 0.95013 0.15788 0.41301 0.0
C267 C 0.90842 0.2099 0.42742 0.0
C268 C 0.87182 0.2626 0.4006 0.0
C269 C 0.8408 0.31785 0.41412 0.0
C270 C 0.80926 0.37226 0.3865 0.0
C271 C 0.80572 0.37081 0.34683 0.0
C272 C 0.83346 0.3156 0.33373 0.0
C273 C 0.86645 0.26216 0.36015 0.0
H274 H 0.40439 0.33553 0.59169 0.0
C275 C 0.41007 0.32891 0.56204 0.0
H276 H 0.38455 0.27203 0.51805 0.0
H277 H 0.25708 0.06676 0.66584 0.0
H278 H 0.37527 0.06057 0.69929 0.0
H279 H 0.47037 0.13357 0.67209 0.0
H280 H 0.44795 0.21329 0.6115 0.0
C281 C 0.37799 0.27745 0.54787 0.0
C282 C 0.321 0.23662 0.56714 0.0
C283 C 0.33562 0.18971 0.60238 0.0
C284 C 0.28106 0.14678 0.61781 0.0
C285 C 0.29668 0.10037 0.65296 0.0
C286 C 0.36427 0.09624 0.67236 0.0
C287 C 0.41781 0.13739 0.65705 0.0
C288 C 0.40411 0.18329 0.62233 0.0
H289 H 0.17955 0.03134 0.57928 0.0
C290 C 0.14384 0.04627 0.59913 0.0
H291 H 0.11734 0.12383 0.62922 0.0
H292 H 0.27277 0.32497 0.50071 0.0
H293 H 0.15455 0.33085 0.46801 0.0
H294 H 0.06118 0.2549 0.49439 0.0
H295 H 0.08584 0.17234 0.55354 0.0
C296 C 0.15589 0.1042 0.61263 0.0
C297 C 0.21263 0.15035 0.59779 0.0
C298 C 0.19752 0.19831 0.56316 0.0
C299 C 0.25158 0.24156 0.54786 0.0
C300 C 0.23443 0.2896 0.51335 0.0
C301 C 0.16651 0.29391 0.49434 0.0
C302 C 0.11393 0.25121 0.50918 0.0
C303 C 0.12889 0.20399 0.54318 0.0
H304 H 0.35812 0.68105 0.49894 0.0
C305 C 0.41263 0.67856 0.4915 0.0
H306 H 0.49342 0.73346 0.46226 0.0
H307 H 0.20097 0.88355 0.37668 0.0
H308 H 0.2208 0.8068 0.33264 0.0
H309 H 0.32217 0.72592 0.34565 0.0
H310 H 0.40354 0.72091 0.40344 0.0
C311 C 0.44169 0.73517 0.47338 0.0
C312 C 0.39539 0.7966 0.46048 0.0
C313 C 0.35109 0.80218 0.42537 0.0
C314 C 0.29461 0.85096 0.41702 0.0
C315 C 0.24712 0.85048 0.38359 0.0
C316 C 0.25739 0.80595 0.35817 0.0
C317 C 0.31427 0.76027 0.36556 0.0
C318 C 0.36046 0.75786 0.39885 0.0
H319 H 0.25228 0.99999 0.38315 0.0
C320 C 0.21422 0.99475 0.40498 0.0
H321 H 0.18405 0.93811 0.45739 0.0
H322 H 0.476 0.80362 0.52766 0.0
H323 H 0.46088 0.88424 0.57079 0.0
H324 H 0.36595 0.97202 0.55546 0.0
H325 H 0.28557 0.97972 0.4971 0.0
C326 C 0.22322 0.94485 0.43616 0.0
C327 C 0.28519 0.89685 0.44286 0.0
C328 C 0.3325 0.89385 0.47677 0.0
C329 C 0.38749 0.8435 0.48561 0.0
C330 C 0.43323 0.84079 0.51989 0.0
C331 C 0.42525 0.88683 0.54474 0.0
C332 C 0.37181 0.93626 0.5361 0.0
C333 C 0.32588 0.94002 0.50255 0.0
H334 H 0.02077 0.91987 0.13447 0.0
C335 C 0.07707 0.9119 0.1325 0.0
H336 H 0.17826 0.89597 0.16278 0.0
H337 H 0.11323 0.10479 0.26898 0.0
H338 H 0.16292 0.17949 0.2167 0.0
H339 H 0.18736 0.13951 0.15651 0.0
H340 H 0.16116 0.02469 0.14842 0.0
C341 C 0.12179 0.90242 0.165 0.0
C342 C 0.10267 0.92611 0.20065 0.0
C343 C 0.12046 0.99303 0.20556 0.0
C344 C 0.10804 0.01549 0.24067 0.0
C345 C 0.12326 0.08374 0.24372 0.0
C346 C 0.15161 0.12766 0.21368 0.0
C347 C 0.16528 0.10521 0.17981 0.0
C348 C 0.14998 0.03889 0.17562 0.0
H349 H 0.17457 0.00822 0.32433 0.0
C350 C 0.1203 0.01332 0.33148 0.0
H351 H 1.01335 0.99246 0.31704 0.0
H352 H 0.05917 0.79696 0.1992 0.0
H353 H 1.00771 0.72119 0.25139 0.0
H354 H 0.98989 0.75815 0.31341 0.0
H355 H 0.02269 0.87105 0.32364 0.0
C356 C 0.06723 0.9929 0.30856 0.0
C357 C 0.07978 0.97013 0.27141 0.0
C358 C 0.06053 0.90375 0.26602 0.0
C359 C 0.07165 0.88192 0.23047 0.0
C360 C 0.05209 0.81561 0.22579 0.0
C361 C 0.02256 0.77175 0.25546 0.0
C362 C 1.01242 0.79262 0.29037 0.0
C363 C 0.03125 0.85768 0.2958 0.0
H364 H 0.16617 0.96824 0.88589 0.0
C365 C 0.10905 0.96294 0.8835 0.0
H366 H 0.01732 0.9538 0.84637 0.0
H367 H 0.15959 0.11079 0.70024 0.0
H368 H 0.14956 0.21049 0.73042 0.0
H369 H 0.12105 0.19878 0.79871 0.0
H370 H 0.10334 0.0877 0.83726 0.0
C371 C 0.07458 0.95875 0.84908 0.0
C372 C 0.11079 0.96551 0.81277 0.0
C373 C 0.12153 0.03085 0.79106 0.0
C374 C 0.13636 0.03785 0.75155 0.0
C375 C 0.14664 0.10335 0.73015 0.0
C376 C 0.14138 0.16069 0.74718 0.0
C377 C 0.12543 0.15407 0.78565 0.0
C378 C 0.11532 0.09003 0.80745 0.0
H379 H 0.02618 0.03275 0.69036 0.0
C380 C 0.06413 0.01346 0.67315 0.0
H381 H 0.16214 0.96253 0.67484 0.0
H382 H 0.11053 0.83371 0.84962 0.0
H383 H 0.13099 0.73409 0.82087 0.0
H384 H 0.15561 0.74615 0.75197 0.0
H385 H 0.16008 0.85758 0.71143 0.0
C386 C 0.12632 0.98722 0.6908 0.0
C387 C 0.1385 0.97979 0.73382 0.0
C388 C 0.13815 0.91428 0.7571 0.0
C389 C 0.12367 0.9072 0.79671 0.0
C390 C 0.12071 0.84143 0.81923 0.0
C391 C 0.13261 0.78408 0.80314 0.0
C392 C 0.14656 0.79089 0.76435 0.0
C393 C 0.14884 0.85512 0.74136 0.0
H394 H 0.62218 0.3793 0.66326 0.0
C395 C 0.57859 0.39198 0.64079 0.0
H396 H 0.46909 0.41281 0.62981 0.0
H397 H 0.57513 0.30313 0.82077 0.0
H398 H 0.58906 0.19142 0.8039 0.0
H399 H 0.56217 0.1738 0.73632 0.0
H400 H 0.52208 0.26818 0.685 0.0
C401 C 0.51264 0.39596 0.65156 0.0
C402 C 0.50471 0.39985 0.69297 0.0
C403 C 0.52524 0.34399 0.72278 0.0
C404 C 0.53904 0.35383 0.76185 0.0
C405 C 0.56282 0.29796 0.79075 0.0
C406 C 0.5711 0.23376 0.78143 0.0
C407 C 0.55613 0.22385 0.74334 0.0
C408 C 0.53358 0.27825 0.71419 0.0
H409 H 0.45545 0.39514 0.83186 0.0
C410 C 0.50376 0.42223 0.83764 0.0
H411 H 0.59408 0.46654 0.81418 0.0
H412 H 0.45484 0.51581 0.64369 0.0
H413 H 0.43478 0.6254 0.66111 0.0
H414 H 0.45727 0.64215 0.72902 0.0
H415 H 0.50053 0.54941 0.77978 0.0
C416 C 0.55046 0.43245 0.81069 0.0
C417 C 0.53057 0.41923 0.77096 0.0
C418 C 0.50395 0.47381 0.74174 0.0
C419 C 0.49054 0.46402 0.70269 0.0
C420 C 0.46584 0.51999 0.67389 0.0
C421 C 0.45392 0.58336 0.68349 0.0
C422 C 0.46658 0.5928 0.7217 0.0
C423 C 0.49144 0.53898 0.75057 0.0
H424 H 0.64721 0.46257 0.39392 0.0
C425 C 0.59095 0.47545 0.39017 0.0
H426 H 0.50337 0.51082 0.35055 0.0
H427 H 0.63844 0.65437 0.2069 0.0
H428 H 0.61711 0.7522 0.23717 0.0
H429 H 0.58698 0.73671 0.30534 0.0
H430 H 0.57846 0.62354 0.34368 0.0
C431 C 0.5587 0.49446 0.35435 0.0
C432 C 0.59725 0.50344 0.31876 0.0
C433 C 0.60327 0.56974 0.29724 0.0
C434 C 0.62024 0.57877 0.25807 0.0
C435 C 0.62484 0.6453 0.23675 0.0
C436 C 0.61302 0.70158 0.2538 0.0
C437 C 0.59607 0.69285 0.29219 0.0
C438 C 0.59103 0.62777 0.3138 0.0
H439 H 0.51554 0.56386 0.19593 0.0
C440 C 0.55683 0.5485 0.17932 0.0
H441 H 0.65969 0.50689 0.18217 0.0
H442 H 0.6042 0.36995 0.35475 0.0
H443 H 0.63799 0.27395 0.32639 0.0
H444 H 0.67012 0.29017 0.25864 0.0
H445 H 0.66815 0.40255 0.2188 0.0
C446 C 0.62049 0.52842 0.1976 0.0
C447 C 0.63037 0.52149 0.2406 0.0
C448 C 0.63537 0.45584 0.26388 0.0
C449 C 0.61776 0.44659 0.30309 0.0
C450 C 0.61803 0.38004 0.32502 0.0
C451 C 0.63717 0.32442 0.30904 0.0
C452 C 0.65525 0.33356 0.27089 0.0
C453 C 0.65384 0.39832 0.24832 0.0
loop_
_geom_bond_atom_site_label_1
_geom_bond_atom_site_label_2
_geom_bond_distance
_geom_bond_site_symmetry_2
_ccdc_geom_bond_type
Zn0 O6 1.920 1_545 S
Zn0 O12 1.898 . S
Zn0 O15 1.905 1_545 S
Zn1 O9 1.905 1_565 S
Zn1 O10 1.898 . S
Zn1 O18 1.920 . S
Zn2 O5 2.080 1_445 S
Zn2 O8 2.113 1_554 S
Zn2 O11 2.120 1_545 S
Zn2 O13 2.120 1_455 S
Zn2 O14 2.114 1_554 S
Zn2 O17 2.080 . S
C3 O8 1.147 1_554 S
C3 O9 1.182 . S
C4 O10 1.167 . S
C4 O11 1.299 . S
O5 Zn2 2.080 1_665 S
O5 C19 1.305 . S
O6 Zn0 1.920 1_565 S
O6 C19 1.234 1_556 S
C7 O12 1.167 . S
C7 O13 1.299 1_556 S
O8 Zn2 2.113 1_556 S
O8 C3 1.147 1_556 S
O9 Zn1 1.905 1_545 S
O9 C3 1.182 . S
O10 Zn1 1.898 . S
O10 C4 1.167 . S
O11 Zn2 2.120 1_565 S
O11 C4 1.299 . S
O12 Zn0 1.898 . S
O12 C7 1.167 . S
O13 Zn2 2.120 1_655 S
O13 C7 1.299 1_554 S
O14 Zn2 2.114 1_556 S
O14 C16 1.166 1_545 S
O15 Zn0 1.905 1_565 S
O15 C16 1.182 1_655 S
C16 O14 1.166 1_565 S
C16 O15 1.182 1_455 S
O17 Zn2 2.080 . S
O17 C20 1.302 1_545 S
O18 Zn1 1.920 . S
O18 C20 1.234 . S
C19 O5 1.305 . S
C19 O6 1.234 1_554 S
C20 O17 1.302 1_565 S
C20 O18 1.234 . S
Zn21 O27 1.920 . S
Zn21 O33 1.898 . S
Zn21 O36 1.905 . S
Zn22 O30 1.905 . S
Zn22 O31 1.898 . S
Zn22 O39 1.920 . S
Zn23 O26 2.080 . S
Zn23 O29 2.114 . S
Zn23 O32 2.120 . S
Zn23 O34 2.120 . S
Zn23 O35 2.114 . S
Zn23 O38 2.080 . S
C24 O29 1.166 . S
C24 O30 1.182 . S
C25 O31 1.167 . S
C25 O32 1.299 . S
O26 Zn23 2.080 . S
O26 C40 1.305 . S
O27 Zn21 1.920 . S
O27 C40 1.234 . S
C28 O33 1.167 . S
C28 O34 1.299 . S
O29 Zn23 2.114 . S
O29 C24 1.166 . S
O30 Zn22 1.905 . S
O30 C24 1.182 . S
O31 Zn22 1.898 . S
O31 C25 1.167 . S
O32 Zn23 2.120 . S
O32 C25 1.299 . S
O33 Zn21 1.898 . S
O33 C28 1.167 . S
O34 Zn23 2.120 . S
O34 C28 1.299 . S
O35 Zn23 2.114 . S
O35 C37 1.166 . S
O36 Zn21 1.905 . S
O36 C37 1.182 . S
C37 O35 1.166 . S
C37 O36 1.182 . S
O38 Zn23 2.080 . S
O38 C41 1.305 . S
O39 Zn22 1.920 . S
O39 C41 1.234 . S
C40 O26 1.305 . S
C40 O27 1.234 . S
C41 O38 1.305 . S
C41 O39 1.234 . S
C42 N43 1.317 1_545 S
C42 N44 1.348 . S
C42 C45 1.485 . S
N43 C42 1.317 1_565 S
N43 N47 1.370 1_565 S
N44 C42 1.348 . S
N44 C46 1.346 . S
C45 C42 1.485 . S
C45 H49 0.960 1_545 S
C45 H50 0.961 . S
C45 H51 0.960 1_545 S
C46 N44 1.346 . S
C46 N47 1.307 . S
C46 C48 1.486 1_455 S
N47 N43 1.370 1_545 S
N47 C46 1.307 . S
C48 C46 1.486 1_655 S
C48 H52 0.960 . S
C48 H53 0.960 . S
C48 H54 0.959 . S
H49 C45 0.960 1_565 S
H50 C45 0.961 . S
H51 C45 0.960 1_565 S
H52 C48 0.960 . S
H53 C48 0.960 . S
H54 C48 0.959 . S
C55 N56 1.317 . S
C55 N57 1.348 1_445 S
C55 C58 1.485 . S
N56 C55 1.317 . S
N56 N60 1.370 . S
N57 C55 1.348 1_665 S
N57 C59 1.346 . S
C58 C55 1.485 . S
C58 H62 0.960 1_455 S
C58 H63 0.961 1_545 S
C58 H64 0.960 . S
C59 N57 1.346 . S
C59 N60 1.307 1_665 S
C59 C61 1.486 . S
N60 N56 1.370 . S
N60 C59 1.307 1_445 S
C61 C59 1.486 . S
C61 H65 0.960 . S
C61 H66 0.960 . S
C61 H67 0.959 . S
H62 C58 0.960 1_655 S
H63 C58 0.961 1_565 S
H64 C58 0.960 . S
H65 C61 0.960 . S
H66 C61 0.960 . S
H67 C61 0.959 . S
C68 N69 1.317 . S
C68 N70 1.348 . S
C68 C71 1.485 . S
N69 C68 1.317 . S
N69 N73 1.370 . S
N70 C68 1.348 . S
N70 C72 1.346 . S
C71 C68 1.485 . S
C71 H75 0.961 1_556 S
C71 H76 0.961 . S
C71 H77 0.960 . S
C72 N70 1.346 . S
C72 N73 1.307 . S
C72 C74 1.486 . S
N73 N69 1.370 . S
N73 C72 1.307 . S
C74 C72 1.486 . S
C74 H78 0.960 . S
C74 H79 0.960 . S
C74 H80 0.959 . S
H75 C71 0.961 1_554 S
H76 C71 0.961 . S
H77 C71 0.960 . S
H78 C74 0.960 . S
H79 C74 0.960 . S
H80 C74 0.959 . S
C81 N82 1.317 . S
C81 N83 1.348 . S
C81 C84 1.485 . S
N82 C81 1.317 . S
N82 N86 1.370 . S
N83 C81 1.348 . S
N83 C85 1.346 . S
C84 C81 1.485 . S
C84 H88 0.960 . S
C84 H89 0.961 . S
C84 H90 0.960 . S
C85 N83 1.346 . S
C85 N86 1.307 . S
C85 C87 1.486 . S
N86 N82 1.370 . S
N86 C85 1.307 . S
C87 C85 1.486 . S
C87 H91 0.960 . S
C87 H92 0.960 . S
C87 H93 0.959 . S
H88 C84 0.960 . S
H89 C84 0.961 . S
H90 C84 0.960 . S
H91 C87 0.960 . S
H92 C87 0.960 . S
H93 C87 0.959 . S
H94 C95 0.951 . S
C95 H94 0.951 . S
C95 C101 1.265 . S
H96 C101 0.950 . S
H97 C105 0.949 . S
H98 C106 0.950 . S
H99 C107 0.951 . S
H100 C108 0.951 . S
C101 C95 1.265 . S
C101 H96 0.950 . S
C101 C102 1.478 . S
C102 C101 1.478 . S
C102 C103 1.397 . S
C102 C119 1.394 . S
C103 C102 1.397 . S
C103 C104 1.438 . S
C103 C108 1.429 1_554 S
C104 C103 1.438 . S
C104 C105 1.428 1_554 S
C104 C117 1.394 . S
C105 H97 0.949 . S
C105 C104 1.428 1_556 S
C105 C106 1.345 . S
C106 H98 0.950 . S
C106 C105 1.345 . S
C106 C107 1.424 . S
C107 H99 0.951 . S
C107 C106 1.424 . S
C107 C108 1.347 . S
C108 H100 0.951 . S
C108 C103 1.429 1_556 S
C108 C107 1.347 . S
H109 C110 0.951 . S
C110 H109 0.951 . S
C110 C116 1.265 . S
H111 C116 0.950 . S
H112 C120 0.949 . S
H113 C121 0.950 . S
H114 C122 0.951 . S
H115 C123 0.951 . S
C116 C110 1.265 . S
C116 H111 0.950 . S
C116 C117 1.478 . S
C117 C104 1.394 . S
C117 C116 1.478 . S
C117 C118 1.397 . S
C118 C117 1.397 . S
C118 C119 1.438 . S
C118 C123 1.429 . S
C119 C102 1.394 . S
C119 C118 1.438 . S
C119 C120 1.428 . S
C120 H112 0.949 . S
C120 C119 1.428 . S
C120 C121 1.345 . S
C121 H113 0.950 . S
C121 C120 1.345 . S
C121 C122 1.424 . S
C122 H114 0.951 . S
C122 C121 1.424 . S
C122 C123 1.347 . S
C123 H115 0.951 . S
C123 C118 1.429 . S
C123 C122 1.347 . S
H124 C125 0.951 . S
C125 H124 0.951 . S
C125 C131 1.265 . S
H126 C131 0.950 . S
H127 C135 0.949 . S
H128 C136 0.950 . S
H129 C137 0.951 . S
H130 C138 0.951 . S
C131 C125 1.265 . S
C131 H126 0.950 . S
C131 C132 1.478 . S
C132 C131 1.478 . S
C132 C133 1.397 . S
C132 C149 1.394 1_556 S
C133 C132 1.397 . S
C133 C134 1.438 . S
C133 C138 1.429 . S
C134 C133 1.438 . S
C134 C135 1.428 . S
C134 C147 1.394 . S
C135 H127 0.949 . S
C135 C134 1.428 . S
C135 C136 1.345 . S
C136 H128 0.950 . S
C136 C135 1.345 . S
C136 C137 1.424 . S
C137 H129 0.951 . S
C137 C136 1.424 . S
C137 C138 1.347 . S
C138 H130 0.951 . S
C138 C133 1.429 . S
C138 C137 1.347 . S
H139 C140 0.951 . S
C140 H139 0.951 . S
C140 C146 1.265 . S
H141 C146 0.950 . S
H142 C150 0.949 . S
H143 C151 0.950 . S
H144 C152 0.951 . S
H145 C153 0.951 . S
C146 C140 1.265 . S
C146 H141 0.950 . S
C146 C147 1.478 . S
C147 C134 1.394 . S
C147 C146 1.478 . S
C147 C148 1.397 . S
C148 C147 1.397 . S
C148 C149 1.438 1_556 S
C148 C153 1.429 1_556 S
C149 C132 1.394 1_554 S
C149 C148 1.438 1_554 S
C149 C150 1.428 . S
C150 H142 0.949 . S
C150 C149 1.428 . S
C150 C151 1.345 . S
C151 H143 0.950 . S
C151 C150 1.345 . S
C151 C152 1.424 . S
C152 H144 0.951 . S
C152 C151 1.424 . S
C152 C153 1.347 . S
C153 H145 0.951 . S
C153 C148 1.429 1_554 S
C153 C152 1.347 . S
H154 C155 0.951 . S
C155 H154 0.951 . S
C155 C161 1.265 . S
H156 C161 0.950 . S
H157 C165 0.949 . S
H158 C166 0.950 . S
H159 C167 0.951 . S
H160 C168 0.951 . S
C161 C155 1.265 . S
C161 H156 0.950 . S
C161 C162 1.478 . S
C162 C161 1.478 . S
C162 C163 1.397 . S
C162 C179 1.394 . S
C163 C162 1.397 . S
C163 C164 1.438 . S
C163 C168 1.429 . S
C164 C163 1.438 . S
C164 C165 1.428 . S
C164 C177 1.394 . S
C165 H157 0.949 . S
C165 C164 1.428 . S
C165 C166 1.345 1_554 S
C166 H158 0.950 . S
C166 C165 1.345 1_556 S
C166 C167 1.424 . S
C167 H159 0.951 . S
C167 C166 1.424 . S
C167 C168 1.347 1_556 S
C168 H160 0.951 . S
C168 C163 1.429 . S
C168 C167 1.347 1_554 S
H169 C170 0.951 . S
C170 H169 0.951 . S
C170 C176 1.265 . S
H171 C176 0.950 . S
H172 C180 0.949 . S
H173 C181 0.950 . S
H174 C182 0.951 . S
H175 C183 0.951 . S
C176 C170 1.265 . S
C176 H171 0.950 . S
C176 C177 1.478 . S
C177 C164 1.394 . S
C177 C176 1.478 . S
C177 C178 1.397 . S
C178 C177 1.397 . S
C178 C179 1.438 . S
C178 C183 1.429 . S
C179 C162 1.394 . S
C179 C178 1.438 . S
C179 C180 1.428 . S
C180 H172 0.949 . S
C180 C179 1.428 . S
C180 C181 1.345 . S
C181 H173 0.950 . S
C181 C180 1.345 . S
C181 C182 1.424 . S
C182 H174 0.951 . S
C182 C181 1.424 . S
C182 C183 1.347 . S
C183 H175 0.951 . S
C183 C178 1.429 . S
C183 C182 1.347 . S
H184 C185 0.951 . S
C185 H184 0.951 . S
C185 C191 1.265 . S
H186 C191 0.950 1_554 S
H187 C195 0.949 . S
H188 C196 0.950 . S
H189 C197 0.951 . S
H190 C198 0.951 . S
C191 C185 1.265 . S
C191 H186 0.950 1_556 S
C191 C192 1.478 . S
C192 C191 1.478 . S
C192 C193 1.397 . S
C192 C209 1.394 . S
C193 C192 1.397 . S
C193 C194 1.438 . S
C193 C198 1.429 1_556 S
C194 C193 1.438 . S
C194 C195 1.428 . S
C194 C207 1.394 . S
C195 H187 0.949 . S
C195 C194 1.428 . S
C195 C196 1.345 1_556 S
C196 H188 0.950 . S
C196 C195 1.345 1_554 S
C196 C197 1.424 . S
C197 H189 0.951 . S
C197 C196 1.424 . S
C197 C198 1.347 . S
C198 H190 0.951 . S
C198 C193 1.429 1_554 S
C198 C197 1.347 . S
H199 C200 0.951 . S
C200 H199 0.951 . S
C200 C206 1.265 . S
H201 C206 0.950 . S
H202 C210 0.949 . S
H203 C211 0.950 . S
H204 C212 0.951 . S
H205 C213 0.951 . S
C206 C200 1.265 . S
C206 H201 0.950 . S
C206 C207 1.478 . S
C207 C194 1.394 . S
C207 C206 1.478 . S
C207 C208 1.397 . S
C208 C207 1.397 . S
C208 C209 1.438 . S
C208 C213 1.429 . S
C209 C192 1.394 . S
C209 C208 1.438 . S
C209 C210 1.428 . S
C210 H202 0.949 . S
C210 C209 1.428 . S
C210 C211 1.345 . S
C211 H203 0.950 . S
C211 C210 1.345 . S
C211 C212 1.424 . S
C212 H204 0.951 . S
C212 C211 1.424 . S
C212 C213 1.347 . S
C213 H205 0.951 . S
C213 C208 1.429 . S
C213 C212 1.347 . S
H214 C215 0.951 . S
C215 H214 0.951 . S
C215 C221 1.265 . S
H216 C221 0.950 . S
H217 C225 0.949 . S
H218 C226 0.950 . S
H219 C227 0.951 . S
H220 C228 0.951 . S
C221 C215 1.265 . S
C221 H216 0.950 . S
C221 C222 1.478 . S
C222 C221 1.478 . S
C222 C223 1.397 . S
C222 C239 1.394 . S
C223 C222 1.397 . S
C223 C224 1.438 . S
C223 C228 1.429 . S
C224 C223 1.438 . S
C224 C225 1.428 . S
C224 C237 1.394 . S
C225 H217 0.949 . S
C225 C224 1.428 . S
C225 C226 1.345 . S
C226 H218 0.950 . S
C226 C225 1.345 . S
C226 C227 1.424 . S
C227 H219 0.951 . S
C227 C226 1.424 . S
C227 C228 1.347 . S
C228 H220 0.951 . S
C228 C223 1.429 . S
C228 C227 1.347 . S
H229 C230 0.951 . S
C230 H229 0.951 . S
C230 C236 1.265 . S
H231 C236 0.950 . S
H232 C240 0.949 . S
H233 C241 0.950 . S
H234 C242 0.951 . S
H235 C243 0.951 . S
C236 C230 1.265 . S
C236 H231 0.950 . S
C236 C237 1.478 . S
C237 C224 1.394 . S
C237 C236 1.478 . S
C237 C238 1.397 . S
C238 C237 1.397 . S
C238 C239 1.438 . S
C238 C243 1.429 . S
C239 C222 1.394 . S
C239 C238 1.438 . S
C239 C240 1.428 . S
C240 H232 0.949 . S
C240 C239 1.428 . S
C240 C241 1.345 . S
C241 H233 0.950 . S
C241 C240 1.345 . S
C241 C242 1.424 . S
C242 H234 0.951 . S
C242 C241 1.424 . S
C242 C243 1.347 . S
C243 H235 0.951 . S
C243 C238 1.429 . S
C243 C242 1.347 . S
H244 C245 0.951 . S
C245 H244 0.951 . S
C245 C251 1.265 . S
H246 C251 0.950 . S
H247 C255 0.949 . S
H248 C256 0.950 . S
H249 C257 0.951 . S
H250 C258 0.951 . S
C251 C245 1.265 . S
C251 H246 0.950 . S
C251 C252 1.478 . S
C252 C251 1.478 . S
C252 C253 1.397 . S
C252 C269 1.394 . S
C253 C252 1.397 . S
C253 C254 1.438 . S
C253 C258 1.429 . S
C254 C253 1.438 . S
C254 C255 1.428 . S
C254 C267 1.394 . S
C255 H247 0.949 . S
C255 C254 1.428 . S
C255 C256 1.345 . S
C256 H248 0.950 . S
C256 C255 1.345 . S
C256 C257 1.424 . S
C257 H249 0.951 . S
C257 C256 1.424 . S
C257 C258 1.347 . S
C258 H250 0.951 . S
C258 C253 1.429 . S
C258 C257 1.347 . S
H259 C260 0.951 1_455 S
C260 H259 0.951 1_655 S
C260 C266 1.265 . S
H261 C266 0.950 . S
H262 C270 0.949 . S
H263 C271 0.950 . S
H264 C272 0.951 . S
H265 C273 0.951 . S
C266 C260 1.265 . S
C266 H261 0.950 . S
C266 C267 1.478 . S
C267 C254 1.394 . S
C267 C266 1.478 . S
C267 C268 1.397 . S
C268 C267 1.397 . S
C268 C269 1.438 . S
C268 C273 1.429 . S
C269 C252 1.394 . S
C269 C268 1.438 . S
C269 C270 1.428 . S
C270 H262 0.949 . S
C270 C269 1.428 . S
C270 C271 1.345 . S
C271 H263 0.950 . S
C271 C270 1.345 . S
C271 C272 1.424 . S
C272 H264 0.951 . S
C272 C271 1.424 . S
C272 C273 1.347 . S
C273 H265 0.951 . S
C273 C268 1.429 . S
C273 C272 1.347 . S
H274 C275 0.951 . S
C275 H274 0.951 . S
C275 C281 1.265 . S
H276 C281 0.950 . S
H277 C285 0.949 . S
H278 C286 0.950 . S
H279 C287 0.951 . S
H280 C288 0.951 . S
C281 C275 1.265 . S
C281 H276 0.950 . S
C281 C282 1.478 . S
C282 C281 1.478 . S
C282 C283 1.397 . S
C282 C299 1.394 . S
C283 C282 1.397 . S
C283 C284 1.438 . S
C283 C288 1.429 . S
C284 C283 1.438 . S
C284 C285 1.428 . S
C284 C297 1.394 . S
C285 H277 0.949 . S
C285 C284 1.428 . S
C285 C286 1.345 . S
C286 H278 0.950 . S
C286 C285 1.345 . S
C286 C287 1.424 . S
C287 H279 0.951 . S
C287 C286 1.424 . S
C287 C288 1.347 . S
C288 H280 0.951 . S
C288 C283 1.429 . S
C288 C287 1.347 . S
H289 C290 0.951 . S
C290 H289 0.951 . S
C290 C296 1.265 . S
H291 C296 0.950 . S
H292 C300 0.949 . S
H293 C301 0.950 . S
H294 C302 0.951 . S
H295 C303 0.951 . S
C296 C290 1.265 . S
C296 H291 0.950 . S
C296 C297 1.478 . S
C297 C284 1.394 . S
C297 C296 1.478 . S
C297 C298 1.397 . S
C298 C297 1.397 . S
C298 C299 1.438 . S
C298 C303 1.429 . S
C299 C282 1.394 . S
C299 C298 1.438 . S
C299 C300 1.428 . S
C300 H292 0.949 . S
C300 C299 1.428 . S
C300 C301 1.345 . S
C301 H293 0.950 . S
C301 C300 1.345 . S
C301 C302 1.424 . S
C302 H294 0.951 . S
C302 C301 1.424 . S
C302 C303 1.347 . S
C303 H295 0.951 . S
C303 C298 1.429 . S
C303 C302 1.347 . S
H304 C305 0.951 . S
C305 H304 0.951 . S
C305 C311 1.265 . S
H306 C311 0.950 . S
H307 C315 0.949 . S
H308 C316 0.950 . S
H309 C317 0.951 . S
H310 C318 0.951 . S
C311 C305 1.265 . S
C311 H306 0.950 . S
C311 C312 1.478 . S
C312 C311 1.478 . S
C312 C313 1.397 . S
C312 C329 1.394 . S
C313 C312 1.397 . S
C313 C314 1.438 . S
C313 C318 1.429 . S
C314 C313 1.438 . S
C314 C315 1.428 . S
C314 C327 1.394 . S
C315 H307 0.949 . S
C315 C314 1.428 . S
C315 C316 1.345 . S
C316 H308 0.950 . S
C316 C315 1.345 . S
C316 C317 1.424 . S
C317 H309 0.951 . S
C317 C316 1.424 . S
C317 C318 1.347 . S
C318 H310 0.951 . S
C318 C313 1.429 . S
C318 C317 1.347 . S
H319 C320 0.951 . S
C320 H319 0.951 . S
C320 C326 1.265 . S
H321 C326 0.950 . S
H322 C330 0.949 . S
H323 C331 0.950 . S
H324 C332 0.951 . S
H325 C333 0.951 . S
C326 C320 1.265 . S
C326 H321 0.950 . S
C326 C327 1.478 . S
C327 C314 1.394 . S
C327 C326 1.478 . S
C327 C328 1.397 . S
C328 C327 1.397 . S
C328 C329 1.438 . S
C328 C333 1.429 . S
C329 C312 1.394 . S
C329 C328 1.438 . S
C329 C330 1.428 . S
C330 H322 0.949 . S
C330 C329 1.428 . S
C330 C331 1.345 . S
C331 H323 0.950 . S
C331 C330 1.345 . S
C331 C332 1.424 . S
C332 H324 0.951 . S
C332 C331 1.424 . S
C332 C333 1.347 . S
C333 H325 0.951 . S
C333 C328 1.429 . S
C333 C332 1.347 . S
H334 C335 0.951 . S
C335 H334 0.951 . S
C335 C341 1.265 . S
H336 C341 0.950 . S
H337 C345 0.949 . S
H338 C346 0.950 . S
H339 C347 0.951 . S
H340 C348 0.951 . S
C341 C335 1.265 . S
C341 H336 0.950 . S
C341 C342 1.478 . S
C342 C341 1.478 . S
C342 C343 1.397 1_565 S
C342 C359 1.394 . S
C343 C342 1.397 1_545 S
C343 C344 1.438 . S
C343 C348 1.429 . S
C344 C343 1.438 . S
C344 C345 1.428 . S
C344 C357 1.394 1_545 S
C345 H337 0.949 . S
C345 C344 1.428 . S
C345 C346 1.345 . S
C346 H338 0.950 . S
C346 C345 1.345 . S
C346 C347 1.424 . S
C347 H339 0.951 . S
C347 C346 1.424 . S
C347 C348 1.347 . S
C348 H340 0.951 . S
C348 C343 1.429 . S
C348 C347 1.347 . S
H349 C350 0.951 . S
C350 H349 0.951 . S
C350 C356 1.265 1_545 S
H351 C356 0.950 . S
H352 C360 0.949 . S
H353 C361 0.950 . S
H354 C362 0.951 1_655 S
H355 C363 0.951 . S
C356 C350 1.265 1_565 S
C356 H351 0.950 . S
C356 C357 1.478 . S
C357 C344 1.394 1_565 S
C357 C356 1.478 . S
C357 C358 1.397 . S
C358 C357 1.397 . S
C358 C359 1.438 . S
C358 C363 1.429 . S
C359 C342 1.394 . S
C359 C358 1.438 . S
C359 C360 1.428 . S
C360 H352 0.949 . S
C360 C359 1.428 . S
C360 C361 1.345 . S
C361 H353 0.950 . S
C361 C360 1.345 . S
C361 C362 1.424 . S
C362 H354 0.951 1_455 S
C362 C361 1.424 . S
C362 C363 1.347 . S
C363 H355 0.951 . S
C363 C358 1.429 . S
C363 C362 1.347 . S
H364 C365 0.951 . S
C365 H364 0.951 . S
C365 C371 1.265 . S
H366 C371 0.950 1_645 S
H367 C375 0.949 . S
H368 C376 0.950 . S
H369 C377 0.951 . S
H370 C378 0.951 . S
C371 C365 1.265 . S
C371 H366 0.950 1_465 S
C371 C372 1.478 1_565 S
C372 C371 1.478 1_545 S
C372 C373 1.397 . S
C372 C389 1.394 1_545 S
C373 C372 1.397 . S
C373 C374 1.438 . S
C373 C378 1.429 1_455 S
C374 C373 1.438 . S
C374 C375 1.428 . S
C374 C387 1.394 . S
C375 H367 0.949 . S
C375 C374 1.428 . S
C375 C376 1.345 1_455 S
C376 H368 0.950 . S
C376 C375 1.345 1_655 S
C376 C377 1.424 . S
C377 H369 0.951 . S
C377 C376 1.424 . S
C377 C378 1.347 . S
C378 H370 0.951 . S
C378 C373 1.429 1_655 S
C378 C377 1.347 . S
H379 C380 0.951 1_655 S
C380 H379 0.951 1_455 S
C380 C386 1.265 . S
H381 C386 0.950 . S
H382 C390 0.949 . S
H383 C391 0.950 . S
H384 C392 0.951 . S
H385 C393 0.951 . S
C386 C380 1.265 . S
C386 H381 0.950 . S
C386 C387 1.478 . S
C387 C374 1.394 . S
C387 C386 1.478 . S
C387 C388 1.397 1_545 S
C388 C387 1.397 1_565 S
C388 C389 1.438 . S
C388 C393 1.429 . S
C389 C372 1.394 1_565 S
C389 C388 1.438 . S
C389 C390 1.428 . S
C390 H382 0.949 . S
C390 C389 1.428 . S
C390 C391 1.345 . S
C391 H383 0.950 . S
C391 C390 1.345 . S
C391 C392 1.424 . S
C392 H384 0.951 . S
C392 C391 1.424 . S
C392 C393 1.347 . S
C393 H385 0.951 . S
C393 C388 1.429 . S
C393 C392 1.347 . S
H394 C395 0.951 . S
C395 H394 0.951 . S
C395 C401 1.265 . S
H396 C401 0.950 . S
H397 C405 0.949 . S
H398 C406 0.950 . S
H399 C407 0.951 . S
H400 C408 0.951 . S
C401 C395 1.265 . S
C401 H396 0.950 . S
C401 C402 1.478 . S
C402 C401 1.478 . S
C402 C403 1.397 . S
C402 C419 1.394 . S
C403 C402 1.397 . S
C403 C404 1.438 . S
C403 C408 1.429 . S
C404 C403 1.438 . S
C404 C405 1.428 . S
C404 C417 1.394 . S
C405 H397 0.949 . S
C405 C404 1.428 . S
C405 C406 1.345 . S
C406 H398 0.950 . S
C406 C405 1.345 . S
C406 C407 1.424 . S
C407 H399 0.951 . S
C407 C406 1.424 . S
C407 C408 1.347 . S
C408 H400 0.951 . S
C408 C403 1.429 . S
C408 C407 1.347 . S
H409 C410 0.951 . S
C410 H409 0.951 . S
C410 C416 1.265 . S
H411 C416 0.950 . S
H412 C420 0.949 . S
H413 C421 0.950 . S
H414 C422 0.951 . S
H415 C423 0.951 . S
C416 C410 1.265 . S
C416 H411 0.950 . S
C416 C417 1.478 . S
C417 C404 1.394 . S
C417 C416 1.478 . S
C417 C418 1.397 . S
C418 C417 1.397 . S
C418 C419 1.438 . S
C418 C423 1.429 . S
C419 C402 1.394 . S
C419 C418 1.438 . S
C419 C420 1.428 . S
C420 H412 0.949 . S
C420 C419 1.428 . S
C420 C421 1.345 . S
C421 H413 0.950 . S
C421 C420 1.345 . S
C421 C422 1.424 . S
C422 H414 0.951 . S
C422 C421 1.424 . S
C422 C423 1.347 . S
C423 H415 0.951 . S
C423 C418 1.429 . S
C423 C422 1.347 . S
H424 C425 0.951 . S
C425 H424 0.951 . S
C425 C431 1.265 . S
H426 C431 0.950 . S
H427 C435 0.949 . S
H428 C436 0.950 . S
H429 C437 0.951 . S
H430 C438 0.951 . S
C431 C425 1.265 . S
C431 H426 0.950 . S
C431 C432 1.478 . S
C432 C431 1.478 . S
C432 C433 1.397 . S
C432 C449 1.394 . S
C433 C432 1.397 . S
C433 C434 1.438 . S
C433 C438 1.429 . S
C434 C433 1.438 . S
C434 C435 1.428 . S
C434 C447 1.394 . S
C435 H427 0.949 . S
C435 C434 1.428 . S
C435 C436 1.345 . S
C436 H428 0.950 . S
C436 C435 1.345 . S
C436 C437 1.424 . S
C437 H429 0.951 . S
C437 C436 1.424 . S
C437 C438 1.347 . S
C438 H430 0.951 . S
C438 C433 1.429 . S
C438 C437 1.347 . S
H439 C440 0.951 . S
C440 H439 0.951 . S
C440 C446 1.265 . S
H441 C446 0.950 . S
H442 C450 0.949 . S
H443 C451 0.950 . S
H444 C452 0.951 . S
H445 C453 0.951 . S
C446 C440 1.265 . S
C446 H441 0.950 . S
C446 C447 1.478 . S
C447 C434 1.394 . S
C447 C446 1.478 . S
C447 C448 1.397 . S
C448 C447 1.397 . S
C448 C449 1.438 . S
C448 C453 1.429 . S
C449 C432 1.394 . S
C449 C448 1.438 . S
C449 C450 1.428 . S
C450 H442 0.949 . S
C450 C449 1.428 . S
C450 C451 1.345 . S
C451 H443 0.950 . S
C451 C450 1.345 . S
C451 C452 1.424 . S
C452 H444 0.951 . S
C452 C451 1.424 . S
C452 C453 1.347 . S
C453 H445 0.951 . S
C453 C448 1.429 . S
C453 C452 1.347 . S
C110 N83 1.214 . S
C95 C3 1.178 . S
C125 C4 1.384 1_556 S
C140 N70 1.503 . S
C155 C19 1.531 . S
C170 N82 1.672 . S
C185 C7 1.194 . S
C200 N69 1.343 . S
C215 C37 1.158 . S
C230 N57 1.222 . S
C245 C28 1.487 . S
C260 N44 1.517 1_655 S
C290 N56 1.646 . S
C275 C41 1.482 . S
C320 N43 1.335 . S
C305 C25 1.131 . S
C335 C20 1.421 . S
C350 N47 1.527 . S
C365 C16 1.432 . S
C380 N60 1.463 . S
C410 N73 1.484 . S
C395 C40 1.282 . S
C425 C24 1.429 . S
C440 N86 1.459 . S
