# Generated by pormake.
# Topology rtl, (3,6)-cn, num edge types: 1
# Building blocks:
#     Node 0, Type 0, BuildingBlock: PAMTOO_clean_linker_0, # of connection points: 3
#     Node 1, Type 0, BuildingBlock: PAMTOO_clean_linker_0, # of connection points: 3
#     Node 2, Type 0, BuildingBlock: PAMTOO_clean_linker_0, # of connection points: 3
#     Node 3, Type 0, BuildingBlock: PAMTOO_clean_linker_0, # of connection points: 3
#     Node 4, Type 1, BuildingBlock: KUMBUR_clean_sbu_1, # of connection points: 6
#     Node 5, Type 1, BuildingBlock: KUMBUR_clean_sbu_1, # of connection points: 6
#     Edge 6, Type (0, 1), BuildingBlock: EZIPEK_clean_linker_0, # of connection points: 2
#     Edge 7, Type (0, 1), BuildingBlock: EZIPEK_clean_linker_0, # of connection points: 2
#     Edge 8, Type (0, 1), BuildingBlock: EZIPEK_clean_linker_0, # of connection points: 2
#     Edge 9, Type (0, 1), BuildingBlock: EZIPEK_clean_linker_0, # of connection points: 2
#     Edge 10, Type (0, 1), BuildingBlock: EZIPEK_clean_linker_0, # of connection points: 2
#     Edge 11, Type (0, 1), BuildingBlock: EZIPEK_clean_linker_0, # of connection points: 2
#     Edge 12, Type (0, 1), BuildingBlock: EZIPEK_clean_linker_0, # of connection points: 2
#     Edge 13, Type (0, 1), BuildingBlock: EZIPEK_clean_linker_0, # of connection points: 2
#     Edge 14, Type (0, 1), BuildingBlock: EZIPEK_clean_linker_0, # of connection points: 2
#     Edge 15, Type (0, 1), BuildingBlock: EZIPEK_clean_linker_0, # of connection points: 2
#     Edge 16, Type (0, 1), BuildingBlock: EZIPEK_clean_linker_0, # of connection points: 2
#     Edge 17, Type (0, 1), BuildingBlock: EZIPEK_clean_linker_0, # of connection points: 2
# Relax obj value: 0.053
# Max RMSD: 0.238
# Mean RMSD: 0.175
data_MOF--net-rtl--node1-KUMBUR_clean_sbu_1--node2-PAMTOO_clean_linker_0--edge1-EZIPEK_clean_linker_0
_symmetry_space_group_name_H-M    P1
_symmetry_Int_Tables_number       1
_symmetry_cell_setting            triclinic
loop_
_symmetry_equiv_pos_as_xyz
'x, y, z'
_cell_length_a     25.772811
_cell_length_b     26.177469
_cell_length_c     20.452417
_cell_angle_alpha  74.285797
_cell_angle_beta   98.693436
_cell_angle_gamma 91.491634
loop_
_atom_site_label
_atom_site_type_symbol
_atom_site_fract_x
_atom_site_fract_y
_atom_site_fract_z
_atom_type_partial_charge
H0 H 0.11501 0.89758 1.00547 0.0
H1 H 0.24349 0.7986 0.13165 0.0
H2 H 0.23497 0.84517 0.91204 0.0
H3 H 0.26043 0.73311 0.97647 0.0
C4 C 0.28321 0.73592 0.02601 0.0
O5 O 0.2871 0.78824 0.02787 0.0
H6 H 0.25915 0.71336 0.06476 0.0
C7 C 0.15146 0.8761 1.01052 0.0
C8 C 0.17288 0.87598 0.95139 0.0
C9 C 0.1766 0.84829 0.07604 0.0
C10 C 0.22369 0.82035 0.08161 0.0
C11 C 0.24405 0.81838 0.02247 0.0
C12 C 0.21898 0.84665 0.95758 0.0
H13 H 0.62272 0.63631 0.69168 0.0
H14 H 0.74136 0.73096 0.5917 0.0
H15 H 0.72247 0.73341 0.79628 0.0
H16 H 0.74628 0.84199 0.70846 0.0
C17 C 0.76273 0.82866 0.66852 0.0
O18 O 0.77325 0.7747 0.69149 0.0
H19 H 0.73094 0.838 0.62356 0.0
C20 C 0.65367 0.66518 0.69205 0.0
C21 C 0.66904 0.68269 0.75115 0.0
C22 C 0.68024 0.68155 0.63529 0.0
C23 C 0.72059 0.7184 0.63546 0.0
C24 C 0.73472 0.73844 0.69254 0.0
C25 C 0.70984 0.71964 0.75109 0.0
H26 H 0.92549 0.13701 0.12307 0.0
H27 H 0.81588 0.25716 0.99435 0.0
H28 H 0.82614 0.21875 0.21424 0.0
H29 H 0.71624 0.2348 0.12173 0.0
C30 C 0.72702 0.27234 0.08608 0.0
O31 O 0.78038 0.28021 0.09713 0.0
H32 H 0.71517 0.2662 0.03423 0.0
C33 C 0.89446 0.1658 0.11745 0.0
C34 C 0.87785 0.17383 0.17594 0.0
C35 C 0.87233 0.19557 0.05183 0.0
C36 C 0.83284 0.23348 0.04489 0.0
C37 C 0.81605 0.24163 0.10352 0.0
C38 C 0.83846 0.21168 0.16902 0.0
H39 H 0.41383 0.41068 0.46084 0.0
H40 H 0.32009 0.28571 0.56436 0.0
H41 H 0.32574 0.31055 0.34893 0.0
H42 H 0.21291 0.2797 0.41127 0.0
C43 C 0.23349 0.25314 0.45966 0.0
O44 O 0.28671 0.25117 0.45699 0.0
H45 H 0.22606 0.27249 0.49962 0.0
C46 C 0.38712 0.37817 0.45935 0.0
C47 C 0.37258 0.36378 0.39781 0.0
C48 C 0.36767 0.35035 0.51913 0.0
C49 C 0.33434 0.30752 0.51775 0.0
C50 C 0.31829 0.2935 0.45651 0.0
C51 C 0.33711 0.322 0.39612 0.0
Tb52 Tb 0.0527 0.9564 0.53176 0.0
C53 C 0.97429 0.18757 0.46807 0.0
N54 N 1.01336 0.16245 0.51798 0.0
C55 C 0.06841 0.23817 0.48832 0.0
C56 C 0.98158 0.23823 0.42433 0.0
C57 C 0.05893 0.18834 0.5311 0.0
C58 C 0.02986 0.26291 0.43405 0.0
C59 C 0.88406 0.18835 0.41265 0.0
C60 C 0.92614 0.16319 0.46243 0.0
C61 C 0.89175 0.2378 0.36706 0.0
C62 C 0.94037 0.26276 0.37302 0.0
Tb63 Tb 0.99319 0.08051 0.58305 0.0
N64 N 0.92016 0.11538 0.50721 0.0
C65 C 0.83526 0.16358 0.4113 0.0
C66 C 0.87157 0.09318 0.5099 0.0
C67 C 0.82879 0.11621 0.46088 0.0
H68 H 0.08795 0.17109 0.5751 0.0
H69 H 0.79084 0.09755 0.46155 0.0
H70 H 0.99164 0.85045 0.60835 0.0
H71 H 0.2618 0.99271 0.53638 0.0
H72 H 0.86629 0.05679 0.54846 0.0
H73 H 0.80203 0.18146 0.37354 0.0
H74 H 0.1692 1.0021 0.48379 0.0
H75 H 0.10515 0.25779 0.49791 0.0
H76 H 0.86009 0.25751 0.32789 0.0
H77 H 0.94546 0.30134 0.33832 0.0
H78 H 1.01208 0.77109 0.70694 0.0
H79 H 0.03716 0.30168 0.40131 0.0
H80 H 0.28863 0.92642 0.64774 0.0
N81 N 0.06893 0.88064 0.61896 0.0
C82 C 0.11896 0.87188 0.6517 0.0
C83 C 0.04245 0.79935 0.69221 0.0
C84 C 0.13242 0.82773 0.70864 0.0
C85 C 0.03096 0.84433 0.63656 0.0
C86 C 0.09325 0.7914 0.72907 0.0
N87 N 0.14186 0.94653 0.56845 0.0
C88 C 0.17947 0.97492 0.53399 0.0
C89 C 0.2096 0.8985 0.65719 0.0
C90 C 0.15667 0.9068 0.62636 0.0
C91 C 0.24751 0.93137 0.62575 0.0
C92 C 0.23249 0.96887 0.56297 0.0
H93 H 0.10198 0.75676 0.77242 0.0
H94 H 0.19561 0.78782 0.78692 0.0
H95 H 0.26342 0.84984 0.74169 0.0
O96 O 0.08756 0.91534 0.47249 0.0
O97 O 0.04882 0.95258 0.63939 0.0
O98 O 0.06052 0.03661 0.65178 0.0
O99 O 1.00282 0.91759 0.47006 0.0
O100 O 0.08733 0.03469 0.49586 0.0
O101 O 0.07823 0.07945 0.57653 0.0
O102 O 0.96074 0.06611 0.67475 0.0
O103 O 0.961 0.05288 0.493 0.0
O104 O 0.02852 0.02784 0.44843 0.0
O105 O 0.98078 0.1447 0.6226 0.0
O106 O 0.95032 1.00713 0.61472 0.0
O107 O 0.97047 0.94805 0.55375 0.0
C108 C 0.06683 0.98486 0.67663 0.0
C109 C 0.03407 0.86991 0.39637 0.0
C110 C 0.05981 0.84531 0.29842 0.0
C111 C 1.01172 0.81943 0.29066 0.0
C112 C 0.98647 0.84345 0.38767 0.0
C113 C 0.97566 0.81803 0.33549 0.0
C114 C 0.07133 0.86967 0.35251 0.0
C115 C 0.102 0.07175 0.5269 0.0
C116 C 0.04179 0.90212 0.44613 0.0
C117 C 0.18452 0.82096 0.74223 0.0
C118 C 0.22307 0.85639 0.71659 0.0
C119 C 0.98554 0.05583 0.44068 0.0
C120 C 0.98833 0.12422 0.74233 0.0
C121 C 0.97928 0.14636 0.84816 0.0
C122 C 0.03401 0.14226 0.86722 0.0
C123 C 0.04297 0.12108 0.76139 0.0
C124 C 0.95653 0.13721 0.78557 0.0
C125 C 0.06568 0.12972 0.82385 0.0
C126 C 0.94234 0.96326 0.59499 0.0
C127 C 0.96417 0.11517 0.6769 0.0
H128 H 1.00201 0.80049 0.24947 0.0
H129 H 0.95714 0.84315 0.42054 0.0
H130 H 0.93873 0.79803 0.32895 0.0
H131 H 0.10801 0.89036 0.35823 0.0
H132 H 0.05212 0.14919 0.91537 0.0
H133 H 0.06785 0.11258 0.72752 0.0
H134 H 0.91429 0.14039 0.77062 0.0
H135 H 0.10788 0.12707 0.83842 0.0
Tb136 Tb 0.47502 0.48964 0.0205 0.0
C137 C 0.67334 0.61836 0.08306 0.0
N138 N 0.66161 0.56656 0.10822 0.0
C139 C 0.74553 0.54007 0.09041 0.0
C140 C 0.72064 0.63298 0.05675 0.0
C141 C 0.69814 0.52767 0.11622 0.0
C142 C 0.7564 0.59289 0.05928 0.0
C143 C 0.65044 0.71089 0.06385 0.0
C144 C 0.63852 0.65662 0.08632 0.0
C145 C 0.69633 0.72586 0.03453 0.0
C146 C 0.73133 0.68697 0.03088 0.0
Tb147 Tb 0.5825 0.55032 0.14596 0.0
N148 N 0.59436 0.64055 0.11471 0.0
C149 C 0.61637 0.7484 0.07267 0.0
C150 C 0.56314 0.67702 0.12789 0.0
C151 C 0.57301 0.7313 0.1058 0.0
H152 H 0.6906 0.48698 0.14172 0.0
H153 H 0.54754 0.75991 0.11527 0.0
H154 H 0.36979 0.5722 0.97139 0.0
H155 H 0.48755 0.27962 0.14282 0.0
H156 H 0.53111 0.66471 0.15673 0.0
H157 H 0.62407 0.79046 0.05601 0.0
H158 H 0.51591 0.36523 0.07184 0.0
H159 H 0.77374 0.50893 0.09491 0.0
H160 H 0.70572 0.76738 0.01603 0.0
H161 H 0.7672 0.69906 1.0097 0.0
H162 H 0.28131 0.5741 1.00158 0.0
H163 H 0.79323 0.60243 0.0396 0.0
H164 H 0.40337 0.27492 0.18867 0.0
N165 N 0.38979 0.49541 0.03936 0.0
C166 C 0.37092 0.45096 0.07983 0.0
C167 C 0.30635 0.53939 0.02475 0.0
C168 C 0.31981 0.44965 0.09691 0.0
C169 C 0.35719 0.53849 1.00887 0.0
C170 C 0.28781 0.49505 0.06979 0.0
N171 N 0.45026 0.4085 0.08156 0.0
C172 C 0.47957 0.36343 0.09257 0.0
C173 C 0.38399 0.35805 0.14146 0.0
C174 C 0.40221 0.40582 0.1016 0.0
C175 C 0.41586 0.31247 0.158 0.0
C176 C 0.46341 0.31498 0.13227 0.0
H177 H 0.24834 0.49577 0.08175 0.0
H178 H 0.26334 0.40138 0.15415 0.0
H179 H 0.31974 0.32105 0.19339 0.0
O180 O 0.49327 0.45059 0.94897 0.0
O181 O 0.49401 0.45616 0.13224 0.0
O182 O 0.50776 0.52395 0.18212 0.0
O183 O 0.42134 0.49436 0.93067 0.0
O184 O 0.55678 0.46169 0.03493 0.0
O185 O 0.59527 0.46762 0.14329 0.0
O186 O 0.61823 0.58351 0.22421 0.0
O187 O 0.59468 0.55579 0.04002 0.0
O188 O 0.51334 0.56386 0.97309 0.0
O189 O 0.61408 0.49914 0.24152 0.0
O190 O 0.50461 0.58916 0.11902 0.0
O191 O 0.45983 0.57216 0.01956 0.0
C192 C 0.48359 0.48008 0.1774 0.0
C193 C 0.4209 0.42215 0.88298 0.0
C194 C 0.3938 0.38211 0.78902 0.0
C195 C 0.36354 0.34565 0.83069 0.0
C196 C 0.39011 0.38568 0.92391 0.0
C197 C 0.3619 0.34739 0.89796 0.0
C198 C 0.42293 0.42002 0.81554 0.0
C199 C 0.59186 0.44648 0.09084 0.0
C200 C 0.4492 0.46409 0.90834 0.0
C201 C 0.30214 0.4029 0.13948 0.0
C202 C 0.33424 0.35716 0.16184 0.0
C203 C 0.56325 0.57647 0.98232 0.0
C204 C 0.60549 0.53479 0.3347 0.0
C205 C 0.60902 0.56502 0.43795 0.0
C206 C 0.56663 0.53245 0.45661 0.0
C207 C 0.56256 0.503 0.35368 0.0
C208 C 0.62845 0.56606 0.37704 0.0
C209 C 0.54347 0.50164 0.41445 0.0
C210 C 0.46594 0.59872 0.06676 0.0
C211 C 0.62512 0.53796 0.26959 0.0
H212 H 0.34089 0.3162 0.81086 0.0
H213 H 0.38721 0.38716 0.97538 0.0
H214 H 0.3382 0.31943 0.92979 0.0
H215 H 0.44609 0.44843 0.78323 0.0
H216 H 0.55128 0.53132 0.50345 0.0
H217 H 0.54344 0.47965 0.32137 0.0
H218 H 0.66108 0.59144 0.36253 0.0
H219 H 0.5104 0.47695 0.42858 0.0
C220 C 0.2136 0.1656 0.54425 0.0
C221 C 0.21096 0.19719 0.47518 0.0
C222 C 0.15444 0.1303 0.43654 0.0
C223 C 0.14768 0.10647 0.50625 0.0
N224 N 0.19481 0.08088 0.62028 0.0
N225 N 0.18944 0.20334 0.35441 0.0
C226 C 0.18445 0.1181 0.55858 0.0
C227 C 0.18527 0.17706 0.42092 0.0
N228 N 0.24279 0.18146 0.59653 0.0
N229 N 0.135 0.10679 0.38602 0.0
H230 H 0.21763 0.23211 0.3414 0.0
H231 H 0.16481 0.19729 0.31202 0.0
H232 H 0.11473 0.07147 0.39432 0.0
H233 H 0.14297 0.11939 0.33585 0.0
H234 H 0.23994 0.16443 0.64814 0.0
H235 H 0.26893 0.21268 0.58828 0.0
H236 H 0.2248 0.084 0.65923 0.0
H237 H 0.17735 0.04368 0.62871 0.0
C238 C 0.36171 0.68551 0.10603 0.0
C239 C 0.33781 0.71076 0.03816 0.0
C240 C 0.4079 0.67594 0.99219 0.0
C241 C 0.42646 0.64251 0.05922 0.0
N242 N 0.42994 0.62885 0.18299 0.0
N243 N 0.34291 0.73952 0.91728 0.0
C244 C 0.40638 0.65143 0.11713 0.0
C245 C 0.36288 0.70937 0.98159 0.0
N246 N 0.33984 0.69216 0.1602 0.0
N247 N 0.43538 0.67834 0.93926 0.0
H248 H 0.31565 0.77025 0.90884 0.0
H249 H 0.35251 0.73406 0.87201 0.0
H250 H 0.46946 0.65652 0.94454 0.0
H251 H 0.42775 0.70541 0.89114 0.0
H252 H 0.34765 0.66768 0.21007 0.0
H253 H 0.31234 0.72205 0.15507 0.0
H254 H 0.42358 0.64176 0.22498 0.0
H255 H 0.45771 0.59856 0.19776 0.0
C256 C 0.84629 0.87536 0.70301 0.0
C257 C 0.81229 0.85936 0.65113 0.0
C258 C 0.8607 0.91465 0.56381 0.0
C259 C 0.89518 0.93088 0.61522 0.0
N260 N 0.90832 0.93889 0.7325 0.0
N261 N 0.79867 0.85025 0.53551 0.0
C262 C 0.88469 0.91473 0.68455 0.0
C263 C 0.82302 0.87485 0.58254 0.0
N264 N 0.84402 0.85064 0.7706 0.0
N265 N 0.8599 0.94181 0.49657 0.0
H266 H 0.7727 0.81916 0.54778 0.0
H267 H 0.80899 0.8563 0.48668 0.0
H268 H 0.88113 0.97641 0.4826 0.0
H269 H 0.83265 0.93536 0.45659 0.0
H270 H 0.87196 0.85566 0.81076 0.0
H271 H 0.81799 0.82022 0.78645 0.0
H272 H 0.89627 0.93377 0.7802 0.0
H273 H 0.93677 0.96764 0.72395 0.0
C274 C 0.69369 0.36816 0.0378 0.0
C275 C 0.69794 0.3204 0.09192 0.0
C276 C 0.6342 0.35567 0.14641 0.0
C277 C 0.63059 0.40402 0.09355 0.0
N278 N 0.67058 0.46141 1.002 0.0
N279 N 0.68893 0.27978 0.21073 0.0
C280 C 0.66423 0.41175 0.04283 0.0
C281 C 0.6736 0.3176 0.15051 0.0
N282 N 0.71754 0.37216 0.98132 0.0
N283 N 0.59825 0.34447 0.1905 0.0
H284 H 0.72065 0.25396 0.21772 0.0
H285 H 0.67479 0.27893 0.25615 0.0
H286 H 0.56661 0.36968 0.18527 0.0
H287 H 0.59623 0.3077 0.22601 0.0
H288 H 0.70967 0.40315 0.9366 0.0
H289 H 0.74333 0.34346 0.97751 0.0
H290 H 0.69893 0.4707 0.9695 0.0
H291 H 0.65156 0.49446 1.00657 0.0
C292 C 0.14236 0.89575 0.15345 0.0
C293 C 0.15233 0.84738 0.13831 0.0
C294 C 0.11529 0.79866 0.24069 0.0
C295 C 0.09678 0.84706 0.24813 0.0
N296 N 0.08614 0.94232 0.20348 0.0
N297 N 0.13909 0.75265 0.16164 0.0
C298 C 0.10886 0.89595 0.20268 0.0
C299 C 0.13669 0.79863 0.18064 0.0
N300 N 0.16561 0.94137 0.12172 0.0
N301 N 0.11283 0.7527 0.29136 0.0
H302 H 0.15183 0.75092 0.11629 0.0
H303 H 0.1232 0.7172 0.18733 0.0
H304 H 0.09848 0.75156 0.33679 0.0
H305 H 0.13011 0.71713 0.29141 0.0
H306 H 0.16352 0.97669 0.13551 0.0
H307 H 0.19148 0.94244 0.08677 0.0
H308 H 0.08936 0.97804 0.16647 0.0
H309 H 0.06007 0.94438 0.237 0.0
C310 C 0.64602 0.60178 0.83898 0.0
C311 C 0.64461 0.65784 0.81395 0.0
C312 C 0.59053 0.66192 0.90191 0.0
C313 C 0.58743 0.6056 0.92095 0.0
N314 N 0.59638 0.52557 0.88658 0.0
N315 N 0.60686 0.74135 0.81369 0.0
C316 C 0.61054 0.57654 0.88341 0.0
C317 C 0.61456 0.68817 0.84336 0.0
N318 N 0.68189 0.57237 0.82134 0.0
N319 N 0.57042 0.69036 0.93935 0.0
H320 H 0.6229 0.76164 0.77026 0.0
H321 H 0.58092 0.76447 0.8284 0.0
H322 H 0.55198 0.6724 0.98151 0.0
H323 H 0.57549 0.73102 0.93188 0.0
H324 H 0.68667 0.53151 0.84272 0.0
H325 H 0.71057 0.58957 0.79164 0.0
H326 H 0.60868 0.5044 0.85505 0.0
H327 H 0.5682 0.50679 0.91559 0.0
C328 C 0.95133 0.16524 0.27342 0.0
C329 C 0.9049 0.14436 0.24435 0.0
C330 C 0.9171 0.06227 0.33738 0.0
C331 C 0.96054 0.08475 0.37029 0.0
N332 N 0.02587 0.15242 0.36427 0.0
N333 N 0.83951 0.07645 0.25114 0.0
C334 C 0.97975 0.13478 0.33651 0.0
C335 C 0.88659 0.09385 0.27709 0.0
N336 N 0.96676 0.21515 0.24186 0.0
N337 N 0.90794 1.00934 0.36037 0.0
H338 H 0.81659 0.09808 0.20609 0.0
H339 H 0.8212 0.04271 0.27709 0.0
H340 H 0.93266 0.98445 0.40072 0.0
H341 H 0.88005 0.9891 0.33496 0.0
H342 H 0.99731 0.23536 0.26269 0.0
H343 H 0.94701 0.2383 0.19538 0.0
H344 H 0.04603 0.1852 0.33974 0.0
H345 H 0.04501 0.13292 0.41267 0.0
C346 C 0.34725 0.40249 0.59853 0.0
C347 C 0.3808 0.3662 0.58395 0.0
C348 C 0.42768 0.3455 0.7018 0.0
C349 C 0.39342 0.38096 0.71679 0.0
N350 N 0.32813 0.45118 0.67788 0.0
N351 N 0.45907 0.31155 0.6151 0.0
C352 C 0.35571 0.41221 0.66442 0.0
C353 C 0.42316 0.34047 0.6336 0.0
N354 N 0.30596 0.42584 0.55019 0.0
N355 N 0.46324 0.31539 0.75343 0.0
H356 H 0.45633 0.3068 0.56566 0.0
H357 H 0.49362 0.29567 0.64664 0.0
H358 H 0.46912 0.31983 0.80319 0.0
H359 H 0.48522 0.28433 0.74824 0.0
H360 H 0.27614 0.44749 0.55997 0.0
H361 H 0.29988 0.42138 0.50045 0.0
H362 H 0.304 0.47904 0.64041 0.0
H363 H 0.33233 0.45839 0.72611 0.0
C364 C 0.62876 0.67881 0.52205 0.0
C365 C 0.66797 0.65608 0.57831 0.0
C366 C 0.67582 0.57888 0.53386 0.0
C367 C 0.63233 0.59863 0.48238 0.0
N368 N 0.56625 0.66616 0.42637 0.0
N369 N 0.72885 0.58487 0.64013 0.0
C370 C 0.60877 0.64858 0.47573 0.0
C371 C 0.69196 0.60644 0.58444 0.0
N372 N 0.61105 0.72942 0.51297 0.0
N373 N 0.70178 0.53393 0.53394 0.0
H374 H 0.74378 0.60516 0.67613 0.0
H375 H 0.74308 0.54605 0.6528 0.0
H376 H 0.69003 0.51189 0.49889 0.0
H377 H 0.73704 0.52029 0.56536 0.0
H378 H 0.58614 0.75055 0.46974 0.0
H379 H 0.62442 0.7521 0.54677 0.0
H380 H 0.54326 0.69902 0.42341 0.0
H381 H 0.55213 0.64623 0.38965 0.0
C382 C 0.88343 0.13762 0.97558 0.0
C383 C 0.89246 0.18695 0.99129 0.0
C384 C 0.94843 0.21353 0.90142 0.0
C385 C 0.94607 0.16124 0.89367 0.0
N386 N 0.91554 0.07134 0.92813 0.0
N387 N 0.93827 0.2701 0.97481 0.0
C388 C 0.91428 0.12272 0.93154 0.0
C389 C 0.92582 0.22477 0.95526 0.0
N390 N 0.84499 0.10529 1.00245 0.0
N391 N 0.97164 0.25258 0.85664 0.0
H392 H 0.92275 0.27994 0.01409 0.0
H393 H 0.96718 0.29598 0.95573 0.0
H394 H 0.98834 0.24575 0.81631 0.0
H395 H 0.96991 0.29254 0.85543 0.0
H396 H 0.8331 0.07114 0.98787 0.0
H397 H 0.82148 0.11538 0.03452 0.0
H398 H 0.89785 0.04033 0.96044 0.0
H399 H 0.93782 0.05871 0.89674 0.0
C400 C 0.37825 0.44235 0.29574 0.0
C401 C 0.39725 0.39156 0.33667 0.0
C402 C 0.47538 0.40268 0.27973 0.0
C403 C 0.4544 0.45105 0.23398 0.0
N404 N 0.38326 0.51503 0.19403 0.0
N405 N 0.45936 0.31922 0.35995 0.0
C406 C 0.40512 0.47053 0.24099 0.0
C407 C 0.44414 0.37028 0.32573 0.0
N408 N 0.33484 0.46381 0.30987 0.0
N409 N 0.52696 0.39 0.28374 0.0
H410 H 0.43861 0.2947 0.39604 0.0
H411 H 0.48999 0.29981 0.34812 0.0
H412 H 0.5523 0.41587 0.25622 0.0
H413 H 0.5461 0.3578 0.32048 0.0
H414 H 0.32234 0.50301 0.2878 0.0
H415 H 0.31262 0.443 0.34687 0.0
H416 H 0.34555 0.52913 0.19218 0.0
H417 H 0.4014 0.53561 0.15278 0.0
C418 C 0.16266 0.95581 0.84892 0.0
C419 C 0.14547 0.90506 0.88246 0.0
C420 C 0.07322 0.9107 0.78803 0.0
C421 C 0.09184 0.96058 0.75057 0.0
N422 N 0.14781 0.03634 0.75732 0.0
N423 N 0.09069 0.82975 0.88019 0.0
C424 C 0.13476 0.98481 0.7842 0.0
C425 C 0.10247 0.88144 0.85102 0.0
N426 N 0.20751 0.97544 0.87779 0.0
N427 N 0.02516 0.89275 0.76663 0.0
H428 H 0.11064 0.80702 0.92681 0.0
H429 H 0.06424 0.80771 0.85559 0.0
H430 H 1.00076 0.91252 0.72261 0.0
H431 H 1.00652 0.861 0.7963 0.0
H432 H 0.22769 1.00767 0.85176 0.0
H433 H 0.22725 0.95707 0.92666 0.0
H434 H 0.17207 0.05813 0.78486 0.0
H435 H 0.13192 0.06016 0.70992 0.0
loop_
_geom_bond_atom_site_label_1
_geom_bond_atom_site_label_2
_geom_bond_distance
_geom_bond_site_symmetry_2
_ccdc_geom_bond_type
H0 C7 0.929 . S
H1 C10 0.930 . S
H2 C12 0.929 . S
H3 C4 0.969 . S
C4 H3 0.969 . S
C4 O5 1.550 . S
C4 H6 0.973 . S
O5 C4 1.550 . S
O5 C11 1.412 . S
H6 C4 0.973 . S
C7 H0 0.929 . S
C7 C8 1.400 1_554 S
C7 C9 1.364 . S
C8 C7 1.400 1_556 S
C8 C12 1.377 . S
C9 C7 1.364 . S
C9 C10 1.374 . S
C10 H1 0.930 . S
C10 C9 1.374 . S
C10 C11 1.383 . S
C11 O5 1.412 . S
C11 C10 1.383 . S
C11 C12 1.394 1_554 S
C12 H2 0.929 . S
C12 C8 1.377 . S
C12 C11 1.394 1_556 S
H13 C20 0.929 . S
H14 C23 0.930 . S
H15 C25 0.929 . S
H16 C17 0.969 . S
C17 H16 0.969 . S
C17 O18 1.550 . S
C17 H19 0.973 . S
O18 C17 1.550 . S
O18 C24 1.412 . S
H19 C17 0.973 . S
C20 H13 0.929 . S
C20 C21 1.400 . S
C20 C22 1.364 . S
C21 C20 1.400 . S
C21 C25 1.377 . S
C22 C20 1.364 . S
C22 C23 1.374 . S
C23 H14 0.930 . S
C23 C22 1.374 . S
C23 C24 1.383 . S
C24 O18 1.412 . S
C24 C23 1.383 . S
C24 C25 1.394 . S
C25 H15 0.929 . S
C25 C21 1.377 . S
C25 C24 1.394 . S
H26 C33 0.929 . S
H27 C36 0.930 . S
H28 C38 0.929 . S
H29 C30 0.969 . S
C30 H29 0.969 . S
C30 O31 1.550 . S
C30 H32 0.973 . S
O31 C30 1.550 . S
O31 C37 1.412 . S
H32 C30 0.973 . S
C33 H26 0.929 . S
C33 C34 1.400 . S
C33 C35 1.364 . S
C34 C33 1.400 . S
C34 C38 1.377 . S
C35 C33 1.364 . S
C35 C36 1.374 . S
C36 H27 0.930 . S
C36 C35 1.374 . S
C36 C37 1.383 . S
C37 O31 1.412 . S
C37 C36 1.383 . S
C37 C38 1.394 . S
C38 H28 0.929 . S
C38 C34 1.377 . S
C38 C37 1.394 . S
H39 C46 0.929 . S
H40 C49 0.930 . S
H41 C51 0.929 . S
H42 C43 0.969 . S
C43 H42 0.969 . S
C43 O44 1.550 . S
C43 H45 0.973 . S
O44 C43 1.550 . S
O44 C50 1.412 . S
H45 C43 0.973 . S
C46 H39 0.929 . S
C46 C47 1.400 . S
C46 C48 1.364 . S
C47 C46 1.400 . S
C47 C51 1.377 . S
C48 C46 1.364 . S
C48 C49 1.374 . S
C49 H40 0.930 . S
C49 C48 1.374 . S
C49 C50 1.383 . S
C50 O44 1.412 . S
C50 C49 1.383 . S
C50 C51 1.394 . S
C51 H41 0.929 . S
C51 C47 1.377 . S
C51 C50 1.394 . S
Tb52 N81 2.617 . S
Tb52 N87 2.572 . S
Tb52 O96 2.465 . S
Tb52 O97 2.387 . S
Tb52 O99 2.428 . S
Tb52 O100 2.308 1_565 S
Tb52 O104 2.349 1_465 S
Tb52 O107 2.393 1_455 S
Tb52 C116 2.802 . S
C53 N54 1.379 . S
C53 C56 1.416 . S
C53 C60 1.424 . S
N54 C53 1.379 . S
N54 C57 1.334 1_655 S
N54 Tb63 2.617 . S
C55 C57 1.390 . S
C55 C58 1.339 1_455 S
C55 H75 0.930 . S
C56 C53 1.416 . S
C56 C58 1.416 . S
C56 C62 1.448 . S
C57 N54 1.334 1_455 S
C57 C55 1.390 . S
C57 H68 0.930 . S
C58 C55 1.339 1_655 S
C58 C56 1.416 . S
C58 H79 0.930 . S
C59 C60 1.413 . S
C59 C61 1.427 . S
C59 C65 1.416 . S
C60 C53 1.424 . S
C60 C59 1.413 . S
C60 N64 1.361 . S
C61 C59 1.427 . S
C61 C62 1.328 . S
C61 H76 0.929 . S
C62 C56 1.448 . S
C62 C61 1.328 . S
C62 H77 0.930 . S
Tb63 N54 2.617 . S
Tb63 N64 2.572 . S
Tb63 O98 2.349 1_655 S
Tb63 O101 2.393 1_655 S
Tb63 O102 2.465 . S
Tb63 O103 2.387 . S
Tb63 O105 2.428 . S
Tb63 O106 2.308 1_545 S
Tb63 C127 2.802 . S
N64 C60 1.361 . S
N64 Tb63 2.572 . S
N64 C66 1.340 . S
C65 C59 1.416 . S
C65 C67 1.332 . S
C65 H73 0.931 . S
C66 N64 1.340 . S
C66 C67 1.407 . S
C66 H72 0.930 . S
C67 C65 1.332 . S
C67 C66 1.407 . S
C67 H69 0.929 . S
H68 C57 0.930 . S
H69 C67 0.929 . S
H70 C85 0.930 1_655 S
H71 C92 0.929 . S
H72 C66 0.930 . S
H73 C65 0.931 . S
H74 C88 0.930 . S
H75 C55 0.930 . S
H76 C61 0.929 . S
H77 C62 0.930 . S
H78 C83 0.930 1_655 S
H79 C58 0.930 . S
H80 C91 0.931 . S
N81 Tb52 2.617 . S
N81 C82 1.379 . S
N81 C85 1.334 . S
C82 N81 1.379 . S
C82 C84 1.416 . S
C82 C90 1.424 . S
C83 H78 0.930 1_455 S
C83 C85 1.390 . S
C83 C86 1.339 . S
C84 C82 1.416 . S
C84 C86 1.416 . S
C84 C117 1.448 . S
C85 H70 0.930 1_455 S
C85 N81 1.334 . S
C85 C83 1.390 . S
C86 C83 1.339 . S
C86 C84 1.416 . S
C86 H93 0.930 . S
N87 Tb52 2.572 . S
N87 C88 1.340 . S
N87 C90 1.361 . S
C88 H74 0.930 . S
C88 N87 1.340 . S
C88 C92 1.407 . S
C89 C90 1.413 . S
C89 C91 1.416 . S
C89 C118 1.427 . S
C90 C82 1.424 . S
C90 N87 1.361 . S
C90 C89 1.413 . S
C91 H80 0.931 . S
C91 C89 1.416 . S
C91 C92 1.332 . S
C92 H71 0.929 . S
C92 C88 1.407 . S
C92 C91 1.332 . S
H93 C86 0.930 . S
H94 C117 0.930 . S
H95 C118 0.929 . S
O96 Tb52 2.465 . S
O96 C116 1.264 . S
O97 Tb52 2.387 . S
O97 C108 1.264 . S
O98 Tb63 2.349 1_455 S
O98 C108 1.243 1_545 S
O99 Tb52 2.428 . S
O99 C116 1.256 . S
O100 Tb52 2.308 1_545 S
O100 C115 1.266 . S
O101 Tb63 2.393 1_455 S
O101 C115 1.248 . S
O102 Tb63 2.465 . S
O102 C127 1.264 . S
O103 Tb63 2.387 . S
O103 C119 1.264 . S
O104 Tb52 2.349 1_645 S
O104 C119 1.243 . S
O105 Tb63 2.428 . S
O105 C127 1.256 . S
O106 Tb63 2.308 1_565 S
O106 C126 1.266 . S
O107 Tb52 2.393 1_655 S
O107 C126 1.248 . S
C108 O97 1.264 . S
C108 O98 1.243 1_565 S
C109 C112 1.399 . S
C109 C114 1.383 . S
C109 C116 1.496 . S
C110 C111 1.399 . S
C110 C114 1.389 . S
C111 C110 1.399 . S
C111 C113 1.380 . S
C111 H128 0.929 . S
C112 C109 1.399 . S
C112 C113 1.392 . S
C112 H129 0.929 . S
C113 C111 1.380 . S
C113 C112 1.392 . S
C113 H130 0.929 . S
C114 C109 1.383 . S
C114 C110 1.389 . S
C114 H131 0.931 . S
C115 O100 1.266 . S
C115 O101 1.248 . S
C116 Tb52 2.802 . S
C116 O96 1.264 . S
C116 O99 1.256 . S
C116 C109 1.496 . S
C117 C84 1.448 . S
C117 H94 0.930 . S
C117 C118 1.328 . S
C118 C89 1.427 . S
C118 H95 0.929 . S
C118 C117 1.328 . S
C119 O103 1.264 . S
C119 O104 1.243 . S
C120 C123 1.399 . S
C120 C124 1.383 . S
C120 C127 1.496 . S
C121 C122 1.399 . S
C121 C124 1.389 . S
C122 C121 1.399 . S
C122 C125 1.380 . S
C122 H132 0.929 . S
C123 C120 1.399 . S
C123 C125 1.392 . S
C123 H133 0.929 . S
C124 C120 1.383 . S
C124 C121 1.389 . S
C124 H134 0.931 . S
C125 C122 1.380 . S
C125 C123 1.392 . S
C125 H135 0.929 . S
C126 O106 1.266 . S
C126 O107 1.248 . S
C127 Tb63 2.802 . S
C127 O102 1.264 . S
C127 O105 1.256 . S
C127 C120 1.496 . S
H128 C111 0.929 . S
H129 C112 0.929 . S
H130 C113 0.929 . S
H131 C114 0.931 . S
H132 C122 0.929 . S
H133 C123 0.929 . S
H134 C124 0.931 . S
H135 C125 0.929 . S
Tb136 N165 2.617 . S
Tb136 N171 2.572 1_556 S
Tb136 O180 2.465 . S
Tb136 O181 2.387 1_556 S
Tb136 O183 2.428 . S
Tb136 O184 2.308 1_556 S
Tb136 O188 2.349 . S
Tb136 O191 2.393 1_556 S
Tb136 C200 2.802 . S
C137 N138 1.379 . S
C137 C140 1.416 . S
C137 C144 1.424 . S
N138 C137 1.379 . S
N138 C141 1.334 . S
N138 Tb147 2.617 . S
C139 C141 1.390 . S
C139 C142 1.339 . S
C139 H159 0.930 . S
C140 C137 1.416 . S
C140 C142 1.416 . S
C140 C146 1.448 . S
C141 N138 1.334 . S
C141 C139 1.390 . S
C141 H152 0.930 . S
C142 C139 1.339 . S
C142 C140 1.416 . S
C142 H163 0.930 . S
C143 C144 1.413 . S
C143 C145 1.427 . S
C143 C149 1.416 . S
C144 C137 1.424 . S
C144 C143 1.413 . S
C144 N148 1.361 . S
C145 C143 1.427 . S
C145 C146 1.328 . S
C145 H160 0.929 . S
C146 C140 1.448 . S
C146 C145 1.328 . S
C146 H161 0.930 . S
Tb147 N138 2.617 . S
Tb147 N148 2.572 . S
Tb147 O182 2.349 . S
Tb147 O185 2.393 . S
Tb147 O186 2.465 . S
Tb147 O187 2.387 . S
Tb147 O189 2.428 . S
Tb147 O190 2.308 . S
Tb147 C211 2.802 . S
N148 C144 1.361 . S
N148 Tb147 2.572 . S
N148 C150 1.340 . S
C149 C143 1.416 . S
C149 C151 1.332 . S
C149 H157 0.931 . S
C150 N148 1.340 . S
C150 C151 1.407 . S
C150 H156 0.930 . S
C151 C149 1.332 . S
C151 C150 1.407 . S
C151 H153 0.929 . S
H152 C141 0.930 . S
H153 C151 0.929 . S
H154 C169 0.930 . S
H155 C176 0.929 . S
H156 C150 0.930 . S
H157 C149 0.931 . S
H158 C172 0.930 . S
H159 C139 0.930 . S
H160 C145 0.929 . S
H161 C146 0.930 . S
H162 C167 0.930 . S
H163 C142 0.930 . S
H164 C175 0.931 . S
N165 Tb136 2.617 . S
N165 C166 1.379 1_556 S
N165 C169 1.334 . S
C166 N165 1.379 1_554 S
C166 C168 1.416 . S
C166 C174 1.424 . S
C167 H162 0.930 . S
C167 C169 1.390 . S
C167 C170 1.339 1_556 S
C168 C166 1.416 . S
C168 C170 1.416 . S
C168 C201 1.448 . S
C169 H154 0.930 . S
C169 N165 1.334 . S
C169 C167 1.390 . S
C170 C167 1.339 1_554 S
C170 C168 1.416 . S
C170 H177 0.930 . S
N171 Tb136 2.572 1_554 S
N171 C172 1.340 . S
N171 C174 1.361 . S
C172 H158 0.930 . S
C172 N171 1.340 . S
C172 C176 1.407 . S
C173 C174 1.413 . S
C173 C175 1.416 . S
C173 C202 1.427 . S
C174 C166 1.424 . S
C174 N171 1.361 . S
C174 C173 1.413 . S
C175 H164 0.931 . S
C175 C173 1.416 . S
C175 C176 1.332 . S
C176 H155 0.929 . S
C176 C172 1.407 . S
C176 C175 1.332 . S
H177 C170 0.930 . S
H178 C201 0.930 . S
H179 C202 0.929 . S
O180 Tb136 2.465 . S
O180 C200 1.264 . S
O181 Tb136 2.387 1_554 S
O181 C192 1.264 . S
O182 Tb147 2.349 . S
O182 C192 1.243 . S
O183 Tb136 2.428 . S
O183 C200 1.256 . S
O184 Tb136 2.308 1_554 S
O184 C199 1.266 . S
O185 Tb147 2.393 . S
O185 C199 1.248 . S
O186 Tb147 2.465 . S
O186 C211 1.264 . S
O187 Tb147 2.387 . S
O187 C203 1.264 1_554 S
O188 Tb136 2.349 . S
O188 C203 1.243 . S
O189 Tb147 2.428 . S
O189 C211 1.256 . S
O190 Tb147 2.308 . S
O190 C210 1.266 . S
O191 Tb136 2.393 1_554 S
O191 C210 1.248 . S
C192 O181 1.264 . S
C192 O182 1.243 . S
C193 C196 1.399 . S
C193 C198 1.383 . S
C193 C200 1.496 . S
C194 C195 1.399 . S
C194 C198 1.389 . S
C195 C194 1.399 . S
C195 C197 1.380 . S
C195 H212 0.929 . S
C196 C193 1.399 . S
C196 C197 1.392 . S
C196 H213 0.929 . S
C197 C195 1.380 . S
C197 C196 1.392 . S
C197 H214 0.929 . S
C198 C193 1.383 . S
C198 C194 1.389 . S
C198 H215 0.931 . S
C199 O184 1.266 . S
C199 O185 1.248 . S
C200 Tb136 2.802 . S
C200 O180 1.264 . S
C200 O183 1.256 . S
C200 C193 1.496 . S
C201 C168 1.448 . S
C201 H178 0.930 . S
C201 C202 1.328 . S
C202 C173 1.427 . S
C202 H179 0.929 . S
C202 C201 1.328 . S
C203 O187 1.264 1_556 S
C203 O188 1.243 . S
C204 C207 1.399 . S
C204 C208 1.383 . S
C204 C211 1.496 . S
C205 C206 1.399 . S
C205 C208 1.389 . S
C206 C205 1.399 . S
C206 C209 1.380 . S
C206 H216 0.929 . S
C207 C204 1.399 . S
C207 C209 1.392 . S
C207 H217 0.929 . S
C208 C204 1.383 . S
C208 C205 1.389 . S
C208 H218 0.931 . S
C209 C206 1.380 . S
C209 C207 1.392 . S
C209 H219 0.929 . S
C210 O190 1.266 . S
C210 O191 1.248 . S
C211 Tb147 2.802 . S
C211 O186 1.264 . S
C211 O189 1.256 . S
C211 C204 1.496 . S
H212 C195 0.929 . S
H213 C196 0.929 . S
H214 C197 0.929 . S
H215 C198 0.931 . S
H216 C206 0.929 . S
H217 C207 0.929 . S
H218 C208 0.931 . S
H219 C209 0.929 . S
C220 C221 1.363 . S
C220 C226 1.379 . S
C220 N228 1.356 . S
C221 C220 1.363 . S
C221 C227 1.363 . S
C222 C223 1.363 . S
C222 C227 1.379 . S
C222 N229 1.356 . S
C223 C222 1.363 . S
C223 C226 1.363 . S
N224 C226 1.356 . S
N224 H236 0.984 . S
N224 H237 0.985 . S
N225 C227 1.356 . S
N225 H230 0.984 . S
N225 H231 0.985 . S
C226 C220 1.379 . S
C226 C223 1.363 . S
C226 N224 1.356 . S
C227 C221 1.363 . S
C227 C222 1.379 . S
C227 N225 1.356 . S
N228 C220 1.356 . S
N228 H234 0.984 . S
N228 H235 0.984 . S
N229 C222 1.356 . S
N229 H232 0.984 . S
N229 H233 0.985 . S
H230 N225 0.984 . S
H231 N225 0.985 . S
H232 N229 0.984 . S
H233 N229 0.985 . S
H234 N228 0.984 . S
H235 N228 0.984 . S
H236 N224 0.984 . S
H237 N224 0.985 . S
C238 C239 1.363 . S
C238 C244 1.379 . S
C238 N246 1.356 . S
C239 C238 1.363 . S
C239 C245 1.363 . S
C240 C241 1.363 . S
C240 C245 1.379 . S
C240 N247 1.356 1_554 S
C241 C240 1.363 . S
C241 C244 1.363 . S
N242 C244 1.356 . S
N242 H254 0.984 . S
N242 H255 0.985 . S
N243 C245 1.356 1_556 S
N243 H248 0.984 . S
N243 H249 0.985 . S
C244 C238 1.379 . S
C244 C241 1.363 . S
C244 N242 1.356 . S
C245 C239 1.363 . S
C245 C240 1.379 . S
C245 N243 1.356 1_554 S
N246 C238 1.356 . S
N246 H252 0.984 . S
N246 H253 0.984 . S
N247 C240 1.356 1_556 S
N247 H250 0.984 . S
N247 H251 0.985 . S
H248 N243 0.984 . S
H249 N243 0.985 . S
H250 N247 0.984 . S
H251 N247 0.985 . S
H252 N246 0.984 . S
H253 N246 0.984 . S
H254 N242 0.984 . S
H255 N242 0.985 . S
C256 C257 1.363 . S
C256 C262 1.379 . S
C256 N264 1.356 . S
C257 C256 1.363 . S
C257 C263 1.363 . S
C258 C259 1.363 . S
C258 C263 1.379 . S
C258 N265 1.356 . S
C259 C258 1.363 . S
C259 C262 1.363 . S
N260 C262 1.356 . S
N260 H272 0.984 . S
N260 H273 0.985 . S
N261 C263 1.356 . S
N261 H266 0.984 . S
N261 H267 0.985 . S
C262 C256 1.379 . S
C262 C259 1.363 . S
C262 N260 1.356 . S
C263 C257 1.363 . S
C263 C258 1.379 . S
C263 N261 1.356 . S
N264 C256 1.356 . S
N264 H270 0.984 . S
N264 H271 0.984 . S
N265 C258 1.356 . S
N265 H268 0.984 . S
N265 H269 0.985 . S
H266 N261 0.984 . S
H267 N261 0.985 . S
H268 N265 0.984 . S
H269 N265 0.985 . S
H270 N264 0.984 . S
H271 N264 0.984 . S
H272 N260 0.984 . S
H273 N260 0.985 . S
C274 C275 1.363 . S
C274 C280 1.379 . S
C274 N282 1.356 1_554 S
C275 C274 1.363 . S
C275 C281 1.363 . S
C276 C277 1.363 . S
C276 C281 1.379 . S
C276 N283 1.356 . S
C277 C276 1.363 . S
C277 C280 1.363 . S
N278 C280 1.356 1_556 S
N278 H290 0.984 . S
N278 H291 0.985 . S
N279 C281 1.356 . S
N279 H284 0.984 . S
N279 H285 0.985 . S
C280 C274 1.379 . S
C280 C277 1.363 . S
C280 N278 1.356 1_554 S
C281 C275 1.363 . S
C281 C276 1.379 . S
C281 N279 1.356 . S
N282 C274 1.356 1_556 S
N282 H288 0.984 . S
N282 H289 0.984 . S
N283 C276 1.356 . S
N283 H286 0.984 . S
N283 H287 0.985 . S
H284 N279 0.984 . S
H285 N279 0.985 . S
H286 N283 0.984 . S
H287 N283 0.985 . S
H288 N282 0.984 . S
H289 N282 0.984 . S
H290 N278 0.984 . S
H291 N278 0.985 . S
C292 C293 1.363 . S
C292 C298 1.379 . S
C292 N300 1.356 . S
C293 C292 1.363 . S
C293 C299 1.363 . S
C294 C295 1.363 . S
C294 C299 1.379 . S
C294 N301 1.356 . S
C295 C294 1.363 . S
C295 C298 1.363 . S
N296 C298 1.356 1_545 S
N296 H308 0.984 . S
N296 H309 0.985 . S
N297 C299 1.356 . S
N297 H302 0.984 . S
N297 H303 0.985 . S
C298 C292 1.379 . S
C298 C295 1.363 . S
C298 N296 1.356 1_565 S
C299 C293 1.363 . S
C299 C294 1.379 . S
C299 N297 1.356 . S
N300 C292 1.356 . S
N300 H306 0.988 . S
N300 H307 0.984 . S
N301 C294 1.356 . S
N301 H304 0.984 . S
N301 H305 0.985 . S
H302 N297 0.984 . S
H303 N297 0.985 . S
H304 N301 0.984 . S
H305 N301 0.985 . S
H306 N300 0.988 . S
H307 N300 0.984 . S
H308 N296 0.984 . S
H309 N296 0.985 . S
C310 C311 1.363 . S
C310 C316 1.379 . S
C310 N318 1.356 . S
C311 C310 1.363 . S
C311 C317 1.363 . S
C312 C313 1.363 . S
C312 C317 1.379 . S
C312 N319 1.356 . S
C313 C312 1.363 . S
C313 C316 1.363 . S
N314 C316 1.356 . S
N314 H326 0.984 . S
N314 H327 0.985 . S
N315 C317 1.356 . S
N315 H320 0.984 . S
N315 H321 0.985 . S
C316 C310 1.379 . S
C316 C313 1.363 . S
C316 N314 1.356 . S
C317 C311 1.363 . S
C317 C312 1.379 . S
C317 N315 1.356 . S
N318 C310 1.356 . S
N318 H324 0.984 . S
N318 H325 0.984 . S
N319 C312 1.356 . S
N319 H322 0.984 . S
N319 H323 0.985 . S
H320 N315 0.984 . S
H321 N315 0.985 . S
H322 N319 0.984 . S
H323 N319 0.985 . S
H324 N318 0.984 . S
H325 N318 0.984 . S
H326 N314 0.984 . S
H327 N314 0.985 . S
C328 C329 1.363 . S
C328 C334 1.379 . S
C328 N336 1.356 . S
C329 C328 1.363 . S
C329 C335 1.363 . S
C330 C331 1.363 . S
C330 C335 1.379 . S
C330 N337 1.356 1_545 S
C331 C330 1.363 . S
C331 C334 1.363 . S
N332 C334 1.356 . S
N332 H344 0.984 . S
N332 H345 0.985 . S
N333 C335 1.356 . S
N333 H338 0.984 . S
N333 H339 0.985 1_545 S
C334 C328 1.379 . S
C334 C331 1.363 . S
C334 N332 1.356 . S
C335 C329 1.363 . S
C335 C330 1.379 . S
C335 N333 1.356 . S
N336 C328 1.356 . S
N336 H342 0.984 . S
N336 H343 0.984 . S
N337 C330 1.356 1_565 S
N337 H340 0.984 . S
N337 H341 0.985 . S
H338 N333 0.984 . S
H339 N333 0.985 1_565 S
H340 N337 0.984 . S
H341 N337 0.985 . S
H342 N336 0.984 . S
H343 N336 0.984 . S
H344 N332 0.984 . S
H345 N332 0.985 . S
C346 C347 1.363 . S
C346 C352 1.379 . S
C346 N354 1.356 . S
C347 C346 1.363 . S
C347 C353 1.363 . S
C348 C349 1.363 . S
C348 C353 1.379 . S
C348 N355 1.356 . S
C349 C348 1.363 . S
C349 C352 1.363 . S
N350 C352 1.356 . S
N350 H362 0.984 . S
N350 H363 0.985 . S
N351 C353 1.356 . S
N351 H356 0.984 . S
N351 H357 0.985 . S
C352 C346 1.379 . S
C352 C349 1.363 . S
C352 N350 1.356 . S
C353 C347 1.363 . S
C353 C348 1.379 . S
C353 N351 1.356 . S
N354 C346 1.356 . S
N354 H360 0.984 . S
N354 H361 0.984 . S
N355 C348 1.356 . S
N355 H358 0.984 . S
N355 H359 0.985 . S
H356 N351 0.984 . S
H357 N351 0.985 . S
H358 N355 0.984 . S
H359 N355 0.985 . S
H360 N354 0.984 . S
H361 N354 0.984 . S
H362 N350 0.984 . S
H363 N350 0.985 . S
C364 C365 1.363 . S
C364 C370 1.379 . S
C364 N372 1.356 . S
C365 C364 1.363 . S
C365 C371 1.363 . S
C366 C367 1.363 . S
C366 C371 1.379 . S
C366 N373 1.356 . S
C367 C366 1.363 . S
C367 C370 1.363 . S
N368 C370 1.356 . S
N368 H380 0.984 . S
N368 H381 0.985 . S
N369 C371 1.356 . S
N369 H374 0.984 . S
N369 H375 0.985 . S
C370 C364 1.379 . S
C370 C367 1.363 . S
C370 N368 1.356 . S
C371 C365 1.363 . S
C371 C366 1.379 . S
C371 N369 1.356 . S
N372 C364 1.356 . S
N372 H378 0.984 . S
N372 H379 0.984 . S
N373 C366 1.356 . S
N373 H376 0.984 . S
N373 H377 0.985 . S
H374 N369 0.984 . S
H375 N369 0.985 . S
H376 N373 0.984 . S
H377 N373 0.985 . S
H378 N372 0.984 . S
H379 N372 0.984 . S
H380 N368 0.984 . S
H381 N368 0.985 . S
C382 C383 1.363 1_554 S
C382 C388 1.379 1_554 S
C382 N390 1.356 . S
C383 C382 1.363 1_556 S
C383 C389 1.363 . S
C384 C385 1.363 . S
C384 C389 1.379 . S
C384 N391 1.356 . S
C385 C384 1.363 . S
C385 C388 1.363 . S
N386 C388 1.356 . S
N386 H398 0.984 1_546 S
N386 H399 0.985 . S
N387 C389 1.356 . S
N387 H392 0.984 . S
N387 H393 0.985 . S
C388 C382 1.379 1_556 S
C388 C385 1.363 . S
C388 N386 1.356 . S
C389 C383 1.363 . S
C389 C384 1.379 . S
C389 N387 1.356 . S
N390 C382 1.356 . S
N390 H396 0.984 . S
N390 H397 0.984 . S
N391 C384 1.356 . S
N391 H394 0.984 . S
N391 H395 0.985 . S
H392 N387 0.984 . S
H393 N387 0.985 . S
H394 N391 0.984 . S
H395 N391 0.985 . S
H396 N390 0.984 . S
H397 N390 0.984 . S
H398 N386 0.984 1_564 S
H399 N386 0.985 . S
C400 C401 1.363 . S
C400 C406 1.379 . S
C400 N408 1.356 . S
C401 C400 1.363 . S
C401 C407 1.363 . S
C402 C403 1.363 . S
C402 C407 1.379 . S
C402 N409 1.356 . S
C403 C402 1.363 . S
C403 C406 1.363 . S
N404 C406 1.356 . S
N404 H416 0.984 . S
N404 H417 0.985 . S
N405 C407 1.356 . S
N405 H410 0.984 . S
N405 H411 0.985 . S
C406 C400 1.379 . S
C406 C403 1.363 . S
C406 N404 1.356 . S
C407 C401 1.363 . S
C407 C402 1.379 . S
C407 N405 1.356 . S
N408 C400 1.356 . S
N408 H414 0.984 . S
N408 H415 0.984 . S
N409 C402 1.356 . S
N409 H412 0.984 . S
N409 H413 0.985 . S
H410 N405 0.984 . S
H411 N405 0.985 . S
H412 N409 0.984 . S
H413 N409 0.985 . S
H414 N408 0.984 . S
H415 N408 0.984 . S
H416 N404 0.984 . S
H417 N404 0.985 . S
C418 C419 1.363 . S
C418 C424 1.379 . S
C418 N426 1.356 . S
C419 C418 1.363 . S
C419 C425 1.363 . S
C420 C421 1.363 . S
C420 C425 1.379 . S
C420 N427 1.356 . S
C421 C420 1.363 . S
C421 C424 1.363 . S
N422 C424 1.356 1_545 S
N422 H434 0.984 . S
N422 H435 0.985 . S
N423 C425 1.356 . S
N423 H428 0.984 . S
N423 H429 0.985 . S
C424 C418 1.379 . S
C424 C421 1.363 . S
C424 N422 1.356 1_565 S
C425 C419 1.363 . S
C425 C420 1.379 . S
C425 N423 1.356 . S
N426 C418 1.356 . S
N426 H432 0.984 1_565 S
N426 H433 0.984 . S
N427 C420 1.356 . S
N427 H430 0.984 . S
N427 H431 0.985 . S
H428 N423 0.984 . S
H429 N423 0.985 . S
H430 N427 0.984 . S
H431 N427 0.985 . S
H432 N426 0.984 1_545 S
H433 N426 0.984 . S
H434 N422 0.984 . S
H435 N422 0.985 . S
C223 C115 1.635 . S
C221 C43 1.537 . S
C239 C4 1.577 . S
C241 C210 1.628 . S
C257 C17 1.575 . S
C259 C126 1.634 . S
C275 C30 1.632 . S
C277 C199 1.628 . S
C295 C110 1.382 . S
C293 C9 1.559 . S
C313 C203 1.654 . S
C311 C21 1.647 . S
C329 C34 1.616 . S
C331 C119 1.629 . S
C347 C48 1.571 . S
C349 C194 1.397 . S
C367 C205 1.397 . S
C365 C22 1.571 . S
C385 C121 1.382 . S
C383 C35 1.560 1_556 S
C403 C192 1.654 . S
C401 C47 1.642 . S
C419 C8 1.609 . S
C421 C108 1.630 . S
