# Generated by pormake.
# Topology csq, (4,8)-cn, num edge types: 1
# Building blocks:
#     Node 0, Type 0, BuildingBlock: KUFVIS_clean_linker_0, # of connection points: 4
#     Node 1, Type 0, BuildingBlock: KUFVIS_clean_linker_0, # of connection points: 4
#     Node 2, Type 0, BuildingBlock: KUFVIS_clean_linker_0, # of connection points: 4
#     Node 3, Type 0, BuildingBlock: KUFVIS_clean_linker_0, # of connection points: 4
#     Node 4, Type 0, BuildingBlock: KUFVIS_clean_linker_0, # of connection points: 4
#     Node 5, Type 0, BuildingBlock: KUFVIS_clean_linker_0, # of connection points: 4
#     Node 6, Type 1, BuildingBlock: TAGTUT_clean_sbu_3, # of connection points: 8
#     Node 7, Type 1, BuildingBlock: TAGTUT_clean_sbu_3, # of connection points: 8
#     Node 8, Type 1, BuildingBlock: TAGTUT_clean_sbu_3, # of connection points: 8
#     Edge 9, Type (0, 1), BuildingBlock: EYOCIG_clean_linker_4, # of connection points: 2
#     Edge 10, Type (0, 1), BuildingBlock: EYOCIG_clean_linker_4, # of connection points: 2
#     Edge 11, Type (0, 1), BuildingBlock: EYOCIG_clean_linker_4, # of connection points: 2
#     Edge 12, Type (0, 1), BuildingBlock: EYOCIG_clean_linker_4, # of connection points: 2
#     Edge 13, Type (0, 1), BuildingBlock: EYOCIG_clean_linker_4, # of connection points: 2
#     Edge 14, Type (0, 1), BuildingBlock: EYOCIG_clean_linker_4, # of connection points: 2
#     Edge 15, Type (0, 1), BuildingBlock: EYOCIG_clean_linker_4, # of connection points: 2
#     Edge 16, Type (0, 1), BuildingBlock: EYOCIG_clean_linker_4, # of connection points: 2
#     Edge 17, Type (0, 1), BuildingBlock: EYOCIG_clean_linker_4, # of connection points: 2
#     Edge 18, Type (0, 1), BuildingBlock: EYOCIG_clean_linker_4, # of connection points: 2
#     Edge 19, Type (0, 1), BuildingBlock: EYOCIG_clean_linker_4, # of connection points: 2
#     Edge 20, Type (0, 1), BuildingBlock: EYOCIG_clean_linker_4, # of connection points: 2
#     Edge 21, Type (0, 1), BuildingBlock: EYOCIG_clean_linker_4, # of connection points: 2
#     Edge 22, Type (0, 1), BuildingBlock: EYOCIG_clean_linker_4, # of connection points: 2
#     Edge 23, Type (0, 1), BuildingBlock: EYOCIG_clean_linker_4, # of connection points: 2
#     Edge 24, Type (0, 1), BuildingBlock: EYOCIG_clean_linker_4, # of connection points: 2
#     Edge 25, Type (0, 1), BuildingBlock: EYOCIG_clean_linker_4, # of connection points: 2
#     Edge 26, Type (0, 1), BuildingBlock: EYOCIG_clean_linker_4, # of connection points: 2
#     Edge 27, Type (0, 1), BuildingBlock: EYOCIG_clean_linker_4, # of connection points: 2
#     Edge 28, Type (0, 1), BuildingBlock: EYOCIG_clean_linker_4, # of connection points: 2
#     Edge 29, Type (0, 1), BuildingBlock: EYOCIG_clean_linker_4, # of connection points: 2
#     Edge 30, Type (0, 1), BuildingBlock: EYOCIG_clean_linker_4, # of connection points: 2
#     Edge 31, Type (0, 1), BuildingBlock: EYOCIG_clean_linker_4, # of connection points: 2
#     Edge 32, Type (0, 1), BuildingBlock: EYOCIG_clean_linker_4, # of connection points: 2
# Relax obj value: 0.038
# Max RMSD: 0.109
# Mean RMSD: 0.085
data_MOF--net-csq--node1-TAGTUT_clean_sbu_3--node2-KUFVIS_clean_linker_0--edge1-EYOCIG_clean_linker_4
_symmetry_space_group_name_H-M    P1
_symmetry_Int_Tables_number       1
_symmetry_cell_setting            triclinic
loop_
_symmetry_equiv_pos_as_xyz
'x, y, z'
_cell_length_a     43.798753
_cell_length_b     43.018048
_cell_length_c     15.026253
_cell_angle_alpha  92.557962
_cell_angle_beta   92.642975
_cell_angle_gamma 119.93485
loop_
_atom_site_label
_atom_site_type_symbol
_atom_site_fract_x
_atom_site_fract_y
_atom_site_fract_z
_atom_type_partial_charge
H0 H 0.36049 0.48868 0.20455 0.0
H1 H 0.26684 0.47229 0.32229 0.0
H2 H 0.27683 0.48561 0.03841 0.0
H3 H 0.21721 0.44367 0.03933 0.0
H4 H 0.13601 0.46029 0.13953 0.0
H5 H 0.23457 0.50162 0.29707 0.0
C6 C 0.33443 0.48601 0.19733 0.0
C7 C 0.32065 0.48738 0.11375 0.0
C8 C 0.31535 0.48108 0.27178 0.0
C9 C 0.28164 0.47708 0.26367 0.0
C10 C 0.26698 0.47847 0.17923 0.0
C11 C 0.28706 0.48395 0.10394 0.0
C12 C 0.23066 0.47329 0.16951 0.0
C13 C 0.20835 0.45462 0.09192 0.0
C14 C 0.17457 0.45033 0.08122 0.0
C15 C 0.16226 0.46362 0.14852 0.0
C16 C 0.18362 0.48174 0.22654 0.0
C17 C 0.2179 0.48683 0.23712 0.0
H18 H 0.68951 0.13404 0.08252 0.0
H19 H 0.78823 0.21188 0.21981 0.0
H20 H 0.7525 0.2333 0.96691 0.0
H21 H 0.8091 0.26746 0.95457 0.0
H22 H 0.893 0.35927 0.10581 0.0
H23 H 0.81858 0.27107 0.24445 0.0
C24 C 0.71369 0.16 0.08474 0.0
C25 C 0.71916 0.18196 0.01551 0.0
C26 C 0.73809 0.17132 0.15839 0.0
C27 C 0.76944 0.20444 0.16239 0.0
C28 C 0.77572 0.22775 0.09349 0.0
C29 C 0.7497 0.21609 0.01995 0.0
C30 C 0.80881 0.26398 0.09872 0.0
C31 C 0.82166 0.28081 0.01954 0.0
C32 C 0.85117 0.31519 0.023 0.0
C33 C 0.86973 0.33267 0.10436 0.0
C34 C 0.85849 0.31651 0.18386 0.0
C35 C 0.82775 0.28243 0.18168 0.0
H36 H 0.5568 0.8875 0.07408 0.0
H37 H 0.56687 0.80309 0.18579 0.0
H38 H 0.55039 0.80266 0.89878 0.0
H39 H 0.57699 0.7702 0.89684 0.0
H40 H 0.55776 0.6718 0.00297 0.0
H41 H 0.53833 0.74451 0.16001 0.0
C42 C 0.55755 0.86274 0.06447 0.0
C43 C 0.5546 0.84755 0.97798 0.0
C44 C 0.56104 0.84599 0.13871 0.0
C45 C 0.56251 0.81441 0.12693 0.0
C46 C 0.55841 0.79773 0.04078 0.0
C47 C 0.55437 0.81481 0.96604 0.0
C48 C 0.55808 0.76266 0.03016 0.0
C49 C 0.56841 0.75274 0.9511 0.0
C50 C 0.56746 0.71979 0.94114 0.0
C51 C 0.55797 0.69713 0.01092 0.0
C52 C 0.54828 0.70648 0.09032 0.0
C53 C 0.54748 0.73866 0.09929 0.0
H54 H 0.91054 0.57221 -0.00079 0.0
H55 H 0.8441 0.5995 0.14156 0.0
H56 H 0.8043 0.53215 0.89144 0.0
H57 H 0.76673 0.5523 0.88641 0.0
H58 H 0.69151 0.55427 0.05445 0.0
H59 H 0.78937 0.57097 0.17484 0.0
C60 C 0.88521 0.57096 0.00292 0.0
C61 C 0.85856 0.55188 0.93549 0.0
C62 C 0.8794 0.58705 0.07714 0.0
C63 C 0.84713 0.58575 0.08358 0.0
C64 C 0.81895 0.56572 0.0176 0.0
C65 C 0.82514 0.54857 0.94276 0.0
C66 C 0.78343 0.56223 0.02869 0.0
C67 C 0.75969 0.55486 0.95331 0.0
C68 C 0.72658 0.55132 0.9637 0.0
C69 C 0.71711 0.55647 0.04771 0.0
C70 C 0.74 0.56429 0.12314 0.0
C71 C 0.7728 0.56646 0.11453 0.0
H72 H 0.34837 0.89909 0.08102 0.0
H73 H 0.28905 0.80858 0.23267 0.0
H74 H 0.24369 0.81844 0.98017 0.0
H75 H 0.21731 0.75738 0.97468 0.0
H76 H 0.14389 0.68166 0.14321 0.0
H77 H 0.23129 0.7806 0.26192 0.0
C78 C 0.32422 0.87402 0.08881 0.0
C79 C 0.29647 0.86026 0.02216 0.0
C80 C 0.32134 0.85573 0.16502 0.0
C81 C 0.29041 0.82295 0.17427 0.0
C82 C 0.26174 0.80876 0.10781 0.0
C83 C 0.26513 0.82816 0.03192 0.0
C84 C 0.22867 0.77381 0.11706 0.0
C85 C 0.20869 0.7505 0.04101 0.0
C86 C 0.17792 0.71757 0.05028 0.0
C87 C 0.1673 0.70739 0.13572 0.0
C88 C 0.18696 0.72991 0.21166 0.0
C89 C 0.21707 0.76316 0.20238 0.0
H90 H 0.46667 0.34143 0.16073 0.0
H91 H 0.47307 0.26332 0.31333 0.0
H92 H 0.47793 0.25905 0.0247 0.0
H93 H 0.50361 0.22951 0.04402 0.0
H94 H 0.5032 0.14584 0.18506 0.0
H95 H 0.46634 0.21067 0.31092 0.0
C96 C 0.46851 0.31719 0.16256 0.0
C97 C 0.47319 0.30198 0.0844 0.0
C98 C 0.46745 0.30229 0.24369 0.0
C99 C 0.47174 0.2723 0.24805 0.0
C100 C 0.47627 0.25586 0.17016 0.0
C101 C 0.47582 0.27078 0.08741 0.0
C102 C 0.48346 0.22499 0.17613 0.0
C103 C 0.49744 0.21532 0.10394 0.0
C104 C 0.5035 0.18651 0.10696 0.0
C105 C 0.49806 0.16806 0.18354 0.0
C106 C 0.48566 0.17751 0.25763 0.0
C107 C 0.47742 0.20521 0.25368 0.0
C108 C 0.07531 0.49738 0.48715 0.0
C109 C 0.06326 0.43931 0.78925 0.0
C110 C 0.96044 0.42938 0.77341 0.0
Mg111 Mg 0.03642 0.5395 0.40759 0.0
Mg112 Mg 0.01704 0.58623 0.55087 0.0
O113 O 1.00948 0.54091 0.51085 0.0
Mg114 Mg 0.02434 0.51714 0.59918 0.0
O115 O 0.03985 0.49115 0.67949 0.0
Mg116 Mg 0.01555 0.44227 0.61171 0.0
Mg117 Mg 0.03516 0.49292 0.80236 0.0
C118 C 0.96988 0.53827 0.69712 0.0
O119 O 0.06331 0.57005 0.68828 0.0
O120 O 1.00488 0.56112 0.32762 0.0
O121 O 0.06188 0.55118 0.82708 0.0
O122 O 0.08028 0.59846 0.43704 0.0
O123 O 0.99429 0.59358 0.43158 0.0
O124 O 0.07246 0.62577 0.55643 0.0
O125 O 0.98667 0.46323 0.52117 0.0
O126 O 0.99173 0.47981 0.38138 0.0
C127 C 0.97814 0.45565 0.43717 0.0
C128 C 0.99236 0.58144 0.35118 0.0
O129 O 0.9799 0.51502 0.68372 0.0
O130 O 0.04786 0.42729 0.71043 0.0
O131 O 0.98369 0.56847 0.6616 0.0
O132 O 0.96993 0.41988 0.70315 0.0
O133 O 0.06227 0.46449 0.8354 0.0
O134 O 0.98035 0.45884 0.82028 0.0
O135 O 0.06577 0.52057 0.50515 0.0
O136 O 0.06123 0.467 0.52127 0.0
C137 C 0.09078 0.62565 0.49303 0.0
C138 C 0.07197 0.5762 0.77311 0.0
C139 C 0.50692 0.06338 0.47253 0.0
C140 C 0.62014 0.05567 0.38608 0.0
C141 C 0.56163 0.94972 0.46075 0.0
Mg142 Mg 0.45468 0.02059 0.62407 0.0
Mg143 Mg 0.48063 0.99234 0.7981 0.0
O144 O 0.47591 0.99219 0.67365 0.0
Mg145 Mg 0.51863 0.01128 0.60449 0.0
O146 O 0.55877 0.03024 0.52814 0.0
Mg147 Mg 0.53305 1.00737 0.40858 0.0
Mg148 Mg 0.59513 0.02154 0.56467 0.0
C149 C 0.52516 0.95577 0.74452 0.0
O150 O 0.55894 0.05298 0.71673 0.0
O151 O 0.40585 0.9854 0.7029 0.0
O152 O 0.60842 0.05052 0.69498 0.0
O153 O 0.47946 0.06375 0.74307 0.0
O154 O 0.4252 0.96564 0.81696 0.0
O155 O 0.50494 0.04722 0.84913 0.0
O156 O 0.48238 0.97326 0.48459 0.0
O157 O 0.43428 0.97775 0.50583 0.0
C158 C 0.45029 0.96465 0.46213 0.0
C159 C 0.40056 0.96701 0.77133 0.0
O160 O 0.53004 0.96855 0.66712 0.0
O161 O 0.58817 0.04347 0.35304 0.0
O162 O 0.50936 0.96338 0.8041 0.0
O163 O 0.54663 0.96234 0.41124 0.0
O164 O 0.62815 0.05003 0.46406 0.0
O165 O 0.57888 0.96585 0.53489 0.0
O166 O 0.50485 0.0519 0.55039 0.0
O167 O 0.51869 0.05243 0.4092 0.0
C168 C 0.49821 0.07016 0.81654 0.0
C169 C 0.59158 0.06295 0.73741 0.0
C170 C 0.54783 0.58805 0.7193 0.0
C171 C 0.44303 0.48839 0.87714 0.0
C172 C 0.4855 0.41993 0.80015 0.0
Mg173 Mg 0.58572 0.58203 0.54588 0.0
Mg174 Mg 0.54347 0.51724 0.38442 0.0
O175 O 0.55518 0.52946 0.50726 0.0
Mg176 Mg 0.52061 0.5129 0.60285 0.0
O177 O 0.48961 0.49951 0.70409 0.0
Mg178 Mg 0.5238 0.51186 0.81019 0.0
Mg179 Mg 0.44955 0.45368 0.69929 0.0
C180 C 0.49741 0.44145 0.46861 0.0
O181 O 0.47228 0.50642 0.51784 0.0
O182 O 0.62652 0.58342 0.44869 0.0
O183 O 0.42814 0.45597 0.56991 0.0
O184 O 0.56019 0.59937 0.43404 0.0
O185 O 0.59681 0.53553 0.34822 0.0
O186 O 0.52687 0.55337 0.33282 0.0
O187 O 0.56329 0.51598 0.70301 0.0
O188 O 0.60988 0.56364 0.65391 0.0
C189 C 0.59644 0.53833 0.70624 0.0
C190 C 0.62553 0.56289 0.38249 0.0
O191 O 0.50156 0.45517 0.54899 0.0
O192 O 0.47693 0.50626 0.89344 0.0
O193 O 0.5084 0.45995 0.4002 0.0
O194 O 0.50722 0.45204 0.83258 0.0
O195 O 0.42749 0.46653 0.80822 0.0
O196 O 0.46211 0.41343 0.73729 0.0
O197 O 0.54223 0.57215 0.64178 0.0
O198 O 0.54109 0.57096 0.7899 0.0
C199 C 0.53944 0.58607 0.36285 0.0
C200 C 0.4397 0.48132 0.51695 0.0
C201 C 0.15208 0.50254 0.34082 0.0
C202 C 0.16926 0.49455 0.29418 0.0
C203 C 0.1274 0.50682 0.38992 0.0
C204 C 0.1042 0.50571 0.43257 0.0
C205 C 0.70741 0.12556 0.27426 0.0
C206 C 0.72734 0.14952 0.23223 0.0
C207 C 0.67658 0.09898 0.30799 0.0
C208 C 0.64918 0.07896 0.33793 0.0
C209 C 0.53434 0.65986 0.21328 0.0
C210 C 0.54001 0.68274 0.16197 0.0
C211 C 0.532 0.63254 0.26702 0.0
C212 C 0.53465 0.61042 0.30861 0.0
C213 C 0.93046 0.60426 0.19768 0.0
C214 C 0.90524 0.59929 0.15123 0.0
C215 C 0.95588 0.59915 0.24402 0.0
C216 C 0.97308 0.58968 0.28707 0.0
C217 C 0.37678 0.88934 0.283 0.0
C218 C 0.35036 0.8719 0.23341 0.0
C219 C 0.40681 0.91383 0.34011 0.0
C220 C 0.42945 0.93645 0.39321 0.0
C221 C 0.46511 0.34132 0.37888 0.0
C222 C 0.46595 0.32088 0.32339 0.0
C223 C 0.47122 0.37271 0.42761 0.0
C224 C 0.48243 0.40347 0.45434 0.0
C225 C 0.54805 0.8847 0.84973 0.0
C226 C 0.55089 0.86578 0.90292 0.0
C227 C 0.54306 0.90911 0.79895 0.0
C228 C 0.53632 0.93045 0.76638 0.0
C229 C 0.67577 0.53628 0.84217 0.0
C230 C 0.70134 0.54276 0.88957 0.0
C231 C 0.64488 0.53216 0.79832 0.0
C232 C 0.62041 0.53235 0.75973 0.0
C233 C 0.13845 0.67046 0.91467 0.0
C234 C 0.15761 0.69317 0.97312 0.0
C235 C 0.11527 0.6406 0.85413 0.0
C236 C 0.09571 0.61248 0.81071 0.0
C237 C 0.51831 0.1572 0.97156 0.0
C238 C 0.51197 0.17305 0.02872 0.0
C239 C 0.51694 0.1304 0.91215 0.0
C240 C 0.50854 0.10277 0.86908 0.0
C241 C 0.36656 0.49476 -2e-05 0.0
C242 C 0.34225 0.49158 0.04094 0.0
C243 C 0.39665 0.49628 0.9651 0.0
C244 C 0.42066 0.49522 0.93166 0.0
C245 C 0.87797 0.3538 0.88794 0.0
C246 C 0.86303 0.33343 0.94353 0.0
C247 C 0.90266 0.3807 0.83858 0.0
C248 C 0.9291 0.40306 0.8091 0.0
C249 C 0.88533 0.52802 0.81767 0.0
C250 C 0.86746 0.53574 0.86235 0.0
C251 C 0.913 0.5259 0.77771 0.0
C252 C 0.93854 0.52867 0.74301 0.0
C253 C 0.31493 0.89956 0.88543 0.0
C254 C 0.30209 0.87888 0.94217 0.0
C255 C 0.33911 0.92497 0.83138 0.0
C256 C 0.36532 0.94531 0.79674 0.0
C257 C 0.48023 0.33982 0.94436 0.0
C258 C 0.47735 0.3204 0.00331 0.0
C259 C 0.48312 0.36615 0.88596 0.0
C260 C 0.48371 0.39023 0.84574 0.0
C261 C 0.13102 0.42457 0.93671 0.0
C262 C 0.15312 0.43522 -0.00149 0.0
C263 C 0.10505 0.42108 0.872 0.0
C264 C 0.08505 0.42632 0.82626 0.0
C265 C 0.6658 0.14788 0.89455 0.0
C266 C 0.69215 0.16775 0.94225 0.0
C267 C 0.63552 0.11938 0.84565 0.0
C268 C 0.61267 0.09396 0.79911 0.0
C269 C 0.57573 0.68787 0.80066 0.0
C270 C 0.57358 0.70695 0.85788 0.0
C271 C 0.5705 0.65667 0.75236 0.0
C272 C 0.56058 0.62584 0.72853 0.0
C273 C 0.48336 0.13719 0.38631 0.0
C274 C 0.48236 0.15793 0.33597 0.0
C275 C 0.48888 0.11142 0.42919 0.0
C276 C 0.49642 0.0896 0.45473 0.0
C277 C 0.35541 0.48129 0.4022 0.0
C278 C 0.33215 0.48014 0.3544 0.0
C279 C 0.38674 0.48372 0.43778 0.0
C280 C 0.41313 0.48531 0.46972 0.0
C281 C 0.90068 0.35959 0.32036 0.0
C282 C 0.87896 0.33673 0.26577 0.0
C283 C 0.92782 0.39088 0.37036 0.0
C284 C 0.95059 0.41986 0.4046 0.0
C285 C 0.56255 0.87536 0.29821 0.0
C286 C 0.56201 0.86077 0.22737 0.0
C287 C 0.56293 0.89676 0.37254 0.0
C288 C 0.5642 0.9202 0.42211 0.0
C289 C 0.71039 0.57215 0.26353 0.0
C290 C 0.72813 0.56959 0.20757 0.0
C291 C 0.68377 0.57223 0.3135 0.0
C292 C 0.65821 0.56948 0.34793 0.0
C293 C 0.16355 0.70401 0.3659 0.0
C294 C 0.17622 0.71807 0.299 0.0
C295 C 0.14304 0.68204 0.4316 0.0
C296 C 0.11975 0.65891 0.46978 0.0
loop_
_geom_bond_atom_site_label_1
_geom_bond_atom_site_label_2
_geom_bond_distance
_geom_bond_site_symmetry_2
_ccdc_geom_bond_type
H0 C6 0.930 . S
H1 C9 0.931 . S
H2 C11 0.931 . S
H3 C13 0.930 . S
H4 C15 0.930 . S
H5 C17 0.931 . S
C6 H0 0.930 . S
C6 C7 1.380 . S
C6 C8 1.394 . S
C7 C6 1.380 . S
C7 C11 1.382 . S
C8 C6 1.394 . S
C8 C9 1.400 . S
C9 H1 0.931 . S
C9 C8 1.400 . S
C9 C10 1.375 . S
C10 C9 1.375 . S
C10 C11 1.415 . S
C10 C12 1.501 . S
C11 H2 0.931 . S
C11 C7 1.382 . S
C11 C10 1.415 . S
C12 C10 1.501 . S
C12 C13 1.384 . S
C12 C17 1.408 . S
C13 H3 0.930 . S
C13 C12 1.384 . S
C13 C14 1.389 . S
C14 C13 1.389 . S
C14 C15 1.405 . S
C15 H4 0.930 . S
C15 C14 1.405 . S
C15 C16 1.364 . S
C16 C15 1.364 . S
C16 C17 1.400 . S
C17 H5 0.931 . S
C17 C12 1.408 . S
C17 C16 1.400 . S
H18 C24 0.930 . S
H19 C27 0.931 . S
H20 C29 0.931 1_556 S
H21 C31 0.930 1_556 S
H22 C33 0.930 . S
H23 C35 0.931 . S
C24 H18 0.930 . S
C24 C25 1.380 . S
C24 C26 1.394 . S
C25 C24 1.380 . S
C25 C29 1.382 . S
C26 C24 1.394 . S
C26 C27 1.400 . S
C27 H19 0.931 . S
C27 C26 1.400 . S
C27 C28 1.375 . S
C28 C27 1.375 . S
C28 C29 1.415 . S
C28 C30 1.501 . S
C29 H20 0.931 1_554 S
C29 C25 1.382 . S
C29 C28 1.415 . S
C30 C28 1.501 . S
C30 C31 1.384 . S
C30 C35 1.408 . S
C31 H21 0.930 1_554 S
C31 C30 1.384 . S
C31 C32 1.389 . S
C32 C31 1.389 . S
C32 C33 1.405 . S
C33 H22 0.930 . S
C33 C32 1.405 . S
C33 C34 1.364 . S
C34 C33 1.364 . S
C34 C35 1.400 . S
C35 H23 0.931 . S
C35 C30 1.408 . S
C35 C34 1.400 . S
H36 C42 0.930 . S
H37 C45 0.931 . S
H38 C47 0.931 . S
H39 C49 0.930 . S
H40 C51 0.930 . S
H41 C53 0.931 . S
C42 H36 0.930 . S
C42 C43 1.380 1_554 S
C42 C44 1.394 . S
C43 C42 1.380 1_556 S
C43 C47 1.382 . S
C44 C42 1.394 . S
C44 C45 1.400 . S
C45 H37 0.931 . S
C45 C44 1.400 . S
C45 C46 1.375 . S
C46 C45 1.375 . S
C46 C47 1.415 1_554 S
C46 C48 1.501 . S
C47 H38 0.931 . S
C47 C43 1.382 . S
C47 C46 1.415 1_556 S
C48 C46 1.501 . S
C48 C49 1.384 1_554 S
C48 C53 1.408 . S
C49 H39 0.930 . S
C49 C48 1.384 1_556 S
C49 C50 1.389 . S
C50 C49 1.389 . S
C50 C51 1.405 1_556 S
C51 H40 0.930 . S
C51 C50 1.405 1_554 S
C51 C52 1.364 . S
C52 C51 1.364 . S
C52 C53 1.400 . S
C53 H41 0.931 . S
C53 C48 1.408 . S
C53 C52 1.400 . S
H54 C60 0.930 . S
H55 C63 0.931 . S
H56 C65 0.931 . S
H57 C67 0.930 . S
H58 C69 0.930 . S
H59 C71 0.931 . S
C60 H54 0.930 . S
C60 C61 1.380 1_554 S
C60 C62 1.394 . S
C61 C60 1.380 1_556 S
C61 C65 1.382 . S
C62 C60 1.394 . S
C62 C63 1.400 . S
C63 H55 0.931 . S
C63 C62 1.400 . S
C63 C64 1.375 . S
C64 C63 1.375 . S
C64 C65 1.415 1_554 S
C64 C66 1.501 . S
C65 H56 0.931 . S
C65 C61 1.382 . S
C65 C64 1.415 1_556 S
C66 C64 1.501 . S
C66 C67 1.384 1_554 S
C66 C71 1.408 . S
C67 H57 0.930 . S
C67 C66 1.384 1_556 S
C67 C68 1.389 . S
C68 C67 1.389 . S
C68 C69 1.405 1_556 S
C69 H58 0.930 . S
C69 C68 1.405 1_554 S
C69 C70 1.364 . S
C70 C69 1.364 . S
C70 C71 1.400 . S
C71 H59 0.931 . S
C71 C66 1.408 . S
C71 C70 1.400 . S
H72 C78 0.930 . S
H73 C81 0.931 . S
H74 C83 0.931 1_556 S
H75 C85 0.930 1_556 S
H76 C87 0.930 . S
H77 C89 0.931 . S
C78 H72 0.930 . S
C78 C79 1.380 . S
C78 C80 1.394 . S
C79 C78 1.380 . S
C79 C83 1.382 . S
C80 C78 1.394 . S
C80 C81 1.400 . S
C81 H73 0.931 . S
C81 C80 1.400 . S
C81 C82 1.375 . S
C82 C81 1.375 . S
C82 C83 1.415 . S
C82 C84 1.501 . S
C83 H74 0.931 1_554 S
C83 C79 1.382 . S
C83 C82 1.415 . S
C84 C82 1.501 . S
C84 C85 1.384 . S
C84 C89 1.408 . S
C85 H75 0.930 1_554 S
C85 C84 1.384 . S
C85 C86 1.389 . S
C86 C85 1.389 . S
C86 C87 1.405 . S
C87 H76 0.930 . S
C87 C86 1.405 . S
C87 C88 1.364 . S
C88 C87 1.364 . S
C88 C89 1.400 . S
C89 H77 0.931 . S
C89 C84 1.408 . S
C89 C88 1.400 . S
H90 C96 0.930 . S
H91 C99 0.931 . S
H92 C101 0.931 . S
H93 C103 0.930 . S
H94 C105 0.930 . S
H95 C107 0.931 . S
C96 H90 0.930 . S
C96 C97 1.380 . S
C96 C98 1.394 . S
C97 C96 1.380 . S
C97 C101 1.382 . S
C98 C96 1.394 . S
C98 C99 1.400 . S
C99 H91 0.931 . S
C99 C98 1.400 . S
C99 C100 1.375 . S
C100 C99 1.375 . S
C100 C101 1.415 . S
C100 C102 1.501 . S
C101 H92 0.931 . S
C101 C97 1.382 . S
C101 C100 1.415 . S
C102 C100 1.501 . S
C102 C103 1.384 . S
C102 C107 1.408 . S
C103 H93 0.930 . S
C103 C102 1.384 . S
C103 C104 1.389 . S
C104 C103 1.389 . S
C104 C105 1.405 . S
C105 H94 0.930 . S
C105 C104 1.405 . S
C105 C106 1.364 . S
C106 C105 1.364 . S
C106 C107 1.400 . S
C107 H95 0.931 . S
C107 C102 1.408 . S
C107 C106 1.400 . S
C108 O135 1.312 . S
C108 O136 1.208 . S
C109 O130 1.331 . S
C109 O133 1.244 . S
C110 O132 1.264 . S
C110 O134 1.273 . S
Mg111 O113 1.936 1_455 S
Mg111 O120 2.081 1_455 S
Mg111 O122 2.023 . S
Mg111 O126 2.031 1_455 S
Mg111 O135 2.291 . S
Mg112 O113 1.963 . S
Mg112 O123 1.942 . S
Mg112 O124 1.955 1_655 S
Mg112 O131 1.986 . S
O113 Mg111 1.936 1_655 S
O113 Mg112 1.963 . S
O113 Mg114 1.915 1_655 S
Mg114 O113 1.915 1_455 S
Mg114 O115 1.915 . S
Mg114 O119 2.013 . S
Mg114 O125 2.114 1_455 S
Mg114 O129 2.013 1_455 S
Mg114 O135 2.114 . S
O115 Mg114 1.915 . S
O115 Mg116 1.936 . S
O115 Mg117 1.963 . S
Mg116 O115 1.936 . S
Mg116 O125 2.291 1_455 S
Mg116 O130 2.081 . S
Mg116 O132 2.023 1_455 S
Mg116 O136 2.031 . S
Mg117 O115 1.963 . S
Mg117 O121 1.986 . S
Mg117 O133 1.942 . S
Mg117 O134 1.955 1_455 S
C118 O129 1.191 . S
C118 O131 1.307 . S
O119 Mg114 2.013 . S
O119 C138 1.191 . S
O120 Mg111 2.081 1_655 S
O120 C128 1.331 . S
O121 Mg117 1.986 . S
O121 C138 1.307 . S
O122 Mg111 2.023 . S
O122 C137 1.264 . S
O123 Mg112 1.942 . S
O123 C128 1.244 . S
O124 Mg112 1.955 1_455 S
O124 C137 1.273 . S
O125 Mg114 2.114 1_655 S
O125 Mg116 2.291 1_655 S
O125 C127 1.312 . S
O126 Mg111 2.031 1_655 S
O126 C127 1.208 . S
C127 O125 1.312 . S
C127 O126 1.208 . S
C128 O120 1.331 . S
C128 O123 1.244 . S
O129 Mg114 2.013 1_655 S
O129 C118 1.191 . S
O130 C109 1.331 . S
O130 Mg116 2.081 . S
O131 Mg112 1.986 . S
O131 C118 1.307 . S
O132 C110 1.264 . S
O132 Mg116 2.023 1_655 S
O133 C109 1.244 . S
O133 Mg117 1.942 . S
O134 C110 1.273 . S
O134 Mg117 1.955 1_655 S
O135 C108 1.312 . S
O135 Mg111 2.291 . S
O135 Mg114 2.114 . S
O136 C108 1.208 . S
O136 Mg116 2.031 . S
C137 O122 1.264 . S
C137 O124 1.273 . S
C138 O119 1.191 . S
C138 O121 1.307 . S
C139 O166 1.312 . S
C139 O167 1.208 . S
C140 O161 1.331 . S
C140 O164 1.244 . S
C141 O163 1.264 . S
C141 O165 1.273 . S
Mg142 O144 1.936 1_545 S
Mg142 O151 2.081 1_545 S
Mg142 O153 2.023 . S
Mg142 O157 2.031 1_545 S
Mg142 O166 2.291 . S
Mg143 O144 1.963 . S
Mg143 O154 1.942 . S
Mg143 O155 1.955 1_565 S
Mg143 O162 1.986 . S
O144 Mg142 1.936 1_565 S
O144 Mg143 1.963 . S
O144 Mg145 1.915 1_565 S
Mg145 O144 1.915 1_545 S
Mg145 O146 1.915 . S
Mg145 O150 2.013 . S
Mg145 O156 2.114 1_545 S
Mg145 O160 2.013 1_545 S
Mg145 O166 2.114 . S
O146 Mg145 1.915 . S
O146 Mg147 1.936 . S
O146 Mg148 1.963 . S
Mg147 O146 1.936 . S
Mg147 O156 2.291 1_545 S
Mg147 O161 2.081 . S
Mg147 O163 2.023 1_545 S
Mg147 O167 2.031 . S
Mg148 O146 1.963 . S
Mg148 O152 1.986 . S
Mg148 O164 1.942 . S
Mg148 O165 1.955 1_545 S
C149 O160 1.191 . S
C149 O162 1.307 . S
O150 Mg145 2.013 . S
O150 C169 1.191 . S
O151 Mg142 2.081 1_565 S
O151 C159 1.331 . S
O152 Mg148 1.986 . S
O152 C169 1.307 . S
O153 Mg142 2.023 . S
O153 C168 1.264 . S
O154 Mg143 1.942 . S
O154 C159 1.244 . S
O155 Mg143 1.955 1_545 S
O155 C168 1.273 . S
O156 Mg145 2.114 1_565 S
O156 Mg147 2.291 1_565 S
O156 C158 1.312 . S
O157 Mg142 2.031 1_565 S
O157 C158 1.208 . S
C158 O156 1.312 . S
C158 O157 1.208 . S
C159 O151 1.331 . S
C159 O154 1.244 . S
O160 Mg145 2.013 1_565 S
O160 C149 1.191 . S
O161 C140 1.331 . S
O161 Mg147 2.081 . S
O162 Mg143 1.986 . S
O162 C149 1.307 . S
O163 C141 1.264 . S
O163 Mg147 2.023 1_565 S
O164 C140 1.244 . S
O164 Mg148 1.942 . S
O165 C141 1.273 . S
O165 Mg148 1.955 1_565 S
O166 C139 1.312 . S
O166 Mg142 2.291 . S
O166 Mg145 2.114 . S
O167 C139 1.208 . S
O167 Mg147 2.031 . S
C168 O153 1.264 . S
C168 O155 1.273 . S
C169 O150 1.191 . S
C169 O152 1.307 . S
C170 O197 1.312 . S
C170 O198 1.208 . S
C171 O192 1.331 . S
C171 O195 1.244 . S
C172 O194 1.264 . S
C172 O196 1.273 . S
Mg173 O175 1.936 . S
Mg173 O182 2.081 . S
Mg173 O184 2.023 . S
Mg173 O188 2.031 . S
Mg173 O197 2.291 . S
Mg174 O175 1.963 . S
Mg174 O185 1.942 . S
Mg174 O186 1.955 . S
Mg174 O193 1.986 . S
O175 Mg173 1.936 . S
O175 Mg174 1.963 . S
O175 Mg176 1.915 . S
Mg176 O175 1.915 . S
Mg176 O177 1.915 . S
Mg176 O181 2.013 . S
Mg176 O187 2.114 . S
Mg176 O191 2.013 . S
Mg176 O197 2.114 . S
O177 Mg176 1.915 . S
O177 Mg178 1.936 . S
O177 Mg179 1.963 . S
Mg178 O177 1.936 . S
Mg178 O187 2.291 . S
Mg178 O192 2.081 . S
Mg178 O194 2.023 . S
Mg178 O198 2.031 . S
Mg179 O177 1.963 . S
Mg179 O183 1.986 . S
Mg179 O195 1.942 . S
Mg179 O196 1.955 . S
C180 O191 1.191 . S
C180 O193 1.307 . S
O181 Mg176 2.013 . S
O181 C200 1.191 . S
O182 Mg173 2.081 . S
O182 C190 1.331 . S
O183 Mg179 1.986 . S
O183 C200 1.307 . S
O184 Mg173 2.023 . S
O184 C199 1.264 . S
O185 Mg174 1.942 . S
O185 C190 1.244 . S
O186 Mg174 1.955 . S
O186 C199 1.273 . S
O187 Mg176 2.114 . S
O187 Mg178 2.291 . S
O187 C189 1.312 . S
O188 Mg173 2.031 . S
O188 C189 1.208 . S
C189 O187 1.312 . S
C189 O188 1.208 . S
C190 O182 1.331 . S
C190 O185 1.244 . S
O191 Mg176 2.013 . S
O191 C180 1.191 . S
O192 C171 1.331 . S
O192 Mg178 2.081 . S
O193 Mg174 1.986 . S
O193 C180 1.307 . S
O194 C172 1.264 . S
O194 Mg178 2.023 . S
O195 C171 1.244 . S
O195 Mg179 1.942 . S
O196 C172 1.273 . S
O196 Mg179 1.955 . S
O197 C170 1.312 . S
O197 Mg173 2.291 . S
O197 Mg176 2.114 . S
O198 C170 1.208 . S
O198 Mg178 2.031 . S
C199 O184 1.264 . S
C199 O186 1.273 . S
C200 O181 1.191 . S
C200 O183 1.307 . S
C201 C202 1.170 . S
C201 C203 1.380 . S
C202 C201 1.170 . S
C203 C201 1.380 . S
C203 C204 1.170 . S
C204 C203 1.170 . S
C205 C206 1.170 . S
C205 C207 1.380 . S
C206 C205 1.170 . S
C207 C205 1.380 . S
C207 C208 1.170 . S
C208 C207 1.170 . S
C209 C210 1.170 . S
C209 C211 1.380 . S
C210 C209 1.170 . S
C211 C209 1.380 . S
C211 C212 1.170 . S
C212 C211 1.170 . S
C213 C214 1.170 . S
C213 C215 1.380 . S
C214 C213 1.170 . S
C215 C213 1.380 . S
C215 C216 1.170 . S
C216 C215 1.170 . S
C217 C218 1.170 . S
C217 C219 1.380 . S
C218 C217 1.170 . S
C219 C217 1.380 . S
C219 C220 1.170 . S
C220 C219 1.170 . S
C221 C222 1.170 . S
C221 C223 1.380 . S
C222 C221 1.170 . S
C223 C221 1.380 . S
C223 C224 1.170 . S
C224 C223 1.170 . S
C225 C226 1.170 . S
C225 C227 1.380 . S
C226 C225 1.170 . S
C227 C225 1.380 . S
C227 C228 1.170 . S
C228 C227 1.170 . S
C229 C230 1.170 . S
C229 C231 1.380 . S
C230 C229 1.170 . S
C231 C229 1.380 . S
C231 C232 1.170 . S
C232 C231 1.170 . S
C233 C234 1.170 . S
C233 C235 1.380 . S
C234 C233 1.170 . S
C235 C233 1.380 . S
C235 C236 1.170 . S
C236 C235 1.170 . S
C237 C238 1.170 1_556 S
C237 C239 1.380 . S
C238 C237 1.170 1_554 S
C239 C237 1.380 . S
C239 C240 1.170 . S
C240 C239 1.170 . S
C241 C242 1.170 . S
C241 C243 1.380 1_554 S
C242 C241 1.170 . S
C243 C241 1.380 1_556 S
C243 C244 1.170 . S
C244 C243 1.170 . S
C245 C246 1.170 . S
C245 C247 1.380 . S
C246 C245 1.170 . S
C247 C245 1.380 . S
C247 C248 1.170 . S
C248 C247 1.170 . S
C249 C250 1.170 . S
C249 C251 1.380 . S
C250 C249 1.170 . S
C251 C249 1.380 . S
C251 C252 1.170 . S
C252 C251 1.170 . S
C253 C254 1.170 . S
C253 C255 1.380 . S
C254 C253 1.170 . S
C255 C253 1.380 . S
C255 C256 1.170 . S
C256 C255 1.170 . S
C257 C258 1.170 1_556 S
C257 C259 1.380 . S
C258 C257 1.170 1_554 S
C259 C257 1.380 . S
C259 C260 1.170 . S
C260 C259 1.170 . S
C261 C262 1.170 . S
C261 C263 1.380 1_554 S
C262 C261 1.170 . S
C263 C261 1.380 1_556 S
C263 C264 1.170 . S
C264 C263 1.170 . S
C265 C266 1.170 . S
C265 C267 1.380 . S
C266 C265 1.170 . S
C267 C265 1.380 . S
C267 C268 1.170 . S
C268 C267 1.170 . S
C269 C270 1.170 . S
C269 C271 1.380 . S
C270 C269 1.170 . S
C271 C269 1.380 . S
C271 C272 1.170 . S
C272 C271 1.170 . S
C273 C274 1.170 . S
C273 C275 1.380 . S
C274 C273 1.170 . S
C275 C273 1.380 . S
C275 C276 1.170 . S
C276 C275 1.170 . S
C277 C278 1.170 . S
C277 C279 1.380 . S
C278 C277 1.170 . S
C279 C277 1.380 . S
C279 C280 1.170 . S
C280 C279 1.170 . S
C281 C282 1.170 . S
C281 C283 1.380 . S
C282 C281 1.170 . S
C283 C281 1.380 . S
C283 C284 1.170 . S
C284 C283 1.170 . S
C285 C286 1.170 . S
C285 C287 1.380 . S
C286 C285 1.170 . S
C287 C285 1.380 . S
C287 C288 1.170 . S
C288 C287 1.170 . S
C289 C290 1.170 . S
C289 C291 1.380 . S
C290 C289 1.170 . S
C291 C289 1.380 . S
C291 C292 1.170 . S
C292 C291 1.170 . S
C293 C294 1.170 . S
C293 C295 1.380 . S
C294 C293 1.170 . S
C295 C293 1.380 . S
C295 C296 1.170 . S
C296 C295 1.170 . S
C202 C16 1.726 . S
C204 C108 1.780 . S
C206 C26 1.478 . S
C208 C140 1.517 . S
C212 C199 1.828 . S
C210 C52 1.795 . S
C216 C128 1.390 . S
C214 C62 1.422 . S
C218 C80 1.707 . S
C220 C158 1.643 . S
C224 C180 1.388 . S
C222 C98 1.294 . S
C228 C149 1.772 . S
C226 C43 1.728 . S
C230 C68 1.422 . S
C232 C189 1.366 . S
C236 C138 1.649 . S
C234 C86 1.655 1_556 S
C238 C104 1.504 . S
C240 C168 1.477 . S
C242 C7 1.725 . S
C244 C171 1.758 . S
C248 C110 1.593 . S
C246 C32 1.579 1_556 S
C252 C118 1.691 . S
C250 C61 1.652 . S
C256 C159 1.470 . S
C254 C79 1.452 1_556 S
C260 C172 1.806 . S
C258 C97 1.832 . S
C264 C109 1.403 . S
C262 C14 1.413 . S
C268 C169 1.594 . S
C266 C25 1.588 1_556 S
C270 C50 1.313 . S
C272 C170 1.339 . S
C276 C139 1.659 . S
C274 C106 1.674 . S
C280 C200 1.337 . S
C278 C8 1.325 . S
C284 C127 1.590 . S
C282 C34 1.638 . S
C288 C141 1.492 . S
C286 C44 1.502 . S
C290 C70 1.735 . S
C292 C190 1.698 . S
C294 C88 1.533 . S
C296 C137 1.550 . S
