# Generated by pormake.
# Topology wbl, (4,4)-cn, num edge types: 1
# Building blocks:
#     Node 0, Type 0, BuildingBlock: NAWXER_clean_linker_0, # of connection points: 4
#     Node 1, Type 0, BuildingBlock: NAWXER_clean_linker_0, # of connection points: 4
#     Node 2, Type 0, BuildingBlock: NAWXER_clean_linker_0, # of connection points: 4
#     Node 3, Type 0, BuildingBlock: NAWXER_clean_linker_0, # of connection points: 4
#     Node 4, Type 0, BuildingBlock: NAWXER_clean_linker_0, # of connection points: 4
#     Node 5, Type 0, BuildingBlock: NAWXER_clean_linker_0, # of connection points: 4
#     Node 6, Type 0, BuildingBlock: NAWXER_clean_linker_0, # of connection points: 4
#     Node 7, Type 0, BuildingBlock: NAWXER_clean_linker_0, # of connection points: 4
#     Node 8, Type 1, BuildingBlock: TATPOV_clean_sbu_0, # of connection points: 4
#     Node 9, Type 1, BuildingBlock: TATPOV_clean_sbu_0, # of connection points: 4
#     Node 10, Type 1, BuildingBlock: TATPOV_clean_sbu_0, # of connection points: 4
#     Node 11, Type 1, BuildingBlock: TATPOV_clean_sbu_0, # of connection points: 4
#     Node 12, Type 1, BuildingBlock: TATPOV_clean_sbu_0, # of connection points: 4
#     Node 13, Type 1, BuildingBlock: TATPOV_clean_sbu_0, # of connection points: 4
#     Node 14, Type 1, BuildingBlock: TATPOV_clean_sbu_0, # of connection points: 4
#     Node 15, Type 1, BuildingBlock: TATPOV_clean_sbu_0, # of connection points: 4
#     Edge 16, Type (0, 1), BuildingBlock: UVAHIK_clean_linker_0, # of connection points: 2
#     Edge 17, Type (0, 1), BuildingBlock: UVAHIK_clean_linker_0, # of connection points: 2
#     Edge 18, Type (0, 1), BuildingBlock: UVAHIK_clean_linker_0, # of connection points: 2
#     Edge 19, Type (0, 1), BuildingBlock: UVAHIK_clean_linker_0, # of connection points: 2
#     Edge 20, Type (0, 1), BuildingBlock: UVAHIK_clean_linker_0, # of connection points: 2
#     Edge 21, Type (0, 1), BuildingBlock: UVAHIK_clean_linker_0, # of connection points: 2
#     Edge 22, Type (0, 1), BuildingBlock: UVAHIK_clean_linker_0, # of connection points: 2
#     Edge 23, Type (0, 1), BuildingBlock: UVAHIK_clean_linker_0, # of connection points: 2
#     Edge 24, Type (0, 1), BuildingBlock: UVAHIK_clean_linker_0, # of connection points: 2
#     Edge 25, Type (0, 1), BuildingBlock: UVAHIK_clean_linker_0, # of connection points: 2
#     Edge 26, Type (0, 1), BuildingBlock: UVAHIK_clean_linker_0, # of connection points: 2
#     Edge 27, Type (0, 1), BuildingBlock: UVAHIK_clean_linker_0, # of connection points: 2
#     Edge 28, Type (0, 1), BuildingBlock: UVAHIK_clean_linker_0, # of connection points: 2
#     Edge 29, Type (0, 1), BuildingBlock: UVAHIK_clean_linker_0, # of connection points: 2
#     Edge 30, Type (0, 1), BuildingBlock: UVAHIK_clean_linker_0, # of connection points: 2
#     Edge 31, Type (0, 1), BuildingBlock: UVAHIK_clean_linker_0, # of connection points: 2
#     Edge 32, Type (0, 1), BuildingBlock: UVAHIK_clean_linker_0, # of connection points: 2
#     Edge 33, Type (0, 1), BuildingBlock: UVAHIK_clean_linker_0, # of connection points: 2
#     Edge 34, Type (0, 1), BuildingBlock: UVAHIK_clean_linker_0, # of connection points: 2
#     Edge 35, Type (0, 1), BuildingBlock: UVAHIK_clean_linker_0, # of connection points: 2
#     Edge 36, Type (0, 1), BuildingBlock: UVAHIK_clean_linker_0, # of connection points: 2
#     Edge 37, Type (0, 1), BuildingBlock: UVAHIK_clean_linker_0, # of connection points: 2
#     Edge 38, Type (0, 1), BuildingBlock: UVAHIK_clean_linker_0, # of connection points: 2
#     Edge 39, Type (0, 1), BuildingBlock: UVAHIK_clean_linker_0, # of connection points: 2
#     Edge 40, Type (0, 1), BuildingBlock: UVAHIK_clean_linker_0, # of connection points: 2
#     Edge 41, Type (0, 1), BuildingBlock: UVAHIK_clean_linker_0, # of connection points: 2
#     Edge 42, Type (0, 1), BuildingBlock: UVAHIK_clean_linker_0, # of connection points: 2
#     Edge 43, Type (0, 1), BuildingBlock: UVAHIK_clean_linker_0, # of connection points: 2
#     Edge 44, Type (0, 1), BuildingBlock: UVAHIK_clean_linker_0, # of connection points: 2
#     Edge 45, Type (0, 1), BuildingBlock: UVAHIK_clean_linker_0, # of connection points: 2
#     Edge 46, Type (0, 1), BuildingBlock: UVAHIK_clean_linker_0, # of connection points: 2
#     Edge 47, Type (0, 1), BuildingBlock: UVAHIK_clean_linker_0, # of connection points: 2
# Relax obj value: 0.173
# Max RMSD: 0.170
# Mean RMSD: 0.138
data_MOF--net-wbl--node1-TATPOV_clean_sbu_0--node2-NAWXER_clean_linker_0--edge1-UVAHIK_clean_linker_0
_symmetry_space_group_name_H-M    P1
_symmetry_Int_Tables_number       1
_symmetry_cell_setting            triclinic
loop_
_symmetry_equiv_pos_as_xyz
'x, y, z'
_cell_length_a     55.57265
_cell_length_b     55.560246
_cell_length_c     94.853086
_cell_angle_alpha  91.318704
_cell_angle_beta   91.299275
_cell_angle_gamma 90.030581
loop_
_atom_site_label
_atom_site_type_symbol
_atom_site_fract_x
_atom_site_fract_y
_atom_site_fract_z
_atom_type_partial_charge
C0 C 0.12042 0.96912 0.37026 0.0
C1 C 0.13792 0.97678 0.38033 0.0
C2 C 0.10646 0.98589 0.36299 0.0
C3 C 0.10991 0.01069 0.3655 0.0
C4 C 0.1416 0.00162 0.38265 0.0
C5 C 0.12763 0.01838 0.37537 0.0
C6 C 0.09351 0.02852 0.35901 0.0
C7 C 0.13365 0.99552 0.32294 0.0
C8 C 0.11931 0.98015 0.31429 0.0
C9 C 0.12309 0.011 0.33282 0.0
C10 C 0.09799 0.01148 0.33414 0.0
C11 C 0.09417 0.98082 0.31554 0.0
C12 C 0.08358 0.9966 0.32527 0.0
C13 C 0.0867 0.02783 0.34455 0.0
C14 C 0.02607 0.11708 0.33914 0.0
C15 C 0.0057 0.10783 0.33184 0.0
C16 C 0.04362 0.10154 0.34448 0.0
C17 C 0.0411 0.07652 0.34256 0.0
C18 C 0.00346 0.0828 0.32972 0.0
C19 C 0.02113 0.06729 0.33493 0.0
C20 C 0.05913 0.05992 0.34858 0.0
C21 C 0.01768 0.08958 0.38505 0.0
C22 C 0.03103 0.10626 0.39339 0.0
C23 C 0.02908 0.07488 0.37512 0.0
C24 C 0.05404 0.07653 0.37339 0.0
C25 C 0.05603 0.10787 0.39166 0.0
C26 C 0.06749 0.0929 0.38184 0.0
C27 C 0.06607 0.06076 0.36298 0.0
H28 H 0.11723 0.95013 0.36816 0.0
H29 H 0.09242 0.97939 0.35577 0.0
H30 H 0.15465 0.00813 0.39049 0.0
H31 H 0.13039 0.0374 0.37762 0.0
H32 H 0.15308 0.99523 0.32225 0.0
H33 H 0.13451 0.02262 0.33941 0.0
H34 H 0.08274 0.96924 0.30893 0.0
H35 H 0.06417 0.99687 0.32607 0.0
H36 H 0.02822 0.13629 0.34095 0.0
H37 H 0.05913 0.10905 0.35014 0.0
H38 H 0.98808 0.07523 0.32396 0.0
H39 H 0.01897 0.04804 0.33327 0.0
H40 H -0.00162 0.08805 0.38614 0.0
H41 H 0.01842 0.0621 0.36884 0.0
H42 H 0.06673 0.12044 0.39806 0.0
H43 H 0.08679 0.09428 0.38071 0.0
N44 N 0.08302 0.04509 0.36766 0.0
N45 N 0.06963 0.04344 0.33989 0.0
C46 C 0.919 0.51951 0.62199 0.0
C47 C 0.92818 0.50318 0.63186 0.0
C48 C 0.93453 0.53462 0.61485 0.0
C49 C 0.95949 0.53367 0.61747 0.0
C50 C 0.95319 0.50214 0.63434 0.0
C51 C 0.96864 0.51734 0.62729 0.0
C52 C 0.97611 0.55064 0.61081 0.0
C53 C 0.95152 0.50206 0.57476 0.0
C54 C 0.93579 0.51335 0.56523 0.0
C55 C 0.964 0.51561 0.5851 0.0
C56 C 0.96108 0.54068 0.58596 0.0
C57 C 0.93257 0.53836 0.56616 0.0
C58 C 0.94545 0.55202 0.57637 0.0
C59 C 0.97577 0.55503 0.59619 0.0
C60 C 0.06919 0.60444 0.58836 0.0
C61 C 0.06296 0.62372 0.57968 0.0
C62 C 0.05137 0.59135 0.59494 0.0
C63 C 0.02698 0.59723 0.59293 0.0
C64 C 0.03852 0.6296 0.57768 0.0
C65 C 0.02065 0.61626 0.58414 0.0
C66 C 0.00821 0.58276 0.59956 0.0
C67 C 0.04115 0.62807 0.63477 0.0
C68 C 0.05654 0.61472 0.64354 0.0
C69 C 0.0256 0.61633 0.62508 0.0
C70 C 0.02502 0.59108 0.62419 0.0
C71 C 0.05599 0.58947 0.6426 0.0
C72 C 0.0401 0.57773 0.63311 0.0
C73 C 0.00838 0.57855 0.61416 0.0
H74 H 0.89982 0.52068 0.61983 0.0
H75 H 0.92696 0.54744 0.60755 0.0
H76 H 0.96079 0.49003 0.64204 0.0
H77 H 0.98781 0.51643 0.62958 0.0
H78 H 0.95416 0.48275 0.57417 0.0
H79 H 0.97634 0.50658 0.59223 0.0
H80 H 0.9205 0.54731 0.55884 0.0
H81 H 0.94321 0.57139 0.5768 0.0
H82 H 0.08788 0.5996 0.59014 0.0
H83 H 0.05663 0.57641 0.60147 0.0
H84 H 0.03325 0.64425 0.57094 0.0
H85 H 0.00191 0.62089 0.58235 0.0
H86 H 0.04134 0.64757 0.63531 0.0
H87 H 0.01388 0.62693 0.61838 0.0
H88 H 0.0676 0.57884 0.64934 0.0
H89 H 0.0398 0.55823 0.6326 0.0
N90 N 0.99246 0.56257 0.61924 0.0
N91 N 0.99183 0.57094 0.59109 0.0
C92 C 0.55124 0.40803 0.87228 0.0
C93 C 0.56771 0.41939 0.88179 0.0
C94 C 0.53589 0.42176 0.86373 0.0
C95 C 0.53676 0.447 0.8646 0.0
C96 C 0.56925 0.44467 0.88202 0.0
C97 C 0.55376 0.4583 0.87365 0.0
C98 C 0.51853 0.4619 0.85736 0.0
C99 C 0.56721 0.43498 0.82329 0.0
C100 C 0.55586 0.41879 0.81367 0.0
C101 C 0.55369 0.44846 0.83285 0.0
C102 C 0.52856 0.44606 0.83294 0.0
C103 C 0.5307 0.41636 0.81379 0.0
C104 C 0.51713 0.43012 0.82325 0.0
C105 C 0.51416 0.46106 0.84264 0.0
C106 C 0.45494 0.551 0.83632 0.0
C107 C 0.43748 0.5438 0.82619 0.0
C108 C 0.47072 0.53422 0.84206 0.0
C109 C 0.46883 0.50971 0.83817 0.0
C110 C 0.43643 0.51957 0.82163 0.0
C111 C 0.452 0.50259 0.82762 0.0
C112 C 0.48451 0.49178 0.84514 0.0
C113 C 0.43539 0.52078 0.87818 0.0
C114 C 0.44708 0.53755 0.88727 0.0
C115 C 0.44875 0.50566 0.86937 0.0
C116 C 0.474 0.50691 0.86966 0.0
C117 C 0.47235 0.53853 0.8877 0.0
C118 C 0.48572 0.52308 0.87908 0.0
C119 C 0.4882 0.49177 0.85992 0.0
H120 H 0.54943 0.38862 0.87189 0.0
H121 H 0.52265 0.4127 0.85693 0.0
H122 H 0.58213 0.45404 0.8889 0.0
H123 H 0.55476 0.47777 0.87443 0.0
H124 H 0.5866 0.43708 0.82349 0.0
H125 H 0.56285 0.46102 0.84005 0.0
H126 H 0.52151 0.40411 0.80642 0.0
H127 H 0.49772 0.42822 0.82307 0.0
H128 H 0.45644 0.5697 0.83974 0.0
H129 H 0.48429 0.54041 0.84968 0.0
H130 H 0.42318 0.51369 0.81373 0.0
H131 H 0.45051 0.48387 0.82428 0.0
H132 H 0.41592 0.51975 0.87767 0.0
H133 H 0.4394 0.49311 0.86225 0.0
H134 H 0.48172 0.5512 0.89473 0.0
H135 H 0.50518 0.52423 0.87948 0.0
N136 N 0.5053 0.47714 0.86545 0.0
N137 N 0.49736 0.47613 0.83703 0.0
C138 C 0.50902 0.91544 0.09031 0.0
C139 C 0.49612 0.92368 0.07843 0.0
C140 C 0.52661 0.92984 0.09701 0.0
C141 C 0.53119 0.95315 0.09231 0.0
C142 C 0.50119 0.94681 0.07352 0.0
C143 C 0.51853 0.96137 0.08039 0.0
C144 C 0.54995 0.96854 0.09928 0.0
C145 C 0.49482 0.95583 0.13217 0.0
C146 C 0.50324 0.94173 0.14337 0.0
C147 C 0.51091 0.9654 0.12266 0.0
C148 C 0.53571 0.96094 0.12413 0.0
C149 C 0.52812 0.93769 0.14496 0.0
C150 C 0.54421 0.94737 0.13549 0.0
C151 C 0.55293 0.97089 0.1141 0.0
C152 C 0.62712 0.04819 0.12255 0.0
C153 C 0.64089 0.03831 0.13361 0.0
C154 C 0.61021 0.03409 0.11498 0.0
C155 C 0.60698 0.00977 0.11822 0.0
C156 C 0.63784 0.01386 0.13666 0.0
C157 C 0.62095 -0.0002 0.1291 0.0
C158 C 0.58781 0.99513 0.11116 0.0
C159 C 0.64086 0.01306 0.07803 0.0
C160 C 0.63129 0.02844 0.06773 0.0
C161 C 0.62572 0.00139 0.08726 0.0
C162 C 0.60072 0.0049 0.0864 0.0
C163 C 0.60615 0.03131 0.06668 0.0
C164 C 0.59104 0.01951 0.07585 0.0
C165 C 0.58448 0.99334 0.09637 0.0
H166 H 0.50553 0.89786 0.09451 0.0
H167 H 0.53672 0.92259 0.10583 0.0
H168 H 0.49204 0.95359 0.06423 0.0
H169 H 0.52204 0.97911 0.07639 0.0
H170 H 0.47575 0.95919 0.13064 0.0
H171 H 0.50398 0.97628 0.11416 0.0
H172 H 0.53518 0.92721 0.15361 0.0
H173 H 0.5633 0.94397 0.13692 0.0
H174 H 0.62872 0.06706 0.1201 0.0
H175 H 0.59916 0.0424 0.1069 0.0
H176 H 0.64836 0.00562 0.14501 0.0
H177 H 0.61866 0.98111 0.13182 0.0
H178 H 0.66007 0.01004 0.07897 0.0
H179 H 0.63354 0.98967 0.0951 0.0
H180 H 0.59812 0.04324 0.05903 0.0
H181 H 0.57178 0.02235 0.07496 0.0
N182 N 0.56568 0.98012 0.091 0.0
N183 N 0.57191 0.98382 0.11944 0.0
C184 C 0.04051 0.61893 0.89722 0.0
C185 C 0.0579 0.60732 0.8889 0.0
C186 C 0.02455 0.60549 0.90513 0.0
C187 C 0.02568 0.58024 0.90483 0.0
C188 C 0.05945 0.58204 0.88911 0.0
C189 C 0.04335 0.56868 0.89685 0.0
C190 C 0.00749 0.56553 0.91183 0.0
C191 C 0.05397 0.59672 0.94682 0.0
C192 C 0.04226 0.61436 0.955 0.0
C193 C 0.04089 0.58191 0.93738 0.0
C194 C 0.01585 0.58441 0.93596 0.0
C195 C 0.01716 0.61685 0.95359 0.0
C196 C 0.004 0.60175 0.94425 0.0
C197 C 0.00207 0.56818 0.92626 0.0
C198 C 0.95093 0.47668 0.93665 0.0
C199 C 0.9306 0.48372 0.94423 0.0
C200 C 0.96483 0.49378 0.93002 0.0
C201 C 0.95873 0.51827 0.93087 0.0
C202 C 0.92455 0.50828 0.94516 0.0
C203 C 0.93871 0.52549 0.93865 0.0
C204 C 0.9737 0.53611 0.9238 0.0
C205 C 0.92897 0.50112 0.8889 0.0
C206 C 0.94217 0.48483 0.8806 0.0
C207 C 0.94081 0.5168 0.89847 0.0
C208 C 0.96603 0.51663 0.89972 0.0
C209 C 0.96738 0.48448 0.88199 0.0
C210 C 0.97924 0.50049 0.89135 0.0
C211 C 0.9787 0.53392 0.90932 0.0
H212 H 0.03861 0.63832 0.89721 0.0
H213 H 0.01079 0.61477 0.91106 0.0
H214 H 0.07297 0.57247 0.88315 0.0
H215 H 0.04459 0.54921 0.89652 0.0
H216 H 0.07332 0.59457 0.9476 0.0
H217 H 0.05032 0.56833 0.93127 0.0
H218 H 0.00774 0.63027 0.95982 0.0
H219 H 0.98464 0.60375 0.94338 0.0
H220 H 0.95591 0.45787 0.93568 0.0
H221 H 0.98045 0.48787 0.92425 0.0
H222 H 0.90905 0.51417 0.95103 0.0
H223 H 0.93386 0.54434 0.93951 0.0
H224 H 0.90951 0.50166 0.88801 0.0
H225 H 0.93033 0.52936 0.90471 0.0
H226 H 0.9779 0.47218 0.8756 0.0
H227 H -0.00128 0.5002 0.89213 0.0
N228 N 0.99555 0.54853 0.9039 0.0
N229 N 0.98542 0.5533 0.93176 0.0
C230 C 0.42419 0.50759 0.13293 0.0
C231 C 0.43348 0.52121 0.12199 0.0
C232 C 0.43967 0.49486 0.14188 0.0
C233 C 0.46467 0.49553 0.14002 0.0
C234 C 0.45845 0.52129 0.11993 0.0
C235 C 0.47387 0.5084 0.12879 0.0
C236 C 0.48142 0.48306 0.14974 0.0
C237 C 0.45114 0.54508 0.17449 0.0
C238 C 0.43903 0.53915 0.1868 0.0
C239 C 0.46445 0.52778 0.16719 0.0
C240 C 0.46539 0.50393 0.17177 0.0
C241 C 0.44003 0.51526 0.1914 0.0
C242 C 0.45316 0.49785 0.18397 0.0
C243 C 0.48076 0.48592 0.16458 0.0
C244 C 0.57272 0.43892 0.18372 0.0
C245 C 0.56497 0.42696 0.19572 0.0
C246 C 0.55609 0.44916 0.17439 0.0
C247 C 0.53128 0.44721 0.17665 0.0
C248 C 0.54013 0.42555 0.19815 0.0
C249 C 0.52347 0.43565 0.18872 0.0
C250 C 0.51353 0.45847 0.16696 0.0
C251 C 0.54998 0.40142 0.14013 0.0
C252 C 0.56557 0.41173 0.1305 0.0
C253 C 0.53345 0.41581 0.14737 0.0
C254 C 0.53209 0.44059 0.14487 0.0
C255 C 0.56426 0.43654 0.12811 0.0
C256 C 0.54743 0.45079 0.13511 0.0
C257 C 0.51442 0.45599 0.15213 0.0
H258 H 0.40503 0.50723 0.13476 0.0
H259 H 0.43215 0.48467 0.15033 0.0
H260 H 0.46605 0.53136 0.11145 0.0
H261 H 0.49307 0.50899 0.12709 0.0
H262 H 0.45058 0.5632 0.17054 0.0
H263 H 0.47443 0.53326 0.15814 0.0
H264 H 0.43125 0.51015 0.20096 0.0
H265 H 0.45398 0.47967 0.18785 0.0
H266 H 0.59166 0.44021 0.18142 0.0
H267 H 0.56271 0.45882 0.16549 0.0
H268 H 0.53353 0.41684 0.2074 0.0
H269 H 0.50444 0.43434 0.19084 0.0
H270 H 0.55068 0.3823 0.1421 0.0
H271 H 0.52156 0.40759 0.15477 0.0
H272 H 0.57595 0.4448 0.12061 0.0
H273 H 0.54655 0.46987 0.13301 0.0
N274 N 0.4984 0.4684 0.14409 0.0
N275 N 0.49667 0.4733 0.17261 0.0
C276 C 0.50238 0.92941 0.40003 0.0
C277 C 0.48567 0.9393 0.39043 0.0
C278 C 0.51839 0.94434 0.40775 0.0
C279 C 0.51773 0.96942 0.40614 0.0
C280 C 0.48472 0.96443 0.38911 0.0
C281 C 0.50065 0.9793 0.39683 0.0
C282 C 0.53597 0.98543 0.41303 0.0
C283 C 0.49333 0.95491 0.44792 0.0
C284 C 0.50657 0.93828 0.4559 0.0
C285 C 0.50495 0.97013 0.43875 0.0
C286 C 0.53002 0.96906 0.43742 0.0
C287 C 0.53173 0.93748 0.45472 0.0
C288 C 0.54339 0.95297 0.44566 0.0
C289 C 0.54231 0.98479 0.42752 0.0
C290 C 0.60315 0.07455 0.43451 0.0
C291 C 0.62085 0.06648 0.44406 0.0
C292 C 0.58646 0.05843 0.42843 0.0
C293 C 0.5877 0.03378 0.4314 0.0
C294 C 0.62138 0.04207 0.44759 0.0
C295 C 0.60496 0.02583 0.44128 0.0
C296 C 0.57076 0.01634 0.42451 0.0
C297 C 0.61335 0.04846 0.38988 0.0
C298 C 0.59948 0.06148 0.38009 0.0
C299 C 0.60223 0.03367 0.39952 0.0
C300 C 0.57701 0.03199 0.39975 0.0
C301 C 0.57428 0.05931 0.38013 0.0
C302 C 0.56318 0.04465 0.38983 0.0
C303 C 0.56487 0.01648 0.40992 0.0
H304 H 0.50373 0.9101 0.40113 0.0
H305 H 0.53184 0.93621 0.41457 0.0
H306 H 0.47183 0.9726 0.38195 0.0
H307 H 0.49984 -0.00143 0.39539 0.0
H308 H 0.47391 0.95578 0.44854 0.0
H309 H 0.49435 0.98269 0.43263 0.0
H310 H 0.54235 0.92494 0.46083 0.0
H311 H 0.56278 0.95203 0.44486 0.0
H312 H 0.6021 0.09339 0.43186 0.0
H313 H 0.57267 0.06526 0.42134 0.0
H314 H 0.63485 0.03548 0.45497 0.0
H315 H 0.60602 0.00699 0.44392 0.0
H316 H 0.63282 0.04942 0.38993 0.0
H317 H 0.61335 0.02347 0.40675 0.0
H318 H 0.56311 0.06923 0.37278 0.0
H319 H 0.54371 0.04347 0.38972 0.0
N320 N 0.54752 0.00122 0.40482 0.0
N321 N 0.55947 0.00026 0.43272 0.0
C322 C 0.16243 0.01434 0.64835 0.0
C323 C 0.15446 -0.00191 0.63765 0.0
C324 C 0.14585 0.02834 0.65584 0.0
C325 C 0.1211 0.02631 0.65268 0.0
C326 C 0.12967 0.99615 0.63458 0.0
C327 C 0.11321 0.01023 0.64195 0.0
C328 C 0.10323 0.04173 0.65981 0.0
C329 C 0.13343 0.99195 0.69226 0.0
C330 C 0.14244 0.00313 0.7047 0.0
C331 C 0.11988 0.00501 0.68252 0.0
C332 C 0.11581 0.02977 0.68478 0.0
C333 C 0.13769 0.02762 0.70726 0.0
C334 C 0.12457 0.04085 0.69735 0.0
C335 C 0.10113 0.04388 0.67465 0.0
C336 C 0.00687 0.09724 0.67895 0.0
C337 C 0.0121 0.11343 0.69017 0.0
C338 C 0.02503 0.08308 0.67317 0.0
C339 C 0.04895 0.08541 0.67817 0.0
C340 C 0.03575 0.11492 0.69568 0.0
C341 C 0.05406 0.10103 0.6897 0.0
C342 C 0.06847 0.07132 0.67153 0.0
C343 C 0.04016 0.12109 0.63842 0.0
C344 C 0.02511 0.10873 0.62862 0.0
C345 C 0.0553 0.10833 0.64753 0.0
C346 C 0.05581 0.08307 0.64679 0.0
C347 C 0.0259 0.08349 0.62777 0.0
C348 C 0.04141 0.07075 0.63666 0.0
C349 C 0.07089 0.06937 0.65677 0.0
H350 H 0.18144 0.0162 0.65093 0.0
H351 H 0.15236 0.04097 0.66392 0.0
H352 H 0.12301 0.98411 0.62622 0.0
H353 H 0.09422 0.00857 0.63925 0.0
H354 H 0.13644 0.97293 0.69022 0.0
H355 H 0.11229 0.99559 0.67334 0.0
H356 H 0.14437 0.03656 0.71684 0.0
H357 H 0.12131 0.0598 0.69949 0.0
H358 H 0.98866 0.09538 0.67474 0.0
H359 H 0.02032 0.07032 0.66476 0.0
H360 H 0.04016 0.12722 0.70438 0.0
H361 H 0.07229 0.10284 0.69389 0.0
H362 H 0.03978 0.14057 0.63924 0.0
H363 H 0.06646 0.11812 0.65522 0.0
H364 H 0.01451 0.07365 0.62021 0.0
H365 H 0.04165 0.05126 0.63593 0.0
N366 N 0.08796 0.05451 0.65148 0.0
N367 N 0.08385 0.05871 0.67991 0.0
Zn368 Zn 0.29375 0.74526 0.98694 0.0
Zn369 Zn 0.30279 0.71295 0.00781 0.0
O370 O 0.26607 0.71444 0.00748 0.0
O371 O 0.25815 0.74056 0.99085 0.0
O372 O 0.31174 0.69074 0.02351 0.0
O373 O 0.31295 0.77082 0.99792 0.0
O374 O 0.32089 0.74367 0.0139 0.0
C375 C 0.25094 0.72625 1.00009 0.0
C376 C 0.31849 0.70166 0.97772 0.0
O377 O 0.31607 0.69586 0.99051 0.0
O378 O 0.31109 0.72193 0.97353 0.0
C379 C 0.30399 0.66933 0.02448 0.0
O380 O 0.28843 0.66086 0.01498 0.0
C381 C 0.32336 0.76487 0.00933 0.0
Zn382 Zn 0.3045 0.76826 0.279 0.0
Zn383 Zn 0.32826 0.79471 0.25949 0.0
O384 O 0.29419 0.80825 0.25814 0.0
O385 O 0.27438 0.78715 0.27348 0.0
O386 O 0.34691 0.81218 0.2449 0.0
O387 O 0.31354 0.73735 0.26842 0.0
O388 O 0.33302 0.75959 0.25352 0.0
C389 C 0.2748 0.80362 0.26445 0.0
C390 C 0.34321 0.79846 0.29071 0.0
O391 O 0.34519 0.80444 0.27792 0.0
O392 O 0.3276 0.78302 0.29401 0.0
C393 C 0.34496 0.83458 0.24271 0.0
O394 O 0.32973 0.84745 0.25012 0.0
C395 C 0.32656 0.739 0.25769 0.0
Zn396 Zn 0.27661 0.77969 0.49277 0.0
Zn397 Zn 0.26607 0.81537 0.51202 0.0
O398 O 0.30276 0.81549 0.51189 0.0
O399 O 0.31224 0.78601 0.49713 0.0
O400 O 0.25765 0.83899 0.5275 0.0
O401 O 0.25729 0.75546 0.50378 0.0
O402 O 0.24886 0.78528 0.51848 0.0
C403 C 0.3186 0.80308 0.50551 0.0
C404 C 0.25044 0.82123 0.48142 0.0
O405 O 0.25156 0.8292 0.49412 0.0
O406 O 0.25941 0.80087 0.47823 0.0
C407 C 0.26802 0.85901 0.53021 0.0
O408 O 0.28568 0.86595 0.52227 0.0
C409 C 0.24657 0.76331 0.5146 0.0
Zn410 Zn 0.26445 0.75917 0.75 0.0
Zn411 Zn 0.23381 0.75215 0.77147 0.0
O412 O 0.23509 0.78908 0.77119 0.0
O413 O 0.2602 0.79495 0.75395 0.0
O414 O 0.21209 0.74364 0.78742 0.0
O415 O 0.29022 0.73976 0.75978 0.0
O416 O 0.26495 0.73422 0.77694 0.0
C417 C 0.24643 0.80333 0.76335 0.0
C418 C 0.22093 0.73457 0.74121 0.0
O419 O 0.2158 0.73784 0.75413 0.0
O420 O 0.24096 0.74164 0.7367 0.0
C421 C 0.20672 0.72142 0.78786 0.0
O422 O 0.21531 0.70664 0.7782 0.0
C423 C 0.28538 0.73053 0.77146 0.0
Zn424 Zn 0.81702 0.25965 0.52887 0.0
Zn425 Zn 0.84733 0.24931 0.50715 0.0
O426 O 0.84713 0.28603 0.5075 0.0
O427 O 0.8223 0.29504 0.52461 0.0
O428 O 0.86975 0.24 0.49152 0.0
O429 O 0.79107 0.24016 0.51857 0.0
O430 O 0.81558 0.23289 0.50104 0.0
C431 C 0.83627 0.30166 0.51504 0.0
C432 C 0.85924 0.23354 0.53753 0.0
O433 O 0.86396 0.23505 0.52452 0.0
O434 O 0.83998 0.24247 0.54227 0.0
C435 C 0.89244 0.24068 0.49358 0.0
O436 O 0.90113 0.24862 0.50581 0.0
C437 C 0.79511 0.23048 0.50663 0.0
Zn438 Zn 0.79739 0.28388 0.76933 0.0
Zn439 Zn 0.80629 0.31528 0.74852 0.0
O440 O 0.76946 0.31581 0.74927 0.0
O441 O 0.76168 0.28894 0.76529 0.0
O442 O 0.81468 0.33675 0.73252 0.0
O443 O 0.81618 0.25782 0.75932 0.0
O444 O 0.82277 0.28359 0.74256 0.0
C445 C 0.75439 0.30424 0.75645 0.0
C446 C 0.82411 0.32647 0.77867 0.0
O447 O 0.82186 0.33216 0.76578 0.0
O448 O 0.81548 0.30681 0.78285 0.0
C449 C 0.80653 0.3579 0.73088 0.0
O450 O 0.79108 0.36673 0.73991 0.0
C451 C 0.82561 0.26278 0.74772 0.0
Zn452 Zn 0.77184 0.26862 0.02704 0.0
Zn453 Zn 0.73725 0.27491 0.00652 0.0
O454 O 0.73958 0.23823 0.00668 0.0
O455 O 0.76665 0.23257 0.02362 0.0
O456 O 0.71351 0.28272 0.99088 0.0
O457 O 0.79596 0.28771 0.01599 0.0
O458 O 0.7667 0.29395 0.00053 0.0
C459 C 0.75177 0.22408 0.01445 0.0
C460 C 0.7286 0.29208 0.0369 0.0
O461 O 0.72135 0.28812 0.02424 0.0
O462 O 0.74982 0.28644 0.04074 0.0
C463 C 0.70681 0.30459 0.99066 0.0
O464 O 0.71494 0.31955 0.00059 0.0
C465 C 0.78828 0.29753 0.00485 0.0
Zn466 Zn 0.78305 0.24606 0.24177 0.0
Zn467 Zn 0.75435 0.22304 0.26047 0.0
O468 O 0.73829 0.25602 0.25863 0.0
O469 O 0.76208 0.27572 0.24462 0.0
O470 O 0.73504 0.20508 0.27463 0.0
O471 O 0.81207 0.2402 0.25468 0.0
O472 O 0.78816 0.22224 0.26935 0.0
C473 C 0.74348 0.27504 0.25209 0.0
C474 C 0.75864 0.20337 0.23022 0.0
O475 O 0.75058 0.20227 0.24264 0.0
O476 O 0.77267 0.22033 0.22704 0.0
C477 C 0.71428 0.21092 0.27892 0.0
O478 O 0.70373 0.23023 0.27399 0.0
C479 C 0.80909 0.22924 0.26608 0.0
C480 C 0.12462 0.93847 0.30432 0.0
C481 C 0.13072 0.96299 0.30433 0.0
C482 C 0.13706 0.92186 0.29594 0.0
C483 C 0.19589 0.91514 0.27894 0.0
H484 H 0.16801 0.85499 0.2649 0.0
C485 C 0.25596 0.84165 0.25581 0.0
C486 C 0.25373 0.81972 0.26279 0.0
C487 C 0.23802 0.85918 0.25685 0.0
C488 C 0.17599 0.87178 0.26869 0.0
H489 H 0.15345 0.98966 0.29499 0.0
H490 H 0.1747 0.96086 0.28 0.0
H491 H 0.14185 0.88657 0.27429 0.0
H492 H 0.22987 0.79811 0.27515 0.0
H493 H 0.19862 0.82867 0.27693 0.0
H494 H 0.23 0.90025 0.27359 0.0
C495 C 0.16088 0.95424 0.28678 0.0
C496 C 0.16105 0.88983 0.27415 0.0
C497 C 0.14867 0.97078 0.29532 0.0
C498 C 0.23225 0.81488 0.26976 0.0
C499 C 0.21425 0.83236 0.27071 0.0
C500 C 0.21073 0.89725 0.27336 0.0
C501 C 0.15568 0.92947 0.28725 0.0
C502 C 0.1709 0.9115 0.27969 0.0
C503 C 0.21743 0.85505 0.26478 0.0
C504 C 0.20103 0.87516 0.2685 0.0
H505 H 0.11094 0.932 0.31126 0.0
H506 H 0.13276 0.90295 0.29677 0.0
H507 H 0.20426 0.93133 0.28333 0.0
H508 H 0.27219 0.84591 0.25026 0.0
H509 H 0.24077 0.8764 0.25201 0.0
C510 C 0.10049 0.6255 0.56561 0.0
C511 C 0.08198 0.63753 0.57273 0.0
C512 C 0.11865 0.63847 0.55922 0.0
C513 C 0.13336 0.69977 0.54691 0.0
H514 H 0.19879 0.67542 0.54759 0.0
C515 C 0.21414 0.75782 0.53208 0.0
C516 C 0.22983 0.74765 0.52216 0.0
C517 C 0.19677 0.74371 0.53835 0.0
C518 C 0.18056 0.68231 0.54725 0.0
H519 H 0.06805 0.67249 0.57892 0.0
H520 H 0.10006 0.69522 0.56814 0.0
H521 H 0.16692 0.65235 0.55836 0.0
H522 H 0.24013 0.71443 0.51145 0.0
H523 H 0.2099 0.68962 0.52268 0.0
H524 H 0.14724 0.73003 0.53612 0.0
C525 C 0.10028 0.67577 0.56712 0.0
C526 C 0.16225 0.66909 0.55336 0.0
C527 C 0.08196 0.66278 0.57335 0.0
C528 C 0.22829 0.72282 0.51903 0.0
C529 C 0.21106 0.70861 0.52547 0.0
C530 C 0.15171 0.7131 0.54097 0.0
C531 C 0.11887 0.6638 0.55994 0.0
C532 C 0.13839 0.67768 0.5533 0.0
C533 C 0.19486 0.71904 0.53499 0.0
C534 C 0.17548 0.70455 0.54112 0.0
H535 H 0.10076 0.60601 0.56484 0.0
H536 H 0.13235 0.62861 0.55357 0.0
H537 H 0.11518 0.70673 0.54635 0.0
H538 H 0.2148 0.77687 0.53476 0.0
H539 H 0.1847 0.75214 0.54579 0.0
C540 C 0.40703 0.57611 0.82992 0.0
C541 C 0.42039 0.56176 0.82059 0.0
C542 C 0.39195 0.59417 0.82482 0.0
C543 C 0.36285 0.61666 0.79184 0.0
H544 H 0.35781 0.67583 0.81412 0.0
C545 C 0.32125 0.70355 0.77001 0.0
C546 C 0.30258 0.71356 0.77801 0.0
C547 C 0.33588 0.68548 0.77553 0.0
C548 C 0.35899 0.65934 0.80785 0.0
H549 H 0.42852 0.55473 0.79869 0.0
H550 H 0.40289 0.58689 0.78972 0.0
H551 H 0.38263 0.64295 0.82285 0.0
H552 H 0.28526 0.71316 0.79827 0.0
H553 H 0.31141 0.68193 0.80805 0.0
H554 H 0.3398 0.63363 0.77662 0.0
C555 C 0.40342 0.58386 0.80095 0.0
C556 C 0.37307 0.6404 0.81286 0.0
C557 C 0.41819 0.56549 0.80605 0.0
C558 C 0.29948 0.70579 0.79185 0.0
C559 C 0.31443 0.68797 0.79746 0.0
C560 C 0.34912 0.63576 0.78673 0.0
C561 C 0.39023 0.59859 0.81028 0.0
C562 C 0.37514 0.61875 0.80494 0.0
C563 C 0.33242 0.67735 0.78923 0.0
C564 C 0.34705 0.65724 0.7947 0.0
H565 H 0.4083 0.57335 0.84118 0.0
H566 H 0.38166 0.60466 0.83232 0.0
H567 H 0.36357 0.60017 0.78556 0.0
H568 H 0.32409 0.70906 0.7593 0.0
H569 H 0.3498 0.6777 0.76904 0.0
C570 C 0.45666 0.91791 0.06515 0.0
C571 C 0.47776 0.90803 0.07111 0.0
C572 C 0.4395 0.90314 0.05827 0.0
C573 C 0.43175 0.84155 0.04239 0.0
H574 H 0.36378 0.85612 0.04539 0.0
C575 C 0.35691 0.7738 0.02665 0.0
C576 C 0.33943 0.78214 0.01699 0.0
C577 C 0.37321 0.7898 0.03323 0.0
C578 C 0.38272 0.85197 0.04443 0.0
H579 H 0.49733 0.87469 0.07426 0.0
H580 H 0.46698 0.84896 0.06306 0.0
H581 H 0.39353 0.88271 0.05699 0.0
H582 H 0.32483 0.81387 0.00701 0.0
H583 H 0.35309 0.84197 0.01887 0.0
H584 H 0.42073 0.81032 0.03025 0.0
C585 C 0.46388 0.8682 0.06335 0.0
C586 C 0.39981 0.86724 0.05099 0.0
C587 C 0.48117 0.88298 0.07004 0.0
C588 C 0.33816 0.80692 0.01437 0.0
C589 C 0.35421 0.82299 0.02117 0.0
C590 C 0.41467 0.82611 0.03606 0.0
C591 C 0.44285 0.87806 0.05731 0.0
C592 C 0.42457 0.86218 0.05009 0.0
C593 C 0.37209 0.81449 0.03048 0.0
C594 C 0.39003 0.83115 0.03705 0.0
H595 H 0.45322 0.93707 0.06591 0.0
H596 H 0.42372 0.91147 0.0536 0.0
H597 H 0.45061 0.83733 0.04115 0.0
H598 H 0.3584 0.75482 0.02887 0.0
H599 H 0.38675 0.78287 0.04046 0.0
C600 C 0.05401 0.65547 0.96415 0.0
C601 C 0.05657 0.63036 0.96466 0.0
C602 C 0.06998 0.67059 0.97176 0.0
C603 C 0.11778 0.67239 0.99976 0.0
H604 H 0.14935 0.71615 0.97486 0.0
C605 C 0.2168 0.69996 0.00695 0.0
C606 C 0.22488 0.72152 0.00123 0.0
C607 C 0.19253 0.69347 0.00578 0.0
C608 C 0.14047 0.7046 0.98217 0.0
H609 H 0.07649 0.60131 0.97431 0.0
H610 H 0.10434 0.62763 0.98761 0.0
H611 H 0.11242 0.6963 0.96705 0.0
H612 H 0.21358 0.75429 0.99103 0.0
H613 H 0.17111 0.74343 0.98945 0.0
H614 H 0.14624 0.68023 0.01475 0.0
C615 C 0.09009 0.6357 0.98135 0.0
C616 C 0.11924 0.69314 0.97764 0.0
C617 C 0.07432 0.62063 0.97363 0.0
C618 C 0.20794 0.73735 0.99533 0.0
C619 C 0.1836 0.73105 0.99436 0.0
C620 C 0.13894 0.68407 0.00436 0.0
C621 C 0.08856 0.66082 0.98015 0.0
C622 C 0.10813 0.6763 0.98618 0.0
C623 C 0.17574 0.70859 0.99904 0.0
C624 C 0.15103 0.69966 0.99542 0.0
H625 H 0.04049 0.66341 0.95729 0.0
H626 H 0.06832 0.68989 0.97072 0.0
H627 H 0.1094 0.65969 0.00662 0.0
H628 H 0.22942 0.68736 0.01156 0.0
H629 H 0.18729 0.67593 0.0094 0.0
C630 C 0.43618 0.58134 0.19652 0.0
C631 C 0.4263 0.55811 0.19505 0.0
C632 C 0.42435 0.59936 0.20411 0.0
C633 C 0.36477 0.6165 0.2178 0.0
H634 H 0.40301 0.6638 0.23906 0.0
C635 C 0.32608 0.69423 0.25319 0.0
C636 C 0.33566 0.71706 0.25047 0.0
C637 C 0.33585 0.6735 0.24691 0.0
C638 C 0.39212 0.65072 0.23315 0.0
H639 H 0.39614 0.53562 0.20054 0.0
H640 H 0.37582 0.56696 0.21425 0.0
H641 H 0.42278 0.62954 0.22784 0.0
H642 H 0.36274 0.73604 0.23887 0.0
H643 H 0.37992 0.69991 0.22815 0.0
H644 H 0.33405 0.63782 0.22339 0.0
C645 C 0.39257 0.57131 0.20926 0.0
C646 C 0.40343 0.63115 0.22665 0.0
C647 C 0.40436 0.55327 0.20155 0.0
C648 C 0.35491 0.71876 0.24119 0.0
C649 C 0.36487 0.69808 0.23511 0.0
C650 C 0.35341 0.63598 0.22449 0.0
C651 C 0.40243 0.5946 0.21063 0.0
C652 C 0.38998 0.61409 0.21861 0.0
C653 C 0.3556 0.67527 0.23801 0.0
C654 C 0.36708 0.65351 0.23195 0.0
H655 H 0.45324 0.58565 0.19189 0.0
H656 H 0.43232 0.61715 0.20471 0.0
H657 H 0.35386 0.60382 0.21161 0.0
H658 H 0.3112 0.69236 0.26027 0.0
H659 H 0.32843 0.65607 0.24929 0.0
C660 C 0.47579 0.9297 0.474 0.0
C661 C 0.49392 0.92135 0.46505 0.0
C662 C 0.46226 0.91351 0.48162 0.0
C663 C 0.43963 0.8525 0.47864 0.0
H664 H 0.41805 0.86452 0.51674 0.0
C665 C 0.36202 0.7972 0.49961 0.0
C666 C 0.34408 0.81097 0.50619 0.0
C667 C 0.38492 0.80689 0.49771 0.0
C668 C 0.42384 0.8609 0.50608 0.0
H669 H 0.51267 0.88965 0.45738 0.0
H670 H 0.48877 0.86124 0.47061 0.0
H671 H 0.44985 0.88945 0.50732 0.0
H672 H 0.33675 0.845 0.51693 0.0
H673 H 0.37615 0.86209 0.51324 0.0
H674 H 0.41279 0.8251 0.47693 0.0
C675 C 0.48513 0.88033 0.47175 0.0
C676 C 0.44211 0.87514 0.50072 0.0
C677 C 0.49886 0.89657 0.46425 0.0
C678 C 0.3501 0.8339 0.51177 0.0
C679 C 0.37287 0.84369 0.50972 0.0
C680 C 0.42119 0.83847 0.48391 0.0
C681 C 0.46643 0.88862 0.48033 0.0
C682 C 0.44977 0.87145 0.48682 0.0
C683 C 0.39029 0.83066 0.50218 0.0
C684 C 0.41258 0.84289 0.49757 0.0
H685 H 0.47175 0.94874 0.47489 0.0
H686 H 0.44782 0.92041 0.48804 0.0
H687 H 0.44497 0.8494 0.46783 0.0
H688 H 0.35806 0.77935 0.49534 0.0
H689 H 0.39808 0.79608 0.4922 0.0
C690 C 0.17661 0.97584 0.71066 0.0
C691 C 0.15644 0.98898 0.71502 0.0
C692 C 0.1889 0.961 0.72007 0.0
C693 C 0.21743 0.93919 0.74462 0.0
H694 H 0.17732 0.88876 0.75914 0.0
C695 C 0.22302 0.8391 0.77224 0.0
C696 C 0.24131 0.82952 0.76379 0.0
C697 C 0.21514 0.86282 0.7705 0.0
C698 C 0.18885 0.90299 0.75558 0.0
H699 H 0.13344 0.99739 0.73258 0.0
H700 H 0.15461 0.97068 0.74902 0.0
H701 H 0.15864 0.92338 0.74809 0.0
H702 H 0.26702 0.83802 0.74774 0.0
H703 H 0.25303 0.8787 0.74447 0.0
H704 H 0.24768 0.91875 0.75185 0.0
C705 C 0.16106 0.97221 0.73839 0.0
C706 C 0.17808 0.9228 0.74918 0.0
C707 C 0.14904 0.98747 0.72904 0.0
C708 C 0.25276 0.84471 0.75437 0.0
C709 C 0.24482 0.86826 0.75257 0.0
C710 C 0.22822 0.91958 0.75122 0.0
C711 C 0.18097 0.9587 0.73393 0.0
C712 C 0.19229 0.94057 0.74315 0.0
C713 C 0.22534 0.87739 0.76024 0.0
C714 C 0.21409 0.90068 0.75622 0.0
H715 H 0.18265 0.9768 0.69991 0.0
H716 H 0.20402 0.95055 0.71632 0.0
H717 H 0.22875 0.95285 0.74021 0.0
H718 H 0.21395 0.82796 0.77969 0.0
H719 H 0.20044 0.86941 0.77681 0.0
C720 C 0.56722 0.3794 0.80224 0.0
C721 C 0.57043 0.40442 0.80366 0.0
C722 C 0.58251 0.36561 0.79378 0.0
C723 C 0.62718 0.36855 0.76557 0.0
H724 H 0.65872 0.31684 0.78552 0.0
C725 C 0.72168 0.33423 0.75215 0.0
C726 C 0.72865 0.31099 0.75607 0.0
C727 C 0.69843 0.34255 0.75477 0.0
C728 C 0.64976 0.33073 0.77955 0.0
H729 H 0.59119 0.43483 0.79677 0.0
H730 H 0.61784 0.41078 0.78195 0.0
H731 H 0.62472 0.33726 0.79599 0.0
H732 H 0.71608 0.27737 0.76442 0.0
H733 H 0.67522 0.29143 0.76838 0.0
H734 H 0.65244 0.36227 0.74918 0.0
C735 C 0.60356 0.4018 0.78737 0.0
C736 C 0.63026 0.34252 0.78563 0.0
C737 C 0.58849 0.41553 0.79596 0.0
C738 C 0.71131 0.2955 0.76148 0.0
C739 C 0.68794 0.30366 0.76386 0.0
C740 C 0.64653 0.35653 0.75938 0.0
C741 C 0.60107 0.37665 0.78643 0.0
C742 C 0.61921 0.36198 0.77889 0.0
C743 C 0.68151 0.32765 0.76116 0.0
C744 C 0.65855 0.33791 0.76648 0.0
H745 H 0.55347 0.37039 0.80809 0.0
H746 H 0.58015 0.34625 0.79319 0.0
H747 H 0.61878 0.38334 0.76008 0.0
H748 H 0.73465 0.34662 0.748 0.0
H749 H 0.69433 0.36117 0.75262 0.0
C750 C 0.64076 0.0467 0.04443 0.0
C751 C 0.64739 0.04228 0.05855 0.0
C752 C 0.6548 0.06161 0.03625 0.0
C753 C 0.7146 0.09058 0.03411 0.0
H754 H 0.67896 0.14272 0.01702 0.0
C755 C 0.75581 0.18325 0.02482 0.0
C756 C 0.74595 0.19803 0.01434 0.0
C757 C 0.74661 0.16021 0.02678 0.0
C758 C 0.68929 0.12802 0.02137 0.0
H759 H 0.67449 0.04963 0.07493 0.0
H760 H 0.69908 0.07528 0.06059 0.0
H761 H 0.65732 0.10941 0.02698 0.0
H762 H 0.72031 0.19923 0.99677 0.0
H763 H 0.7047 0.15874 0.99996 0.0
H764 H 0.74659 0.10946 0.02877 0.0
C765 C 0.68309 0.06705 0.05584 0.0
C766 C 0.67681 0.10892 0.02714 0.0
C767 C 0.66897 0.05231 0.06406 0.0
C768 C 0.72813 0.18843 0.00507 0.0
C769 C 0.71904 0.16527 0.00696 0.0
C770 C 0.72711 0.10959 0.02821 0.0
C771 C 0.67591 0.07225 0.04194 0.0
C772 C 0.68931 0.09037 0.03395 0.0
C773 C 0.72746 0.15127 0.01823 0.0
C774 C 0.71459 0.12896 0.02217 0.0
H775 H 0.62453 0.03888 0.03974 0.0
H776 H 0.64897 0.06511 0.02551 0.0
H777 H 0.7247 0.07632 0.03912 0.0
H778 H 0.76962 0.18998 0.03212 0.0
H779 H 0.75349 0.15012 0.03563 0.0
C780 C 0.96235 0.11913 0.32881 0.0
C781 C 0.9867 0.1242 0.32654 0.0
C782 C 0.94435 0.1343 0.32365 0.0
C783 C 0.93185 0.17659 0.29568 0.0
H784 H 0.87687 0.19426 0.31814 0.0
C785 C 0.85331 0.23107 0.272 0.0
C786 C 0.83014 0.22279 0.27506 0.0
C787 C 0.87344 0.22287 0.27958 0.0
C788 C 0.89203 0.18937 0.31169 0.0
H789 H 0.01136 0.14912 0.31717 0.0
H790 H 0.97978 0.1756 0.30799 0.0
H791 H 0.91024 0.17215 0.32887 0.0
H792 H 0.80989 0.2001 0.28886 0.0
H793 H 0.84487 0.18543 0.3018 0.0
H794 H 0.91337 0.19283 0.27835 0.0
C795 C 0.97469 0.15991 0.31381 0.0
C796 C 0.91114 0.17676 0.31786 0.0
C797 C 0.99272 0.14487 0.31911 0.0
C798 C 0.82747 0.20689 0.28623 0.0
C799 C 0.84757 0.19857 0.29373 0.0
C800 C 0.91265 0.189 0.28947 0.0
C801 C 0.95032 0.15473 0.316 0.0
C802 C 0.93106 0.16993 0.30985 0.0
C803 C 0.87086 0.2061 0.29033 0.0
C804 C 0.89231 0.19519 0.29734 0.0
H805 H 0.95723 0.10344 0.33463 0.0
H806 H 0.92571 0.12973 0.32537 0.0
H807 H 0.94688 0.17134 0.28922 0.0
H808 H 0.85598 0.24349 0.26353 0.0
H809 H 0.89106 0.2294 0.27686 0.0
C810 C 0.936 0.48748 0.54352 0.0
C811 C 0.92304 0.49868 0.55433 0.0
C812 C 0.92482 0.47059 0.53443 0.0
C813 C 0.86543 0.44195 0.52469 0.0
H814 H 0.90511 0.38509 0.51996 0.0
C815 C 0.82959 0.34495 0.52177 0.0
C816 C 0.84181 0.32756 0.51366 0.0
C817 C 0.83744 0.36884 0.52234 0.0
C818 C 0.89387 0.40095 0.52086 0.0
H819 H 0.88828 0.5021 0.56393 0.0
H820 H 0.86876 0.47186 0.54844 0.0
H821 H 0.92312 0.42203 0.52917 0.0
H822 H 0.87064 0.32205 0.49887 0.0
H823 H 0.88438 0.36378 0.49993 0.0
H824 H 0.83584 0.42003 0.51715 0.0
C825 C 0.88734 0.47648 0.54661 0.0
C826 C 0.90422 0.42226 0.52615 0.0
C827 C 0.89848 0.49369 0.55555 0.0
C828 C 0.86095 0.33494 0.50532 0.0
C829 C 0.86887 0.35882 0.50595 0.0
C830 C 0.855 0.42049 0.5195 0.0
C831 C 0.90058 0.46416 0.53621 0.0
C832 C 0.89005 0.44288 0.52849 0.0
C833 C 0.85772 0.37581 0.51485 0.0
C834 C 0.86903 0.39961 0.51789 0.0
H835 H 0.95499 0.49124 0.54241 0.0
H836 H 0.93543 0.4619 0.52634 0.0
H837 H 0.85406 0.4576 0.5261 0.0
H838 H 0.81465 0.33991 0.52823 0.0
H839 H 0.82856 0.38146 0.52937 0.0
C840 C 0.64261 0.08521 0.4649 0.0
C841 C 0.63878 0.08354 0.45025 0.0
C842 C 0.65932 0.1016 0.47074 0.0
C843 C 0.69485 0.1561 0.46206 0.0
H844 H 0.73089 0.13941 0.49593 0.0
C845 C 0.77771 0.20904 0.48518 0.0
C846 C 0.77641 0.21523 0.4996 0.0
C847 C 0.76054 0.19367 0.47878 0.0
C848 C 0.72085 0.1443 0.4865 0.0
H849 H 0.6496 0.09712 0.43015 0.0
H850 H 0.67954 0.12505 0.44023 0.0
H851 H 0.70226 0.11066 0.48539 0.0
H852 H 0.75607 0.21028 0.51859 0.0
H853 H 0.72649 0.18302 0.50745 0.0
H854 H 0.71429 0.1895 0.46303 0.0
C855 C 0.66914 0.1144 0.44731 0.0
C856 C 0.70431 0.12792 0.48049 0.0
C857 C 0.6521 0.09831 0.44151 0.0
C858 C 0.75752 0.20592 0.50745 0.0
C859 C 0.74067 0.19023 0.50112 0.0
C860 C 0.71173 0.1723 0.46794 0.0
C861 C 0.67291 0.11635 0.46202 0.0
C862 C 0.69092 0.13366 0.46825 0.0
C863 C 0.74211 0.18388 0.48677 0.0
C864 C 0.7247 0.16659 0.48027 0.0
H865 H 0.63233 0.07415 0.47186 0.0
H866 H 0.66131 0.1029 0.48211 0.0
H867 H 0.68462 0.16138 0.45279 0.0
H868 H 0.79203 0.21598 0.47886 0.0
H869 H 0.76202 0.18893 0.46769 0.0
C870 C 0.98857 0.12949 0.71051 0.0
C871 C 0.99279 0.12875 0.69599 0.0
C872 C 0.96969 0.14327 0.71588 0.0
C873 C 0.91312 0.17443 0.70469 0.0
H874 H 0.92023 0.20549 0.74157 0.0
C875 C 0.8495 0.24848 0.72701 0.0
C876 C 0.84182 0.24517 0.74086 0.0
C877 C 0.86671 0.23313 0.72112 0.0
C878 C 0.91797 0.19676 0.73129 0.0
H879 H 0.98123 0.14224 0.67571 0.0
H880 H 0.94893 0.16712 0.68507 0.0
H881 H 0.95337 0.18187 0.73217 0.0
H882 H 0.84575 0.22281 0.75924 0.0
H883 H 0.87608 0.19638 0.74901 0.0
H884 H 0.87792 0.19025 0.70373 0.0
C885 C 0.95952 0.15645 0.69232 0.0
C886 C 0.9369 0.18311 0.72591 0.0
C887 C 0.97813 0.14234 0.68695 0.0
C888 C 0.85122 0.22583 0.74854 0.0
C889 C 0.86869 0.21078 0.74274 0.0
C890 C 0.89434 0.18844 0.70999 0.0
C891 C 0.95489 0.15696 0.70686 0.0
C892 C 0.93472 0.17166 0.71255 0.0
C893 C 0.87681 0.21449 0.72906 0.0
C894 C 0.89657 0.19961 0.72337 0.0
H895 H -0.00049 0.11894 0.71767 0.0
H896 H 0.96647 0.14282 0.72708 0.0
H897 H 0.91053 0.16555 0.69449 0.0
H898 H 0.84257 0.26319 0.72082 0.0
H899 H 0.87276 0.23637 0.71055 0.0
C900 C 0.89068 0.46494 0.94905 0.0
C901 C 0.91579 0.46528 0.95102 0.0
C902 C 0.87693 0.44657 0.95471 0.0
C903 C 0.88273 0.38474 0.96865 0.0
H904 H 0.81905 0.3978 0.98283 0.0
C905 C 0.82822 0.31725 0.00109 0.0
C906 C 0.80366 0.31473 0.99745 0.0
C907 C 0.84216 0.33494 0.99489 0.0
C908 C 0.83673 0.39386 0.97879 0.0
H909 H 0.94615 0.4473 0.96088 0.0
H910 H 0.9222 0.41568 0.97112 0.0
H911 H 0.84277 0.4306 0.97364 0.0
H912 H 0.77463 0.32851 0.98422 0.0
H913 H 0.79896 0.35943 0.97354 0.0
H914 H 0.87676 0.34804 0.97416 0.0
C915 C 0.9131 0.42908 0.96484 0.0
C916 C 0.85033 0.41263 0.97348 0.0
C917 C 0.92683 0.44728 0.95905 0.0
C918 C 0.7935 0.32993 0.98726 0.0
C919 C 0.80736 0.34776 0.98121 0.0
C920 C 0.86922 0.36602 0.9741 0.0
C921 C 0.88799 0.42829 0.9626 0.0
C922 C 0.8735 0.40833 0.96832 0.0
C923 C 0.83175 0.35062 0.98507 0.0
C924 C 0.84608 0.37039 0.97919 0.0
H925 H 0.88175 0.47848 0.94277 0.0
H926 H 0.85771 0.4464 0.95259 0.0
H927 H 0.90029 0.3806 0.96452 0.0
H928 H 0.83659 0.30584 0.00889 0.0
H929 H 0.8609 0.33683 0.99811 0.0
C930 C 0.57809 0.39325 0.2114 0.0
C931 C 0.58282 0.4157 0.20547 0.0
C932 C 0.59563 0.38181 0.21965 0.0
C933 C 0.66055 0.37724 0.22311 0.0
H934 H 0.64783 0.34281 0.25724 0.0
C935 C 0.73389 0.31817 0.24749 0.0
C936 C 0.72639 0.29542 0.25181 0.0
C937 C 0.71707 0.33633 0.24494 0.0
C938 C 0.65167 0.3522 0.24768 0.0
H939 H 0.60924 0.44435 0.20434 0.0
H940 H 0.64001 0.42404 0.21842 0.0
H941 H 0.61639 0.36788 0.24672 0.0
H942 H 0.69553 0.27424 0.25762 0.0
H943 H 0.66613 0.30545 0.25268 0.0
H944 H 0.69515 0.36076 0.22344 0.0
C945 C 0.62277 0.41528 0.21657 0.0
C946 C 0.63367 0.36662 0.2417 0.0
C947 C 0.60518 0.42682 0.20844 0.0
C948 C 0.70189 0.29163 0.25434 0.0
C949 C 0.685 0.30963 0.25155 0.0
C950 C 0.67838 0.36263 0.22895 0.0
C951 C 0.61831 0.39249 0.22206 0.0
C952 C 0.63786 0.37901 0.22925 0.0
C953 C 0.69229 0.33198 0.24638 0.0
C954 C 0.67411 0.34961 0.2412 0.0
H955 H 0.5612 0.38403 0.20922 0.0
H956 H 0.59181 0.36412 0.22362 0.0
H957 H 0.66417 0.38632 0.21339 0.0
H958 H 0.75272 0.32173 0.24564 0.0
H959 H 0.72346 0.35352 0.24139 0.0
C960 C 0.17575 0.96227 0.39244 0.0
C961 C 0.15121 0.95901 0.389 0.0
C962 C 0.18775 0.94636 0.40138 0.0
C963 C 0.20296 0.92057 0.42803 0.0
H964 H 0.18988 0.85197 0.42659 0.0
C965 C 0.22964 0.85888 0.47372 0.0
C966 C 0.23922 0.83613 0.4703 0.0
C967 C 0.21973 0.8733 0.46322 0.0
C968 C 0.1939 0.87105 0.42705 0.0
H969 H 0.12009 0.93636 0.39222 0.0
H970 H 0.14098 0.90866 0.40777 0.0
H971 H 0.17195 0.87777 0.40872 0.0
H972 H 0.24573 0.81064 0.45313 0.0
H973 H 0.22854 0.83592 0.43479 0.0
H974 H 0.22504 0.91386 0.44628 0.0
C975 C 0.15107 0.92329 0.40339 0.0
C976 C 0.18344 0.88587 0.4169 0.0
C977 C 0.13909 0.93918 0.39446 0.0
C978 C 0.23845 0.82805 0.45614 0.0
C979 C 0.22851 0.84249 0.44563 0.0
C980 C 0.21339 0.90577 0.43818 0.0
C981 C 0.17547 0.92684 0.40709 0.0
C982 C 0.18768 0.91083 0.41735 0.0
C983 C 0.21916 0.86534 0.44904 0.0
C984 C 0.20879 0.88087 0.4379 0.0
H985 H 0.18568 0.97718 0.38825 0.0
H986 H 0.20665 0.94938 0.40386 0.0
H987 H 0.20642 0.93974 0.42877 0.0
H988 H 0.22985 0.86566 0.48452 0.0
H989 H 0.21231 0.89064 0.46624 0.0
C990 C 0.0643 0.64411 0.66346 0.0
C991 C 0.0731 0.62711 0.65371 0.0
C992 C 0.07991 0.65553 0.67324 0.0
C993 C 0.14173 0.65066 0.68916 0.0
H994 H 0.12988 0.71687 0.70086 0.0
C995 C 0.21157 0.71133 0.71889 0.0
C996 C 0.20362 0.72227 0.73145 0.0
C997 C 0.19531 0.69942 0.70971 0.0
C998 C 0.13327 0.69833 0.69772 0.0
H999 H 0.10498 0.609 0.64622 0.0
H1000 H 0.13251 0.62966 0.66282 0.0
H1001 H 0.10241 0.69696 0.68389 0.0
H1002 H 0.1724 0.72958 0.74418 0.0
H1003 H 0.14382 0.70928 0.72784 0.0
H1004 H 0.17321 0.6526 0.70263 0.0
C1005 C 0.11349 0.63364 0.66335 0.0
C1006 C 0.11749 0.68682 0.68807 0.0
C1007 C 0.09778 0.6219 0.65376 0.0
C1008 C 0.17904 0.72126 0.73459 0.0
C1009 C 0.1627 0.70976 0.72525 0.0
C1010 C 0.15773 0.66234 0.69859 0.0
C1011 C 0.10476 0.65051 0.6733 0.0
C1012 C 0.12149 0.6628 0.68365 0.0
C1013 C 0.17075 0.69864 0.71278 0.0
C1014 C 0.15361 0.68624 0.70296 0.0
H1015 H 0.04525 0.64822 0.66367 0.0
H1016 H 0.07239 0.66801 0.68087 0.0
H1017 H 0.14518 0.63203 0.6863 0.0
H1018 H 0.23041 0.71173 0.71622 0.0
H1019 H 0.20187 0.69105 0.70011 0.0
C1020 C 0.43695 0.57916 0.89577 0.0
C1021 C 0.43295 0.55423 0.89618 0.0
C1022 C 0.42353 0.59497 0.90413 0.0
C1023 C 0.39199 0.59917 0.93699 0.0
H1024 H 0.35788 0.65299 0.9206 0.0
C1025 C 0.33113 0.66 0.97073 0.0
C1026 C 0.3302 0.68465 0.96782 0.0
C1027 C 0.34264 0.64389 0.9616 0.0
C1028 C 0.3676 0.63831 0.92542 0.0
H1029 H 0.41208 0.52616 0.90563 0.0
H1030 H 0.389 0.55387 0.92061 0.0
H1031 H 0.38045 0.62548 0.90546 0.0
H1032 H 0.34062 0.71182 0.95311 0.0
H1033 H 0.36167 0.68395 0.93749 0.0
H1034 H 0.3802 0.61228 0.95699 0.0
C1035 C 0.40232 0.56112 0.9137 0.0
C1036 C 0.38038 0.62249 0.9167 0.0
C1037 C 0.4154 0.54534 0.90512 0.0
C1038 C 0.34092 0.69287 0.95556 0.0
C1039 C 0.35286 0.67682 0.94656 0.0
C1040 C 0.37961 0.61521 0.94574 0.0
C1041 C 0.40624 0.58606 0.91324 0.0
C1042 C 0.3926 0.60276 0.92242 0.0
C1043 C 0.35396 0.65209 0.94948 0.0
C1044 C 0.36714 0.63498 0.94009 0.0
H1045 H 0.4503 0.5864 0.88887 0.0
H1046 H 0.42694 0.61413 0.90366 0.0
H1047 H 0.40154 0.58421 0.94165 0.0
H1048 H 0.32278 0.65309 0.98002 0.0
H1049 H 0.34253 0.62496 0.96406 0.0
C1050 C 0.4888 0.90717 0.15749 0.0
C1051 C 0.48613 0.93115 0.15332 0.0
C1052 C 0.47269 0.89713 0.16681 0.0
C1053 C 0.42954 0.91313 0.19432 0.0
H1054 H 0.40546 0.84839 0.1871 0.0
C1055 C 0.35711 0.87041 0.22885 0.0
C1056 C 0.3601 0.84602 0.23208 0.0
C1057 C 0.37167 0.88116 0.21892 0.0
C1058 C 0.41221 0.86639 0.18936 0.0
H1059 H 0.46462 0.96346 0.15575 0.0
H1060 H 0.43639 0.94585 0.17201 0.0
H1061 H 0.43255 0.86643 0.17046 0.0
H1062 H 0.38082 0.81381 0.22744 0.0
H1063 H 0.4064 0.8326 0.21037 0.0
H1064 H 0.40952 0.91298 0.21332 0.0
C1065 C 0.451 0.93487 0.16809 0.0
C1066 C 0.42771 0.87673 0.17981 0.0
C1067 C 0.46703 0.94488 0.15869 0.0
C1068 C 0.37793 0.83261 0.22515 0.0
C1069 C 0.39252 0.84337 0.21528 0.0
C1070 C 0.41413 0.90273 0.20392 0.0
C1071 C 0.45363 0.91087 0.17223 0.0
C1072 C 0.43665 0.90016 0.18221 0.0
C1073 C 0.38959 0.86777 0.21203 0.0
C1074 C 0.40538 0.87917 0.2016 0.0
H1075 H 0.5032 0.89607 0.15344 0.0
H1076 H 0.47533 0.87865 0.16991 0.0
H1077 H 0.43635 0.93112 0.19654 0.0
H1078 H 0.34348 0.88122 0.23396 0.0
H1079 H 0.36871 0.89991 0.21654 0.0
C1080 C 0.07953 0.61167 0.86617 0.0
C1081 C 0.07371 0.62119 0.87953 0.0
C1082 C 0.09472 0.62412 0.85739 0.0
C1083 C 0.11721 0.68357 0.84899 0.0
H1084 H 0.16833 0.64723 0.83127 0.0
C1085 C 0.18527 0.72623 0.81087 0.0
C1086 C 0.1915 0.71193 0.79908 0.0
C1087 C 0.17161 0.71656 0.82162 0.0
C1088 C 0.15401 0.65762 0.836 0.0
H1089 H 0.07908 0.65172 0.89396 0.0
H1090 H 0.1053 0.67381 0.87834 0.0
H1091 H 0.14305 0.62793 0.84831 0.0
H1092 H 0.18766 0.67652 0.78916 0.0
H1093 H 0.16358 0.65995 0.80759 0.0
H1094 H 0.12773 0.71309 0.83632 0.0
C1095 C 0.09809 0.65653 0.87481 0.0
C1096 C 0.1396 0.64656 0.84581 0.0
C1097 C 0.08303 0.6439 0.88372 0.0
C1098 C 0.18342 0.68798 0.79815 0.0
C1099 C 0.16972 0.6784 0.8088 0.0
C1100 C 0.13154 0.69464 0.83903 0.0
C1101 C 0.10429 0.64659 0.86163 0.0
C1102 C 0.12079 0.65926 0.85222 0.0
C1103 C 0.16387 0.69243 0.82077 0.0
C1104 C 0.14982 0.68161 0.83221 0.0
H1105 H 0.07217 0.59461 0.86238 0.0
H1106 H 0.0988 0.61625 0.84716 0.0
H1107 H 0.10275 0.69374 0.85374 0.0
H1108 H 0.19126 0.74476 0.81189 0.0
H1109 H 0.16754 0.72783 0.83072 0.0
C1110 C 0.39593 0.52599 0.10705 0.0
C1111 C 0.41733 0.5358 0.11293 0.0
C1112 C 0.38105 0.53978 0.0983 0.0
C1113 C 0.36642 0.60238 0.08959 0.0
H1114 H 0.34506 0.57569 0.0533 0.0
C1115 C 0.33217 0.66228 0.04491 0.0
C1116 C 0.31366 0.65378 0.03575 0.0
C1117 C 0.34228 0.6474 0.05509 0.0
C1118 C 0.35047 0.58331 0.0635 0.0
H1119 H 0.4396 0.56781 0.11456 0.0
H1120 H 0.41364 0.59186 0.09933 0.0
H1121 H 0.36727 0.55042 0.06979 0.0
H1122 H 0.29087 0.62308 0.03035 0.0
H1123 H 0.30829 0.59715 0.04836 0.0
H1124 H 0.34976 0.63526 0.08337 0.0
C1125 C 0.40837 0.57355 0.10146 0.0
C1126 C 0.36325 0.56882 0.07293 0.0
C1127 C 0.42335 0.55972 0.11006 0.0
C1128 C 0.30517 0.63015 0.03721 0.0
C1129 C 0.31525 0.61524 0.04747 0.0
C1130 C 0.3535 0.6168 0.08023 0.0
C1131 C 0.38712 0.56371 0.09544 0.0
C1132 C 0.37174 0.57836 0.08595 0.0
C1133 C 0.33407 0.62364 0.05647 0.0
C1134 C 0.34578 0.60761 0.06695 0.0
H1135 H 0.39093 0.50756 0.10904 0.0
H1136 H 0.36471 0.53178 0.09384 0.0
H1137 H 0.3724 0.61009 0.09967 0.0
H1138 H 0.33923 0.68035 0.04405 0.0
H1139 H 0.35702 0.65437 0.06165 0.0
C1140 C 0.46748 0.92861 0.36679 0.0
C1141 C 0.47025 0.92356 0.38117 0.0
C1142 C 0.453 0.9141 0.35793 0.0
C1143 C 0.42521 0.85389 0.35435 0.0
H1144 H 0.38655 0.88514 0.32556 0.0
C1145 C 0.3573 0.80402 0.31597 0.0
C1146 C 0.35837 0.81063 0.30177 0.0
C1147 C 0.37059 0.81671 0.32643 0.0
C1148 C 0.39735 0.87615 0.33349 0.0
H1149 H 0.46014 0.89917 0.39754 0.0
H1150 H 0.43451 0.87377 0.382 0.0
H1151 H 0.40974 0.90951 0.34263 0.0
H1152 H 0.37474 0.83539 0.2874 0.0
H1153 H 0.39772 0.85741 0.30559 0.0
H1154 H 0.41258 0.82045 0.3451 0.0
C1155 C 0.44379 0.88889 0.37758 0.0
C1156 C 0.41068 0.89009 0.34326 0.0
C1157 C 0.45841 0.90343 0.38648 0.0
C1158 C 0.37339 0.82984 0.29823 0.0
C1159 C 0.38647 0.84258 0.30866 0.0
C1160 C 0.4117 0.83989 0.34458 0.0
C1161 C 0.44081 0.89419 0.36321 0.0
C1162 C 0.42516 0.87915 0.35363 0.0
C1163 C 0.38498 0.83637 0.32288 0.0
C1164 C 0.39802 0.85091 0.3339 0.0
H1165 H 0.47681 0.94365 0.36231 0.0
H1166 H 0.45162 0.91835 0.34685 0.0
H1167 H 0.4363 0.8449 0.36215 0.0
H1168 H 0.34594 0.78928 0.31905 0.0
H1169 H 0.36909 0.81158 0.33733 0.0
C1170 C 0.19214 0.99447 0.62362 0.0
C1171 C 0.17173 0.98367 0.62927 0.0
C1172 C 0.20685 0.98143 0.61442 0.0
C1173 C 0.22111 0.91948 0.6017 0.0
H1174 H 0.23598 0.95044 0.56671 0.0
C1175 C 0.24234 0.86561 0.55126 0.0
C1176 C 0.26037 0.87398 0.54243 0.0
C1177 C 0.235 0.87947 0.56282 0.0
C1178 C 0.23236 0.94165 0.57651 0.0
H1179 H 0.15147 0.95045 0.63035 0.0
H1180 H 0.17692 0.92778 0.61426 0.0
H1181 H 0.21753 0.97375 0.5857 0.0
H1182 H 0.28489 0.90352 0.5389 0.0
H1183 H 0.27196 0.92782 0.55918 0.0
H1184 H 0.23534 0.88724 0.59238 0.0
C1185 C 0.18168 0.94627 0.61693 0.0
C1186 C 0.22181 0.95501 0.58741 0.0
C1187 C 0.16694 0.95931 0.62604 0.0
C1188 C 0.27092 0.89657 0.54547 0.0
C1189 C 0.26348 0.91052 0.55706 0.0
C1190 C 0.23164 0.90614 0.59082 0.0
C1191 C 0.20154 0.95728 0.6108 0.0
C1192 C 0.21555 0.94393 0.6 0.0
C1193 C 0.24545 0.90208 0.56587 0.0
C1194 C 0.23685 0.91693 0.57797 0.0
H1195 H 0.1962 0.01326 0.62587 0.0
H1196 H 0.22216 0.99034 0.60996 0.0
H1197 H 0.21691 0.91053 0.61137 0.0
H1198 H 0.23378 0.84832 0.54923 0.0
H1199 H 0.22076 0.87262 0.56924 0.0
C1200 C 0.59225 0.38281 0.88831 0.0
C1201 C 0.58224 0.40527 0.89206 0.0
C1202 C 0.60609 0.36999 0.89814 0.0
C1203 C 0.64316 0.37958 0.93021 0.0
H1204 H 0.63138 0.31237 0.93785 0.0
C1205 C 0.68199 0.33711 0.97998 0.0
C1206 C 0.69139 0.31369 0.97903 0.0
C1207 C 0.66883 0.34666 0.96874 0.0
C1208 C 0.63513 0.33104 0.9357 0.0
H1209 H 0.578 0.43116 0.90934 0.0
H1210 H 0.60249 0.40921 0.92619 0.0
H1211 H 0.60855 0.33196 0.91892 0.0
H1212 H 0.69383 0.28165 0.96565 0.0
H1213 H 0.67105 0.29855 0.94583 0.0
H1214 H 0.66967 0.3789 0.94682 0.0
C1215 C 0.59997 0.40169 0.91562 0.0
C1216 C 0.62205 0.34223 0.92487 0.0
C1217 C 0.58602 0.41432 0.90591 0.0
C1218 C 0.68679 0.29976 0.9667 0.0
C1219 C 0.67369 0.30941 0.95536 0.0
C1220 C 0.65629 0.36842 0.94091 0.0
C1221 C 0.61031 0.3795 0.91182 0.0
C1222 C 0.62561 0.36675 0.92225 0.0
C1223 C 0.6649 0.33314 0.95619 0.0
C1224 C 0.65207 0.34418 0.94402 0.0
H1225 H 0.58979 0.37535 0.87773 0.0
H1226 H 0.61393 0.35293 0.89495 0.0
H1227 H 0.6466 0.39838 0.92823 0.0
H1228 H 0.68495 0.34823 0.98939 0.0
H1229 H 0.6618 0.36475 0.9699 0.0
C1230 C 0.67176 0.07136 0.13643 0.0
C1231 C 0.65732 0.05374 0.14248 0.0
C1232 C 0.68635 0.08652 0.14496 0.0
C1233 C 0.71325 0.09279 0.18106 0.0
H1234 H 0.71267 0.16111 0.17354 0.0
C1235 C 0.73758 0.16492 0.22332 0.0
C1236 C 0.75103 0.18505 0.21943 0.0
C1237 C 0.72945 0.14808 0.21316 0.0
C1238 C 0.71335 0.14204 0.17565 0.0
H1239 H 0.64677 0.03839 0.16224 0.0
H1240 H 0.67206 0.06471 0.17704 0.0
H1241 H 0.69246 0.13302 0.15704 0.0
H1242 H 0.7668 0.20305 0.2018 0.0
H1243 H 0.75244 0.17356 0.184 0.0
H1244 H 0.73354 0.10192 0.19988 0.0
C1245 C 0.67255 0.06655 0.1657 0.0
C1246 C 0.70178 0.12593 0.16619 0.0
C1247 C 0.65801 0.05144 0.15721 0.0
C1248 C 0.75647 0.18775 0.20514 0.0
C1249 C 0.74816 0.17095 0.19494 0.0
C1250 C 0.72472 0.10889 0.19052 0.0
C1251 C 0.68679 0.08436 0.1597 0.0
C1252 C 0.70119 0.10117 0.16894 0.0
C1253 C 0.73446 0.151 0.19885 0.0
C1254 C 0.72449 0.13373 0.18807 0.0
H1255 H 0.67182 0.0734 0.1251 0.0
H1256 H 0.69731 0.09989 0.14 0.0
H1257 H 0.71355 0.07378 0.18333 0.0
H1258 H 0.73308 0.16225 0.23423 0.0
H1259 H 0.71866 0.13308 0.21649 0.0
C1260 C 0.00271 0.11153 0.41335 0.0
C1261 C 0.01882 0.1217 0.40396 0.0
C1262 C 0.99082 0.12604 0.42317 0.0
C1263 C 0.96915 0.1871 0.42943 0.0
H1264 H 0.96605 0.16808 0.46845 0.0
C1265 C 0.90008 0.22475 0.46913 0.0
C1266 C 0.90874 0.23059 0.48283 0.0
C1267 C 0.9151 0.2136 0.45933 0.0
C1268 C 0.96692 0.17372 0.45761 0.0
H1269 H 0.03507 0.15496 0.3974 0.0
H1270 H 0.01392 0.18049 0.41452 0.0
H1271 H 0.9896 0.14411 0.45182 0.0
H1272 H 0.94011 0.2298 0.49686 0.0
H1273 H 0.96618 0.21003 0.47977 0.0
H1274 H 0.94601 0.21644 0.43519 0.0
C1275 C 0.01065 0.16126 0.41429 0.0
C1276 C 0.98023 0.15991 0.44809 0.0
C1277 C 0.02284 0.14668 0.40459 0.0
C1278 C 0.93288 0.22554 0.4864 0.0
C1279 C 0.94779 0.21412 0.47665 0.0
C1280 C 0.95554 0.20074 0.43892 0.0
C1281 C 0.99455 0.15106 0.42369 0.0
C1282 C 0.98136 0.16639 0.43389 0.0
C1283 C 0.93897 0.2078 0.46308 0.0
C1284 C 0.95422 0.19411 0.45309 0.0
H1285 H -0.00059 0.09231 0.41313 0.0
H1286 H 0.97836 0.11774 0.43022 0.0
H1287 H 0.96961 0.19239 0.41852 0.0
H1288 H 0.88159 0.22846 0.46605 0.0
H1289 H 0.9078 0.20877 0.44896 0.0
C1290 C 0.89109 0.49773 0.6461 0.0
C1291 C 0.91182 0.48789 0.64 0.0
C1292 C 0.87675 0.48381 0.6547 0.0
C1293 C 0.863 0.42104 0.66401 0.0
H1294 H 0.84522 0.44943 0.70002 0.0
C1295 C 0.83317 0.36368 0.71028 0.0
C1296 C 0.81535 0.3727 0.71926 0.0
C1297 C 0.84236 0.37788 0.6997 0.0
C1298 C 0.84964 0.44132 0.68992 0.0
H1299 H 0.9332 0.45548 0.63767 0.0
H1300 H 0.90826 0.43122 0.65272 0.0
H1301 H 0.86562 0.47391 0.68295 0.0
H1302 H 0.79281 0.4036 0.72392 0.0
H1303 H 0.80865 0.42832 0.7053 0.0
H1304 H 0.84725 0.38839 0.671 0.0
C1305 C 0.90305 0.44968 0.65084 0.0
C1306 C 0.86136 0.45537 0.68013 0.0
C1307 C 0.91747 0.46363 0.64233 0.0
C1308 C 0.80661 0.39613 0.71723 0.0
C1309 C 0.81578 0.41035 0.7066 0.0
C1310 C 0.85118 0.40702 0.67376 0.0
C1311 C 0.88272 0.45969 0.65729 0.0
C1312 C 0.86851 0.44529 0.66716 0.0
C1313 C 0.83392 0.40145 0.69777 0.0
C1314 C 0.8447 0.41687 0.68694 0.0
H1315 H 0.88637 0.51642 0.64459 0.0
H1316 H 0.86107 0.49197 0.65941 0.0
H1317 H 0.86794 0.41285 0.65402 0.0
H1318 H 0.84037 0.34573 0.71156 0.0
H1319 H 0.85657 0.37055 0.69327 0.0
C1320 C 0.60335 0.07719 0.35566 0.0
C1321 C 0.61124 0.0772 0.36984 0.0
C1322 C 0.61435 0.09203 0.346 0.0
C1323 C 0.67027 0.12643 0.34046 0.0
H1324 H 0.63144 0.15758 0.31173 0.0
C1325 C 0.7128 0.17442 0.29389 0.0
C1326 C 0.70225 0.19601 0.28942 0.0
C1327 C 0.70155 0.16032 0.30382 0.0
C1328 C 0.64254 0.14921 0.31976 0.0
H1329 H 0.6366 0.09307 0.38507 0.0
H1330 H 0.65568 0.11918 0.36826 0.0
H1331 H 0.61205 0.13279 0.32903 0.0
H1332 H 0.67161 0.21978 0.29194 0.0
H1333 H 0.65217 0.19535 0.30944 0.0
H1334 H 0.70069 0.14329 0.33142 0.0
C1335 C 0.64129 0.10736 0.36452 0.0
C1336 C 0.63144 0.13473 0.32958 0.0
C1337 C 0.63035 0.09242 0.37416 0.0
C1338 C 0.68018 0.20319 0.29512 0.0
C1339 C 0.66897 0.18912 0.3051 0.0
C1340 C 0.68135 0.14096 0.33068 0.0
C1341 C 0.63344 0.10733 0.35032 0.0
C1342 C 0.64519 0.12308 0.34002 0.0
C1343 C 0.67953 0.16751 0.30957 0.0
C1344 C 0.66764 0.15244 0.32016 0.0
H1345 H 0.58889 0.06541 0.35196 0.0
H1346 H 0.60813 0.09123 0.3351 0.0
H1347 H 0.68145 0.11754 0.34826 0.0
H1348 H 0.72973 0.16828 0.28967 0.0
H1349 H 0.71001 0.14359 0.30684 0.0
C1350 C 0.98345 0.11734 0.61986 0.0
C1351 C 0.0082 0.12208 0.6195 0.0
C1352 C 0.96734 0.12995 0.61128 0.0
C1353 C 0.96283 0.18431 0.58885 0.0
H1354 H 0.90541 0.15174 0.57428 0.0
C1355 C 0.90071 0.21914 0.54368 0.0
C1356 C 0.87633 0.22131 0.54712 0.0
C1357 C 0.91692 0.20762 0.55276 0.0
C1358 C 0.92134 0.16104 0.57835 0.0
H1359 H 0.03575 0.14333 0.60991 0.0
H1360 H 0.00787 0.16461 0.59435 0.0
H1361 H 0.9338 0.13017 0.5893 0.0
H1362 H 0.84972 0.21293 0.56266 0.0
H1363 H 0.87802 0.19206 0.57831 0.0
H1364 H 0.95057 0.21485 0.57726 0.0
C1365 C 0.00062 0.15182 0.60158 0.0
C1366 C 0.93757 0.14878 0.58704 0.0
C1367 C 0.01667 0.13954 0.6104 0.0
C1368 C 0.86842 0.2116 0.55976 0.0
C1369 C 0.88453 0.1996 0.56868 0.0
C1370 C 0.94682 0.19638 0.5799 0.0
C1371 C 0.97569 0.14724 0.60191 0.0
C1372 C 0.9585 0.16028 0.5925 0.0
C1373 C 0.9089 0.19762 0.56526 0.0
C1374 C 0.92591 0.18486 0.57466 0.0
H1375 H 0.97656 0.10409 0.62694 0.0
H1376 H 0.94831 0.12627 0.61213 0.0
H1377 H 0.97842 0.194 0.59303 0.0
H1378 H 0.90733 0.22654 0.53404 0.0
H1379 H 0.93564 0.20618 0.54991 0.0
C1380 C 0.91371 0.47794 0.86015 0.0
C1381 C 0.92972 0.46859 0.87026 0.0
C1382 C 0.90246 0.46272 0.85009 0.0
C1383 C 0.90663 0.40092 0.83406 0.0
H1384 H 0.842 0.41523 0.82042 0.0
C1385 C 0.84642 0.33403 0.80153 0.0
C1386 C 0.83668 0.34287 0.78887 0.0
C1387 C 0.85819 0.3495 0.81124 0.0
C1388 C 0.86011 0.41115 0.8241 0.0
H1389 H 0.94619 0.43612 0.87812 0.0
H1390 H 0.92577 0.40927 0.86101 0.0
H1391 H 0.8612 0.44163 0.83823 0.0
H1392 H 0.83142 0.37485 0.77648 0.0
H1393 H 0.85148 0.40206 0.79371 0.0
H1394 H 0.90491 0.36984 0.82025 0.0
C1395 C 0.92246 0.42842 0.86043 0.0
C1396 C 0.87122 0.42632 0.83425 0.0
C1397 C 0.93405 0.44373 0.87031 0.0
C1398 C 0.83883 0.36753 0.78613 0.0
C1399 C 0.85018 0.38309 0.79599 0.0
C1400 C 0.89532 0.38553 0.82412 0.0
C1401 C 0.90664 0.43772 0.8501 0.0
C1402 C 0.89468 0.42146 0.83935 0.0
C1403 C 0.86001 0.37417 0.80859 0.0
C1404 C 0.87201 0.39057 0.81903 0.0
H1405 H 0.91031 0.49713 0.85983 0.0
H1406 H 0.89082 0.47068 0.84217 0.0
H1407 H 0.92486 0.3968 0.83746 0.0
H1408 H 0.84511 0.3151 0.80391 0.0
H1409 H 0.86555 0.34227 0.82093 0.0
C1410 C 0.60723 0.40279 0.1225 0.0
C1411 C 0.58272 0.39667 0.12255 0.0
C1412 C 0.62317 0.38959 0.11417 0.0
C1413 C 0.62532 0.35628 0.08133 0.0
H1414 H 0.68503 0.32901 0.09558 0.0
C1415 C 0.68702 0.30136 0.04486 0.0
C1416 C 0.71201 0.303 0.04718 0.0
C1417 C 0.67121 0.31149 0.05456 0.0
C1418 C 0.66863 0.33683 0.09136 0.0
H1419 H 0.55556 0.37198 0.11414 0.0
H1420 H 0.5834 0.34921 0.09921 0.0
H1421 H 0.6577 0.34906 0.11187 0.0
H1422 H 0.7401 0.31674 0.06139 0.0
H1423 H 0.71263 0.33548 0.078 0.0
H1424 H 0.63645 0.34532 0.06079 0.0
C1425 C 0.59027 0.36402 0.10576 0.0
C1426 C 0.65293 0.34813 0.10073 0.0
C1427 C 0.57443 0.37691 0.11432 0.0
C1428 C 0.7209 0.31507 0.05937 0.0
C1429 C 0.7051 0.32565 0.06895 0.0
C1430 C 0.6412 0.34544 0.07192 0.0
C1431 C 0.61472 0.37038 0.10554 0.0
C1432 C 0.63113 0.35787 0.09578 0.0
C1433 C 0.68 0.32399 0.06669 0.0
C1434 C 0.66307 0.33549 0.07679 0.0
H1435 H 0.61399 0.41795 0.1288 0.0
H1436 H 0.64193 0.39488 0.1141 0.0
H1437 H 0.60874 0.36399 0.07725 0.0
H1438 H 0.67962 0.29191 0.03562 0.0
H1439 H 0.65207 0.30927 0.05257 0.0
loop_
_geom_bond_atom_site_label_1
_geom_bond_atom_site_label_2
_geom_bond_distance
_geom_bond_site_symmetry_2
_ccdc_geom_bond_type
C0 C1 1.384 . S
C0 C2 1.384 . S
C0 H28 0.931 . S
C1 C0 1.384 . S
C1 C4 1.382 1_565 S
C2 C0 1.384 . S
C2 C3 1.381 1_565 S
C2 H29 0.930 . S
C3 C2 1.381 1_545 S
C3 C5 1.381 . S
C3 C6 1.487 . S
C4 C1 1.382 1_545 S
C4 C5 1.387 . S
C4 H30 0.930 . S
C5 C3 1.381 . S
C5 C4 1.387 . S
C5 H31 0.931 . S
C6 C3 1.487 . S
C6 C13 1.399 . S
C6 N44 1.343 . S
C7 C8 1.384 . S
C7 C9 1.384 . S
C7 H32 0.931 . S
C8 C7 1.384 . S
C8 C11 1.382 . S
C9 C7 1.384 . S
C9 C10 1.381 . S
C9 H33 0.930 1_565 S
C10 C9 1.381 . S
C10 C12 1.381 . S
C10 C13 1.487 1_565 S
C11 C8 1.382 . S
C11 C12 1.387 . S
C11 H34 0.930 . S
C12 C10 1.381 . S
C12 C11 1.387 . S
C12 H35 0.931 . S
C13 C6 1.399 . S
C13 C10 1.487 1_545 S
C13 N45 1.343 . S
C14 C15 1.384 . S
C14 C16 1.384 . S
C14 H36 0.931 . S
C15 C14 1.384 . S
C15 C18 1.382 . S
C16 C14 1.384 . S
C16 C17 1.381 . S
C16 H37 0.930 . S
C17 C16 1.381 . S
C17 C19 1.381 . S
C17 C20 1.487 . S
C18 C15 1.382 . S
C18 C19 1.387 . S
C18 H38 0.930 1_455 S
C19 C17 1.381 . S
C19 C18 1.387 . S
C19 H39 0.931 . S
C20 C17 1.487 . S
C20 C27 1.399 . S
C20 N45 1.343 . S
C21 C22 1.384 1_655 S
C21 C23 1.384 1_655 S
C21 H40 0.931 . S
C22 C21 1.384 1_455 S
C22 C25 1.382 . S
C23 C21 1.384 1_455 S
C23 C24 1.381 . S
C23 H41 0.930 . S
C24 C23 1.381 . S
C24 C26 1.381 . S
C24 C27 1.487 . S
C25 C22 1.382 . S
C25 C26 1.387 . S
C25 H42 0.930 . S
C26 C24 1.381 . S
C26 C25 1.387 . S
C26 H43 0.931 . S
C27 C20 1.399 . S
C27 C24 1.487 . S
C27 N44 1.343 . S
H28 C0 0.931 . S
H29 C2 0.930 . S
H30 C4 0.930 . S
H31 C5 0.931 . S
H32 C7 0.931 . S
H33 C9 0.930 1_545 S
H34 C11 0.930 . S
H35 C12 0.931 . S
H36 C14 0.931 . S
H37 C16 0.930 . S
H38 C18 0.930 1_655 S
H39 C19 0.931 . S
H40 C21 0.931 . S
H41 C23 0.930 . S
H42 C25 0.930 . S
H43 C26 0.931 . S
N44 C6 1.343 . S
N44 C27 1.343 . S
N45 C13 1.343 . S
N45 C20 1.343 . S
C46 C47 1.384 . S
C46 C48 1.384 . S
C46 H74 0.931 . S
C47 C46 1.384 . S
C47 C50 1.382 . S
C48 C46 1.384 . S
C48 C49 1.381 . S
C48 H75 0.930 . S
C49 C48 1.381 . S
C49 C51 1.381 . S
C49 C52 1.511 . S
C50 C47 1.382 . S
C50 C51 1.387 . S
C50 H76 0.930 . S
C51 C49 1.381 . S
C51 C50 1.387 . S
C51 H77 0.931 1_655 S
C52 C49 1.511 . S
C52 C59 1.398 . S
C52 N90 1.321 1_655 S
C53 C54 1.384 . S
C53 C55 1.384 . S
C53 H78 0.931 . S
C54 C53 1.384 . S
C54 C57 1.382 . S
C55 C53 1.384 . S
C55 C56 1.381 . S
C55 H79 0.930 . S
C56 C55 1.381 . S
C56 C58 1.381 . S
C56 C59 1.495 . S
C57 C54 1.382 . S
C57 C58 1.387 . S
C57 H80 0.930 . S
C58 C56 1.381 . S
C58 C57 1.387 . S
C58 H81 0.931 . S
C59 C52 1.398 . S
C59 C56 1.495 . S
C59 N91 1.334 1_655 S
C60 C61 1.384 . S
C60 C62 1.384 . S
C60 H82 0.931 . S
C61 C60 1.384 . S
C61 C64 1.382 . S
C62 C60 1.384 . S
C62 C63 1.381 . S
C62 H83 0.930 . S
C63 C62 1.381 . S
C63 C65 1.381 . S
C63 C66 1.487 . S
C64 C61 1.382 . S
C64 C65 1.387 . S
C64 H84 0.930 . S
C65 C63 1.381 . S
C65 C64 1.387 . S
C65 H85 0.931 . S
C66 C63 1.487 . S
C66 C73 1.399 . S
C66 N91 1.343 . S
C67 C68 1.384 . S
C67 C69 1.384 . S
C67 H86 0.931 . S
C68 C67 1.384 . S
C68 C71 1.382 . S
C69 C67 1.384 . S
C69 C70 1.381 . S
C69 H87 0.930 . S
C70 C69 1.381 . S
C70 C72 1.381 . S
C70 C73 1.487 . S
C71 C68 1.382 . S
C71 C72 1.387 . S
C71 H88 0.930 . S
C72 C70 1.381 . S
C72 C71 1.387 . S
C72 H89 0.931 . S
C73 C66 1.399 . S
C73 C70 1.487 . S
C73 N90 1.343 . S
H74 C46 0.931 . S
H75 C48 0.930 . S
H76 C50 0.930 . S
H77 C51 0.931 1_455 S
H78 C53 0.931 . S
H79 C55 0.930 . S
H80 C57 0.930 . S
H81 C58 0.931 . S
H82 C60 0.931 . S
H83 C62 0.930 . S
H84 C64 0.930 . S
H85 C65 0.931 . S
H86 C67 0.931 . S
H87 C69 0.930 . S
H88 C71 0.930 . S
H89 C72 0.931 . S
N90 C52 1.321 1_455 S
N90 C73 1.343 . S
N91 C59 1.334 1_455 S
N91 C66 1.343 . S
C92 C93 1.384 . S
C92 C94 1.384 . S
C92 H120 0.931 . S
C93 C92 1.384 . S
C93 C96 1.382 . S
C94 C92 1.384 . S
C94 C95 1.381 . S
C94 H121 0.930 . S
C95 C94 1.381 . S
C95 C97 1.381 . S
C95 C98 1.487 . S
C96 C93 1.382 . S
C96 C97 1.387 . S
C96 H122 0.930 . S
C97 C95 1.381 . S
C97 C96 1.387 . S
C97 H123 0.931 . S
C98 C95 1.487 . S
C98 C105 1.399 . S
C98 N136 1.343 . S
C99 C100 1.384 . S
C99 C101 1.384 . S
C99 H124 0.931 . S
C100 C99 1.384 . S
C100 C103 1.382 . S
C101 C99 1.384 . S
C101 C102 1.381 . S
C101 H125 0.930 . S
C102 C101 1.381 . S
C102 C104 1.381 . S
C102 C105 1.487 . S
C103 C100 1.382 . S
C103 C104 1.387 . S
C103 H126 0.930 . S
C104 C102 1.381 . S
C104 C103 1.387 . S
C104 H127 0.931 . S
C105 C98 1.399 . S
C105 C102 1.487 . S
C105 N137 1.343 . S
C106 C107 1.384 . S
C106 C108 1.384 . S
C106 H128 0.931 . S
C107 C106 1.384 . S
C107 C110 1.382 . S
C108 C106 1.384 . S
C108 C109 1.381 . S
C108 H129 0.930 . S
C109 C108 1.381 . S
C109 C111 1.381 . S
C109 C112 1.487 . S
C110 C107 1.382 . S
C110 C111 1.387 . S
C110 H130 0.930 . S
C111 C109 1.381 . S
C111 C110 1.387 . S
C111 H131 0.931 . S
C112 C109 1.487 . S
C112 C119 1.399 . S
C112 N137 1.343 . S
C113 C114 1.384 . S
C113 C115 1.384 . S
C113 H132 0.931 . S
C114 C113 1.384 . S
C114 C117 1.382 . S
C115 C113 1.384 . S
C115 C116 1.381 . S
C115 H133 0.930 . S
C116 C115 1.381 . S
C116 C118 1.381 . S
C116 C119 1.487 . S
C117 C114 1.382 . S
C117 C118 1.387 . S
C117 H134 0.930 . S
C118 C116 1.381 . S
C118 C117 1.387 . S
C118 H135 0.931 . S
C119 C112 1.399 . S
C119 C116 1.487 . S
C119 N136 1.343 . S
H120 C92 0.931 . S
H121 C94 0.930 . S
H122 C96 0.930 . S
H123 C97 0.931 . S
H124 C99 0.931 . S
H125 C101 0.930 . S
H126 C103 0.930 . S
H127 C104 0.931 . S
H128 C106 0.931 . S
H129 C108 0.930 . S
H130 C110 0.930 . S
H131 C111 0.931 . S
H132 C113 0.931 . S
H133 C115 0.930 . S
H134 C117 0.930 . S
H135 C118 0.931 . S
N136 C98 1.343 . S
N136 C119 1.343 . S
N137 C105 1.343 . S
N137 C112 1.343 . S
C138 C139 1.384 . S
C138 C140 1.384 . S
C138 H166 0.931 . S
C139 C138 1.384 . S
C139 C142 1.382 . S
C140 C138 1.384 . S
C140 C141 1.381 . S
C140 H167 0.930 . S
C141 C140 1.381 . S
C141 C143 1.381 . S
C141 C144 1.487 . S
C142 C139 1.382 . S
C142 C143 1.387 . S
C142 H168 0.930 . S
C143 C141 1.381 . S
C143 C142 1.387 . S
C143 H169 0.931 . S
C144 C141 1.487 . S
C144 C151 1.399 . S
C144 N182 1.343 1_565 S
C145 C146 1.384 . S
C145 C147 1.384 . S
C145 H170 0.931 . S
C146 C145 1.384 . S
C146 C149 1.382 . S
C147 C145 1.384 . S
C147 C148 1.381 . S
C147 H171 0.930 . S
C148 C147 1.381 . S
C148 C150 1.381 . S
C148 C151 1.487 . S
C149 C146 1.382 . S
C149 C150 1.387 . S
C149 H172 0.930 . S
C150 C148 1.381 . S
C150 C149 1.387 . S
C150 H173 0.931 . S
C151 C144 1.399 . S
C151 C148 1.487 . S
C151 N183 1.343 . S
C152 C153 1.384 . S
C152 C154 1.384 . S
C152 H174 0.931 . S
C153 C152 1.384 . S
C153 C156 1.382 . S
C154 C152 1.384 . S
C154 C155 1.381 . S
C154 H175 0.930 . S
C155 C154 1.381 . S
C155 C157 1.381 . S
C155 C158 1.487 . S
C156 C153 1.382 . S
C156 C157 1.387 . S
C156 H176 0.930 . S
C157 C155 1.381 . S
C157 C156 1.387 . S
C157 H177 0.931 . S
C158 C155 1.487 . S
C158 C165 1.399 . S
C158 N183 1.343 1_545 S
C159 C160 1.384 . S
C159 C161 1.384 . S
C159 H178 0.931 . S
C160 C159 1.384 . S
C160 C163 1.382 . S
C161 C159 1.384 . S
C161 C162 1.381 . S
C161 H179 0.930 . S
C162 C161 1.381 . S
C162 C164 1.381 . S
C162 C165 1.487 . S
C163 C160 1.382 . S
C163 C164 1.387 . S
C163 H180 0.930 . S
C164 C162 1.381 . S
C164 C163 1.387 . S
C164 H181 0.931 . S
C165 C158 1.399 . S
C165 C162 1.487 . S
C165 N182 1.343 . S
H166 C138 0.931 . S
H167 C140 0.930 . S
H168 C142 0.930 . S
H169 C143 0.931 . S
H170 C145 0.931 . S
H171 C147 0.930 . S
H172 C149 0.930 . S
H173 C150 0.931 . S
H174 C152 0.931 . S
H175 C154 0.930 . S
H176 C156 0.930 . S
H177 C157 0.931 . S
H178 C159 0.931 . S
H179 C161 0.930 . S
H180 C163 0.930 . S
H181 C164 0.931 . S
N182 C144 1.343 1_545 S
N182 C165 1.343 . S
N183 C151 1.343 . S
N183 C158 1.343 1_565 S
C184 C185 1.384 . S
C184 C186 1.384 . S
C184 H212 0.931 . S
C185 C184 1.384 . S
C185 C188 1.382 . S
C186 C184 1.384 . S
C186 C187 1.381 . S
C186 H213 0.930 . S
C187 C186 1.381 . S
C187 C189 1.381 . S
C187 C190 1.487 . S
C188 C185 1.382 . S
C188 C189 1.387 . S
C188 H214 0.930 . S
C189 C187 1.381 . S
C189 C188 1.387 . S
C189 H215 0.931 . S
C190 C187 1.487 . S
C190 C197 1.399 . S
C190 N228 1.343 . S
C191 C192 1.384 . S
C191 C193 1.384 . S
C191 H216 0.931 . S
C192 C191 1.384 . S
C192 C195 1.382 . S
C193 C191 1.384 . S
C193 C194 1.381 . S
C193 H217 0.930 . S
C194 C193 1.381 . S
C194 C196 1.381 . S
C194 C197 1.487 . S
C195 C192 1.382 . S
C195 C196 1.387 . S
C195 H218 0.930 . S
C196 C194 1.381 . S
C196 C195 1.387 . S
C196 H219 0.931 . S
C197 C190 1.399 . S
C197 C194 1.487 . S
C197 N229 1.340 . S
C198 C199 1.384 . S
C198 C200 1.384 . S
C198 H220 0.931 . S
C199 C198 1.384 . S
C199 C202 1.382 . S
C200 C198 1.384 . S
C200 C201 1.381 . S
C200 H221 0.930 . S
C201 C200 1.381 . S
C201 C203 1.381 . S
C201 C204 1.487 . S
C202 C199 1.382 . S
C202 C203 1.387 . S
C202 H222 0.930 . S
C203 C201 1.381 . S
C203 C202 1.387 . S
C203 H223 0.931 . S
C204 C201 1.487 . S
C204 C211 1.399 . S
C204 N229 1.346 1_655 S
C205 C206 1.384 . S
C205 C207 1.384 . S
C205 H224 0.931 . S
C206 C205 1.384 . S
C206 C209 1.382 . S
C207 C205 1.384 . S
C207 C208 1.381 . S
C207 H225 0.930 . S
C208 C207 1.381 . S
C208 C210 1.381 . S
C208 C211 1.487 . S
C209 C206 1.382 . S
C209 C210 1.387 . S
C209 H226 0.930 . S
C210 C208 1.381 . S
C210 C209 1.387 . S
C210 H227 0.931 . S
C211 C204 1.399 . S
C211 C208 1.487 . S
C211 N228 1.343 1_655 S
H212 C184 0.931 . S
H213 C186 0.930 . S
H214 C188 0.930 . S
H215 C189 0.931 . S
H216 C191 0.931 . S
H217 C193 0.930 . S
H218 C195 0.930 . S
H219 C196 0.931 . S
H220 C198 0.931 . S
H221 C200 0.930 . S
H222 C202 0.930 . S
H223 C203 0.931 . S
H224 C205 0.931 . S
H225 C207 0.930 . S
H226 C209 0.930 . S
H227 C210 0.931 . S
N228 C190 1.343 . S
N228 C211 1.343 1_455 S
N229 C197 1.340 . S
N229 C204 1.346 1_455 S
C230 C231 1.384 . S
C230 C232 1.384 . S
C230 H258 0.931 . S
C231 C230 1.384 . S
C231 C234 1.382 . S
C232 C230 1.384 . S
C232 C233 1.381 . S
C232 H259 0.930 . S
C233 C232 1.381 . S
C233 C235 1.381 . S
C233 C236 1.487 . S
C234 C231 1.382 . S
C234 C235 1.387 . S
C234 H260 0.930 . S
C235 C233 1.381 . S
C235 C234 1.387 . S
C235 H261 0.931 . S
C236 C233 1.487 . S
C236 C243 1.399 . S
C236 N274 1.343 . S
C237 C238 1.384 . S
C237 C239 1.384 . S
C237 H262 0.931 . S
C238 C237 1.384 . S
C238 C241 1.382 . S
C239 C237 1.384 . S
C239 C240 1.381 . S
C239 H263 0.930 . S
C240 C239 1.381 . S
C240 C242 1.381 . S
C240 C243 1.487 . S
C241 C238 1.382 . S
C241 C242 1.387 . S
C241 H264 0.930 . S
C242 C240 1.381 . S
C242 C241 1.387 . S
C242 H265 0.931 . S
C243 C236 1.399 . S
C243 C240 1.487 . S
C243 N275 1.343 . S
C244 C245 1.384 . S
C244 C246 1.384 . S
C244 H266 0.931 . S
C245 C244 1.384 . S
C245 C248 1.382 . S
C246 C244 1.384 . S
C246 C247 1.381 . S
C246 H267 0.930 . S
C247 C246 1.381 . S
C247 C249 1.381 . S
C247 C250 1.487 . S
C248 C245 1.382 . S
C248 C249 1.387 . S
C248 H268 0.930 . S
C249 C247 1.381 . S
C249 C248 1.387 . S
C249 H269 0.931 . S
C250 C247 1.487 . S
C250 C257 1.399 . S
C250 N275 1.343 . S
C251 C252 1.384 . S
C251 C253 1.384 . S
C251 H270 0.931 . S
C252 C251 1.384 . S
C252 C255 1.382 . S
C253 C251 1.384 . S
C253 C254 1.381 . S
C253 H271 0.930 . S
C254 C253 1.381 . S
C254 C256 1.381 . S
C254 C257 1.487 . S
C255 C252 1.382 . S
C255 C256 1.387 . S
C255 H272 0.930 . S
C256 C254 1.381 . S
C256 C255 1.387 . S
C256 H273 0.931 . S
C257 C250 1.399 . S
C257 C254 1.487 . S
C257 N274 1.343 . S
H258 C230 0.931 . S
H259 C232 0.930 . S
H260 C234 0.930 . S
H261 C235 0.931 . S
H262 C237 0.931 . S
H263 C239 0.930 . S
H264 C241 0.930 . S
H265 C242 0.931 . S
H266 C244 0.931 . S
H267 C246 0.930 . S
H268 C248 0.930 . S
H269 C249 0.931 . S
H270 C251 0.931 . S
H271 C253 0.930 . S
H272 C255 0.930 . S
H273 C256 0.931 . S
N274 C236 1.343 . S
N274 C257 1.343 . S
N275 C243 1.343 . S
N275 C250 1.343 . S
C276 C277 1.384 . S
C276 C278 1.384 . S
C276 H304 0.931 . S
C277 C276 1.384 . S
C277 C280 1.382 . S
C278 C276 1.384 . S
C278 C279 1.381 . S
C278 H305 0.930 . S
C279 C278 1.381 . S
C279 C281 1.381 . S
C279 C282 1.487 . S
C280 C277 1.382 . S
C280 C281 1.387 . S
C280 H306 0.930 . S
C281 C279 1.381 . S
C281 C280 1.387 . S
C281 H307 0.931 1_565 S
C282 C279 1.487 . S
C282 C289 1.399 . S
C282 N320 1.343 1_565 S
C283 C284 1.384 . S
C283 C285 1.384 . S
C283 H308 0.931 . S
C284 C283 1.384 . S
C284 C287 1.382 . S
C285 C283 1.384 . S
C285 C286 1.381 . S
C285 H309 0.930 . S
C286 C285 1.381 . S
C286 C288 1.381 . S
C286 C289 1.487 . S
C287 C284 1.382 . S
C287 C288 1.387 . S
C287 H310 0.930 . S
C288 C286 1.381 . S
C288 C287 1.387 . S
C288 H311 0.931 . S
C289 C282 1.399 . S
C289 C286 1.487 . S
C289 N321 1.343 1_565 S
C290 C291 1.384 . S
C290 C292 1.384 . S
C290 H312 0.931 . S
C291 C290 1.384 . S
C291 C294 1.382 . S
C292 C290 1.384 . S
C292 C293 1.381 . S
C292 H313 0.930 . S
C293 C292 1.381 . S
C293 C295 1.381 . S
C293 C296 1.487 . S
C294 C291 1.382 . S
C294 C295 1.387 . S
C294 H314 0.930 . S
C295 C293 1.381 . S
C295 C294 1.387 . S
C295 H315 0.931 . S
C296 C293 1.487 . S
C296 C303 1.399 . S
C296 N321 1.343 . S
C297 C298 1.384 . S
C297 C299 1.384 . S
C297 H316 0.931 . S
C298 C297 1.384 . S
C298 C301 1.382 . S
C299 C297 1.384 . S
C299 C300 1.381 . S
C299 H317 0.930 . S
C300 C299 1.381 . S
C300 C302 1.381 . S
C300 C303 1.487 . S
C301 C298 1.382 . S
C301 C302 1.387 . S
C301 H318 0.930 . S
C302 C300 1.381 . S
C302 C301 1.387 . S
C302 H319 0.931 . S
C303 C296 1.399 . S
C303 C300 1.487 . S
C303 N320 1.343 . S
H304 C276 0.931 . S
H305 C278 0.930 . S
H306 C280 0.930 . S
H307 C281 0.931 1_545 S
H308 C283 0.931 . S
H309 C285 0.930 . S
H310 C287 0.930 . S
H311 C288 0.931 . S
H312 C290 0.931 . S
H313 C292 0.930 . S
H314 C294 0.930 . S
H315 C295 0.931 . S
H316 C297 0.931 . S
H317 C299 0.930 . S
H318 C301 0.930 . S
H319 C302 0.931 . S
N320 C282 1.343 1_545 S
N320 C303 1.343 . S
N321 C289 1.343 1_545 S
N321 C296 1.343 . S
C322 C323 1.384 1_545 S
C322 C324 1.384 . S
C322 H350 0.931 1_545 S
C323 C322 1.384 1_565 S
C323 C326 1.382 . S
C324 C322 1.384 . S
C324 C325 1.381 . S
C324 H351 0.930 . S
C325 C324 1.381 . S
C325 C327 1.381 . S
C325 C328 1.487 . S
C326 C323 1.382 . S
C326 C327 1.387 1_565 S
C326 H352 0.930 . S
C327 C325 1.381 . S
C327 C326 1.387 1_545 S
C327 H353 0.931 . S
C328 C325 1.487 . S
C328 C335 1.399 . S
C328 N366 1.343 . S
C329 C330 1.384 . S
C329 C331 1.384 . S
C329 H354 0.931 . S
C330 C329 1.384 . S
C330 C333 1.382 1_565 S
C331 C329 1.384 . S
C331 C332 1.381 1_565 S
C331 H355 0.930 . S
C332 C331 1.381 1_545 S
C332 C334 1.381 . S
C332 C335 1.487 . S
C333 C330 1.382 1_545 S
C333 C334 1.387 . S
C333 H356 0.930 . S
C334 C332 1.381 . S
C334 C333 1.387 . S
C334 H357 0.931 . S
C335 C328 1.399 . S
C335 C332 1.487 . S
C335 N367 1.343 . S
C336 C337 1.376 1_655 S
C336 C338 1.384 1_655 S
C336 H358 0.931 . S
C337 C336 1.376 1_455 S
C337 C340 1.402 . S
C338 C336 1.384 1_455 S
C338 C339 1.381 . S
C338 H359 0.930 1_455 S
C339 C338 1.381 . S
C339 C341 1.381 . S
C339 C342 1.487 . S
C340 C337 1.402 . S
C340 C341 1.387 . S
C340 H360 0.930 . S
C341 C339 1.381 . S
C341 C340 1.387 . S
C341 H361 0.931 . S
C342 C339 1.487 . S
C342 C349 1.399 . S
C342 N367 1.343 . S
C343 C344 1.384 . S
C343 C345 1.384 . S
C343 H362 0.931 . S
C344 C343 1.384 . S
C344 C347 1.382 . S
C345 C343 1.384 . S
C345 C346 1.381 . S
C345 H363 0.930 . S
C346 C345 1.381 . S
C346 C348 1.381 . S
C346 C349 1.487 . S
C347 C344 1.382 . S
C347 C348 1.387 . S
C347 H364 0.930 1_455 S
C348 C346 1.381 . S
C348 C347 1.387 . S
C348 H365 0.931 . S
C349 C342 1.399 . S
C349 C346 1.487 . S
C349 N366 1.343 . S
H350 C322 0.931 1_565 S
H351 C324 0.930 . S
H352 C326 0.930 . S
H353 C327 0.931 . S
H354 C329 0.931 . S
H355 C331 0.930 . S
H356 C333 0.930 . S
H357 C334 0.931 . S
H358 C336 0.931 . S
H359 C338 0.930 1_655 S
H360 C340 0.930 . S
H361 C341 0.931 . S
H362 C343 0.931 . S
H363 C345 0.930 . S
H364 C347 0.930 1_655 S
H365 C348 0.931 . S
N366 C328 1.343 . S
N366 C349 1.343 . S
N367 C335 1.343 . S
N367 C342 1.343 . S
Zn368 O371 2.031 . S
Zn368 O373 2.049 1_556 S
Zn368 O378 2.067 . S
Zn369 O370 1.962 . S
Zn369 O372 1.986 . S
Zn369 O374 1.996 . S
Zn369 O377 1.943 . S
O370 Zn369 1.962 . S
O370 C375 1.254 . S
O371 Zn368 2.031 . S
O371 C375 1.269 1_556 S
O372 Zn369 1.986 . S
O372 C379 1.262 . S
O373 Zn368 2.049 1_554 S
O373 C381 1.260 . S
O374 Zn369 1.996 . S
O374 C381 1.257 . S
C375 O370 1.254 . S
C375 O371 1.269 1_554 S
C376 O377 1.249 1_556 S
C376 O378 1.270 . S
O377 Zn369 1.943 . S
O377 C376 1.249 1_554 S
O378 Zn368 2.067 . S
O378 C376 1.270 . S
C379 O372 1.262 . S
C379 O380 1.232 . S
O380 C379 1.232 . S
C381 O373 1.260 . S
C381 O374 1.257 . S
Zn382 O385 2.031 . S
Zn382 O387 2.049 . S
Zn382 O392 2.067 . S
Zn383 O384 1.962 . S
Zn383 O386 1.986 . S
Zn383 O388 1.996 . S
Zn383 O391 1.943 . S
O384 Zn383 1.962 . S
O384 C389 1.254 . S
O385 Zn382 2.031 . S
O385 C389 1.269 . S
O386 Zn383 1.986 . S
O386 C393 1.262 . S
O387 Zn382 2.049 . S
O387 C395 1.260 . S
O388 Zn383 1.996 . S
O388 C395 1.257 . S
C389 O384 1.254 . S
C389 O385 1.269 . S
C390 O391 1.249 . S
C390 O392 1.270 . S
O391 Zn383 1.943 . S
O391 C390 1.249 . S
O392 Zn382 2.067 . S
O392 C390 1.270 . S
C393 O386 1.262 . S
C393 O394 1.232 . S
O394 C393 1.232 . S
C395 O387 1.260 . S
C395 O388 1.257 . S
Zn396 O399 2.031 . S
Zn396 O401 2.049 . S
Zn396 O406 2.067 . S
Zn397 O398 1.962 . S
Zn397 O400 1.986 . S
Zn397 O402 1.996 . S
Zn397 O405 1.943 . S
O398 Zn397 1.962 . S
O398 C403 1.254 . S
O399 Zn396 2.031 . S
O399 C403 1.269 . S
O400 Zn397 1.986 . S
O400 C407 1.262 . S
O401 Zn396 2.049 . S
O401 C409 1.260 . S
O402 Zn397 1.996 . S
O402 C409 1.257 . S
C403 O398 1.254 . S
C403 O399 1.269 . S
C404 O405 1.249 . S
C404 O406 1.270 . S
O405 Zn397 1.943 . S
O405 C404 1.249 . S
O406 Zn396 2.067 . S
O406 C404 1.270 . S
C407 O400 1.262 . S
C407 O408 1.232 . S
O408 C407 1.232 . S
C409 O401 1.260 . S
C409 O402 1.257 . S
Zn410 O413 2.031 . S
Zn410 O415 2.049 . S
Zn410 O420 2.067 . S
Zn411 O412 1.962 . S
Zn411 O414 1.986 . S
Zn411 O416 1.996 . S
Zn411 O419 1.943 . S
O412 Zn411 1.962 . S
O412 C417 1.254 . S
O413 Zn410 2.031 . S
O413 C417 1.269 . S
O414 Zn411 1.986 . S
O414 C421 1.262 . S
O415 Zn410 2.049 . S
O415 C423 1.260 . S
O416 Zn411 1.996 . S
O416 C423 1.257 . S
C417 O412 1.254 . S
C417 O413 1.269 . S
C418 O419 1.249 . S
C418 O420 1.270 . S
O419 Zn411 1.943 . S
O419 C418 1.249 . S
O420 Zn410 2.067 . S
O420 C418 1.270 . S
C421 O414 1.262 . S
C421 O422 1.232 . S
O422 C421 1.232 . S
C423 O415 1.260 . S
C423 O416 1.257 . S
Zn424 O427 2.031 . S
Zn424 O429 2.049 . S
Zn424 O434 2.067 . S
Zn425 O426 1.962 . S
Zn425 O428 1.986 . S
Zn425 O430 1.996 . S
Zn425 O433 1.943 . S
O426 Zn425 1.962 . S
O426 C431 1.254 . S
O427 Zn424 2.031 . S
O427 C431 1.269 . S
O428 Zn425 1.986 . S
O428 C435 1.262 . S
O429 Zn424 2.049 . S
O429 C437 1.260 . S
O430 Zn425 1.996 . S
O430 C437 1.257 . S
C431 O426 1.254 . S
C431 O427 1.269 . S
C432 O433 1.249 . S
C432 O434 1.270 . S
O433 Zn425 1.943 . S
O433 C432 1.249 . S
O434 Zn424 2.067 . S
O434 C432 1.270 . S
C435 O428 1.262 . S
C435 O436 1.232 . S
O436 C435 1.232 . S
C437 O429 1.260 . S
C437 O430 1.257 . S
Zn438 O441 2.031 . S
Zn438 O443 2.049 . S
Zn438 O448 2.067 . S
Zn439 O440 1.962 . S
Zn439 O442 1.986 . S
Zn439 O444 1.996 . S
Zn439 O447 1.943 . S
O440 Zn439 1.962 . S
O440 C445 1.254 . S
O441 Zn438 2.031 . S
O441 C445 1.269 . S
O442 Zn439 1.986 . S
O442 C449 1.262 . S
O443 Zn438 2.049 . S
O443 C451 1.260 . S
O444 Zn439 1.996 . S
O444 C451 1.257 . S
C445 O440 1.254 . S
C445 O441 1.269 . S
C446 O447 1.249 . S
C446 O448 1.270 . S
O447 Zn439 1.943 . S
O447 C446 1.249 . S
O448 Zn438 2.067 . S
O448 C446 1.270 . S
C449 O442 1.262 . S
C449 O450 1.232 . S
O450 C449 1.232 . S
C451 O443 1.260 . S
C451 O444 1.257 . S
Zn452 O455 2.031 . S
Zn452 O457 2.049 . S
Zn452 O462 2.067 . S
Zn453 O454 1.962 . S
Zn453 O456 1.986 . S
Zn453 O458 1.996 . S
Zn453 O461 1.943 1_556 S
O454 Zn453 1.962 . S
O454 C459 1.254 1_556 S
O455 Zn452 2.031 . S
O455 C459 1.269 . S
O456 Zn453 1.986 . S
O456 C463 1.262 . S
O457 Zn452 2.049 . S
O457 C465 1.300 . S
O458 Zn453 1.996 . S
O458 C465 1.245 1_556 S
C459 O454 1.254 1_554 S
C459 O455 1.269 . S
C460 O461 1.249 . S
C460 O462 1.270 . S
O461 Zn453 1.943 1_554 S
O461 C460 1.249 . S
O462 Zn452 2.067 . S
O462 C460 1.270 . S
C463 O456 1.262 . S
C463 O464 1.232 . S
O464 C463 1.232 . S
C465 O457 1.300 . S
C465 O458 1.245 1_554 S
Zn466 O469 2.031 . S
Zn466 O471 2.049 . S
Zn466 O476 2.067 . S
Zn467 O468 1.962 . S
Zn467 O470 1.986 . S
Zn467 O472 1.996 . S
Zn467 O475 1.943 . S
O468 Zn467 1.962 . S
O468 C473 1.254 . S
O469 Zn466 2.031 . S
O469 C473 1.269 . S
O470 Zn467 1.986 . S
O470 C477 1.262 . S
O471 Zn466 2.049 . S
O471 C479 1.260 . S
O472 Zn467 1.996 . S
O472 C479 1.257 . S
C473 O468 1.254 . S
C473 O469 1.269 . S
C474 O475 1.249 . S
C474 O476 1.270 . S
O475 Zn467 1.943 . S
O475 C474 1.249 . S
O476 Zn466 2.067 . S
O476 C474 1.270 . S
C477 O470 1.262 . S
C477 O478 1.232 . S
O478 C477 1.232 . S
C479 O471 1.260 . S
C479 O472 1.257 . S
C480 C481 1.349 . S
C480 C482 1.327 . S
C480 H505 0.950 . S
C481 C480 1.349 . S
C481 C497 1.349 . S
C482 C480 1.327 . S
C482 C501 1.429 . S
C482 H506 0.950 . S
C483 C500 1.574 . S
C483 C502 1.368 . S
C483 H507 0.949 . S
H484 C488 0.949 . S
C485 C486 1.349 . S
C485 C487 1.327 . S
C485 H508 0.950 . S
C486 C485 1.349 . S
C486 C498 1.349 . S
C487 C485 1.327 . S
C487 C503 1.429 . S
C487 H509 0.950 . S
C488 H484 0.949 . S
C488 C496 1.574 . S
C488 C504 1.368 . S
H489 C497 0.950 . S
H490 C495 0.950 . S
H491 C496 0.949 . S
H492 C498 0.950 . S
H493 C499 0.950 . S
H494 C500 0.949 . S
C495 H490 0.950 . S
C495 C497 1.327 . S
C495 C501 1.429 . S
C496 C488 1.574 . S
C496 H491 0.949 . S
C496 C502 1.368 . S
C497 C481 1.349 . S
C497 H489 0.950 . S
C497 C495 1.327 . S
C498 C486 1.349 . S
C498 H492 0.950 . S
C498 C499 1.327 . S
C499 H493 0.950 . S
C499 C498 1.327 . S
C499 C503 1.429 . S
C500 C483 1.574 . S
C500 H494 0.949 . S
C500 C504 1.368 . S
C501 C482 1.429 . S
C501 C495 1.429 . S
C501 C502 1.523 . S
C502 C483 1.368 . S
C502 C496 1.368 . S
C502 C501 1.523 . S
C503 C487 1.429 . S
C503 C499 1.429 . S
C503 C504 1.523 . S
C504 C488 1.368 . S
C504 C500 1.368 . S
C504 C503 1.523 . S
H505 C480 0.950 . S
H506 C482 0.950 . S
H507 C483 0.949 . S
H508 C485 0.950 . S
H509 C487 0.950 . S
C510 C511 1.349 . S
C510 C512 1.327 . S
C510 H535 0.950 . S
C511 C510 1.349 . S
C511 C527 1.349 . S
C512 C510 1.327 . S
C512 C531 1.429 . S
C512 H536 0.950 . S
C513 C530 1.574 . S
C513 C532 1.368 . S
C513 H537 0.949 . S
H514 C518 0.949 . S
C515 C516 1.349 . S
C515 C517 1.327 . S
C515 H538 0.950 . S
C516 C515 1.349 . S
C516 C528 1.349 . S
C517 C515 1.327 . S
C517 C533 1.429 . S
C517 H539 0.950 . S
C518 H514 0.949 . S
C518 C526 1.574 . S
C518 C534 1.368 . S
H519 C527 0.950 . S
H520 C525 0.950 . S
H521 C526 0.949 . S
H522 C528 0.950 . S
H523 C529 0.950 . S
H524 C530 0.949 . S
C525 H520 0.950 . S
C525 C527 1.327 . S
C525 C531 1.429 . S
C526 C518 1.574 . S
C526 H521 0.949 . S
C526 C532 1.368 . S
C527 C511 1.349 . S
C527 H519 0.950 . S
C527 C525 1.327 . S
C528 C516 1.349 . S
C528 H522 0.950 . S
C528 C529 1.327 . S
C529 H523 0.950 . S
C529 C528 1.327 . S
C529 C533 1.429 . S
C530 C513 1.574 . S
C530 H524 0.949 . S
C530 C534 1.368 . S
C531 C512 1.429 . S
C531 C525 1.429 . S
C531 C532 1.523 . S
C532 C513 1.368 . S
C532 C526 1.368 . S
C532 C531 1.523 . S
C533 C517 1.429 . S
C533 C529 1.429 . S
C533 C534 1.523 . S
C534 C518 1.368 . S
C534 C530 1.368 . S
C534 C533 1.523 . S
H535 C510 0.950 . S
H536 C512 0.950 . S
H537 C513 0.949 . S
H538 C515 0.950 . S
H539 C517 0.950 . S
C540 C541 1.349 . S
C540 C542 1.327 . S
C540 H565 0.950 . S
C541 C540 1.349 . S
C541 C557 1.349 . S
C542 C540 1.327 . S
C542 C561 1.429 . S
C542 H566 0.950 . S
C543 C560 1.574 . S
C543 C562 1.368 . S
C543 H567 0.949 . S
H544 C548 0.949 . S
C545 C546 1.349 . S
C545 C547 1.327 . S
C545 H568 0.950 . S
C546 C545 1.349 . S
C546 C558 1.349 . S
C547 C545 1.327 . S
C547 C563 1.429 . S
C547 H569 0.950 . S
C548 H544 0.949 . S
C548 C556 1.574 . S
C548 C564 1.368 . S
H549 C557 0.950 . S
H550 C555 0.950 . S
H551 C556 0.949 . S
H552 C558 0.950 . S
H553 C559 0.950 . S
H554 C560 0.949 . S
C555 H550 0.950 . S
C555 C557 1.327 . S
C555 C561 1.429 . S
C556 C548 1.574 . S
C556 H551 0.949 . S
C556 C562 1.368 . S
C557 C541 1.349 . S
C557 H549 0.950 . S
C557 C555 1.327 . S
C558 C546 1.349 . S
C558 H552 0.950 . S
C558 C559 1.327 . S
C559 H553 0.950 . S
C559 C558 1.327 . S
C559 C563 1.429 . S
C560 C543 1.574 . S
C560 H554 0.949 . S
C560 C564 1.368 . S
C561 C542 1.429 . S
C561 C555 1.429 . S
C561 C562 1.523 . S
C562 C543 1.368 . S
C562 C556 1.368 . S
C562 C561 1.523 . S
C563 C547 1.429 . S
C563 C559 1.429 . S
C563 C564 1.523 . S
C564 C548 1.368 . S
C564 C560 1.368 . S
C564 C563 1.523 . S
H565 C540 0.950 . S
H566 C542 0.950 . S
H567 C543 0.949 . S
H568 C545 0.950 . S
H569 C547 0.950 . S
C570 C571 1.349 . S
C570 C572 1.327 . S
C570 H595 0.950 . S
C571 C570 1.349 . S
C571 C587 1.349 . S
C572 C570 1.327 . S
C572 C591 1.429 . S
C572 H596 0.950 . S
C573 C590 1.574 . S
C573 C592 1.368 . S
C573 H597 0.949 . S
H574 C578 0.949 . S
C575 C576 1.349 . S
C575 C577 1.327 . S
C575 H598 0.950 . S
C576 C575 1.349 . S
C576 C588 1.349 . S
C577 C575 1.327 . S
C577 C593 1.429 . S
C577 H599 0.950 . S
C578 H574 0.949 . S
C578 C586 1.574 . S
C578 C594 1.368 . S
H579 C587 0.950 . S
H580 C585 0.950 . S
H581 C586 0.949 . S
H582 C588 0.950 . S
H583 C589 0.950 . S
H584 C590 0.949 . S
C585 H580 0.950 . S
C585 C587 1.327 . S
C585 C591 1.429 . S
C586 C578 1.574 . S
C586 H581 0.949 . S
C586 C592 1.368 . S
C587 C571 1.349 . S
C587 H579 0.950 . S
C587 C585 1.327 . S
C588 C576 1.349 . S
C588 H582 0.950 . S
C588 C589 1.327 . S
C589 H583 0.950 . S
C589 C588 1.327 . S
C589 C593 1.429 . S
C590 C573 1.574 . S
C590 H584 0.949 . S
C590 C594 1.368 . S
C591 C572 1.429 . S
C591 C585 1.429 . S
C591 C592 1.523 . S
C592 C573 1.368 . S
C592 C586 1.368 . S
C592 C591 1.523 . S
C593 C577 1.429 . S
C593 C589 1.429 . S
C593 C594 1.523 . S
C594 C578 1.368 . S
C594 C590 1.368 . S
C594 C593 1.523 . S
H595 C570 0.950 . S
H596 C572 0.950 . S
H597 C573 0.949 . S
H598 C575 0.950 . S
H599 C577 0.950 . S
C600 C601 1.349 . S
C600 C602 1.327 . S
C600 H625 0.950 . S
C601 C600 1.349 . S
C601 C617 1.349 . S
C602 C600 1.327 . S
C602 C621 1.429 . S
C602 H626 0.950 . S
C603 C620 1.574 . S
C603 C622 1.368 . S
C603 H627 0.949 . S
H604 C608 0.949 . S
C605 C606 1.349 . S
C605 C607 1.327 . S
C605 H628 0.950 . S
C606 C605 1.349 . S
C606 C618 1.349 1_554 S
C607 C605 1.327 . S
C607 C623 1.429 1_554 S
C607 H629 0.950 . S
C608 H604 0.949 . S
C608 C616 1.574 . S
C608 C624 1.368 . S
H609 C617 0.950 . S
H610 C615 0.950 . S
H611 C616 0.949 . S
H612 C618 0.950 . S
H613 C619 0.950 . S
H614 C620 0.949 1_554 S
C615 H610 0.950 . S
C615 C617 1.327 . S
C615 C621 1.429 . S
C616 C608 1.574 . S
C616 H611 0.949 . S
C616 C622 1.368 . S
C617 C601 1.349 . S
C617 H609 0.950 . S
C617 C615 1.327 . S
C618 C606 1.349 1_556 S
C618 H612 0.950 . S
C618 C619 1.327 . S
C619 H613 0.950 . S
C619 C618 1.327 . S
C619 C623 1.429 . S
C620 C603 1.574 . S
C620 H614 0.949 1_556 S
C620 C624 1.368 . S
C621 C602 1.429 . S
C621 C615 1.429 . S
C621 C622 1.523 . S
C622 C603 1.368 . S
C622 C616 1.368 . S
C622 C621 1.523 . S
C623 C607 1.429 1_556 S
C623 C619 1.429 . S
C623 C624 1.523 . S
C624 C608 1.368 . S
C624 C620 1.368 . S
C624 C623 1.523 . S
H625 C600 0.950 . S
H626 C602 0.950 . S
H627 C603 0.949 . S
H628 C605 0.950 . S
H629 C607 0.950 . S
C630 C631 1.349 . S
C630 C632 1.327 . S
C630 H655 0.950 . S
C631 C630 1.349 . S
C631 C647 1.349 . S
C632 C630 1.327 . S
C632 C651 1.429 . S
C632 H656 0.950 . S
C633 C650 1.574 . S
C633 C652 1.368 . S
C633 H657 0.949 . S
H634 C638 0.949 . S
C635 C636 1.349 . S
C635 C637 1.327 . S
C635 H658 0.950 . S
C636 C635 1.349 . S
C636 C648 1.349 . S
C637 C635 1.327 . S
C637 C653 1.429 . S
C637 H659 0.950 . S
C638 H634 0.949 . S
C638 C646 1.574 . S
C638 C654 1.368 . S
H639 C647 0.950 . S
H640 C645 0.950 . S
H641 C646 0.949 . S
H642 C648 0.950 . S
H643 C649 0.950 . S
H644 C650 0.949 . S
C645 H640 0.950 . S
C645 C647 1.327 . S
C645 C651 1.429 . S
C646 C638 1.574 . S
C646 H641 0.949 . S
C646 C652 1.368 . S
C647 C631 1.349 . S
C647 H639 0.950 . S
C647 C645 1.327 . S
C648 C636 1.349 . S
C648 H642 0.950 . S
C648 C649 1.327 . S
C649 H643 0.950 . S
C649 C648 1.327 . S
C649 C653 1.429 . S
C650 C633 1.574 . S
C650 H644 0.949 . S
C650 C654 1.368 . S
C651 C632 1.429 . S
C651 C645 1.429 . S
C651 C652 1.523 . S
C652 C633 1.368 . S
C652 C646 1.368 . S
C652 C651 1.523 . S
C653 C637 1.429 . S
C653 C649 1.429 . S
C653 C654 1.523 . S
C654 C638 1.368 . S
C654 C650 1.368 . S
C654 C653 1.523 . S
H655 C630 0.950 . S
H656 C632 0.950 . S
H657 C633 0.949 . S
H658 C635 0.950 . S
H659 C637 0.950 . S
C660 C661 1.349 . S
C660 C662 1.327 . S
C660 H685 0.950 . S
C661 C660 1.349 . S
C661 C677 1.349 . S
C662 C660 1.327 . S
C662 C681 1.429 . S
C662 H686 0.950 . S
C663 C680 1.574 . S
C663 C682 1.368 . S
C663 H687 0.949 . S
H664 C668 0.949 . S
C665 C666 1.349 . S
C665 C667 1.327 . S
C665 H688 0.950 . S
C666 C665 1.349 . S
C666 C678 1.349 . S
C667 C665 1.327 . S
C667 C683 1.429 . S
C667 H689 0.950 . S
C668 H664 0.949 . S
C668 C676 1.574 . S
C668 C684 1.368 . S
H669 C677 0.950 . S
H670 C675 0.950 . S
H671 C676 0.949 . S
H672 C678 0.950 . S
H673 C679 0.950 . S
H674 C680 0.949 . S
C675 H670 0.950 . S
C675 C677 1.327 . S
C675 C681 1.429 . S
C676 C668 1.574 . S
C676 H671 0.949 . S
C676 C682 1.368 . S
C677 C661 1.349 . S
C677 H669 0.950 . S
C677 C675 1.327 . S
C678 C666 1.349 . S
C678 H672 0.950 . S
C678 C679 1.327 . S
C679 H673 0.950 . S
C679 C678 1.327 . S
C679 C683 1.429 . S
C680 C663 1.574 . S
C680 H674 0.949 . S
C680 C684 1.368 . S
C681 C662 1.429 . S
C681 C675 1.429 . S
C681 C682 1.523 . S
C682 C663 1.368 . S
C682 C676 1.368 . S
C682 C681 1.523 . S
C683 C667 1.429 . S
C683 C679 1.429 . S
C683 C684 1.523 . S
C684 C668 1.368 . S
C684 C680 1.368 . S
C684 C683 1.523 . S
H685 C660 0.950 . S
H686 C662 0.950 . S
H687 C663 0.949 . S
H688 C665 0.950 . S
H689 C667 0.950 . S
C690 C691 1.349 . S
C690 C692 1.327 . S
C690 H715 0.950 . S
C691 C690 1.349 . S
C691 C707 1.349 . S
C692 C690 1.327 . S
C692 C711 1.429 . S
C692 H716 0.950 . S
C693 C710 1.574 . S
C693 C712 1.368 . S
C693 H717 0.949 . S
H694 C698 0.949 . S
C695 C696 1.349 . S
C695 C697 1.327 . S
C695 H718 0.950 . S
C696 C695 1.349 . S
C696 C708 1.349 . S
C697 C695 1.327 . S
C697 C713 1.429 . S
C697 H719 0.950 . S
C698 H694 0.949 . S
C698 C706 1.574 . S
C698 C714 1.368 . S
H699 C707 0.950 . S
H700 C705 0.950 . S
H701 C706 0.949 . S
H702 C708 0.950 . S
H703 C709 0.950 . S
H704 C710 0.949 . S
C705 H700 0.950 . S
C705 C707 1.327 . S
C705 C711 1.429 . S
C706 C698 1.574 . S
C706 H701 0.949 . S
C706 C712 1.368 . S
C707 C691 1.349 . S
C707 H699 0.950 . S
C707 C705 1.327 . S
C708 C696 1.349 . S
C708 H702 0.950 . S
C708 C709 1.327 . S
C709 H703 0.950 . S
C709 C708 1.327 . S
C709 C713 1.429 . S
C710 C693 1.574 . S
C710 H704 0.949 . S
C710 C714 1.368 . S
C711 C692 1.429 . S
C711 C705 1.429 . S
C711 C712 1.523 . S
C712 C693 1.368 . S
C712 C706 1.368 . S
C712 C711 1.523 . S
C713 C697 1.429 . S
C713 C709 1.429 . S
C713 C714 1.523 . S
C714 C698 1.368 . S
C714 C710 1.368 . S
C714 C713 1.523 . S
H715 C690 0.950 . S
H716 C692 0.950 . S
H717 C693 0.949 . S
H718 C695 0.950 . S
H719 C697 0.950 . S
C720 C721 1.349 . S
C720 C722 1.327 . S
C720 H745 0.950 . S
C721 C720 1.349 . S
C721 C737 1.349 . S
C722 C720 1.327 . S
C722 C741 1.429 . S
C722 H746 0.950 . S
C723 C740 1.574 . S
C723 C742 1.368 . S
C723 H747 0.949 . S
H724 C728 0.949 . S
C725 C726 1.349 . S
C725 C727 1.327 . S
C725 H748 0.950 . S
C726 C725 1.349 . S
C726 C738 1.349 . S
C727 C725 1.327 . S
C727 C743 1.429 . S
C727 H749 0.950 . S
C728 H724 0.949 . S
C728 C736 1.574 . S
C728 C744 1.368 . S
H729 C737 0.950 . S
H730 C735 0.950 . S
H731 C736 0.949 . S
H732 C738 0.950 . S
H733 C739 0.950 . S
H734 C740 0.949 . S
C735 H730 0.950 . S
C735 C737 1.327 . S
C735 C741 1.429 . S
C736 C728 1.574 . S
C736 H731 0.949 . S
C736 C742 1.368 . S
C737 C721 1.349 . S
C737 H729 0.950 . S
C737 C735 1.327 . S
C738 C726 1.349 . S
C738 H732 0.950 . S
C738 C739 1.327 . S
C739 H733 0.950 . S
C739 C738 1.327 . S
C739 C743 1.429 . S
C740 C723 1.574 . S
C740 H734 0.949 . S
C740 C744 1.368 . S
C741 C722 1.429 . S
C741 C735 1.429 . S
C741 C742 1.523 . S
C742 C723 1.368 . S
C742 C736 1.368 . S
C742 C741 1.523 . S
C743 C727 1.429 . S
C743 C739 1.429 . S
C743 C744 1.523 . S
C744 C728 1.368 . S
C744 C740 1.368 . S
C744 C743 1.523 . S
H745 C720 0.950 . S
H746 C722 0.950 . S
H747 C723 0.949 . S
H748 C725 0.950 . S
H749 C727 0.950 . S
C750 C751 1.349 . S
C750 C752 1.327 . S
C750 H775 0.950 . S
C751 C750 1.349 . S
C751 C767 1.349 . S
C752 C750 1.327 . S
C752 C771 1.429 . S
C752 H776 0.950 . S
C753 C770 1.574 . S
C753 C772 1.368 . S
C753 H777 0.949 . S
H754 C758 0.949 . S
C755 C756 1.349 . S
C755 C757 1.327 . S
C755 H778 0.950 . S
C756 C755 1.349 . S
C756 C768 1.364 . S
C757 C755 1.327 . S
C757 C773 1.429 . S
C757 H779 0.950 . S
C758 H754 0.949 . S
C758 C766 1.574 . S
C758 C774 1.368 . S
H759 C767 0.950 . S
H760 C765 0.950 . S
H761 C766 0.949 . S
H762 C768 0.928 1_556 S
H763 C769 0.950 1_556 S
H764 C770 0.949 . S
C765 H760 0.950 . S
C765 C767 1.327 . S
C765 C771 1.429 . S
C766 C758 1.574 . S
C766 H761 0.949 . S
C766 C772 1.368 . S
C767 C751 1.349 . S
C767 H759 0.950 . S
C767 C765 1.327 . S
C768 C756 1.364 . S
C768 H762 0.928 1_554 S
C768 C769 1.334 . S
C769 H763 0.950 1_554 S
C769 C768 1.334 . S
C769 C773 1.429 . S
C770 C753 1.574 . S
C770 H764 0.949 . S
C770 C774 1.368 . S
C771 C752 1.429 . S
C771 C765 1.429 . S
C771 C772 1.523 . S
C772 C753 1.368 . S
C772 C766 1.368 . S
C772 C771 1.523 . S
C773 C757 1.429 . S
C773 C769 1.429 . S
C773 C774 1.523 . S
C774 C758 1.368 . S
C774 C770 1.368 . S
C774 C773 1.523 . S
H775 C750 0.950 . S
H776 C752 0.950 . S
H777 C753 0.949 . S
H778 C755 0.950 . S
H779 C757 0.950 . S
C780 C781 1.349 . S
C780 C782 1.327 . S
C780 H805 0.950 . S
C781 C780 1.349 . S
C781 C797 1.349 . S
C782 C780 1.327 . S
C782 C801 1.429 . S
C782 H806 0.950 . S
C783 C800 1.574 . S
C783 C802 1.368 . S
C783 H807 0.949 . S
H784 C788 0.949 . S
C785 C786 1.349 . S
C785 C787 1.327 . S
C785 H808 0.950 . S
C786 C785 1.349 . S
C786 C798 1.349 . S
C787 C785 1.327 . S
C787 C803 1.429 . S
C787 H809 0.950 . S
C788 H784 0.949 . S
C788 C796 1.574 . S
C788 C804 1.368 . S
H789 C797 0.950 1_455 S
H790 C795 0.950 . S
H791 C796 0.949 . S
H792 C798 0.950 . S
H793 C799 0.950 . S
H794 C800 0.949 . S
C795 H790 0.950 . S
C795 C797 1.327 . S
C795 C801 1.429 . S
C796 C788 1.574 . S
C796 H791 0.949 . S
C796 C802 1.368 . S
C797 C781 1.349 . S
C797 H789 0.950 1_655 S
C797 C795 1.327 . S
C798 C786 1.349 . S
C798 H792 0.950 . S
C798 C799 1.327 . S
C799 H793 0.950 . S
C799 C798 1.327 . S
C799 C803 1.429 . S
C800 C783 1.574 . S
C800 H794 0.949 . S
C800 C804 1.368 . S
C801 C782 1.429 . S
C801 C795 1.429 . S
C801 C802 1.523 . S
C802 C783 1.368 . S
C802 C796 1.368 . S
C802 C801 1.523 . S
C803 C787 1.429 . S
C803 C799 1.429 . S
C803 C804 1.523 . S
C804 C788 1.368 . S
C804 C800 1.368 . S
C804 C803 1.523 . S
H805 C780 0.950 . S
H806 C782 0.950 . S
H807 C783 0.949 . S
H808 C785 0.950 . S
H809 C787 0.950 . S
C810 C811 1.349 . S
C810 C812 1.327 . S
C810 H835 0.950 . S
C811 C810 1.349 . S
C811 C827 1.349 . S
C812 C810 1.327 . S
C812 C831 1.429 . S
C812 H836 0.950 . S
C813 C830 1.574 . S
C813 C832 1.368 . S
C813 H837 0.949 . S
H814 C818 0.949 . S
C815 C816 1.349 . S
C815 C817 1.327 . S
C815 H838 0.950 . S
C816 C815 1.349 . S
C816 C828 1.349 . S
C817 C815 1.327 . S
C817 C833 1.429 . S
C817 H839 0.950 . S
C818 H814 0.949 . S
C818 C826 1.574 . S
C818 C834 1.368 . S
H819 C827 0.950 . S
H820 C825 0.950 . S
H821 C826 0.949 . S
H822 C828 0.950 . S
H823 C829 0.950 . S
H824 C830 0.949 . S
C825 H820 0.950 . S
C825 C827 1.327 . S
C825 C831 1.429 . S
C826 C818 1.574 . S
C826 H821 0.949 . S
C826 C832 1.368 . S
C827 C811 1.349 . S
C827 H819 0.950 . S
C827 C825 1.327 . S
C828 C816 1.349 . S
C828 H822 0.950 . S
C828 C829 1.327 . S
C829 H823 0.950 . S
C829 C828 1.327 . S
C829 C833 1.429 . S
C830 C813 1.574 . S
C830 H824 0.949 . S
C830 C834 1.368 . S
C831 C812 1.429 . S
C831 C825 1.429 . S
C831 C832 1.523 . S
C832 C813 1.368 . S
C832 C826 1.368 . S
C832 C831 1.523 . S
C833 C817 1.429 . S
C833 C829 1.429 . S
C833 C834 1.523 . S
C834 C818 1.368 . S
C834 C830 1.368 . S
C834 C833 1.523 . S
H835 C810 0.950 . S
H836 C812 0.950 . S
H837 C813 0.949 . S
H838 C815 0.950 . S
H839 C817 0.950 . S
C840 C841 1.349 . S
C840 C842 1.327 . S
C840 H865 0.950 . S
C841 C840 1.349 . S
C841 C857 1.349 . S
C842 C840 1.327 . S
C842 C861 1.429 . S
C842 H866 0.950 . S
C843 C860 1.574 . S
C843 C862 1.368 . S
C843 H867 0.949 . S
H844 C848 0.949 . S
C845 C846 1.349 . S
C845 C847 1.327 . S
C845 H868 0.950 . S
C846 C845 1.349 . S
C846 C858 1.349 . S
C847 C845 1.327 . S
C847 C863 1.429 . S
C847 H869 0.950 . S
C848 H844 0.949 . S
C848 C856 1.574 . S
C848 C864 1.368 . S
H849 C857 0.950 . S
H850 C855 0.950 . S
H851 C856 0.949 . S
H852 C858 0.950 . S
H853 C859 0.950 . S
H854 C860 0.949 . S
C855 H850 0.950 . S
C855 C857 1.327 . S
C855 C861 1.429 . S
C856 C848 1.574 . S
C856 H851 0.949 . S
C856 C862 1.368 . S
C857 C841 1.349 . S
C857 H849 0.950 . S
C857 C855 1.327 . S
C858 C846 1.349 . S
C858 H852 0.950 . S
C858 C859 1.327 . S
C859 H853 0.950 . S
C859 C858 1.327 . S
C859 C863 1.429 . S
C860 C843 1.574 . S
C860 H854 0.949 . S
C860 C864 1.368 . S
C861 C842 1.429 . S
C861 C855 1.429 . S
C861 C862 1.523 . S
C862 C843 1.368 . S
C862 C856 1.368 . S
C862 C861 1.523 . S
C863 C847 1.429 . S
C863 C859 1.429 . S
C863 C864 1.523 . S
C864 C848 1.368 . S
C864 C860 1.368 . S
C864 C863 1.523 . S
H865 C840 0.950 . S
H866 C842 0.950 . S
H867 C843 0.949 . S
H868 C845 0.950 . S
H869 C847 0.950 . S
C870 C871 1.349 . S
C870 C872 1.327 . S
C870 H895 0.950 1_655 S
C871 C870 1.349 . S
C871 C887 1.349 . S
C872 C870 1.327 . S
C872 C891 1.429 . S
C872 H896 0.950 . S
C873 C890 1.574 . S
C873 C892 1.368 . S
C873 H897 0.949 . S
H874 C878 0.949 . S
C875 C876 1.349 . S
C875 C877 1.327 . S
C875 H898 0.950 . S
C876 C875 1.349 . S
C876 C888 1.349 . S
C877 C875 1.327 . S
C877 C893 1.429 . S
C877 H899 0.950 . S
C878 H874 0.949 . S
C878 C886 1.574 . S
C878 C894 1.368 . S
H879 C887 0.950 . S
H880 C885 0.950 . S
H881 C886 0.949 . S
H882 C888 0.950 . S
H883 C889 0.950 . S
H884 C890 0.949 . S
C885 H880 0.950 . S
C885 C887 1.327 . S
C885 C891 1.429 . S
C886 C878 1.574 . S
C886 H881 0.949 . S
C886 C892 1.368 . S
C887 C871 1.349 . S
C887 H879 0.950 . S
C887 C885 1.327 . S
C888 C876 1.349 . S
C888 H882 0.950 . S
C888 C889 1.327 . S
C889 H883 0.950 . S
C889 C888 1.327 . S
C889 C893 1.429 . S
C890 C873 1.574 . S
C890 H884 0.949 . S
C890 C894 1.368 . S
C891 C872 1.429 . S
C891 C885 1.429 . S
C891 C892 1.523 . S
C892 C873 1.368 . S
C892 C886 1.368 . S
C892 C891 1.523 . S
C893 C877 1.429 . S
C893 C889 1.429 . S
C893 C894 1.523 . S
C894 C878 1.368 . S
C894 C890 1.368 . S
C894 C893 1.523 . S
H895 C870 0.950 1_455 S
H896 C872 0.950 . S
H897 C873 0.949 . S
H898 C875 0.950 . S
H899 C877 0.950 . S
C900 C901 1.349 . S
C900 C902 1.327 . S
C900 H925 0.950 . S
C901 C900 1.349 . S
C901 C917 1.349 . S
C902 C900 1.327 . S
C902 C921 1.429 . S
C902 H926 0.950 . S
C903 C920 1.574 . S
C903 C922 1.368 . S
C903 H927 0.949 . S
H904 C908 0.946 1_554 S
C905 C906 1.349 . S
C905 C907 1.327 . S
C905 H928 0.950 . S
C906 C905 1.349 . S
C906 C918 1.349 1_556 S
C907 C905 1.327 . S
C907 C923 1.429 . S
C907 H929 0.950 . S
C908 H904 0.946 1_556 S
C908 C916 1.574 . S
C908 C924 1.368 . S
H909 C917 0.950 . S
H910 C915 0.950 . S
H911 C916 0.949 . S
H912 C918 0.950 . S
H913 C919 0.950 1_554 S
H914 C920 0.949 . S
C915 H910 0.950 . S
C915 C917 1.327 . S
C915 C921 1.429 . S
C916 C908 1.574 . S
C916 H911 0.949 . S
C916 C922 1.368 . S
C917 C901 1.349 . S
C917 H909 0.950 . S
C917 C915 1.327 . S
C918 C906 1.349 1_554 S
C918 H912 0.950 . S
C918 C919 1.327 1_554 S
C919 H913 0.950 1_556 S
C919 C918 1.327 1_556 S
C919 C923 1.429 . S
C920 C903 1.574 . S
C920 H914 0.949 . S
C920 C924 1.368 . S
C921 C902 1.429 . S
C921 C915 1.429 . S
C921 C922 1.523 . S
C922 C903 1.368 . S
C922 C916 1.368 . S
C922 C921 1.523 . S
C923 C907 1.429 . S
C923 C919 1.429 . S
C923 C924 1.523 . S
C924 C908 1.368 . S
C924 C920 1.368 . S
C924 C923 1.523 . S
H925 C900 0.950 . S
H926 C902 0.950 . S
H927 C903 0.949 . S
H928 C905 0.950 . S
H929 C907 0.950 . S
C930 C931 1.349 . S
C930 C932 1.327 . S
C930 H955 0.950 . S
C931 C930 1.349 . S
C931 C947 1.349 . S
C932 C930 1.327 . S
C932 C951 1.429 . S
C932 H956 0.950 . S
C933 C950 1.574 . S
C933 C952 1.368 . S
C933 H957 0.949 . S
H934 C938 0.949 . S
C935 C936 1.349 . S
C935 C937 1.327 . S
C935 H958 0.950 . S
C936 C935 1.349 . S
C936 C948 1.349 . S
C937 C935 1.327 . S
C937 C953 1.429 . S
C937 H959 0.950 . S
C938 H934 0.949 . S
C938 C946 1.574 . S
C938 C954 1.368 . S
H939 C947 0.950 . S
H940 C945 0.950 . S
H941 C946 0.949 . S
H942 C948 0.950 . S
H943 C949 0.950 . S
H944 C950 0.949 . S
C945 H940 0.950 . S
C945 C947 1.327 . S
C945 C951 1.429 . S
C946 C938 1.574 . S
C946 H941 0.949 . S
C946 C952 1.368 . S
C947 C931 1.349 . S
C947 H939 0.950 . S
C947 C945 1.327 . S
C948 C936 1.349 . S
C948 H942 0.950 . S
C948 C949 1.327 . S
C949 H943 0.950 . S
C949 C948 1.327 . S
C949 C953 1.429 . S
C950 C933 1.574 . S
C950 H944 0.949 . S
C950 C954 1.368 . S
C951 C932 1.429 . S
C951 C945 1.429 . S
C951 C952 1.523 . S
C952 C933 1.368 . S
C952 C946 1.368 . S
C952 C951 1.523 . S
C953 C937 1.429 . S
C953 C949 1.429 . S
C953 C954 1.523 . S
C954 C938 1.368 . S
C954 C950 1.368 . S
C954 C953 1.523 . S
H955 C930 0.950 . S
H956 C932 0.950 . S
H957 C933 0.949 . S
H958 C935 0.950 . S
H959 C937 0.950 . S
C960 C961 1.349 . S
C960 C962 1.327 . S
C960 H985 0.950 . S
C961 C960 1.349 . S
C961 C977 1.349 . S
C962 C960 1.327 . S
C962 C981 1.429 . S
C962 H986 0.950 . S
C963 C980 1.574 . S
C963 C982 1.368 . S
C963 H987 0.949 . S
H964 C968 0.949 . S
C965 C966 1.349 . S
C965 C967 1.327 . S
C965 H988 0.950 . S
C966 C965 1.349 . S
C966 C978 1.349 . S
C967 C965 1.327 . S
C967 C983 1.429 . S
C967 H989 0.950 . S
C968 H964 0.949 . S
C968 C976 1.574 . S
C968 C984 1.368 . S
H969 C977 0.950 . S
H970 C975 0.950 . S
H971 C976 0.949 . S
H972 C978 0.950 . S
H973 C979 0.950 . S
H974 C980 0.949 . S
C975 H970 0.950 . S
C975 C977 1.327 . S
C975 C981 1.429 . S
C976 C968 1.574 . S
C976 H971 0.949 . S
C976 C982 1.368 . S
C977 C961 1.349 . S
C977 H969 0.950 . S
C977 C975 1.327 . S
C978 C966 1.349 . S
C978 H972 0.950 . S
C978 C979 1.327 . S
C979 H973 0.950 . S
C979 C978 1.327 . S
C979 C983 1.429 . S
C980 C963 1.574 . S
C980 H974 0.949 . S
C980 C984 1.368 . S
C981 C962 1.429 . S
C981 C975 1.429 . S
C981 C982 1.523 . S
C982 C963 1.368 . S
C982 C976 1.368 . S
C982 C981 1.523 . S
C983 C967 1.429 . S
C983 C979 1.429 . S
C983 C984 1.523 . S
C984 C968 1.368 . S
C984 C980 1.368 . S
C984 C983 1.523 . S
H985 C960 0.950 . S
H986 C962 0.950 . S
H987 C963 0.949 . S
H988 C965 0.950 . S
H989 C967 0.950 . S
C990 C991 1.349 . S
C990 C992 1.327 . S
C990 H1015 0.950 . S
C991 C990 1.349 . S
C991 C1007 1.349 . S
C992 C990 1.327 . S
C992 C1011 1.429 . S
C992 H1016 0.950 . S
C993 C1010 1.574 . S
C993 C1012 1.368 . S
C993 H1017 0.949 . S
H994 C998 0.949 . S
C995 C996 1.349 . S
C995 C997 1.327 . S
C995 H1018 0.950 . S
C996 C995 1.349 . S
C996 C1008 1.349 . S
C997 C995 1.327 . S
C997 C1013 1.429 . S
C997 H1019 0.950 . S
C998 H994 0.949 . S
C998 C1006 1.574 . S
C998 C1014 1.368 . S
H999 C1007 0.950 . S
H1000 C1005 0.950 . S
H1001 C1006 0.949 . S
H1002 C1008 0.950 . S
H1003 C1009 0.950 . S
H1004 C1010 0.949 . S
C1005 H1000 0.950 . S
C1005 C1007 1.327 . S
C1005 C1011 1.429 . S
C1006 C998 1.574 . S
C1006 H1001 0.949 . S
C1006 C1012 1.368 . S
C1007 C991 1.349 . S
C1007 H999 0.950 . S
C1007 C1005 1.327 . S
C1008 C996 1.349 . S
C1008 H1002 0.950 . S
C1008 C1009 1.327 . S
C1009 H1003 0.950 . S
C1009 C1008 1.327 . S
C1009 C1013 1.429 . S
C1010 C993 1.574 . S
C1010 H1004 0.949 . S
C1010 C1014 1.368 . S
C1011 C992 1.429 . S
C1011 C1005 1.429 . S
C1011 C1012 1.523 . S
C1012 C993 1.368 . S
C1012 C1006 1.368 . S
C1012 C1011 1.523 . S
C1013 C997 1.429 . S
C1013 C1009 1.429 . S
C1013 C1014 1.523 . S
C1014 C998 1.368 . S
C1014 C1010 1.368 . S
C1014 C1013 1.523 . S
H1015 C990 0.950 . S
H1016 C992 0.950 . S
H1017 C993 0.949 . S
H1018 C995 0.950 . S
H1019 C997 0.950 . S
C1020 C1021 1.349 . S
C1020 C1022 1.327 . S
C1020 H1045 0.950 . S
C1021 C1020 1.349 . S
C1021 C1037 1.349 . S
C1022 C1020 1.327 . S
C1022 C1041 1.429 . S
C1022 H1046 0.950 . S
C1023 C1040 1.574 . S
C1023 C1042 1.368 . S
C1023 H1047 0.949 . S
H1024 C1028 0.949 . S
C1025 C1026 1.349 . S
C1025 C1027 1.327 . S
C1025 H1048 0.950 . S
C1026 C1025 1.349 . S
C1026 C1038 1.349 . S
C1027 C1025 1.327 . S
C1027 C1043 1.429 . S
C1027 H1049 0.950 . S
C1028 H1024 0.949 . S
C1028 C1036 1.574 . S
C1028 C1044 1.368 . S
H1029 C1037 0.950 . S
H1030 C1035 0.950 . S
H1031 C1036 0.949 . S
H1032 C1038 0.950 . S
H1033 C1039 0.950 . S
H1034 C1040 0.949 . S
C1035 H1030 0.950 . S
C1035 C1037 1.327 . S
C1035 C1041 1.429 . S
C1036 C1028 1.574 . S
C1036 H1031 0.949 . S
C1036 C1042 1.368 . S
C1037 C1021 1.349 . S
C1037 H1029 0.950 . S
C1037 C1035 1.327 . S
C1038 C1026 1.349 . S
C1038 H1032 0.950 . S
C1038 C1039 1.327 . S
C1039 H1033 0.950 . S
C1039 C1038 1.327 . S
C1039 C1043 1.429 . S
C1040 C1023 1.574 . S
C1040 H1034 0.949 . S
C1040 C1044 1.368 . S
C1041 C1022 1.429 . S
C1041 C1035 1.429 . S
C1041 C1042 1.523 . S
C1042 C1023 1.368 . S
C1042 C1036 1.368 . S
C1042 C1041 1.523 . S
C1043 C1027 1.429 . S
C1043 C1039 1.429 . S
C1043 C1044 1.523 . S
C1044 C1028 1.368 . S
C1044 C1040 1.368 . S
C1044 C1043 1.523 . S
H1045 C1020 0.950 . S
H1046 C1022 0.950 . S
H1047 C1023 0.949 . S
H1048 C1025 0.950 . S
H1049 C1027 0.950 . S
C1050 C1051 1.349 . S
C1050 C1052 1.327 . S
C1050 H1075 0.950 . S
C1051 C1050 1.349 . S
C1051 C1067 1.349 . S
C1052 C1050 1.327 . S
C1052 C1071 1.429 . S
C1052 H1076 0.950 . S
C1053 C1070 1.574 . S
C1053 C1072 1.368 . S
C1053 H1077 0.949 . S
H1054 C1058 0.949 . S
C1055 C1056 1.349 . S
C1055 C1057 1.327 . S
C1055 H1078 0.950 . S
C1056 C1055 1.349 . S
C1056 C1068 1.349 . S
C1057 C1055 1.327 . S
C1057 C1073 1.429 . S
C1057 H1079 0.950 . S
C1058 H1054 0.949 . S
C1058 C1066 1.574 . S
C1058 C1074 1.368 . S
H1059 C1067 0.950 . S
H1060 C1065 0.950 . S
H1061 C1066 0.949 . S
H1062 C1068 0.950 . S
H1063 C1069 0.950 . S
H1064 C1070 0.949 . S
C1065 H1060 0.950 . S
C1065 C1067 1.327 . S
C1065 C1071 1.429 . S
C1066 C1058 1.574 . S
C1066 H1061 0.949 . S
C1066 C1072 1.368 . S
C1067 C1051 1.349 . S
C1067 H1059 0.950 . S
C1067 C1065 1.327 . S
C1068 C1056 1.349 . S
C1068 H1062 0.950 . S
C1068 C1069 1.327 . S
C1069 H1063 0.950 . S
C1069 C1068 1.327 . S
C1069 C1073 1.429 . S
C1070 C1053 1.574 . S
C1070 H1064 0.949 . S
C1070 C1074 1.368 . S
C1071 C1052 1.429 . S
C1071 C1065 1.429 . S
C1071 C1072 1.523 . S
C1072 C1053 1.368 . S
C1072 C1066 1.368 . S
C1072 C1071 1.523 . S
C1073 C1057 1.429 . S
C1073 C1069 1.429 . S
C1073 C1074 1.523 . S
C1074 C1058 1.368 . S
C1074 C1070 1.368 . S
C1074 C1073 1.523 . S
H1075 C1050 0.950 . S
H1076 C1052 0.950 . S
H1077 C1053 0.949 . S
H1078 C1055 0.950 . S
H1079 C1057 0.950 . S
C1080 C1081 1.349 . S
C1080 C1082 1.327 . S
C1080 H1105 0.950 . S
C1081 C1080 1.349 . S
C1081 C1097 1.349 . S
C1082 C1080 1.327 . S
C1082 C1101 1.429 . S
C1082 H1106 0.950 . S
C1083 C1100 1.574 . S
C1083 C1102 1.368 . S
C1083 H1107 0.949 . S
H1084 C1088 0.949 . S
C1085 C1086 1.349 . S
C1085 C1087 1.327 . S
C1085 H1108 0.950 . S
C1086 C1085 1.349 . S
C1086 C1098 1.349 . S
C1087 C1085 1.327 . S
C1087 C1103 1.429 . S
C1087 H1109 0.950 . S
C1088 H1084 0.949 . S
C1088 C1096 1.574 . S
C1088 C1104 1.368 . S
H1089 C1097 0.950 . S
H1090 C1095 0.950 . S
H1091 C1096 0.949 . S
H1092 C1098 0.950 . S
H1093 C1099 0.950 . S
H1094 C1100 0.949 . S
C1095 H1090 0.950 . S
C1095 C1097 1.327 . S
C1095 C1101 1.429 . S
C1096 C1088 1.574 . S
C1096 H1091 0.949 . S
C1096 C1102 1.368 . S
C1097 C1081 1.349 . S
C1097 H1089 0.950 . S
C1097 C1095 1.327 . S
C1098 C1086 1.349 . S
C1098 H1092 0.950 . S
C1098 C1099 1.327 . S
C1099 H1093 0.950 . S
C1099 C1098 1.327 . S
C1099 C1103 1.429 . S
C1100 C1083 1.574 . S
C1100 H1094 0.949 . S
C1100 C1104 1.368 . S
C1101 C1082 1.429 . S
C1101 C1095 1.429 . S
C1101 C1102 1.523 . S
C1102 C1083 1.368 . S
C1102 C1096 1.368 . S
C1102 C1101 1.523 . S
C1103 C1087 1.429 . S
C1103 C1099 1.429 . S
C1103 C1104 1.523 . S
C1104 C1088 1.368 . S
C1104 C1100 1.368 . S
C1104 C1103 1.523 . S
H1105 C1080 0.950 . S
H1106 C1082 0.950 . S
H1107 C1083 0.949 . S
H1108 C1085 0.950 . S
H1109 C1087 0.950 . S
C1110 C1111 1.349 . S
C1110 C1112 1.327 . S
C1110 H1135 0.950 . S
C1111 C1110 1.349 . S
C1111 C1127 1.349 . S
C1112 C1110 1.327 . S
C1112 C1131 1.429 . S
C1112 H1136 0.950 . S
C1113 C1130 1.574 . S
C1113 C1132 1.368 . S
C1113 H1137 0.949 . S
H1114 C1118 0.949 . S
C1115 C1116 1.349 . S
C1115 C1117 1.327 . S
C1115 H1138 0.950 . S
C1116 C1115 1.349 . S
C1116 C1128 1.349 . S
C1117 C1115 1.327 . S
C1117 C1133 1.429 . S
C1117 H1139 0.950 . S
C1118 H1114 0.949 . S
C1118 C1126 1.574 . S
C1118 C1134 1.368 . S
H1119 C1127 0.950 . S
H1120 C1125 0.950 . S
H1121 C1126 0.949 . S
H1122 C1128 0.950 . S
H1123 C1129 0.950 . S
H1124 C1130 0.949 . S
C1125 H1120 0.950 . S
C1125 C1127 1.327 . S
C1125 C1131 1.429 . S
C1126 C1118 1.574 . S
C1126 H1121 0.949 . S
C1126 C1132 1.368 . S
C1127 C1111 1.349 . S
C1127 H1119 0.950 . S
C1127 C1125 1.327 . S
C1128 C1116 1.349 . S
C1128 H1122 0.950 . S
C1128 C1129 1.327 . S
C1129 H1123 0.950 . S
C1129 C1128 1.327 . S
C1129 C1133 1.429 . S
C1130 C1113 1.574 . S
C1130 H1124 0.949 . S
C1130 C1134 1.368 . S
C1131 C1112 1.429 . S
C1131 C1125 1.429 . S
C1131 C1132 1.523 . S
C1132 C1113 1.368 . S
C1132 C1126 1.368 . S
C1132 C1131 1.523 . S
C1133 C1117 1.429 . S
C1133 C1129 1.429 . S
C1133 C1134 1.523 . S
C1134 C1118 1.368 . S
C1134 C1130 1.368 . S
C1134 C1133 1.523 . S
H1135 C1110 0.950 . S
H1136 C1112 0.950 . S
H1137 C1113 0.949 . S
H1138 C1115 0.950 . S
H1139 C1117 0.950 . S
C1140 C1141 1.349 . S
C1140 C1142 1.327 . S
C1140 H1165 0.950 . S
C1141 C1140 1.349 . S
C1141 C1157 1.349 . S
C1142 C1140 1.327 . S
C1142 C1161 1.429 . S
C1142 H1166 0.950 . S
C1143 C1160 1.574 . S
C1143 C1162 1.368 . S
C1143 H1167 0.949 . S
H1144 C1148 0.949 . S
C1145 C1146 1.349 . S
C1145 C1147 1.327 . S
C1145 H1168 0.950 . S
C1146 C1145 1.349 . S
C1146 C1158 1.349 . S
C1147 C1145 1.327 . S
C1147 C1163 1.429 . S
C1147 H1169 0.950 . S
C1148 H1144 0.949 . S
C1148 C1156 1.574 . S
C1148 C1164 1.368 . S
H1149 C1157 0.950 . S
H1150 C1155 0.950 . S
H1151 C1156 0.949 . S
H1152 C1158 0.950 . S
H1153 C1159 0.950 . S
H1154 C1160 0.949 . S
C1155 H1150 0.950 . S
C1155 C1157 1.327 . S
C1155 C1161 1.429 . S
C1156 C1148 1.574 . S
C1156 H1151 0.949 . S
C1156 C1162 1.368 . S
C1157 C1141 1.349 . S
C1157 H1149 0.950 . S
C1157 C1155 1.327 . S
C1158 C1146 1.349 . S
C1158 H1152 0.950 . S
C1158 C1159 1.327 . S
C1159 H1153 0.950 . S
C1159 C1158 1.327 . S
C1159 C1163 1.429 . S
C1160 C1143 1.574 . S
C1160 H1154 0.949 . S
C1160 C1164 1.368 . S
C1161 C1142 1.429 . S
C1161 C1155 1.429 . S
C1161 C1162 1.523 . S
C1162 C1143 1.368 . S
C1162 C1156 1.368 . S
C1162 C1161 1.523 . S
C1163 C1147 1.429 . S
C1163 C1159 1.429 . S
C1163 C1164 1.523 . S
C1164 C1148 1.368 . S
C1164 C1160 1.368 . S
C1164 C1163 1.523 . S
H1165 C1140 0.950 . S
H1166 C1142 0.950 . S
H1167 C1143 0.949 . S
H1168 C1145 0.950 . S
H1169 C1147 0.950 . S
C1170 C1171 1.349 . S
C1170 C1172 1.327 . S
C1170 H1195 0.950 1_565 S
C1171 C1170 1.349 . S
C1171 C1187 1.349 . S
C1172 C1170 1.327 . S
C1172 C1191 1.429 . S
C1172 H1196 0.950 . S
C1173 C1190 1.574 . S
C1173 C1192 1.368 . S
C1173 H1197 0.949 . S
H1174 C1178 0.949 . S
C1175 C1176 1.349 . S
C1175 C1177 1.327 . S
C1175 H1198 0.950 . S
C1176 C1175 1.349 . S
C1176 C1188 1.349 . S
C1177 C1175 1.327 . S
C1177 C1193 1.429 . S
C1177 H1199 0.950 . S
C1178 H1174 0.949 . S
C1178 C1186 1.574 . S
C1178 C1194 1.368 . S
H1179 C1187 0.950 . S
H1180 C1185 0.950 . S
H1181 C1186 0.949 . S
H1182 C1188 0.950 . S
H1183 C1189 0.950 . S
H1184 C1190 0.949 . S
C1185 H1180 0.950 . S
C1185 C1187 1.327 . S
C1185 C1191 1.429 . S
C1186 C1178 1.574 . S
C1186 H1181 0.949 . S
C1186 C1192 1.368 . S
C1187 C1171 1.349 . S
C1187 H1179 0.950 . S
C1187 C1185 1.327 . S
C1188 C1176 1.349 . S
C1188 H1182 0.950 . S
C1188 C1189 1.327 . S
C1189 H1183 0.950 . S
C1189 C1188 1.327 . S
C1189 C1193 1.429 . S
C1190 C1173 1.574 . S
C1190 H1184 0.949 . S
C1190 C1194 1.368 . S
C1191 C1172 1.429 . S
C1191 C1185 1.429 . S
C1191 C1192 1.523 . S
C1192 C1173 1.368 . S
C1192 C1186 1.368 . S
C1192 C1191 1.523 . S
C1193 C1177 1.429 . S
C1193 C1189 1.429 . S
C1193 C1194 1.523 . S
C1194 C1178 1.368 . S
C1194 C1190 1.368 . S
C1194 C1193 1.523 . S
H1195 C1170 0.950 1_545 S
H1196 C1172 0.950 . S
H1197 C1173 0.949 . S
H1198 C1175 0.950 . S
H1199 C1177 0.950 . S
C1200 C1201 1.349 . S
C1200 C1202 1.327 . S
C1200 H1225 0.950 . S
C1201 C1200 1.349 . S
C1201 C1217 1.349 . S
C1202 C1200 1.327 . S
C1202 C1221 1.429 . S
C1202 H1226 0.950 . S
C1203 C1220 1.574 . S
C1203 C1222 1.368 . S
C1203 H1227 0.949 . S
H1204 C1208 0.949 . S
C1205 C1206 1.349 . S
C1205 C1207 1.327 . S
C1205 H1228 0.950 . S
C1206 C1205 1.349 . S
C1206 C1218 1.349 . S
C1207 C1205 1.327 . S
C1207 C1223 1.429 . S
C1207 H1229 0.950 . S
C1208 H1204 0.949 . S
C1208 C1216 1.574 . S
C1208 C1224 1.368 . S
H1209 C1217 0.950 . S
H1210 C1215 0.950 . S
H1211 C1216 0.949 . S
H1212 C1218 0.950 . S
H1213 C1219 0.950 . S
H1214 C1220 0.949 . S
C1215 H1210 0.950 . S
C1215 C1217 1.327 . S
C1215 C1221 1.429 . S
C1216 C1208 1.574 . S
C1216 H1211 0.949 . S
C1216 C1222 1.368 . S
C1217 C1201 1.349 . S
C1217 H1209 0.950 . S
C1217 C1215 1.327 . S
C1218 C1206 1.349 . S
C1218 H1212 0.950 . S
C1218 C1219 1.327 . S
C1219 H1213 0.950 . S
C1219 C1218 1.327 . S
C1219 C1223 1.429 . S
C1220 C1203 1.574 . S
C1220 H1214 0.949 . S
C1220 C1224 1.368 . S
C1221 C1202 1.429 . S
C1221 C1215 1.429 . S
C1221 C1222 1.523 . S
C1222 C1203 1.368 . S
C1222 C1216 1.368 . S
C1222 C1221 1.523 . S
C1223 C1207 1.429 . S
C1223 C1219 1.429 . S
C1223 C1224 1.523 . S
C1224 C1208 1.368 . S
C1224 C1220 1.368 . S
C1224 C1223 1.523 . S
H1225 C1200 0.950 . S
H1226 C1202 0.950 . S
H1227 C1203 0.949 . S
H1228 C1205 0.950 . S
H1229 C1207 0.950 . S
C1230 C1231 1.349 . S
C1230 C1232 1.327 . S
C1230 H1255 0.950 . S
C1231 C1230 1.349 . S
C1231 C1247 1.349 . S
C1232 C1230 1.327 . S
C1232 C1251 1.429 . S
C1232 H1256 0.950 . S
C1233 C1250 1.574 . S
C1233 C1252 1.368 . S
C1233 H1257 0.949 . S
H1234 C1238 0.949 . S
C1235 C1236 1.349 . S
C1235 C1237 1.327 . S
C1235 H1258 0.950 . S
C1236 C1235 1.349 . S
C1236 C1248 1.349 . S
C1237 C1235 1.327 . S
C1237 C1253 1.429 . S
C1237 H1259 0.950 . S
C1238 H1234 0.949 . S
C1238 C1246 1.574 . S
C1238 C1254 1.368 . S
H1239 C1247 0.950 . S
H1240 C1245 0.950 . S
H1241 C1246 0.949 . S
H1242 C1248 0.950 . S
H1243 C1249 0.950 . S
H1244 C1250 0.949 . S
C1245 H1240 0.950 . S
C1245 C1247 1.327 . S
C1245 C1251 1.429 . S
C1246 C1238 1.574 . S
C1246 H1241 0.949 . S
C1246 C1252 1.368 . S
C1247 C1231 1.349 . S
C1247 H1239 0.950 . S
C1247 C1245 1.327 . S
C1248 C1236 1.349 . S
C1248 H1242 0.950 . S
C1248 C1249 1.327 . S
C1249 H1243 0.950 . S
C1249 C1248 1.327 . S
C1249 C1253 1.429 . S
C1250 C1233 1.574 . S
C1250 H1244 0.949 . S
C1250 C1254 1.368 . S
C1251 C1232 1.429 . S
C1251 C1245 1.429 . S
C1251 C1252 1.523 . S
C1252 C1233 1.368 . S
C1252 C1246 1.368 . S
C1252 C1251 1.523 . S
C1253 C1237 1.429 . S
C1253 C1249 1.429 . S
C1253 C1254 1.523 . S
C1254 C1238 1.368 . S
C1254 C1250 1.368 . S
C1254 C1253 1.523 . S
H1255 C1230 0.950 . S
H1256 C1232 0.950 . S
H1257 C1233 0.949 . S
H1258 C1235 0.950 . S
H1259 C1237 0.950 . S
C1260 C1261 1.341 1_455 S
C1260 C1262 1.312 1_455 S
C1260 H1285 0.974 . S
C1261 C1260 1.341 1_655 S
C1261 C1277 1.349 . S
C1262 C1260 1.312 1_655 S
C1262 C1281 1.429 . S
C1262 H1286 0.950 . S
C1263 C1280 1.574 . S
C1263 C1282 1.368 . S
C1263 H1287 0.949 . S
H1264 C1268 0.949 . S
C1265 C1266 1.349 . S
C1265 C1267 1.327 . S
C1265 H1288 0.950 . S
C1266 C1265 1.349 . S
C1266 C1278 1.349 . S
C1267 C1265 1.327 . S
C1267 C1283 1.429 . S
C1267 H1289 0.950 . S
C1268 H1264 0.949 . S
C1268 C1276 1.574 . S
C1268 C1284 1.368 . S
H1269 C1277 0.950 . S
H1270 C1275 0.950 . S
H1271 C1276 0.949 . S
H1272 C1278 0.950 . S
H1273 C1279 0.950 . S
H1274 C1280 0.949 . S
C1275 H1270 0.950 . S
C1275 C1277 1.327 . S
C1275 C1281 1.429 . S
C1276 C1268 1.574 . S
C1276 H1271 0.949 . S
C1276 C1282 1.368 . S
C1277 C1261 1.349 . S
C1277 H1269 0.950 . S
C1277 C1275 1.327 . S
C1278 C1266 1.349 . S
C1278 H1272 0.950 . S
C1278 C1279 1.327 . S
C1279 H1273 0.950 . S
C1279 C1278 1.327 . S
C1279 C1283 1.429 . S
C1280 C1263 1.574 . S
C1280 H1274 0.949 . S
C1280 C1284 1.368 . S
C1281 C1262 1.429 . S
C1281 C1275 1.429 . S
C1281 C1282 1.523 . S
C1282 C1263 1.368 . S
C1282 C1276 1.368 . S
C1282 C1281 1.523 . S
C1283 C1267 1.429 . S
C1283 C1279 1.429 . S
C1283 C1284 1.523 . S
C1284 C1268 1.368 . S
C1284 C1280 1.368 . S
C1284 C1283 1.523 . S
H1285 C1260 0.974 . S
H1286 C1262 0.950 . S
H1287 C1263 0.949 . S
H1288 C1265 0.950 . S
H1289 C1267 0.950 . S
C1290 C1291 1.349 . S
C1290 C1292 1.327 . S
C1290 H1315 0.950 . S
C1291 C1290 1.349 . S
C1291 C1307 1.349 . S
C1292 C1290 1.327 . S
C1292 C1311 1.429 . S
C1292 H1316 0.950 . S
C1293 C1310 1.574 . S
C1293 C1312 1.368 . S
C1293 H1317 0.949 . S
H1294 C1298 0.949 . S
C1295 C1296 1.349 . S
C1295 C1297 1.327 . S
C1295 H1318 0.950 . S
C1296 C1295 1.349 . S
C1296 C1308 1.349 . S
C1297 C1295 1.327 . S
C1297 C1313 1.429 . S
C1297 H1319 0.950 . S
C1298 H1294 0.949 . S
C1298 C1306 1.574 . S
C1298 C1314 1.368 . S
H1299 C1307 0.950 . S
H1300 C1305 0.950 . S
H1301 C1306 0.949 . S
H1302 C1308 0.950 . S
H1303 C1309 0.950 . S
H1304 C1310 0.949 . S
C1305 H1300 0.950 . S
C1305 C1307 1.327 . S
C1305 C1311 1.429 . S
C1306 C1298 1.574 . S
C1306 H1301 0.949 . S
C1306 C1312 1.368 . S
C1307 C1291 1.349 . S
C1307 H1299 0.950 . S
C1307 C1305 1.327 . S
C1308 C1296 1.349 . S
C1308 H1302 0.950 . S
C1308 C1309 1.327 . S
C1309 H1303 0.950 . S
C1309 C1308 1.327 . S
C1309 C1313 1.429 . S
C1310 C1293 1.574 . S
C1310 H1304 0.949 . S
C1310 C1314 1.368 . S
C1311 C1292 1.429 . S
C1311 C1305 1.429 . S
C1311 C1312 1.523 . S
C1312 C1293 1.368 . S
C1312 C1306 1.368 . S
C1312 C1311 1.523 . S
C1313 C1297 1.429 . S
C1313 C1309 1.429 . S
C1313 C1314 1.523 . S
C1314 C1298 1.368 . S
C1314 C1310 1.368 . S
C1314 C1313 1.523 . S
H1315 C1290 0.950 . S
H1316 C1292 0.950 . S
H1317 C1293 0.949 . S
H1318 C1295 0.950 . S
H1319 C1297 0.950 . S
C1320 C1321 1.349 . S
C1320 C1322 1.327 . S
C1320 H1345 0.950 . S
C1321 C1320 1.349 . S
C1321 C1337 1.349 . S
C1322 C1320 1.327 . S
C1322 C1341 1.429 . S
C1322 H1346 0.950 . S
C1323 C1340 1.574 . S
C1323 C1342 1.368 . S
C1323 H1347 0.949 . S
H1324 C1328 0.949 . S
C1325 C1326 1.349 . S
C1325 C1327 1.327 . S
C1325 H1348 0.950 . S
C1326 C1325 1.349 . S
C1326 C1338 1.349 . S
C1327 C1325 1.327 . S
C1327 C1343 1.429 . S
C1327 H1349 0.950 . S
C1328 H1324 0.949 . S
C1328 C1336 1.574 . S
C1328 C1344 1.368 . S
H1329 C1337 0.950 . S
H1330 C1335 0.950 . S
H1331 C1336 0.949 . S
H1332 C1338 0.950 . S
H1333 C1339 0.950 . S
H1334 C1340 0.949 . S
C1335 H1330 0.950 . S
C1335 C1337 1.327 . S
C1335 C1341 1.429 . S
C1336 C1328 1.574 . S
C1336 H1331 0.949 . S
C1336 C1342 1.368 . S
C1337 C1321 1.349 . S
C1337 H1329 0.950 . S
C1337 C1335 1.327 . S
C1338 C1326 1.349 . S
C1338 H1332 0.950 . S
C1338 C1339 1.327 . S
C1339 H1333 0.950 . S
C1339 C1338 1.327 . S
C1339 C1343 1.429 . S
C1340 C1323 1.574 . S
C1340 H1334 0.949 . S
C1340 C1344 1.368 . S
C1341 C1322 1.429 . S
C1341 C1335 1.429 . S
C1341 C1342 1.523 . S
C1342 C1323 1.368 . S
C1342 C1336 1.368 . S
C1342 C1341 1.523 . S
C1343 C1327 1.429 . S
C1343 C1339 1.429 . S
C1343 C1344 1.523 . S
C1344 C1328 1.368 . S
C1344 C1340 1.368 . S
C1344 C1343 1.523 . S
H1345 C1320 0.950 . S
H1346 C1322 0.950 . S
H1347 C1323 0.949 . S
H1348 C1325 0.950 . S
H1349 C1327 0.950 . S
C1350 C1351 1.349 . S
C1350 C1352 1.327 . S
C1350 H1375 0.950 . S
C1351 C1350 1.349 . S
C1351 C1367 1.350 . S
C1352 C1350 1.327 . S
C1352 C1371 1.429 . S
C1352 H1376 0.950 . S
C1353 C1370 1.574 . S
C1353 C1372 1.368 . S
C1353 H1377 0.949 . S
H1354 C1358 0.949 . S
C1355 C1356 1.349 . S
C1355 C1357 1.327 . S
C1355 H1378 0.950 . S
C1356 C1355 1.349 . S
C1356 C1368 1.349 . S
C1357 C1355 1.327 . S
C1357 C1373 1.429 . S
C1357 H1379 0.950 . S
C1358 H1354 0.949 . S
C1358 C1366 1.574 . S
C1358 C1374 1.368 . S
H1359 C1367 0.945 1_455 S
H1360 C1365 0.950 . S
H1361 C1366 0.949 . S
H1362 C1368 0.950 . S
H1363 C1369 0.950 . S
H1364 C1370 0.949 . S
C1365 H1360 0.950 . S
C1365 C1367 1.330 . S
C1365 C1371 1.429 . S
C1366 C1358 1.574 . S
C1366 H1361 0.949 . S
C1366 C1372 1.368 . S
C1367 C1351 1.350 . S
C1367 H1359 0.945 1_655 S
C1367 C1365 1.330 . S
C1368 C1356 1.349 . S
C1368 H1362 0.950 . S
C1368 C1369 1.327 . S
C1369 H1363 0.950 . S
C1369 C1368 1.327 . S
C1369 C1373 1.429 . S
C1370 C1353 1.574 . S
C1370 H1364 0.949 . S
C1370 C1374 1.368 . S
C1371 C1352 1.429 . S
C1371 C1365 1.429 . S
C1371 C1372 1.523 . S
C1372 C1353 1.368 . S
C1372 C1366 1.368 . S
C1372 C1371 1.523 . S
C1373 C1357 1.429 . S
C1373 C1369 1.429 . S
C1373 C1374 1.523 . S
C1374 C1358 1.368 . S
C1374 C1370 1.368 . S
C1374 C1373 1.523 . S
H1375 C1350 0.950 . S
H1376 C1352 0.950 . S
H1377 C1353 0.949 . S
H1378 C1355 0.950 . S
H1379 C1357 0.950 . S
C1380 C1381 1.349 . S
C1380 C1382 1.327 . S
C1380 H1405 0.950 . S
C1381 C1380 1.349 . S
C1381 C1397 1.349 . S
C1382 C1380 1.327 . S
C1382 C1401 1.429 . S
C1382 H1406 0.950 . S
C1383 C1400 1.574 . S
C1383 C1402 1.368 . S
C1383 H1407 0.949 . S
H1384 C1388 0.949 . S
C1385 C1386 1.349 . S
C1385 C1387 1.327 . S
C1385 H1408 0.950 . S
C1386 C1385 1.349 . S
C1386 C1398 1.349 . S
C1387 C1385 1.327 . S
C1387 C1403 1.429 . S
C1387 H1409 0.950 . S
C1388 H1384 0.949 . S
C1388 C1396 1.574 . S
C1388 C1404 1.368 . S
H1389 C1397 0.950 . S
H1390 C1395 0.950 . S
H1391 C1396 0.949 . S
H1392 C1398 0.950 . S
H1393 C1399 0.950 . S
H1394 C1400 0.949 . S
C1395 H1390 0.950 . S
C1395 C1397 1.327 . S
C1395 C1401 1.429 . S
C1396 C1388 1.574 . S
C1396 H1391 0.949 . S
C1396 C1402 1.368 . S
C1397 C1381 1.349 . S
C1397 H1389 0.950 . S
C1397 C1395 1.327 . S
C1398 C1386 1.349 . S
C1398 H1392 0.950 . S
C1398 C1399 1.327 . S
C1399 H1393 0.950 . S
C1399 C1398 1.327 . S
C1399 C1403 1.429 . S
C1400 C1383 1.574 . S
C1400 H1394 0.949 . S
C1400 C1404 1.368 . S
C1401 C1382 1.429 . S
C1401 C1395 1.429 . S
C1401 C1402 1.523 . S
C1402 C1383 1.368 . S
C1402 C1396 1.368 . S
C1402 C1401 1.523 . S
C1403 C1387 1.429 . S
C1403 C1399 1.429 . S
C1403 C1404 1.523 . S
C1404 C1388 1.368 . S
C1404 C1400 1.368 . S
C1404 C1403 1.523 . S
H1405 C1380 0.950 . S
H1406 C1382 0.950 . S
H1407 C1383 0.949 . S
H1408 C1385 0.950 . S
H1409 C1387 0.950 . S
C1410 C1411 1.349 . S
C1410 C1412 1.327 . S
C1410 H1435 0.950 . S
C1411 C1410 1.349 . S
C1411 C1427 1.349 . S
C1412 C1410 1.327 . S
C1412 C1431 1.429 . S
C1412 H1436 0.950 . S
C1413 C1430 1.574 . S
C1413 C1432 1.368 . S
C1413 H1437 0.949 . S
H1414 C1418 0.949 . S
C1415 C1416 1.349 . S
C1415 C1417 1.327 . S
C1415 H1438 0.950 . S
C1416 C1415 1.349 . S
C1416 C1428 1.349 . S
C1417 C1415 1.327 . S
C1417 C1433 1.429 . S
C1417 H1439 0.950 . S
C1418 H1414 0.949 . S
C1418 C1426 1.574 . S
C1418 C1434 1.368 . S
H1419 C1427 0.950 . S
H1420 C1425 0.950 . S
H1421 C1426 0.949 . S
H1422 C1428 0.950 . S
H1423 C1429 0.950 . S
H1424 C1430 0.949 . S
C1425 H1420 0.950 . S
C1425 C1427 1.327 . S
C1425 C1431 1.429 . S
C1426 C1418 1.574 . S
C1426 H1421 0.949 . S
C1426 C1432 1.368 . S
C1427 C1411 1.349 . S
C1427 H1419 0.950 . S
C1427 C1425 1.327 . S
C1428 C1416 1.349 . S
C1428 H1422 0.950 . S
C1428 C1429 1.327 . S
C1429 H1423 0.950 . S
C1429 C1428 1.327 . S
C1429 C1433 1.429 . S
C1430 C1413 1.574 . S
C1430 H1424 0.949 . S
C1430 C1434 1.368 . S
C1431 C1412 1.429 . S
C1431 C1425 1.429 . S
C1431 C1432 1.523 . S
C1432 C1413 1.368 . S
C1432 C1426 1.368 . S
C1432 C1431 1.523 . S
C1433 C1417 1.429 . S
C1433 C1429 1.429 . S
C1433 C1434 1.523 . S
C1434 C1418 1.368 . S
C1434 C1430 1.368 . S
C1434 C1433 1.523 . S
H1435 C1410 0.950 . S
H1436 C1412 0.950 . S
H1437 C1413 0.949 . S
H1438 C1415 0.950 . S
H1439 C1417 0.950 . S
C486 C389 1.218 . S
C481 C8 1.203 . S
C516 C409 1.272 . S
C511 C61 1.276 . S
C546 C423 1.297 . S
C541 C107 1.304 . S
C571 C139 1.310 . S
C576 C381 1.308 . S
C601 C192 1.305 . S
C606 C375 1.341 . S
C631 C238 1.279 . S
C636 C395 1.282 . S
C666 C403 1.201 . S
C661 C284 1.189 . S
C696 C417 1.286 . S
C691 C330 1.260 . S
C721 C100 1.260 . S
C726 C445 1.286 . S
C756 C459 1.201 . S
C751 C160 1.184 . S
C781 C15 1.275 1_655 S
C786 C479 1.282 . S
C816 C431 1.340 . S
C811 C54 1.305 . S
C841 C291 1.310 . S
C846 C437 1.307 . S
C871 C337 1.290 1_655 S
C876 C451 1.297 . S
C906 C465 1.251 1_556 S
C901 C199 1.276 . S
C931 C245 1.204 . S
C936 C473 1.218 . S
C966 C404 1.711 . S
C961 C1 1.702 . S
C996 C418 1.717 . S
C991 C68 1.695 . S
C1021 C114 1.615 . S
C1026 C376 1.634 . S
C1051 C146 1.449 . S
C1056 C393 1.457 . S
C1081 C185 1.312 . S
C1086 C421 1.316 . S
C1116 C379 1.282 . S
C1111 C231 1.279 . S
C1146 C390 1.523 . S
C1141 C277 1.520 . S
C1176 C407 1.387 . S
C1171 C323 1.382 . S
C1206 C463 1.388 . S
C1201 C93 1.383 . S
C1236 C474 1.524 . S
C1231 C153 1.515 . S
C1261 C22 1.277 1_655 S
C1266 C435 1.282 . S
C1296 C449 1.316 . S
C1291 C47 1.312 . S
C1326 C477 1.456 . S
C1321 C298 1.442 . S
C1351 C344 1.616 1_655 S
C1356 C432 1.634 . S
C1386 C446 1.716 . S
C1381 C206 1.695 . S
C1416 C460 1.711 . S
C1411 C252 1.693 . S
