# Generated by pormake.
# Topology hwx, (6,3)-cn, num edge types: 1
# Building blocks:
#     Node 0, Type 0, BuildingBlock: OJICUG_clean_sbu_0, # of connection points: 6
#     Node 1, Type 0, BuildingBlock: OJICUG_clean_sbu_0, # of connection points: 6
#     Node 2, Type 0, BuildingBlock: OJICUG_clean_sbu_0, # of connection points: 6
#     Node 3, Type 0, BuildingBlock: OJICUG_clean_sbu_0, # of connection points: 6
#     Node 4, Type 1, BuildingBlock: CUQRIR_clean_linker_1, # of connection points: 3
#     Node 5, Type 1, BuildingBlock: CUQRIR_clean_linker_1, # of connection points: 3
#     Node 6, Type 1, BuildingBlock: CUQRIR_clean_linker_1, # of connection points: 3
#     Node 7, Type 1, BuildingBlock: CUQRIR_clean_linker_1, # of connection points: 3
#     Node 8, Type 1, BuildingBlock: CUQRIR_clean_linker_1, # of connection points: 3
#     Node 9, Type 1, BuildingBlock: CUQRIR_clean_linker_1, # of connection points: 3
#     Node 10, Type 1, BuildingBlock: CUQRIR_clean_linker_1, # of connection points: 3
#     Node 11, Type 1, BuildingBlock: CUQRIR_clean_linker_1, # of connection points: 3
#     Edge 12, Type (0, 1), BuildingBlock: MIFKUJ_clean_linker_0, # of connection points: 2
#     Edge 13, Type (0, 1), BuildingBlock: MIFKUJ_clean_linker_0, # of connection points: 2
#     Edge 14, Type (0, 1), BuildingBlock: MIFKUJ_clean_linker_0, # of connection points: 2
#     Edge 15, Type (0, 1), BuildingBlock: MIFKUJ_clean_linker_0, # of connection points: 2
#     Edge 16, Type (0, 1), BuildingBlock: MIFKUJ_clean_linker_0, # of connection points: 2
#     Edge 17, Type (0, 1), BuildingBlock: MIFKUJ_clean_linker_0, # of connection points: 2
#     Edge 18, Type (0, 1), BuildingBlock: MIFKUJ_clean_linker_0, # of connection points: 2
#     Edge 19, Type (0, 1), BuildingBlock: MIFKUJ_clean_linker_0, # of connection points: 2
#     Edge 20, Type (0, 1), BuildingBlock: MIFKUJ_clean_linker_0, # of connection points: 2
#     Edge 21, Type (0, 1), BuildingBlock: MIFKUJ_clean_linker_0, # of connection points: 2
#     Edge 22, Type (0, 1), BuildingBlock: MIFKUJ_clean_linker_0, # of connection points: 2
#     Edge 23, Type (0, 1), BuildingBlock: MIFKUJ_clean_linker_0, # of connection points: 2
#     Edge 24, Type (0, 1), BuildingBlock: MIFKUJ_clean_linker_0, # of connection points: 2
#     Edge 25, Type (0, 1), BuildingBlock: MIFKUJ_clean_linker_0, # of connection points: 2
#     Edge 26, Type (0, 1), BuildingBlock: MIFKUJ_clean_linker_0, # of connection points: 2
#     Edge 27, Type (0, 1), BuildingBlock: MIFKUJ_clean_linker_0, # of connection points: 2
#     Edge 28, Type (0, 1), BuildingBlock: MIFKUJ_clean_linker_0, # of connection points: 2
#     Edge 29, Type (0, 1), BuildingBlock: MIFKUJ_clean_linker_0, # of connection points: 2
#     Edge 30, Type (0, 1), BuildingBlock: MIFKUJ_clean_linker_0, # of connection points: 2
#     Edge 31, Type (0, 1), BuildingBlock: MIFKUJ_clean_linker_0, # of connection points: 2
#     Edge 32, Type (0, 1), BuildingBlock: MIFKUJ_clean_linker_0, # of connection points: 2
#     Edge 33, Type (0, 1), BuildingBlock: MIFKUJ_clean_linker_0, # of connection points: 2
#     Edge 34, Type (0, 1), BuildingBlock: MIFKUJ_clean_linker_0, # of connection points: 2
#     Edge 35, Type (0, 1), BuildingBlock: MIFKUJ_clean_linker_0, # of connection points: 2
# Relax obj value: 0.003
# Max RMSD: 0.058
# Mean RMSD: 0.045
data_MOF--net-hwx--node1-OJICUG_clean_sbu_0--node2-CUQRIR_clean_linker_1--edge1-MIFKUJ_clean_linker_0
_symmetry_space_group_name_H-M    P1
_symmetry_Int_Tables_number       1
_symmetry_cell_setting            triclinic
loop_
_symmetry_equiv_pos_as_xyz
'x, y, z'
_cell_length_a     64.818725
_cell_length_b     64.788533
_cell_length_c     24.653309
_cell_angle_alpha  90.020146
_cell_angle_beta   90.013051
_cell_angle_gamma 89.997634
loop_
_atom_site_label
_atom_site_type_symbol
_atom_site_fract_x
_atom_site_fract_y
_atom_site_fract_z
_atom_type_partial_charge
Sc0 Sc 0.22045 0.21824 0.07405 0.0
Sc1 Sc 0.18629 0.18616 1.0005 0.0
Sc2 Sc 0.22167 0.21812 0.93152 0.0
O3 O 0.20944 0.20746 0.00205 0.0
C4 C 0.21928 0.2592 0.00294 0.0
C5 C 0.1722 0.215 0.09888 0.0
C6 C 0.17378 0.21586 0.90216 0.0
C7 C 0.21431 0.17041 0.09931 0.0
C8 C 0.26186 0.21422 0.00478 0.0
C9 C 0.21532 0.17043 0.90413 0.0
O10 O 0.21874 0.24993 0.04833 0.0
O11 O 0.16812 0.20245 0.06062 0.0
O12 O 0.19189 0.22294 0.8958 0.0
O13 O 0.22291 0.18777 0.10753 0.0
O14 O 0.25288 0.2143 0.95903 0.0
O15 O 0.20161 0.16736 0.94018 0.0
O16 O 0.25223 0.21598 0.04941 0.0
O17 O 0.20086 0.16746 0.06243 0.0
O18 O 0.2238 0.18786 0.89678 0.0
O19 O 0.19025 0.22173 0.10806 0.0
O20 O 0.22077 0.24973 0.95797 0.0
O21 O 0.16932 0.20248 0.93813 0.0
Sc22 Sc 0.2801 0.71683 0.43605 0.0
Sc23 Sc 0.31354 0.68269 0.50498 0.0
Sc24 Sc 0.27883 0.71417 0.57831 0.0
O25 O 0.29086 0.70453 0.50645 0.0
C26 C 0.28228 0.75639 0.51189 0.0
C27 C 0.32802 0.71233 0.40867 0.0
C28 C 0.32698 0.71079 0.60534 0.0
C29 C 0.28429 0.66901 0.40666 0.0
C30 C 0.23855 0.71288 0.5051 0.0
C31 C 0.28464 0.66616 0.60094 0.0
O32 O 0.28304 0.74787 0.46551 0.0
O33 O 0.33161 0.69872 0.44458 0.0
O34 O 0.30884 0.71741 0.61446 0.0
O35 O 0.27646 0.68685 0.40013 0.0
O36 O 0.24753 0.71158 0.55071 0.0
O37 O 0.29869 0.66355 0.56557 0.0
O38 O 0.24823 0.71536 0.46079 0.0
O39 O 0.29786 0.66506 0.44267 0.0
O40 O 0.27591 0.68342 0.60895 0.0
O41 O 0.31029 0.72015 0.40153 0.0
O42 O 0.2802 0.7463 0.5558 0.0
O43 O 0.33131 0.6985 0.56662 0.0
Sc44 Sc 0.77749 0.77872 0.92764 0.0
Sc45 Sc 0.81165 0.81297 0.99397 0.0
Sc46 Sc 0.77817 0.78126 0.06987 0.0
O47 O 0.78912 0.79102 0.99713 0.0
C48 C 0.73698 0.78346 0.0008 0.0
C49 C 0.78153 0.82631 0.89706 0.0
C50 C 0.78454 0.8295 0.09262 0.0
C51 C 0.82541 0.78292 0.89812 0.0
C52 C 0.7798 0.73899 0.00241 0.0
C53 C 0.82641 0.78434 0.09258 0.0
O54 O 0.74604 0.78015 0.9559 0.0
O55 O 0.79595 0.83007 0.93079 0.0
O56 O 0.777 0.81187 0.10332 0.0
O57 O 0.80743 0.77564 0.89055 0.0
O58 O 0.77807 0.74922 0.04619 0.0
O59 O 0.82973 0.79803 0.05654 0.0
O60 O 0.78067 0.74753 0.95608 0.0
O61 O 0.82938 0.79616 0.9347 0.0
O62 O 0.80871 0.77651 0.10101 0.0
O63 O 0.77305 0.80871 0.89239 0.0
O64 O 0.74655 0.78523 0.04554 0.0
O65 O 0.79684 0.83255 0.05325 0.0
Sc66 Sc 0.72224 0.27903 0.57181 0.0
Sc67 Sc 0.68687 0.30948 0.49751 0.0
Sc68 Sc 0.7232 0.27834 0.42927 0.0
O69 O 0.71073 0.28899 0.49958 0.0
C70 C 0.76349 0.28307 0.50258 0.0
C71 C 0.71443 0.32681 0.59547 0.0
C72 C 0.716 0.3257 0.40116 0.0
C73 C 0.67399 0.28094 0.59774 0.0
C74 C 0.7213 0.23762 0.50149 0.0
C75 C 0.67528 0.27975 0.39899 0.0
O76 O 0.75385 0.2827 0.54736 0.0
O77 O 0.70092 0.32915 0.55839 0.0
O78 O 0.72578 0.30881 0.39586 0.0
O79 O 0.6922 0.27449 0.60642 0.0
O80 O 0.72146 0.24681 0.45593 0.0
O81 O 0.67011 0.29208 0.43684 0.0
O82 O 0.72196 0.24713 0.54664 0.0
O83 O 0.66952 0.29328 0.55932 0.0
O84 O 0.69376 0.27397 0.39151 0.0
O85 O 0.7235 0.30974 0.60421 0.0
O86 O 0.75446 0.2814 0.45714 0.0
O87 O 0.70138 0.32811 0.43513 0.0
C88 C 0.21898 0.49324 0.96162 0.0
N89 N 0.22238 0.51242 0.98104 0.0
N90 N 0.21502 0.47997 0.00266 0.0
C91 C 0.22082 0.48724 0.90291 0.0
C92 C 0.21641 0.49176 0.04786 0.0
N93 N 0.2209 0.51153 0.03465 0.0
C94 C 0.21545 0.48353 0.10482 0.0
H95 H 0.2156 0.50007 0.8764 0.0
H96 H 0.21167 0.47316 0.89415 0.0
H97 H 0.23726 0.48406 0.89351 0.0
H98 H 0.2304 0.47611 0.11479 0.0
H99 H 0.2032 0.47167 0.10845 0.0
H100 H 0.21244 0.49606 0.13448 0.0
C101 C 0.0049 0.72701 0.54039 0.0
N102 N 0.98557 0.73081 0.52201 0.0
N103 N 0.01832 0.72567 0.49839 0.0
C104 C 0.01099 0.7268 0.59933 0.0
C105 C 0.00647 0.7289 0.45395 0.0
N106 N 0.98663 0.73222 0.46834 0.0
C107 C 0.01403 0.72759 0.39634 0.0
H108 H 0.02712 0.73215 0.60475 0.0
H109 H 0.00978 0.71079 0.6149 0.0
H110 H 0.00062 0.73677 0.62378 0.0
H111 H 0.0277 0.71733 0.39329 0.0
H112 H 0.01847 0.74323 0.38231 0.0
H113 H 0.0017 0.72172 0.36918 0.0
C114 C 0.77056 0.5044 0.04527 0.0
N115 N 0.76653 0.48557 0.02432 0.0
N116 N 0.77305 0.51842 0.00516 0.0
C117 C 0.77118 0.50925 0.10485 0.0
C118 C 0.7701 0.50748 0.95901 0.0
N119 N 0.76608 0.48748 0.97073 0.0
C120 C 0.76961 0.51664 0.90299 0.0
H121 H 0.75527 0.51248 0.11907 0.0
H122 H 0.78088 0.52304 0.11284 0.0
H123 H 0.7772 0.49588 0.12811 0.0
H124 H 0.78126 0.52906 0.89888 0.0
H125 H 0.75417 0.52354 0.89587 0.0
H126 H 0.77249 0.50471 0.87162 0.0
C127 C 0.99663 0.2826 0.4599 0.0
N128 N 0.01621 0.2786 0.47605 0.0
N129 N 0.98413 0.28497 0.50338 0.0
C130 C 0.98941 0.28269 0.40183 0.0
C131 C 0.99662 0.28195 0.5465 0.0
N132 N 0.01612 0.27795 0.52998 0.0
C133 C 0.98946 0.28205 0.60453 0.0
H134 H 0.99376 0.29758 0.38284 0.0
H135 H 0.97244 0.28101 0.39864 0.0
H136 H 0.997 0.2701 0.37872 0.0
H137 H 0.98375 0.26643 0.61519 0.0
H138 H 0.97658 0.29312 0.61014 0.0
H139 H 0.00227 0.28616 0.63239 0.0
C140 C 0.71526 0.00326 0.53811 0.0
N141 N 0.72241 0.98454 0.52293 0.0
N142 N 0.71662 0.01688 0.49659 0.0
C143 C 0.70854 0.00866 0.59477 0.0
C144 C 0.72497 0.00571 0.45556 0.0
N145 N 0.72871 0.98608 0.47184 0.0
C146 C 0.73056 0.01434 0.40077 0.0
H147 H 0.69981 0.02339 0.59565 0.0
H148 H 0.72238 0.0101 0.62099 0.0
H149 H 0.69873 0.99622 0.61174 0.0
H150 H 0.74624 0.02116 0.40296 0.0
H151 H 0.71975 0.02666 0.38818 0.0
H152 H 0.73044 0.00212 0.36929 0.0
C153 C 0.49424 0.22516 0.95865 0.0
N154 N 0.51395 0.22854 0.97447 0.0
N155 N 0.48229 0.22034 0.00191 0.0
C156 C 0.48631 0.22854 0.90196 0.0
C157 C 0.49546 0.22093 0.04452 0.0
N158 N 0.51468 0.22613 0.02797 0.0
C159 C 0.48987 0.21488 0.1016 0.0
H160 H 0.47024 0.23442 0.90262 0.0
H161 H 0.48647 0.2136 0.87994 0.0
H162 H 0.49615 0.23963 0.87948 0.0
H163 H 0.4769 0.20369 0.10168 0.0
H164 H 0.48501 0.2288 0.12446 0.0
H165 H 0.50331 0.20794 0.12269 0.0
C166 C 0.26582 0.98816 0.46002 0.0
N167 N 0.26185 0.00799 0.47406 0.0
N168 N 0.26799 0.97627 0.50487 0.0
C169 C 0.2653 0.97998 0.40286 0.0
C170 C 0.26505 0.98952 0.54661 0.0
N171 N 0.26112 0.00873 0.52789 0.0
C172 C 0.26732 0.984 0.60563 0.0
H173 H 0.25503 0.98945 0.37685 0.0
H174 H 0.25989 0.96374 0.40198 0.0
H175 H 0.28111 0.98052 0.3857 0.0
H176 H 0.27797 0.97073 0.61087 0.0
H177 H 0.252 0.97967 0.62217 0.0
H178 H 0.2732 0.99735 0.62924 0.0
C179 C 0.50479 0.77517 0.0474 0.0
N180 N 0.48527 0.77109 0.03108 0.0
N181 N 0.51657 0.7809 0.00465 0.0
C182 C 0.5126 0.77256 0.10453 0.0
C183 C 0.5035 0.78025 0.96179 0.0
N184 N 0.48438 0.77449 0.97798 0.0
C185 C 0.5096 0.78407 0.9037 0.0
H186 H 0.52529 0.78346 0.11356 0.0
H187 H 0.51865 0.75665 0.10934 0.0
H188 H 0.50003 0.77496 0.13444 0.0
H189 H 0.52639 0.78669 0.899 0.0
H190 H 0.50146 0.79795 0.88844 0.0
H191 H 0.50479 0.77078 0.87821 0.0
H192 H 0.13022 0.21269 0.08328 0.0
H193 H 0.10308 0.22465 0.1451 0.0
H194 H 0.14943 0.24363 0.26046 0.0
H195 H 0.17643 0.23244 0.19874 0.0
H196 H 0.09156 0.21398 0.24264 0.0
H197 H 0.13516 0.2855 0.32885 0.0
H198 H 0.16047 0.31134 0.29765 0.0
H199 H 0.14129 0.30182 0.13281 0.0
H200 H 0.11567 0.27616 0.16307 0.0
H201 H 0.03996 0.24426 0.4799 0.0
H202 H 0.06718 0.23457 0.41604 0.0
H203 H 0.05672 0.29091 0.3266 0.0
H204 H 0.03086 0.30136 0.39347 0.0
H205 H 0.0947 0.28396 0.32409 0.0
H206 H 0.0358 0.24166 0.28799 0.0
H207 H 0.00773 0.21745 0.31063 0.0
H208 H 0.05219 0.17173 0.35791 0.0
H209 H 0.08053 0.19577 0.33613 0.0
C210 C 0.13459 0.21949 0.12175 0.0
C211 C 0.15549 0.22182 0.13577 0.0
C212 C 0.11908 0.22627 0.15708 0.0
C213 C 0.12422 0.23537 0.20705 0.0
C214 C 0.14506 0.23717 0.22158 0.0
C215 C 0.16051 0.23068 0.18618 0.0
C216 C 0.10794 0.2429 0.24452 0.0
C217 C 0.0922 0.22931 0.26027 0.0
C218 C 0.10848 0.26306 0.26673 0.0
C219 C 0.12362 0.27876 0.24825 0.0
C220 C 0.13627 0.289 0.28598 0.0
C221 C 0.15068 0.3036 0.26845 0.0
C222 C 0.15253 0.30817 0.21327 0.0
C223 C 0.1399 0.29822 0.17552 0.0
C224 C 0.12544 0.28363 0.19284 0.0
C225 C 0.04392 0.25478 0.44745 0.0
C226 C 0.03332 0.27352 0.44127 0.0
C227 C 0.05921 0.2491 0.41041 0.0
C228 C 0.06365 0.26172 0.3655 0.0
C229 C 0.05352 0.2808 0.36055 0.0
C230 C 0.03863 0.28669 0.39837 0.0
C231 C 0.07846 0.25493 0.323 0.0
C232 C 0.09398 0.26866 0.30632 0.0
C233 C 0.07725 0.23517 0.29849 0.0
C234 C 0.06027 0.22055 0.31075 0.0
C235 C 0.03958 0.22646 0.30339 0.0
C236 C 0.02362 0.21278 0.31608 0.0
C237 C 0.02817 0.19307 0.33577 0.0
C238 C 0.04869 0.18699 0.34266 0.0
C239 C 0.06471 0.20063 0.33008 0.0
H240 H 0.0158 0.1825 0.34561 0.0
H241 H 0.16372 0.31946 0.19978 0.0
H242 H 0.24848 0.66135 0.65551 0.0
H243 H 0.23983 0.63494 0.72205 0.0
H244 H 0.29882 0.60574 0.69579 0.0
H245 H 0.30737 0.63192 0.62758 0.0
H246 H 0.26979 0.57744 0.70806 0.0
H247 H 0.29034 0.63757 0.80623 0.0
H248 H 0.29029 0.67444 0.83109 0.0
H249 H 0.22663 0.67016 0.87789 0.0
H250 H 0.22621 0.63332 0.85257 0.0
H251 H 0.26134 0.51696 0.94702 0.0
H252 H 0.27443 0.54395 0.88582 0.0
H253 H 0.2143 0.57259 0.885 0.0
H254 H 0.20139 0.54551 0.94622 0.0
H255 H 0.24691 0.60108 0.88998 0.0
H256 H 0.22666 0.54087 0.78655 0.0
H257 H 0.22773 0.50377 0.76453 0.0
H258 H 0.29251 0.50825 0.73004 0.0
H259 H 0.2919 0.54534 0.75288 0.0
C260 C 0.25957 0.64923 0.66354 0.0
C261 C 0.27871 0.64884 0.63671 0.0
C262 C 0.25465 0.63419 0.70183 0.0
C263 C 0.26891 0.61869 0.71503 0.0
C264 C 0.28766 0.61768 0.68657 0.0
C265 C 0.29251 0.63261 0.64756 0.0
C266 C 0.26427 0.60385 0.75923 0.0
C267 C 0.26512 0.58262 0.74807 0.0
C268 C 0.25797 0.61059 0.81139 0.0
C269 C 0.25821 0.63271 0.8271 0.0
C270 C 0.27629 0.64452 0.8215 0.0
C271 C 0.27635 0.66541 0.83571 0.0
C272 C 0.25846 0.67464 0.85595 0.0
C273 C 0.24048 0.66299 0.86216 0.0
C274 C 0.24032 0.64209 0.84794 0.0
C275 C 0.25117 0.52928 0.93419 0.0
C276 C 0.2305 0.52944 0.95074 0.0
C277 C 0.25855 0.54458 0.89938 0.0
C278 C 0.24524 0.5601 0.88051 0.0
C279 C 0.22479 0.56075 0.8992 0.0
C280 C 0.21743 0.5454 0.93395 0.0
C281 C 0.25217 0.57482 0.8384 0.0
C282 C 0.25175 0.59597 0.85004 0.0
C283 C 0.25902 0.56802 0.78689 0.0
C284 C 0.25928 0.54584 0.77194 0.0
C285 C 0.24116 0.53392 0.77461 0.0
C286 C 0.24168 0.51289 0.76197 0.0
C287 C 0.26019 0.50365 0.74601 0.0
C288 C 0.2782 0.51543 0.74249 0.0
C289 C 0.27777 0.53646 0.75527 0.0
H290 H 0.26056 0.48736 0.73627 0.0
H291 H 0.25854 0.69082 0.86692 0.0
H292 H 0.86439 0.80239 0.1052 0.0
H293 H 0.89188 0.79199 0.16731 0.0
H294 H 0.85523 0.74014 0.22001 0.0
H295 H 0.82752 0.75067 0.15915 0.0
H296 H 0.87026 0.75934 0.30406 0.0
H297 H 0.89805 0.73414 0.13731 0.0
H298 H 0.90917 0.73592 0.0418 0.0
H299 H 0.95399 0.78215 0.08295 0.0
H300 H 0.94293 0.78086 0.17864 0.0
H301 H 0.95104 0.71128 0.45629 0.0
H302 H 0.92346 0.71872 0.39057 0.0
H303 H 0.95726 0.77211 0.33497 0.0
H304 H 0.98485 0.7643 0.3999 0.0
H305 H 0.94354 0.75051 0.25122 0.0
H306 H 0.9141 0.77554 0.41959 0.0
H307 H 0.90213 0.7727 0.51422 0.0
H308 H 0.85986 0.72474 0.46831 0.0
H309 H 0.87175 0.72712 0.37348 0.0
C310 C 0.86225 0.78867 0.12965 0.0
C311 C 0.84371 0.77743 0.12735 0.0
C312 C 0.87802 0.78269 0.165 0.0
C313 C 0.87568 0.76518 0.19805 0.0
C314 C 0.85735 0.75373 0.19503 0.0
C315 C 0.84153 0.75979 0.16013 0.0
C316 C 0.89188 0.75933 0.23769 0.0
C317 C 0.88624 0.7571 0.29232 0.0
C318 C 0.91278 0.75676 0.22258 0.0
C319 C 0.91952 0.75754 0.16508 0.0
C320 C 0.91017 0.7448 0.12593 0.0
C321 C 0.91648 0.74571 0.07177 0.0
C322 C 0.93224 0.75918 0.05629 0.0
C323 C 0.94176 0.77174 0.09498 0.0
C324 C 0.93549 0.77091 0.14921 0.0
C325 C 0.95233 0.72465 0.43016 0.0
C326 C 0.96989 0.73722 0.43252 0.0
C327 C 0.93666 0.72892 0.39278 0.0
C328 C 0.93825 0.74605 0.35799 0.0
C329 C 0.95575 0.75876 0.36113 0.0
C330 C 0.97143 0.75437 0.3981 0.0
C331 C 0.92191 0.75067 0.31761 0.0
C332 C 0.92754 0.75268 0.26284 0.0
C333 C 0.90095 0.75285 0.33247 0.0
C334 C 0.89394 0.75138 0.38957 0.0
C335 C 0.90238 0.76427 0.42977 0.0
C336 C 0.89559 0.76276 0.48342 0.0
C337 C 0.88029 0.7485 0.49721 0.0
C338 C 0.87173 0.73575 0.45749 0.0
C339 C 0.87847 0.73719 0.40382 0.0
H340 H 0.87498 0.74734 0.53858 0.0
H341 H 0.93711 0.75986 0.01433 0.0
H342 H 0.69446 0.36411 0.60388 0.0
H343 H 0.70167 0.39199 0.66808 0.0
H344 H 0.75267 0.35718 0.7335 0.0
H345 H 0.74542 0.32918 0.6704 0.0
H346 H 0.7302 0.37318 0.81342 0.0
H347 H 0.76029 0.39803 0.64722 0.0
H348 H 0.76051 0.40759 0.55041 0.0
H349 H 0.71349 0.45293 0.57967 0.0
H350 H 0.71279 0.44344 0.67659 0.0
H351 H 0.78562 0.45172 0.95108 0.0
H352 H 0.77506 0.42468 0.887 0.0
H353 H 0.72211 0.46116 0.84133 0.0
H354 H 0.73263 0.488 0.90627 0.0
H355 H 0.74325 0.44503 0.75278 0.0
H356 H 0.71545 0.42166 0.92166 0.0
H357 H 0.71744 0.41328 0.01902 0.0
H358 H 0.76141 0.3654 0.98527 0.0
H359 H 0.76006 0.37382 0.88772 0.0
C360 C 0.7073 0.36243 0.63166 0.0
C361 C 0.71936 0.34438 0.63185 0.0
C362 C 0.7114 0.3784 0.66836 0.0
C363 C 0.72778 0.37671 0.70546 0.0
C364 C 0.73989 0.35878 0.70546 0.0
C365 C 0.73576 0.34281 0.66908 0.0
C366 C 0.73237 0.39355 0.74447 0.0
C367 C 0.73323 0.38884 0.8001 0.0
C368 C 0.73588 0.41409 0.72724 0.0
C369 C 0.73633 0.41986 0.66903 0.0
C370 C 0.74988 0.40992 0.63293 0.0
C371 C 0.75011 0.41535 0.57805 0.0
C372 C 0.73697 0.43081 0.55887 0.0
C373 C 0.72362 0.44093 0.59457 0.0
C374 C 0.72331 0.43554 0.64948 0.0
C375 C 0.77162 0.45371 0.92777 0.0
C376 C 0.7598 0.47166 0.93346 0.0
C377 C 0.76565 0.43841 0.89112 0.0
C378 C 0.74773 0.4409 0.85974 0.0
C379 C 0.73599 0.45898 0.86513 0.0
C380 C 0.74194 0.47423 0.90202 0.0
C381 C 0.74127 0.42457 0.82138 0.0
C382 C 0.74005 0.42938 0.76602 0.0
C383 C 0.73751 0.40413 0.83886 0.0
C384 C 0.73777 0.39848 0.89731 0.0
C385 C 0.72564 0.40941 0.93498 0.0
C386 C 0.72666 0.40467 0.99024 0.0
C387 C 0.73957 0.38884 0.00835 0.0
C388 C 0.75142 0.37767 0.97118 0.0
C389 C 0.75053 0.38242 0.91588 0.0
H390 H 0.74037 0.38521 0.05115 0.0
H391 H 0.73718 0.43499 0.51637 0.0
H392 H 0.63339 0.2862 0.40213 0.0
H393 H 0.60764 0.27426 0.33674 0.0
H394 H 0.65532 0.24419 0.24376 0.0
H395 H 0.68116 0.25608 0.30843 0.0
H396 H 0.62966 0.26565 0.1787 0.0
H397 H 0.62369 0.21541 0.31742 0.0
H398 H 0.62017 0.20204 0.41054 0.0
H399 H 0.56097 0.23129 0.42497 0.0
H400 H 0.56427 0.24508 0.33209 0.0
H401 H 0.5533 0.21048 0.0186 0.0
H402 H 0.58269 0.21735 0.07938 0.0
H403 H 0.54436 0.25756 0.17581 0.0
H404 H 0.51544 0.25142 0.11407 0.0
H405 H 0.56733 0.22696 0.23633 0.0
H406 H 0.57632 0.27946 0.09716 0.0
H407 H 0.58064 0.29112 0.00268 0.0
H408 H 0.63536 0.2542 0.98755 0.0
H409 H 0.63126 0.2422 0.08199 0.0
C410 C 0.63841 0.27699 0.36792 0.0
C411 C 0.65937 0.2721 0.36071 0.0
C412 C 0.62366 0.27012 0.33066 0.0
C413 C 0.62958 0.25823 0.28559 0.0
C414 C 0.65044 0.25336 0.27822 0.0
C415 C 0.66517 0.26013 0.31547 0.0
C416 C 0.61398 0.25113 0.24579 0.0
C417 C 0.61621 0.25689 0.19116 0.0
C418 C 0.59644 0.23971 0.26203 0.0
C419 C 0.59432 0.23144 0.31793 0.0
C420 C 0.60999 0.21914 0.34059 0.0
C421 C 0.60803 0.21145 0.39331 0.0
C422 C 0.59038 0.21586 0.42372 0.0
C423 C 0.57464 0.22791 0.40139 0.0
C424 C 0.57654 0.23565 0.34866 0.0
C425 C 0.55133 0.22092 0.05252 0.0
C426 C 0.53215 0.23028 0.0623 0.0
C427 C 0.568 0.22474 0.08721 0.0
C428 C 0.56555 0.2378 0.13225 0.0
C429 C 0.54644 0.24724 0.14165 0.0
C430 C 0.52996 0.24368 0.10663 0.0
C431 C 0.58282 0.24191 0.16982 0.0
C432 C 0.58092 0.23553 0.22396 0.0
C433 C 0.60078 0.25245 0.15296 0.0
C434 C 0.60338 0.25979 0.09642 0.0
C435 C 0.5892 0.27373 0.07357 0.0
C436 C 0.59163 0.28043 0.02007 0.0
C437 C 0.60825 0.27339 0.98907 0.0
C438 C 0.62252 0.25968 0.01164 0.0
C439 C 0.62016 0.25293 0.06516 0.0
H440 H 0.61004 0.2785 0.94754 0.0
H441 H 0.58888 0.20989 0.46453 0.0
H442 H 0.24616 0.17014 0.82851 0.0
H443 H 0.25443 0.14301 0.76365 0.0
H444 H 0.20614 0.10489 0.8303 0.0
H445 H 0.19785 0.13191 0.89615 0.0
H446 H 0.24067 0.08276 0.80989 0.0
H447 H 0.19848 0.13144 0.71358 0.0
H448 H 0.18843 0.16582 0.67981 0.0
H449 H 0.24557 0.17051 0.5926 0.0
H450 H 0.2561 0.13626 0.6265 0.0
H451 H 0.22966 0.01149 0.59777 0.0
H452 H 0.22234 0.04004 0.66007 0.0
H453 H 0.27345 0.07428 0.59303 0.0
H454 H 0.28071 0.04547 0.53048 0.0
H455 H 0.23874 0.0987 0.61297 0.0
H456 H 0.28029 0.04923 0.70743 0.0
H457 H 0.28952 0.01437 0.73932 0.0
H458 H 0.23297 0.01098 0.82957 0.0
H459 H 0.2232 0.04568 0.79735 0.0
C460 C 0.2373 0.15598 0.8297 0.0
C461 C 0.22119 0.15331 0.86734 0.0
C462 C 0.24203 0.1405 0.79237 0.0
C463 C 0.23065 0.1221 0.79153 0.0
C464 C 0.21503 0.11904 0.83014 0.0
C465 C 0.21031 0.13452 0.8677 0.0
C466 C 0.23489 0.10619 0.74983 0.0
C467 C 0.24 0.08618 0.76685 0.0
C468 C 0.2345 0.11082 0.69366 0.0
C469 C 0.22817 0.13138 0.67303 0.0
C470 C 0.20898 0.13987 0.68755 0.0
C471 C 0.20318 0.15932 0.66833 0.0
C472 C 0.21637 0.17037 0.6342 0.0
C473 C 0.23538 0.16195 0.6191 0.0
C474 C 0.24126 0.14252 0.63828 0.0
C475 C 0.23921 0.02519 0.59643 0.0
C476 C 0.25587 0.02637 0.56033 0.0
C477 C 0.23505 0.04143 0.63178 0.0
C478 C 0.2476 0.05908 0.63176 0.0
C479 C 0.26367 0.06072 0.59378 0.0
C480 C 0.26782 0.04438 0.55826 0.0
C481 C 0.24435 0.0753 0.67312 0.0
C482 C 0.23947 0.09534 0.65604 0.0
C483 C 0.24491 0.07071 0.72924 0.0
C484 C 0.25094 0.05 0.7496 0.0
C485 C 0.26975 0.041 0.73379 0.0
C486 C 0.27509 0.02127 0.75194 0.0
C487 C 0.26183 0.01045 0.78637 0.0
C488 C 0.24322 0.01937 0.80285 0.0
C489 C 0.23778 0.03908 0.78468 0.0
H490 H 0.26598 0.99517 0.80036 0.0
H491 H 0.21186 0.18542 0.61935 0.0
H492 H 0.32774 0.7443 0.33633 0.0
H493 H 0.35448 0.7537 0.27144 0.0
H494 H 0.39312 0.70453 0.33135 0.0
H495 H 0.36653 0.69518 0.39735 0.0
H496 H 0.41525 0.73874 0.31371 0.0
H497 H 0.36591 0.69909 0.21338 0.0
H498 H 0.33139 0.68965 0.17948 0.0
H499 H 0.32598 0.74862 0.10132 0.0
H500 H 0.36037 0.75854 0.13543 0.0
H501 H 0.48486 0.73696 0.09325 0.0
H502 H 0.45756 0.7263 0.1562 0.0
H503 H 0.42052 0.7782 0.1056 0.0
H504 H 0.44805 0.78888 0.04281 0.0
H505 H 0.39771 0.74219 0.11788 0.0
H506 H 0.44743 0.78156 0.21914 0.0
H507 H 0.48243 0.79014 0.25113 0.0
H508 H 0.48739 0.73065 0.32671 0.0
H509 H 0.45254 0.72155 0.29427 0.0
C510 C 0.34194 0.73549 0.33599 0.0
C511 C 0.3449 0.71884 0.37184 0.0
C512 C 0.35719 0.74085 0.29863 0.0
C513 C 0.37563 0.72957 0.29581 0.0
C514 C 0.37895 0.71338 0.33265 0.0
C515 C 0.36373 0.70805 0.37033 0.0
C516 C 0.39132 0.73458 0.25404 0.0
C517 C 0.41148 0.73921 0.27085 0.0
C518 C 0.3863 0.73558 0.19815 0.0
C519 C 0.36564 0.72963 0.17741 0.0
C520 C 0.3573 0.71011 0.18932 0.0
C521 C 0.33776 0.70466 0.17001 0.0
C522 C 0.32648 0.71854 0.13838 0.0
C523 C 0.33473 0.73789 0.12589 0.0
C524 C 0.35425 0.74343 0.14516 0.0
C525 C 0.47086 0.74602 0.09584 0.0
C526 C 0.46855 0.76392 0.06442 0.0
C527 C 0.45531 0.73994 0.1315 0.0
C528 C 0.4372 0.75169 0.1362 0.0
C529 C 0.43444 0.76901 0.10274 0.0
C530 C 0.45007 0.7751 0.06708 0.0
C531 C 0.42156 0.74634 0.17765 0.0
C532 C 0.40144 0.74168 0.16077 0.0
C533 C 0.42663 0.74522 0.23343 0.0
C534 C 0.44744 0.7508 0.25384 0.0
C535 C 0.45604 0.77025 0.24226 0.0
C536 C 0.47585 0.77521 0.26049 0.0
C537 C 0.48715 0.76093 0.29083 0.0
C538 C 0.47863 0.74168 0.30314 0.0
C539 C 0.45884 0.73662 0.28486 0.0
H540 H 0.50248 0.7648 0.3049 0.0
H541 H 0.31136 0.71429 0.12346 0.0
H542 H 0.80342 0.85963 0.86108 0.0
H543 H 0.79199 0.88628 0.79778 0.0
H544 H 0.73188 0.85773 0.78935 0.0
H545 H 0.74361 0.83048 0.85048 0.0
H546 H 0.74139 0.86868 0.69451 0.0
H547 H 0.74179 0.90298 0.86303 0.0
H548 H 0.75526 0.91458 0.9513 0.0
H549 H 0.80256 0.94945 0.87086 0.0
H550 H 0.78967 0.93761 0.78196 0.0
H551 H 0.69557 0.95937 0.5734 0.0
H552 H 0.70405 0.93222 0.63978 0.0
H553 H 0.76882 0.94571 0.61999 0.0
H554 H 0.76019 0.97277 0.55379 0.0
H555 H 0.75453 0.94282 0.73102 0.0
H556 H 0.74716 0.90808 0.55767 0.0
H557 H 0.72748 0.89752 0.47701 0.0
H558 H 0.68494 0.86417 0.57741 0.0
H559 H 0.70388 0.8752 0.65911 0.0
C560 C 0.78775 0.85911 0.84592 0.0
C561 C 0.77439 0.84302 0.86085 0.0
C562 C 0.78118 0.8744 0.80985 0.0
C563 C 0.76094 0.87425 0.78929 0.0
C564 C 0.74757 0.8582 0.80444 0.0
C565 C 0.75427 0.84267 0.83956 0.0
C566 C 0.75381 0.89067 0.75153 0.0
C567 C 0.744 0.8849 0.70296 0.0
C568 C 0.75709 0.91189 0.76247 0.0
C569 C 0.76488 0.91923 0.81579 0.0
C570 C 0.75517 0.91299 0.86413 0.0
C571 C 0.7627 0.91963 0.91431 0.0
C572 C 0.77977 0.93275 0.91674 0.0
C573 C 0.78935 0.93927 0.86893 0.0
C574 C 0.78194 0.93258 0.8186 0.0
C575 C 0.71155 0.95634 0.5834 0.0
C576 C 0.72731 0.96788 0.55902 0.0
C577 C 0.71638 0.94098 0.62111 0.0
C578 C 0.73705 0.93706 0.63476 0.0
C579 C 0.75279 0.94861 0.61013 0.0
C580 C 0.74793 0.96384 0.57222 0.0
C581 C 0.74243 0.92072 0.67414 0.0
C582 C 0.75189 0.92657 0.72295 0.0
C583 C 0.73797 0.89966 0.66438 0.0
C584 C 0.72691 0.89265 0.61479 0.0
C585 C 0.73352 0.89867 0.56278 0.0
C586 C 0.72246 0.89261 0.51678 0.0
C587 C 0.705 0.88016 0.52202 0.0
C588 C 0.69849 0.87381 0.57337 0.0
C589 C 0.70935 0.88002 0.61958 0.0
H590 H 0.69652 0.87543 0.48629 0.0
H591 H 0.78555 0.9379 0.95565 0.0
H592 H 0.86512 0.79747 0.89364 0.0
H593 H 0.89208 0.78787 0.82913 0.0
H594 H 0.85118 0.74332 0.75608 0.0
H595 H 0.82401 0.75302 0.8196 0.0
H596 H 0.91235 0.75276 0.80616 0.0
H597 H 0.85743 0.74216 0.6263 0.0
H598 H 0.82424 0.75561 0.5922 0.0
H599 H 0.83498 0.81308 0.67437 0.0
H600 H 0.8684 0.80006 0.70806 0.0
H601 H 0.96871 0.7053 0.59548 0.0
H602 H 0.94054 0.71337 0.6586 0.0
H603 H 0.93435 0.77363 0.5857 0.0
H604 H 0.96241 0.76535 0.52241 0.0
H605 H 0.89744 0.7582 0.60934 0.0
H606 H 0.96156 0.76699 0.7018 0.0
H607 H 0.99598 0.75652 0.73426 0.0
H608 H 0.96873 0.7079 0.82843 0.0
H609 H 0.93415 0.71784 0.79569 0.0
C610 C 0.86185 0.78556 0.86404 0.0
C611 C 0.84228 0.77618 0.86153 0.0
C612 C 0.87733 0.78005 0.82729 0.0
C613 C 0.87354 0.76511 0.78732 0.0
C614 C 0.8543 0.75518 0.78595 0.0
C615 C 0.8388 0.76072 0.82246 0.0
C616 C 0.88947 0.76033 0.74601 0.0
C617 C 0.90907 0.75383 0.7631 0.0
C618 C 0.88533 0.76215 0.68989 0.0
C619 C 0.86538 0.77016 0.66948 0.0
C620 C 0.85278 0.75773 0.63658 0.0
C621 C 0.83392 0.76526 0.61746 0.0
C622 C 0.82751 0.7852 0.6311 0.0
C623 C 0.83996 0.79765 0.66384 0.0
C624 C 0.85886 0.79021 0.68293 0.0
C625 C 0.96109 0.72013 0.59285 0.0
C626 C 0.96762 0.73477 0.55465 0.0
C627 C 0.94512 0.72478 0.62883 0.0
C628 C 0.9356 0.74425 0.62751 0.0
C629 C 0.94151 0.75854 0.58754 0.0
C630 C 0.95745 0.75383 0.55141 0.0
C631 C 0.92014 0.75003 0.66921 0.0
C632 C 0.90065 0.75685 0.65226 0.0
C633 C 0.92454 0.74885 0.72543 0.0
C634 C 0.94528 0.74305 0.74589 0.0
C635 C 0.96291 0.75398 0.72915 0.0
C636 C 0.98245 0.74815 0.74761 0.0
C637 C 0.98454 0.73153 0.7833 0.0
C638 C 0.96709 0.72075 0.80072 0.0
C639 C 0.94751 0.72648 0.78224 0.0
H640 H -0.00031 0.72703 0.79755 0.0
H641 H 0.81288 0.79099 0.61634 0.0
H642 H 0.69256 0.35944 0.37443 0.0
H643 H 0.70064 0.38615 0.30735 0.0
H644 H 0.75952 0.35743 0.27687 0.0
H645 H 0.75159 0.33066 0.34341 0.0
H646 H 0.76179 0.40037 0.2878 0.0
H647 H 0.72245 0.34948 0.19007 0.0
H648 H 0.69248 0.32696 0.17306 0.0
H649 H 0.65302 0.38005 0.16268 0.0
H650 H 0.68273 0.40289 0.18046 0.0
H651 H 0.79031 0.45325 0.05091 0.0
H652 H 0.78085 0.42446 0.11084 0.0
H653 H 0.71967 0.45 0.128 0.0
H654 H 0.72914 0.47834 0.06645 0.0
H655 H 0.71807 0.40861 0.12391 0.0
H656 H 0.75662 0.45957 0.22158 0.0
H657 H 0.78613 0.48265 0.2389 0.0
H658 H 0.82645 0.43027 0.25135 0.0
H659 H 0.79721 0.40687 0.23314 0.0
C660 C 0.7073 0.35892 0.35383 0.0
C661 C 0.72139 0.34287 0.36411 0.0
C662 C 0.71183 0.37411 0.3153 0.0
C663 C 0.73058 0.37361 0.28682 0.0
C664 C 0.74494 0.35803 0.2983 0.0
C665 C 0.74034 0.34273 0.33626 0.0
C666 C 0.73521 0.38916 0.24452 0.0
C667 C 0.7524 0.40202 0.25162 0.0
C668 C 0.72264 0.39158 0.19801 0.0
C669 C 0.70477 0.37788 0.18725 0.0
C670 C 0.70735 0.35635 0.18468 0.0
C671 C 0.69041 0.34352 0.17479 0.0
C672 C 0.67085 0.35206 0.16697 0.0
C673 C 0.66818 0.37346 0.16886 0.0
C674 C 0.68507 0.38635 0.17881 0.0
C675 C 0.77475 0.45228 0.06663 0.0
C676 C 0.76034 0.46767 0.05438 0.0
C677 C 0.76938 0.43603 0.10105 0.0
C678 C 0.74965 0.43529 0.12464 0.0
C679 C 0.73497 0.45028 0.11037 0.0
C680 C 0.74033 0.46642 0.07554 0.0
C681 C 0.74478 0.41974 0.1669 0.0
C682 C 0.72751 0.40695 0.15997 0.0
C683 C 0.7572 0.41746 0.21382 0.0
C684 C 0.77476 0.43148 0.22549 0.0
C685 C 0.7718 0.45298 0.22765 0.0
C686 C 0.78848 0.46612 0.23765 0.0
C687 C 0.80816 0.45794 0.24611 0.0
C688 C 0.8112 0.43659 0.24472 0.0
C689 C 0.79458 0.42338 0.23457 0.0
H690 H 0.82105 0.46814 0.25385 0.0
H691 H 0.65775 0.34211 0.1593 0.0
H692 H 0.17606 0.24778 0.82994 0.0
H693 H 0.15004 0.25881 0.76475 0.0
H694 H 0.1086 0.21172 0.82313 0.0
H695 H 0.13466 0.20039 0.8886 0.0
H696 H 0.11125 0.21293 0.71069 0.0
H697 H 0.10085 0.26087 0.85803 0.0
H698 H 0.11181 0.2869 0.92512 0.0
H699 H 0.13165 0.32699 0.79667 0.0
H700 H 0.12107 0.30107 0.72879 0.0
H701 H 0.01708 0.24587 0.59862 0.0
H702 H 0.04537 0.23608 0.65917 0.0
H703 H 0.08206 0.28635 0.59674 0.0
H704 H 0.0533 0.29638 0.53679 0.0
H705 H 0.08354 0.28434 0.70722 0.0
H706 H 0.09299 0.23813 0.55955 0.0
H707 H 0.0827 0.21259 0.49055 0.0
H708 H 0.06591 0.16979 0.61589 0.0
H709 H 0.07587 0.19517 0.68576 0.0
C710 C 0.1614 0.23976 0.82922 0.0
C711 C 0.15747 0.22317 0.86462 0.0
C712 C 0.14652 0.24616 0.79196 0.0
C713 C 0.12737 0.23615 0.78933 0.0
C714 C 0.12331 0.21964 0.82459 0.0
C715 C 0.13818 0.21326 0.86215 0.0
C716 C 0.11171 0.24277 0.74918 0.0
C717 C 0.10498 0.22846 0.71032 0.0
C718 C 0.10416 0.26326 0.74757 0.0
C719 C 0.11035 0.27894 0.78835 0.0
C720 C 0.1077 0.27517 0.8441 0.0
C721 C 0.11381 0.28992 0.88227 0.0
C722 C 0.12247 0.30857 0.86517 0.0
C723 C 0.12497 0.31253 0.80985 0.0
C724 C 0.11889 0.29782 0.77151 0.0
C725 C 0.03117 0.25483 0.59827 0.0
C726 C 0.03312 0.27195 0.5639 0.0
C727 C 0.04736 0.24917 0.63234 0.0
C728 C 0.06587 0.26041 0.63217 0.0
C729 C 0.06789 0.27749 0.59747 0.0
C730 C 0.05162 0.28316 0.56326 0.0
C731 C 0.08283 0.2544 0.6692 0.0
C732 C 0.08987 0.26883 0.7074 0.0
C733 C 0.09082 0.23407 0.66986 0.0
C734 C 0.08504 0.21863 0.62796 0.0
C735 C 0.08697 0.22333 0.57245 0.0
C736 C 0.08121 0.20888 0.53316 0.0
C737 C 0.07359 0.18961 0.54881 0.0
C738 C 0.0718 0.18473 0.60382 0.0
C739 C 0.07753 0.19913 0.6433 0.0
H740 H 0.06913 0.17845 0.51832 0.0
H741 H 0.12721 0.31996 0.89479 0.0
H742 H 0.25176 0.66971 0.33617 0.0
H743 H 0.24105 0.64284 0.27296 0.0
H744 H 0.29041 0.60367 0.32909 0.0
H745 H 0.3014 0.63058 0.39269 0.0
H746 H 0.28714 0.60554 0.21545 0.0
H747 H 0.24293 0.59389 0.36986 0.0
H748 H 0.21803 0.60417 0.44048 0.0
H749 H 0.17449 0.62195 0.31778 0.0
H750 H 0.19927 0.61205 0.24638 0.0
H751 H 0.25385 0.51121 0.10044 0.0
H752 H 0.26442 0.53853 0.16364 0.0
H753 H 0.21249 0.57551 0.11275 0.0
H754 H 0.20181 0.54784 0.05029 0.0
H755 H 0.21683 0.5753 0.22266 0.0
H756 H 0.25923 0.587 0.06842 0.0
H757 H 0.28325 0.57746 0.99511 0.0
H758 H 0.32937 0.5614 0.11284 0.0
H759 H 0.30545 0.57044 0.18698 0.0
C760 C 0.26037 0.65539 0.33531 0.0
C761 C 0.27745 0.65231 0.36967 0.0
C762 C 0.25417 0.64003 0.29919 0.0
C763 C 0.26487 0.62125 0.29663 0.0
C764 C 0.28196 0.61808 0.33056 0.0
C765 C 0.28813 0.63343 0.36705 0.0
C766 C 0.25818 0.605 0.25825 0.0
C767 C 0.27189 0.59868 0.21745 0.0
C768 C 0.23802 0.59664 0.25988 0.0
C769 C 0.22303 0.6024 0.30278 0.0
C770 C 0.22811 0.60014 0.35793 0.0
C771 C 0.214 0.60587 0.3981 0.0
C772 C 0.19471 0.61376 0.38363 0.0
C773 C 0.18945 0.61586 0.32893 0.0
C774 C 0.20351 0.61017 0.2886 0.0
C775 C 0.24476 0.52519 0.10318 0.0
C776 C 0.22709 0.52764 0.07108 0.0
C777 C 0.2508 0.54078 0.13885 0.0
C778 C 0.23931 0.5591 0.14253 0.0
C779 C 0.22156 0.56149 0.11046 0.0
C780 C 0.21555 0.54586 0.07472 0.0
C781 C 0.24585 0.57568 0.18012 0.0
C782 C 0.2321 0.58212 0.22065 0.0
C783 C 0.26588 0.58434 0.1778 0.0
C784 C 0.28047 0.57922 0.13333 0.0
C785 C 0.27444 0.58129 0.07873 0.0
C786 C 0.28804 0.57598 0.03701 0.0
C787 C 0.30782 0.56879 0.04932 0.0
C788 C 0.31404 0.56695 0.10338 0.0
C789 C 0.30047 0.57217 0.14528 0.0
H790 H 0.31833 0.56469 0.01697 0.0
H791 H 0.18381 0.6182 0.41478 0.0
H792 H 0.32321 0.72278 0.7106 0.0
H793 H 0.35033 0.73445 0.77179 0.0
H794 H 0.39538 0.72675 0.6444 0.0
H795 H 0.3683 0.71406 0.58357 0.0
H796 H 0.41141 0.71421 0.73236 0.0
H797 H 0.37605 0.77559 0.68393 0.0
H798 H 0.34626 0.79862 0.66956 0.0
H799 H 0.33221 0.79638 0.83965 0.0
H800 H 0.36175 0.77308 0.85495 0.0
H801 H 0.46547 0.79965 0.90649 0.0
H802 H 0.43917 0.78985 0.83977 0.0
H803 H 0.43756 0.72837 0.90731 0.0
H804 H 0.46489 0.7379 0.97124 0.0
H805 H 0.40166 0.77783 0.84153 0.0
H806 H 0.42894 0.6929 0.81122 0.0
H807 H 0.46131 0.67291 0.81535 0.0
H808 H 0.49624 0.7279 0.78351 0.0
H809 H 0.46409 0.74814 0.77833 0.0
C810 C 0.33889 0.72359 0.69556 0.0
C811 C 0.34362 0.71764 0.64216 0.0
C812 C 0.35439 0.73038 0.73053 0.0
C813 C 0.37487 0.73196 0.71246 0.0
C814 C 0.37969 0.72575 0.65929 0.0
C815 C 0.36421 0.71853 0.62453 0.0
C816 C 0.39121 0.73982 0.74942 0.0
C817 C 0.40928 0.72816 0.75608 0.0
C818 C 0.38876 0.75834 0.77941 0.0
C819 C 0.37103 0.77245 0.7705 0.0
C820 C 0.36653 0.7799 0.71822 0.0
C821 C 0.3497 0.79301 0.70991 0.0
C822 C 0.33733 0.79892 0.75364 0.0
C823 C 0.3418 0.79177 0.8058 0.0
C824 C 0.3586 0.77863 0.81433 0.0
C825 C 0.45956 0.78403 0.90648 0.0
C826 C 0.46731 0.76941 0.94313 0.0
C827 C 0.44442 0.77848 0.86887 0.0
C828 C 0.43666 0.75824 0.86772 0.0
C829 C 0.44366 0.74393 0.90645 0.0
C830 C 0.45904 0.74942 0.9434 0.0
C831 C 0.4216 0.75196 0.82534 0.0
C832 C 0.4038 0.76393 0.81766 0.0
C833 C 0.42469 0.73419 0.79279 0.0
C834 C 0.4441 0.72206 0.79491 0.0
C835 C 0.44352 0.7007 0.80483 0.0
C836 C 0.46183 0.68933 0.80739 0.0
C837 C 0.48082 0.69914 0.79986 0.0
C838 C 0.48153 0.72033 0.78951 0.0
C839 C 0.46327 0.73176 0.78679 0.0
H840 H 0.49497 0.69031 0.80194 0.0
H841 H 0.3243 0.80908 0.74712 0.0
H842 H 0.75617 0.82993 0.17458 0.0
H843 H 0.74951 0.85739 0.23973 0.0
H844 H 0.79497 0.89574 0.16122 0.0
H845 H 0.80158 0.86836 0.09504 0.0
H846 H 0.77548 0.87385 0.31212 0.0
H847 H 0.78113 0.94699 0.18105 0.0
H848 H 0.77559 0.95832 0.08662 0.0
H849 H 0.73104 0.91005 0.06369 0.0
H850 H 0.73611 0.89861 0.1582 0.0
H851 H 0.76468 0.98739 0.41619 0.0
H852 H 0.77798 0.96091 0.35411 0.0
H853 H 0.7275 0.92086 0.39745 0.0
H854 H 0.71374 0.94769 0.45796 0.0
H855 H 0.75372 0.94497 0.26483 0.0
H856 H 0.75309 0.86872 0.39443 0.0
H857 H 0.76101 0.85718 0.48734 0.0
H858 H 0.79664 0.91205 0.51461 0.0
H859 H 0.78965 0.92358 0.42131 0.0
C860 C 0.76468 0.84424 0.17072 0.0
C861 C 0.77947 0.84688 0.12952 0.0
C862 C 0.76088 0.85991 0.20821 0.0
C863 C 0.77172 0.87862 0.20538 0.0
C864 C 0.78626 0.88151 0.16384 0.0
C865 C 0.79003 0.86582 0.12606 0.0
C866 C 0.76807 0.89473 0.2471 0.0
C867 C 0.77042 0.88934 0.30194 0.0
C868 C 0.76238 0.91517 0.23349 0.0
C869 C 0.75919 0.92181 0.17653 0.0
C870 C 0.77014 0.93881 0.15587 0.0
C871 C 0.76707 0.94526 0.10235 0.0
C872 C 0.753 0.93489 0.06918 0.0
C873 C 0.74198 0.91803 0.08941 0.0
C874 C 0.74497 0.91153 0.14293 0.0
C875 C 0.75645 0.97294 0.41223 0.0
C876 C 0.73795 0.96968 0.44061 0.0
C877 C 0.76411 0.95781 0.37722 0.0
C878 C 0.75371 0.93896 0.37137 0.0
C879 C 0.73584 0.93524 0.40196 0.0
C880 C 0.728 0.95051 0.43634 0.0
C881 C 0.76046 0.92387 0.32995 0.0
C882 C 0.75878 0.92949 0.27515 0.0
C883 C 0.7668 0.90365 0.3437 0.0
C884 C 0.77052 0.89721 0.40081 0.0
C885 C 0.76269 0.87832 0.42008 0.0
C886 C 0.76714 0.8717 0.47278 0.0
C887 C 0.77936 0.88385 0.50681 0.0
C888 C 0.78715 0.90266 0.48822 0.0
C889 C 0.78291 0.90927 0.4354 0.0
H890 H 0.78268 0.87875 0.54769 0.0
H891 H 0.75057 0.93999 0.02789 0.0
H892 H 0.63201 0.28078 0.58244 0.0
H893 H 0.60541 0.27197 0.64905 0.0
H894 H 0.65263 0.25972 0.76829 0.0
H895 H 0.67914 0.2675 0.70146 0.0
H896 H 0.62532 0.23254 0.77947 0.0
H897 H 0.62299 0.30599 0.76533 0.0
H898 H 0.62029 0.33965 0.71914 0.0
H899 H 0.55974 0.3238 0.66194 0.0
H900 H 0.5622 0.28994 0.70723 0.0
H901 H 0.53692 0.26322 0.98029 0.0
H902 H 0.56534 0.27306 0.91922 0.0
H903 H 0.55695 0.21639 0.82984 0.0
H904 H 0.52872 0.20666 0.89098 0.0
H905 H 0.5664 0.27987 0.81154 0.0
H906 H 0.60492 0.19851 0.79037 0.0
H907 H 0.60999 0.16733 0.84619 0.0
H908 H 0.60248 0.20327 0.99124 0.0
H909 H 0.59762 0.23463 0.93641 0.0
C910 C 0.63668 0.27608 0.62278 0.0
C911 C 0.65767 0.27485 0.63663 0.0
C912 C 0.62147 0.27119 0.66098 0.0
C913 C 0.62696 0.26552 0.71416 0.0
C914 C 0.64794 0.264 0.72764 0.0
C915 C 0.66311 0.26848 0.68928 0.0
C916 C 0.61096 0.2612 0.75596 0.0
C917 C 0.61244 0.2429 0.78635 0.0
C918 C 0.59444 0.27498 0.76633 0.0
C919 C 0.59286 0.29536 0.73927 0.0
C920 C 0.60916 0.30964 0.74261 0.0
C921 C 0.60766 0.32876 0.71663 0.0
C922 C 0.58987 0.33384 0.68752 0.0
C923 C 0.57352 0.31984 0.68446 0.0
C924 C 0.57495 0.30069 0.71032 0.0
C925 C 0.54138 0.25291 0.94776 0.0
C926 C 0.53092 0.23419 0.94005 0.0
C927 C 0.55744 0.25853 0.9129 0.0
C928 C 0.56337 0.24536 0.8704 0.0
C929 C 0.5528 0.22667 0.86275 0.0
C930 C 0.53671 0.22114 0.89736 0.0
C931 C 0.58058 0.25104 0.83376 0.0
C932 C 0.57932 0.26956 0.80452 0.0
C933 C 0.59768 0.23782 0.82578 0.0
C934 C 0.60078 0.21895 0.85913 0.0
C935 C 0.60446 0.19979 0.83416 0.0
C936 C 0.60727 0.18206 0.86566 0.0
C937 C 0.60651 0.18331 0.92222 0.0
C938 C 0.60301 0.2023 0.94743 0.0
C939 C 0.60021 0.22005 0.91614 0.0
H940 H 0.60868 0.16956 0.9465 0.0
H941 H 0.58875 0.34865 0.66743 0.0
H942 H 0.23084 0.17286 0.20067 0.0
H943 H 0.23952 0.14464 0.26174 0.0
H944 H 0.21968 0.10055 0.14125 0.0
H945 H 0.2101 0.12889 0.08053 0.0
H946 H 0.20682 0.08844 0.23408 0.0
H947 H 0.27209 0.11048 0.16836 0.0
H948 H 0.29984 0.13506 0.14586 0.0
H949 H 0.30592 0.15107 0.31413 0.0
H950 H 0.278 0.12678 0.33758 0.0
H951 H 0.28636 0.02045 0.3926 0.0
H952 H 0.27893 0.04735 0.32553 0.0
H953 H 0.22196 0.06135 0.40854 0.0
H954 H 0.22887 0.03352 0.47337 0.0
H955 H 0.27461 0.0865 0.32747 0.0
H956 H 0.18545 0.07657 0.32046 0.0
H957 H 0.15962 0.04902 0.33318 0.0
H958 H 0.20491 0.00327 0.29192 0.0
H959 H 0.23092 0.03055 0.27819 0.0
C960 C 0.2284 0.15715 0.18697 0.0
C961 C 0.2199 0.1531 0.13558 0.0
C962 C 0.23346 0.14101 0.22192 0.0
C963 C 0.23065 0.12042 0.20579 0.0
C964 C 0.22204 0.1163 0.15458 0.0
C965 C 0.21661 0.1325 0.11987 0.0
C966 C 0.23638 0.10328 0.2429 0.0
C967 C 0.22167 0.088 0.25435 0.0
C968 C 0.25594 0.10237 0.26851 0.0
C969 C 0.27283 0.11692 0.25466 0.0
C970 C 0.27925 0.11934 0.20053 0.0
C971 C 0.29502 0.13321 0.18761 0.0
C972 C 0.3046 0.14465 0.22852 0.0
C973 C 0.29847 0.14221 0.28247 0.0
C974 C 0.28269 0.12837 0.29561 0.0
C975 C 0.27224 0.02927 0.39608 0.0
C976 C 0.25812 0.02494 0.43766 0.0
C977 C 0.26806 0.0447 0.35814 0.0
C978 C 0.24973 0.05619 0.36142 0.0
C979 C 0.23599 0.05241 0.40443 0.0
C980 C 0.24004 0.03674 0.44187 0.0
C981 C 0.2449 0.07189 0.31938 0.0
C982 C 0.25978 0.08691 0.30706 0.0
C983 C 0.2258 0.07211 0.29146 0.0
C984 C 0.21017 0.05561 0.29883 0.0
C985 C 0.18987 0.06064 0.31387 0.0
C986 C 0.1752 0.04507 0.32129 0.0
C987 C 0.18064 0.02441 0.31353 0.0
C988 C 0.20074 0.01927 0.2981 0.0
C989 C 0.21545 0.03478 0.29054 0.0
H990 H 0.16927 0.01238 0.31936 0.0
H991 H 0.31681 0.15538 0.21843 0.0
H992 H 0.21933 0.28466 0.91437 0.0
H993 H 0.21789 0.32227 0.91324 0.0
H994 H 0.21445 0.32314 0.08795 0.0
H995 H 0.21612 0.28549 0.08974 0.0
H996 H 0.18933 0.34953 0.94833 0.0
H997 H 0.24247 0.36483 0.13284 0.0
H998 H 0.27125 0.34799 0.18117 0.0
H999 H 0.28829 0.31588 0.03555 0.0
H1000 H 0.25991 0.33283 0.98611 0.0
H1001 H 0.1836 0.45507 0.03064 0.0
H1002 H 0.1836 0.41709 0.02907 0.0
H1003 H 0.24582 0.41763 0.96651 0.0
H1004 H 0.24581 0.4555 0.96936 0.0
H1005 H 0.24205 0.39044 0.04713 0.0
H1006 H 0.20548 0.40736 0.88436 0.0
H1007 H 0.17849 0.42395 0.82902 0.0
H1008 H 0.13169 0.39145 0.91783 0.0
H1009 H 0.1584 0.37491 0.97433 0.0
C1010 C 0.21827 0.2928 0.95265 0.0
C1011 C 0.21802 0.28202 0.00221 0.0
C1012 C 0.21734 0.3143 0.95184 0.0
C1013 C 0.21624 0.32545 1.00048 0.0
C1014 C 0.21556 0.31479 0.04998 0.0
C1015 C 0.2165 0.29327 0.05088 0.0
C1016 C 0.21628 0.34827 0.99936 0.0
C1017 C 0.2008 0.3585 0.97005 0.0
C1018 C 0.2315 0.3599 0.02691 0.0
C1019 C 0.2489 0.34993 0.05598 0.0
C1020 C 0.25243 0.35426 0.11109 0.0
C1021 C 0.26868 0.3447 0.13866 0.0
C1022 C 0.28156 0.33084 0.11147 0.0
C1023 C 0.27829 0.32659 0.05659 0.0
C1024 C 0.26211 0.33615 0.02878 0.0
C1025 C 0.19718 0.44691 0.01665 0.0
C1026 C 0.21469 0.45789 1.00004 0.0
C1027 C 0.19717 0.42535 0.01547 0.0
C1028 C 0.21468 0.41458 0.99734 0.0
C1029 C 0.23217 0.42565 0.98065 0.0
C1030 C 0.23215 0.44716 0.98191 0.0
C1031 C 0.21496 0.39175 0.99656 0.0
C1032 C 0.2305 0.38149 0.02562 0.0
C1033 C 0.20005 0.38012 0.96785 0.0
C1034 C 0.18394 0.39007 0.93397 0.0
C1035 C 0.18943 0.4039 0.89243 0.0
C1036 C 0.17418 0.41327 0.8608 0.0
C1037 C 0.15338 0.4088 0.87001 0.0
C1038 C 0.1478 0.39492 0.91081 0.0
C1039 C 0.16299 0.38554 0.94264 0.0
H1040 H 0.1416 0.41606 0.84544 0.0
H1041 H 0.29411 0.32342 0.13291 0.0
H1042 H 0.21285 0.73088 0.43146 0.0
H1043 H 0.17506 0.7315 0.43306 0.0
H1044 H 0.17512 0.69354 0.57665 0.0
H1045 H 0.21296 0.69327 0.57627 0.0
H1046 H 0.14569 0.68241 0.48376 0.0
H1047 H 0.16734 0.73731 0.60355 0.0
H1048 H 0.18718 0.76843 0.62779 0.0
H1049 H 0.15826 0.8019 0.49816 0.0
H1050 H 0.13861 0.7708 0.47224 0.0
H1051 H 0.03977 0.69624 0.55149 0.0
H1052 H 0.07745 0.69268 0.55565 0.0
H1053 H 0.08397 0.74605 0.45216 0.0
H1054 H 0.04647 0.75023 0.45096 0.0
H1055 H 0.11071 0.74837 0.52881 0.0
H1056 H 0.0899 0.69499 0.40557 0.0
H1057 H 0.0706 0.66426 0.37539 0.0
H1058 H 0.09786 0.62851 0.50333 0.0
H1059 H 0.11712 0.65912 0.53476 0.0
C1060 C 0.20481 0.72252 0.46311 0.0
C1061 C 0.21581 0.7121 0.50389 0.0
C1062 C 0.18328 0.72293 0.464 0.0
C1063 C 0.17244 0.71261 0.50504 0.0
C1064 C 0.18331 0.70157 0.5447 0.0
C1065 C 0.20486 0.70152 0.54454 0.0
C1066 C 0.14976 0.71409 0.50763 0.0
C1067 C 0.13794 0.69671 0.49432 0.0
C1068 C 0.13987 0.73292 0.52011 0.0
C1069 C 0.15171 0.75163 0.53552 0.0
C1070 C 0.16541 0.75122 0.57973 0.0
C1071 C 0.1766 0.76886 0.59383 0.0
C1072 C 0.17406 0.7871 0.56437 0.0
C1073 C 0.16028 0.78774 0.52079 0.0
C1074 C 0.14913 0.7701 0.50636 0.0
C1075 C 0.04937 0.70723 0.53011 0.0
C1076 C 0.04037 0.72339 0.50054 0.0
C1077 C 0.07082 0.7051 0.53197 0.0
C1078 C 0.08356 0.7189 0.50345 0.0
C1079 C 0.07449 0.73516 0.47431 0.0
C1080 C 0.05311 0.73743 0.47312 0.0
C1081 C 0.10635 0.71669 0.50434 0.0
C1082 C 0.1183 0.73398 0.51836 0.0
C1083 C 0.11633 0.69783 0.49169 0.0
C1084 C 0.10477 0.6794 0.47288 0.0
C1085 C 0.09165 0.68062 0.42754 0.0
C1086 C 0.08074 0.66322 0.41016 0.0
C1087 C 0.08295 0.64446 0.43752 0.0
C1088 C 0.09613 0.64306 0.48224 0.0
C1089 C 0.10706 0.66042 0.49984 0.0
H1090 H 0.0745 0.63101 0.424 0.0
H1091 H 0.18269 0.80075 0.5755 0.0
H1092 H 0.77999 0.71131 0.91835 0.0
H1093 H 0.77957 0.67369 0.92393 0.0
H1094 H 0.78047 0.67721 0.0986 0.0
H1095 H 0.78106 0.71486 0.09363 0.0
H1096 H 0.80648 0.64736 0.06058 0.0
H1097 H 0.7361 0.66799 0.03627 0.0
H1098 H 0.70725 0.68621 0.99199 0.0
H1099 H 0.71823 0.65252 0.84478 0.0
H1100 H 0.74736 0.63431 0.88796 0.0
H1101 H 0.74466 0.54362 0.04827 0.0
H1102 H 0.74643 0.58145 0.05442 0.0
H1103 H 0.80646 0.58024 0.97863 0.0
H1104 H 0.80469 0.54236 0.9736 0.0
H1105 H 0.74883 0.60913 0.97413 0.0
H1106 H 0.8351 0.62046 0.02915 0.0
H1107 H 0.86255 0.60237 0.0796 0.0
H1108 H 0.81698 0.57206 0.17771 0.0
H1109 H 0.78928 0.5902 0.12844 0.0
C1110 C 0.7802 0.70414 0.95801 0.0
C1111 C 0.7804 0.71616 0.00556 0.0
C1112 C 0.77991 0.68262 0.96108 0.0
C1113 C 0.77976 0.67271 0.01168 0.0
C1114 C 0.78054 0.68459 0.05917 0.0
C1115 C 0.78078 0.70612 0.05619 0.0
C1116 C 0.77825 0.64996 0.01499 0.0
C1117 C 0.79391 0.63897 0.04166 0.0
C1118 C 0.76161 0.6391 0.99121 0.0
C1119 C 0.74403 0.64993 0.9652 0.0
C1120 C 0.73246 0.66458 0.99432 0.0
C1121 C 0.71605 0.67489 0.96945 0.0
C1122 C 0.71094 0.67056 0.91557 0.0
C1123 C 0.72222 0.65587 0.88649 0.0
C1124 C 0.73867 0.64555 0.91116 0.0
C1125 C 0.75825 0.55157 0.03357 0.0
C1126 C 0.77453 0.5404 0.01044 0.0
C1127 C 0.75923 0.57305 0.03677 0.0
C1128 C 0.77661 0.58363 0.0172 0.0
C1129 C 0.79302 0.57237 0.99452 0.0
C1130 C 0.79199 0.55087 0.99134 0.0
C1131 C 0.77727 0.60646 0.01889 0.0
C1132 C 0.76144 0.61748 0.99306 0.0
C1133 C 0.79356 0.61734 0.04428 0.0
C1134 C 0.81011 0.60655 0.07469 0.0
C1135 C 0.83094 0.61 0.06164 0.0
C1136 C 0.84654 0.59973 0.09002 0.0
C1137 C 0.84151 0.58602 0.13171 0.0
C1138 C 0.82086 0.58262 0.14526 0.0
C1139 C 0.8052 0.59287 0.11707 0.0
H1140 H 0.85361 0.57807 0.1536 0.0
H1141 H 0.69822 0.67855 0.89638 0.0
H1142 H 0.78997 0.28172 0.41619 0.0
H1143 H 0.82755 0.28342 0.41797 0.0
H1144 H 0.82623 0.29127 0.5917 0.0
H1145 H 0.78861 0.28923 0.5906 0.0
H1146 H 0.85465 0.31211 0.44878 0.0
H1147 H 0.86722 0.26562 0.64609 0.0
H1148 H 0.84974 0.23871 0.69996 0.0
H1149 H 0.81945 0.21636 0.55657 0.0
H1150 H 0.83697 0.24295 0.50178 0.0
H1151 H 0.96054 0.31779 0.52726 0.0
H1152 H 0.92255 0.31887 0.52894 0.0
H1153 H 0.92066 0.25466 0.48212 0.0
H1154 H 0.95856 0.25371 0.48151 0.0
H1155 H 0.89384 0.26221 0.56153 0.0
H1156 H 0.91178 0.29237 0.39019 0.0
H1157 H 0.92941 0.31689 0.32939 0.0
H1158 H 0.89877 0.36757 0.4076 0.0
H1159 H 0.88118 0.34335 0.46946 0.0
C1160 C 0.79762 0.28387 0.45484 0.0
C1161 C 0.78624 0.28514 0.50334 0.0
C1162 C 0.81912 0.28492 0.45571 0.0
C1163 C 0.82967 0.28724 0.505 0.0
C1164 C 0.81838 0.28915 0.5533 0.0
C1165 C 0.79687 0.28801 0.55255 0.0
C1166 C 0.8525 0.28701 0.50584 0.0
C1167 C 0.86323 0.30127 0.47361 0.0
C1168 C 0.86366 0.27264 0.53758 0.0
C1169 C 0.85323 0.25642 0.57001 0.0
C1170 C 0.85688 0.25492 0.62607 0.0
C1171 C 0.84696 0.23973 0.65675 0.0
C1172 C 0.83344 0.22588 0.63173 0.0
C1173 C 0.82987 0.22714 0.57593 0.0
C1174 C 0.83977 0.24229 0.54506 0.0
C1175 C 0.95182 0.30404 0.51739 0.0
C1176 C 0.96207 0.28573 0.50386 0.0
C1177 C 0.93028 0.30462 0.51819 0.0
C1178 C 0.91882 0.28687 0.50519 0.0
C1179 C 0.92921 0.2685 0.4923 0.0
C1180 C 0.95071 0.26795 0.49165 0.0
C1181 C 0.896 0.28737 0.50469 0.0
C1182 C 0.88526 0.27318 0.53707 0.0
C1183 C 0.88486 0.30148 0.47213 0.0
C1184 C 0.89533 0.31607 0.43482 0.0
C1185 C 0.90893 0.30876 0.39471 0.0
C1186 C 0.91889 0.3226 0.36001 0.0
C1187 C 0.91525 0.34378 0.36472 0.0
C1188 C 0.90159 0.35116 0.40406 0.0
C1189 C 0.89161 0.33738 0.43893 0.0
H1190 H 0.92298 0.35447 0.33781 0.0
H1191 H 0.82576 0.21415 0.65557 0.0
H1192 H 0.70621 0.21262 0.42171 0.0
H1193 H 0.70378 0.17492 0.42246 0.0
H1194 H 0.73105 0.17347 0.58194 0.0
H1195 H 0.73325 0.21123 0.58205 0.0
H1196 H 0.74898 0.1458 0.49828 0.0
H1197 H 0.68341 0.16557 0.57905 0.0
H1198 H 0.65063 0.1849 0.57942 0.0
H1199 H 0.63266 0.15549 0.43062 0.0
H1200 H 0.66547 0.13615 0.42905 0.0
H1201 H 0.73758 0.04179 0.56378 0.0
H1202 H 0.73623 0.07949 0.56711 0.0
H1203 H 0.69159 0.07946 0.43699 0.0
H1204 H 0.69175 0.04153 0.43722 0.0
H1205 H 0.68209 0.10853 0.50229 0.0
H1206 H 0.74473 0.08898 0.41638 0.0
H1207 H 0.77776 0.07062 0.4049 0.0
H1208 H 0.80187 0.10045 0.54697 0.0
H1209 H 0.76885 0.11876 0.5598 0.0
C1210 C 0.71172 0.20428 0.45694 0.0
C1211 C 0.71996 0.21487 0.50183 0.0
C1212 C 0.71023 0.18279 0.45734 0.0
C1213 C 0.71718 0.17154 0.50231 0.0
C1214 C 0.72559 0.18198 0.54695 0.0
C1215 C 0.72677 0.20351 0.54699 0.0
C1216 C 0.71598 0.1488 0.50237 0.0
C1217 C 0.73441 0.13757 0.49996 0.0
C1218 C 0.69689 0.13828 0.50211 0.0
C1219 C 0.67697 0.14955 0.50371 0.0
C1220 C 0.67253 0.16332 0.54624 0.0
C1221 C 0.65393 0.17425 0.5467 0.0
C1222 C 0.63959 0.17146 0.50501 0.0
C1223 C 0.64378 0.15765 0.46288 0.0
C1224 C 0.66236 0.14667 0.46224 0.0
C1225 C 0.72726 0.04992 0.53666 0.0
C1226 C 0.71498 0.03896 0.49974 0.0
C1227 C 0.72665 0.07142 0.53802 0.0
C1228 C 0.71428 0.08239 0.50115 0.0
C1229 C 0.70143 0.07138 0.46547 0.0
C1230 C 0.70166 0.04979 0.46513 0.0
C1231 C 0.71521 0.10529 0.49912 0.0
C1232 C 0.69673 0.11662 0.50076 0.0
C1233 C 0.73429 0.11597 0.49708 0.0
C1234 C 0.75424 0.1051 0.48932 0.0
C1235 C 0.75703 0.09152 0.44538 0.0
C1236 C 0.77575 0.08113 0.43862 0.0
C1237 C 0.79189 0.08433 0.47525 0.0
C1238 C 0.78935 0.09797 0.51866 0.0
C1239 C 0.77064 0.10837 0.52568 0.0
H1240 H 0.80638 0.07627 0.46994 0.0
H1241 H 0.62521 0.17996 0.50539 0.0
H1242 H 0.28793 0.22634 0.08575 0.0
H1243 H 0.32567 0.22547 0.08518 0.0
H1244 H 0.3249 0.1973 0.92673 0.0
H1245 H 0.28712 0.19838 0.92643 0.0
H1246 H 0.35359 0.1792 0.00836 0.0
H1247 H 0.33398 0.24397 0.92481 0.0
H1248 H 0.31546 0.27718 0.92062 0.0
H1249 H 0.34532 0.29693 0.06722 0.0
H1250 H 0.3638 0.26368 0.07269 0.0
H1251 H 0.45905 0.19523 0.93933 0.0
H1252 H 0.4213 0.19253 0.93953 0.0
H1253 H 0.41842 0.23677 0.07043 0.0
H1254 H 0.4559 0.24048 0.06725 0.0
H1255 H 0.3909 0.24602 0.00124 0.0
H1256 H 0.41063 0.18295 0.088 0.0
H1257 H 0.42887 0.14978 0.09814 0.0
H1258 H 0.39883 0.12652 0.95541 0.0
H1259 H 0.38061 0.15967 0.94399 0.0
C1260 C 0.29577 0.2198 0.05096 0.0
C1261 C 0.28458 0.21255 0.00597 0.0
C1262 C 0.31729 0.21935 0.05071 0.0
C1263 C 0.32793 0.21139 0.00583 0.0
C1264 C 0.31686 0.20348 0.96168 0.0
C1265 C 0.29533 0.20422 0.96149 0.0
C1266 C 0.35066 0.21224 0.00406 0.0
C1267 C 0.36184 0.19375 0.00615 0.0
C1268 C 0.36123 0.23128 0.00265 0.0
C1269 C 0.35011 0.25126 0.99943 0.0
C1270 C 0.33644 0.25531 0.95644 0.0
C1271 C 0.32599 0.27416 0.95377 0.0
C1272 C 0.32919 0.28914 0.99368 0.0
C1273 C 0.34285 0.2853 0.03636 0.0
C1274 C 0.35333 0.26647 0.03923 0.0
C1275 C 0.45023 0.20439 0.96781 0.0
C1276 C 0.46025 0.21795 0.00351 0.0
C1277 C 0.42874 0.20269 0.96842 0.0
C1278 C 0.417 0.21421 0.00561 0.0
C1279 C 0.42711 0.22767 0.04149 0.0
C1280 C 0.44851 0.22962 0.04016 0.0
C1281 C 0.39414 0.21292 0.00607 0.0
C1282 C 0.38282 0.23138 0.00357 0.0
C1283 C 0.38349 0.19383 0.00807 0.0
C1284 C 0.39442 0.17387 0.01483 0.0
C1285 C 0.40804 0.17082 0.05853 0.0
C1286 C 0.41835 0.15201 0.06455 0.0
C1287 C 0.41506 0.13607 0.02736 0.0
C1288 C 0.40139 0.13889 0.98414 0.0
C1289 C 0.39105 0.15768 0.9779 0.0
H1290 H 0.42305 0.12152 0.0321 0.0
H1291 H 0.32116 0.30376 0.99139 0.0
H1292 H 0.26547 0.78153 0.58881 0.0
H1293 H 0.26491 0.81935 0.58918 0.0
H1294 H 0.301 0.82027 0.44231 0.0
H1295 H 0.30122 0.78244 0.44079 0.0
H1296 H 0.31303 0.84957 0.53392 0.0
H1297 H 0.25645 0.82708 0.42015 0.0
H1298 H 0.22521 0.80679 0.39998 0.0
H1299 H 0.19373 0.83552 0.53335 0.0
H1300 H 0.225 0.85561 0.55518 0.0
H1301 H 0.29722 0.95384 0.4541 0.0
H1302 H 0.30129 0.9162 0.45672 0.0
H1303 H 0.24957 0.91188 0.56657 0.0
H1304 H 0.24483 0.94928 0.56106 0.0
H1305 H 0.24618 0.88368 0.49385 0.0
H1306 H 0.30111 0.90655 0.60884 0.0
H1307 H 0.33209 0.92644 0.63407 0.0
H1308 H 0.36628 0.89731 0.50602 0.0
H1309 H 0.3354 0.87744 0.47952 0.0
C1310 C 0.27346 0.78979 0.55691 0.0
C1311 C 0.28328 0.77909 0.51457 0.0
C1312 C 0.27311 0.81133 0.55718 0.0
C1313 C 0.28288 0.82244 0.51572 0.0
C1314 C 0.29342 0.81185 0.47463 0.0
C1315 C 0.29341 0.79031 0.47368 0.0
C1316 C 0.28107 0.84509 0.51361 0.0
C1317 C 0.29852 0.85714 0.52459 0.0
C1318 C 0.26197 0.85472 0.50275 0.0
C1319 C 0.24317 0.84264 0.48975 0.0
C1320 C 0.24297 0.82886 0.44564 0.0
C1321 C 0.22524 0.81743 0.43385 0.0
C1322 C 0.20753 0.81979 0.46552 0.0
C1323 C 0.2075 0.83363 0.50901 0.0
C1324 C 0.22522 0.84504 0.52113 0.0
C1325 C 0.28673 0.94472 0.47846 0.0
C1326 C 0.27081 0.9543 0.50764 0.0
C1327 C 0.28917 0.92332 0.48047 0.0
C1328 C 0.27593 0.91123 0.51256 0.0
C1329 C 0.26002 0.92087 0.54173 0.0
C1330 C 0.25743 0.94221 0.53906 0.0
C1331 C 0.27817 0.88847 0.51452 0.0
C1332 C 0.26076 0.87629 0.50338 0.0
C1333 C 0.29727 0.87876 0.52598 0.0
C1334 C 0.31588 0.89066 0.54186 0.0
C1335 C 0.31519 0.9045 0.58579 0.0
C1336 C 0.33274 0.91576 0.60036 0.0
C1337 C 0.35112 0.91318 0.57158 0.0
C1338 C 0.35201 0.89931 0.52823 0.0
C1339 C 0.3345 0.88803 0.51344 0.0
H1340 H 0.3647 0.9219 0.58293 0.0
H1341 H 0.19382 0.81096 0.45617 0.0
H1342 H 0.71272 0.80463 0.07222 0.0
H1343 H 0.67508 0.80696 0.07264 0.0
H1344 H 0.67238 0.76743 0.93175 0.0
H1345 H 0.71001 0.76595 0.92958 0.0
H1346 H 0.64564 0.79577 0.91986 0.0
H1347 H 0.66241 0.75016 0.06653 0.0
H1348 H 0.67953 0.73925 0.15115 0.0
H1349 H 0.65071 0.7892 0.23703 0.0
H1350 H 0.63361 0.80056 0.15272 0.0
H1351 H 0.54354 0.75592 0.95475 0.0
H1352 H 0.58131 0.75932 0.95366 0.0
H1353 H 0.5768 0.81382 0.05353 0.0
H1354 H 0.53889 0.81079 0.05272 0.0
H1355 H 0.60641 0.78044 0.08791 0.0
H1356 H 0.58747 0.82338 0.93588 0.0
H1357 H 0.56938 0.83065 0.85 0.0
H1358 H 0.60181 0.78091 0.77262 0.0
H1359 H 0.61984 0.77311 0.85835 0.0
C1360 C 0.70406 0.79646 0.04133 0.0
C1361 C 0.71426 0.78503 0.00102 0.0
C1362 C 0.68255 0.79772 0.04174 0.0
C1363 C 0.67082 0.78705 0.00283 0.0
C1364 C 0.68105 0.77582 0.96219 0.0
C1365 C 0.70256 0.77493 0.96106 0.0
C1366 C 0.64791 0.78746 0.00441 0.0
C1367 C 0.63712 0.79222 0.95657 0.0
C1368 C 0.63668 0.78315 0.05244 0.0
C1369 C 0.64692 0.77634 0.1032 0.0
C1370 C 0.65985 0.75891 0.10338 0.0
C1371 C 0.66953 0.75263 0.15129 0.0
C1372 C 0.66626 0.76356 0.19939 0.0
C1373 C 0.65326 0.78077 0.19971 0.0
C1374 C 0.64356 0.78713 0.15189 0.0
C1375 C 0.55073 0.76869 0.97588 0.0
C1376 C 0.53859 0.78315 0.00368 0.0
C1377 C 0.57216 0.7706 0.9754 0.0
C1378 C 0.58171 0.78683 0.00345 0.0
C1379 C 0.56961 0.8012 0.03175 0.0
C1380 C 0.54812 0.79948 0.03135 0.0
C1381 C 0.60441 0.78854 0.00349 0.0
C1382 C 0.61507 0.78415 0.05153 0.0
C1383 C 0.6155 0.79271 0.95545 0.0
C1384 C 0.60486 0.79754 0.90369 0.0
C1385 C 0.59061 0.81387 0.90069 0.0
C1386 C 0.58039 0.81811 0.85201 0.0
C1387 C 0.58441 0.80622 0.80591 0.0
C1388 C 0.5987 0.7901 0.80837 0.0
C1389 C 0.60894 0.78577 0.85699 0.0
H1390 H 0.57648 0.80953 0.76826 0.0
H1391 H 0.67377 0.75867 0.23645 0.0
loop_
_geom_bond_atom_site_label_1
_geom_bond_atom_site_label_2
_geom_bond_distance
_geom_bond_site_symmetry_2
_ccdc_geom_bond_type
Sc0 O3 2.027 . S
Sc0 O10 2.105 . S
Sc0 O13 2.105 . S
Sc0 O16 2.105 . S
Sc0 O19 2.105 . S
Sc1 O3 2.025 . S
Sc1 O11 2.105 . S
Sc1 O15 2.104 1_554 S
Sc1 O17 2.105 . S
Sc1 O21 2.104 1_554 S
Sc2 O3 2.024 1_556 S
Sc2 O12 2.105 . S
Sc2 O14 2.105 . S
Sc2 O18 2.105 . S
Sc2 O20 2.105 . S
O3 Sc0 2.027 . S
O3 Sc1 2.025 . S
O3 Sc2 2.024 1_554 S
C4 O10 1.271 . S
C4 O20 1.265 1_554 S
C5 O11 1.268 . S
C5 O19 1.268 . S
C6 O12 1.268 . S
C6 O21 1.268 . S
C7 O13 1.268 . S
C7 O17 1.268 . S
C8 O14 1.265 1_554 S
C8 O16 1.271 . S
C9 O15 1.268 . S
C9 O18 1.268 . S
O10 Sc0 2.105 . S
O10 C4 1.271 . S
O11 Sc1 2.105 . S
O11 C5 1.268 . S
O12 Sc2 2.105 . S
O12 C6 1.268 . S
O13 Sc0 2.105 . S
O13 C7 1.268 . S
O14 Sc2 2.105 . S
O14 C8 1.265 1_556 S
O15 Sc1 2.104 1_556 S
O15 C9 1.268 . S
O16 Sc0 2.105 . S
O16 C8 1.271 . S
O17 Sc1 2.105 . S
O17 C7 1.268 . S
O18 Sc2 2.105 . S
O18 C9 1.268 . S
O19 Sc0 2.105 . S
O19 C5 1.268 . S
O20 Sc2 2.105 . S
O20 C4 1.265 1_556 S
O21 Sc1 2.104 1_556 S
O21 C6 1.268 . S
Sc22 O25 2.025 . S
Sc22 O32 2.105 . S
Sc22 O35 2.105 . S
Sc22 O38 2.105 . S
Sc22 O41 2.105 . S
Sc23 O25 2.025 . S
Sc23 O33 2.105 . S
Sc23 O37 2.105 . S
Sc23 O39 2.105 . S
Sc23 O43 2.105 . S
Sc24 O25 2.025 . S
Sc24 O34 2.105 . S
Sc24 O36 2.105 . S
Sc24 O40 2.105 . S
Sc24 O42 2.105 . S
O25 Sc22 2.025 . S
O25 Sc23 2.025 . S
O25 Sc24 2.025 . S
C26 O32 1.268 . S
C26 O42 1.268 . S
C27 O33 1.268 . S
C27 O41 1.268 . S
C28 O34 1.268 . S
C28 O43 1.268 . S
C29 O35 1.268 . S
C29 O39 1.268 . S
C30 O36 1.268 . S
C30 O38 1.268 . S
C31 O37 1.268 . S
C31 O40 1.268 . S
O32 Sc22 2.105 . S
O32 C26 1.268 . S
O33 Sc23 2.105 . S
O33 C27 1.268 . S
O34 Sc24 2.105 . S
O34 C28 1.268 . S
O35 Sc22 2.105 . S
O35 C29 1.268 . S
O36 Sc24 2.105 . S
O36 C30 1.268 . S
O37 Sc23 2.105 . S
O37 C31 1.268 . S
O38 Sc22 2.105 . S
O38 C30 1.268 . S
O39 Sc23 2.105 . S
O39 C29 1.268 . S
O40 Sc24 2.105 . S
O40 C31 1.268 . S
O41 Sc22 2.105 . S
O41 C27 1.268 . S
O42 Sc24 2.105 . S
O42 C26 1.268 . S
O43 Sc23 2.105 . S
O43 C28 1.268 . S
Sc44 O47 2.018 1_556 S
Sc44 O54 2.105 . S
Sc44 O57 2.105 . S
Sc44 O60 2.105 . S
Sc44 O63 2.105 . S
Sc45 O47 2.025 . S
Sc45 O55 2.098 1_554 S
Sc45 O59 2.111 . S
Sc45 O61 2.098 1_554 S
Sc45 O65 2.111 . S
Sc46 O47 2.033 . S
Sc46 O56 2.105 . S
Sc46 O58 2.105 . S
Sc46 O62 2.105 . S
Sc46 O64 2.105 . S
O47 Sc44 2.018 1_554 S
O47 Sc45 2.025 . S
O47 Sc46 2.033 . S
C48 O54 1.262 1_554 S
C48 O64 1.274 . S
C49 O55 1.268 . S
C49 O63 1.268 . S
C50 O56 1.268 . S
C50 O65 1.268 . S
C51 O57 1.268 . S
C51 O61 1.268 . S
C52 O58 1.274 . S
C52 O60 1.262 1_554 S
C53 O59 1.268 . S
C53 O62 1.268 . S
O54 Sc44 2.105 . S
O54 C48 1.262 1_556 S
O55 Sc45 2.098 1_556 S
O55 C49 1.268 . S
O56 Sc46 2.105 . S
O56 C50 1.268 . S
O57 Sc44 2.105 . S
O57 C51 1.268 . S
O58 Sc46 2.105 . S
O58 C52 1.274 . S
O59 Sc45 2.111 . S
O59 C53 1.268 . S
O60 Sc44 2.105 . S
O60 C52 1.262 1_556 S
O61 Sc45 2.098 1_556 S
O61 C51 1.268 . S
O62 Sc46 2.105 . S
O62 C53 1.268 . S
O63 Sc44 2.105 . S
O63 C49 1.268 . S
O64 Sc46 2.105 . S
O64 C48 1.274 . S
O65 Sc45 2.111 . S
O65 C50 1.268 . S
Sc66 O69 2.025 . S
Sc66 O76 2.105 . S
Sc66 O79 2.105 . S
Sc66 O82 2.105 . S
Sc66 O85 2.105 . S
Sc67 O69 2.025 . S
Sc67 O77 2.105 . S
Sc67 O81 2.105 . S
Sc67 O83 2.105 . S
Sc67 O87 2.105 . S
Sc68 O69 2.025 . S
Sc68 O78 2.105 . S
Sc68 O80 2.105 . S
Sc68 O84 2.105 . S
Sc68 O86 2.105 . S
O69 Sc66 2.025 . S
O69 Sc67 2.025 . S
O69 Sc68 2.025 . S
C70 O76 1.268 . S
C70 O86 1.268 . S
C71 O77 1.268 . S
C71 O85 1.268 . S
C72 O78 1.268 . S
C72 O87 1.268 . S
C73 O79 1.268 . S
C73 O83 1.268 . S
C74 O80 1.268 . S
C74 O82 1.268 . S
C75 O81 1.268 . S
C75 O84 1.268 . S
O76 Sc66 2.105 . S
O76 C70 1.268 . S
O77 Sc67 2.105 . S
O77 C71 1.268 . S
O78 Sc68 2.105 . S
O78 C72 1.268 . S
O79 Sc66 2.105 . S
O79 C73 1.268 . S
O80 Sc68 2.105 . S
O80 C74 1.268 . S
O81 Sc67 2.105 . S
O81 C75 1.268 . S
O82 Sc66 2.105 . S
O82 C74 1.268 . S
O83 Sc67 2.105 . S
O83 C73 1.268 . S
O84 Sc68 2.105 . S
O84 C75 1.268 . S
O85 Sc66 2.105 . S
O85 C71 1.268 . S
O86 Sc68 2.105 . S
O86 C70 1.268 . S
O87 Sc67 2.105 . S
O87 C72 1.268 . S
C88 N89 1.317 . S
C88 N90 1.360 . S
C88 C91 1.485 . S
N89 C88 1.317 . S
N89 N93 1.370 1_556 S
N90 C88 1.360 . S
N90 C92 1.335 1_556 S
C91 C88 1.485 . S
C91 H95 0.960 . S
C91 H96 0.961 . S
C91 H97 0.960 . S
C92 N90 1.335 1_554 S
C92 N93 1.307 . S
C92 C94 1.486 . S
N93 N89 1.370 1_554 S
N93 C92 1.307 . S
C94 C92 1.486 . S
C94 H98 0.960 . S
C94 H99 0.960 . S
C94 H100 0.959 . S
H95 C91 0.960 . S
H96 C91 0.961 . S
H97 C91 0.960 . S
H98 C94 0.960 . S
H99 C94 0.960 . S
H100 C94 0.959 . S
C101 N102 1.317 1_455 S
C101 N103 1.348 . S
C101 C104 1.485 . S
N102 C101 1.317 1_655 S
N102 N106 1.370 . S
N103 C101 1.348 . S
N103 C105 1.346 . S
C104 C101 1.485 . S
C104 H108 0.960 . S
C104 H109 0.961 . S
C104 H110 0.960 1_455 S
C105 N103 1.346 . S
C105 N106 1.307 1_455 S
C105 C107 1.486 . S
N106 N102 1.370 . S
N106 C105 1.307 1_655 S
C107 C105 1.486 . S
C107 H111 0.960 . S
C107 H112 0.960 . S
C107 H113 0.959 1_455 S
H108 C104 0.960 . S
H109 C104 0.961 . S
H110 C104 0.960 1_655 S
H111 C107 0.960 . S
H112 C107 0.960 . S
H113 C107 0.959 1_655 S
C114 N115 1.317 . S
C114 N116 1.348 . S
C114 C117 1.485 . S
N115 C114 1.317 . S
N115 N119 1.370 1_554 S
N116 C114 1.348 . S
N116 C118 1.346 1_554 S
C117 C114 1.485 . S
C117 H121 0.960 . S
C117 H122 0.961 . S
C117 H123 0.960 . S
C118 N116 1.346 1_556 S
C118 N119 1.307 . S
C118 C120 1.486 . S
N119 N115 1.370 1_556 S
N119 C118 1.307 . S
C120 C118 1.486 . S
C120 H124 0.960 . S
C120 H125 0.960 . S
C120 H126 0.959 . S
H121 C117 0.960 . S
H122 C117 0.961 . S
H123 C117 0.960 . S
H124 C120 0.960 . S
H125 C120 0.960 . S
H126 C120 0.959 . S
C127 N128 1.317 1_655 S
C127 N129 1.348 . S
C127 C130 1.485 . S
N128 C127 1.317 1_455 S
N128 N132 1.370 . S
N129 C127 1.348 . S
N129 C131 1.346 . S
C130 C127 1.485 . S
C130 H134 0.960 . S
C130 H135 0.961 . S
C130 H136 0.960 1_655 S
C131 N129 1.346 . S
C131 N132 1.307 1_655 S
C131 C133 1.486 . S
N132 N128 1.370 . S
N132 C131 1.307 1_455 S
C133 C131 1.486 . S
C133 H137 0.960 . S
C133 H138 0.960 . S
C133 H139 0.959 1_655 S
H134 C130 0.960 . S
H135 C130 0.961 . S
H136 C130 0.960 1_455 S
H137 C133 0.960 . S
H138 C133 0.960 . S
H139 C133 0.959 1_455 S
C140 N141 1.317 1_545 S
C140 N142 1.348 . S
C140 C143 1.485 . S
N141 C140 1.317 1_565 S
N141 N145 1.370 . S
N142 C140 1.348 . S
N142 C144 1.346 . S
C143 C140 1.485 . S
C143 H147 0.960 . S
C143 H148 0.961 . S
C143 H149 0.960 1_545 S
C144 N142 1.346 . S
C144 N145 1.307 1_545 S
C144 C146 1.486 . S
N145 N141 1.370 . S
N145 C144 1.307 1_565 S
C146 C144 1.486 . S
C146 H150 0.960 . S
C146 H151 0.960 . S
C146 H152 0.959 1_545 S
H147 C143 0.960 . S
H148 C143 0.961 . S
H149 C143 0.960 1_565 S
H150 C146 0.960 . S
H151 C146 0.960 . S
H152 C146 0.959 1_565 S
C153 N154 1.317 . S
C153 N155 1.360 . S
C153 C156 1.485 . S
N154 C153 1.317 . S
N154 N158 1.370 1_556 S
N155 C153 1.360 . S
N155 C157 1.335 1_556 S
C156 C153 1.485 . S
C156 H160 0.960 . S
C156 H161 0.961 . S
C156 H162 0.960 . S
C157 N155 1.335 1_554 S
C157 N158 1.307 . S
C157 C159 1.486 . S
N158 N154 1.370 1_554 S
N158 C157 1.307 . S
C159 C157 1.486 . S
C159 H163 0.960 . S
C159 H164 0.960 . S
C159 H165 0.959 . S
H160 C156 0.960 . S
H161 C156 0.961 . S
H162 C156 0.960 . S
H163 C159 0.960 . S
H164 C159 0.960 . S
H165 C159 0.959 . S
C166 N167 1.317 1_565 S
C166 N168 1.348 . S
C166 C169 1.485 . S
N167 C166 1.317 1_545 S
N167 N171 1.370 . S
N168 C166 1.348 . S
N168 C170 1.346 . S
C169 C166 1.485 . S
C169 H173 0.960 . S
C169 H174 0.961 . S
C169 H175 0.960 1_565 S
C170 N168 1.346 . S
C170 N171 1.307 1_565 S
C170 C172 1.486 . S
N171 N167 1.370 . S
N171 C170 1.307 1_545 S
C172 C170 1.486 . S
C172 H176 0.960 . S
C172 H177 0.960 . S
C172 H178 0.959 1_565 S
H173 C169 0.960 . S
H174 C169 0.961 . S
H175 C169 0.960 1_545 S
H176 C172 0.960 . S
H177 C172 0.960 . S
H178 C172 0.959 1_545 S
C179 N180 1.317 . S
C179 N181 1.348 . S
C179 C182 1.485 . S
N180 C179 1.317 . S
N180 N184 1.370 1_554 S
N181 C179 1.348 . S
N181 C183 1.346 1_554 S
C182 C179 1.485 . S
C182 H186 0.960 . S
C182 H187 0.961 . S
C182 H188 0.960 . S
C183 N181 1.346 1_556 S
C183 N184 1.307 . S
C183 C185 1.486 . S
N184 N180 1.370 1_556 S
N184 C183 1.307 . S
C185 C183 1.486 . S
C185 H189 0.960 . S
C185 H190 0.960 . S
C185 H191 0.959 . S
H186 C182 0.960 . S
H187 C182 0.961 . S
H188 C182 0.960 . S
H189 C185 0.960 . S
H190 C185 0.960 . S
H191 C185 0.959 . S
H192 C210 0.951 . S
H193 C212 0.951 . S
H194 C214 0.950 . S
H195 C215 0.950 . S
H196 C217 0.950 . S
H197 C220 0.950 . S
H198 C221 0.950 . S
H199 C223 0.950 . S
H200 C224 0.950 . S
H201 C225 0.951 . S
H202 C227 0.951 . S
H203 C229 0.950 . S
H204 C230 0.950 . S
H205 C232 0.950 . S
H206 C235 0.950 . S
H207 C236 0.950 . S
H208 C238 0.950 . S
H209 C239 0.950 . S
C210 H192 0.951 . S
C210 C211 1.366 . S
C210 C212 1.388 . S
C211 C210 1.366 . S
C211 C215 1.385 . S
C212 H193 0.951 . S
C212 C210 1.388 . S
C212 C213 1.366 . S
C213 C212 1.366 . S
C213 C214 1.414 . S
C213 C216 1.499 . S
C214 H194 0.950 . S
C214 C213 1.414 . S
C214 C215 1.374 . S
C215 H195 0.950 . S
C215 C211 1.385 . S
C215 C214 1.374 . S
C216 C213 1.499 . S
C216 C217 1.373 . S
C216 C218 1.389 . S
C217 H196 0.950 . S
C217 C216 1.373 . S
C217 C233 1.377 . S
C218 C216 1.389 . S
C218 C219 1.524 . S
C218 C232 1.377 . S
C219 C218 1.524 . S
C219 C220 1.397 . S
C219 C224 1.363 . S
C220 H197 0.950 . S
C220 C219 1.397 . S
C220 C221 1.334 . S
C221 H198 0.950 . S
C221 C220 1.334 . S
C221 C222 1.287 . S
C222 C221 1.287 . S
C222 C223 1.524 . S
C222 H241 0.913 . S
C223 H199 0.950 . S
C223 C222 1.524 . S
C223 C224 1.415 . S
C224 H200 0.950 . S
C224 C219 1.363 . S
C224 C223 1.415 . S
C225 H201 0.951 . S
C225 C226 1.366 . S
C225 C227 1.388 . S
C226 C225 1.366 . S
C226 C230 1.385 . S
C227 H202 0.951 . S
C227 C225 1.388 . S
C227 C228 1.366 . S
C228 C227 1.366 . S
C228 C229 1.414 . S
C228 C231 1.499 . S
C229 H203 0.950 . S
C229 C228 1.414 . S
C229 C230 1.374 . S
C230 H204 0.950 . S
C230 C226 1.385 . S
C230 C229 1.374 . S
C231 C228 1.499 . S
C231 C232 1.373 . S
C231 C233 1.389 . S
C232 H205 0.950 . S
C232 C218 1.377 . S
C232 C231 1.373 . S
C233 C217 1.377 . S
C233 C231 1.389 . S
C233 C234 1.524 . S
C234 C233 1.524 . S
C234 C235 1.397 . S
C234 C239 1.363 . S
C235 H206 0.950 . S
C235 C234 1.397 . S
C235 C236 1.334 . S
C236 H207 0.950 . S
C236 C235 1.334 . S
C236 C237 1.287 . S
C237 C236 1.287 . S
C237 C238 1.524 . S
C237 H240 0.999 . S
C238 H208 0.950 . S
C238 C237 1.524 . S
C238 C239 1.415 . S
C239 H209 0.950 . S
C239 C234 1.363 . S
C239 C238 1.415 . S
H240 C237 0.999 . S
H241 C222 0.913 . S
H242 C260 0.951 . S
H243 C262 0.951 . S
H244 C264 0.950 . S
H245 C265 0.950 . S
H246 C267 0.950 . S
H247 C270 0.950 . S
H248 C271 0.950 . S
H249 C273 0.950 . S
H250 C274 0.950 . S
H251 C275 0.951 . S
H252 C277 0.951 . S
H253 C279 0.950 . S
H254 C280 0.950 . S
H255 C282 0.950 . S
H256 C285 0.950 . S
H257 C286 0.950 . S
H258 C288 0.950 . S
H259 C289 0.950 . S
C260 H242 0.951 . S
C260 C261 1.366 . S
C260 C262 1.388 . S
C261 C260 1.366 . S
C261 C265 1.385 . S
C262 H243 0.951 . S
C262 C260 1.388 . S
C262 C263 1.366 . S
C263 C262 1.366 . S
C263 C264 1.414 . S
C263 C266 1.499 . S
C264 H244 0.950 . S
C264 C263 1.414 . S
C264 C265 1.374 . S
C265 H245 0.950 . S
C265 C261 1.385 . S
C265 C264 1.374 . S
C266 C263 1.499 . S
C266 C267 1.373 . S
C266 C268 1.389 . S
C267 H246 0.950 . S
C267 C266 1.373 . S
C267 C283 1.377 . S
C268 C266 1.389 . S
C268 C269 1.524 . S
C268 C282 1.377 . S
C269 C268 1.524 . S
C269 C270 1.397 . S
C269 C274 1.363 . S
C270 H247 0.950 . S
C270 C269 1.397 . S
C270 C271 1.334 . S
C271 H248 0.950 . S
C271 C270 1.334 . S
C271 C272 1.287 . S
C272 C271 1.287 . S
C272 C273 1.524 . S
C272 H291 0.913 . S
C273 H249 0.950 . S
C273 C272 1.524 . S
C273 C274 1.415 . S
C274 H250 0.950 . S
C274 C269 1.363 . S
C274 C273 1.415 . S
C275 H251 0.951 . S
C275 C276 1.366 . S
C275 C277 1.388 . S
C276 C275 1.366 . S
C276 C280 1.385 . S
C277 H252 0.951 . S
C277 C275 1.388 . S
C277 C278 1.366 . S
C278 C277 1.366 . S
C278 C279 1.414 . S
C278 C281 1.499 . S
C279 H253 0.950 . S
C279 C278 1.414 . S
C279 C280 1.374 . S
C280 H254 0.950 . S
C280 C276 1.385 . S
C280 C279 1.374 . S
C281 C278 1.499 . S
C281 C282 1.373 . S
C281 C283 1.389 . S
C282 H255 0.950 . S
C282 C268 1.377 . S
C282 C281 1.373 . S
C283 C267 1.377 . S
C283 C281 1.389 . S
C283 C284 1.524 . S
C284 C283 1.524 . S
C284 C285 1.397 . S
C284 C289 1.363 . S
C285 H256 0.950 . S
C285 C284 1.397 . S
C285 C286 1.334 . S
C286 H257 0.950 . S
C286 C285 1.334 . S
C286 C287 1.287 . S
C287 C286 1.287 . S
C287 C288 1.524 . S
C287 H290 0.999 . S
C288 H258 0.950 . S
C288 C287 1.524 . S
C288 C289 1.415 . S
C289 H259 0.950 . S
C289 C284 1.363 . S
C289 C288 1.415 . S
H290 C287 0.999 . S
H291 C272 0.913 . S
H292 C310 0.951 . S
H293 C312 0.951 . S
H294 C314 0.950 . S
H295 C315 0.950 . S
H296 C317 0.950 . S
H297 C320 0.950 . S
H298 C321 0.950 . S
H299 C323 0.950 . S
H300 C324 0.950 . S
H301 C325 0.951 . S
H302 C327 0.951 . S
H303 C329 0.950 . S
H304 C330 0.950 . S
H305 C332 0.950 . S
H306 C335 0.950 . S
H307 C336 0.950 . S
H308 C338 0.950 . S
H309 C339 0.950 . S
C310 H292 0.951 . S
C310 C311 1.366 . S
C310 C312 1.388 . S
C311 C310 1.366 . S
C311 C315 1.385 . S
C312 H293 0.951 . S
C312 C310 1.388 . S
C312 C313 1.366 . S
C313 C312 1.366 . S
C313 C314 1.414 . S
C313 C316 1.499 . S
C314 H294 0.950 . S
C314 C313 1.414 . S
C314 C315 1.374 . S
C315 H295 0.950 . S
C315 C311 1.385 . S
C315 C314 1.374 . S
C316 C313 1.499 . S
C316 C317 1.373 . S
C316 C318 1.389 . S
C317 H296 0.950 . S
C317 C316 1.373 . S
C317 C333 1.377 . S
C318 C316 1.389 . S
C318 C319 1.524 . S
C318 C332 1.377 . S
C319 C318 1.524 . S
C319 C320 1.397 . S
C319 C324 1.363 . S
C320 H297 0.950 . S
C320 C319 1.397 . S
C320 C321 1.334 . S
C321 H298 0.950 . S
C321 C320 1.334 . S
C321 C322 1.287 . S
C322 C321 1.287 . S
C322 C323 1.524 . S
C322 H341 0.913 . S
C323 H299 0.950 . S
C323 C322 1.524 . S
C323 C324 1.415 . S
C324 H300 0.950 . S
C324 C319 1.363 . S
C324 C323 1.415 . S
C325 H301 0.951 . S
C325 C326 1.366 . S
C325 C327 1.388 . S
C326 C325 1.366 . S
C326 C330 1.385 . S
C327 H302 0.951 . S
C327 C325 1.388 . S
C327 C328 1.366 . S
C328 C327 1.366 . S
C328 C329 1.414 . S
C328 C331 1.499 . S
C329 H303 0.950 . S
C329 C328 1.414 . S
C329 C330 1.374 . S
C330 H304 0.950 . S
C330 C326 1.385 . S
C330 C329 1.374 . S
C331 C328 1.499 . S
C331 C332 1.373 . S
C331 C333 1.389 . S
C332 H305 0.950 . S
C332 C318 1.377 . S
C332 C331 1.373 . S
C333 C317 1.377 . S
C333 C331 1.389 . S
C333 C334 1.524 . S
C334 C333 1.524 . S
C334 C335 1.397 . S
C334 C339 1.363 . S
C335 H306 0.950 . S
C335 C334 1.397 . S
C335 C336 1.334 . S
C336 H307 0.950 . S
C336 C335 1.334 . S
C336 C337 1.287 . S
C337 C336 1.287 . S
C337 C338 1.524 . S
C337 H340 0.999 . S
C338 H308 0.950 . S
C338 C337 1.524 . S
C338 C339 1.415 . S
C339 H309 0.950 . S
C339 C334 1.363 . S
C339 C338 1.415 . S
H340 C337 0.999 . S
H341 C322 0.913 . S
H342 C360 0.951 . S
H343 C362 0.951 . S
H344 C364 0.950 . S
H345 C365 0.950 . S
H346 C367 0.950 . S
H347 C370 0.950 . S
H348 C371 0.950 . S
H349 C373 0.950 . S
H350 C374 0.950 . S
H351 C375 0.951 . S
H352 C377 0.951 . S
H353 C379 0.950 . S
H354 C380 0.950 . S
H355 C382 0.950 . S
H356 C385 0.950 . S
H357 C386 0.950 1_554 S
H358 C388 0.950 . S
H359 C389 0.950 . S
C360 H342 0.951 . S
C360 C361 1.366 . S
C360 C362 1.388 . S
C361 C360 1.366 . S
C361 C365 1.385 . S
C362 H343 0.951 . S
C362 C360 1.388 . S
C362 C363 1.366 . S
C363 C362 1.366 . S
C363 C364 1.414 . S
C363 C366 1.499 . S
C364 H344 0.950 . S
C364 C363 1.414 . S
C364 C365 1.374 . S
C365 H345 0.950 . S
C365 C361 1.385 . S
C365 C364 1.374 . S
C366 C363 1.499 . S
C366 C367 1.373 . S
C366 C368 1.389 . S
C367 H346 0.950 . S
C367 C366 1.373 . S
C367 C383 1.377 . S
C368 C366 1.389 . S
C368 C369 1.524 . S
C368 C382 1.377 . S
C369 C368 1.524 . S
C369 C370 1.397 . S
C369 C374 1.363 . S
C370 H347 0.950 . S
C370 C369 1.397 . S
C370 C371 1.334 . S
C371 H348 0.950 . S
C371 C370 1.334 . S
C371 C372 1.287 . S
C372 C371 1.287 . S
C372 C373 1.524 . S
C372 H391 0.913 . S
C373 H349 0.950 . S
C373 C372 1.524 . S
C373 C374 1.415 . S
C374 H350 0.950 . S
C374 C369 1.363 . S
C374 C373 1.415 . S
C375 H351 0.951 . S
C375 C376 1.366 . S
C375 C377 1.388 . S
C376 C375 1.366 . S
C376 C380 1.385 . S
C377 H352 0.951 . S
C377 C375 1.388 . S
C377 C378 1.366 . S
C378 C377 1.366 . S
C378 C379 1.414 . S
C378 C381 1.499 . S
C379 H353 0.950 . S
C379 C378 1.414 . S
C379 C380 1.374 . S
C380 H354 0.950 . S
C380 C376 1.385 . S
C380 C379 1.374 . S
C381 C378 1.499 . S
C381 C382 1.373 . S
C381 C383 1.389 . S
C382 H355 0.950 . S
C382 C368 1.377 . S
C382 C381 1.373 . S
C383 C367 1.377 . S
C383 C381 1.389 . S
C383 C384 1.524 . S
C384 C383 1.524 . S
C384 C385 1.397 . S
C384 C389 1.363 . S
C385 H356 0.950 . S
C385 C384 1.397 . S
C385 C386 1.334 . S
C386 H357 0.950 1_556 S
C386 C385 1.334 . S
C386 C387 1.287 . S
C387 C386 1.287 . S
C387 C388 1.524 . S
C387 H390 0.999 1_556 S
C388 H358 0.950 . S
C388 C387 1.524 . S
C388 C389 1.415 . S
C389 H359 0.950 . S
C389 C384 1.363 . S
C389 C388 1.415 . S
H390 C387 0.999 1_554 S
H391 C372 0.913 . S
H392 C410 0.951 . S
H393 C412 0.951 . S
H394 C414 0.950 . S
H395 C415 0.950 . S
H396 C417 0.950 . S
H397 C420 0.950 . S
H398 C421 0.950 . S
H399 C423 0.950 . S
H400 C424 0.950 . S
H401 C425 0.951 . S
H402 C427 0.951 . S
H403 C429 0.950 . S
H404 C430 0.950 . S
H405 C432 0.950 . S
H406 C435 0.950 . S
H407 C436 0.950 . S
H408 C438 0.950 . S
H409 C439 0.950 . S
C410 H392 0.951 . S
C410 C411 1.366 . S
C410 C412 1.388 . S
C411 C410 1.366 . S
C411 C415 1.385 . S
C412 H393 0.951 . S
C412 C410 1.388 . S
C412 C413 1.366 . S
C413 C412 1.366 . S
C413 C414 1.414 . S
C413 C416 1.499 . S
C414 H394 0.950 . S
C414 C413 1.414 . S
C414 C415 1.374 . S
C415 H395 0.950 . S
C415 C411 1.385 . S
C415 C414 1.374 . S
C416 C413 1.499 . S
C416 C417 1.373 . S
C416 C418 1.389 . S
C417 H396 0.950 . S
C417 C416 1.373 . S
C417 C433 1.377 . S
C418 C416 1.389 . S
C418 C419 1.524 . S
C418 C432 1.377 . S
C419 C418 1.524 . S
C419 C420 1.397 . S
C419 C424 1.363 . S
C420 H397 0.950 . S
C420 C419 1.397 . S
C420 C421 1.334 . S
C421 H398 0.950 . S
C421 C420 1.334 . S
C421 C422 1.287 . S
C422 C421 1.287 . S
C422 C423 1.524 . S
C422 H441 0.913 . S
C423 H399 0.950 . S
C423 C422 1.524 . S
C423 C424 1.415 . S
C424 H400 0.950 . S
C424 C419 1.363 . S
C424 C423 1.415 . S
C425 H401 0.951 . S
C425 C426 1.366 . S
C425 C427 1.388 . S
C426 C425 1.366 . S
C426 C430 1.385 . S
C427 H402 0.951 . S
C427 C425 1.388 . S
C427 C428 1.366 . S
C428 C427 1.366 . S
C428 C429 1.414 . S
C428 C431 1.499 . S
C429 H403 0.950 . S
C429 C428 1.414 . S
C429 C430 1.374 . S
C430 H404 0.950 . S
C430 C426 1.385 . S
C430 C429 1.374 . S
C431 C428 1.499 . S
C431 C432 1.373 . S
C431 C433 1.389 . S
C432 H405 0.950 . S
C432 C418 1.377 . S
C432 C431 1.373 . S
C433 C417 1.377 . S
C433 C431 1.389 . S
C433 C434 1.524 . S
C434 C433 1.524 . S
C434 C435 1.397 . S
C434 C439 1.363 . S
C435 H406 0.950 . S
C435 C434 1.397 . S
C435 C436 1.334 . S
C436 H407 0.950 . S
C436 C435 1.334 . S
C436 C437 1.287 . S
C437 C436 1.287 . S
C437 C438 1.524 . S
C437 H440 0.999 1_554 S
C438 H408 0.950 . S
C438 C437 1.524 . S
C438 C439 1.415 . S
C439 H409 0.950 . S
C439 C434 1.363 . S
C439 C438 1.415 . S
H440 C437 0.999 1_556 S
H441 C422 0.913 . S
H442 C460 0.951 . S
H443 C462 0.951 . S
H444 C464 0.950 . S
H445 C465 0.950 . S
H446 C467 0.950 . S
H447 C470 0.950 . S
H448 C471 0.950 . S
H449 C473 0.950 . S
H450 C474 0.950 . S
H451 C475 0.951 . S
H452 C477 0.951 . S
H453 C479 0.950 . S
H454 C480 0.950 . S
H455 C482 0.950 . S
H456 C485 0.950 . S
H457 C486 0.950 . S
H458 C488 0.950 . S
H459 C489 0.950 . S
C460 H442 0.951 . S
C460 C461 1.366 . S
C460 C462 1.388 . S
C461 C460 1.366 . S
C461 C465 1.385 . S
C462 H443 0.951 . S
C462 C460 1.388 . S
C462 C463 1.366 . S
C463 C462 1.366 . S
C463 C464 1.414 . S
C463 C466 1.499 . S
C464 H444 0.950 . S
C464 C463 1.414 . S
C464 C465 1.374 . S
C465 H445 0.950 . S
C465 C461 1.385 . S
C465 C464 1.374 . S
C466 C463 1.499 . S
C466 C467 1.373 . S
C466 C468 1.389 . S
C467 H446 0.950 . S
C467 C466 1.373 . S
C467 C483 1.377 . S
C468 C466 1.389 . S
C468 C469 1.524 . S
C468 C482 1.377 . S
C469 C468 1.524 . S
C469 C470 1.397 . S
C469 C474 1.363 . S
C470 H447 0.950 . S
C470 C469 1.397 . S
C470 C471 1.334 . S
C471 H448 0.950 . S
C471 C470 1.334 . S
C471 C472 1.287 . S
C472 C471 1.287 . S
C472 C473 1.524 . S
C472 H491 0.913 . S
C473 H449 0.950 . S
C473 C472 1.524 . S
C473 C474 1.415 . S
C474 H450 0.950 . S
C474 C469 1.363 . S
C474 C473 1.415 . S
C475 H451 0.951 . S
C475 C476 1.366 . S
C475 C477 1.388 . S
C476 C475 1.366 . S
C476 C480 1.385 . S
C477 H452 0.951 . S
C477 C475 1.388 . S
C477 C478 1.366 . S
C478 C477 1.366 . S
C478 C479 1.414 . S
C478 C481 1.499 . S
C479 H453 0.950 . S
C479 C478 1.414 . S
C479 C480 1.374 . S
C480 H454 0.950 . S
C480 C476 1.385 . S
C480 C479 1.374 . S
C481 C478 1.499 . S
C481 C482 1.373 . S
C481 C483 1.389 . S
C482 H455 0.950 . S
C482 C468 1.377 . S
C482 C481 1.373 . S
C483 C467 1.377 . S
C483 C481 1.389 . S
C483 C484 1.524 . S
C484 C483 1.524 . S
C484 C485 1.397 . S
C484 C489 1.363 . S
C485 H456 0.950 . S
C485 C484 1.397 . S
C485 C486 1.334 . S
C486 H457 0.950 . S
C486 C485 1.334 . S
C486 C487 1.287 . S
C487 C486 1.287 . S
C487 C488 1.524 . S
C487 H490 0.999 . S
C488 H458 0.950 . S
C488 C487 1.524 . S
C488 C489 1.415 . S
C489 H459 0.950 . S
C489 C484 1.363 . S
C489 C488 1.415 . S
H490 C487 0.999 . S
H491 C472 0.913 . S
H492 C510 0.951 . S
H493 C512 0.951 . S
H494 C514 0.950 . S
H495 C515 0.950 . S
H496 C517 0.950 . S
H497 C520 0.950 . S
H498 C521 0.950 . S
H499 C523 0.950 . S
H500 C524 0.950 . S
H501 C525 0.951 . S
H502 C527 0.951 . S
H503 C529 0.950 . S
H504 C530 0.950 . S
H505 C532 0.950 . S
H506 C535 0.950 . S
H507 C536 0.950 . S
H508 C538 0.950 . S
H509 C539 0.950 . S
C510 H492 0.951 . S
C510 C511 1.366 . S
C510 C512 1.388 . S
C511 C510 1.366 . S
C511 C515 1.385 . S
C512 H493 0.951 . S
C512 C510 1.388 . S
C512 C513 1.366 . S
C513 C512 1.366 . S
C513 C514 1.414 . S
C513 C516 1.499 . S
C514 H494 0.950 . S
C514 C513 1.414 . S
C514 C515 1.374 . S
C515 H495 0.950 . S
C515 C511 1.385 . S
C515 C514 1.374 . S
C516 C513 1.499 . S
C516 C517 1.373 . S
C516 C518 1.389 . S
C517 H496 0.950 . S
C517 C516 1.373 . S
C517 C533 1.377 . S
C518 C516 1.389 . S
C518 C519 1.524 . S
C518 C532 1.377 . S
C519 C518 1.524 . S
C519 C520 1.397 . S
C519 C524 1.363 . S
C520 H497 0.950 . S
C520 C519 1.397 . S
C520 C521 1.334 . S
C521 H498 0.950 . S
C521 C520 1.334 . S
C521 C522 1.287 . S
C522 C521 1.287 . S
C522 C523 1.524 . S
C522 H541 0.913 . S
C523 H499 0.950 . S
C523 C522 1.524 . S
C523 C524 1.415 . S
C524 H500 0.950 . S
C524 C519 1.363 . S
C524 C523 1.415 . S
C525 H501 0.951 . S
C525 C526 1.366 . S
C525 C527 1.388 . S
C526 C525 1.366 . S
C526 C530 1.385 . S
C527 H502 0.951 . S
C527 C525 1.388 . S
C527 C528 1.366 . S
C528 C527 1.366 . S
C528 C529 1.414 . S
C528 C531 1.499 . S
C529 H503 0.950 . S
C529 C528 1.414 . S
C529 C530 1.374 . S
C530 H504 0.950 . S
C530 C526 1.385 . S
C530 C529 1.374 . S
C531 C528 1.499 . S
C531 C532 1.373 . S
C531 C533 1.389 . S
C532 H505 0.950 . S
C532 C518 1.377 . S
C532 C531 1.373 . S
C533 C517 1.377 . S
C533 C531 1.389 . S
C533 C534 1.524 . S
C534 C533 1.524 . S
C534 C535 1.397 . S
C534 C539 1.363 . S
C535 H506 0.950 . S
C535 C534 1.397 . S
C535 C536 1.334 . S
C536 H507 0.950 . S
C536 C535 1.334 . S
C536 C537 1.287 . S
C537 C536 1.287 . S
C537 C538 1.524 . S
C537 H540 0.999 . S
C538 H508 0.950 . S
C538 C537 1.524 . S
C538 C539 1.415 . S
C539 H509 0.950 . S
C539 C534 1.363 . S
C539 C538 1.415 . S
H540 C537 0.999 . S
H541 C522 0.913 . S
H542 C560 0.951 . S
H543 C562 0.951 . S
H544 C564 0.950 . S
H545 C565 0.950 . S
H546 C567 0.950 . S
H547 C570 0.950 . S
H548 C571 0.950 . S
H549 C573 0.950 . S
H550 C574 0.950 . S
H551 C575 0.951 . S
H552 C577 0.951 . S
H553 C579 0.950 . S
H554 C580 0.950 . S
H555 C582 0.950 . S
H556 C585 0.950 . S
H557 C586 0.950 . S
H558 C588 0.950 . S
H559 C589 0.950 . S
C560 H542 0.951 . S
C560 C561 1.366 . S
C560 C562 1.388 . S
C561 C560 1.366 . S
C561 C565 1.385 . S
C562 H543 0.951 . S
C562 C560 1.388 . S
C562 C563 1.366 . S
C563 C562 1.366 . S
C563 C564 1.414 . S
C563 C566 1.499 . S
C564 H544 0.950 . S
C564 C563 1.414 . S
C564 C565 1.374 . S
C565 H545 0.950 . S
C565 C561 1.385 . S
C565 C564 1.374 . S
C566 C563 1.499 . S
C566 C567 1.373 . S
C566 C568 1.389 . S
C567 H546 0.950 . S
C567 C566 1.373 . S
C567 C583 1.377 . S
C568 C566 1.389 . S
C568 C569 1.524 . S
C568 C582 1.377 . S
C569 C568 1.524 . S
C569 C570 1.397 . S
C569 C574 1.363 . S
C570 H547 0.950 . S
C570 C569 1.397 . S
C570 C571 1.334 . S
C571 H548 0.950 . S
C571 C570 1.334 . S
C571 C572 1.287 . S
C572 C571 1.287 . S
C572 C573 1.524 . S
C572 H591 0.913 . S
C573 H549 0.950 . S
C573 C572 1.524 . S
C573 C574 1.415 . S
C574 H550 0.950 . S
C574 C569 1.363 . S
C574 C573 1.415 . S
C575 H551 0.951 . S
C575 C576 1.366 . S
C575 C577 1.388 . S
C576 C575 1.366 . S
C576 C580 1.385 . S
C577 H552 0.951 . S
C577 C575 1.388 . S
C577 C578 1.366 . S
C578 C577 1.366 . S
C578 C579 1.414 . S
C578 C581 1.499 . S
C579 H553 0.950 . S
C579 C578 1.414 . S
C579 C580 1.374 . S
C580 H554 0.950 . S
C580 C576 1.385 . S
C580 C579 1.374 . S
C581 C578 1.499 . S
C581 C582 1.373 . S
C581 C583 1.389 . S
C582 H555 0.950 . S
C582 C568 1.377 . S
C582 C581 1.373 . S
C583 C567 1.377 . S
C583 C581 1.389 . S
C583 C584 1.524 . S
C584 C583 1.524 . S
C584 C585 1.397 . S
C584 C589 1.363 . S
C585 H556 0.950 . S
C585 C584 1.397 . S
C585 C586 1.334 . S
C586 H557 0.950 . S
C586 C585 1.334 . S
C586 C587 1.287 . S
C587 C586 1.287 . S
C587 C588 1.524 . S
C587 H590 0.999 . S
C588 H558 0.950 . S
C588 C587 1.524 . S
C588 C589 1.415 . S
C589 H559 0.950 . S
C589 C584 1.363 . S
C589 C588 1.415 . S
H590 C587 0.999 . S
H591 C572 0.913 . S
H592 C610 0.951 . S
H593 C612 0.951 . S
H594 C614 0.950 . S
H595 C615 0.950 . S
H596 C617 0.950 . S
H597 C620 0.950 . S
H598 C621 0.950 . S
H599 C623 0.950 . S
H600 C624 0.950 . S
H601 C625 0.951 . S
H602 C627 0.951 . S
H603 C629 0.950 . S
H604 C630 0.950 . S
H605 C632 0.950 . S
H606 C635 0.950 . S
H607 C636 0.950 . S
H608 C638 0.950 . S
H609 C639 0.950 . S
C610 H592 0.951 . S
C610 C611 1.366 . S
C610 C612 1.388 . S
C611 C610 1.366 . S
C611 C615 1.385 . S
C612 H593 0.951 . S
C612 C610 1.388 . S
C612 C613 1.366 . S
C613 C612 1.366 . S
C613 C614 1.414 . S
C613 C616 1.499 . S
C614 H594 0.950 . S
C614 C613 1.414 . S
C614 C615 1.374 . S
C615 H595 0.950 . S
C615 C611 1.385 . S
C615 C614 1.374 . S
C616 C613 1.499 . S
C616 C617 1.373 . S
C616 C618 1.389 . S
C617 H596 0.950 . S
C617 C616 1.373 . S
C617 C633 1.377 . S
C618 C616 1.389 . S
C618 C619 1.524 . S
C618 C632 1.377 . S
C619 C618 1.524 . S
C619 C620 1.397 . S
C619 C624 1.363 . S
C620 H597 0.950 . S
C620 C619 1.397 . S
C620 C621 1.334 . S
C621 H598 0.950 . S
C621 C620 1.334 . S
C621 C622 1.287 . S
C622 C621 1.287 . S
C622 C623 1.524 . S
C622 H641 0.913 . S
C623 H599 0.950 . S
C623 C622 1.524 . S
C623 C624 1.415 . S
C624 H600 0.950 . S
C624 C619 1.363 . S
C624 C623 1.415 . S
C625 H601 0.951 . S
C625 C626 1.366 . S
C625 C627 1.388 . S
C626 C625 1.366 . S
C626 C630 1.385 . S
C627 H602 0.951 . S
C627 C625 1.388 . S
C627 C628 1.366 . S
C628 C627 1.366 . S
C628 C629 1.414 . S
C628 C631 1.499 . S
C629 H603 0.950 . S
C629 C628 1.414 . S
C629 C630 1.374 . S
C630 H604 0.950 . S
C630 C626 1.385 . S
C630 C629 1.374 . S
C631 C628 1.499 . S
C631 C632 1.373 . S
C631 C633 1.389 . S
C632 H605 0.950 . S
C632 C618 1.377 . S
C632 C631 1.373 . S
C633 C617 1.377 . S
C633 C631 1.389 . S
C633 C634 1.524 . S
C634 C633 1.524 . S
C634 C635 1.397 . S
C634 C639 1.363 . S
C635 H606 0.950 . S
C635 C634 1.397 . S
C635 C636 1.334 . S
C636 H607 0.950 . S
C636 C635 1.334 . S
C636 C637 1.287 . S
C637 C636 1.287 . S
C637 C638 1.524 . S
C637 H640 0.999 . S
C638 H608 0.950 . S
C638 C637 1.524 . S
C638 C639 1.415 . S
C639 H609 0.950 . S
C639 C634 1.363 . S
C639 C638 1.415 . S
H640 C637 0.999 . S
H641 C622 0.913 . S
H642 C660 0.951 . S
H643 C662 0.951 . S
H644 C664 0.950 . S
H645 C665 0.950 . S
H646 C667 0.950 . S
H647 C670 0.950 . S
H648 C671 0.950 . S
H649 C673 0.950 . S
H650 C674 0.950 . S
H651 C675 0.951 . S
H652 C677 0.951 . S
H653 C679 0.950 . S
H654 C680 0.950 . S
H655 C682 0.950 . S
H656 C685 0.950 . S
H657 C686 0.950 . S
H658 C688 0.950 . S
H659 C689 0.950 . S
C660 H642 0.951 . S
C660 C661 1.366 . S
C660 C662 1.388 . S
C661 C660 1.366 . S
C661 C665 1.385 . S
C662 H643 0.951 . S
C662 C660 1.388 . S
C662 C663 1.366 . S
C663 C662 1.366 . S
C663 C664 1.414 . S
C663 C666 1.499 . S
C664 H644 0.950 . S
C664 C663 1.414 . S
C664 C665 1.374 . S
C665 H645 0.950 . S
C665 C661 1.385 . S
C665 C664 1.374 . S
C666 C663 1.499 . S
C666 C667 1.373 . S
C666 C668 1.389 . S
C667 H646 0.950 . S
C667 C666 1.373 . S
C667 C683 1.377 . S
C668 C666 1.389 . S
C668 C669 1.524 . S
C668 C682 1.377 . S
C669 C668 1.524 . S
C669 C670 1.397 . S
C669 C674 1.363 . S
C670 H647 0.950 . S
C670 C669 1.397 . S
C670 C671 1.334 . S
C671 H648 0.950 . S
C671 C670 1.334 . S
C671 C672 1.287 . S
C672 C671 1.287 . S
C672 C673 1.524 . S
C672 H691 0.913 . S
C673 H649 0.950 . S
C673 C672 1.524 . S
C673 C674 1.415 . S
C674 H650 0.950 . S
C674 C669 1.363 . S
C674 C673 1.415 . S
C675 H651 0.951 . S
C675 C676 1.366 . S
C675 C677 1.388 . S
C676 C675 1.366 . S
C676 C680 1.385 . S
C677 H652 0.951 . S
C677 C675 1.388 . S
C677 C678 1.366 . S
C678 C677 1.366 . S
C678 C679 1.414 . S
C678 C681 1.499 . S
C679 H653 0.950 . S
C679 C678 1.414 . S
C679 C680 1.374 . S
C680 H654 0.950 . S
C680 C676 1.385 . S
C680 C679 1.374 . S
C681 C678 1.499 . S
C681 C682 1.373 . S
C681 C683 1.389 . S
C682 H655 0.950 . S
C682 C668 1.377 . S
C682 C681 1.373 . S
C683 C667 1.377 . S
C683 C681 1.389 . S
C683 C684 1.524 . S
C684 C683 1.524 . S
C684 C685 1.397 . S
C684 C689 1.363 . S
C685 H656 0.950 . S
C685 C684 1.397 . S
C685 C686 1.334 . S
C686 H657 0.950 . S
C686 C685 1.334 . S
C686 C687 1.287 . S
C687 C686 1.287 . S
C687 C688 1.524 . S
C687 H690 0.999 . S
C688 H658 0.950 . S
C688 C687 1.524 . S
C688 C689 1.415 . S
C689 H659 0.950 . S
C689 C684 1.363 . S
C689 C688 1.415 . S
H690 C687 0.999 . S
H691 C672 0.913 . S
H692 C710 0.951 . S
H693 C712 0.951 . S
H694 C714 0.950 . S
H695 C715 0.950 . S
H696 C717 0.950 . S
H697 C720 0.950 . S
H698 C721 0.950 . S
H699 C723 0.950 . S
H700 C724 0.950 . S
H701 C725 0.951 . S
H702 C727 0.951 . S
H703 C729 0.950 . S
H704 C730 0.950 . S
H705 C732 0.950 . S
H706 C735 0.950 . S
H707 C736 0.950 . S
H708 C738 0.950 . S
H709 C739 0.950 . S
C710 H692 0.951 . S
C710 C711 1.366 . S
C710 C712 1.388 . S
C711 C710 1.366 . S
C711 C715 1.385 . S
C712 H693 0.951 . S
C712 C710 1.388 . S
C712 C713 1.366 . S
C713 C712 1.366 . S
C713 C714 1.414 . S
C713 C716 1.499 . S
C714 H694 0.950 . S
C714 C713 1.414 . S
C714 C715 1.374 . S
C715 H695 0.950 . S
C715 C711 1.385 . S
C715 C714 1.374 . S
C716 C713 1.499 . S
C716 C717 1.373 . S
C716 C718 1.389 . S
C717 H696 0.950 . S
C717 C716 1.373 . S
C717 C733 1.377 . S
C718 C716 1.389 . S
C718 C719 1.524 . S
C718 C732 1.377 . S
C719 C718 1.524 . S
C719 C720 1.397 . S
C719 C724 1.363 . S
C720 H697 0.950 . S
C720 C719 1.397 . S
C720 C721 1.334 . S
C721 H698 0.950 . S
C721 C720 1.334 . S
C721 C722 1.287 . S
C722 C721 1.287 . S
C722 C723 1.524 . S
C722 H741 0.913 . S
C723 H699 0.950 . S
C723 C722 1.524 . S
C723 C724 1.415 . S
C724 H700 0.950 . S
C724 C719 1.363 . S
C724 C723 1.415 . S
C725 H701 0.951 . S
C725 C726 1.366 . S
C725 C727 1.388 . S
C726 C725 1.366 . S
C726 C730 1.385 . S
C727 H702 0.951 . S
C727 C725 1.388 . S
C727 C728 1.366 . S
C728 C727 1.366 . S
C728 C729 1.414 . S
C728 C731 1.499 . S
C729 H703 0.950 . S
C729 C728 1.414 . S
C729 C730 1.374 . S
C730 H704 0.950 . S
C730 C726 1.385 . S
C730 C729 1.374 . S
C731 C728 1.499 . S
C731 C732 1.373 . S
C731 C733 1.389 . S
C732 H705 0.950 . S
C732 C718 1.377 . S
C732 C731 1.373 . S
C733 C717 1.377 . S
C733 C731 1.389 . S
C733 C734 1.524 . S
C734 C733 1.524 . S
C734 C735 1.397 . S
C734 C739 1.363 . S
C735 H706 0.950 . S
C735 C734 1.397 . S
C735 C736 1.334 . S
C736 H707 0.950 . S
C736 C735 1.334 . S
C736 C737 1.287 . S
C737 C736 1.287 . S
C737 C738 1.524 . S
C737 H740 0.999 . S
C738 H708 0.950 . S
C738 C737 1.524 . S
C738 C739 1.415 . S
C739 H709 0.950 . S
C739 C734 1.363 . S
C739 C738 1.415 . S
H740 C737 0.999 . S
H741 C722 0.913 . S
H742 C760 0.951 . S
H743 C762 0.951 . S
H744 C764 0.950 . S
H745 C765 0.950 . S
H746 C767 0.950 . S
H747 C770 0.950 . S
H748 C771 0.950 . S
H749 C773 0.950 . S
H750 C774 0.950 . S
H751 C775 0.951 . S
H752 C777 0.951 . S
H753 C779 0.950 . S
H754 C780 0.950 . S
H755 C782 0.950 . S
H756 C785 0.950 . S
H757 C786 0.950 . S
H758 C788 0.950 . S
H759 C789 0.950 . S
C760 H742 0.951 . S
C760 C761 1.366 . S
C760 C762 1.388 . S
C761 C760 1.366 . S
C761 C765 1.385 . S
C762 H743 0.951 . S
C762 C760 1.388 . S
C762 C763 1.366 . S
C763 C762 1.366 . S
C763 C764 1.414 . S
C763 C766 1.499 . S
C764 H744 0.950 . S
C764 C763 1.414 . S
C764 C765 1.374 . S
C765 H745 0.950 . S
C765 C761 1.385 . S
C765 C764 1.374 . S
C766 C763 1.499 . S
C766 C767 1.373 . S
C766 C768 1.389 . S
C767 H746 0.950 . S
C767 C766 1.373 . S
C767 C783 1.377 . S
C768 C766 1.389 . S
C768 C769 1.524 . S
C768 C782 1.377 . S
C769 C768 1.524 . S
C769 C770 1.397 . S
C769 C774 1.363 . S
C770 H747 0.950 . S
C770 C769 1.397 . S
C770 C771 1.334 . S
C771 H748 0.950 . S
C771 C770 1.334 . S
C771 C772 1.287 . S
C772 C771 1.287 . S
C772 C773 1.524 . S
C772 H791 0.913 . S
C773 H749 0.950 . S
C773 C772 1.524 . S
C773 C774 1.415 . S
C774 H750 0.950 . S
C774 C769 1.363 . S
C774 C773 1.415 . S
C775 H751 0.951 . S
C775 C776 1.366 . S
C775 C777 1.388 . S
C776 C775 1.366 . S
C776 C780 1.385 . S
C777 H752 0.951 . S
C777 C775 1.388 . S
C777 C778 1.366 . S
C778 C777 1.366 . S
C778 C779 1.414 . S
C778 C781 1.499 . S
C779 H753 0.950 . S
C779 C778 1.414 . S
C779 C780 1.374 . S
C780 H754 0.950 . S
C780 C776 1.385 . S
C780 C779 1.374 . S
C781 C778 1.499 . S
C781 C782 1.373 . S
C781 C783 1.389 . S
C782 H755 0.950 . S
C782 C768 1.377 . S
C782 C781 1.373 . S
C783 C767 1.377 . S
C783 C781 1.389 . S
C783 C784 1.524 . S
C784 C783 1.524 . S
C784 C785 1.397 . S
C784 C789 1.363 . S
C785 H756 0.950 . S
C785 C784 1.397 . S
C785 C786 1.334 . S
C786 H757 0.950 . S
C786 C785 1.334 . S
C786 C787 1.287 . S
C787 C786 1.287 . S
C787 C788 1.524 . S
C787 H790 0.999 . S
C788 H758 0.950 . S
C788 C787 1.524 . S
C788 C789 1.415 . S
C789 H759 0.950 . S
C789 C784 1.363 . S
C789 C788 1.415 . S
H790 C787 0.999 . S
H791 C772 0.913 . S
H792 C810 0.951 . S
H793 C812 0.951 . S
H794 C814 0.950 . S
H795 C815 0.950 . S
H796 C817 0.950 . S
H797 C820 0.950 . S
H798 C821 0.950 . S
H799 C823 0.950 . S
H800 C824 0.950 . S
H801 C825 0.951 . S
H802 C827 0.951 . S
H803 C829 0.950 . S
H804 C830 0.950 . S
H805 C832 0.950 . S
H806 C835 0.950 . S
H807 C836 0.950 . S
H808 C838 0.950 . S
H809 C839 0.950 . S
C810 H792 0.951 . S
C810 C811 1.366 . S
C810 C812 1.388 . S
C811 C810 1.366 . S
C811 C815 1.385 . S
C812 H793 0.951 . S
C812 C810 1.388 . S
C812 C813 1.366 . S
C813 C812 1.366 . S
C813 C814 1.414 . S
C813 C816 1.499 . S
C814 H794 0.950 . S
C814 C813 1.414 . S
C814 C815 1.374 . S
C815 H795 0.950 . S
C815 C811 1.385 . S
C815 C814 1.374 . S
C816 C813 1.499 . S
C816 C817 1.373 . S
C816 C818 1.389 . S
C817 H796 0.950 . S
C817 C816 1.373 . S
C817 C833 1.377 . S
C818 C816 1.389 . S
C818 C819 1.524 . S
C818 C832 1.377 . S
C819 C818 1.524 . S
C819 C820 1.397 . S
C819 C824 1.363 . S
C820 H797 0.950 . S
C820 C819 1.397 . S
C820 C821 1.334 . S
C821 H798 0.950 . S
C821 C820 1.334 . S
C821 C822 1.287 . S
C822 C821 1.287 . S
C822 C823 1.524 . S
C822 H841 0.913 . S
C823 H799 0.950 . S
C823 C822 1.524 . S
C823 C824 1.415 . S
C824 H800 0.950 . S
C824 C819 1.363 . S
C824 C823 1.415 . S
C825 H801 0.951 . S
C825 C826 1.366 . S
C825 C827 1.388 . S
C826 C825 1.366 . S
C826 C830 1.385 . S
C827 H802 0.951 . S
C827 C825 1.388 . S
C827 C828 1.366 . S
C828 C827 1.366 . S
C828 C829 1.414 . S
C828 C831 1.499 . S
C829 H803 0.950 . S
C829 C828 1.414 . S
C829 C830 1.374 . S
C830 H804 0.950 . S
C830 C826 1.385 . S
C830 C829 1.374 . S
C831 C828 1.499 . S
C831 C832 1.373 . S
C831 C833 1.389 . S
C832 H805 0.950 . S
C832 C818 1.377 . S
C832 C831 1.373 . S
C833 C817 1.377 . S
C833 C831 1.389 . S
C833 C834 1.524 . S
C834 C833 1.524 . S
C834 C835 1.397 . S
C834 C839 1.363 . S
C835 H806 0.950 . S
C835 C834 1.397 . S
C835 C836 1.334 . S
C836 H807 0.950 . S
C836 C835 1.334 . S
C836 C837 1.287 . S
C837 C836 1.287 . S
C837 C838 1.524 . S
C837 H840 0.999 . S
C838 H808 0.950 . S
C838 C837 1.524 . S
C838 C839 1.415 . S
C839 H809 0.950 . S
C839 C834 1.363 . S
C839 C838 1.415 . S
H840 C837 0.999 . S
H841 C822 0.913 . S
H842 C860 0.951 . S
H843 C862 0.951 . S
H844 C864 0.950 . S
H845 C865 0.950 . S
H846 C867 0.950 . S
H847 C870 0.950 . S
H848 C871 0.950 . S
H849 C873 0.950 . S
H850 C874 0.950 . S
H851 C875 0.951 . S
H852 C877 0.951 . S
H853 C879 0.950 . S
H854 C880 0.950 . S
H855 C882 0.950 . S
H856 C885 0.950 . S
H857 C886 0.950 . S
H858 C888 0.950 . S
H859 C889 0.950 . S
C860 H842 0.951 . S
C860 C861 1.366 . S
C860 C862 1.388 . S
C861 C860 1.366 . S
C861 C865 1.385 . S
C862 H843 0.951 . S
C862 C860 1.388 . S
C862 C863 1.366 . S
C863 C862 1.366 . S
C863 C864 1.414 . S
C863 C866 1.499 . S
C864 H844 0.950 . S
C864 C863 1.414 . S
C864 C865 1.374 . S
C865 H845 0.950 . S
C865 C861 1.385 . S
C865 C864 1.374 . S
C866 C863 1.499 . S
C866 C867 1.373 . S
C866 C868 1.389 . S
C867 H846 0.950 . S
C867 C866 1.373 . S
C867 C883 1.377 . S
C868 C866 1.389 . S
C868 C869 1.524 . S
C868 C882 1.377 . S
C869 C868 1.524 . S
C869 C870 1.397 . S
C869 C874 1.363 . S
C870 H847 0.950 . S
C870 C869 1.397 . S
C870 C871 1.334 . S
C871 H848 0.950 . S
C871 C870 1.334 . S
C871 C872 1.287 . S
C872 C871 1.287 . S
C872 C873 1.524 . S
C872 H891 0.913 . S
C873 H849 0.950 . S
C873 C872 1.524 . S
C873 C874 1.415 . S
C874 H850 0.950 . S
C874 C869 1.363 . S
C874 C873 1.415 . S
C875 H851 0.951 . S
C875 C876 1.366 . S
C875 C877 1.388 . S
C876 C875 1.366 . S
C876 C880 1.385 . S
C877 H852 0.951 . S
C877 C875 1.388 . S
C877 C878 1.366 . S
C878 C877 1.366 . S
C878 C879 1.414 . S
C878 C881 1.499 . S
C879 H853 0.950 . S
C879 C878 1.414 . S
C879 C880 1.374 . S
C880 H854 0.950 . S
C880 C876 1.385 . S
C880 C879 1.374 . S
C881 C878 1.499 . S
C881 C882 1.373 . S
C881 C883 1.389 . S
C882 H855 0.950 . S
C882 C868 1.377 . S
C882 C881 1.373 . S
C883 C867 1.377 . S
C883 C881 1.389 . S
C883 C884 1.524 . S
C884 C883 1.524 . S
C884 C885 1.397 . S
C884 C889 1.363 . S
C885 H856 0.950 . S
C885 C884 1.397 . S
C885 C886 1.334 . S
C886 H857 0.950 . S
C886 C885 1.334 . S
C886 C887 1.287 . S
C887 C886 1.287 . S
C887 C888 1.524 . S
C887 H890 0.999 . S
C888 H858 0.950 . S
C888 C887 1.524 . S
C888 C889 1.415 . S
C889 H859 0.950 . S
C889 C884 1.363 . S
C889 C888 1.415 . S
H890 C887 0.999 . S
H891 C872 0.913 . S
H892 C910 0.951 . S
H893 C912 0.951 . S
H894 C914 0.950 . S
H895 C915 0.950 . S
H896 C917 0.950 . S
H897 C920 0.950 . S
H898 C921 0.950 . S
H899 C923 0.950 . S
H900 C924 0.950 . S
H901 C925 0.951 . S
H902 C927 0.951 . S
H903 C929 0.950 . S
H904 C930 0.950 . S
H905 C932 0.950 . S
H906 C935 0.950 . S
H907 C936 0.950 . S
H908 C938 0.950 . S
H909 C939 0.950 . S
C910 H892 0.951 . S
C910 C911 1.366 . S
C910 C912 1.388 . S
C911 C910 1.366 . S
C911 C915 1.385 . S
C912 H893 0.951 . S
C912 C910 1.388 . S
C912 C913 1.366 . S
C913 C912 1.366 . S
C913 C914 1.414 . S
C913 C916 1.499 . S
C914 H894 0.950 . S
C914 C913 1.414 . S
C914 C915 1.374 . S
C915 H895 0.950 . S
C915 C911 1.385 . S
C915 C914 1.374 . S
C916 C913 1.499 . S
C916 C917 1.373 . S
C916 C918 1.389 . S
C917 H896 0.950 . S
C917 C916 1.373 . S
C917 C933 1.377 . S
C918 C916 1.389 . S
C918 C919 1.524 . S
C918 C932 1.377 . S
C919 C918 1.524 . S
C919 C920 1.397 . S
C919 C924 1.363 . S
C920 H897 0.950 . S
C920 C919 1.397 . S
C920 C921 1.334 . S
C921 H898 0.950 . S
C921 C920 1.334 . S
C921 C922 1.287 . S
C922 C921 1.287 . S
C922 C923 1.524 . S
C922 H941 0.913 . S
C923 H899 0.950 . S
C923 C922 1.524 . S
C923 C924 1.415 . S
C924 H900 0.950 . S
C924 C919 1.363 . S
C924 C923 1.415 . S
C925 H901 0.951 . S
C925 C926 1.366 . S
C925 C927 1.388 . S
C926 C925 1.366 . S
C926 C930 1.385 . S
C927 H902 0.951 . S
C927 C925 1.388 . S
C927 C928 1.366 . S
C928 C927 1.366 . S
C928 C929 1.414 . S
C928 C931 1.499 . S
C929 H903 0.950 . S
C929 C928 1.414 . S
C929 C930 1.374 . S
C930 H904 0.950 . S
C930 C926 1.385 . S
C930 C929 1.374 . S
C931 C928 1.499 . S
C931 C932 1.373 . S
C931 C933 1.389 . S
C932 H905 0.950 . S
C932 C918 1.377 . S
C932 C931 1.373 . S
C933 C917 1.377 . S
C933 C931 1.389 . S
C933 C934 1.524 . S
C934 C933 1.524 . S
C934 C935 1.397 . S
C934 C939 1.363 . S
C935 H906 0.950 . S
C935 C934 1.397 . S
C935 C936 1.334 . S
C936 H907 0.950 . S
C936 C935 1.334 . S
C936 C937 1.287 . S
C937 C936 1.287 . S
C937 C938 1.524 . S
C937 H940 0.999 1_556 S
C938 H908 0.950 . S
C938 C937 1.524 . S
C938 C939 1.415 . S
C939 H909 0.950 . S
C939 C934 1.363 . S
C939 C938 1.415 . S
H940 C937 0.999 1_554 S
H941 C922 0.913 . S
H942 C960 0.951 . S
H943 C962 0.951 . S
H944 C964 0.950 . S
H945 C965 0.950 . S
H946 C967 0.950 . S
H947 C970 0.950 . S
H948 C971 0.950 . S
H949 C973 0.950 . S
H950 C974 0.950 . S
H951 C975 0.951 . S
H952 C977 0.951 . S
H953 C979 0.950 . S
H954 C980 0.950 . S
H955 C982 0.950 . S
H956 C985 0.950 . S
H957 C986 0.950 . S
H958 C988 0.950 . S
H959 C989 0.950 . S
C960 H942 0.951 . S
C960 C961 1.366 . S
C960 C962 1.388 . S
C961 C960 1.366 . S
C961 C965 1.385 . S
C962 H943 0.951 . S
C962 C960 1.388 . S
C962 C963 1.366 . S
C963 C962 1.366 . S
C963 C964 1.414 . S
C963 C966 1.499 . S
C964 H944 0.950 . S
C964 C963 1.414 . S
C964 C965 1.374 . S
C965 H945 0.950 . S
C965 C961 1.385 . S
C965 C964 1.374 . S
C966 C963 1.499 . S
C966 C967 1.373 . S
C966 C968 1.389 . S
C967 H946 0.950 . S
C967 C966 1.373 . S
C967 C983 1.377 . S
C968 C966 1.389 . S
C968 C969 1.524 . S
C968 C982 1.377 . S
C969 C968 1.524 . S
C969 C970 1.397 . S
C969 C974 1.363 . S
C970 H947 0.950 . S
C970 C969 1.397 . S
C970 C971 1.334 . S
C971 H948 0.950 . S
C971 C970 1.334 . S
C971 C972 1.287 . S
C972 C971 1.287 . S
C972 C973 1.524 . S
C972 H991 0.913 . S
C973 H949 0.950 . S
C973 C972 1.524 . S
C973 C974 1.415 . S
C974 H950 0.950 . S
C974 C969 1.363 . S
C974 C973 1.415 . S
C975 H951 0.951 . S
C975 C976 1.366 . S
C975 C977 1.388 . S
C976 C975 1.366 . S
C976 C980 1.385 . S
C977 H952 0.951 . S
C977 C975 1.388 . S
C977 C978 1.366 . S
C978 C977 1.366 . S
C978 C979 1.414 . S
C978 C981 1.499 . S
C979 H953 0.950 . S
C979 C978 1.414 . S
C979 C980 1.374 . S
C980 H954 0.950 . S
C980 C976 1.385 . S
C980 C979 1.374 . S
C981 C978 1.499 . S
C981 C982 1.373 . S
C981 C983 1.389 . S
C982 H955 0.950 . S
C982 C968 1.377 . S
C982 C981 1.373 . S
C983 C967 1.377 . S
C983 C981 1.389 . S
C983 C984 1.524 . S
C984 C983 1.524 . S
C984 C985 1.397 . S
C984 C989 1.363 . S
C985 H956 0.950 . S
C985 C984 1.397 . S
C985 C986 1.334 . S
C986 H957 0.950 . S
C986 C985 1.334 . S
C986 C987 1.287 . S
C987 C986 1.287 . S
C987 C988 1.524 . S
C987 H990 0.999 . S
C988 H958 0.950 . S
C988 C987 1.524 . S
C988 C989 1.415 . S
C989 H959 0.950 . S
C989 C984 1.363 . S
C989 C988 1.415 . S
H990 C987 0.999 . S
H991 C972 0.913 . S
H992 C1010 0.951 . S
H993 C1012 0.950 1_556 S
H994 C1014 0.950 . S
H995 C1015 0.950 . S
H996 C1017 0.950 . S
H997 C1020 0.950 . S
H998 C1021 0.950 . S
H999 C1023 0.950 . S
H1000 C1024 0.950 . S
H1001 C1025 0.951 . S
H1002 C1027 0.951 . S
H1003 C1029 0.950 . S
H1004 C1030 0.950 . S
H1005 C1032 0.950 . S
H1006 C1035 0.950 . S
H1007 C1036 0.950 . S
H1008 C1038 0.950 . S
H1009 C1039 0.950 . S
C1010 H992 0.951 . S
C1010 C1011 1.366 1_556 S
C1010 C1012 1.388 1_556 S
C1011 C1010 1.366 1_554 S
C1011 C1015 1.385 . S
C1012 H993 0.950 1_554 S
C1012 C1010 1.388 1_554 S
C1012 C1013 1.366 . S
C1013 C1012 1.366 . S
C1013 C1014 1.414 . S
C1013 C1016 1.499 . S
C1014 H994 0.950 . S
C1014 C1013 1.414 . S
C1014 C1015 1.374 . S
C1015 H995 0.950 . S
C1015 C1011 1.385 . S
C1015 C1014 1.374 . S
C1016 C1013 1.499 . S
C1016 C1017 1.373 1_554 S
C1016 C1018 1.389 . S
C1017 H996 0.950 . S
C1017 C1016 1.373 1_556 S
C1017 C1033 1.377 . S
C1018 C1016 1.389 . S
C1018 C1019 1.524 . S
C1018 C1032 1.377 . S
C1019 C1018 1.524 . S
C1019 C1020 1.397 . S
C1019 C1024 1.363 . S
C1020 H997 0.950 . S
C1020 C1019 1.397 . S
C1020 C1021 1.334 . S
C1021 H998 0.950 . S
C1021 C1020 1.334 . S
C1021 C1022 1.287 . S
C1022 C1021 1.287 . S
C1022 C1023 1.524 . S
C1022 H1041 0.913 . S
C1023 H999 0.950 . S
C1023 C1022 1.524 . S
C1023 C1024 1.415 . S
C1024 H1000 0.950 . S
C1024 C1019 1.363 . S
C1024 C1023 1.415 . S
C1025 H1001 0.951 . S
C1025 C1026 1.366 . S
C1025 C1027 1.388 . S
C1026 C1025 1.366 . S
C1026 C1030 1.384 1_554 S
C1027 H1002 0.951 . S
C1027 C1025 1.388 . S
C1027 C1028 1.365 1_554 S
C1028 C1027 1.365 1_556 S
C1028 C1029 1.414 . S
C1028 C1031 1.499 . S
C1029 H1003 0.950 . S
C1029 C1028 1.414 . S
C1029 C1030 1.374 . S
C1030 H1004 0.950 . S
C1030 C1026 1.384 1_556 S
C1030 C1029 1.374 . S
C1031 C1028 1.499 . S
C1031 C1032 1.373 1_556 S
C1031 C1033 1.389 . S
C1032 H1005 0.950 . S
C1032 C1018 1.377 . S
C1032 C1031 1.373 1_554 S
C1033 C1017 1.377 . S
C1033 C1031 1.389 . S
C1033 C1034 1.524 . S
C1034 C1033 1.524 . S
C1034 C1035 1.397 . S
C1034 C1039 1.363 . S
C1035 H1006 0.950 . S
C1035 C1034 1.397 . S
C1035 C1036 1.334 . S
C1036 H1007 0.950 . S
C1036 C1035 1.334 . S
C1036 C1037 1.287 . S
C1037 C1036 1.287 . S
C1037 C1038 1.524 . S
C1037 H1040 0.999 . S
C1038 H1008 0.950 . S
C1038 C1037 1.524 . S
C1038 C1039 1.415 . S
C1039 H1009 0.950 . S
C1039 C1034 1.363 . S
C1039 C1038 1.415 . S
H1040 C1037 0.999 . S
H1041 C1022 0.913 . S
H1042 C1060 0.951 . S
H1043 C1062 0.951 . S
H1044 C1064 0.950 . S
H1045 C1065 0.950 . S
H1046 C1067 0.950 . S
H1047 C1070 0.950 . S
H1048 C1071 0.950 . S
H1049 C1073 0.950 . S
H1050 C1074 0.950 . S
H1051 C1075 0.951 . S
H1052 C1077 0.951 . S
H1053 C1079 0.950 . S
H1054 C1080 0.950 . S
H1055 C1082 0.950 . S
H1056 C1085 0.950 . S
H1057 C1086 0.950 . S
H1058 C1088 0.950 . S
H1059 C1089 0.950 . S
C1060 H1042 0.951 . S
C1060 C1061 1.366 . S
C1060 C1062 1.388 . S
C1061 C1060 1.366 . S
C1061 C1065 1.385 . S
C1062 H1043 0.951 . S
C1062 C1060 1.388 . S
C1062 C1063 1.366 . S
C1063 C1062 1.366 . S
C1063 C1064 1.414 . S
C1063 C1066 1.499 . S
C1064 H1044 0.950 . S
C1064 C1063 1.414 . S
C1064 C1065 1.374 . S
C1065 H1045 0.950 . S
C1065 C1061 1.385 . S
C1065 C1064 1.374 . S
C1066 C1063 1.499 . S
C1066 C1067 1.373 . S
C1066 C1068 1.389 . S
C1067 H1046 0.950 . S
C1067 C1066 1.373 . S
C1067 C1083 1.377 . S
C1068 C1066 1.389 . S
C1068 C1069 1.524 . S
C1068 C1082 1.377 . S
C1069 C1068 1.524 . S
C1069 C1070 1.397 . S
C1069 C1074 1.363 . S
C1070 H1047 0.950 . S
C1070 C1069 1.397 . S
C1070 C1071 1.334 . S
C1071 H1048 0.950 . S
C1071 C1070 1.334 . S
C1071 C1072 1.287 . S
C1072 C1071 1.287 . S
C1072 C1073 1.524 . S
C1072 H1091 0.913 . S
C1073 H1049 0.950 . S
C1073 C1072 1.524 . S
C1073 C1074 1.415 . S
C1074 H1050 0.950 . S
C1074 C1069 1.363 . S
C1074 C1073 1.415 . S
C1075 H1051 0.951 . S
C1075 C1076 1.366 . S
C1075 C1077 1.388 . S
C1076 C1075 1.366 . S
C1076 C1080 1.385 . S
C1077 H1052 0.951 . S
C1077 C1075 1.388 . S
C1077 C1078 1.366 . S
C1078 C1077 1.366 . S
C1078 C1079 1.414 . S
C1078 C1081 1.499 . S
C1079 H1053 0.950 . S
C1079 C1078 1.414 . S
C1079 C1080 1.374 . S
C1080 H1054 0.950 . S
C1080 C1076 1.385 . S
C1080 C1079 1.374 . S
C1081 C1078 1.499 . S
C1081 C1082 1.373 . S
C1081 C1083 1.389 . S
C1082 H1055 0.950 . S
C1082 C1068 1.377 . S
C1082 C1081 1.373 . S
C1083 C1067 1.377 . S
C1083 C1081 1.389 . S
C1083 C1084 1.524 . S
C1084 C1083 1.524 . S
C1084 C1085 1.397 . S
C1084 C1089 1.363 . S
C1085 H1056 0.950 . S
C1085 C1084 1.397 . S
C1085 C1086 1.334 . S
C1086 H1057 0.950 . S
C1086 C1085 1.334 . S
C1086 C1087 1.287 . S
C1087 C1086 1.287 . S
C1087 C1088 1.524 . S
C1087 H1090 0.999 . S
C1088 H1058 0.950 . S
C1088 C1087 1.524 . S
C1088 C1089 1.415 . S
C1089 H1059 0.950 . S
C1089 C1084 1.363 . S
C1089 C1088 1.415 . S
H1090 C1087 0.999 . S
H1091 C1072 0.913 . S
H1092 C1110 0.951 . S
H1093 C1112 0.951 . S
H1094 C1114 0.950 . S
H1095 C1115 0.950 . S
H1096 C1117 0.950 . S
H1097 C1120 0.950 1_554 S
H1098 C1121 0.950 . S
H1099 C1123 0.950 . S
H1100 C1124 0.950 . S
H1101 C1125 0.951 . S
H1102 C1127 0.951 . S
H1103 C1129 0.950 . S
H1104 C1130 0.950 . S
H1105 C1132 0.950 . S
H1106 C1135 0.950 1_556 S
H1107 C1136 0.950 . S
H1108 C1138 0.950 . S
H1109 C1139 0.950 . S
C1110 H1092 0.951 . S
C1110 C1111 1.359 1_556 S
C1110 C1112 1.388 . S
C1111 C1110 1.359 1_554 S
C1111 C1115 1.391 . S
C1112 H1093 0.951 . S
C1112 C1110 1.388 . S
C1112 C1113 1.351 1_556 S
C1113 C1112 1.351 1_554 S
C1113 C1114 1.428 . S
C1113 C1116 1.499 . S
C1114 H1094 0.950 . S
C1114 C1113 1.428 . S
C1114 C1115 1.374 . S
C1115 H1095 0.950 . S
C1115 C1111 1.391 . S
C1115 C1114 1.374 . S
C1116 C1113 1.499 . S
C1116 C1117 1.373 . S
C1116 C1118 1.389 1_554 S
C1117 H1096 0.950 . S
C1117 C1116 1.373 . S
C1117 C1133 1.377 . S
C1118 C1116 1.389 1_556 S
C1118 C1119 1.524 . S
C1118 C1132 1.377 . S
C1119 C1118 1.524 . S
C1119 C1120 1.397 . S
C1119 C1124 1.363 . S
C1120 H1097 0.950 1_556 S
C1120 C1119 1.397 . S
C1120 C1121 1.334 . S
C1121 H1098 0.950 . S
C1121 C1120 1.334 . S
C1121 C1122 1.287 . S
C1122 C1121 1.287 . S
C1122 C1123 1.524 . S
C1122 H1141 0.913 . S
C1123 H1099 0.950 . S
C1123 C1122 1.524 . S
C1123 C1124 1.415 . S
C1124 H1100 0.950 . S
C1124 C1119 1.363 . S
C1124 C1123 1.415 . S
C1125 H1101 0.951 . S
C1125 C1126 1.373 . S
C1125 C1127 1.388 . S
C1126 C1125 1.373 . S
C1126 C1130 1.377 1_554 S
C1127 H1102 0.951 . S
C1127 C1125 1.388 . S
C1127 C1128 1.365 . S
C1128 C1127 1.365 . S
C1128 C1129 1.415 1_554 S
C1128 C1131 1.499 1_554 S
C1129 H1103 0.950 . S
C1129 C1128 1.415 1_556 S
C1129 C1130 1.374 . S
C1130 H1104 0.950 . S
C1130 C1126 1.377 1_556 S
C1130 C1129 1.374 . S
C1131 C1128 1.499 1_556 S
C1131 C1132 1.373 . S
C1131 C1133 1.389 1_556 S
C1132 H1105 0.950 . S
C1132 C1118 1.377 . S
C1132 C1131 1.373 . S
C1133 C1117 1.377 . S
C1133 C1131 1.389 1_554 S
C1133 C1134 1.524 . S
C1134 C1133 1.524 . S
C1134 C1135 1.397 . S
C1134 C1139 1.363 . S
C1135 H1106 0.950 1_554 S
C1135 C1134 1.397 . S
C1135 C1136 1.334 . S
C1136 H1107 0.950 . S
C1136 C1135 1.334 . S
C1136 C1137 1.287 . S
C1137 C1136 1.287 . S
C1137 C1138 1.524 . S
C1137 H1140 0.999 . S
C1138 H1108 0.950 . S
C1138 C1137 1.524 . S
C1138 C1139 1.415 . S
C1139 H1109 0.950 . S
C1139 C1134 1.363 . S
C1139 C1138 1.415 . S
H1140 C1137 0.999 . S
H1141 C1122 0.913 . S
H1142 C1160 0.951 . S
H1143 C1162 0.951 . S
H1144 C1164 0.950 . S
H1145 C1165 0.950 . S
H1146 C1167 0.950 . S
H1147 C1170 0.950 . S
H1148 C1171 0.950 . S
H1149 C1173 0.950 . S
H1150 C1174 0.950 . S
H1151 C1175 0.951 . S
H1152 C1177 0.951 . S
H1153 C1179 0.950 . S
H1154 C1180 0.950 . S
H1155 C1182 0.950 . S
H1156 C1185 0.950 . S
H1157 C1186 0.950 . S
H1158 C1188 0.950 . S
H1159 C1189 0.950 . S
C1160 H1142 0.951 . S
C1160 C1161 1.366 . S
C1160 C1162 1.388 . S
C1161 C1160 1.366 . S
C1161 C1165 1.385 . S
C1162 H1143 0.951 . S
C1162 C1160 1.388 . S
C1162 C1163 1.366 . S
C1163 C1162 1.366 . S
C1163 C1164 1.414 . S
C1163 C1166 1.499 . S
C1164 H1144 0.950 . S
C1164 C1163 1.414 . S
C1164 C1165 1.374 . S
C1165 H1145 0.950 . S
C1165 C1161 1.385 . S
C1165 C1164 1.374 . S
C1166 C1163 1.499 . S
C1166 C1167 1.373 . S
C1166 C1168 1.389 . S
C1167 H1146 0.950 . S
C1167 C1166 1.373 . S
C1167 C1183 1.377 . S
C1168 C1166 1.389 . S
C1168 C1169 1.524 . S
C1168 C1182 1.377 . S
C1169 C1168 1.524 . S
C1169 C1170 1.397 . S
C1169 C1174 1.363 . S
C1170 H1147 0.950 . S
C1170 C1169 1.397 . S
C1170 C1171 1.334 . S
C1171 H1148 0.950 . S
C1171 C1170 1.334 . S
C1171 C1172 1.287 . S
C1172 C1171 1.287 . S
C1172 C1173 1.524 . S
C1172 H1191 0.913 . S
C1173 H1149 0.950 . S
C1173 C1172 1.524 . S
C1173 C1174 1.415 . S
C1174 H1150 0.950 . S
C1174 C1169 1.363 . S
C1174 C1173 1.415 . S
C1175 H1151 0.951 . S
C1175 C1176 1.366 . S
C1175 C1177 1.388 . S
C1176 C1175 1.366 . S
C1176 C1180 1.385 . S
C1177 H1152 0.951 . S
C1177 C1175 1.388 . S
C1177 C1178 1.366 . S
C1178 C1177 1.366 . S
C1178 C1179 1.414 . S
C1178 C1181 1.499 . S
C1179 H1153 0.950 . S
C1179 C1178 1.414 . S
C1179 C1180 1.374 . S
C1180 H1154 0.950 . S
C1180 C1176 1.385 . S
C1180 C1179 1.374 . S
C1181 C1178 1.499 . S
C1181 C1182 1.373 . S
C1181 C1183 1.389 . S
C1182 H1155 0.950 . S
C1182 C1168 1.377 . S
C1182 C1181 1.373 . S
C1183 C1167 1.377 . S
C1183 C1181 1.389 . S
C1183 C1184 1.524 . S
C1184 C1183 1.524 . S
C1184 C1185 1.397 . S
C1184 C1189 1.363 . S
C1185 H1156 0.950 . S
C1185 C1184 1.397 . S
C1185 C1186 1.334 . S
C1186 H1157 0.950 . S
C1186 C1185 1.334 . S
C1186 C1187 1.287 . S
C1187 C1186 1.287 . S
C1187 C1188 1.524 . S
C1187 H1190 0.999 . S
C1188 H1158 0.950 . S
C1188 C1187 1.524 . S
C1188 C1189 1.415 . S
C1189 H1159 0.950 . S
C1189 C1184 1.363 . S
C1189 C1188 1.415 . S
H1190 C1187 0.999 . S
H1191 C1172 0.913 . S
H1192 C1210 0.951 . S
H1193 C1212 0.951 . S
H1194 C1214 0.950 . S
H1195 C1215 0.950 . S
H1196 C1217 0.950 . S
H1197 C1220 0.950 . S
H1198 C1221 0.950 . S
H1199 C1223 0.950 . S
H1200 C1224 0.950 . S
H1201 C1225 0.951 . S
H1202 C1227 0.951 . S
H1203 C1229 0.950 . S
H1204 C1230 0.950 . S
H1205 C1232 0.950 . S
H1206 C1235 0.950 . S
H1207 C1236 0.950 . S
H1208 C1238 0.950 . S
H1209 C1239 0.950 . S
C1210 H1192 0.951 . S
C1210 C1211 1.366 . S
C1210 C1212 1.388 . S
C1211 C1210 1.366 . S
C1211 C1215 1.385 . S
C1212 H1193 0.951 . S
C1212 C1210 1.388 . S
C1212 C1213 1.366 . S
C1213 C1212 1.366 . S
C1213 C1214 1.414 . S
C1213 C1216 1.499 . S
C1214 H1194 0.950 . S
C1214 C1213 1.414 . S
C1214 C1215 1.374 . S
C1215 H1195 0.950 . S
C1215 C1211 1.385 . S
C1215 C1214 1.374 . S
C1216 C1213 1.499 . S
C1216 C1217 1.373 . S
C1216 C1218 1.389 . S
C1217 H1196 0.950 . S
C1217 C1216 1.373 . S
C1217 C1233 1.377 . S
C1218 C1216 1.389 . S
C1218 C1219 1.524 . S
C1218 C1232 1.377 . S
C1219 C1218 1.524 . S
C1219 C1220 1.397 . S
C1219 C1224 1.363 . S
C1220 H1197 0.950 . S
C1220 C1219 1.397 . S
C1220 C1221 1.334 . S
C1221 H1198 0.950 . S
C1221 C1220 1.334 . S
C1221 C1222 1.287 . S
C1222 C1221 1.287 . S
C1222 C1223 1.524 . S
C1222 H1241 0.913 . S
C1223 H1199 0.950 . S
C1223 C1222 1.524 . S
C1223 C1224 1.415 . S
C1224 H1200 0.950 . S
C1224 C1219 1.363 . S
C1224 C1223 1.415 . S
C1225 H1201 0.951 . S
C1225 C1226 1.366 . S
C1225 C1227 1.388 . S
C1226 C1225 1.366 . S
C1226 C1230 1.385 . S
C1227 H1202 0.951 . S
C1227 C1225 1.388 . S
C1227 C1228 1.366 . S
C1228 C1227 1.366 . S
C1228 C1229 1.414 . S
C1228 C1231 1.499 . S
C1229 H1203 0.950 . S
C1229 C1228 1.414 . S
C1229 C1230 1.374 . S
C1230 H1204 0.950 . S
C1230 C1226 1.385 . S
C1230 C1229 1.374 . S
C1231 C1228 1.499 . S
C1231 C1232 1.373 . S
C1231 C1233 1.389 . S
C1232 H1205 0.950 . S
C1232 C1218 1.377 . S
C1232 C1231 1.373 . S
C1233 C1217 1.377 . S
C1233 C1231 1.389 . S
C1233 C1234 1.524 . S
C1234 C1233 1.524 . S
C1234 C1235 1.397 . S
C1234 C1239 1.363 . S
C1235 H1206 0.950 . S
C1235 C1234 1.397 . S
C1235 C1236 1.334 . S
C1236 H1207 0.950 . S
C1236 C1235 1.334 . S
C1236 C1237 1.287 . S
C1237 C1236 1.287 . S
C1237 C1238 1.524 . S
C1237 H1240 0.999 . S
C1238 H1208 0.950 . S
C1238 C1237 1.524 . S
C1238 C1239 1.415 . S
C1239 H1209 0.950 . S
C1239 C1234 1.363 . S
C1239 C1238 1.415 . S
H1240 C1237 0.999 . S
H1241 C1222 0.913 . S
H1242 C1260 0.951 . S
H1243 C1262 0.951 . S
H1244 C1264 0.950 . S
H1245 C1265 0.950 . S
H1246 C1267 0.950 . S
H1247 C1270 0.950 . S
H1248 C1271 0.950 . S
H1249 C1273 0.950 . S
H1250 C1274 0.950 . S
H1251 C1275 0.951 . S
H1252 C1277 0.951 . S
H1253 C1279 0.950 . S
H1254 C1280 0.950 . S
H1255 C1282 0.950 . S
H1256 C1285 0.950 . S
H1257 C1286 0.950 . S
H1258 C1288 0.950 . S
H1259 C1289 0.950 . S
C1260 H1242 0.951 . S
C1260 C1261 1.368 . S
C1260 C1262 1.388 . S
C1261 C1260 1.368 . S
C1261 C1265 1.382 1_554 S
C1262 H1243 0.951 . S
C1262 C1260 1.388 . S
C1262 C1263 1.366 1_554 S
C1263 C1262 1.366 1_556 S
C1263 C1264 1.414 . S
C1263 C1266 1.499 . S
C1264 H1244 0.950 . S
C1264 C1263 1.414 . S
C1264 C1265 1.374 . S
C1265 H1245 0.950 . S
C1265 C1261 1.382 1_556 S
C1265 C1264 1.374 . S
C1266 C1263 1.499 . S
C1266 C1267 1.373 . S
C1266 C1268 1.389 1_556 S
C1267 H1246 0.950 . S
C1267 C1266 1.373 . S
C1267 C1283 1.376 1_556 S
C1268 C1266 1.389 1_554 S
C1268 C1269 1.524 1_554 S
C1268 C1282 1.377 . S
C1269 C1268 1.524 1_556 S
C1269 C1270 1.397 . S
C1269 C1274 1.363 1_556 S
C1270 H1247 0.950 . S
C1270 C1269 1.397 . S
C1270 C1271 1.334 . S
C1271 H1248 0.950 . S
C1271 C1270 1.334 . S
C1271 C1272 1.287 . S
C1272 C1271 1.287 . S
C1272 C1273 1.524 1_556 S
C1272 H1291 0.913 . S
C1273 H1249 0.950 . S
C1273 C1272 1.524 1_554 S
C1273 C1274 1.415 . S
C1274 H1250 0.950 . S
C1274 C1269 1.363 1_554 S
C1274 C1273 1.415 . S
C1275 H1251 0.951 . S
C1275 C1276 1.366 1_556 S
C1275 C1277 1.388 . S
C1276 C1275 1.366 1_554 S
C1276 C1280 1.385 . S
C1277 H1252 0.951 . S
C1277 C1275 1.388 . S
C1277 C1278 1.366 1_556 S
C1278 C1277 1.366 1_554 S
C1278 C1279 1.414 . S
C1278 C1281 1.499 . S
C1279 H1253 0.950 . S
C1279 C1278 1.414 . S
C1279 C1280 1.374 . S
C1280 H1254 0.950 . S
C1280 C1276 1.385 . S
C1280 C1279 1.374 . S
C1281 C1278 1.499 . S
C1281 C1282 1.373 . S
C1281 C1283 1.390 . S
C1282 H1255 0.950 . S
C1282 C1268 1.377 . S
C1282 C1281 1.373 . S
C1283 C1267 1.376 1_554 S
C1283 C1281 1.390 . S
C1283 C1284 1.525 . S
C1284 C1283 1.525 . S
C1284 C1285 1.397 . S
C1284 C1289 1.363 1_554 S
C1285 H1256 0.950 . S
C1285 C1284 1.397 . S
C1285 C1286 1.334 . S
C1286 H1257 0.950 . S
C1286 C1285 1.334 . S
C1286 C1287 1.287 . S
C1287 C1286 1.287 . S
C1287 C1288 1.524 1_554 S
C1287 H1290 0.999 . S
C1288 H1258 0.950 . S
C1288 C1287 1.524 1_556 S
C1288 C1289 1.415 . S
C1289 H1259 0.950 . S
C1289 C1284 1.363 1_556 S
C1289 C1288 1.415 . S
H1290 C1287 0.999 . S
H1291 C1272 0.913 . S
H1292 C1310 0.951 . S
H1293 C1312 0.951 . S
H1294 C1314 0.950 . S
H1295 C1315 0.950 . S
H1296 C1317 0.950 . S
H1297 C1320 0.950 . S
H1298 C1321 0.950 . S
H1299 C1323 0.950 . S
H1300 C1324 0.950 . S
H1301 C1325 0.951 . S
H1302 C1327 0.951 . S
H1303 C1329 0.950 . S
H1304 C1330 0.950 . S
H1305 C1332 0.950 . S
H1306 C1335 0.950 . S
H1307 C1336 0.950 . S
H1308 C1338 0.950 . S
H1309 C1339 0.950 . S
C1310 H1292 0.951 . S
C1310 C1311 1.366 . S
C1310 C1312 1.388 . S
C1311 C1310 1.366 . S
C1311 C1315 1.385 . S
C1312 H1293 0.951 . S
C1312 C1310 1.388 . S
C1312 C1313 1.366 . S
C1313 C1312 1.366 . S
C1313 C1314 1.414 . S
C1313 C1316 1.499 . S
C1314 H1294 0.950 . S
C1314 C1313 1.414 . S
C1314 C1315 1.374 . S
C1315 H1295 0.950 . S
C1315 C1311 1.385 . S
C1315 C1314 1.374 . S
C1316 C1313 1.499 . S
C1316 C1317 1.373 . S
C1316 C1318 1.389 . S
C1317 H1296 0.950 . S
C1317 C1316 1.373 . S
C1317 C1333 1.377 . S
C1318 C1316 1.389 . S
C1318 C1319 1.524 . S
C1318 C1332 1.377 . S
C1319 C1318 1.524 . S
C1319 C1320 1.397 . S
C1319 C1324 1.363 . S
C1320 H1297 0.950 . S
C1320 C1319 1.397 . S
C1320 C1321 1.334 . S
C1321 H1298 0.950 . S
C1321 C1320 1.334 . S
C1321 C1322 1.287 . S
C1322 C1321 1.287 . S
C1322 C1323 1.524 . S
C1322 H1341 0.913 . S
C1323 H1299 0.950 . S
C1323 C1322 1.524 . S
C1323 C1324 1.415 . S
C1324 H1300 0.950 . S
C1324 C1319 1.363 . S
C1324 C1323 1.415 . S
C1325 H1301 0.951 . S
C1325 C1326 1.366 . S
C1325 C1327 1.388 . S
C1326 C1325 1.366 . S
C1326 C1330 1.385 . S
C1327 H1302 0.951 . S
C1327 C1325 1.388 . S
C1327 C1328 1.366 . S
C1328 C1327 1.366 . S
C1328 C1329 1.414 . S
C1328 C1331 1.499 . S
C1329 H1303 0.950 . S
C1329 C1328 1.414 . S
C1329 C1330 1.374 . S
C1330 H1304 0.950 . S
C1330 C1326 1.385 . S
C1330 C1329 1.374 . S
C1331 C1328 1.499 . S
C1331 C1332 1.373 . S
C1331 C1333 1.389 . S
C1332 H1305 0.950 . S
C1332 C1318 1.377 . S
C1332 C1331 1.373 . S
C1333 C1317 1.377 . S
C1333 C1331 1.389 . S
C1333 C1334 1.524 . S
C1334 C1333 1.524 . S
C1334 C1335 1.397 . S
C1334 C1339 1.363 . S
C1335 H1306 0.950 . S
C1335 C1334 1.397 . S
C1335 C1336 1.334 . S
C1336 H1307 0.950 . S
C1336 C1335 1.334 . S
C1336 C1337 1.287 . S
C1337 C1336 1.287 . S
C1337 C1338 1.524 . S
C1337 H1340 0.999 . S
C1338 H1308 0.950 . S
C1338 C1337 1.524 . S
C1338 C1339 1.415 . S
C1339 H1309 0.950 . S
C1339 C1334 1.363 . S
C1339 C1338 1.415 . S
H1340 C1337 0.999 . S
H1341 C1322 0.913 . S
H1342 C1360 0.951 . S
H1343 C1362 0.951 . S
H1344 C1364 0.950 . S
H1345 C1365 0.950 . S
H1346 C1367 0.950 . S
H1347 C1370 0.950 . S
H1348 C1371 0.950 . S
H1349 C1373 0.950 . S
H1350 C1374 0.950 . S
H1351 C1375 0.951 . S
H1352 C1377 0.951 . S
H1353 C1379 0.950 . S
H1354 C1380 0.950 . S
H1355 C1382 0.950 . S
H1356 C1385 0.950 . S
H1357 C1386 0.950 . S
H1358 C1388 0.950 . S
H1359 C1389 0.950 . S
C1360 H1342 0.951 . S
C1360 C1361 1.368 . S
C1360 C1362 1.388 . S
C1361 C1360 1.368 . S
C1361 C1365 1.382 1_554 S
C1362 H1343 0.951 . S
C1362 C1360 1.388 . S
C1362 C1363 1.366 . S
C1363 C1362 1.366 . S
C1363 C1364 1.414 1_554 S
C1363 C1366 1.499 . S
C1364 H1344 0.950 . S
C1364 C1363 1.414 1_556 S
C1364 C1365 1.374 . S
C1365 H1345 0.950 . S
C1365 C1361 1.382 1_556 S
C1365 C1364 1.374 . S
C1366 C1363 1.499 . S
C1366 C1367 1.373 1_554 S
C1366 C1368 1.389 . S
C1367 H1346 0.950 . S
C1367 C1366 1.373 1_556 S
C1367 C1383 1.377 . S
C1368 C1366 1.389 . S
C1368 C1369 1.524 . S
C1368 C1382 1.377 . S
C1369 C1368 1.524 . S
C1369 C1370 1.397 . S
C1369 C1374 1.363 . S
C1370 H1347 0.950 . S
C1370 C1369 1.397 . S
C1370 C1371 1.334 . S
C1371 H1348 0.950 . S
C1371 C1370 1.334 . S
C1371 C1372 1.287 . S
C1372 C1371 1.287 . S
C1372 C1373 1.524 . S
C1372 H1391 0.913 . S
C1373 H1349 0.950 . S
C1373 C1372 1.524 . S
C1373 C1374 1.415 . S
C1374 H1350 0.950 . S
C1374 C1369 1.363 . S
C1374 C1373 1.415 . S
C1375 H1351 0.951 . S
C1375 C1376 1.361 1_556 S
C1375 C1377 1.388 . S
C1376 C1375 1.361 1_554 S
C1376 C1380 1.390 . S
C1377 H1352 0.951 . S
C1377 C1375 1.388 . S
C1377 C1378 1.366 . S
C1378 C1377 1.366 . S
C1378 C1379 1.414 1_556 S
C1378 C1381 1.499 . S
C1379 H1353 0.950 . S
C1379 C1378 1.414 1_554 S
C1379 C1380 1.374 . S
C1380 H1354 0.950 . S
C1380 C1376 1.390 . S
C1380 C1379 1.374 . S
C1381 C1378 1.499 . S
C1381 C1382 1.373 1_556 S
C1381 C1383 1.389 . S
C1382 H1355 0.950 . S
C1382 C1368 1.377 . S
C1382 C1381 1.373 1_554 S
C1383 C1367 1.377 . S
C1383 C1381 1.389 . S
C1383 C1384 1.524 . S
C1384 C1383 1.524 . S
C1384 C1385 1.397 . S
C1384 C1389 1.363 . S
C1385 H1356 0.950 . S
C1385 C1384 1.397 . S
C1385 C1386 1.334 . S
C1386 H1357 0.950 . S
C1386 C1385 1.334 . S
C1386 C1387 1.287 . S
C1387 C1386 1.287 . S
C1387 C1388 1.524 . S
C1387 H1390 0.999 . S
C1388 H1358 0.950 . S
C1388 C1387 1.524 . S
C1388 C1389 1.415 . S
C1389 H1359 0.950 . S
C1389 C1384 1.363 . S
C1389 C1388 1.415 . S
H1390 C1387 0.999 . S
H1391 C1372 0.913 . S
C211 C5 1.464 . S
C226 N128 1.476 . S
C261 C31 1.465 . S
C276 N89 1.477 . S
C326 N106 1.483 . S
C311 C53 1.465 . S
C361 C71 1.465 . S
C376 N119 1.482 . S
C426 N158 1.482 . S
C411 C75 1.464 . S
C476 N171 1.483 . S
C461 C9 1.466 . S
C526 N180 1.476 . S
C511 C27 1.465 . S
C576 N141 1.476 . S
C561 C49 1.464 . S
C611 C51 1.465 . S
C626 N102 1.484 . S
C661 C72 1.465 . S
C676 N115 1.484 . S
C711 C6 1.465 . S
C726 N132 1.481 . S
C776 N93 1.481 . S
C761 C29 1.464 . S
C811 C28 1.465 . S
C826 N184 1.481 . S
C876 N145 1.481 . S
C861 C50 1.465 . S
C926 N154 1.484 . S
C911 C73 1.466 . S
C961 C7 1.465 . S
C976 N167 1.484 . S
C1026 N90 1.511 1_554 S
C1011 C4 1.499 . S
C1076 N103 1.515 . S
C1061 C30 1.499 . S
C1111 C52 1.499 . S
C1126 N116 1.516 . S
C1161 C70 1.499 . S
C1176 N129 1.511 . S
C1226 N142 1.511 . S
C1211 C74 1.498 . S
C1261 C8 1.499 . S
C1276 N155 1.515 1_554 S
C1311 C26 1.499 . S
C1326 N168 1.515 . S
C1361 C48 1.499 . S
C1376 N181 1.511 . S
