# Generated by pormake.
# Topology wbl, (4,4)-cn, num edge types: 1
# Building blocks:
#     Node 0, Type 0, BuildingBlock: MUDLON_clean_linker_0, # of connection points: 4
#     Node 1, Type 0, BuildingBlock: MUDLON_clean_linker_0, # of connection points: 4
#     Node 2, Type 0, BuildingBlock: MUDLON_clean_linker_0, # of connection points: 4
#     Node 3, Type 0, BuildingBlock: MUDLON_clean_linker_0, # of connection points: 4
#     Node 4, Type 0, BuildingBlock: MUDLON_clean_linker_0, # of connection points: 4
#     Node 5, Type 0, BuildingBlock: MUDLON_clean_linker_0, # of connection points: 4
#     Node 6, Type 0, BuildingBlock: MUDLON_clean_linker_0, # of connection points: 4
#     Node 7, Type 0, BuildingBlock: MUDLON_clean_linker_0, # of connection points: 4
#     Node 8, Type 1, BuildingBlock: CEKHIL_clean_sbu_0, # of connection points: 4
#     Node 9, Type 1, BuildingBlock: CEKHIL_clean_sbu_0, # of connection points: 4
#     Node 10, Type 1, BuildingBlock: CEKHIL_clean_sbu_0, # of connection points: 4
#     Node 11, Type 1, BuildingBlock: CEKHIL_clean_sbu_0, # of connection points: 4
#     Node 12, Type 1, BuildingBlock: CEKHIL_clean_sbu_0, # of connection points: 4
#     Node 13, Type 1, BuildingBlock: CEKHIL_clean_sbu_0, # of connection points: 4
#     Node 14, Type 1, BuildingBlock: CEKHIL_clean_sbu_0, # of connection points: 4
#     Node 15, Type 1, BuildingBlock: CEKHIL_clean_sbu_0, # of connection points: 4
#     Edge 16, Type (0, 1), BuildingBlock: MIFKUJ_clean_linker_0, # of connection points: 2
#     Edge 17, Type (0, 1), BuildingBlock: MIFKUJ_clean_linker_0, # of connection points: 2
#     Edge 18, Type (0, 1), BuildingBlock: MIFKUJ_clean_linker_0, # of connection points: 2
#     Edge 19, Type (0, 1), BuildingBlock: MIFKUJ_clean_linker_0, # of connection points: 2
#     Edge 20, Type (0, 1), BuildingBlock: MIFKUJ_clean_linker_0, # of connection points: 2
#     Edge 21, Type (0, 1), BuildingBlock: MIFKUJ_clean_linker_0, # of connection points: 2
#     Edge 22, Type (0, 1), BuildingBlock: MIFKUJ_clean_linker_0, # of connection points: 2
#     Edge 23, Type (0, 1), BuildingBlock: MIFKUJ_clean_linker_0, # of connection points: 2
#     Edge 24, Type (0, 1), BuildingBlock: MIFKUJ_clean_linker_0, # of connection points: 2
#     Edge 25, Type (0, 1), BuildingBlock: MIFKUJ_clean_linker_0, # of connection points: 2
#     Edge 26, Type (0, 1), BuildingBlock: MIFKUJ_clean_linker_0, # of connection points: 2
#     Edge 27, Type (0, 1), BuildingBlock: MIFKUJ_clean_linker_0, # of connection points: 2
#     Edge 28, Type (0, 1), BuildingBlock: MIFKUJ_clean_linker_0, # of connection points: 2
#     Edge 29, Type (0, 1), BuildingBlock: MIFKUJ_clean_linker_0, # of connection points: 2
#     Edge 30, Type (0, 1), BuildingBlock: MIFKUJ_clean_linker_0, # of connection points: 2
#     Edge 31, Type (0, 1), BuildingBlock: MIFKUJ_clean_linker_0, # of connection points: 2
#     Edge 32, Type (0, 1), BuildingBlock: MIFKUJ_clean_linker_0, # of connection points: 2
#     Edge 33, Type (0, 1), BuildingBlock: MIFKUJ_clean_linker_0, # of connection points: 2
#     Edge 34, Type (0, 1), BuildingBlock: MIFKUJ_clean_linker_0, # of connection points: 2
#     Edge 35, Type (0, 1), BuildingBlock: MIFKUJ_clean_linker_0, # of connection points: 2
#     Edge 36, Type (0, 1), BuildingBlock: MIFKUJ_clean_linker_0, # of connection points: 2
#     Edge 37, Type (0, 1), BuildingBlock: MIFKUJ_clean_linker_0, # of connection points: 2
#     Edge 38, Type (0, 1), BuildingBlock: MIFKUJ_clean_linker_0, # of connection points: 2
#     Edge 39, Type (0, 1), BuildingBlock: MIFKUJ_clean_linker_0, # of connection points: 2
#     Edge 40, Type (0, 1), BuildingBlock: MIFKUJ_clean_linker_0, # of connection points: 2
#     Edge 41, Type (0, 1), BuildingBlock: MIFKUJ_clean_linker_0, # of connection points: 2
#     Edge 42, Type (0, 1), BuildingBlock: MIFKUJ_clean_linker_0, # of connection points: 2
#     Edge 43, Type (0, 1), BuildingBlock: MIFKUJ_clean_linker_0, # of connection points: 2
#     Edge 44, Type (0, 1), BuildingBlock: MIFKUJ_clean_linker_0, # of connection points: 2
#     Edge 45, Type (0, 1), BuildingBlock: MIFKUJ_clean_linker_0, # of connection points: 2
#     Edge 46, Type (0, 1), BuildingBlock: MIFKUJ_clean_linker_0, # of connection points: 2
#     Edge 47, Type (0, 1), BuildingBlock: MIFKUJ_clean_linker_0, # of connection points: 2
# Relax obj value: 0.125
# Max RMSD: 0.145
# Mean RMSD: 0.131
data_MOF--net-wbl--node1-CEKHIL_clean_sbu_0--node2-MUDLON_clean_linker_0--edge1-MIFKUJ_clean_linker_0
_symmetry_space_group_name_H-M    P1
_symmetry_Int_Tables_number       1
_symmetry_cell_setting            triclinic
loop_
_symmetry_equiv_pos_as_xyz
'x, y, z'
_cell_length_a     65.141171
_cell_length_b     65.44446
_cell_length_c     93.996362
_cell_angle_alpha  90.304782
_cell_angle_beta   90.095768
_cell_angle_gamma 90.003106
loop_
_atom_site_label
_atom_site_type_symbol
_atom_site_fract_x
_atom_site_fract_y
_atom_site_fract_z
_atom_type_partial_charge
H0 H 0.10983 0.98926 0.32811 0.0
N1 N 0.07921 0.97942 0.31078 0.0
H2 H 0.1199 0.97179 0.34998 0.0
H3 H 0.0564 0.95076 0.32469 0.0
H4 H 0.06615 0.93334 0.34661 0.0
H5 H 0.06714 0.94199 0.30087 0.0
H6 H 0.08842 0.91893 0.28654 0.0
H7 H 0.11164 0.98999 0.29558 0.0
H8 H 0.13295 0.96722 0.28119 0.0
H9 H 0.07882 0.01974 0.31008 0.0
H10 H 0.0397 0.96706 0.30564 0.0
H11 H 0.04916 0.04223 0.30748 0.0
H12 H 0.00962 0.9894 0.30367 0.0
H13 H 0.95108 0.11111 0.31411 0.0
H14 H 0.93281 0.12083 0.33589 0.0
H15 H 0.92699 0.05715 0.347 0.0
H16 H 0.94514 0.04754 0.32511 0.0
H17 H 0.92942 0.04351 0.30109 0.0
H18 H 0.89762 0.04658 0.28754 0.0
H19 H 0.91808 0.10505 0.27161 0.0
H20 H 0.95025 0.10108 0.28451 0.0
H21 H 0.99192 0.07585 0.32034 0.0
H22 H 0.02064 0.05227 0.32138 0.0
H23 H 0.99199 0.01456 0.28914 0.0
N24 N 0.95826 0.07363 0.30435 0.0
H25 H 0.96296 0.03778 0.28838 0.0
C26 C 0.08243 0.97137 0.3248 0.0
C27 C 0.10001 0.9774 0.33232 0.0
C28 C 0.10571 0.96739 0.34479 0.0
C29 C 0.0939 0.95106 0.34996 0.0
C30 C 0.07572 0.94566 0.34277 0.0
C31 C 0.07002 0.95574 0.33029 0.0
C32 C 0.08797 0.96768 0.29935 0.0
C33 C 0.08115 0.94778 0.29624 0.0
C34 C 0.0934 0.93457 0.28813 0.0
C35 C 0.11249 0.94116 0.28289 0.0
C36 C 0.11828 0.96167 0.28496 0.0
C37 C 0.10613 0.97475 0.29315 0.0
C38 C 0.06143 0.99185 0.30823 0.0
C39 C 0.06374 0.01308 0.30855 0.0
C40 C 0.04674 0.02587 0.30719 0.0
C41 C 0.02689 0.01765 0.30562 0.0
C42 C 0.02466 0.99626 0.30483 0.0
C43 C 0.04182 0.98344 0.30609 0.0
C44 C 0.94957 0.0787 0.31804 0.0
C45 C 0.94607 0.0993 0.32135 0.0
C46 C 0.9355 0.10479 0.33368 0.0
C47 C 0.92837 0.08972 0.34304 0.0
C48 C 0.9324 0.06906 0.33998 0.0
C49 C 0.94276 0.06356 0.32751 0.0
C50 C 0.94232 0.07205 0.29371 0.0
C51 C 0.92738 0.05655 0.2942 0.0
C52 C 0.90903 0.05853 0.2866 0.0
C53 C 0.90495 0.07631 0.27869 0.0
C54 C 0.92059 0.09103 0.27742 0.0
C55 C 0.93908 0.08882 0.2848 0.0
C56 C 0.9747 0.05861 0.30467 0.0
C57 C 0.9916 0.06236 0.31361 0.0
C58 C 0.0082 0.04894 0.31407 0.0
C59 C 0.00871 0.03149 0.30531 0.0
C60 C 0.99195 0.02767 0.29621 0.0
C61 C 0.97518 0.04111 0.29581 0.0
H62 H 0.96087 0.42713 0.57044 0.0
N63 N 0.94473 0.46107 0.55767 0.0
H64 H 0.9492 0.41192 0.59262 0.0
H65 H 0.91872 0.47723 0.57633 0.0
H66 H 0.90667 0.46184 0.59856 0.0
H67 H 0.90708 0.45359 0.54856 0.0
H68 H 0.89531 0.42369 0.53553 0.0
H69 H 0.96988 0.43475 0.54254 0.0
H70 H 0.95841 0.40556 0.52862 0.0
H71 H 0.9849 0.45029 0.56291 0.0
H72 H 0.94596 0.49958 0.54906 0.0
H73 H 0.01467 0.47251 0.56163 0.0
H74 H 0.97574 0.52238 0.54829 0.0
H75 H 0.10352 0.55164 0.57177 0.0
H76 H 0.11263 0.56893 0.5941 0.0
H77 H 0.05074 0.59212 0.59745 0.0
H78 H 0.04168 0.57454 0.57524 0.0
H79 H 0.04475 0.58722 0.55188 0.0
H80 H 0.0568 0.61716 0.53911 0.0
H81 H 0.11164 0.58435 0.52686 0.0
H82 H 0.09973 0.55465 0.54025 0.0
H83 H 0.05849 0.52266 0.57529 0.0
H84 H 0.02894 0.50011 0.57447 0.0
H85 H 0.00739 0.53054 0.53661 0.0
N86 N 0.06797 0.55335 0.55788 0.0
H87 H 0.03654 0.55356 0.53767 0.0
C88 C 0.94083 0.45357 0.57181 0.0
C89 C 0.94961 0.43525 0.57673 0.0
C90 C 0.94281 0.42646 0.58939 0.0
C91 C 0.92694 0.43564 0.59725 0.0
C92 C 0.9188 0.45435 0.59263 0.0
C93 C 0.92576 0.46325 0.58004 0.0
C94 C 0.93929 0.44653 0.54668 0.0
C95 C 0.91837 0.44343 0.5439 0.0
C96 C 0.91168 0.42624 0.53637 0.0
C97 C 0.92585 0.41182 0.53113 0.0
C98 C 0.94696 0.41592 0.53285 0.0
C99 C 0.95362 0.43292 0.54068 0.0
C100 C 0.96306 0.47323 0.55599 0.0
C101 C 0.98269 0.46586 0.5595 0.0
C102 C 0.99978 0.47874 0.5589 0.0
C103 C 0.99766 0.49938 0.555 0.0
C104 C 0.97806 0.50656 0.55119 0.0
C105 C 0.96099 0.49359 0.55167 0.0
C106 C 0.07203 0.56181 0.57183 0.0
C107 C 0.09188 0.56019 0.57746 0.0
C108 C 0.09704 0.5701 0.59016 0.0
C109 C 0.08242 0.582 0.59742 0.0
C110 C 0.06238 0.5833 0.59195 0.0
C111 C 0.05717 0.5732 0.57931 0.0
C112 C 0.07148 0.56867 0.54713 0.0
C113 C 0.05913 0.58627 0.54618 0.0
C114 C 0.06603 0.60341 0.53878 0.0
C115 C 0.08539 0.60331 0.53216 0.0
C116 C 0.09686 0.58509 0.5321 0.0
C117 C 0.08996 0.568 0.53955 0.0
C118 C 0.04967 0.54063 0.557 0.0
C119 C 0.04725 0.5248 0.56693 0.0
C120 C 0.03043 0.51164 0.56632 0.0
C121 C 0.01566 0.51348 0.55549 0.0
C122 C 0.01822 0.52894 0.54529 0.0
C123 C 0.03505 0.54227 0.54595 0.0
H124 H 0.59221 0.47747 0.82098 0.0
N125 N 0.55828 0.46179 0.80766 0.0
H126 H 0.60707 0.4652 0.8431 0.0
H127 H 0.54036 0.43748 0.82641 0.0
H128 H 0.5541 0.42631 0.84926 0.0
H129 H 0.55588 0.42606 0.79438 0.0
H130 H 0.5828 0.40967 0.78025 0.0
H131 H 0.59144 0.4815 0.7961 0.0
H132 H 0.61874 0.46511 0.78267 0.0
H133 H 0.56881 0.5023 0.80763 0.0
H134 H 0.5181 0.46046 0.80395 0.0
H135 H 0.54533 0.53115 0.80547 0.0
H136 H 0.49418 0.48906 0.80294 0.0
H137 H 0.45836 0.61547 0.81985 0.0
H138 H 0.44258 0.6236 0.84282 0.0
H139 H 0.42802 0.55979 0.84863 0.0
H140 H 0.44394 0.5518 0.82565 0.0
H141 H 0.42459 0.55654 0.80411 0.0
H142 H 0.39421 0.56601 0.79071 0.0
H143 H 0.42723 0.6168 0.77244 0.0
H144 H 0.45751 0.60759 0.78652 0.0
H145 H 0.49656 0.57747 0.81873 0.0
H146 H 0.5211 0.54945 0.81811 0.0
H147 H 0.48055 0.51574 0.79007 0.0
N148 N 0.45965 0.57942 0.80677 0.0
H149 H 0.45569 0.54309 0.79143 0.0
C150 C 0.56539 0.45794 0.8219 0.0
C151 C 0.58381 0.46631 0.82709 0.0
C152 C 0.59221 0.45938 0.83989 0.0
C153 C 0.58207 0.44434 0.84793 0.0
C154 C 0.56279 0.4373 0.84317 0.0
C155 C 0.5547 0.44388 0.83022 0.0
C156 C 0.57165 0.45489 0.79643 0.0
C157 C 0.56925 0.43486 0.79137 0.0
C158 C 0.58479 0.42546 0.78347 0.0
C159 C 0.6032 0.43589 0.7806 0.0
C160 C 0.60479 0.45659 0.78463 0.0
C161 C 0.58912 0.46603 0.79241 0.0
C162 C 0.54519 0.4792 0.80557 0.0
C163 C 0.55264 0.49931 0.80614 0.0
C164 C 0.53905 0.51584 0.80518 0.0
C165 C 0.51769 0.51261 0.80403 0.0
C166 C 0.51045 0.49234 0.80345 0.0
C167 C 0.52407 0.4759 0.80412 0.0
C168 C 0.45237 0.58313 0.82106 0.0
C169 C 0.45205 0.60324 0.82621 0.0
C170 C 0.44302 0.60783 0.83929 0.0
C171 C 0.43396 0.59234 0.84748 0.0
C172 C 0.43464 0.57207 0.84246 0.0
C173 C 0.44384 0.56747 0.82939 0.0
C174 C 0.44339 0.58149 0.7964 0.0
C175 C 0.42549 0.56947 0.79703 0.0
C176 C 0.40808 0.57486 0.78923 0.0
C177 C 0.40813 0.59235 0.78058 0.0
C178 C 0.42652 0.60346 0.77919 0.0
C179 C 0.44392 0.59809 0.78707 0.0
C180 C 0.474 0.56257 0.80539 0.0
C181 C 0.49293 0.56397 0.81249 0.0
C182 C 0.50709 0.54796 0.81199 0.0
C183 C 0.50293 0.53013 0.80406 0.0
C184 C 0.48419 0.52895 0.79658 0.0
C185 C 0.46984 0.54484 0.7973 0.0
H186 H 0.46896 0.92268 0.07029 0.0
N187 N 0.45189 0.95712 0.05877 0.0
H188 H 0.45808 0.90588 0.0922 0.0
H189 H 0.4257 0.97132 0.07799 0.0
H190 H 0.41416 0.95408 0.0997 0.0
H191 H 0.41356 0.95229 0.05008 0.0
H192 H 0.39989 0.92424 0.0359 0.0
H193 H 0.47513 0.93109 0.04204 0.0
H194 H 0.46178 0.90387 0.02708 0.0
H195 H 0.49227 0.94508 0.06137 0.0
H196 H 0.45307 0.99667 0.05298 0.0
H197 H 0.52233 0.96673 0.05947 0.0
H198 H 0.48314 0.01894 0.05193 0.0
H199 H 0.61461 0.0529 0.06598 0.0
H200 H 0.62554 0.0699 0.08776 0.0
H201 H 0.562 0.07521 0.10078 0.0
H202 H 0.55131 0.06008 0.07829 0.0
H203 H 0.55389 0.08296 0.05552 0.0
H204 H 0.56327 0.11391 0.04269 0.0
H205 H 0.61277 0.08123 0.02215 0.0
H206 H 0.60349 0.0504 0.03534 0.0
H207 H 0.57037 0.01388 0.07151 0.0
H208 H 0.54043 0.99173 0.07172 0.0
H209 H 0.51227 0.02864 0.03907 0.0
N210 N 0.5765 0.0478 0.05645 0.0
H211 H 0.54155 0.0513 0.03939 0.0
C212 C 0.4484 0.94857 0.07266 0.0
C213 C 0.45765 0.93014 0.07692 0.0
C214 C 0.45128 0.92041 0.08937 0.0
C215 C 0.43526 0.92869 0.09753 0.0
C216 C 0.42651 0.9474 0.09352 0.0
C217 C 0.43316 0.95731 0.08124 0.0
C218 C 0.44531 0.94388 0.0473 0.0
C219 C 0.42417 0.94206 0.04477 0.0
C220 C 0.41639 0.92595 0.03659 0.0
C221 C 0.42967 0.9114 0.03049 0.0
C222 C 0.451 0.91435 0.03197 0.0
C223 C 0.45875 0.93022 0.04044 0.0
C224 C 0.47026 0.96919 0.0571 0.0
C225 C 0.49004 0.96105 0.05905 0.0
C226 C 0.50735 0.97362 0.05814 0.0
C227 C 0.50532 0.99473 0.05561 0.0
C228 C 0.48547 0.00275 0.05363 0.0
C229 C 0.4682 0.99008 0.05431 0.0
C230 C 0.58224 0.05493 0.07052 0.0
C231 C 0.60311 0.05757 0.07364 0.0
C232 C 0.6093 0.06725 0.08621 0.0
C233 C 0.59473 0.0741 0.09621 0.0
C234 C 0.57376 0.0707 0.09328 0.0
C235 C 0.56757 0.06161 0.08048 0.0
C236 C 0.57808 0.06435 0.04638 0.0
C237 C 0.56638 0.08231 0.04794 0.0
C238 C 0.57176 0.1 0.04057 0.0
C239 C 0.58896 0.10011 0.03154 0.0
C240 C 0.59965 0.08172 0.02921 0.0
C241 C 0.59423 0.06404 0.03658 0.0
C242 C 0.55831 0.03487 0.05589 0.0
C243 C 0.55764 0.01739 0.06451 0.0
C244 C 0.54053 0.00452 0.06447 0.0
C245 C 0.52373 0.00836 0.05546 0.0
C246 C 0.52463 0.02544 0.04644 0.0
C247 C 0.54163 0.03853 0.04663 0.0
H248 H 0.08822 0.54904 0.93544 0.0
N249 N 0.05092 0.56451 0.94355 0.0
H250 H 0.10609 0.55627 0.9132 0.0
H251 H 0.03556 0.58283 0.92072 0.0
H252 H 0.05337 0.59006 0.89835 0.0
H253 H 0.05796 0.60347 0.94921 0.0
H254 H 0.08631 0.61758 0.9629 0.0
H255 H 0.07407 0.54288 0.96313 0.0
H256 H 0.10166 0.5569 0.97753 0.0
H257 H 0.06305 0.52432 0.94269 0.0
H258 H 0.01107 0.56396 0.94914 0.0
H259 H 0.04091 0.49454 0.94472 0.0
H260 H 0.98843 0.53425 0.95036 0.0
H261 H 0.95969 0.40625 0.93136 0.0
H262 H 0.9435 0.39745 0.90855 0.0
H263 H 0.92274 0.45976 0.90425 0.0
H264 H 0.93945 0.46859 0.92685 0.0
H265 H 0.92274 0.46333 0.94872 0.0
H266 H 0.8935 0.45233 0.96258 0.0
H267 H 0.9295 0.40257 0.97963 0.0
H268 H 0.95853 0.41316 0.96487 0.0
H269 H 0.99346 0.44749 0.93095 0.0
H270 H 0.0163 0.47688 0.93155 0.0
H271 H 0.9775 0.50555 0.96313 0.0
N272 N 0.95852 0.44195 0.94497 0.0
H273 H 0.95425 0.47676 0.96199 0.0
C274 C 0.06052 0.56555 0.92975 0.0
C275 C 0.08031 0.55764 0.92731 0.0
C276 C 0.09059 0.56189 0.91464 0.0
C277 C 0.08118 0.57386 0.90412 0.0
C278 C 0.06094 0.58068 0.90624 0.0
C279 C 0.05076 0.5766 0.91898 0.0
C280 C 0.06385 0.57215 0.95491 0.0
C281 C 0.0671 0.5933 0.95571 0.0
C282 C 0.08339 0.60134 0.9636 0.0
C283 C 0.09669 0.58838 0.97117 0.0
C284 C 0.09219 0.56733 0.97148 0.0
C285 C 0.0761 0.55924 0.96333 0.0
C286 C 0.03872 0.54646 0.94596 0.0
C287 C 0.04688 0.52664 0.94469 0.0
C288 C 0.03407 0.50956 0.94566 0.0
C289 C 0.01275 0.51186 0.94759 0.0
C290 C 0.00476 0.53175 0.9491 0.0
C291 C 0.01764 0.5488 0.94835 0.0
C292 C 0.95072 0.43796 0.93083 0.0
C293 C 0.95193 0.41804 0.92537 0.0
C294 C 0.94265 0.41306 0.9124 0.0
C295 C 0.93173 0.42791 0.90475 0.0
C296 C 0.93084 0.44799 0.91006 0.0
C297 C 0.94042 0.45304 0.92293 0.0
C298 C 0.94285 0.43889 0.95562 0.0
C299 C 0.9245 0.45023 0.95556 0.0
C300 C 0.90775 0.44398 0.96368 0.0
C301 C 0.90896 0.42636 0.97217 0.0
C302 C 0.92784 0.41595 0.973 0.0
C303 C 0.94455 0.42212 0.96473 0.0
C304 C 0.97175 0.45975 0.94611 0.0
C305 C 0.98977 0.46018 0.93794 0.0
C306 C 0.00299 0.47696 0.93843 0.0
C307 C 0.99883 0.49372 0.9474 0.0
C308 C 0.98103 0.49315 0.95587 0.0
C309 C 0.96762 0.47645 0.95522 0.0
H310 H 0.5294 0.39252 0.18028 0.0
N311 N 0.52958 0.4287 0.19301 0.0
H312 H 0.54729 0.3826 0.1586 0.0
H313 H 0.54896 0.45483 0.17482 0.0
H314 H 0.56576 0.44549 0.15249 0.0
H315 H 0.56807 0.44327 0.19874 0.0
H316 H 0.59381 0.42588 0.21321 0.0
H317 H 0.5223 0.39996 0.212 0.0
H318 H 0.5479 0.38191 0.226 0.0
H319 H 0.49095 0.43221 0.18489 0.0
H320 H 0.54037 0.46629 0.20418 0.0
H321 H 0.4688 0.46211 0.18639 0.0
H322 H 0.51801 0.49604 0.20651 0.0
H323 H 0.39683 0.55181 0.18845 0.0
H324 H 0.38405 0.56647 0.16626 0.0
H325 H 0.44653 0.57554 0.15221 0.0
H326 H 0.45906 0.56149 0.17451 0.0
H327 H 0.45949 0.58372 0.19609 0.0
H328 H 0.45386 0.6149 0.20975 0.0
H329 H 0.40819 0.58381 0.235 0.0
H330 H 0.41339 0.55284 0.22075 0.0
H331 H 0.42672 0.51079 0.20216 0.0
H332 H 0.45016 0.48174 0.2025 0.0
H333 H 0.501 0.52244 0.19409 0.0
N334 N 0.43547 0.54949 0.19719 0.0
H335 H 0.47748 0.5515 0.19476 0.0
C336 C 0.53765 0.42436 0.17906 0.0
C337 C 0.53709 0.40416 0.17411 0.0
C338 C 0.54728 0.39857 0.16166 0.0
C339 C 0.55805 0.41321 0.15368 0.0
C340 C 0.55799 0.43369 0.15844 0.0
C341 C 0.5481 0.43917 0.1711 0.0
C342 C 0.5432 0.42289 0.20437 0.0
C343 C 0.56338 0.43047 0.2052 0.0
C344 C 0.57817 0.42028 0.21332 0.0
C345 C 0.5731 0.40223 0.2206 0.0
C346 C 0.55245 0.39584 0.2207 0.0
C347 C 0.5377 0.40614 0.2127 0.0
C348 C 0.51717 0.44682 0.19456 0.0
C349 C 0.4969 0.44612 0.18964 0.0
C350 C 0.48422 0.46323 0.19064 0.0
C351 C 0.49143 0.48153 0.1968 0.0
C352 C 0.51191 0.4823 0.20163 0.0
C353 C 0.52473 0.46516 0.20043 0.0
C354 C 0.42882 0.55538 0.18316 0.0
C355 C 0.40771 0.55664 0.18045 0.0
C356 C 0.40047 0.565 0.16776 0.0
C357 C 0.41427 0.5723 0.15747 0.0
C358 C 0.43548 0.57038 0.16 0.0
C359 C 0.44269 0.56207 0.17273 0.0
C360 C 0.43663 0.566 0.20733 0.0
C361 C 0.44869 0.58341 0.2048 0.0
C362 C 0.44545 0.6013 0.21269 0.0
C363 C 0.43026 0.60203 0.22332 0.0
C364 C 0.41965 0.58395 0.22667 0.0
C365 C 0.42276 0.56616 0.21868 0.0
C366 C 0.45023 0.53319 0.19821 0.0
C367 C 0.44297 0.51339 0.20055 0.0
C368 C 0.45641 0.4968 0.20058 0.0
C369 C 0.47752 0.49959 0.19801 0.0
C370 C 0.4849 0.51964 0.19614 0.0
C371 C 0.4714 0.53632 0.19636 0.0
H372 H 0.41838 0.96204 0.43499 0.0
N373 N 0.45669 0.94801 0.44231 0.0
H374 H 0.40011 0.95481 0.41281 0.0
H375 H 0.47173 0.93047 0.41893 0.0
H376 H 0.45359 0.92374 0.39644 0.0
H377 H 0.44906 0.90963 0.4494 0.0
H378 H 0.42111 0.89731 0.46431 0.0
H379 H 0.43472 0.97168 0.46149 0.0
H380 H 0.4074 0.95948 0.47674 0.0
H381 H 0.44511 0.98818 0.43986 0.0
H382 H 0.49647 0.94865 0.44847 0.0
H383 H 0.46732 0.01795 0.44191 0.0
H384 H 0.51923 0.97832 0.44973 0.0
H385 H 0.54989 0.10992 0.43704 0.0
H386 H 0.56563 0.12272 0.41515 0.0
H387 H 0.57883 0.06075 0.40208 0.0
H388 H 0.56328 0.04808 0.42401 0.0
H389 H 0.58431 0.04935 0.44596 0.0
H390 H 0.61553 0.05815 0.45882 0.0
H391 H 0.58246 0.10509 0.48186 0.0
H392 H 0.55151 0.09685 0.4682 0.0
H393 H 0.51507 0.06511 0.43026 0.0
H394 H 0.49278 0.03538 0.42969 0.0
H395 H 0.52927 0.0074 0.46272 0.0
N396 N 0.54865 0.07147 0.44607 0.0
H397 H 0.55212 0.03653 0.46276 0.0
C398 C 0.44645 0.94651 0.42869 0.0
C399 C 0.4263 0.9538 0.42664 0.0
C400 C 0.41582 0.94964 0.41398 0.0
C401 C 0.42542 0.9386 0.40302 0.0
C402 C 0.44589 0.93232 0.40475 0.0
C403 C 0.45625 0.93615 0.41753 0.0
C404 C 0.44403 0.94153 0.45409 0.0
C405 C 0.44041 0.92054 0.45569 0.0
C406 C 0.42439 0.91353 0.46424 0.0
C407 C 0.41169 0.92743 0.47153 0.0
C408 C 0.41654 0.94838 0.47098 0.0
C409 C 0.43243 0.95539 0.4623 0.0
C410 C 0.46911 0.96611 0.44419 0.0
C411 C 0.46118 0.98589 0.44226 0.0
C412 C 0.47404 0.00296 0.44326 0.0
C413 C 0.49522 0.00067 0.4459 0.0
C414 C 0.50301 0.98082 0.44792 0.0
C415 C 0.49006 0.96379 0.44714 0.0
C416 C 0.55524 0.07812 0.43215 0.0
C417 C 0.55585 0.09912 0.42932 0.0
C418 C 0.56498 0.10638 0.4169 0.0
C419 C 0.57354 0.09271 0.40698 0.0
C420 C 0.57223 0.07161 0.40951 0.0
C421 C 0.56332 0.06436 0.42203 0.0
C422 C 0.56559 0.07266 0.45601 0.0
C423 C 0.58369 0.0613 0.45394 0.0
C424 C 0.60157 0.0663 0.46143 0.0
C425 C 0.60171 0.08261 0.47127 0.0
C426 C 0.58311 0.0928 0.47412 0.0
C427 C 0.5653 0.08793 0.46649 0.0
C428 C 0.53595 0.05315 0.44609 0.0
C429 C 0.51854 0.05244 0.43723 0.0
C430 C 0.50555 0.03547 0.43707 0.0
C431 C 0.50916 0.01882 0.44614 0.0
C432 C 0.52623 0.01967 0.45533 0.0
C433 C 0.53943 0.03656 0.45534 0.0
H434 H 0.04465 0.92048 0.6831 0.0
N435 N 0.0597 0.95805 0.69082 0.0
H436 H 0.05107 0.90267 0.6606 0.0
H437 H 0.07703 0.97331 0.66761 0.0
H438 H 0.08335 0.95563 0.64498 0.0
H439 H 0.09891 0.95072 0.69602 0.0
H440 H 0.11314 0.92327 0.71027 0.0
H441 H 0.03817 0.93593 0.71095 0.0
H442 H 0.05233 0.90933 0.7259 0.0
H443 H 0.01932 0.94606 0.6903 0.0
H444 H 0.05931 0.99779 0.69634 0.0
H445 H 0.98945 0.96811 0.69293 0.0
H446 H 0.02955 0.02034 0.6981 0.0
H447 H 0.89996 0.05495 0.68329 0.0
H448 H 0.89126 0.07302 0.66131 0.0
H449 H 0.95569 0.08337 0.6534 0.0
H450 H 0.96428 0.06555 0.67546 0.0
H451 H 0.95849 0.0862 0.6979 0.0
H452 H 0.94825 0.11552 0.71216 0.0
H453 H 0.89951 0.07974 0.73085 0.0
H454 H 0.90944 0.05061 0.7159 0.0
H455 H 0.9414 0.01547 0.68092 0.0
H456 H 0.97083 0.99258 0.68066 0.0
H457 H 0.00148 0.03134 0.71143 0.0
N458 N 0.93691 0.05056 0.69495 0.0
H459 H 0.97271 0.05465 0.71107 0.0
C460 C 0.06053 0.94826 0.67704 0.0
C461 C 0.05282 0.9284 0.67477 0.0
C462 C 0.05661 0.91817 0.66195 0.0
C463 C 0.06784 0.92771 0.65111 0.0
C464 C 0.07454 0.94794 0.65313 0.0
C465 C 0.07097 0.95806 0.66601 0.0
C466 C 0.0675 0.94543 0.7022 0.0
C467 C 0.08873 0.94206 0.70281 0.0
C468 C 0.09685 0.9263 0.71104 0.0
C469 C 0.08389 0.91369 0.71913 0.0
C470 C 0.06275 0.91827 0.71949 0.0
C471 C 0.05459 0.9338 0.71101 0.0
C472 C 0.04163 0.97028 0.69335 0.0
C473 C 0.02169 0.96217 0.69231 0.0
C474 C 0.00455 0.97492 0.69362 0.0
C475 C 0.00693 0.99615 0.69566 0.0
C476 C 0.02696 0.0041 0.69682 0.0
C477 C 0.04406 0.99126 0.69574 0.0
C478 C 0.93269 0.05869 0.68097 0.0
C479 C 0.91219 0.06083 0.67668 0.0
C480 C 0.90726 0.0713 0.66423 0.0
C481 C 0.92281 0.07969 0.65573 0.0
C482 C 0.94342 0.07694 0.65973 0.0
C483 C 0.94834 0.0667 0.6723 0.0
C484 C 0.93459 0.06618 0.70576 0.0
C485 C 0.94588 0.0845 0.70528 0.0
C486 C 0.94003 0.10128 0.71355 0.0
C487 C 0.92285 0.10014 0.72257 0.0
C488 C 0.91256 0.08131 0.72382 0.0
C489 C 0.91836 0.06455 0.71544 0.0
C490 C 0.95463 0.03712 0.69573 0.0
C491 C 0.95452 0.01909 0.68756 0.0
C492 C 0.97134 0.00586 0.68756 0.0
C493 C 0.9887 0.01002 0.69602 0.0
C494 C 0.98864 0.0278 0.70453 0.0
C495 C 0.97192 0.04124 0.70435 0.0
Co496 Co 0.33174 0.67226 0.00638 0.0
O497 O 0.31304 0.64961 0.00464 0.0
O498 O 0.30574 0.68154 -0.00119 0.0
C499 C 0.34239 0.66448 0.02857 0.0
O500 O 0.3465 0.69985 0.00719 0.0
Co501 Co 0.37861 0.66591 0.01084 0.0
O502 O 0.37884 0.69554 0.01497 0.0
C503 C 0.36024 0.65993 0.98225 0.0
C504 C 0.29967 0.66268 -2e-05 0.0
C505 C 0.36393 0.70703 0.01141 0.0
O506 O 0.34265 0.6664 0.98662 0.0
O507 O 0.37582 0.6576 0.99041 0.0
O508 O 0.32543 0.67457 0.02668 0.0
O509 O 0.35147 0.65837 0.01714 0.0
Co510 Co 0.33701 0.8422 0.24615 0.0
O511 O 0.31654 0.86331 0.24519 0.0
O512 O 0.3113 0.83229 0.25377 0.0
C513 C 0.34905 0.8465 0.22392 0.0
O514 O 0.35396 0.81612 0.2481 0.0
Co515 Co 0.38344 0.85249 0.24341 0.0
O516 O 0.3868 0.82245 0.24221 0.0
C517 C 0.361 0.86354 0.26954 0.0
C518 C 0.30393 0.85023 0.25072 0.0
C519 C 0.37243 0.81013 0.2455 0.0
O520 O 0.34576 0.85231 0.26561 0.0
O521 O 0.37651 0.86708 0.26157 0.0
O522 O 0.33255 0.83578 0.22601 0.0
O523 O 0.35651 0.85555 0.235 0.0
Co524 Co 0.16951 0.83731 0.49623 0.0
O525 O 0.14677 0.81854 0.49648 0.0
O526 O 0.17798 0.81164 0.50448 0.0
C527 C 0.16468 0.84788 0.47371 0.0
O528 O 0.19709 0.85224 0.49711 0.0
Co529 Co 0.16285 0.88394 0.49183 0.0
O530 O 0.19301 0.88446 0.48944 0.0
C531 C 0.15121 0.86468 0.519 0.0
C532 C 0.1593 0.80544 0.50212 0.0
C533 C 0.20442 0.86969 0.49333 0.0
O534 O 0.16097 0.84827 0.51551 0.0
O535 O 0.14879 0.87972 0.5105 0.0
O536 O 0.17437 0.83087 0.47611 0.0
O537 O 0.15698 0.85682 0.48471 0.0
Co538 Co 0.16416 0.67993 0.75677 0.0
O539 O 0.14195 0.69927 0.75559 0.0
O540 O 0.17426 0.7059 0.74998 0.0
C541 C 0.15598 0.66824 0.77857 0.0
O542 O 0.19142 0.66453 0.75717 0.0
Co543 Co 0.15666 0.63319 0.75994 0.0
O544 O 0.18659 0.63175 0.76336 0.0
C545 C 0.15098 0.65313 0.73194 0.0
C546 C 0.15549 0.7124 0.75127 0.0
C547 C 0.19833 0.64673 0.76049 0.0
O548 O 0.15813 0.67022 0.7367 0.0
O549 O 0.14802 0.63745 0.73976 0.0
O550 O 0.16664 0.68492 0.7773 0.0
O551 O 0.14962 0.66012 0.76685 0.0
Co552 Co 0.84345 0.17658 0.49684 0.0
O553 O 0.86556 0.19603 0.49724 0.0
O554 O 0.83379 0.20252 0.50428 0.0
C555 C 0.84964 0.165 0.47461 0.0
O556 O 0.81646 0.16068 0.4974 0.0
Co557 Co 0.85229 0.13011 0.49351 0.0
O558 O 0.82213 0.12793 0.49116 0.0
C559 C 0.86179 0.15128 0.52053 0.0
C560 C 0.85243 0.20908 0.50229 0.0
C561 C 0.81001 0.14257 0.49427 0.0
O562 O 0.85142 0.167 0.51652 0.0
O563 O 0.86549 0.13601 0.51236 0.0
O564 O 0.83907 0.18163 0.47654 0.0
O565 O 0.85731 0.15703 0.48595 0.0
Co566 Co 0.8345 0.34255 0.74599 0.0
O567 O 0.81595 0.36546 0.74644 0.0
O568 O 0.80853 0.33443 0.75416 0.0
C569 C 0.84515 0.34753 0.72345 0.0
O570 O 0.84896 0.31484 0.7466 0.0
Co571 Co 0.88146 0.34811 0.74137 0.0
O572 O 0.88173 0.31802 0.73946 0.0
C573 C 0.86305 0.3579 0.76935 0.0
C574 C 0.80253 0.35308 0.75187 0.0
C575 C 0.8665 0.30711 0.74322 0.0
O576 O 0.84562 0.35045 0.76539 0.0
O577 O 0.87846 0.35963 0.761 0.0
O578 O 0.82798 0.33806 0.72586 0.0
O579 O 0.85435 0.35488 0.7345 0.0
Co580 Co 0.6663 0.33662 0.99675 0.0
O581 O 0.64385 0.31754 0.99765 0.0
O582 O 0.67615 0.31023 0.00291 0.0
C583 C 0.65775 0.34938 0.97534 0.0
O584 O 0.69382 0.35155 0.99649 0.0
Co585 Co 0.65971 0.38345 0.99498 0.0
O586 O 0.68942 0.38455 0.99081 0.0
C587 C 0.65524 0.36245 0.02261 0.0
C588 C 0.65725 0.30405 0.00165 0.0
C589 C 0.70098 0.36929 0.9933 0.0
O590 O 0.66094 0.34532 0.01709 0.0
O591 O 0.6529 0.37888 0.01546 0.0
O592 O 0.66833 0.33259 0.97616 0.0
O593 O 0.65171 0.35715 0.98725 0.0
Co594 Co 0.66815 0.17979 0.25592 0.0
O595 O 0.64824 0.20141 0.25542 0.0
O596 O 0.68056 0.20443 0.24846 0.0
C597 C 0.66025 0.16928 0.27808 0.0
O598 O 0.69328 0.16121 0.25556 0.0
Co599 Co 0.65456 0.13446 0.25928 0.0
O600 O 0.68423 0.12985 0.26297 0.0
C601 C 0.6483 0.15576 0.232 0.0
C602 C 0.66274 0.21295 0.25049 0.0
C603 C 0.69781 0.14293 0.25949 0.0
O604 O 0.65984 0.17062 0.23617 0.0
O605 O 0.64275 0.14111 0.24012 0.0
O606 O 0.67254 0.18471 0.27631 0.0
O607 O 0.65216 0.16194 0.26663 0.0
H608 H 0.13774 0.9459 0.25983 0.0
H609 H 0.16682 0.92434 0.25312 0.0
H610 H 0.15078 0.88155 0.28604 0.0
H611 H 0.12195 0.9033 0.29302 0.0
H612 H 0.19 0.89247 0.28813 0.0
H613 H 0.14693 0.86776 0.25122 0.0
H614 H 0.12264 0.86945 0.23113 0.0
H615 H 0.16733 0.90163 0.2063 0.0
H616 H 0.19182 0.90041 0.22632 0.0
H617 H 0.27556 0.83 0.26696 0.0
H618 H 0.23975 0.83998 0.27132 0.0
H619 H 0.24746 0.89228 0.24413 0.0
H620 H 0.28314 0.88261 0.23987 0.0
H621 H 0.21014 0.87078 0.23947 0.0
H622 H 0.25064 0.8995 0.27804 0.0
H623 H 0.27479 0.89765 0.29823 0.0
H624 H 0.23398 0.85687 0.31997 0.0
H625 H 0.20971 0.85826 0.29979 0.0
C626 C 0.1402 0.93173 0.26548 0.0
C627 C 0.12757 0.92635 0.27698 0.0
C628 C 0.15675 0.91933 0.26158 0.0
C629 C 0.16096 0.90128 0.26906 0.0
C630 C 0.1478 0.89539 0.28011 0.0
C631 C 0.13121 0.90775 0.28399 0.0
C632 C 0.18022 0.88979 0.26627 0.0
C633 C 0.19417 0.88728 0.27754 0.0
C634 C 0.18584 0.88331 0.25242 0.0
C635 C 0.17117 0.88412 0.24033 0.0
C636 C 0.15153 0.87535 0.24152 0.0
C637 C 0.13773 0.8762 0.23013 0.0
C638 C 0.14342 0.88567 0.21746 0.0
C639 C 0.16294 0.8943 0.21613 0.0
C640 C 0.1768 0.89351 0.22749 0.0
C641 C 0.26957 0.84357 0.26187 0.0
C642 C 0.28218 0.85561 0.25316 0.0
C643 C 0.24914 0.84923 0.26436 0.0
C644 C 0.241 0.86687 0.25804 0.0
C645 C 0.25343 0.87857 0.24905 0.0
C646 C 0.27386 0.8731 0.24672 0.0
C647 C 0.21988 0.87387 0.26126 0.0
C648 C 0.20569 0.8756 0.25008 0.0
C649 C 0.21397 0.87956 0.2752 0.0
C650 C 0.2285 0.87877 0.28734 0.0
C651 C 0.24691 0.88999 0.28707 0.0
C652 C 0.2606 0.88905 0.29852 0.0
C653 C 0.25596 0.87709 0.31035 0.0
C654 C 0.23758 0.86609 0.31078 0.0
C655 C 0.22385 0.86695 0.29934 0.0
H656 H 0.26657 0.87639 0.31921 0.0
H657 H 0.13272 0.8863 0.20865 0.0
H658 H 0.06629 0.63427 0.51753 0.0
H659 H 0.0805 0.66768 0.51147 0.0
H660 H 0.13926 0.64959 0.52847 0.0
H661 H 0.12499 0.61654 0.53509 0.0
H662 H 0.12896 0.68592 0.53836 0.0
H663 H 0.13135 0.65454 0.49238 0.0
H664 H 0.11789 0.63584 0.47152 0.0
H665 H 0.07394 0.68356 0.46421 0.0
H666 H 0.08696 0.70242 0.48515 0.0
H667 H 0.1822 0.7741 0.51311 0.0
H668 H 0.17113 0.73887 0.51731 0.0
H669 H 0.11037 0.75387 0.50231 0.0
H670 H 0.12135 0.78894 0.49793 0.0
H671 H 0.12352 0.71837 0.49094 0.0
H672 H 0.12051 0.74885 0.53771 0.0
H673 H 0.1343 0.76737 0.55855 0.0
H674 H 0.18009 0.72091 0.56421 0.0
H675 H 0.16674 0.70225 0.54327 0.0
C676 C 0.08226 0.63736 0.51992 0.0
C677 C 0.09448 0.62266 0.52678 0.0
C678 C 0.09042 0.65642 0.51634 0.0
C679 C 0.11101 0.66112 0.51943 0.0
C680 C 0.12336 0.64631 0.52596 0.0
C681 C 0.1152 0.6273 0.52958 0.0
C682 C 0.11937 0.68182 0.51657 0.0
C683 C 0.12808 0.69288 0.52792 0.0
C684 C 0.11786 0.69108 0.50304 0.0
C685 C 0.11001 0.6798 0.49042 0.0
C686 C 0.11871 0.66097 0.48639 0.0
C687 C 0.11118 0.65036 0.47454 0.0
C688 C 0.09504 0.65848 0.46656 0.0
C689 C 0.08643 0.67727 0.4704 0.0
C690 C 0.09389 0.68794 0.48226 0.0
C691 C 0.16646 0.7699 0.51076 0.0
C692 C 0.15264 0.78432 0.50522 0.0
C693 C 0.16015 0.74978 0.51319 0.0
C694 C 0.13988 0.74376 0.5102 0.0
C695 C 0.12609 0.75815 0.50467 0.0
C696 C 0.13238 0.77823 0.50223 0.0
C697 C 0.13296 0.72247 0.51274 0.0
C698 C 0.12451 0.71134 0.50134 0.0
C699 C 0.13477 0.7131 0.52622 0.0
C700 C 0.14276 0.72427 0.53883 0.0
C701 C 0.13362 0.74267 0.54333 0.0
C702 C 0.14134 0.75318 0.55517 0.0
C703 C 0.1581 0.74535 0.56268 0.0
C704 C 0.16714 0.72697 0.55837 0.0
C705 C 0.15949 0.71642 0.54653 0.0
H706 H 0.16405 0.75351 0.57184 0.0
H707 H 0.08923 0.65024 0.45739 0.0
H708 H 0.37643 0.57012 0.7689 0.0
H709 H 0.34234 0.58245 0.7625 0.0
H710 H 0.3614 0.64437 0.77137 0.0
H711 H 0.39515 0.63205 0.77857 0.0
H712 H 0.32709 0.63743 0.78413 0.0
H713 H 0.35051 0.62698 0.73681 0.0
H714 H 0.36626 0.60872 0.71658 0.0
H715 H 0.31936 0.56273 0.71863 0.0
H716 H 0.30348 0.58056 0.73901 0.0
H717 H 0.22927 0.67525 0.76081 0.0
H718 H 0.26637 0.66889 0.76131 0.0
H719 H 0.25526 0.60394 0.7607 0.0
H720 H 0.21832 0.61007 0.76029 0.0
H721 H 0.2865 0.61636 0.74184 0.0
H722 H 0.26602 0.62571 0.79102 0.0
H723 H 0.25039 0.64466 0.81099 0.0
H724 H 0.29258 0.69417 0.80459 0.0
H725 H 0.30827 0.67561 0.78442 0.0
C726 C 0.37343 0.58638 0.76942 0.0
C727 C 0.38857 0.60004 0.77435 0.0
C728 C 0.35397 0.59346 0.76557 0.0
C729 C 0.34928 0.61439 0.76635 0.0
C730 C 0.36463 0.62816 0.77066 0.0
C731 C 0.38404 0.62108 0.77463 0.0
C732 C 0.32792 0.62164 0.76393 0.0
C733 C 0.31841 0.63319 0.77471 0.0
C734 C 0.31638 0.61586 0.75177 0.0
C735 C 0.32589 0.60504 0.73952 0.0
C736 C 0.34364 0.61289 0.73302 0.0
C737 C 0.35258 0.60263 0.72152 0.0
C738 C 0.34384 0.58455 0.71634 0.0
C739 C 0.32612 0.57673 0.72265 0.0
C740 C 0.31713 0.58692 0.73417 0.0
C741 C 0.23473 0.65962 0.76073 0.0
C742 C 0.22081 0.64318 0.76059 0.0
C743 C 0.25591 0.65602 0.76103 0.0
C744 C 0.26351 0.63594 0.76106 0.0
C745 C 0.24969 0.61955 0.76063 0.0
C746 C 0.22857 0.6231 0.7605 0.0
C747 C 0.28583 0.63184 0.76209 0.0
C748 C 0.29542 0.62085 0.75109 0.0
C749 C 0.29752 0.63827 0.77398 0.0
C750 C 0.28814 0.64939 0.78611 0.0
C751 C 0.27183 0.64072 0.79379 0.0
C752 C 0.26299 0.65137 0.80516 0.0
C753 C 0.27044 0.67064 0.80903 0.0
C754 C 0.28679 0.67927 0.80156 0.0
C755 C 0.29567 0.66869 0.79016 0.0
H756 H 0.26358 0.67886 0.81784 0.0
H757 H 0.35078 0.57664 0.70743 0.0
H758 H 0.44624 0.87293 0.03163 0.0
H759 H 0.43116 0.84101 0.02352 0.0
H760 H 0.37819 0.87334 0.00787 0.0
H761 H 0.39368 0.90583 0.01525 0.0
H762 H 0.36945 0.83951 0.02663 0.0
H763 H 0.4054 0.8532 0.98401 0.0
H764 H 0.43463 0.86353 0.96906 0.0
H765 H 0.46992 0.8129 0.98457 0.0
H766 H 0.44102 0.80242 -0.00021 0.0
H767 H 0.33663 0.73789 0.00493 0.0
H768 H 0.34365 0.77474 0.00421 0.0
H769 H 0.40618 0.76358 0.01715 0.0
H770 H 0.39946 0.7271 0.01787 0.0
H771 H 0.40424 0.78973 0.99481 0.0
H772 H 0.37076 0.78067 0.04059 0.0
H773 H 0.34213 0.77078 0.05624 0.0
H774 H 0.30239 0.8131 0.03489 0.0
H775 H 0.33076 0.82305 0.01898 0.0
C776 C 0.43171 0.87354 0.02604 0.0
C777 C 0.42129 0.89217 0.0241 0.0
C778 C 0.42301 0.85514 0.02153 0.0
C779 C 0.40359 0.85483 0.0151 0.0
C780 C 0.3932 0.8733 0.01286 0.0
C781 C 0.40206 0.89183 0.01716 0.0
C782 C 0.39395 0.83493 0.01159 0.0
C783 C 0.37669 0.82876 0.01938 0.0
C784 C 0.40357 0.82091 0.00226 0.0
C785 C 0.42105 0.82709 0.99312 0.0
C786 C 0.41945 0.84435 0.98432 0.0
C787 C 0.43595 0.85022 0.97578 0.0
C788 C 0.45413 0.8389 0.97588 0.0
C789 C 0.45583 0.82166 0.98451 0.0
C790 C 0.43937 0.81573 0.99308 0.0
C791 C 0.35185 0.7433 0.00767 0.0
C792 C 0.36746 0.72946 0.01146 0.0
C793 C 0.35582 0.76436 0.00725 0.0
C794 C 0.37546 0.77188 0.01059 0.0
C795 C 0.39096 0.75811 0.01442 0.0
C796 C 0.38702 0.7372 0.01491 0.0
C797 C 0.38024 0.79405 0.01027 0.0
C798 C 0.39662 0.80063 0.00176 0.0
C799 C 0.36982 0.80841 0.01895 0.0
C800 C 0.35278 0.80238 0.02847 0.0
C801 C 0.35586 0.78772 0.03914 0.0
C802 C 0.3397 0.78213 0.04808 0.0
C803 C 0.32043 0.79124 0.04652 0.0
C804 C 0.31731 0.80601 0.03605 0.0
C805 C 0.33342 0.81163 0.02707 0.0
H806 H 0.30794 0.78691 0.05346 0.0
H807 H 0.46689 0.84346 0.96925 0.0
H808 H 0.13417 0.56928 0.97255 0.0
H809 H 0.16692 0.58377 0.97993 0.0
H810 H 0.13728 0.64091 0.98991 0.0
H811 H 0.10402 0.62623 0.98335 0.0
H812 H 0.17278 0.64253 0.97033 0.0
H813 H 0.15331 0.61775 0.01625 0.0
H814 H 0.14084 0.59214 0.03332 0.0
H815 H 0.19233 0.55355 0.02367 0.0
H816 H 0.20495 0.5788 0.00636 0.0
H817 H 0.26604 0.68715 0.99606 0.0
H818 H 0.23034 0.67632 0.99284 0.0
H819 H 0.24949 0.61319 0.99358 0.0
H820 H 0.28498 0.62392 0.99727 0.0
H821 H 0.21728 0.61723 0.00932 0.0
H822 H 0.23536 0.63889 0.96223 0.0
H823 H 0.24797 0.66263 0.94392 0.0
H824 H 0.19973 0.70488 0.95423 0.0
H825 H 0.18699 0.6815 0.97274 0.0
C826 C 0.13432 0.58471 0.97674 0.0
C827 C 0.11625 0.59652 0.9773 0.0
C828 C 0.15318 0.59303 0.98083 0.0
C829 C 0.15448 0.61341 0.98539 0.0
C830 C 0.13655 0.62516 0.98632 0.0
C831 C 0.11758 0.61674 0.98249 0.0
C832 C 0.17482 0.62258 0.9884 0.0
C833 C 0.18242 0.63734 0.97902 0.0
C834 C 0.18748 0.6153 -0.00052 0.0
C835 C 0.17998 0.6001 0.00991 0.0
C836 C 0.16188 0.60372 0.01766 0.0
C837 C 0.1548 0.58928 0.02741 0.0
C838 C 0.16576 0.57121 0.02956 0.0
C839 C 0.18384 0.56755 0.02199 0.0
C840 C 0.19098 0.58193 0.01222 0.0
C841 C 0.26263 0.67097 0.99541 0.0
C842 C 0.27831 0.65638 0.99689 0.0
C843 C 0.24222 0.66479 0.99355 0.0
C844 C 0.23718 0.64391 0.99286 0.0
C845 C 0.25293 0.62937 0.99414 0.0
C846 C 0.27325 0.63553 0.99618 0.0
C847 C 0.21554 0.63705 0.99109 0.0
C848 C 0.20765 0.62266 0.0007 0.0
C849 C 0.20271 0.64445 0.98007 0.0
C850 C 0.21038 0.65856 0.96898 0.0
C851 C 0.22755 0.65333 0.96067 0.0
C852 C 0.2347 0.6667 0.95025 0.0
C853 C 0.2247 0.68529 0.94795 0.0
C854 C 0.20749 0.69051 0.95605 0.0
C855 C 0.20029 0.67719 0.9665 0.0
H856 H 0.23025 0.69562 0.93987 0.0
H857 H 0.16026 0.56005 0.03711 0.0
H858 H 0.45454 0.63465 0.23117 0.0
H859 H 0.44319 0.66886 0.23813 0.0
H860 H 0.38014 0.64874 0.23685 0.0
H861 H 0.39125 0.61489 0.22924 0.0
H862 H 0.38414 0.68254 0.22247 0.0
H863 H 0.4048 0.66045 0.26863 0.0
H864 H 0.42791 0.64575 0.28668 0.0
H865 H 0.47151 0.69377 0.27941 0.0
H866 H 0.44878 0.70861 0.26117 0.0
H867 H 0.34573 0.7778 0.24779 0.0
H868 H 0.35414 0.74133 0.24729 0.0
H869 H 0.4185 0.75594 0.24405 0.0
H870 H 0.41035 0.79229 0.24461 0.0
H871 H 0.41152 0.72414 0.26248 0.0
H872 H 0.39221 0.74391 0.21483 0.0
H873 H 0.36921 0.75856 0.19668 0.0
H874 H 0.3229 0.71439 0.20702 0.0
H875 H 0.34555 0.69965 0.22538 0.0
C876 C 0.43827 0.63747 0.23246 0.0
C877 C 0.42384 0.62196 0.22961 0.0
C878 C 0.4318 0.65699 0.23659 0.0
C879 C 0.41079 0.66136 0.23811 0.0
C880 C 0.39643 0.64573 0.23578 0.0
C881 C 0.40286 0.62627 0.23157 0.0
C882 C 0.4037 0.68256 0.241 0.0
C883 C 0.38983 0.69147 0.2314 0.0
C884 C 0.41143 0.69441 0.25246 0.0
C885 C 0.42514 0.68555 0.26344 0.0
C886 C 0.41938 0.66779 0.2708 0.0
C887 C 0.4324 0.65945 0.28108 0.0
C888 C 0.45119 0.6688 0.28417 0.0
C889 C 0.45696 0.68654 0.277 0.0
C890 C 0.444 0.69494 0.2667 0.0
C891 C 0.36169 0.77327 0.2471 0.0
C892 C 0.37734 0.78801 0.24613 0.0
C893 C 0.36645 0.75242 0.24679 0.0
C894 C 0.38694 0.74595 0.24552 0.0
C895 C 0.40261 0.76061 0.24505 0.0
C896 C 0.39787 0.7814 0.24528 0.0
C897 C 0.39209 0.72399 0.24393 0.0
C898 C 0.40565 0.71503 0.2537 0.0
C899 C 0.38406 0.71204 0.23264 0.0
C900 C 0.37047 0.72084 0.22158 0.0
C901 C 0.37706 0.73743 0.21331 0.0
C902 C 0.3641 0.74573 0.20297 0.0
C903 C 0.34458 0.73745 0.20073 0.0
C904 C 0.33801 0.72081 0.20879 0.0
C905 C 0.3509 0.71247 0.21916 0.0
H906 H 0.33457 0.74389 0.19272 0.0
H907 H 0.46125 0.66232 0.29213 0.0
H908 H 0.37439 0.94636 0.47077 0.0
H909 H 0.34162 0.93358 0.47921 0.0
H910 H 0.37121 0.87926 0.49498 0.0
H911 H 0.40445 0.89218 0.48671 0.0
H912 H 0.33744 0.87018 0.47913 0.0
H913 H 0.35211 0.91356 0.51842 0.0
H914 H 0.36315 0.94506 0.53073 0.0
H915 H 0.31305 0.97794 0.51191 0.0
H916 H 0.30187 0.94672 0.49931 0.0
H917 H 0.23499 0.84343 0.50218 0.0
H918 H 0.27207 0.85003 0.50278 0.0
H919 H 0.26178 0.91023 0.48572 0.0
H920 H 0.22505 0.90398 0.48525 0.0
H921 H 0.28839 0.91167 0.50743 0.0
H922 H 0.27833 0.86987 0.4649 0.0
H923 H 0.26772 0.83867 0.45201 0.0
H924 H 0.3095 0.80298 0.47705 0.0
H925 H 0.32017 0.83396 0.49021 0.0
C926 C 0.37416 0.93197 0.4764 0.0
C927 C 0.39218 0.9204 0.47815 0.0
C928 C 0.35531 0.92462 0.48117 0.0
C929 C 0.35397 0.90555 0.48787 0.0
C930 C 0.37191 0.89404 0.48986 0.0
C931 C 0.39088 0.90143 0.48511 0.0
C932 C 0.33352 0.89737 0.49187 0.0
C933 C 0.32686 0.87899 0.48562 0.0
C934 C 0.31965 0.90895 0.50022 0.0
C935 C 0.3262 0.92778 0.50787 0.0
C936 C 0.34351 0.92753 0.51683 0.0
C937 C 0.34979 0.94534 0.52387 0.0
C938 C 0.33881 0.96349 0.52209 0.0
C939 C 0.32152 0.96386 0.51329 0.0
C940 C 0.31519 0.9461 0.50621 0.0
C941 C 0.24063 0.85807 0.49856 0.0
C942 C 0.22696 0.87316 0.49367 0.0
C943 C 0.26184 0.8618 0.49889 0.0
C944 C 0.26971 0.88062 0.49427 0.0
C945 C 0.25608 0.89565 0.48944 0.0
C946 C 0.23501 0.89198 0.48912 0.0
C947 C 0.2921 0.88497 0.4942 0.0
C948 C 0.29913 0.90262 0.50123 0.0
C949 C 0.30627 0.87273 0.48657 0.0
C950 C 0.29984 0.85416 0.47866 0.0
C951 C 0.28512 0.85533 0.46773 0.0
C952 C 0.27912 0.8377 0.46036 0.0
C953 C 0.28787 0.81884 0.46374 0.0
C954 C 0.30269 0.81759 0.47447 0.0
C955 C 0.30873 0.83517 0.48188 0.0
H956 H 0.28322 0.80521 0.45802 0.0
H957 H 0.3437 0.97727 0.52755 0.0
H958 H 0.06459 0.87662 0.7219 0.0
H959 H 0.07908 0.84463 0.73032 0.0
H960 H 0.13671 0.87464 0.73884 0.0
H961 H 0.12203 0.90722 0.73122 0.0
H962 H 0.13829 0.83803 0.72064 0.0
H963 H 0.11353 0.86049 0.76592 0.0
H964 H 0.08807 0.87426 0.7828 0.0
H965 H 0.04875 0.8228 0.77481 0.0
H966 H 0.07385 0.80886 0.75769 0.0
H967 H 0.18098 0.74522 0.74758 0.0
H968 H 0.1711 0.781 0.74431 0.0
H969 H 0.10717 0.76369 0.74519 0.0
H970 H 0.11696 0.72814 0.74894 0.0
H971 H 0.11211 0.79627 0.76059 0.0
H972 H 0.13375 0.7757 0.71367 0.0
H973 H 0.15761 0.76187 0.69568 0.0
H974 H 0.20094 0.80937 0.70549 0.0
H975 H 0.17743 0.82332 0.72367 0.0
C976 C 0.08013 0.87675 0.72599 0.0
C977 C 0.09208 0.8947 0.72582 0.0
C978 C 0.08845 0.85831 0.73068 0.0
C979 C 0.10896 0.8573 0.73514 0.0
C980 C 0.12086 0.87514 0.73535 0.0
C981 C 0.11243 0.89372 0.73091 0.0
C982 C 0.11812 0.83727 0.73873 0.0
C983 C 0.13293 0.82901 0.72954 0.0
C984 C 0.11065 0.82541 0.75012 0.0
C985 C 0.09552 0.83372 0.76043 0.0
C986 C 0.09938 0.8522 0.76766 0.0
C987 C 0.08503 0.86002 0.77729 0.0
C988 C 0.06679 0.84943 0.77985 0.0
C989 C 0.06288 0.83099 0.7728 0.0
C990 C 0.07718 0.82311 0.76315 0.0
C991 C 0.16483 0.74906 0.747 0.0
C992 C 0.14974 0.73387 0.74848 0.0
C993 C 0.15919 0.76951 0.7451 0.0
C994 C 0.13836 0.77507 0.74438 0.0
C995 C 0.12333 0.75984 0.74577 0.0
C996 C 0.12895 0.73948 0.74784 0.0
C997 C 0.13206 0.79671 0.7423 0.0
C998 C 0.11774 0.80531 0.75177 0.0
C999 C 0.13979 0.80879 0.73105 0.0
C1000 C 0.15395 0.8004 0.72015 0.0
C1001 C 0.14844 0.78309 0.71207 0.0
C1002 C 0.16189 0.77525 0.70183 0.0
C1003 C 0.18081 0.7847 0.69948 0.0
C1004 C 0.1863 0.80204 0.70734 0.0
C1005 C 0.17292 0.80993 0.71761 0.0
H1006 H 0.19119 0.77861 0.69154 0.0
H1007 H 0.0557 0.85551 0.78732 0.0
H1008 H 0.61556 0.39716 0.78727 0.0
H1009 H 0.64748 0.38022 0.78072 0.0
H1010 H 0.66499 0.43242 0.75571 0.0
H1011 H 0.63254 0.44925 0.76173 0.0
H1012 H 0.67633 0.39636 0.74291 0.0
H1013 H 0.68218 0.4275 0.78942 0.0
H1014 H 0.6715 0.4339 0.8142 0.0
H1015 H 0.6787 0.37018 0.82369 0.0
H1016 H 0.68915 0.36336 0.79888 0.0
H1017 H 0.78456 0.38862 0.74352 0.0
H1018 H 0.74905 0.3994 0.74711 0.0
H1019 H 0.73659 0.3437 0.76983 0.0
H1020 H 0.77222 0.33266 0.76617 0.0
H1021 H 0.72161 0.37857 0.78353 0.0
H1022 H 0.71838 0.34767 0.73766 0.0
H1023 H 0.72869 0.3409 0.71287 0.0
H1024 H 0.71645 0.4034 0.7021 0.0
H1025 H 0.70635 0.41064 0.72691 0.0
C1026 C 0.62586 0.40488 0.78004 0.0
C1027 C 0.62145 0.42467 0.77507 0.0
C1028 C 0.64426 0.39522 0.77644 0.0
C1029 C 0.65879 0.40521 0.76796 0.0
C1030 C 0.65404 0.42449 0.76235 0.0
C1031 C 0.63556 0.43416 0.7659 0.0
C1032 C 0.67943 0.39613 0.76571 0.0
C1033 C 0.68632 0.39266 0.75177 0.0
C1034 C 0.69225 0.39078 0.77731 0.0
C1035 C 0.68626 0.3949 0.79227 0.0
C1036 C 0.68137 0.41484 0.79677 0.0
C1037 C 0.67537 0.41854 0.81082 0.0
C1038 C 0.67438 0.40245 0.8205 0.0
C1039 C 0.67945 0.38263 0.81617 0.0
C1040 C 0.68543 0.37884 0.80212 0.0
C1041 C 0.77431 0.37865 0.74932 0.0
C1042 C 0.7812 0.35978 0.75458 0.0
C1043 C 0.75398 0.38479 0.75128 0.0
C1044 C 0.74014 0.37225 0.7586 0.0
C1045 C 0.74702 0.35355 0.76409 0.0
C1046 C 0.76736 0.34728 0.762 0.0
C1047 C 0.71862 0.37903 0.76073 0.0
C1048 C 0.71158 0.38211 0.77466 0.0
C1049 C 0.70569 0.38399 0.74913 0.0
C1050 C 0.71181 0.37975 0.73419 0.0
C1051 C 0.71808 0.36003 0.73005 0.0
C1052 C 0.72384 0.35609 0.71598 0.0
C1053 C 0.72328 0.37172 0.70592 0.0
C1054 C 0.7169 0.39132 0.70991 0.0
C1055 C 0.71114 0.39534 0.72397 0.0
H1056 H 0.72773 0.36864 0.69503 0.0
H1057 H 0.66972 0.40534 0.83138 0.0
H1058 H 0.56724 0.13216 0.02024 0.0
H1059 H 0.58044 0.16583 0.01368 0.0
H1060 H 0.64198 0.14616 0.02364 0.0
H1061 H 0.62888 0.11272 0.03057 0.0
H1062 H 0.6335 0.18214 0.03601 0.0
H1063 H 0.62747 0.1534 0.98939 0.0
H1064 H 0.61028 0.13589 0.96937 0.0
H1065 H 0.56559 0.18401 0.9672 0.0
H1066 H 0.58235 0.20168 0.98735 0.0
H1067 H 0.68188 0.27203 0.00943 0.0
H1068 H 0.67164 0.23646 0.01322 0.0
H1069 H 0.6088 0.2521 0.00366 0.0
H1070 H 0.61893 0.28754 -0.00032 0.0
H1071 H 0.61971 0.21734 0.99038 0.0
H1072 H 0.62484 0.24499 0.03787 0.0
H1073 H 0.642 0.2623 0.05799 0.0
H1074 H 0.68854 0.21585 0.05851 0.0
H1075 H 0.6718 0.1984 0.03825 0.0
C1076 C 0.5836 0.13497 0.02093 0.0
C1077 C 0.597 0.11973 0.02589 0.0
C1078 C 0.59115 0.15417 0.01709 0.0
C1079 C 0.61223 0.15849 0.0181 0.0
C1080 C 0.62567 0.14316 0.02275 0.0
C1081 C 0.61816 0.12397 0.02656 0.0
C1082 C 0.6201 0.17932 0.01512 0.0
C1083 C 0.63079 0.18971 0.02594 0.0
C1084 C 0.61619 0.18935 0.0021 0.0
C1085 C 0.60607 0.17877 0.98997 0.0
C1086 C 0.61388 0.16017 0.98472 0.0
C1087 C 0.60423 0.15023 0.97334 0.0
C1088 C 0.58682 0.1588 0.96704 0.0
C1089 C 0.57906 0.17737 0.9721 0.0
C1090 C 0.58864 0.18737 0.98349 0.0
C1091 C 0.66588 0.26789 0.00818 0.0
C1092 C 0.6512 0.28261 0.0043 0.0
C1093 C 0.66004 0.24757 0.01037 0.0
C1094 C 0.63942 0.24165 0.00882 0.0
C1095 C 0.62479 0.25631 0.00489 0.0
C1096 C 0.63061 0.27659 0.00268 0.0
C1097 C 0.63297 0.22019 0.01131 0.0
C1098 C 0.62254 0.2097 0.00041 0.0
C1099 C 0.63713 0.21005 0.02426 0.0
C1100 C 0.6472 0.22052 0.03644 0.0
C1101 C 0.63883 0.23856 0.0422 0.0
C1102 C 0.64846 0.24838 0.05364 0.0
C1103 C 0.66638 0.24021 0.0595 0.0
C1104 C 0.67468 0.22218 0.05395 0.0
C1105 C 0.66512 0.21231 0.04249 0.0
H1106 H 0.67381 0.24784 0.06837 0.0
H1107 H 0.57937 0.15109 0.95822 0.0
H1108 H 0.86824 0.06602 0.29096 0.0
H1109 H 0.83393 0.07635 0.28379 0.0
H1110 H 0.85894 0.10835 0.24782 0.0
H1111 H 0.89352 0.0972 0.25445 0.0
H1112 H 0.83204 0.13206 0.26605 0.0
H1113 H 0.83281 0.06877 0.24039 0.0
H1114 H 0.83838 0.03176 0.23724 0.0
H1115 H 0.7932 0.01925 0.26924 0.0
H1116 H 0.78756 0.0562 0.27274 0.0
H1117 H 0.7302 0.1596 0.245 0.0
H1118 H 0.7659 0.14793 0.2449 0.0
H1119 H 0.75041 0.10056 0.27481 0.0
H1120 H 0.71468 0.11159 0.27448 0.0
H1121 H 0.77399 0.08514 0.25583 0.0
H1122 H 0.77625 0.14684 0.28414 0.0
H1123 H 0.7712 0.18354 0.28912 0.0
H1124 H 0.81085 0.19881 0.25431 0.0
H1125 H 0.81594 0.16217 0.24902 0.0
C1126 C 0.86657 0.07467 0.28124 0.0
C1127 C 0.88384 0.08068 0.27329 0.0
C1128 C 0.84686 0.08073 0.27724 0.0
C1129 C 0.84393 0.09311 0.26529 0.0
C1130 C 0.86094 0.09884 0.25711 0.0
C1131 C 0.8807 0.09251 0.26098 0.0
C1132 C 0.82313 0.10091 0.26197 0.0
C1133 C 0.81937 0.12191 0.2635 0.0
C1134 C 0.80662 0.08754 0.25903 0.0
C1135 C 0.80987 0.06528 0.25689 0.0
C1136 C 0.82417 0.05814 0.24684 0.0
C1137 C 0.82732 0.03716 0.24497 0.0
C1138 C 0.81618 0.02316 0.25305 0.0
C1139 C 0.80182 0.03011 0.26299 0.0
C1140 C 0.79863 0.05107 0.26491 0.0
C1141 C 0.73445 0.14674 0.25158 0.0
C1142 C 0.71961 0.13653 0.25975 0.0
C1143 C 0.75488 0.14011 0.25156 0.0
C1144 C 0.76096 0.12346 0.25997 0.0
C1145 C 0.74614 0.11336 0.26817 0.0
C1146 C 0.7257 0.11974 0.26801 0.0
C1147 C 0.78266 0.11634 0.26027 0.0
C1148 C 0.78663 0.09543 0.25817 0.0
C1149 C 0.79933 0.12977 0.26292 0.0
C1150 C 0.79627 0.15179 0.26608 0.0
C1151 C 0.78376 0.15803 0.27748 0.0
C1152 C 0.78091 0.17882 0.28037 0.0
C1153 C 0.79064 0.1935 0.272 0.0
C1154 C 0.80329 0.18742 0.26076 0.0
C1155 C 0.80617 0.16665 0.25781 0.0
H1156 H 0.78843 0.20958 0.27426 0.0
H1157 H 0.81864 0.00693 0.25159 0.0
H1158 H 0.89054 0.40367 0.51575 0.0
H1159 H 0.87645 0.37017 0.50952 0.0
H1160 H 0.93059 0.34105 0.52621 0.0
H1161 H 0.94426 0.37415 0.53344 0.0
H1162 H 0.91239 0.32755 0.49647 0.0
H1163 H 0.8979 0.33845 0.5472 0.0
H1164 H 0.88374 0.35883 0.56703 0.0
H1165 H 0.82434 0.35814 0.54715 0.0
H1166 H 0.83826 0.33801 0.52708 0.0
H1167 H 0.89119 0.22392 0.50492 0.0
H1168 H 0.90184 0.2593 0.50825 0.0
H1169 H 0.83839 0.27829 0.50882 0.0
H1170 H 0.8276 0.24255 0.50602 0.0
H1171 H 0.85835 0.2991 0.52785 0.0
H1172 H 0.86971 0.28529 0.47899 0.0
H1173 H 0.88207 0.26663 0.45782 0.0
H1174 H 0.9444 0.27477 0.47165 0.0
H1175 H 0.93241 0.29324 0.49302 0.0
C1176 C 0.89948 0.3902 0.5182 0.0
C1177 C 0.91854 0.39181 0.52527 0.0
C1178 C 0.89144 0.37107 0.5145 0.0
C1179 C 0.90248 0.35323 0.51748 0.0
C1180 C 0.92191 0.35473 0.52379 0.0
C1181 C 0.92977 0.37377 0.52779 0.0
C1182 C 0.89336 0.3329 0.51476 0.0
C1183 C 0.90069 0.32119 0.50335 0.0
C1184 C 0.87756 0.32507 0.52346 0.0
C1185 C 0.86917 0.33697 0.53557 0.0
C1186 C 0.88187 0.34283 0.54699 0.0
C1187 C 0.87388 0.35429 0.55829 0.0
C1188 C 0.85317 0.35984 0.55833 0.0
C1189 C 0.84039 0.35387 0.54709 0.0
C1190 C 0.84832 0.34243 0.53576 0.0
C1191 C 0.87947 0.2356 0.50581 0.0
C1192 C 0.85855 0.23048 0.50511 0.0
C1193 C 0.88559 0.25588 0.50761 0.0
C1194 C 0.87095 0.27159 0.50842 0.0
C1195 C 0.84999 0.26647 0.50812 0.0
C1196 C 0.84383 0.24606 0.50653 0.0
C1197 C 0.87771 0.29326 0.50967 0.0
C1198 C 0.86991 0.30536 0.52081 0.0
C1199 C 0.89281 0.30161 0.50052 0.0
C1200 C 0.90014 0.29052 0.48767 0.0
C1201 C 0.88605 0.28297 0.47757 0.0
C1202 C 0.89299 0.27245 0.46553 0.0
C1203 C 0.914 0.26948 0.46341 0.0
C1204 C 0.92813 0.27707 0.47331 0.0
C1205 C 0.92127 0.28759 0.48539 0.0
H1206 H 0.91935 0.26133 0.45407 0.0
H1207 H 0.84701 0.36871 0.56708 0.0
H1208 H 0.63539 0.06013 0.47953 0.0
H1209 H 0.66912 0.07291 0.48638 0.0
H1210 H 0.64655 0.13482 0.48449 0.0
H1211 H 0.6132 0.12226 0.47664 0.0
H1212 H 0.68081 0.13329 0.47144 0.0
H1213 H 0.65924 0.11017 0.51686 0.0
H1214 H 0.64501 0.08632 0.5345 0.0
H1215 H 0.69433 0.04433 0.52642 0.0
H1216 H 0.70872 0.0678 0.50858 0.0
H1217 H 0.77804 0.16983 0.49707 0.0
H1218 H 0.74118 0.16229 0.4964 0.0
H1219 H 0.7545 0.09818 0.49094 0.0
H1220 H 0.79113 0.10545 0.49166 0.0
H1221 H 0.72356 0.10472 0.51025 0.0
H1222 H 0.74212 0.12744 0.46274 0.0
H1223 H 0.75598 0.15218 0.44554 0.0
H1224 H 0.71127 0.19653 0.45883 0.0
H1225 H 0.69733 0.17212 0.47626 0.0
C1226 C 0.63754 0.07648 0.48056 0.0
C1227 C 0.62146 0.09011 0.47745 0.0
C1228 C 0.65683 0.08378 0.4847 0.0
C1229 C 0.66042 0.10487 0.48612 0.0
C1230 C 0.64421 0.11848 0.4835 0.0
C1231 C 0.625 0.11122 0.47918 0.0
C1232 C 0.6814 0.11273 0.4893 0.0
C1233 C 0.68995 0.12733 0.48014 0.0
C1234 C 0.69354 0.10486 0.50053 0.0
C1235 C 0.68499 0.09071 0.5113 0.0
C1236 C 0.66698 0.09579 0.51877 0.0
C1237 C 0.65889 0.08235 0.52881 0.0
C1238 C 0.66873 0.06381 0.53156 0.0
C1239 C 0.68672 0.0587 0.52428 0.0
C1240 C 0.69486 0.07208 0.51421 0.0
C1241 C 0.77313 0.15412 0.4958 0.0
C1242 C 0.78761 0.13828 0.49434 0.0
C1243 C 0.75205 0.14984 0.4954 0.0
C1244 C 0.7451 0.12968 0.49354 0.0
C1245 C 0.75951 0.11384 0.49241 0.0
C1246 C 0.78049 0.11808 0.49275 0.0
C1247 C 0.7229 0.12489 0.49225 0.0
C1248 C 0.71418 0.11087 0.50174 0.0
C1249 C 0.71052 0.13346 0.48143 0.0
C1250 C 0.71885 0.14806 0.47091 0.0
C1251 C 0.73536 0.14253 0.46207 0.0
C1252 C 0.74321 0.15648 0.45227 0.0
C1253 C 0.73455 0.17594 0.45112 0.0
C1254 C 0.71799 0.18147 0.45975 0.0
C1255 C 0.7101 0.16758 0.46959 0.0
H1256 H 0.74065 0.18672 0.44353 0.0
H1257 H 0.66244 0.05342 0.53934 0.0
H1258 H 0.94426 0.13236 0.7342 0.0
H1259 H 0.93068 0.16549 0.74144 0.0
H1260 H 0.86898 0.14382 0.7341 0.0
H1261 H 0.88251 0.11107 0.72597 0.0
H1262 H 0.8732 0.17836 0.72182 0.0
H1263 H 0.88802 0.15529 0.76844 0.0
H1264 H 0.90832 0.14006 0.78784 0.0
H1265 H 0.95272 0.18827 0.78445 0.0
H1266 H 0.93286 0.20365 0.76489 0.0
H1267 H 0.83712 0.27699 0.74477 0.0
H1268 H 0.84272 0.2399 0.74509 0.0
H1269 H 0.90817 0.24959 0.74379 0.0
H1270 H 0.90281 0.28641 0.74342 0.0
H1271 H 0.89661 0.21952 0.76323 0.0
H1272 H 0.88336 0.23866 0.71403 0.0
H1273 H 0.86247 0.25357 0.69479 0.0
H1274 H 0.81356 0.21173 0.70405 0.0
H1275 H 0.83409 0.19675 0.72348 0.0
C1276 C 0.92779 0.13457 0.73419 0.0
C1277 C 0.91454 0.11902 0.72938 0.0
C1278 C 0.92 0.15348 0.73853 0.0
C1279 C 0.89874 0.15717 0.73844 0.0
C1280 C 0.88542 0.14136 0.73429 0.0
C1281 C 0.89322 0.12252 0.72979 0.0
C1282 C 0.89067 0.17805 0.74134 0.0
C1283 C 0.87794 0.18714 0.73108 0.0
C1284 C 0.89698 0.18971 0.75332 0.0
C1285 C 0.90899 0.18056 0.76512 0.0
C1286 C 0.90219 0.16257 0.77176 0.0
C1287 C 0.91361 0.15392 0.7828 0.0
C1288 C 0.93181 0.16317 0.78736 0.0
C1289 C 0.93862 0.18112 0.78091 0.0
C1290 C 0.92726 0.18983 0.76985 0.0
C1291 C 0.8527 0.27121 0.74464 0.0
C1292 C 0.8695 0.28468 0.74395 0.0
C1293 C 0.85586 0.25003 0.74482 0.0
C1294 C 0.87587 0.24203 0.74443 0.0
C1295 C 0.89262 0.25545 0.74414 0.0
C1296 C 0.88949 0.27652 0.74383 0.0
C1297 C 0.87961 0.21972 0.74358 0.0
C1298 C 0.89155 0.21045 0.75418 0.0
C1299 C 0.87243 0.20782 0.73201 0.0
C1300 C 0.86014 0.21678 0.72031 0.0
C1301 C 0.86808 0.23277 0.71204 0.0
C1302 C 0.85632 0.2412 0.70109 0.0
C1303 C 0.83667 0.23365 0.69823 0.0
C1304 C 0.82876 0.2176 0.7063 0.0
C1305 C 0.84045 0.20913 0.71728 0.0
H1306 H 0.82759 0.24019 0.68975 0.0
H1307 H 0.94063 0.15645 0.79591 0.0
H1308 H 0.89808 0.38605 0.97516 0.0
H1309 H 0.86506 0.37245 0.98268 0.0
H1310 H 0.84318 0.43368 0.99059 0.0
H1311 H 0.87668 0.44734 0.98416 0.0
H1312 H 0.82694 0.40944 0.00911 0.0
H1313 H 0.83535 0.40714 0.95796 0.0
H1314 H 0.85246 0.39711 0.93559 0.0
H1315 H 0.84424 0.33377 0.94585 0.0
H1316 H 0.82731 0.34345 0.96838 0.0
H1317 H 0.72162 0.40558 0.99272 0.0
H1318 H 0.75861 0.41104 0.99249 0.0
H1319 H 0.76865 0.34593 0.993 0.0
H1320 H 0.73142 0.34021 0.99329 0.0
H1321 H 0.79204 0.36698 0.97245 0.0
H1322 H 0.77811 0.37107 0.02229 0.0
H1323 H 0.75972 0.3828 0.04373 0.0
H1324 H 0.77697 0.44478 0.03493 0.0
H1325 H 0.79521 0.43346 0.01331 0.0
C1326 C 0.88654 0.39665 0.97894 0.0
C1327 C 0.89004 0.41789 0.97882 0.0
C1328 C 0.8675 0.38882 0.98305 0.0
C1329 C 0.8514 0.40206 0.98678 0.0
C1330 C 0.85527 0.42314 0.98759 0.0
C1331 C 0.8744 0.43096 0.98374 0.0
C1332 C 0.83017 0.39427 0.98883 0.0
C1333 C 0.81931 0.40022 0.00106 0.0
C1334 C 0.82027 0.38184 0.97849 0.0
C1335 C 0.83029 0.37602 0.96491 0.0
C1336 C 0.83731 0.39108 0.95548 0.0
C1337 C 0.84696 0.38546 0.94277 0.0
C1338 C 0.84949 0.36481 0.93932 0.0
C1339 C 0.84231 0.34975 0.94855 0.0
C1340 C 0.83268 0.3553 0.96128 0.0
C1341 C 0.73162 0.39236 0.99278 0.0
C1342 C 0.72351 0.37243 0.99303 0.0
C1343 C 0.75279 0.39554 0.99275 0.0
C1344 C 0.76634 0.3789 0.9929 0.0
C1345 C 0.7584 0.35897 0.99296 0.0
C1346 C 0.73715 0.35575 0.99315 0.0
C1347 C 0.78877 0.38257 0.99253 0.0
C1348 C 0.79982 0.37587 0.98061 0.0
C1349 C 0.79873 0.39455 0.00304 0.0
C1350 C 0.78793 0.40141 0.01612 0.0
C1351 C 0.77787 0.38722 0.02487 0.0
C1352 C 0.76748 0.39379 0.03706 0.0
C1353 C 0.76715 0.41453 0.04068 0.0
C1354 C 0.77724 0.42872 0.03212 0.0
C1355 C 0.78763 0.42223 0.0199 0.0
H1356 H 0.7591 0.41959 0.05012 0.0
H1357 H 0.85697 0.36049 0.92948 0.0
H1358 H 0.61126 0.39468 0.20937 0.0
H1359 H 0.6348 0.36732 0.21577 0.0
H1360 H 0.59479 0.34991 0.25016 0.0
H1361 H 0.57187 0.37816 0.24448 0.0
H1362 H 0.63276 0.34256 0.25745 0.0
H1363 H 0.59118 0.32901 0.21552 0.0
H1364 H 0.57853 0.33606 0.19129 0.0
H1365 H 0.63993 0.33138 0.17504 0.0
H1366 H 0.65298 0.3246 0.19925 0.0
H1367 H 0.63095 0.23571 0.26028 0.0
H1368 H 0.6241 0.27181 0.25613 0.0
H1369 H 0.6788 0.27612 0.23054 0.0
H1370 H 0.68602 0.23974 0.23487 0.0
H1371 H 0.64172 0.29272 0.21796 0.0
H1372 H 0.68118 0.2988 0.26046 0.0
H1373 H 0.69171 0.29041 0.28495 0.0
H1374 H 0.63209 0.30751 0.30035 0.0
H1375 H 0.62108 0.31572 0.27593 0.0
C1376 C 0.60778 0.38558 0.21865 0.0
C1377 C 0.58938 0.38847 0.22626 0.0
C1378 C 0.62119 0.36971 0.22217 0.0
C1379 C 0.61625 0.35613 0.23315 0.0
C1380 C 0.59883 0.36002 0.24151 0.0
C1381 C 0.58559 0.37608 0.23816 0.0
C1382 C 0.62788 0.3368 0.23512 0.0
C1383 C 0.63473 0.33168 0.24881 0.0
C1384 C 0.63094 0.32274 0.22377 0.0
C1385 C 0.62308 0.32656 0.2092 0.0
C1386 C 0.60199 0.32961 0.20679 0.0
C1387 C 0.59475 0.33355 0.19306 0.0
C1388 C 0.60843 0.33424 0.18164 0.0
C1389 C 0.62937 0.3309 0.18391 0.0
C1390 C 0.63669 0.32701 0.19763 0.0
C1391 C 0.64159 0.2443 0.25379 0.0
C1392 C 0.659 0.23489 0.24787 0.0
C1393 C 0.63771 0.26497 0.25151 0.0
C1394 C 0.65104 0.27665 0.24315 0.0
C1395 C 0.66841 0.26734 0.2371 0.0
C1396 C 0.6725 0.24662 0.23958 0.0
C1397 C 0.64598 0.29832 0.24035 0.0
C1398 C 0.64028 0.30384 0.22651 0.0
C1399 C 0.64371 0.3126 0.25159 0.0
C1400 C 0.65027 0.30777 0.26633 0.0
C1401 C 0.67026 0.30063 0.26905 0.0
C1402 C 0.67632 0.29593 0.28293 0.0
C1403 C 0.66257 0.2984 0.29419 0.0
C1404 C 0.64273 0.30561 0.29161 0.0
C1405 C 0.63658 0.31032 0.27775 0.0
H1406 H 0.6673 0.29476 0.30493 0.0
H1407 H 0.60279 0.33731 0.17103 0.0
H1408 H 0.09393 0.9095 0.35275 0.0
H1409 H 0.10808 0.88938 0.37228 0.0
H1410 H 0.12523 0.94487 0.39427 0.0
H1411 H 0.11107 0.9651 0.37477 0.0
H1412 H 0.15609 0.9179 0.39457 0.0
H1413 H 0.08383 0.91683 0.40466 0.0
H1414 H 0.04713 0.91089 0.39966 0.0
H1415 H 0.05918 0.84721 0.39227 0.0
H1416 H 0.09603 0.85283 0.39704 0.0
H1417 H 0.16027 0.88778 0.46688 0.0
H1418 H 0.15167 0.90205 0.44368 0.0
H1419 H 0.15305 0.84169 0.42509 0.0
H1420 H 0.16233 0.82727 0.44838 0.0
H1421 H 0.11493 0.86703 0.42115 0.0
H1422 H 0.18743 0.86854 0.41413 0.0
H1423 H 0.22342 0.87555 0.42065 0.0
H1424 H 0.21014 0.93969 0.42367 0.0
H1425 H 0.17396 0.93303 0.41739 0.0
C1426 C 0.10042 0.91743 0.36185 0.0
C1427 C 0.1013 0.93891 0.36225 0.0
C1428 C 0.10858 0.90591 0.37297 0.0
C1429 C 0.11764 0.91562 0.38476 0.0
C1430 C 0.11841 0.93705 0.38523 0.0
C1431 C 0.1103 0.94859 0.3741 0.0
C1432 C 0.12648 0.9035 0.39657 0.0
C1433 C 0.14704 0.90687 0.40043 0.0
C1434 C 0.11484 0.8887 0.40397 0.0
C1435 C 0.09272 0.8853 0.40102 0.0
C1436 C 0.07869 0.9016 0.40183 0.0
C1437 C 0.05786 0.89828 0.39907 0.0
C1438 C 0.05084 0.8787 0.3956 0.0
C1439 C 0.06465 0.86238 0.39492 0.0
C1440 C 0.0855 0.86562 0.39766 0.0
C1441 C 0.15909 0.87757 0.45782 0.0
C1442 C 0.16193 0.85644 0.45938 0.0
C1443 C 0.15422 0.88575 0.44458 0.0
C1444 C 0.15174 0.8729 0.43274 0.0
C1445 C 0.15497 0.8518 0.43415 0.0
C1446 C 0.16035 0.84363 0.44739 0.0
C1447 C 0.14437 0.88168 0.41922 0.0
C1448 C 0.12405 0.87777 0.41508 0.0
C1449 C 0.15615 0.89613 0.41168 0.0
C1450 C 0.17792 0.90026 0.4154 0.0
C1451 C 0.19213 0.88412 0.41631 0.0
C1452 C 0.21258 0.88804 0.41994 0.0
C1453 C 0.21905 0.90805 0.4226 0.0
C1454 C 0.2051 0.92419 0.42161 0.0
C1455 C 0.18462 0.92036 0.418 0.0
H1456 H 0.2349 0.91105 0.42541 0.0
H1457 H 0.03471 0.87616 0.39348 0.0
H1458 H 0.10364 0.56715 0.6201 0.0
H1459 H 0.11326 0.58528 0.64191 0.0
H1460 H 0.08399 0.63995 0.62645 0.0
H1461 H 0.0743 0.62183 0.60447 0.0
H1462 H 0.12425 0.64618 0.63933 0.0
H1463 H 0.05915 0.61684 0.64995 0.0
H1464 H 0.0329 0.58974 0.6507 0.0
H1465 H 0.07223 0.55329 0.67707 0.0
H1466 H 0.09887 0.58004 0.67629 0.0
H1467 H 0.13738 0.68247 0.71316 0.0
H1468 H 0.12402 0.67637 0.68895 0.0
H1469 H 0.13972 0.61254 0.6925 0.0
H1470 H 0.15264 0.6184 0.71641 0.0
H1471 H 0.10004 0.61782 0.68517 0.0
H1472 H 0.16682 0.64514 0.67148 0.0
H1473 H 0.19335 0.67198 0.67048 0.0
H1474 H 0.15069 0.71245 0.65011 0.0
H1475 H 0.12382 0.6859 0.65115 0.0
C1476 C 0.09936 0.58306 0.6213 0.0
C1477 C 0.08816 0.59307 0.61063 0.0
C1478 C 0.1048 0.59337 0.63377 0.0
C1479 C 0.09924 0.6139 0.63578 0.0
C1480 C 0.08839 0.62411 0.62506 0.0
C1481 C 0.08273 0.6137 0.61261 0.0
C1482 C 0.1044 0.62423 0.64936 0.0
C1483 C 0.11868 0.64031 0.64938 0.0
C1484 C 0.09708 0.61654 0.66241 0.0
C1485 C 0.08106 0.60042 0.66299 0.0
C1486 C 0.06227 0.60298 0.65582 0.0
C1487 C 0.04731 0.58769 0.65627 0.0
C1488 C 0.0509 0.56979 0.66391 0.0
C1489 C 0.06946 0.56716 0.67115 0.0
C1490 C 0.08449 0.5824 0.67072 0.0
C1491 C 0.13825 0.66725 0.70862 0.0
C1492 C 0.14575 0.65084 0.71672 0.0
C1493 C 0.13062 0.66378 0.69483 0.0
C1494 C 0.13067 0.64393 0.68902 0.0
C1495 C 0.13925 0.6279 0.69685 0.0
C1496 C 0.14665 0.63129 0.71053 0.0
C1497 C 0.12074 0.63905 0.67521 0.0
C1498 C 0.10536 0.62403 0.67515 0.0
C1499 C 0.12708 0.64775 0.6622 0.0
C1500 C 0.14324 0.66365 0.66157 0.0
C1501 C 0.16304 0.65983 0.66691 0.0
C1502 C 0.17815 0.67497 0.66631 0.0
C1503 C 0.17368 0.69394 0.66029 0.0
C1504 C 0.15411 0.69777 0.6548 0.0
C1505 C 0.13894 0.68268 0.65539 0.0
H1506 H 0.1854 0.70564 0.65983 0.0
H1507 H 0.0393 0.55797 0.66424 0.0
H1508 H 0.44795 0.61751 0.86856 0.0
H1509 H 0.43078 0.6267 0.89077 0.0
H1510 H 0.37956 0.58806 0.87952 0.0
H1511 H 0.39663 0.57894 0.85708 0.0
H1512 H 0.36765 0.62666 0.89055 0.0
H1513 H 0.41052 0.57082 0.90347 0.0
H1514 H 0.44244 0.55063 0.90451 0.0
H1515 H 0.47266 0.59975 0.92662 0.0
H1516 H 0.441 0.62036 0.92552 0.0
H1517 H 0.33321 0.64101 0.96397 0.0
H1518 H 0.34112 0.62744 0.94013 0.0
H1519 H 0.40172 0.65391 0.9428 0.0
H1520 H 0.39416 0.66671 0.96657 0.0
H1521 H 0.40428 0.6152 0.93611 0.0
H1522 H 0.36203 0.67245 0.92052 0.0
H1523 H 0.3299 0.69234 0.91935 0.0
H1524 H 0.29809 0.64002 0.90257 0.0
H1525 H 0.32999 0.61975 0.9038 0.0
C1526 C 0.43299 0.61103 0.87077 0.0
C1527 C 0.42367 0.59746 0.86111 0.0
C1528 C 0.42324 0.61622 0.88348 0.0
C1529 C 0.40397 0.60794 0.88681 0.0
C1530 C 0.39445 0.59457 0.87714 0.0
C1531 C 0.40429 0.58924 0.86442 0.0
C1532 C 0.39415 0.61322 0.90056 0.0
C1533 C 0.37544 0.62388 0.90056 0.0
C1534 C 0.40433 0.60956 0.91358 0.0
C1535 C 0.42341 0.59719 0.91432 0.0
C1536 C 0.42401 0.57738 0.90846 0.0
C1537 C 0.44205 0.56585 0.90908 0.0
C1538 C 0.45957 0.57392 0.91561 0.0
C1539 C 0.45907 0.59352 0.92156 0.0
C1540 C 0.44108 0.60512 0.92096 0.0
C1541 C 0.34804 0.6442 0.95929 0.0
C1542 C 0.36316 0.65471 0.96711 0.0
C1543 C 0.35256 0.63646 0.9457 0.0
C1544 C 0.37209 0.63953 0.93971 0.0
C1545 C 0.38666 0.6511 0.94725 0.0
C1546 C 0.3823 0.65847 0.96082 0.0
C1547 C 0.37832 0.62969 0.92611 0.0
C1548 C 0.39632 0.61787 0.92614 0.0
C1549 C 0.36743 0.6323 0.9132 0.0
C1550 C 0.34832 0.64453 0.9124 0.0
C1551 C 0.34814 0.66515 0.91668 0.0
C1552 C 0.32998 0.6765 0.91599 0.0
C1553 C 0.31195 0.66743 0.91093 0.0
C1554 C 0.31206 0.64701 0.90651 0.0
C1555 C 0.33017 0.6356 0.90719 0.0
H1556 H 0.29791 0.67624 0.91041 0.0
H1557 H 0.47353 0.56496 0.91608 0.0
H1558 H 0.39568 0.91705 0.10102 0.0
H1559 H 0.3808 0.89829 0.12092 0.0
H1560 H 0.44029 0.89594 0.14119 0.0
H1561 H 0.45537 0.9139 0.12085 0.0
H1562 H 0.42152 0.86145 0.14542 0.0
H1563 H 0.40225 0.93182 0.15071 0.0
H1564 H 0.38755 0.96485 0.14334 0.0
H1565 H 0.32865 0.93656 0.13742 0.0
H1566 H 0.34308 0.90329 0.14457 0.0
H1567 H 0.38819 0.85783 0.21792 0.0
H1568 H 0.40245 0.86642 0.19466 0.0
H1569 H 0.34479 0.85097 0.17472 0.0
H1570 H 0.33052 0.84185 0.19802 0.0
H1571 H 0.36094 0.89192 0.16943 0.0
H1572 H 0.38124 0.82168 0.16729 0.0
H1573 H 0.39712 0.79019 0.17645 0.0
H1574 H 0.45569 0.82017 0.1785 0.0
H1575 H 0.44009 0.85198 0.16958 0.0
C1576 C 0.40554 0.9125 0.10974 0.0
C1577 C 0.42657 0.91713 0.10957 0.0
C1578 C 0.39705 0.90181 0.12111 0.0
C1579 C 0.40932 0.89609 0.13273 0.0
C1580 C 0.43049 0.90025 0.13238 0.0
C1581 C 0.43908 0.91058 0.12082 0.0
C1582 C 0.39992 0.88643 0.14543 0.0
C1583 C 0.40838 0.86823 0.15073 0.0
C1584 C 0.38254 0.89503 0.15227 0.0
C1585 C 0.37379 0.91504 0.14803 0.0
C1586 C 0.3862 0.93262 0.14774 0.0
C1587 C 0.37791 0.95138 0.14361 0.0
C1588 C 0.35719 0.95279 0.13987 0.0
C1589 C 0.3447 0.93544 0.14029 0.0
C1590 C 0.35292 0.91663 0.14439 0.0
C1591 C 0.37866 0.85592 0.20856 0.0
C1592 C 0.35823 0.84927 0.20974 0.0
C1593 C 0.38685 0.86076 0.19529 0.0
C1594 C 0.37466 0.85929 0.18302 0.0
C1595 C 0.35442 0.85211 0.1841 0.0
C1596 C 0.34633 0.84688 0.19737 0.0
C1597 C 0.38258 0.8671 0.16937 0.0
C1598 C 0.3739 0.88504 0.16397 0.0
C1599 C 0.39995 0.85847 0.16265 0.0
C1600 C 0.40945 0.83929 0.16787 0.0
C1601 C 0.39748 0.82163 0.16981 0.0
C1602 C 0.40643 0.8037 0.17494 0.0
C1603 C 0.4274 0.80319 0.17808 0.0
C1604 C 0.43945 0.82059 0.17607 0.0
C1605 C 0.43056 0.83857 0.17096 0.0
H1606 H 0.4343 0.7893 0.18206 0.0
H1607 H 0.3508 0.96733 0.13668 0.0
H1608 H 0.11993 0.58959 0.90347 0.0
H1609 H 0.13801 0.60388 0.88297 0.0
H1610 H 0.08685 0.58807 0.85589 0.0
H1611 H 0.06869 0.57369 0.87635 0.0
H1612 H 0.12629 0.57959 0.84387 0.0
H1613 H 0.0898 0.63468 0.86839 0.0
H1614 H 0.082 0.65585 0.88949 0.0
H1615 H 0.1453 0.67374 0.89246 0.0
H1616 H 0.15351 0.65244 0.87148 0.0
H1617 H 0.12669 0.64015 0.7839 0.0
H1618 H 0.11935 0.62304 0.80619 0.0
H1619 H 0.16862 0.6562 0.82663 0.0
H1620 H 0.17552 0.67418 0.80421 0.0
H1621 H 0.1371 0.65468 0.84366 0.0
H1622 H 0.1735 0.60461 0.81755 0.0
H1623 H 0.18286 0.58343 0.79679 0.0
H1624 H 0.12335 0.55523 0.79737 0.0
H1625 H 0.1135 0.57647 0.818 0.0
C1626 C 0.11271 0.58882 0.89309 0.0
C1627 C 0.09289 0.58058 0.89148 0.0
C1628 C 0.123 0.59709 0.88143 0.0
C1629 C 0.11368 0.59713 0.86797 0.0
C1630 C 0.09427 0.58816 0.86622 0.0
C1631 C 0.08388 0.58007 0.87789 0.0
C1632 C 0.12352 0.60755 0.85583 0.0
C1633 C 0.12862 0.596 0.84375 0.0
C1634 C 0.12732 0.62884 0.85599 0.0
C1635 C 0.1223 0.6418 0.86848 0.0
C1636 C 0.10208 0.64301 0.87361 0.0
C1637 C 0.09758 0.65505 0.88554 0.0
C1638 C 0.11315 0.66609 0.89234 0.0
C1639 C 0.13325 0.66516 0.8872 0.0
C1640 C 0.13783 0.65312 0.87529 0.0
C1641 C 0.13602 0.64381 0.79312 0.0
C1642 C 0.15177 0.65838 0.79232 0.0
C1643 C 0.1319 0.63389 0.80585 0.0
C1644 C 0.14379 0.63788 0.81801 0.0
C1645 C 0.15937 0.65273 0.81734 0.0
C1646 C 0.1633 0.66298 0.80457 0.0
C1647 C 0.1393 0.62683 0.8314 0.0
C1648 C 0.13522 0.63821 0.84378 0.0
C1649 C 0.13679 0.6053 0.8316 0.0
C1650 C 0.14273 0.59222 0.81931 0.0
C1651 C 0.16236 0.59397 0.81322 0.0
C1652 C 0.16776 0.58194 0.80147 0.0
C1653 C 0.1537 0.568 0.79576 0.0
C1654 C 0.13423 0.56602 0.80181 0.0
C1655 C 0.12874 0.57803 0.81355 0.0
H1656 H 0.1579 0.55872 0.78666 0.0
H1657 H 0.10964 0.67539 0.90157 0.0
H1658 H 0.4298 0.6064 0.14456 0.0
H1659 H 0.41677 0.62366 0.12343 0.0
H1660 H 0.36771 0.57959 0.12019 0.0
H1661 H 0.38118 0.56168 0.14095 0.0
H1662 H 0.38348 0.58606 0.09506 0.0
H1663 H 0.35953 0.62846 0.13318 0.0
H1664 H 0.36254 0.64943 0.15496 0.0
H1665 H 0.40285 0.69085 0.13336 0.0
H1666 H 0.40031 0.66996 0.1115 0.0
H1667 H 0.32336 0.66898 0.05439 0.0
H1668 H 0.335 0.65537 0.07732 0.0
H1669 H 0.39089 0.63415 0.05762 0.0
H1670 H 0.37929 0.64733 0.03476 0.0
H1671 H 0.36857 0.66045 0.09489 0.0
H1672 H 0.40107 0.58677 0.06925 0.0
H1673 H 0.39551 0.56551 0.04783 0.0
H1674 H 0.33287 0.58571 0.04564 0.0
H1675 H 0.33798 0.60684 0.06715 0.0
C1676 C 0.41639 0.6002 0.13925 0.0
C1677 C 0.40655 0.58262 0.14446 0.0
C1678 C 0.40879 0.61027 0.12728 0.0
C1679 C 0.39107 0.60311 0.12035 0.0
C1680 C 0.38134 0.58545 0.12542 0.0
C1681 C 0.38898 0.57532 0.13735 0.0
C1682 C 0.38296 0.61371 0.1076 0.0
C1683 C 0.38021 0.60232 0.09506 0.0
C1684 C 0.37838 0.63489 0.10763 0.0
C1685 C 0.37986 0.64754 0.12074 0.0
C1686 C 0.36916 0.64196 0.1331 0.0
C1687 C 0.37076 0.65384 0.14546 0.0
C1688 C 0.38292 0.67144 0.14555 0.0
C1689 C 0.39346 0.6772 0.13327 0.0
C1690 C 0.39192 0.66536 0.12089 0.0
C1691 C 0.33825 0.66166 0.05502 0.0
C1692 C 0.35029 0.65896 0.04277 0.0
C1693 C 0.34489 0.65395 0.06811 0.0
C1694 C 0.36363 0.64344 0.06909 0.0
C1695 C 0.3762 0.64188 0.05703 0.0
C1696 C 0.36955 0.64945 0.04398 0.0
C1697 C 0.36951 0.63283 0.08238 0.0
C1698 C 0.37184 0.6442 0.09496 0.0
C1699 C 0.37335 0.61154 0.0825 0.0
C1700 C 0.36998 0.59851 0.06974 0.0
C1701 C 0.38609 0.58658 0.06424 0.0
C1702 C 0.38302 0.57457 0.05207 0.0
C1703 C 0.36387 0.57431 0.04535 0.0
C1704 C 0.34772 0.58598 0.05082 0.0
C1705 C 0.3507 0.59799 0.063 0.0
H1706 H 0.36153 0.56503 0.03592 0.0
H1707 H 0.38414 0.68062 0.15513 0.0
H1708 H 0.38865 0.91892 0.40165 0.0
H1709 H 0.37049 0.90701 0.38023 0.0
H1710 H 0.41782 0.93322 0.35399 0.0
H1711 H 0.43623 0.94476 0.37537 0.0
H1712 H 0.37424 0.94073 0.34523 0.0
H1713 H 0.42201 0.88664 0.35918 0.0
H1714 H 0.43599 0.86168 0.37621 0.0
H1715 H 0.37667 0.83354 0.37975 0.0
H1716 H 0.36228 0.85856 0.36288 0.0
H1717 H 0.38426 0.89535 0.27894 0.0
H1718 H 0.38685 0.90898 0.30296 0.0
H1719 H 0.34101 0.86617 0.3172 0.0
H1720 H 0.33829 0.85225 0.29292 0.0
H1721 H 0.37517 0.86643 0.33434 0.0
H1722 H 0.32863 0.91507 0.31709 0.0
H1723 H 0.31316 0.9396 0.30042 0.0
H1724 H 0.36652 0.97786 0.30372 0.0
H1725 H 0.38249 0.95339 0.32024 0.0
C1726 C 0.39501 0.92231 0.39128 0.0
C1727 C 0.41381 0.93272 0.39009 0.0
C1728 C 0.38468 0.91549 0.37911 0.0
C1729 C 0.39284 0.91929 0.36558 0.0
C1730 C 0.41127 0.93025 0.36436 0.0
C1731 C 0.4218 0.93672 0.37653 0.0
C1732 C 0.38288 0.91092 0.35266 0.0
C1733 C 0.37443 0.92452 0.34279 0.0
C1734 C 0.38235 0.88968 0.34986 0.0
C1735 C 0.39102 0.87463 0.35994 0.0
C1736 C 0.41191 0.87526 0.36371 0.0
C1737 C 0.41991 0.86108 0.3733 0.0
C1738 C 0.40721 0.84608 0.3791 0.0
C1739 C 0.38648 0.8452 0.37528 0.0
C1740 C 0.3784 0.85937 0.3657 0.0
C1741 C 0.37457 0.88887 0.28711 0.0
C1742 C 0.36116 0.87261 0.28401 0.0
C1743 C 0.37597 0.89681 0.30084 0.0
C1744 C 0.364 0.88873 0.31184 0.0
C1745 C 0.35031 0.87268 0.30882 0.0
C1746 C 0.34875 0.8648 0.29496 0.0
C1747 C 0.36719 0.89632 0.32657 0.0
C1748 C 0.37442 0.88261 0.33685 0.0
C1749 C 0.36628 0.91745 0.32983 0.0
C1750 C 0.35682 0.9323 0.31987 0.0
C1751 C 0.33716 0.92863 0.31418 0.0
C1752 C 0.32828 0.94254 0.30477 0.0
C1753 C 0.33886 0.96026 0.301 0.0
C1754 C 0.35834 0.96412 0.30666 0.0
C1755 C 0.3673 0.95024 0.31607 0.0
H1756 H 0.33196 0.97102 0.29371 0.0
H1757 H 0.41344 0.8351 0.38652 0.0
H1758 H 0.06523 0.9406 0.6236 0.0
H1759 H 0.07741 0.92285 0.60225 0.0
H1760 H 0.09603 0.87148 0.62779 0.0
H1761 H 0.08394 0.88927 0.64924 0.0
H1762 H 0.12643 0.88428 0.6094 0.0
H1763 H 0.0563 0.86529 0.6066 0.0
H1764 H 0.01878 0.87008 0.60706 0.0
H1765 H 0.02256 0.90992 0.57102 0.0
H1766 H 0.06016 0.90563 0.57046 0.0
H1767 H 0.15464 0.83835 0.54176 0.0
H1768 H 0.13888 0.84224 0.56536 0.0
H1769 H 0.11128 0.89898 0.55215 0.0
H1770 H 0.12666 0.8953 0.52882 0.0
H1771 H 0.084 0.87475 0.56599 0.0
H1772 H 0.15437 0.89863 0.57213 0.0
H1773 H 0.19202 0.89455 0.57187 0.0
H1774 H 0.18745 0.84538 0.60177 0.0
H1775 H 0.14973 0.84902 0.60207 0.0
C1776 C 0.07178 0.92547 0.62464 0.0
C1777 C 0.07362 0.9163 0.63805 0.0
C1778 C 0.07862 0.91529 0.61245 0.0
C1779 C 0.08748 0.89578 0.61344 0.0
C1780 C 0.08914 0.88648 0.6268 0.0
C1781 C 0.08212 0.89659 0.639 0.0
C1782 C 0.09593 0.88578 0.60055 0.0
C1783 C 0.11708 0.88171 0.59999 0.0
C1784 C 0.08373 0.88257 0.58828 0.0
C1785 C 0.0611 0.88523 0.58855 0.0
C1786 C 0.04916 0.87521 0.59884 0.0
C1787 C 0.02787 0.87781 0.5991 0.0
C1788 C 0.01829 0.89032 0.58909 0.0
C1789 C 0.03 0.90024 0.57877 0.0
C1790 C 0.05131 0.8977 0.57846 0.0
C1791 C 0.1452 0.85164 0.5439 0.0
C1792 C 0.14202 0.86654 0.53338 0.0
C1793 C 0.13623 0.85383 0.55738 0.0
C1794 C 0.12391 0.87091 0.56048 0.0
C1795 C 0.12062 0.88562 0.54996 0.0
C1796 C 0.12958 0.88352 0.53661 0.0
C1797 C 0.11459 0.87408 0.5747 0.0
C1798 C 0.09325 0.87682 0.5755 0.0
C1799 C 0.12661 0.8761 0.58717 0.0
C1800 C 0.14924 0.87391 0.58697 0.0
C1801 C 0.16139 0.88683 0.57855 0.0
C1802 C 0.18274 0.88462 0.57841 0.0
C1803 C 0.19211 0.86966 0.58675 0.0
C1804 C 0.18016 0.85692 0.59528 0.0
C1805 C 0.1588 0.85905 0.59544 0.0
H1806 H 0.20864 0.86799 0.58664 0.0
H1807 H 0.0018 0.89231 0.58931 0.0
H1808 H 0.57946 0.40479 0.85729 0.0
H1809 H 0.59459 0.38998 0.87845 0.0
H1810 H 0.62442 0.44731 0.88805 0.0
H1811 H 0.60768 0.4629 0.8676 0.0
H1812 H 0.63012 0.38162 0.88673 0.0
H1813 H 0.63181 0.45309 0.92332 0.0
H1814 H 0.61266 0.48521 0.92705 0.0
H1815 H 0.55867 0.45792 0.90883 0.0
H1816 H 0.57742 0.42558 0.90516 0.0
H1817 H 0.68034 0.35104 0.95082 0.0
H1818 H 0.67097 0.36849 0.92868 0.0
H1819 H 0.6126 0.38532 0.94712 0.0
H1820 H 0.62266 0.36938 0.96941 0.0
H1821 H 0.62433 0.4153 0.93391 0.0
H1822 H 0.62111 0.34387 0.92121 0.0
H1823 H 0.63436 0.3088 0.91816 0.0
H1824 H 0.6809 0.33079 0.88979 0.0
H1825 H 0.66806 0.36603 0.89281 0.0
C1826 C 0.58878 0.41451 0.86406 0.0
C1827 C 0.59192 0.43525 0.86078 0.0
C1828 C 0.59779 0.40584 0.87607 0.0
C1829 C 0.61051 0.41753 0.88501 0.0
C1830 C 0.61433 0.43804 0.88152 0.0
C1831 C 0.60491 0.44688 0.86966 0.0
C1832 C 0.61929 0.40821 0.89809 0.0
C1833 C 0.62886 0.38901 0.89705 0.0
C1834 C 0.61753 0.41766 0.91161 0.0
C1835 C 0.6061 0.43703 0.9138 0.0
C1836 C 0.61584 0.45395 0.92013 0.0
C1837 C 0.60506 0.47219 0.92223 0.0
C1838 C 0.58449 0.47363 0.91812 0.0
C1839 C 0.57463 0.45681 0.91195 0.0
C1840 C 0.58533 0.43854 0.90984 0.0
C1841 C 0.66555 0.35851 0.95005 0.0
C1842 C 0.65219 0.35893 0.96174 0.0
C1843 C 0.66012 0.36838 0.93739 0.0
C1844 C 0.64091 0.37808 0.93608 0.0
C1845 C 0.62756 0.37817 0.94781 0.0
C1846 C 0.63326 0.36896 0.96054 0.0
C1847 C 0.63448 0.38832 0.92267 0.0
C1848 C 0.62564 0.40787 0.9236 0.0
C1849 C 0.63601 0.37874 0.90916 0.0
C1850 C 0.64378 0.35759 0.90737 0.0
C1851 C 0.63426 0.34123 0.9144 0.0
C1852 C 0.64168 0.32133 0.91267 0.0
C1853 C 0.6585 0.31758 0.90383 0.0
C1854 C 0.66791 0.33372 0.89667 0.0
C1855 C 0.66056 0.35365 0.89837 0.0
H1856 H 0.66422 0.30216 0.90249 0.0
H1857 H 0.57617 0.48777 0.91975 0.0
H1858 H 0.6307 0.06956 0.11148 0.0
H1859 H 0.64171 0.08827 0.13247 0.0
H1860 H 0.58426 0.12107 0.13303 0.0
H1861 H 0.5741 0.10427 0.11102 0.0
H1862 H 0.61123 0.14586 0.14106 0.0
H1863 H 0.59598 0.07697 0.15504 0.0
H1864 H 0.59846 0.03936 0.15448 0.0
H1865 H 0.66277 0.04299 0.16426 0.0
H1866 H 0.66072 0.08064 0.16472 0.0
H1867 H 0.6125 0.14082 0.22152 0.0
H1868 H 0.60462 0.13237 0.19674 0.0
H1869 H 0.6628 0.15745 0.18375 0.0
H1870 H 0.6705 0.16666 0.20856 0.0
H1871 H 0.63776 0.10556 0.18168 0.0
H1872 H 0.64981 0.17803 0.16416 0.0
H1873 H 0.64246 0.21487 0.16675 0.0
H1874 H 0.57773 0.2024 0.16634 0.0
H1875 H 0.58478 0.16545 0.16397 0.0
C1876 C 0.6205 0.08106 0.11579 0.0
C1877 C 0.60133 0.08514 0.10943 0.0
C1878 C 0.62673 0.09155 0.12803 0.0
C1879 C 0.61363 0.10575 0.13463 0.0
C1880 C 0.59464 0.11011 0.12824 0.0
C1881 C 0.58867 0.10011 0.11573 0.0
C1882 C 0.61943 0.11567 0.14836 0.0
C1883 C 0.61706 0.13696 0.14989 0.0
C1884 C 0.62699 0.10423 0.16003 0.0
C1885 C 0.62824 0.0816 0.15976 0.0
C1886 C 0.61067 0.06974 0.15698 0.0
C1887 C 0.612 0.04842 0.15669 0.0
C1888 C 0.63077 0.03879 0.15929 0.0
C1889 C 0.64825 0.05046 0.16222 0.0
C1890 C 0.64701 0.07179 0.16251 0.0
C1891 C 0.62335 0.14508 0.21333 0.0
C1892 C 0.64213 0.15434 0.21693 0.0
C1893 C 0.61881 0.14029 0.1992 0.0
C1894 C 0.63303 0.14448 0.18845 0.0
C1895 C 0.65142 0.15455 0.19188 0.0
C1896 C 0.65583 0.15973 0.20604 0.0
C1897 C 0.62975 0.13551 0.17418 0.0
C1898 C 0.63235 0.11437 0.17266 0.0
C1899 C 0.622 0.14694 0.1627 0.0
C1900 C 0.61782 0.16905 0.1641 0.0
C1901 C 0.63403 0.18315 0.1648 0.0
C1902 C 0.62992 0.20404 0.16618 0.0
C1903 C 0.60964 0.21097 0.16676 0.0
C1904 C 0.59343 0.19702 0.16593 0.0
C1905 C 0.59747 0.17611 0.16457 0.0
H1906 H 0.60649 0.22714 0.16782 0.0
H1907 H 0.63177 0.02228 0.15906 0.0
H1908 H 0.89592 0.11591 0.34451 0.0
H1909 H 0.87739 0.12717 0.36577 0.0
H1910 H 0.91578 0.08853 0.39169 0.0
H1911 H 0.93399 0.07683 0.37036 0.0
H1912 H 0.87713 0.08719 0.4007 0.0
H1913 H 0.92485 0.14094 0.38771 0.0
H1914 H 0.93978 0.16633 0.3714 0.0
H1915 H 0.88121 0.19596 0.3677 0.0
H1916 H 0.86588 0.17058 0.38386 0.0
H1917 H 0.87434 0.13283 0.46828 0.0
H1918 H 0.88249 0.11895 0.4449 0.0
H1919 H 0.84128 0.16227 0.42544 0.0
H1920 H 0.83348 0.17674 0.44896 0.0
H1921 H 0.87633 0.16141 0.41173 0.0
H1922 H 0.82955 0.11036 0.42724 0.0
H1923 H 0.81469 0.08532 0.4438 0.0
H1924 H 0.87066 0.0507 0.44288 0.0
H1925 H 0.88599 0.07569 0.42648 0.0
C1926 C 0.90035 0.10981 0.35475 0.0
C1927 C 0.91652 0.09568 0.35584 0.0
C1928 C 0.88977 0.11624 0.36688 0.0
C1929 C 0.89544 0.10898 0.38036 0.0
C1930 C 0.91115 0.09436 0.3814 0.0
C1931 C 0.92157 0.08771 0.36924 0.0
C1932 C 0.88562 0.11717 0.39344 0.0
C1933 C 0.87706 0.1034 0.40317 0.0
C1934 C 0.88491 0.13839 0.39644 0.0
C1935 C 0.89419 0.15376 0.38686 0.0
C1936 C 0.91514 0.1528 0.38335 0.0
C1937 C 0.92367 0.16719 0.37414 0.0
C1938 C 0.91144 0.18271 0.36849 0.0
C1939 C 0.89066 0.18391 0.37207 0.0
C1940 C 0.88205 0.16955 0.38126 0.0
C1941 C 0.86684 0.13931 0.45905 0.0
C1942 C 0.85327 0.15589 0.46044 0.0
C1943 C 0.87141 0.13125 0.44568 0.0
C1944 C 0.86225 0.13933 0.43341 0.0
C1945 C 0.84846 0.15573 0.43477 0.0
C1946 C 0.84399 0.16396 0.4482 0.0
C1947 C 0.86822 0.1314 0.41917 0.0
C1948 C 0.87606 0.14522 0.4092 0.0
C1949 C 0.86822 0.11023 0.41595 0.0
C1950 C 0.85896 0.09499 0.42568 0.0
C1951 C 0.83874 0.09747 0.43063 0.0
C1952 C 0.83022 0.08327 0.43998 0.0
C1953 C 0.84173 0.06644 0.4444 0.0
C1954 C 0.86176 0.06374 0.43945 0.0
C1955 C 0.87036 0.0779 0.4301 0.0
H1956 H 0.83511 0.05547 0.45165 0.0
H1957 H 0.91807 0.19383 0.36136 0.0
H1958 H 0.94709 0.41757 0.61943 0.0
H1959 H 0.93198 0.3991 0.63942 0.0
H1960 H 0.87137 0.41047 0.62259 0.0
H1961 H 0.88642 0.42937 0.60282 0.0
H1962 H 0.87076 0.41669 0.64956 0.0
H1963 H 0.89524 0.3626 0.62022 0.0
H1964 H 0.92004 0.34304 0.60579 0.0
H1965 H 0.95831 0.33469 0.64253 0.0
H1966 H 0.93389 0.35447 0.65716 0.0
H1967 H 0.82383 0.34798 0.6984 0.0
H1968 H 0.83666 0.35914 0.67514 0.0
H1969 H 0.89738 0.36615 0.69285 0.0
H1970 H 0.88462 0.35548 0.7161 0.0
H1971 H 0.89539 0.34813 0.66411 0.0
H1972 H 0.87096 0.40602 0.69227 0.0
H1973 H 0.84467 0.42443 0.70618 0.0
H1974 H 0.80412 0.42369 0.67011 0.0
H1975 H 0.83009 0.40497 0.65606 0.0
C1976 C 0.93055 0.41609 0.62002 0.0
C1977 C 0.91792 0.42496 0.60962 0.0
C1978 C 0.92192 0.40543 0.63139 0.0
C1979 C 0.90052 0.40308 0.63241 0.0
C1980 C 0.88791 0.41206 0.62205 0.0
C1981 C 0.89651 0.42293 0.61079 0.0
C1982 C 0.89126 0.39181 0.64449 0.0
C1983 C 0.87592 0.40154 0.65254 0.0
C1984 C 0.89804 0.37208 0.64851 0.0
C1985 C 0.91281 0.36019 0.63976 0.0
C1986 C 0.90903 0.35674 0.6252 0.0
C1987 C 0.923 0.34558 0.61699 0.0
C1988 C 0.94076 0.33767 0.62323 0.0
C1989 C 0.94456 0.34086 0.63771 0.0
C1990 C 0.93065 0.35202 0.64597 0.0
C1991 C 0.83998 0.35152 0.69723 0.0
C1992 C 0.85322 0.35105 0.70904 0.0
C1993 C 0.84726 0.3579 0.68398 0.0
C1994 C 0.86792 0.36354 0.68235 0.0
C1995 C 0.8814 0.36181 0.69392 0.0
C1996 C 0.87407 0.35582 0.70719 0.0
C1997 C 0.87518 0.37315 0.66908 0.0
C1998 C 0.89013 0.36315 0.66091 0.0
C1999 C 0.86785 0.39248 0.66479 0.0
C2000 C 0.85235 0.4039 0.67318 0.0
C2001 C 0.85637 0.40963 0.68735 0.0
C2002 C 0.84154 0.42014 0.69525 0.0
C2003 C 0.82271 0.42517 0.68904 0.0
C2004 C 0.8187 0.41975 0.67491 0.0
C2005 C 0.83346 0.40919 0.66697 0.0
H2006 H 0.81125 0.43331 0.69517 0.0
H2007 H 0.95156 0.32903 0.61686 0.0
H2008 H 0.56957 0.08021 0.37934 0.0
H2009 H 0.5881 0.09302 0.35859 0.0
H2010 H 0.62148 0.1351 0.38554 0.0
H2011 H 0.60255 0.1227 0.40623 0.0
H2012 H 0.6101 0.15388 0.36269 0.0
H2013 H 0.64383 0.09042 0.37157 0.0
H2014 H 0.6465 0.05339 0.3759 0.0
H2015 H 0.6192 0.04095 0.33516 0.0
H2016 H 0.61609 0.07792 0.33066 0.0
H2017 H 0.67464 0.18136 0.3043 0.0
H2018 H 0.6643 0.16793 0.32756 0.0
H2019 H 0.62401 0.12479 0.3067 0.0
H2020 H 0.63453 0.13773 0.28362 0.0
H2021 H 0.64354 0.10704 0.32815 0.0
H2022 H 0.60647 0.17079 0.32091 0.0
H2023 H 0.60415 0.2079 0.31669 0.0
H2024 H 0.63888 0.21958 0.35475 0.0
H2025 H 0.64161 0.18251 0.35909 0.0
C2026 C 0.58092 0.09214 0.38081 0.0
C2027 C 0.58462 0.10049 0.39437 0.0
C2028 C 0.59158 0.09939 0.36898 0.0
C2029 C 0.60647 0.1148 0.37052 0.0
C2030 C 0.6101 0.1232 0.38407 0.0
C2031 C 0.59924 0.11615 0.39587 0.0
C2032 C 0.61782 0.12254 0.35795 0.0
C2033 C 0.61774 0.14364 0.35529 0.0
C2034 C 0.62766 0.10922 0.34818 0.0
C2035 C 0.62959 0.08696 0.35082 0.0
C2036 C 0.63827 0.0798 0.36357 0.0
C2037 C 0.63988 0.05881 0.36605 0.0
C2038 C 0.63299 0.04483 0.35582 0.0
C2039 C 0.62452 0.0518 0.34308 0.0
C2040 C 0.62285 0.07277 0.34055 0.0
C2041 C 0.66372 0.1689 0.30471 0.0
C2042 C 0.65529 0.16068 0.29216 0.0
C2043 C 0.65777 0.16129 0.31799 0.0
C2044 C 0.64318 0.14551 0.31887 0.0
C2045 C 0.63529 0.13694 0.3063 0.0
C2046 C 0.64127 0.14443 0.2931 0.0
C2047 C 0.63535 0.13825 0.33277 0.0
C2048 C 0.63613 0.11725 0.33568 0.0
C2049 C 0.62624 0.15165 0.3428 0.0
C2050 C 0.62442 0.1739 0.34024 0.0
C2051 C 0.61372 0.18128 0.32833 0.0
C2052 C 0.61232 0.2023 0.32592 0.0
C2053 C 0.62142 0.21608 0.33542 0.0
C2054 C 0.63187 0.20888 0.34738 0.0
C2055 C 0.63334 0.18788 0.34983 0.0
H2056 H 0.62033 0.23235 0.33354 0.0
H2057 H 0.63425 0.02859 0.35776 0.0
H2058 H 0.93893 0.07608 0.62907 0.0
H2059 H 0.92939 0.09525 0.60782 0.0
H2060 H 0.88551 0.13 0.63239 0.0
H2061 H 0.89461 0.11034 0.65358 0.0
H2062 H 0.86854 0.11937 0.60894 0.0
H2063 H 0.93176 0.15142 0.61994 0.0
H2064 H 0.9684 0.15412 0.62629 0.0
H2065 H 0.98497 0.12423 0.58719 0.0
H2066 H 0.94842 0.12108 0.58068 0.0
H2067 H 0.84964 0.17376 0.54392 0.0
H2068 H 0.86093 0.16916 0.56867 0.0
H2069 H 0.90262 0.12172 0.55513 0.0
H2070 H 0.89165 0.12621 0.53063 0.0
H2071 H 0.91991 0.14709 0.57526 0.0
H2072 H 0.85514 0.11012 0.56752 0.0
H2073 H 0.81828 0.10861 0.56153 0.0
H2074 H 0.80487 0.15072 0.59546 0.0
H2075 H 0.84171 0.15265 0.60153 0.0
C2076 C 0.92738 0.08793 0.62993 0.0
C2077 C 0.91747 0.09171 0.64293 0.0
C2078 C 0.92201 0.09899 0.61781 0.0
C2079 C 0.90696 0.11437 0.61852 0.0
C2080 C 0.89717 0.11826 0.63156 0.0
C2081 C 0.90234 0.10699 0.64364 0.0
C2082 C 0.90069 0.12549 0.60546 0.0
C2083 C 0.87978 0.12586 0.60176 0.0
C2084 C 0.91526 0.13402 0.59602 0.0
C2085 C 0.93731 0.13591 0.59986 0.0
C2086 C 0.94321 0.1453 0.61273 0.0
C2087 C 0.96397 0.14692 0.61636 0.0
C2088 C 0.979 0.13932 0.60716 0.0
C2089 C 0.97331 0.13011 0.59431 0.0
C2090 C 0.95257 0.12843 0.59063 0.0
C2091 C 0.86139 0.16254 0.54623 0.0
C2092 C 0.86956 0.15018 0.53533 0.0
C2093 C 0.86778 0.15991 0.56035 0.0
C2094 C 0.88249 0.14498 0.56372 0.0
C2095 C 0.89127 0.13334 0.55277 0.0
C2096 C 0.88484 0.13583 0.53876 0.0
C2097 C 0.88799 0.1402 0.57864 0.0
C2098 C 0.90872 0.14104 0.58267 0.0
C2099 C 0.87327 0.13303 0.58846 0.0
C2100 C 0.85116 0.13171 0.58487 0.0
C2101 C 0.84434 0.11915 0.57363 0.0
C2102 C 0.82345 0.11821 0.57024 0.0
C2103 C 0.80925 0.12961 0.57808 0.0
C2104 C 0.81589 0.14193 0.58937 0.0
C2105 C 0.83676 0.14295 0.5928 0.0
H2106 H 0.79309 0.12886 0.57543 0.0
H2107 H 0.99507 0.1406 0.60999 0.0
H2108 H 0.94775 0.4074 0.8821 0.0
H2109 H 0.93044 0.39804 0.85986 0.0
H2110 H 0.87457 0.42607 0.8749 0.0
H2111 H 0.89196 0.43573 0.8972 0.0
H2112 H 0.87077 0.3845 0.86164 0.0
H2113 H 0.89589 0.45172 0.8524 0.0
H2114 H 0.92152 0.47943 0.8523 0.0
H2115 H 0.96076 0.44348 0.82537 0.0
H2116 H 0.93549 0.4154 0.82549 0.0
H2117 H 0.83374 0.36962 0.78894 0.0
H2118 H 0.83991 0.38379 0.81287 0.0
H2119 H 0.90509 0.37543 0.80714 0.0
H2120 H 0.89917 0.36185 0.78343 0.0
H2121 H 0.89745 0.41265 0.81639 0.0
H2122 H 0.87501 0.34386 0.82848 0.0
H2123 H 0.85025 0.31536 0.829 0.0
H2124 H 0.80652 0.35356 0.85056 0.0
H2125 H 0.83096 0.38238 0.85001 0.0
C2126 C 0.93177 0.41151 0.88068 0.0
C2127 C 0.9212 0.42234 0.89131 0.0
C2128 C 0.92192 0.4062 0.868 0.0
C2129 C 0.90127 0.41142 0.86578 0.0
C2130 C 0.89052 0.42192 0.87646 0.0
C2131 C 0.90048 0.42754 0.88909 0.0
C2132 C 0.89135 0.40618 0.85208 0.0
C2133 C 0.87624 0.39091 0.85172 0.0
C2134 C 0.89863 0.41451 0.83921 0.0
C2135 C 0.91385 0.43139 0.83904 0.0
C2136 C 0.91006 0.44965 0.84655 0.0
C2137 C 0.92451 0.46544 0.84648 0.0
C2138 C 0.94277 0.4632 0.83886 0.0
C2139 C 0.94661 0.44518 0.83127 0.0
C2140 C 0.93221 0.42934 0.83133 0.0
C2141 C 0.84934 0.37068 0.79288 0.0
C2142 C 0.86598 0.36483 0.78423 0.0
C2143 C 0.85284 0.37875 0.80654 0.0
C2144 C 0.87299 0.38077 0.81177 0.0
C2145 C 0.88945 0.37427 0.80329 0.0
C2146 C 0.88601 0.36647 0.7897 0.0
C2147 C 0.87752 0.3902 0.82583 0.0
C2148 C 0.89161 0.40643 0.82627 0.0
C2149 C 0.86934 0.38264 0.83872 0.0
C2150 C 0.8547 0.36533 0.83904 0.0
C2151 C 0.86005 0.34623 0.83322 0.0
C2152 C 0.84609 0.33001 0.83354 0.0
C2153 C 0.8268 0.33267 0.83976 0.0
C2154 C 0.82145 0.35154 0.84571 0.0
C2155 C 0.83535 0.36781 0.8454 0.0
H2156 H 0.81602 0.32009 0.84 0.0
H2157 H 0.95394 0.47545 0.8388 0.0
H2158 H 0.54833 0.38328 0.13411 0.0
H2159 H 0.56851 0.37202 0.11367 0.0
H2160 H 0.61392 0.41809 0.12287 0.0
H2161 H 0.59466 0.42869 0.14393 0.0
H2162 H 0.59535 0.41523 0.09301 0.0
H2163 H 0.62951 0.3769 0.1298 0.0
H2164 H 0.63074 0.35336 0.15017 0.0
H2165 H 0.60422 0.30575 0.12447 0.0
H2166 H 0.60248 0.32914 0.10399 0.0
H2167 H 0.66605 0.3927 0.04077 0.0
H2168 H 0.65315 0.39848 0.06482 0.0
H2169 H 0.6199 0.34149 0.06271 0.0
H2170 H 0.63369 0.3352 0.03874 0.0
H2171 H 0.63246 0.34911 0.08961 0.0
H2172 H 0.59654 0.386 0.05349 0.0
H2173 H 0.59306 0.40876 0.03281 0.0
H2174 H 0.61968 0.45813 0.0568 0.0
H2175 H 0.6236 0.43556 0.07758 0.0
C2176 C 0.56279 0.39083 0.13202 0.0
C2177 C 0.56982 0.40692 0.14079 0.0
C2178 C 0.57423 0.3844 0.12027 0.0
C2179 C 0.5927 0.39415 0.1169 0.0
C2180 C 0.59967 0.41039 0.12539 0.0
C2181 C 0.58848 0.41656 0.13732 0.0
C2182 C 0.60426 0.38797 0.10409 0.0
C2183 C 0.60375 0.40095 0.09232 0.0
C2184 C 0.61453 0.36898 0.10313 0.0
C2185 C 0.61563 0.35486 0.11541 0.0
C2186 C 0.62372 0.36149 0.12853 0.0
C2187 C 0.62456 0.34815 0.14009 0.0
C2188 C 0.61751 0.32809 0.13863 0.0
C2189 C 0.60965 0.32131 0.12559 0.0
C2190 C 0.60874 0.3346 0.114 0.0
C2191 C 0.65639 0.38118 0.04559 0.0
C2192 C 0.65061 0.36365 0.03791 0.0
C2193 C 0.64896 0.38452 0.05929 0.0
C2194 C 0.63506 0.37073 0.06538 0.0
C2195 C 0.63049 0.35241 0.05816 0.0
C2196 C 0.63834 0.34882 0.0445 0.0
C2197 C 0.62383 0.37655 0.07852 0.0
C2198 C 0.6242 0.36347 0.09031 0.0
C2199 C 0.61308 0.39535 0.07947 0.0
C2200 C 0.61053 0.40904 0.06704 0.0
C2201 C 0.60177 0.40168 0.05433 0.0
C2202 C 0.5997 0.41455 0.04259 0.0
C2203 C 0.60618 0.43487 0.04348 0.0
C2204 C 0.61469 0.44238 0.05612 0.0
C2205 C 0.61682 0.42956 0.06789 0.0
H2206 H 0.60458 0.4448 0.03438 0.0
H2207 H 0.6182 0.31778 0.14758 0.0
loop_
_geom_bond_atom_site_label_1
_geom_bond_atom_site_label_2
_geom_bond_distance
_geom_bond_site_symmetry_2
_ccdc_geom_bond_type
H0 C27 0.929 . S
N1 C26 1.433 . S
N1 C32 1.435 . S
N1 C38 1.423 . S
H2 C28 0.930 . S
H3 C31 0.931 . S
H4 C30 0.929 . S
H5 C33 0.930 . S
H6 C34 0.932 . S
H7 C37 0.929 . S
H8 C36 0.931 . S
H9 C39 0.925 1_545 S
H10 C43 0.932 . S
H11 C40 0.931 . S
H12 C42 0.929 . S
H13 C45 0.929 . S
H14 C46 0.930 . S
H15 C48 0.929 . S
H16 C49 0.931 . S
H17 C51 0.930 . S
H18 C52 0.932 . S
H19 C54 0.931 . S
H20 C55 0.929 . S
H21 C57 0.929 . S
H22 C58 0.931 . S
H23 C60 0.929 . S
N24 C44 1.433 . S
N24 C50 1.435 . S
N24 C56 1.423 . S
H25 C61 0.932 . S
C26 N1 1.433 . S
C26 C27 1.363 . S
C26 C31 1.370 . S
C27 H0 0.929 . S
C27 C26 1.363 . S
C27 C28 1.385 . S
C28 H2 0.930 . S
C28 C27 1.385 . S
C28 C29 1.357 . S
C29 C28 1.357 . S
C29 C30 1.406 . S
C30 H4 0.929 . S
C30 C29 1.406 . S
C30 C31 1.391 . S
C31 H3 0.931 . S
C31 C26 1.370 . S
C31 C30 1.391 . S
C32 N1 1.435 . S
C32 C33 1.358 . S
C32 C37 1.371 . S
C33 H5 0.930 . S
C33 C32 1.358 . S
C33 C34 1.405 . S
C34 H6 0.932 . S
C34 C33 1.405 . S
C34 C35 1.383 . S
C35 C34 1.383 . S
C35 C36 1.393 . S
C36 H8 0.931 . S
C36 C35 1.393 . S
C36 C37 1.382 . S
C37 H7 0.929 . S
C37 C32 1.371 . S
C37 C36 1.382 . S
C38 N1 1.423 . S
C38 C39 1.362 . S
C38 C43 1.388 . S
C39 H9 0.925 1_565 S
C39 C38 1.362 . S
C39 C40 1.376 1_565 S
C40 H11 0.931 . S
C40 C39 1.376 1_545 S
C40 C41 1.396 . S
C41 C40 1.396 . S
C41 C42 1.348 1_545 S
C41 C59 1.472 . S
C42 H12 0.929 . S
C42 C41 1.348 1_565 S
C42 C43 1.443 . S
C43 H10 0.932 . S
C43 C38 1.388 . S
C43 C42 1.443 . S
C44 N24 1.433 . S
C44 C45 1.363 . S
C44 C49 1.370 . S
C45 H13 0.929 . S
C45 C44 1.363 . S
C45 C46 1.385 . S
C46 H14 0.930 . S
C46 C45 1.385 . S
C46 C47 1.357 . S
C47 C46 1.357 . S
C47 C48 1.406 . S
C48 H15 0.929 . S
C48 C47 1.406 . S
C48 C49 1.391 . S
C49 H16 0.931 . S
C49 C44 1.370 . S
C49 C48 1.391 . S
C50 N24 1.435 . S
C50 C51 1.358 . S
C50 C55 1.371 . S
C51 H17 0.930 . S
C51 C50 1.358 . S
C51 C52 1.405 . S
C52 H18 0.932 . S
C52 C51 1.405 . S
C52 C53 1.383 . S
C53 C52 1.383 . S
C53 C54 1.393 . S
C54 H19 0.931 . S
C54 C53 1.393 . S
C54 C55 1.382 . S
C55 H20 0.929 . S
C55 C50 1.371 . S
C55 C54 1.382 . S
C56 N24 1.423 . S
C56 C57 1.362 . S
C56 C61 1.388 . S
C57 H21 0.929 . S
C57 C56 1.362 . S
C57 C58 1.376 1_655 S
C58 H22 0.931 . S
C58 C57 1.376 1_455 S
C58 C59 1.396 . S
C59 C41 1.472 . S
C59 C58 1.396 . S
C59 C60 1.348 1_455 S
C60 H23 0.929 . S
C60 C59 1.348 1_655 S
C60 C61 1.443 . S
C61 H25 0.932 . S
C61 C56 1.388 . S
C61 C60 1.443 . S
H62 C89 0.929 . S
N63 C88 1.433 . S
N63 C94 1.435 . S
N63 C100 1.423 . S
H64 C90 0.930 . S
H65 C93 0.931 . S
H66 C92 0.929 . S
H67 C95 0.930 . S
H68 C96 0.932 . S
H69 C99 0.929 . S
H70 C98 0.931 . S
H71 C101 0.932 . S
H72 C105 0.932 . S
H73 C102 0.931 . S
H74 C104 0.929 . S
H75 C107 0.929 . S
H76 C108 0.930 . S
H77 C110 0.929 . S
H78 C111 0.931 . S
H79 C113 0.930 . S
H80 C114 0.932 . S
H81 C116 0.931 . S
H82 C117 0.929 . S
H83 C119 0.929 . S
H84 C120 0.931 . S
H85 C122 0.929 . S
N86 C106 1.433 . S
N86 C112 1.435 . S
N86 C118 1.423 . S
H87 C123 0.932 . S
C88 N63 1.433 . S
C88 C89 1.363 . S
C88 C93 1.370 . S
C89 H62 0.929 . S
C89 C88 1.363 . S
C89 C90 1.385 . S
C90 H64 0.930 . S
C90 C89 1.385 . S
C90 C91 1.357 . S
C91 C90 1.357 . S
C91 C92 1.406 . S
C92 H66 0.929 . S
C92 C91 1.406 . S
C92 C93 1.391 . S
C93 H65 0.931 . S
C93 C88 1.370 . S
C93 C92 1.391 . S
C94 N63 1.435 . S
C94 C95 1.358 . S
C94 C99 1.371 . S
C95 H67 0.930 . S
C95 C94 1.358 . S
C95 C96 1.405 . S
C96 H68 0.932 . S
C96 C95 1.405 . S
C96 C97 1.383 . S
C97 C96 1.383 . S
C97 C98 1.393 . S
C98 H70 0.931 . S
C98 C97 1.393 . S
C98 C99 1.382 . S
C99 H69 0.929 . S
C99 C94 1.371 . S
C99 C98 1.382 . S
C100 N63 1.423 . S
C100 C101 1.362 . S
C100 C105 1.388 . S
C101 H71 0.932 . S
C101 C100 1.362 . S
C101 C102 1.376 1_655 S
C102 H73 0.931 . S
C102 C101 1.376 1_455 S
C102 C103 1.396 . S
C103 C102 1.396 . S
C103 C104 1.348 1_455 S
C103 C121 1.472 . S
C104 H74 0.929 . S
C104 C103 1.348 1_655 S
C104 C105 1.443 . S
C105 H72 0.932 . S
C105 C100 1.388 . S
C105 C104 1.443 . S
C106 N86 1.433 . S
C106 C107 1.363 . S
C106 C111 1.370 . S
C107 H75 0.929 . S
C107 C106 1.363 . S
C107 C108 1.385 . S
C108 H76 0.930 . S
C108 C107 1.385 . S
C108 C109 1.357 . S
C109 C108 1.357 . S
C109 C110 1.406 . S
C110 H77 0.929 . S
C110 C109 1.406 . S
C110 C111 1.391 . S
C111 H78 0.931 . S
C111 C106 1.370 . S
C111 C110 1.391 . S
C112 N86 1.435 . S
C112 C113 1.358 . S
C112 C117 1.371 . S
C113 H79 0.930 . S
C113 C112 1.358 . S
C113 C114 1.405 . S
C114 H80 0.932 . S
C114 C113 1.405 . S
C114 C115 1.383 . S
C115 C114 1.383 . S
C115 C116 1.393 . S
C116 H81 0.931 . S
C116 C115 1.393 . S
C116 C117 1.382 . S
C117 H82 0.929 . S
C117 C112 1.371 . S
C117 C116 1.382 . S
C118 N86 1.423 . S
C118 C119 1.362 . S
C118 C123 1.388 . S
C119 H83 0.929 . S
C119 C118 1.362 . S
C119 C120 1.376 . S
C120 H84 0.931 . S
C120 C119 1.376 . S
C120 C121 1.396 . S
C121 C103 1.472 . S
C121 C120 1.396 . S
C121 C122 1.348 . S
C122 H85 0.929 . S
C122 C121 1.348 . S
C122 C123 1.443 . S
C123 H87 0.932 . S
C123 C118 1.388 . S
C123 C122 1.443 . S
H124 C151 0.929 . S
N125 C150 1.433 . S
N125 C156 1.435 . S
N125 C162 1.423 . S
H126 C152 0.930 . S
H127 C155 0.931 . S
H128 C154 0.929 . S
H129 C157 0.930 . S
H130 C158 0.932 . S
H131 C161 0.929 . S
H132 C160 0.931 . S
H133 C163 0.929 . S
H134 C167 0.932 . S
H135 C164 0.931 . S
H136 C166 0.929 . S
H137 C169 0.929 . S
H138 C170 0.930 . S
H139 C172 0.929 . S
H140 C173 0.931 . S
H141 C175 0.930 . S
H142 C176 0.932 . S
H143 C178 0.931 . S
H144 C179 0.929 . S
H145 C181 0.929 . S
H146 C182 0.931 . S
H147 C184 0.929 . S
N148 C168 1.433 . S
N148 C174 1.435 . S
N148 C180 1.423 . S
H149 C185 0.932 . S
C150 N125 1.433 . S
C150 C151 1.363 . S
C150 C155 1.370 . S
C151 H124 0.929 . S
C151 C150 1.363 . S
C151 C152 1.385 . S
C152 H126 0.930 . S
C152 C151 1.385 . S
C152 C153 1.357 . S
C153 C152 1.357 . S
C153 C154 1.406 . S
C154 H128 0.929 . S
C154 C153 1.406 . S
C154 C155 1.391 . S
C155 H127 0.931 . S
C155 C150 1.370 . S
C155 C154 1.391 . S
C156 N125 1.435 . S
C156 C157 1.358 . S
C156 C161 1.371 . S
C157 H129 0.930 . S
C157 C156 1.358 . S
C157 C158 1.405 . S
C158 H130 0.932 . S
C158 C157 1.405 . S
C158 C159 1.383 . S
C159 C158 1.383 . S
C159 C160 1.393 . S
C160 H132 0.931 . S
C160 C159 1.393 . S
C160 C161 1.382 . S
C161 H131 0.929 . S
C161 C156 1.371 . S
C161 C160 1.382 . S
C162 N125 1.423 . S
C162 C163 1.362 . S
C162 C167 1.388 . S
C163 H133 0.929 . S
C163 C162 1.362 . S
C163 C164 1.376 . S
C164 H135 0.931 . S
C164 C163 1.376 . S
C164 C165 1.396 . S
C165 C164 1.396 . S
C165 C166 1.348 . S
C165 C183 1.472 . S
C166 H136 0.929 . S
C166 C165 1.348 . S
C166 C167 1.443 . S
C167 H134 0.932 . S
C167 C162 1.388 . S
C167 C166 1.443 . S
C168 N148 1.433 . S
C168 C169 1.363 . S
C168 C173 1.370 . S
C169 H137 0.929 . S
C169 C168 1.363 . S
C169 C170 1.385 . S
C170 H138 0.930 . S
C170 C169 1.385 . S
C170 C171 1.357 . S
C171 C170 1.357 . S
C171 C172 1.406 . S
C172 H139 0.929 . S
C172 C171 1.406 . S
C172 C173 1.391 . S
C173 H140 0.931 . S
C173 C168 1.370 . S
C173 C172 1.391 . S
C174 N148 1.435 . S
C174 C175 1.358 . S
C174 C179 1.371 . S
C175 H141 0.930 . S
C175 C174 1.358 . S
C175 C176 1.405 . S
C176 H142 0.932 . S
C176 C175 1.405 . S
C176 C177 1.383 . S
C177 C176 1.383 . S
C177 C178 1.393 . S
C178 H143 0.931 . S
C178 C177 1.393 . S
C178 C179 1.382 . S
C179 H144 0.929 . S
C179 C174 1.371 . S
C179 C178 1.382 . S
C180 N148 1.423 . S
C180 C181 1.362 . S
C180 C185 1.388 . S
C181 H145 0.929 . S
C181 C180 1.362 . S
C181 C182 1.376 . S
C182 H146 0.931 . S
C182 C181 1.376 . S
C182 C183 1.396 . S
C183 C165 1.472 . S
C183 C182 1.396 . S
C183 C184 1.348 . S
C184 H147 0.929 . S
C184 C183 1.348 . S
C184 C185 1.443 . S
C185 H149 0.932 . S
C185 C180 1.388 . S
C185 C184 1.443 . S
H186 C213 0.929 . S
N187 C212 1.433 . S
N187 C218 1.435 . S
N187 C224 1.423 . S
H188 C214 0.930 . S
H189 C217 0.931 . S
H190 C216 0.929 . S
H191 C219 0.930 . S
H192 C220 0.932 . S
H193 C223 0.929 . S
H194 C222 0.931 . S
H195 C225 0.929 . S
H196 C229 0.932 . S
H197 C226 0.931 . S
H198 C228 0.929 . S
H199 C231 0.929 . S
H200 C232 0.930 . S
H201 C234 0.929 . S
H202 C235 0.931 . S
H203 C237 0.930 . S
H204 C238 0.932 . S
H205 C240 0.931 . S
H206 C241 0.929 . S
H207 C243 0.929 . S
H208 C244 0.931 1_565 S
H209 C246 0.929 . S
N210 C230 1.433 . S
N210 C236 1.435 . S
N210 C242 1.423 . S
H211 C247 0.932 . S
C212 N187 1.433 . S
C212 C213 1.363 . S
C212 C217 1.370 . S
C213 H186 0.929 . S
C213 C212 1.363 . S
C213 C214 1.385 . S
C214 H188 0.930 . S
C214 C213 1.385 . S
C214 C215 1.357 . S
C215 C214 1.357 . S
C215 C216 1.406 . S
C216 H190 0.929 . S
C216 C215 1.406 . S
C216 C217 1.391 . S
C217 H189 0.931 . S
C217 C212 1.370 . S
C217 C216 1.391 . S
C218 N187 1.435 . S
C218 C219 1.358 . S
C218 C223 1.371 . S
C219 H191 0.930 . S
C219 C218 1.358 . S
C219 C220 1.405 . S
C220 H192 0.932 . S
C220 C219 1.405 . S
C220 C221 1.383 . S
C221 C220 1.383 . S
C221 C222 1.393 . S
C222 H194 0.931 . S
C222 C221 1.393 . S
C222 C223 1.382 . S
C223 H193 0.929 . S
C223 C218 1.371 . S
C223 C222 1.382 . S
C224 N187 1.423 . S
C224 C225 1.362 . S
C224 C229 1.388 . S
C225 H195 0.929 . S
C225 C224 1.362 . S
C225 C226 1.376 . S
C226 H197 0.931 . S
C226 C225 1.376 . S
C226 C227 1.396 . S
C227 C226 1.396 . S
C227 C228 1.348 . S
C227 C245 1.472 1_565 S
C228 H198 0.929 . S
C228 C227 1.348 . S
C228 C229 1.443 . S
C229 H196 0.932 . S
C229 C224 1.388 . S
C229 C228 1.443 . S
C230 N210 1.433 . S
C230 C231 1.363 . S
C230 C235 1.370 . S
C231 H199 0.929 . S
C231 C230 1.363 . S
C231 C232 1.385 . S
C232 H200 0.930 . S
C232 C231 1.385 . S
C232 C233 1.357 . S
C233 C232 1.357 . S
C233 C234 1.406 . S
C234 H201 0.929 . S
C234 C233 1.406 . S
C234 C235 1.391 . S
C235 H202 0.931 . S
C235 C230 1.370 . S
C235 C234 1.391 . S
C236 N210 1.435 . S
C236 C237 1.358 . S
C236 C241 1.371 . S
C237 H203 0.930 . S
C237 C236 1.358 . S
C237 C238 1.405 . S
C238 H204 0.932 . S
C238 C237 1.405 . S
C238 C239 1.383 . S
C239 C238 1.383 . S
C239 C240 1.393 . S
C240 H205 0.931 . S
C240 C239 1.393 . S
C240 C241 1.382 . S
C241 H206 0.929 . S
C241 C236 1.371 . S
C241 C240 1.382 . S
C242 N210 1.423 . S
C242 C243 1.362 . S
C242 C247 1.388 . S
C243 H207 0.929 . S
C243 C242 1.362 . S
C243 C244 1.376 . S
C244 H208 0.931 1_545 S
C244 C243 1.376 . S
C244 C245 1.396 . S
C245 C227 1.472 1_545 S
C245 C244 1.396 . S
C245 C246 1.348 . S
C246 H209 0.929 . S
C246 C245 1.348 . S
C246 C247 1.443 . S
C247 H211 0.932 . S
C247 C242 1.388 . S
C247 C246 1.443 . S
H248 C275 0.929 . S
N249 C274 1.433 . S
N249 C280 1.435 . S
N249 C286 1.423 . S
H250 C276 0.930 . S
H251 C279 0.931 . S
H252 C278 0.929 . S
H253 C281 0.930 . S
H254 C282 0.932 . S
H255 C285 0.929 . S
H256 C284 0.931 . S
H257 C287 0.929 . S
H258 C291 0.932 . S
H259 C288 0.931 . S
H260 C290 0.929 . S
H261 C293 0.929 . S
H262 C294 0.930 . S
H263 C296 0.929 . S
H264 C297 0.931 . S
H265 C299 0.930 . S
H266 C300 0.932 . S
H267 C302 0.931 . S
H268 C303 0.929 . S
H269 C305 0.929 . S
H270 C306 0.931 1_455 S
H271 C308 0.929 . S
N272 C292 1.433 . S
N272 C298 1.435 . S
N272 C304 1.423 . S
H273 C309 0.932 . S
C274 N249 1.433 . S
C274 C275 1.363 . S
C274 C279 1.370 . S
C275 H248 0.929 . S
C275 C274 1.363 . S
C275 C276 1.385 . S
C276 H250 0.930 . S
C276 C275 1.385 . S
C276 C277 1.357 . S
C277 C276 1.357 . S
C277 C278 1.406 . S
C278 H252 0.929 . S
C278 C277 1.406 . S
C278 C279 1.391 . S
C279 H251 0.931 . S
C279 C274 1.370 . S
C279 C278 1.391 . S
C280 N249 1.435 . S
C280 C281 1.358 . S
C280 C285 1.371 . S
C281 H253 0.930 . S
C281 C280 1.358 . S
C281 C282 1.405 . S
C282 H254 0.932 . S
C282 C281 1.405 . S
C282 C283 1.383 . S
C283 C282 1.383 . S
C283 C284 1.393 . S
C284 H256 0.931 . S
C284 C283 1.393 . S
C284 C285 1.382 . S
C285 H255 0.929 . S
C285 C280 1.371 . S
C285 C284 1.382 . S
C286 N249 1.423 . S
C286 C287 1.362 . S
C286 C291 1.388 . S
C287 H257 0.929 . S
C287 C286 1.362 . S
C287 C288 1.376 . S
C288 H259 0.931 . S
C288 C287 1.376 . S
C288 C289 1.396 . S
C289 C288 1.396 . S
C289 C290 1.348 . S
C289 C307 1.509 . S
C290 H260 0.929 . S
C290 C289 1.348 . S
C290 C291 1.443 . S
C291 H258 0.932 . S
C291 C286 1.388 . S
C291 C290 1.443 . S
C292 N272 1.433 . S
C292 C293 1.363 . S
C292 C297 1.370 . S
C293 H261 0.929 . S
C293 C292 1.363 . S
C293 C294 1.385 . S
C294 H262 0.930 . S
C294 C293 1.385 . S
C294 C295 1.357 . S
C295 C294 1.357 . S
C295 C296 1.406 . S
C296 H263 0.929 . S
C296 C295 1.406 . S
C296 C297 1.391 . S
C297 H264 0.931 . S
C297 C292 1.370 . S
C297 C296 1.391 . S
C298 N272 1.435 . S
C298 C299 1.358 . S
C298 C303 1.371 . S
C299 H265 0.930 . S
C299 C298 1.358 . S
C299 C300 1.405 . S
C300 H266 0.932 . S
C300 C299 1.405 . S
C300 C301 1.383 . S
C301 C300 1.383 . S
C301 C302 1.393 . S
C302 H267 0.931 . S
C302 C301 1.393 . S
C302 C303 1.382 . S
C303 H268 0.929 . S
C303 C298 1.371 . S
C303 C302 1.382 . S
C304 N272 1.423 . S
C304 C305 1.362 . S
C304 C309 1.388 . S
C305 H269 0.929 . S
C305 C304 1.362 . S
C305 C306 1.376 . S
C306 H270 0.931 1_655 S
C306 C305 1.376 . S
C306 C307 1.392 1_655 S
C307 C289 1.509 . S
C307 C306 1.392 1_455 S
C307 C308 1.313 1_455 S
C308 H271 0.929 . S
C308 C307 1.313 1_655 S
C308 C309 1.443 . S
C309 H273 0.932 . S
C309 C304 1.388 . S
C309 C308 1.443 . S
H310 C337 0.929 . S
N311 C336 1.433 . S
N311 C342 1.435 . S
N311 C348 1.423 . S
H312 C338 0.930 . S
H313 C341 0.931 . S
H314 C340 0.929 . S
H315 C343 0.930 . S
H316 C344 0.932 . S
H317 C347 0.929 . S
H318 C346 0.931 . S
H319 C349 0.929 . S
H320 C353 0.932 . S
H321 C350 0.931 . S
H322 C352 0.929 . S
H323 C355 0.929 . S
H324 C356 0.930 . S
H325 C358 0.929 . S
H326 C359 0.931 . S
H327 C361 0.930 . S
H328 C362 0.932 . S
H329 C364 0.931 . S
H330 C365 0.929 . S
H331 C367 0.929 . S
H332 C368 0.931 . S
H333 C370 0.929 . S
N334 C354 1.433 . S
N334 C360 1.435 . S
N334 C366 1.423 . S
H335 C371 0.932 . S
C336 N311 1.433 . S
C336 C337 1.363 . S
C336 C341 1.370 . S
C337 H310 0.929 . S
C337 C336 1.363 . S
C337 C338 1.385 . S
C338 H312 0.930 . S
C338 C337 1.385 . S
C338 C339 1.357 . S
C339 C338 1.357 . S
C339 C340 1.406 . S
C340 H314 0.929 . S
C340 C339 1.406 . S
C340 C341 1.391 . S
C341 H313 0.931 . S
C341 C336 1.370 . S
C341 C340 1.391 . S
C342 N311 1.435 . S
C342 C343 1.358 . S
C342 C347 1.371 . S
C343 H315 0.930 . S
C343 C342 1.358 . S
C343 C344 1.405 . S
C344 H316 0.932 . S
C344 C343 1.405 . S
C344 C345 1.383 . S
C345 C344 1.383 . S
C345 C346 1.393 . S
C346 H318 0.931 . S
C346 C345 1.393 . S
C346 C347 1.382 . S
C347 H317 0.929 . S
C347 C342 1.371 . S
C347 C346 1.382 . S
C348 N311 1.423 . S
C348 C349 1.362 . S
C348 C353 1.388 . S
C349 H319 0.929 . S
C349 C348 1.362 . S
C349 C350 1.376 . S
C350 H321 0.931 . S
C350 C349 1.376 . S
C350 C351 1.396 . S
C351 C350 1.396 . S
C351 C352 1.348 . S
C351 C369 1.472 . S
C352 H322 0.929 . S
C352 C351 1.348 . S
C352 C353 1.443 . S
C353 H320 0.932 . S
C353 C348 1.388 . S
C353 C352 1.443 . S
C354 N334 1.433 . S
C354 C355 1.363 . S
C354 C359 1.370 . S
C355 H323 0.929 . S
C355 C354 1.363 . S
C355 C356 1.385 . S
C356 H324 0.930 . S
C356 C355 1.385 . S
C356 C357 1.357 . S
C357 C356 1.357 . S
C357 C358 1.406 . S
C358 H325 0.929 . S
C358 C357 1.406 . S
C358 C359 1.391 . S
C359 H326 0.931 . S
C359 C354 1.370 . S
C359 C358 1.391 . S
C360 N334 1.435 . S
C360 C361 1.358 . S
C360 C365 1.371 . S
C361 H327 0.930 . S
C361 C360 1.358 . S
C361 C362 1.405 . S
C362 H328 0.932 . S
C362 C361 1.405 . S
C362 C363 1.383 . S
C363 C362 1.383 . S
C363 C364 1.393 . S
C364 H329 0.931 . S
C364 C363 1.393 . S
C364 C365 1.382 . S
C365 H330 0.929 . S
C365 C360 1.371 . S
C365 C364 1.382 . S
C366 N334 1.423 . S
C366 C367 1.362 . S
C366 C371 1.388 . S
C367 H331 0.929 . S
C367 C366 1.362 . S
C367 C368 1.376 . S
C368 H332 0.931 . S
C368 C367 1.376 . S
C368 C369 1.396 . S
C369 C351 1.472 . S
C369 C368 1.396 . S
C369 C370 1.348 . S
C370 H333 0.929 . S
C370 C369 1.348 . S
C370 C371 1.443 . S
C371 H335 0.932 . S
C371 C366 1.388 . S
C371 C370 1.443 . S
H372 C399 0.929 . S
N373 C398 1.433 . S
N373 C404 1.435 . S
N373 C410 1.423 . S
H374 C400 0.930 . S
H375 C403 0.931 . S
H376 C402 0.929 . S
H377 C405 0.930 . S
H378 C406 0.932 . S
H379 C409 0.929 . S
H380 C408 0.931 . S
H381 C411 0.922 1_545 S
H382 C415 0.932 . S
H383 C412 0.931 . S
H384 C414 0.929 . S
H385 C417 0.929 . S
H386 C418 0.930 . S
H387 C420 0.929 . S
H388 C421 0.931 . S
H389 C423 0.930 . S
H390 C424 0.932 . S
H391 C426 0.931 . S
H392 C427 0.929 . S
H393 C429 0.929 . S
H394 C430 0.931 . S
H395 C432 0.929 . S
N396 C416 1.433 . S
N396 C422 1.435 . S
N396 C428 1.423 . S
H397 C433 0.932 . S
C398 N373 1.433 . S
C398 C399 1.363 . S
C398 C403 1.370 . S
C399 H372 0.929 . S
C399 C398 1.363 . S
C399 C400 1.385 . S
C400 H374 0.930 . S
C400 C399 1.385 . S
C400 C401 1.357 . S
C401 C400 1.357 . S
C401 C402 1.406 . S
C402 H376 0.929 . S
C402 C401 1.406 . S
C402 C403 1.391 . S
C403 H375 0.931 . S
C403 C398 1.370 . S
C403 C402 1.391 . S
C404 N373 1.435 . S
C404 C405 1.358 . S
C404 C409 1.371 . S
C405 H377 0.930 . S
C405 C404 1.358 . S
C405 C406 1.405 . S
C406 H378 0.932 . S
C406 C405 1.405 . S
C406 C407 1.383 . S
C407 C406 1.383 . S
C407 C408 1.393 . S
C408 H380 0.931 . S
C408 C407 1.393 . S
C408 C409 1.382 . S
C409 H379 0.929 . S
C409 C404 1.371 . S
C409 C408 1.382 . S
C410 N373 1.423 . S
C410 C411 1.400 . S
C410 C415 1.388 . S
C411 H381 0.922 1_565 S
C411 C410 1.400 . S
C411 C412 1.345 1_565 S
C412 H383 0.931 . S
C412 C411 1.345 1_545 S
C412 C413 1.396 . S
C413 C412 1.396 . S
C413 C414 1.348 1_545 S
C413 C431 1.472 . S
C414 H384 0.929 . S
C414 C413 1.348 1_565 S
C414 C415 1.443 . S
C415 H382 0.932 . S
C415 C410 1.388 . S
C415 C414 1.443 . S
C416 N396 1.433 . S
C416 C417 1.363 . S
C416 C421 1.370 . S
C417 H385 0.929 . S
C417 C416 1.363 . S
C417 C418 1.385 . S
C418 H386 0.930 . S
C418 C417 1.385 . S
C418 C419 1.357 . S
C419 C418 1.357 . S
C419 C420 1.406 . S
C420 H387 0.929 . S
C420 C419 1.406 . S
C420 C421 1.391 . S
C421 H388 0.931 . S
C421 C416 1.370 . S
C421 C420 1.391 . S
C422 N396 1.435 . S
C422 C423 1.358 . S
C422 C427 1.371 . S
C423 H389 0.930 . S
C423 C422 1.358 . S
C423 C424 1.405 . S
C424 H390 0.932 . S
C424 C423 1.405 . S
C424 C425 1.383 . S
C425 C424 1.383 . S
C425 C426 1.393 . S
C426 H391 0.931 . S
C426 C425 1.393 . S
C426 C427 1.382 . S
C427 H392 0.929 . S
C427 C422 1.371 . S
C427 C426 1.382 . S
C428 N396 1.423 . S
C428 C429 1.362 . S
C428 C433 1.388 . S
C429 H393 0.929 . S
C429 C428 1.362 . S
C429 C430 1.376 . S
C430 H394 0.931 . S
C430 C429 1.376 . S
C430 C431 1.396 . S
C431 C413 1.472 . S
C431 C430 1.396 . S
C431 C432 1.348 . S
C432 H395 0.929 . S
C432 C431 1.348 . S
C432 C433 1.443 . S
C433 H397 0.932 . S
C433 C428 1.388 . S
C433 C432 1.443 . S
H434 C461 0.929 . S
N435 C460 1.433 . S
N435 C466 1.435 . S
N435 C472 1.423 . S
H436 C462 0.930 . S
H437 C465 0.931 . S
H438 C464 0.929 . S
H439 C467 0.930 . S
H440 C468 0.932 . S
H441 C471 0.929 . S
H442 C470 0.931 . S
H443 C473 0.929 . S
H444 C477 0.932 . S
H445 C474 0.931 . S
H446 C476 0.901 1_545 S
H447 C479 0.929 . S
H448 C480 0.930 . S
H449 C482 0.929 . S
H450 C483 0.931 . S
H451 C485 0.930 . S
H452 C486 0.932 . S
H453 C488 0.931 . S
H454 C489 0.929 . S
H455 C491 0.929 . S
H456 C492 0.931 . S
H457 C494 0.929 . S
N458 C478 1.433 . S
N458 C484 1.435 . S
N458 C490 1.423 . S
H459 C495 0.932 . S
C460 N435 1.433 . S
C460 C461 1.363 . S
C460 C465 1.370 . S
C461 H434 0.929 . S
C461 C460 1.363 . S
C461 C462 1.385 . S
C462 H436 0.930 . S
C462 C461 1.385 . S
C462 C463 1.357 . S
C463 C462 1.357 . S
C463 C464 1.406 . S
C464 H438 0.929 . S
C464 C463 1.406 . S
C464 C465 1.391 . S
C465 H437 0.931 . S
C465 C460 1.370 . S
C465 C464 1.391 . S
C466 N435 1.435 . S
C466 C467 1.358 . S
C466 C471 1.371 . S
C467 H439 0.930 . S
C467 C466 1.358 . S
C467 C468 1.405 . S
C468 H440 0.932 . S
C468 C467 1.405 . S
C468 C469 1.383 . S
C469 C468 1.383 . S
C469 C470 1.393 . S
C470 H442 0.931 . S
C470 C469 1.393 . S
C470 C471 1.382 . S
C471 H441 0.929 . S
C471 C466 1.371 . S
C471 C470 1.382 . S
C472 N435 1.423 . S
C472 C473 1.362 . S
C472 C477 1.388 . S
C473 H443 0.929 . S
C473 C472 1.362 . S
C473 C474 1.376 1_455 S
C474 H445 0.931 . S
C474 C473 1.376 1_655 S
C474 C475 1.394 1_655 S
C475 C474 1.394 1_455 S
C475 C476 1.365 . S
C475 C493 1.459 1_465 S
C476 H446 0.901 1_565 S
C476 C475 1.365 . S
C476 C477 1.443 . S
C477 H444 0.932 . S
C477 C472 1.388 . S
C477 C476 1.443 . S
C478 N458 1.433 . S
C478 C479 1.363 . S
C478 C483 1.370 . S
C479 H447 0.929 . S
C479 C478 1.363 . S
C479 C480 1.385 . S
C480 H448 0.930 . S
C480 C479 1.385 . S
C480 C481 1.357 . S
C481 C480 1.357 . S
C481 C482 1.406 . S
C482 H449 0.929 . S
C482 C481 1.406 . S
C482 C483 1.391 . S
C483 H450 0.931 . S
C483 C478 1.370 . S
C483 C482 1.391 . S
C484 N458 1.435 . S
C484 C485 1.358 . S
C484 C489 1.371 . S
C485 H451 0.930 . S
C485 C484 1.358 . S
C485 C486 1.405 . S
C486 H452 0.932 . S
C486 C485 1.405 . S
C486 C487 1.383 . S
C487 C486 1.383 . S
C487 C488 1.393 . S
C488 H453 0.931 . S
C488 C487 1.393 . S
C488 C489 1.382 . S
C489 H454 0.929 . S
C489 C484 1.371 . S
C489 C488 1.382 . S
C490 N458 1.423 . S
C490 C491 1.362 . S
C490 C495 1.388 . S
C491 H455 0.929 . S
C491 C490 1.362 . S
C491 C492 1.376 . S
C492 H456 0.931 . S
C492 C491 1.376 . S
C492 C493 1.396 . S
C493 C475 1.459 1_645 S
C493 C492 1.396 . S
C493 C494 1.348 . S
C494 H457 0.929 . S
C494 C493 1.348 . S
C494 C495 1.443 . S
C495 H459 0.932 . S
C495 C490 1.388 . S
C495 C494 1.443 . S
Co496 O497 2.216 . S
Co496 O498 2.091 . S
Co496 O500 2.004 . S
Co496 O506 2.021 1_554 S
Co496 O508 2.137 . S
Co496 O509 2.244 . S
O497 Co496 2.216 . S
O497 C504 1.248 . S
O498 Co496 2.091 . S
O498 C504 1.262 . S
C499 O508 1.247 . S
C499 O509 1.272 . S
O500 Co496 2.004 . S
O500 C505 1.259 . S
Co501 O502 2.061 . S
Co501 O507 2.052 1_554 S
Co501 O509 2.135 . S
O502 Co501 2.061 . S
O502 C505 1.235 . S
C503 O506 1.238 . S
C503 O507 1.241 . S
C504 O497 1.248 . S
C504 O498 1.262 . S
C505 O500 1.259 . S
C505 O502 1.235 . S
O506 Co496 2.021 1_556 S
O506 C503 1.238 . S
O507 Co501 2.052 1_556 S
O507 C503 1.241 . S
O508 Co496 2.137 . S
O508 C499 1.247 . S
O509 Co496 2.244 . S
O509 C499 1.272 . S
O509 Co501 2.135 . S
Co510 O511 2.216 . S
Co510 O512 2.091 . S
Co510 O514 2.004 . S
Co510 O520 2.021 . S
Co510 O522 2.137 . S
Co510 O523 2.244 . S
O511 Co510 2.216 . S
O511 C518 1.247 . S
O512 Co510 2.091 . S
O512 C518 1.261 . S
C513 O522 1.247 . S
C513 O523 1.272 . S
O514 Co510 2.004 . S
O514 C519 1.259 . S
Co515 O516 2.061 . S
Co515 O521 2.052 . S
Co515 O523 2.135 . S
O516 Co515 2.061 . S
O516 C519 1.235 . S
C517 O520 1.238 . S
C517 O521 1.241 . S
C518 O511 1.247 . S
C518 O512 1.261 . S
C519 O514 1.259 . S
C519 O516 1.235 . S
O520 Co510 2.021 . S
O520 C517 1.238 . S
O521 Co515 2.052 . S
O521 C517 1.241 . S
O522 Co510 2.137 . S
O522 C513 1.247 . S
O523 Co510 2.244 . S
O523 C513 1.272 . S
O523 Co515 2.135 . S
Co524 O525 2.216 . S
Co524 O526 2.091 . S
Co524 O528 2.004 . S
Co524 O534 2.021 . S
Co524 O536 2.137 . S
Co524 O537 2.244 . S
O525 Co524 2.216 . S
O525 C532 1.247 . S
O526 Co524 2.091 . S
O526 C532 1.261 . S
C527 O536 1.247 . S
C527 O537 1.272 . S
O528 Co524 2.004 . S
O528 C533 1.259 . S
Co529 O530 2.061 . S
Co529 O535 2.052 . S
Co529 O537 2.135 . S
O530 Co529 2.061 . S
O530 C533 1.235 . S
C531 O534 1.238 . S
C531 O535 1.241 . S
C532 O525 1.247 . S
C532 O526 1.261 . S
C533 O528 1.259 . S
C533 O530 1.235 . S
O534 Co524 2.021 . S
O534 C531 1.238 . S
O535 Co529 2.052 . S
O535 C531 1.241 . S
O536 Co524 2.137 . S
O536 C527 1.247 . S
O537 Co524 2.244 . S
O537 C527 1.272 . S
O537 Co529 2.135 . S
Co538 O539 2.216 . S
Co538 O540 2.091 . S
Co538 O542 2.004 . S
Co538 O548 2.021 . S
Co538 O550 2.137 . S
Co538 O551 2.244 . S
O539 Co538 2.216 . S
O539 C546 1.247 . S
O540 Co538 2.091 . S
O540 C546 1.261 . S
C541 O550 1.247 . S
C541 O551 1.272 . S
O542 Co538 2.004 . S
O542 C547 1.259 . S
Co543 O544 2.061 . S
Co543 O549 2.052 . S
Co543 O551 2.135 . S
O544 Co543 2.061 . S
O544 C547 1.235 . S
C545 O548 1.238 . S
C545 O549 1.241 . S
C546 O539 1.247 . S
C546 O540 1.261 . S
C547 O542 1.259 . S
C547 O544 1.235 . S
O548 Co538 2.021 . S
O548 C545 1.238 . S
O549 Co543 2.052 . S
O549 C545 1.241 . S
O550 Co538 2.137 . S
O550 C541 1.247 . S
O551 Co538 2.244 . S
O551 C541 1.272 . S
O551 Co543 2.135 . S
Co552 O553 2.216 . S
Co552 O554 2.091 . S
Co552 O556 2.004 . S
Co552 O562 2.021 . S
Co552 O564 2.137 . S
Co552 O565 2.244 . S
O553 Co552 2.216 . S
O553 C560 1.247 . S
O554 Co552 2.091 . S
O554 C560 1.261 . S
C555 O564 1.247 . S
C555 O565 1.272 . S
O556 Co552 2.004 . S
O556 C561 1.259 . S
Co557 O558 2.061 . S
Co557 O563 2.052 . S
Co557 O565 2.135 . S
O558 Co557 2.061 . S
O558 C561 1.235 . S
C559 O562 1.238 . S
C559 O563 1.241 . S
C560 O553 1.247 . S
C560 O554 1.261 . S
C561 O556 1.259 . S
C561 O558 1.235 . S
O562 Co552 2.021 . S
O562 C559 1.238 . S
O563 Co557 2.052 . S
O563 C559 1.241 . S
O564 Co552 2.137 . S
O564 C555 1.247 . S
O565 Co552 2.244 . S
O565 C555 1.272 . S
O565 Co557 2.135 . S
Co566 O567 2.216 . S
Co566 O568 2.091 . S
Co566 O570 2.004 . S
Co566 O576 2.021 . S
Co566 O578 2.137 . S
Co566 O579 2.244 . S
O567 Co566 2.216 . S
O567 C574 1.247 . S
O568 Co566 2.091 . S
O568 C574 1.261 . S
C569 O578 1.247 . S
C569 O579 1.272 . S
O570 Co566 2.004 . S
O570 C575 1.259 . S
Co571 O572 2.061 . S
Co571 O577 2.052 . S
Co571 O579 2.135 . S
O572 Co571 2.061 . S
O572 C575 1.235 . S
C573 O576 1.238 . S
C573 O577 1.241 . S
C574 O567 1.247 . S
C574 O568 1.261 . S
C575 O570 1.259 . S
C575 O572 1.235 . S
O576 Co566 2.021 . S
O576 C573 1.238 . S
O577 Co571 2.052 . S
O577 C573 1.241 . S
O578 Co566 2.137 . S
O578 C569 1.247 . S
O579 Co566 2.244 . S
O579 C569 1.272 . S
O579 Co571 2.135 . S
Co580 O581 2.212 1_556 S
Co580 O582 2.086 1_556 S
Co580 O584 2.008 . S
Co580 O590 1.996 1_556 S
Co580 O592 2.163 . S
Co580 O593 2.256 . S
O581 Co580 2.212 1_554 S
O581 C588 1.247 . S
O582 Co580 2.086 1_554 S
O582 C588 1.261 . S
C583 O592 1.247 . S
C583 O593 1.272 . S
O584 Co580 2.008 . S
O584 C589 1.259 . S
Co585 O586 2.061 . S
Co585 O591 2.052 1_556 S
Co585 O593 2.135 . S
O586 Co585 2.061 . S
O586 C589 1.235 . S
C587 O590 1.238 . S
C587 O591 1.241 . S
C588 O581 1.247 . S
C588 O582 1.261 . S
C589 O584 1.259 . S
C589 O586 1.235 . S
O590 Co580 1.996 1_554 S
O590 C587 1.238 . S
O591 Co585 2.052 1_554 S
O591 C587 1.241 . S
O592 Co580 2.163 . S
O592 C583 1.247 . S
O593 Co580 2.256 . S
O593 C583 1.272 . S
O593 Co585 2.135 . S
Co594 O595 2.216 . S
Co594 O596 2.091 . S
Co594 O598 2.004 . S
Co594 O604 2.021 . S
Co594 O606 2.137 . S
Co594 O607 2.244 . S
O595 Co594 2.216 . S
O595 C602 1.247 . S
O596 Co594 2.091 . S
O596 C602 1.261 . S
C597 O606 1.247 . S
C597 O607 1.272 . S
O598 Co594 2.004 . S
O598 C603 1.259 . S
Co599 O600 2.061 . S
Co599 O605 2.052 . S
Co599 O607 2.135 . S
O600 Co599 2.061 . S
O600 C603 1.235 . S
C601 O604 1.238 . S
C601 O605 1.241 . S
C602 O595 1.247 . S
C602 O596 1.261 . S
C603 O598 1.259 . S
C603 O600 1.235 . S
O604 Co594 2.021 . S
O604 C601 1.238 . S
O605 Co599 2.052 . S
O605 C601 1.241 . S
O606 Co594 2.137 . S
O606 C597 1.247 . S
O607 Co594 2.244 . S
O607 C597 1.272 . S
O607 Co599 2.135 . S
H608 C626 0.951 . S
H609 C628 0.951 . S
H610 C630 0.950 . S
H611 C631 0.950 . S
H612 C633 0.950 . S
H613 C636 0.950 . S
H614 C637 0.950 . S
H615 C639 0.950 . S
H616 C640 0.950 . S
H617 C641 0.951 . S
H618 C643 0.951 . S
H619 C645 0.950 . S
H620 C646 0.950 . S
H621 C648 0.950 . S
H622 C651 0.950 . S
H623 C652 0.950 . S
H624 C654 0.950 . S
H625 C655 0.950 . S
C626 H608 0.951 . S
C626 C627 1.366 . S
C626 C628 1.388 . S
C627 C626 1.366 . S
C627 C631 1.385 . S
C628 H609 0.951 . S
C628 C626 1.388 . S
C628 C629 1.366 . S
C629 C628 1.366 . S
C629 C630 1.414 . S
C629 C632 1.499 . S
C630 H610 0.950 . S
C630 C629 1.414 . S
C630 C631 1.374 . S
C631 H611 0.950 . S
C631 C627 1.385 . S
C631 C630 1.374 . S
C632 C629 1.499 . S
C632 C633 1.373 . S
C632 C634 1.389 . S
C633 H612 0.950 . S
C633 C632 1.373 . S
C633 C649 1.377 . S
C634 C632 1.389 . S
C634 C635 1.524 . S
C634 C648 1.377 . S
C635 C634 1.524 . S
C635 C636 1.397 . S
C635 C640 1.363 . S
C636 H613 0.950 . S
C636 C635 1.397 . S
C636 C637 1.334 . S
C637 H614 0.950 . S
C637 C636 1.334 . S
C637 C638 1.287 . S
C638 C637 1.287 . S
C638 C639 1.524 . S
C638 H657 0.913 . S
C639 H615 0.950 . S
C639 C638 1.524 . S
C639 C640 1.415 . S
C640 H616 0.950 . S
C640 C635 1.363 . S
C640 C639 1.415 . S
C641 H617 0.951 . S
C641 C642 1.366 . S
C641 C643 1.388 . S
C642 C641 1.366 . S
C642 C646 1.385 . S
C643 H618 0.951 . S
C643 C641 1.388 . S
C643 C644 1.366 . S
C644 C643 1.366 . S
C644 C645 1.414 . S
C644 C647 1.499 . S
C645 H619 0.950 . S
C645 C644 1.414 . S
C645 C646 1.374 . S
C646 H620 0.950 . S
C646 C642 1.385 . S
C646 C645 1.374 . S
C647 C644 1.499 . S
C647 C648 1.373 . S
C647 C649 1.389 . S
C648 H621 0.950 . S
C648 C634 1.377 . S
C648 C647 1.373 . S
C649 C633 1.377 . S
C649 C647 1.389 . S
C649 C650 1.524 . S
C650 C649 1.524 . S
C650 C651 1.397 . S
C650 C655 1.363 . S
C651 H622 0.950 . S
C651 C650 1.397 . S
C651 C652 1.334 . S
C652 H623 0.950 . S
C652 C651 1.334 . S
C652 C653 1.287 . S
C653 C652 1.287 . S
C653 C654 1.524 . S
C653 H656 0.999 . S
C654 H624 0.950 . S
C654 C653 1.524 . S
C654 C655 1.415 . S
C655 H625 0.950 . S
C655 C650 1.363 . S
C655 C654 1.415 . S
H656 C653 0.999 . S
H657 C638 0.913 . S
H658 C676 0.951 . S
H659 C678 0.951 . S
H660 C680 0.950 . S
H661 C681 0.950 . S
H662 C683 0.950 . S
H663 C686 0.950 . S
H664 C687 0.950 . S
H665 C689 0.950 . S
H666 C690 0.950 . S
H667 C691 0.951 . S
H668 C693 0.951 . S
H669 C695 0.950 . S
H670 C696 0.950 . S
H671 C698 0.950 . S
H672 C701 0.950 . S
H673 C702 0.950 . S
H674 C704 0.950 . S
H675 C705 0.950 . S
C676 H658 0.951 . S
C676 C677 1.366 . S
C676 C678 1.388 . S
C677 C676 1.366 . S
C677 C681 1.385 . S
C678 H659 0.951 . S
C678 C676 1.388 . S
C678 C679 1.366 . S
C679 C678 1.366 . S
C679 C680 1.414 . S
C679 C682 1.499 . S
C680 H660 0.950 . S
C680 C679 1.414 . S
C680 C681 1.374 . S
C681 H661 0.950 . S
C681 C677 1.385 . S
C681 C680 1.374 . S
C682 C679 1.499 . S
C682 C683 1.373 . S
C682 C684 1.389 . S
C683 H662 0.950 . S
C683 C682 1.373 . S
C683 C699 1.377 . S
C684 C682 1.389 . S
C684 C685 1.524 . S
C684 C698 1.377 . S
C685 C684 1.524 . S
C685 C686 1.397 . S
C685 C690 1.363 . S
C686 H663 0.950 . S
C686 C685 1.397 . S
C686 C687 1.334 . S
C687 H664 0.950 . S
C687 C686 1.334 . S
C687 C688 1.287 . S
C688 C687 1.287 . S
C688 C689 1.524 . S
C688 H707 0.913 . S
C689 H665 0.950 . S
C689 C688 1.524 . S
C689 C690 1.415 . S
C690 H666 0.950 . S
C690 C685 1.363 . S
C690 C689 1.415 . S
C691 H667 0.951 . S
C691 C692 1.366 . S
C691 C693 1.388 . S
C692 C691 1.366 . S
C692 C696 1.385 . S
C693 H668 0.951 . S
C693 C691 1.388 . S
C693 C694 1.366 . S
C694 C693 1.366 . S
C694 C695 1.414 . S
C694 C697 1.499 . S
C695 H669 0.950 . S
C695 C694 1.414 . S
C695 C696 1.374 . S
C696 H670 0.950 . S
C696 C692 1.385 . S
C696 C695 1.374 . S
C697 C694 1.499 . S
C697 C698 1.373 . S
C697 C699 1.389 . S
C698 H671 0.950 . S
C698 C684 1.377 . S
C698 C697 1.373 . S
C699 C683 1.377 . S
C699 C697 1.389 . S
C699 C700 1.524 . S
C700 C699 1.524 . S
C700 C701 1.397 . S
C700 C705 1.363 . S
C701 H672 0.950 . S
C701 C700 1.397 . S
C701 C702 1.334 . S
C702 H673 0.950 . S
C702 C701 1.334 . S
C702 C703 1.287 . S
C703 C702 1.287 . S
C703 C704 1.524 . S
C703 H706 0.999 . S
C704 H674 0.950 . S
C704 C703 1.524 . S
C704 C705 1.415 . S
C705 H675 0.950 . S
C705 C700 1.363 . S
C705 C704 1.415 . S
H706 C703 0.999 . S
H707 C688 0.913 . S
H708 C726 0.951 . S
H709 C728 0.951 . S
H710 C730 0.950 . S
H711 C731 0.950 . S
H712 C733 0.950 . S
H713 C736 0.950 . S
H714 C737 0.950 . S
H715 C739 0.950 . S
H716 C740 0.950 . S
H717 C741 0.951 . S
H718 C743 0.951 . S
H719 C745 0.950 . S
H720 C746 0.950 . S
H721 C748 0.950 . S
H722 C751 0.950 . S
H723 C752 0.950 . S
H724 C754 0.950 . S
H725 C755 0.950 . S
C726 H708 0.951 . S
C726 C727 1.366 . S
C726 C728 1.388 . S
C727 C726 1.366 . S
C727 C731 1.385 . S
C728 H709 0.951 . S
C728 C726 1.388 . S
C728 C729 1.366 . S
C729 C728 1.366 . S
C729 C730 1.414 . S
C729 C732 1.499 . S
C730 H710 0.950 . S
C730 C729 1.414 . S
C730 C731 1.374 . S
C731 H711 0.950 . S
C731 C727 1.385 . S
C731 C730 1.374 . S
C732 C729 1.499 . S
C732 C733 1.373 . S
C732 C734 1.389 . S
C733 H712 0.950 . S
C733 C732 1.373 . S
C733 C749 1.377 . S
C734 C732 1.389 . S
C734 C735 1.524 . S
C734 C748 1.377 . S
C735 C734 1.524 . S
C735 C736 1.397 . S
C735 C740 1.363 . S
C736 H713 0.950 . S
C736 C735 1.397 . S
C736 C737 1.334 . S
C737 H714 0.950 . S
C737 C736 1.334 . S
C737 C738 1.287 . S
C738 C737 1.287 . S
C738 C739 1.524 . S
C738 H757 0.913 . S
C739 H715 0.950 . S
C739 C738 1.524 . S
C739 C740 1.415 . S
C740 H716 0.950 . S
C740 C735 1.363 . S
C740 C739 1.415 . S
C741 H717 0.951 . S
C741 C742 1.366 . S
C741 C743 1.388 . S
C742 C741 1.366 . S
C742 C746 1.385 . S
C743 H718 0.951 . S
C743 C741 1.388 . S
C743 C744 1.366 . S
C744 C743 1.366 . S
C744 C745 1.414 . S
C744 C747 1.499 . S
C745 H719 0.950 . S
C745 C744 1.414 . S
C745 C746 1.374 . S
C746 H720 0.950 . S
C746 C742 1.385 . S
C746 C745 1.374 . S
C747 C744 1.499 . S
C747 C748 1.373 . S
C747 C749 1.389 . S
C748 H721 0.950 . S
C748 C734 1.377 . S
C748 C747 1.373 . S
C749 C733 1.377 . S
C749 C747 1.389 . S
C749 C750 1.524 . S
C750 C749 1.524 . S
C750 C751 1.397 . S
C750 C755 1.363 . S
C751 H722 0.950 . S
C751 C750 1.397 . S
C751 C752 1.334 . S
C752 H723 0.950 . S
C752 C751 1.334 . S
C752 C753 1.287 . S
C753 C752 1.287 . S
C753 C754 1.524 . S
C753 H756 0.999 . S
C754 H724 0.950 . S
C754 C753 1.524 . S
C754 C755 1.415 . S
C755 H725 0.950 . S
C755 C750 1.363 . S
C755 C754 1.415 . S
H756 C753 0.999 . S
H757 C738 0.913 . S
H758 C776 0.951 . S
H759 C778 0.951 . S
H760 C780 0.950 . S
H761 C781 0.950 . S
H762 C783 0.950 . S
H763 C786 0.950 . S
H764 C787 0.950 . S
H765 C789 0.950 . S
H766 C790 0.950 . S
H767 C791 0.951 . S
H768 C793 0.951 . S
H769 C795 0.950 . S
H770 C796 0.950 . S
H771 C798 0.950 1_556 S
H772 C801 0.950 . S
H773 C802 0.950 . S
H774 C804 0.950 . S
H775 C805 0.950 . S
C776 H758 0.951 . S
C776 C777 1.366 . S
C776 C778 1.388 . S
C777 C776 1.366 . S
C777 C781 1.385 . S
C778 H759 0.951 . S
C778 C776 1.388 . S
C778 C779 1.366 . S
C779 C778 1.366 . S
C779 C780 1.414 . S
C779 C782 1.499 . S
C780 H760 0.950 . S
C780 C779 1.414 . S
C780 C781 1.374 . S
C781 H761 0.950 . S
C781 C777 1.385 . S
C781 C780 1.374 . S
C782 C779 1.499 . S
C782 C783 1.373 . S
C782 C784 1.389 . S
C783 H762 0.950 . S
C783 C782 1.373 . S
C783 C799 1.377 . S
C784 C782 1.389 . S
C784 C785 1.524 1_554 S
C784 C798 1.377 . S
C785 C784 1.524 1_556 S
C785 C786 1.397 . S
C785 C790 1.363 . S
C786 H763 0.950 . S
C786 C785 1.397 . S
C786 C787 1.334 . S
C787 H764 0.950 . S
C787 C786 1.334 . S
C787 C788 1.287 . S
C788 C787 1.287 . S
C788 C789 1.524 . S
C788 H807 0.913 . S
C789 H765 0.950 . S
C789 C788 1.524 . S
C789 C790 1.415 . S
C790 H766 0.950 . S
C790 C785 1.363 . S
C790 C789 1.415 . S
C791 H767 0.951 . S
C791 C792 1.366 . S
C791 C793 1.388 . S
C792 C791 1.366 . S
C792 C796 1.385 . S
C793 H768 0.951 . S
C793 C791 1.388 . S
C793 C794 1.366 . S
C794 C793 1.366 . S
C794 C795 1.414 . S
C794 C797 1.499 . S
C795 H769 0.950 . S
C795 C794 1.414 . S
C795 C796 1.374 . S
C796 H770 0.950 . S
C796 C792 1.385 . S
C796 C795 1.374 . S
C797 C794 1.499 . S
C797 C798 1.373 . S
C797 C799 1.389 . S
C798 H771 0.950 1_554 S
C798 C784 1.377 . S
C798 C797 1.373 . S
C799 C783 1.377 . S
C799 C797 1.389 . S
C799 C800 1.524 . S
C800 C799 1.524 . S
C800 C801 1.397 . S
C800 C805 1.363 . S
C801 H772 0.950 . S
C801 C800 1.397 . S
C801 C802 1.334 . S
C802 H773 0.950 . S
C802 C801 1.334 . S
C802 C803 1.287 . S
C803 C802 1.287 . S
C803 C804 1.524 . S
C803 H806 0.999 . S
C804 H774 0.950 . S
C804 C803 1.524 . S
C804 C805 1.415 . S
C805 H775 0.950 . S
C805 C800 1.363 . S
C805 C804 1.415 . S
H806 C803 0.999 . S
H807 C788 0.913 . S
H808 C826 0.951 . S
H809 C828 0.951 . S
H810 C830 0.950 . S
H811 C831 0.950 . S
H812 C833 0.950 . S
H813 C836 0.950 . S
H814 C837 0.950 . S
H815 C839 0.950 . S
H816 C840 0.950 . S
H817 C841 0.951 . S
H818 C843 0.951 . S
H819 C845 0.964 . S
H820 C846 0.942 1_554 S
H821 C848 0.950 . S
H822 C851 0.950 . S
H823 C852 0.950 . S
H824 C854 0.950 . S
H825 C855 0.950 . S
C826 H808 0.951 . S
C826 C827 1.366 . S
C826 C828 1.388 . S
C827 C826 1.366 . S
C827 C831 1.385 . S
C828 H809 0.951 . S
C828 C826 1.388 . S
C828 C829 1.366 . S
C829 C828 1.366 . S
C829 C830 1.414 . S
C829 C832 1.499 . S
C830 H810 0.950 . S
C830 C829 1.414 . S
C830 C831 1.374 . S
C831 H811 0.950 . S
C831 C827 1.385 . S
C831 C830 1.374 . S
C832 C829 1.499 . S
C832 C833 1.373 . S
C832 C834 1.389 1_556 S
C833 H812 0.950 . S
C833 C832 1.373 . S
C833 C849 1.377 . S
C834 C832 1.389 1_554 S
C834 C835 1.524 . S
C834 C848 1.377 . S
C835 C834 1.524 . S
C835 C836 1.397 . S
C835 C840 1.363 . S
C836 H813 0.950 . S
C836 C835 1.397 . S
C836 C837 1.334 . S
C837 H814 0.950 . S
C837 C836 1.334 . S
C837 C838 1.287 . S
C838 C837 1.287 . S
C838 C839 1.524 . S
C838 H857 0.913 . S
C839 H815 0.950 . S
C839 C838 1.524 . S
C839 C840 1.415 . S
C840 H816 0.950 . S
C840 C835 1.363 . S
C840 C839 1.415 . S
C841 H817 0.951 . S
C841 C842 1.366 . S
C841 C843 1.388 . S
C842 C841 1.366 . S
C842 C846 1.389 . S
C843 H818 0.951 . S
C843 C841 1.388 . S
C843 C844 1.366 . S
C844 C843 1.366 . S
C844 C845 1.414 . S
C844 C847 1.499 . S
C845 H819 0.964 . S
C845 C844 1.414 . S
C845 C846 1.379 . S
C846 H820 0.942 1_556 S
C846 C842 1.389 . S
C846 C845 1.379 . S
C847 C844 1.499 . S
C847 C848 1.373 1_556 S
C847 C849 1.389 . S
C848 H821 0.950 . S
C848 C834 1.377 . S
C848 C847 1.373 1_554 S
C849 C833 1.377 . S
C849 C847 1.389 . S
C849 C850 1.524 . S
C850 C849 1.524 . S
C850 C851 1.397 . S
C850 C855 1.363 . S
C851 H822 0.950 . S
C851 C850 1.397 . S
C851 C852 1.334 . S
C852 H823 0.950 . S
C852 C851 1.334 . S
C852 C853 1.287 . S
C853 C852 1.287 . S
C853 C854 1.524 . S
C853 H856 0.999 . S
C854 H824 0.950 . S
C854 C853 1.524 . S
C854 C855 1.415 . S
C855 H825 0.950 . S
C855 C850 1.363 . S
C855 C854 1.415 . S
H856 C853 0.999 . S
H857 C838 0.913 . S
H858 C876 0.951 . S
H859 C878 0.951 . S
H860 C880 0.950 . S
H861 C881 0.950 . S
H862 C883 0.950 . S
H863 C886 0.950 . S
H864 C887 0.950 . S
H865 C889 0.950 . S
H866 C890 0.950 . S
H867 C891 0.951 . S
H868 C893 0.951 . S
H869 C895 0.950 . S
H870 C896 0.950 . S
H871 C898 0.950 . S
H872 C901 0.950 . S
H873 C902 0.950 . S
H874 C904 0.950 . S
H875 C905 0.950 . S
C876 H858 0.951 . S
C876 C877 1.366 . S
C876 C878 1.388 . S
C877 C876 1.366 . S
C877 C881 1.385 . S
C878 H859 0.951 . S
C878 C876 1.388 . S
C878 C879 1.366 . S
C879 C878 1.366 . S
C879 C880 1.414 . S
C879 C882 1.499 . S
C880 H860 0.950 . S
C880 C879 1.414 . S
C880 C881 1.374 . S
C881 H861 0.950 . S
C881 C877 1.385 . S
C881 C880 1.374 . S
C882 C879 1.499 . S
C882 C883 1.373 . S
C882 C884 1.389 . S
C883 H862 0.950 . S
C883 C882 1.373 . S
C883 C899 1.377 . S
C884 C882 1.389 . S
C884 C885 1.524 . S
C884 C898 1.377 . S
C885 C884 1.524 . S
C885 C886 1.397 . S
C885 C890 1.363 . S
C886 H863 0.950 . S
C886 C885 1.397 . S
C886 C887 1.334 . S
C887 H864 0.950 . S
C887 C886 1.334 . S
C887 C888 1.287 . S
C888 C887 1.287 . S
C888 C889 1.524 . S
C888 H907 0.913 . S
C889 H865 0.950 . S
C889 C888 1.524 . S
C889 C890 1.415 . S
C890 H866 0.950 . S
C890 C885 1.363 . S
C890 C889 1.415 . S
C891 H867 0.951 . S
C891 C892 1.366 . S
C891 C893 1.388 . S
C892 C891 1.366 . S
C892 C896 1.385 . S
C893 H868 0.951 . S
C893 C891 1.388 . S
C893 C894 1.366 . S
C894 C893 1.366 . S
C894 C895 1.414 . S
C894 C897 1.499 . S
C895 H869 0.950 . S
C895 C894 1.414 . S
C895 C896 1.374 . S
C896 H870 0.950 . S
C896 C892 1.385 . S
C896 C895 1.374 . S
C897 C894 1.499 . S
C897 C898 1.373 . S
C897 C899 1.389 . S
C898 H871 0.950 . S
C898 C884 1.377 . S
C898 C897 1.373 . S
C899 C883 1.377 . S
C899 C897 1.389 . S
C899 C900 1.524 . S
C900 C899 1.524 . S
C900 C901 1.397 . S
C900 C905 1.363 . S
C901 H872 0.950 . S
C901 C900 1.397 . S
C901 C902 1.334 . S
C902 H873 0.950 . S
C902 C901 1.334 . S
C902 C903 1.287 . S
C903 C902 1.287 . S
C903 C904 1.524 . S
C903 H906 0.999 . S
C904 H874 0.950 . S
C904 C903 1.524 . S
C904 C905 1.415 . S
C905 H875 0.950 . S
C905 C900 1.363 . S
C905 C904 1.415 . S
H906 C903 0.999 . S
H907 C888 0.913 . S
H908 C926 0.951 . S
H909 C928 0.951 . S
H910 C930 0.950 . S
H911 C931 0.950 . S
H912 C933 0.950 . S
H913 C936 0.950 . S
H914 C937 0.950 . S
H915 C939 0.950 . S
H916 C940 0.950 . S
H917 C941 0.951 . S
H918 C943 0.951 . S
H919 C945 0.950 . S
H920 C946 0.950 . S
H921 C948 0.950 . S
H922 C951 0.950 . S
H923 C952 0.950 . S
H924 C954 0.950 . S
H925 C955 0.950 . S
C926 H908 0.951 . S
C926 C927 1.366 . S
C926 C928 1.388 . S
C927 C926 1.366 . S
C927 C931 1.385 . S
C928 H909 0.951 . S
C928 C926 1.388 . S
C928 C929 1.366 . S
C929 C928 1.366 . S
C929 C930 1.414 . S
C929 C932 1.499 . S
C930 H910 0.950 . S
C930 C929 1.414 . S
C930 C931 1.374 . S
C931 H911 0.950 . S
C931 C927 1.385 . S
C931 C930 1.374 . S
C932 C929 1.499 . S
C932 C933 1.373 . S
C932 C934 1.389 . S
C933 H912 0.950 . S
C933 C932 1.373 . S
C933 C949 1.377 . S
C934 C932 1.389 . S
C934 C935 1.524 . S
C934 C948 1.377 . S
C935 C934 1.524 . S
C935 C936 1.397 . S
C935 C940 1.363 . S
C936 H913 0.950 . S
C936 C935 1.397 . S
C936 C937 1.334 . S
C937 H914 0.950 . S
C937 C936 1.334 . S
C937 C938 1.287 . S
C938 C937 1.287 . S
C938 C939 1.524 . S
C938 H957 0.913 . S
C939 H915 0.950 . S
C939 C938 1.524 . S
C939 C940 1.415 . S
C940 H916 0.950 . S
C940 C935 1.363 . S
C940 C939 1.415 . S
C941 H917 0.951 . S
C941 C942 1.366 . S
C941 C943 1.388 . S
C942 C941 1.366 . S
C942 C946 1.385 . S
C943 H918 0.951 . S
C943 C941 1.388 . S
C943 C944 1.366 . S
C944 C943 1.366 . S
C944 C945 1.414 . S
C944 C947 1.499 . S
C945 H919 0.950 . S
C945 C944 1.414 . S
C945 C946 1.374 . S
C946 H920 0.950 . S
C946 C942 1.385 . S
C946 C945 1.374 . S
C947 C944 1.499 . S
C947 C948 1.373 . S
C947 C949 1.389 . S
C948 H921 0.950 . S
C948 C934 1.377 . S
C948 C947 1.373 . S
C949 C933 1.377 . S
C949 C947 1.389 . S
C949 C950 1.524 . S
C950 C949 1.524 . S
C950 C951 1.397 . S
C950 C955 1.363 . S
C951 H922 0.950 . S
C951 C950 1.397 . S
C951 C952 1.334 . S
C952 H923 0.950 . S
C952 C951 1.334 . S
C952 C953 1.287 . S
C953 C952 1.287 . S
C953 C954 1.524 . S
C953 H956 0.999 . S
C954 H924 0.950 . S
C954 C953 1.524 . S
C954 C955 1.415 . S
C955 H925 0.950 . S
C955 C950 1.363 . S
C955 C954 1.415 . S
H956 C953 0.999 . S
H957 C938 0.913 . S
H958 C976 0.951 . S
H959 C978 0.951 . S
H960 C980 0.950 . S
H961 C981 0.950 . S
H962 C983 0.950 . S
H963 C986 0.950 . S
H964 C987 0.950 . S
H965 C989 0.950 . S
H966 C990 0.950 . S
H967 C991 0.951 . S
H968 C993 0.951 . S
H969 C995 0.950 . S
H970 C996 0.950 . S
H971 C998 0.950 . S
H972 C1001 0.950 . S
H973 C1002 0.950 . S
H974 C1004 0.950 . S
H975 C1005 0.950 . S
C976 H958 0.951 . S
C976 C977 1.366 . S
C976 C978 1.388 . S
C977 C976 1.366 . S
C977 C981 1.385 . S
C978 H959 0.951 . S
C978 C976 1.388 . S
C978 C979 1.366 . S
C979 C978 1.366 . S
C979 C980 1.414 . S
C979 C982 1.499 . S
C980 H960 0.950 . S
C980 C979 1.414 . S
C980 C981 1.374 . S
C981 H961 0.950 . S
C981 C977 1.385 . S
C981 C980 1.374 . S
C982 C979 1.499 . S
C982 C983 1.373 . S
C982 C984 1.389 . S
C983 H962 0.950 . S
C983 C982 1.373 . S
C983 C999 1.377 . S
C984 C982 1.389 . S
C984 C985 1.524 . S
C984 C998 1.377 . S
C985 C984 1.524 . S
C985 C986 1.397 . S
C985 C990 1.363 . S
C986 H963 0.950 . S
C986 C985 1.397 . S
C986 C987 1.334 . S
C987 H964 0.950 . S
C987 C986 1.334 . S
C987 C988 1.287 . S
C988 C987 1.287 . S
C988 C989 1.524 . S
C988 H1007 0.913 . S
C989 H965 0.950 . S
C989 C988 1.524 . S
C989 C990 1.415 . S
C990 H966 0.950 . S
C990 C985 1.363 . S
C990 C989 1.415 . S
C991 H967 0.951 . S
C991 C992 1.366 . S
C991 C993 1.388 . S
C992 C991 1.366 . S
C992 C996 1.385 . S
C993 H968 0.951 . S
C993 C991 1.388 . S
C993 C994 1.366 . S
C994 C993 1.366 . S
C994 C995 1.414 . S
C994 C997 1.499 . S
C995 H969 0.950 . S
C995 C994 1.414 . S
C995 C996 1.374 . S
C996 H970 0.950 . S
C996 C992 1.385 . S
C996 C995 1.374 . S
C997 C994 1.499 . S
C997 C998 1.373 . S
C997 C999 1.389 . S
C998 H971 0.950 . S
C998 C984 1.377 . S
C998 C997 1.373 . S
C999 C983 1.377 . S
C999 C997 1.389 . S
C999 C1000 1.524 . S
C1000 C999 1.524 . S
C1000 C1001 1.397 . S
C1000 C1005 1.363 . S
C1001 H972 0.950 . S
C1001 C1000 1.397 . S
C1001 C1002 1.334 . S
C1002 H973 0.950 . S
C1002 C1001 1.334 . S
C1002 C1003 1.287 . S
C1003 C1002 1.287 . S
C1003 C1004 1.524 . S
C1003 H1006 0.999 . S
C1004 H974 0.950 . S
C1004 C1003 1.524 . S
C1004 C1005 1.415 . S
C1005 H975 0.950 . S
C1005 C1000 1.363 . S
C1005 C1004 1.415 . S
H1006 C1003 0.999 . S
H1007 C988 0.913 . S
H1008 C1026 0.951 . S
H1009 C1028 0.951 . S
H1010 C1030 0.950 . S
H1011 C1031 0.950 . S
H1012 C1033 0.950 . S
H1013 C1036 0.950 . S
H1014 C1037 0.950 . S
H1015 C1039 0.950 . S
H1016 C1040 0.950 . S
H1017 C1041 0.951 . S
H1018 C1043 0.951 . S
H1019 C1045 0.950 . S
H1020 C1046 0.950 . S
H1021 C1048 0.950 . S
H1022 C1051 0.950 . S
H1023 C1052 0.950 . S
H1024 C1054 0.950 . S
H1025 C1055 0.950 . S
C1026 H1008 0.951 . S
C1026 C1027 1.366 . S
C1026 C1028 1.388 . S
C1027 C1026 1.366 . S
C1027 C1031 1.385 . S
C1028 H1009 0.951 . S
C1028 C1026 1.388 . S
C1028 C1029 1.366 . S
C1029 C1028 1.366 . S
C1029 C1030 1.414 . S
C1029 C1032 1.499 . S
C1030 H1010 0.950 . S
C1030 C1029 1.414 . S
C1030 C1031 1.374 . S
C1031 H1011 0.950 . S
C1031 C1027 1.385 . S
C1031 C1030 1.374 . S
C1032 C1029 1.499 . S
C1032 C1033 1.373 . S
C1032 C1034 1.389 . S
C1033 H1012 0.950 . S
C1033 C1032 1.373 . S
C1033 C1049 1.377 . S
C1034 C1032 1.389 . S
C1034 C1035 1.524 . S
C1034 C1048 1.377 . S
C1035 C1034 1.524 . S
C1035 C1036 1.397 . S
C1035 C1040 1.363 . S
C1036 H1013 0.950 . S
C1036 C1035 1.397 . S
C1036 C1037 1.334 . S
C1037 H1014 0.950 . S
C1037 C1036 1.334 . S
C1037 C1038 1.287 . S
C1038 C1037 1.287 . S
C1038 C1039 1.524 . S
C1038 H1057 0.913 . S
C1039 H1015 0.950 . S
C1039 C1038 1.524 . S
C1039 C1040 1.415 . S
C1040 H1016 0.950 . S
C1040 C1035 1.363 . S
C1040 C1039 1.415 . S
C1041 H1017 0.951 . S
C1041 C1042 1.366 . S
C1041 C1043 1.388 . S
C1042 C1041 1.366 . S
C1042 C1046 1.385 . S
C1043 H1018 0.951 . S
C1043 C1041 1.388 . S
C1043 C1044 1.366 . S
C1044 C1043 1.366 . S
C1044 C1045 1.414 . S
C1044 C1047 1.499 . S
C1045 H1019 0.950 . S
C1045 C1044 1.414 . S
C1045 C1046 1.374 . S
C1046 H1020 0.950 . S
C1046 C1042 1.385 . S
C1046 C1045 1.374 . S
C1047 C1044 1.499 . S
C1047 C1048 1.373 . S
C1047 C1049 1.389 . S
C1048 H1021 0.950 . S
C1048 C1034 1.377 . S
C1048 C1047 1.373 . S
C1049 C1033 1.377 . S
C1049 C1047 1.389 . S
C1049 C1050 1.524 . S
C1050 C1049 1.524 . S
C1050 C1051 1.397 . S
C1050 C1055 1.363 . S
C1051 H1022 0.950 . S
C1051 C1050 1.397 . S
C1051 C1052 1.334 . S
C1052 H1023 0.950 . S
C1052 C1051 1.334 . S
C1052 C1053 1.287 . S
C1053 C1052 1.287 . S
C1053 C1054 1.524 . S
C1053 H1056 0.999 . S
C1054 H1024 0.950 . S
C1054 C1053 1.524 . S
C1054 C1055 1.415 . S
C1055 H1025 0.950 . S
C1055 C1050 1.363 . S
C1055 C1054 1.415 . S
H1056 C1053 0.999 . S
H1057 C1038 0.913 . S
H1058 C1076 0.951 . S
H1059 C1078 0.951 . S
H1060 C1080 0.950 . S
H1061 C1081 0.950 . S
H1062 C1083 0.950 . S
H1063 C1086 0.950 . S
H1064 C1087 0.950 . S
H1065 C1089 0.950 . S
H1066 C1090 0.950 . S
H1067 C1091 0.951 . S
H1068 C1093 0.951 . S
H1069 C1095 0.935 1_556 S
H1070 C1096 0.950 1_556 S
H1071 C1098 0.877 1_556 S
H1072 C1101 0.950 . S
H1073 C1102 0.950 . S
H1074 C1104 0.950 . S
H1075 C1105 0.950 . S
C1076 H1058 0.951 . S
C1076 C1077 1.366 . S
C1076 C1078 1.388 . S
C1077 C1076 1.366 . S
C1077 C1081 1.385 . S
C1078 H1059 0.951 . S
C1078 C1076 1.388 . S
C1078 C1079 1.366 . S
C1079 C1078 1.366 . S
C1079 C1080 1.414 . S
C1079 C1082 1.499 . S
C1080 H1060 0.950 . S
C1080 C1079 1.414 . S
C1080 C1081 1.374 . S
C1081 H1061 0.950 . S
C1081 C1077 1.385 . S
C1081 C1080 1.374 . S
C1082 C1079 1.499 . S
C1082 C1083 1.373 . S
C1082 C1084 1.389 . S
C1083 H1062 0.950 . S
C1083 C1082 1.373 . S
C1083 C1099 1.377 . S
C1084 C1082 1.389 . S
C1084 C1085 1.524 1_554 S
C1084 C1098 1.386 . S
C1085 C1084 1.524 1_556 S
C1085 C1086 1.397 . S
C1085 C1090 1.363 . S
C1086 H1063 0.950 . S
C1086 C1085 1.397 . S
C1086 C1087 1.334 . S
C1087 H1064 0.950 . S
C1087 C1086 1.334 . S
C1087 C1088 1.287 . S
C1088 C1087 1.287 . S
C1088 C1089 1.524 . S
C1088 H1107 0.913 . S
C1089 H1065 0.950 . S
C1089 C1088 1.524 . S
C1089 C1090 1.415 . S
C1090 H1066 0.950 . S
C1090 C1085 1.363 . S
C1090 C1089 1.415 . S
C1091 H1067 0.951 . S
C1091 C1092 1.366 . S
C1091 C1093 1.388 . S
C1092 C1091 1.366 . S
C1092 C1096 1.385 . S
C1093 H1068 0.951 . S
C1093 C1091 1.388 . S
C1093 C1094 1.366 . S
C1094 C1093 1.366 . S
C1094 C1095 1.414 . S
C1094 C1097 1.499 . S
C1095 H1069 0.935 1_554 S
C1095 C1094 1.414 . S
C1095 C1096 1.374 . S
C1096 H1070 0.950 1_554 S
C1096 C1092 1.385 . S
C1096 C1095 1.374 . S
C1097 C1094 1.499 . S
C1097 C1098 1.442 . S
C1097 C1099 1.389 . S
C1098 H1071 0.877 1_554 S
C1098 C1084 1.386 . S
C1098 C1097 1.442 . S
C1099 C1083 1.377 . S
C1099 C1097 1.389 . S
C1099 C1100 1.524 . S
C1100 C1099 1.524 . S
C1100 C1101 1.397 . S
C1100 C1105 1.363 . S
C1101 H1072 0.950 . S
C1101 C1100 1.397 . S
C1101 C1102 1.334 . S
C1102 H1073 0.950 . S
C1102 C1101 1.334 . S
C1102 C1103 1.287 . S
C1103 C1102 1.287 . S
C1103 C1104 1.524 . S
C1103 H1106 0.999 . S
C1104 H1074 0.950 . S
C1104 C1103 1.524 . S
C1104 C1105 1.415 . S
C1105 H1075 0.950 . S
C1105 C1100 1.363 . S
C1105 C1104 1.415 . S
H1106 C1103 0.999 . S
H1107 C1088 0.913 . S
H1108 C1126 0.951 . S
H1109 C1128 0.951 . S
H1110 C1130 0.950 . S
H1111 C1131 0.950 . S
H1112 C1133 0.950 . S
H1113 C1136 0.950 . S
H1114 C1137 0.950 . S
H1115 C1139 0.950 . S
H1116 C1140 0.950 . S
H1117 C1141 0.951 . S
H1118 C1143 0.951 . S
H1119 C1145 0.950 . S
H1120 C1146 0.950 . S
H1121 C1148 0.950 . S
H1122 C1151 0.950 . S
H1123 C1152 0.950 . S
H1124 C1154 0.950 . S
H1125 C1155 0.950 . S
C1126 H1108 0.951 . S
C1126 C1127 1.366 . S
C1126 C1128 1.388 . S
C1127 C1126 1.366 . S
C1127 C1131 1.385 . S
C1128 H1109 0.951 . S
C1128 C1126 1.388 . S
C1128 C1129 1.366 . S
C1129 C1128 1.366 . S
C1129 C1130 1.414 . S
C1129 C1132 1.499 . S
C1130 H1110 0.950 . S
C1130 C1129 1.414 . S
C1130 C1131 1.374 . S
C1131 H1111 0.950 . S
C1131 C1127 1.385 . S
C1131 C1130 1.374 . S
C1132 C1129 1.499 . S
C1132 C1133 1.373 . S
C1132 C1134 1.389 . S
C1133 H1112 0.950 . S
C1133 C1132 1.373 . S
C1133 C1149 1.377 . S
C1134 C1132 1.389 . S
C1134 C1135 1.524 . S
C1134 C1148 1.377 . S
C1135 C1134 1.524 . S
C1135 C1136 1.397 . S
C1135 C1140 1.363 . S
C1136 H1113 0.950 . S
C1136 C1135 1.397 . S
C1136 C1137 1.334 . S
C1137 H1114 0.950 . S
C1137 C1136 1.334 . S
C1137 C1138 1.287 . S
C1138 C1137 1.287 . S
C1138 C1139 1.524 . S
C1138 H1157 0.913 . S
C1139 H1115 0.950 . S
C1139 C1138 1.524 . S
C1139 C1140 1.415 . S
C1140 H1116 0.950 . S
C1140 C1135 1.363 . S
C1140 C1139 1.415 . S
C1141 H1117 0.951 . S
C1141 C1142 1.366 . S
C1141 C1143 1.388 . S
C1142 C1141 1.366 . S
C1142 C1146 1.385 . S
C1143 H1118 0.951 . S
C1143 C1141 1.388 . S
C1143 C1144 1.366 . S
C1144 C1143 1.366 . S
C1144 C1145 1.414 . S
C1144 C1147 1.499 . S
C1145 H1119 0.950 . S
C1145 C1144 1.414 . S
C1145 C1146 1.374 . S
C1146 H1120 0.950 . S
C1146 C1142 1.385 . S
C1146 C1145 1.374 . S
C1147 C1144 1.499 . S
C1147 C1148 1.373 . S
C1147 C1149 1.389 . S
C1148 H1121 0.950 . S
C1148 C1134 1.377 . S
C1148 C1147 1.373 . S
C1149 C1133 1.377 . S
C1149 C1147 1.389 . S
C1149 C1150 1.524 . S
C1150 C1149 1.524 . S
C1150 C1151 1.397 . S
C1150 C1155 1.363 . S
C1151 H1122 0.950 . S
C1151 C1150 1.397 . S
C1151 C1152 1.334 . S
C1152 H1123 0.950 . S
C1152 C1151 1.334 . S
C1152 C1153 1.287 . S
C1153 C1152 1.287 . S
C1153 C1154 1.524 . S
C1153 H1156 0.999 . S
C1154 H1124 0.950 . S
C1154 C1153 1.524 . S
C1154 C1155 1.415 . S
C1155 H1125 0.950 . S
C1155 C1150 1.363 . S
C1155 C1154 1.415 . S
H1156 C1153 0.999 . S
H1157 C1138 0.913 . S
H1158 C1176 0.951 . S
H1159 C1178 0.951 . S
H1160 C1180 0.950 . S
H1161 C1181 0.950 . S
H1162 C1183 0.950 . S
H1163 C1186 0.950 . S
H1164 C1187 0.950 . S
H1165 C1189 0.950 . S
H1166 C1190 0.950 . S
H1167 C1191 0.951 . S
H1168 C1193 0.951 . S
H1169 C1195 0.950 . S
H1170 C1196 0.950 . S
H1171 C1198 0.950 . S
H1172 C1201 0.950 . S
H1173 C1202 0.950 . S
H1174 C1204 0.950 . S
H1175 C1205 0.950 . S
C1176 H1158 0.951 . S
C1176 C1177 1.366 . S
C1176 C1178 1.388 . S
C1177 C1176 1.366 . S
C1177 C1181 1.385 . S
C1178 H1159 0.951 . S
C1178 C1176 1.388 . S
C1178 C1179 1.366 . S
C1179 C1178 1.366 . S
C1179 C1180 1.414 . S
C1179 C1182 1.499 . S
C1180 H1160 0.950 . S
C1180 C1179 1.414 . S
C1180 C1181 1.374 . S
C1181 H1161 0.950 . S
C1181 C1177 1.385 . S
C1181 C1180 1.374 . S
C1182 C1179 1.499 . S
C1182 C1183 1.373 . S
C1182 C1184 1.389 . S
C1183 H1162 0.950 . S
C1183 C1182 1.373 . S
C1183 C1199 1.377 . S
C1184 C1182 1.389 . S
C1184 C1185 1.524 . S
C1184 C1198 1.377 . S
C1185 C1184 1.524 . S
C1185 C1186 1.397 . S
C1185 C1190 1.363 . S
C1186 H1163 0.950 . S
C1186 C1185 1.397 . S
C1186 C1187 1.334 . S
C1187 H1164 0.950 . S
C1187 C1186 1.334 . S
C1187 C1188 1.287 . S
C1188 C1187 1.287 . S
C1188 C1189 1.524 . S
C1188 H1207 0.913 . S
C1189 H1165 0.950 . S
C1189 C1188 1.524 . S
C1189 C1190 1.415 . S
C1190 H1166 0.950 . S
C1190 C1185 1.363 . S
C1190 C1189 1.415 . S
C1191 H1167 0.951 . S
C1191 C1192 1.366 . S
C1191 C1193 1.388 . S
C1192 C1191 1.366 . S
C1192 C1196 1.385 . S
C1193 H1168 0.951 . S
C1193 C1191 1.388 . S
C1193 C1194 1.366 . S
C1194 C1193 1.366 . S
C1194 C1195 1.414 . S
C1194 C1197 1.499 . S
C1195 H1169 0.950 . S
C1195 C1194 1.414 . S
C1195 C1196 1.374 . S
C1196 H1170 0.950 . S
C1196 C1192 1.385 . S
C1196 C1195 1.374 . S
C1197 C1194 1.499 . S
C1197 C1198 1.373 . S
C1197 C1199 1.389 . S
C1198 H1171 0.950 . S
C1198 C1184 1.377 . S
C1198 C1197 1.373 . S
C1199 C1183 1.377 . S
C1199 C1197 1.389 . S
C1199 C1200 1.524 . S
C1200 C1199 1.524 . S
C1200 C1201 1.397 . S
C1200 C1205 1.363 . S
C1201 H1172 0.950 . S
C1201 C1200 1.397 . S
C1201 C1202 1.334 . S
C1202 H1173 0.950 . S
C1202 C1201 1.334 . S
C1202 C1203 1.287 . S
C1203 C1202 1.287 . S
C1203 C1204 1.524 . S
C1203 H1206 0.999 . S
C1204 H1174 0.950 . S
C1204 C1203 1.524 . S
C1204 C1205 1.415 . S
C1205 H1175 0.950 . S
C1205 C1200 1.363 . S
C1205 C1204 1.415 . S
H1206 C1203 0.999 . S
H1207 C1188 0.913 . S
H1208 C1226 0.951 . S
H1209 C1228 0.951 . S
H1210 C1230 0.950 . S
H1211 C1231 0.950 . S
H1212 C1233 0.950 . S
H1213 C1236 0.950 . S
H1214 C1237 0.950 . S
H1215 C1239 0.950 . S
H1216 C1240 0.950 . S
H1217 C1241 0.951 . S
H1218 C1243 0.951 . S
H1219 C1245 0.950 . S
H1220 C1246 0.950 . S
H1221 C1248 0.950 . S
H1222 C1251 0.950 . S
H1223 C1252 0.950 . S
H1224 C1254 0.950 . S
H1225 C1255 0.950 . S
C1226 H1208 0.951 . S
C1226 C1227 1.366 . S
C1226 C1228 1.388 . S
C1227 C1226 1.366 . S
C1227 C1231 1.385 . S
C1228 H1209 0.951 . S
C1228 C1226 1.388 . S
C1228 C1229 1.366 . S
C1229 C1228 1.366 . S
C1229 C1230 1.414 . S
C1229 C1232 1.499 . S
C1230 H1210 0.950 . S
C1230 C1229 1.414 . S
C1230 C1231 1.374 . S
C1231 H1211 0.950 . S
C1231 C1227 1.385 . S
C1231 C1230 1.374 . S
C1232 C1229 1.499 . S
C1232 C1233 1.373 . S
C1232 C1234 1.389 . S
C1233 H1212 0.950 . S
C1233 C1232 1.373 . S
C1233 C1249 1.377 . S
C1234 C1232 1.389 . S
C1234 C1235 1.524 . S
C1234 C1248 1.377 . S
C1235 C1234 1.524 . S
C1235 C1236 1.397 . S
C1235 C1240 1.363 . S
C1236 H1213 0.950 . S
C1236 C1235 1.397 . S
C1236 C1237 1.334 . S
C1237 H1214 0.950 . S
C1237 C1236 1.334 . S
C1237 C1238 1.287 . S
C1238 C1237 1.287 . S
C1238 C1239 1.524 . S
C1238 H1257 0.913 . S
C1239 H1215 0.950 . S
C1239 C1238 1.524 . S
C1239 C1240 1.415 . S
C1240 H1216 0.950 . S
C1240 C1235 1.363 . S
C1240 C1239 1.415 . S
C1241 H1217 0.951 . S
C1241 C1242 1.366 . S
C1241 C1243 1.388 . S
C1242 C1241 1.366 . S
C1242 C1246 1.385 . S
C1243 H1218 0.951 . S
C1243 C1241 1.388 . S
C1243 C1244 1.366 . S
C1244 C1243 1.366 . S
C1244 C1245 1.414 . S
C1244 C1247 1.499 . S
C1245 H1219 0.950 . S
C1245 C1244 1.414 . S
C1245 C1246 1.374 . S
C1246 H1220 0.950 . S
C1246 C1242 1.385 . S
C1246 C1245 1.374 . S
C1247 C1244 1.499 . S
C1247 C1248 1.373 . S
C1247 C1249 1.389 . S
C1248 H1221 0.950 . S
C1248 C1234 1.377 . S
C1248 C1247 1.373 . S
C1249 C1233 1.377 . S
C1249 C1247 1.389 . S
C1249 C1250 1.524 . S
C1250 C1249 1.524 . S
C1250 C1251 1.397 . S
C1250 C1255 1.363 . S
C1251 H1222 0.950 . S
C1251 C1250 1.397 . S
C1251 C1252 1.334 . S
C1252 H1223 0.950 . S
C1252 C1251 1.334 . S
C1252 C1253 1.287 . S
C1253 C1252 1.287 . S
C1253 C1254 1.524 . S
C1253 H1256 0.999 . S
C1254 H1224 0.950 . S
C1254 C1253 1.524 . S
C1254 C1255 1.415 . S
C1255 H1225 0.950 . S
C1255 C1250 1.363 . S
C1255 C1254 1.415 . S
H1256 C1253 0.999 . S
H1257 C1238 0.913 . S
H1258 C1276 0.951 . S
H1259 C1278 0.951 . S
H1260 C1280 0.950 . S
H1261 C1281 0.950 . S
H1262 C1283 0.950 . S
H1263 C1286 0.950 . S
H1264 C1287 0.950 . S
H1265 C1289 0.950 . S
H1266 C1290 0.950 . S
H1267 C1291 0.951 . S
H1268 C1293 0.951 . S
H1269 C1295 0.950 . S
H1270 C1296 0.950 . S
H1271 C1298 0.950 . S
H1272 C1301 0.950 . S
H1273 C1302 0.950 . S
H1274 C1304 0.950 . S
H1275 C1305 0.950 . S
C1276 H1258 0.951 . S
C1276 C1277 1.366 . S
C1276 C1278 1.388 . S
C1277 C1276 1.366 . S
C1277 C1281 1.385 . S
C1278 H1259 0.951 . S
C1278 C1276 1.388 . S
C1278 C1279 1.366 . S
C1279 C1278 1.366 . S
C1279 C1280 1.414 . S
C1279 C1282 1.499 . S
C1280 H1260 0.950 . S
C1280 C1279 1.414 . S
C1280 C1281 1.374 . S
C1281 H1261 0.950 . S
C1281 C1277 1.385 . S
C1281 C1280 1.374 . S
C1282 C1279 1.499 . S
C1282 C1283 1.373 . S
C1282 C1284 1.389 . S
C1283 H1262 0.950 . S
C1283 C1282 1.373 . S
C1283 C1299 1.377 . S
C1284 C1282 1.389 . S
C1284 C1285 1.524 . S
C1284 C1298 1.377 . S
C1285 C1284 1.524 . S
C1285 C1286 1.397 . S
C1285 C1290 1.363 . S
C1286 H1263 0.950 . S
C1286 C1285 1.397 . S
C1286 C1287 1.334 . S
C1287 H1264 0.950 . S
C1287 C1286 1.334 . S
C1287 C1288 1.287 . S
C1288 C1287 1.287 . S
C1288 C1289 1.524 . S
C1288 H1307 0.913 . S
C1289 H1265 0.950 . S
C1289 C1288 1.524 . S
C1289 C1290 1.415 . S
C1290 H1266 0.950 . S
C1290 C1285 1.363 . S
C1290 C1289 1.415 . S
C1291 H1267 0.951 . S
C1291 C1292 1.366 . S
C1291 C1293 1.388 . S
C1292 C1291 1.366 . S
C1292 C1296 1.385 . S
C1293 H1268 0.951 . S
C1293 C1291 1.388 . S
C1293 C1294 1.366 . S
C1294 C1293 1.366 . S
C1294 C1295 1.414 . S
C1294 C1297 1.499 . S
C1295 H1269 0.950 . S
C1295 C1294 1.414 . S
C1295 C1296 1.374 . S
C1296 H1270 0.950 . S
C1296 C1292 1.385 . S
C1296 C1295 1.374 . S
C1297 C1294 1.499 . S
C1297 C1298 1.373 . S
C1297 C1299 1.389 . S
C1298 H1271 0.950 . S
C1298 C1284 1.377 . S
C1298 C1297 1.373 . S
C1299 C1283 1.377 . S
C1299 C1297 1.389 . S
C1299 C1300 1.524 . S
C1300 C1299 1.524 . S
C1300 C1301 1.397 . S
C1300 C1305 1.363 . S
C1301 H1272 0.950 . S
C1301 C1300 1.397 . S
C1301 C1302 1.334 . S
C1302 H1273 0.950 . S
C1302 C1301 1.334 . S
C1302 C1303 1.287 . S
C1303 C1302 1.287 . S
C1303 C1304 1.524 . S
C1303 H1306 0.999 . S
C1304 H1274 0.950 . S
C1304 C1303 1.524 . S
C1304 C1305 1.415 . S
C1305 H1275 0.950 . S
C1305 C1300 1.363 . S
C1305 C1304 1.415 . S
H1306 C1303 0.999 . S
H1307 C1288 0.913 . S
H1308 C1326 0.951 . S
H1309 C1328 0.951 . S
H1310 C1330 0.950 . S
H1311 C1331 0.950 . S
H1312 C1333 0.950 . S
H1313 C1336 0.950 . S
H1314 C1337 0.950 . S
H1315 C1339 0.950 . S
H1316 C1340 0.950 . S
H1317 C1341 0.951 . S
H1318 C1343 0.951 . S
H1319 C1345 0.934 1_554 S
H1320 C1346 0.943 1_554 S
H1321 C1348 0.950 . S
H1322 C1351 0.950 . S
H1323 C1352 0.950 . S
H1324 C1354 0.950 . S
H1325 C1355 0.950 1_556 S
C1326 H1308 0.951 . S
C1326 C1327 1.366 . S
C1326 C1328 1.388 . S
C1327 C1326 1.366 . S
C1327 C1331 1.385 . S
C1328 H1309 0.951 . S
C1328 C1326 1.388 . S
C1328 C1329 1.366 . S
C1329 C1328 1.366 . S
C1329 C1330 1.414 . S
C1329 C1332 1.499 . S
C1330 H1310 0.950 . S
C1330 C1329 1.414 . S
C1330 C1331 1.374 . S
C1331 H1311 0.950 . S
C1331 C1327 1.385 . S
C1331 C1330 1.374 . S
C1332 C1329 1.499 . S
C1332 C1333 1.373 . S
C1332 C1334 1.389 . S
C1333 H1312 0.950 . S
C1333 C1332 1.373 . S
C1333 C1349 1.377 . S
C1334 C1332 1.389 . S
C1334 C1335 1.524 . S
C1334 C1348 1.377 . S
C1335 C1334 1.524 . S
C1335 C1336 1.397 . S
C1335 C1340 1.363 . S
C1336 H1313 0.950 . S
C1336 C1335 1.397 . S
C1336 C1337 1.334 . S
C1337 H1314 0.950 . S
C1337 C1336 1.334 . S
C1337 C1338 1.287 . S
C1338 C1337 1.287 . S
C1338 C1339 1.524 . S
C1338 H1357 0.913 . S
C1339 H1315 0.950 . S
C1339 C1338 1.524 . S
C1339 C1340 1.415 . S
C1340 H1316 0.950 . S
C1340 C1335 1.363 . S
C1340 C1339 1.415 . S
C1341 H1317 0.951 . S
C1341 C1342 1.366 . S
C1341 C1343 1.388 . S
C1342 C1341 1.366 . S
C1342 C1346 1.390 . S
C1343 H1318 0.951 . S
C1343 C1341 1.388 . S
C1343 C1344 1.366 . S
C1344 C1343 1.366 . S
C1344 C1345 1.414 . S
C1344 C1347 1.499 . S
C1345 H1319 0.934 1_556 S
C1345 C1344 1.414 . S
C1345 C1346 1.376 . S
C1346 H1320 0.943 1_556 S
C1346 C1342 1.390 . S
C1346 C1345 1.376 . S
C1347 C1344 1.499 . S
C1347 C1348 1.373 . S
C1347 C1349 1.389 . S
C1348 H1321 0.950 . S
C1348 C1334 1.377 . S
C1348 C1347 1.373 . S
C1349 C1333 1.377 . S
C1349 C1347 1.389 . S
C1349 C1350 1.524 1_556 S
C1350 C1349 1.524 1_554 S
C1350 C1351 1.397 . S
C1350 C1355 1.363 . S
C1351 H1322 0.950 . S
C1351 C1350 1.397 . S
C1351 C1352 1.334 . S
C1352 H1323 0.950 . S
C1352 C1351 1.334 . S
C1352 C1353 1.287 . S
C1353 C1352 1.287 . S
C1353 C1354 1.524 . S
C1353 H1356 0.999 . S
C1354 H1324 0.950 . S
C1354 C1353 1.524 . S
C1354 C1355 1.415 . S
C1355 H1325 0.950 1_554 S
C1355 C1350 1.363 . S
C1355 C1354 1.415 . S
H1356 C1353 0.999 . S
H1357 C1338 0.913 . S
H1358 C1376 0.951 . S
H1359 C1378 0.951 . S
H1360 C1380 0.950 . S
H1361 C1381 0.950 . S
H1362 C1383 0.950 . S
H1363 C1386 0.950 . S
H1364 C1387 0.950 . S
H1365 C1389 0.950 . S
H1366 C1390 0.950 . S
H1367 C1391 0.951 . S
H1368 C1393 0.951 . S
H1369 C1395 0.950 . S
H1370 C1396 0.950 . S
H1371 C1398 0.950 . S
H1372 C1401 0.950 . S
H1373 C1402 0.950 . S
H1374 C1404 0.950 . S
H1375 C1405 0.950 . S
C1376 H1358 0.951 . S
C1376 C1377 1.366 . S
C1376 C1378 1.388 . S
C1377 C1376 1.366 . S
C1377 C1381 1.385 . S
C1378 H1359 0.951 . S
C1378 C1376 1.388 . S
C1378 C1379 1.366 . S
C1379 C1378 1.366 . S
C1379 C1380 1.414 . S
C1379 C1382 1.499 . S
C1380 H1360 0.950 . S
C1380 C1379 1.414 . S
C1380 C1381 1.374 . S
C1381 H1361 0.950 . S
C1381 C1377 1.385 . S
C1381 C1380 1.374 . S
C1382 C1379 1.499 . S
C1382 C1383 1.373 . S
C1382 C1384 1.389 . S
C1383 H1362 0.950 . S
C1383 C1382 1.373 . S
C1383 C1399 1.377 . S
C1384 C1382 1.389 . S
C1384 C1385 1.524 . S
C1384 C1398 1.377 . S
C1385 C1384 1.524 . S
C1385 C1386 1.397 . S
C1385 C1390 1.363 . S
C1386 H1363 0.950 . S
C1386 C1385 1.397 . S
C1386 C1387 1.334 . S
C1387 H1364 0.950 . S
C1387 C1386 1.334 . S
C1387 C1388 1.287 . S
C1388 C1387 1.287 . S
C1388 C1389 1.524 . S
C1388 H1407 0.913 . S
C1389 H1365 0.950 . S
C1389 C1388 1.524 . S
C1389 C1390 1.415 . S
C1390 H1366 0.950 . S
C1390 C1385 1.363 . S
C1390 C1389 1.415 . S
C1391 H1367 0.951 . S
C1391 C1392 1.366 . S
C1391 C1393 1.388 . S
C1392 C1391 1.366 . S
C1392 C1396 1.385 . S
C1393 H1368 0.951 . S
C1393 C1391 1.388 . S
C1393 C1394 1.366 . S
C1394 C1393 1.366 . S
C1394 C1395 1.414 . S
C1394 C1397 1.499 . S
C1395 H1369 0.950 . S
C1395 C1394 1.414 . S
C1395 C1396 1.374 . S
C1396 H1370 0.950 . S
C1396 C1392 1.385 . S
C1396 C1395 1.374 . S
C1397 C1394 1.499 . S
C1397 C1398 1.373 . S
C1397 C1399 1.389 . S
C1398 H1371 0.950 . S
C1398 C1384 1.377 . S
C1398 C1397 1.373 . S
C1399 C1383 1.377 . S
C1399 C1397 1.389 . S
C1399 C1400 1.524 . S
C1400 C1399 1.524 . S
C1400 C1401 1.397 . S
C1400 C1405 1.363 . S
C1401 H1372 0.950 . S
C1401 C1400 1.397 . S
C1401 C1402 1.334 . S
C1402 H1373 0.950 . S
C1402 C1401 1.334 . S
C1402 C1403 1.287 . S
C1403 C1402 1.287 . S
C1403 C1404 1.524 . S
C1403 H1406 0.999 . S
C1404 H1374 0.950 . S
C1404 C1403 1.524 . S
C1404 C1405 1.415 . S
C1405 H1375 0.950 . S
C1405 C1400 1.363 . S
C1405 C1404 1.415 . S
H1406 C1403 0.999 . S
H1407 C1388 0.913 . S
H1408 C1426 0.951 . S
H1409 C1428 0.951 . S
H1410 C1430 0.950 . S
H1411 C1431 0.950 . S
H1412 C1433 0.950 . S
H1413 C1436 0.950 . S
H1414 C1437 0.950 . S
H1415 C1439 0.950 . S
H1416 C1440 0.950 . S
H1417 C1441 0.951 . S
H1418 C1443 0.951 . S
H1419 C1445 0.950 . S
H1420 C1446 0.950 . S
H1421 C1448 0.950 . S
H1422 C1451 0.950 . S
H1423 C1452 0.950 . S
H1424 C1454 0.950 . S
H1425 C1455 0.950 . S
C1426 H1408 0.951 . S
C1426 C1427 1.366 . S
C1426 C1428 1.388 . S
C1427 C1426 1.366 . S
C1427 C1431 1.385 . S
C1428 H1409 0.951 . S
C1428 C1426 1.388 . S
C1428 C1429 1.366 . S
C1429 C1428 1.366 . S
C1429 C1430 1.414 . S
C1429 C1432 1.499 . S
C1430 H1410 0.950 . S
C1430 C1429 1.414 . S
C1430 C1431 1.374 . S
C1431 H1411 0.950 . S
C1431 C1427 1.385 . S
C1431 C1430 1.374 . S
C1432 C1429 1.499 . S
C1432 C1433 1.373 . S
C1432 C1434 1.389 . S
C1433 H1412 0.950 . S
C1433 C1432 1.373 . S
C1433 C1449 1.377 . S
C1434 C1432 1.389 . S
C1434 C1435 1.524 . S
C1434 C1448 1.377 . S
C1435 C1434 1.524 . S
C1435 C1436 1.397 . S
C1435 C1440 1.363 . S
C1436 H1413 0.950 . S
C1436 C1435 1.397 . S
C1436 C1437 1.334 . S
C1437 H1414 0.950 . S
C1437 C1436 1.334 . S
C1437 C1438 1.287 . S
C1438 C1437 1.287 . S
C1438 C1439 1.524 . S
C1438 H1457 0.913 . S
C1439 H1415 0.950 . S
C1439 C1438 1.524 . S
C1439 C1440 1.415 . S
C1440 H1416 0.950 . S
C1440 C1435 1.363 . S
C1440 C1439 1.415 . S
C1441 H1417 0.951 . S
C1441 C1442 1.366 . S
C1441 C1443 1.388 . S
C1442 C1441 1.366 . S
C1442 C1446 1.385 . S
C1443 H1418 0.951 . S
C1443 C1441 1.388 . S
C1443 C1444 1.366 . S
C1444 C1443 1.366 . S
C1444 C1445 1.414 . S
C1444 C1447 1.499 . S
C1445 H1419 0.950 . S
C1445 C1444 1.414 . S
C1445 C1446 1.374 . S
C1446 H1420 0.950 . S
C1446 C1442 1.385 . S
C1446 C1445 1.374 . S
C1447 C1444 1.499 . S
C1447 C1448 1.373 . S
C1447 C1449 1.389 . S
C1448 H1421 0.950 . S
C1448 C1434 1.377 . S
C1448 C1447 1.373 . S
C1449 C1433 1.377 . S
C1449 C1447 1.389 . S
C1449 C1450 1.524 . S
C1450 C1449 1.524 . S
C1450 C1451 1.397 . S
C1450 C1455 1.363 . S
C1451 H1422 0.950 . S
C1451 C1450 1.397 . S
C1451 C1452 1.334 . S
C1452 H1423 0.950 . S
C1452 C1451 1.334 . S
C1452 C1453 1.287 . S
C1453 C1452 1.287 . S
C1453 C1454 1.524 . S
C1453 H1456 0.999 . S
C1454 H1424 0.950 . S
C1454 C1453 1.524 . S
C1454 C1455 1.415 . S
C1455 H1425 0.950 . S
C1455 C1450 1.363 . S
C1455 C1454 1.415 . S
H1456 C1453 0.999 . S
H1457 C1438 0.913 . S
H1458 C1476 0.951 . S
H1459 C1478 0.951 . S
H1460 C1480 0.950 . S
H1461 C1481 0.950 . S
H1462 C1483 0.950 . S
H1463 C1486 0.950 . S
H1464 C1487 0.950 . S
H1465 C1489 0.950 . S
H1466 C1490 0.950 . S
H1467 C1491 0.951 . S
H1468 C1493 0.951 . S
H1469 C1495 0.950 . S
H1470 C1496 0.950 . S
H1471 C1498 0.950 . S
H1472 C1501 0.950 . S
H1473 C1502 0.950 . S
H1474 C1504 0.950 . S
H1475 C1505 0.950 . S
C1476 H1458 0.951 . S
C1476 C1477 1.366 . S
C1476 C1478 1.388 . S
C1477 C1476 1.366 . S
C1477 C1481 1.385 . S
C1478 H1459 0.951 . S
C1478 C1476 1.388 . S
C1478 C1479 1.366 . S
C1479 C1478 1.366 . S
C1479 C1480 1.414 . S
C1479 C1482 1.499 . S
C1480 H1460 0.950 . S
C1480 C1479 1.414 . S
C1480 C1481 1.374 . S
C1481 H1461 0.950 . S
C1481 C1477 1.385 . S
C1481 C1480 1.374 . S
C1482 C1479 1.499 . S
C1482 C1483 1.373 . S
C1482 C1484 1.389 . S
C1483 H1462 0.950 . S
C1483 C1482 1.373 . S
C1483 C1499 1.377 . S
C1484 C1482 1.389 . S
C1484 C1485 1.524 . S
C1484 C1498 1.377 . S
C1485 C1484 1.524 . S
C1485 C1486 1.397 . S
C1485 C1490 1.363 . S
C1486 H1463 0.950 . S
C1486 C1485 1.397 . S
C1486 C1487 1.334 . S
C1487 H1464 0.950 . S
C1487 C1486 1.334 . S
C1487 C1488 1.287 . S
C1488 C1487 1.287 . S
C1488 C1489 1.524 . S
C1488 H1507 0.913 . S
C1489 H1465 0.950 . S
C1489 C1488 1.524 . S
C1489 C1490 1.415 . S
C1490 H1466 0.950 . S
C1490 C1485 1.363 . S
C1490 C1489 1.415 . S
C1491 H1467 0.951 . S
C1491 C1492 1.366 . S
C1491 C1493 1.388 . S
C1492 C1491 1.366 . S
C1492 C1496 1.385 . S
C1493 H1468 0.951 . S
C1493 C1491 1.388 . S
C1493 C1494 1.366 . S
C1494 C1493 1.366 . S
C1494 C1495 1.414 . S
C1494 C1497 1.499 . S
C1495 H1469 0.950 . S
C1495 C1494 1.414 . S
C1495 C1496 1.374 . S
C1496 H1470 0.950 . S
C1496 C1492 1.385 . S
C1496 C1495 1.374 . S
C1497 C1494 1.499 . S
C1497 C1498 1.373 . S
C1497 C1499 1.389 . S
C1498 H1471 0.950 . S
C1498 C1484 1.377 . S
C1498 C1497 1.373 . S
C1499 C1483 1.377 . S
C1499 C1497 1.389 . S
C1499 C1500 1.524 . S
C1500 C1499 1.524 . S
C1500 C1501 1.397 . S
C1500 C1505 1.363 . S
C1501 H1472 0.950 . S
C1501 C1500 1.397 . S
C1501 C1502 1.334 . S
C1502 H1473 0.950 . S
C1502 C1501 1.334 . S
C1502 C1503 1.287 . S
C1503 C1502 1.287 . S
C1503 C1504 1.524 . S
C1503 H1506 0.999 . S
C1504 H1474 0.950 . S
C1504 C1503 1.524 . S
C1504 C1505 1.415 . S
C1505 H1475 0.950 . S
C1505 C1500 1.363 . S
C1505 C1504 1.415 . S
H1506 C1503 0.999 . S
H1507 C1488 0.913 . S
H1508 C1526 0.951 . S
H1509 C1528 0.951 . S
H1510 C1530 0.950 . S
H1511 C1531 0.950 . S
H1512 C1533 0.950 . S
H1513 C1536 0.950 . S
H1514 C1537 0.950 . S
H1515 C1539 0.950 . S
H1516 C1540 0.950 . S
H1517 C1541 0.951 . S
H1518 C1543 0.951 . S
H1519 C1545 0.950 . S
H1520 C1546 0.950 . S
H1521 C1548 0.950 . S
H1522 C1551 0.950 . S
H1523 C1552 0.950 . S
H1524 C1554 0.950 . S
H1525 C1555 0.950 . S
C1526 H1508 0.951 . S
C1526 C1527 1.366 . S
C1526 C1528 1.388 . S
C1527 C1526 1.366 . S
C1527 C1531 1.385 . S
C1528 H1509 0.951 . S
C1528 C1526 1.388 . S
C1528 C1529 1.366 . S
C1529 C1528 1.366 . S
C1529 C1530 1.414 . S
C1529 C1532 1.499 . S
C1530 H1510 0.950 . S
C1530 C1529 1.414 . S
C1530 C1531 1.374 . S
C1531 H1511 0.950 . S
C1531 C1527 1.385 . S
C1531 C1530 1.374 . S
C1532 C1529 1.499 . S
C1532 C1533 1.373 . S
C1532 C1534 1.389 . S
C1533 H1512 0.950 . S
C1533 C1532 1.373 . S
C1533 C1549 1.377 . S
C1534 C1532 1.389 . S
C1534 C1535 1.524 . S
C1534 C1548 1.377 . S
C1535 C1534 1.524 . S
C1535 C1536 1.397 . S
C1535 C1540 1.363 . S
C1536 H1513 0.950 . S
C1536 C1535 1.397 . S
C1536 C1537 1.334 . S
C1537 H1514 0.950 . S
C1537 C1536 1.334 . S
C1537 C1538 1.287 . S
C1538 C1537 1.287 . S
C1538 C1539 1.524 . S
C1538 H1557 0.913 . S
C1539 H1515 0.950 . S
C1539 C1538 1.524 . S
C1539 C1540 1.415 . S
C1540 H1516 0.950 . S
C1540 C1535 1.363 . S
C1540 C1539 1.415 . S
C1541 H1517 0.951 . S
C1541 C1542 1.366 . S
C1541 C1543 1.388 . S
C1542 C1541 1.366 . S
C1542 C1546 1.385 . S
C1543 H1518 0.951 . S
C1543 C1541 1.388 . S
C1543 C1544 1.366 . S
C1544 C1543 1.366 . S
C1544 C1545 1.414 . S
C1544 C1547 1.499 . S
C1545 H1519 0.950 . S
C1545 C1544 1.414 . S
C1545 C1546 1.374 . S
C1546 H1520 0.950 . S
C1546 C1542 1.385 . S
C1546 C1545 1.374 . S
C1547 C1544 1.499 . S
C1547 C1548 1.373 . S
C1547 C1549 1.389 . S
C1548 H1521 0.950 . S
C1548 C1534 1.377 . S
C1548 C1547 1.373 . S
C1549 C1533 1.377 . S
C1549 C1547 1.389 . S
C1549 C1550 1.524 . S
C1550 C1549 1.524 . S
C1550 C1551 1.397 . S
C1550 C1555 1.363 . S
C1551 H1522 0.950 . S
C1551 C1550 1.397 . S
C1551 C1552 1.334 . S
C1552 H1523 0.950 . S
C1552 C1551 1.334 . S
C1552 C1553 1.287 . S
C1553 C1552 1.287 . S
C1553 C1554 1.524 . S
C1553 H1556 0.999 . S
C1554 H1524 0.950 . S
C1554 C1553 1.524 . S
C1554 C1555 1.415 . S
C1555 H1525 0.950 . S
C1555 C1550 1.363 . S
C1555 C1554 1.415 . S
H1556 C1553 0.999 . S
H1557 C1538 0.913 . S
H1558 C1576 0.951 . S
H1559 C1578 0.951 . S
H1560 C1580 0.950 . S
H1561 C1581 0.950 . S
H1562 C1583 0.950 . S
H1563 C1586 0.950 . S
H1564 C1587 0.950 . S
H1565 C1589 0.950 . S
H1566 C1590 0.950 . S
H1567 C1591 0.951 . S
H1568 C1593 0.951 . S
H1569 C1595 0.950 . S
H1570 C1596 0.950 . S
H1571 C1598 0.950 . S
H1572 C1601 0.950 . S
H1573 C1602 0.950 . S
H1574 C1604 0.950 . S
H1575 C1605 0.950 . S
C1576 H1558 0.951 . S
C1576 C1577 1.366 . S
C1576 C1578 1.388 . S
C1577 C1576 1.366 . S
C1577 C1581 1.385 . S
C1578 H1559 0.951 . S
C1578 C1576 1.388 . S
C1578 C1579 1.366 . S
C1579 C1578 1.366 . S
C1579 C1580 1.414 . S
C1579 C1582 1.499 . S
C1580 H1560 0.950 . S
C1580 C1579 1.414 . S
C1580 C1581 1.374 . S
C1581 H1561 0.950 . S
C1581 C1577 1.385 . S
C1581 C1580 1.374 . S
C1582 C1579 1.499 . S
C1582 C1583 1.373 . S
C1582 C1584 1.389 . S
C1583 H1562 0.950 . S
C1583 C1582 1.373 . S
C1583 C1599 1.377 . S
C1584 C1582 1.389 . S
C1584 C1585 1.524 . S
C1584 C1598 1.377 . S
C1585 C1584 1.524 . S
C1585 C1586 1.397 . S
C1585 C1590 1.363 . S
C1586 H1563 0.950 . S
C1586 C1585 1.397 . S
C1586 C1587 1.334 . S
C1587 H1564 0.950 . S
C1587 C1586 1.334 . S
C1587 C1588 1.287 . S
C1588 C1587 1.287 . S
C1588 C1589 1.524 . S
C1588 H1607 0.913 . S
C1589 H1565 0.950 . S
C1589 C1588 1.524 . S
C1589 C1590 1.415 . S
C1590 H1566 0.950 . S
C1590 C1585 1.363 . S
C1590 C1589 1.415 . S
C1591 H1567 0.951 . S
C1591 C1592 1.366 . S
C1591 C1593 1.388 . S
C1592 C1591 1.366 . S
C1592 C1596 1.385 . S
C1593 H1568 0.951 . S
C1593 C1591 1.388 . S
C1593 C1594 1.366 . S
C1594 C1593 1.366 . S
C1594 C1595 1.414 . S
C1594 C1597 1.499 . S
C1595 H1569 0.950 . S
C1595 C1594 1.414 . S
C1595 C1596 1.374 . S
C1596 H1570 0.950 . S
C1596 C1592 1.385 . S
C1596 C1595 1.374 . S
C1597 C1594 1.499 . S
C1597 C1598 1.373 . S
C1597 C1599 1.389 . S
C1598 H1571 0.950 . S
C1598 C1584 1.377 . S
C1598 C1597 1.373 . S
C1599 C1583 1.377 . S
C1599 C1597 1.389 . S
C1599 C1600 1.524 . S
C1600 C1599 1.524 . S
C1600 C1601 1.397 . S
C1600 C1605 1.363 . S
C1601 H1572 0.950 . S
C1601 C1600 1.397 . S
C1601 C1602 1.334 . S
C1602 H1573 0.950 . S
C1602 C1601 1.334 . S
C1602 C1603 1.287 . S
C1603 C1602 1.287 . S
C1603 C1604 1.524 . S
C1603 H1606 0.999 . S
C1604 H1574 0.950 . S
C1604 C1603 1.524 . S
C1604 C1605 1.415 . S
C1605 H1575 0.950 . S
C1605 C1600 1.363 . S
C1605 C1604 1.415 . S
H1606 C1603 0.999 . S
H1607 C1588 0.913 . S
H1608 C1626 0.951 . S
H1609 C1628 0.951 . S
H1610 C1630 0.950 . S
H1611 C1631 0.950 . S
H1612 C1633 0.950 . S
H1613 C1636 0.950 . S
H1614 C1637 0.950 . S
H1615 C1639 0.950 . S
H1616 C1640 0.950 . S
H1617 C1641 0.951 . S
H1618 C1643 0.951 . S
H1619 C1645 0.950 . S
H1620 C1646 0.950 . S
H1621 C1648 0.950 . S
H1622 C1651 0.950 . S
H1623 C1652 0.950 . S
H1624 C1654 0.950 . S
H1625 C1655 0.950 . S
C1626 H1608 0.951 . S
C1626 C1627 1.366 . S
C1626 C1628 1.388 . S
C1627 C1626 1.366 . S
C1627 C1631 1.385 . S
C1628 H1609 0.951 . S
C1628 C1626 1.388 . S
C1628 C1629 1.366 . S
C1629 C1628 1.366 . S
C1629 C1630 1.414 . S
C1629 C1632 1.499 . S
C1630 H1610 0.950 . S
C1630 C1629 1.414 . S
C1630 C1631 1.374 . S
C1631 H1611 0.950 . S
C1631 C1627 1.385 . S
C1631 C1630 1.374 . S
C1632 C1629 1.499 . S
C1632 C1633 1.373 . S
C1632 C1634 1.389 . S
C1633 H1612 0.950 . S
C1633 C1632 1.373 . S
C1633 C1649 1.377 . S
C1634 C1632 1.389 . S
C1634 C1635 1.524 . S
C1634 C1648 1.377 . S
C1635 C1634 1.524 . S
C1635 C1636 1.397 . S
C1635 C1640 1.363 . S
C1636 H1613 0.950 . S
C1636 C1635 1.397 . S
C1636 C1637 1.334 . S
C1637 H1614 0.950 . S
C1637 C1636 1.334 . S
C1637 C1638 1.287 . S
C1638 C1637 1.287 . S
C1638 C1639 1.524 . S
C1638 H1657 0.913 . S
C1639 H1615 0.950 . S
C1639 C1638 1.524 . S
C1639 C1640 1.415 . S
C1640 H1616 0.950 . S
C1640 C1635 1.363 . S
C1640 C1639 1.415 . S
C1641 H1617 0.951 . S
C1641 C1642 1.366 . S
C1641 C1643 1.388 . S
C1642 C1641 1.366 . S
C1642 C1646 1.385 . S
C1643 H1618 0.951 . S
C1643 C1641 1.388 . S
C1643 C1644 1.366 . S
C1644 C1643 1.366 . S
C1644 C1645 1.414 . S
C1644 C1647 1.499 . S
C1645 H1619 0.950 . S
C1645 C1644 1.414 . S
C1645 C1646 1.374 . S
C1646 H1620 0.950 . S
C1646 C1642 1.385 . S
C1646 C1645 1.374 . S
C1647 C1644 1.499 . S
C1647 C1648 1.373 . S
C1647 C1649 1.389 . S
C1648 H1621 0.950 . S
C1648 C1634 1.377 . S
C1648 C1647 1.373 . S
C1649 C1633 1.377 . S
C1649 C1647 1.389 . S
C1649 C1650 1.524 . S
C1650 C1649 1.524 . S
C1650 C1651 1.397 . S
C1650 C1655 1.363 . S
C1651 H1622 0.950 . S
C1651 C1650 1.397 . S
C1651 C1652 1.334 . S
C1652 H1623 0.950 . S
C1652 C1651 1.334 . S
C1652 C1653 1.287 . S
C1653 C1652 1.287 . S
C1653 C1654 1.524 . S
C1653 H1656 0.999 . S
C1654 H1624 0.950 . S
C1654 C1653 1.524 . S
C1654 C1655 1.415 . S
C1655 H1625 0.950 . S
C1655 C1650 1.363 . S
C1655 C1654 1.415 . S
H1656 C1653 0.999 . S
H1657 C1638 0.913 . S
H1658 C1676 0.951 . S
H1659 C1678 0.951 . S
H1660 C1680 0.950 . S
H1661 C1681 0.950 . S
H1662 C1683 0.950 . S
H1663 C1686 0.950 . S
H1664 C1687 0.950 . S
H1665 C1689 0.950 . S
H1666 C1690 0.950 . S
H1667 C1691 0.951 . S
H1668 C1693 0.951 . S
H1669 C1695 0.950 . S
H1670 C1696 0.950 . S
H1671 C1698 0.950 . S
H1672 C1701 0.950 . S
H1673 C1702 0.950 . S
H1674 C1704 0.950 . S
H1675 C1705 0.950 . S
C1676 H1658 0.951 . S
C1676 C1677 1.366 . S
C1676 C1678 1.388 . S
C1677 C1676 1.366 . S
C1677 C1681 1.385 . S
C1678 H1659 0.951 . S
C1678 C1676 1.388 . S
C1678 C1679 1.366 . S
C1679 C1678 1.366 . S
C1679 C1680 1.414 . S
C1679 C1682 1.499 . S
C1680 H1660 0.950 . S
C1680 C1679 1.414 . S
C1680 C1681 1.374 . S
C1681 H1661 0.950 . S
C1681 C1677 1.385 . S
C1681 C1680 1.374 . S
C1682 C1679 1.499 . S
C1682 C1683 1.373 . S
C1682 C1684 1.389 . S
C1683 H1662 0.950 . S
C1683 C1682 1.373 . S
C1683 C1699 1.377 . S
C1684 C1682 1.389 . S
C1684 C1685 1.524 . S
C1684 C1698 1.377 . S
C1685 C1684 1.524 . S
C1685 C1686 1.397 . S
C1685 C1690 1.363 . S
C1686 H1663 0.950 . S
C1686 C1685 1.397 . S
C1686 C1687 1.334 . S
C1687 H1664 0.950 . S
C1687 C1686 1.334 . S
C1687 C1688 1.287 . S
C1688 C1687 1.287 . S
C1688 C1689 1.524 . S
C1688 H1707 0.913 . S
C1689 H1665 0.950 . S
C1689 C1688 1.524 . S
C1689 C1690 1.415 . S
C1690 H1666 0.950 . S
C1690 C1685 1.363 . S
C1690 C1689 1.415 . S
C1691 H1667 0.951 . S
C1691 C1692 1.366 . S
C1691 C1693 1.388 . S
C1692 C1691 1.366 . S
C1692 C1696 1.385 . S
C1693 H1668 0.951 . S
C1693 C1691 1.388 . S
C1693 C1694 1.366 . S
C1694 C1693 1.366 . S
C1694 C1695 1.414 . S
C1694 C1697 1.499 . S
C1695 H1669 0.950 . S
C1695 C1694 1.414 . S
C1695 C1696 1.374 . S
C1696 H1670 0.950 . S
C1696 C1692 1.385 . S
C1696 C1695 1.374 . S
C1697 C1694 1.499 . S
C1697 C1698 1.373 . S
C1697 C1699 1.389 . S
C1698 H1671 0.950 . S
C1698 C1684 1.377 . S
C1698 C1697 1.373 . S
C1699 C1683 1.377 . S
C1699 C1697 1.389 . S
C1699 C1700 1.524 . S
C1700 C1699 1.524 . S
C1700 C1701 1.397 . S
C1700 C1705 1.363 . S
C1701 H1672 0.950 . S
C1701 C1700 1.397 . S
C1701 C1702 1.334 . S
C1702 H1673 0.950 . S
C1702 C1701 1.334 . S
C1702 C1703 1.287 . S
C1703 C1702 1.287 . S
C1703 C1704 1.524 . S
C1703 H1706 0.999 . S
C1704 H1674 0.950 . S
C1704 C1703 1.524 . S
C1704 C1705 1.415 . S
C1705 H1675 0.950 . S
C1705 C1700 1.363 . S
C1705 C1704 1.415 . S
H1706 C1703 0.999 . S
H1707 C1688 0.913 . S
H1708 C1726 0.951 . S
H1709 C1728 0.951 . S
H1710 C1730 0.950 . S
H1711 C1731 0.950 . S
H1712 C1733 0.950 . S
H1713 C1736 0.950 . S
H1714 C1737 0.950 . S
H1715 C1739 0.950 . S
H1716 C1740 0.950 . S
H1717 C1741 0.951 . S
H1718 C1743 0.951 . S
H1719 C1745 0.950 . S
H1720 C1746 0.950 . S
H1721 C1748 0.950 . S
H1722 C1751 0.950 . S
H1723 C1752 0.950 . S
H1724 C1754 0.950 . S
H1725 C1755 0.950 . S
C1726 H1708 0.951 . S
C1726 C1727 1.366 . S
C1726 C1728 1.388 . S
C1727 C1726 1.366 . S
C1727 C1731 1.385 . S
C1728 H1709 0.951 . S
C1728 C1726 1.388 . S
C1728 C1729 1.366 . S
C1729 C1728 1.366 . S
C1729 C1730 1.414 . S
C1729 C1732 1.499 . S
C1730 H1710 0.950 . S
C1730 C1729 1.414 . S
C1730 C1731 1.374 . S
C1731 H1711 0.950 . S
C1731 C1727 1.385 . S
C1731 C1730 1.374 . S
C1732 C1729 1.499 . S
C1732 C1733 1.373 . S
C1732 C1734 1.389 . S
C1733 H1712 0.950 . S
C1733 C1732 1.373 . S
C1733 C1749 1.377 . S
C1734 C1732 1.389 . S
C1734 C1735 1.524 . S
C1734 C1748 1.377 . S
C1735 C1734 1.524 . S
C1735 C1736 1.397 . S
C1735 C1740 1.363 . S
C1736 H1713 0.950 . S
C1736 C1735 1.397 . S
C1736 C1737 1.334 . S
C1737 H1714 0.950 . S
C1737 C1736 1.334 . S
C1737 C1738 1.287 . S
C1738 C1737 1.287 . S
C1738 C1739 1.524 . S
C1738 H1757 0.913 . S
C1739 H1715 0.950 . S
C1739 C1738 1.524 . S
C1739 C1740 1.415 . S
C1740 H1716 0.950 . S
C1740 C1735 1.363 . S
C1740 C1739 1.415 . S
C1741 H1717 0.951 . S
C1741 C1742 1.366 . S
C1741 C1743 1.388 . S
C1742 C1741 1.366 . S
C1742 C1746 1.385 . S
C1743 H1718 0.951 . S
C1743 C1741 1.388 . S
C1743 C1744 1.366 . S
C1744 C1743 1.366 . S
C1744 C1745 1.414 . S
C1744 C1747 1.499 . S
C1745 H1719 0.950 . S
C1745 C1744 1.414 . S
C1745 C1746 1.374 . S
C1746 H1720 0.950 . S
C1746 C1742 1.385 . S
C1746 C1745 1.374 . S
C1747 C1744 1.499 . S
C1747 C1748 1.373 . S
C1747 C1749 1.389 . S
C1748 H1721 0.950 . S
C1748 C1734 1.377 . S
C1748 C1747 1.373 . S
C1749 C1733 1.377 . S
C1749 C1747 1.389 . S
C1749 C1750 1.524 . S
C1750 C1749 1.524 . S
C1750 C1751 1.397 . S
C1750 C1755 1.363 . S
C1751 H1722 0.950 . S
C1751 C1750 1.397 . S
C1751 C1752 1.334 . S
C1752 H1723 0.950 . S
C1752 C1751 1.334 . S
C1752 C1753 1.287 . S
C1753 C1752 1.287 . S
C1753 C1754 1.524 . S
C1753 H1756 0.999 . S
C1754 H1724 0.950 . S
C1754 C1753 1.524 . S
C1754 C1755 1.415 . S
C1755 H1725 0.950 . S
C1755 C1750 1.363 . S
C1755 C1754 1.415 . S
H1756 C1753 0.999 . S
H1757 C1738 0.913 . S
H1758 C1776 0.951 . S
H1759 C1778 0.951 . S
H1760 C1780 0.950 . S
H1761 C1781 0.950 . S
H1762 C1783 0.950 . S
H1763 C1786 0.950 . S
H1764 C1787 0.950 . S
H1765 C1789 0.950 . S
H1766 C1790 0.950 . S
H1767 C1791 0.951 . S
H1768 C1793 0.951 . S
H1769 C1795 0.950 . S
H1770 C1796 0.950 . S
H1771 C1798 0.950 . S
H1772 C1801 0.950 . S
H1773 C1802 0.950 . S
H1774 C1804 0.950 . S
H1775 C1805 0.950 . S
C1776 H1758 0.951 . S
C1776 C1777 1.366 . S
C1776 C1778 1.388 . S
C1777 C1776 1.366 . S
C1777 C1781 1.385 . S
C1778 H1759 0.951 . S
C1778 C1776 1.388 . S
C1778 C1779 1.366 . S
C1779 C1778 1.366 . S
C1779 C1780 1.414 . S
C1779 C1782 1.499 . S
C1780 H1760 0.950 . S
C1780 C1779 1.414 . S
C1780 C1781 1.374 . S
C1781 H1761 0.950 . S
C1781 C1777 1.385 . S
C1781 C1780 1.374 . S
C1782 C1779 1.499 . S
C1782 C1783 1.373 . S
C1782 C1784 1.389 . S
C1783 H1762 0.950 . S
C1783 C1782 1.373 . S
C1783 C1799 1.377 . S
C1784 C1782 1.389 . S
C1784 C1785 1.524 . S
C1784 C1798 1.377 . S
C1785 C1784 1.524 . S
C1785 C1786 1.397 . S
C1785 C1790 1.363 . S
C1786 H1763 0.950 . S
C1786 C1785 1.397 . S
C1786 C1787 1.334 . S
C1787 H1764 0.950 . S
C1787 C1786 1.334 . S
C1787 C1788 1.287 . S
C1788 C1787 1.287 . S
C1788 C1789 1.524 . S
C1788 H1807 0.913 . S
C1789 H1765 0.950 . S
C1789 C1788 1.524 . S
C1789 C1790 1.415 . S
C1790 H1766 0.950 . S
C1790 C1785 1.363 . S
C1790 C1789 1.415 . S
C1791 H1767 0.951 . S
C1791 C1792 1.366 . S
C1791 C1793 1.388 . S
C1792 C1791 1.366 . S
C1792 C1796 1.385 . S
C1793 H1768 0.951 . S
C1793 C1791 1.388 . S
C1793 C1794 1.366 . S
C1794 C1793 1.366 . S
C1794 C1795 1.414 . S
C1794 C1797 1.499 . S
C1795 H1769 0.950 . S
C1795 C1794 1.414 . S
C1795 C1796 1.374 . S
C1796 H1770 0.950 . S
C1796 C1792 1.385 . S
C1796 C1795 1.374 . S
C1797 C1794 1.499 . S
C1797 C1798 1.373 . S
C1797 C1799 1.389 . S
C1798 H1771 0.950 . S
C1798 C1784 1.377 . S
C1798 C1797 1.373 . S
C1799 C1783 1.377 . S
C1799 C1797 1.389 . S
C1799 C1800 1.524 . S
C1800 C1799 1.524 . S
C1800 C1801 1.397 . S
C1800 C1805 1.363 . S
C1801 H1772 0.950 . S
C1801 C1800 1.397 . S
C1801 C1802 1.334 . S
C1802 H1773 0.950 . S
C1802 C1801 1.334 . S
C1802 C1803 1.287 . S
C1803 C1802 1.287 . S
C1803 C1804 1.524 . S
C1803 H1806 0.999 . S
C1804 H1774 0.950 . S
C1804 C1803 1.524 . S
C1804 C1805 1.415 . S
C1805 H1775 0.950 . S
C1805 C1800 1.363 . S
C1805 C1804 1.415 . S
H1806 C1803 0.999 . S
H1807 C1788 0.913 . S
H1808 C1826 0.951 . S
H1809 C1828 0.951 . S
H1810 C1830 0.950 . S
H1811 C1831 0.950 . S
H1812 C1833 0.950 . S
H1813 C1836 0.950 . S
H1814 C1837 0.950 . S
H1815 C1839 0.950 . S
H1816 C1840 0.950 . S
H1817 C1841 0.951 . S
H1818 C1843 0.951 . S
H1819 C1845 0.950 . S
H1820 C1846 0.950 . S
H1821 C1848 0.950 . S
H1822 C1851 0.950 . S
H1823 C1852 0.950 . S
H1824 C1854 0.950 . S
H1825 C1855 0.950 . S
C1826 H1808 0.951 . S
C1826 C1827 1.366 . S
C1826 C1828 1.388 . S
C1827 C1826 1.366 . S
C1827 C1831 1.385 . S
C1828 H1809 0.951 . S
C1828 C1826 1.388 . S
C1828 C1829 1.366 . S
C1829 C1828 1.366 . S
C1829 C1830 1.414 . S
C1829 C1832 1.499 . S
C1830 H1810 0.950 . S
C1830 C1829 1.414 . S
C1830 C1831 1.374 . S
C1831 H1811 0.950 . S
C1831 C1827 1.385 . S
C1831 C1830 1.374 . S
C1832 C1829 1.499 . S
C1832 C1833 1.373 . S
C1832 C1834 1.389 . S
C1833 H1812 0.950 . S
C1833 C1832 1.373 . S
C1833 C1849 1.377 . S
C1834 C1832 1.389 . S
C1834 C1835 1.524 . S
C1834 C1848 1.377 . S
C1835 C1834 1.524 . S
C1835 C1836 1.397 . S
C1835 C1840 1.363 . S
C1836 H1813 0.950 . S
C1836 C1835 1.397 . S
C1836 C1837 1.334 . S
C1837 H1814 0.950 . S
C1837 C1836 1.334 . S
C1837 C1838 1.287 . S
C1838 C1837 1.287 . S
C1838 C1839 1.524 . S
C1838 H1857 0.913 . S
C1839 H1815 0.950 . S
C1839 C1838 1.524 . S
C1839 C1840 1.415 . S
C1840 H1816 0.950 . S
C1840 C1835 1.363 . S
C1840 C1839 1.415 . S
C1841 H1817 0.951 . S
C1841 C1842 1.366 . S
C1841 C1843 1.388 . S
C1842 C1841 1.366 . S
C1842 C1846 1.385 . S
C1843 H1818 0.951 . S
C1843 C1841 1.388 . S
C1843 C1844 1.366 . S
C1844 C1843 1.366 . S
C1844 C1845 1.414 . S
C1844 C1847 1.499 . S
C1845 H1819 0.950 . S
C1845 C1844 1.414 . S
C1845 C1846 1.374 . S
C1846 H1820 0.950 . S
C1846 C1842 1.385 . S
C1846 C1845 1.374 . S
C1847 C1844 1.499 . S
C1847 C1848 1.373 . S
C1847 C1849 1.389 . S
C1848 H1821 0.950 . S
C1848 C1834 1.377 . S
C1848 C1847 1.373 . S
C1849 C1833 1.377 . S
C1849 C1847 1.389 . S
C1849 C1850 1.524 . S
C1850 C1849 1.524 . S
C1850 C1851 1.397 . S
C1850 C1855 1.363 . S
C1851 H1822 0.950 . S
C1851 C1850 1.397 . S
C1851 C1852 1.334 . S
C1852 H1823 0.950 . S
C1852 C1851 1.334 . S
C1852 C1853 1.287 . S
C1853 C1852 1.287 . S
C1853 C1854 1.524 . S
C1853 H1856 0.999 . S
C1854 H1824 0.950 . S
C1854 C1853 1.524 . S
C1854 C1855 1.415 . S
C1855 H1825 0.950 . S
C1855 C1850 1.363 . S
C1855 C1854 1.415 . S
H1856 C1853 0.999 . S
H1857 C1838 0.913 . S
H1858 C1876 0.951 . S
H1859 C1878 0.951 . S
H1860 C1880 0.950 . S
H1861 C1881 0.950 . S
H1862 C1883 0.950 . S
H1863 C1886 0.950 . S
H1864 C1887 0.950 . S
H1865 C1889 0.950 . S
H1866 C1890 0.950 . S
H1867 C1891 0.951 . S
H1868 C1893 0.951 . S
H1869 C1895 0.950 . S
H1870 C1896 0.950 . S
H1871 C1898 0.950 . S
H1872 C1901 0.950 . S
H1873 C1902 0.950 . S
H1874 C1904 0.950 . S
H1875 C1905 0.950 . S
C1876 H1858 0.951 . S
C1876 C1877 1.366 . S
C1876 C1878 1.388 . S
C1877 C1876 1.366 . S
C1877 C1881 1.385 . S
C1878 H1859 0.951 . S
C1878 C1876 1.388 . S
C1878 C1879 1.366 . S
C1879 C1878 1.366 . S
C1879 C1880 1.414 . S
C1879 C1882 1.499 . S
C1880 H1860 0.950 . S
C1880 C1879 1.414 . S
C1880 C1881 1.374 . S
C1881 H1861 0.950 . S
C1881 C1877 1.385 . S
C1881 C1880 1.374 . S
C1882 C1879 1.499 . S
C1882 C1883 1.373 . S
C1882 C1884 1.389 . S
C1883 H1862 0.950 . S
C1883 C1882 1.373 . S
C1883 C1899 1.377 . S
C1884 C1882 1.389 . S
C1884 C1885 1.524 . S
C1884 C1898 1.377 . S
C1885 C1884 1.524 . S
C1885 C1886 1.397 . S
C1885 C1890 1.363 . S
C1886 H1863 0.950 . S
C1886 C1885 1.397 . S
C1886 C1887 1.334 . S
C1887 H1864 0.950 . S
C1887 C1886 1.334 . S
C1887 C1888 1.287 . S
C1888 C1887 1.287 . S
C1888 C1889 1.524 . S
C1888 H1907 0.913 . S
C1889 H1865 0.950 . S
C1889 C1888 1.524 . S
C1889 C1890 1.415 . S
C1890 H1866 0.950 . S
C1890 C1885 1.363 . S
C1890 C1889 1.415 . S
C1891 H1867 0.951 . S
C1891 C1892 1.366 . S
C1891 C1893 1.388 . S
C1892 C1891 1.366 . S
C1892 C1896 1.385 . S
C1893 H1868 0.951 . S
C1893 C1891 1.388 . S
C1893 C1894 1.366 . S
C1894 C1893 1.366 . S
C1894 C1895 1.414 . S
C1894 C1897 1.499 . S
C1895 H1869 0.950 . S
C1895 C1894 1.414 . S
C1895 C1896 1.374 . S
C1896 H1870 0.950 . S
C1896 C1892 1.385 . S
C1896 C1895 1.374 . S
C1897 C1894 1.499 . S
C1897 C1898 1.373 . S
C1897 C1899 1.389 . S
C1898 H1871 0.950 . S
C1898 C1884 1.377 . S
C1898 C1897 1.373 . S
C1899 C1883 1.377 . S
C1899 C1897 1.389 . S
C1899 C1900 1.524 . S
C1900 C1899 1.524 . S
C1900 C1901 1.397 . S
C1900 C1905 1.363 . S
C1901 H1872 0.950 . S
C1901 C1900 1.397 . S
C1901 C1902 1.334 . S
C1902 H1873 0.950 . S
C1902 C1901 1.334 . S
C1902 C1903 1.287 . S
C1903 C1902 1.287 . S
C1903 C1904 1.524 . S
C1903 H1906 0.999 . S
C1904 H1874 0.950 . S
C1904 C1903 1.524 . S
C1904 C1905 1.415 . S
C1905 H1875 0.950 . S
C1905 C1900 1.363 . S
C1905 C1904 1.415 . S
H1906 C1903 0.999 . S
H1907 C1888 0.913 . S
H1908 C1926 0.951 . S
H1909 C1928 0.951 . S
H1910 C1930 0.950 . S
H1911 C1931 0.950 . S
H1912 C1933 0.950 . S
H1913 C1936 0.950 . S
H1914 C1937 0.950 . S
H1915 C1939 0.950 . S
H1916 C1940 0.950 . S
H1917 C1941 0.951 . S
H1918 C1943 0.951 . S
H1919 C1945 0.950 . S
H1920 C1946 0.950 . S
H1921 C1948 0.950 . S
H1922 C1951 0.950 . S
H1923 C1952 0.950 . S
H1924 C1954 0.950 . S
H1925 C1955 0.950 . S
C1926 H1908 0.951 . S
C1926 C1927 1.366 . S
C1926 C1928 1.388 . S
C1927 C1926 1.366 . S
C1927 C1931 1.385 . S
C1928 H1909 0.951 . S
C1928 C1926 1.388 . S
C1928 C1929 1.366 . S
C1929 C1928 1.366 . S
C1929 C1930 1.414 . S
C1929 C1932 1.499 . S
C1930 H1910 0.950 . S
C1930 C1929 1.414 . S
C1930 C1931 1.374 . S
C1931 H1911 0.950 . S
C1931 C1927 1.385 . S
C1931 C1930 1.374 . S
C1932 C1929 1.499 . S
C1932 C1933 1.373 . S
C1932 C1934 1.389 . S
C1933 H1912 0.950 . S
C1933 C1932 1.373 . S
C1933 C1949 1.377 . S
C1934 C1932 1.389 . S
C1934 C1935 1.524 . S
C1934 C1948 1.377 . S
C1935 C1934 1.524 . S
C1935 C1936 1.397 . S
C1935 C1940 1.363 . S
C1936 H1913 0.950 . S
C1936 C1935 1.397 . S
C1936 C1937 1.334 . S
C1937 H1914 0.950 . S
C1937 C1936 1.334 . S
C1937 C1938 1.287 . S
C1938 C1937 1.287 . S
C1938 C1939 1.524 . S
C1938 H1957 0.913 . S
C1939 H1915 0.950 . S
C1939 C1938 1.524 . S
C1939 C1940 1.415 . S
C1940 H1916 0.950 . S
C1940 C1935 1.363 . S
C1940 C1939 1.415 . S
C1941 H1917 0.951 . S
C1941 C1942 1.366 . S
C1941 C1943 1.388 . S
C1942 C1941 1.366 . S
C1942 C1946 1.385 . S
C1943 H1918 0.951 . S
C1943 C1941 1.388 . S
C1943 C1944 1.366 . S
C1944 C1943 1.366 . S
C1944 C1945 1.414 . S
C1944 C1947 1.499 . S
C1945 H1919 0.950 . S
C1945 C1944 1.414 . S
C1945 C1946 1.374 . S
C1946 H1920 0.950 . S
C1946 C1942 1.385 . S
C1946 C1945 1.374 . S
C1947 C1944 1.499 . S
C1947 C1948 1.373 . S
C1947 C1949 1.389 . S
C1948 H1921 0.950 . S
C1948 C1934 1.377 . S
C1948 C1947 1.373 . S
C1949 C1933 1.377 . S
C1949 C1947 1.389 . S
C1949 C1950 1.524 . S
C1950 C1949 1.524 . S
C1950 C1951 1.397 . S
C1950 C1955 1.363 . S
C1951 H1922 0.950 . S
C1951 C1950 1.397 . S
C1951 C1952 1.334 . S
C1952 H1923 0.950 . S
C1952 C1951 1.334 . S
C1952 C1953 1.287 . S
C1953 C1952 1.287 . S
C1953 C1954 1.524 . S
C1953 H1956 0.999 . S
C1954 H1924 0.950 . S
C1954 C1953 1.524 . S
C1954 C1955 1.415 . S
C1955 H1925 0.950 . S
C1955 C1950 1.363 . S
C1955 C1954 1.415 . S
H1956 C1953 0.999 . S
H1957 C1938 0.913 . S
H1958 C1976 0.951 . S
H1959 C1978 0.951 . S
H1960 C1980 0.950 . S
H1961 C1981 0.950 . S
H1962 C1983 0.950 . S
H1963 C1986 0.950 . S
H1964 C1987 0.950 . S
H1965 C1989 0.950 . S
H1966 C1990 0.950 . S
H1967 C1991 0.951 . S
H1968 C1993 0.951 . S
H1969 C1995 0.950 . S
H1970 C1996 0.950 . S
H1971 C1998 0.950 . S
H1972 C2001 0.950 . S
H1973 C2002 0.950 . S
H1974 C2004 0.950 . S
H1975 C2005 0.950 . S
C1976 H1958 0.951 . S
C1976 C1977 1.366 . S
C1976 C1978 1.388 . S
C1977 C1976 1.366 . S
C1977 C1981 1.385 . S
C1978 H1959 0.951 . S
C1978 C1976 1.388 . S
C1978 C1979 1.366 . S
C1979 C1978 1.366 . S
C1979 C1980 1.414 . S
C1979 C1982 1.499 . S
C1980 H1960 0.950 . S
C1980 C1979 1.414 . S
C1980 C1981 1.374 . S
C1981 H1961 0.950 . S
C1981 C1977 1.385 . S
C1981 C1980 1.374 . S
C1982 C1979 1.499 . S
C1982 C1983 1.373 . S
C1982 C1984 1.389 . S
C1983 H1962 0.950 . S
C1983 C1982 1.373 . S
C1983 C1999 1.377 . S
C1984 C1982 1.389 . S
C1984 C1985 1.524 . S
C1984 C1998 1.377 . S
C1985 C1984 1.524 . S
C1985 C1986 1.397 . S
C1985 C1990 1.363 . S
C1986 H1963 0.950 . S
C1986 C1985 1.397 . S
C1986 C1987 1.334 . S
C1987 H1964 0.950 . S
C1987 C1986 1.334 . S
C1987 C1988 1.287 . S
C1988 C1987 1.287 . S
C1988 C1989 1.524 . S
C1988 H2007 0.913 . S
C1989 H1965 0.950 . S
C1989 C1988 1.524 . S
C1989 C1990 1.415 . S
C1990 H1966 0.950 . S
C1990 C1985 1.363 . S
C1990 C1989 1.415 . S
C1991 H1967 0.951 . S
C1991 C1992 1.366 . S
C1991 C1993 1.388 . S
C1992 C1991 1.366 . S
C1992 C1996 1.385 . S
C1993 H1968 0.951 . S
C1993 C1991 1.388 . S
C1993 C1994 1.366 . S
C1994 C1993 1.366 . S
C1994 C1995 1.414 . S
C1994 C1997 1.499 . S
C1995 H1969 0.950 . S
C1995 C1994 1.414 . S
C1995 C1996 1.374 . S
C1996 H1970 0.950 . S
C1996 C1992 1.385 . S
C1996 C1995 1.374 . S
C1997 C1994 1.499 . S
C1997 C1998 1.373 . S
C1997 C1999 1.389 . S
C1998 H1971 0.950 . S
C1998 C1984 1.377 . S
C1998 C1997 1.373 . S
C1999 C1983 1.377 . S
C1999 C1997 1.389 . S
C1999 C2000 1.524 . S
C2000 C1999 1.524 . S
C2000 C2001 1.397 . S
C2000 C2005 1.363 . S
C2001 H1972 0.950 . S
C2001 C2000 1.397 . S
C2001 C2002 1.334 . S
C2002 H1973 0.950 . S
C2002 C2001 1.334 . S
C2002 C2003 1.287 . S
C2003 C2002 1.287 . S
C2003 C2004 1.524 . S
C2003 H2006 0.999 . S
C2004 H1974 0.950 . S
C2004 C2003 1.524 . S
C2004 C2005 1.415 . S
C2005 H1975 0.950 . S
C2005 C2000 1.363 . S
C2005 C2004 1.415 . S
H2006 C2003 0.999 . S
H2007 C1988 0.913 . S
H2008 C2026 0.951 . S
H2009 C2028 0.951 . S
H2010 C2030 0.950 . S
H2011 C2031 0.950 . S
H2012 C2033 0.950 . S
H2013 C2036 0.950 . S
H2014 C2037 0.950 . S
H2015 C2039 0.950 . S
H2016 C2040 0.950 . S
H2017 C2041 0.951 . S
H2018 C2043 0.951 . S
H2019 C2045 0.950 . S
H2020 C2046 0.950 . S
H2021 C2048 0.950 . S
H2022 C2051 0.950 . S
H2023 C2052 0.950 . S
H2024 C2054 0.950 . S
H2025 C2055 0.950 . S
C2026 H2008 0.951 . S
C2026 C2027 1.366 . S
C2026 C2028 1.388 . S
C2027 C2026 1.366 . S
C2027 C2031 1.385 . S
C2028 H2009 0.951 . S
C2028 C2026 1.388 . S
C2028 C2029 1.366 . S
C2029 C2028 1.366 . S
C2029 C2030 1.414 . S
C2029 C2032 1.499 . S
C2030 H2010 0.950 . S
C2030 C2029 1.414 . S
C2030 C2031 1.374 . S
C2031 H2011 0.950 . S
C2031 C2027 1.385 . S
C2031 C2030 1.374 . S
C2032 C2029 1.499 . S
C2032 C2033 1.373 . S
C2032 C2034 1.389 . S
C2033 H2012 0.950 . S
C2033 C2032 1.373 . S
C2033 C2049 1.377 . S
C2034 C2032 1.389 . S
C2034 C2035 1.524 . S
C2034 C2048 1.377 . S
C2035 C2034 1.524 . S
C2035 C2036 1.397 . S
C2035 C2040 1.363 . S
C2036 H2013 0.950 . S
C2036 C2035 1.397 . S
C2036 C2037 1.334 . S
C2037 H2014 0.950 . S
C2037 C2036 1.334 . S
C2037 C2038 1.287 . S
C2038 C2037 1.287 . S
C2038 C2039 1.524 . S
C2038 H2057 0.913 . S
C2039 H2015 0.950 . S
C2039 C2038 1.524 . S
C2039 C2040 1.415 . S
C2040 H2016 0.950 . S
C2040 C2035 1.363 . S
C2040 C2039 1.415 . S
C2041 H2017 0.951 . S
C2041 C2042 1.366 . S
C2041 C2043 1.388 . S
C2042 C2041 1.366 . S
C2042 C2046 1.385 . S
C2043 H2018 0.951 . S
C2043 C2041 1.388 . S
C2043 C2044 1.366 . S
C2044 C2043 1.366 . S
C2044 C2045 1.414 . S
C2044 C2047 1.499 . S
C2045 H2019 0.950 . S
C2045 C2044 1.414 . S
C2045 C2046 1.374 . S
C2046 H2020 0.950 . S
C2046 C2042 1.385 . S
C2046 C2045 1.374 . S
C2047 C2044 1.499 . S
C2047 C2048 1.373 . S
C2047 C2049 1.389 . S
C2048 H2021 0.950 . S
C2048 C2034 1.377 . S
C2048 C2047 1.373 . S
C2049 C2033 1.377 . S
C2049 C2047 1.389 . S
C2049 C2050 1.524 . S
C2050 C2049 1.524 . S
C2050 C2051 1.397 . S
C2050 C2055 1.363 . S
C2051 H2022 0.950 . S
C2051 C2050 1.397 . S
C2051 C2052 1.334 . S
C2052 H2023 0.950 . S
C2052 C2051 1.334 . S
C2052 C2053 1.287 . S
C2053 C2052 1.287 . S
C2053 C2054 1.524 . S
C2053 H2056 0.999 . S
C2054 H2024 0.950 . S
C2054 C2053 1.524 . S
C2054 C2055 1.415 . S
C2055 H2025 0.950 . S
C2055 C2050 1.363 . S
C2055 C2054 1.415 . S
H2056 C2053 0.999 . S
H2057 C2038 0.913 . S
H2058 C2076 0.951 . S
H2059 C2078 0.951 . S
H2060 C2080 0.950 . S
H2061 C2081 0.950 . S
H2062 C2083 0.950 . S
H2063 C2086 0.950 . S
H2064 C2087 0.950 . S
H2065 C2089 0.950 . S
H2066 C2090 0.950 . S
H2067 C2091 0.951 . S
H2068 C2093 0.951 . S
H2069 C2095 0.950 . S
H2070 C2096 0.950 . S
H2071 C2098 0.950 . S
H2072 C2101 0.950 . S
H2073 C2102 0.950 . S
H2074 C2104 0.950 . S
H2075 C2105 0.950 . S
C2076 H2058 0.951 . S
C2076 C2077 1.366 . S
C2076 C2078 1.388 . S
C2077 C2076 1.366 . S
C2077 C2081 1.385 . S
C2078 H2059 0.951 . S
C2078 C2076 1.388 . S
C2078 C2079 1.366 . S
C2079 C2078 1.366 . S
C2079 C2080 1.414 . S
C2079 C2082 1.499 . S
C2080 H2060 0.950 . S
C2080 C2079 1.414 . S
C2080 C2081 1.374 . S
C2081 H2061 0.950 . S
C2081 C2077 1.385 . S
C2081 C2080 1.374 . S
C2082 C2079 1.499 . S
C2082 C2083 1.373 . S
C2082 C2084 1.389 . S
C2083 H2062 0.950 . S
C2083 C2082 1.373 . S
C2083 C2099 1.377 . S
C2084 C2082 1.389 . S
C2084 C2085 1.524 . S
C2084 C2098 1.377 . S
C2085 C2084 1.524 . S
C2085 C2086 1.397 . S
C2085 C2090 1.363 . S
C2086 H2063 0.950 . S
C2086 C2085 1.397 . S
C2086 C2087 1.334 . S
C2087 H2064 0.950 . S
C2087 C2086 1.334 . S
C2087 C2088 1.287 . S
C2088 C2087 1.287 . S
C2088 C2089 1.524 . S
C2088 H2107 0.913 . S
C2089 H2065 0.950 . S
C2089 C2088 1.524 . S
C2089 C2090 1.415 . S
C2090 H2066 0.950 . S
C2090 C2085 1.363 . S
C2090 C2089 1.415 . S
C2091 H2067 0.951 . S
C2091 C2092 1.366 . S
C2091 C2093 1.388 . S
C2092 C2091 1.366 . S
C2092 C2096 1.385 . S
C2093 H2068 0.951 . S
C2093 C2091 1.388 . S
C2093 C2094 1.366 . S
C2094 C2093 1.366 . S
C2094 C2095 1.414 . S
C2094 C2097 1.499 . S
C2095 H2069 0.950 . S
C2095 C2094 1.414 . S
C2095 C2096 1.374 . S
C2096 H2070 0.950 . S
C2096 C2092 1.385 . S
C2096 C2095 1.374 . S
C2097 C2094 1.499 . S
C2097 C2098 1.373 . S
C2097 C2099 1.389 . S
C2098 H2071 0.950 . S
C2098 C2084 1.377 . S
C2098 C2097 1.373 . S
C2099 C2083 1.377 . S
C2099 C2097 1.389 . S
C2099 C2100 1.524 . S
C2100 C2099 1.524 . S
C2100 C2101 1.397 . S
C2100 C2105 1.363 . S
C2101 H2072 0.950 . S
C2101 C2100 1.397 . S
C2101 C2102 1.334 . S
C2102 H2073 0.950 . S
C2102 C2101 1.334 . S
C2102 C2103 1.287 . S
C2103 C2102 1.287 . S
C2103 C2104 1.524 . S
C2103 H2106 0.999 . S
C2104 H2074 0.950 . S
C2104 C2103 1.524 . S
C2104 C2105 1.415 . S
C2105 H2075 0.950 . S
C2105 C2100 1.363 . S
C2105 C2104 1.415 . S
H2106 C2103 0.999 . S
H2107 C2088 0.913 . S
H2108 C2126 0.951 . S
H2109 C2128 0.951 . S
H2110 C2130 0.950 . S
H2111 C2131 0.950 . S
H2112 C2133 0.950 . S
H2113 C2136 0.950 . S
H2114 C2137 0.950 . S
H2115 C2139 0.950 . S
H2116 C2140 0.950 . S
H2117 C2141 0.951 . S
H2118 C2143 0.951 . S
H2119 C2145 0.950 . S
H2120 C2146 0.950 . S
H2121 C2148 0.950 . S
H2122 C2151 0.950 . S
H2123 C2152 0.950 . S
H2124 C2154 0.950 . S
H2125 C2155 0.950 . S
C2126 H2108 0.951 . S
C2126 C2127 1.366 . S
C2126 C2128 1.388 . S
C2127 C2126 1.366 . S
C2127 C2131 1.385 . S
C2128 H2109 0.951 . S
C2128 C2126 1.388 . S
C2128 C2129 1.366 . S
C2129 C2128 1.366 . S
C2129 C2130 1.414 . S
C2129 C2132 1.499 . S
C2130 H2110 0.950 . S
C2130 C2129 1.414 . S
C2130 C2131 1.374 . S
C2131 H2111 0.950 . S
C2131 C2127 1.385 . S
C2131 C2130 1.374 . S
C2132 C2129 1.499 . S
C2132 C2133 1.373 . S
C2132 C2134 1.389 . S
C2133 H2112 0.950 . S
C2133 C2132 1.373 . S
C2133 C2149 1.377 . S
C2134 C2132 1.389 . S
C2134 C2135 1.524 . S
C2134 C2148 1.377 . S
C2135 C2134 1.524 . S
C2135 C2136 1.397 . S
C2135 C2140 1.363 . S
C2136 H2113 0.950 . S
C2136 C2135 1.397 . S
C2136 C2137 1.334 . S
C2137 H2114 0.950 . S
C2137 C2136 1.334 . S
C2137 C2138 1.287 . S
C2138 C2137 1.287 . S
C2138 C2139 1.524 . S
C2138 H2157 0.913 . S
C2139 H2115 0.950 . S
C2139 C2138 1.524 . S
C2139 C2140 1.415 . S
C2140 H2116 0.950 . S
C2140 C2135 1.363 . S
C2140 C2139 1.415 . S
C2141 H2117 0.951 . S
C2141 C2142 1.366 . S
C2141 C2143 1.388 . S
C2142 C2141 1.366 . S
C2142 C2146 1.385 . S
C2143 H2118 0.951 . S
C2143 C2141 1.388 . S
C2143 C2144 1.366 . S
C2144 C2143 1.366 . S
C2144 C2145 1.414 . S
C2144 C2147 1.499 . S
C2145 H2119 0.950 . S
C2145 C2144 1.414 . S
C2145 C2146 1.374 . S
C2146 H2120 0.950 . S
C2146 C2142 1.385 . S
C2146 C2145 1.374 . S
C2147 C2144 1.499 . S
C2147 C2148 1.373 . S
C2147 C2149 1.389 . S
C2148 H2121 0.950 . S
C2148 C2134 1.377 . S
C2148 C2147 1.373 . S
C2149 C2133 1.377 . S
C2149 C2147 1.389 . S
C2149 C2150 1.524 . S
C2150 C2149 1.524 . S
C2150 C2151 1.397 . S
C2150 C2155 1.363 . S
C2151 H2122 0.950 . S
C2151 C2150 1.397 . S
C2151 C2152 1.334 . S
C2152 H2123 0.950 . S
C2152 C2151 1.334 . S
C2152 C2153 1.287 . S
C2153 C2152 1.287 . S
C2153 C2154 1.524 . S
C2153 H2156 0.999 . S
C2154 H2124 0.950 . S
C2154 C2153 1.524 . S
C2154 C2155 1.415 . S
C2155 H2125 0.950 . S
C2155 C2150 1.363 . S
C2155 C2154 1.415 . S
H2156 C2153 0.999 . S
H2157 C2138 0.913 . S
H2158 C2176 0.951 . S
H2159 C2178 0.951 . S
H2160 C2180 0.950 . S
H2161 C2181 0.950 . S
H2162 C2183 0.950 . S
H2163 C2186 0.950 . S
H2164 C2187 0.950 . S
H2165 C2189 0.950 . S
H2166 C2190 0.950 . S
H2167 C2191 0.951 . S
H2168 C2193 0.951 . S
H2169 C2195 0.950 . S
H2170 C2196 0.950 . S
H2171 C2198 0.950 . S
H2172 C2201 0.950 . S
H2173 C2202 0.950 . S
H2174 C2204 0.950 . S
H2175 C2205 0.950 . S
C2176 H2158 0.951 . S
C2176 C2177 1.366 . S
C2176 C2178 1.388 . S
C2177 C2176 1.366 . S
C2177 C2181 1.385 . S
C2178 H2159 0.951 . S
C2178 C2176 1.388 . S
C2178 C2179 1.366 . S
C2179 C2178 1.366 . S
C2179 C2180 1.414 . S
C2179 C2182 1.499 . S
C2180 H2160 0.950 . S
C2180 C2179 1.414 . S
C2180 C2181 1.374 . S
C2181 H2161 0.950 . S
C2181 C2177 1.385 . S
C2181 C2180 1.374 . S
C2182 C2179 1.499 . S
C2182 C2183 1.373 . S
C2182 C2184 1.389 . S
C2183 H2162 0.950 . S
C2183 C2182 1.373 . S
C2183 C2199 1.377 . S
C2184 C2182 1.389 . S
C2184 C2185 1.524 . S
C2184 C2198 1.377 . S
C2185 C2184 1.524 . S
C2185 C2186 1.397 . S
C2185 C2190 1.363 . S
C2186 H2163 0.950 . S
C2186 C2185 1.397 . S
C2186 C2187 1.334 . S
C2187 H2164 0.950 . S
C2187 C2186 1.334 . S
C2187 C2188 1.287 . S
C2188 C2187 1.287 . S
C2188 C2189 1.524 . S
C2188 H2207 0.913 . S
C2189 H2165 0.950 . S
C2189 C2188 1.524 . S
C2189 C2190 1.415 . S
C2190 H2166 0.950 . S
C2190 C2185 1.363 . S
C2190 C2189 1.415 . S
C2191 H2167 0.951 . S
C2191 C2192 1.366 . S
C2191 C2193 1.388 . S
C2192 C2191 1.366 . S
C2192 C2196 1.385 . S
C2193 H2168 0.951 . S
C2193 C2191 1.388 . S
C2193 C2194 1.366 . S
C2194 C2193 1.366 . S
C2194 C2195 1.414 . S
C2194 C2197 1.499 . S
C2195 H2169 0.950 . S
C2195 C2194 1.414 . S
C2195 C2196 1.374 . S
C2196 H2170 0.950 . S
C2196 C2192 1.385 . S
C2196 C2195 1.374 . S
C2197 C2194 1.499 . S
C2197 C2198 1.373 . S
C2197 C2199 1.389 . S
C2198 H2171 0.950 . S
C2198 C2184 1.377 . S
C2198 C2197 1.373 . S
C2199 C2183 1.377 . S
C2199 C2197 1.389 . S
C2199 C2200 1.524 . S
C2200 C2199 1.524 . S
C2200 C2201 1.397 . S
C2200 C2205 1.363 . S
C2201 H2172 0.950 . S
C2201 C2200 1.397 . S
C2201 C2202 1.334 . S
C2202 H2173 0.950 . S
C2202 C2201 1.334 . S
C2202 C2203 1.287 . S
C2203 C2202 1.287 . S
C2203 C2204 1.524 . S
C2203 H2206 0.999 . S
C2204 H2174 0.950 . S
C2204 C2203 1.524 . S
C2204 C2205 1.415 . S
C2205 H2175 0.950 . S
C2205 C2200 1.363 . S
C2205 C2204 1.415 . S
H2206 C2203 0.999 . S
H2207 C2188 0.913 . S
C642 C518 1.366 . S
C627 C35 1.240 . S
C692 C532 1.366 . S
C677 C115 1.253 . S
C742 C547 1.359 . S
C727 C177 1.266 . S
C777 C221 1.239 . S
C792 C505 1.340 . S
C827 C283 1.226 . S
C842 C504 1.349 1_556 S
C877 C363 1.248 . S
C892 C519 1.340 . S
C942 C533 1.392 . S
C927 C407 1.284 . S
C992 C546 1.383 . S
C977 C469 1.257 . S
C1027 C159 1.231 . S
C1042 C574 1.353 . S
C1092 C588 1.400 . S
C1077 C239 1.282 . S
C1127 C53 1.252 . S
C1142 C603 1.344 . S
C1192 C560 1.333 . S
C1177 C97 1.213 . S
C1227 C425 1.262 . S
C1242 C561 1.356 . S
C1277 C487 1.263 . S
C1292 C575 1.355 . S
C1342 C589 1.359 . S
C1327 C301 1.268 . S
C1377 C345 1.269 . S
C1392 C602 1.396 . S
C1442 C527 1.901 . S
C1427 C29 1.876 . S
C1492 C545 1.845 . S
C1477 C109 1.842 . S
C1527 C171 1.840 . S
C1542 C503 1.847 . S
C1577 C215 1.885 . S
C1592 C513 1.910 . S
C1627 C277 1.874 . S
C1642 C541 1.898 . S
C1692 C499 1.903 . S
C1677 C357 1.848 . S
C1742 C517 1.844 . S
C1727 C401 1.870 . S
C1792 C531 1.848 . S
C1777 C463 1.874 . S
C1842 C583 1.898 . S
C1827 C153 1.874 . S
C1892 C601 1.840 . S
C1877 C233 1.841 . S
C1927 C47 1.841 . S
C1942 C555 1.895 . S
C1992 C569 1.895 . S
C1977 C91 1.871 . S
C2042 C597 1.912 . S
C2027 C419 1.857 . S
C2077 C481 1.848 . S
C2092 C559 1.856 . S
C2142 C573 1.850 . S
C2127 C295 1.844 . S
C2192 C587 1.850 . S
C2177 C339 1.876 . S
