# Generated by pormake.
# Topology rtl, (3,6)-cn, num edge types: 1
# Building blocks:
#     Node 0, Type 0, BuildingBlock: BETDIP_clean_linker_0, # of connection points: 3
#     Node 1, Type 0, BuildingBlock: BETDIP_clean_linker_0, # of connection points: 3
#     Node 2, Type 0, BuildingBlock: BETDIP_clean_linker_0, # of connection points: 3
#     Node 3, Type 0, BuildingBlock: BETDIP_clean_linker_0, # of connection points: 3
#     Node 4, Type 1, BuildingBlock: CIFDUS_clean_sbu_1, # of connection points: 6
#     Node 5, Type 1, BuildingBlock: CIFDUS_clean_sbu_1, # of connection points: 6
#     Edge 6, Type (0, 1), BuildingBlock: UVAHIK_clean_linker_0, # of connection points: 2
#     Edge 7, Type (0, 1), BuildingBlock: UVAHIK_clean_linker_0, # of connection points: 2
#     Edge 8, Type (0, 1), BuildingBlock: UVAHIK_clean_linker_0, # of connection points: 2
#     Edge 9, Type (0, 1), BuildingBlock: UVAHIK_clean_linker_0, # of connection points: 2
#     Edge 10, Type (0, 1), BuildingBlock: UVAHIK_clean_linker_0, # of connection points: 2
#     Edge 11, Type (0, 1), BuildingBlock: UVAHIK_clean_linker_0, # of connection points: 2
#     Edge 12, Type (0, 1), BuildingBlock: UVAHIK_clean_linker_0, # of connection points: 2
#     Edge 13, Type (0, 1), BuildingBlock: UVAHIK_clean_linker_0, # of connection points: 2
#     Edge 14, Type (0, 1), BuildingBlock: UVAHIK_clean_linker_0, # of connection points: 2
#     Edge 15, Type (0, 1), BuildingBlock: UVAHIK_clean_linker_0, # of connection points: 2
#     Edge 16, Type (0, 1), BuildingBlock: UVAHIK_clean_linker_0, # of connection points: 2
#     Edge 17, Type (0, 1), BuildingBlock: UVAHIK_clean_linker_0, # of connection points: 2
# Relax obj value: 0.017
# Max RMSD: 0.118
# Mean RMSD: 0.090
data_MOF--net-rtl--node1-CIFDUS_clean_sbu_1--node2-BETDIP_clean_linker_0--edge1-UVAHIK_clean_linker_0
_symmetry_space_group_name_H-M    P1
_symmetry_Int_Tables_number       1
_symmetry_cell_setting            triclinic
loop_
_symmetry_equiv_pos_as_xyz
'x, y, z'
_cell_length_a     46.07252
_cell_length_b     46.04075
_cell_length_c     28.857521
_cell_angle_alpha  90.967406
_cell_angle_beta   98.247979
_cell_angle_gamma 89.962392
loop_
_atom_site_label
_atom_site_type_symbol
_atom_site_fract_x
_atom_site_fract_y
_atom_site_fract_z
_atom_type_partial_charge
H0 H 0.21982 0.82413 0.00175 0.0
H1 H 0.22616 0.82691 0.15224 0.0
H2 H 0.16385 0.88104 0.06795 0.0
H3 H 0.2422 0.77918 0.14196 0.0
C4 C 0.25599 0.78145 0.11469 0.0
C5 C 0.21253 0.8327 0.03336 0.0
C6 C 0.19022 0.85352 0.03011 0.0
C7 C 0.22528 0.82249 0.07708 0.0
C8 C 0.21585 0.8339 0.11818 0.0
C9 C 0.19397 0.85551 0.11526 0.0
C10 C 0.18114 0.8649 0.0709 0.0
N11 N 0.24817 0.80161 0.07824 0.0
H12 H 0.71066 0.71765 0.66591 0.0
H13 H 0.69962 0.72449 0.51554 0.0
H14 H 0.65056 0.66118 0.57911 0.0
H15 H 0.74481 0.74145 0.52862 0.0
C16 C 0.7466 0.7541 0.56099 0.0
C17 C 0.70032 0.71046 0.63153 0.0
C18 C 0.67959 0.68776 0.62727 0.0
C19 C 0.7086 0.72327 0.59147 0.0
C20 C 0.69481 0.71399 0.5468 0.0
C21 C 0.67375 0.6917 0.54214 0.0
C22 C 0.66656 0.67862 0.58251 0.0
N23 N 0.73047 0.74555 0.59713 0.0
H24 H 0.79976 0.21404 0.91928 0.0
H25 H 0.80975 0.22177 0.06976 0.0
H26 H 0.8609 0.15951 0.00425 0.0
H27 H 0.79516 0.26759 0.0527 0.0
C28 C 0.77786 0.2649 0.02315 0.0
C29 C 0.81021 0.20729 0.95345 0.0
C30 C 0.83137 0.18511 0.95702 0.0
C31 C 0.80234 0.22084 0.99381 0.0
C32 C 0.81583 0.21186 0.0383 0.0
C33 C 0.83731 0.18998 0.04237 0.0
C34 C 0.84463 0.17664 0.00151 0.0
N35 N 0.78054 0.24301 0.98862 0.0
H36 H 0.28214 0.33574 0.41246 0.0
H37 H 0.28976 0.32628 0.5618 0.0
H38 H 0.3491 0.38244 0.50385 0.0
H39 H 0.27983 0.27724 0.53133 0.0
C40 C 0.2602 0.28251 0.50731 0.0
C41 C 0.29305 0.34126 0.44729 0.0
C42 C 0.31676 0.3609 0.45324 0.0
C43 C 0.28355 0.32826 0.48615 0.0
C44 C 0.2973 0.33576 0.53154 0.0
C45 C 0.32094 0.35534 0.53802 0.0
C46 C 0.33063 0.36758 0.49878 0.0
N47 N 0.26045 0.30742 0.47892 0.0
O48 O 0.9885 0.04225 0.48051 0.0
Mn49 Mn 0.0083 0.01566 0.53431 0.0
O50 O 0.96722 0.01253 0.42371 0.0
Mn51 Mn 0.97967 0.97951 0.45559 0.0
O52 O 0.02906 0.98962 0.58921 0.0
O53 O 0.0371 0.04921 0.55108 0.0
Mn54 Mn 0.04133 0.05348 0.61248 0.0
O55 O 0.97903 0.03302 0.57774 0.0
O56 O 0.05793 0.01998 0.63731 0.0
O57 O 0.03879 0.99889 0.492 0.0
O58 O 0.01509 0.96505 0.44503 0.0
O59 O 0.06474 0.08146 0.59402 0.0
O60 O 0.00555 0.06373 0.62869 0.0
C61 C 0.95865 0.96105 0.506 0.0
C62 C 0.97352 0.03777 0.4401 0.0
C63 C 0.04909 0.99457 0.6245 0.0
C64 C 0.05535 0.07095 0.55269 0.0
C65 C 0.98136 0.05209 0.61132 0.0
C66 C 0.03851 0.97791 0.46195 0.0
O67 O 0.97787 0.9822 0.517 0.0
O68 O 0.9527 0.95294 0.46241 0.0
O69 O 0.52477 0.54238 0.09529 0.0
Mn70 Mn 0.50561 0.51523 0.0405 0.0
O71 O 0.54566 0.5126 0.15168 0.0
Mn72 Mn 0.53492 0.47813 0.12001 0.0
O73 O 0.48619 0.48699 0.98617 0.0
O74 O 0.47628 0.5479 0.02186 0.0
Mn75 Mn 0.47172 0.54851 0.95997 0.0
O76 O 0.53489 0.53201 0.99785 0.0
O77 O 0.45499 0.51402 0.93795 0.0
O78 O 0.47555 0.49888 0.08287 0.0
O79 O 0.49868 0.4637 0.12634 0.0
O80 O 0.44825 0.57755 0.97583 0.0
O81 O 0.50739 0.55774 0.94216 0.0
C82 C 0.55653 0.46392 0.06446 0.0
C83 C 0.53941 0.53782 0.13586 0.0
C84 C 0.46542 0.48963 0.95159 0.0
C85 C 0.45795 0.56965 0.01808 0.0
C86 C 0.53202 0.54845 0.96183 0.0
C87 C 0.47557 0.47739 0.11086 0.0
O88 O 0.536 0.48362 0.05971 0.0
O89 O 0.56295 0.4532 0.10588 0.0
C90 C 0.20737 0.26777 0.48285 0.0
C91 C 0.23664 0.26043 0.49889 0.0
C92 C 0.18535 0.24636 0.47841 0.0
C93 C 0.17302 0.17043 0.51729 0.0
H94 H 0.10218 0.17445 0.4272 0.0
C95 C 0.09342 0.0762 0.50229 0.0
C96 C 0.06576 0.08462 0.51255 0.0
C97 C 0.1124 0.09677 0.48768 0.0
C98 C 0.12198 0.173 0.45228 0.0
H99 H 0.26616 0.22518 0.52082 0.0
H100 H 0.22874 0.18779 0.51008 0.0
H101 H 0.13932 0.2127 0.42967 0.0
H102 H 0.03498 0.1202 0.51064 0.0
H103 H 0.06766 0.15592 0.48359 0.0
H104 H 0.15597 0.1307 0.53945 0.0
C105 C 0.22201 0.21 0.50318 0.0
C106 C 0.1432 0.19508 0.45412 0.0
C107 C 0.24368 0.23141 0.50886 0.0
C108 C 0.05592 0.11295 0.50177 0.0
C109 C 0.07483 0.13354 0.4869 0.0
C110 C 0.15224 0.14825 0.51476 0.0
C111 C 0.19234 0.21712 0.48897 0.0
C112 C 0.16916 0.19405 0.4866 0.0
C113 C 0.10394 0.12607 0.48285 0.0
C114 C 0.12652 0.14913 0.48219 0.0
H115 H 0.20138 0.29012 0.47523 0.0
H116 H 0.16285 0.25295 0.46789 0.0
H117 H 0.19193 0.16914 0.54414 0.0
H118 H 0.10182 0.05473 0.51139 0.0
H119 H 0.13461 0.09029 0.48419 0.0
C120 C 0.30152 0.76481 0.08308 0.0
C121 C 0.27993 0.76019 0.11193 0.0
C122 C 0.32392 0.74445 0.08089 0.0
C123 C 0.3582 0.67788 0.14098 0.0
H124 H 0.39142 0.66956 0.02553 0.0
C125 C 0.42476 0.57951 0.07678 0.0
C126 C 0.44962 0.5874 0.0568 0.0
C127 C 0.40714 0.601 0.09373 0.0
C128 C 0.38249 0.67181 0.05815 0.0
H129 H 0.26464 0.7307 0.16071 0.0
H130 H 0.30245 0.69444 0.1551 0.0
H131 H 0.35357 0.70561 0.0312 0.0
H132 H 0.47676 0.62343 0.04204 0.0
H133 H 0.44624 0.66075 0.07165 0.0
H134 H 0.38632 0.64251 0.16635 0.0
C135 C 0.30309 0.71415 0.1354 0.0
C136 C 0.36084 0.6927 0.06165 0.0
C137 C 0.28112 0.73483 0.13835 0.0
C138 C 0.45815 0.61671 0.05842 0.0
C139 C 0.44041 0.63813 0.07459 0.0
C140 C 0.3794 0.65645 0.13696 0.0
C141 C 0.32496 0.71859 0.1067 0.0
C142 C 0.34836 0.69624 0.10321 0.0
C143 C 0.41398 0.63057 0.09015 0.0
C144 C 0.39188 0.65339 0.09563 0.0
H145 H 0.30135 0.78432 0.06259 0.0
H146 H 0.34054 0.74927 0.05919 0.0
H147 H 0.34979 0.68009 0.17397 0.0
H148 H 0.4172 0.55718 0.07455 0.0
H149 H 0.38678 0.59465 0.10542 0.0
C150 C 0.77405 0.79491 0.60851 0.0
C151 C 0.76721 0.77909 0.56623 0.0
C152 C 0.79409 0.81813 0.61186 0.0
C153 C 0.82819 0.86993 0.53842 0.0
H154 H 0.89233 0.87427 0.64127 0.0
C155 C 0.94482 0.91434 0.53615 0.0
C156 C 0.94381 0.94483 0.53947 0.0
C157 C 0.92304 0.8973 0.5511 0.0
C158 C 0.87417 0.87364 0.61292 0.0
H159 H 0.77578 0.77514 0.49459 0.0
H160 H 0.8104 0.8154 0.50025 0.0
H161 H 0.85315 0.83821 0.64248 0.0
H162 H 0.91987 0.98134 0.56298 0.0
H163 H 0.8815 0.95118 0.59 0.0
H164 H 0.84986 0.90457 0.5081 0.0
C165 C 0.80026 0.81023 0.53073 0.0
C166 C 0.85178 0.85304 0.61352 0.0
C167 C 0.78056 0.78701 0.52755 0.0
C168 C 0.92165 0.9579 0.56134 0.0
C169 C 0.89955 0.94071 0.57612 0.0
C170 C 0.85033 0.89067 0.53814 0.0
C171 C 0.80732 0.82612 0.57285 0.0
C172 C 0.82894 0.85042 0.57562 0.0
C173 C 0.89965 0.91035 0.56957 0.0
C174 C 0.87377 0.89234 0.57494 0.0
H175 H 0.76412 0.78928 0.63898 0.0
H176 H 0.79903 0.82998 0.64478 0.0
H177 H 0.81081 0.86868 0.50888 0.0
H178 H 0.96109 0.90377 0.51804 0.0
H179 H 0.92329 0.87401 0.545 0.0
C180 C 0.72917 0.2836 0.98298 0.0
C181 C 0.75376 0.28647 0.01772 0.0
C182 C 0.70663 0.30434 0.97957 0.0
C183 C 0.67819 0.36482 0.04909 0.0
H184 H 0.6342 0.38592 0.92956 0.0
C185 C 0.60448 0.46331 0.03805 0.0
C186 C 0.57481 0.45518 0.02898 0.0
C187 C 0.62623 0.4447 0.02587 0.0
C188 C 0.64642 0.3802 0.96306 0.0
H189 H 0.77428 0.31326 0.07553 0.0
H190 H 0.73608 0.34981 0.06861 0.0
H191 H 0.67227 0.34843 0.9324 0.0
H192 H 0.54441 0.42283 0.99568 0.0
H193 H 0.5825 0.39082 0.97206 0.0
H194 H 0.653 0.39715 0.07945 0.0
C195 C 0.73334 0.33129 0.04478 0.0
C196 C 0.66805 0.35856 0.96489 0.0
C197 C 0.75551 0.31045 0.04855 0.0
C198 C 0.56706 0.42999 0.00191 0.0
C199 C 0.58888 0.41148 0.98902 0.0
C200 C 0.65714 0.38673 0.04709 0.0
C201 C 0.70836 0.3285 0.01058 0.0
C202 C 0.68444 0.35071 0.00799 0.0
C203 C 0.61864 0.41785 0.00367 0.0
C204 C 0.6412 0.3948 0.00412 0.0
H205 H 0.72716 0.26521 0.95883 0.0
H206 H 0.68767 0.30113 0.95314 0.0
H207 H 0.6894 0.35888 0.08316 0.0
H208 H 0.61109 0.48219 0.05998 0.0
H209 H 0.64903 0.45012 0.03747 0.0
C210 C 0.17738 0.85172 0.19455 0.0
C211 C 0.18438 0.86888 0.15788 0.0
C212 C 0.16565 0.86447 0.23229 0.0
C213 C 0.12694 0.93152 0.26336 0.0
H214 H 0.1441 0.90295 0.38989 0.0
C215 C 0.07883 0.98778 0.41513 0.0
C216 C 0.06508 0.96881 0.44273 0.0
C217 C 0.09765 0.97682 0.3849 0.0
C218 C 0.13907 0.91116 0.35471 0.0
H219 H 0.18621 0.91301 0.13343 0.0
H220 H 0.16647 0.93521 0.19924 0.0
H221 H 0.16804 0.88083 0.32782 0.0
H222 H 0.06113 0.924 0.46235 0.0
H223 H 0.09449 0.90497 0.41093 0.0
H224 H 0.09783 0.96166 0.2901 0.0
C225 C 0.16904 0.91184 0.19841 0.0
C226 C 0.15268 0.89837 0.31903 0.0
C227 C 0.18053 0.89912 0.16071 0.0
C228 C 0.07196 0.9391 0.44203 0.0
C229 C 0.09098 0.92821 0.41239 0.0
C230 C 0.1135 0.94438 0.29902 0.0
C231 C 0.16089 0.89469 0.23433 0.0
C232 C 0.14676 0.90835 0.2728 0.0
C233 C 0.1032 0.94676 0.38214 0.0
C234 C 0.11931 0.93434 0.34514 0.0
H235 H 0.17994 0.82835 0.19319 0.0
H236 H 0.15944 0.85049 0.25904 0.0
H237 H 0.12122 0.93939 0.22808 0.0
H238 H 0.0733 0.01066 0.41427 0.0
H239 H 0.10694 0.99172 0.36233 0.0
C240 C 0.66914 0.64267 0.66943 0.0
C241 C 0.67109 0.67314 0.66887 0.0
C242 C 0.65819 0.62869 0.70588 0.0
C243 C 0.61092 0.64204 0.79709 0.0
H244 H 0.64172 0.56813 0.84446 0.0
C245 C 0.56514 0.58849 0.94867 0.0
C246 C 0.55778 0.559 0.94253 0.0
C247 C 0.58298 0.60167 0.91987 0.0
C248 C 0.63279 0.58868 0.83142 0.0
H249 H 0.66371 0.71283 0.70671 0.0
H250 H 0.64497 0.68842 0.77109 0.0
H251 H 0.66514 0.59316 0.78558 0.0
H252 H 0.56363 0.51984 0.90254 0.0
H253 H 0.59526 0.54278 0.85208 0.0
H254 H 0.57843 0.6375 0.84242 0.0
C255 C 0.6516 0.67532 0.74293 0.0
C256 C 0.64618 0.60303 0.79762 0.0
C257 C 0.66268 0.68932 0.7064 0.0
C258 C 0.56977 0.54244 0.90872 0.0
C259 C 0.58766 0.55567 0.87969 0.0
C260 C 0.59764 0.62776 0.8309 0.0
C261 C 0.64888 0.64482 0.74281 0.0
C262 C 0.63539 0.62991 0.77999 0.0
C263 C 0.59354 0.58571 0.88384 0.0
C264 C 0.60841 0.60093 0.84859 0.0
H265 H 0.67563 0.6296 0.64108 0.0
H266 H 0.65615 0.60525 0.70426 0.0
H267 H 0.60154 0.6623 0.78357 0.0
H268 H 0.55558 0.60177 0.9739 0.0
H269 H 0.58747 0.62471 0.92454 0.0
C270 C 0.83685 0.17682 0.1269 0.0
C271 C 0.8524 0.18071 0.08888 0.0
C272 C 0.85089 0.16543 0.16901 0.0
C273 C 0.91139 0.11732 0.2108 0.0
H274 H 0.90597 0.14847 0.33494 0.0
C275 C 0.97845 0.06619 0.36999 0.0
C276 C 0.96445 0.06213 0.40937 0.0
C277 C 0.96625 0.08447 0.33435 0.0
C278 C 0.90747 0.13933 0.30055 0.0
H279 H 0.89539 0.17762 0.06666 0.0
H280 H 0.91946 0.15715 0.13932 0.0
H281 H 0.88053 0.1729 0.26596 0.0
H282 H 0.92739 0.07421 0.44365 0.0
H283 H 0.90546 0.10595 0.38085 0.0
H284 H 0.9373 0.08331 0.24448 0.0
C285 C 0.89638 0.16255 0.13638 0.0
C286 C 0.89294 0.15336 0.26113 0.0
C287 C 0.88252 0.17416 0.09469 0.0
C288 C 0.93874 0.07755 0.41378 0.0
C289 C 0.92624 0.09564 0.37776 0.0
C290 C 0.92556 0.10316 0.24998 0.0
C291 C 0.88063 0.15754 0.17363 0.0
C292 C 0.89506 0.14261 0.21589 0.0
C293 C 0.93935 0.09854 0.33684 0.0
C294 C 0.92412 0.11411 0.29543 0.0
H295 H 0.81361 0.18149 0.12355 0.0
H296 H 0.83823 0.16168 0.19721 0.0
H297 H 0.91291 0.10823 0.17636 0.0
H298 H 0.99819 0.05418 0.36584 0.0
H299 H 0.97741 0.08674 0.30405 0.0
C300 C 0.36635 0.36204 0.59627 0.0
C301 C 0.33566 0.36333 0.58562 0.0
C302 C 0.38049 0.37132 0.64013 0.0
C303 C 0.37018 0.42041 0.73788 0.0
H304 H 0.43624 0.3792 0.80525 0.0
C305 C 0.42195 0.46156 0.91756 0.0
C306 C 0.45259 0.46429 0.92459 0.0
C307 C 0.40784 0.4446 0.88066 0.0
C308 C 0.41794 0.39102 0.78671 0.0
H309 H 0.29561 0.37505 0.61241 0.0
H310 H 0.32028 0.39146 0.68917 0.0
H311 H 0.41094 0.35907 0.73127 0.0
H312 H 0.49277 0.45028 0.90058 0.0
H313 H 0.46807 0.42032 0.83551 0.0
H314 H 0.37736 0.45264 0.79234 0.0
C315 C 0.33344 0.38325 0.66361 0.0
C316 C 0.40346 0.37951 0.74437 0.0
C317 C 0.31929 0.37365 0.6199 0.0
C318 C 0.46913 0.44797 0.89634 0.0
C319 C 0.45493 0.43104 0.85893 0.0
C320 C 0.38465 0.43191 0.77998 0.0
C321 C 0.36423 0.38239 0.6741 0.0
C322 C 0.37937 0.39407 0.71956 0.0
C323 C 0.42405 0.4303 0.84947 0.0
C324 C 0.40862 0.41732 0.8051 0.0
H325 H 0.37945 0.35405 0.57045 0.0
H326 H 0.40421 0.37062 0.64694 0.0
H327 H 0.35216 0.43251 0.71914 0.0
H328 H 0.40877 0.47423 0.9387 0.0
H329 H 0.38409 0.44395 0.87511 0.0
C330 C 0.67522 0.67652 0.45824 0.0
C331 C 0.65908 0.68167 0.49538 0.0
C332 C 0.66158 0.66447 0.41575 0.0
C333 C 0.5982 0.61897 0.36957 0.0
H334 H 0.61257 0.6447 0.24764 0.0
C335 C 0.53323 0.56977 0.20327 0.0
C336 C 0.54924 0.56231 0.1671 0.0
C337 C 0.54561 0.58781 0.24022 0.0
C338 C 0.6085 0.63712 0.28144 0.0
H339 H 0.61568 0.67993 0.51604 0.0
H340 H 0.59203 0.6589 0.4423 0.0
H341 H 0.63708 0.66924 0.31844 0.0
H342 H 0.59023 0.5678 0.14005 0.0
H343 H 0.61218 0.59936 0.20477 0.0
H344 H 0.57026 0.58653 0.33324 0.0
C345 C 0.6153 0.66357 0.44624 0.0
C346 C 0.62255 0.65117 0.32194 0.0
C347 C 0.62885 0.67563 0.48848 0.0
C348 C 0.57733 0.57397 0.16721 0.0
C349 C 0.58985 0.59192 0.20434 0.0
C350 C 0.58434 0.60488 0.32927 0.0
C351 C 0.63158 0.65734 0.40971 0.0
C352 C 0.61733 0.64237 0.36642 0.0
C353 C 0.57446 0.59831 0.24203 0.0
C354 C 0.58909 0.61389 0.28465 0.0
H355 H 0.69858 0.68077 0.46261 0.0
H356 H 0.67472 0.65976 0.38829 0.0
H357 H 0.59425 0.61123 0.40336 0.0
H358 H 0.5117 0.56048 0.20411 0.0
H359 H 0.53293 0.5927 0.2682 0.0
C360 C 0.84338 0.14047 0.91268 0.0
C361 C 0.84049 0.17084 0.91485 0.0
C362 C 0.85493 0.127 0.87562 0.0
C363 C 0.90235 0.14213 0.78606 0.0
H364 H 0.87271 0.06825 0.73241 0.0
C365 C 0.94884 0.09181 0.62975 0.0
C366 C 0.95562 0.06212 0.63181 0.0
C367 C 0.93132 0.10429 0.66033 0.0
C368 C 0.88138 0.08876 0.74724 0.0
H369 H 0.8469 0.2109 0.87936 0.0
H370 H 0.86675 0.18737 0.81403 0.0
H371 H 0.84886 0.09198 0.79322 0.0
H372 H 0.94906 0.02193 0.66657 0.0
H373 H 0.91809 0.04365 0.72031 0.0
H374 H 0.93507 0.13884 0.74074 0.0
C375 C 0.86034 0.17396 0.84132 0.0
C376 C 0.86772 0.10239 0.78212 0.0
C377 C 0.84864 0.18743 0.8784 0.0
C378 C 0.94334 0.04471 0.6634 0.0
C379 C 0.92585 0.05725 0.69439 0.0
C380 C 0.91598 0.12853 0.75127 0.0
C381 C 0.86396 0.14358 0.83978 0.0
C382 C 0.87799 0.12929 0.8019 0.0
C383 C 0.92052 0.08742 0.69428 0.0
C384 C 0.90561 0.10174 0.73119 0.0
H385 H 0.83714 0.12711 0.94021 0.0
H386 H 0.85763 0.10363 0.87589 0.0
H387 H 0.91132 0.16245 0.80123 0.0
H388 H 0.95861 0.10575 0.6063 0.0
H389 H 0.92721 0.12743 0.65855 0.0
C390 C 0.33151 0.3575 0.37253 0.0
C391 C 0.3277 0.37426 0.41239 0.0
C392 C 0.34408 0.36973 0.33594 0.0
C393 C 0.39101 0.4318 0.31208 0.0
H394 H 0.36584 0.41041 0.18201 0.0
C395 C 0.43876 0.48853 0.16355 0.0
C396 C 0.44925 0.46956 0.13126 0.0
C397 C 0.42042 0.47815 0.19435 0.0
C398 C 0.37312 0.41655 0.2182 0.0
H399 H 0.33274 0.41737 0.44392 0.0
H400 H 0.35424 0.43872 0.38023 0.0
H401 H 0.34109 0.38941 0.24305 0.0
H402 H 0.44821 0.42538 0.10438 0.0
H403 H 0.41528 0.40743 0.15674 0.0
H404 H 0.42304 0.45887 0.28727 0.0
C405 C 0.34831 0.41593 0.37759 0.0
C406 C 0.35905 0.40441 0.25324 0.0
C407 C 0.33587 0.40371 0.41412 0.0
C408 C 0.43974 0.44054 0.12825 0.0
C409 C 0.42106 0.43026 0.15844 0.0
C410 C 0.4049 0.44406 0.27709 0.0
C411 C 0.35302 0.39904 0.3383 0.0
C412 C 0.3678 0.4119 0.30068 0.0
C413 C 0.41205 0.44869 0.19298 0.0
C414 C 0.39613 0.43662 0.22973 0.0
H415 H 0.32571 0.33468 0.37032 0.0
H416 H 0.34761 0.35596 0.30649 0.0
H417 H 0.39889 0.43757 0.34823 0.0
H418 H 0.44652 0.51078 0.16741 0.0
H419 H 0.41368 0.4929 0.22041 0.0
C420 C 0.18688 0.88845 0.96466 0.0
C421 C 0.1762 0.8637 0.98416 0.0
C422 C 0.17238 0.89937 0.92271 0.0
C423 C 0.11673 0.88074 0.81924 0.0
H424 H 0.11413 0.96446 0.80732 0.0
C425 C 0.04671 0.94892 0.67081 0.0
C426 C 0.06312 0.97087 0.65335 0.0
C427 C 0.05964 0.93185 0.70821 0.0
C428 C 0.11472 0.94102 0.81015 0.0
H429 H 0.1424 0.83073 0.97597 0.0
H430 H 0.11655 0.84999 0.90283 0.0
H431 H 0.13821 0.94338 0.87941 0.0
H432 H 0.10623 0.9905 0.65802 0.0
H433 H 0.1285 0.96095 0.72247 0.0
H434 H 0.09253 0.87885 0.74968 0.0
C435 C 0.13638 0.86075 0.91917 0.0
C436 C 0.12873 0.92889 0.85134 0.0
C437 C 0.15103 0.84976 0.96106 0.0
C438 C 0.09302 0.97384 0.67105 0.0
C439 C 0.10576 0.95708 0.70812 0.0
C440 C 0.10233 0.89299 0.77803 0.0
C441 C 0.14668 0.88591 0.89966 0.0
C442 C 0.13045 0.89857 0.85622 0.0
C443 C 0.08896 0.93677 0.72835 0.0
C444 C 0.10172 0.92323 0.77287 0.0
H445 H 0.20624 0.89951 0.98221 0.0
H446 H 0.18134 0.91843 0.9084 0.0
H447 H 0.11775 0.85731 0.82158 0.0
H448 H 0.02355 0.94644 0.65806 0.0
H449 H 0.0463 0.91622 0.72327 0.0
loop_
_geom_bond_atom_site_label_1
_geom_bond_atom_site_label_2
_geom_bond_distance
_geom_bond_site_symmetry_2
_ccdc_geom_bond_type
H0 C5 0.930 . S
H1 C8 0.930 . S
H2 C10 0.930 . S
H3 C4 1.016 . S
C4 H3 1.016 . S
C4 N11 1.286 . S
C5 H0 0.930 . S
C5 C6 1.397 . S
C5 C7 1.361 . S
C6 C5 1.397 . S
C6 C10 1.390 . S
C7 C5 1.361 . S
C7 C8 1.393 . S
C7 N11 1.413 . S
C8 H1 0.930 . S
C8 C7 1.393 . S
C8 C9 1.399 . S
C9 C8 1.399 . S
C9 C10 1.381 . S
C10 H2 0.930 . S
C10 C6 1.390 . S
C10 C9 1.381 . S
N11 C4 1.286 . S
N11 C7 1.413 . S
H12 C17 0.930 . S
H13 C20 0.930 . S
H14 C22 0.930 . S
H15 C16 1.016 . S
C16 H15 1.016 . S
C16 N23 1.286 . S
C17 H12 0.930 . S
C17 C18 1.397 . S
C17 C19 1.361 . S
C18 C17 1.397 . S
C18 C22 1.390 . S
C19 C17 1.361 . S
C19 C20 1.393 . S
C19 N23 1.413 . S
C20 H13 0.930 . S
C20 C19 1.393 . S
C20 C21 1.399 . S
C21 C20 1.399 . S
C21 C22 1.381 . S
C22 H14 0.930 . S
C22 C18 1.390 . S
C22 C21 1.381 . S
N23 C16 1.286 . S
N23 C19 1.413 . S
H24 C29 0.930 . S
H25 C32 0.930 . S
H26 C34 0.930 . S
H27 C28 1.016 . S
C28 H27 1.016 . S
C28 N35 1.286 1_554 S
C29 H24 0.930 . S
C29 C30 1.397 . S
C29 C31 1.361 . S
C30 C29 1.397 . S
C30 C34 1.390 1_556 S
C31 C29 1.361 . S
C31 C32 1.393 1_556 S
C31 N35 1.413 . S
C32 H25 0.930 . S
C32 C31 1.393 1_554 S
C32 C33 1.399 . S
C33 C32 1.399 . S
C33 C34 1.381 . S
C34 H26 0.930 . S
C34 C30 1.390 1_554 S
C34 C33 1.381 . S
N35 C28 1.286 1_556 S
N35 C31 1.413 . S
H36 C41 0.930 . S
H37 C44 0.930 . S
H38 C46 0.930 . S
H39 C40 1.016 . S
C40 H39 1.016 . S
C40 N47 1.286 . S
C41 H36 0.930 . S
C41 C42 1.397 . S
C41 C43 1.361 . S
C42 C41 1.397 . S
C42 C46 1.390 . S
C43 C41 1.361 . S
C43 C44 1.393 . S
C43 N47 1.413 . S
C44 H37 0.930 . S
C44 C43 1.393 . S
C44 C45 1.399 . S
C45 C44 1.399 . S
C45 C46 1.381 . S
C46 H38 0.930 . S
C46 C42 1.390 . S
C46 C45 1.381 . S
N47 C40 1.286 . S
N47 C43 1.413 . S
O48 Mn49 2.163 1_655 S
O48 C62 1.244 . S
Mn49 O48 2.163 1_455 S
Mn49 O52 2.160 1_545 S
Mn49 O53 2.221 . S
Mn49 O55 2.163 1_455 S
Mn49 O57 2.160 1_545 S
Mn49 O67 2.221 1_445 S
O50 Mn51 2.087 1_545 S
O50 C62 1.256 . S
Mn51 O50 2.087 1_565 S
Mn51 O58 2.089 1_655 S
Mn51 O67 2.290 . S
Mn51 O68 2.251 . S
O52 Mn49 2.160 1_565 S
O52 C63 1.239 . S
O53 Mn49 2.221 . S
O53 Mn54 2.290 . S
O53 C64 1.278 . S
Mn54 O53 2.290 . S
Mn54 O56 2.089 . S
Mn54 O59 2.251 . S
Mn54 O60 2.087 . S
O55 Mn49 2.163 1_655 S
O55 C65 1.244 . S
O56 Mn54 2.089 . S
O56 C63 1.256 1_545 S
O57 Mn49 2.160 1_565 S
O57 C66 1.239 . S
O58 Mn51 2.089 1_455 S
O58 C66 1.256 . S
O59 Mn54 2.251 . S
O59 C64 1.241 . S
O60 Mn54 2.087 . S
O60 C65 1.256 1_455 S
C61 O67 1.278 . S
C61 O68 1.241 . S
C62 O48 1.244 . S
C62 O50 1.256 . S
C63 O52 1.239 . S
C63 O56 1.256 1_565 S
C64 O53 1.278 . S
C64 O59 1.241 . S
C65 O55 1.244 . S
C65 O60 1.256 1_655 S
C66 O57 1.239 . S
C66 O58 1.256 . S
O67 Mn49 2.221 1_665 S
O67 Mn51 2.290 . S
O67 C61 1.278 . S
O68 Mn51 2.251 . S
O68 C61 1.241 . S
O69 Mn70 2.163 . S
O69 C83 1.244 . S
Mn70 O69 2.163 . S
Mn70 O73 2.160 1_554 S
Mn70 O74 2.221 . S
Mn70 O76 2.163 1_554 S
Mn70 O78 2.160 . S
Mn70 O88 2.221 . S
O71 Mn72 2.087 . S
O71 C83 1.256 . S
Mn72 O71 2.087 . S
Mn72 O79 2.089 . S
Mn72 O88 2.290 . S
Mn72 O89 2.251 . S
O73 Mn70 2.160 1_556 S
O73 C84 1.239 . S
O74 Mn70 2.221 . S
O74 Mn75 2.290 1_554 S
O74 C85 1.278 . S
Mn75 O74 2.290 1_556 S
Mn75 O77 2.089 . S
Mn75 O80 2.251 1_556 S
Mn75 O81 2.087 . S
O76 Mn70 2.163 1_556 S
O76 C86 1.244 . S
O77 Mn75 2.089 . S
O77 C84 1.256 . S
O78 Mn70 2.160 . S
O78 C87 1.239 . S
O79 Mn72 2.089 . S
O79 C87 1.256 . S
O80 Mn75 2.251 1_554 S
O80 C85 1.241 . S
O81 Mn75 2.087 . S
O81 C86 1.256 . S
C82 O88 1.278 . S
C82 O89 1.241 . S
C83 O69 1.244 . S
C83 O71 1.256 . S
C84 O73 1.239 . S
C84 O77 1.256 . S
C85 O74 1.278 . S
C85 O80 1.241 . S
C86 O76 1.244 . S
C86 O81 1.256 . S
C87 O78 1.239 . S
C87 O79 1.256 . S
O88 Mn70 2.221 . S
O88 Mn72 2.290 . S
O88 C82 1.278 . S
O89 Mn72 2.251 . S
O89 C82 1.241 . S
C90 C91 1.349 . S
C90 C92 1.327 . S
C90 H115 0.950 . S
C91 C90 1.349 . S
C91 C107 1.349 . S
C92 C90 1.327 . S
C92 C111 1.429 . S
C92 H116 0.950 . S
C93 C110 1.574 . S
C93 C112 1.368 . S
C93 H117 0.949 . S
H94 C98 0.949 . S
C95 C96 1.349 . S
C95 C97 1.327 . S
C95 H118 0.950 . S
C96 C95 1.349 . S
C96 C108 1.349 . S
C97 C95 1.327 . S
C97 C113 1.429 . S
C97 H119 0.950 . S
C98 H94 0.949 . S
C98 C106 1.574 . S
C98 C114 1.368 . S
H99 C107 0.950 . S
H100 C105 0.950 . S
H101 C106 0.949 . S
H102 C108 0.950 . S
H103 C109 0.950 . S
H104 C110 0.949 . S
C105 H100 0.950 . S
C105 C107 1.327 . S
C105 C111 1.429 . S
C106 C98 1.574 . S
C106 H101 0.949 . S
C106 C112 1.368 . S
C107 C91 1.349 . S
C107 H99 0.950 . S
C107 C105 1.327 . S
C108 C96 1.349 . S
C108 H102 0.950 . S
C108 C109 1.327 . S
C109 H103 0.950 . S
C109 C108 1.327 . S
C109 C113 1.429 . S
C110 C93 1.574 . S
C110 H104 0.949 . S
C110 C114 1.368 . S
C111 C92 1.429 . S
C111 C105 1.429 . S
C111 C112 1.523 . S
C112 C93 1.368 . S
C112 C106 1.368 . S
C112 C111 1.523 . S
C113 C97 1.429 . S
C113 C109 1.429 . S
C113 C114 1.523 . S
C114 C98 1.368 . S
C114 C110 1.368 . S
C114 C113 1.523 . S
H115 C90 0.950 . S
H116 C92 0.950 . S
H117 C93 0.949 . S
H118 C95 0.950 . S
H119 C97 0.950 . S
C120 C121 1.349 . S
C120 C122 1.327 . S
C120 H145 0.950 . S
C121 C120 1.349 . S
C121 C137 1.349 . S
C122 C120 1.327 . S
C122 C141 1.429 . S
C122 H146 0.950 . S
C123 C140 1.574 . S
C123 C142 1.368 . S
C123 H147 0.949 . S
H124 C128 0.949 . S
C125 C126 1.349 . S
C125 C127 1.327 . S
C125 H148 0.950 . S
C126 C125 1.349 . S
C126 C138 1.349 . S
C127 C125 1.327 . S
C127 C143 1.429 . S
C127 H149 0.950 . S
C128 H124 0.949 . S
C128 C136 1.574 . S
C128 C144 1.368 . S
H129 C137 0.950 . S
H130 C135 0.950 . S
H131 C136 0.949 . S
H132 C138 0.950 . S
H133 C139 0.950 . S
H134 C140 0.949 . S
C135 H130 0.950 . S
C135 C137 1.327 . S
C135 C141 1.429 . S
C136 C128 1.574 . S
C136 H131 0.949 . S
C136 C142 1.368 . S
C137 C121 1.349 . S
C137 H129 0.950 . S
C137 C135 1.327 . S
C138 C126 1.349 . S
C138 H132 0.950 . S
C138 C139 1.327 . S
C139 H133 0.950 . S
C139 C138 1.327 . S
C139 C143 1.429 . S
C140 C123 1.574 . S
C140 H134 0.949 . S
C140 C144 1.368 . S
C141 C122 1.429 . S
C141 C135 1.429 . S
C141 C142 1.523 . S
C142 C123 1.368 . S
C142 C136 1.368 . S
C142 C141 1.523 . S
C143 C127 1.429 . S
C143 C139 1.429 . S
C143 C144 1.523 . S
C144 C128 1.368 . S
C144 C140 1.368 . S
C144 C143 1.523 . S
H145 C120 0.950 . S
H146 C122 0.950 . S
H147 C123 0.949 . S
H148 C125 0.950 . S
H149 C127 0.950 . S
C150 C151 1.349 . S
C150 C152 1.327 . S
C150 H175 0.950 . S
C151 C150 1.349 . S
C151 C167 1.349 . S
C152 C150 1.327 . S
C152 C171 1.429 . S
C152 H176 0.950 . S
C153 C170 1.574 . S
C153 C172 1.368 . S
C153 H177 0.949 . S
H154 C158 0.949 . S
C155 C156 1.349 . S
C155 C157 1.327 . S
C155 H178 0.950 . S
C156 C155 1.349 . S
C156 C168 1.349 . S
C157 C155 1.327 . S
C157 C173 1.429 . S
C157 H179 0.950 . S
C158 H154 0.949 . S
C158 C166 1.574 . S
C158 C174 1.368 . S
H159 C167 0.950 . S
H160 C165 0.950 . S
H161 C166 0.949 . S
H162 C168 0.950 . S
H163 C169 0.950 . S
H164 C170 0.949 . S
C165 H160 0.950 . S
C165 C167 1.327 . S
C165 C171 1.429 . S
C166 C158 1.574 . S
C166 H161 0.949 . S
C166 C172 1.368 . S
C167 C151 1.349 . S
C167 H159 0.950 . S
C167 C165 1.327 . S
C168 C156 1.349 . S
C168 H162 0.950 . S
C168 C169 1.327 . S
C169 H163 0.950 . S
C169 C168 1.327 . S
C169 C173 1.429 . S
C170 C153 1.574 . S
C170 H164 0.949 . S
C170 C174 1.368 . S
C171 C152 1.429 . S
C171 C165 1.429 . S
C171 C172 1.523 . S
C172 C153 1.368 . S
C172 C166 1.368 . S
C172 C171 1.523 . S
C173 C157 1.429 . S
C173 C169 1.429 . S
C173 C174 1.523 . S
C174 C158 1.368 . S
C174 C170 1.368 . S
C174 C173 1.523 . S
H175 C150 0.950 . S
H176 C152 0.950 . S
H177 C153 0.949 . S
H178 C155 0.950 . S
H179 C157 0.950 . S
C180 C181 1.349 1_556 S
C180 C182 1.327 . S
C180 H205 0.950 . S
C181 C180 1.349 1_554 S
C181 C197 1.349 . S
C182 C180 1.327 . S
C182 C201 1.429 1_556 S
C182 H206 0.950 . S
C183 C200 1.574 . S
C183 C202 1.368 . S
C183 H207 0.949 . S
H184 C188 0.949 . S
C185 C186 1.349 . S
C185 C187 1.327 . S
C185 H208 0.950 . S
C186 C185 1.349 . S
C186 C198 1.349 1_554 S
C187 C185 1.327 . S
C187 C203 1.429 . S
C187 H209 0.950 . S
C188 H184 0.949 . S
C188 C196 1.574 . S
C188 C204 1.368 1_556 S
H189 C197 0.950 . S
H190 C195 0.950 . S
H191 C196 0.949 . S
H192 C198 0.950 . S
H193 C199 0.950 . S
H194 C200 0.949 . S
C195 H190 0.950 . S
C195 C197 1.327 . S
C195 C201 1.429 . S
C196 C188 1.574 . S
C196 H191 0.949 . S
C196 C202 1.368 1_556 S
C197 C181 1.349 . S
C197 H189 0.950 . S
C197 C195 1.327 . S
C198 C186 1.349 1_556 S
C198 H192 0.950 . S
C198 C199 1.327 . S
C199 H193 0.950 . S
C199 C198 1.327 . S
C199 C203 1.429 1_556 S
C200 C183 1.574 . S
C200 H194 0.949 . S
C200 C204 1.368 . S
C201 C182 1.429 1_554 S
C201 C195 1.429 . S
C201 C202 1.523 . S
C202 C183 1.368 . S
C202 C196 1.368 1_554 S
C202 C201 1.523 . S
C203 C187 1.429 . S
C203 C199 1.429 1_554 S
C203 C204 1.523 . S
C204 C188 1.368 1_554 S
C204 C200 1.368 . S
C204 C203 1.523 . S
H205 C180 0.950 . S
H206 C182 0.950 . S
H207 C183 0.949 . S
H208 C185 0.950 . S
H209 C187 0.950 . S
C210 C211 1.349 . S
C210 C212 1.327 . S
C210 H235 0.950 . S
C211 C210 1.349 . S
C211 C227 1.349 . S
C212 C210 1.327 . S
C212 C231 1.429 . S
C212 H236 0.950 . S
C213 C230 1.574 . S
C213 C232 1.368 . S
C213 H237 0.949 . S
H214 C218 0.949 . S
C215 C216 1.349 . S
C215 C217 1.327 . S
C215 H238 0.950 1_565 S
C216 C215 1.349 . S
C216 C228 1.349 . S
C217 C215 1.327 . S
C217 C233 1.429 . S
C217 H239 0.950 . S
C218 H214 0.949 . S
C218 C226 1.574 . S
C218 C234 1.368 . S
H219 C227 0.950 . S
H220 C225 0.950 . S
H221 C226 0.949 . S
H222 C228 0.950 . S
H223 C229 0.950 . S
H224 C230 0.949 . S
C225 H220 0.950 . S
C225 C227 1.327 . S
C225 C231 1.429 . S
C226 C218 1.574 . S
C226 H221 0.949 . S
C226 C232 1.368 . S
C227 C211 1.349 . S
C227 H219 0.950 . S
C227 C225 1.327 . S
C228 C216 1.349 . S
C228 H222 0.950 . S
C228 C229 1.327 . S
C229 H223 0.950 . S
C229 C228 1.327 . S
C229 C233 1.429 . S
C230 C213 1.574 . S
C230 H224 0.949 . S
C230 C234 1.368 . S
C231 C212 1.429 . S
C231 C225 1.429 . S
C231 C232 1.523 . S
C232 C213 1.368 . S
C232 C226 1.368 . S
C232 C231 1.523 . S
C233 C217 1.429 . S
C233 C229 1.429 . S
C233 C234 1.523 . S
C234 C218 1.368 . S
C234 C230 1.368 . S
C234 C233 1.523 . S
H235 C210 0.950 . S
H236 C212 0.950 . S
H237 C213 0.949 . S
H238 C215 0.950 1_545 S
H239 C217 0.950 . S
C240 C241 1.349 . S
C240 C242 1.327 . S
C240 H265 0.950 . S
C241 C240 1.349 . S
C241 C257 1.349 . S
C242 C240 1.327 . S
C242 C261 1.429 . S
C242 H266 0.950 . S
C243 C260 1.574 . S
C243 C262 1.368 . S
C243 H267 0.949 . S
H244 C248 0.949 . S
C245 C246 1.349 . S
C245 C247 1.327 . S
C245 H268 0.950 . S
C246 C245 1.349 . S
C246 C258 1.349 . S
C247 C245 1.327 . S
C247 C263 1.429 . S
C247 H269 0.950 . S
C248 H244 0.949 . S
C248 C256 1.574 . S
C248 C264 1.368 . S
H249 C257 0.950 . S
H250 C255 0.950 . S
H251 C256 0.949 . S
H252 C258 0.950 . S
H253 C259 0.950 . S
H254 C260 0.949 . S
C255 H250 0.950 . S
C255 C257 1.327 . S
C255 C261 1.429 . S
C256 C248 1.574 . S
C256 H251 0.949 . S
C256 C262 1.368 . S
C257 C241 1.349 . S
C257 H249 0.950 . S
C257 C255 1.327 . S
C258 C246 1.349 . S
C258 H252 0.950 . S
C258 C259 1.327 . S
C259 H253 0.950 . S
C259 C258 1.327 . S
C259 C263 1.429 . S
C260 C243 1.574 . S
C260 H254 0.949 . S
C260 C264 1.368 . S
C261 C242 1.429 . S
C261 C255 1.429 . S
C261 C262 1.523 . S
C262 C243 1.368 . S
C262 C256 1.368 . S
C262 C261 1.523 . S
C263 C247 1.429 . S
C263 C259 1.429 . S
C263 C264 1.523 . S
C264 C248 1.368 . S
C264 C260 1.368 . S
C264 C263 1.523 . S
H265 C240 0.950 . S
H266 C242 0.950 . S
H267 C243 0.949 . S
H268 C245 0.950 . S
H269 C247 0.950 . S
C270 C271 1.349 . S
C270 C272 1.327 . S
C270 H295 0.950 . S
C271 C270 1.349 . S
C271 C287 1.349 . S
C272 C270 1.327 . S
C272 C291 1.429 . S
C272 H296 0.950 . S
C273 C290 1.574 . S
C273 C292 1.368 . S
C273 H297 0.949 . S
H274 C278 0.949 . S
C275 C276 1.349 . S
C275 C277 1.327 . S
C275 H298 0.950 . S
C276 C275 1.349 . S
C276 C288 1.349 . S
C277 C275 1.327 . S
C277 C293 1.429 . S
C277 H299 0.950 . S
C278 H274 0.949 . S
C278 C286 1.574 . S
C278 C294 1.368 . S
H279 C287 0.950 . S
H280 C285 0.950 . S
H281 C286 0.949 . S
H282 C288 0.950 . S
H283 C289 0.950 . S
H284 C290 0.949 . S
C285 H280 0.950 . S
C285 C287 1.327 . S
C285 C291 1.429 . S
C286 C278 1.574 . S
C286 H281 0.949 . S
C286 C292 1.368 . S
C287 C271 1.349 . S
C287 H279 0.950 . S
C287 C285 1.327 . S
C288 C276 1.349 . S
C288 H282 0.950 . S
C288 C289 1.327 . S
C289 H283 0.950 . S
C289 C288 1.327 . S
C289 C293 1.429 . S
C290 C273 1.574 . S
C290 H284 0.949 . S
C290 C294 1.368 . S
C291 C272 1.429 . S
C291 C285 1.429 . S
C291 C292 1.523 . S
C292 C273 1.368 . S
C292 C286 1.368 . S
C292 C291 1.523 . S
C293 C277 1.429 . S
C293 C289 1.429 . S
C293 C294 1.523 . S
C294 C278 1.368 . S
C294 C290 1.368 . S
C294 C293 1.523 . S
H295 C270 0.950 . S
H296 C272 0.950 . S
H297 C273 0.949 . S
H298 C275 0.950 . S
H299 C277 0.950 . S
C300 C301 1.349 . S
C300 C302 1.327 . S
C300 H325 0.950 . S
C301 C300 1.349 . S
C301 C317 1.349 . S
C302 C300 1.327 . S
C302 C321 1.429 . S
C302 H326 0.950 . S
C303 C320 1.574 . S
C303 C322 1.368 . S
C303 H327 0.949 . S
H304 C308 0.949 . S
C305 C306 1.349 . S
C305 C307 1.327 . S
C305 H328 0.950 . S
C306 C305 1.349 . S
C306 C318 1.349 . S
C307 C305 1.327 . S
C307 C323 1.429 . S
C307 H329 0.950 . S
C308 H304 0.949 . S
C308 C316 1.574 . S
C308 C324 1.368 . S
H309 C317 0.950 . S
H310 C315 0.950 . S
H311 C316 0.949 . S
H312 C318 0.950 . S
H313 C319 0.950 . S
H314 C320 0.949 . S
C315 H310 0.950 . S
C315 C317 1.327 . S
C315 C321 1.429 . S
C316 C308 1.574 . S
C316 H311 0.949 . S
C316 C322 1.368 . S
C317 C301 1.349 . S
C317 H309 0.950 . S
C317 C315 1.327 . S
C318 C306 1.349 . S
C318 H312 0.950 . S
C318 C319 1.327 . S
C319 H313 0.950 . S
C319 C318 1.327 . S
C319 C323 1.429 . S
C320 C303 1.574 . S
C320 H314 0.949 . S
C320 C324 1.368 . S
C321 C302 1.429 . S
C321 C315 1.429 . S
C321 C322 1.523 . S
C322 C303 1.368 . S
C322 C316 1.368 . S
C322 C321 1.523 . S
C323 C307 1.429 . S
C323 C319 1.429 . S
C323 C324 1.523 . S
C324 C308 1.368 . S
C324 C320 1.368 . S
C324 C323 1.523 . S
H325 C300 0.950 . S
H326 C302 0.950 . S
H327 C303 0.949 . S
H328 C305 0.950 . S
H329 C307 0.950 . S
C330 C331 1.349 . S
C330 C332 1.327 . S
C330 H355 0.950 . S
C331 C330 1.349 . S
C331 C347 1.349 . S
C332 C330 1.327 . S
C332 C351 1.429 . S
C332 H356 0.950 . S
C333 C350 1.574 . S
C333 C352 1.368 . S
C333 H357 0.949 . S
H334 C338 0.949 . S
C335 C336 1.349 . S
C335 C337 1.327 . S
C335 H358 0.950 . S
C336 C335 1.349 . S
C336 C348 1.349 . S
C337 C335 1.327 . S
C337 C353 1.429 . S
C337 H359 0.950 . S
C338 H334 0.949 . S
C338 C346 1.574 . S
C338 C354 1.368 . S
H339 C347 0.950 . S
H340 C345 0.950 . S
H341 C346 0.949 . S
H342 C348 0.950 . S
H343 C349 0.950 . S
H344 C350 0.949 . S
C345 H340 0.950 . S
C345 C347 1.327 . S
C345 C351 1.429 . S
C346 C338 1.574 . S
C346 H341 0.949 . S
C346 C352 1.368 . S
C347 C331 1.349 . S
C347 H339 0.950 . S
C347 C345 1.327 . S
C348 C336 1.349 . S
C348 H342 0.950 . S
C348 C349 1.327 . S
C349 H343 0.950 . S
C349 C348 1.327 . S
C349 C353 1.429 . S
C350 C333 1.574 . S
C350 H344 0.949 . S
C350 C354 1.368 . S
C351 C332 1.429 . S
C351 C345 1.429 . S
C351 C352 1.523 . S
C352 C333 1.368 . S
C352 C346 1.368 . S
C352 C351 1.523 . S
C353 C337 1.429 . S
C353 C349 1.429 . S
C353 C354 1.523 . S
C354 C338 1.368 . S
C354 C350 1.368 . S
C354 C353 1.523 . S
H355 C330 0.950 . S
H356 C332 0.950 . S
H357 C333 0.949 . S
H358 C335 0.950 . S
H359 C337 0.950 . S
C360 C361 1.349 . S
C360 C362 1.327 . S
C360 H385 0.950 . S
C361 C360 1.349 . S
C361 C377 1.349 . S
C362 C360 1.327 . S
C362 C381 1.429 . S
C362 H386 0.950 . S
C363 C380 1.574 . S
C363 C382 1.368 . S
C363 H387 0.949 . S
H364 C368 0.949 . S
C365 C366 1.349 . S
C365 C367 1.327 . S
C365 H388 0.950 . S
C366 C365 1.349 . S
C366 C378 1.349 . S
C367 C365 1.327 . S
C367 C383 1.429 . S
C367 H389 0.950 . S
C368 H364 0.949 . S
C368 C376 1.574 . S
C368 C384 1.368 . S
H369 C377 0.950 . S
H370 C375 0.950 . S
H371 C376 0.949 . S
H372 C378 0.950 . S
H373 C379 0.950 . S
H374 C380 0.949 . S
C375 H370 0.950 . S
C375 C377 1.327 . S
C375 C381 1.429 . S
C376 C368 1.574 . S
C376 H371 0.949 . S
C376 C382 1.368 . S
C377 C361 1.349 . S
C377 H369 0.950 . S
C377 C375 1.327 . S
C378 C366 1.349 . S
C378 H372 0.950 . S
C378 C379 1.327 . S
C379 H373 0.950 . S
C379 C378 1.327 . S
C379 C383 1.429 . S
C380 C363 1.574 . S
C380 H374 0.949 . S
C380 C384 1.368 . S
C381 C362 1.429 . S
C381 C375 1.429 . S
C381 C382 1.523 . S
C382 C363 1.368 . S
C382 C376 1.368 . S
C382 C381 1.523 . S
C383 C367 1.429 . S
C383 C379 1.429 . S
C383 C384 1.523 . S
C384 C368 1.368 . S
C384 C380 1.368 . S
C384 C383 1.523 . S
H385 C360 0.950 . S
H386 C362 0.950 . S
H387 C363 0.949 . S
H388 C365 0.950 . S
H389 C367 0.950 . S
C390 C391 1.349 . S
C390 C392 1.327 . S
C390 H415 0.950 . S
C391 C390 1.349 . S
C391 C407 1.349 . S
C392 C390 1.327 . S
C392 C411 1.429 . S
C392 H416 0.950 . S
C393 C410 1.574 . S
C393 C412 1.368 . S
C393 H417 0.949 . S
H394 C398 0.949 . S
C395 C396 1.349 . S
C395 C397 1.327 . S
C395 H418 0.950 . S
C396 C395 1.349 . S
C396 C408 1.349 . S
C397 C395 1.327 . S
C397 C413 1.429 . S
C397 H419 0.950 . S
C398 H394 0.949 . S
C398 C406 1.574 . S
C398 C414 1.368 . S
H399 C407 0.950 . S
H400 C405 0.950 . S
H401 C406 0.949 . S
H402 C408 0.950 . S
H403 C409 0.950 . S
H404 C410 0.949 . S
C405 H400 0.950 . S
C405 C407 1.327 . S
C405 C411 1.429 . S
C406 C398 1.574 . S
C406 H401 0.949 . S
C406 C412 1.368 . S
C407 C391 1.349 . S
C407 H399 0.950 . S
C407 C405 1.327 . S
C408 C396 1.349 . S
C408 H402 0.950 . S
C408 C409 1.327 . S
C409 H403 0.950 . S
C409 C408 1.327 . S
C409 C413 1.429 . S
C410 C393 1.574 . S
C410 H404 0.949 . S
C410 C414 1.368 . S
C411 C392 1.429 . S
C411 C405 1.429 . S
C411 C412 1.523 . S
C412 C393 1.368 . S
C412 C406 1.368 . S
C412 C411 1.523 . S
C413 C397 1.429 . S
C413 C409 1.429 . S
C413 C414 1.523 . S
C414 C398 1.368 . S
C414 C410 1.368 . S
C414 C413 1.523 . S
H415 C390 0.950 . S
H416 C392 0.950 . S
H417 C393 0.949 . S
H418 C395 0.950 . S
H419 C397 0.950 . S
C420 C421 1.349 . S
C420 C422 1.327 . S
C420 H445 0.949 1_556 S
C421 C420 1.349 . S
C421 C437 1.349 . S
C422 C420 1.327 . S
C422 C441 1.429 . S
C422 H446 0.950 . S
C423 C440 1.574 . S
C423 C442 1.368 . S
C423 H447 0.949 . S
H424 C428 0.949 . S
C425 C426 1.349 . S
C425 C427 1.327 . S
C425 H448 0.950 . S
C426 C425 1.349 . S
C426 C438 1.349 . S
C427 C425 1.327 . S
C427 C443 1.429 . S
C427 H449 0.950 . S
C428 H424 0.949 . S
C428 C436 1.574 . S
C428 C444 1.368 . S
H429 C437 0.950 . S
H430 C435 0.950 . S
H431 C436 0.949 . S
H432 C438 0.950 1_545 S
H433 C439 0.950 . S
H434 C440 0.949 . S
C435 H430 0.950 . S
C435 C437 1.327 . S
C435 C441 1.429 . S
C436 C428 1.574 . S
C436 H431 0.949 . S
C436 C442 1.368 . S
C437 C421 1.349 . S
C437 H429 0.950 . S
C437 C435 1.327 . S
C438 C426 1.349 . S
C438 H432 0.950 1_565 S
C438 C439 1.327 . S
C439 H433 0.950 . S
C439 C438 1.327 . S
C439 C443 1.429 . S
C440 C423 1.574 . S
C440 H434 0.949 . S
C440 C444 1.368 . S
C441 C422 1.429 . S
C441 C435 1.429 . S
C441 C442 1.523 . S
C442 C423 1.368 . S
C442 C436 1.368 . S
C442 C441 1.523 . S
C443 C427 1.429 . S
C443 C439 1.429 . S
C443 C444 1.523 . S
C444 C428 1.368 . S
C444 C440 1.368 . S
C444 C443 1.523 . S
H445 C420 0.949 1_554 S
H446 C422 0.950 . S
H447 C423 0.949 . S
H448 C425 0.950 . S
H449 C427 0.950 . S
C96 C64 1.242 . S
C91 C40 1.420 . S
C121 C4 1.452 . S
C126 C85 1.260 . S
C151 C16 1.627 . S
C156 C61 1.433 . S
C181 C28 1.626 . S
C186 C82 1.420 . S
C216 C66 1.503 . S
C211 C9 1.518 . S
C246 C86 1.559 . S
C241 C18 1.617 . S
C271 C33 1.591 . S
C276 C62 1.554 . S
C301 C45 1.527 . S
C306 C84 1.478 . S
C336 C83 1.483 . S
C331 C21 1.521 . S
C366 C65 1.489 . S
C361 C30 1.543 . S
C396 C87 1.430 . S
C391 C42 1.465 . S
C421 C6 1.467 1_556 S
C426 C63 1.416 . S
