# Generated by pormake.
# Topology pts, (4,4)-cn, num edge types: 1
# Building blocks:
#     Node 0, Type 0, BuildingBlock: MUDLON_clean_linker_0, # of connection points: 4
#     Node 1, Type 0, BuildingBlock: MUDLON_clean_linker_0, # of connection points: 4
#     Node 2, Type 1, BuildingBlock: QUQFOY_clean_sbu_1, # of connection points: 4
#     Node 3, Type 1, BuildingBlock: QUQFOY_clean_sbu_1, # of connection points: 4
#     Edge 4, Type (0, 1), BuildingBlock: EZIPEK_clean_linker_0, # of connection points: 2
#     Edge 5, Type (0, 1), BuildingBlock: EZIPEK_clean_linker_0, # of connection points: 2
#     Edge 6, Type (0, 1), BuildingBlock: EZIPEK_clean_linker_0, # of connection points: 2
#     Edge 7, Type (0, 1), BuildingBlock: EZIPEK_clean_linker_0, # of connection points: 2
#     Edge 8, Type (0, 1), BuildingBlock: EZIPEK_clean_linker_0, # of connection points: 2
#     Edge 9, Type (0, 1), BuildingBlock: EZIPEK_clean_linker_0, # of connection points: 2
#     Edge 10, Type (0, 1), BuildingBlock: EZIPEK_clean_linker_0, # of connection points: 2
#     Edge 11, Type (0, 1), BuildingBlock: EZIPEK_clean_linker_0, # of connection points: 2
# Relax obj value: 0.110
# Max RMSD: 0.273
# Mean RMSD: 0.180
data_MOF--net-pts--node1-QUQFOY_clean_sbu_1--node2-MUDLON_clean_linker_0--edge1-EZIPEK_clean_linker_0
_symmetry_space_group_name_H-M    P1
_symmetry_Int_Tables_number       1
_symmetry_cell_setting            triclinic
loop_
_symmetry_equiv_pos_as_xyz
'x, y, z'
_cell_length_a     26.075628
_cell_length_b     28.257291
_cell_length_c     37.575677
_cell_angle_alpha  89.832384
_cell_angle_beta   90.080039
_cell_angle_gamma 90.02475
loop_
_atom_site_label
_atom_site_type_symbol
_atom_site_fract_x
_atom_site_fract_y
_atom_site_fract_z
_atom_type_partial_charge
H0 H 0.79315 0.09483 0.0465 0.0
N1 N 0.69187 0.08188 0.03591 0.0
H2 H 0.84275 0.07942 0.1003 0.0
H3 H 0.65414 0.05847 0.10327 0.0
H4 H 0.70373 0.04709 0.15726 0.0
H5 H 0.75558 1.00426 0.02782 0.0
H6 H 0.80385 0.98455 0.97428 0.0
H7 H 0.6767 0.11474 0.97006 0.0
H8 H 0.71826 0.08921 0.91507 0.0
H9 H 0.62162 0.14879 0.02824 0.0
H10 H 0.6399 0.99884 0.04372 0.0
H11 H 0.52895 0.13927 0.02521 0.0
H12 H 0.54665 0.98877 0.04388 0.0
H13 H 0.20826 0.04921 0.04017 0.0
H14 H 0.16253 0.03556 0.09575 0.0
H15 H 0.30536 1.00472 0.1488 0.0
H16 H 0.35122 0.0143 0.09277 0.0
H17 H 0.28625 0.9555 0.0106 0.0
H18 H 0.23776 0.93093 0.9574 0.0
H19 H 0.23479 0.0757 0.92081 0.0
H20 H 0.28331 0.10003 0.97381 0.0
H21 H 0.36362 0.11934 0.05252 0.0
H22 H 0.45643 0.12639 0.05728 0.0
H23 H 0.47288 0.98733 0.01047 0.0
N24 N 0.30978 0.04639 0.02898 0.0
H25 H 0.37994 0.97927 0.00909 0.0
C26 C 0.71991 0.07443 0.06915 0.0
C27 C 0.77314 0.08292 0.07012 0.0
C28 C 0.80154 0.0746 0.101 0.0
C29 C 0.77712 0.06072 0.13261 0.0
C30 C 0.72356 0.05624 0.13288 0.0
C31 C 0.69525 0.06261 0.10155 0.0
C32 C 0.71449 0.06312 0.00361 0.0
C33 C 0.74799 0.02396 0.00365 0.0
C34 C 0.77502 0.01208 0.97281 0.0
C35 C 0.76582 0.03624 0.94063 0.0
C36 C 0.72733 0.071 0.9397 0.0
C37 C 0.7034 0.08543 0.97105 0.0
C38 C 0.63717 0.07477 0.03667 0.0
C39 C 0.60519 0.11388 0.03174 0.0
C40 C 0.55214 0.10824 0.03035 0.0
C41 C 0.52968 0.06324 0.03475 0.0
C42 C 0.56218 0.02389 0.03986 0.0
C43 C 0.61549 0.0295 0.04021 0.0
C44 C 0.28342 0.03242 0.06142 0.0
C45 C 0.22988 0.03792 0.06331 0.0
C46 C 0.20371 0.03046 0.09515 0.0
C47 C 0.23055 0.01913 0.12641 0.0
C48 C 0.28389 0.01305 0.12489 0.0
C49 C 0.31004 0.01884 0.09265 0.0
C50 C 0.2879 0.02971 0.99604 0.0
C51 C 0.2762 0.98164 0.99066 0.0
C52 C 0.24877 0.96767 0.9604 0.0
C53 C 0.2328 1.00161 0.93535 0.0
C54 C 0.24704 0.04908 0.93981 0.0
C55 C 0.27446 0.06295 0.96995 0.0
C56 C 0.36493 0.04942 0.02984 0.0
C57 C 0.38751 0.09052 0.04332 0.0
C58 C 0.44069 0.0945 0.04571 0.0
C59 C 0.47276 0.05775 0.03372 0.0
C60 C 0.44981 0.01625 0.02037 0.0
C61 C 0.39642 0.0118 0.01899 0.0
H62 H 0.87882 0.74824 0.55033 0.0
N63 N 0.94196 0.68191 0.52655 0.0
H64 H 0.89175 0.80124 0.60127 0.0
H65 H 0.02343 0.68045 0.57241 0.0
H66 H 0.03594 0.73276 0.62413 0.0
H67 H 0.03467 0.71961 0.508 0.0
H68 H 0.05085 0.77177 0.45672 0.0
H69 H 0.8799 0.69707 0.47148 0.0
H70 H 0.89637 0.74822 0.41967 0.0
H71 H 0.87825 0.62354 0.55964 0.0
H72 H 0.02107 0.62624 0.50225 0.0
H73 H 0.88453 0.53791 0.5658 0.0
H74 H 0.02625 0.53992 0.5061 0.0
H75 H 0.88435 0.27079 0.5692 0.0
H76 H 0.89486 0.21676 0.62011 0.0
H77 H 0.04697 0.27177 0.63789 0.0
H78 H 0.03652 0.32549 0.58687 0.0
H79 H 0.04946 0.29105 0.52598 0.0
H80 H 0.06876 0.2337 0.47879 0.0
H81 H 0.9145 0.24814 0.4386 0.0
H82 H 0.89472 0.30383 0.48678 0.0
H83 H 0.87463 0.3839 0.53644 0.0
H84 H 0.87382 0.47001 0.5328 0.0
H85 H 0.03939 0.47143 0.5408 0.0
N86 N 0.95503 0.32713 0.54103 0.0
H87 H 0.0394 0.38462 0.54207 0.0
C88 C 0.94973 0.71021 0.55795 0.0
C89 C 0.91304 0.74455 0.56648 0.0
C90 C 0.92052 0.77477 0.59532 0.0
C91 C 0.96479 0.7709 0.6164 0.0
C92 C 0.00157 0.73627 0.60812 0.0
C93 C -0.00568 0.70633 0.57886 0.0
C94 C 0.95584 0.70469 0.49354 0.0
C95 C 0.00463 0.72495 0.4885 0.0
C96 C 0.01383 0.75473 0.45934 0.0
C97 C 0.97465 0.76409 0.4346 0.0
C98 C 0.92701 0.74151 0.43852 0.0
C99 C 0.9177 0.7122 0.46785 0.0
C100 C 0.94852 0.63133 0.53006 0.0
C101 C 0.91081 0.60544 0.54809 0.0
C102 C 0.91432 0.55629 0.55124 0.0
C103 C 0.9554 0.53135 0.53582 0.0
C104 C -0.00588 0.55761 0.51849 0.0
C105 C 0.99098 0.60714 0.51592 0.0
C106 C 0.95931 0.30239 0.57446 0.0
C107 C 0.91944 0.27195 0.58463 0.0
C108 C 0.92556 0.24103 0.61341 0.0
C109 C 0.97179 0.24016 0.63253 0.0
C110 C 0.01106 0.27196 0.62336 0.0
C111 C 0.00494 0.30282 0.59443 0.0
C112 C 0.97042 0.30132 0.50992 0.0
C113 C 0.02006 0.2824 0.50674 0.0
C114 C 0.03105 0.2497 0.47988 0.0
C115 C 0.99292 0.23648 0.45539 0.0
C116 C 0.94436 0.25777 0.45731 0.0
C117 C 0.93317 0.28968 0.48452 0.0
C118 C 0.9568 0.37802 0.54016 0.0
C119 C 0.91065 0.40296 0.53752 0.0
C120 C 0.9104 0.45233 0.53574 0.0
C121 C 0.95653 0.4783 0.5371 0.0
C122 C 0.00307 0.45296 0.53951 0.0
C123 C 0.00321 0.40325 0.54075 0.0
O124 O 0.93788 0.97757 0.24611 0.0
Cd125 Cd 0.00139 0.95576 0.27387 0.0
Cd126 Cd 0.00996 0.04723 0.29401 0.0
O127 O 0.9416 0.05087 0.26572 0.0
O128 O -0.00569 0.88805 0.28822 0.0
O129 O 0.00158 0.94717 0.32675 0.0
C130 C -0.0036 0.90232 0.32084 0.0
C131 C 0.01269 0.09604 0.34439 0.0
C132 C 0.92057 0.01956 0.24634 0.0
C133 C 0.09183 1.00628 0.24549 0.0
O134 O 0.07694 0.04097 0.26439 0.0
O135 O 0.06773 0.96722 0.2462 0.0
O136 O 0.01371 0.11326 0.31268 0.0
O137 O 0.01151 0.05059 0.34781 0.0
O138 O 0.94394 0.03848 0.82405 0.0
Cd139 Cd 0.00448 0.04354 0.7894 0.0
Cd140 Cd 0.9881 0.9503 0.78474 0.0
O141 O 0.91926 0.96674 0.80952 0.0
O142 O 0.0083 0.11166 0.77536 0.0
O143 O 0.993 0.05389 0.737 0.0
C144 C -0.00169 0.09859 0.74324 0.0
C145 C 0.98467 0.89992 0.73564 0.0
C146 C 0.9122 1.00459 0.827 0.0
C147 C 0.08285 0.98495 0.8239 0.0
O148 O 0.05354 0.95025 0.81661 0.0
O149 O 0.07321 0.02611 0.81209 0.0
O150 O 0.98081 0.88383 0.76766 0.0
O151 O 0.99119 0.94491 0.73134 0.0
C152 C 0.19894 0.97555 0.18132 0.0
C153 C 0.20243 0.01775 0.16088 0.0
C154 C 0.13491 0.05363 0.19676 0.0
C155 C 0.1337 0.01276 0.21902 0.0
N156 N 0.1758 0.94093 0.23813 0.0
N157 N 0.18668 0.10178 0.15758 0.0
C158 C 0.16943 0.97564 0.21314 0.0
C159 C 0.1749 0.05847 0.1716 0.0
N160 N 0.22132 0.93479 0.1696 0.0
N161 N 0.09591 0.08597 0.19701 0.0
H162 H 0.21673 0.10678 0.13963 0.0
H163 H 0.17039 0.1331 0.16685 0.0
H164 H 0.06271 0.08233 0.2121 0.0
H165 H 0.09358 0.11367 0.17869 0.0
H166 H 0.21529 0.90205 0.18173 0.0
H167 H 0.24217 0.93282 0.14601 0.0
H168 H 0.20437 0.91526 0.23645 0.0
H169 H 0.15636 0.94105 0.26238 0.0
C170 C 0.953 0.20885 0.69383 0.0
C171 C 0.9796 0.20434 0.66114 0.0
C172 C 0.02189 0.13243 0.68334 0.0
C173 C 0.99151 0.13444 0.71462 0.0
N174 N 0.92047 0.16925 0.74637 0.0
N175 N 0.03231 0.15743 0.62202 0.0
C176 C 0.95499 0.17128 0.71904 0.0
C177 C 0.0121 0.16486 0.65509 0.0
N178 N 0.92678 0.24955 0.70117 0.0
N179 N 0.06154 0.10094 0.68116 0.0
H180 H 0.02606 0.18027 0.6006 0.0
H181 H 0.05154 0.12654 0.615 0.0
H182 H 0.07062 0.07719 0.7015 0.0
H183 H 0.08838 0.10133 0.66066 0.0
H184 H 0.91127 0.25697 0.72606 0.0
H185 H 0.92447 0.27785 0.68334 0.0
H186 H 0.88962 0.19243 0.74873 0.0
H187 H 0.91941 0.14159 0.76477 0.0
C188 C 0.84167 0.08815 0.17762 0.0
C189 C 0.80821 0.05219 0.16538 0.0
C190 C 0.83842 1.00098 0.21381 0.0
C191 C 0.87913 0.03304 0.22087 0.0
N192 N 0.92555 0.10331 0.20153 0.0
N193 N 0.7813 0.97027 0.16878 0.0
C194 C 0.88231 0.07594 0.20093 0.0
C195 C 0.80798 1.00745 0.18277 0.0
N196 N 0.83482 0.13397 0.16699 0.0
N197 N 0.82806 0.96491 0.23699 0.0
H198 H 0.76047 0.97253 0.14516 0.0
H199 H 0.78423 0.93593 0.17878 0.0
H200 H 0.84777 0.96057 0.26095 0.0
H201 H 0.79614 0.94296 0.23436 0.0
H202 H 0.85591 0.16194 0.17761 0.0
H203 H 0.80437 0.14444 0.15072 0.0
H204 H 0.9304 0.13252 0.18484 0.0
H205 H 0.9591 0.09391 0.21479 0.0
C206 C 0.01037 0.83841 0.64697 0.0
C207 C 0.97173 0.80299 0.64741 0.0
C208 C 0.93808 0.83534 0.70309 0.0
C209 C 0.98004 0.86735 0.70478 0.0
N210 N 0.06207 0.89258 0.68166 0.0
N211 N 0.90568 0.76139 0.67977 0.0
C212 C 0.01788 0.86712 0.6776 0.0
C213 C 0.93766 0.79953 0.67668 0.0
N214 N 0.03877 0.84578 0.61692 0.0
N215 N 0.89721 0.84052 0.7255 0.0
H216 H 0.90484 0.73396 0.66126 0.0
H217 H 0.88383 0.75468 0.70242 0.0
H218 H 0.89455 0.86774 0.74409 0.0
H219 H 0.86345 0.82107 0.72298 0.0
H220 H 0.06355 0.87442 0.61382 0.0
H221 H 0.03421 0.8258 0.59384 0.0
H222 H 0.09313 0.88981 0.66438 0.0
H223 H 0.0699 0.91289 0.70414 0.0
C224 C 0.2123 0.98571 0.87109 0.0
C225 C 0.19562 0.98918 0.9069 0.0
C226 C 0.10649 0.97738 0.88803 0.0
C227 C 0.12247 0.98001 0.85192 0.0
N228 N 0.18948 0.98795 0.80834 0.0
N229 N 0.12689 0.99315 0.94977 0.0
C230 C 0.1752 0.98423 0.84322 0.0
C231 C 0.14278 0.98559 0.91553 0.0
N232 N 0.26362 0.98333 0.86395 0.0
N233 N 0.05636 0.96786 0.89613 0.0
H234 H 0.15202 0.99885 0.97093 0.0
H235 H 0.08865 0.99735 0.95699 0.0
H236 H 0.02746 0.96475 0.87711 0.0
H237 H 0.0438 0.95956 0.92168 0.0
H238 H 0.2786 0.97658 0.83882 0.0
H239 H 0.29147 0.98447 0.88391 0.0
H240 H 0.22642 0.99654 0.80009 0.0
H241 H 0.16344 0.98448 0.78738 0.0
C242 C 0.0377 0.20478 0.40087 0.0
C243 C 0.00229 0.19815 0.42905 0.0
C244 C 0.97408 0.12335 0.4025 0.0
C245 C 0.01191 0.12837 0.37556 0.0
N246 N 0.08894 0.16738 0.35524 0.0
N247 N 0.94748 0.14494 0.46196 0.0
C248 C 0.04659 0.16715 0.37663 0.0
C249 C 0.97393 0.15538 0.43156 0.0
N250 N 0.06124 0.24757 0.39623 0.0
N251 N 0.93618 0.09017 0.39943 0.0
H252 H 0.94729 0.16711 0.48413 0.0
H253 H 0.93029 0.11218 0.46652 0.0
H254 H 0.93302 0.06715 0.37794 0.0
H255 H 0.90474 0.08869 0.41648 0.0
H256 H 0.08311 0.25582 0.37387 0.0
H257 H 0.05525 0.27629 0.41307 0.0
H258 H 0.11793 0.19262 0.35727 0.0
H259 H 0.09795 0.13946 0.33826 0.0
C260 C 0.82208 0.06533 0.89017 0.0
C261 C 0.7985 0.02716 0.90866 0.0
C262 C 0.84931 0.97171 0.87323 0.0
C263 C 0.86811 1.00996 0.85205 0.0
N264 N 0.85376 0.09085 0.8331 0.0
N265 N 0.77777 0.94378 0.90841 0.0
C266 C 0.8483 0.05602 0.85806 0.0
C267 C 0.8081 0.9802 0.8971 0.0
N268 N 0.82283 0.10994 0.90405 0.0
N269 N 0.87234 0.92831 0.87298 0.0
H270 H 0.74569 0.94903 0.92448 0.0
H271 H 0.78117 0.90954 0.89839 0.0
H272 H 0.90547 0.92061 0.85879 0.0
H273 H 0.86184 0.90133 0.89051 0.0
H274 H 0.84314 0.13758 0.89216 0.0
H275 H 0.80912 0.11794 0.92935 0.0
H276 H 0.83693 0.12413 0.83588 0.0
H277 H 0.86906 0.08443 0.80792 0.0
C278 C 0.01563 0.79117 0.3772 0.0
C279 C 0.98202 0.80017 0.40604 0.0
C280 C 0.9554 0.87473 0.37794 0.0
C281 C 0.99237 0.86784 0.35072 0.0
N282 N 0.0657 0.8245 0.32901 0.0
N283 N 0.92888 0.85557 0.43799 0.0
C284 C 0.02478 0.82741 0.35159 0.0
C285 C 0.95461 0.84352 0.40766 0.0
N286 N 0.03761 0.74755 0.37361 0.0
N287 N 0.91921 0.90947 0.37465 0.0
H288 H 0.92799 0.83405 0.46059 0.0
H289 H 0.91277 0.88886 0.44197 0.0
H290 H 0.91696 0.93208 0.35274 0.0
H291 H 0.88817 0.91274 0.3919 0.0
H292 H 0.05797 0.73735 0.35107 0.0
H293 H 0.03173 0.72009 0.39176 0.0
H294 H 0.09353 0.79816 0.33087 0.0
H295 H 0.07491 0.85105 0.31077 0.0
loop_
_geom_bond_atom_site_label_1
_geom_bond_atom_site_label_2
_geom_bond_distance
_geom_bond_site_symmetry_2
_ccdc_geom_bond_type
H0 C27 0.929 . S
N1 C26 1.433 . S
N1 C32 1.435 . S
N1 C38 1.423 . S
H2 C28 0.930 . S
H3 C31 0.931 . S
H4 C30 0.929 . S
H5 C33 0.930 . S
H6 C34 0.932 . S
H7 C37 0.929 . S
H8 C36 0.931 . S
H9 C39 0.929 . S
H10 C43 0.932 1_566 S
H11 C40 0.931 . S
H12 C42 0.949 1_565 S
H13 C45 0.929 . S
H14 C46 0.930 . S
H15 C48 0.929 . S
H16 C49 0.931 . S
H17 C51 0.930 . S
H18 C52 0.932 . S
H19 C54 0.931 . S
H20 C55 0.929 . S
H21 C57 0.929 . S
H22 C58 0.931 . S
H23 C60 0.949 1_565 S
N24 C44 1.433 . S
N24 C50 1.435 . S
N24 C56 1.423 . S
H25 C61 0.932 1_566 S
C26 N1 1.433 . S
C26 C27 1.363 . S
C26 C31 1.370 1_545 S
C27 H0 0.929 . S
C27 C26 1.363 . S
C27 C28 1.385 . S
C28 H2 0.930 . S
C28 C27 1.385 . S
C28 C29 1.357 . S
C29 C28 1.357 . S
C29 C30 1.406 1_545 S
C30 H4 0.929 . S
C30 C29 1.406 1_565 S
C30 C31 1.391 . S
C31 H3 0.931 . S
C31 C26 1.370 1_565 S
C31 C30 1.391 . S
C32 N1 1.435 . S
C32 C33 1.358 1_545 S
C32 C37 1.371 1_554 S
C33 H5 0.930 . S
C33 C32 1.358 1_565 S
C33 C34 1.405 1_554 S
C34 H6 0.932 . S
C34 C33 1.405 1_556 S
C34 C35 1.383 1_565 S
C35 C34 1.383 1_545 S
C35 C36 1.393 . S
C36 H8 0.931 . S
C36 C35 1.393 . S
C36 C37 1.382 . S
C37 H7 0.929 . S
C37 C32 1.371 1_556 S
C37 C36 1.382 . S
C38 N1 1.423 . S
C38 C39 1.362 . S
C38 C43 1.388 . S
C39 H9 0.929 . S
C39 C38 1.362 . S
C39 C40 1.376 . S
C40 H11 0.931 . S
C40 C39 1.376 . S
C40 C41 1.396 . S
C41 C40 1.396 . S
C41 C42 1.331 1_554 S
C41 C59 1.472 . S
C42 H12 0.949 1_545 S
C42 C41 1.331 1_556 S
C42 C43 1.441 1_556 S
C43 H10 0.932 1_544 S
C43 C38 1.388 . S
C43 C42 1.441 1_554 S
C44 N24 1.433 . S
C44 C45 1.363 . S
C44 C49 1.370 1_545 S
C45 H13 0.929 . S
C45 C44 1.363 . S
C45 C46 1.385 . S
C46 H14 0.930 . S
C46 C45 1.385 . S
C46 C47 1.357 . S
C47 C46 1.357 . S
C47 C48 1.406 1_545 S
C48 H15 0.929 . S
C48 C47 1.406 1_565 S
C48 C49 1.391 . S
C49 H16 0.931 . S
C49 C44 1.370 1_565 S
C49 C48 1.391 . S
C50 N24 1.435 . S
C50 C51 1.358 1_545 S
C50 C55 1.371 1_554 S
C51 H17 0.930 . S
C51 C50 1.358 1_565 S
C51 C52 1.405 1_554 S
C52 H18 0.932 . S
C52 C51 1.405 1_556 S
C52 C53 1.383 1_565 S
C53 C52 1.383 1_545 S
C53 C54 1.393 . S
C54 H19 0.931 . S
C54 C53 1.393 . S
C54 C55 1.382 . S
C55 H20 0.929 . S
C55 C50 1.371 1_556 S
C55 C54 1.382 . S
C56 N24 1.423 . S
C56 C57 1.362 . S
C56 C61 1.388 . S
C57 H21 0.929 . S
C57 C56 1.362 . S
C57 C58 1.376 . S
C58 H22 0.931 . S
C58 C57 1.376 . S
C58 C59 1.396 . S
C59 C41 1.472 . S
C59 C58 1.396 . S
C59 C60 1.331 1_554 S
C60 H23 0.949 1_545 S
C60 C59 1.331 1_556 S
C60 C61 1.441 1_556 S
C61 H25 0.932 1_544 S
C61 C56 1.388 . S
C61 C60 1.441 1_554 S
H62 C89 0.929 . S
N63 C88 1.433 . S
N63 C94 1.435 . S
N63 C100 1.423 . S
H64 C90 0.930 . S
H65 C93 0.931 . S
H66 C92 0.929 . S
H67 C95 0.930 . S
H68 C96 0.932 . S
H69 C99 0.929 . S
H70 C98 0.931 . S
H71 C101 0.929 . S
H72 C105 0.932 1_455 S
H73 C102 0.931 . S
H74 C104 0.929 1_455 S
H75 C107 0.929 . S
H76 C108 0.930 . S
H77 C110 0.929 . S
H78 C111 0.931 . S
H79 C113 0.930 . S
H80 C114 0.932 . S
H81 C116 0.931 . S
H82 C117 0.929 . S
H83 C119 0.929 . S
H84 C120 0.931 . S
H85 C122 0.929 1_455 S
N86 C106 1.433 . S
N86 C112 1.435 . S
N86 C118 1.423 . S
H87 C123 0.932 1_455 S
C88 N63 1.433 . S
C88 C89 1.363 . S
C88 C93 1.370 1_655 S
C89 H62 0.929 . S
C89 C88 1.363 . S
C89 C90 1.385 . S
C90 H64 0.930 . S
C90 C89 1.385 . S
C90 C91 1.357 . S
C91 C90 1.357 . S
C91 C92 1.406 1_655 S
C92 H66 0.929 . S
C92 C91 1.406 1_455 S
C92 C93 1.391 . S
C93 H65 0.931 . S
C93 C88 1.370 1_455 S
C93 C92 1.391 . S
C94 N63 1.435 . S
C94 C95 1.358 1_655 S
C94 C99 1.371 . S
C95 H67 0.930 . S
C95 C94 1.358 1_455 S
C95 C96 1.405 . S
C96 H68 0.932 . S
C96 C95 1.405 . S
C96 C97 1.383 1_455 S
C97 C96 1.383 1_655 S
C97 C98 1.393 . S
C98 H70 0.931 . S
C98 C97 1.393 . S
C98 C99 1.382 . S
C99 H69 0.929 . S
C99 C94 1.371 . S
C99 C98 1.382 . S
C100 N63 1.423 . S
C100 C101 1.362 . S
C100 C105 1.388 . S
C101 H71 0.929 . S
C101 C100 1.362 . S
C101 C102 1.376 . S
C102 H73 0.931 . S
C102 C101 1.376 . S
C102 C103 1.396 . S
C103 C102 1.396 . S
C103 C104 1.348 . S
C103 C121 1.472 . S
C104 H74 0.929 1_655 S
C104 C103 1.348 . S
C104 C105 1.443 . S
C105 H72 0.932 1_655 S
C105 C100 1.388 . S
C105 C104 1.443 . S
C106 N86 1.433 . S
C106 C107 1.363 . S
C106 C111 1.370 1_655 S
C107 H75 0.929 . S
C107 C106 1.363 . S
C107 C108 1.385 . S
C108 H76 0.930 . S
C108 C107 1.385 . S
C108 C109 1.357 . S
C109 C108 1.357 . S
C109 C110 1.406 1_655 S
C110 H77 0.929 . S
C110 C109 1.406 1_455 S
C110 C111 1.391 . S
C111 H78 0.931 . S
C111 C106 1.370 1_455 S
C111 C110 1.391 . S
C112 N86 1.435 . S
C112 C113 1.358 1_655 S
C112 C117 1.371 . S
C113 H79 0.930 . S
C113 C112 1.358 1_455 S
C113 C114 1.405 . S
C114 H80 0.932 . S
C114 C113 1.405 . S
C114 C115 1.383 1_455 S
C115 C114 1.383 1_655 S
C115 C116 1.393 . S
C116 H81 0.931 . S
C116 C115 1.393 . S
C116 C117 1.382 . S
C117 H82 0.929 . S
C117 C112 1.371 . S
C117 C116 1.382 . S
C118 N86 1.423 . S
C118 C119 1.362 . S
C118 C123 1.388 . S
C119 H83 0.929 . S
C119 C118 1.362 . S
C119 C120 1.376 . S
C120 H84 0.931 . S
C120 C119 1.376 . S
C120 C121 1.396 . S
C121 C103 1.472 . S
C121 C120 1.396 . S
C121 C122 1.348 . S
C122 H85 0.929 1_655 S
C122 C121 1.348 . S
C122 C123 1.443 . S
C123 H87 0.932 1_655 S
C123 C118 1.388 . S
C123 C122 1.443 . S
O124 Cd125 2.223 1_655 S
O124 C132 1.315 . S
Cd125 O124 2.223 1_455 S
Cd125 O128 2.297 1_455 S
Cd125 O129 2.439 1_455 S
Cd125 O135 2.240 1_565 S
Cd126 O127 2.240 1_545 S
Cd126 O134 2.223 1_655 S
Cd126 O136 2.297 1_655 S
Cd126 O137 2.439 1_655 S
O127 Cd126 2.240 1_565 S
O127 C132 1.279 . S
O128 Cd125 2.297 1_655 S
O128 C130 1.247 . S
O129 Cd125 2.439 1_655 S
O129 C130 1.208 . S
C130 O128 1.247 . S
C130 O129 1.208 . S
C131 O136 1.247 . S
C131 O137 1.208 . S
C132 O124 1.315 . S
C132 O127 1.279 . S
C133 O134 1.315 . S
C133 O135 1.279 . S
O134 Cd126 2.223 1_455 S
O134 C133 1.315 . S
O135 Cd125 2.240 1_545 S
O135 C133 1.279 . S
O136 Cd126 2.297 1_455 S
O136 C131 1.247 . S
O137 Cd126 2.439 1_455 S
O137 C131 1.208 . S
O138 Cd139 2.223 1_655 S
O138 C146 1.315 . S
Cd139 O138 2.223 1_455 S
Cd139 O142 2.297 1_455 S
Cd139 O143 2.439 1_455 S
Cd139 O149 2.240 1_545 S
Cd140 O141 2.240 1_565 S
Cd140 O148 2.223 1_655 S
Cd140 O150 2.297 1_655 S
Cd140 O151 2.439 1_655 S
O141 Cd140 2.240 1_545 S
O141 C146 1.279 . S
O142 Cd139 2.297 1_655 S
O142 C144 1.247 . S
O143 Cd139 2.439 1_655 S
O143 C144 1.208 . S
C144 O142 1.247 . S
C144 O143 1.208 . S
C145 O150 1.247 . S
C145 O151 1.208 . S
C146 O138 1.315 . S
C146 O141 1.279 . S
C147 O148 1.315 . S
C147 O149 1.279 . S
O148 Cd140 2.223 1_455 S
O148 C147 1.315 . S
O149 Cd139 2.240 1_565 S
O149 C147 1.279 . S
O150 Cd140 2.297 1_455 S
O150 C145 1.247 . S
O151 Cd140 2.439 1_455 S
O151 C145 1.208 . S
C152 C153 1.363 1_565 S
C152 C158 1.379 . S
C152 N160 1.356 . S
C153 C152 1.363 1_545 S
C153 C159 1.363 . S
C154 C155 1.363 . S
C154 C159 1.379 . S
C154 N161 1.356 . S
C155 C154 1.363 . S
C155 C158 1.363 1_545 S
N156 C158 1.356 . S
N156 H168 0.984 . S
N156 H169 0.985 . S
N157 C159 1.356 . S
N157 H162 0.984 . S
N157 H163 0.985 . S
C158 C152 1.379 . S
C158 C155 1.363 1_565 S
C158 N156 1.356 . S
C159 C153 1.363 . S
C159 C154 1.379 . S
C159 N157 1.356 . S
N160 C152 1.356 . S
N160 H166 0.984 . S
N160 H167 0.984 . S
N161 C154 1.356 . S
N161 H164 0.984 . S
N161 H165 0.985 . S
H162 N157 0.984 . S
H163 N157 0.985 . S
H164 N161 0.984 . S
H165 N161 0.985 . S
H166 N160 0.984 . S
H167 N160 0.984 . S
H168 N156 0.984 . S
H169 N156 0.985 . S
C170 C171 1.363 . S
C170 C176 1.379 . S
C170 N178 1.356 . S
C171 C170 1.363 . S
C171 C177 1.363 1_655 S
C172 C173 1.363 1_455 S
C172 C177 1.379 . S
C172 N179 1.356 . S
C173 C172 1.363 1_655 S
C173 C176 1.363 . S
N174 C176 1.356 . S
N174 H186 0.984 . S
N174 H187 0.985 . S
N175 C177 1.356 . S
N175 H180 0.984 . S
N175 H181 0.985 . S
C176 C170 1.379 . S
C176 C173 1.363 . S
C176 N174 1.356 . S
C177 C171 1.363 1_455 S
C177 C172 1.379 . S
C177 N175 1.356 . S
N178 C170 1.356 . S
N178 H184 0.984 . S
N178 H185 0.984 . S
N179 C172 1.356 . S
N179 H182 0.984 . S
N179 H183 0.985 . S
H180 N175 0.984 . S
H181 N175 0.985 . S
H182 N179 0.984 . S
H183 N179 0.985 . S
H184 N178 0.984 . S
H185 N178 0.984 . S
H186 N174 0.984 . S
H187 N174 0.985 . S
C188 C189 1.363 1_545 S
C188 C194 1.379 . S
C188 N196 1.356 . S
C189 C188 1.363 1_565 S
C189 C195 1.363 . S
C190 C191 1.363 . S
C190 C195 1.379 . S
C190 N197 1.356 . S
C191 C190 1.363 . S
C191 C194 1.363 1_565 S
N192 C194 1.356 . S
N192 H204 0.984 . S
N192 H205 0.985 . S
N193 C195 1.356 . S
N193 H198 0.984 . S
N193 H199 0.985 . S
C194 C188 1.379 . S
C194 C191 1.363 1_545 S
C194 N192 1.356 . S
C195 C189 1.363 . S
C195 C190 1.379 . S
C195 N193 1.356 . S
N196 C188 1.356 . S
N196 H202 0.984 . S
N196 H203 0.984 . S
N197 C190 1.356 . S
N197 H200 0.984 . S
N197 H201 0.985 . S
H198 N193 0.984 . S
H199 N193 0.985 . S
H200 N197 0.984 . S
H201 N197 0.985 . S
H202 N196 0.984 . S
H203 N196 0.984 . S
H204 N192 0.984 . S
H205 N192 0.985 . S
C206 C207 1.363 . S
C206 C212 1.379 . S
C206 N214 1.356 . S
C207 C206 1.363 . S
C207 C213 1.363 1_455 S
C208 C209 1.363 1_655 S
C208 C213 1.379 . S
C208 N215 1.356 . S
C209 C208 1.363 1_455 S
C209 C212 1.363 . S
N210 C212 1.356 . S
N210 H222 0.984 . S
N210 H223 0.985 . S
N211 C213 1.356 . S
N211 H216 0.984 . S
N211 H217 0.985 . S
C212 C206 1.379 . S
C212 C209 1.363 . S
C212 N210 1.356 . S
C213 C207 1.363 1_655 S
C213 C208 1.379 . S
C213 N211 1.356 . S
N214 C206 1.356 . S
N214 H220 0.984 . S
N214 H221 0.984 . S
N215 C208 1.356 . S
N215 H218 0.984 . S
N215 H219 0.985 . S
H216 N211 0.984 . S
H217 N211 0.985 . S
H218 N215 0.984 . S
H219 N215 0.985 . S
H220 N214 0.984 . S
H221 N214 0.984 . S
H222 N210 0.984 . S
H223 N210 0.985 . S
C224 C225 1.363 . S
C224 C230 1.379 . S
C224 N232 1.356 . S
C225 C224 1.363 . S
C225 C231 1.363 1_565 S
C226 C227 1.363 1_545 S
C226 C231 1.379 . S
C226 N233 1.356 . S
C227 C226 1.363 1_565 S
C227 C230 1.363 . S
N228 C230 1.356 . S
N228 H240 0.984 . S
N228 H241 0.985 . S
N229 C231 1.356 . S
N229 H234 0.984 . S
N229 H235 0.985 . S
C230 C224 1.379 . S
C230 C227 1.363 . S
C230 N228 1.356 . S
C231 C225 1.363 1_545 S
C231 C226 1.379 . S
C231 N229 1.356 . S
N232 C224 1.356 . S
N232 H238 0.984 . S
N232 H239 0.984 . S
N233 C226 1.356 . S
N233 H236 0.984 . S
N233 H237 0.985 . S
H234 N229 0.984 . S
H235 N229 0.985 . S
H236 N233 0.984 . S
H237 N233 0.985 . S
H238 N232 0.984 . S
H239 N232 0.984 . S
H240 N228 0.984 . S
H241 N228 0.985 . S
C242 C243 1.363 . S
C242 C248 1.379 . S
C242 N250 1.356 . S
C243 C242 1.363 . S
C243 C249 1.363 1_455 S
C244 C245 1.363 1_655 S
C244 C249 1.379 . S
C244 N251 1.356 . S
C245 C244 1.363 1_455 S
C245 C248 1.363 . S
N246 C248 1.356 . S
N246 H258 0.984 . S
N246 H259 0.985 . S
N247 C249 1.356 . S
N247 H252 0.984 . S
N247 H253 0.985 . S
C248 C242 1.379 . S
C248 C245 1.363 . S
C248 N246 1.356 . S
C249 C243 1.363 1_655 S
C249 C244 1.379 . S
C249 N247 1.356 . S
N250 C242 1.356 . S
N250 H256 0.984 . S
N250 H257 0.984 . S
N251 C244 1.356 . S
N251 H254 0.984 . S
N251 H255 0.985 . S
H252 N247 0.984 . S
H253 N247 0.985 . S
H254 N251 0.984 . S
H255 N251 0.985 . S
H256 N250 0.984 . S
H257 N250 0.984 . S
H258 N246 0.984 . S
H259 N246 0.985 . S
C260 C261 1.363 . S
C260 C266 1.379 . S
C260 N268 1.356 . S
C261 C260 1.363 . S
C261 C267 1.363 1_545 S
C262 C263 1.363 1_565 S
C262 C267 1.379 . S
C262 N269 1.356 . S
C263 C262 1.363 1_545 S
C263 C266 1.363 . S
N264 C266 1.356 . S
N264 H276 0.984 . S
N264 H277 0.985 . S
N265 C267 1.356 . S
N265 H270 0.984 . S
N265 H271 0.985 . S
C266 C260 1.379 . S
C266 C263 1.363 . S
C266 N264 1.356 . S
C267 C261 1.363 1_565 S
C267 C262 1.379 . S
C267 N265 1.356 . S
N268 C260 1.356 . S
N268 H274 0.984 . S
N268 H275 0.984 . S
N269 C262 1.356 . S
N269 H272 0.984 . S
N269 H273 0.985 . S
H270 N265 0.984 . S
H271 N265 0.985 . S
H272 N269 0.984 . S
H273 N269 0.985 . S
H274 N268 0.984 . S
H275 N268 0.984 . S
H276 N264 0.984 . S
H277 N264 0.985 . S
C278 C279 1.363 1_455 S
C278 C284 1.379 1_455 S
C278 N286 1.356 . S
C279 C278 1.363 1_655 S
C279 C285 1.363 . S
C280 C281 1.363 . S
C280 C285 1.379 . S
C280 N287 1.356 . S
C281 C280 1.363 . S
C281 C284 1.363 . S
N282 C284 1.356 . S
N282 H294 0.984 1_655 S
N282 H295 0.985 . S
N283 C285 1.356 . S
N283 H288 0.984 . S
N283 H289 0.985 . S
C284 C278 1.379 1_655 S
C284 C281 1.363 . S
C284 N282 1.356 . S
C285 C279 1.363 . S
C285 C280 1.379 . S
C285 N283 1.356 . S
N286 C278 1.356 . S
N286 H292 0.984 . S
N286 H293 0.984 . S
N287 C280 1.356 . S
N287 H290 0.984 . S
N287 H291 0.985 . S
H288 N283 0.984 . S
H289 N283 0.985 . S
H290 N287 0.984 . S
H291 N287 0.985 . S
H292 N286 0.984 . S
H293 N286 0.984 . S
H294 N282 0.984 1_455 S
H295 N282 0.985 . S
C155 C133 1.829 . S
C153 C47 1.709 . S
C173 C144 1.734 . S
C171 C109 1.691 . S
C191 C132 1.829 . S
C189 C29 1.736 1_565 S
C209 C145 1.734 . S
C207 C91 1.726 1_455 S
C227 C147 1.627 . S
C225 C53 1.627 1_565 S
C245 C131 1.457 . S
C243 C115 1.523 1_455 S
C263 C146 1.627 . S
C261 C35 1.619 . S
C279 C97 1.510 . S
C281 C130 1.459 . S
