# Generated by pormake.
# Topology anh, (6,3)-cn, num edge types: 1
# Building blocks:
#     Node 0, Type 0, BuildingBlock: MIFKUJ_clean_sbu_0, # of connection points: 6
#     Node 1, Type 0, BuildingBlock: MIFKUJ_clean_sbu_0, # of connection points: 6
#     Node 2, Type 0, BuildingBlock: MIFKUJ_clean_sbu_0, # of connection points: 6
#     Node 3, Type 1, BuildingBlock: PAMTOO_clean_linker_0, # of connection points: 3
#     Node 4, Type 1, BuildingBlock: PAMTOO_clean_linker_0, # of connection points: 3
#     Node 5, Type 1, BuildingBlock: PAMTOO_clean_linker_0, # of connection points: 3
#     Node 6, Type 1, BuildingBlock: PAMTOO_clean_linker_0, # of connection points: 3
#     Node 7, Type 1, BuildingBlock: PAMTOO_clean_linker_0, # of connection points: 3
#     Node 8, Type 1, BuildingBlock: PAMTOO_clean_linker_0, # of connection points: 3
#     Edge 9, Type (0, 1), BuildingBlock: EZIPEK_clean_linker_0, # of connection points: 2
#     Edge 10, Type (0, 1), BuildingBlock: EZIPEK_clean_linker_0, # of connection points: 2
#     Edge 11, Type (0, 1), BuildingBlock: EZIPEK_clean_linker_0, # of connection points: 2
#     Edge 12, Type (0, 1), BuildingBlock: EZIPEK_clean_linker_0, # of connection points: 2
#     Edge 13, Type (0, 1), BuildingBlock: EZIPEK_clean_linker_0, # of connection points: 2
#     Edge 14, Type (0, 1), BuildingBlock: EZIPEK_clean_linker_0, # of connection points: 2
#     Edge 15, Type (0, 1), BuildingBlock: EZIPEK_clean_linker_0, # of connection points: 2
#     Edge 16, Type (0, 1), BuildingBlock: EZIPEK_clean_linker_0, # of connection points: 2
#     Edge 17, Type (0, 1), BuildingBlock: EZIPEK_clean_linker_0, # of connection points: 2
#     Edge 18, Type (0, 1), BuildingBlock: EZIPEK_clean_linker_0, # of connection points: 2
#     Edge 19, Type (0, 1), BuildingBlock: EZIPEK_clean_linker_0, # of connection points: 2
#     Edge 20, Type (0, 1), BuildingBlock: EZIPEK_clean_linker_0, # of connection points: 2
#     Edge 21, Type (0, 1), BuildingBlock: EZIPEK_clean_linker_0, # of connection points: 2
#     Edge 22, Type (0, 1), BuildingBlock: EZIPEK_clean_linker_0, # of connection points: 2
#     Edge 23, Type (0, 1), BuildingBlock: EZIPEK_clean_linker_0, # of connection points: 2
#     Edge 24, Type (0, 1), BuildingBlock: EZIPEK_clean_linker_0, # of connection points: 2
#     Edge 25, Type (0, 1), BuildingBlock: EZIPEK_clean_linker_0, # of connection points: 2
#     Edge 26, Type (0, 1), BuildingBlock: EZIPEK_clean_linker_0, # of connection points: 2
# Relax obj value: 0.080
# Max RMSD: 0.147
# Mean RMSD: 0.112
data_MOF--net-anh--node1-MIFKUJ_clean_sbu_0--node2-PAMTOO_clean_linker_0--edge1-EZIPEK_clean_linker_0
_symmetry_space_group_name_H-M    P1
_symmetry_Int_Tables_number       1
_symmetry_cell_setting            triclinic
loop_
_symmetry_equiv_pos_as_xyz
'x, y, z'
_cell_length_a     24.269506
_cell_length_b     23.971534
_cell_length_c     33.096484
_cell_angle_alpha  88.220451
_cell_angle_beta   93.84687
_cell_angle_gamma 120.12071
loop_
_atom_site_label
_atom_site_type_symbol
_atom_site_fract_x
_atom_site_fract_y
_atom_site_fract_z
_atom_type_partial_charge
Zn0 Zn 0.13496 0.57939 0.16265 0.0
Zn1 Zn 0.93355 0.48832 0.17488 0.0
C2 C 0.22678 0.5478 0.16213 0.0
O3 O 0.2473 0.59347 0.1896 0.0
C4 C 0.83896 0.52301 0.1708 0.0
O5 O 0.83821 0.5073 0.13305 0.0
O6 O 0.19521 0.6751 0.15677 0.0
O7 O 0.0494 0.55267 0.1405 0.0
O8 O 0.95378 0.51893 0.1162 0.0
C9 C 0.21772 0.69855 0.12277 0.0
O10 O 0.19956 0.6605 0.09101 0.0
O11 O 0.17364 0.52995 0.14273 0.0
C12 C 0.83447 0.35816 0.19347 0.0
O13 O 0.83167 0.38608 0.22604 0.0
O14 O 0.8767 0.39097 0.16856 0.0
O15 O 0.01438 0.5146 0.21405 0.0
O16 O 0.11895 0.55609 0.22065 0.0
O17 O 0.87911 0.52134 0.19668 0.0
C18 C 0.01238 0.54491 0.11013 0.0
C19 C 0.06532 0.53152 0.23665 0.0
Zn20 Zn 0.63707 0.13511 0.48148 0.0
Zn21 Zn 0.54395 0.93468 0.48891 0.0
C22 C 0.76682 0.21629 0.50939 0.0
O23 O 0.74232 0.20181 0.54498 0.0
C24 C 0.41295 0.83521 0.47116 0.0
O25 O 0.43141 0.83772 0.43441 0.0
O26 O 0.60602 0.19828 0.48196 0.0
O27 O 0.59905 0.08317 0.43038 0.0
O28 O 0.54735 0.9762 0.43536 0.0
C29 C 0.61474 0.23366 0.45092 0.0
O30 O 0.63927 0.22464 0.41925 0.0
O31 O 0.73133 0.19111 0.47754 0.0
C32 C 0.58688 0.8471 0.51197 0.0
O33 O 0.56388 0.84919 0.54632 0.0
O34 O 0.58601 0.88195 0.48263 0.0
O35 O 0.57753 0.98619 0.54012 0.0
O36 O 0.62354 0.09291 0.53567 0.0
O37 O 0.45235 0.87248 0.49851 0.0
C38 C 0.56688 0.02735 0.41468 0.0
C39 C 0.60441 0.0417 0.55619 0.0
Zn40 Zn 0.66463 0.52613 0.82972 0.0
Zn41 Zn 0.53898 0.58459 0.82397 0.0
C42 C 0.64568 0.39964 0.84068 0.0
O43 O 0.69293 0.4328 0.86747 0.0
C44 C 0.55618 0.70896 0.80161 0.0
O45 O 0.50126 0.6721 0.78179 0.0
O46 O 0.75872 0.55521 0.83698 0.0
O47 O 0.65226 0.57548 0.78199 0.0
O48 O 0.54883 0.54103 0.77533 0.0
C49 C 0.80058 0.58162 0.81091 0.0
O50 O 0.78545 0.59647 0.77497 0.0
O51 O 0.62205 0.42881 0.81943 0.0
C52 C 0.40455 0.51786 0.84651 0.0
O53 O 0.41778 0.47854 0.86794 0.0
O54 O 0.44678 0.56149 0.8253 0.0
O55 O 0.56263 0.56364 0.87864 0.0
O56 O 0.63797 0.53609 0.88386 0.0
O57 O 0.58538 0.68297 0.82006 0.0
C58 C 0.60066 0.55394 0.76001 0.0
C59 C 0.59858 0.54805 0.89942 0.0
H60 H 0.63807 0.12533 0.2526 0.0
H61 H 0.46464 0.94934 0.22085 0.0
H62 H 0.57785 0.07568 0.12717 0.0
H63 H 0.43099 0.99487 0.09827 0.0
C64 C 0.4202 0.96718 0.12701 0.0
O65 O 0.47391 0.96572 0.14251 0.0
H66 H 0.40784 0.99246 0.14922 0.0
C67 C 0.60412 0.09251 0.22964 0.0
C68 C 0.61432 0.1075 0.18867 0.0
C69 C 0.55047 0.03584 0.24137 0.0
C70 C 0.50622 0.99347 0.2119 0.0
C71 C 0.51603 0.00778 0.17071 0.0
C72 C 0.57028 0.06473 0.159 0.0
H73 H 0.62838 0.66071 0.58967 0.0
H74 H 0.61085 0.47531 0.5717 0.0
H75 H 0.63265 0.59916 0.46988 0.0
H76 H 0.55125 0.46329 0.4478 0.0
C77 C 0.56466 0.44182 0.47417 0.0
O78 O 0.62114 0.48826 0.49323 0.0
H79 H 0.52715 0.42497 0.49635 0.0
C80 C 0.62804 0.62534 0.5698 0.0
C81 C 0.63032 0.63622 0.52805 0.0
C82 C 0.62061 0.5674 0.58597 0.0
C83 C 0.61793 0.52095 0.55984 0.0
C84 C 0.6238 0.53315 0.51816 0.0
C85 C 0.63055 0.59101 0.50227 0.0
H86 H 0.98685 0.58911 0.93071 0.0
H87 H 0.15888 0.57908 0.94514 0.0
H88 H 0.07874 0.58211 0.82566 0.0
H89 H 0.1333 0.49371 0.83121 0.0
C90 C 0.16358 0.51392 0.85954 0.0
O91 O 0.17083 0.57365 0.86738 0.0
H92 H 0.13552 0.47787 0.88266 0.0
C93 C 0.02614 0.58824 0.9175 0.0
C94 C 0.02827 0.58805 0.87532 0.0
C95 C 0.07272 0.58438 0.94271 0.0
C96 C 0.12282 0.58201 0.92564 0.0
C97 C 0.12466 0.58032 0.88348 0.0
C98 C 0.07762 0.58391 0.85825 0.0
H99 H 0.9795 0.39827 0.4099 0.0
H100 H 0.14298 0.58892 0.42618 0.0
H101 H 0.04823 0.47834 0.52934 0.0
H102 H 0.15038 0.64482 0.54604 0.0
C103 C 0.15614 0.64167 0.51337 0.0
O104 O 0.14909 0.58228 0.50512 0.0
H105 H 0.11654 0.64717 0.49919 0.0
C106 C 0.01386 0.43769 0.42931 0.0
C107 C 0.00741 0.43283 0.47119 0.0
C108 C 0.06082 0.49501 0.41221 0.0
C109 C 0.10539 0.5447 0.43834 0.0
C110 C 0.10216 0.53762 0.48041 0.0
C111 C 0.05219 0.48249 0.49684 0.0
H112 H 0.61304 0.94603 0.72568 0.0
H113 H 0.63686 0.13349 0.74374 0.0
H114 H 0.61362 0.00987 0.84611 0.0
H115 H 0.54966 0.10052 0.85541 0.0
C116 C 0.57211 0.12695 0.8276 0.0
O117 O 0.62559 0.12198 0.82202 0.0
H118 H 0.53342 0.10023 0.80403 0.0
C119 C 0.61756 0.98289 0.74606 0.0
C120 C 0.61408 0.97132 0.7878 0.0
C121 C 0.62502 0.04077 0.73019 0.0
C122 C 0.63025 0.08837 0.75611 0.0
C123 C 0.62451 0.07687 0.79777 0.0
C124 C 0.61738 0.01859 0.81384 0.0
H125 H 0.66708 0.54277 0.08334 0.0
H126 H 0.48385 0.52954 0.06926 0.0
H127 H 0.56484 0.52735 0.18852 0.0
H128 H 0.41217 0.43294 0.17446 0.0
C129 C 0.40913 0.4617 0.14846 0.0
O130 O 0.46529 0.51983 0.14671 0.0
H131 H 0.40166 0.42994 0.1226 0.0
C132 C 0.62547 0.53843 0.09672 0.0
C133 C 0.62213 0.53569 0.13887 0.0
C134 C 0.57576 0.53603 0.07166 0.0
C135 C 0.52215 0.53069 0.08865 0.0
C136 C 0.51759 0.52599 0.13068 0.0
C137 C 0.56792 0.52946 0.15595 0.0
C138 C 0.28704 0.51567 0.11825 0.0
C139 C 0.26416 0.5158 0.15647 0.0
C140 C 0.33639 0.48304 0.18928 0.0
C141 C 0.35509 0.47594 0.15075 0.0
N142 N 0.33993 0.47744 0.07726 0.0
N143 N 0.25266 0.48091 0.22599 0.0
C144 C 0.32752 0.48921 0.11479 0.0
C145 C 0.28402 0.49311 0.19115 0.0
N146 N 0.27372 0.54451 0.08574 0.0
N147 N 0.37069 0.48464 0.2242 0.0
H148 H 0.21283 0.48626 0.22813 0.0
H149 H 0.26179 0.45868 0.25105 0.0
H150 H 0.41287 0.48316 0.22511 0.0
H151 H 0.36151 0.49573 0.25229 0.0
H152 H 0.29602 0.55351 0.05855 0.0
H153 H 0.24444 0.56458 0.08682 0.0
H154 H 0.3145 0.47854 0.05089 0.0
H155 H 0.37178 0.46193 0.07192 0.0
C156 C 0.83884 0.33488 0.50558 0.0
C157 C 0.83105 0.27217 0.50541 0.0
C158 C 0.94363 0.31733 0.49215 0.0
C159 C 0.94902 0.37877 0.48715 0.0
N160 N 0.90124 0.4463 0.48507 0.0
N161 N 0.87341 0.20154 0.4977 0.0
C162 C 0.89673 0.38786 0.49326 0.0
C163 C 0.88287 0.26274 0.49872 0.0
N164 N 0.79083 0.34377 0.51743 0.0
N165 N -0.00316 0.31168 0.49102 0.0
H166 H 0.83009 0.16087 0.50411 0.0
H167 H 0.90712 0.19058 0.48861 0.0
H168 H 0.04183 0.35104 0.4861 0.0
H169 H -0.00234 0.26947 0.49799 0.0
H170 H 0.79641 0.38895 0.52275 0.0
H171 H 0.74633 0.30593 0.52479 0.0
H172 H 0.86236 0.45363 0.48377 0.0
H173 H 0.94311 0.48694 0.47663 0.0
C174 C 0.53353 0.79531 0.82073 0.0
C175 C 0.5776 0.77849 0.80709 0.0
C176 C 0.65389 0.89321 0.79715 0.0
C177 C 0.60497 0.90793 0.80248 0.0
N178 N 0.49578 0.87162 0.81677 0.0
N179 N 0.67981 0.81147 0.78067 0.0
C180 C 0.54434 0.85883 0.81422 0.0
C181 C 0.63842 0.82755 0.79556 0.0
N182 N 0.48183 0.75074 0.84057 0.0
N183 N 0.71502 0.94233 0.79332 0.0
H184 H 0.67014 0.76405 0.77873 0.0
H185 H 0.72172 0.84468 0.76747 0.0
H186 H 0.72742 0.99074 0.79462 0.0
H187 H 0.75398 0.9353 0.79289 0.0
H188 H 0.45122 0.76189 0.85442 0.0
H189 H 0.47362 0.70439 0.84708 0.0
H190 H 0.44864 0.83579 0.82028 0.0
H191 H 0.50147 0.91742 0.81247 0.0
C192 C 0.79389 0.59609 0.16764 0.0
C193 C 0.79026 0.53837 0.1821 0.0
C194 C 0.6744 0.48524 0.18214 0.0
C195 C 0.67738 0.54091 0.16389 0.0
N196 N 0.73797 0.65529 0.15248 0.0
N197 N 0.73269 0.44118 0.22004 0.0
C198 C 0.73682 0.59878 0.16162 0.0
C199 C 0.73218 0.48741 0.19533 0.0
N200 N 0.8514 0.64661 0.15769 0.0
N201 N 0.61735 0.4292 0.18409 0.0
H202 H 0.7755 0.44547 0.2318 0.0
H203 H 0.69208 0.40427 0.23265 0.0
H204 H 0.57379 0.42567 0.17495 0.0
H205 H 0.61369 0.38528 0.19255 0.0
H206 H 0.85671 0.68765 0.14264 0.0
H207 H 0.89392 0.64605 0.16374 0.0
H208 H 0.77964 0.70002 0.15281 0.0
H209 H 0.69617 0.65765 0.1481 0.0
C210 C 0.33894 0.74124 0.51269 0.0
C211 C 0.34761 0.78639 0.48158 0.0
C212 C 0.23191 0.73304 0.46725 0.0
C213 C 0.22256 0.69339 0.50215 0.0
N214 N 0.26914 0.6642 0.56045 0.0
N215 N 0.30256 0.83348 0.43441 0.0
C216 C 0.27669 0.69908 0.52565 0.0
C217 C 0.29418 0.78463 0.46032 0.0
N218 N 0.38975 0.73602 0.52844 0.0
N219 N 0.18267 0.72054 0.43953 0.0
H220 H 0.34734 0.87258 0.42879 0.0
H221 H 0.26483 0.83849 0.42167 0.0
H222 H 0.13623 0.6826 0.44149 0.0
H223 H 0.18946 0.7439 0.41168 0.0
H224 H 0.3852 0.69873 0.54751 0.0
H225 H 0.43607 0.7651 0.51941 0.0
H226 H 0.30679 0.67357 0.5814 0.0
H227 H 0.22526 0.62846 0.57012 0.0
C228 C 0.61186 0.29086 0.87121 0.0
C229 C 0.62178 0.32923 0.836 0.0
C230 C 0.5926 0.23413 0.79426 0.0
C231 C 0.59043 0.198 0.8299 0.0
N232 N 0.61929 0.20209 0.90178 0.0
N233 N 0.63687 0.34028 0.7642 0.0
C234 C 0.60648 0.22935 0.86824 0.0
C235 C 0.61607 0.30169 0.79749 0.0
N236 N 0.60577 0.31222 0.90753 0.0
N237 N 0.57215 0.2048 0.75719 0.0
H238 H 0.65702 0.39013 0.76535 0.0
H239 H 0.6406 0.32373 0.73634 0.0
H240 H 0.5568 0.15652 0.75204 0.0
H241 H 0.56567 0.22777 0.73158 0.0
H242 H 0.59287 0.2834 0.93334 0.0
H243 H 0.60615 0.3556 0.91067 0.0
H244 H 0.63639 0.22614 0.92948 0.0
H245 H 0.6208 0.15946 0.90096 0.0
C246 C 0.55821 0.73739 0.48896 0.0
C247 C 0.60473 0.79761 0.50598 0.0
C248 C 0.67682 0.75529 0.52168 0.0
C249 C 0.62565 0.69239 0.51233 0.0
N250 N 0.51554 0.62209 0.48923 0.0
N251 N 0.70932 0.86633 0.53736 0.0
C252 C 0.56609 0.68303 0.49569 0.0
C253 C 0.66481 0.80758 0.52155 0.0
N254 N 0.50618 0.73203 0.46679 0.0
N255 N 0.73651 0.7644 0.53088 0.0
H256 H 0.70276 0.9062 0.53599 0.0
H257 H 0.75129 0.87493 0.55334 0.0
H258 H 0.74608 0.72652 0.53081 0.0
H259 H 0.77714 0.80959 0.53498 0.0
H260 H 0.47377 0.69084 0.45039 0.0
H261 H 0.49872 0.7709 0.46152 0.0
H262 H 0.46903 0.61229 0.48226 0.0
H263 H 0.51873 0.58057 0.49362 0.0
C264 C 0.91869 0.64524 0.8284 0.0
C265 C 0.86295 0.58521 0.81928 0.0
C266 C 0.91979 0.52751 0.83972 0.0
C267 C 0.97516 0.58739 0.8499 0.0
N268 N 0.03287 0.7032 0.84601 0.0
N269 N 0.81416 0.47147 0.80574 0.0
C270 C 0.9764 0.64636 0.84143 0.0
C271 C 0.8648 0.52699 0.82156 0.0
N272 N 0.91552 0.70061 0.82647 0.0
N273 N 0.91891 0.47113 0.84917 0.0
H274 H 0.77349 0.46984 0.79182 0.0
H275 H 0.81453 0.42852 0.80303 0.0
H276 H 0.95904 0.46959 0.86106 0.0
H277 H 0.87774 0.426 0.84734 0.0
H278 H 0.95224 0.74514 0.83705 0.0
H279 H 0.8744 0.70145 0.81606 0.0
H280 H 0.03868 0.74776 0.83712 0.0
H281 H 0.07559 0.70512 0.85577 0.0
C282 C 0.25273 0.81634 0.12887 0.0
C283 C 0.26702 0.76767 0.1195 0.0
C284 C 0.37523 0.85084 0.10346 0.0
C285 C 0.36445 0.89875 0.11915 0.0
N286 N 0.28637 0.93041 0.12893 0.0
N287 N 0.34409 0.73799 0.10209 0.0
C288 C 0.30114 0.88255 0.12683 0.0
C289 C 0.32857 0.78472 0.10734 0.0
N290 N 0.19305 0.79915 0.14017 0.0
N291 N 0.42852 0.86869 0.08282 0.0
H292 H 0.31224 0.68893 0.10573 0.0
H293 H 0.39039 0.74817 0.09792 0.0
H294 H 0.46124 0.91676 0.07669 0.0
H295 H 0.43605 0.83611 0.06738 0.0
H296 H 0.1815 0.83103 0.15261 0.0
H297 H 0.15508 0.75181 0.13886 0.0
H298 H 0.24041 0.92226 0.13143 0.0
H299 H 0.31889 0.97867 0.12323 0.0
C300 C 0.53537 0.27025 0.45725 0.0
C301 C 0.59875 0.28564 0.45088 0.0
C302 C 0.63034 0.39953 0.4439 0.0
C303 C 0.5721 0.38625 0.45974 0.0
N304 N 0.46275 0.30778 0.47209 0.0
N305 N 0.70856 0.36603 0.44067 0.0
C306 C 0.52239 0.32106 0.46339 0.0
C307 C 0.64666 0.35047 0.44431 0.0
N308 N 0.48738 0.20721 0.45554 0.0
N309 N 0.66914 0.45847 0.42741 0.0
H310 H 0.72338 0.33204 0.4415 0.0
H311 H 0.74627 0.41345 0.4405 0.0
H312 H 0.65653 0.49415 0.42438 0.0
H313 H 0.70957 0.46889 0.41234 0.0
H314 H 0.43921 0.19242 0.45645 0.0
H315 H 0.49516 0.16923 0.44984 0.0
H316 H 0.42728 0.26282 0.48145 0.0
H317 H 0.44823 0.34201 0.46955 0.0
C318 C 0.32442 0.52199 0.88909 0.0
C319 C 0.34342 0.51695 0.85032 0.0
C320 C 0.25485 0.52741 0.81863 0.0
C321 C 0.2288 0.5197 0.85698 0.0
N322 N 0.23986 0.5093 0.92978 0.0
N323 N 0.32084 0.50527 0.77795 0.0
C324 C 0.26387 0.51684 0.89255 0.0
C325 C 0.30703 0.51708 0.815 0.0
N326 N 0.3658 0.53594 0.92239 0.0
N327 N 0.23169 0.54715 0.78588 0.0
H328 H 0.35753 0.4956 0.77401 0.0
H329 H 0.29176 0.49849 0.75178 0.0
H330 H 0.19665 0.55985 0.78766 0.0
H331 H 0.25288 0.55881 0.75818 0.0
H332 H 0.35741 0.54732 0.9506 0.0
H333 H 0.4117 0.54308 0.92113 0.0
H334 H 0.25888 0.49764 0.95565 0.0
H335 H 0.19917 0.51145 0.93489 0.0
C336 C 0.78754 0.23795 0.19039 0.0
C337 C 0.78119 0.29291 0.18247 0.0
C338 C 0.66566 0.22431 0.16922 0.0
C339 C 0.67157 0.16928 0.17832 0.0
N340 N 0.7378 0.12113 0.18757 0.0
N341 N 0.71891 0.33833 0.15321 0.0
C342 C 0.73271 0.17541 0.18542 0.0
C343 C 0.72164 0.28593 0.16812 0.0
N344 N 0.84526 0.24573 0.20438 0.0
N345 N 0.60652 0.21823 0.16406 0.0
H346 H 0.75938 0.38386 0.15168 0.0
H347 H 0.6781 0.33569 0.13895 0.0
H348 H 0.56437 0.17378 0.16364 0.0
H349 H 0.59895 0.25735 0.1626 0.0
H350 H 0.85179 0.20809 0.21519 0.0
H351 H 0.88654 0.2909 0.20705 0.0
H352 H 0.78113 0.12184 0.18946 0.0
H353 H 0.69818 0.07494 0.18386 0.0
C354 C 0.05785 0.61954 0.0514 0.0
C355 C 0.03484 0.55753 0.06875 0.0
C356 C 0.04004 0.51395 0.00416 0.0
C357 C 0.06482 0.57637 0.98693 0.0
N358 N 0.1089 0.69075 -0.00485 0.0
N359 N 0.0175 0.44955 0.0652 0.0
C360 C 0.07737 0.62997 0.01094 0.0
C361 C 0.03031 0.50595 0.04622 0.0
N362 N 0.05937 0.66779 0.07328 0.0
N363 N 0.02269 0.46173 0.97998 0.0
H364 H 0.00919 0.4416 0.09594 0.0
H365 H 0.02058 0.41281 0.05144 0.0
H366 H 0.02908 0.46522 0.94898 0.0
H367 H -0.00265 0.41425 0.98995 0.0
H368 H 0.06918 0.71219 0.06113 0.0
H369 H 0.04713 0.66206 0.10337 0.0
H370 H 0.12509 0.73252 0.01213 0.0
H371 H 0.12361 0.6997 0.96557 0.0
C372 C 0.51809 0.04664 0.35063 0.0
C373 C 0.55496 0.02174 0.37025 0.0
C374 C 0.57129 0.98893 0.30478 0.0
C375 C 0.54249 0.02202 0.28512 0.0
N376 N 0.48981 0.08418 0.28801 0.0
N377 N 0.62254 0.97498 0.36643 0.0
C378 C 0.51567 0.0509 0.30769 0.0
C379 C 0.5824 0.9935 0.34752 0.0
N380 N 0.48434 0.06476 0.37309 0.0
N381 N 0.58846 0.95364 0.28245 0.0
H382 H 0.63318 0.97856 0.39761 0.0
H383 H 0.64971 0.96105 0.351 0.0
H384 H 0.58221 0.95053 0.25095 0.0
H385 H 0.60355 0.92294 0.2952 0.0
H386 H 0.45176 0.07755 0.36055 0.0
H387 H 0.48483 0.06183 0.40463 0.0
H388 H 0.47668 0.11315 0.30269 0.0
H389 H 0.48436 0.08541 0.25651 0.0
C390 C 0.56609 0.57157 0.68918 0.0
C391 C 0.60286 0.55254 0.71511 0.0
C392 C 0.65343 0.54355 0.65575 0.0
C393 C 0.61103 0.555 0.63 0.0
N394 N 0.513 0.55834 0.62295 0.0
N395 N 0.66821 0.50219 0.72046 0.0
C396 C 0.56249 0.56152 0.647 0.0
C397 C 0.64255 0.53291 0.69765 0.0
N398 N 0.53873 0.60395 0.70389 0.0
N399 N 0.70568 0.54575 0.64095 0.0
H400 H 0.65872 0.49019 0.75067 0.0
H401 H 0.69288 0.48226 0.70808 0.0
H402 H 0.71689 0.55565 0.61076 0.0
H403 H 0.74115 0.54401 0.65961 0.0
H404 H 0.51574 0.62273 0.68514 0.0
H405 H 0.54673 0.62016 0.73367 0.0
H406 H 0.47409 0.55814 0.63472 0.0
H407 H 0.50752 0.5486 0.59196 0.0
C408 C 0.55731 0.03245 0.62235 0.0
C409 C 0.61126 0.04668 0.60067 0.0
C410 C 0.67709 0.06962 0.66409 0.0
C411 C 0.62157 0.04841 0.68576 0.0
N412 N 0.50786 0.00487 0.68671 0.0
N413 N 0.72133 0.07435 0.59958 0.0
C414 C 0.56141 0.02893 0.66523 0.0
C415 C 0.67109 0.0646 0.62115 0.0
N416 N 0.50266 0.02377 0.60189 0.0
N417 N 0.73541 0.09513 0.68468 0.0
H418 H 0.71878 0.07193 0.56803 0.0
H419 H 0.76423 0.0807 0.6128 0.0
H420 H 0.74106 0.0986 0.71621 0.0
H421 H 0.77852 0.11736 0.6707 0.0
H422 H 0.464 0.02024 0.61603 0.0
H423 H 0.49772 0.02523 0.57038 0.0
H424 H 0.46169 0.98245 0.67337 0.0
H425 H 0.50907 0.00357 0.71827 0.0
C426 C 0.62683 0.60204 0.96675 0.0
C427 C 0.5944 0.54443 0.94358 0.0
C428 C 0.55168 0.48086 0.00462 0.0
C429 C 0.58038 0.53897 0.02735 0.0
N430 N 0.63832 0.65514 0.03051 0.0
N431 N 0.52018 0.43019 0.9383 0.0
C432 C 0.61609 0.59974 0.00854 0.0
C433 C 0.55523 0.48405 0.9619 0.0
N434 N 0.66908 0.65852 0.94889 0.0
N435 N 0.52263 0.42274 0.02406 0.0
H436 H 0.5231 0.43041 0.90698 0.0
H437 H 0.48513 0.38619 0.94919 0.0
H438 H 0.51774 0.41852 0.05526 0.0
H439 H 0.50715 0.37876 0.00987 0.0
H440 H 0.69941 0.70086 0.96488 0.0
H441 H 0.67747 0.66201 0.91815 0.0
H442 H 0.65877 0.70096 0.01777 0.0
H443 H 0.63207 0.65521 0.06139 0.0
C444 C 0.00561 0.47991 0.30041 0.0
C445 C 0.06338 0.52221 0.28173 0.0
C446 C 0.12001 0.53375 0.34767 0.0
C447 C 0.06168 0.50377 0.36718 0.0
N448 N 0.94875 0.46957 0.35947 0.0
N449 N 0.17333 0.60913 0.29505 0.0
C450 C 0.00416 0.48333 0.34288 0.0
C451 C 0.12028 0.55517 0.30738 0.0
N452 N 0.95339 0.4336 0.279 0.0
N453 N 0.17473 0.54047 0.36657 0.0
H454 H 0.17335 0.63425 0.2688 0.0
H455 H 0.21396 0.63462 0.31437 0.0
H456 H 0.1755 0.52001 0.39473 0.0
H457 H 0.21709 0.5593 0.35175 0.0
H458 H 0.9122 0.40053 0.29311 0.0
H459 H 0.95471 0.42138 0.24933 0.0
H460 H 0.90718 0.45774 0.34165 0.0
H461 H 0.94665 0.47815 0.38987 0.0
loop_
_geom_bond_atom_site_label_1
_geom_bond_atom_site_label_2
_geom_bond_distance
_geom_bond_site_symmetry_2
_ccdc_geom_bond_type
Zn0 O6 1.969 . S
Zn0 O7 1.965 . S
Zn0 O11 2.024 . S
Zn0 O16 1.969 . S
Zn1 O8 1.969 . S
Zn1 O14 1.969 . S
Zn1 O15 1.965 . S
Zn1 O17 2.024 . S
C2 O3 1.229 . S
C2 O11 1.058 . S
O3 C2 1.229 . S
C4 O5 1.229 . S
C4 O17 1.058 . S
O5 C4 1.229 . S
O6 Zn0 1.969 . S
O6 C9 1.267 . S
O7 Zn0 1.965 . S
O7 C18 1.260 . S
O8 Zn1 1.969 . S
O8 C18 1.258 1_655 S
C9 O6 1.267 . S
C9 O10 1.228 . S
O10 C9 1.228 . S
O11 Zn0 2.024 . S
O11 C2 1.058 . S
C12 O13 1.228 . S
C12 O14 1.267 . S
O13 C12 1.228 . S
O14 Zn1 1.969 . S
O14 C12 1.267 . S
O15 Zn1 1.965 . S
O15 C19 1.260 1_655 S
O16 Zn0 1.969 . S
O16 C19 1.258 . S
O17 Zn1 2.024 . S
O17 C4 1.058 . S
C18 O7 1.260 . S
C18 O8 1.258 1_455 S
C19 O15 1.260 1_455 S
C19 O16 1.258 . S
Zn20 O26 1.969 . S
Zn20 O27 1.965 . S
Zn20 O31 2.024 . S
Zn20 O36 1.969 . S
Zn21 O28 1.969 . S
Zn21 O34 1.969 . S
Zn21 O35 1.965 . S
Zn21 O37 2.024 . S
C22 O23 1.229 . S
C22 O31 1.058 . S
O23 C22 1.229 . S
C24 O25 1.229 . S
C24 O37 1.058 . S
O25 C24 1.229 . S
O26 Zn20 1.969 . S
O26 C29 1.267 . S
O27 Zn20 1.965 . S
O27 C38 1.260 . S
O28 Zn21 1.969 . S
O28 C38 1.258 1_565 S
C29 O26 1.267 . S
C29 O30 1.228 . S
O30 C29 1.228 . S
O31 Zn20 2.024 . S
O31 C22 1.058 . S
C32 O33 1.228 . S
C32 O34 1.267 . S
O33 C32 1.228 . S
O34 Zn21 1.969 . S
O34 C32 1.267 . S
O35 Zn21 1.965 . S
O35 C39 1.260 1_565 S
O36 Zn20 1.969 . S
O36 C39 1.258 . S
O37 Zn21 2.024 . S
O37 C24 1.058 . S
C38 O27 1.260 . S
C38 O28 1.258 1_545 S
C39 O35 1.260 1_545 S
C39 O36 1.258 . S
Zn40 O46 1.969 . S
Zn40 O47 1.965 . S
Zn40 O51 2.024 . S
Zn40 O56 1.969 . S
Zn41 O48 1.969 . S
Zn41 O54 1.969 . S
Zn41 O55 1.965 . S
Zn41 O57 2.024 . S
C42 O43 1.229 . S
C42 O51 1.058 . S
O43 C42 1.229 . S
C44 O45 1.229 . S
C44 O57 1.058 . S
O45 C44 1.229 . S
O46 Zn40 1.969 . S
O46 C49 1.267 . S
O47 Zn40 1.965 . S
O47 C58 1.260 . S
O48 Zn41 1.969 . S
O48 C58 1.258 . S
C49 O46 1.267 . S
C49 O50 1.228 . S
O50 C49 1.228 . S
O51 Zn40 2.024 . S
O51 C42 1.058 . S
C52 O53 1.228 . S
C52 O54 1.267 . S
O53 C52 1.228 . S
O54 Zn41 1.969 . S
O54 C52 1.267 . S
O55 Zn41 1.965 . S
O55 C59 1.260 . S
O56 Zn40 1.969 . S
O56 C59 1.258 . S
O57 Zn41 2.024 . S
O57 C44 1.058 . S
C58 O47 1.260 . S
C58 O48 1.258 . S
C59 O55 1.260 . S
C59 O56 1.258 . S
H60 C67 0.929 . S
H61 C70 0.930 1_565 S
H62 C72 0.929 . S
H63 C64 0.969 . S
C64 H63 0.969 . S
C64 O65 1.550 . S
C64 H66 0.973 . S
O65 C64 1.550 . S
O65 C71 1.412 1_565 S
H66 C64 0.973 . S
C67 H60 0.929 . S
C67 C68 1.400 . S
C67 C69 1.364 . S
C68 C67 1.400 . S
C68 C72 1.377 . S
C69 C67 1.364 . S
C69 C70 1.374 . S
C70 H61 0.930 1_545 S
C70 C69 1.374 . S
C70 C71 1.383 . S
C71 O65 1.412 1_545 S
C71 C70 1.383 . S
C71 C72 1.394 . S
C72 H62 0.929 . S
C72 C68 1.377 . S
C72 C71 1.394 . S
H73 C80 0.929 . S
H74 C83 0.930 . S
H75 C85 0.929 . S
H76 C77 0.969 . S
C77 H76 0.969 . S
C77 O78 1.550 . S
C77 H79 0.973 . S
O78 C77 1.550 . S
O78 C84 1.412 . S
H79 C77 0.973 . S
C80 H73 0.929 . S
C80 C81 1.400 . S
C80 C82 1.364 . S
C81 C80 1.400 . S
C81 C85 1.377 . S
C82 C80 1.364 . S
C82 C83 1.374 . S
C83 H74 0.930 . S
C83 C82 1.374 . S
C83 C84 1.383 . S
C84 O78 1.412 . S
C84 C83 1.383 . S
C84 C85 1.394 . S
C85 H75 0.929 . S
C85 C81 1.377 . S
C85 C84 1.394 . S
H86 C93 0.929 1_655 S
H87 C96 0.930 . S
H88 C98 0.929 . S
H89 C90 0.969 . S
C90 H89 0.969 . S
C90 O91 1.550 . S
C90 H92 0.973 . S
O91 C90 1.550 . S
O91 C97 1.412 . S
H92 C90 0.973 . S
C93 H86 0.929 1_455 S
C93 C94 1.400 . S
C93 C95 1.364 . S
C94 C93 1.400 . S
C94 C98 1.377 . S
C95 C93 1.364 . S
C95 C96 1.374 . S
C96 H87 0.930 . S
C96 C95 1.374 . S
C96 C97 1.383 . S
C97 O91 1.412 . S
C97 C96 1.383 . S
C97 C98 1.394 . S
C98 H88 0.929 . S
C98 C94 1.377 . S
C98 C97 1.394 . S
H99 C106 0.929 1_655 S
H100 C109 0.930 . S
H101 C111 0.929 . S
H102 C103 0.969 . S
C103 H102 0.969 . S
C103 O104 1.550 . S
C103 H105 0.973 . S
O104 C103 1.550 . S
O104 C110 1.412 . S
H105 C103 0.973 . S
C106 H99 0.929 1_455 S
C106 C107 1.400 . S
C106 C108 1.364 . S
C107 C106 1.400 . S
C107 C111 1.377 . S
C108 C106 1.364 . S
C108 C109 1.374 . S
C109 H100 0.930 . S
C109 C108 1.374 . S
C109 C110 1.383 . S
C110 O104 1.412 . S
C110 C109 1.383 . S
C110 C111 1.394 . S
C111 H101 0.929 . S
C111 C107 1.377 . S
C111 C110 1.394 . S
H112 C119 0.929 . S
H113 C122 0.930 . S
H114 C124 0.929 . S
H115 C116 0.969 . S
C116 H115 0.969 . S
C116 O117 1.550 . S
C116 H118 0.973 . S
O117 C116 1.550 . S
O117 C123 1.412 . S
H118 C116 0.973 . S
C119 H112 0.929 . S
C119 C120 1.400 . S
C119 C121 1.364 1_565 S
C120 C119 1.400 . S
C120 C124 1.377 1_565 S
C121 C119 1.364 1_545 S
C121 C122 1.374 . S
C122 H113 0.930 . S
C122 C121 1.374 . S
C122 C123 1.383 . S
C123 O117 1.412 . S
C123 C122 1.383 . S
C123 C124 1.394 . S
C124 H114 0.929 . S
C124 C120 1.377 1_545 S
C124 C123 1.394 . S
H125 C132 0.929 . S
H126 C135 0.930 . S
H127 C137 0.929 . S
H128 C129 0.969 . S
C129 H128 0.969 . S
C129 O130 1.550 . S
C129 H131 0.973 . S
O130 C129 1.550 . S
O130 C136 1.412 . S
H131 C129 0.973 . S
C132 H125 0.929 . S
C132 C133 1.400 . S
C132 C134 1.364 . S
C133 C132 1.400 . S
C133 C137 1.377 . S
C134 C132 1.364 . S
C134 C135 1.374 . S
C135 H126 0.930 . S
C135 C134 1.374 . S
C135 C136 1.383 . S
C136 O130 1.412 . S
C136 C135 1.383 . S
C136 C137 1.394 . S
C137 H127 0.929 . S
C137 C133 1.377 . S
C137 C136 1.394 . S
C138 C139 1.363 . S
C138 C144 1.379 . S
C138 N146 1.356 . S
C139 C138 1.363 . S
C139 C145 1.363 . S
C140 C141 1.363 . S
C140 C145 1.379 . S
C140 N147 1.356 . S
C141 C140 1.363 . S
C141 C144 1.363 . S
N142 C144 1.356 . S
N142 H154 0.984 . S
N142 H155 0.985 . S
N143 C145 1.356 . S
N143 H148 0.984 . S
N143 H149 0.985 . S
C144 C138 1.379 . S
C144 C141 1.363 . S
C144 N142 1.356 . S
C145 C139 1.363 . S
C145 C140 1.379 . S
C145 N143 1.356 . S
N146 C138 1.356 . S
N146 H152 0.984 . S
N146 H153 0.984 . S
N147 C140 1.356 . S
N147 H150 0.984 . S
N147 H151 0.985 . S
H148 N143 0.984 . S
H149 N143 0.985 . S
H150 N147 0.984 . S
H151 N147 0.985 . S
H152 N146 0.984 . S
H153 N146 0.984 . S
H154 N142 0.984 . S
H155 N142 0.985 . S
C156 C157 1.363 . S
C156 C162 1.379 . S
C156 N164 1.356 . S
C157 C156 1.363 . S
C157 C163 1.363 . S
C158 C159 1.363 . S
C158 C163 1.379 . S
C158 N165 1.356 1_655 S
C159 C158 1.363 . S
C159 C162 1.363 . S
N160 C162 1.356 . S
N160 H172 0.984 . S
N160 H173 0.985 . S
N161 C163 1.356 . S
N161 H166 0.984 . S
N161 H167 0.985 . S
C162 C156 1.379 . S
C162 C159 1.363 . S
C162 N160 1.356 . S
C163 C157 1.363 . S
C163 C158 1.379 . S
C163 N161 1.356 . S
N164 C156 1.356 . S
N164 H170 0.984 . S
N164 H171 0.984 . S
N165 C158 1.356 1_455 S
N165 H168 0.984 . S
N165 H169 0.985 . S
H166 N161 0.984 . S
H167 N161 0.985 . S
H168 N165 0.984 . S
H169 N165 0.985 . S
H170 N164 0.984 . S
H171 N164 0.984 . S
H172 N160 0.984 . S
H173 N160 0.985 . S
C174 C175 1.363 . S
C174 C180 1.379 . S
C174 N182 1.356 . S
C175 C174 1.363 . S
C175 C181 1.363 . S
C176 C177 1.363 . S
C176 C181 1.379 . S
C176 N183 1.356 . S
C177 C176 1.363 . S
C177 C180 1.363 . S
N178 C180 1.356 . S
N178 H190 0.984 . S
N178 H191 0.985 . S
N179 C181 1.356 . S
N179 H184 0.984 . S
N179 H185 0.985 . S
C180 C174 1.379 . S
C180 C177 1.363 . S
C180 N178 1.356 . S
C181 C175 1.363 . S
C181 C176 1.379 . S
C181 N179 1.356 . S
N182 C174 1.356 . S
N182 H188 0.984 . S
N182 H189 0.984 . S
N183 C176 1.356 . S
N183 H186 0.984 1_565 S
N183 H187 0.985 . S
H184 N179 0.984 . S
H185 N179 0.985 . S
H186 N183 0.984 1_545 S
H187 N183 0.985 . S
H188 N182 0.984 . S
H189 N182 0.984 . S
H190 N178 0.984 . S
H191 N178 0.985 . S
C192 C193 1.363 . S
C192 C198 1.379 . S
C192 N200 1.356 . S
C193 C192 1.363 . S
C193 C199 1.363 . S
C194 C195 1.363 . S
C194 C199 1.379 . S
C194 N201 1.356 . S
C195 C194 1.363 . S
C195 C198 1.363 . S
N196 C198 1.356 . S
N196 H208 0.984 . S
N196 H209 0.985 . S
N197 C199 1.356 . S
N197 H202 0.984 . S
N197 H203 0.985 . S
C198 C192 1.379 . S
C198 C195 1.363 . S
C198 N196 1.356 . S
C199 C193 1.363 . S
C199 C194 1.379 . S
C199 N197 1.356 . S
N200 C192 1.356 . S
N200 H206 0.984 . S
N200 H207 0.984 . S
N201 C194 1.356 . S
N201 H204 0.984 . S
N201 H205 0.985 . S
H202 N197 0.984 . S
H203 N197 0.985 . S
H204 N201 0.984 . S
H205 N201 0.985 . S
H206 N200 0.984 . S
H207 N200 0.984 . S
H208 N196 0.984 . S
H209 N196 0.985 . S
C210 C211 1.363 . S
C210 C216 1.379 . S
C210 N218 1.356 . S
C211 C210 1.363 . S
C211 C217 1.363 . S
C212 C213 1.363 . S
C212 C217 1.379 . S
C212 N219 1.356 . S
C213 C212 1.363 . S
C213 C216 1.363 . S
N214 C216 1.356 . S
N214 H226 0.984 . S
N214 H227 0.985 . S
N215 C217 1.356 . S
N215 H220 0.984 . S
N215 H221 0.985 . S
C216 C210 1.379 . S
C216 C213 1.363 . S
C216 N214 1.356 . S
C217 C211 1.363 . S
C217 C212 1.379 . S
C217 N215 1.356 . S
N218 C210 1.356 . S
N218 H224 0.984 . S
N218 H225 0.984 . S
N219 C212 1.356 . S
N219 H222 0.984 . S
N219 H223 0.985 . S
H220 N215 0.984 . S
H221 N215 0.985 . S
H222 N219 0.984 . S
H223 N219 0.985 . S
H224 N218 0.984 . S
H225 N218 0.984 . S
H226 N214 0.984 . S
H227 N214 0.985 . S
C228 C229 1.363 . S
C228 C234 1.379 . S
C228 N236 1.356 . S
C229 C228 1.363 . S
C229 C235 1.363 . S
C230 C231 1.363 . S
C230 C235 1.379 . S
C230 N237 1.356 . S
C231 C230 1.363 . S
C231 C234 1.363 . S
N232 C234 1.356 . S
N232 H244 0.984 . S
N232 H245 0.985 . S
N233 C235 1.356 . S
N233 H238 0.984 . S
N233 H239 0.985 . S
C234 C228 1.379 . S
C234 C231 1.363 . S
C234 N232 1.356 . S
C235 C229 1.363 . S
C235 C230 1.379 . S
C235 N233 1.356 . S
N236 C228 1.356 . S
N236 H242 0.984 . S
N236 H243 0.984 . S
N237 C230 1.356 . S
N237 H240 0.984 . S
N237 H241 0.985 . S
H238 N233 0.984 . S
H239 N233 0.985 . S
H240 N237 0.984 . S
H241 N237 0.985 . S
H242 N236 0.984 . S
H243 N236 0.984 . S
H244 N232 0.984 . S
H245 N232 0.985 . S
C246 C247 1.363 . S
C246 C252 1.379 . S
C246 N254 1.356 . S
C247 C246 1.363 . S
C247 C253 1.363 . S
C248 C249 1.363 . S
C248 C253 1.379 . S
C248 N255 1.356 . S
C249 C248 1.363 . S
C249 C252 1.363 . S
N250 C252 1.356 . S
N250 H262 0.984 . S
N250 H263 0.985 . S
N251 C253 1.356 . S
N251 H256 0.984 . S
N251 H257 0.985 . S
C252 C246 1.379 . S
C252 C249 1.363 . S
C252 N250 1.356 . S
C253 C247 1.363 . S
C253 C248 1.379 . S
C253 N251 1.356 . S
N254 C246 1.356 . S
N254 H260 0.984 . S
N254 H261 0.984 . S
N255 C248 1.356 . S
N255 H258 0.984 . S
N255 H259 0.985 . S
H256 N251 0.984 . S
H257 N251 0.985 . S
H258 N255 0.984 . S
H259 N255 0.985 . S
H260 N254 0.984 . S
H261 N254 0.984 . S
H262 N250 0.984 . S
H263 N250 0.985 . S
C264 C265 1.363 . S
C264 C270 1.379 . S
C264 N272 1.356 . S
C265 C264 1.363 . S
C265 C271 1.363 . S
C266 C267 1.363 . S
C266 C271 1.379 . S
C266 N273 1.356 . S
C267 C266 1.363 . S
C267 C270 1.363 . S
N268 C270 1.356 1_455 S
N268 H280 0.984 . S
N268 H281 0.985 . S
N269 C271 1.356 . S
N269 H274 0.984 . S
N269 H275 0.985 . S
C270 C264 1.379 . S
C270 C267 1.363 . S
C270 N268 1.356 1_655 S
C271 C265 1.363 . S
C271 C266 1.379 . S
C271 N269 1.356 . S
N272 C264 1.356 . S
N272 H278 0.984 . S
N272 H279 0.984 . S
N273 C266 1.356 . S
N273 H276 0.984 . S
N273 H277 0.985 . S
H274 N269 0.984 . S
H275 N269 0.985 . S
H276 N273 0.984 . S
H277 N273 0.985 . S
H278 N272 0.984 . S
H279 N272 0.984 . S
H280 N268 0.984 . S
H281 N268 0.985 . S
C282 C283 1.363 . S
C282 C288 1.379 . S
C282 N290 1.356 . S
C283 C282 1.363 . S
C283 C289 1.363 . S
C284 C285 1.363 . S
C284 C289 1.379 . S
C284 N291 1.356 . S
C285 C284 1.363 . S
C285 C288 1.363 . S
N286 C288 1.356 . S
N286 H298 0.984 . S
N286 H299 0.985 . S
N287 C289 1.356 . S
N287 H292 0.984 . S
N287 H293 0.985 . S
C288 C282 1.379 . S
C288 C285 1.363 . S
C288 N286 1.356 . S
C289 C283 1.363 . S
C289 C284 1.379 . S
C289 N287 1.356 . S
N290 C282 1.356 . S
N290 H296 0.984 . S
N290 H297 0.984 . S
N291 C284 1.356 . S
N291 H294 0.984 . S
N291 H295 0.985 . S
H292 N287 0.984 . S
H293 N287 0.985 . S
H294 N291 0.984 . S
H295 N291 0.985 . S
H296 N290 0.984 . S
H297 N290 0.984 . S
H298 N286 0.984 . S
H299 N286 0.985 . S
C300 C301 1.363 . S
C300 C306 1.379 . S
C300 N308 1.356 . S
C301 C300 1.363 . S
C301 C307 1.363 . S
C302 C303 1.363 . S
C302 C307 1.379 . S
C302 N309 1.356 . S
C303 C302 1.363 . S
C303 C306 1.363 . S
N304 C306 1.356 . S
N304 H316 0.984 . S
N304 H317 0.985 . S
N305 C307 1.356 . S
N305 H310 0.984 . S
N305 H311 0.985 . S
C306 C300 1.379 . S
C306 C303 1.363 . S
C306 N304 1.356 . S
C307 C301 1.363 . S
C307 C302 1.379 . S
C307 N305 1.356 . S
N308 C300 1.356 . S
N308 H314 0.984 . S
N308 H315 0.984 . S
N309 C302 1.356 . S
N309 H312 0.984 . S
N309 H313 0.985 . S
H310 N305 0.984 . S
H311 N305 0.985 . S
H312 N309 0.984 . S
H313 N309 0.985 . S
H314 N308 0.984 . S
H315 N308 0.984 . S
H316 N304 0.984 . S
H317 N304 0.985 . S
C318 C319 1.363 . S
C318 C324 1.379 . S
C318 N326 1.356 . S
C319 C318 1.363 . S
C319 C325 1.363 . S
C320 C321 1.363 . S
C320 C325 1.379 . S
C320 N327 1.356 . S
C321 C320 1.363 . S
C321 C324 1.363 . S
N322 C324 1.356 . S
N322 H334 0.984 . S
N322 H335 0.985 . S
N323 C325 1.356 . S
N323 H328 0.984 . S
N323 H329 0.985 . S
C324 C318 1.379 . S
C324 C321 1.363 . S
C324 N322 1.356 . S
C325 C319 1.363 . S
C325 C320 1.379 . S
C325 N323 1.356 . S
N326 C318 1.356 . S
N326 H332 0.984 . S
N326 H333 0.984 . S
N327 C320 1.356 . S
N327 H330 0.984 . S
N327 H331 0.985 . S
H328 N323 0.984 . S
H329 N323 0.985 . S
H330 N327 0.984 . S
H331 N327 0.985 . S
H332 N326 0.984 . S
H333 N326 0.984 . S
H334 N322 0.984 . S
H335 N322 0.985 . S
C336 C337 1.363 . S
C336 C342 1.379 . S
C336 N344 1.356 . S
C337 C336 1.363 . S
C337 C343 1.363 . S
C338 C339 1.363 . S
C338 C343 1.379 . S
C338 N345 1.356 . S
C339 C338 1.363 . S
C339 C342 1.363 . S
N340 C342 1.356 . S
N340 H352 0.984 . S
N340 H353 0.985 . S
N341 C343 1.356 . S
N341 H346 0.984 . S
N341 H347 0.985 . S
C342 C336 1.379 . S
C342 C339 1.363 . S
C342 N340 1.356 . S
C343 C337 1.363 . S
C343 C338 1.379 . S
C343 N341 1.356 . S
N344 C336 1.356 . S
N344 H350 0.984 . S
N344 H351 0.984 . S
N345 C338 1.356 . S
N345 H348 0.984 . S
N345 H349 0.985 . S
H346 N341 0.984 . S
H347 N341 0.985 . S
H348 N345 0.984 . S
H349 N345 0.985 . S
H350 N344 0.984 . S
H351 N344 0.984 . S
H352 N340 0.984 . S
H353 N340 0.985 . S
C354 C355 1.363 . S
C354 C360 1.379 1_554 S
C354 N362 1.356 . S
C355 C354 1.363 . S
C355 C361 1.363 . S
C356 C357 1.363 . S
C356 C361 1.379 1_556 S
C356 N363 1.356 . S
C357 C356 1.363 . S
C357 C360 1.363 . S
N358 C360 1.356 . S
N358 H370 0.984 . S
N358 H371 0.985 . S
N359 C361 1.356 . S
N359 H364 0.984 . S
N359 H365 0.985 . S
C360 C354 1.379 1_556 S
C360 C357 1.363 . S
C360 N358 1.356 . S
C361 C355 1.363 . S
C361 C356 1.379 1_554 S
C361 N359 1.356 . S
N362 C354 1.356 . S
N362 H368 0.984 . S
N362 H369 0.984 . S
N363 C356 1.356 . S
N363 H366 0.984 . S
N363 H367 0.985 . S
H364 N359 0.984 . S
H365 N359 0.985 . S
H366 N363 0.984 . S
H367 N363 0.985 . S
H368 N362 0.984 . S
H369 N362 0.984 . S
H370 N358 0.984 . S
H371 N358 0.985 . S
C372 C373 1.363 . S
C372 C378 1.379 . S
C372 N380 1.356 . S
C373 C372 1.363 . S
C373 C379 1.363 . S
C374 C375 1.363 . S
C374 C379 1.379 . S
C374 N381 1.356 1_545 S
C375 C374 1.363 . S
C375 C378 1.363 . S
N376 C378 1.356 . S
N376 H388 0.984 . S
N376 H389 0.985 . S
N377 C379 1.356 1_565 S
N377 H382 0.984 . S
N377 H383 0.985 . S
C378 C372 1.379 . S
C378 C375 1.363 . S
C378 N376 1.356 . S
C379 C373 1.363 . S
C379 C374 1.379 . S
C379 N377 1.356 1_545 S
N380 C372 1.356 . S
N380 H386 0.984 . S
N380 H387 0.984 . S
N381 C374 1.356 1_565 S
N381 H384 0.984 . S
N381 H385 0.985 . S
H382 N377 0.984 . S
H383 N377 0.985 . S
H384 N381 0.984 . S
H385 N381 0.985 . S
H386 N380 0.984 . S
H387 N380 0.984 . S
H388 N376 0.984 . S
H389 N376 0.985 . S
C390 C391 1.363 . S
C390 C396 1.379 . S
C390 N398 1.356 . S
C391 C390 1.363 . S
C391 C397 1.363 . S
C392 C393 1.363 . S
C392 C397 1.379 . S
C392 N399 1.356 . S
C393 C392 1.363 . S
C393 C396 1.363 . S
N394 C396 1.356 . S
N394 H406 0.984 . S
N394 H407 0.985 . S
N395 C397 1.356 . S
N395 H400 0.984 . S
N395 H401 0.985 . S
C396 C390 1.379 . S
C396 C393 1.363 . S
C396 N394 1.356 . S
C397 C391 1.363 . S
C397 C392 1.379 . S
C397 N395 1.356 . S
N398 C390 1.356 . S
N398 H404 0.984 . S
N398 H405 0.984 . S
N399 C392 1.356 . S
N399 H402 0.984 . S
N399 H403 0.985 . S
H400 N395 0.984 . S
H401 N395 0.985 . S
H402 N399 0.984 . S
H403 N399 0.985 . S
H404 N398 0.984 . S
H405 N398 0.984 . S
H406 N394 0.984 . S
H407 N394 0.985 . S
C408 C409 1.363 1_565 S
C408 C414 1.379 . S
C408 N416 1.356 . S
C409 C408 1.363 1_545 S
C409 C415 1.363 . S
C410 C411 1.363 . S
C410 C415 1.379 . S
C410 N417 1.356 . S
C411 C410 1.363 . S
C411 C414 1.363 1_545 S
N412 C414 1.356 . S
N412 H424 0.984 . S
N412 H425 0.985 . S
N413 C415 1.356 . S
N413 H418 0.984 . S
N413 H419 0.985 . S
C414 C408 1.379 . S
C414 C411 1.363 1_565 S
C414 N412 1.356 . S
C415 C409 1.363 . S
C415 C410 1.379 . S
C415 N413 1.356 . S
N416 C408 1.356 . S
N416 H422 0.984 . S
N416 H423 0.984 . S
N417 C410 1.356 . S
N417 H420 0.984 . S
N417 H421 0.985 . S
H418 N413 0.984 . S
H419 N413 0.985 . S
H420 N417 0.984 . S
H421 N417 0.985 . S
H422 N416 0.984 . S
H423 N416 0.984 . S
H424 N412 0.984 . S
H425 N412 0.985 . S
C426 C427 1.363 . S
C426 C432 1.379 1_556 S
C426 N434 1.356 . S
C427 C426 1.363 . S
C427 C433 1.363 . S
C428 C429 1.363 1_556 S
C428 C433 1.379 . S
C428 N435 1.356 1_556 S
C429 C428 1.363 1_554 S
C429 C432 1.363 . S
N430 C432 1.356 . S
N430 H442 0.984 . S
N430 H443 0.985 . S
N431 C433 1.356 . S
N431 H436 0.984 . S
N431 H437 0.985 . S
C432 C426 1.379 1_554 S
C432 C429 1.363 . S
C432 N430 1.356 . S
C433 C427 1.363 . S
C433 C428 1.379 . S
C433 N431 1.356 . S
N434 C426 1.356 . S
N434 H440 0.984 . S
N434 H441 0.984 . S
N435 C428 1.356 1_554 S
N435 H438 0.984 . S
N435 H439 0.985 . S
H436 N431 0.984 . S
H437 N431 0.985 . S
H438 N435 0.984 . S
H439 N435 0.985 . S
H440 N434 0.984 . S
H441 N434 0.984 . S
H442 N430 0.984 . S
H443 N430 0.985 . S
C444 C445 1.363 1_655 S
C444 C450 1.379 . S
C444 N452 1.356 . S
C445 C444 1.363 1_455 S
C445 C451 1.363 . S
C446 C447 1.363 . S
C446 C451 1.379 . S
C446 N453 1.356 . S
C447 C446 1.363 . S
C447 C450 1.363 1_455 S
N448 C450 1.356 . S
N448 H460 0.984 . S
N448 H461 0.985 . S
N449 C451 1.356 . S
N449 H454 0.984 . S
N449 H455 0.985 . S
C450 C444 1.379 . S
C450 C447 1.363 1_655 S
C450 N448 1.356 . S
C451 C445 1.363 . S
C451 C446 1.379 . S
C451 N449 1.356 . S
N452 C444 1.356 . S
N452 H458 0.984 . S
N452 H459 0.984 . S
N453 C446 1.356 . S
N453 H456 0.984 . S
N453 H457 0.985 . S
H454 N449 0.984 . S
H455 N449 0.985 . S
H456 N453 0.984 . S
H457 N453 0.985 . S
H458 N452 0.984 . S
H459 N452 0.984 . S
H460 N448 0.984 . S
H461 N448 0.985 . S
C139 C2 1.474 . S
C141 C129 1.450 . S
C157 C22 1.357 . S
C159 C107 1.482 1_655 S
C175 C44 1.373 . S
C177 C120 1.475 . S
C193 C4 1.464 . S
C195 C133 1.549 . S
C213 C103 1.539 . S
C211 C24 1.617 . S
C231 C116 1.517 . S
C229 C42 1.568 . S
C247 C32 1.253 . S
C249 C81 1.276 . S
C265 C49 1.202 . S
C267 C94 1.236 1_655 S
C283 C9 1.356 . S
C285 C64 1.283 . S
C303 C77 1.267 . S
C301 C29 1.323 . S
C321 C90 1.271 . S
C319 C52 1.342 . S
C337 C12 1.227 . S
C339 C68 1.276 . S
C357 C95 1.495 . S
C355 C18 1.503 . S
C373 C38 1.499 . S
C375 C69 1.533 . S
C391 C58 1.496 . S
C393 C82 1.505 . S
C411 C121 1.590 . S
C409 C39 1.572 . S
C429 C134 1.534 . S
C427 C59 1.506 . S
C445 C19 1.526 . S
C447 C108 1.570 . S
