# Generated by pormake.
# Topology rtl, (3,6)-cn, num edge types: 1
# Building blocks:
#     Node 0, Type 0, BuildingBlock: MIDCAF_clean_linker_0, # of connection points: 3
#     Node 1, Type 0, BuildingBlock: MIDCAF_clean_linker_0, # of connection points: 3
#     Node 2, Type 0, BuildingBlock: MIDCAF_clean_linker_0, # of connection points: 3
#     Node 3, Type 0, BuildingBlock: MIDCAF_clean_linker_0, # of connection points: 3
#     Node 4, Type 1, BuildingBlock: VOLQOD_clean_sbu_1, # of connection points: 6
#     Node 5, Type 1, BuildingBlock: VOLQOD_clean_sbu_1, # of connection points: 6
#     Edge 6, Type (0, 1), BuildingBlock: OJICUG_clean_linker_0, # of connection points: 2
#     Edge 7, Type (0, 1), BuildingBlock: OJICUG_clean_linker_0, # of connection points: 2
#     Edge 8, Type (0, 1), BuildingBlock: OJICUG_clean_linker_0, # of connection points: 2
#     Edge 9, Type (0, 1), BuildingBlock: OJICUG_clean_linker_0, # of connection points: 2
#     Edge 10, Type (0, 1), BuildingBlock: OJICUG_clean_linker_0, # of connection points: 2
#     Edge 11, Type (0, 1), BuildingBlock: OJICUG_clean_linker_0, # of connection points: 2
#     Edge 12, Type (0, 1), BuildingBlock: OJICUG_clean_linker_0, # of connection points: 2
#     Edge 13, Type (0, 1), BuildingBlock: OJICUG_clean_linker_0, # of connection points: 2
#     Edge 14, Type (0, 1), BuildingBlock: OJICUG_clean_linker_0, # of connection points: 2
#     Edge 15, Type (0, 1), BuildingBlock: OJICUG_clean_linker_0, # of connection points: 2
#     Edge 16, Type (0, 1), BuildingBlock: OJICUG_clean_linker_0, # of connection points: 2
#     Edge 17, Type (0, 1), BuildingBlock: OJICUG_clean_linker_0, # of connection points: 2
# Relax obj value: 0.080
# Max RMSD: 0.156
# Mean RMSD: 0.090
data_MOF--net-rtl--node1-VOLQOD_clean_sbu_1--node2-MIDCAF_clean_linker_0--edge1-OJICUG_clean_linker_0
_symmetry_space_group_name_H-M    P1
_symmetry_Int_Tables_number       1
_symmetry_cell_setting            triclinic
loop_
_symmetry_equiv_pos_as_xyz
'x, y, z'
_cell_length_a     35.153844
_cell_length_b     29.753961
_cell_length_c     23.082275
_cell_angle_alpha  89.90772
_cell_angle_beta   89.948596
_cell_angle_gamma 90.076881
loop_
_atom_site_label
_atom_site_type_symbol
_atom_site_fract_x
_atom_site_fract_y
_atom_site_fract_z
_atom_type_partial_charge
C0 C 0.03399 0.79498 0.18954 0.0
C1 C 0.0603 0.80068 0.23463 0.0
C2 C 0.09616 0.78025 0.23048 0.0
C3 C 0.10616 0.75607 0.18094 0.0
H4 H 0.17218 0.64417 0.10998 0.0
H5 H 0.23283 0.60469 0.10709 0.0
H6 H 0.24901 0.64757 0.92966 0.0
H7 H 0.1879 0.68517 0.9318 0.0
H8 H 0.12969 0.7451 0.87256 0.0
H9 H 0.11019 0.78893 0.78843 0.0
H10 H 0.0038 0.82038 0.87221 0.0
H11 H 0.02338 0.77708 0.95747 0.0
H12 H 0.02398 0.76936 0.10424 0.0
H13 H 0.00622 0.81063 0.19175 0.0
H14 H 0.11682 0.78409 0.26492 0.0
H15 H 0.13455 0.74213 0.17818 0.0
N16 N 0.12486 0.70717 0.07568 0.0
N17 N 0.12363 0.71007 0.97424 0.0
N18 N 0.07774 0.74898 0.02798 0.0
C19 C 0.1397 0.69457 0.02382 0.0
C20 C 0.09252 0.73699 0.97588 0.0
C21 C 0.09376 0.73422 0.07807 0.0
C22 C 0.17522 0.66798 0.02124 0.0
C23 C 0.18855 0.64477 0.07021 0.0
C24 C 0.22346 0.62236 0.06862 0.0
C25 C 0.24607 0.62315 0.01826 0.0
C26 C 0.23222 0.64553 0.96892 0.0
C27 C 0.19714 0.66741 0.97028 0.0
C28 C 0.07819 0.75791 0.92198 0.0
C29 C 0.10184 0.76063 0.87291 0.0
C30 C 0.09083 0.78584 0.82479 0.0
C31 C 0.05569 0.80806 0.8243 0.0
C32 C 0.03102 0.80333 0.87174 0.0
C33 C 0.04231 0.77875 0.92047 0.0
C34 C 0.08075 0.75273 0.13412 0.0
C35 C 0.04423 0.77154 0.13947 0.0
C36 C 0.54254 0.71258 0.36518 0.0
C37 C 0.55995 0.72091 0.31141 0.0
C38 C 0.58725 0.75542 0.3074 0.0
C39 C 0.5977 0.78003 0.35652 0.0
H40 H 0.68675 0.85267 0.42171 0.0
H41 H 0.74798 0.8909 0.42224 0.0
H42 H 0.73178 0.9265 0.60169 0.0
H43 H 0.6703 0.88791 0.60178 0.0
H44 H 0.62032 0.8113 0.67665 0.0
H45 H 0.60052 0.77229 0.76488 0.0
H46 H 0.51293 0.70322 0.66823 0.0
H47 H 0.53141 0.74308 0.58161 0.0
H48 H 0.53917 0.72896 0.45476 0.0
H49 H 0.52188 0.68583 0.37025 0.0
H50 H 0.6008 0.76316 0.26643 0.0
H51 H 0.6194 0.8057 0.35224 0.0
N52 N 0.62448 0.82165 0.4632 0.0
N53 N 0.62295 0.82649 0.56482 0.0
N54 N 0.57888 0.78148 0.5158 0.0
C55 C 0.63877 0.83882 0.51329 0.0
C56 C 0.59277 0.7979 0.56626 0.0
C57 C 0.59436 0.79308 0.46415 0.0
C58 C 0.67371 0.86673 0.51194 0.0
C59 C 0.69583 0.86908 0.4612 0.0
C60 C 0.73099 0.89085 0.46143 0.0
C61 C 0.74462 0.91126 0.5121 0.0
C62 C 0.72178 0.9111 0.56202 0.0
C63 C 0.68671 0.88879 0.56207 0.0
C64 C 0.57782 0.77997 0.62176 0.0
C65 C 0.59633 0.78848 0.6746 0.0
C66 C 0.58519 0.76582 0.72509 0.0
C67 C 0.55536 0.73422 0.72367 0.0
C68 C 0.5357 0.72764 0.67141 0.0
C69 C 0.54662 0.75034 0.6213 0.0
C70 C 0.58096 0.77071 0.41059 0.0
C71 C 0.55273 0.73726 0.41397 0.0
C72 C 0.96516 0.22029 0.87192 0.0
C73 C 0.94759 0.22813 0.8182 0.0
C74 C 0.91966 0.26188 0.81442 0.0
C75 C 0.90815 0.28542 0.86386 0.0
H76 H 0.82934 0.38218 0.93058 0.0
H77 H 0.76728 0.41944 0.92761 0.0
H78 H 0.74748 0.38221 0.10585 0.0
H79 H 0.8092 0.34548 0.10946 0.0
H80 H 0.86419 0.2781 0.17209 0.0
H81 H 0.88302 0.23391 0.25598 0.0
H82 H -0.00334 0.2219 0.18573 0.0
H83 H 0.97712 0.26415 0.10049 0.0
H84 H 0.96737 0.23569 0.9619 0.0
H85 H 0.98642 0.19427 0.87688 0.0
H86 H 0.90606 0.26945 0.77348 0.0
H87 H 0.88562 0.31001 0.8598 0.0
N88 N 0.87725 0.32182 0.97105 0.0
N89 N 0.87438 0.3201 0.07268 0.0
N90 N 0.92276 0.28161 0.02404 0.0
C91 C 0.86014 0.33471 0.02127 0.0
C92 C 0.90592 0.29396 0.07436 0.0
C93 C 0.90868 0.2952 0.97218 0.0
C94 C 0.82418 0.36057 0.02012 0.0
C95 C 0.81191 0.38231 0.96929 0.0
C96 C 0.77654 0.40382 0.9676 0.0
C97 C 0.75265 0.40331 0.01638 0.0
C98 C 0.7653 0.38268 0.06752 0.0
C99 C 0.80076 0.36182 0.06953 0.0
C100 C 0.91907 0.27411 0.12944 0.0
C101 C 0.89336 0.26661 0.17505 0.0
C102 C 0.90424 0.24134 0.22332 0.0
C103 C 0.94126 0.22365 0.22739 0.0
C104 C 0.96762 0.23381 0.18334 0.0
C105 C 0.95654 0.25837 0.13467 0.0
C106 C 0.92447 0.27585 0.91809 0.0
C107 C 0.95393 0.24398 0.92106 0.0
C108 C 0.46086 0.32285 0.65003 0.0
C109 C 0.44499 0.31483 0.70485 0.0
C110 C 0.41921 0.27913 0.71193 0.0
C111 C 0.40792 0.25345 0.66419 0.0
H112 H 0.31134 0.18785 0.60377 0.0
H113 H 0.2502 0.14966 0.60635 0.0
H114 H 0.26867 0.1016 0.43191 0.0
H115 H 0.32916 0.14134 0.42855 0.0
H116 H 0.36192 0.24552 0.35726 0.0
H117 H 0.37924 0.28814 0.27042 0.0
H118 H 0.49277 0.30655 0.33729 0.0
H119 H 0.47544 0.26475 0.42469 0.0
H120 H 0.4621 0.30509 0.56069 0.0
H121 H 0.48123 0.34978 0.64366 0.0
H122 H 0.40656 0.27234 0.75386 0.0
H123 H 0.38691 0.22725 0.67057 0.0
N124 N 0.37648 0.21241 0.56042 0.0
N125 N 0.37418 0.20706 0.45899 0.0
N126 N 0.42113 0.25086 0.50352 0.0
C127 C 0.36009 0.19538 0.51178 0.0
C128 C 0.40489 0.23455 0.45464 0.0
C129 C 0.40721 0.24004 0.55658 0.0
C130 C 0.32499 0.16803 0.51574 0.0
C131 C 0.30256 0.16876 0.56616 0.0
C132 C 0.26749 0.14663 0.56773 0.0
C133 C 0.25424 0.12278 0.51915 0.0
C134 C 0.27752 0.12048 0.46965 0.0
C135 C 0.31235 0.14306 0.46784 0.0
C136 C 0.41729 0.25213 0.39788 0.0
C137 C 0.39083 0.25771 0.35283 0.0
C138 C 0.4006 0.28228 0.30337 0.0
C139 C 0.43719 0.30072 0.29765 0.0
C140 C 0.46442 0.29246 0.34075 0.0
C141 C 0.45445 0.26871 0.39072 0.0
C142 C 0.42252 0.26281 0.60867 0.0
C143 C 0.44994 0.29701 0.60256 0.0
O144 O 0.90599 0.01954 0.52467 0.0
Zn145 Zn 0.95549 0.05448 0.52476 0.0
O146 O -0.00019 0.0144 0.52419 0.0
Zn147 Zn 0.03141 0.02642 0.59197 0.0
Zn148 Zn 0.98242 0.95191 0.52531 0.0
Zn149 Zn 0.03026 0.02467 0.45465 0.0
O150 O 0.08469 0.04427 0.56995 0.0
O151 O 0.08286 0.04671 0.47399 0.0
O152 O 0.95591 0.09485 0.59455 0.0
O153 O 0.00975 0.07717 0.63932 0.0
O154 O 0.03491 0.97163 0.64249 0.0
O155 O -0.00088 0.92039 0.59844 0.0
O156 O 0.00248 0.91707 0.45688 0.0
O157 O 0.95582 0.09455 0.45429 0.0
O158 O 0.03641 0.96784 0.40864 0.0
O159 O 0.00591 0.07125 0.40385 0.0
C160 C 0.89898 0.97757 0.52219 0.0
C161 C 0.10071 0.05187 0.52146 0.0
C162 C 0.02041 0.93242 0.64027 0.0
C163 C 0.97963 0.10073 0.63549 0.0
C164 C 0.02373 0.92799 0.41443 0.0
C165 C 0.97716 0.09683 0.40975 0.0
O166 O 0.92563 0.94869 0.52145 0.0
O167 O 0.59441 0.51668 0.00833 0.0
Zn168 Zn 0.54638 0.5539 0.0114 0.0
O169 O 0.50054 0.51609 0.01094 0.0
Zn170 Zn 0.46964 0.53012 0.94301 0.0
Zn171 Zn 0.5155 0.45291 0.00913 0.0
Zn172 Zn 0.47028 0.52716 0.0803 0.0
O173 O 0.41587 0.54674 0.9648 0.0
O174 O 0.41782 0.54856 0.06078 0.0
O175 O 0.54664 0.59657 0.94362 0.0
O176 O 0.49178 0.58259 0.8994 0.0
O177 O 0.46709 0.47711 0.88916 0.0
O178 O 0.49619 0.42233 0.93724 0.0
O179 O 0.49554 0.41901 0.07797 0.0
O180 O 0.54816 0.59209 0.0835 0.0
O181 O 0.46396 0.47077 0.12772 0.0
O182 O 0.49448 0.57481 0.12935 0.0
C183 C 0.59993 0.47438 0.00903 0.0
C184 C 0.39987 0.55376 0.01345 0.0
C185 C 0.47808 0.43644 0.89307 0.0
C186 C 0.52255 0.60496 0.90389 0.0
C187 C 0.47544 0.4305 0.12131 0.0
C188 C 0.52519 0.59738 0.12564 0.0
O189 O 0.57225 0.44677 0.01012 0.0
C190 C 0.20044 0.0827 0.56963 0.0
C191 C 0.21558 0.10234 0.51914 0.0
H192 H 0.15238 0.05142 0.61004 0.0
C193 C 0.19289 0.10387 0.46899 0.0
H194 H 0.21727 0.08024 0.60876 0.0
C195 C 0.15591 0.0867 0.46948 0.0
C196 C 0.14053 0.06804 0.52031 0.0
H197 H 0.20325 0.11946 0.42959 0.0
H198 H 0.13909 0.08905 0.4303 0.0
C199 C 0.16327 0.06596 0.57029 0.0
C200 C 0.29924 0.58225 0.9676 0.0
C201 C 0.28472 0.60276 0.01788 0.0
H202 H 0.34697 0.55088 0.92661 0.0
C203 C 0.30812 0.60549 0.06715 0.0
H204 H 0.28185 0.57878 0.92917 0.0
C205 C 0.34518 0.58876 0.06595 0.0
C206 C 0.35997 0.5694 0.01523 0.0
H207 H 0.29827 0.62175 0.10631 0.0
H208 H 0.36256 0.59208 0.10443 0.0
C209 C 0.33653 0.56604 0.96617 0.0
C210 C 0.79142 0.97244 0.53578 0.0
C211 C 0.78381 0.92933 0.5139 0.0
H212 H 0.83401 0.02202 0.55477 0.0
C213 C 0.81412 0.9026 0.49461 0.0
H214 H 0.76844 0.99365 0.55085 0.0
C215 C 0.8514 0.91839 0.49755 0.0
C216 C 0.8592 0.96156 0.5191 0.0
H217 H 0.80903 0.86904 0.47813 0.0
H218 H 0.87413 0.89675 0.48258 0.0
C219 C 0.82882 0.98865 0.5378 0.0
C220 C 0.70718 0.46585 -0.00644 0.0
C221 C 0.71373 0.42191 0.01344 0.0
H222 H 0.66588 0.51735 0.97733 0.0
C223 C 0.68277 0.39539 0.03104 0.0
H224 H 0.7307 0.48691 0.97989 0.0
C225 C 0.64587 0.4124 0.02892 0.0
C226 C 0.63917 0.45658 0.00994 0.0
H227 H 0.68709 0.36125 0.04605 0.0
H228 H 0.62262 0.39103 0.0429 0.0
C229 C 0.6702 0.48323 -0.00763 0.0
C230 C 0.07624 0.86748 0.29483 0.0
C231 C 0.05171 0.83136 0.28316 0.0
H232 H 0.08634 0.92666 0.34508 0.0
C233 C 0.01834 0.82635 0.316 0.0
H234 H 0.10197 0.87225 0.26964 0.0
C235 C 0.00964 0.8571 0.35986 0.0
C236 C 0.03373 0.89395 0.37049 0.0
H237 H -0.00099 0.79873 0.3076 0.0
H238 H 0.98361 0.85271 0.38437 0.0
C239 C 0.06717 0.89872 0.33768 0.0
C240 C 0.57586 0.68804 0.80941 0.0
C241 C 0.54646 0.7054 0.77466 0.0
H242 H 0.59137 0.64275 0.87756 0.0
C243 C 0.50884 0.69165 0.78577 0.0
H244 H 0.60522 0.69735 0.80168 0.0
C245 C 0.50106 0.65955 0.82831 0.0
C246 C 0.53062 0.64099 0.86147 0.0
H247 H 0.48538 0.70505 0.76079 0.0
H248 H 0.47187 0.64896 0.83483 0.0
C249 C 0.56798 0.65639 0.85261 0.0
C250 C 0.9366 0.1979 0.33126 0.0
C251 C 0.95158 0.19233 0.27517 0.0
H252 H 0.93271 0.17196 0.41767 0.0
C253 C 0.97536 0.15529 0.26426 0.0
H254 H 0.91865 0.22633 0.34154 0.0
C255 C 0.98395 0.12466 0.30813 0.0
C256 C 0.96848 0.12986 0.36379 0.0
H257 H 0.98673 0.14918 0.22138 0.0
H258 H 0.00212 0.09636 0.29802 0.0
C259 C 0.94475 0.16682 0.37498 0.0
C260 C 0.45114 0.39221 0.74519 0.0
C261 C 0.45366 0.34553 0.7534 0.0
H262 H 0.45656 0.45745 0.78289 0.0
C263 C 0.46411 0.32874 0.80797 0.0
H264 H 0.4427 0.40597 0.70366 0.0
C265 C 0.47239 0.35825 0.85336 0.0
C266 C 0.46971 0.40502 0.84518 0.0
H267 H 0.46633 0.29287 0.81526 0.0
H268 H 0.48055 0.34442 0.89496 0.0
C269 C 0.45885 0.42164 0.79066 0.0
C270 C 0.51332 0.67644 0.25242 0.0
C271 C 0.55066 0.6921 0.2608 0.0
H272 H 0.47612 0.63413 0.20365 0.0
C273 C 0.57936 0.67778 0.22255 0.0
H274 H 0.49034 0.6875 0.28022 0.0
C275 C 0.57104 0.64759 0.17794 0.0
C276 C 0.53396 0.63075 0.17108 0.0
H277 H 0.60852 0.6887 0.22815 0.0
H278 H 0.59387 0.63657 0.14982 0.0
C279 C 0.50513 0.64589 0.20839 0.0
C280 C 0.99368 0.18242 0.75928 0.0
C281 C 0.95657 0.19883 0.76782 0.0
H282 H 0.02999 0.13843 0.71126 0.0
C283 C 0.92752 0.18424 0.73039 0.0
H284 H 0.01694 0.19356 0.78646 0.0
C285 C 0.93517 0.15313 0.68663 0.0
C286 C 0.97194 0.13546 0.67974 0.0
H287 H 0.89849 0.19553 0.73612 0.0
H288 H 0.91198 0.14193 0.65933 0.0
C289 C 0.00121 0.15087 0.71606 0.0
C290 C 0.42291 0.37012 0.24136 0.0
C291 C 0.44591 0.33216 0.24994 0.0
H292 H 0.4146 0.4314 0.19443 0.0
C293 C 0.47833 0.32618 0.21531 0.0
H294 H 0.39801 0.37564 0.2681 0.0
C295 C 0.48759 0.35776 0.17266 0.0
C296 C 0.46507 0.39634 0.16498 0.0
H297 H 0.4965 0.29718 0.22141 0.0
H298 H 0.51284 0.3525 0.1466 0.0
C299 C 0.43259 0.40214 0.19964 0.0
C300 C 0.07147 0.8744 0.7632 0.0
C301 C 0.0464 0.83915 0.77653 0.0
H302 H 0.0826 0.93186 0.71009 0.0
C303 C 0.01257 0.83449 0.74486 0.0
H304 H 0.09759 0.87878 0.78746 0.0
C305 C 0.00422 0.86445 0.69985 0.0
C306 C 0.02916 0.90011 0.68695 0.0
H307 H 0.99287 0.80749 0.7546 0.0
H308 H 0.97804 0.86015 0.67577 0.0
C309 C 0.06278 0.90485 0.71921 0.0
loop_
_geom_bond_atom_site_label_1
_geom_bond_atom_site_label_2
_geom_bond_distance
_geom_bond_site_symmetry_2
_ccdc_geom_bond_type
C0 C1 1.384 . S
C0 H13 0.947 . S
C0 C35 1.382 . S
C1 C0 1.384 . S
C1 C2 1.378 . S
C2 C1 1.378 . S
C2 C3 1.378 . S
C2 H14 0.952 . S
C3 C2 1.378 . S
C3 H15 0.950 . S
C3 C34 1.383 . S
H4 C23 0.947 . S
H5 C24 0.946 . S
H6 C26 0.953 . S
H7 C27 0.945 . S
H8 C29 0.952 . S
H9 C30 0.949 . S
H10 C32 0.950 . S
H11 C33 0.948 . S
H12 C35 0.951 . S
H13 C0 0.947 . S
H14 C2 0.952 . S
H15 C3 0.950 . S
N16 C19 1.382 . S
N16 C21 1.363 . S
N17 C19 1.371 1_556 S
N17 C20 1.372 . S
N18 C20 1.361 1_554 S
N18 C21 1.377 . S
C19 N16 1.382 . S
C19 N17 1.371 1_554 S
C19 C22 1.480 . S
C20 N17 1.372 . S
C20 N18 1.361 1_556 S
C20 C28 1.457 . S
C21 N16 1.363 . S
C21 N18 1.377 . S
C21 C34 1.479 . S
C22 C19 1.480 . S
C22 C23 1.383 . S
C22 C27 1.385 1_554 S
C23 H4 0.947 . S
C23 C22 1.383 . S
C23 C24 1.388 . S
C24 H5 0.946 . S
C24 C23 1.388 . S
C24 C25 1.384 . S
C25 C24 1.384 . S
C25 C26 1.377 1_554 S
C26 H6 0.953 . S
C26 C25 1.377 1_556 S
C26 C27 1.369 . S
C27 H7 0.945 . S
C27 C22 1.385 1_556 S
C27 C26 1.369 . S
C28 C20 1.457 . S
C28 C29 1.372 . S
C28 C33 1.364 . S
C29 H8 0.952 . S
C29 C28 1.372 . S
C29 C30 1.389 . S
C30 H9 0.949 . S
C30 C29 1.389 . S
C30 C31 1.387 . S
C31 C30 1.387 . S
C31 C32 1.372 . S
C32 H10 0.950 . S
C32 C31 1.372 . S
C32 C33 1.379 . S
C33 H11 0.948 . S
C33 C28 1.364 . S
C33 C32 1.379 . S
C34 C3 1.383 . S
C34 C21 1.479 . S
C34 C35 1.398 . S
C35 C0 1.382 . S
C35 H12 0.951 . S
C35 C34 1.398 . S
C36 C37 1.384 . S
C36 H49 0.947 . S
C36 C71 1.382 . S
C37 C36 1.384 . S
C37 C38 1.378 . S
C38 C37 1.378 . S
C38 C39 1.378 . S
C38 H50 0.952 . S
C39 C38 1.378 . S
C39 H51 0.950 . S
C39 C70 1.383 . S
H40 C59 0.947 . S
H41 C60 0.946 . S
H42 C62 0.953 . S
H43 C63 0.945 . S
H44 C65 0.952 . S
H45 C66 0.949 . S
H46 C68 0.950 . S
H47 C69 0.948 . S
H48 C71 0.951 . S
H49 C36 0.947 . S
H50 C38 0.952 . S
H51 C39 0.950 . S
N52 C55 1.382 . S
N52 C57 1.363 . S
N53 C55 1.371 . S
N53 C56 1.372 . S
N54 C56 1.361 . S
N54 C57 1.377 . S
C55 N52 1.382 . S
C55 N53 1.371 . S
C55 C58 1.480 . S
C56 N53 1.372 . S
C56 N54 1.361 . S
C56 C64 1.457 . S
C57 N52 1.363 . S
C57 N54 1.377 . S
C57 C70 1.479 . S
C58 C55 1.480 . S
C58 C59 1.383 . S
C58 C63 1.385 . S
C59 H40 0.947 . S
C59 C58 1.383 . S
C59 C60 1.388 . S
C60 H41 0.946 . S
C60 C59 1.388 . S
C60 C61 1.384 . S
C61 C60 1.384 . S
C61 C62 1.377 . S
C62 H42 0.953 . S
C62 C61 1.377 . S
C62 C63 1.369 . S
C63 H43 0.945 . S
C63 C58 1.385 . S
C63 C62 1.369 . S
C64 C56 1.457 . S
C64 C65 1.372 . S
C64 C69 1.364 . S
C65 H44 0.952 . S
C65 C64 1.372 . S
C65 C66 1.389 . S
C66 H45 0.949 . S
C66 C65 1.389 . S
C66 C67 1.387 . S
C67 C66 1.387 . S
C67 C68 1.372 . S
C68 H46 0.950 . S
C68 C67 1.372 . S
C68 C69 1.379 . S
C69 H47 0.948 . S
C69 C64 1.364 . S
C69 C68 1.379 . S
C70 C39 1.383 . S
C70 C57 1.479 . S
C70 C71 1.398 . S
C71 C36 1.382 . S
C71 H48 0.951 . S
C71 C70 1.398 . S
C72 C73 1.384 . S
C72 H85 0.947 . S
C72 C107 1.382 . S
C73 C72 1.384 . S
C73 C74 1.378 . S
C74 C73 1.378 . S
C74 C75 1.378 . S
C74 H86 0.952 . S
C75 C74 1.378 . S
C75 H87 0.950 . S
C75 C106 1.383 . S
H76 C95 0.947 . S
H77 C96 0.946 . S
H78 C98 0.953 . S
H79 C99 0.945 . S
H80 C101 0.952 . S
H81 C102 0.949 . S
H82 C104 0.950 . S
H83 C105 0.948 . S
H84 C107 0.951 . S
H85 C72 0.947 . S
H86 C74 0.952 . S
H87 C75 0.950 . S
N88 C91 1.382 1_556 S
N88 C93 1.363 . S
N89 C91 1.371 . S
N89 C92 1.372 . S
N90 C92 1.361 . S
N90 C93 1.377 1_554 S
C91 N88 1.382 1_554 S
C91 N89 1.371 . S
C91 C94 1.480 . S
C92 N89 1.372 . S
C92 N90 1.361 . S
C92 C100 1.457 . S
C93 N88 1.363 . S
C93 N90 1.377 1_556 S
C93 C106 1.479 . S
C94 C91 1.480 . S
C94 C95 1.383 1_554 S
C94 C99 1.385 . S
C95 H76 0.947 . S
C95 C94 1.383 1_556 S
C95 C96 1.388 . S
C96 H77 0.946 . S
C96 C95 1.388 . S
C96 C97 1.384 1_556 S
C97 C96 1.384 1_554 S
C97 C98 1.377 . S
C98 H78 0.953 . S
C98 C97 1.377 . S
C98 C99 1.369 . S
C99 H79 0.945 . S
C99 C94 1.385 . S
C99 C98 1.369 . S
C100 C92 1.457 . S
C100 C101 1.372 . S
C100 C105 1.364 . S
C101 H80 0.952 . S
C101 C100 1.372 . S
C101 C102 1.389 . S
C102 H81 0.949 . S
C102 C101 1.389 . S
C102 C103 1.387 . S
C103 C102 1.387 . S
C103 C104 1.372 . S
C104 H82 0.950 . S
C104 C103 1.372 . S
C104 C105 1.379 . S
C105 H83 0.948 . S
C105 C100 1.364 . S
C105 C104 1.379 . S
C106 C75 1.383 . S
C106 C93 1.479 . S
C106 C107 1.398 . S
C107 C72 1.382 . S
C107 H84 0.951 . S
C107 C106 1.398 . S
C108 C109 1.384 . S
C108 H121 0.947 . S
C108 C143 1.382 . S
C109 C108 1.384 . S
C109 C110 1.378 . S
C110 C109 1.378 . S
C110 C111 1.378 . S
C110 H122 0.952 . S
C111 C110 1.378 . S
C111 H123 0.950 . S
C111 C142 1.383 . S
H112 C131 0.947 . S
H113 C132 0.946 . S
H114 C134 0.953 . S
H115 C135 0.945 . S
H116 C137 0.952 . S
H117 C138 0.949 . S
H118 C140 0.950 . S
H119 C141 0.948 . S
H120 C143 0.951 . S
H121 C108 0.947 . S
H122 C110 0.952 . S
H123 C111 0.950 . S
N124 C127 1.382 . S
N124 C129 1.363 . S
N125 C127 1.371 . S
N125 C128 1.372 . S
N126 C128 1.361 . S
N126 C129 1.377 . S
C127 N124 1.382 . S
C127 N125 1.371 . S
C127 C130 1.480 . S
C128 N125 1.372 . S
C128 N126 1.361 . S
C128 C136 1.457 . S
C129 N124 1.363 . S
C129 N126 1.377 . S
C129 C142 1.479 . S
C130 C127 1.480 . S
C130 C131 1.383 . S
C130 C135 1.385 . S
C131 H112 0.947 . S
C131 C130 1.383 . S
C131 C132 1.388 . S
C132 H113 0.946 . S
C132 C131 1.388 . S
C132 C133 1.384 . S
C133 C132 1.384 . S
C133 C134 1.377 . S
C134 H114 0.953 . S
C134 C133 1.377 . S
C134 C135 1.369 . S
C135 H115 0.945 . S
C135 C130 1.385 . S
C135 C134 1.369 . S
C136 C128 1.457 . S
C136 C137 1.372 . S
C136 C141 1.364 . S
C137 H116 0.952 . S
C137 C136 1.372 . S
C137 C138 1.389 . S
C138 H117 0.949 . S
C138 C137 1.389 . S
C138 C139 1.387 . S
C139 C138 1.387 . S
C139 C140 1.372 . S
C140 H118 0.950 . S
C140 C139 1.372 . S
C140 C141 1.379 . S
C141 H119 0.948 . S
C141 C136 1.364 . S
C141 C140 1.379 . S
C142 C111 1.383 . S
C142 C129 1.479 . S
C142 C143 1.398 . S
C143 C108 1.382 . S
C143 H120 0.951 . S
C143 C142 1.398 . S
O144 Zn145 1.953 1_565 S
O144 C160 1.225 . S
Zn145 O144 1.953 1_545 S
Zn145 O146 1.949 1_655 S
Zn145 O152 1.919 . S
Zn145 O157 1.924 . S
O146 Zn145 1.949 1_455 S
O146 Zn147 1.923 . S
O146 Zn148 1.950 1_445 S
O146 Zn149 1.945 . S
Zn147 O146 1.923 . S
Zn147 O150 1.933 . S
Zn147 O153 1.941 . S
Zn147 O154 1.965 1_545 S
Zn148 O146 1.950 1_665 S
Zn148 O155 1.938 1_655 S
Zn148 O156 1.906 1_655 S
Zn148 O166 1.953 . S
Zn149 O146 1.945 . S
Zn149 O151 1.932 . S
Zn149 O158 1.977 1_545 S
Zn149 O159 1.910 1_455 S
O150 Zn147 1.933 . S
O150 C161 1.226 . S
O151 Zn149 1.932 . S
O151 C161 1.307 . S
O152 Zn145 1.919 . S
O152 C163 1.253 . S
O153 Zn147 1.941 . S
O153 C163 1.283 1_455 S
O154 Zn147 1.965 1_565 S
O154 C162 1.303 . S
O155 Zn148 1.938 1_455 S
O155 C162 1.247 . S
O156 Zn148 1.906 1_455 S
O156 C164 1.304 . S
O157 Zn145 1.924 . S
O157 C165 1.311 . S
O158 Zn149 1.977 1_565 S
O158 C164 1.272 . S
O159 Zn149 1.910 1_655 S
O159 C165 1.231 . S
C160 O144 1.225 . S
C160 O166 1.298 . S
C161 O150 1.226 . S
C161 O151 1.307 . S
C162 O154 1.303 . S
C162 O155 1.247 . S
C163 O152 1.253 . S
C163 O153 1.283 1_655 S
C164 O156 1.304 . S
C164 O158 1.272 . S
C165 O157 1.311 . S
C165 O159 1.231 . S
O166 Zn148 1.953 . S
O166 C160 1.298 . S
O167 Zn168 1.953 . S
O167 C183 1.225 . S
Zn168 O167 1.953 . S
Zn168 O169 1.949 . S
Zn168 O175 1.919 1_554 S
Zn168 O180 1.924 . S
O169 Zn168 1.949 . S
O169 Zn170 1.923 1_554 S
O169 Zn171 1.950 . S
O169 Zn172 1.945 . S
Zn170 O169 1.923 1_556 S
Zn170 O173 1.933 . S
Zn170 O176 1.941 . S
Zn170 O177 1.965 . S
Zn171 O169 1.950 . S
Zn171 O178 1.938 1_554 S
Zn171 O179 1.906 . S
Zn171 O189 1.953 . S
Zn172 O169 1.945 . S
Zn172 O174 1.932 . S
Zn172 O181 1.977 . S
Zn172 O182 1.910 . S
O173 Zn170 1.933 . S
O173 C184 1.226 1_556 S
O174 Zn172 1.932 . S
O174 C184 1.307 . S
O175 Zn168 1.919 1_556 S
O175 C186 1.253 . S
O176 Zn170 1.941 . S
O176 C186 1.283 . S
O177 Zn170 1.965 . S
O177 C185 1.303 . S
O178 Zn171 1.938 1_556 S
O178 C185 1.247 . S
O179 Zn171 1.906 . S
O179 C187 1.304 . S
O180 Zn168 1.924 . S
O180 C188 1.311 . S
O181 Zn172 1.977 . S
O181 C187 1.272 . S
O182 Zn172 1.910 . S
O182 C188 1.231 . S
C183 O167 1.225 . S
C183 O189 1.298 . S
C184 O173 1.226 1_554 S
C184 O174 1.307 . S
C185 O177 1.303 . S
C185 O178 1.247 . S
C186 O175 1.253 . S
C186 O176 1.283 . S
C187 O179 1.304 . S
C187 O181 1.272 . S
C188 O180 1.311 . S
C188 O182 1.231 . S
O189 Zn171 1.953 . S
O189 C183 1.298 . S
C190 C191 1.387 . S
C190 H194 0.950 . S
C190 C199 1.390 . S
C191 C190 1.387 . S
C191 C193 1.387 . S
H192 C199 0.950 . S
C193 C191 1.387 . S
C193 C195 1.390 . S
C193 H197 0.950 . S
H194 C190 0.950 . S
C195 C193 1.390 . S
C195 C196 1.387 . S
C195 H198 0.950 . S
C196 C195 1.387 . S
C196 C199 1.387 . S
H197 C193 0.950 . S
H198 C195 0.950 . S
C199 C190 1.390 . S
C199 H192 0.950 . S
C199 C196 1.387 . S
C200 C201 1.387 1_556 S
C200 H204 0.950 . S
C200 C209 1.390 . S
C201 C200 1.387 1_554 S
C201 C203 1.387 . S
H202 C209 0.950 . S
C203 C201 1.387 . S
C203 C205 1.390 . S
C203 H207 0.950 . S
H204 C200 0.950 . S
C205 C203 1.390 . S
C205 C206 1.387 . S
C205 H208 0.950 . S
C206 C205 1.387 . S
C206 C209 1.387 1_554 S
H207 C203 0.950 . S
H208 C205 0.950 . S
C209 C200 1.390 . S
C209 H202 0.950 . S
C209 C206 1.387 1_556 S
C210 C211 1.387 . S
C210 H214 0.950 . S
C210 C219 1.390 . S
C211 C210 1.387 . S
C211 C213 1.387 . S
H212 C219 0.950 . S
C213 C211 1.387 . S
C213 C215 1.390 . S
C213 H217 0.950 . S
H214 C210 0.950 . S
C215 C213 1.390 . S
C215 C216 1.387 . S
C215 H218 0.950 . S
C216 C215 1.387 . S
C216 C219 1.387 . S
H217 C213 0.950 . S
H218 C215 0.950 . S
C219 C210 1.390 . S
C219 H212 0.950 . S
C219 C216 1.387 . S
C220 C221 1.387 1_556 S
C220 H224 0.950 . S
C220 C229 1.390 . S
C221 C220 1.387 1_554 S
C221 C223 1.387 . S
H222 C229 0.950 . S
C223 C221 1.387 . S
C223 C225 1.390 . S
C223 H227 0.950 . S
H224 C220 0.950 . S
C225 C223 1.390 . S
C225 C226 1.387 . S
C225 H228 0.950 . S
C226 C225 1.387 . S
C226 C229 1.387 1_554 S
H227 C223 0.950 . S
H228 C225 0.950 . S
C229 C220 1.390 . S
C229 H222 0.950 . S
C229 C226 1.387 1_556 S
C230 C231 1.387 . S
C230 H234 0.950 . S
C230 C239 1.390 . S
C231 C230 1.387 . S
C231 C233 1.387 . S
H232 C239 0.950 . S
C233 C231 1.387 . S
C233 C235 1.390 . S
C233 H237 0.952 . S
H234 C230 0.950 . S
C235 C233 1.390 . S
C235 C236 1.387 . S
C235 H238 0.950 . S
C236 C235 1.387 . S
C236 C239 1.387 . S
H237 C233 0.952 . S
H238 C235 0.950 . S
C239 C230 1.390 . S
C239 H232 0.950 . S
C239 C236 1.387 . S
C240 C241 1.387 . S
C240 H244 0.950 . S
C240 C249 1.390 . S
C241 C240 1.387 . S
C241 C243 1.387 . S
H242 C249 0.950 . S
C243 C241 1.387 . S
C243 C245 1.390 . S
C243 H247 0.950 . S
H244 C240 0.950 . S
C245 C243 1.390 . S
C245 C246 1.387 . S
C245 H248 0.950 . S
C246 C245 1.387 . S
C246 C249 1.387 . S
H247 C243 0.950 . S
H248 C245 0.950 . S
C249 C240 1.390 . S
C249 H242 0.950 . S
C249 C246 1.387 . S
C250 C251 1.387 . S
C250 H254 0.950 . S
C250 C259 1.390 . S
C251 C250 1.387 . S
C251 C253 1.387 . S
H252 C259 0.950 . S
C253 C251 1.387 . S
C253 C255 1.390 . S
C253 H257 0.950 . S
H254 C250 0.950 . S
C255 C253 1.390 . S
C255 C256 1.387 . S
C255 H258 0.950 . S
C256 C255 1.387 . S
C256 C259 1.387 . S
H257 C253 0.950 . S
H258 C255 0.950 . S
C259 C250 1.390 . S
C259 H252 0.950 . S
C259 C256 1.387 . S
C260 C261 1.387 . S
C260 H264 0.950 . S
C260 C269 1.390 . S
C261 C260 1.387 . S
C261 C263 1.387 . S
H262 C269 0.950 . S
C263 C261 1.387 . S
C263 C265 1.390 . S
C263 H267 0.950 . S
H264 C260 0.950 . S
C265 C263 1.390 . S
C265 C266 1.387 . S
C265 H268 0.950 . S
C266 C265 1.387 . S
C266 C269 1.387 . S
H267 C263 0.950 . S
H268 C265 0.950 . S
C269 C260 1.390 . S
C269 H262 0.950 . S
C269 C266 1.387 . S
C270 C271 1.387 . S
C270 H274 0.950 . S
C270 C279 1.390 . S
C271 C270 1.387 . S
C271 C273 1.387 . S
H272 C279 0.950 . S
C273 C271 1.387 . S
C273 C275 1.390 . S
C273 H277 0.950 . S
H274 C270 0.950 . S
C275 C273 1.390 . S
C275 C276 1.387 . S
C275 H278 0.950 . S
C276 C275 1.387 . S
C276 C279 1.387 . S
H277 C273 0.950 . S
H278 C275 0.950 . S
C279 C270 1.390 . S
C279 H272 0.950 . S
C279 C276 1.387 . S
C280 C281 1.387 . S
C280 H284 0.950 1_655 S
C280 C289 1.392 . S
C281 C280 1.387 . S
C281 C283 1.387 . S
H282 C289 0.943 1_455 S
C283 C281 1.387 . S
C283 C285 1.390 . S
C283 H287 0.950 . S
H284 C280 0.950 1_455 S
C285 C283 1.390 . S
C285 C286 1.387 . S
C285 H288 0.950 . S
C286 C285 1.387 . S
C286 C289 1.392 . S
H287 C283 0.950 . S
H288 C285 0.950 . S
C289 C280 1.392 . S
C289 H282 0.943 1_655 S
C289 C286 1.392 . S
C290 C291 1.387 . S
C290 H294 0.950 . S
C290 C299 1.390 . S
C291 C290 1.387 . S
C291 C293 1.387 . S
H292 C299 0.950 . S
C293 C291 1.387 . S
C293 C295 1.390 . S
C293 H297 0.950 . S
H294 C290 0.950 . S
C295 C293 1.390 . S
C295 C296 1.387 . S
C295 H298 0.950 . S
C296 C295 1.387 . S
C296 C299 1.387 . S
H297 C293 0.950 . S
H298 C295 0.950 . S
C299 C290 1.390 . S
C299 H292 0.950 . S
C299 C296 1.387 . S
C300 C301 1.387 . S
C300 H304 0.950 . S
C300 C309 1.390 . S
C301 C300 1.387 . S
C301 C303 1.387 . S
H302 C309 0.950 . S
C303 C301 1.387 . S
C303 C305 1.386 1_455 S
C303 H307 0.950 1_455 S
H304 C300 0.950 . S
C305 C303 1.386 1_655 S
C305 C306 1.377 1_655 S
C305 H308 0.964 . S
C306 C305 1.377 1_455 S
C306 C309 1.387 . S
H307 C303 0.950 1_655 S
H308 C305 0.964 . S
C309 C300 1.390 . S
C309 H302 0.950 . S
C309 C306 1.387 . S
C196 C161 1.696 . S
C191 C133 1.688 . S
C201 C25 1.617 . S
C206 C184 1.695 . S
C211 C61 1.623 . S
C216 C160 1.702 . S
C221 C97 1.690 . S
C226 C183 1.703 . S
C236 C164 1.703 . S
C231 C1 1.696 . S
C246 C186 1.686 . S
C241 C67 1.619 . S
C251 C103 1.774 . S
C256 C165 1.687 . S
C261 C109 1.657 . S
C266 C185 1.633 . S
C276 C188 1.685 . S
C271 C37 1.708 . S
C286 C163 1.685 . S
C281 C73 1.678 . S
C296 C187 1.704 . S
C291 C139 1.760 . S
C301 C31 1.601 . S
C306 C162 1.634 . S
