# Generated by pormake.
# Topology nom, (4,4)-cn, num edge types: 1
# Building blocks:
#     Node 0, Type 0, BuildingBlock: MIFKUJ_clean_linker_1, # of connection points: 4
#     Node 1, Type 0, BuildingBlock: MIFKUJ_clean_linker_1, # of connection points: 4
#     Node 2, Type 0, BuildingBlock: MIFKUJ_clean_linker_1, # of connection points: 4
#     Node 3, Type 0, BuildingBlock: MIFKUJ_clean_linker_1, # of connection points: 4
#     Node 4, Type 0, BuildingBlock: MIFKUJ_clean_linker_1, # of connection points: 4
#     Node 5, Type 0, BuildingBlock: MIFKUJ_clean_linker_1, # of connection points: 4
#     Node 6, Type 1, BuildingBlock: AZAVOO_clean_sbu_0, # of connection points: 4
#     Node 7, Type 1, BuildingBlock: AZAVOO_clean_sbu_0, # of connection points: 4
#     Node 8, Type 1, BuildingBlock: AZAVOO_clean_sbu_0, # of connection points: 4
#     Node 9, Type 1, BuildingBlock: AZAVOO_clean_sbu_0, # of connection points: 4
#     Node 10, Type 1, BuildingBlock: AZAVOO_clean_sbu_0, # of connection points: 4
#     Node 11, Type 1, BuildingBlock: AZAVOO_clean_sbu_0, # of connection points: 4
#     Edge 12, Type (0, 1), BuildingBlock: CIFDUS_clean_linker_0, # of connection points: 2
#     Edge 13, Type (0, 1), BuildingBlock: CIFDUS_clean_linker_0, # of connection points: 2
#     Edge 14, Type (0, 1), BuildingBlock: CIFDUS_clean_linker_0, # of connection points: 2
#     Edge 15, Type (0, 1), BuildingBlock: CIFDUS_clean_linker_0, # of connection points: 2
#     Edge 16, Type (0, 1), BuildingBlock: CIFDUS_clean_linker_0, # of connection points: 2
#     Edge 17, Type (0, 1), BuildingBlock: CIFDUS_clean_linker_0, # of connection points: 2
#     Edge 18, Type (0, 1), BuildingBlock: CIFDUS_clean_linker_0, # of connection points: 2
#     Edge 19, Type (0, 1), BuildingBlock: CIFDUS_clean_linker_0, # of connection points: 2
#     Edge 20, Type (0, 1), BuildingBlock: CIFDUS_clean_linker_0, # of connection points: 2
#     Edge 21, Type (0, 1), BuildingBlock: CIFDUS_clean_linker_0, # of connection points: 2
#     Edge 22, Type (0, 1), BuildingBlock: CIFDUS_clean_linker_0, # of connection points: 2
#     Edge 23, Type (0, 1), BuildingBlock: CIFDUS_clean_linker_0, # of connection points: 2
#     Edge 24, Type (0, 1), BuildingBlock: CIFDUS_clean_linker_0, # of connection points: 2
#     Edge 25, Type (0, 1), BuildingBlock: CIFDUS_clean_linker_0, # of connection points: 2
#     Edge 26, Type (0, 1), BuildingBlock: CIFDUS_clean_linker_0, # of connection points: 2
#     Edge 27, Type (0, 1), BuildingBlock: CIFDUS_clean_linker_0, # of connection points: 2
#     Edge 28, Type (0, 1), BuildingBlock: CIFDUS_clean_linker_0, # of connection points: 2
#     Edge 29, Type (0, 1), BuildingBlock: CIFDUS_clean_linker_0, # of connection points: 2
#     Edge 30, Type (0, 1), BuildingBlock: CIFDUS_clean_linker_0, # of connection points: 2
#     Edge 31, Type (0, 1), BuildingBlock: CIFDUS_clean_linker_0, # of connection points: 2
#     Edge 32, Type (0, 1), BuildingBlock: CIFDUS_clean_linker_0, # of connection points: 2
#     Edge 33, Type (0, 1), BuildingBlock: CIFDUS_clean_linker_0, # of connection points: 2
#     Edge 34, Type (0, 1), BuildingBlock: CIFDUS_clean_linker_0, # of connection points: 2
#     Edge 35, Type (0, 1), BuildingBlock: CIFDUS_clean_linker_0, # of connection points: 2
# Relax obj value: 0.035
# Max RMSD: 0.156
# Mean RMSD: 0.123
data_MOF--net-nom--node1-AZAVOO_clean_sbu_0--node2-MIFKUJ_clean_linker_1--edge1-CIFDUS_clean_linker_0
_symmetry_space_group_name_H-M    P1
_symmetry_Int_Tables_number       1
_symmetry_cell_setting            triclinic
loop_
_symmetry_equiv_pos_as_xyz
'x, y, z'
_cell_length_a     47.935043
_cell_length_b     48.356696
_cell_length_c     48.852437
_cell_angle_alpha  91.039515
_cell_angle_beta   91.576568
_cell_angle_gamma 119.99587
loop_
_atom_site_label
_atom_site_type_symbol
_atom_site_fract_x
_atom_site_fract_y
_atom_site_fract_z
_atom_type_partial_charge
H0 H 0.93083 0.43967 0.30001 0.0
H1 H 0.89073 0.41974 0.26178 0.0
H2 H 0.92784 0.5163 0.23549 0.0
H3 H 0.96746 0.53614 0.274 0.0
H4 H 0.01611 0.52863 0.28712 0.0
H5 H 0.93385 0.44001 0.3698 0.0
H6 H 0.87796 0.41661 0.38412 0.0
H7 H 0.86971 0.49072 0.34297 0.0
H8 H 0.92528 0.51421 0.32945 0.0
H9 H 0.02778 0.55837 0.40306 0.0
H10 H 0.06832 0.57646 0.44095 0.0
H11 H 0.11646 0.53369 0.39919 0.0
H12 H 0.07595 0.51577 0.36128 0.0
H13 H 0.98479 0.4988 0.38278 0.0
H14 H 0.06432 0.59521 0.34963 0.0
H15 H 0.11755 0.63848 0.33818 0.0
H16 H 0.12828 0.57374 0.2832 0.0
H17 H 0.0749 0.53038 0.29485 0.0
C18 C 0.95219 0.48944 0.28996 0.0
C19 C 0.9302 0.45657 0.28611 0.0
C20 C 0.90741 0.44518 0.26415 0.0
C21 C 0.90604 0.46643 0.24558 0.0
C22 C 0.92798 0.49933 0.24957 0.0
C23 C 0.95087 0.51068 0.27144 0.0
C24 C 0.97656 0.50162 0.31326 0.0
C25 C 0.00922 0.52171 0.30795 0.0
C26 C 0.96765 0.49407 0.34071 0.0
C27 C 0.93353 0.4786 0.34829 0.0
C28 C 0.91986 0.45107 0.36388 0.0
C29 C 0.88801 0.43772 0.37196 0.0
C30 C 0.86962 0.45203 0.36488 0.0
C31 C 0.88343 0.47946 0.34914 0.0
C32 C 0.91506 0.49267 0.34107 0.0
C33 C 0.04884 0.53573 0.37936 0.0
C34 C 0.04705 0.55288 0.40208 0.0
C35 C 0.07034 0.5634 0.42359 0.0
C36 C 0.09556 0.5565 0.42298 0.0
C37 C 0.09721 0.53919 0.40026 0.0
C38 C 0.07417 0.52907 0.37858 0.0
C39 C 0.02426 0.52474 0.35641 0.0
C40 C 0.99165 0.50489 0.36181 0.0
C41 C 0.03295 0.53414 0.3293 0.0
C42 C 0.06586 0.55957 0.32325 0.0
C43 C 0.07831 0.59025 0.33536 0.0
C44 C 0.10856 0.61498 0.32866 0.0
C45 C 0.12696 0.60943 0.30981 0.0
C46 C 0.11467 0.57857 0.29799 0.0
C47 C 0.08421 0.55387 0.3045 0.0
H48 H 0.42929 0.94551 0.5406 0.0
H49 H 0.40242 0.88959 0.55392 0.0
H50 H 0.48078 0.88019 0.52262 0.0
H51 H 0.50746 0.93602 0.50927 0.0
H52 H 0.49166 0.99821 0.55509 0.0
H53 H 0.42986 0.93352 0.47693 0.0
H54 H 0.41079 0.89188 0.44082 0.0
H55 H 0.50624 0.93759 0.40857 0.0
H56 H 0.52559 0.97766 0.44592 0.0
H57 H 0.57275 0.07078 0.46904 0.0
H58 H 0.59603 0.12253 0.44767 0.0
H59 H 0.52149 0.13727 0.4807 0.0
H60 H 0.49895 0.08582 0.50266 0.0
H61 H 0.51134 0.02128 0.45675 0.0
H62 H 0.57454 0.08245 0.53597 0.0
H63 H 0.59547 0.12409 0.57242 0.0
H64 H 0.49905 0.08733 0.60074 0.0
H65 H 0.47816 0.04604 0.5639 0.0
C66 C 0.47024 0.94478 0.52387 0.0
C67 C 0.44075 0.93143 0.53682 0.0
C68 C 0.42533 0.89949 0.54418 0.0
C69 C 0.43947 0.88058 0.53913 0.0
C70 C 0.46943 0.89428 0.52682 0.0
C71 C 0.48462 0.92608 0.51915 0.0
C72 C 0.4854 0.97785 0.51423 0.0
C73 C 0.49563 0.00329 0.53356 0.0
C74 C 0.49103 0.98435 0.48617 0.0
C75 C 0.47933 0.95853 0.46449 0.0
C76 C 0.44688 0.93412 0.4625 0.0
C77 C 0.43587 0.91053 0.44152 0.0
C78 C 0.45692 0.9112 0.42168 0.0
C79 C 0.4894 0.93577 0.42373 0.0
C80 C 0.50047 0.95903 0.44494 0.0
C81 C 0.53417 0.07452 0.48742 0.0
C82 C 0.56174 0.08541 0.47197 0.0
C83 C 0.57487 0.1149 0.45964 0.0
C84 C 0.56043 0.13393 0.4622 0.0
C85 C 0.53345 0.12342 0.47854 0.0
C86 C 0.52046 0.09398 0.49106 0.0
C87 C 0.5182 0.04166 0.4976 0.0
C88 C 0.50749 0.0162 0.47831 0.0
C89 C 0.51227 0.03522 0.52561 0.0
C90 C 0.52474 0.06124 0.54708 0.0
C91 C 0.55784 0.08362 0.54979 0.0
C92 C 0.56981 0.10726 0.57075 0.0
C93 C 0.54892 0.109 0.58947 0.0
C94 C 0.51571 0.08686 0.58647 0.0
C95 C 0.50377 0.0631 0.56556 0.0
H96 H 0.54545 0.60436 0.67471 0.0
H97 H 0.53029 0.62712 0.71281 0.0
H98 H 0.47875 0.53389 0.7474 0.0
H99 H 0.49355 0.51117 0.70913 0.0
H100 H 0.54699 0.51864 0.68988 0.0
H101 H 0.5309 0.59624 0.60564 0.0
H102 H 0.49234 0.61345 0.59189 0.0
H103 H 0.42138 0.54208 0.64257 0.0
H104 H 0.45959 0.5249 0.65598 0.0
H105 H 0.50384 0.48432 0.5746 0.0
H106 H 0.51832 0.46827 0.53198 0.0
H107 H 0.61333 0.4988 0.56689 0.0
H108 H 0.59959 0.5166 0.60921 0.0
H109 H 0.52278 0.53772 0.59509 0.0
H110 H 0.52195 0.44665 0.62769 0.0
H111 H 0.53755 0.40738 0.63994 0.0
H112 H 0.61393 0.47798 0.69404 0.0
H113 H 0.59916 0.51754 0.68067 0.0
C114 C 0.52039 0.556 0.68894 0.0
C115 C 0.531 0.58886 0.69058 0.0
C116 C 0.52258 0.60189 0.71245 0.0
C117 C 0.50325 0.58225 0.73301 0.0
C118 C 0.49342 0.54954 0.73171 0.0
C119 C 0.50203 0.53657 0.70995 0.0
C120 C 0.52762 0.54178 0.66489 0.0
C121 C 0.542 0.52295 0.66909 0.0
C122 C 0.51962 0.54615 0.63786 0.0
C123 C 0.49823 0.5595 0.63205 0.0
C124 C 0.50716 0.58465 0.61404 0.0
C125 C 0.48519 0.59446 0.60623 0.0
C126 C 0.4538 0.57884 0.61594 0.0
C127 C 0.44528 0.55425 0.63448 0.0
C128 C 0.46723 0.54468 0.64243 0.0
C129 C 0.55061 0.5018 0.59523 0.0
C130 C 0.52784 0.48766 0.57321 0.0
C131 C 0.536 0.47835 0.54892 0.0
C132 C 0.56684 0.48239 0.54638 0.0
C133 C 0.58932 0.49533 0.56861 0.0
C134 C 0.58139 0.50532 0.59278 0.0
C135 C 0.54267 0.5147 0.61983 0.0
C136 C 0.52837 0.53364 0.61577 0.0
C137 C 0.54874 0.5085 0.64695 0.0
C138 C 0.55959 0.48523 0.65301 0.0
C139 C 0.54252 0.4539 0.64171 0.0
C140 C 0.55122 0.43131 0.64903 0.0
C141 C 0.57694 0.43942 0.66808 0.0
C142 C 0.59429 0.47096 0.67903 0.0
C143 C 0.5857 0.49358 0.67159 0.0
H144 H 0.06183 0.61799 0.78578 0.0
H145 H 0.09835 0.63249 0.74796 0.0
H146 H 0.07979 0.53522 0.74188 0.0
H147 H 0.04545 0.52195 0.78107 0.0
H148 H 0.98885 0.53986 0.77817 0.0
H149 H 0.09332 0.61994 0.82822 0.0
H150 H 0.14828 0.6335 0.84153 0.0
H151 H 0.11082 0.54497 0.88409 0.0
H152 H 0.05655 0.53027 0.86832 0.0
H153 H 0.96068 0.47543 0.86581 0.0
H154 H 0.925 0.44943 0.90325 0.0
H155 H 0.91113 0.53086 0.91315 0.0
H156 H 0.94862 0.55736 0.87679 0.0
H157 H 0.01956 0.55394 0.8773 0.0
H158 H 0.95302 0.47897 0.78357 0.0
H159 H 0.89887 0.43927 0.76726 0.0
H160 H 0.85983 0.48661 0.81583 0.0
H161 H 0.91453 0.52784 0.8304 0.0
C162 C 0.05183 0.56922 0.78661 0.0
C163 C 0.06636 0.60012 0.77661 0.0
C164 C 0.08679 0.60815 0.75467 0.0
C165 C 0.09218 0.58507 0.74168 0.0
C166 C 0.07701 0.55392 0.75165 0.0
C167 C 0.05721 0.54617 0.774 0.0
C168 C 0.02822 0.55986 0.80823 0.0
C169 C 0.99549 0.54348 0.79991 0.0
C170 C 0.03722 0.56319 0.83645 0.0
C171 C 0.07075 0.57357 0.84637 0.0
C172 C 0.09701 0.60311 0.83978 0.0
C173 C 0.12848 0.61116 0.84802 0.0
C174 C 0.13423 0.59014 0.86362 0.0
C175 C 0.10761 0.56139 0.87142 0.0
C176 C 0.07638 0.55309 0.86267 0.0
C177 C 0.95676 0.51799 0.86843 0.0
C178 C 0.94978 0.48751 0.87607 0.0
C179 C 0.92923 0.47266 0.8974 0.0
C180 C 0.91494 0.48791 0.91128 0.0
C181 C 0.92203 0.51855 0.90334 0.0
C182 C 0.94311 0.53362 0.88234 0.0
C183 C 0.98025 0.53431 0.84722 0.0
C184 C 0.01293 0.5516 0.8556 0.0
C185 C 0.97132 0.52935 0.81897 0.0
C186 C 0.93795 0.50616 0.80868 0.0
C187 C 0.93286 0.48112 0.79045 0.0
C188 C 0.90176 0.45815 0.78135 0.0
C189 C 0.87481 0.45932 0.79055 0.0
C190 C 0.87997 0.48495 0.80821 0.0
C191 C 0.91126 0.50829 0.817 0.0
H192 H 0.56847 0.0576 0.0325 0.0
H193 H 0.61205 0.11155 0.04444 0.0
H194 H 0.55988 0.15048 1.00203 0.0
H195 H 0.51575 0.09587 0.99018 0.0
H196 H 0.50377 0.02898 0.04514 0.0
H197 H 0.56964 0.06781 0.96459 0.0
H198 H 0.59031 0.10388 0.9268 0.0
H199 H 0.49301 0.066 0.89326 0.0
H200 H 0.47242 0.03173 0.9324 0.0
H201 H 0.42668 0.93428 0.95545 0.0
H202 H 0.40878 0.87873 0.94199 0.0
H203 H 0.47559 0.87774 0.00264 0.0
H204 H 0.49417 0.9335 0.01527 0.0
H205 H 0.4831 0.98415 0.94994 0.0
H206 H 0.41822 0.93696 0.02576 0.0
H207 H 0.39632 0.90461 0.06586 0.0
H208 H 0.48904 0.95956 0.10893 0.0
H209 H 0.51133 0.98962 0.06827 0.0
C210 C 0.53899 0.07276 0.01033 0.0
C211 C 0.56624 0.07771 0.0259 0.0
C212 C 0.59121 0.10853 0.03259 0.0
C213 C 0.58941 0.13515 0.02401 0.0
C214 C 0.56174 0.1303 0.00899 0.0
C215 C 0.53668 0.09924 1.00209 0.0
C216 C 0.51366 0.03949 0.00292 0.0
C217 C 0.49921 0.01893 0.02437 0.0
C218 C 0.50639 0.02704 0.9756 0.0
C219 C 0.5194 0.0477 0.95177 0.0
C220 C 0.55271 0.06765 0.94935 0.0
C221 C 0.56454 0.08792 0.92738 0.0
C222 C 0.54336 0.08806 0.90688 0.0
C223 C 0.51004 0.06713 0.90889 0.0
C224 C 0.49821 0.04725 0.93114 0.0
C225 C 0.46158 0.93809 0.98655 0.0
C226 C 0.43725 0.922 0.96602 0.0
C227 C 0.42689 0.89014 0.95847 0.0
C228 C 0.44081 0.87376 0.97119 0.0
C229 C 0.46461 0.88971 0.99221 0.0
C230 C 0.47496 0.92153 0.99971 0.0
C231 C 0.4752 0.97287 0.99258 0.0
C232 C 0.48705 0.99384 0.97079 0.0
C233 C 0.48015 0.98577 0.01971 0.0
C234 C 0.46655 0.96557 0.04378 0.0
C235 C 0.43396 0.94159 0.04368 0.0
C236 C 0.42131 0.92349 0.06684 0.0
C237 C 0.44088 0.9294 0.09071 0.0
C238 C 0.47333 0.95383 0.09082 0.0
C239 C 0.48607 0.97138 0.06758 0.0
H240 H 0.46777 0.42843 0.17646 0.0
H241 H 0.49006 0.40977 0.2127 0.0
H242 H 0.56825 0.50666 0.22798 0.0
H243 H 0.54654 0.52461 0.19094 0.0
H244 H 0.4744 0.5091 0.18654 0.0
H245 H 0.48951 0.42562 0.13043 0.0
H246 H 0.52936 0.4085 0.12522 0.0
H247 H 0.6021 0.50588 0.11045 0.0
H248 H 0.5624 0.52285 0.11678 0.0
H249 H 0.50808 0.54892 0.07262 0.0
H250 H 0.49013 0.56942 0.03476 0.0
H251 H 0.3997 0.53846 0.07307 0.0
H252 H 0.41676 0.51624 0.11028 0.0
H253 H 0.49523 0.49763 0.08932 0.0
H254 H 0.49725 0.58351 0.13207 0.0
H255 H 0.49 0.62498 0.1538 0.0
H256 H 0.4175 0.55467 0.20433 0.0
H257 H 0.42347 0.51281 0.18121 0.0
C258 C 0.50587 0.47772 0.18088 0.0
C259 C 0.48979 0.44549 0.18761 0.0
C260 C 0.50239 0.43498 0.20849 0.0
C261 C 0.53108 0.45669 0.22317 0.0
C262 C 0.54651 0.48918 0.21676 0.0
C263 C 0.53406 0.49955 0.19575 0.0
C264 C 0.49336 0.48896 0.15837 0.0
C265 C 0.4777 0.50577 0.16509 0.0
C266 C 0.50065 0.48694 0.13093 0.0
C267 C 0.52312 0.47548 0.12411 0.0
C268 C 0.51403 0.44318 0.12598 0.0
C269 C 0.53681 0.43345 0.12289 0.0
C270 C 0.56904 0.45589 0.11769 0.0
C271 C 0.57769 0.48809 0.11499 0.0
C272 C 0.55494 0.49777 0.11819 0.0
C273 C 0.46387 0.5309 0.09454 0.0
C274 C 0.48424 0.54617 0.07289 0.0
C275 C 0.47411 0.55812 0.05132 0.0
C276 C 0.44365 0.55563 0.05114 0.0
C277 C 0.42347 0.541 0.07295 0.0
C278 C 0.43331 0.5284 0.09425 0.0
C279 C 0.47431 0.51709 0.11703 0.0
C280 C 0.49016 0.50005 0.11044 0.0
C281 C 0.46927 0.52101 0.14501 0.0
C282 C 0.46068 0.54492 0.15477 0.0
C283 C 0.47896 0.57676 0.14711 0.0
C284 C 0.47526 0.6006 0.16 0.0
C285 C 0.45366 0.59325 0.18124 0.0
C286 C 0.43429 0.56115 0.18803 0.0
C287 C 0.43774 0.5372 0.17487 0.0
Mg288 Mg 0.61629 0.36336 0.37362 0.0
O289 O 0.60942 0.39109 0.40881 0.0
O290 O 0.62629 0.44098 0.39611 0.0
Mg291 Mg 0.64623 0.44581 0.35343 0.0
C292 C 0.61409 0.41915 0.4136 0.0
C293 C 0.60809 0.29961 0.39315 0.0
O294 O 0.61712 0.30001 0.36793 0.0
O295 O 0.67011 0.38798 0.38462 0.0
O296 O 0.68627 0.4376 0.37116 0.0
O297 O 0.56865 0.35181 0.35361 0.0
O298 O 0.61534 0.3942 0.34529 0.0
C299 C 0.69216 0.41686 0.38149 0.0
C300 C 0.58466 0.37812 0.3408 0.0
O301 O 0.60551 0.32297 0.40222 0.0
Mg302 Mg 0.267 0.63669 0.59628 0.0
O303 O 0.23087 0.60933 0.56009 0.0
O304 O 0.20371 0.55792 0.57079 0.0
Mg305 Mg 0.22013 0.5527 0.61384 0.0
C306 C 0.20964 0.58022 0.5543 0.0
C307 C 0.32426 0.69896 0.57669 0.0
O308 O 0.33826 0.69064 0.59574 0.0
O309 O 0.2994 0.61633 0.58497 0.0
O310 O 0.27016 0.5662 0.59873 0.0
O311 O 0.23024 0.64459 0.6166 0.0
O312 O 0.237 0.60329 0.62355 0.0
C313 C 0.29574 0.58866 0.58889 0.0
C314 C 0.22145 0.61798 0.62862 0.0
O315 O 0.29445 0.68052 0.57072 0.0
Mg316 Mg 0.62839 0.27133 0.76735 0.0
O317 O 0.62227 0.23751 0.73075 0.0
O318 O 0.64496 0.20909 0.74436 0.0
Mg319 Mg 0.66254 0.22191 0.78916 0.0
C320 C 0.63036 0.2164 0.72614 0.0
C321 C 0.58875 0.29404 0.73138 0.0
O322 O 0.56524 0.26586 0.73783 0.0
O323 O 0.68252 0.30259 0.76142 0.0
O324 O 0.70148 0.2721 0.77789 0.0
O325 O 0.58099 0.23464 0.78337 0.0
O326 O 0.62756 0.23822 0.79461 0.0
C327 C 0.70598 0.29825 0.76806 0.0
C328 C 0.59676 0.22345 0.79659 0.0
O329 O 0.61741 0.30265 0.73966 0.0
Mg330 Mg 0.38108 0.64855 0.87238 0.0
O331 O 0.39001 0.62092 0.90673 0.0
O332 O 0.36905 0.5707 0.89011 0.0
Mg333 Mg 0.34525 0.56505 0.8478 0.0
C334 C 0.38416 0.59219 0.90896 0.0
C335 C 0.42347 0.71138 0.90914 0.0
O336 O 0.44661 0.7062 0.90157 0.0
O337 O 0.32788 0.62636 0.88208 0.0
O338 O 0.30799 0.57666 0.86477 0.0
O339 O 0.42672 0.65773 0.85215 0.0
O340 O 0.3788 0.61596 0.84262 0.0
C341 C 0.30417 0.59839 0.87633 0.0
C342 C 0.40916 0.63091 0.83858 0.0
O343 O 0.39451 0.69144 0.90149 0.0
Mg344 Mg 0.7473 0.39426 0.0629 0.0
O345 O 0.77957 0.39933 0.10107 0.0
O346 O 0.80891 0.37757 0.08779 0.0
Mg347 Mg 0.79909 0.36278 0.04216 0.0
C348 C 0.80068 0.39104 0.10609 0.0
C349 C 0.68378 0.38779 0.0766 0.0
O350 O 0.67805 0.36839 0.05533 0.0
O351 O 0.7164 0.34031 0.06715 0.0
O352 O 0.74763 0.32271 0.04995 0.0
O353 O 0.78471 0.44226 0.04865 0.0
O354 O 0.78166 0.39651 0.03709 0.0
C355 C 0.72083 0.31753 0.05923 0.0
C356 C 0.79616 0.42701 0.0353 0.0
O357 O 0.71232 0.40317 0.08713 0.0
Mg358 Mg 0.37305 0.75833 0.23827 0.0
O359 O 0.39949 0.78713 0.27788 0.0
O360 O 0.45222 0.81216 0.27019 0.0
Mg361 Mg 0.4592 0.80368 0.22538 0.0
C362 C 0.42894 0.80513 0.28593 0.0
C363 C 0.30418 0.73082 0.26258 0.0
O364 O 0.30567 0.75602 0.25142 0.0
O365 O 0.39067 0.723 0.2445 0.0
O366 O 0.44178 0.75097 0.23227 0.0
O367 O 0.36807 0.7991 0.2225 0.0
O368 O 0.40933 0.79202 0.21533 0.0
C369 C 0.41755 0.72496 0.23941 0.0
C370 C 0.39584 0.80901 0.21193 0.0
O371 O 0.32809 0.72641 0.26123 0.0
H372 H 0.18341 0.60946 0.30688 0.0
H373 H 0.14097 0.66895 0.2951 0.0
H374 H 0.19247 0.71243 0.28059 0.0
H375 H 0.249 0.73274 0.26961 0.0
H376 H 0.29147 0.67318 0.28181 0.0
H377 H 0.24061 0.63065 0.29786 0.0
C378 C 0.1855 0.63195 0.30107 0.0
C379 C 0.1585 0.636 0.30191 0.0
C380 C 0.21517 0.65683 0.29284 0.0
C381 C 0.16155 0.66538 0.29476 0.0
C382 C 0.19092 0.69018 0.28637 0.0
C383 C 0.2472 0.71054 0.27593 0.0
C384 C 0.27398 0.70615 0.27432 0.0
C385 C 0.21783 0.68609 0.28514 0.0
C386 C 0.27125 0.67725 0.28276 0.0
C387 C 0.24212 0.65282 0.29189 0.0
H388 H 0.56617 0.19089 0.47891 0.0
H389 H 0.58066 0.14326 0.40975 0.0
H390 H 0.59805 0.19067 0.38294 0.0
H391 H 0.60713 0.24479 0.37833 0.0
H392 H 0.59078 0.29211 0.44661 0.0
H393 H 0.57575 0.24555 0.47437 0.0
C394 C 0.57299 0.19083 0.45793 0.0
C395 C 0.5722 0.16351 0.44647 0.0
C396 C 0.58247 0.21806 0.44238 0.0
C397 C 0.58156 0.16407 0.41934 0.0
C398 C 0.59126 0.19111 0.40386 0.0
C399 C 0.60041 0.24502 0.39932 0.0
C400 C 0.60001 0.27188 0.41032 0.0
C401 C 0.59158 0.21813 0.41509 0.0
C402 C 0.59121 0.27171 0.43757 0.0
C403 C 0.58261 0.24509 0.45348 0.0
H404 H 0.39289 0.5381 0.59709 0.0
H405 H 0.46018 0.63826 0.61305 0.0
H406 H 0.41775 0.65097 0.60185 0.0
H407 H 0.35998 0.63262 0.5928 0.0
H408 H 0.29289 0.53189 0.57874 0.0
H409 H 0.33682 0.52043 0.5835 0.0
C410 C 0.39827 0.56273 0.59798 0.0
C411 C 0.42939 0.58716 0.60633 0.0
C412 C 0.37377 0.56973 0.59184 0.0
C413 C 0.43632 0.61904 0.60677 0.0
C414 C 0.41205 0.62628 0.60047 0.0
C415 C 0.35514 0.60828 0.59008 0.0
C416 C 0.32317 0.58311 0.58564 0.0
C417 C 0.38047 0.60171 0.59364 0.0
C418 C 0.31724 0.55165 0.58238 0.0
C419 C 0.34232 0.54504 0.58522 0.0
H420 H 0.85397 0.39581 0.78518 0.0
H421 H 0.82065 0.46357 0.77857 0.0
H422 H 0.76566 0.4198 0.76862 0.0
H423 H 0.72659 0.36196 0.76446 0.0
H424 H 0.76105 0.29501 0.77074 0.0
H425 H 0.81623 0.33899 0.77711 0.0
C426 C 0.83492 0.40122 0.78097 0.0
C427 C 0.84159 0.43306 0.78274 0.0
C428 C 0.80349 0.37604 0.77506 0.0
C429 C 0.81622 0.43931 0.77782 0.0
C430 C 0.78478 0.41429 0.77192 0.0
C431 C 0.74623 0.357 0.76671 0.0
C432 C 0.73957 0.32516 0.76732 0.0
C433 C 0.77804 0.3825 0.77086 0.0
C434 C 0.76536 0.31923 0.7704 0.0
C435 C 0.79698 0.34438 0.77414 0.0
H436 H 0.48067 0.84957 0.96345 0.0
H437 H 0.38051 0.82381 0.95705 0.0
H438 H 0.3661 0.7708 0.93859 0.0
H439 H 0.38223 0.73254 0.92251 0.0
H440 H 0.48254 0.75863 0.9288 0.0
H441 H 0.49642 0.81044 0.9496 0.0
C442 C 0.4556 0.83221 0.95846 0.0
C443 C 0.43173 0.84077 0.9616 0.0
C444 C 0.44748 0.80178 0.94782 0.0
C445 C 0.39944 0.81806 0.95453 0.0
C446 C 0.39115 0.78767 0.94408 0.0
C447 C 0.40711 0.74942 0.92865 0.0
C448 C 0.43131 0.74166 0.92395 0.0
C449 C 0.41502 0.77939 0.94034 0.0
C450 C 0.4634 0.76392 0.93206 0.0
C451 C 0.4714 0.79362 0.94393 0.0
H452 H 0.56182 0.40246 0.0914 0.0
H453 H 0.63155 0.4869 0.13798 0.0
H454 H 0.67285 0.47223 0.13114 0.0
H455 H 0.6899 0.43681 0.10976 0.0
H456 H 0.61975 0.35256 0.06315 0.0
H457 H 0.57782 0.36536 0.0728 0.0
C458 C 0.5859 0.41741 0.10045 0.0
C459 C 0.59359 0.44588 0.11495 0.0
C460 C 0.60952 0.40884 0.09648 0.0
C461 C 0.62509 0.46515 0.12625 0.0
C462 C 0.6487 0.45669 0.12251 0.0
C463 C 0.66535 0.42104 0.10206 0.0
C464 C 0.65806 0.3939 0.08561 0.0
C465 C 0.64132 0.4288 0.10732 0.0
C466 C 0.62611 0.37375 0.0757 0.0
C467 C 0.60207 0.38106 0.08116 0.0
H468 H 0.37705 0.83537 0.52777 0.0
H469 H 0.46517 0.8498 0.56717 0.0
H470 H 0.43773 0.79423 0.58094 0.0
H471 H 0.38816 0.74235 0.58347 0.0
H472 H 0.30002 0.72769 0.54364 0.0
H473 H 0.32806 0.78245 0.52816 0.0
C474 C 0.39016 0.82629 0.53943 0.0
C475 C 0.42297 0.84664 0.54667 0.0
C476 C 0.37427 0.79431 0.54713 0.0
C477 C 0.4399 0.83452 0.56133 0.0
C478 C 0.42421 0.80281 0.56925 0.0
C479 C 0.3751 0.75102 0.57124 0.0
C480 C 0.34197 0.73098 0.56492 0.0
C481 C 0.39133 0.78258 0.56247 0.0
C482 C 0.32552 0.74258 0.54885 0.0
C483 C 0.3415 0.77396 0.54007 0.0
H484 H 0.53495 0.37728 0.67897 0.0
H485 H 0.63662 0.44628 0.67859 0.0
H486 H 0.6493 0.40712 0.69719 0.0
H487 H 0.63145 0.35396 0.71527 0.0
H488 H 0.52972 0.28483 0.71487 0.0
H489 H 0.51728 0.32318 0.69427 0.0
C490 C 0.55992 0.38365 0.68246 0.0
C491 C 0.58475 0.41483 0.67749 0.0
C492 C 0.56707 0.36097 0.69305 0.0
C493 C 0.61696 0.42267 0.68263 0.0
C494 C 0.62426 0.40023 0.69314 0.0
C495 C 0.60655 0.34717 0.71051 0.0
C496 C 0.58157 0.31657 0.71681 0.0
C497 C 0.5995 0.36942 0.69875 0.0
C498 C 0.54947 0.30821 0.71035 0.0
C499 C 0.54229 0.33017 0.6986 0.0
H500 H 0.15586 0.54778 0.8659 0.0
H501 H 0.1884 0.64839 0.87668 0.0
H502 H 0.24379 0.6597 0.88422 0.0
H503 H 0.28339 0.64121 0.88455 0.0
H504 H 0.24948 0.54019 0.87485 0.0
H505 H 0.19401 0.52889 0.87135 0.0
C506 C 0.17477 0.57217 0.8706 0.0
C507 C 0.16773 0.59716 0.87052 0.0
C508 C 0.20643 0.57846 0.87528 0.0
C509 C 0.19302 0.62866 0.87602 0.0
C510 C 0.22473 0.63515 0.88058 0.0
C511 C 0.26384 0.61667 0.88225 0.0
C512 C 0.27071 0.59164 0.87966 0.0
C513 C 0.2318 0.61027 0.8798 0.0
C514 C 0.245 0.55999 0.87663 0.0
C515 C 0.21321 0.55346 0.87451 0.0
H516 H 0.58852 0.18724 0.04543 0.0
H517 H 0.65248 0.1557 0.01614 0.0
H518 H 0.69887 0.20854 0.02662 0.0
H519 H 0.72116 0.26383 0.04265 0.0
H520 H 0.65789 0.29656 0.07158 0.0
H521 H 0.61146 0.24303 0.06312 0.0
C522 C 0.61263 0.1921 0.04126 0.0
C523 C 0.6171 0.16767 0.03002 0.0
C524 C 0.63933 0.22261 0.04746 0.0
C525 C 0.64847 0.17408 0.02498 0.0
C526 C 0.675 0.20427 0.03094 0.0
C527 C 0.69729 0.25932 0.04739 0.0
C528 C 0.69314 0.28434 0.05766 0.0
C529 C 0.67071 0.22871 0.0421 0.0
C530 C 0.66192 0.27782 0.06371 0.0
C531 C 0.63528 0.24723 0.0587 0.0
H532 H 0.40061 0.59346 0.20014 0.0
H533 H 0.50423 0.65134 0.19799 0.0
H534 H 0.50246 0.69609 0.21975 0.0
H535 H 0.47129 0.72034 0.23495 0.0
H536 H 0.36767 0.66299 0.23718 0.0
H537 H 0.36989 0.61605 0.22111 0.0
C538 C 0.42285 0.61566 0.20487 0.0
C539 C 0.45241 0.61925 0.19677 0.0
C540 C 0.42174 0.64134 0.21761 0.0
C541 C 0.48102 0.64823 0.20313 0.0
C542 C 0.4801 0.67376 0.21584 0.0
C543 C 0.44919 0.69746 0.23242 0.0
C544 C 0.41934 0.69536 0.23679 0.0
C545 C 0.45054 0.67083 0.22248 0.0
C546 C 0.39101 0.66538 0.23386 0.0
C547 C 0.39221 0.63856 0.22439 0.0
H548 H 0.84252 0.48462 0.38605 0.0
H549 H 0.82136 0.3894 0.36283 0.0
H550 H 0.76413 0.36884 0.37049 0.0
H551 H 0.71952 0.3795 0.37751 0.0
H552 H 0.74121 0.47578 0.39716 0.0
H553 H 0.79882 0.49437 0.39735 0.0
C554 C 0.82538 0.45932 0.38283 0.0
C555 C 0.83599 0.43865 0.37343 0.0
C556 C 0.7926 0.44793 0.3865 0.0
C557 C 0.81373 0.4058 0.37003 0.0
C558 C 0.781 0.39409 0.37423 0.0
C559 C 0.7369 0.40437 0.3825 0.0
C560 C 0.72622 0.42631 0.38709 0.0
C561 C 0.77004 0.41512 0.38161 0.0
C562 C 0.74893 0.45853 0.39332 0.0
C563 C 0.78184 0.46919 0.39335 0.0
H564 H 0.11569 0.52049 0.44977 0.0
H565 H 0.1291 0.6155 0.44857 0.0
H566 H 0.16736 0.63198 0.48799 0.0
H567 H 0.19543 0.61871 0.52395 0.0
H568 H 0.17945 0.52272 0.52639 0.0
H569 H 0.14416 0.50742 0.48524 0.0
C570 C 0.12727 0.54489 0.45798 0.0
C571 C 0.11963 0.56676 0.44628 0.0
C572 C 0.14879 0.55401 0.48091 0.0
C573 C 0.13444 0.59817 0.45737 0.0
C574 C 0.15637 0.60762 0.47984 0.0
C575 C 0.1845 0.59456 0.51528 0.0
C576 C 0.19014 0.57192 0.52822 0.0
C577 C 0.16353 0.58567 0.49194 0.0
C578 C 0.17544 0.54058 0.51692 0.0
C579 C 0.15523 0.5318 0.49337 0.0
H580 H 0.60131 0.12465 0.62279 0.0
H581 H 0.52529 0.14648 0.60882 0.0
H582 H 0.54506 0.18347 0.64883 0.0
H583 H 0.5826 0.2077 0.68911 0.0
H584 H 0.65735 0.184 0.70341 0.0
H585 H 0.63979 0.15017 0.66174 0.0
C586 C 0.58935 0.13786 0.62824 0.0
C587 C 0.56188 0.13282 0.61284 0.0
C588 C 0.60063 0.15878 0.65139 0.0
C589 C 0.54632 0.14971 0.6205 0.0
C590 C 0.55768 0.17095 0.64331 0.0
C591 C 0.59529 0.19545 0.6829 0.0
C592 C 0.62123 0.19837 0.69943 0.0
C593 C 0.58463 0.17541 0.65911 0.0
C594 C 0.6372 0.18206 0.6912 0.0
C595 C 0.62717 0.16267 0.66735 0.0
H596 H 0.4424 0.55672 0.74988 0.0
H597 H 0.53794 0.63752 0.76447 0.0
H598 H 0.51772 0.65948 0.7993 0.0
H599 H 0.47222 0.65594 0.82498 0.0
H600 H 0.37665 0.57564 0.80776 0.0
H601 H 0.39765 0.55311 0.77513 0.0
C602 C 0.4589 0.57892 0.76095 0.0
C603 C 0.49161 0.59534 0.75478 0.0
C604 C 0.44709 0.59148 0.78061 0.0
C605 C 0.51258 0.62449 0.76882 0.0
C606 C 0.50105 0.63699 0.78877 0.0
C607 C 0.45607 0.63342 0.81422 0.0
C608 C 0.42293 0.61732 0.81931 0.0
C609 C 0.46825 0.62076 0.79475 0.0
C610 C 0.40231 0.58834 0.80486 0.0
C611 C 0.41426 0.57544 0.78593 0.0
H612 H 0.90762 0.51501 0.95834 0.0
H613 H 0.87133 0.42416 0.91467 0.0
H614 H 0.83443 0.39738 0.9509 0.0
H615 H 0.81009 0.39978 0.99336 0.0
H616 H 0.84157 0.49067 0.03497 0.0
H617 H 0.88254 0.51749 1.00094 0.0
C618 C 0.89144 0.4894 0.95653 0.0
C619 C 0.89253 0.47174 0.93369 0.0
C620 C 0.86937 0.47414 0.97706 0.0
C621 C 0.87167 0.43843 0.93215 0.0
C622 C 0.85029 0.42304 0.95279 0.0
C623 C 0.8262 0.42542 0.99523 0.0
C624 C 0.823 0.44324 0.01671 0.0
C625 C 0.84876 0.44067 0.97517 0.0
C626 C 0.84367 0.47648 0.01861 0.0
C627 C 0.86698 0.49178 0.99913 0.0
H628 H 0.47232 0.9092 0.1246 0.0
H629 H 0.38054 0.90448 0.11168 0.0
H630 H 0.35918 0.8691 0.15015 0.0
H631 H 0.36583 0.83672 0.18556 0.0
H632 H 0.45852 0.84342 0.19813 0.0
H633 H 0.48062 0.882 0.16247 0.0
C634 C 0.44787 0.90119 0.13049 0.0
C635 C 0.4281 0.90947 0.11509 0.0
C636 C 0.43593 0.88131 0.15276 0.0
C637 C 0.39619 0.89803 0.1228 0.0
C638 C 0.38402 0.87801 0.14496 0.0
C639 C 0.39103 0.84718 0.18088 0.0
C640 C 0.41038 0.83687 0.19431 0.0
C641 C 0.40356 0.86911 0.15985 0.0
C642 C 0.44294 0.85051 0.18794 0.0
C643 C 0.45564 0.87259 0.16744 0.0
H644 H 0.50014 0.41153 0.26137 0.0
H645 H 0.59473 0.47648 0.23259 0.0
H646 H 0.61922 0.459 0.26736 0.0
H647 H 0.61405 0.42461 0.30482 0.0
H648 H 0.52002 0.35725 0.33279 0.0
H649 H 0.49495 0.37607 0.2991 0.0
C650 C 0.52608 0.42167 0.26257 0.0
C651 C 0.54554 0.44552 0.24447 0.0
C652 C 0.5401 0.41107 0.28238 0.0
C653 C 0.57917 0.45862 0.24656 0.0
C654 C 0.59323 0.44846 0.26631 0.0
C655 C 0.58806 0.41417 0.3038 0.0
C656 C 0.56893 0.38974 0.32142 0.0
C657 C 0.57395 0.42473 0.28426 0.0
C658 C 0.53527 0.37616 0.31948 0.0
C659 C 0.52097 0.38689 0.30022 0.0
H660 H 0.48831 0.88409 0.39688 0.0
H661 H 0.39842 0.88459 0.3934 0.0
H662 H 0.38031 0.84858 0.35309 0.0
H663 H 0.39181 0.82074 0.3163 0.0
H664 H 0.48373 0.82462 0.31744 0.0
H665 H 0.49931 0.85538 0.3609 0.0
C666 C 0.46482 0.87654 0.38727 0.0
C667 C 0.44494 0.88734 0.39824 0.0
C668 C 0.45494 0.85669 0.36348 0.0
C669 C 0.41421 0.87648 0.38576 0.0
C670 C 0.40387 0.85605 0.36249 0.0
C671 C 0.41504 0.8279 0.32631 0.0
C672 C 0.4366 0.82044 0.31369 0.0
C673 C 0.42426 0.84646 0.35088 0.0
C674 C 0.46678 0.83021 0.3267 0.0
C675 C 0.47572 0.84782 0.35153 0.0
H676 H 0.58141 0.43607 0.5352 0.0
H677 H 0.57206 0.51159 0.49866 0.0
H678 H 0.58653 0.49919 0.45426 0.0
H679 H 0.60135 0.46657 0.42589 0.0
H680 H 0.60752 0.38872 0.46159 0.0
H681 H 0.59459 0.40208 0.5062 0.0
C682 C 0.5827 0.44975 0.51744 0.0
C683 C 0.57596 0.47475 0.51995 0.0
C684 C 0.5903 0.44198 0.4919 0.0
C685 C 0.57724 0.49225 0.49696 0.0
C686 C 0.58549 0.48517 0.47167 0.0
C687 C 0.59994 0.45257 0.44344 0.0
C688 C 0.60553 0.4268 0.44045 0.0
C689 C 0.59199 0.46005 0.46889 0.0
C690 C 0.60321 0.40863 0.46332 0.0
C691 C 0.59593 0.41631 0.48886 0.0
H692 H 0.13202 0.56216 0.72829 0.0
H693 H 0.10001 0.6266 0.70091 0.0
H694 H 0.13646 0.64188 0.66317 0.0
H695 H 0.17863 0.63805 0.63856 0.0
H696 H 0.20748 0.57079 0.66439 0.0
H697 H 0.17003 0.55464 0.70142 0.0
C698 C 0.13238 0.57906 0.71384 0.0
C699 C 0.11337 0.59337 0.71783 0.0
C700 C 0.15271 0.58711 0.69168 0.0
C701 C 0.11489 0.61572 0.69896 0.0
C702 C 0.13552 0.62428 0.67712 0.0
C703 C 0.17645 0.61963 0.65213 0.0
C704 C 0.19594 0.60579 0.6488 0.0
C705 C 0.15476 0.61034 0.67342 0.0
C706 C 0.19272 0.5818 0.66643 0.0
C707 C 0.17143 0.57266 0.68775 0.0
H708 H 0.51623 0.11961 0.88171 0.0
H709 H 0.59909 0.10669 0.87989 0.0
H710 H 0.62221 0.1465 0.84502 0.0
H711 H 0.62018 0.18665 0.81676 0.0
H712 H 0.53642 0.1979 0.81636 0.0
H713 H 0.51186 0.15617 0.84984 0.0
C714 C 0.53904 0.12495 0.87336 0.0
C715 C 0.55603 0.11037 0.88387 0.0
C716 C 0.55201 0.14749 0.85285 0.0
C717 C 0.58578 0.11806 0.87285 0.0
C718 C 0.59896 0.14067 0.8527 0.0
C719 C 0.59647 0.17988 0.82373 0.0
C720 C 0.58035 0.19563 0.81421 0.0
C721 C 0.58252 0.15587 0.84287 0.0
C722 C 0.54939 0.18615 0.82334 0.0
C723 C 0.53539 0.16241 0.8426 0.0
H724 H 0.43992 0.53778 0.99798 0.0
H725 H 0.42172 0.59808 0.05169 0.0
H726 H 0.40301 0.61628 0.01232 0.0
H727 H 0.39114 0.61423 0.96226 0.0
H728 H 0.40587 0.55031 0.90979 0.0
H729 H 0.4267 0.53446 0.94882 0.0
C730 C 0.432 0.55504 1.00097 0.0
C731 C 0.43238 0.56682 0.02752 0.0
C732 C 0.42061 0.56469 0.97842 0.0
C733 C 0.42159 0.58875 0.03133 0.0
C734 C 0.41097 0.59915 0.00885 0.0
C735 C 0.39904 0.59695 0.95947 0.0
C736 C 0.39698 0.58348 0.93318 0.0
C737 C 0.41028 0.58722 0.98225 0.0
C738 C 0.40699 0.56085 0.92984 0.0
C739 C 0.41899 0.55181 0.95214 0.0
H740 H 0.89036 0.41522 0.21137 0.0
H741 H 0.86891 0.49073 0.22595 0.0
H742 H 0.83253 0.47276 0.18523 0.0
H743 H 0.80881 0.43708 0.14407 0.0
H744 H 0.83196 0.36273 0.12917 0.0
H745 H 0.86505 0.37836 0.17157 0.0
C746 C 0.87737 0.42747 0.20589 0.0
C747 C 0.88247 0.45435 0.22169 0.0
C748 C 0.85672 0.41719 0.18231 0.0
C749 C 0.86577 0.47022 0.21398 0.0
C750 C 0.84483 0.45987 0.19075 0.0
C751 C 0.82073 0.42403 0.1503 0.0
C752 C 0.81789 0.39879 0.13336 0.0
C753 C 0.84039 0.43359 0.17454 0.0
C754 C 0.83382 0.38236 0.14168 0.0
C755 C 0.85281 0.39129 0.16595 0.0
loop_
_geom_bond_atom_site_label_1
_geom_bond_atom_site_label_2
_geom_bond_distance
_geom_bond_site_symmetry_2
_ccdc_geom_bond_type
H0 C19 0.949 . S
H1 C20 0.950 . S
H2 C22 0.950 . S
H3 C23 0.950 . S
H4 C25 0.950 . S
H5 C28 0.950 . S
H6 C29 0.950 . S
H7 C31 0.951 . S
H8 C32 0.949 . S
H9 C34 0.949 . S
H10 C35 0.950 . S
H11 C37 0.950 . S
H12 C38 0.950 . S
H13 C40 0.950 . S
H14 C43 0.950 . S
H15 C44 0.950 . S
H16 C46 0.951 . S
H17 C47 0.949 . S
C18 C19 1.376 . S
C18 C23 1.386 . S
C18 C24 1.483 . S
C19 H0 0.949 . S
C19 C18 1.376 . S
C19 C20 1.397 . S
C20 H1 0.950 . S
C20 C19 1.397 . S
C20 C21 1.391 . S
C21 C20 1.391 . S
C21 C22 1.405 . S
C22 H2 0.950 . S
C22 C21 1.405 . S
C22 C23 1.367 . S
C23 H3 0.950 . S
C23 C18 1.386 . S
C23 C22 1.367 . S
C24 C18 1.483 . S
C24 C25 1.382 1_655 S
C24 C26 1.403 . S
C25 H4 0.950 . S
C25 C24 1.382 1_455 S
C25 C41 1.411 . S
C26 C24 1.403 . S
C26 C27 1.489 . S
C26 C40 1.411 . S
C27 C26 1.489 . S
C27 C28 1.383 . S
C27 C32 1.382 . S
C28 H5 0.950 . S
C28 C27 1.383 . S
C28 C29 1.395 . S
C29 H6 0.950 . S
C29 C28 1.395 . S
C29 C30 1.288 . S
C30 C29 1.288 . S
C30 C31 1.392 . S
C31 H7 0.951 . S
C31 C30 1.392 . S
C31 C32 1.392 . S
C32 H8 0.949 . S
C32 C27 1.382 . S
C32 C31 1.392 . S
C33 C34 1.376 . S
C33 C38 1.386 . S
C33 C39 1.483 . S
C34 H9 0.949 . S
C34 C33 1.376 . S
C34 C35 1.397 . S
C35 H10 0.950 . S
C35 C34 1.397 . S
C35 C36 1.391 . S
C36 C35 1.391 . S
C36 C37 1.405 . S
C37 H11 0.950 . S
C37 C36 1.405 . S
C37 C38 1.367 . S
C38 H12 0.950 . S
C38 C33 1.386 . S
C38 C37 1.367 . S
C39 C33 1.483 . S
C39 C40 1.382 1_455 S
C39 C41 1.403 . S
C40 H13 0.950 . S
C40 C26 1.411 . S
C40 C39 1.382 1_655 S
C41 C25 1.411 . S
C41 C39 1.403 . S
C41 C42 1.489 . S
C42 C41 1.489 . S
C42 C43 1.383 . S
C42 C47 1.382 . S
C43 H14 0.950 . S
C43 C42 1.383 . S
C43 C44 1.395 . S
C44 H15 0.950 . S
C44 C43 1.395 . S
C44 C45 1.288 . S
C45 C44 1.288 . S
C45 C46 1.392 . S
C46 H16 0.951 . S
C46 C45 1.392 . S
C46 C47 1.392 . S
C47 H17 0.949 . S
C47 C42 1.382 . S
C47 C46 1.392 . S
H48 C67 0.949 . S
H49 C68 0.950 . S
H50 C70 0.950 . S
H51 C71 0.950 . S
H52 C73 0.950 1_565 S
H53 C76 0.950 . S
H54 C77 0.950 . S
H55 C79 0.951 . S
H56 C80 0.949 . S
H57 C82 0.949 . S
H58 C83 0.950 . S
H59 C85 0.950 . S
H60 C86 0.950 . S
H61 C88 0.950 . S
H62 C91 0.950 . S
H63 C92 0.950 . S
H64 C94 0.951 . S
H65 C95 0.949 . S
C66 C67 1.376 . S
C66 C71 1.386 . S
C66 C72 1.483 . S
C67 H48 0.949 . S
C67 C66 1.376 . S
C67 C68 1.397 . S
C68 H49 0.950 . S
C68 C67 1.397 . S
C68 C69 1.391 . S
C69 C68 1.391 . S
C69 C70 1.405 . S
C70 H50 0.950 . S
C70 C69 1.405 . S
C70 C71 1.367 . S
C71 H51 0.950 . S
C71 C66 1.386 . S
C71 C70 1.367 . S
C72 C66 1.483 . S
C72 C73 1.382 1_565 S
C72 C74 1.403 . S
C73 H52 0.950 1_545 S
C73 C72 1.382 1_545 S
C73 C89 1.411 . S
C74 C72 1.403 . S
C74 C75 1.489 . S
C74 C88 1.411 1_565 S
C75 C74 1.489 . S
C75 C76 1.383 . S
C75 C80 1.382 . S
C76 H53 0.950 . S
C76 C75 1.383 . S
C76 C77 1.395 . S
C77 H54 0.950 . S
C77 C76 1.395 . S
C77 C78 1.288 . S
C78 C77 1.288 . S
C78 C79 1.392 . S
C79 H55 0.951 . S
C79 C78 1.392 . S
C79 C80 1.392 . S
C80 H56 0.949 . S
C80 C75 1.382 . S
C80 C79 1.392 . S
C81 C82 1.376 . S
C81 C86 1.386 . S
C81 C87 1.483 . S
C82 H57 0.949 . S
C82 C81 1.376 . S
C82 C83 1.397 . S
C83 H58 0.950 . S
C83 C82 1.397 . S
C83 C84 1.391 . S
C84 C83 1.391 . S
C84 C85 1.405 . S
C85 H59 0.950 . S
C85 C84 1.405 . S
C85 C86 1.367 . S
C86 H60 0.950 . S
C86 C81 1.386 . S
C86 C85 1.367 . S
C87 C81 1.483 . S
C87 C88 1.382 . S
C87 C89 1.403 . S
C88 H61 0.950 . S
C88 C74 1.411 1_545 S
C88 C87 1.382 . S
C89 C73 1.411 . S
C89 C87 1.403 . S
C89 C90 1.489 . S
C90 C89 1.489 . S
C90 C91 1.383 . S
C90 C95 1.382 . S
C91 H62 0.950 . S
C91 C90 1.383 . S
C91 C92 1.395 . S
C92 H63 0.950 . S
C92 C91 1.395 . S
C92 C93 1.288 . S
C93 C92 1.288 . S
C93 C94 1.392 . S
C94 H64 0.951 . S
C94 C93 1.392 . S
C94 C95 1.392 . S
C95 H65 0.949 . S
C95 C90 1.382 . S
C95 C94 1.392 . S
H96 C115 0.949 . S
H97 C116 0.950 . S
H98 C118 0.950 . S
H99 C119 0.950 . S
H100 C121 0.950 . S
H101 C124 0.950 . S
H102 C125 0.950 . S
H103 C127 0.951 . S
H104 C128 0.949 . S
H105 C130 0.949 . S
H106 C131 0.950 . S
H107 C133 0.950 . S
H108 C134 0.950 . S
H109 C136 0.950 . S
H110 C139 0.950 . S
H111 C140 0.950 . S
H112 C142 0.951 . S
H113 C143 0.949 . S
C114 C115 1.376 . S
C114 C119 1.386 . S
C114 C120 1.483 . S
C115 H96 0.949 . S
C115 C114 1.376 . S
C115 C116 1.397 . S
C116 H97 0.950 . S
C116 C115 1.397 . S
C116 C117 1.391 . S
C117 C116 1.391 . S
C117 C118 1.405 . S
C118 H98 0.950 . S
C118 C117 1.405 . S
C118 C119 1.367 . S
C119 H99 0.950 . S
C119 C114 1.386 . S
C119 C118 1.367 . S
C120 C114 1.483 . S
C120 C121 1.382 . S
C120 C122 1.403 . S
C121 H100 0.950 . S
C121 C120 1.382 . S
C121 C137 1.411 . S
C122 C120 1.403 . S
C122 C123 1.489 . S
C122 C136 1.411 . S
C123 C122 1.489 . S
C123 C124 1.383 . S
C123 C128 1.382 . S
C124 H101 0.950 . S
C124 C123 1.383 . S
C124 C125 1.395 . S
C125 H102 0.950 . S
C125 C124 1.395 . S
C125 C126 1.288 . S
C126 C125 1.288 . S
C126 C127 1.392 . S
C127 H103 0.951 . S
C127 C126 1.392 . S
C127 C128 1.392 . S
C128 H104 0.949 . S
C128 C123 1.382 . S
C128 C127 1.392 . S
C129 C130 1.376 . S
C129 C134 1.386 . S
C129 C135 1.483 . S
C130 H105 0.949 . S
C130 C129 1.376 . S
C130 C131 1.397 . S
C131 H106 0.950 . S
C131 C130 1.397 . S
C131 C132 1.391 . S
C132 C131 1.391 . S
C132 C133 1.405 . S
C133 H107 0.950 . S
C133 C132 1.405 . S
C133 C134 1.367 . S
C134 H108 0.950 . S
C134 C129 1.386 . S
C134 C133 1.367 . S
C135 C129 1.483 . S
C135 C136 1.382 . S
C135 C137 1.403 . S
C136 H109 0.950 . S
C136 C122 1.411 . S
C136 C135 1.382 . S
C137 C121 1.411 . S
C137 C135 1.403 . S
C137 C138 1.489 . S
C138 C137 1.489 . S
C138 C139 1.383 . S
C138 C143 1.382 . S
C139 H110 0.950 . S
C139 C138 1.383 . S
C139 C140 1.395 . S
C140 H111 0.950 . S
C140 C139 1.395 . S
C140 C141 1.288 . S
C141 C140 1.288 . S
C141 C142 1.392 . S
C142 H112 0.951 . S
C142 C141 1.392 . S
C142 C143 1.392 . S
C143 H113 0.949 . S
C143 C138 1.382 . S
C143 C142 1.392 . S
H144 C163 0.949 . S
H145 C164 0.950 . S
H146 C166 0.950 . S
H147 C167 0.950 . S
H148 C169 0.950 . S
H149 C172 0.950 . S
H150 C173 0.950 . S
H151 C175 0.951 . S
H152 C176 0.949 . S
H153 C178 0.949 . S
H154 C179 0.950 . S
H155 C181 0.950 . S
H156 C182 0.950 . S
H157 C184 0.950 . S
H158 C187 0.950 . S
H159 C188 0.950 . S
H160 C190 0.951 . S
H161 C191 0.949 . S
C162 C163 1.376 . S
C162 C167 1.386 . S
C162 C168 1.483 . S
C163 H144 0.949 . S
C163 C162 1.376 . S
C163 C164 1.397 . S
C164 H145 0.950 . S
C164 C163 1.397 . S
C164 C165 1.391 . S
C165 C164 1.391 . S
C165 C166 1.405 . S
C166 H146 0.950 . S
C166 C165 1.405 . S
C166 C167 1.367 . S
C167 H147 0.950 . S
C167 C162 1.386 . S
C167 C166 1.367 . S
C168 C162 1.483 . S
C168 C169 1.382 1_455 S
C168 C170 1.403 . S
C169 H148 0.950 . S
C169 C168 1.382 1_655 S
C169 C185 1.411 . S
C170 C168 1.403 . S
C170 C171 1.489 . S
C170 C184 1.411 . S
C171 C170 1.489 . S
C171 C172 1.383 . S
C171 C176 1.382 . S
C172 H149 0.950 . S
C172 C171 1.383 . S
C172 C173 1.395 . S
C173 H150 0.950 . S
C173 C172 1.395 . S
C173 C174 1.288 . S
C174 C173 1.288 . S
C174 C175 1.392 . S
C175 H151 0.951 . S
C175 C174 1.392 . S
C175 C176 1.392 . S
C176 H152 0.949 . S
C176 C171 1.382 . S
C176 C175 1.392 . S
C177 C178 1.376 . S
C177 C182 1.386 . S
C177 C183 1.483 . S
C178 H153 0.949 . S
C178 C177 1.376 . S
C178 C179 1.397 . S
C179 H154 0.950 . S
C179 C178 1.397 . S
C179 C180 1.391 . S
C180 C179 1.391 . S
C180 C181 1.405 . S
C181 H155 0.950 . S
C181 C180 1.405 . S
C181 C182 1.367 . S
C182 H156 0.950 . S
C182 C177 1.386 . S
C182 C181 1.367 . S
C183 C177 1.483 . S
C183 C184 1.382 1_655 S
C183 C185 1.403 . S
C184 H157 0.950 . S
C184 C170 1.411 . S
C184 C183 1.382 1_455 S
C185 C169 1.411 . S
C185 C183 1.403 . S
C185 C186 1.489 . S
C186 C185 1.489 . S
C186 C187 1.383 . S
C186 C191 1.382 . S
C187 H158 0.950 . S
C187 C186 1.383 . S
C187 C188 1.395 . S
C188 H159 0.950 . S
C188 C187 1.395 . S
C188 C189 1.288 . S
C189 C188 1.288 . S
C189 C190 1.392 . S
C190 H160 0.951 . S
C190 C189 1.392 . S
C190 C191 1.392 . S
C191 H161 0.949 . S
C191 C186 1.382 . S
C191 C190 1.392 . S
H192 C211 0.949 . S
H193 C212 0.950 . S
H194 C214 0.950 . S
H195 C215 0.974 . S
H196 C217 0.950 . S
H197 C220 0.950 . S
H198 C221 0.950 . S
H199 C223 0.951 . S
H200 C224 0.949 . S
H201 C226 0.949 . S
H202 C227 0.950 . S
H203 C229 0.950 . S
H204 C230 0.950 . S
H205 C232 0.950 1_565 S
H206 C235 0.950 . S
H207 C236 0.950 . S
H208 C238 0.951 . S
H209 C239 0.949 . S
C210 C211 1.376 . S
C210 C215 1.377 1_554 S
C210 C216 1.483 1_554 S
C211 H192 0.949 . S
C211 C210 1.376 . S
C211 C212 1.397 . S
C212 H193 0.950 . S
C212 C211 1.397 . S
C212 C213 1.391 . S
C213 C212 1.391 . S
C213 C214 1.405 . S
C214 H194 0.950 . S
C214 C213 1.405 . S
C214 C215 1.355 1_554 S
C215 H195 0.974 . S
C215 C210 1.377 1_556 S
C215 C214 1.355 1_556 S
C216 C210 1.483 1_556 S
C216 C217 1.382 1_556 S
C216 C218 1.403 . S
C217 H196 0.950 . S
C217 C216 1.382 1_554 S
C217 C233 1.411 1_545 S
C218 C216 1.403 . S
C218 C219 1.489 . S
C218 C232 1.411 . S
C219 C218 1.489 . S
C219 C220 1.383 . S
C219 C224 1.382 . S
C220 H197 0.950 . S
C220 C219 1.383 . S
C220 C221 1.395 . S
C221 H198 0.950 . S
C221 C220 1.395 . S
C221 C222 1.288 . S
C222 C221 1.288 . S
C222 C223 1.392 . S
C223 H199 0.951 . S
C223 C222 1.392 . S
C223 C224 1.392 . S
C224 H200 0.949 . S
C224 C219 1.382 . S
C224 C223 1.392 . S
C225 C226 1.376 . S
C225 C230 1.386 . S
C225 C231 1.483 . S
C226 H201 0.949 . S
C226 C225 1.376 . S
C226 C227 1.397 . S
C227 H202 0.950 . S
C227 C226 1.397 . S
C227 C228 1.391 . S
C228 C227 1.391 . S
C228 C229 1.405 . S
C229 H203 0.950 . S
C229 C228 1.405 . S
C229 C230 1.367 . S
C230 H204 0.950 . S
C230 C225 1.386 . S
C230 C229 1.367 . S
C231 C225 1.483 . S
C231 C232 1.382 1_565 S
C231 C233 1.403 1_556 S
C232 H205 0.950 1_545 S
C232 C218 1.411 . S
C232 C231 1.382 1_545 S
C233 C217 1.411 1_565 S
C233 C231 1.403 1_554 S
C233 C234 1.489 . S
C234 C233 1.489 . S
C234 C235 1.383 . S
C234 C239 1.382 . S
C235 H206 0.950 . S
C235 C234 1.383 . S
C235 C236 1.395 . S
C236 H207 0.950 . S
C236 C235 1.395 . S
C236 C237 1.288 . S
C237 C236 1.288 . S
C237 C238 1.392 . S
C238 H208 0.951 . S
C238 C237 1.392 . S
C238 C239 1.392 . S
C239 H209 0.949 . S
C239 C234 1.382 . S
C239 C238 1.392 . S
H240 C259 0.949 . S
H241 C260 0.950 . S
H242 C262 0.950 . S
H243 C263 0.950 . S
H244 C265 0.950 . S
H245 C268 0.950 . S
H246 C269 0.950 . S
H247 C271 0.951 . S
H248 C272 0.949 . S
H249 C274 0.949 . S
H250 C275 0.950 . S
H251 C277 0.950 . S
H252 C278 0.950 . S
H253 C280 0.950 . S
H254 C283 0.950 . S
H255 C284 0.950 . S
H256 C286 0.951 . S
H257 C287 0.949 . S
C258 C259 1.376 . S
C258 C263 1.386 . S
C258 C264 1.483 . S
C259 H240 0.949 . S
C259 C258 1.376 . S
C259 C260 1.397 . S
C260 H241 0.950 . S
C260 C259 1.397 . S
C260 C261 1.391 . S
C261 C260 1.391 . S
C261 C262 1.405 . S
C262 H242 0.950 . S
C262 C261 1.405 . S
C262 C263 1.367 . S
C263 H243 0.950 . S
C263 C258 1.386 . S
C263 C262 1.367 . S
C264 C258 1.483 . S
C264 C265 1.382 . S
C264 C266 1.403 . S
C265 H244 0.950 . S
C265 C264 1.382 . S
C265 C281 1.411 . S
C266 C264 1.403 . S
C266 C267 1.489 . S
C266 C280 1.411 . S
C267 C266 1.489 . S
C267 C268 1.383 . S
C267 C272 1.382 . S
C268 H245 0.950 . S
C268 C267 1.383 . S
C268 C269 1.395 . S
C269 H246 0.950 . S
C269 C268 1.395 . S
C269 C270 1.288 . S
C270 C269 1.288 . S
C270 C271 1.392 . S
C271 H247 0.951 . S
C271 C270 1.392 . S
C271 C272 1.392 . S
C272 H248 0.949 . S
C272 C267 1.382 . S
C272 C271 1.392 . S
C273 C274 1.376 . S
C273 C278 1.386 . S
C273 C279 1.483 . S
C274 H249 0.949 . S
C274 C273 1.376 . S
C274 C275 1.397 . S
C275 H250 0.950 . S
C275 C274 1.397 . S
C275 C276 1.391 . S
C276 C275 1.391 . S
C276 C277 1.405 . S
C277 H251 0.950 . S
C277 C276 1.405 . S
C277 C278 1.367 . S
C278 H252 0.950 . S
C278 C273 1.386 . S
C278 C277 1.367 . S
C279 C273 1.483 . S
C279 C280 1.382 . S
C279 C281 1.403 . S
C280 H253 0.950 . S
C280 C266 1.411 . S
C280 C279 1.382 . S
C281 C265 1.411 . S
C281 C279 1.403 . S
C281 C282 1.489 . S
C282 C281 1.489 . S
C282 C283 1.383 . S
C282 C287 1.382 . S
C283 H254 0.950 . S
C283 C282 1.383 . S
C283 C284 1.395 . S
C284 H255 0.950 . S
C284 C283 1.395 . S
C284 C285 1.288 . S
C285 C284 1.288 . S
C285 C286 1.392 . S
C286 H256 0.951 . S
C286 C285 1.392 . S
C286 C287 1.392 . S
C287 H257 0.949 . S
C287 C282 1.382 . S
C287 C286 1.392 . S
Mg288 O289 2.028 . S
Mg288 O295 1.986 . S
Mg288 O297 2.114 . S
Mg288 O298 2.251 . S
Mg288 O301 2.010 . S
O289 Mg288 2.028 . S
O289 C292 1.250 . S
O290 Mg291 2.028 . S
O290 C292 1.248 . S
Mg291 O290 2.028 . S
Mg291 O296 2.032 . S
Mg291 O298 2.079 . S
C292 O289 1.250 . S
C292 O290 1.248 . S
C293 O294 1.264 . S
C293 O301 1.249 . S
O294 C293 1.264 . S
O295 Mg288 1.986 . S
O295 C299 1.246 . S
O296 Mg291 2.032 . S
O296 C299 1.259 . S
O297 Mg288 2.114 . S
O297 C300 1.252 . S
O298 Mg288 2.251 . S
O298 Mg291 2.079 . S
O298 C300 1.273 . S
C299 O295 1.246 . S
C299 O296 1.259 . S
C300 O297 1.252 . S
C300 O298 1.273 . S
O301 Mg288 2.010 . S
O301 C293 1.249 . S
Mg302 O303 2.028 . S
Mg302 O309 1.986 . S
Mg302 O311 2.114 . S
Mg302 O312 2.251 . S
Mg302 O315 2.010 . S
O303 Mg302 2.028 . S
O303 C306 1.250 . S
O304 Mg305 2.028 . S
O304 C306 1.248 . S
Mg305 O304 2.028 . S
Mg305 O310 2.032 . S
Mg305 O312 2.079 . S
C306 O303 1.250 . S
C306 O304 1.248 . S
C307 O308 1.264 . S
C307 O315 1.249 . S
O308 C307 1.264 . S
O309 Mg302 1.986 . S
O309 C313 1.246 . S
O310 Mg305 2.032 . S
O310 C313 1.259 . S
O311 Mg302 2.114 . S
O311 C314 1.252 . S
O312 Mg302 2.251 . S
O312 Mg305 2.079 . S
O312 C314 1.273 . S
C313 O309 1.246 . S
C313 O310 1.259 . S
C314 O311 1.252 . S
C314 O312 1.273 . S
O315 Mg302 2.010 . S
O315 C307 1.249 . S
Mg316 O317 2.028 . S
Mg316 O323 1.986 . S
Mg316 O325 2.114 . S
Mg316 O326 2.251 . S
Mg316 O329 2.010 . S
O317 Mg316 2.028 . S
O317 C320 1.250 . S
O318 Mg319 2.028 . S
O318 C320 1.248 . S
Mg319 O318 2.028 . S
Mg319 O324 2.032 . S
Mg319 O326 2.079 . S
C320 O317 1.250 . S
C320 O318 1.248 . S
C321 O322 1.264 . S
C321 O329 1.249 . S
O322 C321 1.264 . S
O323 Mg316 1.986 . S
O323 C327 1.246 . S
O324 Mg319 2.032 . S
O324 C327 1.259 . S
O325 Mg316 2.114 . S
O325 C328 1.252 . S
O326 Mg316 2.251 . S
O326 Mg319 2.079 . S
O326 C328 1.273 . S
C327 O323 1.246 . S
C327 O324 1.259 . S
C328 O325 1.252 . S
C328 O326 1.273 . S
O329 Mg316 2.010 . S
O329 C321 1.249 . S
Mg330 O331 2.028 . S
Mg330 O337 1.986 . S
Mg330 O339 2.114 . S
Mg330 O340 2.251 . S
Mg330 O343 2.010 . S
O331 Mg330 2.028 . S
O331 C334 1.250 . S
O332 Mg333 2.028 . S
O332 C334 1.248 . S
Mg333 O332 2.028 . S
Mg333 O338 2.032 . S
Mg333 O340 2.079 . S
C334 O331 1.250 . S
C334 O332 1.248 . S
C335 O336 1.264 . S
C335 O343 1.249 . S
O336 C335 1.264 . S
O337 Mg330 1.986 . S
O337 C341 1.246 . S
O338 Mg333 2.032 . S
O338 C341 1.259 . S
O339 Mg330 2.114 . S
O339 C342 1.252 . S
O340 Mg330 2.251 . S
O340 Mg333 2.079 . S
O340 C342 1.273 . S
C341 O337 1.246 . S
C341 O338 1.259 . S
C342 O339 1.252 . S
C342 O340 1.273 . S
O343 Mg330 2.010 . S
O343 C335 1.249 . S
Mg344 O345 2.028 . S
Mg344 O351 1.986 . S
Mg344 O353 2.114 . S
Mg344 O354 2.251 . S
Mg344 O357 2.010 . S
O345 Mg344 2.028 . S
O345 C348 1.250 . S
O346 Mg347 2.028 . S
O346 C348 1.248 . S
Mg347 O346 2.028 . S
Mg347 O352 2.032 . S
Mg347 O354 2.079 . S
C348 O345 1.250 . S
C348 O346 1.248 . S
C349 O350 1.264 . S
C349 O357 1.249 . S
O350 C349 1.264 . S
O351 Mg344 1.986 . S
O351 C355 1.246 . S
O352 Mg347 2.032 . S
O352 C355 1.259 . S
O353 Mg344 2.114 . S
O353 C356 1.252 . S
O354 Mg344 2.251 . S
O354 Mg347 2.079 . S
O354 C356 1.273 . S
C355 O351 1.246 . S
C355 O352 1.259 . S
C356 O353 1.252 . S
C356 O354 1.273 . S
O357 Mg344 2.010 . S
O357 C349 1.249 . S
Mg358 O359 2.028 . S
Mg358 O365 1.986 . S
Mg358 O367 2.114 . S
Mg358 O368 2.251 . S
Mg358 O371 2.010 . S
O359 Mg358 2.028 . S
O359 C362 1.250 . S
O360 Mg361 2.028 . S
O360 C362 1.248 . S
Mg361 O360 2.028 . S
Mg361 O366 2.032 . S
Mg361 O368 2.079 . S
C362 O359 1.250 . S
C362 O360 1.248 . S
C363 O364 1.264 . S
C363 O371 1.249 . S
O364 C363 1.264 . S
O365 Mg358 1.986 . S
O365 C369 1.246 . S
O366 Mg361 2.032 . S
O366 C369 1.259 . S
O367 Mg358 2.114 . S
O367 C370 1.252 . S
O368 Mg358 2.251 . S
O368 Mg361 2.079 . S
O368 C370 1.273 . S
C369 O365 1.246 . S
C369 O366 1.259 . S
C370 O367 1.252 . S
C370 O368 1.273 . S
O371 Mg358 2.010 . S
O371 C363 1.249 . S
H372 C378 0.930 . S
H373 C381 0.930 . S
H374 C382 0.930 . S
H375 C383 0.930 . S
H376 C386 0.930 . S
H377 C387 0.930 . S
C378 H372 0.930 . S
C378 C379 1.355 . S
C378 C380 1.415 . S
C379 C378 1.355 . S
C379 C381 1.419 . S
C380 C378 1.415 . S
C380 C385 1.425 . S
C380 C387 1.409 . S
C381 H373 0.930 . S
C381 C379 1.419 . S
C381 C382 1.362 . S
C382 H374 0.930 . S
C382 C381 1.362 . S
C382 C385 1.409 . S
C383 H375 0.930 . S
C383 C384 1.355 . S
C383 C385 1.415 . S
C384 C383 1.355 . S
C384 C386 1.419 . S
C385 C380 1.425 . S
C385 C382 1.409 . S
C385 C383 1.415 . S
C386 H376 0.930 . S
C386 C384 1.419 . S
C386 C387 1.362 . S
C387 H377 0.930 . S
C387 C380 1.409 . S
C387 C386 1.362 . S
H388 C394 0.930 . S
H389 C397 0.930 . S
H390 C398 0.930 . S
H391 C399 0.930 . S
H392 C402 0.930 . S
H393 C403 0.930 . S
C394 H388 0.930 . S
C394 C395 1.355 . S
C394 C396 1.415 . S
C395 C394 1.355 . S
C395 C397 1.419 . S
C396 C394 1.415 . S
C396 C401 1.425 . S
C396 C403 1.409 . S
C397 H389 0.930 . S
C397 C395 1.419 . S
C397 C398 1.362 . S
C398 H390 0.930 . S
C398 C397 1.362 . S
C398 C401 1.409 . S
C399 H391 0.930 . S
C399 C400 1.355 . S
C399 C401 1.415 . S
C400 C399 1.355 . S
C400 C402 1.419 . S
C401 C396 1.425 . S
C401 C398 1.409 . S
C401 C399 1.415 . S
C402 H392 0.930 . S
C402 C400 1.419 . S
C402 C403 1.362 . S
C403 H393 0.930 . S
C403 C396 1.409 . S
C403 C402 1.362 . S
H404 C410 0.930 . S
H405 C413 0.930 . S
H406 C414 0.930 . S
H407 C415 0.930 . S
H408 C418 0.930 . S
H409 C419 0.930 . S
C410 H404 0.930 . S
C410 C411 1.355 . S
C410 C412 1.415 . S
C411 C410 1.355 . S
C411 C413 1.419 . S
C412 C410 1.415 . S
C412 C417 1.425 . S
C412 C419 1.409 . S
C413 H405 0.930 . S
C413 C411 1.419 . S
C413 C414 1.362 . S
C414 H406 0.930 . S
C414 C413 1.362 . S
C414 C417 1.409 . S
C415 H407 0.930 . S
C415 C416 1.355 . S
C415 C417 1.415 . S
C416 C415 1.355 . S
C416 C418 1.419 . S
C417 C412 1.425 . S
C417 C414 1.409 . S
C417 C415 1.415 . S
C418 H408 0.930 . S
C418 C416 1.419 . S
C418 C419 1.362 . S
C419 H409 0.930 . S
C419 C412 1.409 . S
C419 C418 1.362 . S
H420 C426 0.930 . S
H421 C429 0.930 . S
H422 C430 0.930 . S
H423 C431 0.930 . S
H424 C434 0.930 . S
H425 C435 0.930 . S
C426 H420 0.930 . S
C426 C427 1.355 . S
C426 C428 1.415 . S
C427 C426 1.355 . S
C427 C429 1.419 . S
C428 C426 1.415 . S
C428 C433 1.425 . S
C428 C435 1.409 . S
C429 H421 0.930 . S
C429 C427 1.419 . S
C429 C430 1.362 . S
C430 H422 0.930 . S
C430 C429 1.362 . S
C430 C433 1.409 . S
C431 H423 0.930 . S
C431 C432 1.355 . S
C431 C433 1.415 . S
C432 C431 1.355 . S
C432 C434 1.419 . S
C433 C428 1.425 . S
C433 C430 1.409 . S
C433 C431 1.415 . S
C434 H424 0.930 . S
C434 C432 1.419 . S
C434 C435 1.362 . S
C435 H425 0.930 . S
C435 C428 1.409 . S
C435 C434 1.362 . S
H436 C442 0.930 . S
H437 C445 0.930 . S
H438 C446 0.930 . S
H439 C447 0.930 . S
H440 C450 0.930 . S
H441 C451 0.930 . S
C442 H436 0.930 . S
C442 C443 1.355 . S
C442 C444 1.415 . S
C443 C442 1.355 . S
C443 C445 1.419 . S
C444 C442 1.415 . S
C444 C449 1.425 . S
C444 C451 1.409 . S
C445 H437 0.930 . S
C445 C443 1.419 . S
C445 C446 1.362 . S
C446 H438 0.930 . S
C446 C445 1.362 . S
C446 C449 1.409 . S
C447 H439 0.930 . S
C447 C448 1.355 . S
C447 C449 1.415 . S
C448 C447 1.355 . S
C448 C450 1.419 . S
C449 C444 1.425 . S
C449 C446 1.409 . S
C449 C447 1.415 . S
C450 H440 0.930 . S
C450 C448 1.419 . S
C450 C451 1.362 . S
C451 H441 0.930 . S
C451 C444 1.409 . S
C451 C450 1.362 . S
H452 C458 0.930 . S
H453 C461 0.930 . S
H454 C462 0.930 . S
H455 C463 0.930 . S
H456 C466 0.930 . S
H457 C467 0.930 . S
C458 H452 0.930 . S
C458 C459 1.355 . S
C458 C460 1.415 . S
C459 C458 1.355 . S
C459 C461 1.419 . S
C460 C458 1.415 . S
C460 C465 1.425 . S
C460 C467 1.409 . S
C461 H453 0.930 . S
C461 C459 1.419 . S
C461 C462 1.362 . S
C462 H454 0.930 . S
C462 C461 1.362 . S
C462 C465 1.409 . S
C463 H455 0.930 . S
C463 C464 1.355 . S
C463 C465 1.415 . S
C464 C463 1.355 . S
C464 C466 1.419 . S
C465 C460 1.425 . S
C465 C462 1.409 . S
C465 C463 1.415 . S
C466 H456 0.930 . S
C466 C464 1.419 . S
C466 C467 1.362 . S
C467 H457 0.930 . S
C467 C460 1.409 . S
C467 C466 1.362 . S
H468 C474 0.930 . S
H469 C477 0.930 . S
H470 C478 0.930 . S
H471 C479 0.930 . S
H472 C482 0.930 . S
H473 C483 0.930 . S
C474 H468 0.930 . S
C474 C475 1.355 . S
C474 C476 1.415 . S
C475 C474 1.355 . S
C475 C477 1.419 . S
C476 C474 1.415 . S
C476 C481 1.425 . S
C476 C483 1.409 . S
C477 H469 0.930 . S
C477 C475 1.419 . S
C477 C478 1.362 . S
C478 H470 0.930 . S
C478 C477 1.362 . S
C478 C481 1.409 . S
C479 H471 0.930 . S
C479 C480 1.355 . S
C479 C481 1.415 . S
C480 C479 1.355 . S
C480 C482 1.419 . S
C481 C476 1.425 . S
C481 C478 1.409 . S
C481 C479 1.415 . S
C482 H472 0.930 . S
C482 C480 1.419 . S
C482 C483 1.362 . S
C483 H473 0.930 . S
C483 C476 1.409 . S
C483 C482 1.362 . S
H484 C490 0.930 . S
H485 C493 0.930 . S
H486 C494 0.930 . S
H487 C495 0.930 . S
H488 C498 0.930 . S
H489 C499 0.930 . S
C490 H484 0.930 . S
C490 C491 1.355 . S
C490 C492 1.415 . S
C491 C490 1.355 . S
C491 C493 1.419 . S
C492 C490 1.415 . S
C492 C497 1.425 . S
C492 C499 1.409 . S
C493 H485 0.930 . S
C493 C491 1.419 . S
C493 C494 1.362 . S
C494 H486 0.930 . S
C494 C493 1.362 . S
C494 C497 1.409 . S
C495 H487 0.930 . S
C495 C496 1.355 . S
C495 C497 1.415 . S
C496 C495 1.355 . S
C496 C498 1.419 . S
C497 C492 1.425 . S
C497 C494 1.409 . S
C497 C495 1.415 . S
C498 H488 0.930 . S
C498 C496 1.419 . S
C498 C499 1.362 . S
C499 H489 0.930 . S
C499 C492 1.409 . S
C499 C498 1.362 . S
H500 C506 0.930 . S
H501 C509 0.930 . S
H502 C510 0.930 . S
H503 C511 0.930 . S
H504 C514 0.930 . S
H505 C515 0.930 . S
C506 H500 0.930 . S
C506 C507 1.355 . S
C506 C508 1.415 . S
C507 C506 1.355 . S
C507 C509 1.419 . S
C508 C506 1.415 . S
C508 C513 1.425 . S
C508 C515 1.409 . S
C509 H501 0.930 . S
C509 C507 1.419 . S
C509 C510 1.362 . S
C510 H502 0.930 . S
C510 C509 1.362 . S
C510 C513 1.409 . S
C511 H503 0.930 . S
C511 C512 1.355 . S
C511 C513 1.415 . S
C512 C511 1.355 . S
C512 C514 1.419 . S
C513 C508 1.425 . S
C513 C510 1.409 . S
C513 C511 1.415 . S
C514 H504 0.930 . S
C514 C512 1.419 . S
C514 C515 1.362 . S
C515 H505 0.930 . S
C515 C508 1.409 . S
C515 C514 1.362 . S
H516 C522 0.930 . S
H517 C525 0.930 . S
H518 C526 0.930 . S
H519 C527 0.930 . S
H520 C530 0.930 . S
H521 C531 0.930 . S
C522 H516 0.930 . S
C522 C523 1.355 . S
C522 C524 1.415 . S
C523 C522 1.355 . S
C523 C525 1.419 . S
C524 C522 1.415 . S
C524 C529 1.425 . S
C524 C531 1.409 . S
C525 H517 0.930 . S
C525 C523 1.419 . S
C525 C526 1.362 . S
C526 H518 0.930 . S
C526 C525 1.362 . S
C526 C529 1.409 . S
C527 H519 0.930 . S
C527 C528 1.355 . S
C527 C529 1.415 . S
C528 C527 1.355 . S
C528 C530 1.419 . S
C529 C524 1.425 . S
C529 C526 1.409 . S
C529 C527 1.415 . S
C530 H520 0.930 . S
C530 C528 1.419 . S
C530 C531 1.362 . S
C531 H521 0.930 . S
C531 C524 1.409 . S
C531 C530 1.362 . S
H532 C538 0.930 . S
H533 C541 0.930 . S
H534 C542 0.930 . S
H535 C543 0.930 . S
H536 C546 0.930 . S
H537 C547 0.930 . S
C538 H532 0.930 . S
C538 C539 1.355 . S
C538 C540 1.415 . S
C539 C538 1.355 . S
C539 C541 1.419 . S
C540 C538 1.415 . S
C540 C545 1.425 . S
C540 C547 1.409 . S
C541 H533 0.930 . S
C541 C539 1.419 . S
C541 C542 1.362 . S
C542 H534 0.930 . S
C542 C541 1.362 . S
C542 C545 1.409 . S
C543 H535 0.930 . S
C543 C544 1.355 . S
C543 C545 1.415 . S
C544 C543 1.355 . S
C544 C546 1.419 . S
C545 C540 1.425 . S
C545 C542 1.409 . S
C545 C543 1.415 . S
C546 H536 0.930 . S
C546 C544 1.419 . S
C546 C547 1.362 . S
C547 H537 0.930 . S
C547 C540 1.409 . S
C547 C546 1.362 . S
H548 C554 0.930 . S
H549 C557 0.930 . S
H550 C558 0.930 . S
H551 C559 0.930 . S
H552 C562 0.930 . S
H553 C563 0.930 . S
C554 H548 0.930 . S
C554 C555 1.355 . S
C554 C556 1.415 . S
C555 C554 1.355 . S
C555 C557 1.419 . S
C556 C554 1.415 . S
C556 C561 1.425 . S
C556 C563 1.409 . S
C557 H549 0.930 . S
C557 C555 1.419 . S
C557 C558 1.362 . S
C558 H550 0.930 . S
C558 C557 1.362 . S
C558 C561 1.409 . S
C559 H551 0.930 . S
C559 C560 1.355 . S
C559 C561 1.415 . S
C560 C559 1.355 . S
C560 C562 1.419 . S
C561 C556 1.425 . S
C561 C558 1.409 . S
C561 C559 1.415 . S
C562 H552 0.930 . S
C562 C560 1.419 . S
C562 C563 1.362 . S
C563 H553 0.930 . S
C563 C556 1.409 . S
C563 C562 1.362 . S
H564 C570 0.930 . S
H565 C573 0.930 . S
H566 C574 0.930 . S
H567 C575 0.930 . S
H568 C578 0.930 . S
H569 C579 0.930 . S
C570 H564 0.930 . S
C570 C571 1.355 . S
C570 C572 1.415 . S
C571 C570 1.355 . S
C571 C573 1.419 . S
C572 C570 1.415 . S
C572 C577 1.425 . S
C572 C579 1.409 . S
C573 H565 0.930 . S
C573 C571 1.419 . S
C573 C574 1.362 . S
C574 H566 0.930 . S
C574 C573 1.362 . S
C574 C577 1.409 . S
C575 H567 0.930 . S
C575 C576 1.355 . S
C575 C577 1.415 . S
C576 C575 1.355 . S
C576 C578 1.419 . S
C577 C572 1.425 . S
C577 C574 1.409 . S
C577 C575 1.415 . S
C578 H568 0.930 . S
C578 C576 1.419 . S
C578 C579 1.362 . S
C579 H569 0.930 . S
C579 C572 1.409 . S
C579 C578 1.362 . S
H580 C586 0.930 . S
H581 C589 0.930 . S
H582 C590 0.930 . S
H583 C591 0.930 . S
H584 C594 0.930 . S
H585 C595 0.930 . S
C586 H580 0.930 . S
C586 C587 1.355 . S
C586 C588 1.415 . S
C587 C586 1.355 . S
C587 C589 1.419 . S
C588 C586 1.415 . S
C588 C593 1.425 . S
C588 C595 1.409 . S
C589 H581 0.930 . S
C589 C587 1.419 . S
C589 C590 1.362 . S
C590 H582 0.930 . S
C590 C589 1.362 . S
C590 C593 1.409 . S
C591 H583 0.930 . S
C591 C592 1.355 . S
C591 C593 1.415 . S
C592 C591 1.355 . S
C592 C594 1.419 . S
C593 C588 1.425 . S
C593 C590 1.409 . S
C593 C591 1.415 . S
C594 H584 0.930 . S
C594 C592 1.419 . S
C594 C595 1.362 . S
C595 H585 0.930 . S
C595 C588 1.409 . S
C595 C594 1.362 . S
H596 C602 0.930 . S
H597 C605 0.930 . S
H598 C606 0.930 . S
H599 C607 0.930 . S
H600 C610 0.930 . S
H601 C611 0.930 . S
C602 H596 0.930 . S
C602 C603 1.355 . S
C602 C604 1.415 . S
C603 C602 1.355 . S
C603 C605 1.419 . S
C604 C602 1.415 . S
C604 C609 1.425 . S
C604 C611 1.409 . S
C605 H597 0.930 . S
C605 C603 1.419 . S
C605 C606 1.362 . S
C606 H598 0.930 . S
C606 C605 1.362 . S
C606 C609 1.409 . S
C607 H599 0.930 . S
C607 C608 1.355 . S
C607 C609 1.415 . S
C608 C607 1.355 . S
C608 C610 1.419 . S
C609 C604 1.425 . S
C609 C606 1.409 . S
C609 C607 1.415 . S
C610 H600 0.930 . S
C610 C608 1.419 . S
C610 C611 1.362 . S
C611 H601 0.930 . S
C611 C604 1.409 . S
C611 C610 1.362 . S
H612 C618 0.930 . S
H613 C621 0.930 . S
H614 C622 0.930 . S
H615 C623 0.930 1_554 S
H616 C626 0.930 1_554 S
H617 C627 0.930 . S
C618 H612 0.930 . S
C618 C619 1.355 . S
C618 C620 1.415 . S
C619 C618 1.355 . S
C619 C621 1.419 . S
C620 C618 1.415 . S
C620 C625 1.425 . S
C620 C627 1.409 . S
C621 H613 0.930 . S
C621 C619 1.419 . S
C621 C622 1.362 . S
C622 H614 0.930 . S
C622 C621 1.362 . S
C622 C625 1.409 . S
C623 H615 0.930 1_556 S
C623 C624 1.355 1_556 S
C623 C625 1.415 . S
C624 C623 1.355 1_554 S
C624 C626 1.419 1_554 S
C625 C620 1.425 . S
C625 C622 1.409 . S
C625 C623 1.415 . S
C626 H616 0.930 1_556 S
C626 C624 1.419 1_556 S
C626 C627 1.362 . S
C627 H617 0.930 . S
C627 C620 1.409 . S
C627 C626 1.362 . S
H628 C634 0.930 . S
H629 C637 0.930 . S
H630 C638 0.930 . S
H631 C639 0.930 . S
H632 C642 0.930 . S
H633 C643 0.930 . S
C634 H628 0.930 . S
C634 C635 1.355 . S
C634 C636 1.415 . S
C635 C634 1.355 . S
C635 C637 1.419 . S
C636 C634 1.415 . S
C636 C641 1.425 . S
C636 C643 1.409 . S
C637 H629 0.930 . S
C637 C635 1.419 . S
C637 C638 1.362 . S
C638 H630 0.930 . S
C638 C637 1.362 . S
C638 C641 1.409 . S
C639 H631 0.930 . S
C639 C640 1.355 . S
C639 C641 1.415 . S
C640 C639 1.355 . S
C640 C642 1.419 . S
C641 C636 1.425 . S
C641 C638 1.409 . S
C641 C639 1.415 . S
C642 H632 0.930 . S
C642 C640 1.419 . S
C642 C643 1.362 . S
C643 H633 0.930 . S
C643 C636 1.409 . S
C643 C642 1.362 . S
H644 C650 0.930 . S
H645 C653 0.930 . S
H646 C654 0.930 . S
H647 C655 0.930 . S
H648 C658 0.930 . S
H649 C659 0.930 . S
C650 H644 0.930 . S
C650 C651 1.355 . S
C650 C652 1.415 . S
C651 C650 1.355 . S
C651 C653 1.419 . S
C652 C650 1.415 . S
C652 C657 1.425 . S
C652 C659 1.409 . S
C653 H645 0.930 . S
C653 C651 1.419 . S
C653 C654 1.362 . S
C654 H646 0.930 . S
C654 C653 1.362 . S
C654 C657 1.409 . S
C655 H647 0.930 . S
C655 C656 1.355 . S
C655 C657 1.415 . S
C656 C655 1.355 . S
C656 C658 1.419 . S
C657 C652 1.425 . S
C657 C654 1.409 . S
C657 C655 1.415 . S
C658 H648 0.930 . S
C658 C656 1.419 . S
C658 C659 1.362 . S
C659 H649 0.930 . S
C659 C652 1.409 . S
C659 C658 1.362 . S
H660 C666 0.930 . S
H661 C669 0.930 . S
H662 C670 0.930 . S
H663 C671 0.930 . S
H664 C674 0.930 . S
H665 C675 0.930 . S
C666 H660 0.930 . S
C666 C667 1.355 . S
C666 C668 1.415 . S
C667 C666 1.355 . S
C667 C669 1.419 . S
C668 C666 1.415 . S
C668 C673 1.425 . S
C668 C675 1.409 . S
C669 H661 0.930 . S
C669 C667 1.419 . S
C669 C670 1.362 . S
C670 H662 0.930 . S
C670 C669 1.362 . S
C670 C673 1.409 . S
C671 H663 0.930 . S
C671 C672 1.355 . S
C671 C673 1.415 . S
C672 C671 1.355 . S
C672 C674 1.419 . S
C673 C668 1.425 . S
C673 C670 1.409 . S
C673 C671 1.415 . S
C674 H664 0.930 . S
C674 C672 1.419 . S
C674 C675 1.362 . S
C675 H665 0.930 . S
C675 C668 1.409 . S
C675 C674 1.362 . S
H676 C682 0.930 . S
H677 C685 0.930 . S
H678 C686 0.930 . S
H679 C687 0.930 . S
H680 C690 0.930 . S
H681 C691 0.930 . S
C682 H676 0.930 . S
C682 C683 1.355 . S
C682 C684 1.415 . S
C683 C682 1.355 . S
C683 C685 1.419 . S
C684 C682 1.415 . S
C684 C689 1.425 . S
C684 C691 1.409 . S
C685 H677 0.930 . S
C685 C683 1.419 . S
C685 C686 1.362 . S
C686 H678 0.930 . S
C686 C685 1.362 . S
C686 C689 1.409 . S
C687 H679 0.930 . S
C687 C688 1.355 . S
C687 C689 1.415 . S
C688 C687 1.355 . S
C688 C690 1.419 . S
C689 C684 1.425 . S
C689 C686 1.409 . S
C689 C687 1.415 . S
C690 H680 0.930 . S
C690 C688 1.419 . S
C690 C691 1.362 . S
C691 H681 0.930 . S
C691 C684 1.409 . S
C691 C690 1.362 . S
H692 C698 0.930 . S
H693 C701 0.930 . S
H694 C702 0.930 . S
H695 C703 0.930 . S
H696 C706 0.930 . S
H697 C707 0.930 . S
C698 H692 0.930 . S
C698 C699 1.355 . S
C698 C700 1.415 . S
C699 C698 1.355 . S
C699 C701 1.419 . S
C700 C698 1.415 . S
C700 C705 1.425 . S
C700 C707 1.409 . S
C701 H693 0.930 . S
C701 C699 1.419 . S
C701 C702 1.362 . S
C702 H694 0.930 . S
C702 C701 1.362 . S
C702 C705 1.409 . S
C703 H695 0.930 . S
C703 C704 1.355 . S
C703 C705 1.415 . S
C704 C703 1.355 . S
C704 C706 1.419 . S
C705 C700 1.425 . S
C705 C702 1.409 . S
C705 C703 1.415 . S
C706 H696 0.930 . S
C706 C704 1.419 . S
C706 C707 1.362 . S
C707 H697 0.930 . S
C707 C700 1.409 . S
C707 C706 1.362 . S
H708 C714 0.930 . S
H709 C717 0.930 . S
H710 C718 0.930 . S
H711 C719 0.930 . S
H712 C722 0.930 . S
H713 C723 0.930 . S
C714 H708 0.930 . S
C714 C715 1.355 . S
C714 C716 1.415 . S
C715 C714 1.355 . S
C715 C717 1.419 . S
C716 C714 1.415 . S
C716 C721 1.425 . S
C716 C723 1.409 . S
C717 H709 0.930 . S
C717 C715 1.419 . S
C717 C718 1.362 . S
C718 H710 0.930 . S
C718 C717 1.362 . S
C718 C721 1.409 . S
C719 H711 0.930 . S
C719 C720 1.355 . S
C719 C721 1.415 . S
C720 C719 1.355 . S
C720 C722 1.419 . S
C721 C716 1.425 . S
C721 C718 1.409 . S
C721 C719 1.415 . S
C722 H712 0.930 . S
C722 C720 1.419 . S
C722 C723 1.362 . S
C723 H713 0.930 . S
C723 C716 1.409 . S
C723 C722 1.362 . S
H724 C730 0.930 . S
H725 C733 0.930 . S
H726 C734 0.930 . S
H727 C735 0.930 . S
H728 C738 0.930 . S
H729 C739 0.930 . S
C730 H724 0.930 . S
C730 C731 1.355 . S
C730 C732 1.415 1_554 S
C731 C730 1.355 . S
C731 C733 1.419 . S
C732 C730 1.415 1_556 S
C732 C737 1.425 1_556 S
C732 C739 1.409 . S
C733 H725 0.930 . S
C733 C731 1.419 . S
C733 C734 1.362 . S
C734 H726 0.930 . S
C734 C733 1.362 . S
C734 C737 1.409 . S
C735 H727 0.930 . S
C735 C736 1.355 . S
C735 C737 1.415 1_556 S
C736 C735 1.355 . S
C736 C738 1.419 . S
C737 C732 1.425 1_554 S
C737 C734 1.409 . S
C737 C735 1.415 1_554 S
C738 H728 0.930 . S
C738 C736 1.419 . S
C738 C739 1.362 . S
C739 H729 0.930 . S
C739 C732 1.409 . S
C739 C738 1.362 . S
H740 C746 0.930 . S
H741 C749 0.930 . S
H742 C750 0.930 . S
H743 C751 0.930 . S
H744 C754 0.930 . S
H745 C755 0.930 . S
C746 H740 0.930 . S
C746 C747 1.355 . S
C746 C748 1.415 . S
C747 C746 1.355 . S
C747 C749 1.419 . S
C748 C746 1.415 . S
C748 C753 1.425 . S
C748 C755 1.409 . S
C749 H741 0.930 . S
C749 C747 1.419 . S
C749 C750 1.362 . S
C750 H742 0.930 . S
C750 C749 1.362 . S
C750 C753 1.409 . S
C751 H743 0.930 . S
C751 C752 1.355 . S
C751 C753 1.415 . S
C752 C751 1.355 . S
C752 C754 1.419 . S
C753 C748 1.425 . S
C753 C750 1.409 . S
C753 C751 1.415 . S
C754 H744 0.930 . S
C754 C752 1.419 . S
C754 C755 1.362 . S
C755 H745 0.930 . S
C755 C748 1.409 . S
C755 C754 1.362 . S
C384 C363 1.237 . S
C379 C45 1.543 . S
C395 C84 1.571 . S
C400 C293 1.352 . S
C411 C126 1.538 . S
C416 C313 1.578 . S
C427 C189 1.500 . S
C432 C327 1.493 . S
C448 C335 1.306 . S
C443 C228 1.547 . S
C459 C270 1.465 . S
C464 C349 1.213 . S
C475 C69 1.565 . S
C480 C307 1.381 . S
C491 C141 1.543 . S
C496 C321 1.338 . S
C507 C174 1.457 . S
C512 C341 1.485 . S
C528 C355 1.545 . S
C523 C213 1.476 . S
C544 C369 1.553 . S
C539 C285 1.531 . S
C560 C299 1.576 . S
C555 C30 1.523 . S
C571 C36 1.474 . S
C576 C306 1.445 . S
C587 C93 1.466 . S
C592 C320 1.421 . S
C608 C342 1.458 . S
C603 C117 1.464 . S
C619 C180 1.483 . S
C624 C356 1.485 . S
C640 C370 1.420 . S
C635 C237 1.444 . S
C656 C300 1.424 . S
C651 C261 1.414 . S
C672 C362 1.441 . S
C667 C78 1.461 . S
C683 C132 1.475 . S
C688 C292 1.458 . S
C704 C314 1.456 . S
C699 C165 1.459 . S
C715 C222 1.465 . S
C720 C328 1.469 . S
C731 C276 1.498 . S
C736 C334 1.468 . S
C747 C21 1.491 . S
C752 C348 1.443 . S
