# Generated by pormake.
# Topology nom, (4,4)-cn, num edge types: 1
# Building blocks:
#     Node 0, Type 0, BuildingBlock: NAWXER_clean_linker_0, # of connection points: 4
#     Node 1, Type 0, BuildingBlock: NAWXER_clean_linker_0, # of connection points: 4
#     Node 2, Type 0, BuildingBlock: NAWXER_clean_linker_0, # of connection points: 4
#     Node 3, Type 0, BuildingBlock: NAWXER_clean_linker_0, # of connection points: 4
#     Node 4, Type 0, BuildingBlock: NAWXER_clean_linker_0, # of connection points: 4
#     Node 5, Type 0, BuildingBlock: NAWXER_clean_linker_0, # of connection points: 4
#     Node 6, Type 1, BuildingBlock: AZAVOO_clean_sbu_0, # of connection points: 4
#     Node 7, Type 1, BuildingBlock: AZAVOO_clean_sbu_0, # of connection points: 4
#     Node 8, Type 1, BuildingBlock: AZAVOO_clean_sbu_0, # of connection points: 4
#     Node 9, Type 1, BuildingBlock: AZAVOO_clean_sbu_0, # of connection points: 4
#     Node 10, Type 1, BuildingBlock: AZAVOO_clean_sbu_0, # of connection points: 4
#     Node 11, Type 1, BuildingBlock: AZAVOO_clean_sbu_0, # of connection points: 4
#     Edge 12, Type (0, 1), BuildingBlock: OJICUG_clean_linker_0, # of connection points: 2
#     Edge 13, Type (0, 1), BuildingBlock: OJICUG_clean_linker_0, # of connection points: 2
#     Edge 14, Type (0, 1), BuildingBlock: OJICUG_clean_linker_0, # of connection points: 2
#     Edge 15, Type (0, 1), BuildingBlock: OJICUG_clean_linker_0, # of connection points: 2
#     Edge 16, Type (0, 1), BuildingBlock: OJICUG_clean_linker_0, # of connection points: 2
#     Edge 17, Type (0, 1), BuildingBlock: OJICUG_clean_linker_0, # of connection points: 2
#     Edge 18, Type (0, 1), BuildingBlock: OJICUG_clean_linker_0, # of connection points: 2
#     Edge 19, Type (0, 1), BuildingBlock: OJICUG_clean_linker_0, # of connection points: 2
#     Edge 20, Type (0, 1), BuildingBlock: OJICUG_clean_linker_0, # of connection points: 2
#     Edge 21, Type (0, 1), BuildingBlock: OJICUG_clean_linker_0, # of connection points: 2
#     Edge 22, Type (0, 1), BuildingBlock: OJICUG_clean_linker_0, # of connection points: 2
#     Edge 23, Type (0, 1), BuildingBlock: OJICUG_clean_linker_0, # of connection points: 2
#     Edge 24, Type (0, 1), BuildingBlock: OJICUG_clean_linker_0, # of connection points: 2
#     Edge 25, Type (0, 1), BuildingBlock: OJICUG_clean_linker_0, # of connection points: 2
#     Edge 26, Type (0, 1), BuildingBlock: OJICUG_clean_linker_0, # of connection points: 2
#     Edge 27, Type (0, 1), BuildingBlock: OJICUG_clean_linker_0, # of connection points: 2
#     Edge 28, Type (0, 1), BuildingBlock: OJICUG_clean_linker_0, # of connection points: 2
#     Edge 29, Type (0, 1), BuildingBlock: OJICUG_clean_linker_0, # of connection points: 2
#     Edge 30, Type (0, 1), BuildingBlock: OJICUG_clean_linker_0, # of connection points: 2
#     Edge 31, Type (0, 1), BuildingBlock: OJICUG_clean_linker_0, # of connection points: 2
#     Edge 32, Type (0, 1), BuildingBlock: OJICUG_clean_linker_0, # of connection points: 2
#     Edge 33, Type (0, 1), BuildingBlock: OJICUG_clean_linker_0, # of connection points: 2
#     Edge 34, Type (0, 1), BuildingBlock: OJICUG_clean_linker_0, # of connection points: 2
#     Edge 35, Type (0, 1), BuildingBlock: OJICUG_clean_linker_0, # of connection points: 2
# Relax obj value: 0.044
# Max RMSD: 0.158
# Mean RMSD: 0.131
data_MOF--net-nom--node1-AZAVOO_clean_sbu_0--node2-NAWXER_clean_linker_0--edge1-OJICUG_clean_linker_0
_symmetry_space_group_name_H-M    P1
_symmetry_Int_Tables_number       1
_symmetry_cell_setting            triclinic
loop_
_symmetry_equiv_pos_as_xyz
'x, y, z'
_cell_length_a     40.935846
_cell_length_b     41.31842
_cell_length_c     43.124622
_cell_angle_alpha  91.24022
_cell_angle_beta   91.657986
_cell_angle_gamma 120.11111
loop_
_atom_site_label
_atom_site_type_symbol
_atom_site_fract_x
_atom_site_fract_y
_atom_site_fract_z
_atom_type_partial_charge
C0 C 0.87193 0.47968 0.34408 0.0
C1 C 0.8527 0.45334 0.36656 0.0
C2 C 0.90693 0.48637 0.33472 0.0
C3 C 0.92329 0.46647 0.34723 0.0
C4 C 0.86924 0.43364 0.3794 0.0
C5 C 0.90452 0.44046 0.36999 0.0
C6 C 0.96126 0.47529 0.33814 0.0
C7 C 0.88429 0.4208 0.25293 0.0
C8 C 0.89506 0.44129 0.22588 0.0
C9 C 0.90882 0.43278 0.27939 0.0
C10 C 0.94408 0.46619 0.27959 0.0
C11 C 0.93024 0.47439 0.22594 0.0
C12 C 0.95435 0.48678 0.25249 0.0
C13 C 0.97158 0.47902 0.30685 0.0
C14 C 0.14331 0.55329 0.31743 0.0
C15 C 0.1496 0.57846 0.29391 0.0
C16 C 0.10666 0.53019 0.32739 0.0
C17 C 0.07619 0.53301 0.3146 0.0
C18 C 0.11918 0.58072 0.28078 0.0
C19 C 0.08295 0.55841 0.29111 0.0
C20 C 0.03676 0.50947 0.32403 0.0
C21 C 0.10054 0.56385 0.41729 0.0
C22 C 0.10169 0.53682 0.43597 0.0
C23 C 0.0767 0.55296 0.39047 0.0
C24 C 0.05347 0.51488 0.38194 0.0
C25 C 0.07897 0.49873 0.42663 0.0
C26 C 0.05479 0.48791 0.40017 0.0
C27 C 0.02612 0.50269 0.35513 0.0
H28 H 0.85973 0.49493 0.33341 0.0
H29 H 0.9214 0.50742 0.31782 0.0
H30 H 0.85512 0.41335 0.3969 0.0
H31 H 0.91707 0.42534 0.38035 0.0
H32 H 0.85751 0.39484 0.25321 0.0
H33 H 0.90051 0.41538 0.29933 0.0
H34 H 0.93916 0.49062 0.2053 0.0
H35 H 0.98129 0.51249 0.25172 0.0
H36 H 0.16655 0.55099 0.32757 0.0
H37 H 0.10225 0.50988 0.34459 0.0
H38 H 0.12355 0.60011 0.26268 0.0
H39 H 0.06011 0.56122 0.28074 0.0
H40 H 0.11716 0.59337 0.42384 0.0
H41 H 0.07572 0.57416 0.37679 0.0
H42 H 0.07963 0.47707 0.43986 0.0
H43 H 0.03707 0.45839 0.3939 0.0
N44 N 0.98879 0.48626 0.361 0.0
N45 N 0.00897 0.4966 0.30125 0.0
C46 C 0.4089 0.87692 0.51861 0.0
C47 C 0.42474 0.86267 0.5398 0.0
C48 C 0.43036 0.91313 0.50827 0.0
C49 C 0.46825 0.93595 0.51874 0.0
C50 C 0.46276 0.88562 0.55032 0.0
C51 C 0.48422 0.92208 0.54005 0.0
C52 C 0.49006 0.97483 0.50851 0.0
C53 C 0.48051 0.90441 0.42418 0.0
C54 C 0.45616 0.90364 0.40018 0.0
C55 C 0.49087 0.92971 0.44961 0.0
C56 C 0.47732 0.95491 0.45134 0.0
C57 C 0.44214 0.92844 0.4022 0.0
C58 C 0.45297 0.95413 0.4274 0.0
C59 C 0.4903 0.98348 0.47712 0.0
C60 C 0.5779 0.15089 0.47264 0.0
C61 C 0.5522 0.1543 0.45253 0.0
C62 C 0.56737 0.11679 0.48646 0.0
C63 C 0.53076 0.08603 0.48079 0.0
C64 C 0.51549 0.12369 0.4475 0.0
C65 C 0.50494 0.08999 0.46144 0.0
C66 C 0.51936 0.04839 0.49188 0.0
C67 C 0.54907 0.12372 0.57882 0.0
C68 C 0.57219 0.11956 0.60138 0.0
C69 C 0.53268 0.09822 0.55335 0.0
C70 C 0.54003 0.06866 0.54922 0.0
C71 C 0.57879 0.08943 0.59737 0.0
C72 C 0.56308 0.06452 0.57163 0.0
C73 C 0.52211 0.04009 0.52326 0.0
H74 H 0.37951 0.86053 0.51065 0.0
H75 H 0.417 0.92362 0.49259 0.0
H76 H 0.47593 0.87544 0.56648 0.0
H77 H 0.51331 0.93936 0.5486 0.0
H78 H 0.49173 0.88562 0.42314 0.0
H79 H 0.51024 0.93024 0.46754 0.0
H80 H 0.42371 0.92874 0.38381 0.0
H81 H 0.44242 0.97349 0.42816 0.0
H82 H 0.60647 0.17409 0.4767 0.0
H83 H 0.58803 0.11414 0.50075 0.0
H84 H 0.49501 0.1257 0.43241 0.0
H85 H 0.47658 0.06662 0.45666 0.0
H86 H 0.54336 0.14655 0.58081 0.0
H87 H 0.51377 0.10138 0.53728 0.0
H88 H 0.59537 0.08433 0.61448 0.0
H89 H 0.56872 0.04162 0.56942 0.0
N90 N 0.50676 0.0034 0.53031 0.0
N91 N 0.5041 0.01975 0.47011 0.0
C92 C 0.59857 0.49239 0.55941 0.0
C93 C 0.57209 0.46866 0.53611 0.0
C94 C 0.58677 0.50373 0.58547 0.0
C95 C 0.54832 0.49172 0.58852 0.0
C96 C 0.53356 0.45602 0.53955 0.0
C97 C 0.52183 0.46777 0.56539 0.0
C98 C 0.53591 0.50604 0.61465 0.0
C99 C 0.56146 0.42483 0.66083 0.0
C100 C 0.59132 0.44017 0.6835 0.0
C101 C 0.54875 0.44709 0.64733 0.0
C102 C 0.56558 0.48521 0.65614 0.0
C103 C 0.60906 0.47873 0.69144 0.0
C104 C 0.59601 0.50094 0.6781 0.0
C105 C 0.54781 0.50686 0.64578 0.0
C106 C 0.45424 0.55197 0.71923 0.0
C107 C 0.48191 0.57826 0.74074 0.0
C108 C 0.46456 0.53869 0.69343 0.0
C109 C 0.50283 0.5522 0.68804 0.0
C110 C 0.5202 0.59106 0.73561 0.0
C111 C 0.5305 0.57808 0.70958 0.0
C112 C 0.51434 0.53747 0.6615 0.0
C113 C 0.44643 0.58668 0.62237 0.0
C114 C 0.41383 0.55994 0.60512 0.0
C115 C 0.47546 0.57931 0.63002 0.0
C116 C 0.47206 0.54487 0.62089 0.0
C117 C 0.41164 0.52648 0.59458 0.0
C118 C 0.44046 0.51908 0.60234 0.0
C119 C 0.5006 0.53465 0.63044 0.0
H120 H 0.62844 0.50248 0.55729 0.0
H121 H 0.6078 0.52275 0.60276 0.0
H122 H 0.51264 0.43806 0.52174 0.0
H123 H 0.49206 0.45836 0.56722 0.0
H124 H 0.54652 0.39517 0.6546 0.0
H125 H 0.52436 0.43395 0.63123 0.0
H126 H 0.63249 0.49161 0.70847 0.0
H127 H 0.60913 0.53022 0.68545 0.0
H128 H 0.42449 0.54173 0.72214 0.0
H129 H 0.44256 0.51768 0.67783 0.0
H130 H 0.54226 0.61074 0.75191 0.0
H131 H 0.56019 0.58826 0.70625 0.0
H132 H 0.44894 0.61271 0.63089 0.0
H133 H 0.50009 0.6001 0.6436 0.0
H134 H 0.38728 0.50566 0.58073 0.0
H135 H 0.43747 0.49256 0.59461 0.0
N136 N 0.51229 0.51939 0.60826 0.0
N137 N 0.53721 0.52319 0.66791 0.0
C138 C 0.87624 0.4345 0.82729 0.0
C139 C 0.85715 0.43635 0.80038 0.0
C140 C 0.91047 0.46527 0.83797 0.0
C141 C 0.92619 0.499 0.82237 0.0
C142 C 0.87237 0.47033 0.78511 0.0
C143 C 0.90673 0.50128 0.7959 0.0
C144 C 0.96552 0.52902 0.83043 0.0
C145 C 0.90116 0.5215 0.91475 0.0
C146 C 0.91184 0.50886 0.94106 0.0
C147 C 0.92346 0.53206 0.88881 0.0
C148 C 0.95666 0.52995 0.88875 0.0
C149 C 0.94583 0.50825 0.94137 0.0
C150 C 0.96805 0.5188 0.91554 0.0
C151 C 0.9803 0.53986 0.86135 0.0
C152 C 0.15034 0.61774 0.8457 0.0
C153 C 0.15677 0.59449 0.8653 0.0
C154 C 0.11351 0.61066 0.83932 0.0
C155 C 0.08271 0.58002 0.85227 0.0
C156 C 0.1261 0.56556 0.87979 0.0
C157 C 0.08954 0.55847 0.87339 0.0
C158 C 0.04295 0.56805 0.84337 0.0
C159 C 0.09763 0.56288 0.75526 0.0
C160 C 0.09478 0.58473 0.73188 0.0
C161 C 0.07594 0.55483 0.78138 0.0
C162 C 0.05174 0.56932 0.7851 0.0
C163 C 0.06957 0.59821 0.73529 0.0
C164 C 0.04817 0.59045 0.76163 0.0
C165 C 0.0282 0.56062 0.81234 0.0
H166 H 0.86505 0.40894 0.83988 0.0
H167 H 0.92542 0.46197 0.85765 0.0
H168 H 0.85845 0.47258 0.76421 0.0
H169 H 0.91868 0.52668 0.78305 0.0
H170 H 0.87499 0.52207 0.91383 0.0
H171 H 0.91457 0.54152 0.86874 0.0
H172 H 0.95497 0.49907 0.96148 0.0
H173 H -0.00626 0.51732 0.91626 0.0
H174 H 0.17352 0.64031 0.83425 0.0
H175 H 0.10901 0.62823 0.82354 0.0
H176 H 0.13028 0.54769 0.89547 0.0
H177 H 0.06632 0.53493 0.88398 0.0
H178 H 0.11701 0.55234 0.75363 0.0
H179 H 0.0782 0.53739 0.79873 0.0
H180 H 0.06613 0.61451 0.71751 0.0
H181 H 0.02894 0.60112 0.76377 0.0
N182 N 0.99007 0.54103 0.80713 0.0
N183 N 0.01836 0.55813 0.86651 0.0
C184 C 0.44135 0.87991 0.98339 0.0
C185 C 0.4147 0.86329 0.95829 0.0
C186 C 0.44981 0.91463 0.9965 0.0
C187 C 0.4319 0.93351 0.98476 0.0
C188 C 0.39508 0.88126 0.94799 0.0
C189 C 0.40398 0.91624 0.96082 0.0
C190 C 0.44739 0.97358 0.99318 0.0
C191 C 0.39377 0.91358 0.07955 0.0
C192 C 0.41779 0.92485 0.10646 0.0
C193 C 0.40571 0.93389 0.05259 0.0
C194 C 0.44215 0.96542 0.05191 0.0
C195 C 0.45347 0.95733 0.10605 0.0
C196 C 0.46556 0.97717 0.07912 0.0
C197 C 0.45575 0.98825 0.02412 0.0
C198 C 0.55332 0.15581 0.01303 0.0
C199 C 0.58358 0.16042 0.03267 0.0
C200 C 0.5237 0.11989 0.00415 0.0
C201 C 0.52414 0.08824 0.01478 0.0
C202 C 0.58323 0.12863 0.04385 0.0
C203 C 0.55377 0.09298 0.03509 0.0
C204 C 0.49417 0.04971 0.00579 0.0
C205 C 0.55007 0.10377 0.91798 0.0
C206 C 0.52464 0.10133 0.89408 0.0
C207 C 0.53693 0.08224 0.94411 0.0
C208 C 0.49801 0.05863 0.9474 0.0
C209 C 0.48576 0.07645 0.89692 0.0
C210 C 0.47264 0.05533 0.9233 0.0
C211 C 0.48345 0.03547 0.97482 0.0
H212 H 0.45742 0.8673 0.99173 0.0
H213 H 0.47222 0.92784 0.0144 0.0
H214 H 0.37373 0.86894 0.92923 0.0
H215 H 0.39005 0.93047 0.95125 0.0
H216 H 0.36614 0.88857 0.07906 0.0
H217 H 0.38636 0.92498 0.03245 0.0
H218 H 0.47238 0.96727 0.12653 0.0
H219 H 0.49357 0.00169 0.07958 0.0
H220 H 0.553 0.17991 0.004 0.0
H221 H 0.50075 0.11682 0.9889 0.0
H222 H 0.60583 0.13133 0.05936 0.0
H223 H 0.5545 0.06892 0.0438 0.0
H224 H 0.58017 0.12278 0.91683 0.0
H225 H 0.55728 0.08413 0.96172 0.0
H226 H 0.4654 0.07316 0.87873 0.0
H227 H 0.44253 0.03655 0.92499 0.0
N228 N 0.46068 -0.00211 0.96979 0.0
N229 N 0.47927 0.02562 0.029 0.0
C230 C 0.46741 0.61398 0.16593 0.0
C231 C 0.43436 0.60701 0.18063 0.0
C232 C 0.47099 0.58467 0.15352 0.0
C233 C 0.44217 0.54755 0.15618 0.0
C234 C 0.4052 0.56956 0.183 0.0
C235 C 0.40938 0.53999 0.17129 0.0
C236 C 0.44991 0.51769 0.14703 0.0
C237 C 0.40206 0.53574 0.0587 0.0
C238 C 0.42864 0.55513 0.03634 0.0
C239 C 0.41235 0.52337 0.08519 0.0
C240 C 0.4493 0.52974 0.08963 0.0
C241 C 0.46581 0.56222 0.04114 0.0
C242 C 0.47592 0.54929 0.06737 0.0
C243 C 0.45959 0.51429 0.11651 0.0
C244 C 0.5462 0.43124 0.13694 0.0
C245 C 0.57966 0.45729 0.12318 0.0
C246 C 0.51621 0.43816 0.13956 0.0
C247 C 0.51947 0.47152 0.12891 0.0
C248 C 0.58177 0.48953 0.11097 0.0
C249 C 0.55204 0.49652 0.11381 0.0
C250 C 0.49103 0.48266 0.1352 0.0
C251 C 0.54013 0.47379 0.22703 0.0
C252 C 0.51312 0.44548 0.24499 0.0
C253 C 0.52888 0.48649 0.20144 0.0
C254 C 0.49044 0.47053 0.19277 0.0
C255 C 0.47452 0.43045 0.23683 0.0
C256 C 0.4633 0.44303 0.21099 0.0
C257 C 0.47851 0.48339 0.16532 0.0
H258 H 0.49115 0.64209 0.16454 0.0
H259 H 0.49711 0.59098 0.1429 0.0
H260 H 0.37918 0.56301 0.19384 0.0
H261 H 0.3872 0.51136 0.17408 0.0
H262 H 0.37324 0.52994 0.05558 0.0
H263 H 0.39112 0.50787 0.10175 0.0
H264 H 0.48674 0.57678 0.02411 0.0
H265 H 0.50455 0.55445 0.07022 0.0
H266 H 0.54356 0.40603 0.14643 0.0
H267 H 0.49101 0.41804 0.15073 0.0
H268 H 0.6066 0.50961 0.09938 0.0
H269 H 0.55513 0.52231 0.10516 0.0
H270 H 0.5701 0.48572 0.23233 0.0
H271 H 0.55028 0.50847 0.18815 0.0
H272 H 0.45299 0.40906 0.25043 0.0
H273 H 0.43344 0.43093 0.20497 0.0
N274 N 0.45893 0.50141 0.17017 0.0
N275 N 0.48052 0.49761 0.11184 0.0
Mg276 Mg 0.61117 0.36755 0.37008 0.0
O277 O 0.60533 0.39884 0.41217 0.0
O278 O 0.63208 0.45931 0.40122 0.0
Mg279 Mg 0.65203 0.46617 0.35166 0.0
C280 C 0.61512 0.43268 0.41969 0.0
C281 C 0.5889 0.287 0.38532 0.0
O282 O 0.58593 0.28513 0.35483 0.0
O283 O 0.67405 0.39295 0.38129 0.0
O284 O 0.69725 0.45184 0.36685 0.0
O285 O 0.55556 0.35642 0.34917 0.0
O286 O 0.61047 0.40668 0.34109 0.0
C287 C 0.70184 0.4256 0.37724 0.0
C288 C 0.57428 0.38858 0.33665 0.0
O289 O 0.59853 0.31794 0.39953 0.0
Mg290 Mg 0.25686 0.64375 0.60158 0.0
O291 O 0.21664 0.61226 0.5589 0.0
O292 O 0.18094 0.55303 0.57268 0.0
Mg293 Mg 0.19699 0.54651 0.62237 0.0
C294 C 0.19025 0.57847 0.55291 0.0
C295 C 0.32415 0.71852 0.58948 0.0
O296 O 0.32863 0.71232 0.61863 0.0
O297 O 0.29222 0.61681 0.59195 0.0
O298 O 0.25602 0.55907 0.60854 0.0
O299 O 0.2151 0.65725 0.62156 0.0
O300 O 0.21774 0.60636 0.63116 0.0
C301 C 0.28689 0.58443 0.59781 0.0
C302 C 0.20144 0.62575 0.63525 0.0
O303 O 0.29523 0.69387 0.57369 0.0
Mg304 Mg 0.62323 0.26751 0.76846 0.0
O305 O 0.61636 0.231 0.72516 0.0
O306 O 0.64571 0.19907 0.73607 0.0
Mg307 Mg 0.66576 0.21088 0.78754 0.0
C308 C 0.62708 0.20795 0.71727 0.0
C309 C 0.62029 0.33725 0.75127 0.0
O310 O 0.63547 0.34596 0.77966 0.0
O311 O 0.68585 0.30583 0.7624 0.0
O312 O 0.71102 0.27209 0.77931 0.0
O313 O 0.56826 0.223 0.78525 0.0
O314 O 0.62345 0.22778 0.79696 0.0
C315 C 0.71448 0.30273 0.76986 0.0
C316 C 0.58733 0.20991 0.79932 0.0
O317 O 0.61058 0.30515 0.73929 0.0
Mg318 Mg 0.39573 0.66076 0.87142 0.0
O319 O 0.4005 0.62934 0.91327 0.0
O320 O 0.36909 0.56838 0.89926 0.0
Mg321 Mg 0.34902 0.56135 0.84811 0.0
C322 C 0.38818 0.59507 0.91935 0.0
C323 C 0.40105 0.73429 0.89 0.0
O324 O 0.38708 0.72706 0.86123 0.0
O325 O 0.3335 0.63886 0.87832 0.0
O326 O 0.30605 0.5796 0.86 0.0
O327 O 0.44971 0.66835 0.85279 0.0
O328 O 0.39319 0.61973 0.84122 0.0
C329 C 0.30406 0.60751 0.87097 0.0
C330 C 0.42911 0.63627 0.83812 0.0
O331 O 0.40997 0.71194 0.90231 0.0
Mg332 Mg 0.74226 0.39817 0.06235 0.0
O333 O 0.78009 0.40255 0.10513 0.0
O334 O 0.81642 0.38015 0.08831 0.0
Mg335 Mg 0.80316 0.36256 0.03679 0.0
C336 C 0.80616 0.39446 0.1098 0.0
C337 C 0.70689 0.43755 0.10072 0.0
O338 O 0.7397 0.46737 0.09615 0.0
O339 O 0.70637 0.33537 0.06523 0.0
O340 O 0.74306 0.31501 0.04566 0.0
O341 O 0.78524 0.45526 0.04757 0.0
O342 O 0.78323 0.4028 0.03288 0.0
C343 C 0.71161 0.30886 0.05605 0.0
C344 C 0.79971 0.43867 0.0321 0.0
O345 O 0.70112 0.40563 0.09158 0.0
Mg346 Mg 0.35889 0.75971 0.23081 0.0
O347 O 0.38895 0.79452 0.2754 0.0
O348 O 0.44973 0.83117 0.26514 0.0
Mg349 Mg 0.45695 0.82509 0.21321 0.0
C350 C 0.42285 0.81905 0.28388 0.0
C351 C 0.29 0.68557 0.24376 0.0
O352 O 0.29869 0.68036 0.2157 0.0
O353 O 0.38801 0.72514 0.23455 0.0
O354 O 0.44418 0.76482 0.21602 0.0
O355 O 0.34345 0.80224 0.21524 0.0
O356 O 0.3961 0.80296 0.20444 0.0
C357 C 0.41982 0.73227 0.2244 0.0
C358 C 0.37556 0.81825 0.20202 0.0
O359 O 0.31015 0.71723 0.2578 0.0
C360 C 0.19412 0.59976 0.2511 0.0
C361 C 0.18757 0.60264 0.28249 0.0
H362 H 0.232 0.62352 0.21434 0.0
C363 C 0.21586 0.63139 0.30177 0.0
H364 H 0.17246 0.57779 0.23587 0.0
C365 C 0.24972 0.65808 0.28939 0.0
C366 C 0.25583 0.65594 0.25766 0.0
H367 H 0.21107 0.63418 0.32602 0.0
H368 H 0.27072 0.68075 0.30447 0.0
C369 C 0.22811 0.62596 0.23884 0.0
C370 C 0.58123 0.22412 0.45101 0.0
C371 C 0.56358 0.18883 0.43547 0.0
H372 H 0.60269 0.28302 0.44738 0.0
C373 C 0.55538 0.18626 0.40335 0.0
H374 H 0.5877 0.22678 0.47579 0.0
C375 C 0.56405 0.21822 0.38711 0.0
C376 C 0.58081 0.25347 0.40267 0.0
H377 H 0.54214 0.15939 0.39076 0.0
H378 H 0.55709 0.21515 0.3624 0.0
C379 C 0.58955 0.25618 0.43478 0.0
C380 C 0.34423 0.53599 0.60384 0.0
C381 C 0.38109 0.56564 0.59992 0.0
H382 H 0.28563 0.51845 0.60581 0.0
C383 C 0.38632 0.60085 0.59254 0.0
H384 H 0.33923 0.50861 0.60989 0.0
C385 C 0.35545 0.60657 0.59025 0.0
C386 C 0.31875 0.57724 0.5955 0.0
H387 H 0.41434 0.62411 0.58898 0.0
H388 H 0.36058 0.63433 0.58546 0.0
C389 C 0.31345 0.54169 0.60163 0.0
C390 C 0.8188 0.36709 0.78879 0.0
C391 C 0.82188 0.40255 0.78831 0.0
H392 H 0.78276 0.30782 0.78277 0.0
C393 C 0.79049 0.40506 0.77769 0.0
H394 H 0.84278 0.36428 0.79605 0.0
C395 C 0.75608 0.37262 0.76966 0.0
C396 C 0.75235 0.33699 0.77217 0.0
H397 H 0.79194 0.43194 0.77702 0.0
H398 H 0.73195 0.37548 0.76304 0.0
C399 C 0.78445 0.33471 0.78087 0.0
C400 C 0.40448 0.82581 0.90867 0.0
C401 C 0.4099 0.8293 0.94121 0.0
H402 H 0.39757 0.79335 0.86718 0.0
C403 C 0.41261 0.80109 0.95682 0.0
H404 H 0.40323 0.84731 0.89566 0.0
C405 C 0.41025 0.7704 0.94026 0.0
C406 C 0.40472 0.76706 0.90778 0.0
H407 H 0.41637 0.80257 0.98187 0.0
H408 H 0.41233 0.7491 0.95293 0.0
C409 C 0.40167 0.79499 0.89222 0.0
C410 C 0.64955 0.48151 0.12542 0.0
C411 C 0.61236 0.45117 0.12118 0.0
H412 H 0.70862 0.50097 0.12262 0.0
C413 C 0.60685 0.4155 0.11354 0.0
H414 H 0.65481 0.50919 0.13212 0.0
C415 C 0.63776 0.41069 0.10858 0.0
C416 C 0.67483 0.44149 0.11097 0.0
H417 H 0.57862 0.39157 0.11001 0.0
H418 H 0.63243 0.38308 0.10149 0.0
C419 C 0.68043 0.47675 0.12025 0.0
C420 C 0.40406 0.81824 0.5834 0.0
C421 C 0.40091 0.82471 0.55189 0.0
H422 H 0.38243 0.77973 0.61988 0.0
C423 C 0.37337 0.79519 0.53246 0.0
H424 H 0.42454 0.84041 0.59915 0.0
C425 C 0.34875 0.76046 0.54448 0.0
C426 C 0.35135 0.75441 0.57614 0.0
H427 H 0.3706 0.79898 0.50794 0.0
H428 H 0.32747 0.73851 0.52902 0.0
C429 C 0.37966 0.78347 0.59535 0.0
C430 C 0.61066 0.42113 0.73248 0.0
C431 C 0.60169 0.41535 0.70036 0.0
H432 H 0.62358 0.40105 0.77368 0.0
C433 C 0.60027 0.38425 0.68497 0.0
H434 H 0.61136 0.44434 0.74525 0.0
C435 C 0.60643 0.35893 0.70147 0.0
C436 C 0.61466 0.36443 0.73364 0.0
H437 H 0.59412 0.37927 0.66017 0.0
H438 H 0.60471 0.33504 0.689 0.0
C439 C 0.61731 0.39608 0.74889 0.0
C440 C 0.2274 0.63337 0.87376 0.0
C441 C 0.19462 0.59819 0.86888 0.0
H442 H 0.28783 0.66394 0.87893 0.0
C443 C 0.19807 0.56606 0.86653 0.0
H444 H 0.2255 0.65855 0.87587 0.0
C445 C 0.23353 0.56904 0.86828 0.0
C446 C 0.26645 0.60423 0.87254 0.0
H447 H 0.17334 0.53858 0.86238 0.0
H448 H 0.23513 0.54374 0.86566 0.0
C449 C 0.263 0.63636 0.87578 0.0
C450 C 0.61085 0.22785 0.04971 0.0
C451 C 0.61623 0.19806 0.04075 0.0
H452 H 0.63682 0.28616 0.06239 0.0
C453 C 0.65323 0.20442 0.0392 0.0
H454 H 0.58261 0.22358 0.05147 0.0
C455 C 0.68425 0.2401 0.04554 0.0
C456 C 0.67898 0.27022 0.05368 0.0
H457 H 0.65823 0.182 0.03216 0.0
H458 H 0.71236 0.24422 0.04324 0.0
C459 C 0.64193 0.26356 0.0563 0.0
C460 C 0.4484 0.67325 0.17811 0.0
C461 C 0.43085 0.63902 0.19304 0.0
H462 H 0.45979 0.72939 0.17702 0.0
C463 C 0.41054 0.63617 0.2197 0.0
H464 H 0.46315 0.67647 0.15695 0.0
C465 C 0.40753 0.6667 0.23073 0.0
C466 C 0.42565 0.70086 0.21582 0.0
H467 H 0.39704 0.61049 0.23211 0.0
H468 H 0.39101 0.6636 0.25079 0.0
C469 C 0.4464 0.70382 0.18964 0.0
C470 C 0.8082 0.47602 0.37922 0.0
C471 C 0.815 0.44608 0.37549 0.0
H472 H 0.76703 0.493 0.38315 0.0
C473 C 0.78473 0.40926 0.37721 0.0
H474 H 0.83114 0.50473 0.37879 0.0
C475 C 0.7479 0.40249 0.38008 0.0
C476 C 0.74081 0.43246 0.38108 0.0
H477 H 0.78914 0.38563 0.37438 0.0
H478 H 0.72483 0.37377 0.37948 0.0
C479 C 0.77149 0.46929 0.38187 0.0
C480 C 0.16042 0.58117 0.46893 0.0
C481 C 0.12507 0.5479 0.46571 0.0
H482 H 0.20879 0.61708 0.49891 0.0
C483 C 0.11174 0.52519 0.49148 0.0
H484 H 0.17187 0.59921 0.44957 0.0
C485 C 0.13317 0.53505 0.51941 0.0
C486 C 0.16838 0.56826 0.5227 0.0
H487 H 0.08431 0.49992 0.49036 0.0
H488 H 0.12169 0.51679 0.53867 0.0
C489 C 0.18173 0.59135 0.49718 0.0
C490 C 0.56791 0.16078 0.64338 0.0
C491 C 0.58808 0.14528 0.62965 0.0
H492 H 0.56468 0.19312 0.68144 0.0
C493 C 0.62277 0.15314 0.64411 0.0
H494 H 0.54086 0.15507 0.63344 0.0
C495 C 0.63584 0.17414 0.67219 0.0
C496 C 0.61512 0.18869 0.68618 0.0
H497 H 0.63981 0.14277 0.63397 0.0
H498 H 0.66211 0.17878 0.68309 0.0
C499 C 0.58147 0.18252 0.6711 0.0
C500 C 0.49218 0.63014 0.77876 0.0
C501 C 0.4707 0.5924 0.76816 0.0
H502 H 0.49613 0.67346 0.80963 0.0
C503 C 0.4375 0.56854 0.78325 0.0
H504 H 0.51776 0.64946 0.7676 0.0
C505 C 0.4249 0.58247 0.80699 0.0
C506 C 0.44545 0.62047 0.81659 0.0
H507 H 0.42079 0.5391 0.77641 0.0
H508 H 0.39863 0.56351 0.81735 0.0
C509 C 0.47979 0.64396 0.80287 0.0
C510 C 0.86755 0.51141 0.97897 0.0
C511 C 0.88624 0.49345 0.96708 0.0
H512 H 0.82591 0.50842 0.00966 0.0
C513 C 0.8788 0.45919 0.97902 0.0
H514 H 0.87305 0.53804 0.97035 0.0
C515 C 0.852 0.44235 1.00133 0.0
C516 C 0.83215 0.45943 0.01237 0.0
H517 H 0.89252 0.44452 0.97014 0.0
H518 H 0.84616 0.41539 0.00917 0.0
C519 C 0.84088 0.49464 1.00164 0.0
C520 C 0.43457 0.8958 0.14953 0.0
C521 C 0.40725 0.90136 0.13402 0.0
H522 H 0.44621 0.86635 0.18375 0.0
C523 C 0.36997 0.88267 0.144 0.0
H524 H 0.46346 0.90934 0.14234 0.0
C525 C 0.35993 0.85743 0.16794 0.0
C526 C 0.387 0.85038 0.18204 0.0
H527 H 0.3484 0.88683 0.13281 0.0
H528 H 0.33068 0.842 0.17418 0.0
C529 C 0.42458 0.87078 0.17327 0.0
C530 C 0.50717 0.39264 0.27695 0.0
C531 C 0.52558 0.43117 0.27146 0.0
H532 H 0.50804 0.34897 0.30233 0.0
C533 C 0.55764 0.45577 0.29023 0.0
H534 H 0.48252 0.37284 0.26283 0.0
C535 C 0.57246 0.44202 0.31244 0.0
C536 C 0.55532 0.40341 0.31672 0.0
H537 H 0.57187 0.4857 0.28731 0.0
H538 H 0.59774 0.46169 0.32582 0.0
C539 C 0.5218 0.37892 0.29953 0.0
C540 C 0.40958 0.857 0.36029 0.0
C541 C 0.44703 0.87862 0.3722 0.0
H542 H 0.37243 0.82047 0.32334 0.0
C543 C 0.47609 0.87796 0.35618 0.0
H544 H 0.38665 0.85684 0.37234 0.0
C545 C 0.46808 0.85749 0.328 0.0
C546 C 0.43076 0.8368 0.3155 0.0
H547 H 0.50524 0.89453 0.36479 0.0
H548 H 0.49126 0.85859 0.31564 0.0
C549 C 0.40147 0.83602 0.33236 0.0
C550 C 0.5667 0.42169 0.4955 0.0
C551 C 0.58471 0.45884 0.50741 0.0
H552 H 0.56256 0.38412 0.45859 0.0
C553 C 0.61378 0.48703 0.49095 0.0
H554 H 0.54431 0.39944 0.50787 0.0
C555 C 0.62397 0.47842 0.46266 0.0
C556 C 0.60561 0.44134 0.45044 0.0
H557 H 0.62789 0.51596 0.4995 0.0
H558 H 0.64604 0.50091 0.45024 0.0
C559 C 0.57727 0.41295 0.4674 0.0
C560 C 0.12686 0.56756 0.69134 0.0
C561 C 0.11868 0.59397 0.7045 0.0
H562 H 0.1591 0.55673 0.65912 0.0
C563 C 0.1351 0.62983 0.69227 0.0
H564 H 0.11398 0.53939 0.6996 0.0
C565 C 0.16046 0.63954 0.66846 0.0
C566 C 0.17023 0.61373 0.65664 0.0
H567 H 0.12969 0.65099 0.70198 0.0
H568 H 0.17377 0.66782 0.6604 0.0
C569 C 0.15252 0.57741 0.66786 0.0
C570 C 0.51804 0.14132 0.85402 0.0
C571 C 0.53864 0.1256 0.86693 0.0
H572 H 0.51701 0.17977 0.8221 0.0
C573 C 0.57371 0.13498 0.85478 0.0
H574 H 0.49113 0.13513 0.86292 0.0
C575 C 0.58882 0.16112 0.83171 0.0
C576 C 0.56896 0.17805 0.8199 0.0
H577 H 0.58995 0.12271 0.86352 0.0
H578 H 0.61651 0.16875 0.82377 0.0
C579 C 0.53293 0.16705 0.83062 0.0
C580 C 0.38511 0.53994 0.98947 0.0
C581 C 0.4172 0.56625 0.00732 0.0
H582 H 0.35095 0.52833 0.94765 0.0
C583 C 0.43889 0.60266 0.99667 0.0
H584 H 0.36804 0.51161 0.99702 0.0
C585 C 0.42884 0.61245 0.96856 0.0
C586 C 0.39733 0.58578 0.95024 0.0
H587 H 0.46368 0.62352 0.01008 0.0
H588 H 0.44634 0.6406 0.96078 0.0
C589 C 0.37546 0.54949 0.96113 0.0
C590 C 0.83409 0.42163 0.19552 0.0
C591 C 0.87097 0.42734 0.1969 0.0
H592 H 0.78459 0.40722 0.16664 0.0
C593 C 0.8856 0.42083 0.17 0.0
H594 H 0.82231 0.4266 0.21603 0.0
C595 C 0.86401 0.40917 0.1421 0.0
C596 C 0.82747 0.40442 0.14025 0.0
H597 H 0.9139 0.4249 0.17056 0.0
H598 H 0.87646 0.40482 0.12175 0.0
C599 C 0.81264 0.41068 0.1673 0.0
loop_
_geom_bond_atom_site_label_1
_geom_bond_atom_site_label_2
_geom_bond_distance
_geom_bond_site_symmetry_2
_ccdc_geom_bond_type
C0 C1 1.384 . S
C0 C2 1.384 . S
C0 H28 0.931 . S
C1 C0 1.384 . S
C1 C4 1.382 . S
C2 C0 1.384 . S
C2 C3 1.381 . S
C2 H29 0.930 . S
C3 C2 1.381 . S
C3 C5 1.381 . S
C3 C6 1.487 . S
C4 C1 1.382 . S
C4 C5 1.387 . S
C4 H30 0.930 . S
C5 C3 1.381 . S
C5 C4 1.387 . S
C5 H31 0.931 . S
C6 C3 1.487 . S
C6 C13 1.399 . S
C6 N44 1.343 . S
C7 C8 1.384 . S
C7 C9 1.384 . S
C7 H32 0.931 . S
C8 C7 1.384 . S
C8 C11 1.382 . S
C9 C7 1.384 . S
C9 C10 1.381 . S
C9 H33 0.930 . S
C10 C9 1.381 . S
C10 C12 1.381 . S
C10 C13 1.487 . S
C11 C8 1.382 . S
C11 C12 1.387 . S
C11 H34 0.930 . S
C12 C10 1.381 . S
C12 C11 1.387 . S
C12 H35 0.931 . S
C13 C6 1.399 . S
C13 C10 1.487 . S
C13 N45 1.343 1_655 S
C14 C15 1.384 . S
C14 C16 1.384 . S
C14 H36 0.931 . S
C15 C14 1.384 . S
C15 C18 1.382 . S
C16 C14 1.384 . S
C16 C17 1.381 . S
C16 H37 0.930 . S
C17 C16 1.381 . S
C17 C19 1.381 . S
C17 C20 1.487 . S
C18 C15 1.382 . S
C18 C19 1.387 . S
C18 H38 0.930 . S
C19 C17 1.381 . S
C19 C18 1.387 . S
C19 H39 0.931 . S
C20 C17 1.487 . S
C20 C27 1.399 . S
C20 N45 1.343 . S
C21 C22 1.384 . S
C21 C23 1.384 . S
C21 H40 0.931 . S
C22 C21 1.384 . S
C22 C25 1.382 . S
C23 C21 1.384 . S
C23 C24 1.381 . S
C23 H41 0.930 . S
C24 C23 1.381 . S
C24 C26 1.381 . S
C24 C27 1.487 . S
C25 C22 1.382 . S
C25 C26 1.387 . S
C25 H42 0.930 . S
C26 C24 1.381 . S
C26 C25 1.387 . S
C26 H43 0.931 . S
C27 C20 1.399 . S
C27 C24 1.487 . S
C27 N44 1.343 1_455 S
H28 C0 0.931 . S
H29 C2 0.930 . S
H30 C4 0.930 . S
H31 C5 0.931 . S
H32 C7 0.931 . S
H33 C9 0.930 . S
H34 C11 0.930 . S
H35 C12 0.931 . S
H36 C14 0.931 . S
H37 C16 0.930 . S
H38 C18 0.930 . S
H39 C19 0.931 . S
H40 C21 0.931 . S
H41 C23 0.930 . S
H42 C25 0.930 . S
H43 C26 0.931 . S
N44 C6 1.343 . S
N44 C27 1.343 1_655 S
N45 C13 1.343 1_455 S
N45 C20 1.343 . S
C46 C47 1.384 . S
C46 C48 1.384 . S
C46 H74 0.931 . S
C47 C46 1.384 . S
C47 C50 1.382 . S
C48 C46 1.384 . S
C48 C49 1.381 . S
C48 H75 0.930 . S
C49 C48 1.381 . S
C49 C51 1.381 . S
C49 C52 1.487 . S
C50 C47 1.382 . S
C50 C51 1.387 . S
C50 H76 0.930 . S
C51 C49 1.381 . S
C51 C50 1.387 . S
C51 H77 0.931 . S
C52 C49 1.487 . S
C52 C59 1.399 . S
C52 N90 1.343 1_565 S
C53 C54 1.384 . S
C53 C55 1.384 . S
C53 H78 0.931 . S
C54 C53 1.384 . S
C54 C57 1.382 . S
C55 C53 1.384 . S
C55 C56 1.381 . S
C55 H79 0.930 . S
C56 C55 1.381 . S
C56 C58 1.381 . S
C56 C59 1.487 . S
C57 C54 1.382 . S
C57 C58 1.387 . S
C57 H80 0.930 . S
C58 C56 1.381 . S
C58 C57 1.387 . S
C58 H81 0.931 . S
C59 C52 1.399 . S
C59 C56 1.487 . S
C59 N91 1.343 1_565 S
C60 C61 1.384 . S
C60 C62 1.384 . S
C60 H82 0.931 . S
C61 C60 1.384 . S
C61 C64 1.382 . S
C62 C60 1.384 . S
C62 C63 1.381 . S
C62 H83 0.930 . S
C63 C62 1.381 . S
C63 C65 1.381 . S
C63 C66 1.487 . S
C64 C61 1.382 . S
C64 C65 1.387 . S
C64 H84 0.930 . S
C65 C63 1.381 . S
C65 C64 1.387 . S
C65 H85 0.931 . S
C66 C63 1.487 . S
C66 C73 1.399 . S
C66 N91 1.343 . S
C67 C68 1.384 . S
C67 C69 1.384 . S
C67 H86 0.931 . S
C68 C67 1.384 . S
C68 C71 1.382 . S
C69 C67 1.384 . S
C69 C70 1.381 . S
C69 H87 0.930 . S
C70 C69 1.381 . S
C70 C72 1.381 . S
C70 C73 1.487 . S
C71 C68 1.382 . S
C71 C72 1.387 . S
C71 H88 0.930 . S
C72 C70 1.381 . S
C72 C71 1.387 . S
C72 H89 0.931 . S
C73 C66 1.399 . S
C73 C70 1.487 . S
C73 N90 1.343 . S
H74 C46 0.931 . S
H75 C48 0.930 . S
H76 C50 0.930 . S
H77 C51 0.931 . S
H78 C53 0.931 . S
H79 C55 0.930 . S
H80 C57 0.930 . S
H81 C58 0.931 . S
H82 C60 0.931 . S
H83 C62 0.930 . S
H84 C64 0.930 . S
H85 C65 0.931 . S
H86 C67 0.931 . S
H87 C69 0.930 . S
H88 C71 0.930 . S
H89 C72 0.931 . S
N90 C52 1.343 1_545 S
N90 C73 1.343 . S
N91 C59 1.343 1_545 S
N91 C66 1.343 . S
C92 C93 1.384 . S
C92 C94 1.384 . S
C92 H120 0.931 . S
C93 C92 1.384 . S
C93 C96 1.382 . S
C94 C92 1.384 . S
C94 C95 1.381 . S
C94 H121 0.930 . S
C95 C94 1.381 . S
C95 C97 1.381 . S
C95 C98 1.487 . S
C96 C93 1.382 . S
C96 C97 1.387 . S
C96 H122 0.930 . S
C97 C95 1.381 . S
C97 C96 1.387 . S
C97 H123 0.931 . S
C98 C95 1.487 . S
C98 C105 1.399 . S
C98 N136 1.343 . S
C99 C100 1.384 . S
C99 C101 1.384 . S
C99 H124 0.931 . S
C100 C99 1.384 . S
C100 C103 1.382 . S
C101 C99 1.384 . S
C101 C102 1.381 . S
C101 H125 0.930 . S
C102 C101 1.381 . S
C102 C104 1.381 . S
C102 C105 1.487 . S
C103 C100 1.382 . S
C103 C104 1.387 . S
C103 H126 0.930 . S
C104 C102 1.381 . S
C104 C103 1.387 . S
C104 H127 0.931 . S
C105 C98 1.399 . S
C105 C102 1.487 . S
C105 N137 1.343 . S
C106 C107 1.384 . S
C106 C108 1.384 . S
C106 H128 0.931 . S
C107 C106 1.384 . S
C107 C110 1.382 . S
C108 C106 1.384 . S
C108 C109 1.381 . S
C108 H129 0.930 . S
C109 C108 1.381 . S
C109 C111 1.381 . S
C109 C112 1.487 . S
C110 C107 1.382 . S
C110 C111 1.387 . S
C110 H130 0.930 . S
C111 C109 1.381 . S
C111 C110 1.387 . S
C111 H131 0.931 . S
C112 C109 1.487 . S
C112 C119 1.399 . S
C112 N137 1.343 . S
C113 C114 1.384 . S
C113 C115 1.384 . S
C113 H132 0.931 . S
C114 C113 1.384 . S
C114 C117 1.382 . S
C115 C113 1.384 . S
C115 C116 1.381 . S
C115 H133 0.930 . S
C116 C115 1.381 . S
C116 C118 1.381 . S
C116 C119 1.487 . S
C117 C114 1.382 . S
C117 C118 1.387 . S
C117 H134 0.930 . S
C118 C116 1.381 . S
C118 C117 1.387 . S
C118 H135 0.931 . S
C119 C112 1.399 . S
C119 C116 1.487 . S
C119 N136 1.343 . S
H120 C92 0.931 . S
H121 C94 0.930 . S
H122 C96 0.930 . S
H123 C97 0.931 . S
H124 C99 0.931 . S
H125 C101 0.930 . S
H126 C103 0.930 . S
H127 C104 0.931 . S
H128 C106 0.931 . S
H129 C108 0.930 . S
H130 C110 0.930 . S
H131 C111 0.931 . S
H132 C113 0.931 . S
H133 C115 0.930 . S
H134 C117 0.930 . S
H135 C118 0.931 . S
N136 C98 1.343 . S
N136 C119 1.343 . S
N137 C105 1.343 . S
N137 C112 1.343 . S
C138 C139 1.384 . S
C138 C140 1.384 . S
C138 H166 0.931 . S
C139 C138 1.384 . S
C139 C142 1.382 . S
C140 C138 1.384 . S
C140 C141 1.381 . S
C140 H167 0.930 . S
C141 C140 1.381 . S
C141 C143 1.381 . S
C141 C144 1.487 . S
C142 C139 1.382 . S
C142 C143 1.387 . S
C142 H168 0.930 . S
C143 C141 1.381 . S
C143 C142 1.387 . S
C143 H169 0.931 . S
C144 C141 1.487 . S
C144 C151 1.399 . S
C144 N182 1.343 . S
C145 C146 1.384 . S
C145 C147 1.384 . S
C145 H170 0.931 . S
C146 C145 1.384 . S
C146 C149 1.382 . S
C147 C145 1.384 . S
C147 C148 1.381 . S
C147 H171 0.930 . S
C148 C147 1.381 . S
C148 C150 1.381 . S
C148 C151 1.487 . S
C149 C146 1.382 . S
C149 C150 1.387 . S
C149 H172 0.930 . S
C150 C148 1.381 . S
C150 C149 1.387 . S
C150 H173 0.931 . S
C151 C144 1.399 . S
C151 C148 1.487 . S
C151 N183 1.343 1_655 S
C152 C153 1.384 . S
C152 C154 1.384 . S
C152 H174 0.931 . S
C153 C152 1.384 . S
C153 C156 1.382 . S
C154 C152 1.384 . S
C154 C155 1.381 . S
C154 H175 0.930 . S
C155 C154 1.381 . S
C155 C157 1.381 . S
C155 C158 1.487 . S
C156 C153 1.382 . S
C156 C157 1.387 . S
C156 H176 0.930 . S
C157 C155 1.381 . S
C157 C156 1.387 . S
C157 H177 0.931 . S
C158 C155 1.487 . S
C158 C165 1.399 . S
C158 N183 1.343 . S
C159 C160 1.384 . S
C159 C161 1.384 . S
C159 H178 0.931 . S
C160 C159 1.384 . S
C160 C163 1.382 . S
C161 C159 1.384 . S
C161 C162 1.381 . S
C161 H179 0.930 . S
C162 C161 1.381 . S
C162 C164 1.381 . S
C162 C165 1.487 . S
C163 C160 1.382 . S
C163 C164 1.387 . S
C163 H180 0.930 . S
C164 C162 1.381 . S
C164 C163 1.387 . S
C164 H181 0.931 . S
C165 C158 1.399 . S
C165 C162 1.487 . S
C165 N182 1.343 1_455 S
H166 C138 0.931 . S
H167 C140 0.930 . S
H168 C142 0.930 . S
H169 C143 0.931 . S
H170 C145 0.931 . S
H171 C147 0.930 . S
H172 C149 0.930 . S
H173 C150 0.931 . S
H174 C152 0.931 . S
H175 C154 0.930 . S
H176 C156 0.930 . S
H177 C157 0.931 . S
H178 C159 0.931 . S
H179 C161 0.930 . S
H180 C163 0.930 . S
H181 C164 0.931 . S
N182 C144 1.343 . S
N182 C165 1.343 1_655 S
N183 C151 1.343 1_455 S
N183 C158 1.343 . S
C184 C185 1.384 . S
C184 C186 1.384 . S
C184 H212 0.931 . S
C185 C184 1.384 . S
C185 C188 1.382 . S
C186 C184 1.384 . S
C186 C187 1.381 . S
C186 H213 0.930 1_556 S
C187 C186 1.381 . S
C187 C189 1.381 . S
C187 C190 1.487 . S
C188 C185 1.382 . S
C188 C189 1.387 . S
C188 H214 0.930 . S
C189 C187 1.381 . S
C189 C188 1.387 . S
C189 H215 0.931 . S
C190 C187 1.487 . S
C190 C197 1.399 1_556 S
C190 N228 1.343 1_565 S
C191 C192 1.384 . S
C191 C193 1.384 . S
C191 H216 0.931 . S
C192 C191 1.384 . S
C192 C195 1.382 . S
C193 C191 1.384 . S
C193 C194 1.381 . S
C193 H217 0.930 . S
C194 C193 1.381 . S
C194 C196 1.381 . S
C194 C197 1.487 . S
C195 C192 1.382 . S
C195 C196 1.387 . S
C195 H218 0.930 . S
C196 C194 1.381 . S
C196 C195 1.387 . S
C196 H219 0.932 . S
C197 C190 1.399 1_554 S
C197 C194 1.487 . S
C197 N229 1.343 1_565 S
C198 C199 1.384 . S
C198 C200 1.384 1_554 S
C198 H220 0.931 . S
C199 C198 1.384 . S
C199 C202 1.382 . S
C200 C198 1.384 1_556 S
C200 C201 1.381 1_556 S
C200 H221 0.930 . S
C201 C200 1.381 1_554 S
C201 C203 1.381 . S
C201 C204 1.485 1_554 S
C202 C199 1.382 . S
C202 C203 1.387 . S
C202 H222 0.930 . S
C203 C201 1.381 . S
C203 C202 1.387 . S
C203 H223 0.931 . S
C204 C201 1.485 1_556 S
C204 C211 1.405 . S
C204 N229 1.338 1_556 S
C205 C206 1.384 . S
C205 C207 1.384 . S
C205 H224 0.931 . S
C206 C205 1.384 . S
C206 C209 1.382 . S
C207 C205 1.384 . S
C207 C208 1.381 . S
C207 H225 0.930 . S
C208 C207 1.381 . S
C208 C210 1.381 . S
C208 C211 1.487 . S
C209 C206 1.382 . S
C209 C210 1.387 . S
C209 H226 0.930 . S
C210 C208 1.381 . S
C210 C209 1.387 . S
C210 H227 0.931 . S
C211 C204 1.405 . S
C211 C208 1.487 . S
C211 N228 1.343 . S
H212 C184 0.931 . S
H213 C186 0.930 1_554 S
H214 C188 0.930 . S
H215 C189 0.931 . S
H216 C191 0.931 . S
H217 C193 0.930 . S
H218 C195 0.930 . S
H219 C196 0.932 . S
H220 C198 0.931 . S
H221 C200 0.930 . S
H222 C202 0.930 . S
H223 C203 0.931 . S
H224 C205 0.931 . S
H225 C207 0.930 . S
H226 C209 0.930 . S
H227 C210 0.931 . S
N228 C190 1.343 1_545 S
N228 C211 1.343 . S
N229 C197 1.343 1_545 S
N229 C204 1.338 1_554 S
C230 C231 1.384 . S
C230 C232 1.384 . S
C230 H258 0.931 . S
C231 C230 1.384 . S
C231 C234 1.382 . S
C232 C230 1.384 . S
C232 C233 1.381 . S
C232 H259 0.930 . S
C233 C232 1.381 . S
C233 C235 1.381 . S
C233 C236 1.487 . S
C234 C231 1.382 . S
C234 C235 1.387 . S
C234 H260 0.930 . S
C235 C233 1.381 . S
C235 C234 1.387 . S
C235 H261 0.931 . S
C236 C233 1.487 . S
C236 C243 1.399 . S
C236 N274 1.343 . S
C237 C238 1.384 . S
C237 C239 1.384 . S
C237 H262 0.931 . S
C238 C237 1.384 . S
C238 C241 1.382 . S
C239 C237 1.384 . S
C239 C240 1.381 . S
C239 H263 0.930 . S
C240 C239 1.381 . S
C240 C242 1.381 . S
C240 C243 1.487 . S
C241 C238 1.382 . S
C241 C242 1.387 . S
C241 H264 0.930 . S
C242 C240 1.381 . S
C242 C241 1.387 . S
C242 H265 0.931 . S
C243 C236 1.399 . S
C243 C240 1.487 . S
C243 N275 1.343 . S
C244 C245 1.384 . S
C244 C246 1.384 . S
C244 H266 0.931 . S
C245 C244 1.384 . S
C245 C248 1.382 . S
C246 C244 1.384 . S
C246 C247 1.381 . S
C246 H267 0.930 . S
C247 C246 1.381 . S
C247 C249 1.381 . S
C247 C250 1.487 . S
C248 C245 1.382 . S
C248 C249 1.387 . S
C248 H268 0.930 . S
C249 C247 1.381 . S
C249 C248 1.387 . S
C249 H269 0.931 . S
C250 C247 1.487 . S
C250 C257 1.399 . S
C250 N275 1.343 . S
C251 C252 1.384 . S
C251 C253 1.384 . S
C251 H270 0.931 . S
C252 C251 1.384 . S
C252 C255 1.382 . S
C253 C251 1.384 . S
C253 C254 1.381 . S
C253 H271 0.930 . S
C254 C253 1.381 . S
C254 C256 1.381 . S
C254 C257 1.487 . S
C255 C252 1.382 . S
C255 C256 1.387 . S
C255 H272 0.930 . S
C256 C254 1.381 . S
C256 C255 1.387 . S
C256 H273 0.931 . S
C257 C250 1.399 . S
C257 C254 1.487 . S
C257 N274 1.343 . S
H258 C230 0.931 . S
H259 C232 0.930 . S
H260 C234 0.930 . S
H261 C235 0.931 . S
H262 C237 0.931 . S
H263 C239 0.930 . S
H264 C241 0.930 . S
H265 C242 0.931 . S
H266 C244 0.931 . S
H267 C246 0.930 . S
H268 C248 0.930 . S
H269 C249 0.931 . S
H270 C251 0.931 . S
H271 C253 0.930 . S
H272 C255 0.930 . S
H273 C256 0.931 . S
N274 C236 1.343 . S
N274 C257 1.343 . S
N275 C243 1.343 . S
N275 C250 1.343 . S
Mg276 O277 2.028 . S
Mg276 O283 1.986 . S
Mg276 O285 2.114 . S
Mg276 O286 2.251 . S
Mg276 O289 2.010 . S
O277 Mg276 2.028 . S
O277 C280 1.250 . S
O278 Mg279 2.028 . S
O278 C280 1.248 . S
Mg279 O278 2.028 . S
Mg279 O284 2.032 . S
Mg279 O286 2.079 . S
C280 O277 1.250 . S
C280 O278 1.248 . S
C281 O282 1.264 . S
C281 O289 1.249 . S
O282 C281 1.264 . S
O283 Mg276 1.986 . S
O283 C287 1.246 . S
O284 Mg279 2.032 . S
O284 C287 1.259 . S
O285 Mg276 2.114 . S
O285 C288 1.252 . S
O286 Mg276 2.251 . S
O286 Mg279 2.079 . S
O286 C288 1.273 . S
C287 O283 1.246 . S
C287 O284 1.259 . S
C288 O285 1.252 . S
C288 O286 1.273 . S
O289 Mg276 2.010 . S
O289 C281 1.249 . S
Mg290 O291 2.028 . S
Mg290 O297 1.986 . S
Mg290 O299 2.114 . S
Mg290 O300 2.251 . S
Mg290 O303 2.010 . S
O291 Mg290 2.028 . S
O291 C294 1.250 . S
O292 Mg293 2.028 . S
O292 C294 1.248 . S
Mg293 O292 2.028 . S
Mg293 O298 2.032 . S
Mg293 O300 2.079 . S
C294 O291 1.250 . S
C294 O292 1.248 . S
C295 O296 1.264 . S
C295 O303 1.249 . S
O296 C295 1.264 . S
O297 Mg290 1.986 . S
O297 C301 1.246 . S
O298 Mg293 2.032 . S
O298 C301 1.259 . S
O299 Mg290 2.114 . S
O299 C302 1.252 . S
O300 Mg290 2.251 . S
O300 Mg293 2.079 . S
O300 C302 1.273 . S
C301 O297 1.246 . S
C301 O298 1.259 . S
C302 O299 1.252 . S
C302 O300 1.273 . S
O303 Mg290 2.010 . S
O303 C295 1.249 . S
Mg304 O305 2.028 . S
Mg304 O311 1.986 . S
Mg304 O313 2.114 . S
Mg304 O314 2.251 . S
Mg304 O317 2.010 . S
O305 Mg304 2.028 . S
O305 C308 1.250 . S
O306 Mg307 2.028 . S
O306 C308 1.248 . S
Mg307 O306 2.028 . S
Mg307 O312 2.032 . S
Mg307 O314 2.079 . S
C308 O305 1.250 . S
C308 O306 1.248 . S
C309 O310 1.264 . S
C309 O317 1.249 . S
O310 C309 1.264 . S
O311 Mg304 1.986 . S
O311 C315 1.246 . S
O312 Mg307 2.032 . S
O312 C315 1.259 . S
O313 Mg304 2.114 . S
O313 C316 1.252 . S
O314 Mg304 2.251 . S
O314 Mg307 2.079 . S
O314 C316 1.273 . S
C315 O311 1.246 . S
C315 O312 1.259 . S
C316 O313 1.252 . S
C316 O314 1.273 . S
O317 Mg304 2.010 . S
O317 C309 1.249 . S
Mg318 O319 2.028 . S
Mg318 O325 1.986 . S
Mg318 O327 2.114 . S
Mg318 O328 2.251 . S
Mg318 O331 2.010 . S
O319 Mg318 2.028 . S
O319 C322 1.250 . S
O320 Mg321 2.028 . S
O320 C322 1.248 . S
Mg321 O320 2.028 . S
Mg321 O326 2.032 . S
Mg321 O328 2.079 . S
C322 O319 1.250 . S
C322 O320 1.248 . S
C323 O324 1.264 . S
C323 O331 1.249 . S
O324 C323 1.264 . S
O325 Mg318 1.986 . S
O325 C329 1.246 . S
O326 Mg321 2.032 . S
O326 C329 1.259 . S
O327 Mg318 2.114 . S
O327 C330 1.252 . S
O328 Mg318 2.251 . S
O328 Mg321 2.079 . S
O328 C330 1.273 . S
C329 O325 1.246 . S
C329 O326 1.259 . S
C330 O327 1.252 . S
C330 O328 1.273 . S
O331 Mg318 2.010 . S
O331 C323 1.249 . S
Mg332 O333 2.028 . S
Mg332 O339 1.986 . S
Mg332 O341 2.114 . S
Mg332 O342 2.251 . S
Mg332 O345 2.010 . S
O333 Mg332 2.028 . S
O333 C336 1.250 . S
O334 Mg335 2.028 . S
O334 C336 1.248 . S
Mg335 O334 2.028 . S
Mg335 O340 2.032 . S
Mg335 O342 2.079 . S
C336 O333 1.250 . S
C336 O334 1.248 . S
C337 O338 1.264 . S
C337 O345 1.249 . S
O338 C337 1.264 . S
O339 Mg332 1.986 . S
O339 C343 1.246 . S
O340 Mg335 2.032 . S
O340 C343 1.259 . S
O341 Mg332 2.114 . S
O341 C344 1.252 . S
O342 Mg332 2.251 . S
O342 Mg335 2.079 . S
O342 C344 1.273 . S
C343 O339 1.246 . S
C343 O340 1.259 . S
C344 O341 1.252 . S
C344 O342 1.273 . S
O345 Mg332 2.010 . S
O345 C337 1.249 . S
Mg346 O347 2.028 . S
Mg346 O353 1.986 . S
Mg346 O355 2.114 . S
Mg346 O356 2.251 . S
Mg346 O359 2.010 . S
O347 Mg346 2.028 . S
O347 C350 1.250 . S
O348 Mg349 2.028 . S
O348 C350 1.248 . S
Mg349 O348 2.028 . S
Mg349 O354 2.032 . S
Mg349 O356 2.079 . S
C350 O347 1.250 . S
C350 O348 1.248 . S
C351 O352 1.264 . S
C351 O359 1.249 . S
O352 C351 1.264 . S
O353 Mg346 1.986 . S
O353 C357 1.246 . S
O354 Mg349 2.032 . S
O354 C357 1.259 . S
O355 Mg346 2.114 . S
O355 C358 1.252 . S
O356 Mg346 2.251 . S
O356 Mg349 2.079 . S
O356 C358 1.273 . S
C357 O353 1.246 . S
C357 O354 1.259 . S
C358 O355 1.252 . S
C358 O356 1.273 . S
O359 Mg346 2.010 . S
O359 C351 1.249 . S
C360 C361 1.387 . S
C360 H364 0.950 . S
C360 C369 1.390 . S
C361 C360 1.387 . S
C361 C363 1.387 . S
H362 C369 0.950 . S
C363 C361 1.387 . S
C363 C365 1.390 . S
C363 H367 0.950 . S
H364 C360 0.950 . S
C365 C363 1.390 . S
C365 C366 1.387 . S
C365 H368 0.950 . S
C366 C365 1.387 . S
C366 C369 1.387 . S
H367 C363 0.950 . S
H368 C365 0.950 . S
C369 C360 1.390 . S
C369 H362 0.950 . S
C369 C366 1.387 . S
C370 C371 1.387 . S
C370 H374 0.950 . S
C370 C379 1.390 . S
C371 C370 1.387 . S
C371 C373 1.387 . S
H372 C379 0.950 . S
C373 C371 1.387 . S
C373 C375 1.390 . S
C373 H377 0.950 . S
H374 C370 0.950 . S
C375 C373 1.390 . S
C375 C376 1.387 . S
C375 H378 0.950 . S
C376 C375 1.387 . S
C376 C379 1.387 . S
H377 C373 0.950 . S
H378 C375 0.950 . S
C379 C370 1.390 . S
C379 H372 0.950 . S
C379 C376 1.387 . S
C380 C381 1.387 . S
C380 H384 0.950 . S
C380 C389 1.390 . S
C381 C380 1.387 . S
C381 C383 1.387 . S
H382 C389 0.950 . S
C383 C381 1.387 . S
C383 C385 1.390 . S
C383 H387 0.950 . S
H384 C380 0.950 . S
C385 C383 1.390 . S
C385 C386 1.387 . S
C385 H388 0.950 . S
C386 C385 1.387 . S
C386 C389 1.387 . S
H387 C383 0.950 . S
H388 C385 0.950 . S
C389 C380 1.390 . S
C389 H382 0.950 . S
C389 C386 1.387 . S
C390 C391 1.387 . S
C390 H394 0.950 . S
C390 C399 1.390 . S
C391 C390 1.387 . S
C391 C393 1.387 . S
H392 C399 0.950 . S
C393 C391 1.387 . S
C393 C395 1.390 . S
C393 H397 0.950 . S
H394 C390 0.950 . S
C395 C393 1.390 . S
C395 C396 1.387 . S
C395 H398 0.950 . S
C396 C395 1.387 . S
C396 C399 1.387 . S
H397 C393 0.950 . S
H398 C395 0.950 . S
C399 C390 1.390 . S
C399 H392 0.950 . S
C399 C396 1.387 . S
C400 C401 1.387 . S
C400 H404 0.950 . S
C400 C409 1.390 . S
C401 C400 1.387 . S
C401 C403 1.387 . S
H402 C409 0.950 . S
C403 C401 1.387 . S
C403 C405 1.390 . S
C403 H407 0.950 . S
H404 C400 0.950 . S
C405 C403 1.390 . S
C405 C406 1.387 . S
C405 H408 0.950 . S
C406 C405 1.387 . S
C406 C409 1.387 . S
H407 C403 0.950 . S
H408 C405 0.950 . S
C409 C400 1.390 . S
C409 H402 0.950 . S
C409 C406 1.387 . S
C410 C411 1.387 . S
C410 H414 0.950 . S
C410 C419 1.390 . S
C411 C410 1.387 . S
C411 C413 1.387 . S
H412 C419 0.950 . S
C413 C411 1.387 . S
C413 C415 1.390 . S
C413 H417 0.950 . S
H414 C410 0.950 . S
C415 C413 1.390 . S
C415 C416 1.387 . S
C415 H418 0.950 . S
C416 C415 1.387 . S
C416 C419 1.387 . S
H417 C413 0.950 . S
H418 C415 0.950 . S
C419 C410 1.390 . S
C419 H412 0.950 . S
C419 C416 1.387 . S
C420 C421 1.387 . S
C420 H424 0.950 . S
C420 C429 1.390 . S
C421 C420 1.387 . S
C421 C423 1.387 . S
H422 C429 0.950 . S
C423 C421 1.387 . S
C423 C425 1.390 . S
C423 H427 0.950 . S
H424 C420 0.950 . S
C425 C423 1.390 . S
C425 C426 1.387 . S
C425 H428 0.950 . S
C426 C425 1.387 . S
C426 C429 1.387 . S
H427 C423 0.950 . S
H428 C425 0.950 . S
C429 C420 1.390 . S
C429 H422 0.950 . S
C429 C426 1.387 . S
C430 C431 1.387 . S
C430 H434 0.950 . S
C430 C439 1.390 . S
C431 C430 1.387 . S
C431 C433 1.387 . S
H432 C439 0.950 . S
C433 C431 1.387 . S
C433 C435 1.390 . S
C433 H437 0.950 . S
H434 C430 0.950 . S
C435 C433 1.390 . S
C435 C436 1.387 . S
C435 H438 0.950 . S
C436 C435 1.387 . S
C436 C439 1.387 . S
H437 C433 0.950 . S
H438 C435 0.950 . S
C439 C430 1.390 . S
C439 H432 0.950 . S
C439 C436 1.387 . S
C440 C441 1.387 . S
C440 H444 0.950 . S
C440 C449 1.390 . S
C441 C440 1.387 . S
C441 C443 1.387 . S
H442 C449 0.950 . S
C443 C441 1.387 . S
C443 C445 1.390 . S
C443 H447 0.950 . S
H444 C440 0.950 . S
C445 C443 1.390 . S
C445 C446 1.387 . S
C445 H448 0.950 . S
C446 C445 1.387 . S
C446 C449 1.387 . S
H447 C443 0.950 . S
H448 C445 0.950 . S
C449 C440 1.390 . S
C449 H442 0.950 . S
C449 C446 1.387 . S
C450 C451 1.387 . S
C450 H454 0.950 . S
C450 C459 1.390 . S
C451 C450 1.387 . S
C451 C453 1.387 . S
H452 C459 0.950 . S
C453 C451 1.387 . S
C453 C455 1.390 . S
C453 H457 0.927 1_554 S
H454 C450 0.950 . S
C455 C453 1.390 . S
C455 C456 1.387 . S
C455 H458 0.950 . S
C456 C455 1.387 . S
C456 C459 1.387 . S
H457 C453 0.927 1_556 S
H458 C455 0.950 . S
C459 C450 1.390 . S
C459 H452 0.950 . S
C459 C456 1.387 . S
C460 C461 1.387 . S
C460 H464 0.950 . S
C460 C469 1.390 . S
C461 C460 1.387 . S
C461 C463 1.387 . S
H462 C469 0.950 . S
C463 C461 1.387 . S
C463 C465 1.390 . S
C463 H467 0.950 . S
H464 C460 0.950 . S
C465 C463 1.390 . S
C465 C466 1.387 . S
C465 H468 0.950 . S
C466 C465 1.387 . S
C466 C469 1.387 . S
H467 C463 0.950 . S
H468 C465 0.950 . S
C469 C460 1.390 . S
C469 H462 0.950 . S
C469 C466 1.387 . S
C470 C471 1.387 . S
C470 H474 0.950 . S
C470 C479 1.390 . S
C471 C470 1.387 . S
C471 C473 1.387 . S
H472 C479 0.950 . S
C473 C471 1.387 . S
C473 C475 1.390 . S
C473 H477 0.950 . S
H474 C470 0.950 . S
C475 C473 1.390 . S
C475 C476 1.387 . S
C475 H478 0.950 . S
C476 C475 1.387 . S
C476 C479 1.387 . S
H477 C473 0.950 . S
H478 C475 0.950 . S
C479 C470 1.390 . S
C479 H472 0.950 . S
C479 C476 1.387 . S
C480 C481 1.387 . S
C480 H484 0.950 . S
C480 C489 1.390 . S
C481 C480 1.387 . S
C481 C483 1.387 . S
H482 C489 0.950 . S
C483 C481 1.387 . S
C483 C485 1.390 . S
C483 H487 0.950 . S
H484 C480 0.950 . S
C485 C483 1.390 . S
C485 C486 1.387 . S
C485 H488 0.950 . S
C486 C485 1.387 . S
C486 C489 1.387 . S
H487 C483 0.950 . S
H488 C485 0.950 . S
C489 C480 1.390 . S
C489 H482 0.950 . S
C489 C486 1.387 . S
C490 C491 1.387 . S
C490 H494 0.950 . S
C490 C499 1.390 . S
C491 C490 1.387 . S
C491 C493 1.387 . S
H492 C499 0.950 . S
C493 C491 1.387 . S
C493 C495 1.390 . S
C493 H497 0.950 . S
H494 C490 0.950 . S
C495 C493 1.390 . S
C495 C496 1.387 . S
C495 H498 0.950 . S
C496 C495 1.387 . S
C496 C499 1.387 . S
H497 C493 0.950 . S
H498 C495 0.950 . S
C499 C490 1.390 . S
C499 H492 0.950 . S
C499 C496 1.387 . S
C500 C501 1.387 . S
C500 H504 0.950 . S
C500 C509 1.390 . S
C501 C500 1.387 . S
C501 C503 1.387 . S
H502 C509 0.950 . S
C503 C501 1.387 . S
C503 C505 1.390 . S
C503 H507 0.950 . S
H504 C500 0.950 . S
C505 C503 1.390 . S
C505 C506 1.387 . S
C505 H508 0.950 . S
C506 C505 1.387 . S
C506 C509 1.387 . S
H507 C503 0.950 . S
H508 C505 0.950 . S
C509 C500 1.390 . S
C509 H502 0.950 . S
C509 C506 1.387 . S
C510 C511 1.387 . S
C510 H514 0.950 . S
C510 C519 1.390 . S
C511 C510 1.387 . S
C511 C513 1.387 . S
H512 C519 0.950 1_554 S
C513 C511 1.387 . S
C513 C515 1.390 . S
C513 H517 0.950 . S
H514 C510 0.950 . S
C515 C513 1.390 . S
C515 C516 1.375 1_556 S
C515 H518 0.950 . S
C516 C515 1.375 1_554 S
C516 C519 1.386 1_554 S
H517 C513 0.950 . S
H518 C515 0.950 . S
C519 C510 1.390 . S
C519 H512 0.950 1_556 S
C519 C516 1.386 1_556 S
C520 C521 1.387 . S
C520 H524 0.950 . S
C520 C529 1.390 . S
C521 C520 1.387 . S
C521 C523 1.387 . S
H522 C529 0.950 . S
C523 C521 1.387 . S
C523 C525 1.390 . S
C523 H527 0.950 . S
H524 C520 0.950 . S
C525 C523 1.390 . S
C525 C526 1.387 . S
C525 H528 0.950 . S
C526 C525 1.387 . S
C526 C529 1.387 . S
H527 C523 0.950 . S
H528 C525 0.950 . S
C529 C520 1.390 . S
C529 H522 0.950 . S
C529 C526 1.387 . S
C530 C531 1.387 . S
C530 H534 0.950 . S
C530 C539 1.390 . S
C531 C530 1.387 . S
C531 C533 1.387 . S
H532 C539 0.950 . S
C533 C531 1.387 . S
C533 C535 1.390 . S
C533 H537 0.950 . S
H534 C530 0.950 . S
C535 C533 1.390 . S
C535 C536 1.387 . S
C535 H538 0.950 . S
C536 C535 1.387 . S
C536 C539 1.387 . S
H537 C533 0.950 . S
H538 C535 0.950 . S
C539 C530 1.390 . S
C539 H532 0.950 . S
C539 C536 1.387 . S
C540 C541 1.387 . S
C540 H544 0.950 . S
C540 C549 1.390 . S
C541 C540 1.387 . S
C541 C543 1.387 . S
H542 C549 0.950 . S
C543 C541 1.387 . S
C543 C545 1.390 . S
C543 H547 0.950 . S
H544 C540 0.950 . S
C545 C543 1.390 . S
C545 C546 1.387 . S
C545 H548 0.950 . S
C546 C545 1.387 . S
C546 C549 1.387 . S
H547 C543 0.950 . S
H548 C545 0.950 . S
C549 C540 1.390 . S
C549 H542 0.950 . S
C549 C546 1.387 . S
C550 C551 1.387 . S
C550 H554 0.950 . S
C550 C559 1.390 . S
C551 C550 1.387 . S
C551 C553 1.387 . S
H552 C559 0.950 . S
C553 C551 1.387 . S
C553 C555 1.390 . S
C553 H557 0.950 . S
H554 C550 0.950 . S
C555 C553 1.390 . S
C555 C556 1.387 . S
C555 H558 0.950 . S
C556 C555 1.387 . S
C556 C559 1.387 . S
H557 C553 0.950 . S
H558 C555 0.950 . S
C559 C550 1.390 . S
C559 H552 0.950 . S
C559 C556 1.387 . S
C560 C561 1.387 . S
C560 H564 0.950 . S
C560 C569 1.390 . S
C561 C560 1.387 . S
C561 C563 1.387 . S
H562 C569 0.950 . S
C563 C561 1.387 . S
C563 C565 1.390 . S
C563 H567 0.950 . S
H564 C560 0.950 . S
C565 C563 1.390 . S
C565 C566 1.387 . S
C565 H568 0.950 . S
C566 C565 1.387 . S
C566 C569 1.387 . S
H567 C563 0.950 . S
H568 C565 0.950 . S
C569 C560 1.390 . S
C569 H562 0.950 . S
C569 C566 1.387 . S
C570 C571 1.387 . S
C570 H574 0.950 . S
C570 C579 1.390 . S
C571 C570 1.387 . S
C571 C573 1.387 . S
H572 C579 0.950 . S
C573 C571 1.387 . S
C573 C575 1.390 . S
C573 H577 0.950 . S
H574 C570 0.950 . S
C575 C573 1.390 . S
C575 C576 1.387 . S
C575 H578 0.950 . S
C576 C575 1.387 . S
C576 C579 1.387 . S
H577 C573 0.950 . S
H578 C575 0.950 . S
C579 C570 1.390 . S
C579 H572 0.950 . S
C579 C576 1.387 . S
C580 C581 1.387 1_556 S
C580 H584 0.950 . S
C580 C589 1.390 . S
C581 C580 1.387 1_554 S
C581 C583 1.387 . S
H582 C589 0.950 . S
C583 C581 1.387 . S
C583 C585 1.390 1_554 S
C583 H587 0.950 . S
H584 C580 0.950 . S
C585 C583 1.390 1_556 S
C585 C586 1.387 . S
C585 H588 0.950 . S
C586 C585 1.387 . S
C586 C589 1.387 . S
H587 C583 0.950 . S
H588 C585 0.950 . S
C589 C580 1.390 . S
C589 H582 0.950 . S
C589 C586 1.387 . S
C590 C591 1.387 . S
C590 H594 0.950 . S
C590 C599 1.390 . S
C591 C590 1.387 . S
C591 C593 1.387 . S
H592 C599 0.950 . S
C593 C591 1.387 . S
C593 C595 1.390 . S
C593 H597 0.950 . S
H594 C590 0.950 . S
C595 C593 1.390 . S
C595 C596 1.387 . S
C595 H598 0.950 . S
C596 C595 1.387 . S
C596 C599 1.387 . S
H597 C593 0.950 . S
H598 C595 0.950 . S
C599 C590 1.390 . S
C599 H592 0.950 . S
C599 C596 1.387 . S
C366 C351 1.319 . S
C361 C15 1.575 . S
C371 C61 1.602 . S
C376 C281 1.343 . S
C381 C114 1.582 . S
C386 C301 1.649 . S
C391 C139 1.549 . S
C396 C315 1.587 . S
C406 C323 1.290 . S
C401 C185 1.576 . S
C411 C245 1.557 . S
C416 C337 1.287 . S
C421 C47 1.614 . S
C426 C295 1.327 . S
C431 C100 1.575 . S
C436 C309 1.297 . S
C441 C153 1.517 . S
C446 C329 1.576 . S
C456 C343 1.628 . S
C451 C199 1.561 . S
C466 C357 1.628 . S
C461 C231 1.588 . S
C476 C287 1.644 . S
C471 C1 1.603 . S
C481 C22 1.464 . S
C486 C294 1.450 . S
C491 C68 1.471 . S
C496 C308 1.455 . S
C506 C330 1.470 . S
C501 C107 1.469 . S
C511 C146 1.482 . S
C516 C344 1.496 . S
C526 C358 1.446 . S
C521 C192 1.448 . S
C536 C288 1.440 . S
C531 C252 1.437 . S
C546 C350 1.441 . S
C541 C54 1.462 . S
C551 C93 1.467 . S
C556 C280 1.446 . S
C566 C302 1.467 . S
C561 C160 1.463 . S
C571 C206 1.466 . S
C576 C316 1.467 . S
C581 C238 1.506 . S
C586 C322 1.488 . S
C591 C8 1.493 . S
C596 C336 1.475 . S
