# Generated by pormake.
# Topology anh, (6,3)-cn, num edge types: 1
# Building blocks:
#     Node 0, Type 0, BuildingBlock: GEDQOX_clean_sbu_0, # of connection points: 6
#     Node 1, Type 0, BuildingBlock: GEDQOX_clean_sbu_0, # of connection points: 6
#     Node 2, Type 0, BuildingBlock: GEDQOX_clean_sbu_0, # of connection points: 6
#     Node 3, Type 1, BuildingBlock: VETTIZ_charged_linker_0, # of connection points: 3
#     Node 4, Type 1, BuildingBlock: VETTIZ_charged_linker_0, # of connection points: 3
#     Node 5, Type 1, BuildingBlock: VETTIZ_charged_linker_0, # of connection points: 3
#     Node 6, Type 1, BuildingBlock: VETTIZ_charged_linker_0, # of connection points: 3
#     Node 7, Type 1, BuildingBlock: VETTIZ_charged_linker_0, # of connection points: 3
#     Node 8, Type 1, BuildingBlock: VETTIZ_charged_linker_0, # of connection points: 3
#     Edge 9, Type (0, 1), BuildingBlock: KIFKEQ_clean_linker_1, # of connection points: 2
#     Edge 10, Type (0, 1), BuildingBlock: KIFKEQ_clean_linker_1, # of connection points: 2
#     Edge 11, Type (0, 1), BuildingBlock: KIFKEQ_clean_linker_1, # of connection points: 2
#     Edge 12, Type (0, 1), BuildingBlock: KIFKEQ_clean_linker_1, # of connection points: 2
#     Edge 13, Type (0, 1), BuildingBlock: KIFKEQ_clean_linker_1, # of connection points: 2
#     Edge 14, Type (0, 1), BuildingBlock: KIFKEQ_clean_linker_1, # of connection points: 2
#     Edge 15, Type (0, 1), BuildingBlock: KIFKEQ_clean_linker_1, # of connection points: 2
#     Edge 16, Type (0, 1), BuildingBlock: KIFKEQ_clean_linker_1, # of connection points: 2
#     Edge 17, Type (0, 1), BuildingBlock: KIFKEQ_clean_linker_1, # of connection points: 2
#     Edge 18, Type (0, 1), BuildingBlock: KIFKEQ_clean_linker_1, # of connection points: 2
#     Edge 19, Type (0, 1), BuildingBlock: KIFKEQ_clean_linker_1, # of connection points: 2
#     Edge 20, Type (0, 1), BuildingBlock: KIFKEQ_clean_linker_1, # of connection points: 2
#     Edge 21, Type (0, 1), BuildingBlock: KIFKEQ_clean_linker_1, # of connection points: 2
#     Edge 22, Type (0, 1), BuildingBlock: KIFKEQ_clean_linker_1, # of connection points: 2
#     Edge 23, Type (0, 1), BuildingBlock: KIFKEQ_clean_linker_1, # of connection points: 2
#     Edge 24, Type (0, 1), BuildingBlock: KIFKEQ_clean_linker_1, # of connection points: 2
#     Edge 25, Type (0, 1), BuildingBlock: KIFKEQ_clean_linker_1, # of connection points: 2
#     Edge 26, Type (0, 1), BuildingBlock: KIFKEQ_clean_linker_1, # of connection points: 2
# Relax obj value: 0.181
# Max RMSD: 0.211
# Mean RMSD: 0.159
data_MOF--net-anh--node1-GEDQOX_clean_sbu_0--node2-VETTIZ_charged_linker_0--edge1-KIFKEQ_clean_linker_1
_symmetry_space_group_name_H-M    P1
_symmetry_Int_Tables_number       1
_symmetry_cell_setting            triclinic
loop_
_symmetry_equiv_pos_as_xyz
'x, y, z'
_cell_length_a     36.312627
_cell_length_b     35.376984
_cell_length_c     68.012138
_cell_angle_alpha  92.690222
_cell_angle_beta   91.015206
_cell_angle_gamma 104.96021
loop_
_atom_site_label
_atom_site_type_symbol
_atom_site_fract_x
_atom_site_fract_y
_atom_site_fract_z
_atom_type_partial_charge
Nd0 Nd 0.0988 0.55939 0.14958 0.0
Nd1 Nd 0.07859 0.47261 0.15563 0.0
C2 C 0.12837 0.63019 0.137 0.0
C3 C 0.16551 0.65913 0.1394 0.0
C4 C 0.17257 0.69369 0.12925 0.0
C5 C 0.20735 0.72206 0.13211 0.0
C6 C 0.23567 0.71625 0.14518 0.0
C7 C 0.22861 0.68109 0.15503 0.0
C8 C 0.19381 0.65284 0.15219 0.0
C9 C 0.09054 0.54134 0.18813 0.0
C10 C 0.16926 0.51448 0.15492 0.0
C11 C 1.05005 0.40074 0.16712 0.0
C12 C 1.0124 0.37303 0.16924 0.0
C13 C 0.98282 0.38439 0.17894 0.0
C14 C 0.94789 0.35714 0.18139 0.0
C15 C 0.94164 0.31802 0.17404 0.0
C16 C 0.97109 0.30712 0.1639 0.0
C17 C 1.0061 0.3343 0.1616 0.0
C18 C 0.08831 0.49243 0.1173 0.0
C19 C 1.00847 0.5177 0.15147 0.0
O20 O 0.12793 0.59793 0.12665 0.0
O21 O 0.10852 0.62378 0.15292 0.0
O22 O 0.07975 0.57005 0.18075 0.0
O23 O 0.10706 0.52468 0.17558 0.0
O24 O 0.15845 0.54554 0.14931 0.0
O25 O 0.14372 0.48279 0.1601 0.0
O26 O 1.0592 0.43178 0.17927 0.0
O27 O 1.06064 0.40827 0.14914 0.0
O28 O 0.10051 0.46449 0.12462 0.0
O29 O 1.07053 0.5076 0.12981 0.0
O30 O 1.01935 0.48724 0.15787 0.0
O31 O 1.03378 0.54808 0.14484 0.0
H32 H 0.15104 0.69892 0.11927 0.0
H33 H 0.21203 0.74859 0.12413 0.0
H34 H 0.24952 0.67587 0.16539 0.0
H35 H 0.18871 0.62637 0.16024 0.0
H36 H 0.9868 0.41418 0.18487 0.0
H37 H 0.92615 0.36658 0.18949 0.0
H38 H 0.96715 0.27754 0.15771 0.0
H39 H 1.02842 0.32498 0.15394 0.0
Nd40 Nd 0.5274 0.99335 0.51536 0.0
Nd41 Nd 0.61708 0.01662 0.50732 0.0
C42 C 0.46194 0.96888 0.53281 0.0
C43 C 0.42764 0.93556 0.52938 0.0
C44 C 0.42404 0.90071 0.5392 0.0
C45 C 0.3931 0.86824 0.53489 0.0
C46 C 0.36502 0.86995 0.5207 0.0
C47 C 0.36784 0.90532 0.5115 0.0
C48 C 0.3987 0.93775 0.51581 0.0
C49 C 0.53913 0.9896 0.47545 0.0
C50 C 0.57353 0.92436 0.50713 0.0
C51 C 0.68797 0.04596 0.49677 0.0
C52 C 0.7138 0.08381 0.49217 0.0
C53 C 0.70333 0.10826 0.47862 0.0
C54 C 0.72893 0.14372 0.47443 0.0
C55 C 0.7652 0.15546 0.48387 0.0
C56 C 0.77518 0.13123 0.49768 0.0
C57 C 0.74978 0.09572 0.50172 0.0
C58 C 0.59532 1.00329 0.54526 0.0
C59 C 0.56992 0.08586 0.51094 0.0
O60 O 0.49335 0.96027 0.53863 0.0
O61 O 0.46795 0.99606 0.51986 0.0
O62 O 0.5054 0.98124 0.48282 0.0
O63 O 0.56372 0.99857 0.48922 0.0
O64 O 0.54422 0.93466 0.51509 0.0
O65 O 0.60353 0.95023 0.50069 0.0
O66 O 0.66005 0.0296 0.48413 0.0
O67 O 0.67803 0.04258 0.51512 0.0
O68 O 0.62338 0.99191 0.53754 0.0
O69 O 0.58072 0.02168 0.53324 0.0
O70 O 0.60127 0.07585 0.5056 0.0
O71 O 0.53936 0.06021 0.51697 0.0
H72 H 0.4456 0.8982 0.54991 0.0
H73 H 0.39186 0.8414 0.54218 0.0
H74 H 0.34627 0.90787 0.5008 0.0
H75 H 0.40016 0.96429 0.5082 0.0
H76 H 0.67555 0.09994 0.47121 0.0
H77 H 0.72038 0.16198 0.46383 0.0
H78 H 0.80307 0.13922 0.50498 0.0
H79 H 0.75838 0.07731 0.51225 0.0
Nd80 Nd 0.53775 0.51989 0.8321 0.0
Nd81 Nd 0.62038 0.54138 0.84347 0.0
C82 C 0.47291 0.52175 0.81482 0.0
C83 C 0.45386 0.55374 0.81534 0.0
C84 C 0.4366 0.56303 0.79825 0.0
C85 C 0.42192 0.59599 0.79843 0.0
C86 C 0.42463 0.62025 0.81569 0.0
C87 C 0.44185 0.61058 0.83274 0.0
C88 C 0.45647 0.57788 0.83254 0.0
C89 C 0.55159 0.51796 0.87159 0.0
C90 C 0.58317 0.61339 0.84296 0.0
C91 C 0.6895 0.54369 0.85672 0.0
C92 C 0.71712 0.52171 0.85039 0.0
C93 C 0.71145 0.48174 0.85393 0.0
C94 C 0.73638 0.46082 0.84639 0.0
C95 C 0.76704 0.47939 0.83501 0.0
C96 C 0.77283 0.51933 0.83165 0.0
C97 C 0.7483 0.54031 0.83936 0.0
C98 C 0.60531 0.54092 0.80379 0.0
C99 C 0.57359 0.44723 0.8357 0.0
O100 O 0.50522 0.52933 0.80571 0.0
O101 O 0.47462 0.50488 0.83144 0.0
O102 O 0.52404 0.49277 0.86192 0.0
O103 O 0.56924 0.54426 0.86078 0.0
O104 O 0.55445 0.58789 0.83354 0.0
O105 O 0.61135 0.60193 0.85113 0.0
O106 O 0.65869 0.52415 0.86511 0.0
O107 O 0.68255 0.56799 0.84414 0.0
O108 O 0.63194 0.56746 0.81311 0.0
O109 O 0.58879 0.51536 0.81515 0.0
O110 O 0.60349 0.47333 0.84389 0.0
O111 O 0.54509 0.45813 0.82745 0.0
H112 H 0.43497 0.54513 0.78473 0.0
H113 H 0.40873 0.60265 0.78508 0.0
H114 H 0.44361 0.62799 0.84643 0.0
H115 H 0.47029 0.57179 0.84584 0.0
H116 H 0.68762 0.46649 0.86234 0.0
H117 H 0.7316 0.43013 0.84934 0.0
H118 H 0.79686 0.53462 0.82336 0.0
H119 H 0.75349 0.57108 0.83648 0.0
C120 C 0.68053 0.09558 0.20887 0.0
C121 C 0.70935 0.12358 0.21965 0.0
C122 C 0.70954 0.12435 0.24038 0.0
C123 C 0.6526 0.07051 0.2394 0.0
C124 C 0.65227 0.0696 0.21905 0.0
C125 C 0.61839 0.03909 0.21009 0.0
H126 H 0.45301 0.9016 0.22419 0.0
C127 C 0.61906 0.04048 0.24553 0.0
C128 C 0.59861 0.02202 0.22843 0.0
H129 H 0.50203 0.93845 0.1686 0.0
H130 H 0.55666 0.98256 0.18585 0.0
H131 H 0.53042 0.89505 0.24451 0.0
H132 H 0.47053 0.98509 0.24558 0.0
H133 H 0.48838 0.98436 0.26966 0.0
H134 H 0.45498 0.94126 0.25873 0.0
H135 H 0.48828 0.89187 0.25839 0.0
H136 H 0.53519 0.91522 0.26877 0.0
C137 C 0.63323 1.00851 0.19779 0.0
C138 C 0.59377 0.06022 0.19814 0.0
C139 C 0.59595 0.02187 0.31852 0.0
C140 C 0.56595 0.99793 0.32858 0.0
C141 C 0.53575 0.97194 0.31768 0.0
C142 C 0.53514 0.96997 0.2971 0.0
C143 C 0.56493 0.99446 0.28719 0.0
C144 C 0.59469 0.01984 0.29786 0.0
C145 C 0.62312 0.04449 0.28472 0.0
C146 C 0.60572 0.02924 0.26444 0.0
C147 C 0.57175 0.99997 0.26605 0.0
C148 C 0.662 0.03508 0.2882 0.0
C149 C 0.62363 0.0881 0.28908 0.0
C150 C 0.47533 0.91941 0.2157 0.0
C151 C 0.47297 0.917 0.19503 0.0
C152 C 0.50319 0.93988 0.18455 0.0
C153 C 0.53474 0.96557 0.1946 0.0
C154 C 0.53616 0.96824 0.21533 0.0
C155 C 0.5069 0.94489 0.22545 0.0
C156 C 0.51313 0.95053 0.24736 0.0
C157 C 0.55072 0.98162 0.24887 0.0
C158 C 0.56415 0.9922 0.23012 0.0
C159 C 0.51671 0.91122 0.25535 0.0
C160 C 0.48006 0.96585 0.25595 0.0
H161 H 0.68337 0.10012 0.26606 0.0
H162 H 0.67957 0.09451 0.19292 0.0
H163 H 0.59219 0.08793 0.2061 0.0
H164 H 0.56392 0.04295 0.19587 0.0
H165 H 0.60612 0.06777 0.18356 0.0
H166 H 0.65856 1.00262 0.20523 0.0
H167 H 0.64184 0.0191 0.18301 0.0
H168 H 0.61218 0.97974 0.19599 0.0
H169 H 0.61931 0.04242 0.32654 0.0
H170 H 0.51253 0.95297 0.32515 0.0
H171 H 0.51126 0.94963 0.28973 0.0
H172 H 0.65799 1.0031 0.28971 0.0
H173 H 0.67659 0.05052 0.30191 0.0
H174 H 0.68136 0.04252 0.27583 0.0
H175 H 0.59574 0.09102 0.29455 0.0
H176 H 0.62808 0.10533 0.27578 0.0
H177 H 0.64583 0.10224 0.30048 0.0
H178 H 0.73171 0.1453 0.24897 0.0
C179 C 0.6815 0.09796 0.25028 0.0
C180 C 0.57961 0.61698 0.52935 0.0
C181 C 0.58039 0.65365 0.5388 0.0
C182 C 0.58563 0.6584 0.55939 0.0
C183 C 0.58572 0.59042 0.56126 0.0
C184 C 0.58217 0.58555 0.54095 0.0
C185 C 0.58042 0.54367 0.53405 0.0
H186 H 0.56803 0.35637 0.56066 0.0
C187 C 0.58468 0.5523 0.56938 0.0
C188 C 0.58146 0.52429 0.55361 0.0
H189 H 0.57395 0.39553 0.50136 0.0
H190 H 0.57867 0.46235 0.51412 0.0
H191 H 0.63348 0.42735 0.57893 0.0
H192 H 0.51132 0.40207 0.57582 0.0
H193 H 0.52488 0.42703 0.59874 0.0
H194 H 0.53594 0.38071 0.59351 0.0
H195 H 0.60298 0.39073 0.5929 0.0
H196 H 0.61928 0.44098 0.60216 0.0
C197 C 0.61614 0.54404 0.52201 0.0
C198 C 0.54256 0.52632 0.52234 0.0
C199 C 0.58652 0.5428 0.64375 0.0
C200 C 0.58156 0.51092 0.65586 0.0
C201 C 0.5755 0.47282 0.6472 0.0
C202 C 0.57491 0.46657 0.62671 0.0
C203 C 0.58002 0.49873 0.6147 0.0
C204 C 0.58521 0.53596 0.62327 0.0
C205 C 0.58785 0.56624 0.60822 0.0
C206 C 0.58429 0.54111 0.58917 0.0
C207 C 0.58017 0.50184 0.59309 0.0
C208 C 0.62768 0.59571 0.6108 0.0
C209 C 0.55362 0.58466 0.61088 0.0
C210 C 0.56995 0.37911 0.55031 0.0
C211 C 0.57002 0.37047 0.52999 0.0
C212 C 0.57373 0.4014 0.51713 0.0
C213 C 0.57639 0.44009 0.52455 0.0
C214 C 0.57573 0.44794 0.54505 0.0
C215 C 0.57286 0.41742 0.55742 0.0
C216 C 0.57339 0.43009 0.57872 0.0
C217 C 0.57744 0.47345 0.57738 0.0
C218 C 0.57848 0.48428 0.55767 0.0
C219 C 0.60888 0.42175 0.58888 0.0
C220 C 0.53461 0.40884 0.58732 0.0
H221 H 0.59189 0.63307 0.58619 0.0
H222 H 0.57589 0.61264 0.5135 0.0
H223 H 0.5183 0.5325 0.5305 0.0
H224 H 0.53606 0.49422 0.51995 0.0
H225 H 0.54314 0.53934 0.50776 0.0
H226 H 0.64193 0.56418 0.52933 0.0
H227 H 0.61304 0.55419 0.507 0.0
H228 H 0.6223 0.51511 0.52073 0.0
H229 H 0.59064 0.57234 0.65008 0.0
H230 H 0.57176 0.44792 0.65634 0.0
H231 H 0.57055 0.43689 0.62105 0.0
H232 H 0.64986 0.58037 0.61453 0.0
H233 H 0.62803 0.61807 0.62287 0.0
H234 H 0.63744 0.61065 0.59721 0.0
H235 H 0.52938 0.5645 0.61796 0.0
H236 H 0.54129 0.59048 0.5967 0.0
H237 H 0.56183 0.61226 0.62026 0.0
H238 H 0.58705 0.68646 0.56693 0.0
C239 C 0.5884 0.62725 0.57059 0.0
C240 C 0.20833 0.67858 0.85984 0.0
C241 C 0.23679 0.70545 0.87135 0.0
C242 C 0.23271 0.70792 0.89195 0.0
C243 C 0.17656 0.65287 0.88925 0.0
C244 C 0.1789 0.65264 0.86901 0.0
C245 C 0.14926 0.61967 0.85877 0.0
H246 H 0.99828 0.46377 0.8646 0.0
C247 C 0.14553 0.61865 0.89407 0.0
C248 C 0.12945 0.59928 0.87621 0.0
H249 H 1.0482 0.51744 0.81214 0.0
H250 H 0.0981 0.56188 0.83202 0.0
H251 H 0.08097 0.46534 0.88671 0.0
H252 H 1.00253 0.53776 0.8889 0.0
H253 H 1.01903 0.53663 0.91322 0.0
H254 H 0.99331 0.49162 0.90027 0.0
H255 H 1.03658 0.45171 0.89902 0.0
H256 H 0.07959 0.48078 0.91149 0.0
C257 C 0.16975 0.59329 0.84667 0.0
C258 C 0.12256 0.63781 0.84641 0.0
C259 C 0.12281 0.5821 0.96527 0.0
C260 C 0.09739 0.55042 0.97372 0.0
C261 C 1.07003 0.52369 0.96147 0.0
C262 C 1.06881 0.52746 0.94114 0.0
C263 C 0.09519 0.55835 0.93282 0.0
C264 C 0.12122 0.58545 0.94481 0.0
C265 C 0.14691 0.61634 0.93316 0.0
C266 C 0.13238 0.60269 0.91224 0.0
C267 C 0.10228 0.56857 0.91222 0.0
C268 C 0.18851 0.61409 0.9367 0.0
C269 C 0.13983 0.65652 0.93928 0.0
C270 C 1.02066 0.48408 0.85726 0.0
C271 C 1.01914 0.48711 0.83672 0.0
C272 C 1.04851 0.51473 0.82793 0.0
C273 C 0.07725 0.54074 0.83954 0.0
C274 C 0.07664 0.53914 0.86016 0.0
C275 C 1.04933 0.51038 0.86862 0.0
C276 C 1.05261 0.51334 0.89073 0.0
C277 C 0.0856 0.54952 0.89418 0.0
C278 C 0.09945 0.56452 0.87627 0.0
C279 C 1.06269 0.47588 0.89752 0.0
C280 C 1.01495 0.5199 0.89886 0.0
H281 H 0.20195 0.68409 0.91672 0.0
H282 H 0.21052 0.67513 0.84404 0.0
H283 H 0.11818 0.66469 0.85411 0.0
H284 H 0.0936 0.61823 0.84404 0.0
H285 H 0.13482 0.64618 0.83191 0.0
H286 H 0.19698 0.59238 0.85417 0.0
H287 H 0.17663 0.60437 0.83181 0.0
H288 H 0.15312 0.56234 0.84507 0.0
H289 H 0.1442 0.60311 0.97427 0.0
H290 H 1.04951 0.49961 0.96764 0.0
H291 H 1.04749 0.50591 0.93269 0.0
H292 H 0.18994 0.58304 0.9366 0.0
H293 H 0.20013 0.62838 0.9512 0.0
H294 H 0.20783 0.62743 0.92516 0.0
H295 H 0.10936 0.65333 0.94272 0.0
H296 H 0.14554 0.67729 0.92739 0.0
H297 H 0.15732 0.67 0.9526 0.0
H298 H 0.25385 0.7287 0.90119 0.0
C299 C 0.20271 0.6818 0.90096 0.0
C300 C 0.99594 0.41304 0.45168 0.0
C301 C 0.97203 0.38184 0.44012 0.0
C302 C 0.97493 0.3814 0.41948 0.0
C303 C 1.02548 0.44129 0.42212 0.0
C304 C 1.02251 0.4424 0.44235 0.0
C305 C 1.0506 0.47771 0.45212 0.0
H306 H 0.18864 0.64619 0.44127 0.0
C307 C 1.05587 0.47544 0.4169 0.0
C308 C 1.07093 0.49709 0.43437 0.0
H309 H 0.14152 0.60026 0.49574 0.0
H310 H 0.10153 0.54292 0.47768 0.0
H311 H 0.19919 0.56655 0.42313 0.0
H312 H 0.11039 0.62545 0.41609 0.0
H313 H 0.11955 0.6079 0.39258 0.0
H314 H 0.15709 0.64269 0.40644 0.0
H315 H 0.20422 0.60697 0.40754 0.0
H316 H 0.18319 0.55708 0.39846 0.0
C317 C 0.07785 0.46322 0.46588 0.0
C318 C 1.02778 0.50353 0.46272 0.0
C319 C 0.08434 0.49666 0.34482 0.0
C320 C 0.11041 0.52594 0.3352 0.0
C321 C 0.13652 0.55567 0.34661 0.0
C322 C 0.1359 0.55688 0.36721 0.0
C323 C 0.10886 0.5281 0.37658 0.0
C324 C 0.08415 0.49831 0.36541 0.0
C325 C 1.05768 0.47002 0.37789 0.0
C326 C 1.07033 0.48803 0.3984 0.0
C327 C 0.10003 0.52213 0.39752 0.0
C328 C 1.06587 0.42931 0.37452 0.0
C329 C 1.01621 0.47106 0.37258 0.0
C330 C 0.16946 0.62395 0.44931 0.0
C331 C 0.16764 0.62795 0.46986 0.0
C332 C 0.14318 0.59782 0.47986 0.0
C333 C 0.11993 0.56474 0.46935 0.0
C334 C 0.12148 0.56172 0.44866 0.0
C335 C 0.14645 0.5909 0.43911 0.0
C336 C 0.14534 0.58296 0.41723 0.0
C337 C 0.11499 0.54451 0.41504 0.0
C338 C 0.10081 0.53207 0.43343 0.0
C339 C 0.18499 0.57838 0.4111 0.0
C340 C 0.1327 0.61645 0.40741 0.0
H341 H 1.00209 0.40839 0.39472 0.0
H342 H 0.99444 0.41424 0.46758 0.0
H343 H 1.00277 0.5052 0.45344 0.0
H344 H 1.04446 0.53413 0.46563 0.0
H345 H 1.01696 0.49121 0.47687 0.0
H346 H 0.0852 0.43703 0.45904 0.0
H347 H 1.06446 0.45489 0.48015 0.0
H348 H 0.10541 0.48509 0.46876 0.0
H349 H 1.06365 0.47359 0.33654 0.0
H350 H 0.15735 0.5782 0.33959 0.0
H351 H 0.1562 0.58053 0.375 0.0
H352 H 0.09646 0.4323 0.37145 0.0
H353 H 1.04874 0.41245 0.36178 0.0
H354 H 1.06065 0.41156 0.38762 0.0
H355 H 1.01507 0.50096 0.3687 0.0
H356 H 0.99678 0.46418 0.38498 0.0
H357 H 1.00437 0.45069 0.35975 0.0
H358 H 0.95631 0.35837 0.41017 0.0
C359 C 1.00147 0.41072 0.41047 0.0
C360 C 0.58561 0.92209 0.81937 0.0
C361 C 0.58592 0.88557 0.81011 0.0
C362 C 0.58872 0.88259 0.78953 0.0
C363 C 0.58771 0.95028 0.78731 0.0
C364 C 0.58632 0.95416 0.8076 0.0
C365 C 0.58449 0.99512 0.81432 0.0
H366 H 0.56772 0.17399 0.7869 0.0
C367 C 0.58532 0.98733 0.77901 0.0
C368 C 0.58328 0.01413 0.79467 0.0
H369 H 0.57799 0.14003 0.84648 0.0
H370 H 0.58275 0.07565 0.83401 0.0
H371 H 0.63221 0.13771 0.76953 0.0
H372 H 0.51033 0.09816 0.77149 0.0
H373 H 0.52179 0.07874 0.74892 0.0
H374 H 0.53337 0.13124 0.75361 0.0
H375 H 0.60037 0.15758 0.75523 0.0
H376 H 0.61612 0.1159 0.74617 0.0
C377 C 0.6212 0.01482 0.82657 0.0
C378 C 0.54759 0.99213 0.82575 0.0
C379 C 0.58094 0.99568 0.70449 0.0
C380 C 0.57506 0.02465 0.69217 0.0
C381 C 0.5691 0.05946 0.70094 0.0
C382 C 0.56994 0.06572 0.72141 0.0
C383 C 0.57628 0.03673 0.73348 0.0
C384 C 0.58106 1.00221 0.72499 0.0
C385 C 0.58528 0.97388 0.74015 0.0
C386 C 0.58306 0.99757 0.75916 0.0
C387 C 0.57824 0.03437 0.7551 0.0
C388 C 0.62509 0.96591 0.73802 0.0
C389 C 0.55113 0.93693 0.73722 0.0
C390 C 0.57056 0.15271 0.79739 0.0
C391 C 0.57183 0.16199 0.81769 0.0
C392 C 0.5768 0.13359 0.83072 0.0
C393 C 0.57946 0.09626 0.82346 0.0
C394 C 0.57745 0.08742 0.80297 0.0
C395 C 0.57335 0.11588 0.79045 0.0
C396 C 0.5722 0.10281 0.76919 0.0
C397 C 0.57667 0.06178 0.77071 0.0
C398 C 0.5795 0.05223 0.79047 0.0
C399 C 0.60676 0.12987 0.75934 0.0
C400 C 0.5326 0.1029 0.76017 0.0
H401 H 0.5915 0.9099 0.76257 0.0
H402 H 0.58362 0.92516 0.8352 0.0
H403 H 0.52284 0.97209 0.81755 0.0
H404 H 0.54054 0.02052 0.8278 0.0
H405 H 0.54993 0.98043 0.84047 0.0
H406 H 0.64656 1.00879 0.81942 0.0
H407 H 0.61983 1.00347 0.84158 0.0
H408 H 0.62677 0.04699 0.82788 0.0
H409 H 0.58574 0.96857 0.69842 0.0
H410 H 0.56341 0.08194 0.69199 0.0
H411 H 0.56552 0.093 0.72701 0.0
H412 H 0.64682 0.99318 0.73469 0.0
H413 H 0.62475 0.94376 0.72585 0.0
H414 H 0.63587 0.95622 0.75168 0.0
H415 H 0.52615 0.94369 0.72986 0.0
H416 H 0.5401 0.92492 0.75132 0.0
H417 H 0.55885 0.91356 0.72799 0.0
H418 H 0.58961 0.85502 0.78214 0.0
C419 C 0.58976 0.91457 0.77816 0.0
C420 C 0.69436 0.51241 0.14322 0.0
C421 C 0.72781 0.51077 0.13283 0.0
C422 C 0.72474 0.50464 0.11226 0.0
C423 C 0.6584 0.50603 0.11206 0.0
C424 C 0.65956 0.50983 0.13239 0.0
C425 C 0.62022 0.51103 0.13988 0.0
H426 H 0.43788 0.52237 0.11225 0.0
C427 C 0.62036 0.50746 0.10456 0.0
C428 C 0.59691 0.51026 0.12064 0.0
H429 H 0.47517 0.51327 0.17195 0.0
H430 H 0.53846 0.5107 0.16025 0.0
H431 H 0.51049 0.58288 0.10039 0.0
H432 H 0.47083 0.45786 0.09368 0.0
H433 H 0.49195 0.47246 0.07136 0.0
H434 H 0.45202 0.49017 0.07927 0.0
H435 H 0.4761 0.55884 0.08159 0.0
H436 H 0.52671 0.57105 0.0774 0.0
C437 C 0.62372 0.54908 0.15252 0.0
C438 C 0.60428 0.47418 0.15139 0.0
C439 C 0.60125 0.51201 0.03041 0.0
C440 C 0.57131 0.51829 0.01873 0.0
C441 C 0.53815 0.52302 0.02779 0.0
C442 C 0.53473 0.52142 0.04819 0.0
C443 C 0.56496 0.5154 0.05981 0.0
C444 C 0.59757 0.51112 0.05088 0.0
C445 C 0.62736 0.5069 0.06561 0.0
C446 C 0.60709 0.50901 0.0849 0.0
C447 C 0.57056 0.51348 0.08133 0.0
C448 C 0.66275 0.54226 0.0639 0.0
C449 C 0.6348 0.46598 0.06151 0.0
C450 C 0.45944 0.52018 0.12305 0.0
C451 C 0.45122 0.51866 0.14306 0.0
C452 C 0.48045 0.51462 0.15635 0.0
C453 C 0.51714 0.51314 0.14958 0.0
C454 C 0.52461 0.5151 0.12926 0.0
C455 C 0.49532 0.51831 0.11661 0.0
C456 C 0.50595 0.5193 0.09558 0.0
C457 C 0.54622 0.51528 0.09716 0.0
C458 C 0.55838 0.51329 0.11688 0.0
C459 C 0.50457 0.55986 0.08818 0.0
C460 C 0.47881 0.48338 0.08422 0.0
H461 H 0.69132 0.49815 0.08631 0.0
H462 H 0.69556 0.51654 0.15911 0.0
H463 H 0.60527 0.44739 0.1424 0.0
H464 H 0.57428 0.47098 0.15521 0.0
H465 H 0.62136 0.47517 0.16521 0.0
H466 H 0.63762 0.57496 0.14416 0.0
H467 H 0.64118 0.54947 0.16615 0.0
H468 H 0.59549 0.55242 0.15684 0.0
H469 H 0.62725 0.50871 0.0238 0.0
H470 H 0.5146 0.52752 0.01901 0.0
H471 H 0.50853 0.5249 0.05405 0.0
H472 H 0.65455 0.56824 0.05847 0.0
H473 H 0.68347 0.53504 0.05349 0.0
H474 H 0.67753 0.55293 0.07822 0.0
H475 H 0.60852 0.44421 0.0557 0.0
H476 H 0.64285 0.45327 0.07498 0.0
H477 H 0.65715 0.46715 0.05046 0.0
H478 H 0.74938 0.50247 0.10394 0.0
C479 C 0.69069 0.50218 0.10197 0.0
H480 H 0.23057 0.57853 0.15254 0.0
H481 H 0.20365 0.45381 0.15905 0.0
H482 H 0.29813 0.58148 0.15308 0.0
H483 H 0.27155 0.45625 0.15867 0.0
H484 H 0.40044 0.47328 0.1683 0.0
H485 H 0.33347 0.47295 0.17323 0.0
H486 H 0.34588 0.56877 0.13464 0.0
H487 H 0.41226 0.57014 0.13069 0.0
C488 C 0.23897 0.55155 0.15396 0.0
C489 C 0.21115 0.5159 0.15564 0.0
C490 C 0.27811 0.55314 0.15414 0.0
C491 C 0.29119 0.51904 0.15568 0.0
C492 C 0.26327 0.48339 0.15768 0.0
C493 C 0.224 0.48189 0.15775 0.0
C494 C 0.38901 0.49487 0.16131 0.0
C495 C 0.41208 0.52162 0.14902 0.0
C496 C 0.35024 0.49434 0.16386 0.0
C497 C 0.33333 0.52065 0.15425 0.0
C498 C 0.35714 0.54825 0.14261 0.0
C499 C 0.39558 0.54884 0.14016 0.0
H500 H 0.81165 0.21182 0.50868 0.0
H501 H 0.78295 0.18056 0.44712 0.0
H502 H 0.86248 0.26808 0.49961 0.0
H503 H 0.83328 0.23679 0.43812 0.0
H504 H 0.95641 0.30383 0.42998 0.0
H505 H 0.90518 0.25136 0.4414 0.0
H506 H 0.87284 0.33337 0.48225 0.0
H507 H 0.92401 0.38657 0.47047 0.0
C508 C 0.81604 0.21716 0.49324 0.0
C509 C 0.79347 0.1917 0.4786 0.0
C510 C 0.84491 0.24945 0.48808 0.0
C511 C 0.85202 0.25651 0.46818 0.0
C512 C 0.82871 0.23173 0.45358 0.0
C513 C 0.79966 0.19977 0.45873 0.0
C514 C 0.93834 0.31082 0.44135 0.0
C515 C 0.94385 0.34952 0.44907 0.0
C516 C 0.909 0.28074 0.44788 0.0
C517 C 0.88463 0.28845 0.46243 0.0
C518 C 0.89122 0.32669 0.47096 0.0
C519 C 0.92056 0.35704 0.46429 0.0
H520 H 0.64464 0.67781 0.84401 0.0
H521 H 0.52181 0.64379 0.84411 0.0
H522 H 0.64355 0.74609 0.84052 0.0
H523 H 0.52052 0.71183 0.84166 0.0
H524 H 0.53105 0.81803 0.804 0.0
H525 H 0.53009 0.75428 0.81589 0.0
H526 H 0.63068 0.80648 0.85246 0.0
H527 H 0.63194 0.87082 0.83985 0.0
C528 C 0.61744 0.68509 0.84376 0.0
C529 C 0.58324 0.65538 0.84394 0.0
C530 C 0.61676 0.72429 0.84186 0.0
C531 C 0.58184 0.7346 0.8404 0.0
C532 C 0.54787 0.70498 0.84206 0.0
C533 C 0.54856 0.66592 0.84356 0.0
C534 C 0.55247 0.81602 0.81492 0.0
C535 C 0.58155 0.84932 0.821 0.0
C536 C 0.5519 0.77939 0.82186 0.0
C537 C 0.58043 0.77488 0.83515 0.0
C538 C 0.60853 0.80869 0.84205 0.0
C539 C 0.60902 0.84562 0.83506 0.0
H540 H 0.97755 0.5806 0.14978 0.0
H541 H 0.94484 0.45519 0.15382 0.0
H542 H 0.91099 0.58168 0.14984 0.0
H543 H 0.87767 0.45561 0.15263 0.0
H544 H 0.75547 0.46468 0.15829 0.0
H545 H 0.82269 0.46725 0.16529 0.0
H546 H 0.85646 0.57096 0.13184 0.0
H547 H 0.79011 0.56917 0.12605 0.0
C548 C 0.95608 0.55305 0.15045 0.0
C549 C 0.96698 0.5178 0.15161 0.0
C550 C 0.91743 0.55354 0.15035 0.0
C551 C 0.88783 0.51866 0.15094 0.0
C552 C 0.89893 0.48335 0.15239 0.0
C553 C 0.93776 0.483 0.15289 0.0
C554 C 0.77741 0.48887 0.15319 0.0
C555 C 0.76718 0.51715 0.14193 0.0
C556 C 0.81623 0.48996 0.1568 0.0
C557 C 0.84606 0.51915 0.14905 0.0
C558 C 0.8353 0.54827 0.13852 0.0
C559 C 0.79682 0.54735 0.13515 0.0
H560 H 0.32228 0.81526 0.54436 0.0
H561 H 0.33787 0.84423 0.48355 0.0
H562 H 0.2714 0.75701 0.53412 0.0
H563 H 0.28751 0.78645 0.47338 0.0
H564 H 0.17395 0.70325 0.46094 0.0
H565 H 0.21918 0.7621 0.47488 0.0
H566 H 0.26121 0.6927 0.51617 0.0
H567 H 0.21512 0.63359 0.5023 0.0
C568 C 0.31494 0.80914 0.52883 0.0
C569 C 0.33386 0.83461 0.51479 0.0
C570 C 0.28583 0.7758 0.52297 0.0
C571 C 0.27508 0.76729 0.50295 0.0
C572 C 0.29435 0.79261 0.48896 0.0
C573 C 0.32328 0.8258 0.49479 0.0
C574 C 0.1926 0.70065 0.47314 0.0
C575 C 0.1914 0.66385 0.4804 0.0
C576 C 0.21864 0.73431 0.48106 0.0
C577 C 0.24434 0.73202 0.49638 0.0
C578 C 0.24174 0.69548 0.5044 0.0
C579 C 0.2154 0.66165 0.49649 0.0
H580 H 0.6329 0.41333 0.84056 0.0
H581 H 0.51072 0.38522 0.83136 0.0
H582 H 0.63033 0.34364 0.83919 0.0
H583 H 0.50772 0.31576 0.83101 0.0
H584 H 0.52089 0.19988 0.8042 0.0
H585 H 0.52105 0.26779 0.81033 0.0
H586 H 0.61318 0.28198 0.85348 0.0
H587 H 0.61432 0.21373 0.84631 0.0
C588 C 0.60542 0.39224 0.83849 0.0
C589 C 0.57207 0.40486 0.83577 0.0
C590 C 0.60386 0.35215 0.83788 0.0
C591 C 0.56883 0.32365 0.83482 0.0
C592 C 0.53539 0.33655 0.83287 0.0
C593 C 0.53704 0.37653 0.83314 0.0
C594 C 0.54112 0.21738 0.81508 0.0
C595 C 0.56797 0.20145 0.82454 0.0
C596 C 0.54096 0.25646 0.8188 0.0
C597 C 0.56728 0.28091 0.83236 0.0
C598 C 0.5929 0.2644 0.84266 0.0
C599 C 0.59323 0.22508 0.83879 0.0
H600 H 0.5114 0.86165 0.50718 0.0
H601 H 0.63427 0.89148 0.5055 0.0
H602 H 0.51001 0.79294 0.50947 0.0
H603 H 0.63313 0.8227 0.50874 0.0
H604 H 0.62144 0.69214 0.50869 0.0
H605 H 0.6181 0.75559 0.49654 0.0
H606 H 0.52363 0.75527 0.53442 0.0
H607 H 0.52639 0.69214 0.54576 0.0
C608 C 0.53818 0.8535 0.50725 0.0
C609 C 0.57297 0.88216 0.5064 0.0
C610 C 0.53742 0.814 0.50867 0.0
C611 C 0.57149 0.80203 0.50967 0.0
C612 C 0.60626 0.83055 0.50785 0.0
C613 C 0.60697 0.87012 0.50612 0.0
C614 C 0.5993 0.70528 0.51385 0.0
C615 C 0.57417 0.6873 0.52815 0.0
C616 C 0.59767 0.74186 0.50714 0.0
C617 C 0.57076 0.76098 0.51456 0.0
C618 C 0.54441 0.74157 0.52806 0.0
C619 C 0.54605 0.70531 0.53469 0.0
H620 H 0.80301 0.4357 0.85628 0.0
H621 H 0.79522 0.47732 0.79813 0.0
H622 H 0.8619 0.41929 0.84808 0.0
H623 H 0.85393 0.45978 0.78952 0.0
H624 H 0.97441 0.41187 0.83932 0.0
H625 H 0.9062 0.39066 0.83112 0.0
H626 H 0.91481 0.49772 0.80129 0.0
H627 H 0.98204 0.51846 0.80933 0.0
C628 C 0.81306 0.43967 0.84143 0.0
C629 C 0.79529 0.45874 0.82802 0.0
C630 C 0.84682 0.43002 0.83661 0.0
C631 C 0.86326 0.43913 0.81824 0.0
C632 C 0.84254 0.45332 0.80395 0.0
C633 C 0.809 0.46338 0.80886 0.0
C634 C 0.96184 0.43009 0.83038 0.0
C635 C 0.98333 0.46742 0.82555 0.0
C636 C 0.92278 0.41796 0.82568 0.0
C637 C 0.90473 0.44306 0.81616 0.0
C638 C 0.9275 0.47753 0.8087 0.0
C639 C 0.96642 0.48958 0.81336 0.0
H640 H 0.30837 0.70785 0.14955 0.0
H641 H 0.24435 0.79524 0.15029 0.0
H642 H 0.36628 0.75853 0.15925 0.0
H643 H 0.30238 0.84595 0.15933 0.0
H644 H 0.39869 0.90992 0.20358 0.0
H645 H 0.34243 0.86284 0.18924 0.0
H646 H 0.41317 0.81782 0.14876 0.0
H647 H 0.46991 0.86475 0.16353 0.0
C648 C 0.30672 0.73791 0.15162 0.0
C649 C 0.27165 0.74743 0.14928 0.0
C650 C 0.33999 0.76701 0.15695 0.0
C651 C 0.33892 0.80626 0.16015 0.0
C652 C 0.30409 0.81593 0.15719 0.0
C653 C 0.27089 0.78689 0.15181 0.0
C654 C 0.40224 0.89007 0.19157 0.0
C655 C 0.43873 0.89081 0.18478 0.0
C656 C 0.36995 0.86333 0.18321 0.0
C657 C 0.37329 0.83653 0.16786 0.0
C658 C 0.40971 0.83788 0.16069 0.0
C659 C 0.44212 0.86494 0.169 0.0
H660 H 0.50746 0.11532 0.5121 0.0
H661 H 0.6301 0.15114 0.50851 0.0
H662 H 0.50535 0.18342 0.51279 0.0
H663 H 0.62819 0.21974 0.51003 0.0
H664 H 0.61224 0.34187 0.50244 0.0
H665 H 0.6111 0.27304 0.49488 0.0
H666 H 0.51951 0.23738 0.53529 0.0
H667 H 0.51965 0.30525 0.54198 0.0
C668 C 0.53407 0.13776 0.51156 0.0
C669 C 0.56899 0.12764 0.5105 0.0
C670 C 0.53288 0.17699 0.51202 0.0
C671 C 0.56663 0.20744 0.51175 0.0
C672 C 0.60154 0.19726 0.51009 0.0
C673 C 0.60268 0.15784 0.50937 0.0
C674 C 0.59131 0.31913 0.50928 0.0
C675 C 0.56623 0.32905 0.52291 0.0
C676 C 0.59097 0.27969 0.50518 0.0
C677 C 0.5654 0.24936 0.51456 0.0
C678 C 0.53933 0.25954 0.52753 0.0
C679 C 0.53963 0.29867 0.53155 0.0
H680 H 0.45321 0.69286 0.83401 0.0
H681 H 0.35556 0.62294 0.80016 0.0
H682 H 0.41633 0.73859 0.8444 0.0
H683 H 0.31908 0.66872 0.81021 0.0
H684 H 0.30861 0.71534 0.88704 0.0
H685 H 0.36437 0.71629 0.8682 0.0
H686 H 0.305 0.73479 0.81542 0.0
H687 H 0.24895 0.73549 0.83459 0.0
C688 C 0.42429 0.68795 0.82828 0.0
C689 C 0.40688 0.65364 0.8168 0.0
C690 C 0.40332 0.71431 0.83411 0.0
C691 C 0.36466 0.7069 0.82842 0.0
C692 C 0.34889 0.67545 0.81479 0.0
C693 C 0.36979 0.64897 0.80906 0.0
C694 C 0.30785 0.722 0.87169 0.0
C695 C 0.27363 0.72358 0.86218 0.0
C696 C 0.3401 0.7225 0.86079 0.0
C697 C 0.33856 0.72424 0.8402 0.0
C698 C 0.30659 0.73247 0.83123 0.0
C699 C 0.27446 0.73263 0.84221 0.0
H700 H 0.86896 0.32799 0.17396 0.0
H701 H 0.93145 0.24088 0.18232 0.0
H702 H 0.81018 0.28079 0.18232 0.0
H703 H 0.87255 0.19365 0.1901 0.0
H704 H 0.75404 0.10904 0.18973 0.0
H705 H 0.80822 0.15565 0.17585 0.0
H706 H 0.7867 0.24886 0.21351 0.0
H707 H 0.73272 0.20246 0.22724 0.0
C708 C 0.87025 0.29883 0.17753 0.0
C709 C 0.90516 0.28846 0.17759 0.0
C710 C 0.8365 0.27175 0.18221 0.0
C711 C 0.83677 0.23354 0.18687 0.0
C712 C 0.87134 0.22271 0.18629 0.0
C713 C 0.90514 0.24986 0.1818 0.0
C714 C 0.7606 0.13962 0.19476 0.0
C715 C 0.73942 0.15215 0.20964 0.0
C716 C 0.7917 0.1662 0.18694 0.0
C717 C 0.80178 0.20586 0.19366 0.0
C718 C 0.77949 0.21858 0.20793 0.0
C719 C 0.74879 0.19199 0.21589 0.0
H720 H 0.12746 0.46375 0.08911 0.0
H721 H 1.05996 0.54657 0.09923 0.0
H722 H 0.13367 0.48057 0.05475 0.0
H723 H 1.06531 0.5628 0.06469 0.0
H724 H 0.09229 0.4814 0.99095 0.0
H725 H 0.09226 0.46964 0.02584 0.0
H726 H 0.10948 0.59351 0.03988 0.0
H727 H 0.10796 0.60511 0.00471 0.0
C728 C 0.11393 0.48553 0.08395 0.0
C729 C 0.09296 0.50361 0.09673 0.0
C730 C 0.11735 0.49508 0.06426 0.0
C731 C 0.09975 0.52283 0.05694 0.0
C732 C 0.07952 0.5416 0.06991 0.0
C733 C 0.07619 0.5321 0.08963 0.0
C734 C 0.09582 0.50614 0.00146 0.0
C735 C 0.09971 0.54414 -0.00493 0.0
C736 C 0.09632 0.49946 0.02148 0.0
C737 C 0.10092 0.53064 0.03566 0.0
C738 C 0.10551 0.56882 0.02931 0.0
C739 C 0.10502 0.57552 0.00919 0.0
H740 H 0.60471 0.02511 0.4571 0.0
H741 H 0.48924 0.95533 0.44604 0.0
H742 H 0.61362 0.0295 0.42156 0.0
H743 H 0.49821 0.95843 0.41079 0.0
H744 H 0.5073 1.00622 0.35103 0.0
H745 H 0.50342 1.00557 0.38668 0.0
H746 H 0.61868 0.9933 0.39096 0.0
H747 H 0.62278 0.99525 0.35508 0.0
C748 C 0.58154 1.01019 0.44704 0.0
C749 C 0.5463 0.98998 0.45423 0.0
C750 C 0.58657 0.01266 0.42672 0.0
C751 C 0.55645 0.99477 0.41329 0.0
C752 C 0.5217 0.97347 0.42066 0.0
C753 C 0.51661 0.97138 0.44087 0.0
C754 C 0.53182 1.0035 0.35962 0.0
C755 C 0.56516 1.00032 0.35034 0.0
C756 C 0.52959 1.00291 0.38004 0.0
C757 C 0.56049 0.9986 0.3917 0.0
C758 C 0.59441 0.99679 0.38245 0.0
C759 C 0.59677 0.99782 0.36193 0.0
H760 H 0.56814 0.47664 0.78106 0.0
H761 H 0.62855 0.5984 0.77822 0.0
H762 H 0.56143 0.47044 0.7453 0.0
H763 H 0.61993 0.59319 0.74248 0.0
H764 H 0.63798 0.55967 0.67858 0.0
H765 H 0.6423 0.56763 0.7144 0.0
H766 H 0.53136 0.48563 0.71745 0.0
H767 H 0.52845 0.47626 0.68164 0.0
C768 C 0.57948 0.50223 0.77273 0.0
C769 C 0.59914 0.53789 0.78229 0.0
C770 C 0.57539 0.49884 0.75222 0.0
C771 C 0.59022 0.53129 0.74086 0.0
C772 C 0.60891 0.56731 0.75063 0.0
C773 C 0.61363 0.57045 0.77111 0.0
C774 C 0.61456 0.54355 0.68701 0.0
C775 C 0.583 0.51726 0.67749 0.0
C776 C 0.61682 0.54825 0.70753 0.0
C777 C 0.58718 0.52726 0.71895 0.0
C778 C 0.55513 0.50164 0.70925 0.0
C779 C 0.55327 0.49641 0.68874 0.0
H780 H 0.55408 0.0449 0.56591 0.0
H781 H 0.6175 0.95805 0.57199 0.0
H782 H 0.54623 0.04771 0.60158 0.0
H783 H 0.60884 0.96029 0.60766 0.0
H784 H 0.54931 0.95628 0.66913 0.0
H785 H 0.55093 0.94774 0.6333 0.0
H786 H 0.60121 0.07167 0.62979 0.0
H787 H 0.60187 0.08025 0.66548 0.0
C788 C 0.56578 0.02598 0.57484 0.0
C789 C 0.58669 1.00152 0.5663 0.0
C790 C 0.56137 0.02768 0.59519 0.0
C791 C 0.57711 1.00434 0.60725 0.0
C792 C 0.59636 0.97842 0.59861 0.0
C793 C 0.60141 0.97727 0.57828 0.0
C794 C 0.56125 0.98168 0.6608 0.0
C795 C 0.57535 0.01903 0.67032 0.0
C796 C 0.56185 0.97674 0.64029 0.0
C797 C 0.57582 1.00913 0.6289 0.0
C798 C 0.58969 0.04637 0.63829 0.0
C799 C 0.58983 0.05123 0.65876 0.0
H800 H 0.59568 0.57704 0.89545 0.0
H801 H 0.52374 0.45895 0.89576 0.0
H802 H 0.60513 0.57791 0.93123 0.0
H803 H 0.53361 0.45966 0.93146 0.0
H804 H 0.58983 0.46501 0.99311 0.0
H805 H 0.58911 0.46508 0.95703 0.0
H806 H 0.55838 0.57521 0.95987 0.0
H807 H 0.5588 0.57495 -0.00417 0.0
C808 C 0.58214 0.55123 0.90317 0.0
C809 C 0.55873 0.51803 0.89295 0.0
C810 C 0.58751 0.55175 0.92358 0.0
C811 C 0.57011 0.51884 0.93403 0.0
C812 C 0.54759 0.48527 0.9237 0.0
C813 C 0.54173 0.48497 0.90334 0.0
C814 C 0.58342 0.4894 0.98596 0.0
C815 C 0.57419 0.51988 -0.00287 0.0
C816 C 0.5828 0.48933 0.96541 0.0
C817 C 0.57363 0.52012 0.95575 0.0
C818 C 0.56579 0.55129 0.96698 0.0
C819 C 0.56579 0.55102 0.98749 0.0
H820 H 1.05811 0.57676 0.21666 0.0
H821 H 0.12458 0.49268 0.20745 0.0
H822 H 1.06271 0.57105 0.2521 0.0
H823 H 0.13 0.48755 0.24309 0.0
H824 H 0.09987 0.46393 0.30803 0.0
H825 H 0.09333 0.46522 0.27226 0.0
H826 H 0.11249 0.59105 0.27747 0.0
H827 H 0.11732 0.5896 0.31309 0.0
C828 C 0.07369 0.55702 0.22226 0.0
C829 C 0.0913 0.53544 0.20939 0.0
C830 C 0.07655 0.55393 0.24255 0.0
C831 C 0.0972 0.52929 0.25041 0.0
C832 C 0.11378 0.50668 0.23747 0.0
C833 C 0.11082 0.50971 0.21711 0.0
C834 C 0.10249 0.49182 0.30151 0.0
C835 C 0.10903 0.52666 0.31341 0.0
C836 C 0.0991 0.49258 0.28103 0.0
C837 C 0.1021 0.52819 0.27206 0.0
C838 C 0.1094 0.56305 0.28395 0.0
C839 C 0.11273 0.56229 0.30437 0.0
loop_
_geom_bond_atom_site_label_1
_geom_bond_atom_site_label_2
_geom_bond_distance
_geom_bond_site_symmetry_2
_ccdc_geom_bond_type
Nd0 C2 2.836 . S
Nd0 O20 2.500 . S
Nd0 O21 2.492 . S
Nd0 O22 2.487 . S
Nd0 O23 2.682 . S
Nd0 O24 2.410 . S
Nd0 O29 2.414 . S
Nd0 O31 2.424 1_455 S
Nd1 C11 2.860 . S
Nd1 O23 2.417 1_655 S
Nd1 O25 2.392 1_655 S
Nd1 O26 2.522 . S
Nd1 O27 2.512 . S
Nd1 O28 2.488 1_655 S
Nd1 O29 2.678 1_655 S
Nd1 O30 2.439 . S
C2 Nd0 2.836 . S
C2 C3 1.498 . S
C2 O20 1.258 . S
C2 O21 1.239 . S
C3 C2 1.498 . S
C3 C4 1.366 . S
C3 C8 1.407 . S
C4 C3 1.366 . S
C4 C5 1.392 . S
C4 H32 0.930 . S
C5 C4 1.392 . S
C5 C6 1.398 . S
C5 H33 0.929 . S
C6 C5 1.398 . S
C6 C7 1.352 . S
C7 C6 1.352 . S
C7 C8 1.384 . S
C7 H34 0.930 . S
C8 C3 1.407 . S
C8 C7 1.384 . S
C8 H35 0.929 . S
C9 O22 1.241 . S
C9 O23 1.273 . S
C10 O24 1.251 . S
C10 O25 1.268 . S
C11 Nd1 2.860 . S
C11 C12 1.498 . S
C11 O26 1.258 . S
C11 O27 1.239 . S
C12 C11 1.498 . S
C12 C13 1.366 . S
C12 C17 1.407 . S
C13 C12 1.366 . S
C13 C14 1.392 . S
C13 H36 0.930 . S
C14 C13 1.392 . S
C14 C15 1.398 . S
C14 H37 0.929 . S
C15 C14 1.398 . S
C15 C16 1.352 . S
C16 C15 1.352 . S
C16 C17 1.384 . S
C16 H38 0.930 . S
C17 C12 1.407 . S
C17 C16 1.384 . S
C17 H39 0.929 . S
C18 O28 1.241 . S
C18 O29 1.273 . S
C19 O30 1.251 . S
C19 O31 1.268 . S
O20 Nd0 2.500 . S
O20 C2 1.258 . S
O21 Nd0 2.492 . S
O21 C2 1.239 . S
O22 Nd0 2.487 . S
O22 C9 1.241 . S
O23 Nd0 2.682 . S
O23 Nd1 2.417 1_455 S
O23 C9 1.273 . S
O24 Nd0 2.410 . S
O24 C10 1.251 . S
O25 Nd1 2.392 1_455 S
O25 C10 1.268 . S
O26 Nd1 2.522 . S
O26 C11 1.258 . S
O27 Nd1 2.512 . S
O27 C11 1.239 . S
O28 Nd1 2.488 1_455 S
O28 C18 1.241 . S
O29 Nd0 2.414 . S
O29 Nd1 2.678 1_455 S
O29 C18 1.273 . S
O30 Nd1 2.439 . S
O30 C19 1.251 . S
O31 Nd0 2.424 1_655 S
O31 C19 1.268 . S
H32 C4 0.930 . S
H33 C5 0.929 . S
H34 C7 0.930 . S
H35 C8 0.929 . S
H36 C13 0.930 . S
H37 C14 0.929 . S
H38 C16 0.930 . S
H39 C17 0.929 . S
Nd40 C42 2.820 1_545 S
Nd40 O60 2.485 1_545 S
Nd40 O61 2.479 1_545 S
Nd40 O62 2.487 . S
Nd40 O63 2.684 . S
Nd40 O64 2.388 1_545 S
Nd40 O69 2.411 . S
Nd40 O71 2.446 . S
Nd41 C51 2.836 . S
Nd41 O63 2.414 . S
Nd41 O65 2.424 1_545 S
Nd41 O66 2.500 . S
Nd41 O67 2.492 . S
Nd41 O68 2.487 . S
Nd41 O69 2.682 . S
Nd41 O70 2.410 . S
C42 Nd40 2.820 1_565 S
C42 C43 1.498 . S
C42 O60 1.258 . S
C42 O61 1.239 . S
C43 C42 1.498 . S
C43 C44 1.366 . S
C43 C48 1.407 . S
C44 C43 1.366 . S
C44 C45 1.392 . S
C44 H72 0.930 . S
C45 C44 1.392 . S
C45 C46 1.398 . S
C45 H73 0.929 . S
C46 C45 1.398 . S
C46 C47 1.352 . S
C47 C46 1.352 . S
C47 C48 1.384 . S
C47 H74 0.930 . S
C48 C43 1.407 . S
C48 C47 1.384 . S
C48 H75 0.929 . S
C49 O62 1.241 . S
C49 O63 1.273 . S
C50 O64 1.251 . S
C50 O65 1.268 . S
C51 Nd41 2.836 . S
C51 C52 1.498 . S
C51 O66 1.258 . S
C51 O67 1.239 . S
C52 C51 1.498 . S
C52 C53 1.366 . S
C52 C57 1.407 . S
C53 C52 1.366 . S
C53 C54 1.392 . S
C53 H76 0.930 . S
C54 C53 1.392 . S
C54 C55 1.398 . S
C54 H77 0.929 . S
C55 C54 1.398 . S
C55 C56 1.352 . S
C56 C55 1.352 . S
C56 C57 1.384 . S
C56 H78 0.930 . S
C57 C52 1.407 . S
C57 C56 1.384 . S
C57 H79 0.929 . S
C58 O68 1.241 . S
C58 O69 1.273 . S
C59 O70 1.251 . S
C59 O71 1.268 . S
O60 Nd40 2.485 1_565 S
O60 C42 1.258 . S
O61 Nd40 2.479 1_565 S
O61 C42 1.239 . S
O62 Nd40 2.487 . S
O62 C49 1.241 . S
O63 Nd40 2.684 . S
O63 Nd41 2.414 . S
O63 C49 1.273 . S
O64 Nd40 2.388 1_565 S
O64 C50 1.251 . S
O65 Nd41 2.424 1_565 S
O65 C50 1.268 . S
O66 Nd41 2.500 . S
O66 C51 1.258 . S
O67 Nd41 2.492 . S
O67 C51 1.239 . S
O68 Nd41 2.487 . S
O68 C58 1.241 . S
O69 Nd40 2.411 . S
O69 Nd41 2.682 . S
O69 C58 1.273 . S
O70 Nd41 2.410 . S
O70 C59 1.251 . S
O71 Nd40 2.446 . S
O71 C59 1.268 . S
H72 C44 0.930 . S
H73 C45 0.929 . S
H74 C47 0.930 . S
H75 C48 0.929 . S
H76 C53 0.930 . S
H77 C54 0.929 . S
H78 C56 0.930 . S
H79 C57 0.929 . S
Nd80 C82 2.836 . S
Nd80 O100 2.500 . S
Nd80 O101 2.492 . S
Nd80 O102 2.487 . S
Nd80 O103 2.682 . S
Nd80 O104 2.410 . S
Nd80 O109 2.414 . S
Nd80 O111 2.424 . S
Nd81 C91 2.836 . S
Nd81 O103 2.414 . S
Nd81 O105 2.424 . S
Nd81 O106 2.500 . S
Nd81 O107 2.492 . S
Nd81 O108 2.487 . S
Nd81 O109 2.682 . S
Nd81 O110 2.410 . S
C82 Nd80 2.836 . S
C82 C83 1.498 . S
C82 O100 1.258 . S
C82 O101 1.239 . S
C83 C82 1.498 . S
C83 C84 1.366 . S
C83 C88 1.407 . S
C84 C83 1.366 . S
C84 C85 1.392 . S
C84 H112 0.930 . S
C85 C84 1.392 . S
C85 C86 1.398 . S
C85 H113 0.929 . S
C86 C85 1.398 . S
C86 C87 1.352 . S
C87 C86 1.352 . S
C87 C88 1.384 . S
C87 H114 0.930 . S
C88 C83 1.407 . S
C88 C87 1.384 . S
C88 H115 0.929 . S
C89 O102 1.241 . S
C89 O103 1.273 . S
C90 O104 1.251 . S
C90 O105 1.268 . S
C91 Nd81 2.836 . S
C91 C92 1.498 . S
C91 O106 1.258 . S
C91 O107 1.239 . S
C92 C91 1.498 . S
C92 C93 1.366 . S
C92 C97 1.407 . S
C93 C92 1.366 . S
C93 C94 1.392 . S
C93 H116 0.930 . S
C94 C93 1.392 . S
C94 C95 1.398 . S
C94 H117 0.929 . S
C95 C94 1.398 . S
C95 C96 1.352 . S
C96 C95 1.352 . S
C96 C97 1.384 . S
C96 H118 0.930 . S
C97 C92 1.407 . S
C97 C96 1.384 . S
C97 H119 0.929 . S
C98 O108 1.241 . S
C98 O109 1.273 . S
C99 O110 1.251 . S
C99 O111 1.268 . S
O100 Nd80 2.500 . S
O100 C82 1.258 . S
O101 Nd80 2.492 . S
O101 C82 1.239 . S
O102 Nd80 2.487 . S
O102 C89 1.241 . S
O103 Nd80 2.682 . S
O103 Nd81 2.414 . S
O103 C89 1.273 . S
O104 Nd80 2.410 . S
O104 C90 1.251 . S
O105 Nd81 2.424 . S
O105 C90 1.268 . S
O106 Nd81 2.500 . S
O106 C91 1.258 . S
O107 Nd81 2.492 . S
O107 C91 1.239 . S
O108 Nd81 2.487 . S
O108 C98 1.241 . S
O109 Nd80 2.414 . S
O109 Nd81 2.682 . S
O109 C98 1.273 . S
O110 Nd81 2.410 . S
O110 C99 1.251 . S
O111 Nd80 2.424 . S
O111 C99 1.268 . S
H112 C84 0.930 . S
H113 C85 0.929 . S
H114 C87 0.930 . S
H115 C88 0.929 . S
H116 C93 0.930 . S
H117 C94 0.929 . S
H118 C96 0.930 . S
H119 C97 0.929 . S
C120 C121 1.391 . S
C120 C124 1.391 . S
C120 H162 0.948 . S
C121 C120 1.391 . S
C121 C122 1.391 . S
C122 C121 1.391 . S
C122 H178 0.947 . S
C122 C179 1.392 . S
C123 C124 1.391 . S
C123 C127 1.397 . S
C123 C179 1.419 . S
C124 C120 1.391 . S
C124 C123 1.391 . S
C124 C125 1.399 . S
C125 C124 1.399 . S
C125 C128 1.396 . S
C125 C137 1.453 . S
C125 C138 1.684 . S
H126 C150 0.948 . S
C127 C123 1.397 . S
C127 C128 1.394 . S
C127 C146 1.723 . S
C128 C125 1.396 . S
C128 C127 1.394 . S
C128 C158 1.723 1_545 S
H129 C152 0.947 . S
H130 C153 0.948 . S
H131 C159 0.982 . S
H132 C160 0.979 . S
H133 C160 0.980 . S
H134 C160 0.983 . S
H135 C159 0.979 . S
H136 C159 0.977 . S
C137 C125 1.453 . S
C137 H166 0.982 . S
C137 H167 0.979 . S
C137 H168 0.977 1_545 S
C138 C125 1.684 . S
C138 H163 0.979 . S
C138 H164 0.980 . S
C138 H165 0.983 . S
C139 C140 1.391 . S
C139 C144 1.391 . S
C139 H169 0.948 . S
C140 C139 1.391 . S
C140 C141 1.391 . S
C141 C140 1.391 . S
C141 C142 1.391 1_545 S
C141 H170 0.947 1_545 S
C142 C141 1.391 1_565 S
C142 C143 1.411 1_565 S
C142 H171 0.956 . S
C143 C142 1.411 1_545 S
C143 C144 1.391 . S
C143 C147 1.397 . S
C144 C139 1.391 . S
C144 C143 1.391 . S
C144 C145 1.399 . S
C145 C144 1.399 . S
C145 C146 1.396 . S
C145 C148 1.453 . S
C145 C149 1.684 . S
C146 C127 1.723 . S
C146 C145 1.396 . S
C146 C147 1.394 . S
C147 C143 1.397 . S
C147 C146 1.394 . S
C147 C157 1.723 1_545 S
C148 C145 1.453 . S
C148 H172 0.982 . S
C148 H173 0.979 . S
C148 H174 0.977 . S
C149 C145 1.684 . S
C149 H175 0.979 . S
C149 H176 0.980 . S
C149 H177 0.983 . S
C150 H126 0.948 . S
C150 C151 1.391 . S
C150 C155 1.391 . S
C151 C150 1.391 . S
C151 C152 1.391 . S
C152 H129 0.947 . S
C152 C151 1.391 . S
C152 C153 1.392 . S
C153 H130 0.948 . S
C153 C152 1.392 . S
C153 C154 1.419 . S
C154 C153 1.419 . S
C154 C155 1.391 . S
C154 C158 1.397 . S
C155 C150 1.391 . S
C155 C154 1.391 . S
C155 C156 1.399 . S
C156 C155 1.399 . S
C156 C157 1.396 . S
C156 C159 1.453 . S
C156 C160 1.684 . S
C157 C147 1.723 1_565 S
C157 C156 1.396 . S
C157 C158 1.394 . S
C158 C128 1.723 1_565 S
C158 C154 1.397 . S
C158 C157 1.394 . S
C159 H131 0.982 . S
C159 H135 0.979 . S
C159 H136 0.977 . S
C159 C156 1.453 . S
C160 H132 0.979 . S
C160 H133 0.980 . S
C160 H134 0.983 . S
C160 C156 1.684 . S
H161 C179 0.948 . S
H162 C120 0.948 . S
H163 C138 0.979 . S
H164 C138 0.980 . S
H165 C138 0.983 . S
H166 C137 0.982 . S
H167 C137 0.979 . S
H168 C137 0.977 1_565 S
H169 C139 0.948 . S
H170 C141 0.947 1_565 S
H171 C142 0.956 . S
H172 C148 0.982 . S
H173 C148 0.979 . S
H174 C148 0.977 . S
H175 C149 0.979 . S
H176 C149 0.980 . S
H177 C149 0.983 . S
H178 C122 0.947 . S
C179 C122 1.392 . S
C179 C123 1.419 . S
C179 H161 0.948 . S
C180 C181 1.391 . S
C180 C184 1.391 . S
C180 H222 0.948 . S
C181 C180 1.391 . S
C181 C182 1.391 . S
C182 C181 1.391 . S
C182 H238 0.947 . S
C182 C239 1.392 . S
C183 C184 1.391 . S
C183 C187 1.397 . S
C183 C239 1.419 . S
C184 C180 1.391 . S
C184 C183 1.391 . S
C184 C185 1.399 . S
C185 C184 1.399 . S
C185 C188 1.396 . S
C185 C197 1.453 . S
C185 C198 1.684 . S
H186 C210 0.948 . S
C187 C183 1.397 . S
C187 C188 1.394 . S
C187 C206 1.723 . S
C188 C185 1.396 . S
C188 C187 1.394 . S
C188 C218 1.723 . S
H189 C212 0.947 . S
H190 C213 0.948 . S
H191 C219 0.982 . S
H192 C220 0.979 . S
H193 C220 0.980 . S
H194 C220 0.983 . S
H195 C219 0.979 . S
H196 C219 0.977 . S
C197 C185 1.453 . S
C197 H226 0.982 . S
C197 H227 0.979 . S
C197 H228 0.977 . S
C198 C185 1.684 . S
C198 H223 0.979 . S
C198 H224 0.980 . S
C198 H225 0.983 . S
C199 C200 1.391 . S
C199 C204 1.391 . S
C199 H229 0.948 . S
C200 C199 1.391 . S
C200 C201 1.391 . S
C201 C200 1.391 . S
C201 C202 1.392 . S
C201 H230 0.947 . S
C202 C201 1.392 . S
C202 C203 1.419 . S
C202 H231 0.948 . S
C203 C202 1.419 . S
C203 C204 1.391 . S
C203 C207 1.397 . S
C204 C199 1.391 . S
C204 C203 1.391 . S
C204 C205 1.399 . S
C205 C204 1.399 . S
C205 C206 1.396 . S
C205 C208 1.453 . S
C205 C209 1.684 . S
C206 C187 1.723 . S
C206 C205 1.396 . S
C206 C207 1.394 . S
C207 C203 1.397 . S
C207 C206 1.394 . S
C207 C217 1.723 . S
C208 C205 1.453 . S
C208 H232 0.982 . S
C208 H233 0.979 . S
C208 H234 0.977 . S
C209 C205 1.684 . S
C209 H235 0.979 . S
C209 H236 0.980 . S
C209 H237 0.983 . S
C210 H186 0.948 . S
C210 C211 1.391 . S
C210 C215 1.391 . S
C211 C210 1.391 . S
C211 C212 1.391 . S
C212 H189 0.947 . S
C212 C211 1.391 . S
C212 C213 1.392 . S
C213 H190 0.948 . S
C213 C212 1.392 . S
C213 C214 1.419 . S
C214 C213 1.419 . S
C214 C215 1.391 . S
C214 C218 1.397 . S
C215 C210 1.391 . S
C215 C214 1.391 . S
C215 C216 1.399 . S
C216 C215 1.399 . S
C216 C217 1.396 . S
C216 C219 1.453 . S
C216 C220 1.684 . S
C217 C207 1.723 . S
C217 C216 1.396 . S
C217 C218 1.394 . S
C218 C188 1.723 . S
C218 C214 1.397 . S
C218 C217 1.394 . S
C219 H191 0.982 . S
C219 H195 0.979 . S
C219 H196 0.977 . S
C219 C216 1.453 . S
C220 H192 0.979 . S
C220 H193 0.980 . S
C220 H194 0.983 . S
C220 C216 1.684 . S
H221 C239 0.948 . S
H222 C180 0.948 . S
H223 C198 0.979 . S
H224 C198 0.980 . S
H225 C198 0.983 . S
H226 C197 0.982 . S
H227 C197 0.979 . S
H228 C197 0.977 . S
H229 C199 0.948 . S
H230 C201 0.947 . S
H231 C202 0.948 . S
H232 C208 0.982 . S
H233 C208 0.979 . S
H234 C208 0.977 . S
H235 C209 0.979 . S
H236 C209 0.980 . S
H237 C209 0.983 . S
H238 C182 0.947 . S
C239 C182 1.392 . S
C239 C183 1.419 . S
C239 H221 0.948 . S
C240 C241 1.391 . S
C240 C244 1.391 . S
C240 H282 0.948 . S
C241 C240 1.391 . S
C241 C242 1.391 . S
C242 C241 1.391 . S
C242 H298 0.947 . S
C242 C299 1.392 . S
C243 C244 1.391 . S
C243 C247 1.397 . S
C243 C299 1.419 . S
C244 C240 1.391 . S
C244 C243 1.391 . S
C244 C245 1.399 . S
C245 C244 1.399 . S
C245 C248 1.396 . S
C245 C257 1.453 . S
C245 C258 1.684 . S
H246 C270 0.948 . S
C247 C243 1.397 . S
C247 C248 1.394 . S
C247 C266 1.723 . S
C248 C245 1.396 . S
C248 C247 1.394 . S
C248 C278 1.723 . S
H249 C272 0.947 . S
H250 C273 0.962 . S
H251 C279 0.982 . S
H252 C280 0.979 . S
H253 C280 0.980 . S
H254 C280 0.983 . S
H255 C279 0.979 . S
H256 C279 0.977 . S
C257 C245 1.453 . S
C257 H286 0.982 . S
C257 H287 0.979 . S
C257 H288 0.977 . S
C258 C245 1.684 . S
C258 H283 0.979 . S
C258 H284 0.980 . S
C258 H285 0.983 . S
C259 C260 1.391 . S
C259 C264 1.391 . S
C259 H289 0.948 . S
C260 C259 1.391 . S
C260 C261 1.391 1_455 S
C261 C260 1.391 1_655 S
C261 C262 1.392 . S
C261 H290 0.947 . S
C262 C261 1.392 . S
C262 C263 1.419 1_655 S
C262 H291 0.948 . S
C263 C262 1.419 1_455 S
C263 C264 1.391 . S
C263 C267 1.397 . S
C264 C259 1.391 . S
C264 C263 1.391 . S
C264 C265 1.399 . S
C265 C264 1.399 . S
C265 C266 1.396 . S
C265 C268 1.453 . S
C265 C269 1.684 . S
C266 C247 1.723 . S
C266 C265 1.396 . S
C266 C267 1.394 . S
C267 C263 1.397 . S
C267 C266 1.394 . S
C267 C277 1.723 1_455 S
C268 C265 1.453 . S
C268 H292 0.982 . S
C268 H293 0.979 . S
C268 H294 0.977 . S
C269 C265 1.684 . S
C269 H295 0.979 . S
C269 H296 0.980 . S
C269 H297 0.983 . S
C270 H246 0.948 . S
C270 C271 1.391 . S
C270 C275 1.391 . S
C271 C270 1.391 . S
C271 C272 1.391 . S
C272 H249 0.947 . S
C272 C271 1.391 . S
C272 C273 1.392 . S
C273 H250 0.962 . S
C273 C272 1.392 . S
C273 C274 1.419 . S
C274 C273 1.419 . S
C274 C275 1.391 . S
C274 C278 1.397 1_655 S
C275 C270 1.391 . S
C275 C274 1.391 . S
C275 C276 1.399 . S
C276 C275 1.399 . S
C276 C277 1.396 . S
C276 C279 1.453 . S
C276 C280 1.684 . S
C277 C267 1.723 1_655 S
C277 C276 1.396 . S
C277 C278 1.394 1_655 S
C278 C248 1.723 . S
C278 C274 1.397 1_455 S
C278 C277 1.394 1_455 S
C279 H251 0.982 . S
C279 H255 0.979 . S
C279 H256 0.977 . S
C279 C276 1.453 . S
C280 H252 0.979 . S
C280 H253 0.980 . S
C280 H254 0.983 . S
C280 C276 1.684 . S
H281 C299 0.948 . S
H282 C240 0.948 . S
H283 C258 0.979 . S
H284 C258 0.980 . S
H285 C258 0.983 . S
H286 C257 0.982 . S
H287 C257 0.979 . S
H288 C257 0.977 . S
H289 C259 0.948 . S
H290 C261 0.947 . S
H291 C262 0.948 . S
H292 C268 0.982 . S
H293 C268 0.979 . S
H294 C268 0.977 . S
H295 C269 0.979 . S
H296 C269 0.980 . S
H297 C269 0.983 . S
H298 C242 0.947 . S
C299 C242 1.392 . S
C299 C243 1.419 . S
C299 H281 0.948 . S
C300 C301 1.391 . S
C300 C304 1.391 . S
C300 H342 0.948 . S
C301 C300 1.391 . S
C301 C302 1.391 . S
C302 C301 1.391 . S
C302 H358 0.947 . S
C302 C359 1.392 . S
C303 C304 1.391 . S
C303 C307 1.397 . S
C303 C359 1.419 . S
C304 C300 1.391 . S
C304 C303 1.391 . S
C304 C305 1.399 . S
C305 C304 1.399 . S
C305 C308 1.396 . S
C305 C317 1.453 . S
C305 C318 1.684 . S
H306 C330 0.948 . S
C307 C303 1.397 . S
C307 C308 1.394 . S
C307 C326 1.723 . S
C308 C305 1.396 . S
C308 C307 1.394 . S
C308 C338 1.723 1_655 S
H309 C332 0.947 . S
H310 C333 0.948 . S
H311 C339 0.982 . S
H312 C340 0.979 . S
H313 C340 0.980 . S
H314 C340 0.983 . S
H315 C339 0.979 . S
H316 C339 0.977 . S
C317 C305 1.453 . S
C317 H346 0.982 1_655 S
C317 H347 0.979 . S
C317 H348 0.977 1_655 S
C318 C305 1.684 . S
C318 H343 0.979 . S
C318 H344 0.980 . S
C318 H345 0.983 . S
C319 C320 1.391 1_655 S
C319 C324 1.391 . S
C319 H349 0.948 . S
C320 C319 1.391 1_455 S
C320 C321 1.391 . S
C321 C320 1.391 . S
C321 C322 1.392 . S
C321 H350 0.947 . S
C322 C321 1.392 . S
C322 C323 1.419 . S
C322 H351 0.948 . S
C323 C322 1.419 . S
C323 C324 1.391 1_455 S
C323 C327 1.397 . S
C324 C319 1.391 . S
C324 C323 1.391 1_655 S
C324 C325 1.399 . S
C325 C324 1.399 . S
C325 C326 1.396 . S
C325 C328 1.453 . S
C325 C329 1.684 . S
C326 C307 1.723 . S
C326 C325 1.396 . S
C326 C327 1.394 1_655 S
C327 C323 1.397 . S
C327 C326 1.394 1_455 S
C327 C337 1.723 . S
C328 C325 1.453 . S
C328 H352 0.982 . S
C328 H353 0.979 . S
C328 H354 0.977 . S
C329 C325 1.684 . S
C329 H355 0.979 . S
C329 H356 0.980 . S
C329 H357 0.983 . S
C330 H306 0.948 . S
C330 C331 1.391 . S
C330 C335 1.391 . S
C331 C330 1.391 . S
C331 C332 1.391 . S
C332 H309 0.947 . S
C332 C331 1.391 . S
C332 C333 1.392 . S
C333 H310 0.948 . S
C333 C332 1.392 . S
C333 C334 1.419 . S
C334 C333 1.419 . S
C334 C335 1.391 . S
C334 C338 1.397 . S
C335 C330 1.391 . S
C335 C334 1.391 . S
C335 C336 1.399 . S
C336 C335 1.399 . S
C336 C337 1.396 . S
C336 C339 1.453 . S
C336 C340 1.684 . S
C337 C327 1.723 . S
C337 C336 1.396 . S
C337 C338 1.394 . S
C338 C308 1.723 1_455 S
C338 C334 1.397 . S
C338 C337 1.394 . S
C339 H311 0.982 . S
C339 H315 0.979 . S
C339 H316 0.977 . S
C339 C336 1.453 . S
C340 H312 0.979 . S
C340 H313 0.980 . S
C340 H314 0.983 . S
C340 C336 1.684 . S
H341 C359 0.948 . S
H342 C300 0.948 . S
H343 C318 0.979 . S
H344 C318 0.980 . S
H345 C318 0.983 . S
H346 C317 0.982 1_455 S
H347 C317 0.979 . S
H348 C317 0.977 1_455 S
H349 C319 0.948 . S
H350 C321 0.947 . S
H351 C322 0.948 . S
H352 C328 0.982 . S
H353 C328 0.979 . S
H354 C328 0.977 . S
H355 C329 0.979 . S
H356 C329 0.980 . S
H357 C329 0.983 . S
H358 C302 0.947 . S
C359 C302 1.392 . S
C359 C303 1.419 . S
C359 H341 0.948 . S
C360 C361 1.391 . S
C360 C364 1.391 . S
C360 H402 0.948 . S
C361 C360 1.391 . S
C361 C362 1.391 . S
C362 C361 1.391 . S
C362 H418 0.947 . S
C362 C419 1.392 . S
C363 C364 1.391 . S
C363 C367 1.397 . S
C363 C419 1.419 . S
C364 C360 1.391 . S
C364 C363 1.391 . S
C364 C365 1.399 . S
C365 C364 1.399 . S
C365 C368 1.396 . S
C365 C377 1.453 1_565 S
C365 C378 1.684 . S
H366 C390 0.948 . S
C367 C363 1.397 . S
C367 C368 1.394 . S
C367 C386 1.723 . S
C368 C365 1.396 . S
C368 C367 1.394 . S
C368 C398 1.723 1_565 S
H369 C392 0.947 . S
H370 C393 0.948 . S
H371 C399 0.982 . S
H372 C400 0.979 . S
H373 C400 0.980 . S
H374 C400 0.983 . S
H375 C399 0.979 . S
H376 C399 0.977 . S
C377 C365 1.453 1_545 S
C377 H406 0.982 . S
C377 H407 0.979 1_545 S
C377 H408 0.977 . S
C378 C365 1.684 . S
C378 H403 0.979 . S
C378 H404 0.980 1_565 S
C378 H405 0.983 . S
C379 C380 1.391 1_565 S
C379 C384 1.391 . S
C379 H409 0.948 . S
C380 C379 1.391 1_545 S
C380 C381 1.391 . S
C381 C380 1.391 . S
C381 C382 1.392 . S
C381 H410 0.947 . S
C382 C381 1.392 . S
C382 C383 1.419 . S
C382 H411 0.948 . S
C383 C382 1.419 . S
C383 C384 1.391 1_545 S
C383 C387 1.397 . S
C384 C379 1.391 . S
C384 C383 1.391 1_565 S
C384 C385 1.399 . S
C385 C384 1.399 . S
C385 C386 1.396 . S
C385 C388 1.453 . S
C385 C389 1.684 . S
C386 C367 1.723 . S
C386 C385 1.396 . S
C386 C387 1.394 1_565 S
C387 C383 1.397 . S
C387 C386 1.394 1_545 S
C387 C397 1.723 . S
C388 C385 1.453 . S
C388 H412 0.982 . S
C388 H413 0.979 . S
C388 H414 0.977 . S
C389 C385 1.684 . S
C389 H415 0.979 . S
C389 H416 0.980 . S
C389 H417 0.983 . S
C390 H366 0.948 . S
C390 C391 1.391 . S
C390 C395 1.391 . S
C391 C390 1.391 . S
C391 C392 1.391 . S
C392 H369 0.947 . S
C392 C391 1.391 . S
C392 C393 1.392 . S
C393 H370 0.948 . S
C393 C392 1.392 . S
C393 C394 1.419 . S
C394 C393 1.419 . S
C394 C395 1.391 . S
C394 C398 1.397 . S
C395 C390 1.391 . S
C395 C394 1.391 . S
C395 C396 1.399 . S
C396 C395 1.399 . S
C396 C397 1.396 . S
C396 C399 1.453 . S
C396 C400 1.684 . S
C397 C387 1.723 . S
C397 C396 1.396 . S
C397 C398 1.394 . S
C398 C368 1.723 1_545 S
C398 C394 1.397 . S
C398 C397 1.394 . S
C399 H371 0.982 . S
C399 H375 0.979 . S
C399 H376 0.977 . S
C399 C396 1.453 . S
C400 H372 0.979 . S
C400 H373 0.980 . S
C400 H374 0.983 . S
C400 C396 1.684 . S
H401 C419 0.948 . S
H402 C360 0.948 . S
H403 C378 0.979 . S
H404 C378 0.980 1_545 S
H405 C378 0.983 . S
H406 C377 0.982 . S
H407 C377 0.979 1_565 S
H408 C377 0.977 . S
H409 C379 0.948 . S
H410 C381 0.947 . S
H411 C382 0.948 . S
H412 C388 0.982 . S
H413 C388 0.979 . S
H414 C388 0.977 . S
H415 C389 0.979 . S
H416 C389 0.980 . S
H417 C389 0.983 . S
H418 C362 0.947 . S
C419 C362 1.392 . S
C419 C363 1.419 . S
C419 H401 0.948 . S
C420 C421 1.391 . S
C420 C424 1.391 . S
C420 H462 0.948 . S
C421 C420 1.391 . S
C421 C422 1.391 . S
C422 C421 1.391 . S
C422 H478 0.947 . S
C422 C479 1.392 . S
C423 C424 1.391 . S
C423 C427 1.397 . S
C423 C479 1.419 . S
C424 C420 1.391 . S
C424 C423 1.391 . S
C424 C425 1.399 . S
C425 C424 1.399 . S
C425 C428 1.396 . S
C425 C437 1.453 . S
C425 C438 1.684 . S
H426 C450 0.948 . S
C427 C423 1.397 . S
C427 C428 1.394 . S
C427 C446 1.723 . S
C428 C425 1.396 . S
C428 C427 1.394 . S
C428 C458 1.723 . S
H429 C452 0.947 . S
H430 C453 0.948 . S
H431 C459 0.982 . S
H432 C460 0.979 . S
H433 C460 0.980 . S
H434 C460 0.983 . S
H435 C459 0.979 . S
H436 C459 0.977 . S
C437 C425 1.453 . S
C437 H466 0.982 . S
C437 H467 0.979 . S
C437 H468 0.977 . S
C438 C425 1.684 . S
C438 H463 0.979 . S
C438 H464 0.980 . S
C438 H465 0.983 . S
C439 C440 1.391 . S
C439 C444 1.391 . S
C439 H469 0.948 . S
C440 C439 1.391 . S
C440 C441 1.391 . S
C441 C440 1.391 . S
C441 C442 1.392 . S
C441 H470 0.947 . S
C442 C441 1.392 . S
C442 C443 1.419 . S
C442 H471 0.948 . S
C443 C442 1.419 . S
C443 C444 1.391 . S
C443 C447 1.397 . S
C444 C439 1.391 . S
C444 C443 1.391 . S
C444 C445 1.399 . S
C445 C444 1.399 . S
C445 C446 1.396 . S
C445 C448 1.453 . S
C445 C449 1.684 . S
C446 C427 1.723 . S
C446 C445 1.396 . S
C446 C447 1.394 . S
C447 C443 1.397 . S
C447 C446 1.394 . S
C447 C457 1.723 . S
C448 C445 1.453 . S
C448 H472 0.982 . S
C448 H473 0.979 . S
C448 H474 0.977 . S
C449 C445 1.684 . S
C449 H475 0.979 . S
C449 H476 0.980 . S
C449 H477 0.983 . S
C450 H426 0.948 . S
C450 C451 1.391 . S
C450 C455 1.391 . S
C451 C450 1.391 . S
C451 C452 1.391 . S
C452 H429 0.947 . S
C452 C451 1.391 . S
C452 C453 1.392 . S
C453 H430 0.948 . S
C453 C452 1.392 . S
C453 C454 1.419 . S
C454 C453 1.419 . S
C454 C455 1.391 . S
C454 C458 1.397 . S
C455 C450 1.391 . S
C455 C454 1.391 . S
C455 C456 1.399 . S
C456 C455 1.399 . S
C456 C457 1.396 . S
C456 C459 1.453 . S
C456 C460 1.684 . S
C457 C447 1.723 . S
C457 C456 1.396 . S
C457 C458 1.394 . S
C458 C428 1.723 . S
C458 C454 1.397 . S
C458 C457 1.394 . S
C459 H431 0.982 . S
C459 H435 0.979 . S
C459 H436 0.977 . S
C459 C456 1.453 . S
C460 H432 0.979 . S
C460 H433 0.980 . S
C460 H434 0.983 . S
C460 C456 1.684 . S
H461 C479 0.948 . S
H462 C420 0.948 . S
H463 C438 0.979 . S
H464 C438 0.980 . S
H465 C438 0.983 . S
H466 C437 0.982 . S
H467 C437 0.979 . S
H468 C437 0.977 . S
H469 C439 0.948 . S
H470 C441 0.947 . S
H471 C442 0.948 . S
H472 C448 0.982 . S
H473 C448 0.979 . S
H474 C448 0.977 . S
H475 C449 0.979 . S
H476 C449 0.980 . S
H477 C449 0.983 . S
H478 C422 0.947 . S
C479 C422 1.392 . S
C479 C423 1.419 . S
C479 H461 0.948 . S
H480 C488 0.950 . S
H481 C493 0.950 . S
H482 C490 0.950 . S
H483 C492 0.950 . S
H484 C494 0.950 . S
H485 C496 0.950 . S
H486 C498 0.950 . S
H487 C499 0.950 . S
C488 H480 0.950 . S
C488 C489 1.386 . S
C488 C490 1.391 . S
C489 C488 1.386 . S
C489 C493 1.393 . S
C490 H482 0.950 . S
C490 C488 1.391 . S
C490 C491 1.400 . S
C491 C490 1.400 . S
C491 C492 1.398 . S
C491 C497 1.491 . S
C492 H483 0.950 . S
C492 C491 1.398 . S
C492 C493 1.391 . S
C493 H481 0.950 . S
C493 C489 1.393 . S
C493 C492 1.391 . S
C494 H484 0.950 . S
C494 C495 1.386 . S
C494 C496 1.391 . S
C495 C494 1.386 . S
C495 C499 1.393 . S
C496 H485 0.950 . S
C496 C494 1.391 . S
C496 C497 1.400 . S
C497 C491 1.491 . S
C497 C496 1.400 . S
C497 C498 1.398 . S
C498 H486 0.950 . S
C498 C497 1.398 . S
C498 C499 1.391 . S
C499 H487 0.950 . S
C499 C495 1.393 . S
C499 C498 1.391 . S
H500 C508 0.950 . S
H501 C513 0.950 . S
H502 C510 0.950 . S
H503 C512 0.950 . S
H504 C514 0.950 . S
H505 C516 0.950 . S
H506 C518 0.950 . S
H507 C519 0.950 . S
C508 H500 0.950 . S
C508 C509 1.386 . S
C508 C510 1.391 . S
C509 C508 1.386 . S
C509 C513 1.393 . S
C510 H502 0.950 . S
C510 C508 1.391 . S
C510 C511 1.400 . S
C511 C510 1.400 . S
C511 C512 1.398 . S
C511 C517 1.491 . S
C512 H503 0.950 . S
C512 C511 1.398 . S
C512 C513 1.391 . S
C513 H501 0.950 . S
C513 C509 1.393 . S
C513 C512 1.391 . S
C514 H504 0.950 . S
C514 C515 1.386 . S
C514 C516 1.391 . S
C515 C514 1.386 . S
C515 C519 1.393 . S
C516 H505 0.950 . S
C516 C514 1.391 . S
C516 C517 1.400 . S
C517 C511 1.491 . S
C517 C516 1.400 . S
C517 C518 1.398 . S
C518 H506 0.950 . S
C518 C517 1.398 . S
C518 C519 1.391 . S
C519 H507 0.950 . S
C519 C515 1.393 . S
C519 C518 1.391 . S
H520 C528 0.950 . S
H521 C533 0.950 . S
H522 C530 0.950 . S
H523 C532 0.950 . S
H524 C534 0.950 . S
H525 C536 0.950 . S
H526 C538 0.950 . S
H527 C539 0.950 . S
C528 H520 0.950 . S
C528 C529 1.386 . S
C528 C530 1.391 . S
C529 C528 1.386 . S
C529 C533 1.393 . S
C530 H522 0.950 . S
C530 C528 1.391 . S
C530 C531 1.400 . S
C531 C530 1.400 . S
C531 C532 1.398 . S
C531 C537 1.491 . S
C532 H523 0.950 . S
C532 C531 1.398 . S
C532 C533 1.391 . S
C533 H521 0.950 . S
C533 C529 1.393 . S
C533 C532 1.391 . S
C534 H524 0.950 . S
C534 C535 1.386 . S
C534 C536 1.391 . S
C535 C534 1.386 . S
C535 C539 1.393 . S
C536 H525 0.950 . S
C536 C534 1.391 . S
C536 C537 1.400 . S
C537 C531 1.491 . S
C537 C536 1.400 . S
C537 C538 1.398 . S
C538 H526 0.950 . S
C538 C537 1.398 . S
C538 C539 1.391 . S
C539 H527 0.950 . S
C539 C535 1.393 . S
C539 C538 1.391 . S
H540 C548 0.950 . S
H541 C553 0.950 . S
H542 C550 0.950 . S
H543 C552 0.950 . S
H544 C554 0.950 . S
H545 C556 0.950 . S
H546 C558 0.950 . S
H547 C559 0.950 . S
C548 H540 0.950 . S
C548 C549 1.386 . S
C548 C550 1.391 . S
C549 C548 1.386 . S
C549 C553 1.393 . S
C550 H542 0.950 . S
C550 C548 1.391 . S
C550 C551 1.400 . S
C551 C550 1.400 . S
C551 C552 1.398 . S
C551 C557 1.491 . S
C552 H543 0.950 . S
C552 C551 1.398 . S
C552 C553 1.391 . S
C553 H541 0.950 . S
C553 C549 1.393 . S
C553 C552 1.391 . S
C554 H544 0.950 . S
C554 C555 1.386 . S
C554 C556 1.391 . S
C555 C554 1.386 . S
C555 C559 1.393 . S
C556 H545 0.950 . S
C556 C554 1.391 . S
C556 C557 1.400 . S
C557 C551 1.491 . S
C557 C556 1.400 . S
C557 C558 1.398 . S
C558 H546 0.950 . S
C558 C557 1.398 . S
C558 C559 1.391 . S
C559 H547 0.950 . S
C559 C555 1.393 . S
C559 C558 1.391 . S
H560 C568 0.950 . S
H561 C573 0.950 . S
H562 C570 0.950 . S
H563 C572 0.950 . S
H564 C574 0.950 . S
H565 C576 0.950 . S
H566 C578 0.950 . S
H567 C579 0.950 . S
C568 H560 0.950 . S
C568 C569 1.386 . S
C568 C570 1.391 . S
C569 C568 1.386 . S
C569 C573 1.393 . S
C570 H562 0.950 . S
C570 C568 1.391 . S
C570 C571 1.400 . S
C571 C570 1.400 . S
C571 C572 1.398 . S
C571 C577 1.491 . S
C572 H563 0.950 . S
C572 C571 1.398 . S
C572 C573 1.391 . S
C573 H561 0.950 . S
C573 C569 1.393 . S
C573 C572 1.391 . S
C574 H564 0.950 . S
C574 C575 1.386 . S
C574 C576 1.391 . S
C575 C574 1.386 . S
C575 C579 1.393 . S
C576 H565 0.950 . S
C576 C574 1.391 . S
C576 C577 1.400 . S
C577 C571 1.491 . S
C577 C576 1.400 . S
C577 C578 1.398 . S
C578 H566 0.950 . S
C578 C577 1.398 . S
C578 C579 1.391 . S
C579 H567 0.950 . S
C579 C575 1.393 . S
C579 C578 1.391 . S
H580 C588 0.950 . S
H581 C593 0.950 . S
H582 C590 0.950 . S
H583 C592 0.950 . S
H584 C594 0.950 . S
H585 C596 0.950 . S
H586 C598 0.950 . S
H587 C599 0.950 . S
C588 H580 0.950 . S
C588 C589 1.386 . S
C588 C590 1.391 . S
C589 C588 1.386 . S
C589 C593 1.393 . S
C590 H582 0.950 . S
C590 C588 1.391 . S
C590 C591 1.400 . S
C591 C590 1.400 . S
C591 C592 1.398 . S
C591 C597 1.491 . S
C592 H583 0.950 . S
C592 C591 1.398 . S
C592 C593 1.391 . S
C593 H581 0.950 . S
C593 C589 1.393 . S
C593 C592 1.391 . S
C594 H584 0.950 . S
C594 C595 1.386 . S
C594 C596 1.391 . S
C595 C594 1.386 . S
C595 C599 1.393 . S
C596 H585 0.950 . S
C596 C594 1.391 . S
C596 C597 1.400 . S
C597 C591 1.491 . S
C597 C596 1.400 . S
C597 C598 1.398 . S
C598 H586 0.950 . S
C598 C597 1.398 . S
C598 C599 1.391 . S
C599 H587 0.950 . S
C599 C595 1.393 . S
C599 C598 1.391 . S
H600 C608 0.950 . S
H601 C613 0.950 . S
H602 C610 0.950 . S
H603 C612 0.950 . S
H604 C614 0.950 . S
H605 C616 0.950 . S
H606 C618 0.950 . S
H607 C619 0.950 . S
C608 H600 0.950 . S
C608 C609 1.386 . S
C608 C610 1.391 . S
C609 C608 1.386 . S
C609 C613 1.393 . S
C610 H602 0.950 . S
C610 C608 1.391 . S
C610 C611 1.400 . S
C611 C610 1.400 . S
C611 C612 1.398 . S
C611 C617 1.491 . S
C612 H603 0.950 . S
C612 C611 1.398 . S
C612 C613 1.391 . S
C613 H601 0.950 . S
C613 C609 1.393 . S
C613 C612 1.391 . S
C614 H604 0.950 . S
C614 C615 1.386 . S
C614 C616 1.391 . S
C615 C614 1.386 . S
C615 C619 1.393 . S
C616 H605 0.950 . S
C616 C614 1.391 . S
C616 C617 1.400 . S
C617 C611 1.491 . S
C617 C616 1.400 . S
C617 C618 1.398 . S
C618 H606 0.950 . S
C618 C617 1.398 . S
C618 C619 1.391 . S
C619 H607 0.950 . S
C619 C615 1.393 . S
C619 C618 1.391 . S
H620 C628 0.950 . S
H621 C633 0.950 . S
H622 C630 0.950 . S
H623 C632 0.950 . S
H624 C634 0.950 . S
H625 C636 0.950 . S
H626 C638 0.950 . S
H627 C639 0.950 . S
C628 H620 0.950 . S
C628 C629 1.386 . S
C628 C630 1.391 . S
C629 C628 1.386 . S
C629 C633 1.393 . S
C630 H622 0.950 . S
C630 C628 1.391 . S
C630 C631 1.400 . S
C631 C630 1.400 . S
C631 C632 1.398 . S
C631 C637 1.491 . S
C632 H623 0.950 . S
C632 C631 1.398 . S
C632 C633 1.391 . S
C633 H621 0.950 . S
C633 C629 1.393 . S
C633 C632 1.391 . S
C634 H624 0.950 . S
C634 C635 1.386 . S
C634 C636 1.391 . S
C635 C634 1.386 . S
C635 C639 1.393 . S
C636 H625 0.950 . S
C636 C634 1.391 . S
C636 C637 1.400 . S
C637 C631 1.491 . S
C637 C636 1.400 . S
C637 C638 1.398 . S
C638 H626 0.950 . S
C638 C637 1.398 . S
C638 C639 1.391 . S
C639 H627 0.950 . S
C639 C635 1.393 . S
C639 C638 1.391 . S
H640 C648 0.950 . S
H641 C653 0.950 . S
H642 C650 0.950 . S
H643 C652 0.950 . S
H644 C654 0.950 . S
H645 C656 0.950 . S
H646 C658 0.950 . S
H647 C659 0.950 . S
C648 H640 0.950 . S
C648 C649 1.386 . S
C648 C650 1.391 . S
C649 C648 1.386 . S
C649 C653 1.393 . S
C650 H642 0.950 . S
C650 C648 1.391 . S
C650 C651 1.400 . S
C651 C650 1.400 . S
C651 C652 1.398 . S
C651 C657 1.491 . S
C652 H643 0.950 . S
C652 C651 1.398 . S
C652 C653 1.391 . S
C653 H641 0.950 . S
C653 C649 1.393 . S
C653 C652 1.391 . S
C654 H644 0.950 . S
C654 C655 1.386 . S
C654 C656 1.391 . S
C655 C654 1.386 . S
C655 C659 1.393 . S
C656 H645 0.950 . S
C656 C654 1.391 . S
C656 C657 1.400 . S
C657 C651 1.491 . S
C657 C656 1.400 . S
C657 C658 1.398 . S
C658 H646 0.950 . S
C658 C657 1.398 . S
C658 C659 1.391 . S
C659 H647 0.950 . S
C659 C655 1.393 . S
C659 C658 1.391 . S
H660 C668 0.950 . S
H661 C673 0.950 . S
H662 C670 0.950 . S
H663 C672 0.950 . S
H664 C674 0.950 . S
H665 C676 0.950 . S
H666 C678 0.950 . S
H667 C679 0.950 . S
C668 H660 0.950 . S
C668 C669 1.386 . S
C668 C670 1.391 . S
C669 C668 1.386 . S
C669 C673 1.393 . S
C670 H662 0.950 . S
C670 C668 1.391 . S
C670 C671 1.400 . S
C671 C670 1.400 . S
C671 C672 1.398 . S
C671 C677 1.491 . S
C672 H663 0.950 . S
C672 C671 1.398 . S
C672 C673 1.391 . S
C673 H661 0.950 . S
C673 C669 1.393 . S
C673 C672 1.391 . S
C674 H664 0.950 . S
C674 C675 1.386 . S
C674 C676 1.391 . S
C675 C674 1.386 . S
C675 C679 1.393 . S
C676 H665 0.950 . S
C676 C674 1.391 . S
C676 C677 1.400 . S
C677 C671 1.491 . S
C677 C676 1.400 . S
C677 C678 1.398 . S
C678 H666 0.950 . S
C678 C677 1.398 . S
C678 C679 1.391 . S
C679 H667 0.950 . S
C679 C675 1.393 . S
C679 C678 1.391 . S
H680 C688 0.950 . S
H681 C693 0.950 . S
H682 C690 0.950 . S
H683 C692 0.950 . S
H684 C694 0.950 . S
H685 C696 0.950 . S
H686 C698 0.950 . S
H687 C699 0.950 . S
C688 H680 0.950 . S
C688 C689 1.386 . S
C688 C690 1.391 . S
C689 C688 1.386 . S
C689 C693 1.393 . S
C690 H682 0.950 . S
C690 C688 1.391 . S
C690 C691 1.400 . S
C691 C690 1.400 . S
C691 C692 1.398 . S
C691 C697 1.491 . S
C692 H683 0.950 . S
C692 C691 1.398 . S
C692 C693 1.391 . S
C693 H681 0.950 . S
C693 C689 1.393 . S
C693 C692 1.391 . S
C694 H684 0.950 . S
C694 C695 1.386 . S
C694 C696 1.391 . S
C695 C694 1.386 . S
C695 C699 1.393 . S
C696 H685 0.950 . S
C696 C694 1.391 . S
C696 C697 1.400 . S
C697 C691 1.491 . S
C697 C696 1.400 . S
C697 C698 1.398 . S
C698 H686 0.950 . S
C698 C697 1.398 . S
C698 C699 1.391 . S
C699 H687 0.950 . S
C699 C695 1.393 . S
C699 C698 1.391 . S
H700 C708 0.950 . S
H701 C713 0.950 . S
H702 C710 0.950 . S
H703 C712 0.950 . S
H704 C714 0.950 . S
H705 C716 0.950 . S
H706 C718 0.950 . S
H707 C719 0.950 . S
C708 H700 0.950 . S
C708 C709 1.386 . S
C708 C710 1.391 . S
C709 C708 1.386 . S
C709 C713 1.393 . S
C710 H702 0.950 . S
C710 C708 1.391 . S
C710 C711 1.400 . S
C711 C710 1.400 . S
C711 C712 1.398 . S
C711 C717 1.491 . S
C712 H703 0.950 . S
C712 C711 1.398 . S
C712 C713 1.391 . S
C713 H701 0.950 . S
C713 C709 1.393 . S
C713 C712 1.391 . S
C714 H704 0.950 . S
C714 C715 1.386 . S
C714 C716 1.391 . S
C715 C714 1.386 . S
C715 C719 1.393 . S
C716 H705 0.950 . S
C716 C714 1.391 . S
C716 C717 1.400 . S
C717 C711 1.491 . S
C717 C716 1.400 . S
C717 C718 1.398 . S
C718 H706 0.950 . S
C718 C717 1.398 . S
C718 C719 1.391 . S
C719 H707 0.950 . S
C719 C715 1.393 . S
C719 C718 1.391 . S
H720 C728 0.950 . S
H721 C733 0.950 1_655 S
H722 C730 0.950 . S
H723 C732 0.950 1_655 S
H724 C734 0.950 1_655 S
H725 C736 0.950 1_655 S
H726 C738 0.950 . S
H727 C739 0.950 . S
C728 H720 0.950 . S
C728 C729 1.386 . S
C728 C730 1.391 . S
C729 C728 1.386 . S
C729 C733 1.393 . S
C730 H722 0.950 . S
C730 C728 1.391 . S
C730 C731 1.400 . S
C731 C730 1.400 . S
C731 C732 1.398 . S
C731 C737 1.491 . S
C732 H723 0.950 1_455 S
C732 C731 1.398 . S
C732 C733 1.391 . S
C733 H721 0.950 1_455 S
C733 C729 1.393 . S
C733 C732 1.391 . S
C734 H724 0.950 1_455 S
C734 C735 1.386 . S
C734 C736 1.391 . S
C735 C734 1.386 . S
C735 C739 1.393 . S
C736 H725 0.950 1_455 S
C736 C734 1.391 . S
C736 C737 1.400 . S
C737 C731 1.491 . S
C737 C736 1.400 . S
C737 C738 1.398 . S
C738 H726 0.950 . S
C738 C737 1.398 . S
C738 C739 1.391 . S
C739 H727 0.950 . S
C739 C735 1.393 . S
C739 C738 1.391 . S
H740 C748 0.950 . S
H741 C753 0.950 . S
H742 C750 0.950 . S
H743 C752 0.950 . S
H744 C754 0.950 . S
H745 C756 0.950 . S
H746 C758 0.950 . S
H747 C759 0.950 . S
C748 H740 0.950 . S
C748 C749 1.386 . S
C748 C750 1.391 . S
C749 C748 1.386 . S
C749 C753 1.393 . S
C750 H742 0.950 . S
C750 C748 1.391 . S
C750 C751 1.400 . S
C751 C750 1.400 . S
C751 C752 1.398 . S
C751 C757 1.491 . S
C752 H743 0.950 . S
C752 C751 1.398 . S
C752 C753 1.391 . S
C753 H741 0.950 . S
C753 C749 1.393 . S
C753 C752 1.391 . S
C754 H744 0.950 . S
C754 C755 1.386 . S
C754 C756 1.391 . S
C755 C754 1.386 . S
C755 C759 1.393 . S
C756 H745 0.950 . S
C756 C754 1.391 . S
C756 C757 1.400 . S
C757 C751 1.491 . S
C757 C756 1.400 . S
C757 C758 1.398 . S
C758 H746 0.950 . S
C758 C757 1.398 . S
C758 C759 1.391 . S
C759 H747 0.950 . S
C759 C755 1.393 . S
C759 C758 1.391 . S
H760 C768 0.950 . S
H761 C773 0.950 . S
H762 C770 0.950 . S
H763 C772 0.950 . S
H764 C774 0.950 . S
H765 C776 0.950 . S
H766 C778 0.950 . S
H767 C779 0.950 . S
C768 H760 0.950 . S
C768 C769 1.386 . S
C768 C770 1.391 . S
C769 C768 1.386 . S
C769 C773 1.393 . S
C770 H762 0.950 . S
C770 C768 1.391 . S
C770 C771 1.400 . S
C771 C770 1.400 . S
C771 C772 1.398 . S
C771 C777 1.491 . S
C772 H763 0.950 . S
C772 C771 1.398 . S
C772 C773 1.391 . S
C773 H761 0.950 . S
C773 C769 1.393 . S
C773 C772 1.391 . S
C774 H764 0.950 . S
C774 C775 1.386 . S
C774 C776 1.391 . S
C775 C774 1.386 . S
C775 C779 1.393 . S
C776 H765 0.950 . S
C776 C774 1.391 . S
C776 C777 1.400 . S
C777 C771 1.491 . S
C777 C776 1.400 . S
C777 C778 1.398 . S
C778 H766 0.950 . S
C778 C777 1.398 . S
C778 C779 1.391 . S
C779 H767 0.950 . S
C779 C775 1.393 . S
C779 C778 1.391 . S
H780 C788 0.950 . S
H781 C793 0.950 . S
H782 C790 0.950 . S
H783 C792 0.950 . S
H784 C794 0.950 . S
H785 C796 0.950 . S
H786 C798 0.950 . S
H787 C799 0.950 . S
C788 H780 0.950 . S
C788 C789 1.386 . S
C788 C790 1.391 . S
C789 C788 1.386 . S
C789 C793 1.393 1_545 S
C790 H782 0.950 . S
C790 C788 1.391 . S
C790 C791 1.400 . S
C791 C790 1.400 . S
C791 C792 1.398 1_545 S
C791 C797 1.491 . S
C792 H783 0.950 . S
C792 C791 1.398 1_565 S
C792 C793 1.391 . S
C793 H781 0.950 . S
C793 C789 1.393 1_565 S
C793 C792 1.391 . S
C794 H784 0.950 . S
C794 C795 1.386 1_565 S
C794 C796 1.391 . S
C795 C794 1.386 1_545 S
C795 C799 1.393 . S
C796 H785 0.950 . S
C796 C794 1.391 . S
C796 C797 1.400 1_565 S
C797 C791 1.491 . S
C797 C796 1.400 1_545 S
C797 C798 1.398 . S
C798 H786 0.950 . S
C798 C797 1.398 . S
C798 C799 1.391 . S
C799 H787 0.950 . S
C799 C795 1.393 . S
C799 C798 1.391 . S
H800 C808 0.950 . S
H801 C813 0.950 . S
H802 C810 0.950 . S
H803 C812 0.950 . S
H804 C814 0.950 . S
H805 C816 0.950 . S
H806 C818 0.950 . S
H807 C819 0.950 . S
C808 H800 0.950 . S
C808 C809 1.386 . S
C808 C810 1.391 . S
C809 C808 1.386 . S
C809 C813 1.393 . S
C810 H802 0.950 . S
C810 C808 1.391 . S
C810 C811 1.400 . S
C811 C810 1.400 . S
C811 C812 1.398 . S
C811 C817 1.491 . S
C812 H803 0.950 . S
C812 C811 1.398 . S
C812 C813 1.391 . S
C813 H801 0.950 . S
C813 C809 1.393 . S
C813 C812 1.391 . S
C814 H804 0.950 . S
C814 C815 1.386 . S
C814 C816 1.391 . S
C815 C814 1.386 . S
C815 C819 1.393 . S
C816 H805 0.950 . S
C816 C814 1.391 . S
C816 C817 1.400 . S
C817 C811 1.491 . S
C817 C816 1.400 . S
C817 C818 1.398 . S
C818 H806 0.950 . S
C818 C817 1.398 . S
C818 C819 1.391 . S
C819 H807 0.950 . S
C819 C815 1.393 . S
C819 C818 1.391 . S
H820 C828 0.951 1_655 S
H821 C833 0.950 . S
H822 C830 0.950 . S
H823 C832 0.950 . S
H824 C834 0.950 . S
H825 C836 0.950 . S
H826 C838 0.950 . S
H827 C839 0.950 . S
C828 H820 0.951 1_455 S
C828 C829 1.384 . S
C828 C830 1.391 1_455 S
C829 C828 1.384 . S
C829 C833 1.393 . S
C830 H822 0.950 . S
C830 C828 1.391 1_655 S
C830 C831 1.400 1_655 S
C831 C830 1.400 1_455 S
C831 C832 1.398 . S
C831 C837 1.491 . S
C832 H823 0.950 . S
C832 C831 1.398 . S
C832 C833 1.391 . S
C833 H821 0.950 . S
C833 C829 1.393 . S
C833 C832 1.391 . S
C834 H824 0.950 . S
C834 C835 1.386 . S
C834 C836 1.391 . S
C835 C834 1.386 . S
C835 C839 1.393 1_455 S
C836 H825 0.950 . S
C836 C834 1.391 . S
C836 C837 1.400 . S
C837 C831 1.491 . S
C837 C836 1.400 . S
C837 C838 1.398 1_455 S
C838 H826 0.950 . S
C838 C837 1.398 1_655 S
C838 C839 1.391 . S
C839 H827 0.950 . S
C839 C835 1.393 1_655 S
C839 C838 1.391 . S
C489 C10 3.113 . S
C495 C451 3.109 . S
C509 C55 1.210 . S
C515 C301 1.163 . S
C529 C90 1.911 . S
C535 C361 1.796 . S
C549 C19 2.992 . S
C555 C421 2.864 . S
C575 C331 1.326 . S
C569 C46 1.295 . S
C595 C391 2.095 . S
C589 C99 2.073 . S
C609 C50 1.912 . S
C615 C181 1.777 . S
C629 C95 0.641 . S
C635 C271 0.583 . S
C649 C6 1.337 . S
C655 C151 1.348 . S
C675 C211 2.052 . S
C669 C59 2.045 . S
C695 C241 0.388 . S
C689 C86 0.444 . S
C709 C15 1.265 . S
C715 C121 1.228 . S
C735 C260 1.092 1_554 S
C729 C18 1.089 . S
C749 C49 1.450 . S
C755 C140 1.473 . S
C769 C98 1.341 . S
C775 C200 1.337 . S
C795 C380 1.355 . S
C789 C58 1.349 . S
C815 C440 1.759 1_556 S
C809 C89 1.695 . S
C829 C9 1.464 . S
C835 C320 1.472 . S
