# Generated by pormake.
# Topology pyr, (3,6)-cn, num edge types: 1
# Building blocks:
#     Node 0, Type 0, BuildingBlock: CUQRIR_clean_linker_1, # of connection points: 3
#     Node 1, Type 0, BuildingBlock: CUQRIR_clean_linker_1, # of connection points: 3
#     Node 2, Type 0, BuildingBlock: CUQRIR_clean_linker_1, # of connection points: 3
#     Node 3, Type 0, BuildingBlock: CUQRIR_clean_linker_1, # of connection points: 3
#     Node 4, Type 0, BuildingBlock: CUQRIR_clean_linker_1, # of connection points: 3
#     Node 5, Type 0, BuildingBlock: CUQRIR_clean_linker_1, # of connection points: 3
#     Node 6, Type 0, BuildingBlock: CUQRIR_clean_linker_1, # of connection points: 3
#     Node 7, Type 0, BuildingBlock: CUQRIR_clean_linker_1, # of connection points: 3
#     Node 8, Type 1, BuildingBlock: VOLQOD_clean_sbu_1, # of connection points: 6
#     Node 9, Type 1, BuildingBlock: VOLQOD_clean_sbu_1, # of connection points: 6
#     Node 10, Type 1, BuildingBlock: VOLQOD_clean_sbu_1, # of connection points: 6
#     Node 11, Type 1, BuildingBlock: VOLQOD_clean_sbu_1, # of connection points: 6
#     Edge 12, Type (0, 1), BuildingBlock: ZUJKAS_clean_linker_0, # of connection points: 2
#     Edge 13, Type (0, 1), BuildingBlock: ZUJKAS_clean_linker_0, # of connection points: 2
#     Edge 14, Type (0, 1), BuildingBlock: ZUJKAS_clean_linker_0, # of connection points: 2
#     Edge 15, Type (0, 1), BuildingBlock: ZUJKAS_clean_linker_0, # of connection points: 2
#     Edge 16, Type (0, 1), BuildingBlock: ZUJKAS_clean_linker_0, # of connection points: 2
#     Edge 17, Type (0, 1), BuildingBlock: ZUJKAS_clean_linker_0, # of connection points: 2
#     Edge 18, Type (0, 1), BuildingBlock: ZUJKAS_clean_linker_0, # of connection points: 2
#     Edge 19, Type (0, 1), BuildingBlock: ZUJKAS_clean_linker_0, # of connection points: 2
#     Edge 20, Type (0, 1), BuildingBlock: ZUJKAS_clean_linker_0, # of connection points: 2
#     Edge 21, Type (0, 1), BuildingBlock: ZUJKAS_clean_linker_0, # of connection points: 2
#     Edge 22, Type (0, 1), BuildingBlock: ZUJKAS_clean_linker_0, # of connection points: 2
#     Edge 23, Type (0, 1), BuildingBlock: ZUJKAS_clean_linker_0, # of connection points: 2
#     Edge 24, Type (0, 1), BuildingBlock: ZUJKAS_clean_linker_0, # of connection points: 2
#     Edge 25, Type (0, 1), BuildingBlock: ZUJKAS_clean_linker_0, # of connection points: 2
#     Edge 26, Type (0, 1), BuildingBlock: ZUJKAS_clean_linker_0, # of connection points: 2
#     Edge 27, Type (0, 1), BuildingBlock: ZUJKAS_clean_linker_0, # of connection points: 2
#     Edge 28, Type (0, 1), BuildingBlock: ZUJKAS_clean_linker_0, # of connection points: 2
#     Edge 29, Type (0, 1), BuildingBlock: ZUJKAS_clean_linker_0, # of connection points: 2
#     Edge 30, Type (0, 1), BuildingBlock: ZUJKAS_clean_linker_0, # of connection points: 2
#     Edge 31, Type (0, 1), BuildingBlock: ZUJKAS_clean_linker_0, # of connection points: 2
#     Edge 32, Type (0, 1), BuildingBlock: ZUJKAS_clean_linker_0, # of connection points: 2
#     Edge 33, Type (0, 1), BuildingBlock: ZUJKAS_clean_linker_0, # of connection points: 2
#     Edge 34, Type (0, 1), BuildingBlock: ZUJKAS_clean_linker_0, # of connection points: 2
#     Edge 35, Type (0, 1), BuildingBlock: ZUJKAS_clean_linker_0, # of connection points: 2
# Relax obj value: 0.115
# Max RMSD: 0.211
# Mean RMSD: 0.165
data_MOF--net-pry--node1-VOLQOD_clean_sbu_1--node2-CUQRIR_clean_linker_1--edge1-ZUJKAS_clean_linker_0
_symmetry_space_group_name_H-M    P1
_symmetry_Int_Tables_number       1
_symmetry_cell_setting            triclinic
loop_
_symmetry_equiv_pos_as_xyz
'x, y, z'
_cell_length_a     45.295375
_cell_length_b     45.1609
_cell_length_c     44.674913
_cell_angle_alpha  88.262673
_cell_angle_beta   91.954474
_cell_angle_gamma 93.905428
loop_
_atom_site_label
_atom_site_type_symbol
_atom_site_fract_x
_atom_site_fract_y
_atom_site_fract_z
_atom_type_partial_charge
C0 C 0.13789 0.18235 0.15211 0.0
N1 N 0.1582 0.16239 0.15913 0.0
N2 N 0.14812 0.20213 0.13088 0.0
C3 C 0.10941 0.18437 0.16815 0.0
C4 C 0.17555 0.19369 0.12554 0.0
N5 N 0.18174 0.1697 0.14291 0.0
C6 C 0.19568 0.20792 0.10236 0.0
H7 H 0.09178 0.17001 0.15693 0.0
H8 H 0.10248 0.20747 0.1676 0.0
H9 H 0.11172 0.17658 0.19185 0.0
H10 H 0.21105 0.22485 0.1132 0.0
H11 H 0.18282 0.21898 0.08418 0.0
H12 H 0.2091 0.19119 0.09259 0.0
C13 C 0.3828 0.85675 0.66024 0.0
N14 N 0.379 0.87994 0.67779 0.0
N15 N 0.40833 0.84425 0.66792 0.0
C16 C 0.36209 0.84701 0.63479 0.0
C17 C 0.42013 0.86084 0.69067 0.0
N18 N 0.40235 0.88285 0.69655 0.0
C19 C 0.4474 0.8537 0.70891 0.0
H20 H 0.34439 0.83131 0.64372 0.0
H21 H 0.37395 0.83563 0.61761 0.0
H22 H 0.35147 0.86626 0.6241 0.0
H23 H 0.46663 0.8676 0.70041 0.0
H24 H 0.45202 0.83002 0.70711 0.0
H25 H 0.44493 0.85864 0.73284 0.0
C26 C 0.57911 0.40482 0.90672 0.0
N27 N 0.59811 0.39898 0.92985 0.0
N28 N 0.58546 0.43236 0.89489 0.0
C29 C 0.55617 0.3827 0.89379 0.0
C30 C 0.60888 0.44308 0.91188 0.0
N31 N 0.61637 0.42295 0.93336 0.0
C32 C 0.62668 0.47171 0.9052 0.0
H33 H 0.56568 0.37178 0.87475 0.0
H34 H 0.53646 0.39393 0.88518 0.0
H35 H 0.54912 0.36546 0.91078 0.0
H36 H 0.61384 0.48685 0.89061 0.0
H37 H 0.64705 0.46677 0.89372 0.0
H38 H 0.63352 0.4829 0.92634 0.0
C39 C 0.86886 0.62161 0.36432 0.0
N40 N 0.89375 0.63914 0.35972 0.0
N41 N 0.85842 0.62591 0.39174 0.0
C42 C 0.85487 0.60018 0.34202 0.0
C43 C 0.87794 0.64674 0.40368 0.0
N44 N 0.89968 0.6546 0.38427 0.0
C45 C 0.87387 0.6618 0.43274 0.0
H46 H 0.84037 0.61232 0.3261 0.0
H47 H 0.84129 0.58208 0.35337 0.0
H48 H 0.87206 0.59048 0.32897 0.0
H49 H 0.88733 0.65108 0.45067 0.0
H50 H 0.85038 0.65991 0.43921 0.0
H51 H 0.88148 0.68565 0.43109 0.0
C52 C 0.89157 0.91904 0.92139 0.0
N53 N 0.90978 0.91196 0.89973 0.0
N54 N 0.87676 0.94307 0.91284 0.0
C55 C 0.88565 0.90041 0.94931 0.0
C56 C 0.88635 0.95016 0.88504 0.0
N57 N 0.90623 0.93104 0.8769 0.0
C58 C 0.87505 0.97488 0.86546 0.0
H59 H 0.87355 0.87919 0.94304 0.0
H60 H 0.87237 0.91195 0.96518 0.0
H61 H 0.90685 0.89498 0.96064 0.0
H62 H 0.86884 0.99335 0.87926 0.0
H63 H 0.85497 0.96635 0.85271 0.0
H64 H 0.89195 0.98341 0.84939 0.0
C65 C 0.6719 0.1442 0.45272 0.0
N66 N 0.68004 0.12334 0.43404 0.0
N67 N 0.6468 0.15625 0.44211 0.0
C68 C 0.68911 0.15358 0.48063 0.0
C69 C 0.64015 0.142 0.41624 0.0
N70 N 0.66035 0.12217 0.41138 0.0
C71 C 0.61495 0.1487 0.39473 0.0
H72 H 0.67514 0.16499 0.49596 0.0
H73 H 0.7082 0.16889 0.47424 0.0
H74 H 0.69796 0.13412 0.49269 0.0
H75 H 0.61154 0.17281 0.39391 0.0
H76 H 0.59437 0.1366 0.40254 0.0
H77 H 0.61885 0.14152 0.37178 0.0
C78 C 0.38431 0.60195 0.11529 0.0
N79 N 0.40768 0.61837 0.127 0.0
N80 N 0.37667 0.61243 0.08765 0.0
C81 C 0.36692 0.57761 0.13203 0.0
C82 C 0.39629 0.63597 0.08303 0.0
N83 N 0.41532 0.63949 0.1069 0.0
C84 C 0.39365 0.6584 0.05764 0.0
H85 H 0.3817 0.56529 0.14751 0.0
H86 H 0.35514 0.56204 0.11621 0.0
H87 H 0.35024 0.58762 0.14551 0.0
H88 H 0.38567 0.67908 0.06635 0.0
H89 H 0.37809 0.65002 0.03964 0.0
H90 H 0.41568 0.664 0.0481 0.0
C91 C 0.07455 0.39437 0.62321 0.0
N92 N 0.09778 0.38803 0.60682 0.0
N93 N 0.07919 0.42159 0.63508 0.0
C94 C 0.0487 0.37278 0.63006 0.0
C95 C 0.10621 0.4315 0.62543 0.0
N96 N 0.11775 0.41092 0.60856 0.0
C97 C 0.12172 0.46079 0.63375 0.0
H98 H 0.03828 0.36426 0.60894 0.0
H99 H 0.03169 0.38317 0.64274 0.0
H100 H 0.05675 0.35354 0.64325 0.0
H101 H 0.13306 0.45824 0.656 0.0
H102 H 0.10562 0.47802 0.63542 0.0
H103 H 0.1383 0.46846 0.61701 0.0
O104 O 0.04268 0.07079 0.54146 0.0
Zn105 Zn 0.02307 0.02991 0.53461 0.0
O106 O 0.04745 0.0063 0.51053 0.0
Zn107 Zn 0.02703 0.99833 0.47209 0.0
Zn108 Zn 0.08553 0.02839 0.50374 0.0
Zn109 Zn 0.05416 0.96862 0.5317 0.0
O110 O 0.02122 0.95443 0.46583 0.0
O111 O 0.0405 0.93318 0.50675 0.0
O112 O 0.98358 0.03532 0.51389 0.0
O113 O 0.98652 0.01484 0.46965 0.0
O114 O 0.05124 0.01531 0.43791 0.0
O115 O 0.09352 0.03268 0.45956 0.0
O116 O 0.11912 0.00849 0.52523 0.0
O117 O 0.01497 0.00964 0.57461 0.0
O118 O 0.09731 0.96643 0.54312 0.0
O119 O 0.0331 0.96551 0.5708 0.0
C120 C 0.06741 0.08346 0.53388 0.0
C121 C 0.02765 0.93128 0.48097 0.0
C122 C 0.07743 0.02731 0.43614 0.0
C123 C 0.9722 0.02858 0.48833 0.0
C124 C 0.12034 0.98388 0.5398 0.0
C125 C 0.01946 0.98384 0.58541 0.0
O126 O 0.08571 0.06979 0.51933 0.0
O127 O 0.51654 0.08882 0.02245 0.0
Zn128 Zn 0.49759 0.04698 0.0283 0.0
O129 O 0.52387 0.02201 0.05227 0.0
Zn130 Zn 0.53405 0.98893 0.02852 0.0
Zn131 Zn 0.56025 0.04528 0.06332 0.0
Zn132 Zn 0.50448 0.00677 0.08886 0.0
O133 O 0.52276 0.95002 0.04927 0.0
O134 O 0.4984 0.96189 0.08903 0.0
O135 O 0.48688 0.02953 0.98759 0.0
O136 O 0.5125 0.98932 0.98852 0.0
O137 O 0.5776 0.9903 0.02078 0.0
O138 O 0.59568 0.03055 0.04407 0.0
O139 O 0.56843 0.04353 0.10764 0.0
O140 O 0.45973 0.05058 0.04997 0.0
O141 O 0.52988 0.01677 0.12583 0.0
O142 O 0.46495 0.02457 0.09269 0.0
C143 C 0.54013 0.10182 0.03356 0.0
C144 C 0.5081 0.94249 0.07242 0.0
C145 C 0.59929 0.00831 0.02811 0.0
C146 C 0.49472 0.00638 0.97518 0.0
C147 C 0.55471 0.03139 0.12967 0.0
C148 C 0.45 0.04115 0.07521 0.0
O149 O 0.55803 0.0878 0.05031 0.0
O150 O 0.52424 0.5092 0.57246 0.0
Zn151 Zn 0.52037 0.52706 0.531 0.0
O152 O 0.4927 0.50284 0.50599 0.0
Zn153 Zn 0.5129 0.49081 0.47081 0.0
Zn154 Zn 0.4789 0.46745 0.52887 0.0
Zn155 Zn 0.45889 0.52565 0.49373 0.0
O156 O 0.49374 0.5066 0.43288 0.0
O157 O 0.4581 0.53308 0.44886 0.0
O158 O 0.56078 0.53253 0.51353 0.0
O159 O 0.55523 0.50781 0.47134 0.0
O160 O 0.51484 0.44623 0.46994 0.0
O161 O 0.49652 0.43132 0.51383 0.0
O162 O 0.4344 0.46124 0.52618 0.0
O163 O 0.5055 0.56722 0.53655 0.0
O164 O 0.42035 0.50342 0.50496 0.0
O165 O 0.46126 0.56553 0.51352 0.0
C166 C 0.51047 0.4876 0.58612 0.0
C167 C 0.47288 0.52379 0.42767 0.0
C168 C 0.50904 0.42591 0.48969 0.0
C169 C 0.57122 0.52366 0.48953 0.0
C170 C 0.41416 0.47786 0.51694 0.0
C171 C 0.48154 0.57916 0.5293 0.0
O172 O 0.49141 0.47043 0.57244 0.0
O173 O 0.97617 0.53642 0.06626 0.0
Zn174 Zn 0.97511 0.51488 0.02711 0.0
O175 O 0.99443 0.53966 0.99561 0.0
Zn176 Zn 0.96577 0.54908 0.9633 0.0
Zn177 Zn 0.01197 0.57628 0.01298 0.0
Zn178 Zn 0.02572 0.51839 0.97896 0.0
O179 O 0.97723 0.53348 0.92354 0.0
O180 O 0.01946 0.51299 0.93487 0.0
O181 O 0.9321 0.50533 0.01563 0.0
O182 O 0.92521 0.53036 0.97261 0.0
O183 O 0.96389 0.59361 0.95734 0.0
O184 O 0.99777 0.61179 0.9902 0.0
O185 O 0.05657 0.57877 0.01184 0.0
O186 O 0.99485 0.47614 0.03414 0.0
O187 O 0.06544 0.53979 0.98536 0.0
O188 O 0.0285 0.47843 0.99904 0.0
C189 C 0.98668 0.56202 0.07415 0.0
C190 C 0.9994 0.51992 0.91581 0.0
C191 C 0.97855 0.61559 0.96921 0.0
C192 C 0.91532 0.51328 0.99377 0.0
C193 C 0.07456 0.56295 0.99932 0.0
C194 C 0.01559 0.46476 0.02077 0.0
O195 O 0.00057 0.5796 0.05586 0.0
H196 H 0.19464 0.1589 0.20768 0.0
H197 H 0.18534 0.12811 0.25306 0.0
H198 H 0.10747 0.08623 0.20968 0.0
H199 H 0.11685 0.11724 0.16446 0.0
H200 H 0.09651 0.11355 0.26236 0.0
H201 H 0.18988 0.04082 0.2799 0.0
H202 H 0.20089 0.07931 0.27287 0.0
H203 H 0.18123 0.05832 0.24405 0.0
C204 C 0.17623 0.14231 0.20764 0.0
C205 C 0.15639 0.14024 0.18288 0.0
C206 C 0.17091 0.12474 0.23346 0.0
C207 C 0.1458 0.10474 0.23466 0.0
C208 C 0.12702 0.10142 0.20916 0.0
H209 H 0.05173 0.01476 0.38129 0.0
H210 H 0.06933 0.03129 0.33211 0.0
C211 C 0.13233 0.11902 0.18342 0.0
C212 C 0.13673 0.09066 0.26359 0.0
H213 H 0.15849 0.04489 0.32126 0.0
C214 C 0.1099 0.09827 0.27508 0.0
C215 C 0.15446 0.07109 0.28028 0.0
C216 C 0.18312 0.06165 0.26859 0.0
C217 C 0.10049 0.08724 0.30307 0.0
C218 C 0.11812 0.06757 0.31977 0.0
C219 C 0.14499 0.0599 0.30832 0.0
C220 C 0.10901 0.05519 0.34936 0.0
C221 C 0.07217 0.09748 0.31488 0.0
C222 C 0.12607 0.06223 0.37528 0.0
C223 C 0.11617 0.05266 0.4035 0.0
C224 C 0.08901 0.03586 0.40624 0.0
C225 C 0.07255 0.02796 0.38007 0.0
C226 C 0.08254 0.03742 0.35191 0.0
H227 H 0.06537 0.11803 0.30302 0.0
H228 H 0.05413 0.0799 0.31153 0.0
H229 H 0.07456 0.10175 0.33923 0.0
H230 H 0.14662 0.07585 0.37374 0.0
H231 H 0.12947 0.05902 0.42317 0.0
H232 H 0.4501 0.91966 0.70927 0.0
H233 H 0.46014 0.94672 0.75571 0.0
H234 H 0.37248 0.9191 0.78501 0.0
H235 H 0.36307 0.89093 0.73913 0.0
H236 H 0.43482 0.99094 0.78545 0.0
H237 H 0.42543 0.88372 0.85003 0.0
H238 H 0.42632 0.88559 0.80971 0.0
H239 H 0.39284 0.89206 0.82827 0.0
C240 C 0.43297 0.91972 0.72557 0.0
C241 C 0.40601 0.90302 0.72096 0.0
C242 C 0.4386 0.93525 0.75196 0.0
C243 C 0.41728 0.93441 0.77412 0.0
C244 C 0.38946 0.91955 0.76849 0.0
H245 H 0.44944 0.03096 0.94248 0.0
H246 H 0.42853 0.01561 0.89355 0.0
C247 C 0.38394 0.90379 0.74217 0.0
C248 C 0.42528 0.94689 0.80391 0.0
H249 H 0.43629 0.92682 0.87754 0.0
C250 C 0.43493 0.97703 0.80567 0.0
C251 C 0.42582 0.92855 0.83017 0.0
C252 C 0.41732 0.89564 0.82956 0.0
C253 C 0.44553 0.98923 0.83291 0.0
C254 C 0.446 0.97086 0.85913 0.0
C255 C 0.43577 0.9409 0.85744 0.0
C256 C 0.45902 0.98142 0.88818 0.0
C257 C 0.45725 0.0213 0.83314 0.0
C258 C 0.48282 0.96708 0.9016 0.0
C259 C 0.49454 0.97551 0.92958 0.0
C260 C 0.48277 0.99857 0.94487 0.0
C261 C 0.45915 0.01324 0.93124 0.0
C262 C 0.44726 0.0046 0.9032 0.0
H263 H 0.46142 0.03041 0.81017 0.0
H264 H 0.44073 0.03474 0.84319 0.0
H265 H 0.47814 0.02389 0.84683 0.0
H266 H 0.49227 0.94914 0.89043 0.0
H267 H 0.51279 0.96378 0.93927 0.0
H268 H 0.6202 0.43668 0.8475 0.0
H269 H 0.60539 0.44898 0.79555 0.0
H270 H 0.51666 0.46066 0.82326 0.0
H271 H 0.53196 0.44911 0.87552 0.0
H272 H 0.56228 0.41705 0.76251 0.0
H273 H 0.53551 0.53482 0.77015 0.0
H274 H 0.55679 0.51611 0.79897 0.0
H275 H 0.51724 0.5095 0.79646 0.0
C276 C 0.59777 0.44259 0.84243 0.0
C277 C 0.57718 0.44229 0.86517 0.0
C278 C 0.58927 0.44939 0.81288 0.0
C279 C 0.56 0.45597 0.80563 0.0
C280 C 0.53947 0.45616 0.82848 0.0
H281 H 0.48337 0.44605 0.62391 0.0
H282 H 0.49371 0.43828 0.67756 0.0
C283 C 0.54808 0.44945 0.85815 0.0
C284 C 0.5508 0.46073 0.77388 0.0
H285 H 0.52426 0.51178 0.72381 0.0
C286 C 0.55392 0.43774 0.75401 0.0
C287 C 0.54012 0.48782 0.76294 0.0
C288 C 0.53741 0.51362 0.78313 0.0
C289 C 0.54682 0.44115 0.72339 0.0
C290 C 0.53576 0.46809 0.71249 0.0
C291 C 0.53253 0.49107 0.73235 0.0
C292 C 0.52868 0.4733 0.68029 0.0
C293 C 0.55202 0.41622 0.70284 0.0
C294 C 0.54445 0.49601 0.66429 0.0
C295 C 0.53852 0.50064 0.63371 0.0
C296 C 0.51662 0.48265 0.61857 0.0
C297 C 0.50056 0.46014 0.63481 0.0
C298 C 0.50647 0.45559 0.66545 0.0
H299 H 0.56698 0.40016 0.71347 0.0
H300 H 0.53056 0.40399 0.69726 0.0
H301 H 0.56175 0.42499 0.68161 0.0
H302 H 0.56165 0.50993 0.6754 0.0
H303 H 0.55125 0.51824 0.62195 0.0
H304 H 0.94498 0.61464 0.35128 0.0
H305 H 0.96639 0.60674 0.30258 0.0
H306 H 0.89994 0.65868 0.25896 0.0
H307 H 0.87809 0.66531 0.30763 0.0
H308 H 0.90002 0.60648 0.23507 0.0
H309 H 0.01595 0.65365 0.24269 0.0
H310 H 0.0073 0.62786 0.27295 0.0
H311 H 0.98874 0.66185 0.2693 0.0
C312 C 0.9358 0.62514 0.33128 0.0
C313 C 0.9103 0.64084 0.33285 0.0
C314 C 0.94797 0.62072 0.30351 0.0
C315 C 0.93498 0.63237 0.27704 0.0
C316 C 0.91043 0.64956 0.27902 0.0
H317 H 0.99758 0.61783 0.09609 0.0
H318 H 0.98599 0.63501 0.14544 0.0
C319 C 0.89808 0.65356 0.30669 0.0
C320 C 0.9443 0.62348 0.24721 0.0
H321 H 0.00387 0.62 0.20284 0.0
C322 C 0.92271 0.60973 0.22796 0.0
C323 C 0.97383 0.62781 0.23779 0.0
C324 C 0.99772 0.64387 0.25665 0.0
C325 C 0.92982 0.59987 0.19982 0.0
C326 C 0.95958 0.60298 0.19094 0.0
C327 C 0.98114 0.61722 0.20987 0.0
C328 C 0.96847 0.592 0.16181 0.0
C329 C 0.90521 0.58668 0.17968 0.0
C330 C 0.96317 0.56195 0.15487 0.0
C331 C 0.96948 0.55209 0.12657 0.0
C332 C 0.98166 0.57202 0.10478 0.0
C333 C 0.98812 0.60188 0.11227 0.0
C334 C 0.98156 0.61176 0.14051 0.0
H335 H 0.88324 0.59366 0.18596 0.0
H336 H 0.90873 0.59327 0.15585 0.0
H337 H 0.90461 0.56211 0.18181 0.0
H338 H 0.95376 0.54616 0.17123 0.0
H339 H 0.96455 0.52889 0.12171 0.0
H340 H 0.18614 0.1137 0.126 0.0
H341 H 0.23209 0.08905 0.11943 0.0
H342 H 0.28268 0.16591 0.15378 0.0
H343 H 0.23665 0.19083 0.15883 0.0
H344 H 0.30483 0.15107 0.1047 0.0
H345 H 0.2882 0.04846 0.17431 0.0
H346 H 0.25845 0.05183 0.14721 0.0
H347 H 0.26441 0.07876 0.17614 0.0
C348 C 0.20716 0.12489 0.13257 0.0
C349 C 0.20823 0.15395 0.14286 0.0
C350 C 0.23336 0.11082 0.12907 0.0
C351 C 0.26095 0.1254 0.13653 0.0
C352 C 0.26174 0.15415 0.1479 0.0
H353 H 0.42953 0.04187 0.13219 0.0
H354 H 0.38389 0.06207 0.14799 0.0
C355 C 0.23559 0.16836 0.15086 0.0
C356 C 0.28902 0.11201 0.12982 0.0
H357 H 0.32621 0.04876 0.13795 0.0
C358 C 0.30958 0.1288 0.1123 0.0
C359 C 0.29555 0.08309 0.13998 0.0
C360 C 0.27561 0.06465 0.16072 0.0
C361 C 0.33609 0.11738 0.10415 0.0
C362 C 0.34177 0.08781 0.11273 0.0
C363 C 0.32162 0.07122 0.13091 0.0
C364 C 0.36855 0.07389 0.10306 0.0
C365 C 0.35792 0.13741 0.08686 0.0
C366 C 0.3747 0.07298 0.07252 0.0
C367 C 0.40094 0.06192 0.06348 0.0
C368 C 0.42126 0.05082 0.08476 0.0
C369 C 0.41436 0.0503 0.11525 0.0
C370 C 0.38828 0.06184 0.12431 0.0
H371 H 0.35489 0.16121 0.09062 0.0
H372 H 0.38111 0.13288 0.09327 0.0
H373 H 0.35432 0.13365 0.06255 0.0
H374 H 0.35938 0.08122 0.05562 0.0
H375 H 0.40537 0.06221 0.0398 0.0
H376 H 0.37995 0.93639 0.65691 0.0
H377 H 0.33632 0.96152 0.63762 0.0
H378 H 0.27941 0.88873 0.67192 0.0
H379 H 0.32301 0.86379 0.69082 0.0
H380 H 0.27824 0.8998 0.60714 0.0
H381 H 0.26266 0.00122 0.6712 0.0
H382 H 0.29965 0.99431 0.66093 0.0
H383 H 0.28091 0.96995 0.68759 0.0
C384 C 0.358 0.92665 0.66146 0.0
C385 C 0.35448 0.89843 0.67535 0.0
C386 C 0.33316 0.94085 0.65041 0.0
C387 C 0.30469 0.92694 0.6534 0.0
C388 C 0.30119 0.89987 0.66955 0.0
H389 H 0.13062 0.93411 0.57381 0.0
H390 H 0.17638 0.92213 0.60034 0.0
C391 C 0.32594 0.88574 0.68046 0.0
C392 C 0.27925 0.93758 0.63552 0.0
H393 H 0.23063 0.99211 0.62908 0.0
C394 C 0.26781 0.91999 0.61192 0.0
C395 C 0.26615 0.96415 0.64154 0.0
C396 C 0.27775 0.98357 0.66676 0.0
C397 C 0.24324 0.928 0.59441 0.0
C398 C 0.22934 0.95399 0.60108 0.0
C399 C 0.24128 0.97211 0.62415 0.0
C400 C 0.20162 0.96182 0.58516 0.0
C401 C 0.23246 0.9086 0.5688 0.0
C402 C 0.2005 0.98842 0.56824 0.0
C403 C 0.17426 0.99543 0.55301 0.0
C404 C 0.14864 0.97602 0.55464 0.0
C405 C 0.14993 0.94947 0.5718 0.0
C406 C 0.1761 0.94253 0.58698 0.0
H407 H 0.25014 0.89489 0.56131 0.0
H408 H 0.21379 0.89328 0.57629 0.0
H409 H 0.2245 0.92213 0.54938 0.0
H410 H 0.21997 0.00363 0.56666 0.0
H411 H 0.17401 0.01615 0.54017 0.0
H412 H 0.66471 0.39663 0.91867 0.0
H413 H 0.7151 0.40783 0.93882 0.0
H414 H 0.68095 0.46384 0.00433 0.0
H415 H 0.63063 0.45318 0.98318 0.0
H416 H 0.72246 0.49308 0.97412 0.0
H417 H 0.76498 0.38567 0.0104 0.0
H418 H 0.75031 0.38412 0.97268 0.0
H419 H 0.72607 0.38994 0.00282 0.0
C420 C 0.66809 0.41042 0.93807 0.0
C421 C 0.64419 0.42388 0.94975 0.0
C422 C 0.69677 0.41678 0.94966 0.0
C423 C 0.70188 0.43641 0.9734 0.0
C424 C 0.67758 0.44851 0.98615 0.0
H425 H 0.88459 0.48149 0.03731 0.0
H426 H 0.83236 0.46358 0.03554 0.0
C427 C 0.64892 0.44234 0.97431 0.0
C428 C 0.73258 0.44745 0.98187 0.0
H429 H 0.802 0.4251 0.99806 0.0
C430 C 0.73972 0.47819 0.97989 0.0
C431 C 0.75514 0.42817 0.98972 0.0
C432 C 0.74864 0.39518 0.99434 0.0
C433 C 0.76893 0.49005 0.98416 0.0
C434 C 0.7918 0.4706 0.98975 0.0
C435 C 0.78452 0.43998 0.99324 0.0
C436 C 0.82344 0.48155 0.99096 0.0
C437 C 0.77496 0.52334 0.98249 0.0
C438 C 0.83586 0.49723 0.96632 0.0
C439 C 0.86561 0.50768 0.96731 0.0
C440 C 0.8837 0.50229 0.99284 0.0
C441 C 0.8713 0.48611 0.01732 0.0
C442 C 0.84145 0.47582 0.01636 0.0
H443 H 0.75501 0.53494 0.98785 0.0
H444 H 0.7934 0.5307 0.99813 0.0
H445 H 0.78112 0.53025 0.95936 0.0
H446 H 0.82258 0.50124 0.94618 0.0
H447 H 0.87445 0.51977 0.94793 0.0
H448 H 0.80443 0.6301 0.36578 0.0
H449 H 0.75688 0.61136 0.38613 0.0
H450 H 0.8025 0.57791 0.46515 0.0
H451 H 0.85022 0.59629 0.44434 0.0
H452 H 0.75822 0.53727 0.44004 0.0
H453 H 0.71614 0.64805 0.45596 0.0
H454 H 0.72853 0.64281 0.41884 0.0
H455 H 0.75468 0.64292 0.45003 0.0
C456 C 0.80417 0.61851 0.38735 0.0
C457 C 0.83071 0.61443 0.40357 0.0
C458 C 0.77712 0.60811 0.39907 0.0
C459 C 0.77621 0.59364 0.4273 0.0
C460 C 0.80278 0.58917 0.44339 0.0
H461 H 0.61199 0.55777 0.52243 0.0
H462 H 0.66293 0.57316 0.50968 0.0
C463 C 0.82988 0.59964 0.43163 0.0
C464 C 0.74743 0.58298 0.43976 0.0
H465 H 0.68102 0.60644 0.45973 0.0
C466 C 0.7414 0.55236 0.44461 0.0
C467 C 0.72574 0.60279 0.44608 0.0
C468 C 0.73162 0.63601 0.44275 0.0
C469 C 0.71376 0.54092 0.45464 0.0
C470 C 0.69156 0.56066 0.45953 0.0
C471 C 0.69799 0.59134 0.45568 0.0
C472 C 0.66126 0.54998 0.46793 0.0
C473 C 0.70857 0.50786 0.45995 0.0
C474 C 0.64341 0.53198 0.44857 0.0
C475 C 0.6143 0.52313 0.45576 0.0
C476 C 0.60239 0.53229 0.48238 0.0
C477 C 0.62042 0.55026 0.50178 0.0
C478 C 0.64955 0.55909 0.49455 0.0
H479 H 0.72976 0.49699 0.46341 0.0
H480 H 0.69475 0.50277 0.47975 0.0
H481 H 0.69676 0.49804 0.44006 0.0
H482 H 0.65182 0.52523 0.4276 0.0
H483 H 0.60104 0.5094 0.44023 0.0
H484 H 0.09341 0.20174 0.10528 0.0
H485 H 0.06765 0.24494 0.08628 0.0
H486 H 0.1449 0.30219 0.10878 0.0
H487 H 0.1701 0.25907 0.12885 0.0
H488 H 0.09397 0.32375 0.12732 0.0
H489 H 0.08081 0.29169 0.0084 0.0
H490 H 0.06568 0.26417 0.03448 0.0
H491 H 0.10494 0.27343 0.03495 0.0
C492 C 0.10475 0.22361 0.10605 0.0
C493 C 0.13368 0.22725 0.11828 0.0
C494 C 0.0902 0.24818 0.09501 0.0
C495 C 0.10453 0.27673 0.0957 0.0
C496 C 0.1335 0.28033 0.10788 0.0
H497 H 0.06216 0.43668 0.00041 0.0
H498 H 0.08145 0.39046 0.01936 0.0
C499 C 0.14796 0.25578 0.11908 0.0
C500 C 0.08913 0.30301 0.08451 0.0
H501 H 0.05652 0.33385 0.02213 0.0
C502 C 0.08575 0.32599 0.10432 0.0
C503 C 0.07864 0.30592 0.05444 0.0
C504 C 0.0829 0.28264 0.03173 0.0
C505 C 0.07232 0.35193 0.09486 0.0
C506 C 0.0614 0.35463 0.06492 0.0
C507 C 0.06462 0.33157 0.04516 0.0
C508 C 0.04849 0.38209 0.05305 0.0
C509 C 0.07088 0.37657 0.11673 0.0
C510 C 0.02316 0.39251 0.06537 0.0
C511 C 0.01209 0.41918 0.05469 0.0
C512 C 0.02602 0.4357 0.0313 0.0
C513 C 0.05086 0.42463 0.01849 0.0
C514 C 0.06195 0.39815 0.02926 0.0
H515 H 0.08636 0.3739 0.13631 0.0
H516 H 0.07622 0.39857 0.10573 0.0
H517 H 0.04811 0.37636 0.12518 0.0
H518 H 0.01205 0.38011 0.08333 0.0
H519 H 0.9928 0.42694 0.06491 0.0
H520 H 0.59206 0.38724 0.9887 0.0
H521 H 0.588 0.33761 0.01333 0.0
H522 H 0.60458 0.29816 0.92922 0.0
H523 H 0.60928 0.34763 0.90516 0.0
H524 H 0.54553 0.29474 0.99801 0.0
H525 H 0.65589 0.25181 0.9867 0.0
H526 H 0.64955 0.29073 0.98175 0.0
H527 H 0.64137 0.26565 0.95154 0.0
C528 C 0.59561 0.36787 0.97593 0.0
C529 C 0.60068 0.37083 0.9452 0.0
C530 C 0.59318 0.33966 0.98983 0.0
C531 C 0.59616 0.31419 0.97315 0.0
C532 C 0.60274 0.31744 0.94269 0.0
H533 H 0.51222 0.13835 0.99306 0.0
H534 H 0.52587 0.1906 0.98094 0.0
C535 C 0.60519 0.34558 0.9289 0.0
C536 C 0.58932 0.28415 0.98645 0.0
H537 H 0.61543 0.21515 0.99429 0.0
C538 C 0.56097 0.27743 0.99763 0.0
C539 C 0.60954 0.26165 0.98619 0.0
C540 C 0.64089 0.2679 0.97618 0.0
C541 C 0.55189 0.24853 0.00745 0.0
C542 C 0.57148 0.22564 0.00541 0.0
C543 C 0.60025 0.23262 0.99541 0.0
C544 C 0.56256 0.19425 0.01328 0.0
C545 C 0.52141 0.24284 0.01991 0.0
C546 C 0.57902 0.17879 0.03499 0.0
C547 C 0.57151 0.14889 0.0417 0.0
C548 C 0.54736 0.13377 0.02679 0.0
C549 C 0.5308 0.14936 0.00511 0.0
C550 C 0.53846 0.17928 0.99829 0.0
H551 H 0.51298 0.2635 0.02828 0.0
H552 H 0.50584 0.2345 0.00189 0.0
H553 H 0.52139 0.22595 0.03849 0.0
H554 H 0.59776 0.18987 0.04674 0.0
H555 H 0.58476 0.13764 0.05855 0.0
H556 H 0.90532 0.70362 0.34873 0.0
H557 H 0.93482 0.74969 0.36024 0.0
H558 H 0.97046 0.70751 0.44024 0.0
H559 H 0.94153 0.66127 0.42809 0.0
H560 H 0.92473 0.77862 0.41158 0.0
H561 H 0.04323 0.7553 0.40913 0.0
H562 H 0.01424 0.732 0.39119 0.0
H563 H 0.02127 0.72863 0.43096 0.0
C564 C 0.92049 0.70392 0.36799 0.0
C565 C 0.92151 0.67904 0.38744 0.0
C566 C 0.9371 0.73024 0.37473 0.0
C567 C 0.95503 0.732 0.40099 0.0
C568 C 0.9573 0.70655 0.41955 0.0
H569 H 0.03341 0.87626 0.50774 0.0
H570 H 0.01712 0.82783 0.48738 0.0
C571 C 0.94073 0.68023 0.41273 0.0
C572 C 0.96783 0.76126 0.41111 0.0
H573 H 0.03212 0.79948 0.43346 0.0
C574 C 0.94826 0.78329 0.41601 0.0
C575 C 0.99847 0.76714 0.41731 0.0
C576 C 0.02058 0.74462 0.41164 0.0
C577 C 0.95837 0.81087 0.42739 0.0
C578 C 0.989 0.81681 0.43356 0.0
C579 C 0.00865 0.79484 0.42867 0.0
C580 C 0.00081 0.84585 0.44504 0.0
C581 C 0.93606 0.83313 0.43348 0.0
C582 C 0.9976 0.87191 0.42772 0.0
C583 C 0.0067 0.89954 0.43927 0.0
C584 C 0.01943 0.9017 0.46838 0.0
C585 C 0.02357 0.87543 0.48532 0.0
C586 C 0.01436 0.84774 0.47371 0.0
H587 H 0.91325 0.82253 0.43469 0.0
H588 H 0.9417 0.84454 0.4548 0.0
H589 H 0.93616 0.85018 0.41506 0.0
H590 H 0.98765 0.87088 0.40534 0.0
H591 H 0.00344 0.91923 0.42544 0.0
H592 H 0.46072 0.83938 0.64233 0.0
H593 H 0.47701 0.79523 0.61809 0.0
H594 H 0.3956 0.7464 0.64198 0.0
H595 H 0.37965 0.79035 0.66635 0.0
H596 H 0.44813 0.71529 0.6531 0.0
H597 H 0.43981 0.76383 0.53736 0.0
H598 H 0.46176 0.78548 0.56416 0.0
H599 H 0.42258 0.77932 0.56866 0.0
C600 C 0.44662 0.81903 0.64254 0.0
C601 C 0.41897 0.818 0.65587 0.0
C602 C 0.45574 0.79402 0.62859 0.0
C603 C 0.43726 0.76776 0.6279 0.0
C604 C 0.41006 0.76652 0.64213 0.0
H605 H 0.43254 0.61143 0.52104 0.0
H606 H 0.42332 0.65819 0.54431 0.0
C607 C 0.40096 0.79149 0.65594 0.0
C608 C 0.44591 0.74152 0.61216 0.0
H609 H 0.45679 0.71558 0.54263 0.0
C610 C 0.45021 0.71535 0.62898 0.0
C611 C 0.44816 0.74168 0.58065 0.0
C612 C 0.44264 0.76896 0.5615 0.0
C613 C 0.45675 0.68924 0.6151 0.0
C614 C 0.45933 0.68948 0.58363 0.0
C615 C 0.45498 0.71562 0.56678 0.0
C616 C 0.46585 0.66248 0.56786 0.0
C617 C 0.46015 0.66141 0.63411 0.0
C618 C 0.4931 0.64992 0.57284 0.0
C619 C 0.49846 0.62329 0.55961 0.0
C620 C 0.47666 0.60871 0.54108 0.0
C621 C 0.44976 0.62198 0.53526 0.0
C622 C 0.44445 0.64869 0.54851 0.0
H623 H 0.45136 0.66332 0.65684 0.0
H624 H 0.44854 0.64189 0.62327 0.0
H625 H 0.48398 0.65726 0.63666 0.0
H626 H 0.51005 0.66052 0.58736 0.0
H627 H 0.51952 0.61385 0.56444 0.0
H628 H 0.87818 0.92828 0.82278 0.0
H629 H 0.9012 0.93176 0.77388 0.0
H630 H 0.98767 0.93331 0.81775 0.0
H631 H 0.96438 0.93093 0.86681 0.0
H632 H 0.98366 0.97784 0.77639 0.0
H633 H 0.94104 0.87233 0.72619 0.0
H634 H 0.91172 0.89272 0.73944 0.0
H635 H 0.93893 0.87893 0.76569 0.0
C636 C 0.90208 0.92931 0.82183 0.0
C637 C 0.91966 0.92989 0.84829 0.0
C638 C 0.91521 0.93086 0.79398 0.0
C639 C 0.94616 0.93246 0.79213 0.0
C640 C 0.96374 0.93197 0.81866 0.0
H641 H 0.02995 0.93317 0.61826 0.0
H642 H 0.01444 0.91991 0.6691 0.0
C643 C 0.95054 0.93054 0.84656 0.0
C644 C 0.96 0.93725 0.76263 0.0
H645 H 0.95914 0.91094 0.69175 0.0
C646 C 0.97863 0.963 0.75799 0.0
C647 C 0.95375 0.91769 0.73874 0.0
C648 C 0.93552 0.88872 0.74284 0.0
C649 C 0.99016 0.97036 0.72978 0.0
C650 C 0.98229 0.95182 0.70542 0.0
C651 C 0.96475 0.92539 0.71035 0.0
C652 C 0.99153 0.9598 0.67454 0.0
C653 C 0.01064 0.99796 0.72639 0.0
C654 C 0.98333 0.98638 0.66053 0.0
C655 C 0.99225 0.99411 0.63154 0.0
C656 C 0.00928 0.97523 0.61583 0.0
C657 C 0.01689 0.94827 0.6297 0.0
C658 C 0.00806 0.94063 0.65877 0.0
H659 H 0.02145 0.00436 0.74816 0.0
H660 H 0.0281 0.99479 0.71015 0.0
H661 H 0.99766 0.01665 0.71803 0.0
H662 H 0.96993 0.00115 0.672 0.0
H663 H 0.98576 0.0149 0.62148 0.0
H664 H 0.68323 0.1351 0.35767 0.0
H665 H 0.66999 0.10849 0.31145 0.0
H666 H 0.62089 0.04053 0.36273 0.0
H667 H 0.6343 0.06735 0.40891 0.0
H668 H 0.67137 0.04543 0.29108 0.0
H669 H 0.55935 0.08498 0.30789 0.0
H670 H 0.59195 0.10014 0.3279 0.0
H671 H 0.57573 0.06409 0.3383 0.0
C672 C 0.67079 0.11379 0.35902 0.0
C673 C 0.65996 0.10287 0.3865 0.0
C674 C 0.66309 0.09872 0.33275 0.0
C675 C 0.64425 0.07275 0.33375 0.0
C676 C 0.63538 0.0606 0.36157 0.0
H677 H 0.53504 0.0049 0.18209 0.0
H678 H 0.55769 0.01002 0.23238 0.0
C679 C 0.64315 0.07569 0.38783 0.0
C680 C 0.63057 0.06114 0.30561 0.0
H681 H 0.56622 0.06032 0.26357 0.0
C682 C 0.64831 0.04832 0.28512 0.0
C683 C 0.60048 0.06503 0.29802 0.0
C684 C 0.58068 0.07947 0.319 0.0
C685 C 0.63678 0.03962 0.25691 0.0
C686 C 0.60697 0.04459 0.24886 0.0
C687 C 0.58903 0.05651 0.2698 0.0
C688 C 0.59442 0.0397 0.21819 0.0
C689 C 0.65664 0.02528 0.23599 0.0
C690 C 0.60736 0.05496 0.19362 0.0
C691 C 0.59454 0.05209 0.16492 0.0
C692 C 0.56825 0.03415 0.16021 0.0
C693 C 0.55525 0.01892 0.18491 0.0
C694 C 0.56821 0.02173 0.21364 0.0
H695 H 0.67457 0.01416 0.24858 0.0
H696 H 0.64394 0.00867 0.22193 0.0
H697 H 0.66722 0.04263 0.221 0.0
H698 H 0.62707 0.06965 0.1967 0.0
H699 H 0.60508 0.06428 0.14648 0.0
H700 H 0.45895 0.59693 0.14631 0.0
H701 H 0.47266 0.58381 0.19867 0.0
H702 H 0.39409 0.62194 0.22793 0.0
H703 H 0.38024 0.63415 0.1756 0.0
H704 H 0.48177 0.61482 0.25218 0.0
H705 H 0.38282 0.53546 0.25681 0.0
H706 H 0.39559 0.55265 0.22219 0.0
H707 H 0.3743 0.57282 0.24695 0.0
C708 C 0.44517 0.60301 0.16417 0.0
C709 C 0.41867 0.61639 0.15741 0.0
C710 C 0.45284 0.59548 0.1939 0.0
C711 C 0.43401 0.60132 0.21705 0.0
C712 C 0.40857 0.61666 0.21033 0.0
H713 H 0.42866 0.55838 0.40706 0.0
H714 H 0.42023 0.57768 0.35594 0.0
C715 C 0.40081 0.62387 0.18065 0.0
C716 C 0.43981 0.58967 0.24788 0.0
H717 H 0.41 0.54344 0.30249 0.0
C718 C 0.46617 0.59915 0.26318 0.0
C719 C 0.41947 0.56902 0.26203 0.0
C720 C 0.3916 0.55663 0.24608 0.0
C721 C 0.47239 0.58904 0.29262 0.0
C722 C 0.45182 0.56875 0.30686 0.0
C723 C 0.42559 0.55916 0.2915 0.0
C724 C 0.45713 0.55704 0.33771 0.0
C725 C 0.50062 0.60049 0.30849 0.0
C726 C 0.48031 0.53857 0.34415 0.0
C727 C 0.48511 0.52734 0.37326 0.0
C728 C 0.46676 0.53438 0.39649 0.0
C729 C 0.44325 0.55255 0.38977 0.0
C730 C 0.43841 0.56365 0.3606 0.0
H731 H 0.51086 0.6206 0.29698 0.0
H732 H 0.49641 0.60588 0.33199 0.0
H733 H 0.51674 0.58304 0.30902 0.0
H734 H 0.49464 0.53278 0.32662 0.0
H735 H 0.50339 0.51339 0.37759 0.0
H736 H 0.07488 0.39686 0.69008 0.0
H737 H 0.0522 0.41729 0.73334 0.0
H738 H 0.02782 0.49282 0.67878 0.0
H739 H 0.05034 0.47193 0.63528 0.0
H740 H 0.0588 0.50704 0.7334 0.0
H741 H 0.96447 0.42476 0.75237 0.0
H742 H 0.99883 0.408 0.74792 0.0
H743 H 0.983 0.42881 0.71713 0.0
C744 C 0.06415 0.41753 0.68735 0.0
C745 C 0.06411 0.4329 0.65962 0.0
C746 C 0.05115 0.42912 0.71191 0.0
C747 C 0.03793 0.45633 0.70911 0.0
C748 C 0.03768 0.47166 0.68128 0.0
H749 H 0.95854 0.52412 0.86916 0.0
H750 H 0.96467 0.51203 0.8166 0.0
C751 C 0.05053 0.45987 0.65659 0.0
C752 C 0.02675 0.46963 0.73602 0.0
H753 H 0.98094 0.45446 0.79444 0.0
C754 C 0.04137 0.49589 0.74646 0.0
C755 C 0.00382 0.45521 0.75284 0.0
C756 C 0.9864 0.42778 0.74187 0.0
C757 C 0.03494 0.50703 0.7743 0.0
C758 C 0.01354 0.49138 0.79211 0.0
C759 C 0.99755 0.46623 0.78081 0.0
C760 C 0.00956 0.49915 0.82356 0.0
C761 C 0.05175 0.53496 0.78492 0.0
C762 C 0.03261 0.49543 0.84477 0.0
C763 C 0.02916 0.50203 0.87467 0.0
C764 C 0.00253 0.51257 0.88402 0.0
C765 C 0.97935 0.51616 0.86268 0.0
C766 C 0.98278 0.50927 0.83269 0.0
H767 H 0.06129 0.54843 0.76593 0.0
H768 H 0.03719 0.54878 0.79733 0.0
H769 H 0.07024 0.52885 0.80032 0.0
H770 H 0.05328 0.48719 0.83818 0.0
H771 H 0.04748 0.49899 0.89043 0.0
H772 H 0.82433 0.91227 0.91327 0.0
H773 H 0.7788 0.92697 0.93532 0.0
H774 H 0.8247 0.00886 0.96345 0.0
H775 H 0.87022 0.99404 0.94088 0.0
H776 H 0.77046 0.93968 0.9951 0.0
H777 H 0.75009 0.03666 0.91918 0.0
H778 H 0.77564 0.00937 0.91058 0.0
H779 H 0.78603 0.03716 0.93758 0.0
C780 C 0.82443 0.93341 0.92411 0.0
C781 C 0.85033 0.95218 0.92553 0.0
C782 C 0.79862 0.94178 0.93666 0.0
C783 C 0.79834 0.96912 0.95072 0.0
C784 C 0.82435 0.98791 0.95223 0.0
H785 H 0.65011 0.04419 0.03552 0.0
H786 H 0.69959 0.03562 0.01865 0.0
C787 C 0.85023 0.97949 0.93956 0.0
C788 C 0.77083 0.97732 0.9643 0.0
H789 H 0.71659 0.02627 0.95804 0.0
C790 C 0.75873 0.95868 0.98709 0.0
C791 C 0.75571 0.0022 0.95385 0.0
C792 C 0.76732 0.02244 0.9288 0.0
C793 C 0.73165 0.96401 0.99948 0.0
C794 C 0.71614 0.98838 0.98847 0.0
C795 C 0.7286 0.00756 0.96632 0.0
C796 C 0.68632 0.99353 0.99877 0.0
C797 C 0.71978 0.94349 0.02419 0.0
C798 C 0.66252 0.97282 0.99278 0.0
C799 C 0.63424 0.97763 0.00228 0.0
C800 C 0.62926 0.0033 0.01791 0.0
C801 C 0.65319 0.02413 0.02366 0.0
C802 C 0.68146 0.01933 0.01402 0.0
H803 H 0.73749 0.93078 0.03524 0.0
H804 H 0.70924 0.9561 0.04142 0.0
H805 H 0.70275 0.92733 0.01458 0.0
H806 H 0.6658 0.953 0.98059 0.0
H807 H 0.61633 0.96119 0.99738 0.0
H808 H 0.69684 0.08139 0.47396 0.0
H809 H 0.74645 0.06235 0.47985 0.0
H810 H 0.77446 0.11488 0.40233 0.0
H811 H 0.72514 0.13436 0.39713 0.0
H812 H 0.78227 0.03241 0.4411 0.0
H813 H 0.83206 0.14417 0.46997 0.0
H814 H 0.79261 0.13522 0.46899 0.0
H815 H 0.81177 0.14282 0.43474 0.0
C816 C 0.71366 0.08849 0.45813 0.0
C817 C 0.70758 0.10931 0.43523 0.0
C818 C 0.74183 0.07764 0.4614 0.0
C819 C 0.76423 0.08759 0.4418 0.0
C820 C 0.75762 0.10729 0.41796 0.0
H821 H 0.94027 0.01925 0.43564 0.0
H822 H 0.88973 0.03268 0.42328 0.0
C823 C 0.7295 0.11816 0.4148 0.0
C824 C 0.79489 0.07868 0.44731 0.0
H825 H 0.86503 0.10634 0.46545 0.0
C826 C 0.80042 0.04852 0.44635 0.0
C827 C 0.81839 0.09976 0.45458 0.0
C828 C 0.81349 0.13228 0.45743 0.0
C829 C 0.82895 0.03889 0.45232 0.0
C830 C 0.85256 0.06007 0.45902 0.0
C831 C 0.84694 0.09019 0.46005 0.0
C832 C 0.88305 0.05146 0.46633 0.0
C833 C 0.83344 0.0061 0.45218 0.0
C834 C 0.89631 0.05816 0.49436 0.0
C835 C 0.92521 0.05078 0.50142 0.0
C836 C 0.94158 0.03659 0.48051 0.0
C837 C 0.92829 0.03004 0.45233 0.0
C838 C 0.89932 0.03751 0.44528 0.0
H839 H 0.81215 0.99246 0.45367 0.0
H840 H 0.84381 0.00087 0.431 0.0
H841 H 0.84839 0.99958 0.47111 0.0
H842 H 0.88419 0.06904 0.51089 0.0
H843 H 0.93467 0.05618 0.52333 0.0
H844 H 0.32718 0.63439 0.10539 0.0
H845 H 0.27733 0.62663 0.08237 0.0
H846 H 0.31209 0.57338 0.01488 0.0
H847 H 0.36212 0.58123 0.03828 0.0
H848 H 0.25812 0.63976 0.02056 0.0
H849 H 0.24394 0.51991 0.05429 0.0
H850 H 0.27179 0.54491 0.07167 0.0
H851 H 0.27679 0.53217 0.03466 0.0
C852 C 0.32393 0.62109 0.08562 0.0
C853 C 0.34793 0.60816 0.0735 0.0
C854 C 0.29571 0.61676 0.07248 0.0
C855 C 0.29112 0.59929 0.04711 0.0
C856 C 0.31525 0.58669 0.03464 0.0
H857 H 0.11867 0.53782 0.97083 0.0
H858 H 0.17202 0.54823 0.97782 0.0
C859 C 0.34361 0.59115 0.04783 0.0
C860 C 0.26078 0.59392 0.03443 0.0
H861 H 0.2035 0.54107 0.0298 0.0
C862 C 0.24619 0.61814 0.02225 0.0
C863 C 0.24548 0.56566 0.03666 0.0
C864 C 0.2601 0.53911 0.05016 0.0
C865 C 0.21636 0.61496 0.01269 0.0
C866 C 0.20066 0.58697 0.01609 0.0
C867 C 0.21559 0.56253 0.0273 0.0
C868 C 0.16839 0.58275 0.00977 0.0
C869 C 0.20195 0.64161 0.99915 0.0
C870 C 0.14866 0.5988 0.02536 0.0
C871 C 0.11811 0.59302 0.02133 0.0
C872 C 0.10678 0.57077 0.00194 0.0
C873 C 0.12664 0.55505 0.98601 0.0
C874 C 0.15715 0.56097 0.98993 0.0
H875 H 0.2186 0.658 0.98935 0.0
H876 H 0.1852 0.63504 0.98143 0.0
H877 H 0.19071 0.65277 0.01693 0.0
H878 H 0.15687 0.61519 0.04134 0.0
H879 H 0.10345 0.60539 0.03408 0.0
H880 H 0.16916 0.42324 0.63927 0.0
H881 H 0.21853 0.43039 0.61886 0.0
H882 H 0.18272 0.40456 0.53198 0.0
H883 H 0.13274 0.39988 0.55214 0.0
H884 H 0.25406 0.39669 0.59539 0.0
H885 H 0.2249 0.48118 0.50858 0.0
H886 H 0.19956 0.46781 0.53692 0.0
H887 H 0.20423 0.44618 0.50441 0.0
C888 C 0.17183 0.41966 0.6157 0.0
C889 C 0.14715 0.41206 0.59699 0.0
C890 C 0.20007 0.42338 0.60409 0.0
C891 C 0.20436 0.41887 0.57361 0.0
C892 C 0.17991 0.40927 0.55528 0.0
H893 H 0.38986 0.42084 0.51979 0.0
H894 H 0.33853 0.40423 0.52997 0.0
C895 C 0.15146 0.40619 0.56684 0.0
C896 C 0.23446 0.42471 0.56144 0.0
H897 H 0.27375 0.46613 0.50922 0.0
C898 C 0.25835 0.41185 0.57651 0.0
C899 C 0.24016 0.44477 0.53698 0.0
C900 C 0.21592 0.46102 0.52096 0.0
C901 C 0.28772 0.41911 0.56851 0.0
C902 C 0.29339 0.43874 0.5437 0.0
C903 C 0.26944 0.45095 0.52808 0.0
C904 C 0.324 0.44851 0.53484 0.0
C905 C 0.31229 0.4068 0.58781 0.0
C906 C 0.33261 0.47896 0.53234 0.0
C907 C 0.36168 0.48849 0.52552 0.0
C908 C 0.38286 0.46776 0.52154 0.0
C909 C 0.37408 0.43731 0.52322 0.0
C910 C 0.3448 0.42779 0.52929 0.0
H911 H 0.3046 0.39966 0.61042 0.0
H912 H 0.32011 0.38703 0.57712 0.0
H913 H 0.3313 0.42345 0.59056 0.0
H914 H 0.31701 0.49543 0.53637 0.0
H915 H 0.36781 0.5121 0.5244 0.0
H916 H 0.89232 0.86573 0.86564 0.0
H917 H 0.90838 0.81492 0.87237 0.0
H918 H 0.97374 0.84554 0.93897 0.0
H919 H 0.95726 0.89616 0.93236 0.0
H920 H 0.96384 0.7869 0.87133 0.0
H921 H 0.91674 0.78615 0.9846 0.0
H922 H 0.90969 0.81447 0.9564 0.0
H923 H 0.94424 0.81586 0.97749 0.0
C924 C 0.9107 0.86155 0.88097 0.0
C925 C 0.92363 0.8844 0.89862 0.0
C926 C 0.91978 0.83267 0.88491 0.0
C927 C 0.94184 0.82646 0.90658 0.0
C928 C 0.95635 0.84985 0.92248 0.0
H929 H 0.00485 0.66739 0.99038 0.0
H930 H 0.99662 0.71796 0.97303 0.0
C931 C 0.94716 0.87864 0.91862 0.0
C932 C 0.94752 0.79532 0.91474 0.0
H933 H 0.94189 0.74418 0.97244 0.0
C934 C 0.95904 0.77747 0.89339 0.0
C935 C 0.94087 0.78309 0.94345 0.0
C936 C 0.92694 0.80074 0.96676 0.0
C937 C 0.96485 0.74781 0.90034 0.0
C938 C 0.95856 0.73577 0.9292 0.0
C939 C 0.9468 0.75357 0.95039 0.0
C940 C 0.96438 0.70486 0.93828 0.0
C941 C 0.97823 0.72979 0.87704 0.0
C942 C 0.94878 0.68071 0.92458 0.0
C943 C 0.95335 0.65163 0.93451 0.0
C944 C 0.97354 0.64627 0.95839 0.0
C945 C 0.98914 0.67062 0.97195 0.0
C946 C 0.98451 0.69959 0.96205 0.0
H947 H 0.98766 0.74404 0.85853 0.0
H948 H 0.99594 0.71655 0.88727 0.0
H949 H 0.96082 0.71412 0.86731 0.0
H950 H 0.93271 0.68436 0.90657 0.0
H951 H 0.94094 0.63342 0.92359 0.0
H952 H 0.46561 0.65814 0.08015 0.0
H953 H 0.48896 0.70889 0.08066 0.0
H954 H 0.42691 0.73223 0.14576 0.0
H955 H 0.4038 0.68155 0.1451 0.0
H956 H 0.45422 0.75518 0.06251 0.0
H957 H 0.50468 0.77548 0.17561 0.0
H958 H 0.49668 0.73859 0.16155 0.0
H959 H 0.46751 0.75882 0.17558 0.0
C960 C 0.4579 0.67393 0.09537 0.0
C961 C 0.43333 0.66617 0.11286 0.0
C962 C 0.47106 0.70282 0.0956 0.0
C963 C 0.45983 0.72424 0.11346 0.0
C964 C 0.43639 0.7159 0.13237 0.0
H965 H 0.47126 0.91663 0.11477 0.0
H966 H 0.46084 0.86347 0.12547 0.0
C967 C 0.42324 0.68701 0.13208 0.0
C968 C 0.46929 0.75602 0.10873 0.0
H969 H 0.49769 0.8182 0.14401 0.0
C970 C 0.46407 0.76889 0.08023 0.0
C971 C 0.48162 0.77389 0.13203 0.0
C972 C 0.48821 0.761 0.16288 0.0
C973 C 0.47036 0.79929 0.07447 0.0
C974 C 0.48287 0.81721 0.09769 0.0
C975 C 0.48816 0.80437 0.12624 0.0
C976 C 0.4905 0.84933 0.09257 0.0
C977 C 0.46267 0.81206 0.04378 0.0
C978 C 0.51105 0.85894 0.07097 0.0
C979 C 0.51681 0.88917 0.0646 0.0
C980 C 0.50242 0.91048 0.08 0.0
C981 C 0.4826 0.90081 0.1024 0.0
C982 C 0.47669 0.87047 0.10861 0.0
H983 H 0.44611 0.79734 0.03145 0.0
H984 H 0.45376 0.83425 0.04533 0.0
H985 H 0.48295 0.81459 0.03042 0.0
H986 H 0.52243 0.843 0.0588 0.0
H987 H 0.53252 0.8958 0.04751 0.0
H988 H 0.13878 0.35082 0.62594 0.0
H989 H 0.14182 0.29913 0.61105 0.0
H990 H 0.06864 0.30912 0.54793 0.0
H991 H 0.06638 0.36088 0.5623 0.0
H992 H 0.09799 0.2561 0.61859 0.0
H993 H 0.12444 0.26599 0.49862 0.0
H994 H 0.12922 0.29703 0.52328 0.0
H995 H 0.0933 0.28648 0.50692 0.0
C996 C 0.12404 0.34203 0.60829 0.0
C997 C 0.10239 0.35947 0.59512 0.0
C998 C 0.12562 0.3126 0.59992 0.0
C999 C 0.10565 0.30032 0.57815 0.0
C1000 C 0.0847 0.31823 0.56427 0.0
H1001 H 0.03278 0.12108 0.56162 0.0
H1002 H 0.04467 0.17314 0.57309 0.0
C1003 C 0.08321 0.34763 0.5726 0.0
C1004 C 0.10456 0.26813 0.57214 0.0
H1005 H 0.10277 0.21858 0.51578 0.0
C1006 C 0.09946 0.24787 0.59617 0.0
C1007 C 0.10679 0.25737 0.54295 0.0
C1008 C 0.11405 0.27786 0.51653 0.0
C1009 C 0.09531 0.21725 0.59162 0.0
C1010 C 0.09568 0.20666 0.56217 0.0
C1011 C 0.10206 0.22677 0.53831 0.0
C1012 C 0.08874 0.17491 0.55557 0.0
C1013 C 0.09052 0.19654 0.61843 0.0
C1014 C 0.1093 0.15877 0.54125 0.0
C1015 C 0.10248 0.12902 0.53443 0.0
C1016 C 0.07488 0.11485 0.54167 0.0
C1017 C 0.05431 0.13117 0.55593 0.0
C1018 C 0.06113 0.16092 0.56266 0.0
H1019 H 0.09966 0.20675 0.63939 0.0
H1020 H 0.06641 0.19155 0.62106 0.0
H1021 H 0.10094 0.17529 0.61559 0.0
H1022 H 0.13066 0.1692 0.53543 0.0
H1023 H 0.11884 0.11719 0.52338 0.0
H1024 H 0.67315 0.20958 0.45647 0.0
H1025 H 0.6487 0.25369 0.46997 0.0
H1026 H 0.56374 0.20468 0.46114 0.0
H1027 H 0.58857 0.15988 0.45086 0.0
H1028 H 0.61544 0.28433 0.43774 0.0
H1029 H 0.54925 0.24575 0.53456 0.0
H1030 H 0.57704 0.22386 0.52004 0.0
H1031 H 0.54019 0.22268 0.50323 0.0
C1032 C 0.64937 0.20801 0.45865 0.0
C1033 C 0.63272 0.18133 0.4529 0.0
C1034 C 0.63532 0.23331 0.46594 0.0
C1035 C 0.60428 0.2326 0.46696 0.0
C1036 C 0.58769 0.20577 0.46147 0.0
H1037 H 0.51448 0.39684 0.43756 0.0
H1038 H 0.5355 0.34886 0.43173 0.0
C1039 C 0.60183 0.18026 0.4551 0.0
C1040 C 0.58935 0.26045 0.47124 0.0
H1041 H 0.53458 0.29014 0.50889 0.0
C1042 C 0.59801 0.28564 0.45362 0.0
C1043 C 0.56677 0.26244 0.49212 0.0
C1044 C 0.55804 0.2373 0.51376 0.0
C1045 C 0.58481 0.31261 0.45616 0.0
C1046 C 0.56101 0.31409 0.4757 0.0
C1047 C 0.55245 0.28896 0.49349 0.0
C1048 C 0.54562 0.34181 0.47909 0.0
C1049 C 0.59734 0.33936 0.43853 0.0
C1050 C 0.5424 0.35291 0.50774 0.0
C1051 C 0.5293 0.37964 0.51116 0.0
C1052 C 0.51968 0.39613 0.48594 0.0
C1053 C 0.52208 0.3847 0.45732 0.0
C1054 C 0.53439 0.35746 0.45398 0.0
H1055 H 0.62075 0.33698 0.4329 0.0
H1056 H 0.58443 0.34161 0.41712 0.0
H1057 H 0.59636 0.36006 0.45114 0.0
H1058 H 0.55071 0.34127 0.52751 0.0
H1059 H 0.52784 0.38801 0.5335 0.0
loop_
_geom_bond_atom_site_label_1
_geom_bond_atom_site_label_2
_geom_bond_distance
_geom_bond_site_symmetry_2
_ccdc_geom_bond_type
C0 N1 1.317 . S
C0 N2 1.348 . S
C0 C3 1.485 . S
N1 C0 1.317 . S
N1 N5 1.370 . S
N2 C0 1.348 . S
N2 C4 1.346 . S
C3 C0 1.485 . S
C3 H7 0.960 . S
C3 H8 0.961 . S
C3 H9 0.960 . S
C4 N2 1.346 . S
C4 N5 1.307 . S
C4 C6 1.486 . S
N5 N1 1.370 . S
N5 C4 1.307 . S
C6 C4 1.486 . S
C6 H10 0.960 . S
C6 H11 0.960 . S
C6 H12 0.959 . S
H7 C3 0.960 . S
H8 C3 0.961 . S
H9 C3 0.960 . S
H10 C6 0.960 . S
H11 C6 0.960 . S
H12 C6 0.959 . S
C13 N14 1.317 . S
C13 N15 1.348 . S
C13 C16 1.485 . S
N14 C13 1.317 . S
N14 N18 1.370 . S
N15 C13 1.348 . S
N15 C17 1.346 . S
C16 C13 1.485 . S
C16 H20 0.960 . S
C16 H21 0.961 . S
C16 H22 0.960 . S
C17 N15 1.346 . S
C17 N18 1.307 . S
C17 C19 1.486 . S
N18 N14 1.370 . S
N18 C17 1.307 . S
C19 C17 1.486 . S
C19 H23 0.960 . S
C19 H24 0.960 . S
C19 H25 0.959 . S
H20 C16 0.960 . S
H21 C16 0.961 . S
H22 C16 0.960 . S
H23 C19 0.960 . S
H24 C19 0.960 . S
H25 C19 0.959 . S
C26 N27 1.317 . S
C26 N28 1.348 . S
C26 C29 1.485 . S
N27 C26 1.317 . S
N27 N31 1.370 . S
N28 C26 1.348 . S
N28 C30 1.346 . S
C29 C26 1.485 . S
C29 H33 0.960 . S
C29 H34 0.961 . S
C29 H35 0.960 . S
C30 N28 1.346 . S
C30 N31 1.307 . S
C30 C32 1.486 . S
N31 N27 1.370 . S
N31 C30 1.307 . S
C32 C30 1.486 . S
C32 H36 0.960 . S
C32 H37 0.960 . S
C32 H38 0.959 . S
H33 C29 0.960 . S
H34 C29 0.961 . S
H35 C29 0.960 . S
H36 C32 0.960 . S
H37 C32 0.960 . S
H38 C32 0.959 . S
C39 N40 1.317 . S
C39 N41 1.348 . S
C39 C42 1.485 . S
N40 C39 1.317 . S
N40 N44 1.370 . S
N41 C39 1.348 . S
N41 C43 1.346 . S
C42 C39 1.485 . S
C42 H46 0.960 . S
C42 H47 0.961 . S
C42 H48 0.960 . S
C43 N41 1.346 . S
C43 N44 1.307 . S
C43 C45 1.486 . S
N44 N40 1.370 . S
N44 C43 1.307 . S
C45 C43 1.486 . S
C45 H49 0.960 . S
C45 H50 0.960 . S
C45 H51 0.959 . S
H46 C42 0.960 . S
H47 C42 0.961 . S
H48 C42 0.960 . S
H49 C45 0.960 . S
H50 C45 0.960 . S
H51 C45 0.959 . S
C52 N53 1.317 . S
C52 N54 1.348 . S
C52 C55 1.485 . S
N53 C52 1.317 . S
N53 N57 1.370 . S
N54 C52 1.348 . S
N54 C56 1.346 . S
C55 C52 1.485 . S
C55 H59 0.960 . S
C55 H60 0.961 . S
C55 H61 0.960 . S
C56 N54 1.346 . S
C56 N57 1.307 . S
C56 C58 1.486 1_565 S
N57 N53 1.370 . S
N57 C56 1.307 . S
C58 C56 1.486 1_545 S
C58 H62 0.960 . S
C58 H63 0.960 . S
C58 H64 0.959 . S
H59 C55 0.960 . S
H60 C55 0.961 . S
H61 C55 0.960 . S
H62 C58 0.960 . S
H63 C58 0.960 . S
H64 C58 0.959 . S
C65 N66 1.317 . S
C65 N67 1.348 . S
C65 C68 1.485 . S
N66 C65 1.317 . S
N66 N70 1.370 . S
N67 C65 1.348 . S
N67 C69 1.346 . S
C68 C65 1.485 . S
C68 H72 0.960 . S
C68 H73 0.961 . S
C68 H74 0.960 . S
C69 N67 1.346 . S
C69 N70 1.307 . S
C69 C71 1.486 . S
N70 N66 1.370 . S
N70 C69 1.307 . S
C71 C69 1.486 . S
C71 H75 0.960 . S
C71 H76 0.960 . S
C71 H77 0.959 . S
H72 C68 0.960 . S
H73 C68 0.961 . S
H74 C68 0.960 . S
H75 C71 0.960 . S
H76 C71 0.960 . S
H77 C71 0.959 . S
C78 N79 1.317 . S
C78 N80 1.348 . S
C78 C81 1.485 . S
N79 C78 1.317 . S
N79 N83 1.370 . S
N80 C78 1.348 . S
N80 C82 1.346 . S
C81 C78 1.485 . S
C81 H85 0.960 . S
C81 H86 0.961 . S
C81 H87 0.960 . S
C82 N80 1.346 . S
C82 N83 1.307 . S
C82 C84 1.486 . S
N83 N79 1.370 . S
N83 C82 1.307 . S
C84 C82 1.486 . S
C84 H88 0.960 . S
C84 H89 0.960 . S
C84 H90 0.959 . S
H85 C81 0.960 . S
H86 C81 0.961 . S
H87 C81 0.960 . S
H88 C84 0.960 . S
H89 C84 0.960 . S
H90 C84 0.959 . S
C91 N92 1.317 . S
C91 N93 1.348 . S
C91 C94 1.485 . S
N92 C91 1.317 . S
N92 N96 1.370 . S
N93 C91 1.348 . S
N93 C95 1.346 . S
C94 C91 1.485 . S
C94 H98 0.960 . S
C94 H99 0.961 . S
C94 H100 0.960 . S
C95 N93 1.346 . S
C95 N96 1.307 . S
C95 C97 1.486 . S
N96 N92 1.370 . S
N96 C95 1.307 . S
C97 C95 1.486 . S
C97 H101 0.960 . S
C97 H102 0.960 . S
C97 H103 0.959 . S
H98 C94 0.960 . S
H99 C94 0.961 . S
H100 C94 0.960 . S
H101 C97 0.960 . S
H102 C97 0.960 . S
H103 C97 0.959 . S
O104 Zn105 1.953 . S
O104 C120 1.225 . S
Zn105 O104 1.953 . S
Zn105 O106 1.949 . S
Zn105 O112 1.919 1_455 S
Zn105 O117 1.924 . S
O106 Zn105 1.949 . S
O106 Zn107 1.923 1_545 S
O106 Zn108 1.950 . S
O106 Zn109 1.945 1_545 S
Zn107 O106 1.923 1_565 S
Zn107 O110 1.933 . S
Zn107 O113 1.941 1_465 S
Zn107 O114 1.965 1_565 S
Zn108 O106 1.950 . S
Zn108 O115 1.938 . S
Zn108 O116 1.906 . S
Zn108 O126 1.953 . S
Zn109 O106 1.945 1_565 S
Zn109 O111 1.932 . S
Zn109 O118 1.977 . S
Zn109 O119 1.910 . S
O110 Zn107 1.933 . S
O110 C121 1.226 . S
O111 Zn109 1.932 . S
O111 C121 1.307 . S
O112 Zn105 1.919 1_655 S
O112 C123 1.253 . S
O113 Zn107 1.941 1_645 S
O113 C123 1.283 . S
O114 Zn107 1.965 1_545 S
O114 C122 1.303 . S
O115 Zn108 1.938 . S
O115 C122 1.247 . S
O116 Zn108 1.906 . S
O116 C124 1.304 1_545 S
O117 Zn105 1.924 . S
O117 C125 1.310 1_545 S
O118 Zn109 1.977 . S
O118 C124 1.272 . S
O119 Zn109 1.910 . S
O119 C125 1.232 . S
C120 O104 1.225 . S
C120 O126 1.298 . S
C121 O110 1.226 . S
C121 O111 1.307 . S
C122 O114 1.303 . S
C122 O115 1.247 . S
C123 O112 1.253 . S
C123 O113 1.283 . S
C124 O116 1.304 1_565 S
C124 O118 1.272 . S
C125 O117 1.310 1_565 S
C125 O119 1.232 . S
O126 Zn108 1.953 . S
O126 C120 1.298 . S
O127 Zn128 1.953 . S
O127 C143 1.225 . S
Zn128 O127 1.953 . S
Zn128 O129 1.949 . S
Zn128 O135 1.919 1_554 S
Zn128 O140 1.924 . S
O129 Zn128 1.949 . S
O129 Zn130 1.923 1_545 S
O129 Zn131 1.950 . S
O129 Zn132 1.945 . S
Zn130 O129 1.923 1_565 S
Zn130 O133 1.933 . S
Zn130 O136 1.941 1_554 S
Zn130 O137 1.965 . S
Zn131 O129 1.950 . S
Zn131 O138 1.938 . S
Zn131 O139 1.906 . S
Zn131 O149 1.953 . S
Zn132 O129 1.945 . S
Zn132 O134 1.932 1_545 S
Zn132 O141 1.977 . S
Zn132 O142 1.910 . S
O133 Zn130 1.933 . S
O133 C144 1.226 . S
O134 Zn132 1.932 1_565 S
O134 C144 1.307 . S
O135 Zn128 1.919 1_556 S
O135 C146 1.253 1_545 S
O136 Zn130 1.941 1_556 S
O136 C146 1.283 . S
O137 Zn130 1.965 . S
O137 C145 1.303 1_565 S
O138 Zn131 1.938 . S
O138 C145 1.247 . S
O139 Zn131 1.906 . S
O139 C147 1.304 . S
O140 Zn128 1.924 . S
O140 C148 1.311 . S
O141 Zn132 1.977 . S
O141 C147 1.272 . S
O142 Zn132 1.910 . S
O142 C148 1.231 . S
C143 O127 1.225 . S
C143 O149 1.298 . S
C144 O133 1.226 . S
C144 O134 1.307 . S
C145 O137 1.303 1_545 S
C145 O138 1.247 . S
C146 O135 1.253 1_565 S
C146 O136 1.283 . S
C147 O139 1.304 . S
C147 O141 1.272 . S
C148 O140 1.311 . S
C148 O142 1.231 . S
O149 Zn131 1.953 . S
O149 C143 1.298 . S
O150 Zn151 1.953 . S
O150 C166 1.225 . S
Zn151 O150 1.953 . S
Zn151 O152 1.949 . S
Zn151 O158 1.919 . S
Zn151 O163 1.924 . S
O152 Zn151 1.949 . S
O152 Zn153 1.923 . S
O152 Zn154 1.950 . S
O152 Zn155 1.945 . S
Zn153 O152 1.923 . S
Zn153 O156 1.933 . S
Zn153 O159 1.941 . S
Zn153 O160 1.965 . S
Zn154 O152 1.950 . S
Zn154 O161 1.938 . S
Zn154 O162 1.906 . S
Zn154 O172 1.953 . S
Zn155 O152 1.945 . S
Zn155 O157 1.932 . S
Zn155 O164 1.977 . S
Zn155 O165 1.910 . S
O156 Zn153 1.933 . S
O156 C167 1.226 . S
O157 Zn155 1.932 . S
O157 C167 1.307 . S
O158 Zn151 1.919 . S
O158 C169 1.253 . S
O159 Zn153 1.941 . S
O159 C169 1.283 . S
O160 Zn153 1.965 . S
O160 C168 1.303 . S
O161 Zn154 1.938 . S
O161 C168 1.247 . S
O162 Zn154 1.906 . S
O162 C170 1.304 . S
O163 Zn151 1.924 . S
O163 C171 1.311 . S
O164 Zn155 1.977 . S
O164 C170 1.272 . S
O165 Zn155 1.910 . S
O165 C171 1.231 . S
C166 O150 1.225 . S
C166 O172 1.298 . S
C167 O156 1.226 . S
C167 O157 1.307 . S
C168 O160 1.303 . S
C168 O161 1.247 . S
C169 O158 1.253 . S
C169 O159 1.283 . S
C170 O162 1.304 . S
C170 O164 1.272 . S
C171 O163 1.311 . S
C171 O165 1.231 . S
O172 Zn154 1.953 . S
O172 C166 1.298 . S
O173 Zn174 1.953 . S
O173 C189 1.225 . S
Zn174 O173 1.953 . S
Zn174 O175 1.949 1_655 S
Zn174 O181 1.936 . S
Zn174 O186 1.924 . S
O175 Zn174 1.949 1_455 S
O175 Zn176 1.923 1_454 S
O175 Zn177 1.950 . S
O175 Zn178 1.945 1_554 S
Zn176 O175 1.923 1_656 S
Zn176 O179 1.933 1_655 S
Zn176 O182 1.941 . S
Zn176 O183 1.965 . S
Zn177 O175 1.950 . S
Zn177 O184 1.938 . S
Zn177 O185 1.906 . S
Zn177 O195 1.953 . S
Zn178 O175 1.945 1_556 S
Zn178 O180 1.932 . S
Zn178 O187 1.977 1_556 S
Zn178 O188 1.910 1_556 S
O179 Zn176 1.933 1_455 S
O179 C190 1.226 . S
O180 Zn178 1.932 . S
O180 C190 1.307 . S
O181 Zn174 1.936 . S
O181 C192 1.223 1_554 S
O182 Zn176 1.941 . S
O182 C192 1.283 . S
O183 Zn176 1.965 . S
O183 C191 1.303 . S
O184 Zn177 1.938 . S
O184 C191 1.247 1_454 S
O185 Zn177 1.906 . S
O185 C193 1.304 . S
O186 Zn174 1.924 . S
O186 C194 1.311 1_655 S
O187 Zn178 1.977 1_554 S
O187 C193 1.272 . S
O188 Zn178 1.910 1_554 S
O188 C194 1.231 . S
C189 O173 1.225 . S
C189 O195 1.298 1_655 S
C190 O179 1.226 . S
C190 O180 1.307 . S
C191 O183 1.303 . S
C191 O184 1.247 1_656 S
C192 O181 1.223 1_556 S
C192 O182 1.283 . S
C193 O185 1.304 . S
C193 O187 1.272 . S
C194 O186 1.311 1_455 S
C194 O188 1.231 . S
O195 Zn177 1.953 . S
O195 C189 1.298 1_455 S
H196 C204 0.929 . S
H197 C206 0.930 . S
H198 C208 0.930 . S
H199 C211 0.929 . S
H200 C214 0.930 . S
H201 C216 0.960 . S
H202 C216 0.960 . S
H203 C216 0.960 . S
C204 H196 0.929 . S
C204 C205 1.377 . S
C204 C206 1.384 . S
C205 C204 1.377 . S
C205 C211 1.390 . S
C206 H197 0.930 . S
C206 C204 1.384 . S
C206 C207 1.372 . S
C207 C206 1.372 . S
C207 C208 1.400 . S
C207 C212 1.490 . S
C208 H198 0.930 . S
C208 C207 1.400 . S
C208 C211 1.386 . S
H209 C225 0.930 . S
H210 C226 0.931 . S
C211 H199 0.929 . S
C211 C205 1.390 . S
C211 C208 1.386 . S
C212 C207 1.490 . S
C212 C214 1.395 . S
C212 C215 1.403 . S
H213 C219 0.930 . S
C214 H200 0.930 . S
C214 C212 1.395 . S
C214 C217 1.403 . S
C215 C212 1.403 . S
C215 C216 1.524 . S
C215 C219 1.400 . S
C216 H201 0.960 . S
C216 H202 0.960 . S
C216 H203 0.960 . S
C216 C215 1.524 . S
C217 C214 1.403 . S
C217 C218 1.392 . S
C217 C221 1.495 . S
C218 C217 1.392 . S
C218 C219 1.385 . S
C218 C220 1.478 . S
C219 H213 0.930 . S
C219 C215 1.400 . S
C219 C218 1.385 . S
C220 C218 1.478 . S
C220 C222 1.381 . S
C220 C226 1.383 . S
C221 C217 1.495 . S
C221 H227 0.959 . S
C221 H228 0.961 . S
C221 H229 0.960 . S
C222 C220 1.381 . S
C222 C223 1.394 . S
C222 H230 0.930 . S
C223 C222 1.394 . S
C223 C224 1.383 . S
C223 H231 0.929 . S
C224 C223 1.383 . S
C224 C225 1.377 . S
C225 H209 0.930 . S
C225 C224 1.377 . S
C225 C226 1.379 . S
C226 H210 0.931 . S
C226 C220 1.383 . S
C226 C225 1.379 . S
H227 C221 0.959 . S
H228 C221 0.961 . S
H229 C221 0.960 . S
H230 C222 0.930 . S
H231 C223 0.929 . S
H232 C240 0.929 . S
H233 C242 0.930 . S
H234 C244 0.930 . S
H235 C247 0.929 . S
H236 C250 0.930 . S
H237 C252 0.960 . S
H238 C252 0.960 . S
H239 C252 0.960 . S
C240 H232 0.929 . S
C240 C241 1.377 . S
C240 C242 1.384 . S
C241 C240 1.377 . S
C241 C247 1.390 . S
C242 H233 0.930 . S
C242 C240 1.384 . S
C242 C243 1.372 . S
C243 C242 1.372 . S
C243 C244 1.400 . S
C243 C248 1.490 . S
C244 H234 0.930 . S
C244 C243 1.400 . S
C244 C247 1.386 . S
H245 C261 0.930 . S
H246 C262 0.931 . S
C247 H235 0.929 . S
C247 C241 1.390 . S
C247 C244 1.386 . S
C248 C243 1.490 . S
C248 C250 1.395 . S
C248 C251 1.403 . S
H249 C255 0.930 . S
C250 H236 0.930 . S
C250 C248 1.395 . S
C250 C253 1.403 . S
C251 C248 1.403 . S
C251 C252 1.524 . S
C251 C255 1.400 . S
C252 H237 0.960 . S
C252 H238 0.960 . S
C252 H239 0.960 . S
C252 C251 1.524 . S
C253 C250 1.403 . S
C253 C254 1.392 . S
C253 C257 1.495 . S
C254 C253 1.392 . S
C254 C255 1.385 . S
C254 C256 1.478 . S
C255 H249 0.930 . S
C255 C251 1.400 . S
C255 C254 1.385 . S
C256 C254 1.478 . S
C256 C258 1.381 . S
C256 C262 1.383 . S
C257 C253 1.495 . S
C257 H263 0.959 . S
C257 H264 0.978 . S
C257 H265 0.960 . S
C258 C256 1.381 . S
C258 C259 1.394 . S
C258 H266 0.930 . S
C259 C258 1.394 . S
C259 C260 1.383 . S
C259 H267 0.929 . S
C260 C259 1.383 . S
C260 C261 1.377 . S
C261 H245 0.930 . S
C261 C260 1.377 . S
C261 C262 1.379 . S
C262 H246 0.931 . S
C262 C256 1.383 . S
C262 C261 1.379 . S
H263 C257 0.959 . S
H264 C257 0.978 . S
H265 C257 0.960 . S
H266 C258 0.930 . S
H267 C259 0.929 . S
H268 C276 0.929 . S
H269 C278 0.930 . S
H270 C280 0.930 . S
H271 C283 0.929 . S
H272 C286 0.930 . S
H273 C288 0.960 . S
H274 C288 0.960 . S
H275 C288 0.960 . S
C276 H268 0.929 . S
C276 C277 1.377 . S
C276 C278 1.384 . S
C277 C276 1.377 . S
C277 C283 1.390 . S
C278 H269 0.930 . S
C278 C276 1.384 . S
C278 C279 1.372 . S
C279 C278 1.372 . S
C279 C280 1.400 . S
C279 C284 1.490 . S
C280 H270 0.930 . S
C280 C279 1.400 . S
C280 C283 1.386 . S
H281 C297 0.930 . S
H282 C298 0.931 . S
C283 H271 0.929 . S
C283 C277 1.390 . S
C283 C280 1.386 . S
C284 C279 1.490 . S
C284 C286 1.395 . S
C284 C287 1.403 . S
H285 C291 0.930 . S
C286 H272 0.930 . S
C286 C284 1.395 . S
C286 C289 1.403 . S
C287 C284 1.403 . S
C287 C288 1.524 . S
C287 C291 1.400 . S
C288 H273 0.960 . S
C288 H274 0.960 . S
C288 H275 0.960 . S
C288 C287 1.524 . S
C289 C286 1.403 . S
C289 C290 1.392 . S
C289 C293 1.495 . S
C290 C289 1.392 . S
C290 C291 1.385 . S
C290 C292 1.478 . S
C291 H285 0.930 . S
C291 C287 1.400 . S
C291 C290 1.385 . S
C292 C290 1.478 . S
C292 C294 1.381 . S
C292 C298 1.383 . S
C293 C289 1.495 . S
C293 H299 0.959 . S
C293 H300 0.961 . S
C293 H301 0.960 . S
C294 C292 1.381 . S
C294 C295 1.394 . S
C294 H302 0.930 . S
C295 C294 1.394 . S
C295 C296 1.383 . S
C295 H303 0.929 . S
C296 C295 1.383 . S
C296 C297 1.377 . S
C297 H281 0.930 . S
C297 C296 1.377 . S
C297 C298 1.379 . S
C298 H282 0.931 . S
C298 C292 1.383 . S
C298 C297 1.379 . S
H299 C293 0.959 . S
H300 C293 0.961 . S
H301 C293 0.960 . S
H302 C294 0.930 . S
H303 C295 0.929 . S
H304 C312 0.929 . S
H305 C314 0.930 . S
H306 C316 0.930 . S
H307 C319 0.929 . S
H308 C322 0.930 . S
H309 C324 0.960 . S
H310 C324 0.960 . S
H311 C324 0.960 . S
C312 H304 0.929 . S
C312 C313 1.377 . S
C312 C314 1.384 . S
C313 C312 1.377 . S
C313 C319 1.390 . S
C314 H305 0.930 . S
C314 C312 1.384 . S
C314 C315 1.372 . S
C315 C314 1.372 . S
C315 C316 1.400 . S
C315 C320 1.490 . S
C316 H306 0.930 . S
C316 C315 1.400 . S
C316 C319 1.386 . S
H317 C333 0.930 . S
H318 C334 0.931 . S
C319 H307 0.929 . S
C319 C313 1.390 . S
C319 C316 1.386 . S
C320 C315 1.490 . S
C320 C322 1.395 . S
C320 C323 1.403 . S
H321 C327 0.930 . S
C322 H308 0.930 . S
C322 C320 1.395 . S
C322 C325 1.403 . S
C323 C320 1.403 . S
C323 C324 1.524 . S
C323 C327 1.400 . S
C324 H309 0.960 . S
C324 H310 0.960 . S
C324 H311 0.960 . S
C324 C323 1.524 . S
C325 C322 1.403 . S
C325 C326 1.392 . S
C325 C329 1.495 . S
C326 C325 1.392 . S
C326 C327 1.385 . S
C326 C328 1.478 . S
C327 H321 0.930 . S
C327 C323 1.400 . S
C327 C326 1.385 . S
C328 C326 1.478 . S
C328 C330 1.381 . S
C328 C334 1.383 . S
C329 C325 1.495 . S
C329 H335 0.959 . S
C329 H336 0.961 . S
C329 H337 0.960 . S
C330 C328 1.381 . S
C330 C331 1.394 . S
C330 H338 0.930 . S
C331 C330 1.394 . S
C331 C332 1.383 . S
C331 H339 0.929 . S
C332 C331 1.383 . S
C332 C333 1.377 . S
C333 H317 0.930 . S
C333 C332 1.377 . S
C333 C334 1.379 . S
C334 H318 0.931 . S
C334 C328 1.383 . S
C334 C333 1.379 . S
H335 C329 0.959 . S
H336 C329 0.961 . S
H337 C329 0.960 . S
H338 C330 0.930 . S
H339 C331 0.929 . S
H340 C348 0.929 . S
H341 C350 0.930 . S
H342 C352 0.930 . S
H343 C355 0.929 . S
H344 C358 0.930 . S
H345 C360 0.960 . S
H346 C360 0.960 . S
H347 C360 0.960 . S
C348 H340 0.929 . S
C348 C349 1.377 . S
C348 C350 1.384 . S
C349 C348 1.377 . S
C349 C355 1.390 . S
C350 H341 0.930 . S
C350 C348 1.384 . S
C350 C351 1.372 . S
C351 C350 1.372 . S
C351 C352 1.400 . S
C351 C356 1.490 . S
C352 H342 0.930 . S
C352 C351 1.400 . S
C352 C355 1.386 . S
H353 C369 0.930 . S
H354 C370 0.931 . S
C355 H343 0.929 . S
C355 C349 1.390 . S
C355 C352 1.386 . S
C356 C351 1.490 . S
C356 C358 1.395 . S
C356 C359 1.403 . S
H357 C363 0.930 . S
C358 H344 0.930 . S
C358 C356 1.395 . S
C358 C361 1.403 . S
C359 C356 1.403 . S
C359 C360 1.524 . S
C359 C363 1.400 . S
C360 H345 0.960 . S
C360 H346 0.960 . S
C360 H347 0.960 . S
C360 C359 1.524 . S
C361 C358 1.403 . S
C361 C362 1.392 . S
C361 C365 1.495 . S
C362 C361 1.392 . S
C362 C363 1.385 . S
C362 C364 1.478 . S
C363 H357 0.930 . S
C363 C359 1.400 . S
C363 C362 1.385 . S
C364 C362 1.478 . S
C364 C366 1.381 . S
C364 C370 1.383 . S
C365 C361 1.495 . S
C365 H371 0.959 . S
C365 H372 0.961 . S
C365 H373 0.960 . S
C366 C364 1.381 . S
C366 C367 1.394 . S
C366 H374 0.930 . S
C367 C366 1.394 . S
C367 C368 1.383 . S
C367 H375 0.929 . S
C368 C367 1.383 . S
C368 C369 1.377 . S
C369 H353 0.930 . S
C369 C368 1.377 . S
C369 C370 1.379 . S
C370 H354 0.931 . S
C370 C364 1.383 . S
C370 C369 1.379 . S
H371 C365 0.959 . S
H372 C365 0.961 . S
H373 C365 0.960 . S
H374 C366 0.930 . S
H375 C367 0.929 . S
H376 C384 0.929 . S
H377 C386 0.930 . S
H378 C388 0.930 . S
H379 C391 0.929 . S
H380 C394 0.930 . S
H381 C396 0.960 . S
H382 C396 0.960 . S
H383 C396 0.960 . S
C384 H376 0.929 . S
C384 C385 1.377 . S
C384 C386 1.384 . S
C385 C384 1.377 . S
C385 C391 1.390 . S
C386 H377 0.930 . S
C386 C384 1.384 . S
C386 C387 1.372 . S
C387 C386 1.372 . S
C387 C388 1.400 . S
C387 C392 1.490 . S
C388 H378 0.930 . S
C388 C387 1.400 . S
C388 C391 1.386 . S
H389 C405 0.930 . S
H390 C406 0.931 . S
C391 H379 0.929 . S
C391 C385 1.390 . S
C391 C388 1.386 . S
C392 C387 1.490 . S
C392 C394 1.395 . S
C392 C395 1.403 . S
H393 C399 0.930 . S
C394 H380 0.930 . S
C394 C392 1.395 . S
C394 C397 1.403 . S
C395 C392 1.403 . S
C395 C396 1.524 . S
C395 C399 1.400 . S
C396 H381 0.960 . S
C396 H382 0.960 . S
C396 H383 0.960 . S
C396 C395 1.524 . S
C397 C394 1.403 . S
C397 C398 1.392 . S
C397 C401 1.495 . S
C398 C397 1.392 . S
C398 C399 1.385 . S
C398 C400 1.478 . S
C399 H393 0.930 . S
C399 C395 1.400 . S
C399 C398 1.385 . S
C400 C398 1.478 . S
C400 C402 1.381 . S
C400 C406 1.383 . S
C401 C397 1.495 . S
C401 H407 0.959 . S
C401 H408 0.961 . S
C401 H409 0.960 . S
C402 C400 1.381 . S
C402 C403 1.394 . S
C402 H410 0.930 . S
C403 C402 1.394 . S
C403 C404 1.383 . S
C403 H411 0.929 . S
C404 C403 1.383 . S
C404 C405 1.377 . S
C405 H389 0.930 . S
C405 C404 1.377 . S
C405 C406 1.379 . S
C406 H390 0.931 . S
C406 C400 1.383 . S
C406 C405 1.379 . S
H407 C401 0.959 . S
H408 C401 0.961 . S
H409 C401 0.960 . S
H410 C402 0.930 . S
H411 C403 0.929 . S
H412 C420 0.929 . S
H413 C422 0.930 . S
H414 C424 0.930 . S
H415 C427 0.929 . S
H416 C430 0.930 . S
H417 C432 0.960 . S
H418 C432 0.960 . S
H419 C432 0.960 . S
C420 H412 0.929 . S
C420 C421 1.377 . S
C420 C422 1.384 . S
C421 C420 1.377 . S
C421 C427 1.390 . S
C422 H413 0.930 . S
C422 C420 1.384 . S
C422 C423 1.372 . S
C423 C422 1.372 . S
C423 C424 1.400 . S
C423 C428 1.490 . S
C424 H414 0.930 . S
C424 C423 1.400 . S
C424 C427 1.386 . S
H425 C441 0.910 1_554 S
H426 C442 0.931 . S
C427 H415 0.929 . S
C427 C421 1.390 . S
C427 C424 1.386 . S
C428 C423 1.490 . S
C428 C430 1.395 . S
C428 C431 1.403 . S
H429 C435 0.930 . S
C430 H416 0.930 . S
C430 C428 1.395 . S
C430 C433 1.403 . S
C431 C428 1.403 . S
C431 C432 1.524 . S
C431 C435 1.400 . S
C432 H417 0.960 . S
C432 H418 0.960 . S
C432 H419 0.960 . S
C432 C431 1.524 . S
C433 C430 1.403 . S
C433 C434 1.392 . S
C433 C437 1.495 . S
C434 C433 1.392 . S
C434 C435 1.385 . S
C434 C436 1.478 . S
C435 H429 0.930 . S
C435 C431 1.400 . S
C435 C434 1.385 . S
C436 C434 1.478 . S
C436 C438 1.381 . S
C436 C442 1.383 . S
C437 C433 1.495 . S
C437 H443 0.959 . S
C437 H444 0.961 . S
C437 H445 0.960 . S
C438 C436 1.381 . S
C438 C439 1.394 . S
C438 H446 0.930 . S
C439 C438 1.394 . S
C439 C440 1.383 . S
C439 H447 0.929 . S
C440 C439 1.383 . S
C440 C441 1.377 . S
C441 H425 0.910 1_556 S
C441 C440 1.377 . S
C441 C442 1.379 . S
C442 H426 0.931 . S
C442 C436 1.383 . S
C442 C441 1.379 . S
H443 C437 0.959 . S
H444 C437 0.961 . S
H445 C437 0.960 . S
H446 C438 0.930 . S
H447 C439 0.929 . S
H448 C456 0.929 . S
H449 C458 0.930 . S
H450 C460 0.930 . S
H451 C463 0.929 . S
H452 C466 0.930 . S
H453 C468 0.960 . S
H454 C468 0.960 . S
H455 C468 0.960 . S
C456 H448 0.929 . S
C456 C457 1.377 . S
C456 C458 1.384 . S
C457 C456 1.377 . S
C457 C463 1.390 . S
C458 H449 0.930 . S
C458 C456 1.384 . S
C458 C459 1.372 . S
C459 C458 1.372 . S
C459 C460 1.400 . S
C459 C464 1.490 . S
C460 H450 0.930 . S
C460 C459 1.400 . S
C460 C463 1.386 . S
H461 C477 0.930 . S
H462 C478 0.931 . S
C463 H451 0.929 . S
C463 C457 1.390 . S
C463 C460 1.386 . S
C464 C459 1.490 . S
C464 C466 1.395 . S
C464 C467 1.403 . S
H465 C471 0.930 . S
C466 H452 0.930 . S
C466 C464 1.395 . S
C466 C469 1.403 . S
C467 C464 1.403 . S
C467 C468 1.524 . S
C467 C471 1.400 . S
C468 H453 0.960 . S
C468 H454 0.960 . S
C468 H455 0.960 . S
C468 C467 1.524 . S
C469 C466 1.403 . S
C469 C470 1.392 . S
C469 C473 1.495 . S
C470 C469 1.392 . S
C470 C471 1.385 . S
C470 C472 1.478 . S
C471 H465 0.930 . S
C471 C467 1.400 . S
C471 C470 1.385 . S
C472 C470 1.478 . S
C472 C474 1.381 . S
C472 C478 1.383 . S
C473 C469 1.495 . S
C473 H479 0.959 . S
C473 H480 0.961 . S
C473 H481 0.960 . S
C474 C472 1.381 . S
C474 C475 1.394 . S
C474 H482 0.930 . S
C475 C474 1.394 . S
C475 C476 1.383 . S
C475 H483 0.929 . S
C476 C475 1.383 . S
C476 C477 1.377 . S
C477 H461 0.930 . S
C477 C476 1.377 . S
C477 C478 1.379 . S
C478 H462 0.931 . S
C478 C472 1.383 . S
C478 C477 1.379 . S
H479 C473 0.959 . S
H480 C473 0.961 . S
H481 C473 0.960 . S
H482 C474 0.930 . S
H483 C475 0.929 . S
H484 C492 0.929 . S
H485 C494 0.930 . S
H486 C496 0.930 . S
H487 C499 0.929 . S
H488 C502 0.930 . S
H489 C504 0.960 . S
H490 C504 0.960 . S
H491 C504 0.960 . S
C492 H484 0.929 . S
C492 C493 1.377 . S
C492 C494 1.384 . S
C493 C492 1.377 . S
C493 C499 1.390 . S
C494 H485 0.930 . S
C494 C492 1.384 . S
C494 C495 1.372 . S
C495 C494 1.372 . S
C495 C496 1.400 . S
C495 C500 1.490 . S
C496 H486 0.930 . S
C496 C495 1.400 . S
C496 C499 1.386 . S
H497 C513 0.930 . S
H498 C514 0.931 . S
C499 H487 0.929 . S
C499 C493 1.390 . S
C499 C496 1.386 . S
C500 C495 1.490 . S
C500 C502 1.395 . S
C500 C503 1.403 . S
H501 C507 0.930 . S
C502 H488 0.930 . S
C502 C500 1.395 . S
C502 C505 1.403 . S
C503 C500 1.403 . S
C503 C504 1.524 . S
C503 C507 1.400 . S
C504 H489 0.960 . S
C504 H490 0.960 . S
C504 H491 0.960 . S
C504 C503 1.524 . S
C505 C502 1.403 . S
C505 C506 1.392 . S
C505 C509 1.495 . S
C506 C505 1.392 . S
C506 C507 1.385 . S
C506 C508 1.478 . S
C507 H501 0.930 . S
C507 C503 1.400 . S
C507 C506 1.385 . S
C508 C506 1.478 . S
C508 C510 1.381 . S
C508 C514 1.383 . S
C509 C505 1.495 . S
C509 H515 0.959 . S
C509 H516 0.961 . S
C509 H517 0.960 . S
C510 C508 1.381 . S
C510 C511 1.394 . S
C510 H518 0.930 . S
C511 C510 1.394 . S
C511 C512 1.383 . S
C511 H519 0.929 1_455 S
C512 C511 1.383 . S
C512 C513 1.377 . S
C513 H497 0.930 . S
C513 C512 1.377 . S
C513 C514 1.379 . S
C514 H498 0.931 . S
C514 C508 1.383 . S
C514 C513 1.379 . S
H515 C509 0.959 . S
H516 C509 0.961 . S
H517 C509 0.960 . S
H518 C510 0.930 . S
H519 C511 0.929 1_655 S
H520 C528 0.929 . S
H521 C530 0.930 . S
H522 C532 0.930 . S
H523 C535 0.929 . S
H524 C538 0.930 . S
H525 C540 0.960 . S
H526 C540 0.960 . S
H527 C540 0.960 . S
C528 H520 0.929 . S
C528 C529 1.377 . S
C528 C530 1.384 . S
C529 C528 1.377 . S
C529 C535 1.390 . S
C530 H521 0.930 . S
C530 C528 1.384 . S
C530 C531 1.372 . S
C531 C530 1.372 . S
C531 C532 1.400 . S
C531 C536 1.490 . S
C532 H522 0.930 . S
C532 C531 1.400 . S
C532 C535 1.386 . S
H533 C549 0.930 . S
H534 C550 0.931 . S
C535 H523 0.929 . S
C535 C529 1.390 . S
C535 C532 1.386 . S
C536 C531 1.490 . S
C536 C538 1.395 . S
C536 C539 1.403 . S
H537 C543 0.930 . S
C538 H524 0.930 . S
C538 C536 1.395 . S
C538 C541 1.403 . S
C539 C536 1.403 . S
C539 C540 1.524 . S
C539 C543 1.400 . S
C540 H525 0.960 . S
C540 H526 0.960 . S
C540 H527 0.960 . S
C540 C539 1.524 . S
C541 C538 1.403 . S
C541 C542 1.392 . S
C541 C545 1.495 . S
C542 C541 1.392 . S
C542 C543 1.385 . S
C542 C544 1.478 . S
C543 H537 0.930 . S
C543 C539 1.400 . S
C543 C542 1.385 . S
C544 C542 1.478 . S
C544 C546 1.381 1_556 S
C544 C550 1.383 . S
C545 C541 1.495 . S
C545 H551 0.959 . S
C545 H552 0.961 . S
C545 H553 0.960 1_556 S
C546 C544 1.381 1_554 S
C546 C547 1.394 . S
C546 H554 0.930 . S
C547 C546 1.394 . S
C547 C548 1.383 . S
C547 H555 0.929 . S
C548 C547 1.383 . S
C548 C549 1.377 1_554 S
C549 H533 0.930 . S
C549 C548 1.377 1_556 S
C549 C550 1.379 . S
C550 H534 0.931 . S
C550 C544 1.383 . S
C550 C549 1.379 . S
H551 C545 0.959 . S
H552 C545 0.961 . S
H553 C545 0.960 1_554 S
H554 C546 0.930 . S
H555 C547 0.929 . S
H556 C564 0.929 . S
H557 C566 0.930 . S
H558 C568 0.930 . S
H559 C571 0.929 . S
H560 C574 0.930 . S
H561 C576 0.938 1_455 S
H562 C576 0.956 1_455 S
H563 C576 0.968 . S
C564 H556 0.929 . S
C564 C565 1.377 . S
C564 C566 1.384 . S
C565 C564 1.377 . S
C565 C571 1.390 . S
C566 H557 0.930 . S
C566 C564 1.384 . S
C566 C567 1.372 . S
C567 C566 1.372 . S
C567 C568 1.400 . S
C567 C572 1.490 . S
C568 H558 0.930 . S
C568 C567 1.400 . S
C568 C571 1.386 . S
H569 C585 0.930 . S
H570 C586 0.931 . S
C571 H559 0.929 . S
C571 C565 1.390 . S
C571 C568 1.386 . S
C572 C567 1.490 . S
C572 C574 1.395 . S
C572 C575 1.403 . S
H573 C579 0.930 1_455 S
C574 H560 0.930 . S
C574 C572 1.395 . S
C574 C577 1.403 . S
C575 C572 1.403 . S
C575 C576 1.543 . S
C575 C579 1.400 . S
C576 H561 0.938 1_655 S
C576 H562 0.956 1_655 S
C576 H563 0.968 . S
C576 C575 1.543 . S
C577 C574 1.403 . S
C577 C578 1.392 . S
C577 C581 1.495 . S
C578 C577 1.392 . S
C578 C579 1.385 . S
C578 C580 1.478 . S
C579 H573 0.930 1_655 S
C579 C575 1.400 . S
C579 C578 1.385 . S
C580 C578 1.478 . S
C580 C582 1.381 . S
C580 C586 1.383 . S
C581 C577 1.495 . S
C581 H587 0.959 . S
C581 H588 0.961 . S
C581 H589 0.960 . S
C582 C580 1.381 . S
C582 C583 1.394 . S
C582 H590 0.930 . S
C583 C582 1.394 . S
C583 C584 1.383 1_655 S
C583 H591 0.933 . S
C584 C583 1.383 1_455 S
C584 C585 1.377 . S
C585 H569 0.930 . S
C585 C584 1.377 . S
C585 C586 1.379 1_455 S
C586 H570 0.931 . S
C586 C580 1.383 . S
C586 C585 1.379 1_655 S
H587 C581 0.959 . S
H588 C581 0.961 . S
H589 C581 0.960 . S
H590 C582 0.930 . S
H591 C583 0.933 . S
H592 C600 0.929 . S
H593 C602 0.930 . S
H594 C604 0.930 . S
H595 C607 0.929 . S
H596 C610 0.930 . S
H597 C612 0.960 . S
H598 C612 0.960 . S
H599 C612 0.960 . S
C600 H592 0.929 . S
C600 C601 1.377 . S
C600 C602 1.384 . S
C601 C600 1.377 . S
C601 C607 1.390 . S
C602 H593 0.930 . S
C602 C600 1.384 . S
C602 C603 1.372 . S
C603 C602 1.372 . S
C603 C604 1.400 . S
C603 C608 1.490 . S
C604 H594 0.930 . S
C604 C603 1.400 . S
C604 C607 1.386 . S
H605 C621 0.930 . S
H606 C622 0.931 . S
C607 H595 0.929 . S
C607 C601 1.390 . S
C607 C604 1.386 . S
C608 C603 1.490 . S
C608 C610 1.395 . S
C608 C611 1.403 . S
H609 C615 0.930 . S
C610 H596 0.930 . S
C610 C608 1.395 . S
C610 C613 1.403 . S
C611 C608 1.403 . S
C611 C612 1.524 . S
C611 C615 1.400 . S
C612 H597 0.960 . S
C612 H598 0.960 . S
C612 H599 0.960 . S
C612 C611 1.524 . S
C613 C610 1.403 . S
C613 C614 1.392 . S
C613 C617 1.495 . S
C614 C613 1.392 . S
C614 C615 1.385 . S
C614 C616 1.478 . S
C615 H609 0.930 . S
C615 C611 1.400 . S
C615 C614 1.385 . S
C616 C614 1.478 . S
C616 C618 1.381 . S
C616 C622 1.383 . S
C617 C613 1.495 . S
C617 H623 0.959 . S
C617 H624 0.961 . S
C617 H625 0.960 . S
C618 C616 1.381 . S
C618 C619 1.394 . S
C618 H626 0.930 . S
C619 C618 1.394 . S
C619 C620 1.383 . S
C619 H627 0.929 . S
C620 C619 1.383 . S
C620 C621 1.377 . S
C621 H605 0.930 . S
C621 C620 1.377 . S
C621 C622 1.379 . S
C622 H606 0.931 . S
C622 C616 1.383 . S
C622 C621 1.379 . S
H623 C617 0.959 . S
H624 C617 0.961 . S
H625 C617 0.960 . S
H626 C618 0.930 . S
H627 C619 0.929 . S
H628 C636 0.929 . S
H629 C638 0.930 . S
H630 C640 0.930 . S
H631 C643 0.929 . S
H632 C646 0.930 . S
H633 C648 0.960 . S
H634 C648 0.960 . S
H635 C648 0.960 . S
C636 H628 0.929 . S
C636 C637 1.377 . S
C636 C638 1.384 . S
C637 C636 1.377 . S
C637 C643 1.390 . S
C638 H629 0.930 . S
C638 C636 1.384 . S
C638 C639 1.372 . S
C639 C638 1.372 . S
C639 C640 1.400 . S
C639 C644 1.490 . S
C640 H630 0.930 . S
C640 C639 1.400 . S
C640 C643 1.386 . S
H641 C657 0.930 . S
H642 C658 0.931 . S
C643 H631 0.929 . S
C643 C637 1.390 . S
C643 C640 1.386 . S
C644 C639 1.490 . S
C644 C646 1.395 1_565 S
C644 C647 1.403 . S
H645 C651 0.930 . S
C646 H632 0.930 . S
C646 C644 1.395 1_545 S
C646 C649 1.403 . S
C647 C644 1.403 . S
C647 C648 1.524 . S
C647 C651 1.400 . S
C648 H633 0.960 . S
C648 H634 0.960 . S
C648 H635 0.960 . S
C648 C647 1.524 . S
C649 C646 1.403 . S
C649 C650 1.392 1_545 S
C649 C653 1.495 . S
C650 C649 1.392 1_565 S
C650 C651 1.385 . S
C650 C652 1.478 . S
C651 H645 0.930 . S
C651 C647 1.400 . S
C651 C650 1.385 . S
C652 C650 1.478 . S
C652 C654 1.381 1_565 S
C652 C658 1.383 1_655 S
C653 C649 1.495 . S
C653 H659 0.959 . S
C653 H660 0.961 1_655 S
C653 H661 0.960 . S
C654 C652 1.381 1_545 S
C654 C655 1.394 . S
C654 H662 0.930 . S
C655 C654 1.394 . S
C655 C656 1.393 1_655 S
C655 H663 0.929 . S
C656 C655 1.393 1_455 S
C656 C657 1.367 1_545 S
C657 H641 0.930 . S
C657 C656 1.367 1_565 S
C657 C658 1.379 . S
C658 H642 0.931 . S
C658 C652 1.383 1_455 S
C658 C657 1.379 . S
H659 C653 0.959 . S
H660 C653 0.961 1_455 S
H661 C653 0.960 . S
H662 C654 0.930 . S
H663 C655 0.929 . S
H664 C672 0.929 . S
H665 C674 0.930 . S
H666 C676 0.930 . S
H667 C679 0.929 . S
H668 C682 0.930 . S
H669 C684 0.960 . S
H670 C684 0.960 . S
H671 C684 0.960 . S
C672 H664 0.929 . S
C672 C673 1.377 . S
C672 C674 1.384 . S
C673 C672 1.377 . S
C673 C679 1.390 . S
C674 H665 0.930 . S
C674 C672 1.384 . S
C674 C675 1.372 . S
C675 C674 1.372 . S
C675 C676 1.400 . S
C675 C680 1.490 . S
C676 H666 0.930 . S
C676 C675 1.400 . S
C676 C679 1.386 . S
H677 C693 0.930 . S
H678 C694 0.931 . S
C679 H667 0.929 . S
C679 C673 1.390 . S
C679 C676 1.386 . S
C680 C675 1.490 . S
C680 C682 1.395 . S
C680 C683 1.403 . S
H681 C687 0.930 . S
C682 H668 0.930 . S
C682 C680 1.395 . S
C682 C685 1.403 . S
C683 C680 1.403 . S
C683 C684 1.524 . S
C683 C687 1.400 . S
C684 H669 0.960 . S
C684 H670 0.960 . S
C684 H671 0.960 . S
C684 C683 1.524 . S
C685 C682 1.403 . S
C685 C686 1.392 . S
C685 C689 1.495 1_545 S
C686 C685 1.392 . S
C686 C687 1.385 . S
C686 C688 1.478 . S
C687 H681 0.930 . S
C687 C683 1.400 . S
C687 C686 1.385 . S
C688 C686 1.478 . S
C688 C690 1.381 . S
C688 C694 1.383 . S
C689 C685 1.495 1_565 S
C689 H695 0.959 . S
C689 H696 0.961 . S
C689 H697 0.960 . S
C690 C688 1.381 . S
C690 C691 1.394 . S
C690 H698 0.930 . S
C691 C690 1.394 . S
C691 C692 1.383 . S
C691 H699 0.929 . S
C692 C691 1.383 . S
C692 C693 1.377 . S
C693 H677 0.930 . S
C693 C692 1.377 . S
C693 C694 1.379 . S
C694 H678 0.931 . S
C694 C688 1.383 . S
C694 C693 1.379 . S
H695 C689 0.959 . S
H696 C689 0.961 . S
H697 C689 0.960 . S
H698 C690 0.930 . S
H699 C691 0.929 . S
H700 C708 0.929 . S
H701 C710 0.930 . S
H702 C712 0.930 . S
H703 C715 0.929 . S
H704 C718 0.930 . S
H705 C720 0.960 . S
H706 C720 0.960 . S
H707 C720 0.960 . S
C708 H700 0.929 . S
C708 C709 1.377 . S
C708 C710 1.384 . S
C709 C708 1.377 . S
C709 C715 1.390 . S
C710 H701 0.930 . S
C710 C708 1.384 . S
C710 C711 1.372 . S
C711 C710 1.372 . S
C711 C712 1.400 . S
C711 C716 1.490 . S
C712 H702 0.930 . S
C712 C711 1.400 . S
C712 C715 1.386 . S
H713 C729 0.930 . S
H714 C730 0.931 . S
C715 H703 0.929 . S
C715 C709 1.390 . S
C715 C712 1.386 . S
C716 C711 1.490 . S
C716 C718 1.395 . S
C716 C719 1.403 . S
H717 C723 0.930 . S
C718 H704 0.930 . S
C718 C716 1.395 . S
C718 C721 1.403 . S
C719 C716 1.403 . S
C719 C720 1.524 . S
C719 C723 1.400 . S
C720 H705 0.960 . S
C720 H706 0.960 . S
C720 H707 0.960 . S
C720 C719 1.524 . S
C721 C718 1.403 . S
C721 C722 1.392 . S
C721 C725 1.495 . S
C722 C721 1.392 . S
C722 C723 1.385 . S
C722 C724 1.478 . S
C723 H717 0.930 . S
C723 C719 1.400 . S
C723 C722 1.385 . S
C724 C722 1.478 . S
C724 C726 1.381 . S
C724 C730 1.383 . S
C725 C721 1.495 . S
C725 H731 0.959 . S
C725 H732 0.961 . S
C725 H733 0.960 . S
C726 C724 1.381 . S
C726 C727 1.394 . S
C726 H734 0.930 . S
C727 C726 1.394 . S
C727 C728 1.383 . S
C727 H735 0.929 . S
C728 C727 1.383 . S
C728 C729 1.377 . S
C729 H713 0.930 . S
C729 C728 1.377 . S
C729 C730 1.379 . S
C730 H714 0.931 . S
C730 C724 1.383 . S
C730 C729 1.379 . S
H731 C725 0.959 . S
H732 C725 0.961 . S
H733 C725 0.960 . S
H734 C726 0.930 . S
H735 C727 0.929 . S
H736 C744 0.929 . S
H737 C746 0.930 . S
H738 C748 0.930 . S
H739 C751 0.929 . S
H740 C754 0.930 . S
H741 C756 0.960 . S
H742 C756 0.960 . S
H743 C756 0.960 . S
C744 H736 0.929 . S
C744 C745 1.377 . S
C744 C746 1.384 . S
C745 C744 1.377 . S
C745 C751 1.390 . S
C746 H737 0.930 . S
C746 C744 1.384 . S
C746 C747 1.372 . S
C747 C746 1.372 . S
C747 C748 1.400 . S
C747 C752 1.490 . S
C748 H738 0.930 . S
C748 C747 1.400 . S
C748 C751 1.386 . S
H749 C765 0.930 . S
H750 C766 0.931 . S
C751 H739 0.929 . S
C751 C745 1.390 . S
C751 C748 1.386 . S
C752 C747 1.490 . S
C752 C754 1.395 . S
C752 C755 1.403 . S
H753 C759 0.930 . S
C754 H740 0.930 . S
C754 C752 1.395 . S
C754 C757 1.403 . S
C755 C752 1.403 . S
C755 C756 1.524 . S
C755 C759 1.400 . S
C756 H741 0.960 . S
C756 H742 0.960 . S
C756 H743 0.960 . S
C756 C755 1.524 . S
C757 C754 1.403 . S
C757 C758 1.392 . S
C757 C761 1.495 . S
C758 C757 1.392 . S
C758 C759 1.385 . S
C758 C760 1.478 . S
C759 H753 0.930 . S
C759 C755 1.400 . S
C759 C758 1.385 . S
C760 C758 1.478 . S
C760 C762 1.381 . S
C760 C766 1.383 . S
C761 C757 1.495 . S
C761 H767 0.959 . S
C761 H768 0.961 . S
C761 H769 0.960 . S
C762 C760 1.381 . S
C762 C763 1.394 . S
C762 H770 0.930 . S
C763 C762 1.394 . S
C763 C764 1.383 . S
C763 H771 0.929 . S
C764 C763 1.383 . S
C764 C765 1.377 . S
C765 H749 0.930 . S
C765 C764 1.377 . S
C765 C766 1.379 . S
C766 H750 0.931 . S
C766 C760 1.383 . S
C766 C765 1.379 . S
H767 C761 0.959 . S
H768 C761 0.961 . S
H769 C761 0.960 . S
H770 C762 0.930 . S
H771 C763 0.929 . S
H772 C780 0.929 . S
H773 C782 0.930 . S
H774 C784 0.930 . S
H775 C787 0.929 . S
H776 C790 0.930 . S
H777 C792 0.960 . S
H778 C792 0.960 . S
H779 C792 0.960 . S
C780 H772 0.929 . S
C780 C781 1.377 . S
C780 C782 1.384 . S
C781 C780 1.377 . S
C781 C787 1.390 1_565 S
C782 H773 0.930 . S
C782 C780 1.384 . S
C782 C783 1.372 . S
C783 C782 1.372 . S
C783 C784 1.400 1_565 S
C783 C788 1.490 . S
C784 H774 0.930 . S
C784 C783 1.400 1_545 S
C784 C787 1.386 . S
H785 C801 0.930 . S
H786 C802 0.931 . S
C787 H775 0.929 . S
C787 C781 1.390 1_545 S
C787 C784 1.386 . S
C788 C783 1.490 . S
C788 C790 1.395 1_556 S
C788 C791 1.403 1_565 S
H789 C795 0.930 . S
C790 H776 0.930 . S
C790 C788 1.395 1_554 S
C790 C793 1.403 . S
C791 C788 1.403 1_545 S
C791 C792 1.524 . S
C791 C795 1.400 . S
C792 H777 0.960 . S
C792 H778 0.960 . S
C792 H779 0.960 . S
C792 C791 1.524 . S
C793 C790 1.403 . S
C793 C794 1.408 . S
C793 C797 1.495 . S
C794 C793 1.408 . S
C794 C795 1.357 1_564 S
C794 C796 1.490 . S
C795 H789 0.930 . S
C795 C791 1.400 . S
C795 C794 1.357 1_546 S
C796 C794 1.490 . S
C796 C798 1.381 . S
C796 C802 1.383 1_565 S
C797 C793 1.495 . S
C797 H803 0.959 . S
C797 H804 0.961 . S
C797 H805 0.960 . S
C798 C796 1.381 . S
C798 C799 1.394 . S
C798 H806 0.930 1_554 S
C799 C798 1.394 . S
C799 C800 1.383 1_565 S
C799 H807 0.929 . S
C800 C799 1.383 1_545 S
C800 C801 1.377 . S
C801 H785 0.930 . S
C801 C800 1.377 . S
C801 C802 1.379 . S
C802 H786 0.931 . S
C802 C796 1.383 1_545 S
C802 C801 1.379 . S
H803 C797 0.959 . S
H804 C797 0.961 . S
H805 C797 0.960 . S
H806 C798 0.930 1_556 S
H807 C799 0.929 . S
H808 C816 0.929 . S
H809 C818 0.930 . S
H810 C820 0.930 . S
H811 C823 0.929 . S
H812 C826 0.930 . S
H813 C828 0.960 . S
H814 C828 0.960 . S
H815 C828 0.960 . S
C816 H808 0.929 . S
C816 C817 1.377 . S
C816 C818 1.384 . S
C817 C816 1.377 . S
C817 C823 1.390 . S
C818 H809 0.930 . S
C818 C816 1.384 . S
C818 C819 1.372 . S
C819 C818 1.372 . S
C819 C820 1.400 . S
C819 C824 1.490 . S
C820 H810 0.930 . S
C820 C819 1.400 . S
C820 C823 1.386 . S
H821 C837 0.930 . S
H822 C838 0.931 . S
C823 H811 0.929 . S
C823 C817 1.390 . S
C823 C820 1.386 . S
C824 C819 1.490 . S
C824 C826 1.395 . S
C824 C827 1.403 . S
H825 C831 0.930 . S
C826 H812 0.930 . S
C826 C824 1.395 . S
C826 C829 1.403 . S
C827 C824 1.403 . S
C827 C828 1.524 . S
C827 C831 1.400 . S
C828 H813 0.960 . S
C828 H814 0.960 . S
C828 H815 0.960 . S
C828 C827 1.524 . S
C829 C826 1.403 . S
C829 C830 1.392 . S
C829 C833 1.495 1_545 S
C830 C829 1.392 . S
C830 C831 1.385 . S
C830 C832 1.478 . S
C831 H825 0.930 . S
C831 C827 1.400 . S
C831 C830 1.385 . S
C832 C830 1.478 . S
C832 C834 1.381 . S
C832 C838 1.383 . S
C833 C829 1.495 1_565 S
C833 H839 0.959 . S
C833 H840 0.961 . S
C833 H841 0.960 . S
C834 C832 1.381 . S
C834 C835 1.394 . S
C834 H842 0.930 . S
C835 C834 1.394 . S
C835 C836 1.383 . S
C835 H843 0.929 . S
C836 C835 1.383 . S
C836 C837 1.377 . S
C837 H821 0.930 . S
C837 C836 1.377 . S
C837 C838 1.379 . S
C838 H822 0.931 . S
C838 C832 1.383 . S
C838 C837 1.379 . S
H839 C833 0.959 . S
H840 C833 0.961 . S
H841 C833 0.960 . S
H842 C834 0.930 . S
H843 C835 0.929 . S
H844 C852 0.929 . S
H845 C854 0.930 . S
H846 C856 0.930 . S
H847 C859 0.929 . S
H848 C862 0.930 . S
H849 C864 0.960 . S
H850 C864 0.960 . S
H851 C864 0.960 . S
C852 H844 0.929 . S
C852 C853 1.377 . S
C852 C854 1.384 . S
C853 C852 1.377 . S
C853 C859 1.390 . S
C854 H845 0.930 . S
C854 C852 1.384 . S
C854 C855 1.372 . S
C855 C854 1.372 . S
C855 C856 1.400 . S
C855 C860 1.490 . S
C856 H846 0.930 . S
C856 C855 1.400 . S
C856 C859 1.386 . S
H857 C873 0.930 . S
H858 C874 0.931 1_556 S
C859 H847 0.929 . S
C859 C853 1.390 . S
C859 C856 1.386 . S
C860 C855 1.490 . S
C860 C862 1.395 . S
C860 C863 1.403 . S
H861 C867 0.930 . S
C862 H848 0.930 . S
C862 C860 1.395 . S
C862 C865 1.403 . S
C863 C860 1.403 . S
C863 C864 1.524 . S
C863 C867 1.400 . S
C864 H849 0.960 . S
C864 H850 0.960 . S
C864 H851 0.960 . S
C864 C863 1.524 . S
C865 C862 1.403 . S
C865 C866 1.392 . S
C865 C869 1.495 . S
C866 C865 1.392 . S
C866 C867 1.385 . S
C866 C868 1.478 . S
C867 H861 0.930 . S
C867 C863 1.400 . S
C867 C866 1.385 . S
C868 C866 1.478 . S
C868 C870 1.381 . S
C868 C874 1.383 . S
C869 C865 1.495 . S
C869 H875 0.959 . S
C869 H876 0.961 . S
C869 H877 0.960 . S
C870 C868 1.381 . S
C870 C871 1.394 . S
C870 H878 0.930 . S
C871 C870 1.394 . S
C871 C872 1.383 . S
C871 H879 0.929 . S
C872 C871 1.383 . S
C872 C873 1.377 1_554 S
C873 H857 0.930 . S
C873 C872 1.377 1_556 S
C873 C874 1.379 1_556 S
C874 H858 0.931 1_554 S
C874 C868 1.383 . S
C874 C873 1.379 1_554 S
H875 C869 0.959 . S
H876 C869 0.961 . S
H877 C869 0.960 . S
H878 C870 0.930 . S
H879 C871 0.929 . S
H880 C888 0.929 . S
H881 C890 0.930 . S
H882 C892 0.930 . S
H883 C895 0.929 . S
H884 C898 0.930 . S
H885 C900 0.960 . S
H886 C900 0.960 . S
H887 C900 0.960 . S
C888 H880 0.929 . S
C888 C889 1.377 . S
C888 C890 1.384 . S
C889 C888 1.377 . S
C889 C895 1.390 . S
C890 H881 0.930 . S
C890 C888 1.384 . S
C890 C891 1.372 . S
C891 C890 1.372 . S
C891 C892 1.400 . S
C891 C896 1.490 . S
C892 H882 0.930 . S
C892 C891 1.400 . S
C892 C895 1.386 . S
H893 C909 0.930 . S
H894 C910 0.931 . S
C895 H883 0.929 . S
C895 C889 1.390 . S
C895 C892 1.386 . S
C896 C891 1.490 . S
C896 C898 1.395 . S
C896 C899 1.403 . S
H897 C903 0.930 . S
C898 H884 0.930 . S
C898 C896 1.395 . S
C898 C901 1.403 . S
C899 C896 1.403 . S
C899 C900 1.524 . S
C899 C903 1.400 . S
C900 H885 0.960 . S
C900 H886 0.960 . S
C900 H887 0.960 . S
C900 C899 1.524 . S
C901 C898 1.403 . S
C901 C902 1.392 . S
C901 C905 1.495 . S
C902 C901 1.392 . S
C902 C903 1.385 . S
C902 C904 1.478 . S
C903 H897 0.930 . S
C903 C899 1.400 . S
C903 C902 1.385 . S
C904 C902 1.478 . S
C904 C906 1.381 . S
C904 C910 1.383 . S
C905 C901 1.495 . S
C905 H911 0.959 . S
C905 H912 0.961 . S
C905 H913 0.960 . S
C906 C904 1.381 . S
C906 C907 1.394 . S
C906 H914 0.930 . S
C907 C906 1.394 . S
C907 C908 1.383 . S
C907 H915 0.929 . S
C908 C907 1.383 . S
C908 C909 1.377 . S
C909 H893 0.930 . S
C909 C908 1.377 . S
C909 C910 1.379 . S
C910 H894 0.931 . S
C910 C904 1.383 . S
C910 C909 1.379 . S
H911 C905 0.959 . S
H912 C905 0.961 . S
H913 C905 0.960 . S
H914 C906 0.930 . S
H915 C907 0.929 . S
H916 C924 0.929 . S
H917 C926 0.930 . S
H918 C928 0.930 . S
H919 C931 0.929 . S
H920 C934 0.930 . S
H921 C936 0.962 . S
H922 C936 0.960 . S
H923 C936 0.960 1_554 S
C924 H916 0.929 . S
C924 C925 1.377 . S
C924 C926 1.384 . S
C925 C924 1.377 . S
C925 C931 1.390 . S
C926 H917 0.930 . S
C926 C924 1.384 . S
C926 C927 1.372 . S
C927 C926 1.372 . S
C927 C928 1.400 . S
C927 C932 1.490 . S
C928 H918 0.930 . S
C928 C927 1.400 . S
C928 C931 1.386 . S
H929 C945 0.930 . S
H930 C946 0.924 1_554 S
C931 H919 0.929 . S
C931 C925 1.390 . S
C931 C928 1.386 . S
C932 C927 1.490 . S
C932 C934 1.395 . S
C932 C935 1.403 . S
H933 C939 0.930 . S
C934 H920 0.930 . S
C934 C932 1.395 . S
C934 C937 1.403 . S
C935 C932 1.403 . S
C935 C936 1.524 . S
C935 C939 1.400 . S
C936 H921 0.962 . S
C936 H922 0.960 . S
C936 H923 0.960 1_556 S
C936 C935 1.524 . S
C937 C934 1.403 . S
C937 C938 1.392 . S
C937 C941 1.495 1_655 S
C938 C937 1.392 . S
C938 C939 1.385 . S
C938 C940 1.478 . S
C939 H933 0.930 . S
C939 C935 1.400 . S
C939 C938 1.385 . S
C940 C938 1.478 . S
C940 C942 1.381 . S
C940 C946 1.391 . S
C941 C937 1.495 1_455 S
C941 H947 0.959 . S
C941 H948 0.961 . S
C941 H949 0.960 . S
C942 C940 1.381 . S
C942 C943 1.394 . S
C942 H950 0.930 . S
C943 C942 1.394 . S
C943 C944 1.383 . S
C943 H951 0.929 . S
C944 C943 1.383 . S
C944 C945 1.377 1_556 S
C945 H929 0.930 . S
C945 C944 1.377 1_554 S
C945 C946 1.378 1_554 S
C946 H930 0.924 1_556 S
C946 C940 1.391 . S
C946 C945 1.378 1_556 S
H947 C941 0.959 . S
H948 C941 0.961 . S
H949 C941 0.960 . S
H950 C942 0.930 . S
H951 C943 0.929 . S
H952 C960 0.929 . S
H953 C962 0.930 . S
H954 C964 0.930 . S
H955 C967 0.929 . S
H956 C970 0.930 . S
H957 C972 0.960 . S
H958 C972 0.960 . S
H959 C972 0.960 . S
C960 H952 0.929 . S
C960 C961 1.377 . S
C960 C962 1.384 . S
C961 C960 1.377 . S
C961 C967 1.390 . S
C962 H953 0.930 . S
C962 C960 1.384 . S
C962 C963 1.372 . S
C963 C962 1.372 . S
C963 C964 1.400 . S
C963 C968 1.490 . S
C964 H954 0.930 . S
C964 C963 1.400 . S
C964 C967 1.386 . S
H965 C981 0.930 . S
H966 C982 0.931 . S
C967 H955 0.929 . S
C967 C961 1.390 . S
C967 C964 1.386 . S
C968 C963 1.490 . S
C968 C970 1.395 . S
C968 C971 1.403 . S
H969 C975 0.930 . S
C970 H956 0.930 . S
C970 C968 1.395 . S
C970 C973 1.403 . S
C971 C968 1.403 . S
C971 C972 1.524 . S
C971 C975 1.400 . S
C972 H957 0.960 . S
C972 H958 0.960 . S
C972 H959 0.960 . S
C972 C971 1.524 . S
C973 C970 1.403 . S
C973 C974 1.392 . S
C973 C977 1.495 . S
C974 C973 1.392 . S
C974 C975 1.385 . S
C974 C976 1.478 . S
C975 H969 0.930 . S
C975 C971 1.400 . S
C975 C974 1.385 . S
C976 C974 1.478 . S
C976 C978 1.381 . S
C976 C982 1.383 . S
C977 C973 1.495 . S
C977 H983 0.959 . S
C977 H984 0.961 . S
C977 H985 0.960 . S
C978 C976 1.381 . S
C978 C979 1.394 . S
C978 H986 0.930 . S
C979 C978 1.394 . S
C979 C980 1.383 . S
C979 H987 0.929 . S
C980 C979 1.383 . S
C980 C981 1.377 . S
C981 H965 0.930 . S
C981 C980 1.377 . S
C981 C982 1.379 . S
C982 H966 0.931 . S
C982 C976 1.383 . S
C982 C981 1.379 . S
H983 C977 0.959 . S
H984 C977 0.961 . S
H985 C977 0.960 . S
H986 C978 0.930 . S
H987 C979 0.929 . S
H988 C996 0.929 . S
H989 C998 0.930 . S
H990 C1000 0.930 . S
H991 C1003 0.929 . S
H992 C1006 0.930 . S
H993 C1008 0.960 . S
H994 C1008 0.960 . S
H995 C1008 0.960 . S
C996 H988 0.929 . S
C996 C997 1.377 . S
C996 C998 1.384 . S
C997 C996 1.377 . S
C997 C1003 1.390 . S
C998 H989 0.930 . S
C998 C996 1.384 . S
C998 C999 1.372 . S
C999 C998 1.372 . S
C999 C1000 1.400 . S
C999 C1004 1.490 . S
C1000 H990 0.930 . S
C1000 C999 1.400 . S
C1000 C1003 1.386 . S
H1001 C1017 0.930 . S
H1002 C1018 0.931 . S
C1003 H991 0.929 . S
C1003 C997 1.390 . S
C1003 C1000 1.386 . S
C1004 C999 1.490 . S
C1004 C1006 1.395 . S
C1004 C1007 1.403 . S
H1005 C1011 0.930 . S
C1006 H992 0.930 . S
C1006 C1004 1.395 . S
C1006 C1009 1.403 . S
C1007 C1004 1.403 . S
C1007 C1008 1.524 . S
C1007 C1011 1.400 . S
C1008 H993 0.960 . S
C1008 H994 0.960 . S
C1008 H995 0.960 . S
C1008 C1007 1.524 . S
C1009 C1006 1.403 . S
C1009 C1010 1.392 . S
C1009 C1013 1.495 . S
C1010 C1009 1.392 . S
C1010 C1011 1.385 . S
C1010 C1012 1.478 . S
C1011 H1005 0.930 . S
C1011 C1007 1.400 . S
C1011 C1010 1.385 . S
C1012 C1010 1.478 . S
C1012 C1014 1.381 . S
C1012 C1018 1.383 . S
C1013 C1009 1.495 . S
C1013 H1019 0.959 . S
C1013 H1020 0.961 . S
C1013 H1021 0.960 . S
C1014 C1012 1.381 . S
C1014 C1015 1.394 . S
C1014 H1022 0.930 . S
C1015 C1014 1.394 . S
C1015 C1016 1.383 . S
C1015 H1023 0.929 . S
C1016 C1015 1.383 . S
C1016 C1017 1.377 . S
C1017 H1001 0.930 . S
C1017 C1016 1.377 . S
C1017 C1018 1.379 . S
C1018 H1002 0.931 . S
C1018 C1012 1.383 . S
C1018 C1017 1.379 . S
H1019 C1013 0.959 . S
H1020 C1013 0.961 . S
H1021 C1013 0.960 . S
H1022 C1014 0.930 . S
H1023 C1015 0.929 . S
H1024 C1032 0.929 . S
H1025 C1034 0.930 . S
H1026 C1036 0.930 . S
H1027 C1039 0.929 . S
H1028 C1042 0.930 . S
H1029 C1044 0.960 . S
H1030 C1044 0.960 . S
H1031 C1044 0.960 . S
C1032 H1024 0.929 . S
C1032 C1033 1.377 . S
C1032 C1034 1.384 . S
C1033 C1032 1.377 . S
C1033 C1039 1.390 . S
C1034 H1025 0.930 . S
C1034 C1032 1.384 . S
C1034 C1035 1.372 . S
C1035 C1034 1.372 . S
C1035 C1036 1.400 . S
C1035 C1040 1.490 . S
C1036 H1026 0.930 . S
C1036 C1035 1.400 . S
C1036 C1039 1.386 . S
H1037 C1053 0.930 . S
H1038 C1054 0.931 . S
C1039 H1027 0.929 . S
C1039 C1033 1.390 . S
C1039 C1036 1.386 . S
C1040 C1035 1.490 . S
C1040 C1042 1.395 . S
C1040 C1043 1.403 . S
H1041 C1047 0.930 . S
C1042 H1028 0.930 . S
C1042 C1040 1.395 . S
C1042 C1045 1.403 . S
C1043 C1040 1.403 . S
C1043 C1044 1.524 . S
C1043 C1047 1.400 . S
C1044 H1029 0.960 . S
C1044 H1030 0.960 . S
C1044 H1031 0.960 . S
C1044 C1043 1.524 . S
C1045 C1042 1.403 . S
C1045 C1046 1.392 . S
C1045 C1049 1.495 . S
C1046 C1045 1.392 . S
C1046 C1047 1.385 . S
C1046 C1048 1.478 . S
C1047 H1041 0.930 . S
C1047 C1043 1.400 . S
C1047 C1046 1.385 . S
C1048 C1046 1.478 . S
C1048 C1050 1.381 . S
C1048 C1054 1.383 . S
C1049 C1045 1.495 . S
C1049 H1055 0.959 . S
C1049 H1056 0.961 . S
C1049 H1057 0.960 . S
C1050 C1048 1.381 . S
C1050 C1051 1.394 . S
C1050 H1058 0.930 . S
C1051 C1050 1.394 . S
C1051 C1052 1.383 . S
C1051 H1059 0.929 . S
C1052 C1051 1.383 . S
C1052 C1053 1.377 . S
C1053 H1037 0.930 . S
C1053 C1052 1.377 . S
C1053 C1054 1.379 . S
C1054 H1038 0.931 . S
C1054 C1048 1.383 . S
C1054 C1053 1.379 . S
H1055 C1049 0.959 . S
H1056 C1049 0.961 . S
H1057 C1049 0.960 . S
H1058 C1050 0.930 . S
H1059 C1051 0.929 . S
C205 N1 1.538 . S
C224 C122 1.558 . S
C241 N18 1.981 . S
C260 C146 1.953 . S
C296 C166 0.860 . S
C277 N28 0.852 . S
C313 N40 1.590 . S
C332 C189 1.613 . S
C368 C148 2.102 . S
C349 N5 2.100 . S
C404 C124 1.756 . S
C385 N14 1.753 . S
C440 C192 1.494 . S
C421 N31 1.495 . S
C476 C169 1.116 . S
C457 N41 1.160 . S
C493 N2 1.308 . S
C512 C194 1.298 . S
C548 C143 1.721 . S
C529 N27 1.705 . S
C565 N44 1.748 . S
C584 C121 1.772 . S
C601 N15 1.193 . S
C620 C171 1.196 . S
C656 C125 1.941 1_545 S
C637 N57 1.931 . S
C673 N70 1.279 . S
C692 C147 1.327 . S
C709 N79 1.576 . S
C728 C167 1.637 . S
C745 N93 1.509 . S
C764 C190 1.524 . S
C781 N54 1.402 . S
C800 C145 1.375 . S
C836 C123 2.049 . S
C817 N66 2.014 . S
C872 C193 0.840 . S
C853 N80 0.860 . S
C908 C170 1.431 . S
C889 N96 1.473 . S
C925 N53 1.789 . S
C944 C191 1.758 . S
C980 C144 1.454 . S
C961 N83 1.430 . S
C1016 C120 1.699 . S
C997 N92 1.651 . S
C1033 N67 1.648 . S
C1052 C168 1.662 . S
