# Generated by pormake.
# Topology bpr, (3,3)-cn, num edge types: 1
# Building blocks:
#     Node 0, Type 0, BuildingBlock: WUSLED_clean_sbu_0, # of connection points: 3
#     Node 1, Type 0, BuildingBlock: WUSLED_clean_sbu_0, # of connection points: 3
#     Node 2, Type 0, BuildingBlock: WUSLED_clean_sbu_0, # of connection points: 3
#     Node 3, Type 0, BuildingBlock: WUSLED_clean_sbu_0, # of connection points: 3
#     Node 4, Type 0, BuildingBlock: WUSLED_clean_sbu_0, # of connection points: 3
#     Node 5, Type 0, BuildingBlock: WUSLED_clean_sbu_0, # of connection points: 3
#     Node 6, Type 0, BuildingBlock: WUSLED_clean_sbu_0, # of connection points: 3
#     Node 7, Type 0, BuildingBlock: WUSLED_clean_sbu_0, # of connection points: 3
#     Node 8, Type 0, BuildingBlock: WUSLED_clean_sbu_0, # of connection points: 3
#     Node 9, Type 0, BuildingBlock: WUSLED_clean_sbu_0, # of connection points: 3
#     Node 10, Type 0, BuildingBlock: WUSLED_clean_sbu_0, # of connection points: 3
#     Node 11, Type 0, BuildingBlock: WUSLED_clean_sbu_0, # of connection points: 3
#     Node 12, Type 0, BuildingBlock: WUSLED_clean_sbu_0, # of connection points: 3
#     Node 13, Type 0, BuildingBlock: WUSLED_clean_sbu_0, # of connection points: 3
#     Node 14, Type 0, BuildingBlock: WUSLED_clean_sbu_0, # of connection points: 3
#     Node 15, Type 0, BuildingBlock: WUSLED_clean_sbu_0, # of connection points: 3
#     Node 16, Type 0, BuildingBlock: WUSLED_clean_sbu_0, # of connection points: 3
#     Node 17, Type 0, BuildingBlock: WUSLED_clean_sbu_0, # of connection points: 3
#     Node 18, Type 0, BuildingBlock: WUSLED_clean_sbu_0, # of connection points: 3
#     Node 19, Type 0, BuildingBlock: WUSLED_clean_sbu_0, # of connection points: 3
#     Node 20, Type 0, BuildingBlock: WUSLED_clean_sbu_0, # of connection points: 3
#     Node 21, Type 0, BuildingBlock: WUSLED_clean_sbu_0, # of connection points: 3
#     Node 22, Type 0, BuildingBlock: WUSLED_clean_sbu_0, # of connection points: 3
#     Node 23, Type 0, BuildingBlock: WUSLED_clean_sbu_0, # of connection points: 3
#     Node 24, Type 0, BuildingBlock: WUSLED_clean_sbu_0, # of connection points: 3
#     Node 25, Type 0, BuildingBlock: WUSLED_clean_sbu_0, # of connection points: 3
#     Node 26, Type 0, BuildingBlock: WUSLED_clean_sbu_0, # of connection points: 3
#     Node 27, Type 0, BuildingBlock: WUSLED_clean_sbu_0, # of connection points: 3
#     Node 28, Type 0, BuildingBlock: WUSLED_clean_sbu_0, # of connection points: 3
#     Node 29, Type 0, BuildingBlock: WUSLED_clean_sbu_0, # of connection points: 3
#     Node 30, Type 0, BuildingBlock: WUSLED_clean_sbu_0, # of connection points: 3
#     Node 31, Type 0, BuildingBlock: WUSLED_clean_sbu_0, # of connection points: 3
#     Node 32, Type 0, BuildingBlock: WUSLED_clean_sbu_0, # of connection points: 3
#     Node 33, Type 0, BuildingBlock: WUSLED_clean_sbu_0, # of connection points: 3
#     Node 34, Type 0, BuildingBlock: WUSLED_clean_sbu_0, # of connection points: 3
#     Node 35, Type 0, BuildingBlock: WUSLED_clean_sbu_0, # of connection points: 3
#     Node 36, Type 0, BuildingBlock: WUSLED_clean_sbu_0, # of connection points: 3
#     Node 37, Type 0, BuildingBlock: WUSLED_clean_sbu_0, # of connection points: 3
#     Node 38, Type 0, BuildingBlock: WUSLED_clean_sbu_0, # of connection points: 3
#     Node 39, Type 0, BuildingBlock: WUSLED_clean_sbu_0, # of connection points: 3
#     Node 40, Type 0, BuildingBlock: WUSLED_clean_sbu_0, # of connection points: 3
#     Node 41, Type 0, BuildingBlock: WUSLED_clean_sbu_0, # of connection points: 3
#     Node 42, Type 0, BuildingBlock: WUSLED_clean_sbu_0, # of connection points: 3
#     Node 43, Type 0, BuildingBlock: WUSLED_clean_sbu_0, # of connection points: 3
#     Node 44, Type 0, BuildingBlock: WUSLED_clean_sbu_0, # of connection points: 3
#     Node 45, Type 0, BuildingBlock: WUSLED_clean_sbu_0, # of connection points: 3
#     Node 46, Type 0, BuildingBlock: WUSLED_clean_sbu_0, # of connection points: 3
#     Node 47, Type 0, BuildingBlock: WUSLED_clean_sbu_0, # of connection points: 3
#     Node 48, Type 1, BuildingBlock: ESEHIV_clean_linker_0, # of connection points: 3
#     Node 49, Type 1, BuildingBlock: ESEHIV_clean_linker_0, # of connection points: 3
#     Node 50, Type 1, BuildingBlock: ESEHIV_clean_linker_0, # of connection points: 3
#     Node 51, Type 1, BuildingBlock: ESEHIV_clean_linker_0, # of connection points: 3
#     Node 52, Type 1, BuildingBlock: ESEHIV_clean_linker_0, # of connection points: 3
#     Node 53, Type 1, BuildingBlock: ESEHIV_clean_linker_0, # of connection points: 3
#     Node 54, Type 1, BuildingBlock: ESEHIV_clean_linker_0, # of connection points: 3
#     Node 55, Type 1, BuildingBlock: ESEHIV_clean_linker_0, # of connection points: 3
#     Node 56, Type 1, BuildingBlock: ESEHIV_clean_linker_0, # of connection points: 3
#     Node 57, Type 1, BuildingBlock: ESEHIV_clean_linker_0, # of connection points: 3
#     Node 58, Type 1, BuildingBlock: ESEHIV_clean_linker_0, # of connection points: 3
#     Node 59, Type 1, BuildingBlock: ESEHIV_clean_linker_0, # of connection points: 3
#     Node 60, Type 1, BuildingBlock: ESEHIV_clean_linker_0, # of connection points: 3
#     Node 61, Type 1, BuildingBlock: ESEHIV_clean_linker_0, # of connection points: 3
#     Node 62, Type 1, BuildingBlock: ESEHIV_clean_linker_0, # of connection points: 3
#     Node 63, Type 1, BuildingBlock: ESEHIV_clean_linker_0, # of connection points: 3
#     Node 64, Type 1, BuildingBlock: ESEHIV_clean_linker_0, # of connection points: 3
#     Node 65, Type 1, BuildingBlock: ESEHIV_clean_linker_0, # of connection points: 3
#     Node 66, Type 1, BuildingBlock: ESEHIV_clean_linker_0, # of connection points: 3
#     Node 67, Type 1, BuildingBlock: ESEHIV_clean_linker_0, # of connection points: 3
#     Node 68, Type 1, BuildingBlock: ESEHIV_clean_linker_0, # of connection points: 3
#     Node 69, Type 1, BuildingBlock: ESEHIV_clean_linker_0, # of connection points: 3
#     Node 70, Type 1, BuildingBlock: ESEHIV_clean_linker_0, # of connection points: 3
#     Node 71, Type 1, BuildingBlock: ESEHIV_clean_linker_0, # of connection points: 3
#     Node 72, Type 1, BuildingBlock: ESEHIV_clean_linker_0, # of connection points: 3
#     Node 73, Type 1, BuildingBlock: ESEHIV_clean_linker_0, # of connection points: 3
#     Node 74, Type 1, BuildingBlock: ESEHIV_clean_linker_0, # of connection points: 3
#     Node 75, Type 1, BuildingBlock: ESEHIV_clean_linker_0, # of connection points: 3
#     Node 76, Type 1, BuildingBlock: ESEHIV_clean_linker_0, # of connection points: 3
#     Node 77, Type 1, BuildingBlock: ESEHIV_clean_linker_0, # of connection points: 3
#     Node 78, Type 1, BuildingBlock: ESEHIV_clean_linker_0, # of connection points: 3
#     Node 79, Type 1, BuildingBlock: ESEHIV_clean_linker_0, # of connection points: 3
#     Node 80, Type 1, BuildingBlock: ESEHIV_clean_linker_0, # of connection points: 3
#     Node 81, Type 1, BuildingBlock: ESEHIV_clean_linker_0, # of connection points: 3
#     Node 82, Type 1, BuildingBlock: ESEHIV_clean_linker_0, # of connection points: 3
#     Node 83, Type 1, BuildingBlock: ESEHIV_clean_linker_0, # of connection points: 3
#     Node 84, Type 1, BuildingBlock: ESEHIV_clean_linker_0, # of connection points: 3
#     Node 85, Type 1, BuildingBlock: ESEHIV_clean_linker_0, # of connection points: 3
#     Node 86, Type 1, BuildingBlock: ESEHIV_clean_linker_0, # of connection points: 3
#     Node 87, Type 1, BuildingBlock: ESEHIV_clean_linker_0, # of connection points: 3
#     Node 88, Type 1, BuildingBlock: ESEHIV_clean_linker_0, # of connection points: 3
#     Node 89, Type 1, BuildingBlock: ESEHIV_clean_linker_0, # of connection points: 3
#     Node 90, Type 1, BuildingBlock: ESEHIV_clean_linker_0, # of connection points: 3
#     Node 91, Type 1, BuildingBlock: ESEHIV_clean_linker_0, # of connection points: 3
#     Node 92, Type 1, BuildingBlock: ESEHIV_clean_linker_0, # of connection points: 3
#     Node 93, Type 1, BuildingBlock: ESEHIV_clean_linker_0, # of connection points: 3
#     Node 94, Type 1, BuildingBlock: ESEHIV_clean_linker_0, # of connection points: 3
#     Node 95, Type 1, BuildingBlock: ESEHIV_clean_linker_0, # of connection points: 3
#     Edge 96, Type (0, 1), None
#     Edge 97, Type (0, 1), None
#     Edge 98, Type (0, 1), None
#     Edge 99, Type (0, 1), None
#     Edge 100, Type (0, 1), None
#     Edge 101, Type (0, 1), None
#     Edge 102, Type (0, 1), None
#     Edge 103, Type (0, 1), None
#     Edge 104, Type (0, 1), None
#     Edge 105, Type (0, 1), None
#     Edge 106, Type (0, 1), None
#     Edge 107, Type (0, 1), None
#     Edge 108, Type (0, 1), None
#     Edge 109, Type (0, 1), None
#     Edge 110, Type (0, 1), None
#     Edge 111, Type (0, 1), None
#     Edge 112, Type (0, 1), None
#     Edge 113, Type (0, 1), None
#     Edge 114, Type (0, 1), None
#     Edge 115, Type (0, 1), None
#     Edge 116, Type (0, 1), None
#     Edge 117, Type (0, 1), None
#     Edge 118, Type (0, 1), None
#     Edge 119, Type (0, 1), None
#     Edge 120, Type (0, 1), None
#     Edge 121, Type (0, 1), None
#     Edge 122, Type (0, 1), None
#     Edge 123, Type (0, 1), None
#     Edge 124, Type (0, 1), None
#     Edge 125, Type (0, 1), None
#     Edge 126, Type (0, 1), None
#     Edge 127, Type (0, 1), None
#     Edge 128, Type (0, 1), None
#     Edge 129, Type (0, 1), None
#     Edge 130, Type (0, 1), None
#     Edge 131, Type (0, 1), None
#     Edge 132, Type (0, 1), None
#     Edge 133, Type (0, 1), None
#     Edge 134, Type (0, 1), None
#     Edge 135, Type (0, 1), None
#     Edge 136, Type (0, 1), None
#     Edge 137, Type (0, 1), None
#     Edge 138, Type (0, 1), None
#     Edge 139, Type (0, 1), None
#     Edge 140, Type (0, 1), None
#     Edge 141, Type (0, 1), None
#     Edge 142, Type (0, 1), None
#     Edge 143, Type (0, 1), None
#     Edge 144, Type (0, 1), None
#     Edge 145, Type (0, 1), None
#     Edge 146, Type (0, 1), None
#     Edge 147, Type (0, 1), None
#     Edge 148, Type (0, 1), None
#     Edge 149, Type (0, 1), None
#     Edge 150, Type (0, 1), None
#     Edge 151, Type (0, 1), None
#     Edge 152, Type (0, 1), None
#     Edge 153, Type (0, 1), None
#     Edge 154, Type (0, 1), None
#     Edge 155, Type (0, 1), None
#     Edge 156, Type (0, 1), None
#     Edge 157, Type (0, 1), None
#     Edge 158, Type (0, 1), None
#     Edge 159, Type (0, 1), None
#     Edge 160, Type (0, 1), None
#     Edge 161, Type (0, 1), None
#     Edge 162, Type (0, 1), None
#     Edge 163, Type (0, 1), None
#     Edge 164, Type (0, 1), None
#     Edge 165, Type (0, 1), None
#     Edge 166, Type (0, 1), None
#     Edge 167, Type (0, 1), None
#     Edge 168, Type (0, 1), None
#     Edge 169, Type (0, 1), None
#     Edge 170, Type (0, 1), None
#     Edge 171, Type (0, 1), None
#     Edge 172, Type (0, 1), None
#     Edge 173, Type (0, 1), None
#     Edge 174, Type (0, 1), None
#     Edge 175, Type (0, 1), None
#     Edge 176, Type (0, 1), None
#     Edge 177, Type (0, 1), None
#     Edge 178, Type (0, 1), None
#     Edge 179, Type (0, 1), None
#     Edge 180, Type (0, 1), None
#     Edge 181, Type (0, 1), None
#     Edge 182, Type (0, 1), None
#     Edge 183, Type (0, 1), None
#     Edge 184, Type (0, 1), None
#     Edge 185, Type (0, 1), None
#     Edge 186, Type (0, 1), None
#     Edge 187, Type (0, 1), None
#     Edge 188, Type (0, 1), None
#     Edge 189, Type (0, 1), None
#     Edge 190, Type (0, 1), None
#     Edge 191, Type (0, 1), None
#     Edge 192, Type (0, 1), None
#     Edge 193, Type (0, 1), None
#     Edge 194, Type (0, 1), None
#     Edge 195, Type (0, 1), None
#     Edge 196, Type (0, 1), None
#     Edge 197, Type (0, 1), None
#     Edge 198, Type (0, 1), None
#     Edge 199, Type (0, 1), None
#     Edge 200, Type (0, 1), None
#     Edge 201, Type (0, 1), None
#     Edge 202, Type (0, 1), None
#     Edge 203, Type (0, 1), None
#     Edge 204, Type (0, 1), None
#     Edge 205, Type (0, 1), None
#     Edge 206, Type (0, 1), None
#     Edge 207, Type (0, 1), None
#     Edge 208, Type (0, 1), None
#     Edge 209, Type (0, 1), None
#     Edge 210, Type (0, 1), None
#     Edge 211, Type (0, 1), None
#     Edge 212, Type (0, 1), None
#     Edge 213, Type (0, 1), None
#     Edge 214, Type (0, 1), None
#     Edge 215, Type (0, 1), None
#     Edge 216, Type (0, 1), None
#     Edge 217, Type (0, 1), None
#     Edge 218, Type (0, 1), None
#     Edge 219, Type (0, 1), None
#     Edge 220, Type (0, 1), None
#     Edge 221, Type (0, 1), None
#     Edge 222, Type (0, 1), None
#     Edge 223, Type (0, 1), None
#     Edge 224, Type (0, 1), None
#     Edge 225, Type (0, 1), None
#     Edge 226, Type (0, 1), None
#     Edge 227, Type (0, 1), None
#     Edge 228, Type (0, 1), None
#     Edge 229, Type (0, 1), None
#     Edge 230, Type (0, 1), None
#     Edge 231, Type (0, 1), None
#     Edge 232, Type (0, 1), None
#     Edge 233, Type (0, 1), None
#     Edge 234, Type (0, 1), None
#     Edge 235, Type (0, 1), None
#     Edge 236, Type (0, 1), None
#     Edge 237, Type (0, 1), None
#     Edge 238, Type (0, 1), None
#     Edge 239, Type (0, 1), None
# Relax obj value: 0.090
# Max RMSD: 0.083
# Mean RMSD: 0.076
data_MOF--net-bpr--node1-WUSLED_clean_sbu_0--node2-ESEHIV_clean_linker_0--edge1-none
_symmetry_space_group_name_H-M    P1
_symmetry_Int_Tables_number       1
_symmetry_cell_setting            triclinic
loop_
_symmetry_equiv_pos_as_xyz
'x, y, z'
_cell_length_a     54.726262
_cell_length_b     54.330894
_cell_length_c     54.963145
_cell_angle_alpha  90.342259
_cell_angle_beta   90.023909
_cell_angle_gamma 90.23741
loop_
_atom_site_label
_atom_site_type_symbol
_atom_site_fract_x
_atom_site_fract_y
_atom_site_fract_z
_atom_type_partial_charge
C0 C 0.97753 0.37807 0.30631 0.0
C1 C 0.98189 0.3721 0.33065 0.0
C2 C 0.94205 0.3892 0.34211 0.0
C3 C 0.96442 0.37789 0.34847 0.0
C4 C 0.93817 0.39505 0.31747 0.0
C5 C 0.95579 0.38982 0.29996 0.0
U6 U 0.03414 0.35973 0.26307 0.0
O7 O 0.03576 0.37965 0.22859 0.0
O8 O 0.02792 0.34006 0.22829 0.0
C9 C 0.03175 0.35993 0.21528 0.0
C10 C 0.99455 0.37209 0.28659 0.0
C11 C 0.04757 0.35763 0.19384 0.0
C12 C 0.05258 0.36365 0.15033 0.0
C13 C 0.03751 0.36201 0.1708 0.0
C14 C 0.08795 0.35595 0.1757 0.0
C15 C 0.07795 0.36117 0.15274 0.0
C16 C 0.07284 0.3541 0.19615 0.0
C17 C 0.08989 0.34866 0.30697 0.0
C18 C 0.12963 0.34704 0.32645 0.0
C19 C 0.09294 0.34829 0.35111 0.0
C20 C 0.0786 0.34891 0.32992 0.0
C21 C 0.11858 0.34772 0.34944 0.0
C22 C 0.1154 0.34738 0.30544 0.0
C23 C 0.07618 0.35026 0.28404 0.0
O24 O 0.01124 0.38824 0.28021 0.0
O25 O 1.00024 0.349 0.28202 0.0
O26 O 0.05956 0.33326 0.27959 0.0
O27 O 0.06972 0.37239 0.27705 0.0
H28 H 0.99868 0.36306 0.33585 0.0
H29 H 0.96864 0.3735 0.36716 0.0
H30 H 0.92124 0.40306 0.31128 0.0
H31 H 0.95214 0.39452 0.28116 0.0
H32 H 0.04456 0.36796 0.13284 0.0
H33 H 0.01807 0.36512 0.16879 0.0
H34 H 0.10752 0.35398 0.17786 0.0
H35 H 0.08092 0.35089 0.21385 0.0
H36 H 0.14936 0.34654 0.32476 0.0
H37 H 0.08412 0.34904 0.36874 0.0
H38 H 0.05889 0.34994 0.33142 0.0
H39 H 0.1244 0.34707 0.28787 0.0
C40 C 0.86739 0.69233 0.54429 0.0
C41 C 0.86324 0.69494 0.56935 0.0
C42 C 0.86505 0.65045 0.57415 0.0
C43 C 0.86219 0.67411 0.58419 0.0
C44 C 0.86827 0.64784 0.54894 0.0
C45 C 0.86949 0.66868 0.53413 0.0
U46 U 0.87347 0.76214 0.53305 0.0
O47 O 0.86194 0.78293 0.50082 0.0
O48 O 0.90137 0.78032 0.51003 0.0
C49 C 0.88465 0.78776 0.49459 0.0
C50 C 0.87146 0.71391 0.52876 0.0
C51 C 0.88989 0.80676 0.47643 0.0
C52 C 0.90316 0.81608 0.43538 0.0
C53 C 0.90017 0.79935 0.4543 0.0
C54 C 0.88705 0.84848 0.46112 0.0
C55 C 0.89643 0.84095 0.43828 0.0
C56 C 0.8835 0.83145 0.4799 0.0
C57 C 0.86336 0.80501 0.58997 0.0
C58 C 0.86004 0.84951 0.5935 0.0
C59 C 0.86118 0.8244 0.6298 0.0
C60 C 0.86284 0.80328 0.61538 0.0
C61 C 0.85979 0.84768 0.61902 0.0
C62 C 0.86195 0.82824 0.57899 0.0
C63 C 0.86484 0.78198 0.57588 0.0
O64 O 0.85256 0.72825 0.52511 0.0
O65 O 0.89171 0.72621 0.53311 0.0
O66 O 0.88669 0.77499 0.56881 0.0
O67 O 0.84771 0.77793 0.55955 0.0
H68 H 0.86168 0.71307 0.57751 0.0
H69 H 0.85999 0.67648 0.60365 0.0
H70 H 0.87101 0.6298 0.54091 0.0
H71 H 0.87292 0.66637 0.51483 0.0
H72 H 0.9099 0.80903 0.41822 0.0
H73 H 0.90511 0.78027 0.45129 0.0
H74 H 0.88223 0.86746 0.4646 0.0
H75 H 0.87555 0.83749 0.49697 0.0
H76 H 0.85921 0.86736 0.58488 0.0
H77 H 0.86092 0.82256 0.64942 0.0
H78 H 0.86373 0.78548 0.62414 0.0
H79 H 0.86235 0.82991 0.55937 0.0
C80 C 0.45944 0.64042 0.69421 0.0
C81 C 0.4343 0.64483 0.69658 0.0
C82 C 0.42942 0.64165 0.65261 0.0
C83 C 0.41935 0.64533 0.67587 0.0
C84 C 0.45465 0.63798 0.65027 0.0
C85 C 0.46954 0.63733 0.67095 0.0
U86 U 0.47251 0.63671 0.76338 0.0
O87 O 0.49601 0.60888 0.78081 0.0
O88 O 0.50581 0.64836 0.78281 0.0
C89 C 0.51204 0.62557 0.78779 0.0
C90 C 0.47526 0.6371 0.71558 0.0
C91 C 0.52801 0.62075 0.80878 0.0
C92 C 0.56527 0.60148 0.82308 0.0
C93 C 0.54734 0.6044 0.80531 0.0
C94 C 0.54391 0.63023 0.84907 0.0
C95 C 0.56436 0.61458 0.84541 0.0
C96 C 0.52621 0.63352 0.83086 0.0
C97 C 0.41593 0.64822 0.80628 0.0
C98 C 0.41229 0.65198 0.85022 0.0
C99 C 0.3759 0.65088 0.82507 0.0
C100 C 0.39042 0.64896 0.80433 0.0
C101 C 0.38666 0.65231 0.84818 0.0
C102 C 0.42691 0.64981 0.82934 0.0
C103 C 0.43007 0.64605 0.78366 0.0
O104 O 0.47943 0.65663 0.7292 0.0
O105 O 0.471 0.61717 0.72831 0.0
O106 O 0.4369 0.62383 0.77707 0.0
O107 O 0.44657 0.66313 0.77931 0.0
H108 H 0.42617 0.64711 0.71442 0.0
H109 H 0.39985 0.64787 0.67801 0.0
H110 H 0.46268 0.63462 0.63255 0.0
H111 H 0.48887 0.63365 0.66883 0.0
H112 H 0.58001 0.58932 0.81834 0.0
H113 H 0.54917 0.59446 0.78825 0.0
H114 H 0.54123 0.64044 0.8657 0.0
H115 H 0.51138 0.64631 0.83391 0.0
H116 H 0.42092 0.65289 0.86795 0.0
H117 H 0.3562 0.65125 0.82306 0.0
H118 H 0.38167 0.64795 0.78665 0.0
H119 H 0.44661 0.64927 0.83116 0.0
C120 C 0.63843 0.32783 0.0482 0.0
C121 C 0.64295 0.32458 0.07311 0.0
C122 C 0.64041 0.36881 0.07953 0.0
C123 C 0.64383 0.34501 0.08873 0.0
C124 C 0.63668 0.37205 0.05452 0.0
C125 C 0.63566 0.35164 0.03896 0.0
U126 U 0.6342 0.25846 0.03392 0.0
O127 O 0.64508 0.2397 1.00016 0.0
O128 O 0.60618 0.24059 0.01076 0.0
C129 C 0.62241 0.23394 0.99439 0.0
C130 C 0.63464 0.30675 0.03183 0.0
C131 C 0.61794 0.21163 0.97967 0.0
C132 C 0.59534 0.19308 0.94612 0.0
C133 C 0.59809 0.21164 0.9636 0.0
C134 C 0.6324 0.174 0.9606 0.0
C135 C 0.61287 0.17423 0.94366 0.0
C136 C 0.63475 0.19232 0.97849 0.0
C137 C 0.64696 0.21478 0.08932 0.0
C138 C 0.64993 0.17028 0.09194 0.0
C139 C 0.6504 0.19516 0.12872 0.0
C140 C 0.64851 0.21638 0.11473 0.0
C141 C 0.65099 0.17195 0.11747 0.0
C142 C 0.64778 0.19164 0.07789 0.0
C143 C 0.64454 0.23781 0.07574 0.0
O144 O 0.65389 0.29319 0.02707 0.0
O145 O 0.61487 0.2937 0.03611 0.0
O146 O 0.62231 0.24431 0.06945 0.0
O147 O 0.66108 0.24247 0.05902 0.0
H148 H 0.645 0.30627 0.08053 0.0
H149 H 0.64645 0.34224 0.10805 0.0
H150 H 0.63359 0.39025 0.04721 0.0
H151 H 0.63193 0.3544 0.01981 0.0
H152 H 0.57948 0.19401 0.93447 0.0
H153 H 0.58501 0.22657 0.96401 0.0
H154 H 0.64673 0.16045 0.9597 0.0
H155 H 0.65036 0.192 0.99061 0.0
H156 H 0.65015 0.15247 0.08297 0.0
H157 H 0.65129 0.19685 0.14835 0.0
H158 H 0.64806 0.23414 0.12382 0.0
H159 H 0.64658 0.1901 0.05826 0.0
C160 C 0.97526 0.63693 0.2079 0.0
C161 C 0.98164 0.64113 0.18361 0.0
C162 C 0.94134 0.62648 0.17053 0.0
C163 C 0.96483 0.6358 0.16501 0.0
C164 C 0.93532 0.62246 0.19509 0.0
C165 C 0.95216 0.62743 0.21345 0.0
U166 U 0.03356 0.65266 0.24904 0.0
O167 O 0.03641 0.63306 0.28359 0.0
O168 O 0.0306 0.673 0.28383 0.0
C169 C 0.034 0.65306 0.29682 0.0
C170 C 0.99171 0.64209 0.22832 0.0
C171 C 0.05039 0.6548 0.31787 0.0
C172 C 0.0554 0.64914 0.36138 0.0
C173 C 0.04032 0.65113 0.34101 0.0
C174 C 0.09097 0.65501 0.33573 0.0
C175 C 0.08083 0.65058 0.35882 0.0
C176 C 0.0758 0.65719 0.3153 0.0
C177 C 0.09051 0.66137 0.20459 0.0
C178 C 0.13176 0.66087 0.18826 0.0
C179 C 0.09706 0.66497 0.16114 0.0
C180 C 0.08108 0.66399 0.18104 0.0
C181 C 0.12249 0.66312 0.16465 0.0
C182 C 0.11587 0.66014 0.20805 0.0
C183 C 0.07506 0.65984 0.22634 0.0
O184 O 0.00785 0.62528 0.23409 0.0
O185 O 0.99909 0.66486 0.23223 0.0
O186 O 0.05942 0.67765 0.23075 0.0
O187 O 0.06741 0.63796 0.23309 0.0
H188 H 0.99951 0.64843 0.17908 0.0
H189 H 0.97034 0.63884 0.14636 0.0
H190 H 0.91738 0.616 0.20039 0.0
H191 H 0.94695 0.62411 0.23219 0.0
H192 H 0.04727 0.64549 0.37896 0.0
H193 H 0.02076 0.6489 0.3432 0.0
H194 H 0.1106 0.65623 0.33347 0.0
H195 H 0.08388 0.65986 0.29751 0.0
H196 H 0.15127 0.65958 0.19138 0.0
H197 H 0.08957 0.66652 0.14296 0.0
H198 H 0.06155 0.66501 0.17804 0.0
H199 H 0.12342 0.65835 0.22619 0.0
C200 C 0.6383 0.68918 0.46198 0.0
C201 C 0.64222 0.69161 0.43687 0.0
C202 C 0.64057 0.64703 0.43199 0.0
C203 C 0.64324 0.67063 0.42195 0.0
C204 C 0.63736 0.64465 0.45717 0.0
C205 C 0.6362 0.6656 0.47205 0.0
U206 U 0.63363 0.75909 0.47518 0.0
O207 O 0.64597 0.77894 0.50803 0.0
O208 O 0.60645 0.77706 0.49918 0.0
C209 C 0.62345 0.78386 0.51477 0.0
C210 C 0.63475 0.71076 0.47787 0.0
C211 C 0.61883 0.80317 0.53303 0.0
C212 C 0.60709 0.81289 0.57457 0.0
C213 C 0.60966 0.7959 0.55564 0.0
C214 C 0.62155 0.84524 0.54805 0.0
C215 C 0.61316 0.83789 0.57127 0.0
C216 C 0.62462 0.82797 0.52919 0.0
C217 C 0.64384 0.80248 0.41891 0.0
C218 C 0.64704 0.84698 0.41562 0.0
C219 C 0.64587 0.82163 0.37918 0.0
C220 C 0.64435 0.80059 0.39349 0.0
C221 C 0.64715 0.84498 0.39008 0.0
C222 C 0.64524 0.82579 0.43002 0.0
C223 C 0.64211 0.77953 0.43281 0.0
O224 O 0.65396 0.72482 0.48175 0.0
O225 O 0.61471 0.72335 0.474 0.0
O226 O 0.62021 0.77273 0.44 0.0
O227 O 0.65935 0.77522 0.44888 0.0
H228 H 0.64377 0.70968 0.42878 0.0
H229 H 0.64537 0.6728 0.40248 0.0
H230 H 0.63476 0.62666 0.46518 0.0
H231 H 0.63295 0.66341 0.49136 0.0
H232 H 0.60115 0.80601 0.59202 0.0
H233 H 0.60521 0.77675 0.55897 0.0
H234 H 0.62589 0.86429 0.54435 0.0
H235 H 0.63172 0.83391 0.51178 0.0
H236 H 0.64786 0.8649 0.42433 0.0
H237 H 0.64609 0.81967 0.35955 0.0
H238 H 0.64347 0.78273 0.38463 0.0
H239 H 0.64487 0.82757 0.44966 0.0
C240 C 0.53007 0.38102 0.70347 0.0
C241 C 0.5323 0.36428 0.68416 0.0
C242 C 0.56478 0.38953 0.66592 0.0
C243 C 0.54956 0.36833 0.66578 0.0
C244 C 0.56175 0.4065 0.6852 0.0
C245 C 0.54493 0.4021 0.70379 0.0
U246 U 0.4745 0.36531 0.74827 0.0
O247 O 0.47346 0.38497 0.78316 0.0
O248 O 0.47896 0.34501 0.7827 0.0
C249 C 0.47607 0.36494 0.79608 0.0
C250 C 0.51516 0.37582 0.7252 0.0
C251 C 0.45992 0.36325 0.81734 0.0
C252 C 0.45492 0.36951 0.86084 0.0
C253 C 0.46998 0.36774 0.84041 0.0
C254 C 0.41943 0.36194 0.83543 0.0
C255 C 0.42953 0.36702 0.85845 0.0
C256 C 0.43457 0.35995 0.81494 0.0
C257 C 0.41773 0.3576 0.7043 0.0
C258 C 0.37743 0.35697 0.68581 0.0
C259 C 0.41355 0.35749 0.66028 0.0
C260 C 0.42844 0.35777 0.6811 0.0
C261 C 0.38794 0.35737 0.66258 0.0
C262 C 0.39221 0.35694 0.70646 0.0
C263 C 0.43206 0.35845 0.7269 0.0
O264 O 0.49958 0.39265 0.73248 0.0
O265 O 0.50802 0.35309 0.72958 0.0
O266 O 0.44757 0.3405 0.73095 0.0
O267 O 0.44001 0.38015 0.73412 0.0
H268 H 0.52132 0.34765 0.68366 0.0
H269 H 0.55127 0.35415 0.65206 0.0
H270 H 0.57227 0.42334 0.68627 0.0
H271 H 0.54388 0.41507 0.71881 0.0
H272 H 0.463 0.37379 0.87837 0.0
H273 H 0.48946 0.37071 0.84249 0.0
H274 H 0.39983 0.36007 0.83326 0.0
H275 H 0.42649 0.3567 0.7972 0.0
H276 H 0.35775 0.35659 0.68797 0.0
H277 H 0.42195 0.35783 0.64245 0.0
H278 H 0.44812 0.35829 0.67912 0.0
H279 H 0.38366 0.35663 0.72424 0.0
C280 C 0.88411 0.21118 0.03934 0.0
C281 C 0.86684 0.19239 0.04244 0.0
C282 C 0.8922 0.17362 0.07408 0.0
C283 C 0.87069 0.17405 0.05975 0.0
C284 C 0.90963 0.19239 0.0704 0.0
C285 C 0.90546 0.21102 0.05349 0.0
U286 U 0.86833 0.2552 0.98354 0.0
O287 O 0.8871 0.29082 0.98158 0.0
O288 O 0.84751 0.28968 0.98767 0.0
C289 C 0.86695 0.30353 0.98431 0.0
C290 C 0.87902 0.23305 0.02445 0.0
C291 C 0.86453 0.32464 0.96799 0.0
C292 C 0.86939 0.36867 0.96229 0.0
C293 C 0.86853 0.34827 0.97759 0.0
C294 C 0.8618 0.34206 0.9275 0.0
C295 C 0.86643 0.36566 0.93712 0.0
C296 C 0.86075 0.32161 0.94289 0.0
C297 C 0.86065 0.20904 0.92809 0.0
C298 C 0.85865 0.18895 0.88853 0.0
C299 C 0.86047 0.1644 0.92516 0.0
C300 C 0.86129 0.18595 0.93937 0.0
C301 C 0.85932 0.16582 0.89962 0.0
C302 C 0.85916 0.21035 0.90266 0.0
C303 C 0.86149 0.23236 0.94179 0.0
O304 O 0.89568 0.24007 0.00871 0.0
O305 O 0.85644 0.2373 0.01738 0.0
O306 O 0.84373 0.23681 0.9573 0.0
O307 O 0.88302 0.24 0.94936 0.0
H308 H 0.84996 0.19232 0.03215 0.0
H309 H 0.85616 0.16078 0.06225 0.0
H310 H 0.92658 0.19293 0.0805 0.0
H311 H 0.9188 0.22571 0.05182 0.0
H312 H 0.87334 0.38666 0.96997 0.0
H313 H 0.87181 0.35084 0.99689 0.0
H314 H 0.85962 0.33944 0.90807 0.0
H315 H 0.85783 0.30344 0.93517 0.0
H316 H 0.85749 0.19045 0.86891 0.0
H317 H 0.86104 0.14665 0.93402 0.0
H318 H 0.86245 0.18461 0.95899 0.0
H319 H 0.85848 0.22804 0.89368 0.0
C320 C 0.18587 0.04726 0.37494 0.0
C321 C 0.18812 0.07228 0.36924 0.0
C322 C 0.14425 0.07738 0.37439 0.0
C323 C 0.1674 0.08727 0.36906 0.0
C324 C 0.14192 0.05215 0.37908 0.0
C325 C 0.16266 0.0372 0.37942 0.0
U326 U 0.25542 0.03475 0.37737 0.0
O327 O 0.27364 0.99996 0.36841 0.0
O328 O 0.27381 0.01365 0.40631 0.0
C329 C 0.27989 0.9959 0.39116 0.0
C330 C 0.20747 0.03183 0.37866 0.0
C331 C 0.30208 0.98152 0.39596 0.0
C332 C 0.32108 0.94951 0.42017 0.0
C333 C 0.30259 0.96681 0.41681 0.0
C334 C 0.33893 0.96142 0.38172 0.0
C335 C 0.33928 0.94592 0.40235 0.0
C336 C 0.32072 0.97914 0.37871 0.0
C337 C 0.29827 0.09069 0.35972 0.0
C338 C 0.34226 0.0949 0.3547 0.0
C339 C 0.31648 0.13105 0.3539 0.0
C340 C 0.29592 0.11623 0.35722 0.0
C341 C 0.33982 0.12058 0.35278 0.0
C342 C 0.32154 0.07997 0.35827 0.0
C343 C 0.27578 0.07634 0.36376 0.0
O344 O 0.22039 0.02622 0.35928 0.0
O345 O 0.22098 0.03787 0.39752 0.0
O346 O 0.2698 0.07161 0.38642 0.0
O347 O 0.27092 0.05816 0.34859 0.0
H348 H 0.20592 0.08035 0.36586 0.0
H349 H 0.1695 0.10677 0.36557 0.0
H350 H 0.12429 0.04429 0.38361 0.0
H351 H 0.16069 0.01794 0.38408 0.0
H352 H 0.32065 0.93884 0.43669 0.0
H353 H 0.28813 0.96813 0.43023 0.0
H354 H 0.35195 0.95939 0.3671 0.0
H355 H 0.32059 0.99012 0.36233 0.0
H356 H 0.36019 0.08653 0.35421 0.0
H357 H 0.31419 0.1508 0.35251 0.0
H358 H 0.27809 0.1248 0.35815 0.0
H359 H 0.32369 0.06027 0.36018 0.0
C360 C 0.21258 0.98015 0.62835 0.0
C361 C 0.1943 0.97654 0.6458 0.0
C362 C 0.174 0.94634 0.61926 0.0
C363 C 0.17538 0.9597 0.64141 0.0
C364 C 0.19217 0.95066 0.60163 0.0
C365 C 0.21129 0.96713 0.60627 0.0
U366 U 0.2586 0.03441 0.64655 0.0
O367 O 0.29289 0.03711 0.62621 0.0
O368 O 0.29388 0.0285 0.66511 0.0
C369 C 0.30659 0.03307 0.64534 0.0
C370 C 0.23498 0.99431 0.63364 0.0
C371 C 0.32768 0.04964 0.64768 0.0
C372 C 0.37059 0.05718 0.639 0.0
C373 C 0.35074 0.04101 0.64059 0.0
C374 C 0.34465 0.09072 0.65236 0.0
C375 C 0.36752 0.08221 0.64443 0.0
C376 C 0.32479 0.0745 0.65402 0.0
C377 C 0.21365 0.08923 0.66008 0.0
C378 C 0.19291 0.12855 0.66322 0.0
C379 C 0.1693 0.09071 0.66219 0.0
C380 C 0.19097 0.07706 0.66048 0.0
C381 C 0.17014 0.11659 0.66324 0.0
C382 C 0.21443 0.11497 0.66177 0.0
C383 C 0.23699 0.07614 0.65759 0.0
O384 O 0.2416 0.01137 0.6181 0.0
O385 O 0.24051 0.99959 0.65641 0.0
O386 O 0.24376 0.07019 0.63538 0.0
O387 O 0.24208 0.05919 0.67379 0.0
H388 H 0.19506 0.98605 0.66316 0.0
H389 H 0.16241 0.95668 0.65592 0.0
H390 H 0.19185 0.94135 0.58419 0.0
H391 H 0.22551 0.96927 0.59271 0.0
H392 H 0.38804 0.05039 0.63259 0.0
H393 H 0.35316 0.02191 0.63532 0.0
H394 H 0.342 0.11005 0.65648 0.0
H395 H 0.30704 0.0815 0.6593 0.0
H396 H 0.19402 0.14845 0.66414 0.0
H397 H 0.15189 0.08115 0.662 0.0
H398 H 0.19004 0.05718 0.65917 0.0
H399 H 0.23179 0.12466 0.66165 0.0
C400 C 0.21125 0.03465 0.88331 0.0
C401 C 0.19281 0.03813 0.86603 0.0
C402 C 0.17299 0.06847 0.89258 0.0
C403 C 0.17407 0.05498 0.8705 0.0
C404 C 0.19145 0.06451 0.90995 0.0
C405 C 0.21042 0.04802 0.90523 0.0
U406 U 0.25652 0.97963 0.86638 0.0
O407 O 0.29149 0.97833 0.8857 0.0
O408 O 0.29114 0.98473 0.84635 0.0
C409 C 0.30452 0.98141 0.86593 0.0
C410 C 0.23338 0.02025 0.8779 0.0
C411 C 0.32561 0.96497 0.86386 0.0
C412 C 0.36842 0.95786 0.87311 0.0
C413 C 0.34856 0.97382 0.87131 0.0
C414 C 0.34274 0.92411 0.85923 0.0
C415 C 0.36549 0.93284 0.86752 0.0
C416 C 0.32286 0.94011 0.85737 0.0
C417 C 0.21177 0.92316 0.85707 0.0
C418 C 0.19194 0.88313 0.85449 0.0
C419 C 0.16746 0.92019 0.85607 0.0
C420 C 0.18881 0.93456 0.85735 0.0
C421 C 0.16893 0.89436 0.8548 0.0
C422 C 0.21315 0.89743 0.85548 0.0
C423 C 0.23484 0.93707 0.85839 0.0
O424 O 0.24057 1.00413 0.89409 0.0
O425 O 0.23802 0.01371 0.85525 0.0
O426 O 0.23928 0.95313 0.8411 0.0
O427 O 0.24203 0.94448 0.88005 0.0
H428 H 0.19326 0.02847 0.84874 0.0
H429 H 0.16092 0.05783 0.85612 0.0
H430 H 0.19142 0.07406 0.92727 0.0
H431 H 0.22483 0.04608 0.91862 0.0
H432 H 0.38575 0.96482 0.87981 0.0
H433 H 0.35086 0.99292 0.87669 0.0
H434 H 0.34021 0.90477 0.85498 0.0
H435 H 0.3052 0.93294 0.85182 0.0
H436 H 0.1935 0.86328 0.85328 0.0
H437 H 0.14983 0.92918 0.85643 0.0
H438 H 0.18741 0.95441 0.85859 0.0
H439 H 0.23074 0.88835 0.85508 0.0
C440 C 0.18311 0.96244 0.13397 0.0
C441 C 0.18621 0.93752 0.13978 0.0
C442 C 0.14259 0.93036 0.13427 0.0
C443 C 0.16603 0.92154 0.13985 0.0
C444 C 0.13948 0.9554 0.12918 0.0
C445 C 0.15962 0.97132 0.12901 0.0
U446 U 0.25213 0.97786 0.13256 0.0
O447 O 0.27023 1.00066 0.10467 0.0
O448 O 0.27029 0.01252 0.14315 0.0
C449 C 0.2763 0.01778 0.12058 0.0
C450 C 0.20411 0.97911 0.13094 0.0
C451 C 0.29816 0.03302 0.11606 0.0
C452 C 0.3155 0.06778 0.0943 0.0
C453 C 0.29691 0.05043 0.09748 0.0
C454 C 0.33736 0.05029 0.1282 0.0
C455 C 0.336 0.06873 0.11 0.0
C456 C 0.31873 0.03272 0.13114 0.0
C457 C 0.2957 0.92248 0.14798 0.0
C458 C 0.33977 0.9199 0.15255 0.0
C459 C 0.31511 0.88272 0.15271 0.0
C460 C 0.2941 0.89682 0.14989 0.0
C461 C 0.33813 0.89409 0.15389 0.0
C462 C 0.31862 0.93407 0.14946 0.0
C463 C 0.27288 0.93612 0.14444 0.0
O464 O 0.21675 0.9846 0.15058 0.0
O465 O 0.21791 0.97451 0.11194 0.0
O466 O 0.2671 0.94182 0.12196 0.0
O467 O 0.26756 0.95342 0.16039 0.0
H468 H 0.20426 0.93032 0.14349 0.0
H469 H 0.16877 0.90218 0.14352 0.0
H470 H 0.12162 0.96244 0.12442 0.0
H471 H 0.15696 0.99045 0.12424 0.0
H472 H 0.31304 0.08042 0.07949 0.0
H473 H 0.28105 0.05108 0.08568 0.0
H474 H 0.35222 0.04935 0.14098 0.0
H475 H 0.32008 0.01943 0.14568 0.0
H476 H 0.35742 0.92898 0.15324 0.0
H477 H 0.31342 0.86287 0.15384 0.0
H478 H 0.27651 0.88761 0.14896 0.0
H479 H 0.32016 0.95389 0.14802 0.0
C480 C 0.36796 0.1916 0.04477 0.0
C481 C 0.36366 0.19423 0.06979 0.0
C482 C 0.36575 0.14979 0.07454 0.0
C483 C 0.36266 0.17341 0.0846 0.0
C484 C 0.36903 0.14716 0.04936 0.0
C485 C 0.3702 0.16799 0.03458 0.0
U486 U 0.37462 0.26133 0.03272 0.0
O487 O 0.36393 0.28057 0.99945 0.0
O488 O 0.40295 0.27836 0.00946 0.0
C489 C 0.38668 0.28549 0.99339 0.0
C490 C 0.37224 0.21309 0.02931 0.0
C491 C 0.39165 0.30725 0.97832 0.0
C492 C 0.41454 0.32431 0.94439 0.0
C493 C 0.41161 0.30648 0.96238 0.0
C494 C 0.37748 0.3441 0.9581 0.0
C495 C 0.3971 0.34312 0.94131 0.0
C496 C 0.37496 0.32657 0.97648 0.0
C497 C 0.36415 0.30512 0.08934 0.0
C498 C 0.36075 0.34958 0.09334 0.0
C499 C 0.36171 0.32411 0.12938 0.0
C500 C 0.36348 0.30313 0.11475 0.0
C501 C 0.36034 0.3475 0.11884 0.0
C502 C 0.36278 0.32846 0.07861 0.0
C503 C 0.36568 0.28219 0.07504 0.0
O504 O 0.35344 0.22749 0.02541 0.0
O505 O 0.39252 0.22528 0.03381 0.0
O506 O 0.38756 0.2749 0.06835 0.0
O507 O 0.34875 0.27822 0.05847 0.0
H508 H 0.36199 0.21235 0.07795 0.0
H509 H 0.36035 0.17575 0.10406 0.0
H510 H 0.3719 0.12914 0.04134 0.0
H511 H 0.37375 0.16572 0.0153 0.0
H512 H 0.43042 0.32282 0.93282 0.0
H513 H 0.42458 0.29148 0.96327 0.0
H514 H 0.36313 0.35757 0.95671 0.0
H515 H 0.35925 0.32745 0.98843 0.0
H516 H 0.35993 0.36752 0.08489 0.0
H517 H 0.36131 0.32207 0.14898 0.0
H518 H 0.36432 0.28525 0.12333 0.0
H519 H 0.36327 0.33033 0.05901 0.0
C520 C 0.03047 0.87998 0.20174 0.0
C521 C 0.03327 0.86314 0.1826 0.0
C522 C 0.06511 0.88911 0.16438 0.0
C523 C 0.05052 0.8675 0.16432 0.0
C524 C 0.06152 0.9062 0.18344 0.0
C525 C 0.04471 0.90149 0.20196 0.0
U526 U 0.97559 0.86334 0.24697 0.0
O527 O 0.97554 0.88208 0.28233 0.0
O528 O 0.98057 0.8421 0.28076 0.0
C529 C 0.97817 0.8617 0.29469 0.0
C530 C 0.01584 0.87431 0.22351 0.0
C531 C 0.96216 0.8597 0.31597 0.0
C532 C 0.95698 0.86613 0.35945 0.0
C533 C 0.97216 0.86407 0.3391 0.0
C534 C 0.92162 0.85886 0.33376 0.0
C535 C 0.93158 0.86409 0.35681 0.0
C536 C 0.93684 0.8566 0.31342 0.0
C537 C 0.9182 0.8571 0.20363 0.0
C538 C 0.87778 0.85712 0.18537 0.0
C539 C 0.91374 0.8576 0.15963 0.0
C540 C 0.92875 0.85749 0.18036 0.0
C541 C 0.88814 0.85766 0.16208 0.0
C542 C 0.89269 0.8567 0.20593 0.0
C543 C 0.93273 0.85725 0.22614 0.0
O544 O 1.00042 0.89101 0.23141 0.0
O545 O 0.00872 0.85149 0.22746 0.0
O546 O 0.94822 0.83913 0.2295 0.0
O547 O 0.94088 0.8787 0.23386 0.0
H548 H 0.02283 0.84617 0.1822 0.0
H549 H 0.05278 0.85323 0.15076 0.0
H550 H 0.07163 0.9233 0.18438 0.0
H551 H 0.04323 0.91454 0.21689 0.0
H552 H 0.96497 0.87041 0.37702 0.0
H553 H 0.99166 0.86686 0.34127 0.0
H554 H 0.90203 0.85718 0.33143 0.0
H555 H 0.92882 0.85342 0.29564 0.0
H556 H 0.85811 0.85686 0.18765 0.0
H557 H 0.92204 0.85803 0.14175 0.0
H558 H 0.94843 0.8578 0.17826 0.0
H559 H 0.88424 0.85621 0.22376 0.0
C560 C 0.13978 0.82755 0.54783 0.0
C561 C 0.14376 0.82444 0.57285 0.0
C562 C 0.14154 0.86877 0.57902 0.0
C563 C 0.14451 0.84496 0.58838 0.0
C564 C 0.13835 0.87187 0.55391 0.0
C565 C 0.13742 0.85136 0.53843 0.0
U566 U 0.13571 0.75804 0.53426 0.0
O567 O 0.10801 0.73964 0.51104 0.0
O568 O 0.14725 0.73809 0.5013 0.0
C569 C 0.12461 0.73273 0.49515 0.0
C570 C 0.13619 0.80633 0.5315 0.0
C571 C 0.11979 0.71206 0.47841 0.0
C572 C 0.10317 0.6993 0.4394 0.0
C573 C 0.10571 0.71685 0.45782 0.0
C574 C 0.12728 0.67081 0.46287 0.0
C575 C 0.11414 0.67585 0.44118 0.0
C576 C 0.13042 0.68886 0.48105 0.0
C577 C 0.1474 0.71491 0.58998 0.0
C578 C 0.1504 0.6704 0.59219 0.0
C579 C 0.15025 0.69493 0.62921 0.0
C580 C 0.14853 0.71628 0.61541 0.0
C581 C 0.15108 0.67183 0.61774 0.0
C582 C 0.14843 0.69188 0.57832 0.0
C583 C 0.14528 0.73804 0.57655 0.0
O584 O 0.15548 0.79268 0.52713 0.0
O585 O 0.11635 0.79333 0.53555 0.0
O586 O 0.12318 0.74448 0.5698 0.0
O587 O 0.16214 0.74265 0.56014 0.0
H588 H 0.14549 0.80616 0.58042 0.0
H589 H 0.1467 0.84225 0.60777 0.0
H590 H 0.13558 0.89005 0.54643 0.0
H591 H 0.13411 0.85405 0.51919 0.0
H592 H 0.09322 0.7051 0.42354 0.0
H593 H 0.09745 0.73478 0.4554 0.0
H594 H 0.13556 0.65316 0.46613 0.0
H595 H 0.14138 0.6848 0.49693 0.0
H596 H 0.1508 0.65268 0.58306 0.0
H597 H 0.15085 0.69643 0.64887 0.0
H598 H 0.14791 0.73395 0.62465 0.0
H599 H 0.14756 0.69054 0.55867 0.0
C600 C 0.95436 0.64217 0.77705 0.0
C601 C 0.92967 0.63946 0.77074 0.0
C602 C 0.91776 0.64951 0.81257 0.0
C603 C 0.91146 0.64319 0.78839 0.0
C604 C 0.94261 0.65255 0.81841 0.0
C605 C 0.96062 0.64902 0.80084 0.0
U606 U 1.00001 0.62593 0.72141 0.0
O607 O 0.03512 0.64571 0.72089 0.0
O608 O 0.03425 0.60637 0.72943 0.0
C609 C 0.04791 0.62591 0.72558 0.0
C610 C 0.97444 0.63717 0.76004 0.0
C611 C 0.06981 0.62246 0.71045 0.0
C612 C 0.11328 0.62986 0.70474 0.0
C613 C 0.09243 0.63068 0.71942 0.0
C614 C 0.08926 0.6118 0.67211 0.0
C615 C 0.11176 0.6207 0.68089 0.0
C616 C 0.06837 0.61262 0.68682 0.0
C617 C 0.95788 0.61318 0.66479 0.0
C618 C 0.93858 0.61208 0.62504 0.0
C619 C 0.91395 0.60738 0.66138 0.0
C620 C 0.935 0.60967 0.67582 0.0
C621 C 0.9156 0.60881 0.63588 0.0
C622 C 0.95951 0.61415 0.63938 0.0
C623 C 0.98065 0.61557 0.67881 0.0
O624 O 0.97993 0.61434 0.75421 0.0
O625 O 0.98108 0.65373 0.74398 0.0
O626 O 0.98713 0.63795 0.68545 0.0
O627 O 0.98495 0.59885 0.69546 0.0
H628 H 0.92454 0.63424 0.75238 0.0
H629 H 0.8925 0.64104 0.78313 0.0
H630 H 0.94835 0.65691 0.8368 0.0
H631 H 0.97963 0.65111 0.80603 0.0
H632 H 0.13034 0.63731 0.71163 0.0
H633 H 0.09381 0.6385 0.73756 0.0
H634 H 0.08769 0.60512 0.65356 0.0
H635 H 0.05102 0.60636 0.67953 0.0
H636 H 0.94031 0.61318 0.60543 0.0
H637 H 0.89633 0.60516 0.6701 0.0
H638 H 0.93342 0.60889 0.69544 0.0
H639 H 0.97705 0.61667 0.63057 0.0
C640 C 0.14094 0.28086 0.46822 0.0
C641 C 0.13792 0.27294 0.44409 0.0
C642 C 0.14769 0.31446 0.42965 0.0
C643 C 0.1414 0.2896 0.42492 0.0
C644 C 0.15117 0.32186 0.45398 0.0
C645 C 0.14795 0.30524 0.47293 0.0
U646 U 0.1241 0.22478 0.51249 0.0
O647 O 0.14402 0.22173 0.54708 0.0
O648 O 0.10514 0.23122 0.54735 0.0
C649 C 0.12466 0.22641 0.56039 0.0
C650 C 0.13628 0.26506 0.48935 0.0
C651 C 0.12143 0.21073 0.58193 0.0
C652 C 0.13015 0.20399 0.62479 0.0
C653 C 0.13085 0.21906 0.60427 0.0
C654 C 0.10975 0.17223 0.60113 0.0
C655 C 0.11985 0.18037 0.62331 0.0
C656 C 0.11052 0.18733 0.58051 0.0
C657 C 0.10985 0.16983 0.4675 0.0
C658 C 0.10776 0.13025 0.44695 0.0
C659 C 0.10424 0.16778 0.4236 0.0
C660 C 0.10674 0.18173 0.44508 0.0
C661 C 0.10504 0.14192 0.42439 0.0
C662 C 0.11009 0.14408 0.46824 0.0
C663 C 0.11267 0.18315 0.4907 0.0
O664 O 0.11356 0.25951 0.49493 0.0
O665 O 0.15216 0.2479 0.49489 0.0
O666 O 0.13506 0.18889 0.49736 0.0
O667 O 0.09652 0.20022 0.49598 0.0
H668 H 0.13263 0.2541 0.44013 0.0
H669 H 0.139 0.28303 0.40644 0.0
H670 H 0.15555 0.34076 0.4586 0.0
H671 H 0.15037 0.31166 0.49149 0.0
H672 H 0.13843 0.21041 0.64158 0.0
H673 H 0.13946 0.23702 0.60565 0.0
H674 H 0.10211 0.15386 0.59957 0.0
H675 H 0.10328 0.18051 0.5634 0.0
H676 H 0.1083 0.11035 0.44807 0.0
H677 H 0.10236 0.17714 0.40636 0.0
H678 H 0.10648 0.20163 0.44419 0.0
H679 H 0.11228 0.13459 0.4854 0.0
C680 C 0.43807 0.40143 0.21571 0.0
C681 C 0.43983 0.41011 0.19177 0.0
C682 C 0.39751 0.39844 0.18451 0.0
C683 C 0.41961 0.40859 0.17623 0.0
C684 C 0.39557 0.39055 0.20866 0.0
C685 C 0.41577 0.39202 0.22416 0.0
U686 U 0.50735 0.40087 0.22542 0.0
O687 O 0.52775 0.37271 0.24574 0.0
O688 O 0.52903 0.41192 0.25763 0.0
C689 C 0.53505 0.38894 0.26202 0.0
C690 C 0.45977 0.39926 0.2312 0.0
C691 C 0.55416 0.38293 0.27965 0.0
C692 C 0.56455 0.37003 0.32054 0.0
C693 C 0.54706 0.37538 0.30291 0.0
C694 C 0.59664 0.379 0.29149 0.0
C695 C 0.58961 0.372 0.31518 0.0
C696 C 0.57901 0.38452 0.27386 0.0
C697 C 0.54728 0.41345 0.16811 0.0
C698 C 0.5914 0.41632 0.16512 0.0
C699 C 0.56688 0.41223 0.12853 0.0
C700 C 0.54574 0.41201 0.14269 0.0
C701 C 0.58987 0.41414 0.13964 0.0
C702 C 0.5702 0.41581 0.17933 0.0
C703 C 0.52459 0.41161 0.18217 0.0
O704 O 0.47315 0.37983 0.2265 0.0
O705 O 0.47278 0.41935 0.23485 0.0
O706 O 0.52102 0.42824 0.19929 0.0
O707 O 0.51812 0.38927 0.18862 0.0
H708 H 0.45702 0.41719 0.18489 0.0
H709 H 0.42139 0.41464 0.15757 0.0
H710 H 0.37872 0.38244 0.21523 0.0
H711 H 0.41424 0.38495 0.24249 0.0
H712 H 0.55836 0.36504 0.33855 0.0
H713 H 0.52786 0.37396 0.30758 0.0
H714 H 0.61575 0.38025 0.28654 0.0
H715 H 0.58475 0.39012 0.25585 0.0
H716 H 0.60902 0.41761 0.17403 0.0
H717 H 0.56529 0.41071 0.10892 0.0
H718 H 0.52814 0.41028 0.13378 0.0
H719 H 0.5717 0.41686 0.19896 0.0
C720 C 0.36897 0.72945 0.96215 0.0
C721 C 0.37159 0.73546 0.93754 0.0
C722 C 0.36026 0.69333 0.92601 0.0
C723 C 0.36717 0.71752 0.91955 0.0
C724 C 0.35733 0.68781 0.9508 0.0
C725 C 0.36154 0.70569 0.96859 0.0
U726 U 0.38568 0.78598 0.00739 0.0
O727 O 0.3661 0.78639 0.04225 0.0
O728 O 0.40531 0.77828 0.04152 0.0
C729 C 0.38584 0.78201 0.05504 0.0
C730 C 0.37432 0.74685 0.98196 0.0
C731 C 0.38892 0.7976 0.07676 0.0
C732 C 0.37915 0.80491 0.1193 0.0
C733 C 0.37897 0.78953 0.09884 0.0
C734 C 0.40012 0.83635 0.09606 0.0
C735 C 0.38944 0.82852 0.11794 0.0
C736 C 0.39987 0.82097 0.07553 0.0
C737 C 0.397 0.84198 0.96462 0.0
C738 C 0.39789 0.88106 0.94351 0.0
C739 C 0.40146 0.84293 0.92066 0.0
C740 C 0.3996 0.82955 0.94231 0.0
C741 C 0.40047 0.86879 0.92111 0.0
C742 C 0.39626 0.86775 0.96505 0.0
C743 C 0.39527 0.82895 0.98788 0.0
O744 O 0.39706 0.75277 0.98717 0.0
O745 O 0.35792 0.76309 0.98877 0.0
O746 O 0.37324 0.82216 0.99468 0.0
O747 O 0.41214 0.81241 0.99237 0.0
H748 H 0.37722 0.75381 0.93228 0.0
H749 H 0.36924 0.72257 0.90064 0.0
H750 H 0.35252 0.66942 0.95664 0.0
H751 H 0.35946 0.70077 0.98757 0.0
H752 H 0.37038 0.79879 0.13588 0.0
H753 H 0.37026 0.77162 0.10001 0.0
H754 H 0.40771 0.85473 0.09463 0.0
H755 H 0.40743 0.82759 0.05856 0.0
H756 H 0.39732 0.90098 0.94435 0.0
H757 H 0.40327 0.8331 0.90355 0.0
H758 H 0.40017 0.80963 0.94167 0.0
H759 H 0.3944 0.87762 0.98215 0.0
C760 C 0.06847 0.39998 0.79652 0.0
C761 C 0.0673 0.41051 0.81989 0.0
C762 C 0.10921 0.39802 0.8277 0.0
C763 C 0.0876 0.40955 0.83539 0.0
C764 C 0.11057 0.38815 0.80412 0.0
C765 C 0.09034 0.38919 0.78862 0.0
U766 U 0.99904 0.39793 0.78753 0.0
O767 O 0.97829 0.37044 0.76598 0.0
O768 O 0.97638 0.4102 0.75662 0.0
C769 C 0.97013 0.38742 0.75115 0.0
C770 C 0.04661 0.39772 0.78104 0.0
C771 C 0.95165 0.38185 0.73249 0.0
C772 C 0.94213 0.37014 0.69078 0.0
C773 C 0.95927 0.37518 0.70903 0.0
C774 C 0.90941 0.37781 0.71947 0.0
C775 C 0.91693 0.37161 0.69566 0.0
C776 C 0.92664 0.38295 0.73771 0.0
C777 C 0.96041 0.40743 0.84654 0.0
C778 C 0.91646 0.41084 0.85106 0.0
C779 C 0.942 0.40556 0.8867 0.0
C780 C 0.96268 0.4053 0.87186 0.0
C781 C 0.91874 0.40826 0.8764 0.0
C782 C 0.93719 0.41027 0.83615 0.0
C783 C 0.9827 0.40635 0.83175 0.0
O784 O 0.03361 0.37777 0.78479 0.0
O785 O 0.03318 0.41755 0.77842 0.0
O786 O 0.98589 0.4238 0.81556 0.0
O787 O 0.98899 0.38442 0.82382 0.0
H788 H 0.05048 0.41864 0.82644 0.0
H789 H 0.08616 0.41691 0.85369 0.0
H790 H 0.12695 0.37883 0.79805 0.0
H791 H 0.09146 0.38072 0.77075 0.0
H792 H 0.94867 0.36574 0.67269 0.0
H793 H 0.97857 0.37416 0.70473 0.0
H794 H 0.8902 0.37868 0.72407 0.0
H795 H 0.92045 0.38785 0.75582 0.0
H796 H 0.8986 0.41281 0.84279 0.0
H797 H 0.94416 0.40375 0.90621 0.0
H798 H 0.98052 0.40324 0.88015 0.0
H799 H 0.9351 0.41187 0.81662 0.0
C800 C 0.36707 0.28399 0.54755 0.0
C801 C 0.36994 0.27739 0.57195 0.0
C802 C 0.35897 0.31919 0.58449 0.0
C803 C 0.36577 0.29487 0.59035 0.0
C804 C 0.35557 0.32525 0.5599 0.0
C805 C 0.35948 0.30779 0.5417 0.0
U806 U 0.38523 0.22781 0.50329 0.0
O807 O 0.36566 0.22585 0.46849 0.0
O808 O 0.40463 0.23545 0.469 0.0
C809 C 0.38515 0.23115 0.45562 0.0
C810 C 0.37259 0.26734 0.52731 0.0
C811 C 0.38839 0.21621 0.43357 0.0
C812 C 0.37974 0.21077 0.39052 0.0
C813 C 0.37959 0.22544 0.41147 0.0
C814 C 0.39831 0.17771 0.4134 0.0
C815 C 0.38873 0.18671 0.39148 0.0
C816 C 0.39818 0.19242 0.4344 0.0
C817 C 0.39841 0.17308 0.54745 0.0
C818 C 0.40009 0.13414 0.56879 0.0
C819 C 0.40371 0.17243 0.59139 0.0
C820 C 0.40134 0.18567 0.56966 0.0
C821 C 0.40292 0.14653 0.5911 0.0
C822 C 0.39794 0.1473 0.5472 0.0
C823 C 0.39619 0.18583 0.52403 0.0
O824 O 0.3955 0.26211 0.52232 0.0
O825 O 0.35678 0.25014 0.52115 0.0
O826 O 0.37396 0.1915 0.51701 0.0
O827 O 0.4125 0.20297 0.51921 0.0
H828 H 0.37567 0.25898 0.57672 0.0
H829 H 0.3681 0.2894 0.60911 0.0
H830 H 0.35078 0.34374 0.55451 0.0
H831 H 0.35718 0.31313 0.52286 0.0
H832 H 0.37192 0.21783 0.37386 0.0
H833 H 0.37179 0.24372 0.41063 0.0
H834 H 0.40505 0.15903 0.41444 0.0
H835 H 0.40489 0.18498 0.45137 0.0
H836 H 0.39963 0.11421 0.56804 0.0
H837 H 0.40566 0.18237 0.60843 0.0
H838 H 0.40173 0.2056 0.57019 0.0
H839 H 0.39587 0.13728 0.53021 0.0
C840 C 0.43638 0.61316 0.30093 0.0
C841 C 0.43841 0.60433 0.32481 0.0
C842 C 0.39619 0.61581 0.33271 0.0
C843 C 0.41837 0.60567 0.34063 0.0
C844 C 0.39404 0.62399 0.30868 0.0
C845 C 0.41404 0.62271 0.29292 0.0
U846 U 0.50553 0.61283 0.28848 0.0
O847 O 0.52537 0.64056 0.26691 0.0
O848 O 0.52546 0.60143 0.25532 0.0
C849 C 0.53157 0.62428 0.25028 0.0
C850 C 0.45772 0.61498 0.28483 0.0
C851 C 0.55184 0.62956 0.23354 0.0
C852 C 0.56423 0.64187 0.19293 0.0
C853 C 0.54594 0.63698 0.20991 0.0
C854 C 0.59491 0.63262 0.22326 0.0
C855 C 0.58903 0.6396 0.19922 0.0
C856 C 0.57644 0.62755 0.24028 0.0
C857 C 0.54677 0.60009 0.34517 0.0
C858 C 0.59087 0.59743 0.34808 0.0
C859 C 0.56648 0.6014 0.38473 0.0
C860 C 0.54531 0.60145 0.37061 0.0
C861 C 0.58943 0.5997 0.37356 0.0
C862 C 0.56963 0.59779 0.3339 0.0
C863 C 0.52407 0.60218 0.3312 0.0
O864 O 0.47168 0.63424 0.28893 0.0
O865 O 0.47018 0.59472 0.28078 0.0
O866 O 0.51985 0.5855 0.31424 0.0
O867 O 0.51799 0.62457 0.32473 0.0
H868 H 0.4556 0.59711 0.33137 0.0
H869 H 0.42031 0.59932 0.35917 0.0
H870 H 0.37713 0.63203 0.30234 0.0
H871 H 0.41227 0.62987 0.27464 0.0
H872 H 0.55879 0.64676 0.17465 0.0
H873 H 0.52699 0.63872 0.20444 0.0
H874 H 0.61377 0.6311 0.22899 0.0
H875 H 0.58132 0.62203 0.25855 0.0
H876 H 0.60846 0.59626 0.33913 0.0
H877 H 0.56496 0.60296 0.40433 0.0
H878 H 0.52774 0.60311 0.37955 0.0
H879 H 0.57106 0.59678 0.31427 0.0
C880 C 0.11418 0.79502 0.9291 0.0
C881 C 0.10264 0.81801 0.93061 0.0
C882 C 0.11725 0.82795 0.89003 0.0
C883 C 0.10409 0.83437 0.91105 0.0
C884 C 0.12818 0.80475 0.88835 0.0
C885 C 0.12657 0.78837 0.90775 0.0
U886 U 0.11532 0.78177 0.99791 0.0
O887 O 0.14443 0.76009 0.01514 0.0
O888 O 0.10607 0.74758 0.01729 0.0
C889 C 0.12914 0.74286 0.0222 0.0
C890 C 0.11631 0.77882 0.95023 0.0
C891 C 0.13526 0.72871 0.04409 0.0
C892 C 0.16044 0.69681 0.06216 0.0
C893 C 0.15523 0.71269 0.04295 0.0
C894 C 0.12531 0.71252 0.08383 0.0
C895 C 0.14536 0.69599 0.08296 0.0
C896 C 0.12054 0.72881 0.06482 0.0
C897 C 0.1024 0.83889 0.04033 0.0
C898 C 0.09851 0.84257 0.08415 0.0
C899 C 0.1024 0.87928 0.05955 0.0
C900 C 0.10336 0.86463 0.03864 0.0
C901 C 0.10017 0.86836 0.08248 0.0
C902 C 0.09976 0.82786 0.06318 0.0
C903 C 0.10449 0.82448 0.01776 0.0
O904 O 0.13565 0.78314 0.96369 0.0
O905 O 0.09647 0.77447 0.96305 0.0
O906 O 0.08818 0.80704 0.01381 0.0
O907 O 0.1267 0.81839 0.01102 0.0
H908 H 0.0933 0.82359 0.94711 0.0
H909 H 0.09573 0.85235 0.91264 0.0
H910 H 0.13857 0.79961 0.87235 0.0
H911 H 0.13584 0.77081 0.90646 0.0
H912 H 0.1763 0.68522 0.06025 0.0
H913 H 0.16666 0.71211 0.02685 0.0
H914 H 0.11237 0.71268 0.0986 0.0
H915 H 0.10485 0.74085 0.066 0.0
H916 H 0.09694 0.8338 0.10174 0.0
H917 H 0.1035 0.89911 0.05783 0.0
H918 H 0.10519 0.87343 0.02108 0.0
H919 H 0.09896 0.80802 0.0648 0.0
C920 C 0.78242 0.96179 0.63962 0.0
C921 C 0.77645 0.93678 0.63731 0.0
C922 C 0.81879 0.9258 0.64648 0.0
C923 C 0.79454 0.91886 0.64079 0.0
C924 C 0.82431 0.95097 0.64906 0.0
C925 C 0.80631 0.96868 0.64577 0.0
U926 U 0.72452 1.00489 0.62479 0.0
O927 O 0.72334 0.04107 0.64289 0.0
O928 O 0.73017 0.03879 0.60365 0.0
C929 C 0.72703 0.05323 0.62264 0.0
C930 C 0.76499 0.98164 0.63485 0.0
C931 C 0.71193 0.07531 0.61926 0.0
C932 C 0.70713 0.11938 0.62567 0.0
C933 C 0.7214 0.09813 0.62687 0.0
C934 C 0.67386 0.09537 0.6085 0.0
C935 C 0.68319 0.11811 0.61672 0.0
C936 C 0.68816 0.07405 0.60973 0.0
C937 C 0.66918 0.95908 0.61695 0.0
C938 C 0.63006 0.9379 0.61767 0.0
C939 C 0.66732 0.91454 0.61222 0.0
C940 C 0.68105 0.93641 0.61365 0.0
C941 C 0.64171 0.91517 0.61435 0.0
C942 C 0.64367 0.95961 0.61887 0.0
C943 C 0.6823 0.98276 0.61774 0.0
O944 O 0.75775 0.98576 0.61244 0.0
O945 O 0.74936 0.98836 0.65177 0.0
O946 O 0.68971 0.9906 0.63919 0.0
O947 O 0.69793 0.98726 0.60013 0.0
H948 H 0.75802 0.93117 0.6326 0.0
H949 H 0.78956 0.89963 0.63898 0.0
H950 H 0.84274 0.95715 0.65294 0.0
H951 H 0.81124 0.98796 0.64752 0.0
H952 H 0.71447 0.13662 0.63254 0.0
H953 H 0.73968 0.09939 0.63439 0.0
H954 H 0.65523 0.09401 0.60194 0.0
H955 H 0.68049 0.05658 0.60387 0.0
H956 H 0.61034 0.93886 0.61917 0.0
H957 H 0.67665 0.89715 0.60983 0.0
H958 H 0.70076 0.93566 0.61214 0.0
H959 H 0.63419 0.97694 0.62121 0.0
C960 C 0.72591 0.95794 0.3696 0.0
C961 C 0.73132 0.93284 0.37137 0.0
C962 C 0.68866 0.92256 0.36251 0.0
C963 C 0.71281 0.91523 0.36777 0.0
C964 C 0.68368 0.94782 0.36037 0.0
C965 C 0.70212 0.96525 0.3638 0.0
U966 U 0.78311 1.00309 0.38445 0.0
O967 O 0.78245 0.03906 0.36636 0.0
O968 O 0.77575 0.03681 0.40561 0.0
C969 C 0.77851 0.05122 0.38668 0.0
C970 C 0.74403 0.97727 0.37453 0.0
C971 C 0.79353 0.07344 0.39021 0.0
C972 C 0.79861 0.11743 0.384 0.0
C973 C 0.78416 0.09618 0.38275 0.0
C974 C 0.83181 0.09353 0.40082 0.0
C975 C 0.82262 0.11617 0.39275 0.0
C976 C 0.81733 0.07224 0.39961 0.0
C977 C 0.83991 0.96017 0.39201 0.0
C978 C 0.87934 0.93991 0.39124 0.0
C979 C 0.84241 0.91573 0.39647 0.0
C980 C 0.82838 0.93725 0.39511 0.0
C981 C 0.86801 0.91695 0.39445 0.0
C982 C 0.86542 0.9613 0.39014 0.0
C983 C 0.82633 0.98345 0.39136 0.0
O984 O 0.75103 0.98204 0.39697 0.0
O985 O 0.75914 0.98472 0.35748 0.0
O986 O 0.81853 0.99068 0.36995 0.0
O987 O 0.81064 0.98748 0.40904 0.0
H988 H 0.74967 0.92692 0.37577 0.0
H989 H 0.71739 0.89593 0.36919 0.0
H990 H 0.66534 0.95425 0.35678 0.0
H991 H 0.69765 0.98462 0.36245 0.0
H992 H 0.7914 0.13463 0.37725 0.0
H993 H 0.76587 0.09736 0.37529 0.0
H994 H 0.85046 0.0922 0.40728 0.0
H995 H 0.8249 0.05481 0.40533 0.0
H996 H 0.89905 0.94132 0.38984 0.0
H997 H 0.83332 0.89816 0.39878 0.0
H998 H 0.80867 0.93604 0.39658 0.0
H999 H 0.87463 0.97885 0.38792 0.0
C1000 C 0.79106 0.93947 0.11324 0.0
C1001 C 0.81537 0.94154 0.10534 0.0
C1002 C 0.82216 0.89845 0.11491 0.0
C1003 C 0.83085 0.92111 0.1062 0.0
C1004 C 0.79769 0.89624 0.1221 0.0
C1005 C 0.78226 0.91667 0.12133 0.0
U1006 U 0.78129 0.00919 0.1154 0.0
O1007 O 0.75937 0.02957 0.14249 0.0
O1008 O 0.74978 0.03133 0.10322 0.0
C1009 C 0.74407 0.03724 0.12576 0.0
C1010 C 0.7753 0.96119 0.11547 0.0
C1011 C 0.72603 0.05646 0.13119 0.0
C1012 C 0.68421 0.06692 0.14182 0.0
C1013 C 0.70209 0.0493 0.1369 0.0
C1014 C 0.7142 0.09925 0.13587 0.0
C1015 C 0.68992 0.09216 0.14114 0.0
C1016 C 0.73211 0.08152 0.1309 0.0
C1017 C 0.84035 0.04872 0.10646 0.0
C1018 C 0.84467 0.09308 0.10475 0.0
C1019 C 0.88066 0.06748 0.10857 0.0
C1020 C 0.86582 0.04654 0.10815 0.0
C1021 C 0.87018 0.09091 0.10702 0.0
C1022 C 0.82978 0.07209 0.10463 0.0
C1023 C 0.82554 0.0262 0.10732 0.0
O1024 O 0.77902 0.97435 0.13523 0.0
O1025 O 0.77253 0.97468 0.09587 0.0
O1026 O 0.80922 0.02297 0.09 0.0
O1027 O 0.81765 0.01977 0.12894 0.0
H1028 H 0.82253 0.95907 0.09923 0.0
H1029 H 0.84974 0.92309 0.10061 0.0
H1030 H 0.79076 0.87894 0.12903 0.0
H1031 H 0.76362 0.91485 0.12774 0.0
H1032 H 0.66575 0.06073 0.14546 0.0
H1033 H 0.69712 0.02998 0.13728 0.0
H1034 H 0.71936 0.1185 0.13556 0.0
H1035 H 0.75059 0.08735 0.12673 0.0
H1036 H 0.83625 0.11106 0.10366 0.0
H1037 H 0.90028 0.06541 0.11013 0.0
H1038 H 0.87423 0.02857 0.10946 0.0
H1039 H 0.81014 0.07409 0.10339 0.0
C1040 C 0.71272 0.93733 0.90301 0.0
C1041 C 0.68825 0.93866 0.91051 0.0
C1042 C 0.68285 0.89517 0.90103 0.0
C1043 C 0.67338 0.91765 0.90948 0.0
C1044 C 0.70747 0.89375 0.89422 0.0
C1045 C 0.72229 0.91473 0.89517 0.0
U1046 U 0.72365 0.00756 0.90004 0.0
O1047 O 0.74741 0.02578 0.87313 0.0
O1048 O 0.75591 0.02869 0.91257 0.0
C1049 C 0.76271 0.03325 0.89008 0.0
C1050 C 0.72808 0.95943 0.901 0.0
C1051 C 0.78113 0.05215 0.88485 0.0
C1052 C 0.82316 0.06159 0.87414 0.0
C1053 C 0.80476 0.04442 0.8788 0.0
C1054 C 0.79429 0.09462 0.88097 0.0
C1055 C 0.81827 0.08694 0.87539 0.0
C1056 C 0.77584 0.07732 0.88572 0.0
C1057 C 0.6666 0.05031 0.90654 0.0
C1058 C 0.6642 0.09488 0.90919 0.0
C1059 C 0.62733 0.07071 0.90316 0.0
C1060 C 0.64116 0.0492 0.90363 0.0
C1061 C 0.63872 0.09372 0.90589 0.0
C1062 C 0.67812 0.07328 0.90935 0.0
C1063 C 0.68023 0.02706 0.90645 0.0
O1064 O 0.72487 0.97203 0.88098 0.0
O1065 O 0.73031 0.97341 0.92049 0.0
O1066 O 0.69581 0.02351 0.92432 0.0
O1067 O 0.68831 0.01945 0.8852 0.0
H1068 H 0.68052 0.95602 0.91643 0.0
H1069 H 0.65434 0.91902 0.91471 0.0
H1070 H 0.71499 0.87662 0.88743 0.0
H1071 H 0.74108 0.91348 0.88909 0.0
H1072 H 0.84139 0.05496 0.87024 0.0
H1073 H 0.80909 0.02498 0.87799 0.0
H1074 H 0.78978 0.114 0.8817 0.0
H1075 H 0.75759 0.08355 0.89018 0.0
H1076 H 0.67332 0.11251 0.91118 0.0
H1077 H 0.60771 0.06939 0.90079 0.0
H1078 H 0.63196 0.0316 0.90158 0.0
H1079 H 0.69776 0.07449 0.91156 0.0
C1080 C 0.63975 0.78109 0.96842 0.0
C1081 C 0.63726 0.77386 0.94403 0.0
C1082 C 0.64694 0.81585 0.93109 0.0
C1083 C 0.64094 0.79114 0.92545 0.0
C1084 C 0.64977 0.82258 0.95567 0.0
C1085 C 0.64634 0.80537 0.97403 0.0
U1086 U 0.62334 0.72441 0.01227 0.0
O1087 O 0.6433 0.72209 0.04687 0.0
O1088 O 0.60427 0.73104 0.04701 0.0
C1089 C 0.62387 0.72667 0.0601 0.0
C1090 C 0.635 0.76459 0.98892 0.0
C1091 C 0.62084 0.71112 0.08171 0.0
C1092 C 0.62976 0.70469 0.12454 0.0
C1093 C 0.63017 0.71971 0.10398 0.0
C1094 C 0.60985 0.67251 0.101 0.0
C1095 C 0.61987 0.6809 0.12311 0.0
C1096 C 0.61032 0.68755 0.08035 0.0
C1097 C 0.60992 0.66918 0.96757 0.0
C1098 C 0.60827 0.62968 0.94683 0.0
C1099 C 0.60429 0.6673 0.92369 0.0
C1100 C 0.60668 0.68116 0.94522 0.0
C1101 C 0.60534 0.64144 0.92436 0.0
C1102 C 0.61048 0.64343 0.9682 0.0
C1103 C 0.61251 0.68245 0.99082 0.0
O1104 O 0.6123 0.75878 0.99433 0.0
O1105 O 0.65114 0.74769 0.99451 0.0
O1106 O 0.63481 0.68854 0.99748 0.0
O1107 O 0.59611 0.69931 0.99603 0.0
H1108 H 0.63228 0.75509 0.93941 0.0
H1109 H 0.639 0.78515 0.90672 0.0
H1110 H 0.65387 0.84138 0.96094 0.0
H1111 H 0.64831 0.81125 0.99282 0.0
H1112 H 0.63794 0.71131 0.14131 0.0
H1113 H 0.63848 0.73781 0.10529 0.0
H1114 H 0.60249 0.65402 0.09951 0.0
H1115 H 0.60317 0.68056 0.06327 0.0
H1116 H 0.60901 0.60978 0.94784 0.0
H1117 H 0.60227 0.67672 0.9065 0.0
H1118 H 0.6062 0.70106 0.94443 0.0
H1119 H 0.61278 0.63388 0.9853 0.0
C1120 C 0.93563 0.11146 0.80173 0.0
C1121 C 0.93748 0.10101 0.82497 0.0
C1122 C 0.89593 0.11397 0.8342 0.0
C1123 C 0.91767 0.10225 0.84112 0.0
C1124 C 0.89394 0.12379 0.81077 0.0
C1125 C 0.91365 0.12249 0.79465 0.0
U1126 U 1.00477 0.11164 0.78844 0.0
O1127 O 0.02415 0.13948 0.76655 0.0
O1128 O 0.02449 0.10036 0.75511 0.0
C1129 C 0.0304 0.12324 0.74991 0.0
C1130 C 0.95686 0.11337 0.7854 0.0
C1131 C 0.05087 0.12853 0.73333 0.0
C1132 C 0.06358 0.14138 0.69293 0.0
C1133 C 0.04517 0.13653 0.70983 0.0
C1134 C 0.09402 0.131 0.7231 0.0
C1135 C 0.08835 0.13855 0.69916 0.0
C1136 C 0.07543 0.12591 0.74001 0.0
C1137 C 0.04644 0.09919 0.845 0.0
C1138 C 0.09053 0.0965 0.84798 0.0
C1139 C 0.06609 0.10047 0.88459 0.0
C1140 C 0.04494 0.10055 0.87044 0.0
C1141 C 0.08905 0.09876 0.87346 0.0
C1142 C 0.06932 0.09687 0.83377 0.0
C1143 C 0.02374 0.1012 0.83102 0.0
O1144 O 0.97071 0.13276 0.78924 0.0
O1145 O 0.96945 0.09321 0.78122 0.0
O1146 O 0.01953 0.08447 0.81411 0.0
O1147 O 0.01754 0.12355 0.82453 0.0
H1148 H 0.95439 0.09265 0.83087 0.0
H1149 H 0.91955 0.09476 0.85925 0.0
H1150 H 0.87741 0.13312 0.80523 0.0
H1151 H 0.91201 0.13087 0.77688 0.0
H1152 H 0.05822 0.14669 0.67476 0.0
H1153 H 0.02627 0.13874 0.70437 0.0
H1154 H 0.11283 0.12905 0.72886 0.0
H1155 H 0.08019 0.11993 0.75817 0.0
H1156 H 0.10814 0.09532 0.83906 0.0
H1157 H 0.06454 0.10203 0.90419 0.0
H1158 H 0.02736 0.1022 0.87935 0.0
H1159 H 0.07078 0.09584 0.81414 0.0
C1160 C 0.86742 0.23018 0.46208 0.0
C1161 C 0.87066 0.23696 0.43773 0.0
C1162 C 0.8596 0.19518 0.42459 0.0
C1163 C 0.86665 0.21959 0.41909 0.0
C1164 C 0.85597 0.18892 0.44911 0.0
C1165 C 0.85973 0.20625 0.46755 0.0
U1166 U 0.88424 0.28619 0.50771 0.0
O1167 O 0.86477 0.28722 0.54264 0.0
O1168 O 0.90386 0.27862 0.54188 0.0
C1169 C 0.88449 0.28268 0.55542 0.0
C1170 C 0.87259 0.24678 0.48265 0.0
C1171 C 0.88783 0.29825 0.57715 0.0
C1172 C 0.8785 0.30553 0.61982 0.0
C1173 C 0.87794 0.29024 0.59929 0.0
C1174 C 0.89976 0.33675 0.59657 0.0
C1175 C 0.88913 0.329 0.61851 0.0
C1176 C 0.89913 0.32146 0.57596 0.0
C1177 C 0.89633 0.34204 0.46473 0.0
C1178 C 0.89774 0.38123 0.44382 0.0
C1179 C 0.90118 0.34318 0.42082 0.0
C1180 C 0.89904 0.32971 0.44239 0.0
C1181 C 0.90038 0.36906 0.42138 0.0
C1182 C 0.89582 0.36782 0.46529 0.0
C1183 C 0.89432 0.32893 0.48792 0.0
O1184 O 0.89534 0.25265 0.4879 0.0
O1185 O 0.85635 0.26325 0.48931 0.0
O1186 O 0.87219 0.32238 0.49464 0.0
O1187 O 0.91099 0.31221 0.49248 0.0
H1188 H 0.8765 0.25545 0.43319 0.0
H1189 H 0.86922 0.22527 0.40042 0.0
H1190 H 0.85102 0.17037 0.45429 0.0
H1191 H 0.85718 0.20071 0.4863 0.0
H1192 H 0.86975 0.29946 0.63643 0.0
H1193 H 0.86899 0.27246 0.60046 0.0
H1194 H 0.90759 0.35503 0.59515 0.0
H1195 H 0.90668 0.32803 0.55897 0.0
H1196 H 0.89731 0.40115 0.44477 0.0
H1197 H 0.90302 0.33343 0.40367 0.0
H1198 H 0.89946 0.30978 0.44165 0.0
H1199 H 0.89391 0.37762 0.48241 0.0
C1200 C 0.47861 0.87877 0.8068 0.0
C1201 C 0.48268 0.87267 0.83116 0.0
C1202 C 0.44254 0.88936 0.84219 0.0
C1203 C 0.46492 0.8782 0.84877 0.0
C1204 C 0.43895 0.89535 0.81754 0.0
C1205 C 0.45686 0.89039 0.80023 0.0
U1206 U 0.53599 0.86144 0.76413 0.0
O1207 O 0.5372 0.88076 0.72929 0.0
O1208 O 0.53042 0.84098 0.72968 0.0
C1209 C 0.53365 0.86073 0.71632 0.0
C1210 C 0.49591 0.87296 0.78726 0.0
C1211 C 0.54931 0.8585 0.69474 0.0
C1212 C 0.55378 0.86425 0.65112 0.0
C1213 C 0.53896 0.86263 0.67178 0.0
C1214 C 0.58949 0.857 0.67615 0.0
C1215 C 0.57919 0.86198 0.65326 0.0
C1216 C 0.57462 0.85518 0.6968 0.0
C1217 C 0.59164 0.85271 0.80866 0.0
C1218 C 0.63116 0.85193 0.82872 0.0
C1219 C 0.59409 0.85211 0.85284 0.0
C1220 C 0.58004 0.8526 0.83145 0.0
C1221 C 0.61977 0.85204 0.85155 0.0
C1222 C 0.61721 0.85213 0.8075 0.0
C1223 C 0.57816 0.85361 0.78553 0.0
O1224 O 0.51211 0.88951 0.78064 0.0
O1225 O 0.50235 0.85 0.78315 0.0
O1226 O 0.56213 0.83604 0.78114 0.0
O1227 O 0.57108 0.87542 0.77817 0.0
H1228 H 0.49947 0.86372 0.83653 0.0
H1229 H 0.46894 0.87373 0.86748 0.0
H1230 H 0.42204 0.90326 0.81117 0.0
H1231 H 0.45342 0.89517 0.78141 0.0
H1232 H 0.54553 0.86838 0.63371 0.0
H1233 H 0.51947 0.86556 0.66996 0.0
H1234 H 0.60909 0.8552 0.67812 0.0
H1235 H 0.58292 0.85215 0.71442 0.0
H1236 H 0.65091 0.85175 0.82731 0.0
H1237 H 0.58499 0.85237 0.87035 0.0
H1238 H 0.56029 0.85307 0.83268 0.0
H1239 H 0.62646 0.85207 0.79006 0.0
C1240 C 0.9611 0.141 0.19333 0.0
C1241 C 0.93601 0.14562 0.19596 0.0
C1242 C 0.93057 0.14229 0.15206 0.0
C1243 C 0.92082 0.14615 0.17542 0.0
C1244 C 0.95576 0.13843 0.14945 0.0
C1245 C 0.97089 0.13774 0.16995 0.0
U1246 U 0.9744 0.1382 0.26238 0.0
O1247 O 0.99691 0.11009 0.28064 0.0
O1248 O 0.00798 0.14928 0.28172 0.0
C1249 C 0.01347 0.12643 0.28719 0.0
C1250 C 0.9771 0.13757 0.21456 0.0
C1251 C 0.02962 0.12154 0.30803 0.0
C1252 C 0.06854 0.1052 0.32152 0.0
C1253 C 0.05094 0.10822 0.30345 0.0
C1254 C 0.0429 0.12739 0.3499 0.0
C1255 C 0.06509 0.11482 0.3452 0.0
C1256 C 0.02554 0.13105 0.3314 0.0
C1257 C 0.91787 0.15239 0.30453 0.0
C1258 C 0.91367 0.15599 0.34842 0.0
C1259 C 0.87768 0.15631 0.32267 0.0
C1260 C 0.89245 0.15409 0.30216 0.0
C1261 C 0.88811 0.15708 0.34596 0.0
C1262 C 0.92854 0.15353 0.32774 0.0
C1263 C 0.93219 0.14935 0.28215 0.0
O1264 O 0.98196 0.1572 0.2278 0.0
O1265 O 0.9724 0.11801 0.22769 0.0
O1266 O 0.93834 0.12678 0.27606 0.0
O1267 O 0.94928 0.16579 0.27767 0.0
H1268 H 0.92811 0.14804 0.21388 0.0
H1269 H 0.90136 0.14885 0.17778 0.0
H1270 H 0.96354 0.13495 0.13164 0.0
H1271 H 0.99016 0.1339 0.16762 0.0
H1272 H 0.08516 0.09601 0.31622 0.0
H1273 H 0.05449 0.10086 0.28543 0.0
H1274 H 0.03871 0.13463 0.36775 0.0
H1275 H 0.00914 0.14143 0.33529 0.0
H1276 H 0.922 0.1563 0.3663 0.0
H1277 H 0.85803 0.15716 0.32038 0.0
H1278 H 0.88394 0.15339 0.28435 0.0
H1279 H 0.94817 0.15222 0.32986 0.0
C1280 C 0.48009 0.13578 0.70649 0.0
C1281 C 0.48529 0.14012 0.68194 0.0
C1282 C 0.44414 0.12617 0.67065 0.0
C1283 C 0.46748 0.13521 0.66411 0.0
C1284 C 0.43931 0.12204 0.69545 0.0
C1285 C 0.45712 0.12659 0.71304 0.0
U1286 U 0.53703 0.15046 0.75134 0.0
O1287 O 0.53726 0.12932 0.78519 0.0
O1288 O 0.53059 0.16907 0.78656 0.0
C1289 C 0.53387 0.14876 0.79902 0.0
C1290 C 0.49773 0.14048 0.72612 0.0
C1291 C 0.54992 0.15032 0.82041 0.0
C1292 C 0.55487 0.14463 0.86393 0.0
C1293 C 0.53982 0.14608 0.84345 0.0
C1294 C 0.59039 0.15194 0.83861 0.0
C1295 C 0.58026 0.14719 0.8616 0.0
C1296 C 0.57527 0.15362 0.81809 0.0
C1297 C 0.59324 0.16117 0.70874 0.0
C1298 C 0.63251 0.16217 0.68834 0.0
C1299 C 0.59513 0.16147 0.66462 0.0
C1300 C 0.58137 0.16108 0.68612 0.0
C1301 C 0.62081 0.16163 0.66564 0.0
C1302 C 0.61881 0.16206 0.7097 0.0
C1303 C 0.57989 0.15943 0.73179 0.0
O1304 O 0.51355 0.12348 0.73224 0.0
O1305 O 0.5041 0.16314 0.73193 0.0
O1306 O 0.56387 0.17676 0.73661 0.0
O1307 O 0.57249 0.1373 0.73796 0.0
H1308 H 0.50302 0.14717 0.67658 0.0
H1309 H 0.47216 0.13832 0.64525 0.0
H1310 H 0.42156 0.11577 0.70156 0.0
H1311 H 0.45279 0.12317 0.73198 0.0
H1312 H 0.54677 0.14064 0.88147 0.0
H1313 H 0.52033 0.14317 0.84548 0.0
H1314 H 0.60998 0.15388 0.8365 0.0
H1315 H 0.58338 0.15673 0.80038 0.0
H1316 H 0.65228 0.1625 0.68953 0.0
H1317 H 0.58579 0.16091 0.64725 0.0
H1318 H 0.56161 0.16032 0.6851 0.0
H1319 H 0.62823 0.16222 0.72706 0.0
C1320 C 0.13732 0.18799 0.96238 0.0
C1321 C 0.14114 0.19055 0.93727 0.0
C1322 C 0.13987 0.14599 0.93223 0.0
C1323 C 0.14229 0.16964 0.92226 0.0
C1324 C 0.13676 0.14348 0.95742 0.0
C1325 C 0.13546 0.16436 0.97237 0.0
U1326 U 0.13219 0.25778 0.97507 0.0
O1327 O 0.14489 0.27824 0.00742 0.0
O1328 O 0.10523 0.27596 0.99919 0.0
C1329 C 0.12243 0.28316 0.01437 0.0
C1330 C 0.1337 0.20952 0.9783 0.0
C1331 C 0.11793 0.30238 0.03274 0.0
C1332 C 0.10639 0.31201 0.07435 0.0
C1333 C 0.10888 0.29505 0.05538 0.0
C1334 C 0.12071 0.34443 0.04783 0.0
C1335 C 0.11242 0.33701 0.07106 0.0
C1336 C 0.1237 0.32719 0.02892 0.0
C1337 C 0.1414 0.30114 0.91904 0.0
C1338 C 0.14403 0.34573 0.91712 0.0
C1339 C 0.14363 0.32152 0.87991 0.0
C1340 C 0.14218 0.30002 0.89357 0.0
C1341 C 0.14457 0.34454 0.89155 0.0
C1342 C 0.1423 0.32411 0.93084 0.0
C1343 C 0.14 0.27786 0.9324 0.0
O1344 O 0.15283 0.22377 0.98191 0.0
O1345 O 0.1135 0.2219 0.97458 0.0
O1346 O 0.11825 0.27096 0.93992 0.0
O1347 O 0.15749 0.27353 0.94819 0.0
H1348 H 0.14251 0.20867 0.92923 0.0
H1349 H 0.14434 0.17191 0.9028 0.0
H1350 H 0.13435 0.12543 0.96536 0.0
H1351 H 0.1323 0.16208 0.99169 0.0
H1352 H 0.10052 0.30511 0.09182 0.0
H1353 H 0.10446 0.27589 0.05868 0.0
H1354 H 0.12504 0.36349 0.04417 0.0
H1355 H 0.1307 0.33317 0.01149 0.0
H1356 H 0.14461 0.36336 0.92641 0.0
H1357 H 0.14424 0.32018 0.86024 0.0
H1358 H 0.14168 0.28241 0.8842 0.0
H1359 H 0.14169 0.32529 0.95051 0.0
C1360 C 0.38327 0.71038 0.53969 0.0
C1361 C 0.36599 0.69162 0.54288 0.0
C1362 C 0.39143 0.67294 0.57448 0.0
C1363 C 0.36987 0.67334 0.56023 0.0
C1364 C 0.40883 0.69172 0.57078 0.0
C1365 C 0.40463 0.7103 0.55383 0.0
U1366 U 0.36725 0.75376 0.48353 0.0
O1367 O 0.3864 0.78913 0.48095 0.0
O1368 O 0.34686 0.78854 0.48746 0.0
C1369 C 0.36645 0.80211 0.48384 0.0
C1370 C 0.37824 0.73211 0.52462 0.0
C1371 C 0.36416 0.82327 0.46755 0.0
C1372 C 0.36929 0.86729 0.462 0.0
C1373 C 0.36831 0.84684 0.47723 0.0
C1374 C 0.36156 0.84084 0.42712 0.0
C1375 C 0.36631 0.86438 0.43682 0.0
C1376 C 0.36039 0.82034 0.44244 0.0
C1377 C 0.35843 0.70749 0.42799 0.0
C1378 C 0.35661 0.68839 0.38795 0.0
C1379 C 0.35753 0.66289 0.42397 0.0
C1380 C 0.35848 0.6841 0.43872 0.0
C1381 C 0.35684 0.66497 0.39847 0.0
C1382 C 0.35726 0.70942 0.40259 0.0
C1383 C 0.35972 0.73055 0.44211 0.0
O1384 O 0.39476 0.7387 0.50856 0.0
O1385 O 0.35561 0.73648 0.51776 0.0
O1386 O 0.34219 0.73516 0.45784 0.0
O1387 O 0.38142 0.73803 0.44935 0.0
H1388 H 0.3491 0.69151 0.5326 0.0
H1389 H 0.35537 0.66005 0.56279 0.0
H1390 H 0.42578 0.69228 0.58088 0.0
H1391 H 0.41796 0.72499 0.55208 0.0
H1392 H 0.37333 0.88523 0.46975 0.0
H1393 H 0.3716 0.84933 0.49654 0.0
H1394 H 0.35934 0.83831 0.40768 0.0
H1395 H 0.35736 0.80221 0.43467 0.0
H1396 H 0.35587 0.6904 0.36836 0.0
H1397 H 0.3578 0.64491 0.43239 0.0
H1398 H 0.35939 0.68227 0.45831 0.0
H1399 H 0.35704 0.72732 0.394 0.0
C1400 C 0.68613 0.54754 0.87415 0.0
C1401 C 0.68848 0.57253 0.86835 0.0
C1402 C 0.64465 0.5778 0.87346 0.0
C1403 C 0.66782 0.5876 0.86811 0.0
C1404 C 0.64222 0.55259 0.87821 0.0
C1405 C 0.66289 0.53756 0.87861 0.0
U1406 U 0.75558 0.53543 0.87684 0.0
O1407 O 0.77423 0.51434 0.90562 0.0
O1408 O 0.77405 0.50086 0.86765 0.0
C1409 C 0.78047 0.49674 0.89034 0.0
C1410 C 0.70767 0.53208 0.87795 0.0
C1411 C 0.80282 0.48252 0.89498 0.0
C1412 C 0.82289 0.45209 0.92035 0.0
C1413 C 0.80457 0.46957 0.91692 0.0
C1414 C 0.83814 0.46036 0.87988 0.0
C1415 C 0.83968 0.44673 0.90165 0.0
C1416 C 0.82009 0.47816 0.87668 0.0
C1417 C 0.79805 0.59162 0.85955 0.0
C1418 C 0.84204 0.59568 0.8545 0.0
C1419 C 0.81639 0.63194 0.8539 0.0
C1420 C 0.79579 0.61718 0.85719 0.0
C1421 C 0.8397 0.62138 0.85268 0.0
C1422 C 0.82128 0.58083 0.85803 0.0
C1423 C 0.77555 0.57728 0.86345 0.0
O1424 O 0.72071 0.52662 0.8586 0.0
O1425 O 0.72106 0.53807 0.89692 0.0
O1426 O 0.76958 0.57238 0.88609 0.0
O1427 O 0.7708 0.55915 0.84819 0.0
H1428 H 0.70632 0.58053 0.86497 0.0
H1429 H 0.67 0.60709 0.8646 0.0
H1430 H 0.62456 0.5448 0.88276 0.0
H1431 H 0.66086 0.51832 0.88333 0.0
H1432 H 0.82353 0.44262 0.93759 0.0
H1433 H 0.79114 0.47232 0.93116 0.0
H1434 H 0.85012 0.45667 0.86467 0.0
H1435 H 0.81895 0.48763 0.85943 0.0
H1436 H 0.85993 0.58725 0.85392 0.0
H1437 H 0.81418 0.65171 0.85259 0.0
H1438 H 0.77799 0.6258 0.85817 0.0
H1439 H 0.82336 0.5611 0.85983 0.0
C1440 C 0.71233 0.47922 0.12899 0.0
C1441 C 0.694 0.47588 0.14642 0.0
C1442 C 0.67361 0.44569 0.12 0.0
C1443 C 0.67501 0.45914 0.14208 0.0
C1444 C 0.69189 0.4497 0.10242 0.0
C1445 C 0.71111 0.46601 0.10702 0.0
U1446 U 0.75806 0.53383 0.1463 0.0
O1447 O 0.7921 0.53617 0.12558 0.0
O1448 O 0.79349 0.52836 0.16466 0.0
C1449 C 0.80598 0.53253 0.14466 0.0
C1450 C 0.73466 0.49346 0.13411 0.0
C1451 C 0.82693 0.54925 0.14643 0.0
C1452 C 0.86957 0.55693 0.13687 0.0
C1453 C 0.84989 0.54066 0.13901 0.0
C1454 C 0.84361 0.59048 0.15023 0.0
C1455 C 0.86638 0.58198 0.14204 0.0
C1456 C 0.82392 0.57417 0.15244 0.0
C1457 C 0.71329 0.58903 0.15925 0.0
C1458 C 0.69301 0.62856 0.16269 0.0
C1459 C 0.66897 0.591 0.16129 0.0
C1460 C 0.69048 0.57712 0.15948 0.0
C1461 C 0.67013 0.61685 0.1626 0.0
C1462 C 0.71437 0.61475 0.16116 0.0
C1463 C 0.7365 0.57572 0.15672 0.0
O1464 O 0.74115 0.51029 0.11828 0.0
O1465 O 0.74013 0.49913 0.15681 0.0
O1466 O 0.74168 0.55908 0.1732 0.0
O1467 O 0.74301 0.56934 0.13456 0.0
H1468 H 0.69476 0.48554 0.1637 0.0
H1469 H 0.66195 0.45633 0.15656 0.0
H1470 H 0.69157 0.44029 0.08503 0.0
H1471 H 0.7254 0.46795 0.0935 0.0
H1472 H 0.887 0.55017 0.13038 0.0
H1473 H 0.85235 0.52151 0.13399 0.0
H1474 H 0.84094 0.60983 0.15426 0.0
H1475 H 0.80621 0.5811 0.15794 0.0
H1476 H 0.69433 0.64845 0.16381 0.0
H1477 H 0.65144 0.58166 0.16099 0.0
H1478 H 0.68933 0.55726 0.15799 0.0
H1479 H 0.73184 0.62423 0.16115 0.0
C1480 C 0.71135 0.53512 0.38344 0.0
C1481 C 0.69286 0.53855 0.36621 0.0
C1482 C 0.67325 0.56913 0.39265 0.0
C1483 C 0.67419 0.5555 0.37065 0.0
C1484 C 0.69175 0.5652 0.40998 0.0
C1485 C 0.71064 0.54861 0.40529 0.0
U1486 U 0.75658 0.48001 0.36655 0.0
O1487 O 0.79151 0.47875 0.38593 0.0
O1488 O 0.79123 0.48512 0.34658 0.0
C1489 C 0.80458 0.48182 0.36619 0.0
C1490 C 0.73342 0.52061 0.37804 0.0
C1491 C 0.82568 0.4654 0.36417 0.0
C1492 C 0.86845 0.45828 0.37357 0.0
C1493 C 0.84859 0.47424 0.37173 0.0
C1494 C 0.84284 0.42455 0.35951 0.0
C1495 C 0.86555 0.43327 0.36791 0.0
C1496 C 0.82295 0.44055 0.35762 0.0
C1497 C 0.71188 0.42348 0.3572 0.0
C1498 C 0.69208 0.38342 0.35468 0.0
C1499 C 0.66758 0.42047 0.35617 0.0
C1500 C 0.68891 0.43486 0.35743 0.0
C1501 C 0.66906 0.39463 0.35497 0.0
C1502 C 0.71328 0.39775 0.35565 0.0
C1503 C 0.73494 0.43742 0.35854 0.0
O1504 O 0.74057 0.50449 0.39424 0.0
O1505 O 0.73806 0.51407 0.3554 0.0
O1506 O 0.73939 0.45348 0.34126 0.0
O1507 O 0.7421 0.44484 0.38021 0.0
H1508 H 0.69322 0.52878 0.34898 0.0
H1509 H 0.661 0.55831 0.3563 0.0
H1510 H 0.69182 0.57486 0.42724 0.0
H1511 H 0.72509 0.5467 0.41864 0.0
H1512 H 0.88576 0.46523 0.38035 0.0
H1513 H 0.85087 0.49332 0.37715 0.0
H1514 H 0.84032 0.40522 0.35521 0.0
H1515 H 0.80532 0.43339 0.35198 0.0
H1516 H 0.69366 0.36358 0.35351 0.0
H1517 H 0.64994 0.42944 0.35651 0.0
H1518 H 0.68749 0.45471 0.35864 0.0
H1519 H 0.73088 0.38868 0.35528 0.0
C1520 C 0.68288 0.46251 0.63437 0.0
C1521 C 0.68591 0.43764 0.64048 0.0
C1522 C 0.64225 0.43052 0.63513 0.0
C1523 C 0.66567 0.42172 0.64077 0.0
C1524 C 0.63921 0.45551 0.6297 0.0
C1525 C 0.65939 0.47137 0.62932 0.0
U1526 U 0.75197 0.4781 0.6328 0.0
O1527 O 0.77004 0.50083 0.6048 0.0
O1528 O 0.76995 0.51292 0.64318 0.0
C1529 C 0.77605 0.51806 0.62061 0.0
C1530 C 0.70392 0.47914 0.6312 0.0
C1531 C 0.79796 0.53331 0.61608 0.0
C1532 C 0.81587 0.56724 0.59337 0.0
C1533 C 0.79732 0.54981 0.59663 0.0
C1534 C 0.8363 0.5519 0.62914 0.0
C1535 C 0.83558 0.56927 0.60992 0.0
C1536 C 0.81785 0.53414 0.63206 0.0
C1537 C 0.7957 0.42291 0.64867 0.0
C1538 C 0.83976 0.42038 0.6534 0.0
C1539 C 0.81515 0.38318 0.65363 0.0
C1540 C 0.79412 0.39725 0.65068 0.0
C1541 C 0.83815 0.39458 0.65484 0.0
C1542 C 0.81861 0.43452 0.65019 0.0
C1543 C 0.77287 0.43651 0.64498 0.0
O1544 O 0.71656 0.48481 0.6508 0.0
O1545 O 0.71773 0.47443 0.61224 0.0
O1546 O 0.76709 0.44204 0.62246 0.0
O1547 O 0.76748 0.45391 0.66081 0.0
H1548 H 0.70394 0.43045 0.64425 0.0
H1549 H 0.66838 0.4024 0.64467 0.0
H1550 H 0.62136 0.46253 0.62487 0.0
H1551 H 0.65677 0.49044 0.62433 0.0
H1552 H 0.81416 0.57907 0.57779 0.0
H1553 H 0.78197 0.54966 0.58415 0.0
H1554 H 0.85045 0.55213 0.64277 0.0
H1555 H 0.81872 0.52166 0.64733 0.0
H1556 H 0.8574 0.42948 0.65408 0.0
H1557 H 0.81347 0.36334 0.6548 0.0
H1558 H 0.77655 0.38801 0.64971 0.0
H1559 H 0.82013 0.45434 0.64867 0.0
C1560 C 0.45458 0.14232 0.27751 0.0
C1561 C 0.42993 0.13952 0.27109 0.0
C1562 C 0.41778 0.14942 0.31289 0.0
C1563 C 0.41162 0.14313 0.28867 0.0
C1564 C 0.4426 0.15258 0.31884 0.0
C1565 C 0.4607 0.14917 0.30134 0.0
U1566 U 0.50032 0.12611 0.22198 0.0
O1567 O 0.53539 0.14596 0.22133 0.0
O1568 O 0.53463 0.10664 0.22996 0.0
C1569 C 0.54824 0.1262 0.22601 0.0
C1570 C 0.47478 0.13738 0.26062 0.0
C1571 C 0.57008 0.12276 0.21079 0.0
C1572 C 0.61356 0.13007 0.20496 0.0
C1573 C 0.59277 0.13085 0.21973 0.0
C1574 C 0.58936 0.11232 0.1723 0.0
C1575 C 0.61192 0.12111 0.18105 0.0
C1576 C 0.56853 0.11309 0.1871 0.0
C1577 C 0.45817 0.11306 0.16547 0.0
C1578 C 0.43886 0.11168 0.12575 0.0
C1579 C 0.41424 0.10718 0.16213 0.0
C1580 C 0.4353 0.10958 0.17654 0.0
C1581 C 0.41589 0.10846 0.13663 0.0
C1582 C 0.45978 0.11388 0.14006 0.0
C1583 C 0.48093 0.11557 0.17944 0.0
O1584 O 0.48034 0.11456 0.25484 0.0
O1585 O 0.48136 0.15391 0.2445 0.0
O1586 O 0.48735 0.13799 0.18601 0.0
O1587 O 0.48531 0.09891 0.19613 0.0
H1588 H 0.4249 0.1343 0.2527 0.0
H1589 H 0.39269 0.14089 0.28333 0.0
H1590 H 0.44824 0.15694 0.33725 0.0
H1591 H 0.47968 0.15134 0.30662 0.0
H1592 H 0.63067 0.13741 0.21184 0.0
H1593 H 0.59423 0.13853 0.23792 0.0
H1594 H 0.58771 0.10577 0.15371 0.0
H1595 H 0.55113 0.10692 0.17983 0.0
H1596 H 0.44058 0.11267 0.10614 0.0
H1597 H 0.39663 0.105 0.17087 0.0
H1598 H 0.43373 0.10892 0.19617 0.0
H1599 H 0.47731 0.11639 0.13123 0.0
C1600 C 0.93834 0.90145 0.7151 0.0
C1601 C 0.93997 0.91028 0.69121 0.0
C1602 C 0.89758 0.89874 0.68416 0.0
C1603 C 0.91964 0.90891 0.6758 0.0
C1604 C 0.89578 0.89067 0.70825 0.0
C1605 C 0.91608 0.892 0.72363 0.0
U1606 U 0.00771 0.9006 0.7248 0.0
O1607 O 0.02784 0.87239 0.74529 0.0
O1608 O 0.02925 0.91162 0.75709 0.0
C1609 C 0.03511 0.88863 0.76159 0.0
C1610 C 0.9601 0.89921 0.73049 0.0
C1611 C 0.0542 0.8826 0.77921 0.0
C1612 C 0.06453 0.86973 0.82012 0.0
C1613 C 0.04706 0.87505 0.80246 0.0
C1614 C 0.09666 0.87874 0.79112 0.0
C1615 C 0.08959 0.87174 0.8148 0.0
C1616 C 0.07906 0.88423 0.77347 0.0
C1617 C 0.04798 0.91291 0.6676 0.0
C1618 C 0.09211 0.91591 0.66467 0.0
C1619 C 0.06768 0.91168 0.62805 0.0
C1620 C 0.04651 0.91141 0.64217 0.0
C1621 C 0.09065 0.91372 0.63919 0.0
C1622 C 0.07087 0.91535 0.67885 0.0
C1623 C 0.02523 0.91117 0.6816 0.0
O1624 O 0.97339 0.87973 0.72577 0.0
O1625 O 0.97319 0.91925 0.73409 0.0
O1626 O 0.02163 0.92784 0.69867 0.0
O1627 O 0.01864 0.88887 0.68807 0.0
H1628 H 0.95712 0.91738 0.68427 0.0
H1629 H 0.9213 0.91507 0.65716 0.0
H1630 H 0.87896 0.88252 0.71487 0.0
H1631 H 0.91466 0.88481 0.74192 0.0
H1632 H 0.0583 0.86474 0.83813 0.0
H1633 H 0.02786 0.87361 0.8071 0.0
H1634 H 0.11578 0.88001 0.78622 0.0
H1635 H 0.08482 0.88984 0.75547 0.0
H1636 H 0.10971 0.91731 0.67362 0.0
H1637 H 0.06612 0.91015 0.60845 0.0
H1638 H 0.02893 0.90963 0.63323 0.0
H1639 H 0.07233 0.91646 0.69849 0.0
C1640 C 0.56759 0.89805 0.29524 0.0
C1641 C 0.56634 0.90684 0.31929 0.0
C1642 C 0.60884 0.89564 0.32567 0.0
C1643 C 0.58688 0.9056 0.33443 0.0
C1644 C 0.61027 0.88757 0.30145 0.0
C1645 C 0.58974 0.88875 0.28634 0.0
U1646 U 0.49817 0.89688 0.28756 0.0
O1647 O 0.47639 0.86963 0.26674 0.0
O1648 O 0.47484 0.90944 0.25726 0.0
C1649 C 0.46769 0.88678 0.25243 0.0
C1650 C 0.54555 0.89601 0.28002 0.0
C1651 C 0.45016 0.88116 0.23293 0.0
C1652 C 0.4417 0.86989 0.19089 0.0
C1653 C 0.45843 0.87494 0.20956 0.0
C1654 C 0.4083 0.87665 0.21904 0.0
C1655 C 0.41638 0.87097 0.19532 0.0
C1656 C 0.42504 0.88178 0.23763 0.0
C1657 C 0.46034 0.90681 0.34679 0.0
C1658 C 0.41634 0.91009 0.35119 0.0
C1659 C 0.44182 0.90504 0.38691 0.0
C1660 C 0.46255 0.90479 0.37212 0.0
C1661 C 0.41857 0.90762 0.37655 0.0
C1662 C 0.43712 0.90951 0.33633 0.0
C1663 C 0.48266 0.90559 0.33202 0.0
O1664 O 0.53236 0.87623 0.28401 0.0
O1665 O 0.53233 0.91601 0.2776 0.0
O1666 O 0.4859 0.92298 0.31578 0.0
O1667 O 0.48876 0.88361 0.3241 0.0
H1668 H 0.54931 0.91384 0.32657 0.0
H1669 H 0.58546 0.91174 0.35317 0.0
H1670 H 0.62699 0.87957 0.2945 0.0
H1671 H 0.59092 0.88163 0.26792 0.0
H1672 H 0.44861 0.8658 0.17287 0.0
H1673 H 0.47783 0.87426 0.20569 0.0
H1674 H 0.38898 0.87716 0.22327 0.0
H1675 H 0.41839 0.8863 0.25567 0.0
H1676 H 0.39849 0.91193 0.34288 0.0
H1677 H 0.44393 0.90328 0.40642 0.0
H1678 H 0.48037 0.90279 0.38046 0.0
H1679 H 0.43506 0.91099 0.31679 0.0
C1680 C 0.86687 0.78461 0.04699 0.0
C1681 C 0.86983 0.77795 0.07137 0.0
C1682 C 0.85875 0.81968 0.08405 0.0
C1683 C 0.86564 0.79536 0.08983 0.0
C1684 C 0.85522 0.82577 0.05948 0.0
C1685 C 0.85913 0.80838 0.04123 0.0
U1686 U 0.88546 0.72871 1.00258 0.0
O1687 O 0.86595 0.72677 0.96776 0.0
O1688 O 0.90489 0.73651 0.96834 0.0
C1689 C 0.88545 0.73212 0.95492 0.0
C1690 C 0.87252 0.76807 0.02669 0.0
C1691 C 0.88878 0.71712 0.93293 0.0
C1692 C 0.88008 0.71146 0.88993 0.0
C1693 C 0.87998 0.72624 0.9108 0.0
C1694 C 0.89866 0.67851 0.91296 0.0
C1695 C 0.88905 0.68739 0.89101 0.0
C1696 C 0.89856 0.69332 0.93388 0.0
C1697 C 0.89878 0.67375 0.04642 0.0
C1698 C 0.90022 0.6346 0.06736 0.0
C1699 C 0.90353 0.67267 0.09039 0.0
C1700 C 0.90147 0.68613 0.06877 0.0
C1701 C 0.90269 0.64678 0.08983 0.0
C1702 C 0.89835 0.64797 0.04589 0.0
C1703 C 0.89662 0.6867 0.02312 0.0
O1704 O 0.89547 0.76302 0.02171 0.0
O1705 O 0.85683 0.75078 0.02046 0.0
O1706 O 0.87438 0.69227 0.01605 0.0
O1707 O 0.91284 0.70399 0.01852 0.0
H1708 H 0.87568 0.75955 0.07607 0.0
H1709 H 0.86806 0.78985 0.10856 0.0
H1710 H 0.85035 0.84426 0.05415 0.0
H1711 H 0.85677 0.81376 0.02241 0.0
H1712 H 0.87225 0.71843 0.87324 0.0
H1713 H 0.87217 0.74451 0.90987 0.0
H1714 H 0.90537 0.65982 0.91409 0.0
H1715 H 0.90527 0.68596 0.95089 0.0
H1716 H 0.89976 0.61468 0.06641 0.0
H1717 H 0.90525 0.68244 0.10754 0.0
H1718 H 0.90184 0.70605 0.0695 0.0
H1719 H 0.89647 0.63813 0.02878 0.0
C1720 C 0.61455 0.29569 0.42997 0.0
C1721 C 0.60285 0.31862 0.43122 0.0
C1722 C 0.61744 0.32832 0.39054 0.0
C1723 C 0.60422 0.33483 0.41151 0.0
C1724 C 0.62852 0.30517 0.38911 0.0
C1725 C 0.62699 0.28894 0.40867 0.0
U1726 U 0.61495 0.28264 0.49893 0.0
O1727 O 0.64348 0.26086 0.51706 0.0
O1728 O 0.60493 0.24868 0.51844 0.0
C1729 C 0.62786 0.24374 0.52366 0.0
C1730 C 0.61651 0.27955 0.45122 0.0
C1731 C 0.6336 0.22836 0.5448 0.0
C1732 C 0.65134 0.19026 0.55938 0.0
C1733 C 0.64675 0.20674 0.54057 0.0
C1734 C 0.63107 0.21778 0.58755 0.0
C1735 C 0.6434 0.1952 0.58332 0.0
C1736 C 0.62587 0.23396 0.56842 0.0
C1737 C 0.60172 0.33959 0.54121 0.0
C1738 C 0.59784 0.34283 0.58508 0.0
C1739 C 0.60154 0.37978 0.5608 0.0
C1740 C 0.60256 0.36534 0.53976 0.0
C1741 C 0.5994 0.36864 0.58364 0.0
C1742 C 0.59914 0.32833 0.56396 0.0
C1743 C 0.604 0.32541 0.51853 0.0
O1744 O 0.63571 0.28384 0.46489 0.0
O1745 O 0.59655 0.27524 0.46385 0.0
O1746 O 0.58767 0.30807 0.51428 0.0
O1747 O 0.62628 0.31924 0.51208 0.0
H1748 H 0.59341 0.32428 0.44764 0.0
H1749 H 0.59574 0.35276 0.41294 0.0
H1750 H 0.63895 0.29995 0.37316 0.0
H1751 H 0.63633 0.27142 0.40751 0.0
H1752 H 0.66047 0.17335 0.55456 0.0
H1753 H 0.65295 0.20217 0.52237 0.0
H1754 H 0.6253 0.22329 0.60555 0.0
H1755 H 0.61583 0.25072 0.57207 0.0
H1756 H 0.59636 0.33389 0.60259 0.0
H1757 H 0.6026 0.39963 0.55925 0.0
H1758 H 0.60437 0.3743 0.52228 0.0
H1759 H 0.59846 0.30846 0.5654 0.0
C1760 C 0.28202 0.4608 0.1398 0.0
C1761 C 0.27622 0.43574 0.13753 0.0
C1762 C 0.31863 0.42507 0.14673 0.0
C1763 C 0.29444 0.41795 0.14105 0.0
C1764 C 0.32397 0.45028 0.14932 0.0
C1765 C 0.30586 0.46786 0.14598 0.0
U1766 U 0.22401 0.50375 0.12472 0.0
O1767 O 0.22285 0.54003 0.14265 0.0
O1768 O 0.22973 0.53753 0.10342 0.0
C1769 C 0.22663 0.55207 0.12235 0.0
C1770 C 0.26445 0.4805 0.13492 0.0
C1771 C 0.2118 0.57432 0.11886 0.0
C1772 C 0.2077 0.61849 0.12497 0.0
C1773 C 0.22162 0.59702 0.12635 0.0
C1774 C 0.17407 0.59497 0.10786 0.0
C1775 C 0.18376 0.6176 0.11594 0.0
C1776 C 0.18803 0.5734 0.10928 0.0
C1777 C 0.16863 0.45797 0.11701 0.0
C1778 C 0.12947 0.43686 0.11771 0.0
C1779 C 0.16668 0.41343 0.11231 0.0
C1780 C 0.18045 0.43527 0.11375 0.0
C1781 C 0.14107 0.41411 0.11439 0.0
C1782 C 0.14312 0.45855 0.11891 0.0
C1783 C 0.18179 0.48163 0.11773 0.0
O1784 O 0.25723 0.48452 0.11248 0.0
O1785 O 0.24882 0.4873 0.1518 0.0
O1786 O 0.18918 0.48956 0.13916 0.0
O1787 O 0.19744 0.48605 0.10012 0.0
H1788 H 0.25784 0.42999 0.13282 0.0
H1789 H 0.2896 0.39868 0.13925 0.0
H1790 H 0.34237 0.45658 0.15321 0.0
H1791 H 0.31065 0.48718 0.14769 0.0
H1792 H 0.21532 0.63564 0.13176 0.0
H1793 H 0.23989 0.59804 0.1339 0.0
H1794 H 0.15543 0.59388 0.10129 0.0
H1795 H 0.18009 0.55602 0.10352 0.0
H1796 H 0.10975 0.43788 0.11917 0.0
H1797 H 0.17598 0.39602 0.10992 0.0
H1798 H 0.20017 0.43448 0.11224 0.0
H1799 H 0.13367 0.4759 0.12123 0.0
C1800 C 0.29024 0.57281 0.89915 0.0
C1801 C 0.31437 0.5713 0.90768 0.0
C1802 C 0.32097 0.61439 0.89779 0.0
C1803 C 0.32965 0.59201 0.90698 0.0
C1804 C 0.29665 0.61608 0.89 0.0
C1805 C 0.28139 0.59538 0.89066 0.0
U1806 U 0.28223 0.50296 0.89527 0.0
O1807 O 0.26038 0.48219 0.86821 0.0
O1808 O 0.25203 0.47904 0.90779 0.0
C1809 C 0.24651 0.47273 0.8853 0.0
C1810 C 0.27487 0.55069 0.89661 0.0
C1811 C 0.22639 0.45568 0.87968 0.0
C1812 C 0.18383 0.44839 0.86917 0.0
C1813 C 0.20309 0.46469 0.87418 0.0
C1814 C 0.21126 0.41395 0.87456 0.0
C1815 C 0.18761 0.42278 0.86956 0.0
C1816 C 0.23044 0.43027 0.87965 0.0
C1817 C 0.34132 0.46399 0.90184 0.0
C1818 C 0.34482 0.41953 0.90401 0.0
C1819 C 0.38116 0.44465 0.89887 0.0
C1820 C 0.36676 0.4658 0.89933 0.0
C1821 C 0.3703 0.42138 0.90123 0.0
C1822 C 0.33035 0.44073 0.90414 0.0
C1823 C 0.32694 0.48677 0.90186 0.0
O1824 O 0.27843 0.53821 0.87641 0.0
O1825 O 0.27284 0.53657 0.91586 0.0
O1826 O 0.31116 0.48966 0.91968 0.0
O1827 O 0.31848 0.49373 0.88064 0.0
H1828 H 0.32161 0.55396 0.91407 0.0
H1829 H 0.34848 0.59038 0.91287 0.0
H1830 H 0.28977 0.63312 0.88256 0.0
H1831 H 0.2629 0.59676 0.88375 0.0
H1832 H 0.16587 0.45585 0.86564 0.0
H1833 H 0.19972 0.48432 0.87404 0.0
H1834 H 0.21497 0.39439 0.87455 0.0
H1835 H 0.24843 0.42305 0.88363 0.0
H1836 H 0.33614 0.40167 0.90575 0.0
H1837 H 0.40079 0.44645 0.89691 0.0
H1838 H 0.37551 0.48364 0.89764 0.0
H1839 H 0.31071 0.43899 0.906 0.0
C1840 C 0.29078 0.43877 0.61356 0.0
C1841 C 0.31503 0.44088 0.60548 0.0
C1842 C 0.32202 0.39786 0.6152 0.0
C1843 C 0.33058 0.4205 0.60632 0.0
C1844 C 0.29762 0.39563 0.62262 0.0
C1845 C 0.28212 0.416 0.62186 0.0
U1846 U 0.28089 0.50844 0.6154 0.0
O1847 O 0.25894 0.52896 0.64237 0.0
O1848 O 0.24939 0.53051 0.60309 0.0
C1849 C 0.24366 0.53654 0.62559 0.0
C1850 C 0.27495 0.46045 0.61571 0.0
C1851 C 0.22566 0.55584 0.63089 0.0
C1852 C 0.18388 0.56643 0.64157 0.0
C1853 C 0.20172 0.54876 0.63669 0.0
C1854 C 0.21392 0.59867 0.63541 0.0
C1855 C 0.18964 0.59166 0.6408 0.0
C1856 C 0.23178 0.58088 0.63046 0.0
C1857 C 0.33996 0.54787 0.60633 0.0
C1858 C 0.34426 0.59223 0.6046 0.0
C1859 C 0.38026 0.56664 0.6085 0.0
C1860 C 0.36543 0.54569 0.60805 0.0
C1861 C 0.36976 0.59006 0.60694 0.0
C1862 C 0.32938 0.57123 0.60446 0.0
C1863 C 0.32515 0.52537 0.60727 0.0
O1864 O 0.27863 0.4737 0.63541 0.0
O1865 O 0.27213 0.47383 0.59606 0.0
O1866 O 0.30884 0.52208 0.58995 0.0
O1867 O 0.31724 0.51906 0.62892 0.0
H1868 H 0.3221 0.4584 0.59922 0.0
H1869 H 0.34942 0.4225 0.60058 0.0
H1870 H 0.2908 0.37835 0.6297 0.0
H1871 H 0.26353 0.41416 0.62841 0.0
H1872 H 0.16542 0.56027 0.64529 0.0
H1873 H 0.19671 0.52944 0.63718 0.0
H1874 H 0.21914 0.61791 0.63503 0.0
H1875 H 0.25026 0.58665 0.62622 0.0
H1876 H 0.33583 0.6102 0.60352 0.0
H1877 H 0.39988 0.56459 0.61011 0.0
H1878 H 0.37384 0.52773 0.6094 0.0
H1879 H 0.30974 0.57322 0.6032 0.0
C1880 C 0.28037 0.55085 0.37483 0.0
C1881 C 0.27442 0.57582 0.377 0.0
C1882 C 0.31696 0.58701 0.36876 0.0
C1883 C 0.29262 0.59383 0.3739 0.0
C1884 C 0.32246 0.56189 0.36616 0.0
C1885 C 0.30435 0.54408 0.3691 0.0
U1886 U 0.22249 0.50711 0.3892 0.0
O1887 O 0.2215 0.47119 0.37063 0.0
O1888 O 0.22851 0.47304 0.40988 0.0
C1889 C 0.22538 0.45882 0.3907 0.0
C1890 C 0.2628 0.53097 0.37938 0.0
C1891 C 0.21027 0.43666 0.39389 0.0
C1892 C 0.20631 0.39227 0.38939 0.0
C1893 C 0.22052 0.41367 0.38833 0.0
C1894 C 0.17145 0.41658 0.40203 0.0
C1895 C 0.18161 0.39362 0.39595 0.0
C1896 C 0.18573 0.43801 0.4011 0.0
C1897 C 0.1675 0.55244 0.39757 0.0
C1898 C 0.12891 0.57426 0.39633 0.0
C1899 C 0.16669 0.597 0.40212 0.0
C1900 C 0.17987 0.57491 0.40096 0.0
C1901 C 0.14111 0.59681 0.39962 0.0
C1902 C 0.14199 0.5523 0.39542 0.0
C1903 C 0.1802 0.52863 0.39664 0.0
O1904 O 0.25565 0.52649 0.40176 0.0
O1905 O 0.24713 0.52437 0.3624 0.0
O1906 O 0.18752 0.52103 0.37511 0.0
O1907 O 0.19587 0.524 0.41416 0.0
H1908 H 0.25592 0.58133 0.38135 0.0
H1909 H 0.28767 0.61303 0.37566 0.0
H1910 H 0.34096 0.55585 0.36263 0.0
H1911 H 0.30925 0.52483 0.36744 0.0
H1912 H 0.21434 0.3748 0.38425 0.0
H1913 H 0.23941 0.41236 0.38257 0.0
H1914 H 0.15232 0.41794 0.40691 0.0
H1915 H 0.17752 0.45563 0.40537 0.0
H1916 H 0.10919 0.57364 0.39453 0.0
H1917 H 0.17644 0.61423 0.4045 0.0
H1918 H 0.19959 0.57535 0.40266 0.0
H1919 H 0.13213 0.53512 0.39298 0.0
H1920 H 0.14022 0.37869 0.07946 0.0
H1921 H 0.10952 0.39866 0.14855 0.0
H1922 H 0.0811 0.33588 0.11042 0.0
C1923 C 0.12701 0.37517 0.09368 0.0
C1924 C 0.11096 0.35476 0.09205 0.0
C1925 C 0.12609 0.39135 0.11369 0.0
C1926 C 0.10996 0.38647 0.13285 0.0
C1927 C 0.09422 0.36616 0.13188 0.0
C1928 C 0.09414 0.3509 0.11121 0.0
H1929 H 0.86856 0.88212 0.4293 0.0
H1930 H 0.90011 0.90151 0.36067 0.0
H1931 H 0.92831 0.83963 0.39924 0.0
C1932 C 0.88205 0.87857 0.41534 0.0
C1933 C 0.89816 0.8584 0.41725 0.0
C1934 C 0.88319 0.89451 0.39535 0.0
C1935 C 0.89955 0.88955 0.3764 0.0
C1936 C 0.91527 0.86939 0.37757 0.0
C1937 C 0.91522 0.85446 0.3983 0.0
H1938 H 0.37242 0.62626 0.57471 0.0
H1939 H 0.40202 0.60213 0.64241 0.0
H1940 H 0.41995 0.6743 0.61669 0.0
C1941 C 0.38338 0.63039 0.59062 0.0
C1942 C 0.39544 0.65322 0.5931 0.0
C1943 C 0.38515 0.61235 0.60853 0.0
C1944 C 0.40046 0.6162 0.62858 0.0
C1945 C 0.41333 0.63836 0.63124 0.0
C1946 C 0.41063 0.65695 0.61372 0.0
H1947 H 0.63469 0.12836 0.94024 0.0
H1948 H 0.60903 0.1081 0.8694 0.0
H1949 H 0.58728 0.17716 0.89984 0.0
C1950 C 0.62441 0.13329 0.92423 0.0
C1951 C 0.61131 0.15563 0.92319 0.0
C1952 C 0.62406 0.11647 0.90478 0.0
C1953 C 0.60969 0.12128 0.8843 0.0
C1954 C 0.59615 0.14298 0.8829 0.0
C1955 C 0.59721 0.16017 0.90205 0.0
H1956 H 0.14069 0.63249 0.43367 0.0
H1957 H 0.11117 0.61248 0.36431 0.0
H1958 H 0.08368 0.67624 0.40016 0.0
C1959 C 0.12796 0.63653 0.41927 0.0
C1960 C 0.11271 0.65756 0.42024 0.0
C1961 C 0.12692 0.61995 0.39955 0.0
C1962 C 0.11167 0.62496 0.37979 0.0
C1963 C 0.09677 0.64572 0.37994 0.0
C1964 C 0.09656 0.66128 0.40038 0.0
H1965 H 0.6408 0.87972 0.57948 0.0
H1966 H 0.61045 0.89965 0.64871 0.0
H1967 H 0.58207 0.83667 0.6109 0.0
C1968 C 0.62767 0.87616 0.59376 0.0
C1969 C 0.61171 0.85567 0.59226 0.0
C1970 C 0.6268 0.89237 0.61375 0.0
C1971 C 0.61083 0.88744 0.63302 0.0
C1972 C 0.59521 0.86704 0.63222 0.0
C1973 C 0.59504 0.85175 0.61155 0.0
H1974 H 0.37528 0.38873 0.93663 0.0
H1975 H 0.4002 0.40601 0.86509 0.0
H1976 H 0.42301 0.33862 0.89769 0.0
C1977 C 0.38552 0.38313 0.92075 0.0
C1978 C 0.39875 0.36087 0.92035 0.0
C1979 C 0.38552 0.39901 0.90077 0.0
C1980 C 0.39981 0.39349 0.88039 0.0
C1981 C 0.41363 0.3719 0.87964 0.0
C1982 C 0.41287 0.35556 0.89935 0.0
H1983 H 0.87275 0.12706 0.07472 0.0
H1984 H 0.90272 0.10296 0.14225 0.0
H1985 H 0.92099 0.17488 0.11614 0.0
C1986 C 0.88384 0.13119 0.09052 0.0
C1987 C 0.89612 0.15393 0.09279 0.0
C1988 C 0.88562 0.11319 0.10849 0.0
C1989 C 0.90113 0.11701 0.1284 0.0
C1990 C 0.9142 0.13907 0.13087 0.0
C1991 C 0.9115 0.1576 0.11329 0.0
H1992 H 0.07238 0.14274 0.38727 0.0
H1993 H 0.13852 0.10877 0.41114 0.0
H1994 H 0.10351 0.08126 0.34718 0.0
C1995 C 0.08598 0.12864 0.38457 0.0
C1996 C 0.08491 0.11249 0.36422 0.0
C1997 C 0.10478 0.12675 0.40191 0.0
C1998 C 0.12355 0.10976 0.39823 0.0
C1999 C 0.12332 0.09402 0.37812 0.0
C2000 C 0.10365 0.09464 0.36179 0.0
H2001 H 0.10243 0.87863 0.60628 0.0
H2002 H 0.12785 0.94584 0.63864 0.0
H2003 H 0.17448 0.90459 0.58965 0.0
C2004 C 0.11665 0.89244 0.60846 0.0
C2005 C 0.13859 0.88996 0.59567 0.0
C2006 C 0.11314 0.91227 0.62442 0.0
C2007 C 0.13149 0.93011 0.62705 0.0
C2008 C 0.15402 0.92783 0.61484 0.0
C2009 C 0.15731 0.90744 0.599 0.0
H2010 H 0.43352 0.86471 0.88494 0.0
H2011 H 0.36897 0.90367 0.90629 0.0
H2012 H 0.40604 0.92458 0.84113 0.0
C2013 C 0.42061 0.8793 0.8815 0.0
C2014 C 0.42269 0.89399 0.86049 0.0
C2015 C 0.40174 0.88319 0.89838 0.0
C2016 C 0.38401 0.90105 0.89369 0.0
C2017 C 0.3853 0.91535 0.8727 0.0
C2018 C 0.40497 0.91247 0.85665 0.0
H2019 H 0.38063 0.07423 0.13467 0.0
H2020 H 0.40306 0.14275 0.10445 0.0
H2021 H 0.33597 0.11108 0.08049 0.0
C2022 C 0.37653 0.08908 0.12245 0.0
C2023 C 0.35508 0.08907 0.10789 0.0
C2024 C 0.39369 0.10832 0.12127 0.0
C2025 C 0.38986 0.12782 0.10535 0.0
C2026 C 0.36909 0.12848 0.09072 0.0
C2027 C 0.35189 0.10929 0.09185 0.0
H2028 H 0.06712 0.86939 0.11812 0.0
H2029 H 0.1342 0.90233 0.09506 0.0
H2030 H 0.10677 0.91905 0.1661 0.0
C2031 C 0.08254 0.88111 0.12244 0.0
C2032 C 0.08411 0.8935 0.14503 0.0
C2033 C 0.10077 0.8837 0.10477 0.0
C2034 C 0.12018 0.90005 0.10882 0.0
C2035 C 0.12198 0.91307 0.13077 0.0
C2036 C 0.10427 0.90954 0.14894 0.0
H2037 H 0.38472 0.94254 0.38082 0.0
H2038 H 0.40489 0.87178 0.40766 0.0
H2039 H 0.33651 0.90278 0.42941 0.0
C2040 C 0.37994 0.92661 0.39152 0.0
C2041 C 0.35782 0.92567 0.40469 0.0
C2042 C 0.39656 0.90708 0.39208 0.0
C2043 C 0.39189 0.88677 0.40692 0.0
C2044 C 0.37042 0.88558 0.42066 0.0
C2045 C 0.35336 0.90477 0.41935 0.0
H2046 H 0.37133 0.11153 0.60579 0.0
H2047 H 0.43618 0.15058 0.62764 0.0
H2048 H 0.40766 0.09113 0.67153 0.0
C2049 C 0.38629 0.11423 0.6185 0.0
C2050 C 0.38735 0.09991 0.63949 0.0
C2051 C 0.40413 0.13219 0.61392 0.0
C2052 C 0.42296 0.1361 0.63094 0.0
C2053 C 0.42461 0.12152 0.65206 0.0
C2054 C 0.40678 0.10302 0.65581 0.0
H2055 H 0.10054 0.13451 0.90586 0.0
H2056 H 0.12653 0.06742 0.87428 0.0
H2057 H 0.17336 0.11068 0.92171 0.0
C2058 C 0.11495 0.12101 0.90373 0.0
C2059 C 0.13707 0.12432 0.9161 0.0
C2060 C 0.11154 0.10084 0.88816 0.0
C2061 C 0.13012 0.08344 0.88554 0.0
C2062 C 0.15284 0.08655 0.89723 0.0
C2063 C 0.15607 0.10727 0.91272 0.0
H2064 H 0.88469 0.44316 0.88009 0.0
H2065 H 0.90506 0.37276 0.90798 0.0
H2066 H 0.83674 0.4044 0.92953 0.0
C2067 C 0.88013 0.42735 0.89111 0.0
C2068 C 0.8581 0.42658 0.90436 0.0
C2069 C 0.89677 0.40789 0.89197 0.0
C2070 C 0.89208 0.38777 0.90708 0.0
C2071 C 0.87061 0.38677 0.92086 0.0
C2072 C 0.85361 0.406 0.91939 0.0
H2073 H 0.87094 0.61138 0.10342 0.0
H2074 H 0.93486 0.65084 0.12731 0.0
H2075 H 0.90571 0.5908 0.1699 0.0
C2076 C 0.88559 0.61407 0.11648 0.0
C2077 C 0.88625 0.59962 0.13739 0.0
C2078 C 0.90343 0.6322 0.1125 0.0
C2079 C 0.9217 0.63619 0.13008 0.0
C2080 C 0.9228 0.62151 0.15114 0.0
C2081 C 0.90517 0.60276 0.15421 0.0
H2082 H 0.60113 0.63558 0.40575 0.0
H2083 H 0.62673 0.5682 0.37449 0.0
H2084 H 0.67389 0.61151 0.42154 0.0
C2085 C 0.61548 0.62202 0.40366 0.0
C2086 C 0.63764 0.6253 0.41594 0.0
C2087 C 0.61194 0.60176 0.38821 0.0
C2088 C 0.63042 0.58426 0.38565 0.0
C2089 C 0.65319 0.58733 0.39726 0.0
C2090 C 0.65656 0.60813 0.41262 0.0
H2091 H 0.93329 0.36481 0.38507 0.0
H2092 H 0.86915 0.40426 0.40678 0.0
H2093 H 0.90588 0.42475 0.34131 0.0
C2094 C 0.92047 0.3795 0.38171 0.0
C2095 C 0.92247 0.3941 0.36063 0.0
C2096 C 0.90174 0.38355 0.39871 0.0
C2097 C 0.88411 0.40154 0.39411 0.0
C2098 C 0.88535 0.41578 0.37308 0.0
C2099 C 0.90486 0.41271 0.35689 0.0
H2100 H 0.5721 0.64181 0.88836 0.0
H2101 H 0.63903 0.60878 0.9105 0.0
H2102 H 0.60455 0.58226 0.84616 0.0
C2103 C 0.58592 0.6282 0.88478 0.0
C2104 C 0.58483 0.61251 0.86402 0.0
C2105 C 0.60502 0.62645 0.90178 0.0
C2106 C 0.62397 0.60982 0.8977 0.0
C2107 C 0.62379 0.59448 0.87733 0.0
C2108 C 0.60409 0.59523 0.86104 0.0
H2109 H 0.85214 0.65581 0.88544 0.0
H2110 H 0.8759 0.6222 0.81863 0.0
H2111 H 0.91725 0.68213 0.85088 0.0
C2112 C 0.86503 0.65482 0.87046 0.0
C2113 C 0.88531 0.67049 0.87032 0.0
C2114 C 0.86143 0.63759 0.85176 0.0
C2115 C 0.87846 0.63603 0.83269 0.0
C2116 C 0.89886 0.65202 0.83202 0.0
C2117 C 0.90189 0.66948 0.85095 0.0
H2118 H 0.15811 0.15126 0.63076 0.0
H2119 H 0.13173 0.11401 0.69422 0.0
H2120 H 0.08898 0.17177 0.66116 0.0
C2121 C 0.14421 0.1489 0.64464 0.0
C2122 C 0.12294 0.16301 0.64369 0.0
C2123 C 0.14749 0.13137 0.66292 0.0
C2124 C 0.12924 0.12806 0.68056 0.0
C2125 C 0.1079 0.14258 0.68046 0.0
C2126 C 0.10502 0.16019 0.66177 0.0
H2127 H 0.63221 0.39708 0.32255 0.0
H2128 H 0.6562 0.35835 0.38604 0.0
H2129 H 0.58845 0.33796 0.352 0.0
C2130 C 0.62929 0.38266 0.33577 0.0
C2131 C 0.60817 0.3678 0.33455 0.0
C2132 C 0.64673 0.37921 0.35413 0.0
C2133 C 0.64289 0.36096 0.37166 0.0
C2134 C 0.62164 0.3465 0.37117 0.0
C2135 C 0.60451 0.34968 0.3525 0.0
H2136 H 0.35133 0.85833 0.12264 0.0
H2137 H 0.3743 0.89628 0.18745 0.0
H2138 H 0.41841 0.83769 0.15735 0.0
C2139 C 0.36439 0.86077 0.13733 0.0
C2140 C 0.38545 0.84631 0.13786 0.0
C2141 C 0.36033 0.87877 0.15517 0.0
C2142 C 0.37743 0.88205 0.17392 0.0
C2143 C 0.39846 0.8672 0.17518 0.0
C2144 C 0.40238 0.84931 0.15686 0.0
H2145 H 0.85116 0.35887 0.62354 0.0
H2146 H 0.87459 0.39679 0.68822 0.0
H2147 H 0.91842 0.33812 0.65776 0.0
C2148 C 0.86431 0.36128 0.63815 0.0
C2149 C 0.88536 0.3468 0.6385 0.0
C2150 C 0.86037 0.37926 0.65604 0.0
C2151 C 0.8776 0.38254 0.67469 0.0
C2152 C 0.89866 0.36769 0.67579 0.0
C2153 C 0.90241 0.34978 0.65741 0.0
H2154 H 0.35205 0.15488 0.38572 0.0
H2155 H 0.37608 0.1218 0.31876 0.0
H2156 H 0.41695 0.18191 0.3513 0.0
C2157 C 0.36495 0.15407 0.37074 0.0
C2158 C 0.38509 0.16991 0.37068 0.0
C2159 C 0.36148 0.13691 0.35195 0.0
C2160 C 0.37853 0.13558 0.33288 0.0
C2161 C 0.39881 0.15173 0.3323 0.0
C2162 C 0.40168 0.16914 0.3513 0.0
H2163 H 0.65807 0.65157 0.13015 0.0
H2164 H 0.63214 0.61481 0.19409 0.0
H2165 H 0.58945 0.67273 0.16132 0.0
C2166 C 0.64434 0.64939 0.14422 0.0
C2167 C 0.62318 0.66369 0.14351 0.0
C2168 C 0.64766 0.63188 0.16251 0.0
C2169 C 0.62963 0.62882 0.18039 0.0
C2170 C 0.60843 0.64351 0.18044 0.0
C2171 C 0.60546 0.66109 0.16178 0.0
H2172 H 0.13215 0.89687 0.8223 0.0
H2173 H 0.15598 0.85805 0.8858 0.0
H2174 H 0.08838 0.83764 0.8515 0.0
C2175 C 0.1292 0.88243 0.8355 0.0
C2176 C 0.10811 0.86755 0.8342 0.0
C2177 C 0.14659 0.87897 0.8539 0.0
C2178 C 0.14271 0.86069 0.87139 0.0
C2179 C 0.12148 0.84622 0.87079 0.0
C2180 C 0.10441 0.8494 0.85208 0.0
H2181 H 0.8255 0.88369 0.61966 0.0
H2182 H 0.89295 0.86121 0.65271 0.0
H2183 H 0.85712 0.92631 0.67852 0.0
C2184 C 0.83965 0.88666 0.63318 0.0
C2185 C 0.83864 0.90725 0.64888 0.0
C2186 C 0.85904 0.86987 0.6347 0.0
C2187 C 0.87777 0.87395 0.65166 0.0
C2188 C 0.87722 0.89446 0.66712 0.0
C2189 C 0.85752 0.91077 0.66606 0.0
H2190 H 0.85417 0.12327 0.35671 0.0
H2191 H 0.88703 0.19007 0.38322 0.0
H2192 H 0.82731 0.15611 0.42247 0.0
C2193 C 0.85495 0.13799 0.37012 0.0
C2194 C 0.83922 0.13742 0.3901 0.0
C2195 C 0.87196 0.15708 0.36746 0.0
C2196 C 0.87331 0.17579 0.38512 0.0
C2197 C 0.85726 0.17587 0.40521 0.0
C2198 C 0.83998 0.15655 0.40735 0.0
H2199 H 0.61829 0.15923 0.15159 0.0
H2200 H 0.68396 0.13498 0.11638 0.0
H2201 H 0.6512 0.09122 0.17328 0.0
C2202 C 0.63283 0.14583 0.14973 0.0
C2203 C 0.63252 0.12468 0.16409 0.0
C2204 C 0.65137 0.1496 0.13261 0.0
C2205 C 0.66995 0.1321 0.13001 0.0
C2206 C 0.67035 0.11091 0.14467 0.0
C2207 C 0.65139 0.10736 0.1618 0.0
H2208 H 0.65216 0.88741 0.86373 0.0
H2209 H 0.62053 0.81971 0.8889 0.0
H2210 H 0.67824 0.85546 0.92987 0.0
C2211 C 0.65135 0.87277 0.87705 0.0
C2212 C 0.66656 0.87379 0.89748 0.0
C2213 C 0.63499 0.85311 0.87375 0.0
C2214 C 0.63371 0.83446 0.89128 0.0
C2215 C 0.64919 0.83496 0.9118 0.0
C2216 C 0.66589 0.85468 0.91447 0.0
H2217 H 0.82592 0.12934 0.90084 0.0
H2218 H 0.89162 0.15246 0.86473 0.0
H2219 H 0.85632 0.08517 0.84275 0.0
C2220 C 0.83969 0.1262 0.88701 0.0
C2221 C 0.83841 0.10514 0.87202 0.0
C2222 C 0.8587 0.14332 0.88438 0.0
C2223 C 0.87684 0.13926 0.8668 0.0
C2224 C 0.87624 0.1181 0.85212 0.0
C2225 C 0.85692 0.10122 0.85455 0.0
H2226 H 0.6547 0.12769 0.65472 0.0
H2227 H 0.61822 0.19083 0.62668 0.0
H2228 H 0.67658 0.15601 0.58572 0.0
C2229 C 0.65269 0.14133 0.64053 0.0
C2230 C 0.66676 0.13946 0.61944 0.0
C2231 C 0.63557 0.16016 0.64319 0.0
C2232 C 0.6324 0.17724 0.62445 0.0
C2233 C 0.6471 0.1766 0.60331 0.0
C2234 C 0.66458 0.1574 0.60125 0.0
H2235 H 0.61361 0.85829 0.35687 0.0
H2236 H 0.68166 0.88085 0.3892 0.0
H2237 H 0.64972 0.92329 0.33108 0.0
C2238 C 0.6289 0.87105 0.35781 0.0
C2239 C 0.62942 0.89147 0.34245 0.0
C2240 C 0.6478 0.86706 0.37453 0.0
C2241 C 0.66737 0.88379 0.37588 0.0
C2242 C 0.66841 0.90426 0.36028 0.0
C2243 C 0.64931 0.90779 0.34339 0.0
H2244 H 0.88656 0.82512 0.12495 0.0
H2245 H 0.85444 0.89216 0.1512 0.0
H2246 H 0.82668 0.85845 0.08601 0.0
C2247 C 0.87297 0.83942 0.12305 0.0
C2248 C 0.85671 0.83911 0.10318 0.0
C2249 C 0.87198 0.85826 0.14054 0.0
C2250 C 0.85506 0.87738 0.13787 0.0
C2251 C 0.83907 0.87763 0.11798 0.0
C2252 C 0.83954 0.85829 0.10101 0.0
H2253 H 0.15599 0.62821 0.15424 0.0
H2254 H 0.12679 0.69624 0.12975 0.0
H2255 H 0.17448 0.65322 0.08298 0.0
C2256 C 0.15469 0.64215 0.14026 0.0
C2257 C 0.16782 0.63935 0.11863 0.0
C2258 C 0.13908 0.66217 0.14349 0.0
C2259 C 0.13774 0.6803 0.12562 0.0
C2260 C 0.14983 0.67765 0.10308 0.0
C2261 C 0.16506 0.6567 0.09991 0.0
H2262 H 0.11299 0.35898 0.85673 0.0
H2263 H 0.17875 0.38034 0.89398 0.0
H2264 H 0.14935 0.42624 0.83718 0.0
C2265 C 0.12799 0.37187 0.85927 0.0
C2266 C 0.12898 0.39331 0.8453 0.0
C2267 C 0.14589 0.36719 0.87685 0.0
C2268 C 0.16512 0.38399 0.88016 0.0
C2269 C 0.16684 0.40532 0.86582 0.0
C2270 C 0.14847 0.40993 0.84841 0.0
H2271 H 0.38663 0.32476 0.62548 0.0
H2272 H 0.35419 0.39171 0.65155 0.0
H2273 H 0.32682 0.35789 0.58626 0.0
C2274 C 0.37301 0.33903 0.6235 0.0
C2275 C 0.35683 0.33866 0.60357 0.0
C2276 C 0.37189 0.35788 0.64097 0.0
C2277 C 0.35492 0.37693 0.63822 0.0
C2278 C 0.33901 0.37712 0.61828 0.0
C2279 C 0.33962 0.35779 0.60131 0.0
H2280 H 0.11832 0.65899 0.65174 0.0
H2281 H 0.18384 0.63467 0.6163 0.0
H2282 H 0.1509 0.59068 0.67294 0.0
C2283 C 0.1328 0.64553 0.64977 0.0
C2284 C 0.13239 0.62429 0.66397 0.0
C2285 C 0.15135 0.64934 0.63267 0.0
C2286 C 0.16983 0.63175 0.62992 0.0
C2287 C 0.17013 0.61046 0.64443 0.0
C2288 C 0.15117 0.60689 0.66155 0.0
H2289 H 0.32574 0.38319 0.1197 0.0
H2290 H 0.39328 0.36104 0.1528 0.0
H2291 H 0.35686 0.4257 0.17888 0.0
C2292 C 0.33983 0.38617 0.13327 0.0
C2293 C 0.33862 0.40666 0.1491 0.0
C2294 C 0.35936 0.36954 0.13473 0.0
C2295 C 0.37801 0.37366 0.15178 0.0
C2296 C 0.37724 0.39407 0.16738 0.0
C2297 C 0.35742 0.41023 0.16635 0.0
H2298 H 0.60126 0.37902 0.1066 0.0
H2299 H 0.62738 0.44586 0.13916 0.0
H2300 H 0.67378 0.4039 0.09057 0.0
C2301 C 0.61564 0.39264 0.1089 0.0
C2302 C 0.63764 0.38988 0.09628 0.0
C2303 C 0.61232 0.41249 0.12487 0.0
C2304 C 0.63088 0.43008 0.12761 0.0
C2305 C 0.65345 0.42745 0.11556 0.0
C2306 C 0.65659 0.40702 0.09978 0.0
H2307 H 0.88063 0.57425 0.6335 0.0
H2308 H 0.90261 0.64318 0.60375 0.0
H2309 H 0.83477 0.61187 0.58095 0.0
C2310 C 0.87629 0.5894 0.62171 0.0
C2311 C 0.85458 0.58962 0.6076 0.0
C2312 C 0.89338 0.6087 0.62054 0.0
C2313 C 0.88938 0.62828 0.60473 0.0
C2314 C 0.86841 0.62909 0.59036 0.0
C2315 C 0.85107 0.60999 0.5918 0.0
H2316 H 0.56672 0.36939 0.61967 0.0
H2317 H 0.6335 0.40249 0.59605 0.0
H2318 H 0.60667 0.41929 0.66724 0.0
C2319 C 0.58212 0.38116 0.62389 0.0
C2320 C 0.58378 0.39367 0.64644 0.0
C2321 C 0.60019 0.3838 0.60605 0.0
C2322 C 0.6196 0.40019 0.60994 0.0
C2323 C 0.62158 0.41322 0.63184 0.0
C2324 C 0.604 0.40972 0.65015 0.0
H2325 H 0.35215 0.61935 0.86071 0.0
H2326 H 0.38678 0.6864 0.88438 0.0
H2327 H 0.32721 0.65509 0.92579 0.0
C2328 C 0.35348 0.63451 0.87359 0.0
C2329 C 0.33807 0.63504 0.89386 0.0
C2330 C 0.37087 0.65314 0.86998 0.0
C2331 C 0.37287 0.67243 0.88698 0.0
C2332 C 0.35721 0.67351 0.90733 0.0
C2333 C 0.33958 0.65471 0.91041 0.0
H2334 H 0.15046 0.38382 0.35983 0.0
H2335 H 0.12047 0.31661 0.38781 0.0
H2336 H 0.1784 0.3547 0.42651 0.0
C2337 C 0.15018 0.36965 0.37366 0.0
C2338 C 0.16575 0.37169 0.39372 0.0
C2339 C 0.13416 0.34963 0.37132 0.0
C2340 C 0.13349 0.33159 0.38948 0.0
C2341 C 0.14935 0.33302 0.4097 0.0
C2342 C 0.16578 0.35315 0.41138 0.0
H2343 H 0.32311 0.62846 0.39655 0.0
H2344 H 0.39096 0.6526 0.36519 0.0
H2345 H 0.35598 0.5874 0.33755 0.0
C2346 C 0.33755 0.62592 0.3833 0.0
C2347 C 0.33692 0.60568 0.36716 0.0
C2348 C 0.35687 0.64296 0.38251 0.0
C2349 C 0.37594 0.63952 0.3658 0.0
C2350 C 0.37579 0.6193 0.34989 0.0
C2351 C 0.35614 0.60269 0.35031 0.0
loop_
_geom_bond_atom_site_label_1
_geom_bond_atom_site_label_2
_geom_bond_distance
_geom_bond_site_symmetry_2
_ccdc_geom_bond_type
C0 C1 1.264 . S
C0 C5 1.479 . S
C0 C10 1.465 . S
C1 C0 1.264 . S
C1 C3 1.339 . S
C1 H28 0.931 . S
C2 C3 1.395 . S
C2 C4 1.320 . S
C3 C1 1.339 . S
C3 C2 1.395 . S
C3 H29 0.929 . S
C4 C2 1.320 . S
C4 C5 1.405 . S
C4 H30 0.930 . S
C5 C0 1.479 . S
C5 C4 1.405 . S
C5 H31 0.931 . S
U6 O7 2.454 . S
U6 O8 2.458 . S
U6 C9 2.984 . S
U6 C10 2.847 1_455 S
U6 C23 2.882 . S
U6 O24 2.441 1_455 S
U6 O25 2.420 1_455 S
U6 O26 2.455 . S
U6 O27 2.449 . S
O7 U6 2.454 . S
O7 C9 1.353 . S
O8 U6 2.458 . S
O8 C9 1.286 . S
C9 U6 2.984 . S
C9 O7 1.353 . S
C9 O8 1.286 . S
C9 C11 1.363 . S
C10 C0 1.465 . S
C10 U6 2.847 1_655 S
C10 O24 1.249 . S
C10 O25 1.202 . S
C11 C9 1.363 . S
C11 C13 1.408 . S
C11 C16 1.342 . S
C12 C13 1.310 . S
C12 C15 1.461 . S
C12 H32 0.932 . S
C13 C11 1.408 . S
C13 C12 1.310 . S
C13 H33 0.930 . S
C14 C15 1.474 . S
C14 C16 1.285 . S
C14 H34 0.929 . S
C15 C12 1.461 . S
C15 C14 1.474 . S
C16 C11 1.342 . S
C16 C14 1.285 . S
C16 H35 0.930 . S
C17 C20 1.424 . S
C17 C22 1.245 . S
C17 C23 1.428 . S
C18 C21 1.260 . S
C18 C22 1.477 . S
C18 H36 0.932 . S
C19 C20 1.384 . S
C19 C21 1.479 . S
C19 H37 0.929 . S
C20 C17 1.424 . S
C20 C19 1.384 . S
C20 H38 0.928 . S
C21 C18 1.260 . S
C21 C19 1.479 . S
C22 C17 1.245 . S
C22 C18 1.477 . S
C22 H39 0.932 . S
C23 U6 2.882 . S
C23 C17 1.428 . S
C23 O26 1.301 . S
C23 O27 1.282 . S
O24 U6 2.441 1_655 S
O24 C10 1.249 . S
O25 U6 2.420 1_655 S
O25 C10 1.202 . S
O26 U6 2.455 . S
O26 C23 1.301 . S
O27 U6 2.449 . S
O27 C23 1.282 . S
H28 C1 0.931 . S
H29 C3 0.929 . S
H30 C4 0.930 . S
H31 C5 0.931 . S
H32 C12 0.932 . S
H33 C13 0.930 . S
H34 C14 0.929 . S
H35 C16 0.930 . S
H36 C18 0.932 . S
H37 C19 0.929 . S
H38 C20 0.928 . S
H39 C22 0.932 . S
C40 C41 1.264 . S
C40 C45 1.479 . S
C40 C50 1.465 . S
C41 C40 1.264 . S
C41 C43 1.339 . S
C41 H68 0.931 . S
C42 C43 1.395 . S
C42 C44 1.320 . S
C43 C41 1.339 . S
C43 C42 1.395 . S
C43 H69 0.929 . S
C44 C42 1.320 . S
C44 C45 1.405 . S
C44 H70 0.930 . S
C45 C40 1.479 . S
C45 C44 1.405 . S
C45 H71 0.931 . S
U46 O47 2.454 . S
U46 O48 2.458 . S
U46 C49 2.984 . S
U46 C50 2.847 . S
U46 C63 2.882 . S
U46 O64 2.441 . S
U46 O65 2.420 . S
U46 O66 2.455 . S
U46 O67 2.449 . S
O47 U46 2.454 . S
O47 C49 1.353 . S
O48 U46 2.458 . S
O48 C49 1.286 . S
C49 U46 2.984 . S
C49 O47 1.353 . S
C49 O48 1.286 . S
C49 C51 1.363 . S
C50 C40 1.465 . S
C50 U46 2.847 . S
C50 O64 1.249 . S
C50 O65 1.202 . S
C51 C49 1.363 . S
C51 C53 1.408 . S
C51 C56 1.342 . S
C52 C53 1.310 . S
C52 C55 1.461 . S
C52 H72 0.932 . S
C53 C51 1.408 . S
C53 C52 1.310 . S
C53 H73 0.930 . S
C54 C55 1.474 . S
C54 C56 1.285 . S
C54 H74 0.929 . S
C55 C52 1.461 . S
C55 C54 1.474 . S
C56 C51 1.342 . S
C56 C54 1.285 . S
C56 H75 0.930 . S
C57 C60 1.424 . S
C57 C62 1.245 . S
C57 C63 1.428 . S
C58 C61 1.260 . S
C58 C62 1.477 . S
C58 H76 0.932 . S
C59 C60 1.384 . S
C59 C61 1.479 . S
C59 H77 0.929 . S
C60 C57 1.424 . S
C60 C59 1.384 . S
C60 H78 0.928 . S
C61 C58 1.260 . S
C61 C59 1.479 . S
C62 C57 1.245 . S
C62 C58 1.477 . S
C62 H79 0.932 . S
C63 U46 2.882 . S
C63 C57 1.428 . S
C63 O66 1.301 . S
C63 O67 1.282 . S
O64 U46 2.441 . S
O64 C50 1.249 . S
O65 U46 2.420 . S
O65 C50 1.202 . S
O66 U46 2.455 . S
O66 C63 1.301 . S
O67 U46 2.449 . S
O67 C63 1.282 . S
H68 C41 0.931 . S
H69 C43 0.929 . S
H70 C44 0.930 . S
H71 C45 0.931 . S
H72 C52 0.932 . S
H73 C53 0.930 . S
H74 C54 0.929 . S
H75 C56 0.930 . S
H76 C58 0.932 . S
H77 C59 0.929 . S
H78 C60 0.928 . S
H79 C62 0.932 . S
C80 C81 1.264 . S
C80 C85 1.479 . S
C80 C90 1.465 . S
C81 C80 1.264 . S
C81 C83 1.339 . S
C81 H108 0.931 . S
C82 C83 1.395 . S
C82 C84 1.320 . S
C83 C81 1.339 . S
C83 C82 1.395 . S
C83 H109 0.929 . S
C84 C82 1.320 . S
C84 C85 1.405 . S
C84 H110 0.930 . S
C85 C80 1.479 . S
C85 C84 1.405 . S
C85 H111 0.931 . S
U86 O87 2.454 . S
U86 O88 2.458 . S
U86 C89 2.984 . S
U86 C90 2.847 . S
U86 C103 2.882 . S
U86 O104 2.441 . S
U86 O105 2.420 . S
U86 O106 2.455 . S
U86 O107 2.449 . S
O87 U86 2.454 . S
O87 C89 1.353 . S
O88 U86 2.458 . S
O88 C89 1.286 . S
C89 U86 2.984 . S
C89 O87 1.353 . S
C89 O88 1.286 . S
C89 C91 1.363 . S
C90 C80 1.465 . S
C90 U86 2.847 . S
C90 O104 1.249 . S
C90 O105 1.202 . S
C91 C89 1.363 . S
C91 C93 1.408 . S
C91 C96 1.342 . S
C92 C93 1.310 . S
C92 C95 1.461 . S
C92 H112 0.932 . S
C93 C91 1.408 . S
C93 C92 1.310 . S
C93 H113 0.930 . S
C94 C95 1.474 . S
C94 C96 1.285 . S
C94 H114 0.929 . S
C95 C92 1.461 . S
C95 C94 1.474 . S
C96 C91 1.342 . S
C96 C94 1.285 . S
C96 H115 0.930 . S
C97 C100 1.424 . S
C97 C102 1.245 . S
C97 C103 1.428 . S
C98 C101 1.260 . S
C98 C102 1.477 . S
C98 H116 0.932 . S
C99 C100 1.384 . S
C99 C101 1.479 . S
C99 H117 0.929 . S
C100 C97 1.424 . S
C100 C99 1.384 . S
C100 H118 0.928 . S
C101 C98 1.260 . S
C101 C99 1.479 . S
C102 C97 1.245 . S
C102 C98 1.477 . S
C102 H119 0.932 . S
C103 U86 2.882 . S
C103 C97 1.428 . S
C103 O106 1.301 . S
C103 O107 1.282 . S
O104 U86 2.441 . S
O104 C90 1.249 . S
O105 U86 2.420 . S
O105 C90 1.202 . S
O106 U86 2.455 . S
O106 C103 1.301 . S
O107 U86 2.449 . S
O107 C103 1.282 . S
H108 C81 0.931 . S
H109 C83 0.929 . S
H110 C84 0.930 . S
H111 C85 0.931 . S
H112 C92 0.932 . S
H113 C93 0.930 . S
H114 C94 0.929 . S
H115 C96 0.930 . S
H116 C98 0.932 . S
H117 C99 0.929 . S
H118 C100 0.928 . S
H119 C102 0.932 . S
C120 C121 1.264 . S
C120 C125 1.479 . S
C120 C130 1.465 . S
C121 C120 1.264 . S
C121 C123 1.339 . S
C121 H148 0.931 . S
C122 C123 1.395 . S
C122 C124 1.320 . S
C123 C121 1.339 . S
C123 C122 1.395 . S
C123 H149 0.929 . S
C124 C122 1.320 . S
C124 C125 1.405 . S
C124 H150 0.930 . S
C125 C120 1.479 . S
C125 C124 1.405 . S
C125 H151 0.914 1_554 S
U126 O127 2.454 1_554 S
U126 O128 2.452 1_554 S
U126 C129 2.984 1_554 S
U126 C130 2.847 . S
U126 C143 2.882 . S
U126 O144 2.441 . S
U126 O145 2.420 . S
U126 O146 2.455 . S
U126 O147 2.449 . S
O127 U126 2.454 1_556 S
O127 C129 1.353 . S
O128 U126 2.452 1_556 S
O128 C129 1.294 . S
C129 U126 2.984 1_556 S
C129 O127 1.353 . S
C129 O128 1.294 . S
C129 C131 1.363 . S
C130 C120 1.465 . S
C130 U126 2.847 . S
C130 O144 1.249 . S
C130 O145 1.202 . S
C131 C129 1.363 . S
C131 C133 1.408 . S
C131 C136 1.342 . S
C132 C133 1.310 . S
C132 C135 1.461 . S
C132 H152 0.932 . S
C133 C131 1.408 . S
C133 C132 1.310 . S
C133 H153 0.930 . S
C134 C135 1.474 . S
C134 C136 1.285 . S
C134 H154 0.929 . S
C135 C132 1.461 . S
C135 C134 1.474 . S
C136 C131 1.342 . S
C136 C134 1.285 . S
C136 H155 0.930 . S
C137 C140 1.424 . S
C137 C142 1.245 . S
C137 C143 1.428 . S
C138 C141 1.260 . S
C138 C142 1.477 . S
C138 H156 0.932 . S
C139 C140 1.384 . S
C139 C141 1.479 . S
C139 H157 0.929 . S
C140 C137 1.424 . S
C140 C139 1.384 . S
C140 H158 0.928 . S
C141 C138 1.260 . S
C141 C139 1.479 . S
C142 C137 1.245 . S
C142 C138 1.477 . S
C142 H159 0.932 . S
C143 U126 2.882 . S
C143 C137 1.428 . S
C143 O146 1.301 . S
C143 O147 1.282 . S
O144 U126 2.441 . S
O144 C130 1.249 . S
O145 U126 2.420 . S
O145 C130 1.202 . S
O146 U126 2.455 . S
O146 C143 1.301 . S
O147 U126 2.449 . S
O147 C143 1.282 . S
H148 C121 0.931 . S
H149 C123 0.929 . S
H150 C124 0.930 . S
H151 C125 0.914 1_556 S
H152 C132 0.932 . S
H153 C133 0.930 . S
H154 C134 0.929 . S
H155 C136 0.930 . S
H156 C138 0.932 . S
H157 C139 0.929 . S
H158 C140 0.928 . S
H159 C142 0.932 . S
C160 C161 1.264 . S
C160 C165 1.479 . S
C160 C170 1.465 . S
C161 C160 1.264 . S
C161 C163 1.339 . S
C161 H188 0.931 . S
C162 C163 1.395 . S
C162 C164 1.320 . S
C163 C161 1.339 . S
C163 C162 1.395 . S
C163 H189 0.929 . S
C164 C162 1.320 . S
C164 C165 1.405 . S
C164 H190 0.930 . S
C165 C160 1.479 . S
C165 C164 1.405 . S
C165 H191 0.931 . S
U166 O167 2.454 . S
U166 O168 2.458 . S
U166 C169 2.984 . S
U166 C170 2.847 1_455 S
U166 C183 2.882 . S
U166 O184 2.441 1_455 S
U166 O185 2.420 1_455 S
U166 O186 2.455 . S
U166 O187 2.449 . S
O167 U166 2.454 . S
O167 C169 1.353 . S
O168 U166 2.458 . S
O168 C169 1.286 . S
C169 U166 2.984 . S
C169 O167 1.353 . S
C169 O168 1.286 . S
C169 C171 1.363 . S
C170 C160 1.465 . S
C170 U166 2.847 1_655 S
C170 O184 1.249 . S
C170 O185 1.202 . S
C171 C169 1.363 . S
C171 C173 1.408 . S
C171 C176 1.342 . S
C172 C173 1.310 . S
C172 C175 1.461 . S
C172 H192 0.932 . S
C173 C171 1.408 . S
C173 C172 1.310 . S
C173 H193 0.930 . S
C174 C175 1.474 . S
C174 C176 1.285 . S
C174 H194 0.929 . S
C175 C172 1.461 . S
C175 C174 1.474 . S
C176 C171 1.342 . S
C176 C174 1.285 . S
C176 H195 0.930 . S
C177 C180 1.424 . S
C177 C182 1.245 . S
C177 C183 1.428 . S
C178 C181 1.260 . S
C178 C182 1.477 . S
C178 H196 0.932 . S
C179 C180 1.384 . S
C179 C181 1.479 . S
C179 H197 0.929 . S
C180 C177 1.424 . S
C180 C179 1.384 . S
C180 H198 0.928 . S
C181 C178 1.260 . S
C181 C179 1.479 . S
C182 C177 1.245 . S
C182 C178 1.477 . S
C182 H199 0.932 . S
C183 U166 2.882 . S
C183 C177 1.428 . S
C183 O186 1.301 . S
C183 O187 1.282 . S
O184 U166 2.441 1_655 S
O184 C170 1.249 . S
O185 U166 2.420 1_655 S
O185 C170 1.202 . S
O186 U166 2.455 . S
O186 C183 1.301 . S
O187 U166 2.449 . S
O187 C183 1.282 . S
H188 C161 0.931 . S
H189 C163 0.929 . S
H190 C164 0.930 . S
H191 C165 0.931 . S
H192 C172 0.932 . S
H193 C173 0.930 . S
H194 C174 0.929 . S
H195 C176 0.930 . S
H196 C178 0.932 . S
H197 C179 0.929 . S
H198 C180 0.928 . S
H199 C182 0.932 . S
C200 C201 1.264 . S
C200 C205 1.479 . S
C200 C210 1.465 . S
C201 C200 1.264 . S
C201 C203 1.339 . S
C201 H228 0.931 . S
C202 C203 1.395 . S
C202 C204 1.320 . S
C203 C201 1.339 . S
C203 C202 1.395 . S
C203 H229 0.929 . S
C204 C202 1.320 . S
C204 C205 1.405 . S
C204 H230 0.930 . S
C205 C200 1.479 . S
C205 C204 1.405 . S
C205 H231 0.931 . S
U206 O207 2.454 . S
U206 O208 2.458 . S
U206 C209 2.984 . S
U206 C210 2.847 . S
U206 C223 2.882 . S
U206 O224 2.441 . S
U206 O225 2.420 . S
U206 O226 2.455 . S
U206 O227 2.449 . S
O207 U206 2.454 . S
O207 C209 1.353 . S
O208 U206 2.458 . S
O208 C209 1.286 . S
C209 U206 2.984 . S
C209 O207 1.353 . S
C209 O208 1.286 . S
C209 C211 1.363 . S
C210 C200 1.465 . S
C210 U206 2.847 . S
C210 O224 1.249 . S
C210 O225 1.202 . S
C211 C209 1.363 . S
C211 C213 1.408 . S
C211 C216 1.342 . S
C212 C213 1.310 . S
C212 C215 1.461 . S
C212 H232 0.932 . S
C213 C211 1.408 . S
C213 C212 1.310 . S
C213 H233 0.930 . S
C214 C215 1.474 . S
C214 C216 1.285 . S
C214 H234 0.929 . S
C215 C212 1.461 . S
C215 C214 1.474 . S
C216 C211 1.342 . S
C216 C214 1.285 . S
C216 H235 0.930 . S
C217 C220 1.424 . S
C217 C222 1.245 . S
C217 C223 1.428 . S
C218 C221 1.260 . S
C218 C222 1.477 . S
C218 H236 0.932 . S
C219 C220 1.384 . S
C219 C221 1.479 . S
C219 H237 0.929 . S
C220 C217 1.424 . S
C220 C219 1.384 . S
C220 H238 0.928 . S
C221 C218 1.260 . S
C221 C219 1.479 . S
C222 C217 1.245 . S
C222 C218 1.477 . S
C222 H239 0.932 . S
C223 U206 2.882 . S
C223 C217 1.428 . S
C223 O226 1.301 . S
C223 O227 1.282 . S
O224 U206 2.441 . S
O224 C210 1.249 . S
O225 U206 2.420 . S
O225 C210 1.202 . S
O226 U206 2.455 . S
O226 C223 1.301 . S
O227 U206 2.449 . S
O227 C223 1.282 . S
H228 C201 0.931 . S
H229 C203 0.929 . S
H230 C204 0.930 . S
H231 C205 0.931 . S
H232 C212 0.932 . S
H233 C213 0.930 . S
H234 C214 0.929 . S
H235 C216 0.930 . S
H236 C218 0.932 . S
H237 C219 0.929 . S
H238 C220 0.928 . S
H239 C222 0.932 . S
C240 C241 1.264 . S
C240 C245 1.479 . S
C240 C250 1.465 . S
C241 C240 1.264 . S
C241 C243 1.339 . S
C241 H268 0.931 . S
C242 C243 1.395 . S
C242 C244 1.320 . S
C243 C241 1.339 . S
C243 C242 1.395 . S
C243 H269 0.929 . S
C244 C242 1.320 . S
C244 C245 1.405 . S
C244 H270 0.930 . S
C245 C240 1.479 . S
C245 C244 1.405 . S
C245 H271 0.931 . S
U246 O247 2.454 . S
U246 O248 2.458 . S
U246 C249 2.984 . S
U246 C250 2.847 . S
U246 C263 2.882 . S
U246 O264 2.441 . S
U246 O265 2.420 . S
U246 O266 2.455 . S
U246 O267 2.449 . S
O247 U246 2.454 . S
O247 C249 1.353 . S
O248 U246 2.458 . S
O248 C249 1.286 . S
C249 U246 2.984 . S
C249 O247 1.353 . S
C249 O248 1.286 . S
C249 C251 1.363 . S
C250 C240 1.465 . S
C250 U246 2.847 . S
C250 O264 1.249 . S
C250 O265 1.202 . S
C251 C249 1.363 . S
C251 C253 1.408 . S
C251 C256 1.342 . S
C252 C253 1.310 . S
C252 C255 1.461 . S
C252 H272 0.932 . S
C253 C251 1.408 . S
C253 C252 1.310 . S
C253 H273 0.930 . S
C254 C255 1.474 . S
C254 C256 1.285 . S
C254 H274 0.929 . S
C255 C252 1.461 . S
C255 C254 1.474 . S
C256 C251 1.342 . S
C256 C254 1.285 . S
C256 H275 0.930 . S
C257 C260 1.424 . S
C257 C262 1.245 . S
C257 C263 1.428 . S
C258 C261 1.260 . S
C258 C262 1.477 . S
C258 H276 0.932 . S
C259 C260 1.384 . S
C259 C261 1.479 . S
C259 H277 0.929 . S
C260 C257 1.424 . S
C260 C259 1.384 . S
C260 H278 0.928 . S
C261 C258 1.260 . S
C261 C259 1.479 . S
C262 C257 1.245 . S
C262 C258 1.477 . S
C262 H279 0.932 . S
C263 U246 2.882 . S
C263 C257 1.428 . S
C263 O266 1.301 . S
C263 O267 1.282 . S
O264 U246 2.441 . S
O264 C250 1.249 . S
O265 U246 2.420 . S
O265 C250 1.202 . S
O266 U246 2.455 . S
O266 C263 1.301 . S
O267 U246 2.449 . S
O267 C263 1.282 . S
H268 C241 0.931 . S
H269 C243 0.929 . S
H270 C244 0.930 . S
H271 C245 0.931 . S
H272 C252 0.932 . S
H273 C253 0.930 . S
H274 C254 0.929 . S
H275 C256 0.930 . S
H276 C258 0.932 . S
H277 C259 0.929 . S
H278 C260 0.928 . S
H279 C262 0.932 . S
C280 C281 1.264 . S
C280 C285 1.479 . S
C280 C290 1.465 . S
C281 C280 1.264 . S
C281 C283 1.339 . S
C281 H308 0.931 . S
C282 C283 1.395 . S
C282 C284 1.320 . S
C283 C281 1.339 . S
C283 C282 1.395 . S
C283 H309 0.929 . S
C284 C282 1.320 . S
C284 C285 1.405 . S
C284 H310 0.930 . S
C285 C280 1.479 . S
C285 C284 1.405 . S
C285 H311 0.931 . S
U286 O287 2.454 . S
U286 O288 2.458 . S
U286 C289 2.984 . S
U286 C290 2.847 1_556 S
U286 C303 2.882 . S
U286 O304 2.441 1_556 S
U286 O305 2.420 1_556 S
U286 O306 2.455 . S
U286 O307 2.449 . S
O287 U286 2.454 . S
O287 C289 1.353 . S
O288 U286 2.458 . S
O288 C289 1.286 . S
C289 U286 2.984 . S
C289 O287 1.353 . S
C289 O288 1.286 . S
C289 C291 1.363 . S
C290 C280 1.465 . S
C290 U286 2.847 1_554 S
C290 O304 1.249 . S
C290 O305 1.202 . S
C291 C289 1.363 . S
C291 C293 1.408 . S
C291 C296 1.342 . S
C292 C293 1.310 . S
C292 C295 1.461 . S
C292 H312 0.932 1_556 S
C293 C291 1.408 . S
C293 C292 1.310 . S
C293 H313 0.930 1_556 S
C294 C295 1.474 . S
C294 C296 1.285 . S
C294 H314 0.929 . S
C295 C292 1.461 . S
C295 C294 1.474 . S
C296 C291 1.342 . S
C296 C294 1.285 . S
C296 H315 0.930 . S
C297 C300 1.424 . S
C297 C302 1.245 . S
C297 C303 1.428 . S
C298 C301 1.260 . S
C298 C302 1.477 . S
C298 H316 0.932 . S
C299 C300 1.384 . S
C299 C301 1.479 . S
C299 H317 0.929 . S
C300 C297 1.424 . S
C300 C299 1.384 . S
C300 H318 0.928 . S
C301 C298 1.260 . S
C301 C299 1.479 . S
C302 C297 1.245 . S
C302 C298 1.477 . S
C302 H319 0.932 . S
C303 U286 2.882 . S
C303 C297 1.428 . S
C303 O306 1.301 . S
C303 O307 1.282 . S
O304 U286 2.441 1_554 S
O304 C290 1.249 . S
O305 U286 2.420 1_554 S
O305 C290 1.202 . S
O306 U286 2.455 . S
O306 C303 1.301 . S
O307 U286 2.449 . S
O307 C303 1.282 . S
H308 C281 0.931 . S
H309 C283 0.929 . S
H310 C284 0.930 . S
H311 C285 0.931 . S
H312 C292 0.932 1_554 S
H313 C293 0.930 1_554 S
H314 C294 0.929 . S
H315 C296 0.930 . S
H316 C298 0.932 . S
H317 C299 0.929 . S
H318 C300 0.928 . S
H319 C302 0.932 . S
C320 C321 1.264 . S
C320 C325 1.479 . S
C320 C330 1.465 . S
C321 C320 1.264 . S
C321 C323 1.339 . S
C321 H348 0.931 . S
C322 C323 1.395 . S
C322 C324 1.320 . S
C323 C321 1.339 . S
C323 C322 1.395 . S
C323 H349 0.929 . S
C324 C322 1.320 . S
C324 C325 1.405 . S
C324 H350 0.930 . S
C325 C320 1.479 . S
C325 C324 1.405 . S
C325 H351 0.935 . S
U326 O327 2.454 1_545 S
U326 O328 2.477 . S
U326 C329 2.984 1_545 S
U326 C330 2.847 . S
U326 C343 2.882 . S
U326 O344 2.441 . S
U326 O345 2.420 . S
U326 O346 2.455 . S
U326 O347 2.449 . S
O327 U326 2.454 1_565 S
O327 C329 1.353 . S
O328 U326 2.477 . S
O328 C329 1.260 1_545 S
C329 U326 2.984 1_565 S
C329 O327 1.353 . S
C329 O328 1.260 1_565 S
C329 C331 1.363 . S
C330 C320 1.465 . S
C330 U326 2.847 . S
C330 O344 1.249 . S
C330 O345 1.202 . S
C331 C329 1.363 . S
C331 C333 1.408 . S
C331 C336 1.342 . S
C332 C333 1.310 . S
C332 C335 1.461 . S
C332 H352 0.932 . S
C333 C331 1.408 . S
C333 C332 1.310 . S
C333 H353 0.930 . S
C334 C335 1.474 . S
C334 C336 1.285 . S
C334 H354 0.929 . S
C335 C332 1.461 . S
C335 C334 1.474 . S
C336 C331 1.342 . S
C336 C334 1.285 . S
C336 H355 0.930 . S
C337 C340 1.424 . S
C337 C342 1.245 . S
C337 C343 1.428 . S
C338 C341 1.260 . S
C338 C342 1.477 . S
C338 H356 0.932 . S
C339 C340 1.384 . S
C339 C341 1.479 . S
C339 H357 0.929 . S
C340 C337 1.424 . S
C340 C339 1.384 . S
C340 H358 0.928 . S
C341 C338 1.260 . S
C341 C339 1.479 . S
C342 C337 1.245 . S
C342 C338 1.477 . S
C342 H359 0.932 . S
C343 U326 2.882 . S
C343 C337 1.428 . S
C343 O346 1.301 . S
C343 O347 1.282 . S
O344 U326 2.441 . S
O344 C330 1.249 . S
O345 U326 2.420 . S
O345 C330 1.202 . S
O346 U326 2.455 . S
O346 C343 1.301 . S
O347 U326 2.449 . S
O347 C343 1.282 . S
H348 C321 0.931 . S
H349 C323 0.929 . S
H350 C324 0.930 . S
H351 C325 0.935 . S
H352 C332 0.932 . S
H353 C333 0.930 . S
H354 C334 0.929 . S
H355 C336 0.930 . S
H356 C338 0.932 . S
H357 C339 0.929 . S
H358 C340 0.928 . S
H359 C342 0.932 . S
C360 C361 1.264 . S
C360 C365 1.479 . S
C360 C370 1.465 . S
C361 C360 1.264 . S
C361 C363 1.339 . S
C361 H388 0.931 . S
C362 C363 1.395 . S
C362 C364 1.320 . S
C363 C361 1.339 . S
C363 C362 1.395 . S
C363 H389 0.929 . S
C364 C362 1.320 . S
C364 C365 1.405 . S
C364 H390 0.930 . S
C365 C360 1.479 . S
C365 C364 1.405 . S
C365 H391 0.931 . S
U366 O367 2.454 . S
U366 O368 2.458 . S
U366 C369 2.984 . S
U366 C370 2.847 1_545 S
U366 C383 2.882 . S
U366 O384 2.441 1_545 S
U366 O385 2.420 1_545 S
U366 O386 2.455 . S
U366 O387 2.449 . S
O367 U366 2.454 . S
O367 C369 1.353 . S
O368 U366 2.458 . S
O368 C369 1.286 . S
C369 U366 2.984 . S
C369 O367 1.353 . S
C369 O368 1.286 . S
C369 C371 1.363 . S
C370 C360 1.465 . S
C370 U366 2.847 1_565 S
C370 O384 1.249 . S
C370 O385 1.202 . S
C371 C369 1.363 . S
C371 C373 1.408 . S
C371 C376 1.342 . S
C372 C373 1.310 . S
C372 C375 1.461 . S
C372 H392 0.932 . S
C373 C371 1.408 . S
C373 C372 1.310 . S
C373 H393 0.930 . S
C374 C375 1.474 . S
C374 C376 1.285 . S
C374 H394 0.929 . S
C375 C372 1.461 . S
C375 C374 1.474 . S
C376 C371 1.342 . S
C376 C374 1.285 . S
C376 H395 0.930 . S
C377 C380 1.424 . S
C377 C382 1.245 . S
C377 C383 1.428 . S
C378 C381 1.260 . S
C378 C382 1.477 . S
C378 H396 0.932 . S
C379 C380 1.384 . S
C379 C381 1.479 . S
C379 H397 0.929 . S
C380 C377 1.424 . S
C380 C379 1.384 . S
C380 H398 0.928 . S
C381 C378 1.260 . S
C381 C379 1.479 . S
C382 C377 1.245 . S
C382 C378 1.477 . S
C382 H399 0.932 . S
C383 U366 2.882 . S
C383 C377 1.428 . S
C383 O386 1.301 . S
C383 O387 1.282 . S
O384 U366 2.441 1_565 S
O384 C370 1.249 . S
O385 U366 2.420 1_565 S
O385 C370 1.202 . S
O386 U366 2.455 . S
O386 C383 1.301 . S
O387 U366 2.449 . S
O387 C383 1.282 . S
H388 C361 0.931 . S
H389 C363 0.929 . S
H390 C364 0.930 . S
H391 C365 0.931 . S
H392 C372 0.932 . S
H393 C373 0.930 . S
H394 C374 0.929 . S
H395 C376 0.930 . S
H396 C378 0.932 . S
H397 C379 0.929 . S
H398 C380 0.928 . S
H399 C382 0.932 . S
C400 C401 1.264 . S
C400 C405 1.479 . S
C400 C410 1.465 . S
C401 C400 1.264 . S
C401 C403 1.339 . S
C401 H428 0.931 . S
C402 C403 1.395 . S
C402 C404 1.320 . S
C403 C401 1.339 . S
C403 C402 1.395 . S
C403 H429 0.929 . S
C404 C402 1.320 . S
C404 C405 1.405 . S
C404 H430 0.930 . S
C405 C400 1.479 . S
C405 C404 1.405 . S
C405 H431 0.931 . S
U406 O407 2.454 . S
U406 O408 2.458 . S
U406 C409 2.984 . S
U406 C410 2.847 1_565 S
U406 C423 2.882 . S
U406 O424 2.441 1_565 S
U406 O425 2.420 1_565 S
U406 O426 2.455 . S
U406 O427 2.449 . S
O407 U406 2.454 . S
O407 C409 1.353 . S
O408 U406 2.458 . S
O408 C409 1.286 . S
C409 U406 2.984 . S
C409 O407 1.353 . S
C409 O408 1.286 . S
C409 C411 1.363 . S
C410 C400 1.465 . S
C410 U406 2.847 1_545 S
C410 O424 1.249 . S
C410 O425 1.202 . S
C411 C409 1.363 . S
C411 C413 1.408 . S
C411 C416 1.342 . S
C412 C413 1.310 . S
C412 C415 1.461 . S
C412 H432 0.932 . S
C413 C411 1.408 . S
C413 C412 1.310 . S
C413 H433 0.930 1_565 S
C414 C415 1.474 . S
C414 C416 1.285 . S
C414 H434 0.929 . S
C415 C412 1.461 . S
C415 C414 1.474 . S
C416 C411 1.342 . S
C416 C414 1.285 . S
C416 H435 0.930 . S
C417 C420 1.424 . S
C417 C422 1.245 . S
C417 C423 1.428 . S
C418 C421 1.260 . S
C418 C422 1.477 . S
C418 H436 0.932 . S
C419 C420 1.384 . S
C419 C421 1.479 . S
C419 H437 0.929 . S
C420 C417 1.424 . S
C420 C419 1.384 . S
C420 H438 0.928 . S
C421 C418 1.260 . S
C421 C419 1.479 . S
C422 C417 1.245 . S
C422 C418 1.477 . S
C422 H439 0.932 . S
C423 U406 2.882 . S
C423 C417 1.428 . S
C423 O426 1.301 . S
C423 O427 1.282 . S
O424 U406 2.441 1_545 S
O424 C410 1.249 . S
O425 U406 2.420 1_545 S
O425 C410 1.202 . S
O426 U406 2.455 . S
O426 C423 1.301 . S
O427 U406 2.449 . S
O427 C423 1.282 . S
H428 C401 0.931 . S
H429 C403 0.929 . S
H430 C404 0.930 . S
H431 C405 0.931 . S
H432 C412 0.932 . S
H433 C413 0.930 1_545 S
H434 C414 0.929 . S
H435 C416 0.930 . S
H436 C418 0.932 . S
H437 C419 0.929 . S
H438 C420 0.928 . S
H439 C422 0.932 . S
C440 C441 1.264 . S
C440 C445 1.479 . S
C440 C450 1.465 . S
C441 C440 1.264 . S
C441 C443 1.339 . S
C441 H468 0.931 . S
C442 C443 1.395 . S
C442 C444 1.320 . S
C443 C441 1.339 . S
C443 C442 1.395 . S
C443 H469 0.929 . S
C444 C442 1.320 . S
C444 C445 1.405 . S
C444 H470 0.930 . S
C445 C440 1.479 . S
C445 C444 1.405 . S
C445 H471 0.931 . S
U446 O447 2.454 1_565 S
U446 O448 2.466 . S
U446 C449 2.984 1_565 S
U446 C450 2.847 . S
U446 C463 2.882 . S
U446 O464 2.441 . S
U446 O465 2.420 . S
U446 O466 2.455 . S
U446 O467 2.449 . S
O447 U446 2.454 1_545 S
O447 C449 1.353 . S
O448 U446 2.466 . S
O448 C449 1.275 1_565 S
C449 U446 2.984 1_545 S
C449 O447 1.353 . S
C449 O448 1.275 1_545 S
C449 C451 1.363 . S
C450 C440 1.465 . S
C450 U446 2.847 . S
C450 O464 1.249 . S
C450 O465 1.202 . S
C451 C449 1.363 . S
C451 C453 1.408 . S
C451 C456 1.342 . S
C452 C453 1.310 . S
C452 C455 1.461 . S
C452 H472 0.932 . S
C453 C451 1.408 . S
C453 C452 1.310 . S
C453 H473 0.930 . S
C454 C455 1.474 . S
C454 C456 1.285 . S
C454 H474 0.929 . S
C455 C452 1.461 . S
C455 C454 1.474 . S
C456 C451 1.342 . S
C456 C454 1.285 . S
C456 H475 0.930 . S
C457 C460 1.424 . S
C457 C462 1.245 . S
C457 C463 1.428 . S
C458 C461 1.260 . S
C458 C462 1.477 . S
C458 H476 0.932 . S
C459 C460 1.384 . S
C459 C461 1.479 . S
C459 H477 0.929 . S
C460 C457 1.424 . S
C460 C459 1.384 . S
C460 H478 0.928 . S
C461 C458 1.260 . S
C461 C459 1.479 . S
C462 C457 1.245 . S
C462 C458 1.477 . S
C462 H479 0.932 . S
C463 U446 2.882 . S
C463 C457 1.428 . S
C463 O466 1.301 . S
C463 O467 1.282 . S
O464 U446 2.441 . S
O464 C450 1.249 . S
O465 U446 2.420 . S
O465 C450 1.202 . S
O466 U446 2.455 . S
O466 C463 1.301 . S
O467 U446 2.449 . S
O467 C463 1.282 . S
H468 C441 0.931 . S
H469 C443 0.929 . S
H470 C444 0.930 . S
H471 C445 0.931 . S
H472 C452 0.932 . S
H473 C453 0.930 . S
H474 C454 0.929 . S
H475 C456 0.930 . S
H476 C458 0.932 . S
H477 C459 0.929 . S
H478 C460 0.928 . S
H479 C462 0.932 . S
C480 C481 1.264 . S
C480 C485 1.479 . S
C480 C490 1.465 . S
C481 C480 1.264 . S
C481 C483 1.339 . S
C481 H508 0.931 . S
C482 C483 1.395 . S
C482 C484 1.320 . S
C483 C481 1.339 . S
C483 C482 1.395 . S
C483 H509 0.929 . S
C484 C482 1.320 . S
C484 C485 1.405 . S
C484 H510 0.930 . S
C485 C480 1.479 . S
C485 C484 1.405 . S
C485 H511 0.931 1_554 S
U486 O487 2.454 1_554 S
U486 O488 2.458 1_554 S
U486 C489 2.984 1_554 S
U486 C490 2.847 . S
U486 C503 2.882 . S
U486 O504 2.441 . S
U486 O505 2.420 . S
U486 O506 2.455 . S
U486 O507 2.449 . S
O487 U486 2.454 1_556 S
O487 C489 1.353 . S
O488 U486 2.458 1_556 S
O488 C489 1.286 . S
C489 U486 2.984 1_556 S
C489 O487 1.353 . S
C489 O488 1.286 . S
C489 C491 1.363 . S
C490 C480 1.465 . S
C490 U486 2.847 . S
C490 O504 1.249 . S
C490 O505 1.202 . S
C491 C489 1.363 . S
C491 C493 1.408 . S
C491 C496 1.342 . S
C492 C493 1.310 . S
C492 C495 1.461 . S
C492 H512 0.932 . S
C493 C491 1.408 . S
C493 C492 1.310 . S
C493 H513 0.930 . S
C494 C495 1.474 . S
C494 C496 1.285 . S
C494 H514 0.929 . S
C495 C492 1.461 . S
C495 C494 1.474 . S
C496 C491 1.342 . S
C496 C494 1.285 . S
C496 H515 0.930 . S
C497 C500 1.424 . S
C497 C502 1.245 . S
C497 C503 1.428 . S
C498 C501 1.260 . S
C498 C502 1.477 . S
C498 H516 0.932 . S
C499 C500 1.384 . S
C499 C501 1.479 . S
C499 H517 0.929 . S
C500 C497 1.424 . S
C500 C499 1.384 . S
C500 H518 0.928 . S
C501 C498 1.260 . S
C501 C499 1.479 . S
C502 C497 1.245 . S
C502 C498 1.477 . S
C502 H519 0.932 . S
C503 U486 2.882 . S
C503 C497 1.428 . S
C503 O506 1.301 . S
C503 O507 1.282 . S
O504 U486 2.441 . S
O504 C490 1.249 . S
O505 U486 2.420 . S
O505 C490 1.202 . S
O506 U486 2.455 . S
O506 C503 1.301 . S
O507 U486 2.449 . S
O507 C503 1.282 . S
H508 C481 0.931 . S
H509 C483 0.929 . S
H510 C484 0.930 . S
H511 C485 0.931 1_556 S
H512 C492 0.932 . S
H513 C493 0.930 . S
H514 C494 0.929 . S
H515 C496 0.930 . S
H516 C498 0.932 . S
H517 C499 0.929 . S
H518 C500 0.928 . S
H519 C502 0.932 . S
C520 C521 1.264 . S
C520 C525 1.479 . S
C520 C530 1.465 . S
C521 C520 1.264 . S
C521 C523 1.339 . S
C521 H548 0.931 . S
C522 C523 1.395 . S
C522 C524 1.320 . S
C523 C521 1.339 . S
C523 C522 1.395 . S
C523 H549 0.929 . S
C524 C522 1.320 . S
C524 C525 1.405 . S
C524 H550 0.930 . S
C525 C520 1.479 . S
C525 C524 1.405 . S
C525 H551 0.931 . S
U526 O527 2.454 . S
U526 O528 2.458 . S
U526 C529 2.984 . S
U526 C530 2.847 1_655 S
U526 C543 2.882 . S
U526 O544 2.441 1_655 S
U526 O545 2.420 1_655 S
U526 O546 2.455 . S
U526 O547 2.449 . S
O527 U526 2.454 . S
O527 C529 1.353 . S
O528 U526 2.458 . S
O528 C529 1.286 . S
C529 U526 2.984 . S
C529 O527 1.353 . S
C529 O528 1.286 . S
C529 C531 1.363 . S
C530 C520 1.465 . S
C530 U526 2.847 1_455 S
C530 O544 1.249 . S
C530 O545 1.202 . S
C531 C529 1.363 . S
C531 C533 1.408 . S
C531 C536 1.342 . S
C532 C533 1.310 . S
C532 C535 1.461 . S
C532 H552 0.932 . S
C533 C531 1.408 . S
C533 C532 1.310 . S
C533 H553 0.930 . S
C534 C535 1.474 . S
C534 C536 1.285 . S
C534 H554 0.929 . S
C535 C532 1.461 . S
C535 C534 1.474 . S
C536 C531 1.342 . S
C536 C534 1.285 . S
C536 H555 0.930 . S
C537 C540 1.424 . S
C537 C542 1.245 . S
C537 C543 1.428 . S
C538 C541 1.260 . S
C538 C542 1.477 . S
C538 H556 0.932 . S
C539 C540 1.384 . S
C539 C541 1.479 . S
C539 H557 0.929 . S
C540 C537 1.424 . S
C540 C539 1.384 . S
C540 H558 0.928 . S
C541 C538 1.260 . S
C541 C539 1.479 . S
C542 C537 1.245 . S
C542 C538 1.477 . S
C542 H559 0.932 . S
C543 U526 2.882 . S
C543 C537 1.428 . S
C543 O546 1.301 . S
C543 O547 1.282 . S
O544 U526 2.441 1_455 S
O544 C530 1.249 . S
O545 U526 2.420 1_455 S
O545 C530 1.202 . S
O546 U526 2.455 . S
O546 C543 1.301 . S
O547 U526 2.449 . S
O547 C543 1.282 . S
H548 C521 0.931 . S
H549 C523 0.929 . S
H550 C524 0.930 . S
H551 C525 0.931 . S
H552 C532 0.932 . S
H553 C533 0.930 . S
H554 C534 0.929 . S
H555 C536 0.930 . S
H556 C538 0.932 . S
H557 C539 0.929 . S
H558 C540 0.928 . S
H559 C542 0.932 . S
C560 C561 1.264 . S
C560 C565 1.479 . S
C560 C570 1.465 . S
C561 C560 1.264 . S
C561 C563 1.339 . S
C561 H588 0.931 . S
C562 C563 1.395 . S
C562 C564 1.320 . S
C563 C561 1.339 . S
C563 C562 1.395 . S
C563 H589 0.929 . S
C564 C562 1.320 . S
C564 C565 1.405 . S
C564 H590 0.930 . S
C565 C560 1.479 . S
C565 C564 1.405 . S
C565 H591 0.931 . S
U566 O567 2.454 . S
U566 O568 2.458 . S
U566 C569 2.984 . S
U566 C570 2.847 . S
U566 C583 2.882 . S
U566 O584 2.441 . S
U566 O585 2.420 . S
U566 O586 2.455 . S
U566 O587 2.449 . S
O567 U566 2.454 . S
O567 C569 1.353 . S
O568 U566 2.458 . S
O568 C569 1.286 . S
C569 U566 2.984 . S
C569 O567 1.353 . S
C569 O568 1.286 . S
C569 C571 1.363 . S
C570 C560 1.465 . S
C570 U566 2.847 . S
C570 O584 1.249 . S
C570 O585 1.202 . S
C571 C569 1.363 . S
C571 C573 1.408 . S
C571 C576 1.342 . S
C572 C573 1.310 . S
C572 C575 1.461 . S
C572 H592 0.932 . S
C573 C571 1.408 . S
C573 C572 1.310 . S
C573 H593 0.930 . S
C574 C575 1.474 . S
C574 C576 1.285 . S
C574 H594 0.929 . S
C575 C572 1.461 . S
C575 C574 1.474 . S
C576 C571 1.342 . S
C576 C574 1.285 . S
C576 H595 0.930 . S
C577 C580 1.424 . S
C577 C582 1.245 . S
C577 C583 1.428 . S
C578 C581 1.260 . S
C578 C582 1.477 . S
C578 H596 0.932 . S
C579 C580 1.384 . S
C579 C581 1.479 . S
C579 H597 0.929 . S
C580 C577 1.424 . S
C580 C579 1.384 . S
C580 H598 0.928 . S
C581 C578 1.260 . S
C581 C579 1.479 . S
C582 C577 1.245 . S
C582 C578 1.477 . S
C582 H599 0.932 . S
C583 U566 2.882 . S
C583 C577 1.428 . S
C583 O586 1.301 . S
C583 O587 1.282 . S
O584 U566 2.441 . S
O584 C570 1.249 . S
O585 U566 2.420 . S
O585 C570 1.202 . S
O586 U566 2.455 . S
O586 C583 1.301 . S
O587 U566 2.449 . S
O587 C583 1.282 . S
H588 C561 0.931 . S
H589 C563 0.929 . S
H590 C564 0.930 . S
H591 C565 0.931 . S
H592 C572 0.932 . S
H593 C573 0.930 . S
H594 C574 0.929 . S
H595 C576 0.930 . S
H596 C578 0.932 . S
H597 C579 0.929 . S
H598 C580 0.928 . S
H599 C582 0.932 . S
C600 C601 1.264 . S
C600 C605 1.479 . S
C600 C610 1.465 . S
C601 C600 1.264 . S
C601 C603 1.339 . S
C601 H628 0.931 . S
C602 C603 1.395 . S
C602 C604 1.320 . S
C603 C601 1.339 . S
C603 C602 1.395 . S
C603 H629 0.929 . S
C604 C602 1.320 . S
C604 C605 1.405 . S
C604 H630 0.930 . S
C605 C600 1.479 . S
C605 C604 1.405 . S
C605 H631 0.931 . S
U606 O607 2.454 1_655 S
U606 O608 2.458 1_655 S
U606 C609 2.984 1_655 S
U606 C610 2.847 . S
U606 C623 2.882 . S
U606 O624 2.441 . S
U606 O625 2.420 . S
U606 O626 2.455 . S
U606 O627 2.449 . S
O607 U606 2.454 1_455 S
O607 C609 1.353 . S
O608 U606 2.458 1_455 S
O608 C609 1.286 . S
C609 U606 2.984 1_455 S
C609 O607 1.353 . S
C609 O608 1.286 . S
C609 C611 1.363 . S
C610 C600 1.465 . S
C610 U606 2.847 . S
C610 O624 1.249 . S
C610 O625 1.202 . S
C611 C609 1.363 . S
C611 C613 1.408 . S
C611 C616 1.342 . S
C612 C613 1.310 . S
C612 C615 1.461 . S
C612 H632 0.932 . S
C613 C611 1.408 . S
C613 C612 1.310 . S
C613 H633 0.930 . S
C614 C615 1.474 . S
C614 C616 1.285 . S
C614 H634 0.929 . S
C615 C612 1.461 . S
C615 C614 1.474 . S
C616 C611 1.342 . S
C616 C614 1.285 . S
C616 H635 0.930 . S
C617 C620 1.424 . S
C617 C622 1.245 . S
C617 C623 1.428 . S
C618 C621 1.260 . S
C618 C622 1.477 . S
C618 H636 0.932 . S
C619 C620 1.384 . S
C619 C621 1.479 . S
C619 H637 0.929 . S
C620 C617 1.424 . S
C620 C619 1.384 . S
C620 H638 0.928 . S
C621 C618 1.260 . S
C621 C619 1.479 . S
C622 C617 1.245 . S
C622 C618 1.477 . S
C622 H639 0.932 . S
C623 U606 2.882 . S
C623 C617 1.428 . S
C623 O626 1.301 . S
C623 O627 1.282 . S
O624 U606 2.441 . S
O624 C610 1.249 . S
O625 U606 2.420 . S
O625 C610 1.202 . S
O626 U606 2.455 . S
O626 C623 1.301 . S
O627 U606 2.449 . S
O627 C623 1.282 . S
H628 C601 0.931 . S
H629 C603 0.929 . S
H630 C604 0.930 . S
H631 C605 0.931 . S
H632 C612 0.932 . S
H633 C613 0.930 . S
H634 C614 0.929 . S
H635 C616 0.930 . S
H636 C618 0.932 . S
H637 C619 0.929 . S
H638 C620 0.928 . S
H639 C622 0.932 . S
C640 C641 1.264 . S
C640 C645 1.479 . S
C640 C650 1.465 . S
C641 C640 1.264 . S
C641 C643 1.339 . S
C641 H668 0.931 . S
C642 C643 1.395 . S
C642 C644 1.320 . S
C643 C641 1.339 . S
C643 C642 1.395 . S
C643 H669 0.929 . S
C644 C642 1.320 . S
C644 C645 1.405 . S
C644 H670 0.930 . S
C645 C640 1.479 . S
C645 C644 1.405 . S
C645 H671 0.931 . S
U646 O647 2.454 . S
U646 O648 2.458 . S
U646 C649 2.984 . S
U646 C650 2.847 . S
U646 C663 2.882 . S
U646 O664 2.441 . S
U646 O665 2.420 . S
U646 O666 2.455 . S
U646 O667 2.449 . S
O647 U646 2.454 . S
O647 C649 1.353 . S
O648 U646 2.458 . S
O648 C649 1.286 . S
C649 U646 2.984 . S
C649 O647 1.353 . S
C649 O648 1.286 . S
C649 C651 1.363 . S
C650 C640 1.465 . S
C650 U646 2.847 . S
C650 O664 1.249 . S
C650 O665 1.202 . S
C651 C649 1.363 . S
C651 C653 1.408 . S
C651 C656 1.342 . S
C652 C653 1.310 . S
C652 C655 1.461 . S
C652 H672 0.932 . S
C653 C651 1.408 . S
C653 C652 1.310 . S
C653 H673 0.930 . S
C654 C655 1.474 . S
C654 C656 1.285 . S
C654 H674 0.929 . S
C655 C652 1.461 . S
C655 C654 1.474 . S
C656 C651 1.342 . S
C656 C654 1.285 . S
C656 H675 0.930 . S
C657 C660 1.424 . S
C657 C662 1.245 . S
C657 C663 1.428 . S
C658 C661 1.260 . S
C658 C662 1.477 . S
C658 H676 0.932 . S
C659 C660 1.384 . S
C659 C661 1.479 . S
C659 H677 0.929 . S
C660 C657 1.424 . S
C660 C659 1.384 . S
C660 H678 0.928 . S
C661 C658 1.260 . S
C661 C659 1.479 . S
C662 C657 1.245 . S
C662 C658 1.477 . S
C662 H679 0.932 . S
C663 U646 2.882 . S
C663 C657 1.428 . S
C663 O666 1.301 . S
C663 O667 1.282 . S
O664 U646 2.441 . S
O664 C650 1.249 . S
O665 U646 2.420 . S
O665 C650 1.202 . S
O666 U646 2.455 . S
O666 C663 1.301 . S
O667 U646 2.449 . S
O667 C663 1.282 . S
H668 C641 0.931 . S
H669 C643 0.929 . S
H670 C644 0.930 . S
H671 C645 0.931 . S
H672 C652 0.932 . S
H673 C653 0.930 . S
H674 C654 0.929 . S
H675 C656 0.930 . S
H676 C658 0.932 . S
H677 C659 0.929 . S
H678 C660 0.928 . S
H679 C662 0.932 . S
C680 C681 1.264 . S
C680 C685 1.479 . S
C680 C690 1.465 . S
C681 C680 1.264 . S
C681 C683 1.339 . S
C681 H708 0.931 . S
C682 C683 1.395 . S
C682 C684 1.320 . S
C683 C681 1.339 . S
C683 C682 1.395 . S
C683 H709 0.929 . S
C684 C682 1.320 . S
C684 C685 1.405 . S
C684 H710 0.930 . S
C685 C680 1.479 . S
C685 C684 1.405 . S
C685 H711 0.931 . S
U686 O687 2.454 . S
U686 O688 2.458 . S
U686 C689 2.984 . S
U686 C690 2.847 . S
U686 C703 2.882 . S
U686 O704 2.441 . S
U686 O705 2.420 . S
U686 O706 2.455 . S
U686 O707 2.449 . S
O687 U686 2.454 . S
O687 C689 1.353 . S
O688 U686 2.458 . S
O688 C689 1.286 . S
C689 U686 2.984 . S
C689 O687 1.353 . S
C689 O688 1.286 . S
C689 C691 1.363 . S
C690 C680 1.465 . S
C690 U686 2.847 . S
C690 O704 1.249 . S
C690 O705 1.202 . S
C691 C689 1.363 . S
C691 C693 1.408 . S
C691 C696 1.342 . S
C692 C693 1.310 . S
C692 C695 1.461 . S
C692 H712 0.932 . S
C693 C691 1.408 . S
C693 C692 1.310 . S
C693 H713 0.930 . S
C694 C695 1.474 . S
C694 C696 1.285 . S
C694 H714 0.929 . S
C695 C692 1.461 . S
C695 C694 1.474 . S
C696 C691 1.342 . S
C696 C694 1.285 . S
C696 H715 0.930 . S
C697 C700 1.424 . S
C697 C702 1.245 . S
C697 C703 1.428 . S
C698 C701 1.260 . S
C698 C702 1.477 . S
C698 H716 0.932 . S
C699 C700 1.384 . S
C699 C701 1.479 . S
C699 H717 0.929 . S
C700 C697 1.424 . S
C700 C699 1.384 . S
C700 H718 0.928 . S
C701 C698 1.260 . S
C701 C699 1.479 . S
C702 C697 1.245 . S
C702 C698 1.477 . S
C702 H719 0.932 . S
C703 U686 2.882 . S
C703 C697 1.428 . S
C703 O706 1.301 . S
C703 O707 1.282 . S
O704 U686 2.441 . S
O704 C690 1.249 . S
O705 U686 2.420 . S
O705 C690 1.202 . S
O706 U686 2.455 . S
O706 C703 1.301 . S
O707 U686 2.449 . S
O707 C703 1.282 . S
H708 C681 0.931 . S
H709 C683 0.929 . S
H710 C684 0.930 . S
H711 C685 0.931 . S
H712 C692 0.932 . S
H713 C693 0.930 . S
H714 C694 0.929 . S
H715 C696 0.930 . S
H716 C698 0.932 . S
H717 C699 0.929 . S
H718 C700 0.928 . S
H719 C702 0.932 . S
C720 C721 1.264 . S
C720 C725 1.479 . S
C720 C730 1.465 . S
C721 C720 1.264 . S
C721 C723 1.339 . S
C721 H748 0.931 . S
C722 C723 1.395 . S
C722 C724 1.320 . S
C723 C721 1.339 . S
C723 C722 1.395 . S
C723 H749 0.929 . S
C724 C722 1.320 . S
C724 C725 1.405 . S
C724 H750 0.930 . S
C725 C720 1.479 . S
C725 C724 1.405 . S
C725 H751 0.931 . S
U726 O727 2.454 1_556 S
U726 O728 2.458 1_556 S
U726 C729 2.984 1_556 S
U726 C730 2.847 . S
U726 C743 2.882 . S
U726 O744 2.441 . S
U726 O745 2.420 . S
U726 O746 2.455 . S
U726 O747 2.449 . S
O727 U726 2.454 1_554 S
O727 C729 1.353 . S
O728 U726 2.458 1_554 S
O728 C729 1.286 . S
C729 U726 2.984 1_554 S
C729 O727 1.353 . S
C729 O728 1.286 . S
C729 C731 1.363 . S
C730 C720 1.465 . S
C730 U726 2.847 . S
C730 O744 1.249 . S
C730 O745 1.202 . S
C731 C729 1.363 . S
C731 C733 1.408 . S
C731 C736 1.342 . S
C732 C733 1.310 . S
C732 C735 1.461 . S
C732 H752 0.932 . S
C733 C731 1.408 . S
C733 C732 1.310 . S
C733 H753 0.930 . S
C734 C735 1.474 . S
C734 C736 1.285 . S
C734 H754 0.929 . S
C735 C732 1.461 . S
C735 C734 1.474 . S
C736 C731 1.342 . S
C736 C734 1.285 . S
C736 H755 0.930 . S
C737 C740 1.424 . S
C737 C742 1.245 . S
C737 C743 1.428 . S
C738 C741 1.260 . S
C738 C742 1.477 . S
C738 H756 0.932 . S
C739 C740 1.384 . S
C739 C741 1.479 . S
C739 H757 0.929 . S
C740 C737 1.424 . S
C740 C739 1.384 . S
C740 H758 0.928 . S
C741 C738 1.260 . S
C741 C739 1.479 . S
C742 C737 1.245 . S
C742 C738 1.477 . S
C742 H759 0.932 . S
C743 U726 2.882 . S
C743 C737 1.428 . S
C743 O746 1.301 . S
C743 O747 1.282 . S
O744 U726 2.441 . S
O744 C730 1.249 . S
O745 U726 2.420 . S
O745 C730 1.202 . S
O746 U726 2.455 . S
O746 C743 1.301 . S
O747 U726 2.449 . S
O747 C743 1.282 . S
H748 C721 0.931 . S
H749 C723 0.929 . S
H750 C724 0.930 . S
H751 C725 0.931 . S
H752 C732 0.932 . S
H753 C733 0.930 . S
H754 C734 0.929 . S
H755 C736 0.930 . S
H756 C738 0.932 . S
H757 C739 0.929 . S
H758 C740 0.928 . S
H759 C742 0.932 . S
C760 C761 1.264 . S
C760 C765 1.479 . S
C760 C770 1.465 . S
C761 C760 1.264 . S
C761 C763 1.339 . S
C761 H788 0.931 . S
C762 C763 1.395 . S
C762 C764 1.320 . S
C763 C761 1.339 . S
C763 C762 1.395 . S
C763 H789 0.929 . S
C764 C762 1.320 . S
C764 C765 1.405 . S
C764 H790 0.930 . S
C765 C760 1.479 . S
C765 C764 1.405 . S
C765 H791 0.931 . S
U766 O767 2.454 . S
U766 O768 2.458 . S
U766 C769 2.984 . S
U766 C770 2.847 1_655 S
U766 C783 2.882 . S
U766 O784 2.441 1_655 S
U766 O785 2.420 1_655 S
U766 O786 2.455 . S
U766 O787 2.449 . S
O767 U766 2.454 . S
O767 C769 1.353 . S
O768 U766 2.458 . S
O768 C769 1.286 . S
C769 U766 2.984 . S
C769 O767 1.353 . S
C769 O768 1.286 . S
C769 C771 1.363 . S
C770 C760 1.465 . S
C770 U766 2.847 1_455 S
C770 O784 1.249 . S
C770 O785 1.202 . S
C771 C769 1.363 . S
C771 C773 1.408 . S
C771 C776 1.342 . S
C772 C773 1.310 . S
C772 C775 1.461 . S
C772 H792 0.932 . S
C773 C771 1.408 . S
C773 C772 1.310 . S
C773 H793 0.930 . S
C774 C775 1.474 . S
C774 C776 1.285 . S
C774 H794 0.929 . S
C775 C772 1.461 . S
C775 C774 1.474 . S
C776 C771 1.342 . S
C776 C774 1.285 . S
C776 H795 0.930 . S
C777 C780 1.424 . S
C777 C782 1.245 . S
C777 C783 1.428 . S
C778 C781 1.260 . S
C778 C782 1.477 . S
C778 H796 0.932 . S
C779 C780 1.384 . S
C779 C781 1.479 . S
C779 H797 0.929 . S
C780 C777 1.424 . S
C780 C779 1.384 . S
C780 H798 0.928 . S
C781 C778 1.260 . S
C781 C779 1.479 . S
C782 C777 1.245 . S
C782 C778 1.477 . S
C782 H799 0.932 . S
C783 U766 2.882 . S
C783 C777 1.428 . S
C783 O786 1.301 . S
C783 O787 1.282 . S
O784 U766 2.441 1_455 S
O784 C770 1.249 . S
O785 U766 2.420 1_455 S
O785 C770 1.202 . S
O786 U766 2.455 . S
O786 C783 1.301 . S
O787 U766 2.449 . S
O787 C783 1.282 . S
H788 C761 0.931 . S
H789 C763 0.929 . S
H790 C764 0.930 . S
H791 C765 0.931 . S
H792 C772 0.932 . S
H793 C773 0.930 . S
H794 C774 0.929 . S
H795 C776 0.930 . S
H796 C778 0.932 . S
H797 C779 0.929 . S
H798 C780 0.928 . S
H799 C782 0.932 . S
C800 C801 1.264 . S
C800 C805 1.479 . S
C800 C810 1.465 . S
C801 C800 1.264 . S
C801 C803 1.339 . S
C801 H828 0.931 . S
C802 C803 1.395 . S
C802 C804 1.320 . S
C803 C801 1.339 . S
C803 C802 1.395 . S
C803 H829 0.929 . S
C804 C802 1.320 . S
C804 C805 1.405 . S
C804 H830 0.930 . S
C805 C800 1.479 . S
C805 C804 1.405 . S
C805 H831 0.931 . S
U806 O807 2.454 . S
U806 O808 2.458 . S
U806 C809 2.984 . S
U806 C810 2.847 . S
U806 C823 2.882 . S
U806 O824 2.441 . S
U806 O825 2.420 . S
U806 O826 2.455 . S
U806 O827 2.449 . S
O807 U806 2.454 . S
O807 C809 1.353 . S
O808 U806 2.458 . S
O808 C809 1.286 . S
C809 U806 2.984 . S
C809 O807 1.353 . S
C809 O808 1.286 . S
C809 C811 1.363 . S
C810 C800 1.465 . S
C810 U806 2.847 . S
C810 O824 1.249 . S
C810 O825 1.202 . S
C811 C809 1.363 . S
C811 C813 1.408 . S
C811 C816 1.342 . S
C812 C813 1.310 . S
C812 C815 1.461 . S
C812 H832 0.932 . S
C813 C811 1.408 . S
C813 C812 1.310 . S
C813 H833 0.930 . S
C814 C815 1.474 . S
C814 C816 1.285 . S
C814 H834 0.929 . S
C815 C812 1.461 . S
C815 C814 1.474 . S
C816 C811 1.342 . S
C816 C814 1.285 . S
C816 H835 0.930 . S
C817 C820 1.424 . S
C817 C822 1.245 . S
C817 C823 1.428 . S
C818 C821 1.260 . S
C818 C822 1.477 . S
C818 H836 0.932 . S
C819 C820 1.384 . S
C819 C821 1.479 . S
C819 H837 0.929 . S
C820 C817 1.424 . S
C820 C819 1.384 . S
C820 H838 0.928 . S
C821 C818 1.260 . S
C821 C819 1.479 . S
C822 C817 1.245 . S
C822 C818 1.477 . S
C822 H839 0.932 . S
C823 U806 2.882 . S
C823 C817 1.428 . S
C823 O826 1.301 . S
C823 O827 1.282 . S
O824 U806 2.441 . S
O824 C810 1.249 . S
O825 U806 2.420 . S
O825 C810 1.202 . S
O826 U806 2.455 . S
O826 C823 1.301 . S
O827 U806 2.449 . S
O827 C823 1.282 . S
H828 C801 0.931 . S
H829 C803 0.929 . S
H830 C804 0.930 . S
H831 C805 0.931 . S
H832 C812 0.932 . S
H833 C813 0.930 . S
H834 C814 0.929 . S
H835 C816 0.930 . S
H836 C818 0.932 . S
H837 C819 0.929 . S
H838 C820 0.928 . S
H839 C822 0.932 . S
C840 C841 1.264 . S
C840 C845 1.479 . S
C840 C850 1.465 . S
C841 C840 1.264 . S
C841 C843 1.339 . S
C841 H868 0.931 . S
C842 C843 1.395 . S
C842 C844 1.320 . S
C843 C841 1.339 . S
C843 C842 1.395 . S
C843 H869 0.929 . S
C844 C842 1.320 . S
C844 C845 1.405 . S
C844 H870 0.930 . S
C845 C840 1.479 . S
C845 C844 1.405 . S
C845 H871 0.931 . S
U846 O847 2.454 . S
U846 O848 2.458 . S
U846 C849 2.984 . S
U846 C850 2.847 . S
U846 C863 2.882 . S
U846 O864 2.441 . S
U846 O865 2.420 . S
U846 O866 2.455 . S
U846 O867 2.449 . S
O847 U846 2.454 . S
O847 C849 1.353 . S
O848 U846 2.458 . S
O848 C849 1.286 . S
C849 U846 2.984 . S
C849 O847 1.353 . S
C849 O848 1.286 . S
C849 C851 1.363 . S
C850 C840 1.465 . S
C850 U846 2.847 . S
C850 O864 1.249 . S
C850 O865 1.202 . S
C851 C849 1.363 . S
C851 C853 1.408 . S
C851 C856 1.342 . S
C852 C853 1.310 . S
C852 C855 1.461 . S
C852 H872 0.932 . S
C853 C851 1.408 . S
C853 C852 1.310 . S
C853 H873 0.930 . S
C854 C855 1.474 . S
C854 C856 1.285 . S
C854 H874 0.929 . S
C855 C852 1.461 . S
C855 C854 1.474 . S
C856 C851 1.342 . S
C856 C854 1.285 . S
C856 H875 0.930 . S
C857 C860 1.424 . S
C857 C862 1.245 . S
C857 C863 1.428 . S
C858 C861 1.260 . S
C858 C862 1.477 . S
C858 H876 0.932 . S
C859 C860 1.384 . S
C859 C861 1.479 . S
C859 H877 0.929 . S
C860 C857 1.424 . S
C860 C859 1.384 . S
C860 H878 0.928 . S
C861 C858 1.260 . S
C861 C859 1.479 . S
C862 C857 1.245 . S
C862 C858 1.477 . S
C862 H879 0.932 . S
C863 U846 2.882 . S
C863 C857 1.428 . S
C863 O866 1.301 . S
C863 O867 1.282 . S
O864 U846 2.441 . S
O864 C850 1.249 . S
O865 U846 2.420 . S
O865 C850 1.202 . S
O866 U846 2.455 . S
O866 C863 1.301 . S
O867 U846 2.449 . S
O867 C863 1.282 . S
H868 C841 0.931 . S
H869 C843 0.929 . S
H870 C844 0.930 . S
H871 C845 0.931 . S
H872 C852 0.932 . S
H873 C853 0.930 . S
H874 C854 0.929 . S
H875 C856 0.930 . S
H876 C858 0.932 . S
H877 C859 0.929 . S
H878 C860 0.928 . S
H879 C862 0.932 . S
C880 C881 1.264 . S
C880 C885 1.479 . S
C880 C890 1.465 . S
C881 C880 1.264 . S
C881 C883 1.339 . S
C881 H908 0.931 . S
C882 C883 1.395 . S
C882 C884 1.320 . S
C883 C881 1.339 . S
C883 C882 1.395 . S
C883 H909 0.929 . S
C884 C882 1.320 . S
C884 C885 1.405 . S
C884 H910 0.930 . S
C885 C880 1.479 . S
C885 C884 1.405 . S
C885 H911 0.931 . S
U886 O887 2.454 . S
U886 O888 2.458 . S
U886 C889 2.984 . S
U886 C890 2.847 1_554 S
U886 C903 2.882 . S
U886 O904 2.441 1_554 S
U886 O905 2.420 1_554 S
U886 O906 2.455 . S
U886 O907 2.449 . S
O887 U886 2.454 . S
O887 C889 1.353 . S
O888 U886 2.458 . S
O888 C889 1.286 . S
C889 U886 2.984 . S
C889 O887 1.353 . S
C889 O888 1.286 . S
C889 C891 1.363 . S
C890 C880 1.465 . S
C890 U886 2.847 1_556 S
C890 O904 1.249 . S
C890 O905 1.202 . S
C891 C889 1.363 . S
C891 C893 1.408 . S
C891 C896 1.342 . S
C892 C893 1.310 . S
C892 C895 1.461 . S
C892 H912 0.932 . S
C893 C891 1.408 . S
C893 C892 1.310 . S
C893 H913 0.930 . S
C894 C895 1.474 . S
C894 C896 1.285 . S
C894 H914 0.929 . S
C895 C892 1.461 . S
C895 C894 1.474 . S
C896 C891 1.342 . S
C896 C894 1.285 . S
C896 H915 0.930 . S
C897 C900 1.424 . S
C897 C902 1.245 . S
C897 C903 1.428 . S
C898 C901 1.260 . S
C898 C902 1.477 . S
C898 H916 0.932 . S
C899 C900 1.384 . S
C899 C901 1.479 . S
C899 H917 0.929 . S
C900 C897 1.424 . S
C900 C899 1.384 . S
C900 H918 0.928 . S
C901 C898 1.260 . S
C901 C899 1.479 . S
C902 C897 1.245 . S
C902 C898 1.477 . S
C902 H919 0.932 . S
C903 U886 2.882 . S
C903 C897 1.428 . S
C903 O906 1.301 . S
C903 O907 1.282 . S
O904 U886 2.441 1_556 S
O904 C890 1.249 . S
O905 U886 2.420 1_556 S
O905 C890 1.202 . S
O906 U886 2.455 . S
O906 C903 1.301 . S
O907 U886 2.449 . S
O907 C903 1.282 . S
H908 C881 0.931 . S
H909 C883 0.929 . S
H910 C884 0.930 . S
H911 C885 0.931 . S
H912 C892 0.932 . S
H913 C893 0.930 . S
H914 C894 0.929 . S
H915 C896 0.930 . S
H916 C898 0.932 . S
H917 C899 0.929 . S
H918 C900 0.928 . S
H919 C902 0.932 . S
C920 C921 1.264 . S
C920 C925 1.479 . S
C920 C930 1.465 . S
C921 C920 1.264 . S
C921 C923 1.339 . S
C921 H948 0.931 . S
C922 C923 1.395 . S
C922 C924 1.320 . S
C923 C921 1.339 . S
C923 C922 1.395 . S
C923 H949 0.929 . S
C924 C922 1.320 . S
C924 C925 1.405 . S
C924 H950 0.930 . S
C925 C920 1.479 . S
C925 C924 1.405 . S
C925 H951 0.931 . S
U926 O927 2.454 1_565 S
U926 O928 2.458 1_565 S
U926 C929 2.984 1_565 S
U926 C930 2.847 . S
U926 C943 2.882 . S
U926 O944 2.441 . S
U926 O945 2.420 . S
U926 O946 2.455 . S
U926 O947 2.449 . S
O927 U926 2.454 1_545 S
O927 C929 1.353 . S
O928 U926 2.458 1_545 S
O928 C929 1.286 . S
C929 U926 2.984 1_545 S
C929 O927 1.353 . S
C929 O928 1.286 . S
C929 C931 1.363 . S
C930 C920 1.465 . S
C930 U926 2.847 . S
C930 O944 1.249 . S
C930 O945 1.202 . S
C931 C929 1.363 . S
C931 C933 1.408 . S
C931 C936 1.342 . S
C932 C933 1.310 . S
C932 C935 1.461 . S
C932 H952 0.932 . S
C933 C931 1.408 . S
C933 C932 1.310 . S
C933 H953 0.930 . S
C934 C935 1.474 . S
C934 C936 1.285 . S
C934 H954 0.929 . S
C935 C932 1.461 . S
C935 C934 1.474 . S
C936 C931 1.342 . S
C936 C934 1.285 . S
C936 H955 0.930 . S
C937 C940 1.424 . S
C937 C942 1.245 . S
C937 C943 1.428 . S
C938 C941 1.260 . S
C938 C942 1.477 . S
C938 H956 0.932 . S
C939 C940 1.384 . S
C939 C941 1.479 . S
C939 H957 0.929 . S
C940 C937 1.424 . S
C940 C939 1.384 . S
C940 H958 0.928 . S
C941 C938 1.260 . S
C941 C939 1.479 . S
C942 C937 1.245 . S
C942 C938 1.477 . S
C942 H959 0.932 . S
C943 U926 2.882 . S
C943 C937 1.428 . S
C943 O946 1.301 . S
C943 O947 1.282 . S
O944 U926 2.441 . S
O944 C930 1.249 . S
O945 U926 2.420 . S
O945 C930 1.202 . S
O946 U926 2.455 . S
O946 C943 1.301 . S
O947 U926 2.449 . S
O947 C943 1.282 . S
H948 C921 0.931 . S
H949 C923 0.929 . S
H950 C924 0.930 . S
H951 C925 0.931 . S
H952 C932 0.932 . S
H953 C933 0.930 . S
H954 C934 0.929 . S
H955 C936 0.930 . S
H956 C938 0.932 . S
H957 C939 0.929 . S
H958 C940 0.928 . S
H959 C942 0.932 . S
C960 C961 1.264 . S
C960 C965 1.479 . S
C960 C970 1.465 . S
C961 C960 1.264 . S
C961 C963 1.339 . S
C961 H988 0.931 . S
C962 C963 1.395 . S
C962 C964 1.320 . S
C963 C961 1.339 . S
C963 C962 1.395 . S
C963 H989 0.929 . S
C964 C962 1.320 . S
C964 C965 1.405 . S
C964 H990 0.930 . S
C965 C960 1.479 . S
C965 C964 1.405 . S
C965 H991 0.931 . S
U966 O967 2.454 1_565 S
U966 O968 2.458 1_565 S
U966 C969 2.984 1_565 S
U966 C970 2.847 . S
U966 C983 2.882 . S
U966 O984 2.441 . S
U966 O985 2.420 . S
U966 O986 2.455 . S
U966 O987 2.449 . S
O967 U966 2.454 1_545 S
O967 C969 1.353 . S
O968 U966 2.458 1_545 S
O968 C969 1.286 . S
C969 U966 2.984 1_545 S
C969 O967 1.353 . S
C969 O968 1.286 . S
C969 C971 1.363 . S
C970 C960 1.465 . S
C970 U966 2.847 . S
C970 O984 1.249 . S
C970 O985 1.202 . S
C971 C969 1.363 . S
C971 C973 1.408 . S
C971 C976 1.342 . S
C972 C973 1.310 . S
C972 C975 1.461 . S
C972 H992 0.932 . S
C973 C971 1.408 . S
C973 C972 1.310 . S
C973 H993 0.930 . S
C974 C975 1.474 . S
C974 C976 1.285 . S
C974 H994 0.929 . S
C975 C972 1.461 . S
C975 C974 1.474 . S
C976 C971 1.342 . S
C976 C974 1.285 . S
C976 H995 0.930 . S
C977 C980 1.424 . S
C977 C982 1.245 . S
C977 C983 1.428 . S
C978 C981 1.260 . S
C978 C982 1.477 . S
C978 H996 0.932 . S
C979 C980 1.384 . S
C979 C981 1.479 . S
C979 H997 0.929 . S
C980 C977 1.424 . S
C980 C979 1.384 . S
C980 H998 0.928 . S
C981 C978 1.260 . S
C981 C979 1.479 . S
C982 C977 1.245 . S
C982 C978 1.477 . S
C982 H999 0.932 . S
C983 U966 2.882 . S
C983 C977 1.428 . S
C983 O986 1.301 . S
C983 O987 1.282 . S
O984 U966 2.441 . S
O984 C970 1.249 . S
O985 U966 2.420 . S
O985 C970 1.202 . S
O986 U966 2.455 . S
O986 C983 1.301 . S
O987 U966 2.449 . S
O987 C983 1.282 . S
H988 C961 0.931 . S
H989 C963 0.929 . S
H990 C964 0.930 . S
H991 C965 0.931 . S
H992 C972 0.932 . S
H993 C973 0.930 . S
H994 C974 0.929 . S
H995 C976 0.930 . S
H996 C978 0.932 . S
H997 C979 0.929 . S
H998 C980 0.928 . S
H999 C982 0.932 . S
C1000 C1001 1.264 . S
C1000 C1005 1.479 . S
C1000 C1010 1.465 . S
C1001 C1000 1.264 . S
C1001 C1003 1.339 . S
C1001 H1028 0.931 . S
C1002 C1003 1.395 . S
C1002 C1004 1.320 . S
C1003 C1001 1.339 . S
C1003 C1002 1.395 . S
C1003 H1029 0.929 . S
C1004 C1002 1.320 . S
C1004 C1005 1.405 . S
C1004 H1030 0.930 . S
C1005 C1000 1.479 . S
C1005 C1004 1.405 . S
C1005 H1031 0.931 . S
U1006 O1007 2.454 . S
U1006 O1008 2.458 . S
U1006 C1009 2.984 . S
U1006 C1010 2.847 1_545 S
U1006 C1023 2.882 . S
U1006 O1024 2.441 1_545 S
U1006 O1025 2.420 1_545 S
U1006 O1026 2.455 . S
U1006 O1027 2.449 . S
O1007 U1006 2.454 . S
O1007 C1009 1.353 . S
O1008 U1006 2.458 . S
O1008 C1009 1.286 . S
C1009 U1006 2.984 . S
C1009 O1007 1.353 . S
C1009 O1008 1.286 . S
C1009 C1011 1.363 . S
C1010 C1000 1.465 . S
C1010 U1006 2.847 1_565 S
C1010 O1024 1.249 . S
C1010 O1025 1.202 . S
C1011 C1009 1.363 . S
C1011 C1013 1.408 . S
C1011 C1016 1.342 . S
C1012 C1013 1.310 . S
C1012 C1015 1.461 . S
C1012 H1032 0.932 . S
C1013 C1011 1.408 . S
C1013 C1012 1.310 . S
C1013 H1033 0.930 . S
C1014 C1015 1.474 . S
C1014 C1016 1.285 . S
C1014 H1034 0.929 . S
C1015 C1012 1.461 . S
C1015 C1014 1.474 . S
C1016 C1011 1.342 . S
C1016 C1014 1.285 . S
C1016 H1035 0.930 . S
C1017 C1020 1.424 . S
C1017 C1022 1.245 . S
C1017 C1023 1.428 . S
C1018 C1021 1.260 . S
C1018 C1022 1.477 . S
C1018 H1036 0.932 . S
C1019 C1020 1.384 . S
C1019 C1021 1.479 . S
C1019 H1037 0.929 . S
C1020 C1017 1.424 . S
C1020 C1019 1.384 . S
C1020 H1038 0.928 . S
C1021 C1018 1.260 . S
C1021 C1019 1.479 . S
C1022 C1017 1.245 . S
C1022 C1018 1.477 . S
C1022 H1039 0.932 . S
C1023 U1006 2.882 . S
C1023 C1017 1.428 . S
C1023 O1026 1.301 . S
C1023 O1027 1.282 . S
O1024 U1006 2.441 1_565 S
O1024 C1010 1.249 . S
O1025 U1006 2.420 1_565 S
O1025 C1010 1.202 . S
O1026 U1006 2.455 . S
O1026 C1023 1.301 . S
O1027 U1006 2.449 . S
O1027 C1023 1.282 . S
H1028 C1001 0.931 . S
H1029 C1003 0.929 . S
H1030 C1004 0.930 . S
H1031 C1005 0.931 . S
H1032 C1012 0.932 . S
H1033 C1013 0.930 . S
H1034 C1014 0.929 . S
H1035 C1016 0.930 . S
H1036 C1018 0.932 . S
H1037 C1019 0.929 . S
H1038 C1020 0.928 . S
H1039 C1022 0.932 . S
C1040 C1041 1.264 . S
C1040 C1045 1.479 . S
C1040 C1050 1.465 . S
C1041 C1040 1.264 . S
C1041 C1043 1.339 . S
C1041 H1068 0.931 . S
C1042 C1043 1.395 . S
C1042 C1044 1.320 . S
C1043 C1041 1.339 . S
C1043 C1042 1.395 . S
C1043 H1069 0.929 . S
C1044 C1042 1.320 . S
C1044 C1045 1.405 . S
C1044 H1070 0.930 . S
C1045 C1040 1.479 . S
C1045 C1044 1.405 . S
C1045 H1071 0.931 . S
U1046 O1047 2.454 . S
U1046 O1048 2.458 . S
U1046 C1049 2.984 . S
U1046 C1050 2.847 1_545 S
U1046 C1063 2.882 . S
U1046 O1064 2.441 1_545 S
U1046 O1065 2.420 1_545 S
U1046 O1066 2.455 . S
U1046 O1067 2.449 . S
O1047 U1046 2.454 . S
O1047 C1049 1.353 . S
O1048 U1046 2.458 . S
O1048 C1049 1.286 . S
C1049 U1046 2.984 . S
C1049 O1047 1.353 . S
C1049 O1048 1.286 . S
C1049 C1051 1.363 . S
C1050 C1040 1.465 . S
C1050 U1046 2.847 1_565 S
C1050 O1064 1.249 . S
C1050 O1065 1.202 . S
C1051 C1049 1.363 . S
C1051 C1053 1.408 . S
C1051 C1056 1.342 . S
C1052 C1053 1.310 . S
C1052 C1055 1.461 . S
C1052 H1072 0.932 . S
C1053 C1051 1.408 . S
C1053 C1052 1.310 . S
C1053 H1073 0.930 . S
C1054 C1055 1.474 . S
C1054 C1056 1.285 . S
C1054 H1074 0.929 . S
C1055 C1052 1.461 . S
C1055 C1054 1.474 . S
C1056 C1051 1.342 . S
C1056 C1054 1.285 . S
C1056 H1075 0.930 . S
C1057 C1060 1.424 . S
C1057 C1062 1.245 . S
C1057 C1063 1.428 . S
C1058 C1061 1.260 . S
C1058 C1062 1.477 . S
C1058 H1076 0.932 . S
C1059 C1060 1.384 . S
C1059 C1061 1.479 . S
C1059 H1077 0.929 . S
C1060 C1057 1.424 . S
C1060 C1059 1.384 . S
C1060 H1078 0.928 . S
C1061 C1058 1.260 . S
C1061 C1059 1.479 . S
C1062 C1057 1.245 . S
C1062 C1058 1.477 . S
C1062 H1079 0.932 . S
C1063 U1046 2.882 . S
C1063 C1057 1.428 . S
C1063 O1066 1.301 . S
C1063 O1067 1.282 . S
O1064 U1046 2.441 1_565 S
O1064 C1050 1.249 . S
O1065 U1046 2.420 1_565 S
O1065 C1050 1.202 . S
O1066 U1046 2.455 . S
O1066 C1063 1.301 . S
O1067 U1046 2.449 . S
O1067 C1063 1.282 . S
H1068 C1041 0.931 . S
H1069 C1043 0.929 . S
H1070 C1044 0.930 . S
H1071 C1045 0.931 . S
H1072 C1052 0.932 . S
H1073 C1053 0.930 . S
H1074 C1054 0.929 . S
H1075 C1056 0.930 . S
H1076 C1058 0.932 . S
H1077 C1059 0.929 . S
H1078 C1060 0.928 . S
H1079 C1062 0.932 . S
C1080 C1081 1.264 . S
C1080 C1085 1.479 . S
C1080 C1090 1.465 . S
C1081 C1080 1.264 . S
C1081 C1083 1.339 . S
C1081 H1108 0.931 . S
C1082 C1083 1.395 . S
C1082 C1084 1.320 . S
C1083 C1081 1.339 . S
C1083 C1082 1.395 . S
C1083 H1109 0.929 . S
C1084 C1082 1.320 . S
C1084 C1085 1.405 . S
C1084 H1110 0.930 . S
C1085 C1080 1.479 . S
C1085 C1084 1.405 . S
C1085 H1111 0.931 . S
U1086 O1087 2.454 1_556 S
U1086 O1088 2.458 1_556 S
U1086 C1089 2.984 1_556 S
U1086 C1090 2.847 . S
U1086 C1103 2.882 . S
U1086 O1104 2.441 . S
U1086 O1105 2.420 . S
U1086 O1106 2.455 . S
U1086 O1107 2.449 . S
O1087 U1086 2.454 1_554 S
O1087 C1089 1.353 . S
O1088 U1086 2.458 1_554 S
O1088 C1089 1.286 . S
C1089 U1086 2.984 1_554 S
C1089 O1087 1.353 . S
C1089 O1088 1.286 . S
C1089 C1091 1.363 . S
C1090 C1080 1.465 . S
C1090 U1086 2.847 . S
C1090 O1104 1.249 . S
C1090 O1105 1.202 . S
C1091 C1089 1.363 . S
C1091 C1093 1.408 . S
C1091 C1096 1.342 . S
C1092 C1093 1.310 . S
C1092 C1095 1.461 . S
C1092 H1112 0.932 . S
C1093 C1091 1.408 . S
C1093 C1092 1.310 . S
C1093 H1113 0.930 . S
C1094 C1095 1.474 . S
C1094 C1096 1.285 . S
C1094 H1114 0.929 . S
C1095 C1092 1.461 . S
C1095 C1094 1.474 . S
C1096 C1091 1.342 . S
C1096 C1094 1.285 . S
C1096 H1115 0.930 . S
C1097 C1100 1.424 . S
C1097 C1102 1.245 . S
C1097 C1103 1.428 . S
C1098 C1101 1.260 . S
C1098 C1102 1.477 . S
C1098 H1116 0.932 . S
C1099 C1100 1.384 . S
C1099 C1101 1.479 . S
C1099 H1117 0.929 . S
C1100 C1097 1.424 . S
C1100 C1099 1.384 . S
C1100 H1118 0.928 . S
C1101 C1098 1.260 . S
C1101 C1099 1.479 . S
C1102 C1097 1.245 . S
C1102 C1098 1.477 . S
C1102 H1119 0.932 . S
C1103 U1086 2.882 . S
C1103 C1097 1.428 . S
C1103 O1106 1.301 . S
C1103 O1107 1.282 . S
O1104 U1086 2.441 . S
O1104 C1090 1.249 . S
O1105 U1086 2.420 . S
O1105 C1090 1.202 . S
O1106 U1086 2.455 . S
O1106 C1103 1.301 . S
O1107 U1086 2.449 . S
O1107 C1103 1.282 . S
H1108 C1081 0.931 . S
H1109 C1083 0.929 . S
H1110 C1084 0.930 . S
H1111 C1085 0.931 . S
H1112 C1092 0.932 . S
H1113 C1093 0.930 . S
H1114 C1094 0.929 . S
H1115 C1096 0.930 . S
H1116 C1098 0.932 . S
H1117 C1099 0.929 . S
H1118 C1100 0.928 . S
H1119 C1102 0.932 . S
C1120 C1121 1.264 . S
C1120 C1125 1.479 . S
C1120 C1130 1.465 . S
C1121 C1120 1.264 . S
C1121 C1123 1.339 . S
C1121 H1148 0.931 . S
C1122 C1123 1.395 . S
C1122 C1124 1.320 . S
C1123 C1121 1.339 . S
C1123 C1122 1.395 . S
C1123 H1149 0.929 . S
C1124 C1122 1.320 . S
C1124 C1125 1.405 . S
C1124 H1150 0.930 . S
C1125 C1120 1.479 . S
C1125 C1124 1.405 . S
C1125 H1151 0.931 . S
U1126 O1127 2.454 . S
U1126 O1128 2.458 . S
U1126 C1129 2.984 . S
U1126 C1130 2.847 1_455 S
U1126 C1143 2.882 . S
U1126 O1144 2.441 1_455 S
U1126 O1145 2.420 1_455 S
U1126 O1146 2.455 . S
U1126 O1147 2.449 . S
O1127 U1126 2.454 . S
O1127 C1129 1.353 . S
O1128 U1126 2.458 . S
O1128 C1129 1.286 . S
C1129 U1126 2.984 . S
C1129 O1127 1.353 . S
C1129 O1128 1.286 . S
C1129 C1131 1.363 . S
C1130 C1120 1.465 . S
C1130 U1126 2.847 1_655 S
C1130 O1144 1.249 . S
C1130 O1145 1.202 . S
C1131 C1129 1.363 . S
C1131 C1133 1.408 . S
C1131 C1136 1.342 . S
C1132 C1133 1.310 . S
C1132 C1135 1.461 . S
C1132 H1152 0.932 . S
C1133 C1131 1.408 . S
C1133 C1132 1.310 . S
C1133 H1153 0.930 . S
C1134 C1135 1.474 . S
C1134 C1136 1.285 . S
C1134 H1154 0.929 . S
C1135 C1132 1.461 . S
C1135 C1134 1.474 . S
C1136 C1131 1.342 . S
C1136 C1134 1.285 . S
C1136 H1155 0.930 . S
C1137 C1140 1.424 . S
C1137 C1142 1.245 . S
C1137 C1143 1.428 . S
C1138 C1141 1.260 . S
C1138 C1142 1.477 . S
C1138 H1156 0.932 . S
C1139 C1140 1.384 . S
C1139 C1141 1.479 . S
C1139 H1157 0.929 . S
C1140 C1137 1.424 . S
C1140 C1139 1.384 . S
C1140 H1158 0.928 . S
C1141 C1138 1.260 . S
C1141 C1139 1.479 . S
C1142 C1137 1.245 . S
C1142 C1138 1.477 . S
C1142 H1159 0.932 . S
C1143 U1126 2.882 . S
C1143 C1137 1.428 . S
C1143 O1146 1.301 . S
C1143 O1147 1.282 . S
O1144 U1126 2.441 1_655 S
O1144 C1130 1.249 . S
O1145 U1126 2.420 1_655 S
O1145 C1130 1.202 . S
O1146 U1126 2.455 . S
O1146 C1143 1.301 . S
O1147 U1126 2.449 . S
O1147 C1143 1.282 . S
H1148 C1121 0.931 . S
H1149 C1123 0.929 . S
H1150 C1124 0.930 . S
H1151 C1125 0.931 . S
H1152 C1132 0.932 . S
H1153 C1133 0.930 . S
H1154 C1134 0.929 . S
H1155 C1136 0.930 . S
H1156 C1138 0.932 . S
H1157 C1139 0.929 . S
H1158 C1140 0.928 . S
H1159 C1142 0.932 . S
C1160 C1161 1.264 . S
C1160 C1165 1.479 . S
C1160 C1170 1.465 . S
C1161 C1160 1.264 . S
C1161 C1163 1.339 . S
C1161 H1188 0.931 . S
C1162 C1163 1.395 . S
C1162 C1164 1.320 . S
C1163 C1161 1.339 . S
C1163 C1162 1.395 . S
C1163 H1189 0.929 . S
C1164 C1162 1.320 . S
C1164 C1165 1.405 . S
C1164 H1190 0.930 . S
C1165 C1160 1.479 . S
C1165 C1164 1.405 . S
C1165 H1191 0.931 . S
U1166 O1167 2.454 . S
U1166 O1168 2.458 . S
U1166 C1169 2.984 . S
U1166 C1170 2.847 . S
U1166 C1183 2.882 . S
U1166 O1184 2.441 . S
U1166 O1185 2.420 . S
U1166 O1186 2.455 . S
U1166 O1187 2.449 . S
O1167 U1166 2.454 . S
O1167 C1169 1.353 . S
O1168 U1166 2.458 . S
O1168 C1169 1.286 . S
C1169 U1166 2.984 . S
C1169 O1167 1.353 . S
C1169 O1168 1.286 . S
C1169 C1171 1.363 . S
C1170 C1160 1.465 . S
C1170 U1166 2.847 . S
C1170 O1184 1.249 . S
C1170 O1185 1.202 . S
C1171 C1169 1.363 . S
C1171 C1173 1.408 . S
C1171 C1176 1.342 . S
C1172 C1173 1.310 . S
C1172 C1175 1.461 . S
C1172 H1192 0.932 . S
C1173 C1171 1.408 . S
C1173 C1172 1.310 . S
C1173 H1193 0.930 . S
C1174 C1175 1.474 . S
C1174 C1176 1.285 . S
C1174 H1194 0.929 . S
C1175 C1172 1.461 . S
C1175 C1174 1.474 . S
C1176 C1171 1.342 . S
C1176 C1174 1.285 . S
C1176 H1195 0.930 . S
C1177 C1180 1.424 . S
C1177 C1182 1.245 . S
C1177 C1183 1.428 . S
C1178 C1181 1.260 . S
C1178 C1182 1.477 . S
C1178 H1196 0.932 . S
C1179 C1180 1.384 . S
C1179 C1181 1.479 . S
C1179 H1197 0.929 . S
C1180 C1177 1.424 . S
C1180 C1179 1.384 . S
C1180 H1198 0.928 . S
C1181 C1178 1.260 . S
C1181 C1179 1.479 . S
C1182 C1177 1.245 . S
C1182 C1178 1.477 . S
C1182 H1199 0.932 . S
C1183 U1166 2.882 . S
C1183 C1177 1.428 . S
C1183 O1186 1.301 . S
C1183 O1187 1.282 . S
O1184 U1166 2.441 . S
O1184 C1170 1.249 . S
O1185 U1166 2.420 . S
O1185 C1170 1.202 . S
O1186 U1166 2.455 . S
O1186 C1183 1.301 . S
O1187 U1166 2.449 . S
O1187 C1183 1.282 . S
H1188 C1161 0.931 . S
H1189 C1163 0.929 . S
H1190 C1164 0.930 . S
H1191 C1165 0.931 . S
H1192 C1172 0.932 . S
H1193 C1173 0.930 . S
H1194 C1174 0.929 . S
H1195 C1176 0.930 . S
H1196 C1178 0.932 . S
H1197 C1179 0.929 . S
H1198 C1180 0.928 . S
H1199 C1182 0.932 . S
C1200 C1201 1.264 . S
C1200 C1205 1.479 . S
C1200 C1210 1.465 . S
C1201 C1200 1.264 . S
C1201 C1203 1.339 . S
C1201 H1228 0.931 . S
C1202 C1203 1.395 . S
C1202 C1204 1.320 . S
C1203 C1201 1.339 . S
C1203 C1202 1.395 . S
C1203 H1229 0.929 . S
C1204 C1202 1.320 . S
C1204 C1205 1.405 . S
C1204 H1230 0.930 . S
C1205 C1200 1.479 . S
C1205 C1204 1.405 . S
C1205 H1231 0.931 . S
U1206 O1207 2.454 . S
U1206 O1208 2.458 . S
U1206 C1209 2.984 . S
U1206 C1210 2.847 . S
U1206 C1223 2.882 . S
U1206 O1224 2.441 . S
U1206 O1225 2.420 . S
U1206 O1226 2.455 . S
U1206 O1227 2.449 . S
O1207 U1206 2.454 . S
O1207 C1209 1.353 . S
O1208 U1206 2.458 . S
O1208 C1209 1.286 . S
C1209 U1206 2.984 . S
C1209 O1207 1.353 . S
C1209 O1208 1.286 . S
C1209 C1211 1.363 . S
C1210 C1200 1.465 . S
C1210 U1206 2.847 . S
C1210 O1224 1.249 . S
C1210 O1225 1.202 . S
C1211 C1209 1.363 . S
C1211 C1213 1.408 . S
C1211 C1216 1.342 . S
C1212 C1213 1.310 . S
C1212 C1215 1.461 . S
C1212 H1232 0.932 . S
C1213 C1211 1.408 . S
C1213 C1212 1.310 . S
C1213 H1233 0.930 . S
C1214 C1215 1.474 . S
C1214 C1216 1.285 . S
C1214 H1234 0.929 . S
C1215 C1212 1.461 . S
C1215 C1214 1.474 . S
C1216 C1211 1.342 . S
C1216 C1214 1.285 . S
C1216 H1235 0.930 . S
C1217 C1220 1.424 . S
C1217 C1222 1.245 . S
C1217 C1223 1.428 . S
C1218 C1221 1.260 . S
C1218 C1222 1.477 . S
C1218 H1236 0.932 . S
C1219 C1220 1.384 . S
C1219 C1221 1.479 . S
C1219 H1237 0.929 . S
C1220 C1217 1.424 . S
C1220 C1219 1.384 . S
C1220 H1238 0.928 . S
C1221 C1218 1.260 . S
C1221 C1219 1.479 . S
C1222 C1217 1.245 . S
C1222 C1218 1.477 . S
C1222 H1239 0.932 . S
C1223 U1206 2.882 . S
C1223 C1217 1.428 . S
C1223 O1226 1.301 . S
C1223 O1227 1.282 . S
O1224 U1206 2.441 . S
O1224 C1210 1.249 . S
O1225 U1206 2.420 . S
O1225 C1210 1.202 . S
O1226 U1206 2.455 . S
O1226 C1223 1.301 . S
O1227 U1206 2.449 . S
O1227 C1223 1.282 . S
H1228 C1201 0.931 . S
H1229 C1203 0.929 . S
H1230 C1204 0.930 . S
H1231 C1205 0.931 . S
H1232 C1212 0.932 . S
H1233 C1213 0.930 . S
H1234 C1214 0.929 . S
H1235 C1216 0.930 . S
H1236 C1218 0.932 . S
H1237 C1219 0.929 . S
H1238 C1220 0.928 . S
H1239 C1222 0.932 . S
C1240 C1241 1.264 . S
C1240 C1245 1.479 . S
C1240 C1250 1.465 . S
C1241 C1240 1.264 . S
C1241 C1243 1.339 . S
C1241 H1268 0.931 . S
C1242 C1243 1.395 . S
C1242 C1244 1.320 . S
C1243 C1241 1.339 . S
C1243 C1242 1.395 . S
C1243 H1269 0.929 . S
C1244 C1242 1.320 . S
C1244 C1245 1.405 . S
C1244 H1270 0.930 . S
C1245 C1240 1.479 . S
C1245 C1244 1.405 . S
C1245 H1271 0.931 . S
U1246 O1247 2.454 1_655 S
U1246 O1248 2.458 . S
U1246 C1249 2.984 1_655 S
U1246 C1250 2.847 . S
U1246 C1263 2.882 . S
U1246 O1264 2.441 . S
U1246 O1265 2.420 . S
U1246 O1266 2.455 . S
U1246 O1267 2.449 . S
O1247 U1246 2.454 1_455 S
O1247 C1249 1.353 . S
O1248 U1246 2.458 . S
O1248 C1249 1.286 1_655 S
C1249 U1246 2.984 1_455 S
C1249 O1247 1.353 . S
C1249 O1248 1.286 1_455 S
C1249 C1251 1.363 . S
C1250 C1240 1.465 . S
C1250 U1246 2.847 . S
C1250 O1264 1.249 . S
C1250 O1265 1.202 . S
C1251 C1249 1.363 . S
C1251 C1253 1.408 . S
C1251 C1256 1.342 . S
C1252 C1253 1.310 . S
C1252 C1255 1.461 . S
C1252 H1272 0.932 . S
C1253 C1251 1.408 . S
C1253 C1252 1.310 . S
C1253 H1273 0.930 . S
C1254 C1255 1.474 . S
C1254 C1256 1.285 . S
C1254 H1274 0.929 . S
C1255 C1252 1.461 . S
C1255 C1254 1.474 . S
C1256 C1251 1.342 . S
C1256 C1254 1.285 . S
C1256 H1275 0.930 . S
C1257 C1260 1.424 . S
C1257 C1262 1.245 . S
C1257 C1263 1.428 . S
C1258 C1261 1.260 . S
C1258 C1262 1.477 . S
C1258 H1276 0.932 . S
C1259 C1260 1.384 . S
C1259 C1261 1.479 . S
C1259 H1277 0.929 . S
C1260 C1257 1.424 . S
C1260 C1259 1.384 . S
C1260 H1278 0.928 . S
C1261 C1258 1.260 . S
C1261 C1259 1.479 . S
C1262 C1257 1.245 . S
C1262 C1258 1.477 . S
C1262 H1279 0.932 . S
C1263 U1246 2.882 . S
C1263 C1257 1.428 . S
C1263 O1266 1.301 . S
C1263 O1267 1.282 . S
O1264 U1246 2.441 . S
O1264 C1250 1.249 . S
O1265 U1246 2.420 . S
O1265 C1250 1.202 . S
O1266 U1246 2.455 . S
O1266 C1263 1.301 . S
O1267 U1246 2.449 . S
O1267 C1263 1.282 . S
H1268 C1241 0.931 . S
H1269 C1243 0.929 . S
H1270 C1244 0.930 . S
H1271 C1245 0.931 . S
H1272 C1252 0.932 . S
H1273 C1253 0.930 . S
H1274 C1254 0.929 . S
H1275 C1256 0.930 . S
H1276 C1258 0.932 . S
H1277 C1259 0.929 . S
H1278 C1260 0.928 . S
H1279 C1262 0.932 . S
C1280 C1281 1.264 . S
C1280 C1285 1.479 . S
C1280 C1290 1.465 . S
C1281 C1280 1.264 . S
C1281 C1283 1.339 . S
C1281 H1308 0.931 . S
C1282 C1283 1.395 . S
C1282 C1284 1.320 . S
C1283 C1281 1.339 . S
C1283 C1282 1.395 . S
C1283 H1309 0.929 . S
C1284 C1282 1.320 . S
C1284 C1285 1.405 . S
C1284 H1310 0.930 . S
C1285 C1280 1.479 . S
C1285 C1284 1.405 . S
C1285 H1311 0.931 . S
U1286 O1287 2.454 . S
U1286 O1288 2.458 . S
U1286 C1289 2.984 . S
U1286 C1290 2.847 . S
U1286 C1303 2.882 . S
U1286 O1304 2.441 . S
U1286 O1305 2.420 . S
U1286 O1306 2.455 . S
U1286 O1307 2.449 . S
O1287 U1286 2.454 . S
O1287 C1289 1.353 . S
O1288 U1286 2.458 . S
O1288 C1289 1.286 . S
C1289 U1286 2.984 . S
C1289 O1287 1.353 . S
C1289 O1288 1.286 . S
C1289 C1291 1.363 . S
C1290 C1280 1.465 . S
C1290 U1286 2.847 . S
C1290 O1304 1.249 . S
C1290 O1305 1.202 . S
C1291 C1289 1.363 . S
C1291 C1293 1.408 . S
C1291 C1296 1.342 . S
C1292 C1293 1.310 . S
C1292 C1295 1.461 . S
C1292 H1312 0.932 . S
C1293 C1291 1.408 . S
C1293 C1292 1.310 . S
C1293 H1313 0.930 . S
C1294 C1295 1.474 . S
C1294 C1296 1.285 . S
C1294 H1314 0.929 . S
C1295 C1292 1.461 . S
C1295 C1294 1.474 . S
C1296 C1291 1.342 . S
C1296 C1294 1.285 . S
C1296 H1315 0.930 . S
C1297 C1300 1.424 . S
C1297 C1302 1.245 . S
C1297 C1303 1.428 . S
C1298 C1301 1.260 . S
C1298 C1302 1.477 . S
C1298 H1316 0.932 . S
C1299 C1300 1.384 . S
C1299 C1301 1.479 . S
C1299 H1317 0.929 . S
C1300 C1297 1.424 . S
C1300 C1299 1.384 . S
C1300 H1318 0.928 . S
C1301 C1298 1.260 . S
C1301 C1299 1.479 . S
C1302 C1297 1.245 . S
C1302 C1298 1.477 . S
C1302 H1319 0.932 . S
C1303 U1286 2.882 . S
C1303 C1297 1.428 . S
C1303 O1306 1.301 . S
C1303 O1307 1.282 . S
O1304 U1286 2.441 . S
O1304 C1290 1.249 . S
O1305 U1286 2.420 . S
O1305 C1290 1.202 . S
O1306 U1286 2.455 . S
O1306 C1303 1.301 . S
O1307 U1286 2.449 . S
O1307 C1303 1.282 . S
H1308 C1281 0.931 . S
H1309 C1283 0.929 . S
H1310 C1284 0.930 . S
H1311 C1285 0.931 . S
H1312 C1292 0.932 . S
H1313 C1293 0.930 . S
H1314 C1294 0.929 . S
H1315 C1296 0.930 . S
H1316 C1298 0.932 . S
H1317 C1299 0.929 . S
H1318 C1300 0.928 . S
H1319 C1302 0.932 . S
C1320 C1321 1.264 . S
C1320 C1325 1.479 . S
C1320 C1330 1.465 . S
C1321 C1320 1.264 . S
C1321 C1323 1.339 . S
C1321 H1348 0.931 . S
C1322 C1323 1.395 . S
C1322 C1324 1.320 . S
C1323 C1321 1.339 . S
C1323 C1322 1.395 . S
C1323 H1349 0.929 . S
C1324 C1322 1.320 . S
C1324 C1325 1.405 . S
C1324 H1350 0.930 . S
C1325 C1320 1.479 . S
C1325 C1324 1.405 . S
C1325 H1351 0.941 . S
U1326 O1327 2.454 1_556 S
U1326 O1328 2.460 . S
U1326 C1329 2.984 1_556 S
U1326 C1330 2.847 . S
U1326 C1343 2.882 . S
U1326 O1344 2.441 . S
U1326 O1345 2.420 . S
U1326 O1346 2.455 . S
U1326 O1347 2.449 . S
O1327 U1326 2.454 1_554 S
O1327 C1329 1.353 . S
O1328 U1326 2.460 . S
O1328 C1329 1.282 1_556 S
C1329 U1326 2.984 1_554 S
C1329 O1327 1.353 . S
C1329 O1328 1.282 1_554 S
C1329 C1331 1.363 . S
C1330 C1320 1.465 . S
C1330 U1326 2.847 . S
C1330 O1344 1.249 . S
C1330 O1345 1.202 . S
C1331 C1329 1.363 . S
C1331 C1333 1.408 . S
C1331 C1336 1.342 . S
C1332 C1333 1.310 . S
C1332 C1335 1.461 . S
C1332 H1352 0.932 . S
C1333 C1331 1.408 . S
C1333 C1332 1.310 . S
C1333 H1353 0.930 . S
C1334 C1335 1.474 . S
C1334 C1336 1.285 . S
C1334 H1354 0.929 . S
C1335 C1332 1.461 . S
C1335 C1334 1.474 . S
C1336 C1331 1.342 . S
C1336 C1334 1.285 . S
C1336 H1355 0.930 . S
C1337 C1340 1.424 . S
C1337 C1342 1.245 . S
C1337 C1343 1.428 . S
C1338 C1341 1.260 . S
C1338 C1342 1.477 . S
C1338 H1356 0.932 . S
C1339 C1340 1.384 . S
C1339 C1341 1.479 . S
C1339 H1357 0.929 . S
C1340 C1337 1.424 . S
C1340 C1339 1.384 . S
C1340 H1358 0.928 . S
C1341 C1338 1.260 . S
C1341 C1339 1.479 . S
C1342 C1337 1.245 . S
C1342 C1338 1.477 . S
C1342 H1359 0.932 . S
C1343 U1326 2.882 . S
C1343 C1337 1.428 . S
C1343 O1346 1.301 . S
C1343 O1347 1.282 . S
O1344 U1326 2.441 . S
O1344 C1330 1.249 . S
O1345 U1326 2.420 . S
O1345 C1330 1.202 . S
O1346 U1326 2.455 . S
O1346 C1343 1.301 . S
O1347 U1326 2.449 . S
O1347 C1343 1.282 . S
H1348 C1321 0.931 . S
H1349 C1323 0.929 . S
H1350 C1324 0.930 . S
H1351 C1325 0.941 . S
H1352 C1332 0.932 . S
H1353 C1333 0.930 . S
H1354 C1334 0.929 . S
H1355 C1336 0.930 . S
H1356 C1338 0.932 . S
H1357 C1339 0.929 . S
H1358 C1340 0.928 . S
H1359 C1342 0.932 . S
C1360 C1361 1.264 . S
C1360 C1365 1.479 . S
C1360 C1370 1.465 . S
C1361 C1360 1.264 . S
C1361 C1363 1.339 . S
C1361 H1388 0.931 . S
C1362 C1363 1.395 . S
C1362 C1364 1.320 . S
C1363 C1361 1.339 . S
C1363 C1362 1.395 . S
C1363 H1389 0.929 . S
C1364 C1362 1.320 . S
C1364 C1365 1.405 . S
C1364 H1390 0.930 . S
C1365 C1360 1.479 . S
C1365 C1364 1.405 . S
C1365 H1391 0.931 . S
U1366 O1367 2.454 . S
U1366 O1368 2.458 . S
U1366 C1369 2.984 . S
U1366 C1370 2.847 . S
U1366 C1383 2.882 . S
U1366 O1384 2.441 . S
U1366 O1385 2.420 . S
U1366 O1386 2.455 . S
U1366 O1387 2.449 . S
O1367 U1366 2.454 . S
O1367 C1369 1.353 . S
O1368 U1366 2.458 . S
O1368 C1369 1.286 . S
C1369 U1366 2.984 . S
C1369 O1367 1.353 . S
C1369 O1368 1.286 . S
C1369 C1371 1.363 . S
C1370 C1360 1.465 . S
C1370 U1366 2.847 . S
C1370 O1384 1.249 . S
C1370 O1385 1.202 . S
C1371 C1369 1.363 . S
C1371 C1373 1.408 . S
C1371 C1376 1.342 . S
C1372 C1373 1.310 . S
C1372 C1375 1.461 . S
C1372 H1392 0.932 . S
C1373 C1371 1.408 . S
C1373 C1372 1.310 . S
C1373 H1393 0.930 . S
C1374 C1375 1.474 . S
C1374 C1376 1.285 . S
C1374 H1394 0.929 . S
C1375 C1372 1.461 . S
C1375 C1374 1.474 . S
C1376 C1371 1.342 . S
C1376 C1374 1.285 . S
C1376 H1395 0.930 . S
C1377 C1380 1.424 . S
C1377 C1382 1.245 . S
C1377 C1383 1.428 . S
C1378 C1381 1.260 . S
C1378 C1382 1.477 . S
C1378 H1396 0.932 . S
C1379 C1380 1.384 . S
C1379 C1381 1.479 . S
C1379 H1397 0.929 . S
C1380 C1377 1.424 . S
C1380 C1379 1.384 . S
C1380 H1398 0.928 . S
C1381 C1378 1.260 . S
C1381 C1379 1.479 . S
C1382 C1377 1.245 . S
C1382 C1378 1.477 . S
C1382 H1399 0.932 . S
C1383 U1366 2.882 . S
C1383 C1377 1.428 . S
C1383 O1386 1.301 . S
C1383 O1387 1.282 . S
O1384 U1366 2.441 . S
O1384 C1370 1.249 . S
O1385 U1366 2.420 . S
O1385 C1370 1.202 . S
O1386 U1366 2.455 . S
O1386 C1383 1.301 . S
O1387 U1366 2.449 . S
O1387 C1383 1.282 . S
H1388 C1361 0.931 . S
H1389 C1363 0.929 . S
H1390 C1364 0.930 . S
H1391 C1365 0.931 . S
H1392 C1372 0.932 . S
H1393 C1373 0.930 . S
H1394 C1374 0.929 . S
H1395 C1376 0.930 . S
H1396 C1378 0.932 . S
H1397 C1379 0.929 . S
H1398 C1380 0.928 . S
H1399 C1382 0.932 . S
C1400 C1401 1.264 . S
C1400 C1405 1.479 . S
C1400 C1410 1.465 . S
C1401 C1400 1.264 . S
C1401 C1403 1.339 . S
C1401 H1428 0.931 . S
C1402 C1403 1.395 . S
C1402 C1404 1.320 . S
C1403 C1401 1.339 . S
C1403 C1402 1.395 . S
C1403 H1429 0.929 . S
C1404 C1402 1.320 . S
C1404 C1405 1.405 . S
C1404 H1430 0.930 . S
C1405 C1400 1.479 . S
C1405 C1404 1.405 . S
C1405 H1431 0.931 . S
U1406 O1407 2.454 . S
U1406 O1408 2.458 . S
U1406 C1409 2.984 . S
U1406 C1410 2.847 . S
U1406 C1423 2.882 . S
U1406 O1424 2.441 . S
U1406 O1425 2.420 . S
U1406 O1426 2.455 . S
U1406 O1427 2.449 . S
O1407 U1406 2.454 . S
O1407 C1409 1.353 . S
O1408 U1406 2.458 . S
O1408 C1409 1.286 . S
C1409 U1406 2.984 . S
C1409 O1407 1.353 . S
C1409 O1408 1.286 . S
C1409 C1411 1.363 . S
C1410 C1400 1.465 . S
C1410 U1406 2.847 . S
C1410 O1424 1.249 . S
C1410 O1425 1.202 . S
C1411 C1409 1.363 . S
C1411 C1413 1.408 . S
C1411 C1416 1.342 . S
C1412 C1413 1.310 . S
C1412 C1415 1.461 . S
C1412 H1432 0.932 . S
C1413 C1411 1.408 . S
C1413 C1412 1.310 . S
C1413 H1433 0.930 . S
C1414 C1415 1.474 . S
C1414 C1416 1.285 . S
C1414 H1434 0.929 . S
C1415 C1412 1.461 . S
C1415 C1414 1.474 . S
C1416 C1411 1.342 . S
C1416 C1414 1.285 . S
C1416 H1435 0.930 . S
C1417 C1420 1.424 . S
C1417 C1422 1.245 . S
C1417 C1423 1.428 . S
C1418 C1421 1.260 . S
C1418 C1422 1.477 . S
C1418 H1436 0.932 . S
C1419 C1420 1.384 . S
C1419 C1421 1.479 . S
C1419 H1437 0.929 . S
C1420 C1417 1.424 . S
C1420 C1419 1.384 . S
C1420 H1438 0.928 . S
C1421 C1418 1.260 . S
C1421 C1419 1.479 . S
C1422 C1417 1.245 . S
C1422 C1418 1.477 . S
C1422 H1439 0.932 . S
C1423 U1406 2.882 . S
C1423 C1417 1.428 . S
C1423 O1426 1.301 . S
C1423 O1427 1.282 . S
O1424 U1406 2.441 . S
O1424 C1410 1.249 . S
O1425 U1406 2.420 . S
O1425 C1410 1.202 . S
O1426 U1406 2.455 . S
O1426 C1423 1.301 . S
O1427 U1406 2.449 . S
O1427 C1423 1.282 . S
H1428 C1401 0.931 . S
H1429 C1403 0.929 . S
H1430 C1404 0.930 . S
H1431 C1405 0.931 . S
H1432 C1412 0.932 . S
H1433 C1413 0.930 . S
H1434 C1414 0.929 . S
H1435 C1416 0.930 . S
H1436 C1418 0.932 . S
H1437 C1419 0.929 . S
H1438 C1420 0.928 . S
H1439 C1422 0.932 . S
C1440 C1441 1.264 . S
C1440 C1445 1.479 . S
C1440 C1450 1.465 . S
C1441 C1440 1.264 . S
C1441 C1443 1.339 . S
C1441 H1468 0.931 . S
C1442 C1443 1.395 . S
C1442 C1444 1.320 . S
C1443 C1441 1.339 . S
C1443 C1442 1.395 . S
C1443 H1469 0.929 . S
C1444 C1442 1.320 . S
C1444 C1445 1.405 . S
C1444 H1470 0.930 . S
C1445 C1440 1.479 . S
C1445 C1444 1.405 . S
C1445 H1471 0.931 . S
U1446 O1447 2.454 . S
U1446 O1448 2.458 . S
U1446 C1449 2.984 . S
U1446 C1450 2.847 . S
U1446 C1463 2.882 . S
U1446 O1464 2.441 . S
U1446 O1465 2.420 . S
U1446 O1466 2.455 . S
U1446 O1467 2.449 . S
O1447 U1446 2.454 . S
O1447 C1449 1.353 . S
O1448 U1446 2.458 . S
O1448 C1449 1.286 . S
C1449 U1446 2.984 . S
C1449 O1447 1.353 . S
C1449 O1448 1.286 . S
C1449 C1451 1.363 . S
C1450 C1440 1.465 . S
C1450 U1446 2.847 . S
C1450 O1464 1.249 . S
C1450 O1465 1.202 . S
C1451 C1449 1.363 . S
C1451 C1453 1.408 . S
C1451 C1456 1.342 . S
C1452 C1453 1.310 . S
C1452 C1455 1.461 . S
C1452 H1472 0.932 . S
C1453 C1451 1.408 . S
C1453 C1452 1.310 . S
C1453 H1473 0.930 . S
C1454 C1455 1.474 . S
C1454 C1456 1.285 . S
C1454 H1474 0.929 . S
C1455 C1452 1.461 . S
C1455 C1454 1.474 . S
C1456 C1451 1.342 . S
C1456 C1454 1.285 . S
C1456 H1475 0.930 . S
C1457 C1460 1.424 . S
C1457 C1462 1.245 . S
C1457 C1463 1.428 . S
C1458 C1461 1.260 . S
C1458 C1462 1.477 . S
C1458 H1476 0.932 . S
C1459 C1460 1.384 . S
C1459 C1461 1.479 . S
C1459 H1477 0.929 . S
C1460 C1457 1.424 . S
C1460 C1459 1.384 . S
C1460 H1478 0.928 . S
C1461 C1458 1.260 . S
C1461 C1459 1.479 . S
C1462 C1457 1.245 . S
C1462 C1458 1.477 . S
C1462 H1479 0.932 . S
C1463 U1446 2.882 . S
C1463 C1457 1.428 . S
C1463 O1466 1.301 . S
C1463 O1467 1.282 . S
O1464 U1446 2.441 . S
O1464 C1450 1.249 . S
O1465 U1446 2.420 . S
O1465 C1450 1.202 . S
O1466 U1446 2.455 . S
O1466 C1463 1.301 . S
O1467 U1446 2.449 . S
O1467 C1463 1.282 . S
H1468 C1441 0.931 . S
H1469 C1443 0.929 . S
H1470 C1444 0.930 . S
H1471 C1445 0.931 . S
H1472 C1452 0.932 . S
H1473 C1453 0.930 . S
H1474 C1454 0.929 . S
H1475 C1456 0.930 . S
H1476 C1458 0.932 . S
H1477 C1459 0.929 . S
H1478 C1460 0.928 . S
H1479 C1462 0.932 . S
C1480 C1481 1.264 . S
C1480 C1485 1.479 . S
C1480 C1490 1.465 . S
C1481 C1480 1.264 . S
C1481 C1483 1.339 . S
C1481 H1508 0.931 . S
C1482 C1483 1.395 . S
C1482 C1484 1.320 . S
C1483 C1481 1.339 . S
C1483 C1482 1.395 . S
C1483 H1509 0.929 . S
C1484 C1482 1.320 . S
C1484 C1485 1.405 . S
C1484 H1510 0.930 . S
C1485 C1480 1.479 . S
C1485 C1484 1.405 . S
C1485 H1511 0.931 . S
U1486 O1487 2.454 . S
U1486 O1488 2.458 . S
U1486 C1489 2.984 . S
U1486 C1490 2.847 . S
U1486 C1503 2.882 . S
U1486 O1504 2.441 . S
U1486 O1505 2.420 . S
U1486 O1506 2.455 . S
U1486 O1507 2.449 . S
O1487 U1486 2.454 . S
O1487 C1489 1.353 . S
O1488 U1486 2.458 . S
O1488 C1489 1.286 . S
C1489 U1486 2.984 . S
C1489 O1487 1.353 . S
C1489 O1488 1.286 . S
C1489 C1491 1.363 . S
C1490 C1480 1.465 . S
C1490 U1486 2.847 . S
C1490 O1504 1.249 . S
C1490 O1505 1.202 . S
C1491 C1489 1.363 . S
C1491 C1493 1.408 . S
C1491 C1496 1.342 . S
C1492 C1493 1.310 . S
C1492 C1495 1.461 . S
C1492 H1512 0.932 . S
C1493 C1491 1.408 . S
C1493 C1492 1.310 . S
C1493 H1513 0.930 . S
C1494 C1495 1.474 . S
C1494 C1496 1.285 . S
C1494 H1514 0.929 . S
C1495 C1492 1.461 . S
C1495 C1494 1.474 . S
C1496 C1491 1.342 . S
C1496 C1494 1.285 . S
C1496 H1515 0.930 . S
C1497 C1500 1.424 . S
C1497 C1502 1.245 . S
C1497 C1503 1.428 . S
C1498 C1501 1.260 . S
C1498 C1502 1.477 . S
C1498 H1516 0.932 . S
C1499 C1500 1.384 . S
C1499 C1501 1.479 . S
C1499 H1517 0.929 . S
C1500 C1497 1.424 . S
C1500 C1499 1.384 . S
C1500 H1518 0.928 . S
C1501 C1498 1.260 . S
C1501 C1499 1.479 . S
C1502 C1497 1.245 . S
C1502 C1498 1.477 . S
C1502 H1519 0.932 . S
C1503 U1486 2.882 . S
C1503 C1497 1.428 . S
C1503 O1506 1.301 . S
C1503 O1507 1.282 . S
O1504 U1486 2.441 . S
O1504 C1490 1.249 . S
O1505 U1486 2.420 . S
O1505 C1490 1.202 . S
O1506 U1486 2.455 . S
O1506 C1503 1.301 . S
O1507 U1486 2.449 . S
O1507 C1503 1.282 . S
H1508 C1481 0.931 . S
H1509 C1483 0.929 . S
H1510 C1484 0.930 . S
H1511 C1485 0.931 . S
H1512 C1492 0.932 . S
H1513 C1493 0.930 . S
H1514 C1494 0.929 . S
H1515 C1496 0.930 . S
H1516 C1498 0.932 . S
H1517 C1499 0.929 . S
H1518 C1500 0.928 . S
H1519 C1502 0.932 . S
C1520 C1521 1.264 . S
C1520 C1525 1.479 . S
C1520 C1530 1.465 . S
C1521 C1520 1.264 . S
C1521 C1523 1.339 . S
C1521 H1548 0.931 . S
C1522 C1523 1.395 . S
C1522 C1524 1.320 . S
C1523 C1521 1.339 . S
C1523 C1522 1.395 . S
C1523 H1549 0.929 . S
C1524 C1522 1.320 . S
C1524 C1525 1.405 . S
C1524 H1550 0.930 . S
C1525 C1520 1.479 . S
C1525 C1524 1.405 . S
C1525 H1551 0.931 . S
U1526 O1527 2.454 . S
U1526 O1528 2.458 . S
U1526 C1529 2.984 . S
U1526 C1530 2.847 . S
U1526 C1543 2.882 . S
U1526 O1544 2.441 . S
U1526 O1545 2.420 . S
U1526 O1546 2.455 . S
U1526 O1547 2.449 . S
O1527 U1526 2.454 . S
O1527 C1529 1.353 . S
O1528 U1526 2.458 . S
O1528 C1529 1.286 . S
C1529 U1526 2.984 . S
C1529 O1527 1.353 . S
C1529 O1528 1.286 . S
C1529 C1531 1.363 . S
C1530 C1520 1.465 . S
C1530 U1526 2.847 . S
C1530 O1544 1.249 . S
C1530 O1545 1.202 . S
C1531 C1529 1.363 . S
C1531 C1533 1.408 . S
C1531 C1536 1.342 . S
C1532 C1533 1.310 . S
C1532 C1535 1.461 . S
C1532 H1552 0.932 . S
C1533 C1531 1.408 . S
C1533 C1532 1.310 . S
C1533 H1553 0.930 . S
C1534 C1535 1.474 . S
C1534 C1536 1.285 . S
C1534 H1554 0.929 . S
C1535 C1532 1.461 . S
C1535 C1534 1.474 . S
C1536 C1531 1.342 . S
C1536 C1534 1.285 . S
C1536 H1555 0.930 . S
C1537 C1540 1.424 . S
C1537 C1542 1.245 . S
C1537 C1543 1.428 . S
C1538 C1541 1.260 . S
C1538 C1542 1.477 . S
C1538 H1556 0.932 . S
C1539 C1540 1.384 . S
C1539 C1541 1.479 . S
C1539 H1557 0.929 . S
C1540 C1537 1.424 . S
C1540 C1539 1.384 . S
C1540 H1558 0.928 . S
C1541 C1538 1.260 . S
C1541 C1539 1.479 . S
C1542 C1537 1.245 . S
C1542 C1538 1.477 . S
C1542 H1559 0.932 . S
C1543 U1526 2.882 . S
C1543 C1537 1.428 . S
C1543 O1546 1.301 . S
C1543 O1547 1.282 . S
O1544 U1526 2.441 . S
O1544 C1530 1.249 . S
O1545 U1526 2.420 . S
O1545 C1530 1.202 . S
O1546 U1526 2.455 . S
O1546 C1543 1.301 . S
O1547 U1526 2.449 . S
O1547 C1543 1.282 . S
H1548 C1521 0.931 . S
H1549 C1523 0.929 . S
H1550 C1524 0.930 . S
H1551 C1525 0.931 . S
H1552 C1532 0.932 . S
H1553 C1533 0.930 . S
H1554 C1534 0.929 . S
H1555 C1536 0.930 . S
H1556 C1538 0.932 . S
H1557 C1539 0.929 . S
H1558 C1540 0.928 . S
H1559 C1542 0.932 . S
C1560 C1561 1.264 . S
C1560 C1565 1.479 . S
C1560 C1570 1.465 . S
C1561 C1560 1.264 . S
C1561 C1563 1.339 . S
C1561 H1588 0.931 . S
C1562 C1563 1.395 . S
C1562 C1564 1.320 . S
C1563 C1561 1.339 . S
C1563 C1562 1.395 . S
C1563 H1589 0.929 . S
C1564 C1562 1.320 . S
C1564 C1565 1.405 . S
C1564 H1590 0.930 . S
C1565 C1560 1.479 . S
C1565 C1564 1.405 . S
C1565 H1591 0.931 . S
U1566 O1567 2.454 . S
U1566 O1568 2.458 . S
U1566 C1569 2.984 . S
U1566 C1570 2.847 . S
U1566 C1583 2.882 . S
U1566 O1584 2.441 . S
U1566 O1585 2.420 . S
U1566 O1586 2.455 . S
U1566 O1587 2.449 . S
O1567 U1566 2.454 . S
O1567 C1569 1.353 . S
O1568 U1566 2.458 . S
O1568 C1569 1.286 . S
C1569 U1566 2.984 . S
C1569 O1567 1.353 . S
C1569 O1568 1.286 . S
C1569 C1571 1.363 . S
C1570 C1560 1.465 . S
C1570 U1566 2.847 . S
C1570 O1584 1.249 . S
C1570 O1585 1.202 . S
C1571 C1569 1.363 . S
C1571 C1573 1.408 . S
C1571 C1576 1.342 . S
C1572 C1573 1.310 . S
C1572 C1575 1.461 . S
C1572 H1592 0.932 . S
C1573 C1571 1.408 . S
C1573 C1572 1.310 . S
C1573 H1593 0.930 . S
C1574 C1575 1.474 . S
C1574 C1576 1.285 . S
C1574 H1594 0.929 . S
C1575 C1572 1.461 . S
C1575 C1574 1.474 . S
C1576 C1571 1.342 . S
C1576 C1574 1.285 . S
C1576 H1595 0.930 . S
C1577 C1580 1.424 . S
C1577 C1582 1.245 . S
C1577 C1583 1.428 . S
C1578 C1581 1.260 . S
C1578 C1582 1.477 . S
C1578 H1596 0.932 . S
C1579 C1580 1.384 . S
C1579 C1581 1.479 . S
C1579 H1597 0.929 . S
C1580 C1577 1.424 . S
C1580 C1579 1.384 . S
C1580 H1598 0.928 . S
C1581 C1578 1.260 . S
C1581 C1579 1.479 . S
C1582 C1577 1.245 . S
C1582 C1578 1.477 . S
C1582 H1599 0.932 . S
C1583 U1566 2.882 . S
C1583 C1577 1.428 . S
C1583 O1586 1.301 . S
C1583 O1587 1.282 . S
O1584 U1566 2.441 . S
O1584 C1570 1.249 . S
O1585 U1566 2.420 . S
O1585 C1570 1.202 . S
O1586 U1566 2.455 . S
O1586 C1583 1.301 . S
O1587 U1566 2.449 . S
O1587 C1583 1.282 . S
H1588 C1561 0.931 . S
H1589 C1563 0.929 . S
H1590 C1564 0.930 . S
H1591 C1565 0.931 . S
H1592 C1572 0.932 . S
H1593 C1573 0.930 . S
H1594 C1574 0.929 . S
H1595 C1576 0.930 . S
H1596 C1578 0.932 . S
H1597 C1579 0.929 . S
H1598 C1580 0.928 . S
H1599 C1582 0.932 . S
C1600 C1601 1.264 . S
C1600 C1605 1.479 . S
C1600 C1610 1.465 . S
C1601 C1600 1.264 . S
C1601 C1603 1.339 . S
C1601 H1628 0.931 . S
C1602 C1603 1.395 . S
C1602 C1604 1.320 . S
C1603 C1601 1.339 . S
C1603 C1602 1.395 . S
C1603 H1629 0.929 . S
C1604 C1602 1.320 . S
C1604 C1605 1.405 . S
C1604 H1630 0.930 . S
C1605 C1600 1.479 . S
C1605 C1604 1.405 . S
C1605 H1631 0.931 . S
U1606 O1607 2.454 . S
U1606 O1608 2.458 . S
U1606 C1609 2.984 . S
U1606 C1610 2.847 1_455 S
U1606 C1623 2.882 . S
U1606 O1624 2.441 1_455 S
U1606 O1625 2.420 1_455 S
U1606 O1626 2.455 . S
U1606 O1627 2.449 . S
O1607 U1606 2.454 . S
O1607 C1609 1.353 . S
O1608 U1606 2.458 . S
O1608 C1609 1.286 . S
C1609 U1606 2.984 . S
C1609 O1607 1.353 . S
C1609 O1608 1.286 . S
C1609 C1611 1.363 . S
C1610 C1600 1.465 . S
C1610 U1606 2.847 1_655 S
C1610 O1624 1.249 . S
C1610 O1625 1.202 . S
C1611 C1609 1.363 . S
C1611 C1613 1.408 . S
C1611 C1616 1.342 . S
C1612 C1613 1.310 . S
C1612 C1615 1.461 . S
C1612 H1632 0.932 . S
C1613 C1611 1.408 . S
C1613 C1612 1.310 . S
C1613 H1633 0.930 . S
C1614 C1615 1.474 . S
C1614 C1616 1.285 . S
C1614 H1634 0.929 . S
C1615 C1612 1.461 . S
C1615 C1614 1.474 . S
C1616 C1611 1.342 . S
C1616 C1614 1.285 . S
C1616 H1635 0.930 . S
C1617 C1620 1.424 . S
C1617 C1622 1.245 . S
C1617 C1623 1.428 . S
C1618 C1621 1.260 . S
C1618 C1622 1.477 . S
C1618 H1636 0.932 . S
C1619 C1620 1.384 . S
C1619 C1621 1.479 . S
C1619 H1637 0.929 . S
C1620 C1617 1.424 . S
C1620 C1619 1.384 . S
C1620 H1638 0.928 . S
C1621 C1618 1.260 . S
C1621 C1619 1.479 . S
C1622 C1617 1.245 . S
C1622 C1618 1.477 . S
C1622 H1639 0.932 . S
C1623 U1606 2.882 . S
C1623 C1617 1.428 . S
C1623 O1626 1.301 . S
C1623 O1627 1.282 . S
O1624 U1606 2.441 1_655 S
O1624 C1610 1.249 . S
O1625 U1606 2.420 1_655 S
O1625 C1610 1.202 . S
O1626 U1606 2.455 . S
O1626 C1623 1.301 . S
O1627 U1606 2.449 . S
O1627 C1623 1.282 . S
H1628 C1601 0.931 . S
H1629 C1603 0.929 . S
H1630 C1604 0.930 . S
H1631 C1605 0.931 . S
H1632 C1612 0.932 . S
H1633 C1613 0.930 . S
H1634 C1614 0.929 . S
H1635 C1616 0.930 . S
H1636 C1618 0.932 . S
H1637 C1619 0.929 . S
H1638 C1620 0.928 . S
H1639 C1622 0.932 . S
C1640 C1641 1.264 . S
C1640 C1645 1.479 . S
C1640 C1650 1.465 . S
C1641 C1640 1.264 . S
C1641 C1643 1.339 . S
C1641 H1668 0.931 . S
C1642 C1643 1.395 . S
C1642 C1644 1.320 . S
C1643 C1641 1.339 . S
C1643 C1642 1.395 . S
C1643 H1669 0.929 . S
C1644 C1642 1.320 . S
C1644 C1645 1.405 . S
C1644 H1670 0.930 . S
C1645 C1640 1.479 . S
C1645 C1644 1.405 . S
C1645 H1671 0.931 . S
U1646 O1647 2.454 . S
U1646 O1648 2.458 . S
U1646 C1649 2.984 . S
U1646 C1650 2.847 . S
U1646 C1663 2.882 . S
U1646 O1664 2.441 . S
U1646 O1665 2.420 . S
U1646 O1666 2.455 . S
U1646 O1667 2.449 . S
O1647 U1646 2.454 . S
O1647 C1649 1.353 . S
O1648 U1646 2.458 . S
O1648 C1649 1.286 . S
C1649 U1646 2.984 . S
C1649 O1647 1.353 . S
C1649 O1648 1.286 . S
C1649 C1651 1.363 . S
C1650 C1640 1.465 . S
C1650 U1646 2.847 . S
C1650 O1664 1.249 . S
C1650 O1665 1.202 . S
C1651 C1649 1.363 . S
C1651 C1653 1.408 . S
C1651 C1656 1.342 . S
C1652 C1653 1.310 . S
C1652 C1655 1.461 . S
C1652 H1672 0.932 . S
C1653 C1651 1.408 . S
C1653 C1652 1.310 . S
C1653 H1673 0.930 . S
C1654 C1655 1.474 . S
C1654 C1656 1.285 . S
C1654 H1674 0.929 . S
C1655 C1652 1.461 . S
C1655 C1654 1.474 . S
C1656 C1651 1.342 . S
C1656 C1654 1.285 . S
C1656 H1675 0.930 . S
C1657 C1660 1.424 . S
C1657 C1662 1.245 . S
C1657 C1663 1.428 . S
C1658 C1661 1.260 . S
C1658 C1662 1.477 . S
C1658 H1676 0.932 . S
C1659 C1660 1.384 . S
C1659 C1661 1.479 . S
C1659 H1677 0.929 . S
C1660 C1657 1.424 . S
C1660 C1659 1.384 . S
C1660 H1678 0.928 . S
C1661 C1658 1.260 . S
C1661 C1659 1.479 . S
C1662 C1657 1.245 . S
C1662 C1658 1.477 . S
C1662 H1679 0.932 . S
C1663 U1646 2.882 . S
C1663 C1657 1.428 . S
C1663 O1666 1.301 . S
C1663 O1667 1.282 . S
O1664 U1646 2.441 . S
O1664 C1650 1.249 . S
O1665 U1646 2.420 . S
O1665 C1650 1.202 . S
O1666 U1646 2.455 . S
O1666 C1663 1.301 . S
O1667 U1646 2.449 . S
O1667 C1663 1.282 . S
H1668 C1641 0.931 . S
H1669 C1643 0.929 . S
H1670 C1644 0.930 . S
H1671 C1645 0.931 . S
H1672 C1652 0.932 . S
H1673 C1653 0.930 . S
H1674 C1654 0.929 . S
H1675 C1656 0.930 . S
H1676 C1658 0.932 . S
H1677 C1659 0.929 . S
H1678 C1660 0.928 . S
H1679 C1662 0.932 . S
C1680 C1681 1.264 . S
C1680 C1685 1.479 . S
C1680 C1690 1.465 . S
C1681 C1680 1.264 . S
C1681 C1683 1.339 . S
C1681 H1708 0.931 . S
C1682 C1683 1.395 . S
C1682 C1684 1.320 . S
C1683 C1681 1.339 . S
C1683 C1682 1.395 . S
C1683 H1709 0.929 . S
C1684 C1682 1.320 . S
C1684 C1685 1.405 . S
C1684 H1710 0.930 . S
C1685 C1680 1.479 . S
C1685 C1684 1.405 . S
C1685 H1711 0.931 . S
U1686 O1687 2.454 1_554 S
U1686 O1688 2.458 1_554 S
U1686 C1689 2.984 1_554 S
U1686 C1690 2.847 . S
U1686 C1703 2.882 . S
U1686 O1704 2.441 . S
U1686 O1705 2.420 . S
U1686 O1706 2.455 . S
U1686 O1707 2.449 . S
O1687 U1686 2.454 1_556 S
O1687 C1689 1.353 . S
O1688 U1686 2.458 1_556 S
O1688 C1689 1.286 . S
C1689 U1686 2.984 1_556 S
C1689 O1687 1.353 . S
C1689 O1688 1.286 . S
C1689 C1691 1.363 . S
C1690 C1680 1.465 . S
C1690 U1686 2.847 . S
C1690 O1704 1.249 . S
C1690 O1705 1.202 . S
C1691 C1689 1.363 . S
C1691 C1693 1.408 . S
C1691 C1696 1.342 . S
C1692 C1693 1.310 . S
C1692 C1695 1.461 . S
C1692 H1712 0.932 . S
C1693 C1691 1.408 . S
C1693 C1692 1.310 . S
C1693 H1713 0.930 . S
C1694 C1695 1.474 . S
C1694 C1696 1.285 . S
C1694 H1714 0.929 . S
C1695 C1692 1.461 . S
C1695 C1694 1.474 . S
C1696 C1691 1.342 . S
C1696 C1694 1.285 . S
C1696 H1715 0.930 . S
C1697 C1700 1.424 . S
C1697 C1702 1.245 . S
C1697 C1703 1.428 . S
C1698 C1701 1.260 . S
C1698 C1702 1.477 . S
C1698 H1716 0.932 . S
C1699 C1700 1.384 . S
C1699 C1701 1.479 . S
C1699 H1717 0.929 . S
C1700 C1697 1.424 . S
C1700 C1699 1.384 . S
C1700 H1718 0.928 . S
C1701 C1698 1.260 . S
C1701 C1699 1.479 . S
C1702 C1697 1.245 . S
C1702 C1698 1.477 . S
C1702 H1719 0.932 . S
C1703 U1686 2.882 . S
C1703 C1697 1.428 . S
C1703 O1706 1.301 . S
C1703 O1707 1.282 . S
O1704 U1686 2.441 . S
O1704 C1690 1.249 . S
O1705 U1686 2.420 . S
O1705 C1690 1.202 . S
O1706 U1686 2.455 . S
O1706 C1703 1.301 . S
O1707 U1686 2.449 . S
O1707 C1703 1.282 . S
H1708 C1681 0.931 . S
H1709 C1683 0.929 . S
H1710 C1684 0.930 . S
H1711 C1685 0.931 . S
H1712 C1692 0.932 . S
H1713 C1693 0.930 . S
H1714 C1694 0.929 . S
H1715 C1696 0.930 . S
H1716 C1698 0.932 . S
H1717 C1699 0.929 . S
H1718 C1700 0.928 . S
H1719 C1702 0.932 . S
C1720 C1721 1.264 . S
C1720 C1725 1.479 . S
C1720 C1730 1.465 . S
C1721 C1720 1.264 . S
C1721 C1723 1.339 . S
C1721 H1748 0.931 . S
C1722 C1723 1.395 . S
C1722 C1724 1.320 . S
C1723 C1721 1.339 . S
C1723 C1722 1.395 . S
C1723 H1749 0.929 . S
C1724 C1722 1.320 . S
C1724 C1725 1.405 . S
C1724 H1750 0.930 . S
C1725 C1720 1.479 . S
C1725 C1724 1.405 . S
C1725 H1751 0.931 . S
U1726 O1727 2.454 . S
U1726 O1728 2.458 . S
U1726 C1729 2.984 . S
U1726 C1730 2.847 . S
U1726 C1743 2.882 . S
U1726 O1744 2.441 . S
U1726 O1745 2.420 . S
U1726 O1746 2.455 . S
U1726 O1747 2.449 . S
O1727 U1726 2.454 . S
O1727 C1729 1.353 . S
O1728 U1726 2.458 . S
O1728 C1729 1.286 . S
C1729 U1726 2.984 . S
C1729 O1727 1.353 . S
C1729 O1728 1.286 . S
C1729 C1731 1.363 . S
C1730 C1720 1.465 . S
C1730 U1726 2.847 . S
C1730 O1744 1.249 . S
C1730 O1745 1.202 . S
C1731 C1729 1.363 . S
C1731 C1733 1.408 . S
C1731 C1736 1.342 . S
C1732 C1733 1.310 . S
C1732 C1735 1.461 . S
C1732 H1752 0.932 . S
C1733 C1731 1.408 . S
C1733 C1732 1.310 . S
C1733 H1753 0.930 . S
C1734 C1735 1.474 . S
C1734 C1736 1.285 . S
C1734 H1754 0.929 . S
C1735 C1732 1.461 . S
C1735 C1734 1.474 . S
C1736 C1731 1.342 . S
C1736 C1734 1.285 . S
C1736 H1755 0.930 . S
C1737 C1740 1.424 . S
C1737 C1742 1.245 . S
C1737 C1743 1.428 . S
C1738 C1741 1.260 . S
C1738 C1742 1.477 . S
C1738 H1756 0.932 . S
C1739 C1740 1.384 . S
C1739 C1741 1.479 . S
C1739 H1757 0.929 . S
C1740 C1737 1.424 . S
C1740 C1739 1.384 . S
C1740 H1758 0.928 . S
C1741 C1738 1.260 . S
C1741 C1739 1.479 . S
C1742 C1737 1.245 . S
C1742 C1738 1.477 . S
C1742 H1759 0.932 . S
C1743 U1726 2.882 . S
C1743 C1737 1.428 . S
C1743 O1746 1.301 . S
C1743 O1747 1.282 . S
O1744 U1726 2.441 . S
O1744 C1730 1.249 . S
O1745 U1726 2.420 . S
O1745 C1730 1.202 . S
O1746 U1726 2.455 . S
O1746 C1743 1.301 . S
O1747 U1726 2.449 . S
O1747 C1743 1.282 . S
H1748 C1721 0.931 . S
H1749 C1723 0.929 . S
H1750 C1724 0.930 . S
H1751 C1725 0.931 . S
H1752 C1732 0.932 . S
H1753 C1733 0.930 . S
H1754 C1734 0.929 . S
H1755 C1736 0.930 . S
H1756 C1738 0.932 . S
H1757 C1739 0.929 . S
H1758 C1740 0.928 . S
H1759 C1742 0.932 . S
C1760 C1761 1.264 . S
C1760 C1765 1.479 . S
C1760 C1770 1.465 . S
C1761 C1760 1.264 . S
C1761 C1763 1.339 . S
C1761 H1788 0.931 . S
C1762 C1763 1.395 . S
C1762 C1764 1.320 . S
C1763 C1761 1.339 . S
C1763 C1762 1.395 . S
C1763 H1789 0.929 . S
C1764 C1762 1.320 . S
C1764 C1765 1.405 . S
C1764 H1790 0.930 . S
C1765 C1760 1.479 . S
C1765 C1764 1.405 . S
C1765 H1791 0.931 . S
U1766 O1767 2.454 . S
U1766 O1768 2.458 . S
U1766 C1769 2.984 . S
U1766 C1770 2.847 . S
U1766 C1783 2.882 . S
U1766 O1784 2.441 . S
U1766 O1785 2.420 . S
U1766 O1786 2.455 . S
U1766 O1787 2.449 . S
O1767 U1766 2.454 . S
O1767 C1769 1.353 . S
O1768 U1766 2.458 . S
O1768 C1769 1.286 . S
C1769 U1766 2.984 . S
C1769 O1767 1.353 . S
C1769 O1768 1.286 . S
C1769 C1771 1.363 . S
C1770 C1760 1.465 . S
C1770 U1766 2.847 . S
C1770 O1784 1.249 . S
C1770 O1785 1.202 . S
C1771 C1769 1.363 . S
C1771 C1773 1.408 . S
C1771 C1776 1.342 . S
C1772 C1773 1.310 . S
C1772 C1775 1.461 . S
C1772 H1792 0.932 . S
C1773 C1771 1.408 . S
C1773 C1772 1.310 . S
C1773 H1793 0.930 . S
C1774 C1775 1.474 . S
C1774 C1776 1.285 . S
C1774 H1794 0.929 . S
C1775 C1772 1.461 . S
C1775 C1774 1.474 . S
C1776 C1771 1.342 . S
C1776 C1774 1.285 . S
C1776 H1795 0.930 . S
C1777 C1780 1.424 . S
C1777 C1782 1.245 . S
C1777 C1783 1.428 . S
C1778 C1781 1.260 . S
C1778 C1782 1.477 . S
C1778 H1796 0.932 . S
C1779 C1780 1.384 . S
C1779 C1781 1.479 . S
C1779 H1797 0.929 . S
C1780 C1777 1.424 . S
C1780 C1779 1.384 . S
C1780 H1798 0.928 . S
C1781 C1778 1.260 . S
C1781 C1779 1.479 . S
C1782 C1777 1.245 . S
C1782 C1778 1.477 . S
C1782 H1799 0.932 . S
C1783 U1766 2.882 . S
C1783 C1777 1.428 . S
C1783 O1786 1.301 . S
C1783 O1787 1.282 . S
O1784 U1766 2.441 . S
O1784 C1770 1.249 . S
O1785 U1766 2.420 . S
O1785 C1770 1.202 . S
O1786 U1766 2.455 . S
O1786 C1783 1.301 . S
O1787 U1766 2.449 . S
O1787 C1783 1.282 . S
H1788 C1761 0.931 . S
H1789 C1763 0.929 . S
H1790 C1764 0.930 . S
H1791 C1765 0.931 . S
H1792 C1772 0.932 . S
H1793 C1773 0.930 . S
H1794 C1774 0.929 . S
H1795 C1776 0.930 . S
H1796 C1778 0.932 . S
H1797 C1779 0.929 . S
H1798 C1780 0.928 . S
H1799 C1782 0.932 . S
C1800 C1801 1.264 . S
C1800 C1805 1.479 . S
C1800 C1810 1.465 . S
C1801 C1800 1.264 . S
C1801 C1803 1.339 . S
C1801 H1828 0.931 . S
C1802 C1803 1.395 . S
C1802 C1804 1.320 . S
C1803 C1801 1.339 . S
C1803 C1802 1.395 . S
C1803 H1829 0.929 . S
C1804 C1802 1.320 . S
C1804 C1805 1.405 . S
C1804 H1830 0.930 . S
C1805 C1800 1.479 . S
C1805 C1804 1.405 . S
C1805 H1831 0.931 . S
U1806 O1807 2.454 . S
U1806 O1808 2.458 . S
U1806 C1809 2.984 . S
U1806 C1810 2.847 . S
U1806 C1823 2.882 . S
U1806 O1824 2.441 . S
U1806 O1825 2.420 . S
U1806 O1826 2.455 . S
U1806 O1827 2.449 . S
O1807 U1806 2.454 . S
O1807 C1809 1.353 . S
O1808 U1806 2.458 . S
O1808 C1809 1.286 . S
C1809 U1806 2.984 . S
C1809 O1807 1.353 . S
C1809 O1808 1.286 . S
C1809 C1811 1.363 . S
C1810 C1800 1.465 . S
C1810 U1806 2.847 . S
C1810 O1824 1.249 . S
C1810 O1825 1.202 . S
C1811 C1809 1.363 . S
C1811 C1813 1.408 . S
C1811 C1816 1.342 . S
C1812 C1813 1.310 . S
C1812 C1815 1.461 . S
C1812 H1832 0.932 . S
C1813 C1811 1.408 . S
C1813 C1812 1.310 . S
C1813 H1833 0.930 . S
C1814 C1815 1.474 . S
C1814 C1816 1.285 . S
C1814 H1834 0.929 . S
C1815 C1812 1.461 . S
C1815 C1814 1.474 . S
C1816 C1811 1.342 . S
C1816 C1814 1.285 . S
C1816 H1835 0.930 . S
C1817 C1820 1.424 . S
C1817 C1822 1.245 . S
C1817 C1823 1.428 . S
C1818 C1821 1.260 . S
C1818 C1822 1.477 . S
C1818 H1836 0.932 . S
C1819 C1820 1.384 . S
C1819 C1821 1.479 . S
C1819 H1837 0.929 . S
C1820 C1817 1.424 . S
C1820 C1819 1.384 . S
C1820 H1838 0.928 . S
C1821 C1818 1.260 . S
C1821 C1819 1.479 . S
C1822 C1817 1.245 . S
C1822 C1818 1.477 . S
C1822 H1839 0.932 . S
C1823 U1806 2.882 . S
C1823 C1817 1.428 . S
C1823 O1826 1.301 . S
C1823 O1827 1.282 . S
O1824 U1806 2.441 . S
O1824 C1810 1.249 . S
O1825 U1806 2.420 . S
O1825 C1810 1.202 . S
O1826 U1806 2.455 . S
O1826 C1823 1.301 . S
O1827 U1806 2.449 . S
O1827 C1823 1.282 . S
H1828 C1801 0.931 . S
H1829 C1803 0.929 . S
H1830 C1804 0.930 . S
H1831 C1805 0.931 . S
H1832 C1812 0.932 . S
H1833 C1813 0.930 . S
H1834 C1814 0.929 . S
H1835 C1816 0.930 . S
H1836 C1818 0.932 . S
H1837 C1819 0.929 . S
H1838 C1820 0.928 . S
H1839 C1822 0.932 . S
C1840 C1841 1.264 . S
C1840 C1845 1.479 . S
C1840 C1850 1.465 . S
C1841 C1840 1.264 . S
C1841 C1843 1.339 . S
C1841 H1868 0.931 . S
C1842 C1843 1.395 . S
C1842 C1844 1.320 . S
C1843 C1841 1.339 . S
C1843 C1842 1.395 . S
C1843 H1869 0.929 . S
C1844 C1842 1.320 . S
C1844 C1845 1.405 . S
C1844 H1870 0.930 . S
C1845 C1840 1.479 . S
C1845 C1844 1.405 . S
C1845 H1871 0.931 . S
U1846 O1847 2.454 . S
U1846 O1848 2.458 . S
U1846 C1849 2.984 . S
U1846 C1850 2.847 . S
U1846 C1863 2.882 . S
U1846 O1864 2.441 . S
U1846 O1865 2.420 . S
U1846 O1866 2.455 . S
U1846 O1867 2.449 . S
O1847 U1846 2.454 . S
O1847 C1849 1.353 . S
O1848 U1846 2.458 . S
O1848 C1849 1.286 . S
C1849 U1846 2.984 . S
C1849 O1847 1.353 . S
C1849 O1848 1.286 . S
C1849 C1851 1.363 . S
C1850 C1840 1.465 . S
C1850 U1846 2.847 . S
C1850 O1864 1.249 . S
C1850 O1865 1.202 . S
C1851 C1849 1.363 . S
C1851 C1853 1.408 . S
C1851 C1856 1.342 . S
C1852 C1853 1.310 . S
C1852 C1855 1.461 . S
C1852 H1872 0.932 . S
C1853 C1851 1.408 . S
C1853 C1852 1.310 . S
C1853 H1873 0.930 . S
C1854 C1855 1.474 . S
C1854 C1856 1.285 . S
C1854 H1874 0.929 . S
C1855 C1852 1.461 . S
C1855 C1854 1.474 . S
C1856 C1851 1.342 . S
C1856 C1854 1.285 . S
C1856 H1875 0.930 . S
C1857 C1860 1.424 . S
C1857 C1862 1.245 . S
C1857 C1863 1.428 . S
C1858 C1861 1.260 . S
C1858 C1862 1.477 . S
C1858 H1876 0.932 . S
C1859 C1860 1.384 . S
C1859 C1861 1.479 . S
C1859 H1877 0.929 . S
C1860 C1857 1.424 . S
C1860 C1859 1.384 . S
C1860 H1878 0.928 . S
C1861 C1858 1.260 . S
C1861 C1859 1.479 . S
C1862 C1857 1.245 . S
C1862 C1858 1.477 . S
C1862 H1879 0.932 . S
C1863 U1846 2.882 . S
C1863 C1857 1.428 . S
C1863 O1866 1.301 . S
C1863 O1867 1.282 . S
O1864 U1846 2.441 . S
O1864 C1850 1.249 . S
O1865 U1846 2.420 . S
O1865 C1850 1.202 . S
O1866 U1846 2.455 . S
O1866 C1863 1.301 . S
O1867 U1846 2.449 . S
O1867 C1863 1.282 . S
H1868 C1841 0.931 . S
H1869 C1843 0.929 . S
H1870 C1844 0.930 . S
H1871 C1845 0.931 . S
H1872 C1852 0.932 . S
H1873 C1853 0.930 . S
H1874 C1854 0.929 . S
H1875 C1856 0.930 . S
H1876 C1858 0.932 . S
H1877 C1859 0.929 . S
H1878 C1860 0.928 . S
H1879 C1862 0.932 . S
C1880 C1881 1.264 . S
C1880 C1885 1.479 . S
C1880 C1890 1.465 . S
C1881 C1880 1.264 . S
C1881 C1883 1.339 . S
C1881 H1908 0.931 . S
C1882 C1883 1.395 . S
C1882 C1884 1.320 . S
C1883 C1881 1.339 . S
C1883 C1882 1.395 . S
C1883 H1909 0.929 . S
C1884 C1882 1.320 . S
C1884 C1885 1.405 . S
C1884 H1910 0.930 . S
C1885 C1880 1.479 . S
C1885 C1884 1.405 . S
C1885 H1911 0.931 . S
U1886 O1887 2.454 . S
U1886 O1888 2.458 . S
U1886 C1889 2.984 . S
U1886 C1890 2.847 . S
U1886 C1903 2.882 . S
U1886 O1904 2.441 . S
U1886 O1905 2.420 . S
U1886 O1906 2.455 . S
U1886 O1907 2.449 . S
O1887 U1886 2.454 . S
O1887 C1889 1.353 . S
O1888 U1886 2.458 . S
O1888 C1889 1.286 . S
C1889 U1886 2.984 . S
C1889 O1887 1.353 . S
C1889 O1888 1.286 . S
C1889 C1891 1.363 . S
C1890 C1880 1.465 . S
C1890 U1886 2.847 . S
C1890 O1904 1.249 . S
C1890 O1905 1.202 . S
C1891 C1889 1.363 . S
C1891 C1893 1.408 . S
C1891 C1896 1.342 . S
C1892 C1893 1.310 . S
C1892 C1895 1.461 . S
C1892 H1912 0.932 . S
C1893 C1891 1.408 . S
C1893 C1892 1.310 . S
C1893 H1913 0.930 . S
C1894 C1895 1.474 . S
C1894 C1896 1.285 . S
C1894 H1914 0.929 . S
C1895 C1892 1.461 . S
C1895 C1894 1.474 . S
C1896 C1891 1.342 . S
C1896 C1894 1.285 . S
C1896 H1915 0.930 . S
C1897 C1900 1.424 . S
C1897 C1902 1.245 . S
C1897 C1903 1.428 . S
C1898 C1901 1.260 . S
C1898 C1902 1.477 . S
C1898 H1916 0.932 . S
C1899 C1900 1.384 . S
C1899 C1901 1.479 . S
C1899 H1917 0.929 . S
C1900 C1897 1.424 . S
C1900 C1899 1.384 . S
C1900 H1918 0.928 . S
C1901 C1898 1.260 . S
C1901 C1899 1.479 . S
C1902 C1897 1.245 . S
C1902 C1898 1.477 . S
C1902 H1919 0.932 . S
C1903 U1886 2.882 . S
C1903 C1897 1.428 . S
C1903 O1906 1.301 . S
C1903 O1907 1.282 . S
O1904 U1886 2.441 . S
O1904 C1890 1.249 . S
O1905 U1886 2.420 . S
O1905 C1890 1.202 . S
O1906 U1886 2.455 . S
O1906 C1903 1.301 . S
O1907 U1886 2.449 . S
O1907 C1903 1.282 . S
H1908 C1881 0.931 . S
H1909 C1883 0.929 . S
H1910 C1884 0.930 . S
H1911 C1885 0.931 . S
H1912 C1892 0.932 . S
H1913 C1893 0.930 . S
H1914 C1894 0.929 . S
H1915 C1896 0.930 . S
H1916 C1898 0.932 . S
H1917 C1899 0.929 . S
H1918 C1900 0.928 . S
H1919 C1902 0.932 . S
H1920 C1923 0.931 . S
H1921 C1926 0.928 . S
H1922 C1928 0.930 . S
C1923 H1920 0.931 . S
C1923 C1924 1.413 . S
C1923 C1925 1.360 . S
C1924 C1923 1.413 . S
C1924 C1928 1.429 . S
C1925 C1923 1.360 . S
C1925 C1926 1.372 . S
C1926 H1921 0.928 . S
C1926 C1925 1.372 . S
C1926 C1927 1.404 . S
C1927 C1926 1.404 . S
C1927 C1928 1.391 . S
C1928 H1922 0.930 . S
C1928 C1924 1.429 . S
C1928 C1927 1.391 . S
H1929 C1932 0.931 . S
H1930 C1935 0.928 . S
H1931 C1937 0.930 . S
C1932 H1929 0.931 . S
C1932 C1933 1.413 . S
C1932 C1934 1.360 . S
C1933 C1932 1.413 . S
C1933 C1937 1.429 . S
C1934 C1932 1.360 . S
C1934 C1935 1.372 . S
C1935 H1930 0.928 . S
C1935 C1934 1.372 . S
C1935 C1936 1.404 . S
C1936 C1935 1.404 . S
C1936 C1937 1.391 . S
C1937 H1931 0.930 . S
C1937 C1933 1.429 . S
C1937 C1936 1.391 . S
H1938 C1941 0.931 . S
H1939 C1944 0.928 . S
H1940 C1946 0.930 . S
C1941 H1938 0.931 . S
C1941 C1942 1.413 . S
C1941 C1943 1.360 . S
C1942 C1941 1.413 . S
C1942 C1946 1.429 . S
C1943 C1941 1.360 . S
C1943 C1944 1.372 . S
C1944 H1939 0.928 . S
C1944 C1943 1.372 . S
C1944 C1945 1.404 . S
C1945 C1944 1.404 . S
C1945 C1946 1.391 . S
C1946 H1940 0.930 . S
C1946 C1942 1.429 . S
C1946 C1945 1.391 . S
H1947 C1950 0.931 . S
H1948 C1953 0.928 . S
H1949 C1955 0.930 . S
C1950 H1947 0.931 . S
C1950 C1951 1.413 . S
C1950 C1952 1.360 . S
C1951 C1950 1.413 . S
C1951 C1955 1.429 . S
C1952 C1950 1.360 . S
C1952 C1953 1.372 . S
C1953 H1948 0.928 . S
C1953 C1952 1.372 . S
C1953 C1954 1.404 . S
C1954 C1953 1.404 . S
C1954 C1955 1.391 . S
C1955 H1949 0.930 . S
C1955 C1951 1.429 . S
C1955 C1954 1.391 . S
H1956 C1959 0.931 . S
H1957 C1962 0.928 . S
H1958 C1964 0.930 . S
C1959 H1956 0.931 . S
C1959 C1960 1.413 . S
C1959 C1961 1.360 . S
C1960 C1959 1.413 . S
C1960 C1964 1.429 . S
C1961 C1959 1.360 . S
C1961 C1962 1.372 . S
C1962 H1957 0.928 . S
C1962 C1961 1.372 . S
C1962 C1963 1.404 . S
C1963 C1962 1.404 . S
C1963 C1964 1.391 . S
C1964 H1958 0.930 . S
C1964 C1960 1.429 . S
C1964 C1963 1.391 . S
H1965 C1968 0.931 . S
H1966 C1971 0.928 . S
H1967 C1973 0.930 . S
C1968 H1965 0.931 . S
C1968 C1969 1.413 . S
C1968 C1970 1.360 . S
C1969 C1968 1.413 . S
C1969 C1973 1.429 . S
C1970 C1968 1.360 . S
C1970 C1971 1.372 . S
C1971 H1966 0.928 . S
C1971 C1970 1.372 . S
C1971 C1972 1.404 . S
C1972 C1971 1.404 . S
C1972 C1973 1.391 . S
C1973 H1967 0.930 . S
C1973 C1969 1.429 . S
C1973 C1972 1.391 . S
H1974 C1977 0.931 . S
H1975 C1980 0.928 . S
H1976 C1982 0.930 . S
C1977 H1974 0.931 . S
C1977 C1978 1.413 . S
C1977 C1979 1.360 . S
C1978 C1977 1.413 . S
C1978 C1982 1.429 . S
C1979 C1977 1.360 . S
C1979 C1980 1.372 . S
C1980 H1975 0.928 . S
C1980 C1979 1.372 . S
C1980 C1981 1.404 . S
C1981 C1980 1.404 . S
C1981 C1982 1.391 . S
C1982 H1976 0.930 . S
C1982 C1978 1.429 . S
C1982 C1981 1.391 . S
H1983 C1986 0.931 . S
H1984 C1989 0.928 . S
H1985 C1991 0.930 . S
C1986 H1983 0.931 . S
C1986 C1987 1.413 . S
C1986 C1988 1.360 . S
C1987 C1986 1.413 . S
C1987 C1991 1.429 . S
C1988 C1986 1.360 . S
C1988 C1989 1.372 . S
C1989 H1984 0.928 . S
C1989 C1988 1.372 . S
C1989 C1990 1.404 . S
C1990 C1989 1.404 . S
C1990 C1991 1.391 . S
C1991 H1985 0.930 . S
C1991 C1987 1.429 . S
C1991 C1990 1.391 . S
H1992 C1995 0.931 . S
H1993 C1998 0.928 . S
H1994 C2000 0.930 . S
C1995 H1992 0.931 . S
C1995 C1996 1.413 . S
C1995 C1997 1.360 . S
C1996 C1995 1.413 . S
C1996 C2000 1.429 . S
C1997 C1995 1.360 . S
C1997 C1998 1.372 . S
C1998 H1993 0.928 . S
C1998 C1997 1.372 . S
C1998 C1999 1.404 . S
C1999 C1998 1.404 . S
C1999 C2000 1.391 . S
C2000 H1994 0.930 . S
C2000 C1996 1.429 . S
C2000 C1999 1.391 . S
H2001 C2004 0.931 . S
H2002 C2007 0.928 . S
H2003 C2009 0.930 . S
C2004 H2001 0.931 . S
C2004 C2005 1.413 . S
C2004 C2006 1.360 . S
C2005 C2004 1.413 . S
C2005 C2009 1.429 . S
C2006 C2004 1.360 . S
C2006 C2007 1.372 . S
C2007 H2002 0.928 . S
C2007 C2006 1.372 . S
C2007 C2008 1.404 . S
C2008 C2007 1.404 . S
C2008 C2009 1.391 . S
C2009 H2003 0.930 . S
C2009 C2005 1.429 . S
C2009 C2008 1.391 . S
H2010 C2013 0.931 . S
H2011 C2016 0.928 . S
H2012 C2018 0.930 . S
C2013 H2010 0.931 . S
C2013 C2014 1.413 . S
C2013 C2015 1.360 . S
C2014 C2013 1.413 . S
C2014 C2018 1.429 . S
C2015 C2013 1.360 . S
C2015 C2016 1.372 . S
C2016 H2011 0.928 . S
C2016 C2015 1.372 . S
C2016 C2017 1.404 . S
C2017 C2016 1.404 . S
C2017 C2018 1.391 . S
C2018 H2012 0.930 . S
C2018 C2014 1.429 . S
C2018 C2017 1.391 . S
H2019 C2022 0.931 . S
H2020 C2025 0.928 . S
H2021 C2027 0.930 . S
C2022 H2019 0.931 . S
C2022 C2023 1.413 . S
C2022 C2024 1.360 . S
C2023 C2022 1.413 . S
C2023 C2027 1.429 . S
C2024 C2022 1.360 . S
C2024 C2025 1.372 . S
C2025 H2020 0.928 . S
C2025 C2024 1.372 . S
C2025 C2026 1.404 . S
C2026 C2025 1.404 . S
C2026 C2027 1.391 . S
C2027 H2021 0.930 . S
C2027 C2023 1.429 . S
C2027 C2026 1.391 . S
H2028 C2031 0.931 . S
H2029 C2034 0.928 . S
H2030 C2036 0.930 . S
C2031 H2028 0.931 . S
C2031 C2032 1.413 . S
C2031 C2033 1.360 . S
C2032 C2031 1.413 . S
C2032 C2036 1.429 . S
C2033 C2031 1.360 . S
C2033 C2034 1.372 . S
C2034 H2029 0.928 . S
C2034 C2033 1.372 . S
C2034 C2035 1.404 . S
C2035 C2034 1.404 . S
C2035 C2036 1.391 . S
C2036 H2030 0.930 . S
C2036 C2032 1.429 . S
C2036 C2035 1.391 . S
H2037 C2040 0.931 . S
H2038 C2043 0.928 . S
H2039 C2045 0.930 . S
C2040 H2037 0.931 . S
C2040 C2041 1.413 . S
C2040 C2042 1.360 . S
C2041 C2040 1.413 . S
C2041 C2045 1.429 . S
C2042 C2040 1.360 . S
C2042 C2043 1.372 . S
C2043 H2038 0.928 . S
C2043 C2042 1.372 . S
C2043 C2044 1.404 . S
C2044 C2043 1.404 . S
C2044 C2045 1.391 . S
C2045 H2039 0.930 . S
C2045 C2041 1.429 . S
C2045 C2044 1.391 . S
H2046 C2049 0.931 . S
H2047 C2052 0.928 . S
H2048 C2054 0.930 . S
C2049 H2046 0.931 . S
C2049 C2050 1.413 . S
C2049 C2051 1.360 . S
C2050 C2049 1.413 . S
C2050 C2054 1.429 . S
C2051 C2049 1.360 . S
C2051 C2052 1.372 . S
C2052 H2047 0.928 . S
C2052 C2051 1.372 . S
C2052 C2053 1.404 . S
C2053 C2052 1.404 . S
C2053 C2054 1.391 . S
C2054 H2048 0.930 . S
C2054 C2050 1.429 . S
C2054 C2053 1.391 . S
H2055 C2058 0.931 . S
H2056 C2061 0.928 . S
H2057 C2063 0.930 . S
C2058 H2055 0.931 . S
C2058 C2059 1.413 . S
C2058 C2060 1.360 . S
C2059 C2058 1.413 . S
C2059 C2063 1.429 . S
C2060 C2058 1.360 . S
C2060 C2061 1.372 . S
C2061 H2056 0.928 . S
C2061 C2060 1.372 . S
C2061 C2062 1.404 . S
C2062 C2061 1.404 . S
C2062 C2063 1.391 . S
C2063 H2057 0.930 . S
C2063 C2059 1.429 . S
C2063 C2062 1.391 . S
H2064 C2067 0.931 . S
H2065 C2070 0.928 . S
H2066 C2072 0.930 . S
C2067 H2064 0.931 . S
C2067 C2068 1.413 . S
C2067 C2069 1.360 . S
C2068 C2067 1.413 . S
C2068 C2072 1.429 . S
C2069 C2067 1.360 . S
C2069 C2070 1.372 . S
C2070 H2065 0.928 . S
C2070 C2069 1.372 . S
C2070 C2071 1.404 . S
C2071 C2070 1.404 . S
C2071 C2072 1.391 . S
C2072 H2066 0.930 . S
C2072 C2068 1.429 . S
C2072 C2071 1.391 . S
H2073 C2076 0.931 . S
H2074 C2079 0.928 . S
H2075 C2081 0.930 . S
C2076 H2073 0.931 . S
C2076 C2077 1.413 . S
C2076 C2078 1.360 . S
C2077 C2076 1.413 . S
C2077 C2081 1.429 . S
C2078 C2076 1.360 . S
C2078 C2079 1.372 . S
C2079 H2074 0.928 . S
C2079 C2078 1.372 . S
C2079 C2080 1.404 . S
C2080 C2079 1.404 . S
C2080 C2081 1.391 . S
C2081 H2075 0.930 . S
C2081 C2077 1.429 . S
C2081 C2080 1.391 . S
H2082 C2085 0.931 . S
H2083 C2088 0.928 . S
H2084 C2090 0.930 . S
C2085 H2082 0.931 . S
C2085 C2086 1.413 . S
C2085 C2087 1.360 . S
C2086 C2085 1.413 . S
C2086 C2090 1.429 . S
C2087 C2085 1.360 . S
C2087 C2088 1.372 . S
C2088 H2083 0.928 . S
C2088 C2087 1.372 . S
C2088 C2089 1.404 . S
C2089 C2088 1.404 . S
C2089 C2090 1.391 . S
C2090 H2084 0.930 . S
C2090 C2086 1.429 . S
C2090 C2089 1.391 . S
H2091 C2094 0.931 . S
H2092 C2097 0.928 . S
H2093 C2099 0.930 . S
C2094 H2091 0.931 . S
C2094 C2095 1.413 . S
C2094 C2096 1.360 . S
C2095 C2094 1.413 . S
C2095 C2099 1.429 . S
C2096 C2094 1.360 . S
C2096 C2097 1.372 . S
C2097 H2092 0.928 . S
C2097 C2096 1.372 . S
C2097 C2098 1.404 . S
C2098 C2097 1.404 . S
C2098 C2099 1.391 . S
C2099 H2093 0.930 . S
C2099 C2095 1.429 . S
C2099 C2098 1.391 . S
H2100 C2103 0.931 . S
H2101 C2106 0.928 . S
H2102 C2108 0.930 . S
C2103 H2100 0.931 . S
C2103 C2104 1.413 . S
C2103 C2105 1.360 . S
C2104 C2103 1.413 . S
C2104 C2108 1.429 . S
C2105 C2103 1.360 . S
C2105 C2106 1.372 . S
C2106 H2101 0.928 . S
C2106 C2105 1.372 . S
C2106 C2107 1.404 . S
C2107 C2106 1.404 . S
C2107 C2108 1.391 . S
C2108 H2102 0.930 . S
C2108 C2104 1.429 . S
C2108 C2107 1.391 . S
H2109 C2112 0.931 . S
H2110 C2115 0.928 . S
H2111 C2117 0.930 . S
C2112 H2109 0.931 . S
C2112 C2113 1.413 . S
C2112 C2114 1.360 . S
C2113 C2112 1.413 . S
C2113 C2117 1.429 . S
C2114 C2112 1.360 . S
C2114 C2115 1.372 . S
C2115 H2110 0.928 . S
C2115 C2114 1.372 . S
C2115 C2116 1.404 . S
C2116 C2115 1.404 . S
C2116 C2117 1.391 . S
C2117 H2111 0.930 . S
C2117 C2113 1.429 . S
C2117 C2116 1.391 . S
H2118 C2121 0.931 . S
H2119 C2124 0.928 . S
H2120 C2126 0.930 . S
C2121 H2118 0.931 . S
C2121 C2122 1.413 . S
C2121 C2123 1.360 . S
C2122 C2121 1.413 . S
C2122 C2126 1.429 . S
C2123 C2121 1.360 . S
C2123 C2124 1.372 . S
C2124 H2119 0.928 . S
C2124 C2123 1.372 . S
C2124 C2125 1.404 . S
C2125 C2124 1.404 . S
C2125 C2126 1.391 . S
C2126 H2120 0.930 . S
C2126 C2122 1.429 . S
C2126 C2125 1.391 . S
H2127 C2130 0.931 . S
H2128 C2133 0.928 . S
H2129 C2135 0.930 . S
C2130 H2127 0.931 . S
C2130 C2131 1.413 . S
C2130 C2132 1.360 . S
C2131 C2130 1.413 . S
C2131 C2135 1.429 . S
C2132 C2130 1.360 . S
C2132 C2133 1.372 . S
C2133 H2128 0.928 . S
C2133 C2132 1.372 . S
C2133 C2134 1.404 . S
C2134 C2133 1.404 . S
C2134 C2135 1.391 . S
C2135 H2129 0.930 . S
C2135 C2131 1.429 . S
C2135 C2134 1.391 . S
H2136 C2139 0.931 . S
H2137 C2142 0.928 . S
H2138 C2144 0.930 . S
C2139 H2136 0.931 . S
C2139 C2140 1.413 . S
C2139 C2141 1.360 . S
C2140 C2139 1.413 . S
C2140 C2144 1.429 . S
C2141 C2139 1.360 . S
C2141 C2142 1.372 . S
C2142 H2137 0.928 . S
C2142 C2141 1.372 . S
C2142 C2143 1.404 . S
C2143 C2142 1.404 . S
C2143 C2144 1.391 . S
C2144 H2138 0.930 . S
C2144 C2140 1.429 . S
C2144 C2143 1.391 . S
H2145 C2148 0.931 . S
H2146 C2151 0.928 . S
H2147 C2153 0.930 . S
C2148 H2145 0.931 . S
C2148 C2149 1.413 . S
C2148 C2150 1.360 . S
C2149 C2148 1.413 . S
C2149 C2153 1.429 . S
C2150 C2148 1.360 . S
C2150 C2151 1.372 . S
C2151 H2146 0.928 . S
C2151 C2150 1.372 . S
C2151 C2152 1.404 . S
C2152 C2151 1.404 . S
C2152 C2153 1.391 . S
C2153 H2147 0.930 . S
C2153 C2149 1.429 . S
C2153 C2152 1.391 . S
H2154 C2157 0.931 . S
H2155 C2160 0.928 . S
H2156 C2162 0.930 . S
C2157 H2154 0.931 . S
C2157 C2158 1.413 . S
C2157 C2159 1.360 . S
C2158 C2157 1.413 . S
C2158 C2162 1.429 . S
C2159 C2157 1.360 . S
C2159 C2160 1.372 . S
C2160 H2155 0.928 . S
C2160 C2159 1.372 . S
C2160 C2161 1.404 . S
C2161 C2160 1.404 . S
C2161 C2162 1.391 . S
C2162 H2156 0.930 . S
C2162 C2158 1.429 . S
C2162 C2161 1.391 . S
H2163 C2166 0.931 . S
H2164 C2169 0.928 . S
H2165 C2171 0.930 . S
C2166 H2163 0.931 . S
C2166 C2167 1.413 . S
C2166 C2168 1.360 . S
C2167 C2166 1.413 . S
C2167 C2171 1.429 . S
C2168 C2166 1.360 . S
C2168 C2169 1.372 . S
C2169 H2164 0.928 . S
C2169 C2168 1.372 . S
C2169 C2170 1.404 . S
C2170 C2169 1.404 . S
C2170 C2171 1.391 . S
C2171 H2165 0.930 . S
C2171 C2167 1.429 . S
C2171 C2170 1.391 . S
H2172 C2175 0.931 . S
H2173 C2178 0.928 . S
H2174 C2180 0.930 . S
C2175 H2172 0.931 . S
C2175 C2176 1.413 . S
C2175 C2177 1.360 . S
C2176 C2175 1.413 . S
C2176 C2180 1.429 . S
C2177 C2175 1.360 . S
C2177 C2178 1.372 . S
C2178 H2173 0.928 . S
C2178 C2177 1.372 . S
C2178 C2179 1.404 . S
C2179 C2178 1.404 . S
C2179 C2180 1.391 . S
C2180 H2174 0.930 . S
C2180 C2176 1.429 . S
C2180 C2179 1.391 . S
H2181 C2184 0.931 . S
H2182 C2187 0.928 . S
H2183 C2189 0.930 . S
C2184 H2181 0.931 . S
C2184 C2185 1.413 . S
C2184 C2186 1.360 . S
C2185 C2184 1.413 . S
C2185 C2189 1.429 . S
C2186 C2184 1.360 . S
C2186 C2187 1.372 . S
C2187 H2182 0.928 . S
C2187 C2186 1.372 . S
C2187 C2188 1.404 . S
C2188 C2187 1.404 . S
C2188 C2189 1.391 . S
C2189 H2183 0.930 . S
C2189 C2185 1.429 . S
C2189 C2188 1.391 . S
H2190 C2193 0.931 . S
H2191 C2196 0.928 . S
H2192 C2198 0.930 . S
C2193 H2190 0.931 . S
C2193 C2194 1.413 . S
C2193 C2195 1.360 . S
C2194 C2193 1.413 . S
C2194 C2198 1.429 . S
C2195 C2193 1.360 . S
C2195 C2196 1.372 . S
C2196 H2191 0.928 . S
C2196 C2195 1.372 . S
C2196 C2197 1.404 . S
C2197 C2196 1.404 . S
C2197 C2198 1.391 . S
C2198 H2192 0.930 . S
C2198 C2194 1.429 . S
C2198 C2197 1.391 . S
H2199 C2202 0.931 . S
H2200 C2205 0.928 . S
H2201 C2207 0.930 . S
C2202 H2199 0.931 . S
C2202 C2203 1.413 . S
C2202 C2204 1.360 . S
C2203 C2202 1.413 . S
C2203 C2207 1.429 . S
C2204 C2202 1.360 . S
C2204 C2205 1.372 . S
C2205 H2200 0.928 . S
C2205 C2204 1.372 . S
C2205 C2206 1.404 . S
C2206 C2205 1.404 . S
C2206 C2207 1.391 . S
C2207 H2201 0.930 . S
C2207 C2203 1.429 . S
C2207 C2206 1.391 . S
H2208 C2211 0.931 . S
H2209 C2214 0.928 . S
H2210 C2216 0.930 . S
C2211 H2208 0.931 . S
C2211 C2212 1.413 . S
C2211 C2213 1.360 . S
C2212 C2211 1.413 . S
C2212 C2216 1.429 . S
C2213 C2211 1.360 . S
C2213 C2214 1.372 . S
C2214 H2209 0.928 . S
C2214 C2213 1.372 . S
C2214 C2215 1.404 . S
C2215 C2214 1.404 . S
C2215 C2216 1.391 . S
C2216 H2210 0.930 . S
C2216 C2212 1.429 . S
C2216 C2215 1.391 . S
H2217 C2220 0.931 . S
H2218 C2223 0.928 . S
H2219 C2225 0.930 . S
C2220 H2217 0.931 . S
C2220 C2221 1.413 . S
C2220 C2222 1.360 . S
C2221 C2220 1.413 . S
C2221 C2225 1.429 . S
C2222 C2220 1.360 . S
C2222 C2223 1.372 . S
C2223 H2218 0.928 . S
C2223 C2222 1.372 . S
C2223 C2224 1.404 . S
C2224 C2223 1.404 . S
C2224 C2225 1.391 . S
C2225 H2219 0.930 . S
C2225 C2221 1.429 . S
C2225 C2224 1.391 . S
H2226 C2229 0.931 . S
H2227 C2232 0.928 . S
H2228 C2234 0.930 . S
C2229 H2226 0.931 . S
C2229 C2230 1.413 . S
C2229 C2231 1.360 . S
C2230 C2229 1.413 . S
C2230 C2234 1.429 . S
C2231 C2229 1.360 . S
C2231 C2232 1.372 . S
C2232 H2227 0.928 . S
C2232 C2231 1.372 . S
C2232 C2233 1.404 . S
C2233 C2232 1.404 . S
C2233 C2234 1.391 . S
C2234 H2228 0.930 . S
C2234 C2230 1.429 . S
C2234 C2233 1.391 . S
H2235 C2238 0.931 . S
H2236 C2241 0.928 . S
H2237 C2243 0.930 . S
C2238 H2235 0.931 . S
C2238 C2239 1.413 . S
C2238 C2240 1.360 . S
C2239 C2238 1.413 . S
C2239 C2243 1.429 . S
C2240 C2238 1.360 . S
C2240 C2241 1.372 . S
C2241 H2236 0.928 . S
C2241 C2240 1.372 . S
C2241 C2242 1.404 . S
C2242 C2241 1.404 . S
C2242 C2243 1.391 . S
C2243 H2237 0.930 . S
C2243 C2239 1.429 . S
C2243 C2242 1.391 . S
H2244 C2247 0.931 . S
H2245 C2250 0.928 . S
H2246 C2252 0.930 . S
C2247 H2244 0.931 . S
C2247 C2248 1.413 . S
C2247 C2249 1.360 . S
C2248 C2247 1.413 . S
C2248 C2252 1.429 . S
C2249 C2247 1.360 . S
C2249 C2250 1.372 . S
C2250 H2245 0.928 . S
C2250 C2249 1.372 . S
C2250 C2251 1.404 . S
C2251 C2250 1.404 . S
C2251 C2252 1.391 . S
C2252 H2246 0.930 . S
C2252 C2248 1.429 . S
C2252 C2251 1.391 . S
H2253 C2256 0.931 . S
H2254 C2259 0.928 . S
H2255 C2261 0.930 . S
C2256 H2253 0.931 . S
C2256 C2257 1.413 . S
C2256 C2258 1.360 . S
C2257 C2256 1.413 . S
C2257 C2261 1.429 . S
C2258 C2256 1.360 . S
C2258 C2259 1.372 . S
C2259 H2254 0.928 . S
C2259 C2258 1.372 . S
C2259 C2260 1.404 . S
C2260 C2259 1.404 . S
C2260 C2261 1.391 . S
C2261 H2255 0.930 . S
C2261 C2257 1.429 . S
C2261 C2260 1.391 . S
H2262 C2265 0.931 . S
H2263 C2268 0.928 . S
H2264 C2270 0.930 . S
C2265 H2262 0.931 . S
C2265 C2266 1.413 . S
C2265 C2267 1.360 . S
C2266 C2265 1.413 . S
C2266 C2270 1.429 . S
C2267 C2265 1.360 . S
C2267 C2268 1.372 . S
C2268 H2263 0.928 . S
C2268 C2267 1.372 . S
C2268 C2269 1.404 . S
C2269 C2268 1.404 . S
C2269 C2270 1.391 . S
C2270 H2264 0.930 . S
C2270 C2266 1.429 . S
C2270 C2269 1.391 . S
H2271 C2274 0.931 . S
H2272 C2277 0.928 . S
H2273 C2279 0.930 . S
C2274 H2271 0.931 . S
C2274 C2275 1.413 . S
C2274 C2276 1.360 . S
C2275 C2274 1.413 . S
C2275 C2279 1.429 . S
C2276 C2274 1.360 . S
C2276 C2277 1.372 . S
C2277 H2272 0.928 . S
C2277 C2276 1.372 . S
C2277 C2278 1.404 . S
C2278 C2277 1.404 . S
C2278 C2279 1.391 . S
C2279 H2273 0.930 . S
C2279 C2275 1.429 . S
C2279 C2278 1.391 . S
H2280 C2283 0.931 . S
H2281 C2286 0.928 . S
H2282 C2288 0.930 . S
C2283 H2280 0.931 . S
C2283 C2284 1.413 . S
C2283 C2285 1.360 . S
C2284 C2283 1.413 . S
C2284 C2288 1.429 . S
C2285 C2283 1.360 . S
C2285 C2286 1.372 . S
C2286 H2281 0.928 . S
C2286 C2285 1.372 . S
C2286 C2287 1.404 . S
C2287 C2286 1.404 . S
C2287 C2288 1.391 . S
C2288 H2282 0.930 . S
C2288 C2284 1.429 . S
C2288 C2287 1.391 . S
H2289 C2292 0.931 . S
H2290 C2295 0.928 . S
H2291 C2297 0.930 . S
C2292 H2289 0.931 . S
C2292 C2293 1.413 . S
C2292 C2294 1.360 . S
C2293 C2292 1.413 . S
C2293 C2297 1.429 . S
C2294 C2292 1.360 . S
C2294 C2295 1.372 . S
C2295 H2290 0.928 . S
C2295 C2294 1.372 . S
C2295 C2296 1.404 . S
C2296 C2295 1.404 . S
C2296 C2297 1.391 . S
C2297 H2291 0.930 . S
C2297 C2293 1.429 . S
C2297 C2296 1.391 . S
H2298 C2301 0.931 . S
H2299 C2304 0.928 . S
H2300 C2306 0.930 . S
C2301 H2298 0.931 . S
C2301 C2302 1.413 . S
C2301 C2303 1.360 . S
C2302 C2301 1.413 . S
C2302 C2306 1.429 . S
C2303 C2301 1.360 . S
C2303 C2304 1.372 . S
C2304 H2299 0.928 . S
C2304 C2303 1.372 . S
C2304 C2305 1.404 . S
C2305 C2304 1.404 . S
C2305 C2306 1.391 . S
C2306 H2300 0.930 . S
C2306 C2302 1.429 . S
C2306 C2305 1.391 . S
H2307 C2310 0.931 . S
H2308 C2313 0.928 . S
H2309 C2315 0.930 . S
C2310 H2307 0.931 . S
C2310 C2311 1.413 . S
C2310 C2312 1.360 . S
C2311 C2310 1.413 . S
C2311 C2315 1.429 . S
C2312 C2310 1.360 . S
C2312 C2313 1.372 . S
C2313 H2308 0.928 . S
C2313 C2312 1.372 . S
C2313 C2314 1.404 . S
C2314 C2313 1.404 . S
C2314 C2315 1.391 . S
C2315 H2309 0.930 . S
C2315 C2311 1.429 . S
C2315 C2314 1.391 . S
H2316 C2319 0.931 . S
H2317 C2322 0.928 . S
H2318 C2324 0.930 . S
C2319 H2316 0.931 . S
C2319 C2320 1.413 . S
C2319 C2321 1.360 . S
C2320 C2319 1.413 . S
C2320 C2324 1.429 . S
C2321 C2319 1.360 . S
C2321 C2322 1.372 . S
C2322 H2317 0.928 . S
C2322 C2321 1.372 . S
C2322 C2323 1.404 . S
C2323 C2322 1.404 . S
C2323 C2324 1.391 . S
C2324 H2318 0.930 . S
C2324 C2320 1.429 . S
C2324 C2323 1.391 . S
H2325 C2328 0.931 . S
H2326 C2331 0.928 . S
H2327 C2333 0.930 . S
C2328 H2325 0.931 . S
C2328 C2329 1.413 . S
C2328 C2330 1.360 . S
C2329 C2328 1.413 . S
C2329 C2333 1.429 . S
C2330 C2328 1.360 . S
C2330 C2331 1.372 . S
C2331 H2326 0.928 . S
C2331 C2330 1.372 . S
C2331 C2332 1.404 . S
C2332 C2331 1.404 . S
C2332 C2333 1.391 . S
C2333 H2327 0.930 . S
C2333 C2329 1.429 . S
C2333 C2332 1.391 . S
H2334 C2337 0.931 . S
H2335 C2340 0.928 . S
H2336 C2342 0.930 . S
C2337 H2334 0.931 . S
C2337 C2338 1.413 . S
C2337 C2339 1.360 . S
C2338 C2337 1.413 . S
C2338 C2342 1.429 . S
C2339 C2337 1.360 . S
C2339 C2340 1.372 . S
C2340 H2335 0.928 . S
C2340 C2339 1.372 . S
C2340 C2341 1.404 . S
C2341 C2340 1.404 . S
C2341 C2342 1.391 . S
C2342 H2336 0.930 . S
C2342 C2338 1.429 . S
C2342 C2341 1.391 . S
H2343 C2346 0.931 . S
H2344 C2349 0.928 . S
H2345 C2351 0.930 . S
C2346 H2343 0.931 . S
C2346 C2347 1.413 . S
C2346 C2348 1.360 . S
C2347 C2346 1.413 . S
C2347 C2351 1.429 . S
C2348 C2346 1.360 . S
C2348 C2349 1.372 . S
C2349 H2344 0.928 . S
C2349 C2348 1.372 . S
C2349 C2350 1.404 . S
C2350 C2349 1.404 . S
C2350 C2351 1.391 . S
C2351 H2345 0.930 . S
C2351 C2347 1.429 . S
C2351 C2350 1.391 . S
C1781 C1925 1.779 . S
C981 C1934 1.785 . S
C1943 C1861 2.019 . S
C1061 C1952 2.063 . S
C1901 C1961 1.814 . S
C941 C1970 1.781 . S
C1821 C1979 2.030 . S
C1021 C1988 2.015 . S
C661 C1997 1.904 . S
C1621 C2006 2.104 . S
C741 C2015 1.908 . S
C1581 C2024 1.837 . S
C901 C2033 2.190 . S
C2042 C1661 2.078 . S
C2051 C821 1.929 . S
C1141 C2060 2.145 . S
C2069 C781 2.089 . S
C2078 C1701 1.934 . S
C861 C2087 2.133 . S
C1181 C2096 1.905 . S
C2105 C1101 1.906 . S
C1421 C2114 1.893 . S
C2123 C381 2.143 . S
C2132 C1501 2.188 . S
C2141 C461 1.932 . S
C2150 C1541 1.932 . S
C341 C2159 1.898 . S
C2168 C1461 2.141 . S
C421 C2177 2.182 . S
C2186 C61 1.834 . S
C2195 C1261 1.880 . S
C141 C2204 1.834 . S
C2213 C1221 2.120 . S
C2222 C301 2.061 . S
C1301 C2231 2.085 . S
C2240 C221 1.816 . S
C2249 C541 2.140 . S
C181 C2258 2.070 . S
C2267 C1341 1.797 . S
C261 C2276 2.153 . S
C2285 C581 1.841 . S
C501 C2294 1.827 . S
C701 C2303 2.112 . S
C2312 C621 1.829 . S
C1741 C2321 2.185 . S
C101 C2330 1.855 . S
C2339 C21 2.149 . S
C2348 C1381 2.085 . S
C1335 C1924 2.803 . S
C535 C1936 2.135 . S
C1362 C1942 3.103 . S
C1954 C1295 2.043 . S
C575 C1960 2.905 . S
C1215 C1972 2.091 . S
C1978 C495 2.940 . S
C1242 C1990 1.981 . S
C1255 C1996 2.957 . S
C2005 C562 1.935 . S
C1202 C2014 3.137 . S
C2026 C482 1.973 . S
C522 C2032 3.181 . S
C1375 C2044 2.089 . S
C2053 C1282 3.103 . S
C2059 C1322 1.856 . S
C455 C2023 2.973 . S
C1415 C2068 2.997 . S
C1455 C2077 2.139 . S
C2089 C1482 3.228 . S
C2035 C442 2.034 . S
C362 C2008 3.199 . S
C1495 C2098 2.174 . S
C2107 C1402 2.032 . S
C2113 C1695 2.127 . S
C1135 C2125 3.046 . S
C2134 C1722 2.266 . S
C2143 C1655 2.964 . S
C1175 C2149 2.140 . S
C1562 C2161 2.878 . S
C1095 C2167 2.088 . S
C2176 C1615 2.981 . S
C2188 C1602 2.190 . S
C1162 C2197 2.981 . S
C2203 C1575 2.044 . S
C1082 C2215 2.921 . S
C2224 C1122 2.245 . S
C1735 C2233 3.068 . S
C2239 C1642 2.182 . S
C1682 C2248 2.949 . S
C1042 C2212 2.089 . S
C1775 C2257 1.969 . S
C1815 C2269 2.926 . S
C2278 C1842 2.121 . S
C1055 C2221 2.904 . S
C975 C2194 2.018 . S
C2287 C1855 2.946 . S
C1762 C2293 2.828 . S
C1969 C215 2.822 . S
C1981 C255 2.130 . S
C1987 C282 3.083 . S
C1963 C175 2.047 . S
C1951 C135 2.941 . S
C15 C1927 2.112 . S
C55 C1933 2.903 . S
C82 C1945 1.963 . S
C95 C2104 2.939 . S
C122 C2302 1.952 . S
C2 C2095 3.156 . S
C42 C2314 1.956 . S
C242 C2320 3.173 . S
C2071 C295 2.062 . S
C162 C2080 3.111 . S
C202 C2086 1.879 . S
C2311 C1535 2.976 . S
C335 C2041 3.001 . S
C375 C2050 2.137 . S
C402 C2062 3.224 . S
C2323 C1522 2.031 . S
C2305 C1442 3.194 . S
C2017 C415 2.170 . S
C322 C1999 2.034 . S
C815 C2158 2.133 . S
C855 C2170 3.031 . S
C882 C2179 2.261 . S
C775 C2152 2.977 . S
C2140 C735 2.142 . S
C2116 C602 2.870 . S
C2122 C655 2.086 . S
C695 C2131 2.989 . S
C2296 C682 2.198 . S
C722 C2332 2.965 . S
C615 C2284 2.035 . S
C2341 C642 2.938 . S
C842 C2350 2.231 . S
C2260 C895 3.060 . S
C762 C2266 2.193 . S
C802 C2275 2.958 . S
C1895 C2338 1.984 . S
C2230 C935 1.985 . S
C962 C2242 2.859 . S
C1002 C2251 2.103 . S
C1882 C2347 2.833 . S
C1802 C2329 2.121 . S
C2206 C1015 2.931 . S
C2185 C922 2.842 . S
