# Generated by pormake.
# Topology wbl, (4,4)-cn, num edge types: 1
# Building blocks:
#     Node 0, Type 0, BuildingBlock: NAWXER_clean_linker_0, # of connection points: 4
#     Node 1, Type 0, BuildingBlock: NAWXER_clean_linker_0, # of connection points: 4
#     Node 2, Type 0, BuildingBlock: NAWXER_clean_linker_0, # of connection points: 4
#     Node 3, Type 0, BuildingBlock: NAWXER_clean_linker_0, # of connection points: 4
#     Node 4, Type 0, BuildingBlock: NAWXER_clean_linker_0, # of connection points: 4
#     Node 5, Type 0, BuildingBlock: NAWXER_clean_linker_0, # of connection points: 4
#     Node 6, Type 0, BuildingBlock: NAWXER_clean_linker_0, # of connection points: 4
#     Node 7, Type 0, BuildingBlock: NAWXER_clean_linker_0, # of connection points: 4
#     Node 8, Type 1, BuildingBlock: QUQFOY_clean_sbu_1, # of connection points: 4
#     Node 9, Type 1, BuildingBlock: QUQFOY_clean_sbu_1, # of connection points: 4
#     Node 10, Type 1, BuildingBlock: QUQFOY_clean_sbu_1, # of connection points: 4
#     Node 11, Type 1, BuildingBlock: QUQFOY_clean_sbu_1, # of connection points: 4
#     Node 12, Type 1, BuildingBlock: QUQFOY_clean_sbu_1, # of connection points: 4
#     Node 13, Type 1, BuildingBlock: QUQFOY_clean_sbu_1, # of connection points: 4
#     Node 14, Type 1, BuildingBlock: QUQFOY_clean_sbu_1, # of connection points: 4
#     Node 15, Type 1, BuildingBlock: QUQFOY_clean_sbu_1, # of connection points: 4
#     Edge 16, Type (0, 1), BuildingBlock: ZUJKAS_clean_linker_0, # of connection points: 2
#     Edge 17, Type (0, 1), BuildingBlock: ZUJKAS_clean_linker_0, # of connection points: 2
#     Edge 18, Type (0, 1), BuildingBlock: ZUJKAS_clean_linker_0, # of connection points: 2
#     Edge 19, Type (0, 1), BuildingBlock: ZUJKAS_clean_linker_0, # of connection points: 2
#     Edge 20, Type (0, 1), BuildingBlock: ZUJKAS_clean_linker_0, # of connection points: 2
#     Edge 21, Type (0, 1), BuildingBlock: ZUJKAS_clean_linker_0, # of connection points: 2
#     Edge 22, Type (0, 1), BuildingBlock: ZUJKAS_clean_linker_0, # of connection points: 2
#     Edge 23, Type (0, 1), BuildingBlock: ZUJKAS_clean_linker_0, # of connection points: 2
#     Edge 24, Type (0, 1), BuildingBlock: ZUJKAS_clean_linker_0, # of connection points: 2
#     Edge 25, Type (0, 1), BuildingBlock: ZUJKAS_clean_linker_0, # of connection points: 2
#     Edge 26, Type (0, 1), BuildingBlock: ZUJKAS_clean_linker_0, # of connection points: 2
#     Edge 27, Type (0, 1), BuildingBlock: ZUJKAS_clean_linker_0, # of connection points: 2
#     Edge 28, Type (0, 1), BuildingBlock: ZUJKAS_clean_linker_0, # of connection points: 2
#     Edge 29, Type (0, 1), BuildingBlock: ZUJKAS_clean_linker_0, # of connection points: 2
#     Edge 30, Type (0, 1), BuildingBlock: ZUJKAS_clean_linker_0, # of connection points: 2
#     Edge 31, Type (0, 1), BuildingBlock: ZUJKAS_clean_linker_0, # of connection points: 2
#     Edge 32, Type (0, 1), BuildingBlock: ZUJKAS_clean_linker_0, # of connection points: 2
#     Edge 33, Type (0, 1), BuildingBlock: ZUJKAS_clean_linker_0, # of connection points: 2
#     Edge 34, Type (0, 1), BuildingBlock: ZUJKAS_clean_linker_0, # of connection points: 2
#     Edge 35, Type (0, 1), BuildingBlock: ZUJKAS_clean_linker_0, # of connection points: 2
#     Edge 36, Type (0, 1), BuildingBlock: ZUJKAS_clean_linker_0, # of connection points: 2
#     Edge 37, Type (0, 1), BuildingBlock: ZUJKAS_clean_linker_0, # of connection points: 2
#     Edge 38, Type (0, 1), BuildingBlock: ZUJKAS_clean_linker_0, # of connection points: 2
#     Edge 39, Type (0, 1), BuildingBlock: ZUJKAS_clean_linker_0, # of connection points: 2
#     Edge 40, Type (0, 1), BuildingBlock: ZUJKAS_clean_linker_0, # of connection points: 2
#     Edge 41, Type (0, 1), BuildingBlock: ZUJKAS_clean_linker_0, # of connection points: 2
#     Edge 42, Type (0, 1), BuildingBlock: ZUJKAS_clean_linker_0, # of connection points: 2
#     Edge 43, Type (0, 1), BuildingBlock: ZUJKAS_clean_linker_0, # of connection points: 2
#     Edge 44, Type (0, 1), BuildingBlock: ZUJKAS_clean_linker_0, # of connection points: 2
#     Edge 45, Type (0, 1), BuildingBlock: ZUJKAS_clean_linker_0, # of connection points: 2
#     Edge 46, Type (0, 1), BuildingBlock: ZUJKAS_clean_linker_0, # of connection points: 2
#     Edge 47, Type (0, 1), BuildingBlock: ZUJKAS_clean_linker_0, # of connection points: 2
# Relax obj value: 0.184
# Max RMSD: 0.221
# Mean RMSD: 0.164
data_MOF--net-wbl--node1-QUQFOY_clean_sbu_1--node2-NAWXER_clean_linker_0--edge1-ZUJKAS_clean_linker_0
_symmetry_space_group_name_H-M    P1
_symmetry_Int_Tables_number       1
_symmetry_cell_setting            triclinic
loop_
_symmetry_equiv_pos_as_xyz
'x, y, z'
_cell_length_a     55.552276
_cell_length_b     55.552743
_cell_length_c     99.093647
_cell_angle_alpha  93.163857
_cell_angle_beta   93.165621
_cell_angle_gamma 90.4343
loop_
_atom_site_label
_atom_site_type_symbol
_atom_site_fract_x
_atom_site_fract_y
_atom_site_fract_z
_atom_type_partial_charge
C0 C 0.21335 0.02662 0.38759 0.0
C1 C 0.22552 0.03783 0.39912 0.0
C2 C 0.20125 0.04035 0.37801 0.0
C3 C 0.20154 0.06566 0.37954 0.0
C4 C 0.22633 0.06319 0.40043 0.0
C5 C 0.21447 0.0769 0.39076 0.0
C6 C 0.18572 0.08033 0.37074 0.0
C7 C 0.23608 0.04492 0.34197 0.0
C8 C 0.22498 0.02816 0.3324 0.0
C9 C 0.22217 0.06019 0.34999 0.0
C10 C 0.19689 0.05898 0.34858 0.0
C11 C 0.19968 0.02701 0.33099 0.0
C12 C 0.18578 0.04244 0.33892 0.0
C13 C 0.18199 0.07575 0.35659 0.0
C14 C 0.10845 0.15148 0.3416 0.0
C15 C 0.09155 0.13664 0.33393 0.0
C16 C 0.12824 0.14139 0.34848 0.0
C17 C 0.13124 0.11627 0.34796 0.0
C18 C 0.09544 0.11165 0.33283 0.0
C19 C 0.11511 0.10159 0.33975 0.0
C20 C 0.15063 0.10488 0.35613 0.0
C21 C 0.10241 0.14225 0.38576 0.0
C22 C 0.11435 0.16015 0.3943 0.0
C23 C 0.11552 0.12601 0.37785 0.0
C24 C 0.14079 0.12763 0.37814 0.0
C25 C 0.13966 0.16155 0.39466 0.0
C26 C 0.15274 0.14538 0.3867 0.0
C27 C 0.15502 0.11017 0.37016 0.0
H28 H 0.21254 0.00716 0.38615 0.0
H29 H 0.19076 0.03104 0.36976 0.0
H30 H 0.23513 0.07251 0.40926 0.0
H31 H 0.21471 0.09637 0.39231 0.0
H32 H 0.25555 0.0461 0.34333 0.0
H33 H 0.23117 0.07316 0.35717 0.0
H34 H 0.19066 0.01442 0.32361 0.0
H35 H 0.1663 0.04138 0.33757 0.0
H36 H 0.10599 0.1708 0.34265 0.0
H37 H 0.14085 0.15315 0.35445 0.0
H38 H 0.08308 0.09978 0.32674 0.0
H39 H 0.11728 0.0822 0.33903 0.0
H40 H 0.08297 0.14038 0.38547 0.0
H41 H 0.10592 0.11199 0.37166 0.0
H42 H 0.14937 0.17521 0.40107 0.0
H43 H 0.17224 0.1468 0.38717 0.0
N44 N 0.17232 0.09765 0.37689 0.0
N45 N 0.16434 0.08793 0.34989 0.0
C46 C 0.94876 0.61704 0.62177 0.0
C47 C 0.95329 0.60751 0.63451 0.0
C48 C 0.96718 0.62879 0.61549 0.0
C49 C 0.99054 0.63073 0.62174 0.0
C50 C 0.97664 0.60952 0.64069 0.0
C51 C 0.99499 0.62103 0.6344 0.0
C52 C 0.0103 0.64387 0.61574 0.0
C53 C 0.99235 0.58123 0.58647 0.0
C54 C 0.98571 0.58697 0.57315 0.0
C55 C 0.00185 0.59889 0.59586 0.0
C56 C 0.00433 0.62284 0.59225 0.0
C57 C 0.9886 0.61083 0.56944 0.0
C58 C 0.99784 0.62861 0.57892 0.0
C59 C 0.01579 0.6413 0.60195 0.0
C60 C 0.11196 0.69123 0.60206 0.0
C61 C 0.10832 0.70812 0.59212 0.0
C62 C 0.09251 0.67818 0.60639 0.0
C63 C 0.06907 0.68187 0.60089 0.0
C64 C 0.08496 0.711 0.58623 0.0
C65 C 0.06553 0.69784 0.59052 0.0
C66 C 0.0482 0.66968 0.60623 0.0
C67 C 0.07837 0.72368 0.63856 0.0
C68 C 0.0861 0.71314 0.65062 0.0
C69 C 0.06418 0.71049 0.62859 0.0
C70 C 0.05779 0.68641 0.63043 0.0
C71 C 0.07907 0.68926 0.65254 0.0
C72 C 0.06507 0.67608 0.64257 0.0
C73 C 0.04309 0.67175 0.62004 0.0
H74 H 0.93088 0.61588 0.61682 0.0
H75 H 0.96308 0.63665 0.60588 0.0
H76 H 0.98082 0.602 0.65039 0.0
H77 H 0.01281 0.62228 0.63946 0.0
H78 H 0.99092 0.56286 0.58951 0.0
H79 H 0.00778 0.59361 0.60585 0.0
H80 H 0.98369 0.61571 0.55922 0.0
H81 H 3e-05 0.64686 0.57583 0.0
H82 H 0.12971 0.68869 0.60683 0.0
H83 H 0.09566 0.66561 0.61426 0.0
H84 H 0.08169 0.72364 0.57841 0.0
H85 H 0.0476 0.70072 0.58605 0.0
H86 H 0.08345 0.74204 0.63676 0.0
H87 H 0.0582 0.71913 0.61948 0.0
H88 H 0.08415 0.68075 0.66183 0.0
H89 H 0.06011 0.65766 0.6443 0.0
N90 N 0.02436 0.65882 0.6242 0.0
N91 N 0.03433 0.6546 0.5977 0.0
C92 C 0.5599 0.45946 0.8617 0.0
C93 C 0.57286 0.46527 0.87407 0.0
C94 C 0.54596 0.47692 0.85533 0.0
C95 C 0.54469 0.5004 0.86127 0.0
C96 C 0.57191 0.48894 0.87979 0.0
C97 C 0.55788 0.50624 0.8735 0.0
C98 C 0.52814 0.51852 0.85563 0.0
C99 C 0.58611 0.51026 0.82622 0.0
C100 C 0.57827 0.50028 0.81337 0.0
C101 C 0.56949 0.51786 0.83555 0.0
C102 C 0.54465 0.51552 0.83227 0.0
C103 C 0.55338 0.49795 0.81007 0.0
C104 C 0.5367 0.50577 0.81942 0.0
C105 C 0.52717 0.52469 0.84198 0.0
C106 C 0.46912 0.61538 0.84494 0.0
C107 C 0.45172 0.61167 0.83418 0.0
C108 C 0.4843 0.59673 0.84872 0.0
C109 C 0.48213 0.57387 0.84194 0.0
C110 C 0.45045 0.58913 0.82694 0.0
C111 C 0.46561 0.5704 0.83078 0.0
C112 C 0.49674 0.55358 0.84674 0.0
C113 C 0.44472 0.57311 0.87889 0.0
C114 C 0.45613 0.58103 0.89138 0.0
C115 C 0.45803 0.56199 0.86874 0.0
C116 C 0.48304 0.559 0.87085 0.0
C117 C 0.4811 0.57775 0.89347 0.0
C118 C 0.49436 0.56677 0.88335 0.0
C119 C 0.49768 0.54727 0.86037 0.0
H120 H 0.56031 0.44136 0.85706 0.0
H121 H 0.53558 0.47187 0.84601 0.0
H122 H 0.58131 0.49392 0.88942 0.0
H123 H 0.55703 0.52417 0.87833 0.0
H124 H 0.60516 0.51208 0.8291 0.0
H125 H 0.57607 0.5259 0.84528 0.0
H126 H 0.54686 0.49047 0.80021 0.0
H127 H 0.5176 0.50413 0.81663 0.0
H128 H 0.47089 0.63269 0.85052 0.0
H129 H 0.49745 0.60004 0.85711 0.0
H130 H 0.43718 0.58573 0.81861 0.0
H131 H 0.46386 0.55296 0.82533 0.0
H132 H 0.42546 0.57513 0.87705 0.0
H133 H 0.44876 0.55558 0.85931 0.0
H134 H 0.4905 0.58397 0.90291 0.0
H135 H 0.5136 0.56463 0.88523 0.0
N136 N 0.51341 0.5301 0.86426 0.0
N137 N 0.51139 0.54192 0.838 0.0
C138 C 0.55576 0.95815 0.08957 0.0
C139 C 0.53606 0.9662 0.08158 0.0
C140 C 0.57387 0.97421 0.09464 0.0
C141 C 0.57254 0.99874 0.09199 0.0
C142 C 0.53519 0.9906 0.0785 0.0
C143 C 0.55335 0.00673 0.08363 0.0
C144 C 0.59132 0.01587 0.09782 0.0
C145 C 0.55098 0.99336 0.1333 0.0
C146 C 0.56465 0.98049 0.1428 0.0
C147 C 0.56216 0.00464 0.123 0.0
C148 C 0.58723 0.00314 0.12193 0.0
C149 C 0.58973 0.97896 0.14167 0.0
C150 C 0.60091 0.99032 0.1314 0.0
C151 C 0.59946 0.01633 0.1116 0.0
C152 C 0.66396 0.10119 0.12105 0.0
C153 C 0.6826 0.09112 0.12903 0.0
C154 C 0.64744 0.0863 0.11331 0.0
C155 C 0.64927 0.06113 0.1135 0.0
C156 C 0.68503 0.06593 0.12865 0.0
C157 C 0.66838 0.05109 0.12105 0.0
C158 C 0.6297 0.04523 0.10745 0.0
C159 C 0.66664 0.07576 0.07304 0.0
C160 C 0.65198 0.09139 0.06556 0.0
C161 C 0.65663 0.06072 0.08216 0.0
C162 C 0.63175 0.06096 0.08397 0.0
C163 C 0.62696 0.09113 0.06721 0.0
C164 C 0.61696 0.07592 0.07624 0.0
C165 C 0.62097 0.04555 0.09381 0.0
H166 H 0.55728 0.93935 0.09183 0.0
H167 H 0.58893 0.96744 0.10067 0.0
H168 H 0.52023 0.99731 0.07236 0.0
H169 H 0.55213 0.02554 0.08133 0.0
H170 H 0.53162 0.99479 0.13386 0.0
H171 H 0.55125 0.01494 0.11605 0.0
H172 H 0.60082 0.9695 0.14895 0.0
H173 H 0.62031 0.98918 0.13089 0.0
H174 H 0.66171 0.12055 0.12116 0.0
H175 H 0.63256 0.09442 0.10775 0.0
H176 H 0.699 0.05765 0.13484 0.0
H177 H 0.66993 0.0317 0.12143 0.0
H178 H 0.68588 0.07506 0.07184 0.0
H179 H 0.66833 0.04884 0.08776 0.0
H180 H 0.61511 0.10311 0.06178 0.0
H181 H 0.59769 0.07631 0.07744 0.0
N182 N 0.60213 0.03077 0.08948 0.0
N183 N 0.61854 0.03073 0.11581 0.0
C184 C 0.04952 0.7058 0.93272 0.0
C185 C 0.06297 0.70061 0.92131 0.0
C186 C 0.03645 0.68752 0.93833 0.0
C187 C 0.03659 0.6638 0.9326 0.0
C188 C 0.06302 0.67685 0.91564 0.0
C189 C 0.04989 0.65872 0.92118 0.0
C190 C 0.02205 0.64429 0.93784 0.0
C191 C 0.08017 0.66272 0.96953 0.0
C192 C 0.07253 0.67016 0.98236 0.0
C193 C 0.06381 0.65267 0.9596 0.0
C194 C 0.03927 0.65047 0.96212 0.0
C195 C 0.04816 0.66727 0.98509 0.0
C196 C 0.03164 0.65752 0.97502 0.0
C197 C 0.02207 0.63908 0.95165 0.0
C198 C 0.97088 0.54374 0.94993 0.0
C199 C 0.95218 0.54775 0.95879 0.0
C200 C 0.98459 0.56301 0.94593 0.0
C201 C 0.97996 0.58665 0.95074 0.0
C202 C 0.94805 0.57149 0.96383 0.0
C203 C 0.96197 0.59071 0.95993 0.0
C204 C 0.99363 0.60716 0.94603 0.0
C205 C 0.94419 0.57915 0.91065 0.0
C206 C 0.95654 0.57161 0.89916 0.0
C207 C 0.95631 0.59209 0.92153 0.0
C208 C 0.98105 0.59735 0.92118 0.0
C209 C 0.98129 0.57686 0.8989 0.0
C210 C 0.99336 0.58966 0.90976 0.0
C211 C 0.99427 0.61188 0.93221 0.0
H212 H 0.04912 0.72395 0.93728 0.0
H213 H 0.02594 0.69197 0.947 0.0
H214 H 0.07279 0.67234 0.9067 0.0
H215 H 0.05012 0.64062 0.91651 0.0
H216 H 0.09898 0.66411 0.96729 0.0
H217 H 0.07052 0.64621 0.95002 0.0
H218 H 0.0419 0.67272 0.99495 0.0
H219 H 0.0129 0.65552 0.9773 0.0
H220 H 0.97497 0.5257 0.94607 0.0
H221 H 0.99875 0.55947 0.93901 0.0
H222 H 0.93364 0.57536 0.97052 0.0
H223 H 0.9582 0.60886 0.96377 0.0
H224 H 0.92505 0.57561 0.91106 0.0
H225 H 0.94625 0.59839 0.93006 0.0
H226 H 0.99139 0.57099 0.8903 0.0
H227 H 0.01243 0.59353 0.90925 0.0
N228 N 0.00838 0.63029 0.92869 0.0
N229 N 0.00755 0.62092 0.95525 0.0
C230 C 0.50103 0.54022 0.16663 0.0
C231 C 0.50911 0.55401 0.15625 0.0
C232 C 0.51749 0.52838 0.17507 0.0
C233 C 0.54236 0.53022 0.17337 0.0
C234 C 0.53405 0.55578 0.15459 0.0
C235 C 0.55047 0.54386 0.16299 0.0
C236 C 0.55996 0.51725 0.182 0.0
C237 C 0.53088 0.57589 0.20817 0.0
C238 C 0.51571 0.56821 0.21801 0.0
C239 C 0.54516 0.55947 0.20123 0.0
C240 C 0.54447 0.53493 0.20386 0.0
C241 C 0.51552 0.5437 0.22094 0.0
C242 C 0.5299 0.52719 0.21393 0.0
C243 C 0.55951 0.51774 0.19624 0.0
C244 C 0.65077 0.46812 0.21308 0.0
C245 C 0.6425 0.45101 0.22177 0.0
C246 C 0.63448 0.48086 0.20502 0.0
C247 C 0.60959 0.47685 0.20551 0.0
C248 C 0.61748 0.44737 0.22237 0.0
C249 C 0.6012 0.46034 0.2144 0.0
C250 C 0.59225 0.49027 0.19703 0.0
C251 C 0.62754 0.43901 0.16663 0.0
C252 C 0.64051 0.45109 0.15719 0.0
C253 C 0.61299 0.45191 0.17551 0.0
C254 C 0.61112 0.47704 0.17501 0.0
C255 C 0.63926 0.47633 0.15712 0.0
C256 C 0.62456 0.48914 0.16587 0.0
C257 C 0.59337 0.49067 0.18285 0.0
H258 H 0.48195 0.53811 0.16804 0.0
H259 H 0.51074 0.51746 0.18279 0.0
H260 H 0.54094 0.56653 0.14684 0.0
H261 H 0.56956 0.54549 0.16147 0.0
H262 H 0.53206 0.59473 0.20597 0.0
H263 H 0.5569 0.56602 0.19383 0.0
H264 H 0.50407 0.53727 0.2285 0.0
H265 H 0.52936 0.50835 0.21622 0.0
H266 H 0.66985 0.47182 0.21257 0.0
H267 H 0.64133 0.494 0.19847 0.0
H268 H 0.61041 0.43414 0.22877 0.0
H269 H 0.58203 0.45711 0.21497 0.0
H270 H 0.6282 0.41956 0.1669 0.0
H271 H 0.60245 0.44218 0.18234 0.0
H272 H 0.64873 0.48611 0.14984 0.0
H273 H 0.62321 0.50851 0.16526 0.0
N274 N 0.5771 0.50403 0.17588 0.0
N275 N 0.57542 0.50394 0.20324 0.0
C276 C 0.56644 0.99266 0.43217 0.0
C277 C 0.55331 0.99954 0.4205 0.0
C278 C 0.5792 0.00992 0.44061 0.0
C279 C 0.57872 0.03437 0.43761 0.0
C280 C 0.55185 0.02411 0.41793 0.0
C281 C 0.56448 0.04133 0.42638 0.0
C282 C 0.59568 0.05214 0.4447 0.0
C283 C 0.54601 0.03444 0.47686 0.0
C284 C 0.55651 0.02055 0.487 0.0
C285 C 0.56029 0.04484 0.46756 0.0
C286 C 0.58536 0.04172 0.46828 0.0
C287 C 0.58158 0.01719 0.48766 0.0
C288 C 0.59596 0.02802 0.47847 0.0
C289 C 0.60046 0.05394 0.45887 0.0
C290 C 0.66595 0.14085 0.46644 0.0
C291 C 0.68587 0.132 0.47397 0.0
C292 C 0.64777 0.12518 0.46093 0.0
C293 C 0.64913 0.1004 0.46288 0.0
C294 C 0.68665 0.10723 0.47629 0.0
C295 C 0.66833 0.09162 0.47088 0.0
C296 C 0.63097 0.08351 0.45626 0.0
C297 C 0.67557 0.10909 0.42276 0.0
C298 C 0.66216 0.12027 0.41244 0.0
C299 C 0.66389 0.09712 0.43264 0.0
C300 C 0.63858 0.09643 0.43251 0.0
C301 C 0.63686 0.11977 0.41244 0.0
C302 C 0.62522 0.1079 0.42233 0.0
C303 C 0.62572 0.08218 0.44213 0.0
H304 H 0.56805 0.97381 0.4343 0.0
H305 H 0.59056 0.00392 0.44897 0.0
H306 H 0.5416 0.02994 0.4091 0.0
H307 H 0.56386 0.06004 0.42383 0.0
H308 H 0.5267 0.03716 0.47611 0.0
H309 H 0.55178 0.0557 0.45993 0.0
H310 H 0.59006 0.00662 0.49543 0.0
H311 H 0.61531 0.02559 0.47926 0.0
H312 H 0.66445 0.15987 0.46471 0.0
H313 H 0.63279 0.13236 0.455 0.0
H314 H 0.70181 0.09972 0.48191 0.0
H315 H 0.6696 0.07253 0.47252 0.0
H316 H 0.69508 0.10882 0.4229 0.0
H317 H 0.67465 0.08776 0.4401 0.0
H318 H 0.62603 0.12841 0.40471 0.0
H319 H 0.60569 0.1075 0.42197 0.0
N320 N 0.60835 0.0665 0.43694 0.0
N321 N 0.61813 0.06938 0.46412 0.0
C322 C 0.20286 0.09974 0.6937 0.0
C323 C 0.19716 0.08635 0.68145 0.0
C324 C 0.18517 0.11345 0.70003 0.0
C325 C 0.1616 0.11407 0.69413 0.0
C326 C 0.17343 0.08672 0.67578 0.0
C327 C 0.15592 0.10052 0.682 0.0
C328 C 0.14309 0.13016 0.69975 0.0
C329 C 0.15399 0.07252 0.72915 0.0
C330 C 0.16314 0.08077 0.74211 0.0
C331 C 0.14557 0.08876 0.7198 0.0
C332 C 0.14635 0.11365 0.72312 0.0
C333 C 0.16376 0.10571 0.74548 0.0
C334 C 0.15522 0.122 0.73609 0.0
C335 C 0.13659 0.13073 0.71334 0.0
C336 C 0.04358 0.18472 0.70963 0.0
C337 C 0.04613 0.20213 0.72046 0.0
C338 C 0.06309 0.17057 0.70601 0.0
C339 C 0.08564 0.17375 0.71303 0.0
C340 C 0.06841 0.20441 0.72793 0.0
C341 C 0.08799 0.19025 0.72426 0.0
C342 C 0.10674 0.16018 0.70844 0.0
C343 C 0.08688 0.21251 0.67648 0.0
C344 C 0.08025 0.20131 0.66373 0.0
C345 C 0.09774 0.19919 0.6867 0.0
C346 C 0.10173 0.17437 0.6844 0.0
C347 C 0.08444 0.17654 0.66147 0.0
C348 C 0.09514 0.16326 0.67167 0.0
C349 C 0.11351 0.15979 0.6949 0.0
H350 H 0.22101 0.09979 0.69829 0.0
H351 H 0.19006 0.12409 0.70927 0.0
H352 H 0.16854 0.07696 0.66624 0.0
H353 H 0.13791 0.10087 0.67722 0.0
H354 H 0.15349 0.05345 0.72619 0.0
H355 H 0.13817 0.0818 0.71 0.0
H356 H 0.1705 0.11257 0.75543 0.0
H357 H 0.15563 0.14112 0.73892 0.0
H358 H 0.02652 0.18214 0.70387 0.0
H359 H 0.06068 0.15742 0.69754 0.0
H360 H 0.07096 0.21773 0.7363 0.0
H361 H 0.10519 0.19277 0.72989 0.0
H362 H 0.08412 0.23163 0.67845 0.0
H363 H 0.10326 0.20833 0.69632 0.0
H364 H 0.07921 0.16731 0.65183 0.0
H365 H 0.09807 0.14417 0.66964 0.0
N366 N 0.13127 0.14469 0.6911 0.0
N367 N 0.11869 0.14581 0.71721 0.0
O368 O 0.35067 0.71935 0.0089 0.0
Cd369 Cd 0.34013 0.73768 0.02622 0.0
Cd370 Cd 0.37668 0.71213 0.03882 0.0
O371 O 0.37708 0.69656 0.01946 0.0
O372 O 0.30695 0.74891 0.0219 0.0
O373 O 0.31556 0.72223 0.03722 0.0
C374 C 0.2996 0.73454 0.03064 0.0
C375 C 0.38564 0.68603 0.05613 0.0
C376 C 0.3659 0.70243 0.00862 0.0
C377 C 0.38057 0.76682 0.03987 0.0
O378 O 0.39005 0.74677 0.04257 0.0
O379 O 0.36001 0.76742 0.03362 0.0
O380 O 0.4017 0.69279 0.04824 0.0
O381 O 0.36405 0.69412 0.05426 0.0
O382 O 0.44315 0.84418 0.30478 0.0
Cd383 Cd 0.42383 0.83487 0.28696 0.0
Cd384 Cd 0.46529 0.84535 0.27554 0.0
O385 O 0.47433 0.85895 0.29505 0.0
O386 O 0.38942 0.83984 0.29061 0.0
O387 O 0.40939 0.86207 0.27695 0.0
C388 C 0.38984 0.85793 0.28298 0.0
C389 C 0.47572 0.86819 0.25756 0.0
C390 C 0.46325 0.85533 0.30566 0.0
C391 C 0.44694 0.79364 0.27294 0.0
O392 O 0.46407 0.80842 0.27148 0.0
O393 O 0.42786 0.80076 0.27835 0.0
O394 O 0.49167 0.85674 0.26455 0.0
O395 O 0.45361 0.867 0.2609 0.0
O396 O 0.30741 0.91286 0.52497 0.0
Cd397 Cd 0.32265 0.9018 0.54299 0.0
Cd398 Cd 0.29276 0.93342 0.55408 0.0
O399 O 0.29077 0.94487 0.53454 0.0
O400 O 0.35654 0.89271 0.53993 0.0
O401 O 0.34636 0.92501 0.55244 0.0
C402 C 0.36294 0.91232 0.54686 0.0
C403 C 0.29288 0.96239 0.57217 0.0
C404 C 0.29635 0.93267 0.52395 0.0
C405 C 0.2841 0.88015 0.55749 0.0
O406 O 0.27584 0.90144 0.55793 0.0
O407 O 0.30457 0.87599 0.55278 0.0
O408 O 0.27393 0.95791 0.56432 0.0
O409 O 0.3123 0.95087 0.56951 0.0
O410 O 0.22814 0.81542 0.77431 0.0
Cd411 Cd 0.24556 0.82707 0.7924 0.0
Cd412 Cd 0.2151 0.79613 0.80315 0.0
O413 O 0.20048 0.79397 0.7835 0.0
O414 O 0.25978 0.85905 0.78937 0.0
O415 O 0.22977 0.85398 0.80283 0.0
C416 C 0.24393 0.86838 0.79709 0.0
C417 C 0.18822 0.79659 0.82053 0.0
C418 C 0.20912 0.80247 0.77312 0.0
C419 C 0.26856 0.78587 0.80577 0.0
O420 O 0.24715 0.77877 0.80733 0.0
O421 O 0.27235 0.80575 0.80045 0.0
O422 O 0.19157 0.7775 0.81293 0.0
O423 O 0.19999 0.81591 0.81816 0.0
O424 O 0.9453 0.30467 0.54464 0.0
Cd425 Cd 0.92677 0.31504 0.5273 0.0
Cd426 Cd 0.95236 0.27783 0.51535 0.0
O427 O 0.9691 0.27876 0.53443 0.0
O428 O 0.91451 0.34762 0.53218 0.0
O429 O 0.94136 0.34086 0.51675 0.0
C430 C 0.92861 0.356 0.52361 0.0
C431 C 0.97668 0.269 0.49721 0.0
C432 C 0.96279 0.29008 0.54513 0.0
C433 C 0.89786 0.27358 0.51465 0.0
O434 O 0.91795 0.26359 0.51265 0.0
O435 O 0.89717 0.29497 0.51983 0.0
O436 O 0.9712 0.253 0.50546 0.0
O437 O 0.96861 0.29053 0.49934 0.0
O438 O 0.84627 0.42692 0.7776 0.0
Cd439 Cd 0.83131 0.40901 0.76039 0.0
Cd440 Cd 0.86156 0.43752 0.74754 0.0
O441 O 0.86641 0.45353 0.76684 0.0
O442 O 0.79916 0.39737 0.76509 0.0
O443 O 0.80429 0.42565 0.75054 0.0
C444 C 0.78989 0.41312 0.75729 0.0
C445 C 0.86267 0.46304 0.72951 0.0
C446 C 0.85952 0.44568 0.77782 0.0
C447 C 0.86937 0.38324 0.74596 0.0
O448 O 0.87677 0.40423 0.74363 0.0
O449 O 0.85016 0.38053 0.75212 0.0
O450 O 0.88167 0.45832 0.73687 0.0
O451 O 0.8425 0.45357 0.73253 0.0
O452 O 0.74685 0.35179 0.02942 0.0
Cd453 Cd 0.75684 0.3365 0.01117 0.0
Cd454 Cd 0.7248 0.36672 0.00112 0.0
O455 O 0.71397 0.36818 0.02074 0.0
O456 O 0.76778 0.30347 0.01496 0.0
O457 O 0.73459 0.31094 0.00247 0.0
C458 C 0.74834 0.29553 0.00838 0.0
C459 C 0.69563 0.36672 0.98316 0.0
C460 C 0.72707 0.36264 0.03101 0.0
C461 C 0.77758 0.37581 0.99694 0.0
O462 O 0.75641 0.38427 0.99732 0.0
O463 O 0.78189 0.35479 0.00086 0.0
O464 O 0.6999 0.38548 0.99118 0.0
O465 O 0.70744 0.34735 0.98561 0.0
O466 O 0.81298 0.21977 0.24968 0.0
Cd467 Cd 0.82341 0.23984 0.26712 0.0
Cd468 Cd 0.80772 0.20115 0.2793 0.0
O469 O 0.79372 0.19186 0.25993 0.0
O470 O 0.82228 0.27396 0.26221 0.0
O471 O 0.79779 0.25845 0.27646 0.0
C472 C 0.80416 0.27657 0.26976 0.0
C473 C 0.78377 0.19451 0.29744 0.0
C474 C 0.79942 0.2012 0.24911 0.0
C475 C 0.8611 0.21352 0.28218 0.0
O476 O 0.8444 0.19823 0.28358 0.0
O477 O 0.85644 0.23299 0.27645 0.0
O478 O 0.79344 0.17697 0.2907 0.0
O479 O 0.78729 0.2161 0.2937 0.0
H480 H 0.26445 0.03994 0.31879 0.0
H481 H 0.28995 0.01274 0.30568 0.0
H482 H 0.24481 0.9525 0.3142 0.0
H483 H 0.21904 0.97967 0.32708 0.0
H484 H 0.31594 0.97682 0.31507 0.0
H485 H 0.25204 0.93938 0.27435 0.0
H486 H 0.24525 0.9656 0.28499 0.0
H487 H 0.24111 0.93578 0.29081 0.0
C488 C 0.25989 0.02091 0.31776 0.0
C489 C 0.23978 0.0119 0.32395 0.0
C490 C 0.27437 0.00542 0.31022 0.0
C491 C 0.26905 0.98063 0.30874 0.0
C492 C 0.24886 0.97164 0.31483 0.0
H493 H 0.34532 0.85186 0.29266 0.0
H494 H 0.31506 0.88287 0.2963 0.0
C495 C 0.23423 0.98716 0.32227 0.0
C496 C 0.28585 0.96392 0.30193 0.0
H497 H 0.28857 0.917 0.27828 0.0
C498 C 0.31004 0.96405 0.30685 0.0
C499 C 0.27813 0.94724 0.29122 0.0
C500 C 0.25276 0.94713 0.28494 0.0
C501 C 0.32646 0.94729 0.30177 0.0
C502 C 0.31852 0.93008 0.29141 0.0
C503 C 0.29454 0.93028 0.28621 0.0
C504 C 0.33455 0.91055 0.28679 0.0
C505 C 0.35194 0.94742 0.30793 0.0
C506 C 0.355 0.91565 0.27971 0.0
C507 C 0.37236 0.89793 0.27757 0.0
C508 C 0.3695 0.87493 0.28256 0.0
C509 C 0.34813 0.86945 0.28878 0.0
C510 C 0.33077 0.88712 0.29084 0.0
H511 H 0.3542 0.95966 0.31718 0.0
H512 H 0.35726 0.92896 0.31058 0.0
H513 H 0.36447 0.95352 0.30044 0.0
H514 H 0.35809 0.93364 0.27642 0.0
H515 H 0.3886 0.90269 0.27272 0.0
H516 H 0.15446 0.69459 0.58703 0.0
H517 H 0.18826 0.7208 0.58201 0.0
H518 H 0.14168 0.78247 0.5839 0.0
H519 H 0.10799 0.75657 0.58904 0.0
H520 H 0.18998 0.75423 0.55968 0.0
H521 H 0.20094 0.7996 0.61103 0.0
H522 H 0.18556 0.77091 0.60775 0.0
H523 H 0.17054 0.79837 0.60378 0.0
C524 C 0.15148 0.71375 0.5864 0.0
C525 C 0.12859 0.72355 0.58843 0.0
C526 C 0.17074 0.72864 0.58349 0.0
C527 C 0.16745 0.75354 0.58276 0.0
C528 C 0.14458 0.7633 0.58458 0.0
H529 H 0.23921 0.88318 0.56723 0.0
H530 H 0.21355 0.85045 0.57363 0.0
C531 C 0.12532 0.74846 0.58739 0.0
C532 C 0.18778 0.76953 0.57999 0.0
H533 H 0.22097 0.81779 0.5935 0.0
C534 C 0.19707 0.76794 0.5671 0.0
C535 C 0.19693 0.78727 0.58974 0.0
C536 C 0.18817 0.7891 0.6039 0.0
C537 C 0.21444 0.78454 0.56345 0.0
C538 C 0.22301 0.80283 0.57308 0.0
C539 C 0.21435 0.80377 0.58614 0.0
C540 C 0.23936 0.8224 0.5695 0.0
C541 C 0.22255 0.7831 0.54915 0.0
C542 C 0.2626 0.81753 0.56523 0.0
C543 C 0.27739 0.83628 0.56148 0.0
C544 C 0.2692 0.86021 0.56203 0.0
C545 C 0.24612 0.86499 0.56664 0.0
C546 C 0.23139 0.84629 0.57033 0.0
H547 H 0.21065 0.77113 0.5423 0.0
H548 H 0.22293 0.80128 0.54503 0.0
H549 H 0.24108 0.77579 0.54911 0.0
H550 H 0.26927 0.79926 0.56478 0.0
H551 H 0.29512 0.83201 0.55806 0.0
H552 H 0.42737 0.64039 0.85187 0.0
H553 H 0.39791 0.67144 0.84664 0.0
H554 H 0.40731 0.65775 0.80399 0.0
H555 H 0.43677 0.62646 0.80916 0.0
H556 H 0.40199 0.71325 0.83321 0.0
H557 H 0.33469 0.65059 0.80638 0.0
H558 H 0.36024 0.64013 0.81638 0.0
H559 H 0.36398 0.64967 0.79957 0.0
C560 C 0.42333 0.64412 0.84138 0.0
C561 C 0.43434 0.63095 0.83092 0.0
C562 C 0.40644 0.66182 0.83841 0.0
C563 C 0.40019 0.66668 0.82493 0.0
C564 C 0.41151 0.65392 0.81446 0.0
H565 H 0.31608 0.7909 0.80014 0.0
H566 H 0.34891 0.76292 0.80488 0.0
C567 C 0.42833 0.63609 0.81742 0.0
C568 C 0.38164 0.68495 0.82193 0.0
H569 H 0.32609 0.69219 0.8063 0.0
C570 C 0.3854 0.70869 0.82731 0.0
C571 C 0.35989 0.67885 0.81438 0.0
C572 C 0.35427 0.65339 0.80894 0.0
C573 C 0.36796 0.72652 0.82534 0.0
C574 C 0.34641 0.72051 0.81758 0.0
C575 C 0.3427 0.69678 0.81218 0.0
C576 C 0.32702 0.73824 0.81527 0.0
C577 C 0.37247 0.75142 0.83191 0.0
C578 C 0.30379 0.73354 0.81941 0.0
C579 C 0.28497 0.74933 0.8166 0.0
C580 C 0.289 0.77018 0.80958 0.0
C581 C 0.31241 0.7751 0.80565 0.0
C582 C 0.33122 0.75918 0.8084 0.0
H583 H 0.3867 0.75139 0.84024 0.0
H584 H 0.37856 0.76357 0.82422 0.0
H585 H 0.35574 0.75894 0.83602 0.0
H586 H 0.30015 0.71748 0.82471 0.0
H587 H 0.26719 0.745 0.8198 0.0
H588 H 0.51467 0.93186 0.09563 0.0
H589 H 0.48495 0.90136 0.08701 0.0
H590 H 0.48311 0.93148 0.04778 0.0
H591 H 0.51343 0.96177 0.05625 0.0
H592 H 0.43784 0.90581 0.07473 0.0
H593 H 0.50128 0.8601 0.04032 0.0
H594 H 0.5113 0.88192 0.05365 0.0
H595 H 0.49679 0.89174 0.0383 0.0
C596 C 0.50801 0.93195 0.08515 0.0
C597 C 0.51662 0.949 0.07656 0.0
C598 C 0.49089 0.91465 0.08028 0.0
C599 C 0.4821 0.91401 0.06673 0.0
C600 C 0.48995 0.93152 0.05823 0.0
H601 H 0.3668 0.81318 0.03534 0.0
H602 H 0.38996 0.85036 0.04119 0.0
C603 C 0.5071 0.94889 0.0631 0.0
C604 C 0.4655 0.89431 0.0615 0.0
H605 H 0.46246 0.84311 0.04077 0.0
C606 C 0.44306 0.89221 0.0672 0.0
C607 C 0.47257 0.87651 0.05179 0.0
C608 C 0.49685 0.87745 0.0457 0.0
C609 C 0.42763 0.87248 0.06362 0.0
C610 C 0.43481 0.85459 0.054 0.0
C611 C 0.45702 0.85696 0.0481 0.0
C612 C 0.42039 0.83239 0.05061 0.0
C613 C 0.40424 0.87039 0.07054 0.0
C614 C 0.42997 0.81003 0.05385 0.0
C615 C 0.41689 0.78881 0.0505 0.0
C616 C 0.39396 0.78951 0.04377 0.0
C617 C 0.38435 0.812 0.04057 0.0
C618 C 0.3975 0.83327 0.04394 0.0
H619 H 0.40346 0.88332 0.07946 0.0
H620 H 0.389 0.87419 0.06328 0.0
H621 H 0.40171 0.85183 0.07388 0.0
H622 H 0.44764 0.809 0.05899 0.0
H623 H 0.42487 0.77183 0.05312 0.0
H624 H 0.10554 0.70568 0.97977 0.0
H625 H 0.13917 0.71795 0.99568 0.0
H626 H 0.11401 0.66928 0.0244 0.0
H627 H 0.08016 0.65683 0.00843 0.0
H628 H 0.1413 0.73538 0.02543 0.0
H629 H 0.18367 0.64648 0.01355 0.0
H630 H 0.15988 0.65789 0.00259 0.0
H631 H 0.1531 0.64733 0.01874 0.0
C632 C 0.10697 0.69788 0.98956 0.0
C633 C 0.09044 0.68015 0.99284 0.0
C634 C 0.12607 0.70499 0.99866 0.0
C635 C 0.1291 0.69438 0.01114 0.0
C636 C 0.11194 0.6776 0.01478 0.0
H637 H 0.27732 0.70258 0.04622 0.0
H638 H 0.23399 0.69371 0.04613 0.0
C639 C 0.09262 0.6706 0.00569 0.0
C640 C 0.15166 0.69924 0.01948 0.0
H641 H 0.2082 0.67679 0.02439 0.0
C642 C 0.15581 0.72243 0.02553 0.0
C643 C 0.17042 0.6822 0.01969 0.0
C644 C 0.16677 0.65705 0.01329 0.0
C645 C 0.17876 0.72949 0.03106 0.0
C646 C 0.1981 0.71314 0.03013 0.0
C647 C 0.19342 0.68937 0.02505 0.0
C648 C 0.22364 0.72112 0.03229 0.0
C649 C 0.18218 0.75464 0.03744 0.0
C650 C 0.2322 0.73964 0.02469 0.0
C651 C 0.2568 0.74474 0.02474 0.0
C652 C 0.27349 0.73123 0.03226 0.0
C653 C 0.2649 0.71332 0.04032 0.0
C654 C 0.24016 0.70825 0.04029 0.0
H655 H 0.16559 0.7608 0.04231 0.0
H656 H 0.1975 0.7557 0.04514 0.0
H657 H 0.18575 0.76725 0.02946 0.0
H658 H 0.21997 0.74935 0.01811 0.0
H659 H 0.26278 0.75863 0.0184 0.0
H660 H 0.5081 0.57207 0.24516 0.0
H661 H 0.48818 0.60503 0.25748 0.0
H662 H 0.47138 0.63841 0.21985 0.0
H663 H 0.49008 0.60512 0.20749 0.0
H664 H 0.50372 0.6498 0.2589 0.0
H665 H 0.40983 0.6498 0.23795 0.0
H666 H 0.4293 0.62426 0.23537 0.0
H667 H 0.42994 0.6491 0.22442 0.0
C668 C 0.49945 0.58604 0.23949 0.0
C669 C 0.50085 0.58612 0.22537 0.0
C670 C 0.48818 0.60491 0.24654 0.0
C671 C 0.47803 0.62409 0.23959 0.0
C672 C 0.47852 0.62359 0.22543 0.0
H673 H 0.48303 0.7733 0.25876 0.0
H674 H 0.4885 0.73077 0.25242 0.0
C675 C 0.4896 0.60471 0.21839 0.0
C676 C 0.46999 0.64617 0.24707 0.0
H677 H 0.4263 0.68903 0.24652 0.0
C678 C 0.48654 0.65809 0.25641 0.0
C679 C 0.44744 0.65689 0.24405 0.0
C680 C 0.42805 0.64415 0.23501 0.0
C681 C 0.48188 0.68115 0.26205 0.0
C682 C 0.46039 0.69285 0.25795 0.0
C683 C 0.44303 0.68025 0.24941 0.0
C684 C 0.45647 0.71865 0.26165 0.0
C685 C 0.5003 0.69296 0.27211 0.0
C686 C 0.43609 0.72606 0.26846 0.0
C687 C 0.43272 0.7505 0.27197 0.0
C688 C 0.44968 0.76789 0.26869 0.0
C689 C 0.46975 0.76038 0.26158 0.0
C690 C 0.47301 0.73604 0.25802 0.0
H691 H 0.51099 0.67929 0.27754 0.0
H692 H 0.51302 0.70388 0.26666 0.0
H693 H 0.49163 0.70501 0.27969 0.0
H694 H 0.42298 0.71292 0.27122 0.0
H695 H 0.41703 0.7557 0.27742 0.0
H696 H 0.55424 0.97343 0.49345 0.0
H697 H 0.52504 0.95503 0.50763 0.0
H698 H 0.49556 0.02518 0.51712 0.0
H699 H 0.52407 0.04342 0.50262 0.0
H700 H 0.51313 0.96029 0.5342 0.0
H701 H 0.43742 0.98897 0.5001 0.0
H702 H 0.46845 0.99124 0.49584 0.0
H703 H 0.45582 0.01376 0.50707 0.0
C704 C 0.54166 0.98488 0.4987 0.0
C705 C 0.54107 0.00974 0.49681 0.0
C706 C 0.52503 0.97439 0.50679 0.0
C707 C 0.50775 0.98867 0.51317 0.0
C708 C 0.50827 0.01373 0.51198 0.0
H709 H 0.37983 0.95726 0.55532 0.0
H710 H 0.41793 0.97558 0.54973 0.0
C711 C 0.52458 0.02414 0.50375 0.0
C712 C 0.48825 0.97729 0.52033 0.0
H713 H 0.427 0.97181 0.52032 0.0
C714 C 0.4943 0.96279 0.53118 0.0
C715 C 0.46367 0.98036 0.51628 0.0
C716 C 0.45592 0.99421 0.5041 0.0
C717 C 0.47634 0.95156 0.53818 0.0
C718 C 0.45186 0.95505 0.53423 0.0
C719 C 0.44584 0.96953 0.52344 0.0
C720 C 0.43192 0.9428 0.54049 0.0
C721 C 0.4835 0.93616 0.54976 0.0
C722 C 0.42758 0.91813 0.53752 0.0
C723 C 0.40575 0.90763 0.5406 0.0
C724 C 0.38792 0.92168 0.54669 0.0
C725 C 0.39318 0.94594 0.55064 0.0
C726 C 0.41493 0.95646 0.54745 0.0
H727 H 0.50285 0.93856 0.55307 0.0
H728 H 0.47235 0.94052 0.55851 0.0
H729 H 0.48023 0.9169 0.54654 0.0
H730 H 0.44036 0.90738 0.532 0.0
H731 H 0.40227 0.88889 0.53745 0.0
H732 H 0.20438 0.08374 0.75868 0.0
H733 H 0.22126 0.05238 0.77284 0.0
H734 H 0.15945 0.00682 0.76162 0.0
H735 H 0.14228 0.03805 0.74765 0.0
H736 H 0.19378 0.01969 0.79478 0.0
H737 H 0.22825 0.97599 0.7478 0.0
H738 H 0.22308 0.00804 0.74965 0.0
H739 H 0.198 0.98751 0.7469 0.0
C740 C 0.19413 0.06727 0.75949 0.0
C741 C 0.17215 0.06322 0.75192 0.0
C742 C 0.2038 0.04942 0.76757 0.0
C743 C 0.19155 0.02739 0.76821 0.0
C744 C 0.16909 0.02377 0.76122 0.0
H745 H 0.20416 0.89292 0.80498 0.0
H746 H 0.19441 0.93467 0.80056 0.0
C747 C 0.15945 0.04153 0.75316 0.0
C748 C 0.20322 0.00706 0.77486 0.0
H749 H 0.23094 0.95391 0.7674 0.0
C750 C 0.20219 0.00538 0.78889 0.0
C751 C 0.21432 0.98867 0.7671 0.0
C752 C 0.2162 0.99003 0.75203 0.0
C753 C 0.21141 0.98516 0.79532 0.0
C754 C 0.22155 0.9662 0.78744 0.0
C755 C 0.22324 0.96844 0.77347 0.0
C756 C 0.22921 0.94309 0.79306 0.0
C757 C 0.21013 0.98427 0.81044 0.0
C758 C 0.25218 0.93403 0.79061 0.0
C759 C 0.25764 0.91007 0.79292 0.0
C760 C 0.24026 0.89473 0.79779 0.0
C761 C 0.21797 0.90434 0.8013 0.0
C762 C 0.21242 0.92829 0.79884 0.0
H763 H 0.20948 0.00268 0.81539 0.0
H764 H 0.19343 0.97453 0.81268 0.0
H765 H 0.22581 0.97467 0.81495 0.0
H766 H 0.26541 0.94511 0.78615 0.0
H767 H 0.27502 0.90322 0.79019 0.0
H768 H 0.61851 0.52452 0.80694 0.0
H769 H 0.65068 0.50957 0.79295 0.0
H770 H 0.61113 0.443 0.78389 0.0
H771 H 0.57873 0.45795 0.79785 0.0
H772 H 0.67649 0.46953 0.79921 0.0
H773 H 0.63538 0.45827 0.74686 0.0
H774 H 0.62208 0.47669 0.76002 0.0
H775 H 0.61863 0.44446 0.75943 0.0
C776 C 0.61654 0.5068 0.80183 0.0
C777 C 0.59623 0.4923 0.80358 0.0
C778 C 0.63485 0.49835 0.79379 0.0
C779 C 0.63323 0.47526 0.7873 0.0
C780 C 0.61253 0.46107 0.78857 0.0
H781 H 0.75505 0.38755 0.76874 0.0
H782 H 0.71482 0.40144 0.77393 0.0
C783 C 0.59409 0.46959 0.79659 0.0
C784 C 0.65444 0.4651 0.78065 0.0
H785 H 0.67417 0.44089 0.75081 0.0
C786 C 0.67598 0.4634 0.78861 0.0
C787 C 0.65374 0.45717 0.76681 0.0
C788 C 0.63129 0.45939 0.75772 0.0
C789 C 0.69678 0.45377 0.78317 0.0
C790 C 0.69595 0.44527 0.76944 0.0
C791 C 0.67458 0.44723 0.76137 0.0
C792 C 0.7175 0.43448 0.76354 0.0
C793 C 0.71958 0.45278 0.79214 0.0
C794 C 0.73177 0.44797 0.75541 0.0
C795 C 0.75483 0.44008 0.7524 0.0
C796 C 0.7639 0.41864 0.75755 0.0
C797 C 0.74869 0.40425 0.76472 0.0
C798 C 0.72567 0.41211 0.76768 0.0
H799 H 0.71839 0.46394 0.80174 0.0
H800 H 0.72289 0.43385 0.79471 0.0
H801 H 0.73532 0.45908 0.78681 0.0
H802 H 0.72571 0.46533 0.75217 0.0
H803 H 0.7661 0.45155 0.74683 0.0
H804 H 0.63352 0.10543 0.0409 0.0
H805 H 0.64997 0.13581 0.02687 0.0
H806 H 0.71136 0.14601 0.0552 0.0
H807 H 0.69478 0.11638 0.06953 0.0
H808 H 0.66126 0.18534 0.03717 0.0
H809 H 0.74031 0.13792 0.01692 0.0
H810 H 0.71491 0.12215 0.0231 0.0
H811 H 0.73723 0.13625 0.03482 0.0
C812 C 0.65051 0.11413 0.04418 0.0
C813 C 0.66276 0.10843 0.05641 0.0
C814 C 0.65996 0.13133 0.03608 0.0
C815 C 0.682 0.14287 0.03992 0.0
C816 C 0.69455 0.13691 0.05192 0.0
H817 H 0.77009 0.26107 0.02319 0.0
H818 H 0.75311 0.22228 0.02834 0.0
C819 C 0.68503 0.1199 0.0601 0.0
C820 C 0.69098 0.16267 0.03207 0.0
H821 H 0.73897 0.18046 0.01484 0.0
C822 C 0.67804 0.18423 0.03207 0.0
C823 C 0.71292 0.16107 0.02554 0.0
C824 C 0.72712 0.13805 0.02496 0.0
C825 C 0.68708 0.20474 0.02633 0.0
C826 C 0.70937 0.20338 0.02002 0.0
C827 C 0.72186 0.18147 0.0196 0.0
C828 C 0.72108 0.22511 0.01509 0.0
C829 C 0.67335 0.22801 0.02779 0.0
C830 C 0.7093 0.23912 0.00542 0.0
C831 C 0.71886 0.26155 0.00255 0.0
C832 C 0.74057 0.27011 0.00916 0.0
C833 C 0.75328 0.2551 0.01797 0.0
C834 C 0.74359 0.23286 0.02093 0.0
H835 H 0.65969 0.22727 0.03555 0.0
H836 H 0.68577 0.24343 0.03065 0.0
H837 H 0.66375 0.2315 0.01799 0.0
H838 H 0.69224 0.23317 0.00049 0.0
H839 H 0.70875 0.27259 0.99562 0.0
H840 H 0.08696 0.17853 0.32052 0.0
H841 H 0.04991 0.19528 0.31036 0.0
H842 H 0.0092 0.13476 0.32281 0.0
H843 H 0.04586 0.11811 0.33313 0.0
H844 H 0.00077 0.14628 0.2949 0.0
H845 H 0.99333 0.22576 0.33121 0.0
H846 H 0.02168 0.22152 0.3235 0.0
H847 H 0.01189 0.2002 0.33505 0.0
C848 C 0.07007 0.16891 0.32119 0.0
C849 C 0.06937 0.14694 0.32759 0.0
C850 C 0.04896 0.17849 0.31538 0.0
C851 C 0.02687 0.1663 0.31594 0.0
C852 C 0.02613 0.14438 0.32226 0.0
H853 H 0.87704 0.1735 0.29457 0.0
H854 H 0.91834 0.16381 0.30176 0.0
C855 C 0.04713 0.13483 0.32807 0.0
C856 C 0.00435 0.17597 0.30981 0.0
H857 H 0.96256 0.22011 0.314 0.0
C858 C 0.99249 0.16253 0.29899 0.0
C859 C 0.99376 0.19725 0.31513 0.0
C860 C 0.00565 0.21204 0.32692 0.0
C861 C 0.96997 0.16951 0.29354 0.0
C862 C 0.95887 0.19021 0.29924 0.0
C863 C 0.97114 0.2042 0.30971 0.0
C864 C 0.93387 0.19662 0.29506 0.0
C865 C 0.95814 0.15454 0.2818 0.0
C866 C 0.92886 0.21865 0.28929 0.0
C867 C 0.90517 0.22435 0.2852 0.0
C868 C 0.88612 0.20814 0.28692 0.0
C869 C 0.89125 0.18633 0.293 0.0
C870 C 0.91487 0.18068 0.29705 0.0
H871 H 0.97159 0.14388 0.27618 0.0
H872 H 0.94514 0.14171 0.28569 0.0
H873 H 0.94814 0.16607 0.27464 0.0
H874 H 0.94331 0.23126 0.28779 0.0
H875 H 0.90183 0.24132 0.28059 0.0
H876 H 0.95155 0.55269 0.57642 0.0
H877 H 0.94057 0.51777 0.56113 0.0
H878 H 0.98877 0.54257 0.53208 0.0
H879 H 1e-05 0.57761 0.54741 0.0
H880 H 0.92325 0.51429 0.53134 0.0
H881 H 0.01288 0.47384 0.54375 0.0
H882 H 0.00087 0.49768 0.55445 0.0
H883 H 0.01167 0.50424 0.53832 0.0
C884 C 0.95961 0.55084 0.56671 0.0
C885 C 0.97679 0.56771 0.56314 0.0
C886 C 0.95322 0.53101 0.55797 0.0
C887 C 0.964 0.5276 0.54555 0.0
C888 C 0.98033 0.54493 0.54165 0.0
H889 H 0.96016 0.38038 0.50875 0.0
H890 H 0.9678 0.42401 0.50982 0.0
C891 C 0.98663 0.56493 0.55038 0.0
C892 C 0.95957 0.50473 0.53743 0.0
H893 H 0.98354 0.4489 0.53227 0.0
C894 C 0.93655 0.50009 0.53127 0.0
C895 C 0.97706 0.48639 0.53726 0.0
C896 C 0.00203 0.49056 0.54381 0.0
C897 C 0.93016 0.47711 0.52552 0.0
C898 C 0.94704 0.45821 0.52634 0.0
C899 C 0.97058 0.46335 0.53167 0.0
C900 C 0.93988 0.43253 0.52366 0.0
C901 C 0.90519 0.47319 0.51896 0.0
C902 C 0.92147 0.42287 0.53093 0.0
C903 C 0.91705 0.39809 0.53032 0.0
C904 C 0.93117 0.38234 0.52255 0.0
C905 C 0.94897 0.39206 0.51482 0.0
C906 C 0.95335 0.41697 0.51542 0.0
H907 H 0.89854 0.48985 0.51435 0.0
H908 H 0.90474 0.45827 0.51102 0.0
H909 H 0.89261 0.46869 0.52679 0.0
H910 H 0.91129 0.43435 0.53768 0.0
H911 H 0.90322 0.39123 0.53642 0.0
H912 H 0.70512 0.1693 0.461 0.0
H913 H 0.73954 0.195 0.4686 0.0
H914 H 0.74816 0.15664 0.5052 0.0
H915 H 0.71281 0.13171 0.49805 0.0
H916 H 0.75431 0.20485 0.51015 0.0
H917 H 0.80852 0.17319 0.46745 0.0
H918 H 0.78028 0.18592 0.462 0.0
H919 H 0.78062 0.15875 0.4711 0.0
C920 C 0.71401 0.16657 0.47079 0.0
C921 C 0.70622 0.14831 0.47888 0.0
C922 C 0.73393 0.18107 0.47502 0.0
C923 C 0.74674 0.17736 0.48732 0.0
C924 C 0.73866 0.15965 0.49561 0.0
H925 H 0.8928 0.22535 0.50835 0.0
H926 H 0.85565 0.20262 0.50241 0.0
C927 C 0.71858 0.14527 0.49145 0.0
C928 C 0.76876 0.19171 0.49145 0.0
H929 H 0.82447 0.20634 0.48133 0.0
C930 C 0.7697 0.20515 0.50389 0.0
C931 C 0.78894 0.19175 0.48334 0.0
C932 C 0.78971 0.17644 0.4703 0.0
C933 C 0.79024 0.21883 0.50839 0.0
C934 C 0.81007 0.21955 0.50005 0.0
C935 C 0.80915 0.20597 0.48765 0.0
C936 C 0.83235 0.23357 0.50411 0.0
C937 C 0.79069 0.23186 0.52218 0.0
C938 C 0.83163 0.25858 0.50698 0.0
C939 C 0.85288 0.27164 0.51053 0.0
C940 C 0.87525 0.25994 0.51103 0.0
C941 C 0.87589 0.23493 0.50801 0.0
C942 C 0.85466 0.22189 0.50462 0.0
H943 H 0.77735 0.22406 0.52871 0.0
H944 H 0.80885 0.23117 0.52741 0.0
H945 H 0.78604 0.25104 0.521 0.0
H946 H 0.81469 0.26807 0.5063 0.0
H947 H 0.85181 0.29091 0.51269 0.0
H948 H 0.01631 0.22474 0.7025 0.0
H949 H 0.98396 0.25288 0.70743 0.0
H950 H 0.99783 0.24491 0.75019 0.0
H951 H 0.03032 0.21665 0.74533 0.0
H952 H 0.94193 0.24763 0.72136 0.0
H953 H 0.00348 0.3178 0.74656 0.0
H954 H 0.01433 0.29228 0.73669 0.0
H955 H 0.0054 0.28875 0.75363 0.0
C956 C 0.0123 0.22874 0.71295 0.0
C957 C 0.02592 0.21851 0.72354 0.0
C958 C 0.99386 0.24487 0.71575 0.0
C959 C 0.98869 0.25118 0.72917 0.0
C960 C 0.00183 0.2406 0.73977 0.0
H961 H 0.86433 0.3365 0.75316 0.0
H962 H 0.89198 0.30309 0.749 0.0
C963 C 0.02038 0.22449 0.73698 0.0
C964 C 0.96996 0.26933 0.73198 0.0
H965 H 0.96184 0.3258 0.74623 0.0
C966 C 0.94621 0.2647 0.72684 0.0
C967 C 0.97572 0.29167 0.73899 0.0
C968 C 0.00114 0.29811 0.7442 0.0
C969 C 0.92804 0.2819 0.72849 0.0
C970 C 0.93378 0.30414 0.7356 0.0
C971 C 0.95749 0.30867 0.74082 0.0
C972 C 0.91585 0.32352 0.73729 0.0
C973 C 0.90307 0.27644 0.72225 0.0
C974 C 0.9201 0.34604 0.73209 0.0
C975 C 0.90449 0.36515 0.73452 0.0
C976 C 0.88429 0.36216 0.74224 0.0
C977 C 0.87964 0.33936 0.74711 0.0
C978 C 0.89538 0.32022 0.74471 0.0
H979 H 0.90299 0.26108 0.71458 0.0
H980 H 0.89107 0.27165 0.7303 0.0
H981 H 0.89544 0.29245 0.71738 0.0
H982 H 0.93578 0.34895 0.72633 0.0
H983 H 0.90859 0.38242 0.73057 0.0
H984 H 0.93606 0.50849 0.94265 0.0
H985 H 0.90959 0.47588 0.94848 0.0
H986 H 0.90532 0.50881 0.98871 0.0
H987 H 0.93306 0.5407 0.98326 0.0
H988 H 0.90942 0.46064 0.98928 0.0
H989 H 0.83795 0.48284 0.95073 0.0
H990 H 0.86635 0.47591 0.94375 0.0
H991 H 0.86374 0.50223 0.95498 0.0
C992 C 0.92988 0.50864 0.95282 0.0
C993 C 0.93663 0.52741 0.96245 0.0
C994 C 0.91443 0.49011 0.95608 0.0
C995 C 0.90502 0.49019 0.96893 0.0
C996 C 0.9122 0.5085 0.97868 0.0
H997 H 0.7758 0.42366 0.99239 0.0
H998 H 0.80793 0.44945 0.98544 0.0
C999 C 0.92787 0.52688 0.9755 0.0
C1000 C 0.88732 0.47153 0.97219 0.0
H1001 H 0.83156 0.44806 0.96278 0.0
C1002 C 0.8924 0.45782 0.98348 0.0
C1003 C 0.86501 0.46808 0.96468 0.0
C1004 C 0.85778 0.48319 0.95294 0.0
C1005 C 0.87568 0.44098 0.98757 0.0
C1006 C 0.85353 0.4373 0.97995 0.0
C1007 C 0.84863 0.45075 0.96854 0.0
C1008 C 0.83432 0.42107 0.98417 0.0
C1009 C 0.88152 0.42802 0.00032 0.0
C1010 C 0.83836 0.39639 0.98567 0.0
C1011 C 0.81998 0.38154 0.98982 0.0
C1012 C 0.79716 0.39106 0.99232 0.0
C1013 C 0.79312 0.41568 0.99054 0.0
C1014 C 0.81149 0.43049 0.98655 0.0
H1015 H 0.89631 0.43717 0.0067 0.0
H1016 H 0.86545 0.42677 0.00643 0.0
H1017 H 0.88743 0.40944 0.99756 0.0
H1018 H 0.85565 0.3886 0.98358 0.0
H1019 H 0.82361 0.36262 0.991 0.0
H1020 H 0.63851 0.43612 0.2476 0.0
H1021 H 0.66614 0.41031 0.26023 0.0
H1022 H 0.7137 0.40804 0.22729 0.0
H1023 H 0.68589 0.4329 0.21434 0.0
H1024 H 0.68216 0.3617 0.24848 0.0
H1025 H 0.75668 0.42659 0.26361 0.0
H1026 H 0.72603 0.43598 0.2599 0.0
H1027 H 0.74477 0.42703 0.24636 0.0
C1028 C 0.65478 0.43007 0.24299 0.0
C1029 C 0.65989 0.43661 0.2299 0.0
C1030 C 0.67063 0.41551 0.25029 0.0
C1031 C 0.69202 0.40759 0.24474 0.0
C1032 C 0.69744 0.41437 0.23183 0.0
H1033 H 0.80963 0.31449 0.25389 0.0
H1034 H 0.7819 0.34762 0.25051 0.0
C1035 C 0.68152 0.42867 0.22446 0.0
C1036 C 0.70797 0.39071 0.25189 0.0
H1037 H 0.76514 0.38497 0.26563 0.0
C1038 C 0.70017 0.36677 0.25247 0.0
C1039 C 0.7314 0.39753 0.25698 0.0
C1040 C 0.74028 0.42322 0.25681 0.0
C1041 C 0.71575 0.34902 0.25731 0.0
C1042 C 0.73954 0.35566 0.26207 0.0
C1043 C 0.74691 0.37991 0.26203 0.0
C1044 C 0.75776 0.33734 0.26566 0.0
C1045 C 0.70704 0.32314 0.25644 0.0
C1046 C 0.75396 0.32105 0.27571 0.0
C1047 C 0.7697 0.30179 0.27755 0.0
C1048 C 0.78969 0.2988 0.26953 0.0
C1049 C 0.79435 0.31618 0.2602 0.0
C1050 C 0.77851 0.33519 0.25826 0.0
H1051 H 0.69034 0.32052 0.24979 0.0
H1052 H 0.72106 0.31091 0.2525 0.0
H1053 H 0.70297 0.31776 0.26669 0.0
H1054 H 0.73842 0.32276 0.2818 0.0
H1055 H 0.76575 0.28883 0.28492 0.0
H1056 H 0.26677 0.04639 0.4154 0.0
H1057 H 0.28001 0.02535 0.43544 0.0
H1058 H 0.22076 0.97488 0.42797 0.0
H1059 H 0.20654 0.99663 0.40845 0.0
H1060 H 0.22288 0.99207 0.45332 0.0
H1061 H 0.31424 0.96287 0.44051 0.0
H1062 H 0.31044 0.99471 0.43925 0.0
H1063 H 0.29273 0.97398 0.42808 0.0
C1064 C 0.25657 0.03078 0.41799 0.0
C1065 C 0.23552 0.0233 0.41028 0.0
C1066 C 0.26439 0.01853 0.42935 0.0
C1067 C 0.25159 0.9983 0.43312 0.0
C1068 C 0.23103 0.99035 0.42521 0.0
H1069 H 0.29997 0.90898 0.49915 0.0
H1070 H 0.28864 0.92383 0.4769 0.0
C1071 C 0.22305 0.00271 0.41394 0.0
C1072 C 0.25832 0.98673 0.44592 0.0
H1073 H 0.30522 0.96196 0.46389 0.0
C1074 C 0.24083 0.98527 0.45556 0.0
C1075 C 0.28163 0.97756 0.4488 0.0
C1076 C 0.30075 0.97711 0.43855 0.0
C1077 C 0.24616 0.97549 0.46811 0.0
C1078 C 0.26984 0.96757 0.47128 0.0
C1079 C 0.28716 0.96836 0.46151 0.0
C1080 C 0.277 0.9587 0.48475 0.0
C1081 C 0.22625 0.97354 0.47778 0.0
C1082 C 0.27458 0.97351 0.49652 0.0
C1083 C 0.28081 0.96503 0.50924 0.0
C1084 C 0.28995 0.94166 0.51043 0.0
C1085 C 0.29291 0.92704 0.49859 0.0
C1086 C 0.28648 0.9355 0.48587 0.0
H1087 H 0.20818 0.97326 0.47236 0.0
H1088 H 0.22808 0.95701 0.48355 0.0
H1089 H 0.22712 0.98944 0.48508 0.0
H1090 H 0.2679 0.9917 0.49588 0.0
H1091 H 0.27857 0.97686 0.51813 0.0
H1092 H 0.08215 0.76064 0.65939 0.0
H1093 H 0.1053 0.78218 0.6781 0.0
H1094 H 0.14603 0.71787 0.68526 0.0
H1095 H 0.12397 0.69669 0.66621 0.0
H1096 H 0.10619 0.77255 0.70399 0.0
H1097 H 0.19923 0.76711 0.68734 0.0
H1098 H 0.17332 0.76039 0.67592 0.0
H1099 H 0.18551 0.73775 0.68663 0.0
C1100 C 0.09646 0.75128 0.66472 0.0
C1101 C 0.10114 0.7269 0.66132 0.0
C1102 C 0.10958 0.76357 0.67547 0.0
C1103 C 0.12765 0.75176 0.68296 0.0
C1104 C 0.1326 0.72757 0.67943 0.0
H1105 H 0.17266 0.77007 0.76635 0.0
H1106 H 0.15284 0.76093 0.74407 0.0
C1107 C 0.11966 0.71535 0.66866 0.0
C1108 C 0.13991 0.76386 0.69521 0.0
H1109 H 0.19522 0.77304 0.71151 0.0
C1110 C 0.12568 0.77303 0.70554 0.0
C1111 C 0.16534 0.76495 0.69716 0.0
C1112 C 0.1817 0.75726 0.68609 0.0
C1113 C 0.13613 0.782 0.71803 0.0
C1114 C 0.16146 0.78114 0.72039 0.0
C1115 C 0.17577 0.77328 0.7098 0.0
C1116 C 0.17335 0.78714 0.73394 0.0
C1117 C 0.11987 0.79216 0.7286 0.0
C1118 C 0.19208 0.80434 0.73558 0.0
C1119 C 0.20376 0.80934 0.74831 0.0
C1120 C 0.1969 0.79722 0.75961 0.0
C1121 C 0.17823 0.77992 0.75789 0.0
C1122 C 0.16673 0.7748 0.74517 0.0
H1123 H 0.10292 0.79915 0.72386 0.0
H1124 H 0.11488 0.77763 0.7352 0.0
H1125 H 0.12893 0.80694 0.73502 0.0
H1126 H 0.19762 0.81393 0.72703 0.0
H1127 H 0.21808 0.82276 0.74929 0.0
H1128 H 0.46007 0.57323 0.91833 0.0
H1129 H 0.44028 0.59506 0.93663 0.0
H1130 H 0.40106 0.63698 0.90756 0.0
H1131 H 0.42109 0.61535 0.88911 0.0
H1132 H 0.44406 0.64727 0.94089 0.0
H1133 H 0.34921 0.61367 0.93351 0.0
H1134 H 0.37419 0.59706 0.92684 0.0
H1135 H 0.36369 0.62358 0.91894 0.0
C1136 C 0.44719 0.58705 0.91581 0.0
C1137 C 0.4423 0.59273 0.90229 0.0
C1138 C 0.43581 0.59939 0.92626 0.0
C1139 C 0.41917 0.61751 0.92342 0.0
C1140 C 0.41362 0.62279 0.90992 0.0
H1141 H 0.34824 0.71181 0.983 0.0
H1142 H 0.35987 0.69242 0.96151 0.0
C1143 C 0.42506 0.61043 0.89941 0.0
C1144 C 0.4092 0.63194 0.93474 0.0
H1145 H 0.3581 0.64203 0.95175 0.0
C1146 C 0.42524 0.64626 0.94322 0.0
C1147 C 0.38461 0.63073 0.93763 0.0
C1148 C 0.36683 0.61536 0.92884 0.0
C1149 C 0.41746 0.659 0.95474 0.0
C1150 C 0.39309 0.65698 0.95799 0.0
C1151 C 0.3768 0.64339 0.94924 0.0
C1152 C 0.38474 0.66773 0.97087 0.0
C1153 C 0.43545 0.67441 0.96339 0.0
C1154 C 0.39443 0.6598 0.98319 0.0
C1155 C 0.38793 0.67079 0.99542 0.0
C1156 C 0.37144 0.68988 0.99559 0.0
C1157 C 0.36107 0.69723 0.98322 0.0
C1158 C 0.36764 0.68618 0.97095 0.0
H1159 H 0.45119 0.67939 0.95764 0.0
H1160 H 0.42699 0.69118 0.96742 0.0
H1161 H 0.4422 0.66416 0.9721 0.0
H1162 H 0.40733 0.64527 0.98333 0.0
H1163 H 0.39611 0.66449 0.00474 0.0
H1164 H 0.53002 -0.00013 0.15861 0.0
H1165 H 0.5119 0.98209 0.17778 0.0
H1166 H 0.55497 0.91853 0.17192 0.0
H1167 H 0.57288 0.93598 0.15258 0.0
H1168 H 0.50434 0.90985 0.17637 0.0
H1169 H 0.54936 0.97426 0.21494 0.0
H1170 H 0.53304 0.98737 0.20103 0.0
H1171 H 0.55946 0.96994 0.19797 0.0
C1172 C 0.53543 0.98199 0.1613 0.0
C1173 C 0.55296 0.96936 0.15411 0.0
C1174 C 0.52521 0.97196 0.17232 0.0
C1175 C 0.53231 0.94914 0.17634 0.0
C1176 C 0.54935 0.93623 0.169 0.0
H1177 H 0.52117 0.87678 0.24984 0.0
H1178 H 0.53305 0.89731 0.23005 0.0
C1179 C 0.55967 0.94628 0.15802 0.0
C1180 C 0.52232 0.93882 0.18834 0.0
H1181 H 0.52243 0.94585 0.2228 0.0
C1182 C 0.50814 0.91776 0.18652 0.0
C1183 C 0.52752 0.94914 0.20156 0.0
C1184 C 0.54332 0.97133 0.20409 0.0
C1185 C 0.49908 0.90665 0.19761 0.0
C1186 C 0.50425 0.917 0.21083 0.0
C1187 C 0.51833 0.93812 0.21263 0.0
C1188 C 0.4966 0.90526 0.22298 0.0
C1189 C 0.48468 0.88353 0.19518 0.0
C1190 C 0.47214 0.90325 0.22567 0.0
C1191 C 0.46524 0.89157 0.23704 0.0
C1192 C 0.48273 0.88167 0.24587 0.0
C1193 C 0.50723 0.88411 0.24323 0.0
C1194 C 0.51407 0.89587 0.23193 0.0
H1195 H 0.48582 0.87573 0.18467 0.0
H1196 H 0.49108 0.86996 0.20234 0.0
H1197 H 0.46546 0.88717 0.19694 0.0
H1198 H 0.45841 0.91067 0.21896 0.0
H1199 H 0.44624 0.89002 0.23881 0.0
H1200 H 0.10825 0.69845 0.91205 0.0
H1201 H 0.12748 0.72706 0.89819 0.0
H1202 H 0.06721 0.77499 0.90208 0.0
H1203 H 0.04741 0.74588 0.91567 0.0
H1204 H 0.07664 0.7662 0.87622 0.0
H1205 H 0.16227 0.79061 0.90444 0.0
H1206 H 0.15866 0.75848 0.90314 0.0
H1207 H 0.13756 0.77664 0.91232 0.0
C1208 C 0.09922 0.71523 0.91012 0.0
C1209 C 0.07622 0.71981 0.91485 0.0
C1210 C 0.11041 0.73177 0.90235 0.0
C1211 C 0.09899 0.75339 0.89925 0.0
C1212 C 0.07646 0.75853 0.90446 0.0
H1213 H 0.18281 0.83042 0.84146 0.0
H1214 H 0.15824 0.82647 0.86114 0.0
C1215 C 0.06522 0.74193 0.91226 0.0
C1216 C 0.10922 0.76869 0.88912 0.0
H1217 H 0.16283 0.79095 0.8797 0.0
C1218 C 0.09531 0.77221 0.87714 0.0
C1219 C 0.13341 0.77706 0.89035 0.0
C1220 C 0.1487 0.77573 0.90334 0.0
C1221 C 0.10557 0.78175 0.86595 0.0
C1222 C 0.13048 0.78747 0.86668 0.0
C1223 C 0.14382 0.78615 0.87906 0.0
C1224 C 0.1436 0.79139 0.85434 0.0
C1225 C 0.08987 0.78464 0.85324 0.0
C1226 C 0.14354 0.77299 0.84407 0.0
C1227 C 0.15751 0.77513 0.83294 0.0
C1228 C 0.172 0.7957 0.83184 0.0
C1229 C 0.17173 0.81441 0.842 0.0
C1230 C 0.15775 0.81218 0.85324 0.0
H1231 H 0.07087 0.78812 0.85566 0.0
H1232 H 0.0964 0.79963 0.84738 0.0
H1233 H 0.09009 0.7677 0.84676 0.0
H1234 H 0.13324 0.75654 0.84486 0.0
H1235 H 0.15732 0.76036 0.82533 0.0
H1236 H 0.51107 0.55787 0.12894 0.0
H1237 H 0.48328 0.57883 0.11383 0.0
H1238 H 0.43898 0.59737 0.14718 0.0
H1239 H 0.46739 0.57736 0.16256 0.0
H1240 H 0.43507 0.57073 0.10735 0.0
H1241 H 0.45042 0.6626 0.13184 0.0
H1242 H 0.46972 0.63761 0.13565 0.0
H1243 H 0.44066 0.64 0.14268 0.0
C1244 C 0.49563 0.56669 0.13313 0.0
C1245 C 0.49165 0.56616 0.14701 0.0
C1246 C 0.47961 0.57846 0.12445 0.0
C1247 C 0.45922 0.58993 0.12941 0.0
C1248 C 0.45483 0.58901 0.14318 0.0
H1249 H 0.36123 0.67747 0.07882 0.0
H1250 H 0.37466 0.65247 0.09752 0.0
C1251 C 0.47095 0.57732 0.15192 0.0
C1252 C 0.44288 0.60291 0.12003 0.0
H1253 H 0.42398 0.65923 0.11246 0.0
C1254 C 0.4324 0.59003 0.10857 0.0
C1255 C 0.43932 0.6281 0.12166 0.0
C1256 C 0.45073 0.643 0.13355 0.0
C1257 C 0.41928 0.6018 0.09843 0.0
C1258 C 0.41666 0.62706 0.09978 0.0
C1259 C 0.42598 0.63981 0.11155 0.0
C1260 C 0.40735 0.64089 0.08832 0.0
C1261 C 0.40897 0.5873 0.08611 0.0
C1262 C 0.42135 0.6426 0.07708 0.0
C1263 C 0.41395 0.65694 0.06656 0.0
C1264 C 0.39228 0.66979 0.06702 0.0
C1265 C 0.37794 0.66767 0.07817 0.0
C1266 C 0.38558 0.65348 0.08884 0.0
H1267 H 0.40722 0.56788 0.08806 0.0
H1268 H 0.391 0.59417 0.08279 0.0
H1269 H 0.42115 0.58898 0.07769 0.0
H1270 H 0.43835 0.63322 0.07659 0.0
H1271 H 0.42537 0.65814 0.0581 0.0
H1272 H 0.52621 0.95929 0.42464 0.0
H1273 H 0.5103 0.9288 0.40737 0.0
H1274 H 0.54223 0.96779 0.37633 0.0
H1275 H 0.55806 0.99812 0.39337 0.0
H1276 H 0.47973 0.94204 0.38101 0.0
H1277 H 0.56545 0.89349 0.3733 0.0
H1278 H 0.55941 0.90984 0.38902 0.0
H1279 H 0.56733 0.92591 0.37465 0.0
C1280 C 0.52982 0.96126 0.41413 0.0
C1281 C 0.54318 0.98115 0.41031 0.0
C1282 C 0.52074 0.94391 0.40432 0.0
C1283 C 0.5253 0.94608 0.39065 0.0
C1284 C 0.53868 0.96582 0.38685 0.0
H1285 H 0.502 0.88567 0.3109 0.0
H1286 H 0.51623 0.90469 0.33271 0.0
C1287 C 0.54751 0.9832 0.39658 0.0
C1288 C 0.51568 0.92826 0.38009 0.0
H1289 H 0.5337 0.88629 0.35643 0.0
C1290 C 0.49131 0.92946 0.37576 0.0
C1291 C 0.53103 0.91213 0.37329 0.0
C1292 C 0.55726 0.91002 0.37781 0.0
C1293 C 0.48211 0.91581 0.36425 0.0
C1294 C 0.49766 0.90018 0.35715 0.0
C1295 C 0.52183 0.89827 0.36188 0.0
C1296 C 0.48975 0.88719 0.34418 0.0
C1297 C 0.45621 0.91932 0.35936 0.0
C1298 C 0.47051 0.8706 0.34344 0.0
C1299 C 0.46217 0.85983 0.33095 0.0
C1300 C 0.47316 0.86525 0.31901 0.0
C1301 C 0.49308 0.88113 0.31989 0.0
C1302 C 0.50127 0.892 0.33235 0.0
H1303 H 0.44839 0.93579 0.36418 0.0
H1304 H 0.45467 0.92065 0.34821 0.0
H1305 H 0.44525 0.9036 0.36192 0.0
H1306 H 0.46173 0.8662 0.3525 0.0
H1307 H 0.44694 0.84749 0.33065 0.0
H1308 H 0.19374 0.04116 0.66922 0.0
H1309 H 0.22142 0.02228 0.65368 0.0
H1310 H 0.27071 0.08251 0.6612 0.0
H1311 H 0.24259 0.10191 0.67653 0.0
H1312 H 0.26028 0.07351 0.63463 0.0
H1313 H 0.28476 0.9878 0.65702 0.0
H1314 H 0.2527 0.99139 0.65628 0.0
H1315 H 0.27158 0.01237 0.66668 0.0
C1316 C 0.21066 0.05021 0.66774 0.0
C1317 C 0.21591 0.07309 0.67402 0.0
C1318 C 0.22663 0.03926 0.65898 0.0
C1319 C 0.24833 0.05081 0.6564 0.0
C1320 C 0.25417 0.07318 0.66314 0.0
H1321 H 0.32618 0.9696 0.59359 0.0
H1322 H 0.3213 0.99417 0.61464 0.0
C1323 C 0.23815 0.08418 0.67194 0.0
C1324 C 0.26306 0.04086 0.64539 0.0
H1325 H 0.28531 0.98793 0.63239 0.0
C1326 C 0.26631 0.05497 0.63429 0.0
C1327 C 0.27137 0.01684 0.64499 0.0
C1328 C 0.27015 0.00135 0.65697 0.0
C1329 C 0.27575 0.04508 0.62239 0.0
C1330 C 0.28168 0.02035 0.6215 0.0
C1331 C 0.2804 0.00681 0.63299 0.0
C1332 C 0.2862 0.00755 0.60836 0.0
C1333 C 0.27847 0.061 0.61071 0.0
C1334 C 0.26814 0.00701 0.59787 0.0
C1335 C 0.27083 0.99304 0.58594 0.0
C1336 C 0.29161 0.97917 0.58423 0.0
C1337 C 0.31003 0.9802 0.59458 0.0
C1338 C 0.30725 0.99416 0.60661 0.0
H1339 H 0.28158 0.08011 0.61435 0.0
H1340 H 0.29362 0.05511 0.6045 0.0
H1341 H 0.26159 0.06016 0.60415 0.0
H1342 H 0.25151 0.01673 0.59911 0.0
H1343 H 0.25627 0.99261 0.57819 0.0
H1344 H 0.61751 0.4694 0.88699 0.0
H1345 H 0.63638 0.44162 0.90248 0.0
H1346 H 0.57743 0.39118 0.89372 0.0
H1347 H 0.55801 0.41937 0.87846 0.0
H1348 H 0.58535 0.40077 0.92047 0.0
H1349 H 0.67234 0.37915 0.89871 0.0
H1350 H 0.66801 0.41111 0.89986 0.0
H1351 H 0.64777 0.39221 0.889 0.0
C1352 C 0.60873 0.45224 0.8882 0.0
C1353 C 0.5862 0.44665 0.88157 0.0
C1354 C 0.61969 0.43622 0.89694 0.0
C1355 C 0.6085 0.41414 0.89914 0.0
C1356 C 0.58649 0.40802 0.89209 0.0
H1357 H 0.68931 0.33436 0.96123 0.0
H1358 H 0.6651 0.33998 0.94015 0.0
C1359 C 0.57548 0.42408 0.88331 0.0
C1360 C 0.61841 0.39916 0.91005 0.0
H1361 H 0.67133 0.37716 0.92322 0.0
C1362 C 0.604 0.39507 0.92091 0.0
C1363 C 0.64259 0.39128 0.91057 0.0
C1364 C 0.65845 0.39344 0.89882 0.0
C1365 C 0.61367 0.38515 0.93273 0.0
C1366 C 0.63847 0.37958 0.93378 0.0
C1367 C 0.65238 0.38177 0.92249 0.0
C1368 C 0.65093 0.37448 0.94692 0.0
C1369 C 0.59739 0.38149 0.94415 0.0
C1370 C 0.65088 0.39192 0.95771 0.0
C1371 C 0.66464 0.38881 0.96967 0.0
C1372 C 0.67889 0.36822 0.9711 0.0
C1373 C 0.6784 0.35035 0.96046 0.0
C1374 C 0.66465 0.35356 0.94841 0.0
H1375 H 0.57843 0.37825 0.94026 0.0
H1376 H 0.60332 0.36608 0.95014 0.0
H1377 H 0.59776 0.39803 0.95098 0.0
H1378 H 0.6409 0.40846 0.95669 0.0
H1379 H 0.66465 0.40295 0.97765 0.0
H1380 H 0.73154 0.08969 0.13405 0.0
H1381 H 0.75527 0.11091 0.15271 0.0
H1382 H 0.69124 0.14725 0.16534 0.0
H1383 H 0.66763 0.12656 0.14659 0.0
H1384 H 0.73025 0.177 0.16791 0.0
H1385 H 0.75127 0.09018 0.19099 0.0
H1386 H 0.76154 0.09225 0.17423 0.0
H1387 H 0.72975 0.09231 0.17682 0.0
C1388 C 0.72265 0.10246 0.14072 0.0
C1389 C 0.69774 0.10639 0.13893 0.0
C1390 C 0.73617 0.11445 0.1514 0.0
C1391 C 0.7249 0.1302 0.1606 0.0
C1392 C 0.70029 0.1351 0.15839 0.0
H1393 H 0.76396 0.167 0.24417 0.0
H1394 H 0.74721 0.15069 0.22223 0.0
C1395 C 0.68684 0.12334 0.14764 0.0
C1396 C 0.73821 0.14061 0.17296 0.0
H1397 H 0.76804 0.12535 0.20226 0.0
C1398 C 0.73864 0.16575 0.17541 0.0
C1399 C 0.74878 0.12583 0.18282 0.0
C1400 C 0.74767 0.09865 0.18119 0.0
C1401 C 0.74911 0.17652 0.1875 0.0
C1402 C 0.75999 0.16174 0.19726 0.0
C1403 C 0.75984 0.13664 0.19473 0.0
C1404 C 0.77048 0.17176 0.21049 0.0
C1405 C 0.74756 0.20351 0.18993 0.0
C1406 C 0.78934 0.18881 0.21119 0.0
C1407 C 0.7988 0.19836 0.22374 0.0
C1408 C 0.78982 0.19074 0.23582 0.0
C1409 C 0.7713 0.17325 0.23507 0.0
C1410 C 0.76171 0.16391 0.22253 0.0
H1411 H 0.73334 0.2113 0.1832 0.0
H1412 H 0.74371 0.20845 0.2006 0.0
H1413 H 0.76504 0.2119 0.18781 0.0
H1414 H 0.79682 0.19467 0.20204 0.0
H1415 H 0.81322 0.21164 0.22396 0.0
H1416 H 0.0723 0.18348 0.3879 0.0
H1417 H 0.04843 0.20877 0.40306 0.0
H1418 H 0.10095 0.19882 0.43594 0.0
H1419 H 0.12487 0.17371 0.42088 0.0
H1420 H 0.02768 0.19506 0.42524 0.0
H1421 H 0.09059 0.2707 0.43994 0.0
H1422 H 0.09511 0.24985 0.42568 0.0
H1423 H 0.1044 0.24215 0.4426 0.0
C1424 C 0.07882 0.18684 0.39834 0.0
C1425 C 0.1005 0.17665 0.40319 0.0
C1426 C 0.06525 0.2014 0.40696 0.0
C1427 C 0.07313 0.20608 0.42057 0.0
C1428 C 0.09487 0.1961 0.42539 0.0
H1429 H 0.99672 0.22549 0.49129 0.0
H1430 H 0.01882 0.21315 0.47158 0.0
C1431 C 0.10849 0.18165 0.41677 0.0
C1432 C 0.05766 0.21945 0.43008 0.0
H1433 H 0.05877 0.26428 0.45514 0.0
C1434 C 0.03434 0.21047 0.4316 0.0
C1435 C 0.06616 0.23981 0.43824 0.0
C1436 C 0.09035 0.25135 0.43643 0.0
C1437 C 0.01989 0.22036 0.44161 0.0
C1438 C 0.02916 0.23943 0.45048 0.0
C1439 C 0.05185 0.24942 0.44844 0.0
C1440 C 0.01639 0.24771 0.46258 0.0
C1441 C 0.99497 0.20993 0.44279 0.0
C1442 C 0.00842 0.27155 0.4643 0.0
C1443 C 0.99577 0.27878 0.47567 0.0
C1444 C 0.99112 0.26227 0.4855 0.0
C1445 C -0.00021 0.23863 0.48387 0.0
C1446 C 0.01234 0.23148 0.47257 0.0
H1447 H 0.98788 0.20104 0.43304 0.0
H1448 H 0.99579 0.19612 0.45047 0.0
H1449 H 0.98216 0.22409 0.44602 0.0
H1450 H 0.01159 0.28439 0.45673 0.0
H1451 H 0.98938 0.29713 0.47666 0.0
H1452 H 0.92028 0.57368 0.62384 0.0
H1453 H 0.89236 0.54993 0.6363 0.0
H1454 H 0.91592 0.58958 0.6734 0.0
H1455 H 0.94314 0.61363 0.66103 0.0
H1456 H 0.90713 0.5205 0.65547 0.0
H1457 H 0.84459 0.58567 0.67804 0.0
H1458 H 0.86254 0.59278 0.6641 0.0
H1459 H 0.87505 0.59615 0.68129 0.0
C1460 C 0.91894 0.57775 0.63459 0.0
C1461 C 0.93402 0.59535 0.64149 0.0
C1462 C 0.90304 0.56416 0.64169 0.0
C1463 C 0.90177 0.56818 0.65576 0.0
C1464 C 0.91607 0.5865 0.66252 0.0
H1465 H 0.90343 0.48255 0.72062 0.0
H1466 H 0.90757 0.50628 0.70097 0.0
C1467 C 0.93192 0.60001 0.65546 0.0
C1468 C 0.88841 0.55127 0.66379 0.0
H1469 H 0.85344 0.55009 0.69104 0.0
C1470 C 0.89483 0.52686 0.66298 0.0
C1471 C 0.87206 0.55938 0.67348 0.0
C1472 C 0.86297 0.5849 0.67416 0.0
C1473 C 0.88713 0.51093 0.67239 0.0
C1474 C 0.87293 0.51971 0.68296 0.0
C1475 C 0.86466 0.5435 0.68304 0.0
C1476 C 0.86955 0.50549 0.69492 0.0
C1477 C 0.89526 0.48508 0.67135 0.0
C1478 C 0.84663 0.49773 0.69826 0.0
C1479 C 0.84414 0.48403 0.70959 0.0
C1480 C 0.86454 0.47821 0.71779 0.0
C1481 C 0.88733 0.48658 0.71452 0.0
C1482 C 0.88978 0.50006 0.70323 0.0
H1483 H 0.89934 0.47938 0.6608 0.0
H1484 H 0.91197 0.48324 0.67787 0.0
H1485 H 0.88134 0.47273 0.67481 0.0
H1486 H 0.83078 0.50198 0.692 0.0
H1487 H 0.82634 0.47789 0.71187 0.0
H1488 H 0.64953 0.11596 0.3854 0.0
H1489 H 0.67034 0.13265 0.3669 0.0
H1490 H 0.72325 0.16611 0.39562 0.0
H1491 H 0.70253 0.14931 0.41425 0.0
H1492 H 0.68098 0.17956 0.36126 0.0
H1493 H 0.76455 0.12686 0.36991 0.0
H1494 H 0.73703 0.12044 0.37794 0.0
H1495 H 0.75599 0.14538 0.38426 0.0
C1496 C 0.66545 0.12709 0.38781 0.0
C1497 C 0.67442 0.13127 0.4013 0.0
C1498 C 0.67736 0.13656 0.37722 0.0
C1499 C 0.6985 0.15037 0.37986 0.0
C1500 C 0.70723 0.15509 0.39333 0.0
H1501 H 0.76602 0.2273 0.31604 0.0
H1502 H 0.74525 0.21864 0.33648 0.0
C1503 C 0.69538 0.1455 0.40395 0.0
C1504 C 0.71152 0.15928 0.36842 0.0
H1505 H 0.76427 0.15398 0.35245 0.0
C1506 C 0.69925 0.17411 0.35935 0.0
C1507 C 0.73526 0.15191 0.36591 0.0
C1508 C 0.74897 0.13511 0.37493 0.0
C1509 C 0.70995 0.18149 0.34772 0.0
C1510 C 0.7337 0.17417 0.34524 0.0
C1511 C 0.7461 0.15968 0.35443 0.0
C1512 C 0.74554 0.17988 0.33272 0.0
C1513 C 0.69542 0.19628 0.33794 0.0
C1514 C 0.75281 0.161 0.32393 0.0
C1515 C 0.7648 0.16587 0.31236 0.0
C1516 C 0.76981 0.18976 0.30933 0.0
C1517 C 0.76227 0.20872 0.31805 0.0
C1518 C 0.75033 0.2038 0.3297 0.0
H1519 H 0.67587 0.19578 0.33976 0.0
H1520 H 0.70166 0.21534 0.33918 0.0
H1521 H 0.6979 0.18976 0.32732 0.0
H1522 H 0.74929 0.14242 0.32605 0.0
H1523 H 0.77033 0.15083 0.30586 0.0
H1524 H 0.04444 0.23493 0.66538 0.0
H1525 H 0.02351 0.25469 0.64657 0.0
H1526 H 0.06966 0.21852 0.61852 0.0
H1527 H 0.09076 0.19901 0.63716 0.0
H1528 H 0.04307 0.28383 0.62458 0.0
H1529 H 0.99816 0.1974 0.60652 0.0
H1530 H 0.01137 0.20258 0.62351 0.0
H1531 H 0.03025 0.19568 0.6097 0.0
C1532 C 0.05036 0.23153 0.65523 0.0
C1533 C 0.06901 0.21516 0.65271 0.0
C1534 C 0.03837 0.24277 0.64452 0.0
C1535 C 0.04487 0.23773 0.63119 0.0
C1536 C 0.06419 0.22231 0.62874 0.0
H1537 H 0.00169 0.2613 0.54952 0.0
H1538 H 0.02087 0.25124 0.57118 0.0
C1539 C 0.07613 0.21112 0.63939 0.0
C1540 C 0.03083 0.24739 0.61965 0.0
H1541 H 0.99582 0.2293 0.59152 0.0
C1542 C 0.03247 0.27205 0.61741 0.0
C1543 C 0.01697 0.2319 0.61041 0.0
C1544 C 0.01384 0.20544 0.61267 0.0
C1545 C 0.02145 0.28144 0.60574 0.0
C1546 C 0.00834 0.26573 0.59625 0.0
C1547 C 0.00605 0.24125 0.59878 0.0
C1548 C 0.9978 0.27382 0.58326 0.0
C1549 C 0.02471 0.30781 0.60334 0.0
C1550 C 0.97856 0.29003 0.5829 0.0
C1551 C 0.96749 0.29586 0.57049 0.0
C1552 C 0.97542 0.28543 0.55827 0.0
C1553 C 0.99505 0.26961 0.55872 0.0
C1554 C 0.00607 0.26384 0.57109 0.0
H1555 H 0.03886 0.31652 0.61037 0.0
H1556 H 0.02956 0.31018 0.59277 0.0
H1557 H 0.00747 0.31728 0.60488 0.0
H1558 H 0.97168 0.29762 0.59221 0.0
H1559 H 0.95238 0.30807 0.5705 0.0
H1560 H 0.92335 0.53474 0.89906 0.0
H1561 H 0.90447 0.51197 0.87924 0.0
H1562 H 0.94207 0.55665 0.85287 0.0
H1563 H 0.96081 0.57947 0.8725 0.0
H1564 H 0.87572 0.52798 0.85642 0.0
H1565 H 0.96182 0.48732 0.84142 0.0
H1566 H 0.95824 0.50157 0.858 0.0
H1567 H 0.96309 0.51958 0.84384 0.0
C1568 C 0.92738 0.53983 0.88902 0.0
C1569 C 0.94381 0.55867 0.88732 0.0
C1570 C 0.91666 0.52678 0.87774 0.0
C1571 C 0.92229 0.53236 0.86463 0.0
C1572 C 0.93795 0.55172 0.86292 0.0
H1573 H 0.88906 0.48526 0.78201 0.0
H1574 H 0.90266 0.50555 0.80361 0.0
C1575 C 0.94866 0.5647 0.87414 0.0
C1576 C 0.91217 0.51787 0.85265 0.0
H1577 H 0.92864 0.4835 0.82514 0.0
C1578 C 0.88719 0.51801 0.84964 0.0
C1579 C 0.92725 0.50484 0.84389 0.0
C1580 C 0.95407 0.50307 0.84699 0.0
C1581 C 0.87699 0.50624 0.83774 0.0
C1582 C 0.8922 0.49383 0.82879 0.0
C1583 C 0.91708 0.49319 0.832 0.0
C1584 C 0.88289 0.48198 0.81579 0.0
C1585 C 0.8502 0.50786 0.83458 0.0
C1586 C 0.86732 0.46195 0.81552 0.0
C1587 C 0.85951 0.45024 0.80318 0.0
C1588 C 0.86724 0.45835 0.7909 0.0
C1589 C 0.88274 0.47854 0.79125 0.0
C1590 C 0.89055 0.49017 0.80358 0.0
H1591 H 0.8418 0.52201 0.84109 0.0
H1592 H 0.84636 0.51177 0.82381 0.0
H1593 H 0.84155 0.49031 0.83631 0.0
H1594 H 0.86153 0.45512 0.82486 0.0
H1595 H 0.84762 0.43473 0.80328 0.0
H1596 H 0.68537 0.46039 0.1485 0.0
H1597 H 0.70345 0.44223 0.12841 0.0
H1598 H 0.64253 0.39368 0.1215 0.0
H1599 H 0.62447 0.41158 0.14161 0.0
H1600 H 0.68647 0.37193 0.11592 0.0
H1601 H 0.67509 0.45874 0.0911 0.0
H1602 H 0.69293 0.46082 0.1068 0.0
H1603 H 0.66149 0.45285 0.10672 0.0
C1604 C 0.67601 0.44562 0.14279 0.0
C1605 C 0.65341 0.43755 0.14653 0.0
C1606 C 0.68631 0.43532 0.13132 0.0
C1607 C 0.67405 0.417 0.12332 0.0
C1608 C 0.65223 0.40788 0.12751 0.0
H1609 H 0.6845 0.38276 0.03808 0.0
H1610 H 0.67226 0.39441 0.06079 0.0
C1611 C 0.64198 0.41806 0.13903 0.0
C1612 C 0.68296 0.40855 0.11008 0.0
H1613 H 0.69428 0.4275 0.07885 0.0
C1614 C 0.68828 0.38405 0.10781 0.0
C1615 C 0.68487 0.42437 0.09947 0.0
C1616 C 0.6781 0.45061 0.10105 0.0
C1617 C 0.69557 0.37495 0.09518 0.0
C1618 C 0.69792 0.39089 0.08467 0.0
C1619 C 0.6926 0.41536 0.08696 0.0
C1620 C 0.70514 0.38257 0.07102 0.0
C1621 C 0.70002 0.34828 0.0931 0.0
C1622 C 0.72772 0.37209 0.06924 0.0
C1623 C 0.73475 0.36529 0.05625 0.0
C1624 C 0.7194 0.36911 0.04481 0.0
C1625 C 0.69677 0.37959 0.04666 0.0
C1626 C 0.68974 0.38625 0.05964 0.0
H1627 H 0.69161 0.33783 0.10088 0.0
H1628 H 0.69288 0.34134 0.08293 0.0
H1629 H 0.71972 0.34504 0.09385 0.0
H1630 H 0.7401 0.36956 0.07787 0.0
H1631 H 0.75235 0.35739 0.05518 0.0
loop_
_geom_bond_atom_site_label_1
_geom_bond_atom_site_label_2
_geom_bond_distance
_geom_bond_site_symmetry_2
_ccdc_geom_bond_type
C0 C1 1.384 . S
C0 C2 1.384 . S
C0 H28 0.931 1_545 S
C1 C0 1.384 . S
C1 C4 1.382 . S
C2 C0 1.384 . S
C2 C3 1.381 . S
C2 H29 0.930 . S
C3 C2 1.381 . S
C3 C5 1.381 . S
C3 C6 1.487 . S
C4 C1 1.382 . S
C4 C5 1.387 . S
C4 H30 0.930 . S
C5 C3 1.381 . S
C5 C4 1.387 . S
C5 H31 0.931 . S
C6 C3 1.487 . S
C6 C13 1.399 . S
C6 N44 1.343 . S
C7 C8 1.384 1_545 S
C7 C9 1.384 . S
C7 H32 0.931 . S
C8 C7 1.384 1_565 S
C8 C11 1.382 . S
C9 C7 1.384 . S
C9 C10 1.381 . S
C9 H33 0.930 . S
C10 C9 1.381 . S
C10 C12 1.381 . S
C10 C13 1.487 . S
C11 C8 1.382 . S
C11 C12 1.387 1_565 S
C11 H34 0.930 . S
C12 C10 1.381 . S
C12 C11 1.387 1_545 S
C12 H35 0.931 . S
C13 C6 1.399 . S
C13 C10 1.487 . S
C13 N45 1.343 . S
C14 C15 1.384 . S
C14 C16 1.384 . S
C14 H36 0.931 . S
C15 C14 1.384 . S
C15 C18 1.382 . S
C16 C14 1.384 . S
C16 C17 1.381 . S
C16 H37 0.930 . S
C17 C16 1.381 . S
C17 C19 1.381 . S
C17 C20 1.487 . S
C18 C15 1.382 . S
C18 C19 1.387 . S
C18 H38 0.930 . S
C19 C17 1.381 . S
C19 C18 1.387 . S
C19 H39 0.931 . S
C20 C17 1.487 . S
C20 C27 1.399 . S
C20 N45 1.343 . S
C21 C22 1.384 . S
C21 C23 1.384 . S
C21 H40 0.931 . S
C22 C21 1.384 . S
C22 C25 1.382 . S
C23 C21 1.384 . S
C23 C24 1.381 . S
C23 H41 0.930 . S
C24 C23 1.381 . S
C24 C26 1.381 . S
C24 C27 1.487 . S
C25 C22 1.382 . S
C25 C26 1.387 . S
C25 H42 0.930 . S
C26 C24 1.381 . S
C26 C25 1.387 . S
C26 H43 0.931 . S
C27 C20 1.399 . S
C27 C24 1.487 . S
C27 N44 1.343 . S
H28 C0 0.931 1_565 S
H29 C2 0.930 . S
H30 C4 0.930 . S
H31 C5 0.931 . S
H32 C7 0.931 . S
H33 C9 0.930 . S
H34 C11 0.930 . S
H35 C12 0.931 . S
H36 C14 0.931 . S
H37 C16 0.930 . S
H38 C18 0.930 . S
H39 C19 0.931 . S
H40 C21 0.931 . S
H41 C23 0.930 . S
H42 C25 0.930 . S
H43 C26 0.931 . S
N44 C6 1.343 . S
N44 C27 1.343 . S
N45 C13 1.343 . S
N45 C20 1.343 . S
C46 C47 1.384 . S
C46 C48 1.384 . S
C46 H74 0.931 . S
C47 C46 1.384 . S
C47 C50 1.382 1_655 S
C48 C46 1.384 . S
C48 C49 1.381 1_655 S
C48 H75 0.930 . S
C49 C48 1.381 1_455 S
C49 C51 1.381 . S
C49 C52 1.487 . S
C50 C47 1.382 1_455 S
C50 C51 1.387 . S
C50 H76 0.930 . S
C51 C49 1.381 . S
C51 C50 1.387 . S
C51 H77 0.931 . S
C52 C49 1.487 . S
C52 C59 1.399 . S
C52 N90 1.343 . S
C53 C54 1.384 . S
C53 C55 1.384 . S
C53 H78 0.931 . S
C54 C53 1.384 . S
C54 C57 1.382 . S
C55 C53 1.384 . S
C55 C56 1.381 . S
C55 H79 0.930 . S
C56 C55 1.381 . S
C56 C58 1.381 . S
C56 C59 1.487 . S
C57 C54 1.382 . S
C57 C58 1.387 . S
C57 H80 0.930 1_455 S
C58 C56 1.381 . S
C58 C57 1.387 . S
C58 H81 0.931 . S
C59 C52 1.399 . S
C59 C56 1.487 . S
C59 N91 1.343 . S
C60 C61 1.384 . S
C60 C62 1.384 . S
C60 H82 0.931 . S
C61 C60 1.384 . S
C61 C64 1.382 . S
C62 C60 1.384 . S
C62 C63 1.381 . S
C62 H83 0.930 . S
C63 C62 1.381 . S
C63 C65 1.381 . S
C63 C66 1.487 . S
C64 C61 1.382 . S
C64 C65 1.387 . S
C64 H84 0.930 . S
C65 C63 1.381 . S
C65 C64 1.387 . S
C65 H85 0.931 . S
C66 C63 1.487 . S
C66 C73 1.399 . S
C66 N91 1.343 . S
C67 C68 1.384 . S
C67 C69 1.384 . S
C67 H86 0.931 . S
C68 C67 1.384 . S
C68 C71 1.382 . S
C69 C67 1.384 . S
C69 C70 1.381 . S
C69 H87 0.930 . S
C70 C69 1.381 . S
C70 C72 1.381 . S
C70 C73 1.487 . S
C71 C68 1.382 . S
C71 C72 1.387 . S
C71 H88 0.930 . S
C72 C70 1.381 . S
C72 C71 1.387 . S
C72 H89 0.931 . S
C73 C66 1.399 . S
C73 C70 1.487 . S
C73 N90 1.343 . S
H74 C46 0.931 . S
H75 C48 0.930 . S
H76 C50 0.930 . S
H77 C51 0.931 . S
H78 C53 0.931 . S
H79 C55 0.930 . S
H80 C57 0.930 1_655 S
H81 C58 0.931 . S
H82 C60 0.931 . S
H83 C62 0.930 . S
H84 C64 0.930 . S
H85 C65 0.931 . S
H86 C67 0.931 . S
H87 C69 0.930 . S
H88 C71 0.930 . S
H89 C72 0.931 . S
N90 C52 1.343 . S
N90 C73 1.343 . S
N91 C59 1.343 . S
N91 C66 1.343 . S
C92 C93 1.384 . S
C92 C94 1.384 . S
C92 H120 0.931 . S
C93 C92 1.384 . S
C93 C96 1.382 . S
C94 C92 1.384 . S
C94 C95 1.381 . S
C94 H121 0.930 . S
C95 C94 1.381 . S
C95 C97 1.381 . S
C95 C98 1.487 . S
C96 C93 1.382 . S
C96 C97 1.387 . S
C96 H122 0.930 . S
C97 C95 1.381 . S
C97 C96 1.387 . S
C97 H123 0.931 . S
C98 C95 1.487 . S
C98 C105 1.399 . S
C98 N136 1.343 . S
C99 C100 1.384 . S
C99 C101 1.384 . S
C99 H124 0.931 . S
C100 C99 1.384 . S
C100 C103 1.382 . S
C101 C99 1.384 . S
C101 C102 1.381 . S
C101 H125 0.930 . S
C102 C101 1.381 . S
C102 C104 1.381 . S
C102 C105 1.487 . S
C103 C100 1.382 . S
C103 C104 1.387 . S
C103 H126 0.930 . S
C104 C102 1.381 . S
C104 C103 1.387 . S
C104 H127 0.931 . S
C105 C98 1.399 . S
C105 C102 1.487 . S
C105 N137 1.343 . S
C106 C107 1.384 . S
C106 C108 1.384 . S
C106 H128 0.931 . S
C107 C106 1.384 . S
C107 C110 1.382 . S
C108 C106 1.384 . S
C108 C109 1.381 . S
C108 H129 0.930 . S
C109 C108 1.381 . S
C109 C111 1.381 . S
C109 C112 1.487 . S
C110 C107 1.382 . S
C110 C111 1.387 . S
C110 H130 0.930 . S
C111 C109 1.381 . S
C111 C110 1.387 . S
C111 H131 0.931 . S
C112 C109 1.487 . S
C112 C119 1.399 . S
C112 N137 1.343 . S
C113 C114 1.384 . S
C113 C115 1.384 . S
C113 H132 0.931 . S
C114 C113 1.384 . S
C114 C117 1.382 . S
C115 C113 1.384 . S
C115 C116 1.381 . S
C115 H133 0.930 . S
C116 C115 1.381 . S
C116 C118 1.381 . S
C116 C119 1.487 . S
C117 C114 1.382 . S
C117 C118 1.387 . S
C117 H134 0.930 . S
C118 C116 1.381 . S
C118 C117 1.387 . S
C118 H135 0.931 . S
C119 C112 1.399 . S
C119 C116 1.487 . S
C119 N136 1.343 . S
H120 C92 0.931 . S
H121 C94 0.930 . S
H122 C96 0.930 . S
H123 C97 0.931 . S
H124 C99 0.931 . S
H125 C101 0.930 . S
H126 C103 0.930 . S
H127 C104 0.931 . S
H128 C106 0.931 . S
H129 C108 0.930 . S
H130 C110 0.930 . S
H131 C111 0.931 . S
H132 C113 0.931 . S
H133 C115 0.930 . S
H134 C117 0.930 . S
H135 C118 0.931 . S
N136 C98 1.343 . S
N136 C119 1.343 . S
N137 C105 1.343 . S
N137 C112 1.343 . S
C138 C139 1.384 . S
C138 C140 1.384 . S
C138 H166 0.931 . S
C139 C138 1.384 . S
C139 C142 1.382 . S
C140 C138 1.384 . S
C140 C141 1.381 . S
C140 H167 0.930 . S
C141 C140 1.381 . S
C141 C143 1.381 . S
C141 C144 1.487 . S
C142 C139 1.382 . S
C142 C143 1.387 . S
C142 H168 0.930 . S
C143 C141 1.381 . S
C143 C142 1.387 . S
C143 H169 0.931 . S
C144 C141 1.487 . S
C144 C151 1.399 . S
C144 N182 1.343 1_565 S
C145 C146 1.384 . S
C145 C147 1.384 . S
C145 H170 0.931 . S
C146 C145 1.384 . S
C146 C149 1.382 . S
C147 C145 1.384 . S
C147 C148 1.381 . S
C147 H171 0.930 . S
C148 C147 1.381 . S
C148 C150 1.381 . S
C148 C151 1.487 . S
C149 C146 1.382 . S
C149 C150 1.387 . S
C149 H172 0.930 . S
C150 C148 1.381 . S
C150 C149 1.387 . S
C150 H173 0.931 . S
C151 C144 1.399 . S
C151 C148 1.487 . S
C151 N183 1.365 . S
C152 C153 1.384 . S
C152 C154 1.384 . S
C152 H174 0.931 . S
C153 C152 1.384 . S
C153 C156 1.382 . S
C154 C152 1.384 . S
C154 C155 1.381 . S
C154 H175 0.930 . S
C155 C154 1.381 . S
C155 C157 1.381 . S
C155 C158 1.487 . S
C156 C153 1.382 . S
C156 C157 1.387 . S
C156 H176 0.930 . S
C157 C155 1.381 . S
C157 C156 1.387 . S
C157 H177 0.931 . S
C158 C155 1.487 . S
C158 C165 1.399 . S
C158 N183 1.317 1_545 S
C159 C160 1.384 . S
C159 C161 1.384 . S
C159 H178 0.931 . S
C160 C159 1.384 . S
C160 C163 1.382 . S
C161 C159 1.384 . S
C161 C162 1.381 . S
C161 H179 0.930 . S
C162 C161 1.381 . S
C162 C164 1.381 . S
C162 C165 1.487 . S
C163 C160 1.382 . S
C163 C164 1.387 . S
C163 H180 0.930 . S
C164 C162 1.381 . S
C164 C163 1.387 . S
C164 H181 0.931 . S
C165 C158 1.399 . S
C165 C162 1.487 . S
C165 N182 1.343 . S
H166 C138 0.931 . S
H167 C140 0.930 . S
H168 C142 0.930 . S
H169 C143 0.931 . S
H170 C145 0.931 . S
H171 C147 0.930 . S
H172 C149 0.930 . S
H173 C150 0.931 . S
H174 C152 0.931 . S
H175 C154 0.930 . S
H176 C156 0.930 . S
H177 C157 0.931 . S
H178 C159 0.931 . S
H179 C161 0.930 . S
H180 C163 0.930 . S
H181 C164 0.931 . S
N182 C144 1.343 1_545 S
N182 C165 1.343 . S
N183 C151 1.365 . S
N183 C158 1.317 1_565 S
C184 C185 1.384 . S
C184 C186 1.384 . S
C184 H212 0.931 . S
C185 C184 1.384 . S
C185 C188 1.382 . S
C186 C184 1.384 . S
C186 C187 1.381 . S
C186 H213 0.930 . S
C187 C186 1.381 . S
C187 C189 1.381 . S
C187 C190 1.487 . S
C188 C185 1.382 . S
C188 C189 1.387 . S
C188 H214 0.930 . S
C189 C187 1.381 . S
C189 C188 1.387 . S
C189 H215 0.931 . S
C190 C187 1.487 . S
C190 C197 1.399 . S
C190 N228 1.341 . S
C191 C192 1.384 . S
C191 C193 1.384 . S
C191 H216 0.931 . S
C192 C191 1.384 . S
C192 C195 1.382 . S
C193 C191 1.384 . S
C193 C194 1.381 . S
C193 H217 0.930 . S
C194 C193 1.381 . S
C194 C196 1.381 . S
C194 C197 1.487 . S
C195 C192 1.382 . S
C195 C196 1.387 . S
C195 H218 0.930 . S
C196 C194 1.381 . S
C196 C195 1.387 . S
C196 H219 0.931 . S
C197 C190 1.399 . S
C197 C194 1.487 . S
C197 N229 1.358 . S
C198 C199 1.384 . S
C198 C200 1.384 . S
C198 H220 0.931 . S
C199 C198 1.384 . S
C199 C202 1.382 . S
C200 C198 1.384 . S
C200 C201 1.381 . S
C200 H221 0.930 . S
C201 C200 1.381 . S
C201 C203 1.381 . S
C201 C204 1.487 . S
C202 C199 1.382 . S
C202 C203 1.387 . S
C202 H222 0.930 . S
C203 C201 1.381 . S
C203 C202 1.387 . S
C203 H223 0.931 . S
C204 C201 1.487 . S
C204 C211 1.399 . S
C204 N229 1.329 1_655 S
C205 C206 1.384 . S
C205 C207 1.384 . S
C205 H224 0.931 . S
C206 C205 1.384 . S
C206 C209 1.382 . S
C207 C205 1.384 . S
C207 C208 1.381 . S
C207 H225 0.930 . S
C208 C207 1.381 . S
C208 C210 1.381 . S
C208 C211 1.487 . S
C209 C206 1.382 . S
C209 C210 1.387 . S
C209 H226 0.930 . S
C210 C208 1.381 . S
C210 C209 1.387 . S
C210 H227 0.931 . S
C211 C204 1.399 . S
C211 C208 1.487 . S
C211 N228 1.345 1_655 S
H212 C184 0.931 . S
H213 C186 0.930 . S
H214 C188 0.930 . S
H215 C189 0.931 . S
H216 C191 0.931 . S
H217 C193 0.930 . S
H218 C195 0.930 . S
H219 C196 0.931 . S
H220 C198 0.931 . S
H221 C200 0.930 . S
H222 C202 0.930 . S
H223 C203 0.931 . S
H224 C205 0.931 . S
H225 C207 0.930 . S
H226 C209 0.930 . S
H227 C210 0.931 . S
N228 C190 1.341 . S
N228 C211 1.345 1_455 S
N229 C197 1.358 . S
N229 C204 1.329 1_455 S
C230 C231 1.384 . S
C230 C232 1.384 . S
C230 H258 0.931 . S
C231 C230 1.384 . S
C231 C234 1.382 . S
C232 C230 1.384 . S
C232 C233 1.381 . S
C232 H259 0.930 . S
C233 C232 1.381 . S
C233 C235 1.381 . S
C233 C236 1.487 . S
C234 C231 1.382 . S
C234 C235 1.387 . S
C234 H260 0.930 . S
C235 C233 1.381 . S
C235 C234 1.387 . S
C235 H261 0.931 . S
C236 C233 1.487 . S
C236 C243 1.399 . S
C236 N274 1.343 . S
C237 C238 1.384 . S
C237 C239 1.384 . S
C237 H262 0.931 . S
C238 C237 1.384 . S
C238 C241 1.382 . S
C239 C237 1.384 . S
C239 C240 1.381 . S
C239 H263 0.930 . S
C240 C239 1.381 . S
C240 C242 1.381 . S
C240 C243 1.487 . S
C241 C238 1.382 . S
C241 C242 1.387 . S
C241 H264 0.930 . S
C242 C240 1.381 . S
C242 C241 1.387 . S
C242 H265 0.931 . S
C243 C236 1.399 . S
C243 C240 1.487 . S
C243 N275 1.343 . S
C244 C245 1.384 . S
C244 C246 1.384 . S
C244 H266 0.931 . S
C245 C244 1.384 . S
C245 C248 1.382 . S
C246 C244 1.384 . S
C246 C247 1.381 . S
C246 H267 0.930 . S
C247 C246 1.381 . S
C247 C249 1.381 . S
C247 C250 1.487 . S
C248 C245 1.382 . S
C248 C249 1.387 . S
C248 H268 0.930 . S
C249 C247 1.381 . S
C249 C248 1.387 . S
C249 H269 0.931 . S
C250 C247 1.487 . S
C250 C257 1.399 . S
C250 N275 1.343 . S
C251 C252 1.384 . S
C251 C253 1.384 . S
C251 H270 0.931 . S
C252 C251 1.384 . S
C252 C255 1.382 . S
C253 C251 1.384 . S
C253 C254 1.381 . S
C253 H271 0.930 . S
C254 C253 1.381 . S
C254 C256 1.381 . S
C254 C257 1.487 . S
C255 C252 1.382 . S
C255 C256 1.387 . S
C255 H272 0.930 . S
C256 C254 1.381 . S
C256 C255 1.387 . S
C256 H273 0.931 . S
C257 C250 1.399 . S
C257 C254 1.487 . S
C257 N274 1.343 . S
H258 C230 0.931 . S
H259 C232 0.930 . S
H260 C234 0.930 . S
H261 C235 0.931 . S
H262 C237 0.931 . S
H263 C239 0.930 . S
H264 C241 0.930 . S
H265 C242 0.931 . S
H266 C244 0.931 . S
H267 C246 0.930 . S
H268 C248 0.930 . S
H269 C249 0.931 . S
H270 C251 0.931 . S
H271 C253 0.930 . S
H272 C255 0.930 . S
H273 C256 0.931 . S
N274 C236 1.343 . S
N274 C257 1.343 . S
N275 C243 1.343 . S
N275 C250 1.343 . S
C276 C277 1.384 . S
C276 C278 1.384 . S
C276 H304 0.931 . S
C277 C276 1.384 . S
C277 C280 1.382 . S
C278 C276 1.384 . S
C278 C279 1.381 . S
C278 H305 0.930 . S
C279 C278 1.381 . S
C279 C281 1.381 1_565 S
C279 C282 1.487 1_565 S
C280 C277 1.382 . S
C280 C281 1.387 1_565 S
C280 H306 0.930 . S
C281 C279 1.381 1_545 S
C281 C280 1.387 1_545 S
C281 H307 0.931 . S
C282 C279 1.487 1_545 S
C282 C289 1.399 . S
C282 N320 1.343 . S
C283 C284 1.388 . S
C283 C285 1.381 1_565 S
C283 H308 0.929 1_565 S
C284 C283 1.388 . S
C284 C287 1.382 . S
C285 C283 1.381 1_545 S
C285 C286 1.381 . S
C285 H309 0.930 . S
C286 C285 1.381 . S
C286 C288 1.381 1_545 S
C286 C289 1.487 . S
C287 C284 1.382 . S
C287 C288 1.387 . S
C287 H310 0.930 . S
C288 C286 1.381 1_565 S
C288 C287 1.387 . S
C288 H311 0.931 . S
C289 C282 1.399 . S
C289 C286 1.487 . S
C289 N321 1.343 . S
C290 C291 1.384 . S
C290 C292 1.384 . S
C290 H312 0.931 . S
C291 C290 1.384 . S
C291 C294 1.382 . S
C292 C290 1.384 . S
C292 C293 1.381 . S
C292 H313 0.930 . S
C293 C292 1.381 . S
C293 C295 1.381 . S
C293 C296 1.487 . S
C294 C291 1.382 . S
C294 C295 1.387 . S
C294 H314 0.930 . S
C295 C293 1.381 . S
C295 C294 1.387 . S
C295 H315 0.931 . S
C296 C293 1.487 . S
C296 C303 1.399 . S
C296 N321 1.343 . S
C297 C298 1.384 . S
C297 C299 1.384 . S
C297 H316 0.931 . S
C298 C297 1.384 . S
C298 C301 1.382 . S
C299 C297 1.384 . S
C299 C300 1.381 . S
C299 H317 0.930 . S
C300 C299 1.381 . S
C300 C302 1.381 . S
C300 C303 1.487 . S
C301 C298 1.382 . S
C301 C302 1.387 . S
C301 H318 0.930 . S
C302 C300 1.381 . S
C302 C301 1.387 . S
C302 H319 0.931 . S
C303 C296 1.399 . S
C303 C300 1.487 . S
C303 N320 1.343 . S
H304 C276 0.931 . S
H305 C278 0.930 . S
H306 C280 0.930 . S
H307 C281 0.931 . S
H308 C283 0.929 1_545 S
H309 C285 0.930 . S
H310 C287 0.930 . S
H311 C288 0.931 . S
H312 C290 0.931 . S
H313 C292 0.930 . S
H314 C294 0.930 . S
H315 C295 0.931 . S
H316 C297 0.931 . S
H317 C299 0.930 . S
H318 C301 0.930 . S
H319 C302 0.931 . S
N320 C282 1.343 . S
N320 C303 1.343 . S
N321 C289 1.343 . S
N321 C296 1.343 . S
C322 C323 1.384 . S
C322 C324 1.384 . S
C322 H350 0.931 . S
C323 C322 1.384 . S
C323 C326 1.382 . S
C324 C322 1.384 . S
C324 C325 1.381 . S
C324 H351 0.930 . S
C325 C324 1.381 . S
C325 C327 1.381 . S
C325 C328 1.487 . S
C326 C323 1.382 . S
C326 C327 1.387 . S
C326 H352 0.930 . S
C327 C325 1.381 . S
C327 C326 1.387 . S
C327 H353 0.931 . S
C328 C325 1.487 . S
C328 C335 1.399 . S
C328 N366 1.343 . S
C329 C330 1.384 . S
C329 C331 1.384 . S
C329 H354 0.931 . S
C330 C329 1.384 . S
C330 C333 1.382 . S
C331 C329 1.384 . S
C331 C332 1.381 . S
C331 H355 0.930 . S
C332 C331 1.381 . S
C332 C334 1.381 . S
C332 C335 1.487 . S
C333 C330 1.382 . S
C333 C334 1.387 . S
C333 H356 0.930 . S
C334 C332 1.381 . S
C334 C333 1.387 . S
C334 H357 0.931 . S
C335 C328 1.399 . S
C335 C332 1.487 . S
C335 N367 1.343 . S
C336 C337 1.384 . S
C336 C338 1.384 . S
C336 H358 0.931 . S
C337 C336 1.384 . S
C337 C340 1.382 . S
C338 C336 1.384 . S
C338 C339 1.381 . S
C338 H359 0.930 . S
C339 C338 1.381 . S
C339 C341 1.381 . S
C339 C342 1.487 . S
C340 C337 1.382 . S
C340 C341 1.387 . S
C340 H360 0.930 . S
C341 C339 1.381 . S
C341 C340 1.387 . S
C341 H361 0.931 . S
C342 C339 1.487 . S
C342 C349 1.399 . S
C342 N367 1.343 . S
C343 C344 1.384 . S
C343 C345 1.384 . S
C343 H362 0.931 . S
C344 C343 1.384 . S
C344 C347 1.382 . S
C345 C343 1.384 . S
C345 C346 1.381 . S
C345 H363 0.930 . S
C346 C345 1.381 . S
C346 C348 1.381 . S
C346 C349 1.487 . S
C347 C344 1.382 . S
C347 C348 1.387 . S
C347 H364 0.930 . S
C348 C346 1.381 . S
C348 C347 1.387 . S
C348 H365 0.931 . S
C349 C342 1.399 . S
C349 C346 1.487 . S
C349 N366 1.343 . S
H350 C322 0.931 . S
H351 C324 0.930 . S
H352 C326 0.930 . S
H353 C327 0.931 . S
H354 C329 0.931 . S
H355 C331 0.930 . S
H356 C333 0.930 . S
H357 C334 0.931 . S
H358 C336 0.931 . S
H359 C338 0.930 . S
H360 C340 0.930 . S
H361 C341 0.931 . S
H362 C343 0.931 . S
H363 C345 0.930 . S
H364 C347 0.930 . S
H365 C348 0.931 . S
N366 C328 1.343 . S
N366 C349 1.343 . S
N367 C335 1.343 . S
N367 C342 1.343 . S
O368 Cd369 2.223 . S
O368 C376 1.315 . S
Cd369 O368 2.223 . S
Cd369 O372 2.297 . S
Cd369 O373 2.439 . S
Cd369 O379 2.240 . S
Cd370 O371 2.240 . S
Cd370 O378 2.223 . S
Cd370 O380 2.297 . S
Cd370 O381 2.439 . S
O371 Cd370 2.240 . S
O371 C376 1.279 . S
O372 Cd369 2.297 . S
O372 C374 1.247 . S
O373 Cd369 2.439 . S
O373 C374 1.208 . S
C374 O372 1.247 . S
C374 O373 1.208 . S
C375 O380 1.247 . S
C375 O381 1.208 . S
C376 O368 1.315 . S
C376 O371 1.279 . S
C377 O378 1.315 . S
C377 O379 1.279 . S
O378 Cd370 2.223 . S
O378 C377 1.315 . S
O379 Cd369 2.240 . S
O379 C377 1.279 . S
O380 Cd370 2.297 . S
O380 C375 1.247 . S
O381 Cd370 2.439 . S
O381 C375 1.208 . S
O382 Cd383 2.223 . S
O382 C390 1.315 . S
Cd383 O382 2.223 . S
Cd383 O386 2.297 . S
Cd383 O387 2.439 . S
Cd383 O393 2.240 . S
Cd384 O385 2.240 . S
Cd384 O392 2.223 . S
Cd384 O394 2.297 . S
Cd384 O395 2.439 . S
O385 Cd384 2.240 . S
O385 C390 1.279 . S
O386 Cd383 2.297 . S
O386 C388 1.247 . S
O387 Cd383 2.439 . S
O387 C388 1.208 . S
C388 O386 1.247 . S
C388 O387 1.208 . S
C389 O394 1.247 . S
C389 O395 1.208 . S
C390 O382 1.315 . S
C390 O385 1.279 . S
C391 O392 1.315 . S
C391 O393 1.279 . S
O392 Cd384 2.223 . S
O392 C391 1.315 . S
O393 Cd383 2.240 . S
O393 C391 1.279 . S
O394 Cd384 2.297 . S
O394 C389 1.247 . S
O395 Cd384 2.439 . S
O395 C389 1.208 . S
O396 Cd397 2.223 . S
O396 C404 1.315 . S
Cd397 O396 2.223 . S
Cd397 O400 2.297 . S
Cd397 O401 2.439 . S
Cd397 O407 2.240 . S
Cd398 O399 2.240 . S
Cd398 O406 2.223 . S
Cd398 O408 2.297 . S
Cd398 O409 2.439 . S
O399 Cd398 2.240 . S
O399 C404 1.279 . S
O400 Cd397 2.297 . S
O400 C402 1.247 . S
O401 Cd397 2.439 . S
O401 C402 1.208 . S
C402 O400 1.247 . S
C402 O401 1.208 . S
C403 O408 1.247 . S
C403 O409 1.208 . S
C404 O396 1.315 . S
C404 O399 1.279 . S
C405 O406 1.315 . S
C405 O407 1.279 . S
O406 Cd398 2.223 . S
O406 C405 1.315 . S
O407 Cd397 2.240 . S
O407 C405 1.279 . S
O408 Cd398 2.297 . S
O408 C403 1.247 . S
O409 Cd398 2.439 . S
O409 C403 1.208 . S
O410 Cd411 2.223 . S
O410 C418 1.315 . S
Cd411 O410 2.223 . S
Cd411 O414 2.297 . S
Cd411 O415 2.439 . S
Cd411 O421 2.240 . S
Cd412 O413 2.240 . S
Cd412 O420 2.223 . S
Cd412 O422 2.297 . S
Cd412 O423 2.439 . S
O413 Cd412 2.240 . S
O413 C418 1.279 . S
O414 Cd411 2.297 . S
O414 C416 1.247 . S
O415 Cd411 2.439 . S
O415 C416 1.208 . S
C416 O414 1.247 . S
C416 O415 1.208 . S
C417 O422 1.247 . S
C417 O423 1.208 . S
C418 O410 1.315 . S
C418 O413 1.279 . S
C419 O420 1.315 . S
C419 O421 1.279 . S
O420 Cd412 2.223 . S
O420 C419 1.315 . S
O421 Cd411 2.240 . S
O421 C419 1.279 . S
O422 Cd412 2.297 . S
O422 C417 1.247 . S
O423 Cd412 2.439 . S
O423 C417 1.208 . S
O424 Cd425 2.223 . S
O424 C432 1.315 . S
Cd425 O424 2.223 . S
Cd425 O428 2.297 . S
Cd425 O429 2.439 . S
Cd425 O435 2.240 . S
Cd426 O427 2.240 . S
Cd426 O434 2.223 . S
Cd426 O436 2.297 . S
Cd426 O437 2.439 . S
O427 Cd426 2.240 . S
O427 C432 1.279 . S
O428 Cd425 2.297 . S
O428 C430 1.247 . S
O429 Cd425 2.439 . S
O429 C430 1.208 . S
C430 O428 1.247 . S
C430 O429 1.208 . S
C431 O436 1.247 . S
C431 O437 1.208 . S
C432 O424 1.315 . S
C432 O427 1.279 . S
C433 O434 1.315 . S
C433 O435 1.279 . S
O434 Cd426 2.223 . S
O434 C433 1.315 . S
O435 Cd425 2.240 . S
O435 C433 1.279 . S
O436 Cd426 2.297 . S
O436 C431 1.247 . S
O437 Cd426 2.439 . S
O437 C431 1.208 . S
O438 Cd439 2.223 . S
O438 C446 1.315 . S
Cd439 O438 2.223 . S
Cd439 O442 2.297 . S
Cd439 O443 2.439 . S
Cd439 O449 2.240 . S
Cd440 O441 2.240 . S
Cd440 O448 2.223 . S
Cd440 O450 2.297 . S
Cd440 O451 2.439 . S
O441 Cd440 2.240 . S
O441 C446 1.279 . S
O442 Cd439 2.297 . S
O442 C444 1.247 . S
O443 Cd439 2.439 . S
O443 C444 1.208 . S
C444 O442 1.247 . S
C444 O443 1.208 . S
C445 O450 1.247 . S
C445 O451 1.208 . S
C446 O438 1.315 . S
C446 O441 1.279 . S
C447 O448 1.315 . S
C447 O449 1.279 . S
O448 Cd440 2.223 . S
O448 C447 1.315 . S
O449 Cd439 2.240 . S
O449 C447 1.279 . S
O450 Cd440 2.297 . S
O450 C445 1.247 . S
O451 Cd440 2.439 . S
O451 C445 1.208 . S
O452 Cd453 2.223 . S
O452 C460 1.315 . S
Cd453 O452 2.223 . S
Cd453 O456 2.297 . S
Cd453 O457 2.439 . S
Cd453 O463 2.240 1_554 S
Cd454 O455 2.229 1_556 S
Cd454 O462 2.223 1_556 S
Cd454 O464 2.310 . S
Cd454 O465 2.448 . S
O455 Cd454 2.229 1_554 S
O455 C460 1.279 . S
O456 Cd453 2.297 . S
O456 C458 1.247 . S
O457 Cd453 2.439 . S
O457 C458 1.208 . S
C458 O456 1.247 . S
C458 O457 1.208 . S
C459 O464 1.247 . S
C459 O465 1.208 . S
C460 O452 1.315 . S
C460 O455 1.279 . S
C461 O462 1.310 1_556 S
C461 O463 1.285 . S
O462 Cd454 2.223 1_554 S
O462 C461 1.310 1_554 S
O463 Cd453 2.240 1_556 S
O463 C461 1.285 . S
O464 Cd454 2.310 . S
O464 C459 1.247 . S
O465 Cd454 2.448 . S
O465 C459 1.208 . S
O466 Cd467 2.223 . S
O466 C474 1.315 . S
Cd467 O466 2.223 . S
Cd467 O470 2.297 . S
Cd467 O471 2.439 . S
Cd467 O477 2.240 . S
Cd468 O469 2.240 . S
Cd468 O476 2.223 . S
Cd468 O478 2.297 . S
Cd468 O479 2.439 . S
O469 Cd468 2.240 . S
O469 C474 1.279 . S
O470 Cd467 2.297 . S
O470 C472 1.247 . S
O471 Cd467 2.439 . S
O471 C472 1.208 . S
C472 O470 1.247 . S
C472 O471 1.208 . S
C473 O478 1.247 . S
C473 O479 1.208 . S
C474 O466 1.315 . S
C474 O469 1.279 . S
C475 O476 1.315 . S
C475 O477 1.279 . S
O476 Cd468 2.223 . S
O476 C475 1.315 . S
O477 Cd467 2.240 . S
O477 C475 1.279 . S
O478 Cd468 2.297 . S
O478 C473 1.247 . S
O479 Cd468 2.439 . S
O479 C473 1.208 . S
H480 C488 0.929 1_545 S
H481 C490 0.930 . S
H482 C492 0.930 . S
H483 C495 0.929 . S
H484 C498 0.930 . S
H485 C500 0.960 . S
H486 C500 0.960 . S
H487 C500 0.960 . S
C488 H480 0.929 1_565 S
C488 C489 1.377 . S
C488 C490 1.384 . S
C489 C488 1.377 . S
C489 C495 1.390 . S
C490 H481 0.930 . S
C490 C488 1.384 . S
C490 C491 1.372 . S
C491 C490 1.372 . S
C491 C492 1.400 . S
C491 C496 1.490 . S
C492 H482 0.930 . S
C492 C491 1.400 . S
C492 C495 1.386 . S
H493 C509 0.930 . S
H494 C510 0.931 . S
C495 H483 0.929 . S
C495 C489 1.390 . S
C495 C492 1.386 . S
C496 C491 1.490 . S
C496 C498 1.395 . S
C496 C499 1.403 . S
H497 C503 0.930 . S
C498 H484 0.930 . S
C498 C496 1.395 . S
C498 C501 1.403 . S
C499 C496 1.403 . S
C499 C500 1.524 . S
C499 C503 1.400 . S
C500 H485 0.960 . S
C500 H486 0.960 . S
C500 H487 0.960 . S
C500 C499 1.524 . S
C501 C498 1.403 . S
C501 C502 1.392 . S
C501 C505 1.495 . S
C502 C501 1.392 . S
C502 C503 1.385 . S
C502 C504 1.478 . S
C503 H497 0.930 . S
C503 C499 1.400 . S
C503 C502 1.385 . S
C504 C502 1.478 . S
C504 C506 1.381 . S
C504 C510 1.383 . S
C505 C501 1.495 . S
C505 H511 0.959 . S
C505 H512 0.961 . S
C505 H513 0.960 . S
C506 C504 1.381 . S
C506 C507 1.394 . S
C506 H514 0.930 . S
C507 C506 1.394 . S
C507 C508 1.383 . S
C507 H515 0.929 . S
C508 C507 1.383 . S
C508 C509 1.377 . S
C509 H493 0.930 . S
C509 C508 1.377 . S
C509 C510 1.379 . S
C510 H494 0.931 . S
C510 C504 1.383 . S
C510 C509 1.379 . S
H511 C505 0.959 . S
H512 C505 0.961 . S
H513 C505 0.960 . S
H514 C506 0.930 . S
H515 C507 0.929 . S
H516 C524 0.929 . S
H517 C526 0.930 . S
H518 C528 0.930 . S
H519 C531 0.929 . S
H520 C534 0.930 . S
H521 C536 0.960 . S
H522 C536 0.960 . S
H523 C536 0.960 . S
C524 H516 0.929 . S
C524 C525 1.377 . S
C524 C526 1.384 . S
C525 C524 1.377 . S
C525 C531 1.390 . S
C526 H517 0.930 . S
C526 C524 1.384 . S
C526 C527 1.372 . S
C527 C526 1.372 . S
C527 C528 1.400 . S
C527 C532 1.490 . S
C528 H518 0.930 . S
C528 C527 1.400 . S
C528 C531 1.386 . S
H529 C545 0.930 . S
H530 C546 0.931 . S
C531 H519 0.929 . S
C531 C525 1.390 . S
C531 C528 1.386 . S
C532 C527 1.490 . S
C532 C534 1.395 . S
C532 C535 1.403 . S
H533 C539 0.930 . S
C534 H520 0.930 . S
C534 C532 1.395 . S
C534 C537 1.403 . S
C535 C532 1.403 . S
C535 C536 1.524 . S
C535 C539 1.400 . S
C536 H521 0.960 . S
C536 H522 0.960 . S
C536 H523 0.960 . S
C536 C535 1.524 . S
C537 C534 1.403 . S
C537 C538 1.392 . S
C537 C541 1.495 . S
C538 C537 1.392 . S
C538 C539 1.385 . S
C538 C540 1.478 . S
C539 H533 0.930 . S
C539 C535 1.400 . S
C539 C538 1.385 . S
C540 C538 1.478 . S
C540 C542 1.381 . S
C540 C546 1.383 . S
C541 C537 1.495 . S
C541 H547 0.959 . S
C541 H548 0.961 . S
C541 H549 0.960 . S
C542 C540 1.381 . S
C542 C543 1.394 . S
C542 H550 0.930 . S
C543 C542 1.394 . S
C543 C544 1.383 . S
C543 H551 0.929 . S
C544 C543 1.383 . S
C544 C545 1.377 . S
C545 H529 0.930 . S
C545 C544 1.377 . S
C545 C546 1.379 . S
C546 H530 0.931 . S
C546 C540 1.383 . S
C546 C545 1.379 . S
H547 C541 0.959 . S
H548 C541 0.961 . S
H549 C541 0.960 . S
H550 C542 0.930 . S
H551 C543 0.929 . S
H552 C560 0.929 . S
H553 C562 0.930 . S
H554 C564 0.930 . S
H555 C567 0.929 . S
H556 C570 0.930 . S
H557 C572 0.960 . S
H558 C572 0.960 . S
H559 C572 0.960 . S
C560 H552 0.929 . S
C560 C561 1.377 . S
C560 C562 1.384 . S
C561 C560 1.377 . S
C561 C567 1.390 . S
C562 H553 0.930 . S
C562 C560 1.384 . S
C562 C563 1.372 . S
C563 C562 1.372 . S
C563 C564 1.400 . S
C563 C568 1.490 . S
C564 H554 0.930 . S
C564 C563 1.400 . S
C564 C567 1.386 . S
H565 C581 0.930 . S
H566 C582 0.931 . S
C567 H555 0.929 . S
C567 C561 1.390 . S
C567 C564 1.386 . S
C568 C563 1.490 . S
C568 C570 1.395 . S
C568 C571 1.403 . S
H569 C575 0.930 . S
C570 H556 0.930 . S
C570 C568 1.395 . S
C570 C573 1.403 . S
C571 C568 1.403 . S
C571 C572 1.524 . S
C571 C575 1.400 . S
C572 H557 0.960 . S
C572 H558 0.960 . S
C572 H559 0.960 . S
C572 C571 1.524 . S
C573 C570 1.403 . S
C573 C574 1.392 . S
C573 C577 1.495 . S
C574 C573 1.392 . S
C574 C575 1.385 . S
C574 C576 1.478 . S
C575 H569 0.930 . S
C575 C571 1.400 . S
C575 C574 1.385 . S
C576 C574 1.478 . S
C576 C578 1.381 . S
C576 C582 1.383 . S
C577 C573 1.495 . S
C577 H583 0.959 . S
C577 H584 0.961 . S
C577 H585 0.960 . S
C578 C576 1.381 . S
C578 C579 1.394 . S
C578 H586 0.930 . S
C579 C578 1.394 . S
C579 C580 1.383 . S
C579 H587 0.929 . S
C580 C579 1.383 . S
C580 C581 1.377 . S
C581 H565 0.930 . S
C581 C580 1.377 . S
C581 C582 1.379 . S
C582 H566 0.931 . S
C582 C576 1.383 . S
C582 C581 1.379 . S
H583 C577 0.959 . S
H584 C577 0.961 . S
H585 C577 0.960 . S
H586 C578 0.930 . S
H587 C579 0.929 . S
H588 C596 0.929 . S
H589 C598 0.930 . S
H590 C600 0.930 . S
H591 C603 0.929 . S
H592 C606 0.930 . S
H593 C608 0.960 . S
H594 C608 0.960 . S
H595 C608 0.960 . S
C596 H588 0.929 . S
C596 C597 1.377 . S
C596 C598 1.384 . S
C597 C596 1.377 . S
C597 C603 1.390 . S
C598 H589 0.930 . S
C598 C596 1.384 . S
C598 C599 1.372 . S
C599 C598 1.372 . S
C599 C600 1.400 . S
C599 C604 1.490 . S
C600 H590 0.930 . S
C600 C599 1.400 . S
C600 C603 1.386 . S
H601 C617 0.930 . S
H602 C618 0.931 . S
C603 H591 0.929 . S
C603 C597 1.390 . S
C603 C600 1.386 . S
C604 C599 1.490 . S
C604 C606 1.395 . S
C604 C607 1.403 . S
H605 C611 0.930 . S
C606 H592 0.930 . S
C606 C604 1.395 . S
C606 C609 1.403 . S
C607 C604 1.403 . S
C607 C608 1.524 . S
C607 C611 1.400 . S
C608 H593 0.960 . S
C608 H594 0.960 . S
C608 H595 0.960 . S
C608 C607 1.524 . S
C609 C606 1.403 . S
C609 C610 1.392 . S
C609 C613 1.495 . S
C610 C609 1.392 . S
C610 C611 1.385 . S
C610 C612 1.478 . S
C611 H605 0.930 . S
C611 C607 1.400 . S
C611 C610 1.385 . S
C612 C610 1.478 . S
C612 C614 1.381 . S
C612 C618 1.383 . S
C613 C609 1.495 . S
C613 H619 0.959 . S
C613 H620 0.961 . S
C613 H621 0.960 . S
C614 C612 1.381 . S
C614 C615 1.394 . S
C614 H622 0.930 . S
C615 C614 1.394 . S
C615 C616 1.383 . S
C615 H623 0.929 . S
C616 C615 1.383 . S
C616 C617 1.377 . S
C617 H601 0.930 . S
C617 C616 1.377 . S
C617 C618 1.379 . S
C618 H602 0.931 . S
C618 C612 1.383 . S
C618 C617 1.379 . S
H619 C613 0.959 . S
H620 C613 0.961 . S
H621 C613 0.960 . S
H622 C614 0.930 . S
H623 C615 0.929 . S
H624 C632 0.929 . S
H625 C634 0.930 . S
H626 C636 0.930 . S
H627 C639 0.929 . S
H628 C642 0.930 1_556 S
H629 C644 0.960 . S
H630 C644 0.960 . S
H631 C644 0.960 . S
C632 H624 0.929 . S
C632 C633 1.377 . S
C632 C634 1.384 . S
C633 C632 1.377 . S
C633 C639 1.390 1_556 S
C634 H625 0.930 . S
C634 C632 1.384 . S
C634 C635 1.372 1_556 S
C635 C634 1.372 1_554 S
C635 C636 1.400 . S
C635 C640 1.490 . S
C636 H626 0.930 . S
C636 C635 1.400 . S
C636 C639 1.386 . S
H637 C653 0.930 . S
H638 C654 0.931 . S
C639 H627 0.929 . S
C639 C633 1.390 1_554 S
C639 C636 1.386 . S
C640 C635 1.490 . S
C640 C642 1.395 . S
C640 C643 1.403 . S
H641 C647 0.930 . S
C642 H628 0.930 1_554 S
C642 C640 1.395 . S
C642 C645 1.403 . S
C643 C640 1.403 . S
C643 C644 1.524 . S
C643 C647 1.400 . S
C644 H629 0.960 . S
C644 H630 0.960 . S
C644 H631 0.960 . S
C644 C643 1.524 . S
C645 C642 1.403 . S
C645 C646 1.392 . S
C645 C649 1.495 1_554 S
C646 C645 1.392 . S
C646 C647 1.385 . S
C646 C648 1.478 . S
C647 H641 0.930 . S
C647 C643 1.400 . S
C647 C646 1.385 . S
C648 C646 1.478 . S
C648 C650 1.381 . S
C648 C654 1.383 . S
C649 C645 1.495 1_556 S
C649 H655 0.959 . S
C649 H656 0.961 1_556 S
C649 H657 0.960 . S
C650 C648 1.381 . S
C650 C651 1.394 . S
C650 H658 0.930 . S
C651 C650 1.394 . S
C651 C652 1.383 . S
C651 H659 0.929 . S
C652 C651 1.383 . S
C652 C653 1.377 . S
C653 H637 0.930 . S
C653 C652 1.377 . S
C653 C654 1.379 . S
C654 H638 0.931 . S
C654 C648 1.383 . S
C654 C653 1.379 . S
H655 C649 0.959 . S
H656 C649 0.961 1_554 S
H657 C649 0.960 . S
H658 C650 0.930 . S
H659 C651 0.929 . S
H660 C668 0.929 . S
H661 C670 0.930 . S
H662 C672 0.930 . S
H663 C675 0.929 . S
H664 C678 0.930 . S
H665 C680 0.960 . S
H666 C680 0.960 . S
H667 C680 0.960 . S
C668 H660 0.929 . S
C668 C669 1.377 . S
C668 C670 1.384 . S
C669 C668 1.377 . S
C669 C675 1.390 . S
C670 H661 0.930 . S
C670 C668 1.384 . S
C670 C671 1.372 . S
C671 C670 1.372 . S
C671 C672 1.400 . S
C671 C676 1.490 . S
C672 H662 0.930 . S
C672 C671 1.400 . S
C672 C675 1.386 . S
H673 C689 0.930 . S
H674 C690 0.931 . S
C675 H663 0.929 . S
C675 C669 1.390 . S
C675 C672 1.386 . S
C676 C671 1.490 . S
C676 C678 1.395 . S
C676 C679 1.403 . S
H677 C683 0.930 . S
C678 H664 0.930 . S
C678 C676 1.395 . S
C678 C681 1.403 . S
C679 C676 1.403 . S
C679 C680 1.524 . S
C679 C683 1.400 . S
C680 H665 0.960 . S
C680 H666 0.960 . S
C680 H667 0.960 . S
C680 C679 1.524 . S
C681 C678 1.403 . S
C681 C682 1.392 . S
C681 C685 1.495 . S
C682 C681 1.392 . S
C682 C683 1.385 . S
C682 C684 1.478 . S
C683 H677 0.930 . S
C683 C679 1.400 . S
C683 C682 1.385 . S
C684 C682 1.478 . S
C684 C686 1.381 . S
C684 C690 1.383 . S
C685 C681 1.495 . S
C685 H691 0.959 . S
C685 H692 0.961 . S
C685 H693 0.960 . S
C686 C684 1.381 . S
C686 C687 1.394 . S
C686 H694 0.930 . S
C687 C686 1.394 . S
C687 C688 1.383 . S
C687 H695 0.929 . S
C688 C687 1.383 . S
C688 C689 1.377 . S
C689 H673 0.930 . S
C689 C688 1.377 . S
C689 C690 1.379 . S
C690 H674 0.931 . S
C690 C684 1.383 . S
C690 C689 1.379 . S
H691 C685 0.959 . S
H692 C685 0.961 . S
H693 C685 0.960 . S
H694 C686 0.930 . S
H695 C687 0.929 . S
H696 C704 0.929 . S
H697 C706 0.930 . S
H698 C708 0.930 1_545 S
H699 C711 0.961 . S
H700 C714 0.930 . S
H701 C716 0.960 . S
H702 C716 0.960 . S
H703 C716 0.960 1_545 S
C704 H696 0.929 . S
C704 C705 1.377 . S
C704 C706 1.384 . S
C705 C704 1.377 . S
C705 C711 1.366 1_565 S
C706 H697 0.930 . S
C706 C704 1.384 . S
C706 C707 1.372 . S
C707 C706 1.372 . S
C707 C708 1.400 . S
C707 C712 1.490 . S
C708 H698 0.930 1_565 S
C708 C707 1.400 . S
C708 C711 1.378 1_565 S
H709 C725 0.930 . S
H710 C726 0.931 . S
C711 H699 0.961 . S
C711 C705 1.366 1_545 S
C711 C708 1.378 1_545 S
C712 C707 1.490 . S
C712 C714 1.395 . S
C712 C715 1.403 . S
H713 C719 0.930 . S
C714 H700 0.930 . S
C714 C712 1.395 . S
C714 C717 1.403 . S
C715 C712 1.403 . S
C715 C716 1.524 . S
C715 C719 1.400 . S
C716 H701 0.960 . S
C716 H702 0.960 . S
C716 H703 0.960 1_565 S
C716 C715 1.524 . S
C717 C714 1.403 . S
C717 C718 1.392 . S
C717 C721 1.495 . S
C718 C717 1.392 . S
C718 C719 1.385 . S
C718 C720 1.478 . S
C719 H713 0.930 . S
C719 C715 1.400 . S
C719 C718 1.385 . S
C720 C718 1.478 . S
C720 C722 1.381 . S
C720 C726 1.383 . S
C721 C717 1.495 . S
C721 H727 0.959 . S
C721 H728 0.961 . S
C721 H729 0.960 . S
C722 C720 1.381 . S
C722 C723 1.394 . S
C722 H730 0.930 . S
C723 C722 1.394 . S
C723 C724 1.383 . S
C723 H731 0.929 . S
C724 C723 1.383 . S
C724 C725 1.377 . S
C725 H709 0.930 . S
C725 C724 1.377 . S
C725 C726 1.379 . S
C726 H710 0.931 . S
C726 C720 1.383 . S
C726 C725 1.379 . S
H727 C721 0.959 . S
H728 C721 0.961 . S
H729 C721 0.960 . S
H730 C722 0.930 . S
H731 C723 0.929 . S
H732 C740 0.929 . S
H733 C742 0.930 . S
H734 C744 0.930 . S
H735 C747 0.929 . S
H736 C750 0.930 . S
H737 C752 0.960 1_565 S
H738 C752 0.960 . S
H739 C752 0.960 . S
C740 H732 0.929 . S
C740 C741 1.377 . S
C740 C742 1.384 . S
C741 C740 1.377 . S
C741 C747 1.390 . S
C742 H733 0.930 . S
C742 C740 1.384 . S
C742 C743 1.372 . S
C743 C742 1.372 . S
C743 C744 1.400 . S
C743 C748 1.490 . S
C744 H734 0.930 . S
C744 C743 1.400 . S
C744 C747 1.386 . S
H745 C761 0.930 . S
H746 C762 0.931 . S
C747 H735 0.929 . S
C747 C741 1.390 . S
C747 C744 1.386 . S
C748 C743 1.490 . S
C748 C750 1.395 . S
C748 C751 1.403 . S
H749 C755 0.930 . S
C750 H736 0.930 . S
C750 C748 1.395 . S
C750 C753 1.403 . S
C751 C748 1.403 . S
C751 C752 1.524 . S
C751 C755 1.400 1_545 S
C752 H737 0.960 1_545 S
C752 H738 0.960 . S
C752 H739 0.960 . S
C752 C751 1.524 . S
C753 C750 1.403 . S
C753 C754 1.392 1_545 S
C753 C757 1.495 . S
C754 C753 1.392 1_565 S
C754 C755 1.385 . S
C754 C756 1.478 . S
C755 H749 0.930 . S
C755 C751 1.400 1_565 S
C755 C754 1.385 . S
C756 C754 1.478 . S
C756 C758 1.381 . S
C756 C762 1.383 . S
C757 C753 1.495 . S
C757 H763 0.959 . S
C757 H764 0.961 1_545 S
C757 H765 0.960 1_545 S
C758 C756 1.381 . S
C758 C759 1.394 . S
C758 H766 0.930 . S
C759 C758 1.394 . S
C759 C760 1.383 . S
C759 H767 0.929 . S
C760 C759 1.383 . S
C760 C761 1.377 . S
C761 H745 0.930 . S
C761 C760 1.377 . S
C761 C762 1.379 . S
C762 H746 0.931 . S
C762 C756 1.383 . S
C762 C761 1.379 . S
H763 C757 0.959 . S
H764 C757 0.961 1_565 S
H765 C757 0.960 1_565 S
H766 C758 0.930 . S
H767 C759 0.929 . S
H768 C776 0.929 . S
H769 C778 0.930 . S
H770 C780 0.930 . S
H771 C783 0.929 . S
H772 C786 0.930 . S
H773 C788 0.960 . S
H774 C788 0.960 . S
H775 C788 0.960 . S
C776 H768 0.929 . S
C776 C777 1.377 . S
C776 C778 1.384 . S
C777 C776 1.377 . S
C777 C783 1.390 . S
C778 H769 0.930 . S
C778 C776 1.384 . S
C778 C779 1.372 . S
C779 C778 1.372 . S
C779 C780 1.400 . S
C779 C784 1.490 . S
C780 H770 0.930 . S
C780 C779 1.400 . S
C780 C783 1.386 . S
H781 C797 0.930 . S
H782 C798 0.931 . S
C783 H771 0.929 . S
C783 C777 1.390 . S
C783 C780 1.386 . S
C784 C779 1.490 . S
C784 C786 1.395 . S
C784 C787 1.403 . S
H785 C791 0.930 . S
C786 H772 0.930 . S
C786 C784 1.395 . S
C786 C789 1.403 . S
C787 C784 1.403 . S
C787 C788 1.524 . S
C787 C791 1.400 . S
C788 H773 0.960 . S
C788 H774 0.960 . S
C788 H775 0.960 . S
C788 C787 1.524 . S
C789 C786 1.403 . S
C789 C790 1.392 . S
C789 C793 1.495 . S
C790 C789 1.392 . S
C790 C791 1.385 . S
C790 C792 1.478 . S
C791 H785 0.930 . S
C791 C787 1.400 . S
C791 C790 1.385 . S
C792 C790 1.478 . S
C792 C794 1.381 . S
C792 C798 1.383 . S
C793 C789 1.495 . S
C793 H799 0.959 . S
C793 H800 0.961 . S
C793 H801 0.960 . S
C794 C792 1.381 . S
C794 C795 1.394 . S
C794 H802 0.930 . S
C795 C794 1.394 . S
C795 C796 1.383 . S
C795 H803 0.929 . S
C796 C795 1.383 . S
C796 C797 1.377 . S
C797 H781 0.930 . S
C797 C796 1.377 . S
C797 C798 1.379 . S
C798 H782 0.931 . S
C798 C792 1.383 . S
C798 C797 1.379 . S
H799 C793 0.959 . S
H800 C793 0.961 . S
H801 C793 0.960 . S
H802 C794 0.930 . S
H803 C795 0.929 . S
H804 C812 0.929 . S
H805 C814 0.930 . S
H806 C816 0.930 . S
H807 C819 0.929 . S
H808 C822 0.930 . S
H809 C824 0.960 . S
H810 C824 0.960 . S
H811 C824 0.960 . S
C812 H804 0.929 . S
C812 C813 1.377 . S
C812 C814 1.384 . S
C813 C812 1.377 . S
C813 C819 1.390 . S
C814 H805 0.930 . S
C814 C812 1.384 . S
C814 C815 1.372 . S
C815 C814 1.372 . S
C815 C816 1.400 . S
C815 C820 1.490 . S
C816 H806 0.930 . S
C816 C815 1.400 . S
C816 C819 1.386 . S
H817 C833 0.930 . S
H818 C834 0.931 . S
C819 H807 0.929 . S
C819 C813 1.390 . S
C819 C816 1.386 . S
C820 C815 1.490 . S
C820 C822 1.395 . S
C820 C823 1.403 . S
H821 C827 0.930 . S
C822 H808 0.930 . S
C822 C820 1.395 . S
C822 C825 1.403 . S
C823 C820 1.403 . S
C823 C824 1.524 . S
C823 C827 1.400 . S
C824 H809 0.960 . S
C824 H810 0.960 . S
C824 H811 0.960 . S
C824 C823 1.524 . S
C825 C822 1.403 . S
C825 C826 1.392 . S
C825 C829 1.495 . S
C826 C825 1.392 . S
C826 C827 1.385 . S
C826 C828 1.478 . S
C827 H821 0.930 . S
C827 C823 1.400 . S
C827 C826 1.385 . S
C828 C826 1.478 . S
C828 C830 1.381 . S
C828 C834 1.383 . S
C829 C825 1.495 . S
C829 H835 0.959 . S
C829 H836 0.961 . S
C829 H837 0.960 . S
C830 C828 1.381 . S
C830 C831 1.394 . S
C830 H838 0.930 . S
C831 C830 1.394 . S
C831 C832 1.383 . S
C831 H839 0.916 1_554 S
C832 C831 1.383 . S
C832 C833 1.377 . S
C833 H817 0.930 . S
C833 C832 1.377 . S
C833 C834 1.379 . S
C834 H818 0.931 . S
C834 C828 1.383 . S
C834 C833 1.379 . S
H835 C829 0.959 . S
H836 C829 0.961 . S
H837 C829 0.960 . S
H838 C830 0.930 . S
H839 C831 0.916 1_556 S
H840 C848 0.929 . S
H841 C850 0.930 . S
H842 C852 0.930 1_655 S
H843 C855 0.929 . S
H844 C858 0.969 . S
H845 C860 0.960 . S
H846 C860 0.960 . S
H847 C860 0.960 . S
C848 H840 0.929 . S
C848 C849 1.377 . S
C848 C850 1.384 . S
C849 C848 1.377 . S
C849 C855 1.390 . S
C850 H841 0.930 . S
C850 C848 1.384 . S
C850 C851 1.372 . S
C851 C850 1.372 . S
C851 C852 1.400 . S
C851 C856 1.490 1_455 S
C852 H842 0.930 1_455 S
C852 C851 1.400 . S
C852 C855 1.386 . S
H853 C869 0.930 . S
H854 C870 0.931 . S
C855 H843 0.929 . S
C855 C849 1.390 . S
C855 C852 1.386 . S
C856 C851 1.490 1_655 S
C856 C858 1.395 . S
C856 C859 1.403 . S
H857 C863 0.930 . S
C858 H844 0.969 . S
C858 C856 1.395 . S
C858 C861 1.403 . S
C859 C856 1.403 . S
C859 C860 1.524 . S
C859 C863 1.400 . S
C860 H845 0.960 . S
C860 H846 0.960 . S
C860 H847 0.960 . S
C860 C859 1.524 . S
C861 C858 1.403 . S
C861 C862 1.392 . S
C861 C865 1.495 . S
C862 C861 1.392 . S
C862 C863 1.385 . S
C862 C864 1.478 . S
C863 H857 0.930 . S
C863 C859 1.400 . S
C863 C862 1.385 . S
C864 C862 1.478 . S
C864 C866 1.381 . S
C864 C870 1.383 . S
C865 C861 1.495 . S
C865 H871 0.959 . S
C865 H872 0.961 . S
C865 H873 0.960 . S
C866 C864 1.381 . S
C866 C867 1.394 . S
C866 H874 0.930 . S
C867 C866 1.394 . S
C867 C868 1.383 . S
C867 H875 0.929 . S
C868 C867 1.383 . S
C868 C869 1.377 . S
C869 H853 0.930 . S
C869 C868 1.377 . S
C869 C870 1.379 . S
C870 H854 0.931 . S
C870 C864 1.383 . S
C870 C869 1.379 . S
H871 C865 0.959 . S
H872 C865 0.961 . S
H873 C865 0.960 . S
H874 C866 0.930 . S
H875 C867 0.929 . S
H876 C884 0.929 . S
H877 C886 0.930 . S
H878 C888 0.930 . S
H879 C891 0.929 1_455 S
H880 C894 0.930 . S
H881 C896 0.960 . S
H882 C896 0.960 . S
H883 C896 0.960 . S
C884 H876 0.929 . S
C884 C885 1.377 . S
C884 C886 1.384 . S
C885 C884 1.377 . S
C885 C891 1.390 . S
C886 H877 0.930 . S
C886 C884 1.384 . S
C886 C887 1.372 . S
C887 C886 1.372 . S
C887 C888 1.400 . S
C887 C892 1.490 . S
C888 H878 0.930 . S
C888 C887 1.400 . S
C888 C891 1.386 . S
H889 C905 0.930 . S
H890 C906 0.931 . S
C891 H879 0.929 1_655 S
C891 C885 1.390 . S
C891 C888 1.386 . S
C892 C887 1.490 . S
C892 C894 1.395 . S
C892 C895 1.403 . S
H893 C899 0.930 . S
C894 H880 0.930 . S
C894 C892 1.395 . S
C894 C897 1.403 . S
C895 C892 1.403 . S
C895 C896 1.524 1_655 S
C895 C899 1.400 . S
C896 H881 0.960 . S
C896 H882 0.960 . S
C896 H883 0.960 . S
C896 C895 1.524 1_455 S
C897 C894 1.403 . S
C897 C898 1.392 . S
C897 C901 1.495 . S
C898 C897 1.392 . S
C898 C899 1.385 . S
C898 C900 1.478 . S
C899 H893 0.930 . S
C899 C895 1.400 . S
C899 C898 1.385 . S
C900 C898 1.478 . S
C900 C902 1.381 . S
C900 C906 1.383 . S
C901 C897 1.495 . S
C901 H907 0.959 . S
C901 H908 0.961 . S
C901 H909 0.960 . S
C902 C900 1.381 . S
C902 C903 1.394 . S
C902 H910 0.930 . S
C903 C902 1.394 . S
C903 C904 1.383 . S
C903 H911 0.929 . S
C904 C903 1.383 . S
C904 C905 1.377 . S
C905 H889 0.930 . S
C905 C904 1.377 . S
C905 C906 1.379 . S
C906 H890 0.931 . S
C906 C900 1.383 . S
C906 C905 1.379 . S
H907 C901 0.959 . S
H908 C901 0.961 . S
H909 C901 0.960 . S
H910 C902 0.930 . S
H911 C903 0.929 . S
H912 C920 0.929 . S
H913 C922 0.930 . S
H914 C924 0.930 . S
H915 C927 0.929 . S
H916 C930 0.930 . S
H917 C932 0.960 . S
H918 C932 0.960 . S
H919 C932 0.960 . S
C920 H912 0.929 . S
C920 C921 1.377 . S
C920 C922 1.384 . S
C921 C920 1.377 . S
C921 C927 1.390 . S
C922 H913 0.930 . S
C922 C920 1.384 . S
C922 C923 1.372 . S
C923 C922 1.372 . S
C923 C924 1.400 . S
C923 C928 1.490 . S
C924 H914 0.930 . S
C924 C923 1.400 . S
C924 C927 1.386 . S
H925 C941 0.930 . S
H926 C942 0.931 . S
C927 H915 0.929 . S
C927 C921 1.390 . S
C927 C924 1.386 . S
C928 C923 1.490 . S
C928 C930 1.395 . S
C928 C931 1.403 . S
H929 C935 0.930 . S
C930 H916 0.930 . S
C930 C928 1.395 . S
C930 C933 1.403 . S
C931 C928 1.403 . S
C931 C932 1.524 . S
C931 C935 1.400 . S
C932 H917 0.960 . S
C932 H918 0.960 . S
C932 H919 0.960 . S
C932 C931 1.524 . S
C933 C930 1.403 . S
C933 C934 1.392 . S
C933 C937 1.495 . S
C934 C933 1.392 . S
C934 C935 1.385 . S
C934 C936 1.478 . S
C935 H929 0.930 . S
C935 C931 1.400 . S
C935 C934 1.385 . S
C936 C934 1.478 . S
C936 C938 1.381 . S
C936 C942 1.383 . S
C937 C933 1.495 . S
C937 H943 0.959 . S
C937 H944 0.961 . S
C937 H945 0.960 . S
C938 C936 1.381 . S
C938 C939 1.394 . S
C938 H946 0.930 . S
C939 C938 1.394 . S
C939 C940 1.383 . S
C939 H947 0.929 . S
C940 C939 1.383 . S
C940 C941 1.377 . S
C941 H925 0.930 . S
C941 C940 1.377 . S
C941 C942 1.379 . S
C942 H926 0.931 . S
C942 C936 1.383 . S
C942 C941 1.379 . S
H943 C937 0.959 . S
H944 C937 0.961 . S
H945 C937 0.960 . S
H946 C938 0.930 . S
H947 C939 0.929 . S
H948 C956 0.929 . S
H949 C958 0.930 . S
H950 C960 0.930 . S
H951 C963 0.929 . S
H952 C966 0.930 . S
H953 C968 0.960 . S
H954 C968 0.960 1_455 S
H955 C968 0.960 1_455 S
C956 H948 0.929 . S
C956 C957 1.377 . S
C956 C958 1.384 1_455 S
C957 C956 1.377 . S
C957 C963 1.390 . S
C958 H949 0.930 . S
C958 C956 1.384 1_655 S
C958 C959 1.372 . S
C959 C958 1.372 . S
C959 C960 1.400 1_655 S
C959 C964 1.490 . S
C960 H950 0.930 . S
C960 C959 1.400 1_455 S
C960 C963 1.386 . S
H961 C977 0.930 . S
H962 C978 0.931 . S
C963 H951 0.929 . S
C963 C957 1.390 . S
C963 C960 1.386 . S
C964 C959 1.490 . S
C964 C966 1.395 . S
C964 C967 1.403 . S
H965 C971 0.930 . S
C966 H952 0.930 . S
C966 C964 1.395 . S
C966 C969 1.403 . S
C967 C964 1.403 . S
C967 C968 1.524 . S
C967 C971 1.400 . S
C968 H953 0.960 . S
C968 H954 0.960 1_655 S
C968 H955 0.960 1_655 S
C968 C967 1.524 . S
C969 C966 1.403 . S
C969 C970 1.392 . S
C969 C973 1.495 . S
C970 C969 1.392 . S
C970 C971 1.385 . S
C970 C972 1.478 . S
C971 H965 0.930 . S
C971 C967 1.400 . S
C971 C970 1.385 . S
C972 C970 1.478 . S
C972 C974 1.381 . S
C972 C978 1.383 . S
C973 C969 1.495 . S
C973 H979 0.959 . S
C973 H980 0.961 . S
C973 H981 0.960 . S
C974 C972 1.381 . S
C974 C975 1.394 . S
C974 H982 0.930 . S
C975 C974 1.394 . S
C975 C976 1.383 . S
C975 H983 0.929 . S
C976 C975 1.383 . S
C976 C977 1.377 . S
C977 H961 0.930 . S
C977 C976 1.377 . S
C977 C978 1.379 . S
C978 H962 0.931 . S
C978 C972 1.383 . S
C978 C977 1.379 . S
H979 C973 0.959 . S
H980 C973 0.961 . S
H981 C973 0.960 . S
H982 C974 0.930 . S
H983 C975 0.929 . S
H984 C992 0.929 . S
H985 C994 0.930 . S
H986 C996 0.931 . S
H987 C999 0.929 . S
H988 C1002 0.930 . S
H989 C1004 0.960 . S
H990 C1004 0.960 . S
H991 C1004 0.960 . S
C992 H984 0.929 . S
C992 C993 1.377 . S
C992 C994 1.384 . S
C993 C992 1.377 . S
C993 C999 1.390 . S
C994 H985 0.930 . S
C994 C992 1.384 . S
C994 C995 1.372 . S
C995 C994 1.372 . S
C995 C996 1.400 . S
C995 C1000 1.490 . S
C996 H986 0.931 . S
C996 C995 1.400 . S
C996 C999 1.386 . S
H997 C1013 0.930 . S
H998 C1014 0.931 . S
C999 H987 0.929 . S
C999 C993 1.390 . S
C999 C996 1.386 . S
C1000 C995 1.490 . S
C1000 C1002 1.395 . S
C1000 C1003 1.403 . S
H1001 C1007 0.930 . S
C1002 H988 0.930 . S
C1002 C1000 1.395 . S
C1002 C1005 1.403 . S
C1003 C1000 1.403 . S
C1003 C1004 1.524 . S
C1003 C1007 1.400 . S
C1004 H989 0.960 . S
C1004 H990 0.960 . S
C1004 H991 0.960 . S
C1004 C1003 1.524 . S
C1005 C1002 1.403 . S
C1005 C1006 1.392 . S
C1005 C1009 1.495 . S
C1006 C1005 1.392 . S
C1006 C1007 1.385 . S
C1006 C1008 1.478 . S
C1007 H1001 0.930 . S
C1007 C1003 1.400 . S
C1007 C1006 1.385 . S
C1008 C1006 1.478 . S
C1008 C1010 1.381 . S
C1008 C1014 1.383 1_556 S
C1009 C1005 1.495 . S
C1009 H1015 0.959 . S
C1009 H1016 0.961 1_556 S
C1009 H1017 0.960 . S
C1010 C1008 1.381 . S
C1010 C1011 1.394 . S
C1010 H1018 0.930 . S
C1011 C1010 1.394 . S
C1011 C1012 1.383 . S
C1011 H1019 0.929 . S
C1012 C1011 1.383 . S
C1012 C1013 1.377 1_556 S
C1013 H997 0.930 . S
C1013 C1012 1.377 1_554 S
C1013 C1014 1.379 . S
C1014 H998 0.931 . S
C1014 C1008 1.383 1_554 S
C1014 C1013 1.379 . S
H1015 C1009 0.959 . S
H1016 C1009 0.961 1_554 S
H1017 C1009 0.960 . S
H1018 C1010 0.930 . S
H1019 C1011 0.929 . S
H1020 C1028 0.929 . S
H1021 C1030 0.930 . S
H1022 C1032 0.930 . S
H1023 C1035 0.929 . S
H1024 C1038 0.930 . S
H1025 C1040 0.960 . S
H1026 C1040 0.960 . S
H1027 C1040 0.960 . S
C1028 H1020 0.929 . S
C1028 C1029 1.377 . S
C1028 C1030 1.384 . S
C1029 C1028 1.377 . S
C1029 C1035 1.390 . S
C1030 H1021 0.930 . S
C1030 C1028 1.384 . S
C1030 C1031 1.372 . S
C1031 C1030 1.372 . S
C1031 C1032 1.400 . S
C1031 C1036 1.490 . S
C1032 H1022 0.930 . S
C1032 C1031 1.400 . S
C1032 C1035 1.386 . S
H1033 C1049 0.930 . S
H1034 C1050 0.931 . S
C1035 H1023 0.929 . S
C1035 C1029 1.390 . S
C1035 C1032 1.386 . S
C1036 C1031 1.490 . S
C1036 C1038 1.395 . S
C1036 C1039 1.403 . S
H1037 C1043 0.930 . S
C1038 H1024 0.930 . S
C1038 C1036 1.395 . S
C1038 C1041 1.403 . S
C1039 C1036 1.403 . S
C1039 C1040 1.524 . S
C1039 C1043 1.400 . S
C1040 H1025 0.960 . S
C1040 H1026 0.960 . S
C1040 H1027 0.960 . S
C1040 C1039 1.524 . S
C1041 C1038 1.403 . S
C1041 C1042 1.392 . S
C1041 C1045 1.495 . S
C1042 C1041 1.392 . S
C1042 C1043 1.385 . S
C1042 C1044 1.478 . S
C1043 H1037 0.930 . S
C1043 C1039 1.400 . S
C1043 C1042 1.385 . S
C1044 C1042 1.478 . S
C1044 C1046 1.381 . S
C1044 C1050 1.383 . S
C1045 C1041 1.495 . S
C1045 H1051 0.959 . S
C1045 H1052 0.961 . S
C1045 H1053 0.960 . S
C1046 C1044 1.381 . S
C1046 C1047 1.394 . S
C1046 H1054 0.930 . S
C1047 C1046 1.394 . S
C1047 C1048 1.383 . S
C1047 H1055 0.929 . S
C1048 C1047 1.383 . S
C1048 C1049 1.377 . S
C1049 H1033 0.930 . S
C1049 C1048 1.377 . S
C1049 C1050 1.379 . S
C1050 H1034 0.931 . S
C1050 C1044 1.383 . S
C1050 C1049 1.379 . S
H1051 C1045 0.959 . S
H1052 C1045 0.961 . S
H1053 C1045 0.960 . S
H1054 C1046 0.930 . S
H1055 C1047 0.929 . S
H1056 C1064 0.929 . S
H1057 C1066 0.930 . S
H1058 C1068 0.930 . S
H1059 C1071 0.929 . S
H1060 C1074 0.926 1_545 S
H1061 C1076 0.960 . S
H1062 C1076 0.960 . S
H1063 C1076 0.960 . S
C1064 H1056 0.929 . S
C1064 C1065 1.377 . S
C1064 C1066 1.384 . S
C1065 C1064 1.377 . S
C1065 C1071 1.390 1_545 S
C1066 H1057 0.930 . S
C1066 C1064 1.384 . S
C1066 C1067 1.372 1_545 S
C1067 C1066 1.372 1_565 S
C1067 C1068 1.400 . S
C1067 C1072 1.490 . S
C1068 H1058 0.930 . S
C1068 C1067 1.400 . S
C1068 C1071 1.386 . S
H1069 C1085 0.930 . S
H1070 C1086 0.931 . S
C1071 H1059 0.929 . S
C1071 C1065 1.390 1_565 S
C1071 C1068 1.386 . S
C1072 C1067 1.490 . S
C1072 C1074 1.395 . S
C1072 C1075 1.403 . S
H1073 C1079 0.930 . S
C1074 H1060 0.926 1_565 S
C1074 C1072 1.395 . S
C1074 C1077 1.403 . S
C1075 C1072 1.403 . S
C1075 C1076 1.524 . S
C1075 C1079 1.400 . S
C1076 H1061 0.960 . S
C1076 H1062 0.960 . S
C1076 H1063 0.960 . S
C1076 C1075 1.524 . S
C1077 C1074 1.403 . S
C1077 C1078 1.392 . S
C1077 C1081 1.495 . S
C1078 C1077 1.392 . S
C1078 C1079 1.385 . S
C1078 C1080 1.478 . S
C1079 H1073 0.930 . S
C1079 C1075 1.400 . S
C1079 C1078 1.385 . S
C1080 C1078 1.478 . S
C1080 C1082 1.381 . S
C1080 C1086 1.383 . S
C1081 C1077 1.495 . S
C1081 H1087 0.959 1_565 S
C1081 H1088 0.961 . S
C1081 H1089 0.960 . S
C1082 C1080 1.381 . S
C1082 C1083 1.394 . S
C1082 H1090 0.930 . S
C1083 C1082 1.394 . S
C1083 C1084 1.383 . S
C1083 H1091 0.929 . S
C1084 C1083 1.383 . S
C1084 C1085 1.377 . S
C1085 H1069 0.930 . S
C1085 C1084 1.377 . S
C1085 C1086 1.379 . S
C1086 H1070 0.931 . S
C1086 C1080 1.383 . S
C1086 C1085 1.379 . S
H1087 C1081 0.959 1_545 S
H1088 C1081 0.961 . S
H1089 C1081 0.960 . S
H1090 C1082 0.930 . S
H1091 C1083 0.929 . S
H1092 C1100 0.929 . S
H1093 C1102 0.930 . S
H1094 C1104 0.930 . S
H1095 C1107 0.929 . S
H1096 C1110 0.930 . S
H1097 C1112 0.960 . S
H1098 C1112 0.960 . S
H1099 C1112 0.960 . S
C1100 H1092 0.929 . S
C1100 C1101 1.377 . S
C1100 C1102 1.384 . S
C1101 C1100 1.377 . S
C1101 C1107 1.390 . S
C1102 H1093 0.930 . S
C1102 C1100 1.384 . S
C1102 C1103 1.372 . S
C1103 C1102 1.372 . S
C1103 C1104 1.400 . S
C1103 C1108 1.490 . S
C1104 H1094 0.930 . S
C1104 C1103 1.400 . S
C1104 C1107 1.386 . S
H1105 C1121 0.930 . S
H1106 C1122 0.931 . S
C1107 H1095 0.929 . S
C1107 C1101 1.390 . S
C1107 C1104 1.386 . S
C1108 C1103 1.490 . S
C1108 C1110 1.395 . S
C1108 C1111 1.403 . S
H1109 C1115 0.930 . S
C1110 H1096 0.930 . S
C1110 C1108 1.395 . S
C1110 C1113 1.403 . S
C1111 C1108 1.403 . S
C1111 C1112 1.524 . S
C1111 C1115 1.400 . S
C1112 H1097 0.960 . S
C1112 H1098 0.960 . S
C1112 H1099 0.960 . S
C1112 C1111 1.524 . S
C1113 C1110 1.403 . S
C1113 C1114 1.392 . S
C1113 C1117 1.495 . S
C1114 C1113 1.392 . S
C1114 C1115 1.385 . S
C1114 C1116 1.478 . S
C1115 H1109 0.930 . S
C1115 C1111 1.400 . S
C1115 C1114 1.385 . S
C1116 C1114 1.478 . S
C1116 C1118 1.381 . S
C1116 C1122 1.383 . S
C1117 C1113 1.495 . S
C1117 H1123 0.959 . S
C1117 H1124 0.961 . S
C1117 H1125 0.960 . S
C1118 C1116 1.381 . S
C1118 C1119 1.394 . S
C1118 H1126 0.930 . S
C1119 C1118 1.394 . S
C1119 C1120 1.383 . S
C1119 H1127 0.929 . S
C1120 C1119 1.383 . S
C1120 C1121 1.377 . S
C1121 H1105 0.930 . S
C1121 C1120 1.377 . S
C1121 C1122 1.379 . S
C1122 H1106 0.931 . S
C1122 C1116 1.383 . S
C1122 C1121 1.379 . S
H1123 C1117 0.959 . S
H1124 C1117 0.961 . S
H1125 C1117 0.960 . S
H1126 C1118 0.930 . S
H1127 C1119 0.929 . S
H1128 C1136 0.929 . S
H1129 C1138 0.930 . S
H1130 C1140 0.930 . S
H1131 C1143 0.929 . S
H1132 C1146 0.930 . S
H1133 C1148 0.960 . S
H1134 C1148 0.960 . S
H1135 C1148 0.960 . S
C1136 H1128 0.929 . S
C1136 C1137 1.377 . S
C1136 C1138 1.384 . S
C1137 C1136 1.377 . S
C1137 C1143 1.390 . S
C1138 H1129 0.930 . S
C1138 C1136 1.384 . S
C1138 C1139 1.372 . S
C1139 C1138 1.372 . S
C1139 C1140 1.400 . S
C1139 C1144 1.490 . S
C1140 H1130 0.930 . S
C1140 C1139 1.400 . S
C1140 C1143 1.386 . S
H1141 C1157 0.930 . S
H1142 C1158 0.931 . S
C1143 H1131 0.929 . S
C1143 C1137 1.390 . S
C1143 C1140 1.386 . S
C1144 C1139 1.490 . S
C1144 C1146 1.395 . S
C1144 C1147 1.403 . S
H1145 C1151 0.930 . S
C1146 H1132 0.930 . S
C1146 C1144 1.395 . S
C1146 C1149 1.403 . S
C1147 C1144 1.403 . S
C1147 C1148 1.524 . S
C1147 C1151 1.400 . S
C1148 H1133 0.960 . S
C1148 H1134 0.960 . S
C1148 H1135 0.960 . S
C1148 C1147 1.524 . S
C1149 C1146 1.403 . S
C1149 C1150 1.392 . S
C1149 C1153 1.495 . S
C1150 C1149 1.392 . S
C1150 C1151 1.385 . S
C1150 C1152 1.478 . S
C1151 H1145 0.930 . S
C1151 C1147 1.400 . S
C1151 C1150 1.385 . S
C1152 C1150 1.478 . S
C1152 C1154 1.381 . S
C1152 C1158 1.383 . S
C1153 C1149 1.495 . S
C1153 H1159 0.959 . S
C1153 H1160 0.961 . S
C1153 H1161 0.960 . S
C1154 C1152 1.381 . S
C1154 C1155 1.394 1_556 S
C1154 H1162 0.930 . S
C1155 C1154 1.394 1_554 S
C1155 C1156 1.383 . S
C1155 H1163 0.929 . S
C1156 C1155 1.383 . S
C1156 C1157 1.377 1_554 S
C1157 H1141 0.930 . S
C1157 C1156 1.377 1_556 S
C1157 C1158 1.379 . S
C1158 H1142 0.931 . S
C1158 C1152 1.383 . S
C1158 C1157 1.379 . S
H1159 C1153 0.959 . S
H1160 C1153 0.961 . S
H1161 C1153 0.960 . S
H1162 C1154 0.930 . S
H1163 C1155 0.929 . S
H1164 C1172 0.929 . S
H1165 C1174 0.930 . S
H1166 C1176 0.930 . S
H1167 C1179 0.929 . S
H1168 C1182 0.930 . S
H1169 C1184 0.960 . S
H1170 C1184 0.960 . S
H1171 C1184 0.960 . S
C1172 H1164 0.929 . S
C1172 C1173 1.377 . S
C1172 C1174 1.384 . S
C1173 C1172 1.377 . S
C1173 C1179 1.390 . S
C1174 H1165 0.930 . S
C1174 C1172 1.384 . S
C1174 C1175 1.372 . S
C1175 C1174 1.372 . S
C1175 C1176 1.400 . S
C1175 C1180 1.490 . S
C1176 H1166 0.930 . S
C1176 C1175 1.400 . S
C1176 C1179 1.386 . S
H1177 C1193 0.930 . S
H1178 C1194 0.931 . S
C1179 H1167 0.929 . S
C1179 C1173 1.390 . S
C1179 C1176 1.386 . S
C1180 C1175 1.490 . S
C1180 C1182 1.395 . S
C1180 C1183 1.403 . S
H1181 C1187 0.930 . S
C1182 H1168 0.930 . S
C1182 C1180 1.395 . S
C1182 C1185 1.403 . S
C1183 C1180 1.403 . S
C1183 C1184 1.524 . S
C1183 C1187 1.400 . S
C1184 H1169 0.960 . S
C1184 H1170 0.960 . S
C1184 H1171 0.960 . S
C1184 C1183 1.524 . S
C1185 C1182 1.403 . S
C1185 C1186 1.392 . S
C1185 C1189 1.495 . S
C1186 C1185 1.392 . S
C1186 C1187 1.385 . S
C1186 C1188 1.478 . S
C1187 H1181 0.930 . S
C1187 C1183 1.400 . S
C1187 C1186 1.385 . S
C1188 C1186 1.478 . S
C1188 C1190 1.381 . S
C1188 C1194 1.383 . S
C1189 C1185 1.495 . S
C1189 H1195 0.959 . S
C1189 H1196 0.961 . S
C1189 H1197 0.960 . S
C1190 C1188 1.381 . S
C1190 C1191 1.394 . S
C1190 H1198 0.930 . S
C1191 C1190 1.394 . S
C1191 C1192 1.383 . S
C1191 H1199 0.929 . S
C1192 C1191 1.383 . S
C1192 C1193 1.377 . S
C1193 H1177 0.930 . S
C1193 C1192 1.377 . S
C1193 C1194 1.379 . S
C1194 H1178 0.931 . S
C1194 C1188 1.383 . S
C1194 C1193 1.379 . S
H1195 C1189 0.959 . S
H1196 C1189 0.961 . S
H1197 C1189 0.960 . S
H1198 C1190 0.930 . S
H1199 C1191 0.929 . S
H1200 C1208 0.929 . S
H1201 C1210 0.930 . S
H1202 C1212 0.930 . S
H1203 C1215 0.929 . S
H1204 C1218 0.930 . S
H1205 C1220 0.960 . S
H1206 C1220 0.960 . S
H1207 C1220 0.960 . S
C1208 H1200 0.929 . S
C1208 C1209 1.377 . S
C1208 C1210 1.384 . S
C1209 C1208 1.377 . S
C1209 C1215 1.390 . S
C1210 H1201 0.930 . S
C1210 C1208 1.384 . S
C1210 C1211 1.372 . S
C1211 C1210 1.372 . S
C1211 C1212 1.400 . S
C1211 C1216 1.490 . S
C1212 H1202 0.930 . S
C1212 C1211 1.400 . S
C1212 C1215 1.386 . S
H1213 C1229 0.930 . S
H1214 C1230 0.931 . S
C1215 H1203 0.929 . S
C1215 C1209 1.390 . S
C1215 C1212 1.386 . S
C1216 C1211 1.490 . S
C1216 C1218 1.395 . S
C1216 C1219 1.403 . S
H1217 C1223 0.930 . S
C1218 H1204 0.930 . S
C1218 C1216 1.395 . S
C1218 C1221 1.403 . S
C1219 C1216 1.403 . S
C1219 C1220 1.524 . S
C1219 C1223 1.400 . S
C1220 H1205 0.960 . S
C1220 H1206 0.960 . S
C1220 H1207 0.960 . S
C1220 C1219 1.524 . S
C1221 C1218 1.403 . S
C1221 C1222 1.392 . S
C1221 C1225 1.495 . S
C1222 C1221 1.392 . S
C1222 C1223 1.385 . S
C1222 C1224 1.478 . S
C1223 H1217 0.930 . S
C1223 C1219 1.400 . S
C1223 C1222 1.385 . S
C1224 C1222 1.478 . S
C1224 C1226 1.381 . S
C1224 C1230 1.383 . S
C1225 C1221 1.495 . S
C1225 H1231 0.959 . S
C1225 H1232 0.961 . S
C1225 H1233 0.960 . S
C1226 C1224 1.381 . S
C1226 C1227 1.394 . S
C1226 H1234 0.930 . S
C1227 C1226 1.394 . S
C1227 C1228 1.383 . S
C1227 H1235 0.929 . S
C1228 C1227 1.383 . S
C1228 C1229 1.377 . S
C1229 H1213 0.930 . S
C1229 C1228 1.377 . S
C1229 C1230 1.379 . S
C1230 H1214 0.931 . S
C1230 C1224 1.383 . S
C1230 C1229 1.379 . S
H1231 C1225 0.959 . S
H1232 C1225 0.961 . S
H1233 C1225 0.960 . S
H1234 C1226 0.930 . S
H1235 C1227 0.929 . S
H1236 C1244 0.929 . S
H1237 C1246 0.930 . S
H1238 C1248 0.930 . S
H1239 C1251 0.929 . S
H1240 C1254 0.930 . S
H1241 C1256 0.960 . S
H1242 C1256 0.960 . S
H1243 C1256 0.960 . S
C1244 H1236 0.929 . S
C1244 C1245 1.377 . S
C1244 C1246 1.384 . S
C1245 C1244 1.377 . S
C1245 C1251 1.390 . S
C1246 H1237 0.930 . S
C1246 C1244 1.384 . S
C1246 C1247 1.372 . S
C1247 C1246 1.372 . S
C1247 C1248 1.400 . S
C1247 C1252 1.490 . S
C1248 H1238 0.930 . S
C1248 C1247 1.400 . S
C1248 C1251 1.386 . S
H1249 C1265 0.930 . S
H1250 C1266 0.931 . S
C1251 H1239 0.929 . S
C1251 C1245 1.390 . S
C1251 C1248 1.386 . S
C1252 C1247 1.490 . S
C1252 C1254 1.395 . S
C1252 C1255 1.403 . S
H1253 C1259 0.930 . S
C1254 H1240 0.930 . S
C1254 C1252 1.395 . S
C1254 C1257 1.403 . S
C1255 C1252 1.403 . S
C1255 C1256 1.524 . S
C1255 C1259 1.400 . S
C1256 H1241 0.960 . S
C1256 H1242 0.960 . S
C1256 H1243 0.960 . S
C1256 C1255 1.524 . S
C1257 C1254 1.403 . S
C1257 C1258 1.392 . S
C1257 C1261 1.495 . S
C1258 C1257 1.392 . S
C1258 C1259 1.385 . S
C1258 C1260 1.478 . S
C1259 H1253 0.930 . S
C1259 C1255 1.400 . S
C1259 C1258 1.385 . S
C1260 C1258 1.478 . S
C1260 C1262 1.381 . S
C1260 C1266 1.383 . S
C1261 C1257 1.495 . S
C1261 H1267 0.959 . S
C1261 H1268 0.961 . S
C1261 H1269 0.960 . S
C1262 C1260 1.381 . S
C1262 C1263 1.394 . S
C1262 H1270 0.930 . S
C1263 C1262 1.394 . S
C1263 C1264 1.383 . S
C1263 H1271 0.929 . S
C1264 C1263 1.383 . S
C1264 C1265 1.377 . S
C1265 H1249 0.930 . S
C1265 C1264 1.377 . S
C1265 C1266 1.379 . S
C1266 H1250 0.931 . S
C1266 C1260 1.383 . S
C1266 C1265 1.379 . S
H1267 C1261 0.959 . S
H1268 C1261 0.961 . S
H1269 C1261 0.960 . S
H1270 C1262 0.930 . S
H1271 C1263 0.929 . S
H1272 C1280 0.929 . S
H1273 C1282 0.930 . S
H1274 C1284 0.930 . S
H1275 C1287 0.929 . S
H1276 C1290 0.930 . S
H1277 C1292 0.960 . S
H1278 C1292 0.960 . S
H1279 C1292 0.960 . S
C1280 H1272 0.929 . S
C1280 C1281 1.377 . S
C1280 C1282 1.384 . S
C1281 C1280 1.377 . S
C1281 C1287 1.390 . S
C1282 H1273 0.930 . S
C1282 C1280 1.384 . S
C1282 C1283 1.372 . S
C1283 C1282 1.372 . S
C1283 C1284 1.400 . S
C1283 C1288 1.490 . S
C1284 H1274 0.930 . S
C1284 C1283 1.400 . S
C1284 C1287 1.386 . S
H1285 C1301 0.930 . S
H1286 C1302 0.931 . S
C1287 H1275 0.929 . S
C1287 C1281 1.390 . S
C1287 C1284 1.386 . S
C1288 C1283 1.490 . S
C1288 C1290 1.395 . S
C1288 C1291 1.403 . S
H1289 C1295 0.930 . S
C1290 H1276 0.930 . S
C1290 C1288 1.395 . S
C1290 C1293 1.403 . S
C1291 C1288 1.403 . S
C1291 C1292 1.524 . S
C1291 C1295 1.400 . S
C1292 H1277 0.960 . S
C1292 H1278 0.960 . S
C1292 H1279 0.960 . S
C1292 C1291 1.524 . S
C1293 C1290 1.403 . S
C1293 C1294 1.392 . S
C1293 C1297 1.495 . S
C1294 C1293 1.392 . S
C1294 C1295 1.385 . S
C1294 C1296 1.478 . S
C1295 H1289 0.930 . S
C1295 C1291 1.400 . S
C1295 C1294 1.385 . S
C1296 C1294 1.478 . S
C1296 C1298 1.381 . S
C1296 C1302 1.383 . S
C1297 C1293 1.495 . S
C1297 H1303 0.959 . S
C1297 H1304 0.961 . S
C1297 H1305 0.960 . S
C1298 C1296 1.381 . S
C1298 C1299 1.394 . S
C1298 H1306 0.930 . S
C1299 C1298 1.394 . S
C1299 C1300 1.383 . S
C1299 H1307 0.929 . S
C1300 C1299 1.383 . S
C1300 C1301 1.377 . S
C1301 H1285 0.930 . S
C1301 C1300 1.377 . S
C1301 C1302 1.379 . S
C1302 H1286 0.931 . S
C1302 C1296 1.383 . S
C1302 C1301 1.379 . S
H1303 C1297 0.959 . S
H1304 C1297 0.961 . S
H1305 C1297 0.960 . S
H1306 C1298 0.930 . S
H1307 C1299 0.929 . S
H1308 C1316 0.929 . S
H1309 C1318 0.930 . S
H1310 C1320 0.930 . S
H1311 C1323 0.929 . S
H1312 C1326 0.930 . S
H1313 C1328 0.960 . S
H1314 C1328 0.960 . S
H1315 C1328 0.960 . S
C1316 H1308 0.929 . S
C1316 C1317 1.377 . S
C1316 C1318 1.384 . S
C1317 C1316 1.377 . S
C1317 C1323 1.390 . S
C1318 H1309 0.930 . S
C1318 C1316 1.384 . S
C1318 C1319 1.372 . S
C1319 C1318 1.372 . S
C1319 C1320 1.400 . S
C1319 C1324 1.490 . S
C1320 H1310 0.930 . S
C1320 C1319 1.400 . S
C1320 C1323 1.386 . S
H1321 C1337 0.930 . S
H1322 C1338 0.931 . S
C1323 H1311 0.929 . S
C1323 C1317 1.390 . S
C1323 C1320 1.386 . S
C1324 C1319 1.490 . S
C1324 C1326 1.395 . S
C1324 C1327 1.403 . S
H1325 C1331 0.930 . S
C1326 H1312 0.930 . S
C1326 C1324 1.395 . S
C1326 C1329 1.403 . S
C1327 C1324 1.403 . S
C1327 C1328 1.524 . S
C1327 C1331 1.400 . S
C1328 H1313 0.960 . S
C1328 H1314 0.960 . S
C1328 H1315 0.960 . S
C1328 C1327 1.524 . S
C1329 C1326 1.403 . S
C1329 C1330 1.392 . S
C1329 C1333 1.495 . S
C1330 C1329 1.392 . S
C1330 C1331 1.385 . S
C1330 C1332 1.478 . S
C1331 H1325 0.930 . S
C1331 C1327 1.400 . S
C1331 C1330 1.385 . S
C1332 C1330 1.478 . S
C1332 C1334 1.381 1_545 S
C1332 C1338 1.383 . S
C1333 C1329 1.495 . S
C1333 H1339 0.959 . S
C1333 H1340 0.961 . S
C1333 H1341 0.960 . S
C1334 C1332 1.381 1_565 S
C1334 C1335 1.394 . S
C1334 H1342 0.930 . S
C1335 C1334 1.394 . S
C1335 C1336 1.383 . S
C1335 H1343 0.929 . S
C1336 C1335 1.383 . S
C1336 C1337 1.377 . S
C1337 H1321 0.930 . S
C1337 C1336 1.377 . S
C1337 C1338 1.379 1_565 S
C1338 H1322 0.931 . S
C1338 C1332 1.383 . S
C1338 C1337 1.379 1_545 S
H1339 C1333 0.959 . S
H1340 C1333 0.961 . S
H1341 C1333 0.960 . S
H1342 C1334 0.930 . S
H1343 C1335 0.929 . S
H1344 C1352 0.929 . S
H1345 C1354 0.930 . S
H1346 C1356 0.930 . S
H1347 C1359 0.929 . S
H1348 C1362 0.930 . S
H1349 C1364 0.960 . S
H1350 C1364 0.960 . S
H1351 C1364 0.960 . S
C1352 H1344 0.929 . S
C1352 C1353 1.377 . S
C1352 C1354 1.384 . S
C1353 C1352 1.377 . S
C1353 C1359 1.390 . S
C1354 H1345 0.930 . S
C1354 C1352 1.384 . S
C1354 C1355 1.372 . S
C1355 C1354 1.372 . S
C1355 C1356 1.400 . S
C1355 C1360 1.490 . S
C1356 H1346 0.930 . S
C1356 C1355 1.400 . S
C1356 C1359 1.386 . S
H1357 C1373 0.930 . S
H1358 C1374 0.931 . S
C1359 H1347 0.929 . S
C1359 C1353 1.390 . S
C1359 C1356 1.386 . S
C1360 C1355 1.490 . S
C1360 C1362 1.395 . S
C1360 C1363 1.403 . S
H1361 C1367 0.930 . S
C1362 H1348 0.930 . S
C1362 C1360 1.395 . S
C1362 C1365 1.403 . S
C1363 C1360 1.403 . S
C1363 C1364 1.524 . S
C1363 C1367 1.400 . S
C1364 H1349 0.960 . S
C1364 H1350 0.960 . S
C1364 H1351 0.960 . S
C1364 C1363 1.524 . S
C1365 C1362 1.403 . S
C1365 C1366 1.392 . S
C1365 C1369 1.495 . S
C1366 C1365 1.392 . S
C1366 C1367 1.385 . S
C1366 C1368 1.478 . S
C1367 H1361 0.930 . S
C1367 C1363 1.400 . S
C1367 C1366 1.385 . S
C1368 C1366 1.478 . S
C1368 C1370 1.381 . S
C1368 C1374 1.383 . S
C1369 C1365 1.495 . S
C1369 H1375 0.959 . S
C1369 H1376 0.961 . S
C1369 H1377 0.960 . S
C1370 C1368 1.381 . S
C1370 C1371 1.394 . S
C1370 H1378 0.930 . S
C1371 C1370 1.394 . S
C1371 C1372 1.383 . S
C1371 H1379 0.929 . S
C1372 C1371 1.383 . S
C1372 C1373 1.377 . S
C1373 H1357 0.930 . S
C1373 C1372 1.377 . S
C1373 C1374 1.379 . S
C1374 H1358 0.931 . S
C1374 C1368 1.383 . S
C1374 C1373 1.379 . S
H1375 C1369 0.959 . S
H1376 C1369 0.961 . S
H1377 C1369 0.960 . S
H1378 C1370 0.930 . S
H1379 C1371 0.929 . S
H1380 C1388 0.929 . S
H1381 C1390 0.930 . S
H1382 C1392 0.930 . S
H1383 C1395 0.929 . S
H1384 C1398 0.930 . S
H1385 C1400 0.960 . S
H1386 C1400 0.960 . S
H1387 C1400 0.960 . S
C1388 H1380 0.929 . S
C1388 C1389 1.377 . S
C1388 C1390 1.384 . S
C1389 C1388 1.377 . S
C1389 C1395 1.390 . S
C1390 H1381 0.930 . S
C1390 C1388 1.384 . S
C1390 C1391 1.372 . S
C1391 C1390 1.372 . S
C1391 C1392 1.400 . S
C1391 C1396 1.490 . S
C1392 H1382 0.930 . S
C1392 C1391 1.400 . S
C1392 C1395 1.386 . S
H1393 C1409 0.930 . S
H1394 C1410 0.931 . S
C1395 H1383 0.929 . S
C1395 C1389 1.390 . S
C1395 C1392 1.386 . S
C1396 C1391 1.490 . S
C1396 C1398 1.395 . S
C1396 C1399 1.403 . S
H1397 C1403 0.930 . S
C1398 H1384 0.930 . S
C1398 C1396 1.395 . S
C1398 C1401 1.403 . S
C1399 C1396 1.403 . S
C1399 C1400 1.524 . S
C1399 C1403 1.400 . S
C1400 H1385 0.960 . S
C1400 H1386 0.960 . S
C1400 H1387 0.960 . S
C1400 C1399 1.524 . S
C1401 C1398 1.403 . S
C1401 C1402 1.392 . S
C1401 C1405 1.495 . S
C1402 C1401 1.392 . S
C1402 C1403 1.385 . S
C1402 C1404 1.478 . S
C1403 H1397 0.930 . S
C1403 C1399 1.400 . S
C1403 C1402 1.385 . S
C1404 C1402 1.478 . S
C1404 C1406 1.381 . S
C1404 C1410 1.383 . S
C1405 C1401 1.495 . S
C1405 H1411 0.959 . S
C1405 H1412 0.961 . S
C1405 H1413 0.960 . S
C1406 C1404 1.381 . S
C1406 C1407 1.394 . S
C1406 H1414 0.930 . S
C1407 C1406 1.394 . S
C1407 C1408 1.383 . S
C1407 H1415 0.929 . S
C1408 C1407 1.383 . S
C1408 C1409 1.377 . S
C1409 H1393 0.930 . S
C1409 C1408 1.377 . S
C1409 C1410 1.379 . S
C1410 H1394 0.931 . S
C1410 C1404 1.383 . S
C1410 C1409 1.379 . S
H1411 C1405 0.959 . S
H1412 C1405 0.961 . S
H1413 C1405 0.960 . S
H1414 C1406 0.930 . S
H1415 C1407 0.929 . S
H1416 C1424 0.929 . S
H1417 C1426 0.930 1_655 S
H1418 C1428 0.930 . S
H1419 C1431 0.929 . S
H1420 C1434 0.930 . S
H1421 C1436 0.960 . S
H1422 C1436 0.960 . S
H1423 C1436 0.960 . S
C1424 H1416 0.929 . S
C1424 C1425 1.377 . S
C1424 C1426 1.384 . S
C1425 C1424 1.377 . S
C1425 C1431 1.390 . S
C1426 H1417 0.930 1_455 S
C1426 C1424 1.384 . S
C1426 C1427 1.372 . S
C1427 C1426 1.372 . S
C1427 C1428 1.400 . S
C1427 C1432 1.490 . S
C1428 H1418 0.930 . S
C1428 C1427 1.400 . S
C1428 C1431 1.386 . S
H1429 C1445 0.930 . S
H1430 C1446 0.931 1_455 S
C1431 H1419 0.929 . S
C1431 C1425 1.390 . S
C1431 C1428 1.386 . S
C1432 C1427 1.490 . S
C1432 C1434 1.395 1_455 S
C1432 C1435 1.403 . S
H1433 C1439 0.930 . S
C1434 H1420 0.930 . S
C1434 C1432 1.395 1_655 S
C1434 C1437 1.403 . S
C1435 C1432 1.403 . S
C1435 C1436 1.524 . S
C1435 C1439 1.400 . S
C1436 H1421 0.960 . S
C1436 H1422 0.960 . S
C1436 H1423 0.960 . S
C1436 C1435 1.524 . S
C1437 C1434 1.403 . S
C1437 C1438 1.392 . S
C1437 C1441 1.495 . S
C1438 C1437 1.392 . S
C1438 C1439 1.385 1_655 S
C1438 C1440 1.478 . S
C1439 H1433 0.930 . S
C1439 C1435 1.400 . S
C1439 C1438 1.385 1_455 S
C1440 C1438 1.478 . S
C1440 C1442 1.381 . S
C1440 C1446 1.383 . S
C1441 C1437 1.495 . S
C1441 H1447 0.959 . S
C1441 H1448 0.961 . S
C1441 H1449 0.960 . S
C1442 C1440 1.381 . S
C1442 C1443 1.394 . S
C1442 H1450 0.930 . S
C1443 C1442 1.394 . S
C1443 C1444 1.383 . S
C1443 H1451 0.929 . S
C1444 C1443 1.383 . S
C1444 C1445 1.377 . S
C1445 H1429 0.930 . S
C1445 C1444 1.377 . S
C1445 C1446 1.379 . S
C1446 H1430 0.931 1_655 S
C1446 C1440 1.383 . S
C1446 C1445 1.379 . S
H1447 C1441 0.959 . S
H1448 C1441 0.961 . S
H1449 C1441 0.960 . S
H1450 C1442 0.930 . S
H1451 C1443 0.929 . S
H1452 C1460 0.929 . S
H1453 C1462 0.930 . S
H1454 C1464 0.930 . S
H1455 C1467 0.929 . S
H1456 C1470 0.930 . S
H1457 C1472 0.960 . S
H1458 C1472 0.960 . S
H1459 C1472 0.960 . S
C1460 H1452 0.929 . S
C1460 C1461 1.377 . S
C1460 C1462 1.384 . S
C1461 C1460 1.377 . S
C1461 C1467 1.390 . S
C1462 H1453 0.930 . S
C1462 C1460 1.384 . S
C1462 C1463 1.372 . S
C1463 C1462 1.372 . S
C1463 C1464 1.400 . S
C1463 C1468 1.490 . S
C1464 H1454 0.930 . S
C1464 C1463 1.400 . S
C1464 C1467 1.386 . S
H1465 C1481 0.930 . S
H1466 C1482 0.931 . S
C1467 H1455 0.929 . S
C1467 C1461 1.390 . S
C1467 C1464 1.386 . S
C1468 C1463 1.490 . S
C1468 C1470 1.395 . S
C1468 C1471 1.403 . S
H1469 C1475 0.930 . S
C1470 H1456 0.930 . S
C1470 C1468 1.395 . S
C1470 C1473 1.403 . S
C1471 C1468 1.403 . S
C1471 C1472 1.524 . S
C1471 C1475 1.400 . S
C1472 H1457 0.960 . S
C1472 H1458 0.960 . S
C1472 H1459 0.960 . S
C1472 C1471 1.524 . S
C1473 C1470 1.403 . S
C1473 C1474 1.392 . S
C1473 C1477 1.495 . S
C1474 C1473 1.392 . S
C1474 C1475 1.385 . S
C1474 C1476 1.478 . S
C1475 H1469 0.930 . S
C1475 C1471 1.400 . S
C1475 C1474 1.385 . S
C1476 C1474 1.478 . S
C1476 C1478 1.381 . S
C1476 C1482 1.383 . S
C1477 C1473 1.495 . S
C1477 H1483 0.959 . S
C1477 H1484 0.961 . S
C1477 H1485 0.960 . S
C1478 C1476 1.381 . S
C1478 C1479 1.394 . S
C1478 H1486 0.930 . S
C1479 C1478 1.394 . S
C1479 C1480 1.383 . S
C1479 H1487 0.929 . S
C1480 C1479 1.383 . S
C1480 C1481 1.377 . S
C1481 H1465 0.930 . S
C1481 C1480 1.377 . S
C1481 C1482 1.379 . S
C1482 H1466 0.931 . S
C1482 C1476 1.383 . S
C1482 C1481 1.379 . S
H1483 C1477 0.959 . S
H1484 C1477 0.961 . S
H1485 C1477 0.960 . S
H1486 C1478 0.930 . S
H1487 C1479 0.929 . S
H1488 C1496 0.929 . S
H1489 C1498 0.930 . S
H1490 C1500 0.930 . S
H1491 C1503 0.929 . S
H1492 C1506 0.930 . S
H1493 C1508 0.960 . S
H1494 C1508 0.960 . S
H1495 C1508 0.960 . S
C1496 H1488 0.929 . S
C1496 C1497 1.377 . S
C1496 C1498 1.384 . S
C1497 C1496 1.377 . S
C1497 C1503 1.390 . S
C1498 H1489 0.930 . S
C1498 C1496 1.384 . S
C1498 C1499 1.372 . S
C1499 C1498 1.372 . S
C1499 C1500 1.400 . S
C1499 C1504 1.490 . S
C1500 H1490 0.930 . S
C1500 C1499 1.400 . S
C1500 C1503 1.386 . S
H1501 C1517 0.930 . S
H1502 C1518 0.931 . S
C1503 H1491 0.929 . S
C1503 C1497 1.390 . S
C1503 C1500 1.386 . S
C1504 C1499 1.490 . S
C1504 C1506 1.395 . S
C1504 C1507 1.403 . S
H1505 C1511 0.930 . S
C1506 H1492 0.930 . S
C1506 C1504 1.395 . S
C1506 C1509 1.403 . S
C1507 C1504 1.403 . S
C1507 C1508 1.524 . S
C1507 C1511 1.400 . S
C1508 H1493 0.960 . S
C1508 H1494 0.960 . S
C1508 H1495 0.960 . S
C1508 C1507 1.524 . S
C1509 C1506 1.403 . S
C1509 C1510 1.392 . S
C1509 C1513 1.495 . S
C1510 C1509 1.392 . S
C1510 C1511 1.385 . S
C1510 C1512 1.478 . S
C1511 H1505 0.930 . S
C1511 C1507 1.400 . S
C1511 C1510 1.385 . S
C1512 C1510 1.478 . S
C1512 C1514 1.381 . S
C1512 C1518 1.383 . S
C1513 C1509 1.495 . S
C1513 H1519 0.959 . S
C1513 H1520 0.961 . S
C1513 H1521 0.960 . S
C1514 C1512 1.381 . S
C1514 C1515 1.394 . S
C1514 H1522 0.930 . S
C1515 C1514 1.394 . S
C1515 C1516 1.383 . S
C1515 H1523 0.929 . S
C1516 C1515 1.383 . S
C1516 C1517 1.377 . S
C1517 H1501 0.930 . S
C1517 C1516 1.377 . S
C1517 C1518 1.379 . S
C1518 H1502 0.931 . S
C1518 C1512 1.383 . S
C1518 C1517 1.379 . S
H1519 C1513 0.959 . S
H1520 C1513 0.961 . S
H1521 C1513 0.960 . S
H1522 C1514 0.930 . S
H1523 C1515 0.929 . S
H1524 C1532 0.929 . S
H1525 C1534 0.930 . S
H1526 C1536 0.930 . S
H1527 C1539 0.929 . S
H1528 C1542 0.930 . S
H1529 C1544 0.960 . S
H1530 C1544 0.960 . S
H1531 C1544 0.960 1_455 S
C1532 H1524 0.929 . S
C1532 C1533 1.377 . S
C1532 C1534 1.384 . S
C1533 C1532 1.377 . S
C1533 C1539 1.390 . S
C1534 H1525 0.930 . S
C1534 C1532 1.384 . S
C1534 C1535 1.372 . S
C1535 C1534 1.372 . S
C1535 C1536 1.400 . S
C1535 C1540 1.490 . S
C1536 H1526 0.930 . S
C1536 C1535 1.400 . S
C1536 C1539 1.386 . S
H1537 C1553 0.930 . S
H1538 C1554 0.931 . S
C1539 H1527 0.929 . S
C1539 C1533 1.390 . S
C1539 C1536 1.386 . S
C1540 C1535 1.490 . S
C1540 C1542 1.395 . S
C1540 C1543 1.383 1_455 S
H1541 C1547 0.930 . S
C1542 H1528 0.930 . S
C1542 C1540 1.395 . S
C1542 C1545 1.403 . S
C1543 C1540 1.383 1_655 S
C1543 C1544 1.529 . S
C1543 C1547 1.418 . S
C1544 H1529 0.960 . S
C1544 H1530 0.960 . S
C1544 H1531 0.960 1_655 S
C1544 C1543 1.529 . S
C1545 C1542 1.403 . S
C1545 C1546 1.392 1_455 S
C1545 C1549 1.495 . S
C1546 C1545 1.392 1_655 S
C1546 C1547 1.385 . S
C1546 C1548 1.478 . S
C1547 H1541 0.930 . S
C1547 C1543 1.418 . S
C1547 C1546 1.385 . S
C1548 C1546 1.478 . S
C1548 C1550 1.381 . S
C1548 C1554 1.383 . S
C1549 C1545 1.495 . S
C1549 H1555 0.959 . S
C1549 H1556 0.961 . S
C1549 H1557 0.960 1_455 S
C1550 C1548 1.381 . S
C1550 C1551 1.394 . S
C1550 H1558 0.930 . S
C1551 C1550 1.394 . S
C1551 C1552 1.383 . S
C1551 H1559 0.929 . S
C1552 C1551 1.383 . S
C1552 C1553 1.377 . S
C1553 H1537 0.930 . S
C1553 C1552 1.377 . S
C1553 C1554 1.379 . S
C1554 H1538 0.931 . S
C1554 C1548 1.383 . S
C1554 C1553 1.379 . S
H1555 C1549 0.959 . S
H1556 C1549 0.961 . S
H1557 C1549 0.960 1_655 S
H1558 C1550 0.930 . S
H1559 C1551 0.929 . S
H1560 C1568 0.929 . S
H1561 C1570 0.930 . S
H1562 C1572 0.930 . S
H1563 C1575 0.929 . S
H1564 C1578 0.930 . S
H1565 C1580 0.960 . S
H1566 C1580 0.960 . S
H1567 C1580 0.960 . S
C1568 H1560 0.929 . S
C1568 C1569 1.377 . S
C1568 C1570 1.384 . S
C1569 C1568 1.377 . S
C1569 C1575 1.390 . S
C1570 H1561 0.930 . S
C1570 C1568 1.384 . S
C1570 C1571 1.372 . S
C1571 C1570 1.372 . S
C1571 C1572 1.400 . S
C1571 C1576 1.490 . S
C1572 H1562 0.930 . S
C1572 C1571 1.400 . S
C1572 C1575 1.386 . S
H1573 C1589 0.930 . S
H1574 C1590 0.931 . S
C1575 H1563 0.929 . S
C1575 C1569 1.390 . S
C1575 C1572 1.386 . S
C1576 C1571 1.490 . S
C1576 C1578 1.395 . S
C1576 C1579 1.403 . S
H1577 C1583 0.930 . S
C1578 H1564 0.930 . S
C1578 C1576 1.395 . S
C1578 C1581 1.403 . S
C1579 C1576 1.403 . S
C1579 C1580 1.524 . S
C1579 C1583 1.400 . S
C1580 H1565 0.960 . S
C1580 H1566 0.960 . S
C1580 H1567 0.960 . S
C1580 C1579 1.524 . S
C1581 C1578 1.403 . S
C1581 C1582 1.392 . S
C1581 C1585 1.495 . S
C1582 C1581 1.392 . S
C1582 C1583 1.385 . S
C1582 C1584 1.478 . S
C1583 H1577 0.930 . S
C1583 C1579 1.400 . S
C1583 C1582 1.385 . S
C1584 C1582 1.478 . S
C1584 C1586 1.381 . S
C1584 C1590 1.383 . S
C1585 C1581 1.495 . S
C1585 H1591 0.959 . S
C1585 H1592 0.961 . S
C1585 H1593 0.960 . S
C1586 C1584 1.381 . S
C1586 C1587 1.394 . S
C1586 H1594 0.930 . S
C1587 C1586 1.394 . S
C1587 C1588 1.383 . S
C1587 H1595 0.929 . S
C1588 C1587 1.383 . S
C1588 C1589 1.377 . S
C1589 H1573 0.930 . S
C1589 C1588 1.377 . S
C1589 C1590 1.379 . S
C1590 H1574 0.931 . S
C1590 C1584 1.383 . S
C1590 C1589 1.379 . S
H1591 C1585 0.959 . S
H1592 C1585 0.961 . S
H1593 C1585 0.960 . S
H1594 C1586 0.930 . S
H1595 C1587 0.929 . S
H1596 C1604 0.929 . S
H1597 C1606 0.930 . S
H1598 C1608 0.930 . S
H1599 C1611 0.929 . S
H1600 C1614 0.930 . S
H1601 C1616 0.960 . S
H1602 C1616 0.960 . S
H1603 C1616 0.960 . S
C1604 H1596 0.929 . S
C1604 C1605 1.377 . S
C1604 C1606 1.384 . S
C1605 C1604 1.377 . S
C1605 C1611 1.390 . S
C1606 H1597 0.930 . S
C1606 C1604 1.384 . S
C1606 C1607 1.372 . S
C1607 C1606 1.372 . S
C1607 C1608 1.400 . S
C1607 C1612 1.490 . S
C1608 H1598 0.930 . S
C1608 C1607 1.400 . S
C1608 C1611 1.386 . S
H1609 C1625 0.930 . S
H1610 C1626 0.931 . S
C1611 H1599 0.929 . S
C1611 C1605 1.390 . S
C1611 C1608 1.386 . S
C1612 C1607 1.490 . S
C1612 C1614 1.395 . S
C1612 C1615 1.403 . S
H1613 C1619 0.930 . S
C1614 H1600 0.930 . S
C1614 C1612 1.395 . S
C1614 C1617 1.403 . S
C1615 C1612 1.403 . S
C1615 C1616 1.524 . S
C1615 C1619 1.400 . S
C1616 H1601 0.960 . S
C1616 H1602 0.960 . S
C1616 H1603 0.960 . S
C1616 C1615 1.524 . S
C1617 C1614 1.403 . S
C1617 C1618 1.392 . S
C1617 C1621 1.495 . S
C1618 C1617 1.392 . S
C1618 C1619 1.385 . S
C1618 C1620 1.478 . S
C1619 H1613 0.930 . S
C1619 C1615 1.400 . S
C1619 C1618 1.385 . S
C1620 C1618 1.478 . S
C1620 C1622 1.381 . S
C1620 C1626 1.383 . S
C1621 C1617 1.495 . S
C1621 H1627 0.959 . S
C1621 H1628 0.961 . S
C1621 H1629 0.960 . S
C1622 C1620 1.381 . S
C1622 C1623 1.394 . S
C1622 H1630 0.930 . S
C1623 C1622 1.394 . S
C1623 C1624 1.383 . S
C1623 H1631 0.929 . S
C1624 C1623 1.383 . S
C1624 C1625 1.377 . S
C1625 H1609 0.930 . S
C1625 C1624 1.377 . S
C1625 C1626 1.379 . S
C1626 H1610 0.931 . S
C1626 C1620 1.383 . S
C1626 C1625 1.379 . S
H1627 C1621 0.959 . S
H1628 C1621 0.961 . S
H1629 C1621 0.960 . S
H1630 C1622 0.930 . S
H1631 C1623 0.929 . S
C508 C388 1.224 . S
C489 C8 1.220 . S
C544 C405 1.370 . S
C525 C61 1.372 . S
C580 C419 1.530 . S
C561 C107 1.531 . S
C597 C139 1.241 . S
C616 C377 1.259 . S
C633 C192 1.155 . S
C652 C374 1.146 . S
C669 C238 0.980 . S
C688 C391 0.973 . S
C724 C402 1.469 . S
C705 C284 1.464 . S
C760 C416 1.302 . S
C741 C330 1.280 . S
C777 C100 1.286 . S
C796 C444 1.287 . S
C832 C458 1.483 . S
C813 C160 1.460 . S
C849 C15 0.973 . S
C868 C475 1.008 . S
C904 C430 1.148 . S
C885 C54 1.152 1_655 S
C921 C291 1.244 . S
C940 C433 1.261 . S
C957 C337 1.530 . S
C976 C447 1.528 . S
C1012 C461 1.377 . S
C993 C199 1.372 . S
C1029 C245 1.218 . S
C1048 C472 1.240 . S
C1084 C404 1.963 . S
C1065 C1 1.972 . S
C1120 C418 2.043 . S
C1101 C68 2.041 . S
C1137 C114 1.964 . S
C1156 C376 1.981 . S
C1173 C146 1.853 . S
C1192 C389 1.777 . S
C1209 C185 1.624 . S
C1228 C417 1.474 . S
C1264 C375 1.404 . S
C1245 C231 1.553 . S
C1300 C390 1.812 . S
C1281 C277 1.843 . S
C1336 C403 1.598 . S
C1317 C323 1.751 . S
C1372 C459 1.597 . S
C1353 C93 1.752 . S
C1408 C474 1.821 . S
C1389 C153 1.843 . S
C1425 C22 1.545 . S
C1444 C431 1.386 . S
C1480 C445 1.493 . S
C1461 C47 1.625 . S
C1516 C473 1.755 . S
C1497 C298 1.842 . S
C1533 C344 1.959 . S
C1552 C432 1.955 . S
C1588 C446 2.037 . S
C1569 C206 2.037 . S
C1624 C460 1.956 . S
C1605 C252 1.961 . S
