# Generated by pormake.
# Topology tsx, (6,3)-cn, num edge types: 1
# Building blocks:
#     Node 0, Type 0, BuildingBlock: CIFDUS_clean_sbu_1, # of connection points: 6
#     Node 1, Type 0, BuildingBlock: CIFDUS_clean_sbu_1, # of connection points: 6
#     Node 2, Type 1, BuildingBlock: KAKCAD_clean_linker_0, # of connection points: 3
#     Node 3, Type 1, BuildingBlock: KAKCAD_clean_linker_0, # of connection points: 3
#     Node 4, Type 1, BuildingBlock: KAKCAD_clean_linker_0, # of connection points: 3
#     Node 5, Type 1, BuildingBlock: KAKCAD_clean_linker_0, # of connection points: 3
#     Edge 6, Type (0, 1), BuildingBlock: OJICUG_clean_linker_0, # of connection points: 2
#     Edge 7, Type (0, 1), BuildingBlock: OJICUG_clean_linker_0, # of connection points: 2
#     Edge 8, Type (0, 1), BuildingBlock: OJICUG_clean_linker_0, # of connection points: 2
#     Edge 9, Type (0, 1), BuildingBlock: OJICUG_clean_linker_0, # of connection points: 2
#     Edge 10, Type (0, 1), BuildingBlock: OJICUG_clean_linker_0, # of connection points: 2
#     Edge 11, Type (0, 1), BuildingBlock: OJICUG_clean_linker_0, # of connection points: 2
#     Edge 12, Type (0, 1), BuildingBlock: OJICUG_clean_linker_0, # of connection points: 2
#     Edge 13, Type (0, 1), BuildingBlock: OJICUG_clean_linker_0, # of connection points: 2
#     Edge 14, Type (0, 1), BuildingBlock: OJICUG_clean_linker_0, # of connection points: 2
#     Edge 15, Type (0, 1), BuildingBlock: OJICUG_clean_linker_0, # of connection points: 2
#     Edge 16, Type (0, 1), BuildingBlock: OJICUG_clean_linker_0, # of connection points: 2
#     Edge 17, Type (0, 1), BuildingBlock: OJICUG_clean_linker_0, # of connection points: 2
# Relax obj value: 0.127
# Max RMSD: 0.155
# Mean RMSD: 0.118
data_MOF--net-tsx--node1-CIFDUS_clean_sbu_1--node2-KAKCAD_clean_linker_0--edge1-OJICUG_clean_linker_0
_symmetry_space_group_name_H-M    P1
_symmetry_Int_Tables_number       1
_symmetry_cell_setting            triclinic
loop_
_symmetry_equiv_pos_as_xyz
'x, y, z'
_cell_length_a     16.804574
_cell_length_b     21.34065
_cell_length_c     35.469131
_cell_angle_alpha  97.14267
_cell_angle_beta   92.852912
_cell_angle_gamma 91.538319
loop_
_atom_site_label
_atom_site_type_symbol
_atom_site_fract_x
_atom_site_fract_y
_atom_site_fract_z
_atom_type_partial_charge
O0 O 1.01166 0.11224 0.00839 0.0
Mn1 Mn 0.07027 0.02561 0.00153 0.0
O2 O 0.88317 0.08851 -0.00205 0.0
Mn3 Mn 0.90985 0.02036 0.96508 0.0
O4 O 0.13308 0.94083 0.99469 0.0
O5 O 0.17102 0.0792 0.01199 0.0
Mn6 Mn 0.23902 0.04225 0.04044 0.0
O7 O 0.06278 0.01745 0.05985 0.0
O8 O 0.26086 0.96542 0.01417 0.0
O9 O 0.08113 0.03318 0.94374 0.0
O10 O 0.95511 0.03601 0.92061 0.0
O11 O 0.28881 0.11693 0.03239 0.0
O12 O 0.18873 0.0354 0.08493 0.0
C13 C 0.90277 0.93277 0.98274 0.0
C14 C 0.93871 0.12777 0.00998 0.0
C15 C 0.20637 0.92604 -0.00039 0.0
C16 C 0.22247 0.12582 0.01401 0.0
C17 C 0.11511 0.02173 0.08803 0.0
C18 C 0.02967 0.03858 0.91654 0.0
O19 O 0.96783 0.96876 0.99006 0.0
O20 O 0.8447 0.95274 0.96242 0.0
O21 O 0.50673 0.60908 0.50963 0.0
Mn22 Mn 0.56962 0.52535 0.50079 0.0
O23 O 0.38906 0.5886 0.47762 0.0
Mn24 Mn 0.41549 0.50964 0.45651 0.0
O25 O 0.63541 0.4423 0.49242 0.0
O26 O 0.66906 0.58057 0.51235 0.0
Mn27 Mn 0.736 0.54472 0.54201 0.0
O28 O 0.56186 0.51352 0.55876 0.0
O29 O 0.76023 0.4678 0.51661 0.0
O30 O 0.58195 0.53882 0.4431 0.0
O31 O 0.46656 0.50655 0.41225 0.0
O32 O 0.78602 0.61918 0.53399 0.0
O33 O 0.68469 0.53798 0.58615 0.0
C34 C 0.40305 0.43075 0.48315 0.0
C35 C 0.43715 0.62541 0.49899 0.0
C36 C 0.70823 0.42825 0.49972 0.0
C37 C 0.72074 0.62712 0.51447 0.0
C38 C 0.61198 0.52046 0.58787 0.0
C39 C 0.53774 0.527 0.41229 0.0
O40 O 0.46738 0.46789 0.48975 0.0
O41 O 0.34702 0.44614 0.45985 0.0
C42 C 0.05758 0.92997 0.25926 0.0
C43 C 0.05924 0.98605 0.24234 0.0
C44 C 0.05947 0.93238 0.29898 0.0
C45 C 0.06456 0.99095 0.32231 0.0
C46 C 0.06853 0.04673 0.30498 0.0
C47 C 0.06513 0.04426 0.26548 0.0
C48 C 0.06252 -0.00529 0.36447 0.0
C49 C 0.10275 0.95177 0.38485 0.0
C50 C 0.09889 0.95488 0.42478 0.0
C51 C 0.05481 0.00303 0.44416 0.0
C52 C 1.01705 0.04773 0.42411 0.0
C53 C 1.02002 0.04232 0.38449 0.0
C54 C 0.9733 0.10081 0.44335 0.0
C55 C 0.91016 0.0898 0.46639 0.0
C56 C 0.98795 0.16221 0.43434 0.0
C57 C 0.93755 0.21076 0.44615 0.0
C58 C 0.87241 0.19918 0.46776 0.0
C59 C 0.14442 0.90959 0.44575 0.0
C60 C 0.15686 0.84817 0.42795 0.0
C61 C 0.18132 0.92843 0.48219 0.0
C62 C 0.23392 0.88862 0.49888 0.0
C63 C 0.25122 0.83001 0.47914 0.0
C64 C 0.21043 0.80928 0.44421 0.0
C65 C 0.86063 0.13904 0.47911 0.0
H66 H 0.05496 0.88451 0.24176 0.0
H67 H 0.05597 0.88854 0.31135 0.0
H68 H 0.07498 0.09257 0.32196 0.0
H69 H 0.06939 0.08793 0.25293 0.0
H70 H 0.13911 0.91716 0.36953 0.0
H71 H 0.98744 0.07515 0.36908 0.0
H72 H 0.05046 0.00625 0.47465 0.0
H73 H 0.89721 0.04261 0.47301 0.0
H74 H 0.03654 0.17198 0.41673 0.0
H75 H 0.94833 0.25718 0.43768 0.0
H76 H 0.12715 0.83057 0.40077 0.0
H77 H 0.1732 0.97507 0.49701 0.0
H78 H 0.81107 0.1295 0.49617 0.0
H79 H 0.2217 0.76342 0.42895 0.0
H80 H 0.26418 0.90493 0.52616 0.0
C81 C 0.02788 0.11882 0.74545 0.0
C82 C 0.05421 0.06238 0.75819 0.0
C83 C 1.0167 0.12349 0.70651 0.0
C84 C 0.02958 0.07141 0.67955 0.0
C85 C 0.05652 0.01549 0.69197 0.0
C86 C 0.06977 0.01128 0.73067 0.0
C87 C 1.01564 0.07452 0.63837 0.0
C88 C 0.05447 0.12117 0.62083 0.0
C89 C 0.04972 0.11925 0.58095 0.0
C90 C 1.00271 0.07128 0.55894 0.0
C91 C 0.96239 0.02524 0.57637 0.0
C92 C 0.96937 0.02697 0.61598 0.0
C93 C 0.91671 0.97248 0.55364 0.0
C94 C 0.84479 0.98291 0.53386 0.0
C95 C 0.94119 0.91048 0.55496 0.0
C96 C 0.89352 0.85951 0.53755 0.0
C97 C 0.82018 0.86962 0.51889 0.0
C98 C 0.10129 0.16302 0.56271 0.0
C99 C 0.11301 0.22632 0.57875 0.0
C100 C 0.14608 0.14013 0.53181 0.0
C101 C 0.20554 0.17831 0.5192 0.0
C102 C 0.2211 0.24053 0.53698 0.0
C103 C 0.17187 0.26466 0.56595 0.0
C104 C 0.79641 0.93163 0.51669 0.0
H105 H 1.01362 0.15902 0.76537 0.0
H106 H 0.99585 0.16716 0.69749 0.0
H107 H 0.06821 0.97502 0.67161 0.0
H108 H 0.09233 0.96761 0.73878 0.0
H109 H 0.0929 0.15627 0.63814 0.0
H110 H 0.93946 0.99057 0.6294 0.0
H111 H 0.99968 0.06849 0.52833 0.0
H112 H 0.82453 0.03051 0.53315 0.0
H113 H 0.99607 0.90152 0.57047 0.0
H114 H 0.91222 0.81194 0.54011 0.0
H115 H 0.07789 0.24582 0.60193 0.0
H116 H 0.13856 0.09158 0.51876 0.0
H117 H 0.73968 0.94026 0.50274 0.0
H118 H 0.1791 0.31315 0.57913 0.0
H119 H 0.24134 0.15787 0.49657 0.0
C120 C 0.55974 0.42955 0.75951 0.0
C121 C 0.56003 0.48536 0.74231 0.0
C122 C 0.56146 0.43239 0.79924 0.0
C123 C 0.56515 0.49116 0.8224 0.0
C124 C 0.56789 0.54673 0.80481 0.0
C125 C 0.56452 0.54382 0.76527 0.0
C126 C 0.56347 0.4951 0.8646 0.0
C127 C 0.60371 0.45194 0.88481 0.0
C128 C 0.60025 0.45487 0.92469 0.0
C129 C 0.55637 0.50278 0.94432 0.0
C130 C 0.51841 0.5477 0.92453 0.0
C131 C 0.52129 0.54277 0.88488 0.0
C132 C 0.47468 0.60047 0.94414 0.0
C133 C 0.41063 0.58897 0.96656 0.0
C134 C 0.49033 0.66224 0.93604 0.0
C135 C 0.43988 0.71072 0.94797 0.0
C136 C 0.37348 0.69867 0.96872 0.0
C137 C 0.64622 0.40963 0.94535 0.0
C138 C 0.65598 0.34759 0.92795 0.0
C139 C 0.68645 0.42921 0.98089 0.0
C140 C 0.73963 0.38928 -0.00294 0.0
C141 C 0.75419 0.32968 0.97768 0.0
C142 C 0.70993 0.30841 0.9437 0.0
C143 C 0.3609 0.63807 0.97934 0.0
H144 H 0.55776 0.38391 0.74222 0.0
H145 H 0.55877 0.38865 0.81174 0.0
H146 H 0.57331 0.59276 0.82161 0.0
H147 H 0.5675 0.58738 0.75255 0.0
H148 H 0.63984 0.41719 0.86944 0.0
H149 H 0.48877 0.57589 0.86968 0.0
H150 H 0.55248 0.50556 0.97482 0.0
H151 H 0.39701 0.5415 0.97255 0.0
H152 H 0.53966 0.67238 0.91896 0.0
H153 H 0.45141 0.75742 0.94005 0.0
H154 H 0.62377 0.32978 0.90141 0.0
H155 H 0.68034 0.47645 0.99529 0.0
H156 H 0.31033 0.62802 0.99565 0.0
H157 H 0.71844 0.26175 0.92882 0.0
H158 H 0.77238 0.40619 0.02361 0.0
C159 C 0.54289 0.63038 0.2437 0.0
C160 C 0.55869 0.57361 0.25858 0.0
C161 C 0.53024 0.6309 0.20447 0.0
C162 C 0.53233 0.57455 0.17945 0.0
C163 C 0.5476 0.51785 0.19439 0.0
C164 C 0.56078 0.51741 0.2335 0.0
C165 C 0.52059 0.57471 0.13776 0.0
C166 C 0.5606 0.62002 0.11957 0.0
C167 C 0.55519 0.6175 0.07968 0.0
C168 C 0.50724 0.56966 0.05815 0.0
C169 C 0.46666 0.52439 0.07607 0.0
C170 C 0.47355 0.5271 0.11575 0.0
C171 C 0.41978 0.47188 0.05378 0.0
C172 C 0.34709 0.48274 0.0348 0.0
C173 C 0.44385 0.40973 0.05489 0.0
C174 C 0.39479 0.35901 0.03827 0.0
C175 C 0.32055 0.36959 0.02063 0.0
C176 C 0.60594 0.66128 0.06097 0.0
C177 C 0.61882 0.72439 0.07724 0.0
C178 C 0.64847 0.63876 0.02918 0.0
C179 C 0.70689 0.67706 0.01583 0.0
C180 C 0.72391 0.73882 0.03395 0.0
C181 C 0.67692 0.76268 0.06387 0.0
C182 C 0.29738 0.43174 0.01841 0.0
H183 H 0.54022 0.67435 0.26241 0.0
H184 H 0.51791 0.6752 0.19374 0.0
H185 H 0.55018 0.47377 0.17577 0.0
H186 H 0.57084 0.47273 0.24418 0.0
H187 H 0.59982 0.65506 0.13643 0.0
H188 H 0.44224 0.4918 0.12946 0.0
H189 H 0.50318 0.56661 0.02755 0.0
H190 H 0.32723 0.53049 0.03425 0.0
H191 H 0.49943 0.40047 0.06972 0.0
H192 H 0.4131 0.31131 0.04073 0.0
H193 H 0.5853 0.74378 0.10103 0.0
H194 H 0.63998 0.59043 0.0159 0.0
H195 H 0.23997 0.44071 0.00524 0.0
H196 H 0.68544 0.81093 0.07735 0.0
H197 H 0.74093 0.65715 0.99239 0.0
C198 C 0.24961 0.20973 0.9743 0.0
C199 C 0.20715 0.18922 0.00388 0.0
H200 H 0.31928 0.2854 0.95629 0.0
C201 C 0.18396 0.2343 0.03323 0.0
H202 H 0.26933 0.17567 0.95173 0.0
C203 C 0.21332 0.29678 0.0361 0.0
C204 C 0.2652 0.31494 0.00933 0.0
H205 H 0.15315 0.21941 0.0569 0.0
H206 H 0.20323 0.32869 0.06153 0.0
C207 C 0.2789 0.27231 0.97709 0.0
C208 C 0.23541 0.83147 0.95434 0.0
C209 C 0.23008 0.8601 0.99179 0.0
H210 H 0.2862 0.75697 0.9178 0.0
C211 C 0.26328 0.83056 0.02196 0.0
H212 H 0.21128 0.85397 0.93072 0.0
C213 C 0.3054 0.77508 0.0147 0.0
C214 C 0.31612 0.74918 0.9771 0.0
H215 H 0.26042 0.85248 0.05109 0.0
H216 H 0.33399 0.75494 0.03826 0.0
C217 C 0.27868 0.77652 0.94704 0.0
C218 C 0.85391 0.82274 0.97052 0.0
C219 C 0.88946 0.87165 -0.0034 0.0
H220 H 0.7715 0.74394 0.96145 0.0
C221 C 0.8827 0.86953 0.0356 0.0
H222 H 0.8577 0.82397 0.9402 0.0
C223 C 0.83307 0.8233 0.04799 0.0
C224 C 0.78907 0.77904 0.02152 0.0
H225 H 0.90858 0.90725 0.0562 0.0
H226 H 0.82542 0.82472 0.07822 0.0
C227 C 0.80376 0.77712 0.98276 0.0
C228 C 0.92451 0.2188 0.97541 0.0
C229 C 0.91761 0.19377 0.00988 0.0
H230 H 0.87603 0.28082 0.93791 0.0
C231 C 0.86592 0.2214 0.0366 0.0
H232 H 0.9621 0.19682 0.95389 0.0
C233 C 0.81696 0.27017 0.02759 0.0
C234 C 0.8176 0.29 0.9913 0.0
H235 H 0.85845 0.20164 0.06295 0.0
H236 H 0.7739 0.28831 0.04757 0.0
C237 C 0.87423 0.26597 0.966 0.0
C238 C 0.67743 0.73605 0.52756 0.0
C239 C 0.70785 0.68894 0.50145 0.0
H240 H 0.69045 0.83237 0.55351 0.0
C241 C 0.75817 0.70706 0.47397 0.0
H242 H 0.64016 0.72311 0.54964 0.0
C243 C 0.7878 0.76944 0.47647 0.0
C244 C 0.76637 0.81444 0.50616 0.0
H245 H 0.78342 0.67148 0.45395 0.0
H246 H 0.83398 0.78076 0.45791 0.0
C247 C 0.70687 0.79853 0.53004 0.0
C248 C 0.73002 0.33 0.45537 0.0
C249 C 0.73386 0.36267 0.49222 0.0
H250 H 0.77257 0.25153 0.41875 0.0
C251 C 0.77439 0.33627 0.52185 0.0
H252 H 0.69962 0.34972 0.43213 0.0
C253 C 0.81489 0.28018 0.51441 0.0
C254 C 0.8164 0.25017 0.47708 0.0
H255 H 0.77792 0.36084 0.55057 0.0
H256 H 0.84913 0.26253 0.53732 0.0
C257 C 0.77187 0.27429 0.44778 0.0
C258 C 0.3777 0.3734 0.53844 0.0
C259 C 0.38912 0.37184 0.4995 0.0
H260 H 0.31678 0.33158 0.58118 0.0
C261 C 0.35722 0.32037 0.47423 0.0
H262 H 0.40076 0.41305 0.55841 0.0
C263 C 0.30576 0.27592 0.48663 0.0
C264 C 0.28683 0.28086 0.52498 0.0
H265 H 0.36444 0.31873 0.44392 0.0
H266 H 0.27608 0.24106 0.46543 0.0
C267 C 0.32745 0.32775 0.55115 0.0
C268 C 0.3543 0.70835 0.53034 0.0
C269 C 0.41431 0.69132 0.50524 0.0
H270 H 0.25512 0.76793 0.54209 0.0
C271 C 0.42982 0.72873 0.47646 0.0
H272 H 0.34035 0.67897 0.55209 0.0
C273 C 0.38014 0.77805 0.47011 0.0
C274 C 0.31512 0.79115 0.49283 0.0
H275 H 0.4743 0.71522 0.45611 0.0
H276 H 0.38845 0.80258 0.44554 0.0
C277 C 0.30521 0.75861 0.52438 0.0
C278 C 0.15277 0.98054 0.14856 0.0
C279 C 0.09362 0.00555 0.12572 0.0
H280 H 0.18684 0.95345 0.20299 0.0
C281 C 1.0183 0.01676 0.14025 0.0
H282 H 0.21107 0.97031 0.13805 0.0
C283 C 1.0049 0.00737 0.178 0.0
C284 C 0.06585 0.985 0.201 0.0
H285 H 0.97151 0.03554 0.12324 0.0
H286 H 0.94812 0.01943 0.18965 0.0
C287 C 0.13889 0.97009 0.18563 0.0
C288 C 0.04372 0.98998 0.85066 0.0
C289 C 0.05495 0.04306 0.87798 0.0
H290 H 0.03213 0.95421 0.79201 0.0
C291 C 0.07324 0.10195 0.86639 0.0
H292 H 0.02799 0.94434 0.85911 0.0
C293 C 0.0771 0.10797 0.82761 0.0
C294 C 0.06099 0.05534 0.79972 0.0
H295 H 0.08056 0.14374 0.88715 0.0
H296 H 0.09043 0.15427 0.81962 0.0
C297 C 0.04638 -0.00406 0.81204 0.0
C298 C 0.51758 0.52018 0.64111 0.0
C299 C 0.58949 0.50256 0.62494 0.0
H300 H 0.45192 0.52874 0.69203 0.0
C301 C 0.6459 0.47185 0.64619 0.0
H302 H 0.47318 0.54378 0.62531 0.0
C303 C 0.63315 0.46212 0.68355 0.0
C304 C 0.56425 0.48381 0.70072 0.0
H305 H 0.70158 0.45718 0.63426 0.0
H306 H 0.67939 0.44107 0.69976 0.0
C307 C 0.50555 0.51162 0.67909 0.0
C308 C 0.6201 0.52383 0.35483 0.0
C309 C 0.55959 0.55037 0.37682 0.0
H310 H 0.66795 0.51127 0.29939 0.0
C311 C 0.50658 0.59123 0.3612 0.0
H312 H 0.66108 0.49174 0.36623 0.0
C313 C 0.50962 0.60174 0.32338 0.0
C314 C 0.56597 0.57157 0.30025 0.0
H315 H 0.45895 0.61179 0.37768 0.0
H316 H 0.46426 0.63 0.31165 0.0
C317 C 0.6232 0.5344 0.31662 0.0
loop_
_geom_bond_atom_site_label_1
_geom_bond_atom_site_label_2
_geom_bond_distance
_geom_bond_site_symmetry_2
_ccdc_geom_bond_type
O0 Mn1 2.163 1_654 S
O0 C14 1.244 1_554 S
Mn1 O0 2.163 1_456 S
Mn1 O4 2.160 1_545 S
Mn1 O5 2.221 1_556 S
Mn1 O7 2.163 1_556 S
Mn1 O9 2.160 . S
Mn1 O19 2.221 1_445 S
O2 Mn3 2.087 . S
O2 C14 1.256 . S
Mn3 O2 2.087 . S
Mn3 O10 2.089 . S
Mn3 O19 2.290 1_545 S
Mn3 O20 2.251 1_545 S
O4 Mn1 2.160 1_565 S
O4 C15 1.239 1_556 S
O5 Mn1 2.221 1_554 S
O5 Mn6 2.290 . S
O5 C16 1.278 . S
Mn6 O5 2.290 . S
Mn6 O8 2.089 1_545 S
Mn6 O11 2.251 . S
Mn6 O12 2.087 . S
O7 Mn1 2.163 1_554 S
O7 C17 1.244 . S
O8 Mn6 2.089 1_565 S
O8 C15 1.256 . S
O9 Mn1 2.160 . S
O9 C18 1.239 . S
O10 Mn3 2.089 . S
O10 C18 1.256 1_655 S
O11 Mn6 2.251 . S
O11 C16 1.241 . S
O12 Mn6 2.087 . S
O12 C17 1.256 . S
C13 O19 1.265 1_554 S
C13 O20 1.235 1_554 S
C14 O0 1.244 1_556 S
C14 O2 1.256 . S
C15 O4 1.239 1_554 S
C15 O8 1.256 . S
C16 O5 1.278 . S
C16 O11 1.241 . S
C17 O7 1.244 . S
C17 O12 1.256 . S
C18 O9 1.239 . S
C18 O10 1.256 1_455 S
O19 Mn1 2.221 1_665 S
O19 Mn3 2.290 1_565 S
O19 C13 1.265 1_556 S
O20 Mn3 2.251 1_565 S
O20 C13 1.235 1_556 S
O21 Mn22 2.163 . S
O21 C35 1.244 . S
Mn22 O21 2.163 . S
Mn22 O25 2.160 . S
Mn22 O26 2.221 . S
Mn22 O28 2.163 . S
Mn22 O30 2.160 . S
Mn22 O40 2.221 . S
O23 Mn24 2.087 . S
O23 C35 1.256 . S
Mn24 O23 2.087 . S
Mn24 O31 2.089 . S
Mn24 O40 2.290 . S
Mn24 O41 2.251 . S
O25 Mn22 2.160 . S
O25 C36 1.239 . S
O26 Mn22 2.221 . S
O26 Mn27 2.290 . S
O26 C37 1.278 . S
Mn27 O26 2.290 . S
Mn27 O29 2.089 . S
Mn27 O32 2.251 . S
Mn27 O33 2.087 . S
O28 Mn22 2.163 . S
O28 C38 1.244 . S
O29 Mn27 2.089 . S
O29 C36 1.256 . S
O30 Mn22 2.160 . S
O30 C39 1.239 . S
O31 Mn24 2.089 . S
O31 C39 1.256 . S
O32 Mn27 2.251 . S
O32 C37 1.241 . S
O33 Mn27 2.087 . S
O33 C38 1.256 . S
C34 O40 1.278 . S
C34 O41 1.241 . S
C35 O21 1.244 . S
C35 O23 1.256 . S
C36 O25 1.239 . S
C36 O29 1.256 . S
C37 O26 1.278 . S
C37 O32 1.241 . S
C38 O28 1.244 . S
C38 O33 1.256 . S
C39 O30 1.239 . S
C39 O31 1.256 . S
O40 Mn22 2.221 . S
O40 Mn24 2.290 . S
O40 C34 1.278 . S
O41 Mn24 2.251 . S
O41 C34 1.241 . S
C42 C43 1.386 . S
C42 C44 1.397 . S
C42 H66 0.931 . S
C43 C42 1.386 . S
C43 C47 1.397 1_565 S
C44 C42 1.397 . S
C44 C45 1.384 . S
C44 H67 0.930 . S
C45 C44 1.384 . S
C45 C46 1.377 1_565 S
C45 C48 1.481 . S
C46 C45 1.377 1_545 S
C46 C47 1.389 . S
C46 H68 0.929 . S
C47 C43 1.397 1_545 S
C47 C46 1.389 . S
C47 H69 0.931 . S
C48 C45 1.481 . S
C48 C49 1.387 . S
C48 C53 1.390 1_565 S
C49 C48 1.387 . S
C49 C50 1.401 . S
C49 H70 0.930 . S
C50 C49 1.401 . S
C50 C51 1.376 1_565 S
C50 C59 1.511 . S
C51 C50 1.376 1_545 S
C51 C52 1.389 1_455 S
C51 H72 0.931 . S
C52 C51 1.389 1_655 S
C52 C53 1.361 1_655 S
C52 C54 1.503 . S
C53 C48 1.390 1_545 S
C53 C52 1.361 1_455 S
C53 H71 0.931 1_455 S
C54 C52 1.503 . S
C54 C55 1.371 . S
C54 C56 1.365 . S
C55 C54 1.371 . S
C55 C65 1.386 . S
C55 H73 0.931 . S
C56 C54 1.365 . S
C56 C57 1.409 . S
C56 H74 0.929 . S
C57 C56 1.409 . S
C57 C58 1.380 . S
C57 H75 0.930 . S
C58 C57 1.380 . S
C58 C65 1.357 . S
C59 C50 1.511 . S
C59 C60 1.341 . S
C59 C61 1.371 . S
C60 C59 1.341 . S
C60 C64 1.394 . S
C60 H76 0.930 . S
C61 C59 1.371 . S
C61 C62 1.392 . S
C61 H77 0.931 . S
C62 C61 1.392 . S
C62 C63 1.331 . S
C62 H80 0.932 . S
C63 C62 1.331 . S
C63 C64 1.336 . S
C64 C60 1.394 . S
C64 C63 1.336 . S
C64 H79 0.929 . S
C65 C55 1.386 . S
C65 C58 1.357 . S
C65 H78 0.928 . S
H66 C42 0.931 . S
H67 C44 0.930 . S
H68 C46 0.929 . S
H69 C47 0.931 . S
H70 C49 0.930 . S
H71 C53 0.931 1_655 S
H72 C51 0.931 . S
H73 C55 0.931 . S
H74 C56 0.929 . S
H75 C57 0.930 . S
H76 C60 0.930 . S
H77 C61 0.931 . S
H78 C65 0.928 . S
H79 C64 0.929 . S
H80 C62 0.932 . S
C81 C82 1.386 . S
C81 C83 1.397 . S
C81 H105 0.931 . S
C82 C81 1.386 . S
C82 C86 1.397 . S
C83 C81 1.397 . S
C83 C84 1.384 . S
C83 H106 0.930 . S
C84 C83 1.384 . S
C84 C85 1.377 . S
C84 C87 1.481 . S
C85 C84 1.377 . S
C85 C86 1.389 . S
C85 H107 0.929 1_545 S
C86 C82 1.397 . S
C86 C85 1.389 . S
C86 H108 0.931 1_545 S
C87 C84 1.481 . S
C87 C88 1.387 . S
C87 C92 1.390 1_455 S
C88 C87 1.387 . S
C88 C89 1.401 . S
C88 H109 0.930 . S
C89 C88 1.401 . S
C89 C90 1.376 1_455 S
C89 C98 1.511 . S
C90 C89 1.376 1_655 S
C90 C91 1.392 . S
C90 H111 0.931 . S
C91 C90 1.392 . S
C91 C92 1.361 . S
C91 C93 1.500 1_545 S
C92 C87 1.390 1_655 S
C92 C91 1.361 . S
C92 H110 0.931 . S
C93 C91 1.500 1_565 S
C93 C94 1.371 . S
C93 C95 1.365 . S
C94 C93 1.371 . S
C94 C104 1.386 . S
C94 H112 0.931 1_565 S
C95 C93 1.365 . S
C95 C96 1.409 . S
C95 H113 0.929 . S
C96 C95 1.409 . S
C96 C97 1.380 . S
C96 H114 0.930 . S
C97 C96 1.380 . S
C97 C104 1.357 . S
C98 C89 1.511 . S
C98 C99 1.341 . S
C98 C100 1.371 . S
C99 C98 1.341 . S
C99 C103 1.394 . S
C99 H115 0.930 . S
C100 C98 1.371 . S
C100 C101 1.392 . S
C100 H116 0.931 . S
C101 C100 1.392 . S
C101 C102 1.331 . S
C101 H119 0.932 . S
C102 C101 1.331 . S
C102 C103 1.336 . S
C103 C99 1.394 . S
C103 C102 1.336 . S
C103 H118 0.929 . S
C104 C94 1.386 . S
C104 C97 1.357 . S
C104 H117 0.928 . S
H105 C81 0.931 . S
H106 C83 0.930 . S
H107 C85 0.929 1_565 S
H108 C86 0.931 1_565 S
H109 C88 0.930 . S
H110 C92 0.931 . S
H111 C90 0.931 . S
H112 C94 0.931 1_545 S
H113 C95 0.929 . S
H114 C96 0.930 . S
H115 C99 0.930 . S
H116 C100 0.931 . S
H117 C104 0.928 . S
H118 C103 0.929 . S
H119 C101 0.932 . S
C120 C121 1.386 . S
C120 C122 1.397 . S
C120 H144 0.931 . S
C121 C120 1.386 . S
C121 C125 1.397 . S
C122 C120 1.397 . S
C122 C123 1.384 . S
C122 H145 0.930 . S
C123 C122 1.384 . S
C123 C124 1.377 . S
C123 C126 1.481 . S
C124 C123 1.377 . S
C124 C125 1.389 . S
C124 H146 0.929 . S
C125 C121 1.397 . S
C125 C124 1.389 . S
C125 H147 0.931 . S
C126 C123 1.481 . S
C126 C127 1.387 . S
C126 C131 1.390 . S
C127 C126 1.387 . S
C127 C128 1.401 . S
C127 H148 0.930 . S
C128 C127 1.401 . S
C128 C129 1.376 . S
C128 C137 1.511 . S
C129 C128 1.376 . S
C129 C130 1.392 . S
C129 H150 0.931 . S
C130 C129 1.392 . S
C130 C131 1.361 . S
C130 C132 1.500 . S
C131 C126 1.390 . S
C131 C130 1.361 . S
C131 H149 0.931 . S
C132 C130 1.500 . S
C132 C133 1.371 . S
C132 C134 1.365 . S
C133 C132 1.371 . S
C133 C143 1.386 1_556 S
C133 H151 0.931 . S
C134 C132 1.365 . S
C134 C135 1.409 . S
C134 H152 0.929 . S
C135 C134 1.409 . S
C135 C136 1.380 . S
C135 H153 0.930 . S
C136 C135 1.380 . S
C136 C143 1.357 1_556 S
C137 C128 1.511 . S
C137 C138 1.341 . S
C137 C139 1.371 . S
C138 C137 1.341 . S
C138 C142 1.394 . S
C138 H154 0.930 . S
C139 C137 1.371 . S
C139 C140 1.392 1_556 S
C139 H155 0.931 1_556 S
C140 C139 1.392 1_554 S
C140 C141 1.331 1_554 S
C140 H158 0.932 . S
C141 C140 1.331 1_556 S
C141 C142 1.336 . S
C142 C138 1.394 . S
C142 C141 1.336 . S
C142 H157 0.929 . S
C143 C133 1.386 1_554 S
C143 C136 1.357 1_554 S
C143 H156 0.928 . S
H144 C120 0.931 . S
H145 C122 0.930 . S
H146 C124 0.929 . S
H147 C125 0.931 . S
H148 C127 0.930 . S
H149 C131 0.931 . S
H150 C129 0.931 . S
H151 C133 0.931 . S
H152 C134 0.929 . S
H153 C135 0.930 . S
H154 C138 0.930 . S
H155 C139 0.931 1_554 S
H156 C143 0.928 . S
H157 C142 0.929 . S
H158 C140 0.932 . S
C159 C160 1.386 . S
C159 C161 1.397 . S
C159 H183 0.931 . S
C160 C159 1.386 . S
C160 C164 1.397 . S
C161 C159 1.397 . S
C161 C162 1.384 . S
C161 H184 0.930 . S
C162 C161 1.384 . S
C162 C163 1.377 . S
C162 C165 1.481 . S
C163 C162 1.377 . S
C163 C164 1.389 . S
C163 H185 0.929 . S
C164 C160 1.397 . S
C164 C163 1.389 . S
C164 H186 0.931 . S
C165 C162 1.481 . S
C165 C166 1.387 . S
C165 C170 1.390 . S
C166 C165 1.387 . S
C166 C167 1.401 . S
C166 H187 0.930 . S
C167 C166 1.401 . S
C167 C168 1.376 . S
C167 C176 1.511 . S
C168 C167 1.376 . S
C168 C169 1.392 . S
C168 H189 0.931 . S
C169 C168 1.392 . S
C169 C170 1.361 . S
C169 C171 1.500 . S
C170 C165 1.390 . S
C170 C169 1.361 . S
C170 H188 0.931 . S
C171 C169 1.500 . S
C171 C172 1.371 . S
C171 C173 1.365 . S
C172 C171 1.371 . S
C172 C182 1.386 1_554 S
C172 H190 0.931 . S
C173 C171 1.365 . S
C173 C174 1.409 . S
C173 H191 0.929 . S
C174 C173 1.409 . S
C174 C175 1.380 . S
C174 H192 0.930 . S
C175 C174 1.380 . S
C175 C182 1.357 1_554 S
C176 C167 1.511 . S
C176 C177 1.341 . S
C176 C178 1.371 . S
C177 C176 1.341 . S
C177 C181 1.394 . S
C177 H193 0.930 . S
C178 C176 1.371 . S
C178 C179 1.392 . S
C178 H194 0.931 . S
C179 C178 1.392 . S
C179 C180 1.331 . S
C179 H197 0.932 1_554 S
C180 C179 1.331 . S
C180 C181 1.336 . S
C181 C177 1.394 . S
C181 C180 1.336 . S
C181 H196 0.929 . S
C182 C172 1.386 1_556 S
C182 C175 1.357 1_556 S
C182 H195 0.928 . S
H183 C159 0.931 . S
H184 C161 0.930 . S
H185 C163 0.929 . S
H186 C164 0.931 . S
H187 C166 0.930 . S
H188 C170 0.931 . S
H189 C168 0.931 . S
H190 C172 0.931 . S
H191 C173 0.929 . S
H192 C174 0.930 . S
H193 C177 0.930 . S
H194 C178 0.931 . S
H195 C182 0.928 . S
H196 C181 0.929 . S
H197 C179 0.932 1_556 S
C198 C199 1.387 1_556 S
C198 H202 0.950 . S
C198 C207 1.390 . S
C199 C198 1.387 1_554 S
C199 C201 1.387 . S
H200 C207 0.950 . S
C201 C199 1.387 . S
C201 C203 1.390 . S
C201 H205 0.950 . S
H202 C198 0.950 . S
C203 C201 1.390 . S
C203 C204 1.387 . S
C203 H206 0.950 . S
C204 C203 1.387 . S
C204 C207 1.387 1_554 S
H205 C201 0.950 . S
H206 C203 0.950 . S
C207 C198 1.390 . S
C207 H200 0.950 . S
C207 C204 1.387 1_556 S
C208 C209 1.387 1_556 S
C208 H212 0.950 . S
C208 C217 1.390 . S
C209 C208 1.387 1_554 S
C209 C211 1.387 . S
H210 C217 0.950 . S
C211 C209 1.387 . S
C211 C213 1.390 . S
C211 H215 0.950 . S
H212 C208 0.950 . S
C213 C211 1.390 . S
C213 C214 1.387 . S
C213 H216 0.950 . S
C214 C213 1.387 . S
C214 C217 1.387 1_554 S
H215 C211 0.950 . S
H216 C213 0.950 . S
C217 C208 1.390 . S
C217 H210 0.950 . S
C217 C214 1.387 1_556 S
C218 C219 1.387 1_556 S
C218 H222 0.950 . S
C218 C227 1.390 . S
C219 C218 1.387 1_554 S
C219 C221 1.387 . S
H220 C227 0.950 . S
C221 C219 1.387 . S
C221 C223 1.390 . S
C221 H225 0.950 . S
H222 C218 0.950 . S
C223 C221 1.390 . S
C223 C224 1.387 . S
C223 H226 0.950 . S
C224 C223 1.387 . S
C224 C227 1.387 1_554 S
H225 C221 0.950 . S
H226 C223 0.950 . S
C227 C218 1.390 . S
C227 H220 0.950 . S
C227 C224 1.387 1_556 S
C228 C229 1.415 . S
C228 H232 0.950 . S
C228 C237 1.390 . S
C229 C228 1.415 . S
C229 C231 1.363 1_556 S
H230 C237 0.950 . S
C231 C229 1.363 1_554 S
C231 C233 1.390 . S
C231 H235 0.950 . S
H232 C228 0.950 . S
C233 C231 1.390 . S
C233 C234 1.387 1_554 S
C233 H236 0.950 . S
C234 C233 1.387 1_556 S
C234 C237 1.387 . S
H235 C231 0.950 . S
H236 C233 0.950 . S
C237 C228 1.390 . S
C237 H230 0.950 . S
C237 C234 1.387 . S
C238 C239 1.387 . S
C238 H242 0.950 . S
C238 C247 1.390 . S
C239 C238 1.387 . S
C239 C241 1.387 . S
H240 C247 0.950 . S
C241 C239 1.387 . S
C241 C243 1.390 . S
C241 H245 0.950 . S
H242 C238 0.950 . S
C243 C241 1.390 . S
C243 C244 1.387 . S
C243 H246 0.950 . S
C244 C243 1.387 . S
C244 C247 1.387 . S
H245 C241 0.950 . S
H246 C243 0.950 . S
C247 C238 1.390 . S
C247 H240 0.950 . S
C247 C244 1.387 . S
C248 C249 1.387 . S
C248 H252 0.950 . S
C248 C257 1.390 . S
C249 C248 1.387 . S
C249 C251 1.387 . S
H250 C257 0.950 . S
C251 C249 1.387 . S
C251 C253 1.390 . S
C251 H255 0.950 . S
H252 C248 0.950 . S
C253 C251 1.390 . S
C253 C254 1.387 . S
C253 H256 0.950 . S
C254 C253 1.387 . S
C254 C257 1.387 . S
H255 C251 0.950 . S
H256 C253 0.950 . S
C257 C248 1.390 . S
C257 H250 0.950 . S
C257 C254 1.387 . S
C258 C259 1.387 . S
C258 H262 0.950 . S
C258 C267 1.390 . S
C259 C258 1.387 . S
C259 C261 1.387 . S
H260 C267 0.950 . S
C261 C259 1.387 . S
C261 C263 1.390 . S
C261 H265 0.950 . S
H262 C258 0.950 . S
C263 C261 1.390 . S
C263 C264 1.387 . S
C263 H266 0.950 . S
C264 C263 1.387 . S
C264 C267 1.387 . S
H265 C261 0.950 . S
H266 C263 0.950 . S
C267 C258 1.390 . S
C267 H260 0.950 . S
C267 C264 1.387 . S
C268 C269 1.387 . S
C268 H272 0.950 . S
C268 C277 1.390 . S
C269 C268 1.387 . S
C269 C271 1.387 . S
H270 C277 0.950 . S
C271 C269 1.387 . S
C271 C273 1.390 . S
C271 H275 0.950 . S
H272 C268 0.950 . S
C273 C271 1.390 . S
C273 C274 1.387 . S
C273 H276 0.950 . S
C274 C273 1.387 . S
C274 C277 1.387 . S
H275 C271 0.950 . S
H276 C273 0.950 . S
C277 C268 1.390 . S
C277 H270 0.950 . S
C277 C274 1.387 . S
C278 C279 1.388 . S
C278 H282 0.950 1_545 S
C278 C287 1.390 1_545 S
C279 C278 1.388 . S
C279 C281 1.387 1_455 S
H280 C287 0.950 . S
C281 C279 1.387 1_655 S
C281 C283 1.390 . S
C281 H285 0.950 . S
H282 C278 0.950 1_565 S
C283 C281 1.390 . S
C283 C284 1.387 1_645 S
C283 H286 0.950 . S
C284 C283 1.387 1_465 S
C284 C287 1.387 . S
H285 C281 0.950 . S
H286 C283 0.950 . S
C287 C278 1.390 1_565 S
C287 H280 0.950 . S
C287 C284 1.387 . S
C288 C289 1.387 . S
C288 H292 0.950 1_545 S
C288 C297 1.390 . S
C289 C288 1.387 . S
C289 C291 1.387 . S
H290 C297 0.950 1_565 S
C291 C289 1.387 . S
C291 C293 1.390 . S
C291 H295 0.950 . S
H292 C288 0.950 1_565 S
C293 C291 1.390 . S
C293 C294 1.387 . S
C293 H296 0.950 . S
C294 C293 1.387 . S
C294 C297 1.387 . S
H295 C291 0.950 . S
H296 C293 0.950 . S
C297 C288 1.390 . S
C297 H290 0.950 1_545 S
C297 C294 1.387 . S
C298 C299 1.387 . S
C298 H302 0.950 . S
C298 C307 1.390 . S
C299 C298 1.387 . S
C299 C301 1.387 . S
H300 C307 0.950 . S
C301 C299 1.387 . S
C301 C303 1.390 . S
C301 H305 0.950 . S
H302 C298 0.950 . S
C303 C301 1.390 . S
C303 C304 1.387 . S
C303 H306 0.950 . S
C304 C303 1.387 . S
C304 C307 1.387 . S
H305 C301 0.950 . S
H306 C303 0.950 . S
C307 C298 1.390 . S
C307 H300 0.950 . S
C307 C304 1.387 . S
C308 C309 1.387 . S
C308 H312 0.950 . S
C308 C317 1.390 . S
C309 C308 1.387 . S
C309 C311 1.387 . S
H310 C317 0.950 . S
C311 C309 1.387 . S
C311 C313 1.390 . S
C311 H315 0.950 . S
H312 C308 0.950 . S
C313 C311 1.390 . S
C313 C314 1.387 . S
C313 H316 0.950 . S
C314 C313 1.387 . S
C314 C317 1.387 . S
H315 C311 0.950 . S
H316 C313 0.950 . S
C317 C308 1.390 . S
C317 H310 0.950 . S
C317 C314 1.387 . S
C204 C175 1.551 . S
C199 C16 1.509 . S
C209 C15 1.619 . S
C214 C136 1.580 1_554 S
C219 C13 1.319 . S
C224 C180 1.542 . S
C229 C14 1.426 . S
C234 C141 1.455 . S
C239 C37 1.513 . S
C244 C97 1.550 . S
C249 C36 1.619 . S
C254 C58 1.579 . S
C264 C102 1.543 . S
C259 C34 1.312 . S
C274 C63 1.455 . S
C269 C35 1.424 . S
C279 C17 1.521 . S
C284 C43 1.559 . S
C289 C18 1.409 . S
C294 C82 1.461 . S
C304 C121 1.559 . S
C299 C38 1.519 . S
C309 C39 1.407 . S
C314 C160 1.460 . S
