# Generated by pormake.
# Topology pyr, (3,6)-cn, num edge types: 1
# Building blocks:
#     Node 0, Type 0, BuildingBlock: VETTIZ_charged_linker_0, # of connection points: 3
#     Node 1, Type 0, BuildingBlock: VETTIZ_charged_linker_0, # of connection points: 3
#     Node 2, Type 0, BuildingBlock: VETTIZ_charged_linker_0, # of connection points: 3
#     Node 3, Type 0, BuildingBlock: VETTIZ_charged_linker_0, # of connection points: 3
#     Node 4, Type 0, BuildingBlock: VETTIZ_charged_linker_0, # of connection points: 3
#     Node 5, Type 0, BuildingBlock: VETTIZ_charged_linker_0, # of connection points: 3
#     Node 6, Type 0, BuildingBlock: VETTIZ_charged_linker_0, # of connection points: 3
#     Node 7, Type 0, BuildingBlock: VETTIZ_charged_linker_0, # of connection points: 3
#     Node 8, Type 1, BuildingBlock: BETDAH_clean_sbu_0, # of connection points: 6
#     Node 9, Type 1, BuildingBlock: BETDAH_clean_sbu_0, # of connection points: 6
#     Node 10, Type 1, BuildingBlock: BETDAH_clean_sbu_0, # of connection points: 6
#     Node 11, Type 1, BuildingBlock: BETDAH_clean_sbu_0, # of connection points: 6
#     Edge 12, Type (0, 1), BuildingBlock: OJICUG_clean_linker_0, # of connection points: 2
#     Edge 13, Type (0, 1), BuildingBlock: OJICUG_clean_linker_0, # of connection points: 2
#     Edge 14, Type (0, 1), BuildingBlock: OJICUG_clean_linker_0, # of connection points: 2
#     Edge 15, Type (0, 1), BuildingBlock: OJICUG_clean_linker_0, # of connection points: 2
#     Edge 16, Type (0, 1), BuildingBlock: OJICUG_clean_linker_0, # of connection points: 2
#     Edge 17, Type (0, 1), BuildingBlock: OJICUG_clean_linker_0, # of connection points: 2
#     Edge 18, Type (0, 1), BuildingBlock: OJICUG_clean_linker_0, # of connection points: 2
#     Edge 19, Type (0, 1), BuildingBlock: OJICUG_clean_linker_0, # of connection points: 2
#     Edge 20, Type (0, 1), BuildingBlock: OJICUG_clean_linker_0, # of connection points: 2
#     Edge 21, Type (0, 1), BuildingBlock: OJICUG_clean_linker_0, # of connection points: 2
#     Edge 22, Type (0, 1), BuildingBlock: OJICUG_clean_linker_0, # of connection points: 2
#     Edge 23, Type (0, 1), BuildingBlock: OJICUG_clean_linker_0, # of connection points: 2
#     Edge 24, Type (0, 1), BuildingBlock: OJICUG_clean_linker_0, # of connection points: 2
#     Edge 25, Type (0, 1), BuildingBlock: OJICUG_clean_linker_0, # of connection points: 2
#     Edge 26, Type (0, 1), BuildingBlock: OJICUG_clean_linker_0, # of connection points: 2
#     Edge 27, Type (0, 1), BuildingBlock: OJICUG_clean_linker_0, # of connection points: 2
#     Edge 28, Type (0, 1), BuildingBlock: OJICUG_clean_linker_0, # of connection points: 2
#     Edge 29, Type (0, 1), BuildingBlock: OJICUG_clean_linker_0, # of connection points: 2
#     Edge 30, Type (0, 1), BuildingBlock: OJICUG_clean_linker_0, # of connection points: 2
#     Edge 31, Type (0, 1), BuildingBlock: OJICUG_clean_linker_0, # of connection points: 2
#     Edge 32, Type (0, 1), BuildingBlock: OJICUG_clean_linker_0, # of connection points: 2
#     Edge 33, Type (0, 1), BuildingBlock: OJICUG_clean_linker_0, # of connection points: 2
#     Edge 34, Type (0, 1), BuildingBlock: OJICUG_clean_linker_0, # of connection points: 2
#     Edge 35, Type (0, 1), BuildingBlock: OJICUG_clean_linker_0, # of connection points: 2
# Relax obj value: 0.136
# Max RMSD: 0.135
# Mean RMSD: 0.066
data_MOF--net-pyr--node1-BETDAH_clean_sbu_0--node2-VETTIZ_charged_linker_0--edge1-OJICUG_clean_linker_0
_symmetry_space_group_name_H-M    P1
_symmetry_Int_Tables_number       1
_symmetry_cell_setting            triclinic
loop_
_symmetry_equiv_pos_as_xyz
'x, y, z'
_cell_length_a     36.057047
_cell_length_b     37.628116
_cell_length_c     34.325615
_cell_angle_alpha  90.124292
_cell_angle_beta   88.169279
_cell_angle_gamma 101.03539
loop_
_atom_site_label
_atom_site_type_symbol
_atom_site_fract_x
_atom_site_fract_y
_atom_site_fract_z
_atom_type_partial_charge
C0 C 0.34704 0.27161 0.38684 0.0
C1 C 0.31231 0.27754 0.40269 0.0
C2 C 0.29722 0.30655 0.38802 0.0
C3 C 0.3427 0.31285 0.3339 0.0
C4 C 0.36068 0.28803 0.35131 0.0
C5 C 0.38871 0.27512 0.3239 0.0
H6 H 0.42565 0.23128 0.14153 0.0
C7 C 0.3557 0.3166 0.29261 0.0
C8 C 0.38278 0.2947 0.28651 0.0
H9 H 0.47778 0.20405 0.24626 0.0
H10 H 0.45157 0.2495 0.28201 0.0
H11 H 0.44652 0.31905 0.1588 0.0
H12 H 0.3449 0.23879 0.1772 0.0
H13 H 0.33413 0.2771 0.15368 0.0
H14 H 0.3659 0.25212 0.12998 0.0
H15 H 0.41475 0.30517 0.12008 0.0
H16 H 0.4083 0.34117 0.1531 0.0
C17 C 0.42896 0.28802 0.33937 0.0
C18 C 0.37682 0.23332 0.32031 0.0
C19 C 0.28173 0.37837 0.19953 0.0
C20 C 0.28027 0.37949 0.15871 0.0
C21 C 0.30599 0.36354 0.13608 0.0
C22 C 0.33212 0.34605 0.15399 0.0
C23 C 0.33201 0.34389 0.19492 0.0
C24 C 0.3075 0.36047 0.21689 0.0
C25 C 0.30969 0.35403 0.25983 0.0
C26 C 0.34088 0.33209 0.26027 0.0
C27 C 0.35339 0.32568 0.22217 0.0
C28 C 0.32181 0.39108 0.27996 0.0
C29 C 0.27077 0.33205 0.2748 0.0
C30 C 0.43121 0.23508 0.17224 0.0
C31 C 0.45244 0.2132 0.19159 0.0
C32 C 0.4609 0.22011 0.23097 0.0
C33 C 0.44546 0.24617 0.25172 0.0
C34 C 0.42069 0.26472 0.23311 0.0
C35 C 0.416 0.26101 0.19349 0.0
C36 C 0.3916 0.2859 0.17829 0.0
C37 C 0.38012 0.30284 0.21598 0.0
C38 C 0.3962 0.28914 0.24806 0.0
C39 C 0.41628 0.31424 0.1509 0.0
C40 C 0.35731 0.2625 0.15853 0.0
H41 H 0.299 0.34522 0.34295 0.0
H42 H 0.36014 0.25056 0.39865 0.0
H43 H 0.34591 0.22553 0.31578 0.0
H44 H 0.39049 0.22158 0.29579 0.0
H45 H 0.38328 0.21953 0.34713 0.0
H46 H 0.43021 0.31155 0.3593 0.0
H47 H 0.43847 0.26616 0.35579 0.0
H48 H 0.44993 0.29772 0.31557 0.0
H49 H 0.26176 0.38949 0.21784 0.0
H50 H 0.30554 0.36421 0.10455 0.0
H51 H 0.35063 0.33394 0.13534 0.0
H52 H 0.34515 0.40845 0.26289 0.0
H53 H 0.29784 0.40571 0.2824 0.0
H54 H 0.33283 0.38854 0.3093 0.0
H55 H 0.25209 0.32116 0.25064 0.0
H56 H 0.27367 0.30772 0.29168 0.0
H57 H 0.25502 0.34898 0.29301 0.0
H58 H 0.27102 0.3126 0.40003 0.0
C59 C 0.31287 0.3248 0.35406 0.0
C60 C 0.13467 0.88043 0.61032 0.0
C61 C 0.12006 0.89929 0.64097 0.0
C62 C 0.13244 0.89612 0.67901 0.0
C63 C 0.18175 0.86692 0.65346 0.0
C64 C 0.16554 0.8638 0.61745 0.0
C65 C 0.18737 0.84431 0.58879 0.0
H66 H 0.35774 0.80293 0.54171 0.0
C67 C 0.21922 0.85756 0.64935 0.0
C68 C 0.2225 0.84281 0.61207 0.0
H69 H 0.25069 0.74937 0.49773 0.0
H70 H 0.21835 0.78794 0.53881 0.0
H71 H 0.33918 0.88868 0.56289 0.0
H72 H 0.33185 0.78448 0.61719 0.0
H73 H 0.34089 0.81589 0.65492 0.0
H74 H 0.37531 0.81701 0.6153 0.0
H75 H 0.37932 0.86918 0.57412 0.0
H76 H 0.35819 0.89521 0.6096 0.0
C77 C 0.19749 0.86687 0.55112 0.0
C78 C 0.16356 0.80618 0.5809 0.0
C79 C 0.31731 0.91306 0.74548 0.0
C80 C 0.35642 0.91529 0.74659 0.0
C81 C 0.37544 0.89952 0.71689 0.0
C82 C 0.35539 0.88214 0.68569 0.0
C83 C 0.31599 0.88011 0.68485 0.0
C84 C 0.29766 0.89527 0.71458 0.0
C85 C 0.25589 0.89063 0.70928 0.0
C86 C 0.25183 0.86916 0.67156 0.0
C87 C 0.28718 0.86392 0.65717 0.0
C88 C 0.24698 0.92909 0.70469 0.0
C89 C 0.23474 0.86883 0.74437 0.0
C90 C 0.32761 0.80111 0.53857 0.0
C91 C 0.30692 0.77413 0.51538 0.0
C92 C 0.26728 0.77075 0.51451 0.0
C93 C 0.24859 0.79277 0.53836 0.0
C94 C 0.26971 0.81746 0.56374 0.0
C95 C 0.30853 0.82076 0.56398 0.0
C96 C 0.32536 0.83971 0.59961 0.0
C97 C 0.29026 0.84711 0.62071 0.0
C98 C 0.25799 0.83558 0.59883 0.0
C99 C 0.35216 0.87502 0.58615 0.0
C100 C 0.34464 0.81325 0.623 0.0
H101 H 0.17287 0.87956 0.71459 0.0
H102 H 0.12459 0.88146 0.58106 0.0
H103 H 0.13414 0.803 0.59308 0.0
H104 H 0.17608 0.78448 0.59421 0.0
H105 H 0.16078 0.80078 0.54921 0.0
H106 H 0.21301 0.89455 0.55791 0.0
H107 H 0.17159 0.86928 0.53546 0.0
H108 H 0.21556 0.85404 0.53093 0.0
H109 H 0.3022 0.92451 0.76865 0.0
H110 H 0.40569 0.90092 0.71776 0.0
H111 H 0.37137 0.871 0.66354 0.0
H112 H 0.26472 0.94401 0.68061 0.0
H113 H 0.25302 0.94493 0.73188 0.0
H114 H 0.21746 0.92937 0.69809 0.0
H115 H 0.25367 0.85498 0.76131 0.0
H116 H 0.21191 0.84672 0.73485 0.0
H117 H 0.22251 0.8867 0.76488 0.0
H118 H 0.12052 0.90927 0.70318 0.0
C119 C 0.16308 0.87951 0.68547 0.0
C120 C 0.62844 0.26227 0.93309 0.0
C121 C 0.59369 0.24124 0.92192 0.0
C122 C 0.5745 0.25527 0.89181 0.0
C123 C 0.62355 0.31006 0.88595 0.0
C124 C 0.64244 0.29628 0.91521 0.0
C125 C 0.67803 0.32214 0.92545 0.0
H126 H 0.79418 0.48628 0.91169 0.0
C127 C 0.6455 0.347 0.87455 0.0
C128 C 0.67732 0.35398 0.89827 0.0
H129 H 0.8066 0.39252 0.9797 0.0
H130 H 0.75018 0.35885 0.95388 0.0
H131 H 0.70229 0.47727 0.91967 0.0
H132 H 0.77227 0.43676 0.83236 0.0
H133 H 0.73662 0.45388 0.80907 0.0
H134 H 0.77095 0.48408 0.83663 0.0
H135 H 0.7327 0.50669 0.88595 0.0
H136 H 0.68586 0.48452 0.8731 0.0
C137 C 0.67412 0.33268 0.96886 0.0
C138 C 0.71211 0.3036 0.91573 0.0
C139 C 0.6028 0.42287 0.76474 0.0
C140 C 0.61631 0.45854 0.75028 0.0
C141 C 0.64817 0.47916 0.76815 0.0
C142 C 0.66627 0.46503 0.79878 0.0
C143 C 0.65264 0.4296 0.81272 0.0
C144 C 0.62102 0.4092 0.7961 0.0
C145 C 0.60927 0.37282 0.81661 0.0
C146 C 0.63994 0.37403 0.84676 0.0
C147 C 0.6655 0.40763 0.84429 0.0
C148 C 0.56989 0.37151 0.8363 0.0
C149 C 0.61027 0.3425 0.78647 0.0
C150 C 0.78505 0.45849 0.9211 0.0
C151 C 0.80528 0.44318 0.94956 0.0
C152 C 0.79161 0.40644 0.95976 0.0
C153 C 0.75864 0.38631 0.94409 0.0
C154 C 0.73846 0.40218 0.91684 0.0
C155 C 0.75216 0.43743 0.90495 0.0
C156 C 0.72804 0.44855 0.87339 0.0
C157 C 0.69728 0.41457 0.86928 0.0
C158 C 0.70342 0.38767 0.8954 0.0
C159 C 0.7114 0.48115 0.88845 0.0
C160 C 0.75309 0.45655 0.8358 0.0
H161 H 0.57319 0.29779 0.85103 0.0
H162 H 0.64401 0.253 0.95622 0.0
H163 H 0.70572 0.28357 0.89181 0.0
H164 H 0.73732 0.32297 0.90475 0.0
H165 H 0.71976 0.28897 0.94144 0.0
H166 H 0.64497 0.33696 0.97596 0.0
H167 H 0.67984 0.311 0.98842 0.0
H168 H 0.69277 0.35837 0.97643 0.0
H169 H 0.57809 0.40624 0.75247 0.0
H170 H 0.65961 0.5064 0.75799 0.0
H171 H 0.69032 0.48245 0.81062 0.0
H172 H 0.56795 0.3981 0.84961 0.0
H173 H 0.54723 0.36507 0.81476 0.0
H174 H 0.56388 0.35176 0.86045 0.0
H175 H 0.6371 0.34819 0.76871 0.0
H176 H 0.60904 0.31581 0.80021 0.0
H177 H 0.58644 0.34045 0.76633 0.0
H178 H 0.54796 0.2399 0.88196 0.0
C179 C 0.58921 0.2891 0.87377 0.0
C180 C 0.93323 0.82939 0.40261 0.0
C181 C 0.91889 0.84783 0.43434 0.0
C182 C 0.88304 0.83222 0.45059 0.0
C183 C 0.87792 0.78029 0.40755 0.0
C184 C 0.91214 0.79559 0.38969 0.0
C185 C 0.92209 0.77134 0.3568 0.0
H186 H 0.87308 0.61252 0.25335 0.0
C187 C 0.86319 0.74475 0.38912 0.0
C188 C 0.88865 0.73905 0.35879 0.0
H189 H 0.97315 0.69537 0.23454 0.0
H190 H 0.95246 0.73054 0.28729 0.0
H191 H 0.87743 0.61345 0.34815 0.0
H192 H 0.81342 0.66649 0.27006 0.0
H193 H 0.78364 0.64671 0.30907 0.0
H194 H 0.80461 0.61817 0.27626 0.0
H195 H 0.83936 0.58864 0.32079 0.0
H196 H 0.8308 0.60903 0.36694 0.0
C197 C 0.95968 0.75981 0.36603 0.0
C198 C 0.92368 0.79241 0.31809 0.0
C199 C 0.74194 0.66857 0.4475 0.0
C200 C 0.72003 0.63432 0.43922 0.0
C201 C 0.73193 0.61508 0.40714 0.0
C202 C 0.76491 0.62936 0.38451 0.0
C203 C 0.78666 0.6635 0.39365 0.0
C204 C 0.77466 0.68241 0.42466 0.0
C205 C 0.80035 0.71838 0.43032 0.0
C206 C 0.83034 0.718 0.39816 0.0
C207 C 0.82244 0.68585 0.37648 0.0
C208 C 0.81696 0.71819 0.47146 0.0
C209 C 0.77715 0.74851 0.4236 0.0
C210 C 0.89102 0.63803 0.26042 0.0
C211 C 0.92517 0.65056 0.23879 0.0
C212 C 0.94653 0.68467 0.24957 0.0
C213 C 0.93457 0.70517 0.28066 0.0
C214 C 0.90067 0.69189 0.30198 0.0
C215 C 0.87961 0.65868 0.29154 0.0
C216 C 0.8447 0.64796 0.31758 0.0
C217 C 0.84773 0.68014 0.34505 0.0
C218 C 0.88075 0.70631 0.33605 0.0
C219 C 0.84784 0.61279 0.33947 0.0
C220 C 0.80956 0.64434 0.2921 0.0
H221 H 0.83627 0.78912 0.45231 0.0
H222 H 0.96039 0.84052 0.38886 0.0
H223 H 0.89879 0.80576 0.3163 0.0
H224 H 0.92283 0.77473 0.29236 0.0
H225 H 0.9496 0.81378 0.31575 0.0
H226 H 0.95927 0.75073 0.39688 0.0
H227 H 0.98389 0.78277 0.36161 0.0
H228 H 0.96496 0.73683 0.3481 0.0
H229 H 0.73362 0.68477 0.47114 0.0
H230 H 0.71606 0.58861 0.39985 0.0
H231 H 0.77231 0.61317 0.36074 0.0
H232 H 0.82289 0.69102 0.47854 0.0
H233 H 0.79687 0.7249 0.49426 0.0
H234 H 0.84439 0.73682 0.47408 0.0
H235 H 0.75335 0.73926 0.40385 0.0
H236 H 0.79404 0.77268 0.40882 0.0
H237 H 0.76483 0.75684 0.45144 0.0
H238 H 0.87022 0.84577 0.4738 0.0
C239 C 0.8629 0.79903 0.43772 0.0
C240 C 0.7267 0.72357 0.9358 0.0
C241 C 0.74822 0.69895 0.92051 0.0
C242 C 0.74295 0.68704 0.88174 0.0
C243 C 0.70232 0.73009 0.87186 0.0
C244 C 0.70342 0.73837 0.911 0.0
C245 C 0.67942 0.76588 0.92137 0.0
H246 H 0.58839 0.8961 0.86116 0.0
C247 C 0.68122 0.75436 0.8524 0.0
C248 C 0.66605 0.7743 0.88136 0.0
H249 H 0.60529 0.86469 0.97913 0.0
H250 H 0.63222 0.81424 0.95536 0.0
H251 H 0.56503 0.81096 0.82299 0.0
H252 H 0.65876 0.8972 0.83135 0.0
H253 H 0.67661 0.86993 0.79676 0.0
H254 H 0.63571 0.88902 0.78621 0.0
H255 H 0.57284 0.85434 0.79909 0.0
H256 H 0.58948 0.81643 0.77721 0.0
C257 C 0.64621 0.74759 0.94869 0.0
C258 C 0.70524 0.79916 0.9393 0.0
C259 C 0.71958 0.79128 0.71386 0.0
C260 C 0.71585 0.82306 0.69402 0.0
C261 C 0.68439 0.83902 0.70377 0.0
C262 C 0.66123 0.82721 0.7365 0.0
C263 C 0.6706 0.80043 0.76057 0.0
C264 C 0.69775 0.78127 0.74802 0.0
C265 C 0.70547 0.75513 0.77856 0.0
C266 C 0.68077 0.76437 0.81258 0.0
C267 C 0.66085 0.79127 0.80185 0.0
C268 C 0.69217 0.7159 0.76384 0.0
C269 C 0.7482 0.76436 0.78735 0.0
C270 C 0.59716 0.87775 0.88172 0.0
C271 C 0.59475 0.88396 0.92188 0.0
C272 C 0.60708 0.8602 0.94799 0.0
C273 C 0.62276 0.83109 0.93414 0.0
C274 C 0.62713 0.82639 0.89375 0.0
C275 C 0.61391 0.84917 0.86828 0.0
C276 C 0.62323 0.84172 0.82645 0.0
C277 C 0.64314 0.80983 0.83096 0.0
C278 C 0.64563 0.80127 0.87048 0.0
C279 C 0.58575 0.83043 0.805 0.0
C280 C 0.64976 0.87604 0.80908 0.0
H281 H 0.71748 0.69329 0.82781 0.0
H282 H 0.72921 0.7322 0.96588 0.0
H283 H 0.73215 0.80655 0.92184 0.0
H284 H 0.69272 0.82366 0.93982 0.0
H285 H 0.71242 0.79331 0.96955 0.0
H286 H 0.63929 0.71781 0.94407 0.0
H287 H 0.65312 0.7522 0.97983 0.0
H288 H 0.61964 0.75705 0.94302 0.0
H289 H 0.74203 0.77708 0.70565 0.0
H290 H 0.67966 0.86293 0.68877 0.0
H291 H 0.63885 0.84135 0.74359 0.0
H292 H 0.67467 0.71489 0.7376 0.0
H293 H 0.71656 0.70294 0.75585 0.0
H294 H 0.67397 0.69878 0.78598 0.0
H295 H 0.75686 0.79362 0.79426 0.0
H296 H 0.75604 0.74923 0.81211 0.0
H297 H 0.7657 0.7582 0.76195 0.0
H298 H 0.75875 0.66774 0.8694 0.0
C299 C 0.71961 0.70221 0.85747 0.0
C300 C 0.895 0.21906 0.48896 0.0
C301 C 0.90913 0.19958 0.45854 0.0
C302 C 0.89537 0.20123 0.42084 0.0
C303 C 0.84565 0.22952 0.44706 0.0
C304 C 0.8632 0.23445 0.48231 0.0
C305 C 0.84157 0.25407 0.51103 0.0
H306 H 0.67127 0.29438 0.56098 0.0
C307 C 0.80771 0.23764 0.45221 0.0
C308 C 0.80524 0.25336 0.48909 0.0
H309 H 0.77925 0.3481 0.60278 0.0
H310 H 0.81072 0.3084 0.56235 0.0
H311 H 0.68991 0.20791 0.54316 0.0
H312 H 0.69514 0.30959 0.484 0.0
H313 H 0.68453 0.27635 0.44826 0.0
H314 H 0.65173 0.27719 0.48896 0.0
H315 H 0.64917 0.22642 0.53176 0.0
H316 H 0.66985 0.19922 0.49715 0.0
C317 C 0.83382 0.23275 0.54975 0.0
C318 C 0.86422 0.29314 0.51654 0.0
C319 C 0.70761 0.1772 0.36073 0.0
C320 C 0.66839 0.17446 0.36038 0.0
C321 C 0.64975 0.19063 0.39008 0.0
C322 C 0.67034 0.20903 0.42044 0.0
C323 C 0.70989 0.21174 0.42033 0.0
C324 C 0.72778 0.19606 0.39067 0.0
C325 C 0.76982 0.20195 0.39453 0.0
C326 C 0.7745 0.22454 0.43144 0.0
C327 C 0.73931 0.22943 0.44665 0.0
C328 C 0.78009 0.16414 0.3999 0.0
C329 C 0.78926 0.22314 0.35826 0.0
C330 C 0.70146 0.29619 0.56359 0.0
C331 C 0.72267 0.32352 0.58599 0.0
C332 C 0.7623 0.32662 0.58641 0.0
C333 C 0.78048 0.30408 0.56278 0.0
C334 C 0.75885 0.27916 0.53796 0.0
C335 C 0.72 0.27583 0.53847 0.0
C336 C 0.70233 0.25533 0.50407 0.0
C337 C 0.737 0.24741 0.48256 0.0
C338 C 0.76984 0.26007 0.50324 0.0
C339 C 0.67619 0.2204 0.51955 0.0
C340 C 0.68209 0.28058 0.48005 0.0
H341 H 0.85281 0.21509 0.38617 0.0
H342 H 0.90611 0.21926 0.5179 0.0
H343 H 0.89194 0.29795 0.50033 0.0
H344 H 0.84862 0.31375 0.50582 0.0
H345 H 0.87067 0.2989 0.54762 0.0
H346 H 0.81928 0.2044 0.54444 0.0
H347 H 0.86061 0.2321 0.56458 0.0
H348 H 0.81569 0.2453 0.5701 0.0
H349 H 0.72246 0.16563 0.33744 0.0
H350 H 0.61944 0.18899 0.38971 0.0
H351 H 0.65471 0.22063 0.44255 0.0
H352 H 0.76347 0.14953 0.42485 0.0
H353 H 0.77366 0.14742 0.37336 0.0
H354 H 0.81001 0.16493 0.40566 0.0
H355 H 0.76926 0.23585 0.34154 0.0
H356 H 0.81186 0.24605 0.36645 0.0
H357 H 0.80145 0.2051 0.33791 0.0
H358 H 0.90691 0.18767 0.39675 0.0
C359 C 0.86373 0.21651 0.41489 0.0
C360 C 0.43159 0.67772 0.33676 0.0
C361 C 0.41752 0.64222 0.35141 0.0
C362 C 0.38554 0.62186 0.33351 0.0
C363 C 0.38201 0.67136 0.28852 0.0
C364 C 0.41377 0.69148 0.30517 0.0
C365 C 0.4261 0.72768 0.28439 0.0
H366 H 0.39396 0.84747 0.14347 0.0
C367 C 0.36966 0.69335 0.25669 0.0
C368 C 0.39563 0.72667 0.25405 0.0
H369 H 0.48953 0.85956 0.21831 0.0
H370 H 0.46329 0.80206 0.24952 0.0
H371 H 0.33148 0.81771 0.20796 0.0
H372 H 0.39149 0.76271 0.12452 0.0
H373 H 0.34333 0.7424 0.12385 0.0
H374 H 0.35759 0.78958 0.11156 0.0
H375 H 0.31791 0.81265 0.15815 0.0
H376 H 0.29943 0.77874 0.19464 0.0
C377 C 0.42541 0.75828 0.31425 0.0
C378 C 0.46548 0.72834 0.26494 0.0
C379 C 0.24996 0.64314 0.18008 0.0
C380 C 0.22985 0.65839 0.15147 0.0
C381 C 0.24398 0.69496 0.1408 0.0
C382 C 0.27718 0.71494 0.15625 0.0
C383 C 0.29714 0.69911 0.18373 0.0
C384 C 0.28303 0.66404 0.196 0.0
C385 C 0.30688 0.65289 0.22776 0.0
C386 C 0.33796 0.68662 0.23161 0.0
C387 C 0.33227 0.71347 0.20517 0.0
C388 C 0.28173 0.64547 0.26534 0.0
C389 C 0.32312 0.61993 0.21308 0.0
C390 C 0.40922 0.83804 0.16677 0.0
C391 C 0.44417 0.85869 0.17802 0.0
C392 C 0.46289 0.84448 0.20837 0.0
C393 C 0.44758 0.81088 0.22658 0.0
C394 C 0.41308 0.79028 0.21433 0.0
C395 C 0.39461 0.8042 0.18482 0.0
C396 C 0.35873 0.77868 0.17462 0.0
C397 C 0.35882 0.7469 0.2021 0.0
C398 C 0.39057 0.75364 0.22594 0.0
C399 C 0.325 0.79778 0.18395 0.0
C400 C 0.36258 0.76777 0.13134 0.0
H401 H 0.34365 0.61887 0.29082 0.0
H402 H 0.45641 0.69412 0.34906 0.0
H403 H 0.46712 0.70153 0.25201 0.0
H404 H 0.47181 0.74779 0.24054 0.0
H405 H 0.48808 0.73477 0.28653 0.0
H406 H 0.39851 0.75302 0.33191 0.0
H407 H 0.44913 0.76017 0.33451 0.0
H408 H 0.42705 0.78492 0.30028 0.0
H409 H 0.24058 0.61548 0.18984 0.0
H410 H 0.22918 0.70888 0.12069 0.0
H411 H 0.28597 0.74229 0.14616 0.0
H412 H 0.26262 0.66536 0.26835 0.0
H413 H 0.26379 0.61797 0.2649 0.0
H414 H 0.29813 0.6485 0.29213 0.0
H415 H 0.3321 0.62336 0.18179 0.0
H416 H 0.34868 0.61653 0.22837 0.0
H417 H 0.30163 0.59455 0.21598 0.0
H418 H 0.3737 0.59475 0.34382 0.0
C419 C 0.36784 0.63609 0.30267 0.0
C420 C 0.09736 0.2712 0.7014 0.0
C421 C 0.11135 0.25266 0.66954 0.0
C422 C 0.14719 0.26807 0.65311 0.0
C423 C 0.15291 0.32004 0.69616 0.0
C424 C 0.11874 0.30491 0.71423 0.0
C425 C 0.10923 0.32917 0.74731 0.0
H426 H 0.15866 0.48882 0.84939 0.0
C427 C 0.16795 0.35555 0.71452 0.0
C428 C 0.14275 0.36138 0.74505 0.0
H429 H 0.05974 0.40525 0.87055 0.0
H430 H 0.07993 0.36983 0.81761 0.0
H431 H 0.154 0.48684 0.75459 0.0
H432 H 0.21843 0.43481 0.83318 0.0
H433 H 0.24802 0.45388 0.79376 0.0
H434 H 0.22739 0.48303 0.82614 0.0
H435 H 0.19199 0.512 0.78179 0.0
H436 H 0.20066 0.49136 0.73582 0.0
C437 C 0.07159 0.34085 0.7386 0.0
C438 C 0.10798 0.30804 0.78594 0.0
C439 C 0.2892 0.43128 0.65542 0.0
C440 C 0.31125 0.46553 0.66353 0.0
C441 C 0.29944 0.48494 0.69552 0.0
C442 C 0.26648 0.47084 0.71825 0.0
C443 C 0.24464 0.43668 0.70933 0.0
C444 C 0.2565 0.41762 0.67837 0.0
C445 C 0.23064 0.38168 0.67291 0.0
C446 C 0.20081 0.38223 0.70521 0.0
C447 C 0.20889 0.41446 0.72673 0.0
C448 C 0.21385 0.38184 0.63185 0.0
C449 C 0.25373 0.35146 0.67955 0.0
C450 C 0.14095 0.46305 0.84277 0.0
C451 C 0.1072 0.45039 0.86498 0.0
C452 C 0.08602 0.41601 0.85491 0.0
C453 C 0.09769 0.39539 0.82376 0.0
C454 C 0.1312 0.40876 0.80183 0.0
C455 C 0.1522 0.44218 0.81176 0.0
C456 C 0.18694 0.45274 0.78547 0.0
C457 C 0.1838 0.42033 0.75828 0.0
C458 C 0.15088 0.39418 0.76767 0.0
C459 C 0.18362 0.4877 0.76329 0.0
C460 C 0.22223 0.45662 0.81075 0.0
H461 H 0.19422 0.31093 0.65117 0.0
H462 H 0.07025 0.26022 0.71533 0.0
H463 H 0.13267 0.29436 0.78726 0.0
H464 H 0.10948 0.32573 0.81171 0.0
H465 H 0.08187 0.28692 0.78865 0.0
H466 H 0.07183 0.35025 0.70788 0.0
H467 H 0.04739 0.31787 0.74292 0.0
H468 H 0.06644 0.36362 0.75693 0.0
H469 H 0.29741 0.41496 0.63184 0.0
H470 H 0.31537 0.51143 0.70267 0.0
H471 H 0.25916 0.48717 0.74192 0.0
H472 H 0.20801 0.40904 0.62474 0.0
H473 H 0.23378 0.37498 0.60898 0.0
H474 H 0.18634 0.3633 0.6294 0.0
H475 H 0.27754 0.36062 0.69932 0.0
H476 H 0.23678 0.3273 0.69429 0.0
H477 H 0.26602 0.34314 0.6517 0.0
H478 H 0.1598 0.25442 0.62983 0.0
C479 C 0.16761 0.30118 0.66589 0.0
Ho480 Ho 0.04753 0.05807 0.52579 0.0
Ho481 Ho 0.98104 1.04254 0.57818 0.0
C482 C 0.04476 0.11485 0.59509 0.0
C483 C 0.09983 0.07529 0.4725 0.0
C484 C 0.1324 0.10556 0.4682 0.0
C485 C 0.12756 0.14155 0.46405 0.0
C486 C 0.15898 0.16971 0.46052 0.0
C487 C 0.1958 0.16247 0.46134 0.0
C488 C 0.20043 0.12655 0.46671 0.0
C489 C 0.1691 0.09842 0.46977 0.0
C490 C 0.05596 1.01748 0.58855 0.0
C491 C 0.98414 0.98584 0.50903 0.0
C492 C 0.9286 1.02435 0.63108 0.0
C493 C 0.89894 0.99177 0.63568 0.0
C494 C 0.90659 0.95719 0.62756 0.0
C495 C 0.87754 0.92674 0.62979 0.0
C496 C 0.84034 0.93046 0.63949 0.0
C497 C 0.83271 0.96514 0.64693 0.0
C498 C 0.86181 0.99552 0.64515 0.0
C499 C 0.97286 0.08292 0.5151 0.0
O500 O 0.05858 0.11018 0.55967 0.0
O501 O 0.01728 0.08977 0.61068 0.0
O502 O 0.10183 0.05271 0.50082 0.0
O503 O 0.066 0.0828 0.46984 0.0
O504 O 0.08094 1.04486 0.57608 0.0
O505 O 0.02755 1.01382 0.5677 0.0
O506 O 0.97125 0.99003 0.54493 0.0
O507 O 1.01066 1.01153 0.49299 0.0
O508 O 0.925 1.0445 0.60107 0.0
O509 O 0.96353 1.02033 0.63541 0.0
O510 O 0.94776 0.0557 0.52769 0.0
O511 O 1.00101 0.08676 0.53628 0.0
H512 H 0.09958 0.14799 0.46313 0.0
H513 H 0.15439 0.19697 0.45584 0.0
H514 H 0.22836 0.12006 0.46802 0.0
H515 H 0.17357 0.07096 0.47337 0.0
H516 H 0.93492 0.95369 0.61932 0.0
H517 H 0.88411 0.90028 0.62395 0.0
H518 H 0.80437 0.96866 0.65511 0.0
H519 H 0.8553 1.02201 0.65098 0.0
Ho520 Ho 0.55705 0.05609 0.06344 0.0
Ho521 Ho 0.48395 1.04336 1.03691 0.0
C522 C 0.49485 0.09305 0.10872 0.0
C523 C 0.62047 0.08307 0.09384 0.0
C524 C 0.62688 0.09284 0.13467 0.0
C525 C 0.64812 0.12681 0.14386 0.0
C526 C 0.64923 0.13876 0.18235 0.0
C527 C 0.62922 0.11675 0.21208 0.0
C528 C 0.60861 0.08245 0.20297 0.0
C529 C 0.60715 0.07068 0.16449 0.0
C530 C 0.51529 0.99304 0.09444 0.0
C531 C 0.54725 1.0075 0.99135 0.0
C532 C 0.41988 1.0155 1.00812 0.0
C533 C 0.41161 1.00357 0.96824 0.0
C534 C 0.38883 0.96967 0.96184 0.0
C535 C 0.38468 0.95605 0.9241 0.0
C536 C 0.40312 0.97635 0.89239 0.0
C537 C 0.4255 1.01049 0.89877 0.0
C538 C 0.43002 1.02389 0.93648 0.0
C539 C 0.52519 0.10658 1.00618 0.0
O540 O 0.53077 0.09577 0.09882 0.0
O541 O 0.4694 0.06815 0.09277 0.0
O542 O 0.61006 0.04859 0.0867 0.0
O543 O 0.60016 0.10272 0.0759 0.0
O544 O 0.54992 0.99758 0.08159 0.0
O545 O 0.50394 1.02282 0.09115 0.0
O546 O 0.51118 1.00405 1.00131 0.0
O547 O 0.5721 1.03302 1.00708 0.0
O548 O 0.4311 0.05024 1.0129 0.0
O549 O 0.44039 0.99648 1.02667 0.0
O550 O 0.49048 0.10171 1.01884 0.0
O551 O 0.53688 0.07692 1.0093 0.0
H552 H 0.6629 0.14447 0.12113 0.0
H553 H 0.6658 0.16513 0.18893 0.0
H554 H 0.59297 0.06512 0.22548 0.0
H555 H 0.58971 1.0447 0.15798 0.0
H556 H 0.37496 0.95344 0.98609 0.0
H557 H 0.36686 0.92982 0.91964 0.0
H558 H 0.43999 1.02648 0.87466 0.0
H559 H 0.44852 0.04979 0.94082 0.0
Ho560 Ho 0.51647 0.51717 0.52944 0.0
Ho561 Ho 0.5149 0.58272 0.57324 0.0
C562 C 0.5499 0.52457 0.61897 0.0
C563 C 0.54277 0.46306 0.5025 0.0
C564 C 0.57176 0.44646 0.52094 0.0
C565 C 0.6038 0.46846 0.5367 0.0
C566 C 0.62932 0.4532 0.55779 0.0
C567 C 0.62335 0.41563 0.5637 0.0
C568 C 0.59119 0.39366 0.54807 0.0
C569 C 0.56561 0.40897 0.52695 0.0
C570 C 0.44877 0.51577 0.56702 0.0
C571 C 0.48197 0.57552 0.48351 0.0
C572 C 0.48833 0.63674 0.60001 0.0
C573 C 0.45925 0.6531 0.58139 0.0
C574 C 0.42744 0.63087 0.56547 0.0
C575 C 0.40185 0.64587 0.5442 0.0
C576 C 0.40748 0.68343 0.53828 0.0
C577 C 0.43941 0.70563 0.55407 0.0
C578 C 0.46509 0.69058 0.57535 0.0
C579 C 0.58259 0.58397 0.53566 0.0
O580 O 0.54807 0.50831 0.58456 0.0
O581 O 0.5366 0.55479 0.6236 0.0
O582 O 0.5104 0.45913 0.52177 0.0
O583 O 0.55421 0.49604 0.48931 0.0
O584 O 0.45278 0.50314 0.53214 0.0
O585 O 0.48113 0.5277 0.58042 0.0
O586 O 0.48366 0.59174 0.51793 0.0
O587 O 0.49514 0.54522 0.47897 0.0
O588 O 0.52077 0.64077 0.58085 0.0
O589 O 0.47703 0.60377 0.61331 0.0
O590 O 0.57861 0.59665 0.57053 0.0
O591 O 0.5502 0.57223 0.52226 0.0
H592 H 0.60891 0.49763 0.53334 0.0
H593 H 0.65368 0.47082 0.56956 0.0
H594 H 0.5862 0.3645 0.55139 0.0
H595 H 0.54086 0.39157 0.5156 0.0
H596 H 0.42256 0.6017 0.56884 0.0
H597 H 0.37769 0.62806 0.5323 0.0
H598 H 0.44415 0.73478 0.55075 0.0
H599 H 0.48966 0.70815 0.58681 0.0
Ho600 Ho 0.01815 0.51319 0.07473 0.0
Ho601 Ho 1.01547 0.5884 1.02937 0.0
C602 C 0.08826 0.5839 0.08168 0.0
C603 C 0.03704 0.45244 0.09176 0.0
C604 C 0.07365 0.44119 0.0975 0.0
C605 C 0.09701 0.43452 0.06571 0.0
C606 C 0.13249 0.42595 0.07196 0.0
C607 C 0.14527 0.42422 0.11001 0.0
C608 C 0.12152 0.42999 0.14166 0.0
C609 C 0.08606 0.43814 0.13549 0.0
C610 C 0.98294 0.55829 0.12015 0.0
C611 C 0.94593 0.51759 1.021 0.0
C612 C 0.99389 0.64815 1.01389 0.0
C613 C 0.95718 0.65573 1.00209 0.0
C614 C 0.93982 0.67988 1.02398 0.0
C615 C 0.9039 0.68556 1.01475 0.0
C616 C 0.88472 0.66733 0.98323 0.0
C617 C 0.90236 0.64323 0.9613 0.0
C618 C 0.93805 0.63731 0.97076 0.0
C619 C 0.05018 0.54319 0.98356 0.0
O620 O 0.07521 0.54863 0.08769 0.0
O621 O 0.06985 0.60482 0.06144 0.0
O622 O 0.02731 0.47454 0.11796 0.0
O623 O 0.02961 0.46119 0.05634 0.0
O624 O 0.98575 0.52555 0.12976 0.0
O625 O 0.99755 0.56327 0.08598 0.0
O626 O 0.95971 0.55245 1.01357 0.0
O627 O 0.96336 0.49717 1.04307 0.0
O628 O 1.01229 0.63137 0.98859 0.0
O629 O 0.99429 0.6355 1.04925 0.0
O630 O 0.04666 0.57574 0.97377 0.0
O631 O 0.03618 0.53815 1.01802 0.0
H632 H 0.08818 0.43637 1.03604 0.0
H633 H 0.15022 0.42143 1.04708 0.0
H634 H 0.13033 0.42802 0.17134 0.0
H635 H 0.06852 0.44256 0.16058 0.0
H636 H 0.95384 0.69397 1.04861 0.0
H637 H 0.89103 0.70395 1.0326 0.0
H638 H 0.88886 0.62921 0.9364 0.0
H639 H 0.9505 0.61815 0.95361 0.0
C640 C 0.2868 0.2119 0.41401 0.0
C641 C 0.28735 0.24803 0.42516 0.0
H642 H 0.25755 0.15719 0.41601 0.0
C643 C 0.25964 0.25522 0.45225 0.0
H644 H 0.30681 0.20508 0.3924 0.0
C645 C 0.23074 0.22719 0.46579 0.0
C646 C 0.22911 0.19152 0.45251 0.0
H647 H 0.25934 0.28265 0.46167 0.0
H648 H 0.20904 0.23363 0.48564 0.0
C649 C 0.25817 0.18413 0.42747 0.0
C650 C 0.37456 0.9692 0.78804 0.0
C651 C 0.37628 0.93301 0.77999 0.0
H652 H 0.38217 1.01145 0.83045 0.0
C653 C 0.39097 0.91228 0.80731 0.0
H654 H 0.36295 0.98537 0.76722 0.0
C655 C 0.40135 0.92692 0.84361 0.0
C656 C 0.39753 0.9625 0.85255 0.0
H657 H 0.39202 0.88416 0.80156 0.0
H658 H 0.41103 0.9101 0.86519 0.0
C659 C 0.38542 0.98398 0.82405 0.0
C660 C 0.58754 0.45537 0.68264 0.0
C661 C 0.59786 0.47482 0.71708 0.0
H662 H 0.56541 0.45553 0.62512 0.0
C663 C 0.59193 0.51089 0.71878 0.0
H664 H 0.59189 0.42778 0.67971 0.0
C665 C 0.57628 0.52682 0.68749 0.0
C666 C 0.56656 0.50761 0.65281 0.0
H667 H 0.5992 0.52691 0.74465 0.0
H668 H 0.57218 0.55448 0.69039 0.0
C669 C 0.57254 0.47154 0.65103 0.0
C670 C 0.96175 0.64314 0.17409 0.0
C671 C 0.93885 0.62767 0.20644 0.0
H672 H 0.99402 0.63434 0.12209 0.0
C673 C 0.9298 0.5895 0.20809 0.0
H674 H 0.96954 0.67225 0.17107 0.0
C675 C 0.94309 0.56792 0.17927 0.0
C676 C 0.96613 0.58322 0.14728 0.0
H677 H 0.91324 0.57585 0.23242 0.0
H678 H 0.93578 0.53877 0.1826 0.0
C679 C 0.97527 0.62131 0.14515 0.0
C680 C 0.50011 0.17479 0.17393 0.0
C681 C 0.46331 0.18165 0.1717 0.0
H682 H 0.53893 0.14097 0.1559 0.0
C683 C 0.43625 0.15749 0.15122 0.0
H684 H 0.52141 0.19292 0.18972 0.0
C685 C 0.44601 0.12749 0.13247 0.0
C686 C 0.48316 0.12133 0.13343 0.0
H687 H 0.40747 0.16182 0.14973 0.0
H688 H 0.42476 0.10988 0.1161 0.0
C689 C 0.51003 0.14502 0.15471 0.0
C690 C 0.0674 0.92187 0.60878 0.0
C691 C 0.09892 0.92812 0.63246 0.0
H692 H 0.02789 0.94565 0.57731 0.0
C693 C 0.11328 0.96354 0.64511 0.0
H694 H 0.05598 0.89482 0.59865 0.0
C695 C 0.09783 0.99252 0.63249 0.0
C696 C 0.06736 0.98654 0.60754 0.0
H697 H 0.13796 0.96914 0.66297 0.0
H698 H 0.11067 1.01976 0.64093 0.0
C699 C 0.05134 0.9509 0.59682 0.0
C700 C 0.85127 0.45397 1.00557 0.0
C701 C 0.84047 0.46425 0.96855 0.0
H702 H 0.89235 0.46172 1.05029 0.0
C703 C 0.86437 0.49405 0.95005 0.0
H704 H 0.83358 0.4325 1.02225 0.0
C705 C 0.89787 0.51197 0.9674 0.0
C706 C 0.90915 0.50028 1.00342 0.0
H707 H 0.85789 0.50316 0.92165 0.0
H708 H 0.91558 0.53436 0.95194 0.0
C709 C 0.88514 0.47114 1.02223 0.0
C710 C 0.68434 0.62531 0.50459 0.0
C711 C 0.68519 0.61915 0.46404 0.0
H712 H 0.65202 0.61889 0.5586 0.0
C713 C 0.65215 0.5993 0.44766 0.0
H714 H 0.70919 0.63973 0.5187 0.0
C715 C 0.61915 0.58709 0.47085 0.0
C716 C 0.61822 0.59425 0.51113 0.0
H717 H 0.65135 0.59407 0.41664 0.0
H718 H 0.5941 0.57268 0.45704 0.0
C719 C 0.65148 0.61307 0.52768 0.0
C720 C 0.23929 0.42604 0.15608 0.0
C721 C 0.24977 0.39463 0.14068 0.0
H722 H 0.19814 0.46015 0.15808 0.0
C723 C 0.22794 0.37551 0.11139 0.0
H724 H 0.25592 0.44173 0.17816 0.0
C725 C 0.19485 0.38621 0.09975 0.0
C726 C 0.18303 0.41607 0.11736 0.0
H727 H 0.23513 0.35105 0.09917 0.0
H728 H 0.17743 0.36993 0.07866 0.0
C729 C 0.20622 0.43657 0.14465 0.0
C730 C 0.53774 0.1973 0.95207 0.0
C731 C 0.57672 0.20584 0.94253 0.0
H732 H 0.49163 0.16037 0.97937 0.0
C733 C 0.59896 0.18059 0.95373 0.0
H734 H 0.51953 0.21591 0.9447 0.0
C735 C 0.58264 0.148 0.97353 0.0
C736 C 0.54368 0.13995 0.98339 0.0
H737 H 0.62904 0.18588 0.94692 0.0
H738 H 0.60062 0.12942 0.98167 0.0
C739 C 0.52167 0.16526 0.9723 0.0
C740 C 0.93749 0.88712 0.4931 0.0
C741 C 0.93996 0.88248 0.45235 0.0
H742 H 0.94853 0.92227 0.5421 0.0
C743 C 0.95968 0.91208 0.43009 0.0
H744 H 0.92365 0.86501 0.51173 0.0
C745 C 0.9748 0.94556 0.44804 0.0
C746 C 0.97033 0.95038 0.48866 0.0
H747 H 0.96229 0.90983 0.39871 0.0
H748 H 0.98905 0.96792 0.42998 0.0
C749 C 0.95196 0.9203 0.51075 0.0
C750 C 0.36296 0.75245 0.48713 0.0
C751 C 0.3261 0.74419 0.5036 0.0
H752 H 0.41824 0.73934 0.48542 0.0
C753 C 0.31398 0.71052 0.52208 0.0
H754 H 0.3729 0.77816 0.47252 0.0
C755 C 0.34002 0.68862 0.53008 0.0
C756 C 0.37842 0.69996 0.51931 0.0
H757 H 0.2858 0.70346 0.53521 0.0
H758 H 0.33079 0.66499 0.54839 0.0
C759 C 0.38906 0.73058 0.49519 0.0
C760 C 0.78573 0.84397 0.68336 0.0
C761 C 0.74872 0.84423 0.67132 0.0
H762 H 0.84355 0.87097 0.68245 0.0
C763 C 0.74368 0.86987 0.64312 0.0
H764 H 0.79119 0.8253 0.70542 0.0
C765 C 0.77401 0.8969 0.63077 0.0
C766 C 0.81009 0.89822 0.64562 0.0
H767 H 0.71593 0.87044 0.63229 0.0
H768 H 0.76895 0.91772 0.61097 0.0
C769 C 0.81603 0.8705 0.67045 0.0
C770 C 0.65068 0.12085 0.31844 0.0
C771 C 0.64839 0.15682 0.327 0.0
H772 H 0.64607 0.07981 0.27473 0.0
C773 C 0.63458 0.17795 0.29942 0.0
H774 H 0.66171 0.1044 0.33942 0.0
C775 C 0.62625 0.16419 0.2623 0.0
C776 C 0.63134 0.12909 0.25274 0.0
H777 H 0.63313 0.20593 0.30553 0.0
H778 H 0.61761 0.18149 0.24053 0.0
C779 C 0.64193 0.10694 0.28154 0.0
C780 C 0.44558 0.64516 0.41936 0.0
C781 C 0.43551 0.62579 0.38482 0.0
H782 H 0.46702 0.64475 0.47717 0.0
C783 C 0.44115 0.58963 0.38322 0.0
H784 H 0.44142 0.67281 0.4222 0.0
C785 C 0.45629 0.57352 0.41472 0.0
C786 C 0.46576 0.59264 0.44951 0.0
H787 H 0.43402 0.57367 0.35729 0.0
H788 H 0.4602 0.5458 0.41189 0.0
C789 C 0.46006 0.62881 0.45119 0.0
C790 C 0.07292 0.45823 0.93089 0.0
C791 C 0.09369 0.47347 0.89718 0.0
H792 H 0.04293 0.46735 0.98433 0.0
C793 C 0.10086 0.51156 0.89403 0.0
H794 H 0.06674 0.42917 0.93501 0.0
C795 C 0.08764 0.53332 0.92272 0.0
C796 C 0.06669 0.51826 0.95613 0.0
H797 H 0.11588 0.52489 0.86866 0.0
H798 H 0.09342 0.56237 0.91825 0.0
C799 C 0.05966 0.48024 0.95983 0.0
C800 C 0.5462 0.92302 0.93108 0.0
C801 C 0.58292 0.91704 0.93649 0.0
H802 H 0.50586 0.95683 0.94437 0.0
C803 C 0.60873 0.94277 0.95639 0.0
H804 H 0.52602 0.9035 0.91549 0.0
C805 C 0.59769 0.97354 0.97191 0.0
C806 C 0.56036 0.97876 0.96848 0.0
H807 H 0.63735 0.93879 0.96039 0.0
H808 H 0.61797 0.9923 0.98822 0.0
C809 C 0.53483 0.95352 0.94738 0.0
C810 C 0.91657 0.13547 0.45564 0.0
C811 C 0.93074 0.17119 0.4675 0.0
H812 H 0.91906 0.07939 0.46163 0.0
C813 C 0.96207 0.17802 0.49145 0.0
H814 H 0.89201 0.12936 0.43765 0.0
C815 C 0.97794 0.14929 0.50463 0.0
C816 C 0.96192 0.11341 0.49482 0.0
H817 H 0.97334 0.20529 0.50102 0.0
H818 H 1.00113 0.15498 0.52443 0.0
C819 C 0.93185 0.10683 0.46943 0.0
C820 C 0.18311 0.6476 0.09602 0.0
C821 C 0.19435 0.63736 0.13288 0.0
H822 H 0.14149 0.63973 0.05181 0.0
C823 C 0.17064 0.60756 0.1516 0.0
H824 H 0.20057 0.66906 0.07915 0.0
C825 C 0.13699 0.58953 0.1346 0.0
C826 C 0.12533 0.60113 0.09874 0.0
H827 H 0.17737 0.59848 0.17993 0.0
H828 H 0.11943 0.56717 0.15024 0.0
C829 C 0.14906 0.63033 0.07973 0.0
C830 C 0.34706 0.47417 0.59816 0.0
C831 C 0.34613 0.48054 0.63867 0.0
H832 H 0.37942 0.48044 0.54417 0.0
C833 C 0.37914 0.50054 0.655 0.0
H834 H 0.32225 0.45963 0.58409 0.0
C835 C 0.41214 0.51274 0.6318 0.0
C836 C 0.41313 0.50543 0.59155 0.0
H837 H 0.37991 0.50593 0.68598 0.0
H838 H 0.43714 0.5273 0.64557 0.0
C839 C 0.37992 0.4864 0.57505 0.0
C840 C 0.78636 0.65387 0.94233 0.0
C841 C 0.77959 0.68938 0.94257 0.0
H842 H 0.82426 0.61875 0.95615 0.0
C843 C 0.80588 0.71691 0.95968 0.0
H844 H 0.76638 0.63209 0.92961 0.0
C845 C 0.83937 0.70951 0.97415 0.0
C846 C 0.84716 0.67431 0.97216 0.0
H847 H 0.80167 0.74466 0.95974 0.0
H848 H 0.85995 0.73181 0.98503 0.0
C849 C 0.81967 0.64635 0.95722 0.0
C850 C 0.50087 0.90189 0.14806 0.0
C851 C 0.4618 0.89391 0.15737 0.0
H852 H 0.54765 0.93834 0.12114 0.0
C853 C 0.44017 0.91964 0.14609 0.0
H854 H 0.51864 0.88291 0.15552 0.0
C855 C 0.45714 0.95216 0.1265 0.0
C856 C 0.49617 0.95967 0.11691 0.0
H857 H 0.41006 0.91481 0.15272 0.0
H858 H 0.4396 0.97113 0.11834 0.0
C859 C 0.51758 0.93387 0.12802 0.0
C860 C 0.09234 0.21334 0.61086 0.0
C861 C 0.08994 0.21809 0.65161 0.0
H862 H 0.08093 0.17814 0.56194 0.0
C863 C 0.06984 0.18867 0.67391 0.0
H864 H 0.10639 0.23531 0.59218 0.0
C865 C 0.05434 0.15526 0.65601 0.0
C866 C 0.0588 0.1503 0.61541 0.0
H867 H 0.06724 0.19101 0.70527 0.0
H868 H 0.03984 0.13304 0.6741 0.0
C869 C 0.07753 0.18021 0.59328 0.0
C870 C 0.66723 0.34605 0.61451 0.0
C871 C 0.70395 0.35379 0.59765 0.0
H872 H 0.6123 0.35994 0.61679 0.0
C873 C 0.71635 0.38733 0.57898 0.0
H874 H 0.6571 0.32046 0.62931 0.0
C875 C 0.69062 0.40962 0.57125 0.0
C876 C 0.65228 0.39879 0.58246 0.0
H877 H 0.74444 0.394 0.56556 0.0
H878 H 0.69998 0.43315 0.55281 0.0
C879 C 0.64145 0.3683 0.60672 0.0
loop_
_geom_bond_atom_site_label_1
_geom_bond_atom_site_label_2
_geom_bond_distance
_geom_bond_site_symmetry_2
_ccdc_geom_bond_type
C0 C1 1.391 . S
C0 C4 1.391 . S
C0 H42 0.948 . S
C1 C0 1.391 . S
C1 C2 1.391 . S
C2 C1 1.391 . S
C2 H58 0.947 . S
C2 C59 1.392 . S
C3 C4 1.391 . S
C3 C7 1.397 . S
C3 C59 1.419 . S
C4 C0 1.391 . S
C4 C3 1.391 . S
C4 C5 1.399 . S
C5 C4 1.399 . S
C5 C8 1.396 . S
C5 C17 1.453 . S
C5 C18 1.684 . S
H6 C30 0.948 . S
C7 C3 1.397 . S
C7 C8 1.394 . S
C7 C26 1.723 . S
C8 C5 1.396 . S
C8 C7 1.394 . S
C8 C38 1.723 . S
H9 C32 0.947 . S
H10 C33 0.948 . S
H11 C39 0.982 . S
H12 C40 0.979 . S
H13 C40 0.980 . S
H14 C40 0.983 . S
H15 C39 0.979 . S
H16 C39 0.977 . S
C17 C5 1.453 . S
C17 H46 0.982 . S
C17 H47 0.979 . S
C17 H48 0.977 . S
C18 C5 1.684 . S
C18 H43 0.979 . S
C18 H44 0.980 . S
C18 H45 0.983 . S
C19 C20 1.391 . S
C19 C24 1.391 . S
C19 H49 0.948 . S
C20 C19 1.391 . S
C20 C21 1.391 . S
C21 C20 1.391 . S
C21 C22 1.392 . S
C21 H50 0.947 . S
C22 C21 1.392 . S
C22 C23 1.419 . S
C22 H51 0.948 . S
C23 C22 1.419 . S
C23 C24 1.391 . S
C23 C27 1.397 . S
C24 C19 1.391 . S
C24 C23 1.391 . S
C24 C25 1.399 . S
C25 C24 1.399 . S
C25 C26 1.396 . S
C25 C28 1.453 . S
C25 C29 1.684 . S
C26 C7 1.723 . S
C26 C25 1.396 . S
C26 C27 1.394 . S
C27 C23 1.397 . S
C27 C26 1.394 . S
C27 C37 1.723 . S
C28 C25 1.453 . S
C28 H52 0.982 . S
C28 H53 0.979 . S
C28 H54 0.977 . S
C29 C25 1.684 . S
C29 H55 0.979 . S
C29 H56 0.980 . S
C29 H57 0.983 . S
C30 H6 0.948 . S
C30 C31 1.391 . S
C30 C35 1.391 . S
C31 C30 1.391 . S
C31 C32 1.391 . S
C32 H9 0.947 . S
C32 C31 1.391 . S
C32 C33 1.392 . S
C33 H10 0.948 . S
C33 C32 1.392 . S
C33 C34 1.419 . S
C34 C33 1.419 . S
C34 C35 1.391 . S
C34 C38 1.397 . S
C35 C30 1.391 . S
C35 C34 1.391 . S
C35 C36 1.399 . S
C36 C35 1.399 . S
C36 C37 1.396 . S
C36 C39 1.453 . S
C36 C40 1.684 . S
C37 C27 1.723 . S
C37 C36 1.396 . S
C37 C38 1.394 . S
C38 C8 1.723 . S
C38 C34 1.397 . S
C38 C37 1.394 . S
C39 H11 0.982 . S
C39 H15 0.979 . S
C39 H16 0.977 . S
C39 C36 1.453 . S
C40 H12 0.979 . S
C40 H13 0.980 . S
C40 H14 0.983 . S
C40 C36 1.684 . S
H41 C59 0.948 . S
H42 C0 0.948 . S
H43 C18 0.979 . S
H44 C18 0.980 . S
H45 C18 0.983 . S
H46 C17 0.982 . S
H47 C17 0.979 . S
H48 C17 0.977 . S
H49 C19 0.948 . S
H50 C21 0.947 . S
H51 C22 0.948 . S
H52 C28 0.982 . S
H53 C28 0.979 . S
H54 C28 0.977 . S
H55 C29 0.979 . S
H56 C29 0.980 . S
H57 C29 0.983 . S
H58 C2 0.947 . S
C59 C2 1.392 . S
C59 C3 1.419 . S
C59 H41 0.948 . S
C60 C61 1.391 . S
C60 C64 1.391 . S
C60 H102 0.948 . S
C61 C60 1.391 . S
C61 C62 1.391 . S
C62 C61 1.391 . S
C62 H118 0.947 . S
C62 C119 1.392 . S
C63 C64 1.391 . S
C63 C67 1.397 . S
C63 C119 1.419 . S
C64 C60 1.391 . S
C64 C63 1.391 . S
C64 C65 1.399 . S
C65 C64 1.399 . S
C65 C68 1.396 . S
C65 C77 1.453 . S
C65 C78 1.684 . S
H66 C90 0.948 . S
C67 C63 1.397 . S
C67 C68 1.394 . S
C67 C86 1.723 . S
C68 C65 1.396 . S
C68 C67 1.394 . S
C68 C98 1.723 . S
H69 C92 0.947 . S
H70 C93 0.948 . S
H71 C99 0.982 . S
H72 C100 0.979 . S
H73 C100 0.980 . S
H74 C100 0.983 . S
H75 C99 0.979 . S
H76 C99 0.977 . S
C77 C65 1.453 . S
C77 H106 0.982 . S
C77 H107 0.979 . S
C77 H108 0.977 . S
C78 C65 1.684 . S
C78 H103 0.979 . S
C78 H104 0.980 . S
C78 H105 0.983 . S
C79 C80 1.391 . S
C79 C84 1.391 . S
C79 H109 0.948 . S
C80 C79 1.391 . S
C80 C81 1.391 . S
C81 C80 1.391 . S
C81 C82 1.392 . S
C81 H110 0.947 . S
C82 C81 1.392 . S
C82 C83 1.419 . S
C82 H111 0.948 . S
C83 C82 1.419 . S
C83 C84 1.391 . S
C83 C87 1.397 . S
C84 C79 1.391 . S
C84 C83 1.391 . S
C84 C85 1.399 . S
C85 C84 1.399 . S
C85 C86 1.396 . S
C85 C88 1.453 . S
C85 C89 1.684 . S
C86 C67 1.723 . S
C86 C85 1.396 . S
C86 C87 1.394 . S
C87 C83 1.397 . S
C87 C86 1.394 . S
C87 C97 1.723 . S
C88 C85 1.453 . S
C88 H112 0.982 . S
C88 H113 0.979 . S
C88 H114 0.977 . S
C89 C85 1.684 . S
C89 H115 0.979 . S
C89 H116 0.980 . S
C89 H117 0.983 . S
C90 H66 0.948 . S
C90 C91 1.391 . S
C90 C95 1.391 . S
C91 C90 1.391 . S
C91 C92 1.391 . S
C92 H69 0.947 . S
C92 C91 1.391 . S
C92 C93 1.392 . S
C93 H70 0.948 . S
C93 C92 1.392 . S
C93 C94 1.419 . S
C94 C93 1.419 . S
C94 C95 1.391 . S
C94 C98 1.397 . S
C95 C90 1.391 . S
C95 C94 1.391 . S
C95 C96 1.399 . S
C96 C95 1.399 . S
C96 C97 1.396 . S
C96 C99 1.453 . S
C96 C100 1.684 . S
C97 C87 1.723 . S
C97 C96 1.396 . S
C97 C98 1.394 . S
C98 C68 1.723 . S
C98 C94 1.397 . S
C98 C97 1.394 . S
C99 H71 0.982 . S
C99 H75 0.979 . S
C99 H76 0.977 . S
C99 C96 1.453 . S
C100 H72 0.979 . S
C100 H73 0.980 . S
C100 H74 0.983 . S
C100 C96 1.684 . S
H101 C119 0.948 . S
H102 C60 0.948 . S
H103 C78 0.979 . S
H104 C78 0.980 . S
H105 C78 0.983 . S
H106 C77 0.982 . S
H107 C77 0.979 . S
H108 C77 0.977 . S
H109 C79 0.948 . S
H110 C81 0.947 . S
H111 C82 0.948 . S
H112 C88 0.982 . S
H113 C88 0.979 . S
H114 C88 0.977 . S
H115 C89 0.979 . S
H116 C89 0.980 . S
H117 C89 0.983 . S
H118 C62 0.947 . S
C119 C62 1.392 . S
C119 C63 1.419 . S
C119 H101 0.948 . S
C120 C121 1.391 . S
C120 C124 1.391 . S
C120 H162 0.948 . S
C121 C120 1.391 . S
C121 C122 1.391 . S
C122 C121 1.391 . S
C122 H178 0.947 . S
C122 C179 1.392 . S
C123 C124 1.391 . S
C123 C127 1.397 . S
C123 C179 1.419 . S
C124 C120 1.391 . S
C124 C123 1.391 . S
C124 C125 1.399 . S
C125 C124 1.399 . S
C125 C128 1.396 . S
C125 C137 1.453 . S
C125 C138 1.684 . S
H126 C150 0.948 . S
C127 C123 1.397 . S
C127 C128 1.394 . S
C127 C146 1.723 . S
C128 C125 1.396 . S
C128 C127 1.394 . S
C128 C158 1.723 . S
H129 C152 0.947 . S
H130 C153 0.948 . S
H131 C159 0.982 . S
H132 C160 0.979 . S
H133 C160 0.980 . S
H134 C160 0.983 . S
H135 C159 0.979 . S
H136 C159 0.977 . S
C137 C125 1.453 . S
C137 H166 0.982 . S
C137 H167 0.979 . S
C137 H168 0.977 . S
C138 C125 1.684 . S
C138 H163 0.979 . S
C138 H164 0.980 . S
C138 H165 0.983 . S
C139 C140 1.391 . S
C139 C144 1.391 . S
C139 H169 0.948 . S
C140 C139 1.391 . S
C140 C141 1.391 . S
C141 C140 1.391 . S
C141 C142 1.392 . S
C141 H170 0.947 . S
C142 C141 1.392 . S
C142 C143 1.419 . S
C142 H171 0.948 . S
C143 C142 1.419 . S
C143 C144 1.391 . S
C143 C147 1.397 . S
C144 C139 1.391 . S
C144 C143 1.391 . S
C144 C145 1.399 . S
C145 C144 1.399 . S
C145 C146 1.396 . S
C145 C148 1.453 . S
C145 C149 1.684 . S
C146 C127 1.723 . S
C146 C145 1.396 . S
C146 C147 1.394 . S
C147 C143 1.397 . S
C147 C146 1.394 . S
C147 C157 1.723 . S
C148 C145 1.453 . S
C148 H172 0.982 . S
C148 H173 0.979 . S
C148 H174 0.977 . S
C149 C145 1.684 . S
C149 H175 0.979 . S
C149 H176 0.980 . S
C149 H177 0.983 . S
C150 H126 0.948 . S
C150 C151 1.391 . S
C150 C155 1.391 . S
C151 C150 1.391 . S
C151 C152 1.391 . S
C152 H129 0.947 . S
C152 C151 1.391 . S
C152 C153 1.392 . S
C153 H130 0.948 . S
C153 C152 1.392 . S
C153 C154 1.419 . S
C154 C153 1.419 . S
C154 C155 1.391 . S
C154 C158 1.397 . S
C155 C150 1.391 . S
C155 C154 1.391 . S
C155 C156 1.399 . S
C156 C155 1.399 . S
C156 C157 1.396 . S
C156 C159 1.453 . S
C156 C160 1.684 . S
C157 C147 1.723 . S
C157 C156 1.396 . S
C157 C158 1.394 . S
C158 C128 1.723 . S
C158 C154 1.397 . S
C158 C157 1.394 . S
C159 H131 0.982 . S
C159 H135 0.979 . S
C159 H136 0.977 . S
C159 C156 1.453 . S
C160 H132 0.979 . S
C160 H133 0.980 . S
C160 H134 0.983 . S
C160 C156 1.684 . S
H161 C179 0.948 . S
H162 C120 0.948 . S
H163 C138 0.979 . S
H164 C138 0.980 . S
H165 C138 0.983 . S
H166 C137 0.982 . S
H167 C137 0.979 . S
H168 C137 0.977 . S
H169 C139 0.948 . S
H170 C141 0.947 . S
H171 C142 0.948 . S
H172 C148 0.982 . S
H173 C148 0.979 . S
H174 C148 0.977 . S
H175 C149 0.979 . S
H176 C149 0.980 . S
H177 C149 0.983 . S
H178 C122 0.947 . S
C179 C122 1.392 . S
C179 C123 1.419 . S
C179 H161 0.948 . S
C180 C181 1.391 . S
C180 C184 1.391 . S
C180 H222 0.948 . S
C181 C180 1.391 . S
C181 C182 1.391 . S
C182 C181 1.391 . S
C182 H238 0.947 . S
C182 C239 1.392 . S
C183 C184 1.391 . S
C183 C187 1.397 . S
C183 C239 1.419 . S
C184 C180 1.391 . S
C184 C183 1.391 . S
C184 C185 1.399 . S
C185 C184 1.399 . S
C185 C188 1.396 . S
C185 C197 1.453 . S
C185 C198 1.684 . S
H186 C210 0.948 . S
C187 C183 1.397 . S
C187 C188 1.394 . S
C187 C206 1.723 . S
C188 C185 1.396 . S
C188 C187 1.394 . S
C188 C218 1.723 . S
H189 C212 0.947 . S
H190 C213 0.948 . S
H191 C219 0.982 . S
H192 C220 0.979 . S
H193 C220 0.980 . S
H194 C220 0.983 . S
H195 C219 0.979 . S
H196 C219 0.977 . S
C197 C185 1.453 . S
C197 H226 0.982 . S
C197 H227 0.979 . S
C197 H228 0.977 . S
C198 C185 1.684 . S
C198 H223 0.979 . S
C198 H224 0.980 . S
C198 H225 0.983 . S
C199 C200 1.391 . S
C199 C204 1.391 . S
C199 H229 0.948 . S
C200 C199 1.391 . S
C200 C201 1.391 . S
C201 C200 1.391 . S
C201 C202 1.392 . S
C201 H230 0.947 . S
C202 C201 1.392 . S
C202 C203 1.419 . S
C202 H231 0.948 . S
C203 C202 1.419 . S
C203 C204 1.391 . S
C203 C207 1.397 . S
C204 C199 1.391 . S
C204 C203 1.391 . S
C204 C205 1.399 . S
C205 C204 1.399 . S
C205 C206 1.396 . S
C205 C208 1.453 . S
C205 C209 1.684 . S
C206 C187 1.723 . S
C206 C205 1.396 . S
C206 C207 1.394 . S
C207 C203 1.397 . S
C207 C206 1.394 . S
C207 C217 1.723 . S
C208 C205 1.453 . S
C208 H232 0.982 . S
C208 H233 0.979 . S
C208 H234 0.977 . S
C209 C205 1.684 . S
C209 H235 0.979 . S
C209 H236 0.980 . S
C209 H237 0.983 . S
C210 H186 0.948 . S
C210 C211 1.391 . S
C210 C215 1.391 . S
C211 C210 1.391 . S
C211 C212 1.391 . S
C212 H189 0.947 . S
C212 C211 1.391 . S
C212 C213 1.392 . S
C213 H190 0.948 . S
C213 C212 1.392 . S
C213 C214 1.419 . S
C214 C213 1.419 . S
C214 C215 1.391 . S
C214 C218 1.397 . S
C215 C210 1.391 . S
C215 C214 1.391 . S
C215 C216 1.399 . S
C216 C215 1.399 . S
C216 C217 1.396 . S
C216 C219 1.453 . S
C216 C220 1.684 . S
C217 C207 1.723 . S
C217 C216 1.396 . S
C217 C218 1.394 . S
C218 C188 1.723 . S
C218 C214 1.397 . S
C218 C217 1.394 . S
C219 H191 0.982 . S
C219 H195 0.979 . S
C219 H196 0.977 . S
C219 C216 1.453 . S
C220 H192 0.979 . S
C220 H193 0.980 . S
C220 H194 0.983 . S
C220 C216 1.684 . S
H221 C239 0.948 . S
H222 C180 0.948 . S
H223 C198 0.979 . S
H224 C198 0.980 . S
H225 C198 0.983 . S
H226 C197 0.982 . S
H227 C197 0.979 . S
H228 C197 0.977 . S
H229 C199 0.948 . S
H230 C201 0.947 . S
H231 C202 0.948 . S
H232 C208 0.982 . S
H233 C208 0.979 . S
H234 C208 0.977 . S
H235 C209 0.979 . S
H236 C209 0.980 . S
H237 C209 0.983 . S
H238 C182 0.947 . S
C239 C182 1.392 . S
C239 C183 1.419 . S
C239 H221 0.948 . S
C240 C241 1.391 . S
C240 C244 1.391 . S
C240 H282 0.948 . S
C241 C240 1.391 . S
C241 C242 1.391 . S
C242 C241 1.391 . S
C242 H298 0.947 . S
C242 C299 1.392 . S
C243 C244 1.391 . S
C243 C247 1.397 . S
C243 C299 1.419 . S
C244 C240 1.391 . S
C244 C243 1.391 . S
C244 C245 1.399 . S
C245 C244 1.399 . S
C245 C248 1.396 . S
C245 C257 1.453 . S
C245 C258 1.684 . S
H246 C270 0.948 . S
C247 C243 1.397 . S
C247 C248 1.394 . S
C247 C266 1.723 . S
C248 C245 1.396 . S
C248 C247 1.394 . S
C248 C278 1.723 . S
H249 C272 0.947 . S
H250 C273 0.948 . S
H251 C279 0.982 . S
H252 C280 0.979 . S
H253 C280 0.980 . S
H254 C280 0.983 . S
H255 C279 0.979 . S
H256 C279 0.977 . S
C257 C245 1.453 . S
C257 H286 0.982 . S
C257 H287 0.979 . S
C257 H288 0.977 . S
C258 C245 1.684 . S
C258 H283 0.979 . S
C258 H284 0.980 . S
C258 H285 0.983 . S
C259 C260 1.391 . S
C259 C264 1.391 . S
C259 H289 0.948 . S
C260 C259 1.391 . S
C260 C261 1.391 . S
C261 C260 1.391 . S
C261 C262 1.392 . S
C261 H290 0.947 . S
C262 C261 1.392 . S
C262 C263 1.419 . S
C262 H291 0.948 . S
C263 C262 1.419 . S
C263 C264 1.391 . S
C263 C267 1.397 . S
C264 C259 1.391 . S
C264 C263 1.391 . S
C264 C265 1.399 . S
C265 C264 1.399 . S
C265 C266 1.396 . S
C265 C268 1.453 . S
C265 C269 1.684 . S
C266 C247 1.723 . S
C266 C265 1.396 . S
C266 C267 1.394 . S
C267 C263 1.397 . S
C267 C266 1.394 . S
C267 C277 1.723 . S
C268 C265 1.453 . S
C268 H292 0.982 . S
C268 H293 0.979 . S
C268 H294 0.977 . S
C269 C265 1.684 . S
C269 H295 0.979 . S
C269 H296 0.980 . S
C269 H297 0.983 . S
C270 H246 0.948 . S
C270 C271 1.391 . S
C270 C275 1.391 . S
C271 C270 1.391 . S
C271 C272 1.391 . S
C272 H249 0.947 . S
C272 C271 1.391 . S
C272 C273 1.392 . S
C273 H250 0.948 . S
C273 C272 1.392 . S
C273 C274 1.419 . S
C274 C273 1.419 . S
C274 C275 1.391 . S
C274 C278 1.397 . S
C275 C270 1.391 . S
C275 C274 1.391 . S
C275 C276 1.399 . S
C276 C275 1.399 . S
C276 C277 1.396 . S
C276 C279 1.453 . S
C276 C280 1.684 . S
C277 C267 1.723 . S
C277 C276 1.396 . S
C277 C278 1.394 . S
C278 C248 1.723 . S
C278 C274 1.397 . S
C278 C277 1.394 . S
C279 H251 0.982 . S
C279 H255 0.979 . S
C279 H256 0.977 . S
C279 C276 1.453 . S
C280 H252 0.979 . S
C280 H253 0.980 . S
C280 H254 0.983 . S
C280 C276 1.684 . S
H281 C299 0.948 . S
H282 C240 0.948 . S
H283 C258 0.979 . S
H284 C258 0.980 . S
H285 C258 0.983 . S
H286 C257 0.982 . S
H287 C257 0.979 . S
H288 C257 0.977 . S
H289 C259 0.948 . S
H290 C261 0.947 . S
H291 C262 0.948 . S
H292 C268 0.982 . S
H293 C268 0.979 . S
H294 C268 0.977 . S
H295 C269 0.979 . S
H296 C269 0.980 . S
H297 C269 0.983 . S
H298 C242 0.947 . S
C299 C242 1.392 . S
C299 C243 1.419 . S
C299 H281 0.948 . S
C300 C301 1.391 . S
C300 C304 1.391 . S
C300 H342 0.948 . S
C301 C300 1.391 . S
C301 C302 1.391 . S
C302 C301 1.391 . S
C302 H358 0.947 . S
C302 C359 1.392 . S
C303 C304 1.391 . S
C303 C307 1.397 . S
C303 C359 1.419 . S
C304 C300 1.391 . S
C304 C303 1.391 . S
C304 C305 1.399 . S
C305 C304 1.399 . S
C305 C308 1.396 . S
C305 C317 1.453 . S
C305 C318 1.684 . S
H306 C330 0.948 . S
C307 C303 1.397 . S
C307 C308 1.394 . S
C307 C326 1.723 . S
C308 C305 1.396 . S
C308 C307 1.394 . S
C308 C338 1.723 . S
H309 C332 0.947 . S
H310 C333 0.948 . S
H311 C339 0.982 . S
H312 C340 0.979 . S
H313 C340 0.980 . S
H314 C340 0.983 . S
H315 C339 0.979 . S
H316 C339 0.977 . S
C317 C305 1.453 . S
C317 H346 0.982 . S
C317 H347 0.979 . S
C317 H348 0.977 . S
C318 C305 1.684 . S
C318 H343 0.979 . S
C318 H344 0.980 . S
C318 H345 0.983 . S
C319 C320 1.391 . S
C319 C324 1.391 . S
C319 H349 0.948 . S
C320 C319 1.391 . S
C320 C321 1.391 . S
C321 C320 1.391 . S
C321 C322 1.392 . S
C321 H350 0.947 . S
C322 C321 1.392 . S
C322 C323 1.419 . S
C322 H351 0.948 . S
C323 C322 1.419 . S
C323 C324 1.391 . S
C323 C327 1.397 . S
C324 C319 1.391 . S
C324 C323 1.391 . S
C324 C325 1.399 . S
C325 C324 1.399 . S
C325 C326 1.396 . S
C325 C328 1.453 . S
C325 C329 1.684 . S
C326 C307 1.723 . S
C326 C325 1.396 . S
C326 C327 1.394 . S
C327 C323 1.397 . S
C327 C326 1.394 . S
C327 C337 1.723 . S
C328 C325 1.453 . S
C328 H352 0.982 . S
C328 H353 0.979 . S
C328 H354 0.977 . S
C329 C325 1.684 . S
C329 H355 0.979 . S
C329 H356 0.980 . S
C329 H357 0.983 . S
C330 H306 0.948 . S
C330 C331 1.391 . S
C330 C335 1.391 . S
C331 C330 1.391 . S
C331 C332 1.391 . S
C332 H309 0.947 . S
C332 C331 1.391 . S
C332 C333 1.392 . S
C333 H310 0.948 . S
C333 C332 1.392 . S
C333 C334 1.419 . S
C334 C333 1.419 . S
C334 C335 1.391 . S
C334 C338 1.397 . S
C335 C330 1.391 . S
C335 C334 1.391 . S
C335 C336 1.399 . S
C336 C335 1.399 . S
C336 C337 1.396 . S
C336 C339 1.453 . S
C336 C340 1.684 . S
C337 C327 1.723 . S
C337 C336 1.396 . S
C337 C338 1.394 . S
C338 C308 1.723 . S
C338 C334 1.397 . S
C338 C337 1.394 . S
C339 H311 0.982 . S
C339 H315 0.979 . S
C339 H316 0.977 . S
C339 C336 1.453 . S
C340 H312 0.979 . S
C340 H313 0.980 . S
C340 H314 0.983 . S
C340 C336 1.684 . S
H341 C359 0.948 . S
H342 C300 0.948 . S
H343 C318 0.979 . S
H344 C318 0.980 . S
H345 C318 0.983 . S
H346 C317 0.982 . S
H347 C317 0.979 . S
H348 C317 0.977 . S
H349 C319 0.948 . S
H350 C321 0.947 . S
H351 C322 0.948 . S
H352 C328 0.982 . S
H353 C328 0.979 . S
H354 C328 0.977 . S
H355 C329 0.979 . S
H356 C329 0.980 . S
H357 C329 0.983 . S
H358 C302 0.947 . S
C359 C302 1.392 . S
C359 C303 1.419 . S
C359 H341 0.948 . S
C360 C361 1.391 . S
C360 C364 1.391 . S
C360 H402 0.948 . S
C361 C360 1.391 . S
C361 C362 1.391 . S
C362 C361 1.391 . S
C362 H418 0.947 . S
C362 C419 1.392 . S
C363 C364 1.391 . S
C363 C367 1.397 . S
C363 C419 1.419 . S
C364 C360 1.391 . S
C364 C363 1.391 . S
C364 C365 1.399 . S
C365 C364 1.399 . S
C365 C368 1.396 . S
C365 C377 1.453 . S
C365 C378 1.684 . S
H366 C390 0.948 . S
C367 C363 1.397 . S
C367 C368 1.394 . S
C367 C386 1.723 . S
C368 C365 1.396 . S
C368 C367 1.394 . S
C368 C398 1.723 . S
H369 C392 0.947 . S
H370 C393 0.948 . S
H371 C399 0.982 . S
H372 C400 0.979 . S
H373 C400 0.980 . S
H374 C400 0.983 . S
H375 C399 0.979 . S
H376 C399 0.977 . S
C377 C365 1.453 . S
C377 H406 0.982 . S
C377 H407 0.979 . S
C377 H408 0.977 . S
C378 C365 1.684 . S
C378 H403 0.979 . S
C378 H404 0.980 . S
C378 H405 0.983 . S
C379 C380 1.391 . S
C379 C384 1.391 . S
C379 H409 0.948 . S
C380 C379 1.391 . S
C380 C381 1.391 . S
C381 C380 1.391 . S
C381 C382 1.392 . S
C381 H410 0.947 . S
C382 C381 1.392 . S
C382 C383 1.419 . S
C382 H411 0.948 . S
C383 C382 1.419 . S
C383 C384 1.391 . S
C383 C387 1.397 . S
C384 C379 1.391 . S
C384 C383 1.391 . S
C384 C385 1.399 . S
C385 C384 1.399 . S
C385 C386 1.396 . S
C385 C388 1.453 . S
C385 C389 1.684 . S
C386 C367 1.723 . S
C386 C385 1.396 . S
C386 C387 1.394 . S
C387 C383 1.397 . S
C387 C386 1.394 . S
C387 C397 1.723 . S
C388 C385 1.453 . S
C388 H412 0.982 . S
C388 H413 0.979 . S
C388 H414 0.977 . S
C389 C385 1.684 . S
C389 H415 0.979 . S
C389 H416 0.980 . S
C389 H417 0.983 . S
C390 H366 0.948 . S
C390 C391 1.391 . S
C390 C395 1.391 . S
C391 C390 1.391 . S
C391 C392 1.391 . S
C392 H369 0.947 . S
C392 C391 1.391 . S
C392 C393 1.392 . S
C393 H370 0.948 . S
C393 C392 1.392 . S
C393 C394 1.419 . S
C394 C393 1.419 . S
C394 C395 1.391 . S
C394 C398 1.397 . S
C395 C390 1.391 . S
C395 C394 1.391 . S
C395 C396 1.399 . S
C396 C395 1.399 . S
C396 C397 1.396 . S
C396 C399 1.453 . S
C396 C400 1.684 . S
C397 C387 1.723 . S
C397 C396 1.396 . S
C397 C398 1.394 . S
C398 C368 1.723 . S
C398 C394 1.397 . S
C398 C397 1.394 . S
C399 H371 0.982 . S
C399 H375 0.979 . S
C399 H376 0.977 . S
C399 C396 1.453 . S
C400 H372 0.979 . S
C400 H373 0.980 . S
C400 H374 0.983 . S
C400 C396 1.684 . S
H401 C419 0.948 . S
H402 C360 0.948 . S
H403 C378 0.979 . S
H404 C378 0.980 . S
H405 C378 0.983 . S
H406 C377 0.982 . S
H407 C377 0.979 . S
H408 C377 0.977 . S
H409 C379 0.948 . S
H410 C381 0.947 . S
H411 C382 0.948 . S
H412 C388 0.982 . S
H413 C388 0.979 . S
H414 C388 0.977 . S
H415 C389 0.979 . S
H416 C389 0.980 . S
H417 C389 0.983 . S
H418 C362 0.947 . S
C419 C362 1.392 . S
C419 C363 1.419 . S
C419 H401 0.948 . S
C420 C421 1.391 . S
C420 C424 1.391 . S
C420 H462 0.948 . S
C421 C420 1.391 . S
C421 C422 1.391 . S
C422 C421 1.391 . S
C422 H478 0.947 . S
C422 C479 1.392 . S
C423 C424 1.391 . S
C423 C427 1.397 . S
C423 C479 1.419 . S
C424 C420 1.391 . S
C424 C423 1.391 . S
C424 C425 1.399 . S
C425 C424 1.399 . S
C425 C428 1.396 . S
C425 C437 1.453 . S
C425 C438 1.684 . S
H426 C450 0.948 . S
C427 C423 1.397 . S
C427 C428 1.394 . S
C427 C446 1.723 . S
C428 C425 1.396 . S
C428 C427 1.394 . S
C428 C458 1.723 . S
H429 C452 0.947 . S
H430 C453 0.948 . S
H431 C459 0.982 . S
H432 C460 0.979 . S
H433 C460 0.980 . S
H434 C460 0.983 . S
H435 C459 0.979 . S
H436 C459 0.977 . S
C437 C425 1.453 . S
C437 H466 0.982 . S
C437 H467 0.979 . S
C437 H468 0.977 . S
C438 C425 1.684 . S
C438 H463 0.979 . S
C438 H464 0.980 . S
C438 H465 0.983 . S
C439 C440 1.391 . S
C439 C444 1.391 . S
C439 H469 0.948 . S
C440 C439 1.391 . S
C440 C441 1.391 . S
C441 C440 1.391 . S
C441 C442 1.392 . S
C441 H470 0.947 . S
C442 C441 1.392 . S
C442 C443 1.419 . S
C442 H471 0.948 . S
C443 C442 1.419 . S
C443 C444 1.391 . S
C443 C447 1.397 . S
C444 C439 1.391 . S
C444 C443 1.391 . S
C444 C445 1.399 . S
C445 C444 1.399 . S
C445 C446 1.396 . S
C445 C448 1.453 . S
C445 C449 1.684 . S
C446 C427 1.723 . S
C446 C445 1.396 . S
C446 C447 1.394 . S
C447 C443 1.397 . S
C447 C446 1.394 . S
C447 C457 1.723 . S
C448 C445 1.453 . S
C448 H472 0.982 . S
C448 H473 0.979 . S
C448 H474 0.977 . S
C449 C445 1.684 . S
C449 H475 0.979 . S
C449 H476 0.980 . S
C449 H477 0.983 . S
C450 H426 0.948 . S
C450 C451 1.391 . S
C450 C455 1.391 . S
C451 C450 1.391 . S
C451 C452 1.391 . S
C452 H429 0.947 . S
C452 C451 1.391 . S
C452 C453 1.392 . S
C453 H430 0.948 . S
C453 C452 1.392 . S
C453 C454 1.419 . S
C454 C453 1.419 . S
C454 C455 1.391 . S
C454 C458 1.397 . S
C455 C450 1.391 . S
C455 C454 1.391 . S
C455 C456 1.399 . S
C456 C455 1.399 . S
C456 C457 1.396 . S
C456 C459 1.453 . S
C456 C460 1.684 . S
C457 C447 1.723 . S
C457 C456 1.396 . S
C457 C458 1.394 . S
C458 C428 1.723 . S
C458 C454 1.397 . S
C458 C457 1.394 . S
C459 H431 0.982 . S
C459 H435 0.979 . S
C459 H436 0.977 . S
C459 C456 1.453 . S
C460 H432 0.979 . S
C460 H433 0.980 . S
C460 H434 0.983 . S
C460 C456 1.684 . S
H461 C479 0.948 . S
H462 C420 0.948 . S
H463 C438 0.979 . S
H464 C438 0.980 . S
H465 C438 0.983 . S
H466 C437 0.982 . S
H467 C437 0.979 . S
H468 C437 0.977 . S
H469 C439 0.948 . S
H470 C441 0.947 . S
H471 C442 0.948 . S
H472 C448 0.982 . S
H473 C448 0.979 . S
H474 C448 0.977 . S
H475 C449 0.979 . S
H476 C449 0.980 . S
H477 C449 0.983 . S
H478 C422 0.947 . S
C479 C422 1.392 . S
C479 C423 1.419 . S
C479 H461 0.948 . S
Ho480 C483 2.811 . S
Ho480 O500 2.322 . S
Ho480 O502 2.378 . S
Ho480 O503 2.524 . S
Ho480 O504 2.381 1_545 S
Ho480 O505 2.669 1_545 S
Ho480 O507 2.346 1_445 S
Ho480 O511 2.305 1_455 S
Ho481 C492 2.811 . S
Ho481 O501 2.346 1_665 S
Ho481 O505 2.305 1_655 S
Ho481 O506 2.322 . S
Ho481 O508 2.378 . S
Ho481 O509 2.524 . S
Ho481 O510 2.381 1_565 S
Ho481 O511 2.669 1_565 S
C482 O500 1.259 . S
C482 O501 1.268 . S
C483 Ho480 2.811 . S
C483 C484 1.488 . S
C483 O502 1.215 . S
C483 O503 1.289 . S
C484 C483 1.488 . S
C484 C485 1.348 . S
C484 C489 1.413 . S
C485 C484 1.348 . S
C485 C486 1.442 . S
C485 H512 0.930 . S
C486 C485 1.442 . S
C486 C487 1.381 . S
C486 H513 0.931 . S
C487 C486 1.381 . S
C487 C488 1.321 . S
C488 C487 1.321 . S
C488 C489 1.403 . S
C488 H514 0.934 . S
C489 C484 1.413 . S
C489 C488 1.403 . S
C489 H515 0.930 . S
C490 O504 1.275 . S
C490 O505 1.256 . S
C491 O506 1.259 . S
C491 O507 1.268 . S
C492 Ho481 2.811 . S
C492 C493 1.488 . S
C492 O508 1.215 . S
C492 O509 1.289 . S
C493 C492 1.488 . S
C493 C494 1.348 . S
C493 C498 1.413 . S
C494 C493 1.348 . S
C494 C495 1.442 . S
C494 H516 0.930 . S
C495 C494 1.442 . S
C495 C496 1.381 . S
C495 H517 0.931 . S
C496 C495 1.381 . S
C496 C497 1.321 . S
C497 C496 1.321 . S
C497 C498 1.403 . S
C497 H518 0.934 . S
C498 C493 1.413 . S
C498 C497 1.403 . S
C498 H519 0.930 . S
C499 O510 1.275 . S
C499 O511 1.256 . S
O500 Ho480 2.322 . S
O500 C482 1.259 . S
O501 Ho481 2.346 1_445 S
O501 C482 1.268 . S
O502 Ho480 2.378 . S
O502 C483 1.215 . S
O503 Ho480 2.524 . S
O503 C483 1.289 . S
O504 Ho480 2.381 1_565 S
O504 C490 1.275 . S
O505 Ho480 2.669 1_565 S
O505 Ho481 2.305 1_455 S
O505 C490 1.256 . S
O506 Ho481 2.322 . S
O506 C491 1.259 . S
O507 Ho480 2.346 1_665 S
O507 C491 1.268 . S
O508 Ho481 2.378 . S
O508 C492 1.215 . S
O509 Ho481 2.524 . S
O509 C492 1.289 . S
O510 Ho481 2.381 1_545 S
O510 C499 1.275 . S
O511 Ho480 2.305 1_655 S
O511 Ho481 2.669 1_545 S
O511 C499 1.256 . S
H512 C485 0.930 . S
H513 C486 0.931 . S
H514 C488 0.934 . S
H515 C489 0.930 . S
H516 C494 0.930 . S
H517 C495 0.931 . S
H518 C497 0.934 . S
H519 C498 0.930 . S
Ho520 C523 2.811 1_565 S
Ho520 O540 2.322 1_565 S
Ho520 O542 2.378 1_565 S
Ho520 O543 2.524 1_565 S
Ho520 O544 2.381 . S
Ho520 O545 2.669 . S
Ho520 O547 2.346 1_554 S
Ho520 O551 2.305 1_564 S
Ho521 C532 2.811 1_545 S
Ho521 O541 2.346 1_556 S
Ho521 O545 2.305 1_546 S
Ho521 O546 2.322 1_545 S
Ho521 O548 2.378 1_545 S
Ho521 O549 2.524 1_545 S
Ho521 O550 2.381 . S
Ho521 O551 2.669 . S
C522 O540 1.259 . S
C522 O541 1.268 . S
C523 Ho520 2.811 1_545 S
C523 C524 1.488 . S
C523 O542 1.215 . S
C523 O543 1.289 . S
C524 C523 1.488 . S
C524 C525 1.348 . S
C524 C529 1.413 . S
C525 C524 1.348 . S
C525 C526 1.442 . S
C525 H552 0.930 . S
C526 C525 1.442 . S
C526 C527 1.381 . S
C526 H553 0.931 . S
C527 C526 1.381 . S
C527 C528 1.321 . S
C528 C527 1.321 . S
C528 C529 1.403 . S
C528 H554 0.934 . S
C529 C524 1.413 . S
C529 C528 1.403 . S
C529 H555 0.930 . S
C530 O544 1.275 . S
C530 O545 1.256 . S
C531 O546 1.259 . S
C531 O547 1.268 . S
C532 Ho521 2.811 1_565 S
C532 C533 1.488 . S
C532 O548 1.215 . S
C532 O549 1.289 . S
C533 C532 1.488 . S
C533 C534 1.348 . S
C533 C538 1.413 . S
C534 C533 1.348 . S
C534 C535 1.442 . S
C534 H556 0.930 . S
C535 C534 1.442 . S
C535 C536 1.381 . S
C535 H557 0.931 . S
C536 C535 1.381 . S
C536 C537 1.321 . S
C537 C536 1.321 . S
C537 C538 1.403 . S
C537 H558 0.934 . S
C538 C533 1.413 . S
C538 C537 1.403 . S
C538 H559 0.930 . S
C539 O550 1.275 . S
C539 O551 1.256 . S
O540 Ho520 2.322 1_545 S
O540 C522 1.259 . S
O541 Ho521 2.346 1_554 S
O541 C522 1.268 . S
O542 Ho520 2.378 1_545 S
O542 C523 1.215 . S
O543 Ho520 2.524 1_545 S
O543 C523 1.289 . S
O544 Ho520 2.381 . S
O544 C530 1.275 . S
O545 Ho520 2.669 . S
O545 Ho521 2.305 1_564 S
O545 C530 1.256 . S
O546 Ho521 2.322 1_565 S
O546 C531 1.259 . S
O547 Ho520 2.346 1_556 S
O547 C531 1.268 . S
O548 Ho521 2.378 1_565 S
O548 C532 1.215 . S
O549 Ho521 2.524 1_565 S
O549 C532 1.289 . S
O550 Ho521 2.381 . S
O550 C539 1.275 . S
O551 Ho520 2.305 1_546 S
O551 Ho521 2.669 . S
O551 C539 1.256 . S
H552 C525 0.930 . S
H553 C526 0.931 . S
H554 C528 0.934 . S
H555 C529 0.930 . S
H556 C534 0.930 . S
H557 C535 0.931 . S
H558 C537 0.934 . S
H559 C538 0.930 . S
Ho560 C563 2.811 . S
Ho560 O580 2.322 . S
Ho560 O582 2.378 . S
Ho560 O583 2.524 . S
Ho560 O584 2.381 . S
Ho560 O585 2.669 . S
Ho560 O587 2.346 . S
Ho560 O591 2.305 . S
Ho561 C572 2.811 . S
Ho561 O581 2.346 . S
Ho561 O585 2.305 . S
Ho561 O586 2.322 . S
Ho561 O588 2.378 . S
Ho561 O589 2.524 . S
Ho561 O590 2.381 . S
Ho561 O591 2.669 . S
C562 O580 1.259 . S
C562 O581 1.268 . S
C563 Ho560 2.811 . S
C563 C564 1.488 . S
C563 O582 1.215 . S
C563 O583 1.289 . S
C564 C563 1.488 . S
C564 C565 1.348 . S
C564 C569 1.413 . S
C565 C564 1.348 . S
C565 C566 1.442 . S
C565 H592 0.930 . S
C566 C565 1.442 . S
C566 C567 1.381 . S
C566 H593 0.931 . S
C567 C566 1.381 . S
C567 C568 1.321 . S
C568 C567 1.321 . S
C568 C569 1.403 . S
C568 H594 0.934 . S
C569 C564 1.413 . S
C569 C568 1.403 . S
C569 H595 0.930 . S
C570 O584 1.275 . S
C570 O585 1.256 . S
C571 O586 1.259 . S
C571 O587 1.268 . S
C572 Ho561 2.811 . S
C572 C573 1.488 . S
C572 O588 1.215 . S
C572 O589 1.289 . S
C573 C572 1.488 . S
C573 C574 1.348 . S
C573 C578 1.413 . S
C574 C573 1.348 . S
C574 C575 1.442 . S
C574 H596 0.930 . S
C575 C574 1.442 . S
C575 C576 1.381 . S
C575 H597 0.931 . S
C576 C575 1.381 . S
C576 C577 1.321 . S
C577 C576 1.321 . S
C577 C578 1.403 . S
C577 H598 0.934 . S
C578 C573 1.413 . S
C578 C577 1.403 . S
C578 H599 0.930 . S
C579 O590 1.275 . S
C579 O591 1.256 . S
O580 Ho560 2.322 . S
O580 C562 1.259 . S
O581 Ho561 2.346 . S
O581 C562 1.268 . S
O582 Ho560 2.378 . S
O582 C563 1.215 . S
O583 Ho560 2.524 . S
O583 C563 1.289 . S
O584 Ho560 2.381 . S
O584 C570 1.275 . S
O585 Ho560 2.669 . S
O585 Ho561 2.305 . S
O585 C570 1.256 . S
O586 Ho561 2.322 . S
O586 C571 1.259 . S
O587 Ho560 2.346 . S
O587 C571 1.268 . S
O588 Ho561 2.378 . S
O588 C572 1.215 . S
O589 Ho561 2.524 . S
O589 C572 1.289 . S
O590 Ho561 2.381 . S
O590 C579 1.275 . S
O591 Ho560 2.305 . S
O591 Ho561 2.669 . S
O591 C579 1.256 . S
H592 C565 0.930 . S
H593 C566 0.931 . S
H594 C568 0.934 . S
H595 C569 0.930 . S
H596 C574 0.930 . S
H597 C575 0.931 . S
H598 C577 0.934 . S
H599 C578 0.930 . S
Ho600 C603 2.811 . S
Ho600 O620 2.322 . S
Ho600 O622 2.378 . S
Ho600 O623 2.524 . S
Ho600 O624 2.381 1_455 S
Ho600 O625 2.669 1_455 S
Ho600 O627 2.346 1_454 S
Ho600 O631 2.305 1_554 S
Ho601 C612 2.811 . S
Ho601 O621 2.346 1_656 S
Ho601 O625 2.305 1_556 S
Ho601 O626 2.322 . S
Ho601 O628 2.378 . S
Ho601 O629 2.524 . S
Ho601 O630 2.381 1_655 S
Ho601 O631 2.669 1_655 S
C602 O620 1.259 . S
C602 O621 1.268 . S
C603 Ho600 2.811 . S
C603 C604 1.488 . S
C603 O622 1.215 . S
C603 O623 1.289 . S
C604 C603 1.488 . S
C604 C605 1.348 . S
C604 C609 1.413 . S
C605 C604 1.348 . S
C605 C606 1.442 . S
C605 H632 0.930 . S
C606 C605 1.442 . S
C606 C607 1.381 . S
C606 H633 0.931 . S
C607 C606 1.381 . S
C607 C608 1.321 . S
C608 C607 1.321 . S
C608 C609 1.403 . S
C608 H634 0.934 . S
C609 C604 1.413 . S
C609 C608 1.403 . S
C609 H635 0.930 . S
C610 O624 1.275 . S
C610 O625 1.256 . S
C611 O626 1.259 . S
C611 O627 1.268 . S
C612 Ho601 2.811 . S
C612 C613 1.488 . S
C612 O628 1.215 . S
C612 O629 1.289 . S
C613 C612 1.488 . S
C613 C614 1.348 . S
C613 C618 1.413 . S
C614 C613 1.348 . S
C614 C615 1.442 . S
C614 H636 0.930 . S
C615 C614 1.442 . S
C615 C616 1.381 . S
C615 H637 0.931 . S
C616 C615 1.381 . S
C616 C617 1.321 . S
C617 C616 1.321 . S
C617 C618 1.403 . S
C617 H638 0.934 . S
C618 C613 1.413 . S
C618 C617 1.403 . S
C618 H639 0.930 . S
C619 O630 1.275 . S
C619 O631 1.256 . S
O620 Ho600 2.322 . S
O620 C602 1.259 . S
O621 Ho601 2.346 1_454 S
O621 C602 1.268 . S
O622 Ho600 2.378 . S
O622 C603 1.215 . S
O623 Ho600 2.524 . S
O623 C603 1.289 . S
O624 Ho600 2.381 1_655 S
O624 C610 1.275 . S
O625 Ho600 2.669 1_655 S
O625 Ho601 2.305 1_554 S
O625 C610 1.256 . S
O626 Ho601 2.322 . S
O626 C611 1.259 . S
O627 Ho600 2.346 1_656 S
O627 C611 1.268 . S
O628 Ho601 2.378 . S
O628 C612 1.215 . S
O629 Ho601 2.524 . S
O629 C612 1.289 . S
O630 Ho601 2.381 1_455 S
O630 C619 1.275 . S
O631 Ho600 2.305 1_556 S
O631 Ho601 2.669 1_455 S
O631 C619 1.256 . S
H632 C605 0.930 . S
H633 C606 0.931 . S
H634 C608 0.934 . S
H635 C609 0.930 . S
H636 C614 0.930 . S
H637 C615 0.931 . S
H638 C617 0.934 . S
H639 C618 0.930 . S
C640 C641 1.387 . S
C640 H644 0.950 . S
C640 C649 1.390 . S
C641 C640 1.387 . S
C641 C643 1.387 . S
H642 C649 0.950 . S
C643 C641 1.387 . S
C643 C645 1.390 . S
C643 H647 0.950 . S
H644 C640 0.950 . S
C645 C643 1.390 . S
C645 C646 1.387 . S
C645 H648 0.950 . S
C646 C645 1.387 . S
C646 C649 1.387 . S
H647 C643 0.950 . S
H648 C645 0.950 . S
C649 C640 1.390 . S
C649 H642 0.950 . S
C649 C646 1.387 . S
C650 C651 1.387 . S
C650 H654 0.950 . S
C650 C659 1.390 . S
C651 C650 1.387 . S
C651 C653 1.387 . S
H652 C659 0.950 . S
C653 C651 1.387 . S
C653 C655 1.390 . S
C653 H657 0.950 . S
H654 C650 0.950 . S
C655 C653 1.390 . S
C655 C656 1.387 . S
C655 H658 0.950 . S
C656 C655 1.387 . S
C656 C659 1.387 . S
H657 C653 0.950 . S
H658 C655 0.950 . S
C659 C650 1.390 . S
C659 H652 0.950 . S
C659 C656 1.387 . S
C660 C661 1.387 . S
C660 H664 0.950 . S
C660 C669 1.390 . S
C661 C660 1.387 . S
C661 C663 1.387 . S
H662 C669 0.950 . S
C663 C661 1.387 . S
C663 C665 1.390 . S
C663 H667 0.950 . S
H664 C660 0.950 . S
C665 C663 1.390 . S
C665 C666 1.387 . S
C665 H668 0.950 . S
C666 C665 1.387 . S
C666 C669 1.387 . S
H667 C663 0.950 . S
H668 C665 0.950 . S
C669 C660 1.390 . S
C669 H662 0.950 . S
C669 C666 1.387 . S
C670 C671 1.387 . S
C670 H674 0.950 . S
C670 C679 1.390 . S
C671 C670 1.387 . S
C671 C673 1.387 . S
H672 C679 0.950 . S
C673 C671 1.387 . S
C673 C675 1.390 . S
C673 H677 0.950 . S
H674 C670 0.950 . S
C675 C673 1.390 . S
C675 C676 1.387 . S
C675 H678 0.950 . S
C676 C675 1.387 . S
C676 C679 1.387 . S
H677 C673 0.950 . S
H678 C675 0.950 . S
C679 C670 1.390 . S
C679 H672 0.950 . S
C679 C676 1.387 . S
C680 C681 1.387 . S
C680 H684 0.950 . S
C680 C689 1.390 . S
C681 C680 1.387 . S
C681 C683 1.387 . S
H682 C689 0.950 . S
C683 C681 1.387 . S
C683 C685 1.390 . S
C683 H687 0.950 . S
H684 C680 0.950 . S
C685 C683 1.390 . S
C685 C686 1.387 . S
C685 H688 0.950 . S
C686 C685 1.387 . S
C686 C689 1.387 . S
H687 C683 0.950 . S
H688 C685 0.950 . S
C689 C680 1.390 . S
C689 H682 0.950 . S
C689 C686 1.387 . S
C690 C691 1.387 . S
C690 H694 0.950 . S
C690 C699 1.390 . S
C691 C690 1.387 . S
C691 C693 1.387 . S
H692 C699 0.950 . S
C693 C691 1.387 . S
C693 C695 1.390 . S
C693 H697 0.950 . S
H694 C690 0.950 . S
C695 C693 1.390 . S
C695 C696 1.387 . S
C695 H698 0.950 . S
C696 C695 1.387 . S
C696 C699 1.387 . S
H697 C693 0.950 . S
H698 C695 0.950 . S
C699 C690 1.390 . S
C699 H692 0.950 . S
C699 C696 1.387 . S
C700 C701 1.387 . S
C700 H704 0.950 . S
C700 C709 1.390 . S
C701 C700 1.387 . S
C701 C703 1.387 . S
H702 C709 0.950 . S
C703 C701 1.387 . S
C703 C705 1.390 . S
C703 H707 0.950 . S
H704 C700 0.950 . S
C705 C703 1.390 . S
C705 C706 1.387 . S
C705 H708 0.950 . S
C706 C705 1.387 . S
C706 C709 1.387 . S
H707 C703 0.950 . S
H708 C705 0.950 . S
C709 C700 1.390 . S
C709 H702 0.950 . S
C709 C706 1.387 . S
C710 C711 1.387 . S
C710 H714 0.950 . S
C710 C719 1.390 . S
C711 C710 1.387 . S
C711 C713 1.387 . S
H712 C719 0.950 . S
C713 C711 1.387 . S
C713 C715 1.390 . S
C713 H717 0.950 . S
H714 C710 0.950 . S
C715 C713 1.390 . S
C715 C716 1.387 . S
C715 H718 0.950 . S
C716 C715 1.387 . S
C716 C719 1.387 . S
H717 C713 0.950 . S
H718 C715 0.950 . S
C719 C710 1.390 . S
C719 H712 0.950 . S
C719 C716 1.387 . S
C720 C721 1.387 . S
C720 H724 0.950 . S
C720 C729 1.390 . S
C721 C720 1.387 . S
C721 C723 1.387 . S
H722 C729 0.950 . S
C723 C721 1.387 . S
C723 C725 1.390 . S
C723 H727 0.950 . S
H724 C720 0.950 . S
C725 C723 1.390 . S
C725 C726 1.387 . S
C725 H728 0.950 . S
C726 C725 1.387 . S
C726 C729 1.387 . S
H727 C723 0.950 . S
H728 C725 0.950 . S
C729 C720 1.390 . S
C729 H722 0.950 . S
C729 C726 1.387 . S
C730 C731 1.387 . S
C730 H734 0.950 . S
C730 C739 1.390 . S
C731 C730 1.387 . S
C731 C733 1.387 . S
H732 C739 0.950 . S
C733 C731 1.387 . S
C733 C735 1.390 . S
C733 H737 0.950 . S
H734 C730 0.950 . S
C735 C733 1.390 . S
C735 C736 1.387 . S
C735 H738 0.950 . S
C736 C735 1.387 . S
C736 C739 1.387 . S
H737 C733 0.950 . S
H738 C735 0.950 . S
C739 C730 1.390 . S
C739 H732 0.950 . S
C739 C736 1.387 . S
C740 C741 1.387 . S
C740 H744 0.950 . S
C740 C749 1.390 . S
C741 C740 1.387 . S
C741 C743 1.387 . S
H742 C749 0.950 . S
C743 C741 1.387 . S
C743 C745 1.390 . S
C743 H747 0.950 . S
H744 C740 0.950 . S
C745 C743 1.390 . S
C745 C746 1.387 . S
C745 H748 0.950 . S
C746 C745 1.387 . S
C746 C749 1.387 . S
H747 C743 0.950 . S
H748 C745 0.950 . S
C749 C740 1.390 . S
C749 H742 0.950 . S
C749 C746 1.387 . S
C750 C751 1.387 . S
C750 H754 0.950 . S
C750 C759 1.390 . S
C751 C750 1.387 . S
C751 C753 1.387 . S
H752 C759 0.950 . S
C753 C751 1.387 . S
C753 C755 1.390 . S
C753 H757 0.950 . S
H754 C750 0.950 . S
C755 C753 1.390 . S
C755 C756 1.387 . S
C755 H758 0.950 . S
C756 C755 1.387 . S
C756 C759 1.387 . S
H757 C753 0.950 . S
H758 C755 0.950 . S
C759 C750 1.390 . S
C759 H752 0.950 . S
C759 C756 1.387 . S
C760 C761 1.387 . S
C760 H764 0.950 . S
C760 C769 1.390 . S
C761 C760 1.387 . S
C761 C763 1.387 . S
H762 C769 0.950 . S
C763 C761 1.387 . S
C763 C765 1.390 . S
C763 H767 0.950 . S
H764 C760 0.950 . S
C765 C763 1.390 . S
C765 C766 1.387 . S
C765 H768 0.950 . S
C766 C765 1.387 . S
C766 C769 1.387 . S
H767 C763 0.950 . S
H768 C765 0.950 . S
C769 C760 1.390 . S
C769 H762 0.950 . S
C769 C766 1.387 . S
C770 C771 1.387 . S
C770 H774 0.950 . S
C770 C779 1.390 . S
C771 C770 1.387 . S
C771 C773 1.387 . S
H772 C779 0.950 . S
C773 C771 1.387 . S
C773 C775 1.390 . S
C773 H777 0.950 . S
H774 C770 0.950 . S
C775 C773 1.390 . S
C775 C776 1.387 . S
C775 H778 0.950 . S
C776 C775 1.387 . S
C776 C779 1.387 . S
H777 C773 0.950 . S
H778 C775 0.950 . S
C779 C770 1.390 . S
C779 H772 0.950 . S
C779 C776 1.387 . S
C780 C781 1.387 . S
C780 H784 0.950 . S
C780 C789 1.390 . S
C781 C780 1.387 . S
C781 C783 1.387 . S
H782 C789 0.950 . S
C783 C781 1.387 . S
C783 C785 1.390 . S
C783 H787 0.950 . S
H784 C780 0.950 . S
C785 C783 1.390 . S
C785 C786 1.387 . S
C785 H788 0.950 . S
C786 C785 1.387 . S
C786 C789 1.387 . S
H787 C783 0.950 . S
H788 C785 0.950 . S
C789 C780 1.390 . S
C789 H782 0.950 . S
C789 C786 1.387 . S
C790 C791 1.387 . S
C790 H794 0.950 . S
C790 C799 1.390 . S
C791 C790 1.387 . S
C791 C793 1.387 . S
H792 C799 0.950 . S
C793 C791 1.387 . S
C793 C795 1.390 . S
C793 H797 0.950 . S
H794 C790 0.950 . S
C795 C793 1.390 . S
C795 C796 1.387 . S
C795 H798 0.950 . S
C796 C795 1.387 . S
C796 C799 1.387 . S
H797 C793 0.950 . S
H798 C795 0.950 . S
C799 C790 1.390 . S
C799 H792 0.950 . S
C799 C796 1.387 . S
C800 C801 1.387 . S
C800 H804 0.950 . S
C800 C809 1.390 . S
C801 C800 1.387 . S
C801 C803 1.387 . S
H802 C809 0.950 . S
C803 C801 1.387 . S
C803 C805 1.390 . S
C803 H807 0.950 . S
H804 C800 0.950 . S
C805 C803 1.390 . S
C805 C806 1.387 . S
C805 H808 0.950 . S
C806 C805 1.387 . S
C806 C809 1.387 . S
H807 C803 0.950 . S
H808 C805 0.950 . S
C809 C800 1.390 . S
C809 H802 0.950 . S
C809 C806 1.387 . S
C810 C811 1.387 . S
C810 H814 0.950 . S
C810 C819 1.390 . S
C811 C810 1.387 . S
C811 C813 1.387 . S
H812 C819 0.950 . S
C813 C811 1.387 . S
C813 C815 1.390 . S
C813 H817 0.950 . S
H814 C810 0.950 . S
C815 C813 1.390 . S
C815 C816 1.387 . S
C815 H818 0.950 . S
C816 C815 1.387 . S
C816 C819 1.387 . S
H817 C813 0.950 . S
H818 C815 0.950 . S
C819 C810 1.390 . S
C819 H812 0.950 . S
C819 C816 1.387 . S
C820 C821 1.387 . S
C820 H824 0.950 . S
C820 C829 1.390 . S
C821 C820 1.387 . S
C821 C823 1.387 . S
H822 C829 0.950 . S
C823 C821 1.387 . S
C823 C825 1.390 . S
C823 H827 0.950 . S
H824 C820 0.950 . S
C825 C823 1.390 . S
C825 C826 1.387 . S
C825 H828 0.950 . S
C826 C825 1.387 . S
C826 C829 1.387 . S
H827 C823 0.950 . S
H828 C825 0.950 . S
C829 C820 1.390 . S
C829 H822 0.950 . S
C829 C826 1.387 . S
C830 C831 1.387 . S
C830 H834 0.950 . S
C830 C839 1.390 . S
C831 C830 1.387 . S
C831 C833 1.387 . S
H832 C839 0.950 . S
C833 C831 1.387 . S
C833 C835 1.390 . S
C833 H837 0.950 . S
H834 C830 0.950 . S
C835 C833 1.390 . S
C835 C836 1.387 . S
C835 H838 0.950 . S
C836 C835 1.387 . S
C836 C839 1.387 . S
H837 C833 0.950 . S
H838 C835 0.950 . S
C839 C830 1.390 . S
C839 H832 0.950 . S
C839 C836 1.387 . S
C840 C841 1.387 . S
C840 H844 0.950 . S
C840 C849 1.390 . S
C841 C840 1.387 . S
C841 C843 1.387 . S
H842 C849 0.950 . S
C843 C841 1.387 . S
C843 C845 1.390 . S
C843 H847 0.950 . S
H844 C840 0.950 . S
C845 C843 1.390 . S
C845 C846 1.387 . S
C845 H848 0.950 . S
C846 C845 1.387 . S
C846 C849 1.387 . S
H847 C843 0.950 . S
H848 C845 0.950 . S
C849 C840 1.390 . S
C849 H842 0.950 . S
C849 C846 1.387 . S
C850 C851 1.387 . S
C850 H854 0.950 . S
C850 C859 1.390 . S
C851 C850 1.387 . S
C851 C853 1.387 . S
H852 C859 0.950 . S
C853 C851 1.387 . S
C853 C855 1.390 . S
C853 H857 0.950 . S
H854 C850 0.950 . S
C855 C853 1.390 . S
C855 C856 1.387 . S
C855 H858 0.950 . S
C856 C855 1.387 . S
C856 C859 1.387 . S
H857 C853 0.950 . S
H858 C855 0.950 . S
C859 C850 1.390 . S
C859 H852 0.950 . S
C859 C856 1.387 . S
C860 C861 1.387 . S
C860 H864 0.950 . S
C860 C869 1.390 . S
C861 C860 1.387 . S
C861 C863 1.387 . S
H862 C869 0.950 . S
C863 C861 1.387 . S
C863 C865 1.390 . S
C863 H867 0.950 . S
H864 C860 0.950 . S
C865 C863 1.390 . S
C865 C866 1.387 . S
C865 H868 0.950 . S
C866 C865 1.387 . S
C866 C869 1.387 . S
H867 C863 0.950 . S
H868 C865 0.950 . S
C869 C860 1.390 . S
C869 H862 0.950 . S
C869 C866 1.387 . S
C870 C871 1.387 . S
C870 H874 0.950 . S
C870 C879 1.390 . S
C871 C870 1.387 . S
C871 C873 1.387 . S
H872 C879 0.950 . S
C873 C871 1.387 . S
C873 C875 1.390 . S
C873 H877 0.950 . S
H874 C870 0.950 . S
C875 C873 1.390 . S
C875 C876 1.387 . S
C875 H878 0.950 . S
C876 C875 1.387 . S
C876 C879 1.387 . S
H877 C873 0.950 . S
H878 C875 0.950 . S
C879 C870 1.390 . S
C879 H872 0.950 . S
C879 C876 1.387 . S
C641 C1 1.195 . S
C646 C487 1.412 . S
C651 C80 1.029 . S
C656 C536 1.099 . S
C666 C562 2.496 . S
C661 C140 2.489 . S
C671 C211 2.431 . S
C676 C610 2.406 . S
C686 C522 2.634 . S
C681 C31 2.246 . S
C696 C490 0.861 . S
C691 C61 0.850 . S
C706 C611 1.928 . S
C701 C151 1.959 . S
C716 C579 1.707 . S
C711 C200 1.706 . S
C721 C20 1.696 . S
C726 C607 1.835 . S
C736 C539 2.344 . S
C731 C121 2.430 . S
C741 C181 2.302 . S
C746 C491 2.352 . S
C751 C91 1.169 . S
C756 C576 1.149 . S
C766 C496 1.414 . S
C761 C260 1.295 . S
C771 C320 1.030 . S
C776 C527 1.098 . S
C781 C361 2.493 . S
C786 C571 2.498 . S
C791 C451 2.431 . S
C796 C619 2.410 . S
C801 C271 2.345 . S
C806 C531 2.634 . S
C816 C499 0.861 . S
C811 C301 0.850 . S
C826 C602 1.930 . S
C821 C380 1.929 . S
C836 C570 1.708 . S
C831 C440 1.704 . S
C841 C241 1.563 . S
C846 C616 1.839 . S
C856 C530 2.346 . S
C851 C391 2.425 . S
C866 C482 2.352 . S
C861 C421 2.303 . S
C871 C331 1.166 . S
C876 C567 1.145 . S
