# Generated by pormake.
# Topology anh, (6,3)-cn, num edge types: 1
# Building blocks:
#     Node 0, Type 0, BuildingBlock: MIFKUJ_clean_sbu_0, # of connection points: 6
#     Node 1, Type 0, BuildingBlock: MIFKUJ_clean_sbu_0, # of connection points: 6
#     Node 2, Type 0, BuildingBlock: MIFKUJ_clean_sbu_0, # of connection points: 6
#     Node 3, Type 1, BuildingBlock: KAKCAD_clean_linker_0, # of connection points: 3
#     Node 4, Type 1, BuildingBlock: KAKCAD_clean_linker_0, # of connection points: 3
#     Node 5, Type 1, BuildingBlock: KAKCAD_clean_linker_0, # of connection points: 3
#     Node 6, Type 1, BuildingBlock: KAKCAD_clean_linker_0, # of connection points: 3
#     Node 7, Type 1, BuildingBlock: KAKCAD_clean_linker_0, # of connection points: 3
#     Node 8, Type 1, BuildingBlock: KAKCAD_clean_linker_0, # of connection points: 3
#     Edge 9, Type (0, 1), BuildingBlock: MIFKUJ_clean_linker_0, # of connection points: 2
#     Edge 10, Type (0, 1), BuildingBlock: MIFKUJ_clean_linker_0, # of connection points: 2
#     Edge 11, Type (0, 1), BuildingBlock: MIFKUJ_clean_linker_0, # of connection points: 2
#     Edge 12, Type (0, 1), BuildingBlock: MIFKUJ_clean_linker_0, # of connection points: 2
#     Edge 13, Type (0, 1), BuildingBlock: MIFKUJ_clean_linker_0, # of connection points: 2
#     Edge 14, Type (0, 1), BuildingBlock: MIFKUJ_clean_linker_0, # of connection points: 2
#     Edge 15, Type (0, 1), BuildingBlock: MIFKUJ_clean_linker_0, # of connection points: 2
#     Edge 16, Type (0, 1), BuildingBlock: MIFKUJ_clean_linker_0, # of connection points: 2
#     Edge 17, Type (0, 1), BuildingBlock: MIFKUJ_clean_linker_0, # of connection points: 2
#     Edge 18, Type (0, 1), BuildingBlock: MIFKUJ_clean_linker_0, # of connection points: 2
#     Edge 19, Type (0, 1), BuildingBlock: MIFKUJ_clean_linker_0, # of connection points: 2
#     Edge 20, Type (0, 1), BuildingBlock: MIFKUJ_clean_linker_0, # of connection points: 2
#     Edge 21, Type (0, 1), BuildingBlock: MIFKUJ_clean_linker_0, # of connection points: 2
#     Edge 22, Type (0, 1), BuildingBlock: MIFKUJ_clean_linker_0, # of connection points: 2
#     Edge 23, Type (0, 1), BuildingBlock: MIFKUJ_clean_linker_0, # of connection points: 2
#     Edge 24, Type (0, 1), BuildingBlock: MIFKUJ_clean_linker_0, # of connection points: 2
#     Edge 25, Type (0, 1), BuildingBlock: MIFKUJ_clean_linker_0, # of connection points: 2
#     Edge 26, Type (0, 1), BuildingBlock: MIFKUJ_clean_linker_0, # of connection points: 2
# Relax obj value: 0.135
# Max RMSD: 0.182
# Mean RMSD: 0.140
data_MOF--net-anh--node1-MIFKUJ_clean_sbu_0--node2-KAKCAD_clean_linker_0--edge1-MIFKUJ_clean_linker_0
_symmetry_space_group_name_H-M    P1
_symmetry_Int_Tables_number       1
_symmetry_cell_setting            triclinic
loop_
_symmetry_equiv_pos_as_xyz
'x, y, z'
_cell_length_a     45.795681
_cell_length_b     45.840717
_cell_length_c     79.973957
_cell_angle_alpha  93.884921
_cell_angle_beta   90.801446
_cell_angle_gamma 119.89487
loop_
_atom_site_label
_atom_site_type_symbol
_atom_site_fract_x
_atom_site_fract_y
_atom_site_fract_z
_atom_type_partial_charge
Zn0 Zn 0.04123 0.55315 0.16081 0.0
Zn1 Zn 0.97285 0.48322 0.15938 0.0
C2 C 0.09904 0.54891 0.17127 0.0
O3 O 0.10153 0.57282 0.18225 0.0
C4 C 0.92577 0.5009 0.14784 0.0
O5 O 0.92232 0.47727 0.13639 0.0
O6 O 0.07234 0.60278 0.16048 0.0
O7 O 0.01473 0.53989 0.13865 0.0
O8 O 0.99343 0.48482 0.13727 0.0
C9 C 0.09491 0.61176 0.14981 0.0
O10 O 0.09533 0.58866 0.13932 0.0
O11 O 0.07331 0.53413 0.16098 0.0
C12 C 0.91397 0.43541 0.17213 0.0
O13 O 0.92242 0.4627 0.18212 0.0
O14 O 0.93366 0.4365 0.16083 0.0
O15 O 0.00176 0.49257 0.18042 0.0
O16 O 0.01793 0.54648 0.18265 0.0
O17 O 0.9492 0.51123 0.15934 0.0
C18 C 0.00418 0.51186 0.13003 0.0
C19 C 0.01056 0.51968 0.18951 0.0
Zn20 Zn 0.5296 0.04411 0.50388 0.0
Zn21 Zn 0.51977 0.95995 0.50361 0.0
C22 C 0.59918 0.09029 0.50876 0.0
O23 O 0.58816 0.09432 0.52333 0.0
C24 C 0.46214 0.89672 0.49141 0.0
O25 O 0.48567 0.89376 0.48357 0.0
O26 O 0.51806 0.08057 0.50241 0.0
O27 O 0.49966 0.00614 0.48693 0.0
O28 O 0.533 0.98531 0.48283 0.0
C29 C 0.52661 0.09686 0.48942 0.0
O30 O 0.53965 0.08716 0.47724 0.0
O31 O 0.57854 0.06723 0.49792 0.0
C32 C 0.54453 0.9201 0.51714 0.0
O33 O 0.52739 0.92184 0.52982 0.0
O34 O 0.5457 0.93537 0.50428 0.0
O35 O 0.52652 0.98451 0.52667 0.0
O36 O 0.52646 0.03296 0.52772 0.0
O37 O 0.47042 0.92377 0.50057 0.0
C38 C 0.51648 0.99823 0.47708 0.0
C39 C 0.52757 0.00972 0.53498 0.0
Zn40 Zn 0.55554 0.52336 0.83492 0.0
Zn41 Zn 0.48186 0.51988 0.83382 0.0
C42 C 0.55815 0.46444 0.84026 0.0
O43 O 0.58212 0.48722 0.85087 0.0
C44 C 0.50068 0.58331 0.82125 0.0
O45 O 0.48009 0.56234 0.80892 0.0
O46 O 0.60572 0.54776 0.83376 0.0
O47 O 0.54053 0.53868 0.81522 0.0
O48 O 0.48821 0.49756 0.81273 0.0
C49 C 0.61736 0.5451 0.81976 0.0
O50 O 0.59623 0.52687 0.807 0.0
O51 O 0.54101 0.47337 0.83146 0.0
C52 C 0.42789 0.5274 0.84337 0.0
O53 O 0.45211 0.54884 0.85428 0.0
O54 O 0.43383 0.50919 0.83288 0.0
O55 O 0.48946 0.50651 0.85615 0.0
O56 O 0.54521 0.53237 0.85847 0.0
O57 O 0.50783 0.57122 0.83352 0.0
C58 C 0.5154 0.51669 0.80599 0.0
C59 C 0.51679 0.51849 0.86507 0.0
C60 C 0.52787 0.08294 0.29569 0.0
C61 C 0.52615 0.0552 0.30307 0.0
C62 C 0.52186 0.08132 0.27838 0.0
C63 C 0.51369 0.05182 0.26816 0.0
C64 C 0.51237 0.02425 0.27552 0.0
C65 C 0.51864 0.02596 0.29279 0.0
C66 C 0.50612 0.04957 0.24989 0.0
C67 C 0.52695 0.07609 0.2403 0.0
C68 C 0.52024 0.07382 0.22292 0.0
C69 C 0.49211 0.0448 0.21519 0.0
C70 C 0.471 0.0181 0.22463 0.0
C71 C 0.47819 0.02066 0.24196 0.0
C72 C 0.44166 0.98733 0.21637 0.0
C73 C 0.42002 0.98981 0.20464 0.0
C74 C 0.43511 0.95524 0.2202 0.0
C75 C 0.40741 0.92618 0.21251 0.0
C76 C 0.38564 0.92861 0.20086 0.0
C77 C 0.54349 0.10121 0.2128 0.0
C78 C 0.55649 0.13515 0.21876 0.0
C79 C 0.55416 0.09363 0.19755 0.0
C80 C 0.57841 0.11948 0.18879 0.0
C81 C 0.59237 0.15339 0.1951 0.0
C82 C 0.58067 0.16096 0.21001 0.0
C83 C 0.3922 0.96071 0.197 0.0
H84 H 0.53377 0.10584 0.30332 0.0
H85 H 0.52289 0.10289 0.27304 0.0
H86 H 0.50647 0.00132 0.26791 0.0
H87 H 0.51678 0.00406 0.29816 0.0
H88 H 0.54911 0.09803 0.24631 0.0
H89 H 0.46163 0.00035 0.24936 0.0
H90 H 0.48684 0.04285 0.20178 0.0
H91 H 0.42436 0.01425 0.20155 0.0
H92 H 0.45156 0.95259 0.22908 0.0
H93 H 0.40276 0.90178 0.21587 0.0
H94 H 0.54842 0.14174 0.23038 0.0
H95 H 0.54473 0.06767 0.1927 0.0
H96 H 0.37594 0.9633 0.18798 0.0
H97 H 0.59121 0.1868 0.21533 0.0
H98 H 0.58675 0.1129 0.17727 0.0
C99 C 0.56318 0.54348 0.62025 0.0
C100 C 0.5789 0.53224 0.63129 0.0
C101 C 0.57265 0.54849 0.6037 0.0
C102 C 0.59808 0.5424 0.59782 0.0
C103 C 0.61404 0.5315 0.60891 0.0
C104 C 0.60455 0.52648 0.62545 0.0
C105 C 0.60724 0.5464 0.58005 0.0
C106 C 0.60982 0.57371 0.57193 0.0
C107 C 0.61722 0.57674 0.55495 0.0
C108 C 0.62232 0.55239 0.54604 0.0
C109 C 0.6192 0.52455 0.55389 0.0
C110 C 0.61195 0.52196 0.57093 0.0
C111 C 0.62016 0.49641 0.54409 0.0
C112 C 0.60297 0.48394 0.52824 0.0
C113 C 0.63522 0.4796 0.55124 0.0
C114 C 0.63116 0.44968 0.54328 0.0
C115 C 0.61217 0.43612 0.52796 0.0
C116 C 0.61738 0.60423 0.54629 0.0
C117 C 0.58945 0.60901 0.54703 0.0
C118 C 0.64518 0.62582 0.53738 0.0
C119 C 0.64538 0.65247 0.52971 0.0
C120 C 0.61744 0.65728 0.53055 0.0
C121 C 0.58939 0.63516 0.53914 0.0
C122 C 0.5991 0.4541 0.52022 0.0
H123 H 0.54304 0.54773 0.62431 0.0
H124 H 0.5595 0.55637 0.59539 0.0
H125 H 0.63403 0.52704 0.60481 0.0
H126 H 0.61755 0.51837 0.63373 0.0
H127 H 0.60615 0.59274 0.5788 0.0
H128 H 0.6082 0.49991 0.5769 0.0
H129 H 0.62758 0.55456 0.53287 0.0
H130 H 0.59077 0.49609 0.52247 0.0
H131 H 0.64917 0.48896 0.56329 0.0
H132 H 0.64193 0.43652 0.54936 0.0
H133 H 0.56765 0.59249 0.55373 0.0
H134 H 0.66698 0.62252 0.53668 0.0
H135 H 0.58415 0.44404 0.50847 0.0
H136 H 0.56776 0.63869 0.54017 0.0
H137 H 0.66731 0.66936 0.5232 0.0
C138 C 0.04503 0.55754 0.94606 0.0
C139 C 0.01352 0.53566 0.95221 0.0
C140 C 0.04801 0.56257 0.929 0.0
C141 C 0.0195 0.54599 0.91777 0.0
C142 C 0.988 0.52406 0.92392 0.0
C143 C 0.98506 0.51886 0.94097 0.0
C144 C 0.02258 0.55165 0.8997 0.0
C145 C 0.04902 0.55169 0.89106 0.0
C146 C 0.05214 0.55707 0.87394 0.0
C147 C 0.02827 0.56212 0.8654 0.0
C148 C 0.00175 0.56241 0.87389 0.0
C149 C 0.9992 0.55723 0.89106 0.0
C150 C 0.97692 0.5686 0.865 0.0
C151 C 0.98718 0.59262 0.85306 0.0
C152 C 0.94277 0.55105 0.86875 0.0
C153 C 0.91966 0.55814 0.86121 0.0
C154 C 0.93008 0.58257 0.84958 0.0
C155 C 0.08058 0.5576 0.86512 0.0
C156 C 0.11318 0.57494 0.87287 0.0
C157 C 0.07532 0.54014 0.84922 0.0
C158 C 0.10206 0.53923 0.84146 0.0
C159 C 0.13451 0.55595 0.84943 0.0
C160 C 0.13982 0.57408 0.86513 0.0
C161 C 0.96387 0.59937 0.84533 0.0
H162 H 0.06744 0.57059 0.95442 0.0
H163 H 0.07256 0.57981 0.92462 0.0
H164 H 0.96566 0.51073 0.91552 0.0
H165 H 0.96041 0.50206 0.94539 0.0
H166 H 0.06684 0.54684 0.89761 0.0
H167 H 0.97949 0.55841 0.89788 0.0
H168 H 0.0305 0.56603 0.85216 0.0
H169 H 0.01336 0.60687 0.85002 0.0
H170 H 0.93382 0.53183 0.87756 0.0
H171 H 0.89354 0.54443 0.86445 0.0
H172 H 0.11806 0.58893 0.88503 0.0
H173 H 0.05037 0.5264 0.84301 0.0
H174 H 0.9724 0.61837 0.8364 0.0
H175 H 0.16438 0.58672 0.87175 0.0
H176 H 0.09728 0.52513 0.82934 0.0
C177 C 0.97709 0.49797 0.37767 0.0
C178 C 0.00342 0.50005 0.36806 0.0
C179 C 0.97865 0.49684 0.39507 0.0
C180 C 0.00679 0.49826 0.40318 0.0
C181 C 0.03315 0.50044 0.39357 0.0
C182 C 0.03139 0.50114 0.37617 0.0
C183 C 0.00883 0.49763 0.42165 0.0
C184 C 0.98159 0.4734 0.42984 0.0
C185 C 0.98349 0.47213 0.44734 0.0
C186 C 0.01342 0.49585 0.45667 0.0
C187 C 0.04106 0.52029 0.44854 0.0
C188 C 0.03832 0.52095 0.43106 0.0
C189 C 0.07312 0.54554 0.45789 0.0
C190 C 0.07326 0.56459 0.47245 0.0
C191 C 0.10408 0.55293 0.45124 0.0
C192 C 0.13429 0.57988 0.45834 0.0
C193 C 0.13454 0.6001 0.47245 0.0
C194 C 0.95444 0.44486 0.45537 0.0
C195 C 0.92122 0.43505 0.44991 0.0
C196 C 0.95943 0.42638 0.46732 0.0
C197 C 0.93189 0.3977 0.47296 0.0
C198 C 0.8989 0.38687 0.46668 0.0
C199 C 0.89384 0.40633 0.45542 0.0
C200 C 0.10368 0.59168 0.47964 0.0
H201 H 0.95516 0.49691 0.3717 0.0
H202 H 0.95809 0.49534 0.40221 0.0
H203 H 0.05501 0.50132 0.39951 0.0
H204 H 0.05216 0.50302 0.36908 0.0
H205 H 0.95923 0.4547 0.42242 0.0
H206 H 0.05912 0.54015 0.42473 0.0
H207 H 0.01533 0.49514 0.47013 0.0
H208 H 0.04978 0.55952 0.47783 0.0
H209 H 0.10485 0.53846 0.44014 0.0
H210 H 0.15733 0.58571 0.45226 0.0
H211 H 0.9164 0.44915 0.44101 0.0
H212 H 0.98467 0.4331 0.4717 0.0
H213 H 0.10295 0.60641 0.49063 0.0
H214 H 0.86865 0.39903 0.45065 0.0
H215 H 0.93652 0.38314 0.48166 0.0
C216 C 0.51601 0.9937 0.72282 0.0
C217 C 0.53887 0.023 0.71542 0.0
C218 C 0.51464 0.99367 0.74025 0.0
C219 C 0.53624 0.0229 0.75071 0.0
C220 C 0.5592 0.05221 0.74329 0.0
C221 C 0.56043 0.05228 0.72584 0.0
C222 C 0.53464 0.0228 0.76927 0.0
C223 C 0.53001 0.99462 0.77727 0.0
C224 C 0.52784 0.99388 0.79476 0.0
C225 C 0.53051 0.02208 0.80443 0.0
C226 C 0.53531 0.05064 0.79655 0.0
C227 C 0.53736 0.0507 0.77904 0.0
C228 C 0.53751 0.08066 0.80605 0.0
C229 C 0.50993 0.0782 0.81465 0.0
C230 C 0.56537 0.11277 0.80437 0.0
C231 C 0.56518 0.14192 0.81053 0.0
C232 C 0.5369 0.1397 0.81834 0.0
C233 C 0.52337 0.96334 0.80241 0.0
C234 C 0.49816 0.93124 0.79563 0.0
C235 C 0.54675 0.9656 0.81473 0.0
C236 C 0.54627 0.93631 0.81931 0.0
C237 C 0.52232 0.90429 0.81167 0.0
C238 C 0.49756 0.90212 0.80024 0.0
C239 C 0.50952 0.10748 0.82064 0.0
H240 H 0.4987 0.97091 0.7151 0.0
H241 H 0.49623 0.97085 0.74552 0.0
H242 H 0.57654 0.07501 0.75098 0.0
H243 H 0.57858 0.07513 0.72049 0.0
H244 H 0.52882 0.9733 0.76987 0.0
H245 H 0.54017 0.07235 0.77298 0.0
H246 H 0.52881 0.0218 0.81793 0.0
H247 H 0.48799 0.05372 0.81591 0.0
H248 H 0.58681 0.1153 0.79766 0.0
H249 H 0.58651 0.16627 0.80839 0.0
H250 H 0.47962 0.92876 0.78622 0.0
H251 H 0.56661 0.99006 0.82006 0.0
H252 H 0.48748 0.10495 0.82671 0.0
H253 H 0.4782 0.87787 0.79443 0.0
H254 H 0.56575 0.93894 0.82814 0.0
C255 C 0.51222 0.48227 0.05303 0.0
C256 C 0.50322 0.50196 0.04386 0.0
C257 C 0.51234 0.48441 0.07057 0.0
C258 C 0.50371 0.5065 0.07931 0.0
C259 C 0.49476 0.52619 0.07007 0.0
C260 C 0.4944 0.52385 0.05257 0.0
C261 C 0.50463 0.50966 0.09799 0.0
C262 C 0.53052 0.50959 0.10747 0.0
C263 C 0.53248 0.51403 0.12509 0.0
C264 C 0.50821 0.5193 0.13336 0.0
C265 C 0.48175 0.51928 0.12398 0.0
C266 C 0.4801 0.5138 0.10637 0.0
C267 C 0.45523 0.52462 0.13199 0.0
C268 C 0.43961 0.50871 0.14638 0.0
C269 C 0.443 0.54332 0.12412 0.0
C270 C 0.41452 0.54397 0.12961 0.0
C271 C 0.39792 0.52671 0.1434 0.0
C272 C 0.56088 0.51379 0.13424 0.0
C273 C 0.5673 0.4872 0.13041 0.0
C274 C 0.58449 0.54198 0.14469 0.0
C275 C 0.61487 0.54435 0.15033 0.0
C276 C 0.62209 0.51844 0.14574 0.0
C277 C 0.5974 0.48943 0.1361 0.0
C278 C 0.41126 0.5099 0.15209 0.0
H279 H 0.51884 0.46495 0.04663 0.0
H280 H 0.51892 0.46856 0.07727 0.0
H281 H 0.48865 0.54398 0.07637 0.0
H282 H 0.48791 0.53976 0.04585 0.0
H283 H 0.54998 0.50704 0.1011 0.0
H284 H 0.45923 0.51232 0.09906 0.0
H285 H 0.50995 0.52339 0.14692 0.0
H286 H 0.44826 0.49405 0.15274 0.0
H287 H 0.45487 0.55671 0.1133 0.0
H288 H 0.40504 0.55755 0.12287 0.0
H289 H 0.54957 0.4652 0.12233 0.0
H290 H 0.58032 0.56297 0.14772 0.0
H291 H 0.39887 0.49647 0.16281 0.0
H292 H 0.60204 0.46911 0.13213 0.0
H293 H 0.63311 0.56688 0.15791 0.0
H294 H 0.15904 0.58057 0.18975 0.0
H295 H 0.2084 0.57432 0.18581 0.0
H296 H 0.15469 0.49782 0.14505 0.0
H297 H 0.10486 0.5038 0.14901 0.0
H298 H 0.19075 0.47998 0.16376 0.0
H299 H 0.21068 0.57745 0.13825 0.0
H300 H 0.21691 0.63319 0.13471 0.0
H301 H 0.30021 0.67949 0.17136 0.0
H302 H 0.29357 0.62382 0.17571 0.0
H303 H 0.33982 0.4995 0.12399 0.0
H304 H 0.28772 0.49998 0.13025 0.0
H305 H 0.33203 0.55218 0.17877 0.0
H306 H 0.38401 0.55082 0.17271 0.0
H307 H 0.30099 0.58162 0.15599 0.0
H308 H 0.27696 0.47886 0.1807 0.0
H309 H 0.27128 0.42242 0.18026 0.0
H310 H 0.1962 0.3863 0.13957 0.0
H311 H 0.2018 0.4427 0.1396 0.0
C312 C 0.1575 0.56216 0.18003 0.0
C313 C 0.12789 0.54273 0.16967 0.0
C314 C 0.18591 0.55875 0.17773 0.0
C315 C 0.18555 0.53592 0.16498 0.0
C316 C 0.15567 0.51566 0.15496 0.0
C317 C 0.12718 0.51912 0.15722 0.0
C318 C 0.21656 0.53377 0.16195 0.0
C319 C 0.21474 0.50223 0.16193 0.0
C320 C 0.24807 0.56277 0.15956 0.0
C321 C 0.25129 0.59624 0.15749 0.0
C322 C 0.22991 0.59937 0.14582 0.0
C323 C 0.23353 0.631 0.14365 0.0
C324 C 0.25886 0.65984 0.15285 0.0
C325 C 0.28052 0.65709 0.16428 0.0
C326 C 0.27671 0.62547 0.16668 0.0
C327 C 0.33823 0.51069 0.13607 0.0
C328 C 0.3658 0.52504 0.1479 0.0
C329 C 0.30852 0.51095 0.13963 0.0
C330 C 0.30601 0.52611 0.15496 0.0
C331 C 0.33347 0.54032 0.16687 0.0
C332 C 0.36301 0.53941 0.16345 0.0
C333 C 0.27514 0.52815 0.1582 0.0
C334 C 0.27698 0.5596 0.15806 0.0
C335 C 0.24357 0.49905 0.16001 0.0
C336 C 0.24006 0.4651 0.16004 0.0
C337 C 0.25947 0.45897 0.17155 0.0
C338 C 0.25621 0.42697 0.1714 0.0
C339 C 0.23346 0.40081 0.15987 0.0
C340 C 0.21385 0.40659 0.14848 0.0
C341 C 0.21703 0.43856 0.14857 0.0
H342 H 0.23097 0.37605 0.15977 0.0
H343 H 0.26179 0.68434 0.15107 0.0
H344 H 0.62373 0.10346 0.4774 0.0
H345 H 0.67698 0.15163 0.4702 0.0
H346 H 0.70487 0.1832 0.5228 0.0
H347 H 0.65143 0.1358 0.53005 0.0
H348 H 0.71305 0.23446 0.50647 0.0
H349 H 0.74364 0.14825 0.49756 0.0
H350 H 0.73637 0.09404 0.48531 0.0
H351 H 0.74077 0.12625 0.43576 0.0
H352 H 0.74766 0.1805 0.44771 0.0
H353 H 0.88268 0.3638 0.49789 0.0
H354 H 0.83366 0.31094 0.50498 0.0
H355 H 0.80099 0.28425 0.45258 0.0
H356 H 0.8498 0.33688 0.44545 0.0
H357 H 0.79586 0.23024 0.46852 0.0
H358 H 0.76481 0.31487 0.47642 0.0
H359 H 0.77011 0.36881 0.4875 0.0
H360 H 0.76315 0.33901 0.53771 0.0
H361 H 0.75905 0.28527 0.52696 0.0
C362 C 0.64151 0.1203 0.48743 0.0
C363 C 0.63334 0.11586 0.5043 0.0
C364 C 0.67197 0.14781 0.48329 0.0
C365 C 0.69506 0.17101 0.49595 0.0
C366 C 0.68744 0.16577 0.51281 0.0
C367 C 0.65692 0.13854 0.51694 0.0
C368 C 0.72612 0.20193 0.49172 0.0
C369 C 0.73148 0.23346 0.49843 0.0
C370 C 0.74956 0.20077 0.48071 0.0
C371 C 0.74588 0.16833 0.47353 0.0
C372 C 0.74286 0.14369 0.48405 0.0
C373 C 0.73884 0.11297 0.47716 0.0
C374 C 0.73805 0.10668 0.45977 0.0
C375 C 0.74143 0.13116 0.44923 0.0
C376 C 0.74543 0.16192 0.45606 0.0
C377 C 0.86513 0.34653 0.4879 0.0
C378 C 0.86988 0.35459 0.47114 0.0
C379 C 0.83712 0.31644 0.49195 0.0
C380 C 0.81359 0.29377 0.4793 0.0
C381 C 0.81881 0.30137 0.46253 0.0
C382 C 0.84653 0.33157 0.4585 0.0
C383 C 0.78298 0.26257 0.48354 0.0
C384 C 0.7776 0.23112 0.47672 0.0
C385 C 0.75933 0.26376 0.49434 0.0
C386 C 0.76212 0.2962 0.50089 0.0
C387 C 0.76489 0.31997 0.48985 0.0
C388 C 0.76761 0.3505 0.49607 0.0
C389 C 0.76694 0.35734 0.5133 0.0
C390 C 0.76371 0.3337 0.52436 0.0
C391 C 0.7613 0.30323 0.51821 0.0
H392 H 0.76885 0.38093 0.51808 0.0
H393 H 0.73488 0.08286 0.45445 0.0
H394 H 0.49839 0.61765 0.79526 0.0
H395 H 0.50971 0.6757 0.79627 0.0
H396 H 0.53767 0.68955 0.84914 0.0
H397 H 0.5263 0.63112 0.84822 0.0
H398 H 0.49259 0.71094 0.84202 0.0
H399 H 0.59762 0.72932 0.82236 0.0
H400 H 0.63544 0.71889 0.80448 0.0
H401 H 0.59442 0.73899 0.76101 0.0
H402 H 0.55598 0.74907 0.7786 0.0
H403 H 0.53628 0.88506 0.84135 0.0
H404 H 0.53973 0.83424 0.84547 0.0
H405 H 0.51623 0.80314 0.79259 0.0
H406 H 0.51374 0.85397 0.78833 0.0
H407 H 0.56619 0.79413 0.80324 0.0
H408 H 0.45662 0.76816 0.82201 0.0
H409 H 0.41711 0.77694 0.83936 0.0
H410 H 0.46569 0.77007 0.88403 0.0
H411 H 0.50579 0.76168 0.86694 0.0
C412 C 0.50739 0.63312 0.80707 0.0
C413 C 0.5115 0.61974 0.82165 0.0
C414 C 0.51395 0.6664 0.80762 0.0
C415 C 0.52473 0.68711 0.82276 0.0
C416 C 0.52944 0.67406 0.83732 0.0
C417 C 0.52316 0.64075 0.83674 0.0
C418 C 0.5293 0.7217 0.82337 0.0
C419 C 0.50926 0.72945 0.83382 0.0
C420 C 0.55055 0.74563 0.81244 0.0
C421 C 0.57373 0.73973 0.8018 0.0
C422 C 0.59647 0.73128 0.80897 0.0
C423 C 0.61806 0.72547 0.79889 0.0
C424 C 0.6173 0.72822 0.78162 0.0
C425 C 0.59498 0.73686 0.7744 0.0
C426 C 0.57332 0.74267 0.78442 0.0
C427 C 0.53204 0.86747 0.8306 0.0
C428 C 0.52435 0.87348 0.81454 0.0
C429 C 0.5338 0.83831 0.83299 0.0
C430 C 0.52794 0.81463 0.81936 0.0
C431 C 0.5208 0.82092 0.80332 0.0
C432 C 0.519 0.84989 0.80094 0.0
C433 C 0.52889 0.78307 0.8216 0.0
C434 C 0.54996 0.77588 0.81166 0.0
C435 C 0.50847 0.7596 0.83294 0.0
C436 C 0.48446 0.76474 0.84322 0.0
C437 C 0.45907 0.76883 0.83554 0.0
C438 C 0.43653 0.77367 0.84533 0.0
C439 C 0.43896 0.77418 0.86279 0.0
C440 C 0.46389 0.76975 0.87051 0.0
C441 C 0.48652 0.76494 0.86078 0.0
H442 H 0.42148 0.77792 0.87035 0.0
H443 H 0.63403 0.72371 0.77383 0.0
H444 H 0.87427 0.48331 0.12471 0.0
H445 H 0.8273 0.49377 0.1268 0.0
H446 H 0.86996 0.55162 0.17441 0.0
H447 H 0.91702 0.54039 0.1726 0.0
H448 H 0.80455 0.50979 0.17643 0.0
H449 H 0.87076 0.58985 0.13796 0.0
H450 H 0.90353 0.6097 0.11284 0.0
H451 H 0.81599 0.54139 0.08114 0.0
H452 H 0.78281 0.52075 0.10605 0.0
H453 H 0.68435 0.57523 0.14486 0.0
H454 H 0.73977 0.58005 0.14831 0.0
H455 H 0.69226 0.47511 0.15801 0.0
H456 H 0.63688 0.47043 0.15519 0.0
H457 H 0.76539 0.55006 0.12975 0.0
H458 H 0.74469 0.46049 0.18199 0.0
H459 H 0.71349 0.44332 0.20773 0.0
H460 H 0.71334 0.53706 0.21343 0.0
H461 H 0.74498 0.55503 0.18786 0.0
C462 C 0.87401 0.49861 0.13558 0.0
C463 C 0.89959 0.51109 0.14847 0.0
C464 C 0.84707 0.50471 0.13671 0.0
C465 C 0.84511 0.52385 0.15067 0.0
C466 C 0.87089 0.53685 0.16348 0.0
C467 C 0.89793 0.53063 0.16238 0.0
C468 C 0.81537 0.52887 0.15205 0.0
C469 C 0.79612 0.51881 0.16626 0.0
C470 C 0.80446 0.54109 0.13892 0.0
C471 C 0.82433 0.55364 0.1239 0.0
C472 C 0.85855 0.57891 0.12563 0.0
C473 C 0.87719 0.59031 0.11143 0.0
C474 C 0.86184 0.5768 0.09541 0.0
C475 C 0.82783 0.55185 0.09356 0.0
C476 C 0.80908 0.54033 0.10771 0.0
C477 C 0.68566 0.55338 0.14816 0.0
C478 C 0.65598 0.52242 0.14973 0.0
C479 C 0.71744 0.55609 0.14996 0.0
C480 C 0.7204 0.52802 0.15348 0.0
C481 C 0.69086 0.49732 0.15551 0.0
C482 C 0.65909 0.49459 0.15373 0.0
C483 C 0.75407 0.53016 0.15394 0.0
C484 C 0.774 0.54143 0.14002 0.0
C485 C 0.76575 0.5194 0.16742 0.0
C486 C 0.74697 0.50897 0.18291 0.0
C487 C 0.73814 0.47751 0.18877 0.0
C488 C 0.72035 0.46762 0.20333 0.0
C489 C 0.71135 0.48904 0.21218 0.0
C490 C 0.72022 0.52044 0.20652 0.0
C491 C 0.73804 0.53047 0.19198 0.0
H492 H 0.69756 0.48133 0.22344 0.0
H493 H 0.87626 0.5857 0.08442 0.0
H494 H 0.40568 0.89543 0.50351 0.0
H495 H 0.34807 0.84724 0.50211 0.0
H496 H 0.38188 0.78491 0.47597 0.0
H497 H 0.43902 0.83299 0.47688 0.0
H498 H 0.32545 0.77271 0.46171 0.0
H499 H 0.36535 0.78161 0.51883 0.0
H500 H 0.38927 0.81018 0.54697 0.0
H501 H 0.30551 0.82651 0.5538 0.0
H502 H 0.28131 0.79841 0.52559 0.0
H503 H 0.19812 0.60833 0.47471 0.0
H504 H 0.25153 0.66119 0.47998 0.0
H505 H 0.19792 0.71492 0.49007 0.0
H506 H 0.14412 0.66233 0.48407 0.0
H507 H 0.26085 0.73383 0.51273 0.0
H508 H 0.22075 0.72196 0.45505 0.0
H509 H 0.19745 0.69056 0.42738 0.0
H510 H 0.28356 0.67751 0.42227 0.0
H511 H 0.3071 0.70835 0.45007 0.0
C512 C 0.40078 0.87146 0.49742 0.0
C513 C 0.42698 0.86806 0.49032 0.0
C514 C 0.36786 0.84387 0.49671 0.0
C515 C 0.36062 0.81224 0.48912 0.0
C516 C 0.38673 0.809 0.48188 0.0
C517 C 0.41948 0.83657 0.48244 0.0
C518 C 0.32595 0.7824 0.48851 0.0
C519 C 0.31155 0.76419 0.47293 0.0
C520 C 0.3073 0.77148 0.50305 0.0
C521 C 0.32173 0.78825 0.52003 0.0
C522 C 0.35217 0.79153 0.52629 0.0
C523 C 0.36575 0.80759 0.54226 0.0
C524 C 0.34897 0.82025 0.55215 0.0
C525 C 0.31851 0.81676 0.54611 0.0
C526 C 0.30484 0.80074 0.53014 0.0
C527 C 0.19753 0.6313 0.47809 0.0
C528 C 0.16669 0.63104 0.47866 0.0
C529 C 0.22813 0.66144 0.48124 0.0
C530 C 0.22859 0.69191 0.48527 0.0
C531 C 0.19801 0.69158 0.48702 0.0
C532 C 0.16728 0.66143 0.48364 0.0
C533 C 0.26101 0.72423 0.48604 0.0
C534 C 0.27483 0.74276 0.50158 0.0
C535 C 0.27939 0.73534 0.47151 0.0
C536 C 0.26551 0.71716 0.45471 0.0
C537 C 0.23457 0.71213 0.44809 0.0
C538 C 0.22134 0.69448 0.43238 0.0
C539 C 0.23897 0.68197 0.42309 0.0
C540 C 0.26991 0.68718 0.42949 0.0
C541 C 0.28322 0.70476 0.44522 0.0
H542 H 0.22869 0.66832 0.41092 0.0
H543 H 0.35953 0.83268 0.56451 0.0
H544 H 0.50476 0.4072 0.82405 0.0
H545 H 0.49729 0.35008 0.82088 0.0
H546 H 0.5922 0.38631 0.84855 0.0
H547 H 0.59962 0.44291 0.85196 0.0
H548 H 0.58515 0.34751 0.81837 0.0
H549 H 0.52352 0.34201 0.86765 0.0
H550 H 0.48016 0.34667 0.88362 0.0
H551 H 0.40261 0.27139 0.84891 0.0
H552 H 0.4456 0.26654 0.83261 0.0
H553 H 0.58622 0.19958 0.83412 0.0
H554 H 0.58606 0.25281 0.83841 0.0
H555 H 0.48433 0.20423 0.81661 0.0
H556 H 0.48421 0.15072 0.8125 0.0
H557 H 0.49185 0.2483 0.84225 0.0
H558 H 0.55205 0.25171 0.79345 0.0
H559 H 0.59469 0.24691 0.77687 0.0
H560 H 0.67387 0.32638 0.80931 0.0
H561 H 0.63167 0.33131 0.82624 0.0
C562 C 0.52395 0.40292 0.82949 0.0
C563 C 0.55276 0.42962 0.83827 0.0
C564 C 0.51961 0.37028 0.82771 0.0
C565 C 0.54419 0.36395 0.83452 0.0
C566 C 0.57295 0.39061 0.84319 0.0
C567 C 0.57707 0.42297 0.84517 0.0
C568 C 0.54056 0.32979 0.83243 0.0
C569 C 0.56493 0.32588 0.82372 0.0
C570 C 0.51365 0.30138 0.83901 0.0
C571 C 0.48779 0.30421 0.8488 0.0
C572 C 0.49725 0.32667 0.86333 0.0
C573 C 0.47274 0.3293 0.87246 0.0
C574 C 0.43866 0.30944 0.86725 0.0
C575 C 0.42902 0.28681 0.85292 0.0
C576 C 0.45344 0.28408 0.84373 0.0
C577 C 0.56372 0.20017 0.83036 0.0
C578 C 0.53533 0.17096 0.82285 0.0
C579 C 0.56367 0.23065 0.83278 0.0
C580 C 0.53544 0.2328 0.8275 0.0
C581 C 0.50646 0.2033 0.82073 0.0
C582 C 0.5064 0.17268 0.81844 0.0
C583 C 0.53681 0.26607 0.8284 0.0
C584 C 0.51199 0.26984 0.83682 0.0
C585 C 0.56319 0.2944 0.82142 0.0
C586 C 0.58867 0.29166 0.8112 0.0
C587 C 0.57855 0.268 0.79712 0.0
C588 C 0.60264 0.26527 0.78765 0.0
C589 C 0.63696 0.28627 0.79206 0.0
C590 C 0.64727 0.3101 0.80592 0.0
C591 C 0.62328 0.31289 0.81545 0.0
H592 H 0.65558 0.28413 0.78471 0.0
H593 H 0.41973 0.31152 0.87434 0.0
H594 H 0.55604 0.89312 0.54402 0.0
H595 H 0.57633 0.85296 0.54392 0.0
H596 H 0.58591 0.85623 0.49036 0.0
H597 H 0.56659 0.89725 0.49047 0.0
H598 H 0.54655 0.79226 0.52957 0.0
H599 H 0.64476 0.83466 0.47849 0.0
H600 H 0.68692 0.88723 0.46701 0.0
H601 H 0.69621 0.94347 0.5139 0.0
H602 H 0.65446 0.8912 0.52572 0.0
H603 H 0.56994 0.65675 0.50953 0.0
H604 H 0.56465 0.70546 0.5032 0.0
H605 H 0.65983 0.7722 0.53036 0.0
H606 H 0.66558 0.72353 0.53636 0.0
H607 H 0.64914 0.8023 0.50421 0.0
H608 H 0.58946 0.74168 0.55087 0.0
H609 H 0.55018 0.69069 0.56443 0.0
H610 H 0.4689 0.67583 0.53093 0.0
H611 H 0.50788 0.72644 0.51698 0.0
C612 C 0.5629 0.88564 0.53226 0.0
C613 C 0.55961 0.89822 0.51725 0.0
C614 C 0.57446 0.86266 0.53221 0.0
C615 C 0.58272 0.85163 0.51714 0.0
C616 C 0.58022 0.86478 0.50218 0.0
C617 C 0.56903 0.88811 0.50226 0.0
C618 C 0.59142 0.82451 0.517 0.0
C619 C 0.56903 0.79459 0.52402 0.0
C620 C 0.6208 0.8275 0.50983 0.0
C621 C 0.64622 0.85905 0.50292 0.0
C622 C 0.65589 0.85823 0.48636 0.0
C623 C 0.6797 0.88798 0.4798 0.0
C624 C 0.69415 0.91868 0.4897 0.0
C625 C 0.6849 0.91969 0.50621 0.0
C626 C 0.66112 0.89002 0.51284 0.0
C627 C 0.59013 0.68192 0.51372 0.0
C628 C 0.61793 0.68652 0.52361 0.0
C629 C 0.58713 0.70966 0.5101 0.0
C630 C 0.61151 0.7423 0.51663 0.0
C631 C 0.64073 0.74719 0.52524 0.0
C632 C 0.64397 0.71942 0.52868 0.0
C633 C 0.60416 0.77029 0.51668 0.0
C634 C 0.62667 0.80016 0.50966 0.0
C635 C 0.57526 0.7677 0.5242 0.0
C636 C 0.55164 0.73764 0.53278 0.0
C637 C 0.56325 0.72742 0.54634 0.0
C638 C 0.54105 0.69859 0.55409 0.0
C639 C 0.50708 0.67999 0.54852 0.0
C640 C 0.49523 0.69024 0.53522 0.0
C641 C 0.51736 0.71899 0.52738 0.0
H642 H 0.48992 0.65767 0.55454 0.0
H643 H 0.71256 0.94169 0.48459 0.0
H644 H 0.66725 0.57862 0.84443 0.0
H645 H 0.72704 0.59782 0.84248 0.0
H646 H 0.71051 0.56496 0.78961 0.0
H647 H 0.65032 0.54529 0.79152 0.0
H648 H 0.74349 0.54014 0.80508 0.0
H649 H 0.7588 0.64931 0.80256 0.0
H650 H 0.75145 0.69825 0.80998 0.0
H651 H 0.7967 0.71052 0.85923 0.0
H652 H 0.80388 0.66135 0.85222 0.0
H653 H 0.91585 0.5836 0.8164 0.0
H654 H 0.86982 0.59015 0.80451 0.0
H655 H 0.84335 0.60604 0.85453 0.0
H656 H 0.88898 0.59943 0.86637 0.0
H657 H 0.83794 0.64761 0.8318 0.0
H658 H 0.80567 0.52911 0.83597 0.0
H659 H 0.81137 0.47892 0.82925 0.0
H660 H 0.79703 0.48474 0.77666 0.0
H661 H 0.7917 0.5353 0.78309 0.0
C662 C 0.67637 0.57596 0.83232 0.0
C663 C 0.65403 0.5601 0.81816 0.0
C664 C 0.71065 0.58723 0.83118 0.0
C665 C 0.72333 0.58318 0.81585 0.0
C666 C 0.70127 0.56845 0.80154 0.0
C667 C 0.6669 0.55713 0.80267 0.0
C668 C 0.7587 0.59066 0.81545 0.0
C669 C 0.76436 0.56406 0.81041 0.0
C670 C 0.78587 0.62174 0.82253 0.0
C671 C 0.7818 0.65152 0.82685 0.0
C672 C 0.76701 0.66231 0.81501 0.0
C673 C 0.76289 0.69012 0.81914 0.0
C674 C 0.77359 0.70747 0.83507 0.0
C675 C 0.78847 0.69708 0.84689 0.0
C676 C 0.79263 0.66927 0.84282 0.0
C677 C 0.90055 0.58917 0.82478 0.0
C678 C 0.9055 0.59064 0.84226 0.0
C679 C 0.87438 0.5929 0.81801 0.0
C680 C 0.85321 0.59843 0.82868 0.0
C681 C 0.85953 0.60192 0.84611 0.0
C682 C 0.88533 0.59784 0.85285 0.0
C683 C 0.82207 0.59669 0.82207 0.0
C684 C 0.81726 0.62428 0.82584 0.0
C685 C 0.79561 0.56654 0.81382 0.0
C686 C 0.79879 0.53621 0.80998 0.0
C687 C 0.80404 0.51985 0.82297 0.0
C688 C 0.80715 0.49132 0.81922 0.0
C689 C 0.80469 0.47872 0.80253 0.0
C690 C 0.79903 0.49459 0.78957 0.0
C691 C 0.79598 0.52318 0.79326 0.0
H692 H 0.80707 0.45661 0.79965 0.0
H693 H 0.77037 0.72899 0.83824 0.0
H694 H 0.15905 0.63293 0.14104 0.0
H695 H 0.20819 0.68935 0.14708 0.0
H696 H 0.14428 0.72554 0.16749 0.0
H697 H 0.09496 0.66881 0.1619 0.0
H698 H 0.20005 0.7707 0.14549 0.0
H699 H 0.1751 0.7058 0.19333 0.0
H700 H 0.16275 0.65549 0.20783 0.0
H701 H 0.26026 0.66948 0.19719 0.0
H702 H 0.2727 0.71911 0.18191 0.0
H703 H 0.32128 0.91674 0.19633 0.0
H704 H 0.27157 0.86448 0.18479 0.0
H705 H 0.33305 0.81844 0.17629 0.0
H706 H 0.38282 0.87061 0.18787 0.0
H707 H 0.27769 0.7781 0.19165 0.0
H708 H 0.30293 0.84244 0.1437 0.0
H709 H 0.31487 0.89158 0.1282 0.0
H710 H 0.2182 0.87938 0.13947 0.0
H711 H 0.20585 0.83042 0.15524 0.0
C712 C 0.15537 0.65306 0.1465 0.0
C713 C 0.12333 0.64661 0.1511 0.0
C714 C 0.18342 0.68516 0.14996 0.0
C715 C 0.17967 0.7113 0.15779 0.0
C716 C 0.14745 0.70553 0.16141 0.0
C717 C 0.11945 0.67321 0.15829 0.0
C718 C 0.20974 0.74362 0.16367 0.0
C719 C 0.21694 0.77256 0.15569 0.0
C720 C 0.23179 0.74549 0.17678 0.0
C721 C 0.22452 0.71578 0.18609 0.0
C722 C 0.19368 0.69779 0.19374 0.0
C723 C 0.18667 0.6694 0.20213 0.0
C724 C 0.21058 0.65909 0.20326 0.0
C725 C 0.24163 0.67729 0.1961 0.0
C726 C 0.24863 0.70551 0.18754 0.0
C727 C 0.32425 0.89563 0.19177 0.0
C728 C 0.35588 0.89768 0.19302 0.0
C729 C 0.29586 0.86581 0.18518 0.0
C730 C 0.29869 0.83769 0.17958 0.0
C731 C 0.33033 0.83985 0.18059 0.0
C732 C 0.35868 0.86959 0.18724 0.0
C733 C 0.26843 0.80547 0.17339 0.0
C734 C 0.26102 0.77641 0.18138 0.0
C735 C 0.24625 0.80351 0.16028 0.0
C736 C 0.25361 0.83296 0.1508 0.0
C737 C 0.28433 0.8504 0.143 0.0
C738 C 0.29115 0.87819 0.13414 0.0
C739 C 0.26735 0.88865 0.13289 0.0
C740 C 0.23663 0.87128 0.14046 0.0
C741 C 0.2297 0.84349 0.14936 0.0
H742 H 0.27267 0.91016 0.12602 0.0
H743 H 0.20516 0.63716 0.20979 0.0
H744 H 0.50998 0.12856 0.51442 0.0
H745 H 0.51925 0.18577 0.51576 0.0
H746 H 0.55379 0.19608 0.46541 0.0
H747 H 0.54531 0.13888 0.46411 0.0
H748 H 0.59726 0.24788 0.48559 0.0
H749 H 0.4791 0.19395 0.47427 0.0
H750 H 0.419 0.15281 0.47699 0.0
H751 H 0.42553 0.19252 0.52795 0.0
H752 H 0.4858 0.2336 0.52563 0.0
H753 H 0.61441 0.41448 0.49542 0.0
H754 H 0.59559 0.35624 0.48408 0.0
H755 H 0.56945 0.32227 0.53354 0.0
H756 H 0.5881 0.38003 0.54487 0.0
H757 H 0.5183 0.28365 0.5078 0.0
H758 H 0.63891 0.32999 0.51966 0.0
H759 H 0.69876 0.37172 0.51659 0.0
H760 H 0.68598 0.34613 0.46332 0.0
H761 H 0.62593 0.30445 0.46606 0.0
C762 C 0.51893 0.1427 0.5035 0.0
C763 C 0.52709 0.12926 0.4892 0.0
C764 C 0.52407 0.17541 0.50424 0.0
C765 C 0.53696 0.19514 0.49063 0.0
C766 C 0.54379 0.18127 0.47605 0.0
C767 C 0.53884 0.14856 0.47532 0.0
C768 C 0.54616 0.23114 0.49236 0.0
C769 C 0.57971 0.25569 0.49003 0.0
C770 C 0.52341 0.24137 0.49832 0.0
C771 C 0.48707 0.21678 0.49979 0.0
C772 C 0.46779 0.19378 0.48609 0.0
C773 C 0.43368 0.17048 0.48756 0.0
C774 C 0.41847 0.17002 0.50264 0.0
C775 C 0.43734 0.19291 0.51628 0.0
C776 C 0.47148 0.21626 0.51488 0.0
C777 C 0.60476 0.39452 0.50382 0.0
C778 C 0.60295 0.4017 0.52103 0.0
C779 C 0.59408 0.36141 0.49737 0.0
C780 C 0.58112 0.33512 0.50801 0.0
C781 C 0.57931 0.34228 0.52515 0.0
C782 C 0.5903 0.37529 0.53162 0.0
C783 C 0.5694 0.29992 0.5015 0.0
C784 C 0.53546 0.27567 0.50295 0.0
C785 C 0.59167 0.28997 0.49463 0.0
C786 C 0.62786 0.3145 0.49303 0.0
C787 C 0.64882 0.33345 0.50728 0.0
C788 C 0.68277 0.35704 0.5056 0.0
C789 C 0.69607 0.36175 0.48975 0.0
C790 C 0.67558 0.34256 0.47557 0.0
C791 C 0.6416 0.31893 0.47718 0.0
H792 H 0.72225 0.38028 0.48846 0.0
H793 H 0.39205 0.15196 0.50375 0.0
H794 H 0.36864 0.48011 0.82658 0.0
H795 H 0.31607 0.48172 0.82419 0.0
H796 H 0.36295 0.57708 0.85446 0.0
H797 H 0.41478 0.57494 0.85742 0.0
H798 H 0.30372 0.53948 0.86435 0.0
H799 H 0.35005 0.56966 0.81045 0.0
H800 H 0.37244 0.56203 0.78366 0.0
H801 H 0.27861 0.47116 0.76985 0.0
H802 H 0.25581 0.47802 0.79667 0.0
H803 H 0.20029 0.60531 0.84813 0.0
H804 H 0.24813 0.59714 0.8425 0.0
H805 H 0.18008 0.49127 0.82873 0.0
H806 H 0.13196 0.49896 0.83478 0.0
H807 H 0.24592 0.52903 0.80943 0.0
H808 H 0.20119 0.50189 0.86486 0.0
H809 H 0.18052 0.51491 0.89103 0.0
H810 H 0.27543 0.60653 0.90128 0.0
H811 H 0.29642 0.59433 0.87498 0.0
C812 C 0.36758 0.50129 0.83278 0.0
C813 C 0.39572 0.52733 0.84224 0.0
C814 C 0.33765 0.50231 0.8313 0.0
C815 C 0.33571 0.52974 0.83897 0.0
C816 C 0.36381 0.55562 0.84847 0.0
C817 C 0.39344 0.55434 0.85017 0.0
C818 C 0.30438 0.53156 0.83749 0.0
C819 C 0.29134 0.53739 0.8523 0.0
C820 C 0.28775 0.52827 0.82179 0.0
C821 C 0.30137 0.52415 0.80565 0.0
C822 C 0.33429 0.54791 0.80176 0.0
C823 C 0.34704 0.54375 0.78656 0.0
C824 C 0.327 0.51607 0.77508 0.0
C825 C 0.29412 0.49255 0.77876 0.0
C826 C 0.28127 0.49657 0.79396 0.0
C827 C 0.19545 0.58041 0.8436 0.0
C828 C 0.16245 0.55264 0.84223 0.0
C829 C 0.22276 0.57587 0.84025 0.0
C830 C 0.21745 0.54358 0.83537 0.0
C831 C 0.1845 0.51639 0.83242 0.0
C832 C 0.15708 0.52085 0.83589 0.0
C833 C 0.24611 0.53751 0.83622 0.0
C834 C 0.2584 0.53078 0.82139 0.0
C835 C 0.2625 0.54048 0.85186 0.0
C836 C 0.25025 0.54734 0.8679 0.0
C837 C 0.21755 0.52492 0.87264 0.0
C838 C 0.20579 0.53215 0.8875 0.0
C839 C 0.22662 0.56157 0.8978 0.0
C840 C 0.25931 0.58377 0.89328 0.0
C841 C 0.27116 0.5767 0.87841 0.0
H842 H 0.21746 0.56714 0.90929 0.0
H843 H 0.33691 0.51289 0.76332 0.0
H844 H 0.85716 0.4358 0.18029 0.0
H845 H 0.80028 0.38769 0.18046 0.0
H846 H 0.83738 0.32018 0.16569 0.0
H847 H 0.89433 0.3689 0.16444 0.0
H848 H 0.78027 0.29906 0.14985 0.0
H849 H 0.81661 0.33183 0.20862 0.0
H850 H 0.83907 0.37054 0.23444 0.0
H851 H 0.76024 0.39468 0.22953 0.0
H852 H 0.73697 0.35574 0.20383 0.0
H853 H 0.64707 0.15235 0.18262 0.0
H854 H 0.6988 0.20017 0.17411 0.0
H855 H 0.65525 0.26427 0.18163 0.0
H856 H 0.60312 0.21636 0.18997 0.0
H857 H 0.71401 0.28749 0.20001 0.0
H858 H 0.67392 0.24774 0.14284 0.0
H859 H 0.65061 0.20597 0.11822 0.0
H860 H 0.73698 0.19275 0.12069 0.0
H861 H 0.7606 0.2341 0.14549 0.0
C862 C 0.8532 0.41066 0.17717 0.0
C863 C 0.88008 0.40587 0.17259 0.0
C864 C 0.82069 0.38315 0.17733 0.0
C865 C 0.81462 0.35017 0.17355 0.0
C866 C 0.84146 0.34537 0.16875 0.0
C867 C 0.87395 0.37309 0.16811 0.0
C868 C 0.78026 0.32084 0.17462 0.0
C869 C 0.76594 0.29628 0.16091 0.0
C870 C 0.76117 0.31758 0.18886 0.0
C871 C 0.77526 0.34114 0.20425 0.0
C872 C 0.80419 0.34554 0.21301 0.0
C873 C 0.81704 0.36748 0.22762 0.0
C874 C 0.8013 0.38528 0.23353 0.0
C875 C 0.77247 0.38095 0.22492 0.0
C876 C 0.75933 0.35883 0.21039 0.0
C877 C 0.64804 0.17634 0.18194 0.0
C878 C 0.62114 0.18069 0.18712 0.0
C879 C 0.67767 0.20366 0.17707 0.0
C880 C 0.68081 0.23572 0.17726 0.0
C881 C 0.65329 0.2397 0.18146 0.0
C882 C 0.62364 0.21239 0.18629 0.0
C883 C 0.71408 0.26572 0.17529 0.0
C884 C 0.72825 0.29036 0.1889 0.0
C885 C 0.73304 0.2687 0.16106 0.0
C886 C 0.7189 0.24383 0.14613 0.0
C887 C 0.68781 0.23572 0.13823 0.0
C888 C 0.67457 0.21216 0.12422 0.0
C889 C 0.69226 0.19666 0.11792 0.0
C890 C 0.72328 0.20475 0.12559 0.0
C891 C 0.73663 0.22828 0.13962 0.0
H892 H 0.68197 0.17843 0.10706 0.0
H893 H 0.81137 0.40231 0.24482 0.0
H894 H 0.0336 0.56551 0.11119 0.0
H895 H 0.0313 0.56502 0.08075 0.0
H896 H 0.97039 0.45632 0.07638 0.0
H897 H 0.97307 0.45649 0.10705 0.0
H898 H 0.01925 0.4787 0.05378 0.0
H899 H 0.93393 0.50392 0.07099 0.0
H900 H 0.91148 0.53437 0.0881 0.0
H901 H 0.98284 0.62746 0.0687 0.0
H902 H 0.00605 0.59769 0.05166 0.0
H903 H 0.97842 0.47626 0.9668 0.0
H904 H 0.97318 0.4684 0.99684 0.0
H905 H 0.03635 0.57589 0.00851 0.0
H906 H 0.04122 0.58397 0.97854 0.0
H907 H 0.9803 0.54888 0.02707 0.0
H908 H 0.06855 0.52542 0.01208 0.0
H909 H 0.09372 0.49658 0.9959 0.0
H910 H 0.01811 0.40117 0.0115 0.0
H911 H 0.9922 0.42942 0.02759 0.0
C912 C 0.01964 0.54144 0.1038 0.0
C913 C 0.00326 0.51103 0.11153 0.0
C914 C 0.01828 0.54123 0.08639 0.0
C915 C 1.00013 0.51069 0.07633 0.0
C916 C 0.98435 0.48017 0.08395 0.0
C917 C 0.98588 0.48032 0.10144 0.0
C918 C 0.99789 0.51098 0.05787 0.0
C919 C 0.01009 0.49347 0.04789 0.0
C920 C 0.9865 0.53079 0.05027 0.0
C921 C 0.97188 0.54858 0.06012 0.0
C922 C 0.94492 0.53091 0.07042 0.0
C923 C 0.93206 0.54804 0.08011 0.0
C924 C 0.94581 0.58283 0.07952 0.0
C925 C 0.97225 0.60051 0.06915 0.0
C926 C 0.98523 0.58351 0.05945 0.0
C927 C 0.99099 0.49821 0.97579 0.0
C928 C 0.01032 0.53072 0.97035 0.0
C929 C 0.98816 0.49366 0.99291 0.0
C930 C 0.00456 0.52155 0.00486 0.0
C931 C 0.02353 0.55405 -0.00054 0.0
C932 C 0.02652 0.55859 0.98237 0.0
C933 C 0.00214 0.51702 0.02303 0.0
C934 C 0.989 0.53372 0.03294 0.0
C935 C 0.01269 0.49651 0.03056 0.0
C936 C 0.02819 0.47948 0.02087 0.0
C937 C 0.0571 0.49825 0.01193 0.0
C938 C 0.07154 0.48202 0.0028 0.0
C939 C 0.05745 0.44705 0.00262 0.0
C940 C 0.02895 0.42825 0.01162 0.0
C941 C 0.01438 0.44436 0.02075 0.0
H942 H 0.06868 0.43453 0.99556 0.0
H943 H 0.93602 0.59612 0.08711 0.0
H944 H 0.55753 0.99339 0.45388 0.0
H945 H 0.56247 0.00841 0.42491 0.0
H946 H 0.48824 0.03932 0.43178 0.0
H947 H 0.48264 0.02378 0.46065 0.0
H948 H 0.47516 0.00075 0.40314 0.0
H949 H 0.57101 0.09789 0.43025 0.0
H950 H 0.62328 0.12897 0.44831 0.0
H951 H 0.67176 0.08931 0.41605 0.0
H952 H 0.61958 0.05767 0.39785 0.0
H953 H 0.49858 0.07737 0.32721 0.0
H954 H 0.50119 0.07342 0.3575 0.0
H955 H 0.56551 0.0302 0.35084 0.0
H956 H 0.56329 0.0344 0.32051 0.0
H957 H 0.58454 0.07786 0.3796 0.0
H958 H 0.48622 0.97862 0.35342 0.0
H959 H 0.4335 0.94871 0.3356 0.0
H960 H 0.38938 0.99457 0.36693 0.0
H961 H 0.44208 0.02517 0.3848 0.0
C962 C 0.54228 0.00342 0.44924 0.0
C963 C 0.51976 0.00749 0.45958 0.0
C964 C 0.5453 0.01221 0.43271 0.0
C965 C 0.52602 0.02536 0.42626 0.0
C966 C 0.50342 0.0293 0.43653 0.0
C967 C 0.50031 0.02046 0.45304 0.0
C968 C 0.52849 0.03384 0.40861 0.0
C969 C 0.49901 0.01805 0.39809 0.0
C970 C 0.55972 0.05595 0.40195 0.0
C971 C 0.59127 0.07516 0.41276 0.0
C972 C 0.59273 0.09559 0.42706 0.0
C973 C 0.62236 0.11334 0.43732 0.0
C974 C 0.65078 0.11101 0.43336 0.0
C975 C 0.64968 0.09104 0.4191 0.0
C976 C 0.62011 0.07324 0.40879 0.0
C977 C 0.51382 0.06766 0.33224 0.0
C978 C 0.53055 0.05597 0.32151 0.0
C979 C 0.51517 0.06529 0.34951 0.0
C980 C 0.5333 0.05126 0.35633 0.0
C981 C 0.55137 0.04108 0.34578 0.0
C982 C 0.54985 0.04323 0.32848 0.0
C983 C 0.53122 0.04475 0.37425 0.0
C984 C 0.56074 0.06079 0.38476 0.0
C985 C 0.49999 0.02306 0.38098 0.0
C986 C 0.4682 0.00445 0.37034 0.0
C987 C 0.46537 0.98253 0.35643 0.0
C988 C 0.43548 0.96542 0.34633 0.0
C989 C 0.40814 0.96981 0.3501 0.0
C990 C 0.4106 0.99124 0.36401 0.0
C991 C 0.44046 0.00846 0.37413 0.0
H992 H 0.38501 0.95654 0.34227 0.0
H993 H 0.67368 0.12475 0.44131 0.0
H994 H 0.46868 0.47005 0.78221 0.0
H995 H 0.47468 0.46632 0.75181 0.0
H996 H 0.57327 0.55552 0.75795 0.0
H997 H 0.56769 0.5593 0.78812 0.0
H998 H 0.48444 0.50965 0.72791 0.0
H999 H 0.6256 0.54664 0.73204 0.0
H1000 H 0.66501 0.54109 0.75114 0.0
H1001 H 0.58247 0.45282 0.76915 0.0
H1002 H 0.54263 0.45755 0.75001 0.0
H1003 H 0.56497 0.57177 0.65308 0.0
H1004 H 0.54869 0.56252 0.68205 0.0
H1005 H 0.55331 0.47059 0.67813 0.0
H1006 H 0.5695 0.47962 0.64911 0.0
H1007 H 0.58467 0.50759 0.70649 0.0
H1008 H 0.47757 0.46747 0.67816 0.0
H1009 H 0.43598 0.46947 0.65907 0.0
H1010 H 0.44579 0.55565 0.68894 0.0
H1011 H 0.48782 0.55447 0.70809 0.0
C1012 C 0.49158 0.48888 0.77705 0.0
C1013 C 0.51785 0.51475 0.78759 0.0
C1014 C 0.49493 0.48674 0.75971 0.0
C1015 C 0.52463 0.51034 0.7527 0.0
C1016 C 0.55042 0.53668 0.76315 0.0
C1017 C 0.54713 0.53881 0.78041 0.0
C1018 C 0.52912 0.50764 0.73448 0.0
C1019 C 0.50623 0.50901 0.72319 0.0
C1020 C 0.5572 0.50609 0.72835 0.0
C1021 C 0.58111 0.50259 0.73964 0.0
C1022 C 0.61588 0.52591 0.73999 0.0
C1023 C 0.6383 0.52293 0.75083 0.0
C1024 C 0.62625 0.4966 0.76134 0.0
C1025 C 0.59177 0.4732 0.76101 0.0
C1026 C 0.56926 0.47605 0.75018 0.0
C1027 C 0.56212 0.54937 0.65832 0.0
C1028 C 0.56852 0.52642 0.6488 0.0
C1029 C 0.55281 0.54411 0.67487 0.0
C1030 C 0.54945 0.51567 0.68219 0.0
C1031 C 0.55579 0.49271 0.67273 0.0
C1032 C 0.56517 0.49798 0.65618 0.0
C1033 C 0.54052 0.51063 0.69992 0.0
C1034 C 0.56266 0.50786 0.71115 0.0
C1035 C 0.51143 0.5103 0.70593 0.0
C1036 C 0.48604 0.51102 0.69449 0.0
C1037 C 0.47104 0.487 0.68059 0.0
C1038 C 0.44736 0.48796 0.66977 0.0
C1039 C 0.43829 0.51271 0.67277 0.0
C1040 C 0.45285 0.53651 0.68663 0.0
C1041 C 0.47657 0.53567 0.69748 0.0
H1042 H 0.41995 0.51342 0.66438 0.0
H1043 H 0.64364 0.49437 0.76974 0.0
H1044 H 0.53122 0.05999 0.55708 0.0
H1045 H 0.53468 0.06319 0.58772 0.0
H1046 H 0.53297 0.96808 0.5857 0.0
H1047 H 0.52904 0.96439 0.55511 0.0
H1048 H 0.49064 0.97013 0.60809 0.0
H1049 H 0.60599 0.04222 0.59526 0.0
H1050 H 0.65254 0.08929 0.58216 0.0
H1051 H 0.63073 0.15978 0.60918 0.0
H1052 H 0.5837 0.11305 0.62225 0.0
H1053 H 0.53787 0.9747 0.69306 0.0
H1054 H 0.5375 0.97369 0.66246 0.0
H1055 H 0.54173 0.07006 0.66528 0.0
H1056 H 0.54241 0.07135 0.69595 0.0
H1057 H 0.58285 0.06796 0.64246 0.0
H1058 H 0.46747 0.9963 0.65512 0.0
H1059 H 0.42043 0.94943 0.66807 0.0
H1060 H 0.4417 0.8784 0.64121 0.0
H1061 H 0.4892 0.92492 0.62827 0.0
C1062 C 0.53159 0.03971 0.56313 0.0
C1063 C 0.52985 0.01189 0.55358 0.0
C1064 C 0.53374 0.0417 0.58066 0.0
C1065 C 0.53442 0.01604 0.58898 0.0
C1066 C 0.53251 0.98818 0.57952 0.0
C1067 C 0.53034 0.98615 0.562 0.0
C1068 C 0.53652 0.01788 0.60758 0.0
C1069 C 0.51105 0.9913 0.61561 0.0
C1070 C 0.56269 0.04593 0.61737 0.0
C1071 C 0.59111 0.07409 0.60961 0.0
C1072 C 0.61095 0.06773 0.59831 0.0
C1073 C 0.63745 0.09436 0.5909 0.0
C1074 C 0.64453 0.1275 0.5948 0.0
C1075 C 0.62519 0.13409 0.60615 0.0
C1076 C 0.59862 0.10755 0.61357 0.0
C1077 C 0.5386 0.99562 0.68715 0.0
C1078 C 0.53992 0.023 0.69689 0.0
C1079 C 0.53841 0.99502 0.66967 0.0
C1080 C 0.53905 0.02156 0.66157 0.0
C1081 C 0.54118 0.04931 0.67127 0.0
C1082 C 0.54161 0.05003 0.68878 0.0
C1083 C 0.53703 0.02011 0.64297 0.0
C1084 C 0.56246 0.04678 0.63494 0.0
C1085 C 0.51076 0.99217 0.63316 0.0
C1086 C 0.48209 0.96413 0.64085 0.0
C1087 C 0.46227 0.97071 0.65207 0.0
C1088 C 0.4355 0.9442 0.6594 0.0
C1089 C 0.42813 0.91096 0.6555 0.0
C1090 C 0.44747 0.90416 0.64423 0.0
C1091 C 0.4743 0.93058 0.63689 0.0
H1092 H 0.40739 0.89048 0.66118 0.0
H1093 H 0.66505 0.14807 0.58905 0.0
H1094 H 0.56637 0.52504 0.88709 0.0
H1095 H 0.56349 0.52021 0.91741 0.0
H1096 H 0.4615 0.50184 0.91483 0.0
H1097 H 0.464 0.50636 0.88452 0.0
H1098 H 0.50339 0.55038 0.9409 0.0
H1099 H 0.47182 0.43785 0.91866 0.0
H1100 H 0.47914 0.39544 0.90152 0.0
H1101 H 0.57151 0.42498 0.92977 0.0
H1102 H 0.56499 0.46799 0.94693 0.0
H1103 H 0.45541 0.4979 0.02157 0.0
H1104 H 0.45753 0.49874 0.99107 0.0
H1105 H 0.55402 0.50352 0.99369 0.0
H1106 H 0.55179 0.50223 0.02423 0.0
H1107 H 0.51588 0.4621 0.96742 0.0
H1108 H 0.54854 0.5745 0.98953 0.0
H1109 H 0.54304 0.61841 0.00639 0.0
H1110 H 0.45121 0.5911 0.9782 0.0
H1111 H 0.45591 0.54667 0.96132 0.0
C1112 C 0.54335 0.52004 0.89298 0.0
C1113 C 0.51539 0.51604 0.88341 0.0
C1114 C 0.54171 0.51715 0.91027 0.0
C1115 C 0.51222 0.51049 0.9183 0.0
C1116 C 0.48445 0.50694 0.90884 0.0
C1117 C 0.48591 0.50941 0.89152 0.0
C1118 C 0.51037 0.50745 0.93661 0.0
C1119 C 0.50567 0.53083 0.9467 0.0
C1120 C 0.51429 0.48248 0.94414 0.0
C1121 C 0.51809 0.45639 0.93397 0.0
C1122 C 0.49384 0.4355 0.92113 0.0
C1123 C 0.49782 0.41131 0.91143 0.0
C1124 C 0.52583 0.40757 0.91452 0.0
C1125 C 0.54985 0.42794 0.92737 0.0
C1126 C 0.54601 0.45222 0.9371 0.0
C1127 C 0.47706 0.49912 0.01563 0.0
C1128 C 0.50357 0.5003 0.02528 0.0
C1129 C 0.47826 0.49961 0.99822 0.0
C1130 C 0.50623 0.50182 0.99012 0.0
C1131 C 0.53223 0.50188 -0.00033 0.0
C1132 C 0.53091 0.50111 0.0171 0.0
C1133 C 0.50869 0.50496 0.97178 0.0
C1134 C 0.51359 0.48167 0.96165 0.0
C1135 C 0.50522 0.53022 0.9642 0.0
C1136 C 0.50241 0.55704 0.97427 0.0
C1137 C 0.52704 0.57769 0.98701 0.0
C1138 C 0.52409 0.6027 0.99655 0.0
C1139 C 0.49675 0.60749 0.99339 0.0
C1140 C 0.47235 0.58733 0.98065 0.0
C1141 C 0.47516 0.56225 0.97108 0.0
H1142 H 0.49451 0.62686 0.0008 0.0
H1143 H 0.52888 0.38884 0.90699 0.0
H1144 H 0.01576 0.47468 0.20803 0.0
H1145 H 0.01443 0.47275 0.23843 0.0
H1146 H 0.00381 0.56133 0.24305 0.0
H1147 H 0.00673 0.56428 0.21261 0.0
H1148 H 0.04445 0.56517 0.26733 0.0
H1149 H 0.93525 0.47924 0.24465 0.0
H1150 H 0.89637 0.42982 0.22548 0.0
H1151 H 0.93231 0.37003 0.24765 0.0
H1152 H 0.97186 0.41925 0.26675 0.0
H1153 H 0.98751 0.53987 0.3506 0.0
H1154 H 0.98736 0.54362 0.32016 0.0
H1155 H 0.01601 0.46724 0.3136 0.0
H1156 H 0.01619 0.46337 0.34402 0.0
H1157 H 0.96374 0.45778 0.29056 0.0
H1158 H 0.07444 0.54518 0.31226 0.0
H1159 H 0.11438 0.59542 0.33065 0.0
H1160 H 0.07379 0.6528 0.31015 0.0
H1161 H 0.03323 0.60272 0.2918 0.0
C1162 C 0.01326 0.49382 0.21553 0.0
C1163 C 0.01106 0.51947 0.20795 0.0
C1164 C 0.01233 0.49259 0.2329 0.0
C1165 C 0.00815 0.51639 0.24301 0.0
C1166 C 0.00684 0.54258 0.23551 0.0
C1167 C 0.00846 0.54421 0.21812 0.0
C1168 C 0.00484 0.51367 0.26136 0.0
C1169 C 0.02639 0.54185 0.27239 0.0
C1170 C 0.98158 0.48308 0.268 0.0
C1171 C 0.95673 0.45303 0.25704 0.0
C1172 C 0.93493 0.45558 0.24541 0.0
C1173 C 0.91282 0.42762 0.23453 0.0
C1174 C 0.91201 0.39687 0.23529 0.0
C1175 C 0.93305 0.39391 0.24704 0.0
C1176 C 0.9553 0.42182 0.25791 0.0
C1177 C 0.99346 0.52368 0.34263 0.0
C1178 C 0.00199 0.50142 0.34963 0.0
C1179 C 0.99353 0.52596 0.32529 0.0
C1180 C 0.00186 0.50584 0.31469 0.0
C1181 C 0.00954 0.48298 0.32161 0.0
C1182 C 0.00985 0.48096 0.33895 0.0
C1183 C 0.00344 0.50919 0.2964 0.0
C1184 C 0.98153 0.48114 0.28544 0.0
C1185 C 0.02611 0.53995 0.28982 0.0
C1186 C 0.05056 0.57011 0.30079 0.0
C1187 C 0.07382 0.56843 0.31178 0.0
C1188 C 0.09662 0.59689 0.32218 0.0
C1189 C 0.09656 0.62726 0.32161 0.0
C1190 C 0.07376 0.62925 0.3106 0.0
C1191 C 0.05088 0.60084 0.30019 0.0
H1192 H 0.11423 0.64927 0.32966 0.0
H1193 H 0.89503 0.3753 0.2268 0.0
loop_
_geom_bond_atom_site_label_1
_geom_bond_atom_site_label_2
_geom_bond_distance
_geom_bond_site_symmetry_2
_ccdc_geom_bond_type
Zn0 O6 1.969 . S
Zn0 O7 1.965 . S
Zn0 O11 2.024 . S
Zn0 O16 1.969 . S
Zn1 O8 1.969 . S
Zn1 O14 1.969 . S
Zn1 O15 1.965 . S
Zn1 O17 2.024 . S
C2 O3 1.229 . S
C2 O11 1.058 . S
O3 C2 1.229 . S
C4 O5 1.229 . S
C4 O17 1.058 . S
O5 C4 1.229 . S
O6 Zn0 1.969 . S
O6 C9 1.267 . S
O7 Zn0 1.965 . S
O7 C18 1.258 1_455 S
O8 Zn1 1.969 . S
O8 C18 1.263 . S
C9 O6 1.267 . S
C9 O10 1.228 . S
O10 C9 1.228 . S
O11 Zn0 2.024 . S
O11 C2 1.058 . S
C12 O13 1.228 . S
C12 O14 1.267 . S
O13 C12 1.228 . S
O14 Zn1 1.969 . S
O14 C12 1.267 . S
O15 Zn1 1.965 . S
O15 C19 1.260 1_655 S
O16 Zn0 1.969 . S
O16 C19 1.258 . S
O17 Zn1 2.024 . S
O17 C4 1.058 . S
C18 O7 1.258 1_655 S
C18 O8 1.263 . S
C19 O15 1.260 1_455 S
C19 O16 1.258 . S
Zn20 O26 1.969 . S
Zn20 O27 1.965 . S
Zn20 O31 2.024 . S
Zn20 O36 1.969 . S
Zn21 O28 1.969 . S
Zn21 O34 1.969 . S
Zn21 O35 1.980 . S
Zn21 O37 2.024 . S
C22 O23 1.229 . S
C22 O31 1.058 . S
O23 C22 1.229 . S
C24 O25 1.229 . S
C24 O37 1.058 . S
O25 C24 1.229 . S
O26 Zn20 1.969 . S
O26 C29 1.267 . S
O27 Zn20 1.965 . S
O27 C38 1.260 . S
O28 Zn21 1.969 . S
O28 C38 1.258 1_565 S
C29 O26 1.267 . S
C29 O30 1.228 . S
O30 C29 1.228 . S
O31 Zn20 2.024 . S
O31 C22 1.058 . S
C32 O33 1.228 . S
C32 O34 1.267 . S
O33 C32 1.228 . S
O34 Zn21 1.969 . S
O34 C32 1.267 . S
O35 Zn21 1.980 . S
O35 C39 1.237 1_565 S
O36 Zn20 1.969 . S
O36 C39 1.258 . S
O37 Zn21 2.024 . S
O37 C24 1.058 . S
C38 O27 1.260 . S
C38 O28 1.258 1_545 S
C39 O35 1.237 1_545 S
C39 O36 1.258 . S
Zn40 O46 1.969 . S
Zn40 O47 1.965 . S
Zn40 O51 2.024 . S
Zn40 O56 1.969 . S
Zn41 O48 1.969 . S
Zn41 O54 1.969 . S
Zn41 O55 1.965 . S
Zn41 O57 2.024 . S
C42 O43 1.229 . S
C42 O51 1.058 . S
O43 C42 1.229 . S
C44 O45 1.229 . S
C44 O57 1.058 . S
O45 C44 1.229 . S
O46 Zn40 1.969 . S
O46 C49 1.267 . S
O47 Zn40 1.965 . S
O47 C58 1.260 . S
O48 Zn41 1.969 . S
O48 C58 1.258 . S
C49 O46 1.267 . S
C49 O50 1.228 . S
O50 C49 1.228 . S
O51 Zn40 2.024 . S
O51 C42 1.058 . S
C52 O53 1.228 . S
C52 O54 1.267 . S
O53 C52 1.228 . S
O54 Zn41 1.969 . S
O54 C52 1.267 . S
O55 Zn41 1.965 . S
O55 C59 1.260 . S
O56 Zn40 1.969 . S
O56 C59 1.258 . S
O57 Zn41 2.024 . S
O57 C44 1.058 . S
C58 O47 1.260 . S
C58 O48 1.258 . S
C59 O55 1.260 . S
C59 O56 1.258 . S
C60 C61 1.386 . S
C60 C62 1.397 . S
C60 H84 0.931 . S
C61 C60 1.386 . S
C61 C65 1.397 . S
C62 C60 1.397 . S
C62 C63 1.384 . S
C62 H85 0.930 . S
C63 C62 1.384 . S
C63 C64 1.377 . S
C63 C66 1.481 . S
C64 C63 1.377 . S
C64 C65 1.389 . S
C64 H86 0.929 1_545 S
C65 C61 1.397 . S
C65 C64 1.389 . S
C65 H87 0.931 1_545 S
C66 C63 1.481 . S
C66 C67 1.387 . S
C66 C71 1.390 . S
C67 C66 1.387 . S
C67 C68 1.401 . S
C67 H88 0.930 . S
C68 C67 1.401 . S
C68 C69 1.376 . S
C68 C77 1.511 . S
C69 C68 1.376 . S
C69 C70 1.392 . S
C69 H90 0.931 . S
C70 C69 1.392 . S
C70 C71 1.361 . S
C70 C72 1.500 1_545 S
C71 C66 1.390 . S
C71 C70 1.361 . S
C71 H89 0.931 1_545 S
C72 C70 1.500 1_565 S
C72 C73 1.371 . S
C72 C74 1.365 . S
C73 C72 1.371 . S
C73 C83 1.386 . S
C73 H91 0.931 1_565 S
C74 C72 1.365 . S
C74 C75 1.409 . S
C74 H92 0.929 . S
C75 C74 1.409 . S
C75 C76 1.380 . S
C75 H93 0.930 . S
C76 C75 1.380 . S
C76 C83 1.357 . S
C77 C68 1.511 . S
C77 C78 1.341 . S
C77 C79 1.371 . S
C78 C77 1.341 . S
C78 C82 1.394 . S
C78 H94 0.930 . S
C79 C77 1.371 . S
C79 C80 1.392 . S
C79 H95 0.931 . S
C80 C79 1.392 . S
C80 C81 1.331 . S
C80 H98 0.932 . S
C81 C80 1.331 . S
C81 C82 1.336 . S
C82 C78 1.394 . S
C82 C81 1.336 . S
C82 H97 0.929 . S
C83 C73 1.386 . S
C83 C76 1.357 . S
C83 H96 0.928 . S
H84 C60 0.931 . S
H85 C62 0.930 . S
H86 C64 0.929 1_565 S
H87 C65 0.931 1_565 S
H88 C67 0.930 . S
H89 C71 0.931 1_565 S
H90 C69 0.931 . S
H91 C73 0.931 1_545 S
H92 C74 0.929 . S
H93 C75 0.930 . S
H94 C78 0.930 . S
H95 C79 0.931 . S
H96 C83 0.928 . S
H97 C82 0.929 . S
H98 C80 0.932 . S
C99 C100 1.386 . S
C99 C101 1.397 . S
C99 H123 0.931 . S
C100 C99 1.386 . S
C100 C104 1.397 . S
C101 C99 1.397 . S
C101 C102 1.384 . S
C101 H124 0.930 . S
C102 C101 1.384 . S
C102 C103 1.377 . S
C102 C105 1.481 . S
C103 C102 1.377 . S
C103 C104 1.389 . S
C103 H125 0.929 . S
C104 C100 1.397 . S
C104 C103 1.389 . S
C104 H126 0.931 . S
C105 C102 1.481 . S
C105 C106 1.387 . S
C105 C110 1.390 . S
C106 C105 1.387 . S
C106 C107 1.401 . S
C106 H127 0.930 . S
C107 C106 1.401 . S
C107 C108 1.376 . S
C107 C116 1.511 . S
C108 C107 1.376 . S
C108 C109 1.392 . S
C108 H129 0.931 . S
C109 C108 1.392 . S
C109 C110 1.361 . S
C109 C111 1.500 . S
C110 C105 1.390 . S
C110 C109 1.361 . S
C110 H128 0.931 . S
C111 C109 1.500 . S
C111 C112 1.371 . S
C111 C113 1.365 . S
C112 C111 1.371 . S
C112 C122 1.386 . S
C112 H130 0.931 . S
C113 C111 1.365 . S
C113 C114 1.409 . S
C113 H131 0.929 . S
C114 C113 1.409 . S
C114 C115 1.380 . S
C114 H132 0.930 . S
C115 C114 1.380 . S
C115 C122 1.357 . S
C116 C107 1.511 . S
C116 C117 1.341 . S
C116 C118 1.371 . S
C117 C116 1.341 . S
C117 C121 1.394 . S
C117 H133 0.930 . S
C118 C116 1.371 . S
C118 C119 1.392 . S
C118 H134 0.931 . S
C119 C118 1.392 . S
C119 C120 1.331 . S
C119 H137 0.932 . S
C120 C119 1.331 . S
C120 C121 1.336 . S
C121 C117 1.394 . S
C121 C120 1.336 . S
C121 H136 0.929 . S
C122 C112 1.386 . S
C122 C115 1.357 . S
C122 H135 0.928 . S
H123 C99 0.931 . S
H124 C101 0.930 . S
H125 C103 0.929 . S
H126 C104 0.931 . S
H127 C106 0.930 . S
H128 C110 0.931 . S
H129 C108 0.931 . S
H130 C112 0.931 . S
H131 C113 0.929 . S
H132 C114 0.930 . S
H133 C117 0.930 . S
H134 C118 0.931 . S
H135 C122 0.928 . S
H136 C121 0.929 . S
H137 C119 0.932 . S
C138 C139 1.386 . S
C138 C140 1.397 . S
C138 H162 0.931 . S
C139 C138 1.386 . S
C139 C143 1.397 . S
C140 C138 1.397 . S
C140 C141 1.384 . S
C140 H163 0.930 . S
C141 C140 1.384 . S
C141 C142 1.377 . S
C141 C144 1.481 . S
C142 C141 1.377 . S
C142 C143 1.389 . S
C142 H164 0.929 1_455 S
C143 C139 1.397 . S
C143 C142 1.389 . S
C143 H165 0.931 1_455 S
C144 C141 1.481 . S
C144 C145 1.387 . S
C144 C149 1.390 . S
C145 C144 1.387 . S
C145 C146 1.401 . S
C145 H166 0.930 . S
C146 C145 1.401 . S
C146 C147 1.376 . S
C146 C155 1.511 . S
C147 C146 1.376 . S
C147 C148 1.392 . S
C147 H168 0.931 . S
C148 C147 1.392 . S
C148 C149 1.361 . S
C148 C150 1.500 1_455 S
C149 C144 1.390 . S
C149 C148 1.361 . S
C149 H167 0.931 1_455 S
C150 C148 1.500 1_655 S
C150 C151 1.371 . S
C150 C152 1.365 . S
C151 C150 1.371 . S
C151 C161 1.386 . S
C151 H169 0.931 1_655 S
C152 C150 1.365 . S
C152 C153 1.409 . S
C152 H170 0.929 . S
C153 C152 1.409 . S
C153 C154 1.380 . S
C153 H171 0.930 . S
C154 C153 1.380 . S
C154 C161 1.357 . S
C155 C146 1.511 . S
C155 C156 1.341 . S
C155 C157 1.371 . S
C156 C155 1.341 . S
C156 C160 1.394 . S
C156 H172 0.930 . S
C157 C155 1.371 . S
C157 C158 1.392 . S
C157 H173 0.931 . S
C158 C157 1.392 . S
C158 C159 1.331 . S
C158 H176 0.932 . S
C159 C158 1.331 . S
C159 C160 1.336 . S
C160 C156 1.394 . S
C160 C159 1.336 . S
C160 H175 0.929 . S
C161 C151 1.386 . S
C161 C154 1.357 . S
C161 H174 0.928 . S
H162 C138 0.931 . S
H163 C140 0.930 . S
H164 C142 0.929 1_655 S
H165 C143 0.931 1_655 S
H166 C145 0.930 . S
H167 C149 0.931 1_655 S
H168 C147 0.931 . S
H169 C151 0.931 1_455 S
H170 C152 0.929 . S
H171 C153 0.930 . S
H172 C156 0.930 . S
H173 C157 0.931 . S
H174 C161 0.928 . S
H175 C160 0.929 . S
H176 C158 0.932 . S
C177 C178 1.386 1_655 S
C177 C179 1.397 . S
C177 H201 0.931 . S
C178 C177 1.386 1_455 S
C178 C182 1.397 . S
C179 C177 1.397 . S
C179 C180 1.384 1_655 S
C179 H202 0.930 . S
C180 C179 1.384 1_455 S
C180 C181 1.377 . S
C180 C183 1.481 . S
C181 C180 1.377 . S
C181 C182 1.389 . S
C181 H203 0.929 . S
C182 C178 1.397 . S
C182 C181 1.389 . S
C182 H204 0.931 . S
C183 C180 1.481 . S
C183 C184 1.387 1_455 S
C183 C188 1.390 . S
C184 C183 1.387 1_655 S
C184 C185 1.401 . S
C184 H205 0.930 . S
C185 C184 1.401 . S
C185 C186 1.376 1_655 S
C185 C194 1.511 . S
C186 C185 1.376 1_455 S
C186 C187 1.392 . S
C186 H207 0.931 . S
C187 C186 1.392 . S
C187 C188 1.361 . S
C187 C189 1.500 . S
C188 C183 1.390 . S
C188 C187 1.361 . S
C188 H206 0.931 . S
C189 C187 1.500 . S
C189 C190 1.371 . S
C189 C191 1.365 . S
C190 C189 1.371 . S
C190 C200 1.386 . S
C190 H208 0.931 . S
C191 C189 1.365 . S
C191 C192 1.409 . S
C191 H209 0.929 . S
C192 C191 1.409 . S
C192 C193 1.380 . S
C192 H210 0.930 . S
C193 C192 1.380 . S
C193 C200 1.357 . S
C194 C185 1.511 . S
C194 C195 1.341 . S
C194 C196 1.371 . S
C195 C194 1.341 . S
C195 C199 1.394 . S
C195 H211 0.930 . S
C196 C194 1.371 . S
C196 C197 1.392 . S
C196 H212 0.931 . S
C197 C196 1.392 . S
C197 C198 1.331 . S
C197 H215 0.932 . S
C198 C197 1.331 . S
C198 C199 1.336 . S
C199 C195 1.394 . S
C199 C198 1.336 . S
C199 H214 0.929 . S
C200 C190 1.386 . S
C200 C193 1.357 . S
C200 H213 0.928 . S
H201 C177 0.931 . S
H202 C179 0.930 . S
H203 C181 0.929 . S
H204 C182 0.931 . S
H205 C184 0.930 . S
H206 C188 0.931 . S
H207 C186 0.931 . S
H208 C190 0.931 . S
H209 C191 0.929 . S
H210 C192 0.930 . S
H211 C195 0.930 . S
H212 C196 0.931 . S
H213 C200 0.928 . S
H214 C199 0.929 . S
H215 C197 0.932 . S
C216 C217 1.386 1_565 S
C216 C218 1.397 . S
C216 H240 0.931 . S
C217 C216 1.386 1_545 S
C217 C221 1.397 . S
C218 C216 1.397 . S
C218 C219 1.384 1_565 S
C218 H241 0.930 . S
C219 C218 1.384 1_545 S
C219 C220 1.377 . S
C219 C222 1.481 . S
C220 C219 1.377 . S
C220 C221 1.389 . S
C220 H242 0.929 . S
C221 C217 1.397 . S
C221 C220 1.389 . S
C221 H243 0.931 . S
C222 C219 1.481 . S
C222 C223 1.387 1_545 S
C222 C227 1.390 . S
C223 C222 1.387 1_565 S
C223 C224 1.401 . S
C223 H244 0.930 . S
C224 C223 1.401 . S
C224 C225 1.376 1_565 S
C224 C233 1.511 . S
C225 C224 1.376 1_545 S
C225 C226 1.392 . S
C225 H246 0.931 . S
C226 C225 1.392 . S
C226 C227 1.361 . S
C226 C228 1.500 . S
C227 C222 1.390 . S
C227 C226 1.361 . S
C227 H245 0.931 . S
C228 C226 1.500 . S
C228 C229 1.371 . S
C228 C230 1.365 . S
C229 C228 1.371 . S
C229 C239 1.386 . S
C229 H247 0.931 . S
C230 C228 1.365 . S
C230 C231 1.409 . S
C230 H248 0.929 . S
C231 C230 1.409 . S
C231 C232 1.380 . S
C231 H249 0.930 . S
C232 C231 1.380 . S
C232 C239 1.357 . S
C233 C224 1.511 . S
C233 C234 1.341 . S
C233 C235 1.371 . S
C234 C233 1.341 . S
C234 C238 1.394 . S
C234 H250 0.930 . S
C235 C233 1.371 . S
C235 C236 1.392 . S
C235 H251 0.931 . S
C236 C235 1.392 . S
C236 C237 1.331 . S
C236 H254 0.932 . S
C237 C236 1.331 . S
C237 C238 1.336 . S
C238 C234 1.394 . S
C238 C237 1.336 . S
C238 H253 0.929 . S
C239 C229 1.386 . S
C239 C232 1.357 . S
C239 H252 0.928 . S
H240 C216 0.931 . S
H241 C218 0.930 . S
H242 C220 0.929 . S
H243 C221 0.931 . S
H244 C223 0.930 . S
H245 C227 0.931 . S
H246 C225 0.931 . S
H247 C229 0.931 . S
H248 C230 0.929 . S
H249 C231 0.930 . S
H250 C234 0.930 . S
H251 C235 0.931 . S
H252 C239 0.928 . S
H253 C238 0.929 . S
H254 C236 0.932 . S
C255 C256 1.386 . S
C255 C257 1.397 . S
C255 H279 0.931 . S
C256 C255 1.386 . S
C256 C260 1.397 . S
C257 C255 1.397 . S
C257 C258 1.384 . S
C257 H280 0.930 . S
C258 C257 1.384 . S
C258 C259 1.377 . S
C258 C261 1.481 . S
C259 C258 1.377 . S
C259 C260 1.389 . S
C259 H281 0.929 . S
C260 C256 1.397 . S
C260 C259 1.389 . S
C260 H282 0.931 . S
C261 C258 1.481 . S
C261 C262 1.387 . S
C261 C266 1.390 . S
C262 C261 1.387 . S
C262 C263 1.401 . S
C262 H283 0.930 . S
C263 C262 1.401 . S
C263 C264 1.376 . S
C263 C272 1.511 . S
C264 C263 1.376 . S
C264 C265 1.392 . S
C264 H285 0.931 . S
C265 C264 1.392 . S
C265 C266 1.361 . S
C265 C267 1.500 . S
C266 C261 1.390 . S
C266 C265 1.361 . S
C266 H284 0.931 . S
C267 C265 1.500 . S
C267 C268 1.371 . S
C267 C269 1.365 . S
C268 C267 1.371 . S
C268 C278 1.386 . S
C268 H286 0.931 . S
C269 C267 1.365 . S
C269 C270 1.409 . S
C269 H287 0.929 . S
C270 C269 1.409 . S
C270 C271 1.380 . S
C270 H288 0.930 . S
C271 C270 1.380 . S
C271 C278 1.357 . S
C272 C263 1.511 . S
C272 C273 1.341 . S
C272 C274 1.371 . S
C273 C272 1.341 . S
C273 C277 1.394 . S
C273 H289 0.930 . S
C274 C272 1.371 . S
C274 C275 1.392 . S
C274 H290 0.931 . S
C275 C274 1.392 . S
C275 C276 1.331 . S
C275 H293 0.932 . S
C276 C275 1.331 . S
C276 C277 1.336 . S
C277 C273 1.394 . S
C277 C276 1.336 . S
C277 H292 0.929 . S
C278 C268 1.386 . S
C278 C271 1.357 . S
C278 H291 0.928 . S
H279 C255 0.931 . S
H280 C257 0.930 . S
H281 C259 0.929 . S
H282 C260 0.931 . S
H283 C262 0.930 . S
H284 C266 0.931 . S
H285 C264 0.931 . S
H286 C268 0.931 . S
H287 C269 0.929 . S
H288 C270 0.930 . S
H289 C273 0.930 . S
H290 C274 0.931 . S
H291 C278 0.928 . S
H292 C277 0.929 . S
H293 C275 0.932 . S
H294 C312 0.951 . S
H295 C314 0.951 . S
H296 C316 0.950 . S
H297 C317 0.950 . S
H298 C319 0.950 . S
H299 C322 0.950 . S
H300 C323 0.950 . S
H301 C325 0.950 . S
H302 C326 0.950 . S
H303 C327 0.951 . S
H304 C329 0.951 . S
H305 C331 0.950 . S
H306 C332 0.950 . S
H307 C334 0.950 . S
H308 C337 0.950 . S
H309 C338 0.950 . S
H310 C340 0.950 . S
H311 C341 0.950 . S
C312 H294 0.951 . S
C312 C313 1.366 . S
C312 C314 1.388 . S
C313 C312 1.366 . S
C313 C317 1.385 . S
C314 H295 0.951 . S
C314 C312 1.388 . S
C314 C315 1.366 . S
C315 C314 1.366 . S
C315 C316 1.414 . S
C315 C318 1.499 . S
C316 H296 0.950 . S
C316 C315 1.414 . S
C316 C317 1.374 . S
C317 H297 0.950 . S
C317 C313 1.385 . S
C317 C316 1.374 . S
C318 C315 1.499 . S
C318 C319 1.373 . S
C318 C320 1.389 . S
C319 H298 0.950 . S
C319 C318 1.373 . S
C319 C335 1.377 . S
C320 C318 1.389 . S
C320 C321 1.524 . S
C320 C334 1.377 . S
C321 C320 1.524 . S
C321 C322 1.397 . S
C321 C326 1.363 . S
C322 H299 0.950 . S
C322 C321 1.397 . S
C322 C323 1.334 . S
C323 H300 0.950 . S
C323 C322 1.334 . S
C323 C324 1.287 . S
C324 C323 1.287 . S
C324 C325 1.524 . S
C324 H343 0.913 . S
C325 H301 0.950 . S
C325 C324 1.524 . S
C325 C326 1.415 . S
C326 H302 0.950 . S
C326 C321 1.363 . S
C326 C325 1.415 . S
C327 H303 0.951 . S
C327 C328 1.366 . S
C327 C329 1.388 . S
C328 C327 1.366 . S
C328 C332 1.385 . S
C329 H304 0.951 . S
C329 C327 1.388 . S
C329 C330 1.366 . S
C330 C329 1.366 . S
C330 C331 1.414 . S
C330 C333 1.499 . S
C331 H305 0.950 . S
C331 C330 1.414 . S
C331 C332 1.374 . S
C332 H306 0.950 . S
C332 C328 1.385 . S
C332 C331 1.374 . S
C333 C330 1.499 . S
C333 C334 1.373 . S
C333 C335 1.389 . S
C334 H307 0.950 . S
C334 C320 1.377 . S
C334 C333 1.373 . S
C335 C319 1.377 . S
C335 C333 1.389 . S
C335 C336 1.524 . S
C336 C335 1.524 . S
C336 C337 1.397 . S
C336 C341 1.363 . S
C337 H308 0.950 . S
C337 C336 1.397 . S
C337 C338 1.334 . S
C338 H309 0.950 . S
C338 C337 1.334 . S
C338 C339 1.287 . S
C339 C338 1.287 . S
C339 C340 1.524 . S
C339 H342 0.999 . S
C340 H310 0.950 . S
C340 C339 1.524 . S
C340 C341 1.415 . S
C341 H311 0.950 . S
C341 C336 1.363 . S
C341 C340 1.415 . S
H342 C339 0.999 . S
H343 C324 0.913 . S
H344 C362 0.951 . S
H345 C364 0.951 . S
H346 C366 0.950 . S
H347 C367 0.950 . S
H348 C369 0.950 . S
H349 C372 0.950 . S
H350 C373 0.950 . S
H351 C375 0.950 . S
H352 C376 0.950 . S
H353 C377 0.951 . S
H354 C379 0.951 . S
H355 C381 0.950 . S
H356 C382 0.950 . S
H357 C384 0.950 . S
H358 C387 0.950 . S
H359 C388 0.950 . S
H360 C390 0.950 . S
H361 C391 0.950 . S
C362 H344 0.951 . S
C362 C363 1.366 . S
C362 C364 1.388 . S
C363 C362 1.366 . S
C363 C367 1.385 . S
C364 H345 0.951 . S
C364 C362 1.388 . S
C364 C365 1.366 . S
C365 C364 1.366 . S
C365 C366 1.414 . S
C365 C368 1.499 . S
C366 H346 0.950 . S
C366 C365 1.414 . S
C366 C367 1.374 . S
C367 H347 0.950 . S
C367 C363 1.385 . S
C367 C366 1.374 . S
C368 C365 1.499 . S
C368 C369 1.373 . S
C368 C370 1.389 . S
C369 H348 0.950 . S
C369 C368 1.373 . S
C369 C385 1.377 . S
C370 C368 1.389 . S
C370 C371 1.524 . S
C370 C384 1.377 . S
C371 C370 1.524 . S
C371 C372 1.397 . S
C371 C376 1.363 . S
C372 H349 0.950 . S
C372 C371 1.397 . S
C372 C373 1.334 . S
C373 H350 0.950 . S
C373 C372 1.334 . S
C373 C374 1.287 . S
C374 C373 1.287 . S
C374 C375 1.524 . S
C374 H393 0.913 . S
C375 H351 0.950 . S
C375 C374 1.524 . S
C375 C376 1.415 . S
C376 H352 0.950 . S
C376 C371 1.363 . S
C376 C375 1.415 . S
C377 H353 0.951 . S
C377 C378 1.366 . S
C377 C379 1.388 . S
C378 C377 1.366 . S
C378 C382 1.385 . S
C379 H354 0.951 . S
C379 C377 1.388 . S
C379 C380 1.366 . S
C380 C379 1.366 . S
C380 C381 1.414 . S
C380 C383 1.499 . S
C381 H355 0.950 . S
C381 C380 1.414 . S
C381 C382 1.374 . S
C382 H356 0.950 . S
C382 C378 1.385 . S
C382 C381 1.374 . S
C383 C380 1.499 . S
C383 C384 1.373 . S
C383 C385 1.389 . S
C384 H357 0.950 . S
C384 C370 1.377 . S
C384 C383 1.373 . S
C385 C369 1.377 . S
C385 C383 1.389 . S
C385 C386 1.524 . S
C386 C385 1.524 . S
C386 C387 1.397 . S
C386 C391 1.363 . S
C387 H358 0.950 . S
C387 C386 1.397 . S
C387 C388 1.334 . S
C388 H359 0.950 . S
C388 C387 1.334 . S
C388 C389 1.287 . S
C389 C388 1.287 . S
C389 C390 1.524 . S
C389 H392 0.999 . S
C390 H360 0.950 . S
C390 C389 1.524 . S
C390 C391 1.415 . S
C391 H361 0.950 . S
C391 C386 1.363 . S
C391 C390 1.415 . S
H392 C389 0.999 . S
H393 C374 0.913 . S
H394 C412 0.951 . S
H395 C414 0.951 . S
H396 C416 0.950 . S
H397 C417 0.950 . S
H398 C419 0.950 . S
H399 C422 0.950 . S
H400 C423 0.950 . S
H401 C425 0.950 . S
H402 C426 0.950 . S
H403 C427 0.951 . S
H404 C429 0.951 . S
H405 C431 0.950 . S
H406 C432 0.950 . S
H407 C434 0.950 . S
H408 C437 0.950 . S
H409 C438 0.950 . S
H410 C440 0.950 . S
H411 C441 0.950 . S
C412 H394 0.951 . S
C412 C413 1.366 . S
C412 C414 1.388 . S
C413 C412 1.366 . S
C413 C417 1.385 . S
C414 H395 0.951 . S
C414 C412 1.388 . S
C414 C415 1.366 . S
C415 C414 1.366 . S
C415 C416 1.414 . S
C415 C418 1.499 . S
C416 H396 0.950 . S
C416 C415 1.414 . S
C416 C417 1.374 . S
C417 H397 0.950 . S
C417 C413 1.385 . S
C417 C416 1.374 . S
C418 C415 1.499 . S
C418 C419 1.373 . S
C418 C420 1.389 . S
C419 H398 0.950 . S
C419 C418 1.373 . S
C419 C435 1.377 . S
C420 C418 1.389 . S
C420 C421 1.524 . S
C420 C434 1.377 . S
C421 C420 1.524 . S
C421 C422 1.397 . S
C421 C426 1.363 . S
C422 H399 0.950 . S
C422 C421 1.397 . S
C422 C423 1.334 . S
C423 H400 0.950 . S
C423 C422 1.334 . S
C423 C424 1.287 . S
C424 C423 1.287 . S
C424 C425 1.524 . S
C424 H443 0.913 . S
C425 H401 0.950 . S
C425 C424 1.524 . S
C425 C426 1.415 . S
C426 H402 0.950 . S
C426 C421 1.363 . S
C426 C425 1.415 . S
C427 H403 0.951 . S
C427 C428 1.366 . S
C427 C429 1.388 . S
C428 C427 1.366 . S
C428 C432 1.385 . S
C429 H404 0.951 . S
C429 C427 1.388 . S
C429 C430 1.366 . S
C430 C429 1.366 . S
C430 C431 1.414 . S
C430 C433 1.499 . S
C431 H405 0.950 . S
C431 C430 1.414 . S
C431 C432 1.374 . S
C432 H406 0.950 . S
C432 C428 1.385 . S
C432 C431 1.374 . S
C433 C430 1.499 . S
C433 C434 1.373 . S
C433 C435 1.389 . S
C434 H407 0.950 . S
C434 C420 1.377 . S
C434 C433 1.373 . S
C435 C419 1.377 . S
C435 C433 1.389 . S
C435 C436 1.524 . S
C436 C435 1.524 . S
C436 C437 1.397 . S
C436 C441 1.363 . S
C437 H408 0.950 . S
C437 C436 1.397 . S
C437 C438 1.334 . S
C438 H409 0.950 . S
C438 C437 1.334 . S
C438 C439 1.287 . S
C439 C438 1.287 . S
C439 C440 1.524 . S
C439 H442 0.999 . S
C440 H410 0.950 . S
C440 C439 1.524 . S
C440 C441 1.415 . S
C441 H411 0.950 . S
C441 C436 1.363 . S
C441 C440 1.415 . S
H442 C439 0.999 . S
H443 C424 0.913 . S
H444 C462 0.951 . S
H445 C464 0.951 . S
H446 C466 0.950 . S
H447 C467 0.950 . S
H448 C469 0.950 . S
H449 C472 0.950 . S
H450 C473 0.950 . S
H451 C475 0.950 . S
H452 C476 0.950 . S
H453 C477 0.951 . S
H454 C479 0.951 . S
H455 C481 0.950 . S
H456 C482 0.950 . S
H457 C484 0.950 . S
H458 C487 0.950 . S
H459 C488 0.950 . S
H460 C490 0.950 . S
H461 C491 0.950 . S
C462 H444 0.951 . S
C462 C463 1.366 . S
C462 C464 1.388 . S
C463 C462 1.366 . S
C463 C467 1.385 . S
C464 H445 0.951 . S
C464 C462 1.388 . S
C464 C465 1.366 . S
C465 C464 1.366 . S
C465 C466 1.414 . S
C465 C468 1.499 . S
C466 H446 0.950 . S
C466 C465 1.414 . S
C466 C467 1.374 . S
C467 H447 0.950 . S
C467 C463 1.385 . S
C467 C466 1.374 . S
C468 C465 1.499 . S
C468 C469 1.373 . S
C468 C470 1.389 . S
C469 H448 0.950 . S
C469 C468 1.373 . S
C469 C485 1.377 . S
C470 C468 1.389 . S
C470 C471 1.524 . S
C470 C484 1.377 . S
C471 C470 1.524 . S
C471 C472 1.397 . S
C471 C476 1.363 . S
C472 H449 0.950 . S
C472 C471 1.397 . S
C472 C473 1.334 . S
C473 H450 0.950 . S
C473 C472 1.334 . S
C473 C474 1.287 . S
C474 C473 1.287 . S
C474 C475 1.524 . S
C474 H493 0.913 . S
C475 H451 0.950 . S
C475 C474 1.524 . S
C475 C476 1.415 . S
C476 H452 0.950 . S
C476 C471 1.363 . S
C476 C475 1.415 . S
C477 H453 0.951 . S
C477 C478 1.366 . S
C477 C479 1.388 . S
C478 C477 1.366 . S
C478 C482 1.385 . S
C479 H454 0.951 . S
C479 C477 1.388 . S
C479 C480 1.366 . S
C480 C479 1.366 . S
C480 C481 1.414 . S
C480 C483 1.499 . S
C481 H455 0.950 . S
C481 C480 1.414 . S
C481 C482 1.374 . S
C482 H456 0.950 . S
C482 C478 1.385 . S
C482 C481 1.374 . S
C483 C480 1.499 . S
C483 C484 1.373 . S
C483 C485 1.389 . S
C484 H457 0.950 . S
C484 C470 1.377 . S
C484 C483 1.373 . S
C485 C469 1.377 . S
C485 C483 1.389 . S
C485 C486 1.524 . S
C486 C485 1.524 . S
C486 C487 1.397 . S
C486 C491 1.363 . S
C487 H458 0.950 . S
C487 C486 1.397 . S
C487 C488 1.334 . S
C488 H459 0.950 . S
C488 C487 1.334 . S
C488 C489 1.287 . S
C489 C488 1.287 . S
C489 C490 1.524 . S
C489 H492 0.999 . S
C490 H460 0.950 . S
C490 C489 1.524 . S
C490 C491 1.415 . S
C491 H461 0.950 . S
C491 C486 1.363 . S
C491 C490 1.415 . S
H492 C489 0.999 . S
H493 C474 0.913 . S
H494 C512 0.951 . S
H495 C514 0.951 . S
H496 C516 0.950 . S
H497 C517 0.950 . S
H498 C519 0.950 . S
H499 C522 0.950 . S
H500 C523 0.950 . S
H501 C525 0.950 . S
H502 C526 0.950 . S
H503 C527 0.951 . S
H504 C529 0.951 . S
H505 C531 0.950 . S
H506 C532 0.950 . S
H507 C534 0.950 . S
H508 C537 0.950 . S
H509 C538 0.950 . S
H510 C540 0.950 . S
H511 C541 0.950 . S
C512 H494 0.951 . S
C512 C513 1.366 . S
C512 C514 1.388 . S
C513 C512 1.366 . S
C513 C517 1.385 . S
C514 H495 0.951 . S
C514 C512 1.388 . S
C514 C515 1.366 . S
C515 C514 1.366 . S
C515 C516 1.414 . S
C515 C518 1.499 . S
C516 H496 0.950 . S
C516 C515 1.414 . S
C516 C517 1.374 . S
C517 H497 0.950 . S
C517 C513 1.385 . S
C517 C516 1.374 . S
C518 C515 1.499 . S
C518 C519 1.373 . S
C518 C520 1.389 . S
C519 H498 0.950 . S
C519 C518 1.373 . S
C519 C535 1.377 . S
C520 C518 1.389 . S
C520 C521 1.524 . S
C520 C534 1.377 . S
C521 C520 1.524 . S
C521 C522 1.397 . S
C521 C526 1.363 . S
C522 H499 0.950 . S
C522 C521 1.397 . S
C522 C523 1.334 . S
C523 H500 0.950 . S
C523 C522 1.334 . S
C523 C524 1.287 . S
C524 C523 1.287 . S
C524 C525 1.524 . S
C524 H543 0.913 . S
C525 H501 0.950 . S
C525 C524 1.524 . S
C525 C526 1.415 . S
C526 H502 0.950 . S
C526 C521 1.363 . S
C526 C525 1.415 . S
C527 H503 0.951 . S
C527 C528 1.366 . S
C527 C529 1.388 . S
C528 C527 1.366 . S
C528 C532 1.385 . S
C529 H504 0.951 . S
C529 C527 1.388 . S
C529 C530 1.366 . S
C530 C529 1.366 . S
C530 C531 1.414 . S
C530 C533 1.499 . S
C531 H505 0.950 . S
C531 C530 1.414 . S
C531 C532 1.374 . S
C532 H506 0.950 . S
C532 C528 1.385 . S
C532 C531 1.374 . S
C533 C530 1.499 . S
C533 C534 1.373 . S
C533 C535 1.389 . S
C534 H507 0.950 . S
C534 C520 1.377 . S
C534 C533 1.373 . S
C535 C519 1.377 . S
C535 C533 1.389 . S
C535 C536 1.524 . S
C536 C535 1.524 . S
C536 C537 1.397 . S
C536 C541 1.363 . S
C537 H508 0.950 . S
C537 C536 1.397 . S
C537 C538 1.334 . S
C538 H509 0.950 . S
C538 C537 1.334 . S
C538 C539 1.287 . S
C539 C538 1.287 . S
C539 C540 1.524 . S
C539 H542 0.999 . S
C540 H510 0.950 . S
C540 C539 1.524 . S
C540 C541 1.415 . S
C541 H511 0.950 . S
C541 C536 1.363 . S
C541 C540 1.415 . S
H542 C539 0.999 . S
H543 C524 0.913 . S
H544 C562 0.951 . S
H545 C564 0.951 . S
H546 C566 0.950 . S
H547 C567 0.950 . S
H548 C569 0.950 . S
H549 C572 0.950 . S
H550 C573 0.950 . S
H551 C575 0.950 . S
H552 C576 0.950 . S
H553 C577 0.951 . S
H554 C579 0.951 . S
H555 C581 0.950 . S
H556 C582 0.950 . S
H557 C584 0.950 . S
H558 C587 0.950 . S
H559 C588 0.950 . S
H560 C590 0.950 . S
H561 C591 0.950 . S
C562 H544 0.951 . S
C562 C563 1.366 . S
C562 C564 1.388 . S
C563 C562 1.366 . S
C563 C567 1.385 . S
C564 H545 0.951 . S
C564 C562 1.388 . S
C564 C565 1.366 . S
C565 C564 1.366 . S
C565 C566 1.414 . S
C565 C568 1.499 . S
C566 H546 0.950 . S
C566 C565 1.414 . S
C566 C567 1.374 . S
C567 H547 0.950 . S
C567 C563 1.385 . S
C567 C566 1.374 . S
C568 C565 1.499 . S
C568 C569 1.373 . S
C568 C570 1.389 . S
C569 H548 0.950 . S
C569 C568 1.373 . S
C569 C585 1.377 . S
C570 C568 1.389 . S
C570 C571 1.524 . S
C570 C584 1.377 . S
C571 C570 1.524 . S
C571 C572 1.397 . S
C571 C576 1.363 . S
C572 H549 0.950 . S
C572 C571 1.397 . S
C572 C573 1.334 . S
C573 H550 0.950 . S
C573 C572 1.334 . S
C573 C574 1.287 . S
C574 C573 1.287 . S
C574 C575 1.524 . S
C574 H593 0.913 . S
C575 H551 0.950 . S
C575 C574 1.524 . S
C575 C576 1.415 . S
C576 H552 0.950 . S
C576 C571 1.363 . S
C576 C575 1.415 . S
C577 H553 0.951 . S
C577 C578 1.366 . S
C577 C579 1.388 . S
C578 C577 1.366 . S
C578 C582 1.385 . S
C579 H554 0.951 . S
C579 C577 1.388 . S
C579 C580 1.366 . S
C580 C579 1.366 . S
C580 C581 1.414 . S
C580 C583 1.499 . S
C581 H555 0.950 . S
C581 C580 1.414 . S
C581 C582 1.374 . S
C582 H556 0.950 . S
C582 C578 1.385 . S
C582 C581 1.374 . S
C583 C580 1.499 . S
C583 C584 1.373 . S
C583 C585 1.389 . S
C584 H557 0.950 . S
C584 C570 1.377 . S
C584 C583 1.373 . S
C585 C569 1.377 . S
C585 C583 1.389 . S
C585 C586 1.524 . S
C586 C585 1.524 . S
C586 C587 1.397 . S
C586 C591 1.363 . S
C587 H558 0.950 . S
C587 C586 1.397 . S
C587 C588 1.334 . S
C588 H559 0.950 . S
C588 C587 1.334 . S
C588 C589 1.287 . S
C589 C588 1.287 . S
C589 C590 1.524 . S
C589 H592 0.999 . S
C590 H560 0.950 . S
C590 C589 1.524 . S
C590 C591 1.415 . S
C591 H561 0.950 . S
C591 C586 1.363 . S
C591 C590 1.415 . S
H592 C589 0.999 . S
H593 C574 0.913 . S
H594 C612 0.951 . S
H595 C614 0.951 . S
H596 C616 0.950 . S
H597 C617 0.950 . S
H598 C619 0.950 . S
H599 C622 0.950 . S
H600 C623 0.950 . S
H601 C625 0.950 . S
H602 C626 0.950 . S
H603 C627 0.951 . S
H604 C629 0.951 . S
H605 C631 0.950 . S
H606 C632 0.950 . S
H607 C634 0.950 . S
H608 C637 0.950 . S
H609 C638 0.950 . S
H610 C640 0.950 . S
H611 C641 0.950 . S
C612 H594 0.951 . S
C612 C613 1.366 . S
C612 C614 1.388 . S
C613 C612 1.366 . S
C613 C617 1.385 . S
C614 H595 0.951 . S
C614 C612 1.388 . S
C614 C615 1.366 . S
C615 C614 1.366 . S
C615 C616 1.414 . S
C615 C618 1.499 . S
C616 H596 0.950 . S
C616 C615 1.414 . S
C616 C617 1.374 . S
C617 H597 0.950 . S
C617 C613 1.385 . S
C617 C616 1.374 . S
C618 C615 1.499 . S
C618 C619 1.373 . S
C618 C620 1.389 . S
C619 H598 0.950 . S
C619 C618 1.373 . S
C619 C635 1.377 . S
C620 C618 1.389 . S
C620 C621 1.524 . S
C620 C634 1.377 . S
C621 C620 1.524 . S
C621 C622 1.397 . S
C621 C626 1.363 . S
C622 H599 0.950 . S
C622 C621 1.397 . S
C622 C623 1.334 . S
C623 H600 0.950 . S
C623 C622 1.334 . S
C623 C624 1.287 . S
C624 C623 1.287 . S
C624 C625 1.524 . S
C624 H643 0.913 . S
C625 H601 0.950 . S
C625 C624 1.524 . S
C625 C626 1.415 . S
C626 H602 0.950 . S
C626 C621 1.363 . S
C626 C625 1.415 . S
C627 H603 0.951 . S
C627 C628 1.366 . S
C627 C629 1.388 . S
C628 C627 1.366 . S
C628 C632 1.385 . S
C629 H604 0.951 . S
C629 C627 1.388 . S
C629 C630 1.366 . S
C630 C629 1.366 . S
C630 C631 1.414 . S
C630 C633 1.499 . S
C631 H605 0.950 . S
C631 C630 1.414 . S
C631 C632 1.374 . S
C632 H606 0.950 . S
C632 C628 1.385 . S
C632 C631 1.374 . S
C633 C630 1.499 . S
C633 C634 1.373 . S
C633 C635 1.389 . S
C634 H607 0.950 . S
C634 C620 1.377 . S
C634 C633 1.373 . S
C635 C619 1.377 . S
C635 C633 1.389 . S
C635 C636 1.524 . S
C636 C635 1.524 . S
C636 C637 1.397 . S
C636 C641 1.363 . S
C637 H608 0.950 . S
C637 C636 1.397 . S
C637 C638 1.334 . S
C638 H609 0.950 . S
C638 C637 1.334 . S
C638 C639 1.287 . S
C639 C638 1.287 . S
C639 C640 1.524 . S
C639 H642 0.999 . S
C640 H610 0.950 . S
C640 C639 1.524 . S
C640 C641 1.415 . S
C641 H611 0.950 . S
C641 C636 1.363 . S
C641 C640 1.415 . S
H642 C639 0.999 . S
H643 C624 0.913 . S
H644 C662 0.951 . S
H645 C664 0.951 . S
H646 C666 0.950 . S
H647 C667 0.950 . S
H648 C669 0.950 . S
H649 C672 0.950 . S
H650 C673 0.950 . S
H651 C675 0.950 . S
H652 C676 0.950 . S
H653 C677 0.951 . S
H654 C679 0.951 . S
H655 C681 0.950 . S
H656 C682 0.950 . S
H657 C684 0.950 . S
H658 C687 0.950 . S
H659 C688 0.950 . S
H660 C690 0.950 . S
H661 C691 0.950 . S
C662 H644 0.951 . S
C662 C663 1.366 . S
C662 C664 1.388 . S
C663 C662 1.366 . S
C663 C667 1.385 . S
C664 H645 0.951 . S
C664 C662 1.388 . S
C664 C665 1.366 . S
C665 C664 1.366 . S
C665 C666 1.414 . S
C665 C668 1.499 . S
C666 H646 0.950 . S
C666 C665 1.414 . S
C666 C667 1.374 . S
C667 H647 0.950 . S
C667 C663 1.385 . S
C667 C666 1.374 . S
C668 C665 1.499 . S
C668 C669 1.373 . S
C668 C670 1.389 . S
C669 H648 0.950 . S
C669 C668 1.373 . S
C669 C685 1.377 . S
C670 C668 1.389 . S
C670 C671 1.524 . S
C670 C684 1.377 . S
C671 C670 1.524 . S
C671 C672 1.397 . S
C671 C676 1.363 . S
C672 H649 0.950 . S
C672 C671 1.397 . S
C672 C673 1.334 . S
C673 H650 0.950 . S
C673 C672 1.334 . S
C673 C674 1.287 . S
C674 C673 1.287 . S
C674 C675 1.524 . S
C674 H693 0.913 . S
C675 H651 0.950 . S
C675 C674 1.524 . S
C675 C676 1.415 . S
C676 H652 0.950 . S
C676 C671 1.363 . S
C676 C675 1.415 . S
C677 H653 0.951 . S
C677 C678 1.366 . S
C677 C679 1.388 . S
C678 C677 1.366 . S
C678 C682 1.385 . S
C679 H654 0.951 . S
C679 C677 1.388 . S
C679 C680 1.366 . S
C680 C679 1.366 . S
C680 C681 1.414 . S
C680 C683 1.499 . S
C681 H655 0.950 . S
C681 C680 1.414 . S
C681 C682 1.374 . S
C682 H656 0.950 . S
C682 C678 1.385 . S
C682 C681 1.374 . S
C683 C680 1.499 . S
C683 C684 1.373 . S
C683 C685 1.389 . S
C684 H657 0.950 . S
C684 C670 1.377 . S
C684 C683 1.373 . S
C685 C669 1.377 . S
C685 C683 1.389 . S
C685 C686 1.524 . S
C686 C685 1.524 . S
C686 C687 1.397 . S
C686 C691 1.363 . S
C687 H658 0.950 . S
C687 C686 1.397 . S
C687 C688 1.334 . S
C688 H659 0.950 . S
C688 C687 1.334 . S
C688 C689 1.287 . S
C689 C688 1.287 . S
C689 C690 1.524 . S
C689 H692 0.999 . S
C690 H660 0.950 . S
C690 C689 1.524 . S
C690 C691 1.415 . S
C691 H661 0.950 . S
C691 C686 1.363 . S
C691 C690 1.415 . S
H692 C689 0.999 . S
H693 C674 0.913 . S
H694 C712 0.951 . S
H695 C714 0.951 . S
H696 C716 0.950 . S
H697 C717 0.950 . S
H698 C719 0.950 . S
H699 C722 0.950 . S
H700 C723 0.950 . S
H701 C725 0.950 . S
H702 C726 0.950 . S
H703 C727 0.951 . S
H704 C729 0.951 . S
H705 C731 0.950 . S
H706 C732 0.950 . S
H707 C734 0.950 . S
H708 C737 0.950 . S
H709 C738 0.950 . S
H710 C740 0.950 . S
H711 C741 0.950 . S
C712 H694 0.951 . S
C712 C713 1.366 . S
C712 C714 1.388 . S
C713 C712 1.366 . S
C713 C717 1.385 . S
C714 H695 0.951 . S
C714 C712 1.388 . S
C714 C715 1.366 . S
C715 C714 1.366 . S
C715 C716 1.414 . S
C715 C718 1.499 . S
C716 H696 0.950 . S
C716 C715 1.414 . S
C716 C717 1.374 . S
C717 H697 0.950 . S
C717 C713 1.385 . S
C717 C716 1.374 . S
C718 C715 1.499 . S
C718 C719 1.373 . S
C718 C720 1.389 . S
C719 H698 0.950 . S
C719 C718 1.373 . S
C719 C735 1.377 . S
C720 C718 1.389 . S
C720 C721 1.524 . S
C720 C734 1.377 . S
C721 C720 1.524 . S
C721 C722 1.397 . S
C721 C726 1.363 . S
C722 H699 0.950 . S
C722 C721 1.397 . S
C722 C723 1.334 . S
C723 H700 0.950 . S
C723 C722 1.334 . S
C723 C724 1.287 . S
C724 C723 1.287 . S
C724 C725 1.524 . S
C724 H743 0.913 . S
C725 H701 0.950 . S
C725 C724 1.524 . S
C725 C726 1.415 . S
C726 H702 0.950 . S
C726 C721 1.363 . S
C726 C725 1.415 . S
C727 H703 0.951 . S
C727 C728 1.366 . S
C727 C729 1.388 . S
C728 C727 1.366 . S
C728 C732 1.385 . S
C729 H704 0.951 . S
C729 C727 1.388 . S
C729 C730 1.366 . S
C730 C729 1.366 . S
C730 C731 1.414 . S
C730 C733 1.499 . S
C731 H705 0.950 . S
C731 C730 1.414 . S
C731 C732 1.374 . S
C732 H706 0.950 . S
C732 C728 1.385 . S
C732 C731 1.374 . S
C733 C730 1.499 . S
C733 C734 1.373 . S
C733 C735 1.389 . S
C734 H707 0.950 . S
C734 C720 1.377 . S
C734 C733 1.373 . S
C735 C719 1.377 . S
C735 C733 1.389 . S
C735 C736 1.524 . S
C736 C735 1.524 . S
C736 C737 1.397 . S
C736 C741 1.363 . S
C737 H708 0.950 . S
C737 C736 1.397 . S
C737 C738 1.334 . S
C738 H709 0.950 . S
C738 C737 1.334 . S
C738 C739 1.287 . S
C739 C738 1.287 . S
C739 C740 1.524 . S
C739 H742 0.999 . S
C740 H710 0.950 . S
C740 C739 1.524 . S
C740 C741 1.415 . S
C741 H711 0.950 . S
C741 C736 1.363 . S
C741 C740 1.415 . S
H742 C739 0.999 . S
H743 C724 0.913 . S
H744 C762 0.951 . S
H745 C764 0.951 . S
H746 C766 0.950 . S
H747 C767 0.950 . S
H748 C769 0.950 . S
H749 C772 0.950 . S
H750 C773 0.950 . S
H751 C775 0.950 . S
H752 C776 0.950 . S
H753 C777 0.951 . S
H754 C779 0.951 . S
H755 C781 0.950 . S
H756 C782 0.950 . S
H757 C784 0.950 . S
H758 C787 0.950 . S
H759 C788 0.950 . S
H760 C790 0.950 . S
H761 C791 0.950 . S
C762 H744 0.951 . S
C762 C763 1.366 . S
C762 C764 1.388 . S
C763 C762 1.366 . S
C763 C767 1.385 . S
C764 H745 0.951 . S
C764 C762 1.388 . S
C764 C765 1.366 . S
C765 C764 1.366 . S
C765 C766 1.414 . S
C765 C768 1.499 . S
C766 H746 0.950 . S
C766 C765 1.414 . S
C766 C767 1.374 . S
C767 H747 0.950 . S
C767 C763 1.385 . S
C767 C766 1.374 . S
C768 C765 1.499 . S
C768 C769 1.373 . S
C768 C770 1.389 . S
C769 H748 0.950 . S
C769 C768 1.373 . S
C769 C785 1.377 . S
C770 C768 1.389 . S
C770 C771 1.524 . S
C770 C784 1.377 . S
C771 C770 1.524 . S
C771 C772 1.397 . S
C771 C776 1.363 . S
C772 H749 0.950 . S
C772 C771 1.397 . S
C772 C773 1.334 . S
C773 H750 0.950 . S
C773 C772 1.334 . S
C773 C774 1.287 . S
C774 C773 1.287 . S
C774 C775 1.524 . S
C774 H793 0.913 . S
C775 H751 0.950 . S
C775 C774 1.524 . S
C775 C776 1.415 . S
C776 H752 0.950 . S
C776 C771 1.363 . S
C776 C775 1.415 . S
C777 H753 0.951 . S
C777 C778 1.366 . S
C777 C779 1.388 . S
C778 C777 1.366 . S
C778 C782 1.385 . S
C779 H754 0.951 . S
C779 C777 1.388 . S
C779 C780 1.366 . S
C780 C779 1.366 . S
C780 C781 1.414 . S
C780 C783 1.499 . S
C781 H755 0.950 . S
C781 C780 1.414 . S
C781 C782 1.374 . S
C782 H756 0.950 . S
C782 C778 1.385 . S
C782 C781 1.374 . S
C783 C780 1.499 . S
C783 C784 1.373 . S
C783 C785 1.389 . S
C784 H757 0.950 . S
C784 C770 1.377 . S
C784 C783 1.373 . S
C785 C769 1.377 . S
C785 C783 1.389 . S
C785 C786 1.524 . S
C786 C785 1.524 . S
C786 C787 1.397 . S
C786 C791 1.363 . S
C787 H758 0.950 . S
C787 C786 1.397 . S
C787 C788 1.334 . S
C788 H759 0.950 . S
C788 C787 1.334 . S
C788 C789 1.287 . S
C789 C788 1.287 . S
C789 C790 1.524 . S
C789 H792 0.999 . S
C790 H760 0.950 . S
C790 C789 1.524 . S
C790 C791 1.415 . S
C791 H761 0.950 . S
C791 C786 1.363 . S
C791 C790 1.415 . S
H792 C789 0.999 . S
H793 C774 0.913 . S
H794 C812 0.951 . S
H795 C814 0.951 . S
H796 C816 0.950 . S
H797 C817 0.950 . S
H798 C819 0.950 . S
H799 C822 0.950 . S
H800 C823 0.950 . S
H801 C825 0.950 . S
H802 C826 0.950 . S
H803 C827 0.951 . S
H804 C829 0.951 . S
H805 C831 0.950 . S
H806 C832 0.950 . S
H807 C834 0.950 . S
H808 C837 0.950 . S
H809 C838 0.950 . S
H810 C840 0.950 . S
H811 C841 0.950 . S
C812 H794 0.951 . S
C812 C813 1.366 . S
C812 C814 1.388 . S
C813 C812 1.366 . S
C813 C817 1.385 . S
C814 H795 0.951 . S
C814 C812 1.388 . S
C814 C815 1.366 . S
C815 C814 1.366 . S
C815 C816 1.414 . S
C815 C818 1.499 . S
C816 H796 0.950 . S
C816 C815 1.414 . S
C816 C817 1.374 . S
C817 H797 0.950 . S
C817 C813 1.385 . S
C817 C816 1.374 . S
C818 C815 1.499 . S
C818 C819 1.373 . S
C818 C820 1.389 . S
C819 H798 0.950 . S
C819 C818 1.373 . S
C819 C835 1.377 . S
C820 C818 1.389 . S
C820 C821 1.524 . S
C820 C834 1.377 . S
C821 C820 1.524 . S
C821 C822 1.397 . S
C821 C826 1.363 . S
C822 H799 0.950 . S
C822 C821 1.397 . S
C822 C823 1.334 . S
C823 H800 0.950 . S
C823 C822 1.334 . S
C823 C824 1.287 . S
C824 C823 1.287 . S
C824 C825 1.524 . S
C824 H843 0.913 . S
C825 H801 0.950 . S
C825 C824 1.524 . S
C825 C826 1.415 . S
C826 H802 0.950 . S
C826 C821 1.363 . S
C826 C825 1.415 . S
C827 H803 0.951 . S
C827 C828 1.366 . S
C827 C829 1.388 . S
C828 C827 1.366 . S
C828 C832 1.385 . S
C829 H804 0.951 . S
C829 C827 1.388 . S
C829 C830 1.366 . S
C830 C829 1.366 . S
C830 C831 1.414 . S
C830 C833 1.499 . S
C831 H805 0.950 . S
C831 C830 1.414 . S
C831 C832 1.374 . S
C832 H806 0.950 . S
C832 C828 1.385 . S
C832 C831 1.374 . S
C833 C830 1.499 . S
C833 C834 1.373 . S
C833 C835 1.389 . S
C834 H807 0.950 . S
C834 C820 1.377 . S
C834 C833 1.373 . S
C835 C819 1.377 . S
C835 C833 1.389 . S
C835 C836 1.524 . S
C836 C835 1.524 . S
C836 C837 1.397 . S
C836 C841 1.363 . S
C837 H808 0.950 . S
C837 C836 1.397 . S
C837 C838 1.334 . S
C838 H809 0.950 . S
C838 C837 1.334 . S
C838 C839 1.287 . S
C839 C838 1.287 . S
C839 C840 1.524 . S
C839 H842 0.999 . S
C840 H810 0.950 . S
C840 C839 1.524 . S
C840 C841 1.415 . S
C841 H811 0.950 . S
C841 C836 1.363 . S
C841 C840 1.415 . S
H842 C839 0.999 . S
H843 C824 0.913 . S
H844 C862 0.951 . S
H845 C864 0.951 . S
H846 C866 0.950 . S
H847 C867 0.950 . S
H848 C869 0.950 . S
H849 C872 0.950 . S
H850 C873 0.950 . S
H851 C875 0.950 . S
H852 C876 0.950 . S
H853 C877 0.951 . S
H854 C879 0.951 . S
H855 C881 0.950 . S
H856 C882 0.950 . S
H857 C884 0.950 . S
H858 C887 0.950 . S
H859 C888 0.950 . S
H860 C890 0.950 . S
H861 C891 0.950 . S
C862 H844 0.951 . S
C862 C863 1.366 . S
C862 C864 1.388 . S
C863 C862 1.366 . S
C863 C867 1.385 . S
C864 H845 0.951 . S
C864 C862 1.388 . S
C864 C865 1.366 . S
C865 C864 1.366 . S
C865 C866 1.414 . S
C865 C868 1.499 . S
C866 H846 0.950 . S
C866 C865 1.414 . S
C866 C867 1.374 . S
C867 H847 0.950 . S
C867 C863 1.385 . S
C867 C866 1.374 . S
C868 C865 1.499 . S
C868 C869 1.373 . S
C868 C870 1.389 . S
C869 H848 0.950 . S
C869 C868 1.373 . S
C869 C885 1.377 . S
C870 C868 1.389 . S
C870 C871 1.524 . S
C870 C884 1.377 . S
C871 C870 1.524 . S
C871 C872 1.397 . S
C871 C876 1.363 . S
C872 H849 0.950 . S
C872 C871 1.397 . S
C872 C873 1.334 . S
C873 H850 0.950 . S
C873 C872 1.334 . S
C873 C874 1.287 . S
C874 C873 1.287 . S
C874 C875 1.524 . S
C874 H893 0.913 . S
C875 H851 0.950 . S
C875 C874 1.524 . S
C875 C876 1.415 . S
C876 H852 0.950 . S
C876 C871 1.363 . S
C876 C875 1.415 . S
C877 H853 0.951 . S
C877 C878 1.366 . S
C877 C879 1.388 . S
C878 C877 1.366 . S
C878 C882 1.385 . S
C879 H854 0.951 . S
C879 C877 1.388 . S
C879 C880 1.366 . S
C880 C879 1.366 . S
C880 C881 1.414 . S
C880 C883 1.499 . S
C881 H855 0.950 . S
C881 C880 1.414 . S
C881 C882 1.374 . S
C882 H856 0.950 . S
C882 C878 1.385 . S
C882 C881 1.374 . S
C883 C880 1.499 . S
C883 C884 1.373 . S
C883 C885 1.389 . S
C884 H857 0.950 . S
C884 C870 1.377 . S
C884 C883 1.373 . S
C885 C869 1.377 . S
C885 C883 1.389 . S
C885 C886 1.524 . S
C886 C885 1.524 . S
C886 C887 1.397 . S
C886 C891 1.363 . S
C887 H858 0.950 . S
C887 C886 1.397 . S
C887 C888 1.334 . S
C888 H859 0.950 . S
C888 C887 1.334 . S
C888 C889 1.287 . S
C889 C888 1.287 . S
C889 C890 1.524 . S
C889 H892 0.999 . S
C890 H860 0.950 . S
C890 C889 1.524 . S
C890 C891 1.415 . S
C891 H861 0.950 . S
C891 C886 1.363 . S
C891 C890 1.415 . S
H892 C889 0.999 . S
H893 C874 0.913 . S
H894 C912 0.951 . S
H895 C914 0.951 . S
H896 C916 0.950 . S
H897 C917 0.950 1_655 S
H898 C919 0.950 . S
H899 C922 0.950 . S
H900 C923 0.950 . S
H901 C925 0.950 . S
H902 C926 0.950 . S
H903 C927 0.951 . S
H904 C929 0.951 . S
H905 C931 0.950 . S
H906 C932 0.950 . S
H907 C934 0.950 1_655 S
H908 C937 0.950 . S
H909 C938 0.950 . S
H910 C940 0.950 . S
H911 C941 0.950 . S
C912 H894 0.951 . S
C912 C913 1.366 . S
C912 C914 1.388 . S
C913 C912 1.366 . S
C913 C917 1.385 . S
C914 H895 0.951 . S
C914 C912 1.388 . S
C914 C915 1.366 . S
C915 C914 1.366 . S
C915 C916 1.414 . S
C915 C918 1.499 . S
C916 H896 0.950 . S
C916 C915 1.414 . S
C916 C917 1.374 . S
C917 H897 0.950 1_455 S
C917 C913 1.385 . S
C917 C916 1.374 . S
C918 C915 1.499 . S
C918 C919 1.373 . S
C918 C920 1.389 1_455 S
C919 H898 0.950 . S
C919 C918 1.373 . S
C919 C935 1.377 . S
C920 C918 1.389 1_655 S
C920 C921 1.524 . S
C920 C934 1.377 1_655 S
C921 C920 1.524 . S
C921 C922 1.397 . S
C921 C926 1.363 . S
C922 H899 0.950 . S
C922 C921 1.397 . S
C922 C923 1.334 . S
C923 H900 0.950 . S
C923 C922 1.334 . S
C923 C924 1.287 . S
C924 C923 1.287 . S
C924 C925 1.524 . S
C924 H943 0.913 . S
C925 H901 0.950 . S
C925 C924 1.524 . S
C925 C926 1.415 . S
C926 H902 0.950 . S
C926 C921 1.363 . S
C926 C925 1.415 . S
C927 H903 0.951 . S
C927 C928 1.366 . S
C927 C929 1.388 1_556 S
C928 C927 1.366 . S
C928 C932 1.385 . S
C929 H904 0.951 . S
C929 C927 1.388 1_554 S
C929 C930 1.366 . S
C930 C929 1.366 . S
C930 C931 1.414 . S
C930 C933 1.499 . S
C931 H905 0.950 . S
C931 C930 1.414 . S
C931 C932 1.374 1_554 S
C932 H906 0.950 . S
C932 C928 1.385 . S
C932 C931 1.374 1_556 S
C933 C930 1.499 . S
C933 C934 1.373 . S
C933 C935 1.389 . S
C934 H907 0.950 1_455 S
C934 C920 1.377 1_455 S
C934 C933 1.373 . S
C935 C919 1.377 . S
C935 C933 1.389 . S
C935 C936 1.524 . S
C936 C935 1.524 . S
C936 C937 1.397 . S
C936 C941 1.363 . S
C937 H908 0.950 . S
C937 C936 1.397 . S
C937 C938 1.334 . S
C938 H909 0.950 . S
C938 C937 1.334 . S
C938 C939 1.287 . S
C939 C938 1.287 . S
C939 C940 1.524 . S
C939 H942 0.999 . S
C940 H910 0.950 . S
C940 C939 1.524 . S
C940 C941 1.415 . S
C941 H911 0.950 . S
C941 C936 1.363 . S
C941 C940 1.415 . S
H942 C939 0.999 . S
H943 C924 0.913 . S
H944 C962 0.951 . S
H945 C964 0.951 . S
H946 C966 0.950 . S
H947 C967 0.950 . S
H948 C969 0.950 . S
H949 C972 0.950 . S
H950 C973 0.950 . S
H951 C975 0.950 . S
H952 C976 0.950 . S
H953 C977 0.951 . S
H954 C979 0.951 . S
H955 C981 0.950 1_565 S
H956 C982 0.950 1_565 S
H957 C984 0.950 . S
H958 C987 0.950 1_565 S
H959 C988 0.950 1_565 S
H960 C990 0.950 . S
H961 C991 0.950 . S
C962 H944 0.951 . S
C962 C963 1.366 1_565 S
C962 C964 1.388 . S
C963 C962 1.366 1_545 S
C963 C967 1.385 . S
C964 H945 0.951 . S
C964 C962 1.388 . S
C964 C965 1.366 1_565 S
C965 C964 1.366 1_545 S
C965 C966 1.414 . S
C965 C968 1.499 . S
C966 H946 0.950 . S
C966 C965 1.414 . S
C966 C967 1.374 . S
C967 H947 0.950 . S
C967 C963 1.385 . S
C967 C966 1.374 . S
C968 C965 1.499 . S
C968 C969 1.373 . S
C968 C970 1.389 . S
C969 H948 0.950 . S
C969 C968 1.373 . S
C969 C985 1.377 . S
C970 C968 1.389 . S
C970 C971 1.524 . S
C970 C984 1.377 . S
C971 C970 1.524 . S
C971 C972 1.397 . S
C971 C976 1.363 1_545 S
C972 H949 0.950 . S
C972 C971 1.397 . S
C972 C973 1.334 . S
C973 H950 0.950 . S
C973 C972 1.334 . S
C973 C974 1.287 . S
C974 C973 1.287 . S
C974 C975 1.524 1_545 S
C974 H993 0.913 . S
C975 H951 0.950 . S
C975 C974 1.524 1_565 S
C975 C976 1.415 . S
C976 H952 0.950 . S
C976 C971 1.363 1_565 S
C976 C975 1.415 . S
C977 H953 0.951 . S
C977 C978 1.366 . S
C977 C979 1.388 . S
C978 C977 1.366 . S
C978 C982 1.385 . S
C979 H954 0.951 . S
C979 C977 1.388 . S
C979 C980 1.366 . S
C980 C979 1.366 . S
C980 C981 1.414 . S
C980 C983 1.499 . S
C981 H955 0.950 1_545 S
C981 C980 1.414 . S
C981 C982 1.374 . S
C982 H956 0.950 1_545 S
C982 C978 1.385 . S
C982 C981 1.374 . S
C983 C980 1.499 . S
C983 C984 1.373 . S
C983 C985 1.389 . S
C984 H957 0.950 . S
C984 C970 1.377 . S
C984 C983 1.373 . S
C985 C969 1.377 . S
C985 C983 1.389 . S
C985 C986 1.524 . S
C986 C985 1.524 . S
C986 C987 1.397 . S
C986 C991 1.363 . S
C987 H958 0.950 1_545 S
C987 C986 1.397 . S
C987 C988 1.334 . S
C988 H959 0.950 1_545 S
C988 C987 1.334 . S
C988 C989 1.287 . S
C989 C988 1.287 . S
C989 C990 1.524 . S
C989 H992 0.999 . S
C990 H960 0.950 . S
C990 C989 1.524 . S
C990 C991 1.415 . S
C991 H961 0.950 . S
C991 C986 1.363 . S
C991 C990 1.415 . S
H992 C989 0.999 . S
H993 C974 0.913 . S
H994 C1012 0.951 . S
H995 C1014 0.951 . S
H996 C1016 0.950 . S
H997 C1017 0.950 . S
H998 C1019 0.950 . S
H999 C1022 0.950 . S
H1000 C1023 0.950 . S
H1001 C1025 0.950 . S
H1002 C1026 0.950 . S
H1003 C1027 0.951 . S
H1004 C1029 0.951 . S
H1005 C1031 0.950 . S
H1006 C1032 0.950 . S
H1007 C1034 0.950 . S
H1008 C1037 0.950 . S
H1009 C1038 0.950 . S
H1010 C1040 0.950 . S
H1011 C1041 0.950 . S
C1012 H994 0.951 . S
C1012 C1013 1.366 . S
C1012 C1014 1.388 . S
C1013 C1012 1.366 . S
C1013 C1017 1.385 . S
C1014 H995 0.951 . S
C1014 C1012 1.388 . S
C1014 C1015 1.366 . S
C1015 C1014 1.366 . S
C1015 C1016 1.414 . S
C1015 C1018 1.499 . S
C1016 H996 0.950 . S
C1016 C1015 1.414 . S
C1016 C1017 1.374 . S
C1017 H997 0.950 . S
C1017 C1013 1.385 . S
C1017 C1016 1.374 . S
C1018 C1015 1.499 . S
C1018 C1019 1.373 . S
C1018 C1020 1.389 . S
C1019 H998 0.950 . S
C1019 C1018 1.373 . S
C1019 C1035 1.377 . S
C1020 C1018 1.389 . S
C1020 C1021 1.524 . S
C1020 C1034 1.377 . S
C1021 C1020 1.524 . S
C1021 C1022 1.397 . S
C1021 C1026 1.363 . S
C1022 H999 0.950 . S
C1022 C1021 1.397 . S
C1022 C1023 1.334 . S
C1023 H1000 0.950 . S
C1023 C1022 1.334 . S
C1023 C1024 1.287 . S
C1024 C1023 1.287 . S
C1024 C1025 1.524 . S
C1024 H1043 0.913 . S
C1025 H1001 0.950 . S
C1025 C1024 1.524 . S
C1025 C1026 1.415 . S
C1026 H1002 0.950 . S
C1026 C1021 1.363 . S
C1026 C1025 1.415 . S
C1027 H1003 0.951 . S
C1027 C1028 1.366 . S
C1027 C1029 1.388 . S
C1028 C1027 1.366 . S
C1028 C1032 1.385 . S
C1029 H1004 0.951 . S
C1029 C1027 1.388 . S
C1029 C1030 1.366 . S
C1030 C1029 1.366 . S
C1030 C1031 1.414 . S
C1030 C1033 1.499 . S
C1031 H1005 0.950 . S
C1031 C1030 1.414 . S
C1031 C1032 1.374 . S
C1032 H1006 0.950 . S
C1032 C1028 1.385 . S
C1032 C1031 1.374 . S
C1033 C1030 1.499 . S
C1033 C1034 1.373 . S
C1033 C1035 1.389 . S
C1034 H1007 0.950 . S
C1034 C1020 1.377 . S
C1034 C1033 1.373 . S
C1035 C1019 1.377 . S
C1035 C1033 1.389 . S
C1035 C1036 1.524 . S
C1036 C1035 1.524 . S
C1036 C1037 1.397 . S
C1036 C1041 1.363 . S
C1037 H1008 0.950 . S
C1037 C1036 1.397 . S
C1037 C1038 1.334 . S
C1038 H1009 0.950 . S
C1038 C1037 1.334 . S
C1038 C1039 1.287 . S
C1039 C1038 1.287 . S
C1039 C1040 1.524 . S
C1039 H1042 0.999 . S
C1040 H1010 0.950 . S
C1040 C1039 1.524 . S
C1040 C1041 1.415 . S
C1041 H1011 0.950 . S
C1041 C1036 1.363 . S
C1041 C1040 1.415 . S
H1042 C1039 0.999 . S
H1043 C1024 0.913 . S
H1044 C1062 0.951 . S
H1045 C1064 0.951 . S
H1046 C1066 0.950 . S
H1047 C1067 0.950 . S
H1048 C1069 0.950 . S
H1049 C1072 0.950 . S
H1050 C1073 0.950 . S
H1051 C1075 0.950 . S
H1052 C1076 0.950 . S
H1053 C1077 0.951 . S
H1054 C1079 0.951 . S
H1055 C1081 0.950 . S
H1056 C1082 0.950 . S
H1057 C1084 0.950 . S
H1058 C1087 0.919 1_545 S
H1059 C1088 0.950 . S
H1060 C1090 0.950 . S
H1061 C1091 0.950 . S
C1062 H1044 0.951 . S
C1062 C1063 1.366 . S
C1062 C1064 1.388 . S
C1063 C1062 1.366 . S
C1063 C1067 1.385 1_545 S
C1064 H1045 0.951 . S
C1064 C1062 1.388 . S
C1064 C1065 1.366 . S
C1065 C1064 1.366 . S
C1065 C1066 1.414 1_545 S
C1065 C1068 1.499 . S
C1066 H1046 0.950 . S
C1066 C1065 1.414 1_565 S
C1066 C1067 1.374 . S
C1067 H1047 0.950 . S
C1067 C1063 1.385 1_565 S
C1067 C1066 1.374 . S
C1068 C1065 1.499 . S
C1068 C1069 1.373 1_545 S
C1068 C1070 1.389 . S
C1069 H1048 0.950 . S
C1069 C1068 1.373 1_565 S
C1069 C1085 1.377 . S
C1070 C1068 1.389 . S
C1070 C1071 1.524 . S
C1070 C1084 1.377 . S
C1071 C1070 1.524 . S
C1071 C1072 1.397 . S
C1071 C1076 1.363 . S
C1072 H1049 0.950 . S
C1072 C1071 1.397 . S
C1072 C1073 1.334 . S
C1073 H1050 0.950 . S
C1073 C1072 1.334 . S
C1073 C1074 1.287 . S
C1074 C1073 1.287 . S
C1074 C1075 1.524 . S
C1074 H1093 0.913 . S
C1075 H1051 0.950 . S
C1075 C1074 1.524 . S
C1075 C1076 1.415 . S
C1076 H1052 0.950 . S
C1076 C1071 1.363 . S
C1076 C1075 1.415 . S
C1077 H1053 0.951 . S
C1077 C1078 1.366 1_565 S
C1077 C1079 1.388 . S
C1078 C1077 1.366 1_545 S
C1078 C1082 1.385 . S
C1079 H1054 0.951 . S
C1079 C1077 1.388 . S
C1079 C1080 1.366 1_565 S
C1080 C1079 1.366 1_545 S
C1080 C1081 1.414 . S
C1080 C1083 1.499 . S
C1081 H1055 0.950 . S
C1081 C1080 1.414 . S
C1081 C1082 1.374 . S
C1082 H1056 0.950 . S
C1082 C1078 1.385 . S
C1082 C1081 1.374 . S
C1083 C1080 1.499 . S
C1083 C1084 1.373 . S
C1083 C1085 1.389 1_545 S
C1084 H1057 0.950 . S
C1084 C1070 1.377 . S
C1084 C1083 1.373 . S
C1085 C1069 1.377 . S
C1085 C1083 1.389 1_565 S
C1085 C1086 1.524 . S
C1086 C1085 1.524 . S
C1086 C1087 1.397 . S
C1086 C1091 1.363 . S
C1087 H1058 0.919 1_565 S
C1087 C1086 1.397 . S
C1087 C1088 1.334 . S
C1088 H1059 0.950 . S
C1088 C1087 1.334 . S
C1088 C1089 1.287 . S
C1089 C1088 1.287 . S
C1089 C1090 1.524 . S
C1089 H1092 0.999 . S
C1090 H1060 0.950 . S
C1090 C1089 1.524 . S
C1090 C1091 1.415 . S
C1091 H1061 0.950 . S
C1091 C1086 1.363 . S
C1091 C1090 1.415 . S
H1092 C1089 0.999 . S
H1093 C1074 0.913 . S
H1094 C1112 0.951 . S
H1095 C1114 0.951 . S
H1096 C1116 0.950 . S
H1097 C1117 0.950 . S
H1098 C1119 0.950 . S
H1099 C1122 0.950 . S
H1100 C1123 0.950 . S
H1101 C1125 0.950 . S
H1102 C1126 0.950 . S
H1103 C1127 0.951 . S
H1104 C1129 0.951 . S
H1105 C1131 0.950 . S
H1106 C1132 0.950 . S
H1107 C1134 0.950 . S
H1108 C1137 0.950 . S
H1109 C1138 0.950 . S
H1110 C1140 0.950 . S
H1111 C1141 0.950 . S
C1112 H1094 0.951 . S
C1112 C1113 1.366 . S
C1112 C1114 1.388 . S
C1113 C1112 1.366 . S
C1113 C1117 1.385 . S
C1114 H1095 0.951 . S
C1114 C1112 1.388 . S
C1114 C1115 1.366 . S
C1115 C1114 1.366 . S
C1115 C1116 1.414 . S
C1115 C1118 1.499 . S
C1116 H1096 0.950 . S
C1116 C1115 1.414 . S
C1116 C1117 1.374 . S
C1117 H1097 0.950 . S
C1117 C1113 1.385 . S
C1117 C1116 1.374 . S
C1118 C1115 1.499 . S
C1118 C1119 1.373 . S
C1118 C1120 1.389 . S
C1119 H1098 0.950 . S
C1119 C1118 1.373 . S
C1119 C1135 1.377 . S
C1120 C1118 1.389 . S
C1120 C1121 1.524 . S
C1120 C1134 1.377 . S
C1121 C1120 1.524 . S
C1121 C1122 1.397 . S
C1121 C1126 1.363 . S
C1122 H1099 0.950 . S
C1122 C1121 1.397 . S
C1122 C1123 1.334 . S
C1123 H1100 0.950 . S
C1123 C1122 1.334 . S
C1123 C1124 1.287 . S
C1124 C1123 1.287 . S
C1124 C1125 1.524 . S
C1124 H1143 0.913 . S
C1125 H1101 0.950 . S
C1125 C1124 1.524 . S
C1125 C1126 1.415 . S
C1126 H1102 0.950 . S
C1126 C1121 1.363 . S
C1126 C1125 1.415 . S
C1127 H1103 0.951 . S
C1127 C1128 1.366 . S
C1127 C1129 1.388 1_554 S
C1128 C1127 1.366 . S
C1128 C1132 1.385 . S
C1129 H1104 0.951 . S
C1129 C1127 1.388 1_556 S
C1129 C1130 1.366 . S
C1130 C1129 1.366 . S
C1130 C1131 1.414 . S
C1130 C1133 1.499 . S
C1131 H1105 0.950 . S
C1131 C1130 1.414 . S
C1131 C1132 1.374 1_556 S
C1132 H1106 0.950 . S
C1132 C1128 1.385 . S
C1132 C1131 1.374 1_554 S
C1133 C1130 1.499 . S
C1133 C1134 1.373 . S
C1133 C1135 1.389 . S
C1134 H1107 0.950 . S
C1134 C1120 1.377 . S
C1134 C1133 1.373 . S
C1135 C1119 1.377 . S
C1135 C1133 1.389 . S
C1135 C1136 1.524 . S
C1136 C1135 1.524 . S
C1136 C1137 1.397 . S
C1136 C1141 1.363 . S
C1137 H1108 0.950 . S
C1137 C1136 1.397 . S
C1137 C1138 1.334 . S
C1138 H1109 0.950 . S
C1138 C1137 1.334 . S
C1138 C1139 1.287 . S
C1139 C1138 1.287 . S
C1139 C1140 1.524 . S
C1139 H1142 0.999 . S
C1140 H1110 0.950 . S
C1140 C1139 1.524 . S
C1140 C1141 1.415 . S
C1141 H1111 0.950 . S
C1141 C1136 1.363 . S
C1141 C1140 1.415 . S
H1142 C1139 0.999 . S
H1143 C1124 0.913 . S
H1144 C1162 0.951 . S
H1145 C1164 0.951 . S
H1146 C1166 0.950 . S
H1147 C1167 0.950 . S
H1148 C1169 0.950 . S
H1149 C1172 0.950 . S
H1150 C1173 0.950 . S
H1151 C1175 0.950 . S
H1152 C1176 0.950 . S
H1153 C1177 0.951 . S
H1154 C1179 0.951 . S
H1155 C1181 0.950 . S
H1156 C1182 0.950 . S
H1157 C1184 0.950 . S
H1158 C1187 0.950 . S
H1159 C1188 0.950 . S
H1160 C1190 0.950 . S
H1161 C1191 0.950 . S
C1162 H1144 0.951 . S
C1162 C1163 1.366 . S
C1162 C1164 1.388 . S
C1163 C1162 1.366 . S
C1163 C1167 1.385 1_455 S
C1164 H1145 0.951 . S
C1164 C1162 1.388 . S
C1164 C1165 1.366 . S
C1165 C1164 1.366 . S
C1165 C1166 1.414 1_455 S
C1165 C1168 1.499 . S
C1166 H1146 0.950 . S
C1166 C1165 1.414 1_655 S
C1166 C1167 1.374 . S
C1167 H1147 0.950 . S
C1167 C1163 1.385 1_655 S
C1167 C1166 1.374 . S
C1168 C1165 1.499 . S
C1168 C1169 1.373 . S
C1168 C1170 1.389 1_455 S
C1169 H1148 0.950 . S
C1169 C1168 1.373 . S
C1169 C1185 1.377 . S
C1170 C1168 1.389 1_655 S
C1170 C1171 1.524 . S
C1170 C1184 1.377 . S
C1171 C1170 1.524 . S
C1171 C1172 1.397 . S
C1171 C1176 1.363 . S
C1172 H1149 0.950 . S
C1172 C1171 1.397 . S
C1172 C1173 1.334 . S
C1173 H1150 0.950 . S
C1173 C1172 1.334 . S
C1173 C1174 1.287 . S
C1174 C1173 1.287 . S
C1174 C1175 1.524 . S
C1174 H1193 0.913 . S
C1175 H1151 0.950 . S
C1175 C1174 1.524 . S
C1175 C1176 1.415 . S
C1176 H1152 0.950 . S
C1176 C1171 1.363 . S
C1176 C1175 1.415 . S
C1177 H1153 0.951 . S
C1177 C1178 1.366 . S
C1177 C1179 1.388 . S
C1178 C1177 1.366 . S
C1178 C1182 1.385 . S
C1179 H1154 0.951 . S
C1179 C1177 1.388 . S
C1179 C1180 1.366 . S
C1180 C1179 1.366 . S
C1180 C1181 1.414 . S
C1180 C1183 1.499 . S
C1181 H1155 0.950 . S
C1181 C1180 1.414 . S
C1181 C1182 1.374 . S
C1182 H1156 0.950 . S
C1182 C1178 1.385 . S
C1182 C1181 1.374 . S
C1183 C1180 1.499 . S
C1183 C1184 1.373 1_455 S
C1183 C1185 1.389 . S
C1184 H1157 0.950 . S
C1184 C1170 1.377 . S
C1184 C1183 1.373 1_655 S
C1185 C1169 1.377 . S
C1185 C1183 1.389 . S
C1185 C1186 1.524 . S
C1186 C1185 1.524 . S
C1186 C1187 1.397 . S
C1186 C1191 1.363 . S
C1187 H1158 0.950 . S
C1187 C1186 1.397 . S
C1187 C1188 1.334 . S
C1188 H1159 0.950 . S
C1188 C1187 1.334 . S
C1188 C1189 1.287 . S
C1189 C1188 1.287 . S
C1189 C1190 1.524 . S
C1189 H1192 0.999 . S
C1190 H1160 0.950 . S
C1190 C1189 1.524 . S
C1190 C1191 1.415 . S
C1191 H1161 0.950 . S
C1191 C1186 1.363 . S
C1191 C1190 1.415 . S
H1192 C1189 0.999 . S
H1193 C1174 0.913 . S
C313 C2 1.290 . S
C328 C271 1.356 . S
C363 C22 1.256 . S
C378 C198 1.335 . S
C413 C44 1.322 . S
C428 C237 1.397 . S
C463 C4 1.490 . S
C478 C276 1.569 . S
C528 C193 1.601 . S
C513 C24 1.536 . S
C578 C232 1.521 . S
C563 C42 1.447 . S
C613 C32 1.279 . S
C628 C120 1.292 . S
C663 C49 1.220 . S
C678 C154 1.226 . S
C713 C9 1.186 . S
C728 C76 1.194 . S
C778 C115 1.183 . S
C763 C29 1.156 . S
C828 C159 1.243 . S
C813 C52 1.201 . S
C863 C12 1.210 . S
C878 C81 1.246 . S
C928 C139 1.437 . S
C913 C18 1.423 1_455 S
C963 C38 1.420 . S
C978 C61 1.438 . S
C1013 C58 1.418 . S
C1028 C100 1.440 . S
C1078 C217 1.497 . S
C1063 C39 1.481 . S
C1128 C256 1.489 . S
C1113 C59 1.465 . S
C1163 C19 1.464 . S
C1178 C178 1.491 . S
