# Generated by pormake.
# Topology dag, (6,3)-cn, num edge types: 1
# Building blocks:
#     Node 0, Type 0, BuildingBlock: OJICUG_clean_sbu_0, # of connection points: 6
#     Node 1, Type 0, BuildingBlock: OJICUG_clean_sbu_0, # of connection points: 6
#     Node 2, Type 0, BuildingBlock: OJICUG_clean_sbu_0, # of connection points: 6
#     Node 3, Type 0, BuildingBlock: OJICUG_clean_sbu_0, # of connection points: 6
#     Node 4, Type 1, BuildingBlock: MIDCAF_clean_linker_0, # of connection points: 3
#     Node 5, Type 1, BuildingBlock: MIDCAF_clean_linker_0, # of connection points: 3
#     Node 6, Type 1, BuildingBlock: MIDCAF_clean_linker_0, # of connection points: 3
#     Node 7, Type 1, BuildingBlock: MIDCAF_clean_linker_0, # of connection points: 3
#     Node 8, Type 1, BuildingBlock: MIDCAF_clean_linker_0, # of connection points: 3
#     Node 9, Type 1, BuildingBlock: MIDCAF_clean_linker_0, # of connection points: 3
#     Node 10, Type 1, BuildingBlock: MIDCAF_clean_linker_0, # of connection points: 3
#     Node 11, Type 1, BuildingBlock: MIDCAF_clean_linker_0, # of connection points: 3
#     Edge 12, Type (0, 1), BuildingBlock: UVAHIK_clean_linker_0, # of connection points: 2
#     Edge 13, Type (0, 1), BuildingBlock: UVAHIK_clean_linker_0, # of connection points: 2
#     Edge 14, Type (0, 1), BuildingBlock: UVAHIK_clean_linker_0, # of connection points: 2
#     Edge 15, Type (0, 1), BuildingBlock: UVAHIK_clean_linker_0, # of connection points: 2
#     Edge 16, Type (0, 1), BuildingBlock: UVAHIK_clean_linker_0, # of connection points: 2
#     Edge 17, Type (0, 1), BuildingBlock: UVAHIK_clean_linker_0, # of connection points: 2
#     Edge 18, Type (0, 1), BuildingBlock: UVAHIK_clean_linker_0, # of connection points: 2
#     Edge 19, Type (0, 1), BuildingBlock: UVAHIK_clean_linker_0, # of connection points: 2
#     Edge 20, Type (0, 1), BuildingBlock: UVAHIK_clean_linker_0, # of connection points: 2
#     Edge 21, Type (0, 1), BuildingBlock: UVAHIK_clean_linker_0, # of connection points: 2
#     Edge 22, Type (0, 1), BuildingBlock: UVAHIK_clean_linker_0, # of connection points: 2
#     Edge 23, Type (0, 1), BuildingBlock: UVAHIK_clean_linker_0, # of connection points: 2
#     Edge 24, Type (0, 1), BuildingBlock: UVAHIK_clean_linker_0, # of connection points: 2
#     Edge 25, Type (0, 1), BuildingBlock: UVAHIK_clean_linker_0, # of connection points: 2
#     Edge 26, Type (0, 1), BuildingBlock: UVAHIK_clean_linker_0, # of connection points: 2
#     Edge 27, Type (0, 1), BuildingBlock: UVAHIK_clean_linker_0, # of connection points: 2
#     Edge 28, Type (0, 1), BuildingBlock: UVAHIK_clean_linker_0, # of connection points: 2
#     Edge 29, Type (0, 1), BuildingBlock: UVAHIK_clean_linker_0, # of connection points: 2
#     Edge 30, Type (0, 1), BuildingBlock: UVAHIK_clean_linker_0, # of connection points: 2
#     Edge 31, Type (0, 1), BuildingBlock: UVAHIK_clean_linker_0, # of connection points: 2
#     Edge 32, Type (0, 1), BuildingBlock: UVAHIK_clean_linker_0, # of connection points: 2
#     Edge 33, Type (0, 1), BuildingBlock: UVAHIK_clean_linker_0, # of connection points: 2
#     Edge 34, Type (0, 1), BuildingBlock: UVAHIK_clean_linker_0, # of connection points: 2
#     Edge 35, Type (0, 1), BuildingBlock: UVAHIK_clean_linker_0, # of connection points: 2
# Relax obj value: 0.257
# Max RMSD: 0.201
# Mean RMSD: 0.165
data_MOF--net-dag--node1-OJICUG_clean_sbu_0--node2-MIDCAF_clean_linker_0--edge1-UVAHIK_clean_linker_0
_symmetry_space_group_name_H-M    P1
_symmetry_Int_Tables_number       1
_symmetry_cell_setting            triclinic
loop_
_symmetry_equiv_pos_as_xyz
'x, y, z'
_cell_length_a     56.35236
_cell_length_b     53.790478
_cell_length_c     55.203257
_cell_angle_alpha  89.832107
_cell_angle_beta   95.249426
_cell_angle_gamma 89.901977
loop_
_atom_site_label
_atom_site_type_symbol
_atom_site_fract_x
_atom_site_fract_y
_atom_site_fract_z
_atom_type_partial_charge
Sc0 Sc 0.15646 0.8685 0.02617 0.0
Sc1 Sc 0.17503 0.81361 0.99922 0.0
Sc2 Sc 0.21785 0.85532 0.02669 0.0
O3 O 0.18315 0.84579 0.01743 0.0
C4 C 0.19474 0.90797 0.0111 0.0
C5 C 0.13802 0.85154 0.97223 0.0
C6 C 0.22038 0.83287 0.97367 0.0
C7 C 0.1341 0.81528 0.03544 0.0
C8 C 0.19295 0.87123 0.07401 0.0
C9 C 0.21801 0.79656 0.03702 0.0
O10 O 0.17359 0.90112 0.01385 0.0
O11 O 0.15049 0.8318 0.97259 0.0
O12 O 0.22808 0.84765 0.99055 0.0
O13 O 0.13603 0.83844 0.03966 0.0
O14 O 0.21114 0.86422 0.06372 0.0
O15 O 0.19881 0.79221 0.02379 0.0
O16 O 0.17241 0.87372 0.06265 0.0
O17 O 0.14666 0.80398 0.02099 0.0
O18 O 0.22722 0.81813 0.03918 0.0
O19 O 0.13803 0.86614 0.99031 0.0
O20 O 0.21266 0.89369 0.01541 0.0
O21 O 0.20217 0.81925 0.97506 0.0
Sc22 Sc 0.719 0.64471 0.53333 0.0
Sc23 Sc 0.6759 0.68334 0.50126 0.0
Sc24 Sc 0.65764 0.63324 0.536 0.0
O25 O 0.68421 0.65379 0.52357 0.0
C26 C 0.69545 0.59126 0.52464 0.0
C27 C 0.72033 0.65979 0.47749 0.0
C28 C 0.63772 0.64309 0.48073 0.0
C29 C 0.71972 0.7041 0.53624 0.0
C30 C 0.695 0.63576 0.58293 0.0
C31 C 0.63625 0.68811 0.53861 0.0
O32 O 0.71331 0.60576 0.52563 0.0
O33 O 0.70146 0.67279 0.47674 0.0
O34 O 0.63851 0.63068 0.50044 0.0
O35 O 0.72826 0.68275 0.54207 0.0
O36 O 0.67396 0.6337 0.57271 0.0
O37 O 0.64891 0.69725 0.52291 0.0
O38 O 0.71311 0.63918 0.57115 0.0
O39 O 0.70108 0.70712 0.52169 0.0
O40 O 0.63755 0.66544 0.54515 0.0
O41 O 0.72917 0.64883 0.49669 0.0
O42 O 0.67462 0.5986 0.52831 0.0
O43 O 0.65004 0.66259 0.47841 0.0
Sc44 Sc 0.82392 0.18674 0.09362 0.0
Sc45 Sc 0.78018 0.14814 0.06293 0.0
Sc46 Sc 0.84133 0.13663 0.05857 0.0
O47 O 0.81511 0.15719 0.07166 0.0
C48 C 0.86219 0.19144 0.05464 0.0
C49 C 0.77912 0.20758 0.05995 0.0
C50 C 0.80251 0.13896 0.01262 0.0
C51 C 0.78042 0.163 0.11888 0.0
C52 C 0.86305 0.14684 0.11317 0.0
C53 C 0.80425 0.09473 0.07145 0.0
O54 O 0.8504 0.20037 0.07115 0.0
O55 O 0.77041 0.18622 0.05486 0.0
O56 O 0.82366 0.13621 0.0224 0.0
O57 O 0.79893 0.17641 0.11886 0.0
O58 O 0.86199 0.13482 0.09331 0.0
O59 O 0.78622 0.10908 0.0699 0.0
O60 O 0.85026 0.1659 0.11613 0.0
O61 O 0.77133 0.15166 0.10008 0.0
O62 O 0.82513 0.10208 0.06804 0.0
O63 O 0.79837 0.21068 0.07354 0.0
O64 O 0.86047 0.1689 0.04785 0.0
O65 O 0.78484 0.14322 0.02479 0.0
Sc66 Sc 0.34054 0.36553 0.5579 0.0
Sc67 Sc 0.27945 0.35308 0.56234 0.0
Sc68 Sc 0.32391 0.31388 0.5913 0.0
O69 O 0.31459 0.34417 0.57046 0.0
C70 C 0.3628 0.31139 0.55296 0.0
C71 C 0.30172 0.36333 0.51201 0.0
C72 C 0.27934 0.29374 0.55738 0.0
C73 C 0.30275 0.40672 0.57114 0.0
C74 C 0.36174 0.35413 0.61248 0.0
C75 C 0.28026 0.33601 0.61766 0.0
O76 O 0.36082 0.33416 0.54697 0.0
O77 O 0.28406 0.35906 0.52425 0.0
O78 O 0.29904 0.29048 0.57017 0.0
O79 O 0.32355 0.39964 0.56714 0.0
O80 O 0.34957 0.33447 0.61445 0.0
O81 O 0.27094 0.34837 0.59954 0.0
O82 O 0.36068 0.36711 0.59309 0.0
O83 O 0.285 0.39207 0.57012 0.0
O84 O 0.29869 0.32257 0.61673 0.0
O85 O 0.32293 0.36591 0.52169 0.0
O86 O 0.35077 0.30154 0.56879 0.0
O87 O 0.26984 0.31505 0.55357 0.0
C88 C 0.03651 0.02691 0.30551 0.0
C89 C 0.02847 0.05167 0.30574 0.0
C90 C 0.04012 0.06834 0.32241 0.0
C91 C 0.06015 0.0608 0.33747 0.0
H92 H 0.11229 0.08723 0.38595 0.0
H93 H 0.13244 0.11665 0.41382 0.0
H94 H 0.18464 0.06054 0.4374 0.0
H95 H 0.16494 0.0313 0.4085 0.0
H96 H 0.17567 0.99851 0.3544 0.0
H97 H 0.19814 0.97135 0.32939 0.0
H98 H 0.13222 0.93973 0.2973 0.0
H99 H 0.1099 0.96637 0.3224 0.0
H100 H 0.06281 0.00044 0.31909 0.0
H101 H 0.02761 0.01342 0.29332 0.0
H102 H 0.03456 0.0876 0.32298 0.0
H103 H 0.06929 0.07443 0.34932 0.0
N104 N 0.10296 0.04453 0.36652 0.0
N105 N 0.13743 0.01971 0.36881 0.0
N106 N 0.10457 0.00973 0.34141 0.0
C107 C 0.12534 0.03958 0.37674 0.0
C108 C 0.12706 0.00462 0.35117 0.0
C109 C 0.09238 0.02959 0.34897 0.0
C110 C 0.13702 0.05689 0.39492 0.0
C111 C 0.12797 0.08105 0.39716 0.0
C112 C 0.1395 0.09795 0.41334 0.0
C113 C 0.1602 0.09105 0.42801 0.0
C114 C 0.16898 0.06668 0.42613 0.0
C115 C 0.15761 0.04984 0.40965 0.0
C116 C 0.14095 0.98492 0.3401 0.0
C117 C 0.16601 0.98528 0.34249 0.0
C118 C 0.1789 0.96983 0.32805 0.0
C119 C 0.16698 0.95358 0.31114 0.0
C120 C 0.14203 0.95186 0.31024 0.0
C121 C 0.12918 0.96735 0.32451 0.0
C122 C 0.06909 0.03647 0.33604 0.0
C123 C 0.05664 0.01943 0.32039 0.0
C124 C 0.313 0.67973 0.60705 0.0
C125 C 0.29589 0.66776 0.61995 0.0
C126 C 0.28588 0.68077 0.63859 0.0
C127 C 0.29374 0.70469 0.64507 0.0
H128 H 0.28166 0.76925 0.68713 0.0
H129 H 0.26827 0.78513 0.72474 0.0
H130 H 0.33865 0.81449 0.74494 0.0
H131 H 0.35181 0.7994 0.70677 0.0
H132 H 0.39276 0.79032 0.67028 0.0
H133 H 0.4331 0.79606 0.65817 0.0
H134 H 0.4108 0.76642 0.58716 0.0
H135 H 0.37064 0.76037 0.59924 0.0
H136 H 0.33479 0.7118 0.60382 0.0
H137 H 0.32121 0.67018 0.59272 0.0
H138 H 0.2724 0.67218 0.64861 0.0
H139 H 0.28623 0.71377 0.66011 0.0
N140 N 0.31466 0.75141 0.66168 0.0
N141 N 0.34699 0.77901 0.66354 0.0
N142 N 0.34335 0.74787 0.63379 0.0
C143 C 0.32643 0.77124 0.67219 0.0
C144 C 0.35537 0.76758 0.64412 0.0
C145 C 0.32302 0.73958 0.64249 0.0
C146 C 0.31786 0.78283 0.69406 0.0
C147 C 0.29424 0.77927 0.69949 0.0
C148 C 0.2866 0.78827 0.72115 0.0
C149 C 0.30248 0.80074 0.73811 0.0
C150 C 0.32588 0.80514 0.73225 0.0
C151 C 0.33346 0.79638 0.71039 0.0
C152 C 0.37861 0.77467 0.63577 0.0
C153 C 0.39635 0.7855 0.65193 0.0
C154 C 0.41943 0.78871 0.64507 0.0
C155 C 0.42501 0.78162 0.62178 0.0
C156 C 0.40692 0.77222 0.60516 0.0
C157 C 0.38398 0.7686 0.61214 0.0
C158 C 0.3119 0.71608 0.63313 0.0
C159 C 0.32091 0.7036 0.61356 0.0
C160 C 0.79565 0.71594 0.23868 0.0
C161 C 0.80858 0.69547 0.24884 0.0
C162 C 0.82801 0.68649 0.2372 0.0
C163 C 0.83449 0.69788 0.21599 0.0
H164 H 0.89447 0.71251 0.17741 0.0
H165 H 0.93418 0.70847 0.16328 0.0
H166 H 0.90791 0.73943 0.09372 0.0
H167 H 0.86833 0.74389 0.10786 0.0
H168 H 0.82399 0.78639 0.11092 0.0
H169 H 0.81098 0.82861 0.09985 0.0
H170 H 0.78708 0.83865 0.17124 0.0
H171 H 0.7997 0.79631 0.18231 0.0
H172 H 0.79186 0.74321 0.21042 0.0
H173 H 0.78081 0.72357 0.24739 0.0
H174 H 0.83817 0.6706 0.24445 0.0
H175 H 0.84965 0.69055 0.20758 0.0
N176 N 0.84857 0.72343 0.1734 0.0
N177 N 0.84347 0.7558 0.14485 0.0
N178 N 0.81721 0.75193 0.17517 0.0
C179 C 0.85575 0.73549 0.1537 0.0
C180 C 0.82423 0.76417 0.1555 0.0
C181 C 0.8291 0.73134 0.18405 0.0
C182 C 0.87836 0.72874 0.1438 0.0
C183 C 0.89702 0.71791 0.15891 0.0
C184 C 0.91975 0.71568 0.1509 0.0
C185 C 0.92404 0.72373 0.12749 0.0
C186 C 0.90501 0.73293 0.1118 0.0
C187 C 0.88241 0.73561 0.11995 0.0
C188 C 0.81304 0.78808 0.14754 0.0
C189 C 0.81554 0.79742 0.1241 0.0
C190 C 0.808 0.82151 0.11771 0.0
C191 C 0.79819 0.83684 0.13477 0.0
C192 C 0.79471 0.82718 0.15783 0.0
C193 C 0.80184 0.80292 0.16408 0.0
C194 C 0.82172 0.71856 0.20598 0.0
C195 C 0.80211 0.72732 0.21751 0.0
C196 C 0.66945 0.42822 0.91987 0.0
C197 C 0.65672 0.40984 0.93139 0.0
C198 C 0.63177 0.40922 0.92689 0.0
C199 C 0.61993 0.42581 0.91047 0.0
H200 H 0.56386 0.4223 0.85668 0.0
H201 H 0.52849 0.4069 0.83258 0.0
H202 H 0.52115 0.47729 0.79481 0.0
H203 H 0.55629 0.49283 0.8189 0.0
H204 H 0.60132 0.52516 0.81646 0.0
H205 H 0.62215 0.5543 0.79276 0.0
H206 H 0.68837 0.53656 0.83514 0.0
H207 H 0.66744 0.50641 0.85862 0.0
H208 H 0.66797 0.45841 0.8944 0.0
H209 H 0.6887 0.42911 0.9228 0.0
H210 H 0.62136 0.39568 0.93588 0.0
H211 H 0.60074 0.4244 0.90715 0.0
N212 N 0.59779 0.45341 0.86981 0.0
N213 N 0.59776 0.48653 0.84231 0.0
N214 N 0.63142 0.47912 0.86958 0.0
C215 C 0.58642 0.46688 0.85143 0.0
C216 C 0.62017 0.49287 0.85123 0.0
C217 C 0.62019 0.45949 0.87914 0.0
C218 C 0.56311 0.45872 0.83953 0.0
C219 C 0.55448 0.43467 0.84355 0.0
C220 C 0.5343 0.42577 0.82967 0.0
C221 C 0.5222 0.44081 0.81167 0.0
C222 C 0.53001 0.46531 0.80864 0.0
C223 C 0.55027 0.47414 0.82236 0.0
C224 C 0.63271 0.51311 0.8393 0.0
C225 C 0.62028 0.52754 0.82101 0.0
C226 C 0.63225 0.54456 0.8075 0.0
C227 C 0.65701 0.54783 0.81196 0.0
C228 C 0.66934 0.53427 0.83102 0.0
C229 C 0.65731 0.5171 0.84458 0.0
C230 C 0.6327 0.44358 0.89823 0.0
C231 C 0.65756 0.44497 0.90351 0.0
C232 C 0.59228 0.22769 0.48333 0.0
C233 C 0.57394 0.21846 0.46688 0.0
C234 C 0.57924 0.21107 0.44359 0.0
C235 C 0.60228 0.21391 0.43651 0.0
H236 H 0.65309 0.18702 0.39083 0.0
H237 H 0.6657 0.1684 0.35392 0.0
H238 H 0.72093 0.22382 0.35213 0.0
H239 H 0.70879 0.24209 0.38922 0.0
H240 H 0.7097 0.28778 0.42443 0.0
H241 H 0.7236 0.32925 0.43643 0.0
H242 H 0.67907 0.32805 0.49608 0.0
H243 H 0.66548 0.28659 0.48447 0.0
H244 H 0.6287 0.23917 0.48883 0.0
H245 H 0.5886 0.2337 0.50132 0.0
H246 H 0.56538 0.20385 0.43063 0.0
H247 H 0.60564 0.20895 0.41813 0.0
N248 N 0.65146 0.22019 0.42425 0.0
N249 N 0.68314 0.24851 0.42474 0.0
N250 N 0.6552 0.25181 0.45346 0.0
C251 C 0.67156 0.22827 0.41484 0.0
C252 C 0.67511 0.26035 0.44412 0.0
C253 C 0.6433 0.23179 0.44368 0.0
C254 C 0.67986 0.21614 0.39303 0.0
C255 C 0.66803 0.19517 0.38268 0.0
C256 C 0.67517 0.18454 0.36143 0.0
C257 C 0.69429 0.19463 0.35004 0.0
C258 C 0.70635 0.21533 0.36061 0.0
C259 C 0.69926 0.22593 0.38186 0.0
C260 C 0.68622 0.28391 0.45328 0.0
C261 C 0.70318 0.29614 0.44037 0.0
C262 C 0.71106 0.31999 0.44715 0.0
C263 C 0.70228 0.33204 0.46707 0.0
C264 C 0.68636 0.31924 0.48077 0.0
C265 C 0.67841 0.29548 0.47396 0.0
C266 C 0.62025 0.22468 0.45245 0.0
C267 C 0.61517 0.23096 0.47611 0.0
C268 C 0.20542 0.28778 0.86367 0.0
C269 C 0.19302 0.30745 0.85135 0.0
C270 C 0.17279 0.31728 0.86102 0.0
C271 C 0.16493 0.30736 0.88233 0.0
H272 H 0.10208 0.29663 0.91845 0.0
H273 H 0.06186 0.30282 0.93083 0.0
H274 H 0.08457 0.27334 0.00201 0.0
H275 H 0.12456 0.2668 0.98964 0.0
H276 H 0.1552 0.21393 0.98154 0.0
H277 H 0.16665 0.17123 0.99132 0.0
H278 H 0.21787 0.17341 0.93781 0.0
H279 H 0.2066 0.21635 0.92795 0.0
H280 H 0.20744 0.26247 0.89359 0.0
H281 H 0.22085 0.27949 0.85653 0.0
H282 H 0.16299 0.33259 0.85207 0.0
H283 H 0.1491 0.31517 0.88911 0.0
N284 N 0.14805 0.28444 0.92518 0.0
N285 N 0.15016 0.25228 0.95408 0.0
N286 N 0.17864 0.25469 0.92588 0.0
C287 C 0.13921 0.273 0.94439 0.0
C288 C 0.16985 0.24294 0.94493 0.0
C289 C 0.16799 0.27556 0.91601 0.0
C290 C 0.11638 0.28102 0.95303 0.0
C291 C 0.09861 0.29203 0.93692 0.0
C292 C 0.07561 0.29548 0.94393 0.0
C293 C 0.07016 0.28848 0.96732 0.0
C294 C 0.08835 0.27908 0.98394 0.0
C295 C 0.11119 0.27519 0.9768 0.0
C296 C 0.17966 0.21854 0.95362 0.0
C297 C 0.16917 0.20555 0.97204 0.0
C298 C 0.17566 0.18101 0.97763 0.0
C299 C 0.19287 0.16889 0.96505 0.0
C300 C 0.20456 0.18232 0.94782 0.0
C301 C 0.198 0.2069 0.94212 0.0
C302 C 0.17708 0.28731 0.89436 0.0
C303 C 0.19758 0.27788 0.8849 0.0
C304 C 0.36178 0.5964 0.17622 0.0
C305 C 0.33701 0.59454 0.17077 0.0
C306 C 0.32483 0.57465 0.18057 0.0
C307 C 0.33711 0.55727 0.1959 0.0
H308 H 0.32723 0.49459 0.23785 0.0
H309 H 0.30587 0.46435 0.26075 0.0
H310 H 0.37207 0.44375 0.30172 0.0
H311 H 0.39333 0.47299 0.27853 0.0
H312 H 0.44133 0.50174 0.27069 0.0
H313 H 0.47773 0.51383 0.29482 0.0
H314 H 0.46676 0.58997 0.27109 0.0
H315 H 0.43078 0.57769 0.24625 0.0
H316 H 0.39306 0.58143 0.19574 0.0
H317 H 0.37164 0.61164 0.16914 0.0
H318 H 0.30577 0.57259 0.17647 0.0
H319 H 0.3271 0.54239 0.2034 0.0
N320 N 0.36332 0.52217 0.2282 0.0
N321 N 0.39763 0.51212 0.25355 0.0
N322 N 0.39747 0.54717 0.22834 0.0
C323 C 0.37478 0.50695 0.24517 0.0
C324 C 0.40911 0.53211 0.24528 0.0
C325 C 0.37465 0.5422 0.21951 0.0
C326 C 0.362 0.48649 0.2565 0.0
C327 C 0.33727 0.48325 0.25143 0.0
C328 C 0.32498 0.46601 0.26467 0.0
C329 C 0.33717 0.45166 0.28322 0.0
C330 C 0.36205 0.45413 0.28737 0.0
C331 C 0.37428 0.47119 0.27416 0.0
C332 C 0.43298 0.53881 0.2568 0.0
C333 C 0.44688 0.521 0.27032 0.0
C334 C 0.46769 0.52797 0.28428 0.0
C335 C 0.47496 0.55297 0.28531 0.0
C336 C 0.4618 0.57053 0.27065 0.0
C337 C 0.44109 0.56349 0.25644 0.0
C338 C 0.36181 0.5595 0.20189 0.0
C339 C 0.37403 0.57912 0.19162 0.0
C340 C 0.86151 0.04039 0.79071 0.0
C341 C 0.83685 0.04437 0.78617 0.0
C342 C 0.82426 0.03119 0.76713 0.0
C343 C 0.83599 0.01389 0.75347 0.0
H344 H 0.82525 0.95926 0.70028 0.0
H345 H 0.80378 0.93169 0.67092 0.0
H346 H 0.86919 0.8923 0.66171 0.0
H347 H 0.89074 0.91993 0.69063 0.0
H348 H 0.93561 0.92695 0.72878 0.0
H349 H 0.97311 0.91164 0.74906 0.0
H350 H 0.96879 0.96656 0.8055 0.0
H351 H 0.93206 0.98233 0.785 0.0
H352 H 0.8921 0.02039 0.78167 0.0
H353 H 0.87177 0.04981 0.80548 0.0
H354 H 0.80528 0.03399 0.763 0.0
H355 H 0.82569 0.00362 0.73932 0.0
N356 N 0.86141 0.97623 0.72763 0.0
N357 N 0.89523 0.95092 0.72588 0.0
N358 N 0.89545 0.98293 0.75445 0.0
C359 C 0.87257 0.95705 0.71728 0.0
C360 C 0.9068 0.96379 0.74447 0.0
C361 C 0.87286 0.98939 0.74617 0.0
C362 C 0.85973 0.94175 0.698 0.0
C363 C 0.83513 0.94491 0.69181 0.0
C364 C 0.82278 0.92903 0.67508 0.0
C365 C 0.83476 0.90976 0.66408 0.0
C366 C 0.85946 0.90713 0.66966 0.0
C367 C 0.87179 0.9229 0.68642 0.0
C368 C 0.93066 0.95579 0.7553 0.0
C369 C 0.94284 0.93596 0.74535 0.0
C370 C 0.96429 0.92708 0.75705 0.0
C371 C 0.97398 0.93777 0.77899 0.0
C372 C 0.96215 0.95809 0.78845 0.0
C373 C 0.94087 0.96705 0.77672 0.0
C374 C 0.86054 0.00936 0.75866 0.0
C375 C 0.87318 0.02322 0.77713 0.0
C376 C 0.21566 0.86997 0.11556 0.0
C377 C 0.19567 0.87771 0.1002 0.0
C378 C 0.21797 0.87665 0.1402 0.0
C379 C 0.19911 0.92447 0.18127 0.0
H380 H 0.20812 0.87538 0.23291 0.0
C381 C 0.17313 0.91707 0.28401 0.0
C382 C 0.17982 0.941 0.29223 0.0
C383 C 0.18145 0.90753 0.26281 0.0
C384 C 0.2058 0.8893 0.21867 0.0
H385 H 0.16251 0.89855 0.09876 0.0
H386 H 0.16678 0.91036 0.14136 0.0
H387 H 0.20971 0.86259 0.19043 0.0
H388 H 0.20198 0.97282 0.28563 0.0
H389 H 0.21676 0.95599 0.24896 0.0
H390 H 0.19432 0.95104 0.20905 0.0
C391 C 0.18061 0.89913 0.13441 0.0
C392 C 0.20686 0.88201 0.19444 0.0
C393 C 0.17812 0.8922 0.11001 0.0
C394 C 0.19654 0.95429 0.27991 0.0
C395 C 0.20482 0.94476 0.25872 0.0
C396 C 0.1983 0.93178 0.20538 0.0
C397 C 0.20057 0.89155 0.14972 0.0
C398 C 0.20285 0.89946 0.17551 0.0
C399 C 0.1966 0.92174 0.24939 0.0
C400 C 0.20108 0.91421 0.22434 0.0
H401 H 0.22944 0.85871 0.10858 0.0
H402 H 0.23352 0.87057 0.15169 0.0
H403 H 0.19615 0.93831 0.16701 0.0
H404 H 0.16053 0.90623 0.29329 0.0
H405 H 0.17473 0.88975 0.25608 0.0
C406 C 0.60988 0.72576 0.53661 0.0
C407 C 0.61852 0.70426 0.54904 0.0
C408 C 0.59164 0.73981 0.5454 0.0
C409 C 0.56066 0.75339 0.59949 0.0
H410 H 0.50441 0.76109 0.55415 0.0
C411 C 0.46755 0.76929 0.63107 0.0
C412 C 0.45 0.78134 0.61558 0.0
C413 C 0.49028 0.76531 0.62369 0.0
C414 C 0.52008 0.75978 0.56698 0.0
H415 H 0.61566 0.68135 0.58106 0.0
H416 H 0.58407 0.70617 0.59658 0.0
H417 H 0.54074 0.74435 0.54001 0.0
H418 H 0.44279 0.80021 0.581 0.0
H419 H 0.48284 0.79423 0.56841 0.0
H420 H 0.54012 0.76878 0.62652 0.0
C421 C 0.59132 0.71201 0.57997 0.0
C422 C 0.54089 0.75003 0.55884 0.0
C423 C 0.60927 0.69772 0.57098 0.0
C424 C 0.45599 0.79066 0.59317 0.0
C425 C 0.47888 0.78704 0.58593 0.0
C426 C 0.53995 0.76354 0.60759 0.0
C427 C 0.58204 0.73289 0.56701 0.0
C428 C 0.56117 0.74618 0.57513 0.0
C429 C 0.4961 0.7736 0.60075 0.0
C430 C 0.51916 0.76623 0.59158 0.0
H431 H 0.61662 0.73127 0.51964 0.0
H432 H 0.5848 0.75589 0.53514 0.0
H433 H 0.57619 0.75083 0.61235 0.0
H434 H 0.46329 0.76164 0.64832 0.0
H435 H 0.50283 0.75454 0.6355 0.0
C436 C 0.81968 0.05478 0.09013 0.0
C437 C 0.80089 0.06836 0.07785 0.0
C438 C 0.81644 0.02998 0.09661 0.0
C439 C 0.79023 0.97356 0.07908 0.0
H440 H 0.78849 0.95542 0.14692 0.0
C441 C 0.78074 0.87103 0.10768 0.0
C442 C 0.79385 0.86349 0.12929 0.0
C443 C 0.7784 0.89629 0.1018 0.0
C444 C 0.78923 0.96004 0.12791 0.0
H445 H 0.76412 0.06653 0.06241 0.0
H446 H 0.75881 0.02268 0.07311 0.0
H447 H 0.79155 0.99912 0.13556 0.0
H448 H 0.81487 0.8762 0.16165 0.0
H449 H 0.81175 0.92002 0.15109 0.0
H450 H 0.78939 0.9347 0.07128 0.0
C451 C 0.77582 0.03155 0.07798 0.0
C452 C 0.79077 0.98508 0.12147 0.0
C453 C 0.77887 0.05654 0.07196 0.0
C454 C 0.80433 0.88159 0.14505 0.0
C455 C 0.80241 0.90676 0.13899 0.0
C456 C 0.78918 0.94846 0.08552 0.0
C457 C 0.79454 0.01821 0.09047 0.0
C458 C 0.79145 0.99195 0.09705 0.0
C459 C 0.78958 0.9145 0.11717 0.0
C460 C 0.78891 0.94131 0.11008 0.0
H461 H 0.83678 0.06344 0.09505 0.0
H462 H 0.83108 0.01989 0.10623 0.0
H463 H 0.79089 0.97859 0.06013 0.0
H464 H 0.7724 0.85736 0.0953 0.0
H465 H 0.76797 0.90147 0.0851 0.0
C466 C 0.37539 0.35176 0.65695 0.0
C467 C 0.37733 0.36255 0.63397 0.0
C468 C 0.38962 0.36004 0.67737 0.0
C469 C 0.42694 0.41325 0.70015 0.0
H470 H 0.45273 0.36533 0.74819 0.0
C471 C 0.5057 0.40715 0.78387 0.0
C472 C 0.50283 0.43044 0.79468 0.0
C473 C 0.4888 0.39842 0.76584 0.0
C474 C 0.44577 0.37895 0.7349 0.0
H475 H 0.39597 0.39039 0.61447 0.0
H476 H 0.4212 0.40439 0.64997 0.0
H477 H 0.4274 0.35116 0.71288 0.0
H478 H 0.47945 0.46234 0.79592 0.0
H479 H 0.44961 0.4469 0.76473 0.0
H480 H 0.44612 0.44091 0.72161 0.0
C481 C 0.40829 0.38989 0.65231 0.0
C482 C 0.431 0.37086 0.71477 0.0
C483 C 0.39394 0.38173 0.6319 0.0
C484 C 0.48225 0.44444 0.7877 0.0
C485 C 0.46523 0.43563 0.76977 0.0
C486 C 0.44182 0.42132 0.7202 0.0
C487 C 0.40626 0.37919 0.67532 0.0
C488 C 0.42152 0.38788 0.69705 0.0
C489 C 0.46852 0.41272 0.75829 0.0
C490 C 0.45157 0.40426 0.73774 0.0
H491 H 0.36263 0.33711 0.65929 0.0
H492 H 0.3873 0.35164 0.69484 0.0
H493 H 0.41967 0.42693 0.68706 0.0
H494 H 0.52156 0.39611 0.78858 0.0
H495 H 0.49213 0.38088 0.75718 0.0
C496 C 0.72178 0.55484 0.51686 0.0
C497 C 0.69885 0.5647 0.51858 0.0
C498 C 0.72478 0.52985 0.51079 0.0
C499 C 0.69268 0.47738 0.4804 0.0
H500 H 0.74044 0.43627 0.51633 0.0
C501 C 0.71178 0.36706 0.49644 0.0
C502 C 0.7079 0.35857 0.47234 0.0
C503 C 0.71398 0.39248 0.50136 0.0
C504 C 0.72704 0.44754 0.50614 0.0
H505 H 0.66109 0.55585 0.51532 0.0
H506 H 0.66638 0.51246 0.50481 0.0
H507 H 0.7371 0.4803 0.52659 0.0
H508 H 0.70419 0.3701 0.43448 0.0
H509 H 0.7084 0.41436 0.44307 0.0
H510 H 0.68218 0.44467 0.46035 0.0
C511 C 0.68202 0.52409 0.50796 0.0
C512 C 0.72526 0.47276 0.51188 0.0
C513 C 0.67903 0.54896 0.51416 0.0
C514 C 0.70735 0.37598 0.45325 0.0
C515 C 0.70948 0.40137 0.45817 0.0
C516 C 0.69455 0.45227 0.47458 0.0
C517 C 0.7049 0.51427 0.50613 0.0
C518 C 0.70783 0.48786 0.49927 0.0
C519 C 0.71226 0.40994 0.48229 0.0
C520 C 0.71158 0.43699 0.48754 0.0
H521 H 0.73745 0.5664 0.52015 0.0
H522 H 0.74262 0.52283 0.50936 0.0
H523 H 0.67926 0.4886 0.47017 0.0
H524 H 0.71254 0.35408 0.51153 0.0
H525 H 0.716 0.39849 0.52014 0.0
C526 C 0.8883 0.20121 0.02146 0.0
C527 C 0.87946 0.20769 0.0436 0.0
C528 C 0.90585 0.21564 0.01193 0.0
C529 C 0.95604 0.25445 0.03181 0.0
H530 H 0.95533 0.27308 0.96385 0.0
C531 C 0.03919 0.29721 0.996 0.0
C532 C 0.0452 0.28799 0.9736 0.0
C533 C 0.01649 0.29308 0.00351 0.0
C534 C 0.95591 0.26788 0.98285 0.0
H535 H 0.88172 0.2348 0.07278 0.0
H536 H 0.91278 0.25965 0.05633 0.0
H537 H 0.91998 0.25433 0.97878 0.0
H538 H 0.0321 0.26799 0.94113 0.0
H539 H 0.9929 0.26001 0.95442 0.0
H540 H 0.99223 0.2664 0.03584 0.0
C541 C 0.90594 0.24348 0.04634 0.0
C542 C 0.93562 0.25725 0.99138 0.0
C543 C 0.88813 0.22929 0.05568 0.0
C544 C 0.02781 0.27558 0.95836 0.0
C545 C 0.00527 0.27108 0.96601 0.0
C546 C 0.97644 0.26468 0.02324 0.0
C547 C 0.91516 0.23662 0.02453 0.0
C548 C 0.93564 0.25012 0.01585 0.0
C549 C -0.0005 0.27919 0.98898 0.0
C550 C 0.97682 0.27115 0.99854 0.0
H551 H 0.88189 0.18477 0.01163 0.0
H552 H 0.91281 0.20983 0.99518 0.0
H553 H 0.95661 0.24884 0.05072 0.0
H554 H 0.05227 0.30702 0.00799 0.0
H555 H 0.01254 0.30017 0.02103 0.0
C556 C 0.31589 0.35991 0.47065 0.0
C557 C 0.29762 0.36599 0.48532 0.0
C558 C 0.31305 0.36431 0.44564 0.0
C559 C 0.28578 0.40798 0.40272 0.0
H560 H 0.30566 0.36223 0.35429 0.0
C561 C 0.30276 0.44428 0.30831 0.0
C562 C 0.32414 0.43589 0.2998 0.0
C563 C 0.2929 0.43185 0.32728 0.0
C564 C 0.30013 0.3753 0.36756 0.0
H565 H 0.26181 0.38078 0.48524 0.0
H566 H 0.25717 0.38929 0.44135 0.0
H567 H 0.30112 0.34736 0.39544 0.0
H568 H 0.35055 0.40639 0.30299 0.0
H569 H 0.33424 0.38559 0.3367 0.0
H570 H 0.28654 0.43638 0.37579 0.0
C571 C 0.2735 0.38078 0.44931 0.0
C572 C 0.29737 0.3667 0.39106 0.0
C573 C 0.27615 0.37587 0.47434 0.0
C574 C 0.33439 0.41374 0.30948 0.0
C575 C 0.32475 0.40154 0.32866 0.0
C576 C 0.28893 0.4167 0.37937 0.0
C577 C 0.29206 0.37529 0.43482 0.0
C578 C 0.29081 0.38312 0.40901 0.0
C579 C 0.30434 0.41092 0.33842 0.0
C580 C 0.29686 0.40064 0.36167 0.0
H581 H 0.33257 0.35212 0.4786 0.0
H582 H 0.32773 0.36016 0.43492 0.0
H583 H 0.28094 0.42108 0.41631 0.0
H584 H 0.29433 0.46127 0.30133 0.0
H585 H 0.27683 0.43928 0.33387 0.0
C586 C 0.11638 0.84023 0.93201 0.0
C587 C 0.12341 0.85833 0.94953 0.0
C588 C 0.10263 0.84686 0.91057 0.0
C589 C 0.08748 0.89924 0.86966 0.0
H590 H 0.02729 0.86563 0.85383 0.0
C591 C 0.01192 0.94244 0.80624 0.0
C592 C 0.99542 0.92698 0.79295 0.0
C593 C 0.03015 0.9323 0.82207 0.0
C594 C 0.04427 0.87488 0.85754 0.0
H595 H 0.12198 0.89764 0.95807 0.0
H596 H 0.09831 0.90919 0.9205 0.0
H597 H 0.05427 0.8509 0.88786 0.0
H598 H 0.98611 0.88855 0.78491 0.0
H599 H 0.01856 0.87086 0.81163 0.0
H600 H 0.0777 0.92318 0.8394 0.0
C601 C 0.10334 0.88989 0.92344 0.0
C602 C 0.05966 0.86648 0.87715 0.0
C603 C 0.1167 0.88322 0.94503 0.0
C604 C 0.99852 0.90107 0.79476 0.0
C605 C 0.01695 0.8909 0.8104 0.0
C606 C 0.07228 0.90743 0.84981 0.0
C607 C 0.0961 0.87178 0.90607 0.0
C608 C 0.08112 0.87895 0.88372 0.0
C609 C 0.03259 0.90638 0.8248 0.0
C610 C 0.05018 0.89576 0.84386 0.0
H611 H 0.12127 0.8209 0.93497 0.0
H612 H 0.09725 0.83258 0.89741 0.0
H613 H 0.10411 0.90895 0.8742 0.0
H614 H 0.01039 0.96248 0.80494 0.0
H615 H 0.04166 0.94489 0.83294 0.0
C616 C 0.77685 0.12667 0.97504 0.0
C617 C 0.79846 0.13616 0.98594 0.0
C618 C 0.77426 0.12133 0.95013 0.0
C619 C 0.79917 0.13317 0.8918 0.0
H620 H 0.78606 0.06365 0.87819 0.0
C621 C 0.83558 0.08248 0.81215 0.0
C622 C 0.82442 0.06083 0.80259 0.0
C623 C 0.82623 0.09546 0.83096 0.0
C624 C 0.7891 0.08329 0.88132 0.0
H625 H 0.83374 0.14893 0.97915 0.0
H626 H 0.82902 0.14011 0.93568 0.0
H627 H 0.78054 0.0802 0.91821 0.0
H628 H 0.79348 0.03709 0.80399 0.0
H629 H 0.77657 0.0604 0.83606 0.0
H630 H 0.80808 0.13631 0.85509 0.0
C631 C 0.81417 0.13661 0.94637 0.0
C632 C 0.786 0.09273 0.90437 0.0
C633 C 0.81693 0.14147 0.97128 0.0
C634 C 0.80258 0.05368 0.81091 0.0
C635 C 0.79304 0.06687 0.82958 0.0
C636 C 0.80192 0.12385 0.8686 0.0
C637 C 0.79305 0.12596 0.93566 0.0
C638 C 0.79183 0.11751 0.91007 0.0
C639 C 0.80524 0.08736 0.8405 0.0
C640 C 0.79782 0.09853 0.86334 0.0
H641 H 0.76234 0.12234 0.98593 0.0
H642 H 0.7578 0.11311 0.94225 0.0
H643 H 0.80354 0.15244 0.89571 0.0
H644 H 0.85216 0.08884 0.8058 0.0
H645 H 0.8363 0.11101 0.83889 0.0
C646 C 0.3896 0.27416 0.55358 0.0
C647 C 0.38069 0.29597 0.5419 0.0
C648 C 0.40796 0.26073 0.54431 0.0
C649 C 0.43886 0.24917 0.48989 0.0
H650 H 0.49511 0.24022 0.53501 0.0
C651 C 0.53171 0.23191 0.45787 0.0
C652 C 0.54902 0.21934 0.4732 0.0
C653 C 0.5091 0.2364 0.46536 0.0
C654 C 0.47944 0.2419 0.52222 0.0
H655 H 0.38327 0.3201 0.51068 0.0
H656 H 0.41514 0.29632 0.4943 0.0
H657 H 0.45891 0.25687 0.54953 0.0
H658 H 0.55595 0.20015 0.50764 0.0
H659 H 0.51608 0.20695 0.5204 0.0
H660 H 0.45923 0.23412 0.46255 0.0
C661 C 0.40796 0.28979 0.51071 0.0
C662 C 0.45872 0.25161 0.53058 0.0
C663 C 0.38986 0.30347 0.52019 0.0
C664 C 0.54292 0.21007 0.49559 0.0
C665 C 0.52014 0.21417 0.50293 0.0
C666 C 0.45949 0.23904 0.48157 0.0
C667 C 0.41748 0.26859 0.52295 0.0
C668 C 0.43842 0.25582 0.5144 0.0
C669 C 0.50317 0.2281 0.48825 0.0
C670 C 0.48025 0.23582 0.49752 0.0
H671 H 0.38295 0.26789 0.57035 0.0
H672 H 0.41496 0.24438 0.55401 0.0
H673 H 0.42332 0.25203 0.47712 0.0
H674 H 0.53608 0.23953 0.44064 0.0
H675 H 0.49677 0.24752 0.45367 0.0
C676 C 0.22128 0.94426 0.00318 0.0
C677 C 0.19835 0.93386 0.00289 0.0
C678 C 0.22419 0.96912 0.99639 0.0
C679 C 0.19228 0.02115 0.96327 0.0
H680 H 0.23313 0.06373 0.00548 0.0
C681 C 0.17716 0.1258 0.96823 0.0
C682 C 0.19685 0.14177 0.96829 0.0
C683 C 0.18039 0.10017 0.97028 0.0
C684 C 0.22196 0.05199 0.99331 0.0
H685 H 0.16057 0.94142 0.99467 0.0
H686 H 0.16566 0.98441 0.98315 0.0
H687 H 0.23346 0.01877 0.01251 0.0
H688 H 0.23541 0.14346 0.97074 0.0
H689 H 0.24111 0.09827 0.97468 0.0
H690 H 0.18011 0.05436 0.94466 0.0
C691 C 0.18143 0.97341 0.98836 0.0
C692 C 0.22217 0.02626 0.99729 0.0
C693 C 0.17851 0.94873 0.99521 0.0
C694 C 0.21993 0.13154 0.97061 0.0
C695 C 0.22318 0.10577 0.97295 0.0
C696 C 0.19199 0.04677 0.95939 0.0
C697 C 0.20426 0.98397 0.98897 0.0
C698 C 0.20679 0.01066 0.98273 0.0
C699 C 0.20339 0.08986 0.97257 0.0
C700 C 0.20631 0.06253 0.97478 0.0
H701 H 0.23694 0.93333 0.009 0.0
H702 H 0.24202 0.97671 0.99692 0.0
H703 H 0.18064 0.00957 0.95138 0.0
H704 H 0.15915 0.13309 0.96614 0.0
H705 H 0.16481 0.08839 0.97025 0.0
C706 C 0.62225 0.646 0.43665 0.0
C707 C 0.62225 0.63407 0.45938 0.0
C708 C 0.60817 0.63705 0.41639 0.0
C709 C 0.57641 0.58063 0.39304 0.0
H710 H 0.54097 0.62668 0.34922 0.0
C711 C 0.49748 0.5504 0.32654 0.0
C712 C 0.49489 0.56096 0.3031 0.0
C713 C 0.51509 0.55881 0.34397 0.0
C714 C 0.55105 0.61361 0.36107 0.0
H715 H 0.60717 0.60345 0.47856 0.0
H716 H 0.58241 0.58816 0.44338 0.0
H717 H 0.56738 0.64268 0.38309 0.0
H718 H 0.5093 0.58832 0.27951 0.0
H719 H 0.53998 0.60325 0.31021 0.0
H720 H 0.5597 0.55156 0.37131 0.0
C721 C 0.59362 0.60418 0.44112 0.0
C722 C 0.56616 0.62276 0.38049 0.0
C723 C 0.60771 0.61308 0.46136 0.0
C724 C 0.51061 0.57997 0.29746 0.0
C725 C 0.52819 0.58851 0.31501 0.0
C726 C 0.56127 0.57149 0.37368 0.0
C727 C 0.59376 0.61598 0.41837 0.0
C728 C 0.57875 0.60636 0.39691 0.0
C729 C 0.53049 0.57811 0.3385 0.0
C730 C 0.54816 0.58787 0.3577 0.0
H731 H 0.63331 0.66214 0.43439 0.0
H732 H 0.60886 0.64643 0.39908 0.0
H733 H 0.58625 0.5675 0.40503 0.0
H734 H 0.48538 0.53615 0.33177 0.0
H735 H 0.51611 0.55072 0.36203 0.0
C736 C 0.31895 0.44888 0.58248 0.0
C737 C 0.29918 0.43324 0.57721 0.0
C738 C 0.3158 0.47389 0.58805 0.0
C739 C 0.27328 0.52552 0.57982 0.0
H740 H 0.31381 0.55507 0.63256 0.0
C741 C 0.2879 0.63156 0.59161 0.0
C742 C 0.29027 0.64109 0.6154 0.0
C743 C 0.28556 0.60598 0.58763 0.0
C744 C 0.30215 0.54707 0.61795 0.0
H745 H 0.26052 0.43181 0.57362 0.0
H746 H 0.25508 0.47567 0.58327 0.0
H747 H 0.31661 0.51066 0.62477 0.0
H748 H 0.29125 0.63124 0.65362 0.0
H749 H 0.28684 0.58673 0.64665 0.0
H750 H 0.25899 0.5621 0.57289 0.0
C751 C 0.27301 0.46844 0.58302 0.0
C752 C 0.30394 0.52168 0.61333 0.0
C753 C 0.27615 0.4433 0.57763 0.0
C754 C 0.28925 0.62457 0.63506 0.0
C755 C 0.287 0.59902 0.63109 0.0
C756 C 0.27159 0.55102 0.58435 0.0
C757 C 0.29282 0.48397 0.58835 0.0
C758 C 0.28973 0.51066 0.59407 0.0
C759 C 0.28567 0.58938 0.60737 0.0
C760 C 0.28615 0.5621 0.60335 0.0
H761 H 0.33696 0.44182 0.58237 0.0
H762 H 0.33142 0.48546 0.59178 0.0
H763 H 0.26219 0.51756 0.56476 0.0
H764 H 0.28839 0.64384 0.57608 0.0
H765 H 0.28469 0.59912 0.56914 0.0
C766 C 0.10664 0.77886 0.03634 0.0
C767 C 0.1157 0.80104 0.04696 0.0
C768 C 0.08805 0.76628 0.04611 0.0
C769 C 0.05763 0.75686 0.10086 0.0
H770 H 0.00078 0.74726 0.05682 0.0
C771 C 0.96596 0.73831 0.13517 0.0
C772 C 0.94862 0.7254 0.12033 0.0
C773 C 0.98818 0.74337 0.12703 0.0
C774 C 0.01662 0.74914 0.06933 0.0
H775 H 0.11304 0.82683 0.07672 0.0
H776 H 0.08081 0.80444 0.0941 0.0
H777 H 0.03662 0.76372 0.04134 0.0
H778 H 0.94122 0.70632 0.08603 0.0
H779 H 0.98048 0.71402 0.07215 0.0
H780 H 0.03792 0.74202 0.12885 0.0
C781 C 0.08804 0.79701 0.0781 0.0
C782 C 0.03711 0.75876 0.06042 0.0
C783 C 0.10635 0.80987 0.06807 0.0
C784 C 0.9543 0.71646 0.09772 0.0
C785 C 0.97671 0.7211 0.08973 0.0
C786 C 0.03727 0.74678 0.10973 0.0
C787 C 0.07849 0.77535 0.06695 0.0
C788 C 0.05763 0.76314 0.07618 0.0
C789 C 0.99372 0.73527 0.10397 0.0
C790 C 0.0163 0.74327 0.09418 0.0
H791 H 0.11341 0.7716 0.02002 0.0
H792 H 0.08098 0.74957 0.03725 0.0
H793 H 0.07337 0.75987 0.1133 0.0
H794 H 0.96188 0.74571 0.15255 0.0
H795 H 0.00052 0.75468 0.1384 0.0
C796 C 0.67968 0.63924 0.62381 0.0
C797 C 0.6984 0.63326 0.6097 0.0
C798 C 0.6819 0.63492 0.64885 0.0
C799 C 0.70886 0.59167 0.69263 0.0
H800 H 0.68715 0.63725 0.74024 0.0
C801 C 0.69151 0.55579 0.78714 0.0
C802 C 0.66981 0.5637 0.79527 0.0
C803 C 0.70125 0.56825 0.76811 0.0
C804 C 0.69319 0.62423 0.7272 0.0
H805 H 0.73439 0.61871 0.61081 0.0
H806 H 0.73798 0.6104 0.65471 0.0
H807 H 0.69213 0.65199 0.69914 0.0
H808 H 0.64264 0.59241 0.79136 0.0
H809 H 0.65881 0.61326 0.7576 0.0
H810 H 0.70825 0.56342 0.71974 0.0
C811 C 0.72174 0.61874 0.6463 0.0
C812 C 0.69618 0.63276 0.70372 0.0
C813 C 0.7197 0.62355 0.62126 0.0
C814 C 0.65907 0.58543 0.78516 0.0
C815 C 0.66862 0.59767 0.76596 0.0
C816 C 0.70549 0.58302 0.71595 0.0
C817 C 0.70273 0.62412 0.66025 0.0
C818 C 0.70344 0.61639 0.68606 0.0
C819 C 0.6894 0.58874 0.75658 0.0
C820 C 0.69694 0.59901 0.73336 0.0
H821 H 0.66311 0.6469 0.61542 0.0
H822 H 0.66689 0.63899 0.65914 0.0
H823 H 0.71425 0.5786 0.67926 0.0
H824 H 0.7003 0.53912 0.79446 0.0
H825 H 0.7176 0.56117 0.76181 0.0
C826 C 0.87938 0.14836 0.1571 0.0
C827 C 0.8797 0.13798 0.13376 0.0
C828 C 0.89488 0.13959 0.17651 0.0
C829 C 0.95175 0.10637 0.1897 0.0
H830 H 0.92877 0.09249 0.25245 0.0
C831 C 0.00885 0.0522 0.26314 0.0
C832 C 0.00943 0.06057 0.28729 0.0
C833 C 0.99228 0.06181 0.24521 0.0
C834 C 0.93552 0.09655 0.23513 0.0
H835 H 0.89667 0.1102 0.11262 0.0
H836 H 0.9236 0.09504 0.14638 0.0
H837 H 0.90151 0.10965 0.21959 0.0
H838 H 0.99243 0.08512 0.31162 0.0
H839 H 0.96376 0.10235 0.28009 0.0
H840 H 0.98572 0.09347 0.20508 0.0
C841 C 0.91148 0.11007 0.14963 0.0
C842 C 0.91991 0.10638 0.21632 0.0
C843 C 0.89593 0.1187 0.1303 0.0
C844 C 0.99263 0.07844 0.29315 0.0
C845 C 0.97605 0.08814 0.27513 0.0
C846 C 0.96733 0.09668 0.20847 0.0
C847 C 0.91115 0.12041 0.17294 0.0
C848 C 0.92782 0.11112 0.19333 0.0
C849 C 0.97594 0.08019 0.25088 0.0
C850 C 0.95936 0.09135 0.23132 0.0
H851 H 0.86707 0.16317 0.16046 0.0
H852 H 0.89435 0.14803 0.19424 0.0
H853 H 0.95848 0.11028 0.17233 0.0
H854 H 0.02169 0.03873 0.25783 0.0
H855 H 0.99242 0.05494 0.2268 0.0
C856 C 0.22179 0.75105 0.0467 0.0
C857 C 0.23016 0.7755 0.05044 0.0
C858 C 0.23318 0.73116 0.05925 0.0
C859 C 0.2902 0.71294 0.09315 0.0
H860 H 0.25225 0.65982 0.11732 0.0
C861 C 0.33311 0.62329 0.13472 0.0
C862 C 0.32388 0.61387 0.15569 0.0
C863 C 0.32135 0.64241 0.12126 0.0
C864 C 0.26311 0.67458 0.11084 0.0
H865 H 0.25705 0.79811 0.07054 0.0
H866 H 0.27668 0.76341 0.09268 0.0
H867 H 0.23251 0.69487 0.09587 0.0
H868 H 0.29508 0.61713 0.17898 0.0
H869 H 0.27463 0.65058 0.15561 0.0
H870 H 0.32077 0.693 0.10871 0.0
C871 C 0.26153 0.75961 0.07971 0.0
C872 C 0.2518 0.69454 0.09828 0.0
C873 C 0.25018 0.77953 0.06709 0.0
C874 C 0.30245 0.62374 0.16271 0.0
C875 C 0.29073 0.64292 0.1493 0.0
C876 C 0.3015 0.69301 0.10575 0.0
C877 C 0.25317 0.73519 0.07592 0.0
C878 C 0.26521 0.71397 0.0893 0.0
C879 C 0.30014 0.65261 0.12852 0.0
C880 C 0.28809 0.67359 0.11476 0.0
H881 H 0.20649 0.74719 0.03394 0.0
H882 H 0.22649 0.71255 0.05563 0.0
H883 H 0.30107 0.72745 0.08624 0.0
H884 H 0.34943 0.61583 0.12868 0.0
H885 H 0.32885 0.64913 0.1051 0.0
C886 C 0.72309 0.7504 0.5411 0.0
C887 C 0.73176 0.72643 0.5472 0.0
C888 C 0.73406 0.77141 0.55189 0.0
C889 C 0.79023 0.79288 0.58509 0.0
H890 H 0.75062 0.84593 0.60675 0.0
C891 C 0.79983 0.8816 0.65411 0.0
C892 C 0.82149 0.89157 0.64784 0.0
C893 C 0.78832 0.86292 0.64001 0.0
C894 C 0.76192 0.83124 0.60087 0.0
H895 H 0.75893 0.70587 0.56943 0.0
H896 H 0.77785 0.74246 0.58838 0.0
H897 H 0.73201 0.80993 0.58612 0.0
H898 H 0.84749 0.89055 0.62124 0.0
H899 H 0.82732 0.85801 0.59651 0.0
H900 H 0.82011 0.81377 0.60052 0.0
C901 C 0.76275 0.74502 0.57499 0.0
C902 C 0.75127 0.81073 0.58882 0.0
C903 C 0.7518 0.72401 0.56421 0.0
C904 C 0.83101 0.88297 0.62674 0.0
C905 C 0.81948 0.86431 0.61261 0.0
C906 C 0.80087 0.81337 0.59714 0.0
C907 C 0.75396 0.76895 0.56903 0.0
C908 C 0.7653 0.79122 0.58097 0.0
C909 C 0.79819 0.85381 0.61928 0.0
C910 C 0.78684 0.8327 0.60534 0.0
H911 H 0.70774 0.75301 0.52803 0.0
H912 H 0.72704 0.78959 0.54667 0.0
H913 H 0.80155 0.7783 0.57903 0.0
H914 H 0.79221 0.88757 0.67045 0.0
H915 H 0.77212 0.85501 0.64585 0.0
C916 C 0.74569 0.15265 0.14268 0.0
C917 C 0.7695 0.16023 0.14212 0.0
C918 C 0.73551 0.15101 0.16485 0.0
C919 C 0.75077 0.14561 0.23105 0.0
H920 H 0.69249 0.18256 0.23701 0.0
C921 C 0.72538 0.18249 0.32251 0.0
C922 C 0.70124 0.18422 0.3268 0.0
C923 C 0.73191 0.17465 0.29997 0.0
C924 C 0.70849 0.17168 0.23562 0.0
H925 H 0.80151 0.17118 0.16442 0.0
H926 H 0.78384 0.16816 0.20283 0.0
H927 H 0.70699 0.17725 0.19705 0.0
H928 H 0.66503 0.17833 0.31093 0.0
H929 H 0.67648 0.16403 0.27175 0.0
H930 H 0.75259 0.14037 0.26959 0.0
C931 C 0.77302 0.16352 0.18622 0.0
C932 C 0.71679 0.16868 0.21271 0.0
C933 C 0.78306 0.16549 0.16416 0.0
C934 C 0.6838 0.17706 0.30829 0.0
C935 C 0.69034 0.16912 0.28573 0.0
C936 C 0.7424 0.14843 0.25391 0.0
C937 C 0.74911 0.15648 0.18681 0.0
C938 C 0.73838 0.15625 0.21032 0.0
C939 C 0.71447 0.16821 0.28118 0.0
C940 C 0.72153 0.16215 0.25657 0.0
H941 H 0.73481 0.14847 0.126 0.0
H942 H 0.71703 0.1455 0.16485 0.0
H943 H 0.76729 0.13561 0.22964 0.0
H944 H 0.73927 0.18753 0.33648 0.0
H945 H 0.75065 0.17447 0.29705 0.0
C946 C 0.24578 0.34301 0.64286 0.0
C947 C 0.26998 0.33751 0.6413 0.0
C948 C 0.23626 0.34258 0.66546 0.0
C949 C 0.24944 0.31558 0.727 0.0
H950 H 0.20167 0.36178 0.74605 0.0
C951 C 0.22514 0.31892 0.82486 0.0
C952 C 0.20076 0.3167 0.82795 0.0
C953 C 0.23263 0.32438 0.80206 0.0
C954 C 0.21494 0.34873 0.74085 0.0
H955 H 0.3035 0.32898 0.66226 0.0
H956 H 0.28722 0.32896 0.70135 0.0
H957 H 0.21651 0.36565 0.70579 0.0
H958 H 0.16508 0.31984 0.80974 0.0
H959 H 0.17828 0.32976 0.76984 0.0
H960 H 0.24819 0.29886 0.76199 0.0
C961 C 0.27528 0.33262 0.68522 0.0
C962 C 0.22336 0.35086 0.71782 0.0
C963 C 0.28465 0.33273 0.66277 0.0
C964 C 0.18399 0.32157 0.808 0.0
C965 C 0.19152 0.3272 0.78516 0.0
C966 C 0.24125 0.31363 0.74996 0.0
C967 C 0.25088 0.33691 0.68684 0.0
C968 C 0.24093 0.33445 0.71076 0.0
C969 C 0.21592 0.32792 0.78186 0.0
C970 C 0.22411 0.3303 0.75724 0.0
H971 H 0.23409 0.34683 0.62659 0.0
H972 H 0.21737 0.34591 0.66608 0.0
H973 H 0.26244 0.30215 0.72194 0.0
H974 H 0.23849 0.31585 0.83997 0.0
H975 H 0.25156 0.32529 0.80009 0.0
C976 C 0.75612 0.65028 0.45496 0.0
C977 C 0.73197 0.65703 0.4547 0.0
C978 C 0.76696 0.64868 0.43317 0.0
C979 C 0.75362 0.64184 0.3669 0.0
H980 H 0.81016 0.68169 0.3615 0.0
C981 C 0.77802 0.68099 0.27596 0.0
C982 C 0.80208 0.68412 0.27187 0.0
C983 C 0.77176 0.67235 0.29835 0.0
C984 C 0.7947 0.66999 0.36275 0.0
H985 H 0.70008 0.66646 0.43136 0.0
H986 H 0.71889 0.66347 0.3936 0.0
H987 H 0.79517 0.67578 0.40119 0.0
H988 H 0.83847 0.67981 0.28788 0.0
H989 H 0.82751 0.6642 0.3269 0.0
H990 H 0.75275 0.63646 0.32846 0.0
C991 C 0.72947 0.65947 0.41056 0.0
C992 C 0.78611 0.66665 0.38551 0.0
C993 C 0.71877 0.66143 0.43224 0.0
C994 C 0.81977 0.67748 0.2904 0.0
C995 C 0.81349 0.66878 0.31284 0.0
C996 C 0.76228 0.64502 0.3442 0.0
C997 C 0.7537 0.65331 0.41079 0.0
C998 C 0.76507 0.65322 0.38764 0.0
C999 C 0.7894 0.66651 0.31721 0.0
C1000 C 0.78246 0.65982 0.34173 0.0
H1001 H 0.76673 0.64677 0.472 0.0
H1002 H 0.78568 0.64387 0.4338 0.0
H1003 H 0.73754 0.63107 0.36813 0.0
H1004 H 0.76397 0.6856 0.26194 0.0
H1005 H 0.75302 0.67114 0.30114 0.0
C1006 C 0.7756 0.25382 0.05363 0.0
C1007 C 0.76642 0.22977 0.04925 0.0
C1008 C 0.76379 0.27461 0.04306 0.0
C1009 C 0.70512 0.29532 0.01443 0.0
H1010 H 0.74163 0.34641 0.98493 0.0
C1011 C 0.66175 0.36572 0.94563 0.0
C1012 C 0.66936 0.39059 0.9471 0.0
C1013 C 0.67362 0.34739 0.95999 0.0
C1014 C 0.73122 0.33249 0.9934 0.0
H1015 H 0.73748 0.20887 0.03029 0.0
H1016 H 0.71714 0.24499 0.01178 0.0
H1017 H 0.76232 0.31194 0.00668 0.0
H1018 H 0.69542 0.41568 0.965 0.0
H1019 H 0.71634 0.38348 0.99007 0.0
H1020 H 0.67402 0.3156 0.00082 0.0
C1021 C 0.73329 0.24782 0.02366 0.0
C1022 C 0.74306 0.31274 0.00586 0.0
C1023 C 0.74507 0.22706 0.03418 0.0
C1024 C 0.68924 0.39667 0.96326 0.0
C1025 C 0.7012 0.37825 0.97763 0.0
C1026 C 0.6933 0.31501 0.00197 0.0
C1027 C 0.74252 0.27183 0.02793 0.0
C1028 C 0.73012 0.29374 0.01619 0.0
C1029 C 0.69347 0.35341 0.97616 0.0
C1030 C 0.70619 0.33361 0.99099 0.0
H1031 H 0.79197 0.25664 0.06516 0.0
H1032 H 0.77123 0.29288 0.04688 0.0
H1033 H 0.69465 0.28125 0.0226 0.0
H1034 H 0.64686 0.36026 0.93298 0.0
H1035 H 0.66751 0.32835 0.95806 0.0
C1036 C 0.24266 0.27234 0.53864 0.0
C1037 C 0.2672 0.27173 0.54605 0.0
C1038 C 0.23134 0.25157 0.52772 0.0
C1039 C 0.2423 0.1975 0.49121 0.0
H1040 H 0.18428 0.17108 0.51389 0.0
C1041 C 0.19792 0.10997 0.44787 0.0
C1042 C 0.17288 0.10956 0.44452 0.0
C1043 C 0.20981 0.12836 0.46207 0.0
C1044 C 0.20028 0.17839 0.50708 0.0
H1045 H 0.29911 0.24891 0.54767 0.0
H1046 H 0.27936 0.21287 0.52809 0.0
H1047 H 0.20392 0.2065 0.53464 0.0
H1048 H 0.14078 0.12775 0.45453 0.0
H1049 H 0.1614 0.16046 0.47805 0.0
H1050 H 0.23836 0.17029 0.46307 0.0
C1051 C 0.26892 0.22936 0.53097 0.0
C1052 C 0.21156 0.19861 0.51907 0.0
C1053 C 0.28017 0.24994 0.54227 0.0
C1054 C 0.16007 0.1277 0.45625 0.0
C1055 C 0.17195 0.1463 0.47014 0.0
C1056 C 0.23084 0.17757 0.47896 0.0
C1057 C 0.24442 0.22999 0.52361 0.0
C1058 C 0.23264 0.20834 0.51121 0.0
C1059 C 0.197 0.14706 0.47304 0.0
C1060 C 0.20964 0.16774 0.48669 0.0
H1061 H 0.23217 0.28882 0.54138 0.0
H1062 H 0.21244 0.25254 0.52204 0.0
H1063 H 0.25842 0.20487 0.48465 0.0
H1064 H 0.20845 0.09649 0.43899 0.0
H1065 H 0.2291 0.128 0.46425 0.0
C1066 C 0.24779 0.85066 0.94438 0.0
C1067 C 0.23213 0.83188 0.95075 0.0
C1068 C 0.25666 0.85057 0.92144 0.0
C1069 C 0.2411 0.82612 0.8598 0.0
H1070 H 0.30744 0.83654 0.8492 0.0
C1071 C 0.28005 0.79189 0.77428 0.0
C1072 C 0.29492 0.80783 0.76228 0.0
C1073 C 0.27286 0.79813 0.79696 0.0
C1074 C 0.2888 0.83399 0.85189 0.0
H1075 H 0.21469 0.79755 0.93857 0.0
H1076 H 0.23025 0.79732 0.89913 0.0
H1077 H 0.29451 0.84128 0.89021 0.0
H1078 H 0.31406 0.84285 0.76502 0.0
H1079 H 0.30172 0.85352 0.80514 0.0
H1080 H 0.2354 0.81817 0.82182 0.0
C1081 C 0.23521 0.81246 0.91147 0.0
C1082 C 0.28142 0.83669 0.87531 0.0
C1083 C 0.22639 0.81254 0.93419 0.0
C1084 C 0.30273 0.83006 0.77381 0.0
C1085 C 0.29566 0.83622 0.79672 0.0
C1086 C 0.24846 0.82336 0.83656 0.0
C1087 C 0.24996 0.83174 0.90458 0.0
C1088 C 0.25761 0.83205 0.87957 0.0
C1089 C 0.28048 0.82038 0.80839 0.0
C1090 C 0.27247 0.82658 0.83247 0.0
H1091 H 0.25256 0.86582 0.95674 0.0
H1092 H 0.26808 0.86563 0.91661 0.0
H1093 H 0.22251 0.82307 0.86241 0.0
H1094 H 0.27422 0.77429 0.76635 0.0
H1095 H 0.26156 0.7853 0.80576 0.0
loop_
_geom_bond_atom_site_label_1
_geom_bond_atom_site_label_2
_geom_bond_distance
_geom_bond_site_symmetry_2
_ccdc_geom_bond_type
Sc0 O3 2.025 . S
Sc0 O10 2.105 . S
Sc0 O13 2.105 . S
Sc0 O16 2.105 . S
Sc0 O19 2.105 1_554 S
Sc1 O3 2.025 . S
Sc1 O11 2.105 1_554 S
Sc1 O15 2.105 . S
Sc1 O17 2.105 . S
Sc1 O21 2.105 1_554 S
Sc2 O3 2.025 . S
Sc2 O12 2.105 1_554 S
Sc2 O14 2.105 . S
Sc2 O18 2.105 . S
Sc2 O20 2.105 . S
O3 Sc0 2.025 . S
O3 Sc1 2.025 . S
O3 Sc2 2.025 . S
C4 O10 1.268 . S
C4 O20 1.268 . S
C5 O11 1.268 . S
C5 O19 1.268 . S
C6 O12 1.268 . S
C6 O21 1.268 . S
C7 O13 1.268 . S
C7 O17 1.268 . S
C8 O14 1.268 . S
C8 O16 1.268 . S
C9 O15 1.268 . S
C9 O18 1.268 . S
O10 Sc0 2.105 . S
O10 C4 1.268 . S
O11 Sc1 2.105 1_556 S
O11 C5 1.268 . S
O12 Sc2 2.105 1_556 S
O12 C6 1.268 . S
O13 Sc0 2.105 . S
O13 C7 1.268 . S
O14 Sc2 2.105 . S
O14 C8 1.268 . S
O15 Sc1 2.105 . S
O15 C9 1.268 . S
O16 Sc0 2.105 . S
O16 C8 1.268 . S
O17 Sc1 2.105 . S
O17 C7 1.268 . S
O18 Sc2 2.105 . S
O18 C9 1.268 . S
O19 Sc0 2.105 1_556 S
O19 C5 1.268 . S
O20 Sc2 2.105 . S
O20 C4 1.268 . S
O21 Sc1 2.105 1_556 S
O21 C6 1.268 . S
Sc22 O25 2.025 . S
Sc22 O32 2.105 . S
Sc22 O35 2.105 . S
Sc22 O38 2.105 . S
Sc22 O41 2.105 . S
Sc23 O25 2.025 . S
Sc23 O33 2.105 . S
Sc23 O37 2.105 . S
Sc23 O39 2.105 . S
Sc23 O43 2.105 . S
Sc24 O25 2.025 . S
Sc24 O34 2.105 . S
Sc24 O36 2.105 . S
Sc24 O40 2.105 . S
Sc24 O42 2.105 . S
O25 Sc22 2.025 . S
O25 Sc23 2.025 . S
O25 Sc24 2.025 . S
C26 O32 1.268 . S
C26 O42 1.268 . S
C27 O33 1.268 . S
C27 O41 1.268 . S
C28 O34 1.268 . S
C28 O43 1.268 . S
C29 O35 1.268 . S
C29 O39 1.268 . S
C30 O36 1.268 . S
C30 O38 1.268 . S
C31 O37 1.268 . S
C31 O40 1.268 . S
O32 Sc22 2.105 . S
O32 C26 1.268 . S
O33 Sc23 2.105 . S
O33 C27 1.268 . S
O34 Sc24 2.105 . S
O34 C28 1.268 . S
O35 Sc22 2.105 . S
O35 C29 1.268 . S
O36 Sc24 2.105 . S
O36 C30 1.268 . S
O37 Sc23 2.105 . S
O37 C31 1.268 . S
O38 Sc22 2.105 . S
O38 C30 1.268 . S
O39 Sc23 2.105 . S
O39 C29 1.268 . S
O40 Sc24 2.105 . S
O40 C31 1.268 . S
O41 Sc22 2.105 . S
O41 C27 1.268 . S
O42 Sc24 2.105 . S
O42 C26 1.268 . S
O43 Sc23 2.105 . S
O43 C28 1.268 . S
Sc44 O47 2.025 . S
Sc44 O54 2.105 . S
Sc44 O57 2.105 . S
Sc44 O60 2.105 . S
Sc44 O63 2.105 . S
Sc45 O47 2.025 . S
Sc45 O55 2.105 . S
Sc45 O59 2.105 . S
Sc45 O61 2.105 . S
Sc45 O65 2.105 . S
Sc46 O47 2.025 . S
Sc46 O56 2.105 . S
Sc46 O58 2.105 . S
Sc46 O62 2.105 . S
Sc46 O64 2.105 . S
O47 Sc44 2.025 . S
O47 Sc45 2.025 . S
O47 Sc46 2.025 . S
C48 O54 1.268 . S
C48 O64 1.268 . S
C49 O55 1.268 . S
C49 O63 1.268 . S
C50 O56 1.268 . S
C50 O65 1.268 . S
C51 O57 1.268 . S
C51 O61 1.268 . S
C52 O58 1.268 . S
C52 O60 1.268 . S
C53 O59 1.268 . S
C53 O62 1.268 . S
O54 Sc44 2.105 . S
O54 C48 1.268 . S
O55 Sc45 2.105 . S
O55 C49 1.268 . S
O56 Sc46 2.105 . S
O56 C50 1.268 . S
O57 Sc44 2.105 . S
O57 C51 1.268 . S
O58 Sc46 2.105 . S
O58 C52 1.268 . S
O59 Sc45 2.105 . S
O59 C53 1.268 . S
O60 Sc44 2.105 . S
O60 C52 1.268 . S
O61 Sc45 2.105 . S
O61 C51 1.268 . S
O62 Sc46 2.105 . S
O62 C53 1.268 . S
O63 Sc44 2.105 . S
O63 C49 1.268 . S
O64 Sc46 2.105 . S
O64 C48 1.268 . S
O65 Sc45 2.105 . S
O65 C50 1.268 . S
Sc66 O69 2.025 . S
Sc66 O76 2.105 . S
Sc66 O79 2.105 . S
Sc66 O82 2.105 . S
Sc66 O85 2.105 . S
Sc67 O69 2.025 . S
Sc67 O77 2.105 . S
Sc67 O81 2.105 . S
Sc67 O83 2.105 . S
Sc67 O87 2.105 . S
Sc68 O69 2.025 . S
Sc68 O78 2.105 . S
Sc68 O80 2.105 . S
Sc68 O84 2.105 . S
Sc68 O86 2.105 . S
O69 Sc66 2.025 . S
O69 Sc67 2.025 . S
O69 Sc68 2.025 . S
C70 O76 1.268 . S
C70 O86 1.268 . S
C71 O77 1.268 . S
C71 O85 1.268 . S
C72 O78 1.268 . S
C72 O87 1.268 . S
C73 O79 1.268 . S
C73 O83 1.268 . S
C74 O80 1.268 . S
C74 O82 1.268 . S
C75 O81 1.268 . S
C75 O84 1.268 . S
O76 Sc66 2.105 . S
O76 C70 1.268 . S
O77 Sc67 2.105 . S
O77 C71 1.268 . S
O78 Sc68 2.105 . S
O78 C72 1.268 . S
O79 Sc66 2.105 . S
O79 C73 1.268 . S
O80 Sc68 2.105 . S
O80 C74 1.268 . S
O81 Sc67 2.105 . S
O81 C75 1.268 . S
O82 Sc66 2.105 . S
O82 C74 1.268 . S
O83 Sc67 2.105 . S
O83 C73 1.268 . S
O84 Sc68 2.105 . S
O84 C75 1.268 . S
O85 Sc66 2.105 . S
O85 C71 1.268 . S
O86 Sc68 2.105 . S
O86 C70 1.268 . S
O87 Sc67 2.105 . S
O87 C72 1.268 . S
C88 C89 1.384 . S
C88 H101 0.947 . S
C88 C123 1.382 . S
C89 C88 1.384 . S
C89 C90 1.378 . S
C90 C89 1.378 . S
C90 C91 1.378 . S
C90 H102 0.952 . S
C91 C90 1.378 . S
C91 H103 0.950 . S
C91 C122 1.383 . S
H92 C111 0.947 . S
H93 C112 0.946 . S
H94 C114 0.953 . S
H95 C115 0.945 . S
H96 C117 0.952 . S
H97 C118 0.949 . S
H98 C120 0.950 . S
H99 C121 0.948 . S
H100 C123 0.951 . S
H101 C88 0.947 . S
H102 C90 0.952 . S
H103 C91 0.950 . S
N104 C107 1.382 . S
N104 C109 1.363 . S
N105 C107 1.371 . S
N105 C108 1.372 . S
N106 C108 1.361 . S
N106 C109 1.377 . S
C107 N104 1.382 . S
C107 N105 1.371 . S
C107 C110 1.480 . S
C108 N105 1.372 . S
C108 N106 1.361 . S
C108 C116 1.457 . S
C109 N104 1.363 . S
C109 N106 1.377 . S
C109 C122 1.479 . S
C110 C107 1.480 . S
C110 C111 1.383 . S
C110 C115 1.385 . S
C111 H92 0.947 . S
C111 C110 1.383 . S
C111 C112 1.388 . S
C112 H93 0.946 . S
C112 C111 1.388 . S
C112 C113 1.384 . S
C113 C112 1.384 . S
C113 C114 1.377 . S
C114 H94 0.953 . S
C114 C113 1.377 . S
C114 C115 1.369 . S
C115 H95 0.945 . S
C115 C110 1.385 . S
C115 C114 1.369 . S
C116 C108 1.457 . S
C116 C117 1.372 . S
C116 C121 1.364 . S
C117 H96 0.952 . S
C117 C116 1.372 . S
C117 C118 1.389 1_545 S
C118 H97 0.949 . S
C118 C117 1.389 1_565 S
C118 C119 1.387 . S
C119 C118 1.387 . S
C119 C120 1.372 . S
C120 H98 0.950 . S
C120 C119 1.372 . S
C120 C121 1.379 1_565 S
C121 H99 0.948 . S
C121 C116 1.364 . S
C121 C120 1.379 1_545 S
C122 C91 1.383 . S
C122 C109 1.479 . S
C122 C123 1.398 . S
C123 C88 1.382 . S
C123 H100 0.951 . S
C123 C122 1.398 . S
C124 C125 1.384 . S
C124 H137 0.947 . S
C124 C159 1.382 . S
C125 C124 1.384 . S
C125 C126 1.378 . S
C126 C125 1.378 . S
C126 C127 1.378 . S
C126 H138 0.952 . S
C127 C126 1.378 . S
C127 H139 0.950 . S
C127 C158 1.383 . S
H128 C147 0.947 . S
H129 C148 0.946 . S
H130 C150 0.953 . S
H131 C151 0.945 . S
H132 C153 0.952 . S
H133 C154 0.949 . S
H134 C156 0.950 . S
H135 C157 0.948 . S
H136 C159 0.951 . S
H137 C124 0.947 . S
H138 C126 0.952 . S
H139 C127 0.950 . S
N140 C143 1.382 . S
N140 C145 1.363 . S
N141 C143 1.371 . S
N141 C144 1.372 . S
N142 C144 1.361 . S
N142 C145 1.377 . S
C143 N140 1.382 . S
C143 N141 1.371 . S
C143 C146 1.480 . S
C144 N141 1.372 . S
C144 N142 1.361 . S
C144 C152 1.457 . S
C145 N140 1.363 . S
C145 N142 1.377 . S
C145 C158 1.479 . S
C146 C143 1.480 . S
C146 C147 1.383 . S
C146 C151 1.385 . S
C147 H128 0.947 . S
C147 C146 1.383 . S
C147 C148 1.388 . S
C148 H129 0.946 . S
C148 C147 1.388 . S
C148 C149 1.384 . S
C149 C148 1.384 . S
C149 C150 1.377 . S
C150 H130 0.953 . S
C150 C149 1.377 . S
C150 C151 1.369 . S
C151 H131 0.945 . S
C151 C146 1.385 . S
C151 C150 1.369 . S
C152 C144 1.457 . S
C152 C153 1.372 . S
C152 C157 1.364 . S
C153 H132 0.952 . S
C153 C152 1.372 . S
C153 C154 1.389 . S
C154 H133 0.949 . S
C154 C153 1.389 . S
C154 C155 1.387 . S
C155 C154 1.387 . S
C155 C156 1.372 . S
C156 H134 0.950 . S
C156 C155 1.372 . S
C156 C157 1.379 . S
C157 H135 0.948 . S
C157 C152 1.364 . S
C157 C156 1.379 . S
C158 C127 1.383 . S
C158 C145 1.479 . S
C158 C159 1.398 . S
C159 C124 1.382 . S
C159 H136 0.951 . S
C159 C158 1.398 . S
C160 C161 1.384 . S
C160 H173 0.947 . S
C160 C195 1.382 . S
C161 C160 1.384 . S
C161 C162 1.378 . S
C162 C161 1.378 . S
C162 C163 1.378 . S
C162 H174 0.952 . S
C163 C162 1.378 . S
C163 H175 0.950 . S
C163 C194 1.383 . S
H164 C183 0.947 . S
H165 C184 0.946 . S
H166 C186 0.953 . S
H167 C187 0.945 . S
H168 C189 0.952 . S
H169 C190 0.949 . S
H170 C192 0.950 . S
H171 C193 0.948 . S
H172 C195 0.951 . S
H173 C160 0.947 . S
H174 C162 0.952 . S
H175 C163 0.950 . S
N176 C179 1.382 . S
N176 C181 1.363 . S
N177 C179 1.371 . S
N177 C180 1.372 . S
N178 C180 1.361 . S
N178 C181 1.377 . S
C179 N176 1.382 . S
C179 N177 1.371 . S
C179 C182 1.480 . S
C180 N177 1.372 . S
C180 N178 1.361 . S
C180 C188 1.457 . S
C181 N176 1.363 . S
C181 N178 1.377 . S
C181 C194 1.479 . S
C182 C179 1.480 . S
C182 C183 1.383 . S
C182 C187 1.385 . S
C183 H164 0.947 . S
C183 C182 1.383 . S
C183 C184 1.388 . S
C184 H165 0.946 . S
C184 C183 1.388 . S
C184 C185 1.384 . S
C185 C184 1.384 . S
C185 C186 1.377 . S
C186 H166 0.953 . S
C186 C185 1.377 . S
C186 C187 1.369 . S
C187 H167 0.945 . S
C187 C182 1.385 . S
C187 C186 1.369 . S
C188 C180 1.457 . S
C188 C189 1.372 . S
C188 C193 1.364 . S
C189 H168 0.952 . S
C189 C188 1.372 . S
C189 C190 1.389 . S
C190 H169 0.949 . S
C190 C189 1.389 . S
C190 C191 1.387 . S
C191 C190 1.387 . S
C191 C192 1.372 . S
C192 H170 0.950 . S
C192 C191 1.372 . S
C192 C193 1.379 . S
C193 H171 0.948 . S
C193 C188 1.364 . S
C193 C192 1.379 . S
C194 C163 1.383 . S
C194 C181 1.479 . S
C194 C195 1.398 . S
C195 C160 1.382 . S
C195 H172 0.951 . S
C195 C194 1.398 . S
C196 C197 1.384 . S
C196 H209 0.947 . S
C196 C231 1.382 . S
C197 C196 1.384 . S
C197 C198 1.378 . S
C198 C197 1.378 . S
C198 C199 1.378 . S
C198 H210 0.952 . S
C199 C198 1.378 . S
C199 H211 0.950 . S
C199 C230 1.383 . S
H200 C219 0.947 . S
H201 C220 0.946 . S
H202 C222 0.953 . S
H203 C223 0.945 . S
H204 C225 0.952 . S
H205 C226 0.949 . S
H206 C228 0.950 . S
H207 C229 0.948 . S
H208 C231 0.951 . S
H209 C196 0.947 . S
H210 C198 0.952 . S
H211 C199 0.950 . S
N212 C215 1.382 . S
N212 C217 1.363 . S
N213 C215 1.371 . S
N213 C216 1.372 . S
N214 C216 1.361 . S
N214 C217 1.377 . S
C215 N212 1.382 . S
C215 N213 1.371 . S
C215 C218 1.480 . S
C216 N213 1.372 . S
C216 N214 1.361 . S
C216 C224 1.457 . S
C217 N212 1.363 . S
C217 N214 1.377 . S
C217 C230 1.479 . S
C218 C215 1.480 . S
C218 C219 1.383 . S
C218 C223 1.385 . S
C219 H200 0.947 . S
C219 C218 1.383 . S
C219 C220 1.388 . S
C220 H201 0.946 . S
C220 C219 1.388 . S
C220 C221 1.384 . S
C221 C220 1.384 . S
C221 C222 1.377 . S
C222 H202 0.953 . S
C222 C221 1.377 . S
C222 C223 1.369 . S
C223 H203 0.945 . S
C223 C218 1.385 . S
C223 C222 1.369 . S
C224 C216 1.457 . S
C224 C225 1.372 . S
C224 C229 1.364 . S
C225 H204 0.952 . S
C225 C224 1.372 . S
C225 C226 1.389 . S
C226 H205 0.949 . S
C226 C225 1.389 . S
C226 C227 1.387 . S
C227 C226 1.387 . S
C227 C228 1.372 . S
C228 H206 0.950 . S
C228 C227 1.372 . S
C228 C229 1.379 . S
C229 H207 0.948 . S
C229 C224 1.364 . S
C229 C228 1.379 . S
C230 C199 1.383 . S
C230 C217 1.479 . S
C230 C231 1.398 . S
C231 C196 1.382 . S
C231 H208 0.951 . S
C231 C230 1.398 . S
C232 C233 1.384 . S
C232 H245 0.947 . S
C232 C267 1.382 . S
C233 C232 1.384 . S
C233 C234 1.378 . S
C234 C233 1.378 . S
C234 C235 1.378 . S
C234 H246 0.952 . S
C235 C234 1.378 . S
C235 H247 0.950 . S
C235 C266 1.383 . S
H236 C255 0.947 . S
H237 C256 0.946 . S
H238 C258 0.953 . S
H239 C259 0.945 . S
H240 C261 0.952 . S
H241 C262 0.949 . S
H242 C264 0.950 . S
H243 C265 0.948 . S
H244 C267 0.951 . S
H245 C232 0.947 . S
H246 C234 0.952 . S
H247 C235 0.950 . S
N248 C251 1.382 . S
N248 C253 1.363 . S
N249 C251 1.371 . S
N249 C252 1.372 . S
N250 C252 1.361 . S
N250 C253 1.377 . S
C251 N248 1.382 . S
C251 N249 1.371 . S
C251 C254 1.480 . S
C252 N249 1.372 . S
C252 N250 1.361 . S
C252 C260 1.457 . S
C253 N248 1.363 . S
C253 N250 1.377 . S
C253 C266 1.479 . S
C254 C251 1.480 . S
C254 C255 1.383 . S
C254 C259 1.385 . S
C255 H236 0.947 . S
C255 C254 1.383 . S
C255 C256 1.388 . S
C256 H237 0.946 . S
C256 C255 1.388 . S
C256 C257 1.384 . S
C257 C256 1.384 . S
C257 C258 1.377 . S
C258 H238 0.953 . S
C258 C257 1.377 . S
C258 C259 1.369 . S
C259 H239 0.945 . S
C259 C254 1.385 . S
C259 C258 1.369 . S
C260 C252 1.457 . S
C260 C261 1.372 . S
C260 C265 1.364 . S
C261 H240 0.952 . S
C261 C260 1.372 . S
C261 C262 1.389 . S
C262 H241 0.949 . S
C262 C261 1.389 . S
C262 C263 1.387 . S
C263 C262 1.387 . S
C263 C264 1.372 . S
C264 H242 0.950 . S
C264 C263 1.372 . S
C264 C265 1.379 . S
C265 H243 0.948 . S
C265 C260 1.364 . S
C265 C264 1.379 . S
C266 C235 1.383 . S
C266 C253 1.479 . S
C266 C267 1.398 . S
C267 C232 1.382 . S
C267 H244 0.951 . S
C267 C266 1.398 . S
C268 C269 1.384 . S
C268 H281 0.947 . S
C268 C303 1.382 . S
C269 C268 1.384 . S
C269 C270 1.378 . S
C270 C269 1.378 . S
C270 C271 1.378 . S
C270 H282 0.952 . S
C271 C270 1.378 . S
C271 H283 0.950 . S
C271 C302 1.383 . S
H272 C291 0.947 . S
H273 C292 0.946 . S
H274 C294 0.953 . S
H275 C295 0.945 . S
H276 C297 0.952 . S
H277 C298 0.949 . S
H278 C300 0.950 . S
H279 C301 0.948 . S
H280 C303 0.951 . S
H281 C268 0.947 . S
H282 C270 0.952 . S
H283 C271 0.950 . S
N284 C287 1.382 . S
N284 C289 1.363 . S
N285 C287 1.371 . S
N285 C288 1.372 . S
N286 C288 1.361 . S
N286 C289 1.377 . S
C287 N284 1.382 . S
C287 N285 1.371 . S
C287 C290 1.480 . S
C288 N285 1.372 . S
C288 N286 1.361 . S
C288 C296 1.457 . S
C289 N284 1.363 . S
C289 N286 1.377 . S
C289 C302 1.479 . S
C290 C287 1.480 . S
C290 C291 1.383 . S
C290 C295 1.385 . S
C291 H272 0.947 . S
C291 C290 1.383 . S
C291 C292 1.388 . S
C292 H273 0.946 . S
C292 C291 1.388 . S
C292 C293 1.384 . S
C293 C292 1.384 . S
C293 C294 1.377 . S
C294 H274 0.953 . S
C294 C293 1.377 . S
C294 C295 1.369 . S
C295 H275 0.945 . S
C295 C290 1.385 . S
C295 C294 1.369 . S
C296 C288 1.457 . S
C296 C297 1.372 . S
C296 C301 1.364 . S
C297 H276 0.952 . S
C297 C296 1.372 . S
C297 C298 1.389 . S
C298 H277 0.949 . S
C298 C297 1.389 . S
C298 C299 1.387 . S
C299 C298 1.387 . S
C299 C300 1.372 . S
C300 H278 0.950 . S
C300 C299 1.372 . S
C300 C301 1.379 . S
C301 H279 0.948 . S
C301 C296 1.364 . S
C301 C300 1.379 . S
C302 C271 1.383 . S
C302 C289 1.479 . S
C302 C303 1.398 . S
C303 C268 1.382 . S
C303 H280 0.951 . S
C303 C302 1.398 . S
C304 C305 1.384 . S
C304 H317 0.947 . S
C304 C339 1.382 . S
C305 C304 1.384 . S
C305 C306 1.378 . S
C306 C305 1.378 . S
C306 C307 1.378 . S
C306 H318 0.952 . S
C307 C306 1.378 . S
C307 H319 0.950 . S
C307 C338 1.383 . S
H308 C327 0.947 . S
H309 C328 0.946 . S
H310 C330 0.953 . S
H311 C331 0.945 . S
H312 C333 0.952 . S
H313 C334 0.949 . S
H314 C336 0.950 . S
H315 C337 0.948 . S
H316 C339 0.951 . S
H317 C304 0.947 . S
H318 C306 0.952 . S
H319 C307 0.950 . S
N320 C323 1.382 . S
N320 C325 1.363 . S
N321 C323 1.371 . S
N321 C324 1.372 . S
N322 C324 1.361 . S
N322 C325 1.377 . S
C323 N320 1.382 . S
C323 N321 1.371 . S
C323 C326 1.480 . S
C324 N321 1.372 . S
C324 N322 1.361 . S
C324 C332 1.457 . S
C325 N320 1.363 . S
C325 N322 1.377 . S
C325 C338 1.479 . S
C326 C323 1.480 . S
C326 C327 1.383 . S
C326 C331 1.385 . S
C327 H308 0.947 . S
C327 C326 1.383 . S
C327 C328 1.388 . S
C328 H309 0.946 . S
C328 C327 1.388 . S
C328 C329 1.384 . S
C329 C328 1.384 . S
C329 C330 1.377 . S
C330 H310 0.953 . S
C330 C329 1.377 . S
C330 C331 1.369 . S
C331 H311 0.945 . S
C331 C326 1.385 . S
C331 C330 1.369 . S
C332 C324 1.457 . S
C332 C333 1.372 . S
C332 C337 1.364 . S
C333 H312 0.952 . S
C333 C332 1.372 . S
C333 C334 1.389 . S
C334 H313 0.949 . S
C334 C333 1.389 . S
C334 C335 1.387 . S
C335 C334 1.387 . S
C335 C336 1.372 . S
C336 H314 0.950 . S
C336 C335 1.372 . S
C336 C337 1.379 . S
C337 H315 0.948 . S
C337 C332 1.364 . S
C337 C336 1.379 . S
C338 C307 1.383 . S
C338 C325 1.479 . S
C338 C339 1.398 . S
C339 C304 1.382 . S
C339 H316 0.951 . S
C339 C338 1.398 . S
C340 C341 1.384 . S
C340 H353 0.947 . S
C340 C375 1.382 1_545 S
C341 C340 1.384 . S
C341 C342 1.378 . S
C342 C341 1.378 . S
C342 C343 1.378 1_545 S
C342 H354 0.952 . S
C343 C342 1.378 1_565 S
C343 H355 0.950 . S
C343 C374 1.383 . S
H344 C363 0.947 . S
H345 C364 0.946 . S
H346 C366 0.953 . S
H347 C367 0.945 . S
H348 C369 0.952 . S
H349 C370 0.949 . S
H350 C372 0.950 . S
H351 C373 0.948 . S
H352 C375 0.951 . S
H353 C340 0.947 . S
H354 C342 0.952 . S
H355 C343 0.950 . S
N356 C359 1.382 . S
N356 C361 1.363 . S
N357 C359 1.371 . S
N357 C360 1.372 . S
N358 C360 1.361 . S
N358 C361 1.377 . S
C359 N356 1.382 . S
C359 N357 1.371 . S
C359 C362 1.480 . S
C360 N357 1.372 . S
C360 N358 1.361 . S
C360 C368 1.457 . S
C361 N356 1.363 . S
C361 N358 1.377 . S
C361 C374 1.479 . S
C362 C359 1.480 . S
C362 C363 1.383 . S
C362 C367 1.385 . S
C363 H344 0.947 . S
C363 C362 1.383 . S
C363 C364 1.388 . S
C364 H345 0.946 . S
C364 C363 1.388 . S
C364 C365 1.384 . S
C365 C364 1.384 . S
C365 C366 1.377 . S
C366 H346 0.953 . S
C366 C365 1.377 . S
C366 C367 1.369 . S
C367 H347 0.945 . S
C367 C362 1.385 . S
C367 C366 1.369 . S
C368 C360 1.457 . S
C368 C369 1.372 . S
C368 C373 1.364 . S
C369 H348 0.952 . S
C369 C368 1.372 . S
C369 C370 1.389 . S
C370 H349 0.949 . S
C370 C369 1.389 . S
C370 C371 1.387 . S
C371 C370 1.387 . S
C371 C372 1.372 . S
C372 H350 0.950 . S
C372 C371 1.372 . S
C372 C373 1.379 . S
C373 H351 0.948 . S
C373 C368 1.364 . S
C373 C372 1.379 . S
C374 C343 1.383 . S
C374 C361 1.479 . S
C374 C375 1.398 . S
C375 C340 1.382 1_565 S
C375 H352 0.951 . S
C375 C374 1.398 . S
C376 C377 1.349 . S
C376 C378 1.327 . S
C376 H401 0.950 . S
C377 C376 1.349 . S
C377 C393 1.349 . S
C378 C376 1.327 . S
C378 C397 1.429 . S
C378 H402 0.950 . S
C379 C396 1.574 . S
C379 C398 1.368 . S
C379 H403 0.949 . S
H380 C384 0.949 . S
C381 C382 1.349 . S
C381 C383 1.327 . S
C381 H404 0.950 . S
C382 C381 1.349 . S
C382 C394 1.349 . S
C383 C381 1.327 . S
C383 C399 1.429 . S
C383 H405 0.950 . S
C384 H380 0.949 . S
C384 C392 1.574 . S
C384 C400 1.368 . S
H385 C393 0.950 . S
H386 C391 0.950 . S
H387 C392 0.949 . S
H388 C394 0.950 . S
H389 C395 0.950 . S
H390 C396 0.949 . S
C391 H386 0.950 . S
C391 C393 1.327 . S
C391 C397 1.429 . S
C392 C384 1.574 . S
C392 H387 0.949 . S
C392 C398 1.368 . S
C393 C377 1.349 . S
C393 H385 0.950 . S
C393 C391 1.327 . S
C394 C382 1.349 . S
C394 H388 0.950 . S
C394 C395 1.327 . S
C395 H389 0.950 . S
C395 C394 1.327 . S
C395 C399 1.429 . S
C396 C379 1.574 . S
C396 H390 0.949 . S
C396 C400 1.368 . S
C397 C378 1.429 . S
C397 C391 1.429 . S
C397 C398 1.523 . S
C398 C379 1.368 . S
C398 C392 1.368 . S
C398 C397 1.523 . S
C399 C383 1.429 . S
C399 C395 1.429 . S
C399 C400 1.523 . S
C400 C384 1.368 . S
C400 C396 1.368 . S
C400 C399 1.523 . S
H401 C376 0.950 . S
H402 C378 0.950 . S
H403 C379 0.949 . S
H404 C381 0.950 . S
H405 C383 0.950 . S
C406 C407 1.349 . S
C406 C408 1.327 . S
C406 H431 0.950 . S
C407 C406 1.349 . S
C407 C423 1.349 . S
C408 C406 1.327 . S
C408 C427 1.429 . S
C408 H432 0.950 . S
C409 C426 1.574 . S
C409 C428 1.368 . S
C409 H433 0.949 . S
H410 C414 0.949 . S
C411 C412 1.349 . S
C411 C413 1.327 . S
C411 H434 0.950 . S
C412 C411 1.349 . S
C412 C424 1.349 . S
C413 C411 1.327 . S
C413 C429 1.429 . S
C413 H435 0.950 . S
C414 H410 0.949 . S
C414 C422 1.574 . S
C414 C430 1.368 . S
H415 C423 0.950 . S
H416 C421 0.950 . S
H417 C422 0.949 . S
H418 C424 0.950 . S
H419 C425 0.950 . S
H420 C426 0.949 . S
C421 H416 0.950 . S
C421 C423 1.327 . S
C421 C427 1.429 . S
C422 C414 1.574 . S
C422 H417 0.949 . S
C422 C428 1.368 . S
C423 C407 1.349 . S
C423 H415 0.950 . S
C423 C421 1.327 . S
C424 C412 1.349 . S
C424 H418 0.950 . S
C424 C425 1.327 . S
C425 H419 0.950 . S
C425 C424 1.327 . S
C425 C429 1.429 . S
C426 C409 1.574 . S
C426 H420 0.949 . S
C426 C430 1.368 . S
C427 C408 1.429 . S
C427 C421 1.429 . S
C427 C428 1.523 . S
C428 C409 1.368 . S
C428 C422 1.368 . S
C428 C427 1.523 . S
C429 C413 1.429 . S
C429 C425 1.429 . S
C429 C430 1.523 . S
C430 C414 1.368 . S
C430 C426 1.368 . S
C430 C429 1.523 . S
H431 C406 0.950 . S
H432 C408 0.950 . S
H433 C409 0.949 . S
H434 C411 0.950 . S
H435 C413 0.950 . S
C436 C437 1.349 . S
C436 C438 1.327 . S
C436 H461 0.950 . S
C437 C436 1.349 . S
C437 C453 1.349 . S
C438 C436 1.327 . S
C438 C457 1.429 . S
C438 H462 0.950 . S
C439 C456 1.574 . S
C439 C458 1.368 . S
C439 H463 0.949 . S
H440 C444 0.949 . S
C441 C442 1.349 . S
C441 C443 1.327 . S
C441 H464 0.950 . S
C442 C441 1.349 . S
C442 C454 1.349 . S
C443 C441 1.327 . S
C443 C459 1.429 . S
C443 H465 0.950 . S
C444 H440 0.949 . S
C444 C452 1.574 . S
C444 C460 1.368 . S
H445 C453 0.950 . S
H446 C451 0.950 . S
H447 C452 0.949 1_545 S
H448 C454 0.950 . S
H449 C455 0.950 . S
H450 C456 0.949 . S
C451 H446 0.950 . S
C451 C453 1.327 . S
C451 C457 1.429 . S
C452 C444 1.574 . S
C452 H447 0.949 1_565 S
C452 C458 1.368 . S
C453 C437 1.349 . S
C453 H445 0.950 . S
C453 C451 1.327 . S
C454 C442 1.349 . S
C454 H448 0.950 . S
C454 C455 1.327 . S
C455 H449 0.950 . S
C455 C454 1.327 . S
C455 C459 1.429 . S
C456 C439 1.574 . S
C456 H450 0.949 . S
C456 C460 1.368 . S
C457 C438 1.429 . S
C457 C451 1.429 . S
C457 C458 1.523 1_545 S
C458 C439 1.368 . S
C458 C452 1.368 . S
C458 C457 1.523 1_565 S
C459 C443 1.429 . S
C459 C455 1.429 . S
C459 C460 1.523 . S
C460 C444 1.368 . S
C460 C456 1.368 . S
C460 C459 1.523 . S
H461 C436 0.950 . S
H462 C438 0.950 . S
H463 C439 0.949 . S
H464 C441 0.950 . S
H465 C443 0.950 . S
C466 C467 1.349 . S
C466 C468 1.327 . S
C466 H491 0.950 . S
C467 C466 1.349 . S
C467 C483 1.349 . S
C468 C466 1.327 . S
C468 C487 1.429 . S
C468 H492 0.950 . S
C469 C486 1.574 . S
C469 C488 1.368 . S
C469 H493 0.949 . S
H470 C474 0.949 . S
C471 C472 1.349 . S
C471 C473 1.327 . S
C471 H494 0.950 . S
C472 C471 1.349 . S
C472 C484 1.349 . S
C473 C471 1.327 . S
C473 C489 1.429 . S
C473 H495 0.950 . S
C474 H470 0.949 . S
C474 C482 1.574 . S
C474 C490 1.368 . S
H475 C483 0.950 . S
H476 C481 0.950 . S
H477 C482 0.949 . S
H478 C484 0.950 . S
H479 C485 0.950 . S
H480 C486 0.949 . S
C481 H476 0.950 . S
C481 C483 1.327 . S
C481 C487 1.429 . S
C482 C474 1.574 . S
C482 H477 0.949 . S
C482 C488 1.368 . S
C483 C467 1.349 . S
C483 H475 0.950 . S
C483 C481 1.327 . S
C484 C472 1.349 . S
C484 H478 0.950 . S
C484 C485 1.327 . S
C485 H479 0.950 . S
C485 C484 1.327 . S
C485 C489 1.429 . S
C486 C469 1.574 . S
C486 H480 0.949 . S
C486 C490 1.368 . S
C487 C468 1.429 . S
C487 C481 1.429 . S
C487 C488 1.523 . S
C488 C469 1.368 . S
C488 C482 1.368 . S
C488 C487 1.523 . S
C489 C473 1.429 . S
C489 C485 1.429 . S
C489 C490 1.523 . S
C490 C474 1.368 . S
C490 C486 1.368 . S
C490 C489 1.523 . S
H491 C466 0.950 . S
H492 C468 0.950 . S
H493 C469 0.949 . S
H494 C471 0.950 . S
H495 C473 0.950 . S
C496 C497 1.349 . S
C496 C498 1.327 . S
C496 H521 0.950 . S
C497 C496 1.349 . S
C497 C513 1.349 . S
C498 C496 1.327 . S
C498 C517 1.429 . S
C498 H522 0.950 . S
C499 C516 1.574 . S
C499 C518 1.368 . S
C499 H523 0.949 . S
H500 C504 0.949 . S
C501 C502 1.349 . S
C501 C503 1.327 . S
C501 H524 0.950 . S
C502 C501 1.349 . S
C502 C514 1.349 . S
C503 C501 1.327 . S
C503 C519 1.429 . S
C503 H525 0.950 . S
C504 H500 0.949 . S
C504 C512 1.574 . S
C504 C520 1.368 . S
H505 C513 0.950 . S
H506 C511 0.950 . S
H507 C512 0.949 . S
H508 C514 0.950 . S
H509 C515 0.950 . S
H510 C516 0.949 . S
C511 H506 0.950 . S
C511 C513 1.327 . S
C511 C517 1.429 . S
C512 C504 1.574 . S
C512 H507 0.949 . S
C512 C518 1.368 . S
C513 C497 1.349 . S
C513 H505 0.950 . S
C513 C511 1.327 . S
C514 C502 1.349 . S
C514 H508 0.950 . S
C514 C515 1.327 . S
C515 H509 0.950 . S
C515 C514 1.327 . S
C515 C519 1.429 . S
C516 C499 1.574 . S
C516 H510 0.949 . S
C516 C520 1.368 . S
C517 C498 1.429 . S
C517 C511 1.429 . S
C517 C518 1.523 . S
C518 C499 1.368 . S
C518 C512 1.368 . S
C518 C517 1.523 . S
C519 C503 1.429 . S
C519 C515 1.429 . S
C519 C520 1.523 . S
C520 C504 1.368 . S
C520 C516 1.368 . S
C520 C519 1.523 . S
H521 C496 0.950 . S
H522 C498 0.950 . S
H523 C499 0.949 . S
H524 C501 0.950 . S
H525 C503 0.950 . S
C526 C527 1.349 . S
C526 C528 1.327 1_554 S
C526 H551 0.950 1_554 S
C527 C526 1.349 . S
C527 C543 1.349 . S
C528 C526 1.327 1_556 S
C528 C547 1.429 1_556 S
C528 H552 0.950 . S
C529 C546 1.574 . S
C529 C548 1.368 . S
C529 H553 0.949 . S
H530 C534 0.949 . S
C531 C532 1.349 . S
C531 C533 1.327 . S
C531 H554 0.950 . S
C532 C531 1.349 . S
C532 C544 1.349 . S
C533 C531 1.327 . S
C533 C549 1.429 . S
C533 H555 0.950 1_556 S
C534 H530 0.949 . S
C534 C542 1.574 . S
C534 C550 1.368 . S
H535 C543 0.950 . S
H536 C541 0.950 . S
H537 C542 0.949 . S
H538 C544 0.950 . S
H539 C545 0.920 1_655 S
H540 C546 0.949 1_455 S
C541 H536 0.950 . S
C541 C543 1.327 . S
C541 C547 1.429 . S
C542 C534 1.574 . S
C542 H537 0.949 . S
C542 C548 1.368 1_556 S
C543 C527 1.349 . S
C543 H535 0.950 . S
C543 C541 1.327 . S
C544 C532 1.349 . S
C544 H538 0.950 . S
C544 C545 1.327 . S
C545 H539 0.920 1_455 S
C545 C544 1.327 . S
C545 C549 1.429 . S
C546 C529 1.574 . S
C546 H540 0.949 1_655 S
C546 C550 1.368 1_554 S
C547 C528 1.429 1_554 S
C547 C541 1.429 . S
C547 C548 1.523 . S
C548 C529 1.368 . S
C548 C542 1.368 1_554 S
C548 C547 1.523 . S
C549 C533 1.429 . S
C549 C545 1.429 . S
C549 C550 1.523 1_455 S
C550 C534 1.368 . S
C550 C546 1.368 1_556 S
C550 C549 1.523 1_655 S
H551 C526 0.950 1_556 S
H552 C528 0.950 . S
H553 C529 0.949 . S
H554 C531 0.950 . S
H555 C533 0.950 1_554 S
C556 C557 1.349 . S
C556 C558 1.327 . S
C556 H581 0.950 . S
C557 C556 1.349 . S
C557 C573 1.349 . S
C558 C556 1.327 . S
C558 C577 1.429 . S
C558 H582 0.950 . S
C559 C576 1.574 . S
C559 C578 1.368 . S
C559 H583 0.949 . S
H560 C564 0.949 . S
C561 C562 1.349 . S
C561 C563 1.327 . S
C561 H584 0.950 . S
C562 C561 1.349 . S
C562 C574 1.349 . S
C563 C561 1.327 . S
C563 C579 1.429 . S
C563 H585 0.950 . S
C564 H560 0.949 . S
C564 C572 1.574 . S
C564 C580 1.368 . S
H565 C573 0.950 . S
H566 C571 0.950 . S
H567 C572 0.949 . S
H568 C574 0.950 . S
H569 C575 0.950 . S
H570 C576 0.949 . S
C571 H566 0.950 . S
C571 C573 1.327 . S
C571 C577 1.429 . S
C572 C564 1.574 . S
C572 H567 0.949 . S
C572 C578 1.368 . S
C573 C557 1.349 . S
C573 H565 0.950 . S
C573 C571 1.327 . S
C574 C562 1.349 . S
C574 H568 0.950 . S
C574 C575 1.327 . S
C575 H569 0.950 . S
C575 C574 1.327 . S
C575 C579 1.429 . S
C576 C559 1.574 . S
C576 H570 0.949 . S
C576 C580 1.368 . S
C577 C558 1.429 . S
C577 C571 1.429 . S
C577 C578 1.523 . S
C578 C559 1.368 . S
C578 C572 1.368 . S
C578 C577 1.523 . S
C579 C563 1.429 . S
C579 C575 1.429 . S
C579 C580 1.523 . S
C580 C564 1.368 . S
C580 C576 1.368 . S
C580 C579 1.523 . S
H581 C556 0.950 . S
H582 C558 0.950 . S
H583 C559 0.949 . S
H584 C561 0.950 . S
H585 C563 0.950 . S
C586 C587 1.349 . S
C586 C588 1.327 . S
C586 H611 0.950 . S
C587 C586 1.349 . S
C587 C603 1.349 . S
C588 C586 1.327 . S
C588 C607 1.429 . S
C588 H612 0.950 . S
C589 C606 1.574 . S
C589 C608 1.368 . S
C589 H613 0.949 . S
H590 C594 0.949 . S
C591 C592 1.349 1_455 S
C591 C593 1.327 . S
C591 H614 0.950 . S
C592 C591 1.349 1_655 S
C592 C604 1.349 . S
C593 C591 1.327 . S
C593 C609 1.429 . S
C593 H615 0.950 . S
C594 H590 0.949 . S
C594 C602 1.574 . S
C594 C610 1.368 . S
H595 C603 0.950 . S
H596 C601 0.950 . S
H597 C602 0.949 . S
H598 C604 0.950 . S
H599 C605 0.950 . S
H600 C606 0.949 . S
C601 H596 0.950 . S
C601 C603 1.327 . S
C601 C607 1.429 . S
C602 C594 1.574 . S
C602 H597 0.949 . S
C602 C608 1.368 . S
C603 C587 1.349 . S
C603 H595 0.950 . S
C603 C601 1.327 . S
C604 C592 1.349 . S
C604 H598 0.950 . S
C604 C605 1.327 . S
C605 H599 0.950 . S
C605 C604 1.327 . S
C605 C609 1.429 1_655 S
C606 C589 1.574 . S
C606 H600 0.949 . S
C606 C610 1.368 . S
C607 C588 1.429 . S
C607 C601 1.429 . S
C607 C608 1.523 . S
C608 C589 1.368 . S
C608 C602 1.368 . S
C608 C607 1.523 . S
C609 C593 1.429 . S
C609 C605 1.429 1_455 S
C609 C610 1.523 . S
C610 C594 1.368 . S
C610 C606 1.368 . S
C610 C609 1.523 . S
H611 C586 0.950 . S
H612 C588 0.950 . S
H613 C589 0.949 . S
H614 C591 0.950 . S
H615 C593 0.950 . S
C616 C617 1.349 . S
C616 C618 1.327 . S
C616 H641 0.950 1_556 S
C617 C616 1.349 . S
C617 C633 1.349 . S
C618 C616 1.327 . S
C618 C637 1.429 . S
C618 H642 0.950 . S
C619 C636 1.574 . S
C619 C638 1.368 . S
C619 H643 0.949 . S
H620 C624 0.949 . S
C621 C622 1.349 . S
C621 C623 1.327 . S
C621 H644 0.950 . S
C622 C621 1.349 . S
C622 C634 1.349 . S
C623 C621 1.327 . S
C623 C639 1.429 . S
C623 H645 0.950 . S
C624 H620 0.949 . S
C624 C632 1.574 . S
C624 C640 1.368 . S
H625 C633 0.950 . S
H626 C631 0.950 . S
H627 C632 0.949 . S
H628 C634 0.950 . S
H629 C635 0.950 . S
H630 C636 0.949 . S
C631 H626 0.950 . S
C631 C633 1.327 . S
C631 C637 1.429 . S
C632 C624 1.574 . S
C632 H627 0.949 . S
C632 C638 1.368 . S
C633 C617 1.349 . S
C633 H625 0.950 . S
C633 C631 1.327 . S
C634 C622 1.349 . S
C634 H628 0.950 . S
C634 C635 1.327 . S
C635 H629 0.950 . S
C635 C634 1.327 . S
C635 C639 1.429 . S
C636 C619 1.574 . S
C636 H630 0.949 . S
C636 C640 1.368 . S
C637 C618 1.429 . S
C637 C631 1.429 . S
C637 C638 1.523 . S
C638 C619 1.368 . S
C638 C632 1.368 . S
C638 C637 1.523 . S
C639 C623 1.429 . S
C639 C635 1.429 . S
C639 C640 1.523 . S
C640 C624 1.368 . S
C640 C636 1.368 . S
C640 C639 1.523 . S
H641 C616 0.950 1_554 S
H642 C618 0.950 . S
H643 C619 0.949 . S
H644 C621 0.950 . S
H645 C623 0.950 . S
C646 C647 1.349 . S
C646 C648 1.327 . S
C646 H671 0.950 . S
C647 C646 1.349 . S
C647 C663 1.349 . S
C648 C646 1.327 . S
C648 C667 1.429 . S
C648 H672 0.950 . S
C649 C666 1.574 . S
C649 C668 1.368 . S
C649 H673 0.949 . S
H650 C654 0.949 . S
C651 C652 1.349 . S
C651 C653 1.327 . S
C651 H674 0.950 . S
C652 C651 1.349 . S
C652 C664 1.349 . S
C653 C651 1.327 . S
C653 C669 1.429 . S
C653 H675 0.950 . S
C654 H650 0.949 . S
C654 C662 1.574 . S
C654 C670 1.368 . S
H655 C663 0.950 . S
H656 C661 0.950 . S
H657 C662 0.949 . S
H658 C664 0.950 . S
H659 C665 0.950 . S
H660 C666 0.949 . S
C661 H656 0.950 . S
C661 C663 1.327 . S
C661 C667 1.429 . S
C662 C654 1.574 . S
C662 H657 0.949 . S
C662 C668 1.368 . S
C663 C647 1.349 . S
C663 H655 0.950 . S
C663 C661 1.327 . S
C664 C652 1.349 . S
C664 H658 0.950 . S
C664 C665 1.327 . S
C665 H659 0.950 . S
C665 C664 1.327 . S
C665 C669 1.429 . S
C666 C649 1.574 . S
C666 H660 0.949 . S
C666 C670 1.368 . S
C667 C648 1.429 . S
C667 C661 1.429 . S
C667 C668 1.523 . S
C668 C649 1.368 . S
C668 C662 1.368 . S
C668 C667 1.523 . S
C669 C653 1.429 . S
C669 C665 1.429 . S
C669 C670 1.523 . S
C670 C654 1.368 . S
C670 C666 1.368 . S
C670 C669 1.523 . S
H671 C646 0.950 . S
H672 C648 0.950 . S
H673 C649 0.949 . S
H674 C651 0.950 . S
H675 C653 0.950 . S
C676 C677 1.349 1_554 S
C676 C678 1.327 . S
C676 H701 0.950 . S
C677 C676 1.349 1_556 S
C677 C693 1.349 . S
C678 C676 1.327 . S
C678 C697 1.429 1_554 S
C678 H702 0.950 . S
C679 C696 1.574 . S
C679 C698 1.368 . S
C679 H703 0.943 1_545 S
H680 C684 0.969 . S
C681 C682 1.349 . S
C681 C683 1.327 . S
C681 H704 0.950 . S
C682 C681 1.349 . S
C682 C694 1.349 . S
C683 C681 1.327 . S
C683 C699 1.429 . S
C683 H705 0.950 . S
C684 H680 0.969 . S
C684 C692 1.574 . S
C684 C700 1.368 . S
H685 C693 0.950 . S
H686 C691 0.950 . S
H687 C692 0.949 1_554 S
H688 C694 0.950 . S
H689 C695 0.950 . S
H690 C696 0.949 . S
C691 H686 0.950 . S
C691 C693 1.327 . S
C691 C697 1.429 . S
C692 C684 1.574 . S
C692 H687 0.949 1_556 S
C692 C698 1.368 . S
C693 C677 1.349 . S
C693 H685 0.950 . S
C693 C691 1.327 . S
C694 C682 1.349 . S
C694 H688 0.950 . S
C694 C695 1.327 . S
C695 H689 0.950 . S
C695 C694 1.327 . S
C695 C699 1.429 . S
C696 C679 1.574 . S
C696 H690 0.949 . S
C696 C700 1.368 . S
C697 C678 1.429 1_556 S
C697 C691 1.429 . S
C697 C698 1.523 1_565 S
C698 C679 1.368 . S
C698 C692 1.368 . S
C698 C697 1.523 1_545 S
C699 C683 1.429 . S
C699 C695 1.429 . S
C699 C700 1.523 . S
C700 C684 1.368 . S
C700 C696 1.368 . S
C700 C699 1.523 . S
H701 C676 0.950 . S
H702 C678 0.950 . S
H703 C679 0.943 1_565 S
H704 C681 0.950 . S
H705 C683 0.950 . S
C706 C707 1.349 . S
C706 C708 1.327 . S
C706 H731 0.950 . S
C707 C706 1.349 . S
C707 C723 1.349 . S
C708 C706 1.327 . S
C708 C727 1.429 . S
C708 H732 0.950 . S
C709 C726 1.574 . S
C709 C728 1.368 . S
C709 H733 0.949 . S
H710 C714 0.949 . S
C711 C712 1.349 . S
C711 C713 1.327 . S
C711 H734 0.950 . S
C712 C711 1.349 . S
C712 C724 1.349 . S
C713 C711 1.327 . S
C713 C729 1.429 . S
C713 H735 0.950 . S
C714 H710 0.949 . S
C714 C722 1.574 . S
C714 C730 1.368 . S
H715 C723 0.950 . S
H716 C721 0.950 . S
H717 C722 0.949 . S
H718 C724 0.950 . S
H719 C725 0.950 . S
H720 C726 0.949 . S
C721 H716 0.950 . S
C721 C723 1.327 . S
C721 C727 1.429 . S
C722 C714 1.574 . S
C722 H717 0.949 . S
C722 C728 1.368 . S
C723 C707 1.349 . S
C723 H715 0.950 . S
C723 C721 1.327 . S
C724 C712 1.349 . S
C724 H718 0.950 . S
C724 C725 1.327 . S
C725 H719 0.950 . S
C725 C724 1.327 . S
C725 C729 1.429 . S
C726 C709 1.574 . S
C726 H720 0.949 . S
C726 C730 1.368 . S
C727 C708 1.429 . S
C727 C721 1.429 . S
C727 C728 1.523 . S
C728 C709 1.368 . S
C728 C722 1.368 . S
C728 C727 1.523 . S
C729 C713 1.429 . S
C729 C725 1.429 . S
C729 C730 1.523 . S
C730 C714 1.368 . S
C730 C726 1.368 . S
C730 C729 1.523 . S
H731 C706 0.950 . S
H732 C708 0.950 . S
H733 C709 0.949 . S
H734 C711 0.950 . S
H735 C713 0.950 . S
C736 C737 1.349 . S
C736 C738 1.327 . S
C736 H761 0.950 . S
C737 C736 1.349 . S
C737 C753 1.349 . S
C738 C736 1.327 . S
C738 C757 1.429 . S
C738 H762 0.950 . S
C739 C756 1.574 . S
C739 C758 1.368 . S
C739 H763 0.949 . S
H740 C744 0.949 . S
C741 C742 1.349 . S
C741 C743 1.327 . S
C741 H764 0.950 . S
C742 C741 1.349 . S
C742 C754 1.349 . S
C743 C741 1.327 . S
C743 C759 1.429 . S
C743 H765 0.950 . S
C744 H740 0.949 . S
C744 C752 1.574 . S
C744 C760 1.368 . S
H745 C753 0.950 . S
H746 C751 0.950 . S
H747 C752 0.949 . S
H748 C754 0.950 . S
H749 C755 0.950 . S
H750 C756 0.949 . S
C751 H746 0.950 . S
C751 C753 1.327 . S
C751 C757 1.429 . S
C752 C744 1.574 . S
C752 H747 0.949 . S
C752 C758 1.368 . S
C753 C737 1.349 . S
C753 H745 0.950 . S
C753 C751 1.327 . S
C754 C742 1.349 . S
C754 H748 0.950 . S
C754 C755 1.327 . S
C755 H749 0.950 . S
C755 C754 1.327 . S
C755 C759 1.429 . S
C756 C739 1.574 . S
C756 H750 0.949 . S
C756 C760 1.368 . S
C757 C738 1.429 . S
C757 C751 1.429 . S
C757 C758 1.523 . S
C758 C739 1.368 . S
C758 C752 1.368 . S
C758 C757 1.523 . S
C759 C743 1.429 . S
C759 C755 1.429 . S
C759 C760 1.523 . S
C760 C744 1.368 . S
C760 C756 1.368 . S
C760 C759 1.523 . S
H761 C736 0.950 . S
H762 C738 0.950 . S
H763 C739 0.949 . S
H764 C741 0.950 . S
H765 C743 0.950 . S
C766 C767 1.349 . S
C766 C768 1.327 . S
C766 H791 0.950 . S
C767 C766 1.349 . S
C767 C783 1.349 . S
C768 C766 1.327 . S
C768 C787 1.429 . S
C768 H792 0.950 . S
C769 C786 1.574 . S
C769 C788 1.368 . S
C769 H793 0.949 . S
H770 C774 0.949 1_655 S
C771 C772 1.349 . S
C771 C773 1.327 . S
C771 H794 0.950 . S
C772 C771 1.349 . S
C772 C784 1.349 . S
C773 C771 1.327 . S
C773 C789 1.429 . S
C773 H795 0.950 1_655 S
C774 H770 0.949 1_455 S
C774 C782 1.574 . S
C774 C790 1.368 . S
H775 C783 0.950 . S
H776 C781 0.950 . S
H777 C782 0.949 . S
H778 C784 0.950 . S
H779 C785 0.950 . S
H780 C786 0.949 . S
C781 H776 0.950 . S
C781 C783 1.327 . S
C781 C787 1.429 . S
C782 C774 1.574 . S
C782 H777 0.949 . S
C782 C788 1.368 . S
C783 C767 1.349 . S
C783 H775 0.950 . S
C783 C781 1.327 . S
C784 C772 1.349 . S
C784 H778 0.950 . S
C784 C785 1.327 . S
C785 H779 0.950 . S
C785 C784 1.327 . S
C785 C789 1.429 . S
C786 C769 1.574 . S
C786 H780 0.949 . S
C786 C790 1.368 . S
C787 C768 1.429 . S
C787 C781 1.429 . S
C787 C788 1.523 . S
C788 C769 1.368 . S
C788 C782 1.368 . S
C788 C787 1.523 . S
C789 C773 1.429 . S
C789 C785 1.429 . S
C789 C790 1.523 1_655 S
C790 C774 1.368 . S
C790 C786 1.368 . S
C790 C789 1.523 1_455 S
H791 C766 0.950 . S
H792 C768 0.950 . S
H793 C769 0.949 . S
H794 C771 0.950 . S
H795 C773 0.950 1_455 S
C796 C797 1.349 . S
C796 C798 1.327 . S
C796 H821 0.950 . S
C797 C796 1.349 . S
C797 C813 1.349 . S
C798 C796 1.327 . S
C798 C817 1.429 . S
C798 H822 0.950 . S
C799 C816 1.574 . S
C799 C818 1.368 . S
C799 H823 0.949 . S
H800 C804 0.949 . S
C801 C802 1.349 . S
C801 C803 1.327 . S
C801 H824 0.950 . S
C802 C801 1.349 . S
C802 C814 1.349 . S
C803 C801 1.327 . S
C803 C819 1.429 . S
C803 H825 0.950 . S
C804 H800 0.949 . S
C804 C812 1.574 . S
C804 C820 1.368 . S
H805 C813 0.950 . S
H806 C811 0.950 . S
H807 C812 0.949 . S
H808 C814 0.950 . S
H809 C815 0.950 . S
H810 C816 0.949 . S
C811 H806 0.950 . S
C811 C813 1.327 . S
C811 C817 1.429 . S
C812 C804 1.574 . S
C812 H807 0.949 . S
C812 C818 1.368 . S
C813 C797 1.349 . S
C813 H805 0.950 . S
C813 C811 1.327 . S
C814 C802 1.349 . S
C814 H808 0.950 . S
C814 C815 1.327 . S
C815 H809 0.950 . S
C815 C814 1.327 . S
C815 C819 1.429 . S
C816 C799 1.574 . S
C816 H810 0.949 . S
C816 C820 1.368 . S
C817 C798 1.429 . S
C817 C811 1.429 . S
C817 C818 1.523 . S
C818 C799 1.368 . S
C818 C812 1.368 . S
C818 C817 1.523 . S
C819 C803 1.429 . S
C819 C815 1.429 . S
C819 C820 1.523 . S
C820 C804 1.368 . S
C820 C816 1.368 . S
C820 C819 1.523 . S
H821 C796 0.950 . S
H822 C798 0.950 . S
H823 C799 0.949 . S
H824 C801 0.950 . S
H825 C803 0.950 . S
C826 C827 1.349 . S
C826 C828 1.327 . S
C826 H851 0.950 . S
C827 C826 1.349 . S
C827 C843 1.349 . S
C828 C826 1.327 . S
C828 C847 1.429 . S
C828 H852 0.950 . S
C829 C846 1.574 . S
C829 C848 1.368 . S
C829 H853 0.949 . S
H830 C834 0.949 . S
C831 C832 1.349 . S
C831 C833 1.327 1_455 S
C831 H854 0.950 . S
C832 C831 1.349 . S
C832 C844 1.349 1_455 S
C833 C831 1.327 1_655 S
C833 C849 1.429 . S
C833 H855 0.950 . S
C834 H830 0.949 . S
C834 C842 1.574 . S
C834 C850 1.368 . S
H835 C843 0.950 . S
H836 C841 0.950 . S
H837 C842 0.949 . S
H838 C844 0.950 . S
H839 C845 0.950 . S
H840 C846 0.949 . S
C841 H836 0.950 . S
C841 C843 1.327 . S
C841 C847 1.429 . S
C842 C834 1.574 . S
C842 H837 0.949 . S
C842 C848 1.368 . S
C843 C827 1.349 . S
C843 H835 0.950 . S
C843 C841 1.327 . S
C844 C832 1.349 1_655 S
C844 H838 0.950 . S
C844 C845 1.327 . S
C845 H839 0.950 . S
C845 C844 1.327 . S
C845 C849 1.429 . S
C846 C829 1.574 . S
C846 H840 0.949 . S
C846 C850 1.368 . S
C847 C828 1.429 . S
C847 C841 1.429 . S
C847 C848 1.523 . S
C848 C829 1.368 . S
C848 C842 1.368 . S
C848 C847 1.523 . S
C849 C833 1.429 . S
C849 C845 1.429 . S
C849 C850 1.523 . S
C850 C834 1.368 . S
C850 C846 1.368 . S
C850 C849 1.523 . S
H851 C826 0.950 . S
H852 C828 0.950 . S
H853 C829 0.949 . S
H854 C831 0.950 . S
H855 C833 0.950 . S
C856 C857 1.349 . S
C856 C858 1.327 . S
C856 H881 0.950 . S
C857 C856 1.349 . S
C857 C873 1.349 . S
C858 C856 1.327 . S
C858 C877 1.429 . S
C858 H882 0.950 . S
C859 C876 1.574 . S
C859 C878 1.368 . S
C859 H883 0.949 . S
H860 C864 0.949 . S
C861 C862 1.349 . S
C861 C863 1.327 . S
C861 H884 0.950 . S
C862 C861 1.349 . S
C862 C874 1.349 . S
C863 C861 1.327 . S
C863 C879 1.429 . S
C863 H885 0.950 . S
C864 H860 0.949 . S
C864 C872 1.574 . S
C864 C880 1.368 . S
H865 C873 0.950 . S
H866 C871 0.950 . S
H867 C872 0.949 . S
H868 C874 0.950 . S
H869 C875 0.950 . S
H870 C876 0.949 . S
C871 H866 0.950 . S
C871 C873 1.327 . S
C871 C877 1.429 . S
C872 C864 1.574 . S
C872 H867 0.949 . S
C872 C878 1.368 . S
C873 C857 1.349 . S
C873 H865 0.950 . S
C873 C871 1.327 . S
C874 C862 1.349 . S
C874 H868 0.950 . S
C874 C875 1.327 . S
C875 H869 0.950 . S
C875 C874 1.327 . S
C875 C879 1.429 . S
C876 C859 1.574 . S
C876 H870 0.949 . S
C876 C880 1.368 . S
C877 C858 1.429 . S
C877 C871 1.429 . S
C877 C878 1.523 . S
C878 C859 1.368 . S
C878 C872 1.368 . S
C878 C877 1.523 . S
C879 C863 1.429 . S
C879 C875 1.429 . S
C879 C880 1.523 . S
C880 C864 1.368 . S
C880 C876 1.368 . S
C880 C879 1.523 . S
H881 C856 0.950 . S
H882 C858 0.950 . S
H883 C859 0.949 . S
H884 C861 0.950 . S
H885 C863 0.950 . S
C886 C887 1.349 . S
C886 C888 1.327 . S
C886 H911 0.950 . S
C887 C886 1.349 . S
C887 C903 1.349 . S
C888 C886 1.327 . S
C888 C907 1.429 . S
C888 H912 0.950 . S
C889 C906 1.574 . S
C889 C908 1.368 . S
C889 H913 0.949 . S
H890 C894 0.949 . S
C891 C892 1.349 . S
C891 C893 1.327 . S
C891 H914 0.950 . S
C892 C891 1.349 . S
C892 C904 1.349 . S
C893 C891 1.327 . S
C893 C909 1.429 . S
C893 H915 0.950 . S
C894 H890 0.949 . S
C894 C902 1.574 . S
C894 C910 1.368 . S
H895 C903 0.950 . S
H896 C901 0.950 . S
H897 C902 0.949 . S
H898 C904 0.950 . S
H899 C905 0.950 . S
H900 C906 0.949 . S
C901 H896 0.950 . S
C901 C903 1.327 . S
C901 C907 1.429 . S
C902 C894 1.574 . S
C902 H897 0.949 . S
C902 C908 1.368 . S
C903 C887 1.349 . S
C903 H895 0.950 . S
C903 C901 1.327 . S
C904 C892 1.349 . S
C904 H898 0.950 . S
C904 C905 1.327 . S
C905 H899 0.950 . S
C905 C904 1.327 . S
C905 C909 1.429 . S
C906 C889 1.574 . S
C906 H900 0.949 . S
C906 C910 1.368 . S
C907 C888 1.429 . S
C907 C901 1.429 . S
C907 C908 1.523 . S
C908 C889 1.368 . S
C908 C902 1.368 . S
C908 C907 1.523 . S
C909 C893 1.429 . S
C909 C905 1.429 . S
C909 C910 1.523 . S
C910 C894 1.368 . S
C910 C906 1.368 . S
C910 C909 1.523 . S
H911 C886 0.950 . S
H912 C888 0.950 . S
H913 C889 0.949 . S
H914 C891 0.950 . S
H915 C893 0.950 . S
C916 C917 1.349 . S
C916 C918 1.327 . S
C916 H941 0.950 . S
C917 C916 1.349 . S
C917 C933 1.349 . S
C918 C916 1.327 . S
C918 C937 1.429 . S
C918 H942 0.950 . S
C919 C936 1.574 . S
C919 C938 1.368 . S
C919 H943 0.949 . S
H920 C924 0.949 . S
C921 C922 1.349 . S
C921 C923 1.327 . S
C921 H944 0.950 . S
C922 C921 1.349 . S
C922 C934 1.349 . S
C923 C921 1.327 . S
C923 C939 1.429 . S
C923 H945 0.950 . S
C924 H920 0.949 . S
C924 C932 1.574 . S
C924 C940 1.368 . S
H925 C933 0.950 . S
H926 C931 0.950 . S
H927 C932 0.949 . S
H928 C934 0.950 . S
H929 C935 0.950 . S
H930 C936 0.949 . S
C931 H926 0.950 . S
C931 C933 1.327 . S
C931 C937 1.429 . S
C932 C924 1.574 . S
C932 H927 0.949 . S
C932 C938 1.368 . S
C933 C917 1.349 . S
C933 H925 0.950 . S
C933 C931 1.327 . S
C934 C922 1.349 . S
C934 H928 0.950 . S
C934 C935 1.327 . S
C935 H929 0.950 . S
C935 C934 1.327 . S
C935 C939 1.429 . S
C936 C919 1.574 . S
C936 H930 0.949 . S
C936 C940 1.368 . S
C937 C918 1.429 . S
C937 C931 1.429 . S
C937 C938 1.523 . S
C938 C919 1.368 . S
C938 C932 1.368 . S
C938 C937 1.523 . S
C939 C923 1.429 . S
C939 C935 1.429 . S
C939 C940 1.523 . S
C940 C924 1.368 . S
C940 C936 1.368 . S
C940 C939 1.523 . S
H941 C916 0.950 . S
H942 C918 0.950 . S
H943 C919 0.949 . S
H944 C921 0.950 . S
H945 C923 0.950 . S
C946 C947 1.349 . S
C946 C948 1.327 . S
C946 H971 0.950 . S
C947 C946 1.349 . S
C947 C963 1.349 . S
C948 C946 1.327 . S
C948 C967 1.429 . S
C948 H972 0.950 . S
C949 C966 1.574 . S
C949 C968 1.368 . S
C949 H973 0.949 . S
H950 C954 0.949 . S
C951 C952 1.349 . S
C951 C953 1.327 . S
C951 H974 0.950 . S
C952 C951 1.349 . S
C952 C964 1.349 . S
C953 C951 1.327 . S
C953 C969 1.429 . S
C953 H975 0.950 . S
C954 H950 0.949 . S
C954 C962 1.574 . S
C954 C970 1.368 . S
H955 C963 0.950 . S
H956 C961 0.950 . S
H957 C962 0.949 . S
H958 C964 0.950 . S
H959 C965 0.950 . S
H960 C966 0.949 . S
C961 H956 0.950 . S
C961 C963 1.327 . S
C961 C967 1.429 . S
C962 C954 1.574 . S
C962 H957 0.949 . S
C962 C968 1.368 . S
C963 C947 1.349 . S
C963 H955 0.950 . S
C963 C961 1.327 . S
C964 C952 1.349 . S
C964 H958 0.950 . S
C964 C965 1.327 . S
C965 H959 0.950 . S
C965 C964 1.327 . S
C965 C969 1.429 . S
C966 C949 1.574 . S
C966 H960 0.949 . S
C966 C970 1.368 . S
C967 C948 1.429 . S
C967 C961 1.429 . S
C967 C968 1.523 . S
C968 C949 1.368 . S
C968 C962 1.368 . S
C968 C967 1.523 . S
C969 C953 1.429 . S
C969 C965 1.429 . S
C969 C970 1.523 . S
C970 C954 1.368 . S
C970 C966 1.368 . S
C970 C969 1.523 . S
H971 C946 0.950 . S
H972 C948 0.950 . S
H973 C949 0.949 . S
H974 C951 0.950 . S
H975 C953 0.950 . S
C976 C977 1.349 . S
C976 C978 1.327 . S
C976 H1001 0.950 . S
C977 C976 1.349 . S
C977 C993 1.349 . S
C978 C976 1.327 . S
C978 C997 1.429 . S
C978 H1002 0.950 . S
C979 C996 1.574 . S
C979 C998 1.368 . S
C979 H1003 0.949 . S
H980 C984 0.949 . S
C981 C982 1.349 . S
C981 C983 1.327 . S
C981 H1004 0.950 . S
C982 C981 1.349 . S
C982 C994 1.349 . S
C983 C981 1.327 . S
C983 C999 1.429 . S
C983 H1005 0.950 . S
C984 H980 0.949 . S
C984 C992 1.574 . S
C984 C1000 1.368 . S
H985 C993 0.950 . S
H986 C991 0.950 . S
H987 C992 0.949 . S
H988 C994 0.950 . S
H989 C995 0.950 . S
H990 C996 0.949 . S
C991 H986 0.950 . S
C991 C993 1.327 . S
C991 C997 1.429 . S
C992 C984 1.574 . S
C992 H987 0.949 . S
C992 C998 1.368 . S
C993 C977 1.349 . S
C993 H985 0.950 . S
C993 C991 1.327 . S
C994 C982 1.349 . S
C994 H988 0.950 . S
C994 C995 1.327 . S
C995 H989 0.950 . S
C995 C994 1.327 . S
C995 C999 1.429 . S
C996 C979 1.574 . S
C996 H990 0.949 . S
C996 C1000 1.368 . S
C997 C978 1.429 . S
C997 C991 1.429 . S
C997 C998 1.523 . S
C998 C979 1.368 . S
C998 C992 1.368 . S
C998 C997 1.523 . S
C999 C983 1.429 . S
C999 C995 1.429 . S
C999 C1000 1.523 . S
C1000 C984 1.368 . S
C1000 C996 1.368 . S
C1000 C999 1.523 . S
H1001 C976 0.950 . S
H1002 C978 0.950 . S
H1003 C979 0.949 . S
H1004 C981 0.950 . S
H1005 C983 0.950 . S
C1006 C1007 1.349 . S
C1006 C1008 1.327 . S
C1006 H1031 0.950 . S
C1007 C1006 1.349 . S
C1007 C1023 1.349 . S
C1008 C1006 1.327 . S
C1008 C1027 1.429 . S
C1008 H1032 0.950 . S
C1009 C1026 1.574 . S
C1009 C1028 1.368 . S
C1009 H1033 0.949 . S
H1010 C1014 0.964 . S
C1011 C1012 1.349 . S
C1011 C1013 1.327 . S
C1011 H1034 0.950 . S
C1012 C1011 1.349 . S
C1012 C1024 1.349 . S
C1013 C1011 1.327 . S
C1013 C1029 1.429 . S
C1013 H1035 0.950 . S
C1014 H1010 0.964 . S
C1014 C1022 1.574 1_556 S
C1014 C1030 1.368 . S
H1015 C1023 0.950 . S
H1016 C1021 0.950 . S
H1017 C1022 0.949 . S
H1018 C1024 0.950 . S
H1019 C1025 0.950 . S
H1020 C1026 0.949 . S
C1021 H1016 0.950 . S
C1021 C1023 1.327 1_556 S
C1021 C1027 1.429 1_556 S
C1022 C1014 1.574 1_554 S
C1022 H1017 0.949 . S
C1022 C1028 1.368 1_554 S
C1023 C1007 1.349 . S
C1023 H1015 0.950 . S
C1023 C1021 1.327 1_554 S
C1024 C1012 1.349 . S
C1024 H1018 0.950 . S
C1024 C1025 1.327 . S
C1025 H1019 0.950 . S
C1025 C1024 1.327 . S
C1025 C1029 1.429 . S
C1026 C1009 1.574 . S
C1026 H1020 0.949 . S
C1026 C1030 1.368 . S
C1027 C1008 1.429 . S
C1027 C1021 1.429 1_554 S
C1027 C1028 1.523 1_554 S
C1028 C1009 1.368 . S
C1028 C1022 1.368 1_556 S
C1028 C1027 1.523 1_556 S
C1029 C1013 1.429 . S
C1029 C1025 1.429 . S
C1029 C1030 1.523 . S
C1030 C1014 1.368 . S
C1030 C1026 1.368 . S
C1030 C1029 1.523 . S
H1031 C1006 0.950 . S
H1032 C1008 0.950 . S
H1033 C1009 0.949 . S
H1034 C1011 0.950 . S
H1035 C1013 0.950 . S
C1036 C1037 1.349 . S
C1036 C1038 1.327 . S
C1036 H1061 0.950 . S
C1037 C1036 1.349 . S
C1037 C1053 1.349 . S
C1038 C1036 1.327 . S
C1038 C1057 1.429 . S
C1038 H1062 0.950 . S
C1039 C1056 1.574 . S
C1039 C1058 1.368 . S
C1039 H1063 0.949 . S
H1040 C1044 0.949 . S
C1041 C1042 1.349 . S
C1041 C1043 1.327 . S
C1041 H1064 0.950 . S
C1042 C1041 1.349 . S
C1042 C1054 1.349 . S
C1043 C1041 1.327 . S
C1043 C1059 1.429 . S
C1043 H1065 0.950 . S
C1044 H1040 0.949 . S
C1044 C1052 1.574 . S
C1044 C1060 1.368 . S
H1045 C1053 0.950 . S
H1046 C1051 0.950 . S
H1047 C1052 0.949 . S
H1048 C1054 0.950 . S
H1049 C1055 0.950 . S
H1050 C1056 0.949 . S
C1051 H1046 0.950 . S
C1051 C1053 1.327 . S
C1051 C1057 1.429 . S
C1052 C1044 1.574 . S
C1052 H1047 0.949 . S
C1052 C1058 1.368 . S
C1053 C1037 1.349 . S
C1053 H1045 0.950 . S
C1053 C1051 1.327 . S
C1054 C1042 1.349 . S
C1054 H1048 0.950 . S
C1054 C1055 1.327 . S
C1055 H1049 0.950 . S
C1055 C1054 1.327 . S
C1055 C1059 1.429 . S
C1056 C1039 1.574 . S
C1056 H1050 0.949 . S
C1056 C1060 1.368 . S
C1057 C1038 1.429 . S
C1057 C1051 1.429 . S
C1057 C1058 1.523 . S
C1058 C1039 1.368 . S
C1058 C1052 1.368 . S
C1058 C1057 1.523 . S
C1059 C1043 1.429 . S
C1059 C1055 1.429 . S
C1059 C1060 1.523 . S
C1060 C1044 1.368 . S
C1060 C1056 1.368 . S
C1060 C1059 1.523 . S
H1061 C1036 0.950 . S
H1062 C1038 0.950 . S
H1063 C1039 0.949 . S
H1064 C1041 0.950 . S
H1065 C1043 0.950 . S
C1066 C1067 1.349 . S
C1066 C1068 1.327 . S
C1066 H1091 0.950 . S
C1067 C1066 1.349 . S
C1067 C1083 1.349 . S
C1068 C1066 1.327 . S
C1068 C1087 1.429 . S
C1068 H1092 0.950 . S
C1069 C1086 1.574 . S
C1069 C1088 1.368 . S
C1069 H1093 0.949 . S
H1070 C1074 0.949 . S
C1071 C1072 1.349 . S
C1071 C1073 1.327 . S
C1071 H1094 0.950 . S
C1072 C1071 1.349 . S
C1072 C1084 1.349 . S
C1073 C1071 1.327 . S
C1073 C1089 1.429 . S
C1073 H1095 0.950 . S
C1074 H1070 0.949 . S
C1074 C1082 1.574 . S
C1074 C1090 1.368 . S
H1075 C1083 0.950 . S
H1076 C1081 0.950 . S
H1077 C1082 0.949 . S
H1078 C1084 0.950 . S
H1079 C1085 0.950 . S
H1080 C1086 0.949 . S
C1081 H1076 0.950 . S
C1081 C1083 1.327 . S
C1081 C1087 1.429 . S
C1082 C1074 1.574 . S
C1082 H1077 0.949 . S
C1082 C1088 1.368 . S
C1083 C1067 1.349 . S
C1083 H1075 0.950 . S
C1083 C1081 1.327 . S
C1084 C1072 1.349 . S
C1084 H1078 0.950 . S
C1084 C1085 1.327 . S
C1085 H1079 0.950 . S
C1085 C1084 1.327 . S
C1085 C1089 1.429 . S
C1086 C1069 1.574 . S
C1086 H1080 0.949 . S
C1086 C1090 1.368 . S
C1087 C1068 1.429 . S
C1087 C1081 1.429 . S
C1087 C1088 1.523 . S
C1088 C1069 1.368 . S
C1088 C1082 1.368 . S
C1088 C1087 1.523 . S
C1089 C1073 1.429 . S
C1089 C1085 1.429 . S
C1089 C1090 1.523 . S
C1090 C1074 1.368 . S
C1090 C1086 1.368 . S
C1090 C1089 1.523 . S
H1091 C1066 0.950 . S
H1092 C1068 0.950 . S
H1093 C1069 0.949 . S
H1094 C1071 0.950 . S
H1095 C1073 0.950 . S
C377 C8 1.333 . S
C382 C119 1.240 . S
C407 C31 1.672 . S
C412 C155 1.603 . S
C437 C53 1.350 . S
C442 C191 1.336 . S
C472 C221 1.395 . S
C467 C74 1.474 . S
C502 C263 1.378 . S
C497 C26 1.370 . S
C527 C48 1.656 . S
C532 C293 1.578 . S
C557 C71 1.323 . S
C562 C329 1.224 . S
C587 C5 1.498 . S
C592 C371 1.425 . S
C617 C50 1.320 1_556 S
C622 C341 1.253 . S
C652 C233 1.611 . S
C647 C70 1.653 . S
C682 C299 1.363 . S
C677 C4 1.344 1_556 S
C707 C28 1.504 . S
C712 C335 1.440 . S
C742 C125 1.373 . S
C737 C73 1.355 . S
C767 C7 1.662 . S
C772 C185 1.540 . S
C802 C227 1.266 . S
C797 C30 1.345 . S
C832 C89 1.421 . S
C827 C52 1.472 . S
C862 C305 1.275 . S
C857 C9 1.297 . S
C892 C365 1.258 . S
C887 C29 1.293 . S
C917 C51 1.447 . S
C922 C257 1.416 . S
C952 C269 1.405 . S
C947 C75 1.428 . S
C982 C161 1.382 . S
C977 C27 1.436 . S
C1007 C49 1.295 . S
C1012 C197 1.265 . S
C1042 C113 1.256 . S
C1037 C72 1.283 . S
C1072 C149 1.435 . S
C1067 C6 1.454 . S
