# Generated by pormake.
# Topology sit, (3,6)-cn, num edge types: 1
# Building blocks:
#     Node 0, Type 0, BuildingBlock: QEWDON_clean_linker_0, # of connection points: 3
#     Node 1, Type 0, BuildingBlock: QEWDON_clean_linker_0, # of connection points: 3
#     Node 2, Type 0, BuildingBlock: QEWDON_clean_linker_0, # of connection points: 3
#     Node 3, Type 0, BuildingBlock: QEWDON_clean_linker_0, # of connection points: 3
#     Node 4, Type 1, BuildingBlock: MIDCAF_clean_sbu_0, # of connection points: 6
#     Node 5, Type 1, BuildingBlock: MIDCAF_clean_sbu_0, # of connection points: 6
#     Edge 6, Type (0, 1), BuildingBlock: ZUJKAS_clean_linker_0, # of connection points: 2
#     Edge 7, Type (0, 1), BuildingBlock: ZUJKAS_clean_linker_0, # of connection points: 2
#     Edge 8, Type (0, 1), BuildingBlock: ZUJKAS_clean_linker_0, # of connection points: 2
#     Edge 9, Type (0, 1), BuildingBlock: ZUJKAS_clean_linker_0, # of connection points: 2
#     Edge 10, Type (0, 1), BuildingBlock: ZUJKAS_clean_linker_0, # of connection points: 2
#     Edge 11, Type (0, 1), BuildingBlock: ZUJKAS_clean_linker_0, # of connection points: 2
#     Edge 12, Type (0, 1), BuildingBlock: ZUJKAS_clean_linker_0, # of connection points: 2
#     Edge 13, Type (0, 1), BuildingBlock: ZUJKAS_clean_linker_0, # of connection points: 2
#     Edge 14, Type (0, 1), BuildingBlock: ZUJKAS_clean_linker_0, # of connection points: 2
#     Edge 15, Type (0, 1), BuildingBlock: ZUJKAS_clean_linker_0, # of connection points: 2
#     Edge 16, Type (0, 1), BuildingBlock: ZUJKAS_clean_linker_0, # of connection points: 2
#     Edge 17, Type (0, 1), BuildingBlock: ZUJKAS_clean_linker_0, # of connection points: 2
# Relax obj value: 0.077
# Max RMSD: 0.183
# Mean RMSD: 0.153
data_MOF--net-sit--node1-MIDCAF_clean_sbu_0--node2-QEWDON_clean_linker_0--edge1-ZUJKAS_clean_linker_0
_symmetry_space_group_name_H-M    P1
_symmetry_Int_Tables_number       1
_symmetry_cell_setting            triclinic
loop_
_symmetry_equiv_pos_as_xyz
'x, y, z'
_cell_length_a     27.55375
_cell_length_b     43.318539
_cell_length_c     51.186287
_cell_angle_alpha  89.722826
_cell_angle_beta   85.636009
_cell_angle_gamma 82.443897
loop_
_atom_site_label
_atom_site_type_symbol
_atom_site_fract_x
_atom_site_fract_y
_atom_site_fract_z
_atom_type_partial_charge
H0 H 0.14516 0.31311 0.01554 0.0
C1 C 0.11175 0.32923 0.01455 0.0
C2 C 0.11436 0.36109 0.01016 0.0
C3 C 0.06614 0.31791 0.01623 0.0
H4 H 0.07293 0.40569 0.00317 0.0
C5 C 0.07082 0.38147 0.00798 0.0
C6 C 0.02509 0.37041 0.00922 0.0
C7 C 0.02308 0.33855 0.01357 0.0
C8 C 0.06343 0.28412 0.0174 0.0
H9 H -0.0119 0.32955 0.01418 0.0
C10 C 0.07085 0.26727 0.04063 0.0
C11 C 0.06509 0.23535 0.04183 0.0
C12 C 0.05113 0.26891 0.99519 0.0
H13 H 0.0451 0.28161 0.97717 0.0
C14 C 0.04625 0.23731 0.99607 0.0
H15 H 0.08039 0.27915 0.05772 0.0
C16 C 0.05289 0.22064 0.0192 0.0
H17 H 0.04723 0.19637 0.01947 0.0
H18 H 0.03655 0.22577 0.97887 0.0
H19 H 0.0592 0.7289 0.07361 0.0
C20 C 0.03153 0.72559 0.06029 0.0
C21 C 0.04387 0.70588 0.03839 0.0
C22 C -0.01738 0.73931 0.06589 0.0
H23 H 0.01721 0.68584 0.00478 0.0
C24 C 0.0076 0.70115 0.0216 0.0
C25 C 0.95903 0.71515 0.02655 0.0
C26 C 0.94675 0.73412 0.04882 0.0
C27 C 0.96743 0.75654 0.09073 0.0
H28 H 0.90912 0.74479 0.05303 0.0
C29 C -0.00893 0.78164 0.09835 0.0
C30 C -0.02464 0.79772 0.12202 0.0
C31 C 0.92828 0.74764 0.107 0.0
H32 H 0.90979 0.72827 0.10165 0.0
C33 C 0.91282 0.7634 0.13041 0.0
H34 H 0.02126 0.78867 0.0859 0.0
C35 C 0.93604 0.78826 0.13789 0.0
H36 H 0.9227 0.80044 0.15599 0.0
H37 H 0.88257 0.75638 0.14278 0.0
H38 H 0.66106 0.82369 0.52966 0.0
C39 C 0.62651 0.83757 0.52612 0.0
C40 C 0.62471 0.86982 0.52205 0.0
C41 C 0.58457 0.82281 0.52375 0.0
H42 H 0.5787 0.91183 0.51244 0.0
C43 C 0.58009 0.88713 0.51638 0.0
C44 C 0.53847 0.87259 0.51298 0.0
C45 C 0.54066 0.84039 0.51714 0.0
C46 C 0.58901 0.7885 0.52345 0.0
H47 H 0.50936 0.82864 0.51359 0.0
C48 C 0.58711 0.77136 0.54681 0.0
C49 C 0.5921 0.73853 0.546 0.0
C50 C 0.59578 0.77281 0.49928 0.0
H51 H 0.59733 0.78572 0.48112 0.0
C52 C 0.60095 0.74037 0.49837 0.0
H53 H 0.58205 0.78353 0.56548 0.0
C54 C 0.59919 0.72329 0.52153 0.0
H55 H 0.60254 0.69814 0.52027 0.0
H56 H 0.60616 0.72842 0.47965 0.0
H57 H 0.55786 0.24199 0.57448 0.0
C58 C 0.53304 0.23124 0.56304 0.0
C59 C 0.552 0.21172 0.54184 0.0
C60 C 0.48197 0.23633 0.56961 0.0
H61 H 0.53531 0.1822 0.51101 0.0
C62 C 0.52026 0.19718 0.52739 0.0
C63 C 0.46957 0.20183 0.53366 0.0
C64 C 0.45058 0.22174 0.55457 0.0
C65 C 0.46073 0.25589 0.59255 0.0
H66 H 0.41125 0.22555 0.55934 0.0
C67 C 0.47593 0.28508 0.59741 0.0
C68 C 0.45251 0.30411 0.61816 0.0
C69 C 0.42332 0.24562 0.60935 0.0
H70 H 0.41157 0.22305 0.60649 0.0
C71 C 0.40064 0.26424 0.63005 0.0
H72 H 0.50455 0.29342 0.58463 0.0
C73 C 0.41481 0.29336 0.63434 0.0
H74 H 0.39674 0.30737 0.65064 0.0
H75 H 0.37187 0.25608 0.64279 0.0
Zn76 Zn 0.04174 0.11422 0.34832 0.0
Zn77 Zn 0.07245 0.99533 0.34549 0.0
Zn78 Zn 0.05565 0.05442 0.34711 0.0
C79 C 0.05071 1.01217 0.29564 0.0
C80 C -0.00743 1.01043 0.38185 0.0
O81 O 0.11803 0.06992 0.36579 0.0
O82 O 0.09318 0.12014 0.37216 0.0
C83 C 0.05761 0.09866 0.29587 0.0
O84 O 0.05372 1.0392 0.30542 0.0
O85 O 0.05406 0.98835 0.30995 0.0
O86 O 0.02475 0.98788 0.37497 0.0
O87 O -0.00475 1.03764 0.372 0.0
O88 O 0.05592 0.12193 0.31079 0.0
O89 O 0.05469 0.07138 0.30567 0.0
O90 O -0.01281 0.07058 0.37194 0.0
O91 O -0.02686 0.12095 0.36359 0.0
C92 C 0.96024 0.09718 0.37509 0.0
O93 O 0.12571 1.03719 0.36455 0.0
O94 O 0.14245 0.98777 0.35253 0.0
C95 C 0.12416 0.0965 0.37527 0.0
C96 C 0.15436 1.0111 0.36389 0.0
Zn97 Zn 0.52358 0.61237 0.84451 0.0
Zn98 Zn 0.59097 0.49317 0.8424 0.0
Zn99 Zn 0.5541 0.5521 0.84593 0.0
C100 C 0.57648 0.50972 0.79193 0.0
C101 C 0.49912 0.4983 0.87269 0.0
O102 O 0.60823 0.57669 0.86398 0.0
O103 O 0.58381 0.62661 0.85681 0.0
C104 C 0.53068 0.59381 0.79335 0.0
O105 O 0.55877 0.53523 0.80419 0.0
O106 O 0.59672 0.48697 0.80434 0.0
O107 O 0.53339 0.47862 0.8627 0.0
O108 O 0.50015 0.52764 0.8689 0.0
O109 O 0.51274 0.61715 0.80718 0.0
O110 O 0.54827 0.56829 0.80438 0.0
O111 O 0.4847 0.56009 0.87102 0.0
O112 O 0.4666 0.61148 0.87027 0.0
C113 C 0.45718 0.5853 0.8786 0.0
O114 O 0.62352 0.54427 0.86611 0.0
O115 O 0.65151 0.49429 0.86028 0.0
C116 C 0.61433 0.60559 0.86565 0.0
C117 C 0.65576 0.52053 0.86972 0.0
H118 H 0.03358 0.25544 0.09177 0.0
H119 H 0.03667 0.22532 0.13221 0.0
H120 H 0.10602 0.14429 0.0887 0.0
H121 H 0.10553 0.17463 0.04838 0.0
H122 H -0.00692 0.17406 0.14491 0.0
H123 H 0.19516 0.146 0.14747 0.0
H124 H 0.16734 0.1748 0.12568 0.0
H125 H 0.17167 0.13404 0.11791 0.0
C126 C 0.05057 0.23143 0.09083 0.0
C127 C 0.06947 0.21756 0.06674 0.0
C128 C 0.05179 0.21412 0.11396 0.0
C129 C 0.07194 0.18259 0.11356 0.0
C130 C 0.09105 0.16869 0.08961 0.0
H131 H 0.01562 0.07165 0.25611 0.0
H132 H 0.02114 0.08571 0.20941 0.0
C133 C 0.09018 0.18603 0.06649 0.0
C134 C 0.07165 0.16424 0.13816 0.0
H135 H 0.14626 0.12302 0.17999 0.0
C136 C 0.02653 0.16275 0.15254 0.0
C137 C 0.11536 0.1495 0.14807 0.0
C138 C 0.16519 0.15133 0.13414 0.0
C139 C 0.02401 0.14777 0.17692 0.0
C140 C 0.06775 0.13321 0.18692 0.0
C141 C 0.11271 0.13387 0.17215 0.0
C142 C 0.06855 0.12113 0.21412 0.0
C143 C -0.02518 0.14906 0.19232 0.0
C144 C 0.0951 0.13523 0.23194 0.0
C145 C 0.09284 0.12675 0.25823 0.0
C146 C 0.06414 0.10385 0.26736 0.0
C147 C 0.03893 0.0888 0.24944 0.0
C148 C 0.0414 0.09723 0.2229 0.0
H149 H 0.94643 0.16619 0.18408 0.0
H150 H 0.96217 0.12581 0.19189 0.0
H151 H -0.02227 0.15534 0.2131 0.0
H152 H 0.11629 0.15369 0.22568 0.0
H153 H 0.1127 0.13874 0.27162 0.0
H154 H 0.00445 0.80851 0.17032 0.0
H155 H 0.02978 0.85624 0.18655 0.0
H156 H 0.02483 0.89595 0.1092 0.0
H157 H -0.00202 0.84811 0.09288 0.0
H158 H 0.10779 0.88949 0.17302 0.0
H159 H 0.9281 0.95796 0.15414 0.0
H160 H 0.93755 0.916 0.1524 0.0
H161 H 0.96427 0.93841 0.12688 0.0
C162 C 0.00908 0.8273 0.15669 0.0
C163 C -0.00149 0.82476 0.13043 0.0
C164 C 0.02385 0.85452 0.16595 0.0
C165 C 0.02842 0.87989 0.1492 0.0
C166 C 0.02074 0.87686 0.12256 0.0
H167 H 0.10975 1.02453 0.25234 0.0
H168 H 0.10833 1.0016 0.20847 0.0
C169 C 0.00589 0.84943 0.11322 0.0
C170 C 0.03785 0.90976 0.1607 0.0
H171 H -0.02245 0.98018 0.18186 0.0
C172 C 0.08004 0.90976 0.17442 0.0
C173 C 0.00151 0.93616 0.16239 0.0
C174 C 0.95512 0.93734 0.14832 0.0
C175 C 0.08484 0.93408 0.1917 0.0
C176 C 0.04674 0.95945 0.1949 0.0
C177 C 0.00673 0.96079 0.1793 0.0
C178 C 0.04234 0.98037 0.21813 0.0
C179 C 0.12841 0.9309 0.20817 0.0
C180 C 0.00391 0.97803 0.23735 0.0
C181 C 0.0044 0.99135 0.26202 0.0
C182 C 0.04304 1.00755 0.26791 0.0
C183 C 0.07929 1.0124 0.24807 0.0
C184 C 0.07877 0.99902 0.22317 0.0
H185 H 0.15175 0.90806 0.20525 0.0
H186 H 0.15144 0.94949 0.20288 0.0
H187 H 0.11596 0.93355 0.22928 0.0
H188 H -0.0246 0.96381 0.23399 0.0
H189 H -0.02365 0.98708 0.27713 0.0
H190 H 0.65179 0.68595 0.55873 0.0
H191 H 0.6434 0.65346 0.59775 0.0
H192 H 0.51711 0.71644 0.62731 0.0
H193 H 0.52503 0.74895 0.58827 0.0
H194 H 0.64118 0.6732 0.65281 0.0
H195 H 0.4713 0.62742 0.62794 0.0
H196 H 0.51146 0.64403 0.60377 0.0
H197 H 0.46974 0.66897 0.62559 0.0
C198 C 0.62216 0.69283 0.57353 0.0
C199 C 0.58892 0.71994 0.5704 0.0
C200 C 0.61751 0.67429 0.5958 0.0
C201 C 0.57921 0.68232 0.61516 0.0
C202 C 0.5465 0.70964 0.61236 0.0
H203 H 0.46861 0.6312 0.76473 0.0
H204 H 0.4829 0.64689 0.7193 0.0
C205 C 0.55136 0.72834 0.59021 0.0
C206 C 0.57385 0.66249 0.6386 0.0
H207 H 0.49517 0.61843 0.67132 0.0
C208 C 0.60965 0.66084 0.65678 0.0
C209 C 0.53277 0.64635 0.64353 0.0
C210 C 0.49422 0.64646 0.62411 0.0
C211 C 0.60411 0.64485 0.68055 0.0
C212 C 0.56218 0.62943 0.6859 0.0
C213 C 0.52737 0.63011 0.66716 0.0
C214 C 0.55083 0.61589 0.71202 0.0
C215 C 0.64179 0.64614 0.7003 0.0
C216 C 0.58316 0.59219 0.72276 0.0
C217 C 0.57519 0.58329 0.74895 0.0
C218 C 0.53441 0.59768 0.76458 0.0
C219 C 0.50044 0.61975 0.75317 0.0
C220 C 0.50851 0.62871 0.72717 0.0
H221 H 0.66632 0.66405 0.69527 0.0
H222 H 0.62367 0.65131 0.72021 0.0
H223 H 0.66496 0.62321 0.70089 0.0
H224 H 0.61556 0.58151 0.71124 0.0
H225 H 0.6023 0.56652 0.75731 0.0
H226 H 0.3932 0.35935 0.62435 0.0
H227 H 0.41388 0.40783 0.6422 0.0
H228 H 0.56483 0.36645 0.64403 0.0
H229 H 0.54434 0.31813 0.62554 0.0
H230 H 0.44393 0.40884 0.68997 0.0
H231 H 0.5832 0.45401 0.62206 0.0
H232 H 0.54569 0.42559 0.6121 0.0
H233 H 0.59976 0.41359 0.62917 0.0
C234 C 0.43107 0.36096 0.62787 0.0
C235 C 0.46717 0.335 0.62374 0.0
C236 C 0.44287 0.38867 0.63802 0.0
C237 C 0.49097 0.39096 0.64435 0.0
C238 C 0.52771 0.3656 0.63876 0.0
H239 H 0.63554 0.47233 0.75714 0.0
H240 H 0.61229 0.45143 0.71646 0.0
C241 C 0.51597 0.33792 0.62832 0.0
C242 C 0.50073 0.41748 0.66064 0.0
H243 H 0.58052 0.4705 0.6674 0.0
C244 C 0.47303 0.42285 0.68474 0.0
C245 C 0.53883 0.43567 0.65388 0.0
C246 C 0.56823 0.43214 0.62776 0.0
C247 C 0.4842 0.44444 0.70294 0.0
C248 C 0.52367 0.46174 0.69669 0.0
C249 C 0.55008 0.45741 0.6721 0.0
C250 C 0.54219 0.4806 0.71698 0.0
C251 C 0.4557 0.4469 0.72943 0.0
C252 C 0.51187 0.50541 0.72994 0.0
C253 C 0.52496 0.51726 0.75348 0.0
C254 C 0.56881 0.50468 0.76408 0.0
C255 C 0.60133 0.48229 0.74952 0.0
C256 C 0.58817 0.47039 0.72619 0.0
H257 H 0.43221 0.42804 0.73262 0.0
H258 H 0.48099 0.44592 0.74539 0.0
H259 H 0.4315 0.46951 0.73094 0.0
H260 H 0.47657 0.51403 0.72289 0.0
H261 H 0.49906 0.53439 0.76433 0.0
H262 H 0.14491 0.41358 0.02918 0.0
H263 H 0.21519 0.43871 0.01181 0.0
H264 H 0.26015 0.36133 0.95886 0.0
H265 H 0.19038 0.33598 0.97633 0.0
H266 H 0.33901 0.38462 0.97953 0.0
H267 H 0.20945 0.47966 0.93992 0.0
H268 H 0.202 0.47428 0.97473 0.0
H269 H 0.18969 0.44425 0.95302 0.0
C270 C 0.17041 0.40169 0.01419 0.0
C271 C 0.16202 0.37294 0.00396 0.0
C272 C 0.21028 0.41614 0.00418 0.0
C273 C 0.24207 0.40225 0.98358 0.0
C274 C 0.23582 0.37254 0.97465 0.0
H275 H 0.46342 0.44335 0.86772 0.0
H276 H 0.40199 0.42179 0.8968 0.0
C277 C 0.19613 0.35797 0.98477 0.0
C278 C 0.27979 0.41938 0.97003 0.0
H279 H 0.29383 0.48275 0.93149 0.0
C280 C 0.32918 0.40617 0.96917 0.0
C281 C 0.26683 0.44754 0.95651 0.0
C282 C 0.21412 0.46221 0.95583 0.0
C283 C 0.36592 0.42015 0.95488 0.0
C284 C 0.35276 0.44779 0.94081 0.0
C285 C 0.30367 0.46156 0.94233 0.0
C286 C 0.38894 0.46154 0.92301 0.0
C287 C 0.41853 0.40512 0.95481 0.0
C288 C 0.40083 0.49146 0.92768 0.0
C289 C 0.43601 0.50385 0.91102 0.0
C290 C 0.45907 0.48676 0.88924 0.0
C291 C 0.44622 0.45709 0.88436 0.0
C292 C 0.41134 0.44467 0.90102 0.0
H293 H 0.42427 0.38948 0.97188 0.0
H294 H 0.42819 0.39093 0.93672 0.0
H295 H 0.44397 0.42298 0.95508 0.0
H296 H 0.38388 0.50485 0.94457 0.0
H297 H 0.4467 0.52609 0.91582 0.0
H298 H 0.86617 0.70174 0.04065 0.0
H299 H 0.80782 0.6842 0.01197 0.0
H300 H 0.90863 0.69373 0.9447 0.0
H301 H 0.96662 0.71209 0.97302 0.0
H302 H 0.76861 0.71564 0.96236 0.0
H303 H 0.87869 0.59871 0.94845 0.0
H304 H 0.88391 0.6235 0.97611 0.0
H305 H 0.91107 0.63213 0.94441 0.0
C306 C 0.87547 0.70078 0.0197 0.0
C307 C 0.92119 0.70807 0.00912 0.0
C308 C 0.84228 0.69055 0.0034 0.0
C309 C 0.85445 0.6873 0.97637 0.0
C310 C 0.89905 0.69572 0.9656 0.0
H311 H 0.67433 0.64881 0.85117 0.0
H312 H 0.73485 0.66837 0.87752 0.0
C313 C 0.93209 0.70612 0.98182 0.0
C314 C 0.82116 0.67421 0.95944 0.0
H315 H 0.8086 0.60923 0.9244 0.0
C316 C 0.77725 0.69243 0.954 0.0
C317 C 0.83266 0.64382 0.94885 0.0
C318 C 0.87896 0.62318 0.95479 0.0
C319 C 0.74455 0.68108 0.93788 0.0
C320 C 0.75641 0.65087 0.92693 0.0
C321 C 0.80004 0.6325 0.93266 0.0
C322 C 0.72297 0.63764 0.91018 0.0
C323 C 0.69719 0.70122 0.93294 0.0
C324 C 0.69718 0.61361 0.91972 0.0
C325 C 0.66264 0.60265 0.90479 0.0
C326 C 0.65436 0.61494 0.87992 0.0
C327 C 0.6808 0.63864 0.87018 0.0
C328 C 0.71511 0.64984 0.88518 0.0
H329 H 0.68964 0.72161 0.94641 0.0
H330 H 0.69945 0.70994 0.91252 0.0
H331 H 0.66584 0.68748 0.93524 0.0
H332 H 0.70235 0.60422 0.93912 0.0
H333 H 0.64035 0.58588 0.91325 0.0
H334 H -0.00389 0.43078 0.0255 0.0
H335 H 0.92869 0.4673 0.01005 0.0
H336 H 0.8882 0.39471 0.96198 0.0
H337 H 0.95516 0.35832 0.97716 0.0
H338 H 0.91717 0.48609 0.95944 0.0
H339 H 0.75675 0.43087 -0.00259 0.0
H340 H 0.81681 0.42085 0.00934 0.0
H341 H 0.80138 0.40326 0.97976 0.0
C342 C -0.02763 0.42255 0.01189 0.0
C343 C -0.01922 0.39158 0.00269 0.0
C344 C 0.93391 0.44341 0.00312 0.0
C345 C 0.90301 0.43361 0.98517 0.0
C346 C 0.91076 0.40258 0.97638 0.0
H347 H 0.75415 0.50786 0.859 0.0
H348 H 0.81506 0.49534 0.89112 0.0
C349 C 0.94906 0.38175 0.98512 0.0
C350 C 0.86484 0.45601 0.97394 0.0
H351 H 0.74531 0.46364 0.95935 0.0
C352 C 0.8793 0.48162 0.95985 0.0
C353 C 0.81523 0.45067 0.97499 0.0
C354 C 0.79653 0.4251 0.99145 0.0
C355 C 0.8462 0.50057 0.94514 0.0
C356 C 0.79786 0.49324 0.94411 0.0
C357 C 0.78255 0.4691 0.95981 0.0
C358 C 0.76408 0.50769 0.92493 0.0
C359 C 0.8636 0.52782 0.93044 0.0
C360 C 0.71525 0.5191 0.93315 0.0
C361 C 0.68043 0.5258 0.91477 0.0
C362 C 0.69406 0.5219 0.88792 0.0
C363 C 0.74328 0.51204 0.8796 0.0
C364 C 0.77808 0.50504 0.89797 0.0
H365 H 0.89308 0.53707 0.94047 0.0
H366 H 0.87911 0.52002 0.91056 0.0
H367 H 0.83305 0.54692 0.92842 0.0
H368 H 0.70342 0.52086 0.95382 0.0
H369 H 0.64221 0.53192 0.92164 0.0
H370 H 0.06912 0.64406 0.02904 0.0
H371 H 0.14722 0.61839 0.00933 0.0
H372 H 0.21004 0.70408 0.01468 0.0
H373 H 0.13087 0.73022 0.03385 0.0
H374 H 0.21804 0.68205 0.9656 0.0
H375 H 0.28146 0.58552 0.03086 0.0
H376 H 0.21887 0.58481 0.02381 0.0
H377 H 0.23507 0.6172 0.04169 0.0
C378 C 0.09999 0.65721 0.02662 0.0
C379 C 0.09397 0.68918 0.03267 0.0
C380 C 0.14479 0.64242 0.01559 0.0
C381 C 0.18467 0.6592 0.01068 0.0
C382 C 0.17975 0.69065 0.01843 0.0
H383 H 0.46639 0.59122 0.93009 0.0
H384 H 0.39968 0.60558 0.96405 0.0
C385 C 0.13471 0.70553 0.02948 0.0
C386 C 0.2282 0.64523 0.99389 0.0
H387 H 0.31355 0.58056 0.98556 0.0
C388 C 0.23931 0.66006 0.97017 0.0
C389 C 0.25598 0.61653 -0.00018 0.0
C390 C 0.24754 0.60027 0.02557 0.0
C391 C 0.27643 0.64664 0.9519 0.0
C392 C 0.30248 0.6172 0.95722 0.0
C393 C 0.29264 0.60277 0.98129 0.0
C394 C 0.34178 0.60215 0.93837 0.0
C395 C 0.28765 0.66424 0.92711 0.0
C396 C 0.33116 0.59396 0.91307 0.0
C397 C 0.36923 0.5857 0.89371 0.0
C398 C 0.41815 0.58514 0.89962 0.0
C399 C 0.42875 0.59111 0.92535 0.0
C400 C 0.39078 0.59935 0.94467 0.0
H401 H 0.27249 0.68927 0.92881 0.0
H402 H 0.32788 0.66244 0.92216 0.0
H403 H 0.27096 0.65408 0.91064 0.0
H404 H 0.29348 0.5957 0.90795 0.0
H405 H 0.36048 0.58163 0.87384 0.0
H406 H 0.64031 0.92709 0.53981 0.0
H407 H 0.70343 0.9578 0.52177 0.0
H408 H 0.77456 0.8778 0.47757 0.0
H409 H 0.71084 0.84733 0.4947 0.0
H410 H 0.80784 0.95354 0.51688 0.0
H411 H 0.72876 0.94198 0.42155 0.0
H412 H 0.6988 0.93132 0.45223 0.0
H413 H 0.74825 0.90519 0.4363 0.0
C414 C 0.6701 0.91585 0.52673 0.0
C415 C 0.6701 0.88494 0.51832 0.0
C416 C 0.7061 0.93342 0.51647 0.0
C417 C 0.7427 0.92027 0.49778 0.0
C418 C 0.74589 0.88851 0.49158 0.0
H419 H 0.00204 0.97179 0.42309 0.0
H420 H 0.93744 0.95669 0.45369 0.0
C421 C 0.70979 0.87098 0.50169 0.0
C422 C 0.77427 0.94028 0.48273 0.0
H423 H 0.80487 0.96264 0.42029 0.0
C424 C 0.807 0.95578 0.4958 0.0
C425 C 0.7718 0.94411 0.45536 0.0
C426 C 0.73465 0.93006 0.44054 0.0
C427 C 0.83956 0.97345 0.48189 0.0
C428 C 0.83978 0.97513 0.45425 0.0
C429 C 0.80499 0.96117 0.44145 0.0
C430 C 0.87909 0.98794 0.4379 0.0
C431 C 0.87371 0.98989 0.49691 0.0
C432 C 0.86779 1.01032 0.41851 0.0
C433 C 0.90486 1.01871 0.40062 0.0
C434 C 0.95356 1.00478 0.40194 0.0
C435 C 0.96478 0.983 0.42173 0.0
C436 C 0.92796 0.97464 0.43947 0.0
H437 H 0.85752 0.99596 0.51707 0.0
H438 H 0.90849 0.97415 0.49863 0.0
H439 H 0.88239 1.01149 0.48685 0.0
H440 H 0.83016 1.02057 0.41674 0.0
H441 H 0.89524 1.03517 0.38526 0.0
H442 H 0.38377 0.22658 0.51373 0.0
H443 H 0.33232 0.20031 0.48635 0.0
H444 H 0.43086 0.11479 0.49089 0.0
H445 H 0.48214 0.14075 0.51855 0.0
H446 H 0.36882 0.16753 0.43622 0.0
H447 H 0.28866 0.09228 0.51216 0.0
H448 H 0.31404 0.12699 0.52061 0.0
H449 H 0.35411 0.0927 0.50982 0.0
C450 C 0.39407 0.20209 0.50919 0.0
C451 C 0.43693 0.18571 0.51825 0.0
C452 C 0.36491 0.18719 0.49344 0.0
C453 C 0.37785 0.15565 0.48674 0.0
C454 C 0.42019 0.1391 0.49602 0.0
H455 H 0.22048 0.07081 0.36676 0.0
H456 H 0.28865 0.07918 0.39334 0.0
C457 C 0.44951 0.15401 0.51165 0.0
C458 C 0.34745 0.14045 0.46947 0.0
H459 H 0.26174 0.09029 0.46976 0.0
C460 C 0.34594 0.15027 0.44336 0.0
C461 C 0.31795 0.1179 0.47898 0.0
C462 C 0.3183 0.10681 0.50695 0.0
C463 C 0.31418 0.13892 0.4267 0.0
C464 C 0.2833 0.11727 0.43649 0.0
C465 C 0.28603 0.10662 0.46232 0.0
C466 C 0.24292 0.10932 0.42153 0.0
C467 C 0.31178 0.15135 0.39917 0.0
C468 C 0.19503 0.12313 0.42893 0.0
C469 C 0.15657 0.11848 0.41391 0.0
C470 C 0.16521 0.09962 0.39139 0.0
C471 C 0.21301 0.08517 0.38423 0.0
C472 C 0.25178 0.08999 0.39928 0.0
H473 H 0.33613 0.1696 0.39513 0.0
H474 H 0.32292 0.13201 0.38494 0.0
H475 H 0.27352 0.1613 0.39584 0.0
H476 H 0.18764 0.13822 0.44599 0.0
H477 H 0.11997 0.12982 0.41983 0.0
H478 H 0.44011 0.87288 0.52738 0.0
H479 H 0.37058 0.9022 0.50673 0.0
H480 H 0.47165 0.9413 0.45153 0.0
H481 H 0.54059 0.91235 0.47181 0.0
H482 H 0.394 0.98536 0.47178 0.0
H483 H 0.32979 0.87819 0.43483 0.0
H484 H 0.33414 0.88029 0.46962 0.0
H485 H 0.38888 0.87765 0.44788 0.0
C486 C 0.44729 0.88779 0.51087 0.0
C487 C 0.49575 0.89051 0.50136 0.0
C488 C 0.40769 0.90453 0.49914 0.0
C489 C 0.41609 0.92385 0.47758 0.0
C490 C 0.46438 0.92678 0.46831 0.0
H491 H 0.24225 0.977 0.35038 0.0
H492 H 0.30689 0.95995 0.3795 0.0
C493 C 0.50375 0.91023 0.47998 0.0
C494 C 0.37516 0.93989 0.46344 0.0
H495 H 0.28692 0.92613 0.4234 0.0
C496 C 0.37018 0.97251 0.46136 0.0
C497 C 0.34468 0.92296 0.44968 0.0
C498 C 0.34965 0.88783 0.45035 0.0
C499 C 0.33612 0.98862 0.44539 0.0
C500 C 0.30612 0.97157 0.4314 0.0
C501 C 0.31023 0.93908 0.43408 0.0
C502 C 0.27131 0.98645 0.41301 0.0
C503 C 0.33369 1.02351 0.44289 0.0
C504 C 0.23074 1.00781 0.42198 0.0
C505 C 0.19406 1.01781 0.40524 0.0
C506 C 0.19748 1.00649 0.3794 0.0
C507 C 0.23913 0.98627 0.37015 0.0
C508 C 0.27587 0.97646 0.38678 0.0
H509 H 0.36628 1.03222 0.45029 0.0
H510 H 0.33077 1.03078 0.42217 0.0
H511 H 0.30056 1.0348 0.45452 0.0
H512 H 0.226 1.01535 0.44225 0.0
H513 H 0.16165 1.03284 0.41297 0.0
H514 H 0.60038 0.23485 0.49999 0.0
H515 H 0.67973 0.21207 0.47904 0.0
H516 H 0.70037 0.1492 0.54408 0.0
H517 H 0.62036 0.17195 0.56496 0.0
H518 H 0.77807 0.20065 0.49294 0.0
H519 H 0.69522 0.09141 0.48077 0.0
H520 H 0.65877 0.12759 0.49103 0.0
H521 H 0.69603 0.10554 0.51367 0.0
C522 C 0.62286 0.21704 0.51024 0.0
C523 C 0.60489 0.20529 0.53411 0.0
C524 C 0.66792 0.20388 0.49823 0.0
C525 C 0.6954 0.17856 0.50979 0.0
C526 C 0.67931 0.16843 0.53469 0.0
H527 H 0.95077 0.06992 0.42309 0.0
H528 H 0.88749 0.08575 0.45868 0.0
C529 C 0.63411 0.18167 0.54676 0.0
C530 C 0.73787 0.16123 0.49433 0.0
H531 H 0.77287 0.09394 0.45922 0.0
C532 C 0.77736 0.17713 0.48593 0.0
C533 C 0.73668 0.13054 0.48511 0.0
C534 C 0.69435 0.11271 0.49289 0.0
C535 C 0.81481 0.1636 0.46785 0.0
C536 C 0.81235 0.13359 0.45773 0.0
C537 C 0.77435 0.11699 0.46706 0.0
C538 C 0.84651 0.12061 0.43568 0.0
C539 C 0.85603 0.18187 0.45899 0.0
C540 C 0.84292 0.13406 0.41082 0.0
C541 C 0.87834 0.12476 0.39049 0.0
C542 C 0.91776 0.10169 0.39462 0.0
C543 C 0.92 0.08714 0.41919 0.0
C544 C 0.88428 0.09638 0.43958 0.0
H545 H 0.85873 0.20126 0.47271 0.0
H546 H 0.89171 0.16649 0.45718 0.0
H547 H 0.84928 0.19197 0.43942 0.0
H548 H 0.81372 0.15263 0.40746 0.0
H549 H 0.87605 0.13653 0.37181 0.0
loop_
_geom_bond_atom_site_label_1
_geom_bond_atom_site_label_2
_geom_bond_distance
_geom_bond_site_symmetry_2
_ccdc_geom_bond_type
H0 C1 0.949 . S
C1 H0 0.949 . S
C1 C2 1.395 . S
C1 C3 1.391 . S
C2 C1 1.395 . S
C2 C5 1.390 1_554 S
C3 C1 1.391 . S
C3 C7 1.387 . S
C3 C8 1.491 . S
H4 C5 0.950 . S
C5 C2 1.390 1_556 S
C5 H4 0.950 . S
C5 C6 1.378 . S
C6 C5 1.378 . S
C6 C7 1.409 1_556 S
C7 C3 1.387 . S
C7 C6 1.409 1_554 S
C7 H9 0.951 . S
C8 C3 1.491 . S
C8 C10 1.382 . S
C8 C12 1.404 . S
H9 C7 0.951 . S
C10 C8 1.382 . S
C10 C11 1.390 . S
C10 H15 0.949 . S
C11 C10 1.390 . S
C11 C16 1.399 . S
C12 C8 1.404 . S
C12 H13 0.950 . S
C12 C14 1.375 . S
H13 C12 0.950 . S
C14 C12 1.375 . S
C14 C16 1.382 . S
C14 H18 0.950 . S
H15 C10 0.949 . S
C16 C11 1.399 . S
C16 C14 1.382 . S
C16 H17 0.952 . S
H17 C16 0.952 . S
H18 C14 0.950 . S
H19 C20 0.949 . S
C20 H19 0.949 . S
C20 C21 1.395 . S
C20 C22 1.391 1_455 S
C21 C20 1.395 . S
C21 C24 1.390 1_554 S
C22 C20 1.391 1_655 S
C22 C26 1.387 . S
C22 C27 1.491 . S
H23 C24 0.950 . S
C24 C21 1.390 1_556 S
C24 H23 0.950 . S
C24 C25 1.378 1_456 S
C25 C24 1.378 1_654 S
C25 C26 1.409 . S
C26 C22 1.387 . S
C26 C25 1.409 . S
C26 H28 0.951 . S
C27 C22 1.491 . S
C27 C29 1.381 . S
C27 C31 1.404 . S
H28 C26 0.951 . S
C29 C27 1.381 . S
C29 C30 1.389 . S
C29 H34 0.950 1_655 S
C30 C29 1.389 . S
C30 C35 1.399 . S
C31 C27 1.404 . S
C31 H32 0.950 . S
C31 C33 1.375 . S
H32 C31 0.950 . S
C33 C31 1.375 . S
C33 C35 1.382 . S
C33 H37 0.950 . S
H34 C29 0.950 1_455 S
C35 C30 1.399 . S
C35 C33 1.382 . S
C35 H36 0.952 . S
H36 C35 0.952 . S
H37 C33 0.950 . S
H38 C39 0.949 . S
C39 H38 0.949 . S
C39 C40 1.395 . S
C39 C41 1.391 . S
C40 C39 1.395 . S
C40 C43 1.390 . S
C41 C39 1.391 . S
C41 C45 1.387 . S
C41 C46 1.491 . S
H42 C43 0.950 . S
C43 C40 1.390 . S
C43 H42 0.950 . S
C43 C44 1.378 . S
C44 C43 1.378 . S
C44 C45 1.409 . S
C45 C41 1.387 . S
C45 C44 1.409 . S
C45 H47 0.951 . S
C46 C41 1.491 . S
C46 C48 1.382 . S
C46 C50 1.404 . S
H47 C45 0.951 . S
C48 C46 1.382 . S
C48 C49 1.390 . S
C48 H53 0.949 . S
C49 C48 1.390 . S
C49 C54 1.399 . S
C50 C46 1.404 . S
C50 H51 0.950 . S
C50 C52 1.375 . S
H51 C50 0.950 . S
C52 C50 1.375 . S
C52 C54 1.382 . S
C52 H56 0.950 . S
H53 C48 0.949 . S
C54 C49 1.399 . S
C54 C52 1.382 . S
C54 H55 0.952 . S
H55 C54 0.952 . S
H56 C52 0.950 . S
H57 C58 0.949 . S
C58 H57 0.949 . S
C58 C59 1.395 . S
C58 C60 1.391 . S
C59 C58 1.395 . S
C59 C62 1.390 . S
C60 C58 1.391 . S
C60 C64 1.387 . S
C60 C65 1.491 . S
H61 C62 0.950 . S
C62 C59 1.390 . S
C62 H61 0.950 . S
C62 C63 1.378 . S
C63 C62 1.378 . S
C63 C64 1.409 . S
C64 C60 1.387 . S
C64 C63 1.409 . S
C64 H66 0.951 . S
C65 C60 1.491 . S
C65 C67 1.382 . S
C65 C69 1.404 . S
H66 C64 0.951 . S
C67 C65 1.382 . S
C67 C68 1.390 . S
C67 H72 0.949 . S
C68 C67 1.390 . S
C68 C73 1.399 . S
C69 C65 1.404 . S
C69 H70 0.950 . S
C69 C71 1.375 . S
H70 C69 0.950 . S
C71 C69 1.375 . S
C71 C73 1.382 . S
C71 H75 0.950 . S
H72 C67 0.949 . S
C73 C68 1.399 . S
C73 C71 1.382 . S
C73 H74 0.952 . S
H74 C73 0.952 . S
H75 C71 0.950 . S
Zn76 O82 1.920 . S
Zn76 O88 1.898 . S
Zn76 O91 1.905 . S
Zn77 O85 1.905 . S
Zn77 O86 1.898 . S
Zn77 O94 1.920 . S
Zn78 O81 2.080 . S
Zn78 O84 2.114 1_545 S
Zn78 O87 2.120 1_545 S
Zn78 O89 2.120 . S
Zn78 O90 2.114 . S
Zn78 O93 2.080 1_545 S
C79 O84 1.166 . S
C79 O85 1.182 . S
C80 O86 1.167 . S
C80 O87 1.299 . S
O81 Zn78 2.080 . S
O81 C95 1.305 . S
O82 Zn76 1.920 . S
O82 C95 1.234 . S
C83 O88 1.167 . S
C83 O89 1.299 . S
O84 Zn78 2.114 1_565 S
O84 C79 1.166 . S
O85 Zn77 1.905 . S
O85 C79 1.182 . S
O86 Zn77 1.898 . S
O86 C80 1.167 . S
O87 Zn78 2.120 1_565 S
O87 C80 1.299 . S
O88 Zn76 1.898 . S
O88 C83 1.167 . S
O89 Zn78 2.120 . S
O89 C83 1.299 . S
O90 Zn78 2.114 . S
O90 C92 1.166 1_455 S
O91 Zn76 1.905 . S
O91 C92 1.182 1_455 S
C92 O90 1.166 1_655 S
C92 O91 1.182 1_655 S
O93 Zn78 2.080 1_565 S
O93 C96 1.305 . S
O94 Zn77 1.920 . S
O94 C96 1.234 . S
C95 O81 1.305 . S
C95 O82 1.234 . S
C96 O93 1.305 . S
C96 O94 1.234 . S
Zn97 O103 1.920 . S
Zn97 O109 1.898 . S
Zn97 O112 1.905 . S
Zn98 O106 1.905 . S
Zn98 O107 1.898 . S
Zn98 O115 1.920 . S
Zn99 O102 2.080 . S
Zn99 O105 2.114 . S
Zn99 O108 2.120 . S
Zn99 O110 2.120 . S
Zn99 O111 2.114 . S
Zn99 O114 2.080 . S
C100 O105 1.166 . S
C100 O106 1.182 . S
C101 O107 1.167 . S
C101 O108 1.299 . S
O102 Zn99 2.080 . S
O102 C116 1.305 . S
O103 Zn97 1.920 . S
O103 C116 1.234 . S
C104 O109 1.167 . S
C104 O110 1.299 . S
O105 Zn99 2.114 . S
O105 C100 1.166 . S
O106 Zn98 1.905 . S
O106 C100 1.182 . S
O107 Zn98 1.898 . S
O107 C101 1.167 . S
O108 Zn99 2.120 . S
O108 C101 1.299 . S
O109 Zn97 1.898 . S
O109 C104 1.167 . S
O110 Zn99 2.120 . S
O110 C104 1.299 . S
O111 Zn99 2.114 . S
O111 C113 1.166 . S
O112 Zn97 1.905 . S
O112 C113 1.182 . S
C113 O111 1.166 . S
C113 O112 1.182 . S
O114 Zn99 2.080 . S
O114 C117 1.305 . S
O115 Zn98 1.920 . S
O115 C117 1.234 . S
C116 O102 1.305 . S
C116 O103 1.234 . S
C117 O114 1.305 . S
C117 O115 1.234 . S
H118 C126 0.929 . S
H119 C128 0.930 . S
H120 C130 0.930 . S
H121 C133 0.929 . S
H122 C136 0.930 . S
H123 C138 0.960 . S
H124 C138 0.960 . S
H125 C138 0.960 . S
C126 H118 0.929 . S
C126 C127 1.377 . S
C126 C128 1.384 . S
C127 C126 1.377 . S
C127 C133 1.390 . S
C128 H119 0.930 . S
C128 C126 1.384 . S
C128 C129 1.372 . S
C129 C128 1.372 . S
C129 C130 1.400 . S
C129 C134 1.490 . S
C130 H120 0.930 . S
C130 C129 1.400 . S
C130 C133 1.386 . S
H131 C147 0.930 . S
H132 C148 0.931 . S
C133 H121 0.929 . S
C133 C127 1.390 . S
C133 C130 1.386 . S
C134 C129 1.490 . S
C134 C136 1.395 . S
C134 C137 1.403 . S
H135 C141 0.930 . S
C136 H122 0.930 . S
C136 C134 1.395 . S
C136 C139 1.403 . S
C137 C134 1.403 . S
C137 C138 1.524 . S
C137 C141 1.400 . S
C138 H123 0.960 . S
C138 H124 0.960 . S
C138 H125 0.960 . S
C138 C137 1.524 . S
C139 C136 1.403 . S
C139 C140 1.392 . S
C139 C143 1.495 . S
C140 C139 1.392 . S
C140 C141 1.385 . S
C140 C142 1.478 . S
C141 H135 0.930 . S
C141 C137 1.400 . S
C141 C140 1.385 . S
C142 C140 1.478 . S
C142 C144 1.381 . S
C142 C148 1.383 . S
C143 C139 1.495 . S
C143 H149 0.959 . S
C143 H150 0.961 . S
C143 H151 0.960 . S
C144 C142 1.381 . S
C144 C145 1.394 . S
C144 H152 0.930 . S
C145 C144 1.394 . S
C145 C146 1.383 . S
C145 H153 0.929 . S
C146 C145 1.383 . S
C146 C147 1.377 . S
C147 H131 0.930 . S
C147 C146 1.377 . S
C147 C148 1.379 . S
C148 H132 0.931 . S
C148 C142 1.383 . S
C148 C147 1.379 . S
H149 C143 0.959 . S
H150 C143 0.961 . S
H151 C143 0.960 . S
H152 C144 0.930 . S
H153 C145 0.929 . S
H154 C162 0.929 . S
H155 C164 0.930 . S
H156 C166 0.930 . S
H157 C169 0.931 . S
H158 C172 0.930 . S
H159 C174 0.960 . S
H160 C174 0.960 . S
H161 C174 0.960 . S
C162 H154 0.929 . S
C162 C163 1.377 . S
C162 C164 1.384 . S
C163 C162 1.377 . S
C163 C169 1.390 . S
C164 H155 0.930 . S
C164 C162 1.384 . S
C164 C165 1.372 . S
C165 C164 1.372 . S
C165 C166 1.400 . S
C165 C170 1.490 . S
C166 H156 0.930 . S
C166 C165 1.400 . S
C166 C169 1.386 . S
H167 C183 0.930 . S
H168 C184 0.931 . S
C169 H157 0.931 . S
C169 C163 1.390 . S
C169 C166 1.386 . S
C170 C165 1.490 . S
C170 C172 1.395 . S
C170 C173 1.403 1_455 S
H171 C177 0.930 1_655 S
C172 H158 0.930 . S
C172 C170 1.395 . S
C172 C175 1.403 . S
C173 C170 1.403 1_655 S
C173 C174 1.524 . S
C173 C177 1.400 1_655 S
C174 H159 0.960 . S
C174 H160 0.960 . S
C174 H161 0.960 . S
C174 C173 1.524 . S
C175 C172 1.403 . S
C175 C176 1.392 . S
C175 C179 1.495 . S
C176 C175 1.392 . S
C176 C177 1.385 . S
C176 C178 1.478 . S
C177 H171 0.930 1_455 S
C177 C173 1.400 1_455 S
C177 C176 1.385 . S
C178 C176 1.478 . S
C178 C180 1.381 . S
C178 C184 1.383 . S
C179 C175 1.495 . S
C179 H185 0.959 . S
C179 H186 0.961 . S
C179 H187 0.960 . S
C180 C178 1.381 . S
C180 C181 1.394 . S
C180 H188 0.930 . S
C181 C180 1.394 . S
C181 C182 1.383 . S
C181 H189 0.929 . S
C182 C181 1.383 . S
C182 C183 1.377 . S
C183 H167 0.930 . S
C183 C182 1.377 . S
C183 C184 1.379 . S
C184 H168 0.931 . S
C184 C178 1.383 . S
C184 C183 1.379 . S
H185 C179 0.959 . S
H186 C179 0.961 . S
H187 C179 0.960 . S
H188 C180 0.930 . S
H189 C181 0.929 . S
H190 C198 0.929 . S
H191 C200 0.930 . S
H192 C202 0.930 . S
H193 C205 0.929 . S
H194 C208 0.930 . S
H195 C210 0.960 . S
H196 C210 0.960 . S
H197 C210 0.960 . S
C198 H190 0.929 . S
C198 C199 1.377 . S
C198 C200 1.384 . S
C199 C198 1.377 . S
C199 C205 1.390 . S
C200 H191 0.930 . S
C200 C198 1.384 . S
C200 C201 1.372 . S
C201 C200 1.372 . S
C201 C202 1.400 . S
C201 C206 1.490 . S
C202 H192 0.930 . S
C202 C201 1.400 . S
C202 C205 1.386 . S
H203 C219 0.930 . S
H204 C220 0.931 . S
C205 H193 0.929 . S
C205 C199 1.390 . S
C205 C202 1.386 . S
C206 C201 1.490 . S
C206 C208 1.395 . S
C206 C209 1.403 . S
H207 C213 0.930 . S
C208 H194 0.930 . S
C208 C206 1.395 . S
C208 C211 1.403 . S
C209 C206 1.403 . S
C209 C210 1.524 . S
C209 C213 1.400 . S
C210 H195 0.960 . S
C210 H196 0.960 . S
C210 H197 0.960 . S
C210 C209 1.524 . S
C211 C208 1.403 . S
C211 C212 1.392 . S
C211 C215 1.495 . S
C212 C211 1.392 . S
C212 C213 1.385 . S
C212 C214 1.478 . S
C213 H207 0.930 . S
C213 C209 1.400 . S
C213 C212 1.385 . S
C214 C212 1.478 . S
C214 C216 1.381 . S
C214 C220 1.383 . S
C215 C211 1.495 . S
C215 H221 0.959 . S
C215 H222 0.961 . S
C215 H223 0.960 . S
C216 C214 1.381 . S
C216 C217 1.394 . S
C216 H224 0.930 . S
C217 C216 1.394 . S
C217 C218 1.383 . S
C217 H225 0.929 . S
C218 C217 1.383 . S
C218 C219 1.377 . S
C219 H203 0.930 . S
C219 C218 1.377 . S
C219 C220 1.379 . S
C220 H204 0.931 . S
C220 C214 1.383 . S
C220 C219 1.379 . S
H221 C215 0.959 . S
H222 C215 0.961 . S
H223 C215 0.960 . S
H224 C216 0.930 . S
H225 C217 0.929 . S
H226 C234 0.929 . S
H227 C236 0.930 . S
H228 C238 0.930 . S
H229 C241 0.929 . S
H230 C244 0.930 . S
H231 C246 0.960 . S
H232 C246 0.960 . S
H233 C246 0.960 . S
C234 H226 0.929 . S
C234 C235 1.377 . S
C234 C236 1.384 . S
C235 C234 1.377 . S
C235 C241 1.390 . S
C236 H227 0.930 . S
C236 C234 1.384 . S
C236 C237 1.372 . S
C237 C236 1.372 . S
C237 C238 1.400 . S
C237 C242 1.490 . S
C238 H228 0.930 . S
C238 C237 1.400 . S
C238 C241 1.386 . S
H239 C255 0.930 . S
H240 C256 0.931 . S
C241 H229 0.929 . S
C241 C235 1.390 . S
C241 C238 1.386 . S
C242 C237 1.490 . S
C242 C244 1.395 . S
C242 C245 1.403 . S
H243 C249 0.930 . S
C244 H230 0.930 . S
C244 C242 1.395 . S
C244 C247 1.403 . S
C245 C242 1.403 . S
C245 C246 1.524 . S
C245 C249 1.400 . S
C246 H231 0.960 . S
C246 H232 0.960 . S
C246 H233 0.960 . S
C246 C245 1.524 . S
C247 C244 1.403 . S
C247 C248 1.392 . S
C247 C251 1.495 . S
C248 C247 1.392 . S
C248 C249 1.385 . S
C248 C250 1.478 . S
C249 H243 0.930 . S
C249 C245 1.400 . S
C249 C248 1.385 . S
C250 C248 1.478 . S
C250 C252 1.381 . S
C250 C256 1.383 . S
C251 C247 1.495 . S
C251 H257 0.959 . S
C251 H258 0.961 . S
C251 H259 0.960 . S
C252 C250 1.381 . S
C252 C253 1.394 . S
C252 H260 0.930 . S
C253 C252 1.394 . S
C253 C254 1.383 . S
C253 H261 0.929 . S
C254 C253 1.383 . S
C254 C255 1.377 . S
C255 H239 0.930 . S
C255 C254 1.377 . S
C255 C256 1.379 . S
C256 H240 0.931 . S
C256 C250 1.383 . S
C256 C255 1.379 . S
H257 C251 0.959 . S
H258 C251 0.961 . S
H259 C251 0.960 . S
H260 C252 0.930 . S
H261 C253 0.929 . S
H262 C270 0.929 . S
H263 C272 0.930 . S
H264 C274 0.930 . S
H265 C277 0.929 . S
H266 C280 0.930 . S
H267 C282 0.960 . S
H268 C282 0.960 . S
H269 C282 0.960 . S
C270 H262 0.929 . S
C270 C271 1.377 1_554 S
C270 C272 1.384 . S
C271 C270 1.377 1_556 S
C271 C277 1.390 . S
C272 H263 0.930 . S
C272 C270 1.384 . S
C272 C273 1.372 1_554 S
C273 C272 1.372 1_556 S
C273 C274 1.400 . S
C273 C278 1.490 . S
C274 H264 0.930 . S
C274 C273 1.400 . S
C274 C277 1.386 . S
H275 C291 0.930 . S
H276 C292 0.931 . S
C277 H265 0.929 . S
C277 C271 1.390 . S
C277 C274 1.386 . S
C278 C273 1.490 . S
C278 C280 1.395 . S
C278 C281 1.403 . S
H279 C285 0.930 . S
C280 H266 0.930 . S
C280 C278 1.395 . S
C280 C283 1.403 . S
C281 C278 1.403 . S
C281 C282 1.524 . S
C281 C285 1.400 . S
C282 H267 0.960 . S
C282 H268 0.960 . S
C282 H269 0.960 . S
C282 C281 1.524 . S
C283 C280 1.403 . S
C283 C284 1.392 . S
C283 C287 1.495 . S
C284 C283 1.392 . S
C284 C285 1.385 . S
C284 C286 1.478 . S
C285 H279 0.930 . S
C285 C281 1.400 . S
C285 C284 1.385 . S
C286 C284 1.478 . S
C286 C288 1.381 . S
C286 C292 1.383 . S
C287 C283 1.495 . S
C287 H293 0.959 . S
C287 H294 0.961 . S
C287 H295 0.960 . S
C288 C286 1.381 . S
C288 C289 1.394 . S
C288 H296 0.930 . S
C289 C288 1.394 . S
C289 C290 1.383 . S
C289 H297 0.929 . S
C290 C289 1.383 . S
C290 C291 1.377 . S
C291 H275 0.930 . S
C291 C290 1.377 . S
C291 C292 1.379 . S
C292 H276 0.931 . S
C292 C286 1.383 . S
C292 C291 1.379 . S
H293 C287 0.959 . S
H294 C287 0.961 . S
H295 C287 0.960 . S
H296 C288 0.930 . S
H297 C289 0.929 . S
H298 C306 0.929 . S
H299 C308 0.928 1_554 S
H300 C310 0.930 . S
H301 C313 0.929 . S
H302 C316 0.930 . S
H303 C318 0.960 . S
H304 C318 0.960 . S
H305 C318 0.960 . S
C306 H298 0.929 . S
C306 C307 1.377 1_554 S
C306 C308 1.382 1_554 S
C307 C306 1.377 1_556 S
C307 C313 1.390 . S
C308 H299 0.928 1_556 S
C308 C306 1.382 1_556 S
C308 C309 1.376 . S
C309 C308 1.376 . S
C309 C310 1.400 . S
C309 C314 1.490 . S
C310 H300 0.930 . S
C310 C309 1.400 . S
C310 C313 1.386 . S
H311 C327 0.930 . S
H312 C328 0.931 . S
C313 H301 0.929 . S
C313 C307 1.390 . S
C313 C310 1.386 . S
C314 C309 1.490 . S
C314 C316 1.395 . S
C314 C317 1.403 . S
H315 C321 0.930 . S
C316 H302 0.930 . S
C316 C314 1.395 . S
C316 C319 1.403 . S
C317 C314 1.403 . S
C317 C318 1.524 . S
C317 C321 1.400 . S
C318 H303 0.960 . S
C318 H304 0.960 . S
C318 H305 0.960 . S
C318 C317 1.524 . S
C319 C316 1.403 . S
C319 C320 1.392 . S
C319 C323 1.495 . S
C320 C319 1.392 . S
C320 C321 1.385 . S
C320 C322 1.478 . S
C321 H315 0.930 . S
C321 C317 1.400 . S
C321 C320 1.385 . S
C322 C320 1.478 . S
C322 C324 1.381 . S
C322 C328 1.383 . S
C323 C319 1.495 . S
C323 H329 0.959 1_556 S
C323 H330 0.961 . S
C323 H331 0.960 . S
C324 C322 1.381 . S
C324 C325 1.394 . S
C324 H332 0.930 . S
C325 C324 1.394 . S
C325 C326 1.383 . S
C325 H333 0.929 . S
C326 C325 1.383 . S
C326 C327 1.377 . S
C327 H311 0.930 . S
C327 C326 1.377 . S
C327 C328 1.379 . S
C328 H312 0.931 . S
C328 C322 1.383 . S
C328 C327 1.379 . S
H329 C323 0.959 1_554 S
H330 C323 0.961 . S
H331 C323 0.960 . S
H332 C324 0.930 . S
H333 C325 0.929 . S
H334 C342 0.929 1_554 S
H335 C344 0.930 . S
H336 C346 0.930 1_655 S
H337 C349 0.929 . S
H338 C352 0.930 . S
H339 C354 0.960 . S
H340 C354 0.960 . S
H341 C354 0.960 . S
C342 H334 0.929 1_556 S
C342 C343 1.377 . S
C342 C344 1.384 1_455 S
C343 C342 1.377 . S
C343 C349 1.390 . S
C344 H335 0.930 . S
C344 C342 1.384 1_655 S
C344 C345 1.372 . S
C345 C344 1.372 . S
C345 C346 1.400 1_655 S
C345 C350 1.490 . S
C346 H336 0.930 1_455 S
C346 C345 1.400 1_455 S
C346 C349 1.386 . S
H347 C363 0.930 . S
H348 C364 0.931 . S
C349 H337 0.929 . S
C349 C343 1.390 . S
C349 C346 1.386 . S
C350 C345 1.490 . S
C350 C352 1.395 . S
C350 C353 1.403 . S
H351 C357 0.930 . S
C352 H338 0.930 . S
C352 C350 1.395 . S
C352 C355 1.403 . S
C353 C350 1.403 . S
C353 C354 1.524 . S
C353 C357 1.400 . S
C354 H339 0.960 . S
C354 H340 0.960 . S
C354 H341 0.960 . S
C354 C353 1.524 . S
C355 C352 1.403 . S
C355 C356 1.392 . S
C355 C359 1.495 . S
C356 C355 1.392 . S
C356 C357 1.385 . S
C356 C358 1.478 . S
C357 H351 0.930 . S
C357 C353 1.400 . S
C357 C356 1.385 . S
C358 C356 1.478 . S
C358 C360 1.381 . S
C358 C364 1.383 . S
C359 C355 1.495 . S
C359 H365 0.959 . S
C359 H366 0.961 . S
C359 H367 0.960 . S
C360 C358 1.381 . S
C360 C361 1.394 . S
C360 H368 0.930 . S
C361 C360 1.394 . S
C361 C362 1.383 . S
C361 H369 0.929 . S
C362 C361 1.383 . S
C362 C363 1.377 . S
C363 H347 0.930 . S
C363 C362 1.377 . S
C363 C364 1.379 . S
C364 H348 0.931 . S
C364 C358 1.383 . S
C364 C363 1.379 . S
H365 C359 0.959 . S
H366 C359 0.961 . S
H367 C359 0.960 . S
H368 C360 0.930 . S
H369 C361 0.929 . S
H370 C378 0.929 . S
H371 C380 0.930 . S
H372 C382 0.930 . S
H373 C385 0.935 . S
H374 C388 0.930 . S
H375 C390 0.960 1_554 S
H376 C390 0.960 1_554 S
H377 C390 0.960 1_554 S
C378 H370 0.929 . S
C378 C379 1.377 . S
C378 C380 1.384 . S
C379 C378 1.377 . S
C379 C385 1.388 1_556 S
C380 H371 0.930 . S
C380 C378 1.384 . S
C380 C381 1.372 . S
C381 C380 1.372 . S
C381 C382 1.400 . S
C381 C386 1.490 . S
C382 H372 0.930 . S
C382 C381 1.400 . S
C382 C385 1.382 1_556 S
H383 C399 0.930 . S
H384 C400 0.931 . S
C385 H373 0.935 . S
C385 C379 1.388 1_554 S
C385 C382 1.382 1_554 S
C386 C381 1.490 . S
C386 C388 1.395 . S
C386 C389 1.403 . S
H387 C393 0.930 . S
C388 H374 0.930 . S
C388 C386 1.395 . S
C388 C391 1.403 . S
C389 C386 1.403 . S
C389 C390 1.524 . S
C389 C393 1.400 . S
C390 H375 0.960 1_556 S
C390 H376 0.960 1_556 S
C390 H377 0.960 1_556 S
C390 C389 1.524 . S
C391 C388 1.403 . S
C391 C392 1.392 . S
C391 C395 1.495 . S
C392 C391 1.392 . S
C392 C393 1.385 . S
C392 C394 1.478 . S
C393 H387 0.930 . S
C393 C389 1.400 . S
C393 C392 1.385 . S
C394 C392 1.478 . S
C394 C396 1.381 . S
C394 C400 1.383 . S
C395 C391 1.495 . S
C395 H401 0.959 . S
C395 H402 0.961 . S
C395 H403 0.960 . S
C396 C394 1.381 . S
C396 C397 1.394 . S
C396 H404 0.930 . S
C397 C396 1.394 . S
C397 C398 1.383 . S
C397 H405 0.929 . S
C398 C397 1.383 . S
C398 C399 1.377 . S
C399 H383 0.930 . S
C399 C398 1.377 . S
C399 C400 1.379 . S
C400 H384 0.931 . S
C400 C394 1.383 . S
C400 C399 1.379 . S
H401 C395 0.959 . S
H402 C395 0.961 . S
H403 C395 0.960 . S
H404 C396 0.930 . S
H405 C397 0.929 . S
H406 C414 0.929 . S
H407 C416 0.930 . S
H408 C418 0.930 . S
H409 C421 0.929 . S
H410 C424 0.930 . S
H411 C426 0.960 . S
H412 C426 0.960 . S
H413 C426 0.960 . S
C414 H406 0.929 . S
C414 C415 1.377 . S
C414 C416 1.384 . S
C415 C414 1.377 . S
C415 C421 1.390 . S
C416 H407 0.930 . S
C416 C414 1.384 . S
C416 C417 1.372 . S
C417 C416 1.372 . S
C417 C418 1.400 . S
C417 C422 1.490 . S
C418 H408 0.930 . S
C418 C417 1.400 . S
C418 C421 1.386 . S
H419 C435 0.930 . S
H420 C436 0.931 . S
C421 H409 0.929 . S
C421 C415 1.390 . S
C421 C418 1.386 . S
C422 C417 1.490 . S
C422 C424 1.395 . S
C422 C425 1.403 . S
H423 C429 0.930 . S
C424 H410 0.930 . S
C424 C422 1.395 . S
C424 C427 1.403 . S
C425 C422 1.403 . S
C425 C426 1.524 . S
C425 C429 1.400 . S
C426 H411 0.960 . S
C426 H412 0.960 . S
C426 H413 0.960 . S
C426 C425 1.524 . S
C427 C424 1.403 . S
C427 C428 1.392 . S
C427 C431 1.495 . S
C428 C427 1.392 . S
C428 C429 1.385 . S
C428 C430 1.478 . S
C429 H423 0.930 . S
C429 C425 1.400 . S
C429 C428 1.385 . S
C430 C428 1.478 . S
C430 C432 1.381 . S
C430 C436 1.383 . S
C431 C427 1.495 . S
C431 H437 0.959 . S
C431 H438 0.961 . S
C431 H439 0.960 . S
C432 C430 1.381 . S
C432 C433 1.394 . S
C432 H440 0.930 . S
C433 C432 1.394 . S
C433 C434 1.383 . S
C433 H441 0.929 . S
C434 C433 1.383 . S
C434 C435 1.377 1_655 S
C435 H419 0.930 . S
C435 C434 1.377 1_455 S
C435 C436 1.379 1_455 S
C436 H420 0.931 . S
C436 C430 1.383 . S
C436 C435 1.379 1_655 S
H437 C431 0.959 . S
H438 C431 0.961 . S
H439 C431 0.960 . S
H440 C432 0.930 . S
H441 C433 0.929 . S
H442 C450 0.929 . S
H443 C452 0.930 . S
H444 C454 0.930 . S
H445 C457 0.929 . S
H446 C460 0.930 . S
H447 C462 0.960 . S
H448 C462 0.960 . S
H449 C462 0.960 . S
C450 H442 0.929 . S
C450 C451 1.377 . S
C450 C452 1.384 . S
C451 C450 1.377 . S
C451 C457 1.390 . S
C452 H443 0.930 . S
C452 C450 1.384 . S
C452 C453 1.372 . S
C453 C452 1.372 . S
C453 C454 1.400 . S
C453 C458 1.490 . S
C454 H444 0.930 . S
C454 C453 1.400 . S
C454 C457 1.386 . S
H455 C471 0.930 . S
H456 C472 0.931 . S
C457 H445 0.929 . S
C457 C451 1.390 . S
C457 C454 1.386 . S
C458 C453 1.490 . S
C458 C460 1.395 . S
C458 C461 1.403 . S
H459 C465 0.930 . S
C460 H446 0.930 . S
C460 C458 1.395 . S
C460 C463 1.403 . S
C461 C458 1.403 . S
C461 C462 1.524 . S
C461 C465 1.400 . S
C462 H447 0.960 . S
C462 H448 0.960 . S
C462 H449 0.960 . S
C462 C461 1.524 . S
C463 C460 1.403 . S
C463 C464 1.392 . S
C463 C467 1.495 . S
C464 C463 1.392 . S
C464 C465 1.385 . S
C464 C466 1.478 . S
C465 H459 0.930 . S
C465 C461 1.400 . S
C465 C464 1.385 . S
C466 C464 1.478 . S
C466 C468 1.381 . S
C466 C472 1.383 . S
C467 C463 1.495 . S
C467 H473 0.959 . S
C467 H474 0.961 . S
C467 H475 0.960 . S
C468 C466 1.381 . S
C468 C469 1.394 . S
C468 H476 0.930 . S
C469 C468 1.394 . S
C469 C470 1.383 . S
C469 H477 0.929 . S
C470 C469 1.383 . S
C470 C471 1.377 . S
C471 H455 0.930 . S
C471 C470 1.377 . S
C471 C472 1.379 . S
C472 H456 0.931 . S
C472 C466 1.383 . S
C472 C471 1.379 . S
H473 C467 0.959 . S
H474 C467 0.961 . S
H475 C467 0.960 . S
H476 C468 0.930 . S
H477 C469 0.929 . S
H478 C486 0.929 . S
H479 C488 0.930 . S
H480 C490 0.930 . S
H481 C493 0.929 . S
H482 C496 0.930 . S
H483 C498 0.960 . S
H484 C498 0.960 . S
H485 C498 0.960 . S
C486 H478 0.929 . S
C486 C487 1.377 . S
C486 C488 1.384 . S
C487 C486 1.377 . S
C487 C493 1.390 . S
C488 H479 0.930 . S
C488 C486 1.384 . S
C488 C489 1.372 . S
C489 C488 1.372 . S
C489 C490 1.400 . S
C489 C494 1.490 . S
C490 H480 0.930 . S
C490 C489 1.400 . S
C490 C493 1.386 . S
H491 C507 0.930 . S
H492 C508 0.931 . S
C493 H481 0.929 . S
C493 C487 1.390 . S
C493 C490 1.386 . S
C494 C489 1.490 . S
C494 C496 1.395 . S
C494 C497 1.403 . S
H495 C501 0.930 . S
C496 H482 0.930 . S
C496 C494 1.395 . S
C496 C499 1.403 . S
C497 C494 1.403 . S
C497 C498 1.524 . S
C497 C501 1.400 . S
C498 H483 0.960 . S
C498 H484 0.960 . S
C498 H485 0.960 . S
C498 C497 1.524 . S
C499 C496 1.403 . S
C499 C500 1.392 . S
C499 C503 1.495 . S
C500 C499 1.392 . S
C500 C501 1.385 . S
C500 C502 1.478 . S
C501 H495 0.930 . S
C501 C497 1.400 . S
C501 C500 1.385 . S
C502 C500 1.478 . S
C502 C504 1.381 . S
C502 C508 1.383 . S
C503 C499 1.495 . S
C503 H509 0.959 . S
C503 H510 0.961 . S
C503 H511 0.960 . S
C504 C502 1.381 . S
C504 C505 1.394 . S
C504 H512 0.930 . S
C505 C504 1.394 . S
C505 C506 1.383 . S
C505 H513 0.929 . S
C506 C505 1.383 . S
C506 C507 1.377 . S
C507 H491 0.930 . S
C507 C506 1.377 . S
C507 C508 1.379 . S
C508 H492 0.931 . S
C508 C502 1.383 . S
C508 C507 1.379 . S
H509 C503 0.959 . S
H510 C503 0.961 . S
H511 C503 0.960 . S
H512 C504 0.930 . S
H513 C505 0.929 . S
H514 C522 0.929 . S
H515 C524 0.930 . S
H516 C526 0.930 . S
H517 C529 0.929 . S
H518 C532 0.930 . S
H519 C534 0.960 . S
H520 C534 0.960 . S
H521 C534 0.960 . S
C522 H514 0.929 . S
C522 C523 1.377 . S
C522 C524 1.384 . S
C523 C522 1.377 . S
C523 C529 1.390 . S
C524 H515 0.930 . S
C524 C522 1.384 . S
C524 C525 1.372 . S
C525 C524 1.372 . S
C525 C526 1.400 . S
C525 C530 1.490 . S
C526 H516 0.930 . S
C526 C525 1.400 . S
C526 C529 1.386 . S
H527 C543 0.930 . S
H528 C544 0.931 . S
C529 H517 0.929 . S
C529 C523 1.390 . S
C529 C526 1.386 . S
C530 C525 1.490 . S
C530 C532 1.395 . S
C530 C533 1.403 . S
H531 C537 0.930 . S
C532 H518 0.930 . S
C532 C530 1.395 . S
C532 C535 1.403 . S
C533 C530 1.403 . S
C533 C534 1.524 . S
C533 C537 1.400 . S
C534 H519 0.960 . S
C534 H520 0.960 . S
C534 H521 0.960 . S
C534 C533 1.524 . S
C535 C532 1.403 . S
C535 C536 1.392 . S
C535 C539 1.495 . S
C536 C535 1.392 . S
C536 C537 1.385 . S
C536 C538 1.478 . S
C537 H531 0.930 . S
C537 C533 1.400 . S
C537 C536 1.385 . S
C538 C536 1.478 . S
C538 C540 1.381 . S
C538 C544 1.383 . S
C539 C535 1.495 . S
C539 H545 0.959 . S
C539 H546 0.961 . S
C539 H547 0.960 . S
C540 C538 1.381 . S
C540 C541 1.394 . S
C540 H548 0.930 . S
C541 C540 1.394 . S
C541 C542 1.383 . S
C541 H549 0.929 . S
C542 C541 1.383 . S
C542 C543 1.377 . S
C543 H527 0.930 . S
C543 C542 1.377 . S
C543 C544 1.379 . S
C544 H528 0.931 . S
C544 C538 1.383 . S
C544 C543 1.379 . S
H545 C539 0.959 . S
H546 C539 0.961 . S
H547 C539 0.960 . S
H548 C540 0.930 . S
H549 C541 0.929 . S
C146 C83 1.384 . S
C127 C11 1.435 . S
C182 C79 1.388 . S
C163 C30 1.401 1_455 S
C218 C104 1.424 . S
C199 C49 1.422 . S
C235 C68 1.411 . S
C254 C100 1.373 . S
C271 C2 1.187 1_556 S
C290 C101 1.046 . S
C326 C116 1.088 . S
C307 C25 1.201 1_556 S
C343 C6 1.862 . S
C362 C117 1.729 . S
C398 C113 1.732 . S
C379 C21 1.872 1_556 S
C434 C80 1.134 1_655 S
C415 C40 1.185 . S
C451 C63 1.206 . S
C470 C95 1.034 . S
C506 C96 1.719 . S
C487 C44 1.862 . S
C542 C92 1.705 . S
C523 C59 1.873 . S
