# Generated by pormake.
# Topology pyr, (3,6)-cn, num edge types: 1
# Building blocks:
#     Node 0, Type 0, BuildingBlock: MIDCAF_clean_linker_0, # of connection points: 3
#     Node 1, Type 0, BuildingBlock: MIDCAF_clean_linker_0, # of connection points: 3
#     Node 2, Type 0, BuildingBlock: MIDCAF_clean_linker_0, # of connection points: 3
#     Node 3, Type 0, BuildingBlock: MIDCAF_clean_linker_0, # of connection points: 3
#     Node 4, Type 0, BuildingBlock: MIDCAF_clean_linker_0, # of connection points: 3
#     Node 5, Type 0, BuildingBlock: MIDCAF_clean_linker_0, # of connection points: 3
#     Node 6, Type 0, BuildingBlock: MIDCAF_clean_linker_0, # of connection points: 3
#     Node 7, Type 0, BuildingBlock: MIDCAF_clean_linker_0, # of connection points: 3
#     Node 8, Type 1, BuildingBlock: PAMTOO_clean_sbu_0, # of connection points: 6
#     Node 9, Type 1, BuildingBlock: PAMTOO_clean_sbu_0, # of connection points: 6
#     Node 10, Type 1, BuildingBlock: PAMTOO_clean_sbu_0, # of connection points: 6
#     Node 11, Type 1, BuildingBlock: PAMTOO_clean_sbu_0, # of connection points: 6
#     Edge 12, Type (0, 1), BuildingBlock: KIFKEQ_clean_linker_1, # of connection points: 2
#     Edge 13, Type (0, 1), BuildingBlock: KIFKEQ_clean_linker_1, # of connection points: 2
#     Edge 14, Type (0, 1), BuildingBlock: KIFKEQ_clean_linker_1, # of connection points: 2
#     Edge 15, Type (0, 1), BuildingBlock: KIFKEQ_clean_linker_1, # of connection points: 2
#     Edge 16, Type (0, 1), BuildingBlock: KIFKEQ_clean_linker_1, # of connection points: 2
#     Edge 17, Type (0, 1), BuildingBlock: KIFKEQ_clean_linker_1, # of connection points: 2
#     Edge 18, Type (0, 1), BuildingBlock: KIFKEQ_clean_linker_1, # of connection points: 2
#     Edge 19, Type (0, 1), BuildingBlock: KIFKEQ_clean_linker_1, # of connection points: 2
#     Edge 20, Type (0, 1), BuildingBlock: KIFKEQ_clean_linker_1, # of connection points: 2
#     Edge 21, Type (0, 1), BuildingBlock: KIFKEQ_clean_linker_1, # of connection points: 2
#     Edge 22, Type (0, 1), BuildingBlock: KIFKEQ_clean_linker_1, # of connection points: 2
#     Edge 23, Type (0, 1), BuildingBlock: KIFKEQ_clean_linker_1, # of connection points: 2
#     Edge 24, Type (0, 1), BuildingBlock: KIFKEQ_clean_linker_1, # of connection points: 2
#     Edge 25, Type (0, 1), BuildingBlock: KIFKEQ_clean_linker_1, # of connection points: 2
#     Edge 26, Type (0, 1), BuildingBlock: KIFKEQ_clean_linker_1, # of connection points: 2
#     Edge 27, Type (0, 1), BuildingBlock: KIFKEQ_clean_linker_1, # of connection points: 2
#     Edge 28, Type (0, 1), BuildingBlock: KIFKEQ_clean_linker_1, # of connection points: 2
#     Edge 29, Type (0, 1), BuildingBlock: KIFKEQ_clean_linker_1, # of connection points: 2
#     Edge 30, Type (0, 1), BuildingBlock: KIFKEQ_clean_linker_1, # of connection points: 2
#     Edge 31, Type (0, 1), BuildingBlock: KIFKEQ_clean_linker_1, # of connection points: 2
#     Edge 32, Type (0, 1), BuildingBlock: KIFKEQ_clean_linker_1, # of connection points: 2
#     Edge 33, Type (0, 1), BuildingBlock: KIFKEQ_clean_linker_1, # of connection points: 2
#     Edge 34, Type (0, 1), BuildingBlock: KIFKEQ_clean_linker_1, # of connection points: 2
#     Edge 35, Type (0, 1), BuildingBlock: KIFKEQ_clean_linker_1, # of connection points: 2
# Relax obj value: 0.090
# Max RMSD: 0.157
# Mean RMSD: 0.067
data_MOF--net-pyr--node1-PAMTOO_clean_sbu_0--node2-MIDCAF_clean_linker_0--edge1-KIFKEQ_clean_linker_1
_symmetry_space_group_name_H-M    P1
_symmetry_Int_Tables_number       1
_symmetry_cell_setting            triclinic
loop_
_symmetry_equiv_pos_as_xyz
'x, y, z'
_cell_length_a     46.007514
_cell_length_b     48.000512
_cell_length_c     47.291016
_cell_angle_alpha  90.014468
_cell_angle_beta   90.085799
_cell_angle_gamma 102.45788
loop_
_atom_site_label
_atom_site_type_symbol
_atom_site_fract_x
_atom_site_fract_y
_atom_site_fract_z
_atom_type_partial_charge
C0 C 0.2855 0.26925 0.33545 0.0
C1 C 0.29201 0.24489 0.34824 0.0
C2 C 0.31337 0.23186 0.33567 0.0
C3 C 0.3261 0.24156 0.3097 0.0
H4 H 0.3797 0.22281 0.248 0.0
H5 H 0.4068 0.19141 0.22434 0.0
H6 H 0.38816 0.22548 0.14345 0.0
H7 H 0.36108 0.25732 0.16709 0.0
H8 H 0.30587 0.29066 0.16468 0.0
H9 H 0.26841 0.31081 0.13989 0.0
H10 H 0.24577 0.34697 0.21829 0.0
H11 H 0.28278 0.32699 0.24304 0.0
H12 H 0.29148 0.29691 0.29958 0.0
H13 H 0.26957 0.28009 0.34492 0.0
H14 H 0.31879 0.21296 0.34489 0.0
H15 H 0.34116 0.22998 0.29985 0.0
N16 N 0.34453 0.25682 0.25228 0.0
N17 N 0.33437 0.27656 0.20889 0.0
N18 N 0.31166 0.2877 0.25051 0.0
C19 C 0.34914 0.25974 0.22394 0.0
C20 C 0.31573 0.29082 0.22217 0.0
C21 C 0.32591 0.27081 0.26576 0.0
C22 C 0.36788 0.24251 0.20948 0.0
C23 C 0.38147 0.22389 0.22518 0.0
C24 C 0.39693 0.20572 0.21162 0.0
C25 C 0.39934 0.20575 0.18204 0.0
C26 C 0.38679 0.22507 0.16632 0.0
C27 C 0.37116 0.24324 0.17989 0.0
C28 C 0.29701 0.30677 0.20596 0.0
C29 C 0.29329 0.30335 0.17653 0.0
C30 C 0.27186 0.31488 0.1623 0.0
C31 C 0.25381 0.32995 0.1773 0.0
C32 C 0.25889 0.33487 0.20632 0.0
C33 C 0.28022 0.32347 0.22047 0.0
C34 C 0.31762 0.26443 0.29571 0.0
C35 C 0.29815 0.27891 0.30947 0.0
C36 C 0.10637 0.82683 0.70083 0.0
C37 C 0.10732 0.8281 0.67117 0.0
C38 C 0.12293 0.8105 0.65646 0.0
C39 C 0.13831 0.79288 0.67113 0.0
H40 H 0.19909 0.74149 0.65937 0.0
H41 H 0.23378 0.71751 0.6352 0.0
H42 H 0.26138 0.68954 0.71578 0.0
H43 H 0.22661 0.71284 0.7398 0.0
H44 H 0.22968 0.75803 0.78915 0.0
H45 H 0.2524 0.7821 0.83125 0.0
H46 H 0.18227 0.82902 0.83642 0.0
H47 H 0.15994 0.80558 0.79353 0.0
H48 H 0.12144 0.80963 0.73841 0.0
H49 H 0.09467 0.84025 0.71275 0.0
H50 H 0.12369 0.81073 0.63357 0.0
H51 H 0.15081 0.78025 0.65911 0.0
N52 N 0.17257 0.75918 0.70273 0.0
N53 N 0.19769 0.7527 0.74455 0.0
N54 N 0.16384 0.7827 0.74437 0.0
C55 C 0.19224 0.7467 0.71675 0.0
C56 C 0.18363 0.77062 0.75856 0.0
C57 C 0.15801 0.77699 0.71653 0.0
C58 C 0.21021 0.72931 0.70156 0.0
C59 C 0.21218 0.7298 0.67188 0.0
C60 C 0.23222 0.71626 0.65804 0.0
C61 C 0.25046 0.70177 0.67358 0.0
C62 C 0.24747 0.70025 0.70313 0.0
C63 C 0.22763 0.71384 0.71693 0.0
C64 C 0.19335 0.78037 0.78748 0.0
C65 C 0.21868 0.77305 0.79949 0.0
C66 C 0.23166 0.78675 0.82387 0.0
C67 C 0.21948 0.80791 0.83697 0.0
C68 C 0.19263 0.81333 0.82643 0.0
C69 C 0.17975 0.79978 0.80189 0.0
C70 C 0.13861 0.79267 0.70086 0.0
C71 C 0.1219 0.80938 0.71551 0.0
C72 C 0.61215 0.28021 0.92074 0.0
C73 C 0.59794 0.25682 0.90434 0.0
C74 C 0.59588 0.26043 0.87489 0.0
C75 C 0.60801 0.28688 0.86217 0.0
H76 H 0.58872 0.35981 0.80652 0.0
H77 H 0.57045 0.38192 0.76572 0.0
H78 H 0.65729 0.43724 0.75533 0.0
H79 H 0.67504 0.41599 0.79675 0.0
H80 H 0.71158 0.43202 0.86111 0.0
H81 H 0.75596 0.45603 0.88717 0.0
H82 H 0.75646 0.3777 0.93201 0.0
H83 H 0.71203 0.35424 0.90694 0.0
H84 H 0.63609 0.32362 0.92139 0.0
H85 H 0.61431 0.27811 0.94342 0.0
H86 H 0.58492 0.24279 0.86173 0.0
H87 H 0.60654 0.28898 0.83944 0.0
N88 N 0.62912 0.34813 0.84183 0.0
N89 N 0.66995 0.3874 0.84388 0.0
N90 N 0.66447 0.35152 0.87818 0.0
C91 C 0.64444 0.37342 0.83085 0.0
C92 C 0.68015 0.37647 0.86753 0.0
C93 C 0.63911 0.33716 0.86566 0.0
C94 C 0.63338 0.38608 0.80514 0.0
C95 C 0.60395 0.37667 0.79551 0.0
C96 C 0.59349 0.38934 0.77189 0.0
C97 C 0.61225 0.4116 0.75694 0.0
C98 C 0.64183 0.42068 0.76644 0.0
C99 C 0.65215 0.40826 0.79022 0.0
C100 C 0.70797 0.39124 0.88204 0.0
C101 C 0.72123 0.41997 0.87652 0.0
C102 C 0.74676 0.43371 0.89142 0.0
C103 C 0.75973 0.41897 0.91204 0.0
C104 C 0.74677 0.39007 0.91694 0.0
C105 C 0.72126 0.37649 0.90231 0.0
C106 C 0.62306 0.30996 0.87862 0.0
C107 C 0.62473 0.30629 0.90806 0.0
C108 C 0.76039 0.65008 0.41067 0.0
C109 C 0.74764 0.62111 0.40608 0.0
C110 C 0.76174 0.60562 0.38717 0.0
C111 C 0.78793 0.61895 0.37306 0.0
H112 H 0.83644 0.62166 0.29479 0.0
H113 H 0.85492 0.60045 0.25381 0.0
H114 H 0.94149 0.65595 0.26558 0.0
H115 H 0.92248 0.67805 0.30595 0.0
H116 H 0.91676 0.74286 0.34122 0.0
H117 H 0.94013 0.78888 0.36278 0.0
H118 H 0.88151 0.76915 0.43461 0.0
H119 H 0.8587 0.72378 0.41368 0.0
H120 H 0.79567 0.68559 0.40126 0.0
H121 H 0.75034 0.66256 0.42534 0.0
H122 H 0.75236 0.58329 0.38308 0.0
H123 H 0.79828 0.60647 0.35867 0.0
N124 N 0.84022 0.65091 0.34134 0.0
N125 N 0.88118 0.6901 0.33994 0.0
N126 N 0.84432 0.68764 0.37457 0.0
C127 C 0.86621 0.66461 0.32901 0.0
C128 C 0.87024 0.70173 0.36287 0.0
C129 C 0.82913 0.66238 0.36415 0.0
C130 C 0.8779 0.65167 0.30385 0.0
C131 C 0.85944 0.62941 0.28869 0.0
C132 C 0.87018 0.61702 0.26515 0.0
C133 C 0.89988 0.6262 0.25613 0.0
C134 C 0.91837 0.64847 0.27138 0.0
C135 C 0.9075 0.66112 0.29476 0.0
C136 C 0.88578 0.72944 0.3756 0.0
C137 C 0.90905 0.74832 0.36169 0.0
C138 C 0.92231 0.77476 0.37397 0.0
C139 C 0.91284 0.78269 0.40055 0.0
C140 C 0.88978 0.76367 0.41438 0.0
C141 C 0.87648 0.73757 0.40214 0.0
C142 C 0.80078 0.64792 0.37794 0.0
C143 C 0.78659 0.66325 0.39692 0.0
C144 C 0.62236 0.83836 0.88351 0.0
C145 C 0.61151 0.83257 0.91115 0.0
C146 C 0.61692 0.80822 0.92501 0.0
C147 C 0.63365 0.79072 0.91195 0.0
H148 H 0.70558 0.74881 0.9322 0.0
H149 H 0.73931 0.72528 0.95857 0.0
H150 H 0.75811 0.68343 0.88197 0.0
H151 H 0.72439 0.70644 0.85586 0.0
H152 H 0.72998 0.7457 0.80061 0.0
H153 H 0.75414 0.76292 0.75631 0.0
H154 H 0.70089 0.82664 0.75115 0.0
H155 H 0.67635 0.80931 0.79522 0.0
H156 H 0.64726 0.82635 0.84931 0.0
H157 H 0.61915 0.85712 0.87229 0.0
H158 H 0.60846 0.80275 0.9461 0.0
H159 H 0.63782 0.77244 0.92341 0.0
N160 N 0.67706 0.76167 0.8869 0.0
N161 N 0.70295 0.75134 0.84692 0.0
N162 N 0.67173 0.78367 0.84342 0.0
C163 C 0.69621 0.74722 0.87475 0.0
C164 C 0.69086 0.76946 0.83107 0.0
C165 C 0.66448 0.77976 0.8712 0.0
C166 C 0.7125 0.72971 0.89187 0.0
C167 C 0.71642 0.73409 0.92116 0.0
C168 C 0.73592 0.72081 0.93621 0.0
C169 C 0.75155 0.70266 0.92232 0.0
C170 C 0.74625 0.69707 0.8934 0.0
C171 C 0.72703 0.71047 0.87836 0.0
C172 C 0.70157 0.77646 0.80183 0.0
C173 C 0.72297 0.76306 0.78984 0.0
C174 C 0.73693 0.77295 0.76446 0.0
C175 C 0.72974 0.79638 0.75047 0.0
C176 C 0.70683 0.80844 0.76135 0.0
C177 C 0.69287 0.79858 0.78676 0.0
C178 C 0.64507 0.79698 0.88458 0.0
C179 C 0.63875 0.82073 0.87036 0.0
C180 C 0.81352 0.23692 0.25638 0.0
C181 C 0.79465 0.25221 0.24279 0.0
C182 C 0.79159 0.27839 0.25441 0.0
C183 C 0.80465 0.28761 0.2804 0.0
H184 H 0.78468 0.33274 0.34835 0.0
H185 H 0.74894 0.35399 0.37357 0.0
H186 H 0.77086 0.31622 0.45147 0.0
H187 H 0.80654 0.29447 0.42613 0.0
H188 H 0.84508 0.24602 0.42201 0.0
H189 H 0.87152 0.21363 0.44498 0.0
H190 H 0.92547 0.21376 0.37009 0.0
H191 H 0.89767 0.24494 0.34662 0.0
H192 H 0.83962 0.23298 0.29299 0.0
H193 H 0.8163 0.21659 0.24818 0.0
H194 H 0.77781 0.29105 0.24413 0.0
H195 H 0.8004 0.30704 0.28953 0.0
N196 N 0.81407 0.29347 0.34046 0.0
N197 N 0.83546 0.28142 0.38246 0.0
N198 N 0.84738 0.26287 0.33907 0.0
C199 C 0.81721 0.2959 0.36895 0.0
C200 C 0.85093 0.26518 0.36758 0.0
C201 C 0.82899 0.27702 0.32534 0.0
C202 C 0.79834 0.31167 0.38513 0.0
C203 C 0.78219 0.32915 0.37091 0.0
C204 C 0.7618 0.34153 0.38542 0.0
C205 C 0.75698 0.33668 0.41449 0.0
C206 C 0.77387 0.32006 0.42899 0.0
C207 C 0.79446 0.30778 0.41448 0.0
C208 C 0.86918 0.2479 0.38245 0.0
C209 C 0.86278 0.23933 0.41055 0.0
C210 C 0.87813 0.22082 0.42379 0.0
C211 C 0.90069 0.21084 0.40945 0.0
C212 C 0.90781 0.22037 0.38164 0.0
C213 C 0.89203 0.23846 0.36822 0.0
C214 C 0.82129 0.27097 0.29521 0.0
C215 C 0.82683 0.24628 0.28225 0.0
C216 C 0.26228 0.61211 0.19272 0.0
C217 C 0.25355 0.6241 0.16773 0.0
C218 C 0.27083 0.6502 0.15827 0.0
C219 C 0.29607 0.66393 0.17322 0.0
H220 H 0.35919 0.73156 0.16766 0.0
H221 H 0.3813 0.77764 0.14812 0.0
H222 H 0.44046 0.79572 0.21989 0.0
H223 H 0.41827 0.74862 0.23978 0.0
H224 H 0.41623 0.69238 0.28407 0.0
H225 H 0.43403 0.67094 0.32566 0.0
H226 H 0.3589 0.59959 0.31979 0.0
H227 H 0.34147 0.62057 0.27803 0.0
H228 H 0.29381 0.61606 0.22684 0.0
H229 H 0.24962 0.59192 0.20052 0.0
H230 H 0.26459 0.66037 0.13945 0.0
H231 H 0.30855 0.68406 0.16508 0.0
N232 N 0.34691 0.69301 0.20417 0.0
N233 N 0.38132 0.69681 0.24129 0.0
N234 N 0.34188 0.6564 0.23755 0.0
C235 C 0.37149 0.70797 0.21749 0.0
C236 C 0.36661 0.6709 0.25148 0.0
C237 C 0.3319 0.66738 0.21382 0.0
C238 C 0.38664 0.73621 0.20561 0.0
C239 C 0.37687 0.74514 0.17956 0.0
C240 C 0.38949 0.77183 0.16828 0.0
C241 C 0.41235 0.79071 0.18259 0.0
C242 C 0.42286 0.7817 0.2083 0.0
C243 C 0.41009 0.75473 0.21974 0.0
C244 C 0.37739 0.65828 0.2774 0.0
C245 C 0.40345 0.67212 0.29161 0.0
C246 C 0.41361 0.65986 0.31566 0.0
C247 C 0.39804 0.63338 0.32622 0.0
C248 C 0.37185 0.61972 0.31213 0.0
C249 C 0.36171 0.63193 0.28814 0.0
C250 C 0.30494 0.65206 0.19819 0.0
C251 C 0.28772 0.6259 0.20775 0.0
C252 C 0.13494 0.25763 0.68019 0.0
C253 C 0.10498 0.24453 0.68486 0.0
C254 C 0.08782 0.25859 0.70231 0.0
C255 C 0.10041 0.28522 0.71456 0.0
H256 H 0.09673 0.34483 0.78411 0.0
H257 H 0.07823 0.36677 0.82497 0.0
H258 H 0.15162 0.43957 0.81761 0.0
H259 H 0.1697 0.41808 0.77656 0.0
H260 H 0.21942 0.42118 0.72737 0.0
H261 H 0.2641 0.44483 0.70156 0.0
H262 H 0.24919 0.37598 0.64083 0.0
H263 H 0.20545 0.35228 0.66654 0.0
H264 H 0.17044 0.29351 0.68753 0.0
H265 H 0.14876 0.24772 0.66662 0.0
H266 H 0.06469 0.24901 0.70648 0.0
H267 H 0.08659 0.29567 0.72757 0.0
N268 N 0.13273 0.33969 0.7424 0.0
N269 N 0.17096 0.38097 0.73767 0.0
N270 N 0.16829 0.34273 0.70646 0.0
C271 C 0.14632 0.36639 0.75159 0.0
C272 C 0.182 0.36926 0.71496 0.0
C273 C 0.14385 0.3277 0.71981 0.0
C274 C 0.13475 0.37959 0.77675 0.0
C275 C 0.10894 0.36554 0.79113 0.0
C276 C 0.09839 0.3781 0.81478 0.0
C277 C 0.11331 0.40509 0.82477 0.0
C278 C 0.13915 0.41904 0.8104 0.0
C279 C 0.14967 0.40653 0.78681 0.0
C280 C 0.20879 0.38466 0.69928 0.0
C281 C 0.2257 0.41112 0.70851 0.0
C282 C 0.25126 0.42474 0.69362 0.0
C283 C 0.26048 0.4122 0.66921 0.0
C284 C 0.24324 0.38602 0.65984 0.0
C285 C 0.21789 0.37247 0.67463 0.0
C286 C 0.13025 0.29851 0.70922 0.0
C287 C 0.14733 0.28415 0.69209 0.0
Dy288 Dy 0.03558 0.02428 0.5182 0.0
Dy289 Dy 0.97338 1.01159 0.5553 0.0
C290 C 0.02619 0.06472 0.57032 0.0
O291 O 0.03445 0.98399 0.54174 0.0
O292 O 0.00523 0.99094 0.57908 0.0
O293 O 0.08294 0.02704 0.5169 0.0
O294 O 0.05903 0.03317 0.4786 0.0
O295 O 0.97145 0.97238 0.52922 0.0
O296 O 0.00283 0.99186 0.49334 0.0
O297 O 0.96538 0.03733 0.51792 0.0
O298 O 0.01327 0.0594 0.50642 0.0
O299 O 0.92548 1.00079 0.55609 0.0
O300 O 0.95031 1.00984 0.59529 0.0
C301 C 0.02462 0.97797 0.56749 0.0
O302 O 0.04497 0.05236 0.55671 0.0
O303 O 0.99729 0.05522 0.56826 0.0
C304 C 0.10866 0.05849 0.48265 0.0
C305 C 0.15395 0.10515 0.46655 0.0
C306 C 0.1337 0.10819 0.48803 0.0
C307 C 0.11118 0.08501 0.49601 0.0
C308 C 0.12884 0.0553 0.46144 0.0
C309 C 0.15126 0.0784 0.45341 0.0
C310 C 0.08496 0.03401 0.4902 0.0
C311 C 0.98215 0.97101 0.50363 0.0
C312 C 0.98448 0.05773 0.50519 0.0
C313 C 0.90413 0.97702 0.59703 0.0
C314 C 0.86375 0.93138 0.62228 0.0
C315 C 0.88313 0.92622 0.60084 0.0
C316 C 0.90322 0.94889 0.58833 0.0
C317 C 0.88515 0.98224 0.61854 0.0
C318 C 0.86519 0.95965 0.63111 0.0
C319 C 0.92419 1.00128 0.58363 0.0
H320 H 0.13528 0.12845 0.49867 0.0
H321 H 0.09568 0.08778 0.51246 0.0
H322 H 0.12705 0.03497 0.45085 0.0
H323 H 0.16603 0.07542 0.4364 0.0
H324 H 0.88248 0.90473 0.59346 0.0
H325 H 0.91782 0.94451 0.57173 0.0
H326 H 0.88572 1.00384 0.62557 0.0
H327 H 0.85107 0.96434 0.64797 0.0
Dy328 Dy 0.47807 1.01734 1.02753 0.0
Dy329 Dy 0.54166 0.03081 0.06224 0.0
C330 C 0.48986 0.97522 0.07602 0.0
O331 O 0.47108 0.03847 0.06829 0.0
O332 O 0.51812 0.06496 0.0746 0.0
O333 O 0.43018 1.00529 1.02814 0.0
O334 O 0.45334 0.01906 0.98893 0.0
O335 O 0.54935 0.05901 1.02383 0.0
O336 O 0.50097 0.06186 1.0161 0.0
O337 O 0.54316 0.99276 1.03607 0.0
O338 O 0.50788 0.99558 1.00223 0.0
O339 O 0.58963 0.03822 0.0635 0.0
O340 O 0.56441 0.03684 0.10244 0.0
C341 C 0.48942 0.0606 0.07921 0.0
O342 O 0.47796 0.9771 0.05103 0.0
O343 O 0.51065 0.99608 0.08623 0.0
C344 C 0.40703 0.98665 0.98563 0.0
C345 C 0.36592 0.94486 0.95604 0.0
C346 C 0.38628 0.93683 0.97497 0.0
C347 C 0.40681 0.95763 0.98961 0.0
C348 C 0.38678 0.99468 0.96687 0.0
C349 C 0.3664 0.974 0.9522 0.0
C350 C 0.42775 1.00901 1.001 0.0
C351 C 0.52959 0.07158 1.01215 0.0
C352 C 0.5304 0.9853 1.01158 0.0
C353 C 0.61223 0.06659 0.10198 0.0
C354 C 0.65205 0.11369 0.12561 0.0
C355 C 0.64037 0.11553 0.09836 0.0
C356 C 0.6204 0.09217 0.08666 0.0
C357 C 0.62429 0.06462 0.12891 0.0
C358 C 0.64396 0.08795 0.14066 0.0
C359 C 0.59073 0.04184 0.09087 0.0
H360 H 0.38656 0.91455 0.97815 0.0
H361 H 0.42243 0.95111 1.00402 0.0
H362 H 0.38662 1.017 0.96368 0.0
H363 H 0.35073 0.98084 0.93809 0.0
H364 H 0.64613 0.1352 0.08641 0.0
H365 H 0.61115 0.09418 0.06587 0.0
H366 H 0.61827 0.04505 0.141 0.0
H367 H 0.65292 0.08583 0.16156 0.0
Dy368 Dy 0.50267 0.49051 0.52322 0.0
Dy369 Dy 0.50695 0.551 0.55726 0.0
C370 C 0.53366 0.50099 0.58493 0.0
O371 O 0.4562 0.48868 0.53858 0.0
O372 O 0.46791 0.52041 0.57523 0.0
O373 O 0.49266 0.44439 0.52228 0.0
O374 O 0.50866 0.46836 0.48465 0.0
O375 O 0.47429 0.55096 0.52194 0.0
O376 O 0.49152 0.52131 0.49154 0.0
O377 O 0.54552 0.55881 0.5274 0.0
O378 O 0.55057 0.51277 0.52093 0.0
O379 O 0.51186 0.59677 0.55618 0.0
O380 O 0.50504 0.57434 0.59606 0.0
C381 C 0.44922 0.49973 0.56242 0.0
O382 O 0.51764 0.48297 0.56707 0.0
O383 O 0.53699 0.52878 0.58197 0.0
C384 C 0.52767 0.42808 0.49414 0.0
C385 C 0.5776 0.40416 0.48471 0.0
C386 C 0.57719 0.42287 0.50751 0.0
C387 C 0.5525 0.43479 0.51212 0.0
C388 C 0.5275 0.40876 0.47193 0.0
C389 C 0.55225 0.39681 0.46727 0.0
C390 C 0.50356 0.44351 0.49693 0.0
C391 C 0.47688 0.54149 0.49621 0.0
C392 C 0.56081 0.54038 0.51842 0.0
C393 C 0.47942 0.61081 0.58878 0.0
C394 C 0.4286 0.63196 0.60247 0.0
C395 C 0.42702 0.61042 0.58201 0.0
C396 C 0.45213 0.59988 0.57534 0.0
C397 C 0.48138 0.63262 0.60882 0.0
C398 C 0.45615 0.64316 0.61562 0.0
C399 C 0.50508 0.59815 0.58283 0.0
H400 H 0.59617 0.42868 0.52153 0.0
H401 H 0.55311 0.44989 0.52928 0.0
H402 H 0.50864 0.40364 0.45767 0.0
H403 H 0.55201 0.38273 0.44933 0.0
H404 H 0.40631 0.60161 0.57119 0.0
H405 H 0.45014 0.58288 0.55993 0.0
H406 H 0.50223 0.64109 0.61956 0.0
H407 H 0.45804 0.65951 0.63171 0.0
Dy408 Dy 0.00959 0.54876 1.02213 0.0
Dy409 Dy 0.00524 0.48792 0.05566 0.0
C410 C 0.9792 0.53805 0.08396 0.0
O411 O 0.0561 0.55074 1.03771 0.0
O412 O 0.04459 0.51817 0.0737 0.0
O413 O 0.01948 0.59489 1.02121 0.0
O414 O 0.00269 0.57088 0.98377 0.0
O415 O 0.03778 0.48798 1.02036 0.0
O416 O 0.0208 0.51812 0.99024 0.0
O417 O 0.96646 0.48064 1.02596 0.0
O418 O 0.96159 0.52681 1.0205 0.0
O419 O 0.99892 0.44206 0.05419 0.0
O420 O 0.00765 0.46423 0.09415 0.0
C421 C 0.06316 0.53922 0.0613 0.0
O422 O 0.99518 0.55613 0.06618 0.0
O423 O 0.97567 0.51027 0.08076 0.0
C424 C 0.98333 0.61082 0.9941 0.0
C425 C 0.93268 0.63423 0.9864 0.0
C426 C 0.93421 0.61573 1.00914 0.0
C427 C 0.95924 0.60407 1.01289 0.0
C428 C 0.98236 0.62986 0.97186 0.0
C429 C 0.95726 0.64155 0.96807 0.0
C430 C 0.00781 0.5957 0.99616 0.0
C431 C 0.03526 0.49774 0.99473 0.0
C432 C 0.95111 0.49928 1.01769 0.0
C433 C 0.03036 0.42565 0.08647 0.0
C434 C 0.0788 0.40072 0.09991 0.0
C435 C 0.08046 0.41952 0.07688 0.0
C436 C 0.05653 0.43198 0.07032 0.0
C437 C 0.02833 0.4066 0.10915 0.0
C438 C 0.05234 0.39422 0.11584 0.0
C439 C 0.006 0.44023 0.08072 0.0
H440 H 0.91588 0.60994 1.02385 0.0
H441 H 0.95947 0.58917 1.03006 0.0
H442 H 1.00059 0.63499 0.95696 0.0
H443 H 0.95665 0.65545 0.95014 0.0
H444 H 0.1003 0.42473 0.06396 0.0
H445 H 0.05861 0.44684 0.05283 0.0
H446 H 0.00841 0.40174 0.12201 0.0
H447 H 0.05046 0.38019 0.13398 0.0
H448 H 0.31064 0.22018 0.39545 0.0
H449 H 0.23206 0.23704 0.3548 0.0
H450 H 0.27927 0.1906 0.43055 0.0
H451 H 0.20093 0.20749 0.38935 0.0
H452 H 0.14833 0.16032 0.45879 0.0
H453 H 0.18404 0.19924 0.43696 0.0
H454 H 0.24666 0.14431 0.42871 0.0
H455 H 0.21165 0.10601 0.45189 0.0
C456 C 0.28673 0.21787 0.39424 0.0
C457 C 0.27385 0.23087 0.37229 0.0
C458 C 0.26876 0.20091 0.41428 0.0
C459 C 0.23755 0.19648 0.41268 0.0
C460 C 0.22486 0.21075 0.39159 0.0
C461 C 0.24278 0.22775 0.37169 0.0
C462 C 0.17003 0.1568 0.45305 0.0
C463 C 0.17697 0.12991 0.45671 0.0
C464 C 0.1904 0.17903 0.44025 0.0
C465 C 0.21808 0.17482 0.43071 0.0
C466 C 0.22566 0.14844 0.43593 0.0
C467 C 0.20538 0.12629 0.44885 0.0
H468 H 0.25279 0.79308 0.88065 0.0
H469 H 0.22611 0.86549 0.84242 0.0
H470 H 0.28781 0.82541 0.91097 0.0
H471 H 0.25985 0.89741 0.87348 0.0
H472 H 0.35137 0.94595 0.90033 0.0
H473 H 0.3138 0.91208 0.87447 0.0
H474 H 0.29354 0.86071 0.94982 0.0
H475 H 0.33149 0.89479 0.97582 0.0
C476 C 0.25402 0.81581 0.87903 0.0
C477 C 0.23679 0.82666 0.85892 0.0
C478 C 0.2739 0.8343 0.89655 0.0
C479 C 0.27692 0.86398 0.89428 0.0
C480 C 0.25847 0.87467 0.87534 0.0
C481 C 0.23873 0.85628 0.85782 0.0
C482 C 0.3388 0.92752 0.91144 0.0
C483 C 0.34417 0.92317 0.94016 0.0
C484 C 0.3172 0.90815 0.89665 0.0
C485 C 0.30036 0.88395 0.91022 0.0
C486 C 0.30621 0.87913 0.93879 0.0
C487 C 0.32795 0.89858 0.95363 0.0
H488 H 0.57116 0.38676 0.71672 0.0
H489 H 0.62787 0.46775 0.7393 0.0
H490 H 0.55274 0.40892 0.67633 0.0
H491 H 0.61112 0.48942 0.69763 0.0
H492 H 0.55362 0.52733 0.6352 0.0
H493 H 0.57227 0.50625 0.67658 0.0
H494 H 0.56427 0.42676 0.63119 0.0
H495 H 0.54448 0.44749 0.59054 0.0
C496 C 0.5798 0.4093 0.71318 0.0
C497 C 0.60114 0.42527 0.73163 0.0
C498 C 0.56954 0.42202 0.68954 0.0
C499 C 0.58047 0.45111 0.68325 0.0
C500 C 0.6018 0.46709 0.7017 0.0
C501 C 0.61183 0.45444 0.72553 0.0
C502 C 0.55601 0.5054 0.63405 0.0
C503 C 0.54735 0.48912 0.60953 0.0
C504 C 0.56685 0.49325 0.65782 0.0
C505 C 0.56969 0.46454 0.65763 0.0
C506 C 0.56177 0.44862 0.63269 0.0
C507 C 0.5506 0.46064 0.60914 0.0
H508 H 0.94138 0.65135 0.21654 0.0
H509 H 0.88463 0.57014 0.23813 0.0
H510 H 0.96014 0.62951 0.17616 0.0
H511 H 0.90171 0.54881 0.19647 0.0
H512 H 0.95929 0.51139 0.134 0.0
H513 H 0.94065 0.53219 0.17552 0.0
H514 H 0.94884 0.61205 0.13082 0.0
H515 H 0.96864 0.59161 0.09004 0.0
C516 C 0.93282 0.62882 0.21279 0.0
C517 C 0.91135 0.6127 0.23094 0.0
C518 C 0.94327 0.6163 0.18916 0.0
C519 C 0.9324 0.58726 0.18258 0.0
C520 C 0.91099 0.57111 0.20076 0.0
C521 C 0.90076 0.58356 0.22459 0.0
C522 C 0.95697 0.53335 0.13304 0.0
C523 C 0.96566 0.54982 0.10868 0.0
C524 C 0.94613 0.54534 0.15688 0.0
C525 C 0.94331 0.57405 0.15691 0.0
C526 C 0.95131 0.59017 0.13214 0.0
C527 C 0.96249 0.57832 0.10852 0.0
H528 H 0.39213 0.14907 0.1937 0.0
H529 H 0.43882 0.2149 0.13789 0.0
H530 H 0.4151 0.11415 0.1701 0.0
H531 H 0.46142 0.1797 0.11382 0.0
H532 H 0.51871 0.11326 0.0978 0.0
H533 H 0.49775 0.14862 0.12327 0.0
H534 H 0.41155 0.09098 0.12306 0.0
H535 H 0.43239 0.05559 0.09786 0.0
C536 C 0.40747 0.15612 0.17649 0.0
C537 C 0.41375 0.18476 0.1677 0.0
C538 C 0.4204 0.13605 0.16281 0.0
C539 C 0.44002 0.14418 0.14009 0.0
C540 C 0.44657 0.17288 0.13143 0.0
C541 C 0.43344 0.19295 0.14502 0.0
C542 C 0.49533 0.10805 0.10336 0.0
C543 C 0.47723 0.08158 0.09583 0.0
C544 C 0.48331 0.1284 0.11775 0.0
C545 C 0.45302 0.12258 0.12512 0.0
C546 C 0.43504 0.09597 0.11792 0.0
C547 C 0.44698 0.07574 0.10337 0.0
H548 H 0.13185 0.86337 0.62848 0.0
H549 H 0.05255 0.84066 0.67955 0.0
H550 H 0.111 0.8992 0.6042 0.0
H551 H 0.03125 0.87633 0.65481 0.0
H552 H 0.01759 0.96413 0.62384 0.0
H553 H 0.03668 0.92736 0.64913 0.0
H554 H 0.07319 0.90304 0.57106 0.0
H555 H 0.05509 0.94006 0.54617 0.0
C556 C 0.10972 0.86574 0.63419 0.0
C557 C 0.09374 0.84904 0.65576 0.0
C558 C 0.09773 0.8863 0.62027 0.0
C559 C 0.06934 0.89057 0.62741 0.0
C560 C 0.05331 0.87385 0.64901 0.0
C561 C 0.06543 0.85334 0.6631 0.0
C562 C 0.0297 0.95089 0.61215 0.0
C563 C 0.03509 0.95525 0.58307 0.0
C564 C 0.04049 0.92971 0.62659 0.0
C565 C 0.05671 0.91238 0.61218 0.0
C566 C 0.06141 0.91639 0.58298 0.0
C567 C 0.05088 0.9376 0.56866 0.0
H568 H 0.77216 0.41144 0.96794 0.0
H569 H 0.8083 0.45921 0.89382 0.0
H570 H 0.81737 0.4318 0.99407 0.0
H571 H 0.8533 0.4802 0.92044 0.0
H572 H 0.91828 0.53028 0.98725 0.0
H573 H 0.87129 0.51259 0.96232 0.0
H574 H 0.87062 0.4273 0.99165 0.0
H575 H 0.91751 0.44482 1.01645 0.0
C576 C 0.78974 0.42621 0.95711 0.0
C577 C 0.78659 0.4333 0.92853 0.0
C578 C 0.81564 0.43797 0.9722 0.0
C579 C 0.83901 0.45744 0.95929 0.0
C580 C 0.83557 0.46539 0.93105 0.0
C581 C 0.80972 0.45338 0.91581 0.0
C582 C 0.90802 0.50778 0.98856 0.0
C583 C 0.92171 0.48896 1.00389 0.0
C584 C 0.88119 0.49764 0.9741 0.0
C585 C 0.86724 0.46855 0.97499 0.0
C586 C 0.88066 0.44987 0.99075 0.0
C587 C 0.90762 0.45991 1.00488 0.0
H588 H 0.69754 0.64208 0.41333 0.0
H589 H 0.73493 0.56938 0.43336 0.0
H590 H 0.65335 0.62176 0.44072 0.0
H591 H 0.69085 0.54914 0.46148 0.0
H592 H 0.59405 0.50967 0.4881 0.0
H593 H 0.63879 0.52796 0.46041 0.0
H594 H 0.63787 0.61355 0.48819 0.0
H595 H 0.59273 0.5954 0.51501 0.0
C596 C 0.69635 0.62177 0.42374 0.0
C597 C 0.71986 0.60746 0.4213 0.0
C598 C 0.67104 0.61014 0.43963 0.0
C599 C 0.66855 0.58394 0.45377 0.0
C600 C 0.69179 0.56924 0.45076 0.0
C601 C 0.7171 0.58083 0.43463 0.0
C602 C 0.60351 0.53238 0.48845 0.0
C603 C 0.5896 0.55107 0.50368 0.0
C604 C 0.62929 0.54288 0.4726 0.0
C605 C 0.64191 0.57233 0.4717 0.0
C606 C 0.62847 0.59084 0.48773 0.0
C607 C 0.60264 0.58038 0.50337 0.0
H608 H 0.19727 0.32263 0.19701 0.0
H609 H 0.25281 0.35714 0.12633 0.0
H610 H 0.15542 0.33845 0.17575 0.0
H611 H 0.21049 0.3727 0.10465 0.0
H612 H 0.13768 0.42779 0.09984 0.0
H613 H 0.18018 0.40908 0.11562 0.0
H614 H 0.12163 0.32813 0.13446 0.0
H615 H 0.07908 0.34662 0.11828 0.0
C616 C 0.20051 0.33364 0.17689 0.0
C617 C 0.22838 0.33893 0.16345 0.0
C618 C 0.17643 0.34239 0.16456 0.0
C619 C 0.17965 0.35675 0.13851 0.0
C620 C 0.20744 0.36182 0.12484 0.0
C621 C 0.23156 0.35279 0.13712 0.0
C622 C 0.13389 0.40582 0.10682 0.0
C623 C 0.1049 0.38875 0.10794 0.0
C624 C 0.15828 0.39512 0.11587 0.0
C625 C 0.15421 0.3672 0.12639 0.0
C626 C 0.12537 0.34988 0.12683 0.0
C627 C 0.101 0.36052 0.11765 0.0
H628 H 0.60691 0.20413 0.88919 0.0
H629 H 0.56286 0.24628 0.95132 0.0
H630 H 0.59057 0.15878 0.91445 0.0
H631 H 0.54648 0.20114 0.97641 0.0
H632 H 0.49635 0.10951 0.99565 0.0
H633 H 0.51207 0.15326 0.96845 0.0
H634 H 0.60083 0.13776 0.96259 0.0
H635 H 0.58517 0.09382 0.99015 0.0
C636 C 0.59344 0.20362 0.90803 0.0
C637 C 0.58613 0.22877 0.91823 0.0
C638 C 0.58435 0.17774 0.92264 0.0
C639 C 0.56728 0.17636 0.94749 0.0
C640 C 0.55944 0.20141 0.95727 0.0
C641 C 0.56891 0.2273 0.94295 0.0
C642 C 0.51923 0.11529 0.98855 0.0
C643 C 0.53949 0.09806 0.99516 0.0
C644 C 0.52826 0.14049 0.97303 0.0
C645 C 0.5577 0.14903 0.96335 0.0
C646 C 0.57792 0.13165 0.96956 0.0
C647 C 0.56899 0.10657 0.98549 0.0
H648 H 0.92823 0.79292 0.45605 0.0
H649 H 0.92788 0.83591 0.37592 0.0
H650 H 0.94532 0.83861 0.47953 0.0
H651 H 0.94501 0.88196 0.39956 0.0
H652 H 1.00104 0.95778 0.451 0.0
H653 H 0.98619 0.9128 0.42514 0.0
H654 H 0.92503 0.87916 0.49218 0.0
H655 H 0.94009 0.92366 0.51812 0.0
C656 C 0.93176 0.81217 0.44341 0.0
C657 C 0.9263 0.81067 0.4141 0.0
C658 C 0.9415 0.83845 0.45692 0.0
C659 C 0.94611 0.86413 0.44158 0.0
C660 C 0.94181 0.86265 0.41206 0.0
C661 C 0.93203 0.83623 0.39848 0.0
C662 C 0.98431 0.94084 0.46016 0.0
C663 C 0.9719 0.94442 0.48678 0.0
C664 C 0.97572 0.91504 0.44526 0.0
C665 C 0.95461 0.89215 0.45664 0.0
C666 C 0.94179 0.89604 0.48297 0.0
C667 C 0.95031 0.92175 0.4978 0.0
H668 H 0.26591 0.65085 0.68423 0.0
H669 H 0.28843 0.72592 0.63155 0.0
H670 H 0.30828 0.634 0.66544 0.0
H671 H 0.33019 0.70848 0.61187 0.0
H672 H 0.42311 0.68668 0.61345 0.0
H673 H 0.37861 0.70259 0.62836 0.0
H674 H 0.32776 0.61581 0.62367 0.0
H675 H 0.37243 0.59976 0.61004 0.0
C676 C 0.27973 0.6636 0.66839 0.0
C677 C 0.27391 0.6898 0.65952 0.0
C678 C 0.30386 0.65381 0.65742 0.0
C679 C 0.32274 0.66998 0.63726 0.0
C680 C 0.31632 0.69572 0.62766 0.0
C681 C 0.29215 0.70552 0.63866 0.0
C682 C 0.40247 0.67099 0.61579 0.0
C683 C 0.40137 0.64195 0.6106 0.0
C684 C 0.37687 0.68015 0.62396 0.0
C685 C 0.3496 0.66047 0.62716 0.0
C686 C 0.34845 0.63149 0.62166 0.0
C687 C 0.37402 0.62233 0.61353 0.0
H688 H 0.71129 0.81728 0.70114 0.0
H689 H 0.79013 0.80763 0.7464 0.0
H690 H 0.74249 0.84591 0.66534 0.0
H691 H 0.82116 0.83638 0.71112 0.0
H692 H 0.87292 0.8789 0.63772 0.0
H693 H 0.83903 0.84143 0.66347 0.0
H694 H 0.77296 0.89323 0.66445 0.0
H695 H 0.80615 0.92989 0.63748 0.0
C696 C 0.73526 0.82104 0.70327 0.0
C697 C 0.74824 0.81028 0.72661 0.0
C698 C 0.75314 0.83748 0.68283 0.0
C699 C 0.78434 0.84363 0.68545 0.0
C700 C 0.79725 0.83173 0.70814 0.0
C701 C 0.77942 0.81522 0.72844 0.0
C702 C 0.85091 0.88199 0.64287 0.0
C703 C 0.84238 0.90753 0.63584 0.0
C704 C 0.83159 0.86063 0.65788 0.0
C705 C 0.80336 0.8644 0.66626 0.0
C706 C 0.7944 0.88944 0.65815 0.0
C707 C 0.81363 0.91069 0.64305 0.0
H708 H 0.80822 0.22028 0.19827 0.0
H709 H 0.73615 0.25311 0.23456 0.0
H710 H 0.773 0.19051 0.16612 0.0
H711 H 0.70147 0.2244 0.20179 0.0
H712 H 0.64816 0.13431 0.17857 0.0
H713 H 0.68301 0.17247 0.20229 0.0
H714 H 0.73621 0.18774 0.12637 0.0
H715 H 0.70122 0.1489 0.10262 0.0
C716 C 0.78504 0.22163 0.19899 0.0
C717 C 0.77502 0.23884 0.21926 0.0
C718 C 0.76492 0.20479 0.18038 0.0
C719 C 0.73441 0.20484 0.18175 0.0
C720 C 0.72479 0.2236 0.20055 0.0
C721 C 0.74482 0.24035 0.21912 0.0
C722 C 0.66722 0.14589 0.1669 0.0
C723 C 0.67214 0.13853 0.13886 0.0
C724 C 0.68702 0.16797 0.18036 0.0
C725 C 0.71231 0.18319 0.16615 0.0
C726 C 0.71696 0.17628 0.13785 0.0
C727 C 0.6969 0.15424 0.12424 0.0
H728 H 0.42407 0.65932 0.37482 0.0
H729 H 0.39718 0.57662 0.33532 0.0
H730 H 0.44247 0.63719 0.41565 0.0
H731 H 0.4144 0.55443 0.37653 0.0
H732 H 0.47807 0.52739 0.44011 0.0
H733 H 0.45913 0.5496 0.39985 0.0
H734 H 0.42703 0.60705 0.4562 0.0
H735 H 0.44659 0.58513 0.49659 0.0
C736 C 0.42207 0.63643 0.37477 0.0
C737 C 0.40908 0.61987 0.35157 0.0
C738 C 0.43231 0.62365 0.39842 0.0
C739 C 0.42998 0.59392 0.39958 0.0
C740 C 0.41695 0.57739 0.3764 0.0
C741 C 0.40669 0.59014 0.3528 0.0
C742 C 0.46687 0.54467 0.44403 0.0
C743 C 0.4639 0.55436 0.47176 0.0
C744 C 0.45583 0.55738 0.42084 0.0
C745 C 0.44144 0.5802 0.42458 0.0
C746 C 0.43828 0.58979 0.45235 0.0
C747 C 0.44933 0.57704 0.4756 0.0
H748 H 0.08806 0.37955 0.87377 0.0
H749 H 0.11298 0.46178 0.83311 0.0
H750 H 0.06969 0.40186 0.91442 0.0
H751 H 0.09588 0.4842 0.87419 0.0
H752 H 0.03328 0.51151 0.93856 0.0
H753 H 0.0518 0.48914 0.89819 0.0
H754 H 0.08507 0.43233 0.95448 0.0
H755 H 0.06588 0.45434 0.99493 0.0
C756 C 0.08962 0.40238 0.8734 0.0
C757 C 0.10207 0.41874 0.84993 0.0
C758 C 0.07941 0.41528 0.89698 0.0
C759 C 0.08126 0.44496 0.89782 0.0
C760 C 0.0937 0.46129 0.87434 0.0
C761 C 0.10391 0.44841 0.85081 0.0
C762 C 0.04464 0.49433 0.94243 0.0
C763 C 0.04804 0.48484 0.97016 0.0
C764 C 0.05545 0.48153 0.91917 0.0
C765 C 0.07004 0.45881 0.92285 0.0
C766 C 0.07363 0.44946 0.95064 0.0
C767 C 0.0628 0.46228 0.97394 0.0
H768 H 0.57272 0.86321 0.88886 0.0
H769 H 0.61585 0.84824 0.96696 0.0
H770 H 0.5526 0.90031 0.91195 0.0
H771 H 0.59407 0.88374 0.99041 0.0
H772 H 0.5844 0.97143 1.01562 0.0
H773 H 0.60194 0.93392 0.99102 0.0
H774 H 0.51827 0.91129 0.94604 0.0
H775 H 0.50105 0.94985 0.97016 0.0
C776 C 0.57774 0.86762 0.911 0.0
C777 C 0.59625 0.85285 0.9259 0.0
C778 C 0.56585 0.88868 0.92434 0.0
C779 C 0.57199 0.89534 0.95298 0.0
C780 C 0.58941 0.87969 0.96816 0.0
C781 C 0.60152 0.85889 0.95478 0.0
C782 C 0.56973 0.95854 1.00041 0.0
C783 C 0.54127 0.96353 0.99494 0.0
C784 C 0.57971 0.93681 0.98644 0.0
C785 C 0.56136 0.91916 0.96686 0.0
C786 C 0.53307 0.92454 0.96087 0.0
C787 C 0.52317 0.94661 0.9747 0.0
H788 H 0.91506 0.20669 0.46559 0.0
H789 H 0.92051 0.16669 0.38429 0.0
H790 H 0.93577 0.16961 0.48818 0.0
H791 H 0.94284 0.13076 0.40699 0.0
H792 H 0.01129 0.09235 0.46249 0.0
H793 H 0.9926 0.1304 0.43868 0.0
H794 H 0.91406 0.11245 0.49103 0.0
H795 H 0.93221 0.07408 0.51438 0.0
C796 C 0.92065 0.19014 0.45247 0.0
C797 C 0.91578 0.18971 0.42304 0.0
C798 C 0.93271 0.16905 0.46544 0.0
C799 C 0.94078 0.14743 0.44926 0.0
C800 C 0.93698 0.14741 0.41984 0.0
C801 C 0.92435 0.16815 0.40688 0.0
C802 C 0.98998 0.09647 0.4688 0.0
C803 C 0.97314 0.0802 0.49019 0.0
C804 C 0.97933 0.11815 0.45517 0.0
C805 C 0.95203 0.12432 0.46321 0.0
C806 C 0.93528 0.10816 0.48465 0.0
C807 C 0.94558 0.08612 0.49782 0.0
H808 H 0.19917 0.59689 0.18867 0.0
H809 H 0.24623 0.61937 0.11017 0.0
H810 H 0.15416 0.57603 0.16226 0.0
H811 H 0.20125 0.59851 0.08377 0.0
H812 H 0.10593 0.5869 0.04747 0.0
H813 H 0.15218 0.60656 0.07279 0.0
H814 H 0.13275 0.53656 0.13204 0.0
H815 H 0.08654 0.51727 0.10722 0.0
C816 C 0.20005 0.59706 0.16578 0.0
C817 C 0.22639 0.60993 0.15162 0.0
C818 C 0.17419 0.58511 0.15059 0.0
C819 C 0.17395 0.58563 0.1208 0.0
C820 C 0.2004 0.59815 0.10665 0.0
C821 C 0.22625 0.61009 0.12184 0.0
C822 C 0.11161 0.57563 0.0658 0.0
C823 C 0.09232 0.55058 0.07532 0.0
C824 C 0.13822 0.58685 0.0803 0.0
C825 C 0.14618 0.57328 0.10465 0.0
C826 C 0.12714 0.54792 0.11375 0.0
C827 C 0.10063 0.53675 0.09933 0.0
H828 H 0.2813 0.46912 0.65717 0.0
H829 H 0.30219 0.38636 0.64554 0.0
H830 H 0.32552 0.49096 0.63003 0.0
H831 H 0.34613 0.40809 0.61842 0.0
H832 H 0.40723 0.45163 0.5484 0.0
H833 H 0.36103 0.43139 0.57337 0.0
H834 H 0.3795 0.50103 0.63317 0.0
H835 H 0.42519 0.52147 0.60805 0.0
C836 C 0.29541 0.4556 0.64905 0.0
C837 C 0.288 0.42593 0.65347 0.0
C838 C 0.32075 0.46811 0.63341 0.0
C839 C 0.33932 0.45127 0.62179 0.0
C840 C 0.33203 0.42166 0.62647 0.0
C841 C 0.30679 0.40919 0.64211 0.0
C842 C 0.4013 0.46275 0.56671 0.0
C843 C 0.42009 0.4881 0.57624 0.0
C844 C 0.37491 0.45104 0.58118 0.0
C845 C 0.36657 0.46447 0.60544 0.0
C846 C 0.38501 0.49021 0.61447 0.0
C847 C 0.41139 0.50184 0.60011 0.0
H848 H 0.76263 0.649 0.91879 0.0
H849 H 0.79423 0.73098 0.95855 0.0
H850 H 0.80559 0.63272 0.9372 0.0
H851 H 0.83674 0.71437 0.97781 0.0
H852 H 0.92747 0.68768 0.96984 0.0
H853 H 0.88202 0.70356 0.95795 0.0
H854 H 0.82973 0.62031 0.97959 0.0
H855 H 0.87517 0.60412 0.99041 0.0
C856 C 0.77854 0.6634 0.93181 0.0
C857 C 0.77512 0.69134 0.93704 0.0
C858 C 0.80305 0.654 0.94258 0.0
C859 C 0.82473 0.67233 0.95882 0.0
C860 C 0.82065 0.69987 0.96505 0.0
C861 C 0.79608 0.70926 0.95432 0.0
C862 C 0.90627 0.67277 0.97202 0.0
C863 C 0.90498 0.64462 0.98099 0.0
C864 C 0.88019 0.68196 0.96554 0.0
C865 C 0.85222 0.66319 0.96782 0.0
C866 C 0.85091 0.63522 0.97736 0.0
C867 C 0.87697 0.62605 0.98386 0.0
H868 H 0.38133 0.82696 0.15824 0.0
H869 H 0.47086 0.82008 0.17926 0.0
H870 H 0.40063 0.87178 0.13401 0.0
H871 H 0.49033 0.86533 0.1549 0.0
H872 H 0.51077 0.96093 0.12748 0.0
H873 H 0.49284 0.91756 0.15518 0.0
H874 H 0.42763 0.88626 0.09049 0.0
H875 H 0.44514 0.92943 0.0631 0.0
C876 C 0.4052 0.83499 0.15765 0.0
C877 C 0.42454 0.8196 0.17037 0.0
C878 C 0.41629 0.86074 0.14369 0.0
C879 C 0.44709 0.87202 0.14206 0.0
C880 C 0.46647 0.85732 0.1558 0.0
C881 C 0.45532 0.83139 0.1698 0.0
C882 C 0.49257 0.94481 0.11919 0.0
C883 C 0.47935 0.94885 0.09305 0.0
C884 C 0.48241 0.91986 0.13503 0.0
C885 C 0.45864 0.89844 0.12521 0.0
C886 C 0.44562 0.90247 0.09899 0.0
C887 C 0.45583 0.92725 0.08315 0.0
H888 H 0.12981 0.19784 0.67887 0.0
H889 H 0.0508 0.2285 0.65825 0.0
H890 H 0.11075 0.1543 0.6522 0.0
H891 H 0.03178 0.18503 0.63121 0.0
H892 H 0.99433 0.09276 0.60499 0.0
H893 H 0.01248 0.13481 0.63395 0.0
H894 H 0.10197 0.13771 0.60464 0.0
H895 H 0.08387 0.0951 0.57613 0.0
C896 C 0.10835 0.19531 0.66859 0.0
C897 C 0.09192 0.21681 0.67065 0.0
C898 C 0.09745 0.17033 0.65314 0.0
C899 C 0.06979 0.16608 0.63921 0.0
C900 C 0.05301 0.1873 0.64186 0.0
C901 C 0.06389 0.21228 0.65743 0.0
C902 C 0.01792 0.10228 0.60471 0.0
C903 C 0.03761 0.09038 0.58817 0.0
C904 C 0.02832 0.1266 0.62126 0.0
C905 C 0.05874 0.13986 0.62174 0.0
C906 C 0.07846 0.12792 0.60522 0.0
C907 C 0.06805 0.1035 0.58871 0.0
H908 H 0.71577 0.30836 0.45192 0.0
H909 H 0.74389 0.38938 0.40952 0.0
H910 H 0.67361 0.32466 0.4723 0.0
H911 H 0.7013 0.40533 0.42913 0.0
H912 H 0.6351 0.43448 0.48608 0.0
H913 H 0.67997 0.41836 0.47306 0.0
H914 H 0.6269 0.33467 0.45411 0.0
H915 H 0.58204 0.35051 0.46813 0.0
C916 C 0.71318 0.32979 0.44727 0.0
C917 C 0.7331 0.34757 0.42905 0.0
C918 C 0.68884 0.33899 0.45867 0.0
C919 C 0.684 0.3662 0.45218 0.0
C920 C 0.70451 0.38432 0.43474 0.0
C921 C 0.72877 0.3751 0.42328 0.0
C922 C 0.63304 0.41248 0.47965 0.0
C923 C 0.60498 0.39376 0.47814 0.0
C924 C 0.65873 0.40335 0.47189 0.0
C925 C 0.65699 0.37529 0.46244 0.0
C926 C 0.62903 0.35635 0.46156 0.0
C927 C 0.60329 0.36551 0.46928 0.0
loop_
_geom_bond_atom_site_label_1
_geom_bond_atom_site_label_2
_geom_bond_distance
_geom_bond_site_symmetry_2
_ccdc_geom_bond_type
C0 C1 1.384 . S
C0 H13 0.947 . S
C0 C35 1.382 . S
C1 C0 1.384 . S
C1 C2 1.378 . S
C2 C1 1.378 . S
C2 C3 1.378 . S
C2 H14 0.952 . S
C3 C2 1.378 . S
C3 H15 0.950 . S
C3 C34 1.383 . S
H4 C23 0.947 . S
H5 C24 0.946 . S
H6 C26 0.953 . S
H7 C27 0.945 . S
H8 C29 0.952 . S
H9 C30 0.949 . S
H10 C32 0.950 . S
H11 C33 0.948 . S
H12 C35 0.951 . S
H13 C0 0.947 . S
H14 C2 0.952 . S
H15 C3 0.950 . S
N16 C19 1.382 . S
N16 C21 1.363 . S
N17 C19 1.371 . S
N17 C20 1.372 . S
N18 C20 1.361 . S
N18 C21 1.377 . S
C19 N16 1.382 . S
C19 N17 1.371 . S
C19 C22 1.480 . S
C20 N17 1.372 . S
C20 N18 1.361 . S
C20 C28 1.457 . S
C21 N16 1.363 . S
C21 N18 1.377 . S
C21 C34 1.479 . S
C22 C19 1.480 . S
C22 C23 1.383 . S
C22 C27 1.385 . S
C23 H4 0.947 . S
C23 C22 1.383 . S
C23 C24 1.388 . S
C24 H5 0.946 . S
C24 C23 1.388 . S
C24 C25 1.384 . S
C25 C24 1.384 . S
C25 C26 1.377 . S
C26 H6 0.953 . S
C26 C25 1.377 . S
C26 C27 1.369 . S
C27 H7 0.945 . S
C27 C22 1.385 . S
C27 C26 1.369 . S
C28 C20 1.457 . S
C28 C29 1.372 . S
C28 C33 1.364 . S
C29 H8 0.952 . S
C29 C28 1.372 . S
C29 C30 1.389 . S
C30 H9 0.949 . S
C30 C29 1.389 . S
C30 C31 1.387 . S
C31 C30 1.387 . S
C31 C32 1.372 . S
C32 H10 0.950 . S
C32 C31 1.372 . S
C32 C33 1.379 . S
C33 H11 0.948 . S
C33 C28 1.364 . S
C33 C32 1.379 . S
C34 C3 1.383 . S
C34 C21 1.479 . S
C34 C35 1.398 . S
C35 C0 1.382 . S
C35 H12 0.951 . S
C35 C34 1.398 . S
C36 C37 1.384 . S
C36 H49 0.947 . S
C36 C71 1.382 . S
C37 C36 1.384 . S
C37 C38 1.378 . S
C38 C37 1.378 . S
C38 C39 1.378 . S
C38 H50 0.952 . S
C39 C38 1.378 . S
C39 H51 0.950 . S
C39 C70 1.383 . S
H40 C59 0.947 . S
H41 C60 0.946 . S
H42 C62 0.953 . S
H43 C63 0.945 . S
H44 C65 0.952 . S
H45 C66 0.949 . S
H46 C68 0.950 . S
H47 C69 0.948 . S
H48 C71 0.951 . S
H49 C36 0.947 . S
H50 C38 0.952 . S
H51 C39 0.950 . S
N52 C55 1.382 . S
N52 C57 1.363 . S
N53 C55 1.371 . S
N53 C56 1.372 . S
N54 C56 1.361 . S
N54 C57 1.377 . S
C55 N52 1.382 . S
C55 N53 1.371 . S
C55 C58 1.480 . S
C56 N53 1.372 . S
C56 N54 1.361 . S
C56 C64 1.457 . S
C57 N52 1.363 . S
C57 N54 1.377 . S
C57 C70 1.479 . S
C58 C55 1.480 . S
C58 C59 1.383 . S
C58 C63 1.385 . S
C59 H40 0.947 . S
C59 C58 1.383 . S
C59 C60 1.388 . S
C60 H41 0.946 . S
C60 C59 1.388 . S
C60 C61 1.384 . S
C61 C60 1.384 . S
C61 C62 1.377 . S
C62 H42 0.953 . S
C62 C61 1.377 . S
C62 C63 1.369 . S
C63 H43 0.945 . S
C63 C58 1.385 . S
C63 C62 1.369 . S
C64 C56 1.457 . S
C64 C65 1.372 . S
C64 C69 1.364 . S
C65 H44 0.952 . S
C65 C64 1.372 . S
C65 C66 1.389 . S
C66 H45 0.949 . S
C66 C65 1.389 . S
C66 C67 1.387 . S
C67 C66 1.387 . S
C67 C68 1.372 . S
C68 H46 0.950 . S
C68 C67 1.372 . S
C68 C69 1.379 . S
C69 H47 0.948 . S
C69 C64 1.364 . S
C69 C68 1.379 . S
C70 C39 1.383 . S
C70 C57 1.479 . S
C70 C71 1.398 . S
C71 C36 1.382 . S
C71 H48 0.951 . S
C71 C70 1.398 . S
C72 C73 1.384 . S
C72 H85 0.947 . S
C72 C107 1.382 . S
C73 C72 1.384 . S
C73 C74 1.378 . S
C74 C73 1.378 . S
C74 C75 1.378 . S
C74 H86 0.952 . S
C75 C74 1.378 . S
C75 H87 0.950 . S
C75 C106 1.383 . S
H76 C95 0.947 . S
H77 C96 0.946 . S
H78 C98 0.953 . S
H79 C99 0.945 . S
H80 C101 0.952 . S
H81 C102 0.949 . S
H82 C104 0.950 . S
H83 C105 0.948 . S
H84 C107 0.951 . S
H85 C72 0.947 . S
H86 C74 0.952 . S
H87 C75 0.950 . S
N88 C91 1.382 . S
N88 C93 1.363 . S
N89 C91 1.371 . S
N89 C92 1.372 . S
N90 C92 1.361 . S
N90 C93 1.377 . S
C91 N88 1.382 . S
C91 N89 1.371 . S
C91 C94 1.480 . S
C92 N89 1.372 . S
C92 N90 1.361 . S
C92 C100 1.457 . S
C93 N88 1.363 . S
C93 N90 1.377 . S
C93 C106 1.479 . S
C94 C91 1.480 . S
C94 C95 1.383 . S
C94 C99 1.385 . S
C95 H76 0.947 . S
C95 C94 1.383 . S
C95 C96 1.388 . S
C96 H77 0.946 . S
C96 C95 1.388 . S
C96 C97 1.384 . S
C97 C96 1.384 . S
C97 C98 1.377 . S
C98 H78 0.953 . S
C98 C97 1.377 . S
C98 C99 1.369 . S
C99 H79 0.945 . S
C99 C94 1.385 . S
C99 C98 1.369 . S
C100 C92 1.457 . S
C100 C101 1.372 . S
C100 C105 1.364 . S
C101 H80 0.952 . S
C101 C100 1.372 . S
C101 C102 1.389 . S
C102 H81 0.949 . S
C102 C101 1.389 . S
C102 C103 1.387 . S
C103 C102 1.387 . S
C103 C104 1.372 . S
C104 H82 0.950 . S
C104 C103 1.372 . S
C104 C105 1.379 . S
C105 H83 0.948 . S
C105 C100 1.364 . S
C105 C104 1.379 . S
C106 C75 1.383 . S
C106 C93 1.479 . S
C106 C107 1.398 . S
C107 C72 1.382 . S
C107 H84 0.951 . S
C107 C106 1.398 . S
C108 C109 1.384 . S
C108 H121 0.947 . S
C108 C143 1.382 . S
C109 C108 1.384 . S
C109 C110 1.378 . S
C110 C109 1.378 . S
C110 C111 1.378 . S
C110 H122 0.952 . S
C111 C110 1.378 . S
C111 H123 0.950 . S
C111 C142 1.383 . S
H112 C131 0.947 . S
H113 C132 0.946 . S
H114 C134 0.953 . S
H115 C135 0.945 . S
H116 C137 0.952 . S
H117 C138 0.949 . S
H118 C140 0.950 . S
H119 C141 0.948 . S
H120 C143 0.951 . S
H121 C108 0.947 . S
H122 C110 0.952 . S
H123 C111 0.950 . S
N124 C127 1.382 . S
N124 C129 1.363 . S
N125 C127 1.371 . S
N125 C128 1.372 . S
N126 C128 1.361 . S
N126 C129 1.377 . S
C127 N124 1.382 . S
C127 N125 1.371 . S
C127 C130 1.480 . S
C128 N125 1.372 . S
C128 N126 1.361 . S
C128 C136 1.457 . S
C129 N124 1.363 . S
C129 N126 1.377 . S
C129 C142 1.479 . S
C130 C127 1.480 . S
C130 C131 1.383 . S
C130 C135 1.385 . S
C131 H112 0.947 . S
C131 C130 1.383 . S
C131 C132 1.388 . S
C132 H113 0.946 . S
C132 C131 1.388 . S
C132 C133 1.384 . S
C133 C132 1.384 . S
C133 C134 1.377 . S
C134 H114 0.953 . S
C134 C133 1.377 . S
C134 C135 1.369 . S
C135 H115 0.945 . S
C135 C130 1.385 . S
C135 C134 1.369 . S
C136 C128 1.457 . S
C136 C137 1.372 . S
C136 C141 1.364 . S
C137 H116 0.952 . S
C137 C136 1.372 . S
C137 C138 1.389 . S
C138 H117 0.949 . S
C138 C137 1.389 . S
C138 C139 1.387 . S
C139 C138 1.387 . S
C139 C140 1.372 . S
C140 H118 0.950 . S
C140 C139 1.372 . S
C140 C141 1.379 . S
C141 H119 0.948 . S
C141 C136 1.364 . S
C141 C140 1.379 . S
C142 C111 1.383 . S
C142 C129 1.479 . S
C142 C143 1.398 . S
C143 C108 1.382 . S
C143 H120 0.951 . S
C143 C142 1.398 . S
C144 C145 1.384 . S
C144 H157 0.947 . S
C144 C179 1.382 . S
C145 C144 1.384 . S
C145 C146 1.378 . S
C146 C145 1.378 . S
C146 C147 1.378 . S
C146 H158 0.952 . S
C147 C146 1.378 . S
C147 H159 0.950 . S
C147 C178 1.383 . S
H148 C167 0.947 . S
H149 C168 0.946 . S
H150 C170 0.953 . S
H151 C171 0.945 . S
H152 C173 0.952 . S
H153 C174 0.949 . S
H154 C176 0.950 . S
H155 C177 0.948 . S
H156 C179 0.951 . S
H157 C144 0.947 . S
H158 C146 0.952 . S
H159 C147 0.950 . S
N160 C163 1.382 . S
N160 C165 1.363 . S
N161 C163 1.371 . S
N161 C164 1.372 . S
N162 C164 1.361 . S
N162 C165 1.377 . S
C163 N160 1.382 . S
C163 N161 1.371 . S
C163 C166 1.480 . S
C164 N161 1.372 . S
C164 N162 1.361 . S
C164 C172 1.457 . S
C165 N160 1.363 . S
C165 N162 1.377 . S
C165 C178 1.479 . S
C166 C163 1.480 . S
C166 C167 1.383 . S
C166 C171 1.385 . S
C167 H148 0.947 . S
C167 C166 1.383 . S
C167 C168 1.388 . S
C168 H149 0.946 . S
C168 C167 1.388 . S
C168 C169 1.384 . S
C169 C168 1.384 . S
C169 C170 1.377 . S
C170 H150 0.953 . S
C170 C169 1.377 . S
C170 C171 1.369 . S
C171 H151 0.945 . S
C171 C166 1.385 . S
C171 C170 1.369 . S
C172 C164 1.457 . S
C172 C173 1.372 . S
C172 C177 1.364 . S
C173 H152 0.952 . S
C173 C172 1.372 . S
C173 C174 1.389 . S
C174 H153 0.949 . S
C174 C173 1.389 . S
C174 C175 1.387 . S
C175 C174 1.387 . S
C175 C176 1.372 . S
C176 H154 0.950 . S
C176 C175 1.372 . S
C176 C177 1.379 . S
C177 H155 0.948 . S
C177 C172 1.364 . S
C177 C176 1.379 . S
C178 C147 1.383 . S
C178 C165 1.479 . S
C178 C179 1.398 . S
C179 C144 1.382 . S
C179 H156 0.951 . S
C179 C178 1.398 . S
C180 C181 1.384 . S
C180 H193 0.947 . S
C180 C215 1.382 . S
C181 C180 1.384 . S
C181 C182 1.378 . S
C182 C181 1.378 . S
C182 C183 1.378 . S
C182 H194 0.952 . S
C183 C182 1.378 . S
C183 H195 0.950 . S
C183 C214 1.383 . S
H184 C203 0.947 . S
H185 C204 0.946 . S
H186 C206 0.953 . S
H187 C207 0.945 . S
H188 C209 0.952 . S
H189 C210 0.949 . S
H190 C212 0.950 . S
H191 C213 0.948 . S
H192 C215 0.951 . S
H193 C180 0.947 . S
H194 C182 0.952 . S
H195 C183 0.950 . S
N196 C199 1.382 . S
N196 C201 1.363 . S
N197 C199 1.371 . S
N197 C200 1.372 . S
N198 C200 1.361 . S
N198 C201 1.377 . S
C199 N196 1.382 . S
C199 N197 1.371 . S
C199 C202 1.480 . S
C200 N197 1.372 . S
C200 N198 1.361 . S
C200 C208 1.457 . S
C201 N196 1.363 . S
C201 N198 1.377 . S
C201 C214 1.479 . S
C202 C199 1.480 . S
C202 C203 1.383 . S
C202 C207 1.385 . S
C203 H184 0.947 . S
C203 C202 1.383 . S
C203 C204 1.388 . S
C204 H185 0.946 . S
C204 C203 1.388 . S
C204 C205 1.384 . S
C205 C204 1.384 . S
C205 C206 1.377 . S
C206 H186 0.953 . S
C206 C205 1.377 . S
C206 C207 1.369 . S
C207 H187 0.945 . S
C207 C202 1.385 . S
C207 C206 1.369 . S
C208 C200 1.457 . S
C208 C209 1.372 . S
C208 C213 1.364 . S
C209 H188 0.952 . S
C209 C208 1.372 . S
C209 C210 1.389 . S
C210 H189 0.949 . S
C210 C209 1.389 . S
C210 C211 1.387 . S
C211 C210 1.387 . S
C211 C212 1.372 . S
C212 H190 0.950 . S
C212 C211 1.372 . S
C212 C213 1.379 . S
C213 H191 0.948 . S
C213 C208 1.364 . S
C213 C212 1.379 . S
C214 C183 1.383 . S
C214 C201 1.479 . S
C214 C215 1.398 . S
C215 C180 1.382 . S
C215 H192 0.951 . S
C215 C214 1.398 . S
C216 C217 1.384 . S
C216 H229 0.947 . S
C216 C251 1.382 . S
C217 C216 1.384 . S
C217 C218 1.378 . S
C218 C217 1.378 . S
C218 C219 1.378 . S
C218 H230 0.952 . S
C219 C218 1.378 . S
C219 H231 0.950 . S
C219 C250 1.383 . S
H220 C239 0.947 . S
H221 C240 0.946 . S
H222 C242 0.953 . S
H223 C243 0.945 . S
H224 C245 0.952 . S
H225 C246 0.949 . S
H226 C248 0.950 . S
H227 C249 0.948 . S
H228 C251 0.951 . S
H229 C216 0.947 . S
H230 C218 0.952 . S
H231 C219 0.950 . S
N232 C235 1.382 . S
N232 C237 1.363 . S
N233 C235 1.371 . S
N233 C236 1.372 . S
N234 C236 1.361 . S
N234 C237 1.377 . S
C235 N232 1.382 . S
C235 N233 1.371 . S
C235 C238 1.480 . S
C236 N233 1.372 . S
C236 N234 1.361 . S
C236 C244 1.457 . S
C237 N232 1.363 . S
C237 N234 1.377 . S
C237 C250 1.479 . S
C238 C235 1.480 . S
C238 C239 1.383 . S
C238 C243 1.385 . S
C239 H220 0.947 . S
C239 C238 1.383 . S
C239 C240 1.388 . S
C240 H221 0.946 . S
C240 C239 1.388 . S
C240 C241 1.384 . S
C241 C240 1.384 . S
C241 C242 1.377 . S
C242 H222 0.953 . S
C242 C241 1.377 . S
C242 C243 1.369 . S
C243 H223 0.945 . S
C243 C238 1.385 . S
C243 C242 1.369 . S
C244 C236 1.457 . S
C244 C245 1.372 . S
C244 C249 1.364 . S
C245 H224 0.952 . S
C245 C244 1.372 . S
C245 C246 1.389 . S
C246 H225 0.949 . S
C246 C245 1.389 . S
C246 C247 1.387 . S
C247 C246 1.387 . S
C247 C248 1.372 . S
C248 H226 0.950 . S
C248 C247 1.372 . S
C248 C249 1.379 . S
C249 H227 0.948 . S
C249 C244 1.364 . S
C249 C248 1.379 . S
C250 C219 1.383 . S
C250 C237 1.479 . S
C250 C251 1.398 . S
C251 C216 1.382 . S
C251 H228 0.951 . S
C251 C250 1.398 . S
C252 C253 1.384 . S
C252 H265 0.947 . S
C252 C287 1.382 . S
C253 C252 1.384 . S
C253 C254 1.378 . S
C254 C253 1.378 . S
C254 C255 1.378 . S
C254 H266 0.952 . S
C255 C254 1.378 . S
C255 H267 0.950 . S
C255 C286 1.383 . S
H256 C275 0.947 . S
H257 C276 0.946 . S
H258 C278 0.953 . S
H259 C279 0.945 . S
H260 C281 0.952 . S
H261 C282 0.949 . S
H262 C284 0.950 . S
H263 C285 0.948 . S
H264 C287 0.951 . S
H265 C252 0.947 . S
H266 C254 0.952 . S
H267 C255 0.950 . S
N268 C271 1.382 . S
N268 C273 1.363 . S
N269 C271 1.371 . S
N269 C272 1.372 . S
N270 C272 1.361 . S
N270 C273 1.377 . S
C271 N268 1.382 . S
C271 N269 1.371 . S
C271 C274 1.480 . S
C272 N269 1.372 . S
C272 N270 1.361 . S
C272 C280 1.457 . S
C273 N268 1.363 . S
C273 N270 1.377 . S
C273 C286 1.479 . S
C274 C271 1.480 . S
C274 C275 1.383 . S
C274 C279 1.385 . S
C275 H256 0.947 . S
C275 C274 1.383 . S
C275 C276 1.388 . S
C276 H257 0.946 . S
C276 C275 1.388 . S
C276 C277 1.384 . S
C277 C276 1.384 . S
C277 C278 1.377 . S
C278 H258 0.953 . S
C278 C277 1.377 . S
C278 C279 1.369 . S
C279 H259 0.945 . S
C279 C274 1.385 . S
C279 C278 1.369 . S
C280 C272 1.457 . S
C280 C281 1.372 . S
C280 C285 1.364 . S
C281 H260 0.952 . S
C281 C280 1.372 . S
C281 C282 1.389 . S
C282 H261 0.949 . S
C282 C281 1.389 . S
C282 C283 1.387 . S
C283 C282 1.387 . S
C283 C284 1.372 . S
C284 H262 0.950 . S
C284 C283 1.372 . S
C284 C285 1.379 . S
C285 H263 0.948 . S
C285 C280 1.364 . S
C285 C284 1.379 . S
C286 C255 1.383 . S
C286 C273 1.479 . S
C286 C287 1.398 . S
C287 C252 1.382 . S
C287 H264 0.951 . S
C287 C286 1.398 . S
Dy288 O291 2.307 1_545 S
Dy288 O293 2.395 . S
Dy288 O294 2.379 . S
Dy288 O296 2.339 1_545 S
Dy288 O298 2.271 1_455 S
Dy288 O302 2.275 . S
Dy288 C310 2.738 . S
Dy289 O292 2.298 1_655 S
Dy289 O295 2.275 . S
Dy289 O297 2.307 1_565 S
Dy289 O299 2.395 . S
Dy289 O300 2.379 . S
Dy289 O303 2.339 1_565 S
Dy289 C319 2.738 . S
C290 O302 1.254 . S
C290 O303 1.257 1_455 S
O291 Dy288 2.307 1_565 S
O291 C301 1.266 . S
O292 Dy289 2.298 1_455 S
O292 C301 1.236 . S
O293 Dy288 2.395 . S
O293 C310 1.255 . S
O294 Dy288 2.379 . S
O294 C310 1.249 . S
O295 Dy289 2.275 . S
O295 C311 1.254 . S
O296 Dy288 2.339 1_565 S
O296 C311 1.257 1_455 S
O297 Dy289 2.307 1_545 S
O297 C312 1.266 . S
O298 Dy288 2.271 1_655 S
O298 C312 1.263 . S
O299 Dy289 2.395 . S
O299 C319 1.255 . S
O300 Dy289 2.379 . S
O300 C319 1.249 . S
C301 O291 1.266 . S
C301 O292 1.236 . S
O302 Dy288 2.275 . S
O302 C290 1.254 . S
O303 Dy289 2.339 1_545 S
O303 C290 1.257 1_655 S
C304 C307 1.344 . S
C304 C308 1.328 . S
C304 C310 1.516 . S
C305 C306 1.304 . S
C305 C309 1.323 . S
C306 C305 1.304 . S
C306 C307 1.371 . S
C306 H320 0.930 . S
C307 C304 1.344 . S
C307 C306 1.371 . S
C307 H321 0.931 . S
C308 C304 1.328 . S
C308 C309 1.433 . S
C308 H322 0.931 . S
C309 C305 1.323 . S
C309 C308 1.433 . S
C309 H323 0.933 . S
C310 Dy288 2.738 . S
C310 O293 1.255 . S
C310 O294 1.249 . S
C310 C304 1.516 . S
C311 O295 1.254 . S
C311 O296 1.257 1_655 S
C312 O297 1.266 . S
C312 O298 1.263 . S
C313 C316 1.344 . S
C313 C317 1.328 . S
C313 C319 1.516 . S
C314 C315 1.304 . S
C314 C318 1.323 . S
C315 C314 1.304 . S
C315 C316 1.371 . S
C315 H324 0.930 . S
C316 C313 1.344 . S
C316 C315 1.371 . S
C316 H325 0.931 . S
C317 C313 1.328 . S
C317 C318 1.433 . S
C317 H326 0.931 . S
C318 C314 1.323 . S
C318 C317 1.433 . S
C318 H327 0.933 . S
C319 Dy289 2.738 . S
C319 O299 1.255 . S
C319 O300 1.249 . S
C319 C313 1.516 . S
H320 C306 0.930 . S
H321 C307 0.931 . S
H322 C308 0.931 . S
H323 C309 0.933 . S
H324 C315 0.930 . S
H325 C316 0.931 . S
H326 C317 0.931 . S
H327 C318 0.933 . S
Dy328 O331 2.307 1_566 S
Dy328 O333 2.395 . S
Dy328 O334 2.379 . S
Dy328 O336 2.339 1_565 S
Dy328 O338 2.298 . S
Dy328 O342 2.275 1_556 S
Dy328 C350 2.738 . S
Dy329 O332 2.298 . S
Dy329 O335 2.275 1_554 S
Dy329 O337 2.307 1_544 S
Dy329 O339 2.395 . S
Dy329 O340 2.379 . S
Dy329 O343 2.339 1_545 S
Dy329 C359 2.738 . S
C330 O342 1.254 . S
C330 O343 1.257 . S
O331 Dy328 2.307 1_544 S
O331 C341 1.266 . S
O332 Dy329 2.298 . S
O332 C341 1.236 . S
O333 Dy328 2.395 . S
O333 C350 1.255 . S
O334 Dy328 2.379 . S
O334 C350 1.249 . S
O335 Dy329 2.275 1_556 S
O335 C351 1.254 . S
O336 Dy328 2.339 1_545 S
O336 C351 1.257 . S
O337 Dy329 2.307 1_566 S
O337 C352 1.266 . S
O338 Dy328 2.298 . S
O338 C352 1.236 . S
O339 Dy329 2.395 . S
O339 C359 1.255 . S
O340 Dy329 2.379 . S
O340 C359 1.249 . S
C341 O331 1.266 . S
C341 O332 1.236 . S
O342 Dy328 2.275 1_554 S
O342 C330 1.254 . S
O343 Dy329 2.339 1_565 S
O343 C330 1.257 . S
C344 C347 1.344 . S
C344 C348 1.328 . S
C344 C350 1.516 . S
C345 C346 1.304 . S
C345 C349 1.323 . S
C346 C345 1.304 . S
C346 C347 1.371 . S
C346 H360 0.930 . S
C347 C344 1.344 . S
C347 C346 1.371 . S
C347 H361 0.931 . S
C348 C344 1.328 . S
C348 C349 1.433 . S
C348 H362 0.931 . S
C349 C345 1.323 . S
C349 C348 1.433 . S
C349 H363 0.933 . S
C350 Dy328 2.738 . S
C350 O333 1.255 . S
C350 O334 1.249 . S
C350 C344 1.516 . S
C351 O335 1.254 . S
C351 O336 1.257 . S
C352 O337 1.266 . S
C352 O338 1.236 . S
C353 C356 1.344 . S
C353 C357 1.328 . S
C353 C359 1.516 . S
C354 C355 1.304 . S
C354 C358 1.323 . S
C355 C354 1.304 . S
C355 C356 1.371 . S
C355 H364 0.930 . S
C356 C353 1.344 . S
C356 C355 1.371 . S
C356 H365 0.931 . S
C357 C353 1.328 . S
C357 C358 1.433 . S
C357 H366 0.931 . S
C358 C354 1.323 . S
C358 C357 1.433 . S
C358 H367 0.933 . S
C359 Dy329 2.738 . S
C359 O339 1.255 . S
C359 O340 1.249 . S
C359 C353 1.516 . S
H360 C346 0.930 . S
H361 C347 0.931 . S
H362 C348 0.931 . S
H363 C349 0.933 . S
H364 C355 0.930 . S
H365 C356 0.931 . S
H366 C357 0.931 . S
H367 C358 0.933 . S
Dy368 O371 2.307 . S
Dy368 O373 2.395 . S
Dy368 O374 2.379 . S
Dy368 O376 2.339 . S
Dy368 O378 2.298 . S
Dy368 O382 2.275 . S
Dy368 C390 2.738 . S
Dy369 O372 2.298 . S
Dy369 O375 2.275 . S
Dy369 O377 2.307 . S
Dy369 O379 2.395 . S
Dy369 O380 2.379 . S
Dy369 O383 2.339 . S
Dy369 C399 2.738 . S
C370 O382 1.254 . S
C370 O383 1.257 . S
O371 Dy368 2.307 . S
O371 C381 1.266 . S
O372 Dy369 2.298 . S
O372 C381 1.236 . S
O373 Dy368 2.395 . S
O373 C390 1.255 . S
O374 Dy368 2.379 . S
O374 C390 1.249 . S
O375 Dy369 2.275 . S
O375 C391 1.254 . S
O376 Dy368 2.339 . S
O376 C391 1.257 . S
O377 Dy369 2.307 . S
O377 C392 1.266 . S
O378 Dy368 2.298 . S
O378 C392 1.236 . S
O379 Dy369 2.395 . S
O379 C399 1.255 . S
O380 Dy369 2.379 . S
O380 C399 1.249 . S
C381 O371 1.266 . S
C381 O372 1.236 . S
O382 Dy368 2.275 . S
O382 C370 1.254 . S
O383 Dy369 2.339 . S
O383 C370 1.257 . S
C384 C387 1.344 . S
C384 C388 1.328 . S
C384 C390 1.516 . S
C385 C386 1.304 . S
C385 C389 1.323 . S
C386 C385 1.304 . S
C386 C387 1.371 . S
C386 H400 0.930 . S
C387 C384 1.344 . S
C387 C386 1.371 . S
C387 H401 0.931 . S
C388 C384 1.328 . S
C388 C389 1.433 . S
C388 H402 0.931 . S
C389 C385 1.323 . S
C389 C388 1.433 . S
C389 H403 0.933 . S
C390 Dy368 2.738 . S
C390 O373 1.255 . S
C390 O374 1.249 . S
C390 C384 1.516 . S
C391 O375 1.254 . S
C391 O376 1.257 . S
C392 O377 1.266 . S
C392 O378 1.236 . S
C393 C396 1.344 . S
C393 C397 1.328 . S
C393 C399 1.516 . S
C394 C395 1.304 . S
C394 C398 1.323 . S
C395 C394 1.304 . S
C395 C396 1.371 . S
C395 H404 0.930 . S
C396 C393 1.344 . S
C396 C395 1.371 . S
C396 H405 0.931 . S
C397 C393 1.328 . S
C397 C398 1.433 . S
C397 H406 0.931 . S
C398 C394 1.323 . S
C398 C397 1.433 . S
C398 H407 0.933 . S
C399 Dy369 2.738 . S
C399 O379 1.255 . S
C399 O380 1.249 . S
C399 C393 1.516 . S
H400 C386 0.930 . S
H401 C387 0.931 . S
H402 C388 0.931 . S
H403 C389 0.933 . S
H404 C395 0.930 . S
H405 C396 0.931 . S
H406 C397 0.931 . S
H407 C398 0.933 . S
Dy408 O411 2.333 1_556 S
Dy408 O413 2.368 1_455 S
Dy408 O414 2.365 1_455 S
Dy408 O416 2.355 . S
Dy408 O418 2.280 1_455 S
Dy408 O422 2.269 1_456 S
Dy408 C430 2.715 1_455 S
Dy409 O412 2.298 . S
Dy409 O415 2.275 1_554 S
Dy409 O417 2.307 1_455 S
Dy409 O419 2.395 . S
Dy409 O420 2.379 . S
Dy409 O423 2.339 1_455 S
Dy409 C439 2.738 . S
C410 O422 1.254 . S
C410 O423 1.257 . S
O411 Dy408 2.333 1_554 S
O411 C421 1.266 . S
O412 Dy409 2.298 . S
O412 C421 1.236 . S
O413 Dy408 2.368 1_655 S
O413 C430 1.255 . S
O414 Dy408 2.365 1_655 S
O414 C430 1.249 . S
O415 Dy409 2.275 1_556 S
O415 C431 1.254 . S
O416 Dy408 2.355 . S
O416 C431 1.257 . S
O417 Dy409 2.307 1_655 S
O417 C432 1.266 1_554 S
O418 Dy408 2.280 1_655 S
O418 C432 1.236 . S
O419 Dy409 2.395 . S
O419 C439 1.255 . S
O420 Dy409 2.379 . S
O420 C439 1.249 . S
C421 O411 1.266 . S
C421 O412 1.236 . S
O422 Dy408 2.269 1_654 S
O422 C410 1.254 . S
O423 Dy409 2.339 1_655 S
O423 C410 1.257 . S
C424 C427 1.344 . S
C424 C428 1.328 . S
C424 C430 1.516 . S
C425 C426 1.304 . S
C425 C429 1.323 . S
C426 C425 1.304 . S
C426 C427 1.371 . S
C426 H440 0.930 . S
C427 C424 1.344 . S
C427 C426 1.371 . S
C427 H441 0.931 . S
C428 C424 1.328 . S
C428 C429 1.433 . S
C428 H442 0.931 . S
C429 C425 1.323 . S
C429 C428 1.433 . S
C429 H443 0.933 . S
C430 Dy408 2.715 1_655 S
C430 O413 1.255 . S
C430 O414 1.249 . S
C430 C424 1.516 . S
C431 O415 1.254 . S
C431 O416 1.257 . S
C432 O417 1.266 1_556 S
C432 O418 1.236 . S
C433 C436 1.344 . S
C433 C437 1.328 . S
C433 C439 1.516 . S
C434 C435 1.304 . S
C434 C438 1.323 . S
C435 C434 1.304 . S
C435 C436 1.371 . S
C435 H444 0.930 . S
C436 C433 1.344 . S
C436 C435 1.371 . S
C436 H445 0.931 . S
C437 C433 1.328 . S
C437 C438 1.433 . S
C437 H446 0.931 . S
C438 C434 1.323 . S
C438 C437 1.433 . S
C438 H447 0.933 . S
C439 Dy409 2.738 . S
C439 O419 1.255 . S
C439 O420 1.249 . S
C439 C433 1.516 . S
H440 C426 0.930 . S
H441 C427 0.931 . S
H442 C428 0.931 . S
H443 C429 0.933 . S
H444 C435 0.930 . S
H445 C436 0.931 . S
H446 C437 0.931 . S
H447 C438 0.933 . S
H448 C456 0.950 . S
H449 C461 0.950 . S
H450 C458 0.950 . S
H451 C460 0.950 . S
H452 C462 0.950 . S
H453 C464 0.950 . S
H454 C466 0.950 . S
H455 C467 0.950 . S
C456 H448 0.950 . S
C456 C457 1.386 . S
C456 C458 1.391 . S
C457 C456 1.386 . S
C457 C461 1.393 . S
C458 H450 0.950 . S
C458 C456 1.391 . S
C458 C459 1.400 . S
C459 C458 1.400 . S
C459 C460 1.398 . S
C459 C465 1.491 . S
C460 H451 0.950 . S
C460 C459 1.398 . S
C460 C461 1.391 . S
C461 H449 0.950 . S
C461 C457 1.393 . S
C461 C460 1.391 . S
C462 H452 0.950 . S
C462 C463 1.386 . S
C462 C464 1.391 . S
C463 C462 1.386 . S
C463 C467 1.393 . S
C464 H453 0.950 . S
C464 C462 1.391 . S
C464 C465 1.400 . S
C465 C459 1.491 . S
C465 C464 1.400 . S
C465 C466 1.398 . S
C466 H454 0.950 . S
C466 C465 1.398 . S
C466 C467 1.391 . S
C467 H455 0.950 . S
C467 C463 1.393 . S
C467 C466 1.391 . S
H468 C476 0.950 . S
H469 C481 0.950 . S
H470 C478 0.950 . S
H471 C480 0.950 . S
H472 C482 0.950 . S
H473 C484 0.950 . S
H474 C486 0.950 . S
H475 C487 0.950 . S
C476 H468 0.950 . S
C476 C477 1.386 . S
C476 C478 1.391 . S
C477 C476 1.386 . S
C477 C481 1.393 . S
C478 H470 0.950 . S
C478 C476 1.391 . S
C478 C479 1.400 . S
C479 C478 1.400 . S
C479 C480 1.398 . S
C479 C485 1.491 . S
C480 H471 0.950 . S
C480 C479 1.398 . S
C480 C481 1.391 . S
C481 H469 0.950 . S
C481 C477 1.393 . S
C481 C480 1.391 . S
C482 H472 0.950 . S
C482 C483 1.386 . S
C482 C484 1.391 . S
C483 C482 1.386 . S
C483 C487 1.393 . S
C484 H473 0.950 . S
C484 C482 1.391 . S
C484 C485 1.400 . S
C485 C479 1.491 . S
C485 C484 1.400 . S
C485 C486 1.398 . S
C486 H474 0.950 . S
C486 C485 1.398 . S
C486 C487 1.391 . S
C487 H475 0.950 . S
C487 C483 1.393 . S
C487 C486 1.391 . S
H488 C496 0.950 . S
H489 C501 0.950 . S
H490 C498 0.950 . S
H491 C500 0.950 . S
H492 C502 0.950 . S
H493 C504 0.950 . S
H494 C506 0.950 . S
H495 C507 0.950 . S
C496 H488 0.950 . S
C496 C497 1.386 . S
C496 C498 1.391 . S
C497 C496 1.386 . S
C497 C501 1.393 . S
C498 H490 0.950 . S
C498 C496 1.391 . S
C498 C499 1.400 . S
C499 C498 1.400 . S
C499 C500 1.398 . S
C499 C505 1.491 . S
C500 H491 0.950 . S
C500 C499 1.398 . S
C500 C501 1.391 . S
C501 H489 0.950 . S
C501 C497 1.393 . S
C501 C500 1.391 . S
C502 H492 0.950 . S
C502 C503 1.386 . S
C502 C504 1.391 . S
C503 C502 1.386 . S
C503 C507 1.393 . S
C504 H493 0.950 . S
C504 C502 1.391 . S
C504 C505 1.400 . S
C505 C499 1.491 . S
C505 C504 1.400 . S
C505 C506 1.398 . S
C506 H494 0.950 . S
C506 C505 1.398 . S
C506 C507 1.391 . S
C507 H495 0.950 . S
C507 C503 1.393 . S
C507 C506 1.391 . S
H508 C516 0.950 . S
H509 C521 0.950 . S
H510 C518 0.950 . S
H511 C520 0.950 . S
H512 C522 0.950 . S
H513 C524 0.950 . S
H514 C526 0.950 . S
H515 C527 0.955 . S
C516 H508 0.950 . S
C516 C517 1.386 . S
C516 C518 1.391 . S
C517 C516 1.386 . S
C517 C521 1.393 . S
C518 H510 0.950 . S
C518 C516 1.391 . S
C518 C519 1.400 . S
C519 C518 1.400 . S
C519 C520 1.398 . S
C519 C525 1.491 . S
C520 H511 0.950 . S
C520 C519 1.398 . S
C520 C521 1.391 . S
C521 H509 0.950 . S
C521 C517 1.393 . S
C521 C520 1.391 . S
C522 H512 0.950 . S
C522 C523 1.386 . S
C522 C524 1.391 . S
C523 C522 1.386 . S
C523 C527 1.393 . S
C524 H513 0.950 . S
C524 C522 1.391 . S
C524 C525 1.400 . S
C525 C519 1.491 . S
C525 C524 1.400 . S
C525 C526 1.398 . S
C526 H514 0.950 . S
C526 C525 1.398 . S
C526 C527 1.391 . S
C527 H515 0.955 . S
C527 C523 1.393 . S
C527 C526 1.391 . S
H528 C536 0.950 . S
H529 C541 0.950 . S
H530 C538 0.950 . S
H531 C540 0.950 . S
H532 C542 0.950 . S
H533 C544 0.950 . S
H534 C546 0.950 . S
H535 C547 0.950 . S
C536 H528 0.950 . S
C536 C537 1.386 . S
C536 C538 1.391 . S
C537 C536 1.386 . S
C537 C541 1.393 . S
C538 H530 0.950 . S
C538 C536 1.391 . S
C538 C539 1.400 . S
C539 C538 1.400 . S
C539 C540 1.398 . S
C539 C545 1.491 . S
C540 H531 0.950 . S
C540 C539 1.398 . S
C540 C541 1.391 . S
C541 H529 0.950 . S
C541 C537 1.393 . S
C541 C540 1.391 . S
C542 H532 0.950 . S
C542 C543 1.386 . S
C542 C544 1.391 . S
C543 C542 1.386 . S
C543 C547 1.393 . S
C544 H533 0.950 . S
C544 C542 1.391 . S
C544 C545 1.400 . S
C545 C539 1.491 . S
C545 C544 1.400 . S
C545 C546 1.398 . S
C546 H534 0.950 . S
C546 C545 1.398 . S
C546 C547 1.391 . S
C547 H535 0.950 . S
C547 C543 1.393 . S
C547 C546 1.391 . S
H548 C556 0.950 . S
H549 C561 0.950 . S
H550 C558 0.950 . S
H551 C560 0.950 . S
H552 C562 0.950 . S
H553 C564 0.950 . S
H554 C566 0.950 . S
H555 C567 0.950 . S
C556 H548 0.950 . S
C556 C557 1.386 . S
C556 C558 1.391 . S
C557 C556 1.386 . S
C557 C561 1.393 . S
C558 H550 0.950 . S
C558 C556 1.391 . S
C558 C559 1.400 . S
C559 C558 1.400 . S
C559 C560 1.398 . S
C559 C565 1.491 . S
C560 H551 0.950 . S
C560 C559 1.398 . S
C560 C561 1.391 . S
C561 H549 0.950 . S
C561 C557 1.393 . S
C561 C560 1.391 . S
C562 H552 0.950 . S
C562 C563 1.386 . S
C562 C564 1.391 . S
C563 C562 1.386 . S
C563 C567 1.393 . S
C564 H553 0.950 . S
C564 C562 1.391 . S
C564 C565 1.400 . S
C565 C559 1.491 . S
C565 C564 1.400 . S
C565 C566 1.398 . S
C566 H554 0.950 . S
C566 C565 1.398 . S
C566 C567 1.391 . S
C567 H555 0.950 . S
C567 C563 1.393 . S
C567 C566 1.391 . S
H568 C576 0.950 . S
H569 C581 0.950 . S
H570 C578 0.950 . S
H571 C580 0.950 . S
H572 C582 0.950 . S
H573 C584 0.950 . S
H574 C586 0.950 . S
H575 C587 0.950 . S
C576 H568 0.950 . S
C576 C577 1.386 . S
C576 C578 1.391 . S
C577 C576 1.386 . S
C577 C581 1.393 . S
C578 H570 0.950 . S
C578 C576 1.391 . S
C578 C579 1.400 . S
C579 C578 1.400 . S
C579 C580 1.398 . S
C579 C585 1.491 . S
C580 H571 0.950 . S
C580 C579 1.398 . S
C580 C581 1.391 . S
C581 H569 0.950 . S
C581 C577 1.393 . S
C581 C580 1.391 . S
C582 H572 0.950 . S
C582 C583 1.386 . S
C582 C584 1.391 . S
C583 C582 1.386 . S
C583 C587 1.393 . S
C584 H573 0.950 . S
C584 C582 1.391 . S
C584 C585 1.400 . S
C585 C579 1.491 . S
C585 C584 1.400 . S
C585 C586 1.398 . S
C586 H574 0.950 . S
C586 C585 1.398 . S
C586 C587 1.391 . S
C587 H575 0.950 . S
C587 C583 1.393 . S
C587 C586 1.391 . S
H588 C596 0.950 . S
H589 C601 0.950 . S
H590 C598 0.950 . S
H591 C600 0.950 . S
H592 C602 0.950 . S
H593 C604 0.950 . S
H594 C606 0.950 . S
H595 C607 0.950 . S
C596 H588 0.950 . S
C596 C597 1.386 . S
C596 C598 1.391 . S
C597 C596 1.386 . S
C597 C601 1.393 . S
C598 H590 0.950 . S
C598 C596 1.391 . S
C598 C599 1.400 . S
C599 C598 1.400 . S
C599 C600 1.398 . S
C599 C605 1.491 . S
C600 H591 0.950 . S
C600 C599 1.398 . S
C600 C601 1.391 . S
C601 H589 0.950 . S
C601 C597 1.393 . S
C601 C600 1.391 . S
C602 H592 0.950 . S
C602 C603 1.386 . S
C602 C604 1.391 . S
C603 C602 1.386 . S
C603 C607 1.393 . S
C604 H593 0.950 . S
C604 C602 1.391 . S
C604 C605 1.400 . S
C605 C599 1.491 . S
C605 C604 1.400 . S
C605 C606 1.398 . S
C606 H594 0.950 . S
C606 C605 1.398 . S
C606 C607 1.391 . S
C607 H595 0.950 . S
C607 C603 1.393 . S
C607 C606 1.391 . S
H608 C616 0.950 . S
H609 C621 0.950 . S
H610 C618 0.950 . S
H611 C620 0.950 . S
H612 C622 0.950 . S
H613 C624 0.950 . S
H614 C626 0.950 . S
H615 C627 0.950 . S
C616 H608 0.950 . S
C616 C617 1.386 . S
C616 C618 1.391 . S
C617 C616 1.386 . S
C617 C621 1.393 . S
C618 H610 0.950 . S
C618 C616 1.391 . S
C618 C619 1.400 . S
C619 C618 1.400 . S
C619 C620 1.398 . S
C619 C625 1.491 . S
C620 H611 0.950 . S
C620 C619 1.398 . S
C620 C621 1.391 . S
C621 H609 0.950 . S
C621 C617 1.393 . S
C621 C620 1.391 . S
C622 H612 0.950 . S
C622 C623 1.386 . S
C622 C624 1.391 . S
C623 C622 1.386 . S
C623 C627 1.393 . S
C624 H613 0.950 . S
C624 C622 1.391 . S
C624 C625 1.400 . S
C625 C619 1.491 . S
C625 C624 1.400 . S
C625 C626 1.398 . S
C626 H614 0.950 . S
C626 C625 1.398 . S
C626 C627 1.391 . S
C627 H615 0.950 . S
C627 C623 1.393 . S
C627 C626 1.391 . S
H628 C636 0.950 . S
H629 C641 0.950 . S
H630 C638 0.950 . S
H631 C640 0.950 . S
H632 C642 0.950 . S
H633 C644 0.950 . S
H634 C646 0.950 . S
H635 C647 0.950 . S
C636 H628 0.950 . S
C636 C637 1.386 . S
C636 C638 1.391 . S
C637 C636 1.386 . S
C637 C641 1.393 . S
C638 H630 0.950 . S
C638 C636 1.391 . S
C638 C639 1.400 . S
C639 C638 1.400 . S
C639 C640 1.398 . S
C639 C645 1.491 . S
C640 H631 0.950 . S
C640 C639 1.398 . S
C640 C641 1.391 . S
C641 H629 0.950 . S
C641 C637 1.393 . S
C641 C640 1.391 . S
C642 H632 0.950 . S
C642 C643 1.386 . S
C642 C644 1.391 . S
C643 C642 1.386 . S
C643 C647 1.393 . S
C644 H633 0.950 . S
C644 C642 1.391 . S
C644 C645 1.400 . S
C645 C639 1.491 . S
C645 C644 1.400 . S
C645 C646 1.398 . S
C646 H634 0.950 . S
C646 C645 1.398 . S
C646 C647 1.391 . S
C647 H635 0.950 . S
C647 C643 1.393 . S
C647 C646 1.391 . S
H648 C656 0.950 . S
H649 C661 0.950 . S
H650 C658 0.950 . S
H651 C660 0.950 . S
H652 C662 0.950 . S
H653 C664 0.950 . S
H654 C666 0.950 . S
H655 C667 0.950 . S
C656 H648 0.950 . S
C656 C657 1.386 . S
C656 C658 1.391 . S
C657 C656 1.386 . S
C657 C661 1.393 . S
C658 H650 0.950 . S
C658 C656 1.391 . S
C658 C659 1.400 . S
C659 C658 1.400 . S
C659 C660 1.398 . S
C659 C665 1.491 . S
C660 H651 0.950 . S
C660 C659 1.398 . S
C660 C661 1.391 . S
C661 H649 0.950 . S
C661 C657 1.393 . S
C661 C660 1.391 . S
C662 H652 0.950 . S
C662 C663 1.386 . S
C662 C664 1.391 . S
C663 C662 1.386 . S
C663 C667 1.393 . S
C664 H653 0.950 . S
C664 C662 1.391 . S
C664 C665 1.400 . S
C665 C659 1.491 . S
C665 C664 1.400 . S
C665 C666 1.398 . S
C666 H654 0.950 . S
C666 C665 1.398 . S
C666 C667 1.391 . S
C667 H655 0.950 . S
C667 C663 1.393 . S
C667 C666 1.391 . S
H668 C676 0.950 . S
H669 C681 0.950 . S
H670 C678 0.950 . S
H671 C680 0.950 . S
H672 C682 0.950 . S
H673 C684 0.950 . S
H674 C686 0.950 . S
H675 C687 0.950 . S
C676 H668 0.950 . S
C676 C677 1.386 . S
C676 C678 1.391 . S
C677 C676 1.386 . S
C677 C681 1.393 . S
C678 H670 0.950 . S
C678 C676 1.391 . S
C678 C679 1.400 . S
C679 C678 1.400 . S
C679 C680 1.398 . S
C679 C685 1.491 . S
C680 H671 0.950 . S
C680 C679 1.398 . S
C680 C681 1.391 . S
C681 H669 0.950 . S
C681 C677 1.393 . S
C681 C680 1.391 . S
C682 H672 0.950 . S
C682 C683 1.386 . S
C682 C684 1.391 . S
C683 C682 1.386 . S
C683 C687 1.393 . S
C684 H673 0.950 . S
C684 C682 1.391 . S
C684 C685 1.400 . S
C685 C679 1.491 . S
C685 C684 1.400 . S
C685 C686 1.398 . S
C686 H674 0.950 . S
C686 C685 1.398 . S
C686 C687 1.391 . S
C687 H675 0.950 . S
C687 C683 1.393 . S
C687 C686 1.391 . S
H688 C696 0.950 . S
H689 C701 0.950 . S
H690 C698 0.950 . S
H691 C700 0.950 . S
H692 C702 0.950 . S
H693 C704 0.950 . S
H694 C706 0.950 . S
H695 C707 0.950 . S
C696 H688 0.950 . S
C696 C697 1.386 . S
C696 C698 1.391 . S
C697 C696 1.386 . S
C697 C701 1.393 . S
C698 H690 0.950 . S
C698 C696 1.391 . S
C698 C699 1.400 . S
C699 C698 1.400 . S
C699 C700 1.398 . S
C699 C705 1.491 . S
C700 H691 0.950 . S
C700 C699 1.398 . S
C700 C701 1.391 . S
C701 H689 0.950 . S
C701 C697 1.393 . S
C701 C700 1.391 . S
C702 H692 0.950 . S
C702 C703 1.386 . S
C702 C704 1.391 . S
C703 C702 1.386 . S
C703 C707 1.393 . S
C704 H693 0.950 . S
C704 C702 1.391 . S
C704 C705 1.400 . S
C705 C699 1.491 . S
C705 C704 1.400 . S
C705 C706 1.398 . S
C706 H694 0.950 . S
C706 C705 1.398 . S
C706 C707 1.391 . S
C707 H695 0.950 . S
C707 C703 1.393 . S
C707 C706 1.391 . S
H708 C716 0.950 . S
H709 C721 0.950 . S
H710 C718 0.950 . S
H711 C720 0.950 . S
H712 C722 0.950 . S
H713 C724 0.950 . S
H714 C726 0.950 . S
H715 C727 0.950 . S
C716 H708 0.950 . S
C716 C717 1.386 . S
C716 C718 1.391 . S
C717 C716 1.386 . S
C717 C721 1.393 . S
C718 H710 0.950 . S
C718 C716 1.391 . S
C718 C719 1.400 . S
C719 C718 1.400 . S
C719 C720 1.398 . S
C719 C725 1.491 . S
C720 H711 0.950 . S
C720 C719 1.398 . S
C720 C721 1.391 . S
C721 H709 0.950 . S
C721 C717 1.393 . S
C721 C720 1.391 . S
C722 H712 0.950 . S
C722 C723 1.386 . S
C722 C724 1.391 . S
C723 C722 1.386 . S
C723 C727 1.393 . S
C724 H713 0.950 . S
C724 C722 1.391 . S
C724 C725 1.400 . S
C725 C719 1.491 . S
C725 C724 1.400 . S
C725 C726 1.398 . S
C726 H714 0.950 . S
C726 C725 1.398 . S
C726 C727 1.391 . S
C727 H715 0.950 . S
C727 C723 1.393 . S
C727 C726 1.391 . S
H728 C736 0.950 . S
H729 C741 0.950 . S
H730 C738 0.950 . S
H731 C740 0.950 . S
H732 C742 0.950 . S
H733 C744 0.950 . S
H734 C746 0.950 . S
H735 C747 0.950 . S
C736 H728 0.950 . S
C736 C737 1.386 . S
C736 C738 1.391 . S
C737 C736 1.386 . S
C737 C741 1.393 . S
C738 H730 0.950 . S
C738 C736 1.391 . S
C738 C739 1.400 . S
C739 C738 1.400 . S
C739 C740 1.398 . S
C739 C745 1.491 . S
C740 H731 0.950 . S
C740 C739 1.398 . S
C740 C741 1.391 . S
C741 H729 0.950 . S
C741 C737 1.393 . S
C741 C740 1.391 . S
C742 H732 0.950 . S
C742 C743 1.386 . S
C742 C744 1.391 . S
C743 C742 1.386 . S
C743 C747 1.393 . S
C744 H733 0.950 . S
C744 C742 1.391 . S
C744 C745 1.400 . S
C745 C739 1.491 . S
C745 C744 1.400 . S
C745 C746 1.398 . S
C746 H734 0.950 . S
C746 C745 1.398 . S
C746 C747 1.391 . S
C747 H735 0.950 . S
C747 C743 1.393 . S
C747 C746 1.391 . S
H748 C756 0.950 . S
H749 C761 0.950 . S
H750 C758 0.950 . S
H751 C760 0.950 . S
H752 C762 0.950 . S
H753 C764 0.950 . S
H754 C766 0.950 . S
H755 C767 0.950 . S
C756 H748 0.950 . S
C756 C757 1.386 . S
C756 C758 1.391 . S
C757 C756 1.386 . S
C757 C761 1.393 . S
C758 H750 0.950 . S
C758 C756 1.391 . S
C758 C759 1.400 . S
C759 C758 1.400 . S
C759 C760 1.398 . S
C759 C765 1.491 . S
C760 H751 0.950 . S
C760 C759 1.398 . S
C760 C761 1.391 . S
C761 H749 0.950 . S
C761 C757 1.393 . S
C761 C760 1.391 . S
C762 H752 0.950 . S
C762 C763 1.386 . S
C762 C764 1.391 . S
C763 C762 1.386 . S
C763 C767 1.393 . S
C764 H753 0.950 . S
C764 C762 1.391 . S
C764 C765 1.400 . S
C765 C759 1.491 . S
C765 C764 1.400 . S
C765 C766 1.398 . S
C766 H754 0.950 . S
C766 C765 1.398 . S
C766 C767 1.391 . S
C767 H755 0.950 . S
C767 C763 1.393 . S
C767 C766 1.391 . S
H768 C776 0.950 . S
H769 C781 0.950 . S
H770 C778 0.950 . S
H771 C780 0.950 . S
H772 C782 0.950 . S
H773 C784 0.950 . S
H774 C786 0.950 . S
H775 C787 0.950 . S
C776 H768 0.950 . S
C776 C777 1.386 . S
C776 C778 1.391 . S
C777 C776 1.386 . S
C777 C781 1.393 . S
C778 H770 0.950 . S
C778 C776 1.391 . S
C778 C779 1.400 . S
C779 C778 1.400 . S
C779 C780 1.398 . S
C779 C785 1.491 . S
C780 H771 0.950 . S
C780 C779 1.398 . S
C780 C781 1.391 . S
C781 H769 0.950 . S
C781 C777 1.393 . S
C781 C780 1.391 . S
C782 H772 0.950 . S
C782 C783 1.386 . S
C782 C784 1.391 . S
C783 C782 1.386 . S
C783 C787 1.393 . S
C784 H773 0.950 . S
C784 C782 1.391 . S
C784 C785 1.400 . S
C785 C779 1.491 . S
C785 C784 1.400 . S
C785 C786 1.398 . S
C786 H774 0.950 . S
C786 C785 1.398 . S
C786 C787 1.391 . S
C787 H775 0.950 . S
C787 C783 1.393 . S
C787 C786 1.391 . S
H788 C796 0.950 . S
H789 C801 0.950 . S
H790 C798 0.950 . S
H791 C800 0.950 . S
H792 C802 0.950 . S
H793 C804 0.950 . S
H794 C806 0.950 . S
H795 C807 0.950 . S
C796 H788 0.950 . S
C796 C797 1.386 . S
C796 C798 1.391 . S
C797 C796 1.386 . S
C797 C801 1.393 . S
C798 H790 0.950 . S
C798 C796 1.391 . S
C798 C799 1.400 . S
C799 C798 1.400 . S
C799 C800 1.398 . S
C799 C805 1.491 . S
C800 H791 0.950 . S
C800 C799 1.398 . S
C800 C801 1.391 . S
C801 H789 0.950 . S
C801 C797 1.393 . S
C801 C800 1.391 . S
C802 H792 0.950 . S
C802 C803 1.386 . S
C802 C804 1.391 . S
C803 C802 1.386 . S
C803 C807 1.393 . S
C804 H793 0.950 . S
C804 C802 1.391 . S
C804 C805 1.400 . S
C805 C799 1.491 . S
C805 C804 1.400 . S
C805 C806 1.398 . S
C806 H794 0.950 . S
C806 C805 1.398 . S
C806 C807 1.391 . S
C807 H795 0.950 . S
C807 C803 1.393 . S
C807 C806 1.391 . S
H808 C816 0.950 . S
H809 C821 0.950 . S
H810 C818 0.950 . S
H811 C820 0.950 . S
H812 C822 0.950 . S
H813 C824 0.950 . S
H814 C826 0.950 . S
H815 C827 0.950 . S
C816 H808 0.950 . S
C816 C817 1.386 . S
C816 C818 1.391 . S
C817 C816 1.386 . S
C817 C821 1.393 . S
C818 H810 0.950 . S
C818 C816 1.391 . S
C818 C819 1.400 . S
C819 C818 1.400 . S
C819 C820 1.398 . S
C819 C825 1.491 . S
C820 H811 0.950 . S
C820 C819 1.398 . S
C820 C821 1.391 . S
C821 H809 0.950 . S
C821 C817 1.393 . S
C821 C820 1.391 . S
C822 H812 0.950 . S
C822 C823 1.386 . S
C822 C824 1.391 . S
C823 C822 1.386 . S
C823 C827 1.393 . S
C824 H813 0.950 . S
C824 C822 1.391 . S
C824 C825 1.400 . S
C825 C819 1.491 . S
C825 C824 1.400 . S
C825 C826 1.398 . S
C826 H814 0.950 . S
C826 C825 1.398 . S
C826 C827 1.391 . S
C827 H815 0.950 . S
C827 C823 1.393 . S
C827 C826 1.391 . S
H828 C836 0.950 . S
H829 C841 0.950 . S
H830 C838 0.950 . S
H831 C840 0.950 . S
H832 C842 0.950 . S
H833 C844 0.950 . S
H834 C846 0.950 . S
H835 C847 0.950 . S
C836 H828 0.950 . S
C836 C837 1.386 . S
C836 C838 1.391 . S
C837 C836 1.386 . S
C837 C841 1.393 . S
C838 H830 0.950 . S
C838 C836 1.391 . S
C838 C839 1.400 . S
C839 C838 1.400 . S
C839 C840 1.398 . S
C839 C845 1.491 . S
C840 H831 0.950 . S
C840 C839 1.398 . S
C840 C841 1.391 . S
C841 H829 0.950 . S
C841 C837 1.393 . S
C841 C840 1.391 . S
C842 H832 0.950 . S
C842 C843 1.386 . S
C842 C844 1.391 . S
C843 C842 1.386 . S
C843 C847 1.393 . S
C844 H833 0.950 . S
C844 C842 1.391 . S
C844 C845 1.400 . S
C845 C839 1.491 . S
C845 C844 1.400 . S
C845 C846 1.398 . S
C846 H834 0.950 . S
C846 C845 1.398 . S
C846 C847 1.391 . S
C847 H835 0.950 . S
C847 C843 1.393 . S
C847 C846 1.391 . S
H848 C856 0.950 . S
H849 C861 0.950 . S
H850 C858 0.950 . S
H851 C860 0.950 . S
H852 C862 0.950 . S
H853 C864 0.950 . S
H854 C866 0.950 . S
H855 C867 0.950 . S
C856 H848 0.950 . S
C856 C857 1.386 . S
C856 C858 1.391 . S
C857 C856 1.386 . S
C857 C861 1.393 . S
C858 H850 0.950 . S
C858 C856 1.391 . S
C858 C859 1.400 . S
C859 C858 1.400 . S
C859 C860 1.398 . S
C859 C865 1.491 . S
C860 H851 0.950 . S
C860 C859 1.398 . S
C860 C861 1.391 . S
C861 H849 0.950 . S
C861 C857 1.393 . S
C861 C860 1.391 . S
C862 H852 0.950 . S
C862 C863 1.386 . S
C862 C864 1.391 . S
C863 C862 1.386 . S
C863 C867 1.393 . S
C864 H853 0.950 . S
C864 C862 1.391 . S
C864 C865 1.400 . S
C865 C859 1.491 . S
C865 C864 1.400 . S
C865 C866 1.398 . S
C866 H854 0.950 . S
C866 C865 1.398 . S
C866 C867 1.391 . S
C867 H855 0.950 . S
C867 C863 1.393 . S
C867 C866 1.391 . S
H868 C876 0.950 . S
H869 C881 0.950 . S
H870 C878 0.950 . S
H871 C880 0.950 . S
H872 C882 0.950 . S
H873 C884 0.950 . S
H874 C886 0.950 . S
H875 C887 0.950 . S
C876 H868 0.950 . S
C876 C877 1.386 . S
C876 C878 1.391 . S
C877 C876 1.386 . S
C877 C881 1.393 . S
C878 H870 0.950 . S
C878 C876 1.391 . S
C878 C879 1.400 . S
C879 C878 1.400 . S
C879 C880 1.398 . S
C879 C885 1.491 . S
C880 H871 0.950 . S
C880 C879 1.398 . S
C880 C881 1.391 . S
C881 H869 0.950 . S
C881 C877 1.393 . S
C881 C880 1.391 . S
C882 H872 0.950 . S
C882 C883 1.386 . S
C882 C884 1.391 . S
C883 C882 1.386 . S
C883 C887 1.393 . S
C884 H873 0.950 . S
C884 C882 1.391 . S
C884 C885 1.400 . S
C885 C879 1.491 . S
C885 C884 1.400 . S
C885 C886 1.398 . S
C886 H874 0.950 . S
C886 C885 1.398 . S
C886 C887 1.391 . S
C887 H875 0.950 . S
C887 C883 1.393 . S
C887 C886 1.391 . S
H888 C896 0.950 . S
H889 C901 0.950 . S
H890 C898 0.950 . S
H891 C900 0.950 . S
H892 C902 0.950 1_655 S
H893 C904 0.950 . S
H894 C906 0.950 . S
H895 C907 0.950 . S
C896 H888 0.950 . S
C896 C897 1.386 . S
C896 C898 1.391 . S
C897 C896 1.386 . S
C897 C901 1.393 . S
C898 H890 0.950 . S
C898 C896 1.391 . S
C898 C899 1.400 . S
C899 C898 1.400 . S
C899 C900 1.398 . S
C899 C905 1.491 . S
C900 H891 0.950 . S
C900 C899 1.398 . S
C900 C901 1.391 . S
C901 H889 0.950 . S
C901 C897 1.393 . S
C901 C900 1.391 . S
C902 H892 0.950 1_455 S
C902 C903 1.386 . S
C902 C904 1.391 . S
C903 C902 1.386 . S
C903 C907 1.393 . S
C904 H893 0.950 . S
C904 C902 1.391 . S
C904 C905 1.400 . S
C905 C899 1.491 . S
C905 C904 1.400 . S
C905 C906 1.398 . S
C906 H894 0.950 . S
C906 C905 1.398 . S
C906 C907 1.391 . S
C907 H895 0.950 . S
C907 C903 1.393 . S
C907 C906 1.391 . S
H908 C916 0.950 . S
H909 C921 0.950 . S
H910 C918 0.950 . S
H911 C920 0.950 . S
H912 C922 0.950 . S
H913 C924 0.950 . S
H914 C926 0.950 . S
H915 C927 0.950 . S
C916 H908 0.950 . S
C916 C917 1.386 . S
C916 C918 1.391 . S
C917 C916 1.386 . S
C917 C921 1.393 . S
C918 H910 0.950 . S
C918 C916 1.391 . S
C918 C919 1.400 . S
C919 C918 1.400 . S
C919 C920 1.398 . S
C919 C925 1.491 . S
C920 H911 0.950 . S
C920 C919 1.398 . S
C920 C921 1.391 . S
C921 H909 0.950 . S
C921 C917 1.393 . S
C921 C920 1.391 . S
C922 H912 0.950 . S
C922 C923 1.386 . S
C922 C924 1.391 . S
C923 C922 1.386 . S
C923 C927 1.393 . S
C924 H913 0.950 . S
C924 C922 1.391 . S
C924 C925 1.400 . S
C925 C919 1.491 . S
C925 C924 1.400 . S
C925 C926 1.398 . S
C926 H914 0.950 . S
C926 C925 1.398 . S
C926 C927 1.391 . S
C927 H915 0.950 . S
C927 C923 1.393 . S
C927 C926 1.391 . S
C457 C1 1.229 . S
C463 C305 1.238 . S
C477 C67 1.222 . S
C483 C345 1.232 . S
C503 C370 2.367 . S
C497 C97 2.409 . S
C517 C133 2.445 . S
C523 C410 2.389 . S
C543 C341 1.817 . S
C537 C25 1.777 . S
C563 C301 1.808 . S
C557 C37 1.767 . S
C583 C432 1.682 . S
C577 C103 1.687 . S
C603 C392 1.674 . S
C597 C109 1.695 . S
C617 C31 1.381 . S
C623 C434 1.396 . S
C643 C351 2.123 . S
C637 C73 2.168 . S
C657 C139 2.195 . S
C663 C311 2.163 . S
C677 C61 1.379 . S
C683 C394 1.396 . S
C703 C314 1.220 . S
C697 C175 1.159 . S
C717 C181 1.199 . S
C723 C354 1.215 . S
C737 C247 2.441 . S
C743 C391 2.377 . S
C757 C277 2.428 . S
C763 C431 2.373 . S
C777 C145 1.713 . S
C783 C352 1.806 . S
C803 C312 1.808 . S
C797 C211 1.752 . S
C823 C421 1.668 . S
C817 C217 1.674 . S
C843 C381 1.695 . S
C837 C283 1.706 . S
C857 C169 1.305 . S
C863 C425 1.377 . S
C883 C330 2.150 . S
C877 C241 2.190 . S
C903 C290 2.149 . S
C897 C253 2.190 . S
C917 C205 1.396 . S
C923 C385 1.400 . S
