# Generated by pormake.
# Topology anh, (6,3)-cn, num edge types: 1
# Building blocks:
#     Node 0, Type 0, BuildingBlock: BETGAK_clean_sbu_0, # of connection points: 6
#     Node 1, Type 0, BuildingBlock: BETGAK_clean_sbu_0, # of connection points: 6
#     Node 2, Type 0, BuildingBlock: BETGAK_clean_sbu_0, # of connection points: 6
#     Node 3, Type 1, BuildingBlock: CUQRIR_clean_linker_1, # of connection points: 3
#     Node 4, Type 1, BuildingBlock: CUQRIR_clean_linker_1, # of connection points: 3
#     Node 5, Type 1, BuildingBlock: CUQRIR_clean_linker_1, # of connection points: 3
#     Node 6, Type 1, BuildingBlock: CUQRIR_clean_linker_1, # of connection points: 3
#     Node 7, Type 1, BuildingBlock: CUQRIR_clean_linker_1, # of connection points: 3
#     Node 8, Type 1, BuildingBlock: CUQRIR_clean_linker_1, # of connection points: 3
#     Edge 9, Type (0, 1), BuildingBlock: EZIPEK_clean_linker_0, # of connection points: 2
#     Edge 10, Type (0, 1), BuildingBlock: EZIPEK_clean_linker_0, # of connection points: 2
#     Edge 11, Type (0, 1), BuildingBlock: EZIPEK_clean_linker_0, # of connection points: 2
#     Edge 12, Type (0, 1), BuildingBlock: EZIPEK_clean_linker_0, # of connection points: 2
#     Edge 13, Type (0, 1), BuildingBlock: EZIPEK_clean_linker_0, # of connection points: 2
#     Edge 14, Type (0, 1), BuildingBlock: EZIPEK_clean_linker_0, # of connection points: 2
#     Edge 15, Type (0, 1), BuildingBlock: EZIPEK_clean_linker_0, # of connection points: 2
#     Edge 16, Type (0, 1), BuildingBlock: EZIPEK_clean_linker_0, # of connection points: 2
#     Edge 17, Type (0, 1), BuildingBlock: EZIPEK_clean_linker_0, # of connection points: 2
#     Edge 18, Type (0, 1), BuildingBlock: EZIPEK_clean_linker_0, # of connection points: 2
#     Edge 19, Type (0, 1), BuildingBlock: EZIPEK_clean_linker_0, # of connection points: 2
#     Edge 20, Type (0, 1), BuildingBlock: EZIPEK_clean_linker_0, # of connection points: 2
#     Edge 21, Type (0, 1), BuildingBlock: EZIPEK_clean_linker_0, # of connection points: 2
#     Edge 22, Type (0, 1), BuildingBlock: EZIPEK_clean_linker_0, # of connection points: 2
#     Edge 23, Type (0, 1), BuildingBlock: EZIPEK_clean_linker_0, # of connection points: 2
#     Edge 24, Type (0, 1), BuildingBlock: EZIPEK_clean_linker_0, # of connection points: 2
#     Edge 25, Type (0, 1), BuildingBlock: EZIPEK_clean_linker_0, # of connection points: 2
#     Edge 26, Type (0, 1), BuildingBlock: EZIPEK_clean_linker_0, # of connection points: 2
# Relax obj value: 0.284
# Max RMSD: 0.228
# Mean RMSD: 0.174
data_MOF--net-anh--node1-BETGAK_clean_sbu_0--node2-CUQRIR_clean_linker_1--edge1-EZIPEK_clean_linker_0
_symmetry_space_group_name_H-M    P1
_symmetry_Int_Tables_number       1
_symmetry_cell_setting            triclinic
loop_
_symmetry_equiv_pos_as_xyz
'x, y, z'
_cell_length_a     19.763009
_cell_length_b     26.221453
_cell_length_c     32.979787
_cell_angle_alpha  86.293773
_cell_angle_beta   89.791021
_cell_angle_gamma 133.17432
loop_
_atom_site_label
_atom_site_type_symbol
_atom_site_fract_x
_atom_site_fract_y
_atom_site_fract_z
_atom_type_partial_charge
La0 La 0.33401 0.5311 0.18023 0.0
La1 La 0.21368 0.55268 0.16686 0.0
C2 C 0.42045 0.4942 0.17408 0.0
C3 C 0.37045 0.41894 0.17523 0.0
C4 C 0.29729 0.3755 0.14975 0.0
C5 C 0.24248 0.3033 0.15312 0.0
C6 C 0.26142 0.27155 0.18079 0.0
C7 C 0.33099 0.3151 0.20836 0.0
C8 C 0.38466 0.38766 0.20549 0.0
C9 C 0.25442 0.52126 0.24982 0.0
C10 C 0.42798 0.68742 0.17862 0.0
C11 C 1.12166 0.58513 0.15391 0.0
C12 C 1.04679 0.5547 0.12616 0.0
C13 C 0.96617 0.53896 0.1388 0.0
C14 C 0.88754 0.49676 0.11637 0.0
C15 C 0.88883 0.4699 0.08111 0.0
C16 C 0.97035 0.48782 0.0678 0.0
C17 C 1.04955 0.53122 0.08953 0.0
C18 C 0.25301 0.52123 0.1004 0.0
C19 C 1.12039 0.39918 0.1853 0.0
O20 O 0.40743 0.51905 0.14255 0.0
O21 O 0.41384 0.51398 0.20801 0.0
O22 O 0.26724 0.48109 0.24111 0.0
O23 O 0.28474 0.56464 0.21928 0.0
O24 O 0.44386 0.6457 0.18163 0.0
O25 O 0.34311 0.66121 0.17347 0.0
O26 O 0.20354 0.61944 0.13617 0.0
O27 O 1.10257 0.54261 0.18512 0.0
O28 O 1.17154 0.49297 0.11368 0.0
O29 O 0.30772 0.56276 0.12592 0.0
O30 O 1.11077 0.44273 0.19325 0.0
O31 O 0.20169 0.42556 0.17043 0.0
H32 H 0.28174 0.39708 0.12679 0.0
H33 H 0.18905 0.27388 0.1318 0.0
H34 H 0.34819 0.29477 0.23114 0.0
H35 H 0.43788 0.41942 0.22675 0.0
H36 H 0.96214 0.55545 0.16727 0.0
H37 H 0.82364 0.48026 0.12852 0.0
H38 H 0.96991 0.46374 0.04237 0.0
H39 H 1.1109 0.54261 0.07893 0.0
La40 La 0.91406 0.14474 0.49028 0.0
La41 La 0.78001 0.1588 0.47397 0.0
C42 C 0.99186 0.11068 0.52651 0.0
C43 C 0.96247 0.04425 0.54352 0.0
C44 C 1.01287 1.02735 0.53158 0.0
C45 C 0.98392 0.96335 0.54599 0.0
C46 C 0.9043 0.91549 0.57262 0.0
C47 C 0.85505 0.93289 0.5855 0.0
C48 C 0.88392 0.99687 0.57107 0.0
C49 C 0.90321 0.16539 0.41203 0.0
C50 C 0.70035 1.00711 0.47679 0.0
C51 C 0.69567 0.19505 0.45113 0.0
C52 C 0.69621 0.24543 0.46842 0.0
C53 C 0.72454 0.26358 0.50807 0.0
C54 C 0.72908 0.31321 0.52469 0.0
C55 C 0.70624 0.346 0.50182 0.0
C56 C 0.67795 0.32814 0.4621 0.0
C57 C 0.67271 0.27776 0.44547 0.0
C58 C 0.79514 0.1395 0.55206 0.0
C59 C 0.99789 0.29728 0.47461 0.0
O60 O 0.99488 0.11976 0.48681 0.0
O61 O 0.9553 0.13058 0.54483 0.0
O62 O 0.97859 0.18902 0.42868 0.0
O63 O 0.83661 0.12848 0.43892 0.0
O64 O 0.78 1.03332 0.49194 0.0
O65 O 0.69002 0.04962 0.46265 0.0
O66 O 0.65741 0.13864 0.47525 0.0
O67 O 0.77512 0.222 0.43403 0.0
O68 O 0.72025 0.11784 0.53684 0.0
O69 O 0.8591 0.1764 0.52442 0.0
O70 O 0.91437 0.26838 0.46374 0.0
O71 O 1.01312 0.25847 0.49029 0.0
H72 H 1.07376 0.06319 0.51056 0.0
H73 H 1.02233 0.95039 0.53566 0.0
H74 H 0.79317 0.89625 0.60589 0.0
H75 H 0.84389 1.00863 0.581 0.0
H76 H 0.74425 0.23989 0.52605 0.0
H77 H 0.75195 0.32699 0.55521 0.0
H78 H 0.66105 0.35369 0.44398 0.0
H79 H 0.65161 0.26476 0.4147 0.0
La80 La 0.78038 0.67243 0.88192 0.0
La81 La 0.636 0.5188 0.87685 0.0
C82 C 0.88031 0.80212 0.8652 0.0
C83 C 0.86364 0.84287 0.84302 0.0
C84 C 0.90352 0.90807 0.85546 0.0
C85 C 0.88523 0.94595 0.83565 0.0
C86 C 0.82699 0.91916 0.80308 0.0
C87 C 0.78863 0.85461 0.78997 0.0
C88 C 0.80626 0.81641 0.81001 0.0
C89 C 0.71154 0.59462 0.95279 0.0
C90 C 0.56369 0.59433 0.8786 0.0
C91 C 0.53797 0.38872 0.88789 0.0
C92 C 0.55587 0.34694 0.87364 0.0
C93 C 0.51357 0.28185 0.89416 0.0
C94 C 0.53692 0.24512 0.88201 0.0
C95 C 0.60143 0.27283 0.84878 0.0
C96 C 0.6429 0.33763 0.82814 0.0
C97 C 0.62069 0.37462 0.84062 0.0
C98 C 0.69971 0.59453 0.80574 0.0
C99 C 0.85532 0.59766 0.88281 0.0
O100 O 0.83234 0.76867 0.90007 0.0
O101 O 0.88228 0.76328 0.84327 0.0
O102 O 0.79778 0.65323 0.94561 0.0
O103 O 0.66949 0.58518 0.92155 0.0
O104 O 0.65255 0.65218 0.86813 0.0
O105 O 0.5417 0.53453 0.88931 0.0
O106 O 0.52556 0.41811 0.85924 0.0
O107 O 0.59527 0.43274 0.91412 0.0
O108 O 0.61535 0.53495 0.81417 0.0
O109 O 0.74603 0.60595 0.83581 0.0
O110 O 0.76571 0.53808 0.88237 0.0
O111 O 0.87893 0.65895 0.88126 0.0
H112 H 0.94772 0.92921 0.88084 0.0
H113 H 0.91515 0.99565 0.84618 0.0
H114 H 0.74334 0.83315 0.76497 0.0
H115 H 0.77424 0.76591 0.8 0.0
H116 H 0.46392 0.26015 0.91989 0.0
H117 H 0.50478 0.19524 0.89833 0.0
H118 H 0.69307 0.3598 0.80256 0.0
H119 H 0.65467 0.42519 0.82467 0.0
C120 C 0.76575 0.04379 0.19105 0.0
N121 N 0.81689 0.09579 0.21657 0.0
N122 N 0.70482 0.97942 0.21249 0.0
C123 C 0.77654 0.05588 0.14543 0.0
C124 C 0.72052 0.99421 0.25184 0.0
N125 N 0.78961 0.06434 0.25437 0.0
C126 C 0.67005 0.93933 0.28781 0.0
H127 H 0.738 0.07051 0.13502 0.0
H128 H 0.74816 1.00792 0.13121 0.0
H129 H 0.85091 0.09989 0.13513 0.0
H130 H 0.68815 0.90756 0.28737 0.0
H131 H 0.59386 0.90305 0.28578 0.0
H132 H 0.68728 0.96265 0.31726 0.0
C133 C 0.78793 0.61534 0.57268 0.0
N134 N 0.79107 0.64793 0.60387 0.0
N135 N 0.75442 0.55157 0.58628 0.0
C136 C 0.81635 0.64509 0.52884 0.0
C137 C 0.73846 0.54648 0.62685 0.0
N138 N 0.76206 0.60557 0.6378 0.0
C139 C 0.7026 0.48464 0.6557 0.0
H140 H 0.75327 0.62273 0.51258 0.0
H141 H 0.85029 0.63018 0.51381 0.0
H142 H 0.86438 0.70314 0.52609 0.0
H143 H 0.76073 0.48811 0.6619 0.0
H144 H 0.64843 0.4349 0.64172 0.0
H145 H 0.67357 0.4836 0.68493 0.0
C146 C 0.21524 0.60092 0.87679 0.0
N147 N 0.26259 0.58981 0.90007 0.0
N148 N 1.14343 0.58596 0.89913 0.0
C149 C 0.24053 0.62774 0.83271 0.0
C150 C 1.14973 0.56529 0.93656 0.0
N151 N 0.22102 0.56829 0.93736 0.0
C152 C 1.08645 0.54267 0.97304 0.0
H153 H 0.31714 0.67119 0.82755 0.0
H154 H 0.20615 0.64595 0.82235 0.0
H155 H 0.2182 0.58483 0.8145 0.0
H156 H 1.01856 0.52304 0.96408 0.0
H157 H 1.12005 0.58794 0.99134 0.0
H158 H 1.0748 0.50069 0.99218 0.0
C159 C 0.33734 0.6526 0.46831 0.0
N160 N 0.2906 0.59938 0.44369 0.0
N161 N 0.40582 0.71545 0.44649 0.0
C162 C 0.31803 0.64277 0.51364 0.0
C163 C 0.39855 0.69844 0.40778 0.0
N164 N 0.32907 0.6283 0.40608 0.0
C165 C 0.45932 0.75087 0.37146 0.0
H166 H 0.24248 0.60765 0.52134 0.0
H167 H 0.35575 0.69363 0.52652 0.0
H168 H 0.33995 0.61692 0.52793 0.0
H169 H 0.52933 0.79728 0.38052 0.0
H170 H 0.42649 0.7688 0.35807 0.0
H171 H 0.46764 0.72792 0.34727 0.0
C172 C 0.73852 0.11362 0.78921 0.0
N173 N 0.75916 0.09419 0.75794 0.0
N174 N 0.71923 0.15168 0.77505 0.0
C175 C 0.73421 0.0938 0.83362 0.0
C176 C 0.72988 0.15591 0.73417 0.0
N177 N 0.75592 0.12216 0.72353 0.0
C178 C 0.71604 0.19399 0.70471 0.0
H179 H 0.758 0.13686 0.85205 0.0
H180 H 0.77735 0.08152 0.83895 0.0
H181 H 0.66101 0.04686 0.84403 0.0
H182 H 0.65866 0.18887 0.71619 0.0
H183 H 0.70086 0.17392 0.67425 0.0
H184 H 0.78053 0.25066 0.70157 0.0
C185 C 0.44782 0.23457 0.06556 0.0
N186 N 0.53067 0.29621 0.04895 0.0
N187 N 0.4048 0.24651 0.08925 0.0
C188 C 0.39751 0.16478 0.04946 0.0
C189 C 0.46082 0.31668 0.08488 0.0
N190 N 0.53526 0.34682 0.05945 0.0
C191 C 0.44048 0.35574 0.10392 0.0
H192 H 0.34195 0.15129 0.03039 0.0
H193 H 0.36329 0.12302 0.07506 0.0
H194 H 0.44528 0.16643 0.03021 0.0
H195 H 0.43194 0.34375 0.13732 0.0
H196 H 0.37467 0.33767 0.09298 0.0
H197 H 0.49713 0.41339 0.09687 0.0
C198 C 0.18348 0.17237 0.13748 0.0
C199 C 0.22337 0.19913 0.17486 0.0
C200 C 0.33479 0.19119 0.1583 0.0
C201 C 0.32334 0.19897 0.11661 0.0
N202 N 0.2234 0.18171 0.06608 0.0
N203 N 0.28028 0.17287 0.22829 0.0
C204 C 0.24087 0.18167 0.10593 0.0
C205 C 0.27793 0.1856 0.18798 0.0
N206 N 1.09588 0.14415 0.13188 0.0
N207 N 0.40362 0.19495 0.17017 0.0
H208 H 0.23792 0.16915 0.24989 0.0
H209 H 0.32181 0.16436 0.23899 0.0
H210 H 0.44873 0.20044 0.14948 0.0
H211 H 0.44873 0.20044 0.14948 0.0
H212 H 1.06211 0.12137 0.10546 0.0
H213 H 1.05664 0.14027 0.15533 0.0
H214 H 1.16864 0.17629 0.0566 0.0
H215 H 0.26687 0.19014 0.04283 0.0
C216 C 1.05859 0.41863 0.47931 0.0
C217 C 1.0755 0.3758 0.46966 0.0
C218 C 0.23991 0.48299 0.45423 0.0
C219 C 0.2189 0.52455 0.45575 0.0
N220 N 1.10549 0.53157 0.46724 0.0
N221 N 0.18315 0.37096 0.4396 0.0
C222 C 1.12727 0.49222 0.46752 0.0
C223 C 1.16659 0.4089 0.45496 0.0
N224 N 0.97982 0.39016 0.50195 0.0
N225 N 0.33023 0.51427 0.45392 0.0
H226 H 1.1311 0.31743 0.43661 0.0
H227 H 0.24708 0.39448 0.42543 0.0
H228 H 0.38372 0.56758 0.45763 0.0
H229 H 0.34977 0.48603 0.45568 0.0
H230 H 0.96829 0.4203 0.51274 0.0
H231 H 0.93166 0.338 0.51431 0.0
H232 H 1.03731 0.50932 0.47038 0.0
H233 H 1.15513 0.58601 0.46104 0.0
C234 C 0.71512 0.9343 0.7945 0.0
C235 C 0.80303 0.95781 0.78446 0.0
C236 C 0.86004 0.06973 0.75389 0.0
C237 C 0.77122 0.04552 0.762 0.0
N238 N 0.6095 0.95062 0.78457 0.0
N239 N 0.95077 0.0396 0.74586 0.0
C240 C 0.69699 0.97601 0.7801 0.0
C241 C 0.87248 1.02268 0.76096 0.0
N242 N 0.6512 0.87459 0.82007 0.0
N243 N 0.93446 0.13925 0.74314 0.0
H244 H 0.96176 1.00606 0.75069 0.0
H245 H 0.99995 0.08343 0.72542 0.0
H246 H 0.92868 0.17578 0.74175 0.0
H247 H 1.00277 0.1615 0.74042 0.0
H248 H 0.59068 0.85941 0.83261 0.0
H249 H 0.66144 0.8424 0.83139 0.0
H250 H 0.55054 0.898 0.79286 0.0
H251 H 0.59465 0.98121 0.77746 0.0
C252 C 0.73815 0.34623 0.08763 0.0
C253 C 0.80053 0.4113 0.06382 0.0
C254 C 0.68338 0.36577 0.01396 0.0
C255 C 0.61541 0.31044 0.0434 0.0
N256 N 0.59072 0.23117 0.0986 0.0
N257 N 0.84034 0.48077 1.00057 0.0
C258 C 0.64609 0.29478 0.07674 0.0
C259 C 0.77674 0.41962 0.02496 0.0
N260 N 0.76644 0.33307 0.12116 0.0
N261 N 0.65523 0.36858 0.97696 0.0
H262 H 0.90825 0.52146 0.00852 0.0
H263 H 0.82528 0.49261 0.97336 0.0
H264 H 0.58544 0.32997 0.97059 0.0
H265 H 0.70004 0.40523 0.95261 0.0
H266 H 0.72153 0.28624 0.14007 0.0
H267 H 0.83501 0.36816 0.12952 0.0
H268 H 0.52494 0.18666 0.09101 0.0
H269 H 0.52494 0.18666 0.09101 0.0
C270 C 0.60911 0.87631 0.49644 0.0
C271 C 0.6242 0.93006 0.47099 0.0
C272 C 0.4776 0.83794 0.44047 0.0
C273 C 0.47246 0.78569 0.45961 0.0
N274 N 0.54629 0.75777 0.5 0.0
N275 N 0.58636 0.95431 0.40681 0.0
C276 C 0.54187 0.80547 0.48608 0.0
C277 C 0.56192 0.909 0.43971 0.0
N278 N 0.65551 0.89119 0.53093 0.0
N279 N 0.40329 0.8195 0.42149 0.0
H280 H 0.65383 1.00308 0.40047 0.0
H281 H 0.54396 0.93865 0.38253 0.0
H282 H 0.34012 0.76728 0.4221 0.0
H283 H 0.40263 0.85669 0.40888 0.0
H284 H 0.6402 0.85233 0.55172 0.0
H285 H 0.70125 0.94065 0.54145 0.0
H286 H 0.5994 0.77089 0.5173 0.0
H287 H 0.50186 0.70692 0.49108 0.0
C288 C 0.71948 0.26498 0.83925 0.0
C289 C 0.62727 0.23506 0.83513 0.0
C290 C 0.59202 0.14119 0.79922 0.0
C291 C 0.68723 0.17726 0.79796 0.0
N292 N 0.84421 0.27612 0.81295 0.0
N293 N 0.47726 0.14851 0.8076 0.0
C294 C 0.75174 0.23972 0.81721 0.0
C295 C 0.56331 0.17359 0.81455 0.0
N296 N 0.77533 0.31658 0.86478 0.0
N297 N 0.52953 0.07599 0.78561 0.0
H298 H 0.45367 0.17107 0.81796 0.0
H299 H 0.43176 0.10859 0.78889 0.0
H300 H 0.54961 0.05181 0.77372 0.0
H301 H 0.45779 0.04375 0.78922 0.0
H302 H 0.83997 0.33557 0.87206 0.0
H303 H 0.75328 0.33577 0.88171 0.0
H304 H 0.89611 0.32604 0.82259 0.0
H305 H 0.86932 0.25826 0.79704 0.0
C306 C 0.91794 0.83784 0.61169 0.0
C307 C 0.8691 0.84504 0.58447 0.0
C308 C 0.75861 0.71906 0.57686 0.0
C309 C 0.81401 0.71357 0.60007 0.0
N310 N 0.9589 0.77163 0.63035 0.0
N311 N 0.75371 0.79522 0.53475 0.0
C312 C 0.89673 0.77389 0.61543 0.0
C313 C 0.79177 0.78628 0.56553 0.0
N314 N 0.98485 0.89213 0.63366 0.0
N315 N 0.67462 0.66 0.56523 0.0
H316 H 0.77558 0.84355 0.52533 0.0
H317 H 0.70638 0.75591 0.51603 0.0
H318 H 0.6497 0.60994 0.57123 0.0
H319 H 0.62677 0.66018 0.55228 0.0
H320 H 1.01664 0.88734 0.65668 0.0
H321 H 1.00227 0.93988 0.63139 0.0
H322 H 1.02427 0.81557 0.63896 0.0
H323 H 0.94926 0.72749 0.62922 0.0
C324 C 1.00579 0.63792 0.91165 0.0
C325 C 0.93231 0.59623 0.88485 0.0
C326 C 1.00209 0.54912 0.86511 0.0
C327 C 1.07894 0.59522 0.88934 0.0
N328 N 1.1631 0.69522 0.92788 0.0
N329 N 0.87568 0.52359 0.82895 0.0
C330 C 1.08341 0.64338 0.90991 0.0
C331 C 0.93477 0.55492 0.8596 0.0
N332 N 0.99911 0.66895 0.94099 0.0
N333 N 0.99163 0.49813 0.84823 0.0
H334 H 0.82974 0.52955 0.82245 0.0
H335 H 0.87905 0.49805 0.80731 0.0
H336 H 1.03921 0.49297 0.85165 0.0
H337 H 0.93302 0.45839 0.83343 0.0
H338 H 1.04507 0.69356 0.96403 0.0
H339 H 0.94186 0.66311 0.94529 0.0
H340 H 1.17518 0.73625 0.9402 0.0
H341 H 0.22077 0.7009 0.92653 0.0
C342 C 0.59601 0.80766 0.1698 0.0
C343 C 0.50236 0.76393 0.18594 0.0
C344 C 0.54174 0.86875 0.20842 0.0
C345 C 0.637 0.90968 0.19847 0.0
N346 N 0.75735 0.91474 0.17569 0.0
N347 N 0.39755 0.75337 0.2328 0.0
C348 C 0.66503 0.87821 0.18077 0.0
C349 C 0.47799 0.79463 0.20844 0.0
N350 N 0.61886 0.78343 0.14281 0.0
N351 N 0.51256 0.90082 0.21894 0.0
H352 H 0.35413 0.69914 0.23827 0.0
H353 H 0.38104 0.77399 0.25206 0.0
H354 H 0.5585 0.95528 0.21918 0.0
H355 H 0.44245 0.87393 0.22352 0.0
H356 H 0.68435 0.81537 0.12759 0.0
H357 H 0.57007 0.73382 0.13234 0.0
H358 H 0.78179 0.89212 0.16672 0.0
H359 H 0.809 0.96602 0.18365 0.0
C360 C 0.63846 0.38866 0.53362 0.0
C361 C 0.71751 0.40184 0.51939 0.0
C362 C 0.82009 0.5128 0.55078 0.0
C363 C 0.74192 0.50152 0.563 0.0
N364 N 0.57962 0.43706 0.56046 0.0
N365 N 0.88361 0.48314 0.50583 0.0
C366 C 0.65181 0.44191 0.55256 0.0
C367 C 0.80853 0.4661 0.52537 0.0
N368 N 0.55117 0.32448 0.53063 0.0
N369 N 0.90483 0.56712 0.56456 0.0
H370 H 0.87704 0.45065 0.48607 0.0
H371 H 0.95102 0.53213 0.506 0.0
H372 H 0.91501 0.60226 0.58323 0.0
H373 H 0.96294 0.57398 0.56023 0.0
H374 H 0.49149 0.30929 0.54434 0.0
H375 H 0.53875 0.28434 0.51675 0.0
H376 H 0.51357 0.39832 0.55018 0.0
H377 H 0.5881 0.47535 0.57474 0.0
C378 C 0.50276 0.65211 0.89763 0.0
C379 C 0.48785 0.59675 0.88014 0.0
C380 C 0.32355 0.53931 0.8719 0.0
C381 C 0.34029 0.59579 0.88813 0.0
N382 N 0.45509 0.71621 0.90192 0.0
N383 N 0.38742 0.49689 0.84082 0.0
C384 C 0.43284 0.65526 0.89656 0.0
C385 C 0.39889 0.54282 0.86459 0.0
N386 N 0.58119 0.69981 0.91765 0.0
N387 N 0.23504 0.4819 0.86339 0.0
H388 H 0.44132 0.50003 0.83281 0.0
H389 H 0.32779 0.46056 0.82546 0.0
H390 H 1.18088 0.48025 0.86561 0.0
H391 H 0.21454 0.43505 0.85632 0.0
H392 H 0.5912 0.7369 0.93413 0.0
H393 H 0.63133 0.69756 0.92179 0.0
H394 H 0.52292 0.76356 0.90478 0.0
H395 H 0.40688 0.72068 0.89815 0.0
C396 C 0.95152 0.28603 0.17848 0.0
C397 C 1.041 0.32046 0.19258 0.0
C398 C 0.98445 0.20413 0.21367 0.0
C399 C 0.89276 0.17107 0.20564 0.0
N400 N 0.78628 0.18091 0.18306 0.0
N401 N 1.13618 0.3093 0.23036 0.0
C402 C 0.87553 0.21216 0.1887 0.0
C403 C 1.05572 0.27864 0.21198 0.0
N404 N 0.93984 0.32267 0.15333 0.0
N405 N 1.00415 0.16388 0.22126 0.0
H406 H 0.1907 0.36312 0.23052 0.0
H407 H 1.1455 0.28095 0.24878 0.0
H408 H 0.95465 0.10998 0.21873 0.0
H409 H 1.07112 0.18452 0.22455 0.0
H410 H 0.87931 0.29864 0.13839 0.0
H411 H 0.99357 0.37584 0.14383 0.0
H412 H 0.76782 0.20898 0.17521 0.0
H413 H 0.72975 0.12705 0.18936 0.0
C414 C 0.33599 0.60249 0.03611 0.0
C415 C 0.27483 0.53323 0.05539 0.0
C416 C 0.20596 0.48851 0.98989 0.0
C417 C 0.25156 0.55763 0.97408 0.0
N418 N 0.34862 0.67943 0.9852 0.0
N419 N 1.16072 0.40898 0.0497 0.0
C420 C 0.31489 0.61464 0.99772 0.0
C421 C 0.21385 0.4757 0.03159 0.0
N422 N 0.41364 0.65652 0.05423 0.0
N423 N 1.15149 0.43514 0.96542 0.0
H424 H 1.16978 0.39909 0.07941 0.0
H425 H 1.10744 0.36388 0.03595 0.0
H426 H 1.14041 0.44345 0.93586 0.0
H427 H 1.12116 0.38397 0.97342 0.0
H428 H 0.4629 0.70743 0.04003 0.0
H429 H 0.43548 0.64834 0.08045 0.0
H430 H 0.38794 0.72141 1.00322 0.0
H431 H 0.32883 0.68885 0.9587 0.0
C432 C 0.89088 0.09884 0.35633 0.0
C433 C 0.88752 0.14778 0.36922 0.0
C434 C 0.8196 0.14199 0.30576 0.0
C435 C 0.83039 0.098 0.29145 0.0
N436 N 0.89326 0.04552 0.29993 0.0
N437 N 0.86919 0.2283 0.35241 0.0
C438 C 0.87273 0.08083 0.31559 0.0
C439 C 0.85879 0.17359 0.34259 0.0
N440 N 0.90445 0.06537 0.38356 0.0
N441 N 0.76602 0.1493 0.28581 0.0
H442 H 0.89994 0.25343 0.37876 0.0
H443 H 0.85634 0.25302 0.33253 0.0
H444 H 0.73051 0.12208 0.26068 0.0
H445 H 0.74883 0.17586 0.29675 0.0
H446 H 0.89671 1.02345 0.3767 0.0
H447 H 0.91423 0.07425 0.41421 0.0
H448 H 0.93364 0.03866 0.31443 0.0
H449 H 0.87587 1.02761 0.27106 0.0
C450 C 0.81828 0.64201 0.74741 0.0
C451 C 0.73679 0.62428 0.76279 0.0
C452 C 0.68575 0.6129 0.69364 0.0
C453 C 0.76 0.62056 0.67897 0.0
N454 N 0.89133 0.63428 0.69233 0.0
N455 N 0.614 0.62037 0.74998 0.0
C456 C 0.82571 0.63406 0.70587 0.0
C457 C 0.67751 0.61893 0.7355 0.0
N458 N 0.88984 0.66886 0.77181 0.0
N459 N 0.61802 0.59265 0.66839 0.0
H460 H 0.60924 0.62682 0.78047 0.0
H461 H 0.5733 0.62253 0.73151 0.0
H462 H 0.61918 0.58283 0.63848 0.0
H463 H 0.55693 0.57933 0.67781 0.0
H464 H 0.9537 0.68733 0.76142 0.0
H465 H 0.89078 0.68243 0.80085 0.0
H466 H 0.93332 0.63461 0.71151 0.0
H467 H 0.89886 0.62832 0.66218 0.0
C468 C 0.7256 0.06468 0.61816 0.0
C469 C 0.80235 0.12963 0.59645 0.0
C470 C 0.86066 0.18337 0.66089 0.0
C471 C 0.77887 0.1204 0.68222 0.0
N472 N 0.6278 1.0046 0.68059 0.0
N473 N 0.9596 0.24214 0.59858 0.0
C474 C 0.711 0.06125 0.66084 0.0
C475 C 0.87556 0.1862 0.6182 0.0
N476 N 0.66723 1.00586 0.59776 0.0
N477 N 0.91992 0.24266 0.68086 0.0
H478 H 0.9751 0.24558 0.56789 0.0
H479 H 1.01811 0.28138 0.61362 0.0
H480 H 0.91068 0.24336 0.71186 0.0
H481 H 0.97366 0.29254 0.66627 0.0
H482 H 0.61589 0.95535 0.6121 0.0
H483 H 0.67641 1.00685 0.56651 0.0
H484 H 0.57059 0.9627 0.66615 0.0
H485 H 0.61304 1.00279 0.71113 0.0
C486 C 0.71905 0.53769 0.01745 0.0
C487 C 0.66796 0.53984 0.9882 0.0
C488 C 0.53257 0.41556 1.00614 0.0
C489 C 0.5825 0.41225 0.03489 0.0
N490 N 0.70855 0.47545 0.07877 0.0
N491 N 0.51382 0.49079 0.9757 0.0
C492 C 0.67158 0.47504 0.04393 0.0
C493 C 0.57061 0.48182 0.98902 0.0
N494 N 0.81139 0.59424 0.02057 0.0
N495 N 0.4488 0.35565 0.99511 0.0
H496 H 0.53897 0.5407 0.96804 0.0
H497 H 0.4415 0.4503 0.978 0.0
H498 H 0.41976 0.30571 1.0062 0.0
H499 H 0.41345 0.35613 0.97192 0.0
H500 H 0.85325 0.59116 0.03738 0.0
H501 H 0.84617 0.644 1.00662 0.0
H502 H 0.76787 0.52168 0.08957 0.0
H503 H 0.67456 0.43005 0.0984 0.0
C504 C 0.2006 0.53644 0.31318 0.0
C505 C 0.26905 0.54347 0.29159 0.0
C506 C 0.36551 0.59115 0.35013 0.0
C507 C 0.30278 0.59218 0.36968 0.0
N508 N 1.17021 0.5791 0.36653 0.0
N509 N 0.42757 0.59462 0.286 0.0
C510 C 0.22215 0.56768 0.35054 0.0
C511 C 0.35418 0.57471 0.30924 0.0
N512 N 1.11557 0.50047 0.29793 0.0
N513 N 0.43921 0.60982 0.36999 0.0
H514 H 0.42564 0.58947 0.25499 0.0
H515 H 0.49406 0.62408 0.29623 0.0
H516 H 0.45571 0.62991 0.39824 0.0
H517 H 0.48062 0.60166 0.35935 0.0
H518 H 1.0599 0.48791 0.31424 0.0
H519 H 1.09866 0.47837 0.27021 0.0
H520 H 1.11527 0.56828 0.35214 0.0
H521 H 0.18849 0.60619 0.39226 0.0
loop_
_geom_bond_atom_site_label_1
_geom_bond_atom_site_label_2
_geom_bond_distance
_geom_bond_site_symmetry_2
_ccdc_geom_bond_type
La0 C2 2.928 . S
La0 O20 2.521 . S
La0 O21 2.628 . S
La0 O22 2.554 . S
La0 O23 2.757 1_455 S
La0 O24 2.470 . S
La0 O29 2.482 . S
La0 O31 2.503 1_455 S
La1 C11 2.928 . S
La1 O23 2.482 . S
La1 O25 2.503 1_655 S
La1 O26 2.521 . S
La1 O27 2.628 . S
La1 O28 2.554 . S
La1 O29 2.757 1_655 S
La1 O30 2.470 . S
C2 La0 2.928 . S
C2 C3 1.503 . S
C2 O20 1.261 . S
C2 O21 1.243 . S
C3 C2 1.503 . S
C3 C4 1.394 . S
C3 C8 1.373 . S
C4 C3 1.394 . S
C4 C5 1.380 . S
C4 H32 0.930 . S
C5 C4 1.380 . S
C5 C6 1.376 . S
C5 H33 0.930 . S
C6 C5 1.376 . S
C6 C7 1.370 . S
C7 C6 1.370 . S
C7 C8 1.396 . S
C7 H34 0.929 . S
C8 C3 1.373 . S
C8 C7 1.396 . S
C8 H35 0.929 . S
C9 O22 1.240 . S
C9 O23 1.289 1_455 S
C10 O24 1.258 . S
C10 O25 1.256 . S
C11 La1 2.928 . S
C11 C12 1.503 . S
C11 O26 1.261 . S
C11 O27 1.243 . S
C12 C11 1.503 . S
C12 C13 1.394 . S
C12 C17 1.373 . S
C13 C12 1.394 . S
C13 C14 1.380 . S
C13 H36 0.930 . S
C14 C13 1.380 . S
C14 C15 1.376 . S
C14 H37 0.930 . S
C15 C14 1.376 . S
C15 C16 1.370 . S
C16 C15 1.370 . S
C16 C17 1.396 . S
C16 H38 0.929 . S
C17 C12 1.373 . S
C17 C16 1.396 . S
C17 H39 0.929 . S
C18 O28 1.240 1_455 S
C18 O29 1.289 . S
C19 O30 1.258 . S
C19 O31 1.256 . S
O20 La0 2.521 . S
O20 C2 1.261 . S
O21 La0 2.628 . S
O21 C2 1.243 . S
O22 La0 2.554 . S
O22 C9 1.240 . S
O23 La0 2.757 1_655 S
O23 La1 2.482 . S
O23 C9 1.289 1_655 S
O24 La0 2.470 . S
O24 C10 1.258 . S
O25 La1 2.503 1_455 S
O25 C10 1.256 . S
O26 La1 2.521 . S
O26 C11 1.261 . S
O27 La1 2.628 . S
O27 C11 1.243 . S
O28 La1 2.554 . S
O28 C18 1.240 1_655 S
O29 La0 2.482 . S
O29 La1 2.757 1_455 S
O29 C18 1.289 . S
O30 La1 2.470 . S
O30 C19 1.258 . S
O31 La0 2.503 1_655 S
O31 C19 1.256 . S
H32 C4 0.930 . S
H33 C5 0.930 . S
H34 C7 0.929 . S
H35 C8 0.929 . S
H36 C13 0.930 . S
H37 C14 0.930 . S
H38 C16 0.929 . S
H39 C17 0.929 . S
La40 C42 2.928 1_545 S
La40 O60 2.521 1_545 S
La40 O61 2.628 1_545 S
La40 O62 2.554 . S
La40 O63 2.757 . S
La40 O64 2.470 1_545 S
La40 O69 2.482 . S
La40 O71 2.503 . S
La41 C51 2.928 . S
La41 O63 2.482 . S
La41 O65 2.503 1_545 S
La41 O66 2.521 . S
La41 O67 2.628 . S
La41 O68 2.554 . S
La41 O69 2.757 . S
La41 O70 2.470 . S
C42 La40 2.928 1_565 S
C42 C43 1.503 . S
C42 O60 1.261 . S
C42 O61 1.243 . S
C43 C42 1.503 . S
C43 C44 1.394 . S
C43 C48 1.373 . S
C44 C43 1.394 . S
C44 C45 1.380 . S
C44 H72 0.930 . S
C45 C44 1.380 . S
C45 C46 1.376 . S
C45 H73 0.930 . S
C46 C45 1.376 . S
C46 C47 1.370 . S
C47 C46 1.370 . S
C47 C48 1.396 . S
C47 H74 0.929 . S
C48 C43 1.373 . S
C48 C47 1.396 . S
C48 H75 0.929 . S
C49 O62 1.240 . S
C49 O63 1.289 . S
C50 O64 1.258 . S
C50 O65 1.256 . S
C51 La41 2.928 . S
C51 C52 1.503 . S
C51 O66 1.261 . S
C51 O67 1.243 . S
C52 C51 1.503 . S
C52 C53 1.394 . S
C52 C57 1.373 . S
C53 C52 1.394 . S
C53 C54 1.380 . S
C53 H76 0.930 . S
C54 C53 1.380 . S
C54 C55 1.376 . S
C54 H77 0.930 . S
C55 C54 1.376 . S
C55 C56 1.370 . S
C56 C55 1.370 . S
C56 C57 1.396 . S
C56 H78 0.929 . S
C57 C52 1.373 . S
C57 C56 1.396 . S
C57 H79 0.929 . S
C58 O68 1.240 . S
C58 O69 1.289 . S
C59 O70 1.258 . S
C59 O71 1.256 . S
O60 La40 2.521 1_565 S
O60 C42 1.261 . S
O61 La40 2.628 1_565 S
O61 C42 1.243 . S
O62 La40 2.554 . S
O62 C49 1.240 . S
O63 La40 2.757 . S
O63 La41 2.482 . S
O63 C49 1.289 . S
O64 La40 2.470 1_565 S
O64 C50 1.258 . S
O65 La41 2.503 1_565 S
O65 C50 1.256 . S
O66 La41 2.521 . S
O66 C51 1.261 . S
O67 La41 2.628 . S
O67 C51 1.243 . S
O68 La41 2.554 . S
O68 C58 1.240 . S
O69 La40 2.482 . S
O69 La41 2.757 . S
O69 C58 1.289 . S
O70 La41 2.470 . S
O70 C59 1.258 . S
O71 La40 2.503 . S
O71 C59 1.256 . S
H72 C44 0.930 . S
H73 C45 0.930 . S
H74 C47 0.929 . S
H75 C48 0.929 . S
H76 C53 0.930 . S
H77 C54 0.930 . S
H78 C56 0.929 . S
H79 C57 0.929 . S
La80 C82 2.928 . S
La80 O100 2.521 . S
La80 O101 2.628 . S
La80 O102 2.554 . S
La80 O103 2.757 . S
La80 O104 2.470 . S
La80 O109 2.482 . S
La80 O111 2.503 . S
La81 C91 2.928 . S
La81 O103 2.482 . S
La81 O105 2.503 . S
La81 O106 2.521 . S
La81 O107 2.628 . S
La81 O108 2.554 . S
La81 O109 2.757 . S
La81 O110 2.470 . S
C82 La80 2.928 . S
C82 C83 1.503 . S
C82 O100 1.261 . S
C82 O101 1.243 . S
C83 C82 1.503 . S
C83 C84 1.394 . S
C83 C88 1.373 . S
C84 C83 1.394 . S
C84 C85 1.380 . S
C84 H112 0.930 . S
C85 C84 1.380 . S
C85 C86 1.376 . S
C85 H113 0.930 . S
C86 C85 1.376 . S
C86 C87 1.370 . S
C87 C86 1.370 . S
C87 C88 1.396 . S
C87 H114 0.929 . S
C88 C83 1.373 . S
C88 C87 1.396 . S
C88 H115 0.929 . S
C89 O102 1.240 . S
C89 O103 1.289 . S
C90 O104 1.258 . S
C90 O105 1.256 . S
C91 La81 2.928 . S
C91 C92 1.503 . S
C91 O106 1.261 . S
C91 O107 1.243 . S
C92 C91 1.503 . S
C92 C93 1.394 . S
C92 C97 1.373 . S
C93 C92 1.394 . S
C93 C94 1.380 . S
C93 H116 0.930 . S
C94 C93 1.380 . S
C94 C95 1.376 . S
C94 H117 0.930 . S
C95 C94 1.376 . S
C95 C96 1.370 . S
C96 C95 1.370 . S
C96 C97 1.396 . S
C96 H118 0.929 . S
C97 C92 1.373 . S
C97 C96 1.396 . S
C97 H119 0.929 . S
C98 O108 1.240 . S
C98 O109 1.289 . S
C99 O110 1.258 . S
C99 O111 1.256 . S
O100 La80 2.521 . S
O100 C82 1.261 . S
O101 La80 2.628 . S
O101 C82 1.243 . S
O102 La80 2.554 . S
O102 C89 1.240 . S
O103 La80 2.757 . S
O103 La81 2.482 . S
O103 C89 1.289 . S
O104 La80 2.470 . S
O104 C90 1.258 . S
O105 La81 2.503 . S
O105 C90 1.256 . S
O106 La81 2.521 . S
O106 C91 1.261 . S
O107 La81 2.628 . S
O107 C91 1.243 . S
O108 La81 2.554 . S
O108 C98 1.240 . S
O109 La80 2.482 . S
O109 La81 2.757 . S
O109 C98 1.289 . S
O110 La81 2.470 . S
O110 C99 1.258 . S
O111 La80 2.503 . S
O111 C99 1.256 . S
H112 C84 0.930 . S
H113 C85 0.930 . S
H114 C87 0.929 . S
H115 C88 0.929 . S
H116 C93 0.930 . S
H117 C94 0.930 . S
H118 C96 0.929 . S
H119 C97 0.929 . S
C120 N121 1.317 1_565 S
C120 N122 1.348 . S
C120 C123 1.485 1_565 S
N121 C120 1.317 1_545 S
N121 N125 1.370 . S
N122 C120 1.348 . S
N122 C124 1.346 . S
C123 C120 1.485 1_545 S
C123 H127 0.960 . S
C123 H128 0.961 1_545 S
C123 H129 0.960 . S
C124 N122 1.346 . S
C124 N125 1.307 1_565 S
C124 C126 1.486 . S
N125 N121 1.370 . S
N125 C124 1.307 1_545 S
C126 C124 1.486 . S
C126 H130 0.960 . S
C126 H131 0.960 . S
C126 H132 0.959 . S
H127 C123 0.960 . S
H128 C123 0.961 1_565 S
H129 C123 0.960 . S
H130 C126 0.960 . S
H131 C126 0.960 . S
H132 C126 0.959 . S
C133 N134 1.317 . S
C133 N135 1.348 . S
C133 C136 1.485 . S
N134 C133 1.317 . S
N134 N138 1.370 . S
N135 C133 1.348 . S
N135 C137 1.346 . S
C136 C133 1.485 . S
C136 H140 0.960 . S
C136 H141 0.961 . S
C136 H142 0.960 . S
C137 N135 1.346 . S
C137 N138 1.307 . S
C137 C139 1.486 . S
N138 N134 1.370 . S
N138 C137 1.307 . S
C139 C137 1.486 . S
C139 H143 0.960 . S
C139 H144 0.960 . S
C139 H145 0.959 . S
H140 C136 0.960 . S
H141 C136 0.961 . S
H142 C136 0.960 . S
H143 C139 0.960 . S
H144 C139 0.960 . S
H145 C139 0.959 . S
C146 N147 1.317 . S
C146 N148 1.348 . S
C146 C149 1.485 . S
N147 C146 1.317 . S
N147 N151 1.370 . S
N148 C146 1.348 . S
N148 C150 1.346 . S
C149 C146 1.485 . S
C149 H153 0.960 . S
C149 H154 0.961 . S
C149 H155 0.960 . S
C150 N148 1.346 . S
C150 N151 1.307 . S
C150 C152 1.486 1_455 S
N151 N147 1.370 . S
N151 C150 1.307 . S
C152 C150 1.486 1_655 S
C152 H156 0.960 . S
C152 H157 0.960 . S
C152 H158 0.959 . S
H153 C149 0.960 . S
H154 C149 0.961 . S
H155 C149 0.960 . S
H156 C152 0.960 . S
H157 C152 0.960 . S
H158 C152 0.959 . S
C159 N160 1.317 . S
C159 N161 1.348 . S
C159 C162 1.485 . S
N160 C159 1.317 . S
N160 N164 1.370 . S
N161 C159 1.348 . S
N161 C163 1.346 . S
C162 C159 1.485 . S
C162 H166 0.960 . S
C162 H167 0.961 . S
C162 H168 0.960 . S
C163 N161 1.346 . S
C163 N164 1.307 . S
C163 C165 1.486 . S
N164 N160 1.370 . S
N164 C163 1.307 . S
C165 C163 1.486 . S
C165 H169 0.960 . S
C165 H170 0.960 . S
C165 H171 0.959 . S
H166 C162 0.960 . S
H167 C162 0.961 . S
H168 C162 0.960 . S
H169 C165 0.960 . S
H170 C165 0.960 . S
H171 C165 0.959 . S
C172 N173 1.317 . S
C172 N174 1.348 . S
C172 C175 1.485 . S
N173 C172 1.317 . S
N173 N177 1.370 . S
N174 C172 1.348 . S
N174 C176 1.346 . S
C175 C172 1.485 . S
C175 H179 0.960 . S
C175 H180 0.961 . S
C175 H181 0.960 . S
C176 N174 1.346 . S
C176 N177 1.307 . S
C176 C178 1.486 . S
N177 N173 1.370 . S
N177 C176 1.307 . S
C178 C176 1.486 . S
C178 H182 0.960 . S
C178 H183 0.960 . S
C178 H184 0.959 . S
H179 C175 0.960 . S
H180 C175 0.961 . S
H181 C175 0.960 . S
H182 C178 0.960 . S
H183 C178 0.960 . S
H184 C178 0.959 . S
C185 N186 1.317 . S
C185 N187 1.348 . S
C185 C188 1.485 . S
N186 C185 1.317 . S
N186 N190 1.370 . S
N187 C185 1.348 . S
N187 C189 1.346 . S
C188 C185 1.485 . S
C188 H192 0.960 . S
C188 H193 0.961 . S
C188 H194 0.960 . S
C189 N187 1.346 . S
C189 N190 1.307 . S
C189 C191 1.486 . S
N190 N186 1.370 . S
N190 C189 1.307 . S
C191 C189 1.486 . S
C191 H195 0.960 . S
C191 H196 0.960 . S
C191 H197 0.959 . S
H192 C188 0.960 . S
H193 C188 0.961 . S
H194 C188 0.960 . S
H195 C191 0.960 . S
H196 C191 0.960 . S
H197 C191 0.959 . S
C198 C199 1.363 . S
C198 C204 1.379 . S
C198 N206 1.356 . S
C199 C198 1.363 . S
C199 C205 1.363 . S
C200 C201 1.363 . S
C200 C205 1.379 . S
C200 N207 1.356 . S
C201 C200 1.363 . S
C201 C204 1.363 . S
N202 C204 1.356 . S
N202 H214 0.984 . S
N202 H215 0.985 . S
N203 C205 1.356 . S
N203 H208 0.984 . S
N203 H209 0.985 . S
C204 C198 1.379 . S
C204 C201 1.363 . S
C204 N202 1.356 . S
C205 C199 1.363 . S
C205 C200 1.379 . S
C205 N203 1.356 . S
N206 C198 1.356 . S
N206 H212 0.984 . S
N206 H213 0.984 . S
N207 C200 1.356 . S
N207 H210 0.984 . S
N207 H211 0.985 . S
H208 N203 0.984 . S
H209 N203 0.985 . S
H210 N207 0.984 . S
H211 N207 0.985 . S
H212 N206 0.984 . S
H213 N206 0.984 . S
H214 N202 0.984 . S
H215 N202 0.985 . S
C216 C217 1.363 . S
C216 C222 1.379 . S
C216 N224 1.356 . S
C217 C216 1.363 . S
C217 C223 1.363 . S
C218 C219 1.363 . S
C218 C223 1.379 . S
C218 N225 1.356 . S
C219 C218 1.363 . S
C219 C222 1.363 . S
N220 C222 1.356 . S
N220 H232 0.984 . S
N220 H233 0.985 . S
N221 C223 1.356 . S
N221 H226 0.984 . S
N221 H227 0.985 . S
C222 C216 1.379 . S
C222 C219 1.363 . S
C222 N220 1.356 . S
C223 C217 1.363 . S
C223 C218 1.379 . S
C223 N221 1.356 . S
N224 C216 1.356 . S
N224 H230 0.984 . S
N224 H231 0.984 . S
N225 C218 1.356 . S
N225 H228 0.984 . S
N225 H229 0.985 . S
H226 N221 0.984 . S
H227 N221 0.985 . S
H228 N225 0.984 . S
H229 N225 0.985 . S
H230 N224 0.984 . S
H231 N224 0.984 . S
H232 N220 0.984 . S
H233 N220 0.985 . S
C234 C235 1.363 . S
C234 C240 1.379 . S
C234 N242 1.356 . S
C235 C234 1.363 . S
C235 C241 1.363 . S
C236 C237 1.363 . S
C236 C241 1.379 . S
C236 N243 1.356 1_565 S
C237 C236 1.363 . S
C237 C240 1.363 . S
N238 C240 1.356 . S
N238 H250 0.984 . S
N238 H251 0.985 . S
N239 C241 1.356 . S
N239 H244 0.984 . S
N239 H245 0.985 . S
C240 C234 1.379 . S
C240 C237 1.363 . S
C240 N238 1.356 . S
C241 C235 1.363 . S
C241 C236 1.379 . S
C241 N239 1.356 . S
N242 C234 1.356 . S
N242 H248 0.984 . S
N242 H249 0.984 . S
N243 C236 1.356 1_545 S
N243 H246 0.984 . S
N243 H247 0.985 . S
H244 N239 0.984 . S
H245 N239 0.985 . S
H246 N243 0.984 . S
H247 N243 0.985 . S
H248 N242 0.984 . S
H249 N242 0.984 . S
H250 N238 0.984 . S
H251 N238 0.985 . S
C252 C253 1.363 . S
C252 C258 1.379 . S
C252 N260 1.356 . S
C253 C252 1.363 . S
C253 C259 1.363 . S
C254 C255 1.363 . S
C254 C259 1.379 . S
C254 N261 1.356 . S
C255 C254 1.363 . S
C255 C258 1.363 . S
N256 C258 1.356 . S
N256 H268 0.984 . S
N256 H269 0.985 . S
N257 C259 1.356 . S
N257 H262 0.984 . S
N257 H263 0.985 . S
C258 C252 1.379 . S
C258 C255 1.363 . S
C258 N256 1.356 . S
C259 C253 1.363 . S
C259 C254 1.379 . S
C259 N257 1.356 . S
N260 C252 1.356 . S
N260 H266 0.984 . S
N260 H267 0.984 . S
N261 C254 1.356 . S
N261 H264 0.984 . S
N261 H265 0.985 . S
H262 N257 0.984 . S
H263 N257 0.985 . S
H264 N261 0.984 . S
H265 N261 0.985 . S
H266 N260 0.984 . S
H267 N260 0.984 . S
H268 N256 0.984 . S
H269 N256 0.985 . S
C270 C271 1.363 . S
C270 C276 1.379 . S
C270 N278 1.356 . S
C271 C270 1.363 . S
C271 C277 1.363 . S
C272 C273 1.363 . S
C272 C277 1.379 . S
C272 N279 1.356 . S
C273 C272 1.363 . S
C273 C276 1.363 . S
N274 C276 1.356 . S
N274 H286 0.984 . S
N274 H287 0.985 . S
N275 C277 1.356 . S
N275 H280 0.984 . S
N275 H281 0.985 . S
C276 C270 1.379 . S
C276 C273 1.363 . S
C276 N274 1.356 . S
C277 C271 1.363 . S
C277 C272 1.379 . S
C277 N275 1.356 . S
N278 C270 1.356 . S
N278 H284 0.984 . S
N278 H285 0.984 . S
N279 C272 1.356 . S
N279 H282 0.984 . S
N279 H283 0.985 . S
H280 N275 0.984 . S
H281 N275 0.985 . S
H282 N279 0.984 . S
H283 N279 0.985 . S
H284 N278 0.984 . S
H285 N278 0.984 . S
H286 N274 0.984 . S
H287 N274 0.985 . S
C288 C289 1.363 . S
C288 C294 1.379 . S
C288 N296 1.356 . S
C289 C288 1.363 . S
C289 C295 1.363 . S
C290 C291 1.363 . S
C290 C295 1.379 . S
C290 N297 1.356 . S
C291 C290 1.363 . S
C291 C294 1.363 . S
N292 C294 1.356 . S
N292 H304 0.984 . S
N292 H305 0.985 . S
N293 C295 1.356 . S
N293 H298 0.984 . S
N293 H299 0.985 . S
C294 C288 1.379 . S
C294 C291 1.363 . S
C294 N292 1.356 . S
C295 C289 1.363 . S
C295 C290 1.379 . S
C295 N293 1.356 . S
N296 C288 1.356 . S
N296 H302 0.984 . S
N296 H303 0.984 . S
N297 C290 1.356 . S
N297 H300 0.984 . S
N297 H301 0.985 . S
H298 N293 0.984 . S
H299 N293 0.985 . S
H300 N297 0.984 . S
H301 N297 0.985 . S
H302 N296 0.984 . S
H303 N296 0.984 . S
H304 N292 0.984 . S
H305 N292 0.985 . S
C306 C307 1.363 . S
C306 C312 1.379 . S
C306 N314 1.356 . S
C307 C306 1.363 . S
C307 C313 1.363 . S
C308 C309 1.363 . S
C308 C313 1.379 . S
C308 N315 1.356 . S
C309 C308 1.363 . S
C309 C312 1.363 . S
N310 C312 1.356 . S
N310 H322 0.984 . S
N310 H323 0.985 . S
N311 C313 1.356 . S
N311 H316 0.984 . S
N311 H317 0.985 . S
C312 C306 1.379 . S
C312 C309 1.363 . S
C312 N310 1.356 . S
C313 C307 1.363 . S
C313 C308 1.379 . S
C313 N311 1.356 . S
N314 C306 1.356 . S
N314 H320 0.984 . S
N314 H321 0.984 . S
N315 C308 1.356 . S
N315 H318 0.984 . S
N315 H319 0.985 . S
H316 N311 0.984 . S
H317 N311 0.985 . S
H318 N315 0.984 . S
H319 N315 0.985 . S
H320 N314 0.984 . S
H321 N314 0.984 . S
H322 N310 0.984 . S
H323 N310 0.985 . S
C324 C325 1.363 . S
C324 C330 1.379 . S
C324 N332 1.356 . S
C325 C324 1.363 . S
C325 C331 1.363 . S
C326 C327 1.363 . S
C326 C331 1.379 . S
C326 N333 1.356 . S
C327 C326 1.363 . S
C327 C330 1.363 . S
N328 C330 1.356 . S
N328 H340 0.984 1_655 S
N328 H341 0.985 1_655 S
N329 C331 1.356 . S
N329 H334 0.984 . S
N329 H335 0.985 . S
C330 C324 1.379 . S
C330 C327 1.363 . S
C330 N328 1.356 . S
C331 C325 1.363 . S
C331 C326 1.379 . S
C331 N329 1.356 . S
N332 C324 1.356 . S
N332 H338 0.984 . S
N332 H339 0.984 . S
N333 C326 1.356 . S
N333 H336 0.984 . S
N333 H337 0.985 . S
H334 N329 0.984 . S
H335 N329 0.985 . S
H336 N333 0.984 . S
H337 N333 0.985 . S
H338 N332 0.984 . S
H339 N332 0.984 . S
H340 N328 0.984 1_455 S
H341 N328 0.985 1_455 S
C342 C343 1.363 . S
C342 C348 1.379 . S
C342 N350 1.356 . S
C343 C342 1.363 . S
C343 C349 1.363 . S
C344 C345 1.363 . S
C344 C349 1.379 . S
C344 N351 1.356 . S
C345 C344 1.363 . S
C345 C348 1.363 . S
N346 C348 1.356 . S
N346 H358 0.984 . S
N346 H359 0.985 . S
N347 C349 1.356 . S
N347 H352 0.984 . S
N347 H353 0.985 . S
C348 C342 1.379 . S
C348 C345 1.363 . S
C348 N346 1.356 . S
C349 C343 1.363 . S
C349 C344 1.379 . S
C349 N347 1.356 . S
N350 C342 1.356 . S
N350 H356 0.984 . S
N350 H357 0.984 . S
N351 C344 1.356 . S
N351 H354 0.984 . S
N351 H355 0.985 . S
H352 N347 0.984 . S
H353 N347 0.985 . S
H354 N351 0.984 . S
H355 N351 0.985 . S
H356 N350 0.984 . S
H357 N350 0.984 . S
H358 N346 0.984 . S
H359 N346 0.985 . S
C360 C361 1.363 . S
C360 C366 1.379 . S
C360 N368 1.356 . S
C361 C360 1.363 . S
C361 C367 1.363 . S
C362 C363 1.363 . S
C362 C367 1.379 . S
C362 N369 1.356 . S
C363 C362 1.363 . S
C363 C366 1.363 . S
N364 C366 1.356 . S
N364 H376 0.984 . S
N364 H377 0.985 . S
N365 C367 1.356 . S
N365 H370 0.984 . S
N365 H371 0.985 . S
C366 C360 1.379 . S
C366 C363 1.363 . S
C366 N364 1.356 . S
C367 C361 1.363 . S
C367 C362 1.379 . S
C367 N365 1.356 . S
N368 C360 1.356 . S
N368 H374 0.984 . S
N368 H375 0.984 . S
N369 C362 1.356 . S
N369 H372 0.984 . S
N369 H373 0.985 . S
H370 N365 0.984 . S
H371 N365 0.985 . S
H372 N369 0.984 . S
H373 N369 0.985 . S
H374 N368 0.984 . S
H375 N368 0.984 . S
H376 N364 0.984 . S
H377 N364 0.985 . S
C378 C379 1.363 . S
C378 C384 1.379 . S
C378 N386 1.356 . S
C379 C378 1.363 . S
C379 C385 1.363 . S
C380 C381 1.363 . S
C380 C385 1.379 . S
C380 N387 1.356 . S
C381 C380 1.363 . S
C381 C384 1.363 . S
N382 C384 1.356 . S
N382 H394 0.984 . S
N382 H395 0.985 . S
N383 C385 1.356 . S
N383 H388 0.984 . S
N383 H389 0.985 . S
C384 C378 1.379 . S
C384 C381 1.363 . S
C384 N382 1.356 . S
C385 C379 1.363 . S
C385 C380 1.379 . S
C385 N383 1.356 . S
N386 C378 1.356 . S
N386 H392 0.984 . S
N386 H393 0.984 . S
N387 C380 1.356 . S
N387 H390 0.984 . S
N387 H391 0.985 . S
H388 N383 0.984 . S
H389 N383 0.985 . S
H390 N387 0.984 . S
H391 N387 0.985 . S
H392 N386 0.984 . S
H393 N386 0.984 . S
H394 N382 0.984 . S
H395 N382 0.985 . S
C396 C397 1.363 . S
C396 C402 1.379 . S
C396 N404 1.356 . S
C397 C396 1.363 . S
C397 C403 1.363 . S
C398 C399 1.363 . S
C398 C403 1.379 . S
C398 N405 1.356 . S
C399 C398 1.363 . S
C399 C402 1.363 . S
N400 C402 1.356 . S
N400 H412 0.984 . S
N400 H413 0.985 . S
N401 C403 1.356 . S
N401 H406 0.984 . S
N401 H407 0.985 . S
C402 C396 1.379 . S
C402 C399 1.363 . S
C402 N400 1.356 . S
C403 C397 1.363 . S
C403 C398 1.379 . S
C403 N401 1.356 . S
N404 C396 1.356 . S
N404 H410 0.984 . S
N404 H411 0.984 . S
N405 C398 1.356 . S
N405 H408 0.984 . S
N405 H409 0.985 . S
H406 N401 0.984 . S
H407 N401 0.985 . S
H408 N405 0.984 . S
H409 N405 0.985 . S
H410 N404 0.984 . S
H411 N404 0.984 . S
H412 N400 0.984 . S
H413 N400 0.985 . S
C414 C415 1.363 . S
C414 C420 1.379 1_554 S
C414 N422 1.356 . S
C415 C414 1.363 . S
C415 C421 1.363 . S
C416 C417 1.363 . S
C416 C421 1.379 1_556 S
C416 N423 1.356 . S
C417 C416 1.363 . S
C417 C420 1.363 . S
N418 C420 1.356 . S
N418 H430 0.984 . S
N418 H431 0.985 . S
N419 C421 1.356 . S
N419 H424 0.984 . S
N419 H425 0.985 . S
C420 C414 1.379 1_556 S
C420 C417 1.363 . S
C420 N418 1.356 . S
C421 C415 1.363 . S
C421 C416 1.379 1_554 S
C421 N419 1.356 . S
N422 C414 1.356 . S
N422 H428 0.984 . S
N422 H429 0.984 . S
N423 C416 1.356 . S
N423 H426 0.984 . S
N423 H427 0.985 . S
H424 N419 0.984 . S
H425 N419 0.985 . S
H426 N423 0.984 . S
H427 N423 0.985 . S
H428 N422 0.984 . S
H429 N422 0.984 . S
H430 N418 0.984 . S
H431 N418 0.985 . S
C432 C433 1.363 1_565 S
C432 C438 1.379 . S
C432 N440 1.356 . S
C433 C432 1.363 1_545 S
C433 C439 1.363 . S
C434 C435 1.363 . S
C434 C439 1.379 . S
C434 N441 1.356 . S
C435 C434 1.363 . S
C435 C438 1.363 1_545 S
N436 C438 1.356 . S
N436 H448 0.984 . S
N436 H449 0.985 . S
N437 C439 1.356 . S
N437 H442 0.984 . S
N437 H443 0.985 . S
C438 C432 1.379 . S
C438 C435 1.363 1_565 S
C438 N436 1.356 . S
C439 C433 1.363 . S
C439 C434 1.379 . S
C439 N437 1.356 . S
N440 C432 1.356 . S
N440 H446 0.984 . S
N440 H447 0.984 . S
N441 C434 1.356 . S
N441 H444 0.984 . S
N441 H445 0.985 . S
H442 N437 0.984 . S
H443 N437 0.985 . S
H444 N441 0.984 . S
H445 N441 0.985 . S
H446 N440 0.984 . S
H447 N440 0.984 . S
H448 N436 0.984 . S
H449 N436 0.985 . S
C450 C451 1.363 . S
C450 C456 1.379 . S
C450 N458 1.356 . S
C451 C450 1.363 . S
C451 C457 1.363 . S
C452 C453 1.363 . S
C452 C457 1.379 . S
C452 N459 1.356 . S
C453 C452 1.363 . S
C453 C456 1.363 . S
N454 C456 1.356 . S
N454 H466 0.984 . S
N454 H467 0.985 . S
N455 C457 1.356 . S
N455 H460 0.984 . S
N455 H461 0.985 . S
C456 C450 1.379 . S
C456 C453 1.363 . S
C456 N454 1.356 . S
C457 C451 1.363 . S
C457 C452 1.379 . S
C457 N455 1.356 . S
N458 C450 1.356 . S
N458 H464 0.984 . S
N458 H465 0.984 . S
N459 C452 1.356 . S
N459 H462 0.984 . S
N459 H463 0.985 . S
H460 N455 0.984 . S
H461 N455 0.985 . S
H462 N459 0.984 . S
H463 N459 0.985 . S
H464 N458 0.984 . S
H465 N458 0.984 . S
H466 N454 0.984 . S
H467 N454 0.985 . S
C468 C469 1.363 1_565 S
C468 C474 1.379 . S
C468 N476 1.356 . S
C469 C468 1.363 1_545 S
C469 C475 1.363 . S
C470 C471 1.363 . S
C470 C475 1.379 . S
C470 N477 1.356 . S
C471 C470 1.363 . S
C471 C474 1.363 1_545 S
N472 C474 1.356 . S
N472 H484 0.984 . S
N472 H485 0.985 . S
N473 C475 1.356 . S
N473 H478 0.984 . S
N473 H479 0.985 . S
C474 C468 1.379 . S
C474 C471 1.363 1_565 S
C474 N472 1.356 . S
C475 C469 1.363 . S
C475 C470 1.379 . S
C475 N473 1.356 . S
N476 C468 1.356 . S
N476 H482 0.984 . S
N476 H483 0.984 . S
N477 C470 1.356 . S
N477 H480 0.984 . S
N477 H481 0.985 . S
H478 N473 0.984 . S
H479 N473 0.985 . S
H480 N477 0.984 . S
H481 N477 0.985 . S
H482 N476 0.984 . S
H483 N476 0.984 . S
H484 N472 0.984 . S
H485 N472 0.985 . S
C486 C487 1.363 . S
C486 C492 1.379 1_556 S
C486 N494 1.356 . S
C487 C486 1.363 . S
C487 C493 1.363 . S
C488 C489 1.363 . S
C488 C493 1.379 1_554 S
C488 N495 1.356 . S
C489 C488 1.363 . S
C489 C492 1.363 . S
N490 C492 1.356 . S
N490 H502 0.984 . S
N490 H503 0.985 . S
N491 C493 1.356 . S
N491 H496 0.984 . S
N491 H497 0.985 . S
C492 C486 1.379 1_554 S
C492 C489 1.363 . S
C492 N490 1.356 . S
C493 C487 1.363 . S
C493 C488 1.379 1_556 S
C493 N491 1.356 . S
N494 C486 1.356 . S
N494 H500 0.984 . S
N494 H501 0.984 . S
N495 C488 1.356 . S
N495 H498 0.984 . S
N495 H499 0.985 . S
H496 N491 0.984 . S
H497 N491 0.985 . S
H498 N495 0.984 . S
H499 N495 0.985 . S
H500 N494 0.984 . S
H501 N494 0.984 . S
H502 N490 0.984 . S
H503 N490 0.985 . S
C504 C505 1.363 . S
C504 C510 1.379 . S
C504 N512 1.356 . S
C505 C504 1.363 . S
C505 C511 1.363 1_655 S
C506 C507 1.363 . S
C506 C511 1.379 . S
C506 N513 1.356 . S
C507 C506 1.363 . S
C507 C510 1.363 1_455 S
N508 C510 1.356 . S
N508 H520 0.984 . S
N508 H521 0.985 . S
N509 C511 1.356 . S
N509 H514 0.984 . S
N509 H515 0.985 . S
C510 C504 1.379 . S
C510 C507 1.363 1_655 S
C510 N508 1.356 . S
C511 C505 1.363 1_455 S
C511 C506 1.379 . S
C511 N509 1.356 . S
N512 C504 1.356 . S
N512 H518 0.984 . S
N512 H519 0.984 . S
N513 C506 1.356 . S
N513 H516 0.984 . S
N513 H517 0.985 . S
H514 N509 0.984 . S
H515 N509 0.985 . S
H516 N513 0.984 . S
H517 N513 0.985 . S
H518 N512 0.984 . S
H519 N512 0.984 . S
H520 N508 0.984 . S
H521 N508 0.985 . S
C199 C6 0.787 . S
C201 N187 0.809 . S
C217 C59 1.859 . S
C219 N160 1.864 1_655 S
C235 C86 1.383 . S
C237 N173 1.388 1_565 S
C253 C15 1.037 . S
C255 N186 1.150 . S
C273 N161 1.987 . S
C271 C50 1.984 . S
C291 N174 1.510 . S
C289 C95 1.440 . S
C307 C46 1.182 . S
C309 N134 1.185 . S
C325 C99 2.962 . S
C327 N148 2.922 1_655 S
C343 C10 2.012 . S
C345 N122 2.040 . S
C363 N135 1.563 . S
C361 C55 1.477 . S
C381 N147 3.312 . S
C379 C90 3.254 . S
C397 C19 1.861 . S
C399 N121 1.903 . S
C417 N151 1.771 . S
C415 C18 1.774 . S
C433 C49 1.441 . S
C435 N125 1.452 . S
C451 C98 1.465 . S
C453 N138 1.583 . S
C471 N177 1.527 . S
C469 C58 1.436 . S
C489 N190 1.155 . S
C487 C89 1.175 . S
C505 C9 1.386 1_655 S
C507 N164 1.424 . S
