# Generated by pormake.
# Topology cml, (3,6)-cn, num edge types: 1
# Building blocks:
#     Node 0, Type 0, BuildingBlock: ESEHIV_clean_linker_0, # of connection points: 3
#     Node 1, Type 0, BuildingBlock: ESEHIV_clean_linker_0, # of connection points: 3
#     Node 2, Type 0, BuildingBlock: ESEHIV_clean_linker_0, # of connection points: 3
#     Node 3, Type 0, BuildingBlock: ESEHIV_clean_linker_0, # of connection points: 3
#     Node 4, Type 0, BuildingBlock: ESEHIV_clean_linker_0, # of connection points: 3
#     Node 5, Type 0, BuildingBlock: ESEHIV_clean_linker_0, # of connection points: 3
#     Node 6, Type 0, BuildingBlock: ESEHIV_clean_linker_0, # of connection points: 3
#     Node 7, Type 0, BuildingBlock: ESEHIV_clean_linker_0, # of connection points: 3
#     Node 8, Type 1, BuildingBlock: OJICUG_clean_sbu_0, # of connection points: 6
#     Node 9, Type 1, BuildingBlock: OJICUG_clean_sbu_0, # of connection points: 6
#     Node 10, Type 1, BuildingBlock: OJICUG_clean_sbu_0, # of connection points: 6
#     Node 11, Type 1, BuildingBlock: OJICUG_clean_sbu_0, # of connection points: 6
#     Edge 12, Type (0, 1), BuildingBlock: MIFKUJ_clean_linker_0, # of connection points: 2
#     Edge 13, Type (0, 1), BuildingBlock: MIFKUJ_clean_linker_0, # of connection points: 2
#     Edge 14, Type (0, 1), BuildingBlock: MIFKUJ_clean_linker_0, # of connection points: 2
#     Edge 15, Type (0, 1), BuildingBlock: MIFKUJ_clean_linker_0, # of connection points: 2
#     Edge 16, Type (0, 1), BuildingBlock: MIFKUJ_clean_linker_0, # of connection points: 2
#     Edge 17, Type (0, 1), BuildingBlock: MIFKUJ_clean_linker_0, # of connection points: 2
#     Edge 18, Type (0, 1), BuildingBlock: MIFKUJ_clean_linker_0, # of connection points: 2
#     Edge 19, Type (0, 1), BuildingBlock: MIFKUJ_clean_linker_0, # of connection points: 2
#     Edge 20, Type (0, 1), BuildingBlock: MIFKUJ_clean_linker_0, # of connection points: 2
#     Edge 21, Type (0, 1), BuildingBlock: MIFKUJ_clean_linker_0, # of connection points: 2
#     Edge 22, Type (0, 1), BuildingBlock: MIFKUJ_clean_linker_0, # of connection points: 2
#     Edge 23, Type (0, 1), BuildingBlock: MIFKUJ_clean_linker_0, # of connection points: 2
#     Edge 24, Type (0, 1), BuildingBlock: MIFKUJ_clean_linker_0, # of connection points: 2
#     Edge 25, Type (0, 1), BuildingBlock: MIFKUJ_clean_linker_0, # of connection points: 2
#     Edge 26, Type (0, 1), BuildingBlock: MIFKUJ_clean_linker_0, # of connection points: 2
#     Edge 27, Type (0, 1), BuildingBlock: MIFKUJ_clean_linker_0, # of connection points: 2
#     Edge 28, Type (0, 1), BuildingBlock: MIFKUJ_clean_linker_0, # of connection points: 2
#     Edge 29, Type (0, 1), BuildingBlock: MIFKUJ_clean_linker_0, # of connection points: 2
#     Edge 30, Type (0, 1), BuildingBlock: MIFKUJ_clean_linker_0, # of connection points: 2
#     Edge 31, Type (0, 1), BuildingBlock: MIFKUJ_clean_linker_0, # of connection points: 2
#     Edge 32, Type (0, 1), BuildingBlock: MIFKUJ_clean_linker_0, # of connection points: 2
#     Edge 33, Type (0, 1), BuildingBlock: MIFKUJ_clean_linker_0, # of connection points: 2
#     Edge 34, Type (0, 1), BuildingBlock: MIFKUJ_clean_linker_0, # of connection points: 2
#     Edge 35, Type (0, 1), BuildingBlock: MIFKUJ_clean_linker_0, # of connection points: 2
# Relax obj value: 0.072
# Max RMSD: 0.084
# Mean RMSD: 0.079
data_MOF--net-cml--node1-OJICUG_clean_sbu_0--node2-ESEHIV_clean_linker_0--edge1-MIFKUJ_clean_linker_0
_symmetry_space_group_name_H-M    P1
_symmetry_Int_Tables_number       1
_symmetry_cell_setting            triclinic
loop_
_symmetry_equiv_pos_as_xyz
'x, y, z'
_cell_length_a     47.962227
_cell_length_b     48.364751
_cell_length_c     45.744053
_cell_angle_alpha  90.034133
_cell_angle_beta   90.053867
_cell_angle_gamma 90.124895
loop_
_atom_site_label
_atom_site_type_symbol
_atom_site_fract_x
_atom_site_fract_y
_atom_site_fract_z
_atom_type_partial_charge
H0 H 0.30266 0.44388 0.03739 0.0
H1 H 0.25626 0.43236 0.9578 0.0
H2 H 0.25555 0.3695 0.02423 0.0
C3 C 0.2891 0.43146 0.0237 0.0
C4 C 0.28114 0.40508 0.03337 0.0
C5 C 0.28063 0.44153 0.99631 0.0
C6 C 0.26215 0.42547 0.97946 0.0
C7 C 0.25237 0.39975 0.98962 0.0
C8 C 0.26215 0.38967 0.0166 0.0
H9 H 0.69517 0.55897 0.5412 0.0
H10 H 0.75245 0.56193 0.46917 0.0
H11 H 0.7549 0.62501 0.53559 0.0
C12 C 0.71251 0.56882 0.53011 0.0
C13 C 0.72374 0.5934 0.54141 0.0
C14 C 0.72274 0.55732 0.5041 0.0
C15 C 0.7453 0.57003 0.48995 0.0
C16 C 0.75709 0.59447 0.50117 0.0
C17 C 0.74639 0.60583 0.52715 0.0
H18 H 0.68046 0.41968 0.02488 0.0
H19 H 0.74045 0.35377 0.02302 0.0
H20 H 0.74322 0.41797 0.95788 0.0
C21 C 0.69863 0.41007 0.01513 0.0
C22 C 0.71073 0.42173 0.99011 0.0
C23 C 0.70938 0.38566 0.02715 0.0
C24 C 0.73223 0.37276 0.01385 0.0
C25 C 0.74484 0.38459 0.98912 0.0
C26 C 0.73417 0.40926 0.97756 0.0
H27 H 0.30861 0.57526 0.53597 0.0
H28 H 0.25498 0.5792 0.46071 0.0
H29 H 0.24581 0.63833 0.53019 0.0
C30 C 0.29137 0.5847 0.52439 0.0
C31 C 0.27805 0.6079 0.53646 0.0
C32 C 0.28324 0.57419 0.49703 0.0
C33 C 0.26117 0.58687 0.48202 0.0
C34 C 0.2475 0.6099 0.49388 0.0
C35 C 0.25599 0.62025 0.52116 0.0
H36 H 0.80648 0.93689 0.03814 0.0
H37 H 0.7535 0.93292 0.96253 0.0
H38 H 0.74957 0.86898 0.02804 0.0
C39 C 0.79029 0.92651 0.02571 0.0
C40 C 0.77933 0.90143 0.03595 0.0
C41 C 0.78088 0.93814 -0.00057 0.0
C42 C 0.75986 0.92462 0.9835 0.0
C43 C 0.74842 0.89953 0.99352 0.0
C44 C 0.75801 0.88837 0.02011 0.0
H45 H 0.19762 0.05153 0.53514 0.0
H46 H 0.25659 0.06108 0.46527 0.0
H47 H 0.25329 0.12137 0.53429 0.0
C48 C 0.21513 0.06249 0.52561 0.0
C49 C 0.22444 0.08729 0.53834 0.0
C50 C 0.22667 0.05286 0.49933 0.0
C51 C 0.2481 0.06803 0.48596 0.0
C52 C 0.25759 0.09287 0.49835 0.0
C53 C 0.24587 0.10224 0.52465 0.0
H54 H 0.18997 0.92819 0.03358 0.0
H55 H 0.2465 0.85936 0.03406 0.0
H56 H 0.25121 0.92037 0.96566 0.0
C57 C 0.20745 0.91729 0.02399 0.0
C58 C 0.21958 0.92728 0.9982 0.0
C59 C 0.21706 0.89285 0.03704 0.0
C60 C 0.23945 0.87859 0.02441 0.0
C61 C 0.25162 0.88822 0.99838 0.0
C62 C 0.24168 0.91266 0.98554 0.0
H63 H 0.802 0.06961 0.54413 0.0
H64 H 0.74951 0.07524 0.46819 0.0
H65 H 0.74314 0.13606 0.53653 0.0
C66 C 0.78547 0.07982 0.53214 0.0
C67 C 0.77334 0.10384 0.54371 0.0
C68 C 0.77725 0.06949 0.50476 0.0
C69 C 0.75594 0.08301 0.48937 0.0
C70 C 0.74338 0.10694 0.50068 0.0
C71 C 0.75226 0.11728 0.52788 0.0
Sc72 Sc 0.99448 0.78713 0.3048 0.0
Sc73 Sc 0.99198 0.85944 0.31362 0.0
Sc74 Sc 0.99057 0.81653 0.37517 0.0
O75 O 0.99233 0.821 0.33117 0.0
C76 C 0.95129 0.76799 0.35423 0.0
C77 C 0.95237 0.82547 0.26995 0.0
C78 C 0.9487 0.86706 0.36511 0.0
C79 C 0.03612 0.82929 0.27314 0.0
C80 C 0.03382 0.7692 0.35671 0.0
C81 C 0.03208 0.86717 0.36906 0.0
O82 O 0.96424 0.76426 0.33028 0.0
O83 O 0.96278 0.84771 0.28008 0.0
O84 O 0.95989 0.84853 0.38088 0.0
O85 O 0.02537 0.80541 0.27627 0.0
O86 O 0.02081 0.78375 0.37537 0.0
O87 O 0.02121 0.87538 0.34523 0.0
O88 O 0.02826 0.76958 0.32954 0.0
O89 O 0.02701 0.85057 0.28623 0.0
O90 O 0.02421 0.84531 0.38212 0.0
O91 O 0.96074 0.8016 0.27764 0.0
O92 O 0.95697 0.78746 0.37192 0.0
O93 O 0.95697 0.87248 0.33939 0.0
Sc94 Sc 0.00325 0.21027 0.80421 0.0
Sc95 Sc -4e-05 0.1381 0.81487 0.0
Sc96 Sc 0.00656 0.18216 0.87527 0.0
O97 O 0.00325 0.17689 0.8314 0.0
C98 C 0.04938 0.22686 0.85195 0.0
C99 C 0.04108 0.16751 0.76938 0.0
C100 C 0.04391 0.12834 0.8656 0.0
C101 C 0.95759 0.17097 0.77427 0.0
C102 C 0.96707 0.2325 0.85696 0.0
C103 C 0.96075 0.13482 0.87131 0.0
O104 O 0.03648 0.23078 0.82797 0.0
O105 O 0.02957 0.14652 0.78096 0.0
O106 O 0.03506 0.14839 0.88087 0.0
O107 O 0.96981 0.19416 0.77737 0.0
O108 O 0.97894 0.21692 0.87547 0.0
O109 O 0.96995 0.12556 0.84716 0.0
O110 O 0.97206 0.23149 0.82968 0.0
O111 O 0.9656 0.14917 0.78722 0.0
O112 O 0.97105 0.15596 0.88392 0.0
O113 O 0.03449 0.19223 0.77596 0.0
O114 O 0.04211 0.20873 0.87055 0.0
O115 O 0.03403 0.12255 0.84057 0.0
Sc116 Sc 0.4943 0.28565 0.30521 0.0
Sc117 Sc 0.50013 0.35817 0.30877 0.0
Sc118 Sc 0.4958 0.31938 0.37329 0.0
O119 O 0.49669 0.32104 0.32906 0.0
C120 C 0.45109 0.27386 0.35724 0.0
C121 C 0.45659 0.32587 0.26779 0.0
C122 C 0.45879 0.37305 0.36022 0.0
C123 C 0.53948 0.32108 0.26967 0.0
C124 C 0.53326 0.26681 0.35726 0.0
C125 C 0.54177 0.3653 0.36301 0.0
O126 O 0.4625 0.26791 0.33294 0.0
O127 O 0.46996 0.34738 0.27563 0.0
O128 O 0.46865 0.3546 0.37708 0.0
O129 O 0.52588 0.29892 0.27447 0.0
O130 O 0.52258 0.28393 0.37508 0.0
O131 O 0.53105 0.37345 0.33909 0.0
O132 O 0.52681 0.26598 0.3303 0.0
O133 O 0.53377 0.34393 0.28195 0.0
O134 O 0.5323 0.34486 0.37733 0.0
O135 O 0.46149 0.30195 0.27805 0.0
O136 O 0.45957 0.29345 0.3735 0.0
O137 O 0.46676 0.37599 0.33391 0.0
Sc138 Sc 0.50152 0.71404 0.80241 0.0
Sc139 Sc 0.49836 0.6413 0.80747 0.0
Sc140 Sc 0.50834 0.68094 0.87085 0.0
O141 O 0.50273 0.67882 0.82689 0.0
C142 C 0.54883 0.7288 0.84926 0.0
C143 C 0.54 0.67332 0.76488 0.0
C144 C 0.54413 0.62789 0.85614 0.0
C145 C 0.4561 0.67728 0.7694 0.0
C146 C 0.46638 0.73089 0.85852 0.0
C147 C 0.46093 0.63463 0.86409 0.0
O148 O 0.53583 0.73306 0.82547 0.0
O149 O 0.52994 0.65127 0.77588 0.0
O150 O 0.53943 0.64922 0.87144 0.0
O151 O 0.46673 0.70054 0.77593 0.0
O152 O 0.47834 0.71346 0.87508 0.0
O153 O 0.46628 0.62912 0.83752 0.0
O154 O 0.47175 0.73322 0.83137 0.0
O155 O 0.46573 0.65466 0.77897 0.0
O156 O 0.4751 0.6517 0.87927 0.0
O157 O 0.53152 0.69743 0.7718 0.0
O158 O 0.54184 0.71014 0.86734 0.0
O159 O 0.53022 0.62183 0.83341 0.0
H160 H 0.20874 0.41817 0.95618 0.0
H161 H 0.17657 0.39077 0.92663 0.0
H162 H 0.21843 0.3161 0.95351 0.0
H163 H 0.25188 0.34345 0.98146 0.0
H164 H 0.2055 0.31204 0.89851 0.0
H165 H 0.15598 0.33871 0.98527 0.0
H166 H 0.13708 0.371 0.02195 0.0
H167 H 0.08866 0.41122 0.95546 0.0
H168 H 0.10757 0.37937 0.9183 0.0
H169 H 0.09369 0.21476 0.88686 0.0
H170 H 0.13029 0.24635 0.90358 0.0
H171 H 0.09445 0.31198 0.85214 0.0
H172 H 0.05799 0.28028 0.83474 0.0
H173 H 0.10387 0.32317 0.91482 0.0
H174 H 0.15096 0.29104 0.8292 0.0
H175 H 0.16819 0.25543 0.7953 0.0
H176 H 0.22031 0.22209 0.86298 0.0
H177 H 0.20289 0.25722 0.89753 0.0
C178 C 0.21141 0.39595 0.95547 0.0
C179 C 0.2328 0.38304 0.97148 0.0
C180 C 0.19277 0.38027 0.9388 0.0
C181 C 0.19473 0.35131 0.93826 0.0
C182 C 0.21639 0.3384 0.9537 0.0
C183 C 0.23529 0.35408 0.97004 0.0
C184 C 0.17388 0.33437 0.92222 0.0
C185 C 0.1833 0.31437 0.90227 0.0
C186 C 0.14483 0.3377 0.92666 0.0
C187 C 0.13344 0.35687 0.94896 0.0
C188 C 0.14147 0.35458 0.97844 0.0
C189 C 0.13073 0.37278 -0.00068 0.0
C190 C 0.11175 0.39321 0.99103 0.0
C191 C 0.10341 0.39543 0.96184 0.0
C192 C 0.11412 0.3773 0.94087 0.0
C193 C 0.09382 0.23582 0.8788 0.0
C194 C 0.07299 0.24511 0.85955 0.0
C195 C 0.11475 0.25378 0.8883 0.0
C196 C 0.11497 0.2814 0.87905 0.0
C197 C 0.09456 0.29067 0.85941 0.0
C198 C 0.07389 0.27254 0.84942 0.0
C199 C 0.13558 0.30086 0.89147 0.0
C200 C 0.12608 0.32121 0.91083 0.0
C201 C 0.1645 0.29752 0.88686 0.0
C202 C 0.17542 0.27664 0.86604 0.0
C203 C 0.16592 0.27598 0.83694 0.0
C204 C 0.17576 0.25589 0.81759 0.0
C205 C 0.19532 0.23646 0.82697 0.0
C206 C 0.20514 0.23714 0.85574 0.0
C207 C 0.1953 0.25716 0.87522 0.0
H208 H 0.2029 0.22089 0.81196 0.0
H209 H 0.10344 0.40727 0.00723 0.0
H210 H 0.75944 0.6499 0.49063 0.0
H211 H 0.79301 0.67488 0.46069 0.0
H212 H 0.8357 0.59856 0.44156 0.0
H213 H 0.80256 0.57337 0.47256 0.0
H214 H 0.87204 0.63996 0.45326 0.0
H215 H 0.79429 0.62672 0.3906 0.0
H216 H 0.7448 0.62675 0.37601 0.0
H217 H 0.74179 0.71493 0.38643 0.0
H218 H 0.79116 0.7154 0.40154 0.0
H219 H 0.94937 0.71274 0.34229 0.0
H220 H 0.91625 0.6788 0.36212 0.0
H221 H 0.8715 0.74437 0.40534 0.0
H222 H 0.90482 0.77822 0.38629 0.0
H223 H 0.83742 0.70239 0.37519 0.0
H224 H 0.91458 0.71344 0.44304 0.0
H225 H 0.96408 0.71237 0.45746 0.0
H226 H 0.96801 0.62596 0.43631 0.0
H227 H 0.91874 0.62675 0.42081 0.0
C228 C 0.77623 0.63843 0.48051 0.0
C229 C 0.77843 0.60966 0.48407 0.0
C230 C 0.79518 0.6527 0.46306 0.0
C231 C 0.81652 0.63849 0.4485 0.0
C232 C 0.81923 0.60985 0.45246 0.0
C233 C 0.80025 0.59551 0.47003 0.0
C234 C 0.83596 0.65385 0.42935 0.0
C235 C 0.86456 0.65314 0.43575 0.0
C236 C 0.82611 0.67116 0.40665 0.0
C237 C 0.79642 0.67106 0.39739 0.0
C238 C 0.78303 0.6461 0.38998 0.0
C239 C 0.755 0.64603 0.38159 0.0
C240 C 0.74015 0.67082 0.38034 0.0
C241 C 0.75332 0.69574 0.38742 0.0
C242 C 0.78135 0.69593 0.39586 0.0
C243 C 0.93219 0.7199 0.35564 0.0
C244 C 0.92964 0.74802 0.36292 0.0
C245 C 0.91342 0.70054 0.36698 0.0
C246 C 0.89163 0.7092 0.38521 0.0
C247 C 0.88823 0.7374 0.39126 0.0
C248 C 0.90729 0.75664 0.38049 0.0
C249 C 0.87325 0.68891 0.39961 0.0
C250 C 0.84489 0.68874 0.3923 0.0
C251 C 0.88336 0.67062 0.42126 0.0
C252 C 0.91309 0.67027 0.43024 0.0
C253 C 0.92612 0.69432 0.44096 0.0
C254 C 0.95414 0.69376 0.44937 0.0
C255 C 0.96926 0.66917 0.44758 0.0
C256 C 0.95636 0.64507 0.43743 0.0
C257 C 0.9284 0.64557 0.42877 0.0
H258 H 0.99091 0.66876 0.45423 0.0
H259 H 0.71845 0.67073 0.37384 0.0
H260 H 0.74834 0.33054 0.97316 0.0
H261 H 0.78719 0.30751 0.94869 0.0
H262 H 0.83336 0.38424 0.94817 0.0
H263 H 0.79414 0.40752 0.97197 0.0
H264 H 0.84007 0.35872 0.89801 0.0
H265 H 0.8471 0.33339 0.9987 0.0
H266 H 0.83056 0.31544 0.04607 0.0
H267 H 0.81396 0.23642 0.00683 0.0
H268 H 0.83004 0.25403 0.9591 0.0
H269 H 0.96593 0.25575 0.91083 0.0
H270 H 0.93013 0.28556 0.93143 0.0
H271 H 0.88507 0.28302 0.8497 0.0
H272 H 0.92161 0.25384 0.82855 0.0
H273 H 0.87936 0.27351 0.94191 0.0
H274 H 0.84432 0.34048 0.84323 0.0
H275 H 0.8647 0.36172 0.7991 0.0
H276 H 0.9452 0.36341 0.84022 0.0
H277 H 0.92525 0.34253 0.88472 0.0
C278 C 0.76686 0.34241 0.96792 0.0
C279 C 0.76845 0.37068 0.97464 0.0
C280 C 0.78899 0.32928 0.95393 0.0
C281 C 0.81332 0.34408 0.94699 0.0
C282 C 0.81477 0.37245 0.95331 0.0
C283 C 0.79246 0.38568 0.96696 0.0
C284 C 0.83745 0.32979 0.93372 0.0
C285 C 0.84872 0.3401 0.90758 0.0
C286 C 0.84907 0.30584 0.94656 0.0
C287 C 0.83954 0.29511 0.97527 0.0
C288 C 0.83975 0.31224 0.00013 0.0
C289 C 0.83047 0.30212 0.02705 0.0
C290 C 0.82115 0.27483 0.02944 0.0
C291 C 0.82115 0.25757 0.00493 0.0
C292 C 0.83037 0.2676 0.97795 0.0
C293 C 0.94854 0.26178 0.89713 0.0
C294 C 0.94642 0.25236 0.86815 0.0
C295 C 0.92808 0.27879 0.90894 0.0
C296 C 0.90489 0.28651 0.89216 0.0
C297 C 0.90299 0.27766 0.86294 0.0
C298 C 0.9238 0.26094 0.8509 0.0
C299 C 0.88203 0.30232 0.90604 0.0
C300 C 0.87084 0.29218 0.93229 0.0
C301 C 0.87115 0.32688 0.89376 0.0
C302 C 0.88332 0.33966 0.86718 0.0
C303 C 0.86635 0.34547 0.84289 0.0
C304 C 0.87783 0.35743 0.8178 0.0
C305 C 0.90624 0.36382 0.81682 0.0
C306 C 0.92322 0.35835 0.84096 0.0
C307 C 0.91184 0.34641 0.8661 0.0
H308 H 0.91509 0.37307 0.79738 0.0
H309 H 0.81397 0.26704 0.0503 0.0
H310 H 0.24764 0.62353 0.43598 0.0
H311 H 0.2113 0.64769 0.40859 0.0
H312 H 0.16111 0.65272 0.48663 0.0
H313 H 0.19716 0.62799 0.51404 0.0
H314 H 0.13042 0.63782 0.43823 0.0
H315 H 0.19799 0.70744 0.46498 0.0
H316 H 0.24494 0.72818 0.46759 0.0
H317 H 0.2493 0.72991 0.37385 0.0
H318 H 0.2025 0.70879 0.37069 0.0
H319 H 0.04056 0.74977 0.41205 0.0
H320 H 0.07718 0.71944 0.4303 0.0
H321 H 0.11414 0.71656 0.34444 0.0
H322 H 0.07722 0.74688 0.32574 0.0
H323 H 0.15229 0.72777 0.39122 0.0
H324 H 0.083 0.66218 0.36435 0.0
H325 H 0.03589 0.64192 0.3616 0.0
H326 H 0.03453 0.63269 0.45493 0.0
H327 H 0.08149 0.65341 0.45832 0.0
C328 C 0.2287 0.62948 0.44721 0.0
C329 C 0.22519 0.62392 0.47715 0.0
C330 C 0.20808 0.64344 0.43159 0.0
C331 C 0.18368 0.65216 0.44568 0.0
C332 C 0.17985 0.64616 0.47541 0.0
C333 C 0.2005 0.63226 0.49107 0.0
C334 C 0.16235 0.66812 0.42962 0.0
C335 C 0.13512 0.65759 0.42814 0.0
C336 C 0.16879 0.69349 0.41574 0.0
C337 C 0.1969 0.70623 0.4176 0.0
C338 C 0.20907 0.71201 0.44492 0.0
C339 C 0.23563 0.72388 0.4465 0.0
C340 C 0.25013 0.73028 0.4209 0.0
C341 C 0.23806 0.72489 0.39366 0.0
C342 C 0.21152 0.71298 0.39196 0.0
C343 C 0.05645 0.74273 0.39698 0.0
C344 C 0.05603 0.75072 0.36744 0.0
C345 C 0.07725 0.72529 0.40743 0.0
C346 C 0.09814 0.71568 0.38863 0.0
C347 C 0.09805 0.72376 0.35919 0.0
C348 C 0.07695 0.74096 0.34857 0.0
C349 C 0.12032 0.69767 0.40026 0.0
C350 C 0.14769 0.70783 0.40096 0.0
C351 C 0.11402 0.67197 0.41341 0.0
C352 C 0.08571 0.65957 0.41159 0.0
C353 C 0.07257 0.6561 0.38433 0.0
C354 C 0.04591 0.64449 0.38265 0.0
C355 C 0.03223 0.63606 0.40807 0.0
C356 C 0.04517 0.63925 0.43525 0.0
C357 C 0.07182 0.65091 0.43706 0.0
H358 H 0.01165 0.62697 0.40667 0.0
H359 H 0.27069 0.73948 0.42216 0.0
H360 H 0.74547 0.84357 0.98497 0.0
H361 H 0.7125 0.81798 0.955 0.0
H362 H 0.6736 0.89436 0.92854 0.0
H363 H 0.70545 0.92016 0.96028 0.0
H364 H 0.63527 0.85802 0.93905 0.0
H365 H 0.71773 0.85727 0.88197 0.0
H366 H 0.7677 0.85125 0.87116 0.0
H367 H 0.76147 0.76483 0.89167 0.0
H368 H 0.71154 0.7704 0.90301 0.0
H369 H 0.55753 0.78214 0.83173 0.0
H370 H 0.59322 0.81423 0.8499 0.0
H371 H 0.62834 0.74924 0.90279 0.0
H372 H 0.59256 0.71719 0.88519 0.0
H373 H 0.6685 0.78448 0.87191 0.0
H374 H 0.58644 0.789 0.93481 0.0
H375 H 0.53624 0.79617 0.94351 0.0
H376 H 0.54225 0.87816 0.90806 0.0
H377 H 0.59246 0.87128 0.89873 0.0
C378 C 0.72963 0.85501 0.97325 0.0
C379 C 0.72808 0.88399 0.97522 0.0
C380 C 0.71107 0.84032 0.95563 0.0
C381 C 0.69095 0.85426 0.93896 0.0
C382 C 0.68912 0.88317 0.94101 0.0
C383 C 0.70748 0.8979 0.95899 0.0
C384 C 0.67139 0.8384 0.92018 0.0
C385 C 0.64262 0.84238 0.92391 0.0
C386 C 0.68087 0.81784 0.90047 0.0
C387 C 0.7109 0.81431 0.89353 0.0
C388 C 0.72705 0.83702 0.88436 0.0
C389 C 0.75537 0.83368 0.87811 0.0
C390 C 0.76776 0.80768 0.88077 0.0
C391 C 0.75184 0.78496 0.88962 0.0
C392 C 0.72352 0.78819 0.89593 0.0
C393 C 0.57314 0.77459 0.84687 0.0
C394 C 0.57217 0.74724 0.85724 0.0
C395 C 0.59342 0.79294 0.85724 0.0
C396 C 0.61322 0.78404 0.87774 0.0
C397 C 0.6132 0.75641 0.88693 0.0
C398 C 0.59268 0.7382 0.87699 0.0
C399 C 0.63273 0.80384 0.89139 0.0
C400 C 0.66137 0.80054 0.88667 0.0
C401 C 0.62317 0.82528 0.90982 0.0
C402 C 0.5931 0.82951 0.91574 0.0
C403 C 0.577 0.80846 0.92864 0.0
C404 C 0.54856 0.81249 0.93372 0.0
C405 C 0.53604 0.83757 0.92625 0.0
C406 C 0.55197 0.85872 0.91377 0.0
C407 C 0.58041 0.85477 0.90859 0.0
H408 H 0.51402 0.84065 0.93021 0.0
H409 H 0.78969 0.80514 0.87593 0.0
H410 H 0.25416 0.14791 0.48689 0.0
H411 H 0.2871 0.1764 0.45933 0.0
H412 H 0.33987 0.10535 0.44622 0.0
H413 H 0.30693 0.07665 0.47399 0.0
H414 H 0.36887 0.15293 0.46381 0.0
H415 H 0.30257 0.12528 0.39134 0.0
H416 H 0.25561 0.11844 0.37056 0.0
H417 H 0.24105 0.20596 0.37375 0.0
H418 H 0.28779 0.21329 0.39499 0.0
H419 H 0.4257 0.23033 0.32929 0.0
H420 H 0.39215 0.19764 0.3501 0.0
H421 H 0.39168 0.24391 0.43069 0.0
H422 H 0.42507 0.27664 0.41031 0.0
H423 H 0.33863 0.20365 0.37493 0.0
H424 H 0.39558 0.1966 0.48611 0.0
H425 H 0.4431 0.20248 0.50589 0.0
H426 H 0.4778 0.18088 0.42247 0.0
H427 H 0.43052 0.17444 0.40233 0.0
C428 C 0.27292 0.13843 0.47837 0.0
C429 C 0.27812 0.11014 0.48261 0.0
C430 C 0.29156 0.15464 0.46246 0.0
C431 C 0.31571 0.14285 0.45058 0.0
C432 C 0.32124 0.11472 0.45518 0.0
C433 C 0.30244 0.0984 0.47089 0.0
C434 C 0.33522 0.16012 0.43357 0.0
C435 C 0.36233 0.16392 0.44431 0.0
C436 C 0.32668 0.17411 0.40793 0.0
C437 C 0.29862 0.16981 0.39497 0.0
C438 C 0.28928 0.14305 0.38783 0.0
C439 C 0.26271 0.13909 0.37593 0.0
C440 C 0.24534 0.16174 0.37089 0.0
C441 C 0.25453 0.18842 0.37768 0.0
C442 C 0.28107 0.1925 0.38962 0.0
C443 C 0.41823 0.23376 0.35132 0.0
C444 C 0.42836 0.25595 0.36823 0.0
C445 C 0.39903 0.2151 0.36311 0.0
C446 C 0.38987 0.21822 0.39201 0.0
C447 C 0.39886 0.24101 0.40845 0.0
C448 C 0.41791 0.25973 0.39669 0.0
C449 C 0.37198 0.19699 0.40565 0.0
C450 C 0.3452 0.19248 0.39431 0.0
C451 C 0.38091 0.18212 0.43058 0.0
C452 C 0.40948 0.18528 0.44267 0.0
C453 C 0.41335 0.19295 0.47204 0.0
C454 C 0.44025 0.19641 0.4833 0.0
C455 C 0.46345 0.19213 0.46542 0.0
C456 C 0.45981 0.18427 0.43627 0.0
C457 C 0.43296 0.18074 0.42492 0.0
H458 H 0.48425 0.19487 0.47417 0.0
H459 H 0.22478 0.15863 0.36168 0.0
H460 H 0.29767 0.86464 0.02319 0.0
H461 H 0.33452 0.83857 0.99843 0.0
H462 H 0.29245 0.84987 0.91589 0.0
H463 H 0.25536 0.87541 0.94054 0.0
H464 H 0.31043 0.79683 0.92332 0.0
H465 H 0.34781 0.88867 0.93185 0.0
H466 H 0.36153 0.93139 0.9576 0.0
H467 H 0.41881 0.88536 0.01075 0.0
H468 H 0.40512 0.84227 0.9856 0.0
H469 H 0.42394 0.75851 0.83113 0.0
H470 H 0.38744 0.7864 0.85428 0.0
H471 H 0.42464 0.77199 0.93877 0.0
H472 H 0.46096 0.74409 0.91602 0.0
H473 H 0.40919 0.82723 0.92925 0.0
H474 H 0.37113 0.73541 0.92184 0.0
H475 H 0.35792 0.69256 0.89601 0.0
H476 H 0.30213 0.73844 0.84101 0.0
H477 H 0.31542 0.78168 0.86614 0.0
C478 C 0.29624 0.86138 -0.00019 0.0
C479 C 0.27382 0.8722 0.98373 0.0
C480 C 0.31734 0.84669 0.98569 0.0
C481 C 0.31628 0.8426 0.95532 0.0
C482 C 0.29366 0.85292 0.93933 0.0
C483 C 0.27264 0.86768 0.95339 0.0
C484 C 0.33882 0.82759 0.94013 0.0
C485 C 0.33197 0.80367 0.92427 0.0
C486 C 0.36694 0.83631 0.94189 0.0
C487 C 0.37522 0.8622 0.95705 0.0
C488 C 0.36315 0.88762 0.94921 0.0
C489 C 0.37095 0.91191 0.96366 0.0
C490 C 0.39097 0.91108 0.98585 0.0
C491 C 0.40327 0.88596 0.99359 0.0
C492 C 0.39551 0.8616 0.97923 0.0
C493 C 0.42443 0.76148 0.8546 0.0
C494 C 0.44518 0.74899 0.87179 0.0
C495 C 0.40357 0.77729 0.86776 0.0
C496 C 0.40337 0.78101 0.89819 0.0
C497 C 0.4245 0.76928 0.91525 0.0
C498 C 0.44512 0.75325 0.90221 0.0
C499 C 0.38076 0.79654 0.9125 0.0
C500 C 0.38761 0.8205 0.92822 0.0
C501 C 0.35266 0.78784 0.91066 0.0
C502 C 0.34452 0.76184 0.89564 0.0
C503 C 0.35624 0.73641 0.90405 0.0
C504 C 0.34871 0.71204 0.88958 0.0
C505 C 0.32925 0.71279 0.86686 0.0
C506 C 0.31724 0.7379 0.85859 0.0
C507 C 0.32477 0.76235 0.87293 0.0
H508 H 0.32343 0.6939 0.85569 0.0
H509 H 0.397 0.92991 0.99701 0.0
H510 H 0.69499 0.12991 0.52088 0.0
H511 H 0.65928 0.154 0.49263 0.0
H512 H 0.70626 0.14025 0.41357 0.0
H513 H 0.74268 0.11726 0.44185 0.0
H514 H 0.68746 0.1914 0.41499 0.0
H515 H 0.64768 0.10197 0.42897 0.0
H516 H 0.6325 0.06081 0.45651 0.0
H517 H 0.57524 0.11048 0.50583 0.0
H518 H 0.59036 0.15203 0.47887 0.0
H519 H 0.57241 0.23703 0.32688 0.0
H520 H 0.608 0.20616 0.34733 0.0
H521 H 0.57629 0.22132 0.43407 0.0
H522 H 0.54093 0.25203 0.41404 0.0
H523 H 0.58757 0.16571 0.42336 0.0
H524 H 0.63151 0.25552 0.41222 0.0
H525 H 0.64654 0.29639 0.38409 0.0
H526 H 0.69583 0.24465 0.32811 0.0
H527 H 0.68075 0.2034 0.35569 0.0
C528 C 0.69784 0.13222 0.49752 0.0
C529 C 0.72159 0.12153 0.4836 0.0
C530 C 0.67726 0.14571 0.48135 0.0
C531 C 0.67988 0.14848 0.45091 0.0
C532 C 0.70372 0.13814 0.437 0.0
C533 C 0.72438 0.1248 0.45317 0.0
C534 C 0.658 0.16273 0.43375 0.0
C535 C 0.66568 0.18544 0.4164 0.0
C536 C 0.62955 0.15513 0.4358 0.0
C537 C 0.62033 0.13016 0.45204 0.0
C538 C 0.632 0.10416 0.44583 0.0
C539 C 0.62338 0.08075 0.46132 0.0
C540 C 0.60296 0.08304 0.48295 0.0
C541 C 0.59107 0.10874 0.48909 0.0
C542 C 0.59964 0.13222 0.47368 0.0
C543 C 0.57293 0.2336 0.35027 0.0
C544 C 0.55402 0.24713 0.36887 0.0
C545 C 0.59327 0.21605 0.3619 0.0
C546 C 0.59478 0.21165 0.39219 0.0
C547 C 0.57542 0.22447 0.41063 0.0
C548 C 0.55535 0.24216 0.39913 0.0
C549 C 0.61705 0.19452 0.40515 0.0
C550 C 0.60942 0.17132 0.42168 0.0
C551 C 0.64553 0.20156 0.40223 0.0
C552 C 0.65474 0.22636 0.38578 0.0
C553 C 0.64536 0.25284 0.39376 0.0
C554 C 0.65392 0.27608 0.37795 0.0
C555 C 0.67206 0.27311 0.35427 0.0
C556 C 0.68174 0.24691 0.34641 0.0
C557 C 0.6732 0.2236 0.36213 0.0
H558 H 0.67867 0.29113 0.34205 0.0
H559 H 0.59632 0.06488 0.49491 0.0
H560 H 0.25645 0.48021 0.95974 0.0
H561 H 0.27919 0.51998 0.93659 0.0
H562 H 0.35488 0.50245 0.98373 0.0
H563 H 0.33351 0.46172 0.00511 0.0
H564 H 0.33275 0.56395 0.97937 0.0
H565 H 0.35832 0.47843 0.92489 0.0
H566 H 0.34446 0.43672 0.89734 0.0
H567 H 0.29742 0.4868 0.83759 0.0
H568 H 0.31071 0.52876 0.86513 0.0
H569 H 0.45546 0.61876 0.92094 0.0
H570 H 0.41693 0.59299 0.94274 0.0
H571 H 0.37305 0.59467 0.86023 0.0
H572 H 0.41243 0.61894 0.83798 0.0
H573 H 0.36883 0.54696 0.87934 0.0
H574 H 0.35148 0.63313 0.92369 0.0
H575 H 0.36129 0.67667 0.94986 0.0
H576 H 0.38575 0.63096 0.02606 0.0
H577 H 0.37646 0.58711 0.00029 0.0
C578 C 0.27797 0.48467 0.96514 0.0
C579 C 0.29302 0.46752 0.9844 0.0
C580 C 0.29075 0.50763 0.95216 0.0
C581 C 0.31854 0.51414 0.95876 0.0
C582 C 0.33324 0.4979 0.97879 0.0
C583 C 0.32081 0.47464 0.99115 0.0
C584 C 0.33356 0.53604 0.9428 0.0
C585 C 0.34067 0.56049 0.95747 0.0
C586 C 0.34281 0.53176 0.9139 0.0
C587 C 0.3352 0.50661 0.89723 0.0
C588 C 0.34482 0.48048 0.90603 0.0
C589 C 0.33711 0.45682 0.8904 0.0
C590 C 0.31999 0.4591 0.86578 0.0
C591 C 0.31063 0.48506 0.8567 0.0
C592 C 0.31824 0.50878 0.8723 0.0
C593 C 0.43748 0.61379 0.90758 0.0
C594 C 0.43695 0.62065 0.87779 0.0
C595 C 0.41529 0.5993 0.92009 0.0
C596 C 0.39172 0.59225 0.90332 0.0
C597 C 0.39094 0.59979 0.87368 0.0
C598 C 0.41345 0.61363 0.86097 0.0
C599 C 0.36908 0.57505 0.91612 0.0
C600 C 0.3605 0.55124 0.90091 0.0
C601 C 0.35785 0.58044 0.94423 0.0
C602 C 0.36339 0.60678 0.95996 0.0
C603 C 0.35911 0.63233 0.94597 0.0
C604 C 0.36457 0.65708 0.96074 0.0
C605 C 0.37418 0.65657 0.98957 0.0
C606 C 0.3783 0.63132 0.00373 0.0
C607 C 0.37289 0.6065 0.98907 0.0
H608 H 0.3784 0.67576 0.00096 0.0
H609 H 0.31404 0.44076 0.8537 0.0
H610 H 0.74486 0.51099 0.47828 0.0
H611 H 0.71926 0.47334 0.45406 0.0
H612 H 0.64151 0.514 0.4738 0.0
H613 H 0.66674 0.55131 0.49788 0.0
H614 H 0.63751 0.46064 0.48483 0.0
H615 H 0.67163 0.51826 0.40621 0.0
H616 H 0.70796 0.54179 0.37725 0.0
H617 H 0.7461 0.46361 0.35813 0.0
H618 H 0.71018 0.43964 0.38734 0.0
H619 H 0.56159 0.41581 0.34581 0.0
H620 H 0.5981 0.44329 0.36911 0.0
H621 H 0.61325 0.37732 0.43052 0.0
H622 H 0.5763 0.3499 0.4078 0.0
H623 H 0.65265 0.43892 0.38001 0.0
H624 H 0.62498 0.40563 0.49727 0.0
H625 H 0.58514 0.38662 0.52491 0.0
H626 H 0.52815 0.42396 0.46426 0.0
H627 H 0.56764 0.44346 0.43651 0.0
C628 C 0.7223 0.51178 0.47744 0.0
C629 C 0.70777 0.53393 0.49019 0.0
C630 C 0.70774 0.49032 0.46363 0.0
C631 C 0.67849 0.49093 0.46212 0.0
C632 C 0.66405 0.51297 0.47498 0.0
C633 C 0.67851 0.53424 0.48882 0.0
C634 C 0.66252 0.46909 0.44674 0.0
C635 C 0.64104 0.45567 0.462 0.0
C636 C 0.66693 0.46284 0.41688 0.0
C637 C 0.68843 0.4772 0.39923 0.0
C638 C 0.68789 0.50611 0.39602 0.0
C639 C 0.70839 0.51953 0.37953 0.0
C640 C 0.72938 0.50421 0.36594 0.0
C641 C 0.72986 0.47544 0.36873 0.0
C642 C 0.70944 0.46194 0.38524 0.0
C643 C 0.57285 0.407 0.36409 0.0
C644 C 0.56569 0.38084 0.37526 0.0
C645 C 0.59383 0.42269 0.37728 0.0
C646 C 0.60811 0.41249 0.40177 0.0
C647 C 0.60215 0.38575 0.41193 0.0
C648 C 0.58098 0.37014 0.39893 0.0
C649 C 0.62745 0.43081 0.41804 0.0
C650 C 0.64954 0.44348 0.403 0.0
C651 C 0.62317 0.437 0.44794 0.0
C652 C 0.59926 0.42568 0.46465 0.0
C653 C 0.60394 0.40982 0.4899 0.0
C654 C 0.58142 0.39896 0.50558 0.0
C655 C 0.55413 0.40399 0.49628 0.0
C656 C 0.5493 0.41999 0.47137 0.0
C657 C 0.57173 0.43092 0.45565 0.0
H658 H 0.53674 0.39554 0.50843 0.0
H659 H 0.74522 0.51463 0.35318 0.0
H660 H 0.7346 0.471 0.97492 0.0
H661 H 0.71219 0.50967 0.949 0.0
H662 H 0.63517 0.46358 0.9456 0.0
H663 H 0.65717 0.42536 0.97201 0.0
H664 H 0.65763 0.48952 0.88937 0.0
H665 H 0.63513 0.50757 0.9925 0.0
H666 H 0.64864 0.51634 0.04371 0.0
H667 H 0.69667 0.58692 0.0169 0.0
H668 H 0.68375 0.57829 0.96543 0.0
H669 H 0.54355 0.57189 0.85297 0.0
H670 H 0.57804 0.53996 0.87265 0.0
H671 H 0.6293 0.60897 0.89969 0.0
H672 H 0.5937 0.641 0.88173 0.0
H673 H 0.62884 0.57514 0.94081 0.0
H674 H 0.6451 0.56401 0.83958 0.0
H675 H 0.63344 0.55662 0.78769 0.0
H676 H 0.60301 0.47524 0.80734 0.0
H677 H 0.61356 0.48239 0.85954 0.0
C678 C 0.71286 0.46933 0.96872 0.0
C679 C 0.69744 0.44547 0.97555 0.0
C680 C 0.70017 0.49127 0.95395 0.0
C681 C 0.67216 0.48925 0.94542 0.0
C682 C 0.65686 0.46535 0.95202 0.0
C683 C 0.66932 0.44372 0.96724 0.0
C684 C 0.65834 0.51207 0.92986 0.0
C685 C 0.65121 0.5083 0.90043 0.0
C686 C 0.65118 0.53687 0.94421 0.0
C687 C 0.65879 0.54207 0.97512 0.0
C688 C 0.64881 0.52478 0.9975 0.0
C689 C 0.6563 0.52977 0.02657 0.0
C690 C 0.67359 0.55212 0.03355 0.0
C691 C 0.68334 0.56958 0.01146 0.0
C692 C 0.67593 0.56466 0.98235 0.0
C693 C 0.56232 0.58019 0.86286 0.0
C694 C 0.56607 0.60881 0.86585 0.0
C695 C 0.58216 0.56194 0.87391 0.0
C696 C 0.60665 0.57198 0.88714 0.0
C697 C 0.61064 0.60069 0.88956 0.0
C698 C 0.59037 0.61895 0.87927 0.0
C699 C 0.62705 0.55246 0.90013 0.0
C700 C 0.6356 0.55678 0.92919 0.0
C701 C 0.63603 0.5284 0.88513 0.0
C702 C 0.63003 0.52382 0.8536 0.0
C703 C 0.63577 0.54458 0.83291 0.0
C704 C 0.62936 0.54044 0.80342 0.0
C705 C 0.6176 0.51546 0.79421 0.0
C706 C 0.61216 0.49457 0.8145 0.0
C707 C 0.61832 0.49867 0.84407 0.0
H708 H 0.61269 0.51231 0.77135 0.0
H709 H 0.67936 0.55595 0.05607 0.0
H710 H 0.33966 0.56618 0.49648 0.0
H711 H 0.36558 0.53001 0.47129 0.0
H712 H 0.28851 0.49485 0.43961 0.0
H713 H 0.26226 0.53026 0.46601 0.0
H714 H 0.32326 0.45505 0.45513 0.0
H715 H 0.32831 0.5353 0.39527 0.0
H716 H 0.33665 0.58447 0.38399 0.0
H717 H 0.42277 0.57567 0.40793 0.0
H718 H 0.41484 0.52652 0.41977 0.0
H719 H 0.42757 0.4113 0.33045 0.0
H720 H 0.39322 0.44333 0.35067 0.0
H721 H 0.40821 0.41063 0.43699 0.0
H722 H 0.44195 0.37823 0.41701 0.0
H723 H 0.39907 0.48388 0.38788 0.0
H724 H 0.35062 0.4138 0.47824 0.0
H725 H 0.33923 0.36455 0.48574 0.0
H726 H 0.33386 0.35254 0.39289 0.0
H727 H 0.3448 0.40178 0.38483 0.0
C728 C 0.32814 0.55045 0.48467 0.0
C729 C 0.29887 0.55118 0.48318 0.0
C730 C 0.34302 0.52999 0.46996 0.0
C731 C 0.32899 0.51007 0.45311 0.0
C732 C 0.29975 0.51015 0.45232 0.0
C733 C 0.28481 0.53053 0.46722 0.0
C734 C 0.34498 0.48955 0.43591 0.0
C735 C 0.33979 0.46131 0.44036 0.0
C736 C 0.36597 0.49777 0.41597 0.0
C737 C 0.37092 0.52726 0.4086 0.0
C738 C 0.34899 0.54389 0.3983 0.0
C739 C 0.35364 0.57175 0.39179 0.0
C740 C 0.38021 0.5832 0.39529 0.0
C741 C 0.40219 0.56678 0.40524 0.0
C742 C 0.39764 0.5389 0.41182 0.0
C743 C 0.42342 0.41079 0.35371 0.0
C744 C 0.4375 0.39213 0.37208 0.0
C745 C 0.4038 0.42913 0.36522 0.0
C746 C 0.39789 0.42915 0.39528 0.0
C747 C 0.41196 0.4106 0.41364 0.0
C748 C 0.4314 0.39216 0.40216 0.0
C749 C 0.37797 0.44932 0.40778 0.0
C750 C 0.38241 0.47755 0.40245 0.0
C751 C 0.35581 0.44104 0.42629 0.0
C752 C 0.34876 0.41146 0.43095 0.0
C753 C 0.34686 0.40069 0.45942 0.0
C754 C 0.34051 0.37276 0.46377 0.0
C755 C 0.3359 0.35541 0.4398 0.0
C756 C 0.33753 0.36598 0.41144 0.0
C757 C 0.34383 0.39389 0.40697 0.0
H758 H 0.33102 0.33379 0.44322 0.0
H759 H 0.38378 0.60478 0.39024 0.0
H760 H 0.83651 0.94872 0.99672 0.0
H761 H 0.85967 0.9897 0.97753 0.0
H762 H 0.77985 0.02528 0.95589 0.0
H763 H 0.75639 0.98389 0.97505 0.0
H764 H 0.81533 0.03227 0.9123 0.0
H765 H 0.81709 0.0509 0.01344 0.0
H766 H 0.82376 0.04153 0.06594 0.0
H767 H 0.91115 0.0281 0.05161 0.0
H768 H 0.90495 0.03698 0.99894 0.0
H769 H 0.92934 0.15113 0.91847 0.0
H770 H 0.89085 0.12587 0.94142 0.0
H771 H 0.9011 0.05962 0.87915 0.0
H772 H 0.93882 0.08483 0.85575 0.0
H773 H 0.89037 0.07895 0.96864 0.0
H774 H 0.84204 0.02729 0.8644 0.0
H775 H 0.8328 0.03966 0.81303 0.0
H776 H 0.83278 0.1258 0.83574 0.0
H777 H 0.84158 0.11397 0.88734 0.0
C778 C 0.82383 0.96541 0.98825 0.0
C779 C 0.79462 0.96327 0.98771 0.0
C780 C 0.8371 0.98885 0.9773 0.0
C781 C 0.82147 0.01082 0.96584 0.0
C782 C 0.79228 0.00864 0.96484 0.0
C783 C 0.77894 0.98502 0.97571 0.0
C784 C 0.83607 0.0354 0.95395 0.0
C785 C 0.83155 0.04271 0.92466 0.0
C786 C 0.85655 0.04967 0.97042 0.0
C787 C 0.86051 0.04451 0.00217 0.0
C788 C 0.83771 0.04579 0.02144 0.0
C789 C 0.84141 0.04058 0.05125 0.0
C790 C 0.86786 0.0342 0.0621 0.0
C791 C 0.89068 0.03307 0.04318 0.0
C792 C 0.88709 0.03824 0.01334 0.0
C793 C 0.92324 0.13127 0.90954 0.0
C794 C 0.93717 0.12004 0.88523 0.0
C795 C 0.90122 0.11689 0.92267 0.0
C796 C 0.89276 0.09107 0.91171 0.0
C797 C 0.90671 0.07984 0.88753 0.0
C798 C 0.92849 0.09423 0.87429 0.0
C799 C 0.87068 0.07475 0.92651 0.0
C800 C 0.87377 0.069 0.95639 0.0
C801 C 0.84843 0.06246 0.91075 0.0
C802 C 0.84262 0.06971 0.87978 0.0
C803 C 0.83986 0.04887 0.8585 0.0
C804 C 0.83475 0.05579 0.82931 0.0
C805 C 0.83226 0.0835 0.82111 0.0
C806 C 0.83479 0.10435 0.84211 0.0
C807 C 0.83987 0.09754 0.87133 0.0
H808 H 0.82834 0.08881 0.7985 0.0
H809 H 0.87068 0.03016 0.08519 0.0
H810 H 0.21071 0.0497 0.44237 0.0
H811 H 0.18238 0.01363 0.41951 0.0
H812 H 0.18432 0.96639 0.4994 0.0
H813 H 0.21284 0.00253 0.52252 0.0
H814 H 0.18745 0.93406 0.44382 0.0
H815 H 0.13303 0.00286 0.49392 0.0
H816 H 0.12014 0.0507 0.50631 0.0
H817 H 0.09854 0.06617 0.41669 0.0
H818 H 0.11204 0.01852 0.40361 0.0
H819 H 0.0623 0.85643 0.41876 0.0
H820 H 0.09947 0.88463 0.44011 0.0
H821 H 0.09097 0.94355 0.36993 0.0
H822 H 0.0537 0.91579 0.34858 0.0
H823 H 0.09221 0.96862 0.42227 0.0
H824 H 0.14562 0.89954 0.37199 0.0
H825 H 0.15979 0.85211 0.35911 0.0
H826 H 0.1832 0.8369 0.44827 0.0
H827 H 0.16877 0.88416 0.46179 0.0
C828 C 0.20583 0.03127 0.45481 0.0
C829 C 0.21382 0.02893 0.48426 0.0
C830 C 0.18959 0.01075 0.44175 0.0
C831 C 0.18119 0.98754 0.45789 0.0
C832 C 0.19071 0.98417 0.48664 0.0
C833 C 0.20678 0.00485 0.49984 0.0
C834 C 0.15964 0.96887 0.44591 0.0
C835 C 0.16651 0.9414 0.43939 0.0
C836 C 0.13252 0.97873 0.43988 0.0
C837 C 0.12384 0.00722 0.44774 0.0
C838 C 0.12577 0.01653 0.4768 0.0
C839 C 0.11832 0.04361 0.48396 0.0
C840 C 0.10853 0.0615 0.46231 0.0
C841 C 0.10615 0.0523 0.43344 0.0
C842 C 0.11372 0.02526 0.42613 0.0
C843 C 0.06835 0.87535 0.40781 0.0
C844 C 0.05491 0.88386 0.38197 0.0
C845 C 0.08972 0.89136 0.41997 0.0
C846 C 0.09809 0.91605 0.40646 0.0
C847 C 0.08481 0.92454 0.38068 0.0
C848 C 0.0635 0.90859 0.3685 0.0
C849 C 0.11996 0.9337 0.41969 0.0
C850 C 0.11311 0.9611 0.42663 0.0
C851 C 0.14703 0.92368 0.42606 0.0
C852 C 0.15583 0.8953 0.41797 0.0
C853 C 0.15356 0.88601 0.38891 0.0
C854 C 0.16168 0.85917 0.38148 0.0
C855 C 0.17231 0.84147 0.40288 0.0
C856 C 0.17492 0.85062 0.43173 0.0
C857 C 0.16679 0.87744 0.43929 0.0
H858 H 0.17859 0.8207 0.39708 0.0
H859 H 0.10276 0.08246 0.46792 0.0
H860 H 0.2074 0.93355 0.94036 0.0
H861 H 0.18314 0.97212 0.91722 0.0
H862 H 0.18051 0.01501 -7e-05 0.0
H863 H 0.20469 0.97635 0.02326 0.0
H864 H 0.13046 0.01257 0.97583 0.0
H865 H 0.22149 0.03827 0.94336 0.0
H866 H 0.26756 0.03152 0.92063 0.0
H867 H 0.22837 0.01191 0.83875 0.0
H868 H 0.18202 0.01815 0.86109 0.0
H869 H 0.06937 0.1333 0.91886 0.0
H870 H 0.10416 0.10274 0.94031 0.0
H871 H 0.10394 0.05295 0.86206 0.0
H872 H 0.0692 0.08355 0.84016 0.0
H873 H 0.15731 0.06139 0.88468 0.0
H874 H 0.06674 0.03224 0.91832 0.0
H875 H 0.02058 0.03866 0.941 0.0
H876 H 0.05958 0.06454 0.02103 0.0
H877 H 0.106 0.05866 0.99867 0.0
C878 C 0.20222 0.95149 0.95346 0.0
C879 C 0.20783 0.95196 0.98362 0.0
C880 C 0.18838 0.97352 0.94021 0.0
C881 C 0.18018 0.99651 0.95682 0.0
C882 C 0.18663 0.99743 0.98674 0.0
C883 C 0.20035 0.97535 3e-05 0.0
C884 C 0.16269 0.01833 0.94356 0.0
C885 C 0.13662 0.02365 0.95624 0.0
C886 C 0.1704 0.03218 0.91753 0.0
C887 C 0.19825 0.02846 0.90399 0.0
C888 C 0.22267 0.0323 0.92057 0.0
C889 C 0.24885 0.0286 0.90774 0.0
C890 C 0.25089 0.02123 0.87828 0.0
C891 C 0.22675 0.0176 0.86157 0.0
C892 C 0.20052 0.02125 0.8743 0.0
C893 C 0.07678 0.11598 0.90605 0.0
C894 C 0.06621 0.11071 0.87788 0.0
C895 C 0.09668 0.09855 0.91838 0.0
C896 C 0.10632 0.07547 0.90287 0.0
C897 C 0.09669 0.07069 0.87436 0.0
C898 C 0.07672 0.08811 0.86197 0.0
C899 C 0.12528 0.05552 0.91704 0.0
C900 C 0.15144 0.05049 0.90447 0.0
C901 C 0.11772 0.04187 0.9432 0.0
C902 C 0.08983 0.04531 0.95672 0.0
C903 C 0.06547 0.03953 0.94068 0.0
C904 C 0.03926 0.04303 0.95349 0.0
C905 C 0.03714 0.05208 0.98241 0.0
C906 C 0.06124 0.05758 0.99861 0.0
C907 C 0.08751 0.05415 0.98589 0.0
H908 H 0.01683 0.05477 0.99229 0.0
H909 H 0.27117 0.01839 0.86839 0.0
H910 H 0.75534 0.02646 0.47278 0.0
H911 H 0.78087 0.98971 0.4477 0.0
H912 H 0.85828 0.02174 0.4821 0.0
H913 H 0.83322 0.05929 0.50573 0.0
H914 H 0.86404 0.01127 0.42693 0.0
H915 H 0.82637 0.96225 0.50949 0.0
H916 H 0.78924 0.94546 0.5423 0.0
H917 H 0.75043 0.90281 0.47061 0.0
H918 H 0.78715 0.91966 0.43728 0.0
H919 H 0.93065 0.86764 0.42182 0.0
H920 H 0.89716 0.89921 0.4439 0.0
H921 H 0.88147 0.93596 0.35958 0.0
H922 H 0.91543 0.90484 0.3373 0.0
H923 H 0.8431 0.91133 0.43818 0.0
H924 H 0.87555 0.00531 0.36844 0.0
H925 H 0.91602 0.02189 0.34008 0.0
H926 H 0.97102 0.97442 0.39447 0.0
H927 H 0.93093 0.95788 0.42336 0.0
C928 C 0.77782 0.02573 0.47489 0.0
C929 C 0.79221 0.04582 0.49133 0.0
C930 C 0.79234 0.00455 0.46079 0.0
C931 C 0.82147 0.00286 0.4632 0.0
C932 C 0.83581 0.02263 0.47993 0.0
C933 C 0.82137 0.04391 0.49376 0.0
C934 C 0.83735 0.98115 0.44758 0.0
C935 C 0.85934 0.98943 0.42934 0.0
C936 C 0.83139 0.95264 0.45084 0.0
C937 C 0.80933 0.94246 0.47084 0.0
C938 C 0.80979 0.94948 0.50068 0.0
C939 C 0.78885 0.93991 0.51938 0.0
C940 C 0.76744 0.92314 0.50853 0.0
C941 C 0.76699 0.91584 0.47897 0.0
C942 C 0.78787 0.92537 0.46017 0.0
C943 C 0.91989 0.88222 0.40785 0.0
C944 C 0.92609 0.88401 0.37784 0.0
C945 C 0.90063 0.90017 0.42052 0.0
C946 C 0.88716 0.92018 0.40346 0.0
C947 C 0.89202 0.92095 0.37322 0.0
C948 C 0.91145 0.90315 0.36053 0.0
C949 C 0.86979 0.94153 0.41776 0.0
C950 C 0.84752 0.9332 0.43561 0.0
C951 C 0.87591 0.97002 0.41479 0.0
C952 C 0.90021 0.98013 0.39781 0.0
C953 C 0.89629 0.99849 0.37438 0.0
C954 C 0.91916 0.00788 0.35822 0.0
C955 C 0.94606 -0.00086 0.3654 0.0
C956 C 0.95017 0.98109 0.38885 0.0
C957 C 0.92738 0.97169 0.40511 0.0
H958 H 0.96373 0.0064 0.35285 0.0
H959 H 0.75125 0.91575 0.52304 0.0
H960 H 0.25813 0.37283 0.07701 0.0
H961 H 0.2826 0.35137 0.11834 0.0
H962 H 0.35972 0.38854 0.08961 0.0
H963 H 0.33595 0.40876 0.04797 0.0
H964 H 0.36785 0.33645 0.10328 0.0
H965 H 0.32006 0.41491 0.14712 0.0
H966 H 0.27857 0.44217 0.16051 0.0
H967 H 0.24565 0.3729 0.20807 0.0
H968 H 0.28683 0.34512 0.19464 0.0
H969 H 0.45551 0.36336 0.22364 0.0
H970 H 0.42036 0.36818 0.18526 0.0
H971 H 0.37333 0.30073 0.22232 0.0
H972 H 0.40903 0.29515 0.26054 0.0
H973 H 0.34371 0.35673 0.2065 0.0
H974 H 0.39867 0.2823 0.16959 0.0
H975 H 0.44171 0.25759 0.15638 0.0
H976 H 0.46234 0.32129 0.09472 0.0
H977 H 0.41998 0.34697 0.10837 0.0
C978 C 0.28032 0.37627 0.0795 0.0
C979 C 0.29501 0.39278 0.05935 0.0
C980 C 0.29423 0.36416 0.1032 0.0
C981 C 0.32297 0.36848 0.10715 0.0
C982 C 0.33755 0.38487 0.08702 0.0
C983 C 0.32381 0.39676 0.06339 0.0
C984 C 0.33843 0.35619 0.13203 0.0
C985 C 0.36255 0.34088 0.12585 0.0
C986 C 0.331 0.36116 0.16151 0.0
C987 C 0.3063 0.37784 0.16956 0.0
C988 C 0.30385 0.40543 0.16023 0.0
C989 C 0.28042 0.42098 0.16786 0.0
C990 C 0.25944 0.40924 0.18504 0.0
C991 C 0.26188 0.38194 0.1947 0.0
C992 C 0.28526 0.36629 0.18709 0.0
C993 C 0.43768 0.34957 0.22369 0.0
C994 C 0.43496 0.32888 0.24505 0.0
C995 C 0.4177 0.3523 0.20173 0.0
C996 C 0.39442 0.33475 0.20104 0.0
C997 C 0.39126 0.31439 0.22259 0.0
C998 C 0.41165 0.31119 0.24424 0.0
C999 C 0.37363 0.33813 0.17752 0.0
C1000 C 0.34857 0.35172 0.18395 0.0
C1001 C 0.38036 0.3319 0.14819 0.0
C1002 C 0.40622 0.31675 0.1403 0.0
C1003 C 0.4126 0.29132 0.15359 0.0
C1004 C 0.43689 0.2771 0.14599 0.0
C1005 C 0.45482 0.28792 0.12482 0.0
C1006 C 0.44848 0.31297 0.11119 0.0
C1007 C 0.42437 0.32741 0.11893 0.0
H1008 H 0.47358 0.27685 0.11891 0.0
H1009 H 0.24132 0.42131 0.19094 0.0
H1010 H 0.66811 0.60057 0.54944 0.0
H1011 H 0.64463 0.62293 0.59015 0.0
H1012 H 0.72413 0.64154 0.62986 0.0
H1013 H 0.74797 0.61822 0.58922 0.0
H1014 H 0.68839 0.62136 0.66923 0.0
H1015 H 0.68663 0.69351 0.60046 0.0
H1016 H 0.68057 0.71587 0.55247 0.0
H1017 H 0.5934 0.69553 0.55339 0.0
H1018 H 0.59898 0.67267 0.60119 0.0
H1019 H 0.57075 0.7147 0.73915 0.0
H1020 H 0.60989 0.70953 0.70528 0.0
H1021 H 0.60068 0.62084 0.7088 0.0
H1022 H 0.56208 0.62567 0.74278 0.0
H1023 H 0.61199 0.68854 0.6524 0.0
H1024 H 0.66297 0.58896 0.7026 0.0
H1025 H 0.67195 0.56916 0.75129 0.0
H1026 H 0.66548 0.64978 0.78998 0.0
H1027 H 0.65731 0.67025 0.7414 0.0
C1028 C 0.68066 0.60919 0.56693 0.0
C1029 C 0.70989 0.60739 0.5663 0.0
C1030 C 0.66721 0.62234 0.58998 0.0
C1031 C 0.68264 0.6343 0.61279 0.0
C1032 C 0.71187 0.63261 0.61232 0.0
C1033 C 0.72542 0.61939 0.58912 0.0
C1034 C 0.66773 0.64714 0.63764 0.0
C1035 C 0.67187 0.63627 0.66571 0.0
C1036 C 0.64689 0.66737 0.63313 0.0
C1037 C 0.64327 0.68129 0.60443 0.0
C1038 C 0.66619 0.69366 0.59037 0.0
C1039 C 0.66284 0.70644 0.5632 0.0
C1040 C 0.63662 0.70711 0.54988 0.0
C1041 C 0.61369 0.69503 0.56375 0.0
C1042 C 0.61693 0.68219 0.59092 0.0
C1043 C 0.57709 0.69409 0.73276 0.0
C1044 C 0.56324 0.67061 0.74375 0.0
C1045 C 0.5995 0.69119 0.71346 0.0
C1046 C 0.60852 0.6648 0.70495 0.0
C1047 C 0.59454 0.6414 0.71563 0.0
C1048 C 0.57226 0.64424 0.73491 0.0
C1049 C 0.63147 0.66139 0.6836 0.0
C1050 C 0.62887 0.67409 0.65618 0.0
C1051 C 0.6541 0.64328 0.68891 0.0
C1052 C 0.65931 0.63114 0.71827 0.0
C1053 C 0.66367 0.60254 0.72143 0.0
C1054 C 0.66862 0.59118 0.74904 0.0
C1055 C 0.66916 0.60818 0.77374 0.0
C1056 C 0.66495 0.63661 0.77084 0.0
C1057 C 0.66018 0.64811 0.74325 0.0
H1058 H 0.67287 0.59931 0.79511 0.0
H1059 H 0.63407 0.717 0.52884 0.0
H1060 H 0.70151 0.41005 0.0799 0.0
H1061 H 0.67732 0.39074 0.12252 0.0
H1062 H 0.66247 0.31497 0.07518 0.0
H1063 H 0.68737 0.334 0.03268 0.0
H1064 H 0.61342 0.34402 0.1028 0.0
H1065 H 0.70414 0.3074 0.12409 0.0
H1066 H 0.75509 0.30979 0.13075 0.0
H1067 H 0.74466 0.36815 0.20064 0.0
H1068 H 0.69363 0.36646 0.19408 0.0
H1069 H 0.54752 0.28387 0.22541 0.0
H1070 H 0.58126 0.28727 0.18542 0.0
H1071 H 0.61589 0.36107 0.22414 0.0
H1072 H 0.58223 0.35798 0.26405 0.0
H1073 H 0.65665 0.32619 0.19963 0.0
H1074 H 0.57072 0.37044 0.17477 0.0
H1075 H 0.51966 0.37337 0.16951 0.0
H1076 H 0.52098 0.30685 0.10732 0.0
H1077 H 0.57213 0.30323 0.11261 0.0
C1078 C 0.69331 0.38918 0.07879 0.0
C1079 C 0.6962 0.37342 0.05322 0.0
C1080 C 0.67964 0.37818 0.10306 0.0
C1081 C 0.66829 0.35145 0.10189 0.0
C1082 C 0.67126 0.33559 0.07642 0.0
C1083 C 0.68547 0.3464 0.05231 0.0
C1084 C 0.65192 0.34096 0.12682 0.0
C1085 C 0.62289 0.33937 0.12378 0.0
C1086 C 0.66436 0.33594 0.15433 0.0
C1087 C 0.69505 0.33697 0.15841 0.0
C1088 C 0.71271 0.32095 0.1407 0.0
C1089 C 0.74161 0.32213 0.14449 0.0
C1090 C 0.75311 0.33916 0.16606 0.0
C1091 C 0.73572 0.35499 0.18392 0.0
C1092 C 0.7068 0.3539 0.18019 0.0
C1093 C 0.56265 0.30052 0.2257 0.0
C1094 C 0.56201 0.32086 0.24767 0.0
C1095 C 0.58187 0.30243 0.20285 0.0
C1096 C 0.60087 0.32452 0.20181 0.0
C1097 C 0.60141 0.34385 0.22463 0.0
C1098 C 0.58201 0.34216 0.24727 0.0
C1099 C 0.61817 0.32921 0.17556 0.0
C1100 C 0.64727 0.33004 0.17843 0.0
C1101 C 0.60581 0.33412 0.14797 0.0
C1102 C 0.57516 0.33631 0.14439 0.0
C1103 C 0.56009 0.35626 0.16018 0.0
C1104 C 0.53117 0.35808 0.15717 0.0
C1105 C 0.51709 0.34024 0.13819 0.0
C1106 C 0.53193 0.32059 0.12208 0.0
C1107 C 0.5609 0.31865 0.12508 0.0
H1108 H 0.49471 0.34176 0.13593 0.0
H1109 H 0.77549 0.34004 0.16898 0.0
H1110 H 0.29261 0.58112 0.58679 0.0
H1111 H 0.31503 0.60093 0.63 0.0
H1112 H 0.30959 0.68229 0.5918 0.0
H1113 H 0.28779 0.66247 0.54816 0.0
H1114 H 0.36132 0.67132 0.60999 0.0
H1115 H 0.27083 0.66632 0.6517 0.0
H1116 H 0.22575 0.64517 0.66484 0.0
H1117 H 0.26796 0.58421 0.71665 0.0
H1118 H 0.31335 0.60473 0.70349 0.0
H1119 H 0.43288 0.71936 0.73706 0.0
H1120 H 0.39497 0.71556 0.70128 0.0
H1121 H 0.38692 0.62861 0.72059 0.0
H1122 H 0.42419 0.6322 0.75642 0.0
H1123 H 0.33645 0.65206 0.71324 0.0
H1124 H 0.42581 0.65094 0.66305 0.0
H1125 H 0.4715 0.67035 0.64906 0.0
H1126 H 0.43111 0.74162 0.61261 0.0
H1127 H 0.38519 0.72274 0.62674 0.0
C1128 C 0.29598 0.60326 0.58773 0.0
C1129 C 0.28855 0.62022 0.56406 0.0
C1130 C 0.30851 0.6146 0.61255 0.0
C1131 C 0.31375 0.64314 0.61423 0.0
C1132 C 0.30559 0.66025 0.591 0.0
C1133 C 0.29299 0.64891 0.56618 0.0
C1134 C 0.33018 0.6545 0.63894 0.0
C1135 C 0.35551 0.66776 0.6326 0.0
C1136 C 0.32282 0.64943 0.6684 0.0
C1137 C 0.29554 0.637 0.67645 0.0
C1138 C 0.27053 0.64828 0.66572 0.0
C1139 C 0.24491 0.63642 0.67321 0.0
C1140 C 0.24399 0.61334 0.69153 0.0
C1141 C 0.2687 0.6021 0.70246 0.0
C1142 C 0.29439 0.61386 0.69502 0.0
C1143 C 0.42281 0.69951 0.73391 0.0
C1144 C 0.43186 0.67601 0.74934 0.0
C1145 C 0.40119 0.69738 0.71344 0.0
C1146 C 0.38834 0.67173 0.70809 0.0
C1147 C 0.39651 0.6486 0.72439 0.0
C1148 C 0.41804 0.65068 0.74473 0.0
C1149 C 0.36782 0.66812 0.68416 0.0
C1150 C 0.34181 0.65627 0.69064 0.0
C1151 C 0.37458 0.67431 0.65478 0.0
C1152 C 0.40214 0.68562 0.64628 0.0
C1153 C 0.42671 0.67085 0.65226 0.0
C1154 C 0.45263 0.68173 0.64428 0.0
C1155 C 0.45421 0.70725 0.63005 0.0
C1156 C 0.42986 0.72189 0.6237 0.0
C1157 C 0.40389 0.71112 0.63169 0.0
H1158 H 0.4743 0.71563 0.62388 0.0
H1159 H 0.22413 0.60419 0.6973 0.0
H1160 H 0.83443 0.8951 0.04776 0.0
H1161 H 0.85574 0.87342 0.0903 0.0
H1162 H 0.77424 0.85466 0.12497 0.0
H1163 H 0.75261 0.87698 0.08235 0.0
H1164 H 0.80845 0.87666 0.16629 0.0
H1165 H 0.81235 0.80265 0.09948 0.0
H1166 H 0.82045 0.77918 0.05241 0.0
H1167 H 0.9077 0.7986 0.05768 0.0
H1168 H 0.90009 0.82258 0.10457 0.0
H1169 H 0.92152 0.78364 0.24492 0.0
H1170 H 0.8837 0.78821 0.20921 0.0
H1171 H 0.89396 0.87685 0.21025 0.0
H1172 H 0.93112 0.87263 0.24604 0.0
H1173 H 0.88433 0.8078 0.15541 0.0
H1174 H 0.83445 0.90953 0.20035 0.0
H1175 H 0.82473 0.93087 0.24821 0.0
H1176 H 0.82475 0.8508 0.2887 0.0
H1177 H 0.83404 0.82892 0.24102 0.0
C1178 C 0.821 0.88652 0.06451 0.0
C1179 C 0.79186 0.88791 0.06187 0.0
C1180 C 0.83321 0.87383 0.08863 0.0
C1181 C 0.81657 0.8621 0.11058 0.0
C1182 C 0.78742 0.86344 0.10813 0.0
C1183 C 0.77513 0.87608 0.08381 0.0
C1184 C 0.83009 0.84971 0.13654 0.0
C1185 C 0.8248 0.86135 0.16405 0.0
C1186 C 0.85079 0.82907 0.1337 0.0
C1187 C 0.85561 0.81451 0.10555 0.0
C1188 C 0.83325 0.80208 0.09053 0.0
C1189 C 0.83775 0.78866 0.06388 0.0
C1190 C 0.86457 0.78742 0.05206 0.0
C1191 C 0.88694 0.79956 0.06688 0.0
C1192 C 0.88255 0.81303 0.09354 0.0
C1193 C 0.9156 0.80411 0.23767 0.0
C1194 C 0.92938 0.82776 0.24842 0.0
C1195 C 0.89397 0.80667 0.21729 0.0
C1196 C 0.88568 0.83289 0.20746 0.0
C1197 C 0.8995 0.85644 0.21806 0.0
C1198 C 0.92096 0.85395 0.23841 0.0
C1199 C 0.8638 0.83597 0.18481 0.0
C1200 C 0.86752 0.82258 0.15789 0.0
C1201 C 0.8413 0.85458 0.18836 0.0
C1202 C 0.83506 0.86759 0.21706 0.0
C1203 C 0.83215 0.89644 0.2194 0.0
C1204 C 0.82678 0.90864 0.24653 0.0
C1205 C 0.82417 0.89221 0.27149 0.0
C1206 C 0.82684 0.86352 0.26936 0.0
C1207 C 0.83219 0.85121 0.24229 0.0
H1208 H 0.82006 0.9017 0.29248 0.0
H1209 H 0.86801 0.77703 0.03141 0.0
H1210 H 0.20639 0.05904 0.58656 0.0
H1211 H 0.17786 0.07671 0.62664 0.0
H1212 H 0.18168 0.15862 0.58967 0.0
H1213 H 0.20965 0.14105 0.54906 0.0
H1214 H 0.18713 0.15731 0.65189 0.0
H1215 H 0.12614 0.12467 0.57626 0.0
H1216 H 0.10855 0.0913 0.53988 0.0
H1217 H 0.09244 0.0324 0.60805 0.0
H1218 H 0.1102 0.0654 0.64485 0.0
H1219 H 0.06724 0.20522 0.73346 0.0
H1220 H 0.10159 0.19542 0.69515 0.0
H1221 H 0.09884 0.10876 0.71725 0.0
H1222 H 0.06462 0.11813 0.75503 0.0
H1223 H 0.09245 0.11645 0.65988 0.0
H1224 H 0.15415 0.14955 0.73581 0.0
H1225 H 0.173 0.18291 0.77158 0.0
H1226 H 0.18807 0.24135 0.70275 0.0
H1227 H 0.16893 0.20851 0.66661 0.0
C1228 C 0.20125 0.08083 0.58699 0.0
C1229 C 0.21009 0.09857 0.56448 0.0
C1230 C 0.18509 0.0909 0.60995 0.0
C1231 C 0.17751 0.11889 0.61087 0.0
C1232 C 0.18742 0.13697 0.58932 0.0
C1233 C 0.20348 0.12688 0.56621 0.0
C1234 C 0.15764 0.1287 0.63322 0.0
C1235 C 0.16628 0.14872 0.65351 0.0
C1236 C 0.13058 0.11727 0.63527 0.0
C1237 C 0.11973 0.09741 0.61326 0.0
C1238 C 0.11904 0.10453 0.58346 0.0
C1239 C 0.10901 0.08569 0.56278 0.0
C1240 C 0.09947 0.05969 0.57163 0.0
C1241 C 0.09986 0.05253 0.60122 0.0
C1242 C 0.10987 0.07131 0.62201 0.0
C1243 C 0.07411 0.18412 0.73027 0.0
C1244 C 0.06296 0.16245 0.74717 0.0
C1245 C 0.09381 0.17858 0.70846 0.0
C1246 C 0.10275 0.15136 0.70341 0.0
C1247 C 0.09211 0.12989 0.72068 0.0
C1248 C 0.07248 0.13534 0.7423 0.0
C1249 C 0.12209 0.14463 0.67924 0.0
C1250 C 0.11325 0.12522 0.65836 0.0
C1251 C 0.14888 0.15673 0.67671 0.0
C1252 C 0.15981 0.17668 0.69854 0.0
C1253 C 0.16117 0.16964 0.72834 0.0
C1254 C 0.17198 0.18843 0.74868 0.0
C1255 C 0.18168 0.21424 0.73943 0.0
C1256 C 0.18052 0.22136 0.70987 0.0
C1257 C 0.1697 0.20267 0.68946 0.0
H1258 H 0.19026 0.22867 0.75513 0.0
H1259 H 0.0917 0.04513 0.55559 0.0
H1260 H 0.16138 0.88546 0.04371 0.0
H1261 H 0.13648 0.87153 0.08782 0.0
H1262 H 0.21473 0.86131 0.13312 0.0
H1263 H 0.23992 0.87505 0.08859 0.0
H1264 H 0.17633 0.82092 0.14806 0.0
H1265 H 0.18046 0.91911 0.14351 0.0
H1266 H 0.17626 0.96491 0.12029 0.0
H1267 H 0.08847 0.95176 0.10796 0.0
H1268 H 0.09222 0.90567 0.13068 0.0
H1269 H 0.07386 0.87147 0.27252 0.0
H1270 H 0.11145 0.87919 0.23762 0.0
H1271 H 0.08965 0.80346 0.19305 0.0
H1272 H 0.05248 0.79515 0.22854 0.0
H1273 H 0.1068 0.88913 0.18315 0.0
H1274 H 0.14516 0.77748 0.15661 0.0
H1275 H 0.15266 0.73334 0.18238 0.0
H1276 H 0.16166 0.77679 0.26374 0.0
H1277 H 0.15463 0.82121 0.23842 0.0
C1278 C 0.17328 0.88011 0.06303 0.0
C1279 C 0.20251 0.88177 0.063 0.0
C1280 C 0.15907 0.8721 0.08815 0.0
C1281 C 0.17377 0.86593 0.11384 0.0
C1282 C 0.20304 0.86612 0.1135 0.0
C1283 C 0.21736 0.87398 0.08817 0.0
C1284 C 0.15823 0.86109 0.14128 0.0
C1285 C 0.16119 0.8358 0.15592 0.0
C1286 C 0.13915 0.88094 0.15193 0.0
C1287 C 0.13667 0.90885 0.13864 0.0
C1288 C 0.16029 0.92592 0.13569 0.0
C1289 C 0.15799 0.95193 0.12262 0.0
C1290 C 0.13212 0.96122 0.11261 0.0
C1291 C 0.10849 0.94453 0.11572 0.0
C1292 C 0.11069 0.91847 0.12872 0.0
C1293 C 0.07723 0.85629 0.25547 0.0
C1294 C 0.06004 0.8328 0.25313 0.0
C1295 C 0.09877 0.86072 0.23556 0.0
C1296 C 0.10348 0.84188 0.21276 0.0
C1297 C 0.08678 0.81805 0.21077 0.0
C1298 C 0.06541 0.8134 0.23095 0.0
C1299 C 0.12413 0.84847 0.18966 0.0
C1300 C 0.12211 0.87423 0.1757 0.0
C1301 C 0.14453 0.82931 0.18024 0.0
C1302 C 0.14912 0.80268 0.19561 0.0
C1303 C 0.14887 0.77764 0.17997 0.0
C1304 C 0.15302 0.75256 0.19451 0.0
C1305 C 0.15755 0.75225 0.22469 0.0
C1306 C 0.15804 0.77704 0.24038 0.0
C1307 C 0.15394 0.80218 0.22595 0.0
H1308 H 0.16073 0.73281 0.2359 0.0
H1309 H 0.13039 0.98137 0.10249 0.0
H1310 H 0.78491 0.07681 0.59469 0.0
H1311 H 0.80942 0.09513 0.6374 0.0
H1312 H 0.81137 0.17602 0.59771 0.0
H1313 H 0.78734 0.15763 0.55461 0.0
H1314 H 0.86228 0.15978 0.61495 0.0
H1315 H 0.77225 0.16455 0.6583 0.0
H1316 H 0.7257 0.14793 0.67294 0.0
H1317 H 0.76316 0.08499 0.72611 0.0
H1318 H 0.80996 0.10094 0.71145 0.0
H1319 H 0.9364 0.21104 0.73801 0.0
H1320 H 0.89866 0.20608 0.70237 0.0
H1321 H 0.88664 0.12135 0.72897 0.0
H1322 H 0.92394 0.12611 0.76482 0.0
H1323 H 0.83718 0.14674 0.71923 0.0
H1324 H 0.92556 0.13651 0.66975 0.0
H1325 H 0.97265 0.15119 0.65455 0.0
H1326 H 0.93817 0.22268 0.61237 0.0
H1327 H 0.89088 0.2086 0.62768 0.0
C1328 C 0.79025 0.09858 0.59526 0.0
C1329 C 0.78435 0.11576 0.57128 0.0
C1330 C 0.80403 0.10908 0.61976 0.0
C1331 C 0.81207 0.13699 0.62081 0.0
C1332 C 0.80524 0.15445 0.59738 0.0
C1333 C 0.79137 0.14396 0.57288 0.0
C1334 C 0.83008 0.14707 0.64494 0.0
C1335 C 0.85649 0.15758 0.63776 0.0
C1336 C 0.82279 0.14354 0.67467 0.0
C1337 C 0.79466 0.13384 0.68358 0.0
C1338 C 0.77058 0.14702 0.67292 0.0
C1339 C 0.74414 0.13774 0.68126 0.0
C1340 C 0.74147 0.11538 0.7004 0.0
C1341 C 0.76526 0.10229 0.71128 0.0
C1342 C 0.79176 0.11147 0.70298 0.0
C1343 C 0.92557 0.19142 0.7365 0.0
C1344 C 0.93348 0.16888 0.75407 0.0
C1345 C 0.90402 0.18863 0.71609 0.0
C1346 C 0.89009 0.16325 0.71281 0.0
C1347 C 0.89714 0.14111 0.73113 0.0
C1348 C 0.91863 0.14385 0.7515 0.0
C1349 C 0.8694 0.15901 0.68914 0.0
C1350 C 0.84262 0.1495 0.69641 0.0
C1351 C 0.87637 0.16324 0.65943 0.0
C1352 C 0.90476 0.1717 0.65018 0.0
C1353 C 0.92806 0.15549 0.65745 0.0
C1354 C 0.95477 0.16367 0.64877 0.0
C1355 C 0.95841 0.1879 0.63259 0.0
C1356 C 0.93532 0.20396 0.62497 0.0
C1357 C 0.90857 0.19588 0.63363 0.0
H1358 H 0.9791 0.1942 0.62588 0.0
H1359 H 0.72098 0.10824 0.70683 0.0
loop_
_geom_bond_atom_site_label_1
_geom_bond_atom_site_label_2
_geom_bond_distance
_geom_bond_site_symmetry_2
_ccdc_geom_bond_type
H0 C3 0.931 . S
H1 C6 0.928 . S
H2 C8 0.930 . S
C3 H0 0.931 . S
C3 C4 1.413 . S
C3 C5 1.360 1_554 S
C4 C3 1.413 . S
C4 C8 1.429 . S
C5 C3 1.360 1_556 S
C5 C6 1.372 . S
C6 H1 0.928 . S
C6 C5 1.372 . S
C6 C7 1.419 . S
C7 C6 1.419 . S
C7 C8 1.364 1_556 S
C8 H2 0.930 . S
C8 C4 1.429 . S
C8 C7 1.364 1_554 S
H9 C12 0.931 . S
H10 C15 0.928 . S
H11 C17 0.930 . S
C12 H9 0.931 . S
C12 C13 1.413 . S
C12 C14 1.360 . S
C13 C12 1.413 . S
C13 C17 1.429 . S
C14 C12 1.360 . S
C14 C15 1.372 . S
C15 H10 0.928 . S
C15 C14 1.372 . S
C15 C16 1.404 . S
C16 C15 1.404 . S
C16 C17 1.391 . S
C17 H11 0.930 . S
C17 C13 1.429 . S
C17 C16 1.391 . S
H18 C21 0.931 . S
H19 C24 0.928 . S
H20 C26 0.930 . S
C21 H18 0.931 . S
C21 C22 1.413 1_554 S
C21 C23 1.360 . S
C22 C21 1.413 1_556 S
C22 C26 1.429 . S
C23 C21 1.360 . S
C23 C24 1.372 . S
C24 H19 0.928 . S
C24 C23 1.372 . S
C24 C25 1.390 1_554 S
C25 C24 1.390 1_556 S
C25 C26 1.399 . S
C26 H20 0.930 . S
C26 C22 1.429 . S
C26 C25 1.399 . S
H27 C30 0.931 . S
H28 C33 0.928 . S
H29 C35 0.930 . S
C30 H27 0.931 . S
C30 C31 1.413 . S
C30 C32 1.360 . S
C31 C30 1.413 . S
C31 C35 1.429 . S
C32 C30 1.360 . S
C32 C33 1.372 . S
C33 H28 0.928 . S
C33 C32 1.372 . S
C33 C34 1.404 . S
C34 C33 1.404 . S
C34 C35 1.391 . S
C35 H29 0.930 . S
C35 C31 1.429 . S
C35 C34 1.391 . S
H36 C39 0.931 . S
H37 C42 0.928 . S
H38 C44 0.930 . S
C39 H36 0.931 . S
C39 C40 1.413 . S
C39 C41 1.360 1_554 S
C40 C39 1.413 . S
C40 C44 1.429 . S
C41 C39 1.360 1_556 S
C41 C42 1.372 . S
C42 H37 0.928 . S
C42 C41 1.372 . S
C42 C43 1.419 . S
C43 C42 1.419 . S
C43 C44 1.364 1_556 S
C44 H38 0.930 . S
C44 C40 1.429 . S
C44 C43 1.364 1_554 S
H45 C48 0.931 . S
H46 C51 0.928 . S
H47 C53 0.930 . S
C48 H45 0.931 . S
C48 C49 1.413 . S
C48 C50 1.360 . S
C49 C48 1.413 . S
C49 C53 1.429 . S
C50 C48 1.360 . S
C50 C51 1.372 . S
C51 H46 0.928 . S
C51 C50 1.372 . S
C51 C52 1.404 . S
C52 C51 1.404 . S
C52 C53 1.391 . S
C53 H47 0.930 . S
C53 C49 1.429 . S
C53 C52 1.391 . S
H54 C57 0.931 . S
H55 C60 0.928 . S
H56 C62 0.930 . S
C57 H54 0.931 . S
C57 C58 1.413 1_554 S
C57 C59 1.360 . S
C58 C57 1.413 1_556 S
C58 C62 1.429 . S
C59 C57 1.360 . S
C59 C60 1.372 . S
C60 H55 0.928 . S
C60 C59 1.372 . S
C60 C61 1.390 1_554 S
C61 C60 1.390 1_556 S
C61 C62 1.399 . S
C62 H56 0.930 . S
C62 C58 1.429 . S
C62 C61 1.399 . S
H63 C66 0.931 . S
H64 C69 0.928 . S
H65 C71 0.930 . S
C66 H63 0.931 . S
C66 C67 1.413 . S
C66 C68 1.360 . S
C67 C66 1.413 . S
C67 C71 1.429 . S
C68 C66 1.360 . S
C68 C69 1.372 . S
C69 H64 0.928 . S
C69 C68 1.372 . S
C69 C70 1.404 . S
C70 C69 1.404 . S
C70 C71 1.391 . S
C71 H65 0.930 . S
C71 C67 1.429 . S
C71 C70 1.391 . S
Sc72 O75 2.025 . S
Sc72 O82 2.091 1_455 S
Sc72 O85 2.119 . S
Sc72 O88 2.119 . S
Sc72 O91 2.090 1_455 S
Sc73 O75 2.025 . S
Sc73 O83 2.090 1_455 S
Sc73 O87 2.120 . S
Sc73 O89 2.120 . S
Sc73 O93 2.090 1_455 S
Sc74 O75 2.025 . S
Sc74 O84 2.091 1_455 S
Sc74 O86 2.119 . S
Sc74 O90 2.119 . S
Sc74 O92 2.091 1_455 S
O75 Sc72 2.025 . S
O75 Sc73 2.025 . S
O75 Sc74 2.025 . S
C76 O82 1.268 . S
C76 O92 1.268 . S
C77 O83 1.268 . S
C77 O91 1.268 . S
C78 O84 1.268 . S
C78 O93 1.268 . S
C79 O85 1.268 . S
C79 O89 1.268 . S
C80 O86 1.268 . S
C80 O88 1.268 . S
C81 O87 1.268 . S
C81 O90 1.268 . S
O82 Sc72 2.091 1_655 S
O82 C76 1.268 . S
O83 Sc73 2.090 1_655 S
O83 C77 1.268 . S
O84 Sc74 2.091 1_655 S
O84 C78 1.268 . S
O85 Sc72 2.119 . S
O85 C79 1.268 . S
O86 Sc74 2.119 . S
O86 C80 1.268 . S
O87 Sc73 2.120 . S
O87 C81 1.268 . S
O88 Sc72 2.119 . S
O88 C80 1.268 . S
O89 Sc73 2.120 . S
O89 C79 1.268 . S
O90 Sc74 2.119 . S
O90 C81 1.268 . S
O91 Sc72 2.090 1_655 S
O91 C77 1.268 . S
O92 Sc74 2.091 1_655 S
O92 C76 1.268 . S
O93 Sc73 2.090 1_655 S
O93 C78 1.268 . S
Sc94 O97 2.025 . S
Sc94 O104 2.113 . S
Sc94 O107 2.097 1_455 S
Sc94 O110 2.097 1_455 S
Sc94 O113 2.113 . S
Sc95 O97 2.025 . S
Sc95 O105 2.112 . S
Sc95 O109 2.097 1_455 S
Sc95 O111 2.097 1_455 S
Sc95 O115 2.112 . S
Sc96 O97 2.025 . S
Sc96 O106 2.112 . S
Sc96 O108 2.098 1_455 S
Sc96 O112 2.098 1_455 S
Sc96 O114 2.112 . S
O97 Sc94 2.025 . S
O97 Sc95 2.025 . S
O97 Sc96 2.025 . S
C98 O104 1.268 . S
C98 O114 1.268 . S
C99 O105 1.268 . S
C99 O113 1.268 . S
C100 O106 1.268 . S
C100 O115 1.268 . S
C101 O107 1.268 . S
C101 O111 1.268 . S
C102 O108 1.268 . S
C102 O110 1.268 . S
C103 O109 1.268 . S
C103 O112 1.268 . S
O104 Sc94 2.113 . S
O104 C98 1.268 . S
O105 Sc95 2.112 . S
O105 C99 1.268 . S
O106 Sc96 2.112 . S
O106 C100 1.268 . S
O107 Sc94 2.097 1_655 S
O107 C101 1.268 . S
O108 Sc96 2.098 1_655 S
O108 C102 1.268 . S
O109 Sc95 2.097 1_655 S
O109 C103 1.268 . S
O110 Sc94 2.097 1_655 S
O110 C102 1.268 . S
O111 Sc95 2.097 1_655 S
O111 C101 1.268 . S
O112 Sc96 2.098 1_655 S
O112 C103 1.268 . S
O113 Sc94 2.113 . S
O113 C99 1.268 . S
O114 Sc96 2.112 . S
O114 C98 1.268 . S
O115 Sc95 2.112 . S
O115 C100 1.268 . S
Sc116 O119 2.025 . S
Sc116 O126 2.105 . S
Sc116 O129 2.105 . S
Sc116 O132 2.105 . S
Sc116 O135 2.105 . S
Sc117 O119 2.025 . S
Sc117 O127 2.105 . S
Sc117 O131 2.105 . S
Sc117 O133 2.105 . S
Sc117 O137 2.105 . S
Sc118 O119 2.025 . S
Sc118 O128 2.105 . S
Sc118 O130 2.105 . S
Sc118 O134 2.105 . S
Sc118 O136 2.105 . S
O119 Sc116 2.025 . S
O119 Sc117 2.025 . S
O119 Sc118 2.025 . S
C120 O126 1.268 . S
C120 O136 1.268 . S
C121 O127 1.268 . S
C121 O135 1.268 . S
C122 O128 1.268 . S
C122 O137 1.268 . S
C123 O129 1.268 . S
C123 O133 1.268 . S
C124 O130 1.268 . S
C124 O132 1.268 . S
C125 O131 1.268 . S
C125 O134 1.268 . S
O126 Sc116 2.105 . S
O126 C120 1.268 . S
O127 Sc117 2.105 . S
O127 C121 1.268 . S
O128 Sc118 2.105 . S
O128 C122 1.268 . S
O129 Sc116 2.105 . S
O129 C123 1.268 . S
O130 Sc118 2.105 . S
O130 C124 1.268 . S
O131 Sc117 2.105 . S
O131 C125 1.268 . S
O132 Sc116 2.105 . S
O132 C124 1.268 . S
O133 Sc117 2.105 . S
O133 C123 1.268 . S
O134 Sc118 2.105 . S
O134 C125 1.268 . S
O135 Sc116 2.105 . S
O135 C121 1.268 . S
O136 Sc118 2.105 . S
O136 C120 1.268 . S
O137 Sc117 2.105 . S
O137 C122 1.268 . S
Sc138 O141 2.025 . S
Sc138 O148 2.105 . S
Sc138 O151 2.105 . S
Sc138 O154 2.105 . S
Sc138 O157 2.105 . S
Sc139 O141 2.025 . S
Sc139 O149 2.105 . S
Sc139 O153 2.105 . S
Sc139 O155 2.105 . S
Sc139 O159 2.105 . S
Sc140 O141 2.025 . S
Sc140 O150 2.105 . S
Sc140 O152 2.105 . S
Sc140 O156 2.105 . S
Sc140 O158 2.105 . S
O141 Sc138 2.025 . S
O141 Sc139 2.025 . S
O141 Sc140 2.025 . S
C142 O148 1.268 . S
C142 O158 1.268 . S
C143 O149 1.268 . S
C143 O157 1.268 . S
C144 O150 1.268 . S
C144 O159 1.268 . S
C145 O151 1.268 . S
C145 O155 1.268 . S
C146 O152 1.268 . S
C146 O154 1.268 . S
C147 O153 1.268 . S
C147 O156 1.268 . S
O148 Sc138 2.105 . S
O148 C142 1.268 . S
O149 Sc139 2.105 . S
O149 C143 1.268 . S
O150 Sc140 2.105 . S
O150 C144 1.268 . S
O151 Sc138 2.105 . S
O151 C145 1.268 . S
O152 Sc140 2.105 . S
O152 C146 1.268 . S
O153 Sc139 2.105 . S
O153 C147 1.268 . S
O154 Sc138 2.105 . S
O154 C146 1.268 . S
O155 Sc139 2.105 . S
O155 C145 1.268 . S
O156 Sc140 2.105 . S
O156 C147 1.268 . S
O157 Sc138 2.105 . S
O157 C143 1.268 . S
O158 Sc140 2.105 . S
O158 C142 1.268 . S
O159 Sc139 2.105 . S
O159 C144 1.268 . S
H160 C178 0.951 . S
H161 C180 0.951 . S
H162 C182 0.950 . S
H163 C183 0.950 . S
H164 C185 0.950 . S
H165 C188 0.950 . S
H166 C189 0.950 . S
H167 C191 0.950 . S
H168 C192 0.950 . S
H169 C193 0.951 . S
H170 C195 0.951 . S
H171 C197 0.950 . S
H172 C198 0.950 . S
H173 C200 0.950 . S
H174 C203 0.950 . S
H175 C204 0.950 . S
H176 C206 0.950 . S
H177 C207 0.950 . S
C178 H160 0.951 . S
C178 C179 1.366 . S
C178 C180 1.388 . S
C179 C178 1.366 . S
C179 C183 1.385 . S
C180 H161 0.951 . S
C180 C178 1.388 . S
C180 C181 1.366 . S
C181 C180 1.366 . S
C181 C182 1.414 . S
C181 C184 1.499 . S
C182 H162 0.950 . S
C182 C181 1.414 . S
C182 C183 1.374 . S
C183 H163 0.950 . S
C183 C179 1.385 . S
C183 C182 1.374 . S
C184 C181 1.499 . S
C184 C185 1.373 . S
C184 C186 1.389 . S
C185 H164 0.950 . S
C185 C184 1.373 . S
C185 C201 1.377 . S
C186 C184 1.389 . S
C186 C187 1.524 . S
C186 C200 1.377 . S
C187 C186 1.524 . S
C187 C188 1.397 1_556 S
C187 C192 1.363 . S
C188 H165 0.950 . S
C188 C187 1.397 1_554 S
C188 C189 1.334 . S
C189 H166 0.950 . S
C189 C188 1.334 . S
C189 C190 1.287 . S
C190 C189 1.287 . S
C190 C191 1.524 . S
C190 H209 0.913 . S
C191 H167 0.950 . S
C191 C190 1.524 . S
C191 C192 1.415 1_554 S
C192 H168 0.950 . S
C192 C187 1.363 . S
C192 C191 1.415 1_556 S
C193 H169 0.951 . S
C193 C194 1.366 . S
C193 C195 1.388 . S
C194 C193 1.366 . S
C194 C198 1.385 . S
C195 H170 0.951 . S
C195 C193 1.388 . S
C195 C196 1.366 . S
C196 C195 1.366 . S
C196 C197 1.414 . S
C196 C199 1.499 . S
C197 H171 0.950 . S
C197 C196 1.414 . S
C197 C198 1.374 . S
C198 H172 0.950 . S
C198 C194 1.385 . S
C198 C197 1.374 . S
C199 C196 1.499 . S
C199 C200 1.373 . S
C199 C201 1.389 . S
C200 H173 0.950 . S
C200 C186 1.377 . S
C200 C199 1.373 . S
C201 C185 1.377 . S
C201 C199 1.389 . S
C201 C202 1.524 . S
C202 C201 1.524 . S
C202 C203 1.397 . S
C202 C207 1.363 . S
C203 H174 0.950 . S
C203 C202 1.397 . S
C203 C204 1.334 . S
C204 H175 0.950 . S
C204 C203 1.334 . S
C204 C205 1.287 . S
C205 C204 1.287 . S
C205 C206 1.524 . S
C205 H208 0.999 . S
C206 H176 0.950 . S
C206 C205 1.524 . S
C206 C207 1.415 . S
C207 H177 0.950 . S
C207 C202 1.363 . S
C207 C206 1.415 . S
H208 C205 0.999 . S
H209 C190 0.913 . S
H210 C228 0.951 . S
H211 C230 0.951 . S
H212 C232 0.950 . S
H213 C233 0.950 . S
H214 C235 0.950 . S
H215 C238 0.950 . S
H216 C239 0.950 . S
H217 C241 0.950 . S
H218 C242 0.950 . S
H219 C243 0.951 . S
H220 C245 0.951 . S
H221 C247 0.950 . S
H222 C248 0.950 . S
H223 C250 0.950 . S
H224 C253 0.950 . S
H225 C254 0.950 . S
H226 C256 0.950 . S
H227 C257 0.950 . S
C228 H210 0.951 . S
C228 C229 1.366 . S
C228 C230 1.388 . S
C229 C228 1.366 . S
C229 C233 1.385 . S
C230 H211 0.951 . S
C230 C228 1.388 . S
C230 C231 1.366 . S
C231 C230 1.366 . S
C231 C232 1.414 . S
C231 C234 1.499 . S
C232 H212 0.950 . S
C232 C231 1.414 . S
C232 C233 1.374 . S
C233 H213 0.950 . S
C233 C229 1.385 . S
C233 C232 1.374 . S
C234 C231 1.499 . S
C234 C235 1.373 . S
C234 C236 1.389 . S
C235 H214 0.950 . S
C235 C234 1.373 . S
C235 C251 1.377 . S
C236 C234 1.389 . S
C236 C237 1.524 . S
C236 C250 1.377 . S
C237 C236 1.524 . S
C237 C238 1.397 . S
C237 C242 1.363 . S
C238 H215 0.950 . S
C238 C237 1.397 . S
C238 C239 1.334 . S
C239 H216 0.950 . S
C239 C238 1.334 . S
C239 C240 1.287 . S
C240 C239 1.287 . S
C240 C241 1.524 . S
C240 H259 0.913 . S
C241 H217 0.950 . S
C241 C240 1.524 . S
C241 C242 1.415 . S
C242 H218 0.950 . S
C242 C237 1.363 . S
C242 C241 1.415 . S
C243 H219 0.951 . S
C243 C244 1.366 . S
C243 C245 1.388 . S
C244 C243 1.366 . S
C244 C248 1.385 . S
C245 H220 0.951 . S
C245 C243 1.388 . S
C245 C246 1.366 . S
C246 C245 1.366 . S
C246 C247 1.414 . S
C246 C249 1.499 . S
C247 H221 0.950 . S
C247 C246 1.414 . S
C247 C248 1.374 . S
C248 H222 0.950 . S
C248 C244 1.385 . S
C248 C247 1.374 . S
C249 C246 1.499 . S
C249 C250 1.373 . S
C249 C251 1.389 . S
C250 H223 0.950 . S
C250 C236 1.377 . S
C250 C249 1.373 . S
C251 C235 1.377 . S
C251 C249 1.389 . S
C251 C252 1.524 . S
C252 C251 1.524 . S
C252 C253 1.397 . S
C252 C257 1.363 . S
C253 H224 0.950 . S
C253 C252 1.397 . S
C253 C254 1.334 . S
C254 H225 0.950 . S
C254 C253 1.334 . S
C254 C255 1.287 . S
C255 C254 1.287 . S
C255 C256 1.524 . S
C255 H258 0.999 . S
C256 H226 0.950 . S
C256 C255 1.524 . S
C256 C257 1.415 . S
C257 H227 0.950 . S
C257 C252 1.363 . S
C257 C256 1.415 . S
H258 C255 0.999 . S
H259 C240 0.913 . S
H260 C278 0.951 . S
H261 C280 0.951 . S
H262 C282 0.950 . S
H263 C283 0.950 . S
H264 C285 0.950 . S
H265 C288 0.950 1_554 S
H266 C289 0.950 . S
H267 C291 0.950 . S
H268 C292 0.950 . S
H269 C293 0.951 . S
H270 C295 0.951 . S
H271 C297 0.950 . S
H272 C298 0.950 . S
H273 C300 0.950 . S
H274 C303 0.950 . S
H275 C304 0.950 . S
H276 C306 0.950 . S
H277 C307 0.950 . S
C278 H260 0.951 . S
C278 C279 1.366 . S
C278 C280 1.388 . S
C279 C278 1.366 . S
C279 C283 1.385 . S
C280 H261 0.951 . S
C280 C278 1.388 . S
C280 C281 1.366 . S
C281 C280 1.366 . S
C281 C282 1.414 . S
C281 C284 1.499 . S
C282 H262 0.950 . S
C282 C281 1.414 . S
C282 C283 1.374 . S
C283 H263 0.950 . S
C283 C279 1.385 . S
C283 C282 1.374 . S
C284 C281 1.499 . S
C284 C285 1.373 . S
C284 C286 1.389 . S
C285 H264 0.950 . S
C285 C284 1.373 . S
C285 C301 1.377 . S
C286 C284 1.389 . S
C286 C287 1.524 . S
C286 C300 1.377 . S
C287 C286 1.524 . S
C287 C288 1.397 . S
C287 C292 1.363 . S
C288 H265 0.950 1_556 S
C288 C287 1.397 . S
C288 C289 1.334 1_556 S
C289 H266 0.950 . S
C289 C288 1.334 1_554 S
C289 C290 1.287 . S
C290 C289 1.287 . S
C290 C291 1.524 1_554 S
C290 H309 0.913 . S
C291 H267 0.950 . S
C291 C290 1.524 1_556 S
C291 C292 1.415 . S
C292 H268 0.950 . S
C292 C287 1.363 . S
C292 C291 1.415 . S
C293 H269 0.951 . S
C293 C294 1.366 . S
C293 C295 1.388 . S
C294 C293 1.366 . S
C294 C298 1.385 . S
C295 H270 0.951 . S
C295 C293 1.388 . S
C295 C296 1.366 . S
C296 C295 1.366 . S
C296 C297 1.414 . S
C296 C299 1.499 . S
C297 H271 0.950 . S
C297 C296 1.414 . S
C297 C298 1.374 . S
C298 H272 0.950 . S
C298 C294 1.385 . S
C298 C297 1.374 . S
C299 C296 1.499 . S
C299 C300 1.373 . S
C299 C301 1.389 . S
C300 H273 0.950 . S
C300 C286 1.377 . S
C300 C299 1.373 . S
C301 C285 1.377 . S
C301 C299 1.389 . S
C301 C302 1.524 . S
C302 C301 1.524 . S
C302 C303 1.397 . S
C302 C307 1.363 . S
C303 H274 0.950 . S
C303 C302 1.397 . S
C303 C304 1.334 . S
C304 H275 0.950 . S
C304 C303 1.334 . S
C304 C305 1.287 . S
C305 C304 1.287 . S
C305 C306 1.524 . S
C305 H308 0.999 . S
C306 H276 0.950 . S
C306 C305 1.524 . S
C306 C307 1.415 . S
C307 H277 0.950 . S
C307 C302 1.363 . S
C307 C306 1.415 . S
H308 C305 0.999 . S
H309 C290 0.913 . S
H310 C328 0.951 . S
H311 C330 0.951 . S
H312 C332 0.950 . S
H313 C333 0.950 . S
H314 C335 0.950 . S
H315 C338 0.950 . S
H316 C339 0.950 . S
H317 C341 0.950 . S
H318 C342 0.950 . S
H319 C343 0.951 . S
H320 C345 0.951 . S
H321 C347 0.950 . S
H322 C348 0.950 . S
H323 C350 0.950 . S
H324 C353 0.950 . S
H325 C354 0.950 . S
H326 C356 0.950 . S
H327 C357 0.950 . S
C328 H310 0.951 . S
C328 C329 1.366 . S
C328 C330 1.388 . S
C329 C328 1.366 . S
C329 C333 1.385 . S
C330 H311 0.951 . S
C330 C328 1.388 . S
C330 C331 1.366 . S
C331 C330 1.366 . S
C331 C332 1.414 . S
C331 C334 1.499 . S
C332 H312 0.950 . S
C332 C331 1.414 . S
C332 C333 1.374 . S
C333 H313 0.950 . S
C333 C329 1.385 . S
C333 C332 1.374 . S
C334 C331 1.499 . S
C334 C335 1.373 . S
C334 C336 1.389 . S
C335 H314 0.950 . S
C335 C334 1.373 . S
C335 C351 1.377 . S
C336 C334 1.389 . S
C336 C337 1.524 . S
C336 C350 1.377 . S
C337 C336 1.524 . S
C337 C338 1.397 . S
C337 C342 1.363 . S
C338 H315 0.950 . S
C338 C337 1.397 . S
C338 C339 1.334 . S
C339 H316 0.950 . S
C339 C338 1.334 . S
C339 C340 1.287 . S
C340 C339 1.287 . S
C340 C341 1.524 . S
C340 H359 0.913 . S
C341 H317 0.950 . S
C341 C340 1.524 . S
C341 C342 1.415 . S
C342 H318 0.950 . S
C342 C337 1.363 . S
C342 C341 1.415 . S
C343 H319 0.951 . S
C343 C344 1.366 . S
C343 C345 1.388 . S
C344 C343 1.366 . S
C344 C348 1.385 . S
C345 H320 0.951 . S
C345 C343 1.388 . S
C345 C346 1.366 . S
C346 C345 1.366 . S
C346 C347 1.414 . S
C346 C349 1.499 . S
C347 H321 0.950 . S
C347 C346 1.414 . S
C347 C348 1.374 . S
C348 H322 0.950 . S
C348 C344 1.385 . S
C348 C347 1.374 . S
C349 C346 1.499 . S
C349 C350 1.373 . S
C349 C351 1.389 . S
C350 H323 0.950 . S
C350 C336 1.377 . S
C350 C349 1.373 . S
C351 C335 1.377 . S
C351 C349 1.389 . S
C351 C352 1.524 . S
C352 C351 1.524 . S
C352 C353 1.397 . S
C352 C357 1.363 . S
C353 H324 0.950 . S
C353 C352 1.397 . S
C353 C354 1.334 . S
C354 H325 0.950 . S
C354 C353 1.334 . S
C354 C355 1.287 . S
C355 C354 1.287 . S
C355 C356 1.524 . S
C355 H358 0.999 . S
C356 H326 0.950 . S
C356 C355 1.524 . S
C356 C357 1.415 . S
C357 H327 0.950 . S
C357 C352 1.363 . S
C357 C356 1.415 . S
H358 C355 0.999 . S
H359 C340 0.913 . S
H360 C378 0.951 1_554 S
H361 C380 0.951 . S
H362 C382 0.950 . S
H363 C383 0.950 . S
H364 C385 0.950 . S
H365 C388 0.950 . S
H366 C389 0.950 . S
H367 C391 0.950 . S
H368 C392 0.950 . S
H369 C393 0.951 . S
H370 C395 0.951 . S
H371 C397 0.950 . S
H372 C398 0.950 . S
H373 C400 0.950 . S
H374 C403 0.950 . S
H375 C404 0.950 . S
H376 C406 0.950 . S
H377 C407 0.950 . S
C378 H360 0.951 1_556 S
C378 C379 1.366 . S
C378 C380 1.388 . S
C379 C378 1.366 . S
C379 C383 1.385 . S
C380 H361 0.951 . S
C380 C378 1.388 . S
C380 C381 1.366 . S
C381 C380 1.366 . S
C381 C382 1.414 . S
C381 C384 1.499 . S
C382 H362 0.950 . S
C382 C381 1.414 . S
C382 C383 1.374 . S
C383 H363 0.950 . S
C383 C379 1.385 . S
C383 C382 1.374 . S
C384 C381 1.499 . S
C384 C385 1.373 . S
C384 C386 1.389 . S
C385 H364 0.950 . S
C385 C384 1.373 . S
C385 C401 1.377 . S
C386 C384 1.389 . S
C386 C387 1.524 . S
C386 C400 1.377 . S
C387 C386 1.524 . S
C387 C388 1.397 . S
C387 C392 1.363 . S
C388 H365 0.950 . S
C388 C387 1.397 . S
C388 C389 1.334 . S
C389 H366 0.950 . S
C389 C388 1.334 . S
C389 C390 1.287 . S
C390 C389 1.287 . S
C390 C391 1.524 . S
C390 H409 0.913 . S
C391 H367 0.950 . S
C391 C390 1.524 . S
C391 C392 1.415 . S
C392 H368 0.950 . S
C392 C387 1.363 . S
C392 C391 1.415 . S
C393 H369 0.951 . S
C393 C394 1.366 . S
C393 C395 1.388 . S
C394 C393 1.366 . S
C394 C398 1.385 . S
C395 H370 0.951 . S
C395 C393 1.388 . S
C395 C396 1.366 . S
C396 C395 1.366 . S
C396 C397 1.414 . S
C396 C399 1.499 . S
C397 H371 0.950 . S
C397 C396 1.414 . S
C397 C398 1.374 . S
C398 H372 0.950 . S
C398 C394 1.385 . S
C398 C397 1.374 . S
C399 C396 1.499 . S
C399 C400 1.373 . S
C399 C401 1.389 . S
C400 H373 0.950 . S
C400 C386 1.377 . S
C400 C399 1.373 . S
C401 C385 1.377 . S
C401 C399 1.389 . S
C401 C402 1.524 . S
C402 C401 1.524 . S
C402 C403 1.397 . S
C402 C407 1.363 . S
C403 H374 0.950 . S
C403 C402 1.397 . S
C403 C404 1.334 . S
C404 H375 0.950 . S
C404 C403 1.334 . S
C404 C405 1.287 . S
C405 C404 1.287 . S
C405 C406 1.524 . S
C405 H408 0.999 . S
C406 H376 0.950 . S
C406 C405 1.524 . S
C406 C407 1.415 . S
C407 H377 0.950 . S
C407 C402 1.363 . S
C407 C406 1.415 . S
H408 C405 0.999 . S
H409 C390 0.913 . S
H410 C428 0.951 . S
H411 C430 0.951 . S
H412 C432 0.950 . S
H413 C433 0.950 . S
H414 C435 0.950 . S
H415 C438 0.950 . S
H416 C439 0.950 . S
H417 C441 0.950 . S
H418 C442 0.950 . S
H419 C443 0.951 . S
H420 C445 0.951 . S
H421 C447 0.950 . S
H422 C448 0.950 . S
H423 C450 0.950 . S
H424 C453 0.950 . S
H425 C454 0.950 . S
H426 C456 0.950 . S
H427 C457 0.950 . S
C428 H410 0.951 . S
C428 C429 1.366 . S
C428 C430 1.388 . S
C429 C428 1.366 . S
C429 C433 1.385 . S
C430 H411 0.951 . S
C430 C428 1.388 . S
C430 C431 1.366 . S
C431 C430 1.366 . S
C431 C432 1.414 . S
C431 C434 1.499 . S
C432 H412 0.950 . S
C432 C431 1.414 . S
C432 C433 1.374 . S
C433 H413 0.950 . S
C433 C429 1.385 . S
C433 C432 1.374 . S
C434 C431 1.499 . S
C434 C435 1.373 . S
C434 C436 1.389 . S
C435 H414 0.950 . S
C435 C434 1.373 . S
C435 C451 1.377 . S
C436 C434 1.389 . S
C436 C437 1.524 . S
C436 C450 1.377 . S
C437 C436 1.524 . S
C437 C438 1.397 . S
C437 C442 1.363 . S
C438 H415 0.950 . S
C438 C437 1.397 . S
C438 C439 1.334 . S
C439 H416 0.950 . S
C439 C438 1.334 . S
C439 C440 1.287 . S
C440 C439 1.287 . S
C440 C441 1.524 . S
C440 H459 0.913 . S
C441 H417 0.950 . S
C441 C440 1.524 . S
C441 C442 1.415 . S
C442 H418 0.950 . S
C442 C437 1.363 . S
C442 C441 1.415 . S
C443 H419 0.951 . S
C443 C444 1.366 . S
C443 C445 1.388 . S
C444 C443 1.366 . S
C444 C448 1.385 . S
C445 H420 0.951 . S
C445 C443 1.388 . S
C445 C446 1.366 . S
C446 C445 1.366 . S
C446 C447 1.414 . S
C446 C449 1.499 . S
C447 H421 0.950 . S
C447 C446 1.414 . S
C447 C448 1.374 . S
C448 H422 0.950 . S
C448 C444 1.385 . S
C448 C447 1.374 . S
C449 C446 1.499 . S
C449 C450 1.373 . S
C449 C451 1.389 . S
C450 H423 0.950 . S
C450 C436 1.377 . S
C450 C449 1.373 . S
C451 C435 1.377 . S
C451 C449 1.389 . S
C451 C452 1.524 . S
C452 C451 1.524 . S
C452 C453 1.397 . S
C452 C457 1.363 . S
C453 H424 0.950 . S
C453 C452 1.397 . S
C453 C454 1.334 . S
C454 H425 0.950 . S
C454 C453 1.334 . S
C454 C455 1.287 . S
C455 C454 1.287 . S
C455 C456 1.524 . S
C455 H458 0.999 . S
C456 H426 0.950 . S
C456 C455 1.524 . S
C456 C457 1.415 . S
C457 H427 0.950 . S
C457 C452 1.363 . S
C457 C456 1.415 . S
H458 C455 0.999 . S
H459 C440 0.913 . S
H460 C478 0.951 1_554 S
H461 C480 0.951 . S
H462 C482 0.950 . S
H463 C483 0.950 . S
H464 C485 0.950 . S
H465 C488 0.950 . S
H466 C489 0.950 . S
H467 C491 0.950 . S
H468 C492 0.950 . S
H469 C493 0.951 . S
H470 C495 0.951 . S
H471 C497 0.950 . S
H472 C498 0.950 . S
H473 C500 0.950 . S
H474 C503 0.950 . S
H475 C504 0.950 . S
H476 C506 0.950 . S
H477 C507 0.950 . S
C478 H460 0.951 1_556 S
C478 C479 1.366 . S
C478 C480 1.388 . S
C479 C478 1.366 . S
C479 C483 1.385 . S
C480 H461 0.951 . S
C480 C478 1.388 . S
C480 C481 1.366 . S
C481 C480 1.366 . S
C481 C482 1.414 . S
C481 C484 1.499 . S
C482 H462 0.950 . S
C482 C481 1.414 . S
C482 C483 1.374 . S
C483 H463 0.950 . S
C483 C479 1.385 . S
C483 C482 1.374 . S
C484 C481 1.499 . S
C484 C485 1.373 . S
C484 C486 1.389 . S
C485 H464 0.950 . S
C485 C484 1.373 . S
C485 C501 1.377 . S
C486 C484 1.389 . S
C486 C487 1.524 . S
C486 C500 1.377 . S
C487 C486 1.524 . S
C487 C488 1.397 . S
C487 C492 1.363 . S
C488 H465 0.950 . S
C488 C487 1.397 . S
C488 C489 1.334 . S
C489 H466 0.950 . S
C489 C488 1.334 . S
C489 C490 1.287 . S
C490 C489 1.287 . S
C490 C491 1.524 . S
C490 H509 0.913 . S
C491 H467 0.950 . S
C491 C490 1.524 . S
C491 C492 1.415 . S
C492 H468 0.950 . S
C492 C487 1.363 . S
C492 C491 1.415 . S
C493 H469 0.951 . S
C493 C494 1.366 . S
C493 C495 1.388 . S
C494 C493 1.366 . S
C494 C498 1.385 . S
C495 H470 0.951 . S
C495 C493 1.388 . S
C495 C496 1.366 . S
C496 C495 1.366 . S
C496 C497 1.414 . S
C496 C499 1.499 . S
C497 H471 0.950 . S
C497 C496 1.414 . S
C497 C498 1.374 . S
C498 H472 0.950 . S
C498 C494 1.385 . S
C498 C497 1.374 . S
C499 C496 1.499 . S
C499 C500 1.373 . S
C499 C501 1.389 . S
C500 H473 0.950 . S
C500 C486 1.377 . S
C500 C499 1.373 . S
C501 C485 1.377 . S
C501 C499 1.389 . S
C501 C502 1.524 . S
C502 C501 1.524 . S
C502 C503 1.397 . S
C502 C507 1.363 . S
C503 H474 0.950 . S
C503 C502 1.397 . S
C503 C504 1.334 . S
C504 H475 0.950 . S
C504 C503 1.334 . S
C504 C505 1.287 . S
C505 C504 1.287 . S
C505 C506 1.524 . S
C505 H508 0.999 . S
C506 H476 0.950 . S
C506 C505 1.524 . S
C506 C507 1.415 . S
C507 H477 0.950 . S
C507 C502 1.363 . S
C507 C506 1.415 . S
H508 C505 0.999 . S
H509 C490 0.913 . S
H510 C528 0.951 . S
H511 C530 0.951 . S
H512 C532 0.950 . S
H513 C533 0.950 . S
H514 C535 0.950 . S
H515 C538 0.950 . S
H516 C539 0.950 . S
H517 C541 0.950 . S
H518 C542 0.950 . S
H519 C543 0.951 . S
H520 C545 0.951 . S
H521 C547 0.950 . S
H522 C548 0.950 . S
H523 C550 0.950 . S
H524 C553 0.950 . S
H525 C554 0.950 . S
H526 C556 0.950 . S
H527 C557 0.950 . S
C528 H510 0.951 . S
C528 C529 1.366 . S
C528 C530 1.388 . S
C529 C528 1.366 . S
C529 C533 1.385 . S
C530 H511 0.951 . S
C530 C528 1.388 . S
C530 C531 1.366 . S
C531 C530 1.366 . S
C531 C532 1.414 . S
C531 C534 1.499 . S
C532 H512 0.950 . S
C532 C531 1.414 . S
C532 C533 1.374 . S
C533 H513 0.950 . S
C533 C529 1.385 . S
C533 C532 1.374 . S
C534 C531 1.499 . S
C534 C535 1.373 . S
C534 C536 1.389 . S
C535 H514 0.950 . S
C535 C534 1.373 . S
C535 C551 1.377 . S
C536 C534 1.389 . S
C536 C537 1.524 . S
C536 C550 1.377 . S
C537 C536 1.524 . S
C537 C538 1.397 . S
C537 C542 1.363 . S
C538 H515 0.950 . S
C538 C537 1.397 . S
C538 C539 1.334 . S
C539 H516 0.950 . S
C539 C538 1.334 . S
C539 C540 1.287 . S
C540 C539 1.287 . S
C540 C541 1.524 . S
C540 H559 0.913 . S
C541 H517 0.950 . S
C541 C540 1.524 . S
C541 C542 1.415 . S
C542 H518 0.950 . S
C542 C537 1.363 . S
C542 C541 1.415 . S
C543 H519 0.951 . S
C543 C544 1.366 . S
C543 C545 1.388 . S
C544 C543 1.366 . S
C544 C548 1.385 . S
C545 H520 0.951 . S
C545 C543 1.388 . S
C545 C546 1.366 . S
C546 C545 1.366 . S
C546 C547 1.414 . S
C546 C549 1.499 . S
C547 H521 0.950 . S
C547 C546 1.414 . S
C547 C548 1.374 . S
C548 H522 0.950 . S
C548 C544 1.385 . S
C548 C547 1.374 . S
C549 C546 1.499 . S
C549 C550 1.373 . S
C549 C551 1.389 . S
C550 H523 0.950 . S
C550 C536 1.377 . S
C550 C549 1.373 . S
C551 C535 1.377 . S
C551 C549 1.389 . S
C551 C552 1.524 . S
C552 C551 1.524 . S
C552 C553 1.397 . S
C552 C557 1.363 . S
C553 H524 0.950 . S
C553 C552 1.397 . S
C553 C554 1.334 . S
C554 H525 0.950 . S
C554 C553 1.334 . S
C554 C555 1.287 . S
C555 C554 1.287 . S
C555 C556 1.524 . S
C555 H558 0.999 . S
C556 H526 0.950 . S
C556 C555 1.524 . S
C556 C557 1.415 . S
C557 H527 0.950 . S
C557 C552 1.363 . S
C557 C556 1.415 . S
H558 C555 0.999 . S
H559 C540 0.913 . S
H560 C578 0.951 . S
H561 C580 0.951 . S
H562 C582 0.950 . S
H563 C583 0.942 1_554 S
H564 C585 0.950 . S
H565 C588 0.950 . S
H566 C589 0.950 . S
H567 C591 0.950 . S
H568 C592 0.950 . S
H569 C593 0.951 . S
H570 C595 0.951 . S
H571 C597 0.950 . S
H572 C598 0.950 . S
H573 C600 0.950 . S
H574 C603 0.950 . S
H575 C604 0.950 . S
H576 C606 0.950 . S
H577 C607 0.950 . S
C578 H560 0.951 . S
C578 C579 1.366 . S
C578 C580 1.388 . S
C579 C578 1.366 . S
C579 C583 1.385 . S
C580 H561 0.951 . S
C580 C578 1.388 . S
C580 C581 1.366 . S
C581 C580 1.366 . S
C581 C582 1.414 . S
C581 C584 1.499 . S
C582 H562 0.950 . S
C582 C581 1.414 . S
C582 C583 1.374 . S
C583 H563 0.942 1_556 S
C583 C579 1.385 . S
C583 C582 1.374 . S
C584 C581 1.499 . S
C584 C585 1.373 . S
C584 C586 1.389 . S
C585 H564 0.950 . S
C585 C584 1.373 . S
C585 C601 1.377 . S
C586 C584 1.389 . S
C586 C587 1.524 . S
C586 C600 1.377 . S
C587 C586 1.524 . S
C587 C588 1.397 . S
C587 C592 1.363 . S
C588 H565 0.950 . S
C588 C587 1.397 . S
C588 C589 1.334 . S
C589 H566 0.950 . S
C589 C588 1.334 . S
C589 C590 1.287 . S
C590 C589 1.287 . S
C590 C591 1.524 . S
C590 H609 0.913 . S
C591 H567 0.950 . S
C591 C590 1.524 . S
C591 C592 1.415 . S
C592 H568 0.950 . S
C592 C587 1.363 . S
C592 C591 1.415 . S
C593 H569 0.951 . S
C593 C594 1.366 . S
C593 C595 1.388 . S
C594 C593 1.366 . S
C594 C598 1.385 . S
C595 H570 0.951 . S
C595 C593 1.388 . S
C595 C596 1.366 . S
C596 C595 1.366 . S
C596 C597 1.414 . S
C596 C599 1.499 . S
C597 H571 0.950 . S
C597 C596 1.414 . S
C597 C598 1.374 . S
C598 H572 0.950 . S
C598 C594 1.385 . S
C598 C597 1.374 . S
C599 C596 1.499 . S
C599 C600 1.373 . S
C599 C601 1.389 . S
C600 H573 0.950 . S
C600 C586 1.377 . S
C600 C599 1.373 . S
C601 C585 1.377 . S
C601 C599 1.389 . S
C601 C602 1.524 . S
C602 C601 1.524 . S
C602 C603 1.397 . S
C602 C607 1.363 . S
C603 H574 0.950 . S
C603 C602 1.397 . S
C603 C604 1.334 . S
C604 H575 0.950 . S
C604 C603 1.334 . S
C604 C605 1.287 1_556 S
C605 C604 1.287 1_554 S
C605 C606 1.524 . S
C605 H608 0.999 . S
C606 H576 0.950 . S
C606 C605 1.524 . S
C606 C607 1.415 1_554 S
C607 H577 0.950 . S
C607 C602 1.363 . S
C607 C606 1.415 1_556 S
H608 C605 0.999 . S
H609 C590 0.913 . S
H610 C628 0.951 . S
H611 C630 0.951 . S
H612 C632 0.950 . S
H613 C633 0.950 . S
H614 C635 0.950 . S
H615 C638 0.950 . S
H616 C639 0.950 . S
H617 C641 0.950 . S
H618 C642 0.950 . S
H619 C643 0.951 . S
H620 C645 0.951 . S
H621 C647 0.950 . S
H622 C648 0.950 . S
H623 C650 0.950 . S
H624 C653 0.950 . S
H625 C654 0.950 . S
H626 C656 0.950 . S
H627 C657 0.950 . S
C628 H610 0.951 . S
C628 C629 1.366 . S
C628 C630 1.388 . S
C629 C628 1.366 . S
C629 C633 1.385 . S
C630 H611 0.951 . S
C630 C628 1.388 . S
C630 C631 1.366 . S
C631 C630 1.366 . S
C631 C632 1.414 . S
C631 C634 1.499 . S
C632 H612 0.950 . S
C632 C631 1.414 . S
C632 C633 1.374 . S
C633 H613 0.950 . S
C633 C629 1.385 . S
C633 C632 1.374 . S
C634 C631 1.499 . S
C634 C635 1.373 . S
C634 C636 1.389 . S
C635 H614 0.950 . S
C635 C634 1.373 . S
C635 C651 1.377 . S
C636 C634 1.389 . S
C636 C637 1.524 . S
C636 C650 1.377 . S
C637 C636 1.524 . S
C637 C638 1.397 . S
C637 C642 1.363 . S
C638 H615 0.950 . S
C638 C637 1.397 . S
C638 C639 1.334 . S
C639 H616 0.950 . S
C639 C638 1.334 . S
C639 C640 1.287 . S
C640 C639 1.287 . S
C640 C641 1.524 . S
C640 H659 0.913 . S
C641 H617 0.950 . S
C641 C640 1.524 . S
C641 C642 1.415 . S
C642 H618 0.950 . S
C642 C637 1.363 . S
C642 C641 1.415 . S
C643 H619 0.951 . S
C643 C644 1.366 . S
C643 C645 1.388 . S
C644 C643 1.366 . S
C644 C648 1.385 . S
C645 H620 0.951 . S
C645 C643 1.388 . S
C645 C646 1.366 . S
C646 C645 1.366 . S
C646 C647 1.414 . S
C646 C649 1.499 . S
C647 H621 0.950 . S
C647 C646 1.414 . S
C647 C648 1.374 . S
C648 H622 0.950 . S
C648 C644 1.385 . S
C648 C647 1.374 . S
C649 C646 1.499 . S
C649 C650 1.373 . S
C649 C651 1.389 . S
C650 H623 0.950 . S
C650 C636 1.377 . S
C650 C649 1.373 . S
C651 C635 1.377 . S
C651 C649 1.389 . S
C651 C652 1.524 . S
C652 C651 1.524 . S
C652 C653 1.397 . S
C652 C657 1.363 . S
C653 H624 0.950 . S
C653 C652 1.397 . S
C653 C654 1.334 . S
C654 H625 0.950 . S
C654 C653 1.334 . S
C654 C655 1.287 . S
C655 C654 1.287 . S
C655 C656 1.524 . S
C655 H658 0.999 . S
C656 H626 0.950 . S
C656 C655 1.524 . S
C656 C657 1.415 . S
C657 H627 0.950 . S
C657 C652 1.363 . S
C657 C656 1.415 . S
H658 C655 0.999 . S
H659 C640 0.913 . S
H660 C678 0.951 . S
H661 C680 0.951 . S
H662 C682 0.950 . S
H663 C683 0.950 . S
H664 C685 0.950 . S
H665 C688 0.950 . S
H666 C689 0.950 . S
H667 C691 0.950 . S
H668 C692 0.950 . S
H669 C693 0.951 . S
H670 C695 0.951 . S
H671 C697 0.950 . S
H672 C698 0.950 . S
H673 C700 0.950 . S
H674 C703 0.950 . S
H675 C704 0.950 . S
H676 C706 0.950 . S
H677 C707 0.950 . S
C678 H660 0.951 . S
C678 C679 1.366 . S
C678 C680 1.388 . S
C679 C678 1.366 . S
C679 C683 1.385 . S
C680 H661 0.951 . S
C680 C678 1.388 . S
C680 C681 1.366 . S
C681 C680 1.366 . S
C681 C682 1.414 . S
C681 C684 1.499 . S
C682 H662 0.950 . S
C682 C681 1.414 . S
C682 C683 1.374 . S
C683 H663 0.950 . S
C683 C679 1.385 . S
C683 C682 1.374 . S
C684 C681 1.499 . S
C684 C685 1.373 . S
C684 C686 1.389 . S
C685 H664 0.950 . S
C685 C684 1.373 . S
C685 C701 1.377 . S
C686 C684 1.389 . S
C686 C687 1.524 . S
C686 C700 1.377 . S
C687 C686 1.524 . S
C687 C688 1.397 1_556 S
C687 C692 1.363 . S
C688 H665 0.950 . S
C688 C687 1.397 1_554 S
C688 C689 1.334 . S
C689 H666 0.950 . S
C689 C688 1.334 . S
C689 C690 1.287 . S
C690 C689 1.287 . S
C690 C691 1.524 1_554 S
C690 H709 0.913 . S
C691 H667 0.950 . S
C691 C690 1.524 1_556 S
C691 C692 1.415 . S
C692 H668 0.950 . S
C692 C687 1.363 . S
C692 C691 1.415 . S
C693 H669 0.951 . S
C693 C694 1.366 . S
C693 C695 1.388 . S
C694 C693 1.366 . S
C694 C698 1.385 . S
C695 H670 0.951 . S
C695 C693 1.388 . S
C695 C696 1.366 . S
C696 C695 1.366 . S
C696 C697 1.414 . S
C696 C699 1.499 . S
C697 H671 0.950 . S
C697 C696 1.414 . S
C697 C698 1.374 . S
C698 H672 0.950 . S
C698 C694 1.385 . S
C698 C697 1.374 . S
C699 C696 1.499 . S
C699 C700 1.373 . S
C699 C701 1.389 . S
C700 H673 0.950 . S
C700 C686 1.377 . S
C700 C699 1.373 . S
C701 C685 1.377 . S
C701 C699 1.389 . S
C701 C702 1.524 . S
C702 C701 1.524 . S
C702 C703 1.397 . S
C702 C707 1.363 . S
C703 H674 0.950 . S
C703 C702 1.397 . S
C703 C704 1.334 . S
C704 H675 0.950 . S
C704 C703 1.334 . S
C704 C705 1.287 . S
C705 C704 1.287 . S
C705 C706 1.524 . S
C705 H708 0.999 . S
C706 H676 0.950 . S
C706 C705 1.524 . S
C706 C707 1.415 . S
C707 H677 0.950 . S
C707 C702 1.363 . S
C707 C706 1.415 . S
H708 C705 0.999 . S
H709 C690 0.913 . S
H710 C728 0.951 . S
H711 C730 0.951 . S
H712 C732 0.950 . S
H713 C733 0.950 . S
H714 C735 0.950 . S
H715 C738 0.950 . S
H716 C739 0.950 . S
H717 C741 0.950 . S
H718 C742 0.950 . S
H719 C743 0.951 . S
H720 C745 0.951 . S
H721 C747 0.950 . S
H722 C748 0.950 . S
H723 C750 0.950 . S
H724 C753 0.950 . S
H725 C754 0.950 . S
H726 C756 0.950 . S
H727 C757 0.950 . S
C728 H710 0.951 . S
C728 C729 1.366 . S
C728 C730 1.388 . S
C729 C728 1.366 . S
C729 C733 1.385 . S
C730 H711 0.951 . S
C730 C728 1.388 . S
C730 C731 1.366 . S
C731 C730 1.366 . S
C731 C732 1.414 . S
C731 C734 1.499 . S
C732 H712 0.950 . S
C732 C731 1.414 . S
C732 C733 1.374 . S
C733 H713 0.950 . S
C733 C729 1.385 . S
C733 C732 1.374 . S
C734 C731 1.499 . S
C734 C735 1.373 . S
C734 C736 1.389 . S
C735 H714 0.950 . S
C735 C734 1.373 . S
C735 C751 1.377 . S
C736 C734 1.389 . S
C736 C737 1.524 . S
C736 C750 1.377 . S
C737 C736 1.524 . S
C737 C738 1.397 . S
C737 C742 1.363 . S
C738 H715 0.950 . S
C738 C737 1.397 . S
C738 C739 1.334 . S
C739 H716 0.950 . S
C739 C738 1.334 . S
C739 C740 1.287 . S
C740 C739 1.287 . S
C740 C741 1.524 . S
C740 H759 0.913 . S
C741 H717 0.950 . S
C741 C740 1.524 . S
C741 C742 1.415 . S
C742 H718 0.950 . S
C742 C737 1.363 . S
C742 C741 1.415 . S
C743 H719 0.951 . S
C743 C744 1.366 . S
C743 C745 1.388 . S
C744 C743 1.366 . S
C744 C748 1.385 . S
C745 H720 0.951 . S
C745 C743 1.388 . S
C745 C746 1.366 . S
C746 C745 1.366 . S
C746 C747 1.414 . S
C746 C749 1.499 . S
C747 H721 0.950 . S
C747 C746 1.414 . S
C747 C748 1.374 . S
C748 H722 0.950 . S
C748 C744 1.385 . S
C748 C747 1.374 . S
C749 C746 1.499 . S
C749 C750 1.373 . S
C749 C751 1.389 . S
C750 H723 0.950 . S
C750 C736 1.377 . S
C750 C749 1.373 . S
C751 C735 1.377 . S
C751 C749 1.389 . S
C751 C752 1.524 . S
C752 C751 1.524 . S
C752 C753 1.397 . S
C752 C757 1.363 . S
C753 H724 0.950 . S
C753 C752 1.397 . S
C753 C754 1.334 . S
C754 H725 0.950 . S
C754 C753 1.334 . S
C754 C755 1.287 . S
C755 C754 1.287 . S
C755 C756 1.524 . S
C755 H758 0.999 . S
C756 H726 0.950 . S
C756 C755 1.524 . S
C756 C757 1.415 . S
C757 H727 0.950 . S
C757 C752 1.363 . S
C757 C756 1.415 . S
H758 C755 0.999 . S
H759 C740 0.913 . S
H760 C778 0.951 . S
H761 C780 0.951 . S
H762 C782 0.950 1_545 S
H763 C783 0.950 . S
H764 C785 0.950 . S
H765 C788 0.950 1_556 S
H766 C789 0.950 . S
H767 C791 0.950 . S
H768 C792 0.942 1_556 S
H769 C793 0.951 . S
H770 C795 0.951 . S
H771 C797 0.950 . S
H772 C798 0.950 . S
H773 C800 0.950 . S
H774 C803 0.950 . S
H775 C804 0.950 . S
H776 C806 0.950 . S
H777 C807 0.950 . S
C778 H760 0.951 . S
C778 C779 1.366 . S
C778 C780 1.388 . S
C779 C778 1.366 . S
C779 C783 1.385 . S
C780 H761 0.951 . S
C780 C778 1.388 . S
C780 C781 1.366 . S
C781 C780 1.366 . S
C781 C782 1.414 . S
C781 C784 1.499 1_565 S
C782 H762 0.950 1_565 S
C782 C781 1.414 . S
C782 C783 1.374 . S
C783 H763 0.950 . S
C783 C779 1.385 . S
C783 C782 1.374 . S
C784 C781 1.499 1_545 S
C784 C785 1.373 . S
C784 C786 1.389 . S
C785 H764 0.950 . S
C785 C784 1.373 . S
C785 C801 1.377 . S
C786 C784 1.389 . S
C786 C787 1.524 . S
C786 C800 1.377 . S
C787 C786 1.524 . S
C787 C788 1.397 1_556 S
C787 C792 1.357 1_556 S
C788 H765 0.950 1_554 S
C788 C787 1.397 1_554 S
C788 C789 1.334 . S
C789 H766 0.950 . S
C789 C788 1.334 . S
C789 C790 1.287 . S
C790 C789 1.287 . S
C790 C791 1.524 . S
C790 H809 0.913 . S
C791 H767 0.950 . S
C791 C790 1.524 . S
C791 C792 1.428 . S
C792 H768 0.942 1_554 S
C792 C787 1.357 1_554 S
C792 C791 1.428 . S
C793 H769 0.951 . S
C793 C794 1.366 . S
C793 C795 1.388 . S
C794 C793 1.366 . S
C794 C798 1.385 . S
C795 H770 0.951 . S
C795 C793 1.388 . S
C795 C796 1.366 . S
C796 C795 1.366 . S
C796 C797 1.414 . S
C796 C799 1.499 . S
C797 H771 0.950 . S
C797 C796 1.414 . S
C797 C798 1.374 . S
C798 H772 0.950 . S
C798 C794 1.385 . S
C798 C797 1.374 . S
C799 C796 1.499 . S
C799 C800 1.373 . S
C799 C801 1.389 . S
C800 H773 0.950 . S
C800 C786 1.377 . S
C800 C799 1.373 . S
C801 C785 1.377 . S
C801 C799 1.389 . S
C801 C802 1.524 . S
C802 C801 1.524 . S
C802 C803 1.397 . S
C802 C807 1.363 . S
C803 H774 0.950 . S
C803 C802 1.397 . S
C803 C804 1.334 . S
C804 H775 0.950 . S
C804 C803 1.334 . S
C804 C805 1.287 . S
C805 C804 1.287 . S
C805 C806 1.524 . S
C805 H808 0.999 . S
C806 H776 0.950 . S
C806 C805 1.524 . S
C806 C807 1.415 . S
C807 H777 0.950 . S
C807 C802 1.363 . S
C807 C806 1.415 . S
H808 C805 0.999 . S
H809 C790 0.913 . S
H810 C828 0.951 . S
H811 C830 0.951 . S
H812 C832 0.950 1_565 S
H813 C833 0.950 . S
H814 C835 0.950 . S
H815 C838 0.950 1_565 S
H816 C839 0.950 . S
H817 C841 0.950 . S
H818 C842 0.950 . S
H819 C843 0.951 . S
H820 C845 0.951 . S
H821 C847 0.950 . S
H822 C848 0.950 . S
H823 C850 0.950 . S
H824 C853 0.950 . S
H825 C854 0.950 . S
H826 C856 0.950 . S
H827 C857 0.950 . S
C828 H810 0.951 . S
C828 C829 1.366 . S
C828 C830 1.388 . S
C829 C828 1.366 . S
C829 C833 1.385 . S
C830 H811 0.951 . S
C830 C828 1.388 . S
C830 C831 1.366 . S
C831 C830 1.366 . S
C831 C832 1.414 . S
C831 C834 1.499 1_545 S
C832 H812 0.950 1_545 S
C832 C831 1.414 . S
C832 C833 1.374 . S
C833 H813 0.950 . S
C833 C829 1.385 . S
C833 C832 1.374 . S
C834 C831 1.499 1_565 S
C834 C835 1.373 . S
C834 C836 1.389 . S
C835 H814 0.950 . S
C835 C834 1.373 . S
C835 C851 1.377 . S
C836 C834 1.389 . S
C836 C837 1.524 1_565 S
C836 C850 1.377 . S
C837 C836 1.524 1_545 S
C837 C838 1.397 . S
C837 C842 1.363 . S
C838 H815 0.950 1_545 S
C838 C837 1.397 . S
C838 C839 1.334 . S
C839 H816 0.950 . S
C839 C838 1.334 . S
C839 C840 1.287 . S
C840 C839 1.287 . S
C840 C841 1.524 . S
C840 H859 0.913 . S
C841 H817 0.950 . S
C841 C840 1.524 . S
C841 C842 1.415 . S
C842 H818 0.950 . S
C842 C837 1.363 . S
C842 C841 1.415 . S
C843 H819 0.951 . S
C843 C844 1.366 . S
C843 C845 1.388 . S
C844 C843 1.366 . S
C844 C848 1.385 . S
C845 H820 0.951 . S
C845 C843 1.388 . S
C845 C846 1.366 . S
C846 C845 1.366 . S
C846 C847 1.414 . S
C846 C849 1.499 . S
C847 H821 0.950 . S
C847 C846 1.414 . S
C847 C848 1.374 . S
C848 H822 0.950 . S
C848 C844 1.385 . S
C848 C847 1.374 . S
C849 C846 1.499 . S
C849 C850 1.373 . S
C849 C851 1.389 . S
C850 H823 0.950 . S
C850 C836 1.377 . S
C850 C849 1.373 . S
C851 C835 1.377 . S
C851 C849 1.389 . S
C851 C852 1.524 . S
C852 C851 1.524 . S
C852 C853 1.397 . S
C852 C857 1.363 . S
C853 H824 0.950 . S
C853 C852 1.397 . S
C853 C854 1.334 . S
C854 H825 0.950 . S
C854 C853 1.334 . S
C854 C855 1.287 . S
C855 C854 1.287 . S
C855 C856 1.524 . S
C855 H858 0.999 . S
C856 H826 0.950 . S
C856 C855 1.524 . S
C856 C857 1.415 . S
C857 H827 0.950 . S
C857 C852 1.363 . S
C857 C856 1.415 . S
H858 C855 0.999 . S
H859 C840 0.913 . S
H860 C878 0.951 . S
H861 C880 0.951 . S
H862 C882 0.950 1_545 S
H863 C883 0.950 1_554 S
H864 C885 0.950 . S
H865 C888 0.950 . S
H866 C889 0.950 . S
H867 C891 0.950 . S
H868 C892 0.950 . S
H869 C893 0.951 . S
H870 C895 0.951 . S
H871 C897 0.950 . S
H872 C898 0.950 . S
H873 C900 0.950 . S
H874 C903 0.950 . S
H875 C904 0.950 . S
H876 C906 0.950 1_554 S
H877 C907 0.950 . S
C878 H860 0.951 . S
C878 C879 1.366 . S
C878 C880 1.388 . S
C879 C878 1.366 . S
C879 C883 1.385 . S
C880 H861 0.951 . S
C880 C878 1.388 . S
C880 C881 1.366 . S
C881 C880 1.366 . S
C881 C882 1.414 . S
C881 C884 1.499 1_565 S
C882 H862 0.950 1_565 S
C882 C881 1.414 . S
C882 C883 1.374 . S
C883 H863 0.950 1_556 S
C883 C879 1.385 . S
C883 C882 1.374 . S
C884 C881 1.499 1_545 S
C884 C885 1.373 . S
C884 C886 1.389 . S
C885 H864 0.950 . S
C885 C884 1.373 . S
C885 C901 1.377 . S
C886 C884 1.389 . S
C886 C887 1.524 . S
C886 C900 1.377 . S
C887 C886 1.524 . S
C887 C888 1.397 . S
C887 C892 1.363 . S
C888 H865 0.950 . S
C888 C887 1.397 . S
C888 C889 1.334 . S
C889 H866 0.950 . S
C889 C888 1.334 . S
C889 C890 1.287 . S
C890 C889 1.287 . S
C890 C891 1.524 . S
C890 H909 0.913 . S
C891 H867 0.950 . S
C891 C890 1.524 . S
C891 C892 1.415 . S
C892 H868 0.950 . S
C892 C887 1.363 . S
C892 C891 1.415 . S
C893 H869 0.951 . S
C893 C894 1.366 . S
C893 C895 1.388 . S
C894 C893 1.366 . S
C894 C898 1.385 . S
C895 H870 0.951 . S
C895 C893 1.388 . S
C895 C896 1.366 . S
C896 C895 1.366 . S
C896 C897 1.414 . S
C896 C899 1.499 . S
C897 H871 0.950 . S
C897 C896 1.414 . S
C897 C898 1.374 . S
C898 H872 0.950 . S
C898 C894 1.385 . S
C898 C897 1.374 . S
C899 C896 1.499 . S
C899 C900 1.373 . S
C899 C901 1.389 . S
C900 H873 0.950 . S
C900 C886 1.377 . S
C900 C899 1.373 . S
C901 C885 1.377 . S
C901 C899 1.389 . S
C901 C902 1.524 . S
C902 C901 1.524 . S
C902 C903 1.397 . S
C902 C907 1.363 . S
C903 H874 0.950 . S
C903 C902 1.397 . S
C903 C904 1.334 . S
C904 H875 0.950 . S
C904 C903 1.334 . S
C904 C905 1.287 . S
C905 C904 1.287 . S
C905 C906 1.524 . S
C905 H908 0.999 . S
C906 H876 0.950 1_556 S
C906 C905 1.524 . S
C906 C907 1.415 . S
C907 H877 0.950 . S
C907 C902 1.363 . S
C907 C906 1.415 . S
H908 C905 0.999 . S
H909 C890 0.913 . S
H910 C928 0.951 . S
H911 C930 0.951 . S
H912 C932 0.950 . S
H913 C933 0.950 . S
H914 C935 0.950 1_545 S
H915 C938 0.950 . S
H916 C939 0.950 . S
H917 C941 0.950 . S
H918 C942 0.950 . S
H919 C943 0.951 . S
H920 C945 0.951 . S
H921 C947 0.950 . S
H922 C948 0.950 . S
H923 C950 0.950 . S
H924 C953 0.950 . S
H925 C954 0.949 1_565 S
H926 C956 0.950 . S
H927 C957 0.950 . S
C928 H910 0.951 . S
C928 C929 1.366 . S
C928 C930 1.388 . S
C929 C928 1.366 . S
C929 C933 1.385 . S
C930 H911 0.951 . S
C930 C928 1.388 . S
C930 C931 1.366 . S
C931 C930 1.366 . S
C931 C932 1.414 . S
C931 C934 1.499 1_545 S
C932 H912 0.950 . S
C932 C931 1.414 . S
C932 C933 1.374 . S
C933 H913 0.950 . S
C933 C929 1.385 . S
C933 C932 1.374 . S
C934 C931 1.499 1_565 S
C934 C935 1.373 . S
C934 C936 1.389 . S
C935 H914 0.950 1_565 S
C935 C934 1.373 . S
C935 C951 1.377 . S
C936 C934 1.389 . S
C936 C937 1.524 . S
C936 C950 1.377 . S
C937 C936 1.524 . S
C937 C938 1.397 . S
C937 C942 1.363 . S
C938 H915 0.950 . S
C938 C937 1.397 . S
C938 C939 1.334 . S
C939 H916 0.950 . S
C939 C938 1.334 . S
C939 C940 1.287 . S
C940 C939 1.287 . S
C940 C941 1.524 . S
C940 H959 0.913 . S
C941 H917 0.950 . S
C941 C940 1.524 . S
C941 C942 1.415 . S
C942 H918 0.950 . S
C942 C937 1.363 . S
C942 C941 1.415 . S
C943 H919 0.951 . S
C943 C944 1.366 . S
C943 C945 1.388 . S
C944 C943 1.366 . S
C944 C948 1.385 . S
C945 H920 0.951 . S
C945 C943 1.388 . S
C945 C946 1.366 . S
C946 C945 1.366 . S
C946 C947 1.414 . S
C946 C949 1.499 . S
C947 H921 0.950 . S
C947 C946 1.414 . S
C947 C948 1.374 . S
C948 H922 0.950 . S
C948 C944 1.385 . S
C948 C947 1.374 . S
C949 C946 1.499 . S
C949 C950 1.373 . S
C949 C951 1.389 . S
C950 H923 0.950 . S
C950 C936 1.377 . S
C950 C949 1.373 . S
C951 C935 1.377 . S
C951 C949 1.389 . S
C951 C952 1.524 . S
C952 C951 1.524 . S
C952 C953 1.397 . S
C952 C957 1.363 1_565 S
C953 H924 0.950 . S
C953 C952 1.397 . S
C953 C954 1.329 1_565 S
C954 H925 0.949 1_545 S
C954 C953 1.329 1_545 S
C954 C955 1.293 . S
C955 C954 1.293 . S
C955 C956 1.524 . S
C955 H958 0.999 . S
C956 H926 0.950 . S
C956 C955 1.524 . S
C956 C957 1.415 . S
C957 H927 0.950 . S
C957 C952 1.363 1_545 S
C957 C956 1.415 . S
H958 C955 0.999 . S
H959 C940 0.913 . S
H960 C978 0.951 . S
H961 C980 0.951 . S
H962 C982 0.950 . S
H963 C983 0.950 . S
H964 C985 0.950 . S
H965 C988 0.950 . S
H966 C989 0.950 . S
H967 C991 0.950 . S
H968 C992 0.950 . S
H969 C993 0.951 . S
H970 C995 0.951 . S
H971 C997 0.950 . S
H972 C998 0.950 . S
H973 C1000 0.950 . S
H974 C1003 0.950 . S
H975 C1004 0.950 . S
H976 C1006 0.950 . S
H977 C1007 0.950 . S
C978 H960 0.951 . S
C978 C979 1.366 . S
C978 C980 1.388 . S
C979 C978 1.366 . S
C979 C983 1.385 . S
C980 H961 0.951 . S
C980 C978 1.388 . S
C980 C981 1.366 . S
C981 C980 1.366 . S
C981 C982 1.414 . S
C981 C984 1.499 . S
C982 H962 0.950 . S
C982 C981 1.414 . S
C982 C983 1.374 . S
C983 H963 0.950 . S
C983 C979 1.385 . S
C983 C982 1.374 . S
C984 C981 1.499 . S
C984 C985 1.373 . S
C984 C986 1.389 . S
C985 H964 0.950 . S
C985 C984 1.373 . S
C985 C1001 1.377 . S
C986 C984 1.389 . S
C986 C987 1.524 . S
C986 C1000 1.377 . S
C987 C986 1.524 . S
C987 C988 1.397 . S
C987 C992 1.363 . S
C988 H965 0.950 . S
C988 C987 1.397 . S
C988 C989 1.334 . S
C989 H966 0.950 . S
C989 C988 1.334 . S
C989 C990 1.287 . S
C990 C989 1.287 . S
C990 C991 1.524 . S
C990 H1009 0.913 . S
C991 H967 0.950 . S
C991 C990 1.524 . S
C991 C992 1.415 . S
C992 H968 0.950 . S
C992 C987 1.363 . S
C992 C991 1.415 . S
C993 H969 0.951 . S
C993 C994 1.366 . S
C993 C995 1.388 . S
C994 C993 1.366 . S
C994 C998 1.385 . S
C995 H970 0.951 . S
C995 C993 1.388 . S
C995 C996 1.366 . S
C996 C995 1.366 . S
C996 C997 1.414 . S
C996 C999 1.499 . S
C997 H971 0.950 . S
C997 C996 1.414 . S
C997 C998 1.374 . S
C998 H972 0.950 . S
C998 C994 1.385 . S
C998 C997 1.374 . S
C999 C996 1.499 . S
C999 C1000 1.373 . S
C999 C1001 1.389 . S
C1000 H973 0.950 . S
C1000 C986 1.377 . S
C1000 C999 1.373 . S
C1001 C985 1.377 . S
C1001 C999 1.389 . S
C1001 C1002 1.524 . S
C1002 C1001 1.524 . S
C1002 C1003 1.397 . S
C1002 C1007 1.363 . S
C1003 H974 0.950 . S
C1003 C1002 1.397 . S
C1003 C1004 1.334 . S
C1004 H975 0.950 . S
C1004 C1003 1.334 . S
C1004 C1005 1.287 . S
C1005 C1004 1.287 . S
C1005 C1006 1.524 . S
C1005 H1008 0.999 . S
C1006 H976 0.950 . S
C1006 C1005 1.524 . S
C1006 C1007 1.415 . S
C1007 H977 0.950 . S
C1007 C1002 1.363 . S
C1007 C1006 1.415 . S
H1008 C1005 0.999 . S
H1009 C990 0.913 . S
H1010 C1028 0.951 . S
H1011 C1030 0.951 . S
H1012 C1032 0.950 . S
H1013 C1033 0.950 . S
H1014 C1035 0.950 . S
H1015 C1038 0.950 . S
H1016 C1039 0.950 . S
H1017 C1041 0.950 . S
H1018 C1042 0.950 . S
H1019 C1043 0.951 . S
H1020 C1045 0.951 . S
H1021 C1047 0.950 . S
H1022 C1048 0.950 . S
H1023 C1050 0.950 . S
H1024 C1053 0.950 . S
H1025 C1054 0.950 . S
H1026 C1056 0.950 . S
H1027 C1057 0.950 . S
C1028 H1010 0.951 . S
C1028 C1029 1.366 . S
C1028 C1030 1.388 . S
C1029 C1028 1.366 . S
C1029 C1033 1.385 . S
C1030 H1011 0.951 . S
C1030 C1028 1.388 . S
C1030 C1031 1.366 . S
C1031 C1030 1.366 . S
C1031 C1032 1.414 . S
C1031 C1034 1.499 . S
C1032 H1012 0.950 . S
C1032 C1031 1.414 . S
C1032 C1033 1.374 . S
C1033 H1013 0.950 . S
C1033 C1029 1.385 . S
C1033 C1032 1.374 . S
C1034 C1031 1.499 . S
C1034 C1035 1.373 . S
C1034 C1036 1.389 . S
C1035 H1014 0.950 . S
C1035 C1034 1.373 . S
C1035 C1051 1.377 . S
C1036 C1034 1.389 . S
C1036 C1037 1.524 . S
C1036 C1050 1.377 . S
C1037 C1036 1.524 . S
C1037 C1038 1.397 . S
C1037 C1042 1.363 . S
C1038 H1015 0.950 . S
C1038 C1037 1.397 . S
C1038 C1039 1.334 . S
C1039 H1016 0.950 . S
C1039 C1038 1.334 . S
C1039 C1040 1.287 . S
C1040 C1039 1.287 . S
C1040 C1041 1.524 . S
C1040 H1059 0.913 . S
C1041 H1017 0.950 . S
C1041 C1040 1.524 . S
C1041 C1042 1.415 . S
C1042 H1018 0.950 . S
C1042 C1037 1.363 . S
C1042 C1041 1.415 . S
C1043 H1019 0.951 . S
C1043 C1044 1.366 . S
C1043 C1045 1.388 . S
C1044 C1043 1.366 . S
C1044 C1048 1.385 . S
C1045 H1020 0.951 . S
C1045 C1043 1.388 . S
C1045 C1046 1.366 . S
C1046 C1045 1.366 . S
C1046 C1047 1.414 . S
C1046 C1049 1.499 . S
C1047 H1021 0.950 . S
C1047 C1046 1.414 . S
C1047 C1048 1.374 . S
C1048 H1022 0.950 . S
C1048 C1044 1.385 . S
C1048 C1047 1.374 . S
C1049 C1046 1.499 . S
C1049 C1050 1.373 . S
C1049 C1051 1.389 . S
C1050 H1023 0.950 . S
C1050 C1036 1.377 . S
C1050 C1049 1.373 . S
C1051 C1035 1.377 . S
C1051 C1049 1.389 . S
C1051 C1052 1.524 . S
C1052 C1051 1.524 . S
C1052 C1053 1.397 . S
C1052 C1057 1.363 . S
C1053 H1024 0.950 . S
C1053 C1052 1.397 . S
C1053 C1054 1.334 . S
C1054 H1025 0.950 . S
C1054 C1053 1.334 . S
C1054 C1055 1.287 . S
C1055 C1054 1.287 . S
C1055 C1056 1.524 . S
C1055 H1058 0.999 . S
C1056 H1026 0.950 . S
C1056 C1055 1.524 . S
C1056 C1057 1.415 . S
C1057 H1027 0.950 . S
C1057 C1052 1.363 . S
C1057 C1056 1.415 . S
H1058 C1055 0.999 . S
H1059 C1040 0.913 . S
H1060 C1078 0.951 . S
H1061 C1080 0.951 . S
H1062 C1082 0.950 . S
H1063 C1083 0.950 . S
H1064 C1085 0.950 . S
H1065 C1088 0.950 . S
H1066 C1089 0.950 . S
H1067 C1091 0.950 . S
H1068 C1092 0.950 . S
H1069 C1093 0.951 . S
H1070 C1095 0.951 . S
H1071 C1097 0.950 . S
H1072 C1098 0.950 . S
H1073 C1100 0.950 . S
H1074 C1103 0.950 . S
H1075 C1104 0.950 . S
H1076 C1106 0.950 . S
H1077 C1107 0.950 . S
C1078 H1060 0.951 . S
C1078 C1079 1.366 . S
C1078 C1080 1.388 . S
C1079 C1078 1.366 . S
C1079 C1083 1.385 . S
C1080 H1061 0.951 . S
C1080 C1078 1.388 . S
C1080 C1081 1.366 . S
C1081 C1080 1.366 . S
C1081 C1082 1.414 . S
C1081 C1084 1.499 . S
C1082 H1062 0.950 . S
C1082 C1081 1.414 . S
C1082 C1083 1.374 . S
C1083 H1063 0.950 . S
C1083 C1079 1.385 . S
C1083 C1082 1.374 . S
C1084 C1081 1.499 . S
C1084 C1085 1.373 . S
C1084 C1086 1.389 . S
C1085 H1064 0.950 . S
C1085 C1084 1.373 . S
C1085 C1101 1.377 . S
C1086 C1084 1.389 . S
C1086 C1087 1.524 . S
C1086 C1100 1.377 . S
C1087 C1086 1.524 . S
C1087 C1088 1.397 . S
C1087 C1092 1.363 . S
C1088 H1065 0.950 . S
C1088 C1087 1.397 . S
C1088 C1089 1.334 . S
C1089 H1066 0.950 . S
C1089 C1088 1.334 . S
C1089 C1090 1.287 . S
C1090 C1089 1.287 . S
C1090 C1091 1.524 . S
C1090 H1109 0.913 . S
C1091 H1067 0.950 . S
C1091 C1090 1.524 . S
C1091 C1092 1.415 . S
C1092 H1068 0.950 . S
C1092 C1087 1.363 . S
C1092 C1091 1.415 . S
C1093 H1069 0.951 . S
C1093 C1094 1.366 . S
C1093 C1095 1.388 . S
C1094 C1093 1.366 . S
C1094 C1098 1.385 . S
C1095 H1070 0.951 . S
C1095 C1093 1.388 . S
C1095 C1096 1.366 . S
C1096 C1095 1.366 . S
C1096 C1097 1.414 . S
C1096 C1099 1.499 . S
C1097 H1071 0.950 . S
C1097 C1096 1.414 . S
C1097 C1098 1.374 . S
C1098 H1072 0.950 . S
C1098 C1094 1.385 . S
C1098 C1097 1.374 . S
C1099 C1096 1.499 . S
C1099 C1100 1.373 . S
C1099 C1101 1.389 . S
C1100 H1073 0.950 . S
C1100 C1086 1.377 . S
C1100 C1099 1.373 . S
C1101 C1085 1.377 . S
C1101 C1099 1.389 . S
C1101 C1102 1.524 . S
C1102 C1101 1.524 . S
C1102 C1103 1.397 . S
C1102 C1107 1.363 . S
C1103 H1074 0.950 . S
C1103 C1102 1.397 . S
C1103 C1104 1.334 . S
C1104 H1075 0.950 . S
C1104 C1103 1.334 . S
C1104 C1105 1.287 . S
C1105 C1104 1.287 . S
C1105 C1106 1.524 . S
C1105 H1108 0.999 . S
C1106 H1076 0.950 . S
C1106 C1105 1.524 . S
C1106 C1107 1.415 . S
C1107 H1077 0.950 . S
C1107 C1102 1.363 . S
C1107 C1106 1.415 . S
H1108 C1105 0.999 . S
H1109 C1090 0.913 . S
H1110 C1128 0.951 . S
H1111 C1130 0.951 . S
H1112 C1132 0.950 . S
H1113 C1133 0.950 . S
H1114 C1135 0.950 . S
H1115 C1138 0.950 . S
H1116 C1139 0.950 . S
H1117 C1141 0.950 . S
H1118 C1142 0.950 . S
H1119 C1143 0.951 . S
H1120 C1145 0.951 . S
H1121 C1147 0.950 . S
H1122 C1148 0.950 . S
H1123 C1150 0.950 . S
H1124 C1153 0.950 . S
H1125 C1154 0.950 . S
H1126 C1156 0.950 . S
H1127 C1157 0.950 . S
C1128 H1110 0.951 . S
C1128 C1129 1.366 . S
C1128 C1130 1.388 . S
C1129 C1128 1.366 . S
C1129 C1133 1.385 . S
C1130 H1111 0.951 . S
C1130 C1128 1.388 . S
C1130 C1131 1.366 . S
C1131 C1130 1.366 . S
C1131 C1132 1.414 . S
C1131 C1134 1.499 . S
C1132 H1112 0.950 . S
C1132 C1131 1.414 . S
C1132 C1133 1.374 . S
C1133 H1113 0.950 . S
C1133 C1129 1.385 . S
C1133 C1132 1.374 . S
C1134 C1131 1.499 . S
C1134 C1135 1.373 . S
C1134 C1136 1.389 . S
C1135 H1114 0.950 . S
C1135 C1134 1.373 . S
C1135 C1151 1.377 . S
C1136 C1134 1.389 . S
C1136 C1137 1.524 . S
C1136 C1150 1.377 . S
C1137 C1136 1.524 . S
C1137 C1138 1.397 . S
C1137 C1142 1.363 . S
C1138 H1115 0.950 . S
C1138 C1137 1.397 . S
C1138 C1139 1.334 . S
C1139 H1116 0.950 . S
C1139 C1138 1.334 . S
C1139 C1140 1.287 . S
C1140 C1139 1.287 . S
C1140 C1141 1.524 . S
C1140 H1159 0.913 . S
C1141 H1117 0.950 . S
C1141 C1140 1.524 . S
C1141 C1142 1.415 . S
C1142 H1118 0.950 . S
C1142 C1137 1.363 . S
C1142 C1141 1.415 . S
C1143 H1119 0.951 . S
C1143 C1144 1.366 . S
C1143 C1145 1.388 . S
C1144 C1143 1.366 . S
C1144 C1148 1.385 . S
C1145 H1120 0.951 . S
C1145 C1143 1.388 . S
C1145 C1146 1.366 . S
C1146 C1145 1.366 . S
C1146 C1147 1.414 . S
C1146 C1149 1.499 . S
C1147 H1121 0.950 . S
C1147 C1146 1.414 . S
C1147 C1148 1.374 . S
C1148 H1122 0.950 . S
C1148 C1144 1.385 . S
C1148 C1147 1.374 . S
C1149 C1146 1.499 . S
C1149 C1150 1.373 . S
C1149 C1151 1.389 . S
C1150 H1123 0.950 . S
C1150 C1136 1.377 . S
C1150 C1149 1.373 . S
C1151 C1135 1.377 . S
C1151 C1149 1.389 . S
C1151 C1152 1.524 . S
C1152 C1151 1.524 . S
C1152 C1153 1.397 . S
C1152 C1157 1.363 . S
C1153 H1124 0.950 . S
C1153 C1152 1.397 . S
C1153 C1154 1.334 . S
C1154 H1125 0.950 . S
C1154 C1153 1.334 . S
C1154 C1155 1.287 . S
C1155 C1154 1.287 . S
C1155 C1156 1.524 . S
C1155 H1158 0.999 . S
C1156 H1126 0.950 . S
C1156 C1155 1.524 . S
C1156 C1157 1.415 . S
C1157 H1127 0.950 . S
C1157 C1152 1.363 . S
C1157 C1156 1.415 . S
H1158 C1155 0.999 . S
H1159 C1140 0.913 . S
H1160 C1178 0.951 . S
H1161 C1180 0.951 . S
H1162 C1182 0.950 . S
H1163 C1183 0.950 . S
H1164 C1185 0.950 . S
H1165 C1188 0.950 . S
H1166 C1189 0.950 . S
H1167 C1191 0.950 . S
H1168 C1192 0.950 . S
H1169 C1193 0.951 . S
H1170 C1195 0.951 . S
H1171 C1197 0.950 . S
H1172 C1198 0.950 . S
H1173 C1200 0.950 . S
H1174 C1203 0.950 . S
H1175 C1204 0.950 . S
H1176 C1206 0.950 . S
H1177 C1207 0.950 . S
C1178 H1160 0.951 . S
C1178 C1179 1.366 . S
C1178 C1180 1.388 . S
C1179 C1178 1.366 . S
C1179 C1183 1.385 . S
C1180 H1161 0.951 . S
C1180 C1178 1.388 . S
C1180 C1181 1.366 . S
C1181 C1180 1.366 . S
C1181 C1182 1.414 . S
C1181 C1184 1.499 . S
C1182 H1162 0.950 . S
C1182 C1181 1.414 . S
C1182 C1183 1.374 . S
C1183 H1163 0.950 . S
C1183 C1179 1.385 . S
C1183 C1182 1.374 . S
C1184 C1181 1.499 . S
C1184 C1185 1.373 . S
C1184 C1186 1.389 . S
C1185 H1164 0.950 . S
C1185 C1184 1.373 . S
C1185 C1201 1.377 . S
C1186 C1184 1.389 . S
C1186 C1187 1.524 . S
C1186 C1200 1.377 . S
C1187 C1186 1.524 . S
C1187 C1188 1.397 . S
C1187 C1192 1.363 . S
C1188 H1165 0.950 . S
C1188 C1187 1.397 . S
C1188 C1189 1.334 . S
C1189 H1166 0.950 . S
C1189 C1188 1.334 . S
C1189 C1190 1.287 . S
C1190 C1189 1.287 . S
C1190 C1191 1.524 . S
C1190 H1209 0.913 . S
C1191 H1167 0.950 . S
C1191 C1190 1.524 . S
C1191 C1192 1.415 . S
C1192 H1168 0.950 . S
C1192 C1187 1.363 . S
C1192 C1191 1.415 . S
C1193 H1169 0.951 . S
C1193 C1194 1.366 . S
C1193 C1195 1.388 . S
C1194 C1193 1.366 . S
C1194 C1198 1.385 . S
C1195 H1170 0.951 . S
C1195 C1193 1.388 . S
C1195 C1196 1.366 . S
C1196 C1195 1.366 . S
C1196 C1197 1.414 . S
C1196 C1199 1.499 . S
C1197 H1171 0.950 . S
C1197 C1196 1.414 . S
C1197 C1198 1.374 . S
C1198 H1172 0.950 . S
C1198 C1194 1.385 . S
C1198 C1197 1.374 . S
C1199 C1196 1.499 . S
C1199 C1200 1.373 . S
C1199 C1201 1.389 . S
C1200 H1173 0.950 . S
C1200 C1186 1.377 . S
C1200 C1199 1.373 . S
C1201 C1185 1.377 . S
C1201 C1199 1.389 . S
C1201 C1202 1.524 . S
C1202 C1201 1.524 . S
C1202 C1203 1.397 . S
C1202 C1207 1.363 . S
C1203 H1174 0.950 . S
C1203 C1202 1.397 . S
C1203 C1204 1.334 . S
C1204 H1175 0.950 . S
C1204 C1203 1.334 . S
C1204 C1205 1.287 . S
C1205 C1204 1.287 . S
C1205 C1206 1.524 . S
C1205 H1208 0.999 . S
C1206 H1176 0.950 . S
C1206 C1205 1.524 . S
C1206 C1207 1.415 . S
C1207 H1177 0.950 . S
C1207 C1202 1.363 . S
C1207 C1206 1.415 . S
H1208 C1205 0.999 . S
H1209 C1190 0.913 . S
H1210 C1228 0.951 . S
H1211 C1230 0.951 . S
H1212 C1232 0.950 . S
H1213 C1233 0.950 . S
H1214 C1235 0.950 . S
H1215 C1238 0.950 . S
H1216 C1239 0.950 . S
H1217 C1241 0.950 . S
H1218 C1242 0.950 . S
H1219 C1243 0.951 . S
H1220 C1245 0.951 . S
H1221 C1247 0.950 . S
H1222 C1248 0.950 . S
H1223 C1250 0.950 . S
H1224 C1253 0.950 . S
H1225 C1254 0.950 . S
H1226 C1256 0.950 . S
H1227 C1257 0.950 . S
C1228 H1210 0.951 . S
C1228 C1229 1.366 . S
C1228 C1230 1.388 . S
C1229 C1228 1.366 . S
C1229 C1233 1.385 . S
C1230 H1211 0.951 . S
C1230 C1228 1.388 . S
C1230 C1231 1.366 . S
C1231 C1230 1.366 . S
C1231 C1232 1.414 . S
C1231 C1234 1.499 . S
C1232 H1212 0.950 . S
C1232 C1231 1.414 . S
C1232 C1233 1.374 . S
C1233 H1213 0.950 . S
C1233 C1229 1.385 . S
C1233 C1232 1.374 . S
C1234 C1231 1.499 . S
C1234 C1235 1.373 . S
C1234 C1236 1.389 . S
C1235 H1214 0.950 . S
C1235 C1234 1.373 . S
C1235 C1251 1.377 . S
C1236 C1234 1.389 . S
C1236 C1237 1.524 . S
C1236 C1250 1.377 . S
C1237 C1236 1.524 . S
C1237 C1238 1.397 . S
C1237 C1242 1.363 . S
C1238 H1215 0.950 . S
C1238 C1237 1.397 . S
C1238 C1239 1.334 . S
C1239 H1216 0.950 . S
C1239 C1238 1.334 . S
C1239 C1240 1.287 . S
C1240 C1239 1.287 . S
C1240 C1241 1.524 . S
C1240 H1259 0.913 . S
C1241 H1217 0.950 . S
C1241 C1240 1.524 . S
C1241 C1242 1.415 . S
C1242 H1218 0.950 . S
C1242 C1237 1.363 . S
C1242 C1241 1.415 . S
C1243 H1219 0.951 . S
C1243 C1244 1.366 . S
C1243 C1245 1.388 . S
C1244 C1243 1.366 . S
C1244 C1248 1.385 . S
C1245 H1220 0.951 . S
C1245 C1243 1.388 . S
C1245 C1246 1.366 . S
C1246 C1245 1.366 . S
C1246 C1247 1.414 . S
C1246 C1249 1.499 . S
C1247 H1221 0.950 . S
C1247 C1246 1.414 . S
C1247 C1248 1.374 . S
C1248 H1222 0.950 . S
C1248 C1244 1.385 . S
C1248 C1247 1.374 . S
C1249 C1246 1.499 . S
C1249 C1250 1.373 . S
C1249 C1251 1.389 . S
C1250 H1223 0.950 . S
C1250 C1236 1.377 . S
C1250 C1249 1.373 . S
C1251 C1235 1.377 . S
C1251 C1249 1.389 . S
C1251 C1252 1.524 . S
C1252 C1251 1.524 . S
C1252 C1253 1.397 . S
C1252 C1257 1.363 . S
C1253 H1224 0.950 . S
C1253 C1252 1.397 . S
C1253 C1254 1.334 . S
C1254 H1225 0.950 . S
C1254 C1253 1.334 . S
C1254 C1255 1.287 . S
C1255 C1254 1.287 . S
C1255 C1256 1.524 . S
C1255 H1258 0.999 . S
C1256 H1226 0.950 . S
C1256 C1255 1.524 . S
C1256 C1257 1.415 . S
C1257 H1227 0.950 . S
C1257 C1252 1.363 . S
C1257 C1256 1.415 . S
H1258 C1255 0.999 . S
H1259 C1240 0.913 . S
H1260 C1278 0.951 . S
H1261 C1280 0.951 . S
H1262 C1282 0.950 . S
H1263 C1283 0.950 . S
H1264 C1285 0.950 . S
H1265 C1288 0.950 . S
H1266 C1289 0.950 . S
H1267 C1291 0.950 . S
H1268 C1292 0.950 . S
H1269 C1293 0.951 . S
H1270 C1295 0.951 . S
H1271 C1297 0.950 . S
H1272 C1298 0.950 . S
H1273 C1300 0.950 . S
H1274 C1303 0.950 . S
H1275 C1304 0.950 . S
H1276 C1306 0.950 . S
H1277 C1307 0.950 . S
C1278 H1260 0.951 . S
C1278 C1279 1.366 . S
C1278 C1280 1.388 . S
C1279 C1278 1.366 . S
C1279 C1283 1.385 . S
C1280 H1261 0.951 . S
C1280 C1278 1.388 . S
C1280 C1281 1.366 . S
C1281 C1280 1.366 . S
C1281 C1282 1.414 . S
C1281 C1284 1.499 . S
C1282 H1262 0.950 . S
C1282 C1281 1.414 . S
C1282 C1283 1.374 . S
C1283 H1263 0.950 . S
C1283 C1279 1.385 . S
C1283 C1282 1.374 . S
C1284 C1281 1.499 . S
C1284 C1285 1.373 . S
C1284 C1286 1.389 . S
C1285 H1264 0.950 . S
C1285 C1284 1.373 . S
C1285 C1301 1.377 . S
C1286 C1284 1.389 . S
C1286 C1287 1.524 . S
C1286 C1300 1.377 . S
C1287 C1286 1.524 . S
C1287 C1288 1.397 . S
C1287 C1292 1.363 . S
C1288 H1265 0.950 . S
C1288 C1287 1.397 . S
C1288 C1289 1.334 . S
C1289 H1266 0.950 . S
C1289 C1288 1.334 . S
C1289 C1290 1.287 . S
C1290 C1289 1.287 . S
C1290 C1291 1.524 . S
C1290 H1309 0.913 . S
C1291 H1267 0.950 . S
C1291 C1290 1.524 . S
C1291 C1292 1.415 . S
C1292 H1268 0.950 . S
C1292 C1287 1.363 . S
C1292 C1291 1.415 . S
C1293 H1269 0.951 . S
C1293 C1294 1.366 . S
C1293 C1295 1.388 . S
C1294 C1293 1.366 . S
C1294 C1298 1.385 . S
C1295 H1270 0.951 . S
C1295 C1293 1.388 . S
C1295 C1296 1.366 . S
C1296 C1295 1.366 . S
C1296 C1297 1.414 . S
C1296 C1299 1.499 . S
C1297 H1271 0.950 . S
C1297 C1296 1.414 . S
C1297 C1298 1.374 . S
C1298 H1272 0.950 . S
C1298 C1294 1.385 . S
C1298 C1297 1.374 . S
C1299 C1296 1.499 . S
C1299 C1300 1.373 . S
C1299 C1301 1.389 . S
C1300 H1273 0.950 . S
C1300 C1286 1.377 . S
C1300 C1299 1.373 . S
C1301 C1285 1.377 . S
C1301 C1299 1.389 . S
C1301 C1302 1.524 . S
C1302 C1301 1.524 . S
C1302 C1303 1.397 . S
C1302 C1307 1.363 . S
C1303 H1274 0.950 . S
C1303 C1302 1.397 . S
C1303 C1304 1.334 . S
C1304 H1275 0.950 . S
C1304 C1303 1.334 . S
C1304 C1305 1.287 . S
C1305 C1304 1.287 . S
C1305 C1306 1.524 . S
C1305 H1308 0.999 . S
C1306 H1276 0.950 . S
C1306 C1305 1.524 . S
C1306 C1307 1.415 . S
C1307 H1277 0.950 . S
C1307 C1302 1.363 . S
C1307 C1306 1.415 . S
H1308 C1305 0.999 . S
H1309 C1290 0.913 . S
H1310 C1328 0.951 . S
H1311 C1330 0.951 . S
H1312 C1332 0.950 . S
H1313 C1333 0.950 . S
H1314 C1335 0.950 . S
H1315 C1338 0.950 . S
H1316 C1339 0.950 . S
H1317 C1341 0.950 . S
H1318 C1342 0.950 . S
H1319 C1343 0.951 . S
H1320 C1345 0.951 . S
H1321 C1347 0.950 . S
H1322 C1348 0.950 . S
H1323 C1350 0.950 . S
H1324 C1353 0.950 . S
H1325 C1354 0.950 . S
H1326 C1356 0.950 . S
H1327 C1357 0.950 . S
C1328 H1310 0.951 . S
C1328 C1329 1.366 . S
C1328 C1330 1.388 . S
C1329 C1328 1.366 . S
C1329 C1333 1.385 . S
C1330 H1311 0.951 . S
C1330 C1328 1.388 . S
C1330 C1331 1.366 . S
C1331 C1330 1.366 . S
C1331 C1332 1.414 . S
C1331 C1334 1.499 . S
C1332 H1312 0.950 . S
C1332 C1331 1.414 . S
C1332 C1333 1.374 . S
C1333 H1313 0.950 . S
C1333 C1329 1.385 . S
C1333 C1332 1.374 . S
C1334 C1331 1.499 . S
C1334 C1335 1.373 . S
C1334 C1336 1.389 . S
C1335 H1314 0.950 . S
C1335 C1334 1.373 . S
C1335 C1351 1.377 . S
C1336 C1334 1.389 . S
C1336 C1337 1.524 . S
C1336 C1350 1.377 . S
C1337 C1336 1.524 . S
C1337 C1338 1.397 . S
C1337 C1342 1.363 . S
C1338 H1315 0.950 . S
C1338 C1337 1.397 . S
C1338 C1339 1.334 . S
C1339 H1316 0.950 . S
C1339 C1338 1.334 . S
C1339 C1340 1.287 . S
C1340 C1339 1.287 . S
C1340 C1341 1.524 . S
C1340 H1359 0.913 . S
C1341 H1317 0.950 . S
C1341 C1340 1.524 . S
C1341 C1342 1.415 . S
C1342 H1318 0.950 . S
C1342 C1337 1.363 . S
C1342 C1341 1.415 . S
C1343 H1319 0.951 . S
C1343 C1344 1.366 . S
C1343 C1345 1.388 . S
C1344 C1343 1.366 . S
C1344 C1348 1.385 . S
C1345 H1320 0.951 . S
C1345 C1343 1.388 . S
C1345 C1346 1.366 . S
C1346 C1345 1.366 . S
C1346 C1347 1.414 . S
C1346 C1349 1.499 . S
C1347 H1321 0.950 . S
C1347 C1346 1.414 . S
C1347 C1348 1.374 . S
C1348 H1322 0.950 . S
C1348 C1344 1.385 . S
C1348 C1347 1.374 . S
C1349 C1346 1.499 . S
C1349 C1350 1.373 . S
C1349 C1351 1.389 . S
C1350 H1323 0.950 . S
C1350 C1336 1.377 . S
C1350 C1349 1.373 . S
C1351 C1335 1.377 . S
C1351 C1349 1.389 . S
C1351 C1352 1.524 . S
C1352 C1351 1.524 . S
C1352 C1353 1.397 . S
C1352 C1357 1.363 . S
C1353 H1324 0.950 . S
C1353 C1352 1.397 . S
C1353 C1354 1.334 . S
C1354 H1325 0.950 . S
C1354 C1353 1.334 . S
C1354 C1355 1.287 . S
C1355 C1354 1.287 . S
C1355 C1356 1.524 . S
C1355 H1358 0.999 . S
C1356 H1326 0.950 . S
C1356 C1355 1.524 . S
C1356 C1357 1.415 . S
C1357 H1327 0.950 . S
C1357 C1352 1.363 . S
C1357 C1356 1.415 . S
H1358 C1355 0.999 . S
H1359 C1340 0.913 . S
C179 C7 1.514 . S
C194 C98 1.479 . S
C244 C76 1.479 . S
C229 C16 1.501 . S
C294 C102 1.477 . S
C279 C25 1.506 . S
C344 C80 1.482 . S
C329 C34 1.501 . S
C394 C142 1.480 . S
C379 C43 1.514 . S
C444 C120 1.480 . S
C429 C52 1.501 . S
C479 C61 1.506 . S
C494 C146 1.477 . S
C544 C124 1.481 . S
C529 C70 1.500 . S
C579 C5 1.466 . S
C594 C147 1.447 . S
C644 C125 1.448 . S
C629 C14 1.466 . S
C679 C22 1.463 . S
C694 C144 1.444 . S
C729 C32 1.465 . S
C744 C122 1.449 . S
C794 C103 1.447 . S
C779 C41 1.466 . S
C829 C50 1.467 . S
C844 C81 1.447 . S
C894 C100 1.445 . S
C879 C58 1.462 . S
C944 C78 1.450 . S
C929 C68 1.465 . S
C994 C121 1.416 . S
C979 C4 1.436 . S
C1044 C143 1.416 . S
C1029 C13 1.438 . S
C1079 C23 1.437 . S
C1094 C123 1.416 . S
C1144 C145 1.417 . S
C1129 C31 1.435 . S
C1194 C77 1.416 . S
C1179 C40 1.437 . S
C1229 C49 1.438 . S
C1244 C99 1.416 . S
C1279 C59 1.438 . S
C1294 C79 1.416 . S
C1329 C67 1.435 . S
C1344 C101 1.417 . S
