# Generated by pormake.
# Topology eea, (3,6)-cn, num edge types: 1
# Building blocks:
#     Node 0, Type 0, BuildingBlock: BELTOD_clean_linker_0, # of connection points: 3
#     Node 1, Type 0, BuildingBlock: BELTOD_clean_linker_0, # of connection points: 3
#     Node 2, Type 0, BuildingBlock: BELTOD_clean_linker_0, # of connection points: 3
#     Node 3, Type 0, BuildingBlock: BELTOD_clean_linker_0, # of connection points: 3
#     Node 4, Type 0, BuildingBlock: BELTOD_clean_linker_0, # of connection points: 3
#     Node 5, Type 0, BuildingBlock: BELTOD_clean_linker_0, # of connection points: 3
#     Node 6, Type 0, BuildingBlock: BELTOD_clean_linker_0, # of connection points: 3
#     Node 7, Type 0, BuildingBlock: BELTOD_clean_linker_0, # of connection points: 3
#     Node 8, Type 0, BuildingBlock: BELTOD_clean_linker_0, # of connection points: 3
#     Node 9, Type 0, BuildingBlock: BELTOD_clean_linker_0, # of connection points: 3
#     Node 10, Type 0, BuildingBlock: BELTOD_clean_linker_0, # of connection points: 3
#     Node 11, Type 0, BuildingBlock: BELTOD_clean_linker_0, # of connection points: 3
#     Node 12, Type 0, BuildingBlock: BELTOD_clean_linker_0, # of connection points: 3
#     Node 13, Type 0, BuildingBlock: BELTOD_clean_linker_0, # of connection points: 3
#     Node 14, Type 0, BuildingBlock: BELTOD_clean_linker_0, # of connection points: 3
#     Node 15, Type 0, BuildingBlock: BELTOD_clean_linker_0, # of connection points: 3
#     Node 16, Type 0, BuildingBlock: BELTOD_clean_linker_0, # of connection points: 3
#     Node 17, Type 0, BuildingBlock: BELTOD_clean_linker_0, # of connection points: 3
#     Node 18, Type 1, BuildingBlock: CUWYAW_clean_sbu_0, # of connection points: 6
#     Node 19, Type 1, BuildingBlock: CUWYAW_clean_sbu_0, # of connection points: 6
#     Node 20, Type 1, BuildingBlock: CUWYAW_clean_sbu_0, # of connection points: 6
#     Node 21, Type 1, BuildingBlock: CUWYAW_clean_sbu_0, # of connection points: 6
#     Node 22, Type 1, BuildingBlock: CUWYAW_clean_sbu_0, # of connection points: 6
#     Node 23, Type 1, BuildingBlock: CUWYAW_clean_sbu_0, # of connection points: 6
#     Node 24, Type 1, BuildingBlock: CUWYAW_clean_sbu_0, # of connection points: 6
#     Node 25, Type 1, BuildingBlock: CUWYAW_clean_sbu_0, # of connection points: 6
#     Node 26, Type 1, BuildingBlock: CUWYAW_clean_sbu_0, # of connection points: 6
#     Edge 27, Type (0, 1), None
#     Edge 28, Type (0, 1), None
#     Edge 29, Type (0, 1), None
#     Edge 30, Type (0, 1), None
#     Edge 31, Type (0, 1), None
#     Edge 32, Type (0, 1), None
#     Edge 33, Type (0, 1), None
#     Edge 34, Type (0, 1), None
#     Edge 35, Type (0, 1), None
#     Edge 36, Type (0, 1), None
#     Edge 37, Type (0, 1), None
#     Edge 38, Type (0, 1), None
#     Edge 39, Type (0, 1), None
#     Edge 40, Type (0, 1), None
#     Edge 41, Type (0, 1), None
#     Edge 42, Type (0, 1), None
#     Edge 43, Type (0, 1), None
#     Edge 44, Type (0, 1), None
#     Edge 45, Type (0, 1), None
#     Edge 46, Type (0, 1), None
#     Edge 47, Type (0, 1), None
#     Edge 48, Type (0, 1), None
#     Edge 49, Type (0, 1), None
#     Edge 50, Type (0, 1), None
#     Edge 51, Type (0, 1), None
#     Edge 52, Type (0, 1), None
#     Edge 53, Type (0, 1), None
#     Edge 54, Type (0, 1), None
#     Edge 55, Type (0, 1), None
#     Edge 56, Type (0, 1), None
#     Edge 57, Type (0, 1), None
#     Edge 58, Type (0, 1), None
#     Edge 59, Type (0, 1), None
#     Edge 60, Type (0, 1), None
#     Edge 61, Type (0, 1), None
#     Edge 62, Type (0, 1), None
#     Edge 63, Type (0, 1), None
#     Edge 64, Type (0, 1), None
#     Edge 65, Type (0, 1), None
#     Edge 66, Type (0, 1), None
#     Edge 67, Type (0, 1), None
#     Edge 68, Type (0, 1), None
#     Edge 69, Type (0, 1), None
#     Edge 70, Type (0, 1), None
#     Edge 71, Type (0, 1), None
#     Edge 72, Type (0, 1), None
#     Edge 73, Type (0, 1), None
#     Edge 74, Type (0, 1), None
#     Edge 75, Type (0, 1), None
#     Edge 76, Type (0, 1), None
#     Edge 77, Type (0, 1), None
#     Edge 78, Type (0, 1), None
#     Edge 79, Type (0, 1), None
#     Edge 80, Type (0, 1), None
# Relax obj value: 0.031
# Max RMSD: 0.155
# Mean RMSD: 0.127
data_MOF--net-eea--node1-CUWYAW_clean_sbu_0--node2-BELTOD_clean_linker_0--edge1-none
_symmetry_space_group_name_H-M    P1
_symmetry_Int_Tables_number       1
_symmetry_cell_setting            triclinic
loop_
_symmetry_equiv_pos_as_xyz
'x, y, z'
_cell_length_a     29.333561
_cell_length_b     28.654333
_cell_length_c     50.630471
_cell_angle_alpha  93.723722
_cell_angle_beta   93.129258
_cell_angle_gamma 119.44785
loop_
_atom_site_label
_atom_site_type_symbol
_atom_site_fract_x
_atom_site_fract_y
_atom_site_fract_z
_atom_type_partial_charge
P0 P 0.27276 0.13928 0.39831 0.0
H1 H 0.28544 0.10481 0.34498 0.0
H2 H 0.24672 0.01619 0.31913 0.0
H3 H 0.15426 0.94271 0.3835 0.0
H4 H 0.19226 0.03123 0.40898 0.0
H5 H 0.30693 0.25359 0.40012 0.0
H6 H 0.26877 0.30283 0.37938 0.0
H7 H 0.12657 0.15274 0.35345 0.0
H8 H 0.16512 0.10347 0.37423 0.0
H9 H 0.30111 0.07244 0.42781 0.0
H10 H 0.25704 0.19305 0.44618 0.0
O11 O 0.33454 0.17425 0.39057 0.0
H12 H 0.31566 0.06711 0.47502 0.0
H13 H 0.2735 0.18944 0.49387 0.0
C14 C 0.24285 0.07427 0.37918 0.0
C15 C 0.25686 0.06957 0.3535 0.0
C16 C 0.23461 0.01907 0.33872 0.0
C17 C 0.19808 0.97271 0.3495 0.0
C18 C 0.18292 0.97781 0.37489 0.0
C19 C 0.20473 0.02831 0.38951 0.0
C20 C 0.2393 0.17489 0.38838 0.0
C21 C 0.26718 0.23129 0.39042 0.0
C22 C 0.24527 0.25939 0.37854 0.0
C23 C 0.19491 0.23153 0.3645 0.0
C24 C 0.16566 0.17517 0.36392 0.0
C25 C 0.18768 0.14703 0.37585 0.0
C26 C 0.27696 0.13232 0.43342 0.0
C27 C 0.2939 0.09737 0.44206 0.0
C28 C 0.30289 0.09487 0.46914 0.0
C29 C 0.2963 0.12824 0.48834 0.0
C30 C 0.27848 0.16279 0.47964 0.0
C31 C 0.26915 0.165 0.45237 0.0
P32 P 0.91335 0.10127 0.41438 0.0
H33 H 0.85882 0.98711 0.4177 0.0
H34 H 0.78815 0.91085 0.38989 0.0
H35 H 0.77253 0.01888 0.33922 0.0
H36 H 0.84233 0.09623 0.3684 0.0
H37 H 0.98017 0.21509 0.43425 0.0
H38 H 0.04832 0.2901 0.41368 0.0
H39 H 0.99636 0.19271 0.33784 0.0
H40 H 0.93092 0.11756 0.35864 0.0
H41 H 0.91542 0.05796 0.46442 0.0
H42 H 0.86043 0.16016 0.43355 0.0
O43 O 0.95632 0.07984 0.41983 0.0
H44 H 0.88093 0.06226 0.50651 0.0
H45 H 0.82587 0.16525 0.47625 0.0
C46 C 0.85739 0.04714 0.39445 0.0
C47 C 0.84018 0.99462 0.40071 0.0
C48 C 0.79966 0.95101 0.38475 0.0
C49 C 0.77581 0.959 0.36198 0.0
C50 C 0.7912 0.01176 0.35633 0.0
C51 C 0.83118 0.05579 0.37289 0.0
C52 C 0.94874 0.16114 0.39787 0.0
C53 C 0.98194 0.21064 0.41299 0.0
C54 C 0.02109 0.25342 0.40122 0.0
C55 C 0.02737 0.24742 0.37407 0.0
C56 C 0.99181 0.19907 0.35864 0.0
C57 C 0.95374 0.15599 0.37055 0.0
C58 C 0.89197 0.11015 0.4461 0.0
C59 C 0.89687 0.08238 0.46688 0.0
C60 C 0.87701 0.0848 0.49103 0.0
C61 C 0.85124 0.11468 0.49491 0.0
C62 C 0.84556 0.1419 0.47388 0.0
C63 C 0.8657 0.13951 0.4496 0.0
P64 P 0.85018 0.67626 0.39973 0.0
H65 H 0.78361 0.65703 0.35047 0.0
H66 H 0.73161 0.69714 0.33478 0.0
H67 H 0.78154 0.80236 0.40826 0.0
H68 H 0.83394 0.76275 0.42355 0.0
H69 H 0.9547 0.70118 0.42394 0.0
H70 H 0.04125 0.74105 0.40713 0.0
H71 H 0.97496 0.7634 0.3339 0.0
H72 H 0.8892 0.72473 0.35106 0.0
H73 H 0.78053 0.58979 0.42958 0.0
H74 H 0.90988 0.75201 0.44783 0.0
O75 O 0.82236 0.61374 0.38447 0.0
H76 H 0.77041 0.5819 0.47668 0.0
H77 H 0.90036 0.7442 0.49556 0.0
C78 C 0.81196 0.70618 0.3884 0.0
C79 C 0.78325 0.68866 0.36322 0.0
C80 C 0.75369 0.71177 0.35421 0.0
C81 C 0.75213 0.75269 0.37032 0.0
C82 C 0.78143 0.77052 0.39544 0.0
C83 C 0.81145 0.74782 0.40427 0.0
C84 C 0.91565 0.71168 0.3892 0.0
C85 C 0.95903 0.71588 0.40456 0.0
C86 C 0.00848 0.73821 0.39476 0.0
C87 C 0.01515 0.7554 0.36909 0.0
C88 C 0.97138 0.75052 0.3537 0.0
C89 C 0.92225 0.72889 0.36366 0.0
C90 C 0.84687 0.67097 0.43512 0.0
C91 C 0.8075 0.62351 0.44377 0.0
C92 C 0.80179 0.619 0.47085 0.0
C93 C 0.83503 0.66212 0.49006 0.0
C94 C 0.87411 0.71017 0.48134 0.0
C95 C 0.87991 0.71454 0.45408 0.0
P96 P 0.15657 0.32202 0.61818 0.0
H97 H 0.11309 0.34947 0.66315 0.0
H98 H 0.02522 0.30806 0.67826 0.0
H99 H 0.96721 0.18826 0.61 0.0
H100 H 0.05563 0.22984 0.59521 0.0
H101 H 0.21044 0.32715 0.66937 0.0
H102 H 0.25329 0.27801 0.68521 0.0
H103 H 0.20521 0.18011 0.60947 0.0
H104 H 0.16106 0.22839 0.59411 0.0
H105 H 0.08836 0.32456 0.57365 0.0
H106 H 0.2396 0.33433 0.58564 0.0
O107 O 0.19214 0.38479 0.63308 0.0
H108 H 0.10053 0.33689 0.52657 0.0
H109 H 0.25215 0.34696 0.53897 0.0
C110 C 0.09053 0.2936 0.62765 0.0
C111 C 0.0813 0.31475 0.65123 0.0
C112 C 0.03105 0.29083 0.65995 0.0
C113 C 0.98905 0.24508 0.64528 0.0
C114 C 0.99852 0.22388 0.62164 0.0
C115 C 0.04899 0.24763 0.61308 0.0
C116 C 0.18417 0.2826 0.63029 0.0
C117 C 0.20892 0.29492 0.65625 0.0
C118 C 0.2332 0.26664 0.6653 0.0
C119 C 0.23333 0.22573 0.64843 0.0
C120 C 0.20651 0.21199 0.62278 0.0
C121 C 0.18138 0.23965 0.61396 0.0
C122 C 0.16217 0.32642 0.58297 0.0
C123 C 0.12367 0.32823 0.56609 0.0
C124 C 0.1309 0.3358 0.53922 0.0
C125 C 0.17704 0.3422 0.5289 0.0
C126 C 0.21558 0.34076 0.54603 0.0
C127 C 0.20842 0.33354 0.57279 0.0
P128 P 0.87345 0.92943 0.59509 0.0
H129 H 0.95395 0.02258 0.62972 0.0
H130 H 0.94979 0.08931 0.66065 0.0
H131 H 0.7809 0.00737 0.64309 0.0
H132 H 0.78524 0.94033 0.61227 0.0
H133 H 0.94784 0.90288 0.6195 0.0
H134 H 0.94 0.84007 0.65124 0.0
H135 H 0.77123 0.77097 0.64358 0.0
H136 H 0.77944 0.83589 0.61175 0.0
H137 H 0.84877 0.99847 0.56564 0.0
H138 H 0.80073 0.82935 0.56078 0.0
O139 O 0.93323 0.95782 0.58443 0.0
H140 H 0.79194 0.98257 0.52524 0.0
H141 H 0.74394 0.81315 0.51988 0.0
C142 C 0.87006 0.97742 0.61831 0.0
C143 C 0.91607 0.01905 0.63248 0.0
C144 C 0.91361 0.05698 0.65018 0.0
C145 C 0.86506 0.05367 0.65393 0.0
C146 C 0.81885 0.01118 0.64018 0.0
C147 C 0.82132 0.97295 0.62266 0.0
C148 C 0.8642 0.87355 0.6129 0.0
C149 C 0.9089 0.87347 0.62397 0.0
C150 C 0.90439 0.83768 0.6423 0.0
C151 C 0.85501 0.80095 0.64992 0.0
C152 C 0.80965 0.79873 0.63781 0.0
C153 C 0.81434 0.83558 0.61964 0.0
C154 C 0.82775 0.9148 0.56656 0.0
C155 C 0.82534 0.95769 0.55604 0.0
C156 C 0.79327 0.9487 0.53281 0.0
C157 C 0.76347 0.89662 0.51944 0.0
C158 C 0.76589 0.85356 0.53004 0.0
C159 C 0.79824 0.8627 0.55337 0.0
P160 P 0.15807 0.84154 0.61635 0.0
H161 H 0.22651 0.89024 0.6655 0.0
H162 H 0.26181 0.9782 0.69077 0.0
H163 H 0.1996 0.03128 0.62747 0.0
H164 H 0.1628 0.94255 0.60248 0.0
H165 H 0.04989 0.77317 0.58976 0.0
H166 H 0.96418 0.73041 0.60721 0.0
H167 H 0.04032 0.79423 0.68705 0.0
H168 H 0.12536 0.83714 0.66947 0.0
H169 H 0.21683 0.81428 0.58006 0.0
H170 H 0.10215 0.86703 0.57422 0.0
O171 O 0.18863 0.80942 0.62739 0.0
H172 H 0.22414 0.81815 0.53248 0.0
H173 H 0.11117 0.87303 0.52639 0.0
C174 C 0.19249 0.90974 0.63191 0.0
C175 C 0.22104 0.92089 0.65679 0.0
C176 C 0.24072 0.97098 0.67135 0.0
C177 C 0.23275 0.01101 0.66108 0.0
C178 C 0.20602 0.0008 0.63574 0.0
C179 C 0.18533 0.95012 0.62138 0.0
C180 C 0.09402 0.80977 0.62821 0.0
C181 C 0.04813 0.77874 0.61093 0.0
C182 C 0.99908 0.75401 0.62101 0.0
C183 C 0.9954 0.75919 0.64856 0.0
C184 C 0.04164 0.78959 0.66575 0.0
C185 C 0.09041 0.81446 0.65565 0.0
C186 C 0.15879 0.84016 0.58075 0.0
C187 C 0.19285 0.8263 0.56857 0.0
C188 C 0.19713 0.8286 0.54136 0.0
C189 C 0.16818 0.84585 0.5259 0.0
C190 C 0.134 0.85981 0.53801 0.0
C191 C 0.12892 0.85641 0.56526 0.0
P192 P 0.93943 0.47261 0.73165 0.0
H193 H 0.9521 0.43815 0.67831 0.0
H194 H 0.91339 0.34952 0.65246 0.0
H195 H 0.82092 0.27604 0.71683 0.0
H196 H 0.85891 0.36457 0.74231 0.0
H197 H 0.97359 0.58692 0.73346 0.0
H198 H 0.93544 0.63616 0.71272 0.0
H199 H 0.79324 0.48607 0.68679 0.0
H200 H 0.83178 0.43681 0.70757 0.0
H201 H 0.96776 0.40576 0.76115 0.0
H202 H 0.92371 0.52639 0.77952 0.0
O203 O 1.00121 0.50758 0.72391 0.0
H204 H 0.98231 0.40043 0.80835 0.0
H205 H 0.94018 0.52278 0.8272 0.0
C206 C 0.90952 0.4076 0.71252 0.0
C207 C 0.92353 0.4029 0.68684 0.0
C208 C 0.90127 0.35241 0.67205 0.0
C209 C 0.86474 0.30604 0.68283 0.0
C210 C 0.84958 0.31114 0.70823 0.0
C211 C 0.87139 0.36164 0.72284 0.0
C212 C 0.90596 0.50822 0.72172 0.0
C213 C 0.93385 0.56463 0.72376 0.0
C214 C 0.91194 0.59273 0.71187 0.0
C215 C 0.86158 0.56486 0.69783 0.0
C216 C 0.83233 0.50851 0.69725 0.0
C217 C 0.85434 0.48036 0.70919 0.0
C218 C 0.94362 0.46565 0.76675 0.0
C219 C 0.96056 0.43069 0.77539 0.0
C220 C 0.96955 0.42819 0.80247 0.0
C221 C 0.96297 0.46157 0.82167 0.0
C222 C 0.94516 0.49613 0.81298 0.0
C223 C 0.93582 0.49833 0.78571 0.0
P224 P 0.58002 0.43462 0.74772 0.0
H225 H 0.52549 0.32045 0.75104 0.0
H226 H 0.45483 0.24419 0.72322 0.0
H227 H 0.4392 0.35221 0.67255 0.0
H228 H 0.509 0.42957 0.70174 0.0
H229 H 0.64684 0.54843 0.76759 0.0
H230 H 0.71499 0.62344 0.74701 0.0
H231 H 0.66303 0.52605 0.67118 0.0
H232 H 0.59759 0.4509 0.69197 0.0
H233 H 0.58207 0.39129 0.79775 0.0
H234 H 0.52712 0.49352 0.76689 0.0
O235 O 0.62298 0.41319 0.75317 0.0
H236 H 0.54759 0.3956 0.83984 0.0
H237 H 0.49257 0.49863 0.80959 0.0
C238 C 0.52406 0.38048 0.72779 0.0
C239 C 0.50685 0.32796 0.73405 0.0
C240 C 0.46634 0.28435 0.71808 0.0
C241 C 0.44248 0.29234 0.69531 0.0
C242 C 0.45787 0.3451 0.68967 0.0
C243 C 0.49785 0.38913 0.70622 0.0
C244 C 0.61541 0.49449 0.7312 0.0
C245 C 0.64861 0.54398 0.74632 0.0
C246 C 0.68776 0.58676 0.73455 0.0
C247 C 0.69404 0.58076 0.70741 0.0
C248 C 0.65848 0.53241 0.69197 0.0
C249 C 0.62041 0.48933 0.70389 0.0
C250 C 0.55863 0.4435 0.77944 0.0
C251 C 0.56352 0.41572 0.80022 0.0
C252 C 0.54367 0.41814 0.82436 0.0
C253 C 0.51791 0.44804 0.82825 0.0
C254 C 0.51225 0.47527 0.80721 0.0
C255 C 0.53238 0.47287 0.78293 0.0
P256 P 0.51685 0.0096 0.73306 0.0
H257 H 0.45028 0.99037 0.6838 0.0
H258 H 0.39828 0.03048 0.66811 0.0
H259 H 0.44822 0.1357 0.74159 0.0
H260 H 0.50061 0.09609 0.75689 0.0
H261 H 0.62137 0.03452 0.75728 0.0
H262 H 0.70792 0.07439 0.74046 0.0
H263 H 0.64163 0.09673 0.66724 0.0
H264 H 0.55586 0.05806 0.68439 0.0
H265 H 0.4472 0.92313 0.76291 0.0
H266 H 0.57655 0.08535 0.78116 0.0
O267 O 0.48902 0.94708 0.71781 0.0
H268 H 0.43708 0.91524 0.81002 0.0
H269 H 0.56703 0.07754 0.8289 0.0
C270 C 0.47863 0.03952 0.72173 0.0
C271 C 0.44992 0.02199 0.69656 0.0
C272 C 0.42037 0.04511 0.68754 0.0
C273 C 0.4188 0.08603 0.70366 0.0
C274 C 0.4481 0.10386 0.72877 0.0
C275 C 0.47813 0.08116 0.7376 0.0
C276 C 0.58232 0.04502 0.72254 0.0
C277 C 0.6257 0.04921 0.73789 0.0
C278 C 0.67515 0.07154 0.72809 0.0
C279 C 0.68182 0.08873 0.70242 0.0
C280 C 0.63805 0.08385 0.68703 0.0
C281 C 0.58892 0.06222 0.69699 0.0
C282 C 0.51354 0.0043 0.76846 0.0
C283 C 0.47417 0.95685 0.77711 0.0
C284 C 0.46846 0.95234 0.80418 0.0
C285 C 0.5017 0.99547 0.8234 0.0
C286 C 0.54078 0.04351 0.81467 0.0
C287 C 0.54659 0.04788 0.78742 0.0
P288 P 0.82327 0.65538 0.95152 0.0
H289 H 0.77979 0.68284 0.99649 0.0
H290 H 0.69193 0.64144 0.0116 0.0
H291 H 0.63391 0.52163 0.94334 0.0
H292 H 0.72233 0.5632 0.92855 0.0
H293 H 0.87715 0.66051 1.00271 0.0
H294 H 0.91999 0.61136 0.01854 0.0
H295 H 0.8719 0.51346 0.9428 0.0
H296 H 0.82775 0.56175 0.92745 0.0
H297 H 0.75507 0.65793 0.90699 0.0
H298 H 0.9063 0.66768 0.91897 0.0
O299 O 0.85885 0.71815 0.96642 0.0
H300 H 0.76722 0.67025 0.85991 0.0
H301 H 0.91884 0.68032 0.8723 0.0
C302 C 0.75723 0.62696 0.96099 0.0
C303 C 0.74801 0.64812 0.98456 0.0
C304 C 0.69775 0.6242 0.99329 0.0
C305 C 0.65576 0.57845 0.97862 0.0
C306 C 0.66522 0.55725 0.95498 0.0
C307 C 0.71569 0.581 0.94641 0.0
C308 C 0.85087 0.61596 0.96363 0.0
C309 C 0.87561 0.62828 0.98958 0.0
C310 C 0.8999 0.59999 0.99863 0.0
C311 C 0.90002 0.55908 0.98176 0.0
C312 C 0.8732 0.54534 0.95611 0.0
C313 C 0.84808 0.57301 0.94729 0.0
C314 C 0.82887 0.65978 0.91631 0.0
C315 C 0.79036 0.6616 0.89943 0.0
C316 C 0.7976 0.66916 0.87256 0.0
C317 C 0.84374 0.67556 0.86223 0.0
C318 C 0.88227 0.67411 0.87936 0.0
C319 C 0.87512 0.66689 0.90613 0.0
P320 P 0.5401 0.26278 0.92843 0.0
H321 H 0.62061 0.35592 0.96306 0.0
H322 H 0.61647 0.42266 0.994 0.0
H323 H 0.44758 0.34075 0.97643 0.0
H324 H 0.45191 0.2737 0.94561 0.0
H325 H 0.61449 0.23623 0.95284 0.0
H326 H 0.60666 0.17341 0.98458 0.0
H327 H 0.43788 0.10432 0.97692 0.0
H328 H 0.44609 0.16924 0.9451 0.0
H329 H 0.51542 0.33182 0.89898 0.0
H330 H 0.46739 0.16269 0.89412 0.0
O331 O 0.59988 0.29116 0.91777 0.0
H332 H 0.45859 0.31592 0.85858 0.0
H333 H 0.4106 0.14649 0.85322 0.0
C334 C 0.53673 0.31077 0.95166 0.0
C335 C 0.58274 0.3524 0.96582 0.0
C336 C 0.58029 0.39034 0.98352 0.0
C337 C 0.53174 0.38704 0.98727 0.0
C338 C 0.48553 0.34455 0.97353 0.0
C339 C 0.48799 0.30631 0.956 0.0
C340 C 0.53085 0.2069 0.94624 0.0
C341 C 0.57556 0.20682 0.95731 0.0
C342 C 0.57105 0.17103 0.97564 0.0
C343 C 0.52166 0.1343 0.98326 0.0
C344 C 0.47631 0.13208 0.97116 0.0
C345 C 0.48099 0.16893 0.95298 0.0
C346 C 0.4944 0.24814 0.89991 0.0
C347 C 0.49199 0.29104 0.88938 0.0
C348 C 0.45992 0.28204 0.86615 0.0
C349 C 0.43013 0.22996 0.85278 0.0
C350 C 0.43254 0.1869 0.86338 0.0
C351 C 0.46489 0.19605 0.88671 0.0
P352 P 0.82473 0.17488 0.94968 0.0
H353 H 0.89318 0.22358 0.99883 0.0
H354 H 0.92849 0.31154 0.0241 0.0
H355 H 0.86628 0.36462 0.9608 0.0
H356 H 0.82947 0.27589 0.93581 0.0
H357 H 0.71655 0.10651 0.9231 0.0
H358 H 0.63084 0.06376 0.94055 0.0
H359 H 0.70699 0.1276 0.02039 0.0
H360 H 0.79203 0.17049 1.0028 0.0
H361 H 0.88348 0.14761 0.91339 0.0
H362 H 0.76882 0.20038 0.90756 0.0
O363 O 0.85529 0.14275 0.96072 0.0
H364 H 0.89079 0.15147 0.86581 0.0
H365 H 0.77784 0.20637 0.85972 0.0
C366 C 0.85916 0.24308 0.96524 0.0
C367 C 0.88771 0.25423 0.99012 0.0
C368 C 0.9074 0.30432 1.00468 0.0
C369 C 0.89943 0.34435 0.99441 0.0
C370 C 0.8727 0.33414 0.96907 0.0
C371 C 0.85201 0.28346 0.95471 0.0
C372 C 0.76069 0.14312 0.96154 0.0
C373 C 0.71479 0.11209 0.94427 0.0
C374 C 0.66575 0.08737 0.95435 0.0
C375 C 0.66206 0.09255 0.9819 0.0
C376 C 0.70832 0.12295 0.99909 0.0
C377 C 0.75708 0.14782 0.98899 0.0
C378 C 0.82546 0.17349 0.91408 0.0
C379 C 0.85951 0.15963 0.9019 0.0
C380 C 0.86378 0.16193 0.87469 0.0
C381 C 0.83484 0.17918 0.85923 0.0
C382 C 0.80067 0.19315 0.87134 0.0
C383 C 0.79559 0.18975 0.89859 0.0
P384 P 0.60615 0.806 0.06498 0.0
H385 H 0.61884 0.77153 0.01165 0.0
H386 H 0.58012 0.6829 0.98581 0.0
H387 H 0.48763 0.60944 0.05017 0.0
H388 H 0.52563 0.69796 0.07565 0.0
H389 H 0.6403 0.92031 0.06679 0.0
H390 H 0.60213 0.96954 0.04605 0.0
H391 H 0.45994 0.81944 0.02013 0.0
H392 H 0.4985 0.77019 0.04091 0.0
H393 H 0.63448 0.73914 0.09448 0.0
H394 H 0.59044 0.85978 0.11285 0.0
O395 O 0.66793 0.84098 0.05724 0.0
H396 H 0.64902 0.73381 0.14168 0.0
H397 H 0.6069 0.85617 0.16054 0.0
C398 C 0.57624 0.741 0.04585 0.0
C399 C 0.59026 0.73629 0.02018 0.0
C400 C 0.56801 0.68579 1.00539 0.0
C401 C 0.53147 0.63943 0.01617 0.0
C402 C 0.5163 0.64454 0.04156 0.0
C403 C 0.53811 0.69504 0.05617 0.0
C404 C 0.57268 0.8416 0.05505 0.0
C405 C 0.60055 0.89801 0.05709 0.0
C406 C 0.57864 0.9261 0.04521 0.0
C407 C 0.52827 0.89823 0.03117 0.0
C408 C 0.49903 0.84188 0.03059 0.0
C409 C 0.52105 0.81374 0.04252 0.0
C410 C 0.61034 0.79904 0.10009 0.0
C411 C 0.62728 0.76408 0.10872 0.0
C412 C 0.63626 0.76157 0.1358 0.0
C413 C 0.62968 0.79495 0.15501 0.0
C414 C 0.61187 0.82952 0.14631 0.0
C415 C 0.60254 0.83173 0.11904 0.0
P416 P 0.2467 0.76795 0.08105 0.0
H417 H 0.19218 0.65378 0.08437 0.0
H418 H 0.12151 0.57752 0.05655 0.0
H419 H 0.10588 0.68555 1.00589 0.0
H420 H 0.17568 0.7629 0.03508 0.0
H421 H 0.31352 0.88176 0.10092 0.0
H422 H 0.38167 0.95677 0.08035 0.0
H423 H 0.32971 0.85939 1.00452 0.0
H424 H 0.26427 0.78424 0.02531 0.0
H425 H 0.24875 0.72462 0.13108 0.0
H426 H 0.19378 0.82684 0.10022 0.0
O427 O 0.28967 0.74652 0.0865 0.0
H428 H 0.21426 0.72891 0.17317 0.0
H429 H 0.15922 0.83193 0.14292 0.0
C430 C 0.19074 0.71381 0.06112 0.0
C431 C 0.17353 0.66129 0.06738 0.0
C432 C 0.13302 0.61768 0.05141 0.0
C433 C 0.10916 0.62568 0.02864 0.0
C434 C 0.12455 0.67844 0.023 0.0
C435 C 0.16453 0.72247 0.03956 0.0
C436 C 0.28209 0.82782 0.06454 0.0
C437 C 0.31528 0.87731 0.07966 0.0
C438 C 0.35443 0.9201 0.06789 0.0
C439 C 0.36072 0.9141 0.04075 0.0
C440 C 0.32515 0.86575 0.02531 0.0
C441 C 0.28708 0.82267 0.03723 0.0
C442 C 0.22531 0.77682 0.11277 0.0
C443 C 0.2302 0.74904 0.13355 0.0
C444 C 0.21034 0.75146 0.15769 0.0
C445 C 0.18457 0.78134 0.16158 0.0
C446 C 0.1789 0.80857 0.14055 0.0
C447 C 0.19905 0.80619 0.11627 0.0
P448 P 0.18355 0.34296 0.0664 0.0
H449 H 0.11699 0.32373 0.01713 0.0
H450 H 0.06498 0.36383 1.00144 0.0
H451 H 0.1149 0.46905 0.07492 0.0
H452 H 0.1673 0.42944 0.09022 0.0
H453 H 0.28808 0.36789 0.09061 0.0
H454 H 0.37462 0.40777 0.0738 0.0
H455 H 0.30833 0.43013 1.00058 0.0
H456 H 0.22257 0.39145 0.01773 0.0
H457 H 0.1139 0.25649 0.09624 0.0
H458 H 0.24324 0.41871 0.1145 0.0
O459 O 0.15574 0.28045 0.05114 0.0
H460 H 0.10377 0.24858 0.14335 0.0
H461 H 0.23372 0.41089 0.16223 0.0
C462 C 0.14532 0.37287 0.05507 0.0
C463 C 0.11662 0.35535 0.02989 0.0
C464 C 0.08706 0.37846 0.02088 0.0
C465 C 0.08549 0.41937 0.03699 0.0
C466 C 0.11479 0.4372 0.06211 0.0
C467 C 0.14482 0.41451 0.07093 0.0
C468 C 0.24903 0.37839 0.05588 0.0
C469 C 0.2924 0.38259 0.07123 0.0
C470 C 0.34186 0.40492 0.06143 0.0
C471 C 0.34852 0.42212 0.03576 0.0
C472 C 0.30475 0.41725 0.02037 0.0
C473 C 0.25563 0.39561 0.03033 0.0
C474 C 0.18024 0.33766 0.10179 0.0
C475 C 0.14087 0.2902 0.11044 0.0
C476 C 0.13515 0.28569 0.13751 0.0
C477 C 0.16839 0.32881 0.15673 0.0
C478 C 0.20747 0.37686 0.14801 0.0
C479 C 0.21328 0.38123 0.12075 0.0
P480 P 0.4899 0.98869 0.28485 0.0
H481 H 0.44642 0.01614 0.32982 0.0
H482 H 0.35856 0.97473 0.34493 0.0
H483 H 0.30054 0.85494 0.27667 0.0
H484 H 0.38896 0.89651 0.26188 0.0
H485 H 0.54377 0.99381 0.33604 0.0
H486 H 0.58662 0.94467 0.35188 0.0
H487 H 0.53854 0.84678 0.27613 0.0
H488 H 0.49439 0.89507 0.26078 0.0
H489 H 0.4217 0.99123 0.24032 0.0
H490 H 0.57294 0.001 0.25231 0.0
O491 O 0.52548 0.05146 0.29975 0.0
H492 H 0.43387 0.00357 0.19324 0.0
H493 H 0.58549 0.01364 0.20564 0.0
C494 C 0.42386 0.96027 0.29432 0.0
C495 C 0.41464 0.98142 0.31789 0.0
C496 C 0.36438 0.9575 0.32662 0.0
C497 C 0.32239 0.91175 0.31195 0.0
C498 C 0.33185 0.89055 0.28831 0.0
C499 C 0.38233 0.9143 0.27974 0.0
C500 C 0.51751 0.94927 0.29696 0.0
C501 C 0.54225 0.96158 0.32292 0.0
C502 C 0.56653 0.9333 0.33196 0.0
C503 C 0.56666 0.8924 0.3151 0.0
C504 C 0.53984 0.87866 0.28945 0.0
C505 C 0.51472 0.90632 0.28062 0.0
C506 C 0.49551 0.99309 0.24964 0.0
C507 C 0.457 0.99491 0.23276 0.0
C508 C 0.46424 0.00248 0.20589 0.0
C509 C 0.51038 0.00888 0.19557 0.0
C510 C 0.54891 0.00743 0.2127 0.0
C511 C 0.54176 0.00021 0.23946 0.0
P512 P 0.20678 0.5961 0.26176 0.0
H513 H 0.28728 0.68924 0.29639 0.0
H514 H 0.28312 0.75598 0.32732 0.0
H515 H 0.11423 0.67403 0.30975 0.0
H516 H 0.11857 0.60699 0.27894 0.0
H517 H 0.28117 0.56954 0.28617 0.0
H518 H 0.27333 0.50673 0.31791 0.0
H519 H 0.10455 0.43763 0.31024 0.0
H520 H 0.11277 0.50255 0.27842 0.0
H521 H 0.1821 0.66514 0.2323 0.0
H522 H 0.13407 0.49601 0.22745 0.0
O523 O 0.26657 0.62448 0.2511 0.0
H524 H 0.12528 0.64924 0.19191 0.0
H525 H 0.07728 0.47981 0.18655 0.0
C526 C 0.20339 0.64408 0.28498 0.0
C527 C 0.2494 0.68571 0.29914 0.0
C528 C 0.24694 0.72365 0.31685 0.0
C529 C 0.19839 0.72034 0.3206 0.0
C530 C 0.15219 0.67785 0.30685 0.0
C531 C 0.15465 0.63961 0.28932 0.0
C532 C 0.19753 0.54021 0.27957 0.0
C533 C 0.24223 0.54013 0.29064 0.0
C534 C 0.23772 0.50434 0.30897 0.0
C535 C 0.18834 0.46762 0.31659 0.0
C536 C 0.14299 0.46539 0.30448 0.0
C537 C 0.14767 0.50224 0.28631 0.0
C538 C 0.16108 0.58146 0.23323 0.0
C539 C 0.15868 0.62435 0.22271 0.0
C540 C 0.1266 0.61536 0.19947 0.0
C541 C 0.09681 0.56328 0.18611 0.0
C542 C 0.09922 0.52022 0.1967 0.0
C543 C 0.13157 0.52937 0.22004 0.0
P544 P 0.4914 0.50821 0.28302 0.0
H545 H 0.55984 0.55691 0.33216 0.0
H546 H 0.59514 0.64486 0.35744 0.0
H547 H 0.53293 0.69794 0.29414 0.0
H548 H 0.49613 0.60921 0.26914 0.0
H549 H 0.38322 0.43984 0.25643 0.0
H550 H 0.29751 0.39708 0.27388 0.0
H551 H 0.37365 0.46089 0.35372 0.0
H552 H 0.45869 0.5038 0.33613 0.0
H553 H 0.55016 0.48095 0.24673 0.0
H554 H 0.43548 0.5337 0.24089 0.0
O555 O 0.52196 0.47608 0.29405 0.0
H556 H 0.55748 0.48482 0.19915 0.0
H557 H 0.44451 0.5397 0.19305 0.0
C558 C 0.52581 0.5764 0.29857 0.0
C559 C 0.55437 0.58755 0.32345 0.0
C560 C 0.57405 0.63764 0.33801 0.0
C561 C 0.56608 0.67768 0.32774 0.0
C562 C 0.53935 0.66746 0.30241 0.0
C563 C 0.51866 0.61678 0.28805 0.0
C564 C 0.42735 0.47643 0.29487 0.0
C565 C 0.38145 0.4454 0.2776 0.0
C566 C 0.33241 0.42068 0.28768 0.0
C567 C 0.32873 0.42585 0.31523 0.0
C568 C 0.37498 0.45625 0.33242 0.0
C569 C 0.42375 0.48112 0.32232 0.0
C570 C 0.49213 0.50682 0.24742 0.0
C571 C 0.52619 0.49297 0.23523 0.0
C572 C 0.53047 0.49527 0.20803 0.0
C573 C 0.50152 0.51253 0.19257 0.0
C574 C 0.46734 0.52648 0.20467 0.0
C575 C 0.46226 0.52308 0.23193 0.0
C576 C 0.5664 0.06756 0.08987 0.0
Eu577 Eu 0.53528 0.04222 0.0392 0.0
C578 C 0.54755 0.04858 0.11582 0.0
C579 C 0.52249 0.0712 0.13051 0.0
C580 C 0.50868 0.05684 0.15598 0.0
C581 C 0.52005 0.01991 0.16747 0.0
C582 C 0.54392 0.99628 0.15252 0.0
C583 C 0.55761 0.01051 0.12702 0.0
C584 C 0.52007 0.10369 1.0058 0.0
C585 C 0.4092 0.95328 0.02981 0.0
C586 C 0.45115 0.96201 0.93228 0.0
Eu587 Eu 0.48296 0.98503 0.98305 0.0
C588 C 0.47006 0.97401 0.90558 0.0
C589 C 0.46985 0.93306 0.88868 0.0
C590 C 0.48202 0.9409 0.86244 0.0
C591 C 0.49434 0.98983 0.85223 0.0
C592 C 0.49638 0.03165 0.86941 0.0
C593 C 0.48422 0.0238 0.89579 0.0
C594 C 0.50839 0.92791 0.01585 0.0
C595 C 0.61043 0.06601 0.99268 0.0
O596 O 0.5785 0.03762 0.0744 0.0
O597 O 0.54256 0.08855 0.0766 0.0
O598 O 0.55941 0.1219 0.02398 0.0
O599 O 0.48782 0.05444 0.00743 0.0
O600 O 0.45276 0.97896 0.04627 0.0
O601 O 0.40945 0.95512 1.00381 0.0
O602 O 0.44875 0.9996 0.9473 0.0
O603 O 0.46648 0.93403 0.9459 0.0
O604 O 0.4671 0.90582 0.99859 0.0
O605 O 0.53513 0.9774 0.01359 0.0
O606 O 0.5674 0.04225 0.97576 0.0
O607 O 0.60863 0.0661 0.01877 0.0
H608 H 0.51469 0.1011 0.12262 0.0
H609 H 0.49098 0.07633 0.16707 0.0
H610 H 0.55272 0.96725 0.16068 0.0
H611 H 0.57706 0.99244 0.11635 0.0
H612 H 0.45894 0.89423 0.89556 0.0
H613 H 0.48093 0.90811 0.84998 0.0
H614 H 0.50534 0.06972 0.8622 0.0
H615 H 0.48457 0.05621 0.90824 0.0
C616 C 0.97377 0.52645 0.08613 0.0
Eu617 Eu 0.9793 0.49283 0.0382 0.0
C618 C 0.00471 0.53739 0.11204 0.0
C619 C 0.98358 0.50218 0.13168 0.0
C620 C 0.01343 0.51049 0.15577 0.0
C621 C 0.06477 0.55452 0.16075 0.0
C622 C 0.08556 0.5903 0.14129 0.0
C623 C 0.05589 0.58184 0.11719 0.0
C624 C 0.91872 0.39601 0.01056 0.0
C625 C 0.05337 0.44325 0.02787 0.0
C626 C 0.01769 0.45579 0.93262 0.0
Eu627 Eu 0.00488 0.48408 0.98047 0.0
C628 C 1.00331 0.4586 0.90466 0.0
C629 C 0.03463 0.45638 0.88528 0.0
C630 C 0.02172 0.45793 0.85851 0.0
C631 C 0.97694 0.46155 0.85046 0.0
C632 C 0.94596 0.46466 0.87005 0.0
C633 C 0.95903 0.46316 0.89695 0.0
C634 C 0.06918 0.57811 0.01126 0.0
C635 C 0.9298 0.5326 0.99051 0.0
O636 O 0.99698 0.55892 0.06808 0.0
O637 O 0.94634 0.47582 0.07624 0.0
O638 O 0.93172 0.40262 0.03598 0.0
O639 O 0.93395 0.4407 1.00138 0.0
O640 O 0.04342 0.47238 0.04549 0.0
O641 O 0.03684 0.43678 1.00224 0.0
O642 O 0.9796 0.424 0.94617 0.0
O643 O 0.05126 0.50141 0.94646 0.0
O644 O 0.05516 0.57638 0.98625 0.0
O645 O 0.05053 0.53145 0.01789 0.0
O646 O 0.94418 0.50865 0.97232 0.0
O647 O 0.94239 0.53499 0.01629 0.0
H648 H 0.94411 0.46786 0.1283 0.0
H649 H 0.99624 0.48271 0.17057 0.0
H650 H 0.12522 0.62433 0.14449 0.0
H651 H 0.07341 0.60986 0.10253 0.0
H652 H 0.06918 0.4533 0.89086 0.0
H653 H 0.04717 0.45665 0.84411 0.0
H654 H 0.91112 0.46724 0.86456 0.0
H655 H 0.93442 0.46517 0.91168 0.0
C656 C 0.43387 0.44461 0.92941 0.0
Eu657 Eu 0.47725 0.48551 0.97767 0.0
C658 C 0.45582 0.44766 0.90361 0.0
C659 C 0.42616 0.44285 0.87986 0.0
C660 C 0.44661 0.44415 0.85533 0.0
C661 C 0.497 0.45002 0.8542 0.0
C662 C 0.52684 0.45577 0.87814 0.0
C663 C 0.50655 0.45473 0.90255 0.0
C664 C 0.51007 0.58568 1.00148 0.0
C665 C 0.60278 0.55204 0.98821 0.0
C666 C 0.55935 0.53527 0.08567 0.0
Eu667 Eu 0.52887 0.50927 0.03508 0.0
C668 C 0.537 0.52764 0.11157 0.0
C669 C 0.51731 0.47764 0.12197 0.0
C670 C 0.50341 0.47231 0.14792 0.0
C671 C 0.50845 0.51661 0.16399 0.0
C672 C 0.52536 0.5659 0.1533 0.0
C673 C 0.53992 0.57149 0.1273 0.0
C674 C 0.52982 0.42804 1.00545 0.0
C675 C 0.40087 0.44585 0.02528 0.0
O676 O 0.44552 0.41873 0.94647 0.0
O677 O 0.43776 0.48914 0.94051 0.0
O678 O 0.5146 0.57622 0.97659 0.0
O679 O 0.48778 0.54248 0.01209 0.0
O680 O 0.56261 0.51432 0.97212 0.0
O681 O 0.59684 0.5651 0.01289 0.0
O682 O 0.55346 0.56766 0.07045 0.0
O683 O 0.55428 0.49217 0.07223 0.0
O684 O 0.56886 0.46252 0.02218 0.0
O685 O 0.49201 0.43722 1.00559 0.0
O686 O 0.44298 0.46127 0.04219 0.0
O687 O 0.40406 0.45263 0.99963 0.0
H688 H 0.38697 0.43744 0.88026 0.0
H689 H 0.42248 0.43916 0.83725 0.0
H690 H 0.56602 0.46107 0.87803 0.0
H691 H 0.5304 0.45891 0.92061 0.0
H692 H 0.51447 0.44292 0.11048 0.0
H693 H 0.49023 0.43388 0.15577 0.0
H694 H 0.52993 0.60072 0.16548 0.0
H695 H 0.55531 0.61055 0.11987 0.0
C696 C 0.23306 0.40087 0.4232 0.0
Eu697 Eu 0.20194 0.37553 0.37253 0.0
C698 C 0.21421 0.38189 0.44915 0.0
C699 C 0.18914 0.40451 0.46384 0.0
C700 C 0.17534 0.39016 0.48931 0.0
C701 C 0.18671 0.35322 0.5008 0.0
C702 C 0.21058 0.32959 0.48585 0.0
C703 C 0.22427 0.34382 0.46035 0.0
C704 C 0.18674 0.437 0.33913 0.0
C705 C 0.07586 0.28659 0.36314 0.0
C706 C 0.11781 0.29532 0.26561 0.0
Eu707 Eu 0.14962 0.31834 0.31638 0.0
C708 C 0.13673 0.30733 0.2389 0.0
C709 C 0.13653 0.26639 0.222 0.0
C710 C 0.1487 0.27423 0.19577 0.0
C711 C 0.16102 0.32317 0.18557 0.0
C712 C 0.16305 0.36498 0.20275 0.0
C713 C 0.15088 0.35712 0.22913 0.0
C714 C 0.17504 0.26121 0.34918 0.0
C715 C 0.27709 0.39931 0.32601 0.0
O716 O 0.24516 0.37093 0.40772 0.0
O717 O 0.20922 0.42186 0.40993 0.0
O718 O 0.22608 0.45521 0.35731 0.0
O719 O 0.15448 0.38775 0.34076 0.0
O720 O 0.11942 0.31227 0.3796 0.0
O721 O 0.07611 0.28843 0.33714 0.0
O722 O 0.11541 0.33291 0.28063 0.0
O723 O 0.13314 0.26734 0.27922 0.0
O724 O 0.13375 0.23912 0.33191 0.0
O725 O 0.20178 0.3107 0.34692 0.0
O726 O 0.23406 0.37556 0.30909 0.0
O727 O 0.27529 0.3994 0.3521 0.0
H728 H 0.18135 0.43441 0.45594 0.0
H729 H 0.15763 0.40965 0.5004 0.0
H730 H 0.21938 0.30056 0.49401 0.0
H731 H 0.24372 0.32575 0.44968 0.0
H732 H 0.12561 0.22756 0.22889 0.0
H733 H 0.14761 0.24145 0.1833 0.0
H734 H 0.17202 0.40306 0.19553 0.0
H735 H 0.15123 0.38953 0.24157 0.0
C736 C 0.64042 0.85977 0.41946 0.0
Eu737 Eu 0.64594 0.82615 0.37153 0.0
C738 C 0.67136 0.87072 0.44538 0.0
C739 C 0.65024 0.83551 0.46502 0.0
C740 C 0.68009 0.84382 0.4891 0.0
C741 C 0.73142 0.88785 0.49408 0.0
C742 C 0.75222 0.92363 0.47463 0.0
C743 C 0.72254 0.91517 0.45052 0.0
C744 C 0.58536 0.72933 0.34389 0.0
C745 C 0.72002 0.77657 0.36121 0.0
C746 C 0.68434 0.78912 0.26595 0.0
Eu747 Eu 0.67153 0.8174 0.31381 0.0
C748 C 0.66997 0.79194 0.23799 0.0
C749 C 0.70131 0.78973 0.21862 0.0
C750 C 0.68841 0.79129 0.19185 0.0
C751 C 0.64364 0.79492 0.18379 0.0
C752 C 0.61265 0.79803 0.20339 0.0
C753 C 0.6257 0.79652 0.23029 0.0
C754 C 0.73582 0.91144 0.34459 0.0
C755 C 0.59644 0.86592 0.32385 0.0
O756 O 0.66363 0.89224 0.40142 0.0
O757 O 0.61299 0.80915 0.40958 0.0
O758 O 0.59836 0.73594 0.36931 0.0
O759 O 0.60059 0.77402 0.33471 0.0
O760 O 0.71007 0.8057 0.37883 0.0
O761 O 0.70348 0.77009 0.33558 0.0
O762 O 0.64624 0.75733 0.2795 0.0
O763 O 0.71792 0.83472 0.2798 0.0
O764 O 0.7218 0.9097 0.31959 0.0
O765 O 0.71718 0.86477 0.35123 0.0
O766 O 0.61083 0.84197 0.30566 0.0
O767 O 0.60903 0.86831 0.34963 0.0
H768 H 0.61077 0.80119 0.46164 0.0
H769 H 0.6629 0.81605 0.5039 0.0
H770 H 0.79187 0.95767 0.47782 0.0
H771 H 0.74006 0.94319 0.43586 0.0
H772 H 0.73585 0.78663 0.2242 0.0
H773 H 0.71386 0.79001 0.17745 0.0
H774 H 0.57782 0.80062 0.19789 0.0
H775 H 0.6011 0.79853 0.24501 0.0
C776 C 0.1005 0.77788 0.26273 0.0
Eu777 Eu 0.14388 0.81879 0.31099 0.0
C778 C 0.12245 0.78094 0.23693 0.0
C779 C 0.0928 0.77613 0.21319 0.0
C780 C 0.11326 0.77744 0.18866 0.0
C781 C 0.16365 0.78331 0.18753 0.0
C782 C 0.19349 0.78906 0.21148 0.0
C783 C 0.17319 0.78802 0.23588 0.0
C784 C 0.17668 0.91896 0.33481 0.0
C785 C 0.2694 0.88533 0.32154 0.0
C786 C 0.22598 0.86855 0.419 0.0
Eu787 Eu 0.19549 0.84255 0.3684 0.0
C788 C 0.20363 0.86093 0.4449 0.0
C789 C 0.18395 0.81093 0.4553 0.0
C790 C 0.17005 0.80561 0.48126 0.0
C791 C 0.1751 0.84992 0.49732 0.0
C792 C 0.192 0.8992 0.48663 0.0
C793 C 0.20656 0.90478 0.46063 0.0
C794 C 0.19647 0.76133 0.33878 0.0
C795 C 0.06749 0.77913 0.3586 0.0
O796 O 0.11215 0.75201 0.2798 0.0
O797 O 0.10438 0.82241 0.27383 0.0
O798 O 0.18121 0.9095 0.30992 0.0
O799 O 0.15439 0.87575 0.34542 0.0
O800 O 0.22924 0.84761 0.30545 0.0
O801 O 0.26346 0.89839 0.34622 0.0
O802 O 0.2201 0.90095 0.40378 0.0
O803 O 0.22089 0.82544 0.40555 0.0
O804 O 0.2355 0.79581 0.35551 0.0
O805 O 0.15864 0.77051 0.33891 0.0
O806 O 0.10961 0.79456 0.37552 0.0
O807 O 0.07068 0.78591 0.33296 0.0
H808 H 0.05361 0.77072 0.21358 0.0
H809 H 0.08913 0.77245 0.17057 0.0
H810 H 0.23267 0.79436 0.21137 0.0
H811 H 0.19704 0.79219 0.25394 0.0
H812 H 0.1811 0.77622 0.44382 0.0
H813 H 0.15688 0.76719 0.48911 0.0
H814 H 0.19658 0.93403 0.49881 0.0
H815 H 0.22194 0.94384 0.4532 0.0
C816 C 0.89973 0.73422 0.75653 0.0
Eu817 Eu 0.86861 0.70887 0.70586 0.0
C818 C 0.88089 0.71524 0.78248 0.0
C819 C 0.85583 0.73786 0.79717 0.0
C820 C 0.84203 0.72352 0.82264 0.0
C821 C 0.85339 0.68658 0.83414 0.0
C822 C 0.87726 0.66294 0.81918 0.0
C823 C 0.89094 0.67716 0.79369 0.0
C824 C 0.85341 0.77034 0.67246 0.0
C825 C 0.74253 0.61993 0.69648 0.0
C826 C 0.78448 0.62865 0.59894 0.0
Eu827 Eu 0.81629 0.65167 0.64971 0.0
C828 C 0.80339 0.64066 0.57224 0.0
C829 C 0.80318 0.59971 0.55534 0.0
C830 C 0.81535 0.60755 0.5291 0.0
C831 C 0.82766 0.65648 0.5189 0.0
C832 C 0.82971 0.6983 0.53608 0.0
C833 C 0.81754 0.69044 0.56246 0.0
C834 C 0.84171 0.59454 0.68252 0.0
C835 C 0.94376 0.73264 0.65934 0.0
O836 O 0.91183 0.70427 0.74106 0.0
O837 O 0.87589 0.7552 0.74326 0.0
O838 O 0.89275 0.78854 0.69064 0.0
O839 O 0.82115 0.72109 0.67409 0.0
O840 O 0.78609 0.64561 0.71293 0.0
O841 O 0.74278 0.62177 0.67048 0.0
O842 O 0.78207 0.66624 0.61396 0.0
O843 O 0.79981 0.60067 0.61256 0.0
O844 O 0.80041 0.57246 0.66525 0.0
O845 O 0.86845 0.64403 0.68025 0.0
O846 O 0.90073 0.70889 0.64242 0.0
O847 O 0.94196 0.73274 0.68543 0.0
H848 H 0.84804 0.76776 0.78928 0.0
H849 H 0.82433 0.74301 0.83373 0.0
H850 H 0.88606 0.63391 0.82734 0.0
H851 H 0.91039 0.65909 0.78301 0.0
H852 H 0.79227 0.56088 0.56222 0.0
H853 H 0.81426 0.57477 0.51664 0.0
H854 H 0.83867 0.73637 0.52886 0.0
H855 H 0.81789 0.72285 0.57491 0.0
C856 C 0.3071 0.19311 0.75279 0.0
Eu857 Eu 0.31262 0.15949 0.70487 0.0
C858 C 0.33803 0.20406 0.77871 0.0
C859 C 0.3169 0.16885 0.79835 0.0
C860 C 0.34675 0.17716 0.82244 0.0
C861 C 0.39808 0.22119 0.82742 0.0
C862 C 0.41888 0.25697 0.80796 0.0
C863 C 0.38921 0.24851 0.78386 0.0
C864 C 0.25204 0.06267 0.67723 0.0
C865 C 0.38669 0.10991 0.69454 0.0
C866 C 0.35101 0.12246 0.59929 0.0
Eu867 Eu 0.3382 0.15074 0.64714 0.0
C868 C 0.33663 0.12526 0.57132 0.0
C869 C 0.36796 0.12306 0.55195 0.0
C870 C 0.35505 0.12461 0.52518 0.0
C871 C 0.31027 0.12822 0.51712 0.0
C872 C 0.27928 0.13132 0.53672 0.0
C873 C 0.29235 0.12982 0.56362 0.0
C874 C 0.4025 0.24478 0.67792 0.0
C875 C 0.26311 0.19925 0.65718 0.0
O876 O 0.3303 0.22558 0.73475 0.0
O877 O 0.27966 0.14249 0.74291 0.0
O878 O 0.26504 0.06928 0.70265 0.0
O879 O 0.26727 0.10736 0.66805 0.0
O880 O 0.37674 0.13904 0.71216 0.0
O881 O 0.37015 0.10344 0.66891 0.0
O882 O 0.31292 0.09066 0.61284 0.0
O883 O 0.38458 0.16807 0.61313 0.0
O884 O 0.38847 0.24304 0.65292 0.0
O885 O 0.38385 0.19811 0.68456 0.0
O886 O 0.2775 0.1753 0.63899 0.0
O887 O 0.2757 0.20165 0.68296 0.0
H888 H 0.27743 0.13453 0.79497 0.0
H889 H 0.32956 0.14939 0.83724 0.0
H890 H 0.45854 0.29101 0.81116 0.0
H891 H 0.40674 0.27652 0.76919 0.0
H892 H 0.40251 0.11998 0.55753 0.0
H893 H 0.38051 0.12334 0.51078 0.0
H894 H 0.24445 0.13389 0.53123 0.0
H895 H 0.26774 0.13183 0.57834 0.0
C896 C 0.76717 0.11121 0.59607 0.0
Eu897 Eu 0.81055 0.15212 0.64433 0.0
C898 C 0.78912 0.11427 0.57027 0.0
C899 C 0.75946 0.10946 0.54652 0.0
C900 C 0.77992 0.11077 0.522 0.0
C901 C 0.83031 0.11665 0.52086 0.0
C902 C 0.86015 0.1224 0.54481 0.0
C903 C 0.83986 0.12136 0.56921 0.0
C904 C 0.84335 0.25229 0.66814 0.0
C905 C 0.93607 0.21867 0.65487 0.0
C906 C 0.89265 0.20189 0.75233 0.0
Eu907 Eu 0.86216 0.17589 0.70174 0.0
C908 C 0.8703 0.19427 0.77823 0.0
C909 C 0.8506 0.14427 0.78863 0.0
C910 C 0.83671 0.13895 0.81459 0.0
C911 C 0.84176 0.18326 0.83066 0.0
C912 C 0.85868 0.23254 0.81996 0.0
C913 C 0.87323 0.23812 0.79396 0.0
C914 C 0.86313 0.09467 0.67211 0.0
C915 C 0.73416 0.11246 0.69194 0.0
O916 O 0.77882 0.08534 0.61313 0.0
O917 O 0.77105 0.15574 0.60717 0.0
O918 O 0.84788 0.24283 0.64325 0.0
O919 O 0.82106 0.20908 0.67875 0.0
O920 O 0.89591 0.18094 0.63878 0.0
O921 O 0.93013 0.23172 0.67955 0.0
O922 O 0.88676 0.23428 0.73711 0.0
O923 O 0.88756 0.15878 0.73889 0.0
O924 O 0.90217 0.12915 0.68884 0.0
O925 O 0.82531 0.10384 0.67225 0.0
O926 O 0.77627 0.12789 0.70885 0.0
O927 O 0.73735 0.11924 0.66629 0.0
H928 H 0.72027 0.10404 0.54692 0.0
H929 H 0.75579 0.10576 0.50391 0.0
H930 H 0.89934 0.12771 0.5447 0.0
H931 H 0.86371 0.12554 0.58727 0.0
H932 H 0.84775 0.10955 0.77715 0.0
H933 H 0.82353 0.10052 0.82244 0.0
H934 H 0.86326 0.26737 0.83214 0.0
H935 H 0.88862 0.27718 0.78653 0.0
loop_
_geom_bond_atom_site_label_1
_geom_bond_atom_site_label_2
_geom_bond_distance
_geom_bond_site_symmetry_2
_ccdc_geom_bond_type
P0 O11 1.490 . S
P0 C14 1.812 . S
P0 C20 1.803 . S
P0 C26 1.819 . S
H1 C15 0.941 . S
H2 C16 0.939 . S
H3 C18 0.940 . S
H4 C19 0.940 . S
H5 C21 0.939 . S
H6 C22 0.942 . S
H7 C24 0.940 . S
H8 C25 0.939 . S
H9 C27 0.941 . S
H10 C31 0.939 . S
O11 P0 1.490 . S
H12 C28 0.939 . S
H13 C30 0.940 . S
C14 P0 1.812 . S
C14 C15 1.389 . S
C14 C19 1.391 . S
C15 H1 0.941 . S
C15 C14 1.389 . S
C15 C16 1.397 . S
C16 H2 0.939 . S
C16 C15 1.397 . S
C16 C17 1.378 . S
C17 C16 1.378 . S
C17 C18 1.378 . S
C18 H3 0.940 . S
C18 C17 1.378 . S
C18 C19 1.396 . S
C19 H4 0.940 . S
C19 C14 1.391 . S
C19 C18 1.396 . S
C20 P0 1.803 . S
C20 C21 1.378 . S
C20 C25 1.400 . S
C21 H5 0.939 . S
C21 C20 1.378 . S
C21 C22 1.361 . S
C22 H6 0.942 . S
C22 C21 1.361 . S
C22 C23 1.369 . S
C23 C22 1.369 . S
C23 C24 1.404 . S
C24 H7 0.940 . S
C24 C23 1.404 . S
C24 C25 1.389 . S
C25 H8 0.939 . S
C25 C20 1.400 . S
C25 C24 1.389 . S
C26 P0 1.819 . S
C26 C27 1.391 . S
C26 C31 1.391 . S
C27 H9 0.941 . S
C27 C26 1.391 . S
C27 C28 1.396 . S
C28 H12 0.939 . S
C28 C27 1.396 . S
C28 C29 1.397 . S
C29 C28 1.397 . S
C29 C30 1.385 . S
C30 H13 0.940 . S
C30 C29 1.385 . S
C30 C31 1.388 . S
C31 H10 0.939 . S
C31 C26 1.391 . S
C31 C30 1.388 . S
P32 O43 1.490 . S
P32 C46 1.812 . S
P32 C52 1.803 . S
P32 C58 1.819 . S
H33 C47 0.941 . S
H34 C48 0.939 . S
H35 C50 0.940 . S
H36 C51 0.940 . S
H37 C53 0.927 1_455 S
H38 C54 0.942 . S
H39 C56 0.940 . S
H40 C57 0.939 . S
H41 C59 0.941 . S
H42 C63 0.939 . S
O43 P32 1.490 . S
H44 C60 0.939 . S
H45 C62 0.940 . S
C46 P32 1.812 . S
C46 C47 1.389 . S
C46 C51 1.391 . S
C47 H33 0.941 . S
C47 C46 1.389 . S
C47 C48 1.397 1_545 S
C48 H34 0.939 . S
C48 C47 1.397 1_565 S
C48 C49 1.378 . S
C49 C48 1.378 . S
C49 C50 1.378 1_565 S
C50 H35 0.940 . S
C50 C49 1.378 1_545 S
C50 C51 1.396 . S
C51 H36 0.940 . S
C51 C46 1.391 . S
C51 C50 1.396 . S
C52 P32 1.803 . S
C52 C53 1.394 . S
C52 C57 1.400 . S
C53 H37 0.927 1_655 S
C53 C52 1.394 . S
C53 C54 1.356 1_655 S
C54 H38 0.942 . S
C54 C53 1.356 1_455 S
C54 C55 1.369 . S
C55 C54 1.369 . S
C55 C56 1.404 1_455 S
C56 H39 0.940 . S
C56 C55 1.404 1_655 S
C56 C57 1.389 . S
C57 H40 0.939 . S
C57 C52 1.400 . S
C57 C56 1.389 . S
C58 P32 1.819 . S
C58 C59 1.391 . S
C58 C63 1.391 . S
C59 H41 0.941 . S
C59 C58 1.391 . S
C59 C60 1.396 . S
C60 H44 0.939 . S
C60 C59 1.396 . S
C60 C61 1.397 . S
C61 C60 1.397 . S
C61 C62 1.385 . S
C62 H45 0.940 . S
C62 C61 1.385 . S
C62 C63 1.388 . S
C63 H42 0.939 . S
C63 C58 1.391 . S
C63 C62 1.388 . S
P64 O75 1.490 . S
P64 C78 1.812 . S
P64 C84 1.803 . S
P64 C90 1.819 . S
H65 C79 0.941 . S
H66 C80 0.939 . S
H67 C82 0.940 . S
H68 C83 0.940 . S
H69 C85 0.939 . S
H70 C86 0.942 1_455 S
H71 C88 0.940 1_455 S
H72 C89 0.939 . S
H73 C91 0.941 . S
H74 C95 0.939 . S
O75 P64 1.490 . S
H76 C92 0.939 . S
H77 C94 0.940 . S
C78 P64 1.812 . S
C78 C79 1.389 . S
C78 C83 1.391 . S
C79 H65 0.941 . S
C79 C78 1.389 . S
C79 C80 1.397 . S
C80 H66 0.939 . S
C80 C79 1.397 . S
C80 C81 1.378 . S
C81 C80 1.378 . S
C81 C82 1.378 . S
C82 H67 0.940 . S
C82 C81 1.378 . S
C82 C83 1.396 . S
C83 H68 0.940 . S
C83 C78 1.391 . S
C83 C82 1.396 . S
C84 P64 1.803 . S
C84 C85 1.378 . S
C84 C89 1.400 . S
C85 H69 0.939 . S
C85 C84 1.378 . S
C85 C86 1.361 . S
C86 H70 0.942 1_655 S
C86 C85 1.361 . S
C86 C87 1.369 1_655 S
C87 C86 1.369 1_455 S
C87 C88 1.404 1_455 S
C88 H71 0.940 1_655 S
C88 C87 1.404 1_655 S
C88 C89 1.389 . S
C89 H72 0.939 . S
C89 C84 1.400 . S
C89 C88 1.389 . S
C90 P64 1.819 . S
C90 C91 1.391 . S
C90 C95 1.391 . S
C91 H73 0.941 . S
C91 C90 1.391 . S
C91 C92 1.396 . S
C92 H76 0.939 . S
C92 C91 1.396 . S
C92 C93 1.397 . S
C93 C92 1.397 . S
C93 C94 1.385 . S
C94 H77 0.940 . S
C94 C93 1.385 . S
C94 C95 1.388 . S
C95 H74 0.939 . S
C95 C90 1.391 . S
C95 C94 1.388 . S
P96 O107 1.490 . S
P96 C110 1.812 . S
P96 C116 1.803 . S
P96 C122 1.819 . S
H97 C111 0.941 . S
H98 C112 0.939 . S
H99 C114 0.949 . S
H100 C115 0.940 . S
H101 C117 0.939 . S
H102 C118 0.942 . S
H103 C120 0.940 . S
H104 C121 0.939 . S
H105 C123 0.941 . S
H106 C127 0.939 . S
O107 P96 1.490 . S
H108 C124 0.939 . S
H109 C126 0.940 . S
C110 P96 1.812 . S
C110 C111 1.389 . S
C110 C115 1.391 . S
C111 H97 0.941 . S
C111 C110 1.389 . S
C111 C112 1.397 . S
C112 H98 0.939 . S
C112 C111 1.397 . S
C112 C113 1.378 1_455 S
C113 C112 1.378 1_655 S
C113 C114 1.390 . S
C114 H99 0.949 . S
C114 C113 1.390 . S
C114 C115 1.375 1_655 S
C115 H100 0.940 . S
C115 C110 1.391 . S
C115 C114 1.375 1_455 S
C116 P96 1.803 . S
C116 C117 1.378 . S
C116 C121 1.400 . S
C117 H101 0.939 . S
C117 C116 1.378 . S
C117 C118 1.361 . S
C118 H102 0.942 . S
C118 C117 1.361 . S
C118 C119 1.369 . S
C119 C118 1.369 . S
C119 C120 1.404 . S
C120 H103 0.940 . S
C120 C119 1.404 . S
C120 C121 1.389 . S
C121 H104 0.939 . S
C121 C116 1.400 . S
C121 C120 1.389 . S
C122 P96 1.819 . S
C122 C123 1.391 . S
C122 C127 1.391 . S
C123 H105 0.941 . S
C123 C122 1.391 . S
C123 C124 1.396 . S
C124 H108 0.939 . S
C124 C123 1.396 . S
C124 C125 1.397 . S
C125 C124 1.397 . S
C125 C126 1.385 . S
C126 H109 0.940 . S
C126 C125 1.385 . S
C126 C127 1.388 . S
C127 H106 0.939 . S
C127 C122 1.391 . S
C127 C126 1.388 . S
P128 O139 1.490 . S
P128 C142 1.812 . S
P128 C148 1.803 . S
P128 C154 1.819 . S
H129 C143 0.941 . S
H130 C144 0.939 . S
H131 C146 0.940 . S
H132 C147 0.940 . S
H133 C149 0.939 . S
H134 C150 0.942 . S
H135 C152 0.940 . S
H136 C153 0.939 . S
H137 C155 0.941 . S
H138 C159 0.939 . S
O139 P128 1.490 . S
H140 C156 0.939 . S
H141 C158 0.940 . S
C142 P128 1.812 . S
C142 C143 1.389 . S
C142 C147 1.391 . S
C143 H129 0.941 . S
C143 C142 1.389 . S
C143 C144 1.397 1_565 S
C144 H130 0.939 . S
C144 C143 1.397 1_545 S
C144 C145 1.378 1_545 S
C145 C144 1.378 1_565 S
C145 C146 1.378 . S
C146 H131 0.940 . S
C146 C145 1.378 . S
C146 C147 1.396 . S
C147 H132 0.940 . S
C147 C142 1.391 . S
C147 C146 1.396 . S
C148 P128 1.803 . S
C148 C149 1.378 . S
C148 C153 1.400 . S
C149 H133 0.939 . S
C149 C148 1.378 . S
C149 C150 1.361 . S
C150 H134 0.942 . S
C150 C149 1.361 . S
C150 C151 1.369 . S
C151 C150 1.369 . S
C151 C152 1.404 . S
C152 H135 0.940 . S
C152 C151 1.404 . S
C152 C153 1.389 . S
C153 H136 0.939 . S
C153 C148 1.400 . S
C153 C152 1.389 . S
C154 P128 1.819 . S
C154 C155 1.391 . S
C154 C159 1.391 . S
C155 H137 0.941 . S
C155 C154 1.391 . S
C155 C156 1.396 . S
C156 H140 0.939 . S
C156 C155 1.396 . S
C156 C157 1.397 . S
C157 C156 1.397 . S
C157 C158 1.385 . S
C158 H141 0.940 . S
C158 C157 1.385 . S
C158 C159 1.388 . S
C159 H138 0.939 . S
C159 C154 1.391 . S
C159 C158 1.388 . S
P160 O171 1.490 . S
P160 C174 1.812 . S
P160 C180 1.803 . S
P160 C186 1.819 . S
H161 C175 0.941 . S
H162 C176 0.939 . S
H163 C178 0.940 1_545 S
H164 C179 0.940 . S
H165 C181 0.939 . S
H166 C182 0.942 . S
H167 C184 0.940 . S
H168 C185 0.939 . S
H169 C187 0.941 . S
H170 C191 0.939 . S
O171 P160 1.490 . S
H172 C188 0.939 . S
H173 C190 0.940 . S
C174 P160 1.812 . S
C174 C175 1.389 . S
C174 C179 1.391 . S
C175 H161 0.941 . S
C175 C174 1.389 . S
C175 C176 1.397 . S
C176 H162 0.939 . S
C176 C175 1.397 . S
C176 C177 1.378 . S
C177 C176 1.378 . S
C177 C178 1.378 . S
C178 H163 0.940 1_565 S
C178 C177 1.378 . S
C178 C179 1.396 . S
C179 H164 0.940 . S
C179 C174 1.391 . S
C179 C178 1.396 . S
C180 P160 1.803 . S
C180 C181 1.378 . S
C180 C185 1.400 . S
C181 H165 0.939 . S
C181 C180 1.378 . S
C181 C182 1.361 . S
C182 H166 0.942 . S
C182 C181 1.361 . S
C182 C183 1.390 . S
C183 C182 1.390 . S
C183 C184 1.403 . S
C184 H167 0.940 . S
C184 C183 1.403 . S
C184 C185 1.389 . S
C185 H168 0.939 . S
C185 C180 1.400 . S
C185 C184 1.389 . S
C186 P160 1.819 . S
C186 C187 1.391 . S
C186 C191 1.391 . S
C187 H169 0.941 . S
C187 C186 1.391 . S
C187 C188 1.396 . S
C188 H172 0.939 . S
C188 C187 1.396 . S
C188 C189 1.397 . S
C189 C188 1.397 . S
C189 C190 1.385 . S
C190 H173 0.940 . S
C190 C189 1.385 . S
C190 C191 1.388 . S
C191 H170 0.939 . S
C191 C186 1.391 . S
C191 C190 1.388 . S
P192 O203 1.490 . S
P192 C206 1.812 1_455 S
P192 C212 1.803 1_455 S
P192 C218 1.819 . S
H193 C207 0.941 . S
H194 C208 0.948 . S
H195 C210 0.940 . S
H196 C211 0.940 . S
H197 C213 0.939 . S
H198 C214 0.942 1_455 S
H199 C216 0.940 . S
H200 C217 0.939 . S
H201 C219 0.941 . S
H202 C223 0.939 . S
O203 P192 1.490 . S
H204 C220 0.939 . S
H205 C222 0.940 . S
C206 P192 1.812 1_655 S
C206 C207 1.389 1_655 S
C206 C211 1.391 . S
C207 H193 0.941 . S
C207 C206 1.389 1_455 S
C207 C208 1.397 1_455 S
C208 H194 0.948 . S
C208 C207 1.397 1_655 S
C208 C209 1.378 . S
C209 C208 1.378 . S
C209 C210 1.378 . S
C210 H195 0.940 . S
C210 C209 1.378 . S
C210 C211 1.396 . S
C211 H196 0.940 . S
C211 C206 1.391 . S
C211 C210 1.396 . S
C212 P192 1.803 1_655 S
C212 C213 1.378 1_655 S
C212 C217 1.400 . S
C213 H197 0.939 . S
C213 C212 1.378 1_455 S
C213 C214 1.361 1_455 S
C214 H198 0.942 1_655 S
C214 C213 1.361 1_655 S
C214 C215 1.369 . S
C215 C214 1.369 . S
C215 C216 1.404 . S
C216 H199 0.940 . S
C216 C215 1.404 . S
C216 C217 1.389 . S
C217 H200 0.939 . S
C217 C212 1.400 . S
C217 C216 1.389 . S
C218 P192 1.819 . S
C218 C219 1.391 . S
C218 C223 1.391 1_455 S
C219 H201 0.941 . S
C219 C218 1.391 . S
C219 C220 1.396 . S
C220 H204 0.939 . S
C220 C219 1.396 . S
C220 C221 1.397 . S
C221 C220 1.397 . S
C221 C222 1.385 1_455 S
C222 H205 0.940 . S
C222 C221 1.385 1_655 S
C222 C223 1.388 . S
C223 H202 0.939 . S
C223 C218 1.391 1_655 S
C223 C222 1.388 . S
P224 O235 1.490 . S
P224 C238 1.812 . S
P224 C244 1.803 . S
P224 C250 1.819 . S
H225 C239 0.941 . S
H226 C240 0.939 . S
H227 C242 0.940 . S
H228 C243 0.940 . S
H229 C245 0.939 . S
H230 C246 0.942 . S
H231 C248 0.940 . S
H232 C249 0.939 . S
H233 C251 0.941 . S
H234 C255 0.939 . S
O235 P224 1.490 . S
H236 C252 0.939 . S
H237 C254 0.940 . S
C238 P224 1.812 . S
C238 C239 1.389 . S
C238 C243 1.391 . S
C239 H225 0.941 . S
C239 C238 1.389 . S
C239 C240 1.397 . S
C240 H226 0.939 . S
C240 C239 1.397 . S
C240 C241 1.378 . S
C241 C240 1.378 . S
C241 C242 1.378 . S
C242 H227 0.940 . S
C242 C241 1.378 . S
C242 C243 1.396 . S
C243 H228 0.940 . S
C243 C238 1.391 . S
C243 C242 1.396 . S
C244 P224 1.803 . S
C244 C245 1.378 . S
C244 C249 1.400 . S
C245 H229 0.939 . S
C245 C244 1.378 . S
C245 C246 1.361 . S
C246 H230 0.942 . S
C246 C245 1.361 . S
C246 C247 1.369 . S
C247 C246 1.369 . S
C247 C248 1.404 . S
C248 H231 0.940 . S
C248 C247 1.404 . S
C248 C249 1.389 . S
C249 H232 0.939 . S
C249 C244 1.400 . S
C249 C248 1.389 . S
C250 P224 1.819 . S
C250 C251 1.391 . S
C250 C255 1.391 . S
C251 H233 0.941 . S
C251 C250 1.391 . S
C251 C252 1.396 . S
C252 H236 0.939 . S
C252 C251 1.396 . S
C252 C253 1.397 . S
C253 C252 1.397 . S
C253 C254 1.385 . S
C254 H237 0.940 . S
C254 C253 1.385 . S
C254 C255 1.388 . S
C255 H234 0.939 . S
C255 C250 1.391 . S
C255 C254 1.388 . S
P256 O267 1.490 . S
P256 C270 1.812 1_565 S
P256 C276 1.803 1_565 S
P256 C282 1.819 1_565 S
H257 C271 0.941 1_565 S
H258 C272 0.939 . S
H259 C274 0.940 . S
H260 C275 0.940 . S
H261 C277 0.958 . S
H262 C278 0.951 . S
H263 C280 0.940 . S
H264 C281 0.939 . S
H265 C283 0.941 . S
H266 C287 0.939 . S
O267 P256 1.490 . S
H268 C284 0.939 . S
H269 C286 0.940 . S
C270 P256 1.812 1_545 S
C270 C271 1.389 . S
C270 C275 1.391 . S
C271 H257 0.941 1_545 S
C271 C270 1.389 . S
C271 C272 1.397 . S
C272 H258 0.939 . S
C272 C271 1.397 . S
C272 C273 1.378 . S
C273 C272 1.378 . S
C273 C274 1.378 . S
C274 H259 0.940 . S
C274 C273 1.378 . S
C274 C275 1.396 . S
C275 H260 0.940 . S
C275 C270 1.391 . S
C275 C274 1.396 . S
C276 P256 1.803 1_545 S
C276 C277 1.360 1_545 S
C276 C281 1.400 . S
C277 H261 0.958 . S
C277 C276 1.360 1_565 S
C277 C278 1.362 1_565 S
C278 H262 0.951 . S
C278 C277 1.362 1_545 S
C278 C279 1.369 . S
C279 C278 1.369 . S
C279 C280 1.404 . S
C280 H263 0.940 . S
C280 C279 1.404 . S
C280 C281 1.389 . S
C281 H264 0.939 . S
C281 C276 1.400 . S
C281 C280 1.389 . S
C282 P256 1.819 1_545 S
C282 C283 1.391 1_545 S
C282 C287 1.391 . S
C283 H265 0.941 . S
C283 C282 1.391 1_565 S
C283 C284 1.396 . S
C284 H268 0.939 . S
C284 C283 1.396 . S
C284 C285 1.397 1_565 S
C285 C284 1.397 1_545 S
C285 C286 1.385 . S
C286 H269 0.940 . S
C286 C285 1.385 . S
C286 C287 1.388 . S
C287 H266 0.939 . S
C287 C282 1.391 . S
C287 C286 1.388 . S
P288 O299 1.490 . S
P288 C302 1.812 . S
P288 C308 1.803 . S
P288 C314 1.819 . S
H289 C303 0.941 . S
H290 C304 0.939 1_554 S
H291 C306 0.940 . S
H292 C307 0.940 . S
H293 C309 0.939 . S
H294 C310 0.942 . S
H295 C312 0.940 . S
H296 C313 0.939 . S
H297 C315 0.941 . S
H298 C319 0.939 . S
O299 P288 1.490 . S
H300 C316 0.939 . S
H301 C318 0.940 . S
C302 P288 1.812 . S
C302 C303 1.389 . S
C302 C307 1.391 . S
C303 H289 0.941 . S
C303 C302 1.389 . S
C303 C304 1.397 . S
C304 H290 0.939 1_556 S
C304 C303 1.397 . S
C304 C305 1.378 . S
C305 C304 1.378 . S
C305 C306 1.378 . S
C306 H291 0.940 . S
C306 C305 1.378 . S
C306 C307 1.396 . S
C307 H292 0.940 . S
C307 C302 1.391 . S
C307 C306 1.396 . S
C308 P288 1.803 . S
C308 C309 1.378 . S
C308 C313 1.400 . S
C309 H293 0.939 . S
C309 C308 1.378 . S
C309 C310 1.361 . S
C310 H294 0.942 . S
C310 C309 1.361 . S
C310 C311 1.369 . S
C311 C310 1.369 . S
C311 C312 1.404 . S
C312 H295 0.940 . S
C312 C311 1.404 . S
C312 C313 1.389 . S
C313 H296 0.939 . S
C313 C308 1.400 . S
C313 C312 1.389 . S
C314 P288 1.819 . S
C314 C315 1.391 . S
C314 C319 1.391 . S
C315 H297 0.941 . S
C315 C314 1.391 . S
C315 C316 1.396 . S
C316 H300 0.939 . S
C316 C315 1.396 . S
C316 C317 1.397 . S
C317 C316 1.397 . S
C317 C318 1.385 . S
C318 H301 0.940 . S
C318 C317 1.385 . S
C318 C319 1.388 . S
C319 H298 0.939 . S
C319 C314 1.391 . S
C319 C318 1.388 . S
P320 O331 1.490 . S
P320 C334 1.812 . S
P320 C340 1.803 . S
P320 C346 1.819 . S
H321 C335 0.941 . S
H322 C336 0.939 1_554 S
H323 C338 0.940 . S
H324 C339 0.940 . S
H325 C341 0.939 . S
H326 C342 0.942 . S
H327 C344 0.914 1_554 S
H328 C345 0.939 . S
H329 C347 0.941 . S
H330 C351 0.939 . S
O331 P320 1.490 . S
H332 C348 0.939 . S
H333 C350 0.940 . S
C334 P320 1.812 . S
C334 C335 1.389 . S
C334 C339 1.391 . S
C335 H321 0.941 . S
C335 C334 1.389 . S
C335 C336 1.397 . S
C336 H322 0.939 1_556 S
C336 C335 1.397 . S
C336 C337 1.378 . S
C337 C336 1.378 . S
C337 C338 1.378 . S
C338 H323 0.940 . S
C338 C337 1.378 . S
C338 C339 1.396 . S
C339 H324 0.940 . S
C339 C334 1.391 . S
C339 C338 1.396 . S
C340 P320 1.803 . S
C340 C341 1.378 . S
C340 C345 1.400 . S
C341 H325 0.939 . S
C341 C340 1.378 . S
C341 C342 1.361 . S
C342 H326 0.942 . S
C342 C341 1.361 . S
C342 C343 1.369 . S
C343 C342 1.369 . S
C343 C344 1.404 . S
C344 H327 0.914 1_556 S
C344 C343 1.404 . S
C344 C345 1.389 . S
C345 H328 0.939 . S
C345 C340 1.400 . S
C345 C344 1.389 . S
C346 P320 1.819 . S
C346 C347 1.391 . S
C346 C351 1.391 . S
C347 H329 0.941 . S
C347 C346 1.391 . S
C347 C348 1.396 . S
C348 H332 0.939 . S
C348 C347 1.396 . S
C348 C349 1.397 . S
C349 C348 1.397 . S
C349 C350 1.385 . S
C350 H333 0.940 . S
C350 C349 1.385 . S
C350 C351 1.388 . S
C351 H330 0.939 . S
C351 C346 1.391 . S
C351 C350 1.388 . S
P352 O363 1.490 . S
P352 C366 1.812 . S
P352 C372 1.803 . S
P352 C378 1.819 . S
H353 C367 0.934 1_554 S
H354 C368 0.939 . S
H355 C370 0.940 . S
H356 C371 0.940 . S
H357 C373 0.939 . S
H358 C374 0.942 1_565 S
H359 C376 0.940 . S
H360 C377 0.939 . S
H361 C379 0.941 . S
H362 C383 0.939 . S
O363 P352 1.490 . S
H364 C380 0.939 . S
H365 C382 0.940 . S
C366 P352 1.812 . S
C366 C367 1.389 . S
C366 C371 1.391 . S
C367 H353 0.934 1_556 S
C367 C366 1.389 . S
C367 C368 1.397 1_556 S
C368 H354 0.939 . S
C368 C367 1.397 1_554 S
C368 C369 1.378 1_554 S
C369 C368 1.378 1_556 S
C369 C370 1.378 . S
C370 H355 0.940 . S
C370 C369 1.378 . S
C370 C371 1.396 . S
C371 H356 0.940 . S
C371 C366 1.391 . S
C371 C370 1.396 . S
C372 P352 1.803 . S
C372 C373 1.378 . S
C372 C377 1.400 . S
C373 H357 0.939 . S
C373 C372 1.378 . S
C373 C374 1.361 . S
C374 H358 0.942 1_545 S
C374 C373 1.361 . S
C374 C375 1.369 . S
C375 C374 1.369 . S
C375 C376 1.404 . S
C376 H359 0.940 . S
C376 C375 1.404 . S
C376 C377 1.389 . S
C377 H360 0.939 . S
C377 C372 1.400 . S
C377 C376 1.389 . S
C378 P352 1.819 . S
C378 C379 1.391 . S
C378 C383 1.391 . S
C379 H361 0.941 . S
C379 C378 1.391 . S
C379 C380 1.396 . S
C380 H364 0.939 . S
C380 C379 1.396 . S
C380 C381 1.397 . S
C381 C380 1.397 . S
C381 C382 1.385 . S
C382 H365 0.940 . S
C382 C381 1.385 . S
C382 C383 1.388 . S
C383 H362 0.939 . S
C383 C378 1.391 . S
C383 C382 1.388 . S
P384 O395 1.490 . S
P384 C398 1.812 . S
P384 C404 1.803 . S
P384 C410 1.819 . S
H385 C399 0.941 . S
H386 C400 0.939 . S
H387 C402 0.940 . S
H388 C403 0.940 . S
H389 C405 0.939 . S
H390 C406 0.942 1_545 S
H391 C408 0.940 . S
H392 C409 0.939 . S
H393 C411 0.941 . S
H394 C415 0.939 . S
O395 P384 1.490 . S
H396 C412 0.939 . S
H397 C414 0.940 . S
C398 P384 1.812 . S
C398 C399 1.389 . S
C398 C403 1.391 . S
C399 H385 0.941 . S
C399 C398 1.389 . S
C399 C400 1.397 1_554 S
C400 H386 0.939 . S
C400 C399 1.397 1_556 S
C400 C401 1.378 1_556 S
C401 C400 1.378 1_554 S
C401 C402 1.378 . S
C402 H387 0.940 . S
C402 C401 1.378 . S
C402 C403 1.396 . S
C403 H388 0.940 . S
C403 C398 1.391 . S
C403 C402 1.396 . S
C404 P384 1.803 . S
C404 C405 1.378 . S
C404 C409 1.400 . S
C405 H389 0.939 . S
C405 C404 1.378 . S
C405 C406 1.361 . S
C406 H390 0.942 1_565 S
C406 C405 1.361 . S
C406 C407 1.369 . S
C407 C406 1.369 . S
C407 C408 1.404 . S
C408 H391 0.940 . S
C408 C407 1.404 . S
C408 C409 1.389 . S
C409 H392 0.939 . S
C409 C404 1.400 . S
C409 C408 1.389 . S
C410 P384 1.819 . S
C410 C411 1.391 . S
C410 C415 1.391 . S
C411 H393 0.941 . S
C411 C410 1.391 . S
C411 C412 1.396 . S
C412 H396 0.939 . S
C412 C411 1.396 . S
C412 C413 1.397 . S
C413 C412 1.397 . S
C413 C414 1.385 . S
C414 H397 0.940 . S
C414 C413 1.385 . S
C414 C415 1.388 . S
C415 H394 0.939 . S
C415 C410 1.391 . S
C415 C414 1.388 . S
P416 O427 1.490 . S
P416 C430 1.812 . S
P416 C436 1.803 . S
P416 C442 1.819 . S
H417 C431 0.941 . S
H418 C432 0.939 . S
H419 C434 0.940 . S
H420 C435 0.940 . S
H421 C437 0.939 . S
H422 C438 0.942 . S
H423 C440 0.940 . S
H424 C441 0.939 . S
H425 C443 0.941 . S
H426 C447 0.939 . S
O427 P416 1.490 . S
H428 C444 0.939 . S
H429 C446 0.940 . S
C430 P416 1.812 . S
C430 C431 1.389 . S
C430 C435 1.391 . S
C431 H417 0.941 . S
C431 C430 1.389 . S
C431 C432 1.397 . S
C432 H418 0.939 . S
C432 C431 1.397 . S
C432 C433 1.378 . S
C433 C432 1.378 . S
C433 C434 1.378 . S
C434 H419 0.940 . S
C434 C433 1.378 . S
C434 C435 1.396 . S
C435 H420 0.940 . S
C435 C430 1.391 . S
C435 C434 1.396 . S
C436 P416 1.803 . S
C436 C437 1.378 . S
C436 C441 1.400 . S
C437 H421 0.939 . S
C437 C436 1.378 . S
C437 C438 1.361 . S
C438 H422 0.942 . S
C438 C437 1.361 . S
C438 C439 1.369 . S
C439 C438 1.369 . S
C439 C440 1.404 . S
C440 H423 0.940 . S
C440 C439 1.404 . S
C440 C441 1.389 . S
C441 H424 0.939 . S
C441 C436 1.400 . S
C441 C440 1.389 . S
C442 P416 1.819 . S
C442 C443 1.391 . S
C442 C447 1.391 . S
C443 H425 0.941 . S
C443 C442 1.391 . S
C443 C444 1.396 . S
C444 H428 0.939 . S
C444 C443 1.396 . S
C444 C445 1.397 . S
C445 C444 1.397 . S
C445 C446 1.385 . S
C446 H429 0.940 . S
C446 C445 1.385 . S
C446 C447 1.388 . S
C447 H426 0.939 . S
C447 C442 1.391 . S
C447 C446 1.388 . S
P448 O459 1.490 . S
P448 C462 1.812 . S
P448 C468 1.803 . S
P448 C474 1.819 . S
H449 C463 0.941 . S
H450 C464 0.939 1_556 S
H451 C466 0.940 . S
H452 C467 0.940 . S
H453 C469 0.939 . S
H454 C470 0.942 . S
H455 C472 0.940 . S
H456 C473 0.939 . S
H457 C475 0.941 . S
H458 C479 0.939 . S
O459 P448 1.490 . S
H460 C476 0.939 . S
H461 C478 0.940 . S
C462 P448 1.812 . S
C462 C463 1.389 . S
C462 C467 1.391 . S
C463 H449 0.941 . S
C463 C462 1.389 . S
C463 C464 1.397 . S
C464 H450 0.939 1_554 S
C464 C463 1.397 . S
C464 C465 1.378 . S
C465 C464 1.378 . S
C465 C466 1.378 . S
C466 H451 0.940 . S
C466 C465 1.378 . S
C466 C467 1.396 . S
C467 H452 0.940 . S
C467 C462 1.391 . S
C467 C466 1.396 . S
C468 P448 1.803 . S
C468 C469 1.378 . S
C468 C473 1.400 . S
C469 H453 0.939 . S
C469 C468 1.378 . S
C469 C470 1.361 . S
C470 H454 0.942 . S
C470 C469 1.361 . S
C470 C471 1.369 . S
C471 C470 1.369 . S
C471 C472 1.404 . S
C472 H455 0.940 . S
C472 C471 1.404 . S
C472 C473 1.389 . S
C473 H456 0.939 . S
C473 C468 1.400 . S
C473 C472 1.389 . S
C474 P448 1.819 . S
C474 C475 1.391 . S
C474 C479 1.391 . S
C475 H457 0.941 . S
C475 C474 1.391 . S
C475 C476 1.396 . S
C476 H460 0.939 . S
C476 C475 1.396 . S
C476 C477 1.397 . S
C477 C476 1.397 . S
C477 C478 1.385 . S
C478 H461 0.940 . S
C478 C477 1.385 . S
C478 C479 1.388 . S
C479 H458 0.939 . S
C479 C474 1.391 . S
C479 C478 1.388 . S
P480 O491 1.490 . S
P480 C494 1.812 1_545 S
P480 C500 1.803 1_545 S
P480 C506 1.819 1_545 S
H481 C495 0.941 1_545 S
H482 C496 0.939 . S
H483 C498 0.940 . S
H484 C499 0.940 . S
H485 C501 0.934 1_545 S
H486 C502 0.942 . S
H487 C504 0.940 . S
H488 C505 0.939 . S
H489 C507 0.941 . S
H490 C511 0.939 . S
O491 P480 1.490 . S
H492 C508 0.939 . S
H493 C510 0.940 . S
C494 P480 1.812 1_565 S
C494 C495 1.389 . S
C494 C499 1.391 . S
C495 H481 0.941 1_565 S
C495 C494 1.389 . S
C495 C496 1.397 . S
C496 H482 0.939 . S
C496 C495 1.397 . S
C496 C497 1.378 . S
C497 C496 1.378 . S
C497 C498 1.378 . S
C498 H483 0.940 . S
C498 C497 1.378 . S
C498 C499 1.396 . S
C499 H484 0.940 . S
C499 C494 1.391 . S
C499 C498 1.396 . S
C500 P480 1.803 1_565 S
C500 C501 1.378 . S
C500 C505 1.400 . S
C501 H485 0.934 1_565 S
C501 C500 1.378 . S
C501 C502 1.365 . S
C502 H486 0.942 . S
C502 C501 1.365 . S
C502 C503 1.369 . S
C503 C502 1.369 . S
C503 C504 1.404 . S
C504 H487 0.940 . S
C504 C503 1.404 . S
C504 C505 1.389 . S
C505 H488 0.939 . S
C505 C500 1.400 . S
C505 C504 1.389 . S
C506 P480 1.819 1_565 S
C506 C507 1.391 1_565 S
C506 C511 1.391 . S
C507 H489 0.941 . S
C507 C506 1.391 1_545 S
C507 C508 1.396 . S
C508 H492 0.939 . S
C508 C507 1.396 . S
C508 C509 1.397 1_545 S
C509 C508 1.397 1_565 S
C509 C510 1.385 . S
C510 H493 0.940 . S
C510 C509 1.385 . S
C510 C511 1.388 . S
C511 H490 0.939 . S
C511 C506 1.391 . S
C511 C510 1.388 . S
P512 O523 1.490 . S
P512 C526 1.812 . S
P512 C532 1.803 . S
P512 C538 1.819 . S
H513 C527 0.941 . S
H514 C528 0.939 . S
H515 C530 0.940 . S
H516 C531 0.940 . S
H517 C533 0.939 . S
H518 C534 0.942 . S
H519 C536 0.940 . S
H520 C537 0.939 . S
H521 C539 0.941 . S
H522 C543 0.939 . S
O523 P512 1.490 . S
H524 C540 0.939 . S
H525 C542 0.940 1_655 S
C526 P512 1.812 . S
C526 C527 1.389 . S
C526 C531 1.391 . S
C527 H513 0.941 . S
C527 C526 1.389 . S
C527 C528 1.397 . S
C528 H514 0.939 . S
C528 C527 1.397 . S
C528 C529 1.378 . S
C529 C528 1.378 . S
C529 C530 1.378 . S
C530 H515 0.940 . S
C530 C529 1.378 . S
C530 C531 1.396 . S
C531 H516 0.940 . S
C531 C526 1.391 . S
C531 C530 1.396 . S
C532 P512 1.803 . S
C532 C533 1.378 . S
C532 C537 1.400 . S
C533 H517 0.939 . S
C533 C532 1.378 . S
C533 C534 1.361 . S
C534 H518 0.942 . S
C534 C533 1.361 . S
C534 C535 1.369 . S
C535 C534 1.369 . S
C535 C536 1.404 . S
C536 H519 0.940 . S
C536 C535 1.404 . S
C536 C537 1.389 . S
C537 H520 0.939 . S
C537 C532 1.400 . S
C537 C536 1.389 . S
C538 P512 1.819 . S
C538 C539 1.391 . S
C538 C543 1.391 . S
C539 H521 0.941 . S
C539 C538 1.391 . S
C539 C540 1.396 . S
C540 H524 0.939 . S
C540 C539 1.396 . S
C540 C541 1.397 . S
C541 C540 1.397 . S
C541 C542 1.385 . S
C542 H525 0.940 1_455 S
C542 C541 1.385 . S
C542 C543 1.388 . S
C543 H522 0.939 . S
C543 C538 1.391 . S
C543 C542 1.388 . S
P544 O555 1.490 . S
P544 C558 1.812 . S
P544 C564 1.803 . S
P544 C570 1.819 . S
H545 C559 0.941 . S
H546 C560 0.939 . S
H547 C562 0.940 . S
H548 C563 0.940 . S
H549 C565 0.939 . S
H550 C566 0.942 . S
H551 C568 0.940 . S
H552 C569 0.939 . S
H553 C571 0.941 . S
H554 C575 0.939 . S
O555 P544 1.490 . S
H556 C572 0.939 . S
H557 C574 0.940 . S
C558 P544 1.812 . S
C558 C559 1.389 . S
C558 C563 1.391 . S
C559 H545 0.941 . S
C559 C558 1.389 . S
C559 C560 1.397 . S
C560 H546 0.939 . S
C560 C559 1.397 . S
C560 C561 1.378 . S
C561 C560 1.378 . S
C561 C562 1.378 . S
C562 H547 0.940 . S
C562 C561 1.378 . S
C562 C563 1.396 . S
C563 H548 0.940 . S
C563 C558 1.391 . S
C563 C562 1.396 . S
C564 P544 1.803 . S
C564 C565 1.378 . S
C564 C569 1.400 . S
C565 H549 0.939 . S
C565 C564 1.378 . S
C565 C566 1.361 . S
C566 H550 0.942 . S
C566 C565 1.361 . S
C566 C567 1.369 . S
C567 C566 1.369 . S
C567 C568 1.404 . S
C568 H551 0.940 . S
C568 C567 1.404 . S
C568 C569 1.389 . S
C569 H552 0.939 . S
C569 C564 1.400 . S
C569 C568 1.389 . S
C570 P544 1.819 . S
C570 C571 1.391 . S
C570 C575 1.391 . S
C571 H553 0.941 . S
C571 C570 1.391 . S
C571 C572 1.396 . S
C572 H556 0.939 . S
C572 C571 1.396 . S
C572 C573 1.397 . S
C573 C572 1.397 . S
C573 C574 1.385 . S
C574 H557 0.940 . S
C574 C573 1.385 . S
C574 C575 1.388 . S
C575 H554 0.939 . S
C575 C570 1.391 . S
C575 C574 1.388 . S
C576 Eu577 2.835 . S
C576 C578 1.500 . S
C576 O596 1.257 1_545 S
C576 O597 1.260 . S
Eu577 C576 2.835 . S
Eu577 O596 2.473 1_545 S
Eu577 O597 2.480 . S
Eu577 O598 2.430 . S
Eu577 O599 2.670 1_554 S
Eu577 O600 2.394 1_545 S
Eu577 O605 2.355 1_545 S
Eu577 O607 2.374 . S
C578 C576 1.500 . S
C578 C579 1.377 . S
C578 C583 1.377 1_545 S
C579 C578 1.377 . S
C579 C580 1.395 . S
C579 H608 0.931 . S
C580 C579 1.395 . S
C580 C581 1.383 1_545 S
C580 H609 0.931 . S
C581 C580 1.383 1_565 S
C581 C582 1.394 . S
C582 C581 1.394 . S
C582 C583 1.378 . S
C582 H610 0.931 . S
C583 C578 1.377 1_565 S
C583 C582 1.378 . S
C583 H611 0.931 . S
C584 O598 1.259 1_556 S
C584 O599 1.270 . S
C585 O600 1.251 . S
C585 O601 1.251 1_554 S
C586 Eu587 2.835 . S
C586 C588 1.500 . S
C586 O602 1.257 1_565 S
C586 O603 1.260 . S
Eu587 C586 2.835 . S
Eu587 O599 2.355 1_565 S
Eu587 O601 2.374 . S
Eu587 O602 2.473 1_565 S
Eu587 O603 2.480 . S
Eu587 O604 2.430 . S
Eu587 O605 2.670 1_556 S
Eu587 O606 2.394 1_565 S
C588 C586 1.500 . S
C588 C589 1.377 . S
C588 C593 1.377 1_565 S
C589 C588 1.377 . S
C589 C590 1.395 . S
C589 H612 0.931 . S
C590 C589 1.395 . S
C590 C591 1.383 1_565 S
C590 H613 0.931 . S
C591 C590 1.383 1_545 S
C591 C592 1.394 . S
C592 C591 1.394 . S
C592 C593 1.378 . S
C592 H614 0.931 . S
C593 C588 1.377 1_545 S
C593 C592 1.378 . S
C593 H615 0.931 . S
C594 O604 1.259 1_554 S
C594 O605 1.270 . S
C595 O606 1.251 . S
C595 O607 1.251 1_556 S
O596 C576 1.257 1_565 S
O596 Eu577 2.473 1_565 S
O597 C576 1.260 . S
O597 Eu577 2.480 . S
O598 Eu577 2.430 . S
O598 C584 1.259 1_554 S
O599 Eu577 2.670 1_556 S
O599 C584 1.270 . S
O599 Eu587 2.355 1_545 S
O600 Eu577 2.394 1_565 S
O600 C585 1.251 . S
O601 C585 1.251 1_556 S
O601 Eu587 2.374 . S
O602 C586 1.257 1_545 S
O602 Eu587 2.473 1_545 S
O603 C586 1.260 . S
O603 Eu587 2.480 . S
O604 Eu587 2.430 . S
O604 C594 1.259 1_556 S
O605 Eu577 2.355 1_565 S
O605 Eu587 2.670 1_554 S
O605 C594 1.270 . S
O606 Eu587 2.394 1_545 S
O606 C595 1.251 . S
O607 Eu577 2.374 . S
O607 C595 1.251 1_554 S
H608 C579 0.931 . S
H609 C580 0.931 . S
H610 C582 0.931 . S
H611 C583 0.931 . S
H612 C589 0.931 . S
H613 C590 0.931 . S
H614 C592 0.931 . S
H615 C593 0.931 . S
C616 Eu617 2.835 . S
C616 C618 1.500 1_655 S
C616 O636 1.257 1_655 S
C616 O637 1.260 . S
Eu617 C616 2.835 . S
Eu617 O636 2.473 1_655 S
Eu617 O637 2.480 . S
Eu617 O638 2.430 . S
Eu617 O639 2.670 1_554 S
Eu617 O640 2.394 1_655 S
Eu617 O645 2.355 1_655 S
Eu617 O647 2.374 . S
C618 C616 1.500 1_455 S
C618 C619 1.377 1_455 S
C618 C623 1.377 . S
C619 C618 1.377 1_655 S
C619 C620 1.395 . S
C619 H648 0.931 . S
C620 C619 1.395 . S
C620 C621 1.383 1_655 S
C620 H649 0.931 . S
C621 C620 1.383 1_455 S
C621 C622 1.394 . S
C622 C621 1.394 . S
C622 C623 1.378 . S
C622 H650 0.931 . S
C623 C618 1.377 . S
C623 C622 1.378 . S
C623 H651 0.931 . S
C624 O638 1.259 1_556 S
C624 O639 1.270 . S
C625 O640 1.251 . S
C625 O641 1.251 . S
C626 Eu627 2.835 . S
C626 C628 1.500 1_455 S
C626 O642 1.257 1_455 S
C626 O643 1.260 . S
Eu627 C626 2.835 . S
Eu627 O639 2.355 1_455 S
Eu627 O641 2.374 1_556 S
Eu627 O642 2.473 1_455 S
Eu627 O643 2.480 . S
Eu627 O644 2.430 . S
Eu627 O645 2.670 1_556 S
Eu627 O646 2.394 1_455 S
C628 C626 1.500 1_655 S
C628 C629 1.377 1_655 S
C628 C633 1.377 . S
C629 C628 1.377 1_455 S
C629 C630 1.395 . S
C629 H652 0.931 . S
C630 C629 1.395 . S
C630 C631 1.383 1_455 S
C630 H653 0.931 . S
C631 C630 1.383 1_655 S
C631 C632 1.394 . S
C632 C631 1.394 . S
C632 C633 1.378 . S
C632 H654 0.931 . S
C633 C628 1.377 . S
C633 C632 1.378 . S
C633 H655 0.931 . S
C634 O644 1.259 1_554 S
C634 O645 1.270 . S
C635 O646 1.251 . S
C635 O647 1.251 1_556 S
O636 C616 1.257 1_455 S
O636 Eu617 2.473 1_455 S
O637 C616 1.260 . S
O637 Eu617 2.480 . S
O638 Eu617 2.430 . S
O638 C624 1.259 1_554 S
O639 Eu617 2.670 1_556 S
O639 C624 1.270 . S
O639 Eu627 2.355 1_655 S
O640 Eu617 2.394 1_455 S
O640 C625 1.251 . S
O641 C625 1.251 . S
O641 Eu627 2.374 1_554 S
O642 C626 1.257 1_655 S
O642 Eu627 2.473 1_655 S
O643 C626 1.260 . S
O643 Eu627 2.480 . S
O644 Eu627 2.430 . S
O644 C634 1.259 1_556 S
O645 Eu617 2.355 1_455 S
O645 Eu627 2.670 1_554 S
O645 C634 1.270 . S
O646 Eu627 2.394 1_655 S
O646 C635 1.251 . S
O647 Eu617 2.374 . S
O647 C635 1.251 1_554 S
H648 C619 0.931 . S
H649 C620 0.931 . S
H650 C622 0.931 . S
H651 C623 0.931 . S
H652 C629 0.931 . S
H653 C630 0.931 . S
H654 C632 0.931 . S
H655 C633 0.931 . S
C656 Eu657 2.835 . S
C656 C658 1.500 . S
C656 O676 1.257 . S
C656 O677 1.260 . S
Eu657 C656 2.835 . S
Eu657 O676 2.473 . S
Eu657 O677 2.480 . S
Eu657 O678 2.430 . S
Eu657 O679 2.670 1_556 S
Eu657 O680 2.394 . S
Eu657 O685 2.355 . S
Eu657 O687 2.374 . S
C658 C656 1.500 . S
C658 C659 1.377 . S
C658 C663 1.377 . S
C659 C658 1.377 . S
C659 C660 1.395 . S
C659 H688 0.931 . S
C660 C659 1.395 . S
C660 C661 1.383 . S
C660 H689 0.931 . S
C661 C660 1.383 . S
C661 C662 1.394 . S
C662 C661 1.394 . S
C662 C663 1.378 . S
C662 H690 0.931 . S
C663 C658 1.377 . S
C663 C662 1.378 . S
C663 H691 0.931 . S
C664 O678 1.259 1_554 S
C664 O679 1.270 . S
C665 O680 1.251 . S
C665 O681 1.251 1_556 S
C666 Eu667 2.835 . S
C666 C668 1.500 . S
C666 O682 1.257 . S
C666 O683 1.260 . S
Eu667 C666 2.835 . S
Eu667 O679 2.355 . S
Eu667 O681 2.374 . S
Eu667 O682 2.473 . S
Eu667 O683 2.480 . S
Eu667 O684 2.430 . S
Eu667 O685 2.670 1_554 S
Eu667 O686 2.394 . S
C668 C666 1.500 . S
C668 C669 1.377 . S
C668 C673 1.377 . S
C669 C668 1.377 . S
C669 C670 1.395 . S
C669 H692 0.931 . S
C670 C669 1.395 . S
C670 C671 1.383 . S
C670 H693 0.931 . S
C671 C670 1.383 . S
C671 C672 1.394 . S
C672 C671 1.394 . S
C672 C673 1.378 . S
C672 H694 0.931 . S
C673 C668 1.377 . S
C673 C672 1.378 . S
C673 H695 0.931 . S
C674 O684 1.259 1_556 S
C674 O685 1.270 . S
C675 O686 1.251 . S
C675 O687 1.251 1_554 S
O676 C656 1.257 . S
O676 Eu657 2.473 . S
O677 C656 1.260 . S
O677 Eu657 2.480 . S
O678 Eu657 2.430 . S
O678 C664 1.259 1_556 S
O679 Eu657 2.670 1_554 S
O679 C664 1.270 . S
O679 Eu667 2.355 . S
O680 Eu657 2.394 . S
O680 C665 1.251 . S
O681 C665 1.251 1_554 S
O681 Eu667 2.374 . S
O682 C666 1.257 . S
O682 Eu667 2.473 . S
O683 C666 1.260 . S
O683 Eu667 2.480 . S
O684 Eu667 2.430 . S
O684 C674 1.259 1_554 S
O685 Eu657 2.355 . S
O685 Eu667 2.670 1_556 S
O685 C674 1.270 . S
O686 Eu667 2.394 . S
O686 C675 1.251 . S
O687 Eu657 2.374 . S
O687 C675 1.251 1_556 S
H688 C659 0.931 . S
H689 C660 0.931 . S
H690 C662 0.931 . S
H691 C663 0.931 . S
H692 C669 0.931 . S
H693 C670 0.931 . S
H694 C672 0.931 . S
H695 C673 0.931 . S
C696 Eu697 2.835 . S
C696 C698 1.500 . S
C696 O716 1.257 . S
C696 O717 1.260 . S
Eu697 C696 2.835 . S
Eu697 O716 2.473 . S
Eu697 O717 2.480 . S
Eu697 O718 2.430 . S
Eu697 O719 2.670 . S
Eu697 O720 2.394 . S
Eu697 O725 2.355 . S
Eu697 O727 2.374 . S
C698 C696 1.500 . S
C698 C699 1.377 . S
C698 C703 1.377 . S
C699 C698 1.377 . S
C699 C700 1.395 . S
C699 H728 0.931 . S
C700 C699 1.395 . S
C700 C701 1.383 . S
C700 H729 0.931 . S
C701 C700 1.383 . S
C701 C702 1.394 . S
C702 C701 1.394 . S
C702 C703 1.378 . S
C702 H730 0.931 . S
C703 C698 1.377 . S
C703 C702 1.378 . S
C703 H731 0.931 . S
C704 O718 1.259 . S
C704 O719 1.270 . S
C705 O720 1.251 . S
C705 O721 1.251 . S
C706 Eu707 2.835 . S
C706 C708 1.500 . S
C706 O722 1.257 . S
C706 O723 1.260 . S
Eu707 C706 2.835 . S
Eu707 O719 2.355 . S
Eu707 O721 2.374 . S
Eu707 O722 2.473 . S
Eu707 O723 2.480 . S
Eu707 O724 2.430 . S
Eu707 O725 2.670 . S
Eu707 O726 2.394 . S
C708 C706 1.500 . S
C708 C709 1.377 . S
C708 C713 1.377 . S
C709 C708 1.377 . S
C709 C710 1.395 . S
C709 H732 0.931 . S
C710 C709 1.395 . S
C710 C711 1.383 . S
C710 H733 0.931 . S
C711 C710 1.383 . S
C711 C712 1.394 . S
C712 C711 1.394 . S
C712 C713 1.378 . S
C712 H734 0.931 . S
C713 C708 1.377 . S
C713 C712 1.378 . S
C713 H735 0.931 . S
C714 O724 1.259 . S
C714 O725 1.270 . S
C715 O726 1.251 . S
C715 O727 1.251 . S
O716 C696 1.257 . S
O716 Eu697 2.473 . S
O717 C696 1.260 . S
O717 Eu697 2.480 . S
O718 Eu697 2.430 . S
O718 C704 1.259 . S
O719 Eu697 2.670 . S
O719 C704 1.270 . S
O719 Eu707 2.355 . S
O720 Eu697 2.394 . S
O720 C705 1.251 . S
O721 C705 1.251 . S
O721 Eu707 2.374 . S
O722 C706 1.257 . S
O722 Eu707 2.473 . S
O723 C706 1.260 . S
O723 Eu707 2.480 . S
O724 Eu707 2.430 . S
O724 C714 1.259 . S
O725 Eu697 2.355 . S
O725 Eu707 2.670 . S
O725 C714 1.270 . S
O726 Eu707 2.394 . S
O726 C715 1.251 . S
O727 Eu697 2.374 . S
O727 C715 1.251 . S
H728 C699 0.931 . S
H729 C700 0.931 . S
H730 C702 0.931 . S
H731 C703 0.931 . S
H732 C709 0.931 . S
H733 C710 0.931 . S
H734 C712 0.931 . S
H735 C713 0.931 . S
C736 Eu737 2.835 . S
C736 C738 1.500 . S
C736 O756 1.257 . S
C736 O757 1.260 . S
Eu737 C736 2.835 . S
Eu737 O756 2.473 . S
Eu737 O757 2.480 . S
Eu737 O758 2.430 . S
Eu737 O759 2.670 . S
Eu737 O760 2.394 . S
Eu737 O765 2.355 . S
Eu737 O767 2.374 . S
C738 C736 1.500 . S
C738 C739 1.377 . S
C738 C743 1.377 . S
C739 C738 1.377 . S
C739 C740 1.395 . S
C739 H768 0.931 . S
C740 C739 1.395 . S
C740 C741 1.383 . S
C740 H769 0.931 . S
C741 C740 1.383 . S
C741 C742 1.394 . S
C742 C741 1.394 . S
C742 C743 1.378 . S
C742 H770 0.931 . S
C743 C738 1.377 . S
C743 C742 1.378 . S
C743 H771 0.931 . S
C744 O758 1.259 . S
C744 O759 1.270 . S
C745 O760 1.251 . S
C745 O761 1.251 . S
C746 Eu747 2.835 . S
C746 C748 1.500 . S
C746 O762 1.257 . S
C746 O763 1.260 . S
Eu747 C746 2.835 . S
Eu747 O759 2.355 . S
Eu747 O761 2.374 . S
Eu747 O762 2.473 . S
Eu747 O763 2.480 . S
Eu747 O764 2.430 . S
Eu747 O765 2.670 . S
Eu747 O766 2.394 . S
C748 C746 1.500 . S
C748 C749 1.377 . S
C748 C753 1.377 . S
C749 C748 1.377 . S
C749 C750 1.395 . S
C749 H772 0.931 . S
C750 C749 1.395 . S
C750 C751 1.383 . S
C750 H773 0.931 . S
C751 C750 1.383 . S
C751 C752 1.394 . S
C752 C751 1.394 . S
C752 C753 1.378 . S
C752 H774 0.931 . S
C753 C748 1.377 . S
C753 C752 1.378 . S
C753 H775 0.931 . S
C754 O764 1.259 . S
C754 O765 1.270 . S
C755 O766 1.251 . S
C755 O767 1.251 . S
O756 C736 1.257 . S
O756 Eu737 2.473 . S
O757 C736 1.260 . S
O757 Eu737 2.480 . S
O758 Eu737 2.430 . S
O758 C744 1.259 . S
O759 Eu737 2.670 . S
O759 C744 1.270 . S
O759 Eu747 2.355 . S
O760 Eu737 2.394 . S
O760 C745 1.251 . S
O761 C745 1.251 . S
O761 Eu747 2.374 . S
O762 C746 1.257 . S
O762 Eu747 2.473 . S
O763 C746 1.260 . S
O763 Eu747 2.480 . S
O764 Eu747 2.430 . S
O764 C754 1.259 . S
O765 Eu737 2.355 . S
O765 Eu747 2.670 . S
O765 C754 1.270 . S
O766 Eu747 2.394 . S
O766 C755 1.251 . S
O767 Eu737 2.374 . S
O767 C755 1.251 . S
H768 C739 0.931 . S
H769 C740 0.931 . S
H770 C742 0.931 . S
H771 C743 0.931 . S
H772 C749 0.931 . S
H773 C750 0.931 . S
H774 C752 0.931 . S
H775 C753 0.931 . S
C776 Eu777 2.835 . S
C776 C778 1.500 . S
C776 O796 1.257 . S
C776 O797 1.260 . S
Eu777 C776 2.835 . S
Eu777 O796 2.473 . S
Eu777 O797 2.480 . S
Eu777 O798 2.430 . S
Eu777 O799 2.670 . S
Eu777 O800 2.394 . S
Eu777 O805 2.355 . S
Eu777 O807 2.374 . S
C778 C776 1.500 . S
C778 C779 1.377 . S
C778 C783 1.377 . S
C779 C778 1.377 . S
C779 C780 1.395 . S
C779 H808 0.931 . S
C780 C779 1.395 . S
C780 C781 1.383 . S
C780 H809 0.931 . S
C781 C780 1.383 . S
C781 C782 1.394 . S
C782 C781 1.394 . S
C782 C783 1.378 . S
C782 H810 0.931 . S
C783 C778 1.377 . S
C783 C782 1.378 . S
C783 H811 0.931 . S
C784 O798 1.259 . S
C784 O799 1.270 . S
C785 O800 1.251 . S
C785 O801 1.251 . S
C786 Eu787 2.835 . S
C786 C788 1.500 . S
C786 O802 1.257 . S
C786 O803 1.260 . S
Eu787 C786 2.835 . S
Eu787 O799 2.355 . S
Eu787 O801 2.374 . S
Eu787 O802 2.473 . S
Eu787 O803 2.480 . S
Eu787 O804 2.430 . S
Eu787 O805 2.670 . S
Eu787 O806 2.394 . S
C788 C786 1.500 . S
C788 C789 1.377 . S
C788 C793 1.377 . S
C789 C788 1.377 . S
C789 C790 1.395 . S
C789 H812 0.931 . S
C790 C789 1.395 . S
C790 C791 1.383 . S
C790 H813 0.931 . S
C791 C790 1.383 . S
C791 C792 1.394 . S
C792 C791 1.394 . S
C792 C793 1.378 . S
C792 H814 0.931 . S
C793 C788 1.377 . S
C793 C792 1.378 . S
C793 H815 0.931 . S
C794 O804 1.259 . S
C794 O805 1.270 . S
C795 O806 1.251 . S
C795 O807 1.251 . S
O796 C776 1.257 . S
O796 Eu777 2.473 . S
O797 C776 1.260 . S
O797 Eu777 2.480 . S
O798 Eu777 2.430 . S
O798 C784 1.259 . S
O799 Eu777 2.670 . S
O799 C784 1.270 . S
O799 Eu787 2.355 . S
O800 Eu777 2.394 . S
O800 C785 1.251 . S
O801 C785 1.251 . S
O801 Eu787 2.374 . S
O802 C786 1.257 . S
O802 Eu787 2.473 . S
O803 C786 1.260 . S
O803 Eu787 2.480 . S
O804 Eu787 2.430 . S
O804 C794 1.259 . S
O805 Eu777 2.355 . S
O805 Eu787 2.670 . S
O805 C794 1.270 . S
O806 Eu787 2.394 . S
O806 C795 1.251 . S
O807 Eu777 2.374 . S
O807 C795 1.251 . S
H808 C779 0.931 . S
H809 C780 0.931 . S
H810 C782 0.931 . S
H811 C783 0.931 . S
H812 C789 0.931 . S
H813 C790 0.931 . S
H814 C792 0.931 . S
H815 C793 0.931 . S
C816 Eu817 2.835 . S
C816 C818 1.500 . S
C816 O836 1.257 . S
C816 O837 1.260 . S
Eu817 C816 2.835 . S
Eu817 O836 2.473 . S
Eu817 O837 2.480 . S
Eu817 O838 2.430 . S
Eu817 O839 2.670 . S
Eu817 O840 2.394 . S
Eu817 O845 2.355 . S
Eu817 O847 2.374 . S
C818 C816 1.500 . S
C818 C819 1.377 . S
C818 C823 1.377 . S
C819 C818 1.377 . S
C819 C820 1.395 . S
C819 H848 0.931 . S
C820 C819 1.395 . S
C820 C821 1.383 . S
C820 H849 0.931 . S
C821 C820 1.383 . S
C821 C822 1.394 . S
C822 C821 1.394 . S
C822 C823 1.378 . S
C822 H850 0.931 . S
C823 C818 1.377 . S
C823 C822 1.378 . S
C823 H851 0.931 . S
C824 O838 1.259 . S
C824 O839 1.270 . S
C825 O840 1.251 . S
C825 O841 1.251 . S
C826 Eu827 2.835 . S
C826 C828 1.500 . S
C826 O842 1.257 . S
C826 O843 1.260 . S
Eu827 C826 2.835 . S
Eu827 O839 2.355 . S
Eu827 O841 2.374 . S
Eu827 O842 2.473 . S
Eu827 O843 2.480 . S
Eu827 O844 2.430 . S
Eu827 O845 2.670 . S
Eu827 O846 2.394 . S
C828 C826 1.500 . S
C828 C829 1.377 . S
C828 C833 1.377 . S
C829 C828 1.377 . S
C829 C830 1.395 . S
C829 H852 0.931 . S
C830 C829 1.395 . S
C830 C831 1.383 . S
C830 H853 0.931 . S
C831 C830 1.383 . S
C831 C832 1.394 . S
C832 C831 1.394 . S
C832 C833 1.378 . S
C832 H854 0.931 . S
C833 C828 1.377 . S
C833 C832 1.378 . S
C833 H855 0.931 . S
C834 O844 1.259 . S
C834 O845 1.270 . S
C835 O846 1.251 . S
C835 O847 1.251 . S
O836 C816 1.257 . S
O836 Eu817 2.473 . S
O837 C816 1.260 . S
O837 Eu817 2.480 . S
O838 Eu817 2.430 . S
O838 C824 1.259 . S
O839 Eu817 2.670 . S
O839 C824 1.270 . S
O839 Eu827 2.355 . S
O840 Eu817 2.394 . S
O840 C825 1.251 . S
O841 C825 1.251 . S
O841 Eu827 2.374 . S
O842 C826 1.257 . S
O842 Eu827 2.473 . S
O843 C826 1.260 . S
O843 Eu827 2.480 . S
O844 Eu827 2.430 . S
O844 C834 1.259 . S
O845 Eu817 2.355 . S
O845 Eu827 2.670 . S
O845 C834 1.270 . S
O846 Eu827 2.394 . S
O846 C835 1.251 . S
O847 Eu817 2.374 . S
O847 C835 1.251 . S
H848 C819 0.931 . S
H849 C820 0.931 . S
H850 C822 0.931 . S
H851 C823 0.931 . S
H852 C829 0.931 . S
H853 C830 0.931 . S
H854 C832 0.931 . S
H855 C833 0.931 . S
C856 Eu857 2.835 . S
C856 C858 1.500 . S
C856 O876 1.257 . S
C856 O877 1.260 . S
Eu857 C856 2.835 . S
Eu857 O876 2.473 . S
Eu857 O877 2.480 . S
Eu857 O878 2.430 . S
Eu857 O879 2.670 . S
Eu857 O880 2.394 . S
Eu857 O885 2.355 . S
Eu857 O887 2.374 . S
C858 C856 1.500 . S
C858 C859 1.377 . S
C858 C863 1.377 . S
C859 C858 1.377 . S
C859 C860 1.395 . S
C859 H888 0.931 . S
C860 C859 1.395 . S
C860 C861 1.383 . S
C860 H889 0.931 . S
C861 C860 1.383 . S
C861 C862 1.394 . S
C862 C861 1.394 . S
C862 C863 1.378 . S
C862 H890 0.931 . S
C863 C858 1.377 . S
C863 C862 1.378 . S
C863 H891 0.931 . S
C864 O878 1.259 . S
C864 O879 1.270 . S
C865 O880 1.251 . S
C865 O881 1.251 . S
C866 Eu867 2.835 . S
C866 C868 1.500 . S
C866 O882 1.257 . S
C866 O883 1.260 . S
Eu867 C866 2.835 . S
Eu867 O879 2.355 . S
Eu867 O881 2.374 . S
Eu867 O882 2.473 . S
Eu867 O883 2.480 . S
Eu867 O884 2.430 . S
Eu867 O885 2.670 . S
Eu867 O886 2.394 . S
C868 C866 1.500 . S
C868 C869 1.377 . S
C868 C873 1.377 . S
C869 C868 1.377 . S
C869 C870 1.395 . S
C869 H892 0.931 . S
C870 C869 1.395 . S
C870 C871 1.383 . S
C870 H893 0.931 . S
C871 C870 1.383 . S
C871 C872 1.394 . S
C872 C871 1.394 . S
C872 C873 1.378 . S
C872 H894 0.931 . S
C873 C868 1.377 . S
C873 C872 1.378 . S
C873 H895 0.931 . S
C874 O884 1.259 . S
C874 O885 1.270 . S
C875 O886 1.251 . S
C875 O887 1.251 . S
O876 C856 1.257 . S
O876 Eu857 2.473 . S
O877 C856 1.260 . S
O877 Eu857 2.480 . S
O878 Eu857 2.430 . S
O878 C864 1.259 . S
O879 Eu857 2.670 . S
O879 C864 1.270 . S
O879 Eu867 2.355 . S
O880 Eu857 2.394 . S
O880 C865 1.251 . S
O881 C865 1.251 . S
O881 Eu867 2.374 . S
O882 C866 1.257 . S
O882 Eu867 2.473 . S
O883 C866 1.260 . S
O883 Eu867 2.480 . S
O884 Eu867 2.430 . S
O884 C874 1.259 . S
O885 Eu857 2.355 . S
O885 Eu867 2.670 . S
O885 C874 1.270 . S
O886 Eu867 2.394 . S
O886 C875 1.251 . S
O887 Eu857 2.374 . S
O887 C875 1.251 . S
H888 C859 0.931 . S
H889 C860 0.931 . S
H890 C862 0.931 . S
H891 C863 0.931 . S
H892 C869 0.931 . S
H893 C870 0.931 . S
H894 C872 0.931 . S
H895 C873 0.931 . S
C896 Eu897 2.835 . S
C896 C898 1.500 . S
C896 O916 1.257 . S
C896 O917 1.260 . S
Eu897 C896 2.835 . S
Eu897 O916 2.473 . S
Eu897 O917 2.480 . S
Eu897 O918 2.430 . S
Eu897 O919 2.670 . S
Eu897 O920 2.394 . S
Eu897 O925 2.355 . S
Eu897 O927 2.374 . S
C898 C896 1.500 . S
C898 C899 1.377 . S
C898 C903 1.377 . S
C899 C898 1.377 . S
C899 C900 1.395 . S
C899 H928 0.931 . S
C900 C899 1.395 . S
C900 C901 1.383 . S
C900 H929 0.931 . S
C901 C900 1.383 . S
C901 C902 1.394 . S
C902 C901 1.394 . S
C902 C903 1.378 . S
C902 H930 0.931 . S
C903 C898 1.377 . S
C903 C902 1.378 . S
C903 H931 0.931 . S
C904 O918 1.259 . S
C904 O919 1.270 . S
C905 O920 1.251 . S
C905 O921 1.251 . S
C906 Eu907 2.835 . S
C906 C908 1.500 . S
C906 O922 1.257 . S
C906 O923 1.260 . S
Eu907 C906 2.835 . S
Eu907 O919 2.355 . S
Eu907 O921 2.374 . S
Eu907 O922 2.473 . S
Eu907 O923 2.480 . S
Eu907 O924 2.430 . S
Eu907 O925 2.670 . S
Eu907 O926 2.394 . S
C908 C906 1.500 . S
C908 C909 1.377 . S
C908 C913 1.377 . S
C909 C908 1.377 . S
C909 C910 1.395 . S
C909 H932 0.931 . S
C910 C909 1.395 . S
C910 C911 1.383 . S
C910 H933 0.931 . S
C911 C910 1.383 . S
C911 C912 1.394 . S
C912 C911 1.394 . S
C912 C913 1.378 . S
C912 H934 0.931 . S
C913 C908 1.377 . S
C913 C912 1.378 . S
C913 H935 0.931 . S
C914 O924 1.259 . S
C914 O925 1.270 . S
C915 O926 1.251 . S
C915 O927 1.251 . S
O916 C896 1.257 . S
O916 Eu897 2.473 . S
O917 C896 1.260 . S
O917 Eu897 2.480 . S
O918 Eu897 2.430 . S
O918 C904 1.259 . S
O919 Eu897 2.670 . S
O919 C904 1.270 . S
O919 Eu907 2.355 . S
O920 Eu897 2.394 . S
O920 C905 1.251 . S
O921 C905 1.251 . S
O921 Eu907 2.374 . S
O922 C906 1.257 . S
O922 Eu907 2.473 . S
O923 C906 1.260 . S
O923 Eu907 2.480 . S
O924 Eu907 2.430 . S
O924 C914 1.259 . S
O925 Eu897 2.355 . S
O925 Eu907 2.670 . S
O925 C914 1.270 . S
O926 Eu907 2.394 . S
O926 C915 1.251 . S
O927 Eu897 2.374 . S
O927 C915 1.251 . S
H928 C899 0.931 . S
H929 C900 0.931 . S
H930 C902 0.931 . S
H931 C903 0.931 . S
H932 C909 0.931 . S
H933 C910 0.931 . S
H934 C912 0.931 . S
H935 C913 0.931 . S
C439 C585 1.741 . S
C465 C625 2.090 . S
C401 C664 2.433 . S
C369 C624 2.130 . S
C665 C305 1.814 . S
C343 C584 1.745 . S
C595 C375 2.212 . S
C635 C311 2.057 . S
C337 C674 2.019 . S
C433 C634 1.727 . S
C471 C675 1.787 . S
C594 C407 2.295 . S
C705 C55 1.741 . S
C81 C745 2.090 . S
C17 C784 2.432 1_545 S
C561 C744 2.130 . S
C497 C785 1.816 . S
C535 C704 1.744 . S
C567 C715 2.212 . S
C503 C755 2.058 . S
C794 C529 2.018 . S
C49 C754 1.727 . S
C795 C87 1.787 . S
C23 C714 2.294 . S
C825 C247 1.741 . S
C273 C865 2.091 . S
C904 C209 2.432 . S
C864 C177 2.131 1_545 S
C905 C113 1.815 . S
C151 C824 1.744 . S
C183 C835 2.188 1_455 S
C119 C875 2.057 . S
C914 C145 2.018 1_545 S
C241 C874 1.726 . S
C279 C915 1.788 . S
C215 C834 2.295 . S
C509 C581 1.577 . S
C621 C541 1.863 . S
C573 C671 1.637 . S
C221 C631 2.161 1_455 S
C253 C661 1.466 . S
C591 C285 1.548 . S
C125 C701 1.577 . S
C157 C741 1.863 . S
C189 C791 1.637 . S
C413 C751 2.162 . S
C781 C445 1.467 . S
C477 C711 1.548 . S
C317 C821 1.577 . S
C349 C861 1.863 . S
C911 C381 1.638 . S
C29 C871 2.162 . S
C61 C901 1.466 . S
C93 C831 1.549 . S
