# Generated by pormake.
# Topology nom, (4,4)-cn, num edge types: 1
# Building blocks:
#     Node 0, Type 0, BuildingBlock: NAHDIM_clean_linker_0, # of connection points: 4
#     Node 1, Type 0, BuildingBlock: NAHDIM_clean_linker_0, # of connection points: 4
#     Node 2, Type 0, BuildingBlock: NAHDIM_clean_linker_0, # of connection points: 4
#     Node 3, Type 0, BuildingBlock: NAHDIM_clean_linker_0, # of connection points: 4
#     Node 4, Type 0, BuildingBlock: NAHDIM_clean_linker_0, # of connection points: 4
#     Node 5, Type 0, BuildingBlock: NAHDIM_clean_linker_0, # of connection points: 4
#     Node 6, Type 1, BuildingBlock: TATPOV_clean_sbu_0, # of connection points: 4
#     Node 7, Type 1, BuildingBlock: TATPOV_clean_sbu_0, # of connection points: 4
#     Node 8, Type 1, BuildingBlock: TATPOV_clean_sbu_0, # of connection points: 4
#     Node 9, Type 1, BuildingBlock: TATPOV_clean_sbu_0, # of connection points: 4
#     Node 10, Type 1, BuildingBlock: TATPOV_clean_sbu_0, # of connection points: 4
#     Node 11, Type 1, BuildingBlock: TATPOV_clean_sbu_0, # of connection points: 4
#     Edge 12, Type (0, 1), BuildingBlock: CIFDUS_clean_linker_0, # of connection points: 2
#     Edge 13, Type (0, 1), BuildingBlock: CIFDUS_clean_linker_0, # of connection points: 2
#     Edge 14, Type (0, 1), BuildingBlock: CIFDUS_clean_linker_0, # of connection points: 2
#     Edge 15, Type (0, 1), BuildingBlock: CIFDUS_clean_linker_0, # of connection points: 2
#     Edge 16, Type (0, 1), BuildingBlock: CIFDUS_clean_linker_0, # of connection points: 2
#     Edge 17, Type (0, 1), BuildingBlock: CIFDUS_clean_linker_0, # of connection points: 2
#     Edge 18, Type (0, 1), BuildingBlock: CIFDUS_clean_linker_0, # of connection points: 2
#     Edge 19, Type (0, 1), BuildingBlock: CIFDUS_clean_linker_0, # of connection points: 2
#     Edge 20, Type (0, 1), BuildingBlock: CIFDUS_clean_linker_0, # of connection points: 2
#     Edge 21, Type (0, 1), BuildingBlock: CIFDUS_clean_linker_0, # of connection points: 2
#     Edge 22, Type (0, 1), BuildingBlock: CIFDUS_clean_linker_0, # of connection points: 2
#     Edge 23, Type (0, 1), BuildingBlock: CIFDUS_clean_linker_0, # of connection points: 2
#     Edge 24, Type (0, 1), BuildingBlock: CIFDUS_clean_linker_0, # of connection points: 2
#     Edge 25, Type (0, 1), BuildingBlock: CIFDUS_clean_linker_0, # of connection points: 2
#     Edge 26, Type (0, 1), BuildingBlock: CIFDUS_clean_linker_0, # of connection points: 2
#     Edge 27, Type (0, 1), BuildingBlock: CIFDUS_clean_linker_0, # of connection points: 2
#     Edge 28, Type (0, 1), BuildingBlock: CIFDUS_clean_linker_0, # of connection points: 2
#     Edge 29, Type (0, 1), BuildingBlock: CIFDUS_clean_linker_0, # of connection points: 2
#     Edge 30, Type (0, 1), BuildingBlock: CIFDUS_clean_linker_0, # of connection points: 2
#     Edge 31, Type (0, 1), BuildingBlock: CIFDUS_clean_linker_0, # of connection points: 2
#     Edge 32, Type (0, 1), BuildingBlock: CIFDUS_clean_linker_0, # of connection points: 2
#     Edge 33, Type (0, 1), BuildingBlock: CIFDUS_clean_linker_0, # of connection points: 2
#     Edge 34, Type (0, 1), BuildingBlock: CIFDUS_clean_linker_0, # of connection points: 2
#     Edge 35, Type (0, 1), BuildingBlock: CIFDUS_clean_linker_0, # of connection points: 2
# Relax obj value: 0.066
# Max RMSD: 0.134
# Mean RMSD: 0.125
data_MOF--net-nom--node1-TATPOV_clean_sbu_0--node2-NAHDIM_clean_linker_0--edge1-CIFDUS_clean_linker_0
_symmetry_space_group_name_H-M    P1
_symmetry_Int_Tables_number       1
_symmetry_cell_setting            triclinic
loop_
_symmetry_equiv_pos_as_xyz
'x, y, z'
_cell_length_a     52.134086
_cell_length_b     52.944365
_cell_length_c     63.230176
_cell_angle_alpha  90.663565
_cell_angle_beta   90.666958
_cell_angle_gamma 120.00967
loop_
_atom_site_label
_atom_site_type_symbol
_atom_site_fract_x
_atom_site_fract_y
_atom_site_fract_z
_atom_type_partial_charge
C0 C 0.14312 0.58786 0.20679 0.0
C1 C 0.15331 0.59938 0.22945 0.0
C2 C 0.10734 0.5793 0.24984 0.0
C3 C 0.10201 0.55051 0.25077 0.0
C4 C 0.07727 0.52895 0.26126 0.0
C5 C 0.05721 0.53613 0.27068 0.0
C6 C 0.0623 0.56495 0.26952 0.0
C7 C 0.08747 0.58618 0.25927 0.0
C8 C 0.07246 0.49841 0.2622 0.0
C9 C 0.04105 0.5733 0.27897 0.0
C10 C 0.84627 0.404 0.19279 0.0
C11 C 0.86002 0.40405 0.2136 0.0
C12 C 0.909 0.43016 0.23064 0.0
C13 C 0.9085 0.45034 0.24494 0.0
C14 C 0.93089 0.46443 0.26048 0.0
C15 C 0.95359 0.45721 0.2623 0.0
C16 C 0.95332 0.43584 0.24847 0.0
C17 C 0.93138 0.4231 0.2325 0.0
C18 C 0.9309 0.48801 0.2742 0.0
C19 C 0.97681 0.42721 0.24997 0.0
C20 C 0.88074 0.41401 0.38877 0.0
C21 C 0.88957 0.44214 0.3817 0.0
C22 C 0.91869 0.46067 0.37533 0.0
C23 C 0.93933 0.45072 0.37596 0.0
C24 C 0.93099 0.42307 0.38438 0.0
C25 C 0.90172 0.4051 0.3909 0.0
C26 C 0.92705 0.49045 0.36718 0.0
C27 C 0.95261 0.41204 0.38555 0.0
C28 C 0.16967 0.6209 0.40947 0.0
C29 C 0.14618 0.59397 0.42076 0.0
C30 C 0.09447 0.5702 0.4075 0.0
C31 C 0.07402 0.57712 0.39888 0.0
C32 C 0.04906 0.55632 0.38735 0.0
C33 C 0.04447 0.52781 0.38443 0.0
C34 C 0.06421 0.52017 0.39405 0.0
C35 C 0.08892 0.54139 0.40569 0.0
C36 C 0.02804 0.56505 0.37778 0.0
C37 C 0.05949 0.48974 0.39163 0.0
C38 C 0.03038 0.51332 0.28115 0.0
C39 C 0.00575 0.49519 0.26836 0.0
C40 C 0.97916 0.47412 0.27708 0.0
C41 C 0.97696 0.47104 0.29928 0.0
C42 C 0.95069 0.45001 0.30864 0.0
C43 C 0.94804 0.44872 0.33053 0.0
C44 C 0.97174 0.4681 0.3439 0.0
C45 C 0.96864 0.4683 0.3661 0.0
C46 C 0.99285 0.48737 0.37896 0.0
C47 C 0.02015 0.50669 0.37017 0.0
C48 C 0.02348 0.50724 0.34797 0.0
C49 C 0.05049 0.52677 0.3386 0.0
C50 C 0.053 0.52843 0.31671 0.0
C51 C 0.02861 0.51059 0.30337 0.0
C52 C 0.00162 0.48974 0.31247 0.0
C53 C 0.99905 0.48813 0.3348 0.0
C54 C 0.81338 0.35778 0.37138 0.0
C55 C 0.82846 0.38948 0.37949 0.0
O56 O 0.13102 0.60106 0.23998 0.0
O57 O 0.11881 0.5919 0.41762 0.0
O58 O 0.85195 0.39486 0.39293 0.0
O59 O 0.89072 0.42025 0.21338 0.0
H60 H 0.1591 0.58454 0.23788 0.0
H61 H 0.12343 0.56561 0.20693 0.0
H62 H 0.13711 0.60232 0.19806 0.0
H63 H 0.16102 0.58666 0.19829 0.0
H64 H 0.11682 0.54453 0.24334 0.0
H65 H 0.09165 0.60836 0.2584 0.0
H66 H 0.05234 0.48336 0.25274 0.0
H67 H 0.09153 0.49696 0.25597 0.0
H68 H 0.06871 0.49081 0.27877 0.0
H69 H 0.04679 0.59592 0.27506 0.0
H70 H 0.01811 0.55804 0.27317 0.0
H71 H 0.04132 0.57161 0.29644 0.0
H72 H 0.8516 0.38232 0.22091 0.0
H73 H 0.82223 0.42554 0.1994 0.0
H74 H 0.86437 0.41212 0.18077 0.0
H75 H 0.83528 0.38065 0.18693 0.0
H76 H 0.89172 0.45649 0.24331 0.0
H77 H 0.93183 0.40781 0.22118 0.0
H78 H 0.92411 0.47977 0.2904 0.0
H79 H 0.95341 0.50751 0.27535 0.0
H80 H 0.91529 0.49484 0.26804 0.0
H81 H 0.96994 0.40623 0.24148 0.0
H82 H 0.99743 0.44436 0.24277 0.0
H83 H 0.98195 0.4252 0.26676 0.0
H84 H 0.83654 0.40287 0.365 0.0
H85 H 0.87356 0.44942 0.38083 0.0
H86 H 0.89474 0.38348 0.39672 0.0
H87 H 0.9302 0.49076 0.34983 0.0
H88 H 0.90979 0.49639 0.37035 0.0
H89 H 0.94833 0.5073 0.37457 0.0
H90 H 0.9429 0.39031 0.39295 0.0
H91 H 0.9598 0.41044 0.36937 0.0
H92 H 0.97265 0.42776 0.39483 0.0
H93 H 0.14672 0.57495 0.41368 0.0
H94 H 0.19188 0.62311 0.41173 0.0
H95 H 0.16439 0.61872 0.39224 0.0
H96 H 0.17037 0.64099 0.41563 0.0
H97 H 0.07813 0.59922 0.40079 0.0
H98 H 0.10359 0.53523 0.41333 0.0
H99 H 0.02938 0.56485 0.36027 0.0
H100 H 0.0049 0.54909 0.38197 0.0
H101 H 0.03317 0.58716 0.38316 0.0
H102 H 0.07663 0.48709 0.4003 0.0
H103 H 0.03734 0.47369 0.39758 0.0
H104 H 0.05991 0.48456 0.37461 0.0
H105 H 0.00712 0.49794 0.25135 0.0
H106 H 0.93168 0.43469 0.29913 0.0
H107 H 0.92705 0.43248 0.33683 0.0
H108 H 0.99017 0.48779 0.39592 0.0
H109 H 0.06992 0.54132 0.34806 0.0
H110 H 0.07419 0.54415 0.31038 0.0
H111 H 0.80743 0.34237 0.38464 0.0
H112 H 0.79312 0.35234 0.3619 0.0
H113 H 0.8288 0.35475 0.36109 0.0
C114 C 0.43123 0.86621 0.60645 0.0
C115 C 0.41535 0.85778 0.58481 0.0
C116 C 0.43143 0.905 0.56768 0.0
C117 C 0.46062 0.91177 0.56347 0.0
C118 C 0.48038 0.93801 0.5537 0.0
C119 C 0.47082 0.95783 0.54816 0.0
C120 C 0.44144 0.95097 0.55229 0.0
C121 C 0.42215 0.92457 0.56192 0.0
C122 C 0.51155 0.9447 0.54942 0.0
C123 C 0.43053 0.9717 0.54677 0.0
C124 C 0.59123 0.16664 0.62093 0.0
C125 C 0.59339 0.16104 0.59814 0.0
C126 C 0.58136 0.11296 0.58464 0.0
C127 C 0.5506 0.10177 0.58298 0.0
C128 C 0.53251 0.07638 0.57094 0.0
C129 C 0.54536 0.06161 0.56072 0.0
C130 C 0.57591 0.07153 0.56376 0.0
C131 C 0.59354 0.09717 0.5757 0.0
C132 C 0.49987 0.06595 0.56846 0.0
C133 C 0.59012 0.05577 0.55361 0.0
C134 C 0.57059 0.14849 0.43999 0.0
C135 C 0.54157 0.13533 0.44731 0.0
C136 C 0.52612 0.10558 0.45202 0.0
C137 C 0.54026 0.08884 0.44956 0.0
C138 C 0.569 0.10178 0.44106 0.0
C139 C 0.58374 0.13152 0.43614 0.0
C140 C 0.49512 0.09231 0.46037 0.0
C141 C 0.5846 0.08452 0.43811 0.0
C142 C 0.43161 0.87034 0.39846 0.0
C143 C 0.44372 0.89494 0.38242 0.0
C144 C 0.45176 0.93767 0.40382 0.0
C145 C 0.43938 0.95486 0.40933 0.0
C146 C 0.45274 0.9771 0.42484 0.0
C147 C 0.47958 0.98268 0.43476 0.0
C148 C 0.49253 0.96566 0.42906 0.0
C149 C 0.47827 0.94304 0.41391 0.0
C150 C 0.43811 0.99459 0.43062 0.0
C151 C 0.52158 0.97144 0.43886 0.0
C152 C 0.49172 0.98632 0.53882 0.0
C153 C 0.50957 0.00951 0.5527 0.0
C154 C 0.52754 0.03765 0.54524 0.0
C155 C 0.52762 0.04302 0.52337 0.0
C156 C 0.54438 0.07134 0.51547 0.0
C157 C 0.54394 0.07652 0.49402 0.0
C158 C 0.52695 0.05355 0.47956 0.0
C159 C 0.52599 0.05874 0.45776 0.0
C160 C 0.5103 0.03528 0.44363 0.0
C161 C 0.49449 0.00663 0.45079 0.0
C162 C 0.49361 0.00123 0.47273 0.0
C163 C 0.47633 0.97299 0.48068 0.0
C164 C 0.47566 0.96799 0.50231 0.0
C165 C 0.49248 0.991 0.51679 0.0
C166 C 0.51028 0.01955 0.50909 0.0
C167 C 0.51036 0.02476 0.4871 0.0
C168 C 0.6224 0.20575 0.46419 0.0
C169 C 0.59271 0.19785 0.45357 0.0
O170 O 0.4115 0.88022 0.57739 0.0
O171 O 0.43741 0.9164 0.38873 0.0
O172 O 0.58655 0.1777 0.4373 0.0
O173 O 0.59999 0.13912 0.59417 0.0
H174 H 0.42861 0.85307 0.57344 0.0
H175 H 0.45352 0.8858 0.60517 0.0
H176 H 0.41837 0.87115 0.61801 0.0
H177 H 0.43406 0.8481 0.61248 0.0
H178 H 0.46827 0.89693 0.56785 0.0
H179 H 0.39962 0.91916 0.56522 0.0
H180 H 0.52748 0.96422 0.5589 0.0
H181 H 0.51506 0.92625 0.55339 0.0
H182 H 0.51657 0.9499 0.53247 0.0
H183 H 0.40737 0.96358 0.55174 0.0
H184 H 0.44504 0.99332 0.55449 0.0
H185 H 0.43162 0.97493 0.52942 0.0
H186 H 0.57637 0.16067 0.58707 0.0
H187 H 0.56745 0.16076 0.62293 0.0
H188 H 0.58883 0.14714 0.62966 0.0
H189 H 0.62719 0.20931 0.62634 0.0
H190 H 0.54068 0.11305 0.59072 0.0
H191 H 0.61718 0.10561 0.57743 0.0
H192 H 0.49405 0.06565 0.55147 0.0
H193 H 0.48678 0.04329 0.57417 0.0
H194 H 0.49329 0.07997 0.57736 0.0
H195 H 0.61308 0.06395 0.5597 0.0
H196 H 0.57674 0.03199 0.55647 0.0
H197 H 0.59085 0.0588 0.53624 0.0
H198 H 0.57545 0.18829 0.4659 0.0
H199 H 0.53126 0.14853 0.4497 0.0
H200 H 0.6061 0.14196 0.43023 0.0
H201 H 0.49546 0.08792 0.47747 0.0
H202 H 0.48574 0.10695 0.45843 0.0
H203 H 0.48028 0.07118 0.45213 0.0
H204 H 0.60689 0.09775 0.43124 0.0
H205 H 0.58705 0.07618 0.4536 0.0
H206 H 0.57107 0.06534 0.42754 0.0
H207 H 0.46806 0.90438 0.38117 0.0
H208 H 0.43669 0.8531 0.39358 0.0
H209 H 0.44199 0.87891 0.41429 0.0
H210 H 0.40722 0.86049 0.39976 0.0
H211 H 0.41894 0.95059 0.40152 0.0
H212 H 0.48821 0.92995 0.41006 0.0
H213 H 0.43657 0.99574 0.44808 0.0
H214 H 0.45179 0.01724 0.42502 0.0
H215 H 0.41553 0.98517 0.42346 0.0
H216 H 0.53081 0.95922 0.43056 0.0
H217 H 0.53814 0.99509 0.4386 0.0
H218 H 0.5182 0.96479 0.45563 0.0
H219 H 0.50894 0.00576 0.56957 0.0
H220 H 0.55785 0.08994 0.52579 0.0
H221 H 0.55724 0.0988 0.48892 0.0
H222 H 0.51027 0.03938 0.42686 0.0
H223 H 0.46291 0.95446 0.47027 0.0
H224 H 0.46189 0.94585 0.50755 0.0
H225 H 0.64051 0.21499 0.45255 0.0
H226 H 0.6277 0.22194 0.47725 0.0
H227 H 0.6212 0.18592 0.47095 0.0
C228 C 0.60988 0.45614 0.76661 0.0
C229 C 0.60114 0.44059 0.74498 0.0
C230 C 0.5685 0.45584 0.72755 0.0
C231 C 0.59075 0.4838 0.72165 0.0
C232 C 0.58357 0.50215 0.71026 0.0
C233 C 0.55357 0.4926 0.70509 0.0
C234 C 0.53113 0.46473 0.71142 0.0
C235 C 0.539 0.44666 0.72236 0.0
C236 C 0.608 0.53175 0.70378 0.0
C237 C 0.49876 0.45405 0.70685 0.0
C238 C 0.58254 0.66394 0.78062 0.0
C239 C 0.5539 0.63568 0.77477 0.0
C240 C 0.5392 0.61669 0.73924 0.0
C241 C 0.51717 0.58767 0.74211 0.0
C242 C 0.51312 0.56577 0.7275 0.0
C243 C 0.5321 0.57308 0.70999 0.0
C244 C 0.5537 0.60264 0.70671 0.0
C245 C 0.55654 0.6242 0.72123 0.0
C246 C 0.48924 0.53472 0.73124 0.0
C247 C 0.5748 0.61135 0.68852 0.0
C248 C 0.42274 0.55013 0.59469 0.0
C249 C 0.4129 0.52402 0.60568 0.0
C250 C 0.43245 0.51408 0.61106 0.0
C251 C 0.4625 0.53049 0.60529 0.0
C252 C 0.47222 0.55598 0.59334 0.0
C253 C 0.45211 0.56541 0.58811 0.0
C254 C 0.42116 0.48644 0.62348 0.0
C255 C 0.50403 0.57373 0.58676 0.0
C256 C 0.55421 0.38625 0.57598 0.0
C257 C 0.55705 0.41332 0.56531 0.0
C258 C 0.52317 0.43131 0.57314 0.0
C259 C 0.49533 0.42132 0.58189 0.0
C260 C 0.48854 0.44053 0.59264 0.0
C261 C 0.51005 0.47053 0.59425 0.0
C262 C 0.53747 0.48107 0.58404 0.0
C263 C 0.54376 0.46133 0.57357 0.0
C264 C 0.4589 0.42863 0.60303 0.0
C265 C 0.56054 0.51306 0.58486 0.0
C266 C 0.54523 0.51189 0.69371 0.0
C267 C 0.54369 0.53359 0.70541 0.0
C268 C 0.53169 0.54962 0.6966 0.0
C269 C 0.51998 0.54318 0.67568 0.0
C270 C 0.50503 0.55666 0.66697 0.0
C271 C 0.49315 0.54968 0.64647 0.0
C272 C 0.49637 0.52947 0.63376 0.0
C273 C 0.48382 0.5217 0.61309 0.0
C274 C 0.48893 0.50286 0.60044 0.0
C275 C 0.50515 0.49035 0.60828 0.0
C276 C 0.51595 0.49617 0.62946 0.0
C277 C 0.53028 0.48216 0.6384 0.0
C278 C 0.53993 0.4873 0.65943 0.0
C279 C 0.53628 0.50715 0.67217 0.0
C280 C 0.52295 0.52234 0.66328 0.0
C281 C 0.51196 0.51618 0.64209 0.0
C282 C 0.38396 0.56399 0.62374 0.0
C283 C 0.37843 0.55432 0.60032 0.0
O284 O 0.57407 0.43698 0.73833 0.0
O285 O 0.52954 0.41143 0.56466 0.0
O286 O 0.40496 0.56162 0.59061 0.0
O287 O 0.54516 0.63738 0.75431 0.0
H288 H 0.61849 0.45365 0.73338 0.0
H289 H 0.6118 0.47794 0.76556 0.0
H290 H 0.59292 0.44324 0.77849 0.0
H291 H 0.63164 0.45925 0.77203 0.0
H292 H 0.61369 0.49159 0.72586 0.0
H293 H 0.52199 0.42518 0.72711 0.0
H294 H 0.60618 0.54896 0.71268 0.0
H295 H 0.63035 0.53468 0.70689 0.0
H296 H 0.60569 0.53491 0.68667 0.0
H297 H 0.484 0.43347 0.71508 0.0
H298 H 0.49311 0.47086 0.71177 0.0
H299 H 0.49423 0.45008 0.68958 0.0
H300 H 0.5596 0.618 0.77574 0.0
H301 H 0.58928 0.6634 0.79728 0.0
H302 H 0.60058 0.66633 0.77018 0.0
H303 H 0.57985 0.6833 0.7786 0.0
H304 H 0.50348 0.58215 0.75596 0.0
H305 H 0.57343 0.64679 0.71924 0.0
H306 H 0.49948 0.52243 0.73786 0.0
H307 H 0.4726 0.5336 0.74258 0.0
H308 H 0.47774 0.52377 0.71613 0.0
H309 H 0.59218 0.63476 0.68948 0.0
H310 H 0.58573 0.59795 0.68822 0.0
H311 H 0.56231 0.60732 0.67336 0.0
H312 H 0.36333 0.53031 0.59909 0.0
H313 H 0.39013 0.51144 0.6105 0.0
H314 H 0.4595 0.58533 0.57942 0.0
H315 H 0.43163 0.49181 0.63952 0.0
H316 H 0.39672 0.47487 0.62519 0.0
H317 H 0.42735 0.47144 0.61562 0.0
H318 H 0.50794 0.59255 0.57694 0.0
H319 H 0.51869 0.58203 0.60106 0.0
H320 H 0.51038 0.5597 0.57766 0.0
H321 H 0.57306 0.43219 0.57541 0.0
H322 H 0.57588 0.38696 0.57618 0.0
H323 H 0.5472 0.38558 0.59259 0.0
H324 H 0.53742 0.36594 0.56766 0.0
H325 H 0.47936 0.39817 0.58106 0.0
H326 H 0.56485 0.46936 0.56592 0.0
H327 H 0.4622 0.43336 0.62032 0.0
H328 H 0.44715 0.43961 0.59666 0.0
H329 H 0.44465 0.40471 0.60043 0.0
H330 H 0.5791 0.51828 0.57402 0.0
H331 H 0.55031 0.52641 0.58064 0.0
H332 H 0.5697 0.5194 0.60123 0.0
H333 H 0.5514 0.53766 0.72178 0.0
H334 H 0.50196 0.57239 0.67603 0.0
H335 H 0.48159 0.56051 0.64066 0.0
H336 H 0.47953 0.49727 0.58452 0.0
H337 H 0.53373 0.46665 0.62939 0.0
H338 H 0.55048 0.47565 0.66558 0.0
H339 H 0.39959 0.58785 0.62527 0.0
H340 H 0.3628 0.55879 0.63134 0.0
H341 H 0.39352 0.5525 0.63251 0.0
C342 C 0.17307 0.54369 0.91577 0.0
C343 C 0.18101 0.54071 0.89295 0.0
C344 C 0.13188 0.50865 0.8764 0.0
C345 C 0.12299 0.5297 0.87517 0.0
C346 C 0.09445 0.52204 0.86782 0.0
C347 C 0.07434 0.49277 0.86173 0.0
C348 C 0.08325 0.47159 0.86284 0.0
C349 C 0.11201 0.47991 0.87002 0.0
C350 C 0.08565 0.54517 0.86668 0.0
C351 C 0.06226 0.44012 0.85667 0.0
C352 C 0.93556 0.41502 0.96064 0.0
C353 C 0.90928 0.41437 0.94889 0.0
C354 C 0.93527 0.44451 0.91837 0.0
C355 C 0.93961 0.42354 0.90767 0.0
C356 C 0.95785 0.43108 0.88999 0.0
C357 C 0.97199 0.46011 0.88283 0.0
C358 C 0.96696 0.48103 0.89314 0.0
C359 C 0.94848 0.47286 0.91072 0.0
C360 C 0.96251 0.40815 0.87919 0.0
C361 C 0.9816 0.51213 0.88582 0.0
C362 C 0.86886 0.43896 0.76606 0.0
C363 C 0.87572 0.41686 0.76947 0.0
C364 C 0.90519 0.42366 0.77263 0.0
C365 C 0.9281 0.45321 0.77261 0.0
C366 C 0.92131 0.47534 0.76799 0.0
C367 C 0.89167 0.46782 0.76449 0.0
C368 C 0.91175 0.39941 0.77668 0.0
C369 C 0.94522 0.507 0.76754 0.0
C370 C 0.14804 0.50694 0.72134 0.0
C371 C 0.12701 0.51738 0.7136 0.0
C372 C 0.07522 0.48923 0.72349 0.0
C373 C 0.05548 0.46092 0.72987 0.0
C374 C 0.03269 0.4555 0.74389 0.0
C375 C 0.02942 0.47902 0.75135 0.0
C376 C 0.04797 0.50739 0.74368 0.0
C377 C 0.07067 0.5122 0.72975 0.0
C378 C 0.01291 0.42489 0.75144 0.0
C379 C 0.04447 0.53276 0.75085 0.0
C380 C 0.04369 0.48415 0.85487 0.0
C381 C 0.02265 0.47732 0.87052 0.0
C382 C 0.99328 0.46879 0.86531 0.0
C383 C 0.98456 0.4674 0.84388 0.0
C384 C 0.95536 0.45957 0.83811 0.0
C385 C 0.94695 0.45797 0.81695 0.0
C386 C 0.96726 0.46354 0.80071 0.0
C387 C 0.95872 0.46118 0.77911 0.0
C388 C 0.97937 0.46646 0.76338 0.0
C389 C 0.00861 0.47442 0.76864 0.0
C390 C 0.0177 0.47739 0.79015 0.0
C391 C 0.04709 0.48587 0.79598 0.0
C392 C 0.05576 0.48847 0.81715 0.0
C393 C 0.03529 0.48229 0.83332 0.0
C394 C 0.0056 0.47388 0.82782 0.0
C395 C 0.99686 0.47166 0.80621 0.0
C396 C 0.81254 0.43668 0.79268 0.0
C397 C 0.81866 0.41647 0.77884 0.0
O398 O 0.15909 0.51482 0.88375 0.0
O399 O 0.09855 0.49368 0.71155 0.0
O400 O 0.84042 0.43301 0.76451 0.0
O401 O 0.91902 0.43858 0.9362 0.0
H402 H 0.18349 0.55948 0.88365 0.0
H403 H 0.15206 0.54419 0.91609 0.0
H404 H 0.17034 0.52501 0.92528 0.0
H405 H 0.19076 0.56432 0.92321 0.0
H406 H 0.13798 0.55208 0.87998 0.0
H407 H 0.11904 0.46383 0.87098 0.0
H408 H 0.06746 0.53999 0.87785 0.0
H409 H 0.1044 0.5673 0.87068 0.0
H410 H 0.07716 0.54536 0.85053 0.0
H411 H 0.0723 0.42613 0.85908 0.0
H412 H 0.04185 0.43149 0.86612 0.0
H413 H 0.05557 0.43857 0.83976 0.0
H414 H 0.89752 0.39414 0.93895 0.0
H415 H 0.92761 0.39602 0.9712 0.0
H416 H 0.95106 0.41389 0.94932 0.0
H417 H 0.94793 0.43543 0.9703 0.0
H418 H 0.92917 0.40135 0.9131 0.0
H419 H 0.94482 0.48883 0.91893 0.0
H420 H 0.95728 0.40707 0.86202 0.0
H421 H 0.98615 0.41422 0.88087 0.0
H422 H 0.94861 0.38617 0.88589 0.0
H423 H 0.97493 0.52566 0.89525 0.0
H424 H 0.00605 0.52209 0.88705 0.0
H425 H 0.97578 0.51251 0.86893 0.0
H426 H 0.82627 0.40499 0.78968 0.0
H427 H 0.85798 0.39436 0.76987 0.0
H428 H 0.88606 0.4846 0.76146 0.0
H429 H 0.91842 0.40032 0.79354 0.0
H430 H 0.89223 0.37755 0.77321 0.0
H431 H 0.9305 0.40217 0.76689 0.0
H432 H 0.93622 0.5216 0.76396 0.0
H433 H 0.95712 0.5137 0.78308 0.0
H434 H 0.96166 0.50996 0.7554 0.0
H435 H 0.12833 0.53306 0.72605 0.0
H436 H 0.17127 0.52536 0.7219 0.0
H437 H 0.14196 0.49828 0.73755 0.0
H438 H 0.14663 0.48922 0.71094 0.0
H439 H 0.05881 0.44325 0.72456 0.0
H440 H 0.08503 0.53394 0.72398 0.0
H441 H 0.01655 0.4241 0.7687 0.0
H442 H 0.98931 0.4185 0.74887 0.0
H443 H 0.01717 0.40873 0.74321 0.0
H444 H 0.05907 0.55298 0.74217 0.0
H445 H 0.0211 0.52733 0.74853 0.0
H446 H 0.04991 0.53704 0.76801 0.0
H447 H 0.02917 0.47833 0.88702 0.0
H448 H 0.93871 0.4547 0.84991 0.0
H449 H 0.92421 0.45202 0.81352 0.0
H450 H 0.97259 0.4643 0.74686 0.0
H451 H 0.0638 0.49064 0.78426 0.0
H452 H 0.07868 0.49514 0.82068 0.0
H453 H 0.80527 0.44932 0.78285 0.0
H454 H 0.79507 0.42382 0.80426 0.0
H455 H 0.83303 0.45229 0.8016 0.0
C456 C 0.46503 0.84812 0.88035 0.0
C457 C 0.44894 0.83155 0.90012 0.0
C458 C 0.47583 0.87013 0.92676 0.0
C459 C 0.4564 0.88114 0.92864 0.0
C460 C 0.46627 0.90912 0.9373 0.0
C461 C 0.49626 0.92655 0.94391 0.0
C462 C 0.51574 0.91526 0.94236 0.0
C463 C 0.50502 0.8869 0.9342 0.0
C464 C 0.44473 0.92018 0.93917 0.0
C465 C 0.54803 0.93335 0.94878 0.0
C466 C 0.56987 0.06147 0.84219 0.0
C467 C 0.57392 0.08758 0.85565 0.0
C468 C 0.54648 0.06327 0.88757 0.0
C469 C 0.56758 0.05664 0.89583 0.0
C470 C 0.56153 0.03929 0.91373 0.0
C471 C 0.53386 0.02828 0.9236 0.0
C472 C 0.51289 0.0355 0.91573 0.0
C473 C 0.51958 0.05305 0.89785 0.0
C474 C 0.58448 0.03214 0.92183 0.0
C475 C 0.48319 0.0241 0.92593 0.0
C476 C 0.59893 0.13561 0.04191 0.0
C477 C 0.61512 0.12273 0.0347 0.0
C478 C 0.60112 0.09259 0.03058 0.0
C479 C 0.57024 0.07511 0.03357 0.0
C480 C 0.55414 0.08792 0.04177 0.0
C481 C 0.56885 0.11808 0.04609 0.0
C482 C 0.61921 0.07953 0.0226 0.0
C483 C 0.52128 0.06988 0.04535 0.0
C484 C 0.49337 0.8528 0.07954 0.0
C485 C 0.48667 0.87492 0.09022 0.0
C486 C 0.51843 0.92564 0.08078 0.0
C487 C 0.54667 0.9424 0.07254 0.0
C488 C 0.55302 0.96556 0.05901 0.0
C489 C 0.5306 0.97229 0.05402 0.0
C490 C 0.50268 0.95683 0.06366 0.0
C491 C 0.49687 0.93363 0.07699 0.0
C492 C 0.58321 0.98198 0.0493 0.0
C493 C 0.47864 0.9641 0.0592 0.0
C494 C 0.50766 0.95716 0.9512 0.0
C495 C 0.51393 0.97801 0.93576 0.0
C496 C 0.52619 0.00752 0.94116 0.0
C497 C 0.53246 0.01672 0.96261 0.0
C498 C 0.54508 0.04628 0.96858 0.0
C499 C 0.55197 0.05518 0.98969 0.0
C500 C 0.54667 0.03487 0.00563 0.0
C501 C 0.55463 0.04382 0.02704 0.0
C502 C 0.54883 0.02302 0.0425 0.0
C503 C 0.53537 0.99335 0.03712 0.0
C504 C 0.52746 0.98402 0.01578 0.0
C505 C 0.5141 0.95433 0.00981 0.0
C506 C 0.5071 0.94542 0.98874 0.0
C507 C 0.51348 0.96585 0.97276 0.0
C508 C 0.52624 0.99579 0.97845 0.0
C509 C 0.5333 0.00489 -1e-05 0.0
C510 C 0.60545 0.18988 0.01581 0.0
C511 C 0.62715 0.18484 0.02912 0.0
O512 O 0.46728 0.84356 0.91785 0.0
O513 O 0.51252 0.90172 0.09205 0.0
O514 O 0.61184 0.16492 0.04473 0.0
O515 O 0.55085 0.07889 0.86967 0.0
H516 H 0.42852 0.83296 0.90191 0.0
H517 H 0.4707 0.87128 0.8818 0.0
H518 H 0.4858 0.8474 0.87829 0.0
H519 H 0.45061 0.83841 0.86603 0.0
H520 H 0.43347 0.86796 0.92362 0.0
H521 H 0.51974 0.87806 0.93284 0.0
H522 H 0.45037 0.93769 0.92756 0.0
H523 H 0.42146 0.90268 0.9361 0.0
H524 H 0.44644 0.92975 0.95521 0.0
H525 H 0.56088 0.92261 0.9443 0.0
H526 H 0.55811 0.95504 0.94129 0.0
H527 H 0.55005 0.93704 0.96618 0.0
H528 H 0.59532 0.09704 0.86462 0.0
H529 H 0.58798 0.06866 0.83062 0.0
H530 H 0.57052 0.04481 0.85231 0.0
H531 H 0.54825 0.05109 0.83348 0.0
H532 H 0.58868 0.06448 0.88833 0.0
H533 H 0.50348 0.05837 0.89151 0.0
H534 H 0.58908 0.03794 0.93893 0.0
H535 H 0.57578 0.00831 0.92011 0.0
H536 H 0.60562 0.04381 0.91321 0.0
H537 H 0.46969 0.03254 0.91838 0.0
H538 H 0.47069 0.9999 0.92481 0.0
H539 H 0.4864 0.03035 0.94298 0.0
H540 H 0.63778 0.17619 0.01831 0.0
H541 H 0.63868 0.13627 0.03224 0.0
H542 H 0.5567 0.12828 0.05197 0.0
H543 H 0.61313 0.07255 0.00579 0.0
H544 H 0.64339 0.09527 0.0237 0.0
H545 H 0.61433 0.05989 0.03174 0.0
H546 H 0.51184 0.08325 0.05137 0.0
H547 H 0.50964 0.05886 0.0303 0.0
H548 H 0.5169 0.05263 0.05692 0.0
H549 H 0.47012 0.8761 0.07961 0.0
H550 H 0.47323 0.83081 0.07894 0.0
H551 H 0.5005 0.8595 0.06307 0.0
H552 H 0.51148 0.85158 0.08803 0.0
H553 H 0.56334 0.93642 0.07597 0.0
H554 H 0.47541 0.92152 0.08422 0.0
H555 H 0.58101 0.97865 0.03186 0.0
H556 H 0.59309 0.00572 0.05261 0.0
H557 H 0.59857 0.97481 0.05542 0.0
H558 H 0.45932 0.95216 0.06959 0.0
H559 H 0.48751 0.98791 0.0614 0.0
H560 H 0.47096 0.95833 0.04247 0.0
H561 H 0.50976 0.97124 0.91922 0.0
H562 H 0.54991 0.06287 0.95697 0.0
H563 H 0.56171 0.07824 0.99332 0.0
H564 H 0.5552 0.03004 0.05885 0.0
H565 H 0.50902 0.9376 0.02135 0.0
H566 H 0.49689 0.92231 0.98508 0.0
H567 H 0.59378 0.19812 0.02589 0.0
H568 H 0.61741 0.20592 0.00328 0.0
H569 H 0.58868 0.16906 0.00805 0.0
C570 C 0.57871 0.44929 0.05324 0.0
C571 C 0.5938 0.45242 0.07482 0.0
C572 C 0.58057 0.48358 0.09608 0.0
C573 C 0.55047 0.46289 0.09862 0.0
C574 C 0.53177 0.47031 0.10955 0.0
C575 C 0.54343 0.49887 0.11809 0.0
C576 C 0.57383 0.51946 0.11598 0.0
C577 C 0.59196 0.51149 0.10499 0.0
C578 C 0.49943 0.44789 0.11162 0.0
C579 C 0.58702 0.55011 0.1249 0.0
C580 C 0.4579 0.60369 0.02776 0.0
C581 C 0.46718 0.60381 0.05013 0.0
C582 C 0.4613 0.56698 0.07579 0.0
C583 C 0.48734 0.5853 0.08751 0.0
C584 C 0.4978 0.57394 0.10318 0.0
C585 C 0.48162 0.54378 0.10744 0.0
C586 C 0.45477 0.52552 0.09627 0.0
C587 C 0.44497 0.53742 0.08056 0.0
C588 C 0.52649 0.59402 0.11485 0.0
C589 C 0.43682 0.49333 0.10059 0.0
C590 C 0.42953 0.57081 0.23581 0.0
C591 C 0.46032 0.58452 0.23775 0.0
C592 C 0.47577 0.57115 0.22991 0.0
C593 C 0.45978 0.54282 0.22066 0.0
C594 C 0.42844 0.52812 0.21977 0.0
C595 C 0.41364 0.54248 0.22701 0.0
C596 C 0.50918 0.58756 0.23116 0.0
C597 C 0.41059 0.49742 0.21085 0.0
C598 C 0.55398 0.41634 0.26131 0.0
C599 C 0.54418 0.42966 0.27889 0.0
C600 C 0.54019 0.46833 0.26016 0.0
C601 C 0.55485 0.49829 0.25663 0.0
C602 C 0.5436 0.51038 0.24216 0.0
C603 C 0.51665 0.49197 0.23116 0.0
C604 C 0.50146 0.4616 0.23475 0.0
C605 C 0.51348 0.45002 0.2491 0.0
C606 C 0.56055 0.54282 0.23865 0.0
C607 C 0.47253 0.44139 0.2234 0.0
C608 C 0.52358 0.50803 0.12785 0.0
C609 C 0.51083 0.5198 0.11457 0.0
C610 C 0.49368 0.53102 0.12264 0.0
C611 C 0.48897 0.53052 0.14463 0.0
C612 C 0.47245 0.5423 0.15332 0.0
C613 C 0.46843 0.54222 0.17503 0.0
C614 C 0.48015 0.5297 0.18884 0.0
C615 C 0.47593 0.52929 0.21092 0.0
C616 C 0.48778 0.51657 0.22418 0.0
C617 C 0.50426 0.50456 0.21604 0.0
C618 C 0.5091 0.50516 0.19402 0.0
C619 C 0.52616 0.49393 0.18532 0.0
C620 C 0.53091 0.49477 0.16365 0.0
C621 C 0.51869 0.50678 0.14986 0.0
C622 C 0.50137 0.51817 0.15827 0.0
C623 C 0.49676 0.51756 0.18039 0.0
C624 C 0.36367 0.56366 0.24771 0.0
C625 C 0.39038 0.58342 0.23423 0.0
O626 O 0.59943 0.47808 0.08496 0.0
O627 O 0.55274 0.45834 0.2743 0.0
O628 O 0.41598 0.5855 0.24275 0.0
O629 O 0.45167 0.5767 0.0594 0.0
H630 H 0.57925 0.43344 0.0847 0.0
H631 H 0.55703 0.44815 0.0552 0.0
H632 H 0.59274 0.46821 0.04319 0.0
H633 H 0.57467 0.42893 0.04501 0.0
H634 H 0.54127 0.44113 0.0919 0.0
H635 H 0.61521 0.52724 0.103 0.0
H636 H 0.48569 0.45531 0.10312 0.0
H637 H 0.49403 0.42617 0.10511 0.0
H638 H 0.49326 0.44564 0.12853 0.0
H639 H 0.61134 0.56314 0.1227 0.0
H640 H 0.57646 0.56134 0.11702 0.0
H641 H 0.58248 0.54947 0.14206 0.0
H642 H 0.46912 0.62192 0.06046 0.0
H643 H 0.49592 0.61278 0.0103 0.0
H644 H 0.43586 0.58312 0.02523 0.0
H645 H 0.44816 0.61848 0.02782 0.0
H646 H 0.49984 0.60838 0.08429 0.0
H647 H 0.4248 0.5235 0.07155 0.0
H648 H 0.52254 0.59344 0.1321 0.0
H649 H 0.54259 0.5864 0.11232 0.0
H650 H 0.53654 0.61694 0.10962 0.0
H651 H 0.41532 0.48254 0.09173 0.0
H652 H 0.44964 0.48261 0.096 0.0
H653 H 0.4325 0.48995 0.11777 0.0
H654 H 0.38608 0.57372 0.21793 0.0
H655 H 0.47231 0.60624 0.24481 0.0
H656 H 0.38973 0.53141 0.22586 0.0
H657 H 0.51841 0.58766 0.2154 0.0
H658 H 0.51831 0.61047 0.23682 0.0
H659 H 0.51675 0.57639 0.24222 0.0
H660 H 0.38667 0.48742 0.21439 0.0
H661 H 0.41294 0.49771 0.19343 0.0
H662 H 0.419 0.48347 0.21736 0.0
H663 H 0.5197 0.41672 0.28041 0.0
H664 H 0.54715 0.39334 0.26486 0.0
H665 H 0.54357 0.4165 0.24594 0.0
H666 H 0.57845 0.42898 0.25972 0.0
H667 H 0.57542 0.51225 0.26522 0.0
H668 H 0.50179 0.42675 0.25156 0.0
H669 H 0.56381 0.54724 0.22147 0.0
H670 H 0.54754 0.55268 0.24463 0.0
H671 H 0.58254 0.55369 0.24685 0.0
H672 H 0.46247 0.41859 0.22891 0.0
H673 H 0.45655 0.44919 0.22584 0.0
H674 H 0.47626 0.44152 0.20615 0.0
H675 H 0.51479 0.52076 0.0977 0.0
H676 H 0.46268 0.55198 0.14345 0.0
H677 H 0.45588 0.55202 0.18079 0.0
H678 H 0.48438 0.51628 0.24109 0.0
H679 H 0.53613 0.48445 0.19519 0.0
H680 H 0.54424 0.48585 0.15782 0.0
H681 H 0.36726 0.57164 0.2644 0.0
H682 H 0.34337 0.56289 0.24126 0.0
H683 H 0.35989 0.5411 0.24757 0.0
Zn684 Zn 0.68147 0.46995 0.42015 0.0
Zn685 Zn 0.64776 0.41034 0.41836 0.0
O686 O 0.69077 0.41984 0.41589 0.0
O687 O 0.71889 0.46764 0.41597 0.0
O688 O 0.62666 0.36648 0.41899 0.0
O689 O 0.66539 0.46888 0.44973 0.0
O690 O 0.6365 0.42127 0.44638 0.0
C691 C 0.71622 0.44253 0.41477 0.0
C692 C 0.63836 0.44561 0.38472 0.0
O693 O 0.63168 0.42091 0.39232 0.0
O694 O 0.65806 0.46899 0.39374 0.0
C695 C 0.6333 0.35224 0.406 0.0
O696 O 0.65197 0.36631 0.39089 0.0
C697 C 0.64542 0.44489 0.45696 0.0
Zn698 Zn 0.20357 0.6681 0.58392 0.0
Zn699 Zn 0.22926 0.63441 0.5777 0.0
O700 O 0.26442 0.67598 0.58124 0.0
O701 O 0.24474 0.70384 0.58638 0.0
O702 O 0.24853 0.6096 0.57567 0.0
O703 O 0.18388 0.64526 0.61026 0.0
O704 O 0.20353 0.61766 0.60374 0.0
C705 C 0.26741 0.7011 0.58447 0.0
C706 C 0.18941 0.6367 0.54311 0.0
O707 O 0.20629 0.62748 0.54989 0.0
O708 O 0.18449 0.65357 0.55461 0.0
C709 C 0.27432 0.61867 0.5685 0.0
O710 O 0.28892 0.64496 0.5607 0.0
C711 C 0.18734 0.62395 0.615 0.0
Zn712 Zn 0.53889 0.21374 0.73617 0.0
Zn713 Zn 0.59919 0.24147 0.74317 0.0
O714 O 0.58808 0.27303 0.74667 0.0
O715 O 0.53954 0.25167 0.7438 0.0
O716 O 0.64279 0.26378 0.75 0.0
O717 O 0.53472 0.18504 0.75928 0.0
O718 O 0.58301 0.20941 0.76481 0.0
C719 C 0.56448 0.27451 0.74689 0.0
C720 C 0.57411 0.21491 0.69986 0.0
O721 O 0.59593 0.22706 0.71286 0.0
O722 O 0.54818 0.20803 0.70556 0.0
C723 C 0.6592 0.28765 0.7408 0.0
O724 O 0.64747 0.29629 0.72607 0.0
C725 C 0.5575 0.18854 0.76935 0.0
Zn726 Zn 0.3912 0.55371 0.89874 0.0
Zn727 Zn 0.41634 0.6133 0.90146 0.0
O728 O 0.37197 0.59786 0.89833 0.0
O729 O 0.35039 0.55005 0.8957 0.0
O730 O 0.4332 0.65684 0.90359 0.0
O731 O 0.40872 0.55561 0.92807 0.0
O732 O 0.42912 0.60343 0.9294 0.0
C733 C 0.34861 0.57307 0.89616 0.0
C734 C 0.43406 0.58528 0.86616 0.0
O735 O 0.43578 0.60759 0.87541 0.0
O736 O 0.41688 0.55994 0.87299 0.0
C737 C 0.42193 0.66866 0.89228 0.0
O738 O 0.40028 0.65236 0.87886 0.0
C739 C 0.4244 0.57976 0.93783 0.0
Zn740 Zn 0.80033 0.46087 0.07533 0.0
Zn741 Zn 0.77244 0.4017 0.07493 0.0
O742 O 0.73892 0.41103 0.07266 0.0
O743 O 0.76054 0.45889 0.0723 0.0
O744 O 0.74991 0.35791 0.07209 0.0
O745 O 0.8232 0.46179 0.04951 0.0
O746 O 0.80094 0.41385 0.04994 0.0
C747 C 0.73717 0.43412 0.07177 0.0
C748 C 0.80976 0.43554 0.11347 0.0
O749 O 0.79265 0.41113 0.10424 0.0
O750 O 0.81633 0.45923 0.10442 0.0
C751 C 0.72701 0.34268 0.08296 0.0
O752 O 0.71943 0.35574 0.09733 0.0
C753 C 0.81943 0.43798 0.04174 0.0
Zn754 Zn 0.35115 0.80573 0.23036 0.0
Zn755 Zn 0.38225 0.77628 0.23184 0.0
O756 O 0.33845 0.74559 0.23121 0.0
O757 O 0.31193 0.76728 0.22968 0.0
O758 O 0.39944 0.74968 0.23258 0.0
O759 O 0.37238 0.82264 0.2026 0.0
O760 O 0.39776 0.79964 0.20498 0.0
C761 C 0.31335 0.74411 0.23036 0.0
C762 C 0.39012 0.8188 0.26763 0.0
O763 O 0.39683 0.80119 0.25882 0.0
O764 O 0.37128 0.8241 0.25895 0.0
C765 C 0.3998 0.73786 0.24988 0.0
O766 O 0.39204 0.74582 0.26731 0.0
C767 C 0.39152 0.81691 0.1953 0.0
H768 H 0.21079 0.61279 0.23349 0.0
H769 H 0.15716 0.65275 0.22366 0.0
H770 H 0.20174 0.70097 0.22309 0.0
H771 H 0.25603 0.73175 0.22574 0.0
H772 H 0.30937 0.69115 0.23499 0.0
H773 H 0.26487 0.6433 0.23546 0.0
C774 C 0.20891 0.6321 0.23137 0.0
C775 C 0.18075 0.62931 0.22917 0.0
C776 C 0.23457 0.65964 0.23093 0.0
C777 C 0.1786 0.65443 0.22587 0.0
C778 C 0.20406 0.68196 0.22547 0.0
C779 C 0.25792 0.71245 0.22788 0.0
C780 C 0.28604 0.71514 0.23038 0.0
C781 C 0.23217 0.68485 0.22809 0.0
C782 C 0.28805 0.68982 0.23302 0.0
C783 C 0.26259 0.66238 0.23331 0.0
H784 H 0.61829 0.22741 0.41737 0.0
H785 H 0.5705 0.22972 0.47187 0.0
H786 H 0.5765 0.27645 0.46097 0.0
H787 H 0.59845 0.31823 0.43747 0.0
H788 H 0.64744 0.31673 0.38336 0.0
H789 H 0.63741 0.26795 0.39237 0.0
C790 C 0.60874 0.23794 0.4266 0.0
C791 C 0.59366 0.22498 0.44525 0.0
C792 C 0.61259 0.265 0.42037 0.0
C793 C 0.58188 0.2391 0.45732 0.0
C794 C 0.5854 0.26586 0.45115 0.0
C795 C 0.60663 0.30712 0.42747 0.0
C796 C 0.62386 0.32126 0.40985 0.0
C797 C 0.60114 0.27924 0.43291 0.0
C798 C 0.63419 0.30644 0.39706 0.0
C799 C 0.62856 0.27855 0.40224 0.0
H800 H 0.31937 0.53315 0.59532 0.0
H801 H 0.40372 0.60886 0.58251 0.0
H802 H 0.37863 0.63439 0.5695 0.0
H803 H 0.3329 0.63656 0.56468 0.0
H804 H 0.24877 0.56155 0.57947 0.0
H805 H 0.27355 0.53427 0.58855 0.0
C806 C 0.33219 0.55501 0.58923 0.0
C807 C 0.36329 0.56885 0.58947 0.0
C808 C 0.31766 0.56977 0.58231 0.0
C809 C 0.37973 0.5975 0.58208 0.0
C810 C 0.3654 0.61217 0.57479 0.0
C811 C 0.31993 0.6141 0.56958 0.0
C812 C 0.28903 0.60118 0.5715 0.0
C813 C 0.33439 0.59871 0.57521 0.0
C814 C 0.27259 0.5721 0.57797 0.0
C815 C 0.28674 0.55647 0.5832 0.0
H816 H 0.78293 0.35918 0.78802 0.0
H817 H 0.79126 0.42465 0.7443 0.0
H818 H 0.74352 0.38993 0.72772 0.0
H819 H 0.69822 0.34196 0.72714 0.0
H820 H 0.68964 0.27679 0.77141 0.0
H821 H 0.73886 0.31031 0.78612 0.0
C822 C 0.77444 0.36568 0.77467 0.0
C823 C 0.79065 0.39431 0.76726 0.0
C824 C 0.74694 0.34572 0.76538 0.0
C825 C 0.77927 0.40261 0.75012 0.0
C826 C 0.75197 0.38282 0.74071 0.0
C827 C 0.70721 0.33495 0.73986 0.0
C828 C 0.69015 0.30695 0.74823 0.0
C829 C 0.73543 0.35444 0.74841 0.0
C830 C 0.70221 0.29825 0.76471 0.0
C831 C 0.73035 0.31743 0.77317 0.0
H832 H 0.47958 0.80369 0.91181 0.0
H833 H 0.3984 0.78834 0.88136 0.0
H834 H 0.38337 0.73701 0.87552 0.0
H835 H 0.39295 0.69649 0.8795 0.0
H836 H 0.47303 0.71111 0.91136 0.0
H837 H 0.48876 0.76277 0.91639 0.0
C838 C 0.45843 0.78903 0.90415 0.0
C839 C 0.43976 0.79964 0.89747 0.0
C840 C 0.44979 0.75949 0.90107 0.0
C841 C 0.41283 0.78051 0.88701 0.0
C842 C 0.40429 0.75124 0.88361 0.0
C843 C 0.41392 0.71099 0.88746 0.0
C844 C 0.43185 0.70002 0.89496 0.0
C845 C 0.42255 0.74048 0.89062 0.0
C846 C 0.45881 0.71903 0.90545 0.0
C847 C 0.46782 0.74856 0.90832 0.0
H848 H 0.60532 0.40766 0.07898 0.0
H849 H 0.64716 0.49862 0.06318 0.0
H850 H 0.69483 0.50072 0.06014 0.0
H851 H 0.72503 0.47737 0.06361 0.0
H852 H 0.68322 0.38606 0.07863 0.0
H853 H 0.63516 0.38341 0.08022 0.0
C854 C 0.62492 0.4279 0.07489 0.0
C855 C 0.62293 0.45314 0.07194 0.0
C856 C 0.65224 0.42891 0.07304 0.0
C857 C 0.64831 0.47908 0.06606 0.0
C858 C 0.67553 0.48027 0.06426 0.0
C859 C 0.7054 0.45685 0.06715 0.0
C860 C 0.70779 0.43205 0.07117 0.0
C861 C 0.67784 0.45545 0.06802 0.0
C862 C 0.68205 0.40553 0.07549 0.0
C863 C 0.65454 0.40399 0.07647 0.0
H864 H 0.40085 0.80122 0.57743 0.0
H865 H 0.36295 0.85341 0.59756 0.0
H866 H 0.31425 0.80966 0.59974 0.0
H867 H 0.28215 0.75685 0.59477 0.0
H868 H 0.32014 0.70428 0.57548 0.0
H869 H 0.36905 0.74785 0.57425 0.0
C870 C 0.38186 0.80294 0.58221 0.0
C871 C 0.3853 0.83056 0.58667 0.0
C872 C 0.35396 0.77766 0.58362 0.0
C873 C 0.36071 0.83247 0.59348 0.0
C874 C 0.3329 0.80746 0.59481 0.0
C875 C 0.30112 0.75486 0.59036 0.0
C876 C 0.29736 0.72732 0.58506 0.0
C877 C 0.3292 0.77999 0.58969 0.0
C878 C 0.3223 0.72518 0.57959 0.0
C879 C 0.35031 0.75011 0.57883 0.0
H880 H 0.55236 0.38712 0.75336 0.0
H881 H 0.64569 0.42817 0.74046 0.0
H882 H 0.64305 0.38076 0.74142 0.0
H883 H 0.61379 0.32765 0.74399 0.0
H884 H 0.51985 0.28613 0.75493 0.0
H885 H 0.52314 0.33384 0.75653 0.0
C886 C 0.57209 0.38569 0.7506 0.0
C887 C 0.59907 0.41106 0.74625 0.0
C888 C 0.57028 0.35833 0.75078 0.0
C889 C 0.62458 0.40887 0.74338 0.0
C890 C 0.62308 0.38182 0.74397 0.0
C891 C 0.59404 0.32899 0.74691 0.0
C892 C 0.56659 0.30333 0.74932 0.0
C893 C 0.59597 0.35638 0.74735 0.0
C894 C 0.54122 0.30552 0.75295 0.0
C895 C 0.54309 0.33279 0.75386 0.0
H896 H 0.23597 0.58788 0.88896 0.0
H897 H 0.19166 0.49498 0.8981 0.0
H898 H 0.23937 0.49663 0.8992 0.0
H899 H 0.29378 0.52467 0.89813 0.0
H900 H 0.33795 0.61799 0.89036 0.0
H901 H 0.29026 0.61592 0.88809 0.0
C902 C 0.23681 0.56798 0.89096 0.0
C903 C 0.21033 0.54128 0.89285 0.0
C904 C 0.26429 0.56916 0.8919 0.0
C905 C 0.21171 0.51572 0.89606 0.0
C906 C 0.23898 0.51667 0.8968 0.0
C907 C 0.29298 0.54453 0.89584 0.0
C908 C 0.31945 0.57141 0.89438 0.0
C909 C 0.26542 0.54328 0.89476 0.0
C910 C 0.31797 0.59698 0.89157 0.0
C911 C 0.29068 0.59585 0.89026 0.0
H912 H 0.62372 0.2139 0.06426 0.0
H913 H 0.68319 0.22035 0.01507 0.0
H914 H 0.72023 0.26879 0.02832 0.0
H915 H 0.73442 0.31043 0.05242 0.0
H916 H 0.67463 0.30464 0.10127 0.0
H917 H 0.63927 0.25469 0.08985 0.0
C918 C 0.64501 0.22575 0.05672 0.0
C919 C 0.6509 0.21341 0.03891 0.0
C920 C 0.6661 0.25373 0.06429 0.0
C921 C 0.67833 0.22923 0.02898 0.0
C922 C 0.69945 0.25696 0.03649 0.0
C923 C 0.71381 0.29817 0.06074 0.0
C924 C 0.70715 0.31139 0.07759 0.0
C925 C 0.69341 0.26958 0.05394 0.0
C926 C 0.68033 0.29508 0.0882 0.0
C927 C 0.66002 0.26651 0.08164 0.0
H928 H 0.40439 0.62315 0.26659 0.0
H929 H 0.38585 0.61173 0.19942 0.0
H930 H 0.39043 0.65996 0.19795 0.0
H931 H 0.39622 0.70379 0.21618 0.0
H932 H 0.41156 0.7137 0.28377 0.0
H933 H 0.41182 0.66771 0.28465 0.0
C934 C 0.40132 0.63125 0.25165 0.0
C935 C 0.39439 0.61375 0.2332 0.0
C936 C 0.40341 0.65871 0.251 0.0
C937 C 0.3909 0.62467 0.21388 0.0
C938 C 0.39355 0.65223 0.21303 0.0
C939 C 0.40009 0.69612 0.23106 0.0
C940 C 0.40387 0.71214 0.24989 0.0
C941 C 0.39935 0.66925 0.23154 0.0
C942 C 0.40856 0.70176 0.26906 0.0
C943 C 0.40862 0.67542 0.26959 0.0
H944 H 0.82375 0.4381 0.37514 0.0
H945 H 0.78643 0.35796 0.4097 0.0
H946 H 0.74918 0.3679 0.42429 0.0
H947 H 0.72493 0.3977 0.42506 0.0
H948 H 0.76515 0.47993 0.39308 0.0
H949 H 0.80404 0.47119 0.38008 0.0
C950 C 0.80771 0.42295 0.38605 0.0
C951 C 0.80719 0.39674 0.39057 0.0
C952 C 0.78691 0.42923 0.39489 0.0
C953 C 0.78668 0.37773 0.40522 0.0
C954 C 0.76545 0.38349 0.4137 0.0
C955 C 0.74246 0.41385 0.41547 0.0
C956 C 0.74203 0.43926 0.40982 0.0
C957 C 0.76495 0.40885 0.40826 0.0
C958 C 0.76504 0.46022 0.39765 0.0
C959 C 0.78717 0.45515 0.3901 0.0
H960 H 0.13525 0.62423 0.45131 0.0
H961 H 0.17513 0.57065 0.44225 0.0
H962 H 0.19093 0.57795 0.47952 0.0
H963 H 0.19517 0.60132 0.51419 0.0
H964 H 0.15519 0.65505 0.52296 0.0
H965 H 0.13729 0.64554 0.48634 0.0
C966 C 0.14696 0.61376 0.4576 0.0
C967 C 0.15361 0.59653 0.44416 0.0
C968 C 0.15603 0.61815 0.47894 0.0
C969 C 0.16941 0.58365 0.45239 0.0
C970 C 0.17852 0.58791 0.47364 0.0
C971 C 0.18236 0.61079 0.50816 0.0
C972 C 0.17671 0.62902 0.52133 0.0
C973 C 0.17219 0.60535 0.48701 0.0
C974 C 0.15997 0.641 0.51322 0.0
C975 C 0.14975 0.63563 0.49224 0.0
H976 H 0.5884 0.21474 0.59339 0.0
H977 H 0.65474 0.17286 0.61615 0.0
H978 H 0.64084 0.17801 0.65971 0.0
H979 H 0.60787 0.19313 0.68623 0.0
H980 H 0.55228 0.22794 0.66609 0.0
H981 H 0.56241 0.22761 0.62868 0.0
C982 C 0.59959 0.20954 0.60564 0.0
C983 C 0.61879 0.18858 0.59986 0.0
C984 C 0.59126 0.21028 0.63305 0.0
C985 C 0.64137 0.18254 0.62012 0.0
C986 C 0.63143 0.18448 0.647 0.0
C987 C 0.59861 0.19965 0.6734 0.0
C988 C 0.57955 0.21073 0.67764 0.0
C989 C 0.60609 0.19727 0.65289 0.0
C990 C 0.56676 0.21969 0.66156 0.0
C991 C 0.57257 0.21988 0.63996 0.0
H992 H 0.52188 0.58688 0.79785 0.0
H993 H 0.53018 0.6705 0.78524 0.0
H994 H 0.49349 0.6621 0.81209 0.0
H995 H 0.46093 0.63194 0.84042 0.0
H996 H 0.45067 0.54709 0.85147 0.0
H997 H 0.48599 0.55488 0.82378 0.0
C998 C 0.51558 0.60322 0.80095 0.0
C999 C 0.52941 0.62966 0.79007 0.0
C1000 C 0.49412 0.59801 0.8161 0.0
C1001 C 0.52046 0.65031 0.79383 0.0
C1002 C 0.4994 0.64547 0.80912 0.0
C1003 C 0.46633 0.61511 0.83668 0.0
C1004 C 0.45344 0.58912 0.84814 0.0
C1005 C 0.48646 0.6196 0.82059 0.0
C1006 C 0.46029 0.56731 0.84291 0.0
C1007 C 0.48057 0.57178 0.82713 0.0
H1008 H 0.91073 0.46096 0.96954 0.0
H1009 H 0.86087 0.36702 0.96502 0.0
H1010 H 0.82818 0.36584 0.99293 0.0
H1011 H 0.81478 0.39152 0.01929 0.0
H1012 H 0.86468 0.48565 0.02341 0.0
H1013 H 0.89605 0.4867 0.99478 0.0
C1014 C 0.89238 0.44027 0.9744 0.0
C1015 C 0.8878 0.41413 0.96491 0.0
C1016 C 0.87375 0.43977 0.99043 0.0
C1017 C 0.86445 0.38744 0.97182 0.0
C1018 C 0.84587 0.38675 0.98782 0.0
C1019 C 0.83242 0.41228 0.01387 0.0
C1020 C 0.83738 0.43843 0.02359 0.0
C1021 C 0.85043 0.41278 0.99733 0.0
C1022 C 0.86031 0.46514 0.01627 0.0
C1023 C 0.87834 0.4658 -0.00011 0.0
H1024 H 0.43485 0.86871 0.10485 0.0
H1025 H 0.50982 0.86048 0.12443 0.0
H1026 H 0.48695 0.84166 0.15847 0.0
H1027 H 0.44483 0.826 0.18221 0.0
H1028 H 0.37131 0.83717 0.16351 0.0
H1029 H 0.39449 0.85654 0.12963 0.0
C1030 C 0.44615 0.86278 0.11658 0.0
C1031 C 0.47351 0.86505 0.11185 0.0
C1032 C 0.43314 0.85251 0.13626 0.0
C1033 C 0.48833 0.8581 0.12743 0.0
C1034 C 0.47533 0.84746 0.14693 0.0
C1035 C 0.43391 0.83269 0.17071 0.0
C1036 C 0.40627 0.82989 0.17526 0.0
C1037 C 0.44756 0.84421 0.1514 0.0
C1038 C 0.39259 0.8391 0.16037 0.0
C1039 C 0.40579 0.8501 0.14098 0.0
H1040 H 0.59577 0.47221 0.29835 0.0
H1041 H 0.52434 0.38398 0.30587 0.0
H1042 H 0.54701 0.38065 0.33909 0.0
H1043 H 0.58725 0.40298 0.36596 0.0
H1044 H 0.65721 0.49211 0.35886 0.0
H1045 H 0.63469 0.49503 0.32567 0.0
C1046 C 0.58488 0.45237 0.30737 0.0
C1047 C 0.55801 0.42853 0.29985 0.0
C1048 C 0.59778 0.45078 0.32655 0.0
C1049 C 0.54474 0.40276 0.31153 0.0
C1050 C 0.55773 0.40084 0.33047 0.0
C1051 C 0.59753 0.42304 0.35715 0.0
C1052 C 0.62391 0.44725 0.36489 0.0
C1053 C 0.58424 0.42474 0.33815 0.0
C1054 C 0.63685 0.47316 0.35334 0.0
C1055 C 0.62403 0.47485 0.33431 0.0
H1056 H 0.46246 0.87007 0.35329 0.0
H1057 H 0.39352 0.89106 0.36352 0.0
H1058 H 0.37174 0.87044 0.32873 0.0
H1059 H 0.37194 0.8459 0.29554 0.0
H1060 H 0.43943 0.82254 0.2862 0.0
H1061 H 0.4621 0.84465 0.32045 0.0
C1062 C 0.44282 0.87034 0.34778 0.0
C1063 C 0.43017 0.88283 0.36072 0.0
C1064 C 0.43009 0.85795 0.32795 0.0
C1065 C 0.40418 0.88228 0.35368 0.0
C1066 C 0.39162 0.87036 0.33382 0.0
C1067 C 0.39171 0.84579 0.30094 0.0
C1068 C 0.40403 0.8327 0.28827 0.0
C1069 C 0.4044 0.85816 0.32081 0.0
C1070 C 0.42945 0.83244 0.29563 0.0
C1071 C 0.44246 0.8451 0.31522 0.0
H1072 H 0.60898 0.45692 0.54987 0.0
H1073 H 0.53105 0.37613 0.5311 0.0
H1074 H 0.55154 0.3787 0.49608 0.0
H1075 H 0.59227 0.40313 0.47123 0.0
H1076 H 0.66921 0.4852 0.48931 0.0
H1077 H 0.64839 0.48301 0.52416 0.0
C1078 C 0.59646 0.43997 0.53806 0.0
C1079 C 0.56878 0.41612 0.54316 0.0
C1080 C 0.60822 0.44179 0.51789 0.0
C1081 C 0.55259 0.39449 0.52762 0.0
C1082 C 0.56428 0.39597 0.50761 0.0
C1083 C 0.60449 0.42054 0.4828 0.0
C1084 C 0.63237 0.44415 0.47777 0.0
C1085 C 0.59222 0.41934 0.50267 0.0
C1086 C 0.64772 0.46677 0.4928 0.0
C1087 C 0.63586 0.46551 0.51274 0.0
H1088 H 0.13621 0.57132 0.70394 0.0
H1089 H 0.13744 0.49722 0.67603 0.0
H1090 H 0.156 0.52354 0.64316 0.0
H1091 H 0.17388 0.56842 0.62287 0.0
H1092 H 0.16962 0.64139 0.64994 0.0
H1093 H 0.14999 0.61462 0.68256 0.0
C1094 C 0.14054 0.56096 0.69065 0.0
C1095 C 0.13652 0.53279 0.6927 0.0
C1096 C 0.15063 0.576 0.67165 0.0
C1097 C 0.14132 0.51926 0.67511 0.0
C1098 C 0.15178 0.53424 0.65627 0.0
C1099 C 0.16857 0.57842 0.6359 0.0
C1100 C 0.17349 0.60695 0.6341 0.0
C1101 C 0.15695 0.56278 0.65448 0.0
C1102 C 0.16605 0.61946 0.65095 0.0
C1103 C 0.15492 0.6042 0.66963 0.0
H1104 H 0.52794 0.08804 0.83437 0.0
H1105 H 0.62266 0.13848 0.84427 0.0
H1106 H 0.62566 0.17452 0.81919 0.0
H1107 H 0.60185 0.19067 0.79355 0.0
H1108 H 0.50722 0.14009 0.7827 0.0
H1109 H 0.50369 0.10521 0.80916 0.0
C1110 C 0.54914 0.10714 0.83119 0.0
C1111 C 0.575 0.11082 0.84137 0.0
C1112 C 0.55075 0.12762 0.81654 0.0
C1113 C 0.60242 0.13537 0.83685 0.0
C1114 C 0.60416 0.15591 0.82246 0.0
C1115 C 0.58038 0.17211 0.79699 0.0
C1116 C 0.55486 0.16799 0.78605 0.0
C1117 C 0.57853 0.15211 0.81208 0.0
C1118 C 0.52725 0.1438 0.79082 0.0
C1119 C 0.52521 0.12382 0.80595 0.0
H1120 H 0.47612 0.55482 0.03004 0.0
H1121 H 0.51428 0.66498 0.03876 0.0
H1122 H 0.48868 0.66306 0.99745 0.0
H1123 H 0.45406 0.62686 0.9641 0.0
H1124 H 0.42386 0.53443 0.95712 0.0
H1125 H 0.44527 0.53133 0.99042 0.0
C1126 C 0.47969 0.57517 0.02365 0.0
C1127 C 0.49333 0.60888 0.04037 0.0
C1128 C 0.46329 0.57626 0.99883 0.0
C1129 C 0.50414 0.64519 0.02914 0.0
C1130 C 0.48673 0.64341 0.00401 0.0
C1131 C 0.45259 0.60725 0.97038 0.0
C1132 C 0.43772 0.58048 0.95889 0.0
C1133 C 0.46598 0.6092 0.9898 0.0
C1134 C 0.43552 0.55431 0.9666 0.0
C1135 C 0.44785 0.55208 0.9858 0.0
H1136 H 0.886 0.47066 0.20697 0.0
H1137 H 0.79541 0.37208 0.22593 0.0
H1138 H 0.77279 0.3683 0.18318 0.0
H1139 H 0.78506 0.39456 0.14357 0.0
H1140 H 0.86035 0.47908 0.1297 0.0
H1141 H 0.8829 0.48707 0.1646 0.0
C1142 C 0.86446 0.45221 0.20295 0.0
C1143 C 0.84587 0.41944 0.21982 0.0
C1144 C 0.84917 0.44677 0.17668 0.0
C1145 C 0.80676 0.38978 0.21506 0.0
C1146 C 0.79376 0.38686 0.18814 0.0
C1147 C 0.80581 0.41332 0.14874 0.0
C1148 C 0.82192 0.43669 0.13496 0.0
C1149 C 0.81545 0.41459 0.16943 0.0
C1150 C 0.84894 0.46207 0.14111 0.0
C1151 C 0.86234 0.46707 0.16117 0.0
loop_
_geom_bond_atom_site_label_1
_geom_bond_atom_site_label_2
_geom_bond_distance
_geom_bond_site_symmetry_2
_ccdc_geom_bond_type
C0 C1 1.560 . S
C0 H61 0.959 . S
C0 H62 0.959 . S
C0 H63 0.960 . S
C1 C0 1.560 . S
C1 O56 1.426 . S
C1 H60 0.980 . S
C2 C3 1.407 . S
C2 C7 1.418 . S
C2 O56 1.334 . S
C3 C2 1.407 . S
C3 C4 1.360 . S
C3 H64 0.929 . S
C4 C3 1.360 . S
C4 C5 1.401 . S
C4 C8 1.527 . S
C5 C4 1.401 . S
C5 C6 1.405 . S
C5 C38 1.587 . S
C6 C5 1.405 . S
C6 C7 1.332 . S
C6 C9 1.496 . S
C7 C2 1.418 . S
C7 C6 1.332 . S
C7 H65 0.929 . S
C8 C4 1.527 . S
C8 H66 0.959 . S
C8 H67 0.961 . S
C8 H68 0.961 . S
C9 C6 1.496 . S
C9 H69 0.960 . S
C9 H70 0.960 . S
C9 H71 0.961 . S
C10 C11 1.517 . S
C10 H73 0.961 . S
C10 H74 0.960 . S
C10 H75 0.959 . S
C11 C10 1.517 . S
C11 O59 1.468 . S
C11 H72 0.980 . S
C12 C13 1.349 . S
C12 C17 1.367 . S
C12 O59 1.408 . S
C13 C12 1.349 . S
C13 C14 1.407 . S
C13 H76 0.930 . S
C14 C13 1.407 . S
C14 C15 1.449 . S
C14 C18 1.535 . S
C15 C14 1.449 . S
C15 C16 1.384 . S
C15 C40 1.553 1_655 S
C16 C15 1.384 . S
C16 C17 1.364 . S
C16 C19 1.450 . S
C17 C12 1.367 . S
C17 C16 1.364 . S
C17 H77 0.931 . S
C18 C14 1.535 . S
C18 H78 0.959 1_655 S
C18 H79 0.962 . S
C18 H80 0.959 . S
C19 C16 1.450 . S
C19 H81 0.960 . S
C19 H82 0.960 1_655 S
C19 H83 0.960 . S
C20 C21 1.309 . S
C20 C25 1.304 . S
C20 O58 1.435 . S
C21 C20 1.309 . S
C21 C22 1.476 . S
C21 H85 0.930 . S
C22 C21 1.476 . S
C22 C23 1.400 . S
C22 C26 1.567 . S
C23 C22 1.400 . S
C23 C24 1.373 . S
C23 C45 1.432 . S
C24 C23 1.373 . S
C24 C25 1.339 . S
C24 C27 1.530 . S
C25 C20 1.304 . S
C25 C24 1.339 . S
C25 H86 0.930 . S
C26 C22 1.567 . S
C26 H87 0.961 . S
C26 H88 0.960 . S
C26 H89 0.958 . S
C27 C24 1.530 . S
C27 H90 0.961 . S
C27 H91 0.960 . S
C27 H92 0.960 . S
C28 C29 1.530 . S
C28 H94 0.961 . S
C28 H95 0.961 . S
C28 H96 0.959 . S
C29 C28 1.530 . S
C29 O57 1.412 . S
C29 H93 0.980 . S
C30 C31 1.288 . S
C30 C35 1.377 . S
C30 O57 1.393 . S
C31 C30 1.288 . S
C31 C32 1.369 . S
C31 H97 0.932 . S
C32 C31 1.369 . S
C32 C33 1.398 . S
C32 C36 1.527 . S
C33 C32 1.398 . S
C33 C34 1.380 . S
C33 C47 1.497 . S
C34 C33 1.380 . S
C34 C35 1.383 . S
C34 C37 1.603 . S
C35 C30 1.377 . S
C35 C34 1.383 . S
C35 H98 0.929 . S
C36 C32 1.527 . S
C36 H99 0.961 . S
C36 H100 0.959 1_455 S
C36 H101 0.959 . S
C37 C34 1.603 . S
C37 H102 0.960 . S
C37 H103 0.962 . S
C37 H104 0.961 . S
C38 C5 1.587 . S
C38 C39 1.360 . S
C38 C51 1.412 . S
C39 C38 1.360 . S
C39 C40 1.365 . S
C39 H105 0.929 . S
C40 C15 1.553 1_455 S
C40 C39 1.365 . S
C40 C41 1.399 1_455 S
C41 C40 1.399 1_655 S
C41 C42 1.407 . S
C41 C52 1.445 1_655 S
C42 C41 1.407 . S
C42 C43 1.322 . S
C42 H106 0.930 . S
C43 C42 1.322 . S
C43 C44 1.459 . S
C43 H107 0.929 . S
C44 C43 1.459 . S
C44 C45 1.445 . S
C44 C53 1.395 1_655 S
C45 C23 1.432 . S
C45 C44 1.445 . S
C45 C46 1.370 . S
C46 C45 1.370 . S
C46 C47 1.438 1_655 S
C46 H108 0.930 . S
C47 C33 1.497 . S
C47 C46 1.438 1_455 S
C47 C48 1.360 . S
C48 C47 1.360 . S
C48 C49 1.401 . S
C48 C53 1.446 . S
C49 C48 1.401 . S
C49 C50 1.347 . S
C49 H109 0.929 . S
C50 C49 1.347 . S
C50 C51 1.455 . S
C50 H110 0.930 . S
C51 C38 1.412 . S
C51 C50 1.455 . S
C51 C52 1.331 . S
C52 C41 1.445 1_455 S
C52 C51 1.331 . S
C52 C53 1.497 . S
C53 C44 1.395 1_455 S
C53 C48 1.446 . S
C53 C52 1.497 . S
C54 C55 1.582 . S
C54 H111 0.962 . S
C54 H112 0.959 . S
C54 H113 0.958 . S
C55 C54 1.582 . S
C55 O58 1.458 . S
C55 H84 0.980 . S
O56 C1 1.426 . S
O56 C2 1.334 . S
O57 C29 1.412 . S
O57 C30 1.393 . S
O58 C20 1.435 . S
O58 C55 1.458 . S
O59 C11 1.468 . S
O59 C12 1.408 . S
H60 C1 0.980 . S
H61 C0 0.959 . S
H62 C0 0.959 . S
H63 C0 0.960 . S
H64 C3 0.929 . S
H65 C7 0.929 . S
H66 C8 0.959 . S
H67 C8 0.961 . S
H68 C8 0.961 . S
H69 C9 0.960 . S
H70 C9 0.960 . S
H71 C9 0.961 . S
H72 C11 0.980 . S
H73 C10 0.961 . S
H74 C10 0.960 . S
H75 C10 0.959 . S
H76 C13 0.930 . S
H77 C17 0.931 . S
H78 C18 0.959 1_455 S
H79 C18 0.962 . S
H80 C18 0.959 . S
H81 C19 0.960 . S
H82 C19 0.960 1_455 S
H83 C19 0.960 . S
H84 C55 0.980 . S
H85 C21 0.930 . S
H86 C25 0.930 . S
H87 C26 0.961 . S
H88 C26 0.960 . S
H89 C26 0.958 . S
H90 C27 0.961 . S
H91 C27 0.960 . S
H92 C27 0.960 . S
H93 C29 0.980 . S
H94 C28 0.961 . S
H95 C28 0.961 . S
H96 C28 0.959 . S
H97 C31 0.932 . S
H98 C35 0.929 . S
H99 C36 0.961 . S
H100 C36 0.959 1_655 S
H101 C36 0.959 . S
H102 C37 0.960 . S
H103 C37 0.962 . S
H104 C37 0.961 . S
H105 C39 0.929 . S
H106 C42 0.930 . S
H107 C43 0.929 . S
H108 C46 0.930 . S
H109 C49 0.929 . S
H110 C50 0.930 . S
H111 C54 0.962 . S
H112 C54 0.959 . S
H113 C54 0.958 . S
C114 C115 1.560 . S
C114 H175 0.959 . S
C114 H176 0.959 . S
C114 H177 0.960 . S
C115 C114 1.560 . S
C115 O170 1.426 . S
C115 H174 0.980 . S
C116 C117 1.407 . S
C116 C121 1.418 . S
C116 O170 1.334 . S
C117 C116 1.407 . S
C117 C118 1.360 . S
C117 H178 0.929 . S
C118 C117 1.360 . S
C118 C119 1.401 . S
C118 C122 1.527 . S
C119 C118 1.401 . S
C119 C120 1.405 . S
C119 C152 1.587 . S
C120 C119 1.405 . S
C120 C121 1.332 . S
C120 C123 1.496 . S
C121 C116 1.418 . S
C121 C120 1.332 . S
C121 H179 0.929 . S
C122 C118 1.527 . S
C122 H180 0.959 . S
C122 H181 0.961 . S
C122 H182 0.961 . S
C123 C120 1.496 . S
C123 H183 0.960 . S
C123 H184 0.960 . S
C123 H185 0.961 . S
C124 C125 1.517 . S
C124 H187 0.961 . S
C124 H188 0.960 . S
C124 H189 0.959 . S
C125 C124 1.517 . S
C125 O173 1.468 . S
C125 H186 0.980 . S
C126 C127 1.349 . S
C126 C131 1.367 . S
C126 O173 1.408 . S
C127 C126 1.349 . S
C127 C128 1.407 . S
C127 H190 0.930 . S
C128 C127 1.407 . S
C128 C129 1.449 . S
C128 C132 1.535 . S
C129 C128 1.449 . S
C129 C130 1.384 . S
C129 C154 1.553 . S
C130 C129 1.384 . S
C130 C131 1.364 . S
C130 C133 1.450 . S
C131 C126 1.367 . S
C131 C130 1.364 . S
C131 H191 0.931 . S
C132 C128 1.535 . S
C132 H192 0.959 . S
C132 H193 0.961 . S
C132 H194 0.959 . S
C133 C130 1.450 . S
C133 H195 0.960 . S
C133 H196 0.960 . S
C133 H197 0.960 . S
C134 C135 1.309 . S
C134 C139 1.304 . S
C134 O172 1.435 . S
C135 C134 1.309 . S
C135 C136 1.476 . S
C135 H199 0.930 . S
C136 C135 1.476 . S
C136 C137 1.400 . S
C136 C140 1.567 . S
C137 C136 1.400 . S
C137 C138 1.373 . S
C137 C159 1.432 . S
C138 C137 1.373 . S
C138 C139 1.339 . S
C138 C141 1.530 . S
C139 C134 1.304 . S
C139 C138 1.339 . S
C139 H200 0.930 . S
C140 C136 1.567 . S
C140 H201 0.961 . S
C140 H202 0.960 . S
C140 H203 0.958 . S
C141 C138 1.530 . S
C141 H204 0.961 . S
C141 H205 0.960 . S
C141 H206 0.960 . S
C142 C143 1.530 . S
C142 H208 0.961 . S
C142 H209 0.961 . S
C142 H210 0.959 . S
C143 C142 1.530 . S
C143 O171 1.412 . S
C143 H207 0.980 . S
C144 C145 1.288 . S
C144 C149 1.377 . S
C144 O171 1.393 . S
C145 C144 1.288 . S
C145 C146 1.369 . S
C145 H211 0.932 . S
C146 C145 1.369 . S
C146 C147 1.398 . S
C146 C150 1.527 . S
C147 C146 1.398 . S
C147 C148 1.380 . S
C147 C161 1.497 . S
C148 C147 1.380 . S
C148 C149 1.383 . S
C148 C151 1.603 . S
C149 C144 1.377 . S
C149 C148 1.383 . S
C149 H212 0.929 . S
C150 C146 1.527 . S
C150 H213 0.961 . S
C150 H214 0.959 1_565 S
C150 H215 0.959 . S
C151 C148 1.603 . S
C151 H216 0.960 . S
C151 H217 0.962 . S
C151 H218 0.961 . S
C152 C119 1.587 . S
C152 C153 1.360 . S
C152 C165 1.412 . S
C153 C152 1.360 . S
C153 C154 1.365 1_565 S
C153 H219 0.929 . S
C154 C129 1.553 . S
C154 C153 1.365 1_545 S
C154 C155 1.404 . S
C155 C154 1.404 . S
C155 C156 1.395 . S
C155 C166 1.451 1_545 S
C156 C155 1.395 . S
C156 C157 1.322 . S
C156 H220 0.930 . S
C157 C156 1.322 . S
C157 C158 1.459 . S
C157 H221 0.929 . S
C158 C157 1.459 . S
C158 C159 1.445 . S
C158 C167 1.395 . S
C159 C137 1.432 . S
C159 C158 1.445 . S
C159 C160 1.370 . S
C160 C159 1.370 . S
C160 C161 1.438 1_545 S
C160 H222 0.930 . S
C161 C147 1.497 . S
C161 C160 1.438 1_565 S
C161 C162 1.360 . S
C162 C161 1.360 . S
C162 C163 1.401 . S
C162 C167 1.446 1_565 S
C163 C162 1.401 . S
C163 C164 1.347 . S
C163 H223 0.929 . S
C164 C163 1.347 . S
C164 C165 1.455 . S
C164 H224 0.930 . S
C165 C152 1.412 . S
C165 C164 1.455 . S
C165 C166 1.331 . S
C166 C155 1.451 1_565 S
C166 C165 1.331 . S
C166 C167 1.497 1_565 S
C167 C158 1.395 . S
C167 C162 1.446 1_545 S
C167 C166 1.497 1_545 S
C168 C169 1.582 . S
C168 H225 0.962 . S
C168 H226 0.959 . S
C168 H227 0.958 . S
C169 C168 1.582 . S
C169 O172 1.458 . S
C169 H198 0.980 . S
O170 C115 1.426 . S
O170 C116 1.334 . S
O171 C143 1.412 . S
O171 C144 1.393 . S
O172 C134 1.435 . S
O172 C169 1.458 . S
O173 C125 1.468 . S
O173 C126 1.408 . S
H174 C115 0.980 . S
H175 C114 0.959 . S
H176 C114 0.959 . S
H177 C114 0.960 . S
H178 C117 0.929 . S
H179 C121 0.929 . S
H180 C122 0.959 . S
H181 C122 0.961 . S
H182 C122 0.961 . S
H183 C123 0.960 . S
H184 C123 0.960 . S
H185 C123 0.961 . S
H186 C125 0.980 . S
H187 C124 0.961 . S
H188 C124 0.960 . S
H189 C124 0.959 . S
H190 C127 0.930 . S
H191 C131 0.931 . S
H192 C132 0.959 . S
H193 C132 0.961 . S
H194 C132 0.959 . S
H195 C133 0.960 . S
H196 C133 0.960 . S
H197 C133 0.960 . S
H198 C169 0.980 . S
H199 C135 0.930 . S
H200 C139 0.930 . S
H201 C140 0.961 . S
H202 C140 0.960 . S
H203 C140 0.958 . S
H204 C141 0.961 . S
H205 C141 0.960 . S
H206 C141 0.960 . S
H207 C143 0.980 . S
H208 C142 0.961 . S
H209 C142 0.961 . S
H210 C142 0.959 . S
H211 C145 0.932 . S
H212 C149 0.929 . S
H213 C150 0.961 . S
H214 C150 0.959 1_545 S
H215 C150 0.959 . S
H216 C151 0.960 . S
H217 C151 0.962 . S
H218 C151 0.961 . S
H219 C153 0.929 . S
H220 C156 0.930 . S
H221 C157 0.929 . S
H222 C160 0.930 . S
H223 C163 0.929 . S
H224 C164 0.930 . S
H225 C168 0.962 . S
H226 C168 0.959 . S
H227 C168 0.958 . S
C228 C229 1.560 . S
C228 H289 0.959 . S
C228 H290 0.959 . S
C228 H291 0.960 . S
C229 C228 1.560 . S
C229 O284 1.426 . S
C229 H288 0.980 . S
C230 C231 1.407 . S
C230 C235 1.418 . S
C230 O284 1.334 . S
C231 C230 1.407 . S
C231 C232 1.360 . S
C231 H292 0.929 . S
C232 C231 1.360 . S
C232 C233 1.401 . S
C232 C236 1.527 . S
C233 C232 1.401 . S
C233 C234 1.405 . S
C233 C266 1.587 . S
C234 C233 1.405 . S
C234 C235 1.332 . S
C234 C237 1.496 . S
C235 C230 1.418 . S
C235 C234 1.332 . S
C235 H293 0.929 . S
C236 C232 1.527 . S
C236 H294 0.959 . S
C236 H295 0.961 . S
C236 H296 0.961 . S
C237 C234 1.496 . S
C237 H297 0.960 . S
C237 H298 0.960 . S
C237 H299 0.961 . S
C238 C239 1.517 . S
C238 H301 0.961 . S
C238 H302 0.960 . S
C238 H303 0.959 . S
C239 C238 1.517 . S
C239 O287 1.468 . S
C239 H300 0.980 . S
C240 C241 1.349 . S
C240 C245 1.367 . S
C240 O287 1.408 . S
C241 C240 1.349 . S
C241 C242 1.407 . S
C241 H304 0.930 . S
C242 C241 1.407 . S
C242 C243 1.449 . S
C242 C246 1.535 . S
C243 C242 1.449 . S
C243 C244 1.384 . S
C243 C268 1.553 . S
C244 C243 1.384 . S
C244 C245 1.364 . S
C244 C247 1.450 . S
C245 C240 1.367 . S
C245 C244 1.364 . S
C245 H305 0.931 . S
C246 C242 1.535 . S
C246 H306 0.959 . S
C246 H307 0.961 . S
C246 H308 0.959 . S
C247 C244 1.450 . S
C247 H309 0.960 . S
C247 H310 0.960 . S
C247 H311 0.960 . S
C248 C249 1.309 . S
C248 C253 1.304 . S
C248 O286 1.435 . S
C249 C248 1.309 . S
C249 C250 1.476 . S
C249 H313 0.930 . S
C250 C249 1.476 . S
C250 C251 1.400 . S
C250 C254 1.567 . S
C251 C250 1.400 . S
C251 C252 1.373 . S
C251 C273 1.432 . S
C252 C251 1.373 . S
C252 C253 1.339 . S
C252 C255 1.530 . S
C253 C248 1.304 . S
C253 C252 1.339 . S
C253 H314 0.930 . S
C254 C250 1.567 . S
C254 H315 0.961 . S
C254 H316 0.960 . S
C254 H317 0.958 . S
C255 C252 1.530 . S
C255 H318 0.961 . S
C255 H319 0.960 . S
C255 H320 0.960 . S
C256 C257 1.530 . S
C256 H322 0.961 . S
C256 H323 0.961 . S
C256 H324 0.959 . S
C257 C256 1.530 . S
C257 O285 1.412 . S
C257 H321 0.980 . S
C258 C259 1.288 . S
C258 C263 1.377 . S
C258 O285 1.393 . S
C259 C258 1.288 . S
C259 C260 1.369 . S
C259 H325 0.932 . S
C260 C259 1.369 . S
C260 C261 1.398 . S
C260 C264 1.527 . S
C261 C260 1.398 . S
C261 C262 1.380 . S
C261 C275 1.497 . S
C262 C261 1.380 . S
C262 C263 1.383 . S
C262 C265 1.603 . S
C263 C258 1.377 . S
C263 C262 1.383 . S
C263 H326 0.929 . S
C264 C260 1.527 . S
C264 H327 0.961 . S
C264 H328 0.959 . S
C264 H329 0.959 . S
C265 C262 1.603 . S
C265 H330 0.960 . S
C265 H331 0.962 . S
C265 H332 0.961 . S
C266 C233 1.587 . S
C266 C267 1.360 . S
C266 C279 1.412 . S
C267 C266 1.360 . S
C267 C268 1.365 . S
C267 H333 0.929 . S
C268 C243 1.553 . S
C268 C267 1.365 . S
C268 C269 1.404 . S
C269 C268 1.404 . S
C269 C270 1.395 . S
C269 C280 1.451 . S
C270 C269 1.395 . S
C270 C271 1.322 . S
C270 H334 0.930 . S
C271 C270 1.322 . S
C271 C272 1.459 . S
C271 H335 0.929 . S
C272 C271 1.459 . S
C272 C273 1.445 . S
C272 C281 1.395 . S
C273 C251 1.432 . S
C273 C272 1.445 . S
C273 C274 1.370 . S
C274 C273 1.370 . S
C274 C275 1.438 . S
C274 H336 0.930 . S
C275 C261 1.497 . S
C275 C274 1.438 . S
C275 C276 1.360 . S
C276 C275 1.360 . S
C276 C277 1.401 . S
C276 C281 1.446 . S
C277 C276 1.401 . S
C277 C278 1.347 . S
C277 H337 0.929 . S
C278 C277 1.347 . S
C278 C279 1.455 . S
C278 H338 0.930 . S
C279 C266 1.412 . S
C279 C278 1.455 . S
C279 C280 1.331 . S
C280 C269 1.451 . S
C280 C279 1.331 . S
C280 C281 1.497 . S
C281 C272 1.395 . S
C281 C276 1.446 . S
C281 C280 1.497 . S
C282 C283 1.582 . S
C282 H339 0.962 . S
C282 H340 0.959 . S
C282 H341 0.958 . S
C283 C282 1.582 . S
C283 O286 1.458 . S
C283 H312 0.980 . S
O284 C229 1.426 . S
O284 C230 1.334 . S
O285 C257 1.412 . S
O285 C258 1.393 . S
O286 C248 1.435 . S
O286 C283 1.458 . S
O287 C239 1.468 . S
O287 C240 1.408 . S
H288 C229 0.980 . S
H289 C228 0.959 . S
H290 C228 0.959 . S
H291 C228 0.960 . S
H292 C231 0.929 . S
H293 C235 0.929 . S
H294 C236 0.959 . S
H295 C236 0.961 . S
H296 C236 0.961 . S
H297 C237 0.960 . S
H298 C237 0.960 . S
H299 C237 0.961 . S
H300 C239 0.980 . S
H301 C238 0.961 . S
H302 C238 0.960 . S
H303 C238 0.959 . S
H304 C241 0.930 . S
H305 C245 0.931 . S
H306 C246 0.959 . S
H307 C246 0.961 . S
H308 C246 0.959 . S
H309 C247 0.960 . S
H310 C247 0.960 . S
H311 C247 0.960 . S
H312 C283 0.980 . S
H313 C249 0.930 . S
H314 C253 0.930 . S
H315 C254 0.961 . S
H316 C254 0.960 . S
H317 C254 0.958 . S
H318 C255 0.961 . S
H319 C255 0.960 . S
H320 C255 0.960 . S
H321 C257 0.980 . S
H322 C256 0.961 . S
H323 C256 0.961 . S
H324 C256 0.959 . S
H325 C259 0.932 . S
H326 C263 0.929 . S
H327 C264 0.961 . S
H328 C264 0.959 . S
H329 C264 0.959 . S
H330 C265 0.960 . S
H331 C265 0.962 . S
H332 C265 0.961 . S
H333 C267 0.929 . S
H334 C270 0.930 . S
H335 C271 0.929 . S
H336 C274 0.930 . S
H337 C277 0.929 . S
H338 C278 0.930 . S
H339 C282 0.962 . S
H340 C282 0.959 . S
H341 C282 0.958 . S
C342 C343 1.560 . S
C342 H403 0.959 . S
C342 H404 0.959 . S
C342 H405 0.960 . S
C343 C342 1.560 . S
C343 O398 1.426 . S
C343 H402 0.980 . S
C344 C345 1.407 . S
C344 C349 1.418 . S
C344 O398 1.334 . S
C345 C344 1.407 . S
C345 C346 1.360 . S
C345 H406 0.929 . S
C346 C345 1.360 . S
C346 C347 1.401 . S
C346 C350 1.527 . S
C347 C346 1.401 . S
C347 C348 1.405 . S
C347 C380 1.587 . S
C348 C347 1.405 . S
C348 C349 1.332 . S
C348 C351 1.496 . S
C349 C344 1.418 . S
C349 C348 1.332 . S
C349 H407 0.929 . S
C350 C346 1.527 . S
C350 H408 0.959 . S
C350 H409 0.961 . S
C350 H410 0.961 . S
C351 C348 1.496 . S
C351 H411 0.960 . S
C351 H412 0.960 . S
C351 H413 0.961 . S
C352 C353 1.517 . S
C352 H415 0.961 . S
C352 H416 0.960 . S
C352 H417 0.959 . S
C353 C352 1.517 . S
C353 O401 1.468 . S
C353 H414 0.980 . S
C354 C355 1.349 . S
C354 C359 1.367 . S
C354 O401 1.408 . S
C355 C354 1.349 . S
C355 C356 1.407 . S
C355 H418 0.930 . S
C356 C355 1.407 . S
C356 C357 1.449 . S
C356 C360 1.560 . S
C357 C356 1.449 . S
C357 C358 1.384 . S
C357 C382 1.553 1_655 S
C358 C357 1.384 . S
C358 C359 1.364 . S
C358 C361 1.450 . S
C359 C354 1.367 . S
C359 C358 1.364 . S
C359 H419 0.931 . S
C360 C356 1.560 . S
C360 H420 0.939 1_655 S
C360 H421 0.943 1_655 S
C360 H422 0.974 . S
C361 C358 1.450 . S
C361 H423 0.960 . S
C361 H424 0.960 1_655 S
C361 H425 0.960 . S
C362 C363 1.309 . S
C362 C367 1.304 . S
C362 O400 1.435 . S
C363 C362 1.309 . S
C363 C364 1.476 . S
C363 H427 0.930 . S
C364 C363 1.476 . S
C364 C365 1.400 . S
C364 C368 1.567 . S
C365 C364 1.400 . S
C365 C366 1.373 . S
C365 C387 1.432 . S
C366 C365 1.373 . S
C366 C367 1.339 . S
C366 C369 1.530 . S
C367 C362 1.304 . S
C367 C366 1.339 . S
C367 H428 0.930 . S
C368 C364 1.567 . S
C368 H429 0.961 . S
C368 H430 0.960 . S
C368 H431 0.958 . S
C369 C366 1.530 . S
C369 H432 0.961 . S
C369 H433 0.960 . S
C369 H434 0.960 . S
C370 C371 1.530 . S
C370 H436 0.961 . S
C370 H437 0.961 . S
C370 H438 0.959 . S
C371 C370 1.530 . S
C371 O399 1.412 . S
C371 H435 0.980 . S
C372 C373 1.288 . S
C372 C377 1.377 . S
C372 O399 1.393 . S
C373 C372 1.288 . S
C373 C374 1.369 . S
C373 H439 0.932 . S
C374 C373 1.369 . S
C374 C375 1.398 . S
C374 C378 1.527 . S
C375 C374 1.398 . S
C375 C376 1.380 . S
C375 C389 1.497 . S
C376 C375 1.380 . S
C376 C377 1.383 . S
C376 C379 1.603 . S
C377 C372 1.377 . S
C377 C376 1.383 . S
C377 H440 0.929 . S
C378 C374 1.527 . S
C378 H441 0.961 . S
C378 H442 0.987 . S
C378 H443 0.959 . S
C379 C376 1.603 . S
C379 H444 0.960 . S
C379 H445 0.962 . S
C379 H446 0.961 . S
C380 C347 1.587 . S
C380 C381 1.360 . S
C380 C393 1.412 . S
C381 C380 1.360 . S
C381 C382 1.365 . S
C381 H447 0.929 . S
C382 C357 1.553 1_455 S
C382 C381 1.365 . S
C382 C383 1.404 . S
C383 C382 1.404 . S
C383 C384 1.395 1_455 S
C383 C394 1.451 . S
C384 C383 1.395 1_655 S
C384 C385 1.322 . S
C384 H448 0.930 . S
C385 C384 1.322 . S
C385 C386 1.459 . S
C385 H449 0.929 . S
C386 C385 1.459 . S
C386 C387 1.445 . S
C386 C395 1.395 1_655 S
C387 C365 1.432 . S
C387 C386 1.445 . S
C387 C388 1.370 . S
C388 C387 1.370 . S
C388 C389 1.438 1_655 S
C388 H450 0.930 . S
C389 C375 1.497 . S
C389 C388 1.438 1_455 S
C389 C390 1.360 . S
C390 C389 1.360 . S
C390 C391 1.401 . S
C390 C395 1.446 . S
C391 C390 1.401 . S
C391 C392 1.347 . S
C391 H451 0.929 . S
C392 C391 1.347 . S
C392 C393 1.455 . S
C392 H452 0.930 . S
C393 C380 1.412 . S
C393 C392 1.455 . S
C393 C394 1.331 . S
C394 C383 1.451 . S
C394 C393 1.331 . S
C394 C395 1.497 . S
C395 C386 1.395 1_455 S
C395 C390 1.446 . S
C395 C394 1.497 . S
C396 C397 1.582 . S
C396 H453 0.962 . S
C396 H454 0.959 . S
C396 H455 0.958 . S
C397 C396 1.582 . S
C397 O400 1.458 . S
C397 H426 0.980 . S
O398 C343 1.426 . S
O398 C344 1.334 . S
O399 C371 1.412 . S
O399 C372 1.393 . S
O400 C362 1.435 . S
O400 C397 1.458 . S
O401 C353 1.468 . S
O401 C354 1.408 . S
H402 C343 0.980 . S
H403 C342 0.959 . S
H404 C342 0.959 . S
H405 C342 0.960 . S
H406 C345 0.929 . S
H407 C349 0.929 . S
H408 C350 0.959 . S
H409 C350 0.961 . S
H410 C350 0.961 . S
H411 C351 0.960 . S
H412 C351 0.960 . S
H413 C351 0.961 . S
H414 C353 0.980 . S
H415 C352 0.961 . S
H416 C352 0.960 . S
H417 C352 0.959 . S
H418 C355 0.930 . S
H419 C359 0.931 . S
H420 C360 0.939 1_455 S
H421 C360 0.943 1_455 S
H422 C360 0.974 . S
H423 C361 0.960 . S
H424 C361 0.960 1_455 S
H425 C361 0.960 . S
H426 C397 0.980 . S
H427 C363 0.930 . S
H428 C367 0.930 . S
H429 C368 0.961 . S
H430 C368 0.960 . S
H431 C368 0.958 . S
H432 C369 0.961 . S
H433 C369 0.960 . S
H434 C369 0.960 . S
H435 C371 0.980 . S
H436 C370 0.961 . S
H437 C370 0.961 . S
H438 C370 0.959 . S
H439 C373 0.932 . S
H440 C377 0.929 . S
H441 C378 0.961 . S
H442 C378 0.987 . S
H443 C378 0.959 . S
H444 C379 0.960 . S
H445 C379 0.962 . S
H446 C379 0.961 . S
H447 C381 0.929 . S
H448 C384 0.930 . S
H449 C385 0.929 . S
H450 C388 0.930 . S
H451 C391 0.929 . S
H452 C392 0.930 . S
H453 C396 0.962 . S
H454 C396 0.959 . S
H455 C396 0.958 . S
C456 C457 1.560 . S
C456 H517 0.959 . S
C456 H518 0.959 . S
C456 H519 0.960 . S
C457 C456 1.560 . S
C457 O512 1.426 . S
C457 H516 0.980 . S
C458 C459 1.407 . S
C458 C463 1.418 . S
C458 O512 1.334 . S
C459 C458 1.407 . S
C459 C460 1.360 . S
C459 H520 0.929 . S
C460 C459 1.360 . S
C460 C461 1.401 . S
C460 C464 1.527 . S
C461 C460 1.401 . S
C461 C462 1.405 . S
C461 C494 1.587 . S
C462 C461 1.405 . S
C462 C463 1.332 . S
C462 C465 1.496 . S
C463 C458 1.418 . S
C463 C462 1.332 . S
C463 H521 0.929 . S
C464 C460 1.527 . S
C464 H522 0.959 . S
C464 H523 0.961 . S
C464 H524 0.961 . S
C465 C462 1.496 . S
C465 H525 0.960 . S
C465 H526 0.960 . S
C465 H527 0.961 . S
C466 C467 1.517 . S
C466 H529 0.961 . S
C466 H530 0.960 . S
C466 H531 0.959 . S
C467 C466 1.517 . S
C467 O515 1.468 . S
C467 H528 0.980 . S
C468 C469 1.349 . S
C468 C473 1.367 . S
C468 O515 1.408 . S
C469 C468 1.349 . S
C469 C470 1.407 . S
C469 H532 0.930 . S
C470 C469 1.407 . S
C470 C471 1.449 . S
C470 C474 1.535 . S
C471 C470 1.449 . S
C471 C472 1.384 . S
C471 C496 1.553 . S
C472 C471 1.384 . S
C472 C473 1.364 . S
C472 C475 1.450 . S
C473 C468 1.367 . S
C473 C472 1.364 . S
C473 H533 0.931 . S
C474 C470 1.535 . S
C474 H534 0.959 . S
C474 H535 0.961 . S
C474 H536 0.959 . S
C475 C472 1.450 . S
C475 H537 0.960 . S
C475 H538 0.960 . S
C475 H539 0.960 . S
C476 C477 1.309 . S
C476 C481 1.304 . S
C476 O514 1.435 . S
C477 C476 1.309 . S
C477 C478 1.476 . S
C477 H541 0.930 . S
C478 C477 1.476 . S
C478 C479 1.400 . S
C478 C482 1.567 . S
C479 C478 1.400 . S
C479 C480 1.373 . S
C479 C501 1.432 . S
C480 C479 1.373 . S
C480 C481 1.339 . S
C480 C483 1.530 . S
C481 C476 1.304 . S
C481 C480 1.339 . S
C481 H542 0.930 . S
C482 C478 1.567 . S
C482 H543 0.961 . S
C482 H544 0.960 . S
C482 H545 0.958 . S
C483 C480 1.530 . S
C483 H546 0.961 . S
C483 H547 0.960 . S
C483 H548 0.960 . S
C484 C485 1.530 . S
C484 H550 0.961 . S
C484 H551 0.961 . S
C484 H552 0.959 . S
C485 C484 1.530 . S
C485 O513 1.412 . S
C485 H549 0.980 . S
C486 C487 1.288 . S
C486 C491 1.377 . S
C486 O513 1.393 . S
C487 C486 1.288 . S
C487 C488 1.369 . S
C487 H553 0.932 . S
C488 C487 1.369 . S
C488 C489 1.398 . S
C488 C492 1.526 1_565 S
C489 C488 1.398 . S
C489 C490 1.380 . S
C489 C503 1.497 1_565 S
C490 C489 1.380 . S
C490 C491 1.383 . S
C490 C493 1.603 . S
C491 C486 1.377 . S
C491 C490 1.383 . S
C491 H554 0.929 . S
C492 C488 1.526 1_545 S
C492 H555 0.961 1_545 S
C492 H556 0.969 . S
C492 H557 0.950 1_545 S
C493 C490 1.603 . S
C493 H558 0.960 . S
C493 H559 0.962 . S
C493 H560 0.961 . S
C494 C461 1.587 . S
C494 C495 1.360 . S
C494 C507 1.412 . S
C495 C494 1.360 . S
C495 C496 1.365 1_565 S
C495 H561 0.929 . S
C496 C471 1.553 . S
C496 C495 1.365 1_545 S
C496 C497 1.404 . S
C497 C496 1.404 . S
C497 C498 1.395 . S
C497 C508 1.451 1_545 S
C498 C497 1.395 . S
C498 C499 1.322 . S
C498 H562 0.930 . S
C499 C498 1.322 . S
C499 C500 1.456 . S
C499 H563 0.929 . S
C500 C499 1.456 . S
C500 C501 1.448 1_556 S
C500 C509 1.395 . S
C501 C479 1.432 . S
C501 C500 1.448 1_554 S
C501 C502 1.370 . S
C502 C501 1.370 . S
C502 C503 1.438 . S
C502 H564 0.930 . S
C503 C489 1.497 1_545 S
C503 C502 1.438 . S
C503 C504 1.360 1_545 S
C504 C503 1.360 1_565 S
C504 C505 1.401 . S
C504 C509 1.446 1_564 S
C505 C504 1.401 . S
C505 C506 1.347 1_554 S
C505 H565 0.929 . S
C506 C505 1.347 1_556 S
C506 C507 1.455 . S
C506 H566 0.930 . S
C507 C494 1.412 . S
C507 C506 1.455 . S
C507 C508 1.331 . S
C508 C497 1.451 1_565 S
C508 C507 1.331 . S
C508 C509 1.497 1_565 S
C509 C500 1.395 . S
C509 C504 1.446 1_546 S
C509 C508 1.497 1_545 S
C510 C511 1.582 . S
C510 H567 0.962 . S
C510 H568 0.959 . S
C510 H569 0.958 . S
C511 C510 1.582 . S
C511 O514 1.458 . S
C511 H540 0.980 . S
O512 C457 1.426 . S
O512 C458 1.334 . S
O513 C485 1.412 . S
O513 C486 1.393 . S
O514 C476 1.435 . S
O514 C511 1.458 . S
O515 C467 1.468 . S
O515 C468 1.408 . S
H516 C457 0.980 . S
H517 C456 0.959 . S
H518 C456 0.959 . S
H519 C456 0.960 . S
H520 C459 0.929 . S
H521 C463 0.929 . S
H522 C464 0.959 . S
H523 C464 0.961 . S
H524 C464 0.961 . S
H525 C465 0.960 . S
H526 C465 0.960 . S
H527 C465 0.961 . S
H528 C467 0.980 . S
H529 C466 0.961 . S
H530 C466 0.960 . S
H531 C466 0.959 . S
H532 C469 0.930 . S
H533 C473 0.931 . S
H534 C474 0.959 . S
H535 C474 0.961 . S
H536 C474 0.959 . S
H537 C475 0.960 . S
H538 C475 0.960 . S
H539 C475 0.960 . S
H540 C511 0.980 . S
H541 C477 0.930 . S
H542 C481 0.930 . S
H543 C482 0.961 . S
H544 C482 0.960 . S
H545 C482 0.958 . S
H546 C483 0.961 . S
H547 C483 0.960 . S
H548 C483 0.960 . S
H549 C485 0.980 . S
H550 C484 0.961 . S
H551 C484 0.961 . S
H552 C484 0.959 . S
H553 C487 0.932 . S
H554 C491 0.929 . S
H555 C492 0.961 1_565 S
H556 C492 0.969 . S
H557 C492 0.950 1_565 S
H558 C493 0.960 . S
H559 C493 0.962 . S
H560 C493 0.961 . S
H561 C495 0.929 . S
H562 C498 0.930 . S
H563 C499 0.929 . S
H564 C502 0.930 . S
H565 C505 0.929 . S
H566 C506 0.930 . S
H567 C510 0.962 . S
H568 C510 0.959 . S
H569 C510 0.958 . S
C570 C571 1.560 . S
C570 H631 0.959 . S
C570 H632 0.959 . S
C570 H633 0.960 . S
C571 C570 1.560 . S
C571 O626 1.426 . S
C571 H630 0.980 . S
C572 C573 1.407 . S
C572 C577 1.418 . S
C572 O626 1.334 . S
C573 C572 1.407 . S
C573 C574 1.360 . S
C573 H634 0.929 . S
C574 C573 1.360 . S
C574 C575 1.401 . S
C574 C578 1.527 . S
C575 C574 1.401 . S
C575 C576 1.405 . S
C575 C608 1.587 . S
C576 C575 1.405 . S
C576 C577 1.332 . S
C576 C579 1.496 . S
C577 C572 1.418 . S
C577 C576 1.332 . S
C577 H635 0.929 . S
C578 C574 1.527 . S
C578 H636 0.959 . S
C578 H637 0.961 . S
C578 H638 0.961 . S
C579 C576 1.496 . S
C579 H639 0.960 . S
C579 H640 0.960 . S
C579 H641 0.961 . S
C580 C581 1.517 . S
C580 H643 0.961 . S
C580 H644 0.960 . S
C580 H645 0.959 . S
C581 C580 1.517 . S
C581 O629 1.468 . S
C581 H642 0.980 . S
C582 C583 1.349 . S
C582 C587 1.367 . S
C582 O629 1.408 . S
C583 C582 1.349 . S
C583 C584 1.407 . S
C583 H646 0.930 . S
C584 C583 1.407 . S
C584 C585 1.449 . S
C584 C588 1.535 . S
C585 C584 1.449 . S
C585 C586 1.384 . S
C585 C610 1.553 . S
C586 C585 1.384 . S
C586 C587 1.364 . S
C586 C589 1.450 . S
C587 C582 1.367 . S
C587 C586 1.364 . S
C587 H647 0.931 . S
C588 C584 1.535 . S
C588 H648 0.959 . S
C588 H649 0.961 . S
C588 H650 0.959 . S
C589 C586 1.450 . S
C589 H651 0.960 . S
C589 H652 0.960 . S
C589 H653 0.960 . S
C590 C591 1.309 . S
C590 C595 1.304 . S
C590 O628 1.435 . S
C591 C590 1.309 . S
C591 C592 1.476 . S
C591 H655 0.930 . S
C592 C591 1.476 . S
C592 C593 1.400 . S
C592 C596 1.567 . S
C593 C592 1.400 . S
C593 C594 1.373 . S
C593 C615 1.432 . S
C594 C593 1.373 . S
C594 C595 1.339 . S
C594 C597 1.530 . S
C595 C590 1.304 . S
C595 C594 1.339 . S
C595 H656 0.930 . S
C596 C592 1.567 . S
C596 H657 0.961 . S
C596 H658 0.960 . S
C596 H659 0.958 . S
C597 C594 1.530 . S
C597 H660 0.961 . S
C597 H661 0.960 . S
C597 H662 0.960 . S
C598 C599 1.530 . S
C598 H664 0.961 . S
C598 H665 0.961 . S
C598 H666 0.959 . S
C599 C598 1.530 . S
C599 O627 1.412 . S
C599 H663 0.980 . S
C600 C601 1.288 . S
C600 C605 1.377 . S
C600 O627 1.393 . S
C601 C600 1.288 . S
C601 C602 1.369 . S
C601 H667 0.932 . S
C602 C601 1.369 . S
C602 C603 1.398 . S
C602 C606 1.527 . S
C603 C602 1.398 . S
C603 C604 1.380 . S
C603 C617 1.497 . S
C604 C603 1.380 . S
C604 C605 1.383 . S
C604 C607 1.603 . S
C605 C600 1.377 . S
C605 C604 1.383 . S
C605 H668 0.929 . S
C606 C602 1.527 . S
C606 H669 0.961 . S
C606 H670 0.959 . S
C606 H671 0.959 . S
C607 C604 1.603 . S
C607 H672 0.960 . S
C607 H673 0.962 . S
C607 H674 0.961 . S
C608 C575 1.587 . S
C608 C609 1.360 . S
C608 C621 1.412 . S
C609 C608 1.360 . S
C609 C610 1.365 . S
C609 H675 0.929 . S
C610 C585 1.553 . S
C610 C609 1.365 . S
C610 C611 1.404 . S
C611 C610 1.404 . S
C611 C612 1.395 . S
C611 C622 1.451 . S
C612 C611 1.395 . S
C612 C613 1.322 . S
C612 H676 0.930 . S
C613 C612 1.322 . S
C613 C614 1.459 . S
C613 H677 0.929 . S
C614 C613 1.459 . S
C614 C615 1.445 . S
C614 C623 1.395 . S
C615 C593 1.432 . S
C615 C614 1.445 . S
C615 C616 1.370 . S
C616 C615 1.370 . S
C616 C617 1.438 . S
C616 H678 0.930 . S
C617 C603 1.497 . S
C617 C616 1.438 . S
C617 C618 1.360 . S
C618 C617 1.360 . S
C618 C619 1.401 . S
C618 C623 1.446 . S
C619 C618 1.401 . S
C619 C620 1.347 . S
C619 H679 0.929 . S
C620 C619 1.347 . S
C620 C621 1.455 . S
C620 H680 0.930 . S
C621 C608 1.412 . S
C621 C620 1.455 . S
C621 C622 1.331 . S
C622 C611 1.451 . S
C622 C621 1.331 . S
C622 C623 1.497 . S
C623 C614 1.395 . S
C623 C618 1.446 . S
C623 C622 1.497 . S
C624 C625 1.582 . S
C624 H681 0.962 . S
C624 H682 0.959 . S
C624 H683 0.958 . S
C625 C624 1.582 . S
C625 O628 1.458 . S
C625 H654 0.980 . S
O626 C571 1.426 . S
O626 C572 1.334 . S
O627 C599 1.412 . S
O627 C600 1.393 . S
O628 C590 1.435 . S
O628 C625 1.458 . S
O629 C581 1.468 . S
O629 C582 1.408 . S
H630 C571 0.980 . S
H631 C570 0.959 . S
H632 C570 0.959 . S
H633 C570 0.960 . S
H634 C573 0.929 . S
H635 C577 0.929 . S
H636 C578 0.959 . S
H637 C578 0.961 . S
H638 C578 0.961 . S
H639 C579 0.960 . S
H640 C579 0.960 . S
H641 C579 0.961 . S
H642 C581 0.980 . S
H643 C580 0.961 . S
H644 C580 0.960 . S
H645 C580 0.959 . S
H646 C583 0.930 . S
H647 C587 0.931 . S
H648 C588 0.959 . S
H649 C588 0.961 . S
H650 C588 0.959 . S
H651 C589 0.960 . S
H652 C589 0.960 . S
H653 C589 0.960 . S
H654 C625 0.980 . S
H655 C591 0.930 . S
H656 C595 0.930 . S
H657 C596 0.961 . S
H658 C596 0.960 . S
H659 C596 0.958 . S
H660 C597 0.961 . S
H661 C597 0.960 . S
H662 C597 0.960 . S
H663 C599 0.980 . S
H664 C598 0.961 . S
H665 C598 0.961 . S
H666 C598 0.959 . S
H667 C601 0.932 . S
H668 C605 0.929 . S
H669 C606 0.961 . S
H670 C606 0.959 . S
H671 C606 0.959 . S
H672 C607 0.960 . S
H673 C607 0.962 . S
H674 C607 0.961 . S
H675 C609 0.929 . S
H676 C612 0.930 . S
H677 C613 0.929 . S
H678 C616 0.930 . S
H679 C619 0.929 . S
H680 C620 0.930 . S
H681 C624 0.962 . S
H682 C624 0.959 . S
H683 C624 0.958 . S
Zn684 O687 2.031 . S
Zn684 O689 2.049 . S
Zn684 O694 2.067 . S
Zn685 O686 1.962 . S
Zn685 O688 1.986 . S
Zn685 O690 1.996 . S
Zn685 O693 1.943 . S
O686 Zn685 1.962 . S
O686 C691 1.254 . S
O687 Zn684 2.031 . S
O687 C691 1.269 . S
O688 Zn685 1.986 . S
O688 C695 1.262 . S
O689 Zn684 2.049 . S
O689 C697 1.260 . S
O690 Zn685 1.996 . S
O690 C697 1.257 . S
C691 O686 1.254 . S
C691 O687 1.269 . S
C692 O693 1.249 . S
C692 O694 1.270 . S
O693 Zn685 1.943 . S
O693 C692 1.249 . S
O694 Zn684 2.067 . S
O694 C692 1.270 . S
C695 O688 1.262 . S
C695 O696 1.232 . S
O696 C695 1.232 . S
C697 O689 1.260 . S
C697 O690 1.257 . S
Zn698 O701 2.031 . S
Zn698 O703 2.049 . S
Zn698 O708 2.067 . S
Zn699 O700 1.962 . S
Zn699 O702 1.986 . S
Zn699 O704 1.996 . S
Zn699 O707 1.943 . S
O700 Zn699 1.962 . S
O700 C705 1.254 . S
O701 Zn698 2.031 . S
O701 C705 1.269 . S
O702 Zn699 1.986 . S
O702 C709 1.262 . S
O703 Zn698 2.049 . S
O703 C711 1.260 . S
O704 Zn699 1.996 . S
O704 C711 1.257 . S
C705 O700 1.254 . S
C705 O701 1.269 . S
C706 O707 1.249 . S
C706 O708 1.270 . S
O707 Zn699 1.943 . S
O707 C706 1.249 . S
O708 Zn698 2.067 . S
O708 C706 1.270 . S
C709 O702 1.262 . S
C709 O710 1.232 . S
O710 C709 1.232 . S
C711 O703 1.260 . S
C711 O704 1.257 . S
Zn712 O715 2.031 . S
Zn712 O717 2.049 . S
Zn712 O722 2.067 . S
Zn713 O714 1.962 . S
Zn713 O716 1.986 . S
Zn713 O718 1.996 . S
Zn713 O721 1.943 . S
O714 Zn713 1.962 . S
O714 C719 1.254 . S
O715 Zn712 2.031 . S
O715 C719 1.269 . S
O716 Zn713 1.986 . S
O716 C723 1.262 . S
O717 Zn712 2.049 . S
O717 C725 1.260 . S
O718 Zn713 1.996 . S
O718 C725 1.257 . S
C719 O714 1.254 . S
C719 O715 1.269 . S
C720 O721 1.249 . S
C720 O722 1.270 . S
O721 Zn713 1.943 . S
O721 C720 1.249 . S
O722 Zn712 2.067 . S
O722 C720 1.270 . S
C723 O716 1.262 . S
C723 O724 1.232 . S
O724 C723 1.232 . S
C725 O717 1.260 . S
C725 O718 1.257 . S
Zn726 O729 2.031 . S
Zn726 O731 2.049 . S
Zn726 O736 2.067 . S
Zn727 O728 1.962 . S
Zn727 O730 1.986 . S
Zn727 O732 1.996 . S
Zn727 O735 1.943 . S
O728 Zn727 1.962 . S
O728 C733 1.254 . S
O729 Zn726 2.031 . S
O729 C733 1.269 . S
O730 Zn727 1.986 . S
O730 C737 1.262 . S
O731 Zn726 2.049 . S
O731 C739 1.260 . S
O732 Zn727 1.996 . S
O732 C739 1.257 . S
C733 O728 1.254 . S
C733 O729 1.269 . S
C734 O735 1.249 . S
C734 O736 1.270 . S
O735 Zn727 1.943 . S
O735 C734 1.249 . S
O736 Zn726 2.067 . S
O736 C734 1.270 . S
C737 O730 1.262 . S
C737 O738 1.232 . S
O738 C737 1.232 . S
C739 O731 1.260 . S
C739 O732 1.257 . S
Zn740 O743 2.031 . S
Zn740 O745 2.049 . S
Zn740 O750 2.067 . S
Zn741 O742 1.962 . S
Zn741 O744 1.986 . S
Zn741 O746 1.996 . S
Zn741 O749 1.943 . S
O742 Zn741 1.962 . S
O742 C747 1.254 . S
O743 Zn740 2.031 . S
O743 C747 1.269 . S
O744 Zn741 1.986 . S
O744 C751 1.262 . S
O745 Zn740 2.049 . S
O745 C753 1.260 . S
O746 Zn741 1.996 . S
O746 C753 1.257 . S
C747 O742 1.254 . S
C747 O743 1.269 . S
C748 O749 1.249 . S
C748 O750 1.270 . S
O749 Zn741 1.943 . S
O749 C748 1.249 . S
O750 Zn740 2.067 . S
O750 C748 1.270 . S
C751 O744 1.262 . S
C751 O752 1.232 . S
O752 C751 1.232 . S
C753 O745 1.260 . S
C753 O746 1.257 . S
Zn754 O757 2.031 . S
Zn754 O759 2.049 . S
Zn754 O764 2.067 . S
Zn755 O756 1.962 . S
Zn755 O758 1.986 . S
Zn755 O760 1.996 . S
Zn755 O763 1.943 . S
O756 Zn755 1.962 . S
O756 C761 1.254 . S
O757 Zn754 2.031 . S
O757 C761 1.269 . S
O758 Zn755 1.986 . S
O758 C765 1.262 . S
O759 Zn754 2.049 . S
O759 C767 1.260 . S
O760 Zn755 1.996 . S
O760 C767 1.257 . S
C761 O756 1.254 . S
C761 O757 1.269 . S
C762 O763 1.249 . S
C762 O764 1.270 . S
O763 Zn755 1.943 . S
O763 C762 1.249 . S
O764 Zn754 2.067 . S
O764 C762 1.270 . S
C765 O758 1.262 . S
C765 O766 1.232 . S
O766 C765 1.232 . S
C767 O759 1.260 . S
C767 O760 1.257 . S
H768 C774 0.930 . S
H769 C777 0.930 . S
H770 C778 0.930 . S
H771 C779 0.930 . S
H772 C782 0.930 . S
H773 C783 0.930 . S
C774 H768 0.930 . S
C774 C775 1.355 . S
C774 C776 1.415 . S
C775 C774 1.355 . S
C775 C777 1.419 . S
C776 C774 1.415 . S
C776 C781 1.425 . S
C776 C783 1.409 . S
C777 H769 0.930 . S
C777 C775 1.419 . S
C777 C778 1.362 . S
C778 H770 0.930 . S
C778 C777 1.362 . S
C778 C781 1.409 . S
C779 H771 0.930 . S
C779 C780 1.355 . S
C779 C781 1.415 . S
C780 C779 1.355 . S
C780 C782 1.419 . S
C781 C776 1.425 . S
C781 C778 1.409 . S
C781 C779 1.415 . S
C782 H772 0.930 . S
C782 C780 1.419 . S
C782 C783 1.362 . S
C783 H773 0.930 . S
C783 C776 1.409 . S
C783 C782 1.362 . S
H784 C790 0.930 . S
H785 C793 0.930 . S
H786 C794 0.930 . S
H787 C795 0.930 . S
H788 C798 0.930 . S
H789 C799 0.930 . S
C790 H784 0.930 . S
C790 C791 1.355 . S
C790 C792 1.415 . S
C791 C790 1.355 . S
C791 C793 1.419 . S
C792 C790 1.415 . S
C792 C797 1.425 . S
C792 C799 1.409 . S
C793 H785 0.930 . S
C793 C791 1.419 . S
C793 C794 1.362 . S
C794 H786 0.930 . S
C794 C793 1.362 . S
C794 C797 1.409 . S
C795 H787 0.930 . S
C795 C796 1.355 . S
C795 C797 1.415 . S
C796 C795 1.355 . S
C796 C798 1.419 . S
C797 C792 1.425 . S
C797 C794 1.409 . S
C797 C795 1.415 . S
C798 H788 0.930 . S
C798 C796 1.419 . S
C798 C799 1.362 . S
C799 H789 0.930 . S
C799 C792 1.409 . S
C799 C798 1.362 . S
H800 C806 0.930 . S
H801 C809 0.930 . S
H802 C810 0.930 . S
H803 C811 0.930 . S
H804 C814 0.930 . S
H805 C815 0.930 . S
C806 H800 0.930 . S
C806 C807 1.355 . S
C806 C808 1.415 . S
C807 C806 1.355 . S
C807 C809 1.419 . S
C808 C806 1.415 . S
C808 C813 1.425 . S
C808 C815 1.409 . S
C809 H801 0.930 . S
C809 C807 1.419 . S
C809 C810 1.362 . S
C810 H802 0.930 . S
C810 C809 1.362 . S
C810 C813 1.409 . S
C811 H803 0.930 . S
C811 C812 1.355 . S
C811 C813 1.415 . S
C812 C811 1.355 . S
C812 C814 1.419 . S
C813 C808 1.425 . S
C813 C810 1.409 . S
C813 C811 1.415 . S
C814 H804 0.930 . S
C814 C812 1.419 . S
C814 C815 1.362 . S
C815 H805 0.930 . S
C815 C808 1.409 . S
C815 C814 1.362 . S
H816 C822 0.930 . S
H817 C825 0.930 . S
H818 C826 0.930 . S
H819 C827 0.930 . S
H820 C830 0.930 . S
H821 C831 0.930 . S
C822 H816 0.930 . S
C822 C823 1.355 . S
C822 C824 1.415 . S
C823 C822 1.355 . S
C823 C825 1.419 . S
C824 C822 1.415 . S
C824 C829 1.425 . S
C824 C831 1.409 . S
C825 H817 0.930 . S
C825 C823 1.419 . S
C825 C826 1.362 . S
C826 H818 0.930 . S
C826 C825 1.362 . S
C826 C829 1.409 . S
C827 H819 0.930 . S
C827 C828 1.355 . S
C827 C829 1.415 . S
C828 C827 1.355 . S
C828 C830 1.419 . S
C829 C824 1.425 . S
C829 C826 1.409 . S
C829 C827 1.415 . S
C830 H820 0.930 . S
C830 C828 1.419 . S
C830 C831 1.362 . S
C831 H821 0.930 . S
C831 C824 1.409 . S
C831 C830 1.362 . S
H832 C838 0.930 . S
H833 C841 0.930 . S
H834 C842 0.930 . S
H835 C843 0.930 . S
H836 C846 0.930 . S
H837 C847 0.930 . S
C838 H832 0.930 . S
C838 C839 1.355 . S
C838 C840 1.415 . S
C839 C838 1.355 . S
C839 C841 1.419 . S
C840 C838 1.415 . S
C840 C845 1.425 . S
C840 C847 1.409 . S
C841 H833 0.930 . S
C841 C839 1.419 . S
C841 C842 1.362 . S
C842 H834 0.930 . S
C842 C841 1.362 . S
C842 C845 1.409 . S
C843 H835 0.930 . S
C843 C844 1.355 . S
C843 C845 1.415 . S
C844 C843 1.355 . S
C844 C846 1.419 . S
C845 C840 1.425 . S
C845 C842 1.409 . S
C845 C843 1.415 . S
C846 H836 0.930 . S
C846 C844 1.419 . S
C846 C847 1.362 . S
C847 H837 0.930 . S
C847 C840 1.409 . S
C847 C846 1.362 . S
H848 C854 0.930 . S
H849 C857 0.930 . S
H850 C858 0.930 . S
H851 C859 0.930 . S
H852 C862 0.930 . S
H853 C863 0.930 . S
C854 H848 0.930 . S
C854 C855 1.355 . S
C854 C856 1.415 . S
C855 C854 1.355 . S
C855 C857 1.419 . S
C856 C854 1.415 . S
C856 C861 1.425 . S
C856 C863 1.409 . S
C857 H849 0.930 . S
C857 C855 1.419 . S
C857 C858 1.362 . S
C858 H850 0.930 . S
C858 C857 1.362 . S
C858 C861 1.409 . S
C859 H851 0.930 . S
C859 C860 1.355 . S
C859 C861 1.415 . S
C860 C859 1.355 . S
C860 C862 1.419 . S
C861 C856 1.425 . S
C861 C858 1.409 . S
C861 C859 1.415 . S
C862 H852 0.930 . S
C862 C860 1.419 . S
C862 C863 1.362 . S
C863 H853 0.930 . S
C863 C856 1.409 . S
C863 C862 1.362 . S
H864 C870 0.930 . S
H865 C873 0.930 . S
H866 C874 0.930 . S
H867 C875 0.930 . S
H868 C878 0.930 . S
H869 C879 0.930 . S
C870 H864 0.930 . S
C870 C871 1.355 . S
C870 C872 1.415 . S
C871 C870 1.355 . S
C871 C873 1.419 . S
C872 C870 1.415 . S
C872 C877 1.425 . S
C872 C879 1.409 . S
C873 H865 0.930 . S
C873 C871 1.419 . S
C873 C874 1.362 . S
C874 H866 0.930 . S
C874 C873 1.362 . S
C874 C877 1.409 . S
C875 H867 0.930 . S
C875 C876 1.355 . S
C875 C877 1.415 . S
C876 C875 1.355 . S
C876 C878 1.419 . S
C877 C872 1.425 . S
C877 C874 1.409 . S
C877 C875 1.415 . S
C878 H868 0.930 . S
C878 C876 1.419 . S
C878 C879 1.362 . S
C879 H869 0.930 . S
C879 C872 1.409 . S
C879 C878 1.362 . S
H880 C886 0.930 . S
H881 C889 0.930 . S
H882 C890 0.930 . S
H883 C891 0.930 . S
H884 C894 0.930 . S
H885 C895 0.930 . S
C886 H880 0.930 . S
C886 C887 1.355 . S
C886 C888 1.415 . S
C887 C886 1.355 . S
C887 C889 1.419 . S
C888 C886 1.415 . S
C888 C893 1.425 . S
C888 C895 1.409 . S
C889 H881 0.930 . S
C889 C887 1.419 . S
C889 C890 1.362 . S
C890 H882 0.930 . S
C890 C889 1.362 . S
C890 C893 1.409 . S
C891 H883 0.930 . S
C891 C892 1.355 . S
C891 C893 1.415 . S
C892 C891 1.355 . S
C892 C894 1.419 . S
C893 C888 1.425 . S
C893 C890 1.409 . S
C893 C891 1.415 . S
C894 H884 0.930 . S
C894 C892 1.419 . S
C894 C895 1.362 . S
C895 H885 0.930 . S
C895 C888 1.409 . S
C895 C894 1.362 . S
H896 C902 0.930 . S
H897 C905 0.930 . S
H898 C906 0.930 . S
H899 C907 0.930 . S
H900 C910 0.930 . S
H901 C911 0.930 . S
C902 H896 0.930 . S
C902 C903 1.355 . S
C902 C904 1.415 . S
C903 C902 1.355 . S
C903 C905 1.419 . S
C904 C902 1.415 . S
C904 C909 1.425 . S
C904 C911 1.409 . S
C905 H897 0.930 . S
C905 C903 1.419 . S
C905 C906 1.362 . S
C906 H898 0.930 . S
C906 C905 1.362 . S
C906 C909 1.409 . S
C907 H899 0.930 . S
C907 C908 1.355 . S
C907 C909 1.415 . S
C908 C907 1.355 . S
C908 C910 1.419 . S
C909 C904 1.425 . S
C909 C906 1.409 . S
C909 C907 1.415 . S
C910 H900 0.930 . S
C910 C908 1.419 . S
C910 C911 1.362 . S
C911 H901 0.930 . S
C911 C904 1.409 . S
C911 C910 1.362 . S
H912 C918 0.930 . S
H913 C921 0.930 . S
H914 C922 0.930 . S
H915 C923 0.930 . S
H916 C926 0.930 . S
H917 C927 0.930 . S
C918 H912 0.930 . S
C918 C919 1.355 . S
C918 C920 1.415 . S
C919 C918 1.355 . S
C919 C921 1.419 . S
C920 C918 1.415 . S
C920 C925 1.425 . S
C920 C927 1.409 . S
C921 H913 0.930 . S
C921 C919 1.419 . S
C921 C922 1.362 . S
C922 H914 0.930 . S
C922 C921 1.362 . S
C922 C925 1.409 . S
C923 H915 0.930 . S
C923 C924 1.355 . S
C923 C925 1.415 . S
C924 C923 1.355 . S
C924 C926 1.419 . S
C925 C920 1.425 . S
C925 C922 1.409 . S
C925 C923 1.415 . S
C926 H916 0.930 . S
C926 C924 1.419 . S
C926 C927 1.362 . S
C927 H917 0.930 . S
C927 C920 1.409 . S
C927 C926 1.362 . S
H928 C934 0.930 . S
H929 C937 0.930 . S
H930 C938 0.930 . S
H931 C939 0.930 . S
H932 C942 0.930 . S
H933 C943 0.930 . S
C934 H928 0.930 . S
C934 C935 1.355 . S
C934 C936 1.415 . S
C935 C934 1.355 . S
C935 C937 1.419 . S
C936 C934 1.415 . S
C936 C941 1.425 . S
C936 C943 1.409 . S
C937 H929 0.930 . S
C937 C935 1.419 . S
C937 C938 1.362 . S
C938 H930 0.930 . S
C938 C937 1.362 . S
C938 C941 1.409 . S
C939 H931 0.930 . S
C939 C940 1.355 . S
C939 C941 1.415 . S
C940 C939 1.355 . S
C940 C942 1.419 . S
C941 C936 1.425 . S
C941 C938 1.409 . S
C941 C939 1.415 . S
C942 H932 0.930 . S
C942 C940 1.419 . S
C942 C943 1.362 . S
C943 H933 0.930 . S
C943 C936 1.409 . S
C943 C942 1.362 . S
H944 C950 0.930 . S
H945 C953 0.930 . S
H946 C954 0.930 . S
H947 C955 0.930 . S
H948 C958 0.930 . S
H949 C959 0.930 . S
C950 H944 0.930 . S
C950 C951 1.355 . S
C950 C952 1.415 . S
C951 C950 1.355 . S
C951 C953 1.419 . S
C952 C950 1.415 . S
C952 C957 1.425 . S
C952 C959 1.409 . S
C953 H945 0.930 . S
C953 C951 1.419 . S
C953 C954 1.362 . S
C954 H946 0.930 . S
C954 C953 1.362 . S
C954 C957 1.409 . S
C955 H947 0.930 . S
C955 C956 1.355 . S
C955 C957 1.415 . S
C956 C955 1.355 . S
C956 C958 1.419 . S
C957 C952 1.425 . S
C957 C954 1.409 . S
C957 C955 1.415 . S
C958 H948 0.930 . S
C958 C956 1.419 . S
C958 C959 1.362 . S
C959 H949 0.930 . S
C959 C952 1.409 . S
C959 C958 1.362 . S
H960 C966 0.930 . S
H961 C969 0.930 . S
H962 C970 0.930 . S
H963 C971 0.930 . S
H964 C974 0.930 . S
H965 C975 0.930 . S
C966 H960 0.930 . S
C966 C967 1.355 . S
C966 C968 1.415 . S
C967 C966 1.355 . S
C967 C969 1.419 . S
C968 C966 1.415 . S
C968 C973 1.425 . S
C968 C975 1.409 . S
C969 H961 0.930 . S
C969 C967 1.419 . S
C969 C970 1.362 . S
C970 H962 0.930 . S
C970 C969 1.362 . S
C970 C973 1.409 . S
C971 H963 0.930 . S
C971 C972 1.355 . S
C971 C973 1.415 . S
C972 C971 1.355 . S
C972 C974 1.419 . S
C973 C968 1.425 . S
C973 C970 1.409 . S
C973 C971 1.415 . S
C974 H964 0.930 . S
C974 C972 1.419 . S
C974 C975 1.362 . S
C975 H965 0.930 . S
C975 C968 1.409 . S
C975 C974 1.362 . S
H976 C982 0.930 . S
H977 C985 0.930 . S
H978 C986 0.930 . S
H979 C987 0.930 . S
H980 C990 0.930 . S
H981 C991 0.930 . S
C982 H976 0.930 . S
C982 C983 1.355 . S
C982 C984 1.415 . S
C983 C982 1.355 . S
C983 C985 1.419 . S
C984 C982 1.415 . S
C984 C989 1.425 . S
C984 C991 1.409 . S
C985 H977 0.930 . S
C985 C983 1.419 . S
C985 C986 1.362 . S
C986 H978 0.930 . S
C986 C985 1.362 . S
C986 C989 1.409 . S
C987 H979 0.930 . S
C987 C988 1.355 . S
C987 C989 1.415 . S
C988 C987 1.355 . S
C988 C990 1.419 . S
C989 C984 1.425 . S
C989 C986 1.409 . S
C989 C987 1.415 . S
C990 H980 0.930 . S
C990 C988 1.419 . S
C990 C991 1.362 . S
C991 H981 0.930 . S
C991 C984 1.409 . S
C991 C990 1.362 . S
H992 C998 0.930 . S
H993 C1001 0.930 . S
H994 C1002 0.930 . S
H995 C1003 0.930 . S
H996 C1006 0.930 . S
H997 C1007 0.930 . S
C998 H992 0.930 . S
C998 C999 1.355 . S
C998 C1000 1.415 . S
C999 C998 1.355 . S
C999 C1001 1.419 . S
C1000 C998 1.415 . S
C1000 C1005 1.425 . S
C1000 C1007 1.409 . S
C1001 H993 0.930 . S
C1001 C999 1.419 . S
C1001 C1002 1.362 . S
C1002 H994 0.930 . S
C1002 C1001 1.362 . S
C1002 C1005 1.409 . S
C1003 H995 0.930 . S
C1003 C1004 1.355 . S
C1003 C1005 1.415 . S
C1004 C1003 1.355 . S
C1004 C1006 1.419 . S
C1005 C1000 1.425 . S
C1005 C1002 1.409 . S
C1005 C1003 1.415 . S
C1006 H996 0.930 . S
C1006 C1004 1.419 . S
C1006 C1007 1.362 . S
C1007 H997 0.930 . S
C1007 C1000 1.409 . S
C1007 C1006 1.362 . S
H1008 C1014 0.930 . S
H1009 C1017 0.930 . S
H1010 C1018 0.930 . S
H1011 C1019 0.930 . S
H1012 C1022 0.930 . S
H1013 C1023 0.930 . S
C1014 H1008 0.930 . S
C1014 C1015 1.355 . S
C1014 C1016 1.415 . S
C1015 C1014 1.355 . S
C1015 C1017 1.419 . S
C1016 C1014 1.415 . S
C1016 C1021 1.425 . S
C1016 C1023 1.409 . S
C1017 H1009 0.930 . S
C1017 C1015 1.419 . S
C1017 C1018 1.362 . S
C1018 H1010 0.930 . S
C1018 C1017 1.362 . S
C1018 C1021 1.409 . S
C1019 H1011 0.930 . S
C1019 C1020 1.355 . S
C1019 C1021 1.415 1_554 S
C1020 C1019 1.355 . S
C1020 C1022 1.419 . S
C1021 C1016 1.425 . S
C1021 C1018 1.409 . S
C1021 C1019 1.415 1_556 S
C1022 H1012 0.930 . S
C1022 C1020 1.419 . S
C1022 C1023 1.362 1_554 S
C1023 H1013 0.930 . S
C1023 C1016 1.409 . S
C1023 C1022 1.362 1_556 S
H1024 C1030 0.930 . S
H1025 C1033 0.930 . S
H1026 C1034 0.930 . S
H1027 C1035 0.930 . S
H1028 C1038 0.930 . S
H1029 C1039 0.930 . S
C1030 H1024 0.930 . S
C1030 C1031 1.355 . S
C1030 C1032 1.415 . S
C1031 C1030 1.355 . S
C1031 C1033 1.419 . S
C1032 C1030 1.415 . S
C1032 C1037 1.425 . S
C1032 C1039 1.409 . S
C1033 H1025 0.930 . S
C1033 C1031 1.419 . S
C1033 C1034 1.362 . S
C1034 H1026 0.930 . S
C1034 C1033 1.362 . S
C1034 C1037 1.409 . S
C1035 H1027 0.930 . S
C1035 C1036 1.355 . S
C1035 C1037 1.415 . S
C1036 C1035 1.355 . S
C1036 C1038 1.419 . S
C1037 C1032 1.425 . S
C1037 C1034 1.409 . S
C1037 C1035 1.415 . S
C1038 H1028 0.930 . S
C1038 C1036 1.419 . S
C1038 C1039 1.362 . S
C1039 H1029 0.930 . S
C1039 C1032 1.409 . S
C1039 C1038 1.362 . S
H1040 C1046 0.930 . S
H1041 C1049 0.930 . S
H1042 C1050 0.930 . S
H1043 C1051 0.930 . S
H1044 C1054 0.930 . S
H1045 C1055 0.930 . S
C1046 H1040 0.930 . S
C1046 C1047 1.355 . S
C1046 C1048 1.415 . S
C1047 C1046 1.355 . S
C1047 C1049 1.419 . S
C1048 C1046 1.415 . S
C1048 C1053 1.425 . S
C1048 C1055 1.409 . S
C1049 H1041 0.930 . S
C1049 C1047 1.419 . S
C1049 C1050 1.362 . S
C1050 H1042 0.930 . S
C1050 C1049 1.362 . S
C1050 C1053 1.409 . S
C1051 H1043 0.930 . S
C1051 C1052 1.355 . S
C1051 C1053 1.415 . S
C1052 C1051 1.355 . S
C1052 C1054 1.419 . S
C1053 C1048 1.425 . S
C1053 C1050 1.409 . S
C1053 C1051 1.415 . S
C1054 H1044 0.930 . S
C1054 C1052 1.419 . S
C1054 C1055 1.362 . S
C1055 H1045 0.930 . S
C1055 C1048 1.409 . S
C1055 C1054 1.362 . S
H1056 C1062 0.930 . S
H1057 C1065 0.930 . S
H1058 C1066 0.930 . S
H1059 C1067 0.930 . S
H1060 C1070 0.930 . S
H1061 C1071 0.930 . S
C1062 H1056 0.930 . S
C1062 C1063 1.355 . S
C1062 C1064 1.415 . S
C1063 C1062 1.355 . S
C1063 C1065 1.419 . S
C1064 C1062 1.415 . S
C1064 C1069 1.425 . S
C1064 C1071 1.409 . S
C1065 H1057 0.930 . S
C1065 C1063 1.419 . S
C1065 C1066 1.362 . S
C1066 H1058 0.930 . S
C1066 C1065 1.362 . S
C1066 C1069 1.409 . S
C1067 H1059 0.930 . S
C1067 C1068 1.355 . S
C1067 C1069 1.415 . S
C1068 C1067 1.355 . S
C1068 C1070 1.419 . S
C1069 C1064 1.425 . S
C1069 C1066 1.409 . S
C1069 C1067 1.415 . S
C1070 H1060 0.930 . S
C1070 C1068 1.419 . S
C1070 C1071 1.362 . S
C1071 H1061 0.930 . S
C1071 C1064 1.409 . S
C1071 C1070 1.362 . S
H1072 C1078 0.930 . S
H1073 C1081 0.930 . S
H1074 C1082 0.930 . S
H1075 C1083 0.930 . S
H1076 C1086 0.930 . S
H1077 C1087 0.930 . S
C1078 H1072 0.930 . S
C1078 C1079 1.355 . S
C1078 C1080 1.415 . S
C1079 C1078 1.355 . S
C1079 C1081 1.419 . S
C1080 C1078 1.415 . S
C1080 C1085 1.425 . S
C1080 C1087 1.409 . S
C1081 H1073 0.930 . S
C1081 C1079 1.419 . S
C1081 C1082 1.362 . S
C1082 H1074 0.930 . S
C1082 C1081 1.362 . S
C1082 C1085 1.409 . S
C1083 H1075 0.930 . S
C1083 C1084 1.355 . S
C1083 C1085 1.415 . S
C1084 C1083 1.355 . S
C1084 C1086 1.419 . S
C1085 C1080 1.425 . S
C1085 C1082 1.409 . S
C1085 C1083 1.415 . S
C1086 H1076 0.930 . S
C1086 C1084 1.419 . S
C1086 C1087 1.362 . S
C1087 H1077 0.930 . S
C1087 C1080 1.409 . S
C1087 C1086 1.362 . S
H1088 C1094 0.930 . S
H1089 C1097 0.930 . S
H1090 C1098 0.930 . S
H1091 C1099 0.930 . S
H1092 C1102 0.930 . S
H1093 C1103 0.930 . S
C1094 H1088 0.930 . S
C1094 C1095 1.355 . S
C1094 C1096 1.415 . S
C1095 C1094 1.355 . S
C1095 C1097 1.419 . S
C1096 C1094 1.415 . S
C1096 C1101 1.425 . S
C1096 C1103 1.409 . S
C1097 H1089 0.930 . S
C1097 C1095 1.419 . S
C1097 C1098 1.362 . S
C1098 H1090 0.930 . S
C1098 C1097 1.362 . S
C1098 C1101 1.409 . S
C1099 H1091 0.930 . S
C1099 C1100 1.355 . S
C1099 C1101 1.415 . S
C1100 C1099 1.355 . S
C1100 C1102 1.419 . S
C1101 C1096 1.425 . S
C1101 C1098 1.409 . S
C1101 C1099 1.415 . S
C1102 H1092 0.930 . S
C1102 C1100 1.419 . S
C1102 C1103 1.362 . S
C1103 H1093 0.930 . S
C1103 C1096 1.409 . S
C1103 C1102 1.362 . S
H1104 C1110 0.930 . S
H1105 C1113 0.930 . S
H1106 C1114 0.930 . S
H1107 C1115 0.930 . S
H1108 C1118 0.930 . S
H1109 C1119 0.930 . S
C1110 H1104 0.930 . S
C1110 C1111 1.355 . S
C1110 C1112 1.415 . S
C1111 C1110 1.355 . S
C1111 C1113 1.419 . S
C1112 C1110 1.415 . S
C1112 C1117 1.425 . S
C1112 C1119 1.409 . S
C1113 H1105 0.930 . S
C1113 C1111 1.419 . S
C1113 C1114 1.362 . S
C1114 H1106 0.930 . S
C1114 C1113 1.362 . S
C1114 C1117 1.409 . S
C1115 H1107 0.930 . S
C1115 C1116 1.355 . S
C1115 C1117 1.415 . S
C1116 C1115 1.355 . S
C1116 C1118 1.419 . S
C1117 C1112 1.425 . S
C1117 C1114 1.409 . S
C1117 C1115 1.415 . S
C1118 H1108 0.930 . S
C1118 C1116 1.419 . S
C1118 C1119 1.362 . S
C1119 H1109 0.930 . S
C1119 C1112 1.409 . S
C1119 C1118 1.362 . S
H1120 C1126 0.930 . S
H1121 C1129 0.930 . S
H1122 C1130 0.930 . S
H1123 C1131 0.930 . S
H1124 C1134 0.930 . S
H1125 C1135 0.930 . S
C1126 H1120 0.930 . S
C1126 C1127 1.355 . S
C1126 C1128 1.415 1_554 S
C1127 C1126 1.355 . S
C1127 C1129 1.419 . S
C1128 C1126 1.415 1_556 S
C1128 C1133 1.425 . S
C1128 C1135 1.409 . S
C1129 H1121 0.930 . S
C1129 C1127 1.419 . S
C1129 C1130 1.362 . S
C1130 H1122 0.930 . S
C1130 C1129 1.362 . S
C1130 C1133 1.409 1_554 S
C1131 H1123 0.930 . S
C1131 C1132 1.355 . S
C1131 C1133 1.415 . S
C1132 C1131 1.355 . S
C1132 C1134 1.419 . S
C1133 C1128 1.425 . S
C1133 C1130 1.409 1_556 S
C1133 C1131 1.415 . S
C1134 H1124 0.930 . S
C1134 C1132 1.419 . S
C1134 C1135 1.362 . S
C1135 H1125 0.930 . S
C1135 C1128 1.409 . S
C1135 C1134 1.362 . S
H1136 C1142 0.930 . S
H1137 C1145 0.930 . S
H1138 C1146 0.930 . S
H1139 C1147 0.930 . S
H1140 C1150 0.930 . S
H1141 C1151 0.930 . S
C1142 H1136 0.930 . S
C1142 C1143 1.355 . S
C1142 C1144 1.415 . S
C1143 C1142 1.355 . S
C1143 C1145 1.419 . S
C1144 C1142 1.415 . S
C1144 C1149 1.425 . S
C1144 C1151 1.409 . S
C1145 H1137 0.930 . S
C1145 C1143 1.419 . S
C1145 C1146 1.362 . S
C1146 H1138 0.930 . S
C1146 C1145 1.362 . S
C1146 C1149 1.409 . S
C1147 H1139 0.930 . S
C1147 C1148 1.355 . S
C1147 C1149 1.415 . S
C1148 C1147 1.355 . S
C1148 C1150 1.419 . S
C1149 C1144 1.425 . S
C1149 C1146 1.409 . S
C1149 C1147 1.415 . S
C1150 H1140 0.930 . S
C1150 C1148 1.419 . S
C1150 C1151 1.362 . S
C1151 H1141 0.930 . S
C1151 C1144 1.409 . S
C1151 C1150 1.362 . S
C780 C761 1.636 . S
C775 C1 1.201 . S
C791 C169 1.381 . S
C796 C695 1.655 . S
C807 C283 1.477 . S
C812 C709 1.555 . S
C823 C397 1.406 . S
C828 C723 1.490 . S
C844 C737 1.567 . S
C839 C457 1.141 . S
C855 C571 1.060 . S
C860 C747 1.503 . S
C871 C115 1.300 . S
C876 C705 1.673 . S
C887 C229 1.254 . S
C892 C719 1.700 . S
C903 C343 1.162 . S
C908 C733 1.555 . S
C924 C751 1.627 . S
C919 C511 1.442 . S
C940 C765 1.719 . S
C935 C625 1.426 . S
C956 C691 1.751 . S
C951 C55 1.521 . S
C967 C29 1.139 . S
C972 C706 1.354 . S
C983 C125 0.966 . S
C988 C720 1.529 . S
C1004 C734 1.477 . S
C999 C239 1.031 . S
C1015 C353 0.911 . S
C1020 C753 1.359 . S
C1036 C767 1.255 . S
C1031 C485 1.004 . S
C1052 C692 1.335 . S
C1047 C599 1.042 . S
C1068 C762 1.369 . S
C1063 C143 1.241 . S
C1079 C257 1.014 . S
C1084 C697 1.247 . S
C1100 C711 1.180 . S
C1095 C371 0.919 . S
C1111 C467 0.952 . S
C1116 C725 1.329 . S
C1127 C581 0.984 . S
C1132 C739 1.376 . S
C1143 C11 1.008 . S
C1148 C748 1.482 . S
