# Generated by pormake.
# Topology the, (3,8)-cn, num edge types: 1
# Building blocks:
#     Node 0, Type 0, BuildingBlock: BELTOD_clean_linker_0, # of connection points: 3
#     Node 1, Type 0, BuildingBlock: BELTOD_clean_linker_0, # of connection points: 3
#     Node 2, Type 0, BuildingBlock: BELTOD_clean_linker_0, # of connection points: 3
#     Node 3, Type 0, BuildingBlock: BELTOD_clean_linker_0, # of connection points: 3
#     Node 4, Type 0, BuildingBlock: BELTOD_clean_linker_0, # of connection points: 3
#     Node 5, Type 0, BuildingBlock: BELTOD_clean_linker_0, # of connection points: 3
#     Node 6, Type 0, BuildingBlock: BELTOD_clean_linker_0, # of connection points: 3
#     Node 7, Type 0, BuildingBlock: BELTOD_clean_linker_0, # of connection points: 3
#     Node 8, Type 1, BuildingBlock: GIZVER_clean_sbu_0, # of connection points: 8
#     Node 9, Type 1, BuildingBlock: GIZVER_clean_sbu_0, # of connection points: 8
#     Node 10, Type 1, BuildingBlock: GIZVER_clean_sbu_0, # of connection points: 8
#     Edge 11, Type (0, 1), BuildingBlock: KIFKEQ_clean_linker_1, # of connection points: 2
#     Edge 12, Type (0, 1), BuildingBlock: KIFKEQ_clean_linker_1, # of connection points: 2
#     Edge 13, Type (0, 1), BuildingBlock: KIFKEQ_clean_linker_1, # of connection points: 2
#     Edge 14, Type (0, 1), BuildingBlock: KIFKEQ_clean_linker_1, # of connection points: 2
#     Edge 15, Type (0, 1), BuildingBlock: KIFKEQ_clean_linker_1, # of connection points: 2
#     Edge 16, Type (0, 1), BuildingBlock: KIFKEQ_clean_linker_1, # of connection points: 2
#     Edge 17, Type (0, 1), BuildingBlock: KIFKEQ_clean_linker_1, # of connection points: 2
#     Edge 18, Type (0, 1), BuildingBlock: KIFKEQ_clean_linker_1, # of connection points: 2
#     Edge 19, Type (0, 1), BuildingBlock: KIFKEQ_clean_linker_1, # of connection points: 2
#     Edge 20, Type (0, 1), BuildingBlock: KIFKEQ_clean_linker_1, # of connection points: 2
#     Edge 21, Type (0, 1), BuildingBlock: KIFKEQ_clean_linker_1, # of connection points: 2
#     Edge 22, Type (0, 1), BuildingBlock: KIFKEQ_clean_linker_1, # of connection points: 2
#     Edge 23, Type (0, 1), BuildingBlock: KIFKEQ_clean_linker_1, # of connection points: 2
#     Edge 24, Type (0, 1), BuildingBlock: KIFKEQ_clean_linker_1, # of connection points: 2
#     Edge 25, Type (0, 1), BuildingBlock: KIFKEQ_clean_linker_1, # of connection points: 2
#     Edge 26, Type (0, 1), BuildingBlock: KIFKEQ_clean_linker_1, # of connection points: 2
#     Edge 27, Type (0, 1), BuildingBlock: KIFKEQ_clean_linker_1, # of connection points: 2
#     Edge 28, Type (0, 1), BuildingBlock: KIFKEQ_clean_linker_1, # of connection points: 2
#     Edge 29, Type (0, 1), BuildingBlock: KIFKEQ_clean_linker_1, # of connection points: 2
#     Edge 30, Type (0, 1), BuildingBlock: KIFKEQ_clean_linker_1, # of connection points: 2
#     Edge 31, Type (0, 1), BuildingBlock: KIFKEQ_clean_linker_1, # of connection points: 2
#     Edge 32, Type (0, 1), BuildingBlock: KIFKEQ_clean_linker_1, # of connection points: 2
#     Edge 33, Type (0, 1), BuildingBlock: KIFKEQ_clean_linker_1, # of connection points: 2
#     Edge 34, Type (0, 1), BuildingBlock: KIFKEQ_clean_linker_1, # of connection points: 2
# Relax obj value: 0.046
# Max RMSD: 0.141
# Mean RMSD: 0.071
data_MOF--net-the--node1-GIZVER_clean_sbu_0--node2-BELTOD_clean_linker_0--edge1-KIFKEQ_clean_linker_1
_symmetry_space_group_name_H-M    P1
_symmetry_Int_Tables_number       1
_symmetry_cell_setting            triclinic
loop_
_symmetry_equiv_pos_as_xyz
'x, y, z'
_cell_length_a     47.383783
_cell_length_b     44.953961
_cell_length_c     41.006216
_cell_angle_alpha  86.590115
_cell_angle_beta   94.197607
_cell_angle_gamma 102.21519
loop_
_atom_site_label
_atom_site_type_symbol
_atom_site_fract_x
_atom_site_fract_y
_atom_site_fract_z
_atom_type_partial_charge
P0 P 0.35972 0.36993 0.43732 0.0
H1 H 0.3414 0.42212 0.46077 0.0
H2 H 0.2938 0.43237 0.46874 0.0
H3 H 0.25381 0.34068 0.44261 0.0
H4 H 0.30131 0.33048 0.43481 0.0
H5 H 0.38954 0.33954 0.48996 0.0
H6 H 0.39579 0.28732 0.4992 0.0
H7 H 0.34029 0.26169 0.41237 0.0
H8 H 0.33625 0.31461 0.40204 0.0
H9 H 0.33212 0.4071 0.38811 0.0
H10 H 0.40104 0.35743 0.39366 0.0
O11 O 0.38547 0.39221 0.46 0.0
H12 H 0.34277 0.42418 0.33192 0.0
H13 H 0.41131 0.37378 0.33714 0.0
C14 C 0.32501 0.37546 0.44758 0.0
C15 C 0.32245 0.40403 0.45737 0.0
C16 C 0.29526 0.40993 0.46169 0.0
C17 C 0.27017 0.38731 0.45619 0.0
C18 C 0.27283 0.35839 0.44735 0.0
C19 C 0.30006 0.35259 0.4428 0.0
C20 C 0.36261 0.33091 0.44522 0.0
C21 C 0.37881 0.32266 0.47289 0.0
C22 C 0.38203 0.29258 0.47836 0.0
C23 C 0.36854 0.27001 0.45656 0.0
C24 C 0.35151 0.27839 0.42937 0.0
C25 C 0.3489 0.30863 0.42357 0.0
C26 C 0.36559 0.38065 0.39499 0.0
C27 C 0.34927 0.39946 0.37715 0.0
C28 C 0.35529 0.40914 0.34489 0.0
C29 C 0.3779 0.40037 0.33004 0.0
C30 C 0.39398 0.38126 0.34798 0.0
C31 C 0.38798 0.37167 0.38021 0.0
P32 P 0.71777 0.30537 0.27882 0.0
H33 H 0.76827 0.29052 0.31517 0.0
H34 H 0.80776 0.31968 0.34892 0.0
H35 H 0.77048 0.39946 0.33099 0.0
H36 H 0.73034 0.36963 0.29847 0.0
H37 H 0.65921 0.27192 0.26232 0.0
H38 H 0.62698 0.22991 0.28989 0.0
H39 H 0.68898 0.23437 0.37298 0.0
H40 H 0.72106 0.27657 0.34545 0.0
H41 H 0.71649 0.31811 0.20788 0.0
H42 H 0.67532 0.34229 0.28992 0.0
O43 O 0.73372 0.2852 0.25576 0.0
H44 H 0.68621 0.34405 0.17033 0.0
H45 H 0.6451 0.36882 0.25225 0.0
C46 C 0.74625 0.32776 0.30432 0.0
C47 C 0.7685 0.31426 0.31869 0.0
C48 C 0.79129 0.33112 0.33777 0.0
C49 C 0.79262 0.36213 0.34262 0.0
C50 C 0.77011 0.37558 0.32823 0.0
C51 C 0.7471 0.35852 0.3094 0.0
C52 C 0.69243 0.27791 0.30195 0.0
C53 C 0.66564 0.26441 0.2868 0.0
C54 C 0.64721 0.24029 0.30256 0.0
C55 C 0.65544 0.22875 0.3336 0.0
C56 C 0.68214 0.24257 0.34894 0.0
C57 C 0.70045 0.26692 0.33325 0.0
C58 C 0.69817 0.32824 0.25175 0.0
C59 C 0.70118 0.3293 0.21791 0.0
C60 C 0.68375 0.34402 0.19639 0.0
C61 C 0.66315 0.35827 0.20832 0.0
C62 C 0.6609 0.35817 0.24236 0.0
C63 C 0.67814 0.34306 0.26389 0.0
P64 P 0.73695 0.75016 0.2887 0.0
H65 H 0.72003 0.80857 0.27597 0.0
H66 H 0.69416 0.83782 0.30684 0.0
H67 H 0.68455 0.76678 0.38359 0.0
H68 H 0.70944 0.73709 0.35165 0.0
H69 H 0.75558 0.69323 0.2798 0.0
H70 H 0.78833 0.66616 0.31192 0.0
H71 H 0.80083 0.73347 0.38554 0.0
H72 H 0.76863 0.76098 0.35262 0.0
H73 H 0.72432 0.75336 0.21765 0.0
H74 H 0.69404 0.69381 0.29977 0.0
O75 O 0.75979 0.77525 0.2664 0.0
H76 H 0.69148 0.71983 0.18042 0.0
H77 H 0.66147 0.65963 0.26259 0.0
C78 C 0.71735 0.77105 0.31192 0.0
C79 C 0.71243 0.79934 0.2995 0.0
C80 C 0.69777 0.81616 0.31736 0.0
C81 C 0.68762 0.80502 0.34809 0.0
C82 C 0.69194 0.77614 0.36003 0.0
C83 C 0.70642 0.7592 0.34193 0.0
C84 C 0.75874 0.72855 0.31435 0.0
C85 C 0.7649 0.7019 0.30313 0.0
C86 C 0.78372 0.68641 0.32159 0.0
C87 C 0.79708 0.69741 0.35157 0.0
C88 C 0.79109 0.72438 0.36254 0.0
C89 C 0.77231 0.73993 0.34394 0.0
C90 C 0.71183 0.72588 0.26145 0.0
C91 C 0.71066 0.73297 0.22769 0.0
C92 C 0.69195 0.71364 0.20635 0.0
C93 C 0.67393 0.68684 0.21839 0.0
C94 C 0.67481 0.68018 0.25243 0.0
C95 C 0.69352 0.6996 0.27375 0.0
P96 P 0.293 0.71823 0.28574 0.0
H97 H 0.3213 0.78125 0.27152 0.0
H98 H 0.35199 0.82023 0.30427 0.0
H99 H 0.35047 0.75508 0.38644 0.0
H100 H 0.31847 0.71633 0.35351 0.0
H101 H 0.29581 0.706 0.21694 0.0
H102 H 0.3227 0.67555 0.18897 0.0
H103 H 0.36001 0.64757 0.28185 0.0
H104 H 0.33388 0.67936 0.31004 0.0
H105 H 0.23881 0.73136 0.3032 0.0
H106 H 0.28338 0.65709 0.32009 0.0
O107 O 0.27714 0.73765 0.25645 0.0
H108 H 0.1972 0.70137 0.32991 0.0
H109 H 0.24234 0.62731 0.34821 0.0
C110 C 0.31719 0.74602 0.31023 0.0
C111 C 0.32745 0.77531 0.29662 0.0
C112 C 0.34532 0.79761 0.31539 0.0
C113 C 0.35381 0.79101 0.34818 0.0
C114 C 0.344 0.76125 0.36151 0.0
C115 C 0.32586 0.73895 0.34267 0.0
C116 C 0.31267 0.69491 0.2657 0.0
C117 C 0.30978 0.69349 0.23149 0.0
C118 C 0.32515 0.67605 0.21543 0.0
C119 C 0.34327 0.65918 0.23329 0.0
C120 C 0.34595 0.66023 0.2676 0.0
C121 C 0.33105 0.67833 0.28366 0.0
C122 C 0.26406 0.69635 0.30898 0.0
C123 C 0.23978 0.70866 0.31297 0.0
C124 C 0.21601 0.69149 0.32858 0.0
C125 C 0.21612 0.66167 0.3411 0.0
C126 C 0.2411 0.64988 0.33825 0.0
C127 C 0.26482 0.66705 0.32232 0.0
P128 P 0.3448 0.67839 0.6937 0.0
H129 H 0.31613 0.67625 0.62899 0.0
H130 H 0.26612 0.65972 0.60829 0.0
H131 H 0.23973 0.64195 0.7075 0.0
H132 H 0.29037 0.65823 0.72807 0.0
H133 H 0.404 0.71278 0.69819 0.0
H134 H 0.42654 0.76559 0.6837 0.0
H135 H 0.34256 0.78416 0.6534 0.0
H136 H 0.31993 0.73142 0.66887 0.0
H137 H 0.33749 0.61905 0.72852 0.0
H138 H 0.37049 0.71283 0.75185 0.0
O139 O 0.36189 0.65875 0.67135 0.0
H140 H 0.35783 0.60242 0.78151 0.0
H141 H 0.39153 0.6963 0.80419 0.0
C142 C 0.30701 0.66833 0.68001 0.0
C143 C 0.29956 0.66901 0.64633 0.0
C144 C 0.27083 0.65975 0.63453 0.0
C145 C 0.2487 0.64957 0.65617 0.0
C146 C 0.2562 0.64939 0.6901 0.0
C147 C 0.28513 0.65881 0.70193 0.0
C148 C 0.3603 0.71811 0.68475 0.0
C149 C 0.39037 0.7283 0.68885 0.0
C150 C 0.40322 0.75849 0.68065 0.0
C151 C 0.38629 0.77899 0.6675 0.0
C152 C 0.35612 0.76879 0.66341 0.0
C153 C 0.34318 0.73864 0.67226 0.0
C154 C 0.35278 0.66714 0.7359 0.0
C155 C 0.34853 0.63607 0.7453 0.0
C156 C 0.36019 0.62659 0.77557 0.0
C157 C 0.37664 0.64808 0.79676 0.0
C158 C 0.37931 0.67924 0.78813 0.0
C159 C 0.36724 0.68869 0.75812 0.0
P160 P 0.34195 0.32787 0.67391 0.0
H161 H 0.39908 0.34102 0.70693 0.0
H162 H 0.41672 0.35705 0.76196 0.0
H163 H 0.32864 0.34598 0.78914 0.0
H164 H 0.31107 0.3291 0.73417 0.0
H165 H 0.35373 0.30679 0.61168 0.0
H166 H 0.36498 0.25941 0.59557 0.0
H167 H 0.35452 0.22191 0.69454 0.0
H168 H 0.34345 0.26971 0.71052 0.0
H169 H 0.30931 0.3727 0.68987 0.0
H170 H 0.29418 0.29244 0.63303 0.0
O171 O 0.36252 0.3551 0.65151 0.0
H172 H 0.26195 0.38222 0.66999 0.0
H173 H 0.24732 0.30264 0.61218 0.0
C174 C 0.35382 0.33475 0.71614 0.0
C175 C 0.38355 0.34157 0.72487 0.0
C176 C 0.3936 0.35058 0.75639 0.0
C177 C 0.37405 0.35309 0.77976 0.0
C178 C 0.34418 0.34466 0.77147 0.0
C179 C 0.33414 0.33514 0.74 0.0
C180 C 0.34836 0.29194 0.66241 0.0
C181 C 0.35377 0.28833 0.62989 0.0
C182 C 0.3599 0.26109 0.62064 0.0
C183 C 0.36072 0.23688 0.64379 0.0
C184 C 0.35438 0.24027 0.67622 0.0
C185 C 0.34805 0.26754 0.6854 0.0
C186 C 0.30507 0.3314 0.66373 0.0
C187 C 0.29551 0.35663 0.67388 0.0
C188 C 0.26849 0.36213 0.66242 0.0
C189 C 0.25097 0.34302 0.63974 0.0
C190 C 0.26041 0.3176 0.62979 0.0
C191 C 0.28719 0.31175 0.64182 0.0
P192 P 0.73265 0.30304 0.73186 0.0
H193 H 0.73223 0.23831 0.72664 0.0
H194 H 0.70194 0.19828 0.69462 0.0
H195 H 0.65532 0.26397 0.64825 0.0
H196 H 0.68529 0.3038 0.68145 0.0
H197 H 0.77711 0.35512 0.75141 0.0
H198 H 0.81918 0.38509 0.7252 0.0
H199 H 0.79632 0.33109 0.63973 0.0
H200 H 0.75363 0.30202 0.66574 0.0
H201 H 0.68988 0.28691 0.78062 0.0
H202 H 0.72611 0.36737 0.72288 0.0
O203 O 0.74825 0.2855 0.76297 0.0
H204 H 0.6631 0.3166 0.81004 0.0
H205 H 0.6996 0.39732 0.75249 0.0
C206 C 0.71069 0.27396 0.70685 0.0
C207 C 0.71541 0.24412 0.70969 0.0
C208 C 0.69818 0.22121 0.69105 0.0
C209 C 0.67596 0.22767 0.66883 0.0
C210 C 0.67179 0.2579 0.66553 0.0
C211 C 0.68901 0.28081 0.68436 0.0
C212 C 0.76189 0.32669 0.71039 0.0
C213 C 0.7809 0.35008 0.7268 0.0
C214 C 0.80521 0.36696 0.71189 0.0
C215 C 0.81142 0.36047 0.68033 0.0
C216 C 0.79212 0.33707 0.66383 0.0
C217 C 0.76763 0.32032 0.67875 0.0
C218 C 0.71039 0.32494 0.74994 0.0
C219 C 0.6919 0.31094 0.77409 0.0
C220 C 0.67655 0.32795 0.79087 0.0
C221 C 0.67945 0.35944 0.7839 0.0
C222 C 0.69731 0.37324 0.75888 0.0
C223 C 0.71244 0.35608 0.74185 0.0
P224 P 0.75313 0.73373 0.68189 0.0
H225 H 0.81165 0.75778 0.66205 0.0
H226 H 0.84419 0.7366 0.63097 0.0
H227 H 0.77887 0.65404 0.62002 0.0
H228 H 0.7462 0.67569 0.65067 0.0
H229 H 0.70225 0.757 0.69319 0.0
H230 H 0.6712 0.78365 0.65752 0.0
H231 H 0.71899 0.77275 0.57475 0.0
H232 H 0.75017 0.7465 0.61056 0.0
H233 H 0.77054 0.71056 0.746 0.0
H234 H 0.69616 0.692 0.67752 0.0
O235 O 0.77251 0.76188 0.70394 0.0
H236 H 0.74583 0.67236 0.78489 0.0
H237 H 0.67083 0.65434 0.71673 0.0
C238 C 0.77695 0.71788 0.65941 0.0
C239 C 0.80441 0.73507 0.65311 0.0
C240 C 0.82293 0.72298 0.6353 0.0
C241 C 0.81413 0.69356 0.62336 0.0
C242 C 0.78615 0.67682 0.62879 0.0
C243 C 0.76764 0.68898 0.64662 0.0
C244 C 0.72827 0.74952 0.65452 0.0
C245 C 0.70567 0.75986 0.66726 0.0
C246 C 0.68786 0.77492 0.6468 0.0
C247 C 0.69261 0.78015 0.6133 0.0
C248 C 0.71492 0.76913 0.60048 0.0
C249 C 0.73267 0.75399 0.62097 0.0
C250 C 0.73478 0.70476 0.70946 0.0
C251 C 0.74878 0.69837 0.73947 0.0
C252 C 0.73462 0.67656 0.76165 0.0
C253 C 0.70618 0.66068 0.75411 0.0
C254 C 0.69272 0.66615 0.72326 0.0
C255 C 0.70702 0.68794 0.701 0.0
Co256 Co 0.07137 0.4781 0.5256 0.0
Co257 Co 0.04049 0.46703 0.46887 0.0
Co258 Co 0.01342 0.51069 0.50938 0.0
O259 O 0.03106 0.47404 0.51161 0.0
H260 H 0.01881 0.45618 0.52116 0.0
O261 O 0.99651 0.54767 0.50648 0.0
Co262 Co 0.95686 0.54586 0.49176 0.0
Co263 Co 0.98686 0.55412 0.54821 0.0
H264 H 0.00946 0.56548 0.49783 0.0
O265 O 0.05366 0.43172 0.45784 0.0
O266 O 0.07975 0.47355 0.48039 0.0
O267 O 0.03825 0.4993 0.43579 0.0
O268 O 0.03902 0.53239 0.47408 0.0
O269 O 0.98315 0.49079 0.47607 0.0
O270 O 0.92105 0.54736 0.47747 0.0
O271 O 0.96022 0.58579 0.47865 0.0
O272 O 0.9482 0.50348 0.50149 0.0
O273 O 0.98775 0.48856 0.54459 0.0
O274 O 0.98565 0.52187 0.58163 0.0
O275 O 0.94864 0.55497 0.53637 0.0
O276 O 0.98304 0.59218 0.55857 0.0
C277 C 0.09719 0.44885 0.54351 0.0
C278 C 0.06988 0.53612 0.53825 0.0
C279 C 0.04474 0.52633 0.44551 0.0
C280 C 0.07858 0.44773 0.4676 0.0
C281 C 0.9326 0.57586 0.4714 0.0
C282 C 0.95628 0.48716 0.4811 0.0
C283 C 0.98066 0.4947 0.57254 0.0
C284 C 0.95633 0.58186 0.54845 0.0
O285 O 0.10767 0.47786 0.53906 0.0
O286 O 0.0698 0.438 0.53602 0.0
O287 O 0.04304 0.53096 0.54335 0.0
O288 O 0.07868 0.52061 0.51784 0.0
Co289 Co 0.54707 0.95209 0.48579 0.0
Co290 Co 0.5625 0.97594 0.54299 0.0
Co291 Co 0.51585 0.00907 0.5068 0.0
O292 O 0.55078 0.99182 0.50252 0.0
H293 H 0.56652 1.00658 0.49363 0.0
O294 O 0.48064 0.02618 0.51073 0.0
Co295 Co 0.48469 0.0649 0.52941 0.0
Co296 Co 0.46901 0.04389 0.47092 0.0
H297 H 0.46475 0.01115 0.51911 0.0
O298 O 0.59951 0.96841 0.55133 0.0
O299 O 0.56041 0.93703 0.52909 0.0
O300 O 0.53612 0.97085 0.57736 0.0
O301 O 0.49969 0.97864 0.54291 0.0
O302 O 0.53928 0.03758 0.53982 0.0
O303 O 0.48569 0.09935 0.54833 0.0
O304 O 0.44863 0.05877 0.54426 0.0
O305 O 0.52283 0.07634 0.51703 0.0
O306 O 0.53198 0.03953 0.47076 0.0
O307 O 0.49613 0.05053 0.43713 0.0
O308 O 0.4713 0.08204 0.4872 0.0
O309 O 0.43211 0.05289 0.46273 0.0
C310 C 0.57306 0.92978 0.46268 0.0
C311 C 0.48977 0.9517 0.47877 0.0
C312 C 0.50922 0.96775 0.57008 0.0
C313 C 0.58724 0.94195 0.54045 0.0
C314 C 0.45943 0.086 0.55471 0.0
C315 C 0.54147 0.06634 0.53579 0.0
C316 C 0.52289 0.05193 0.44425 0.0
C317 C 0.44465 0.07842 0.47552 0.0
O318 O 0.54674 0.91657 0.469 0.0
O319 O 0.58335 0.95764 0.47162 0.0
O320 O 0.49274 0.98051 0.47401 0.0
O321 O 0.5083 0.94104 0.49726 0.0
Co322 Co 0.48139 0.52266 0.08074 0.0
Co323 Co 0.46765 0.46654 0.0624 0.0
Co324 Co 0.51316 0.50715 0.01425 0.0
O325 O 0.47785 0.50386 0.03944 0.0
H326 H 0.46152 0.50793 0.02565 0.0
O327 O 0.54836 0.51004 0.98947 0.0
Co328 Co 0.54579 0.49396 0.94688 0.0
Co329 Co 0.55829 0.54814 0.96928 0.0
H330 H 0.56456 0.50554 1.00314 0.0
O331 O 0.43109 0.45214 0.07898 0.0
O332 O 0.46948 0.48258 0.10347 0.0
O333 O 0.49583 0.44111 0.06509 0.0
O334 O 0.53054 0.47739 0.04457 0.0
O335 O 0.49128 0.47357 0.98634 0.0
O336 O 0.5461 0.47806 0.90838 0.0
O337 O 0.58202 0.48607 0.94792 0.0
O338 O 0.50694 0.49827 0.9407 0.0
O339 O 0.49563 0.53684 0.98397 0.0
O340 O 0.53067 0.57435 0.96675 0.0
O341 O 0.56024 0.53563 0.92741 0.0
O342 O 0.59586 0.56296 0.95987 0.0
C343 C 0.45542 0.54233 0.10685 0.0
C344 C 0.53835 0.53853 0.07232 0.0
C345 C 0.52229 0.45196 0.0604 0.0
C346 C 0.44344 0.46625 0.10464 0.0
C347 C 0.57199 0.47558 0.91932 0.0
C348 C 0.48854 0.47801 0.95527 0.0
C349 C 0.50405 0.56291 0.96955 0.0
C350 C 0.58661 0.55146 0.93176 0.0
O351 O 0.4817 0.54135 0.11771 0.0
O352 O 0.44489 0.52939 0.0796 0.0
O353 O 0.53555 0.5414 0.04121 0.0
O354 O 0.52008 0.51878 0.08729 0.0
H355 H 0.25226 0.43685 0.42836 0.0
H356 H 0.2229 0.35395 0.48602 0.0
H357 H 0.20505 0.44964 0.42976 0.0
H358 H 0.17538 0.36702 0.48788 0.0
H359 H 0.08574 0.39008 0.45652 0.0
H360 H 0.13172 0.37382 0.45334 0.0
H361 H 0.17817 0.46571 0.47051 0.0
H362 H 0.13284 0.48191 0.47279 0.0
C363 C 0.23573 0.42153 0.44165 0.0
C364 C 0.2413 0.39463 0.45742 0.0
C365 C 0.20868 0.42881 0.44243 0.0
C366 C 0.18659 0.40947 0.45921 0.0
C367 C 0.19193 0.38222 0.47454 0.0
C368 C 0.21909 0.37482 0.4736 0.0
C369 C 0.10584 0.40673 0.45931 0.0
C370 C 0.10572 0.43725 0.46475 0.0
C371 C 0.1321 0.39741 0.45781 0.0
C372 C 0.15853 0.41855 0.46145 0.0
C373 C 0.15821 0.44899 0.46693 0.0
C374 C 0.13216 0.45822 0.46846 0.0
H375 H 0.6718 0.17874 0.36416 0.0
H376 H 0.59676 0.21732 0.33803 0.0
H377 H 0.641 0.13345 0.38804 0.0
H378 H 0.56595 0.17244 0.36253 0.0
H379 H 0.51355 0.07876 0.3837 0.0
H380 H 0.5463 0.11984 0.35567 0.0
H381 H 0.61247 0.11611 0.43325 0.0
H382 H 0.58015 0.07443 0.46063 0.0
C383 C 0.64873 0.17768 0.36388 0.0
C384 C 0.63672 0.20164 0.34923 0.0
C385 C 0.63104 0.15169 0.37755 0.0
C386 C 0.60088 0.14908 0.37714 0.0
C387 C 0.58896 0.17324 0.36269 0.0
C388 C 0.60663 0.1991 0.34879 0.0
C389 C 0.53528 0.08633 0.39447 0.0
C390 C 0.54412 0.07327 0.42448 0.0
C391 C 0.55399 0.11015 0.37857 0.0
C392 C 0.58196 0.12173 0.39239 0.0
C393 C 0.59123 0.10771 0.42166 0.0
C394 C 0.57261 0.08372 0.43742 0.0
H395 H 0.84804 0.72154 0.38606 0.0
H396 H 0.79219 0.63579 0.36107 0.0
H397 H 0.88107 0.69416 0.41759 0.0
H398 H 0.82577 0.60859 0.391 0.0
H399 H 0.87421 0.56637 0.47207 0.0
H400 H 0.8421 0.59718 0.44558 0.0
H401 H 0.91584 0.6625 0.41143 0.0
H402 H 0.94827 0.6318 0.43911 0.0
C403 C 0.84273 0.69687 0.38734 0.0
C404 C 0.81735 0.68091 0.371 0.0
C405 C 0.86188 0.68118 0.4051 0.0
C406 C 0.85611 0.64914 0.40698 0.0
C407 C 0.83076 0.63325 0.39059 0.0
C408 C 0.81162 0.64889 0.37298 0.0
C409 C 0.88366 0.58736 0.45901 0.0
C410 C 0.91379 0.59642 0.45724 0.0
C411 C 0.86518 0.60499 0.44365 0.0
C412 C 0.87627 0.63206 0.42576 0.0
C413 C 0.90653 0.64182 0.42507 0.0
C414 C 0.92513 0.62421 0.4408 0.0
H415 H 0.39861 0.83652 0.3284 0.0
H416 H 0.35156 0.80077 0.41352 0.0
H417 H 0.42814 0.8769 0.36054 0.0
H418 H 0.38184 0.84077 0.44582 0.0
H419 H 0.46847 0.89249 0.49667 0.0
H420 H 0.43405 0.85467 0.46579 0.0
H421 H 0.42388 0.92345 0.39034 0.0
H422 H 0.45847 0.96159 0.42149 0.0
C423 C 0.39431 0.83735 0.35386 0.0
C424 C 0.3725 0.81525 0.36822 0.0
C425 C 0.4113 0.86057 0.37229 0.0
C426 C 0.40723 0.86216 0.40567 0.0
C427 C 0.38563 0.84005 0.42017 0.0
C428 C 0.3684 0.81697 0.40166 0.0
C429 C 0.45867 0.89968 0.47365 0.0
C430 C 0.46632 0.93003 0.46143 0.0
C431 C 0.43883 0.878 0.45605 0.0
C432 C 0.42636 0.886 0.42554 0.0
C433 C 0.43336 0.91655 0.41366 0.0
C434 C 0.45297 0.93843 0.43157 0.0
H435 H 0.20885 0.60004 0.67835 0.0
H436 H 0.21968 0.67279 0.60366 0.0
H437 H 0.16198 0.57734 0.65179 0.0
H438 H 0.17321 0.64973 0.57692 0.0
H439 H 0.11951 0.56984 0.51597 0.0
H440 H 0.15936 0.60119 0.54711 0.0
H441 H 0.11042 0.58404 0.6335 0.0
H442 H 0.06997 0.55261 0.60184 0.0
C443 C 0.20102 0.61159 0.65671 0.0
C444 C 0.21836 0.63802 0.6429 0.0
C445 C 0.17412 0.59854 0.64149 0.0
C446 C 0.16403 0.61155 0.61204 0.0
C447 C 0.18059 0.63889 0.59929 0.0
C448 C 0.20731 0.65201 0.61458 0.0
C449 C 0.11699 0.5732 0.54146 0.0
C450 C 0.09164 0.55878 0.55649 0.0
C451 C 0.1398 0.59128 0.5593 0.0
C452 C 0.13811 0.59508 0.59281 0.0
C453 C 0.11238 0.58141 0.60773 0.0
C454 C 0.08918 0.56368 0.5896 0.0
H455 H 0.39804 0.20631 0.67833 0.0
H456 H 0.3451 0.2051 0.58787 0.0
H457 H 0.41841 0.16512 0.66021 0.0
H458 H 0.3659 0.16414 0.5695 0.0
H459 H 0.40017 0.0781 0.55344 0.0
H460 H 0.37245 0.11048 0.57802 0.0
H461 H 0.45218 0.16538 0.61785 0.0
H462 H 0.47951 0.13326 0.59379 0.0
C463 C 0.39033 0.19687 0.65484 0.0
C464 C 0.37014 0.20919 0.63443 0.0
C465 C 0.4022 0.17345 0.64432 0.0
C466 C 0.39412 0.16171 0.61318 0.0
C467 C 0.37265 0.17274 0.59356 0.0
C468 C 0.36091 0.19636 0.60399 0.0
C469 C 0.4116 0.09676 0.568 0.0
C470 C 0.44197 0.10307 0.57185 0.0
C471 C 0.3958 0.11542 0.58181 0.0
C472 C 0.41011 0.14037 0.60009 0.0
C473 C 0.44042 0.14606 0.60446 0.0
C474 C 0.45612 0.12773 0.59045 0.0
H475 H 0.86536 0.38072 0.71024 0.0
H476 H 0.81833 0.37934 0.61577 0.0
H477 H 0.9085 0.41032 0.68586 0.0
H478 H 0.86174 0.40841 0.59137 0.0
H479 H 0.95076 0.43925 0.5521 0.0
H480 H 0.91141 0.40473 0.57872 0.0
H481 H 0.92459 0.46238 0.66136 0.0
H482 H 0.96404 0.4969 0.63489 0.0
C483 C 0.8641 0.38682 0.68431 0.0
C484 C 0.83813 0.37774 0.66509 0.0
C485 C 0.88894 0.40369 0.67032 0.0
C486 C 0.88862 0.41172 0.63667 0.0
C487 C 0.86287 0.40221 0.6173 0.0
C488 C 0.83794 0.38551 0.63132 0.0
C489 C 0.94576 0.44426 0.57628 0.0
C490 C 0.96064 0.47095 0.59132 0.0
C491 C 0.92294 0.42461 0.59136 0.0
C492 C 0.91463 0.43095 0.622 0.0
C493 C 0.93051 0.45673 0.63782 0.0
C494 C 0.95315 0.47655 0.62262 0.0
H495 H 0.71349 0.8261 0.5694 0.0
H496 H 0.63451 0.77826 0.61123 0.0
H497 H 0.68783 0.86339 0.54256 0.0
H498 H 0.60908 0.81608 0.58528 0.0
H499 H 0.56651 0.88242 0.5259 0.0
H500 H 0.59191 0.84044 0.53419 0.0
H501 H 0.66936 0.9033 0.56761 0.0
H502 H 0.64427 0.94527 0.55878 0.0
C503 C 0.6905 0.82313 0.57223 0.0
C504 C 0.67604 0.79949 0.59272 0.0
C505 C 0.67589 0.84463 0.5571 0.0
C506 C 0.64658 0.84284 0.56215 0.0
C507 C 0.63165 0.81797 0.58076 0.0
C508 C 0.64626 0.79651 0.59593 0.0
C509 C 0.58909 0.88734 0.53456 0.0
C510 C 0.60329 0.91708 0.54221 0.0
C511 C 0.60357 0.86329 0.53932 0.0
C512 C 0.63252 0.86856 0.55176 0.0
C513 C 0.64713 0.89855 0.55769 0.0
C514 C 0.63265 0.92257 0.55297 0.0
H515 H 0.37632 0.2374 0.51442 0.0
H516 H 0.37275 0.23071 0.4092 0.0
H517 H 0.39141 0.18865 0.52133 0.0
H518 H 0.38568 0.18113 0.41664 0.0
H519 H 0.39059 0.08121 0.44834 0.0
H520 H 0.3671 0.125 0.44585 0.0
H521 H 0.4405 0.17646 0.50088 0.0
H522 H 0.46459 0.13377 0.50203 0.0
C523 C 0.37836 0.22554 0.49278 0.0
C524 C 0.37363 0.2384 0.46119 0.0
C525 C 0.38661 0.19745 0.49686 0.0
C526 C 0.38945 0.18125 0.46952 0.0
C527 C 0.38319 0.19309 0.43808 0.0
C528 C 0.37565 0.2215 0.43391 0.0
C529 C 0.40163 0.1018 0.46007 0.0
C530 C 0.42941 0.1039 0.47556 0.0
C531 C 0.38815 0.12673 0.45869 0.0
C532 C 0.40198 0.15382 0.47344 0.0
C533 C 0.42927 0.15561 0.48976 0.0
C534 C 0.44303 0.1311 0.49037 0.0
H535 H 0.79169 0.40745 0.38447 0.0
H536 H 0.8499 0.35797 0.34613 0.0
H537 H 0.83183 0.43667 0.41695 0.0
H538 H 0.88971 0.38575 0.38038 0.0
H539 H 0.96046 0.46364 0.42171 0.0
H540 H 0.92141 0.43352 0.38779 0.0
H541 H 0.8625 0.43226 0.46379 0.0
H542 H 0.9011 0.4632 0.49682 0.0
C543 C 0.81302 0.40275 0.38289 0.0
C544 C 0.81735 0.38018 0.36259 0.0
C545 C 0.83608 0.41923 0.40201 0.0
C546 C 0.86414 0.41346 0.40168 0.0
C547 C 0.86854 0.39107 0.38118 0.0
C548 C 0.84551 0.37476 0.36183 0.0
C549 C 0.9392 0.45666 0.4312 0.0
C550 C 0.93382 0.46603 0.46181 0.0
C551 C 0.91677 0.43932 0.4118 0.0
C552 C 0.88855 0.43069 0.42276 0.0
C553 C 0.88364 0.43912 0.45402 0.0
C554 C 0.90589 0.45669 0.47315 0.0
H555 H 0.69934 0.86712 0.35376 0.0
H556 H 0.64136 0.78473 0.38619 0.0
H557 H 0.67263 0.89733 0.38202 0.0
H558 H 0.61583 0.81481 0.41616 0.0
H559 H 0.55457 0.87728 0.43074 0.0
H560 H 0.58316 0.84761 0.40494 0.0
H561 H 0.66122 0.91197 0.43378 0.0
H562 H 0.63218 0.9424 0.45887 0.0
C563 C 0.68096 0.85538 0.36699 0.0
C564 C 0.67239 0.82339 0.36727 0.0
C565 C 0.66588 0.87275 0.38367 0.0
C566 C 0.64189 0.85863 0.4013 0.0
C567 C 0.63385 0.82659 0.40238 0.0
C568 C 0.6488 0.80924 0.38551 0.0
C569 C 0.57784 0.8852 0.4316 0.0
C570 C 0.59108 0.91234 0.44671 0.0
C571 C 0.59432 0.86797 0.417 0.0
C572 C 0.62461 0.87716 0.41737 0.0
C573 C 0.63792 0.90434 0.43262 0.0
C574 C 0.62132 0.92179 0.44706 0.0
H575 H 0.19448 0.60015 0.33692 0.0
H576 H 0.17811 0.68022 0.37916 0.0
H577 H 0.15167 0.56955 0.36063 0.0
H578 H 0.13415 0.65004 0.40085 0.0
H579 H 0.07684 0.58027 0.46703 0.0
H580 H 0.11736 0.61319 0.44155 0.0
H581 H 0.1007 0.55828 0.35644 0.0
H582 H 0.06079 0.5244 0.38275 0.0
C583 C 0.18182 0.61131 0.35128 0.0
C584 C 0.18998 0.64278 0.35608 0.0
C585 C 0.15685 0.59378 0.36441 0.0
C586 C 0.1391 0.60724 0.3825 0.0
C587 C 0.14729 0.63871 0.38734 0.0
C588 C 0.17242 0.65617 0.37448 0.0
C589 C 0.08141 0.57545 0.44262 0.0
C590 C 0.06551 0.54952 0.42703 0.0
C591 C 0.10477 0.59446 0.42791 0.0
C592 C 0.11269 0.58835 0.39697 0.0
C593 C 0.09577 0.56335 0.38061 0.0
C594 C 0.07259 0.54409 0.39552 0.0
H595 H 0.37827 0.80901 0.60881 0.0
H596 H 0.42658 0.81973 0.70218 0.0
H597 H 0.40571 0.85806 0.58898 0.0
H598 H 0.45326 0.86946 0.6831 0.0
H599 H 0.52219 0.93138 0.6225 0.0
H600 H 0.49013 0.88878 0.64829 0.0
H601 H 0.4173 0.91152 0.5898 0.0
H602 H 0.44983 0.95359 0.5628 0.0
C603 C 0.39432 0.82226 0.62534 0.0
C604 C 0.40046 0.81046 0.65692 0.0
C605 C 0.41002 0.85052 0.61406 0.0
C606 C 0.43201 0.86786 0.63428 0.0
C607 C 0.43706 0.85657 0.66649 0.0
C608 C 0.42166 0.82812 0.67755 0.0
C609 C 0.49928 0.92773 0.61547 0.0
C610 C 0.48872 0.94589 0.5903 0.0
C611 C 0.48073 0.90321 0.63046 0.0
C612 C 0.45098 0.8963 0.62103 0.0
C613 C 0.44014 0.91563 0.59725 0.0
C614 C 0.45878 0.94003 0.58199 0.0
H615 H 0.23684 0.35004 0.57473 0.0
H616 H 0.20574 0.35592 0.66999 0.0
H617 H 0.19658 0.37115 0.54914 0.0
H618 H 0.16501 0.37642 0.64421 0.0
H619 H 0.0842 0.39243 0.57515 0.0
H620 H 0.11867 0.36123 0.5974 0.0
H621 H 0.18901 0.42835 0.55923 0.0
H622 H 0.15522 0.45996 0.53857 0.0
C623 C 0.22093 0.35507 0.59008 0.0
C624 C 0.22434 0.35143 0.62431 0.0
C625 C 0.198 0.36717 0.57545 0.0
C626 C 0.17774 0.37522 0.59475 0.0
C627 C 0.18022 0.37005 0.62885 0.0
C628 C 0.20353 0.35854 0.64356 0.0
C629 C 0.10701 0.40034 0.57143 0.0
C630 C 0.11704 0.42864 0.55522 0.0
C631 C 0.12663 0.38256 0.58412 0.0
C632 C 0.15636 0.39243 0.57981 0.0
C633 C 0.16616 0.42016 0.56263 0.0
C634 C 0.14679 0.43826 0.55092 0.0
H635 H 0.69096 0.17895 0.64158 0.0
H636 H 0.61767 0.21979 0.65283 0.0
H637 H 0.65966 0.13861 0.61047 0.0
H638 H 0.58673 0.17992 0.62128 0.0
H639 H 0.54881 0.12803 0.53151 0.0
H640 H 0.58167 0.16539 0.56381 0.0
H641 H 0.61704 0.09381 0.61567 0.0
H642 H 0.5837 0.05573 0.58289 0.0
C643 C 0.66818 0.17928 0.6377 0.0
C644 C 0.65698 0.20291 0.64965 0.0
C645 C 0.65025 0.1561 0.61983 0.0
C646 C 0.62073 0.1561 0.61322 0.0
C647 C 0.60949 0.17949 0.62546 0.0
C648 C 0.62731 0.2025 0.64345 0.0
C649 C 0.56355 0.11999 0.5497 0.0
C650 C 0.56336 0.08867 0.5547 0.0
C651 C 0.58235 0.14155 0.5684 0.0
C652 C 0.60174 0.13263 0.59265 0.0
C653 C 0.60234 0.10142 0.59713 0.0
C654 C 0.58323 0.07961 0.57842 0.0
H655 H 0.80412 0.66035 0.56813 0.0
H656 H 0.87048 0.69524 0.64226 0.0
H657 H 0.83814 0.63563 0.54334 0.0
H658 H 0.9041 0.67058 0.61794 0.0
H659 H 0.96642 0.64242 0.55882 0.0
H660 H 0.93136 0.67218 0.57043 0.0
H661 H 0.86228 0.59311 0.5573 0.0
H662 H 0.89739 0.56351 0.54459 0.0
C663 C 0.82597 0.66277 0.57903 0.0
C664 C 0.83474 0.67981 0.60702 0.0
C665 C 0.84539 0.64867 0.56486 0.0
C666 C 0.87384 0.65135 0.57854 0.0
C667 C 0.88257 0.66869 0.6063 0.0
C668 C 0.86327 0.68278 0.62032 0.0
C669 C 0.94372 0.63146 0.55808 0.0
C670 C 0.93467 0.60048 0.55163 0.0
C671 C 0.92365 0.6485 0.56476 0.0
C672 C 0.89416 0.63481 0.56551 0.0
C673 C 0.88486 0.60432 0.5569 0.0
C674 C 0.90498 0.5873 0.54988 0.0
H675 H 0.43182 0.42061 0.30796 0.0
H676 H 0.34118 0.40666 0.27622 0.0
H677 H 0.44475 0.43873 0.25299 0.0
H678 H 0.3542 0.42611 0.22115 0.0
H679 H 0.39421 0.4249 0.11989 0.0
H680 H 0.37631 0.411 0.17423 0.0
H681 H 0.44365 0.48169 0.21525 0.0
H682 H 0.46208 0.49482 0.16145 0.0
C683 C 0.41462 0.4214 0.28921 0.0
C684 C 0.38547 0.41198 0.29644 0.0
C685 C 0.42203 0.43224 0.25777 0.0
C686 C 0.4005 0.43411 0.23271 0.0
C687 C 0.37129 0.42481 0.23989 0.0
C688 C 0.36385 0.41393 0.27147 0.0
C689 C 0.40495 0.43772 0.14045 0.0
C690 C 0.42981 0.4607 0.13637 0.0
C691 C 0.39461 0.42984 0.17158 0.0
C692 C 0.40886 0.44491 0.19915 0.0
C693 C 0.4326 0.46914 0.19464 0.0
C694 C 0.44304 0.47683 0.16369 0.0
H695 H 0.43377 0.66763 0.81395 0.0
H696 H 0.3572 0.60536 0.84514 0.0
H697 H 0.46248 0.64859 0.8587 0.0
H698 H 0.38552 0.58718 0.89137 0.0
H699 H 0.45083 0.53538 0.94397 0.0
H700 H 0.41891 0.55722 0.90501 0.0
H701 H 0.47582 0.64576 0.91355 0.0
H702 H 0.50866 0.62321 0.95098 0.0
C703 C 0.42296 0.65031 0.83096 0.0
C704 C 0.39323 0.63803 0.82607 0.0
C705 C 0.43941 0.63942 0.85688 0.0
C706 C 0.42653 0.61624 0.87908 0.0
C707 C 0.3965 0.60458 0.87461 0.0
C708 C 0.38013 0.61512 0.84823 0.0
C709 C 0.45629 0.55962 0.93793 0.0
C710 C 0.48237 0.57754 0.9505 0.0
C711 C 0.43785 0.57228 0.91554 0.0
C712 C 0.4447 0.60338 0.90555 0.0
C713 C 0.47006 0.62159 0.91973 0.0
C714 C 0.48881 0.60877 0.94157 0.0
H715 H 0.35581 0.39839 0.80821 0.0
H716 H 0.41757 0.3399 0.82221 0.0
H717 H 0.37861 0.42685 0.85559 0.0
H718 H 0.44033 0.36836 0.8697 0.0
H719 H 0.46408 0.4176 0.96628 0.0
H720 H 0.43161 0.38414 0.92798 0.0
H721 H 0.42938 0.46127 0.86062 0.0
H722 H 0.46201 0.49435 0.89834 0.0
C723 C 0.37379 0.39113 0.82191 0.0
C724 C 0.38501 0.36701 0.81143 0.0
C725 C 0.38693 0.40753 0.84889 0.0
C726 C 0.41128 0.39987 0.86623 0.0
C727 C 0.42145 0.37462 0.85695 0.0
C728 C 0.40857 0.35849 0.82966 0.0
C729 C 0.45614 0.42739 0.94356 0.0
C730 C 0.46561 0.45849 0.93516 0.0
C731 C 0.43775 0.40827 0.92162 0.0
C732 C 0.42801 0.42013 0.89135 0.0
C733 C 0.43631 0.45153 0.88386 0.0
C734 C 0.4551 0.47043 0.90538 0.0
H735 H 0.62359 0.3448 0.80209 0.0
H736 H 0.70101 0.41537 0.80952 0.0
H737 H 0.59909 0.37378 0.83501 0.0
H738 H 0.67624 0.44471 0.84216 0.0
H739 H 0.62867 0.46926 0.9305 0.0
H740 H 0.65545 0.44222 0.89743 0.0
H741 H 0.58098 0.42141 0.82914 0.0
H742 H 0.55439 0.44799 0.86186 0.0
C743 C 0.63539 0.36651 0.81076 0.0
C744 C 0.66426 0.37775 0.80311 0.0
C745 C 0.62128 0.38326 0.82944 0.0
C746 C 0.63568 0.41162 0.8412 0.0
C747 C 0.6646 0.42286 0.83369 0.0
C748 C 0.67867 0.4062 0.81469 0.0
C749 C 0.61811 0.45899 0.90837 0.0
C750 C 0.5893 0.46067 0.89902 0.0
C751 C 0.63347 0.44362 0.88935 0.0
C752 C 0.62025 0.42939 0.86078 0.0
C753 C 0.59167 0.43164 0.85125 0.0
C754 C 0.57647 0.4471 0.87 0.0
H755 H 0.70571 0.67039 0.81878 0.0
H756 H 0.66985 0.60476 0.74605 0.0
H757 H 0.67842 0.63827 0.86007 0.0
H758 H 0.64222 0.57224 0.78784 0.0
H759 H 0.57077 0.55093 0.86613 0.0
H760 H 0.60136 0.57303 0.82161 0.0
H761 H 0.67569 0.59033 0.89069 0.0
H762 H 0.64508 0.56926 0.93506 0.0
C763 C 0.6924 0.64877 0.81174 0.0
C764 C 0.69014 0.64003 0.77919 0.0
C765 C 0.67674 0.63028 0.83546 0.0
C766 C 0.65839 0.6025 0.82733 0.0
C767 C 0.65611 0.59358 0.7948 0.0
C768 C 0.67187 0.61219 0.77092 0.0
C769 C 0.59374 0.55899 0.87163 0.0
C770 C 0.60546 0.55913 0.9041 0.0
C771 C 0.61128 0.57152 0.84613 0.0
C772 C 0.64082 0.58407 0.85278 0.0
C773 C 0.65285 0.58166 0.88493 0.0
C774 C 0.63534 0.5695 0.91033 0.0
H775 H 0.68534 0.67017 0.15807 0.0
H776 H 0.61834 0.65598 0.22679 0.0
H777 H 0.65382 0.63482 0.12143 0.0
H778 H 0.587 0.62064 0.19031 0.0
H779 H 0.5515 0.534 0.13782 0.0
H780 H 0.58467 0.57 0.17159 0.0
H781 H 0.60867 0.6277 0.08578 0.0
H782 H 0.57543 0.59109 0.05151 0.0
C783 C 0.6638 0.65978 0.16525 0.0
C784 C 0.65448 0.66584 0.19555 0.0
C785 C 0.64574 0.63949 0.14421 0.0
C786 C 0.61796 0.62468 0.153 0.0
C787 C 0.60849 0.63115 0.18303 0.0
C788 C 0.62649 0.65142 0.20401 0.0
C789 C 0.56388 0.55427 0.12597 0.0
C790 C 0.56058 0.55974 0.0919 0.0
C791 C 0.58281 0.57505 0.14545 0.0
C792 C 0.59902 0.602 0.13152 0.0
C793 C 0.59653 0.60711 0.09729 0.0
C794 C 0.57747 0.58618 0.07766 0.0
H795 H 0.34149 0.59791 0.23979 0.0
H796 H 0.38176 0.68 0.18707 0.0
H797 H 0.3675 0.56815 0.20869 0.0
H798 H 0.40828 0.65051 0.15679 0.0
H799 H 0.47566 0.58875 0.14718 0.0
H800 H 0.44799 0.61615 0.17815 0.0
H801 H 0.3685 0.55892 0.14139 0.0
H802 H 0.39628 0.53177 0.10941 0.0
C803 C 0.35606 0.60953 0.22174 0.0
C804 C 0.35973 0.64118 0.21578 0.0
C805 C 0.37071 0.59255 0.20386 0.0
C806 C 0.38977 0.6071 0.18035 0.0
C807 C 0.39371 0.6388 0.1748 0.0
C808 C 0.37859 0.65562 0.19206 0.0
C809 C 0.45228 0.58194 0.14567 0.0
C810 C 0.4381 0.55823 0.12573 0.0
C811 C 0.43649 0.59769 0.16334 0.0
C812 C 0.40619 0.58961 0.16211 0.0
C813 C 0.3919 0.56547 0.14277 0.0
C814 C 0.40773 0.55012 0.12437 0.0
H815 H 0.64927 0.41429 0.21012 0.0
H816 H 0.63221 0.33325 0.15433 0.0
H817 H 0.61632 0.43656 0.17193 0.0
H818 H 0.59927 0.35543 0.11628 0.0
H819 H 0.51556 0.39306 0.08509 0.0
H820 H 0.5505 0.37047 0.11963 0.0
H821 H 0.61367 0.45474 0.11135 0.0
H822 H 0.57893 0.47734 0.07656 0.0
C823 C 0.63846 0.40127 0.18973 0.0
C824 C 0.64337 0.37208 0.18516 0.0
C825 C 0.6198 0.41407 0.16775 0.0
C826 C 0.60528 0.39774 0.14108 0.0
C827 C 0.61007 0.3685 0.13666 0.0
C828 C 0.62905 0.3559 0.15831 0.0
C829 C 0.53703 0.40664 0.09024 0.0
C830 C 0.54444 0.43698 0.07796 0.0
C831 C 0.55704 0.39368 0.10999 0.0
C832 C 0.58474 0.41091 0.11836 0.0
C833 C 0.59239 0.44102 0.10555 0.0
C834 C 0.57255 0.45383 0.08535 0.0
loop_
_geom_bond_atom_site_label_1
_geom_bond_atom_site_label_2
_geom_bond_distance
_geom_bond_site_symmetry_2
_ccdc_geom_bond_type
P0 O11 1.490 . S
P0 C14 1.812 . S
P0 C20 1.803 . S
P0 C26 1.819 . S
H1 C15 0.941 . S
H2 C16 0.939 . S
H3 C18 0.940 . S
H4 C19 0.940 . S
H5 C21 0.939 . S
H6 C22 0.942 . S
H7 C24 0.940 . S
H8 C25 0.939 . S
H9 C27 0.941 . S
H10 C31 0.939 . S
O11 P0 1.490 . S
H12 C28 0.939 . S
H13 C30 0.940 . S
C14 P0 1.812 . S
C14 C15 1.389 . S
C14 C19 1.391 . S
C15 H1 0.941 . S
C15 C14 1.389 . S
C15 C16 1.397 . S
C16 H2 0.939 . S
C16 C15 1.397 . S
C16 C17 1.378 . S
C17 C16 1.378 . S
C17 C18 1.378 . S
C18 H3 0.940 . S
C18 C17 1.378 . S
C18 C19 1.396 . S
C19 H4 0.940 . S
C19 C14 1.391 . S
C19 C18 1.396 . S
C20 P0 1.803 . S
C20 C21 1.378 . S
C20 C25 1.400 . S
C21 H5 0.939 . S
C21 C20 1.378 . S
C21 C22 1.361 . S
C22 H6 0.942 . S
C22 C21 1.361 . S
C22 C23 1.369 . S
C23 C22 1.369 . S
C23 C24 1.404 . S
C24 H7 0.940 . S
C24 C23 1.404 . S
C24 C25 1.389 . S
C25 H8 0.939 . S
C25 C20 1.400 . S
C25 C24 1.389 . S
C26 P0 1.819 . S
C26 C27 1.391 . S
C26 C31 1.391 . S
C27 H9 0.941 . S
C27 C26 1.391 . S
C27 C28 1.396 . S
C28 H12 0.939 . S
C28 C27 1.396 . S
C28 C29 1.397 . S
C29 C28 1.397 . S
C29 C30 1.385 . S
C30 H13 0.940 . S
C30 C29 1.385 . S
C30 C31 1.388 . S
C31 H10 0.939 . S
C31 C26 1.391 . S
C31 C30 1.388 . S
P32 O43 1.490 . S
P32 C46 1.812 . S
P32 C52 1.803 . S
P32 C58 1.819 . S
H33 C47 0.941 . S
H34 C48 0.939 . S
H35 C50 0.940 . S
H36 C51 0.940 . S
H37 C53 0.939 . S
H38 C54 0.942 . S
H39 C56 0.940 . S
H40 C57 0.939 . S
H41 C59 0.941 . S
H42 C63 0.939 . S
O43 P32 1.490 . S
H44 C60 0.939 . S
H45 C62 0.940 . S
C46 P32 1.812 . S
C46 C47 1.389 . S
C46 C51 1.391 . S
C47 H33 0.941 . S
C47 C46 1.389 . S
C47 C48 1.397 . S
C48 H34 0.939 . S
C48 C47 1.397 . S
C48 C49 1.378 . S
C49 C48 1.378 . S
C49 C50 1.378 . S
C50 H35 0.940 . S
C50 C49 1.378 . S
C50 C51 1.396 . S
C51 H36 0.940 . S
C51 C46 1.391 . S
C51 C50 1.396 . S
C52 P32 1.803 . S
C52 C53 1.378 . S
C52 C57 1.400 . S
C53 H37 0.939 . S
C53 C52 1.378 . S
C53 C54 1.361 . S
C54 H38 0.942 . S
C54 C53 1.361 . S
C54 C55 1.369 . S
C55 C54 1.369 . S
C55 C56 1.404 . S
C56 H39 0.940 . S
C56 C55 1.404 . S
C56 C57 1.389 . S
C57 H40 0.939 . S
C57 C52 1.400 . S
C57 C56 1.389 . S
C58 P32 1.819 . S
C58 C59 1.391 . S
C58 C63 1.391 . S
C59 H41 0.941 . S
C59 C58 1.391 . S
C59 C60 1.396 . S
C60 H44 0.939 . S
C60 C59 1.396 . S
C60 C61 1.397 . S
C61 C60 1.397 . S
C61 C62 1.385 . S
C62 H45 0.940 . S
C62 C61 1.385 . S
C62 C63 1.388 . S
C63 H42 0.939 . S
C63 C58 1.391 . S
C63 C62 1.388 . S
P64 O75 1.490 . S
P64 C78 1.812 . S
P64 C84 1.803 . S
P64 C90 1.819 . S
H65 C79 0.941 . S
H66 C80 0.939 . S
H67 C82 0.940 . S
H68 C83 0.940 . S
H69 C85 0.939 . S
H70 C86 0.942 . S
H71 C88 0.940 . S
H72 C89 0.939 . S
H73 C91 0.941 . S
H74 C95 0.939 . S
O75 P64 1.490 . S
H76 C92 0.939 . S
H77 C94 0.940 . S
C78 P64 1.812 . S
C78 C79 1.389 . S
C78 C83 1.391 . S
C79 H65 0.941 . S
C79 C78 1.389 . S
C79 C80 1.397 . S
C80 H66 0.939 . S
C80 C79 1.397 . S
C80 C81 1.378 . S
C81 C80 1.378 . S
C81 C82 1.378 . S
C82 H67 0.940 . S
C82 C81 1.378 . S
C82 C83 1.396 . S
C83 H68 0.940 . S
C83 C78 1.391 . S
C83 C82 1.396 . S
C84 P64 1.803 . S
C84 C85 1.378 . S
C84 C89 1.400 . S
C85 H69 0.939 . S
C85 C84 1.378 . S
C85 C86 1.361 . S
C86 H70 0.942 . S
C86 C85 1.361 . S
C86 C87 1.369 . S
C87 C86 1.369 . S
C87 C88 1.404 . S
C88 H71 0.940 . S
C88 C87 1.404 . S
C88 C89 1.389 . S
C89 H72 0.939 . S
C89 C84 1.400 . S
C89 C88 1.389 . S
C90 P64 1.819 . S
C90 C91 1.391 . S
C90 C95 1.391 . S
C91 H73 0.941 . S
C91 C90 1.391 . S
C91 C92 1.396 . S
C92 H76 0.939 . S
C92 C91 1.396 . S
C92 C93 1.397 . S
C93 C92 1.397 . S
C93 C94 1.385 . S
C94 H77 0.940 . S
C94 C93 1.385 . S
C94 C95 1.388 . S
C95 H74 0.939 . S
C95 C90 1.391 . S
C95 C94 1.388 . S
P96 O107 1.490 . S
P96 C110 1.812 . S
P96 C116 1.803 . S
P96 C122 1.819 . S
H97 C111 0.941 . S
H98 C112 0.939 . S
H99 C114 0.940 . S
H100 C115 0.940 . S
H101 C117 0.939 . S
H102 C118 0.942 . S
H103 C120 0.940 . S
H104 C121 0.939 . S
H105 C123 0.941 . S
H106 C127 0.939 . S
O107 P96 1.490 . S
H108 C124 0.939 . S
H109 C126 0.940 . S
C110 P96 1.812 . S
C110 C111 1.389 . S
C110 C115 1.391 . S
C111 H97 0.941 . S
C111 C110 1.389 . S
C111 C112 1.397 . S
C112 H98 0.939 . S
C112 C111 1.397 . S
C112 C113 1.378 . S
C113 C112 1.378 . S
C113 C114 1.378 . S
C114 H99 0.940 . S
C114 C113 1.378 . S
C114 C115 1.396 . S
C115 H100 0.940 . S
C115 C110 1.391 . S
C115 C114 1.396 . S
C116 P96 1.803 . S
C116 C117 1.378 . S
C116 C121 1.400 . S
C117 H101 0.939 . S
C117 C116 1.378 . S
C117 C118 1.361 . S
C118 H102 0.942 . S
C118 C117 1.361 . S
C118 C119 1.369 . S
C119 C118 1.369 . S
C119 C120 1.404 . S
C120 H103 0.940 . S
C120 C119 1.404 . S
C120 C121 1.389 . S
C121 H104 0.939 . S
C121 C116 1.400 . S
C121 C120 1.389 . S
C122 P96 1.819 . S
C122 C123 1.391 . S
C122 C127 1.391 . S
C123 H105 0.941 . S
C123 C122 1.391 . S
C123 C124 1.396 . S
C124 H108 0.939 . S
C124 C123 1.396 . S
C124 C125 1.397 . S
C125 C124 1.397 . S
C125 C126 1.385 . S
C126 H109 0.940 . S
C126 C125 1.385 . S
C126 C127 1.388 . S
C127 H106 0.939 . S
C127 C122 1.391 . S
C127 C126 1.388 . S
P128 O139 1.490 . S
P128 C142 1.812 . S
P128 C148 1.803 . S
P128 C154 1.819 . S
H129 C143 0.941 . S
H130 C144 0.939 . S
H131 C146 0.940 . S
H132 C147 0.940 . S
H133 C149 0.939 . S
H134 C150 0.942 . S
H135 C152 0.940 . S
H136 C153 0.939 . S
H137 C155 0.941 . S
H138 C159 0.939 . S
O139 P128 1.490 . S
H140 C156 0.939 . S
H141 C158 0.940 . S
C142 P128 1.812 . S
C142 C143 1.389 . S
C142 C147 1.391 . S
C143 H129 0.941 . S
C143 C142 1.389 . S
C143 C144 1.397 . S
C144 H130 0.939 . S
C144 C143 1.397 . S
C144 C145 1.378 . S
C145 C144 1.378 . S
C145 C146 1.378 . S
C146 H131 0.940 . S
C146 C145 1.378 . S
C146 C147 1.396 . S
C147 H132 0.940 . S
C147 C142 1.391 . S
C147 C146 1.396 . S
C148 P128 1.803 . S
C148 C149 1.378 . S
C148 C153 1.400 . S
C149 H133 0.939 . S
C149 C148 1.378 . S
C149 C150 1.361 . S
C150 H134 0.942 . S
C150 C149 1.361 . S
C150 C151 1.369 . S
C151 C150 1.369 . S
C151 C152 1.404 . S
C152 H135 0.940 . S
C152 C151 1.404 . S
C152 C153 1.389 . S
C153 H136 0.939 . S
C153 C148 1.400 . S
C153 C152 1.389 . S
C154 P128 1.819 . S
C154 C155 1.391 . S
C154 C159 1.391 . S
C155 H137 0.941 . S
C155 C154 1.391 . S
C155 C156 1.396 . S
C156 H140 0.939 . S
C156 C155 1.396 . S
C156 C157 1.397 . S
C157 C156 1.397 . S
C157 C158 1.385 . S
C158 H141 0.940 . S
C158 C157 1.385 . S
C158 C159 1.388 . S
C159 H138 0.939 . S
C159 C154 1.391 . S
C159 C158 1.388 . S
P160 O171 1.490 . S
P160 C174 1.812 . S
P160 C180 1.803 . S
P160 C186 1.819 . S
H161 C175 0.941 . S
H162 C176 0.939 . S
H163 C178 0.940 . S
H164 C179 0.940 . S
H165 C181 0.939 . S
H166 C182 0.942 . S
H167 C184 0.940 . S
H168 C185 0.939 . S
H169 C187 0.941 . S
H170 C191 0.939 . S
O171 P160 1.490 . S
H172 C188 0.939 . S
H173 C190 0.940 . S
C174 P160 1.812 . S
C174 C175 1.389 . S
C174 C179 1.391 . S
C175 H161 0.941 . S
C175 C174 1.389 . S
C175 C176 1.397 . S
C176 H162 0.939 . S
C176 C175 1.397 . S
C176 C177 1.378 . S
C177 C176 1.378 . S
C177 C178 1.378 . S
C178 H163 0.940 . S
C178 C177 1.378 . S
C178 C179 1.396 . S
C179 H164 0.940 . S
C179 C174 1.391 . S
C179 C178 1.396 . S
C180 P160 1.803 . S
C180 C181 1.378 . S
C180 C185 1.400 . S
C181 H165 0.939 . S
C181 C180 1.378 . S
C181 C182 1.361 . S
C182 H166 0.942 . S
C182 C181 1.361 . S
C182 C183 1.369 . S
C183 C182 1.369 . S
C183 C184 1.404 . S
C184 H167 0.940 . S
C184 C183 1.404 . S
C184 C185 1.389 . S
C185 H168 0.939 . S
C185 C180 1.400 . S
C185 C184 1.389 . S
C186 P160 1.819 . S
C186 C187 1.391 . S
C186 C191 1.391 . S
C187 H169 0.941 . S
C187 C186 1.391 . S
C187 C188 1.396 . S
C188 H172 0.939 . S
C188 C187 1.396 . S
C188 C189 1.397 . S
C189 C188 1.397 . S
C189 C190 1.385 . S
C190 H173 0.940 . S
C190 C189 1.385 . S
C190 C191 1.388 . S
C191 H170 0.939 . S
C191 C186 1.391 . S
C191 C190 1.388 . S
P192 O203 1.490 . S
P192 C206 1.812 . S
P192 C212 1.803 . S
P192 C218 1.819 . S
H193 C207 0.941 . S
H194 C208 0.939 . S
H195 C210 0.940 . S
H196 C211 0.940 . S
H197 C213 0.939 . S
H198 C214 0.942 . S
H199 C216 0.940 . S
H200 C217 0.939 . S
H201 C219 0.941 . S
H202 C223 0.939 . S
O203 P192 1.490 . S
H204 C220 0.939 . S
H205 C222 0.940 . S
C206 P192 1.812 . S
C206 C207 1.389 . S
C206 C211 1.391 . S
C207 H193 0.941 . S
C207 C206 1.389 . S
C207 C208 1.397 . S
C208 H194 0.939 . S
C208 C207 1.397 . S
C208 C209 1.378 . S
C209 C208 1.378 . S
C209 C210 1.378 . S
C210 H195 0.940 . S
C210 C209 1.378 . S
C210 C211 1.396 . S
C211 H196 0.940 . S
C211 C206 1.391 . S
C211 C210 1.396 . S
C212 P192 1.803 . S
C212 C213 1.378 . S
C212 C217 1.400 . S
C213 H197 0.939 . S
C213 C212 1.378 . S
C213 C214 1.361 . S
C214 H198 0.942 . S
C214 C213 1.361 . S
C214 C215 1.369 . S
C215 C214 1.369 . S
C215 C216 1.404 . S
C216 H199 0.940 . S
C216 C215 1.404 . S
C216 C217 1.389 . S
C217 H200 0.939 . S
C217 C212 1.400 . S
C217 C216 1.389 . S
C218 P192 1.819 . S
C218 C219 1.391 . S
C218 C223 1.391 . S
C219 H201 0.941 . S
C219 C218 1.391 . S
C219 C220 1.396 . S
C220 H204 0.939 . S
C220 C219 1.396 . S
C220 C221 1.397 . S
C221 C220 1.397 . S
C221 C222 1.385 . S
C222 H205 0.940 . S
C222 C221 1.385 . S
C222 C223 1.388 . S
C223 H202 0.939 . S
C223 C218 1.391 . S
C223 C222 1.388 . S
P224 O235 1.490 . S
P224 C238 1.812 . S
P224 C244 1.803 . S
P224 C250 1.819 . S
H225 C239 0.941 . S
H226 C240 0.939 . S
H227 C242 0.940 . S
H228 C243 0.940 . S
H229 C245 0.939 . S
H230 C246 0.942 . S
H231 C248 0.940 . S
H232 C249 0.939 . S
H233 C251 0.941 . S
H234 C255 0.939 . S
O235 P224 1.490 . S
H236 C252 0.939 . S
H237 C254 0.940 . S
C238 P224 1.812 . S
C238 C239 1.389 . S
C238 C243 1.391 . S
C239 H225 0.941 . S
C239 C238 1.389 . S
C239 C240 1.397 . S
C240 H226 0.939 . S
C240 C239 1.397 . S
C240 C241 1.378 . S
C241 C240 1.378 . S
C241 C242 1.378 . S
C242 H227 0.940 . S
C242 C241 1.378 . S
C242 C243 1.396 . S
C243 H228 0.940 . S
C243 C238 1.391 . S
C243 C242 1.396 . S
C244 P224 1.803 . S
C244 C245 1.378 . S
C244 C249 1.400 . S
C245 H229 0.939 . S
C245 C244 1.378 . S
C245 C246 1.361 . S
C246 H230 0.942 . S
C246 C245 1.361 . S
C246 C247 1.369 . S
C247 C246 1.369 . S
C247 C248 1.404 . S
C248 H231 0.940 . S
C248 C247 1.404 . S
C248 C249 1.389 . S
C249 H232 0.939 . S
C249 C244 1.400 . S
C249 C248 1.389 . S
C250 P224 1.819 . S
C250 C251 1.391 . S
C250 C255 1.391 . S
C251 H233 0.941 . S
C251 C250 1.391 . S
C251 C252 1.396 . S
C252 H236 0.939 . S
C252 C251 1.396 . S
C252 C253 1.397 . S
C253 C252 1.397 . S
C253 C254 1.385 . S
C254 H237 0.940 . S
C254 C253 1.385 . S
C254 C255 1.388 . S
C255 H234 0.939 . S
C255 C250 1.391 . S
C255 C254 1.388 . S
Co256 O259 2.042 . S
Co256 O266 2.264 . S
Co256 O285 2.286 . S
Co256 O286 2.069 . S
Co256 O288 2.015 . S
Co257 O259 2.122 . S
Co257 O265 2.073 . S
Co257 O266 2.327 . S
Co257 O267 1.976 . S
Co258 O259 2.087 . S
Co258 O261 2.087 1_455 S
Co258 O268 2.111 . S
Co258 O269 2.143 1_455 S
Co258 O273 2.111 1_455 S
Co258 O287 2.143 . S
O259 Co256 2.042 . S
O259 Co257 2.122 . S
O259 Co258 2.087 . S
O259 H260 0.980 . S
H260 O259 0.980 . S
O261 Co258 2.087 1_655 S
O261 Co262 2.042 . S
O261 Co263 2.122 . S
O261 H264 0.980 . S
Co262 O261 2.042 . S
Co262 O270 2.286 . S
Co262 O271 2.069 . S
Co262 O272 2.015 . S
Co262 O275 2.264 . S
Co263 O261 2.122 . S
Co263 O274 1.976 . S
Co263 O275 2.327 . S
Co263 O276 2.073 . S
H264 O261 0.980 . S
O265 Co257 2.073 . S
O265 C280 1.245 . S
O266 Co256 2.264 . S
O266 Co257 2.327 . S
O266 C280 1.257 . S
O267 Co257 1.976 . S
O267 C279 1.251 . S
O268 Co258 2.111 . S
O268 C279 1.274 . S
O269 Co258 2.143 1_655 S
O269 C282 1.246 . S
O270 Co262 2.286 . S
O270 C281 1.259 . S
O271 Co262 2.069 . S
O271 C281 1.289 . S
O272 Co262 2.015 . S
O272 C282 1.257 . S
O273 Co258 2.111 1_655 S
O273 C283 1.274 . S
O274 Co263 1.976 . S
O274 C283 1.251 . S
O275 Co262 2.264 . S
O275 Co263 2.327 . S
O275 C284 1.257 . S
O276 Co263 2.073 . S
O276 C284 1.245 . S
C277 O285 1.259 . S
C277 O286 1.289 . S
C278 O287 1.246 . S
C278 O288 1.257 . S
C279 O267 1.251 . S
C279 O268 1.274 . S
C280 O265 1.245 . S
C280 O266 1.257 . S
C281 O270 1.259 . S
C281 O271 1.289 . S
C282 O269 1.246 . S
C282 O272 1.257 . S
C283 O273 1.274 . S
C283 O274 1.251 . S
C284 O275 1.257 . S
C284 O276 1.245 . S
O285 Co256 2.286 . S
O285 C277 1.259 . S
O286 Co256 2.069 . S
O286 C277 1.289 . S
O287 Co258 2.143 . S
O287 C278 1.246 . S
O288 Co256 2.015 . S
O288 C278 1.257 . S
Co289 O292 2.042 . S
Co289 O299 2.264 . S
Co289 O318 2.286 . S
Co289 O319 2.069 . S
Co289 O321 2.015 . S
Co290 O292 2.122 . S
Co290 O298 2.073 . S
Co290 O299 2.327 . S
Co290 O300 1.976 . S
Co291 O292 2.087 1_545 S
Co291 O294 2.087 . S
Co291 O301 2.111 1_545 S
Co291 O302 2.143 . S
Co291 O306 2.111 . S
Co291 O320 2.143 1_545 S
O292 Co289 2.042 . S
O292 Co290 2.122 . S
O292 Co291 2.087 1_565 S
O292 H293 0.980 . S
H293 O292 0.980 . S
O294 Co291 2.087 . S
O294 Co295 2.042 . S
O294 Co296 2.122 . S
O294 H297 0.980 . S
Co295 O294 2.042 . S
Co295 O303 2.286 . S
Co295 O304 2.069 . S
Co295 O305 2.015 . S
Co295 O308 2.264 . S
Co296 O294 2.122 . S
Co296 O307 1.976 . S
Co296 O308 2.327 . S
Co296 O309 2.073 . S
H297 O294 0.980 . S
O298 Co290 2.073 . S
O298 C313 1.245 . S
O299 Co289 2.264 . S
O299 Co290 2.327 . S
O299 C313 1.257 . S
O300 Co290 1.976 . S
O300 C312 1.251 . S
O301 Co291 2.111 1_565 S
O301 C312 1.274 . S
O302 Co291 2.143 . S
O302 C315 1.246 . S
O303 Co295 2.286 . S
O303 C314 1.259 . S
O304 Co295 2.069 . S
O304 C314 1.289 . S
O305 Co295 2.015 . S
O305 C315 1.257 . S
O306 Co291 2.111 . S
O306 C316 1.274 . S
O307 Co296 1.976 . S
O307 C316 1.251 . S
O308 Co295 2.264 . S
O308 Co296 2.327 . S
O308 C317 1.257 . S
O309 Co296 2.073 . S
O309 C317 1.245 . S
C310 O318 1.259 . S
C310 O319 1.289 . S
C311 O320 1.246 . S
C311 O321 1.257 . S
C312 O300 1.251 . S
C312 O301 1.274 . S
C313 O298 1.245 . S
C313 O299 1.257 . S
C314 O303 1.259 . S
C314 O304 1.289 . S
C315 O302 1.246 . S
C315 O305 1.257 . S
C316 O306 1.274 . S
C316 O307 1.251 . S
C317 O308 1.257 . S
C317 O309 1.245 . S
O318 Co289 2.286 . S
O318 C310 1.259 . S
O319 Co289 2.069 . S
O319 C310 1.289 . S
O320 Co291 2.143 1_565 S
O320 C311 1.246 . S
O321 Co289 2.015 . S
O321 C311 1.257 . S
Co322 O325 2.042 . S
Co322 O332 2.264 . S
Co322 O351 2.286 . S
Co322 O352 2.069 . S
Co322 O354 2.015 . S
Co323 O325 2.122 . S
Co323 O331 2.073 . S
Co323 O332 2.327 . S
Co323 O333 1.976 . S
Co324 O325 2.087 . S
Co324 O327 2.087 1_554 S
Co324 O334 2.111 . S
Co324 O335 2.143 1_554 S
Co324 O339 2.111 1_554 S
Co324 O353 2.143 . S
O325 Co322 2.042 . S
O325 Co323 2.122 . S
O325 Co324 2.087 . S
O325 H326 0.980 . S
H326 O325 0.980 . S
O327 Co324 2.087 1_556 S
O327 Co328 2.042 . S
O327 Co329 2.122 . S
O327 H330 0.980 . S
Co328 O327 2.042 . S
Co328 O336 2.286 . S
Co328 O337 2.069 . S
Co328 O338 2.015 . S
Co328 O341 2.264 . S
Co329 O327 2.122 . S
Co329 O340 1.976 . S
Co329 O341 2.327 . S
Co329 O342 2.073 . S
H330 O327 0.980 . S
O331 Co323 2.073 . S
O331 C346 1.245 . S
O332 Co322 2.264 . S
O332 Co323 2.327 . S
O332 C346 1.257 . S
O333 Co323 1.976 . S
O333 C345 1.251 . S
O334 Co324 2.111 . S
O334 C345 1.274 . S
O335 Co324 2.143 1_556 S
O335 C348 1.246 . S
O336 Co328 2.286 . S
O336 C347 1.259 . S
O337 Co328 2.069 . S
O337 C347 1.289 . S
O338 Co328 2.015 . S
O338 C348 1.257 . S
O339 Co324 2.111 1_556 S
O339 C349 1.274 . S
O340 Co329 1.976 . S
O340 C349 1.251 . S
O341 Co328 2.264 . S
O341 Co329 2.327 . S
O341 C350 1.257 . S
O342 Co329 2.073 . S
O342 C350 1.245 . S
C343 O351 1.259 . S
C343 O352 1.289 . S
C344 O353 1.246 . S
C344 O354 1.257 . S
C345 O333 1.251 . S
C345 O334 1.274 . S
C346 O331 1.245 . S
C346 O332 1.257 . S
C347 O336 1.259 . S
C347 O337 1.289 . S
C348 O335 1.246 . S
C348 O338 1.257 . S
C349 O339 1.274 . S
C349 O340 1.251 . S
C350 O341 1.257 . S
C350 O342 1.245 . S
O351 Co322 2.286 . S
O351 C343 1.259 . S
O352 Co322 2.069 . S
O352 C343 1.289 . S
O353 Co324 2.143 . S
O353 C344 1.246 . S
O354 Co322 2.015 . S
O354 C344 1.257 . S
H355 C363 0.950 . S
H356 C368 0.950 . S
H357 C365 0.950 . S
H358 C367 0.950 . S
H359 C369 0.950 . S
H360 C371 0.950 . S
H361 C373 0.950 . S
H362 C374 0.950 . S
C363 H355 0.950 . S
C363 C364 1.386 . S
C363 C365 1.391 . S
C364 C363 1.386 . S
C364 C368 1.393 . S
C365 H357 0.950 . S
C365 C363 1.391 . S
C365 C366 1.400 . S
C366 C365 1.400 . S
C366 C367 1.398 . S
C366 C372 1.491 . S
C367 H358 0.950 . S
C367 C366 1.398 . S
C367 C368 1.391 . S
C368 H356 0.950 . S
C368 C364 1.393 . S
C368 C367 1.391 . S
C369 H359 0.950 . S
C369 C370 1.386 . S
C369 C371 1.391 . S
C370 C369 1.386 . S
C370 C374 1.393 . S
C371 H360 0.950 . S
C371 C369 1.391 . S
C371 C372 1.400 . S
C372 C366 1.491 . S
C372 C371 1.400 . S
C372 C373 1.398 . S
C373 H361 0.950 . S
C373 C372 1.398 . S
C373 C374 1.391 . S
C374 H362 0.950 . S
C374 C370 1.393 . S
C374 C373 1.391 . S
H375 C383 0.950 . S
H376 C388 0.950 . S
H377 C385 0.950 . S
H378 C387 0.950 . S
H379 C389 0.950 . S
H380 C391 0.950 . S
H381 C393 0.950 . S
H382 C394 0.950 . S
C383 H375 0.950 . S
C383 C384 1.386 . S
C383 C385 1.391 . S
C384 C383 1.386 . S
C384 C388 1.393 . S
C385 H377 0.950 . S
C385 C383 1.391 . S
C385 C386 1.400 . S
C386 C385 1.400 . S
C386 C387 1.398 . S
C386 C392 1.491 . S
C387 H378 0.950 . S
C387 C386 1.398 . S
C387 C388 1.391 . S
C388 H376 0.950 . S
C388 C384 1.393 . S
C388 C387 1.391 . S
C389 H379 0.950 . S
C389 C390 1.386 . S
C389 C391 1.391 . S
C390 C389 1.386 . S
C390 C394 1.393 . S
C391 H380 0.950 . S
C391 C389 1.391 . S
C391 C392 1.400 . S
C392 C386 1.491 . S
C392 C391 1.400 . S
C392 C393 1.398 . S
C393 H381 0.950 . S
C393 C392 1.398 . S
C393 C394 1.391 . S
C394 H382 0.950 . S
C394 C390 1.393 . S
C394 C393 1.391 . S
H395 C403 0.950 . S
H396 C408 0.950 . S
H397 C405 0.950 . S
H398 C407 0.950 . S
H399 C409 0.950 . S
H400 C411 0.950 . S
H401 C413 0.950 . S
H402 C414 0.950 . S
C403 H395 0.950 . S
C403 C404 1.386 . S
C403 C405 1.391 . S
C404 C403 1.386 . S
C404 C408 1.393 . S
C405 H397 0.950 . S
C405 C403 1.391 . S
C405 C406 1.400 . S
C406 C405 1.400 . S
C406 C407 1.398 . S
C406 C412 1.491 . S
C407 H398 0.950 . S
C407 C406 1.398 . S
C407 C408 1.391 . S
C408 H396 0.950 . S
C408 C404 1.393 . S
C408 C407 1.391 . S
C409 H399 0.950 . S
C409 C410 1.386 . S
C409 C411 1.391 . S
C410 C409 1.386 . S
C410 C414 1.393 . S
C411 H400 0.950 . S
C411 C409 1.391 . S
C411 C412 1.400 . S
C412 C406 1.491 . S
C412 C411 1.400 . S
C412 C413 1.398 . S
C413 H401 0.950 . S
C413 C412 1.398 . S
C413 C414 1.391 . S
C414 H402 0.950 . S
C414 C410 1.393 . S
C414 C413 1.391 . S
H415 C423 0.950 . S
H416 C428 0.950 . S
H417 C425 0.950 . S
H418 C427 0.950 . S
H419 C429 0.950 . S
H420 C431 0.950 . S
H421 C433 0.950 . S
H422 C434 0.950 . S
C423 H415 0.950 . S
C423 C424 1.386 . S
C423 C425 1.391 . S
C424 C423 1.386 . S
C424 C428 1.393 . S
C425 H417 0.950 . S
C425 C423 1.391 . S
C425 C426 1.400 . S
C426 C425 1.400 . S
C426 C427 1.398 . S
C426 C432 1.491 . S
C427 H418 0.950 . S
C427 C426 1.398 . S
C427 C428 1.391 . S
C428 H416 0.950 . S
C428 C424 1.393 . S
C428 C427 1.391 . S
C429 H419 0.950 . S
C429 C430 1.386 . S
C429 C431 1.391 . S
C430 C429 1.386 . S
C430 C434 1.393 . S
C431 H420 0.950 . S
C431 C429 1.391 . S
C431 C432 1.400 . S
C432 C426 1.491 . S
C432 C431 1.400 . S
C432 C433 1.398 . S
C433 H421 0.950 . S
C433 C432 1.398 . S
C433 C434 1.391 . S
C434 H422 0.950 . S
C434 C430 1.393 . S
C434 C433 1.391 . S
H435 C443 0.950 . S
H436 C448 0.950 . S
H437 C445 0.950 . S
H438 C447 0.950 . S
H439 C449 0.950 . S
H440 C451 0.950 . S
H441 C453 0.950 . S
H442 C454 0.950 . S
C443 H435 0.950 . S
C443 C444 1.386 . S
C443 C445 1.391 . S
C444 C443 1.386 . S
C444 C448 1.393 . S
C445 H437 0.950 . S
C445 C443 1.391 . S
C445 C446 1.400 . S
C446 C445 1.400 . S
C446 C447 1.398 . S
C446 C452 1.491 . S
C447 H438 0.950 . S
C447 C446 1.398 . S
C447 C448 1.391 . S
C448 H436 0.950 . S
C448 C444 1.393 . S
C448 C447 1.391 . S
C449 H439 0.950 . S
C449 C450 1.386 . S
C449 C451 1.391 . S
C450 C449 1.386 . S
C450 C454 1.393 . S
C451 H440 0.950 . S
C451 C449 1.391 . S
C451 C452 1.400 . S
C452 C446 1.491 . S
C452 C451 1.400 . S
C452 C453 1.398 . S
C453 H441 0.950 . S
C453 C452 1.398 . S
C453 C454 1.391 . S
C454 H442 0.950 . S
C454 C450 1.393 . S
C454 C453 1.391 . S
H455 C463 0.950 . S
H456 C468 0.950 . S
H457 C465 0.950 . S
H458 C467 0.950 . S
H459 C469 0.950 . S
H460 C471 0.950 . S
H461 C473 0.950 . S
H462 C474 0.950 . S
C463 H455 0.950 . S
C463 C464 1.386 . S
C463 C465 1.391 . S
C464 C463 1.386 . S
C464 C468 1.393 . S
C465 H457 0.950 . S
C465 C463 1.391 . S
C465 C466 1.400 . S
C466 C465 1.400 . S
C466 C467 1.398 . S
C466 C472 1.491 . S
C467 H458 0.950 . S
C467 C466 1.398 . S
C467 C468 1.391 . S
C468 H456 0.950 . S
C468 C464 1.393 . S
C468 C467 1.391 . S
C469 H459 0.950 . S
C469 C470 1.386 . S
C469 C471 1.391 . S
C470 C469 1.386 . S
C470 C474 1.393 . S
C471 H460 0.950 . S
C471 C469 1.391 . S
C471 C472 1.400 . S
C472 C466 1.491 . S
C472 C471 1.400 . S
C472 C473 1.398 . S
C473 H461 0.950 . S
C473 C472 1.398 . S
C473 C474 1.391 . S
C474 H462 0.950 . S
C474 C470 1.393 . S
C474 C473 1.391 . S
H475 C483 0.950 . S
H476 C488 0.950 . S
H477 C485 0.950 . S
H478 C487 0.950 . S
H479 C489 0.950 . S
H480 C491 0.950 . S
H481 C493 0.950 . S
H482 C494 0.950 . S
C483 H475 0.950 . S
C483 C484 1.386 . S
C483 C485 1.391 . S
C484 C483 1.386 . S
C484 C488 1.393 . S
C485 H477 0.950 . S
C485 C483 1.391 . S
C485 C486 1.400 . S
C486 C485 1.400 . S
C486 C487 1.398 . S
C486 C492 1.491 . S
C487 H478 0.950 . S
C487 C486 1.398 . S
C487 C488 1.391 . S
C488 H476 0.950 . S
C488 C484 1.393 . S
C488 C487 1.391 . S
C489 H479 0.950 . S
C489 C490 1.386 . S
C489 C491 1.391 . S
C490 C489 1.386 . S
C490 C494 1.393 . S
C491 H480 0.950 . S
C491 C489 1.391 . S
C491 C492 1.400 . S
C492 C486 1.491 . S
C492 C491 1.400 . S
C492 C493 1.398 . S
C493 H481 0.950 . S
C493 C492 1.398 . S
C493 C494 1.391 . S
C494 H482 0.950 . S
C494 C490 1.393 . S
C494 C493 1.391 . S
H495 C503 0.950 . S
H496 C508 0.950 . S
H497 C505 0.950 . S
H498 C507 0.950 . S
H499 C509 0.950 . S
H500 C511 0.950 . S
H501 C513 0.950 . S
H502 C514 0.950 . S
C503 H495 0.950 . S
C503 C504 1.386 . S
C503 C505 1.391 . S
C504 C503 1.386 . S
C504 C508 1.393 . S
C505 H497 0.950 . S
C505 C503 1.391 . S
C505 C506 1.400 . S
C506 C505 1.400 . S
C506 C507 1.398 . S
C506 C512 1.491 . S
C507 H498 0.950 . S
C507 C506 1.398 . S
C507 C508 1.391 . S
C508 H496 0.950 . S
C508 C504 1.393 . S
C508 C507 1.391 . S
C509 H499 0.950 . S
C509 C510 1.386 . S
C509 C511 1.391 . S
C510 C509 1.386 . S
C510 C514 1.393 . S
C511 H500 0.950 . S
C511 C509 1.391 . S
C511 C512 1.400 . S
C512 C506 1.491 . S
C512 C511 1.400 . S
C512 C513 1.398 . S
C513 H501 0.950 . S
C513 C512 1.398 . S
C513 C514 1.391 . S
C514 H502 0.950 . S
C514 C510 1.393 . S
C514 C513 1.391 . S
H515 C523 0.950 . S
H516 C528 0.950 . S
H517 C525 0.950 . S
H518 C527 0.950 . S
H519 C529 0.950 . S
H520 C531 0.950 . S
H521 C533 0.950 . S
H522 C534 0.950 . S
C523 H515 0.950 . S
C523 C524 1.386 . S
C523 C525 1.391 . S
C524 C523 1.386 . S
C524 C528 1.393 . S
C525 H517 0.950 . S
C525 C523 1.391 . S
C525 C526 1.400 . S
C526 C525 1.400 . S
C526 C527 1.398 . S
C526 C532 1.491 . S
C527 H518 0.950 . S
C527 C526 1.398 . S
C527 C528 1.391 . S
C528 H516 0.950 . S
C528 C524 1.393 . S
C528 C527 1.391 . S
C529 H519 0.950 . S
C529 C530 1.386 . S
C529 C531 1.391 . S
C530 C529 1.386 . S
C530 C534 1.393 . S
C531 H520 0.950 . S
C531 C529 1.391 . S
C531 C532 1.400 . S
C532 C526 1.491 . S
C532 C531 1.400 . S
C532 C533 1.398 . S
C533 H521 0.950 . S
C533 C532 1.398 . S
C533 C534 1.391 . S
C534 H522 0.950 . S
C534 C530 1.393 . S
C534 C533 1.391 . S
H535 C543 0.950 . S
H536 C548 0.950 . S
H537 C545 0.950 . S
H538 C547 0.950 . S
H539 C549 0.950 . S
H540 C551 0.950 . S
H541 C553 0.950 . S
H542 C554 0.950 . S
C543 H535 0.950 . S
C543 C544 1.386 . S
C543 C545 1.391 . S
C544 C543 1.386 . S
C544 C548 1.393 . S
C545 H537 0.950 . S
C545 C543 1.391 . S
C545 C546 1.400 . S
C546 C545 1.400 . S
C546 C547 1.398 . S
C546 C552 1.491 . S
C547 H538 0.950 . S
C547 C546 1.398 . S
C547 C548 1.391 . S
C548 H536 0.950 . S
C548 C544 1.393 . S
C548 C547 1.391 . S
C549 H539 0.950 . S
C549 C550 1.386 . S
C549 C551 1.391 . S
C550 C549 1.386 . S
C550 C554 1.393 . S
C551 H540 0.950 . S
C551 C549 1.391 . S
C551 C552 1.400 . S
C552 C546 1.491 . S
C552 C551 1.400 . S
C552 C553 1.398 . S
C553 H541 0.950 . S
C553 C552 1.398 . S
C553 C554 1.391 . S
C554 H542 0.950 . S
C554 C550 1.393 . S
C554 C553 1.391 . S
H555 C563 0.950 . S
H556 C568 0.950 . S
H557 C565 0.950 . S
H558 C567 0.950 . S
H559 C569 0.950 . S
H560 C571 0.950 . S
H561 C573 0.950 . S
H562 C574 0.950 . S
C563 H555 0.950 . S
C563 C564 1.386 . S
C563 C565 1.391 . S
C564 C563 1.386 . S
C564 C568 1.393 . S
C565 H557 0.950 . S
C565 C563 1.391 . S
C565 C566 1.400 . S
C566 C565 1.400 . S
C566 C567 1.398 . S
C566 C572 1.491 . S
C567 H558 0.950 . S
C567 C566 1.398 . S
C567 C568 1.391 . S
C568 H556 0.950 . S
C568 C564 1.393 . S
C568 C567 1.391 . S
C569 H559 0.950 . S
C569 C570 1.386 . S
C569 C571 1.391 . S
C570 C569 1.386 . S
C570 C574 1.393 . S
C571 H560 0.950 . S
C571 C569 1.391 . S
C571 C572 1.400 . S
C572 C566 1.491 . S
C572 C571 1.400 . S
C572 C573 1.398 . S
C573 H561 0.950 . S
C573 C572 1.398 . S
C573 C574 1.391 . S
C574 H562 0.950 . S
C574 C570 1.393 . S
C574 C573 1.391 . S
H575 C583 0.950 . S
H576 C588 0.950 . S
H577 C585 0.950 . S
H578 C587 0.950 . S
H579 C589 0.950 . S
H580 C591 0.950 . S
H581 C593 0.950 . S
H582 C594 0.950 . S
C583 H575 0.950 . S
C583 C584 1.386 . S
C583 C585 1.391 . S
C584 C583 1.386 . S
C584 C588 1.393 . S
C585 H577 0.950 . S
C585 C583 1.391 . S
C585 C586 1.400 . S
C586 C585 1.400 . S
C586 C587 1.398 . S
C586 C592 1.491 . S
C587 H578 0.950 . S
C587 C586 1.398 . S
C587 C588 1.391 . S
C588 H576 0.950 . S
C588 C584 1.393 . S
C588 C587 1.391 . S
C589 H579 0.950 . S
C589 C590 1.386 . S
C589 C591 1.391 . S
C590 C589 1.386 . S
C590 C594 1.393 . S
C591 H580 0.950 . S
C591 C589 1.391 . S
C591 C592 1.400 . S
C592 C586 1.491 . S
C592 C591 1.400 . S
C592 C593 1.398 . S
C593 H581 0.950 . S
C593 C592 1.398 . S
C593 C594 1.391 . S
C594 H582 0.950 . S
C594 C590 1.393 . S
C594 C593 1.391 . S
H595 C603 0.950 . S
H596 C608 0.950 . S
H597 C605 0.950 . S
H598 C607 0.950 . S
H599 C609 0.950 . S
H600 C611 0.950 . S
H601 C613 0.950 . S
H602 C614 0.950 . S
C603 H595 0.950 . S
C603 C604 1.386 . S
C603 C605 1.391 . S
C604 C603 1.386 . S
C604 C608 1.393 . S
C605 H597 0.950 . S
C605 C603 1.391 . S
C605 C606 1.400 . S
C606 C605 1.400 . S
C606 C607 1.398 . S
C606 C612 1.491 . S
C607 H598 0.950 . S
C607 C606 1.398 . S
C607 C608 1.391 . S
C608 H596 0.950 . S
C608 C604 1.393 . S
C608 C607 1.391 . S
C609 H599 0.950 . S
C609 C610 1.386 . S
C609 C611 1.391 . S
C610 C609 1.386 . S
C610 C614 1.393 . S
C611 H600 0.950 . S
C611 C609 1.391 . S
C611 C612 1.400 . S
C612 C606 1.491 . S
C612 C611 1.400 . S
C612 C613 1.398 . S
C613 H601 0.950 . S
C613 C612 1.398 . S
C613 C614 1.391 . S
C614 H602 0.950 . S
C614 C610 1.393 . S
C614 C613 1.391 . S
H615 C623 0.950 . S
H616 C628 0.950 . S
H617 C625 0.950 . S
H618 C627 0.950 . S
H619 C629 0.950 . S
H620 C631 0.950 . S
H621 C633 0.950 . S
H622 C634 0.950 . S
C623 H615 0.950 . S
C623 C624 1.386 . S
C623 C625 1.391 . S
C624 C623 1.386 . S
C624 C628 1.393 . S
C625 H617 0.950 . S
C625 C623 1.391 . S
C625 C626 1.400 . S
C626 C625 1.400 . S
C626 C627 1.398 . S
C626 C632 1.491 . S
C627 H618 0.950 . S
C627 C626 1.398 . S
C627 C628 1.391 . S
C628 H616 0.950 . S
C628 C624 1.393 . S
C628 C627 1.391 . S
C629 H619 0.950 . S
C629 C630 1.386 . S
C629 C631 1.391 . S
C630 C629 1.386 . S
C630 C634 1.393 . S
C631 H620 0.950 . S
C631 C629 1.391 . S
C631 C632 1.400 . S
C632 C626 1.491 . S
C632 C631 1.400 . S
C632 C633 1.398 . S
C633 H621 0.950 . S
C633 C632 1.398 . S
C633 C634 1.391 . S
C634 H622 0.950 . S
C634 C630 1.393 . S
C634 C633 1.391 . S
H635 C643 0.950 . S
H636 C648 0.950 . S
H637 C645 0.950 . S
H638 C647 0.950 . S
H639 C649 0.950 . S
H640 C651 0.950 . S
H641 C653 0.950 . S
H642 C654 0.950 . S
C643 H635 0.950 . S
C643 C644 1.386 . S
C643 C645 1.391 . S
C644 C643 1.386 . S
C644 C648 1.393 . S
C645 H637 0.950 . S
C645 C643 1.391 . S
C645 C646 1.400 . S
C646 C645 1.400 . S
C646 C647 1.398 . S
C646 C652 1.491 . S
C647 H638 0.950 . S
C647 C646 1.398 . S
C647 C648 1.391 . S
C648 H636 0.950 . S
C648 C644 1.393 . S
C648 C647 1.391 . S
C649 H639 0.950 . S
C649 C650 1.386 . S
C649 C651 1.391 . S
C650 C649 1.386 . S
C650 C654 1.393 . S
C651 H640 0.950 . S
C651 C649 1.391 . S
C651 C652 1.400 . S
C652 C646 1.491 . S
C652 C651 1.400 . S
C652 C653 1.398 . S
C653 H641 0.950 . S
C653 C652 1.398 . S
C653 C654 1.391 . S
C654 H642 0.950 . S
C654 C650 1.393 . S
C654 C653 1.391 . S
H655 C663 0.950 . S
H656 C668 0.950 . S
H657 C665 0.950 . S
H658 C667 0.950 . S
H659 C669 0.950 . S
H660 C671 0.950 . S
H661 C673 0.950 . S
H662 C674 0.950 . S
C663 H655 0.950 . S
C663 C664 1.386 . S
C663 C665 1.391 . S
C664 C663 1.386 . S
C664 C668 1.393 . S
C665 H657 0.950 . S
C665 C663 1.391 . S
C665 C666 1.400 . S
C666 C665 1.400 . S
C666 C667 1.398 . S
C666 C672 1.491 . S
C667 H658 0.950 . S
C667 C666 1.398 . S
C667 C668 1.391 . S
C668 H656 0.950 . S
C668 C664 1.393 . S
C668 C667 1.391 . S
C669 H659 0.950 . S
C669 C670 1.386 . S
C669 C671 1.391 . S
C670 C669 1.386 . S
C670 C674 1.393 . S
C671 H660 0.950 . S
C671 C669 1.391 . S
C671 C672 1.400 . S
C672 C666 1.491 . S
C672 C671 1.400 . S
C672 C673 1.398 . S
C673 H661 0.950 . S
C673 C672 1.398 . S
C673 C674 1.391 . S
C674 H662 0.950 . S
C674 C670 1.393 . S
C674 C673 1.391 . S
H675 C683 0.950 . S
H676 C688 0.950 . S
H677 C685 0.950 . S
H678 C687 0.950 . S
H679 C689 0.950 . S
H680 C691 0.950 . S
H681 C693 0.950 . S
H682 C694 0.950 . S
C683 H675 0.950 . S
C683 C684 1.386 . S
C683 C685 1.391 . S
C684 C683 1.386 . S
C684 C688 1.393 . S
C685 H677 0.950 . S
C685 C683 1.391 . S
C685 C686 1.400 . S
C686 C685 1.400 . S
C686 C687 1.398 . S
C686 C692 1.491 . S
C687 H678 0.950 . S
C687 C686 1.398 . S
C687 C688 1.391 . S
C688 H676 0.950 . S
C688 C684 1.393 . S
C688 C687 1.391 . S
C689 H679 0.950 . S
C689 C690 1.386 . S
C689 C691 1.391 . S
C690 C689 1.386 . S
C690 C694 1.393 . S
C691 H680 0.950 . S
C691 C689 1.391 . S
C691 C692 1.400 . S
C692 C686 1.491 . S
C692 C691 1.400 . S
C692 C693 1.398 . S
C693 H681 0.950 . S
C693 C692 1.398 . S
C693 C694 1.391 . S
C694 H682 0.950 . S
C694 C690 1.393 . S
C694 C693 1.391 . S
H695 C703 0.950 . S
H696 C708 0.950 . S
H697 C705 0.950 . S
H698 C707 0.950 . S
H699 C709 0.950 . S
H700 C711 0.950 . S
H701 C713 0.950 . S
H702 C714 0.950 . S
C703 H695 0.950 . S
C703 C704 1.386 . S
C703 C705 1.391 . S
C704 C703 1.386 . S
C704 C708 1.393 . S
C705 H697 0.950 . S
C705 C703 1.391 . S
C705 C706 1.400 . S
C706 C705 1.400 . S
C706 C707 1.398 . S
C706 C712 1.491 . S
C707 H698 0.950 . S
C707 C706 1.398 . S
C707 C708 1.391 . S
C708 H696 0.950 . S
C708 C704 1.393 . S
C708 C707 1.391 . S
C709 H699 0.950 . S
C709 C710 1.386 . S
C709 C711 1.391 . S
C710 C709 1.386 . S
C710 C714 1.393 . S
C711 H700 0.950 . S
C711 C709 1.391 . S
C711 C712 1.400 . S
C712 C706 1.491 . S
C712 C711 1.400 . S
C712 C713 1.398 . S
C713 H701 0.950 . S
C713 C712 1.398 . S
C713 C714 1.391 . S
C714 H702 0.950 . S
C714 C710 1.393 . S
C714 C713 1.391 . S
H715 C723 0.950 . S
H716 C728 0.950 . S
H717 C725 0.950 . S
H718 C727 0.950 . S
H719 C729 0.950 . S
H720 C731 0.950 . S
H721 C733 0.950 . S
H722 C734 0.950 . S
C723 H715 0.950 . S
C723 C724 1.386 . S
C723 C725 1.391 . S
C724 C723 1.386 . S
C724 C728 1.393 . S
C725 H717 0.950 . S
C725 C723 1.391 . S
C725 C726 1.400 . S
C726 C725 1.400 . S
C726 C727 1.398 . S
C726 C732 1.491 . S
C727 H718 0.950 . S
C727 C726 1.398 . S
C727 C728 1.391 . S
C728 H716 0.950 . S
C728 C724 1.393 . S
C728 C727 1.391 . S
C729 H719 0.950 . S
C729 C730 1.386 . S
C729 C731 1.391 . S
C730 C729 1.386 . S
C730 C734 1.393 . S
C731 H720 0.950 . S
C731 C729 1.391 . S
C731 C732 1.400 . S
C732 C726 1.491 . S
C732 C731 1.400 . S
C732 C733 1.398 . S
C733 H721 0.950 . S
C733 C732 1.398 . S
C733 C734 1.391 . S
C734 H722 0.950 . S
C734 C730 1.393 . S
C734 C733 1.391 . S
H735 C743 0.950 . S
H736 C748 0.950 . S
H737 C745 0.950 . S
H738 C747 0.950 . S
H739 C749 0.950 . S
H740 C751 0.950 . S
H741 C753 0.950 . S
H742 C754 0.950 . S
C743 H735 0.950 . S
C743 C744 1.386 . S
C743 C745 1.391 . S
C744 C743 1.386 . S
C744 C748 1.393 . S
C745 H737 0.950 . S
C745 C743 1.391 . S
C745 C746 1.400 . S
C746 C745 1.400 . S
C746 C747 1.398 . S
C746 C752 1.491 . S
C747 H738 0.950 . S
C747 C746 1.398 . S
C747 C748 1.391 . S
C748 H736 0.950 . S
C748 C744 1.393 . S
C748 C747 1.391 . S
C749 H739 0.950 . S
C749 C750 1.386 . S
C749 C751 1.391 . S
C750 C749 1.386 . S
C750 C754 1.393 . S
C751 H740 0.950 . S
C751 C749 1.391 . S
C751 C752 1.400 . S
C752 C746 1.491 . S
C752 C751 1.400 . S
C752 C753 1.398 . S
C753 H741 0.950 . S
C753 C752 1.398 . S
C753 C754 1.391 . S
C754 H742 0.950 . S
C754 C750 1.393 . S
C754 C753 1.391 . S
H755 C763 0.950 . S
H756 C768 0.950 . S
H757 C765 0.950 . S
H758 C767 0.950 . S
H759 C769 0.950 . S
H760 C771 0.950 . S
H761 C773 0.950 . S
H762 C774 0.950 . S
C763 H755 0.950 . S
C763 C764 1.386 . S
C763 C765 1.391 . S
C764 C763 1.386 . S
C764 C768 1.393 . S
C765 H757 0.950 . S
C765 C763 1.391 . S
C765 C766 1.400 . S
C766 C765 1.400 . S
C766 C767 1.398 . S
C766 C772 1.491 . S
C767 H758 0.950 . S
C767 C766 1.398 . S
C767 C768 1.391 . S
C768 H756 0.950 . S
C768 C764 1.393 . S
C768 C767 1.391 . S
C769 H759 0.950 . S
C769 C770 1.386 . S
C769 C771 1.391 . S
C770 C769 1.386 . S
C770 C774 1.393 . S
C771 H760 0.950 . S
C771 C769 1.391 . S
C771 C772 1.400 . S
C772 C766 1.491 . S
C772 C771 1.400 . S
C772 C773 1.398 . S
C773 H761 0.950 . S
C773 C772 1.398 . S
C773 C774 1.391 . S
C774 H762 0.950 . S
C774 C770 1.393 . S
C774 C773 1.391 . S
H775 C783 0.950 . S
H776 C788 0.950 . S
H777 C785 0.950 . S
H778 C787 0.950 . S
H779 C789 0.950 . S
H780 C791 0.950 . S
H781 C793 0.950 . S
H782 C794 0.950 . S
C783 H775 0.950 . S
C783 C784 1.386 . S
C783 C785 1.391 . S
C784 C783 1.386 . S
C784 C788 1.393 . S
C785 H777 0.950 . S
C785 C783 1.391 . S
C785 C786 1.400 . S
C786 C785 1.400 . S
C786 C787 1.398 . S
C786 C792 1.491 . S
C787 H778 0.950 . S
C787 C786 1.398 . S
C787 C788 1.391 . S
C788 H776 0.950 . S
C788 C784 1.393 . S
C788 C787 1.391 . S
C789 H779 0.950 . S
C789 C790 1.386 . S
C789 C791 1.391 . S
C790 C789 1.386 . S
C790 C794 1.393 . S
C791 H780 0.950 . S
C791 C789 1.391 . S
C791 C792 1.400 . S
C792 C786 1.491 . S
C792 C791 1.400 . S
C792 C793 1.398 . S
C793 H781 0.950 . S
C793 C792 1.398 . S
C793 C794 1.391 . S
C794 H782 0.950 . S
C794 C790 1.393 . S
C794 C793 1.391 . S
H795 C803 0.950 . S
H796 C808 0.950 . S
H797 C805 0.950 . S
H798 C807 0.950 . S
H799 C809 0.950 . S
H800 C811 0.950 . S
H801 C813 0.950 . S
H802 C814 0.950 . S
C803 H795 0.950 . S
C803 C804 1.386 . S
C803 C805 1.391 . S
C804 C803 1.386 . S
C804 C808 1.393 . S
C805 H797 0.950 . S
C805 C803 1.391 . S
C805 C806 1.400 . S
C806 C805 1.400 . S
C806 C807 1.398 . S
C806 C812 1.491 . S
C807 H798 0.950 . S
C807 C806 1.398 . S
C807 C808 1.391 . S
C808 H796 0.950 . S
C808 C804 1.393 . S
C808 C807 1.391 . S
C809 H799 0.950 . S
C809 C810 1.386 . S
C809 C811 1.391 . S
C810 C809 1.386 . S
C810 C814 1.393 . S
C811 H800 0.950 . S
C811 C809 1.391 . S
C811 C812 1.400 . S
C812 C806 1.491 . S
C812 C811 1.400 . S
C812 C813 1.398 . S
C813 H801 0.950 . S
C813 C812 1.398 . S
C813 C814 1.391 . S
C814 H802 0.950 . S
C814 C810 1.393 . S
C814 C813 1.391 . S
H815 C823 0.950 . S
H816 C828 0.950 . S
H817 C825 0.950 . S
H818 C827 0.950 . S
H819 C829 0.950 . S
H820 C831 0.950 . S
H821 C833 0.950 . S
H822 C834 0.950 . S
C823 H815 0.950 . S
C823 C824 1.386 . S
C823 C825 1.391 . S
C824 C823 1.386 . S
C824 C828 1.393 . S
C825 H817 0.950 . S
C825 C823 1.391 . S
C825 C826 1.400 . S
C826 C825 1.400 . S
C826 C827 1.398 . S
C826 C832 1.491 . S
C827 H818 0.950 . S
C827 C826 1.398 . S
C827 C828 1.391 . S
C828 H816 0.950 . S
C828 C824 1.393 . S
C828 C827 1.391 . S
C829 H819 0.950 . S
C829 C830 1.386 . S
C829 C831 1.391 . S
C830 C829 1.386 . S
C830 C834 1.393 . S
C831 H820 0.950 . S
C831 C829 1.391 . S
C831 C832 1.400 . S
C832 C826 1.491 . S
C832 C831 1.400 . S
C832 C833 1.398 . S
C833 H821 0.950 . S
C833 C832 1.398 . S
C833 C834 1.391 . S
C834 H822 0.950 . S
C834 C830 1.393 . S
C834 C833 1.391 . S
C370 C280 1.096 . S
C364 C17 1.106 . S
C390 C316 1.628 . S
C384 C55 1.732 . S
C410 C281 1.361 . S
C404 C87 1.372 . S
C430 C311 1.479 . S
C424 C113 1.535 . S
C450 C278 1.404 . S
C444 C145 1.415 . S
C464 C183 1.554 . S
C470 C314 1.625 . S
C484 C215 1.194 . S
C490 C283 1.076 . S
C510 C313 1.392 . S
C504 C247 1.422 . S
C530 C317 1.345 . S
C524 C23 1.362 . S
C550 C282 1.474 . S
C544 C49 1.556 . S
C570 C310 1.683 . S
C564 C81 1.697 . S
C590 C279 1.148 . S
C584 C125 1.237 . S
C610 C312 1.566 . S
C604 C151 1.613 . S
C624 C189 1.348 . S
C630 C277 1.395 . S
C644 C209 1.585 . S
C650 C315 1.530 . S
C670 C284 1.087 . S
C664 C241 1.147 . S
C690 C346 1.686 . S
C684 C29 1.735 . S
C704 C157 1.929 . S
C710 C349 1.883 . S
C730 C348 1.613 . S
C724 C177 1.596 . S
C744 C221 2.097 . S
C750 C347 2.073 . S
C770 C350 1.695 . S
C764 C253 1.764 . S
C784 C93 1.772 . S
C790 C344 1.688 . S
C810 C343 1.967 . S
C804 C119 1.994 . S
C824 C61 2.056 . S
C830 C345 1.906 . S
