# Generated by pormake.
# Topology hwx, (6,3)-cn, num edge types: 1
# Building blocks:
#     Node 0, Type 0, BuildingBlock: IZENUY_clean_sbu_0, # of connection points: 6
#     Node 1, Type 0, BuildingBlock: IZENUY_clean_sbu_0, # of connection points: 6
#     Node 2, Type 0, BuildingBlock: IZENUY_clean_sbu_0, # of connection points: 6
#     Node 3, Type 0, BuildingBlock: IZENUY_clean_sbu_0, # of connection points: 6
#     Node 4, Type 1, BuildingBlock: VETTIZ_charged_linker_0, # of connection points: 3
#     Node 5, Type 1, BuildingBlock: VETTIZ_charged_linker_0, # of connection points: 3
#     Node 6, Type 1, BuildingBlock: VETTIZ_charged_linker_0, # of connection points: 3
#     Node 7, Type 1, BuildingBlock: VETTIZ_charged_linker_0, # of connection points: 3
#     Node 8, Type 1, BuildingBlock: VETTIZ_charged_linker_0, # of connection points: 3
#     Node 9, Type 1, BuildingBlock: VETTIZ_charged_linker_0, # of connection points: 3
#     Node 10, Type 1, BuildingBlock: VETTIZ_charged_linker_0, # of connection points: 3
#     Node 11, Type 1, BuildingBlock: VETTIZ_charged_linker_0, # of connection points: 3
#     Edge 12, Type (0, 1), BuildingBlock: OJICUG_clean_linker_0, # of connection points: 2
#     Edge 13, Type (0, 1), BuildingBlock: OJICUG_clean_linker_0, # of connection points: 2
#     Edge 14, Type (0, 1), BuildingBlock: OJICUG_clean_linker_0, # of connection points: 2
#     Edge 15, Type (0, 1), BuildingBlock: OJICUG_clean_linker_0, # of connection points: 2
#     Edge 16, Type (0, 1), BuildingBlock: OJICUG_clean_linker_0, # of connection points: 2
#     Edge 17, Type (0, 1), BuildingBlock: OJICUG_clean_linker_0, # of connection points: 2
#     Edge 18, Type (0, 1), BuildingBlock: OJICUG_clean_linker_0, # of connection points: 2
#     Edge 19, Type (0, 1), BuildingBlock: OJICUG_clean_linker_0, # of connection points: 2
#     Edge 20, Type (0, 1), BuildingBlock: OJICUG_clean_linker_0, # of connection points: 2
#     Edge 21, Type (0, 1), BuildingBlock: OJICUG_clean_linker_0, # of connection points: 2
#     Edge 22, Type (0, 1), BuildingBlock: OJICUG_clean_linker_0, # of connection points: 2
#     Edge 23, Type (0, 1), BuildingBlock: OJICUG_clean_linker_0, # of connection points: 2
#     Edge 24, Type (0, 1), BuildingBlock: OJICUG_clean_linker_0, # of connection points: 2
#     Edge 25, Type (0, 1), BuildingBlock: OJICUG_clean_linker_0, # of connection points: 2
#     Edge 26, Type (0, 1), BuildingBlock: OJICUG_clean_linker_0, # of connection points: 2
#     Edge 27, Type (0, 1), BuildingBlock: OJICUG_clean_linker_0, # of connection points: 2
#     Edge 28, Type (0, 1), BuildingBlock: OJICUG_clean_linker_0, # of connection points: 2
#     Edge 29, Type (0, 1), BuildingBlock: OJICUG_clean_linker_0, # of connection points: 2
#     Edge 30, Type (0, 1), BuildingBlock: OJICUG_clean_linker_0, # of connection points: 2
#     Edge 31, Type (0, 1), BuildingBlock: OJICUG_clean_linker_0, # of connection points: 2
#     Edge 32, Type (0, 1), BuildingBlock: OJICUG_clean_linker_0, # of connection points: 2
#     Edge 33, Type (0, 1), BuildingBlock: OJICUG_clean_linker_0, # of connection points: 2
#     Edge 34, Type (0, 1), BuildingBlock: OJICUG_clean_linker_0, # of connection points: 2
#     Edge 35, Type (0, 1), BuildingBlock: OJICUG_clean_linker_0, # of connection points: 2
# Relax obj value: 0.054
# Max RMSD: 0.078
# Mean RMSD: 0.070
data_MOF--net-hwx--node1-IZENUY_clean_sbu_0--node2-VETTIZ_charged_linker_0--edge1-OJICUG_clean_linker_0
_symmetry_space_group_name_H-M    P1
_symmetry_Int_Tables_number       1
_symmetry_cell_setting            triclinic
loop_
_symmetry_equiv_pos_as_xyz
'x, y, z'
_cell_length_a     44.813385
_cell_length_b     44.72991
_cell_length_c     21.930342
_cell_angle_alpha  90.109421
_cell_angle_beta   89.923496
_cell_angle_gamma 90.048377
loop_
_atom_site_label
_atom_site_type_symbol
_atom_site_fract_x
_atom_site_fract_y
_atom_site_fract_z
_atom_type_partial_charge
Fe0 Fe 0.23845 0.21819 0.0653 0.0
Fe1 Fe 0.24628 0.21146 0.92662 0.0
O2 O 0.23325 0.19743 0.99733 0.0
Fe3 Fe 0.21485 0.1623 0.00052 0.0
O4 O 0.19098 0.17204 0.06554 0.0
O5 O 0.19849 0.21997 0.0792 0.0
O6 O 0.23533 0.25496 0.02952 0.0
C7 C 0.22513 0.26319 0.97858 0.0
C8 C 0.25025 0.15862 0.10108 0.0
O9 O 0.22449 0.24555 0.93365 0.0
C10 C 0.25951 0.15216 0.91113 0.0
O11 O 0.27869 0.2179 0.05614 0.0
O12 O 0.27937 0.2297 0.9587 0.0
O13 O 0.2436 0.14706 0.05025 0.0
O14 O 0.24265 0.18519 0.11366 0.0
C15 C 0.18939 0.18716 0.89945 0.0
O16 O 0.26939 0.17858 0.91322 0.0
O17 O 0.23487 0.14573 0.93592 0.0
C18 C 0.29248 0.22695 0.00949 0.0
O19 O 0.21512 0.19581 0.88292 0.0
O20 O 0.18522 0.17563 0.9513 0.0
C21 C 0.18227 0.19712 0.0855 0.0
Fe22 Fe 0.25821 0.7187 0.55113 0.0
Fe23 Fe 0.28193 0.66301 0.48494 0.0
O24 O 0.26505 0.69901 0.48215 0.0
Fe25 Fe 0.25532 0.71519 0.41108 0.0
O26 O 0.27775 0.7484 0.42497 0.0
O27 O 0.26368 0.75604 0.5196 0.0
O28 O 0.29764 0.71873 0.57032 0.0
C29 C 0.31288 0.69524 0.57657 0.0
C30 C 0.20641 0.72941 0.4881 0.0
O31 O 0.30414 0.67085 0.55329 0.0
C32 C 0.2403 0.65677 0.38834 0.0
O33 O 0.25129 0.68505 0.5961 0.0
O34 O 0.25119 0.648 0.53026 0.0
O35 O 0.22141 0.73319 0.43976 0.0
O36 O 0.21839 0.72012 0.53657 0.0
C37 C 0.312 0.68896 0.38932 0.0
O38 O 0.26313 0.64823 0.4171 0.0
O39 O 0.232 0.68366 0.39002 0.0
C40 C 0.24341 0.65889 0.58106 0.0
O41 O 0.31372 0.67571 0.44005 0.0
O42 O 0.28751 0.69974 0.37076 0.0
C43 C 0.27615 0.76497 0.47138 0.0
Fe44 Fe 0.75991 0.79089 0.9376 0.0
Fe45 Fe 0.75241 0.79568 0.07629 0.0
O46 O 0.7659 0.81052 0.00664 0.0
Fe47 Fe 0.78531 0.84521 0.00621 0.0
O48 O 0.75774 0.86211 0.95652 0.0
O49 O 0.75568 0.82465 0.89131 0.0
O50 O 0.7197 0.79182 0.94756 0.0
C51 C 0.70597 0.78201 0.99354 0.0
C52 C 0.81687 0.81082 0.91888 0.0
O53 O 0.7195 0.77751 0.04321 0.0
C54 C 0.80906 0.81933 0.10779 0.0
O55 O 0.76295 0.75362 0.97177 0.0
O56 O 0.77444 0.76196 0.0679 0.0
O57 O 0.80943 0.83576 0.94146 0.0
O58 O 0.79968 0.78858 0.9225 0.0
C59 C 0.73919 0.85476 0.09239 0.0
O60 O 0.78297 0.81094 0.1221 0.0
O61 O 0.81424 0.83065 0.05614 0.0
C62 C 0.77377 0.74494 0.022 0.0
O63 O 0.7293 0.82837 0.08957 0.0
O64 O 0.76459 0.86115 0.07063 0.0
C65 C 0.74944 0.8513 0.90617 0.0
Fe66 Fe 0.71244 0.34238 0.50778 0.0
Fe67 Fe 0.74067 0.29178 0.58279 0.0
O68 O 0.7326 0.30828 0.51131 0.0
Fe69 Fe 0.74473 0.29042 0.44371 0.0
O70 O 0.76669 0.32261 0.4217 0.0
O71 O 0.73242 0.3566 0.44043 0.0
O72 O 0.74005 0.36175 0.55412 0.0
C73 C 0.74728 0.35364 0.60707 0.0
C74 C 0.68753 0.31231 0.41159 0.0
O75 O 0.74264 0.32714 0.62458 0.0
C76 C 0.72698 0.24179 0.5093 0.0
O77 O 0.68886 0.33381 0.57434 0.0
O78 O 0.70132 0.28784 0.59965 0.0
O79 O 0.71313 0.30259 0.39765 0.0
O80 O 0.68322 0.32591 0.4612 0.0
C81 C 0.79355 0.28419 0.52337 0.0
O82 O 0.74003 0.25318 0.55485 0.0
O83 O 0.72344 0.25681 0.46124 0.0
C84 C 0.68284 0.30914 0.60017 0.0
O85 O 0.78062 0.29476 0.56981 0.0
O86 O 0.77888 0.27543 0.47744 0.0
C87 C 0.75695 0.34889 0.41616 0.0
C88 C 0.19243 0.55691 0.7751 0.0
C89 C 0.18814 0.5881 0.77185 0.0
C90 C 0.17467 0.60278 0.8219 0.0
C91 C 0.17824 0.55779 0.8819 0.0
C92 C 0.18685 0.54214 0.83049 0.0
C93 C 0.19007 0.5092 0.84346 0.0
H94 H 0.21205 0.4002 0.05113 0.0
C95 C 0.18031 0.53767 0.9348 0.0
C96 C 0.18647 0.50891 0.91265 0.0
H97 H 0.19334 0.39035 0.85818 0.0
H98 H 0.18806 0.4436 0.84918 0.0
H99 H 0.25169 0.45823 0.04236 0.0
H100 H 0.15731 0.44901 0.07611 0.0
H101 H 0.17336 0.47337 0.13058 0.0
H102 H 0.18566 0.43521 0.12662 0.0
H103 H 0.23759 0.44857 0.11634 0.0
H104 H 0.24136 0.48704 0.09253 0.0
C105 C 0.22153 0.49881 0.82364 0.0
C106 C 0.16435 0.49233 0.81067 0.0
C107 C 0.18882 0.58409 0.14541 0.0
C108 C 0.20112 0.57396 0.20078 0.0
C109 C 0.20826 0.5432 0.20559 0.0
C110 C 0.20409 0.52353 0.1562 0.0
C111 C 0.19343 0.53463 0.10044 0.0
C112 C 0.18627 0.56455 0.09576 0.0
C113 C 0.1793 0.57359 0.03136 0.0
C114 C 0.18247 0.54388 0.99826 0.0
C115 C 0.19037 0.52101 0.03905 0.0
C116 C 0.20339 0.59659 0.01181 0.0
C117 C 0.1469 0.5856 0.02896 0.0
C118 C 0.20636 0.40924 0.00692 0.0
C119 C 0.20349 0.39053 0.95523 0.0
C120 C 0.19654 0.40386 0.89863 0.0
C121 C 0.19304 0.43486 0.89339 0.0
C122 C 0.1961 0.45299 0.94518 0.0
C123 C 0.20204 0.44016 0.00104 0.0
C124 C 0.20276 0.46308 0.05161 0.0
C125 C 0.19478 0.4914 0.017 0.0
C126 C 0.19197 0.48536 0.95438 0.0
C127 C 0.23488 0.46432 0.07765 0.0
C128 C 0.17864 0.45482 0.09918 0.0
H129 H 0.16073 0.60043 0.91416 0.0
H130 H 0.20152 0.54461 0.73685 0.0
H131 H 0.14708 0.50777 0.79243 0.0
H132 H 0.15214 0.47725 0.84219 0.0
H133 H 0.17277 0.47903 0.77144 0.0
H134 H 0.23891 0.51365 0.84355 0.0
H135 H 0.22384 0.49935 0.77323 0.0
H136 H 0.22658 0.47584 0.83873 0.0
H137 H 0.18221 0.60713 0.1394 0.0
H138 H 0.2182 0.5343 0.24661 0.0
H139 H 0.2103 0.50059 0.16268 0.0
H140 H 0.22603 0.58856 0.02456 0.0
H141 H 0.19973 0.61845 0.03474 0.0
H142 H 0.20439 0.60069 0.96253 0.0
H143 H 0.13281 0.57545 0.06526 0.0
H144 H 0.13553 0.57975 0.98578 0.0
H145 H 0.14632 0.61024 0.03532 0.0
H146 H 0.16928 0.62635 0.81967 0.0
C147 C 0.16973 0.58778 0.87683 0.0
C148 C 0.06426 0.76644 0.53269 0.0
C149 C 0.08265 0.76662 0.48051 0.0
C150 C 0.07066 0.77743 0.42516 0.0
C151 C 0.02312 0.78679 0.47407 0.0
C152 C 0.03495 0.77707 0.52866 0.0
C153 C 0.01319 0.78018 0.58059 0.0
H154 H 0.87825 0.82758 0.68112 0.0
C155 C 0.99231 0.79694 0.48544 0.0
C156 C 0.9866 0.79383 0.54817 0.0
H157 H 0.94629 0.78245 0.78506 0.0
H158 H 0.97798 0.77984 0.69514 0.0
H159 H 0.92231 0.87004 0.59609 0.0
H160 H 0.87846 0.78561 0.58021 0.0
H161 H 0.88292 0.79671 0.50424 0.0
H162 H 0.86067 0.81922 0.5553 0.0
H163 H 0.88278 0.86475 0.58823 0.0
H164 H 0.90672 0.86822 0.52242 0.0
C165 C 0.02676 0.80183 0.62824 0.0
C166 C 0.00613 0.74856 0.60552 0.0
C167 C 0.92187 0.81941 0.30927 0.0
C168 C 0.8915 0.82743 0.30877 0.0
C169 C 0.8778 0.83676 0.36338 0.0
C170 C 0.89319 0.83581 0.41854 0.0
C171 C 0.92259 0.82518 0.41946 0.0
C172 C 0.93702 0.81839 0.3654 0.0
C173 C 0.96878 0.80851 0.37632 0.0
C174 C 0.96971 0.8078 0.44583 0.0
C175 C 0.94251 0.81751 0.4704 0.0
C176 C 0.99011 0.8325 0.34966 0.0
C177 C 0.97304 0.77701 0.34839 0.0
C178 C 0.90024 0.81765 0.68459 0.0
C179 C 0.91022 0.8057 0.7399 0.0
C180 C 0.93843 0.79197 0.74265 0.0
C181 C 0.95667 0.79052 0.69052 0.0
C182 C 0.94625 0.80247 0.6351 0.0
C183 C 0.91828 0.81541 0.63288 0.0
C184 C 0.90941 0.82428 0.56952 0.0
C185 C 0.93702 0.81529 0.53395 0.0
C186 C 0.95871 0.80299 0.57256 0.0
C187 C 0.90481 0.8586 0.56864 0.0
C188 C 0.88139 0.80577 0.55112 0.0
H189 H 0.03325 0.79516 0.37836 0.0
H190 H 0.07233 0.75818 0.57598 0.0
H191 H 0.00699 0.73152 0.56851 0.0
H192 H 0.98331 0.74675 0.62433 0.0
H193 H 0.02246 0.74185 0.64099 0.0
H194 H 0.03757 0.82118 0.60528 0.0
H195 H 0.04401 0.79041 0.65609 0.0
H196 H 0.00996 0.81163 0.65911 0.0
H197 H 0.93296 0.81253 0.26766 0.0
H198 H 0.85464 0.84373 0.36366 0.0
H199 H 0.88119 0.84237 0.45865 0.0
H200 H 0.97876 0.85442 0.34371 0.0
H201 H 0.99886 0.82566 0.30431 0.0
H202 H 0.00912 0.83729 0.38043 0.0
H203 H 0.95466 0.76189 0.36298 0.0
H204 H 0.99401 0.76626 0.36268 0.0
H205 H 0.97293 0.77802 0.29778 0.0
H206 H 0.08426 0.7788 0.38444 0.0
C207 C 0.04105 0.78732 0.42166 0.0
C208 C 0.80653 0.45201 0.21942 0.0
C209 C 0.80601 0.42057 0.2228 0.0
C210 C 0.81131 0.40376 0.16944 0.0
C211 C 0.8132 0.44911 0.10974 0.0
C212 C 0.81028 0.4658 0.16246 0.0
C213 C 0.81002 0.49891 0.14951 0.0
H214 H 0.78851 0.60944 0.94543 0.0
C215 C 0.81209 0.46967 0.05732 0.0
C216 C 0.81048 0.49893 0.08004 0.0
H217 H 0.81154 0.6179 0.13662 0.0
H218 H 0.81601 0.56443 0.14413 0.0
H219 H 0.84167 0.55991 0.91748 0.0
H220 H 0.74744 0.55233 0.95505 0.0
H221 H 0.75636 0.52611 0.89822 0.0
H222 H 0.7612 0.56544 0.88298 0.0
H223 H 0.81355 0.57268 0.86542 0.0
H224 H 0.82582 0.53435 0.86556 0.0
C225 C 0.8387 0.513 0.17686 0.0
C226 C 0.78073 0.51226 0.17519 0.0
C227 C 0.79749 0.42562 0.84692 0.0
C228 C 0.78713 0.43748 0.79155 0.0
C229 C 0.78452 0.4688 0.78595 0.0
C230 C 0.7906 0.48769 0.83579 0.0
C231 C 0.79905 0.47513 0.89201 0.0
C232 C 0.80251 0.44455 0.89649 0.0
C233 C 0.80866 0.43448 0.96049 0.0
C234 C 0.80869 0.46414 0.99398 0.0
C235 C 0.80348 0.48795 0.95372 0.0
C236 C 0.8399 0.41974 0.96168 0.0
C237 C 0.78272 0.41361 0.98114 0.0
C238 C 0.79495 0.60006 0.98891 0.0
C239 C 0.79911 0.61835 0.04072 0.0
C240 C 0.80723 0.60462 0.09626 0.0
C241 C 0.81013 0.57351 0.10059 0.0
C242 C 0.80512 0.55572 0.04887 0.0
C243 C 0.79856 0.56906 0.9938 0.0
C244 C 0.796 0.54661 0.94281 0.0
C245 C 0.80237 0.51769 0.97647 0.0
C246 C 0.8068 0.52315 0.03896 0.0
C247 C 0.82035 0.55368 0.89482 0.0
C248 C 0.76369 0.54764 0.91784 0.0
H249 H 0.81806 0.40378 0.07402 0.0
H250 H 0.8032 0.46549 0.25992 0.0
H251 H 0.76123 0.49874 0.16009 0.0
H252 H 0.77659 0.53531 0.15973 0.0
H253 H 0.78098 0.51243 0.22584 0.0
H254 H 0.85619 0.49593 0.18582 0.0
H255 H 0.83397 0.52447 0.22079 0.0
H256 H 0.84933 0.52908 0.14513 0.0
H257 H 0.8003 0.40175 0.85284 0.0
H258 H 0.7765 0.47864 0.74399 0.0
H259 H 0.7875 0.51126 0.82924 0.0
H260 H 0.85597 0.43265 0.93331 0.0
H261 H 0.83901 0.3966 0.94329 0.0
H262 H 0.84975 0.41922 0.00784 0.0
H263 H 0.76247 0.41636 0.95237 0.0
H264 H 0.7748 0.41863 0.02784 0.0
H265 H 0.78926 0.3897 0.97857 0.0
H266 H 0.81096 0.37956 0.17054 0.0
C267 C 0.81504 0.41786 0.11313 0.0
C268 C 0.06997 0.20742 0.29074 0.0
C269 C 0.09879 0.19582 0.28182 0.0
C270 C 0.11414 0.18297 0.33106 0.0
C271 C 0.07328 0.19532 0.39848 0.0
C272 C 0.05745 0.20653 0.34953 0.0
C273 C 0.02667 0.21673 0.36815 0.0
H274 H 0.92961 0.25004 0.59552 0.0
C275 C 0.05521 0.19948 0.45399 0.0
C276 C 0.02768 0.21161 0.43681 0.0
H277 H 0.91374 0.25069 0.40061 0.0
H278 H 0.96368 0.23342 0.38264 0.0
H279 H 0.96111 0.1852 0.59426 0.0
H280 H 0.9972 0.27458 0.59206 0.0
H281 H 0.0191 0.2531 0.64178 0.0
H282 H 0.98014 0.25881 0.65877 0.0
H283 H 0.9596 0.20945 0.65953 0.0
H284 H 0.99168 0.18628 0.6444 0.0
C285 C 0.00334 0.19635 0.33635 0.0
C286 C 0.02359 0.25026 0.3523 0.0
C287 C 0.10434 0.18379 0.6586 0.0
C288 C 0.09592 0.19076 0.71858 0.0
C289 C 0.06646 0.20019 0.73025 0.0
C290 C 0.04624 0.20424 0.68203 0.0
C291 C 0.0557 0.19887 0.62171 0.0
C292 C 0.08419 0.18832 0.61118 0.0
C293 C 0.09122 0.18512 0.54465 0.0
C294 C 0.06229 0.19574 0.51649 0.0
C295 C 0.04152 0.20372 0.56163 0.0
C296 C 0.09716 0.15159 0.53104 0.0
C297 C 0.11774 0.20631 0.52991 0.0
C298 C 0.93665 0.2463 0.5489 0.0
C299 C 0.91749 0.25239 0.4996 0.0
C300 C 0.92805 0.24722 0.43969 0.0
C301 C 0.95703 0.23677 0.42912 0.0
C302 C 0.97577 0.23097 0.47879 0.0
C303 C 0.96536 0.23527 0.53748 0.0
C304 C 0.98794 0.22626 0.58468 0.0
C305 C 0.01336 0.21549 0.54449 0.0
C306 C 0.00632 0.21892 0.48245 0.0
C307 C 0.97452 0.20058 0.62329 0.0
C308 C 0.99656 0.25446 0.62182 0.0
H309 H 0.11463 0.17298 0.42504 0.0
H310 H 0.05759 0.21683 0.25299 0.0
H311 H 0.04338 0.26294 0.36881 0.0
H312 H 0.00397 0.26083 0.37369 0.0
H313 H 0.02199 0.25347 0.30219 0.0
H314 H 0.01316 0.17455 0.32233 0.0
H315 H 0.99422 0.20706 0.29472 0.0
H316 H 0.98467 0.1903 0.3671 0.0
H317 H 0.12671 0.17606 0.64836 0.0
H318 H 0.0595 0.20568 0.77624 0.0
H319 H 0.02434 0.21222 0.69338 0.0
H320 H 0.08475 0.13688 0.56317 0.0
H321 H 0.12124 0.14613 0.53532 0.0
H322 H 0.08922 0.14475 0.4853 0.0
H323 H 0.11591 0.22752 0.55627 0.0
H324 H 0.1186 0.21343 0.48188 0.0
H325 H 0.13939 0.19579 0.54191 0.0
H326 H 0.1363 0.17378 0.32464 0.0
C327 C 0.10155 0.18262 0.38926 0.0
C328 C 0.6989 0.95004 0.70202 0.0
C329 C 0.70171 0.91868 0.70545 0.0
C330 C 0.69787 0.90165 0.65176 0.0
C331 C 0.69058 0.94664 0.5928 0.0
C332 C 0.69347 0.9635 0.64528 0.0
C333 C 0.69162 0.99655 0.63233 0.0
H334 H 0.69746 0.10786 0.42441 0.0
C335 C 0.68759 0.9672 0.54068 0.0
C336 C 0.68805 0.99655 0.56324 0.0
H337 H 0.69154 0.11544 0.62088 0.0
H338 H 0.68561 0.06212 0.62915 0.0
H339 H 0.73827 0.05014 0.41847 0.0
H340 H 0.64255 0.05935 0.4149 0.0
H341 H 0.6521 0.0309 0.36311 0.0
H342 H 0.66538 0.06851 0.35026 0.0
H343 H 0.71864 0.06625 0.35522 0.0
H344 H 0.72419 0.02653 0.36109 0.0
C345 C 0.72142 0.01102 0.65256 0.0
C346 C 0.6637 0.00928 0.66503 0.0
C347 C 0.68975 0.92427 0.327 0.0
C348 C 0.69199 0.93721 0.26889 0.0
C349 C 0.69005 0.96858 0.26346 0.0
C350 C 0.68709 0.98674 0.31541 0.0
C351 C 0.68639 0.97344 0.37347 0.0
C352 C 0.68714 0.94266 0.37826 0.0
C353 C 0.68752 0.93225 0.44323 0.0
C354 C 0.68672 0.96185 0.47695 0.0
C355 C 0.6862 0.98593 0.43603 0.0
C356 C 0.71716 0.91501 0.45408 0.0
C357 C 0.65883 0.9137 0.45459 0.0
C358 C 0.6945 0.09817 0.46922 0.0
C359 C 0.69581 0.11603 0.52211 0.0
C360 C 0.69167 0.10225 0.57942 0.0
C361 C 0.68811 0.07124 0.58425 0.0
C362 C 0.68864 0.05362 0.53131 0.0
C363 C 0.6907 0.06718 0.47489 0.0
C364 C 0.68943 0.04486 0.42352 0.0
C365 C 0.68701 0.01571 0.45858 0.0
C366 C 0.68717 0.02097 0.52182 0.0
C367 C 0.71901 0.047 0.38712 0.0
C368 C 0.66107 0.05117 0.3854 0.0
H369 H 0.68989 0.90104 0.55699 0.0
H370 H 0.70132 0.96385 0.74231 0.0
H371 H 0.6461 0.99191 0.67035 0.0
H372 H 0.65285 0.02732 0.63869 0.0
H373 H 0.66931 0.01772 0.71128 0.0
H374 H 0.74066 0.99737 0.63664 0.0
H375 H 0.72269 0.0126 0.70305 0.0
H376 H 0.72503 0.0335 0.63354 0.0
H377 H 0.69185 0.90033 0.33306 0.0
H378 H 0.69154 0.97908 0.21909 0.0
H379 H 0.68635 0.01047 0.30847 0.0
H380 H 0.73508 0.92269 0.42259 0.0
H381 H 0.71421 0.89061 0.44667 0.0
H382 H 0.72657 0.91878 0.50001 0.0
H383 H 0.63951 0.9235 0.42983 0.0
H384 H 0.65195 0.91348 0.50299 0.0
H385 H 0.66158 0.89032 0.43841 0.0
H386 H 0.70048 0.87759 0.65214 0.0
C387 C 0.69207 0.91538 0.59593 0.0
C388 C 0.57558 0.31309 0.20807 0.0
C389 C 0.60627 0.31954 0.21023 0.0
C390 C 0.62121 0.32816 0.15661 0.0
C391 C 0.5764 0.31972 0.09814 0.0
C392 C 0.56108 0.31325 0.15128 0.0
C393 C 0.52903 0.30499 0.13878 0.0
H394 H 0.4234 0.26636 0.93289 0.0
C395 C 0.55627 0.31452 0.0462 0.0
C396 C 0.52831 0.30624 0.06939 0.0
H397 H 0.4138 0.27452 0.12868 0.0
H398 H 0.46477 0.29135 0.13654 0.0
H399 H 0.45729 0.32902 0.91634 0.0
H400 H 0.49017 0.2388 0.93253 0.0
H401 H 0.50937 0.25651 0.87262 0.0
H402 H 0.4696 0.2516 0.86739 0.0
H403 H 0.45422 0.30251 0.8551 0.0
H404 H 0.48729 0.32506 0.86528 0.0
C405 C 0.50869 0.32907 0.16807 0.0
C406 C 0.52366 0.27292 0.16295 0.0
C407 C 0.59984 0.31437 0.83329 0.0
C408 C 0.5881 0.30754 0.77586 0.0
C409 C 0.55749 0.30126 0.76985 0.0
C410 C 0.5389 0.30078 0.82157 0.0
C411 C 0.55123 0.30666 0.87947 0.0
C412 C 0.58112 0.31392 0.88416 0.0
C413 C 0.59068 0.31948 0.94866 0.0
C414 C 0.56168 0.31404 0.98248 0.0
C415 C 0.5387 0.30626 0.94201 0.0
C416 C 0.60108 0.35249 0.95402 0.0
C417 C 0.61487 0.29594 0.96473 0.0
C418 C 0.43207 0.27201 0.97751 0.0
C419 C 0.41442 0.26879 0.03027 0.0
C420 C 0.42696 0.27614 0.08738 0.0
C421 C 0.45652 0.28616 0.09186 0.0
C422 C 0.47387 0.28887 0.03877 0.0
C423 C 0.46143 0.28229 0.98274 0.0
C424 C 0.48285 0.28749 0.93096 0.0
C425 C 0.51021 0.29825 0.9652 0.0
C426 C 0.50496 0.29859 0.02846 0.0
C427 C 0.46984 0.31214 0.88921 0.0
C428 C 0.48831 0.25717 0.89861 0.0
H429 H 0.61932 0.33448 0.06146 0.0
H430 H 0.56362 0.30661 0.24892 0.0
H431 H 0.54255 0.25805 0.15014 0.0
H432 H 0.50356 0.26226 0.14382 0.0
H433 H 0.52175 0.27285 0.21346 0.0
H434 H 0.52012 0.35114 0.1703 0.0
H435 H 0.50228 0.32285 0.21532 0.0
H436 H 0.4883 0.33326 0.14105 0.0
H437 H 0.62336 0.31941 0.83863 0.0
H438 H 0.5482 0.29603 0.72552 0.0
H439 H 0.51582 0.29534 0.81467 0.0
H440 H 0.5897 0.36695 0.92 0.0
H441 H 0.62548 0.35459 0.94623 0.0
H442 H 0.59534 0.36259 0.99865 0.0
H443 H 0.60958 0.27394 0.94353 0.0
H444 H 0.61649 0.29119 0.0139 0.0
H445 H 0.63716 0.30297 0.94781 0.0
H446 H 0.64475 0.33372 0.15773 0.0
C447 C 0.60642 0.3285 0.10075 0.0
C448 C 0.30361 0.06008 0.29977 0.0
C449 C 0.30381 0.09157 0.29816 0.0
C450 C 0.31417 0.10736 0.34977 0.0
C451 C 0.31696 0.06139 0.40695 0.0
C452 C 0.31059 0.04548 0.35457 0.0
C453 C 0.31114 0.01225 0.36556 0.0
H454 H 0.29745 0.89857 0.56373 0.0
C455 C 0.31823 0.04028 0.45837 0.0
C456 C 0.31558 0.01133 0.43449 0.0
H457 H 0.31431 0.89407 0.3691 0.0
H458 H 0.31939 0.94735 0.36588 0.0
H459 H 0.35256 0.94565 0.58677 0.0
H460 H 0.25772 0.95973 0.56629 0.0
H461 H 0.27085 0.98034 0.62936 0.0
H462 H 0.27336 0.94022 0.63025 0.0
H463 H 0.32642 0.93494 0.64491 0.0
H464 H 0.34093 0.97252 0.64041 0.0
C465 C 0.33809 0.99879 0.33042 0.0
C466 C 0.28063 0.99899 0.34642 0.0
C467 C 0.30904 0.08201 0.6726 0.0
C468 C 0.30366 0.06905 0.72988 0.0
C469 C 0.30328 0.03753 0.73435 0.0
C470 C 0.30724 0.01943 0.6824 0.0
C471 C 0.31138 0.03289 0.62507 0.0
C472 C 0.31265 0.06371 0.62128 0.0
C473 C 0.31609 0.07451 0.55692 0.0
C474 C 0.31696 0.04508 0.52235 0.0
C475 C 0.31394 0.02068 0.56225 0.0
C476 C 0.34595 0.09191 0.55167 0.0
C477 C 0.28798 0.09323 0.54141 0.0
C478 C 0.30254 0.90879 0.52028 0.0
C479 C 0.30444 0.89155 0.46623 0.0
C480 C 0.31133 0.9064 0.41115 0.0
C481 C 0.31466 0.93748 0.40923 0.0
C482 C 0.31146 0.95424 0.46286 0.0
C483 C 0.30666 0.93991 0.51762 0.0
C484 C 0.30673 0.96154 0.57059 0.0
C485 C 0.31216 0.99112 0.5381 0.0
C486 C 0.31392 0.98658 0.47474 0.0
C487 C 0.33285 0.95329 0.61345 0.0
C488 C 0.27566 0.96045 0.6013 0.0
H489 H 0.32729 0.10582 0.44231 0.0
H490 H 0.2967 0.04717 0.26047 0.0
H491 H 0.26208 0.01179 0.36781 0.0
H492 H 0.2778 0.9755 0.36035 0.0
H493 H 0.27779 0.99996 0.29616 0.0
H494 H 0.35381 0.01628 0.31393 0.0
H495 H 0.3307 0.98592 0.28978 0.0
H496 H 0.35179 0.98405 0.35985 0.0
H497 H 0.30896 0.10605 0.66699 0.0
H498 H 0.29952 0.02685 0.77796 0.0
H499 H 0.30629 0.99565 0.68864 0.0
H500 H 0.36203 0.08518 0.58776 0.0
H501 H 0.3424 0.11639 0.55607 0.0
H502 H 0.35772 0.0872 0.50824 0.0
H503 H 0.26742 0.08158 0.55716 0.0
H504 H 0.28473 0.09697 0.49234 0.0
H505 H 0.28879 0.11541 0.5642 0.0
H506 H 0.31611 0.13149 0.34902 0.0
C507 C 0.32072 0.09245 0.40401 0.0
C508 C 0.56457 0.73964 0.02347 0.0
C509 C 0.58219 0.74568 0.97158 0.0
C510 C 0.56951 0.74147 0.9133 0.0
C511 C 0.52286 0.72568 0.95892 0.0
C512 C 0.53522 0.72941 0.01609 0.0
C513 C 0.51379 0.72102 0.06624 0.0
H514 H 0.37488 0.67504 0.14585 0.0
C515 C 0.4922 0.71429 0.96669 0.0
C516 C 0.48686 0.71095 0.02955 0.0
H517 H 0.44545 0.70324 0.26671 0.0
H518 H 0.47924 0.70816 0.1803 0.0
H519 H 0.38489 0.72505 0.05165 0.0
H520 H 0.41431 0.63385 0.0578 0.0
H521 H 0.40841 0.64141 0.98024 0.0
H522 H 0.37748 0.64364 0.0331 0.0
H523 H 0.36047 0.69367 0.04085 0.0
H524 H 0.38008 0.71045 0.9781 0.0
C525 C 0.50713 0.74942 0.10436 0.0
C526 C 0.52751 0.69503 0.10325 0.0
C527 C 0.42389 0.70274 0.7825 0.0
C528 C 0.39486 0.69123 0.77654 0.0
C529 C 0.38047 0.67882 0.82759 0.0
C530 C 0.39429 0.67881 0.88459 0.0
C531 C 0.42286 0.69133 0.89073 0.0
C532 C 0.43766 0.70212 0.83998 0.0
C533 C 0.4689 0.71215 0.85506 0.0
C534 C 0.46954 0.70727 0.92377 0.0
C535 C 0.44233 0.69555 0.94418 0.0
C536 C 0.47179 0.74563 0.83845 0.0
C537 C 0.49122 0.69147 0.82104 0.0
C538 C 0.39776 0.6819 0.15376 0.0
C539 C 0.40755 0.68907 0.21265 0.0
C540 C 0.4375 0.69762 0.22149 0.0
C541 C 0.45688 0.70077 0.17125 0.0
C542 C 0.44603 0.69537 0.11189 0.0
C543 C 0.41704 0.68549 0.1044 0.0
C544 C 0.40842 0.68211 0.03876 0.0
C545 C 0.43684 0.69207 0.00745 0.0
C546 C 0.45891 0.69976 0.05017 0.0
C547 C 0.382 0.70369 0.02621 0.0
C548 C 0.40155 0.64863 0.02649 0.0
H549 H 0.53176 0.72892 0.86126 0.0
H550 H 0.5733 0.74287 0.06901 0.0
H551 H 0.53864 0.67871 0.07237 0.0
H552 H 0.51065 0.68199 0.12851 0.0
H553 H 0.54451 0.70342 0.13591 0.0
H554 H 0.5059 0.7695 0.0746 0.0
H555 H 0.5249 0.75344 0.13868 0.0
H556 H 0.48534 0.74852 0.12774 0.0
H557 H 0.43556 0.7118 0.74338 0.0
H558 H 0.35812 0.66975 0.82356 0.0
H559 H 0.38191 0.66954 0.92189 0.0
H560 H 0.45218 0.75835 0.85572 0.0
H561 H 0.47284 0.74864 0.78822 0.0
H562 H 0.49157 0.75639 0.85882 0.0
H563 H 0.48089 0.66966 0.80861 0.0
H564 H 0.51063 0.68542 0.84969 0.0
H565 H 0.49931 0.70193 0.7782 0.0
H566 H 0.58255 0.74523 0.87244 0.0
C567 C 0.54002 0.73163 0.90676 0.0
C568 C 0.14737 0.22494 0.15539 0.0
C569 C 0.15627 0.19807 0.12729 0.0
H570 H 0.12122 0.24524 0.22646 0.0
C571 C 0.14199 0.17129 0.1442 0.0
H572 H 0.15776 0.24597 0.14314 0.0
C573 C 0.1213 0.17097 0.19175 0.0
C574 C 0.11404 0.19746 0.22246 0.0
H575 H 0.14806 0.1502 0.12326 0.0
H576 H 0.11219 0.14978 0.20683 0.0
C577 C 0.12633 0.22462 0.20265 0.0
C578 C 0.2156 0.61231 0.61415 0.0
C579 C 0.22842 0.64025 0.62782 0.0
H580 H 0.192 0.57401 0.64846 0.0
C581 C 0.22717 0.65079 0.68815 0.0
H582 H 0.21615 0.60363 0.56803 0.0
C583 C 0.21384 0.63391 0.73378 0.0
C584 C 0.20079 0.60605 0.72073 0.0
H585 H 0.23705 0.67201 0.70084 0.0
H586 H 0.21457 0.64258 0.77989 0.0
C587 C 0.20183 0.59536 0.66024 0.0
C588 C 0.82629 0.80474 0.21129 0.0
C589 C 0.83229 0.81921 0.15579 0.0
H590 H 0.84051 0.79586 0.30226 0.0
C591 C 0.85961 0.83446 0.14885 0.0
H592 H 0.80578 0.79234 0.21807 0.0
C593 C 0.87976 0.83636 0.19773 0.0
C594 C 0.87269 0.82319 0.25404 0.0
H595 H 0.86497 0.84568 0.1065 0.0
H596 H 0.90019 0.84904 0.19235 0.0
C597 C 0.84618 0.80675 0.25968 0.0
C598 C 0.75257 0.37002 0.71474 0.0
C599 C 0.75724 0.3759 0.65263 0.0
H600 H 0.75702 0.38511 0.80622 0.0
C601 C 0.77116 0.40282 0.63564 0.0
H602 H 0.74135 0.3498 0.72941 0.0
C603 C 0.78095 0.42307 0.68038 0.0
C604 C 0.77665 0.41681 0.74271 0.0
H605 H 0.77496 0.40793 0.58799 0.0
H606 H 0.79229 0.44329 0.66623 0.0
C607 C 0.76182 0.39028 0.75898 0.0
C608 C 0.63781 0.32862 0.36938 0.0
C609 C 0.66387 0.31117 0.3647 0.0
H610 H 0.59866 0.34492 0.32339 0.0
C611 C 0.66857 0.29407 0.31174 0.0
H612 H 0.6335 0.34191 0.40976 0.0
C613 C 0.64889 0.29592 0.26298 0.0
C614 C 0.62394 0.31473 0.26602 0.0
H615 H 0.68809 0.27999 0.30692 0.0
H616 H 0.6537 0.28331 0.22187 0.0
C617 C 0.61789 0.33034 0.32022 0.0
C618 C 0.26148 0.10075 0.86544 0.0
C619 C 0.27396 0.12953 0.87105 0.0
H620 H 0.26086 0.05932 0.81672 0.0
C621 C 0.29867 0.13691 0.83451 0.0
H622 H 0.24255 0.09414 0.89306 0.0
C623 C 0.30945 0.11664 0.79094 0.0
C624 C 0.29574 0.08855 0.78279 0.0
H625 H 0.30904 0.15873 0.83795 0.0
H626 H 0.32801 0.12334 0.76239 0.0
C627 C 0.27218 0.08057 0.82186 0.0
C628 C 0.36476 0.67476 0.35963 0.0
C629 C 0.33808 0.69034 0.34776 0.0
H630 H 0.40818 0.6622 0.32585 0.0
C631 C 0.33591 0.70723 0.29396 0.0
H632 H 0.36721 0.66175 0.40091 0.0
C633 C 0.35908 0.70749 0.25182 0.0
C634 C 0.38513 0.69092 0.26209 0.0
H635 H 0.31602 0.71997 0.2836 0.0
H636 H 0.35637 0.72028 0.21026 0.0
C637 C 0.38821 0.6751 0.31701 0.0
C638 C 0.74333 0.90008 0.8516 0.0
C639 C 0.73446 0.87035 0.86091 0.0
H640 H 0.74045 0.93862 0.79418 0.0
C641 C 0.7123 0.85794 0.82355 0.0
H642 H 0.76043 0.91009 0.87995 0.0
C643 C 0.70017 0.87445 0.77579 0.0
C644 C 0.71059 0.90347 0.76305 0.0
H645 H 0.7047 0.8352 0.83066 0.0
H646 H 0.68325 0.86404 0.74766 0.0
C647 C 0.73171 0.91644 0.80267 0.0
C648 C 0.85686 0.83558 0.85759 0.0
C649 C 0.84365 0.80915 0.87948 0.0
H650 H 0.88847 0.85501 0.79586 0.0
C651 C 0.85508 0.78143 0.86007 0.0
H652 H 0.84864 0.85731 0.8716 0.0
C653 C 0.87834 0.78023 0.81748 0.0
C654 C 0.89017 0.80671 0.79317 0.0
H655 H 0.84549 0.7607 0.87644 0.0
H656 H 0.88598 0.75869 0.80112 0.0
C657 C 0.87968 0.83435 0.81438 0.0
C658 C 0.75961 0.39737 0.35893 0.0
C659 C 0.77222 0.36949 0.37339 0.0
H660 H 0.76053 0.43544 0.29999 0.0
C661 C 0.79846 0.36056 0.3432 0.0
H662 H 0.73953 0.40506 0.38156 0.0
C663 C 0.81061 0.37811 0.29677 0.0
C664 C 0.79685 0.405 0.27954 0.0
H665 H 0.80903 0.33942 0.35372 0.0
H666 H 0.8302 0.37009 0.27283 0.0
C667 C 0.7718 0.41494 0.31247 0.0
C668 C 0.13631 0.17668 0.86802 0.0
C669 C 0.16468 0.18863 0.85495 0.0
H670 H 0.09204 0.16791 0.83477 0.0
C671 C 0.16955 0.20224 0.79815 0.0
H672 H 0.1318 0.16623 0.91158 0.0
C673 C 0.14697 0.20327 0.75486 0.0
C674 C 0.11889 0.19064 0.76699 0.0
H675 H 0.19094 0.21208 0.78675 0.0
H676 H 0.15153 0.21401 0.71158 0.0
C677 C 0.11353 0.17775 0.82432 0.0
C678 C 0.22341 0.64606 0.28266 0.0
C679 C 0.22705 0.6364 0.34286 0.0
H680 H 0.21442 0.63421 0.19083 0.0
C681 C 0.22076 0.60652 0.35737 0.0
H682 H 0.22876 0.66888 0.27012 0.0
C683 C 0.21107 0.58656 0.31215 0.0
C684 C 0.20859 0.59575 0.25081 0.0
H685 H 0.22347 0.59859 0.40369 0.0
H686 H 0.20589 0.56388 0.32555 0.0
C687 C 0.21486 0.62597 0.23711 0.0
C688 C 0.34922 0.72123 0.64609 0.0
C689 C 0.33765 0.69465 0.62114 0.0
H690 H 0.37729 0.74085 0.71475 0.0
C691 C 0.34828 0.66706 0.6429 0.0
H692 H 0.34163 0.74281 0.63004 0.0
C693 C 0.36833 0.66604 0.69139 0.0
C694 C 0.37863 0.69254 0.71825 0.0
H695 H 0.33997 0.64614 0.62467 0.0
H696 H 0.3749 0.64453 0.7096 0.0
C697 C 0.36973 0.72016 0.69414 0.0
C698 C 0.69901 0.86927 0.16665 0.0
C699 C 0.7236 0.87728 0.13033 0.0
H700 H 0.6692 0.88229 0.23835 0.0
C701 C 0.73479 0.90662 0.13424 0.0
H702 H 0.68963 0.84697 0.16431 0.0
C703 C 0.72309 0.92679 0.17658 0.0
C704 C 0.69995 0.91809 0.21596 0.0
H705 H 0.75351 0.91366 0.10644 0.0
H706 H 0.73346 0.94857 0.18095 0.0
C707 C 0.68734 0.88947 0.20914 0.0
C708 C 0.65236 0.28236 0.6787 0.0
C709 C 0.65593 0.30682 0.63913 0.0
H710 H 0.62766 0.26361 0.75316 0.0
C711 C 0.63455 0.32988 0.64021 0.0
H712 H 0.66829 0.26416 0.67899 0.0
C713 C 0.61105 0.32924 0.68227 0.0
C714 C 0.60868 0.30559 0.72377 0.0
H715 H 0.63654 0.34893 0.61005 0.0
H716 H 0.59563 0.34786 0.6844 0.0
C717 C 0.62908 0.2819 0.72095 0.0
C718 C 0.26056 0.14992 0.21077 0.0
C719 C 0.26371 0.14045 0.15005 0.0
H720 H 0.26979 0.14167 0.30422 0.0
C721 C 0.28009 0.11434 0.13763 0.0
H722 H 0.24771 0.16967 0.22216 0.0
C723 C 0.29354 0.09839 0.18533 0.0
C724 C 0.29058 0.10821 0.24612 0.0
H725 H 0.28293 0.10659 0.09116 0.0
H726 H 0.30649 0.07865 0.17452 0.0
C727 C 0.27356 0.13395 0.25802 0.0
C728 C 0.22364 0.30983 0.91574 0.0
C729 C 0.21733 0.29502 0.97056 0.0
H730 H 0.22574 0.35149 0.86868 0.0
C731 C 0.20553 0.31142 0.01961 0.0
H732 H 0.23316 0.29778 0.87749 0.0
C733 C 0.20038 0.34212 0.0142 0.0
C734 C 0.20765 0.35741 0.96007 0.0
H735 H 0.20029 0.30046 0.06233 0.0
H736 H 0.19067 0.35377 0.05269 0.0
C737 C 0.21923 0.34071 0.91078 0.0
C738 C 0.15771 0.73386 0.43453 0.0
C739 C 0.17458 0.73772 0.4878 0.0
H740 H 0.11541 0.73845 0.39122 0.0
C741 C 0.161 0.75028 0.53948 0.0
H742 H 0.16759 0.72385 0.39425 0.0
C743 C 0.13126 0.75971 0.53724 0.0
C744 C 0.11422 0.75605 0.48369 0.0
H745 H 0.17365 0.75369 0.58099 0.0
H746 H 0.12195 0.77048 0.57717 0.0
C747 C 0.12781 0.74252 0.43272 0.0
C748 C 0.77757 0.69808 0.08344 0.0
C749 C 0.78238 0.71328 0.02842 0.0
H750 H 0.77777 0.65622 0.12988 0.0
C751 C 0.79399 0.69757 0.97831 0.0
H752 H 0.76834 0.70964 0.12261 0.0
C753 C 0.80034 0.66708 0.98285 0.0
C754 C 0.79445 0.65137 0.03718 0.0
H755 H 0.79819 0.70889 0.93551 0.0
H756 H 0.80977 0.65589 0.9435 0.0
C757 C 0.78318 0.66741 0.08758 0.0
C758 C 0.83979 0.26211 0.56785 0.0
C759 C 0.82592 0.27944 0.52297 0.0
H760 H 0.8793 0.23893 0.59473 0.0
C761 C 0.84261 0.2897 0.47317 0.0
H762 H 0.82709 0.25369 0.60622 0.0
C763 C 0.87263 0.28212 0.46727 0.0
C764 C 0.88642 0.26321 0.51004 0.0
H765 H 0.83224 0.30325 0.4382 0.0
H766 H 0.88483 0.2907 0.42842 0.0
C767 C 0.86973 0.25378 0.56114 0.0
C768 C 0.70029 0.19673 0.46672 0.0
C769 C 0.7187 0.20973 0.51137 0.0
H770 H 0.67792 0.15714 0.4357 0.0
C771 C 0.72923 0.19177 0.55923 0.0
H772 H 0.69168 0.21002 0.42946 0.0
C773 C 0.72172 0.16158 0.56241 0.0
C774 C 0.70313 0.14847 0.51827 0.0
H775 H 0.74367 0.20092 0.5942 0.0
H776 H 0.73101 0.14842 0.59916 0.0
C777 C 0.6925 0.16641 0.47024 0.0
C778 C 0.336 0.25614 0.97048 0.0
C779 C 0.32369 0.23732 0.01516 0.0
H780 H 0.37365 0.2816 0.94122 0.0
C781 C 0.34131 0.22901 0.06525 0.0
H782 H 0.3229 0.26327 0.93166 0.0
C783 C 0.37075 0.23912 0.07021 0.0
C784 C 0.38307 0.25806 0.02554 0.0
H785 H 0.33247 0.21441 0.10027 0.0
H786 H 0.38396 0.23174 0.10863 0.0
C787 C 0.36522 0.26655 0.97583 0.0
C788 C 0.28067 0.81337 0.41537 0.0
C789 C 0.28576 0.7965 0.46808 0.0
H790 H 0.28088 0.85648 0.3743 0.0
C791 C 0.29801 0.8106 0.51955 0.0
H792 H 0.27079 0.80312 0.3754 0.0
C793 C 0.30487 0.84111 0.51853 0.0
C794 C 0.29882 0.85852 0.46651 0.0
H795 H 0.30228 0.79796 0.56074 0.0
H796 H 0.31487 0.85093 0.55874 0.0
C797 C 0.28668 0.84406 0.41486 0.0
C798 C 0.6564 0.78438 0.94089 0.0
C799 C 0.67426 0.77319 0.98817 0.0
H800 H 0.6132 0.78542 0.89976 0.0
C801 C 0.66157 0.75333 0.0305 0.0
H802 H 0.66548 0.79997 0.90794 0.0
C803 C 0.6318 0.74448 0.02517 0.0
C804 C 0.6138 0.75562 0.97789 0.0
H805 H 0.67481 0.74413 0.06725 0.0
H806 H 0.62312 0.72842 0.05754 0.0
C807 C 0.62645 0.77589 0.93608 0.0
loop_
_geom_bond_atom_site_label_1
_geom_bond_atom_site_label_2
_geom_bond_distance
_geom_bond_site_symmetry_2
_ccdc_geom_bond_type
Fe0 O2 1.918 . S
Fe0 O5 1.997 . S
Fe0 O6 2.002 . S
Fe0 O11 1.976 . S
Fe0 O14 1.996 . S
Fe1 O2 1.918 1_556 S
Fe1 O9 1.997 . S
Fe1 O12 1.996 . S
Fe1 O16 1.976 . S
Fe1 O19 2.002 . S
O2 Fe0 1.918 . S
O2 Fe1 1.918 1_554 S
O2 Fe3 1.918 1_554 S
Fe3 O2 1.918 1_556 S
Fe3 O4 1.997 1_556 S
Fe3 O13 1.970 1_556 S
Fe3 O17 2.002 . S
Fe3 O20 2.003 . S
O4 Fe3 1.997 1_554 S
O4 C21 1.295 . S
O5 Fe0 1.997 . S
O5 C21 1.235 . S
O6 Fe0 2.002 . S
O6 C7 1.295 . S
C7 O6 1.295 . S
C7 O9 1.235 1_554 S
C8 O13 1.287 . S
C8 O14 1.255 . S
O9 Fe1 1.997 . S
O9 C7 1.235 1_556 S
C10 O16 1.287 . S
C10 O17 1.255 . S
O11 Fe0 1.976 . S
O11 C18 1.287 1_554 S
O12 Fe1 1.996 . S
O12 C18 1.255 . S
O13 Fe3 1.970 1_554 S
O13 C8 1.287 . S
O14 Fe0 1.996 . S
O14 C8 1.255 . S
C15 O19 1.295 . S
C15 O20 1.235 . S
O16 Fe1 1.976 . S
O16 C10 1.287 . S
O17 Fe3 2.002 . S
O17 C10 1.255 . S
C18 O11 1.287 1_556 S
C18 O12 1.255 . S
O19 Fe1 2.002 . S
O19 C15 1.295 . S
O20 Fe3 2.003 . S
O20 C15 1.235 . S
C21 O4 1.295 . S
C21 O5 1.235 . S
Fe22 O24 1.918 . S
Fe22 O27 1.997 . S
Fe22 O28 2.002 . S
Fe22 O33 1.976 . S
Fe22 O36 1.996 . S
Fe23 O24 1.918 . S
Fe23 O31 1.997 . S
Fe23 O34 1.996 . S
Fe23 O38 1.976 . S
Fe23 O41 2.002 . S
O24 Fe22 1.918 . S
O24 Fe23 1.918 . S
O24 Fe25 1.918 . S
Fe25 O24 1.918 . S
Fe25 O26 2.002 . S
Fe25 O35 1.976 . S
Fe25 O39 1.996 . S
Fe25 O42 1.997 . S
O26 Fe25 2.002 . S
O26 C43 1.295 . S
O27 Fe22 1.997 . S
O27 C43 1.235 . S
O28 Fe22 2.002 . S
O28 C29 1.295 . S
C29 O28 1.295 . S
C29 O31 1.235 . S
C30 O35 1.287 . S
C30 O36 1.255 . S
O31 Fe23 1.997 . S
O31 C29 1.235 . S
C32 O38 1.287 . S
C32 O39 1.255 . S
O33 Fe22 1.976 . S
O33 C40 1.287 . S
O34 Fe23 1.996 . S
O34 C40 1.255 . S
O35 Fe25 1.976 . S
O35 C30 1.287 . S
O36 Fe22 1.996 . S
O36 C30 1.255 . S
C37 O41 1.295 . S
C37 O42 1.235 . S
O38 Fe23 1.976 . S
O38 C32 1.287 . S
O39 Fe25 1.996 . S
O39 C32 1.255 . S
C40 O33 1.287 . S
C40 O34 1.255 . S
O41 Fe23 2.002 . S
O41 C37 1.295 . S
O42 Fe25 1.997 . S
O42 C37 1.235 . S
C43 O26 1.295 . S
C43 O27 1.235 . S
Fe44 O46 1.918 1_556 S
Fe44 O49 1.997 . S
Fe44 O50 2.002 . S
Fe44 O55 1.976 . S
Fe44 O58 1.996 . S
Fe45 O46 1.918 . S
Fe45 O53 1.997 . S
Fe45 O56 1.996 . S
Fe45 O60 1.976 . S
Fe45 O63 2.002 . S
O46 Fe44 1.918 1_554 S
O46 Fe45 1.918 . S
O46 Fe47 1.918 . S
Fe47 O46 1.918 . S
Fe47 O48 1.994 1_554 S
Fe47 O57 1.967 1_554 S
Fe47 O61 2.005 . S
Fe47 O64 2.006 . S
O48 Fe47 1.994 1_556 S
O48 C65 1.295 . S
O49 Fe44 1.997 . S
O49 C65 1.235 . S
O50 Fe44 2.002 . S
O50 C51 1.295 . S
C51 O50 1.295 . S
C51 O53 1.235 1_556 S
C52 O57 1.287 . S
C52 O58 1.255 . S
O53 Fe45 1.997 . S
O53 C51 1.235 1_554 S
C54 O60 1.287 . S
C54 O61 1.255 . S
O55 Fe44 1.976 . S
O55 C62 1.287 1_556 S
O56 Fe45 1.996 . S
O56 C62 1.255 . S
O57 Fe47 1.967 1_556 S
O57 C52 1.287 . S
O58 Fe44 1.996 . S
O58 C52 1.255 . S
C59 O63 1.295 . S
C59 O64 1.235 . S
O60 Fe45 1.976 . S
O60 C54 1.287 . S
O61 Fe47 2.005 . S
O61 C54 1.255 . S
C62 O55 1.287 1_554 S
C62 O56 1.255 . S
O63 Fe45 2.002 . S
O63 C59 1.295 . S
O64 Fe47 2.006 . S
O64 C59 1.235 . S
C65 O48 1.295 . S
C65 O49 1.235 . S
Fe66 O68 1.918 . S
Fe66 O71 1.997 . S
Fe66 O72 2.002 . S
Fe66 O77 1.976 . S
Fe66 O80 1.996 . S
Fe67 O68 1.918 . S
Fe67 O75 1.997 . S
Fe67 O78 1.996 . S
Fe67 O82 1.976 . S
Fe67 O85 2.002 . S
O68 Fe66 1.918 . S
O68 Fe67 1.918 . S
O68 Fe69 1.918 . S
Fe69 O68 1.918 . S
Fe69 O70 2.002 . S
Fe69 O79 1.976 . S
Fe69 O83 1.996 . S
Fe69 O86 1.997 . S
O70 Fe69 2.002 . S
O70 C87 1.295 . S
O71 Fe66 1.997 . S
O71 C87 1.235 . S
O72 Fe66 2.002 . S
O72 C73 1.295 . S
C73 O72 1.295 . S
C73 O75 1.235 . S
C74 O79 1.287 . S
C74 O80 1.255 . S
O75 Fe67 1.997 . S
O75 C73 1.235 . S
C76 O82 1.287 . S
C76 O83 1.255 . S
O77 Fe66 1.976 . S
O77 C84 1.287 . S
O78 Fe67 1.996 . S
O78 C84 1.255 . S
O79 Fe69 1.976 . S
O79 C74 1.287 . S
O80 Fe66 1.996 . S
O80 C74 1.255 . S
C81 O85 1.295 . S
C81 O86 1.235 . S
O82 Fe67 1.976 . S
O82 C76 1.287 . S
O83 Fe69 1.996 . S
O83 C76 1.255 . S
C84 O77 1.287 . S
C84 O78 1.255 . S
O85 Fe67 2.002 . S
O85 C81 1.295 . S
O86 Fe69 1.997 . S
O86 C81 1.235 . S
C87 O70 1.295 . S
C87 O71 1.235 . S
C88 C89 1.391 . S
C88 C92 1.391 . S
C88 H130 0.948 . S
C89 C88 1.391 . S
C89 C90 1.391 . S
C90 C89 1.391 . S
C90 H146 0.947 . S
C90 C147 1.392 . S
C91 C92 1.391 . S
C91 C95 1.397 . S
C91 C147 1.419 . S
C92 C88 1.391 . S
C92 C91 1.391 . S
C92 C93 1.399 . S
C93 C92 1.399 . S
C93 C96 1.396 . S
C93 C105 1.453 . S
C93 C106 1.684 . S
H94 C118 0.948 . S
C95 C91 1.397 . S
C95 C96 1.394 . S
C95 C114 1.723 1_556 S
C96 C93 1.396 . S
C96 C95 1.394 . S
C96 C126 1.723 . S
H97 C120 0.947 . S
H98 C121 0.948 . S
H99 C127 0.982 . S
H100 C128 0.979 . S
H101 C128 0.980 . S
H102 C128 0.983 . S
H103 C127 0.979 . S
H104 C127 0.977 . S
C105 C93 1.453 . S
C105 H134 0.982 . S
C105 H135 0.979 . S
C105 H136 0.977 . S
C106 C93 1.684 . S
C106 H131 0.979 . S
C106 H132 0.980 . S
C106 H133 0.983 . S
C107 C108 1.391 . S
C107 C112 1.391 . S
C107 H137 0.948 . S
C108 C107 1.391 . S
C108 C109 1.391 . S
C109 C108 1.391 . S
C109 C110 1.392 . S
C109 H138 0.947 . S
C110 C109 1.392 . S
C110 C111 1.419 . S
C110 H139 0.948 . S
C111 C110 1.419 . S
C111 C112 1.391 . S
C111 C115 1.397 . S
C112 C107 1.391 . S
C112 C111 1.391 . S
C112 C113 1.399 . S
C113 C112 1.399 . S
C113 C114 1.396 . S
C113 C116 1.453 . S
C113 C117 1.684 . S
C114 C95 1.723 1_554 S
C114 C113 1.396 . S
C114 C115 1.394 . S
C115 C111 1.397 . S
C115 C114 1.394 . S
C115 C125 1.723 . S
C116 C113 1.453 . S
C116 H140 0.982 . S
C116 H141 0.979 . S
C116 H142 0.977 1_554 S
C117 C113 1.684 . S
C117 H143 0.979 . S
C117 H144 0.980 1_554 S
C117 H145 0.983 . S
C118 H94 0.948 . S
C118 C119 1.391 1_554 S
C118 C123 1.391 . S
C119 C118 1.391 1_556 S
C119 C120 1.391 . S
C120 H97 0.947 . S
C120 C119 1.391 . S
C120 C121 1.392 . S
C121 H98 0.948 . S
C121 C120 1.392 . S
C121 C122 1.419 . S
C122 C121 1.419 . S
C122 C123 1.391 1_556 S
C122 C126 1.397 . S
C123 C118 1.391 . S
C123 C122 1.391 1_554 S
C123 C124 1.399 . S
C124 C123 1.399 . S
C124 C125 1.396 . S
C124 C127 1.453 . S
C124 C128 1.684 . S
C125 C115 1.723 . S
C125 C124 1.396 . S
C125 C126 1.394 1_554 S
C126 C96 1.723 . S
C126 C122 1.397 . S
C126 C125 1.394 1_556 S
C127 H99 0.982 . S
C127 H103 0.979 . S
C127 H104 0.977 . S
C127 C124 1.453 . S
C128 H100 0.979 . S
C128 H101 0.980 . S
C128 H102 0.983 . S
C128 C124 1.684 . S
H129 C147 0.948 . S
H130 C88 0.948 . S
H131 C106 0.979 . S
H132 C106 0.980 . S
H133 C106 0.983 . S
H134 C105 0.982 . S
H135 C105 0.979 . S
H136 C105 0.977 . S
H137 C107 0.948 . S
H138 C109 0.947 . S
H139 C110 0.948 . S
H140 C116 0.982 . S
H141 C116 0.979 . S
H142 C116 0.977 1_556 S
H143 C117 0.979 . S
H144 C117 0.980 1_556 S
H145 C117 0.983 . S
H146 C90 0.947 . S
C147 C90 1.392 . S
C147 C91 1.419 . S
C147 H129 0.948 . S
C148 C149 1.391 . S
C148 C152 1.391 . S
C148 H190 0.948 . S
C149 C148 1.391 . S
C149 C150 1.391 . S
C150 C149 1.391 . S
C150 H206 0.947 . S
C150 C207 1.392 . S
C151 C152 1.391 . S
C151 C155 1.397 . S
C151 C207 1.419 . S
C152 C148 1.391 . S
C152 C151 1.391 . S
C152 C153 1.399 . S
C153 C152 1.399 . S
C153 C156 1.396 . S
C153 C165 1.453 . S
C153 C166 1.684 . S
H154 C178 0.948 . S
C155 C151 1.397 . S
C155 C156 1.394 . S
C155 C174 1.723 1_455 S
C156 C153 1.396 . S
C156 C155 1.394 . S
C156 C186 1.723 1_455 S
H157 C180 0.947 . S
H158 C181 0.948 . S
H159 C187 0.982 . S
H160 C188 0.979 . S
H161 C188 0.980 . S
H162 C188 0.983 . S
H163 C187 0.979 . S
H164 C187 0.977 . S
C165 C153 1.453 . S
C165 H194 0.982 . S
C165 H195 0.979 . S
C165 H196 0.977 . S
C166 C153 1.684 . S
C166 H191 0.979 . S
C166 H192 0.980 . S
C166 H193 0.983 . S
C167 C168 1.391 . S
C167 C172 1.391 . S
C167 H197 0.948 . S
C168 C167 1.391 . S
C168 C169 1.391 . S
C169 C168 1.391 . S
C169 C170 1.392 . S
C169 H198 0.947 . S
C170 C169 1.392 . S
C170 C171 1.419 . S
C170 H199 0.948 . S
C171 C170 1.419 . S
C171 C172 1.391 . S
C171 C175 1.397 . S
C172 C167 1.391 . S
C172 C171 1.391 . S
C172 C173 1.399 . S
C173 C172 1.399 . S
C173 C174 1.396 . S
C173 C176 1.453 1_655 S
C173 C177 1.684 1_655 S
C174 C155 1.723 1_655 S
C174 C173 1.396 . S
C174 C175 1.394 . S
C175 C171 1.397 . S
C175 C174 1.394 . S
C175 C185 1.723 . S
C176 C173 1.453 1_455 S
C176 H200 0.982 . S
C176 H201 0.979 . S
C176 H202 0.977 . S
C177 C173 1.684 1_455 S
C177 H203 0.979 1_455 S
C177 H204 0.980 . S
C177 H205 0.983 . S
C178 H154 0.948 . S
C178 C179 1.391 . S
C178 C183 1.391 . S
C179 C178 1.391 . S
C179 C180 1.391 . S
C180 H157 0.947 . S
C180 C179 1.391 . S
C180 C181 1.392 . S
C181 H158 0.948 . S
C181 C180 1.392 . S
C181 C182 1.419 . S
C182 C181 1.419 . S
C182 C183 1.391 . S
C182 C186 1.397 . S
C183 C178 1.391 . S
C183 C182 1.391 . S
C183 C184 1.399 . S
C184 C183 1.399 . S
C184 C185 1.396 . S
C184 C187 1.453 . S
C184 C188 1.684 . S
C185 C175 1.723 . S
C185 C184 1.396 . S
C185 C186 1.394 . S
C186 C156 1.723 1_655 S
C186 C182 1.397 . S
C186 C185 1.394 . S
C187 H159 0.982 . S
C187 H163 0.979 . S
C187 H164 0.977 . S
C187 C184 1.453 . S
C188 H160 0.979 . S
C188 H161 0.980 . S
C188 H162 0.983 . S
C188 C184 1.684 . S
H189 C207 0.948 . S
H190 C148 0.948 . S
H191 C166 0.979 . S
H192 C166 0.980 . S
H193 C166 0.983 . S
H194 C165 0.982 . S
H195 C165 0.979 . S
H196 C165 0.977 . S
H197 C167 0.948 . S
H198 C169 0.947 . S
H199 C170 0.948 . S
H200 C176 0.982 . S
H201 C176 0.979 . S
H202 C176 0.977 . S
H203 C177 0.979 1_655 S
H204 C177 0.980 . S
H205 C177 0.983 . S
H206 C150 0.947 . S
C207 C150 1.392 . S
C207 C151 1.419 . S
C207 H189 0.948 . S
C208 C209 1.391 . S
C208 C212 1.391 . S
C208 H250 0.948 . S
C209 C208 1.391 . S
C209 C210 1.391 . S
C210 C209 1.391 . S
C210 H266 0.947 . S
C210 C267 1.392 . S
C211 C212 1.391 . S
C211 C215 1.397 . S
C211 C267 1.419 . S
C212 C208 1.391 . S
C212 C211 1.391 . S
C212 C213 1.399 . S
C213 C212 1.399 . S
C213 C216 1.396 . S
C213 C225 1.453 . S
C213 C226 1.684 . S
H214 C238 0.948 . S
C215 C211 1.397 . S
C215 C216 1.394 . S
C215 C234 1.723 1_554 S
C216 C213 1.396 . S
C216 C215 1.394 . S
C216 C246 1.723 . S
H217 C240 0.947 . S
H218 C241 0.948 . S
H219 C247 0.982 . S
H220 C248 0.979 . S
H221 C248 0.980 . S
H222 C248 0.983 . S
H223 C247 0.979 . S
H224 C247 0.977 . S
C225 C213 1.453 . S
C225 H254 0.982 . S
C225 H255 0.979 . S
C225 H256 0.977 . S
C226 C213 1.684 . S
C226 H251 0.979 . S
C226 H252 0.980 . S
C226 H253 0.983 . S
C227 C228 1.391 . S
C227 C232 1.391 . S
C227 H257 0.948 . S
C228 C227 1.391 . S
C228 C229 1.391 . S
C229 C228 1.391 . S
C229 C230 1.392 . S
C229 H258 0.947 . S
C230 C229 1.392 . S
C230 C231 1.419 . S
C230 H259 0.948 . S
C231 C230 1.419 . S
C231 C232 1.391 . S
C231 C235 1.397 . S
C232 C227 1.391 . S
C232 C231 1.391 . S
C232 C233 1.399 . S
C233 C232 1.399 . S
C233 C234 1.396 . S
C233 C236 1.453 . S
C233 C237 1.684 . S
C234 C215 1.723 1_556 S
C234 C233 1.396 . S
C234 C235 1.394 . S
C235 C231 1.397 . S
C235 C234 1.394 . S
C235 C245 1.723 . S
C236 C233 1.453 . S
C236 H260 0.982 . S
C236 H261 0.979 . S
C236 H262 0.977 1_556 S
C237 C233 1.684 . S
C237 H263 0.979 . S
C237 H264 0.980 1_556 S
C237 H265 0.983 . S
C238 H214 0.948 . S
C238 C239 1.391 1_556 S
C238 C243 1.391 . S
C239 C238 1.391 1_554 S
C239 C240 1.391 . S
C240 H217 0.947 . S
C240 C239 1.391 . S
C240 C241 1.392 . S
C241 H218 0.948 . S
C241 C240 1.392 . S
C241 C242 1.419 . S
C242 C241 1.419 . S
C242 C243 1.391 1_554 S
C242 C246 1.397 . S
C243 C238 1.391 . S
C243 C242 1.391 1_556 S
C243 C244 1.399 . S
C244 C243 1.399 . S
C244 C245 1.396 . S
C244 C247 1.453 . S
C244 C248 1.684 . S
C245 C235 1.723 . S
C245 C244 1.396 . S
C245 C246 1.394 1_556 S
C246 C216 1.723 . S
C246 C242 1.397 . S
C246 C245 1.394 1_554 S
C247 H219 0.982 . S
C247 H223 0.979 . S
C247 H224 0.977 . S
C247 C244 1.453 . S
C248 H220 0.979 . S
C248 H221 0.980 . S
C248 H222 0.983 . S
C248 C244 1.684 . S
H249 C267 0.948 . S
H250 C208 0.948 . S
H251 C226 0.979 . S
H252 C226 0.980 . S
H253 C226 0.983 . S
H254 C225 0.982 . S
H255 C225 0.979 . S
H256 C225 0.977 . S
H257 C227 0.948 . S
H258 C229 0.947 . S
H259 C230 0.948 . S
H260 C236 0.982 . S
H261 C236 0.979 . S
H262 C236 0.977 1_554 S
H263 C237 0.979 . S
H264 C237 0.980 1_554 S
H265 C237 0.983 . S
H266 C210 0.947 . S
C267 C210 1.392 . S
C267 C211 1.419 . S
C267 H249 0.948 . S
C268 C269 1.391 . S
C268 C272 1.391 . S
C268 H310 0.948 . S
C269 C268 1.391 . S
C269 C270 1.391 . S
C270 C269 1.391 . S
C270 H326 0.947 . S
C270 C327 1.392 . S
C271 C272 1.391 . S
C271 C275 1.397 . S
C271 C327 1.419 . S
C272 C268 1.391 . S
C272 C271 1.391 . S
C272 C273 1.399 . S
C273 C272 1.399 . S
C273 C276 1.396 . S
C273 C285 1.453 1_455 S
C273 C286 1.684 1_455 S
H274 C298 0.948 . S
C275 C271 1.397 . S
C275 C276 1.394 . S
C275 C294 1.723 . S
C276 C273 1.396 . S
C276 C275 1.394 . S
C276 C306 1.723 1_455 S
H277 C300 0.947 . S
H278 C301 0.948 . S
H279 C307 0.982 . S
H280 C308 0.979 . S
H281 C308 0.980 . S
H282 C308 0.983 . S
H283 C307 0.979 . S
H284 C307 0.977 . S
C285 C273 1.453 1_655 S
C285 H314 0.982 . S
C285 H315 0.979 . S
C285 H316 0.977 . S
C286 C273 1.684 1_655 S
C286 H311 0.979 1_655 S
C286 H312 0.980 . S
C286 H313 0.983 . S
C287 C288 1.391 . S
C287 C292 1.391 . S
C287 H317 0.948 . S
C288 C287 1.391 . S
C288 C289 1.391 . S
C289 C288 1.391 . S
C289 C290 1.392 . S
C289 H318 0.947 . S
C290 C289 1.392 . S
C290 C291 1.419 . S
C290 H319 0.948 . S
C291 C290 1.419 . S
C291 C292 1.391 . S
C291 C295 1.397 . S
C292 C287 1.391 . S
C292 C291 1.391 . S
C292 C293 1.399 . S
C293 C292 1.399 . S
C293 C294 1.396 . S
C293 C296 1.453 . S
C293 C297 1.684 . S
C294 C275 1.723 . S
C294 C293 1.396 . S
C294 C295 1.394 . S
C295 C291 1.397 . S
C295 C294 1.394 . S
C295 C305 1.723 1_455 S
C296 C293 1.453 . S
C296 H320 0.982 . S
C296 H321 0.979 . S
C296 H322 0.977 . S
C297 C293 1.684 . S
C297 H323 0.979 . S
C297 H324 0.980 . S
C297 H325 0.983 . S
C298 H274 0.948 . S
C298 C299 1.391 . S
C298 C303 1.391 . S
C299 C298 1.391 . S
C299 C300 1.391 . S
C300 H277 0.947 . S
C300 C299 1.391 . S
C300 C301 1.392 . S
C301 H278 0.948 . S
C301 C300 1.392 . S
C301 C302 1.419 . S
C302 C301 1.419 . S
C302 C303 1.391 . S
C302 C306 1.397 . S
C303 C298 1.391 . S
C303 C302 1.391 . S
C303 C304 1.399 . S
C304 C303 1.399 . S
C304 C305 1.396 . S
C304 C307 1.453 . S
C304 C308 1.684 . S
C305 C295 1.723 1_655 S
C305 C304 1.396 . S
C305 C306 1.394 . S
C306 C276 1.723 1_655 S
C306 C302 1.397 . S
C306 C305 1.394 . S
C307 H279 0.982 . S
C307 H283 0.979 . S
C307 H284 0.977 . S
C307 C304 1.453 . S
C308 H280 0.979 . S
C308 H281 0.980 . S
C308 H282 0.983 . S
C308 C304 1.684 . S
H309 C327 0.948 . S
H310 C268 0.948 . S
H311 C286 0.979 1_455 S
H312 C286 0.980 . S
H313 C286 0.983 . S
H314 C285 0.982 . S
H315 C285 0.979 . S
H316 C285 0.977 . S
H317 C287 0.948 . S
H318 C289 0.947 . S
H319 C290 0.948 . S
H320 C296 0.982 . S
H321 C296 0.979 . S
H322 C296 0.977 . S
H323 C297 0.979 . S
H324 C297 0.980 . S
H325 C297 0.983 . S
H326 C270 0.947 . S
C327 C270 1.392 . S
C327 C271 1.419 . S
C327 H309 0.948 . S
C328 C329 1.391 . S
C328 C332 1.391 . S
C328 H370 0.948 . S
C329 C328 1.391 . S
C329 C330 1.391 . S
C330 C329 1.391 . S
C330 H386 0.947 . S
C330 C387 1.392 . S
C331 C332 1.391 . S
C331 C335 1.397 . S
C331 C387 1.419 . S
C332 C328 1.391 . S
C332 C331 1.391 . S
C332 C333 1.399 . S
C333 C332 1.399 . S
C333 C336 1.397 . S
C333 C345 1.453 1_565 S
C333 C346 1.684 1_565 S
H334 C358 0.948 . S
C335 C331 1.397 . S
C335 C336 1.403 . S
C335 C354 1.723 . S
C336 C333 1.397 . S
C336 C335 1.403 . S
C336 C366 1.717 1_565 S
H337 C360 0.947 . S
H338 C361 0.948 . S
H339 C367 0.982 . S
H340 C368 0.979 . S
H341 C368 0.980 . S
H342 C368 0.983 . S
H343 C367 0.979 . S
H344 C367 0.977 . S
C345 C333 1.453 1_545 S
C345 H374 0.982 . S
C345 H375 0.979 . S
C345 H376 0.977 . S
C346 C333 1.684 1_545 S
C346 H371 0.979 . S
C346 H372 0.980 . S
C346 H373 0.983 . S
C347 C348 1.391 . S
C347 C352 1.391 . S
C347 H377 0.948 . S
C348 C347 1.391 . S
C348 C349 1.391 . S
C349 C348 1.391 . S
C349 C350 1.392 . S
C349 H378 0.947 . S
C350 C349 1.392 . S
C350 C351 1.419 . S
C350 H379 0.948 1_565 S
C351 C350 1.419 . S
C351 C352 1.391 . S
C351 C355 1.397 . S
C352 C347 1.391 . S
C352 C351 1.391 . S
C352 C353 1.399 . S
C353 C352 1.399 . S
C353 C354 1.396 . S
C353 C356 1.453 . S
C353 C357 1.684 . S
C354 C335 1.723 . S
C354 C353 1.396 . S
C354 C355 1.394 . S
C355 C351 1.397 . S
C355 C354 1.394 . S
C355 C365 1.723 1_565 S
C356 C353 1.453 . S
C356 H380 0.982 . S
C356 H381 0.979 . S
C356 H382 0.977 . S
C357 C353 1.684 . S
C357 H383 0.979 . S
C357 H384 0.980 . S
C357 H385 0.983 . S
C358 H334 0.948 . S
C358 C359 1.391 . S
C358 C363 1.391 . S
C359 C358 1.391 . S
C359 C360 1.391 . S
C360 H337 0.947 . S
C360 C359 1.391 . S
C360 C361 1.392 . S
C361 H338 0.948 . S
C361 C360 1.392 . S
C361 C362 1.419 . S
C362 C361 1.419 . S
C362 C363 1.391 . S
C362 C366 1.397 . S
C363 C358 1.391 . S
C363 C362 1.391 . S
C363 C364 1.399 . S
C364 C363 1.399 . S
C364 C365 1.396 . S
C364 C367 1.453 . S
C364 C368 1.684 . S
C365 C355 1.723 1_545 S
C365 C364 1.396 . S
C365 C366 1.394 . S
C366 C336 1.717 1_545 S
C366 C362 1.397 . S
C366 C365 1.394 . S
C367 H339 0.982 . S
C367 H343 0.979 . S
C367 H344 0.977 . S
C367 C364 1.453 . S
C368 H340 0.979 . S
C368 H341 0.980 . S
C368 H342 0.983 . S
C368 C364 1.684 . S
H369 C387 0.948 . S
H370 C328 0.948 . S
H371 C346 0.979 . S
H372 C346 0.980 . S
H373 C346 0.983 . S
H374 C345 0.982 . S
H375 C345 0.979 . S
H376 C345 0.977 . S
H377 C347 0.948 . S
H378 C349 0.947 . S
H379 C350 0.948 1_545 S
H380 C356 0.982 . S
H381 C356 0.979 . S
H382 C356 0.977 . S
H383 C357 0.979 . S
H384 C357 0.980 . S
H385 C357 0.983 . S
H386 C330 0.947 . S
C387 C330 1.392 . S
C387 C331 1.419 . S
C387 H369 0.948 . S
C388 C389 1.391 . S
C388 C392 1.391 . S
C388 H430 0.948 . S
C389 C388 1.391 . S
C389 C390 1.391 . S
C390 C389 1.391 . S
C390 H446 0.947 . S
C390 C447 1.392 . S
C391 C392 1.391 . S
C391 C395 1.397 . S
C391 C447 1.419 . S
C392 C388 1.391 . S
C392 C391 1.391 . S
C392 C393 1.399 . S
C393 C392 1.399 . S
C393 C396 1.396 . S
C393 C405 1.453 . S
C393 C406 1.684 . S
H394 C418 0.948 . S
C395 C391 1.397 . S
C395 C396 1.394 . S
C395 C414 1.723 1_554 S
C396 C393 1.396 . S
C396 C395 1.394 . S
C396 C426 1.723 . S
H397 C420 0.947 . S
H398 C421 0.948 . S
H399 C427 0.982 . S
H400 C428 0.979 . S
H401 C428 0.980 . S
H402 C428 0.983 . S
H403 C427 0.979 . S
H404 C427 0.977 . S
C405 C393 1.453 . S
C405 H434 0.982 . S
C405 H435 0.979 . S
C405 H436 0.977 . S
C406 C393 1.684 . S
C406 H431 0.979 . S
C406 H432 0.980 . S
C406 H433 0.983 . S
C407 C408 1.391 . S
C407 C412 1.391 . S
C407 H437 0.948 . S
C408 C407 1.391 . S
C408 C409 1.391 . S
C409 C408 1.391 . S
C409 C410 1.392 . S
C409 H438 0.947 . S
C410 C409 1.392 . S
C410 C411 1.419 . S
C410 H439 0.948 . S
C411 C410 1.419 . S
C411 C412 1.391 . S
C411 C415 1.397 . S
C412 C407 1.391 . S
C412 C411 1.391 . S
C412 C413 1.399 . S
C413 C412 1.399 . S
C413 C414 1.396 . S
C413 C416 1.453 . S
C413 C417 1.684 . S
C414 C395 1.723 1_556 S
C414 C413 1.396 . S
C414 C415 1.394 . S
C415 C411 1.397 . S
C415 C414 1.394 . S
C415 C425 1.723 . S
C416 C413 1.453 . S
C416 H440 0.982 . S
C416 H441 0.979 . S
C416 H442 0.977 1_556 S
C417 C413 1.684 . S
C417 H443 0.979 . S
C417 H444 0.980 1_556 S
C417 H445 0.983 . S
C418 H394 0.948 . S
C418 C419 1.391 1_556 S
C418 C423 1.391 . S
C419 C418 1.391 1_554 S
C419 C420 1.391 . S
C420 H397 0.947 . S
C420 C419 1.391 . S
C420 C421 1.392 . S
C421 H398 0.948 . S
C421 C420 1.392 . S
C421 C422 1.419 . S
C422 C421 1.419 . S
C422 C423 1.391 1_554 S
C422 C426 1.397 . S
C423 C418 1.391 . S
C423 C422 1.391 1_556 S
C423 C424 1.399 . S
C424 C423 1.399 . S
C424 C425 1.396 . S
C424 C427 1.453 . S
C424 C428 1.684 . S
C425 C415 1.723 . S
C425 C424 1.396 . S
C425 C426 1.394 1_556 S
C426 C396 1.723 . S
C426 C422 1.397 . S
C426 C425 1.394 1_554 S
C427 H399 0.982 . S
C427 H403 0.979 . S
C427 H404 0.977 . S
C427 C424 1.453 . S
C428 H400 0.979 . S
C428 H401 0.980 . S
C428 H402 0.983 . S
C428 C424 1.684 . S
H429 C447 0.948 . S
H430 C388 0.948 . S
H431 C406 0.979 . S
H432 C406 0.980 . S
H433 C406 0.983 . S
H434 C405 0.982 . S
H435 C405 0.979 . S
H436 C405 0.977 . S
H437 C407 0.948 . S
H438 C409 0.947 . S
H439 C410 0.948 . S
H440 C416 0.982 . S
H441 C416 0.979 . S
H442 C416 0.977 1_554 S
H443 C417 0.979 . S
H444 C417 0.980 1_554 S
H445 C417 0.983 . S
H446 C390 0.947 . S
C447 C390 1.392 . S
C447 C391 1.419 . S
C447 H429 0.948 . S
C448 C449 1.391 . S
C448 C452 1.391 . S
C448 H490 0.948 . S
C449 C448 1.391 . S
C449 C450 1.391 . S
C450 C449 1.391 . S
C450 H506 0.947 . S
C450 C507 1.392 . S
C451 C452 1.391 . S
C451 C455 1.397 . S
C451 C507 1.419 . S
C452 C448 1.391 . S
C452 C451 1.391 . S
C452 C453 1.399 . S
C453 C452 1.399 . S
C453 C456 1.396 . S
C453 C465 1.453 1_545 S
C453 C466 1.684 1_545 S
H454 C478 0.948 . S
C455 C451 1.397 . S
C455 C456 1.394 . S
C455 C474 1.723 . S
C456 C453 1.396 . S
C456 C455 1.394 . S
C456 C486 1.723 1_545 S
H457 C480 0.947 . S
H458 C481 0.948 . S
H459 C487 0.982 . S
H460 C488 0.979 . S
H461 C488 0.980 . S
H462 C488 0.983 . S
H463 C487 0.979 . S
H464 C487 0.977 . S
C465 C453 1.453 1_565 S
C465 H494 0.982 . S
C465 H495 0.979 . S
C465 H496 0.977 . S
C466 C453 1.684 1_565 S
C466 H491 0.979 . S
C466 H492 0.980 . S
C466 H493 0.983 . S
C467 C468 1.391 . S
C467 C472 1.391 . S
C467 H497 0.948 . S
C468 C467 1.391 . S
C468 C469 1.391 . S
C469 C468 1.391 . S
C469 C470 1.392 . S
C469 H498 0.947 . S
C470 C469 1.392 . S
C470 C471 1.419 . S
C470 H499 0.947 1_545 S
C471 C470 1.419 . S
C471 C472 1.391 . S
C471 C475 1.397 . S
C472 C467 1.391 . S
C472 C471 1.391 . S
C472 C473 1.399 . S
C473 C472 1.399 . S
C473 C474 1.396 . S
C473 C476 1.453 . S
C473 C477 1.684 . S
C474 C455 1.723 . S
C474 C473 1.396 . S
C474 C475 1.394 . S
C475 C471 1.397 . S
C475 C474 1.394 . S
C475 C485 1.723 1_545 S
C476 C473 1.453 . S
C476 H500 0.982 . S
C476 H501 0.979 . S
C476 H502 0.977 . S
C477 C473 1.684 . S
C477 H503 0.979 . S
C477 H504 0.980 . S
C477 H505 0.983 . S
C478 H454 0.948 . S
C478 C479 1.391 . S
C478 C483 1.391 . S
C479 C478 1.391 . S
C479 C480 1.391 . S
C480 H457 0.947 . S
C480 C479 1.391 . S
C480 C481 1.392 . S
C481 H458 0.948 . S
C481 C480 1.392 . S
C481 C482 1.419 . S
C482 C481 1.419 . S
C482 C483 1.391 . S
C482 C486 1.397 . S
C483 C478 1.391 . S
C483 C482 1.391 . S
C483 C484 1.399 . S
C484 C483 1.399 . S
C484 C485 1.396 . S
C484 C487 1.453 . S
C484 C488 1.684 . S
C485 C475 1.723 1_565 S
C485 C484 1.396 . S
C485 C486 1.394 . S
C486 C456 1.723 1_565 S
C486 C482 1.397 . S
C486 C485 1.394 . S
C487 H459 0.982 . S
C487 H463 0.979 . S
C487 H464 0.977 . S
C487 C484 1.453 . S
C488 H460 0.979 . S
C488 H461 0.980 . S
C488 H462 0.983 . S
C488 C484 1.684 . S
H489 C507 0.948 . S
H490 C448 0.948 . S
H491 C466 0.979 . S
H492 C466 0.980 . S
H493 C466 0.983 . S
H494 C465 0.982 . S
H495 C465 0.979 . S
H496 C465 0.977 . S
H497 C467 0.948 . S
H498 C469 0.947 . S
H499 C470 0.947 1_565 S
H500 C476 0.982 . S
H501 C476 0.979 . S
H502 C476 0.977 . S
H503 C477 0.979 . S
H504 C477 0.980 . S
H505 C477 0.983 . S
H506 C450 0.947 . S
C507 C450 1.392 . S
C507 C451 1.419 . S
C507 H489 0.948 . S
C508 C509 1.391 1_554 S
C508 C512 1.391 . S
C508 H550 0.948 . S
C509 C508 1.391 1_556 S
C509 C510 1.391 . S
C510 C509 1.391 . S
C510 H566 0.947 . S
C510 C567 1.392 . S
C511 C512 1.391 1_556 S
C511 C515 1.397 . S
C511 C567 1.419 . S
C512 C508 1.391 . S
C512 C511 1.391 1_554 S
C512 C513 1.399 . S
C513 C512 1.399 . S
C513 C516 1.396 . S
C513 C525 1.453 . S
C513 C526 1.684 . S
H514 C538 0.948 . S
C515 C511 1.397 . S
C515 C516 1.394 1_556 S
C515 C534 1.723 . S
C516 C513 1.396 . S
C516 C515 1.394 1_554 S
C516 C546 1.723 . S
H517 C540 0.947 . S
H518 C541 0.948 . S
H519 C547 0.982 . S
H520 C548 0.979 . S
H521 C548 0.980 1_556 S
H522 C548 0.983 . S
H523 C547 0.979 . S
H524 C547 0.977 1_556 S
C525 C513 1.453 . S
C525 H554 0.982 . S
C525 H555 0.979 . S
C525 H556 0.977 . S
C526 C513 1.684 . S
C526 H551 0.979 . S
C526 H552 0.980 . S
C526 H553 0.983 . S
C527 C528 1.391 . S
C527 C532 1.391 . S
C527 H557 0.948 . S
C528 C527 1.391 . S
C528 C529 1.391 . S
C529 C528 1.391 . S
C529 C530 1.392 . S
C529 H558 0.947 . S
C530 C529 1.392 . S
C530 C531 1.419 . S
C530 H559 0.948 . S
C531 C530 1.419 . S
C531 C532 1.391 . S
C531 C535 1.397 . S
C532 C527 1.391 . S
C532 C531 1.391 . S
C532 C533 1.399 . S
C533 C532 1.399 . S
C533 C534 1.396 . S
C533 C536 1.453 . S
C533 C537 1.684 . S
C534 C515 1.723 . S
C534 C533 1.396 . S
C534 C535 1.394 . S
C535 C531 1.397 . S
C535 C534 1.394 . S
C535 C545 1.723 1_556 S
C536 C533 1.453 . S
C536 H560 0.982 . S
C536 H561 0.979 . S
C536 H562 0.977 . S
C537 C533 1.684 . S
C537 H563 0.979 . S
C537 H564 0.980 . S
C537 H565 0.983 . S
C538 H514 0.948 . S
C538 C539 1.391 . S
C538 C543 1.391 . S
C539 C538 1.391 . S
C539 C540 1.391 . S
C540 H517 0.947 . S
C540 C539 1.391 . S
C540 C541 1.392 . S
C541 H518 0.948 . S
C541 C540 1.392 . S
C541 C542 1.419 . S
C542 C541 1.419 . S
C542 C543 1.391 . S
C542 C546 1.397 . S
C543 C538 1.391 . S
C543 C542 1.391 . S
C543 C544 1.399 . S
C544 C543 1.399 . S
C544 C545 1.396 . S
C544 C547 1.453 . S
C544 C548 1.684 . S
C545 C535 1.723 1_554 S
C545 C544 1.396 . S
C545 C546 1.394 . S
C546 C516 1.723 . S
C546 C542 1.397 . S
C546 C545 1.394 . S
C547 H519 0.982 . S
C547 H523 0.979 . S
C547 H524 0.977 1_554 S
C547 C544 1.453 . S
C548 H520 0.979 . S
C548 H521 0.980 1_554 S
C548 H522 0.983 . S
C548 C544 1.684 . S
H549 C567 0.948 . S
H550 C508 0.948 . S
H551 C526 0.979 . S
H552 C526 0.980 . S
H553 C526 0.983 . S
H554 C525 0.982 . S
H555 C525 0.979 . S
H556 C525 0.977 . S
H557 C527 0.948 . S
H558 C529 0.947 . S
H559 C530 0.948 . S
H560 C536 0.982 . S
H561 C536 0.979 . S
H562 C536 0.977 . S
H563 C537 0.979 . S
H564 C537 0.980 . S
H565 C537 0.983 . S
H566 C510 0.947 . S
C567 C510 1.392 . S
C567 C511 1.419 . S
C567 H549 0.948 . S
C568 C569 1.387 . S
C568 H572 0.950 . S
C568 C577 1.390 . S
C569 C568 1.387 . S
C569 C571 1.387 . S
H570 C577 0.950 . S
C571 C569 1.387 . S
C571 C573 1.390 . S
C571 H575 0.950 . S
H572 C568 0.950 . S
C573 C571 1.390 . S
C573 C574 1.387 . S
C573 H576 0.950 . S
C574 C573 1.387 . S
C574 C577 1.387 . S
H575 C571 0.950 . S
H576 C573 0.950 . S
C577 C568 1.390 . S
C577 H570 0.950 . S
C577 C574 1.387 . S
C578 C579 1.387 . S
C578 H582 0.950 . S
C578 C587 1.390 . S
C579 C578 1.387 . S
C579 C581 1.387 . S
H580 C587 0.950 . S
C581 C579 1.387 . S
C581 C583 1.390 . S
C581 H585 0.950 . S
H582 C578 0.950 . S
C583 C581 1.390 . S
C583 C584 1.387 . S
C583 H586 0.950 . S
C584 C583 1.387 . S
C584 C587 1.387 . S
H585 C581 0.950 . S
H586 C583 0.950 . S
C587 C578 1.390 . S
C587 H580 0.950 . S
C587 C584 1.387 . S
C588 C589 1.387 . S
C588 H592 0.950 . S
C588 C597 1.390 . S
C589 C588 1.387 . S
C589 C591 1.387 . S
H590 C597 0.950 . S
C591 C589 1.387 . S
C591 C593 1.390 . S
C591 H595 0.950 . S
H592 C588 0.950 . S
C593 C591 1.390 . S
C593 C594 1.387 . S
C593 H596 0.950 . S
C594 C593 1.387 . S
C594 C597 1.387 . S
H595 C591 0.950 . S
H596 C593 0.950 . S
C597 C588 1.390 . S
C597 H590 0.950 . S
C597 C594 1.387 . S
C598 C599 1.387 . S
C598 H602 0.950 . S
C598 C607 1.390 . S
C599 C598 1.387 . S
C599 C601 1.387 . S
H600 C607 0.950 . S
C601 C599 1.387 . S
C601 C603 1.390 . S
C601 H605 0.950 . S
H602 C598 0.950 . S
C603 C601 1.390 . S
C603 C604 1.387 . S
C603 H606 0.950 . S
C604 C603 1.387 . S
C604 C607 1.387 . S
H605 C601 0.950 . S
H606 C603 0.950 . S
C607 C598 1.390 . S
C607 H600 0.950 . S
C607 C604 1.387 . S
C608 C609 1.387 . S
C608 H612 0.950 . S
C608 C617 1.390 . S
C609 C608 1.387 . S
C609 C611 1.387 . S
H610 C617 0.950 . S
C611 C609 1.387 . S
C611 C613 1.390 . S
C611 H615 0.950 . S
H612 C608 0.950 . S
C613 C611 1.390 . S
C613 C614 1.387 . S
C613 H616 0.950 . S
C614 C613 1.387 . S
C614 C617 1.387 . S
H615 C611 0.950 . S
H616 C613 0.950 . S
C617 C608 1.390 . S
C617 H610 0.950 . S
C617 C614 1.387 . S
C618 C619 1.387 . S
C618 H622 0.950 . S
C618 C627 1.390 . S
C619 C618 1.387 . S
C619 C621 1.387 . S
H620 C627 0.950 . S
C621 C619 1.387 . S
C621 C623 1.390 . S
C621 H625 0.950 . S
H622 C618 0.950 . S
C623 C621 1.390 . S
C623 C624 1.387 . S
C623 H626 0.950 . S
C624 C623 1.387 . S
C624 C627 1.387 . S
H625 C621 0.950 . S
H626 C623 0.950 . S
C627 C618 1.390 . S
C627 H620 0.950 . S
C627 C624 1.387 . S
C628 C629 1.387 . S
C628 H632 0.950 . S
C628 C637 1.390 . S
C629 C628 1.387 . S
C629 C631 1.387 . S
H630 C637 0.950 . S
C631 C629 1.387 . S
C631 C633 1.390 . S
C631 H635 0.950 . S
H632 C628 0.950 . S
C633 C631 1.390 . S
C633 C634 1.387 . S
C633 H636 0.950 . S
C634 C633 1.387 . S
C634 C637 1.387 . S
H635 C631 0.950 . S
H636 C633 0.950 . S
C637 C628 1.390 . S
C637 H630 0.950 . S
C637 C634 1.387 . S
C638 C639 1.387 . S
C638 H642 0.950 . S
C638 C647 1.390 . S
C639 C638 1.387 . S
C639 C641 1.387 . S
H640 C647 0.950 . S
C641 C639 1.387 . S
C641 C643 1.390 . S
C641 H645 0.950 . S
H642 C638 0.950 . S
C643 C641 1.390 . S
C643 C644 1.387 . S
C643 H646 0.950 . S
C644 C643 1.387 . S
C644 C647 1.387 . S
H645 C641 0.950 . S
H646 C643 0.950 . S
C647 C638 1.390 . S
C647 H640 0.950 . S
C647 C644 1.387 . S
C648 C649 1.387 . S
C648 H652 0.950 . S
C648 C657 1.390 . S
C649 C648 1.387 . S
C649 C651 1.387 . S
H650 C657 0.950 . S
C651 C649 1.387 . S
C651 C653 1.390 . S
C651 H655 0.950 . S
H652 C648 0.950 . S
C653 C651 1.390 . S
C653 C654 1.387 . S
C653 H656 0.950 . S
C654 C653 1.387 . S
C654 C657 1.387 . S
H655 C651 0.950 . S
H656 C653 0.950 . S
C657 C648 1.390 . S
C657 H650 0.950 . S
C657 C654 1.387 . S
C658 C659 1.387 . S
C658 H662 0.950 . S
C658 C667 1.390 . S
C659 C658 1.387 . S
C659 C661 1.387 . S
H660 C667 0.950 . S
C661 C659 1.387 . S
C661 C663 1.390 . S
C661 H665 0.950 . S
H662 C658 0.950 . S
C663 C661 1.390 . S
C663 C664 1.387 . S
C663 H666 0.950 . S
C664 C663 1.387 . S
C664 C667 1.387 . S
H665 C661 0.950 . S
H666 C663 0.950 . S
C667 C658 1.390 . S
C667 H660 0.950 . S
C667 C664 1.387 . S
C668 C669 1.387 . S
C668 H672 0.950 . S
C668 C677 1.390 . S
C669 C668 1.387 . S
C669 C671 1.387 . S
H670 C677 0.950 . S
C671 C669 1.387 . S
C671 C673 1.390 . S
C671 H675 0.950 . S
H672 C668 0.950 . S
C673 C671 1.390 . S
C673 C674 1.387 . S
C673 H676 0.950 . S
C674 C673 1.387 . S
C674 C677 1.387 . S
H675 C671 0.950 . S
H676 C673 0.950 . S
C677 C668 1.390 . S
C677 H670 0.950 . S
C677 C674 1.387 . S
C678 C679 1.387 . S
C678 H682 0.950 . S
C678 C687 1.390 . S
C679 C678 1.387 . S
C679 C681 1.387 . S
H680 C687 0.950 . S
C681 C679 1.387 . S
C681 C683 1.390 . S
C681 H685 0.950 . S
H682 C678 0.950 . S
C683 C681 1.390 . S
C683 C684 1.387 . S
C683 H686 0.950 . S
C684 C683 1.387 . S
C684 C687 1.387 . S
H685 C681 0.950 . S
H686 C683 0.950 . S
C687 C678 1.390 . S
C687 H680 0.950 . S
C687 C684 1.387 . S
C688 C689 1.387 . S
C688 H692 0.950 . S
C688 C697 1.390 . S
C689 C688 1.387 . S
C689 C691 1.387 . S
H690 C697 0.950 . S
C691 C689 1.387 . S
C691 C693 1.390 . S
C691 H695 0.950 . S
H692 C688 0.950 . S
C693 C691 1.390 . S
C693 C694 1.387 . S
C693 H696 0.950 . S
C694 C693 1.387 . S
C694 C697 1.387 . S
H695 C691 0.950 . S
H696 C693 0.950 . S
C697 C688 1.390 . S
C697 H690 0.950 . S
C697 C694 1.387 . S
C698 C699 1.387 . S
C698 H702 0.950 . S
C698 C707 1.390 . S
C699 C698 1.387 . S
C699 C701 1.387 . S
H700 C707 0.950 . S
C701 C699 1.387 . S
C701 C703 1.390 . S
C701 H705 0.950 . S
H702 C698 0.950 . S
C703 C701 1.390 . S
C703 C704 1.387 . S
C703 H706 0.950 . S
C704 C703 1.387 . S
C704 C707 1.387 . S
H705 C701 0.950 . S
H706 C703 0.950 . S
C707 C698 1.390 . S
C707 H700 0.950 . S
C707 C704 1.387 . S
C708 C709 1.387 . S
C708 H712 0.950 . S
C708 C717 1.390 . S
C709 C708 1.387 . S
C709 C711 1.387 . S
H710 C717 0.950 . S
C711 C709 1.387 . S
C711 C713 1.390 . S
C711 H715 0.950 . S
H712 C708 0.950 . S
C713 C711 1.390 . S
C713 C714 1.387 . S
C713 H716 0.950 . S
C714 C713 1.387 . S
C714 C717 1.387 . S
H715 C711 0.950 . S
H716 C713 0.950 . S
C717 C708 1.390 . S
C717 H710 0.950 . S
C717 C714 1.387 . S
C718 C719 1.387 . S
C718 H722 0.950 . S
C718 C727 1.390 . S
C719 C718 1.387 . S
C719 C721 1.387 . S
H720 C727 0.950 . S
C721 C719 1.387 . S
C721 C723 1.390 . S
C721 H725 0.950 . S
H722 C718 0.950 . S
C723 C721 1.390 . S
C723 C724 1.387 . S
C723 H726 0.950 . S
C724 C723 1.387 . S
C724 C727 1.387 . S
H725 C721 0.950 . S
H726 C723 0.950 . S
C727 C718 1.390 . S
C727 H720 0.950 . S
C727 C724 1.387 . S
C728 C729 1.379 1_556 S
C728 H732 0.950 . S
C728 C737 1.390 . S
C729 C728 1.379 1_554 S
C729 C731 1.396 . S
H730 C737 0.950 . S
C731 C729 1.396 . S
C731 C733 1.390 . S
C731 H735 0.950 . S
H732 C728 0.950 . S
C733 C731 1.390 . S
C733 C734 1.390 . S
C733 H736 0.950 . S
C734 C733 1.390 . S
C734 C737 1.385 1_554 S
H735 C731 0.950 . S
H736 C733 0.950 . S
C737 C728 1.390 . S
C737 H730 0.950 . S
C737 C734 1.385 1_556 S
C738 C739 1.387 . S
C738 H742 0.950 . S
C738 C747 1.390 . S
C739 C738 1.387 . S
C739 C741 1.387 . S
H740 C747 0.950 . S
C741 C739 1.387 . S
C741 C743 1.390 . S
C741 H745 0.950 . S
H742 C738 0.950 . S
C743 C741 1.390 . S
C743 C744 1.387 . S
C743 H746 0.950 . S
C744 C743 1.387 . S
C744 C747 1.387 . S
H745 C741 0.950 . S
H746 C743 0.950 . S
C747 C738 1.390 . S
C747 H740 0.950 . S
C747 C744 1.387 . S
C748 C749 1.396 . S
C748 H752 0.950 . S
C748 C757 1.390 . S
C749 C748 1.396 . S
C749 C751 1.379 1_554 S
H750 C757 0.950 . S
C751 C749 1.379 1_556 S
C751 C753 1.390 . S
C751 H755 0.950 . S
H752 C748 0.950 . S
C753 C751 1.390 . S
C753 C754 1.385 1_556 S
C753 H756 0.950 . S
C754 C753 1.385 1_554 S
C754 C757 1.390 . S
H755 C751 0.950 . S
H756 C753 0.950 . S
C757 C748 1.390 . S
C757 H750 0.950 . S
C757 C754 1.390 . S
C758 C759 1.387 . S
C758 H762 0.950 . S
C758 C767 1.390 . S
C759 C758 1.387 . S
C759 C761 1.387 . S
H760 C767 0.950 . S
C761 C759 1.387 . S
C761 C763 1.390 . S
C761 H765 0.950 . S
H762 C758 0.950 . S
C763 C761 1.390 . S
C763 C764 1.387 . S
C763 H766 0.950 . S
C764 C763 1.387 . S
C764 C767 1.387 . S
H765 C761 0.950 . S
H766 C763 0.950 . S
C767 C758 1.390 . S
C767 H760 0.950 . S
C767 C764 1.387 . S
C768 C769 1.387 . S
C768 H772 0.950 . S
C768 C777 1.390 . S
C769 C768 1.387 . S
C769 C771 1.387 . S
H770 C777 0.950 . S
C771 C769 1.387 . S
C771 C773 1.390 . S
C771 H775 0.950 . S
H772 C768 0.950 . S
C773 C771 1.390 . S
C773 C774 1.387 . S
C773 H776 0.950 . S
C774 C773 1.387 . S
C774 C777 1.387 . S
H775 C771 0.950 . S
H776 C773 0.950 . S
C777 C768 1.390 . S
C777 H770 0.950 . S
C777 C774 1.387 . S
C778 C779 1.393 . S
C778 H782 0.950 . S
C778 C787 1.390 . S
C779 C778 1.393 . S
C779 C781 1.382 1_556 S
H780 C787 0.950 . S
C781 C779 1.382 1_554 S
C781 C783 1.390 . S
C781 H785 0.950 . S
H782 C778 0.950 . S
C783 C781 1.390 . S
C783 C784 1.389 1_554 S
C783 H786 0.950 . S
C784 C783 1.389 1_556 S
C784 C787 1.386 . S
H785 C781 0.950 . S
H786 C783 0.950 . S
C787 C778 1.390 . S
C787 H780 0.950 . S
C787 C784 1.386 . S
C788 C789 1.387 . S
C788 H792 0.950 . S
C788 C797 1.390 . S
C789 C788 1.387 . S
C789 C791 1.387 . S
H790 C797 0.950 . S
C791 C789 1.387 . S
C791 C793 1.390 . S
C791 H795 0.950 . S
H792 C788 0.950 . S
C793 C791 1.390 . S
C793 C794 1.387 . S
C793 H796 0.950 . S
C794 C793 1.387 . S
C794 C797 1.387 . S
H795 C791 0.950 . S
H796 C793 0.950 . S
C797 C788 1.390 . S
C797 H790 0.950 . S
C797 C794 1.387 . S
C798 C799 1.393 . S
C798 H802 0.950 . S
C798 C807 1.390 . S
C799 C798 1.393 . S
C799 C801 1.382 1_556 S
H800 C807 0.950 . S
C801 C799 1.382 1_554 S
C801 C803 1.390 . S
C801 H805 0.950 . S
H802 C798 0.950 . S
C803 C801 1.390 . S
C803 C804 1.389 1_554 S
C803 H806 0.950 . S
C804 C803 1.389 1_556 S
C804 C807 1.386 . S
H805 C801 0.950 . S
H806 C803 0.950 . S
C807 C798 1.390 . S
C807 H800 0.950 . S
C807 C804 1.386 . S
C569 C21 1.671 . S
C574 C269 1.543 . S
C579 C40 1.819 . S
C584 C89 1.722 . S
C594 C168 1.507 . S
C589 C54 1.656 . S
C599 C73 1.862 . S
C604 C228 1.708 . S
C614 C389 1.506 . S
C609 C74 1.657 . S
C624 C468 1.670 . S
C619 C10 1.820 . S
C634 C539 1.688 . S
C629 C37 1.672 . S
C644 C329 1.758 . S
C639 C65 1.863 . S
C649 C52 1.668 . S
C654 C179 1.579 . S
C659 C87 1.857 . S
C664 C209 1.647 . S
C669 C15 1.680 . S
C674 C288 1.615 . S
C684 C108 1.776 . S
C679 C32 1.813 . S
C689 C29 1.681 . S
C694 C528 1.625 . S
C704 C348 1.811 . S
C699 C59 1.856 . S
C714 C408 1.578 . S
C709 C84 1.670 . S
C719 C8 1.814 . S
C724 C449 1.607 . S
C734 C119 1.837 1_554 S
C729 C7 1.904 . S
C744 C149 1.611 . S
C739 C30 1.707 . S
C749 C62 1.910 . S
C754 C239 1.738 . S
C759 C81 1.676 . S
C764 C299 1.614 . S
C774 C359 1.853 . S
C769 C76 1.909 . S
C779 C18 1.709 . S
C784 C419 1.614 1_556 S
C789 C43 1.903 . S
C794 C479 1.723 . S
C799 C51 1.676 . S
C804 C509 1.693 . S
