# Generated by pormake.
# Topology tsx, (6,3)-cn, num edge types: 1
# Building blocks:
#     Node 0, Type 0, BuildingBlock: VOLQOD_clean_sbu_1, # of connection points: 6
#     Node 1, Type 0, BuildingBlock: VOLQOD_clean_sbu_1, # of connection points: 6
#     Node 2, Type 1, BuildingBlock: QEWDON_clean_linker_0, # of connection points: 3
#     Node 3, Type 1, BuildingBlock: QEWDON_clean_linker_0, # of connection points: 3
#     Node 4, Type 1, BuildingBlock: QEWDON_clean_linker_0, # of connection points: 3
#     Node 5, Type 1, BuildingBlock: QEWDON_clean_linker_0, # of connection points: 3
#     Edge 6, Type (0, 1), BuildingBlock: TEMPAE_clean_linker_10, # of connection points: 2
#     Edge 7, Type (0, 1), BuildingBlock: TEMPAE_clean_linker_10, # of connection points: 2
#     Edge 8, Type (0, 1), BuildingBlock: TEMPAE_clean_linker_10, # of connection points: 2
#     Edge 9, Type (0, 1), BuildingBlock: TEMPAE_clean_linker_10, # of connection points: 2
#     Edge 10, Type (0, 1), BuildingBlock: TEMPAE_clean_linker_10, # of connection points: 2
#     Edge 11, Type (0, 1), BuildingBlock: TEMPAE_clean_linker_10, # of connection points: 2
#     Edge 12, Type (0, 1), BuildingBlock: TEMPAE_clean_linker_10, # of connection points: 2
#     Edge 13, Type (0, 1), BuildingBlock: TEMPAE_clean_linker_10, # of connection points: 2
#     Edge 14, Type (0, 1), BuildingBlock: TEMPAE_clean_linker_10, # of connection points: 2
#     Edge 15, Type (0, 1), BuildingBlock: TEMPAE_clean_linker_10, # of connection points: 2
#     Edge 16, Type (0, 1), BuildingBlock: TEMPAE_clean_linker_10, # of connection points: 2
#     Edge 17, Type (0, 1), BuildingBlock: TEMPAE_clean_linker_10, # of connection points: 2
# Relax obj value: 0.078
# Max RMSD: 0.177
# Mean RMSD: 0.149
data_MOF--net-tsx--node1-VOLQOD_clean_sbu_1--node2-QEWDON_clean_linker_0--edge1-TEMPAE_clean_linker_10
_symmetry_space_group_name_H-M    P1
_symmetry_Int_Tables_number       1
_symmetry_cell_setting            triclinic
loop_
_symmetry_equiv_pos_as_xyz
'x, y, z'
_cell_length_a     22.341751
_cell_length_b     23.23204
_cell_length_c     38.508039
_cell_angle_alpha  90.337165
_cell_angle_beta   102.35558
_cell_angle_gamma 90.271902
loop_
_atom_site_label
_atom_site_type_symbol
_atom_site_fract_x
_atom_site_fract_y
_atom_site_fract_z
_atom_type_partial_charge
O0 O 0.05968 0.93462 0.07648 0.0
Zn1 Zn 0.08343 0.94635 0.02871 0.0
O2 O 0.01273 0.96878 -0.00704 0.0
Zn3 Zn 0.9819 0.90522 0.96123 0.0
Zn4 Zn 0.95189 0.99503 0.01767 0.0
Zn5 Zn 0.0347 0.03096 0.96539 0.0
O6 O 0.97106 0.92969 0.90945 0.0
O7 O 0.03324 0.00605 0.91581 0.0
O8 O 0.12295 0.87645 0.01044 0.0
O9 O 0.04883 0.84666 0.96554 0.0
O10 O 0.9037 0.87124 0.97349 0.0
O11 O 0.88539 0.93627 0.01247 0.0
O12 O 0.91377 0.06954 -0.00196 0.0
O13 O 0.14412 0.01284 0.03699 0.0
O14 O 0.97293 0.09357 0.9609 0.0
O15 O 0.11518 0.06602 -0.01146 0.0
C16 C 0.02509 0.9683 0.08962 0.0
C17 C 0.00086 0.96803 0.89635 0.0
C18 C 0.87134 0.88983 -0.00512 0.0
C19 C 0.10271 0.84179 0.98461 0.0
C20 C 0.92765 0.10353 0.97513 0.0
C21 C 0.15165 0.056 0.01804 0.0
O22 O 0.9873 0.00167 0.07003 0.0
O23 O 0.58504 0.53272 0.5698 0.0
Zn24 Zn 0.58423 0.52304 0.51766 0.0
O25 O 0.50094 0.53074 0.4897 0.0
Zn26 Zn 0.47808 0.46353 0.45905 0.0
Zn27 Zn 0.44319 0.53809 0.52024 0.0
Zn28 Zn 0.49696 0.60046 0.46208 0.0
O29 O 0.45902 0.48738 0.40768 0.0
O30 O 0.48907 0.57915 0.41157 0.0
O31 O 0.62224 0.44789 0.50686 0.0
O32 O 0.55046 0.41008 0.46367 0.0
O33 O 0.40793 0.41821 0.47219 0.0
O34 O 0.39623 0.46432 0.52108 0.0
O35 O 0.38267 0.60223 0.50508 0.0
O36 O 0.63856 0.58728 0.50714 0.0
O37 O 0.42375 0.64831 0.46555 0.0
O38 O 0.57358 0.64834 0.47517 0.0
C39 C 0.54379 0.54999 0.58568 0.0
C40 C 0.47111 0.53415 0.39336 0.0
C41 C 0.3839 0.42226 0.49933 0.0
C42 C 0.60382 0.40857 0.48371 0.0
C43 C 0.38202 0.64335 0.48329 0.0
C44 C 0.6275 0.63547 0.49155 0.0
O45 O 0.48838 0.55574 0.56929 0.0
H46 H 0.9878 0.06707 0.35077 0.0
C47 C 0.00585 0.03058 0.36706 0.0
C48 C 0.02324 0.9809 0.35097 0.0
C49 C 0.01771 0.03548 0.40429 0.0
H50 H 0.0654 0.89794 0.35946 0.0
C51 C 0.04995 0.93519 0.37216 0.0
C52 C 0.0613 0.93894 0.40941 0.0
C53 C 0.04527 0.98956 0.42535 0.0
C54 C 0.01266 0.0922 0.42081 0.0
H55 H 0.05625 0.99422 0.45405 0.0
C56 C 0.95538 0.11675 0.42137 0.0
C57 C 0.9522 0.17264 0.43537 0.0
C58 C 0.06653 0.12342 0.43443 0.0
H59 H 0.11096 0.10527 0.43398 0.0
C60 C 0.06352 0.17888 0.44777 0.0
H61 H 0.91373 0.09275 0.41067 0.0
C62 C 0.00696 0.20342 0.44828 0.0
H63 H 0.00622 0.24631 0.45935 0.0
H64 H 0.10518 0.20301 0.45772 0.0
H65 H 0.01893 0.07322 0.63196 0.0
C66 C -0.00194 0.03659 0.61629 0.0
C67 C 0.98408 0.98675 0.63345 0.0
C68 C 0.9785 0.04159 0.57921 0.0
H69 H 0.94155 0.90321 0.62688 0.0
C70 C 0.95326 0.9411 0.61333 0.0
C71 C 0.93274 0.9457 0.57644 0.0
C72 C 0.94636 0.99574 0.55937 0.0
C73 C 0.97938 0.09845 0.56242 0.0
H74 H 0.92811 0.00085 0.53112 0.0
C75 C 0.03458 0.12651 0.5605 0.0
C76 C 0.03362 0.1813 0.54459 0.0
C77 C 0.92339 0.12577 0.54929 0.0
H78 H 0.88047 0.10526 0.55106 0.0
C79 C 0.92219 0.18021 0.53447 0.0
H80 H 0.07771 0.10568 0.57144 0.0
C81 C 0.97644 0.20747 0.53157 0.0
H82 H 0.97309 0.24885 0.51858 0.0
H83 H 0.87892 0.20125 0.52495 0.0
H84 H 0.55291 0.57449 0.86235 0.0
C85 C 0.58212 0.53765 0.87007 0.0
C86 C 0.61305 0.51274 0.8456 0.0
C87 C 0.58776 0.51331 0.90387 0.0
H88 H 0.67716 0.44774 0.83683 0.0
C89 C 0.65218 0.46585 0.85552 0.0
C90 C 0.65847 0.44184 0.88917 0.0
C91 C 0.62429 0.46412 0.9124 0.0
C92 C 0.55469 0.53585 0.93042 0.0
H93 H 0.62541 0.44113 0.93685 0.0
C94 C 0.48053 0.5672 0.91538 0.0
C95 C 0.42773 0.58578 0.94208 0.0
C96 C 0.58979 0.51925 0.97511 0.0
H97 H 0.63569 0.50212 0.98137 0.0
C98 C 0.55401 0.52999 0.0111 0.0
H99 H 0.46537 0.5744 0.88717 0.0
C100 C 0.44471 0.57494 -0.01127 0.0
H101 H 0.40874 0.58868 0.00232 0.0
H102 H 0.52584 0.54084 0.01128 0.0
H103 H 0.49976 0.54928 0.11503 0.0
C104 C 0.46897 0.51285 0.10904 0.0
C105 C 0.45499 0.4815 0.13727 0.0
C106 C 0.44468 0.4956 0.07381 0.0
H107 H 0.4106 0.40586 0.15263 0.0
C108 C 0.41955 0.4312 0.13069 0.0
C109 C 0.3935 0.41478 0.0959 0.0
C110 C 0.40316 0.44877 0.06779 0.0
C111 C 0.46583 0.52207 0.04349 0.0
H112 H 0.37924 0.43678 0.0413 0.0
C113 C 0.49956 0.59281 0.0486 0.0
C114 C 0.5295 0.63127 0.01634 0.0
C115 C 0.45694 0.47738 0.00509 0.0
H116 H 0.43903 0.43419 0.00504 0.0
C117 C 0.47983 0.49792 0.96606 0.0
H118 H 0.50304 0.61463 0.07378 0.0
C119 C 0.52861 0.60169 0.9736 0.0
H120 H 0.54964 0.62878 0.95623 0.0
H121 H 0.49342 0.52277 0.96244 0.0
C122 C 0.22531 0.13249 0.00934 0.0
C123 C 0.19797 0.10021 0.03242 0.0
C124 C 0.26129 0.18108 0.02159 0.0
C125 C 0.26833 0.19872 0.05751 0.0
C126 C 0.24247 0.16514 0.08121 0.0
C127 C 0.20824 0.11568 0.06845 0.0
C128 C 0.28969 0.2148 -0.00424 0.0
C129 C 0.24777 0.18332 0.11946 0.0
C130 C 0.3927 0.30807 0.09444 0.0
C131 C 0.36022 0.3597 0.08856 0.0
C132 C 0.3633 0.25512 0.08476 0.0
C133 C 0.29973 0.25406 0.06961 0.0
C134 C 0.26642 0.30627 0.06469 0.0
C135 C 0.29738 0.35871 0.07379 0.0
C136 C 0.40059 0.2006 0.08959 0.0
C137 C 0.19834 0.30678 0.04928 0.0
H138 H 0.2173 0.12047 0.98146 0.0
H139 H 0.18626 0.09123 0.08619 0.0
H140 H 0.26701 0.25723 -0.0092 0.0
H141 H 0.33897 0.22303 0.00713 0.0
H142 H 0.28533 0.19203 0.96988 0.0
H143 H 0.22837 0.15062 0.13497 0.0
H144 H 0.2964 0.19116 0.13252 0.0
H145 H 0.22301 0.2244 0.12042 0.0
H146 H 0.44158 0.30939 0.10556 0.0
H147 H 0.27268 0.39899 0.06927 0.0
H148 H 0.39906 0.18011 0.06331 0.0
H149 H 0.38084 0.16934 0.10576 0.0
H150 H 0.44925 0.20873 0.10269 0.0
H151 H 0.1891 0.29097 0.0214 0.0
H152 H 0.17857 0.35051 0.04964 0.0
H153 H 0.17433 0.27733 0.06444 0.0
C154 C 0.13189 0.77874 0.93804 0.0
C155 C 0.14472 0.7997 0.97322 0.0
C156 C 0.17336 0.74321 0.92539 0.0
C157 C 0.22861 0.72719 0.94861 0.0
C158 C 0.24146 0.74737 0.98432 0.0
C159 C 0.19967 0.78384 -0.00392 0.0
C160 C 0.15848 0.72354 0.88705 0.0
C161 C 0.29955 0.7305 0.01011 0.0
C162 C 0.31685 0.59252 0.93685 0.0
C163 C 0.36995 0.61584 0.92864 0.0
C164 C 0.268 0.62789 0.94073 0.0
C165 C 0.27258 0.68805 0.93619 0.0
C166 C 0.32343 0.71087 0.92407 0.0
C167 C 0.37186 0.67432 0.92055 0.0
C168 C 0.21481 0.60152 0.95356 0.0
C169 C 0.32967 0.7746 0.9183 0.0
H170 H 0.09003 0.79147 0.91991 0.0
H171 H 0.21006 0.8 0.02319 0.0
H172 H 0.19511 0.73784 0.87355 0.0
H173 H 0.15679 0.67585 0.8856 0.0
H174 H 0.11397 0.74056 0.87223 0.0
H175 H 0.30231 0.74906 0.03707 0.0
H176 H 0.30224 0.68293 0.01229 0.0
H177 H 0.34007 0.74527 0.00017 0.0
H178 H 0.31617 0.54738 0.94384 0.0
H179 H 0.41368 0.69254 0.91512 0.0
H180 H 0.17065 0.61881 0.9386 0.0
H181 H 0.21867 0.61276 0.98201 0.0
H182 H 0.21377 0.55386 0.95089 0.0
H183 H 0.28548 0.79289 0.90406 0.0
H184 H 0.36534 0.78401 0.90294 0.0
H185 H 0.3427 0.79679 0.94444 0.0
C186 C 0.80159 0.80297 0.98483 0.0
C187 C 0.81706 0.85696 0.00076 0.0
C188 C 0.75132 0.77145 -0.00851 0.0
C189 C 0.71559 0.79449 0.01455 0.0
C190 C 0.73077 0.84899 0.03055 0.0
C191 C 0.78117 0.87947 0.02349 0.0
C192 C 0.73643 0.71336 0.97385 0.0
C193 C 0.69371 0.87516 0.05509 0.0
C194 C 0.55686 0.72837 -0.00034 0.0
C195 C 0.56605 0.68413 0.02471 0.0
C196 C 0.60396 0.76749 -0.00234 0.0
C197 C 0.66165 0.76177 0.02121 0.0
C198 C 0.66899 0.72062 0.04885 0.0
C199 C 0.62077 0.68221 0.05033 0.0
C200 C 0.59367 0.81125 0.96818 0.0
C201 C 0.72953 0.71344 0.07471 0.0
H202 H 0.82896 0.7851 0.96736 0.0
H203 H 0.79244 0.92117 0.036 0.0
H204 H 0.73738 0.67979 -0.00566 0.0
H205 H 0.68945 0.71365 0.957 0.0
H206 H 0.76905 0.70117 0.95701 0.0
H207 H 0.71196 0.91776 0.06577 0.0
H208 H 0.64545 0.8805 0.04073 0.0
H209 H 0.69332 0.84597 0.07774 0.0
H210 H 0.51457 0.72923 0.9796 0.0
H211 H 0.62821 0.64715 0.06921 0.0
H212 H 0.61862 0.79784 0.94749 0.0
H213 H 0.61186 0.85403 0.97837 0.0
H214 H 0.54433 0.8156 0.9555 0.0
H215 H 0.76287 0.69337 0.06078 0.0
H216 H 0.72524 0.68572 0.09748 0.0
H217 H 0.74862 0.75583 0.08511 0.0
C218 C 0.91002 0.19706 0.94321 0.0
C219 C 0.88929 0.15436 0.9635 0.0
C220 C 0.8733 0.24429 0.9305 0.0
C221 C 0.81426 0.24862 0.93801 0.0
C222 C 0.79304 0.20588 0.95858 0.0
C223 C 0.83102 0.15932 0.97128 0.0
C224 C 0.89767 0.28953 0.90902 0.0
C225 C 0.73009 0.20912 0.96693 0.0
C226 C 0.74033 0.39519 0.93391 0.0
C227 C 0.70011 0.39311 0.90056 0.0
C228 C 0.77806 0.34853 0.94632 0.0
C229 C 0.77513 0.29855 0.92488 0.0
C230 C 0.73507 0.29639 0.89098 0.0
C231 C 0.69811 0.344 0.8791 0.0
C232 C 0.82075 0.35261 0.98243 0.0
C233 C 0.7306 0.24351 0.86756 0.0
H234 H 0.95512 0.19365 0.93721 0.0
H235 H 0.81457 0.12629 0.98675 0.0
H236 H 0.86714 0.29296 0.88231 0.0
H237 H 0.89819 0.3322 0.92218 0.0
H238 H 0.94476 0.27985 0.90568 0.0
H239 H 0.72021 0.17194 0.98287 0.0
H240 H 0.72587 0.24933 0.98187 0.0
H241 H 0.69468 0.21046 0.94188 0.0
H242 H 0.74218 0.43352 0.95033 0.0
H243 H 0.66654 0.34232 0.85345 0.0
H244 H 0.86873 0.34571 0.97987 0.0
H245 H 0.80948 0.31836 -2e-05 0.0
H246 H 0.81803 0.39498 -0.00449 0.0
H247 H 0.77613 0.23351 0.86195 0.0
H248 H 0.6973 0.24889 0.84189 0.0
H249 H 0.71637 0.20587 0.88153 0.0
C250 C 0.73616 0.6668 0.51471 0.0
C251 C 0.67743 0.67871 0.4946 0.0
C252 C 0.7814 0.70985 0.52205 0.0
C253 C 0.76758 0.76613 0.50897 0.0
C254 C 0.71014 0.77724 0.4863 0.0
C255 C 0.66565 0.7334 0.47942 0.0
C256 C 0.84225 0.69615 0.54619 0.0
C257 C 0.69388 0.83653 0.4715 0.0
C258 C 0.8399 0.88455 0.57192 0.0
C259 C 0.8893 0.90195 0.55729 0.0
C260 C 0.79953 0.84125 0.55594 0.0
C261 C 0.80835 0.81479 0.52424 0.0
C262 C 0.85683 0.83351 0.50849 0.0
C263 C 0.89688 0.87717 0.52525 0.0
C264 C 0.74814 0.82303 0.57351 0.0
C265 C 0.86728 0.8065 0.47458 0.0
H266 H 0.74612 0.62449 0.52614 0.0
H267 H 0.62074 0.74287 0.46338 0.0
H268 H 0.88055 0.71425 0.53545 0.0
H269 H 0.84441 0.71622 0.57266 0.0
H270 H 0.84917 0.64907 0.54982 0.0
H271 H 0.65245 0.83575 0.44959 0.0
H272 H 0.68477 0.86509 0.49296 0.0
H273 H 0.73248 0.8557 0.46151 0.0
H274 H 0.83299 0.90476 0.59621 0.0
H275 H 0.93491 0.89089 0.51384 0.0
H276 H 0.75351 0.77708 0.5812 0.0
H277 H 0.70337 0.82729 0.55461 0.0
H278 H 0.74693 0.84899 0.59767 0.0
H279 H 0.88179 0.76116 0.47959 0.0
H280 H 0.90303 0.82968 0.46393 0.0
H281 H 0.8241 0.80585 0.45401 0.0
C282 C 0.70266 0.3552 0.50223 0.0
C283 C 0.64736 0.36341 0.47759 0.0
C284 C 0.74778 0.31812 0.4947 0.0
C285 C 0.73741 0.28837 0.46166 0.0
C286 C 0.68049 0.29438 0.43739 0.0
C287 C 0.63607 0.33157 0.44571 0.0
C288 C 0.80667 0.31151 0.52214 0.0
C289 C 0.6678 0.26406 0.40176 0.0
C290 C 0.8823 0.25749 0.42864 0.0
C291 C 0.89264 0.19935 0.43737 0.0
C292 C 0.83066 0.28611 0.43512 0.0
C293 C 0.7883 0.25609 0.45104 0.0
C294 C 0.79676 0.19661 0.4583 0.0
C295 C 0.84859 0.16874 0.451 0.0
C296 C 0.82305 0.34935 0.4265 0.0
C297 C 0.75344 0.16339 0.47596 0.0
H298 H 0.71137 0.37883 0.52718 0.0
H299 H 0.5935 0.33758 0.42644 0.0
H300 H 0.80534 0.26981 0.53582 0.0
H301 H 0.84719 0.31143 0.50978 0.0
H302 H 0.81288 0.34625 0.54257 0.0
H303 H 0.61941 0.26883 0.38734 0.0
H304 H 0.69803 0.28212 0.38507 0.0
H305 H 0.67826 0.21754 0.4051 0.0
H306 H 0.91557 0.28108 0.41742 0.0
H307 H 0.85661 0.12392 0.4581 0.0
H308 H 0.82833 0.37463 0.45153 0.0
H309 H 0.77642 0.35763 0.41048 0.0
H310 H 0.85721 0.36524 0.41162 0.0
H311 H 0.75749 0.1797 0.50351 0.0
H312 H 0.76335 0.11654 0.47708 0.0
H313 H 0.70532 0.16987 0.46168 0.0
C314 C 0.29644 0.3544 0.47768 0.0
C315 C 0.33999 0.37799 0.50586 0.0
C316 C 0.25 0.31755 0.48419 0.0
C317 C 0.24868 0.30235 0.51964 0.0
C318 C 0.29518 0.32312 0.54795 0.0
C319 C 0.33955 0.36157 0.54077 0.0
C320 C 0.20099 0.29687 0.45327 0.0
C321 C 0.29683 0.30628 0.58595 0.0
C322 C 0.09462 0.27181 0.54231 0.0
C323 C 0.09119 0.21142 0.54089 0.0
C324 C 0.14521 0.30154 0.53507 0.0
C325 C 0.19522 0.27033 0.52755 0.0
C326 C 0.19373 0.20938 0.52775 0.0
C327 C 0.14147 0.18063 0.53401 0.0
C328 C 0.14448 0.36659 0.53476 0.0
C329 C 0.24648 0.17443 0.52042 0.0
H330 H 0.29685 0.36708 0.45068 0.0
H331 H 0.37383 0.37918 0.56257 0.0
H332 H 0.20329 0.24941 0.4509 0.0
H333 H 0.1549 0.30766 0.45779 0.0
H334 H 0.20603 0.31607 0.42769 0.0
H335 H 0.34 0.32023 0.60423 0.0
H336 H 0.25778 0.32619 0.59504 0.0
H337 H 0.29202 0.25891 0.58793 0.0
H338 H 0.0573 0.29631 0.54878 0.0
H339 H 0.13937 0.13409 0.53231 0.0
H340 H 0.15064 0.38241 0.5086 0.0
H341 H 0.1831 0.38384 0.55527 0.0
H342 H 0.10108 0.38435 0.53989 0.0
H343 H 0.24704 0.17678 0.49174 0.0
H344 H 0.24282 0.12842 0.52745 0.0
H345 H 0.29084 0.19193 0.5355 0.0
C346 C 0.29015 0.68773 0.50069 0.0
C347 C 0.33152 0.68577 0.4779 0.0
C348 C 0.24195 0.72765 0.49534 0.0
C349 C 0.23469 0.76596 0.46631 0.0
C350 C 0.27637 0.76421 0.44332 0.0
C351 C 0.32433 0.72442 0.44949 0.0
C352 C 0.19877 0.72875 0.52059 0.0
C353 C 0.26995 0.804 0.41184 0.0
C354 C 0.08583 0.83501 0.4212 0.0
C355 C 0.09762 0.89298 0.43074 0.0
C356 C 0.12801 0.79204 0.43493 0.0
C357 C 0.18307 0.80746 0.45898 0.0
C358 C 0.19229 0.86499 0.47141 0.0
C359 C 0.1495 0.90721 0.45702 0.0
C360 C 0.1161 0.73117 0.42115 0.0
C361 C 0.2499 0.88301 0.4975 0.0
H362 H 0.29551 0.65821 0.52282 0.0
H363 H 0.35582 0.72317 0.43165 0.0
H364 H 0.19819 0.77242 0.53232 0.0
H365 H 0.15142 0.71894 0.50593 0.0
H366 H 0.21172 0.69724 0.54247 0.0
H367 H 0.30625 0.79713 0.39654 0.0
H368 H 0.22467 0.79725 0.39368 0.0
H369 H 0.27215 0.84949 0.42097 0.0
H370 H 0.04519 0.82371 0.40135 0.0
H371 H 0.15907 0.95192 0.46448 0.0
H372 H 0.12722 0.69984 0.44317 0.0
H373 H 0.14608 0.72161 0.40231 0.0
H374 H 0.06769 0.72452 0.40706 0.0
H375 H 0.26183 0.85129 0.51927 0.0
H376 H 0.24522 0.92611 0.50926 0.0
H377 H 0.2886 0.88478 0.48365 0.0
C378 C 0.0343 0.9182 0.14785 0.0
C379 C 0.02788 0.96922 0.12825 0.0
C380 C 0.03219 0.91875 0.18409 0.0
C381 C 0.02555 0.97181 0.20121 0.0
C382 C 0.02084 0.02358 0.18164 0.0
C383 C 0.02104 0.02151 0.14527 0.0
C384 C 0.03593 0.86254 0.20389 0.0
C385 C 0.01579 0.08119 0.19913 0.0
C386 C 0.96768 0.97609 0.28729 0.0
C387 C 0.02274 0.97965 0.31259 0.0
C388 C 0.96787 0.97234 0.25084 0.0
C389 C 0.02443 0.97354 0.23971 0.0
C390 C 0.08006 0.97794 0.26538 0.0
C391 C 0.07851 0.98034 0.30155 0.0
C392 C 0.90772 0.96667 0.22429 0.0
C393 C 0.14118 0.98073 0.25463 0.0
H394 H 0.03893 0.87771 0.13456 0.0
H395 H 0.01647 0.06105 0.13012 0.0
H396 H 0.07626 0.86295 0.22642 0.0
H397 H 0.99465 0.85696 0.21526 0.0
H398 H 0.03954 0.82493 0.18652 0.0
H399 H 0.01474 0.11758 0.18043 0.0
H400 H 0.97353 0.08244 0.20986 0.0
H401 H 0.05518 0.0876 0.22189 0.0
H402 H 0.92472 0.9752 0.29608 0.0
H403 H 0.121 0.98323 0.32136 0.0
H404 H 0.90805 0.92755 0.20765 0.0
H405 H 0.90126 0.00414 0.20618 0.0
H406 H 0.86802 0.96401 0.23735 0.0
H407 H 0.14789 0.94142 0.23947 0.0
H408 H 0.18013 0.98487 0.27791 0.0
H409 H 0.14223 0.01801 0.23688 0.0
C410 C 0.99428 0.91873 0.83766 0.0
C411 C -0.00166 0.96956 0.85777 0.0
C412 C 0.99571 0.92036 0.80136 0.0
C413 C -0.00042 0.97418 0.78479 0.0
C414 C 0.0029 0.02559 0.80499 0.0
C415 C 0.00301 0.02258 0.84132 0.0
C416 C 0.99324 0.8646 0.78076 0.0
C417 C 0.0053 0.08387 0.78812 0.0
C418 C 0.04693 0.98383 0.69568 0.0
C419 C 0.98974 0.98588 0.6723 0.0
C420 C 0.05103 0.97898 0.73252 0.0
C421 C 0.99663 0.97724 0.74592 0.0
C422 C 0.93888 0.98025 0.72221 0.0
C423 C 0.93619 0.98412 0.68567 0.0
C424 C 0.11333 0.97514 0.75705 0.0
C425 C 0.87988 0.97966 0.73541 0.0
H426 H 0.99151 0.87769 0.85051 0.0
H427 H 0.00589 0.06199 0.85684 0.0
H428 H 0.95089 0.86285 0.7596 0.0
H429 H 0.03265 0.86221 0.76751 0.0
H430 H 0.99404 0.82632 0.79802 0.0
H431 H 0.00817 0.11971 0.80765 0.0
H432 H 0.0455 0.08658 0.77557 0.0
H433 H 0.96377 0.08994 0.7668 0.0
H434 H 0.08814 0.98476 0.68508 0.0
H435 H 0.89201 0.98582 0.66733 0.0
H436 H 0.11631 0.93514 0.77292 0.0
H437 H 0.12024 0.01186 0.77605 0.0
H438 H 0.15102 0.97536 0.74233 0.0
H439 H 0.87633 0.93944 0.75022 0.0
H440 H 0.8388 0.98286 0.7134 0.0
H441 H 0.87955 0.01613 0.7541 0.0
C442 C 0.51495 0.585 0.64108 0.0
C443 C 0.5595 0.5623 0.62419 0.0
C444 C 0.52595 0.58994 0.67809 0.0
C445 C 0.58276 0.57161 0.69856 0.0
C446 C 0.62994 0.55386 0.68161 0.0
C447 C 0.6177 0.54929 0.64447 0.0
C448 C 0.47473 0.60963 0.69527 0.0
C449 C 0.69148 0.53483 0.70272 0.0
C450 C 0.61655 0.5864 0.79911 0.0
C451 C 0.60083 0.53113 0.80844 0.0
C452 C 0.61049 0.601 0.7632 0.0
C453 C 0.58791 0.5592 0.73664 0.0
C454 C 0.57016 0.50397 0.74623 0.0
C455 C 0.57705 0.49064 0.78208 0.0
C456 C 0.63005 0.6601 0.75376 0.0
C457 C 0.54505 0.45841 0.71868 0.0
H458 H 0.47028 0.5966 0.62555 0.0
H459 H 0.65277 0.53284 0.63155 0.0
H460 H 0.45411 0.57168 0.70573 0.0
H461 H 0.49235 0.63898 0.71802 0.0
H462 H 0.43808 0.63198 0.67611 0.0
H463 H 0.72624 0.53227 0.68601 0.0
H464 H 0.70842 0.56474 0.72528 0.0
H465 H 0.68674 0.49159 0.71397 0.0
H466 H 0.63535 0.6173 0.81984 0.0
H467 H 0.56472 0.44802 0.78968 0.0
H468 H 0.59444 0.67939 0.73255 0.0
H469 H 0.67244 0.65654 0.74327 0.0
H470 H 0.63926 0.68965 0.77711 0.0
H471 H 0.50401 0.47482 0.69992 0.0
H472 H 0.53211 0.41818 0.73078 0.0
H473 H 0.57979 0.44773 0.70297 0.0
C474 C 0.43049 0.49916 0.33163 0.0
C475 C 0.47044 0.53499 0.35523 0.0
C476 C 0.4325 0.49751 0.29557 0.0
C477 C 0.47674 0.53125 0.28336 0.0
C478 C 0.51687 0.56783 0.30707 0.0
C479 C 0.5127 0.56981 0.34275 0.0
C480 C 0.38798 0.459 0.27066 0.0
C481 C 0.56553 0.60316 0.29503 0.0
C482 C 0.51105 0.46898 0.19943 0.0
C483 C 0.47323 0.50254 0.17386 0.0
C484 C 0.5166 0.48089 0.2356 0.0
C485 C 0.48202 0.52632 0.24595 0.0
C486 C 0.44703 0.56269 0.22006 0.0
C487 C 0.44349 0.55053 0.18407 0.0
C488 C 0.5557 0.44226 0.26261 0.0
C489 C 0.40903 0.61106 0.23017 0.0
H490 H 0.39774 0.47251 0.34137 0.0
H491 H 0.54419 0.59702 0.3612 0.0
H492 H 0.3631 0.48413 0.24768 0.0
H493 H 0.41334 0.42452 0.26002 0.0
H494 H 0.35391 0.43858 0.28398 0.0
H495 H 0.59131 0.63138 0.31655 0.0
H496 H 0.59843 0.57408 0.28594 0.0
H497 H 0.54462 0.63036 0.27211 0.0
H498 H 0.53366 0.43174 0.1911 0.0
H499 H 0.4137 0.57578 0.16393 0.0
H500 H 0.52574 0.41374 0.27459 0.0
H501 H 0.58399 0.46816 0.28444 0.0
H502 H 0.58646 0.41484 0.25048 0.0
H503 H 0.36968 0.59265 0.23982 0.0
H504 H 0.39094 0.63963 0.20734 0.0
H505 H 0.43626 0.63741 0.25212 0.0
loop_
_geom_bond_atom_site_label_1
_geom_bond_atom_site_label_2
_geom_bond_distance
_geom_bond_site_symmetry_2
_ccdc_geom_bond_type
O0 Zn1 1.953 . S
O0 C16 1.225 1_565 S
Zn1 O0 1.953 . S
Zn1 O2 1.949 1_565 S
Zn1 O8 1.919 . S
Zn1 O13 1.924 1_565 S
O2 Zn1 1.949 1_545 S
O2 Zn3 1.923 1_444 S
O2 Zn4 1.950 1_455 S
O2 Zn5 1.945 1_554 S
Zn3 O2 1.923 1_666 S
Zn3 O6 1.933 . S
Zn3 O9 1.941 1_655 S
Zn3 O10 1.965 . S
Zn4 O2 1.950 1_655 S
Zn4 O11 1.938 1_545 S
Zn4 O12 1.906 . S
Zn4 O22 1.953 . S
Zn5 O2 1.945 1_556 S
Zn5 O7 1.932 . S
Zn5 O14 1.977 1_455 S
Zn5 O15 1.910 . S
O6 Zn3 1.933 . S
O6 C17 1.226 1_565 S
O7 Zn5 1.932 . S
O7 C17 1.307 1_455 S
O8 Zn1 1.919 . S
O8 C19 1.249 1_554 S
O9 Zn3 1.941 1_455 S
O9 C19 1.285 . S
O10 Zn3 1.965 . S
O10 C18 1.303 1_556 S
O11 Zn4 1.938 1_565 S
O11 C18 1.247 . S
O12 Zn4 1.906 . S
O12 C20 1.304 1_554 S
O13 Zn1 1.924 1_545 S
O13 C21 1.311 . S
O14 Zn5 1.977 1_655 S
O14 C20 1.272 . S
O15 Zn5 1.910 . S
O15 C21 1.231 1_556 S
C16 O0 1.225 1_545 S
C16 O22 1.298 1_455 S
C17 O6 1.226 1_545 S
C17 O7 1.307 1_655 S
C18 O10 1.303 1_554 S
C18 O11 1.247 . S
C19 O8 1.249 1_556 S
C19 O9 1.285 . S
C20 O12 1.304 1_556 S
C20 O14 1.272 . S
C21 O13 1.311 . S
C21 O15 1.231 1_554 S
O22 Zn4 1.953 . S
O22 C16 1.298 1_655 S
O23 Zn24 1.953 . S
O23 C39 1.225 . S
Zn24 O23 1.953 . S
Zn24 O25 1.949 . S
Zn24 O31 1.919 . S
Zn24 O36 1.924 . S
O25 Zn24 1.949 . S
O25 Zn26 1.923 . S
O25 Zn27 1.950 . S
O25 Zn28 1.945 . S
Zn26 O25 1.923 . S
Zn26 O29 1.933 . S
Zn26 O32 1.941 . S
Zn26 O33 1.965 . S
Zn27 O25 1.950 . S
Zn27 O34 1.938 . S
Zn27 O35 1.906 . S
Zn27 O45 1.953 . S
Zn28 O25 1.945 . S
Zn28 O30 1.932 . S
Zn28 O37 1.977 . S
Zn28 O38 1.910 . S
O29 Zn26 1.933 . S
O29 C40 1.226 . S
O30 Zn28 1.932 . S
O30 C40 1.307 . S
O31 Zn24 1.919 . S
O31 C42 1.253 . S
O32 Zn26 1.941 . S
O32 C42 1.283 . S
O33 Zn26 1.965 . S
O33 C41 1.303 . S
O34 Zn27 1.938 . S
O34 C41 1.247 . S
O35 Zn27 1.906 . S
O35 C43 1.304 . S
O36 Zn24 1.924 . S
O36 C44 1.311 . S
O37 Zn28 1.977 . S
O37 C43 1.272 . S
O38 Zn28 1.910 . S
O38 C44 1.231 . S
C39 O23 1.225 . S
C39 O45 1.298 . S
C40 O29 1.226 . S
C40 O30 1.307 . S
C41 O33 1.303 . S
C41 O34 1.247 . S
C42 O31 1.253 . S
C42 O32 1.283 . S
C43 O35 1.304 . S
C43 O37 1.272 . S
C44 O36 1.311 . S
C44 O38 1.231 . S
O45 Zn27 1.953 . S
O45 C39 1.298 . S
H46 C47 0.949 1_655 S
C47 H46 0.949 1_455 S
C47 C48 1.395 1_545 S
C47 C49 1.391 . S
C48 C47 1.395 1_565 S
C48 C51 1.390 . S
C49 C47 1.391 . S
C49 C53 1.387 1_545 S
C49 C54 1.491 . S
H50 C51 0.950 . S
C51 C48 1.390 . S
C51 H50 0.950 . S
C51 C52 1.378 . S
C52 C51 1.378 . S
C52 C53 1.409 . S
C53 C49 1.387 1_565 S
C53 C52 1.409 . S
C53 H55 0.951 . S
C54 C49 1.491 . S
C54 C56 1.382 1_455 S
C54 C58 1.404 . S
H55 C53 0.951 . S
C56 C54 1.382 1_655 S
C56 C57 1.390 . S
C56 H61 0.949 . S
C57 C56 1.390 . S
C57 C62 1.399 . S
C58 C54 1.404 . S
C58 H59 0.950 . S
C58 C60 1.375 . S
H59 C58 0.950 . S
C60 C58 1.375 . S
C60 C62 1.382 1_455 S
C60 H64 0.950 . S
H61 C56 0.949 . S
C62 C57 1.399 . S
C62 C60 1.382 1_655 S
C62 H63 0.952 . S
H63 C62 0.952 . S
H64 C60 0.950 . S
H65 C66 0.949 . S
C66 H65 0.949 . S
C66 C67 1.395 1_445 S
C66 C68 1.391 1_455 S
C67 C66 1.395 1_665 S
C67 C70 1.390 . S
C68 C66 1.391 1_655 S
C68 C72 1.387 1_545 S
C68 C73 1.491 1_655 S
H69 C70 0.950 . S
C70 C67 1.390 . S
C70 H69 0.950 . S
C70 C71 1.378 . S
C71 C70 1.378 . S
C71 C72 1.409 . S
C72 C68 1.387 1_565 S
C72 C71 1.409 . S
C72 H74 0.951 . S
C73 C68 1.491 1_455 S
C73 C75 1.382 . S
C73 C77 1.404 1_455 S
H74 C72 0.951 . S
C75 C73 1.382 . S
C75 C76 1.390 . S
C75 H80 0.949 . S
C76 C75 1.390 . S
C76 C81 1.399 . S
C77 C73 1.404 1_655 S
C77 H78 0.950 . S
C77 C79 1.375 . S
H78 C77 0.950 . S
C79 C77 1.375 . S
C79 C81 1.382 1_655 S
C79 H83 0.950 . S
H80 C75 0.949 . S
C81 C76 1.399 . S
C81 C79 1.382 1_455 S
C81 H82 0.952 . S
H82 C81 0.952 . S
H83 C79 0.950 . S
H84 C85 0.949 . S
C85 H84 0.949 . S
C85 C86 1.395 . S
C85 C87 1.391 . S
C86 C85 1.395 . S
C86 C89 1.390 . S
C87 C85 1.391 . S
C87 C91 1.387 . S
C87 C92 1.491 . S
H88 C89 0.950 . S
C89 C86 1.390 . S
C89 H88 0.950 . S
C89 C90 1.378 . S
C90 C89 1.378 . S
C90 C91 1.409 . S
C91 C87 1.387 . S
C91 C90 1.409 . S
C91 H93 0.951 . S
C92 C87 1.491 . S
C92 C94 1.382 . S
C92 C96 1.404 . S
H93 C91 0.951 . S
C94 C92 1.382 . S
C94 C95 1.390 . S
C94 H99 0.949 . S
C95 C94 1.390 . S
C95 C100 1.399 . S
C96 C92 1.404 . S
C96 H97 0.950 . S
C96 C98 1.375 1_556 S
H97 C96 0.950 . S
C98 C96 1.375 1_554 S
C98 C100 1.382 1_554 S
C98 H102 0.950 . S
H99 C94 0.949 . S
C100 C95 1.399 . S
C100 C98 1.382 1_556 S
C100 H101 0.952 1_556 S
H101 C100 0.952 1_554 S
H102 C98 0.950 . S
H103 C104 0.949 . S
C104 H103 0.949 . S
C104 C105 1.395 . S
C104 C106 1.391 . S
C105 C104 1.395 . S
C105 C108 1.390 . S
C106 C104 1.391 . S
C106 C110 1.387 . S
C106 C111 1.491 . S
H107 C108 0.950 . S
C108 C105 1.390 . S
C108 H107 0.950 . S
C108 C109 1.378 . S
C109 C108 1.378 . S
C109 C110 1.409 . S
C110 C106 1.387 . S
C110 C109 1.409 . S
C110 H112 0.951 . S
C111 C106 1.491 . S
C111 C113 1.382 . S
C111 C115 1.404 . S
H112 C110 0.951 . S
C113 C111 1.382 . S
C113 C114 1.390 . S
C113 H118 0.949 . S
C114 C113 1.390 . S
C114 C119 1.399 . S
C115 C111 1.404 . S
C115 H116 0.950 . S
C115 C117 1.396 . S
H116 C115 0.950 . S
C117 C115 1.396 . S
C117 C119 1.384 . S
C117 H121 0.927 1_554 S
H118 C113 0.949 . S
C119 C114 1.399 . S
C119 C117 1.384 . S
C119 H120 0.952 1_554 S
H120 C119 0.952 1_556 S
H121 C117 0.927 1_556 S
C122 C123 1.391 . S
C122 C124 1.394 . S
C122 H138 0.931 1_554 S
C123 C122 1.391 . S
C123 C127 1.376 . S
C124 C122 1.394 . S
C124 C125 1.369 . S
C124 C128 1.531 1_554 S
C125 C124 1.369 . S
C125 C126 1.410 . S
C125 C133 1.503 . S
C126 C125 1.410 . S
C126 C127 1.392 . S
C126 C129 1.511 . S
C127 C123 1.376 . S
C127 C126 1.392 . S
C127 H139 0.929 . S
C128 C124 1.531 1_556 S
C128 H140 0.960 . S
C128 H141 0.962 1_556 S
C128 H142 0.960 . S
C129 C126 1.511 . S
C129 H143 0.961 . S
C129 H144 0.961 . S
C129 H145 0.961 . S
C130 C131 1.370 . S
C130 C132 1.363 . S
C130 H146 0.931 . S
C131 C130 1.370 . S
C131 C135 1.408 . S
C132 C130 1.363 . S
C132 C133 1.370 . S
C132 C136 1.524 . S
C133 C125 1.503 . S
C133 C132 1.370 . S
C133 C134 1.403 . S
C134 C133 1.403 . S
C134 C135 1.404 . S
C134 C137 1.539 . S
C135 C131 1.408 . S
C135 C134 1.404 . S
C135 H147 0.930 . S
C136 C132 1.524 . S
C136 H148 0.956 . S
C136 H149 0.961 . S
C136 H150 0.961 . S
C137 C134 1.539 . S
C137 H151 0.958 1_554 S
C137 H152 0.961 . S
C137 H153 0.960 . S
H138 C122 0.931 1_556 S
H139 C127 0.929 . S
H140 C128 0.960 . S
H141 C128 0.962 1_554 S
H142 C128 0.960 . S
H143 C129 0.961 . S
H144 C129 0.961 . S
H145 C129 0.961 . S
H146 C130 0.931 . S
H147 C135 0.930 . S
H148 C136 0.956 . S
H149 C136 0.961 . S
H150 C136 0.961 . S
H151 C137 0.958 1_556 S
H152 C137 0.961 . S
H153 C137 0.960 . S
C154 C155 1.391 . S
C154 C156 1.394 . S
C154 H170 0.931 . S
C155 C154 1.391 . S
C155 C159 1.376 1_556 S
C156 C154 1.394 . S
C156 C157 1.369 . S
C156 C160 1.531 . S
C157 C156 1.369 . S
C157 C158 1.410 1_556 S
C157 C165 1.503 . S
C158 C157 1.410 1_554 S
C158 C159 1.392 . S
C158 C161 1.511 . S
C159 C155 1.376 1_554 S
C159 C158 1.392 . S
C159 H171 0.929 . S
C160 C156 1.531 . S
C160 H172 0.960 . S
C160 H173 0.962 . S
C160 H174 0.960 . S
C161 C158 1.511 . S
C161 H175 0.961 . S
C161 H176 0.961 . S
C161 H177 0.961 . S
C162 C163 1.370 . S
C162 C164 1.363 . S
C162 H178 0.931 . S
C163 C162 1.370 . S
C163 C167 1.408 . S
C164 C162 1.363 . S
C164 C165 1.370 . S
C164 C168 1.524 . S
C165 C157 1.503 . S
C165 C164 1.370 . S
C165 C166 1.403 . S
C166 C165 1.403 . S
C166 C167 1.404 . S
C166 C169 1.539 . S
C167 C163 1.408 . S
C167 C166 1.404 . S
C167 H179 0.930 . S
C168 C164 1.524 . S
C168 H180 0.956 . S
C168 H181 0.961 . S
C168 H182 0.961 . S
C169 C166 1.539 . S
C169 H183 0.958 . S
C169 H184 0.961 1_556 S
C169 H185 0.960 1_556 S
H170 C154 0.931 . S
H171 C159 0.929 . S
H172 C160 0.960 . S
H173 C160 0.962 . S
H174 C160 0.960 . S
H175 C161 0.961 . S
H176 C161 0.961 . S
H177 C161 0.961 . S
H178 C162 0.931 . S
H179 C167 0.930 . S
H180 C168 0.956 . S
H181 C168 0.961 . S
H182 C168 0.961 . S
H183 C169 0.958 . S
H184 C169 0.961 1_554 S
H185 C169 0.960 1_554 S
C186 C187 1.391 1_556 S
C186 C188 1.394 . S
C186 H202 0.931 . S
C187 C186 1.391 1_554 S
C187 C191 1.376 . S
C188 C186 1.394 . S
C188 C189 1.369 1_556 S
C188 C192 1.531 . S
C189 C188 1.369 1_554 S
C189 C190 1.410 . S
C189 C197 1.503 . S
C190 C189 1.410 . S
C190 C191 1.392 . S
C190 C193 1.511 . S
C191 C187 1.376 . S
C191 C190 1.392 . S
C191 H203 0.929 . S
C192 C188 1.531 . S
C192 H204 0.960 . S
C192 H205 0.962 . S
C192 H206 0.960 . S
C193 C190 1.511 . S
C193 H207 0.961 . S
C193 H208 0.961 . S
C193 H209 0.961 . S
C194 C195 1.370 . S
C194 C196 1.363 . S
C194 H210 0.931 . S
C195 C194 1.370 . S
C195 C199 1.408 . S
C196 C194 1.363 . S
C196 C197 1.370 . S
C196 C200 1.524 . S
C197 C189 1.503 . S
C197 C196 1.370 . S
C197 C198 1.403 . S
C198 C197 1.403 . S
C198 C199 1.404 . S
C198 C201 1.539 . S
C199 C195 1.408 . S
C199 C198 1.404 . S
C199 H211 0.930 . S
C200 C196 1.524 . S
C200 H212 0.956 1_554 S
C200 H213 0.961 . S
C200 H214 0.961 . S
C201 C198 1.539 . S
C201 H215 0.958 . S
C201 H216 0.961 . S
C201 H217 0.960 . S
H202 C186 0.931 . S
H203 C191 0.929 . S
H204 C192 0.960 . S
H205 C192 0.962 . S
H206 C192 0.960 . S
H207 C193 0.961 . S
H208 C193 0.961 . S
H209 C193 0.961 . S
H210 C194 0.931 . S
H211 C199 0.930 . S
H212 C200 0.956 1_556 S
H213 C200 0.961 . S
H214 C200 0.961 . S
H215 C201 0.958 . S
H216 C201 0.961 . S
H217 C201 0.960 . S
C218 C219 1.391 . S
C218 C220 1.394 . S
C218 H234 0.931 . S
C219 C218 1.391 . S
C219 C223 1.376 . S
C220 C218 1.394 . S
C220 C221 1.369 . S
C220 C224 1.531 . S
C221 C220 1.369 . S
C221 C222 1.410 . S
C221 C229 1.503 . S
C222 C221 1.410 . S
C222 C223 1.392 . S
C222 C225 1.511 . S
C223 C219 1.376 . S
C223 C222 1.392 . S
C223 H235 0.929 . S
C224 C220 1.531 . S
C224 H236 0.960 . S
C224 H237 0.962 . S
C224 H238 0.960 . S
C225 C222 1.511 . S
C225 H239 0.961 . S
C225 H240 0.961 . S
C225 H241 0.961 . S
C226 C227 1.370 . S
C226 C228 1.363 . S
C226 H242 0.931 . S
C227 C226 1.370 . S
C227 C231 1.408 . S
C228 C226 1.363 . S
C228 C229 1.370 . S
C228 C232 1.513 1_556 S
C229 C221 1.503 . S
C229 C228 1.370 . S
C229 C230 1.403 . S
C230 C229 1.403 . S
C230 C231 1.404 . S
C230 C233 1.539 . S
C231 C227 1.408 . S
C231 C230 1.404 . S
C231 H243 0.930 . S
C232 C228 1.513 1_554 S
C232 H244 0.948 1_554 S
C232 H245 0.969 . S
C232 H246 0.972 . S
C233 C230 1.539 . S
C233 H247 0.958 . S
C233 H248 0.961 . S
C233 H249 0.960 . S
H234 C218 0.931 . S
H235 C223 0.929 . S
H236 C224 0.960 . S
H237 C224 0.962 . S
H238 C224 0.960 . S
H239 C225 0.961 . S
H240 C225 0.961 . S
H241 C225 0.961 . S
H242 C226 0.931 . S
H243 C231 0.930 . S
H244 C232 0.948 1_556 S
H245 C232 0.969 . S
H246 C232 0.972 . S
H247 C233 0.958 . S
H248 C233 0.961 . S
H249 C233 0.960 . S
C250 C251 1.391 . S
C250 C252 1.394 . S
C250 H266 0.931 . S
C251 C250 1.391 . S
C251 C255 1.376 . S
C252 C250 1.394 . S
C252 C253 1.369 . S
C252 C256 1.531 . S
C253 C252 1.369 . S
C253 C254 1.410 . S
C253 C261 1.503 . S
C254 C253 1.410 . S
C254 C255 1.392 . S
C254 C257 1.511 . S
C255 C251 1.376 . S
C255 C254 1.392 . S
C255 H267 0.929 . S
C256 C252 1.531 . S
C256 H268 0.960 . S
C256 H269 0.962 . S
C256 H270 0.960 . S
C257 C254 1.511 . S
C257 H271 0.961 . S
C257 H272 0.961 . S
C257 H273 0.961 . S
C258 C259 1.370 . S
C258 C260 1.363 . S
C258 H274 0.931 . S
C259 C258 1.370 . S
C259 C263 1.408 . S
C260 C258 1.363 . S
C260 C261 1.370 . S
C260 C264 1.524 . S
C261 C253 1.503 . S
C261 C260 1.370 . S
C261 C262 1.403 . S
C262 C261 1.403 . S
C262 C263 1.404 . S
C262 C265 1.539 . S
C263 C259 1.408 . S
C263 C262 1.404 . S
C263 H275 0.930 . S
C264 C260 1.524 . S
C264 H276 0.956 . S
C264 H277 0.961 . S
C264 H278 0.961 . S
C265 C262 1.539 . S
C265 H279 0.958 . S
C265 H280 0.961 . S
C265 H281 0.960 . S
H266 C250 0.931 . S
H267 C255 0.929 . S
H268 C256 0.960 . S
H269 C256 0.962 . S
H270 C256 0.960 . S
H271 C257 0.961 . S
H272 C257 0.961 . S
H273 C257 0.961 . S
H274 C258 0.931 . S
H275 C263 0.930 . S
H276 C264 0.956 . S
H277 C264 0.961 . S
H278 C264 0.961 . S
H279 C265 0.958 . S
H280 C265 0.961 . S
H281 C265 0.960 . S
C282 C283 1.391 . S
C282 C284 1.394 . S
C282 H298 0.931 . S
C283 C282 1.391 . S
C283 C287 1.376 . S
C284 C282 1.394 . S
C284 C285 1.369 . S
C284 C288 1.531 . S
C285 C284 1.369 . S
C285 C286 1.410 . S
C285 C293 1.503 . S
C286 C285 1.410 . S
C286 C287 1.392 . S
C286 C289 1.511 . S
C287 C283 1.376 . S
C287 C286 1.392 . S
C287 H299 0.929 . S
C288 C284 1.531 . S
C288 H300 0.960 . S
C288 H301 0.962 . S
C288 H302 0.960 . S
C289 C286 1.511 . S
C289 H303 0.961 . S
C289 H304 0.961 . S
C289 H305 0.961 . S
C290 C291 1.370 . S
C290 C292 1.363 . S
C290 H306 0.931 . S
C291 C290 1.370 . S
C291 C295 1.408 . S
C292 C290 1.363 . S
C292 C293 1.370 . S
C292 C296 1.524 . S
C293 C285 1.503 . S
C293 C292 1.370 . S
C293 C294 1.403 . S
C294 C293 1.403 . S
C294 C295 1.404 . S
C294 C297 1.539 . S
C295 C291 1.408 . S
C295 C294 1.404 . S
C295 H307 0.930 . S
C296 C292 1.524 . S
C296 H308 0.956 . S
C296 H309 0.961 . S
C296 H310 0.961 . S
C297 C294 1.539 . S
C297 H311 0.958 . S
C297 H312 0.961 . S
C297 H313 0.960 . S
H298 C282 0.931 . S
H299 C287 0.929 . S
H300 C288 0.960 . S
H301 C288 0.962 . S
H302 C288 0.960 . S
H303 C289 0.961 . S
H304 C289 0.961 . S
H305 C289 0.961 . S
H306 C290 0.931 . S
H307 C295 0.930 . S
H308 C296 0.956 . S
H309 C296 0.961 . S
H310 C296 0.961 . S
H311 C297 0.958 . S
H312 C297 0.961 . S
H313 C297 0.960 . S
C314 C315 1.391 . S
C314 C316 1.394 . S
C314 H330 0.931 . S
C315 C314 1.391 . S
C315 C319 1.376 . S
C316 C314 1.394 . S
C316 C317 1.369 . S
C316 C320 1.531 . S
C317 C316 1.369 . S
C317 C318 1.410 . S
C317 C325 1.503 . S
C318 C317 1.410 . S
C318 C319 1.392 . S
C318 C321 1.511 . S
C319 C315 1.376 . S
C319 C318 1.392 . S
C319 H331 0.929 . S
C320 C316 1.531 . S
C320 H332 0.960 . S
C320 H333 0.962 . S
C320 H334 0.960 . S
C321 C318 1.511 . S
C321 H335 0.961 . S
C321 H336 0.961 . S
C321 H337 0.961 . S
C322 C323 1.370 . S
C322 C324 1.363 . S
C322 H338 0.931 . S
C323 C322 1.370 . S
C323 C327 1.408 . S
C324 C322 1.363 . S
C324 C325 1.370 . S
C324 C328 1.524 . S
C325 C317 1.503 . S
C325 C324 1.370 . S
C325 C326 1.403 . S
C326 C325 1.403 . S
C326 C327 1.404 . S
C326 C329 1.539 . S
C327 C323 1.408 . S
C327 C326 1.404 . S
C327 H339 0.930 . S
C328 C324 1.524 . S
C328 H340 0.956 . S
C328 H341 0.961 . S
C328 H342 0.961 . S
C329 C326 1.539 . S
C329 H343 0.958 . S
C329 H344 0.961 . S
C329 H345 0.960 . S
H330 C314 0.931 . S
H331 C319 0.929 . S
H332 C320 0.960 . S
H333 C320 0.962 . S
H334 C320 0.960 . S
H335 C321 0.961 . S
H336 C321 0.961 . S
H337 C321 0.961 . S
H338 C322 0.931 . S
H339 C327 0.930 . S
H340 C328 0.956 . S
H341 C328 0.961 . S
H342 C328 0.961 . S
H343 C329 0.958 . S
H344 C329 0.961 . S
H345 C329 0.960 . S
C346 C347 1.391 . S
C346 C348 1.394 . S
C346 H362 0.931 . S
C347 C346 1.391 . S
C347 C351 1.376 . S
C348 C346 1.394 . S
C348 C349 1.369 . S
C348 C352 1.531 . S
C349 C348 1.369 . S
C349 C350 1.410 . S
C349 C357 1.503 . S
C350 C349 1.410 . S
C350 C351 1.392 . S
C350 C353 1.511 . S
C351 C347 1.376 . S
C351 C350 1.392 . S
C351 H363 0.929 . S
C352 C348 1.531 . S
C352 H364 0.960 . S
C352 H365 0.962 . S
C352 H366 0.960 . S
C353 C350 1.511 . S
C353 H367 0.961 . S
C353 H368 0.961 . S
C353 H369 0.961 . S
C354 C355 1.370 . S
C354 C356 1.363 . S
C354 H370 0.931 . S
C355 C354 1.370 . S
C355 C359 1.408 . S
C356 C354 1.363 . S
C356 C357 1.370 . S
C356 C360 1.524 . S
C357 C349 1.503 . S
C357 C356 1.370 . S
C357 C358 1.403 . S
C358 C357 1.403 . S
C358 C359 1.404 . S
C358 C361 1.539 . S
C359 C355 1.408 . S
C359 C358 1.404 . S
C359 H371 0.930 . S
C360 C356 1.524 . S
C360 H372 0.956 . S
C360 H373 0.961 . S
C360 H374 0.961 . S
C361 C358 1.539 . S
C361 H375 0.958 . S
C361 H376 0.961 . S
C361 H377 0.960 . S
H362 C346 0.931 . S
H363 C351 0.929 . S
H364 C352 0.960 . S
H365 C352 0.962 . S
H366 C352 0.960 . S
H367 C353 0.961 . S
H368 C353 0.961 . S
H369 C353 0.961 . S
H370 C354 0.931 . S
H371 C359 0.930 . S
H372 C360 0.956 . S
H373 C360 0.961 . S
H374 C360 0.961 . S
H375 C361 0.958 . S
H376 C361 0.961 . S
H377 C361 0.960 . S
C378 C379 1.400 1_565 S
C378 C380 1.391 . S
C378 H394 0.925 1_455 S
C379 C378 1.400 1_545 S
C379 C383 1.376 . S
C380 C378 1.391 . S
C380 C381 1.369 . S
C380 C384 1.531 1_455 S
C381 C380 1.369 . S
C381 C382 1.410 1_565 S
C381 C389 1.503 . S
C382 C381 1.410 1_545 S
C382 C383 1.392 . S
C382 C385 1.511 . S
C383 C379 1.376 . S
C383 C382 1.392 . S
C383 H395 0.929 . S
C384 C380 1.531 1_655 S
C384 H396 0.960 . S
C384 H397 0.962 . S
C384 H398 0.960 . S
C385 C382 1.511 . S
C385 H399 0.961 . S
C385 H400 0.961 . S
C385 H401 0.961 . S
C386 C387 1.370 1_655 S
C386 C388 1.363 . S
C386 H402 0.931 . S
C387 C386 1.370 1_455 S
C387 C391 1.409 1_545 S
C388 C386 1.363 . S
C388 C389 1.370 1_645 S
C388 C392 1.524 . S
C389 C381 1.503 . S
C389 C388 1.370 1_465 S
C389 C390 1.403 . S
C390 C389 1.403 . S
C390 C391 1.404 . S
C390 C393 1.539 . S
C391 C387 1.409 1_565 S
C391 C390 1.404 . S
C391 H403 0.930 . S
C392 C388 1.524 . S
C392 H404 0.956 . S
C392 H405 0.961 . S
C392 H406 0.961 . S
C393 C390 1.539 . S
C393 H407 0.958 . S
C393 H408 0.961 . S
C393 H409 0.960 . S
H394 C378 0.925 1_655 S
H395 C383 0.929 . S
H396 C384 0.960 . S
H397 C384 0.962 . S
H398 C384 0.960 . S
H399 C385 0.961 . S
H400 C385 0.961 . S
H401 C385 0.961 . S
H402 C386 0.931 . S
H403 C391 0.930 . S
H404 C392 0.956 . S
H405 C392 0.961 . S
H406 C392 0.961 . S
H407 C393 0.958 . S
H408 C393 0.961 . S
H409 C393 0.960 . S
C410 C411 1.391 1_465 S
C410 C412 1.394 . S
C410 H426 0.931 . S
C411 C410 1.391 1_645 S
C411 C415 1.376 . S
C412 C410 1.394 . S
C412 C413 1.369 1_455 S
C412 C416 1.531 . S
C413 C412 1.369 1_655 S
C413 C414 1.410 1_565 S
C413 C421 1.504 . S
C414 C413 1.410 1_545 S
C414 C415 1.392 . S
C414 C417 1.511 . S
C415 C411 1.376 . S
C415 C414 1.392 . S
C415 H427 0.929 . S
C416 C412 1.531 . S
C416 H428 0.960 . S
C416 H429 0.962 . S
C416 H430 0.960 . S
C417 C414 1.511 . S
C417 H431 0.961 . S
C417 H432 0.961 . S
C417 H433 0.961 . S
C418 C419 1.370 1_455 S
C418 C420 1.363 . S
C418 H434 0.931 . S
C419 C418 1.370 1_655 S
C419 C423 1.408 1_545 S
C420 C418 1.363 . S
C420 C421 1.366 1_445 S
C420 C424 1.524 . S
C421 C413 1.504 . S
C421 C420 1.366 1_665 S
C421 C422 1.406 . S
C422 C421 1.406 . S
C422 C423 1.404 . S
C422 C425 1.539 . S
C423 C419 1.408 1_565 S
C423 C422 1.404 . S
C423 H435 0.930 . S
C424 C420 1.524 . S
C424 H436 0.956 . S
C424 H437 0.961 . S
C424 H438 0.961 . S
C425 C422 1.539 . S
C425 H439 0.958 . S
C425 H440 0.961 . S
C425 H441 0.960 . S
H426 C410 0.931 . S
H427 C415 0.929 . S
H428 C416 0.960 . S
H429 C416 0.962 . S
H430 C416 0.960 . S
H431 C417 0.961 . S
H432 C417 0.961 . S
H433 C417 0.961 . S
H434 C418 0.931 . S
H435 C423 0.930 . S
H436 C424 0.956 . S
H437 C424 0.961 . S
H438 C424 0.961 . S
H439 C425 0.958 . S
H440 C425 0.961 . S
H441 C425 0.960 . S
C442 C443 1.391 . S
C442 C444 1.394 . S
C442 H458 0.931 . S
C443 C442 1.391 . S
C443 C447 1.376 . S
C444 C442 1.394 . S
C444 C445 1.369 . S
C444 C448 1.531 . S
C445 C444 1.369 . S
C445 C446 1.410 . S
C445 C453 1.503 . S
C446 C445 1.410 . S
C446 C447 1.392 . S
C446 C449 1.511 . S
C447 C443 1.376 . S
C447 C446 1.392 . S
C447 H459 0.929 . S
C448 C444 1.531 . S
C448 H460 0.960 . S
C448 H461 0.962 . S
C448 H462 0.960 . S
C449 C446 1.511 . S
C449 H463 0.961 . S
C449 H464 0.961 . S
C449 H465 0.961 . S
C450 C451 1.370 . S
C450 C452 1.363 . S
C450 H466 0.931 . S
C451 C450 1.370 . S
C451 C455 1.408 . S
C452 C450 1.363 . S
C452 C453 1.370 . S
C452 C456 1.524 . S
C453 C445 1.503 . S
C453 C452 1.370 . S
C453 C454 1.403 . S
C454 C453 1.403 . S
C454 C455 1.404 . S
C454 C457 1.539 . S
C455 C451 1.408 . S
C455 C454 1.404 . S
C455 H467 0.930 . S
C456 C452 1.524 . S
C456 H468 0.956 . S
C456 H469 0.961 . S
C456 H470 0.961 . S
C457 C454 1.539 . S
C457 H471 0.958 . S
C457 H472 0.961 . S
C457 H473 0.960 . S
H458 C442 0.931 . S
H459 C447 0.929 . S
H460 C448 0.960 . S
H461 C448 0.962 . S
H462 C448 0.960 . S
H463 C449 0.961 . S
H464 C449 0.961 . S
H465 C449 0.961 . S
H466 C450 0.931 . S
H467 C455 0.930 . S
H468 C456 0.956 . S
H469 C456 0.961 . S
H470 C456 0.961 . S
H471 C457 0.958 . S
H472 C457 0.961 . S
H473 C457 0.960 . S
C474 C475 1.391 . S
C474 C476 1.394 . S
C474 H490 0.931 . S
C475 C474 1.391 . S
C475 C479 1.376 . S
C476 C474 1.394 . S
C476 C477 1.369 . S
C476 C480 1.531 . S
C477 C476 1.369 . S
C477 C478 1.410 . S
C477 C485 1.503 . S
C478 C477 1.410 . S
C478 C479 1.392 . S
C478 C481 1.511 . S
C479 C475 1.376 . S
C479 C478 1.392 . S
C479 H491 0.929 . S
C480 C476 1.531 . S
C480 H492 0.960 . S
C480 H493 0.962 . S
C480 H494 0.960 . S
C481 C478 1.511 . S
C481 H495 0.961 . S
C481 H496 0.961 . S
C481 H497 0.961 . S
C482 C483 1.370 . S
C482 C484 1.363 . S
C482 H498 0.931 . S
C483 C482 1.370 . S
C483 C487 1.408 . S
C484 C482 1.363 . S
C484 C485 1.370 . S
C484 C488 1.524 . S
C485 C477 1.503 . S
C485 C484 1.370 . S
C485 C486 1.403 . S
C486 C485 1.403 . S
C486 C487 1.404 . S
C486 C489 1.539 . S
C487 C483 1.408 . S
C487 C486 1.404 . S
C487 H499 0.930 . S
C488 C484 1.524 . S
C488 H500 0.956 . S
C488 H501 0.961 . S
C488 H502 0.961 . S
C489 C486 1.539 . S
C489 H503 0.958 . S
C489 H504 0.961 . S
C489 H505 0.960 . S
H490 C474 0.931 . S
H491 C479 0.929 . S
H492 C480 0.960 . S
H493 C480 0.962 . S
H494 C480 0.960 . S
H495 C481 0.961 . S
H496 C481 0.961 . S
H497 C481 0.961 . S
H498 C482 0.931 . S
H499 C487 0.930 . S
H500 C488 0.956 . S
H501 C488 0.961 . S
H502 C488 0.961 . S
H503 C489 0.958 . S
H504 C489 0.961 . S
H505 C489 0.960 . S
C131 C109 1.592 . S
C123 C21 1.567 . S
C155 C19 1.402 . S
C163 C95 1.335 . S
C187 C18 1.385 . S
C195 C114 1.345 . S
C219 C20 1.577 . S
C227 C90 1.573 . S
C251 C44 1.558 . S
C259 C71 1.595 . S
C283 C42 1.382 . S
C291 C57 1.352 . S
C323 C76 1.329 . S
C315 C41 1.364 . S
C355 C52 1.579 . S
C347 C43 1.537 . S
C379 C16 1.558 . S
C387 C48 1.544 1_545 S
C411 C17 1.517 . S
C419 C67 1.504 1_545 S
C451 C86 1.544 . S
C443 C39 1.556 . S
C475 C40 1.516 . S
C483 C105 1.515 . S
