# Generated by pormake.
# Topology wbl, (4,4)-cn, num edge types: 1
# Building blocks:
#     Node 0, Type 0, BuildingBlock: MIFKUJ_clean_linker_1, # of connection points: 4
#     Node 1, Type 0, BuildingBlock: MIFKUJ_clean_linker_1, # of connection points: 4
#     Node 2, Type 0, BuildingBlock: MIFKUJ_clean_linker_1, # of connection points: 4
#     Node 3, Type 0, BuildingBlock: MIFKUJ_clean_linker_1, # of connection points: 4
#     Node 4, Type 0, BuildingBlock: MIFKUJ_clean_linker_1, # of connection points: 4
#     Node 5, Type 0, BuildingBlock: MIFKUJ_clean_linker_1, # of connection points: 4
#     Node 6, Type 0, BuildingBlock: MIFKUJ_clean_linker_1, # of connection points: 4
#     Node 7, Type 0, BuildingBlock: MIFKUJ_clean_linker_1, # of connection points: 4
#     Node 8, Type 1, BuildingBlock: NAHDIM_clean_sbu_0, # of connection points: 4
#     Node 9, Type 1, BuildingBlock: NAHDIM_clean_sbu_0, # of connection points: 4
#     Node 10, Type 1, BuildingBlock: NAHDIM_clean_sbu_0, # of connection points: 4
#     Node 11, Type 1, BuildingBlock: NAHDIM_clean_sbu_0, # of connection points: 4
#     Node 12, Type 1, BuildingBlock: NAHDIM_clean_sbu_0, # of connection points: 4
#     Node 13, Type 1, BuildingBlock: NAHDIM_clean_sbu_0, # of connection points: 4
#     Node 14, Type 1, BuildingBlock: NAHDIM_clean_sbu_0, # of connection points: 4
#     Node 15, Type 1, BuildingBlock: NAHDIM_clean_sbu_0, # of connection points: 4
#     Edge 16, Type (0, 1), BuildingBlock: XIVTED_clean_linker_0, # of connection points: 2
#     Edge 17, Type (0, 1), BuildingBlock: XIVTED_clean_linker_0, # of connection points: 2
#     Edge 18, Type (0, 1), BuildingBlock: XIVTED_clean_linker_0, # of connection points: 2
#     Edge 19, Type (0, 1), BuildingBlock: XIVTED_clean_linker_0, # of connection points: 2
#     Edge 20, Type (0, 1), BuildingBlock: XIVTED_clean_linker_0, # of connection points: 2
#     Edge 21, Type (0, 1), BuildingBlock: XIVTED_clean_linker_0, # of connection points: 2
#     Edge 22, Type (0, 1), BuildingBlock: XIVTED_clean_linker_0, # of connection points: 2
#     Edge 23, Type (0, 1), BuildingBlock: XIVTED_clean_linker_0, # of connection points: 2
#     Edge 24, Type (0, 1), BuildingBlock: XIVTED_clean_linker_0, # of connection points: 2
#     Edge 25, Type (0, 1), BuildingBlock: XIVTED_clean_linker_0, # of connection points: 2
#     Edge 26, Type (0, 1), BuildingBlock: XIVTED_clean_linker_0, # of connection points: 2
#     Edge 27, Type (0, 1), BuildingBlock: XIVTED_clean_linker_0, # of connection points: 2
#     Edge 28, Type (0, 1), BuildingBlock: XIVTED_clean_linker_0, # of connection points: 2
#     Edge 29, Type (0, 1), BuildingBlock: XIVTED_clean_linker_0, # of connection points: 2
#     Edge 30, Type (0, 1), BuildingBlock: XIVTED_clean_linker_0, # of connection points: 2
#     Edge 31, Type (0, 1), BuildingBlock: XIVTED_clean_linker_0, # of connection points: 2
#     Edge 32, Type (0, 1), BuildingBlock: XIVTED_clean_linker_0, # of connection points: 2
#     Edge 33, Type (0, 1), BuildingBlock: XIVTED_clean_linker_0, # of connection points: 2
#     Edge 34, Type (0, 1), BuildingBlock: XIVTED_clean_linker_0, # of connection points: 2
#     Edge 35, Type (0, 1), BuildingBlock: XIVTED_clean_linker_0, # of connection points: 2
#     Edge 36, Type (0, 1), BuildingBlock: XIVTED_clean_linker_0, # of connection points: 2
#     Edge 37, Type (0, 1), BuildingBlock: XIVTED_clean_linker_0, # of connection points: 2
#     Edge 38, Type (0, 1), BuildingBlock: XIVTED_clean_linker_0, # of connection points: 2
#     Edge 39, Type (0, 1), BuildingBlock: XIVTED_clean_linker_0, # of connection points: 2
#     Edge 40, Type (0, 1), BuildingBlock: XIVTED_clean_linker_0, # of connection points: 2
#     Edge 41, Type (0, 1), BuildingBlock: XIVTED_clean_linker_0, # of connection points: 2
#     Edge 42, Type (0, 1), BuildingBlock: XIVTED_clean_linker_0, # of connection points: 2
#     Edge 43, Type (0, 1), BuildingBlock: XIVTED_clean_linker_0, # of connection points: 2
#     Edge 44, Type (0, 1), BuildingBlock: XIVTED_clean_linker_0, # of connection points: 2
#     Edge 45, Type (0, 1), BuildingBlock: XIVTED_clean_linker_0, # of connection points: 2
#     Edge 46, Type (0, 1), BuildingBlock: XIVTED_clean_linker_0, # of connection points: 2
#     Edge 47, Type (0, 1), BuildingBlock: XIVTED_clean_linker_0, # of connection points: 2
# Relax obj value: 0.143
# Max RMSD: 0.133
# Mean RMSD: 0.125
data_MOF--net-wbl--node1-NAHDIM_clean_sbu_0--node2-MIFKUJ_clean_linker_1--edge1-XIVTED_clean_linker_0
_symmetry_space_group_name_H-M    P1
_symmetry_Int_Tables_number       1
_symmetry_cell_setting            triclinic
loop_
_symmetry_equiv_pos_as_xyz
'x, y, z'
_cell_length_a     47.335576
_cell_length_b     45.767174
_cell_length_c     73.057691
_cell_angle_alpha  90.012578
_cell_angle_beta   89.973268
_cell_angle_gamma 90.014619
loop_
_atom_site_label
_atom_site_type_symbol
_atom_site_fract_x
_atom_site_fract_y
_atom_site_fract_z
_atom_type_partial_charge
H0 H 0.97588 0.07653 0.33535 0.0
H1 H 0.94218 0.10592 0.35266 0.0
H2 H 0.92997 0.03392 0.39022 0.0
H3 H 0.96196 0.0041 0.37206 0.0
H4 H 0.01488 0.00684 0.36484 0.0
H5 H 0.98999 0.05476 0.29437 0.0
H6 H 0.95065 0.07842 0.2783 0.0
H7 H 0.89139 0.02994 0.31151 0.0
H8 H 0.93071 0.00629 0.32739 0.0
H9 H 0.0124 0.93174 0.30393 0.0
H10 H 0.0438 0.89864 0.28696 0.0
H11 H 0.11418 0.95607 0.29791 0.0
H12 H 0.08288 0.98871 0.3152 0.0
H13 H 0.00245 0.994 0.29787 0.0
H14 H 0.03453 0.92597 0.34271 0.0
H15 H 0.06596 0.89742 0.36223 0.0
H16 H 0.10369 0.97722 0.38234 0.0
H17 H 0.07205 0.00567 0.36276 0.0
C18 C 0.97114 0.0379 0.35221 0.0
C19 C 0.9656 0.06695 0.34715 0.0
C20 C 0.94656 0.08388 0.35724 0.0
C21 C 0.9331 0.0723 0.37282 0.0
C22 C 0.93932 0.04342 0.37807 0.0
C23 C 0.95799 0.02641 0.36784 0.0
C24 C 0.99042 0.01924 0.34121 0.0
C25 C 0.01226 0.00425 0.35018 0.0
C26 C 0.98683 0.01536 0.32213 0.0
C27 C 0.96316 0.02897 0.3121 0.0
C28 C 0.96849 0.04918 0.29808 0.0
C29 C 0.94607 0.06278 0.28903 0.0
C30 C 0.91802 0.056 0.29368 0.0
C31 C 0.9128 0.03536 0.30753 0.0
C32 C 0.93519 0.02198 0.31667 0.0
C33 C 0.04545 0.96252 0.31079 0.0
C34 C 0.03458 0.93719 0.30258 0.0
C35 C 0.05245 0.91833 0.293 0.0
C36 C 0.08126 0.92498 0.29114 0.0
C37 C 0.09196 0.95067 0.29905 0.0
C38 C 0.0742 0.9692 0.30895 0.0
C39 C 0.02678 0.98179 0.32155 0.0
C40 C 0.00524 0.99697 0.31249 0.0
C41 C 0.03024 0.98525 0.34062 0.0
C42 C 0.05111 0.96795 0.35116 0.0
C43 C 0.05001 0.9373 0.351 0.0
C44 C 0.068 0.92099 0.36218 0.0
C45 C 0.08728 0.93505 0.37388 0.0
C46 C 0.08882 0.96575 0.37366 0.0
C47 C 0.07085 0.98204 0.36244 0.0
H48 H 0.99631 0.43353 0.55306 0.0
H49 H 0.96596 0.40092 0.53539 0.0
H50 H 0.89219 0.44295 0.55844 0.0
H51 H 0.92286 0.47472 0.57654 0.0
H52 H -0.00048 0.49518 0.55421 0.0
H53 H 0.97839 0.41457 0.59413 0.0
H54 H 0.9494 0.37992 0.61135 0.0
H55 H 0.91036 0.4518 0.64023 0.0
H56 H 0.93866 0.4863 0.62252 0.0
H57 H 0.99621 0.55271 0.62393 0.0
H58 H 0.02547 0.58377 0.64356 0.0
H59 H 0.10067 0.54769 0.61882 0.0
H60 H 0.07128 0.51655 0.59927 0.0
H61 H 0.99474 0.49265 0.62207 0.0
H62 H 0.00906 0.57254 0.5815 0.0
H63 H 0.03582 0.61011 0.56527 0.0
H64 H 0.08519 0.54316 0.53851 0.0
H65 H 0.05833 0.50548 0.55499 0.0
C66 C 0.9618 0.45624 0.56622 0.0
C67 C 0.97359 0.43577 0.55418 0.0
C68 C 0.95616 0.41729 0.544 0.0
C69 C 0.92655 0.41923 0.54548 0.0
C70 C 0.91485 0.44046 0.55719 0.0
C71 C 0.93233 0.45873 0.56749 0.0
C72 C 0.9803 0.47473 0.57768 0.0
C73 C -0.00117 0.49428 0.56905 0.0
C74 C 0.97876 0.47411 0.59701 0.0
C75 C 0.96052 0.45304 0.60694 0.0
C76 C 0.96323 0.42286 0.60395 0.0
C77 C 0.94685 0.40307 0.61393 0.0
C78 C 0.92755 0.41308 0.62716 0.0
C79 C 0.92469 0.44335 0.62996 0.0
C80 C 0.94105 0.46311 0.61997 0.0
C81 C 0.0316 0.53244 0.61012 0.0
C82 C 0.019 0.55156 0.62272 0.0
C83 C 0.03571 0.56941 0.63382 0.0
C84 C 0.06533 0.56815 0.63268 0.0
C85 C 0.0779 0.54896 0.62005 0.0
C86 C 0.06116 0.53132 0.60882 0.0
C87 C 0.0138 0.51318 0.59861 0.0
C88 C 0.99551 0.49342 0.60723 0.0
C89 C 0.01529 0.5138 0.5793 0.0
C90 C 0.0319 0.53629 0.56953 0.0
C91 C 0.02575 0.56595 0.57222 0.0
C92 C 0.04088 0.58736 0.56283 0.0
C93 C 0.06248 0.57951 0.55057 0.0
C94 C 0.06874 0.54978 0.54796 0.0
C95 C 0.05338 0.5283 0.55727 0.0
H96 H 0.49434 0.56458 0.86985 0.0
H97 H 0.46539 0.59637 0.889 0.0
H98 H 0.39009 0.56317 0.86277 0.0
H99 H 0.41927 0.53072 0.84394 0.0
H100 H 0.49448 0.50592 0.86902 0.0
H101 H 0.4782 0.58441 0.82609 0.0
H102 H 0.44759 0.61823 0.80942 0.0
H103 H 0.40564 0.54491 0.78381 0.0
H104 H 0.43659 0.51135 0.80033 0.0
H105 H 0.5217 0.42712 0.82785 0.0
H106 H 0.55941 0.39914 0.81324 0.0
H107 H 0.58473 0.47624 0.78318 0.0
H108 H 0.54852 0.50444 0.79883 0.0
H109 H 0.4946 0.50536 0.80113 0.0
H110 H 0.49772 0.44705 0.87078 0.0
H111 H 0.52875 0.41819 0.89036 0.0
H112 H 0.60158 0.45525 0.86316 0.0
H113 H 0.57032 0.48507 0.84418 0.0
C114 C 0.45897 0.54534 0.85546 0.0
C115 C 0.47159 0.56422 0.86818 0.0
C116 C 0.45502 0.58259 0.87899 0.0
C117 C 0.42543 0.58238 0.87736 0.0
C118 C 0.41282 0.56369 0.86443 0.0
C119 C 0.42946 0.5453 0.85358 0.0
C120 C 0.47683 0.52505 0.84469 0.0
C121 C 0.49446 0.50569 0.85417 0.0
C122 C 0.47685 0.52485 0.82535 0.0
C123 C 0.45935 0.54541 0.81461 0.0
C124 C 0.46242 0.57569 0.81684 0.0
C125 C 0.44492 0.59497 0.80732 0.0
C126 C 0.4241 0.58427 0.79533 0.0
C127 C 0.4217 0.55391 0.79273 0.0
C128 C 0.43925 0.53467 0.80224 0.0
C129 C 0.53272 0.46808 0.81481 0.0
C130 C 0.53547 0.43799 0.81816 0.0
C131 C 0.55685 0.42191 0.8096 0.0
C132 C 0.57549 0.43553 0.79724 0.0
C133 C 0.57134 0.4652 0.79301 0.0
C134 C 0.55034 0.48131 0.80178 0.0
C135 C 0.51271 0.48637 0.82546 0.0
C136 C 0.49452 0.50531 0.81598 0.0
C137 C 0.51257 0.48655 0.84486 0.0
C138 C 0.5317 0.46801 0.85593 0.0
C139 C 0.52038 0.4489 0.86903 0.0
C140 C 0.53817 0.4322 0.88009 0.0
C141 C 0.56769 0.43429 0.8783 0.0
C142 C 0.57896 0.45331 0.86504 0.0
C143 C 0.56113 0.47016 0.85404 0.0
H144 H 0.46583 0.94272 0.04528 0.0
H145 H 0.42869 0.91084 0.03353 0.0
H146 H 0.36609 0.96163 0.06259 0.0
H147 H 0.40348 0.99341 0.07438 0.0
H148 H 0.47885 -0.00011 0.0442 0.0
H149 H 0.45151 0.92949 0.08878 0.0
H150 H 0.42084 0.90213 0.10939 0.0
H151 H 0.40271 0.98162 0.13921 0.0
H152 H 0.43189 0.00909 0.11776 0.0
H153 H 0.51216 0.07858 0.08126 0.0
H154 H 0.54431 0.11054 0.09819 0.0
H155 H 0.57338 0.03637 0.12959 0.0
H156 H 0.54187 0.00448 0.11223 0.0
H157 H 0.48576 0.00647 0.11186 0.0
H158 H 0.49258 0.05708 0.03978 0.0
H159 H 0.52769 0.08439 0.02222 0.0
H160 H 0.5945 0.03688 0.04945 0.0
H161 H 0.55921 0.00996 0.06714 0.0
C162 C 0.43744 0.97013 0.0609 0.0
C163 C 0.44405 0.94734 0.04881 0.0
C164 C 0.42276 0.92918 0.04207 0.0
C165 C 0.39445 0.93359 0.04725 0.0
C166 C 0.38774 0.95741 0.05859 0.0
C167 C 0.40905 0.9756 0.0653 0.0
C168 C 0.46037 0.9868 0.0699 0.0
C169 C 0.48031 0.00137 0.05899 0.0
C170 C 0.46273 0.98811 0.08921 0.0
C171 C 0.44373 0.97144 0.10156 0.0
C172 C 0.44045 0.94112 0.09952 0.0
C173 C 0.42318 0.92542 0.1115 0.0
C174 C 0.40927 0.9396 0.12604 0.0
C175 C 0.41263 0.97 0.12802 0.0
C176 C 0.4296 0.98573 0.11588 0.0
C177 C 0.52473 0.03912 0.09544 0.0
C178 C 0.52588 0.06914 0.09154 0.0
C179 C 0.54407 0.08741 0.10134 0.0
C180 C 0.56135 0.07601 0.11527 0.0
C181 C 0.56065 0.0458 0.11879 0.0
C182 C 0.54246 0.02757 0.109 0.0
C183 C 0.50375 0.02012 0.0862 0.0
C184 C 0.48421 0.00502 0.09707 0.0
C185 C 0.50217 0.01773 0.06693 0.0
C186 C 0.52333 0.03186 0.05493 0.0
C187 C 0.51478 0.05226 0.04174 0.0
C188 C 0.53489 0.06774 0.03165 0.0
C189 C 0.56392 0.06294 0.03453 0.0
C190 C 0.57233 0.04144 0.04714 0.0
C191 C 0.55221 0.02601 0.05723 0.0
H192 H 0.02524 0.57491 0.92243 0.0
H193 H 0.05921 0.60691 0.90724 0.0
H194 H 0.08684 0.53433 0.87377 0.0
H195 H 0.05442 0.50223 0.8899 0.0
H196 H 4e-05 0.50271 0.88996 0.0
H197 H 0.00047 0.55557 0.95996 0.0
H198 H 0.03306 0.5828 0.97985 0.0
H199 H 0.10282 0.53214 0.95871 0.0
H200 H 0.07029 0.50535 0.93878 0.0
H201 H 0.98744 0.43452 0.95573 0.0
H202 H 0.95425 0.39953 0.96916 0.0
H203 H 0.886 0.4395 0.93896 0.0
H204 H 0.91911 0.47472 0.92583 0.0
H205 H 0.99212 0.49174 0.95731 0.0
H206 H 0.97506 0.42121 0.90886 0.0
H207 H 0.94951 0.39315 0.88558 0.0
H208 H 0.91827 0.47361 0.86219 0.0
H209 H 0.94384 0.50143 0.88539 0.0
C210 C 0.03745 0.53605 0.90746 0.0
C211 C 0.03914 0.56576 0.91214 0.0
C212 C 0.05833 0.58415 0.90324 0.0
C213 C 0.07587 0.5733 0.88922 0.0
C214 C 0.07419 0.54345 0.88471 0.0
C215 C 0.05533 0.52506 0.89378 0.0
C216 C 0.01624 0.51651 0.91609 0.0
C217 C -0.00173 0.50034 0.90469 0.0
C218 C 0.01386 0.51336 0.93527 0.0
C219 C 0.03312 0.52866 0.94791 0.0
C220 C 0.02277 0.55027 0.95976 0.0
C221 C 0.04133 0.56582 0.97101 0.0
C222 C 0.07035 0.55944 0.97081 0.0
C223 C 0.08049 0.53724 0.95926 0.0
C224 C 0.06202 0.52206 0.94783 0.0
C225 C 0.95581 0.45698 0.93959 0.0
C226 C 0.96528 0.43588 0.95212 0.0
C227 C 0.94635 0.41592 0.95978 0.0
C228 C 0.91764 0.41666 0.95496 0.0
C229 C 0.90812 0.43811 0.94265 0.0
C230 C 0.927 0.45823 0.93514 0.0
C231 C 0.97616 0.47751 0.93112 0.0
C232 C 0.99377 0.49412 0.94257 0.0
C233 C 0.97845 0.48072 0.91191 0.0
C234 C 0.96128 0.4634 0.89887 0.0
C235 C 0.96234 0.43274 0.89888 0.0
C236 C 0.94774 0.41674 0.88559 0.0
C237 C 0.93208 0.4312 0.87197 0.0
C238 C 0.93054 0.46187 0.8723 0.0
C239 C 0.94505 0.47779 0.88559 0.0
H240 H 0.50169 0.55766 0.20708 0.0
H241 H 0.46598 0.58582 0.22363 0.0
H242 H 0.40008 0.53928 0.19486 0.0
H243 H 0.43591 0.51134 0.1783 0.0
H244 H 0.51373 0.5 0.20453 0.0
H245 H 0.48592 0.57634 0.16335 0.0
H246 H 0.45496 0.60723 0.14478 0.0
H247 H 0.42542 0.53078 0.1158 0.0
H248 H 0.45585 0.5 0.13469 0.0
H249 H 0.51901 0.438 0.13824 0.0
H250 H 0.55089 0.40967 0.11877 0.0
H251 H 0.62179 0.45945 0.13921 0.0
H252 H 0.5896 0.48815 0.15835 0.0
H253 H 0.51208 0.50011 0.13658 0.0
H254 H 0.52585 0.42618 0.18698 0.0
H255 H 0.55899 0.39285 0.202 0.0
H256 H 0.61736 0.46427 0.2101 0.0
H257 H 0.5837 0.49771 0.19528 0.0
C258 C 0.47145 0.53278 0.19126 0.0
C259 C 0.47954 0.55334 0.20449 0.0
C260 C 0.4591 0.5693 0.214 0.0
C261 C 0.43019 0.56486 0.21049 0.0
C262 C 0.42217 0.54353 0.19766 0.0
C263 C 0.44261 0.52757 0.18819 0.0
C264 C 0.4931 0.51706 0.18044 0.0
C265 C 0.51361 0.50052 0.18968 0.0
C266 C 0.49277 0.51724 0.16106 0.0
C267 C 0.47306 0.53585 0.15046 0.0
C268 C 0.47246 0.56622 0.15317 0.0
C269 C 0.45495 0.58386 0.14245 0.0
C270 C 0.43776 0.57145 0.12881 0.0
C271 C 0.43812 0.54098 0.12634 0.0
C272 C 0.45568 0.52338 0.13702 0.0
C273 C 0.552 0.46498 0.14979 0.0
C274 C 0.54145 0.44263 0.13859 0.0
C275 C 0.55972 0.42634 0.1276 0.0
C276 C 0.58888 0.43227 0.1275 0.0
C277 C 0.59942 0.45449 0.13891 0.0
C278 C 0.58112 0.47072 0.14996 0.0
C279 C 0.53231 0.48309 0.16067 0.0
C280 C 0.51224 0.50001 0.15143 0.0
C281 C 0.53312 0.48352 0.17996 0.0
C282 C 0.55245 0.46424 0.19012 0.0
C283 C 0.54561 0.43468 0.19225 0.0
C284 C 0.56448 0.41576 0.20085 0.0
C285 C 0.59065 0.42608 0.20724 0.0
C286 C 0.59733 0.45583 0.20525 0.0
C287 C 0.57817 0.47489 0.1969 0.0
H288 H 0.49965 0.92039 0.38815 0.0
H289 H 0.46891 0.89001 0.36927 0.0
H290 H 0.39605 0.93676 0.38971 0.0
H291 H 0.42705 0.96665 0.40895 0.0
H292 H 0.50509 0.97977 0.38571 0.0
H293 H 0.47358 0.90886 0.42863 0.0
H294 H 0.43876 0.88127 0.44577 0.0
H295 H 0.4172 0.9594 0.47618 0.0
H296 H 0.44931 0.98745 0.45727 0.0
H297 H 0.50727 0.05402 0.4475 0.0
H298 H 0.53978 0.08688 0.4638 0.0
H299 H 0.60991 0.03187 0.44829 0.0
H300 H 0.57749 -0.00049 0.43173 0.0
H301 H 0.50083 0.99029 0.45321 0.0
H302 H 0.5255 0.06127 0.40752 0.0
H303 H 0.5545 0.09071 0.38686 0.0
H304 H 0.59035 0.01187 0.36405 0.0
H305 H 0.56139 0.98256 0.38481 0.0
C306 C 0.46561 0.94572 0.39994 0.0
C307 C 0.47703 0.92394 0.38864 0.0
C308 C 0.45943 0.9067 0.37779 0.0
C309 C 0.43002 0.91112 0.37784 0.0
C310 C 0.41856 0.93257 0.38949 0.0
C311 C 0.43623 0.94975 0.40044 0.0
C312 C 0.48473 0.96511 0.41042 0.0
C313 C 0.50435 0.98175 0.40051 0.0
C314 C 0.48325 0.96812 0.42971 0.0
C315 C 0.46349 0.95055 0.44112 0.0
C316 C 0.46076 0.92025 0.43862 0.0
C317 C 0.44118 0.90425 0.44883 0.0
C318 C 0.42464 0.91794 0.46239 0.0
C319 C 0.42863 0.94804 0.46552 0.0
C320 C 0.44747 0.96417 0.45486 0.0
C321 C 0.5401 0.02449 0.43843 0.0
C322 C 0.52965 0.04912 0.44765 0.0
C323 C 0.54816 0.06786 0.45685 0.0
C324 C 0.57722 0.06174 0.4573 0.0
C325 C 0.58753 0.03686 0.44823 0.0
C326 C 0.56913 0.01849 0.43875 0.0
C327 C 0.5207 0.00493 0.42842 0.0
C328 C 0.50131 0.98818 0.43842 0.0
C329 C 0.52225 0.00174 0.40924 0.0
C330 C 0.54145 0.01971 0.39781 0.0
C331 C 0.54005 0.05035 0.39836 0.0
C332 C 0.5566 0.06715 0.38652 0.0
C333 C 0.57461 0.05359 0.37378 0.0
C334 C 0.57639 0.02293 0.37354 0.0
C335 C 0.55994 0.00616 0.38543 0.0
H336 H 0.96675 0.04941 0.71016 0.0
H337 H 0.92689 0.07623 0.72301 0.0
H338 H 0.8707 0.0332 0.6849 0.0
H339 H 0.91095 0.00676 0.67192 0.0
H340 H 0.97981 0.99087 0.70531 0.0
H341 H 0.95809 0.07595 0.66786 0.0
H342 H 0.92837 0.10671 0.64841 0.0
H343 H 0.91897 0.03501 0.61032 0.0
H344 H 0.94746 0.00413 0.63023 0.0
H345 H 0.0212 0.92886 0.65848 0.0
H346 H 0.05625 0.90535 0.63883 0.0
H347 H 0.09497 0.98941 0.62862 0.0
H348 H 0.05923 0.01275 0.64782 0.0
H349 H 0.00121 0.00972 0.63988 0.0
H350 H 0.99135 0.93314 0.70105 0.0
H351 H 0.02054 0.89889 0.71822 0.0
H352 H 0.09408 0.9523 0.70743 0.0
H353 H 0.06467 0.98622 0.68991 0.0
C354 C 0.94182 0.02647 0.68995 0.0
C355 C 0.94576 0.04539 0.70481 0.0
C356 C 0.92289 0.0606 0.71219 0.0
C357 C 0.89558 0.05698 0.70491 0.0
C358 C 0.89151 0.03682 0.69062 0.0
C359 C 0.91444 0.02165 0.68322 0.0
C360 C 0.96663 0.01326 0.68083 0.0
C361 C 0.9845 0.995 0.69101 0.0
C362 C 0.97279 0.01875 0.66219 0.0
C363 C 0.95475 0.03765 0.65058 0.0
C364 C 0.94926 0.06678 0.65545 0.0
C365 C 0.9325 0.08442 0.64422 0.0
C366 C 0.92119 0.07332 0.62781 0.0
C367 C 0.92686 0.04415 0.623 0.0
C368 C 0.94342 0.02652 0.63428 0.0
C369 C 0.03765 0.97252 0.65454 0.0
C370 C 0.03756 0.94209 0.65224 0.0
C371 C 0.0577 0.92869 0.64105 0.0
C372 C 0.07832 0.94551 0.63199 0.0
C373 C 0.07906 0.97586 0.63507 0.0
C374 C 0.05879 0.98924 0.64613 0.0
C375 C 0.0142 0.98716 0.66429 0.0
C376 C 0.99658 0.00572 0.65421 0.0
C377 C 0.00816 0.98175 0.68292 0.0
C378 C 0.02589 0.96204 0.6941 0.0
C379 C 0.01372 0.93759 0.70253 0.0
C380 C 0.03044 0.91812 0.71243 0.0
C381 C 0.05968 0.92286 0.71424 0.0
C382 C 0.07172 0.94779 0.7061 0.0
C383 C 0.05495 0.96722 0.69612 0.0
C384 C 0.23802 0.66192 0.01807 0.0
O385 O 0.25697 0.64739 0.02752 0.0
O386 O 0.30726 0.67767 0.02968 0.0
Zn387 Zn 0.28683 0.69514 0.00815 0.0
O388 O 0.30346 0.67815 0.98516 0.0
C389 C 0.28582 0.75326 0.02256 0.0
O390 O 0.27406 0.73989 0.03654 0.0
O391 O 0.24569 0.68424 0.00899 0.0
C392 C 0.32386 0.69011 0.97669 0.0
O393 O 0.33444 0.71471 0.98294 0.0
C394 C 0.33132 0.68672 0.03488 0.0
O395 O 0.3433 0.70855 0.02615 0.0
O396 O 0.29217 0.73856 0.00842 0.0
C397 C 0.23698 0.80377 0.2418 0.0
O398 O 0.24648 0.80584 0.22495 0.0
O399 O 0.30829 0.80642 0.2275 0.0
Zn400 Zn 0.29427 0.78554 0.24993 0.0
O401 O 0.31742 0.80093 0.27091 0.0
C402 C 0.31305 0.7268 0.25838 0.0
O403 O 0.31896 0.73809 0.27446 0.0
O404 O 0.25325 0.79446 0.25433 0.0
C405 C 0.30762 0.80666 0.28671 0.0
O406 O 0.28083 0.80164 0.29019 0.0
C407 C 0.30639 0.83402 0.22606 0.0
O408 O 0.29408 0.84897 0.23919 0.0
O409 O 0.30135 0.74268 0.2463 0.0
C410 C 0.25835 0.81878 0.51727 0.0
O411 O 0.24569 0.8278 0.53223 0.0
O412 O 0.18718 0.82136 0.52991 0.0
Zn413 Zn 0.20178 0.80143 0.50718 0.0
O414 O 0.18467 0.82265 0.48577 0.0
C415 C 0.16225 0.75605 0.50452 0.0
O416 O 0.14672 0.77888 0.50035 0.0
O417 O 0.24414 0.80524 0.50519 0.0
C418 C 0.18627 0.8148 0.46912 0.0
O419 O 0.19974 0.79063 0.46489 0.0
C420 C 0.18419 0.84896 0.52992 0.0
O421 O 0.19155 0.86386 0.5153 0.0
O422 O 0.1884 0.75975 0.50772 0.0
C423 C 0.25405 0.68381 0.74804 0.0
O424 O 0.24153 0.67394 0.73323 0.0
O425 O 0.18144 0.67716 0.73769 0.0
Zn426 Zn 0.19714 0.6996 0.75925 0.0
O427 O 0.18233 0.68065 0.78219 0.0
C428 C 0.15856 0.747 0.76136 0.0
O429 O 0.1419 0.72563 0.76664 0.0
O430 O 0.23941 0.69657 0.76024 0.0
C431 C 0.17839 0.69393 0.79726 0.0
O432 O 0.18385 0.722 0.79844 0.0
C433 C 0.17136 0.6898 0.72363 0.0
O434 O 0.17184 0.71845 0.72268 0.0
O435 O 0.18424 0.74142 0.7577 0.0
C436 C 0.73893 0.17364 0.50669 0.0
O437 O 0.75344 0.16365 0.52067 0.0
O438 O 0.80955 0.17727 0.51875 0.0
Zn439 Zn 0.79317 0.19714 0.49645 0.0
O440 O 0.81069 0.17771 0.47448 0.0
C441 C 0.82812 0.24739 0.49307 0.0
O442 O 0.84579 0.22733 0.48722 0.0
O443 O 0.75116 0.18999 0.49505 0.0
C444 C 0.81392 0.18931 0.45882 0.0
O445 O 0.8055 0.2163 0.45605 0.0
C446 C 0.82096 0.19064 0.53209 0.0
O447 O 0.82234 0.2193 0.53191 0.0
O448 O 0.80312 0.23994 0.49741 0.0
C449 C 0.74851 0.32923 0.75462 0.0
O450 O 0.77012 0.34491 0.74907 0.0
O451 O 0.80551 0.30284 0.72863 0.0
Zn452 Zn 0.79156 0.2877 0.75293 0.0
O453 O 0.81615 0.3039 0.77321 0.0
C454 C 0.78468 0.23001 0.73893 0.0
O455 O 0.77151 0.24443 0.72593 0.0
O456 O 0.75192 0.30198 0.7571 0.0
C457 C 0.83141 0.32638 0.77052 0.0
O458 O 0.83158 0.33861 0.75427 0.0
C459 C 0.82854 0.29358 0.72182 0.0
O460 O 0.84271 0.27315 0.73049 0.0
O461 O 0.79405 0.24399 0.75267 0.0
C462 C 0.7593 0.29849 0.00462 0.0
O463 O 0.75363 0.2988 0.02223 0.0
O464 O 0.68816 0.30659 0.02295 0.0
Zn465 Zn 0.69888 0.28677 0.99933 0.0
O466 O 0.67577 0.30481 0.97906 0.0
C467 C 0.67722 0.22955 0.98955 0.0
O468 O 0.67082 0.24221 0.97396 0.0
O469 O 0.73975 0.29277 0.99328 0.0
C470 C 0.68526 0.32708 0.97066 0.0
O471 O 0.71003 0.3377 0.97528 0.0
C472 C 0.69402 0.33307 0.02655 0.0
O473 O 0.70875 0.34843 0.01474 0.0
O474 O 0.68985 0.24416 0.00187 0.0
C475 C 0.74297 0.15035 0.24579 0.0
O476 O 0.72167 0.13381 0.24072 0.0
O477 O 0.68463 0.17553 0.22033 0.0
Zn478 Zn 0.69826 0.18923 0.24492 0.0
O479 O 0.6756 0.16842 0.26411 0.0
C480 C 0.7023 0.25065 0.23617 0.0
O481 O 0.71956 0.24142 0.22333 0.0
O482 O 0.7387 0.17747 0.2483 0.0
C483 C 0.67823 0.17475 0.28096 0.0
O484 O 0.69555 0.19582 0.28578 0.0
C485 C 0.66174 0.18534 0.21367 0.0
O486 O 0.6476 0.20532 0.22278 0.0
O487 O 0.69188 0.23232 0.24733 0.0
H488 H 0.11724 0.93769 0.26312 0.0
H489 H 0.20545 0.7932 0.27242 0.0
H490 H 0.08889 0.86679 0.29737 0.0
H491 H 0.20652 0.84435 0.2228 0.0
H492 H 0.16364 0.8202 0.28256 0.0
H493 H 0.15157 0.90472 0.2488 0.0
C494 C 0.11818 0.91509 0.26749 0.0
C495 C 0.10042 0.90483 0.28143 0.0
C496 C 0.17278 0.82516 0.26932 0.0
C497 C 0.1396 0.86727 0.26537 0.0
C498 C 0.19664 0.80983 0.26356 0.0
C499 C 0.20951 0.81669 0.2468 0.0
C500 C 0.16219 0.84792 0.25844 0.0
C501 C 0.19722 0.83836 0.23581 0.0
C502 C 0.13758 0.89629 0.25928 0.0
C503 C 0.10224 0.8754 0.2866 0.0
N504 N 0.1745 0.8536 0.24197 0.0
N505 N 0.12182 0.85768 0.27875 0.0
H506 H 0.11975 0.58424 0.54563 0.0
H507 H 0.10725 0.74134 0.49831 0.0
H508 H 0.04099 0.62707 0.53293 0.0
H509 H 0.18617 0.70544 0.51757 0.0
H510 H 0.08366 0.69592 0.50656 0.0
H511 H 0.14528 0.62484 0.53122 0.0
C512 C 0.10786 0.60202 0.53961 0.0
C513 C 0.07826 0.60252 0.54063 0.0
C514 C 0.10618 0.69785 0.50887 0.0
C515 C 0.10719 0.6489 0.52424 0.0
C516 C 0.1197 0.7238 0.50414 0.0
C517 C 0.14868 0.72735 0.50748 0.0
C518 C 0.12169 0.67523 0.51708 0.0
C519 C 0.16375 0.70372 0.51489 0.0
C520 C 0.12241 0.62521 0.53148 0.0
C521 C 0.06385 0.62611 0.53271 0.0
N522 N 0.15001 0.67872 0.51961 0.0
N523 N 0.07845 0.64839 0.52494 0.0
H524 H 0.39862 0.63256 0.81008 0.0
H525 H 0.28961 0.64941 0.72768 0.0
H526 H 0.40306 0.58191 0.76029 0.0
H527 H 0.28582 0.69948 0.77773 0.0
H528 H 0.33531 0.62985 0.73725 0.0
H529 H 0.36169 0.66246 0.79638 0.0
C530 C 0.39218 0.62801 0.79614 0.0
C531 C 0.40381 0.60447 0.78639 0.0
C532 C 0.32465 0.64541 0.74602 0.0
C533 C 0.36101 0.63836 0.77073 0.0
C534 C 0.29857 0.65666 0.74054 0.0
C535 C 0.28364 0.67574 0.75206 0.0
C536 C 0.33579 0.65326 0.76315 0.0
C537 C 0.29639 0.68451 0.76851 0.0
C538 C 0.37092 0.64501 0.78836 0.0
C539 C 0.39429 0.59944 0.76846 0.0
N540 N 0.32155 0.67293 0.77366 0.0
N541 N 0.37326 0.61606 0.76127 0.0
H542 H 0.35226 0.91124 0.06868 0.0
H543 H 0.31302 0.78648 0.99686 0.0
H544 H 0.38703 0.90622 0.01414 0.0
H545 H 0.28077 0.78974 0.05212 0.0
H546 H 0.33443 0.83444 0.00134 0.0
H547 H 0.32018 0.87127 0.06121 0.0
C548 C 0.35279 0.90211 0.05501 0.0
C549 C 0.37254 0.91195 0.04205 0.0
C550 C 0.32241 0.82482 0.01243 0.0
C551 C 0.33619 0.86574 0.03352 0.0
C552 C 0.31013 0.79743 0.00987 0.0
C553 C 0.29539 0.78388 0.02423 0.0
C554 C 0.32006 0.83874 0.02949 0.0
C555 C 0.29217 0.79923 0.04073 0.0
C556 C 0.33458 0.87912 0.05079 0.0
C557 C 0.37249 0.89898 0.02464 0.0
N558 N 0.30468 0.8257 0.04297 0.0
N559 N 0.3548 0.87637 0.02094 0.0
H560 H 0.07462 0.61882 0.97346 0.0
H561 H 0.21703 0.6109 0.03195 0.0
H562 H 0.1118 0.53885 0.99328 0.0
H563 H 0.19353 0.68535 0.99901 0.0
H564 H 0.17215 0.58774 0.02426 0.0
H565 H 0.11189 0.64656 0.98902 0.0
C566 C 0.09035 0.60718 0.98137 0.0
C567 C 0.09041 0.57656 0.98198 0.0
C568 C 0.1767 0.60929 0.01889 0.0
C569 C 0.13291 0.60795 0.99969 0.0
C570 C 0.20229 0.62258 0.02331 0.0
C571 C 0.20926 0.64989 0.01584 0.0
C572 C 0.15791 0.62343 0.00698 0.0
C573 C 0.18917 0.6641 0.00486 0.0
C574 C 0.11165 0.62297 0.99015 0.0
C575 C 0.11131 0.56245 0.99229 0.0
N576 N 0.16449 0.65056 0.0006 0.0
N577 N 0.13183 0.57826 0.00067 0.0
H578 H 0.42804 0.58322 0.24626 0.0
H579 H 0.30362 0.69645 0.2267 0.0
H580 H 0.38336 0.58949 0.19492 0.0
H581 H 0.34796 0.69107 0.27822 0.0
H582 H 0.32799 0.65246 0.21645 0.0
H583 H 0.39491 0.61824 0.25963 0.0
C584 C 0.41117 0.59184 0.23783 0.0
C585 C 0.40864 0.58362 0.21939 0.0
C586 C 0.33217 0.66068 0.23009 0.0
C587 C 0.37059 0.62358 0.23461 0.0
C588 C 0.31821 0.6858 0.23596 0.0
C589 C 0.32408 0.69772 0.25325 0.0
C590 C 0.35233 0.64748 0.24151 0.0
C591 C 0.34298 0.68281 0.26472 0.0
C592 C 0.39217 0.61169 0.2455 0.0
C593 C 0.38605 0.59505 0.20921 0.0
N594 N 0.35672 0.65867 0.25855 0.0
N595 N 0.36809 0.61464 0.2169 0.0
H596 H 0.42416 0.85917 0.47181 0.0
H597 H 0.2847 0.86673 0.5312 0.0
H598 H 0.37449 0.93819 0.47681 0.0
H599 H 0.29641 0.79605 0.49279 0.0
H600 H 0.32813 0.88938 0.51983 0.0
H601 H 0.38627 0.83231 0.4872 0.0
C602 C 0.40551 0.87102 0.47606 0.0
C603 C 0.40277 0.90124 0.4728 0.0
C604 C 0.32136 0.86865 0.51417 0.0
C605 C 0.36017 0.87062 0.49121 0.0
C606 C 0.29674 0.85561 0.52068 0.0
C607 C 0.28686 0.82961 0.51278 0.0
C608 C 0.33647 0.85525 0.49998 0.0
C609 C 0.30324 0.81625 0.49911 0.0
C610 C 0.38408 0.85561 0.485 0.0
C611 C 0.37822 0.91522 0.47926 0.0
N612 N 0.32733 0.82928 0.49307 0.0
N613 N 0.35801 0.89983 0.48822 0.0
H614 H 0.11268 0.90367 0.70483 0.0
H615 H 0.1078 0.76866 0.77273 0.0
H616 H 0.04743 0.89217 0.74553 0.0
H617 H 0.1822 0.79179 0.74176 0.0
H618 H 0.08617 0.81494 0.76385 0.0
H619 H 0.13957 0.86431 0.71908 0.0
C620 C 0.10418 0.89322 0.71694 0.0
C621 C 0.07756 0.90107 0.72386 0.0
C622 C 0.10736 0.81007 0.75916 0.0
C623 C 0.10805 0.85555 0.74002 0.0
C624 C 0.11969 0.78362 0.76419 0.0
C625 C 0.14672 0.77627 0.75782 0.0
C626 C 0.122 0.82914 0.74746 0.0
C627 C 0.16127 0.79656 0.74693 0.0
C628 C 0.11952 0.87062 0.72502 0.0
C629 C 0.06753 0.88642 0.73945 0.0
N630 N 0.14857 0.82193 0.74188 0.0
N631 N 0.08263 0.86417 0.74688 0.0
H632 H 0.62872 0.45668 0.79118 0.0
H633 H 0.69824 0.30399 0.76507 0.0
H634 H 0.57911 0.37778 0.7864 0.0
H635 H 0.73741 0.38759 0.75468 0.0
H636 H 0.6549 0.32944 0.77435 0.0
H637 H 0.66941 0.43059 0.77931 0.0
C638 C 0.62619 0.43395 0.7874 0.0
C639 C 0.60022 0.41956 0.78964 0.0
C640 C 0.67296 0.34211 0.7699 0.0
C641 C 0.64731 0.3892 0.77643 0.0
C642 C 0.69769 0.32764 0.76464 0.0
C643 C 0.72152 0.3437 0.75918 0.0
C644 C 0.67228 0.37279 0.76987 0.0
C645 C 0.71962 0.37428 0.75883 0.0
C646 C 0.64959 0.41898 0.78072 0.0
C647 C 0.59872 0.38975 0.78505 0.0
N648 N 0.69553 0.38779 0.76423 0.0
N649 N 0.62199 0.3755 0.77872 0.0
H650 H 0.56453 0.08319 0.99909 0.0
H651 H 0.68897 0.19609 0.01957 0.0
H652 H 0.61155 0.08656 0.04967 0.0
H653 H 0.64065 0.1959 0.96946 0.0
H654 H 0.66577 0.15083 0.02866 0.0
H655 H 0.59666 0.11955 0.98606 0.0
C656 C 0.58174 0.09139 0.0074 0.0
C657 C 0.58517 0.082 0.02556 0.0
C658 C 0.66042 0.16049 0.01558 0.0
C659 C 0.62204 0.12349 0.01073 0.0
C660 C 0.67369 0.18635 0.01037 0.0
C661 C 0.66641 0.20005 0.99386 0.0
C662 C 0.63953 0.1483 0.00427 0.0
C663 C 0.64672 0.18623 0.98239 0.0
C664 C 0.60014 0.11204 0.99993 0.0
C665 C 0.60815 0.09296 0.03558 0.0
N666 N 0.63367 0.16129 0.98793 0.0
N667 N 0.6255 0.11332 0.0281 0.0
H668 H 0.91165 0.11419 0.28597 0.0
H669 H 0.75751 0.09287 0.24313 0.0
H670 H 0.87013 0.03078 0.28014 0.0
H671 H 0.79126 0.17717 0.25821 0.0
H672 H 0.80165 0.07016 0.25262 0.0
H673 H 0.8706 0.13791 0.27194 0.0
C674 C 0.894 0.10087 0.28156 0.0
C675 C 0.89414 0.07052 0.28431 0.0
C676 C 0.79949 0.09365 0.25378 0.0
C677 C 0.84725 0.09741 0.26836 0.0
C678 C 0.77428 0.10666 0.24832 0.0
C679 C 0.77058 0.13695 0.25004 0.0
C680 C 0.82124 0.111 0.26101 0.0
C681 C 0.79316 0.15371 0.25676 0.0
C682 C 0.87056 0.11441 0.27366 0.0
C683 C 0.87068 0.05429 0.2785 0.0
N684 N 0.81751 0.14047 0.26211 0.0
N685 N 0.84817 0.06794 0.27083 0.0
H686 H 0.87732 0.39374 0.55739 0.0
H687 H 0.87573 0.27359 0.47991 0.0
H688 H 0.93366 0.3966 0.51088 0.0
H689 H 0.80482 0.28826 0.51592 0.0
H690 H 0.89662 0.31944 0.49038 0.0
H691 H 0.84963 0.35623 0.54196 0.0
C692 C 0.88367 0.38689 0.54381 0.0
C693 C 0.9081 0.39827 0.53553 0.0
C694 C 0.8763 0.31287 0.4958 0.0
C695 C 0.87671 0.35471 0.51795 0.0
C696 C 0.86439 0.28667 0.48985 0.0
C697 C 0.83865 0.277 0.49719 0.0
C698 C 0.86261 0.32923 0.50943 0.0
C699 C 0.82475 0.29489 0.50993 0.0
C700 C 0.86786 0.36533 0.53504 0.0
C701 C 0.91541 0.38803 0.51802 0.0
N702 N 0.83713 0.31994 0.51587 0.0
N703 N 0.89999 0.3666 0.50991 0.0
H704 H 0.5834 0.12081 0.4535 0.0
H705 H 0.71167 0.12931 0.52443 0.0
H706 H 0.61582 0.04668 0.48322 0.0
H707 H 0.70166 0.19046 0.47989 0.0
H708 H 0.6685 0.10459 0.51474 0.0
H709 H 0.61924 0.15186 0.46819 0.0
C710 C 0.59785 0.11123 0.46331 0.0
C711 C 0.59695 0.08121 0.46711 0.0
C712 C 0.67561 0.12363 0.50723 0.0
C713 C 0.63751 0.11635 0.48394 0.0
C714 C 0.70017 0.13786 0.51279 0.0
C715 C 0.71053 0.16175 0.50278 0.0
C716 C 0.66114 0.13348 0.49166 0.0
C717 C 0.69461 0.17191 0.48787 0.0
C718 C 0.61827 0.12885 0.4716 0.0
C719 C 0.61611 0.0697 0.47981 0.0
N720 N 0.67077 0.15757 0.48266 0.0
N721 N 0.63565 0.0873 0.48778 0.0
H722 H 0.85459 0.08302 0.68409 0.0
H723 H 0.81188 0.19367 0.76292 0.0
H724 H 0.88338 0.07507 0.73993 0.0
H725 H 0.77703 0.19635 0.70835 0.0
H726 H 0.83278 0.14619 0.75602 0.0
H727 H 0.82074 0.11996 0.69383 0.0
C728 C 0.85342 0.08856 0.69848 0.0
C729 C 0.87215 0.07613 0.71117 0.0
C730 C 0.82022 0.15695 0.74563 0.0
C731 C 0.83379 0.11905 0.72236 0.0
C732 C 0.80825 0.18408 0.74957 0.0
C733 C 0.79308 0.19925 0.73608 0.0
C734 C 0.81722 0.14502 0.72802 0.0
C735 C 0.78883 0.18561 0.7191 0.0
C736 C 0.83417 0.10986 0.70402 0.0
C737 C 0.86981 0.08455 0.7296 0.0
N738 N 0.80121 0.15947 0.71546 0.0
N739 N 0.85127 0.10575 0.73459 0.0
H740 H 0.91253 0.39868 0.9906 0.0
H741 H 0.7777 0.29915 0.96924 0.0
H742 H 0.87731 0.38557 0.93676 0.0
H743 H 0.80302 0.32301 0.02403 0.0
H744 H 0.81933 0.32382 0.95726 0.0
H745 H 0.87739 0.36474 0.00311 0.0
C746 C 0.89756 0.38842 0.98141 0.0
C747 C 0.89758 0.39512 0.96266 0.0
C748 C 0.81595 0.32346 0.97192 0.0
C749 C 0.8575 0.35642 0.97681 0.0
C750 C 0.7922 0.30928 0.97879 0.0
C751 C 0.78665 0.30935 0.99767 0.0
C752 C 0.83432 0.33793 0.98396 0.0
C753 C 0.80637 0.3226 0.00937 0.0
C754 C 0.8775 0.36917 0.98855 0.0
C755 C 0.87769 0.38138 0.95135 0.0
N756 N 0.82922 0.33667 0.00231 0.0
N757 N 0.8584 0.36277 0.95861 0.0
H758 H 0.64639 0.41953 0.19835 0.0
H759 H 0.66256 0.27488 0.2587 0.0
H760 H 0.58145 0.3852 0.23375 0.0
H761 H 0.71655 0.29522 0.21277 0.0
H762 H 0.63905 0.32187 0.25485 0.0
H763 H 0.67824 0.38056 0.20862 0.0
C764 C 0.63906 0.4041 0.20854 0.0
C765 C 0.61124 0.40531 0.21511 0.0
C766 C 0.65626 0.31619 0.24575 0.0
C767 C 0.64733 0.36086 0.22682 0.0
C768 C 0.66978 0.28939 0.24796 0.0
C769 C 0.69126 0.28086 0.23583 0.0
C770 C 0.66429 0.33468 0.23134 0.0
C771 C 0.69986 0.30074 0.22229 0.0
C772 C 0.65715 0.38183 0.2143 0.0
C773 C 0.60266 0.38473 0.22819 0.0
N774 N 0.68613 0.32663 0.22028 0.0
N775 N 0.62059 0.36324 0.23354 0.0
H776 H 0.11487 0.88288 0.3683 0.0
H777 H 0.16002 0.86746 0.47341 0.0
H778 H 0.09803 0.9478 0.40976 0.0
H779 H 0.1822 0.80379 0.4322 0.0
H780 H 0.13772 0.89722 0.44991 0.0
H781 H 0.14016 0.85368 0.39112 0.0
C782 C 0.11654 0.89103 0.38218 0.0
C783 C 0.1043 0.91785 0.38712 0.0
C784 C 0.1475 0.87678 0.44595 0.0
C785 C 0.13322 0.8846 0.41325 0.0
C786 C 0.16022 0.8597 0.4594 0.0
C787 C 0.17296 0.833 0.45479 0.0
C788 C 0.14734 0.86714 0.42771 0.0
C789 C 0.17261 0.8242 0.43638 0.0
C790 C 0.13106 0.8744 0.39517 0.0
C791 C 0.10742 0.92748 0.40525 0.0
N792 N 0.15991 0.8412 0.4235 0.0
N793 N 0.12143 0.91082 0.41764 0.0
H794 H 0.11149 0.55135 0.65259 0.0
H795 H 0.13827 0.70969 0.6956 0.0
H796 H 0.05923 0.62621 0.64075 0.0
H797 H 0.17331 0.63056 0.71835 0.0
H798 H 0.11394 0.6805 0.67243 0.0
H799 H 0.13921 0.5813 0.67377 0.0
C800 C 0.10603 0.57417 0.65434 0.0
C801 C 0.083 0.58633 0.64496 0.0
C802 C 0.12702 0.66955 0.68247 0.0
C803 C 0.11451 0.62063 0.66916 0.0
C804 C 0.14101 0.6862 0.69565 0.0
C805 C 0.15775 0.67252 0.70898 0.0
C806 C 0.13001 0.63904 0.68248 0.0
C807 C 0.16048 0.64199 0.7084 0.0
C808 C 0.12172 0.59117 0.6665 0.0
C809 C 0.07664 0.61592 0.64787 0.0
N810 N 0.14675 0.62627 0.69536 0.0
N811 N 0.09233 0.63208 0.6597 0.0
H812 H 0.4347 0.63895 0.88823 0.0
H813 H 0.30768 0.63875 0.96056 0.0
H814 H 0.37645 0.56718 0.89499 0.0
H815 H 0.36843 0.70872 0.95575 0.0
H816 H 0.33006 0.61417 0.93469 0.0
H817 H 0.40815 0.66675 0.91103 0.0
C818 C 0.41626 0.62907 0.89447 0.0
C819 C 0.40793 0.60058 0.8898 0.0
C820 C 0.33843 0.63496 0.93923 0.0
C821 C 0.37736 0.63234 0.91587 0.0
C822 C 0.32565 0.64903 0.95402 0.0
C823 C 0.33632 0.67576 0.96043 0.0
C824 C 0.36208 0.64767 0.93078 0.0
C825 C 0.35958 0.68808 0.95135 0.0
C826 C 0.40106 0.64499 0.90744 0.0
C827 C 0.38355 0.58912 0.89807 0.0
N828 N 0.37177 0.67386 0.93704 0.0
N829 N 0.36926 0.60495 0.91079 0.0
H830 H 0.41974 0.88472 0.13966 0.0
H831 H 0.29995 0.89124 0.2159 0.0
H832 H 0.36003 0.95586 0.14336 0.0
H833 H 0.34184 0.8113 0.20015 0.0
H834 H 0.32321 0.91632 0.19043 0.0
H835 H 0.39274 0.85821 0.16269 0.0
C836 C 0.40078 0.89468 0.14511 0.0
C837 C 0.39225 0.92268 0.1395 0.0
C838 C 0.32714 0.89325 0.19249 0.0
C839 C 0.36157 0.89258 0.1663 0.0
C840 C 0.31395 0.87894 0.20705 0.0
C841 C 0.31906 0.84917 0.2102 0.0
C842 C 0.34584 0.87774 0.18116 0.0
C843 C 0.33729 0.83428 0.19825 0.0
C844 C 0.38546 0.87955 0.15837 0.0
C845 C 0.36777 0.93461 0.14746 0.0
N846 N 0.35021 0.84878 0.18435 0.0
N847 N 0.35341 0.91958 0.16053 0.0
H848 H 0.12844 0.56148 0.87494 0.0
H849 H 0.14877 0.71609 0.82632 0.0
H850 H 0.06641 0.63044 0.87909 0.0
H851 H 0.18097 0.63542 0.80394 0.0
H852 H 0.12647 0.68824 0.85118 0.0
H853 H 0.15606 0.59212 0.85424 0.0
C854 C 0.1206 0.58304 0.87159 0.0
C855 C 0.09469 0.59309 0.87858 0.0
C856 C 0.13862 0.67677 0.84087 0.0
C857 C 0.12673 0.6285 0.85527 0.0
C858 C 0.1514 0.69259 0.82676 0.0
C859 C 0.16651 0.67795 0.81301 0.0
C860 C 0.14153 0.64627 0.84138 0.0
C861 C 0.16924 0.64749 0.81418 0.0
C862 C 0.1365 0.60054 0.85985 0.0
C863 C 0.08625 0.6217 0.87417 0.0
N864 N 0.1569 0.63264 0.82814 0.0
N865 N 0.10215 0.63836 0.86272 0.0
H866 H 0.38352 0.56213 0.11703 0.0
H867 H 0.38311 0.69987 0.0495 0.0
H868 H 0.45257 0.62335 0.11276 0.0
H869 H 0.3133 0.63972 0.0549 0.0
H870 H 0.40801 0.67354 0.07371 0.0
H871 H 0.3566 0.5916 0.09529 0.0
C872 C 0.393 0.5818 0.11153 0.0
C873 C 0.4204 0.5902 0.11665 0.0
C874 C 0.38719 0.66619 0.06965 0.0
C875 C 0.38967 0.62414 0.0918 0.0
C876 C 0.37296 0.68121 0.05582 0.0
C877 C 0.34613 0.67191 0.05009 0.0
C878 C 0.37455 0.64162 0.07778 0.0
C879 C 0.33399 0.64763 0.05882 0.0
C880 C 0.37758 0.5987 0.09918 0.0
C881 C 0.43144 0.61617 0.10933 0.0
N882 N 0.34834 0.63326 0.07216 0.0
N883 N 0.41611 0.63211 0.09719 0.0
H884 H 0.37701 0.88836 0.3842 0.0
H885 H 0.36328 0.82148 0.2833 0.0
H886 H 0.44104 0.89586 0.34234 0.0
H887 H 0.29418 0.82263 0.32191 0.0
H888 H 0.39308 0.84556 0.30588 0.0
H889 H 0.34712 0.86166 0.36252 0.0
C890 C 0.38478 0.88445 0.37047 0.0
C891 C 0.41166 0.89431 0.36513 0.0
C892 C 0.37142 0.84053 0.30946 0.0
C893 C 0.3777 0.86355 0.34035 0.0
C894 C 0.35436 0.8267 0.29657 0.0
C895 C 0.32612 0.82011 0.30068 0.0
C896 C 0.36024 0.84785 0.32667 0.0
C897 C 0.31581 0.82737 0.31813 0.0
C898 C 0.36776 0.8691 0.35814 0.0
C899 C 0.42074 0.88827 0.34722 0.0
N900 N 0.33287 0.84092 0.33049 0.0
N901 N 0.40381 0.87334 0.33552 0.0
H902 H 0.10434 0.89167 0.63339 0.0
H903 H 0.17195 0.90704 0.53338 0.0
H904 H 0.0956 0.968 0.5991 0.0
H905 H 0.16809 0.82535 0.56284 0.0
H906 H 0.14916 0.93128 0.55918 0.0
H907 H 0.13259 0.86849 0.60937 0.0
C908 C 0.1084 0.90361 0.62087 0.0
C909 C 0.09747 0.93185 0.6183 0.0
C910 C 0.15337 0.90806 0.56004 0.0
C911 C 0.13001 0.90554 0.59085 0.0
C912 C 0.16644 0.8942 0.54531 0.0
C913 C 0.17176 0.86406 0.54589 0.0
C914 C 0.14559 0.89173 0.57552 0.0
C915 C 0.16423 0.8486 0.56176 0.0
C916 C 0.12462 0.89039 0.60719 0.0
C917 C 0.10387 0.94641 0.60188 0.0
N918 N 0.15143 0.86259 0.57593 0.0
N919 N 0.11959 0.93306 0.58879 0.0
H920 H 0.61714 0.45234 0.89427 0.0
H921 H 0.63485 0.30921 0.95587 0.0
H922 H 0.56112 0.37806 0.89084 0.0
H923 H 0.69739 0.37769 0.95246 0.0
H924 H 0.60705 0.33427 0.93241 0.0
H925 H 0.64663 0.42532 0.91574 0.0
C926 C 0.61118 0.43023 0.89785 0.0
C927 C 0.58653 0.41751 0.89072 0.0
C928 C 0.62691 0.34373 0.93676 0.0
C929 C 0.62002 0.38658 0.91564 0.0
C930 C 0.64276 0.32947 0.95017 0.0
C931 C 0.66845 0.34142 0.95618 0.0
C932 C 0.63673 0.37021 0.92939 0.0
C933 C 0.67771 0.36768 0.94827 0.0
C934 C 0.62796 0.41486 0.91022 0.0
C935 C 0.57966 0.38894 0.89619 0.0
N936 N 0.66181 0.38124 0.93535 0.0
N937 N 0.59624 0.3745 0.90837 0.0
H938 H 0.54656 0.12931 0.12935 0.0
H939 H 0.68375 0.14122 0.1927 0.0
H940 H 0.61523 0.06731 0.12808 0.0
H941 H 0.61265 0.20006 0.19613 0.0
H942 H 0.66164 0.1174 0.16645 0.0
H943 H 0.57325 0.15905 0.15102 0.0
C944 C 0.56745 0.12216 0.1334 0.0
C945 C 0.57859 0.09565 0.12697 0.0
C946 C 0.65097 0.13566 0.17286 0.0
C947 C 0.6091 0.1294 0.15205 0.0
C948 C 0.6636 0.14931 0.18784 0.0
C949 C 0.64989 0.1725 0.19675 0.0
C950 C 0.62442 0.14522 0.16673 0.0
C951 C 0.62388 0.18212 0.18978 0.0
C952 C 0.5826 0.13906 0.14589 0.0
C953 C 0.60562 0.08734 0.13292 0.0
N954 N 0.6119 0.1683 0.17527 0.0
N955 N 0.61987 0.10405 0.14521 0.0
H956 H 0.88471 0.0542 0.39026 0.0
H957 H 0.84163 0.21104 0.42881 0.0
H958 H 0.93501 0.13136 0.3802 0.0
H959 H 0.81996 0.13029 0.45591 0.0
H960 H 0.86884 0.18308 0.40616 0.0
H961 H 0.85372 0.08308 0.40986 0.0
C962 C 0.88937 0.07716 0.39218 0.0
C963 C 0.91289 0.09018 0.38372 0.0
C964 C 0.85796 0.17158 0.41703 0.0
C965 C 0.87685 0.12351 0.40577 0.0
C966 C 0.84236 0.18744 0.42987 0.0
C967 C 0.8287 0.17293 0.44429 0.0
C968 C 0.85941 0.14103 0.41847 0.0
C969 C 0.83038 0.14235 0.44509 0.0
C970 C 0.8715 0.09364 0.40328 0.0
C971 C 0.91711 0.12033 0.38628 0.0
N972 N 0.84543 0.1274 0.43234 0.0
N973 N 0.8993 0.13597 0.39712 0.0
H974 H 0.94615 0.3619 0.6425 0.0
H975 H 0.8057 0.33778 0.70135 0.0
H976 H 0.8722 0.41664 0.6382 0.0
H977 H 0.87924 0.28233 0.70515 0.0
H978 H 0.82813 0.36424 0.67624 0.0
H979 H 0.9204 0.32981 0.66333 0.0
C980 C 0.92437 0.36698 0.64573 0.0
C981 C 0.9114 0.39215 0.63867 0.0
C982 C 0.83929 0.34615 0.68246 0.0
C983 C 0.8819 0.35569 0.66278 0.0
C984 C 0.82647 0.33099 0.6968 0.0
C985 C 0.84071 0.30794 0.70549 0.0
C986 C 0.8666 0.33831 0.67678 0.0
C987 C 0.86754 0.30006 0.69895 0.0
C988 C 0.90973 0.34872 0.65773 0.0
C989 C 0.88323 0.39778 0.64357 0.0
N990 N 0.8797 0.31536 0.68509 0.0
N991 N 0.86949 0.37981 0.6554 0.0
H992 H 0.58115 0.04273 0.33726 0.0
H993 H 0.6767 0.18376 0.31807 0.0
H994 H 0.60369 0.10483 0.37925 0.0
H995 H 0.64455 0.12693 0.27574 0.0
H996 H 0.65172 0.15443 0.34094 0.0
H997 H 0.60637 0.07232 0.31482 0.0
C998 C 0.59163 0.06249 0.34179 0.0
C999 C 0.59042 0.07126 0.36018 0.0
C1000 C 0.6501 0.14844 0.32664 0.0
C1001 C 0.61908 0.10551 0.33447 0.0
C1002 C 0.66436 0.16516 0.31357 0.0
C1003 C 0.66272 0.15779 0.29495 0.0
C1004 C 0.63423 0.12409 0.32104 0.0
C1005 C 0.64641 0.13347 0.28992 0.0
C1006 C 0.60584 0.07951 0.32893 0.0
C1007 C 0.60393 0.09738 0.36519 0.0
N1008 N 0.63288 0.11747 0.30289 0.0
N1009 N 0.61777 0.11357 0.35241 0.0
H1010 H 0.92961 0.13117 0.61934 0.0
H1011 H 0.81461 0.13251 0.53968 0.0
H1012 H 0.87418 0.05847 0.6079 0.0
H1013 H 0.85579 0.21066 0.55928 0.0
H1014 H 0.83701 0.10481 0.56426 0.0
H1015 H 0.90325 0.16071 0.59735 0.0
C1016 C 0.9117 0.12149 0.61239 0.0
C1017 C 0.90425 0.09217 0.61541 0.0
C1018 C 0.84102 0.12805 0.56326 0.0
C1019 C 0.87432 0.12576 0.58996 0.0
C1020 C 0.82832 0.14387 0.54918 0.0
C1021 C 0.83344 0.17392 0.54738 0.0
C1022 C 0.85924 0.14231 0.57552 0.0
C1023 C 0.85125 0.18752 0.56017 0.0
C1024 C 0.89676 0.13834 0.59975 0.0
C1025 C 0.88108 0.08076 0.60576 0.0
N1026 N 0.86369 0.17156 0.57362 0.0
N1027 N 0.86709 0.0975 0.59339 0.0
H1028 H 0.93152 0.44447 0.83556 0.0
H1029 H 0.83388 0.30929 0.80658 0.0
H1030 H 0.90172 0.38001 0.87412 0.0
H1031 H 0.86597 0.37402 0.76893 0.0
H1032 H 0.85947 0.33356 0.83146 0.0
H1033 H 0.90824 0.41787 0.81097 0.0
C1034 C 0.91991 0.42477 0.83887 0.0
C1035 C 0.91834 0.41461 0.85696 0.0
C1036 C 0.86096 0.34235 0.81773 0.0
C1037 C 0.89181 0.38372 0.82874 0.0
C1038 C 0.8464 0.3285 0.80352 0.0
C1039 C 0.84769 0.3397 0.78565 0.0
C1040 C 0.87689 0.36757 0.81402 0.0
C1041 C 0.86424 0.36463 0.78249 0.0
C1042 C 0.90676 0.40946 0.82478 0.0
C1043 C 0.90355 0.38856 0.86035 0.0
N1044 N 0.87808 0.37774 0.79652 0.0
N1045 N 0.89072 0.37406 0.84637 0.0
H1046 H 0.58936 0.37367 0.11978 0.0
H1047 H 0.7011 0.38952 0.03824 0.0
H1048 H 0.63142 0.45449 0.10621 0.0
H1049 H 0.66053 0.30831 0.05289 0.0
H1050 H 0.67866 0.41291 0.06457 0.0
H1051 H 0.61795 0.34856 0.09679 0.0
C1052 C 0.6047 0.38611 0.112 0.0
C1053 C 0.60786 0.41626 0.11482 0.0
C1054 C 0.67483 0.38992 0.0621 0.0
C1055 C 0.64072 0.38767 0.0885 0.0
C1056 C 0.68764 0.37654 0.04706 0.0
C1057 C 0.6825 0.34696 0.04325 0.0
C1058 C 0.65665 0.37363 0.07337 0.0
C1059 C 0.66497 0.33121 0.05521 0.0
C1060 C 0.6211 0.37175 0.09893 0.0
C1061 C 0.62839 0.43119 0.10458 0.0
N1062 N 0.65253 0.34479 0.06965 0.0
N1063 N 0.64387 0.4168 0.09176 0.0
loop_
_geom_bond_atom_site_label_1
_geom_bond_atom_site_label_2
_geom_bond_distance
_geom_bond_site_symmetry_2
_ccdc_geom_bond_type
H0 C19 0.949 . S
H1 C20 0.950 . S
H2 C22 0.950 . S
H3 C23 0.950 . S
H4 C25 0.950 . S
H5 C28 0.950 . S
H6 C29 0.950 . S
H7 C31 0.951 . S
H8 C32 0.949 1_565 S
H9 C34 0.949 . S
H10 C35 0.950 . S
H11 C37 0.950 . S
H12 C38 0.950 . S
H13 C40 0.950 . S
H14 C43 0.950 . S
H15 C44 0.950 . S
H16 C46 0.951 . S
H17 C47 0.949 1_545 S
C18 C19 1.376 . S
C18 C23 1.386 . S
C18 C24 1.483 . S
C19 H0 0.949 . S
C19 C18 1.376 . S
C19 C20 1.397 . S
C20 H1 0.950 . S
C20 C19 1.397 . S
C20 C21 1.391 . S
C21 C20 1.391 . S
C21 C22 1.405 . S
C22 H2 0.950 . S
C22 C21 1.405 . S
C22 C23 1.367 . S
C23 H3 0.950 . S
C23 C18 1.386 . S
C23 C22 1.367 . S
C24 C18 1.483 . S
C24 C25 1.382 1_655 S
C24 C26 1.403 . S
C25 H4 0.950 . S
C25 C24 1.382 1_455 S
C25 C41 1.411 1_545 S
C26 C24 1.403 . S
C26 C27 1.489 . S
C26 C40 1.411 1_545 S
C27 C26 1.489 . S
C27 C28 1.383 . S
C27 C32 1.382 . S
C28 H5 0.950 . S
C28 C27 1.383 . S
C28 C29 1.395 . S
C29 H6 0.950 . S
C29 C28 1.395 . S
C29 C30 1.288 . S
C30 C29 1.288 . S
C30 C31 1.392 . S
C31 H7 0.951 . S
C31 C30 1.392 . S
C31 C32 1.392 . S
C32 H8 0.949 1_545 S
C32 C27 1.382 . S
C32 C31 1.392 . S
C33 C34 1.376 . S
C33 C38 1.386 . S
C33 C39 1.483 . S
C34 H9 0.949 . S
C34 C33 1.376 . S
C34 C35 1.397 . S
C35 H10 0.950 . S
C35 C34 1.397 . S
C35 C36 1.391 . S
C36 C35 1.391 . S
C36 C37 1.405 . S
C37 H11 0.950 . S
C37 C36 1.405 . S
C37 C38 1.367 . S
C38 H12 0.950 . S
C38 C33 1.386 . S
C38 C37 1.367 . S
C39 C33 1.483 . S
C39 C40 1.382 1_455 S
C39 C41 1.403 . S
C40 H13 0.950 . S
C40 C26 1.411 1_565 S
C40 C39 1.382 1_655 S
C41 C25 1.411 1_565 S
C41 C39 1.403 . S
C41 C42 1.489 . S
C42 C41 1.489 . S
C42 C43 1.383 . S
C42 C47 1.382 . S
C43 H14 0.950 . S
C43 C42 1.383 . S
C43 C44 1.395 . S
C44 H15 0.950 . S
C44 C43 1.395 . S
C44 C45 1.288 . S
C45 C44 1.288 . S
C45 C46 1.392 . S
C46 H16 0.951 . S
C46 C45 1.392 . S
C46 C47 1.392 . S
C47 H17 0.949 1_565 S
C47 C42 1.382 . S
C47 C46 1.392 . S
H48 C67 0.949 1_455 S
H49 C68 0.950 . S
H50 C70 0.950 . S
H51 C71 0.950 . S
H52 C73 0.950 . S
H53 C76 0.950 . S
H54 C77 0.950 . S
H55 C79 0.951 . S
H56 C80 0.949 . S
H57 C82 0.949 1_655 S
H58 C83 0.950 . S
H59 C85 0.950 . S
H60 C86 0.950 . S
H61 C88 0.950 . S
H62 C91 0.950 . S
H63 C92 0.950 . S
H64 C94 0.951 . S
H65 C95 0.949 . S
C66 C67 1.376 . S
C66 C71 1.386 . S
C66 C72 1.483 . S
C67 H48 0.949 1_655 S
C67 C66 1.376 . S
C67 C68 1.397 . S
C68 H49 0.950 . S
C68 C67 1.397 . S
C68 C69 1.391 . S
C69 C68 1.391 . S
C69 C70 1.405 . S
C70 H50 0.950 . S
C70 C69 1.405 . S
C70 C71 1.367 . S
C71 H51 0.950 . S
C71 C66 1.386 . S
C71 C70 1.367 . S
C72 C66 1.483 . S
C72 C73 1.382 1_655 S
C72 C74 1.403 . S
C73 H52 0.950 . S
C73 C72 1.382 1_455 S
C73 C89 1.411 . S
C74 C72 1.403 . S
C74 C75 1.489 . S
C74 C88 1.411 . S
C75 C74 1.489 . S
C75 C76 1.383 . S
C75 C80 1.382 . S
C76 H53 0.950 . S
C76 C75 1.383 . S
C76 C77 1.395 . S
C77 H54 0.950 . S
C77 C76 1.395 . S
C77 C78 1.288 . S
C78 C77 1.288 . S
C78 C79 1.392 . S
C79 H55 0.951 . S
C79 C78 1.392 . S
C79 C80 1.392 . S
C80 H56 0.949 . S
C80 C75 1.382 . S
C80 C79 1.392 . S
C81 C82 1.376 . S
C81 C86 1.386 . S
C81 C87 1.483 . S
C82 H57 0.949 1_455 S
C82 C81 1.376 . S
C82 C83 1.397 . S
C83 H58 0.950 . S
C83 C82 1.397 . S
C83 C84 1.391 . S
C84 C83 1.391 . S
C84 C85 1.405 . S
C85 H59 0.950 . S
C85 C84 1.405 . S
C85 C86 1.367 . S
C86 H60 0.950 . S
C86 C81 1.386 . S
C86 C85 1.367 . S
C87 C81 1.483 . S
C87 C88 1.382 1_455 S
C87 C89 1.403 . S
C88 H61 0.950 . S
C88 C74 1.411 . S
C88 C87 1.382 1_655 S
C89 C73 1.411 . S
C89 C87 1.403 . S
C89 C90 1.489 . S
C90 C89 1.489 . S
C90 C91 1.383 . S
C90 C95 1.382 . S
C91 H62 0.950 . S
C91 C90 1.383 . S
C91 C92 1.395 . S
C92 H63 0.950 . S
C92 C91 1.395 . S
C92 C93 1.288 . S
C93 C92 1.288 . S
C93 C94 1.392 . S
C94 H64 0.951 . S
C94 C93 1.392 . S
C94 C95 1.392 . S
C95 H65 0.949 . S
C95 C90 1.382 . S
C95 C94 1.392 . S
H96 C115 0.949 . S
H97 C116 0.950 . S
H98 C118 0.950 . S
H99 C119 0.950 . S
H100 C121 0.950 . S
H101 C124 0.950 . S
H102 C125 0.950 . S
H103 C127 0.951 . S
H104 C128 0.949 . S
H105 C130 0.949 . S
H106 C131 0.950 . S
H107 C133 0.950 . S
H108 C134 0.950 . S
H109 C136 0.950 . S
H110 C139 0.950 . S
H111 C140 0.950 . S
H112 C142 0.951 . S
H113 C143 0.949 . S
C114 C115 1.376 . S
C114 C119 1.386 . S
C114 C120 1.483 . S
C115 H96 0.949 . S
C115 C114 1.376 . S
C115 C116 1.397 . S
C116 H97 0.950 . S
C116 C115 1.397 . S
C116 C117 1.391 . S
C117 C116 1.391 . S
C117 C118 1.405 . S
C118 H98 0.950 . S
C118 C117 1.405 . S
C118 C119 1.367 . S
C119 H99 0.950 . S
C119 C114 1.386 . S
C119 C118 1.367 . S
C120 C114 1.483 . S
C120 C121 1.382 . S
C120 C122 1.403 . S
C121 H100 0.950 . S
C121 C120 1.382 . S
C121 C137 1.411 . S
C122 C120 1.403 . S
C122 C123 1.489 . S
C122 C136 1.411 . S
C123 C122 1.489 . S
C123 C124 1.383 . S
C123 C128 1.382 . S
C124 H101 0.950 . S
C124 C123 1.383 . S
C124 C125 1.395 . S
C125 H102 0.950 . S
C125 C124 1.395 . S
C125 C126 1.288 . S
C126 C125 1.288 . S
C126 C127 1.392 . S
C127 H103 0.951 . S
C127 C126 1.392 . S
C127 C128 1.392 . S
C128 H104 0.949 . S
C128 C123 1.382 . S
C128 C127 1.392 . S
C129 C130 1.376 . S
C129 C134 1.386 . S
C129 C135 1.483 . S
C130 H105 0.949 . S
C130 C129 1.376 . S
C130 C131 1.397 . S
C131 H106 0.950 . S
C131 C130 1.397 . S
C131 C132 1.391 . S
C132 C131 1.391 . S
C132 C133 1.405 . S
C133 H107 0.950 . S
C133 C132 1.405 . S
C133 C134 1.367 . S
C134 H108 0.950 . S
C134 C129 1.386 . S
C134 C133 1.367 . S
C135 C129 1.483 . S
C135 C136 1.382 . S
C135 C137 1.403 . S
C136 H109 0.950 . S
C136 C122 1.411 . S
C136 C135 1.382 . S
C137 C121 1.411 . S
C137 C135 1.403 . S
C137 C138 1.489 . S
C138 C137 1.489 . S
C138 C139 1.383 . S
C138 C143 1.382 . S
C139 H110 0.950 . S
C139 C138 1.383 . S
C139 C140 1.395 . S
C140 H111 0.950 . S
C140 C139 1.395 . S
C140 C141 1.288 . S
C141 C140 1.288 . S
C141 C142 1.392 . S
C142 H112 0.951 . S
C142 C141 1.392 . S
C142 C143 1.392 . S
C143 H113 0.949 . S
C143 C138 1.382 . S
C143 C142 1.392 . S
H144 C163 0.949 . S
H145 C164 0.950 . S
H146 C166 0.950 . S
H147 C167 0.950 . S
H148 C169 0.950 . S
H149 C172 0.950 . S
H150 C173 0.950 . S
H151 C175 0.951 . S
H152 C176 0.949 . S
H153 C178 0.949 . S
H154 C179 0.950 . S
H155 C181 0.950 . S
H156 C182 0.950 . S
H157 C184 0.950 . S
H158 C187 0.950 . S
H159 C188 0.950 . S
H160 C190 0.951 . S
H161 C191 0.949 . S
C162 C163 1.376 . S
C162 C167 1.386 . S
C162 C168 1.483 . S
C163 H144 0.949 . S
C163 C162 1.376 . S
C163 C164 1.397 . S
C164 H145 0.950 . S
C164 C163 1.397 . S
C164 C165 1.391 . S
C165 C164 1.391 . S
C165 C166 1.405 . S
C166 H146 0.950 . S
C166 C165 1.405 . S
C166 C167 1.367 . S
C167 H147 0.950 . S
C167 C162 1.386 . S
C167 C166 1.367 . S
C168 C162 1.483 . S
C168 C169 1.382 . S
C168 C170 1.403 . S
C169 H148 0.950 . S
C169 C168 1.382 . S
C169 C185 1.411 1_565 S
C170 C168 1.403 . S
C170 C171 1.489 . S
C170 C184 1.411 1_565 S
C171 C170 1.489 . S
C171 C172 1.383 . S
C171 C176 1.382 . S
C172 H149 0.950 . S
C172 C171 1.383 . S
C172 C173 1.395 . S
C173 H150 0.950 . S
C173 C172 1.395 . S
C173 C174 1.288 . S
C174 C173 1.288 . S
C174 C175 1.392 . S
C175 H151 0.951 . S
C175 C174 1.392 . S
C175 C176 1.392 . S
C176 H152 0.949 . S
C176 C171 1.382 . S
C176 C175 1.392 . S
C177 C178 1.376 . S
C177 C182 1.386 . S
C177 C183 1.483 . S
C178 H153 0.949 . S
C178 C177 1.376 . S
C178 C179 1.397 . S
C179 H154 0.950 . S
C179 C178 1.397 . S
C179 C180 1.391 . S
C180 C179 1.391 . S
C180 C181 1.405 . S
C181 H155 0.950 . S
C181 C180 1.405 . S
C181 C182 1.367 . S
C182 H156 0.950 . S
C182 C177 1.386 . S
C182 C181 1.367 . S
C183 C177 1.483 . S
C183 C184 1.382 . S
C183 C185 1.403 . S
C184 H157 0.950 . S
C184 C170 1.411 1_545 S
C184 C183 1.382 . S
C185 C169 1.411 1_545 S
C185 C183 1.403 . S
C185 C186 1.489 . S
C186 C185 1.489 . S
C186 C187 1.383 . S
C186 C191 1.382 . S
C187 H158 0.950 . S
C187 C186 1.383 . S
C187 C188 1.395 . S
C188 H159 0.950 . S
C188 C187 1.395 . S
C188 C189 1.288 . S
C189 C188 1.288 . S
C189 C190 1.392 . S
C190 H160 0.951 . S
C190 C189 1.392 . S
C190 C191 1.392 . S
C191 H161 0.949 . S
C191 C186 1.382 . S
C191 C190 1.392 . S
H192 C211 0.949 . S
H193 C212 0.950 . S
H194 C214 0.950 . S
H195 C215 0.950 . S
H196 C217 0.950 . S
H197 C220 0.950 . S
H198 C221 0.950 . S
H199 C223 0.951 . S
H200 C224 0.949 . S
H201 C226 0.949 . S
H202 C227 0.950 . S
H203 C229 0.950 . S
H204 C230 0.950 . S
H205 C232 0.950 . S
H206 C235 0.950 . S
H207 C236 0.950 . S
H208 C238 0.951 . S
H209 C239 0.949 . S
C210 C211 1.376 . S
C210 C215 1.386 . S
C210 C216 1.483 . S
C211 H192 0.949 . S
C211 C210 1.376 . S
C211 C212 1.397 . S
C212 H193 0.950 . S
C212 C211 1.397 . S
C212 C213 1.391 . S
C213 C212 1.391 . S
C213 C214 1.405 . S
C214 H194 0.950 . S
C214 C213 1.405 . S
C214 C215 1.367 . S
C215 H195 0.950 . S
C215 C210 1.386 . S
C215 C214 1.367 . S
C216 C210 1.483 . S
C216 C217 1.382 1_455 S
C216 C218 1.403 . S
C217 H196 0.950 . S
C217 C216 1.382 1_655 S
C217 C233 1.411 . S
C218 C216 1.403 . S
C218 C219 1.489 . S
C218 C232 1.411 . S
C219 C218 1.489 . S
C219 C220 1.383 . S
C219 C224 1.382 . S
C220 H197 0.950 . S
C220 C219 1.383 . S
C220 C221 1.395 . S
C221 H198 0.950 . S
C221 C220 1.395 . S
C221 C222 1.288 . S
C222 C221 1.288 . S
C222 C223 1.392 . S
C223 H199 0.951 . S
C223 C222 1.392 . S
C223 C224 1.392 . S
C224 H200 0.949 . S
C224 C219 1.382 . S
C224 C223 1.392 . S
C225 C226 1.376 . S
C225 C230 1.386 . S
C225 C231 1.483 . S
C226 H201 0.949 . S
C226 C225 1.376 . S
C226 C227 1.397 . S
C227 H202 0.950 . S
C227 C226 1.397 . S
C227 C228 1.391 . S
C228 C227 1.391 . S
C228 C229 1.405 . S
C229 H203 0.950 . S
C229 C228 1.405 . S
C229 C230 1.367 . S
C230 H204 0.950 . S
C230 C225 1.386 . S
C230 C229 1.367 . S
C231 C225 1.483 . S
C231 C232 1.382 1_655 S
C231 C233 1.403 . S
C232 H205 0.950 . S
C232 C218 1.411 . S
C232 C231 1.382 1_455 S
C233 C217 1.411 . S
C233 C231 1.403 . S
C233 C234 1.489 . S
C234 C233 1.489 . S
C234 C235 1.383 . S
C234 C239 1.382 . S
C235 H206 0.950 . S
C235 C234 1.383 . S
C235 C236 1.395 . S
C236 H207 0.950 . S
C236 C235 1.395 . S
C236 C237 1.288 . S
C237 C236 1.288 . S
C237 C238 1.392 . S
C238 H208 0.951 . S
C238 C237 1.392 . S
C238 C239 1.392 . S
C239 H209 0.949 . S
C239 C234 1.382 . S
C239 C238 1.392 . S
H240 C259 0.949 . S
H241 C260 0.950 . S
H242 C262 0.950 . S
H243 C263 0.950 . S
H244 C265 0.950 . S
H245 C268 0.950 . S
H246 C269 0.950 . S
H247 C271 0.951 . S
H248 C272 0.949 . S
H249 C274 0.949 . S
H250 C275 0.950 . S
H251 C277 0.950 . S
H252 C278 0.950 . S
H253 C280 0.950 . S
H254 C283 0.950 . S
H255 C284 0.950 . S
H256 C286 0.951 . S
H257 C287 0.949 . S
C258 C259 1.376 . S
C258 C263 1.386 . S
C258 C264 1.483 . S
C259 H240 0.949 . S
C259 C258 1.376 . S
C259 C260 1.397 . S
C260 H241 0.950 . S
C260 C259 1.397 . S
C260 C261 1.391 . S
C261 C260 1.391 . S
C261 C262 1.405 . S
C262 H242 0.950 . S
C262 C261 1.405 . S
C262 C263 1.367 . S
C263 H243 0.950 . S
C263 C258 1.386 . S
C263 C262 1.367 . S
C264 C258 1.483 . S
C264 C265 1.382 . S
C264 C266 1.403 . S
C265 H244 0.950 . S
C265 C264 1.382 . S
C265 C281 1.411 . S
C266 C264 1.403 . S
C266 C267 1.489 . S
C266 C280 1.411 . S
C267 C266 1.489 . S
C267 C268 1.383 . S
C267 C272 1.382 . S
C268 H245 0.950 . S
C268 C267 1.383 . S
C268 C269 1.395 . S
C269 H246 0.950 . S
C269 C268 1.395 . S
C269 C270 1.288 . S
C270 C269 1.288 . S
C270 C271 1.392 . S
C271 H247 0.951 . S
C271 C270 1.392 . S
C271 C272 1.392 . S
C272 H248 0.949 . S
C272 C267 1.382 . S
C272 C271 1.392 . S
C273 C274 1.376 . S
C273 C278 1.386 . S
C273 C279 1.483 . S
C274 H249 0.949 . S
C274 C273 1.376 . S
C274 C275 1.397 . S
C275 H250 0.950 . S
C275 C274 1.397 . S
C275 C276 1.391 . S
C276 C275 1.391 . S
C276 C277 1.405 . S
C277 H251 0.950 . S
C277 C276 1.405 . S
C277 C278 1.367 . S
C278 H252 0.950 . S
C278 C273 1.386 . S
C278 C277 1.367 . S
C279 C273 1.483 . S
C279 C280 1.382 . S
C279 C281 1.403 . S
C280 H253 0.950 . S
C280 C266 1.411 . S
C280 C279 1.382 . S
C281 C265 1.411 . S
C281 C279 1.403 . S
C281 C282 1.489 . S
C282 C281 1.489 . S
C282 C283 1.383 . S
C282 C287 1.382 . S
C283 H254 0.950 . S
C283 C282 1.383 . S
C283 C284 1.395 . S
C284 H255 0.950 . S
C284 C283 1.395 . S
C284 C285 1.288 . S
C285 C284 1.288 . S
C285 C286 1.392 . S
C286 H256 0.951 . S
C286 C285 1.392 . S
C286 C287 1.392 . S
C287 H257 0.949 . S
C287 C282 1.382 . S
C287 C286 1.392 . S
H288 C307 0.949 . S
H289 C308 0.950 . S
H290 C310 0.950 . S
H291 C311 0.950 . S
H292 C313 0.950 . S
H293 C316 0.950 . S
H294 C317 0.950 . S
H295 C319 0.951 . S
H296 C320 0.949 1_545 S
H297 C322 0.949 . S
H298 C323 0.950 . S
H299 C325 0.950 . S
H300 C326 0.950 . S
H301 C328 0.950 . S
H302 C331 0.950 . S
H303 C332 0.950 . S
H304 C334 0.951 . S
H305 C335 0.949 1_565 S
C306 C307 1.376 . S
C306 C311 1.386 . S
C306 C312 1.483 . S
C307 H288 0.949 . S
C307 C306 1.376 . S
C307 C308 1.397 . S
C308 H289 0.950 . S
C308 C307 1.397 . S
C308 C309 1.391 . S
C309 C308 1.391 . S
C309 C310 1.405 . S
C310 H290 0.950 . S
C310 C309 1.405 . S
C310 C311 1.367 . S
C311 H291 0.950 . S
C311 C306 1.386 . S
C311 C310 1.367 . S
C312 C306 1.483 . S
C312 C313 1.382 . S
C312 C314 1.403 . S
C313 H292 0.950 . S
C313 C312 1.382 . S
C313 C329 1.411 1_565 S
C314 C312 1.403 . S
C314 C315 1.489 . S
C314 C328 1.411 1_565 S
C315 C314 1.489 . S
C315 C316 1.383 . S
C315 C320 1.382 . S
C316 H293 0.950 . S
C316 C315 1.383 . S
C316 C317 1.395 . S
C317 H294 0.950 . S
C317 C316 1.395 . S
C317 C318 1.288 . S
C318 C317 1.288 . S
C318 C319 1.392 . S
C319 H295 0.951 . S
C319 C318 1.392 . S
C319 C320 1.392 . S
C320 H296 0.949 1_565 S
C320 C315 1.382 . S
C320 C319 1.392 . S
C321 C322 1.376 . S
C321 C326 1.386 . S
C321 C327 1.483 . S
C322 H297 0.949 . S
C322 C321 1.376 . S
C322 C323 1.397 . S
C323 H298 0.950 . S
C323 C322 1.397 . S
C323 C324 1.391 . S
C324 C323 1.391 . S
C324 C325 1.405 . S
C325 H299 0.950 . S
C325 C324 1.405 . S
C325 C326 1.367 . S
C326 H300 0.950 . S
C326 C321 1.386 . S
C326 C325 1.367 . S
C327 C321 1.483 . S
C327 C328 1.382 . S
C327 C329 1.403 . S
C328 H301 0.950 . S
C328 C314 1.411 1_545 S
C328 C327 1.382 . S
C329 C313 1.411 1_545 S
C329 C327 1.403 . S
C329 C330 1.489 . S
C330 C329 1.489 . S
C330 C331 1.383 . S
C330 C335 1.382 . S
C331 H302 0.950 . S
C331 C330 1.383 . S
C331 C332 1.395 . S
C332 H303 0.950 . S
C332 C331 1.395 . S
C332 C333 1.288 . S
C333 C332 1.288 . S
C333 C334 1.392 . S
C334 H304 0.951 . S
C334 C333 1.392 . S
C334 C335 1.392 . S
C335 H305 0.949 1_545 S
C335 C330 1.382 . S
C335 C334 1.392 . S
H336 C355 0.949 1_455 S
H337 C356 0.950 . S
H338 C358 0.950 . S
H339 C359 0.950 . S
H340 C361 0.950 . S
H341 C364 0.950 . S
H342 C365 0.950 . S
H343 C367 0.951 . S
H344 C368 0.949 . S
H345 C370 0.949 1_655 S
H346 C371 0.950 . S
H347 C373 0.950 . S
H348 C374 0.950 . S
H349 C376 0.950 . S
H350 C379 0.950 . S
H351 C380 0.950 . S
H352 C382 0.951 . S
H353 C383 0.949 . S
C354 C355 1.376 . S
C354 C359 1.386 . S
C354 C360 1.483 . S
C355 H336 0.949 1_655 S
C355 C354 1.376 . S
C355 C356 1.397 . S
C356 H337 0.950 . S
C356 C355 1.397 . S
C356 C357 1.391 . S
C357 C356 1.391 . S
C357 C358 1.405 . S
C358 H338 0.950 . S
C358 C357 1.405 . S
C358 C359 1.367 . S
C359 H339 0.950 . S
C359 C354 1.386 . S
C359 C358 1.367 . S
C360 C354 1.483 . S
C360 C361 1.382 1_655 S
C360 C362 1.403 . S
C361 H340 0.950 . S
C361 C360 1.382 1_455 S
C361 C377 1.411 1_545 S
C362 C360 1.403 . S
C362 C363 1.489 . S
C362 C376 1.411 1_545 S
C363 C362 1.489 . S
C363 C364 1.383 . S
C363 C368 1.382 . S
C364 H341 0.950 . S
C364 C363 1.383 . S
C364 C365 1.395 . S
C365 H342 0.950 . S
C365 C364 1.395 . S
C365 C366 1.288 . S
C366 C365 1.288 . S
C366 C367 1.392 . S
C367 H343 0.951 . S
C367 C366 1.392 . S
C367 C368 1.392 . S
C368 H344 0.949 . S
C368 C363 1.382 . S
C368 C367 1.392 . S
C369 C370 1.376 . S
C369 C374 1.386 . S
C369 C375 1.483 . S
C370 H345 0.949 1_455 S
C370 C369 1.376 . S
C370 C371 1.397 . S
C371 H346 0.950 . S
C371 C370 1.397 . S
C371 C372 1.391 . S
C372 C371 1.391 . S
C372 C373 1.405 . S
C373 H347 0.950 . S
C373 C372 1.405 . S
C373 C374 1.367 . S
C374 H348 0.950 . S
C374 C369 1.386 . S
C374 C373 1.367 . S
C375 C369 1.483 . S
C375 C376 1.382 1_455 S
C375 C377 1.403 . S
C376 H349 0.950 . S
C376 C362 1.411 1_565 S
C376 C375 1.382 1_655 S
C377 C361 1.411 1_565 S
C377 C375 1.403 . S
C377 C378 1.489 . S
C378 C377 1.489 . S
C378 C379 1.383 . S
C378 C383 1.382 . S
C379 H350 0.950 . S
C379 C378 1.383 . S
C379 C380 1.395 . S
C380 H351 0.950 . S
C380 C379 1.395 . S
C380 C381 1.288 . S
C381 C380 1.288 . S
C381 C382 1.392 . S
C382 H352 0.951 . S
C382 C381 1.392 . S
C382 C383 1.392 . S
C383 H353 0.949 . S
C383 C378 1.382 . S
C383 C382 1.392 . S
C384 O385 1.160 1_556 S
C384 O391 1.185 . S
O385 C384 1.160 1_554 S
O386 Zn387 1.899 . S
O386 C394 1.284 . S
Zn387 O386 1.899 . S
Zn387 O388 2.032 1_554 S
Zn387 O391 2.086 1_554 S
Zn387 O396 1.977 . S
O388 Zn387 2.032 1_556 S
O388 C392 1.278 . S
C389 O390 1.203 . S
C389 O396 1.267 . S
O390 C389 1.203 . S
O391 C384 1.185 . S
O391 Zn387 2.086 1_556 S
C392 O388 1.278 . S
C392 O393 1.211 . S
O393 C392 1.211 . S
C394 O386 1.284 . S
C394 O395 1.273 . S
O395 C394 1.273 . S
O396 Zn387 1.977 . S
O396 C389 1.267 . S
C397 O398 1.160 . S
C397 O404 1.185 . S
O398 C397 1.160 . S
O399 Zn400 1.899 . S
O399 C407 1.284 . S
Zn400 O399 1.899 . S
Zn400 O401 2.032 . S
Zn400 O404 2.086 . S
Zn400 O409 1.977 . S
O401 Zn400 2.032 . S
O401 C405 1.278 . S
C402 O403 1.203 . S
C402 O409 1.267 . S
O403 C402 1.203 . S
O404 C397 1.185 . S
O404 Zn400 2.086 . S
C405 O401 1.278 . S
C405 O406 1.211 . S
O406 C405 1.211 . S
C407 O399 1.284 . S
C407 O408 1.273 . S
O408 C407 1.273 . S
O409 Zn400 1.977 . S
O409 C402 1.267 . S
C410 O411 1.160 . S
C410 O417 1.185 . S
O411 C410 1.160 . S
O412 Zn413 1.899 . S
O412 C420 1.284 . S
Zn413 O412 1.899 . S
Zn413 O414 2.032 . S
Zn413 O417 2.086 . S
Zn413 O422 1.977 . S
O414 Zn413 2.032 . S
O414 C418 1.278 . S
C415 O416 1.203 . S
C415 O422 1.267 . S
O416 C415 1.203 . S
O417 C410 1.185 . S
O417 Zn413 2.086 . S
C418 O414 1.278 . S
C418 O419 1.211 . S
O419 C418 1.211 . S
C420 O412 1.284 . S
C420 O421 1.273 . S
O421 C420 1.273 . S
O422 Zn413 1.977 . S
O422 C415 1.267 . S
C423 O424 1.160 . S
C423 O430 1.185 . S
O424 C423 1.160 . S
O425 Zn426 1.899 . S
O425 C433 1.284 . S
Zn426 O425 1.899 . S
Zn426 O427 2.032 . S
Zn426 O430 2.086 . S
Zn426 O435 1.977 . S
O427 Zn426 2.032 . S
O427 C431 1.278 . S
C428 O429 1.203 . S
C428 O435 1.267 . S
O429 C428 1.203 . S
O430 C423 1.185 . S
O430 Zn426 2.086 . S
C431 O427 1.278 . S
C431 O432 1.211 . S
O432 C431 1.211 . S
C433 O425 1.284 . S
C433 O434 1.273 . S
O434 C433 1.273 . S
O435 Zn426 1.977 . S
O435 C428 1.267 . S
C436 O437 1.160 . S
C436 O443 1.185 . S
O437 C436 1.160 . S
O438 Zn439 1.899 . S
O438 C446 1.284 . S
Zn439 O438 1.899 . S
Zn439 O440 2.032 . S
Zn439 O443 2.086 . S
Zn439 O448 1.977 . S
O440 Zn439 2.032 . S
O440 C444 1.278 . S
C441 O442 1.203 . S
C441 O448 1.267 . S
O442 C441 1.203 . S
O443 C436 1.185 . S
O443 Zn439 2.086 . S
C444 O440 1.278 . S
C444 O445 1.211 . S
O445 C444 1.211 . S
C446 O438 1.284 . S
C446 O447 1.273 . S
O447 C446 1.273 . S
O448 Zn439 1.977 . S
O448 C441 1.267 . S
C449 O450 1.160 . S
C449 O456 1.185 . S
O450 C449 1.160 . S
O451 Zn452 1.899 . S
O451 C459 1.284 . S
Zn452 O451 1.899 . S
Zn452 O453 2.032 . S
Zn452 O456 2.086 . S
Zn452 O461 1.977 . S
O453 Zn452 2.032 . S
O453 C457 1.278 . S
C454 O455 1.203 . S
C454 O461 1.267 . S
O455 C454 1.203 . S
O456 C449 1.185 . S
O456 Zn452 2.086 . S
C457 O453 1.278 . S
C457 O458 1.211 . S
O458 C457 1.211 . S
C459 O451 1.284 . S
C459 O460 1.273 . S
O460 C459 1.273 . S
O461 Zn452 1.977 . S
O461 C454 1.267 . S
C462 O463 1.160 1_556 S
C462 O469 1.185 . S
O463 C462 1.160 1_554 S
O464 Zn465 1.899 . S
O464 C472 1.284 . S
Zn465 O464 1.899 . S
Zn465 O466 2.032 1_554 S
Zn465 O469 2.086 1_554 S
Zn465 O474 1.977 . S
O466 Zn465 2.032 1_556 S
O466 C470 1.278 . S
C467 O468 1.203 . S
C467 O474 1.267 . S
O468 C467 1.203 . S
O469 C462 1.185 . S
O469 Zn465 2.086 1_556 S
C470 O466 1.278 . S
C470 O471 1.211 . S
O471 C470 1.211 . S
C472 O464 1.284 . S
C472 O473 1.273 . S
O473 C472 1.273 . S
O474 Zn465 1.977 . S
O474 C467 1.267 . S
C475 O476 1.160 . S
C475 O482 1.185 . S
O476 C475 1.160 . S
O477 Zn478 1.899 . S
O477 C485 1.284 . S
Zn478 O477 1.899 . S
Zn478 O479 2.032 . S
Zn478 O482 2.086 . S
Zn478 O487 1.977 . S
O479 Zn478 2.032 . S
O479 C483 1.278 . S
C480 O481 1.203 . S
C480 O487 1.267 . S
O481 C480 1.203 . S
O482 C475 1.185 . S
O482 Zn478 2.086 . S
C483 O479 1.278 . S
C483 O484 1.211 . S
O484 C483 1.211 . S
C485 O477 1.284 . S
C485 O486 1.273 . S
O486 C485 1.273 . S
O487 Zn478 1.977 . S
O487 C480 1.267 . S
H488 C494 0.930 . S
H489 C498 0.930 . S
H490 C503 0.929 . S
H491 C501 0.929 . S
H492 C496 0.929 . S
H493 C502 0.929 . S
C494 H488 0.930 . S
C494 C495 1.367 . S
C494 C502 1.378 . S
C495 C494 1.367 . S
C495 C503 1.433 . S
C496 H492 0.929 . S
C496 C498 1.378 . S
C496 C500 1.350 . S
C497 C500 1.463 . S
C497 C502 1.350 . S
C497 N505 1.427 . S
C498 H489 0.930 . S
C498 C496 1.378 . S
C498 C499 1.367 . S
C499 C498 1.367 . S
C499 C501 1.433 . S
C500 C496 1.350 . S
C500 C497 1.463 . S
C500 N504 1.427 . S
C501 H491 0.929 . S
C501 C499 1.433 . S
C501 N504 1.384 . S
C502 H493 0.929 . S
C502 C494 1.378 . S
C502 C497 1.350 . S
C503 H490 0.929 . S
C503 C495 1.433 . S
C503 N505 1.384 . S
N504 C500 1.427 . S
N504 C501 1.384 . S
N505 C497 1.427 . S
N505 C503 1.384 . S
H506 C512 0.930 . S
H507 C516 0.930 . S
H508 C521 0.929 . S
H509 C519 0.929 . S
H510 C514 0.929 . S
H511 C520 0.929 . S
C512 H506 0.930 . S
C512 C513 1.367 . S
C512 C520 1.378 . S
C513 C512 1.367 . S
C513 C521 1.433 . S
C514 H510 0.929 . S
C514 C516 1.378 . S
C514 C518 1.350 . S
C515 C518 1.463 . S
C515 C520 1.350 . S
C515 N523 1.427 . S
C516 H507 0.930 . S
C516 C514 1.378 . S
C516 C517 1.367 . S
C517 C516 1.367 . S
C517 C519 1.433 . S
C518 C514 1.350 . S
C518 C515 1.463 . S
C518 N522 1.427 . S
C519 H509 0.929 . S
C519 C517 1.433 . S
C519 N522 1.384 . S
C520 H511 0.929 . S
C520 C512 1.378 . S
C520 C515 1.350 . S
C521 H508 0.929 . S
C521 C513 1.433 . S
C521 N523 1.384 . S
N522 C518 1.427 . S
N522 C519 1.384 . S
N523 C515 1.427 . S
N523 C521 1.384 . S
H524 C530 0.930 . S
H525 C534 0.930 . S
H526 C539 0.929 . S
H527 C537 0.929 . S
H528 C532 0.929 . S
H529 C538 0.929 . S
C530 H524 0.930 . S
C530 C531 1.367 . S
C530 C538 1.378 . S
C531 C530 1.367 . S
C531 C539 1.433 . S
C532 H528 0.929 . S
C532 C534 1.378 . S
C532 C536 1.350 . S
C533 C536 1.463 . S
C533 C538 1.350 . S
C533 N541 1.427 . S
C534 H525 0.930 . S
C534 C532 1.378 . S
C534 C535 1.367 . S
C535 C534 1.367 . S
C535 C537 1.433 . S
C536 C532 1.350 . S
C536 C533 1.463 . S
C536 N540 1.427 . S
C537 H527 0.929 . S
C537 C535 1.433 . S
C537 N540 1.384 . S
C538 H529 0.929 . S
C538 C530 1.378 . S
C538 C533 1.350 . S
C539 H526 0.929 . S
C539 C531 1.433 . S
C539 N541 1.384 . S
N540 C536 1.427 . S
N540 C537 1.384 . S
N541 C533 1.427 . S
N541 C539 1.384 . S
H542 C548 0.930 . S
H543 C552 0.977 . S
H544 C557 0.929 . S
H545 C555 0.929 . S
H546 C550 0.929 1_556 S
H547 C556 0.929 . S
C548 H542 0.930 . S
C548 C549 1.367 . S
C548 C556 1.378 . S
C549 C548 1.367 . S
C549 C557 1.433 . S
C550 H546 0.929 1_554 S
C550 C552 1.371 1_554 S
C550 C554 1.350 . S
C551 C554 1.463 . S
C551 C556 1.350 . S
C551 N559 1.427 . S
C552 H543 0.977 . S
C552 C550 1.371 1_556 S
C552 C553 1.329 1_556 S
C553 C552 1.329 1_554 S
C553 C555 1.433 . S
C554 C550 1.350 . S
C554 C551 1.463 . S
C554 N558 1.427 . S
C555 H545 0.929 . S
C555 C553 1.433 . S
C555 N558 1.384 . S
C556 H547 0.929 . S
C556 C548 1.378 . S
C556 C551 1.350 . S
C557 H544 0.929 . S
C557 C549 1.433 . S
C557 N559 1.384 . S
N558 C554 1.427 . S
N558 C555 1.384 . S
N559 C551 1.427 . S
N559 C557 1.384 . S
H560 C566 0.930 . S
H561 C570 0.930 . S
H562 C575 0.929 . S
H563 C573 0.929 . S
H564 C568 0.929 1_554 S
H565 C574 0.929 . S
C566 H560 0.930 . S
C566 C567 1.367 . S
C566 C574 1.378 . S
C567 C566 1.367 . S
C567 C575 1.433 . S
C568 H564 0.929 1_556 S
C568 C570 1.378 1_556 S
C568 C572 1.350 . S
C569 C572 1.463 . S
C569 C574 1.350 . S
C569 N577 1.427 . S
C570 H561 0.930 . S
C570 C568 1.378 1_554 S
C570 C571 1.367 1_554 S
C571 C570 1.367 1_556 S
C571 C573 1.433 . S
C572 C568 1.350 . S
C572 C569 1.463 . S
C572 N576 1.427 . S
C573 H563 0.929 . S
C573 C571 1.433 . S
C573 N576 1.384 . S
C574 H565 0.929 . S
C574 C566 1.378 . S
C574 C569 1.350 . S
C575 H562 0.929 . S
C575 C567 1.433 . S
C575 N577 1.384 . S
N576 C572 1.427 . S
N576 C573 1.384 . S
N577 C569 1.427 . S
N577 C575 1.384 . S
H578 C584 0.930 . S
H579 C588 0.930 . S
H580 C593 0.929 . S
H581 C591 0.929 . S
H582 C586 0.929 . S
H583 C592 0.929 . S
C584 H578 0.930 . S
C584 C585 1.367 . S
C584 C592 1.378 . S
C585 C584 1.367 . S
C585 C593 1.433 . S
C586 H582 0.929 . S
C586 C588 1.378 . S
C586 C590 1.350 . S
C587 C590 1.463 . S
C587 C592 1.350 . S
C587 N595 1.427 . S
C588 H579 0.930 . S
C588 C586 1.378 . S
C588 C589 1.367 . S
C589 C588 1.367 . S
C589 C591 1.433 . S
C590 C586 1.350 . S
C590 C587 1.463 . S
C590 N594 1.427 . S
C591 H581 0.929 . S
C591 C589 1.433 . S
C591 N594 1.384 . S
C592 H583 0.929 . S
C592 C584 1.378 . S
C592 C587 1.350 . S
C593 H580 0.929 . S
C593 C585 1.433 . S
C593 N595 1.384 . S
N594 C590 1.427 . S
N594 C591 1.384 . S
N595 C587 1.427 . S
N595 C593 1.384 . S
H596 C602 0.930 . S
H597 C606 0.930 . S
H598 C611 0.929 . S
H599 C609 0.929 . S
H600 C604 0.929 . S
H601 C610 0.929 . S
C602 H596 0.930 . S
C602 C603 1.367 . S
C602 C610 1.378 . S
C603 C602 1.367 . S
C603 C611 1.433 . S
C604 H600 0.929 . S
C604 C606 1.378 . S
C604 C608 1.350 . S
C605 C608 1.463 . S
C605 C610 1.350 . S
C605 N613 1.427 . S
C606 H597 0.930 . S
C606 C604 1.378 . S
C606 C607 1.367 . S
C607 C606 1.367 . S
C607 C609 1.433 . S
C608 C604 1.350 . S
C608 C605 1.463 . S
C608 N612 1.427 . S
C609 H599 0.929 . S
C609 C607 1.433 . S
C609 N612 1.384 . S
C610 H601 0.929 . S
C610 C602 1.378 . S
C610 C605 1.350 . S
C611 H598 0.929 . S
C611 C603 1.433 . S
C611 N613 1.384 . S
N612 C608 1.427 . S
N612 C609 1.384 . S
N613 C605 1.427 . S
N613 C611 1.384 . S
H614 C620 0.930 . S
H615 C624 0.930 . S
H616 C629 0.929 . S
H617 C627 0.929 . S
H618 C622 0.929 . S
H619 C628 0.929 . S
C620 H614 0.930 . S
C620 C621 1.367 . S
C620 C628 1.378 . S
C621 C620 1.367 . S
C621 C629 1.433 . S
C622 H618 0.929 . S
C622 C624 1.378 . S
C622 C626 1.350 . S
C623 C626 1.463 . S
C623 C628 1.350 . S
C623 N631 1.427 . S
C624 H615 0.930 . S
C624 C622 1.378 . S
C624 C625 1.367 . S
C625 C624 1.367 . S
C625 C627 1.433 . S
C626 C622 1.350 . S
C626 C623 1.463 . S
C626 N630 1.427 . S
C627 H617 0.929 . S
C627 C625 1.433 . S
C627 N630 1.384 . S
C628 H619 0.929 . S
C628 C620 1.378 . S
C628 C623 1.350 . S
C629 H616 0.929 . S
C629 C621 1.433 . S
C629 N631 1.384 . S
N630 C626 1.427 . S
N630 C627 1.384 . S
N631 C623 1.427 . S
N631 C629 1.384 . S
H632 C638 0.930 . S
H633 C642 0.930 . S
H634 C647 0.929 . S
H635 C645 0.929 . S
H636 C640 0.929 . S
H637 C646 0.929 . S
C638 H632 0.930 . S
C638 C639 1.367 . S
C638 C646 1.378 . S
C639 C638 1.367 . S
C639 C647 1.433 . S
C640 H636 0.929 . S
C640 C642 1.378 . S
C640 C644 1.350 . S
C641 C644 1.463 . S
C641 C646 1.350 . S
C641 N649 1.427 . S
C642 H633 0.930 . S
C642 C640 1.378 . S
C642 C643 1.367 . S
C643 C642 1.367 . S
C643 C645 1.433 . S
C644 C640 1.350 . S
C644 C641 1.463 . S
C644 N648 1.427 . S
C645 H635 0.929 . S
C645 C643 1.433 . S
C645 N648 1.384 . S
C646 H637 0.929 . S
C646 C638 1.378 . S
C646 C641 1.350 . S
C647 H634 0.929 . S
C647 C639 1.433 . S
C647 N649 1.384 . S
N648 C644 1.427 . S
N648 C645 1.384 . S
N649 C641 1.427 . S
N649 C647 1.384 . S
H650 C656 0.930 . S
H651 C660 0.930 . S
H652 C665 0.929 . S
H653 C663 0.929 . S
H654 C658 0.929 . S
H655 C664 0.929 . S
C656 H650 0.930 . S
C656 C657 1.367 . S
C656 C664 1.378 . S
C657 C656 1.367 . S
C657 C665 1.433 . S
C658 H654 0.929 . S
C658 C660 1.378 . S
C658 C662 1.350 . S
C659 C662 1.463 . S
C659 C664 1.350 . S
C659 N667 1.427 . S
C660 H651 0.930 . S
C660 C658 1.378 . S
C660 C661 1.367 . S
C661 C660 1.367 . S
C661 C663 1.433 . S
C662 C658 1.350 . S
C662 C659 1.463 . S
C662 N666 1.427 . S
C663 H653 0.929 . S
C663 C661 1.433 . S
C663 N666 1.384 . S
C664 H655 0.929 . S
C664 C656 1.378 . S
C664 C659 1.350 . S
C665 H652 0.929 . S
C665 C657 1.433 . S
C665 N667 1.384 . S
N666 C662 1.427 . S
N666 C663 1.384 . S
N667 C659 1.427 . S
N667 C665 1.384 . S
H668 C674 0.930 . S
H669 C678 0.930 . S
H670 C683 0.929 . S
H671 C681 0.929 . S
H672 C676 0.929 . S
H673 C682 0.929 . S
C674 H668 0.930 . S
C674 C675 1.367 . S
C674 C682 1.378 . S
C675 C674 1.367 . S
C675 C683 1.433 . S
C676 H672 0.929 . S
C676 C678 1.378 . S
C676 C680 1.350 . S
C677 C680 1.463 . S
C677 C682 1.350 . S
C677 N685 1.427 . S
C678 H669 0.930 . S
C678 C676 1.378 . S
C678 C679 1.367 . S
C679 C678 1.367 . S
C679 C681 1.433 . S
C680 C676 1.350 . S
C680 C677 1.463 . S
C680 N684 1.427 . S
C681 H671 0.929 . S
C681 C679 1.433 . S
C681 N684 1.384 . S
C682 H673 0.929 . S
C682 C674 1.378 . S
C682 C677 1.350 . S
C683 H670 0.929 . S
C683 C675 1.433 . S
C683 N685 1.384 . S
N684 C680 1.427 . S
N684 C681 1.384 . S
N685 C677 1.427 . S
N685 C683 1.384 . S
H686 C692 0.930 . S
H687 C696 0.930 . S
H688 C701 0.929 . S
H689 C699 0.929 . S
H690 C694 0.929 . S
H691 C700 0.929 . S
C692 H686 0.930 . S
C692 C693 1.367 . S
C692 C700 1.378 . S
C693 C692 1.367 . S
C693 C701 1.433 . S
C694 H690 0.929 . S
C694 C696 1.378 . S
C694 C698 1.350 . S
C695 C698 1.463 . S
C695 C700 1.350 . S
C695 N703 1.427 . S
C696 H687 0.930 . S
C696 C694 1.378 . S
C696 C697 1.367 . S
C697 C696 1.367 . S
C697 C699 1.433 . S
C698 C694 1.350 . S
C698 C695 1.463 . S
C698 N702 1.427 . S
C699 H689 0.929 . S
C699 C697 1.433 . S
C699 N702 1.384 . S
C700 H691 0.929 . S
C700 C692 1.378 . S
C700 C695 1.350 . S
C701 H688 0.929 . S
C701 C693 1.433 . S
C701 N703 1.384 . S
N702 C698 1.427 . S
N702 C699 1.384 . S
N703 C695 1.427 . S
N703 C701 1.384 . S
H704 C710 0.930 . S
H705 C714 0.930 . S
H706 C719 0.929 . S
H707 C717 0.929 . S
H708 C712 0.929 . S
H709 C718 0.929 . S
C710 H704 0.930 . S
C710 C711 1.367 . S
C710 C718 1.378 . S
C711 C710 1.367 . S
C711 C719 1.433 . S
C712 H708 0.929 . S
C712 C714 1.378 . S
C712 C716 1.350 . S
C713 C716 1.463 . S
C713 C718 1.350 . S
C713 N721 1.427 . S
C714 H705 0.930 . S
C714 C712 1.378 . S
C714 C715 1.367 . S
C715 C714 1.367 . S
C715 C717 1.433 . S
C716 C712 1.350 . S
C716 C713 1.463 . S
C716 N720 1.427 . S
C717 H707 0.929 . S
C717 C715 1.433 . S
C717 N720 1.384 . S
C718 H709 0.929 . S
C718 C710 1.378 . S
C718 C713 1.350 . S
C719 H706 0.929 . S
C719 C711 1.433 . S
C719 N721 1.384 . S
N720 C716 1.427 . S
N720 C717 1.384 . S
N721 C713 1.427 . S
N721 C719 1.384 . S
H722 C728 0.930 . S
H723 C732 0.930 . S
H724 C737 0.929 . S
H725 C735 0.929 . S
H726 C730 0.929 . S
H727 C736 0.929 . S
C728 H722 0.930 . S
C728 C729 1.367 . S
C728 C736 1.378 . S
C729 C728 1.367 . S
C729 C737 1.433 . S
C730 H726 0.929 . S
C730 C732 1.378 . S
C730 C734 1.350 . S
C731 C734 1.463 . S
C731 C736 1.350 . S
C731 N739 1.427 . S
C732 H723 0.930 . S
C732 C730 1.378 . S
C732 C733 1.367 . S
C733 C732 1.367 . S
C733 C735 1.433 . S
C734 C730 1.350 . S
C734 C731 1.463 . S
C734 N738 1.427 . S
C735 H725 0.929 . S
C735 C733 1.433 . S
C735 N738 1.384 . S
C736 H727 0.929 . S
C736 C728 1.378 . S
C736 C731 1.350 . S
C737 H724 0.929 . S
C737 C729 1.433 . S
C737 N739 1.384 . S
N738 C734 1.427 . S
N738 C735 1.384 . S
N739 C731 1.427 . S
N739 C737 1.384 . S
H740 C746 0.930 1_554 S
H741 C750 0.930 . S
H742 C755 0.929 . S
H743 C753 0.929 . S
H744 C748 0.929 . S
H745 C754 0.929 1_554 S
C746 H740 0.930 1_556 S
C746 C747 1.367 . S
C746 C754 1.378 . S
C747 C746 1.367 . S
C747 C755 1.433 . S
C748 H744 0.929 . S
C748 C750 1.378 . S
C748 C752 1.350 . S
C749 C752 1.463 . S
C749 C754 1.350 . S
C749 N757 1.427 . S
C750 H741 0.930 . S
C750 C748 1.378 . S
C750 C751 1.367 . S
C751 C750 1.367 . S
C751 C753 1.433 1_556 S
C752 C748 1.350 . S
C752 C749 1.463 . S
C752 N756 1.427 1_556 S
C753 H743 0.929 . S
C753 C751 1.433 1_554 S
C753 N756 1.384 . S
C754 H745 0.929 1_556 S
C754 C746 1.378 . S
C754 C749 1.350 . S
C755 H742 0.929 . S
C755 C747 1.433 . S
C755 N757 1.384 . S
N756 C752 1.427 1_554 S
N756 C753 1.384 . S
N757 C749 1.427 . S
N757 C755 1.384 . S
H758 C764 0.930 . S
H759 C768 0.930 . S
H760 C773 0.929 . S
H761 C771 0.929 . S
H762 C766 0.929 . S
H763 C772 0.929 . S
C764 H758 0.930 . S
C764 C765 1.367 . S
C764 C772 1.378 . S
C765 C764 1.367 . S
C765 C773 1.433 . S
C766 H762 0.929 . S
C766 C768 1.378 . S
C766 C770 1.350 . S
C767 C770 1.463 . S
C767 C772 1.350 . S
C767 N775 1.427 . S
C768 H759 0.930 . S
C768 C766 1.378 . S
C768 C769 1.367 . S
C769 C768 1.367 . S
C769 C771 1.433 . S
C770 C766 1.350 . S
C770 C767 1.463 . S
C770 N774 1.427 . S
C771 H761 0.929 . S
C771 C769 1.433 . S
C771 N774 1.384 . S
C772 H763 0.929 . S
C772 C764 1.378 . S
C772 C767 1.350 . S
C773 H760 0.929 . S
C773 C765 1.433 . S
C773 N775 1.384 . S
N774 C770 1.427 . S
N774 C771 1.384 . S
N775 C767 1.427 . S
N775 C773 1.384 . S
H776 C782 0.930 . S
H777 C786 0.930 . S
H778 C791 0.929 . S
H779 C789 0.929 . S
H780 C784 0.929 . S
H781 C790 0.929 . S
C782 H776 0.930 . S
C782 C783 1.367 . S
C782 C790 1.378 . S
C783 C782 1.367 . S
C783 C791 1.433 . S
C784 H780 0.929 . S
C784 C786 1.378 . S
C784 C788 1.350 . S
C785 C788 1.463 . S
C785 C790 1.350 . S
C785 N793 1.427 . S
C786 H777 0.930 . S
C786 C784 1.378 . S
C786 C787 1.367 . S
C787 C786 1.367 . S
C787 C789 1.433 . S
C788 C784 1.350 . S
C788 C785 1.463 . S
C788 N792 1.427 . S
C789 H779 0.929 . S
C789 C787 1.433 . S
C789 N792 1.384 . S
C790 H781 0.929 . S
C790 C782 1.378 . S
C790 C785 1.350 . S
C791 H778 0.929 . S
C791 C783 1.433 . S
C791 N793 1.384 . S
N792 C788 1.427 . S
N792 C789 1.384 . S
N793 C785 1.427 . S
N793 C791 1.384 . S
H794 C800 0.930 . S
H795 C804 0.930 . S
H796 C809 0.929 . S
H797 C807 0.929 . S
H798 C802 0.929 . S
H799 C808 0.929 . S
C800 H794 0.930 . S
C800 C801 1.367 . S
C800 C808 1.378 . S
C801 C800 1.367 . S
C801 C809 1.433 . S
C802 H798 0.929 . S
C802 C804 1.378 . S
C802 C806 1.350 . S
C803 C806 1.463 . S
C803 C808 1.350 . S
C803 N811 1.427 . S
C804 H795 0.930 . S
C804 C802 1.378 . S
C804 C805 1.367 . S
C805 C804 1.367 . S
C805 C807 1.433 . S
C806 C802 1.350 . S
C806 C803 1.463 . S
C806 N810 1.427 . S
C807 H797 0.929 . S
C807 C805 1.433 . S
C807 N810 1.384 . S
C808 H799 0.929 . S
C808 C800 1.378 . S
C808 C803 1.350 . S
C809 H796 0.929 . S
C809 C801 1.433 . S
C809 N811 1.384 . S
N810 C806 1.427 . S
N810 C807 1.384 . S
N811 C803 1.427 . S
N811 C809 1.384 . S
H812 C818 0.930 . S
H813 C822 0.930 . S
H814 C827 0.929 . S
H815 C825 0.929 . S
H816 C820 0.929 . S
H817 C826 0.929 . S
C818 H812 0.930 . S
C818 C819 1.367 . S
C818 C826 1.378 . S
C819 C818 1.367 . S
C819 C827 1.433 . S
C820 H816 0.929 . S
C820 C822 1.378 . S
C820 C824 1.350 . S
C821 C824 1.463 . S
C821 C826 1.350 . S
C821 N829 1.427 . S
C822 H813 0.930 . S
C822 C820 1.378 . S
C822 C823 1.367 . S
C823 C822 1.367 . S
C823 C825 1.433 . S
C824 C820 1.350 . S
C824 C821 1.463 . S
C824 N828 1.427 . S
C825 H815 0.929 . S
C825 C823 1.433 . S
C825 N828 1.384 . S
C826 H817 0.929 . S
C826 C818 1.378 . S
C826 C821 1.350 . S
C827 H814 0.929 . S
C827 C819 1.433 . S
C827 N829 1.384 . S
N828 C824 1.427 . S
N828 C825 1.384 . S
N829 C821 1.427 . S
N829 C827 1.384 . S
H830 C836 0.930 . S
H831 C840 0.930 . S
H832 C845 0.929 . S
H833 C843 0.929 . S
H834 C838 0.929 . S
H835 C844 0.929 . S
C836 H830 0.930 . S
C836 C837 1.367 . S
C836 C844 1.378 . S
C837 C836 1.367 . S
C837 C845 1.433 . S
C838 H834 0.929 . S
C838 C840 1.378 . S
C838 C842 1.350 . S
C839 C842 1.463 . S
C839 C844 1.350 . S
C839 N847 1.427 . S
C840 H831 0.930 . S
C840 C838 1.378 . S
C840 C841 1.367 . S
C841 C840 1.367 . S
C841 C843 1.433 . S
C842 C838 1.350 . S
C842 C839 1.463 . S
C842 N846 1.427 . S
C843 H833 0.929 . S
C843 C841 1.433 . S
C843 N846 1.384 . S
C844 H835 0.929 . S
C844 C836 1.378 . S
C844 C839 1.350 . S
C845 H832 0.929 . S
C845 C837 1.433 . S
C845 N847 1.384 . S
N846 C842 1.427 . S
N846 C843 1.384 . S
N847 C839 1.427 . S
N847 C845 1.384 . S
H848 C854 0.930 . S
H849 C858 0.930 . S
H850 C863 0.929 . S
H851 C861 0.929 . S
H852 C856 0.929 . S
H853 C862 0.929 . S
C854 H848 0.930 . S
C854 C855 1.367 . S
C854 C862 1.378 . S
C855 C854 1.367 . S
C855 C863 1.433 . S
C856 H852 0.929 . S
C856 C858 1.378 . S
C856 C860 1.350 . S
C857 C860 1.463 . S
C857 C862 1.350 . S
C857 N865 1.427 . S
C858 H849 0.930 . S
C858 C856 1.378 . S
C858 C859 1.367 . S
C859 C858 1.367 . S
C859 C861 1.433 . S
C860 C856 1.350 . S
C860 C857 1.463 . S
C860 N864 1.427 . S
C861 H851 0.929 . S
C861 C859 1.433 . S
C861 N864 1.384 . S
C862 H853 0.929 . S
C862 C854 1.378 . S
C862 C857 1.350 . S
C863 H850 0.929 . S
C863 C855 1.433 . S
C863 N865 1.384 . S
N864 C860 1.427 . S
N864 C861 1.384 . S
N865 C857 1.427 . S
N865 C863 1.384 . S
H866 C872 0.930 . S
H867 C876 0.930 . S
H868 C881 0.929 . S
H869 C879 0.929 . S
H870 C874 0.929 . S
H871 C880 0.929 . S
C872 H866 0.930 . S
C872 C873 1.367 . S
C872 C880 1.378 . S
C873 C872 1.367 . S
C873 C881 1.433 . S
C874 H870 0.929 . S
C874 C876 1.378 . S
C874 C878 1.350 . S
C875 C878 1.463 . S
C875 C880 1.350 . S
C875 N883 1.427 . S
C876 H867 0.930 . S
C876 C874 1.378 . S
C876 C877 1.367 . S
C877 C876 1.367 . S
C877 C879 1.433 . S
C878 C874 1.350 . S
C878 C875 1.463 . S
C878 N882 1.427 . S
C879 H869 0.929 . S
C879 C877 1.433 . S
C879 N882 1.384 . S
C880 H871 0.929 . S
C880 C872 1.378 . S
C880 C875 1.350 . S
C881 H868 0.929 . S
C881 C873 1.433 . S
C881 N883 1.384 . S
N882 C878 1.427 . S
N882 C879 1.384 . S
N883 C875 1.427 . S
N883 C881 1.384 . S
H884 C890 0.930 . S
H885 C894 0.930 . S
H886 C899 0.929 . S
H887 C897 0.929 . S
H888 C892 0.929 . S
H889 C898 0.929 . S
C890 H884 0.930 . S
C890 C891 1.367 . S
C890 C898 1.378 . S
C891 C890 1.367 . S
C891 C899 1.433 . S
C892 H888 0.929 . S
C892 C894 1.378 . S
C892 C896 1.350 . S
C893 C896 1.463 . S
C893 C898 1.350 . S
C893 N901 1.427 . S
C894 H885 0.930 . S
C894 C892 1.378 . S
C894 C895 1.367 . S
C895 C894 1.367 . S
C895 C897 1.433 . S
C896 C892 1.350 . S
C896 C893 1.463 . S
C896 N900 1.427 . S
C897 H887 0.929 . S
C897 C895 1.433 . S
C897 N900 1.384 . S
C898 H889 0.929 . S
C898 C890 1.378 . S
C898 C893 1.350 . S
C899 H886 0.929 . S
C899 C891 1.433 . S
C899 N901 1.384 . S
N900 C896 1.427 . S
N900 C897 1.384 . S
N901 C893 1.427 . S
N901 C899 1.384 . S
H902 C908 0.930 . S
H903 C912 0.930 . S
H904 C917 0.929 . S
H905 C915 0.929 . S
H906 C910 0.929 . S
H907 C916 0.929 . S
C908 H902 0.930 . S
C908 C909 1.367 . S
C908 C916 1.378 . S
C909 C908 1.367 . S
C909 C917 1.433 . S
C910 H906 0.929 . S
C910 C912 1.378 . S
C910 C914 1.350 . S
C911 C914 1.463 . S
C911 C916 1.350 . S
C911 N919 1.427 . S
C912 H903 0.930 . S
C912 C910 1.378 . S
C912 C913 1.367 . S
C913 C912 1.367 . S
C913 C915 1.433 . S
C914 C910 1.350 . S
C914 C911 1.463 . S
C914 N918 1.427 . S
C915 H905 0.929 . S
C915 C913 1.433 . S
C915 N918 1.384 . S
C916 H907 0.929 . S
C916 C908 1.378 . S
C916 C911 1.350 . S
C917 H904 0.929 . S
C917 C909 1.433 . S
C917 N919 1.384 . S
N918 C914 1.427 . S
N918 C915 1.384 . S
N919 C911 1.427 . S
N919 C917 1.384 . S
H920 C926 0.930 . S
H921 C930 0.930 . S
H922 C935 0.929 . S
H923 C933 0.929 . S
H924 C928 0.929 . S
H925 C934 0.929 . S
C926 H920 0.930 . S
C926 C927 1.367 . S
C926 C934 1.378 . S
C927 C926 1.367 . S
C927 C935 1.433 . S
C928 H924 0.929 . S
C928 C930 1.378 . S
C928 C932 1.350 . S
C929 C932 1.463 . S
C929 C934 1.350 . S
C929 N937 1.427 . S
C930 H921 0.930 . S
C930 C928 1.378 . S
C930 C931 1.367 . S
C931 C930 1.367 . S
C931 C933 1.433 . S
C932 C928 1.350 . S
C932 C929 1.463 . S
C932 N936 1.427 . S
C933 H923 0.929 . S
C933 C931 1.433 . S
C933 N936 1.384 . S
C934 H925 0.929 . S
C934 C926 1.378 . S
C934 C929 1.350 . S
C935 H922 0.929 . S
C935 C927 1.433 . S
C935 N937 1.384 . S
N936 C932 1.427 . S
N936 C933 1.384 . S
N937 C929 1.427 . S
N937 C935 1.384 . S
H938 C944 0.930 . S
H939 C948 0.930 . S
H940 C953 0.929 . S
H941 C951 0.929 . S
H942 C946 0.929 . S
H943 C952 0.929 . S
C944 H938 0.930 . S
C944 C945 1.367 . S
C944 C952 1.378 . S
C945 C944 1.367 . S
C945 C953 1.433 . S
C946 H942 0.929 . S
C946 C948 1.378 . S
C946 C950 1.350 . S
C947 C950 1.463 . S
C947 C952 1.350 . S
C947 N955 1.427 . S
C948 H939 0.930 . S
C948 C946 1.378 . S
C948 C949 1.367 . S
C949 C948 1.367 . S
C949 C951 1.433 . S
C950 C946 1.350 . S
C950 C947 1.463 . S
C950 N954 1.427 . S
C951 H941 0.929 . S
C951 C949 1.433 . S
C951 N954 1.384 . S
C952 H943 0.929 . S
C952 C944 1.378 . S
C952 C947 1.350 . S
C953 H940 0.929 . S
C953 C945 1.433 . S
C953 N955 1.384 . S
N954 C950 1.427 . S
N954 C951 1.384 . S
N955 C947 1.427 . S
N955 C953 1.384 . S
H956 C962 0.930 . S
H957 C966 0.930 . S
H958 C971 0.929 . S
H959 C969 0.929 . S
H960 C964 0.929 . S
H961 C970 0.929 . S
C962 H956 0.930 . S
C962 C963 1.367 . S
C962 C970 1.378 . S
C963 C962 1.367 . S
C963 C971 1.433 . S
C964 H960 0.929 . S
C964 C966 1.378 . S
C964 C968 1.350 . S
C965 C968 1.463 . S
C965 C970 1.350 . S
C965 N973 1.427 . S
C966 H957 0.930 . S
C966 C964 1.378 . S
C966 C967 1.367 . S
C967 C966 1.367 . S
C967 C969 1.433 . S
C968 C964 1.350 . S
C968 C965 1.463 . S
C968 N972 1.427 . S
C969 H959 0.929 . S
C969 C967 1.433 . S
C969 N972 1.384 . S
C970 H961 0.929 . S
C970 C962 1.378 . S
C970 C965 1.350 . S
C971 H958 0.929 . S
C971 C963 1.433 . S
C971 N973 1.384 . S
N972 C968 1.427 . S
N972 C969 1.384 . S
N973 C965 1.427 . S
N973 C971 1.384 . S
H974 C980 0.930 . S
H975 C984 0.930 . S
H976 C989 0.929 . S
H977 C987 0.929 . S
H978 C982 0.929 . S
H979 C988 0.929 . S
C980 H974 0.930 . S
C980 C981 1.367 . S
C980 C988 1.378 . S
C981 C980 1.367 . S
C981 C989 1.433 . S
C982 H978 0.929 . S
C982 C984 1.378 . S
C982 C986 1.350 . S
C983 C986 1.463 . S
C983 C988 1.350 . S
C983 N991 1.427 . S
C984 H975 0.930 . S
C984 C982 1.378 . S
C984 C985 1.367 . S
C985 C984 1.367 . S
C985 C987 1.433 . S
C986 C982 1.350 . S
C986 C983 1.463 . S
C986 N990 1.427 . S
C987 H977 0.929 . S
C987 C985 1.433 . S
C987 N990 1.384 . S
C988 H979 0.929 . S
C988 C980 1.378 . S
C988 C983 1.350 . S
C989 H976 0.929 . S
C989 C981 1.433 . S
C989 N991 1.384 . S
N990 C986 1.427 . S
N990 C987 1.384 . S
N991 C983 1.427 . S
N991 C989 1.384 . S
H992 C998 0.930 . S
H993 C1002 0.930 . S
H994 C1007 0.929 . S
H995 C1005 0.929 . S
H996 C1000 0.929 . S
H997 C1006 0.929 . S
C998 H992 0.930 . S
C998 C999 1.367 . S
C998 C1006 1.378 . S
C999 C998 1.367 . S
C999 C1007 1.433 . S
C1000 H996 0.929 . S
C1000 C1002 1.378 . S
C1000 C1004 1.350 . S
C1001 C1004 1.463 . S
C1001 C1006 1.350 . S
C1001 N1009 1.427 . S
C1002 H993 0.930 . S
C1002 C1000 1.378 . S
C1002 C1003 1.367 . S
C1003 C1002 1.367 . S
C1003 C1005 1.433 . S
C1004 C1000 1.350 . S
C1004 C1001 1.463 . S
C1004 N1008 1.427 . S
C1005 H995 0.929 . S
C1005 C1003 1.433 . S
C1005 N1008 1.384 . S
C1006 H997 0.929 . S
C1006 C998 1.378 . S
C1006 C1001 1.350 . S
C1007 H994 0.929 . S
C1007 C999 1.433 . S
C1007 N1009 1.384 . S
N1008 C1004 1.427 . S
N1008 C1005 1.384 . S
N1009 C1001 1.427 . S
N1009 C1007 1.384 . S
H1010 C1016 0.930 . S
H1011 C1020 0.930 . S
H1012 C1025 0.929 . S
H1013 C1023 0.929 . S
H1014 C1018 0.929 . S
H1015 C1024 0.929 . S
C1016 H1010 0.930 . S
C1016 C1017 1.367 . S
C1016 C1024 1.378 . S
C1017 C1016 1.367 . S
C1017 C1025 1.433 . S
C1018 H1014 0.929 . S
C1018 C1020 1.378 . S
C1018 C1022 1.350 . S
C1019 C1022 1.463 . S
C1019 C1024 1.350 . S
C1019 N1027 1.427 . S
C1020 H1011 0.930 . S
C1020 C1018 1.378 . S
C1020 C1021 1.367 . S
C1021 C1020 1.367 . S
C1021 C1023 1.433 . S
C1022 C1018 1.350 . S
C1022 C1019 1.463 . S
C1022 N1026 1.427 . S
C1023 H1013 0.929 . S
C1023 C1021 1.433 . S
C1023 N1026 1.384 . S
C1024 H1015 0.929 . S
C1024 C1016 1.378 . S
C1024 C1019 1.350 . S
C1025 H1012 0.929 . S
C1025 C1017 1.433 . S
C1025 N1027 1.384 . S
N1026 C1022 1.427 . S
N1026 C1023 1.384 . S
N1027 C1019 1.427 . S
N1027 C1025 1.384 . S
H1028 C1034 0.930 . S
H1029 C1038 0.930 . S
H1030 C1043 0.929 . S
H1031 C1041 0.929 . S
H1032 C1036 0.929 . S
H1033 C1042 0.929 . S
C1034 H1028 0.930 . S
C1034 C1035 1.367 . S
C1034 C1042 1.378 . S
C1035 C1034 1.367 . S
C1035 C1043 1.433 . S
C1036 H1032 0.929 . S
C1036 C1038 1.378 . S
C1036 C1040 1.350 . S
C1037 C1040 1.463 . S
C1037 C1042 1.350 . S
C1037 N1045 1.427 . S
C1038 H1029 0.930 . S
C1038 C1036 1.378 . S
C1038 C1039 1.367 . S
C1039 C1038 1.367 . S
C1039 C1041 1.433 . S
C1040 C1036 1.350 . S
C1040 C1037 1.463 . S
C1040 N1044 1.427 . S
C1041 H1031 0.929 . S
C1041 C1039 1.433 . S
C1041 N1044 1.384 . S
C1042 H1033 0.929 . S
C1042 C1034 1.378 . S
C1042 C1037 1.350 . S
C1043 H1030 0.929 . S
C1043 C1035 1.433 . S
C1043 N1045 1.384 . S
N1044 C1040 1.427 . S
N1044 C1041 1.384 . S
N1045 C1037 1.427 . S
N1045 C1043 1.384 . S
H1046 C1052 0.930 . S
H1047 C1056 0.930 . S
H1048 C1061 0.929 . S
H1049 C1059 0.929 . S
H1050 C1054 0.929 . S
H1051 C1060 0.929 . S
C1052 H1046 0.930 . S
C1052 C1053 1.367 . S
C1052 C1060 1.378 . S
C1053 C1052 1.367 . S
C1053 C1061 1.433 . S
C1054 H1050 0.929 . S
C1054 C1056 1.378 . S
C1054 C1058 1.350 . S
C1055 C1058 1.463 . S
C1055 C1060 1.350 . S
C1055 N1063 1.427 . S
C1056 H1047 0.930 . S
C1056 C1054 1.378 . S
C1056 C1057 1.367 . S
C1057 C1056 1.367 . S
C1057 C1059 1.433 . S
C1058 C1054 1.350 . S
C1058 C1055 1.463 . S
C1058 N1062 1.427 . S
C1059 H1049 0.929 . S
C1059 C1057 1.433 . S
C1059 N1062 1.384 . S
C1060 H1051 0.929 . S
C1060 C1052 1.378 . S
C1060 C1055 1.350 . S
C1061 H1048 0.929 . S
C1061 C1053 1.433 . S
C1061 N1063 1.384 . S
N1062 C1058 1.427 . S
N1062 C1059 1.384 . S
N1063 C1055 1.427 . S
N1063 C1061 1.384 . S
C499 C397 1.347 . S
C495 C36 1.379 . S
C517 C415 1.326 . S
C513 C93 1.389 . S
C535 C423 1.334 . S
C531 C126 1.383 . S
C549 C165 1.368 . S
C553 C389 1.332 . S
C567 C222 1.387 . S
C571 C384 1.333 . S
C585 C261 1.378 . S
C589 C402 1.341 . S
C607 C410 1.331 . S
C603 C318 1.387 . S
C625 C428 1.325 . S
C621 C381 1.390 . S
C639 C132 1.374 . S
C643 C449 1.345 . S
C661 C467 1.344 . S
C657 C189 1.396 . S
C675 C30 1.386 . S
C679 C475 1.330 . S
C697 C441 1.331 . S
C693 C69 1.369 . S
C711 C324 1.376 . S
C715 C436 1.333 . S
C729 C357 1.369 . S
C733 C454 1.332 . S
C751 C462 1.347 . S
C747 C228 1.385 . S
C765 C285 1.386 . S
C769 C480 1.335 . S
C787 C418 1.545 . S
C783 C45 1.537 . S
C805 C433 1.508 . S
C801 C84 1.537 . S
C819 C117 1.530 . S
C823 C392 1.546 . S
C837 C174 1.513 . S
C841 C407 1.513 . S
C855 C213 1.533 . S
C859 C431 1.545 . S
C877 C394 1.506 . S
C873 C270 1.507 . S
C895 C405 1.546 . S
C891 C309 1.532 . S
C913 C420 1.513 . S
C909 C372 1.541 . S
C931 C470 1.546 . S
C927 C141 1.527 . S
C949 C485 1.517 . S
C945 C180 1.539 . S
C963 C21 1.533 . S
C967 C444 1.543 . S
C985 C459 1.514 . S
C981 C78 1.513 . S
C1003 C483 1.544 . S
C999 C333 1.526 . S
C1017 C366 1.508 . S
C1021 C446 1.518 . S
C1039 C457 1.545 . S
C1035 C237 1.526 . S
C1057 C472 1.514 . S
C1053 C276 1.541 . S
