# Generated by pormake.
# Topology ssc, (4,4)-cn, num edge types: 1
# Building blocks:
#     Node 0, Type 0, BuildingBlock: CEKHIL_clean_sbu_0, # of connection points: 4
#     Node 1, Type 0, BuildingBlock: CEKHIL_clean_sbu_0, # of connection points: 4
#     Node 2, Type 0, BuildingBlock: CEKHIL_clean_sbu_0, # of connection points: 4
#     Node 3, Type 0, BuildingBlock: CEKHIL_clean_sbu_0, # of connection points: 4
#     Node 4, Type 0, BuildingBlock: CEKHIL_clean_sbu_0, # of connection points: 4
#     Node 5, Type 0, BuildingBlock: CEKHIL_clean_sbu_0, # of connection points: 4
#     Node 6, Type 0, BuildingBlock: CEKHIL_clean_sbu_0, # of connection points: 4
#     Node 7, Type 0, BuildingBlock: CEKHIL_clean_sbu_0, # of connection points: 4
#     Node 8, Type 0, BuildingBlock: CEKHIL_clean_sbu_0, # of connection points: 4
#     Node 9, Type 0, BuildingBlock: CEKHIL_clean_sbu_0, # of connection points: 4
#     Node 10, Type 0, BuildingBlock: CEKHIL_clean_sbu_0, # of connection points: 4
#     Node 11, Type 0, BuildingBlock: CEKHIL_clean_sbu_0, # of connection points: 4
#     Node 12, Type 1, BuildingBlock: GIZVER_clean_linker_0, # of connection points: 4
#     Node 13, Type 1, BuildingBlock: GIZVER_clean_linker_0, # of connection points: 4
#     Node 14, Type 1, BuildingBlock: GIZVER_clean_linker_0, # of connection points: 4
#     Node 15, Type 1, BuildingBlock: GIZVER_clean_linker_0, # of connection points: 4
#     Node 16, Type 1, BuildingBlock: GIZVER_clean_linker_0, # of connection points: 4
#     Node 17, Type 1, BuildingBlock: GIZVER_clean_linker_0, # of connection points: 4
#     Node 18, Type 1, BuildingBlock: GIZVER_clean_linker_0, # of connection points: 4
#     Node 19, Type 1, BuildingBlock: GIZVER_clean_linker_0, # of connection points: 4
#     Node 20, Type 1, BuildingBlock: GIZVER_clean_linker_0, # of connection points: 4
#     Node 21, Type 1, BuildingBlock: GIZVER_clean_linker_0, # of connection points: 4
#     Node 22, Type 1, BuildingBlock: GIZVER_clean_linker_0, # of connection points: 4
#     Node 23, Type 1, BuildingBlock: GIZVER_clean_linker_0, # of connection points: 4
#     Edge 24, Type (0, 1), BuildingBlock: TEMPAE_clean_linker_10, # of connection points: 2
#     Edge 25, Type (0, 1), BuildingBlock: TEMPAE_clean_linker_10, # of connection points: 2
#     Edge 26, Type (0, 1), BuildingBlock: TEMPAE_clean_linker_10, # of connection points: 2
#     Edge 27, Type (0, 1), BuildingBlock: TEMPAE_clean_linker_10, # of connection points: 2
#     Edge 28, Type (0, 1), BuildingBlock: TEMPAE_clean_linker_10, # of connection points: 2
#     Edge 29, Type (0, 1), BuildingBlock: TEMPAE_clean_linker_10, # of connection points: 2
#     Edge 30, Type (0, 1), BuildingBlock: TEMPAE_clean_linker_10, # of connection points: 2
#     Edge 31, Type (0, 1), BuildingBlock: TEMPAE_clean_linker_10, # of connection points: 2
#     Edge 32, Type (0, 1), BuildingBlock: TEMPAE_clean_linker_10, # of connection points: 2
#     Edge 33, Type (0, 1), BuildingBlock: TEMPAE_clean_linker_10, # of connection points: 2
#     Edge 34, Type (0, 1), BuildingBlock: TEMPAE_clean_linker_10, # of connection points: 2
#     Edge 35, Type (0, 1), BuildingBlock: TEMPAE_clean_linker_10, # of connection points: 2
#     Edge 36, Type (0, 1), BuildingBlock: TEMPAE_clean_linker_10, # of connection points: 2
#     Edge 37, Type (0, 1), BuildingBlock: TEMPAE_clean_linker_10, # of connection points: 2
#     Edge 38, Type (0, 1), BuildingBlock: TEMPAE_clean_linker_10, # of connection points: 2
#     Edge 39, Type (0, 1), BuildingBlock: TEMPAE_clean_linker_10, # of connection points: 2
#     Edge 40, Type (0, 1), BuildingBlock: TEMPAE_clean_linker_10, # of connection points: 2
#     Edge 41, Type (0, 1), BuildingBlock: TEMPAE_clean_linker_10, # of connection points: 2
#     Edge 42, Type (0, 1), BuildingBlock: TEMPAE_clean_linker_10, # of connection points: 2
#     Edge 43, Type (0, 1), BuildingBlock: TEMPAE_clean_linker_10, # of connection points: 2
#     Edge 44, Type (0, 1), BuildingBlock: TEMPAE_clean_linker_10, # of connection points: 2
#     Edge 45, Type (0, 1), BuildingBlock: TEMPAE_clean_linker_10, # of connection points: 2
#     Edge 46, Type (0, 1), BuildingBlock: TEMPAE_clean_linker_10, # of connection points: 2
#     Edge 47, Type (0, 1), BuildingBlock: TEMPAE_clean_linker_10, # of connection points: 2
#     Edge 48, Type (0, 1), BuildingBlock: TEMPAE_clean_linker_10, # of connection points: 2
#     Edge 49, Type (0, 1), BuildingBlock: TEMPAE_clean_linker_10, # of connection points: 2
#     Edge 50, Type (0, 1), BuildingBlock: TEMPAE_clean_linker_10, # of connection points: 2
#     Edge 51, Type (0, 1), BuildingBlock: TEMPAE_clean_linker_10, # of connection points: 2
#     Edge 52, Type (0, 1), BuildingBlock: TEMPAE_clean_linker_10, # of connection points: 2
#     Edge 53, Type (0, 1), BuildingBlock: TEMPAE_clean_linker_10, # of connection points: 2
#     Edge 54, Type (0, 1), BuildingBlock: TEMPAE_clean_linker_10, # of connection points: 2
#     Edge 55, Type (0, 1), BuildingBlock: TEMPAE_clean_linker_10, # of connection points: 2
#     Edge 56, Type (0, 1), BuildingBlock: TEMPAE_clean_linker_10, # of connection points: 2
#     Edge 57, Type (0, 1), BuildingBlock: TEMPAE_clean_linker_10, # of connection points: 2
#     Edge 58, Type (0, 1), BuildingBlock: TEMPAE_clean_linker_10, # of connection points: 2
#     Edge 59, Type (0, 1), BuildingBlock: TEMPAE_clean_linker_10, # of connection points: 2
#     Edge 60, Type (0, 1), BuildingBlock: TEMPAE_clean_linker_10, # of connection points: 2
#     Edge 61, Type (0, 1), BuildingBlock: TEMPAE_clean_linker_10, # of connection points: 2
#     Edge 62, Type (0, 1), BuildingBlock: TEMPAE_clean_linker_10, # of connection points: 2
#     Edge 63, Type (0, 1), BuildingBlock: TEMPAE_clean_linker_10, # of connection points: 2
#     Edge 64, Type (0, 1), BuildingBlock: TEMPAE_clean_linker_10, # of connection points: 2
#     Edge 65, Type (0, 1), BuildingBlock: TEMPAE_clean_linker_10, # of connection points: 2
#     Edge 66, Type (0, 1), BuildingBlock: TEMPAE_clean_linker_10, # of connection points: 2
#     Edge 67, Type (0, 1), BuildingBlock: TEMPAE_clean_linker_10, # of connection points: 2
#     Edge 68, Type (0, 1), BuildingBlock: TEMPAE_clean_linker_10, # of connection points: 2
#     Edge 69, Type (0, 1), BuildingBlock: TEMPAE_clean_linker_10, # of connection points: 2
#     Edge 70, Type (0, 1), BuildingBlock: TEMPAE_clean_linker_10, # of connection points: 2
#     Edge 71, Type (0, 1), BuildingBlock: TEMPAE_clean_linker_10, # of connection points: 2
# Relax obj value: 0.117
# Max RMSD: 0.302
# Mean RMSD: 0.276
data_MOF--net-ssc--node1-CEKHIL_clean_sbu_0--node2-GIZVER_clean_linker_0--edge1-TEMPAE_clean_linker_10
_symmetry_space_group_name_H-M    P1
_symmetry_Int_Tables_number       1
_symmetry_cell_setting            triclinic
loop_
_symmetry_equiv_pos_as_xyz
'x, y, z'
_cell_length_a     31.37804
_cell_length_b     31.476641
_cell_length_c     31.341069
_cell_angle_alpha  91.554123
_cell_angle_beta   89.916827
_cell_angle_gamma 93.3651
loop_
_atom_site_label
_atom_site_type_symbol
_atom_site_fract_x
_atom_site_fract_y
_atom_site_fract_z
_atom_type_partial_charge
Co0 Co 0.0244 0.24446 0.13336 0.0
O1 O 0.06005 0.25654 0.08504 0.0
O2 O 0.00467 0.2932 0.10383 0.0
C3 C 0.07648 0.23714 0.18178 0.0
O4 O 0.98251 0.24215 0.18339 0.0
Co5 Co 0.02684 0.15406 0.17074 0.0
O6 O 0.99583 0.18236 0.21763 0.0
C7 C 0.98374 0.16392 0.08959 0.0
C8 C 0.03669 0.28827 0.07805 0.0
C9 C 0.97843 0.21793 0.21588 0.0
O10 O 0.98606 0.20448 0.09667 0.0
O11 O 0.00203 0.13796 0.11325 0.0
O12 O 0.06564 0.27463 0.17117 0.0
O13 O 0.06009 0.206 0.15815 0.0
Co14 Co 0.02949 0.75154 0.43188 0.0
O15 O 0.06436 0.72848 0.47485 0.0
O16 O -0.00032 0.70263 0.45567 0.0
C17 C 0.07954 0.7611 0.38171 0.0
O18 O 0.98525 0.7641 0.38766 0.0
Co19 Co 0.04522 0.84304 0.39812 0.0
O20 O 0.01244 0.81767 0.34842 0.0
C21 C 0.01511 0.8301 0.4856 0.0
C22 C 0.03322 0.69981 0.47944 0.0
C23 C 0.98761 0.78457 0.35273 0.0
O24 O 0.00462 0.79076 0.47621 0.0
O25 O 0.0353 0.85517 0.46015 0.0
O26 O 0.0614 0.7233 0.38677 0.0
O27 O 0.0704 0.78971 0.40993 0.0
Co28 Co 0.51765 0.75731 0.62113 0.0
O29 O 0.55516 0.77148 0.57431 0.0
O30 O 0.49606 0.80373 0.59 0.0
C31 C 0.56679 0.75361 0.67309 0.0
O32 O 0.47269 0.75387 0.66778 0.0
Co33 Co 0.52162 0.66935 0.66397 0.0
O34 O 0.48882 0.69932 0.70844 0.0
C35 C 0.48565 0.67322 0.57825 0.0
C36 C 0.52936 0.80087 0.56562 0.0
C37 C 0.46925 0.73308 0.70248 0.0
O38 O 0.48468 0.71398 0.58306 0.0
O39 O 0.50295 0.6499 0.60532 0.0
O40 O 0.55475 0.79032 0.66121 0.0
O41 O 0.55349 0.72143 0.6492 0.0
Co42 Co 0.51077 0.26556 0.89871 0.0
O43 O 0.54609 0.24707 0.94372 0.0
O44 O 0.48028 0.22106 0.92972 0.0
C45 C 0.55871 0.266 0.84593 0.0
O46 O 0.46645 0.27422 0.85312 0.0
Co47 Co 0.53126 0.35326 0.85703 0.0
O48 O 0.49075 0.32896 0.81304 0.0
C49 C 0.50276 0.34956 0.94552 0.0
C50 C 0.51458 0.22019 0.95284 0.0
C51 C 0.46593 0.29617 0.81907 0.0
O52 O 0.48859 0.31076 0.93858 0.0
O53 O 0.52498 0.37087 0.91839 0.0
O54 O 0.53965 0.23022 0.85715 0.0
O55 O 0.55263 0.29858 0.8707 0.0
Co56 Co 0.12877 0.99681 0.25082 0.0
O57 O 0.18237 0.97896 0.22797 0.0
O58 O 0.16151 0.97377 0.29541 0.0
C59 C 0.08414 0.97126 0.19889 0.0
O60 O 0.07742 0.00892 0.28673 0.0
Co61 Co 0.07535 0.06304 0.20759 0.0
O62 O 0.03172 0.04764 0.25185 0.0
C63 C 0.15729 0.08993 0.24718 0.0
C64 C 0.19111 0.96913 0.267 0.0
C65 C 0.04143 0.02583 0.28377 0.0
O66 O 0.15646 0.05398 0.26543 0.0
O67 O 0.12995 0.09873 0.21895 0.0
O68 O 0.09749 0.94597 0.22762 0.0
O69 O 0.10229 0.00916 0.19941 0.0
Co70 Co 0.23483 0.92518 0.57498 0.0
O71 O 0.21485 0.97313 0.60729 0.0
O72 O 0.19437 0.95428 0.54149 0.0
C73 C 0.22756 0.87562 0.62521 0.0
O74 O 0.24579 0.87779 0.53231 0.0
Co75 Co 0.31633 0.87952 0.59954 0.0
O76 O 0.29099 0.83365 0.56081 0.0
C77 C 0.32492 0.96306 0.55902 0.0
C78 C 0.19113 0.97981 0.57441 0.0
C79 C 0.26343 0.84199 0.53287 0.0
O80 O 0.28432 0.96176 0.55241 0.0
O81 O 0.34328 0.93506 0.58017 0.0
O82 O 0.19469 0.88607 0.60348 0.0
O83 O 0.26223 0.89905 0.61966 0.0
Co84 Co 0.40584 0.0411 0.74125 0.0
O85 O 0.36176 0.07393 0.71833 0.0
O86 O 0.38246 0.07551 0.78605 0.0
C87 C 0.45566 0.05081 0.69058 0.0
O88 O 0.44973 0.01437 0.77741 0.0
Co89 Co 0.4341 0.95846 0.69628 0.0
O90 O 0.47671 0.95835 0.74324 0.0
C91 C 0.34711 0.96452 0.72741 0.0
C92 C 0.35626 0.08768 0.75746 0.0
C93 C 0.47591 0.98463 0.77489 0.0
O94 O 0.36124 0.99491 0.7525 0.0
O95 O 0.37034 0.94674 0.6994 0.0
O96 O 0.45069 0.08014 0.71999 0.0
O97 O 0.42733 0.01928 0.68984 0.0
Co98 Co 0.26472 0.11731 0.03676 0.0
O99 O 0.28186 0.0771 0.07769 0.0
O100 O 0.31064 0.08582 0.0136 0.0
C101 C 0.26099 0.17438 0.08064 0.0
O102 O 0.25931 0.1573 0.98755 0.0
Co103 Co 0.17708 0.15854 0.04177 0.0
O104 O 0.20675 0.20047 0.00389 0.0
C105 C 0.18027 0.06815 0.01889 0.0
C106 C 0.31018 0.06638 0.04963 0.0
C107 C 0.24027 0.19197 0.98306 0.0
O108 O 0.22078 0.07349 0.01241 0.0
O109 O 0.1574 0.09718 0.03418 0.0
O110 O 0.29789 0.16321 0.06663 0.0
O111 O 0.22902 0.14774 0.07233 0.0
Co112 Co 0.75296 0.40885 0.0348 0.0
O113 O 0.73298 0.4512 0.07494 0.0
O114 O 0.71189 0.44259 0.00777 0.0
C115 C 0.74859 0.35208 0.07709 0.0
O116 O 0.76172 0.3686 0.98449 0.0
Co117 Co 0.83534 0.35975 0.04632 0.0
O118 O 0.80844 0.32069 0.00201 0.0
C119 C 0.8421 0.45029 0.02596 0.0
C120 C 0.70874 0.46282 0.04413 0.0
C121 C 0.77872 0.33281 0.97839 0.0
O122 O 0.80192 0.44921 0.01686 0.0
O123 O 0.86016 0.41915 0.04218 0.0
O124 O 0.71428 0.36501 0.05944 0.0
O125 O 0.78269 0.37645 0.07264 0.0
Co126 Co 0.92402 0.55368 0.24796 0.0
O127 O 0.87155 0.56837 0.22229 0.0
O128 O 0.88687 0.5761 0.29119 0.0
C129 C 0.96856 0.58216 0.19883 0.0
O130 O 0.97452 0.54327 0.286 0.0
Co131 Co 0.98321 0.49158 0.20135 0.0
O132 O 0.02343 0.50869 0.24844 0.0
C133 C 0.89968 0.46066 0.23446 0.0
C134 C 0.85937 0.57903 0.26055 0.0
C135 C 0.01153 0.52805 0.2823 0.0
O136 O 0.89818 0.49512 0.25706 0.0
O137 O 0.92925 0.45437 0.20719 0.0
O138 O 0.95352 0.60615 0.22912 0.0
O139 O 0.95313 0.54331 0.19716 0.0
Co140 Co 0.74012 0.60339 0.50815 0.0
O141 O 0.74681 0.55186 0.53786 0.0
O142 O 0.7853 0.57236 0.48194 0.0
C143 C 0.73808 0.64884 0.56414 0.0
O144 O 0.74351 0.65638 0.47192 0.0
Co145 Co 0.6552 0.64834 0.51924 0.0
O146 O 0.69091 0.69642 0.49592 0.0
C147 C 0.65518 0.56832 0.47031 0.0
C148 C 0.77751 0.54453 0.51137 0.0
C149 C 0.72596 0.69235 0.47598 0.0
O150 O 0.69625 0.57244 0.46959 0.0
O151 O 0.63226 0.59334 0.49198 0.0
O152 O 0.77437 0.6359 0.55054 0.0
O153 O 0.70453 0.62824 0.5483 0.0
Co154 Co 0.61661 0.49867 0.75518 0.0
O155 O 0.6643 0.47045 0.73138 0.0
O156 O 0.64475 0.46934 0.79935 0.0
C157 C 0.56796 0.47966 0.70442 0.0
O158 O 0.56959 0.52138 0.79164 0.0
Co159 Co 0.57619 0.57298 0.71008 0.0
O160 O 0.53094 0.56516 0.75425 0.0
C161 C 0.66228 0.58502 0.74676 0.0
C162 C 0.6715 0.45836 0.76998 0.0
C163 C 0.53697 0.5436 0.78736 0.0
O164 O 0.65504 0.5507 0.76741 0.0
O165 O 0.63651 0.59752 0.71868 0.0
O166 O 0.57675 0.4534 0.73406 0.0
O167 O 0.59204 0.51438 0.70368 0.0
H168 H 0.08883 0.28144 0.78463 0.0
H169 H 0.02224 0.25132 0.66673 0.0
H170 H 0.08188 0.15361 0.73396 0.0
H171 H 0.06738 0.33756 0.74503 0.0
H172 H 0.07101 0.32508 0.68952 0.0
H173 H 0.98989 0.32471 0.77968 0.0
H174 H 0.8981 0.38249 0.70184 0.0
H175 H 0.01602 0.34704 0.64629 0.0
C176 C 0.07595 0.2579 0.76148 0.0
C177 C 0.08697 0.21555 0.76426 0.0
C178 C 0.05289 0.2711 0.72631 0.0
C179 C 0.03834 0.24086 0.6948 0.0
C180 C 0.04717 0.19777 0.6982 0.0
C181 C 0.07106 0.18566 0.7334 0.0
C182 C 0.05176 0.31812 0.71862 0.0
C183 C 0.00719 0.33223 0.71311 0.0
C184 C 0.97981 0.33498 0.74874 0.0
C185 C 0.94037 0.35313 0.74453 0.0
C186 C 0.92827 0.36769 0.70486 0.0
C187 C 0.95532 0.36582 0.66957 0.0
C188 C 0.99454 0.34742 0.6734 0.0
H189 H 0.07896 0.80505 0.75545 0.0
H190 H 0.04665 0.76546 0.8817 0.0
H191 H 0.03882 0.8961 0.84817 0.0
H192 H 0.0803 0.73296 0.76857 0.0
H193 H 0.09962 0.72894 0.82169 0.0
H194 H 0.99499 0.72236 0.76026 0.0
H195 H 0.94476 0.61635 0.83176 0.0
H196 H 0.06645 0.67686 0.8657 0.0
C197 C 0.06411 0.81186 0.78596 0.0
C198 C 0.05996 0.85423 0.79911 0.0
C199 C 0.05725 0.77907 0.81503 0.0
C200 C 0.04606 0.78942 0.85755 0.0
C201 C 0.03898 0.83182 0.86972 0.0
C202 C 0.04086 0.8629 0.83844 0.0
C203 C 0.0708 0.73522 0.80274 0.0
C204 C 0.03574 0.70188 0.8106 0.0
C205 C -0.0013 0.69953 0.78508 0.0
C206 C 0.96609 0.66827 0.79248 0.0
C207 C 0.97082 0.63942 0.82492 0.0
C208 C 0.00662 0.64267 0.85152 0.0
C209 C 0.0391 0.67392 0.84451 0.0
H210 H 0.50184 0.71436 0.14626 0.0
H211 H 0.55182 0.73854 0.27358 0.0
H212 H 0.63005 0.68494 0.1764 0.0
H213 H 0.45405 0.72963 0.20554 0.0
H214 H 0.47419 0.73563 0.25881 0.0
H215 H 0.48119 0.79197 0.15302 0.0
H216 H 0.45346 0.91151 0.21042 0.0
H217 H 0.46697 0.8034 0.28952 0.0
C218 C 0.52826 0.7153 0.16856 0.0
C219 C 0.56729 0.69945 0.15565 0.0
C220 C 0.52284 0.73078 0.21084 0.0
C221 C 0.55637 0.72887 0.24051 0.0
C222 C 0.5952 0.71292 0.22762 0.0
C223 C 0.60059 0.69938 0.18527 0.0
C224 C 0.48012 0.74539 0.22536 0.0
C225 C 0.47779 0.79303 0.22208 0.0
C226 C 0.47782 0.81152 0.18167 0.0
C227 C 0.47075 0.85476 0.17808 0.0
C228 C 0.46278 0.87929 0.21476 0.0
C229 C 0.45946 0.86109 0.25517 0.0
C230 C 0.46917 0.81817 0.25873 0.0
H231 H 0.6285 0.22449 0.23454 0.0
H232 H 0.53672 0.26087 0.32898 0.0
H233 H 0.61546 0.35613 0.2672 0.0
H234 H 0.5667 0.17334 0.25198 0.0
H235 H 0.5926 0.17682 0.30229 0.0
H236 H 0.48807 0.20407 0.25207 0.0
H237 H 0.41424 0.16293 0.36036 0.0
H238 H 0.54995 0.15233 0.36043 0.0
C239 C 0.61098 0.24894 0.25054 0.0
C240 C 0.62478 0.29176 0.24671 0.0
C241 C 0.57757 0.23718 0.27841 0.0
C242 C 0.55925 0.26914 0.30391 0.0
C243 C 0.57193 0.31219 0.29873 0.0
C244 C 0.60311 0.32321 0.26849 0.0
C245 C 0.56655 0.19011 0.28369 0.0
C246 C 0.52401 0.18089 0.30464 0.0
C247 C 0.48651 0.19143 0.28391 0.0
C248 C 0.44716 0.18599 0.30456 0.0
C249 C 0.44512 0.16912 0.34534 0.0
C250 C 0.48183 0.15626 0.3652 0.0
C251 C 0.52146 0.16238 0.34504 0.0
H252 H 0.60192 0.9814 0.18638 0.0
H253 H 0.73336 0.02511 0.20837 0.0
H254 H 0.64505 0.10867 0.15587 0.0
H255 H 0.6501 0.93261 0.21195 0.0
H256 H 0.70465 0.94479 0.19813 0.0
H257 H 0.62662 0.9752 0.28492 0.0
H258 H 0.71033 0.93818 0.38404 0.0
H259 H 0.75017 0.93052 0.25388 0.0
C260 C 0.62676 0.00683 0.18731 0.0
C261 C 0.61851 0.0465 0.17098 0.0
C262 C 0.66786 -0.00053 0.20267 0.0
C263 C 0.70101 0.0315 0.19955 0.0
C264 C 0.69257 0.07077 0.18251 0.0
C265 C 0.65105 0.07859 0.17034 0.0
C266 C 0.67759 0.95604 0.21753 0.0
C267 C 0.68877 0.95681 0.2644 0.0
C268 C 0.65764 0.96602 0.29523 0.0
C269 C 0.66523 0.95991 0.33883 0.0
C270 C 0.70524 0.94647 0.35114 0.0
C271 C 0.73568 0.93525 0.32079 0.0
C272 C 0.72771 0.94143 0.27751 0.0
H273 H 0.24213 0.25638 0.57697 0.0
H274 H 0.25213 0.39292 0.57047 0.0
H275 H 0.36517 0.32371 0.57066 0.0
H276 H 0.18199 0.29492 0.59434 0.0
H277 H 0.18912 0.35096 0.60445 0.0
H278 H 0.17626 0.26827 0.51485 0.0
H279 H 0.10572 0.35047 0.43777 0.0
H280 H 0.15985 0.39835 0.55632 0.0
C281 C 0.26159 0.28553 0.57258 0.0
C282 C 0.30629 0.28477 0.57422 0.0
C283 C 0.24181 0.32439 0.57147 0.0
C284 C 0.26701 0.3627 0.5686 0.0
C285 C 0.3116 0.36204 0.56639 0.0
C286 C 0.33071 0.32298 0.56782 0.0
C287 C 0.19468 0.32524 0.58036 0.0
C288 C 0.17044 0.3324 0.54018 0.0
C289 C 0.16346 0.29895 0.50967 0.0
C290 C 0.13941 0.30509 0.47291 0.0
C291 C 0.12306 0.34498 0.46686 0.0
C292 C 0.12997 0.37853 0.49678 0.0
C293 C 0.15425 0.37239 0.5332 0.0
H294 H 0.86052 0.028 0.71892 0.0
H295 H 0.73088 0.97425 0.71319 0.0
H296 H 0.83532 0.89542 0.68739 0.0
H297 H 0.8025 0.07413 0.72224 0.0
H298 H 0.74993 0.05296 0.70903 0.0
H299 H 0.82788 0.03946 0.80003 0.0
H300 H 0.74352 0.08965 0.89318 0.0
H301 H 0.70454 0.07776 0.76186 0.0
C302 C 0.83814 0.00053 0.71566 0.0
C303 C 0.85321 0.96073 0.70445 0.0
C304 C 0.79402 0.00531 0.72034 0.0
C305 C 0.76496 0.97024 0.7123 0.0
C306 C 0.78011 0.93057 0.70094 0.0
C307 C 0.82403 0.92575 0.69854 0.0
C308 C 0.77788 0.04858 0.72986 0.0
C309 C 0.76583 0.05392 0.77625 0.0
C310 C 0.79648 0.04963 0.8084 0.0
C311 C 0.78781 0.06128 0.85093 0.0
C312 C 0.74824 0.07728 0.86102 0.0
C313 C 0.71866 0.08514 0.82891 0.0
C314 C 0.72672 0.07104 0.78695 0.0
H315 H 0.29513 0.81458 0.12405 0.0
H316 H 0.27708 0.6902 0.06449 0.0
H317 H 0.16886 0.75848 0.10143 0.0
H318 H 0.35616 0.77932 0.10367 0.0
H319 H 0.34558 0.72434 0.1141 0.0
H320 H 0.3378 0.79811 0.02029 0.0
H321 H 0.39332 0.70884 0.93436 0.0
H322 H 0.37713 0.67762 0.06546 0.0
C323 C 0.27407 0.78989 0.10938 0.0
C324 C 0.22983 0.79126 0.11508 0.0
C325 C 0.2914 0.75392 0.09036 0.0
C326 C 0.26401 0.71966 0.07558 0.0
C327 C 0.2197 0.7223 0.07807 0.0
C328 C 0.203 0.75903 0.09581 0.0
C329 C 0.33889 0.74974 0.09147 0.0
C330 C 0.35524 0.73892 0.04779 0.0
C331 C 0.35159 0.76776 0.01444 0.0
C332 C 0.36507 0.75674 0.97334 0.0
C333 C 0.38252 0.7174 0.96596 0.0
C334 C 0.38752 0.68919 -0.00107 0.0
C335 C 0.37344 0.69963 0.03989 0.0
H336 H 0.74059 0.76368 0.1146 0.0
H337 H 0.77433 0.87851 0.04762 0.0
H338 H 0.8718 0.80407 0.09841 0.0
H339 H 0.68502 0.79948 0.08444 0.0
H340 H 0.69895 0.85453 0.09401 0.0
H341 H 0.69233 0.76937 0.0059 0.0
H342 H 0.65043 0.85679 0.91415 0.0
H343 H 0.68404 0.9026 0.04039 0.0
C344 C 0.76452 0.78437 0.09929 0.0
C345 C 0.80769 0.7791 0.10727 0.0
C346 C 0.75214 0.81901 0.07578 0.0
C347 C 0.78367 0.84948 0.06188 0.0
C348 C 0.82718 0.8437 0.0691 0.0
C349 C 0.83865 0.80705 0.0896 0.0
C350 C 0.70528 0.82687 0.07256 0.0
C351 C 0.69204 0.83543 0.02759 0.0
C352 C 0.68656 0.80162 0.99717 0.0
C353 C 0.67135 0.80946 0.95624 0.0
C354 C 0.66329 0.85103 0.94551 0.0
C355 C 0.66762 0.88455 0.9756 0.0
C356 C 0.68199 0.87683 0.01669 0.0
H357 H 0.37272 0.56023 0.18882 0.0
H358 H 0.24292 0.50905 0.20412 0.0
H359 H 0.33964 0.42893 0.15733 0.0
H360 H 0.31918 0.60703 0.21073 0.0
H361 H 0.26503 0.58983 0.19789 0.0
H362 H 0.34033 0.55055 0.28117 0.0
H363 H 0.26659 0.59876 0.38514 0.0
H364 H 0.23091 0.62231 0.25678 0.0
C365 C 0.34932 0.53349 0.18775 0.0
C366 C 0.36139 0.49352 0.17305 0.0
C367 C 0.30674 0.53899 0.20017 0.0
C368 C 0.27605 0.50467 0.1962 0.0
C369 C 0.28819 0.46509 0.18084 0.0
C370 C 0.33082 0.45949 0.17048 0.0
C371 C 0.29365 0.58175 0.21622 0.0
C372 C 0.28344 0.58155 0.26334 0.0
C373 C 0.31192 0.56514 0.29267 0.0
C374 C 0.30569 0.57058 0.33686 0.0
C375 C 0.26975 0.59123 0.35132 0.0
C376 C 0.24358 0.61104 0.32274 0.0
C377 C 0.24971 0.60508 0.27878 0.0
H378 H 0.77768 0.25272 0.59777 0.0
H379 H 0.77927 0.1169 0.58061 0.0
H380 H 0.66027 0.17602 0.58253 0.0
H381 H 0.83922 0.21847 0.61794 0.0
H382 H 0.83758 0.16173 0.62008 0.0
H383 H 0.837 0.24815 0.53699 0.0
H384 H 0.92755 0.18613 0.45841 0.0
H385 H 0.88093 0.12598 0.5716 0.0
C386 C 0.76051 0.22235 0.5915 0.0
C387 C 0.71565 0.21945 0.59175 0.0
C388 C 0.78362 0.18555 0.58839 0.0
C389 C 0.76189 0.14567 0.58089 0.0
C390 C 0.71737 0.14288 0.57645 0.0
C391 C 0.69476 0.17982 0.5813 0.0
C392 C 0.83042 0.18861 0.59938 0.0
C393 C 0.85727 0.18793 0.55975 0.0
C394 C 0.85737 0.22195 0.53126 0.0
C395 C 0.88312 0.22133 0.4948 0.0
C396 C 0.90896 0.18724 0.48745 0.0
C397 C 0.90816 0.15262 0.51458 0.0
C398 C 0.88206 0.15293 0.55073 0.0
H399 H 0.12835 0.47121 0.70531 0.0
H400 H 0.24209 0.5468 0.74262 0.0
H401 H 0.13219 0.60758 0.69922 0.0
H402 H 0.19127 0.43614 0.72184 0.0
H403 H 0.24105 0.46717 0.72128 0.0
H404 H 0.14584 0.46332 0.79723 0.0
H405 H 0.22108 0.42713 0.90226 0.0
H406 H 0.27968 0.44408 0.7793 0.0
C407 C 0.14471 0.50203 0.71165 0.0
C408 C 0.12457 0.53912 0.70177 0.0
C409 C 0.18671 0.50465 0.72774 0.0
C410 C 0.20893 0.54469 0.73271 0.0
C411 C 0.18875 0.58176 0.72304 0.0
C412 C 0.14648 0.57877 0.70894 0.0
C413 C 0.20891 0.4646 0.7364 0.0
C414 C 0.21312 0.45784 0.78369 0.0
C415 C 0.17681 0.45738 0.81033 0.0
C416 C 0.18017 0.44782 0.85358 0.0
C417 C 0.21981 0.43769 0.86968 0.0
C418 C 0.25584 0.43511 0.84314 0.0
C419 C 0.25239 0.44638 0.8003 0.0
C420 C 0.08774 0.31535 0.02324 0.0
C421 C 0.04814 0.31807 0.0435 0.0
C422 C 0.10068 0.34326 0.99114 0.0
C423 C 0.07321 0.37468 0.97824 0.0
C424 C 0.03309 0.37783 -0.0014 0.0
C425 C 0.02099 0.34944 0.03114 0.0
C426 C 0.14406 0.33907 0.97111 0.0
C427 C 0.00288 0.41079 0.98589 0.0
C428 C 0.14245 0.45768 0.923 0.0
C429 C 0.14209 0.44056 0.88121 0.0
C430 C 0.11546 0.43997 0.95444 0.0
C431 C 0.08794 0.40397 0.94382 0.0
C432 C 0.08343 0.39041 0.90045 0.0
C433 C 0.11069 0.4089 0.86956 0.0
C434 C 0.12037 0.45646 -5e-05 0.0
C435 C 0.05379 0.35284 0.88745 0.0
H436 H 0.10915 0.29152 0.03279 0.0
H437 H 0.99032 0.3517 0.04672 0.0
H438 H 0.14043 0.33442 0.93613 0.0
H439 H 0.1643 0.36875 0.97702 0.0
H440 H 0.16098 0.312 0.98367 0.0
H441 H 0.9772 0.41472 0.00988 0.0
H442 H 0.02035 0.44202 0.98155 0.0
H443 H 0.98781 0.40099 0.9549 0.0
H444 H 0.16647 0.4825 0.93194 0.0
H445 H 0.11029 0.39556 0.83728 0.0
H446 H 0.14067 0.43526 0.01773 0.0
H447 H 0.08896 0.45659 0.01624 0.0
H448 H 0.13568 0.4892 0.00161 0.0
H449 H 0.06865 0.32298 0.89567 0.0
H450 H 0.04734 0.35188 0.85256 0.0
H451 H 0.02303 0.35373 0.90484 0.0
C452 C 0.92683 0.73911 0.32208 0.0
C453 C 0.96136 0.76853 0.31608 0.0
C454 C 0.90007 0.72578 0.28802 0.0
C455 C 0.90833 0.74182 0.24703 0.0
C456 C 0.94686 0.76622 0.23967 0.0
C457 C 0.97245 0.78025 0.27449 0.0
C458 C 0.86274 0.69521 0.29655 0.0
C459 C 0.96135 0.77699 0.19514 0.0
C460 C 0.8482 0.724 0.14268 0.0
C461 C 0.8207 0.75737 0.14561 0.0
C462 C 0.87401 0.71491 0.17749 0.0
C463 C 0.87357 0.74136 0.21485 0.0
C464 C 0.84312 0.77277 0.21881 0.0
C465 C 0.81642 0.77963 0.1844 0.0
C466 C 0.90357 0.67912 0.17245 0.0
C467 C 0.84111 0.8019 0.25781 0.0
H468 H 0.92005 0.72717 0.35357 0.0
H469 H 0.00118 0.80025 0.26909 0.0
H470 H 0.84937 0.67999 0.26677 0.0
H471 H 0.87283 0.67025 0.31807 0.0
H472 H 0.83741 0.71217 0.3133 0.0
H473 H 0.98877 0.80096 0.19519 0.0
H474 H 0.97186 0.74771 0.17879 0.0
H475 H 0.93478 0.78854 0.1762 0.0
H476 H 0.85171 0.70707 0.11241 0.0
H477 H 0.79537 0.80578 0.18623 0.0
H478 H 0.92012 0.67261 0.20253 0.0
H479 H 0.92771 0.68699 0.14751 0.0
H480 H 0.88519 0.64966 0.16136 0.0
H481 H 0.83206 0.7829 0.28594 0.0
H482 H 0.81743 0.82647 0.25439 0.0
H483 H 0.87286 0.81824 0.26427 0.0
C484 C 0.47504 0.61044 0.52784 0.0
C485 C 0.46492 0.65185 0.54034 0.0
C486 C 0.45457 0.58902 0.493 0.0
C487 C 0.42301 0.60933 0.4703 0.0
C488 C 0.41321 0.65142 0.48229 0.0
C489 C 0.4345 0.67227 0.51694 0.0
C490 C 0.46695 0.54487 0.48039 0.0
C491 C 0.37987 0.67437 0.45874 0.0
C492 C 0.3819 0.58371 0.35895 0.0
C493 C 0.3409 0.56582 0.36785 0.0
C494 C 0.41124 0.59397 0.39194 0.0
C495 C 0.39897 0.58672 0.43472 0.0
C496 C 0.35977 0.56393 0.44329 0.0
C497 C 0.33138 0.5533 0.4096 0.0
C498 C 0.45347 0.61662 0.38124 0.0
C499 C 0.34552 0.55523 0.48842 0.0
H500 H 0.49915 0.59471 0.54525 0.0
H501 H 0.4266 0.70429 0.52626 0.0
H502 H 0.43852 0.52221 0.47998 0.0
H503 H 0.4804 0.54498 0.44764 0.0
H504 H 0.49098 0.53322 0.50249 0.0
H505 H 0.37278 0.7051 0.4747 0.0
H506 H 0.39109 0.68084 0.42584 0.0
H507 H 0.34988 0.65404 0.45606 0.0
H508 H 0.38974 0.59353 0.32686 0.0
H509 H 0.30003 0.53878 0.41654 0.0
H510 H 0.47938 0.60605 0.40177 0.0
H511 H 0.4513 0.65137 0.38696 0.0
H512 H 0.46224 0.61114 0.34725 0.0
H513 H 0.37181 0.54311 0.50737 0.0
H514 H 0.31764 0.53182 0.48934 0.0
H515 H 0.33633 0.58541 0.50408 0.0
C516 C 0.5933 0.2342 0.78227 0.0
C517 C 0.58008 0.27028 0.80432 0.0
C518 C 0.61265 0.23763 0.74213 0.0
C519 C 0.61734 0.278 0.72291 0.0
C520 C 0.60306 0.31429 0.74474 0.0
C521 C 0.5858 0.3102 0.78575 0.0
C522 C 0.62786 0.19784 0.72042 0.0
C523 C 0.60569 0.35766 0.72557 0.0
C524 C 0.71033 0.27558 0.64956 0.0
C525 C 0.69123 0.25252 0.61477 0.0
C526 C 0.68549 0.29071 0.6831 0.0
C527 C 0.64092 0.28181 0.68206 0.0
C528 C 0.62113 0.26731 0.64352 0.0
C529 C 0.64668 0.25336 0.60974 0.0
C530 C 0.70721 0.31405 0.72049 0.0
C531 C 0.57314 0.26354 0.63947 0.0
H532 H 0.58913 0.20331 0.7967 0.0
H533 H 0.57597 0.33839 0.80272 0.0
H534 H 0.60635 0.18869 0.69338 0.0
H535 H 0.66054 0.20344 0.70736 0.0
H536 H 0.62781 0.17063 0.74228 0.0
H537 H 0.57571 0.37343 0.73255 0.0
H538 H 0.63219 0.37729 0.7409 0.0
H539 H 0.61071 0.35675 0.69052 0.0
H540 H 0.74461 0.27814 0.65341 0.0
H541 H 0.63142 0.23931 0.58132 0.0
H542 H 0.69445 0.3028 0.75137 0.0
H543 H 0.70064 0.34811 0.71875 0.0
H544 H 0.74233 0.31149 0.72001 0.0
H545 H 0.56267 0.25608 0.60612 0.0
H546 H 0.5596 0.29374 0.65056 0.0
H547 H 0.55971 0.23809 0.66022 0.0
C548 C 0.00107 0.63635 0.51669 0.0
C549 C 0.03573 0.66579 0.51062 0.0
C550 C 0.00289 0.60458 0.5471 0.0
C551 C 0.03995 0.60278 0.57244 0.0
C552 C 0.07542 0.63195 0.56566 0.0
C553 C 0.07285 0.66297 0.53477 0.0
C554 C 0.9647 0.57398 0.55258 0.0
C555 C 0.11596 0.63111 0.59161 0.0
C556 C 0.05535 0.56818 0.68336 0.0
C557 C 0.08566 0.53801 0.67505 0.0
C558 C 0.03376 0.58582 0.64964 0.0
C559 C 0.04234 0.57198 0.60732 0.0
C560 C 0.06497 0.53487 0.60024 0.0
C561 C 0.08686 0.51828 0.63445 0.0
C562 C 0.00779 0.62386 0.65881 0.0
C563 C 0.07207 0.51719 0.55577 0.0
H564 H 0.97231 0.63821 0.49786 0.0
H565 H 0.09987 0.6854 0.52993 0.0
H566 H 0.97429 0.54226 0.56215 0.0
H567 H 0.94388 0.58668 0.57793 0.0
H568 H 0.94558 0.57016 0.52277 0.0
H569 H 0.14078 0.65546 0.5816 0.0
H570 H 0.10883 0.63693 0.62589 0.0
H571 H 0.12943 0.59938 0.58839 0.0
H572 H 0.05344 0.58248 0.71514 0.0
H573 H 0.10946 0.49413 0.628 0.0
H574 H 0.97874 0.6224 0.6386 0.0
H575 H 0.02711 0.65337 0.6512 0.0
H576 H 0.99816 0.626 0.6929 0.0
H577 H 0.0433 0.5195 0.5356 0.0
H578 H 0.0804 0.4834 0.55639 0.0
H579 H 0.09886 0.5359 0.54071 0.0
C580 C 0.58912 0.70942 0.73398 0.0
C581 C 0.58873 0.74901 0.71438 0.0
C582 C 0.60463 0.70637 0.77587 0.0
C583 C 0.62111 0.74355 0.79792 0.0
C584 C 0.62341 0.783 0.77703 0.0
C585 C 0.60692 0.78527 0.73572 0.0
C586 C 0.60243 0.66381 0.79701 0.0
C587 C 0.64201 0.82324 0.79893 0.0
C588 C 0.61493 0.76927 0.915 0.0
C589 C 0.65844 0.77532 0.92488 0.0
C590 C 0.60157 0.75345 0.8747 0.0
C591 C 0.63267 0.74297 0.84395 0.0
C592 C 0.67608 0.74247 0.85637 0.0
C593 C 0.68863 0.75939 0.89673 0.0
C594 C 0.55482 0.7541 0.86331 0.0
C595 C 0.71025 0.7287 0.82601 0.0
H596 H 0.57575 0.6811 0.71738 0.0
H597 H 0.60754 0.81576 0.72038 0.0
H598 H 0.63512 0.65534 0.80552 0.0
H599 H 0.58398 0.66549 0.82717 0.0
H600 H 0.58726 0.63813 0.77622 0.0
H601 H 0.64016 0.85162 0.77885 0.0
H602 H 0.62493 0.82904 0.82931 0.0
H603 H 0.67595 0.81951 0.8071 0.0
H604 H 0.59164 0.78172 0.93694 0.0
H605 H 0.72231 0.76391 0.90443 0.0
H606 H 0.54432 0.72588 0.84324 0.0
H607 H 0.54971 0.78286 0.84467 0.0
H608 H 0.53429 0.75504 0.8922 0.0
H609 H 0.69726 0.7123 0.79664 0.0
H610 H 0.73107 0.70688 0.84234 0.0
H611 H 0.73066 0.75702 0.81699 0.0
C612 C 0.4524 0.36453 0.00486 0.0
C613 C 0.49255 0.37132 0.98609 0.0
C614 C 0.44121 0.3883 0.04124 0.0
C615 C 0.47128 0.41897 0.05963 0.0
C616 C 0.51299 0.42357 0.04244 0.0
C617 C 0.52279 0.40029 0.00533 0.0
C618 C 0.39648 0.38187 0.05876 0.0
C619 C 0.54754 0.45326 0.0619 0.0
C620 C 0.41001 0.50488 0.11228 0.0
C621 C 0.40284 0.48743 0.15239 0.0
C622 C 0.43663 0.4854 0.08268 0.0
C623 C 0.45687 0.44828 0.094 0.0
C624 C 0.45517 0.43499 0.13674 0.0
C625 C 0.42752 0.45442 0.16547 0.0
C626 C 0.43896 0.5015 0.03788 0.0
C627 C 0.47849 0.39717 0.15065 0.0
H628 H 0.42908 0.34205 0.99 0.0
H629 H 0.5543 0.40486 0.9913 0.0
H630 H 0.39715 0.3786 0.09387 0.0
H631 H 0.37825 0.41008 0.05193 0.0
H632 H 0.37916 0.3531 0.0446 0.0
H633 H 0.57714 0.43603 0.06574 0.0
H634 H 0.55541 0.47935 0.03963 0.0
H635 H 0.53873 0.46686 0.09345 0.0
H636 H 0.39086 0.5304 0.10221 0.0
H637 H 0.42198 0.44109 0.19668 0.0
H638 H 0.41887 0.47995 0.01651 0.0
H639 H 0.47224 0.50149 0.02617 0.0
H640 H 0.42774 0.53422 0.03597 0.0
H641 H 0.46099 0.36742 0.13907 0.0
H642 H 0.481 0.39628 0.18597 0.0
H643 H 0.51105 0.39785 0.13667 0.0
C644 C 0.95544 0.20639 0.29068 0.0
C645 C 0.95578 0.23227 0.25494 0.0
C646 C 0.93859 0.21959 0.32966 0.0
C647 C 0.9197 0.25929 0.33331 0.0
C648 C 0.91988 0.286 0.29758 0.0
C649 C 0.93788 0.27212 0.25863 0.0
C650 C 0.94221 0.19104 0.36731 0.0
C651 C 0.90144 0.32913 0.30027 0.0
C652 C 0.85006 0.23919 0.42729 0.0
C653 C 0.87937 0.25111 0.45962 0.0
C654 C 0.85952 0.24815 0.38461 0.0
C655 C 0.89871 0.27039 0.37456 0.0
C656 C 0.9236 0.29016 0.40814 0.0
C657 C 0.91407 0.27943 0.45049 0.0
C658 C 0.83141 0.22669 0.35047 0.0
C659 C 0.96273 0.31903 0.39996 0.0
H660 H 0.96953 0.17576 0.2888 0.0
H661 H 0.93831 0.29264 0.2314 0.0
H662 H 0.9556 0.20959 0.39517 0.0
H663 H 0.91013 0.17751 0.37622 0.0
H664 H 0.96321 0.16445 0.36058 0.0
H665 H 0.86676 0.32539 0.29379 0.0
H666 H 0.90578 0.34434 0.33241 0.0
H667 H 0.91625 0.35075 0.27631 0.0
H668 H 0.82313 0.2173 0.43438 0.0
H669 H 0.93642 0.28928 0.47572 0.0
H670 H 0.79728 0.2274 0.35974 0.0
H671 H 0.83894 0.19275 0.34699 0.0
H672 H 0.83635 0.24162 0.31911 0.0
H673 H 0.98888 0.31261 0.42232 0.0
H674 H 0.9545 0.35245 0.4062 0.0
H675 H 0.97464 0.31654 0.36674 0.0
C676 C 0.97627 0.04698 0.32337 0.0
C677 C 0.01272 0.0234 0.32127 0.0
C678 C 0.95494 0.05283 0.36225 0.0
C679 C 0.97095 0.03509 0.39973 0.0
C680 C 0.00336 0.00594 0.3963 0.0
C681 C 0.02412 0.0006 0.3571 0.0
C682 C 0.91669 0.07984 0.36344 0.0
C683 C 0.01898 0.98316 0.43446 0.0
C684 C 0.97228 0.12086 0.48467 0.0
C685 C 0.93079 0.11479 0.50065 0.0
C686 C 0.98787 0.09227 0.45444 0.0
C687 C 0.96187 0.05581 0.44157 0.0
C688 C 0.92326 0.04579 0.46347 0.0
C689 C 0.90772 0.07588 0.4926 0.0
C690 C 0.02959 0.10419 0.43237 0.0
C691 C 0.89612 0.0058 0.4529 0.0
H692 H 0.96591 0.06301 0.29536 0.0
H693 H 0.05105 0.98054 0.35546 0.0
H694 H 0.88739 0.0588 0.36715 0.0
H695 H 0.91816 0.10269 0.391 0.0
H696 H 0.9135 0.0978 0.33369 0.0
H697 H 0.04912 -0.00039 0.44617 0.0
H698 H 0.99534 0.98216 0.46085 0.0
H699 H 0.02625 0.95004 0.42521 0.0
H700 H 0.99038 0.15062 0.49182 0.0
H701 H 0.8758 0.0708 0.50549 0.0
H702 H 0.04684 0.13236 0.4478 0.0
H703 H 0.02338 0.11169 0.39861 0.0
H704 H 0.05071 0.07717 0.43239 0.0
H705 H 0.87318 0.01231 0.42733 0.0
H706 H 0.87739 0.99515 0.48118 0.0
H707 H 0.91583 0.97961 0.44154 0.0
C708 C 0.26564 0.82036 0.66367 0.0
C709 C 0.22778 0.83428 0.64647 0.0
C710 C 0.26674 0.78006 0.68169 0.0
C711 C 0.22932 0.75266 0.68139 0.0
C712 C 0.19095 0.7667 0.66425 0.0
C713 C 0.19059 0.80746 0.64737 0.0
C714 C 0.30816 0.76694 0.70031 0.0
C715 C 0.15045 0.73823 0.66265 0.0
C716 C 0.23108 0.6327 0.67953 0.0
C717 C 0.21243 0.62323 0.719 0.0
C718 C 0.23974 0.67503 0.66787 0.0
C719 C 0.23011 0.70844 0.69683 0.0
C720 C 0.21533 0.69879 0.7384 0.0
C721 C 0.20593 0.65613 0.74879 0.0
C722 C 0.25493 0.68388 0.62305 0.0
C723 C 0.20626 0.73355 0.77067 0.0
H724 H 0.29456 0.84092 0.66313 0.0
H725 H 0.16127 0.81795 0.634 0.0
H726 H 0.30265 0.74592 0.72786 0.0
H727 H 0.32579 0.74923 0.67556 0.0
H728 H 0.3288 0.79515 0.71081 0.0
H729 H 0.12403 0.75309 0.64614 0.0
H730 H 0.15648 0.70769 0.64585 0.0
H731 H 0.13988 0.73064 0.6955 0.0
H732 H 0.23509 0.60711 0.65624 0.0
H733 H 0.19078 0.64866 0.77901 0.0
H734 H 0.28231 0.70781 0.6236 0.0
H735 H 0.22885 0.69729 0.60472 0.0
H736 H 0.26471 0.65467 0.6059 0.0
H737 H 0.23247 0.75879 0.77092 0.0
H738 H 0.20238 0.72112 0.80338 0.0
H739 H 0.17645 0.74848 0.76188 0.0
C740 C 0.52321 0.9419 0.81828 0.0
C741 C 0.5062 0.981 0.81043 0.0
C742 C 0.55146 0.93775 0.85221 0.0
C743 C 0.56373 0.97384 0.87849 0.0
C744 C 0.54691 0.01358 0.87059 0.0
C745 C 0.51786 0.01654 0.8369 0.0
C746 C 0.5681 0.89452 0.85994 0.0
C747 C 0.55854 0.05278 0.89795 0.0
C748 C 0.60699 0.93043 0.97821 0.0
C749 C 0.64884 0.92459 0.96471 0.0
C750 C 0.5793 0.95231 0.95282 0.0
C751 C 0.59443 0.96882 0.9137 0.0
C752 C 0.63862 0.96975 0.90433 0.0
C753 C 0.66544 0.94707 0.9299 0.0
C754 C 0.53271 0.95214 0.96477 0.0
C755 C 0.65631 0.98907 0.864 0.0
H756 H 0.51385 0.91428 0.79828 0.0
H757 H 0.5047 0.04693 0.83099 0.0
H758 H 0.60348 0.89659 0.85873 0.0
H759 H 0.55853 0.88381 0.89219 0.0
H760 H 0.55596 0.86998 0.83611 0.0
H761 H 0.55548 0.0823 0.87982 0.0
H762 H 0.53627 0.05381 0.92544 0.0
H763 H 0.5915 0.05274 0.9107 0.0
H764 H 0.59428 0.91306 0.00529 0.0
H765 H 0.69796 0.9426 0.91971 0.0
H766 H 0.51495 0.92549 0.94738 0.0
H767 H 0.51876 0.98219 0.95572 0.0
H768 H 0.528 0.94773 -0.00045 0.0
H769 H 0.64801 0.9673 0.83641 0.0
H770 H 0.69162 0.99426 0.86536 0.0
H771 H 0.64214 0.01989 0.85826 0.0
C772 C 0.21317 0.23164 0.10318 0.0
C773 C 0.25457 0.21805 0.09673 0.0
C774 C 0.20655 0.27312 0.11823 0.0
C775 C 0.24213 0.30134 0.12757 0.0
C776 C 0.28403 0.28785 0.12085 0.0
C777 C 0.28971 0.24646 0.10517 0.0
C778 C 0.16162 0.28659 0.12436 0.0
C779 C 0.32294 0.31716 0.13028 0.0
C780 C 0.24763 0.42053 0.12791 0.0
C781 C 0.2573 0.42944 0.17092 0.0
C782 C 0.23733 0.37869 0.11355 0.0
C783 C 0.23642 0.34556 0.14324 0.0
C784 C 0.23952 0.35565 0.18753 0.0
C785 C 0.25049 0.39772 0.20088 0.0
C786 C 0.23375 0.36935 0.06614 0.0
C787 C 0.23708 0.32163 0.2205 0.0
H788 H 0.18581 0.20985 0.09669 0.0
H789 H 0.32173 0.23615 0.10011 0.0
H790 H 0.1574 0.29914 0.15738 0.0
H791 H 0.1553 0.31264 0.10257 0.0
H792 H 0.1377 0.25985 0.11801 0.0
H793 H 0.35316 0.30239 0.12153 0.0
H794 H 0.32116 0.34702 0.11254 0.0
H795 H 0.32398 0.32592 0.16481 0.0
H796 H 0.25335 0.44533 0.10486 0.0
H797 H 0.2583 0.40483 0.23412 0.0
H798 H 0.20586 0.3471 0.05891 0.0
H799 H 0.26267 0.35364 0.05506 0.0
H800 H 0.23078 0.39871 0.04774 0.0
H801 H 0.21315 0.29562 0.21154 0.0
H802 H 0.22882 0.33489 0.25245 0.0
H803 H 0.26877 0.30807 0.22304 0.0
C804 C 0.01712 0.92671 0.18384 0.0
C805 C 0.04578 0.96027 0.17253 0.0
C806 C 0.97942 0.91744 0.16053 0.0
C807 C 0.97094 0.94094 0.12385 0.0
C808 C -0.0006 0.97542 0.11277 0.0
C809 C 0.03623 0.98501 0.13758 0.0
C810 C 0.94836 0.88251 0.17527 0.0
C811 C 0.99076 0.00309 0.07568 0.0
C812 C 0.90114 0.86988 0.05105 0.0
C813 C 0.86058 0.87896 0.06639 0.0
C814 C 0.9378 0.89314 0.06611 0.0
C815 C 0.9336 0.92686 0.0964 0.0
C816 C 0.89244 0.94056 0.10622 0.0
C817 C 0.85621 0.9162 0.09125 0.0
C818 C 0.98095 0.87793 0.0539 0.0
C819 C 0.88663 0.97778 0.13655 0.0
H820 H 0.02367 0.90823 0.21152 0.0
H821 H 0.05782 0.01166 0.12922 0.0
H822 H 0.91619 0.89479 0.17974 0.0
H823 H 0.9455 0.85685 0.15033 0.0
H824 H 0.9582 0.86911 0.2059 0.0
H825 H 0.97242 0.98539 0.05001 0.0
H826 H 0.97159 0.02959 0.08719 0.0
H827 H 0.02096 0.0172 0.06215 0.0
H828 H 0.90456 0.84134 0.03145 0.0
H829 H 0.82492 0.92358 0.10305 0.0
H830 H 0.97948 0.85816 0.02396 0.0
H831 H 0.99282 0.85842 0.07986 0.0
H832 H 0.00424 0.90527 0.04973 0.0
H833 H 0.8937 0.96849 0.16959 0.0
H834 H 0.85352 0.98846 0.13568 0.0
H835 H 0.90915 0.00491 0.12866 0.0
C836 C 0.26276 0.76749 0.50251 0.0
C837 C 0.25091 0.80955 0.4996 0.0
C838 C 0.2512 0.73688 0.47057 0.0
C839 C 0.22686 0.74857 0.43505 0.0
C840 C 0.21416 0.79085 0.43268 0.0
C841 C 0.2261 0.82061 0.46497 0.0
C842 C 0.26623 0.69243 0.47446 0.0
C843 C 0.18874 0.80611 0.39612 0.0
C844 C 0.24922 0.68791 0.33311 0.0
C845 C 0.22481 0.64998 0.33919 0.0
C846 C 0.24863 0.72129 0.36323 0.0
C847 C 0.22019 0.71811 0.39823 0.0
C848 C 0.19012 0.68277 0.40024 0.0
C849 C 0.19385 0.64815 0.37145 0.0
C850 C 0.28203 0.75747 0.36023 0.0
C851 C 0.15634 0.6796 0.43447 0.0
H852 H 0.28136 0.75849 0.5296 0.0
H853 H 0.21641 0.85296 0.46245 0.0
H854 H 0.2388 0.67042 0.48278 0.0
H855 H 0.27953 0.68089 0.44372 0.0
H856 H 0.29082 0.69071 0.49972 0.0
H857 H 0.15789 0.81646 0.40878 0.0
H858 H 0.20557 0.83454 0.38221 0.0
H859 H 0.1828 0.78173 0.37041 0.0
H860 H 0.27337 0.68905 0.30827 0.0
H861 H 0.1749 0.61871 0.37612 0.0
H862 H 0.30328 0.75806 0.38857 0.0
H863 H 0.26644 0.78807 0.36004 0.0
H864 H 0.30196 0.75504 0.33102 0.0
H865 H 0.16689 0.65909 0.46019 0.0
H866 H 0.12623 0.66428 0.42119 0.0
H867 H 0.14959 0.71124 0.44853 0.0
C868 C 0.51454 0.0907 0.6535 0.0
C869 C 0.49374 0.05166 0.66298 0.0
C870 C 0.55293 0.09253 0.63067 0.0
C871 C 0.5716 0.0542 0.61781 0.0
C872 C 0.54956 0.01458 0.62546 0.0
C873 C 0.51068 0.01381 0.64789 0.0
C874 C 0.57413 0.13568 0.62149 0.0
C875 C 0.56718 0.97276 0.61187 0.0
C876 C 0.66091 0.09171 0.5473 0.0
C877 C 0.69208 0.10192 0.57853 0.0
C878 C 0.62295 0.0685 0.55782 0.0
C879 C 0.61591 0.057 0.60067 0.0
C880 C 0.65038 0.0605 0.62992 0.0
C881 C 0.68845 0.08284 0.61832 0.0
C882 C 0.58829 0.06152 0.52471 0.0
C883 C 0.64482 0.04699 0.67549 0.0
H884 H 0.50098 0.11997 0.66445 0.0
H885 H 0.49444 0.98346 0.65486 0.0
H886 H 0.60691 0.13835 0.63486 0.0
H887 H 0.57686 0.13964 0.58653 0.0
H888 H 0.55599 0.16217 0.63492 0.0
H889 H 0.54133 0.95084 0.59831 0.0
H890 H 0.59318 0.97644 0.58807 0.0
H891 H 0.57977 0.95743 0.64035 0.0
H892 H 0.66397 0.10606 0.51629 0.0
H893 H 0.71265 0.09056 0.64244 0.0
H894 H 0.56611 0.08767 0.5273 0.0
H895 H 0.56959 0.03107 0.52981 0.0
H896 H 0.60178 0.06111 0.49191 0.0
H897 H 0.62523 0.01659 0.67712 0.0
H898 H 0.62815 0.07174 0.69382 0.0
H899 H 0.676 0.04296 0.69104 0.0
C900 C 0.30483 0.23171 0.95386 0.0
C901 C 0.26019 0.22537 0.95618 0.0
C902 C 0.32403 0.26734 0.93365 0.0
C903 C 0.2978 0.29698 0.91516 0.0
C904 C 0.2527 0.28906 0.91533 0.0
C905 C 0.23457 0.25379 0.93638 0.0
C906 C 0.37213 0.2729 0.93339 0.0
C907 C 0.22293 0.31877 0.89511 0.0
C908 C 0.30193 0.41245 0.90226 0.0
C909 C 0.29225 0.41119 0.85847 0.0
C910 C 0.31272 0.3753 0.92226 0.0
C911 C 0.31569 0.33757 0.89731 0.0
C912 C 0.31968 0.3405 0.85262 0.0
C913 C 0.30683 0.37738 0.83316 0.0
C914 C 0.3128 0.37454 0.97022 0.0
C915 C 0.33268 0.30306 0.82576 0.0
H916 H 0.32485 0.20976 0.9693 0.0
H917 H 0.20011 0.24879 0.93796 0.0
H918 H 0.38461 0.30278 0.91871 0.0
H919 H 0.38431 0.27224 0.96661 0.0
H920 H 0.38525 0.24559 0.91563 0.0
H921 H 0.19035 0.30358 0.89059 0.0
H922 H 0.22089 0.34768 0.91587 0.0
H923 H 0.23454 0.32902 0.86348 0.0
H924 H 0.29406 0.43987 0.92179 0.0
H925 H 0.30274 0.37696 0.79884 0.0
H926 H 0.3336 0.34995 0.98175 0.0
H927 H 0.27976 0.36669 0.9813 0.0
H928 H 0.32361 0.4061 0.98435 0.0
H929 H 0.32732 0.3074 0.79117 0.0
H930 H 0.31582 0.27311 0.8358 0.0
H931 H 0.36707 0.29914 0.83128 0.0
C932 C 0.34863 0.02329 0.10074 0.0
C933 C 0.34072 0.03382 0.05853 0.0
C934 C 0.37656 0.99173 0.11007 0.0
C935 C 0.39647 0.96948 0.07628 0.0
C936 C 0.38964 0.98085 0.03357 0.0
C937 C 0.36195 0.01316 0.02517 0.0
C938 C 0.38423 0.98173 0.15621 0.0
C939 C 0.4105 0.95808 0.99681 0.0
C940 C 0.48416 0.91023 0.12428 0.0
C941 C 0.46079 0.87344 0.13687 0.0
C942 C 0.46533 0.93991 0.09876 0.0
C943 C 0.42207 0.93279 0.08654 0.0
C944 C 0.40066 0.89286 0.094 0.0
C945 C 0.42037 0.86353 0.11922 0.0
C946 C 0.49043 0.98081 0.08966 0.0
C947 C 0.35478 0.88358 0.08089 0.0
H948 H 0.33297 0.03982 0.12662 0.0
H949 H 0.3561 0.02149 0.99245 0.0
H950 H 0.37482 0.94785 0.1617 0.0
H951 H 0.41874 0.98671 0.16375 0.0
H952 H 0.36605 0.00178 0.17864 0.0
H953 H 0.40748 0.97495 0.96638 0.0
H954 H 0.44482 0.95473 0.00346 0.0
H955 H 0.39526 0.92551 0.99272 0.0
H956 H 0.51545 0.91798 0.13806 0.0
H957 H 0.40206 0.83545 0.12963 0.0
H958 H 0.49034 0.00213 0.11846 0.0
H959 H 0.47737 0.99771 0.06246 0.0
H960 H 0.524 0.97396 0.0824 0.0
H961 H 0.34711 0.84889 0.07768 0.0
H962 H 0.34769 0.89832 0.05016 0.0
H963 H 0.33358 0.8967 0.10574 0.0
C964 C 0.91206 0.49187 0.03018 0.0
C965 C 0.87045 0.48695 0.01347 0.0
C966 C 0.94263 0.52046 0.01261 0.0
C967 C 0.93108 0.54505 0.97794 0.0
C968 C 0.8882 0.54293 0.96336 0.0
C969 C 0.85829 0.51383 0.98138 0.0
C970 C 0.98774 0.52261 0.02955 0.0
C971 C 0.87459 0.56907 0.92654 0.0
C972 C 0.9945 0.63631 0.92877 0.0
C973 C 0.00531 0.61693 0.88983 0.0
C974 C 0.97387 0.61233 0.96058 0.0
C975 C 0.96436 0.56832 0.95274 0.0
C976 C 0.98094 0.5479 0.91599 0.0
C977 C 0.0012 0.57265 0.88474 0.0
C978 C 0.95756 0.63512 -0.00026 0.0
C979 C 0.9725 0.50082 0.90678 0.0
H980 H 0.92139 0.47184 0.05576 0.0
H981 H 0.82619 0.51035 0.96851 0.0
H982 H 0.99547 0.55457 0.04419 0.0
H983 H 0.99238 0.49834 0.05393 0.0
H984 H 0.01084 0.51801 0.00321 0.0
H985 H 0.83935 0.56763 0.92258 0.0
H986 H 0.88616 0.60286 0.93126 0.0
H987 H 0.8889 0.55701 0.89649 0.0
H988 H 0.99763 0.67073 0.93236 0.0
H989 H 0.0096 0.55794 0.85441 0.0
H990 H 0.9595 0.61545 0.02839 0.0
H991 H 0.92351 0.64145 0.99486 0.0
H992 H 0.97568 0.66607 0.00589 0.0
H993 H 0.99597 0.48845 0.88368 0.0
H994 H 0.94013 0.49516 0.89278 0.0
H995 H 0.97358 0.48246 0.93637 0.0
C996 C 0.78682 0.59332 0.23472 0.0
C997 C 0.81607 0.5937 0.26842 0.0
C998 C 0.74748 0.61154 0.23981 0.0
C999 C 0.73783 0.63229 0.27902 0.0
C1000 C 0.76589 0.63021 0.3141 0.0
C1001 C 0.80426 0.60975 0.30867 0.0
C1002 C 0.7173 0.61055 0.20229 0.0
C1003 C 0.75753 0.65254 0.35619 0.0
C1004 C 0.67007 0.72203 0.25087 0.0
C1005 C 0.62915 0.70348 0.25776 0.0
C1006 C 0.7063 0.70074 0.26164 0.0
C1007 C 0.70133 0.66036 0.28053 0.0
C1008 C 0.6601 0.64406 0.29243 0.0
C1009 C 0.6243 0.66602 0.28089 0.0
C1010 C 0.74941 0.71886 0.24738 0.0
C1011 C 0.65315 0.60068 0.31155 0.0
H1012 H 0.79503 0.57968 0.20386 0.0
H1013 H 0.82625 0.60898 0.33523 0.0
H1014 H 0.71938 0.64183 0.18673 0.0
H1015 H 0.72497 0.58578 0.17799 0.0
H1016 H 0.6839 0.60436 0.21307 0.0
H1017 H 0.7687 0.68647 0.35398 0.0
H1018 H 0.72304 0.65148 0.3641 0.0
H1019 H 0.77508 0.63859 0.38267 0.0
H1020 H 0.67366 0.75064 0.23233 0.0
H1021 H 0.59255 0.65126 0.28536 0.0
H1022 H 0.75878 0.70262 0.21726 0.0
H1023 H 0.77411 0.71367 0.27154 0.0
H1024 H 0.74899 0.75342 0.24136 0.0
H1025 H 0.65433 0.57594 0.28572 0.0
H1026 H 0.62156 0.59691 0.32751 0.0
H1027 H 0.67844 0.59475 0.33496 0.0
C1028 C 0.59349 0.51503 0.45854 0.0
C1029 C 0.63377 0.53215 0.44599 0.0
C1030 C 0.57479 0.47818 0.43825 0.0
C1031 C 0.5962 0.45897 0.4037 0.0
C1032 C 0.63623 0.47695 0.39003 0.0
C1033 C 0.65465 0.51309 0.41155 0.0
C1034 C 0.53244 0.45973 0.4542 0.0
C1035 C 0.66026 0.4573 0.35338 0.0
C1036 C 0.58166 0.34254 0.37161 0.0
C1037 C 0.56284 0.34509 0.33135 0.0
C1038 C 0.58987 0.37922 0.39733 0.0
C1039 C 0.57815 0.41904 0.38259 0.0
C1040 C 0.55428 0.42078 0.34446 0.0
C1041 C 0.54739 0.38373 0.31886 0.0
C1042 C 0.61487 0.37594 0.43811 0.0
C1043 C 0.5395 0.46237 0.32884 0.0
H1044 H 0.57719 0.52953 0.48524 0.0
H1045 H 0.68562 0.52634 0.40151 0.0
H1046 H 0.50651 0.4708 0.43402 0.0
H1047 H 0.53042 0.42444 0.45247 0.0
H1048 H 0.52679 0.46997 0.48776 0.0
H1049 H 0.69026 0.4761 0.34582 0.0
H1050 H 0.66832 0.42458 0.36136 0.0
H1051 H 0.64002 0.45475 0.32433 0.0
H1052 H 0.59409 0.31273 0.38096 0.0
H1053 H 0.53309 0.38564 0.28754 0.0
H1054 H 0.59996 0.3939 0.46457 0.0
H1055 H 0.6477 0.39029 0.43368 0.0
H1056 H 0.61713 0.34239 0.44758 0.0
H1057 H 0.52445 0.4803 0.35526 0.0
H1058 H 0.5163 0.45749 0.30216 0.0
H1059 H 0.56739 0.4823 0.31754 0.0
C1060 C 0.25885 0.93457 0.25027 0.0
C1061 C 0.23371 0.95619 0.27945 0.0
C1062 C 0.29983 0.92317 0.26148 0.0
C1063 C 0.31659 0.93476 0.30262 0.0
C1064 C 0.29118 0.9567 0.33225 0.0
C1065 C 0.24976 0.96656 0.32046 0.0
C1066 C 0.32469 0.89775 0.22941 0.0
C1067 C 0.30672 0.9692 0.37667 0.0
C1068 C 0.40298 0.86075 0.31181 0.0
C1069 C 0.43487 0.88367 0.28897 0.0
C1070 C 0.36613 0.8804 0.3253 0.0
C1071 C 0.36037 0.92259 0.31356 0.0
C1072 C 0.39617 0.94808 0.30006 0.0
C1073 C 0.43384 0.92837 0.2891 0.0
C1074 C 0.33089 0.85426 0.34626 0.0
C1075 C 0.39272 0.99458 0.29119 0.0
H1076 H 0.24615 0.92593 0.21885 0.0
H1077 H 0.23025 0.98333 0.34318 0.0
H1078 H 0.35768 0.91188 0.22607 0.0
H1079 H 0.327 0.8649 0.24084 0.0
H1080 H 0.30939 0.89576 0.19741 0.0
H1081 H 0.2937 -0.00025 0.38746 0.0
H1082 H 0.2949 0.9445 0.3991 0.0
H1083 H 0.34203 0.97236 0.37893 0.0
H1084 H 0.40379 0.8266 0.31458 0.0
H1085 H 0.45993 0.94717 0.27488 0.0
H1086 H 0.30825 0.8416 0.32138 0.0
H1087 H 0.3131 0.87388 0.36932 0.0
H1088 H 0.34371 0.82724 0.36319 0.0
H1089 H 0.37659 0.99758 0.26002 0.0
H1090 H 0.42465 0.01172 0.28977 0.0
H1091 H 0.37324 0.01009 0.31605 0.0
C1092 C 0.12106 0.00894 0.55497 0.0
C1093 C 0.16096 0.01417 0.5753 0.0
C1094 C 0.09015 0.03934 0.56107 0.0
C1095 C 0.10005 0.07611 0.58701 0.0
C1096 C 0.14213 0.08352 0.60316 0.0
C1097 C 0.17152 0.0519 0.59832 0.0
C1098 C 0.04733 0.03226 0.53953 0.0
C1099 C 0.15586 0.12382 0.62779 0.0
C1100 C 0.05169 0.17692 0.62019 0.0
C1101 C 0.04017 0.16621 0.66209 0.0
C1102 C 0.06331 0.14522 0.59054 0.0
C1103 C 0.06607 0.10302 0.60437 0.0
C1104 C 0.04625 0.09122 0.64328 0.0
C1105 C 0.03236 0.12306 0.67121 0.0
C1106 C 0.07843 0.15804 0.54682 0.0
C1107 C 0.04387 0.04571 0.65764 0.0
H1108 H 0.11322 0.98016 0.53611 0.0
H1109 H 0.20277 0.05654 0.61305 0.0
H1110 H 0.04688 0.05268 0.51132 0.0
H1111 H 0.04124 -0.00138 0.52858 0.0
H1112 H 0.02091 0.04145 0.56075 0.0
H1113 H 0.19111 0.12886 0.62835 0.0
H1114 H 0.14363 0.15231 0.61335 0.0
H1115 H 0.14328 0.12195 0.66083 0.0
H1116 H 0.05614 0.21005 0.61177 0.0
H1117 H 0.02057 0.11448 0.70255 0.0
H1118 H 0.07667 0.13051 0.52387 0.0
H1119 H 0.11201 0.1711 0.54861 0.0
H1120 H 0.05892 0.18342 0.53461 0.0
H1121 H 0.07587 0.03243 0.65677 0.0
H1122 H 0.02269 0.02609 0.63567 0.0
H1123 H 0.03085 0.0426 0.69046 0.0
C1124 C 0.82732 0.43828 0.26169 0.0
C1125 C 0.86356 0.42867 0.2378 0.0
C1126 C 0.79069 0.41074 0.26112 0.0
C1127 C 0.7901 0.37286 0.23572 0.0
C1128 C 0.82756 0.36152 0.21403 0.0
C1129 C 0.86371 0.38982 0.21496 0.0
C1130 C 0.75258 0.42234 0.28765 0.0
C1131 C 0.83068 0.31952 0.19043 0.0
C1132 C 0.70156 0.29052 0.25955 0.0
C1133 C 0.66877 0.30342 0.23359 0.0
C1134 C 0.74181 0.31196 0.25949 0.0
C1135 C 0.74983 0.34604 0.23169 0.0
C1136 C 0.7177 0.35709 0.20296 0.0
C1137 C 0.67717 0.33588 0.20461 0.0
C1138 C 0.77491 0.29954 0.29078 0.0
C1139 C 0.72482 0.3936 0.17305 0.0
H1140 H 0.82701 0.46795 0.28004 0.0
H1141 H 0.89197 0.38149 0.1974 0.0
H1142 H 0.74111 0.39501 0.30709 0.0
H1143 H 0.7601 0.45023 0.3094 0.0
H1144 H 0.72598 0.43004 0.26651 0.0
H1145 H 0.85014 0.29869 0.20958 0.0
H1146 H 0.79921 0.30271 0.18449 0.0
H1147 H 0.84765 0.32428 0.15967 0.0
H1148 H 0.69464 0.26597 0.28261 0.0
H1149 H 0.65135 0.34643 0.18532 0.0
H1150 H 0.78745 0.32775 0.30985 0.0
H1151 H 0.80189 0.28657 0.27283 0.0
H1152 H 0.76199 0.27508 0.31295 0.0
H1153 H 0.72149 0.42412 0.1909 0.0
H1154 H 0.70106 0.39177 0.14673 0.0
H1155 H 0.75749 0.39428 0.15938 0.0
C1156 C 0.72914 0.60055 0.78912 0.0
C1157 C 0.70386 0.6089 0.75374 0.0
C1158 C 0.77145 0.61734 0.79248 0.0
C1159 C 0.78901 0.64267 0.75943 0.0
C1160 C 0.76277 0.65347 0.72527 0.0
C1161 C 0.72042 0.63666 0.72287 0.0
C1162 C 0.79798 0.60615 0.8303 0.0
C1163 C 0.77976 0.68034 0.6895 0.0
C1164 C 0.89619 0.6995 0.78492 0.0
C1165 C 0.92395 0.66842 0.77197 0.0
C1166 C 0.852 0.69284 0.77877 0.0
C1167 C 0.83561 0.65435 0.75896 0.0
C1168 C 0.86407 0.62488 0.74203 0.0
C1169 C 0.90801 0.63207 0.74923 0.0
C1170 C 0.82291 0.72529 0.79683 0.0
C1171 C 0.84798 0.58425 0.71915 0.0
H1172 H 0.71638 0.57966 0.81356 0.0
H1173 H 0.70115 0.64347 0.69546 0.0
H1174 H 0.81456 0.63526 0.84454 0.0
H1175 H 0.7784 0.59011 0.8554 0.0
H1176 H 0.82286 0.58456 0.81966 0.0
H1177 H 0.75357 0.69784 0.67599 0.0
H1178 H 0.80583 0.70363 0.69985 0.0
H1179 H 0.79231 0.65927 0.66405 0.0
H1180 H 0.90863 0.72725 0.8032 0.0
H1181 H 0.92964 0.6079 0.73972 0.0
H1182 H 0.81006 0.71417 0.82785 0.0
H1183 H 0.79551 0.72916 0.77528 0.0
H1184 H 0.8401 0.75682 0.80237 0.0
H1185 H 0.83202 0.56253 0.74232 0.0
H1186 H 0.87421 0.56749 0.70341 0.0
H1187 H 0.82402 0.59114 0.69463 0.0
C1188 C 0.51821 0.8688 0.52805 0.0
C1189 C 0.53839 0.83028 0.53025 0.0
C1190 C 0.52906 0.89805 0.49608 0.0
C1191 C 0.5609 0.88854 0.46577 0.0
C1192 C 0.57983 0.84873 0.46683 0.0
C1193 C 0.56853 0.82031 0.49915 0.0
C1194 C 0.50739 0.93953 0.49608 0.0
C1195 C 0.61211 0.83586 0.43379 0.0
C1196 C 0.59095 0.93458 0.35974 0.0
C1197 C 0.62971 0.95691 0.37056 0.0
C1198 C 0.5642 0.91699 0.39152 0.0
C1199 C 0.5774 0.92057 0.43469 0.0
C1200 C 0.61299 0.9483 0.44602 0.0
C1201 C 0.63816 0.96695 0.41377 0.0
C1202 C 0.5242 0.89099 0.37851 0.0
C1203 C 0.62795 0.9538 0.49166 0.0
H1204 H 0.49475 0.8767 0.55198 0.0
H1205 H 0.58362 0.79023 0.50019 0.0
H1206 H 0.50759 0.95362 0.46405 0.0
H1207 H 0.47386 0.93518 0.50735 0.0
H1208 H 0.52445 0.96245 0.51846 0.0
H1209 H 0.6294 0.80787 0.44351 0.0
H1210 H 0.59542 0.82739 0.4033 0.0
H1211 H 0.63571 0.86253 0.42751 0.0
H1212 H 0.58334 0.92718 0.32656 0.0
H1213 H 0.66718 0.98559 0.42243 0.0
H1214 H 0.49823 0.89563 0.40199 0.0
H1215 H 0.53066 0.85671 0.37745 0.0
H1216 H 0.51308 0.89959 0.34641 0.0
H1217 H 0.60055 0.95745 0.51345 0.0
H1218 H 0.65081 0.98188 0.49616 0.0
H1219 H 0.64407 0.92494 0.5009 0.0
C1220 C 0.43884 0.2361 0.77175 0.0
C1221 C 0.43992 0.27959 0.78275 0.0
C1222 C 0.41912 0.22039 0.73391 0.0
C1223 C 0.39953 0.24883 0.70702 0.0
C1224 C 0.39932 0.29269 0.71898 0.0
C1225 C 0.42043 0.30764 0.75621 0.0
C1226 C 0.42044 0.17369 0.72254 0.0
C1227 C 0.37542 0.32378 0.69351 0.0
C1228 C 0.37086 0.24523 0.59187 0.0
C1229 C 0.32686 0.25026 0.59699 0.0
C1230 C 0.39625 0.23788 0.6275 0.0
C1231 C 0.37639 0.23345 0.66777 0.0
C1232 C 0.33166 0.22677 0.66998 0.0
C1233 C 0.30708 0.23501 0.63429 0.0
C1234 C 0.44416 0.24224 0.62337 0.0
C1235 C 0.30964 0.21953 0.71198 0.0
H1236 H 0.45495 0.21458 0.79187 0.0
H1237 H 0.42121 0.34125 0.76498 0.0
H1238 H 0.39108 0.16125 0.70565 0.0
H1239 H 0.44795 0.16895 0.70104 0.0
H1240 H 0.42476 0.15481 0.75147 0.0
H1241 H 0.38477 0.35737 0.70261 0.0
H1242 H 0.3807 0.31905 0.65881 0.0
H1243 H 0.34067 0.31839 0.69942 0.0
H1244 H 0.38623 0.25396 0.5621 0.0
H1245 H 0.27293 0.2363 0.63855 0.0
H1246 H 0.45946 0.2198 0.64441 0.0
H1247 H 0.45558 0.27505 0.63337 0.0
H1248 H 0.45454 0.23637 0.58992 0.0
H1249 H 0.27601 0.20745 0.70744 0.0
H1250 H 0.31002 0.25023 0.73018 0.0
H1251 H 0.32676 0.19695 0.73127 0.0
C1252 C 0.96747 0.10778 0.03298 0.0
C1253 C 0.95767 0.14627 0.05324 0.0
C1254 C 0.94255 0.09018 -0.00101 0.0
C1255 C 0.9066 0.11133 0.98532 0.0
C1256 C 0.89665 0.15034 0.00562 0.0
C1257 C 0.92257 0.16753 0.03902 0.0
C1258 C 0.95451 0.04874 0.97813 0.0
C1259 C 0.85903 0.17438 0.9917 0.0
C1260 C 0.85965 0.09103 0.87448 0.0
C1261 C 0.82225 0.0663 0.88343 0.0
C1262 C 0.88827 0.10462 0.90714 0.0
C1263 C 0.87937 0.09297 0.94971 0.0
C1264 C 0.84293 0.06592 0.95852 0.0
C1265 C 0.81467 0.05308 0.92528 0.0
C1266 C 0.92683 0.1333 0.89642 0.0
C1267 C 0.83252 0.05255 0.00343 0.0
H1268 H 0.99507 0.09171 0.04336 0.0
H1269 H 0.91491 0.19734 0.05452 0.0
H1270 H 0.93165 0.0227 0.98825 0.0
H1271 H 0.95275 0.05009 0.94286 0.0
H1272 H 0.98723 0.04061 0.98706 0.0
H1273 H 0.85223 0.20093 0.01431 0.0
H1274 H 0.86606 0.18793 0.96001 0.0
H1275 H 0.82989 0.15281 0.98845 0.0
H1276 H 0.86522 0.10202 0.84235 0.0
H1277 H 0.78562 0.03416 0.93226 0.0
H1278 H 0.95614 0.12093 0.91002 0.0
H1279 H 0.92326 0.16547 0.91087 0.0
H1280 H 0.93121 0.13641 0.86143 0.0
H1281 H 0.80498 0.02875 0.00446 0.0
H1282 H 0.82477 0.08086 0.02321 0.0
H1283 H 0.86059 0.03882 0.01815 0.0
C1284 C 0.10941 0.81718 0.33435 0.0
C1285 C 0.10036 0.77379 0.34152 0.0
C1286 C 0.12988 0.83085 0.29733 0.0
C1287 C 0.14151 0.80048 0.26632 0.0
C1288 C 0.13185 0.75644 0.27281 0.0
C1289 C 0.11129 0.7436 0.31051 0.0
C1290 C 0.14123 0.87771 0.29346 0.0
C1291 C 0.14525 0.72247 0.24145 0.0
C1292 C 0.1696 0.82519 0.1525 0.0
C1293 C 0.21261 0.815 0.15227 0.0
C1294 C 0.146 0.82389 0.19048 0.0
C1295 C 0.16671 0.81418 0.22875 0.0
C1296 C 0.21153 0.81278 0.2298 0.0
C1297 C 0.23418 0.81351 0.19142 0.0
C1298 C 0.09834 0.82802 0.18886 0.0
C1299 C 0.23493 0.80596 0.27083 0.0
H1300 H 0.10192 0.84091 0.35839 0.0
H1301 H 0.10466 0.71 0.31603 0.0
H1302 H 0.17117 0.88572 0.31151 0.0
H1303 H 0.14627 0.88712 0.25996 0.0
H1304 H 0.11591 0.89682 0.30777 0.0
H1305 H 0.12296 0.69374 0.24228 0.0
H1306 H 0.14701 0.73388 0.20833 0.0
H1307 H 0.17742 0.7128 0.25044 0.0
H1308 H 0.15319 0.82847 0.12244 0.0
H1309 H 0.26772 0.80716 0.19215 0.0
H1310 H 0.08181 0.79628 0.19328 0.0
H1311 H 0.08797 0.84055 0.15799 0.0
H1312 H 0.08804 0.8494 0.21516 0.0
H1313 H 0.26993 0.80536 0.26592 0.0
H1314 H 0.22345 0.77531 0.28467 0.0
H1315 H 0.22836 0.83169 0.29443 0.0
C1316 C 0.48571 0.15844 0.99569 0.0
C1317 C 0.5185 0.18941 0.98725 0.0
C1318 C 0.49053 0.12825 0.02743 0.0
C1319 C 0.5291 0.12918 0.05092 0.0
C1320 C 0.562 0.16071 0.04267 0.0
C1321 C 0.55624 0.19035 0.01108 0.0
C1322 C 0.45499 0.09474 0.03459 0.0
C1323 C 0.60389 0.1627 0.06661 0.0
C1324 C 0.55306 0.08427 0.15742 0.0
C1325 C 0.58081 0.05307 0.14472 0.0
C1326 C 0.53064 0.10598 0.12688 0.0
C1327 C 0.53708 0.09658 0.08295 0.0
C1328 C 0.56082 0.06145 0.07058 0.0
C1329 C 0.58247 0.04003 0.10177 0.0
C1330 C 0.50487 0.14266 0.14144 0.0
C1331 C 0.5674 0.0496 0.02417 0.0
H1332 H 0.45652 0.15737 0.97714 0.0
H1333 H 0.58175 0.21407 0.00472 0.0
H1334 H 0.46207 0.06521 0.01646 0.0
H1335 H 0.452 0.08674 0.06877 0.0
H1336 H 0.42381 0.10509 0.02324 0.0
H1337 H 0.62545 0.1902 0.0574 0.0
H1338 H 0.59794 0.16512 0.10147 0.0
H1339 H 0.62068 0.13312 0.06024 0.0
H1340 H 0.55247 0.0948 0.19064 0.0
H1341 H 0.60441 0.01619 0.09204 0.0
H1342 H 0.47551 0.1439 0.12191 0.0
H1343 H 0.52417 0.17298 0.13737 0.0
H1344 H 0.49575 0.14038 0.17562 0.0
H1345 H 0.5363 0.04694 0.00728 0.0
H1346 H 0.58311 0.01906 0.02016 0.0
H1347 H 0.58769 0.07487 0.00874 0.0
C1348 C 0.118 0.26735 0.24367 0.0
C1349 C 0.09785 0.23158 0.22316 0.0
C1350 C 0.12971 0.2667 0.28666 0.0
C1351 C 0.12106 0.22919 0.30995 0.0
C1352 C 0.10424 0.19171 0.28849 0.0
C1353 C 0.09315 0.19325 0.245 0.0
C1354 C 0.14769 0.30755 0.30801 0.0
C1355 C 0.09534 0.15098 0.31214 0.0
C1356 C 0.16671 0.25212 0.41973 0.0
C1357 C 0.13224 0.2717 0.4389 0.0
C1358 C 0.16206 0.23192 0.37921 0.0
C1359 C 0.12264 0.2326 0.35742 0.0
C1360 C 0.08661 0.24711 0.37936 0.0
C1361 C 0.09175 0.26591 0.42012 0.0
C1362 C 0.20014 0.21361 0.35791 0.0
C1363 C 0.04383 0.24836 0.35777 0.0
H1364 H 0.12227 0.29691 0.22681 0.0
H1365 H 0.07817 0.16531 0.22908 0.0
H1366 H 0.12519 0.31844 0.33281 0.0
H1367 H 0.1783 0.30211 0.32405 0.0
H1368 H 0.15341 0.33355 0.28504 0.0
H1369 H 0.08075 0.12502 0.29127 0.0
H1370 H 0.12551 0.14044 0.3256 0.0
H1371 H 0.07353 0.15626 0.33941 0.0
H1372 H 0.19797 0.25576 0.4345 0.0
H1373 H 0.06476 0.27994 0.43555 0.0
H1374 H 0.21137 0.23445 0.33176 0.0
H1375 H 0.19094 0.18192 0.34337 0.0
H1376 H 0.22675 0.21039 0.3807 0.0
H1377 H 0.04437 0.27572 0.33612 0.0
H1378 H 0.01802 0.25216 0.38144 0.0
H1379 H 0.03628 0.21898 0.33837 0.0
C1380 C 0.96062 0.84034 0.54187 0.0
C1381 C 0.0021 0.84847 0.52679 0.0
C1382 C 0.94593 0.86291 0.57758 0.0
C1383 C 0.97401 0.89311 0.59939 0.0
C1384 C 0.01692 0.89896 0.58601 0.0
C1385 C 0.03024 0.8772 0.54921 0.0
C1386 C 0.89974 0.8559 0.59063 0.0
C1387 C 0.04814 0.92961 0.60915 0.0
C1388 C 0.90791 0.97614 0.64986 0.0
C1389 C 0.89684 0.95635 0.68809 0.0
C1390 C 0.9374 0.95847 0.62199 0.0
C1391 C 0.95673 0.92084 0.63348 0.0
C1392 C 0.95107 0.90531 0.67519 0.0
C1393 C 0.92057 0.92299 0.70198 0.0
C1394 C 0.94234 0.97643 0.57794 0.0
C1395 C 0.97283 0.86669 0.68961 0.0
H1396 H 0.93897 0.81818 0.52429 0.0
H1397 H 0.06256 0.88312 0.53756 0.0
H1398 H 0.89773 0.84529 0.62407 0.0
H1399 H 0.88346 0.8862 0.58914 0.0
H1400 H 0.88216 0.83173 0.5698 0.0
H1401 H 0.08166 0.92426 0.59999 0.0
H1402 H 0.04145 0.96251 0.60097 0.0
H1403 H 0.04466 0.92697 0.64423 0.0
H1404 H 0.88946 0.0019 0.63908 0.0
H1405 H 0.91211 0.9079 0.73177 0.0
H1406 H 0.91816 0.96009 0.55641 0.0
H1407 H 0.97426 0.97139 0.56431 0.0
H1408 H 0.93708 0.01105 0.57837 0.0
H1409 H 0.97664 0.86732 0.72488 0.0
H1410 H 0.00466 0.86443 0.67456 0.0
H1411 H 0.95295 0.83758 0.68037 0.0
C1412 C 0.42643 0.79003 0.73753 0.0
C1413 C 0.44509 0.75053 0.73893 0.0
C1414 C 0.4071 0.80765 0.77408 0.0
C1415 C 0.40705 0.78539 0.81277 0.0
C1416 C 0.4266 0.74596 0.81411 0.0
C1417 C 0.44446 0.72885 0.77729 0.0
C1418 C 0.38835 0.85053 0.77146 0.0
C1419 C 0.42844 0.72089 0.85431 0.0
C1420 C 0.39964 0.81165 0.92802 0.0
C1421 C 0.36334 0.78536 0.937 0.0
C1422 C 0.41095 0.82004 0.88553 0.0
C1423 C 0.38554 0.80089 0.85212 0.0
C1424 C 0.34452 0.78246 0.86172 0.0
C1425 C 0.334 0.77442 0.90438 0.0
C1426 C 0.45386 0.84214 0.87663 0.0
C1427 C 0.31501 0.76453 0.82693 0.0
H1428 H 0.42747 0.80749 0.70818 0.0
H1429 H 0.45889 0.69848 0.77904 0.0
H1430 H 0.35856 0.85188 0.79042 0.0
H1431 H 0.41158 0.87537 0.78468 0.0
H1432 H 0.38157 0.85849 0.73792 0.0
H1433 H 0.45011 0.69432 0.85122 0.0
H1434 H 0.44003 0.74145 0.8816 0.0
H1435 H 0.39584 0.70747 0.86151 0.0
H1436 H 0.42215 0.82048 0.95342 0.0
H1437 H 0.3056 0.75455 0.91152 0.0
H1438 H 0.45303 0.86036 0.84688 0.0
H1439 H 0.47799 0.81795 0.87246 0.0
H1440 H 0.46429 0.86408 0.90347 0.0
H1441 H 0.31495 0.7864 0.79976 0.0
H1442 H 0.28181 0.75906 0.83878 0.0
H1443 H 0.32627 0.73363 0.81491 0.0
C1444 C 0.5164 0.52789 0.8627 0.0
C1445 C 0.50741 0.54692 0.82393 0.0
C1446 C 0.49326 0.53709 0.89975 0.0
C1447 C 0.46062 0.56605 0.89788 0.0
C1448 C 0.44779 0.58074 0.85774 0.0
C1449 C 0.47153 0.57114 0.82124 0.0
C1450 C 0.5047 0.51706 0.94104 0.0
C1451 C 0.40992 0.60783 0.85325 0.0
C1452 C 0.38791 0.61176 0.98056 0.0
C1453 C 0.4105 0.65073 0.98918 0.0
C1454 C 0.40626 0.58021 0.95511 0.0
C1455 C 0.44717 0.589 0.93715 0.0
C1456 C 0.47179 0.62625 0.95039 0.0
C1457 C 0.45318 0.65642 0.9768 0.0
C1458 C 0.38012 0.53972 0.94404 0.0
C1459 C 0.51546 0.63739 0.93195 0.0
H1460 H 0.54287 0.5074 0.86471 0.0
H1461 H 0.46303 0.5842 0.79096 0.0
H1462 H 0.50908 0.54147 0.96709 0.0
H1463 H 0.47803 0.49443 0.95019 0.0
H1464 H 0.53416 0.49926 0.93828 0.0
H1465 H 0.41025 0.62439 0.82238 0.0
H1466 H 0.38021 0.58701 0.85452 0.0
H1467 H 0.40844 0.63192 0.87957 0.0
H1468 H 0.35481 0.60747 0.99035 0.0
H1469 H 0.47036 0.68677 0.98365 0.0
H1470 H 0.35868 0.53045 0.97089 0.0
H1471 H 0.40071 0.5131 0.93619 0.0
H1472 H 0.35979 0.54491 0.91595 0.0
H1473 H 0.53582 0.60986 0.933 0.0
H1474 H 0.53211 0.66481 0.94927 0.0
H1475 H 0.51209 0.64583 0.89799 0.0
C1476 C 0.78963 0.28958 0.0961 0.0
C1477 C 0.75052 0.30905 0.0944 0.0
C1478 C 0.79217 0.24832 0.11129 0.0
C1479 C 0.75472 0.22627 0.12577 0.0
C1480 C 0.7152 0.24603 0.12484 0.0
C1481 C 0.71352 0.28704 0.10872 0.0
C1482 C 0.83506 0.22901 0.11305 0.0
C1483 C 0.67478 0.22403 0.14152 0.0
C1484 C 0.73274 0.10805 0.12627 0.0
C1485 C 0.72642 0.10226 0.17006 0.0
C1486 C 0.74677 0.14782 0.11104 0.0
C1487 C 0.75566 0.18193 0.14061 0.0
C1488 C 0.75622 0.17404 0.18491 0.0
C1489 C 0.74079 0.13417 0.19931 0.0
C1490 C 0.74603 0.15457 0.06351 0.0
C1491 C 0.76924 0.20884 0.21703 0.0
H1492 H 0.81859 0.30652 0.08581 0.0
H1493 H 0.68334 0.3021 0.10787 0.0
H1494 H 0.845 0.22701 0.14686 0.0
H1495 H 0.83316 0.19615 0.09919 0.0
H1496 H 0.86014 0.24819 0.09587 0.0
H1497 H 0.6461 0.24204 0.1354 0.0
H1498 H 0.67002 0.19166 0.12688 0.0
H1499 H 0.67786 0.22022 0.17641 0.0
H1500 H 0.72142 0.0831 0.10378 0.0
H1501 H 0.73605 0.12938 0.23316 0.0
H1502 H 0.77332 0.17602 0.05354 0.0
H1503 H 0.71621 0.16976 0.05514 0.0
H1504 H 0.74693 0.12401 0.045 0.0
H1505 H 0.76432 0.19881 0.25048 0.0
H1506 H 0.75087 0.23712 0.21164 0.0
H1507 H 0.80346 0.21861 0.21256 0.0
C1508 C 0.07171 0.49891 0.32153 0.0
C1509 C 0.03889 0.52721 0.32076 0.0
C1510 C 0.09042 0.48855 0.36004 0.0
C1511 C 0.07691 0.50805 0.39869 0.0
C1512 C 0.04858 0.54133 0.39734 0.0
C1513 C 0.02915 0.55002 0.35837 0.0
C1514 C 0.12106 0.45316 0.3596 0.0
C1515 C 0.03609 0.56545 0.43724 0.0
C1516 C 0.06944 0.4198 0.47523 0.0
C1517 C 0.11219 0.41976 0.48778 0.0
C1518 C 0.05534 0.45238 0.45041 0.0
C1519 C 0.08462 0.48622 0.43913 0.0
C1520 C 0.12535 0.49026 0.4587 0.0
C1521 C 0.13917 0.45632 0.48238 0.0
C1522 C 0.01131 0.44674 0.43091 0.0
C1523 C 0.15596 0.52798 0.45085 0.0
H1524 H 0.08028 0.48189 0.29254 0.0
H1525 H 0.00482 0.57307 0.35789 0.0
H1526 H 0.151 0.46381 0.3764 0.0
H1527 H 0.10663 0.42531 0.37654 0.0
H1528 H 0.12935 0.4425 0.32669 0.0
H1529 H 0.00619 0.55044 0.45041 0.0
H1530 H 0.06118 0.56566 0.46219 0.0
H1531 H 0.02985 0.59885 0.42987 0.0
H1532 H 0.04837 0.39188 0.4806 0.0
H1533 H 0.17204 0.45678 0.49307 0.0
H1534 H 0.01407 0.43783 0.39654 0.0
H1535 H 0.99484 0.47686 0.43328 0.0
H1536 H 0.99122 0.42145 0.44659 0.0
H1537 H 0.17652 0.52085 0.42306 0.0
H1538 H 0.17712 0.53477 0.4789 0.0
H1539 H 0.13875 0.55687 0.44402 0.0
C1540 C 0.69664 0.70835 0.59371 0.0
C1541 C 0.73605 0.69112 0.58537 0.0
C1542 C 0.69462 0.74994 0.61053 0.0
C1543 C 0.73266 0.7739 0.62137 0.0
C1544 C 0.77258 0.75681 0.61272 0.0
C1545 C 0.77379 0.71598 0.59395 0.0
C1546 C 0.65192 0.76862 0.61585 0.0
C1547 C 0.81401 0.78105 0.62455 0.0
C1548 C 0.7456 0.89289 0.63929 0.0
C1549 C 0.75201 0.89539 0.68351 0.0
C1550 C 0.73534 0.85364 0.61851 0.0
C1551 C 0.73125 0.81641 0.64288 0.0
C1552 C 0.73247 0.81983 0.68807 0.0
C1553 C 0.74348 0.8594 0.7079 0.0
C1554 C 0.73397 0.85163 0.57033 0.0
C1555 C 0.72712 0.78123 0.71543 0.0
H1556 H 0.66735 0.68976 0.58608 0.0
H1557 H 0.80444 0.70313 0.58706 0.0
H1558 H 0.64868 0.78194 0.64871 0.0
H1559 H 0.64934 0.79525 0.59371 0.0
H1560 H 0.62547 0.74458 0.60884 0.0
H1561 H 0.81484 0.81345 0.61147 0.0
H1562 H 0.81629 0.78471 0.65982 0.0
H1563 H 0.84234 0.76473 0.61272 0.0
H1564 H 0.75296 0.92084 0.62052 0.0
H1565 H 0.74904 0.86146 0.74207 0.0
H1566 H 0.70947 0.82741 0.55838 0.0
H1567 H 0.76538 0.84247 0.55791 0.0
H1568 H 0.72728 0.88293 0.55706 0.0
H1569 H 0.70293 0.75743 0.70202 0.0
H1570 H 0.71763 0.79011 0.74841 0.0
H1571 H 0.75811 0.76622 0.71721 0.0
C1572 C 0.51344 0.43011 0.66936 0.0
C1573 C 0.53033 0.47178 0.67639 0.0
C1574 C 0.47627 0.42154 0.64527 0.0
C1575 C 0.45475 0.45576 0.6283 0.0
C1576 C 0.47257 0.49793 0.63384 0.0
C1577 C 0.5104 0.50546 0.65769 0.0
C1578 C 0.46131 0.37542 0.6378 0.0
C1579 C 0.45149 0.53499 0.61495 0.0
C1580 C 0.37505 0.40906 0.54795 0.0
C1581 C 0.3397 0.40082 0.57447 0.0
C1582 C 0.41163 0.43222 0.5635 0.0
C1583 C 0.41284 0.44681 0.60663 0.0
C1584 C 0.37517 0.44327 0.63164 0.0
C1585 C 0.33882 0.4205 0.61506 0.0
C1586 C 0.45065 0.43586 0.53548 0.0
C1587 C 0.37498 0.45832 0.67779 0.0
H1588 H 0.52937 0.40386 0.68265 0.0
H1589 H 0.52366 0.53777 0.66263 0.0
H1590 H 0.4275 0.37094 0.62788 0.0
H1591 H 0.48112 0.36152 0.61222 0.0
H1592 H 0.46594 0.35693 0.66697 0.0
H1593 H 0.47081 0.56543 0.61981 0.0
H1594 H 0.44622 0.52913 0.58023 0.0
H1595 H 0.41971 0.53839 0.62975 0.0
H1596 H 0.37577 0.39366 0.5166 0.0
H1597 H 0.31165 0.41377 0.63574 0.0
H1598 H 0.47052 0.40851 0.54108 0.0
H1599 H 0.47029 0.46554 0.54299 0.0
H1600 H 0.4418 0.4352 0.50114 0.0
H1601 H 0.39405 0.43719 0.69699 0.0
H1602 H 0.34216 0.45802 0.69117 0.0
H1603 H 0.38998 0.491 0.68129 0.0
C1604 C 0.77916 0.26529 0.9347 0.0
C1605 C 0.75912 0.30246 0.94633 0.0
C1606 C 0.75775 0.23305 0.90993 0.0
C1607 C 0.71485 0.23771 0.89734 0.0
C1608 C 0.69511 0.27581 0.90772 0.0
C1609 C 0.71769 0.30801 0.9315 0.0
C1610 C 0.78063 0.19321 0.89897 0.0
C1611 C 0.65008 0.28262 0.8943 0.0
C1612 C 0.69559 0.15595 0.81115 0.0
C1613 C 0.6899 0.12037 0.83705 0.0
C1614 C 0.69734 0.197 0.82952 0.0
C1615 C 0.69139 0.2019 0.87402 0.0
C1616 C 0.674 0.16704 0.89727 0.0
C1617 C 0.6728 0.12618 0.87808 0.0
C1618 C 0.71466 0.23319 0.80303 0.0
C1619 C 0.66383 0.17153 0.94417 0.0
H1620 H 0.81122 0.26083 0.94593 0.0
H1621 H 0.70191 0.33672 0.94023 0.0
H1622 H 0.77582 0.18343 0.86499 0.0
H1623 H 0.81549 0.19764 0.9048 0.0
H1624 H 0.76762 0.1668 0.91882 0.0
H1625 H 0.63581 0.30815 0.9138 0.0
H1626 H 0.65038 0.29225 0.86054 0.0
H1627 H 0.62953 0.25291 0.89682 0.0
H1628 H 0.70676 0.15209 0.7786 0.0
H1629 H 0.66589 0.09866 0.89756 0.0
H1630 H 0.74998 0.23348 0.80349 0.0
H1631 H 0.70473 0.26434 0.81558 0.0
H1632 H 0.70442 0.22867 0.76929 0.0
H1633 H 0.6937 0.1701 0.9629 0.0
H1634 H 0.64107 0.14544 0.95455 0.0
H1635 H 0.6501 0.20257 0.95165 0.0
C1636 C 0.01963 0.63932 0.17269 0.0
C1637 C 0.00408 0.59676 0.17091 0.0
C1638 C 0.05536 0.65288 0.14871 0.0
C1639 C 0.07599 0.623 0.1223 0.0
C1640 C 0.05929 0.58036 0.11894 0.0
C1641 C 0.02335 0.56775 0.14321 0.0
C1642 C 0.07064 0.69932 0.15192 0.0
C1643 C 0.07981 0.54804 0.09024 0.0
C1644 C 0.15378 0.68293 0.05117 0.0
C1645 C 0.19064 0.68378 0.07645 0.0
C1646 C 0.11691 0.65854 0.06284 0.0
C1647 C 0.11694 0.63601 0.10132 0.0
C1648 C 0.15558 0.633 0.12408 0.0
C1649 C 0.19231 0.65636 0.11075 0.0
C1650 C 0.0768 0.66089 0.03672 0.0
C1651 C 0.15688 0.61031 0.1659 0.0
H1652 H 0.00426 0.66202 0.19333 0.0
H1653 H 0.01096 0.5349 0.14112 0.0
H1654 H 0.10588 0.7037 0.15004 0.0
H1655 H 0.05718 0.71626 0.12493 0.0
H1656 H 0.05985 0.71475 0.18203 0.0
H1657 H 0.06343 0.51588 0.09187 0.0
H1658 H 0.07928 0.5585 0.05672 0.0
H1659 H 0.11378 0.54566 0.09905 0.0
H1660 H 0.1525 0.70446 0.02483 0.0
H1661 H 0.22066 0.65763 0.13063 0.0
H1662 H 0.05651 0.68499 0.05146 0.0
H1663 H 0.05802 0.62987 0.03583 0.0
H1664 H 0.08417 0.67032 0.00349 0.0
H1665 H 0.13966 0.57858 0.16341 0.0
H1666 H 0.14073 0.62922 0.19086 0.0
H1667 H 0.19009 0.60617 0.17654 0.0
C1668 C 0.72919 0.77071 0.46537 0.0
C1669 C 0.7474 0.73138 0.45857 0.0
C1670 C 0.74644 0.80757 0.44641 0.0
C1671 C 0.78241 0.80499 0.41939 0.0
C1672 C 0.80439 0.76706 0.41746 0.0
C1673 C 0.78649 0.73041 0.4369 0.0
C1674 C 0.72416 0.84852 0.45272 0.0
C1675 C 0.84613 0.76516 0.39406 0.0
C1676 C 0.75515 0.86132 0.32072 0.0
C1677 C 0.76562 0.90345 0.3337 0.0
C1678 C 0.7645 0.82779 0.34678 0.0
C1679 C 0.78788 0.83648 0.38501 0.0
C1680 C 0.8057 0.87821 0.39369 0.0
C1681 C 0.79322 0.91169 0.36853 0.0
C1682 C 0.74375 0.78422 0.33651 0.0
C1683 C 0.83406 0.88864 0.43177 0.0
H1684 H 0.70042 0.77263 0.48433 0.0
H1685 H 0.80245 0.70086 0.43402 0.0
H1686 H 0.74704 0.87393 0.46529 0.0
H1687 H 0.71203 0.85899 0.4217 0.0
H1688 H 0.69715 0.84533 0.47555 0.0
H1689 H 0.84275 0.77528 0.36073 0.0
H1690 H 0.87017 0.78774 0.40964 0.0
H1691 H 0.85813 0.73269 0.39399 0.0
H1692 H 0.73394 0.85499 0.29369 0.0
H1693 H 0.8018 0.94436 0.37836 0.0
H1694 H 0.72194 0.77391 0.36265 0.0
H1695 H 0.7686 0.76077 0.33333 0.0
H1696 H 0.7247 0.7837 0.30673 0.0
H1697 H 0.81661 0.90733 0.45592 0.0
H1698 H 0.86224 0.90905 0.42189 0.0
H1699 H 0.84536 0.85976 0.44669 0.0
C1700 C 0.84472 0.50667 0.49815 0.0
C1701 C 0.80474 0.50853 0.518 0.0
C1702 C 0.87425 0.47793 0.51182 0.0
C1703 C 0.86335 0.4509 0.54604 0.0
C1704 C 0.82141 0.44966 0.56281 0.0
C1705 C 0.79263 0.47845 0.54855 0.0
C1706 C 0.91784 0.47809 0.49154 0.0
C1707 C 0.80811 0.42063 0.59866 0.0
C1708 C 0.92826 0.36649 0.59461 0.0
C1709 C 0.94356 0.38863 0.6313 0.0
C1710 C 0.90496 0.38727 0.56386 0.0
C1711 C 0.897 0.43085 0.57053 0.0
C1712 C 0.91575 0.45385 0.60597 0.0
C1713 C 0.93914 0.43246 0.63559 0.0
C1714 C 0.88653 0.36195 0.52597 0.0
C1715 C 0.90676 0.49964 0.61632 0.0
H1716 H 0.85391 0.52928 0.47385 0.0
H1717 H 0.76137 0.479 0.56328 0.0
H1718 H 0.92193 0.44657 0.47589 0.0
H1719 H 0.92251 0.50305 0.4673 0.0
H1720 H 0.94316 0.48307 0.51615 0.0
H1721 H 0.77323 0.42014 0.60494 0.0
H1722 H 0.81697 0.38763 0.59122 0.0
H1723 H 0.82519 0.43165 0.62828 0.0
H1724 H 0.9318 0.33248 0.59156 0.0
H1725 H 0.95084 0.44934 0.6643 0.0
H1726 H 0.85238 0.36795 0.52132 0.0
H1727 H 0.88931 0.32721 0.52948 0.0
H1728 H 0.90392 0.37197 0.49672 0.0
H1729 H 0.89991 0.51759 0.58749 0.0
H1730 H 0.93401 0.51634 0.63366 0.0
H1731 H 0.87839 0.50023 0.63749 0.0
C1732 C 0.39541 0.00356 0.55044 0.0
C1733 C 0.35236 0.99655 0.53853 0.0
C1734 C 0.42306 0.03152 0.5279 0.0
C1735 C 0.40719 0.05313 0.49286 0.0
C1736 C 0.36345 0.04749 0.48172 0.0
C1737 C 0.33653 0.01937 0.50479 0.0
C1738 C 0.4694 0.03696 0.54085 0.0
C1739 C 0.34543 0.06972 0.4442 0.0
C1740 C 0.46113 0.1491 0.4412 0.0
C1741 C 0.47614 0.13054 0.40342 0.0
C1742 C 0.44186 0.12377 0.47282 0.0
C1743 C 0.43655 0.07918 0.46553 0.0
C1744 C 0.45479 0.06018 0.42881 0.0
C1745 C 0.47473 0.08623 0.3983 0.0
C1746 C 0.42375 0.14502 0.51204 0.0
C1747 C 0.4494 0.01293 0.41898 0.0
H1748 H 0.40784 0.98646 0.57683 0.0
H1749 H 0.30341 0.01409 0.49524 0.0
H1750 H 0.49052 0.03588 0.51247 0.0
H1751 H 0.47554 0.06847 0.5571 0.0
H1752 H 0.47824 0.01194 0.56289 0.0
H1753 H 0.31018 0.06448 0.44176 0.0
H1754 H 0.35355 0.10447 0.44681 0.0
H1755 H 0.35986 0.05775 0.41418 0.0
H1756 H 0.46181 0.18352 0.44462 0.0
H1757 H 0.48558 0.07211 0.36854 0.0
H1758 H 0.43209 0.12801 0.54114 0.0
H1759 H 0.3884 0.14375 0.50974 0.0
H1760 H 0.43556 0.1789 0.51573 0.0
H1761 H 0.4464 0.9941 0.4483 0.0
H1762 H 0.47665 0.00184 0.39983 0.0
H1763 H 0.41993 0.00628 0.39981 0.0
C1764 C 0.31455 0.12821 0.81164 0.0
C1765 C 0.31872 0.11135 0.76999 0.0
C1766 C 0.27704 0.14731 0.82463 0.0
C1767 C 0.24309 0.14962 0.79534 0.0
C1768 C 0.24736 0.1325 0.75342 0.0
C1769 C 0.28508 0.11382 0.74122 0.0
C1770 C 0.27408 0.16584 0.86918 0.0
C1771 C 0.21223 0.13418 0.72095 0.0
C1772 C 0.12597 0.16361 0.80713 0.0
C1773 C 0.12392 0.20452 0.7907 0.0
C1774 C 0.16559 0.14699 0.81571 0.0
C1775 C 0.20361 0.17157 0.80663 0.0
C1776 C 0.2011 0.21513 0.7974 0.0
C1777 C 0.16125 0.23119 0.78996 0.0
C1778 C 0.16671 0.10143 0.82918 0.0
C1779 C 0.23987 0.24444 0.79032 0.0
H1780 H 0.34049 0.1263 0.83418 0.0
H1781 H 0.28795 0.10056 0.70913 0.0
H1782 H 0.27573 0.20104 0.86754 0.0
H1783 H 0.24304 0.15584 0.88394 0.0
H1784 H 0.30039 0.15638 0.88993 0.0
H1785 H 0.22085 0.11796 0.69065 0.0
H1786 H 0.18229 0.11828 0.73296 0.0
H1787 H 0.20582 0.16775 0.71468 0.0
H1788 H 0.09702 0.14323 0.80942 0.0
H1789 H 0.16031 0.26327 0.77841 0.0
H1790 H 0.19409 0.09741 0.8508 0.0
H1791 H 0.17059 0.08056 0.80054 0.0
H1792 H 0.13667 0.09069 0.84549 0.0
H1793 H 0.27025 0.22881 0.79387 0.0
H1794 H 0.23946 0.27158 0.81352 0.0
H1795 H 0.23837 0.25805 0.75809 0.0
C1796 C 0.14455 -0.0017 0.0369 0.0
C1797 C 0.15806 0.02755 0.0061 0.0
C1798 C 0.12041 0.96073 0.02525 0.0
C1799 C 0.10891 0.95296 0.98188 0.0
C1800 C 0.12146 0.98359 0.95104 0.0
C1801 C 0.14628 0.02024 0.96356 0.0
C1802 C 0.10556 0.93074 0.05972 0.0
C1803 C 0.10723 0.97953 0.90504 0.0
C1804 C 0.08876 0.8445 0.92976 0.0
C1805 C 0.04736 0.84801 0.91396 0.0
C1806 C 0.10825 0.87684 0.95597 0.0
C1807 C 0.08508 0.91261 0.96787 0.0
C1808 C 0.04103 0.91248 0.95787 0.0
C1809 C 0.02256 0.87997 0.93108 0.0
C1810 C 0.15539 0.87571 0.96516 0.0
C1811 C 0.01467 0.9494 0.97011 0.0
H1812 H 0.15257 0.00504 0.07014 0.0
H1813 H 0.15545 0.04391 0.94019 0.0
H1814 H 0.07192 0.93644 0.0675 0.0
H1815 H 0.10672 0.89693 0.04912 0.0
H1816 H 0.12472 0.93603 0.08939 0.0
H1817 H 0.1315 0.99458 0.88349 0.0
H1818 H 0.10036 0.9461 0.89443 0.0
H1819 H 0.07756 0.9966 0.90146 0.0
H1820 H 0.10816 0.81997 0.91651 0.0
H1821 H 0.99051 0.88278 0.91898 0.0
H1822 H 0.16251 0.88523 -0.00117 0.0
H1823 H 0.17327 0.89873 0.94456 0.0
H1824 H 0.16734 0.84361 0.95875 0.0
H1825 H 0.98109 0.93823 0.97659 0.0
H1826 H 0.01423 0.97147 0.94313 0.0
H1827 H 0.02785 0.96724 -0.00146 0.0
C1828 C 0.72087 0.42807 0.82287 0.0
C1829 C 0.71014 0.43593 0.7804 0.0
C1830 C 0.7597 0.41038 0.83288 0.0
C1831 C 0.78816 0.40019 0.79955 0.0
C1832 C 0.77633 0.40632 0.75655 0.0
C1833 C 0.73789 0.42463 0.74766 0.0
C1834 C 0.77079 0.40437 0.87908 0.0
C1835 C 0.80492 0.3952 0.71957 0.0
C1836 C 0.90651 0.40342 0.79335 0.0
C1837 C 0.91158 0.36097 0.78073 0.0
C1838 C 0.86665 0.41641 0.80708 0.0
C1839 C 0.83166 0.38596 0.80832 0.0
C1840 C 0.83928 0.34211 0.80444 0.0
C1841 C 0.87929 0.33002 0.78988 0.0
C1842 C 0.86064 0.46339 0.81336 0.0
C1843 C 0.80385 0.30816 0.80871 0.0
H1844 H 0.69956 0.43689 0.84845 0.0
H1845 H 0.72979 0.43047 0.7148 0.0
H1846 H 0.78826 0.37512 0.88314 0.0
H1847 H 0.79181 0.43184 0.89066 0.0
H1848 H 0.7418 0.40269 0.89948 0.0
H1849 H 0.78788 0.39523 0.68855 0.0
H1850 H 0.83249 0.4189 0.71857 0.0
H1851 H 0.81737 0.36326 0.72318 0.0
H1852 H 0.93179 0.42732 0.78664 0.0
H1853 H 0.88333 0.29707 0.78053 0.0
H1854 H 0.83761 0.46919 0.83946 0.0
H1855 H 0.84762 0.47593 0.78359 0.0
H1856 H 0.89133 0.48146 0.82082 0.0
H1857 H 0.81611 0.27951 0.82331 0.0
H1858 H 0.7917 0.29861 0.77645 0.0
H1859 H 0.77693 0.31916 0.82829 0.0
C1860 C 0.6693 0.5128 0.09092 0.0
C1861 C 0.67867 0.49721 0.04995 0.0
C1862 C 0.64212 0.54634 0.09689 0.0
C1863 C 0.62436 0.56543 0.06098 0.0
C1864 C 0.63186 0.54831 0.01962 0.0
C1865 C 0.65897 0.51442 0.01459 0.0
C1866 C 0.63309 0.56195 0.14179 0.0
C1867 C 0.61266 0.56639 0.98044 0.0
C1868 C 0.545 0.63943 0.10588 0.0
C1869 C 0.57253 0.67515 0.11495 0.0
C1870 C 0.55935 0.60482 0.08174 0.0
C1871 C 0.60231 0.60587 0.06761 0.0
C1872 C 0.62725 0.64484 0.07021 0.0
C1873 C 0.61167 0.6794 0.09332 0.0
C1874 C 0.53013 0.56553 0.07592 0.0
C1875 C 0.67269 0.64828 0.05429 0.0
H1876 H 0.68348 0.49897 0.11843 0.0
H1877 H 0.66547 0.50212 0.98275 0.0
H1878 H 0.64278 0.59633 0.14543 0.0
H1879 H 0.59833 0.55832 0.14827 0.0
H1880 H 0.64991 0.54419 0.16617 0.0
H1881 H 0.63502 0.59164 0.96784 0.0
H1882 H 0.60744 0.54149 0.95487 0.0
H1883 H 0.58189 0.58064 0.98764 0.0
H1884 H 0.51425 0.63628 0.12166 0.0
H1885 H 0.63253 0.70764 0.09933 0.0
H1886 H 0.5368 0.54275 0.10107 0.0
H1887 H 0.53545 0.5501 0.04433 0.0
H1888 H 0.49607 0.57312 0.07855 0.0
H1889 H 0.69329 0.63161 0.07638 0.0
H1890 H 0.68521 0.68196 0.05255 0.0
H1891 H 0.67511 0.63284 0.02224 0.0
C1892 C 0.27253 0.98518 0.7261 0.0
C1893 C 0.30128 0.95296 0.72903 0.0
C1894 C 0.22867 0.97642 0.73171 0.0
C1895 C 0.21363 0.93462 0.74124 0.0
C1896 C 0.24257 0.90166 0.74301 0.0
C1897 C 0.28618 0.91116 0.73597 0.0
C1898 C 0.19873 0.01205 0.72917 0.0
C1899 C 0.22789 0.85707 0.7554 0.0
C1900 C 0.1232 0.90271 0.81291 0.0
C1901 C 0.0924 0.88597 0.7836 0.0
C1902 C 0.16087 0.92364 0.79929 0.0
C1903 C 0.16896 0.92593 0.75512 0.0
C1904 C 0.13624 0.91333 0.72546 0.0
C1905 C 0.09818 0.89301 0.7401 0.0
C1906 C 0.19337 0.94043 0.83215 0.0
C1907 C 0.14085 0.92044 0.67844 0.0
H1908 H 0.28455 0.01745 0.72007 0.0
H1909 H 0.30862 0.88646 0.73816 0.0
H1910 H 0.1767 0.00589 0.70175 0.0
H1911 H 0.17899 0.01367 0.7585 0.0
H1912 H 0.21613 0.04331 0.72497 0.0
H1913 H 0.25394 0.83478 0.753 0.0
H1914 H 0.21659 0.85717 0.78891 0.0
H1915 H 0.20059 0.84496 0.73518 0.0
H1916 H 0.11972 0.89608 0.84647 0.0
H1917 H 0.07415 0.88065 0.71747 0.0
H1918 H 0.20238 0.97441 0.82631 0.0
H1919 H 0.22287 0.9228 0.82952 0.0
H1920 H 0.18124 0.93756 0.86531 0.0
H1921 H 0.17383 0.93036 0.66917 0.0
H1922 H 0.12013 0.94621 0.66966 0.0
H1923 H 0.12979 0.89128 0.65994 0.0
C1924 C 0.2209 0.11198 0.29147 0.0
C1925 C 0.19387 0.12022 0.25737 0.0
C1926 C 0.26075 0.13386 0.29631 0.0
C1927 C 0.27386 0.16471 0.26631 0.0
C1928 C 0.24505 0.17623 0.23469 0.0
C1929 C 0.20518 0.15385 0.23044 0.0
C1930 C 0.29002 0.12156 0.3316 0.0
C1931 C 0.25788 0.2091 0.20265 0.0
C1932 C 0.37836 0.21998 0.30009 0.0
C1933 C 0.40677 0.19168 0.28256 0.0
C1934 C 0.33468 0.21487 0.29096 0.0
C1935 C 0.31947 0.17988 0.26484 0.0
C1936 C 0.34885 0.15454 0.24298 0.0
C1937 C 0.39247 0.16094 0.25205 0.0
C1938 C 0.30483 0.24413 0.313 0.0
C1939 C 0.33404 0.11758 0.21386 0.0
H1940 H 0.21194 0.08682 0.31327 0.0
H1941 H 0.18433 0.16083 0.2043 0.0
H1942 H 0.31725 0.10498 0.31764 0.0
H1943 H 0.30332 0.1504 0.3492 0.0
H1944 H 0.27344 0.10013 0.35471 0.0
H1945 H 0.2753 0.19331 0.17652 0.0
H1946 H 0.22942 0.22329 0.18942 0.0
H1947 H 0.27967 0.23474 0.21658 0.0
H1948 H 0.3898 0.24379 0.32369 0.0
H1949 H 0.41472 0.13903 0.23875 0.0
H1950 H 0.29386 0.2298 0.34331 0.0
H1951 H 0.27652 0.249 0.29296 0.0
H1952 H 0.32115 0.27564 0.32087 0.0
H1953 H 0.31981 0.0914 0.2333 0.0
H1954 H 0.36072 0.10506 0.19487 0.0
H1955 H 0.30907 0.12714 0.19163 0.0
loop_
_geom_bond_atom_site_label_1
_geom_bond_atom_site_label_2
_geom_bond_distance
_geom_bond_site_symmetry_2
_ccdc_geom_bond_type
Co0 O1 2.216 . S
Co0 O2 2.091 . S
Co0 O4 2.004 1_455 S
Co0 O10 2.021 1_455 S
Co0 O12 2.137 . S
Co0 O13 2.244 . S
O1 Co0 2.216 . S
O1 C8 1.247 . S
O2 Co0 2.091 . S
O2 C8 1.261 . S
C3 O12 1.247 . S
C3 O13 1.272 . S
O4 Co0 2.004 1_655 S
O4 C9 1.259 . S
Co5 O6 2.061 1_455 S
Co5 O11 2.052 1_455 S
Co5 O13 2.135 . S
O6 Co5 2.061 1_655 S
O6 C9 1.235 . S
C7 O10 1.238 . S
C7 O11 1.241 . S
C8 O1 1.247 . S
C8 O2 1.261 . S
C9 O4 1.259 . S
C9 O6 1.235 . S
O10 Co0 2.021 1_655 S
O10 C7 1.238 . S
O11 Co5 2.052 1_655 S
O11 C7 1.241 . S
O12 Co0 2.137 . S
O12 C3 1.247 . S
O13 Co0 2.244 . S
O13 C3 1.272 . S
O13 Co5 2.135 . S
Co14 O15 2.216 . S
Co14 O16 2.091 1_455 S
Co14 O18 2.004 1_455 S
Co14 O24 2.021 1_455 S
Co14 O26 2.137 . S
Co14 O27 2.244 . S
O15 Co14 2.216 . S
O15 C22 1.247 . S
O16 Co14 2.091 1_655 S
O16 C22 1.261 1_655 S
C17 O26 1.247 . S
C17 O27 1.272 . S
O18 Co14 2.004 1_655 S
O18 C23 1.259 . S
Co19 O20 2.061 1_455 S
Co19 O25 2.052 1_455 S
Co19 O27 2.135 . S
O20 Co19 2.061 1_655 S
O20 C23 1.235 . S
C21 O24 1.238 . S
C21 O25 1.241 . S
C22 O15 1.247 . S
C22 O16 1.261 1_455 S
C23 O18 1.259 . S
C23 O20 1.235 . S
O24 Co14 2.021 1_655 S
O24 C21 1.238 . S
O25 Co19 2.052 1_655 S
O25 C21 1.241 . S
O26 Co14 2.137 . S
O26 C17 1.247 . S
O27 Co14 2.244 . S
O27 C17 1.272 . S
O27 Co19 2.135 . S
Co28 O29 2.216 . S
Co28 O30 2.091 . S
Co28 O32 2.004 . S
Co28 O38 2.021 . S
Co28 O40 2.137 . S
Co28 O41 2.244 . S
O29 Co28 2.216 . S
O29 C36 1.247 . S
O30 Co28 2.091 . S
O30 C36 1.261 . S
C31 O40 1.247 . S
C31 O41 1.272 . S
O32 Co28 2.004 . S
O32 C37 1.259 . S
Co33 O34 2.061 . S
Co33 O39 2.052 . S
Co33 O41 2.135 . S
O34 Co33 2.061 . S
O34 C37 1.235 . S
C35 O38 1.238 . S
C35 O39 1.241 . S
C36 O29 1.247 . S
C36 O30 1.261 . S
C37 O32 1.259 . S
C37 O34 1.235 . S
O38 Co28 2.021 . S
O38 C35 1.238 . S
O39 Co33 2.052 . S
O39 C35 1.241 . S
O40 Co28 2.137 . S
O40 C31 1.247 . S
O41 Co28 2.244 . S
O41 C31 1.272 . S
O41 Co33 2.135 . S
Co42 O43 2.216 . S
Co42 O44 2.091 . S
Co42 O46 2.004 . S
Co42 O52 2.021 . S
Co42 O54 2.137 . S
Co42 O55 2.244 . S
O43 Co42 2.216 . S
O43 C50 1.247 . S
O44 Co42 2.091 . S
O44 C50 1.261 . S
C45 O54 1.247 . S
C45 O55 1.272 . S
O46 Co42 2.004 . S
O46 C51 1.259 . S
Co47 O48 2.061 . S
Co47 O53 2.052 . S
Co47 O55 2.135 . S
O48 Co47 2.061 . S
O48 C51 1.235 . S
C49 O52 1.238 . S
C49 O53 1.241 . S
C50 O43 1.247 . S
C50 O44 1.261 . S
C51 O46 1.259 . S
C51 O48 1.235 . S
O52 Co42 2.021 . S
O52 C49 1.238 . S
O53 Co47 2.052 . S
O53 C49 1.241 . S
O54 Co42 2.137 . S
O54 C45 1.247 . S
O55 Co42 2.244 . S
O55 C45 1.272 . S
O55 Co47 2.135 . S
Co56 O57 2.216 . S
Co56 O58 2.091 . S
Co56 O60 2.004 1_565 S
Co56 O66 2.021 1_565 S
Co56 O68 2.137 . S
Co56 O69 2.244 1_565 S
O57 Co56 2.216 . S
O57 C64 1.247 . S
O58 Co56 2.091 . S
O58 C64 1.261 . S
C59 O68 1.247 . S
C59 O69 1.272 1_565 S
O60 Co56 2.004 1_545 S
O60 C65 1.259 . S
Co61 O62 2.061 . S
Co61 O67 2.052 . S
Co61 O69 2.135 . S
O62 Co61 2.061 . S
O62 C65 1.235 . S
C63 O66 1.238 . S
C63 O67 1.241 . S
C64 O57 1.247 . S
C64 O58 1.261 . S
C65 O60 1.259 . S
C65 O62 1.235 . S
O66 Co56 2.021 1_545 S
O66 C63 1.238 . S
O67 Co61 2.052 . S
O67 C63 1.241 . S
O68 Co56 2.137 . S
O68 C59 1.247 . S
O69 Co56 2.244 1_545 S
O69 C59 1.272 1_545 S
O69 Co61 2.135 . S
Co70 O71 2.216 . S
Co70 O72 2.091 . S
Co70 O74 2.004 . S
Co70 O80 2.021 . S
Co70 O82 2.137 . S
Co70 O83 2.244 . S
O71 Co70 2.216 . S
O71 C78 1.247 . S
O72 Co70 2.091 . S
O72 C78 1.261 . S
C73 O82 1.247 . S
C73 O83 1.272 . S
O74 Co70 2.004 . S
O74 C79 1.259 . S
Co75 O76 2.061 . S
Co75 O81 2.052 . S
Co75 O83 2.135 . S
O76 Co75 2.061 . S
O76 C79 1.235 . S
C77 O80 1.238 . S
C77 O81 1.241 . S
C78 O71 1.247 . S
C78 O72 1.261 . S
C79 O74 1.259 . S
C79 O76 1.235 . S
O80 Co70 2.021 . S
O80 C77 1.238 . S
O81 Co75 2.052 . S
O81 C77 1.241 . S
O82 Co70 2.137 . S
O82 C73 1.247 . S
O83 Co70 2.244 . S
O83 C73 1.272 . S
O83 Co75 2.135 . S
Co84 O85 2.216 . S
Co84 O86 2.091 . S
Co84 O88 2.004 . S
Co84 O94 2.021 . S
Co84 O96 2.137 . S
Co84 O97 2.244 . S
O85 Co84 2.216 . S
O85 C92 1.247 . S
O86 Co84 2.091 . S
O86 C92 1.261 . S
C87 O96 1.247 . S
C87 O97 1.272 . S
O88 Co84 2.004 . S
O88 C93 1.259 . S
Co89 O90 2.061 . S
Co89 O95 2.052 . S
Co89 O97 2.135 1_565 S
O90 Co89 2.061 . S
O90 C93 1.235 1_565 S
C91 O94 1.238 1_565 S
C91 O95 1.241 . S
C92 O85 1.247 . S
C92 O86 1.261 . S
C93 O88 1.259 . S
C93 O90 1.235 1_545 S
O94 Co84 2.021 . S
O94 C91 1.238 1_545 S
O95 Co89 2.052 . S
O95 C91 1.241 . S
O96 Co84 2.137 . S
O96 C87 1.247 . S
O97 Co84 2.244 . S
O97 C87 1.272 . S
O97 Co89 2.135 1_545 S
Co98 O99 2.216 . S
Co98 O100 2.091 1_554 S
Co98 O102 2.004 1_554 S
Co98 O108 2.021 1_554 S
Co98 O110 2.137 . S
Co98 O111 2.244 . S
O99 Co98 2.216 . S
O99 C106 1.247 . S
O100 Co98 2.091 1_556 S
O100 C106 1.261 1_556 S
C101 O110 1.247 . S
C101 O111 1.272 . S
O102 Co98 2.004 1_556 S
O102 C107 1.259 . S
Co103 O104 2.061 1_554 S
Co103 O109 2.052 1_554 S
Co103 O111 2.135 . S
O104 Co103 2.061 1_556 S
O104 C107 1.235 . S
C105 O108 1.238 . S
C105 O109 1.241 . S
C106 O99 1.247 . S
C106 O100 1.261 1_554 S
C107 O102 1.259 . S
C107 O104 1.235 . S
O108 Co98 2.021 1_556 S
O108 C105 1.238 . S
O109 Co103 2.052 1_556 S
O109 C105 1.241 . S
O110 Co98 2.137 . S
O110 C101 1.247 . S
O111 Co98 2.244 . S
O111 C101 1.272 . S
O111 Co103 2.135 . S
Co112 O113 2.216 . S
Co112 O114 2.091 . S
Co112 O116 2.004 1_554 S
Co112 O122 2.021 1_554 S
Co112 O124 2.137 . S
Co112 O125 2.244 . S
O113 Co112 2.216 . S
O113 C120 1.247 . S
O114 Co112 2.091 . S
O114 C120 1.261 . S
C115 O124 1.247 . S
C115 O125 1.272 . S
O116 Co112 2.004 1_556 S
O116 C121 1.259 . S
Co117 O118 2.061 1_554 S
Co117 O123 2.052 . S
Co117 O125 2.135 . S
O118 Co117 2.061 1_556 S
O118 C121 1.235 . S
C119 O122 1.238 . S
C119 O123 1.241 1_556 S
C120 O113 1.247 . S
C120 O114 1.261 . S
C121 O116 1.259 . S
C121 O118 1.235 . S
O122 Co112 2.021 1_556 S
O122 C119 1.238 . S
O123 Co117 2.052 . S
O123 C119 1.241 1_554 S
O124 Co112 2.137 . S
O124 C115 1.247 . S
O125 Co112 2.244 . S
O125 C115 1.272 . S
O125 Co117 2.135 . S
Co126 O127 2.216 . S
Co126 O128 2.091 . S
Co126 O130 2.004 . S
Co126 O136 2.021 . S
Co126 O138 2.137 . S
Co126 O139 2.244 . S
O127 Co126 2.216 . S
O127 C134 1.247 . S
O128 Co126 2.091 . S
O128 C134 1.261 . S
C129 O138 1.247 . S
C129 O139 1.272 . S
O130 Co126 2.004 . S
O130 C135 1.259 . S
Co131 O132 2.061 . S
Co131 O137 2.052 . S
Co131 O139 2.135 . S
O132 Co131 2.061 . S
O132 C135 1.235 . S
C133 O136 1.238 . S
C133 O137 1.241 . S
C134 O127 1.247 . S
C134 O128 1.261 . S
C135 O130 1.259 . S
C135 O132 1.235 . S
O136 Co126 2.021 . S
O136 C133 1.238 . S
O137 Co131 2.052 . S
O137 C133 1.241 . S
O138 Co126 2.137 . S
O138 C129 1.247 . S
O139 Co126 2.244 . S
O139 C129 1.272 . S
O139 Co131 2.135 . S
Co140 O141 2.216 . S
Co140 O142 2.091 . S
Co140 O144 2.004 . S
Co140 O150 2.021 . S
Co140 O152 2.137 . S
Co140 O153 2.244 . S
O141 Co140 2.216 . S
O141 C148 1.247 . S
O142 Co140 2.091 . S
O142 C148 1.261 . S
C143 O152 1.247 . S
C143 O153 1.272 . S
O144 Co140 2.004 . S
O144 C149 1.259 . S
Co145 O146 2.061 . S
Co145 O151 2.052 . S
Co145 O153 2.135 . S
O146 Co145 2.061 . S
O146 C149 1.235 . S
C147 O150 1.238 . S
C147 O151 1.241 . S
C148 O141 1.247 . S
C148 O142 1.261 . S
C149 O144 1.259 . S
C149 O146 1.235 . S
O150 Co140 2.021 . S
O150 C147 1.238 . S
O151 Co145 2.052 . S
O151 C147 1.241 . S
O152 Co140 2.137 . S
O152 C143 1.247 . S
O153 Co140 2.244 . S
O153 C143 1.272 . S
O153 Co145 2.135 . S
Co154 O155 2.216 . S
Co154 O156 2.091 . S
Co154 O158 2.004 . S
Co154 O164 2.021 . S
Co154 O166 2.137 . S
Co154 O167 2.244 . S
O155 Co154 2.216 . S
O155 C162 1.247 . S
O156 Co154 2.091 . S
O156 C162 1.261 . S
C157 O166 1.247 . S
C157 O167 1.272 . S
O158 Co154 2.004 . S
O158 C163 1.259 . S
Co159 O160 2.061 . S
Co159 O165 2.052 . S
Co159 O167 2.135 . S
O160 Co159 2.061 . S
O160 C163 1.235 . S
C161 O164 1.238 . S
C161 O165 1.241 . S
C162 O155 1.247 . S
C162 O156 1.261 . S
C163 O158 1.259 . S
C163 O160 1.235 . S
O164 Co154 2.021 . S
O164 C161 1.238 . S
O165 Co159 2.052 . S
O165 C161 1.241 . S
O166 Co154 2.137 . S
O166 C157 1.247 . S
O167 Co154 2.244 . S
O167 C157 1.272 . S
O167 Co159 2.135 . S
H168 C176 0.930 . S
H169 C179 0.930 . S
H170 C181 0.930 . S
H171 C182 0.970 . S
H172 C182 0.970 . S
H173 C184 0.931 . S
H174 C186 0.930 . S
H175 C188 0.930 1_455 S
C176 H168 0.930 . S
C176 C177 1.382 . S
C176 C178 1.426 . S
C177 C176 1.382 . S
C177 C181 1.389 . S
C178 C176 1.426 . S
C178 C179 1.375 . S
C178 C182 1.532 . S
C179 H169 0.930 . S
C179 C178 1.375 . S
C179 C180 1.416 . S
C180 C179 1.416 . S
C180 C181 1.371 . S
C181 H170 0.930 . S
C181 C177 1.389 . S
C181 C180 1.371 . S
C182 H171 0.970 . S
C182 H172 0.970 . S
C182 C178 1.532 . S
C182 C183 1.499 . S
C183 C182 1.499 . S
C183 C184 1.370 1_455 S
C183 C188 1.415 1_455 S
C184 H173 0.931 . S
C184 C183 1.370 1_655 S
C184 C185 1.407 . S
C185 C184 1.407 . S
C185 C186 1.365 . S
C186 H174 0.930 . S
C186 C185 1.365 . S
C186 C187 1.393 . S
C187 C186 1.393 . S
C187 C188 1.387 . S
C188 H175 0.930 1_655 S
C188 C183 1.415 1_655 S
C188 C187 1.387 . S
H189 C197 0.930 . S
H190 C200 0.930 . S
H191 C202 0.930 . S
H192 C203 0.970 . S
H193 C203 0.970 . S
H194 C205 0.930 1_455 S
H195 C207 0.930 . S
H196 C209 0.930 1_455 S
C197 H189 0.930 . S
C197 C198 1.382 . S
C197 C199 1.426 . S
C198 C197 1.382 . S
C198 C202 1.389 . S
C199 C197 1.426 . S
C199 C200 1.375 . S
C199 C203 1.532 . S
C200 H190 0.930 . S
C200 C199 1.375 . S
C200 C201 1.416 . S
C201 C200 1.416 . S
C201 C202 1.371 . S
C202 H191 0.930 . S
C202 C198 1.389 . S
C202 C201 1.371 . S
C203 H192 0.970 . S
C203 H193 0.970 . S
C203 C199 1.532 . S
C203 C204 1.499 . S
C204 C203 1.499 . S
C204 C205 1.370 1_455 S
C204 C209 1.415 1_455 S
C205 H194 0.930 1_655 S
C205 C204 1.370 1_655 S
C205 C206 1.407 . S
C206 C205 1.407 . S
C206 C207 1.365 . S
C207 H195 0.930 . S
C207 C206 1.365 . S
C207 C208 1.393 . S
C208 C207 1.393 . S
C208 C209 1.387 . S
C209 H196 0.930 1_655 S
C209 C204 1.415 1_655 S
C209 C208 1.387 . S
H210 C218 0.930 . S
H211 C221 0.930 . S
H212 C223 0.930 . S
H213 C224 0.970 . S
H214 C224 0.970 . S
H215 C226 0.930 . S
H216 C228 0.930 . S
H217 C230 0.930 . S
C218 H210 0.930 . S
C218 C219 1.382 . S
C218 C220 1.426 . S
C219 C218 1.382 . S
C219 C223 1.389 . S
C220 C218 1.426 . S
C220 C221 1.375 . S
C220 C224 1.532 . S
C221 H211 0.930 . S
C221 C220 1.375 . S
C221 C222 1.416 . S
C222 C221 1.416 . S
C222 C223 1.371 . S
C223 H212 0.930 . S
C223 C219 1.389 . S
C223 C222 1.371 . S
C224 H213 0.970 . S
C224 H214 0.970 . S
C224 C220 1.532 . S
C224 C225 1.499 . S
C225 C224 1.499 . S
C225 C226 1.370 . S
C225 C230 1.415 . S
C226 H215 0.930 . S
C226 C225 1.370 . S
C226 C227 1.407 . S
C227 C226 1.407 . S
C227 C228 1.365 . S
C228 H216 0.930 . S
C228 C227 1.365 . S
C228 C229 1.393 . S
C229 C228 1.393 . S
C229 C230 1.387 . S
C230 H217 0.930 . S
C230 C225 1.415 . S
C230 C229 1.387 . S
H231 C239 0.930 . S
H232 C242 0.930 . S
H233 C244 0.930 . S
H234 C245 0.970 . S
H235 C245 0.970 . S
H236 C247 0.930 . S
H237 C249 0.930 . S
H238 C251 0.930 . S
C239 H231 0.930 . S
C239 C240 1.382 . S
C239 C241 1.426 . S
C240 C239 1.382 . S
C240 C244 1.389 . S
C241 C239 1.426 . S
C241 C242 1.375 . S
C241 C245 1.532 . S
C242 H232 0.930 . S
C242 C241 1.375 . S
C242 C243 1.416 . S
C243 C242 1.416 . S
C243 C244 1.371 . S
C244 H233 0.930 . S
C244 C240 1.389 . S
C244 C243 1.371 . S
C245 H234 0.970 . S
C245 H235 0.970 . S
C245 C241 1.532 . S
C245 C246 1.499 . S
C246 C245 1.499 . S
C246 C247 1.370 . S
C246 C251 1.415 . S
C247 H236 0.930 . S
C247 C246 1.370 . S
C247 C248 1.407 . S
C248 C247 1.407 . S
C248 C249 1.365 . S
C249 H237 0.930 . S
C249 C248 1.365 . S
C249 C250 1.393 . S
C250 C249 1.393 . S
C250 C251 1.387 . S
C251 H238 0.930 . S
C251 C246 1.415 . S
C251 C250 1.387 . S
H252 C260 0.930 . S
H253 C263 0.930 . S
H254 C265 0.930 . S
H255 C266 0.970 . S
H256 C266 0.970 . S
H257 C268 0.930 . S
H258 C270 0.930 . S
H259 C272 0.930 . S
C260 H252 0.930 . S
C260 C261 1.382 . S
C260 C262 1.426 . S
C261 C260 1.382 . S
C261 C265 1.389 . S
C262 C260 1.426 . S
C262 C263 1.375 . S
C262 C266 1.532 1_545 S
C263 H253 0.930 . S
C263 C262 1.375 . S
C263 C264 1.416 . S
C264 C263 1.416 . S
C264 C265 1.371 . S
C265 H254 0.930 . S
C265 C261 1.389 . S
C265 C264 1.371 . S
C266 H255 0.970 . S
C266 H256 0.970 . S
C266 C262 1.532 1_565 S
C266 C267 1.499 . S
C267 C266 1.499 . S
C267 C268 1.370 . S
C267 C272 1.415 . S
C268 H257 0.930 . S
C268 C267 1.370 . S
C268 C269 1.407 . S
C269 C268 1.407 . S
C269 C270 1.365 . S
C270 H258 0.930 . S
C270 C269 1.365 . S
C270 C271 1.393 . S
C271 C270 1.393 . S
C271 C272 1.387 . S
C272 H259 0.930 . S
C272 C267 1.415 . S
C272 C271 1.387 . S
H273 C281 0.930 . S
H274 C284 0.930 . S
H275 C286 0.930 . S
H276 C287 0.970 . S
H277 C287 0.970 . S
H278 C289 0.930 . S
H279 C291 0.930 . S
H280 C293 0.930 . S
C281 H273 0.930 . S
C281 C282 1.382 . S
C281 C283 1.426 . S
C282 C281 1.382 . S
C282 C286 1.389 . S
C283 C281 1.426 . S
C283 C284 1.375 . S
C283 C287 1.532 . S
C284 H274 0.930 . S
C284 C283 1.375 . S
C284 C285 1.416 . S
C285 C284 1.416 . S
C285 C286 1.371 . S
C286 H275 0.930 . S
C286 C282 1.389 . S
C286 C285 1.371 . S
C287 H276 0.970 . S
C287 H277 0.970 . S
C287 C283 1.532 . S
C287 C288 1.499 . S
C288 C287 1.499 . S
C288 C289 1.370 . S
C288 C293 1.415 . S
C289 H278 0.930 . S
C289 C288 1.370 . S
C289 C290 1.407 . S
C290 C289 1.407 . S
C290 C291 1.365 . S
C291 H279 0.930 . S
C291 C290 1.365 . S
C291 C292 1.393 . S
C292 C291 1.393 . S
C292 C293 1.387 . S
C293 H280 0.930 . S
C293 C288 1.415 . S
C293 C292 1.387 . S
H294 C302 0.930 . S
H295 C305 0.930 . S
H296 C307 0.930 . S
H297 C308 0.970 . S
H298 C308 0.970 . S
H299 C310 0.930 . S
H300 C312 0.930 . S
H301 C314 0.930 . S
C302 H294 0.930 . S
C302 C303 1.382 . S
C302 C304 1.426 1_565 S
C303 C302 1.382 . S
C303 C307 1.389 . S
C304 C302 1.426 1_545 S
C304 C305 1.375 1_545 S
C304 C308 1.532 . S
C305 H295 0.930 . S
C305 C304 1.375 1_565 S
C305 C306 1.416 . S
C306 C305 1.416 . S
C306 C307 1.371 . S
C307 H296 0.930 . S
C307 C303 1.389 . S
C307 C306 1.371 . S
C308 H297 0.970 . S
C308 H298 0.970 . S
C308 C304 1.532 . S
C308 C309 1.499 . S
C309 C308 1.499 . S
C309 C310 1.370 . S
C309 C314 1.415 . S
C310 H299 0.930 . S
C310 C309 1.370 . S
C310 C311 1.407 . S
C311 C310 1.407 . S
C311 C312 1.365 . S
C312 H300 0.930 . S
C312 C311 1.365 . S
C312 C313 1.393 . S
C313 C312 1.393 . S
C313 C314 1.387 . S
C314 H301 0.930 . S
C314 C309 1.415 . S
C314 C313 1.387 . S
H315 C323 0.930 . S
H316 C326 0.930 . S
H317 C328 0.930 . S
H318 C329 0.970 . S
H319 C329 0.970 . S
H320 C331 0.930 . S
H321 C333 0.930 . S
H322 C335 0.930 . S
C323 H315 0.930 . S
C323 C324 1.382 . S
C323 C325 1.426 . S
C324 C323 1.382 . S
C324 C328 1.389 . S
C325 C323 1.426 . S
C325 C326 1.375 . S
C325 C329 1.532 . S
C326 H316 0.930 . S
C326 C325 1.375 . S
C326 C327 1.416 . S
C327 C326 1.416 . S
C327 C328 1.371 . S
C328 H317 0.930 . S
C328 C324 1.389 . S
C328 C327 1.371 . S
C329 H318 0.970 . S
C329 H319 0.970 . S
C329 C325 1.532 . S
C329 C330 1.499 . S
C330 C329 1.499 . S
C330 C331 1.370 . S
C330 C335 1.415 . S
C331 H320 0.930 . S
C331 C330 1.370 . S
C331 C332 1.407 1_554 S
C332 C331 1.407 1_556 S
C332 C333 1.365 . S
C333 H321 0.930 . S
C333 C332 1.365 . S
C333 C334 1.393 . S
C334 C333 1.393 . S
C334 C335 1.387 1_556 S
C335 H322 0.930 . S
C335 C330 1.415 . S
C335 C334 1.387 1_554 S
H336 C344 0.930 . S
H337 C347 0.930 . S
H338 C349 0.930 . S
H339 C350 0.970 . S
H340 C350 0.970 . S
H341 C352 0.930 1_554 S
H342 C354 0.930 . S
H343 C356 0.930 . S
C344 H336 0.930 . S
C344 C345 1.382 . S
C344 C346 1.426 . S
C345 C344 1.382 . S
C345 C349 1.389 . S
C346 C344 1.426 . S
C346 C347 1.375 . S
C346 C350 1.532 . S
C347 H337 0.930 . S
C347 C346 1.375 . S
C347 C348 1.416 . S
C348 C347 1.416 . S
C348 C349 1.371 . S
C349 H338 0.930 . S
C349 C345 1.389 . S
C349 C348 1.371 . S
C350 H339 0.970 . S
C350 H340 0.970 . S
C350 C346 1.532 . S
C350 C351 1.499 . S
C351 C350 1.499 . S
C351 C352 1.370 1_554 S
C351 C356 1.415 . S
C352 H341 0.930 1_556 S
C352 C351 1.370 1_556 S
C352 C353 1.407 . S
C353 C352 1.407 . S
C353 C354 1.365 . S
C354 H342 0.930 . S
C354 C353 1.365 . S
C354 C355 1.393 . S
C355 C354 1.393 . S
C355 C356 1.387 1_556 S
C356 H343 0.930 . S
C356 C351 1.415 . S
C356 C355 1.387 1_554 S
H357 C365 0.930 . S
H358 C368 0.930 . S
H359 C370 0.930 . S
H360 C371 0.970 . S
H361 C371 0.970 . S
H362 C373 0.930 . S
H363 C375 0.930 . S
H364 C377 0.930 . S
C365 H357 0.930 . S
C365 C366 1.382 . S
C365 C367 1.426 . S
C366 C365 1.382 . S
C366 C370 1.389 . S
C367 C365 1.426 . S
C367 C368 1.375 . S
C367 C371 1.532 . S
C368 H358 0.930 . S
C368 C367 1.375 . S
C368 C369 1.416 . S
C369 C368 1.416 . S
C369 C370 1.371 . S
C370 H359 0.930 . S
C370 C366 1.389 . S
C370 C369 1.371 . S
C371 H360 0.970 . S
C371 H361 0.970 . S
C371 C367 1.532 . S
C371 C372 1.499 . S
C372 C371 1.499 . S
C372 C373 1.370 . S
C372 C377 1.415 . S
C373 H362 0.930 . S
C373 C372 1.370 . S
C373 C374 1.407 . S
C374 C373 1.407 . S
C374 C375 1.365 . S
C375 H363 0.930 . S
C375 C374 1.365 . S
C375 C376 1.393 . S
C376 C375 1.393 . S
C376 C377 1.387 . S
C377 H364 0.930 . S
C377 C372 1.415 . S
C377 C376 1.387 . S
H378 C386 0.930 . S
H379 C389 0.930 . S
H380 C391 0.930 . S
H381 C392 0.970 . S
H382 C392 0.970 . S
H383 C394 0.930 . S
H384 C396 0.930 . S
H385 C398 0.930 . S
C386 H378 0.930 . S
C386 C387 1.382 . S
C386 C388 1.426 . S
C387 C386 1.382 . S
C387 C391 1.389 . S
C388 C386 1.426 . S
C388 C389 1.375 . S
C388 C392 1.532 . S
C389 H379 0.930 . S
C389 C388 1.375 . S
C389 C390 1.416 . S
C390 C389 1.416 . S
C390 C391 1.371 . S
C391 H380 0.930 . S
C391 C387 1.389 . S
C391 C390 1.371 . S
C392 H381 0.970 . S
C392 H382 0.970 . S
C392 C388 1.532 . S
C392 C393 1.499 . S
C393 C392 1.499 . S
C393 C394 1.370 . S
C393 C398 1.415 . S
C394 H383 0.930 . S
C394 C393 1.370 . S
C394 C395 1.407 . S
C395 C394 1.407 . S
C395 C396 1.365 . S
C396 H384 0.930 . S
C396 C395 1.365 . S
C396 C397 1.393 . S
C397 C396 1.393 . S
C397 C398 1.387 . S
C398 H385 0.930 . S
C398 C393 1.415 . S
C398 C397 1.387 . S
H399 C407 0.930 . S
H400 C410 0.930 . S
H401 C412 0.930 . S
H402 C413 0.970 . S
H403 C413 0.970 . S
H404 C415 0.930 . S
H405 C417 0.930 . S
H406 C419 0.930 . S
C407 H399 0.930 . S
C407 C408 1.382 . S
C407 C409 1.426 . S
C408 C407 1.382 . S
C408 C412 1.389 . S
C409 C407 1.426 . S
C409 C410 1.375 . S
C409 C413 1.532 . S
C410 H400 0.930 . S
C410 C409 1.375 . S
C410 C411 1.416 . S
C411 C410 1.416 . S
C411 C412 1.371 . S
C412 H401 0.930 . S
C412 C408 1.389 . S
C412 C411 1.371 . S
C413 H402 0.970 . S
C413 H403 0.970 . S
C413 C409 1.532 . S
C413 C414 1.499 . S
C414 C413 1.499 . S
C414 C415 1.370 . S
C414 C419 1.415 . S
C415 H404 0.930 . S
C415 C414 1.370 . S
C415 C416 1.407 . S
C416 C415 1.407 . S
C416 C417 1.365 . S
C417 H405 0.930 . S
C417 C416 1.365 . S
C417 C418 1.393 . S
C418 C417 1.393 . S
C418 C419 1.387 . S
C419 H406 0.930 . S
C419 C414 1.415 . S
C419 C418 1.387 . S
C420 C421 1.391 . S
C420 C422 1.394 1_554 S
C420 H436 0.931 . S
C421 C420 1.391 . S
C421 C425 1.376 . S
C422 C420 1.394 1_556 S
C422 C423 1.369 . S
C422 C426 1.531 . S
C423 C422 1.369 . S
C423 C424 1.410 . S
C423 C431 1.503 . S
C424 C423 1.410 . S
C424 C425 1.392 1_556 S
C424 C427 1.511 . S
C425 C421 1.376 . S
C425 C424 1.392 1_554 S
C425 H437 0.929 . S
C426 C422 1.531 . S
C426 H438 0.960 . S
C426 H439 0.962 . S
C426 H440 0.960 . S
C427 C424 1.511 . S
C427 H441 0.972 . S
C427 H442 0.961 . S
C427 H443 0.961 1_455 S
C428 C429 1.370 . S
C428 C430 1.363 . S
C428 H444 0.931 . S
C429 C428 1.370 . S
C429 C433 1.408 . S
C430 C428 1.363 . S
C430 C431 1.370 . S
C430 C434 1.524 . S
C431 C423 1.503 . S
C431 C430 1.370 . S
C431 C432 1.403 . S
C432 C431 1.403 . S
C432 C433 1.404 . S
C432 C435 1.539 . S
C433 C429 1.408 . S
C433 C432 1.404 . S
C433 H445 0.930 . S
C434 C430 1.524 . S
C434 H446 0.956 1_556 S
C434 H447 0.961 1_556 S
C434 H448 0.961 . S
C435 C432 1.539 . S
C435 H449 0.958 . S
C435 H450 0.961 . S
C435 H451 0.960 . S
H436 C420 0.931 . S
H437 C425 0.929 . S
H438 C426 0.960 . S
H439 C426 0.962 . S
H440 C426 0.960 . S
H441 C427 0.972 . S
H442 C427 0.961 . S
H443 C427 0.961 1_655 S
H444 C428 0.931 . S
H445 C433 0.930 . S
H446 C434 0.956 1_554 S
H447 C434 0.961 1_554 S
H448 C434 0.961 . S
H449 C435 0.958 . S
H450 C435 0.961 . S
H451 C435 0.960 . S
C452 C453 1.391 . S
C452 C454 1.394 . S
C452 H468 0.931 . S
C453 C452 1.391 . S
C453 C457 1.376 . S
C454 C452 1.394 . S
C454 C455 1.369 . S
C454 C458 1.531 . S
C455 C454 1.369 . S
C455 C456 1.410 . S
C455 C463 1.503 . S
C456 C455 1.410 . S
C456 C457 1.392 . S
C456 C459 1.511 . S
C457 C453 1.376 . S
C457 C456 1.392 . S
C457 H469 0.929 . S
C458 C454 1.531 . S
C458 H470 0.960 . S
C458 H471 0.962 . S
C458 H472 0.960 . S
C459 C456 1.511 . S
C459 H473 0.961 . S
C459 H474 0.961 . S
C459 H475 0.961 . S
C460 C461 1.370 . S
C460 C462 1.363 . S
C460 H476 0.931 . S
C461 C460 1.370 . S
C461 C465 1.408 . S
C462 C460 1.363 . S
C462 C463 1.370 . S
C462 C466 1.524 . S
C463 C455 1.503 . S
C463 C462 1.370 . S
C463 C464 1.403 . S
C464 C463 1.403 . S
C464 C465 1.404 . S
C464 C467 1.539 . S
C465 C461 1.408 . S
C465 C464 1.404 . S
C465 H477 0.930 . S
C466 C462 1.524 . S
C466 H478 0.956 . S
C466 H479 0.961 . S
C466 H480 0.961 . S
C467 C464 1.539 . S
C467 H481 0.958 . S
C467 H482 0.961 . S
C467 H483 0.960 . S
H468 C452 0.931 . S
H469 C457 0.929 . S
H470 C458 0.960 . S
H471 C458 0.962 . S
H472 C458 0.960 . S
H473 C459 0.961 . S
H474 C459 0.961 . S
H475 C459 0.961 . S
H476 C460 0.931 . S
H477 C465 0.930 . S
H478 C466 0.956 . S
H479 C466 0.961 . S
H480 C466 0.961 . S
H481 C467 0.958 . S
H482 C467 0.961 . S
H483 C467 0.960 . S
C484 C485 1.391 . S
C484 C486 1.394 . S
C484 H500 0.931 . S
C485 C484 1.391 . S
C485 C489 1.376 . S
C486 C484 1.394 . S
C486 C487 1.369 . S
C486 C490 1.531 . S
C487 C486 1.369 . S
C487 C488 1.410 . S
C487 C495 1.503 . S
C488 C487 1.410 . S
C488 C489 1.392 . S
C488 C491 1.511 . S
C489 C485 1.376 . S
C489 C488 1.392 . S
C489 H501 0.929 . S
C490 C486 1.531 . S
C490 H502 0.960 . S
C490 H503 0.962 . S
C490 H504 0.960 . S
C491 C488 1.511 . S
C491 H505 0.961 . S
C491 H506 0.961 . S
C491 H507 0.961 . S
C492 C493 1.370 . S
C492 C494 1.363 . S
C492 H508 0.931 . S
C493 C492 1.370 . S
C493 C497 1.408 . S
C494 C492 1.363 . S
C494 C495 1.370 . S
C494 C498 1.524 . S
C495 C487 1.503 . S
C495 C494 1.370 . S
C495 C496 1.403 . S
C496 C495 1.403 . S
C496 C497 1.404 . S
C496 C499 1.539 . S
C497 C493 1.408 . S
C497 C496 1.404 . S
C497 H509 0.930 . S
C498 C494 1.524 . S
C498 H510 0.956 . S
C498 H511 0.961 . S
C498 H512 0.961 . S
C499 C496 1.539 . S
C499 H513 0.958 . S
C499 H514 0.961 . S
C499 H515 0.960 . S
H500 C484 0.931 . S
H501 C489 0.929 . S
H502 C490 0.960 . S
H503 C490 0.962 . S
H504 C490 0.960 . S
H505 C491 0.961 . S
H506 C491 0.961 . S
H507 C491 0.961 . S
H508 C492 0.931 . S
H509 C497 0.930 . S
H510 C498 0.956 . S
H511 C498 0.961 . S
H512 C498 0.961 . S
H513 C499 0.958 . S
H514 C499 0.961 . S
H515 C499 0.960 . S
C516 C517 1.391 . S
C516 C518 1.394 . S
C516 H532 0.931 . S
C517 C516 1.391 . S
C517 C521 1.376 . S
C518 C516 1.394 . S
C518 C519 1.369 . S
C518 C522 1.531 . S
C519 C518 1.369 . S
C519 C520 1.410 . S
C519 C527 1.503 . S
C520 C519 1.410 . S
C520 C521 1.392 . S
C520 C523 1.511 . S
C521 C517 1.376 . S
C521 C520 1.392 . S
C521 H533 0.929 . S
C522 C518 1.531 . S
C522 H534 0.960 . S
C522 H535 0.962 . S
C522 H536 0.960 . S
C523 C520 1.511 . S
C523 H537 0.961 . S
C523 H538 0.961 . S
C523 H539 0.961 . S
C524 C525 1.370 . S
C524 C526 1.363 . S
C524 H540 0.931 . S
C525 C524 1.370 . S
C525 C529 1.408 . S
C526 C524 1.363 . S
C526 C527 1.370 . S
C526 C530 1.524 . S
C527 C519 1.503 . S
C527 C526 1.370 . S
C527 C528 1.403 . S
C528 C527 1.403 . S
C528 C529 1.404 . S
C528 C531 1.539 . S
C529 C525 1.408 . S
C529 C528 1.404 . S
C529 H541 0.930 . S
C530 C526 1.524 . S
C530 H542 0.956 . S
C530 H543 0.961 . S
C530 H544 0.961 . S
C531 C528 1.539 . S
C531 H545 0.958 . S
C531 H546 0.961 . S
C531 H547 0.960 . S
H532 C516 0.931 . S
H533 C521 0.929 . S
H534 C522 0.960 . S
H535 C522 0.962 . S
H536 C522 0.960 . S
H537 C523 0.961 . S
H538 C523 0.961 . S
H539 C523 0.961 . S
H540 C524 0.931 . S
H541 C529 0.930 . S
H542 C530 0.956 . S
H543 C530 0.961 . S
H544 C530 0.961 . S
H545 C531 0.958 . S
H546 C531 0.961 . S
H547 C531 0.960 . S
C548 C549 1.391 . S
C548 C550 1.394 . S
C548 H564 0.931 1_455 S
C549 C548 1.391 . S
C549 C553 1.376 . S
C550 C548 1.394 . S
C550 C551 1.369 . S
C550 C554 1.531 . S
C551 C550 1.369 . S
C551 C552 1.410 . S
C551 C559 1.503 . S
C552 C551 1.410 . S
C552 C553 1.392 . S
C552 C555 1.511 . S
C553 C549 1.376 . S
C553 C552 1.392 . S
C553 H565 0.929 . S
C554 C550 1.531 . S
C554 H566 0.960 . S
C554 H567 0.962 . S
C554 H568 0.960 1_455 S
C555 C552 1.511 . S
C555 H569 0.961 . S
C555 H570 0.961 . S
C555 H571 0.961 . S
C556 C557 1.370 . S
C556 C558 1.363 . S
C556 H572 0.931 . S
C557 C556 1.370 . S
C557 C561 1.408 . S
C558 C556 1.363 . S
C558 C559 1.370 . S
C558 C562 1.524 . S
C559 C551 1.503 . S
C559 C558 1.370 . S
C559 C560 1.403 . S
C560 C559 1.403 . S
C560 C561 1.404 . S
C560 C563 1.539 . S
C561 C557 1.408 . S
C561 C560 1.404 . S
C561 H573 0.930 . S
C562 C558 1.524 . S
C562 H574 0.956 . S
C562 H575 0.961 . S
C562 H576 0.961 . S
C563 C560 1.539 . S
C563 H577 0.958 . S
C563 H578 0.961 . S
C563 H579 0.960 . S
H564 C548 0.931 1_655 S
H565 C553 0.929 . S
H566 C554 0.960 . S
H567 C554 0.962 . S
H568 C554 0.960 1_655 S
H569 C555 0.961 . S
H570 C555 0.961 . S
H571 C555 0.961 . S
H572 C556 0.931 . S
H573 C561 0.930 . S
H574 C562 0.956 . S
H575 C562 0.961 . S
H576 C562 0.961 . S
H577 C563 0.958 . S
H578 C563 0.961 . S
H579 C563 0.960 . S
C580 C581 1.391 . S
C580 C582 1.394 . S
C580 H596 0.931 . S
C581 C580 1.391 . S
C581 C585 1.376 . S
C582 C580 1.394 . S
C582 C583 1.369 . S
C582 C586 1.531 . S
C583 C582 1.369 . S
C583 C584 1.410 . S
C583 C591 1.503 . S
C584 C583 1.410 . S
C584 C585 1.392 . S
C584 C587 1.511 . S
C585 C581 1.376 . S
C585 C584 1.392 . S
C585 H597 0.929 . S
C586 C582 1.531 . S
C586 H598 0.960 . S
C586 H599 0.962 . S
C586 H600 0.960 . S
C587 C584 1.511 . S
C587 H601 0.961 . S
C587 H602 0.961 . S
C587 H603 0.961 . S
C588 C589 1.370 . S
C588 C590 1.363 . S
C588 H604 0.931 . S
C589 C588 1.370 . S
C589 C593 1.408 . S
C590 C588 1.363 . S
C590 C591 1.370 . S
C590 C594 1.524 . S
C591 C583 1.503 . S
C591 C590 1.370 . S
C591 C592 1.403 . S
C592 C591 1.403 . S
C592 C593 1.404 . S
C592 C595 1.539 . S
C593 C589 1.408 . S
C593 C592 1.404 . S
C593 H605 0.930 . S
C594 C590 1.524 . S
C594 H606 0.956 . S
C594 H607 0.961 . S
C594 H608 0.961 . S
C595 C592 1.539 . S
C595 H609 0.958 . S
C595 H610 0.961 . S
C595 H611 0.960 . S
H596 C580 0.931 . S
H597 C585 0.929 . S
H598 C586 0.960 . S
H599 C586 0.962 . S
H600 C586 0.960 . S
H601 C587 0.961 . S
H602 C587 0.961 . S
H603 C587 0.961 . S
H604 C588 0.931 . S
H605 C593 0.930 . S
H606 C594 0.956 . S
H607 C594 0.961 . S
H608 C594 0.961 . S
H609 C595 0.958 . S
H610 C595 0.961 . S
H611 C595 0.960 . S
C612 C613 1.391 1_554 S
C612 C614 1.394 . S
C612 H628 0.931 . S
C613 C612 1.391 1_556 S
C613 C617 1.376 1_556 S
C614 C612 1.394 . S
C614 C615 1.369 . S
C614 C618 1.531 . S
C615 C614 1.369 . S
C615 C616 1.410 . S
C615 C623 1.503 . S
C616 C615 1.410 . S
C616 C617 1.392 . S
C616 C619 1.511 . S
C617 C613 1.376 1_554 S
C617 C616 1.392 . S
C617 H629 0.929 1_554 S
C618 C614 1.531 . S
C618 H630 0.960 . S
C618 H631 0.962 . S
C618 H632 0.960 . S
C619 C616 1.511 . S
C619 H633 0.961 . S
C619 H634 0.961 . S
C619 H635 0.961 . S
C620 C621 1.370 . S
C620 C622 1.363 . S
C620 H636 0.931 . S
C621 C620 1.370 . S
C621 C625 1.408 . S
C622 C620 1.363 . S
C622 C623 1.370 . S
C622 C626 1.524 . S
C623 C615 1.503 . S
C623 C622 1.370 . S
C623 C624 1.403 . S
C624 C623 1.403 . S
C624 C625 1.404 . S
C624 C627 1.539 . S
C625 C621 1.408 . S
C625 C624 1.404 . S
C625 H637 0.930 . S
C626 C622 1.524 . S
C626 H638 0.956 . S
C626 H639 0.961 . S
C626 H640 0.961 . S
C627 C624 1.539 . S
C627 H641 0.958 . S
C627 H642 0.961 . S
C627 H643 0.960 . S
H628 C612 0.931 . S
H629 C617 0.929 1_556 S
H630 C618 0.960 . S
H631 C618 0.962 . S
H632 C618 0.960 . S
H633 C619 0.961 . S
H634 C619 0.961 . S
H635 C619 0.961 . S
H636 C620 0.931 . S
H637 C625 0.930 . S
H638 C626 0.956 . S
H639 C626 0.961 . S
H640 C626 0.961 . S
H641 C627 0.958 . S
H642 C627 0.961 . S
H643 C627 0.960 . S
C644 C645 1.391 . S
C644 C646 1.394 . S
C644 H660 0.931 . S
C645 C644 1.391 . S
C645 C649 1.376 . S
C646 C644 1.394 . S
C646 C647 1.369 . S
C646 C650 1.531 . S
C647 C646 1.369 . S
C647 C648 1.410 . S
C647 C655 1.503 . S
C648 C647 1.410 . S
C648 C649 1.392 . S
C648 C651 1.511 . S
C649 C645 1.376 . S
C649 C648 1.392 . S
C649 H661 0.929 . S
C650 C646 1.531 . S
C650 H662 0.960 . S
C650 H663 0.962 . S
C650 H664 0.960 . S
C651 C648 1.511 . S
C651 H665 0.961 . S
C651 H666 0.961 . S
C651 H667 0.961 . S
C652 C653 1.370 . S
C652 C654 1.363 . S
C652 H668 0.931 . S
C653 C652 1.370 . S
C653 C657 1.408 . S
C654 C652 1.363 . S
C654 C655 1.370 . S
C654 C658 1.524 . S
C655 C647 1.503 . S
C655 C654 1.370 . S
C655 C656 1.403 . S
C656 C655 1.403 . S
C656 C657 1.404 . S
C656 C659 1.539 . S
C657 C653 1.408 . S
C657 C656 1.404 . S
C657 H669 0.930 . S
C658 C654 1.524 . S
C658 H670 0.956 . S
C658 H671 0.961 . S
C658 H672 0.961 . S
C659 C656 1.539 . S
C659 H673 0.958 . S
C659 H674 0.961 . S
C659 H675 0.960 . S
H660 C644 0.931 . S
H661 C649 0.929 . S
H662 C650 0.960 . S
H663 C650 0.962 . S
H664 C650 0.960 . S
H665 C651 0.961 . S
H666 C651 0.961 . S
H667 C651 0.961 . S
H668 C652 0.931 . S
H669 C657 0.930 . S
H670 C658 0.956 . S
H671 C658 0.961 . S
H672 C658 0.961 . S
H673 C659 0.958 . S
H674 C659 0.961 . S
H675 C659 0.960 . S
C676 C677 1.381 1_655 S
C676 C678 1.404 . S
C676 H692 0.931 . S
C677 C676 1.381 1_455 S
C677 C681 1.376 . S
C678 C676 1.404 . S
C678 C679 1.369 . S
C678 C682 1.531 . S
C679 C678 1.369 . S
C679 C680 1.410 1_655 S
C679 C687 1.503 . S
C680 C679 1.410 1_455 S
C680 C681 1.392 . S
C680 C683 1.511 . S
C681 C677 1.376 . S
C681 C680 1.392 . S
C681 H693 0.929 . S
C682 C678 1.531 . S
C682 H694 0.960 . S
C682 H695 0.962 . S
C682 H696 0.960 . S
C683 C680 1.511 . S
C683 H697 0.961 . S
C683 H698 0.961 1_455 S
C683 H699 0.964 . S
C684 C685 1.370 . S
C684 C686 1.363 . S
C684 H700 0.931 . S
C685 C684 1.370 . S
C685 C689 1.408 . S
C686 C684 1.363 . S
C686 C687 1.370 . S
C686 C690 1.524 . S
C687 C679 1.503 . S
C687 C686 1.370 . S
C687 C688 1.403 . S
C688 C687 1.403 . S
C688 C689 1.404 . S
C688 C691 1.539 . S
C689 C685 1.408 . S
C689 C688 1.404 . S
C689 H701 0.930 . S
C690 C686 1.524 . S
C690 H702 0.956 . S
C690 H703 0.961 . S
C690 H704 0.961 . S
C691 C688 1.539 . S
C691 H705 0.958 . S
C691 H706 0.961 . S
C691 H707 0.960 . S
H692 C676 0.931 . S
H693 C681 0.929 . S
H694 C682 0.960 . S
H695 C682 0.962 . S
H696 C682 0.960 . S
H697 C683 0.961 . S
H698 C683 0.961 1_655 S
H699 C683 0.964 . S
H700 C684 0.931 . S
H701 C689 0.930 . S
H702 C690 0.956 . S
H703 C690 0.961 . S
H704 C690 0.961 . S
H705 C691 0.958 . S
H706 C691 0.961 . S
H707 C691 0.960 . S
C708 C709 1.391 . S
C708 C710 1.394 . S
C708 H724 0.931 . S
C709 C708 1.391 . S
C709 C713 1.376 . S
C710 C708 1.394 . S
C710 C711 1.369 . S
C710 C714 1.531 . S
C711 C710 1.369 . S
C711 C712 1.410 . S
C711 C719 1.503 . S
C712 C711 1.410 . S
C712 C713 1.392 . S
C712 C715 1.511 . S
C713 C709 1.376 . S
C713 C712 1.392 . S
C713 H725 0.929 . S
C714 C710 1.531 . S
C714 H726 0.960 . S
C714 H727 0.962 . S
C714 H728 0.960 . S
C715 C712 1.511 . S
C715 H729 0.961 . S
C715 H730 0.961 . S
C715 H731 0.961 . S
C716 C717 1.370 . S
C716 C718 1.363 . S
C716 H732 0.931 . S
C717 C716 1.370 . S
C717 C721 1.408 . S
C718 C716 1.363 . S
C718 C719 1.370 . S
C718 C722 1.524 . S
C719 C711 1.503 . S
C719 C718 1.370 . S
C719 C720 1.403 . S
C720 C719 1.403 . S
C720 C721 1.404 . S
C720 C723 1.539 . S
C721 C717 1.408 . S
C721 C720 1.404 . S
C721 H733 0.930 . S
C722 C718 1.524 . S
C722 H734 0.956 . S
C722 H735 0.961 . S
C722 H736 0.961 . S
C723 C720 1.539 . S
C723 H737 0.958 . S
C723 H738 0.961 . S
C723 H739 0.960 . S
H724 C708 0.931 . S
H725 C713 0.929 . S
H726 C714 0.960 . S
H727 C714 0.962 . S
H728 C714 0.960 . S
H729 C715 0.961 . S
H730 C715 0.961 . S
H731 C715 0.961 . S
H732 C716 0.931 . S
H733 C721 0.930 . S
H734 C722 0.956 . S
H735 C722 0.961 . S
H736 C722 0.961 . S
H737 C723 0.958 . S
H738 C723 0.961 . S
H739 C723 0.960 . S
C740 C741 1.391 . S
C740 C742 1.394 . S
C740 H756 0.931 . S
C741 C740 1.391 . S
C741 C745 1.376 1_565 S
C742 C740 1.394 . S
C742 C743 1.369 . S
C742 C746 1.531 . S
C743 C742 1.369 . S
C743 C744 1.410 1_565 S
C743 C751 1.503 . S
C744 C743 1.410 1_545 S
C744 C745 1.392 . S
C744 C747 1.511 . S
C745 C741 1.376 1_545 S
C745 C744 1.392 . S
C745 H757 0.929 . S
C746 C742 1.531 . S
C746 H758 0.960 . S
C746 H759 0.962 . S
C746 H760 0.960 . S
C747 C744 1.511 . S
C747 H761 0.961 . S
C747 H762 0.961 . S
C747 H763 0.961 . S
C748 C749 1.370 . S
C748 C750 1.363 . S
C748 H764 0.931 . S
C749 C748 1.370 . S
C749 C753 1.408 . S
C750 C748 1.363 . S
C750 C751 1.370 . S
C750 C754 1.524 . S
C751 C743 1.503 . S
C751 C750 1.370 . S
C751 C752 1.403 . S
C752 C751 1.403 . S
C752 C753 1.404 . S
C752 C755 1.539 . S
C753 C749 1.408 . S
C753 C752 1.404 . S
C753 H765 0.930 . S
C754 C750 1.524 . S
C754 H766 0.956 . S
C754 H767 0.961 . S
C754 H768 0.961 1_556 S
C755 C752 1.539 . S
C755 H769 0.958 . S
C755 H770 0.961 . S
C755 H771 0.960 . S
H756 C740 0.931 . S
H757 C745 0.929 . S
H758 C746 0.960 . S
H759 C746 0.962 . S
H760 C746 0.960 . S
H761 C747 0.961 . S
H762 C747 0.961 . S
H763 C747 0.961 . S
H764 C748 0.931 . S
H765 C753 0.930 . S
H766 C754 0.956 . S
H767 C754 0.961 . S
H768 C754 0.961 1_554 S
H769 C755 0.958 . S
H770 C755 0.961 . S
H771 C755 0.960 . S
C772 C773 1.391 . S
C772 C774 1.394 . S
C772 H788 0.931 . S
C773 C772 1.391 . S
C773 C777 1.376 . S
C774 C772 1.394 . S
C774 C775 1.369 . S
C774 C778 1.531 . S
C775 C774 1.369 . S
C775 C776 1.410 . S
C775 C783 1.503 . S
C776 C775 1.410 . S
C776 C777 1.392 . S
C776 C779 1.511 . S
C777 C773 1.376 . S
C777 C776 1.392 . S
C777 H789 0.929 . S
C778 C774 1.531 . S
C778 H790 0.960 . S
C778 H791 0.962 . S
C778 H792 0.960 . S
C779 C776 1.511 . S
C779 H793 0.961 . S
C779 H794 0.961 . S
C779 H795 0.961 . S
C780 C781 1.370 . S
C780 C782 1.363 . S
C780 H796 0.931 . S
C781 C780 1.370 . S
C781 C785 1.408 . S
C782 C780 1.363 . S
C782 C783 1.370 . S
C782 C786 1.524 . S
C783 C775 1.503 . S
C783 C782 1.370 . S
C783 C784 1.403 . S
C784 C783 1.403 . S
C784 C785 1.404 . S
C784 C787 1.539 . S
C785 C781 1.408 . S
C785 C784 1.404 . S
C785 H797 0.930 . S
C786 C782 1.524 . S
C786 H798 0.956 . S
C786 H799 0.961 . S
C786 H800 0.961 . S
C787 C784 1.539 . S
C787 H801 0.958 . S
C787 H802 0.961 . S
C787 H803 0.960 . S
H788 C772 0.931 . S
H789 C777 0.929 . S
H790 C778 0.960 . S
H791 C778 0.962 . S
H792 C778 0.960 . S
H793 C779 0.961 . S
H794 C779 0.961 . S
H795 C779 0.961 . S
H796 C780 0.931 . S
H797 C785 0.930 . S
H798 C786 0.956 . S
H799 C786 0.961 . S
H800 C786 0.961 . S
H801 C787 0.958 . S
H802 C787 0.961 . S
H803 C787 0.960 . S
C804 C805 1.391 . S
C804 C806 1.394 1_455 S
C804 H820 0.931 . S
C805 C804 1.391 . S
C805 C809 1.376 . S
C806 C804 1.394 1_655 S
C806 C807 1.369 . S
C806 C810 1.531 . S
C807 C806 1.369 . S
C807 C808 1.410 1_655 S
C807 C815 1.503 . S
C808 C807 1.410 1_455 S
C808 C809 1.392 . S
C808 C811 1.511 . S
C809 C805 1.376 . S
C809 C808 1.392 . S
C809 H821 0.929 . S
C810 C806 1.531 . S
C810 H822 0.960 . S
C810 H823 0.962 . S
C810 H824 0.960 . S
C811 C808 1.511 . S
C811 H825 0.961 . S
C811 H826 0.961 1_455 S
C811 H827 0.961 . S
C812 C813 1.370 . S
C812 C814 1.363 . S
C812 H828 0.931 . S
C813 C812 1.370 . S
C813 C817 1.408 . S
C814 C812 1.363 . S
C814 C815 1.370 . S
C814 C818 1.524 . S
C815 C807 1.503 . S
C815 C814 1.370 . S
C815 C816 1.403 . S
C816 C815 1.403 . S
C816 C817 1.404 . S
C816 C819 1.539 1_565 S
C817 C813 1.408 . S
C817 C816 1.404 . S
C817 H829 0.930 . S
C818 C814 1.524 . S
C818 H830 0.956 . S
C818 H831 0.961 . S
C818 H832 0.961 . S
C819 C816 1.539 1_545 S
C819 H833 0.958 . S
C819 H834 0.961 . S
C819 H835 0.960 . S
H820 C804 0.931 . S
H821 C809 0.929 . S
H822 C810 0.960 . S
H823 C810 0.962 . S
H824 C810 0.960 . S
H825 C811 0.961 . S
H826 C811 0.961 1_655 S
H827 C811 0.961 . S
H828 C812 0.931 . S
H829 C817 0.930 . S
H830 C818 0.956 . S
H831 C818 0.961 . S
H832 C818 0.961 . S
H833 C819 0.958 . S
H834 C819 0.961 . S
H835 C819 0.960 . S
C836 C837 1.391 . S
C836 C838 1.394 . S
C836 H852 0.931 . S
C837 C836 1.391 . S
C837 C841 1.376 . S
C838 C836 1.394 . S
C838 C839 1.369 . S
C838 C842 1.531 . S
C839 C838 1.369 . S
C839 C840 1.410 . S
C839 C847 1.503 . S
C840 C839 1.410 . S
C840 C841 1.392 . S
C840 C843 1.511 . S
C841 C837 1.376 . S
C841 C840 1.392 . S
C841 H853 0.929 . S
C842 C838 1.531 . S
C842 H854 0.960 . S
C842 H855 0.962 . S
C842 H856 0.960 . S
C843 C840 1.511 . S
C843 H857 0.961 . S
C843 H858 0.961 . S
C843 H859 0.961 . S
C844 C845 1.370 . S
C844 C846 1.363 . S
C844 H860 0.931 . S
C845 C844 1.370 . S
C845 C849 1.408 . S
C846 C844 1.363 . S
C846 C847 1.370 . S
C846 C850 1.524 . S
C847 C839 1.503 . S
C847 C846 1.370 . S
C847 C848 1.403 . S
C848 C847 1.403 . S
C848 C849 1.404 . S
C848 C851 1.539 . S
C849 C845 1.408 . S
C849 C848 1.404 . S
C849 H861 0.930 . S
C850 C846 1.524 . S
C850 H862 0.956 . S
C850 H863 0.961 . S
C850 H864 0.961 . S
C851 C848 1.539 . S
C851 H865 0.958 . S
C851 H866 0.961 . S
C851 H867 0.960 . S
H852 C836 0.931 . S
H853 C841 0.929 . S
H854 C842 0.960 . S
H855 C842 0.962 . S
H856 C842 0.960 . S
H857 C843 0.961 . S
H858 C843 0.961 . S
H859 C843 0.961 . S
H860 C844 0.931 . S
H861 C849 0.930 . S
H862 C850 0.956 . S
H863 C850 0.961 . S
H864 C850 0.961 . S
H865 C851 0.958 . S
H866 C851 0.961 . S
H867 C851 0.960 . S
C868 C869 1.391 . S
C868 C870 1.394 . S
C868 H884 0.931 . S
C869 C868 1.391 . S
C869 C873 1.376 . S
C870 C868 1.394 . S
C870 C871 1.369 . S
C870 C874 1.531 . S
C871 C870 1.369 . S
C871 C872 1.410 . S
C871 C879 1.503 . S
C872 C871 1.410 . S
C872 C873 1.392 . S
C872 C875 1.511 . S
C873 C869 1.376 . S
C873 C872 1.392 . S
C873 H885 0.929 . S
C874 C870 1.531 . S
C874 H886 0.960 . S
C874 H887 0.962 . S
C874 H888 0.960 . S
C875 C872 1.511 . S
C875 H889 0.961 . S
C875 H890 0.961 . S
C875 H891 0.961 . S
C876 C877 1.370 . S
C876 C878 1.363 . S
C876 H892 0.931 . S
C877 C876 1.370 . S
C877 C881 1.408 . S
C878 C876 1.363 . S
C878 C879 1.370 . S
C878 C882 1.524 . S
C879 C871 1.503 . S
C879 C878 1.370 . S
C879 C880 1.403 . S
C880 C879 1.403 . S
C880 C881 1.404 . S
C880 C883 1.539 . S
C881 C877 1.408 . S
C881 C880 1.404 . S
C881 H893 0.930 . S
C882 C878 1.524 . S
C882 H894 0.956 . S
C882 H895 0.961 . S
C882 H896 0.961 . S
C883 C880 1.539 . S
C883 H897 0.958 . S
C883 H898 0.961 . S
C883 H899 0.960 . S
H884 C868 0.931 . S
H885 C873 0.929 . S
H886 C874 0.960 . S
H887 C874 0.962 . S
H888 C874 0.960 . S
H889 C875 0.961 . S
H890 C875 0.961 . S
H891 C875 0.961 . S
H892 C876 0.931 . S
H893 C881 0.930 . S
H894 C882 0.956 . S
H895 C882 0.961 . S
H896 C882 0.961 . S
H897 C883 0.958 . S
H898 C883 0.961 . S
H899 C883 0.960 . S
C900 C901 1.391 . S
C900 C902 1.394 . S
C900 H916 0.931 . S
C901 C900 1.391 . S
C901 C905 1.376 . S
C902 C900 1.394 . S
C902 C903 1.369 . S
C902 C906 1.531 . S
C903 C902 1.369 . S
C903 C904 1.410 . S
C903 C911 1.503 . S
C904 C903 1.410 . S
C904 C905 1.392 . S
C904 C907 1.511 . S
C905 C901 1.376 . S
C905 C904 1.392 . S
C905 H917 0.929 . S
C906 C902 1.531 . S
C906 H918 0.960 . S
C906 H919 0.962 . S
C906 H920 0.960 . S
C907 C904 1.511 . S
C907 H921 0.961 . S
C907 H922 0.961 . S
C907 H923 0.961 . S
C908 C909 1.370 . S
C908 C910 1.363 . S
C908 H924 0.931 . S
C909 C908 1.370 . S
C909 C913 1.408 . S
C910 C908 1.363 . S
C910 C911 1.370 . S
C910 C914 1.524 . S
C911 C903 1.503 . S
C911 C910 1.370 . S
C911 C912 1.403 . S
C912 C911 1.403 . S
C912 C913 1.404 . S
C912 C915 1.539 . S
C913 C909 1.408 . S
C913 C912 1.404 . S
C913 H925 0.930 . S
C914 C910 1.524 . S
C914 H926 0.956 . S
C914 H927 0.961 . S
C914 H928 0.961 . S
C915 C912 1.539 . S
C915 H929 0.958 . S
C915 H930 0.961 . S
C915 H931 0.960 . S
H916 C900 0.931 . S
H917 C905 0.929 . S
H918 C906 0.960 . S
H919 C906 0.962 . S
H920 C906 0.960 . S
H921 C907 0.961 . S
H922 C907 0.961 . S
H923 C907 0.961 . S
H924 C908 0.931 . S
H925 C913 0.930 . S
H926 C914 0.956 . S
H927 C914 0.961 . S
H928 C914 0.961 . S
H929 C915 0.958 . S
H930 C915 0.961 . S
H931 C915 0.960 . S
C932 C933 1.391 . S
C932 C934 1.394 . S
C932 H948 0.931 . S
C933 C932 1.391 . S
C933 C937 1.376 . S
C934 C932 1.394 . S
C934 C935 1.369 1_545 S
C934 C938 1.531 . S
C935 C934 1.369 1_565 S
C935 C936 1.410 . S
C935 C943 1.503 . S
C936 C935 1.410 . S
C936 C937 1.392 1_565 S
C936 C939 1.511 . S
C937 C933 1.376 . S
C937 C936 1.392 1_545 S
C937 H949 0.929 . S
C938 C934 1.531 . S
C938 H950 0.960 1_545 S
C938 H951 0.962 . S
C938 H952 0.960 . S
C939 C936 1.511 . S
C939 H953 0.961 . S
C939 H954 0.961 . S
C939 H955 0.961 . S
C940 C941 1.370 . S
C940 C942 1.363 . S
C940 H956 0.931 . S
C941 C940 1.370 . S
C941 C945 1.408 . S
C942 C940 1.363 . S
C942 C943 1.370 . S
C942 C946 1.524 . S
C943 C935 1.503 . S
C943 C942 1.370 . S
C943 C944 1.403 . S
C944 C943 1.403 . S
C944 C945 1.404 . S
C944 C947 1.539 . S
C945 C941 1.408 . S
C945 C944 1.404 . S
C945 H957 0.930 . S
C946 C942 1.524 . S
C946 H958 0.956 . S
C946 H959 0.961 . S
C946 H960 0.961 . S
C947 C944 1.539 . S
C947 H961 0.958 . S
C947 H962 0.961 . S
C947 H963 0.960 . S
H948 C932 0.931 . S
H949 C937 0.929 . S
H950 C938 0.960 1_565 S
H951 C938 0.962 . S
H952 C938 0.960 . S
H953 C939 0.961 . S
H954 C939 0.961 . S
H955 C939 0.961 . S
H956 C940 0.931 . S
H957 C945 0.930 . S
H958 C946 0.956 . S
H959 C946 0.961 . S
H960 C946 0.961 . S
H961 C947 0.958 . S
H962 C947 0.961 . S
H963 C947 0.960 . S
C964 C965 1.391 . S
C964 C966 1.394 . S
C964 H980 0.931 . S
C965 C964 1.391 . S
C965 C969 1.376 . S
C966 C964 1.394 . S
C966 C967 1.369 . S
C966 C970 1.531 . S
C967 C966 1.369 . S
C967 C968 1.410 . S
C967 C975 1.503 . S
C968 C967 1.410 . S
C968 C969 1.392 . S
C968 C971 1.511 . S
C969 C965 1.376 . S
C969 C968 1.392 . S
C969 H981 0.929 . S
C970 C966 1.531 . S
C970 H982 0.960 . S
C970 H983 0.962 . S
C970 H984 0.960 . S
C971 C968 1.511 . S
C971 H985 0.961 . S
C971 H986 0.961 . S
C971 H987 0.961 . S
C972 C973 1.370 . S
C972 C974 1.363 . S
C972 H988 0.931 . S
C973 C972 1.370 . S
C973 C977 1.408 . S
C974 C972 1.363 . S
C974 C975 1.370 . S
C974 C978 1.524 . S
C975 C967 1.503 . S
C975 C974 1.370 . S
C975 C976 1.403 . S
C976 C975 1.403 . S
C976 C977 1.404 . S
C976 C979 1.539 . S
C977 C973 1.408 . S
C977 C976 1.404 . S
C977 H989 0.930 . S
C978 C974 1.524 . S
C978 H990 0.956 . S
C978 H991 0.961 1_556 S
C978 H992 0.961 1_556 S
C979 C976 1.539 . S
C979 H993 0.958 . S
C979 H994 0.961 . S
C979 H995 0.960 . S
H980 C964 0.931 . S
H981 C969 0.929 . S
H982 C970 0.960 . S
H983 C970 0.962 . S
H984 C970 0.960 . S
H985 C971 0.961 . S
H986 C971 0.961 . S
H987 C971 0.961 . S
H988 C972 0.931 . S
H989 C977 0.930 . S
H990 C978 0.956 . S
H991 C978 0.961 1_554 S
H992 C978 0.961 1_554 S
H993 C979 0.958 . S
H994 C979 0.961 . S
H995 C979 0.960 . S
C996 C997 1.391 . S
C996 C998 1.394 . S
C996 H1012 0.931 . S
C997 C996 1.391 . S
C997 C1001 1.376 . S
C998 C996 1.394 . S
C998 C999 1.369 . S
C998 C1002 1.531 . S
C999 C998 1.369 . S
C999 C1000 1.410 . S
C999 C1007 1.503 . S
C1000 C999 1.410 . S
C1000 C1001 1.392 . S
C1000 C1003 1.511 . S
C1001 C997 1.376 . S
C1001 C1000 1.392 . S
C1001 H1013 0.929 . S
C1002 C998 1.531 . S
C1002 H1014 0.960 . S
C1002 H1015 0.962 . S
C1002 H1016 0.960 . S
C1003 C1000 1.511 . S
C1003 H1017 0.961 . S
C1003 H1018 0.961 . S
C1003 H1019 0.961 . S
C1004 C1005 1.370 . S
C1004 C1006 1.363 . S
C1004 H1020 0.931 . S
C1005 C1004 1.370 . S
C1005 C1009 1.408 . S
C1006 C1004 1.363 . S
C1006 C1007 1.370 . S
C1006 C1010 1.524 . S
C1007 C999 1.503 . S
C1007 C1006 1.370 . S
C1007 C1008 1.403 . S
C1008 C1007 1.403 . S
C1008 C1009 1.404 . S
C1008 C1011 1.539 . S
C1009 C1005 1.408 . S
C1009 C1008 1.404 . S
C1009 H1021 0.930 . S
C1010 C1006 1.524 . S
C1010 H1022 0.956 . S
C1010 H1023 0.961 . S
C1010 H1024 0.961 . S
C1011 C1008 1.539 . S
C1011 H1025 0.958 . S
C1011 H1026 0.961 . S
C1011 H1027 0.960 . S
H1012 C996 0.931 . S
H1013 C1001 0.929 . S
H1014 C1002 0.960 . S
H1015 C1002 0.962 . S
H1016 C1002 0.960 . S
H1017 C1003 0.961 . S
H1018 C1003 0.961 . S
H1019 C1003 0.961 . S
H1020 C1004 0.931 . S
H1021 C1009 0.930 . S
H1022 C1010 0.956 . S
H1023 C1010 0.961 . S
H1024 C1010 0.961 . S
H1025 C1011 0.958 . S
H1026 C1011 0.961 . S
H1027 C1011 0.960 . S
C1028 C1029 1.391 . S
C1028 C1030 1.394 . S
C1028 H1044 0.931 . S
C1029 C1028 1.391 . S
C1029 C1033 1.376 . S
C1030 C1028 1.394 . S
C1030 C1031 1.369 . S
C1030 C1034 1.531 . S
C1031 C1030 1.369 . S
C1031 C1032 1.410 . S
C1031 C1039 1.503 . S
C1032 C1031 1.410 . S
C1032 C1033 1.392 . S
C1032 C1035 1.511 . S
C1033 C1029 1.376 . S
C1033 C1032 1.392 . S
C1033 H1045 0.929 . S
C1034 C1030 1.531 . S
C1034 H1046 0.960 . S
C1034 H1047 0.962 . S
C1034 H1048 0.960 . S
C1035 C1032 1.511 . S
C1035 H1049 0.961 . S
C1035 H1050 0.961 . S
C1035 H1051 0.961 . S
C1036 C1037 1.370 . S
C1036 C1038 1.363 . S
C1036 H1052 0.931 . S
C1037 C1036 1.370 . S
C1037 C1041 1.408 . S
C1038 C1036 1.363 . S
C1038 C1039 1.370 . S
C1038 C1042 1.524 . S
C1039 C1031 1.503 . S
C1039 C1038 1.370 . S
C1039 C1040 1.403 . S
C1040 C1039 1.403 . S
C1040 C1041 1.404 . S
C1040 C1043 1.539 . S
C1041 C1037 1.408 . S
C1041 C1040 1.404 . S
C1041 H1053 0.930 . S
C1042 C1038 1.524 . S
C1042 H1054 0.956 . S
C1042 H1055 0.961 . S
C1042 H1056 0.961 . S
C1043 C1040 1.539 . S
C1043 H1057 0.958 . S
C1043 H1058 0.961 . S
C1043 H1059 0.960 . S
H1044 C1028 0.931 . S
H1045 C1033 0.929 . S
H1046 C1034 0.960 . S
H1047 C1034 0.962 . S
H1048 C1034 0.960 . S
H1049 C1035 0.961 . S
H1050 C1035 0.961 . S
H1051 C1035 0.961 . S
H1052 C1036 0.931 . S
H1053 C1041 0.930 . S
H1054 C1042 0.956 . S
H1055 C1042 0.961 . S
H1056 C1042 0.961 . S
H1057 C1043 0.958 . S
H1058 C1043 0.961 . S
H1059 C1043 0.960 . S
C1060 C1061 1.391 . S
C1060 C1062 1.394 . S
C1060 H1076 0.931 . S
C1061 C1060 1.391 . S
C1061 C1065 1.376 . S
C1062 C1060 1.394 . S
C1062 C1063 1.369 . S
C1062 C1066 1.531 . S
C1063 C1062 1.369 . S
C1063 C1064 1.410 . S
C1063 C1071 1.503 . S
C1064 C1063 1.410 . S
C1064 C1065 1.392 . S
C1064 C1067 1.511 . S
C1065 C1061 1.376 . S
C1065 C1064 1.392 . S
C1065 H1077 0.929 . S
C1066 C1062 1.531 . S
C1066 H1078 0.960 . S
C1066 H1079 0.962 . S
C1066 H1080 0.960 . S
C1067 C1064 1.511 . S
C1067 H1081 0.961 . S
C1067 H1082 0.961 . S
C1067 H1083 0.961 . S
C1068 C1069 1.370 . S
C1068 C1070 1.363 . S
C1068 H1084 0.931 . S
C1069 C1068 1.370 . S
C1069 C1073 1.408 . S
C1070 C1068 1.363 . S
C1070 C1071 1.370 . S
C1070 C1074 1.524 . S
C1071 C1063 1.503 . S
C1071 C1070 1.370 . S
C1071 C1072 1.403 . S
C1072 C1071 1.403 . S
C1072 C1073 1.404 . S
C1072 C1075 1.539 . S
C1073 C1069 1.408 . S
C1073 C1072 1.404 . S
C1073 H1085 0.930 . S
C1074 C1070 1.524 . S
C1074 H1086 0.956 . S
C1074 H1087 0.961 . S
C1074 H1088 0.961 . S
C1075 C1072 1.539 . S
C1075 H1089 0.958 . S
C1075 H1090 0.961 . S
C1075 H1091 0.960 . S
H1076 C1060 0.931 . S
H1077 C1065 0.929 . S
H1078 C1066 0.960 . S
H1079 C1066 0.962 . S
H1080 C1066 0.960 . S
H1081 C1067 0.961 . S
H1082 C1067 0.961 . S
H1083 C1067 0.961 . S
H1084 C1068 0.931 . S
H1085 C1073 0.930 . S
H1086 C1074 0.956 . S
H1087 C1074 0.961 . S
H1088 C1074 0.961 . S
H1089 C1075 0.958 . S
H1090 C1075 0.961 . S
H1091 C1075 0.960 . S
C1092 C1093 1.391 . S
C1092 C1094 1.394 1_565 S
C1092 H1108 0.931 . S
C1093 C1092 1.391 . S
C1093 C1097 1.376 1_565 S
C1094 C1092 1.394 1_545 S
C1094 C1095 1.369 . S
C1094 C1098 1.531 . S
C1095 C1094 1.369 . S
C1095 C1096 1.410 . S
C1095 C1103 1.503 . S
C1096 C1095 1.410 . S
C1096 C1097 1.392 . S
C1096 C1099 1.511 . S
C1097 C1093 1.376 1_545 S
C1097 C1096 1.392 . S
C1097 H1109 0.929 . S
C1098 C1094 1.531 . S
C1098 H1110 0.960 . S
C1098 H1111 0.962 . S
C1098 H1112 0.960 1_545 S
C1099 C1096 1.511 . S
C1099 H1113 0.961 . S
C1099 H1114 0.961 . S
C1099 H1115 0.961 . S
C1100 C1101 1.370 . S
C1100 C1102 1.363 . S
C1100 H1116 0.931 . S
C1101 C1100 1.370 . S
C1101 C1105 1.408 . S
C1102 C1100 1.363 . S
C1102 C1103 1.370 . S
C1102 C1106 1.524 . S
C1103 C1095 1.503 . S
C1103 C1102 1.370 . S
C1103 C1104 1.403 . S
C1104 C1103 1.403 . S
C1104 C1105 1.404 . S
C1104 C1107 1.539 . S
C1105 C1101 1.408 . S
C1105 C1104 1.404 . S
C1105 H1117 0.930 . S
C1106 C1102 1.524 . S
C1106 H1118 0.956 . S
C1106 H1119 0.961 . S
C1106 H1120 0.961 . S
C1107 C1104 1.539 . S
C1107 H1121 0.958 . S
C1107 H1122 0.961 . S
C1107 H1123 0.960 . S
H1108 C1092 0.931 . S
H1109 C1097 0.929 . S
H1110 C1098 0.960 . S
H1111 C1098 0.962 . S
H1112 C1098 0.960 1_565 S
H1113 C1099 0.961 . S
H1114 C1099 0.961 . S
H1115 C1099 0.961 . S
H1116 C1100 0.931 . S
H1117 C1105 0.930 . S
H1118 C1106 0.956 . S
H1119 C1106 0.961 . S
H1120 C1106 0.961 . S
H1121 C1107 0.958 . S
H1122 C1107 0.961 . S
H1123 C1107 0.960 . S
C1124 C1125 1.391 . S
C1124 C1126 1.394 . S
C1124 H1140 0.931 . S
C1125 C1124 1.391 . S
C1125 C1129 1.376 . S
C1126 C1124 1.394 . S
C1126 C1127 1.369 . S
C1126 C1130 1.531 . S
C1127 C1126 1.369 . S
C1127 C1128 1.410 . S
C1127 C1135 1.503 . S
C1128 C1127 1.410 . S
C1128 C1129 1.392 . S
C1128 C1131 1.511 . S
C1129 C1125 1.376 . S
C1129 C1128 1.392 . S
C1129 H1141 0.929 . S
C1130 C1126 1.531 . S
C1130 H1142 0.960 . S
C1130 H1143 0.962 . S
C1130 H1144 0.960 . S
C1131 C1128 1.511 . S
C1131 H1145 0.961 . S
C1131 H1146 0.961 . S
C1131 H1147 0.961 . S
C1132 C1133 1.370 . S
C1132 C1134 1.363 . S
C1132 H1148 0.931 . S
C1133 C1132 1.370 . S
C1133 C1137 1.408 . S
C1134 C1132 1.363 . S
C1134 C1135 1.370 . S
C1134 C1138 1.524 . S
C1135 C1127 1.503 . S
C1135 C1134 1.370 . S
C1135 C1136 1.403 . S
C1136 C1135 1.403 . S
C1136 C1137 1.404 . S
C1136 C1139 1.539 . S
C1137 C1133 1.408 . S
C1137 C1136 1.404 . S
C1137 H1149 0.930 . S
C1138 C1134 1.524 . S
C1138 H1150 0.956 . S
C1138 H1151 0.961 . S
C1138 H1152 0.961 . S
C1139 C1136 1.539 . S
C1139 H1153 0.958 . S
C1139 H1154 0.961 . S
C1139 H1155 0.960 . S
H1140 C1124 0.931 . S
H1141 C1129 0.929 . S
H1142 C1130 0.960 . S
H1143 C1130 0.962 . S
H1144 C1130 0.960 . S
H1145 C1131 0.961 . S
H1146 C1131 0.961 . S
H1147 C1131 0.961 . S
H1148 C1132 0.931 . S
H1149 C1137 0.930 . S
H1150 C1138 0.956 . S
H1151 C1138 0.961 . S
H1152 C1138 0.961 . S
H1153 C1139 0.958 . S
H1154 C1139 0.961 . S
H1155 C1139 0.960 . S
C1156 C1157 1.391 . S
C1156 C1158 1.394 . S
C1156 H1172 0.931 . S
C1157 C1156 1.391 . S
C1157 C1161 1.376 . S
C1158 C1156 1.394 . S
C1158 C1159 1.369 . S
C1158 C1162 1.531 . S
C1159 C1158 1.369 . S
C1159 C1160 1.410 . S
C1159 C1167 1.503 . S
C1160 C1159 1.410 . S
C1160 C1161 1.392 . S
C1160 C1163 1.511 . S
C1161 C1157 1.376 . S
C1161 C1160 1.392 . S
C1161 H1173 0.929 . S
C1162 C1158 1.531 . S
C1162 H1174 0.960 . S
C1162 H1175 0.962 . S
C1162 H1176 0.960 . S
C1163 C1160 1.511 . S
C1163 H1177 0.961 . S
C1163 H1178 0.961 . S
C1163 H1179 0.961 . S
C1164 C1165 1.370 . S
C1164 C1166 1.363 . S
C1164 H1180 0.931 . S
C1165 C1164 1.370 . S
C1165 C1169 1.408 . S
C1166 C1164 1.363 . S
C1166 C1167 1.370 . S
C1166 C1170 1.524 . S
C1167 C1159 1.503 . S
C1167 C1166 1.370 . S
C1167 C1168 1.403 . S
C1168 C1167 1.403 . S
C1168 C1169 1.404 . S
C1168 C1171 1.539 . S
C1169 C1165 1.408 . S
C1169 C1168 1.404 . S
C1169 H1181 0.930 . S
C1170 C1166 1.524 . S
C1170 H1182 0.956 . S
C1170 H1183 0.961 . S
C1170 H1184 0.961 . S
C1171 C1168 1.539 . S
C1171 H1185 0.958 . S
C1171 H1186 0.961 . S
C1171 H1187 0.960 . S
H1172 C1156 0.931 . S
H1173 C1161 0.929 . S
H1174 C1162 0.960 . S
H1175 C1162 0.962 . S
H1176 C1162 0.960 . S
H1177 C1163 0.961 . S
H1178 C1163 0.961 . S
H1179 C1163 0.961 . S
H1180 C1164 0.931 . S
H1181 C1169 0.930 . S
H1182 C1170 0.956 . S
H1183 C1170 0.961 . S
H1184 C1170 0.961 . S
H1185 C1171 0.958 . S
H1186 C1171 0.961 . S
H1187 C1171 0.960 . S
C1188 C1189 1.391 . S
C1188 C1190 1.394 . S
C1188 H1204 0.931 . S
C1189 C1188 1.391 . S
C1189 C1193 1.376 . S
C1190 C1188 1.394 . S
C1190 C1191 1.369 . S
C1190 C1194 1.531 . S
C1191 C1190 1.369 . S
C1191 C1192 1.410 . S
C1191 C1199 1.503 . S
C1192 C1191 1.410 . S
C1192 C1193 1.392 . S
C1192 C1195 1.511 . S
C1193 C1189 1.376 . S
C1193 C1192 1.392 . S
C1193 H1205 0.929 . S
C1194 C1190 1.531 . S
C1194 H1206 0.960 . S
C1194 H1207 0.962 . S
C1194 H1208 0.960 . S
C1195 C1192 1.511 . S
C1195 H1209 0.961 . S
C1195 H1210 0.961 . S
C1195 H1211 0.961 . S
C1196 C1197 1.370 . S
C1196 C1198 1.363 . S
C1196 H1212 0.931 . S
C1197 C1196 1.370 . S
C1197 C1201 1.408 . S
C1198 C1196 1.363 . S
C1198 C1199 1.370 . S
C1198 C1202 1.524 . S
C1199 C1191 1.503 . S
C1199 C1198 1.370 . S
C1199 C1200 1.403 . S
C1200 C1199 1.403 . S
C1200 C1201 1.404 . S
C1200 C1203 1.539 . S
C1201 C1197 1.408 . S
C1201 C1200 1.404 . S
C1201 H1213 0.930 . S
C1202 C1198 1.524 . S
C1202 H1214 0.956 . S
C1202 H1215 0.961 . S
C1202 H1216 0.961 . S
C1203 C1200 1.539 . S
C1203 H1217 0.958 . S
C1203 H1218 0.961 . S
C1203 H1219 0.960 . S
H1204 C1188 0.931 . S
H1205 C1193 0.929 . S
H1206 C1194 0.960 . S
H1207 C1194 0.962 . S
H1208 C1194 0.960 . S
H1209 C1195 0.961 . S
H1210 C1195 0.961 . S
H1211 C1195 0.961 . S
H1212 C1196 0.931 . S
H1213 C1201 0.930 . S
H1214 C1202 0.956 . S
H1215 C1202 0.961 . S
H1216 C1202 0.961 . S
H1217 C1203 0.958 . S
H1218 C1203 0.961 . S
H1219 C1203 0.960 . S
C1220 C1221 1.391 . S
C1220 C1222 1.394 . S
C1220 H1236 0.931 . S
C1221 C1220 1.391 . S
C1221 C1225 1.376 . S
C1222 C1220 1.394 . S
C1222 C1223 1.369 . S
C1222 C1226 1.531 . S
C1223 C1222 1.369 . S
C1223 C1224 1.410 . S
C1223 C1231 1.503 . S
C1224 C1223 1.410 . S
C1224 C1225 1.392 . S
C1224 C1227 1.511 . S
C1225 C1221 1.376 . S
C1225 C1224 1.392 . S
C1225 H1237 0.929 . S
C1226 C1222 1.531 . S
C1226 H1238 0.960 . S
C1226 H1239 0.962 . S
C1226 H1240 0.960 . S
C1227 C1224 1.511 . S
C1227 H1241 0.961 . S
C1227 H1242 0.961 . S
C1227 H1243 0.961 . S
C1228 C1229 1.370 . S
C1228 C1230 1.363 . S
C1228 H1244 0.931 . S
C1229 C1228 1.370 . S
C1229 C1233 1.408 . S
C1230 C1228 1.363 . S
C1230 C1231 1.370 . S
C1230 C1234 1.524 . S
C1231 C1223 1.503 . S
C1231 C1230 1.370 . S
C1231 C1232 1.403 . S
C1232 C1231 1.403 . S
C1232 C1233 1.404 . S
C1232 C1235 1.539 . S
C1233 C1229 1.408 . S
C1233 C1232 1.404 . S
C1233 H1245 0.930 . S
C1234 C1230 1.524 . S
C1234 H1246 0.956 . S
C1234 H1247 0.961 . S
C1234 H1248 0.961 . S
C1235 C1232 1.539 . S
C1235 H1249 0.958 . S
C1235 H1250 0.961 . S
C1235 H1251 0.960 . S
H1236 C1220 0.931 . S
H1237 C1225 0.929 . S
H1238 C1226 0.960 . S
H1239 C1226 0.962 . S
H1240 C1226 0.960 . S
H1241 C1227 0.961 . S
H1242 C1227 0.961 . S
H1243 C1227 0.961 . S
H1244 C1228 0.931 . S
H1245 C1233 0.930 . S
H1246 C1234 0.956 . S
H1247 C1234 0.961 . S
H1248 C1234 0.961 . S
H1249 C1235 0.958 . S
H1250 C1235 0.961 . S
H1251 C1235 0.960 . S
C1252 C1253 1.391 . S
C1252 C1254 1.394 . S
C1252 H1268 0.931 . S
C1253 C1252 1.391 . S
C1253 C1257 1.376 . S
C1254 C1252 1.394 . S
C1254 C1255 1.369 1_554 S
C1254 C1258 1.531 . S
C1255 C1254 1.369 1_556 S
C1255 C1256 1.412 . S
C1255 C1263 1.503 . S
C1256 C1255 1.412 . S
C1256 C1257 1.383 1_556 S
C1256 C1259 1.518 . S
C1257 C1253 1.376 . S
C1257 C1256 1.383 1_554 S
C1257 H1269 0.929 . S
C1258 C1254 1.531 . S
C1258 H1270 0.960 1_554 S
C1258 H1271 0.962 1_554 S
C1258 H1272 0.960 . S
C1259 C1256 1.518 . S
C1259 H1273 0.961 . S
C1259 H1274 0.961 . S
C1259 H1275 0.961 . S
C1260 C1261 1.370 . S
C1260 C1262 1.363 . S
C1260 H1276 0.931 . S
C1261 C1260 1.370 . S
C1261 C1265 1.408 . S
C1262 C1260 1.363 . S
C1262 C1263 1.370 . S
C1262 C1266 1.524 . S
C1263 C1255 1.503 . S
C1263 C1262 1.370 . S
C1263 C1264 1.403 . S
C1264 C1263 1.403 . S
C1264 C1265 1.404 . S
C1264 C1267 1.539 . S
C1265 C1261 1.408 . S
C1265 C1264 1.404 . S
C1265 H1277 0.930 . S
C1266 C1262 1.524 . S
C1266 H1278 0.960 . S
C1266 H1279 0.961 . S
C1266 H1280 0.961 . S
C1267 C1264 1.539 . S
C1267 H1281 0.958 1_556 S
C1267 H1282 0.961 . S
C1267 H1283 0.960 1_556 S
H1268 C1252 0.931 . S
H1269 C1257 0.929 . S
H1270 C1258 0.960 1_556 S
H1271 C1258 0.962 1_556 S
H1272 C1258 0.960 . S
H1273 C1259 0.961 . S
H1274 C1259 0.961 . S
H1275 C1259 0.961 . S
H1276 C1260 0.931 . S
H1277 C1265 0.930 . S
H1278 C1266 0.960 . S
H1279 C1266 0.961 . S
H1280 C1266 0.961 . S
H1281 C1267 0.958 1_554 S
H1282 C1267 0.961 . S
H1283 C1267 0.960 1_554 S
C1284 C1285 1.391 . S
C1284 C1286 1.394 . S
C1284 H1300 0.931 . S
C1285 C1284 1.391 . S
C1285 C1289 1.376 . S
C1286 C1284 1.394 . S
C1286 C1287 1.369 . S
C1286 C1290 1.531 . S
C1287 C1286 1.369 . S
C1287 C1288 1.410 . S
C1287 C1295 1.503 . S
C1288 C1287 1.410 . S
C1288 C1289 1.392 . S
C1288 C1291 1.511 . S
C1289 C1285 1.376 . S
C1289 C1288 1.392 . S
C1289 H1301 0.929 . S
C1290 C1286 1.531 . S
C1290 H1302 0.960 . S
C1290 H1303 0.962 . S
C1290 H1304 0.960 . S
C1291 C1288 1.511 . S
C1291 H1305 0.961 . S
C1291 H1306 0.961 . S
C1291 H1307 0.961 . S
C1292 C1293 1.370 . S
C1292 C1294 1.363 . S
C1292 H1308 0.931 . S
C1293 C1292 1.370 . S
C1293 C1297 1.408 . S
C1294 C1292 1.363 . S
C1294 C1295 1.370 . S
C1294 C1298 1.524 . S
C1295 C1287 1.503 . S
C1295 C1294 1.370 . S
C1295 C1296 1.403 . S
C1296 C1295 1.403 . S
C1296 C1297 1.404 . S
C1296 C1299 1.539 . S
C1297 C1293 1.408 . S
C1297 C1296 1.404 . S
C1297 H1309 0.930 . S
C1298 C1294 1.524 . S
C1298 H1310 0.956 . S
C1298 H1311 0.961 . S
C1298 H1312 0.961 . S
C1299 C1296 1.539 . S
C1299 H1313 0.958 . S
C1299 H1314 0.961 . S
C1299 H1315 0.960 . S
H1300 C1284 0.931 . S
H1301 C1289 0.929 . S
H1302 C1290 0.960 . S
H1303 C1290 0.962 . S
H1304 C1290 0.960 . S
H1305 C1291 0.961 . S
H1306 C1291 0.961 . S
H1307 C1291 0.961 . S
H1308 C1292 0.931 . S
H1309 C1297 0.930 . S
H1310 C1298 0.956 . S
H1311 C1298 0.961 . S
H1312 C1298 0.961 . S
H1313 C1299 0.958 . S
H1314 C1299 0.961 . S
H1315 C1299 0.960 . S
C1316 C1317 1.391 1_554 S
C1316 C1318 1.394 . S
C1316 H1332 0.931 . S
C1317 C1316 1.391 1_556 S
C1317 C1321 1.376 1_556 S
C1318 C1316 1.394 . S
C1318 C1319 1.369 . S
C1318 C1322 1.531 . S
C1319 C1318 1.369 . S
C1319 C1320 1.410 . S
C1319 C1327 1.503 . S
C1320 C1319 1.410 . S
C1320 C1321 1.392 . S
C1320 C1323 1.511 . S
C1321 C1317 1.376 1_554 S
C1321 C1320 1.392 . S
C1321 H1333 0.929 1_554 S
C1322 C1318 1.531 . S
C1322 H1334 0.960 . S
C1322 H1335 0.962 . S
C1322 H1336 0.960 . S
C1323 C1320 1.511 . S
C1323 H1337 0.961 . S
C1323 H1338 0.961 . S
C1323 H1339 0.961 . S
C1324 C1325 1.370 . S
C1324 C1326 1.363 . S
C1324 H1340 0.931 . S
C1325 C1324 1.370 . S
C1325 C1329 1.408 . S
C1326 C1324 1.363 . S
C1326 C1327 1.370 . S
C1326 C1330 1.524 . S
C1327 C1319 1.503 . S
C1327 C1326 1.370 . S
C1327 C1328 1.403 . S
C1328 C1327 1.403 . S
C1328 C1329 1.404 . S
C1328 C1331 1.539 . S
C1329 C1325 1.408 . S
C1329 C1328 1.404 . S
C1329 H1341 0.930 . S
C1330 C1326 1.524 . S
C1330 H1342 0.956 . S
C1330 H1343 0.961 . S
C1330 H1344 0.961 . S
C1331 C1328 1.539 . S
C1331 H1345 0.958 . S
C1331 H1346 0.961 . S
C1331 H1347 0.960 . S
H1332 C1316 0.931 . S
H1333 C1321 0.929 1_556 S
H1334 C1322 0.960 . S
H1335 C1322 0.962 . S
H1336 C1322 0.960 . S
H1337 C1323 0.961 . S
H1338 C1323 0.961 . S
H1339 C1323 0.961 . S
H1340 C1324 0.931 . S
H1341 C1329 0.930 . S
H1342 C1330 0.956 . S
H1343 C1330 0.961 . S
H1344 C1330 0.961 . S
H1345 C1331 0.958 . S
H1346 C1331 0.961 . S
H1347 C1331 0.960 . S
C1348 C1349 1.391 . S
C1348 C1350 1.394 . S
C1348 H1364 0.931 . S
C1349 C1348 1.391 . S
C1349 C1353 1.376 . S
C1350 C1348 1.394 . S
C1350 C1351 1.369 . S
C1350 C1354 1.531 . S
C1351 C1350 1.369 . S
C1351 C1352 1.410 . S
C1351 C1359 1.503 . S
C1352 C1351 1.410 . S
C1352 C1353 1.392 . S
C1352 C1355 1.511 . S
C1353 C1349 1.376 . S
C1353 C1352 1.392 . S
C1353 H1365 0.929 . S
C1354 C1350 1.531 . S
C1354 H1366 0.960 . S
C1354 H1367 0.962 . S
C1354 H1368 0.960 . S
C1355 C1352 1.511 . S
C1355 H1369 0.961 . S
C1355 H1370 0.961 . S
C1355 H1371 0.961 . S
C1356 C1357 1.370 . S
C1356 C1358 1.363 . S
C1356 H1372 0.931 . S
C1357 C1356 1.370 . S
C1357 C1361 1.408 . S
C1358 C1356 1.363 . S
C1358 C1359 1.370 . S
C1358 C1362 1.524 . S
C1359 C1351 1.503 . S
C1359 C1358 1.370 . S
C1359 C1360 1.403 . S
C1360 C1359 1.403 . S
C1360 C1361 1.404 . S
C1360 C1363 1.539 . S
C1361 C1357 1.408 . S
C1361 C1360 1.404 . S
C1361 H1373 0.930 . S
C1362 C1358 1.524 . S
C1362 H1374 0.956 . S
C1362 H1375 0.961 . S
C1362 H1376 0.961 . S
C1363 C1360 1.539 . S
C1363 H1377 0.958 . S
C1363 H1378 0.961 . S
C1363 H1379 0.960 . S
H1364 C1348 0.931 . S
H1365 C1353 0.929 . S
H1366 C1354 0.960 . S
H1367 C1354 0.962 . S
H1368 C1354 0.960 . S
H1369 C1355 0.961 . S
H1370 C1355 0.961 . S
H1371 C1355 0.961 . S
H1372 C1356 0.931 . S
H1373 C1361 0.930 . S
H1374 C1362 0.956 . S
H1375 C1362 0.961 . S
H1376 C1362 0.961 . S
H1377 C1363 0.958 . S
H1378 C1363 0.961 . S
H1379 C1363 0.960 . S
C1380 C1381 1.391 . S
C1380 C1382 1.394 . S
C1380 H1396 0.931 . S
C1381 C1380 1.391 . S
C1381 C1385 1.376 . S
C1382 C1380 1.394 . S
C1382 C1383 1.369 . S
C1382 C1386 1.531 . S
C1383 C1382 1.369 . S
C1383 C1384 1.410 . S
C1383 C1391 1.503 . S
C1384 C1383 1.410 . S
C1384 C1385 1.392 . S
C1384 C1387 1.512 . S
C1385 C1381 1.376 . S
C1385 C1384 1.392 . S
C1385 H1397 0.929 1_655 S
C1386 C1382 1.531 . S
C1386 H1398 0.960 . S
C1386 H1399 0.962 . S
C1386 H1400 0.960 . S
C1387 C1384 1.512 . S
C1387 H1401 0.960 1_655 S
C1387 H1402 0.961 . S
C1387 H1403 0.961 . S
C1388 C1389 1.370 . S
C1388 C1390 1.363 . S
C1388 H1404 0.931 . S
C1389 C1388 1.370 . S
C1389 C1393 1.408 . S
C1390 C1388 1.363 . S
C1390 C1391 1.370 . S
C1390 C1394 1.524 . S
C1391 C1383 1.503 . S
C1391 C1390 1.370 . S
C1391 C1392 1.403 . S
C1392 C1391 1.403 . S
C1392 C1393 1.404 . S
C1392 C1395 1.539 . S
C1393 C1389 1.408 . S
C1393 C1392 1.404 . S
C1393 H1405 0.930 . S
C1394 C1390 1.524 . S
C1394 H1406 0.956 . S
C1394 H1407 0.961 . S
C1394 H1408 0.961 . S
C1395 C1392 1.539 . S
C1395 H1409 0.958 . S
C1395 H1410 0.961 . S
C1395 H1411 0.960 . S
H1396 C1380 0.931 . S
H1397 C1385 0.929 1_455 S
H1398 C1386 0.960 . S
H1399 C1386 0.962 . S
H1400 C1386 0.960 . S
H1401 C1387 0.960 1_455 S
H1402 C1387 0.961 . S
H1403 C1387 0.961 . S
H1404 C1388 0.931 . S
H1405 C1393 0.930 . S
H1406 C1394 0.956 . S
H1407 C1394 0.961 . S
H1408 C1394 0.961 . S
H1409 C1395 0.958 . S
H1410 C1395 0.961 . S
H1411 C1395 0.960 . S
C1412 C1413 1.391 . S
C1412 C1414 1.394 . S
C1412 H1428 0.931 . S
C1413 C1412 1.391 . S
C1413 C1417 1.376 . S
C1414 C1412 1.394 . S
C1414 C1415 1.369 . S
C1414 C1418 1.531 . S
C1415 C1414 1.369 . S
C1415 C1416 1.410 . S
C1415 C1423 1.503 . S
C1416 C1415 1.410 . S
C1416 C1417 1.392 . S
C1416 C1419 1.511 . S
C1417 C1413 1.376 . S
C1417 C1416 1.392 . S
C1417 H1429 0.929 . S
C1418 C1414 1.531 . S
C1418 H1430 0.960 . S
C1418 H1431 0.962 . S
C1418 H1432 0.960 . S
C1419 C1416 1.511 . S
C1419 H1433 0.961 . S
C1419 H1434 0.961 . S
C1419 H1435 0.961 . S
C1420 C1421 1.370 . S
C1420 C1422 1.363 . S
C1420 H1436 0.931 . S
C1421 C1420 1.370 . S
C1421 C1425 1.408 . S
C1422 C1420 1.363 . S
C1422 C1423 1.370 . S
C1422 C1426 1.524 . S
C1423 C1415 1.503 . S
C1423 C1422 1.370 . S
C1423 C1424 1.403 . S
C1424 C1423 1.403 . S
C1424 C1425 1.404 . S
C1424 C1427 1.539 . S
C1425 C1421 1.408 . S
C1425 C1424 1.404 . S
C1425 H1437 0.930 . S
C1426 C1422 1.524 . S
C1426 H1438 0.956 . S
C1426 H1439 0.961 . S
C1426 H1440 0.961 . S
C1427 C1424 1.539 . S
C1427 H1441 0.958 . S
C1427 H1442 0.961 . S
C1427 H1443 0.960 . S
H1428 C1412 0.931 . S
H1429 C1417 0.929 . S
H1430 C1418 0.960 . S
H1431 C1418 0.962 . S
H1432 C1418 0.960 . S
H1433 C1419 0.961 . S
H1434 C1419 0.961 . S
H1435 C1419 0.961 . S
H1436 C1420 0.931 . S
H1437 C1425 0.930 . S
H1438 C1426 0.956 . S
H1439 C1426 0.961 . S
H1440 C1426 0.961 . S
H1441 C1427 0.958 . S
H1442 C1427 0.961 . S
H1443 C1427 0.960 . S
C1444 C1445 1.391 . S
C1444 C1446 1.394 . S
C1444 H1460 0.931 . S
C1445 C1444 1.391 . S
C1445 C1449 1.376 . S
C1446 C1444 1.394 . S
C1446 C1447 1.369 . S
C1446 C1450 1.531 . S
C1447 C1446 1.369 . S
C1447 C1448 1.410 . S
C1447 C1455 1.503 . S
C1448 C1447 1.410 . S
C1448 C1449 1.392 . S
C1448 C1451 1.511 . S
C1449 C1445 1.376 . S
C1449 C1448 1.392 . S
C1449 H1461 0.929 . S
C1450 C1446 1.531 . S
C1450 H1462 0.960 . S
C1450 H1463 0.962 . S
C1450 H1464 0.960 . S
C1451 C1448 1.511 . S
C1451 H1465 0.961 . S
C1451 H1466 0.961 . S
C1451 H1467 0.961 . S
C1452 C1453 1.370 . S
C1452 C1454 1.363 . S
C1452 H1468 0.931 . S
C1453 C1452 1.370 . S
C1453 C1457 1.408 . S
C1454 C1452 1.363 . S
C1454 C1455 1.370 . S
C1454 C1458 1.524 . S
C1455 C1447 1.503 . S
C1455 C1454 1.370 . S
C1455 C1456 1.403 . S
C1456 C1455 1.403 . S
C1456 C1457 1.404 . S
C1456 C1459 1.539 . S
C1457 C1453 1.408 . S
C1457 C1456 1.404 . S
C1457 H1469 0.930 . S
C1458 C1454 1.524 . S
C1458 H1470 0.956 . S
C1458 H1471 0.961 . S
C1458 H1472 0.961 . S
C1459 C1456 1.539 . S
C1459 H1473 0.958 . S
C1459 H1474 0.961 . S
C1459 H1475 0.960 . S
H1460 C1444 0.931 . S
H1461 C1449 0.929 . S
H1462 C1450 0.960 . S
H1463 C1450 0.962 . S
H1464 C1450 0.960 . S
H1465 C1451 0.961 . S
H1466 C1451 0.961 . S
H1467 C1451 0.961 . S
H1468 C1452 0.931 . S
H1469 C1457 0.930 . S
H1470 C1458 0.956 . S
H1471 C1458 0.961 . S
H1472 C1458 0.961 . S
H1473 C1459 0.958 . S
H1474 C1459 0.961 . S
H1475 C1459 0.960 . S
C1476 C1477 1.391 . S
C1476 C1478 1.394 . S
C1476 H1492 0.931 . S
C1477 C1476 1.391 . S
C1477 C1481 1.376 . S
C1478 C1476 1.394 . S
C1478 C1479 1.369 . S
C1478 C1482 1.531 . S
C1479 C1478 1.369 . S
C1479 C1480 1.410 . S
C1479 C1487 1.503 . S
C1480 C1479 1.410 . S
C1480 C1481 1.392 . S
C1480 C1483 1.511 . S
C1481 C1477 1.376 . S
C1481 C1480 1.392 . S
C1481 H1493 0.929 . S
C1482 C1478 1.531 . S
C1482 H1494 0.960 . S
C1482 H1495 0.962 . S
C1482 H1496 0.960 . S
C1483 C1480 1.511 . S
C1483 H1497 0.961 . S
C1483 H1498 0.961 . S
C1483 H1499 0.961 . S
C1484 C1485 1.370 . S
C1484 C1486 1.363 . S
C1484 H1500 0.931 . S
C1485 C1484 1.370 . S
C1485 C1489 1.408 . S
C1486 C1484 1.363 . S
C1486 C1487 1.370 . S
C1486 C1490 1.524 . S
C1487 C1479 1.503 . S
C1487 C1486 1.370 . S
C1487 C1488 1.403 . S
C1488 C1487 1.403 . S
C1488 C1489 1.404 . S
C1488 C1491 1.539 . S
C1489 C1485 1.408 . S
C1489 C1488 1.404 . S
C1489 H1501 0.930 . S
C1490 C1486 1.524 . S
C1490 H1502 0.956 . S
C1490 H1503 0.961 . S
C1490 H1504 0.961 . S
C1491 C1488 1.539 . S
C1491 H1505 0.958 . S
C1491 H1506 0.961 . S
C1491 H1507 0.960 . S
H1492 C1476 0.931 . S
H1493 C1481 0.929 . S
H1494 C1482 0.960 . S
H1495 C1482 0.962 . S
H1496 C1482 0.960 . S
H1497 C1483 0.961 . S
H1498 C1483 0.961 . S
H1499 C1483 0.961 . S
H1500 C1484 0.931 . S
H1501 C1489 0.930 . S
H1502 C1490 0.956 . S
H1503 C1490 0.961 . S
H1504 C1490 0.961 . S
H1505 C1491 0.958 . S
H1506 C1491 0.961 . S
H1507 C1491 0.960 . S
C1508 C1509 1.391 1_455 S
C1508 C1510 1.394 . S
C1508 H1524 0.931 . S
C1509 C1508 1.391 1_655 S
C1509 C1513 1.376 . S
C1510 C1508 1.394 . S
C1510 C1511 1.369 . S
C1510 C1514 1.531 . S
C1511 C1510 1.369 . S
C1511 C1512 1.410 . S
C1511 C1519 1.503 . S
C1512 C1511 1.410 . S
C1512 C1513 1.392 1_455 S
C1512 C1515 1.511 . S
C1513 C1509 1.376 . S
C1513 C1512 1.392 1_655 S
C1513 H1525 0.929 . S
C1514 C1510 1.531 . S
C1514 H1526 0.960 . S
C1514 H1527 0.962 . S
C1514 H1528 0.960 . S
C1515 C1512 1.511 . S
C1515 H1529 0.961 1_455 S
C1515 H1530 0.961 . S
C1515 H1531 0.961 . S
C1516 C1517 1.370 . S
C1516 C1518 1.363 . S
C1516 H1532 0.931 . S
C1517 C1516 1.370 . S
C1517 C1521 1.408 . S
C1518 C1516 1.363 . S
C1518 C1519 1.370 . S
C1518 C1522 1.524 . S
C1519 C1511 1.503 . S
C1519 C1518 1.370 . S
C1519 C1520 1.403 . S
C1520 C1519 1.403 . S
C1520 C1521 1.404 . S
C1520 C1523 1.539 . S
C1521 C1517 1.408 . S
C1521 C1520 1.404 . S
C1521 H1533 0.930 . S
C1522 C1518 1.524 . S
C1522 H1534 0.956 . S
C1522 H1535 0.961 . S
C1522 H1536 0.961 . S
C1523 C1520 1.539 . S
C1523 H1537 0.958 . S
C1523 H1538 0.961 . S
C1523 H1539 0.960 . S
H1524 C1508 0.931 . S
H1525 C1513 0.929 . S
H1526 C1514 0.960 . S
H1527 C1514 0.962 . S
H1528 C1514 0.960 . S
H1529 C1515 0.961 1_655 S
H1530 C1515 0.961 . S
H1531 C1515 0.961 . S
H1532 C1516 0.931 . S
H1533 C1521 0.930 . S
H1534 C1522 0.956 . S
H1535 C1522 0.961 . S
H1536 C1522 0.961 . S
H1537 C1523 0.958 . S
H1538 C1523 0.961 . S
H1539 C1523 0.960 . S
C1540 C1541 1.391 . S
C1540 C1542 1.394 . S
C1540 H1556 0.931 . S
C1541 C1540 1.391 . S
C1541 C1545 1.376 . S
C1542 C1540 1.394 . S
C1542 C1543 1.369 . S
C1542 C1546 1.531 . S
C1543 C1542 1.369 . S
C1543 C1544 1.410 . S
C1543 C1551 1.503 . S
C1544 C1543 1.410 . S
C1544 C1545 1.392 . S
C1544 C1547 1.511 . S
C1545 C1541 1.376 . S
C1545 C1544 1.392 . S
C1545 H1557 0.929 . S
C1546 C1542 1.531 . S
C1546 H1558 0.960 . S
C1546 H1559 0.962 . S
C1546 H1560 0.960 . S
C1547 C1544 1.511 . S
C1547 H1561 0.961 . S
C1547 H1562 0.961 . S
C1547 H1563 0.961 . S
C1548 C1549 1.370 . S
C1548 C1550 1.363 . S
C1548 H1564 0.931 . S
C1549 C1548 1.370 . S
C1549 C1553 1.408 . S
C1550 C1548 1.363 . S
C1550 C1551 1.370 . S
C1550 C1554 1.524 . S
C1551 C1543 1.503 . S
C1551 C1550 1.370 . S
C1551 C1552 1.403 . S
C1552 C1551 1.403 . S
C1552 C1553 1.404 . S
C1552 C1555 1.539 . S
C1553 C1549 1.408 . S
C1553 C1552 1.404 . S
C1553 H1565 0.930 . S
C1554 C1550 1.524 . S
C1554 H1566 0.956 . S
C1554 H1567 0.961 . S
C1554 H1568 0.961 . S
C1555 C1552 1.539 . S
C1555 H1569 0.958 . S
C1555 H1570 0.961 . S
C1555 H1571 0.960 . S
H1556 C1540 0.931 . S
H1557 C1545 0.929 . S
H1558 C1546 0.960 . S
H1559 C1546 0.962 . S
H1560 C1546 0.960 . S
H1561 C1547 0.961 . S
H1562 C1547 0.961 . S
H1563 C1547 0.961 . S
H1564 C1548 0.931 . S
H1565 C1553 0.930 . S
H1566 C1554 0.956 . S
H1567 C1554 0.961 . S
H1568 C1554 0.961 . S
H1569 C1555 0.958 . S
H1570 C1555 0.961 . S
H1571 C1555 0.960 . S
C1572 C1573 1.391 . S
C1572 C1574 1.394 . S
C1572 H1588 0.931 . S
C1573 C1572 1.391 . S
C1573 C1577 1.376 . S
C1574 C1572 1.394 . S
C1574 C1575 1.369 . S
C1574 C1578 1.531 . S
C1575 C1574 1.369 . S
C1575 C1576 1.410 . S
C1575 C1583 1.503 . S
C1576 C1575 1.410 . S
C1576 C1577 1.392 . S
C1576 C1579 1.511 . S
C1577 C1573 1.376 . S
C1577 C1576 1.392 . S
C1577 H1589 0.929 . S
C1578 C1574 1.531 . S
C1578 H1590 0.960 . S
C1578 H1591 0.962 . S
C1578 H1592 0.960 . S
C1579 C1576 1.511 . S
C1579 H1593 0.961 . S
C1579 H1594 0.961 . S
C1579 H1595 0.961 . S
C1580 C1581 1.370 . S
C1580 C1582 1.363 . S
C1580 H1596 0.931 . S
C1581 C1580 1.370 . S
C1581 C1585 1.408 . S
C1582 C1580 1.363 . S
C1582 C1583 1.370 . S
C1582 C1586 1.524 . S
C1583 C1575 1.503 . S
C1583 C1582 1.370 . S
C1583 C1584 1.403 . S
C1584 C1583 1.403 . S
C1584 C1585 1.404 . S
C1584 C1587 1.539 . S
C1585 C1581 1.408 . S
C1585 C1584 1.404 . S
C1585 H1597 0.930 . S
C1586 C1582 1.524 . S
C1586 H1598 0.956 . S
C1586 H1599 0.961 . S
C1586 H1600 0.961 . S
C1587 C1584 1.539 . S
C1587 H1601 0.958 . S
C1587 H1602 0.961 . S
C1587 H1603 0.960 . S
H1588 C1572 0.931 . S
H1589 C1577 0.929 . S
H1590 C1578 0.960 . S
H1591 C1578 0.962 . S
H1592 C1578 0.960 . S
H1593 C1579 0.961 . S
H1594 C1579 0.961 . S
H1595 C1579 0.961 . S
H1596 C1580 0.931 . S
H1597 C1585 0.930 . S
H1598 C1586 0.956 . S
H1599 C1586 0.961 . S
H1600 C1586 0.961 . S
H1601 C1587 0.958 . S
H1602 C1587 0.961 . S
H1603 C1587 0.960 . S
C1604 C1605 1.391 . S
C1604 C1606 1.394 . S
C1604 H1620 0.931 . S
C1605 C1604 1.391 . S
C1605 C1609 1.376 . S
C1606 C1604 1.394 . S
C1606 C1607 1.369 . S
C1606 C1610 1.531 . S
C1607 C1606 1.369 . S
C1607 C1608 1.410 . S
C1607 C1615 1.503 . S
C1608 C1607 1.410 . S
C1608 C1609 1.392 . S
C1608 C1611 1.511 . S
C1609 C1605 1.376 . S
C1609 C1608 1.392 . S
C1609 H1621 0.929 . S
C1610 C1606 1.531 . S
C1610 H1622 0.960 . S
C1610 H1623 0.962 . S
C1610 H1624 0.960 . S
C1611 C1608 1.511 . S
C1611 H1625 0.961 . S
C1611 H1626 0.961 . S
C1611 H1627 0.961 . S
C1612 C1613 1.370 . S
C1612 C1614 1.363 . S
C1612 H1628 0.931 . S
C1613 C1612 1.370 . S
C1613 C1617 1.408 . S
C1614 C1612 1.363 . S
C1614 C1615 1.370 . S
C1614 C1618 1.524 . S
C1615 C1607 1.503 . S
C1615 C1614 1.370 . S
C1615 C1616 1.403 . S
C1616 C1615 1.403 . S
C1616 C1617 1.404 . S
C1616 C1619 1.539 . S
C1617 C1613 1.408 . S
C1617 C1616 1.404 . S
C1617 H1629 0.930 . S
C1618 C1614 1.524 . S
C1618 H1630 0.956 . S
C1618 H1631 0.961 . S
C1618 H1632 0.961 . S
C1619 C1616 1.539 . S
C1619 H1633 0.958 . S
C1619 H1634 0.961 . S
C1619 H1635 0.960 . S
H1620 C1604 0.931 . S
H1621 C1609 0.929 . S
H1622 C1610 0.960 . S
H1623 C1610 0.962 . S
H1624 C1610 0.960 . S
H1625 C1611 0.961 . S
H1626 C1611 0.961 . S
H1627 C1611 0.961 . S
H1628 C1612 0.931 . S
H1629 C1617 0.930 . S
H1630 C1618 0.956 . S
H1631 C1618 0.961 . S
H1632 C1618 0.961 . S
H1633 C1619 0.958 . S
H1634 C1619 0.961 . S
H1635 C1619 0.960 . S
C1636 C1637 1.391 . S
C1636 C1638 1.394 1_655 S
C1636 H1652 0.931 . S
C1637 C1636 1.391 . S
C1637 C1641 1.376 1_655 S
C1638 C1636 1.394 1_455 S
C1638 C1639 1.369 . S
C1638 C1642 1.531 . S
C1639 C1638 1.369 . S
C1639 C1640 1.410 . S
C1639 C1647 1.503 . S
C1640 C1639 1.410 . S
C1640 C1641 1.392 . S
C1640 C1643 1.511 . S
C1641 C1637 1.376 1_455 S
C1641 C1640 1.392 . S
C1641 H1653 0.929 . S
C1642 C1638 1.531 . S
C1642 H1654 0.960 . S
C1642 H1655 0.962 . S
C1642 H1656 0.960 1_455 S
C1643 C1640 1.511 . S
C1643 H1657 0.961 . S
C1643 H1658 0.961 . S
C1643 H1659 0.961 . S
C1644 C1645 1.370 . S
C1644 C1646 1.363 . S
C1644 H1660 0.931 . S
C1645 C1644 1.370 . S
C1645 C1649 1.408 . S
C1646 C1644 1.363 . S
C1646 C1647 1.370 . S
C1646 C1650 1.524 . S
C1647 C1639 1.503 . S
C1647 C1646 1.370 . S
C1647 C1648 1.403 . S
C1648 C1647 1.403 . S
C1648 C1649 1.404 . S
C1648 C1651 1.539 . S
C1649 C1645 1.408 . S
C1649 C1648 1.404 . S
C1649 H1661 0.930 . S
C1650 C1646 1.524 . S
C1650 H1662 0.956 . S
C1650 H1663 0.961 . S
C1650 H1664 0.961 . S
C1651 C1648 1.539 . S
C1651 H1665 0.958 . S
C1651 H1666 0.961 . S
C1651 H1667 0.960 . S
H1652 C1636 0.931 . S
H1653 C1641 0.929 . S
H1654 C1642 0.960 . S
H1655 C1642 0.962 . S
H1656 C1642 0.960 1_655 S
H1657 C1643 0.961 . S
H1658 C1643 0.961 . S
H1659 C1643 0.961 . S
H1660 C1644 0.931 . S
H1661 C1649 0.930 . S
H1662 C1650 0.956 . S
H1663 C1650 0.961 . S
H1664 C1650 0.961 . S
H1665 C1651 0.958 . S
H1666 C1651 0.961 . S
H1667 C1651 0.960 . S
C1668 C1669 1.391 . S
C1668 C1670 1.394 . S
C1668 H1684 0.931 . S
C1669 C1668 1.391 . S
C1669 C1673 1.376 . S
C1670 C1668 1.394 . S
C1670 C1671 1.369 . S
C1670 C1674 1.531 . S
C1671 C1670 1.369 . S
C1671 C1672 1.410 . S
C1671 C1679 1.503 . S
C1672 C1671 1.410 . S
C1672 C1673 1.392 . S
C1672 C1675 1.511 . S
C1673 C1669 1.376 . S
C1673 C1672 1.392 . S
C1673 H1685 0.929 . S
C1674 C1670 1.531 . S
C1674 H1686 0.960 . S
C1674 H1687 0.962 . S
C1674 H1688 0.960 . S
C1675 C1672 1.511 . S
C1675 H1689 0.961 . S
C1675 H1690 0.961 . S
C1675 H1691 0.961 . S
C1676 C1677 1.370 . S
C1676 C1678 1.363 . S
C1676 H1692 0.931 . S
C1677 C1676 1.370 . S
C1677 C1681 1.408 . S
C1678 C1676 1.363 . S
C1678 C1679 1.370 . S
C1678 C1682 1.524 . S
C1679 C1671 1.503 . S
C1679 C1678 1.370 . S
C1679 C1680 1.403 . S
C1680 C1679 1.403 . S
C1680 C1681 1.404 . S
C1680 C1683 1.539 . S
C1681 C1677 1.408 . S
C1681 C1680 1.404 . S
C1681 H1693 0.930 . S
C1682 C1678 1.524 . S
C1682 H1694 0.956 . S
C1682 H1695 0.961 . S
C1682 H1696 0.961 . S
C1683 C1680 1.539 . S
C1683 H1697 0.958 . S
C1683 H1698 0.961 . S
C1683 H1699 0.960 . S
H1684 C1668 0.931 . S
H1685 C1673 0.929 . S
H1686 C1674 0.960 . S
H1687 C1674 0.962 . S
H1688 C1674 0.960 . S
H1689 C1675 0.961 . S
H1690 C1675 0.961 . S
H1691 C1675 0.961 . S
H1692 C1676 0.931 . S
H1693 C1681 0.930 . S
H1694 C1682 0.956 . S
H1695 C1682 0.961 . S
H1696 C1682 0.961 . S
H1697 C1683 0.958 . S
H1698 C1683 0.961 . S
H1699 C1683 0.960 . S
C1700 C1701 1.391 . S
C1700 C1702 1.394 . S
C1700 H1716 0.931 . S
C1701 C1700 1.391 . S
C1701 C1705 1.376 . S
C1702 C1700 1.394 . S
C1702 C1703 1.369 . S
C1702 C1706 1.531 . S
C1703 C1702 1.369 . S
C1703 C1704 1.410 . S
C1703 C1711 1.503 . S
C1704 C1703 1.410 . S
C1704 C1705 1.392 . S
C1704 C1707 1.511 . S
C1705 C1701 1.376 . S
C1705 C1704 1.392 . S
C1705 H1717 0.929 . S
C1706 C1702 1.531 . S
C1706 H1718 0.960 . S
C1706 H1719 0.962 . S
C1706 H1720 0.960 . S
C1707 C1704 1.511 . S
C1707 H1721 0.961 . S
C1707 H1722 0.961 . S
C1707 H1723 0.961 . S
C1708 C1709 1.370 . S
C1708 C1710 1.363 . S
C1708 H1724 0.931 . S
C1709 C1708 1.370 . S
C1709 C1713 1.408 . S
C1710 C1708 1.363 . S
C1710 C1711 1.370 . S
C1710 C1714 1.524 . S
C1711 C1703 1.503 . S
C1711 C1710 1.370 . S
C1711 C1712 1.403 . S
C1712 C1711 1.403 . S
C1712 C1713 1.404 . S
C1712 C1715 1.539 . S
C1713 C1709 1.408 . S
C1713 C1712 1.404 . S
C1713 H1725 0.930 . S
C1714 C1710 1.524 . S
C1714 H1726 0.956 . S
C1714 H1727 0.961 . S
C1714 H1728 0.961 . S
C1715 C1712 1.539 . S
C1715 H1729 0.958 . S
C1715 H1730 0.961 . S
C1715 H1731 0.960 . S
H1716 C1700 0.931 . S
H1717 C1705 0.929 . S
H1718 C1706 0.960 . S
H1719 C1706 0.962 . S
H1720 C1706 0.960 . S
H1721 C1707 0.961 . S
H1722 C1707 0.961 . S
H1723 C1707 0.961 . S
H1724 C1708 0.931 . S
H1725 C1713 0.930 . S
H1726 C1714 0.956 . S
H1727 C1714 0.961 . S
H1728 C1714 0.961 . S
H1729 C1715 0.958 . S
H1730 C1715 0.961 . S
H1731 C1715 0.960 . S
C1732 C1733 1.391 . S
C1732 C1734 1.394 1_565 S
C1732 H1748 0.931 . S
C1733 C1732 1.391 . S
C1733 C1737 1.376 1_565 S
C1734 C1732 1.394 1_545 S
C1734 C1735 1.369 . S
C1734 C1738 1.531 . S
C1735 C1734 1.369 . S
C1735 C1736 1.410 . S
C1735 C1743 1.503 . S
C1736 C1735 1.410 . S
C1736 C1737 1.392 . S
C1736 C1739 1.511 . S
C1737 C1733 1.376 1_545 S
C1737 C1736 1.392 . S
C1737 H1749 0.927 1_545 S
C1738 C1734 1.531 . S
C1738 H1750 0.960 . S
C1738 H1751 0.962 . S
C1738 H1752 0.960 . S
C1739 C1736 1.511 . S
C1739 H1753 0.961 . S
C1739 H1754 0.961 . S
C1739 H1755 0.961 . S
C1740 C1741 1.370 . S
C1740 C1742 1.363 . S
C1740 H1756 0.931 . S
C1741 C1740 1.370 . S
C1741 C1745 1.408 . S
C1742 C1740 1.363 . S
C1742 C1743 1.370 . S
C1742 C1746 1.524 . S
C1743 C1735 1.503 . S
C1743 C1742 1.370 . S
C1743 C1744 1.403 . S
C1744 C1743 1.403 . S
C1744 C1745 1.404 . S
C1744 C1747 1.539 . S
C1745 C1741 1.408 . S
C1745 C1744 1.404 . S
C1745 H1757 0.930 . S
C1746 C1742 1.524 . S
C1746 H1758 0.956 . S
C1746 H1759 0.961 . S
C1746 H1760 0.961 . S
C1747 C1744 1.539 . S
C1747 H1761 0.958 . S
C1747 H1762 0.961 . S
C1747 H1763 0.960 . S
H1748 C1732 0.931 . S
H1749 C1737 0.927 1_565 S
H1750 C1738 0.960 . S
H1751 C1738 0.962 . S
H1752 C1738 0.960 . S
H1753 C1739 0.961 . S
H1754 C1739 0.961 . S
H1755 C1739 0.961 . S
H1756 C1740 0.931 . S
H1757 C1745 0.930 . S
H1758 C1746 0.956 . S
H1759 C1746 0.961 . S
H1760 C1746 0.961 . S
H1761 C1747 0.958 . S
H1762 C1747 0.961 . S
H1763 C1747 0.960 . S
C1764 C1765 1.391 . S
C1764 C1766 1.394 . S
C1764 H1780 0.931 . S
C1765 C1764 1.391 . S
C1765 C1769 1.376 . S
C1766 C1764 1.394 . S
C1766 C1767 1.369 . S
C1766 C1770 1.531 . S
C1767 C1766 1.369 . S
C1767 C1768 1.410 . S
C1767 C1775 1.503 . S
C1768 C1767 1.410 . S
C1768 C1769 1.392 . S
C1768 C1771 1.511 . S
C1769 C1765 1.376 . S
C1769 C1768 1.392 . S
C1769 H1781 0.929 . S
C1770 C1766 1.531 . S
C1770 H1782 0.960 . S
C1770 H1783 0.962 . S
C1770 H1784 0.960 . S
C1771 C1768 1.511 . S
C1771 H1785 0.961 . S
C1771 H1786 0.961 . S
C1771 H1787 0.961 . S
C1772 C1773 1.370 . S
C1772 C1774 1.363 . S
C1772 H1788 0.931 . S
C1773 C1772 1.370 . S
C1773 C1777 1.408 . S
C1774 C1772 1.363 . S
C1774 C1775 1.370 . S
C1774 C1778 1.524 . S
C1775 C1767 1.503 . S
C1775 C1774 1.370 . S
C1775 C1776 1.403 . S
C1776 C1775 1.403 . S
C1776 C1777 1.404 . S
C1776 C1779 1.539 . S
C1777 C1773 1.408 . S
C1777 C1776 1.404 . S
C1777 H1789 0.930 . S
C1778 C1774 1.524 . S
C1778 H1790 0.956 . S
C1778 H1791 0.961 . S
C1778 H1792 0.961 . S
C1779 C1776 1.539 . S
C1779 H1793 0.958 . S
C1779 H1794 0.961 . S
C1779 H1795 0.960 . S
H1780 C1764 0.931 . S
H1781 C1769 0.929 . S
H1782 C1770 0.960 . S
H1783 C1770 0.962 . S
H1784 C1770 0.960 . S
H1785 C1771 0.961 . S
H1786 C1771 0.961 . S
H1787 C1771 0.961 . S
H1788 C1772 0.931 . S
H1789 C1777 0.930 . S
H1790 C1778 0.956 . S
H1791 C1778 0.961 . S
H1792 C1778 0.961 . S
H1793 C1779 0.958 . S
H1794 C1779 0.961 . S
H1795 C1779 0.960 . S
C1796 C1797 1.391 . S
C1796 C1798 1.394 1_545 S
C1796 H1812 0.931 1_556 S
C1797 C1796 1.391 . S
C1797 C1801 1.376 . S
C1798 C1796 1.394 1_565 S
C1798 C1799 1.369 . S
C1798 C1802 1.531 1_556 S
C1799 C1798 1.369 . S
C1799 C1800 1.410 1_565 S
C1799 C1807 1.503 . S
C1800 C1799 1.410 1_545 S
C1800 C1801 1.392 . S
C1800 C1803 1.514 . S
C1801 C1797 1.376 . S
C1801 C1800 1.392 . S
C1801 H1813 0.929 . S
C1802 C1798 1.531 1_554 S
C1802 H1814 0.960 1_554 S
C1802 H1815 0.962 . S
C1802 H1816 0.960 . S
C1803 C1800 1.514 . S
C1803 H1817 0.973 . S
C1803 H1818 0.935 1_545 S
C1803 H1819 0.972 . S
C1804 C1805 1.370 . S
C1804 C1806 1.363 . S
C1804 H1820 0.931 . S
C1805 C1804 1.370 . S
C1805 C1809 1.408 . S
C1806 C1804 1.363 . S
C1806 C1807 1.370 . S
C1806 C1810 1.524 . S
C1807 C1799 1.503 . S
C1807 C1806 1.370 . S
C1807 C1808 1.403 . S
C1808 C1807 1.403 . S
C1808 C1809 1.404 . S
C1808 C1811 1.539 . S
C1809 C1805 1.408 . S
C1809 C1808 1.404 . S
C1809 H1821 0.930 . S
C1810 C1806 1.524 . S
C1810 H1822 0.956 . S
C1810 H1823 0.961 . S
C1810 H1824 0.961 . S
C1811 C1808 1.539 . S
C1811 H1825 0.958 . S
C1811 H1826 0.961 . S
C1811 H1827 0.960 . S
H1812 C1796 0.931 1_554 S
H1813 C1801 0.929 . S
H1814 C1802 0.960 1_556 S
H1815 C1802 0.962 . S
H1816 C1802 0.960 . S
H1817 C1803 0.973 . S
H1818 C1803 0.935 1_565 S
H1819 C1803 0.972 . S
H1820 C1804 0.931 . S
H1821 C1809 0.930 . S
H1822 C1810 0.956 . S
H1823 C1810 0.961 . S
H1824 C1810 0.961 . S
H1825 C1811 0.958 . S
H1826 C1811 0.961 . S
H1827 C1811 0.960 . S
C1828 C1829 1.391 . S
C1828 C1830 1.394 . S
C1828 H1844 0.931 . S
C1829 C1828 1.391 . S
C1829 C1833 1.376 . S
C1830 C1828 1.394 . S
C1830 C1831 1.369 . S
C1830 C1834 1.531 . S
C1831 C1830 1.369 . S
C1831 C1832 1.410 . S
C1831 C1839 1.503 . S
C1832 C1831 1.410 . S
C1832 C1833 1.392 . S
C1832 C1835 1.511 . S
C1833 C1829 1.376 . S
C1833 C1832 1.392 . S
C1833 H1845 0.929 . S
C1834 C1830 1.531 . S
C1834 H1846 0.960 . S
C1834 H1847 0.962 . S
C1834 H1848 0.960 . S
C1835 C1832 1.511 . S
C1835 H1849 0.961 . S
C1835 H1850 0.961 . S
C1835 H1851 0.961 . S
C1836 C1837 1.370 . S
C1836 C1838 1.363 . S
C1836 H1852 0.931 . S
C1837 C1836 1.370 . S
C1837 C1841 1.408 . S
C1838 C1836 1.363 . S
C1838 C1839 1.370 . S
C1838 C1842 1.524 . S
C1839 C1831 1.503 . S
C1839 C1838 1.370 . S
C1839 C1840 1.403 . S
C1840 C1839 1.403 . S
C1840 C1841 1.404 . S
C1840 C1843 1.539 . S
C1841 C1837 1.408 . S
C1841 C1840 1.404 . S
C1841 H1853 0.930 . S
C1842 C1838 1.524 . S
C1842 H1854 0.956 . S
C1842 H1855 0.961 . S
C1842 H1856 0.961 . S
C1843 C1840 1.539 . S
C1843 H1857 0.958 . S
C1843 H1858 0.961 . S
C1843 H1859 0.960 . S
H1844 C1828 0.931 . S
H1845 C1833 0.929 . S
H1846 C1834 0.960 . S
H1847 C1834 0.962 . S
H1848 C1834 0.960 . S
H1849 C1835 0.961 . S
H1850 C1835 0.961 . S
H1851 C1835 0.961 . S
H1852 C1836 0.931 . S
H1853 C1841 0.930 . S
H1854 C1842 0.956 . S
H1855 C1842 0.961 . S
H1856 C1842 0.961 . S
H1857 C1843 0.958 . S
H1858 C1843 0.961 . S
H1859 C1843 0.960 . S
C1860 C1861 1.391 . S
C1860 C1862 1.394 . S
C1860 H1876 0.931 . S
C1861 C1860 1.391 . S
C1861 C1865 1.376 . S
C1862 C1860 1.394 . S
C1862 C1863 1.369 . S
C1862 C1866 1.531 . S
C1863 C1862 1.369 . S
C1863 C1864 1.410 . S
C1863 C1871 1.503 . S
C1864 C1863 1.410 . S
C1864 C1865 1.392 . S
C1864 C1867 1.511 . S
C1865 C1861 1.376 . S
C1865 C1864 1.392 . S
C1865 H1877 0.929 . S
C1866 C1862 1.531 . S
C1866 H1878 0.960 . S
C1866 H1879 0.962 . S
C1866 H1880 0.960 . S
C1867 C1864 1.511 . S
C1867 H1881 0.961 1_554 S
C1867 H1882 0.961 . S
C1867 H1883 0.961 . S
C1868 C1869 1.370 . S
C1868 C1870 1.363 . S
C1868 H1884 0.931 . S
C1869 C1868 1.370 . S
C1869 C1873 1.408 . S
C1870 C1868 1.363 . S
C1870 C1871 1.370 . S
C1870 C1874 1.524 . S
C1871 C1863 1.503 . S
C1871 C1870 1.370 . S
C1871 C1872 1.403 . S
C1872 C1871 1.403 . S
C1872 C1873 1.404 . S
C1872 C1875 1.539 . S
C1873 C1869 1.408 . S
C1873 C1872 1.404 . S
C1873 H1885 0.930 . S
C1874 C1870 1.524 . S
C1874 H1886 0.956 . S
C1874 H1887 0.961 . S
C1874 H1888 0.961 . S
C1875 C1872 1.539 . S
C1875 H1889 0.958 . S
C1875 H1890 0.961 . S
C1875 H1891 0.960 . S
H1876 C1860 0.931 . S
H1877 C1865 0.929 . S
H1878 C1866 0.960 . S
H1879 C1866 0.962 . S
H1880 C1866 0.960 . S
H1881 C1867 0.961 1_556 S
H1882 C1867 0.961 . S
H1883 C1867 0.961 . S
H1884 C1868 0.931 . S
H1885 C1873 0.930 . S
H1886 C1874 0.956 . S
H1887 C1874 0.961 . S
H1888 C1874 0.961 . S
H1889 C1875 0.958 . S
H1890 C1875 0.961 . S
H1891 C1875 0.960 . S
C1892 C1893 1.391 . S
C1892 C1894 1.394 . S
C1892 H1908 0.931 . S
C1893 C1892 1.391 . S
C1893 C1897 1.376 . S
C1894 C1892 1.394 . S
C1894 C1895 1.369 . S
C1894 C1898 1.531 . S
C1895 C1894 1.369 . S
C1895 C1896 1.410 . S
C1895 C1903 1.503 . S
C1896 C1895 1.410 . S
C1896 C1897 1.392 . S
C1896 C1899 1.511 . S
C1897 C1893 1.376 . S
C1897 C1896 1.392 . S
C1897 H1909 0.929 . S
C1898 C1894 1.531 . S
C1898 H1910 0.960 . S
C1898 H1911 0.962 . S
C1898 H1912 0.960 . S
C1899 C1896 1.511 . S
C1899 H1913 0.961 . S
C1899 H1914 0.961 . S
C1899 H1915 0.961 . S
C1900 C1901 1.370 . S
C1900 C1902 1.363 . S
C1900 H1916 0.931 . S
C1901 C1900 1.370 . S
C1901 C1905 1.408 . S
C1902 C1900 1.363 . S
C1902 C1903 1.370 . S
C1902 C1906 1.524 . S
C1903 C1895 1.503 . S
C1903 C1902 1.370 . S
C1903 C1904 1.403 . S
C1904 C1903 1.403 . S
C1904 C1905 1.404 . S
C1904 C1907 1.539 . S
C1905 C1901 1.408 . S
C1905 C1904 1.404 . S
C1905 H1917 0.930 . S
C1906 C1902 1.524 . S
C1906 H1918 0.956 . S
C1906 H1919 0.961 . S
C1906 H1920 0.961 . S
C1907 C1904 1.539 . S
C1907 H1921 0.958 . S
C1907 H1922 0.961 . S
C1907 H1923 0.960 . S
H1908 C1892 0.931 . S
H1909 C1897 0.929 . S
H1910 C1898 0.960 . S
H1911 C1898 0.962 . S
H1912 C1898 0.960 . S
H1913 C1899 0.961 . S
H1914 C1899 0.961 . S
H1915 C1899 0.961 . S
H1916 C1900 0.931 . S
H1917 C1905 0.930 . S
H1918 C1906 0.956 . S
H1919 C1906 0.961 . S
H1920 C1906 0.961 . S
H1921 C1907 0.958 . S
H1922 C1907 0.961 . S
H1923 C1907 0.960 . S
C1924 C1925 1.391 . S
C1924 C1926 1.394 . S
C1924 H1940 0.931 . S
C1925 C1924 1.391 . S
C1925 C1929 1.376 . S
C1926 C1924 1.394 . S
C1926 C1927 1.369 . S
C1926 C1930 1.531 . S
C1927 C1926 1.369 . S
C1927 C1928 1.410 . S
C1927 C1935 1.503 . S
C1928 C1927 1.410 . S
C1928 C1929 1.392 . S
C1928 C1931 1.511 . S
C1929 C1925 1.376 . S
C1929 C1928 1.392 . S
C1929 H1941 0.929 . S
C1930 C1926 1.531 . S
C1930 H1942 0.960 . S
C1930 H1943 0.962 . S
C1930 H1944 0.960 . S
C1931 C1928 1.511 . S
C1931 H1945 0.961 . S
C1931 H1946 0.961 . S
C1931 H1947 0.961 . S
C1932 C1933 1.370 . S
C1932 C1934 1.363 . S
C1932 H1948 0.931 . S
C1933 C1932 1.370 . S
C1933 C1937 1.408 . S
C1934 C1932 1.363 . S
C1934 C1935 1.370 . S
C1934 C1938 1.524 . S
C1935 C1927 1.503 . S
C1935 C1934 1.370 . S
C1935 C1936 1.403 . S
C1936 C1935 1.403 . S
C1936 C1937 1.404 . S
C1936 C1939 1.539 . S
C1937 C1933 1.408 . S
C1937 C1936 1.404 . S
C1937 H1949 0.930 . S
C1938 C1934 1.524 . S
C1938 H1950 0.956 . S
C1938 H1951 0.961 . S
C1938 H1952 0.961 . S
C1939 C1936 1.539 . S
C1939 H1953 0.958 . S
C1939 H1954 0.961 . S
C1939 H1955 0.960 . S
H1940 C1924 0.931 . S
H1941 C1929 0.929 . S
H1942 C1930 0.960 . S
H1943 C1930 0.962 . S
H1944 C1930 0.960 . S
H1945 C1931 0.961 . S
H1946 C1931 0.961 . S
H1947 C1931 0.961 . S
H1948 C1932 0.931 . S
H1949 C1937 0.930 . S
H1950 C1938 0.956 . S
H1951 C1938 0.961 . S
H1952 C1938 0.961 . S
H1953 C1939 0.958 . S
H1954 C1939 0.961 . S
H1955 C1939 0.960 . S
C429 C416 1.259 . S
C421 C8 1.308 . S
C453 C23 1.214 . S
C461 C345 0.991 . S
C485 C35 1.346 . S
C493 C374 1.274 . S
C525 C387 0.976 . S
C517 C45 1.152 . S
C549 C22 1.350 . S
C557 C408 1.163 . S
C589 C353 1.053 . S
C581 C31 1.164 . S
C621 C366 1.207 . S
C613 C49 1.357 . S
C653 C395 1.087 . S
C645 C9 1.143 . S
C677 C65 1.315 . S
C685 C397 1.246 . S
C717 C411 1.033 . S
C709 C73 1.209 . S
C749 C355 1.282 . S
C741 C93 1.277 1_565 S
C781 C369 0.983 . S
C773 C101 1.174 . S
C805 C59 1.299 . S
C813 C348 1.238 . S
C837 C79 1.155 . S
C845 C376 1.056 . S
C869 C87 1.265 . S
C877 C390 1.187 . S
C909 C418 1.083 . S
C901 C107 1.280 . S
C941 C227 1.318 . S
C933 C106 1.373 . S
C973 C208 1.174 . S
C965 C119 1.299 . S
C1005 C222 1.132 . S
C997 C134 1.208 . S
C1037 C243 1.207 . S
C1029 C147 1.284 . S
C1061 C64 1.168 . S
C1069 C229 1.044 . S
C1093 C78 1.335 . S
C1101 C180 1.254 . S
C1125 C133 1.218 . S
C1133 C240 0.998 . S
C1157 C161 1.185 . S
C1165 C206 1.053 . S
C1197 C269 1.231 . S
C1189 C36 1.309 . S
C1229 C282 0.991 . S
C1221 C51 1.225 . S
C1253 C7 1.339 . S
C1261 C311 1.250 . S
C1285 C17 1.212 . S
C1293 C324 0.978 . S
C1325 C261 1.161 . S
C1317 C50 1.349 . S
C1357 C290 1.003 . S
C1349 C3 1.106 . S
C1381 C21 1.359 . S
C1389 C303 1.195 . S
C1421 C332 1.088 . S
C1413 C37 1.198 . S
C1445 C163 1.261 . S
C1453 C334 1.242 . S
C1477 C115 1.206 . S
C1485 C264 1.057 . S
C1517 C292 1.282 . S
C1509 C135 1.345 . S
C1541 C143 1.145 . S
C1549 C306 0.960 . S
C1581 C285 1.239 . S
C1573 C157 1.282 . S
C1605 C121 1.118 . S
C1613 C313 1.040 . S
C1645 C327 1.195 . S
C1637 C129 1.277 . S
C1677 C271 1.120 . S
C1669 C149 1.207 . S
C1709 C187 1.263 . S
C1701 C148 1.366 . S
C1741 C250 1.189 . S
C1733 C77 1.328 . S
C1765 C92 1.248 . S
C1773 C177 0.999 . S
C1805 C201 1.223 . S
C1797 C105 1.312 . S
C1837 C185 1.091 . S
C1829 C162 1.217 . S
C1861 C120 1.326 . S
C1869 C219 1.211 . S
C1893 C91 1.186 . S
C1901 C198 0.985 . S
C1925 C63 1.156 . S
C1933 C248 1.037 . S
