# Generated by pormake.
# Topology pto, (3,4)-cn, num edge types: 1
# Building blocks:
#     Node 0, Type 0, BuildingBlock: PAMTOO_clean_linker_0, # of connection points: 3
#     Node 1, Type 0, BuildingBlock: PAMTOO_clean_linker_0, # of connection points: 3
#     Node 2, Type 0, BuildingBlock: PAMTOO_clean_linker_0, # of connection points: 3
#     Node 3, Type 0, BuildingBlock: PAMTOO_clean_linker_0, # of connection points: 3
#     Node 4, Type 0, BuildingBlock: PAMTOO_clean_linker_0, # of connection points: 3
#     Node 5, Type 0, BuildingBlock: PAMTOO_clean_linker_0, # of connection points: 3
#     Node 6, Type 0, BuildingBlock: PAMTOO_clean_linker_0, # of connection points: 3
#     Node 7, Type 0, BuildingBlock: PAMTOO_clean_linker_0, # of connection points: 3
#     Node 8, Type 1, BuildingBlock: KOZSID_clean_sbu_0, # of connection points: 4
#     Node 9, Type 1, BuildingBlock: KOZSID_clean_sbu_0, # of connection points: 4
#     Node 10, Type 1, BuildingBlock: KOZSID_clean_sbu_0, # of connection points: 4
#     Node 11, Type 1, BuildingBlock: KOZSID_clean_sbu_0, # of connection points: 4
#     Node 12, Type 1, BuildingBlock: KOZSID_clean_sbu_0, # of connection points: 4
#     Node 13, Type 1, BuildingBlock: KOZSID_clean_sbu_0, # of connection points: 4
#     Edge 14, Type (0, 1), BuildingBlock: XIVTED_clean_linker_0, # of connection points: 2
#     Edge 15, Type (0, 1), BuildingBlock: XIVTED_clean_linker_0, # of connection points: 2
#     Edge 16, Type (0, 1), BuildingBlock: XIVTED_clean_linker_0, # of connection points: 2
#     Edge 17, Type (0, 1), BuildingBlock: XIVTED_clean_linker_0, # of connection points: 2
#     Edge 18, Type (0, 1), BuildingBlock: XIVTED_clean_linker_0, # of connection points: 2
#     Edge 19, Type (0, 1), BuildingBlock: XIVTED_clean_linker_0, # of connection points: 2
#     Edge 20, Type (0, 1), BuildingBlock: XIVTED_clean_linker_0, # of connection points: 2
#     Edge 21, Type (0, 1), BuildingBlock: XIVTED_clean_linker_0, # of connection points: 2
#     Edge 22, Type (0, 1), BuildingBlock: XIVTED_clean_linker_0, # of connection points: 2
#     Edge 23, Type (0, 1), BuildingBlock: XIVTED_clean_linker_0, # of connection points: 2
#     Edge 24, Type (0, 1), BuildingBlock: XIVTED_clean_linker_0, # of connection points: 2
#     Edge 25, Type (0, 1), BuildingBlock: XIVTED_clean_linker_0, # of connection points: 2
#     Edge 26, Type (0, 1), BuildingBlock: XIVTED_clean_linker_0, # of connection points: 2
#     Edge 27, Type (0, 1), BuildingBlock: XIVTED_clean_linker_0, # of connection points: 2
#     Edge 28, Type (0, 1), BuildingBlock: XIVTED_clean_linker_0, # of connection points: 2
#     Edge 29, Type (0, 1), BuildingBlock: XIVTED_clean_linker_0, # of connection points: 2
#     Edge 30, Type (0, 1), BuildingBlock: XIVTED_clean_linker_0, # of connection points: 2
#     Edge 31, Type (0, 1), BuildingBlock: XIVTED_clean_linker_0, # of connection points: 2
#     Edge 32, Type (0, 1), BuildingBlock: XIVTED_clean_linker_0, # of connection points: 2
#     Edge 33, Type (0, 1), BuildingBlock: XIVTED_clean_linker_0, # of connection points: 2
#     Edge 34, Type (0, 1), BuildingBlock: XIVTED_clean_linker_0, # of connection points: 2
#     Edge 35, Type (0, 1), BuildingBlock: XIVTED_clean_linker_0, # of connection points: 2
#     Edge 36, Type (0, 1), BuildingBlock: XIVTED_clean_linker_0, # of connection points: 2
#     Edge 37, Type (0, 1), BuildingBlock: XIVTED_clean_linker_0, # of connection points: 2
# Relax obj value: 0.025
# Max RMSD: 0.173
# Mean RMSD: 0.074
data_MOF--net-pto--node1-KOZSID_clean_sbu_0--node2-PAMTOO_clean_linker_0--edge1-XIVTED_clean_linker_0
_symmetry_space_group_name_H-M    P1
_symmetry_Int_Tables_number       1
_symmetry_cell_setting            triclinic
loop_
_symmetry_equiv_pos_as_xyz
'x, y, z'
_cell_length_a     39.174305
_cell_length_b     50.126373
_cell_length_c     45.577904
_cell_angle_alpha  81.86302
_cell_angle_beta   80.42725
_cell_angle_gamma 103.086
loop_
_atom_site_label
_atom_site_type_symbol
_atom_site_fract_x
_atom_site_fract_y
_atom_site_fract_z
_atom_type_partial_charge
H0 H 0.20439 0.2842 0.38749 0.0
H1 H 0.27339 0.25224 0.32563 0.0
H2 H 0.26536 0.33574 0.30244 0.0
H3 H 0.25966 0.30361 0.25419 0.0
C4 C 0.27752 0.28994 0.25931 0.0
O5 O 0.29201 0.29689 0.28367 0.0
H6 H 0.26131 0.26789 0.2649 0.0
C7 C 0.22378 0.28749 0.36655 0.0
C8 C 0.23278 0.3131 0.34605 0.0
C9 C 0.23843 0.26542 0.35954 0.0
C10 C 0.26197 0.269 0.33163 0.0
C11 C 0.27094 0.29418 0.31111 0.0
C12 C 0.25716 0.31627 0.31855 0.0
H13 H 0.21528 0.79873 0.73714 0.0
H14 H 0.28115 0.76389 0.79056 0.0
H15 H 0.29362 0.85214 0.77325 0.0
H16 H 0.36031 0.83768 0.77655 0.0
C17 C 0.3499 0.81616 0.79005 0.0
O18 O 0.31386 0.81145 0.80199 0.0
H19 H 0.35435 0.80134 0.77464 0.0
C20 C 0.23661 0.80137 0.74967 0.0
C21 C 0.25392 0.8284 0.75253 0.0
C22 C 0.24647 0.77779 0.76261 0.0
C23 C 0.27267 0.7815 0.78041 0.0
C24 C 0.28897 0.80822 0.78462 0.0
C25 C 0.27977 0.83159 0.77064 0.0
H26 H 0.71043 0.79458 0.31407 0.0
H27 H 0.73531 0.71696 0.30087 0.0
H28 H 0.76502 0.75485 0.37456 0.0
H29 H 0.82071 0.73714 0.33989 0.0
C30 C 0.80499 0.71795 0.33392 0.0
O31 O 0.76903 0.71399 0.34559 0.0
H32 H 0.80978 0.72087 0.30876 0.0
C33 C 0.72149 0.77731 0.32098 0.0
C34 C 0.7372 0.77708 0.34651 0.0
C35 C 0.72009 0.75559 0.30436 0.0
C36 C 0.7357 0.73389 0.31327 0.0
C37 C 0.75208 0.73387 0.33835 0.0
C38 C 0.75215 0.75507 0.35527 0.0
H39 H 0.76902 0.33458 0.74996 0.0
H40 H 0.71537 0.25189 0.74133 0.0
H41 H 0.80205 0.30182 0.67062 0.0
H42 H 0.74473 0.26945 0.64766 0.0
C43 C 0.73344 0.25163 0.66696 0.0
O44 O 0.75447 0.25371 0.68842 0.0
H45 H 0.70582 0.25222 0.67722 0.0
C46 C 0.76581 0.31789 0.73709 0.0
C47 C 0.7885 0.32145 0.70874 0.0
C48 C 0.73948 0.29287 0.74926 0.0
C49 C 0.73537 0.27144 0.73234 0.0
C50 C 0.75787 0.27478 0.70405 0.0
C51 C 0.78463 0.29958 0.69242 0.0
H52 H 0.72749 0.80487 0.76313 0.0
H53 H 0.77213 0.73632 0.78817 0.0
H54 H 0.79758 0.77881 0.69579 0.0
H55 H 0.7877 0.719 0.70304 0.0
C56 C 0.79699 0.7148 0.72462 0.0
O57 O 0.80928 0.73966 0.73381 0.0
H58 H 0.77399 0.70115 0.74202 0.0
C59 C 0.74358 0.7909 0.75659 0.0
C60 C 0.76161 0.79459 0.72634 0.0
C61 C 0.74665 0.76976 0.77896 0.0
C62 C 0.76925 0.75267 0.7712 0.0
C63 C 0.78758 0.75617 0.74122 0.0
C64 C 0.78366 0.7769 0.7189 0.0
H65 H 0.7881 0.26081 0.36821 0.0
H66 H 0.72148 0.23386 0.30596 0.0
H67 H 0.78298 0.31878 0.29096 0.0
H68 H 0.71023 0.31223 0.28129 0.0
C69 C 0.70567 0.29184 0.27359 0.0
O70 O 0.73669 0.28295 0.27134 0.0
H71 H 0.68367 0.27652 0.2905 0.0
C72 C 0.7772 0.26521 0.34824 0.0
C73 C 0.78813 0.29219 0.33078 0.0
C74 C 0.75357 0.24375 0.33928 0.0
C75 C 0.74026 0.24989 0.313 0.0
C76 C 0.75058 0.27697 0.2959 0.0
C77 C 0.77494 0.29793 0.30447 0.0
H78 H 0.22143 0.29292 0.68587 0.0
H79 H 0.26588 0.32548 0.75801 0.0
H80 H 0.28527 0.25021 0.73427 0.0
H81 H 0.26806 0.24832 0.79886 0.0
C82 C 0.27844 0.27078 0.79951 0.0
O83 O 0.29547 0.28519 0.77084 0.0
H84 H 0.25522 0.27892 0.80806 0.0
C85 C 0.23731 0.29161 0.70309 0.0
C86 C 0.25359 0.26934 0.70708 0.0
C87 C 0.24114 0.31198 0.72156 0.0
C88 C 0.26187 0.30994 0.74379 0.0
C89 C 0.27737 0.28765 0.74829 0.0
C90 C 0.27346 0.26757 0.72997 0.0
H91 H 0.20742 0.78147 0.38924 0.0
H92 H 0.27914 0.76715 0.31346 0.0
H93 H 0.2881 0.84961 0.33108 0.0
H94 H 0.30239 0.849 0.26356 0.0
C95 C 0.30391 0.82693 0.26622 0.0
O96 O 0.31168 0.8193 0.2942 0.0
H97 H 0.27761 0.81373 0.2644 0.0
C98 C 0.22986 0.78876 0.37018 0.0
C99 C 0.24714 0.81737 0.36294 0.0
C100 C 0.2405 0.77006 0.35235 0.0
C101 C 0.26931 0.78074 0.32732 0.0
C102 C 0.28568 0.80933 0.31939 0.0
C103 C 0.27474 0.82757 0.33719 0.0
C104 C 0.0635 0.55887 0.40901 0.0
C105 C 0.06951 0.56348 0.43729 0.0
C106 C 0.04578 0.54249 0.45817 0.0
C107 C 0.02694 0.52616 0.44158 0.0
N108 N 0.0373 0.5353 0.41128 0.0
Co109 Co 0.0178 0.5171 0.37889 0.0
N110 N 0.98291 0.48617 0.40975 0.0
C111 C 0.97854 0.48303 0.44022 0.0
C112 C 0.95352 0.45927 0.45557 0.0
C113 C 0.94119 0.44632 0.43362 0.0
C114 C 0.95932 0.46311 0.40601 0.0
N115 N 0.99839 0.49892 0.34643 0.0
C116 C 0.97271 0.4751 0.3487 0.0
C117 C 0.96647 0.47055 0.32044 0.0
C118 C 0.9897 0.49178 0.29955 0.0
C119 C 0.00845 0.50817 0.31612 0.0
N120 N 0.05266 0.548 0.34796 0.0
C121 C 0.05656 0.55137 0.31746 0.0
C122 C 0.08112 0.57529 0.30209 0.0
C123 C 0.09381 0.58806 0.32396 0.0
C124 C 0.0765 0.57092 0.35165 0.0
N125 N 0.05381 0.49485 0.37777 0.0
C126 C 0.10172 0.46038 0.37548 0.0
C127 C 0.09512 0.47428 0.349 0.0
C128 C 0.0717 0.49145 0.35066 0.0
C129 C 0.08441 0.46464 0.40319 0.0
C130 C 0.06066 0.48172 0.40381 0.0
N131 N 0.98159 0.53924 0.37998 0.0
C132 C 0.94909 0.56682 0.35339 0.0
C133 C 0.92999 0.57037 0.38058 0.0
C134 C 0.93727 0.55828 0.40762 0.0
C135 C 0.96283 0.5427 0.40681 0.0
C136 C 0.97459 0.55153 0.35361 0.0
H137 H 0.96697 0.53369 0.42811 0.0
H138 H 0.98838 0.55016 0.33204 0.0
H139 H 0.06806 0.50137 0.32963 0.0
H140 H 0.04791 0.48373 0.42562 0.0
C141 C 0.99958 0.50202 0.45375 0.0
C142 C 0.0832 0.57759 0.38075 0.0
C143 C 0.95402 0.45587 0.37688 0.0
C144 C 0.0356 0.5324 0.30386 0.0
H145 H 0.08902 0.5803 0.44237 0.0
H146 H 0.0427 0.53944 0.48255 0.0
H147 H 0.94575 0.45193 0.47982 0.0
H148 H 0.9215 0.42651 0.43758 0.0
H149 H 0.94722 0.45358 0.31533 0.0
H150 H 0.99262 0.49487 0.27518 0.0
H151 H 0.08837 0.58285 0.27786 0.0
H152 H 0.11321 0.60802 0.31976 0.0
H153 H 0.10717 0.47149 0.32687 0.0
H154 H 0.08899 0.45484 0.42441 0.0
H155 H 0.94494 0.57634 0.33183 0.0
H156 H 0.92308 0.56057 0.42925 0.0
C157 C 0.09487 0.57111 0.74963 0.0
C158 C 0.09437 0.57194 0.78004 0.0
C159 C 0.06757 0.54989 0.79627 0.0
C160 C 0.05301 0.53702 0.77504 0.0
N161 N 0.06916 0.54927 0.7461 0.0
Co162 Co 0.05447 0.5387 0.70822 0.0
N163 N 0.01244 0.50828 0.73234 0.0
C164 C 0.00295 0.50076 0.76288 0.0
C165 C 0.9733 0.47877 0.77288 0.0
C166 C 0.96321 0.47168 0.74724 0.0
C167 C 0.98736 0.48994 0.72294 0.0
N168 N 0.03968 0.52831 0.67036 0.0
C169 C 0.01191 0.50812 0.66686 0.0
C170 C 0.01124 0.50797 0.63653 0.0
C171 C 0.03979 0.52868 0.62023 0.0
C172 C 0.05612 0.54028 0.64144 0.0
N173 N 0.09653 0.56903 0.68419 0.0
C174 C 0.10727 0.57551 0.65369 0.0
C175 C 0.13726 0.59725 0.64377 0.0
C176 C 0.14592 0.60548 0.66944 0.0
C177 C 0.12039 0.58835 0.69362 0.0
N178 N 0.0846 0.51162 0.70784 0.0
C179 C 0.12376 0.47072 0.70716 0.0
C180 C 0.12562 0.48946 0.68078 0.0
C181 C 0.10601 0.50955 0.68163 0.0
C182 C 0.10238 0.47316 0.7339 0.0
C183 C 0.08352 0.49363 0.73376 0.0
N184 N 0.02425 0.56556 0.7086 0.0
C185 C 0.0037 0.60271 0.68292 0.0
C186 C 0.98039 0.60309 0.70959 0.0
C187 C 0.9796 0.58443 0.73568 0.0
C188 C 0.00154 0.56609 0.7347 0.0
C189 C 0.0253 0.58395 0.68295 0.0
H190 H 0.99949 0.55244 0.75537 0.0
H191 H 0.04265 0.58469 0.66201 0.0
H192 H 0.10844 0.523 0.66073 0.0
H193 H 0.06789 0.49415 0.75493 0.0
C194 C 0.02252 0.51471 0.78159 0.0
C195 C 0.1189 0.59225 0.72491 0.0
C196 C 0.98571 0.48856 0.69143 0.0
C197 C 0.0874 0.56188 0.63493 0.0
H198 H 0.11085 0.58724 0.78975 0.0
H199 H 0.05887 0.5445 0.82065 0.0
H200 H 0.96066 0.46895 0.79606 0.0
H201 H 0.94075 0.4548 0.74655 0.0
H202 H 0.99218 0.49419 0.62718 0.0
H203 H 0.04788 0.53444 0.59582 0.0
H204 H 0.15069 0.60647 0.62061 0.0
H205 H 0.16804 0.6226 0.67027 0.0
H206 H 0.14224 0.48879 0.65952 0.0
H207 H 0.09945 0.45896 0.75494 0.0
H208 H 0.00558 0.61697 0.66217 0.0
H209 H 0.96162 0.58353 0.7568 0.0
C210 C 0.24306 0.00145 0.59575 0.0
C211 C 0.27613 0.9962 0.59744 0.0
C212 C 0.29801 0.00693 0.56956 0.0
C213 C 0.27733 0.01817 0.55239 0.0
N214 N 0.24391 0.01559 0.56791 0.0
Co215 Co 0.20543 0.02811 0.55108 0.0
N216 N 0.24041 0.05285 0.51592 0.0
C217 C 0.27385 0.05109 0.50549 0.0
C218 C 0.29166 0.07156 0.48087 0.0
C219 C 0.26782 0.08709 0.4756 0.0
C220 C 0.2368 0.07513 0.49743 0.0
N221 N 0.16723 0.04062 0.53389 0.0
C222 C 0.16987 0.06388 0.5137 0.0
C223 C 0.13656 0.06532 0.50802 0.0
C224 C 0.1123 0.04195 0.52542 0.0
C225 C 0.13211 0.02767 0.54068 0.0
N226 N 0.17019 0.00338 0.58624 0.0
C227 C 0.13457 0.99485 0.58812 0.0
C228 C 0.11688 0.97765 0.61511 0.0
C229 C 0.14304 0.97482 0.63098 0.0
C230 C 0.17543 0.99039 0.61265 0.0
N231 N 0.21048 0.05871 0.57346 0.0
C232 C 0.21817 0.10498 0.60212 0.0
C233 C 0.18419 0.08763 0.60337 0.0
C234 C 0.18094 0.06467 0.58887 0.0
C235 C 0.24817 0.09832 0.58651 0.0
C236 C 0.24378 0.07509 0.5726 0.0
N237 N 0.20062 0.99757 0.5284 0.0
C238 C 0.19954 0.94979 0.5259 0.0
C239 C 0.20104 0.95498 0.49459 0.0
C240 C 0.20059 0.98179 0.48093 0.0
C241 C 0.19995 0.00261 0.49826 0.0
C242 C 0.19971 0.97131 0.54223 0.0
H243 H 0.20004 0.02307 0.48702 0.0
H244 H 0.19992 0.96674 0.56595 0.0
H245 H 0.15448 0.05194 0.58984 0.0
H246 H 0.26738 0.07071 0.5606 0.0
C247 C 0.28951 0.03401 0.52303 0.0
C248 C 0.21051 0.98897 0.61932 0.0
C249 C 0.20371 0.08426 0.49919 0.0
C250 C 0.11838 0.006 0.5658 0.0
H251 H 0.28341 0.98496 0.61651 0.0
H252 H 0.32579 0.00682 0.56277 0.0
H253 H 0.31923 0.07564 0.46913 0.0
H254 H 0.27271 0.10514 0.45788 0.0
H255 H 0.1304 0.08165 0.49322 0.0
H256 H 0.08347 0.03688 0.52793 0.0
H257 H 0.08835 0.96858 0.62257 0.0
H258 H 0.13892 0.96204 0.65314 0.0
H259 H 0.16022 0.0916 0.61556 0.0
H260 H 0.27496 0.11125 0.58443 0.0
H261 H 0.19873 0.92932 0.53785 0.0
H262 H 0.20197 0.98709 0.45683 0.0
C263 C 0.50742 0.81983 0.07576 0.0
C264 C 0.50992 0.84736 0.07882 0.0
C265 C 0.53973 0.8632 0.05862 0.0
C266 C 0.55381 0.84458 0.0445 0.0
N267 N 0.53473 0.81774 0.05437 0.0
Co268 Co 0.54627 0.78395 0.04037 0.0
N269 N 0.59155 0.80719 0.01231 0.0
C270 C 0.60537 0.83499 0.00906 0.0
C271 C 0.63662 0.84512 0.98784 0.0
C272 C 0.64302 0.8225 0.97662 0.0
C273 C 0.61515 0.79979 0.99174 0.0
N274 N 0.55723 0.75029 0.02569 0.0
C275 C 0.58356 0.74849 0.00324 0.0
C276 C 0.5808 0.72118 0.99935 0.0
C277 C 0.55123 0.70513 0.01973 0.0
C278 C 0.53775 0.7235 0.03481 0.0
N279 N 0.50156 0.76058 0.06908 0.0
C280 C 0.48898 0.73253 0.0737 0.0
C281 C 0.45804 0.72229 0.09524 0.0
C282 C 0.4506 0.7451 0.10533 0.0
C283 C 0.47768 0.76803 0.08939 0.0
N284 N 0.51904 0.78868 0.00776 0.0
C285 C 0.4811 0.79519 0.96084 0.0
C286 C 0.47425 0.7696 0.98041 0.0
C287 C 0.49335 0.76683 0.00347 0.0
C288 C 0.50723 0.81749 0.9653 0.0
C289 C 0.52568 0.81381 0.98867 0.0
N290 N 0.57346 0.77922 0.07309 0.0
C291 C 0.5889 0.74965 0.11288 0.0
C292 C 0.60814 0.77288 0.12208 0.0
C293 C 0.61065 0.79926 0.10587 0.0
C294 C 0.59358 0.80192 0.08148 0.0
C295 C 0.57172 0.75327 0.08864 0.0
H296 H 0.59675 0.8226 0.07004 0.0
H297 H 0.55674 0.73475 0.08328 0.0
H298 H 0.48688 0.74677 0.01751 0.0
H299 H 0.54538 0.83158 0.99071 0.0
C300 C 0.58656 0.85138 0.02398 0.0
C301 C 0.47971 0.79633 0.09471 0.0
C302 C 0.61094 0.77205 0.98434 0.0
C303 C 0.50656 0.71637 0.05721 0.0
H304 H 0.4926 0.85523 0.09455 0.0
H305 H 0.55053 0.88553 0.05535 0.0
H306 H 0.65217 0.86657 0.98057 0.0
H307 H 0.66512 0.82285 0.95871 0.0
H308 H 0.5981 0.71374 0.98311 0.0
H309 H 0.5405 0.6828 0.02283 0.0
H310 H 0.44277 0.7008 0.10277 0.0
H311 H 0.4279 0.74484 0.12262 0.0
H312 H 0.45393 0.75175 0.97821 0.0
H313 H 0.51393 0.83766 0.95052 0.0
H314 H 0.58617 0.72878 0.12493 0.0
H315 H 0.62578 0.81784 0.11198 0.0
C316 C 0.77111 0.97615 0.56229 0.0
C317 C 0.80508 0.97684 0.56782 0.0
C318 C 0.82861 0.99696 0.5458 0.0
C319 C 0.80777 0.00757 0.52834 0.0
N320 N 0.77225 0.99576 0.53816 0.0
Co321 Co 0.73235 0.00539 0.52 0.0
N322 N 0.76721 0.03313 0.48596 0.0
C323 C 0.8034 0.03901 0.48079 0.0
C324 C 0.82006 0.0594 0.45596 0.0
C325 C 0.79295 0.06735 0.44481 0.0
C326 C 0.76118 0.05125 0.46359 0.0
N327 N 0.69247 0.01544 0.50208 0.0
C328 C 0.69372 0.03584 0.4787 0.0
C329 C 0.65976 0.03683 0.47441 0.0
C330 C 0.63607 0.01664 0.49628 0.0
C331 C 0.65688 0.00455 0.51255 0.0
N332 N 0.69752 0.9772 0.55374 0.0
C333 C 0.66133 0.9706 0.5581 0.0
C334 C 0.64459 0.94885 0.58153 0.0
C335 C 0.67162 0.94075 0.59261 0.0
C336 C 0.70354 0.95834 0.57545 0.0
N337 N 0.73136 0.03508 0.54452 0.0
C338 C 0.72944 0.07952 0.57598 0.0
C339 C 0.6983 0.05893 0.57695 0.0
C340 C 0.69985 0.03712 0.56119 0.0
C341 C 0.76165 0.07706 0.55951 0.0
C342 C 0.76202 0.05484 0.54427 0.0
N343 N 0.73335 0.97575 0.49547 0.0
C344 C 0.70248 0.93593 0.47724 0.0
C345 C 0.73494 0.93222 0.46286 0.0
C346 C 0.76658 0.95082 0.46468 0.0
C347 C 0.76519 0.97215 0.48114 0.0
C348 C 0.70229 0.9578 0.49306 0.0
H349 H 0.79026 0.98525 0.48221 0.0
H350 H 0.67668 0.95962 0.50329 0.0
H351 H 0.67512 0.02234 0.56258 0.0
H352 H 0.78741 0.05441 0.53203 0.0
C353 C 0.82089 0.02705 0.50138 0.0
C354 C 0.73888 0.95553 0.57958 0.0
C355 C 0.72621 0.0555 0.46084 0.0
C356 C 0.64387 0.98391 0.53853 0.0
H357 H 0.81222 0.96368 0.58551 0.0
H358 H 0.85753 0.00261 0.5424 0.0
H359 H 0.84854 0.06826 0.44772 0.0
H360 H 0.79627 0.08383 0.42566 0.0
H361 H 0.65291 0.05111 0.45758 0.0
H362 H 0.60713 0.01183 0.50033 0.0
H363 H 0.61614 0.93934 0.58894 0.0
H364 H 0.66795 0.92328 0.61072 0.0
H365 H 0.67272 0.05955 0.58983 0.0
H366 H 0.78652 0.09258 0.55766 0.0
H367 H 0.67727 0.92217 0.47605 0.0
H368 H 0.79238 0.94857 0.45402 0.0
C369 C 0.48194 0.32145 0.0541 0.0
C370 C 0.47939 0.34775 0.0589 0.0
C371 C 0.50512 0.36658 0.03721 0.0
C372 C 0.522 0.35081 0.02058 0.0
N373 N 0.50847 0.323 0.03015 0.0
Co374 Co 0.52643 0.29258 0.01348 0.0
N375 N 0.56462 0.32039 0.98182 0.0
C376 C 0.57109 0.3485 0.97743 0.0
C377 C 0.5978 0.36206 0.95296 0.0
C378 C 0.60879 0.3414 0.94067 0.0
C379 C 0.58817 0.31631 0.95856 0.0
N380 N 0.5447 0.26216 0.99714 0.0
C381 C 0.57058 0.26368 0.97275 0.0
C382 C 0.57491 0.23752 0.96918 0.0
C383 C 0.55039 0.21871 0.99179 0.0
C384 C 0.5327 0.2344 0.00788 0.0
N385 N 0.48783 0.26471 0.04474 0.0
C386 C 0.48086 0.23657 0.04864 0.0
C387 C 0.45228 0.22294 0.07158 0.0
C388 C 0.44037 0.24355 0.08322 0.0
C389 C 0.46268 0.26869 0.06677 0.0
N390 N 0.49344 0.29142 0.9848 0.0
C391 C 0.44797 0.28952 0.94289 0.0
C392 C 0.45235 0.26506 0.95891 0.0
C393 C 0.47497 0.26648 0.97956 0.0
C394 C 0.46647 0.31498 0.94844 0.0
C395 C 0.4889 0.31545 0.96931 0.0
N396 N 0.55942 0.29373 0.04229 0.0
C397 C 0.58098 0.27034 0.08278 0.0
C398 C 0.60196 0.29563 0.08656 0.0
C399 C 0.60218 0.31988 0.06709 0.0
C400 C 0.58096 0.31846 0.04529 0.0
C401 C 0.56028 0.26986 0.06065 0.0
H402 H 0.58211 0.33771 0.03143 0.0
H403 H 0.54468 0.24994 0.0593 0.0
H404 H 0.47713 0.24708 0.99093 0.0
H405 H 0.50247 0.33549 0.97238 0.0
C406 C 0.55077 0.36153 0.99604 0.0
C407 C 0.45933 0.29571 0.07346 0.0
C408 C 0.59079 0.28919 0.95176 0.0
C409 C 0.50272 0.22357 0.03139 0.0
H410 H 0.46116 0.35288 0.0765 0.0
H411 H 0.5111 0.38908 0.03415 0.0
H412 H 0.60753 0.3843 0.94463 0.0
H413 H 0.62918 0.34451 0.92044 0.0
H414 H 0.59339 0.23253 0.95164 0.0
H415 H 0.54529 0.19622 0.99548 0.0
H416 H 0.44172 0.20067 0.07923 0.0
H417 H 0.41804 0.2404 0.10197 0.0
H418 H 0.43811 0.2448 0.95582 0.0
H419 H 0.46418 0.33453 0.93639 0.0
H420 H 0.57955 0.25095 0.09743 0.0
H421 H 0.61853 0.33996 0.06869 0.0
H422 H 0.2102 0.32711 0.40144 0.0
H423 H 0.16188 0.46452 0.3324 0.0
H424 H 0.21559 0.3516 0.30553 0.0
H425 H 0.09598 0.41161 0.41494 0.0
H426 H 0.19557 0.42954 0.32671 0.0
H427 H 0.18043 0.36403 0.41085 0.0
C428 C 0.20524 0.34007 0.38234 0.0
C429 C 0.21572 0.33603 0.35254 0.0
C430 C 0.17386 0.4258 0.34615 0.0
C431 C 0.18296 0.37891 0.36333 0.0
C432 C 0.15438 0.44564 0.34937 0.0
C433 C 0.12535 0.44089 0.37387 0.0
C434 C 0.1649 0.40127 0.36787 0.0
C435 C 0.1181 0.41637 0.39572 0.0
C436 C 0.18848 0.36124 0.38781 0.0
C437 C 0.20909 0.35411 0.32881 0.0
N438 N 0.13769 0.39741 0.39216 0.0
N439 N 0.19339 0.3748 0.33472 0.0
H440 H 0.22545 0.76495 0.7106 0.0
H441 H 0.17274 0.6009 0.75697 0.0
H442 H 0.23044 0.72616 0.80024 0.0
H443 H 0.1119 0.64423 0.7059 0.0
H444 H 0.20528 0.64582 0.76685 0.0
H445 H 0.195 0.71965 0.70192 0.0
C446 C 0.21996 0.74705 0.72864 0.0
C447 C 0.22994 0.74973 0.75656 0.0
C448 C 0.18471 0.64535 0.75359 0.0
C449 C 0.19633 0.69747 0.74596 0.0
C450 C 0.16619 0.61988 0.74802 0.0
C451 C 0.13931 0.61901 0.73106 0.0
C452 C 0.177 0.67003 0.7412 0.0
C453 C 0.13232 0.64413 0.71925 0.0
C454 C 0.20281 0.72115 0.72347 0.0
C455 C 0.22342 0.72529 0.77836 0.0
N456 N 0.15122 0.66868 0.72437 0.0
N457 N 0.20705 0.70013 0.77258 0.0
H458 H 0.8389 0.71136 0.38161 0.0
H459 H 0.87836 0.56819 0.34688 0.0
H460 H 0.79812 0.66825 0.31435 0.0
H461 H 0.92241 0.61177 0.41264 0.0
H462 H 0.84187 0.60122 0.34004 0.0
H463 H 0.86302 0.67205 0.39841 0.0
C464 C 0.83492 0.69348 0.37054 0.0
C465 C 0.81735 0.69315 0.34614 0.0
C466 C 0.8592 0.60345 0.35622 0.0
C467 C 0.84445 0.64818 0.36524 0.0
C468 C 0.88005 0.58461 0.36011 0.0
C469 C 0.90378 0.58752 0.38004 0.0
C470 C 0.86227 0.62557 0.3722 0.0
C471 C 0.90447 0.60883 0.39702 0.0
C472 C 0.84859 0.67107 0.38012 0.0
C473 C 0.81215 0.66939 0.33288 0.0
N474 N 0.88438 0.6273 0.39241 0.0
N475 N 0.82599 0.64796 0.34238 0.0
H476 H 0.78219 0.37477 0.70667 0.0
H477 H 0.99334 0.44008 0.67412 0.0
H478 H 0.85953 0.32777 0.6851 0.0
H479 H 0.91518 0.48646 0.69455 0.0
H480 H 0.94521 0.40038 0.67059 0.0
H481 H 0.83062 0.41743 0.69491 0.0
C482 C 0.80941 0.37352 0.69915 0.0
C483 C 0.81697 0.3477 0.69724 0.0
C484 C 0.93858 0.41936 0.67539 0.0
C485 C 0.87264 0.3964 0.68392 0.0
C486 C 0.966 0.44194 0.67729 0.0
C487 C 0.95784 0.46624 0.68472 0.0
C488 C 0.90287 0.42119 0.68122 0.0
C489 C 0.92224 0.46789 0.68882 0.0
C490 C 0.83706 0.39787 0.69238 0.0
C491 C 0.8526 0.34727 0.68689 0.0
N492 N 0.89595 0.44552 0.68732 0.0
N493 N 0.87921 0.37123 0.68102 0.0
H494 H 0.22007 0.21291 0.34702 0.0
H495 H 0.21939 0.13591 0.51334 0.0
H496 H 0.23509 0.25657 0.42082 0.0
H497 H 0.19005 0.09266 0.44249 0.0
H498 H 0.22436 0.18047 0.48034 0.0
H499 H 0.20813 0.16866 0.38199 0.0
C500 C 0.22084 0.21315 0.37063 0.0
C501 C 0.22887 0.23844 0.38101 0.0
C502 C 0.21648 0.16125 0.47209 0.0
C503 C 0.21513 0.18784 0.42125 0.0
C504 C 0.21364 0.13595 0.49088 0.0
C505 C 0.20405 0.11092 0.48046 0.0
C506 C 0.21009 0.16134 0.44261 0.0
C507 C 0.19721 0.11172 0.45122 0.0
C508 C 0.21383 0.18788 0.39063 0.0
C509 C 0.22888 0.23753 0.41193 0.0
N510 N 0.20052 0.13657 0.43322 0.0
N511 N 0.22242 0.21263 0.43093 0.0
H512 H 0.36971 0.76982 0.81356 0.0
H513 H 0.45611 0.83997 0.94066 0.0
H514 H 0.37323 0.85427 0.82464 0.0
H515 H 0.46094 0.75808 0.92409 0.0
H516 H 0.42427 0.84517 0.8993 0.0
H517 H 0.40123 0.76446 0.85534 0.0
C518 C 0.37737 0.78726 0.82476 0.0
C519 C 0.36959 0.81269 0.8154 0.0
C520 C 0.43229 0.82606 0.90472 0.0
C521 C 0.40509 0.8067 0.86339 0.0
C522 C 0.45066 0.82313 0.92825 0.0
C523 C 0.46132 0.79855 0.93592 0.0
C524 C 0.42441 0.80426 0.88867 0.0
C525 C 0.45288 0.77725 0.91931 0.0
C526 C 0.39527 0.78422 0.84859 0.0
C527 C 0.37933 0.8345 0.83097 0.0
N528 N 0.43498 0.78061 0.8965 0.0
N529 N 0.39668 0.83105 0.85416 0.0
H530 H 0.75951 0.83302 0.32413 0.0
H531 H 0.69857 0.87742 0.48172 0.0
H532 H 0.71764 0.77341 0.40768 0.0
H533 H 0.77323 0.9343 0.40629 0.0
H534 H 0.70007 0.83931 0.45368 0.0
H535 H 0.75981 0.87092 0.35267 0.0
C536 C 0.75033 0.82797 0.3485 0.0
C537 C 0.73844 0.80013 0.36363 0.0
C538 C 0.7162 0.86012 0.44333 0.0
C539 C 0.73857 0.84323 0.39633 0.0
C540 C 0.71517 0.88186 0.45921 0.0
C541 C 0.73578 0.90899 0.44623 0.0
C542 C 0.73757 0.86566 0.41411 0.0
C543 C 0.75714 0.91361 0.41715 0.0
C544 C 0.75069 0.84955 0.36477 0.0
C545 C 0.72718 0.79464 0.39524 0.0
N546 N 0.75731 0.89218 0.40195 0.0
N547 N 0.72725 0.81603 0.41056 0.0
H548 H 0.66688 0.27073 0.76792 0.0
H549 H 0.6636 0.30178 0.93613 0.0
H550 H 0.76116 0.30663 0.80032 0.0
H551 H 0.56826 0.27245 0.90239 0.0
H552 H 0.70011 0.30023 0.88747 0.0
H553 H 0.63038 0.26739 0.81815 0.0
C554 C 0.6799 0.27769 0.78567 0.0
C555 C 0.71704 0.28922 0.77988 0.0
C556 C 0.67122 0.29406 0.89065 0.0
C557 C 0.67556 0.28562 0.83723 0.0
C558 C 0.65052 0.29497 0.91834 0.0
C559 C 0.61315 0.28747 0.92284 0.0
C560 C 0.65429 0.28549 0.86742 0.0
C561 C 0.59714 0.27853 0.89946 0.0
C562 C 0.65907 0.27592 0.81426 0.0
C563 C 0.73253 0.29808 0.80364 0.0
N564 N 0.61782 0.27787 0.87262 0.0
N565 N 0.71173 0.29616 0.8312 0.0
H566 H 0.24948 0.8787 0.76945 0.0
H567 H 0.19269 0.93435 0.61619 0.0
H568 H 0.24142 0.83449 0.6951 0.0
H569 H 0.23262 0.99018 0.67352 0.0
H570 H 0.20113 0.89543 0.65039 0.0
H571 H 0.23625 0.91833 0.73917 0.0
C572 C 0.24499 0.87727 0.74686 0.0
C573 C 0.24615 0.85298 0.73502 0.0
C574 C 0.20786 0.91611 0.65574 0.0
C575 C 0.2305 0.89795 0.70065 0.0
C576 C 0.20276 0.93823 0.63635 0.0
C577 C 0.21178 0.96528 0.64232 0.0
C578 C 0.22225 0.92104 0.6813 0.0
C579 C 0.22517 0.96945 0.66845 0.0
C580 C 0.23728 0.89984 0.72969 0.0
C581 C 0.23988 0.85234 0.70564 0.0
N582 N 0.23014 0.94748 0.68707 0.0
N583 N 0.23222 0.87435 0.68962 0.0
H584 H 0.74057 0.73912 0.2503 0.0
H585 H 0.60276 0.80057 0.16925 0.0
H586 H 0.65989 0.77303 0.29724 0.0
H587 H 0.65024 0.73803 0.13619 0.0
H588 H 0.62933 0.79515 0.21393 0.0
H589 H 0.71268 0.74199 0.20611 0.0
C590 C 0.71687 0.74693 0.25151 0.0
C591 C 0.70279 0.75603 0.27761 0.0
C592 C 0.63389 0.78257 0.19694 0.0
C593 C 0.67136 0.75995 0.22681 0.0
C594 C 0.61896 0.78579 0.17137 0.0
C595 C 0.62441 0.76975 0.14904 0.0
C596 C 0.65487 0.76345 0.20001 0.0
C597 C 0.64527 0.75066 0.15303 0.0
C598 C 0.70111 0.74869 0.22619 0.0
C599 C 0.67231 0.76638 0.27749 0.0
N600 N 0.66 0.74816 0.17798 0.0
N601 N 0.65783 0.76825 0.25245 0.0
H602 H 0.78868 0.22693 0.65355 0.0
H603 H 0.67742 0.10831 0.58148 0.0
H604 H 0.67678 0.21681 0.65194 0.0
H605 H 0.77911 0.10625 0.60532 0.0
H606 H 0.67747 0.14918 0.60496 0.0
H607 H 0.78695 0.18423 0.63295 0.0
C608 C 0.76365 0.21549 0.64917 0.0
C609 C 0.73257 0.22493 0.65519 0.0
C610 C 0.69969 0.13969 0.60515 0.0
C611 C 0.73058 0.17654 0.63089 0.0
C612 C 0.6996 0.11622 0.5919 0.0
C613 C 0.72836 0.10374 0.5913 0.0
C614 C 0.72888 0.15099 0.61768 0.0
C615 C 0.75666 0.11538 0.60471 0.0
C616 C 0.76267 0.19118 0.63736 0.0
C617 C 0.70112 0.20987 0.64819 0.0
N618 N 0.75627 0.13839 0.6172 0.0
N619 N 0.7009 0.1864 0.6364 0.0
H620 H 0.33794 0.27062 0.25632 0.0
H621 H 0.39763 0.31261 0.07574 0.0
H622 H 0.28214 0.31484 0.20063 0.0
H623 H 0.46258 0.28102 0.13257 0.0
H624 H 0.35426 0.3129 0.12119 0.0
H625 H 0.38344 0.27338 0.21124 0.0
C626 C 0.3356 0.28121 0.2346 0.0
C627 C 0.30675 0.293 0.23217 0.0
C628 C 0.37806 0.30602 0.12378 0.0
C629 C 0.35803 0.29572 0.1805 0.0
C630 C 0.40268 0.30589 0.09791 0.0
C631 C 0.43348 0.29686 0.1007 0.0
C632 C 0.38424 0.29679 0.15256 0.0
C633 C 0.43901 0.28814 0.12971 0.0
C634 C 0.36144 0.28272 0.2089 0.0
C635 C 0.30433 0.30588 0.20347 0.0
N636 N 0.41453 0.28822 0.15458 0.0
N637 N 0.32963 0.30687 0.17873 0.0
H638 H 0.82587 0.69702 0.67385 0.0
H639 H 0.96311 0.63184 0.75438 0.0
H640 H 0.83425 0.69882 0.76668 0.0
H641 H 0.94309 0.61818 0.66667 0.0
H642 H 0.92021 0.66033 0.7572 0.0
H643 H 0.87275 0.67183 0.6688 0.0
C644 C 0.83777 0.69219 0.6931 0.0
C645 C 0.82642 0.70004 0.72069 0.0
C646 C 0.92524 0.65117 0.73729 0.0
C647 C 0.87987 0.67128 0.71517 0.0
C648 C 0.94966 0.63479 0.7357 0.0
C649 C 0.95649 0.6223 0.71038 0.0
C650 C 0.90746 0.65524 0.71336 0.0
C651 C 0.93887 0.6275 0.68655 0.0
C652 C 0.86445 0.67781 0.69024 0.0
C653 C 0.84248 0.6932 0.74501 0.0
N654 N 0.91503 0.64345 0.6887 0.0
N655 N 0.86841 0.67923 0.74169 0.0
H656 H 0.85523 0.32017 0.30018 0.0
H657 H 0.8814 0.43833 0.39703 0.0
H658 H 0.77837 0.31437 0.38182 0.0
H659 H 0.9715 0.41302 0.35245 0.0
H660 H 0.84104 0.39598 0.38878 0.0
H661 H 0.89682 0.35796 0.31503 0.0
C662 C 0.84728 0.32692 0.32125 0.0
C663 C 0.81358 0.31439 0.33988 0.0
C664 C 0.86969 0.39956 0.3812 0.0
C665 C 0.86037 0.35749 0.35671 0.0
C666 C 0.89259 0.42356 0.38595 0.0
C667 C 0.92963 0.42892 0.37542 0.0
C668 C 0.88401 0.38133 0.36512 0.0
C669 C 0.94301 0.40948 0.36084 0.0
C670 C 0.87095 0.34827 0.32977 0.0
C671 C 0.80428 0.32364 0.36699 0.0
N672 N 0.92015 0.38671 0.35567 0.0
N673 N 0.82744 0.34496 0.37448 0.0
H674 H 0.20906 0.33402 0.76692 0.0
H675 H 0.13608 0.43987 0.66276 0.0
H676 H 0.23116 0.3423 0.66953 0.0
H677 H 0.15624 0.45069 0.75124 0.0
H678 H 0.16521 0.40141 0.66492 0.0
H679 H 0.18249 0.37338 0.76207 0.0
C680 C 0.20862 0.34422 0.74444 0.0
C681 C 0.223 0.33502 0.71855 0.0
C682 C 0.16331 0.41235 0.68374 0.0
C683 C 0.19165 0.37993 0.71296 0.0
C684 C 0.14688 0.43441 0.6825 0.0
C685 C 0.14331 0.44847 0.70701 0.0
C686 C 0.17585 0.40411 0.70979 0.0
C687 C 0.15747 0.44012 0.73212 0.0
C688 C 0.19326 0.36667 0.74173 0.0
C689 C 0.22034 0.34856 0.69013 0.0
N690 N 0.17281 0.4184 0.73293 0.0
N691 N 0.20496 0.37038 0.68807 0.0
H692 H 0.23109 0.73379 0.31222 0.0
H693 H 0.06926 0.62113 0.40633 0.0
H694 H 0.2036 0.73671 0.40755 0.0
H695 H 0.1551 0.59445 0.35667 0.0
H696 H 0.11099 0.66679 0.40309 0.0
H697 H 0.19688 0.68533 0.32308 0.0
C698 C 0.21852 0.72442 0.3355 0.0
C699 C 0.22066 0.73989 0.35895 0.0
C700 C 0.12063 0.65074 0.39326 0.0
C701 C 0.17982 0.68446 0.37095 0.0
C702 C 0.09699 0.62485 0.39507 0.0
C703 C 0.10887 0.60426 0.38151 0.0
C704 C 0.1559 0.65619 0.377 0.0
C705 C 0.14497 0.61 0.36708 0.0
C706 C 0.19871 0.69671 0.34153 0.0
C707 C 0.20226 0.72623 0.38845 0.0
N708 N 0.16712 0.63572 0.36456 0.0
N709 N 0.1821 0.69945 0.39353 0.0
H710 H 0.70202 0.81446 0.723 0.0
H711 H 0.77211 0.9154 0.56529 0.0
H712 H 0.81116 0.826 0.67579 0.0
H713 H 0.71458 0.94088 0.64099 0.0
H714 H 0.7784 0.87533 0.60013 0.0
H715 H 0.69721 0.85378 0.68726 0.0
C716 C 0.72511 0.82522 0.70534 0.0
C717 C 0.75738 0.81703 0.70299 0.0
C718 C 0.76433 0.88971 0.60895 0.0
C719 C 0.75113 0.86133 0.6612 0.0
C720 C 0.7607 0.9124 0.58923 0.0
C721 C 0.74243 0.93111 0.6004 0.0
C722 C 0.74881 0.88547 0.6398 0.0
C723 C 0.72828 0.92658 0.63154 0.0
C724 C 0.72212 0.84754 0.68484 0.0
C725 C 0.78567 0.83126 0.67857 0.0
N726 N 0.73134 0.90395 0.65018 0.0
N727 N 0.78184 0.85269 0.65854 0.0
H728 H 0.68834 0.33632 0.24245 0.0
H729 H 0.6385 0.25863 0.10752 0.0
H730 H 0.69667 0.25275 0.23728 0.0
H731 H 0.61108 0.33499 0.1227 0.0
H732 H 0.66685 0.25881 0.15136 0.0
H733 H 0.66685 0.33885 0.1949 0.0
C734 C 0.68594 0.31861 0.23108 0.0
C735 C 0.69457 0.29439 0.24351 0.0
C736 C 0.65477 0.27559 0.14499 0.0
C737 C 0.66978 0.29698 0.1894 0.0
C738 C 0.63845 0.27546 0.12002 0.0
C739 C 0.62206 0.29671 0.11149 0.0
C740 C 0.65486 0.29716 0.16156 0.0
C741 C 0.6236 0.3183 0.1282 0.0
C742 C 0.67361 0.32002 0.20403 0.0
C743 C 0.6906 0.27188 0.22817 0.0
N744 N 0.63953 0.31789 0.1525 0.0
N745 N 0.67849 0.27372 0.20188 0.0
H746 H 0.30406 0.24394 0.68366 0.0
H747 H 0.17478 0.14116 0.60663 0.0
H748 H 0.19328 0.24436 0.68767 0.0
H749 H 0.27153 0.12596 0.63112 0.0
H750 H 0.18333 0.18241 0.63032 0.0
H751 H 0.29528 0.20465 0.65732 0.0
C752 C 0.27784 0.23578 0.67902 0.0
C753 C 0.24924 0.24729 0.68831 0.0
C754 C 0.20263 0.16999 0.63044 0.0
C755 C 0.23916 0.2024 0.65771 0.0
C756 C 0.19768 0.14631 0.61711 0.0
C757 C 0.22249 0.12995 0.61677 0.0
C758 C 0.23278 0.17753 0.64326 0.0
C759 C 0.25201 0.1381 0.63025 0.0
C760 C 0.2729 0.21337 0.6639 0.0
C761 C 0.21615 0.23628 0.68085 0.0
N762 N 0.25635 0.16131 0.64282 0.0
N763 N 0.21196 0.21435 0.66608 0.0
H764 H 0.32271 0.85504 0.20782 0.0
H765 H 0.47549 0.77967 0.15502 0.0
H766 H 0.3469 0.78991 0.26704 0.0
H767 H 0.4267 0.82336 0.09234 0.0
H768 H 0.43333 0.78734 0.19732 0.0
H769 H 0.3657 0.848 0.16585 0.0
C770 C 0.33748 0.83953 0.21202 0.0
C771 C 0.33202 0.82362 0.24107 0.0
C772 C 0.43182 0.79524 0.17433 0.0
C773 C 0.38073 0.81512 0.19324 0.0
C774 C 0.45582 0.7909 0.15031 0.0
C775 C 0.45441 0.80102 0.12039 0.0
C776 C 0.40653 0.81005 0.16829 0.0
C777 C 0.42859 0.81543 0.11521 0.0
C778 C 0.36178 0.8354 0.18809 0.0
C779 C 0.351 0.80319 0.24519 0.0
N780 N 0.40573 0.81966 0.13896 0.0
N781 N 0.37472 0.79967 0.22158 0.0
H782 H 0.74884 0.19496 0.31778 0.0
H783 H 0.71416 0.10088 0.48251 0.0
H784 H 0.73611 0.22687 0.40096 0.0
H785 H 0.73369 0.0698 0.3996 0.0
H786 H 0.71558 0.14618 0.45307 0.0
H787 H 0.73672 0.14794 0.34733 0.0
C788 C 0.74307 0.19203 0.34227 0.0
C789 C 0.74375 0.21491 0.35693 0.0
C790 C 0.71931 0.12945 0.44125 0.0
C791 C 0.73025 0.1612 0.39088 0.0
C792 C 0.71839 0.10369 0.45804 0.0
C793 C 0.72402 0.08198 0.44323 0.0
C794 C 0.72597 0.1334 0.40945 0.0
C795 C 0.7294 0.08629 0.41161 0.0
C796 C 0.73637 0.1652 0.35912 0.0
C797 C 0.73646 0.2099 0.38871 0.0
N798 N 0.73048 0.11164 0.39568 0.0
N799 N 0.73018 0.18362 0.40461 0.0
H800 H 0.32682 0.24029 0.80822 0.0
H801 H 0.40132 0.32167 0.93303 0.0
H802 H 0.28987 0.30909 0.83661 0.0
H803 H 0.44058 0.25462 0.90194 0.0
H804 H 0.36129 0.31824 0.89714 0.0
H805 H 0.36952 0.24577 0.84195 0.0
C806 C 0.32769 0.25645 0.82176 0.0
C807 C 0.30446 0.27389 0.82027 0.0
C808 C 0.37872 0.30431 0.89813 0.0
C809 C 0.35331 0.28059 0.85851 0.0
C810 C 0.40173 0.30637 0.9185 0.0
C811 C 0.42424 0.28831 0.92062 0.0
C812 C 0.3782 0.28406 0.87971 0.0
C813 C 0.42327 0.26865 0.90147 0.0
C814 C 0.35205 0.25965 0.84091 0.0
C815 C 0.30699 0.29493 0.83764 0.0
N816 N 0.4006 0.26701 0.88189 0.0
N817 N 0.33086 0.29762 0.8562 0.0
H818 H 0.23013 0.86657 0.34615 0.0
H819 H 0.23606 0.91368 0.50385 0.0
H820 H 0.24089 0.8118 0.42409 0.0
H821 H 0.17527 0.94605 0.44289 0.0
H822 H 0.24357 0.87885 0.47292 0.0
H823 H 0.21579 0.89907 0.37898 0.0
C824 C 0.22936 0.86141 0.37019 0.0
C825 C 0.2367 0.83657 0.38252 0.0
C826 C 0.22838 0.89349 0.46648 0.0
C827 C 0.22083 0.87358 0.41992 0.0
C828 C 0.2238 0.91335 0.48426 0.0
C829 C 0.20478 0.933 0.47623 0.0
C830 C 0.21456 0.89347 0.44003 0.0
C831 C 0.19064 0.93178 0.44986 0.0
C832 C 0.22103 0.87983 0.38887 0.0
C833 C 0.23519 0.8307 0.41379 0.0
N834 N 0.19608 0.91252 0.43257 0.0
N835 N 0.22781 0.84923 0.4314 0.0
H836 H 0.67587 0.76715 0.79589 0.0
H837 H 0.68069 0.76952 0.97033 0.0
H838 H 0.7695 0.76333 0.8328 0.0
H839 H 0.58626 0.76648 0.93288 0.0
H840 H 0.71361 0.76544 0.92094 0.0
H841 H 0.64223 0.76481 0.84663 0.0
C842 C 0.68929 0.76572 0.81479 0.0
C843 C 0.72559 0.76572 0.81015 0.0
C844 C 0.68565 0.76549 0.92355 0.0
C845 C 0.68724 0.76309 0.86845 0.0
C846 C 0.66701 0.76786 0.95161 0.0
C847 C 0.63102 0.7685 0.95525 0.0
C848 C 0.66801 0.76383 0.89914 0.0
C849 C 0.61412 0.76616 0.93068 0.0
C850 C 0.67006 0.76431 0.84379 0.0
C851 C 0.74153 0.76337 0.83546 0.0
N852 N 0.63281 0.76408 0.90359 0.0
N853 N 0.72233 0.76242 0.86356 0.0
loop_
_geom_bond_atom_site_label_1
_geom_bond_atom_site_label_2
_geom_bond_distance
_geom_bond_site_symmetry_2
_ccdc_geom_bond_type
H0 C7 0.929 . S
H1 C10 0.930 . S
H2 C12 0.929 . S
H3 C4 0.969 . S
C4 H3 0.969 . S
C4 O5 1.550 . S
C4 H6 0.973 . S
O5 C4 1.550 . S
O5 C11 1.412 . S
H6 C4 0.973 . S
C7 H0 0.929 . S
C7 C8 1.400 . S
C7 C9 1.364 . S
C8 C7 1.400 . S
C8 C12 1.377 . S
C9 C7 1.364 . S
C9 C10 1.374 . S
C10 H1 0.930 . S
C10 C9 1.374 . S
C10 C11 1.383 . S
C11 O5 1.412 . S
C11 C10 1.383 . S
C11 C12 1.394 . S
C12 H2 0.929 . S
C12 C8 1.377 . S
C12 C11 1.394 . S
H13 C20 0.929 . S
H14 C23 0.930 . S
H15 C25 0.929 . S
H16 C17 0.969 . S
C17 H16 0.969 . S
C17 O18 1.550 . S
C17 H19 0.973 . S
O18 C17 1.550 . S
O18 C24 1.412 . S
H19 C17 0.973 . S
C20 H13 0.929 . S
C20 C21 1.400 . S
C20 C22 1.364 . S
C21 C20 1.400 . S
C21 C25 1.377 . S
C22 C20 1.364 . S
C22 C23 1.374 . S
C23 H14 0.930 . S
C23 C22 1.374 . S
C23 C24 1.383 . S
C24 O18 1.412 . S
C24 C23 1.383 . S
C24 C25 1.394 . S
C25 H15 0.929 . S
C25 C21 1.377 . S
C25 C24 1.394 . S
H26 C33 0.929 . S
H27 C36 0.930 . S
H28 C38 0.929 . S
H29 C30 0.969 . S
C30 H29 0.969 . S
C30 O31 1.550 . S
C30 H32 0.973 . S
O31 C30 1.550 . S
O31 C37 1.412 . S
H32 C30 0.973 . S
C33 H26 0.929 . S
C33 C34 1.400 . S
C33 C35 1.364 . S
C34 C33 1.400 . S
C34 C38 1.377 . S
C35 C33 1.364 . S
C35 C36 1.374 . S
C36 H27 0.930 . S
C36 C35 1.374 . S
C36 C37 1.383 . S
C37 O31 1.412 . S
C37 C36 1.383 . S
C37 C38 1.394 . S
C38 H28 0.929 . S
C38 C34 1.377 . S
C38 C37 1.394 . S
H39 C46 0.929 . S
H40 C49 0.930 . S
H41 C51 0.929 . S
H42 C43 0.969 . S
C43 H42 0.969 . S
C43 O44 1.550 . S
C43 H45 0.973 . S
O44 C43 1.550 . S
O44 C50 1.412 . S
H45 C43 0.973 . S
C46 H39 0.929 . S
C46 C47 1.400 . S
C46 C48 1.364 . S
C47 C46 1.400 . S
C47 C51 1.377 . S
C48 C46 1.364 . S
C48 C49 1.374 . S
C49 H40 0.930 . S
C49 C48 1.374 . S
C49 C50 1.383 . S
C50 O44 1.412 . S
C50 C49 1.383 . S
C50 C51 1.394 . S
C51 H41 0.929 . S
C51 C47 1.377 . S
C51 C50 1.394 . S
H52 C59 0.929 . S
H53 C62 0.930 . S
H54 C64 0.929 . S
H55 C56 0.969 . S
C56 H55 0.969 . S
C56 O57 1.550 . S
C56 H58 0.973 . S
O57 C56 1.550 . S
O57 C63 1.412 . S
H58 C56 0.973 . S
C59 H52 0.929 . S
C59 C60 1.400 . S
C59 C61 1.364 . S
C60 C59 1.400 . S
C60 C64 1.377 . S
C61 C59 1.364 . S
C61 C62 1.374 . S
C62 H53 0.930 . S
C62 C61 1.374 . S
C62 C63 1.383 . S
C63 O57 1.412 . S
C63 C62 1.383 . S
C63 C64 1.394 . S
C64 H54 0.929 . S
C64 C60 1.377 . S
C64 C63 1.394 . S
H65 C72 0.929 . S
H66 C75 0.930 . S
H67 C77 0.929 . S
H68 C69 0.969 . S
C69 H68 0.969 . S
C69 O70 1.550 . S
C69 H71 0.973 . S
O70 C69 1.550 . S
O70 C76 1.412 . S
H71 C69 0.973 . S
C72 H65 0.929 . S
C72 C73 1.400 . S
C72 C74 1.364 . S
C73 C72 1.400 . S
C73 C77 1.377 . S
C74 C72 1.364 . S
C74 C75 1.374 . S
C75 H66 0.930 . S
C75 C74 1.374 . S
C75 C76 1.383 . S
C76 O70 1.412 . S
C76 C75 1.383 . S
C76 C77 1.394 . S
C77 H67 0.929 . S
C77 C73 1.377 . S
C77 C76 1.394 . S
H78 C85 0.929 . S
H79 C88 0.930 . S
H80 C90 0.929 . S
H81 C82 0.969 . S
C82 H81 0.969 . S
C82 O83 1.550 . S
C82 H84 0.973 . S
O83 C82 1.550 . S
O83 C89 1.412 . S
H84 C82 0.973 . S
C85 H78 0.929 . S
C85 C86 1.400 . S
C85 C87 1.364 . S
C86 C85 1.400 . S
C86 C90 1.377 . S
C87 C85 1.364 . S
C87 C88 1.374 . S
C88 H79 0.930 . S
C88 C87 1.374 . S
C88 C89 1.383 . S
C89 O83 1.412 . S
C89 C88 1.383 . S
C89 C90 1.394 . S
C90 H80 0.929 . S
C90 C86 1.377 . S
C90 C89 1.394 . S
H91 C98 0.929 . S
H92 C101 0.930 . S
H93 C103 0.929 . S
H94 C95 0.969 . S
C95 H94 0.969 . S
C95 O96 1.550 . S
C95 H97 0.973 . S
O96 C95 1.550 . S
O96 C102 1.412 . S
H97 C95 0.973 . S
C98 H91 0.929 . S
C98 C99 1.400 . S
C98 C100 1.364 . S
C99 C98 1.400 . S
C99 C103 1.377 . S
C100 C98 1.364 . S
C100 C101 1.374 . S
C101 H92 0.930 . S
C101 C100 1.374 . S
C101 C102 1.383 . S
C102 O96 1.412 . S
C102 C101 1.383 . S
C102 C103 1.394 . S
C103 H93 0.929 . S
C103 C99 1.377 . S
C103 C102 1.394 . S
C104 C105 1.443 . S
C104 N108 1.376 . S
C104 C142 1.389 . S
C105 C104 1.443 . S
C105 C106 1.340 . S
C105 H145 0.951 . S
C106 C105 1.340 . S
C106 C107 1.439 1_455 S
C106 H146 0.950 . S
C107 C106 1.439 1_655 S
C107 N108 1.374 1_655 S
C107 C141 1.395 . S
N108 C104 1.376 . S
N108 C107 1.374 1_455 S
N108 Co109 2.008 . S
Co109 N108 2.008 . S
Co109 N110 1.995 1_455 S
Co109 N115 2.008 1_455 S
Co109 N120 1.995 . S
Co109 N125 2.282 . S
Co109 N131 2.282 1_455 S
N110 Co109 1.995 1_655 S
N110 C111 1.376 . S
N110 C114 1.383 . S
C111 N110 1.376 . S
C111 C112 1.446 . S
C111 C141 1.391 . S
C112 C111 1.446 . S
C112 C113 1.339 . S
C112 H147 0.949 . S
C113 C112 1.339 . S
C113 C114 1.439 . S
C113 H148 0.950 . S
C114 N110 1.383 . S
C114 C113 1.439 . S
C114 C143 1.392 . S
N115 Co109 2.008 1_655 S
N115 C116 1.376 . S
N115 C119 1.374 1_655 S
C116 N115 1.376 . S
C116 C117 1.443 . S
C116 C143 1.389 . S
C117 C116 1.443 . S
C117 C118 1.340 . S
C117 H149 0.951 . S
C118 C117 1.340 . S
C118 C119 1.439 1_655 S
C118 H150 0.950 . S
C119 N115 1.374 1_455 S
C119 C118 1.439 1_455 S
C119 C144 1.395 . S
N120 Co109 1.995 . S
N120 C121 1.376 . S
N120 C124 1.383 . S
C121 N120 1.376 . S
C121 C122 1.446 . S
C121 C144 1.391 . S
C122 C121 1.446 . S
C122 C123 1.339 . S
C122 H151 0.949 . S
C123 C122 1.339 . S
C123 C124 1.439 . S
C123 H152 0.950 . S
C124 N120 1.383 . S
C124 C123 1.439 . S
C124 C142 1.392 . S
N125 Co109 2.282 . S
N125 C128 1.332 . S
N125 C130 1.332 . S
C126 C127 1.386 . S
C126 C129 1.388 . S
C127 C126 1.386 . S
C127 C128 1.382 . S
C127 H153 0.950 . S
C128 N125 1.332 . S
C128 C127 1.382 . S
C128 H139 0.952 . S
C129 C126 1.388 . S
C129 C130 1.382 . S
C129 H154 0.950 . S
C130 N125 1.332 . S
C130 C129 1.382 . S
C130 H140 0.948 . S
N131 Co109 2.282 1_655 S
N131 C135 1.332 . S
N131 C136 1.332 . S
C132 C133 1.388 . S
C132 C136 1.382 . S
C132 H155 0.950 . S
C133 C132 1.388 . S
C133 C134 1.386 . S
C134 C133 1.386 . S
C134 C135 1.382 . S
C134 H156 0.950 . S
C135 N131 1.332 . S
C135 C134 1.382 . S
C135 H137 0.952 . S
C136 N131 1.332 . S
C136 C132 1.382 . S
C136 H138 0.948 . S
H137 C135 0.952 . S
H138 C136 0.948 . S
H139 C128 0.952 . S
H140 C130 0.948 . S
C141 C107 1.395 . S
C141 C111 1.391 . S
C142 C104 1.389 . S
C142 C124 1.392 . S
C143 C114 1.392 . S
C143 C116 1.389 . S
C144 C119 1.395 . S
C144 C121 1.391 . S
H145 C105 0.951 . S
H146 C106 0.950 . S
H147 C112 0.949 . S
H148 C113 0.950 . S
H149 C117 0.951 . S
H150 C118 0.950 . S
H151 C122 0.949 . S
H152 C123 0.950 . S
H153 C127 0.950 . S
H154 C129 0.950 . S
H155 C132 0.950 . S
H156 C134 0.950 . S
C157 C158 1.443 . S
C157 N161 1.376 . S
C157 C195 1.389 . S
C158 C157 1.443 . S
C158 C159 1.340 . S
C158 H198 0.951 . S
C159 C158 1.340 . S
C159 C160 1.439 . S
C159 H199 0.950 . S
C160 C159 1.439 . S
C160 N161 1.374 . S
C160 C194 1.395 . S
N161 C157 1.376 . S
N161 C160 1.374 . S
N161 Co162 2.008 . S
Co162 N161 2.008 . S
Co162 N163 1.995 . S
Co162 N168 2.008 . S
Co162 N173 1.995 . S
Co162 N178 2.282 . S
Co162 N184 2.282 . S
N163 Co162 1.995 . S
N163 C164 1.376 . S
N163 C167 1.383 1_455 S
C164 N163 1.376 . S
C164 C165 1.446 1_455 S
C164 C194 1.391 . S
C165 C164 1.446 1_655 S
C165 C166 1.339 . S
C165 H200 0.949 . S
C166 C165 1.339 . S
C166 C167 1.439 . S
C166 H201 0.950 . S
C167 N163 1.383 1_655 S
C167 C166 1.439 . S
C167 C196 1.392 . S
N168 Co162 2.008 . S
N168 C169 1.376 . S
N168 C172 1.374 . S
C169 N168 1.376 . S
C169 C170 1.443 . S
C169 C196 1.389 1_455 S
C170 C169 1.443 . S
C170 C171 1.340 . S
C170 H202 0.951 . S
C171 C170 1.340 . S
C171 C172 1.439 . S
C171 H203 0.950 . S
C172 N168 1.374 . S
C172 C171 1.439 . S
C172 C197 1.395 . S
N173 Co162 1.995 . S
N173 C174 1.376 . S
N173 C177 1.383 . S
C174 N173 1.376 . S
C174 C175 1.446 . S
C174 C197 1.391 . S
C175 C174 1.446 . S
C175 C176 1.339 . S
C175 H204 0.949 . S
C176 C175 1.339 . S
C176 C177 1.439 . S
C176 H205 0.950 . S
C177 N173 1.383 . S
C177 C176 1.439 . S
C177 C195 1.392 . S
N178 Co162 2.282 . S
N178 C181 1.332 . S
N178 C183 1.332 . S
C179 C180 1.386 . S
C179 C182 1.388 . S
C180 C179 1.386 . S
C180 C181 1.382 . S
C180 H206 0.950 . S
C181 N178 1.332 . S
C181 C180 1.382 . S
C181 H192 0.952 . S
C182 C179 1.388 . S
C182 C183 1.382 . S
C182 H207 0.950 . S
C183 N178 1.332 . S
C183 C182 1.382 . S
C183 H193 0.948 . S
N184 Co162 2.282 . S
N184 C188 1.332 1_455 S
N184 C189 1.332 . S
C185 C186 1.388 1_455 S
C185 C189 1.382 . S
C185 H208 0.950 . S
C186 C185 1.388 1_655 S
C186 C187 1.386 . S
C187 C186 1.386 . S
C187 C188 1.382 . S
C187 H209 0.950 . S
C188 N184 1.332 1_655 S
C188 C187 1.382 . S
C188 H190 0.952 . S
C189 N184 1.332 . S
C189 C185 1.382 . S
C189 H191 0.948 . S
H190 C188 0.952 . S
H191 C189 0.948 . S
H192 C181 0.952 . S
H193 C183 0.948 . S
C194 C160 1.395 . S
C194 C164 1.391 . S
C195 C157 1.389 . S
C195 C177 1.392 . S
C196 C167 1.392 . S
C196 C169 1.389 1_655 S
C197 C172 1.395 . S
C197 C174 1.391 . S
H198 C158 0.951 . S
H199 C159 0.950 . S
H200 C165 0.949 . S
H201 C166 0.950 . S
H202 C170 0.951 . S
H203 C171 0.950 . S
H204 C175 0.949 . S
H205 C176 0.950 . S
H206 C180 0.950 . S
H207 C182 0.950 . S
H208 C185 0.950 . S
H209 C187 0.950 . S
C210 C211 1.443 . S
C210 N214 1.347 1_565 S
C210 C248 1.389 . S
C211 C210 1.443 . S
C211 C212 1.340 . S
C211 H251 0.951 . S
C212 C211 1.340 . S
C212 C213 1.439 1_565 S
C212 H252 0.950 . S
C213 C212 1.439 1_545 S
C213 N214 1.375 . S
C213 C247 1.395 . S
N214 C210 1.347 1_545 S
N214 C213 1.375 . S
N214 Co215 2.029 . S
Co215 N214 2.029 . S
Co215 N216 1.995 . S
Co215 N221 2.008 . S
Co215 N226 1.995 1_545 S
Co215 N231 2.282 . S
Co215 N237 2.282 1_545 S
N216 Co215 1.995 . S
N216 C217 1.376 . S
N216 C220 1.383 . S
C217 N216 1.376 . S
C217 C218 1.446 . S
C217 C247 1.391 . S
C218 C217 1.446 . S
C218 C219 1.339 . S
C218 H253 0.949 . S
C219 C218 1.339 . S
C219 C220 1.439 . S
C219 H254 0.950 . S
C220 N216 1.383 . S
C220 C219 1.439 . S
C220 C249 1.392 . S
N221 Co215 2.008 . S
N221 C222 1.376 . S
N221 C225 1.374 . S
C222 N221 1.376 . S
C222 C223 1.443 . S
C222 C249 1.389 . S
C223 C222 1.443 . S
C223 C224 1.340 . S
C223 H255 0.951 . S
C224 C223 1.340 . S
C224 C225 1.439 . S
C224 H256 0.950 . S
C225 N221 1.374 . S
C225 C224 1.439 . S
C225 C250 1.395 . S
N226 Co215 1.995 1_565 S
N226 C227 1.376 . S
N226 C230 1.383 . S
C227 N226 1.376 . S
C227 C228 1.446 . S
C227 C250 1.391 1_565 S
C228 C227 1.446 . S
C228 C229 1.339 . S
C228 H257 0.949 . S
C229 C228 1.339 . S
C229 C230 1.439 . S
C229 H258 0.950 . S
C230 N226 1.383 . S
C230 C229 1.439 . S
C230 C248 1.392 . S
N231 Co215 2.282 . S
N231 C234 1.332 . S
N231 C236 1.332 . S
C232 C233 1.386 . S
C232 C235 1.388 . S
C233 C232 1.386 . S
C233 C234 1.382 . S
C233 H259 0.950 . S
C234 N231 1.332 . S
C234 C233 1.382 . S
C234 H245 0.952 . S
C235 C232 1.388 . S
C235 C236 1.382 . S
C235 H260 0.950 . S
C236 N231 1.332 . S
C236 C235 1.382 . S
C236 H246 0.948 . S
N237 Co215 2.282 1_565 S
N237 C241 1.332 . S
N237 C242 1.332 . S
C238 C239 1.388 . S
C238 C242 1.382 . S
C238 H261 0.950 . S
C239 C238 1.388 . S
C239 C240 1.386 . S
C240 C239 1.386 . S
C240 C241 1.382 . S
C240 H262 0.950 . S
C241 N237 1.332 . S
C241 C240 1.382 . S
C241 H243 0.952 . S
C242 N237 1.332 . S
C242 C238 1.382 . S
C242 H244 0.948 . S
H243 C241 0.952 . S
H244 C242 0.948 . S
H245 C234 0.952 . S
H246 C236 0.948 . S
C247 C213 1.395 . S
C247 C217 1.391 . S
C248 C210 1.389 . S
C248 C230 1.392 . S
C249 C220 1.392 . S
C249 C222 1.389 . S
C250 C225 1.395 . S
C250 C227 1.391 1_545 S
H251 C211 0.951 . S
H252 C212 0.950 . S
H253 C218 0.949 . S
H254 C219 0.950 . S
H255 C223 0.951 . S
H256 C224 0.950 . S
H257 C228 0.949 . S
H258 C229 0.950 . S
H259 C233 0.950 . S
H260 C235 0.950 . S
H261 C238 0.950 . S
H262 C240 0.950 . S
C263 C264 1.443 . S
C263 N267 1.376 . S
C263 C301 1.389 . S
C264 C263 1.443 . S
C264 C265 1.340 . S
C264 H304 0.951 . S
C265 C264 1.340 . S
C265 C266 1.439 . S
C265 H305 0.950 . S
C266 C265 1.439 . S
C266 N267 1.374 . S
C266 C300 1.395 . S
N267 C263 1.376 . S
N267 C266 1.374 . S
N267 Co268 2.008 . S
Co268 N267 2.008 . S
Co268 N269 1.995 . S
Co268 N274 2.008 . S
Co268 N279 1.995 . S
Co268 N284 2.259 1_554 S
Co268 N290 2.282 . S
N269 Co268 1.995 . S
N269 C270 1.376 . S
N269 C273 1.383 1_554 S
C270 N269 1.376 . S
C270 C271 1.446 1_554 S
C270 C300 1.391 . S
C271 C270 1.446 1_556 S
C271 C272 1.339 . S
C271 H306 0.949 . S
C272 C271 1.339 . S
C272 C273 1.439 . S
C272 H307 0.950 . S
C273 N269 1.383 1_556 S
C273 C272 1.439 . S
C273 C302 1.392 . S
N274 Co268 2.008 . S
N274 C275 1.376 1_554 S
N274 C278 1.374 . S
C275 N274 1.376 1_556 S
C275 C276 1.443 . S
C275 C302 1.389 . S
C276 C275 1.443 . S
C276 C277 1.340 . S
C276 H308 0.951 . S
C277 C276 1.340 . S
C277 C278 1.439 1_556 S
C277 H309 0.950 . S
C278 N274 1.374 . S
C278 C277 1.439 1_554 S
C278 C303 1.395 . S
N279 Co268 1.995 . S
N279 C280 1.376 . S
N279 C283 1.383 . S
C280 N279 1.376 . S
C280 C281 1.446 . S
C280 C303 1.391 . S
C281 C280 1.446 . S
C281 C282 1.339 . S
C281 H310 0.949 . S
C282 C281 1.339 . S
C282 C283 1.439 . S
C282 H311 0.950 . S
C283 N279 1.383 . S
C283 C282 1.439 . S
C283 C301 1.392 . S
N284 Co268 2.259 1_556 S
N284 C287 1.343 . S
N284 C289 1.350 . S
C285 C286 1.386 . S
C285 C288 1.388 . S
C286 C285 1.386 . S
C286 C287 1.382 . S
C286 H312 0.950 . S
C287 N284 1.343 . S
C287 C286 1.382 . S
C287 H298 0.952 1_556 S
C288 C285 1.388 . S
C288 C289 1.382 . S
C288 H313 0.950 . S
C289 N284 1.350 . S
C289 C288 1.382 . S
C289 H299 0.948 . S
N290 Co268 2.282 . S
N290 C294 1.332 . S
N290 C295 1.332 . S
C291 C292 1.388 . S
C291 C295 1.382 . S
C291 H314 0.950 . S
C292 C291 1.388 . S
C292 C293 1.386 . S
C293 C292 1.386 . S
C293 C294 1.382 . S
C293 H315 0.950 . S
C294 N290 1.332 . S
C294 C293 1.382 . S
C294 H296 0.952 . S
C295 N290 1.332 . S
C295 C291 1.382 . S
C295 H297 0.948 . S
H296 C294 0.952 . S
H297 C295 0.948 . S
H298 C287 0.952 1_554 S
H299 C289 0.948 . S
C300 C266 1.395 . S
C300 C270 1.391 . S
C301 C263 1.389 . S
C301 C283 1.392 . S
C302 C273 1.392 . S
C302 C275 1.389 . S
C303 C278 1.395 . S
C303 C280 1.391 . S
H304 C264 0.951 . S
H305 C265 0.950 . S
H306 C271 0.949 . S
H307 C272 0.950 . S
H308 C276 0.951 . S
H309 C277 0.950 . S
H310 C281 0.949 . S
H311 C282 0.950 . S
H312 C286 0.950 . S
H313 C288 0.950 . S
H314 C291 0.950 . S
H315 C293 0.950 . S
C316 C317 1.443 . S
C316 N320 1.376 . S
C316 C354 1.389 . S
C317 C316 1.443 . S
C317 C318 1.340 . S
C317 H357 0.951 . S
C318 C317 1.340 . S
C318 C319 1.439 . S
C318 H358 0.950 . S
C319 C318 1.439 . S
C319 N320 1.374 . S
C319 C353 1.395 1_565 S
N320 C316 1.376 . S
N320 C319 1.374 . S
N320 Co321 2.008 1_565 S
Co321 N320 2.008 1_545 S
Co321 N322 1.995 . S
Co321 N327 2.008 . S
Co321 N332 1.995 1_545 S
Co321 N337 2.282 . S
Co321 N343 2.282 1_545 S
N322 Co321 1.995 . S
N322 C323 1.376 . S
N322 C326 1.383 . S
C323 N322 1.376 . S
C323 C324 1.446 . S
C323 C353 1.391 . S
C324 C323 1.446 . S
C324 C325 1.339 . S
C324 H359 0.949 . S
C325 C324 1.339 . S
C325 C326 1.439 . S
C325 H360 0.950 . S
C326 N322 1.383 . S
C326 C325 1.439 . S
C326 C355 1.392 . S
N327 Co321 2.008 . S
N327 C328 1.376 . S
N327 C331 1.374 . S
C328 N327 1.376 . S
C328 C329 1.443 . S
C328 C355 1.389 . S
C329 C328 1.443 . S
C329 C330 1.340 . S
C329 H361 0.951 . S
C330 C329 1.340 . S
C330 C331 1.439 . S
C330 H362 0.950 . S
C331 N327 1.374 . S
C331 C330 1.439 . S
C331 C356 1.395 1_545 S
N332 Co321 1.995 1_565 S
N332 C333 1.376 . S
N332 C336 1.383 . S
C333 N332 1.376 . S
C333 C334 1.446 . S
C333 C356 1.391 . S
C334 C333 1.446 . S
C334 C335 1.339 . S
C334 H363 0.949 . S
C335 C334 1.339 . S
C335 C336 1.439 . S
C335 H364 0.950 . S
C336 N332 1.383 . S
C336 C335 1.439 . S
C336 C354 1.392 . S
N337 Co321 2.282 . S
N337 C340 1.332 . S
N337 C342 1.332 . S
C338 C339 1.386 . S
C338 C341 1.388 . S
C339 C338 1.386 . S
C339 C340 1.382 . S
C339 H365 0.950 . S
C340 N337 1.332 . S
C340 C339 1.382 . S
C340 H351 0.952 . S
C341 C338 1.388 . S
C341 C342 1.382 . S
C341 H366 0.950 . S
C342 N337 1.332 . S
C342 C341 1.382 . S
C342 H352 0.948 . S
N343 Co321 2.282 1_565 S
N343 C347 1.332 . S
N343 C348 1.332 . S
C344 C345 1.388 . S
C344 C348 1.382 . S
C344 H367 0.950 . S
C345 C344 1.388 . S
C345 C346 1.386 . S
C346 C345 1.386 . S
C346 C347 1.382 . S
C346 H368 0.950 . S
C347 N343 1.332 . S
C347 C346 1.382 . S
C347 H349 0.952 . S
C348 N343 1.332 . S
C348 C344 1.382 . S
C348 H350 0.948 . S
H349 C347 0.952 . S
H350 C348 0.948 . S
H351 C340 0.952 . S
H352 C342 0.948 . S
C353 C319 1.395 1_545 S
C353 C323 1.391 . S
C354 C316 1.389 . S
C354 C336 1.392 . S
C355 C326 1.392 . S
C355 C328 1.389 . S
C356 C331 1.395 1_565 S
C356 C333 1.391 . S
H357 C317 0.951 . S
H358 C318 0.950 . S
H359 C324 0.949 . S
H360 C325 0.950 . S
H361 C329 0.951 . S
H362 C330 0.950 . S
H363 C334 0.949 . S
H364 C335 0.950 . S
H365 C339 0.950 . S
H366 C341 0.950 . S
H367 C344 0.950 . S
H368 C346 0.950 . S
C369 C370 1.443 . S
C369 N373 1.376 . S
C369 C407 1.389 . S
C370 C369 1.443 . S
C370 C371 1.340 . S
C370 H410 0.951 . S
C371 C370 1.340 . S
C371 C372 1.439 . S
C371 H411 0.950 . S
C372 C371 1.439 . S
C372 N373 1.374 . S
C372 C406 1.395 1_554 S
N373 C369 1.376 . S
N373 C372 1.374 . S
N373 Co374 2.019 . S
Co374 N373 2.019 . S
Co374 N375 1.986 1_554 S
Co374 N380 1.998 1_554 S
Co374 N385 2.003 . S
Co374 N390 2.268 1_554 S
Co374 N396 2.297 . S
N375 Co374 1.986 1_556 S
N375 C376 1.376 . S
N375 C379 1.383 . S
C376 N375 1.376 . S
C376 C377 1.446 . S
C376 C406 1.391 . S
C377 C376 1.446 . S
C377 C378 1.339 . S
C377 H412 0.949 . S
C378 C377 1.339 . S
C378 C379 1.439 . S
C378 H413 0.950 . S
C379 N375 1.383 . S
C379 C378 1.439 . S
C379 C408 1.392 . S
N380 Co374 1.998 1_556 S
N380 C381 1.376 . S
N380 C384 1.374 . S
C381 N380 1.376 . S
C381 C382 1.443 . S
C381 C408 1.389 . S
C382 C381 1.443 . S
C382 C383 1.340 . S
C382 H414 0.951 . S
C383 C382 1.340 . S
C383 C384 1.439 . S
C383 H415 0.950 . S
C384 N380 1.374 . S
C384 C383 1.439 . S
C384 C409 1.395 1_556 S
N385 Co374 2.003 . S
N385 C386 1.376 . S
N385 C389 1.383 . S
C386 N385 1.376 . S
C386 C387 1.446 . S
C386 C409 1.391 . S
C387 C386 1.446 . S
C387 C388 1.339 . S
C387 H416 0.949 . S
C388 C387 1.339 . S
C388 C389 1.439 . S
C388 H417 0.950 . S
C389 N385 1.383 . S
C389 C388 1.439 . S
C389 C407 1.392 . S
N390 Co374 2.268 1_556 S
N390 C393 1.332 . S
N390 C395 1.332 . S
C391 C392 1.386 . S
C391 C394 1.388 . S
C392 C391 1.386 . S
C392 C393 1.382 . S
C392 H418 0.950 . S
C393 N390 1.332 . S
C393 C392 1.382 . S
C393 H404 0.952 . S
C394 C391 1.388 . S
C394 C395 1.382 . S
C394 H419 0.950 . S
C395 N390 1.332 . S
C395 C394 1.382 . S
C395 H405 0.948 . S
N396 Co374 2.297 . S
N396 C400 1.332 . S
N396 C401 1.332 . S
C397 C398 1.388 . S
C397 C401 1.382 . S
C397 H420 0.950 . S
C398 C397 1.388 . S
C398 C399 1.386 . S
C399 C398 1.386 . S
C399 C400 1.382 . S
C399 H421 0.950 . S
C400 N396 1.332 . S
C400 C399 1.382 . S
C400 H402 0.952 . S
C401 N396 1.332 . S
C401 C397 1.382 . S
C401 H403 0.948 . S
H402 C400 0.952 . S
H403 C401 0.948 . S
H404 C393 0.952 . S
H405 C395 0.948 . S
C406 C372 1.395 1_556 S
C406 C376 1.391 . S
C407 C369 1.389 . S
C407 C389 1.392 . S
C408 C379 1.392 . S
C408 C381 1.389 . S
C409 C384 1.395 1_554 S
C409 C386 1.391 . S
H410 C370 0.951 . S
H411 C371 0.950 . S
H412 C377 0.949 . S
H413 C378 0.950 . S
H414 C382 0.951 . S
H415 C383 0.950 . S
H416 C387 0.949 . S
H417 C388 0.950 . S
H418 C392 0.950 . S
H419 C394 0.950 . S
H420 C397 0.950 . S
H421 C399 0.950 . S
H422 C428 0.930 . S
H423 C432 0.930 . S
H424 C437 0.929 . S
H425 C435 0.929 . S
H426 C430 0.929 . S
H427 C436 0.929 . S
C428 H422 0.930 . S
C428 C429 1.367 . S
C428 C436 1.378 . S
C429 C428 1.367 . S
C429 C437 1.433 . S
C430 H426 0.929 . S
C430 C432 1.378 . S
C430 C434 1.350 . S
C431 C434 1.463 . S
C431 C436 1.350 . S
C431 N439 1.427 . S
C432 H423 0.930 . S
C432 C430 1.378 . S
C432 C433 1.367 . S
C433 C432 1.367 . S
C433 C435 1.433 . S
C434 C430 1.350 . S
C434 C431 1.463 . S
C434 N438 1.427 . S
C435 H425 0.929 . S
C435 C433 1.433 . S
C435 N438 1.384 . S
C436 H427 0.929 . S
C436 C428 1.378 . S
C436 C431 1.350 . S
C437 H424 0.929 . S
C437 C429 1.433 . S
C437 N439 1.384 . S
N438 C434 1.427 . S
N438 C435 1.384 . S
N439 C431 1.427 . S
N439 C437 1.384 . S
H440 C446 0.930 . S
H441 C450 0.930 . S
H442 C455 0.929 . S
H443 C453 0.929 . S
H444 C448 0.929 . S
H445 C454 0.929 . S
C446 H440 0.930 . S
C446 C447 1.367 . S
C446 C454 1.378 . S
C447 C446 1.367 . S
C447 C455 1.433 . S
C448 H444 0.929 . S
C448 C450 1.378 . S
C448 C452 1.350 . S
C449 C452 1.463 . S
C449 C454 1.350 . S
C449 N457 1.427 . S
C450 H441 0.930 . S
C450 C448 1.378 . S
C450 C451 1.367 . S
C451 C450 1.367 . S
C451 C453 1.433 . S
C452 C448 1.350 . S
C452 C449 1.463 . S
C452 N456 1.427 . S
C453 H443 0.929 . S
C453 C451 1.433 . S
C453 N456 1.384 . S
C454 H445 0.929 . S
C454 C446 1.378 . S
C454 C449 1.350 . S
C455 H442 0.929 . S
C455 C447 1.433 . S
C455 N457 1.384 . S
N456 C452 1.427 . S
N456 C453 1.384 . S
N457 C449 1.427 . S
N457 C455 1.384 . S
H458 C464 0.930 . S
H459 C468 0.930 . S
H460 C473 0.929 . S
H461 C471 0.929 . S
H462 C466 0.929 . S
H463 C472 0.929 . S
C464 H458 0.930 . S
C464 C465 1.367 . S
C464 C472 1.378 . S
C465 C464 1.367 . S
C465 C473 1.433 . S
C466 H462 0.929 . S
C466 C468 1.378 . S
C466 C470 1.350 . S
C467 C470 1.463 . S
C467 C472 1.350 . S
C467 N475 1.427 . S
C468 H459 0.930 . S
C468 C466 1.378 . S
C468 C469 1.367 . S
C469 C468 1.367 . S
C469 C471 1.433 . S
C470 C466 1.350 . S
C470 C467 1.463 . S
C470 N474 1.427 . S
C471 H461 0.929 . S
C471 C469 1.433 . S
C471 N474 1.384 . S
C472 H463 0.929 . S
C472 C464 1.378 . S
C472 C467 1.350 . S
C473 H460 0.929 . S
C473 C465 1.433 . S
C473 N475 1.384 . S
N474 C470 1.427 . S
N474 C471 1.384 . S
N475 C467 1.427 . S
N475 C473 1.384 . S
H476 C482 0.930 . S
H477 C486 0.930 . S
H478 C491 0.929 . S
H479 C489 0.929 . S
H480 C484 0.929 . S
H481 C490 0.929 . S
C482 H476 0.930 . S
C482 C483 1.367 . S
C482 C490 1.378 . S
C483 C482 1.367 . S
C483 C491 1.433 . S
C484 H480 0.929 . S
C484 C486 1.378 . S
C484 C488 1.350 . S
C485 C488 1.463 . S
C485 C490 1.350 . S
C485 N493 1.427 . S
C486 H477 0.930 . S
C486 C484 1.378 . S
C486 C487 1.367 . S
C487 C486 1.367 . S
C487 C489 1.433 . S
C488 C484 1.350 . S
C488 C485 1.463 . S
C488 N492 1.427 . S
C489 H479 0.929 . S
C489 C487 1.433 . S
C489 N492 1.384 . S
C490 H481 0.929 . S
C490 C482 1.378 . S
C490 C485 1.350 . S
C491 H478 0.929 . S
C491 C483 1.433 . S
C491 N493 1.384 . S
N492 C488 1.427 . S
N492 C489 1.384 . S
N493 C485 1.427 . S
N493 C491 1.384 . S
H494 C500 0.930 . S
H495 C504 0.930 . S
H496 C509 0.929 . S
H497 C507 0.929 . S
H498 C502 0.929 . S
H499 C508 0.929 . S
C500 H494 0.930 . S
C500 C501 1.367 . S
C500 C508 1.378 . S
C501 C500 1.367 . S
C501 C509 1.433 . S
C502 H498 0.929 . S
C502 C504 1.378 . S
C502 C506 1.350 . S
C503 C506 1.463 . S
C503 C508 1.350 . S
C503 N511 1.427 . S
C504 H495 0.930 . S
C504 C502 1.378 . S
C504 C505 1.367 . S
C505 C504 1.367 . S
C505 C507 1.433 . S
C506 C502 1.350 . S
C506 C503 1.463 . S
C506 N510 1.427 . S
C507 H497 0.929 . S
C507 C505 1.433 . S
C507 N510 1.384 . S
C508 H499 0.929 . S
C508 C500 1.378 . S
C508 C503 1.350 . S
C509 H496 0.929 . S
C509 C501 1.433 . S
C509 N511 1.384 . S
N510 C506 1.427 . S
N510 C507 1.384 . S
N511 C503 1.427 . S
N511 C509 1.384 . S
H512 C518 0.930 . S
H513 C522 0.930 . S
H514 C527 0.929 . S
H515 C525 0.929 . S
H516 C520 0.929 . S
H517 C526 0.929 . S
C518 H512 0.930 . S
C518 C519 1.367 . S
C518 C526 1.378 . S
C519 C518 1.367 . S
C519 C527 1.433 . S
C520 H516 0.929 . S
C520 C522 1.378 . S
C520 C524 1.350 . S
C521 C524 1.463 . S
C521 C526 1.350 . S
C521 N529 1.427 . S
C522 H513 0.930 . S
C522 C520 1.378 . S
C522 C523 1.367 . S
C523 C522 1.367 . S
C523 C525 1.433 . S
C524 C520 1.350 . S
C524 C521 1.463 . S
C524 N528 1.427 . S
C525 H515 0.929 . S
C525 C523 1.433 . S
C525 N528 1.384 . S
C526 H517 0.929 . S
C526 C518 1.378 . S
C526 C521 1.350 . S
C527 H514 0.929 . S
C527 C519 1.433 . S
C527 N529 1.384 . S
N528 C524 1.427 . S
N528 C525 1.384 . S
N529 C521 1.427 . S
N529 C527 1.384 . S
H530 C536 0.930 . S
H531 C540 0.930 . S
H532 C545 0.929 . S
H533 C543 0.929 . S
H534 C538 0.929 . S
H535 C544 0.929 . S
C536 H530 0.930 . S
C536 C537 1.367 . S
C536 C544 1.378 . S
C537 C536 1.367 . S
C537 C545 1.433 . S
C538 H534 0.929 . S
C538 C540 1.378 . S
C538 C542 1.350 . S
C539 C542 1.463 . S
C539 C544 1.350 . S
C539 N547 1.427 . S
C540 H531 0.930 . S
C540 C538 1.378 . S
C540 C541 1.367 . S
C541 C540 1.367 . S
C541 C543 1.433 . S
C542 C538 1.350 . S
C542 C539 1.463 . S
C542 N546 1.427 . S
C543 H533 0.929 . S
C543 C541 1.433 . S
C543 N546 1.384 . S
C544 H535 0.929 . S
C544 C536 1.378 . S
C544 C539 1.350 . S
C545 H532 0.929 . S
C545 C537 1.433 . S
C545 N547 1.384 . S
N546 C542 1.427 . S
N546 C543 1.384 . S
N547 C539 1.427 . S
N547 C545 1.384 . S
H548 C554 0.930 . S
H549 C558 0.930 . S
H550 C563 0.929 . S
H551 C561 0.929 . S
H552 C556 0.929 . S
H553 C562 0.929 . S
C554 H548 0.930 . S
C554 C555 1.367 . S
C554 C562 1.378 . S
C555 C554 1.367 . S
C555 C563 1.433 . S
C556 H552 0.929 . S
C556 C558 1.378 . S
C556 C560 1.350 . S
C557 C560 1.463 . S
C557 C562 1.350 . S
C557 N565 1.427 . S
C558 H549 0.930 . S
C558 C556 1.378 . S
C558 C559 1.367 . S
C559 C558 1.367 . S
C559 C561 1.433 . S
C560 C556 1.350 . S
C560 C557 1.463 . S
C560 N564 1.427 . S
C561 H551 0.929 . S
C561 C559 1.433 . S
C561 N564 1.384 . S
C562 H553 0.929 . S
C562 C554 1.378 . S
C562 C557 1.350 . S
C563 H550 0.929 . S
C563 C555 1.433 . S
C563 N565 1.384 . S
N564 C560 1.427 . S
N564 C561 1.384 . S
N565 C557 1.427 . S
N565 C563 1.384 . S
H566 C572 0.930 . S
H567 C576 0.930 . S
H568 C581 0.929 . S
H569 C579 0.929 . S
H570 C574 0.929 . S
H571 C580 0.929 . S
C572 H566 0.930 . S
C572 C573 1.367 . S
C572 C580 1.378 . S
C573 C572 1.367 . S
C573 C581 1.433 . S
C574 H570 0.929 . S
C574 C576 1.378 . S
C574 C578 1.350 . S
C575 C578 1.463 . S
C575 C580 1.350 . S
C575 N583 1.427 . S
C576 H567 0.930 . S
C576 C574 1.378 . S
C576 C577 1.367 . S
C577 C576 1.367 . S
C577 C579 1.433 . S
C578 C574 1.350 . S
C578 C575 1.463 . S
C578 N582 1.427 . S
C579 H569 0.929 . S
C579 C577 1.433 . S
C579 N582 1.384 . S
C580 H571 0.929 . S
C580 C572 1.378 . S
C580 C575 1.350 . S
C581 H568 0.929 . S
C581 C573 1.433 . S
C581 N583 1.384 . S
N582 C578 1.427 . S
N582 C579 1.384 . S
N583 C575 1.427 . S
N583 C581 1.384 . S
H584 C590 0.930 . S
H585 C594 0.930 . S
H586 C599 0.929 . S
H587 C597 0.929 . S
H588 C592 0.929 . S
H589 C598 0.929 . S
C590 H584 0.930 . S
C590 C591 1.367 . S
C590 C598 1.378 . S
C591 C590 1.367 . S
C591 C599 1.433 . S
C592 H588 0.929 . S
C592 C594 1.378 . S
C592 C596 1.350 . S
C593 C596 1.463 . S
C593 C598 1.350 . S
C593 N601 1.427 . S
C594 H585 0.930 . S
C594 C592 1.378 . S
C594 C595 1.367 . S
C595 C594 1.367 . S
C595 C597 1.433 . S
C596 C592 1.350 . S
C596 C593 1.463 . S
C596 N600 1.427 . S
C597 H587 0.929 . S
C597 C595 1.433 . S
C597 N600 1.384 . S
C598 H589 0.929 . S
C598 C590 1.378 . S
C598 C593 1.350 . S
C599 H586 0.929 . S
C599 C591 1.433 . S
C599 N601 1.384 . S
N600 C596 1.427 . S
N600 C597 1.384 . S
N601 C593 1.427 . S
N601 C599 1.384 . S
H602 C608 0.930 . S
H603 C612 0.930 . S
H604 C617 0.929 . S
H605 C615 0.929 . S
H606 C610 0.929 . S
H607 C616 0.929 . S
C608 H602 0.930 . S
C608 C609 1.367 . S
C608 C616 1.378 . S
C609 C608 1.367 . S
C609 C617 1.433 . S
C610 H606 0.929 . S
C610 C612 1.378 . S
C610 C614 1.350 . S
C611 C614 1.463 . S
C611 C616 1.350 . S
C611 N619 1.427 . S
C612 H603 0.930 . S
C612 C610 1.378 . S
C612 C613 1.367 . S
C613 C612 1.367 . S
C613 C615 1.433 . S
C614 C610 1.350 . S
C614 C611 1.463 . S
C614 N618 1.427 . S
C615 H605 0.929 . S
C615 C613 1.433 . S
C615 N618 1.384 . S
C616 H607 0.929 . S
C616 C608 1.378 . S
C616 C611 1.350 . S
C617 H604 0.929 . S
C617 C609 1.433 . S
C617 N619 1.384 . S
N618 C614 1.427 . S
N618 C615 1.384 . S
N619 C611 1.427 . S
N619 C617 1.384 . S
H620 C626 0.930 . S
H621 C630 0.930 . S
H622 C635 0.929 . S
H623 C633 0.929 . S
H624 C628 0.929 . S
H625 C634 0.929 . S
C626 H620 0.930 . S
C626 C627 1.367 . S
C626 C634 1.378 . S
C627 C626 1.367 . S
C627 C635 1.433 . S
C628 H624 0.929 . S
C628 C630 1.378 . S
C628 C632 1.350 . S
C629 C632 1.463 . S
C629 C634 1.350 . S
C629 N637 1.427 . S
C630 H621 0.930 . S
C630 C628 1.378 . S
C630 C631 1.367 . S
C631 C630 1.367 . S
C631 C633 1.433 . S
C632 C628 1.350 . S
C632 C629 1.463 . S
C632 N636 1.427 . S
C633 H623 0.929 . S
C633 C631 1.433 . S
C633 N636 1.384 . S
C634 H625 0.929 . S
C634 C626 1.378 . S
C634 C629 1.350 . S
C635 H622 0.929 . S
C635 C627 1.433 . S
C635 N637 1.384 . S
N636 C632 1.427 . S
N636 C633 1.384 . S
N637 C629 1.427 . S
N637 C635 1.384 . S
H638 C644 0.930 . S
H639 C648 0.930 . S
H640 C653 0.929 . S
H641 C651 0.929 . S
H642 C646 0.929 . S
H643 C652 0.929 . S
C644 H638 0.930 . S
C644 C645 1.367 . S
C644 C652 1.378 . S
C645 C644 1.367 . S
C645 C653 1.433 . S
C646 H642 0.929 . S
C646 C648 1.378 . S
C646 C650 1.350 . S
C647 C650 1.463 . S
C647 C652 1.350 . S
C647 N655 1.427 . S
C648 H639 0.930 . S
C648 C646 1.378 . S
C648 C649 1.367 . S
C649 C648 1.367 . S
C649 C651 1.433 . S
C650 C646 1.350 . S
C650 C647 1.463 . S
C650 N654 1.427 . S
C651 H641 0.929 . S
C651 C649 1.433 . S
C651 N654 1.384 . S
C652 H643 0.929 . S
C652 C644 1.378 . S
C652 C647 1.350 . S
C653 H640 0.929 . S
C653 C645 1.433 . S
C653 N655 1.384 . S
N654 C650 1.427 . S
N654 C651 1.384 . S
N655 C647 1.427 . S
N655 C653 1.384 . S
H656 C662 0.930 . S
H657 C666 0.930 . S
H658 C671 0.929 . S
H659 C669 0.929 . S
H660 C664 0.929 . S
H661 C670 0.929 . S
C662 H656 0.930 . S
C662 C663 1.367 . S
C662 C670 1.378 . S
C663 C662 1.367 . S
C663 C671 1.433 . S
C664 H660 0.929 . S
C664 C666 1.378 . S
C664 C668 1.350 . S
C665 C668 1.463 . S
C665 C670 1.350 . S
C665 N673 1.427 . S
C666 H657 0.930 . S
C666 C664 1.378 . S
C666 C667 1.367 . S
C667 C666 1.367 . S
C667 C669 1.433 . S
C668 C664 1.350 . S
C668 C665 1.463 . S
C668 N672 1.427 . S
C669 H659 0.929 . S
C669 C667 1.433 . S
C669 N672 1.384 . S
C670 H661 0.929 . S
C670 C662 1.378 . S
C670 C665 1.350 . S
C671 H658 0.929 . S
C671 C663 1.433 . S
C671 N673 1.384 . S
N672 C668 1.427 . S
N672 C669 1.384 . S
N673 C665 1.427 . S
N673 C671 1.384 . S
H674 C680 0.930 . S
H675 C684 0.930 . S
H676 C689 0.929 . S
H677 C687 0.929 . S
H678 C682 0.929 . S
H679 C688 0.929 . S
C680 H674 0.930 . S
C680 C681 1.367 . S
C680 C688 1.378 . S
C681 C680 1.367 . S
C681 C689 1.433 . S
C682 H678 0.929 . S
C682 C684 1.378 . S
C682 C686 1.350 . S
C683 C686 1.463 . S
C683 C688 1.350 . S
C683 N691 1.427 . S
C684 H675 0.930 . S
C684 C682 1.378 . S
C684 C685 1.367 . S
C685 C684 1.367 . S
C685 C687 1.433 . S
C686 C682 1.350 . S
C686 C683 1.463 . S
C686 N690 1.427 . S
C687 H677 0.929 . S
C687 C685 1.433 . S
C687 N690 1.384 . S
C688 H679 0.929 . S
C688 C680 1.378 . S
C688 C683 1.350 . S
C689 H676 0.929 . S
C689 C681 1.433 . S
C689 N691 1.384 . S
N690 C686 1.427 . S
N690 C687 1.384 . S
N691 C683 1.427 . S
N691 C689 1.384 . S
H692 C698 0.930 . S
H693 C702 0.930 . S
H694 C707 0.929 . S
H695 C705 0.929 . S
H696 C700 0.929 . S
H697 C706 0.929 . S
C698 H692 0.930 . S
C698 C699 1.367 . S
C698 C706 1.378 . S
C699 C698 1.367 . S
C699 C707 1.433 . S
C700 H696 0.929 . S
C700 C702 1.378 . S
C700 C704 1.350 . S
C701 C704 1.463 . S
C701 C706 1.350 . S
C701 N709 1.427 . S
C702 H693 0.930 . S
C702 C700 1.378 . S
C702 C703 1.367 . S
C703 C702 1.367 . S
C703 C705 1.433 . S
C704 C700 1.350 . S
C704 C701 1.463 . S
C704 N708 1.427 . S
C705 H695 0.929 . S
C705 C703 1.433 . S
C705 N708 1.384 . S
C706 H697 0.929 . S
C706 C698 1.378 . S
C706 C701 1.350 . S
C707 H694 0.929 . S
C707 C699 1.433 . S
C707 N709 1.384 . S
N708 C704 1.427 . S
N708 C705 1.384 . S
N709 C701 1.427 . S
N709 C707 1.384 . S
H710 C716 0.930 . S
H711 C720 0.930 . S
H712 C725 0.929 . S
H713 C723 0.929 . S
H714 C718 0.929 . S
H715 C724 0.929 . S
C716 H710 0.930 . S
C716 C717 1.367 . S
C716 C724 1.378 . S
C717 C716 1.367 . S
C717 C725 1.433 . S
C718 H714 0.929 . S
C718 C720 1.378 . S
C718 C722 1.350 . S
C719 C722 1.463 . S
C719 C724 1.350 . S
C719 N727 1.427 . S
C720 H711 0.930 . S
C720 C718 1.378 . S
C720 C721 1.367 . S
C721 C720 1.367 . S
C721 C723 1.433 . S
C722 C718 1.350 . S
C722 C719 1.463 . S
C722 N726 1.427 . S
C723 H713 0.929 . S
C723 C721 1.433 . S
C723 N726 1.384 . S
C724 H715 0.929 . S
C724 C716 1.378 . S
C724 C719 1.350 . S
C725 H712 0.929 . S
C725 C717 1.433 . S
C725 N727 1.384 . S
N726 C722 1.427 . S
N726 C723 1.384 . S
N727 C719 1.427 . S
N727 C725 1.384 . S
H728 C734 0.930 . S
H729 C738 0.930 . S
H730 C743 0.929 . S
H731 C741 0.929 . S
H732 C736 0.929 . S
H733 C742 0.929 . S
C734 H728 0.930 . S
C734 C735 1.367 . S
C734 C742 1.378 . S
C735 C734 1.367 . S
C735 C743 1.433 . S
C736 H732 0.929 . S
C736 C738 1.378 . S
C736 C740 1.350 . S
C737 C740 1.463 . S
C737 C742 1.350 . S
C737 N745 1.427 . S
C738 H729 0.930 . S
C738 C736 1.378 . S
C738 C739 1.367 . S
C739 C738 1.367 . S
C739 C741 1.433 . S
C740 C736 1.350 . S
C740 C737 1.463 . S
C740 N744 1.427 . S
C741 H731 0.929 . S
C741 C739 1.433 . S
C741 N744 1.384 . S
C742 H733 0.929 . S
C742 C734 1.378 . S
C742 C737 1.350 . S
C743 H730 0.929 . S
C743 C735 1.433 . S
C743 N745 1.384 . S
N744 C740 1.427 . S
N744 C741 1.384 . S
N745 C737 1.427 . S
N745 C743 1.384 . S
H746 C752 0.930 . S
H747 C756 0.930 . S
H748 C761 0.929 . S
H749 C759 0.929 . S
H750 C754 0.929 . S
H751 C760 0.929 . S
C752 H746 0.930 . S
C752 C753 1.367 . S
C752 C760 1.378 . S
C753 C752 1.367 . S
C753 C761 1.433 . S
C754 H750 0.929 . S
C754 C756 1.378 . S
C754 C758 1.350 . S
C755 C758 1.463 . S
C755 C760 1.350 . S
C755 N763 1.427 . S
C756 H747 0.930 . S
C756 C754 1.378 . S
C756 C757 1.367 . S
C757 C756 1.367 . S
C757 C759 1.433 . S
C758 C754 1.350 . S
C758 C755 1.463 . S
C758 N762 1.427 . S
C759 H749 0.929 . S
C759 C757 1.433 . S
C759 N762 1.384 . S
C760 H751 0.929 . S
C760 C752 1.378 . S
C760 C755 1.350 . S
C761 H748 0.929 . S
C761 C753 1.433 . S
C761 N763 1.384 . S
N762 C758 1.427 . S
N762 C759 1.384 . S
N763 C755 1.427 . S
N763 C761 1.384 . S
H764 C770 0.930 . S
H765 C774 0.930 . S
H766 C779 0.929 . S
H767 C777 0.929 . S
H768 C772 0.929 . S
H769 C778 0.929 . S
C770 H764 0.930 . S
C770 C771 1.367 . S
C770 C778 1.378 . S
C771 C770 1.367 . S
C771 C779 1.433 . S
C772 H768 0.929 . S
C772 C774 1.378 . S
C772 C776 1.350 . S
C773 C776 1.463 . S
C773 C778 1.350 . S
C773 N781 1.427 . S
C774 H765 0.930 . S
C774 C772 1.378 . S
C774 C775 1.367 . S
C775 C774 1.367 . S
C775 C777 1.433 . S
C776 C772 1.350 . S
C776 C773 1.463 . S
C776 N780 1.427 . S
C777 H767 0.929 . S
C777 C775 1.433 . S
C777 N780 1.384 . S
C778 H769 0.929 . S
C778 C770 1.378 . S
C778 C773 1.350 . S
C779 H766 0.929 . S
C779 C771 1.433 . S
C779 N781 1.384 . S
N780 C776 1.427 . S
N780 C777 1.384 . S
N781 C773 1.427 . S
N781 C779 1.384 . S
H782 C788 0.930 . S
H783 C792 0.930 . S
H784 C797 0.929 . S
H785 C795 0.929 . S
H786 C790 0.929 . S
H787 C796 0.929 . S
C788 H782 0.930 . S
C788 C789 1.367 . S
C788 C796 1.378 . S
C789 C788 1.367 . S
C789 C797 1.433 . S
C790 H786 0.929 . S
C790 C792 1.378 . S
C790 C794 1.350 . S
C791 C794 1.463 . S
C791 C796 1.350 . S
C791 N799 1.427 . S
C792 H783 0.930 . S
C792 C790 1.378 . S
C792 C793 1.367 . S
C793 C792 1.367 . S
C793 C795 1.433 . S
C794 C790 1.350 . S
C794 C791 1.463 . S
C794 N798 1.427 . S
C795 H785 0.929 . S
C795 C793 1.433 . S
C795 N798 1.384 . S
C796 H787 0.929 . S
C796 C788 1.378 . S
C796 C791 1.350 . S
C797 H784 0.929 . S
C797 C789 1.433 . S
C797 N799 1.384 . S
N798 C794 1.427 . S
N798 C795 1.384 . S
N799 C791 1.427 . S
N799 C797 1.384 . S
H800 C806 0.930 . S
H801 C810 0.930 . S
H802 C815 0.929 . S
H803 C813 0.929 . S
H804 C808 0.929 . S
H805 C814 0.929 . S
C806 H800 0.930 . S
C806 C807 1.367 . S
C806 C814 1.378 . S
C807 C806 1.367 . S
C807 C815 1.433 . S
C808 H804 0.929 . S
C808 C810 1.378 . S
C808 C812 1.350 . S
C809 C812 1.463 . S
C809 C814 1.350 . S
C809 N817 1.427 . S
C810 H801 0.930 . S
C810 C808 1.378 . S
C810 C811 1.367 . S
C811 C810 1.367 . S
C811 C813 1.433 . S
C812 C808 1.350 . S
C812 C809 1.463 . S
C812 N816 1.427 . S
C813 H803 0.929 . S
C813 C811 1.433 . S
C813 N816 1.384 . S
C814 H805 0.929 . S
C814 C806 1.378 . S
C814 C809 1.350 . S
C815 H802 0.929 . S
C815 C807 1.433 . S
C815 N817 1.384 . S
N816 C812 1.427 . S
N816 C813 1.384 . S
N817 C809 1.427 . S
N817 C815 1.384 . S
H818 C824 0.930 . S
H819 C828 0.930 . S
H820 C833 0.929 . S
H821 C831 0.929 . S
H822 C826 0.929 . S
H823 C832 0.929 . S
C824 H818 0.930 . S
C824 C825 1.367 . S
C824 C832 1.378 . S
C825 C824 1.367 . S
C825 C833 1.433 . S
C826 H822 0.929 . S
C826 C828 1.378 . S
C826 C830 1.350 . S
C827 C830 1.463 . S
C827 C832 1.350 . S
C827 N835 1.427 . S
C828 H819 0.930 . S
C828 C826 1.378 . S
C828 C829 1.367 . S
C829 C828 1.367 . S
C829 C831 1.433 . S
C830 C826 1.350 . S
C830 C827 1.463 . S
C830 N834 1.427 . S
C831 H821 0.929 . S
C831 C829 1.433 . S
C831 N834 1.384 . S
C832 H823 0.929 . S
C832 C824 1.378 . S
C832 C827 1.350 . S
C833 H820 0.929 . S
C833 C825 1.433 . S
C833 N835 1.384 . S
N834 C830 1.427 . S
N834 C831 1.384 . S
N835 C827 1.427 . S
N835 C833 1.384 . S
H836 C842 0.930 . S
H837 C846 0.930 . S
H838 C851 0.929 . S
H839 C849 0.929 . S
H840 C844 0.929 . S
H841 C850 0.929 . S
C842 H836 0.930 . S
C842 C843 1.367 . S
C842 C850 1.378 . S
C843 C842 1.367 . S
C843 C851 1.433 . S
C844 H840 0.929 . S
C844 C846 1.378 . S
C844 C848 1.350 . S
C845 C848 1.463 . S
C845 C850 1.350 . S
C845 N853 1.427 . S
C846 H837 0.930 . S
C846 C844 1.378 . S
C846 C847 1.367 . S
C847 C846 1.367 . S
C847 C849 1.433 . S
C848 C844 1.350 . S
C848 C845 1.463 . S
C848 N852 1.427 . S
C849 H839 0.929 . S
C849 C847 1.433 . S
C849 N852 1.384 . S
C850 H841 0.929 . S
C850 C842 1.378 . S
C850 C845 1.350 . S
C851 H838 0.929 . S
C851 C843 1.433 . S
C851 N853 1.384 . S
N852 C848 1.427 . S
N852 C849 1.384 . S
N853 C845 1.427 . S
N853 C851 1.384 . S
C433 C126 1.841 . S
C429 C8 1.871 . S
C451 C195 1.708 . S
C447 C22 1.700 . S
C469 C133 1.729 . S
C465 C30 1.785 . S
C487 C196 1.353 . S
C483 C47 1.370 . S
C505 C249 1.816 . S
C501 C9 1.835 . S
C523 C285 1.741 . S
C519 C17 1.704 . S
C537 C34 1.608 . S
C541 C345 1.597 . S
C559 C408 1.497 . S
C555 C48 1.484 . S
C577 C248 1.881 . S
C573 C21 1.925 . S
C591 C35 1.829 . S
C595 C292 1.841 . S
C613 C338 1.326 . S
C609 C43 1.277 . S
C631 C407 1.576 . S
C627 C4 1.520 . S
C645 C56 1.515 . S
C649 C186 1.531 . S
C667 C143 1.746 . S
C663 C73 1.783 . S
C681 C87 1.736 . S
C685 C179 1.728 . S
C699 C100 1.990 . S
C703 C142 1.959 . S
C721 C354 1.638 . S
C717 C60 1.661 . S
C739 C398 1.406 . S
C735 C69 1.369 . S
C757 C232 1.897 . S
C753 C86 1.934 . S
C771 C95 1.481 . S
C775 C301 1.556 . S
C793 C355 1.634 . S
C789 C74 1.650 . S
C811 C391 1.403 . S
C807 C82 1.354 . S
C829 C239 1.985 . S
C825 C99 2.010 . S
C843 C61 1.667 . S
C847 C302 1.682 . S
