# Generated by pormake.
# Topology anh, (6,3)-cn, num edge types: 1
# Building blocks:
#     Node 0, Type 0, BuildingBlock: BETDIP_clean_sbu_0, # of connection points: 6
#     Node 1, Type 0, BuildingBlock: BETDIP_clean_sbu_0, # of connection points: 6
#     Node 2, Type 0, BuildingBlock: BETDIP_clean_sbu_0, # of connection points: 6
#     Node 3, Type 1, BuildingBlock: BELTOD_clean_linker_0, # of connection points: 3
#     Node 4, Type 1, BuildingBlock: BELTOD_clean_linker_0, # of connection points: 3
#     Node 5, Type 1, BuildingBlock: BELTOD_clean_linker_0, # of connection points: 3
#     Node 6, Type 1, BuildingBlock: BELTOD_clean_linker_0, # of connection points: 3
#     Node 7, Type 1, BuildingBlock: BELTOD_clean_linker_0, # of connection points: 3
#     Node 8, Type 1, BuildingBlock: BELTOD_clean_linker_0, # of connection points: 3
#     Edge 9, Type (0, 1), BuildingBlock: TEMPAE_clean_linker_10, # of connection points: 2
#     Edge 10, Type (0, 1), BuildingBlock: TEMPAE_clean_linker_10, # of connection points: 2
#     Edge 11, Type (0, 1), BuildingBlock: TEMPAE_clean_linker_10, # of connection points: 2
#     Edge 12, Type (0, 1), BuildingBlock: TEMPAE_clean_linker_10, # of connection points: 2
#     Edge 13, Type (0, 1), BuildingBlock: TEMPAE_clean_linker_10, # of connection points: 2
#     Edge 14, Type (0, 1), BuildingBlock: TEMPAE_clean_linker_10, # of connection points: 2
#     Edge 15, Type (0, 1), BuildingBlock: TEMPAE_clean_linker_10, # of connection points: 2
#     Edge 16, Type (0, 1), BuildingBlock: TEMPAE_clean_linker_10, # of connection points: 2
#     Edge 17, Type (0, 1), BuildingBlock: TEMPAE_clean_linker_10, # of connection points: 2
#     Edge 18, Type (0, 1), BuildingBlock: TEMPAE_clean_linker_10, # of connection points: 2
#     Edge 19, Type (0, 1), BuildingBlock: TEMPAE_clean_linker_10, # of connection points: 2
#     Edge 20, Type (0, 1), BuildingBlock: TEMPAE_clean_linker_10, # of connection points: 2
#     Edge 21, Type (0, 1), BuildingBlock: TEMPAE_clean_linker_10, # of connection points: 2
#     Edge 22, Type (0, 1), BuildingBlock: TEMPAE_clean_linker_10, # of connection points: 2
#     Edge 23, Type (0, 1), BuildingBlock: TEMPAE_clean_linker_10, # of connection points: 2
#     Edge 24, Type (0, 1), BuildingBlock: TEMPAE_clean_linker_10, # of connection points: 2
#     Edge 25, Type (0, 1), BuildingBlock: TEMPAE_clean_linker_10, # of connection points: 2
#     Edge 26, Type (0, 1), BuildingBlock: TEMPAE_clean_linker_10, # of connection points: 2
# Relax obj value: 0.248
# Max RMSD: 0.179
# Mean RMSD: 0.148
data_MOF--net-anh--node1-BETDIP_clean_sbu_0--node2-BELTOD_clean_linker_0--edge1-TEMPAE_clean_linker_10
_symmetry_space_group_name_H-M    P1
_symmetry_Int_Tables_number       1
_symmetry_cell_setting            triclinic
loop_
_symmetry_equiv_pos_as_xyz
'x, y, z'
_cell_length_a     35.349711
_cell_length_b     35.300934
_cell_length_c     62.154527
_cell_angle_alpha  90.271893
_cell_angle_beta   89.132339
_cell_angle_gamma 119.51114
loop_
_atom_site_label
_atom_site_type_symbol
_atom_site_fract_x
_atom_site_fract_y
_atom_site_fract_z
_atom_type_partial_charge
Tb0 Tb 0.10717 0.61156 0.17367 0.0
Tb1 Tb 1.06769 0.52406 0.15589 0.0
C2 C 0.15298 0.67442 0.1974 0.0
C3 C 0.20091 0.69998 0.19831 0.0
C4 C 0.22437 0.68565 0.21079 0.0
C5 C 0.26969 0.70657 0.20932 0.0
C6 C 0.29227 0.74204 0.19531 0.0
C7 C 0.269 0.75707 0.18328 0.0
C8 C 0.22383 0.73645 0.18486 0.0
C9 C 0.10214 0.60999 0.13206 0.0
C10 C 0.16932 0.56842 0.16009 0.0
C11 C 1.02282 0.45778 0.13348 0.0
C12 C 0.97931 0.44082 0.12435 0.0
C13 C 0.96805 0.41632 0.10535 0.0
C14 C 0.92581 0.39858 0.09738 0.0
C15 C 0.89485 0.40621 0.10808 0.0
C16 C 0.90726 0.43301 0.12632 0.0
C17 C 0.94872 0.44939 0.1346 0.0
C18 C 1.07232 0.52847 0.19861 0.0
C19 C 1.00916 0.57197 0.16118 0.0
O20 O 0.13525 0.63382 0.20384 0.0
O21 O 0.13573 0.67838 0.17963 0.0
O22 O 0.11184 0.5865 0.1433 0.0
O23 O 0.09847 0.63829 0.14396 0.0
O24 O 0.16553 0.60102 0.16921 0.0
O25 O 0.13408 0.53421 0.15256 0.0
O26 O 1.05269 0.49483 0.1254 0.0
O27 O 1.02435 0.45697 0.15449 0.0
O28 O 1.06182 0.54997 0.18633 0.0
O29 O 0.07941 0.50194 0.18697 0.0
O30 O 1.01654 0.54298 0.15096 0.0
O31 O 1.03939 0.60028 0.17433 0.0
H32 H 0.20771 0.65767 0.22134 0.0
H33 H 0.28707 0.69473 0.21891 0.0
H34 H 0.28581 0.78515 0.17281 0.0
H35 H 0.20684 0.74853 0.17514 0.0
H36 H 0.99134 0.40956 0.09716 0.0
H37 H 0.91666 0.3772 0.08357 0.0
H38 H 0.88379 0.43839 0.13529 0.0
H39 H 0.95609 0.46727 0.14954 0.0
Tb40 Tb 0.59133 1.02679 0.50239 0.0
Tb41 Tb 0.54468 0.07216 0.48797 0.0
C42 C 0.61354 0.98402 0.52606 0.0
C43 C 0.60462 0.9392 0.52851 0.0
C44 C 0.61539 0.92704 0.54785 0.0
C45 C 0.61422 0.88714 0.5495 0.0
C46 C 0.60233 0.85882 0.53177 0.0
C47 C 0.5887 0.86992 0.51284 0.0
C48 C 0.58973 0.90991 0.51124 0.0
C49 C 0.59395 1.03679 0.46097 0.0
C50 C 0.4879 0.96831 0.4895 0.0
C51 C 0.52347 0.12097 0.46857 0.0
C52 C 0.54194 0.1687 0.46876 0.0
C53 C 0.56116 0.19311 0.44997 0.0
C54 C 0.58414 0.23867 0.45068 0.0
C55 C 0.58794 0.26052 0.47018 0.0
C56 C 0.56712 0.23592 0.48873 0.0
C57 C 0.54443 0.19062 0.48804 0.0
C58 C 0.54833 0.06516 0.53047 0.0
C59 C 0.65024 0.12856 0.49269 0.0
O60 O 0.58174 0.9916 0.53101 0.0
O61 O 0.63438 1.00385 0.50839 0.0
O62 O 0.56193 1.02855 0.47315 0.0
O63 O 0.62353 1.03348 0.47156 0.0
O64 O 0.52311 0.96986 0.4983 0.0
O65 O 0.49026 1.00511 0.48257 0.0
O66 O 0.54873 0.10737 0.46011 0.0
O67 O 0.50434 0.10001 0.48634 0.0
O68 O 0.57794 0.07333 0.51678 0.0
O69 O 0.51562 0.06355 0.52054 0.0
O70 O 0.61371 0.12626 0.48567 0.0
O71 O 0.64847 0.09397 0.50229 0.0
H72 H 0.6269 0.94937 0.56131 0.0
H73 H 0.62548 0.87986 0.5642 0.0
H74 H 0.57903 0.84854 0.49902 0.0
H75 H 0.58095 0.91882 0.49622 0.0
H76 H 0.55977 0.17691 0.43491 0.0
H77 H 0.59974 0.25672 0.43612 0.0
H78 H 0.57017 0.25157 0.50413 0.0
H79 H 0.53038 0.1729 0.50287 0.0
Tb80 Tb 0.52734 0.51871 0.82935 0.0
Tb81 Tb 0.62627 0.56994 0.82026 0.0
C82 C 0.45204 0.49375 0.84359 0.0
C83 C 0.42545 0.51512 0.84363 0.0
C84 C 0.44434 0.55979 0.84798 0.0
C85 C 0.42128 0.58159 0.84424 0.0
C86 C 0.37906 0.55916 0.8361 0.0
C87 C 0.35931 0.51412 0.8327 0.0
C88 C 0.38254 0.49225 0.83633 0.0
C89 C 0.55231 0.52353 0.78918 0.0
C90 C 0.57754 0.62581 0.82115 0.0
C91 C 0.69423 0.58903 0.79953 0.0
C92 C 0.71678 0.56341 0.79914 0.0
C93 C 0.7288 0.55234 0.77948 0.0
C94 C 0.74515 0.52344 0.77888 0.0
C95 C 0.74968 0.50496 0.79799 0.0
C96 C 0.73573 0.51482 0.81753 0.0
C97 C 0.71943 0.54353 0.81808 0.0
C98 C 0.61077 0.55608 0.86278 0.0
C99 C 0.57595 0.46393 0.82498 0.0
O100 O 0.4865 0.51093 0.85578 0.0
O101 O 0.46028 0.48416 0.82438 0.0
O102 O 0.56848 0.55291 0.80318 0.0
O103 O 0.51981 0.48902 0.79747 0.0
O104 O 0.54079 0.58825 0.82564 0.0
O105 O 0.6153 0.6263 0.81822 0.0
O106 O 0.65571 0.56847 0.79113 0.0
O107 O 0.69435 0.60828 0.81774 0.0
O108 O 0.58421 0.54417 0.84753 0.0
O109 O 0.64905 0.57725 0.85386 0.0
O110 O 0.60995 0.50055 0.81777 0.0
O111 O 0.54137 0.46448 0.83354 0.0
H112 H 0.47736 0.57822 0.85366 0.0
H113 H 0.43647 0.61607 0.84765 0.0
H114 H 0.3265 0.49621 0.82667 0.0
H115 H 0.36759 0.45783 0.83272 0.0
H116 H 0.725 0.56547 0.76455 0.0
H117 H 0.75493 0.51619 0.76351 0.0
H118 H 0.73907 0.50197 0.83272 0.0
H119 H 0.70868 0.54995 0.8334 0.0
P120 P 0.69406 0.11726 0.23339 0.0
H121 H 0.69123 0.05791 0.1994 0.0
H122 H 0.63132 0.98969 0.18536 0.0
H123 H 0.54346 0.9986 0.23153 0.0
H124 H 0.60256 0.06603 0.24523 0.0
H125 H 0.7636 0.20307 0.22167 0.0
H126 H 0.7665 0.26022 0.19908 0.0
H127 H 0.62687 0.18701 0.19192 0.0
H128 H 0.62456 0.12906 0.2143 0.0
H129 H 0.71126 0.07698 0.26945 0.0
H130 H 0.65432 0.15893 0.25935 0.0
O131 O 0.74168 0.11899 0.22937 0.0
H132 H 0.6883 0.06794 0.30718 0.0
H133 H 0.63062 0.14948 0.29713 0.0
C134 C 0.65136 0.06656 0.22355 0.0
C135 C 0.65907 1.04486 0.20654 0.0
C136 C 0.625 1.00606 0.19855 0.0
C137 C 0.58287 0.98923 0.20729 0.0
C138 C 0.57553 1.0112 0.22432 0.0
C139 C 0.60942 0.04956 0.23231 0.0
C140 C 0.69417 0.16143 0.21916 0.0
C141 C 0.73355 0.19948 0.21545 0.0
C142 C 0.73495 0.23247 0.20272 0.0
C143 C 0.69676 0.22836 0.19366 0.0
C144 C 0.65685 0.19103 0.19844 0.0
C145 C 0.65556 0.15786 0.21121 0.0
C146 C 0.68513 0.11915 0.26175 0.0
C147 C 0.69463 0.0938 0.27549 0.0
C148 C 0.68099 0.0882 0.29695 0.0
C149 C 0.65717 0.10756 0.30498 0.0
C150 C 0.64909 0.13437 0.29137 0.0
C151 C 0.66277 0.13991 0.26982 0.0
P152 P 0.82409 0.63038 0.59686 0.0
H153 H 0.86831 0.62198 0.55872 0.0
H154 H 0.84379 0.56658 0.53027 0.0
H155 H 0.72675 0.48627 0.56704 0.0
H156 H 0.74981 0.54209 0.59461 0.0
H157 H 0.85307 0.70914 0.57036 0.0
H158 H 0.81273 0.74062 0.55319 0.0
H159 H 0.69249 0.63577 0.57899 0.0
H160 H 0.73271 0.60449 0.59574 0.0
H161 H 0.79691 0.55238 0.62451 0.0
H162 H 0.80625 0.67864 0.62945 0.0
O163 O 0.87749 0.66485 0.59734 0.0
H164 H 0.75385 0.52979 0.65806 0.0
H165 H 0.76468 0.65679 0.66315 0.0
C166 C 0.81199 0.58526 0.57938 0.0
C167 C 0.83806 0.5918 0.56098 0.0
C168 C 0.82397 0.56049 0.54467 0.0
C169 C 0.78385 0.52214 0.54677 0.0
C170 C 0.75833 0.51523 0.56539 0.0
C171 C 0.77186 0.5469 0.58133 0.0
C172 C 0.79588 0.65507 0.58464 0.0
C173 C 0.81808 0.69315 0.57234 0.0
C174 C 0.79501 0.71098 0.56253 0.0
C175 C 0.74945 0.69058 0.56474 0.0
C176 C 0.72746 0.65191 0.57674 0.0
C177 C 0.75048 0.63428 0.58652 0.0
C178 C 0.80295 0.61648 0.62399 0.0
C179 C 0.79002 0.57533 0.63284 0.0
C180 C 0.7656 0.5625 0.65202 0.0
C181 C 0.7553 0.5913 0.66293 0.0
C182 C 0.77199 0.63387 0.65504 0.0
C183 C 0.79568 0.64633 0.63575 0.0
P184 P 0.11251 0.7068 0.90366 0.0
H185 H 0.15461 0.75092 0.86338 0.0
H186 H 0.21375 0.75144 0.84165 0.0
H187 H 0.23286 0.67772 0.89135 0.0
H188 H 0.17354 0.67564 0.91225 0.0
H189 H 1.02035 0.67774 0.90752 0.0
H190 H 0.95633 0.61839 0.89129 0.0
H191 H 1.03885 0.58448 0.85319 0.0
H192 H 0.10208 0.64074 0.8713 0.0
H193 H 0.17856 0.74593 0.93656 0.0
H194 H 1.04871 0.63653 0.93206 0.0
O195 O 0.11012 0.75279 0.9027 0.0
H196 H 0.18303 0.72464 0.97328 0.0
H197 H 1.0511 0.61776 0.96902 0.0
C198 C 0.16077 0.71467 0.88978 0.0
C199 C 0.17247 0.73599 0.86978 0.0
C200 C 0.20598 0.73617 0.85739 0.0
C201 C 0.22836 0.71556 0.86513 0.0
C202 C 0.21701 0.69507 0.88535 0.0
C203 C 0.18312 0.69405 0.89739 0.0
C204 C 1.066 0.66424 0.8904 0.0
C205 C 1.02452 0.65735 0.89572 0.0
C206 C 0.98795 0.62342 0.88629 0.0
C207 C 0.99221 0.59689 0.8705 0.0
C208 C 1.03401 0.60372 0.8654 0.0
C209 C 1.07049 0.63666 0.8755 0.0
C210 C 0.11355 0.69278 0.93139 0.0
C211 C 0.15076 0.71775 0.94357 0.0
C212 C 0.15309 0.70564 0.96466 0.0
C213 C 0.11751 0.66915 0.97425 0.0
C214 C 0.07972 0.64521 0.96212 0.0
C215 C 0.07799 0.65655 0.94087 0.0
P216 P 0.08326 0.53184 0.43859 0.0
H217 H 0.17571 0.57932 0.42765 0.0
H218 H 0.23835 0.64825 0.43691 0.0
H219 H 0.15698 0.67819 0.47783 0.0
H220 H 0.09347 0.60711 0.46864 0.0
H221 H 1.04921 0.47984 0.47953 0.0
H222 H 0.97916 0.41661 0.48975 0.0
H223 H 0.9224 0.43333 0.43224 0.0
H224 H 0.99197 0.49659 0.42237 0.0
H225 H 1.05214 0.46461 0.40521 0.0
H226 H 0.10426 0.60354 0.40707 0.0
O227 O 0.10632 0.5008 0.44157 0.0
H228 H 1.04923 0.46602 0.36595 0.0
H229 H 0.1018 0.60526 0.36765 0.0
C230 C 0.12873 0.58648 0.44734 0.0
C231 C 0.17078 0.60033 0.43872 0.0
C232 C 0.20729 0.64087 0.44396 0.0
C233 C 0.20431 0.67079 0.45815 0.0
C234 C 0.16193 0.65693 0.46696 0.0
C235 C 0.12492 0.6158 0.46161 0.0
C236 C 1.0273 0.49485 0.45016 0.0
C237 C 1.02149 0.47115 0.4694 0.0
C238 C 0.98084 0.43407 0.47518 0.0
C239 C 0.94386 0.4181 0.46183 0.0
C240 C 0.94938 0.44301 0.44302 0.0
C241 C 0.98979 0.48032 0.43742 0.0
C242 C 0.07862 0.53393 0.40933 0.0
C243 C 1.06279 0.49549 0.3972 0.0
C244 C 1.06099 0.49633 0.37464 0.0
C245 C 0.0754 0.53578 0.3634 0.0
C246 C 0.09089 0.5743 0.37562 0.0
C247 C 0.09216 0.57333 0.39827 0.0
P248 P 0.59476 0.05451 0.76799 0.0
H249 H 0.59656 0.09391 0.81152 0.0
H250 H 0.59054 0.15746 0.82298 0.0
H251 H 0.55794 0.17234 0.75807 0.0
H252 H 0.56176 0.10883 0.74735 0.0
H253 H 0.62056 1.02348 0.80688 0.0
H254 H 0.61595 0.95429 0.81679 0.0
H255 H 0.53223 0.8925 0.7629 0.0
H256 H 0.5382 0.96153 0.75283 0.0
H257 H 0.65597 0.09324 0.73122 0.0
H258 H 0.51745 1.012 0.73984 0.0
O259 O 0.64845 0.08164 0.77145 0.0
H260 H 0.64675 0.09411 0.69242 0.0
H261 H 0.50837 1.01136 0.70065 0.0
C262 C 0.57826 0.0942 0.77855 0.0
C263 C 0.58647 0.10981 0.79991 0.0
C264 C 0.58387 0.14736 0.80638 0.0
C265 C 0.57367 0.17172 0.79169 0.0
C266 C 0.56485 0.15528 0.77044 0.0
C267 C 0.56705 0.11781 0.76412 0.0
C268 C 0.57944 0.99926 0.77907 0.0
C269 C 0.60023 0.99494 0.79741 0.0
C270 C 0.59767 0.95465 0.80307 0.0
C271 C 0.57414 0.91635 0.79066 0.0
C272 C 0.55178 0.92047 0.77286 0.0
C273 C 0.55455 0.96073 0.76718 0.0
C274 C 0.58755 0.05142 0.73872 0.0
C275 C 0.62354 0.07482 0.72486 0.0
C276 C 0.61827 0.07559 0.70254 0.0
C277 C 0.57687 0.05259 0.69334 0.0
C278 C 0.54079 1.02894 0.70715 0.0
C279 C 0.54601 1.029 0.72959 0.0
P280 P 0.57976 0.54726 0.10321 0.0
H281 H 0.61134 0.52886 0.14438 0.0
H282 H 0.68073 0.53562 0.15527 0.0
H283 H 0.74044 0.60532 0.09644 0.0
H284 H 0.67159 0.59966 0.08619 0.0
H285 H 0.50513 0.54562 0.08134 0.0
H286 H 0.44386 0.55436 0.09206 0.0
H287 H 0.49358 0.58595 0.15641 0.0
H288 H 0.55634 0.57736 0.14522 0.0
H289 H 0.58953 0.49221 0.07039 0.0
H290 H 0.58472 0.61167 0.07071 0.0
O291 O 0.55298 0.49388 0.10824 0.0
H292 H 0.59347 0.49382 0.03123 0.0
H293 H 0.58601 0.61244 0.03133 0.0
C294 C 0.63496 0.56434 0.11447 0.0
C295 C 0.63958 0.5469 0.13406 0.0
C296 C 0.67983 0.55008 0.14012 0.0
C297 C 0.71781 0.57068 0.12685 0.0
C298 C 0.71328 0.58951 0.1076 0.0
C299 C 0.67309 0.58637 0.1016 0.0
C300 C 0.53826 0.5633 0.11187 0.0
C301 C 0.50462 0.55639 0.09759 0.0
C302 C 0.46843 0.56103 0.10393 0.0
C303 C 0.46264 0.5717 0.12523 0.0
C304 C 0.49592 0.57789 0.13981 0.0
C305 C 0.53272 0.57359 0.1333 0.0
C306 C 0.58554 0.55112 0.07373 0.0
C307 C 0.5888 0.51867 0.06203 0.0
C308 C 0.59064 0.51946 0.0394 0.0
C309 C 0.58905 0.55272 0.02757 0.0
C310 C 0.58746 0.58618 0.03948 0.0
C311 C 0.58633 0.58567 0.06219 0.0
C312 C 0.21673 0.5354 0.14783 0.0
C313 C 0.21386 0.57091 0.15668 0.0
C314 C 0.25722 0.53672 0.14372 0.0
C315 C 0.29748 0.57465 0.14828 0.0
C316 C 0.29495 0.61065 0.15738 0.0
C317 C 0.2538 0.60836 0.16144 0.0
C318 C 0.25679 0.49711 0.13423 0.0
C319 C 0.33596 0.65219 0.16257 0.0
C320 C 0.40196 0.56272 0.15248 0.0
C321 C 0.4217 0.57486 0.13182 0.0
C322 C 0.36274 0.56325 0.15812 0.0
C323 C 0.34153 0.57657 0.143 0.0
C324 C 0.36179 0.58982 0.12233 0.0
C325 C 0.40079 0.58877 0.11709 0.0
C326 C 0.34338 0.54857 0.18033 0.0
C327 C 0.34188 0.60485 0.10545 0.0
H328 H 0.18691 0.50602 0.14395 0.0
H329 H 0.25306 0.63637 0.16817 0.0
H330 H 0.27364 0.5054 0.11833 0.0
H331 H 0.27474 0.48626 0.14475 0.0
H332 H 0.22328 0.46957 0.13213 0.0
H333 H 0.32916 0.6762 0.17086 0.0
H334 H 0.35707 0.64516 0.17293 0.0
H335 H 0.35451 0.66714 0.1475 0.0
H336 H 0.4165 0.55148 0.16426 0.0
H337 H 0.41508 0.59926 0.1012 0.0
H338 H 0.31096 0.51901 0.17914 0.0
H339 H 0.33851 0.57413 0.18822 0.0
H340 H 0.36418 0.54107 0.19071 0.0
H341 H 0.30909 0.57794 0.10141 0.0
H342 H 0.36193 0.61584 0.09045 0.0
H343 H 0.33776 0.63205 0.11179 0.0
C344 C 0.73446 0.1725 0.48995 0.0
C345 C 0.69384 0.17117 0.48952 0.0
C346 C 0.77478 0.21161 0.48578 0.0
C347 C 0.77598 0.25191 0.48148 0.0
C348 C 0.73509 0.25081 0.48161 0.0
C349 C 0.69524 0.21109 0.48515 0.0
C350 C 0.81636 0.20956 0.48563 0.0
C351 C 0.73295 0.29172 0.47774 0.0
C352 C 0.88508 0.36242 0.48832 0.0
C353 C 0.90068 0.37554 0.467 0.0
C354 C 0.84527 0.32325 0.49316 0.0
C355 C 0.81936 0.29457 0.47652 0.0
C356 C 0.83496 0.30749 0.45502 0.0
C357 C 0.87448 0.34714 0.4506 0.0
C358 C 0.83037 0.31297 0.5163 0.0
C359 C 0.80972 0.27912 0.43644 0.0
H360 H 0.73478 0.14248 0.49305 0.0
H361 H 0.66483 0.21154 0.48463 0.0
H362 H 0.83278 0.22015 0.46967 0.0
H363 H 0.83889 0.23228 0.49777 0.0
H364 H 0.81069 0.1763 0.48908 0.0
H365 H 0.70188 0.28852 0.48391 0.0
H366 H 0.76023 0.32016 0.48557 0.0
H367 H 0.73533 0.29821 0.46019 0.0
H368 H 0.90365 0.38336 0.50141 0.0
H369 H 0.88528 0.35545 0.43403 0.0
H370 H 0.8262 0.28074 0.52079 0.0
H371 H 0.79821 0.31104 0.51836 0.0
H372 H 0.85359 0.33782 0.52755 0.0
H373 H 0.80439 0.24566 0.43872 0.0
H374 H 0.82657 0.29191 0.42073 0.0
H375 H 0.77726 0.27673 0.43592 0.0
C376 C 0.53731 0.67038 0.81892 0.0
C377 C 0.5763 0.66845 0.81781 0.0
C378 C 0.53618 0.70981 0.81525 0.0
C379 C 0.5748 0.74936 0.8099 0.0
C380 C 0.61422 0.74764 0.80887 0.0
C381 C 0.61448 0.70794 0.81279 0.0
C382 C 0.49289 0.7084 0.8166 0.0
C383 C 0.65654 0.78804 0.80344 0.0
C384 C 0.56821 0.84267 0.77949 0.0
C385 C 0.57377 0.87317 0.79576 0.0
C386 C 0.56812 0.80292 0.78384 0.0
C387 C 0.57413 0.79205 0.80507 0.0
C388 C 0.57953 0.82237 0.8216 0.0
C389 C 0.5793 0.86186 0.81685 0.0
C390 C 0.56143 0.77221 0.76551 0.0
C391 C 0.58505 0.81274 0.84458 0.0
H392 H 0.50723 0.64081 0.82248 0.0
H393 H 0.64511 0.70794 0.81174 0.0
H394 H 0.49604 0.7399 0.82181 0.0
H395 H 0.47794 0.70065 0.80047 0.0
H396 H 0.47049 0.68283 0.828 0.0
H397 H 0.68465 0.78216 0.80358 0.0
H398 H 0.65467 0.80013 0.78727 0.0
H399 H 0.66248 0.81419 0.81514 0.0
H400 H 0.56456 0.85 0.76303 0.0
H401 H 0.58288 0.88365 0.82994 0.0
H402 H 0.53223 0.74019 0.76885 0.0
H403 H 0.58965 0.76666 0.76407 0.0
H404 H 0.55718 0.78471 0.74989 0.0
H405 H 0.55616 0.78197 0.8499 0.0
H406 H 0.58929 0.8392 0.85573 0.0
H407 H 0.61373 0.80799 0.84577 0.0
C408 C 0.94048 0.55026 0.13907 0.0
C409 C 0.96663 0.57268 0.15683 0.0
C410 C 0.90087 0.54997 0.13445 0.0
C411 C 0.88536 0.57246 0.14782 0.0
C412 C 0.91154 0.59516 0.16582 0.0
C413 C 0.9514 0.59527 0.16996 0.0
C414 C 0.8756 0.52549 0.11496 0.0
C415 C 0.89721 0.61934 0.18093 0.0
C416 C 0.80207 0.60455 0.12495 0.0
C417 C 0.761 0.57163 0.13266 0.0
C418 C 0.8419 0.60523 0.12972 0.0
C419 C 0.84238 0.57246 0.14284 0.0
C420 C 0.80128 0.53924 0.15077 0.0
C421 C 0.76187 0.53918 0.14566 0.0
C422 C 0.88386 0.64129 0.12044 0.0
C423 C 0.79881 0.50322 0.16472 0.0
H424 H 0.95133 0.5331 0.12839 0.0
H425 H 0.97048 0.61284 0.18375 0.0
H426 H 0.8428 0.4994 0.11999 0.0
H427 H 0.87106 0.54779 0.10413 0.0
H428 H 0.89206 0.51055 0.10575 0.0
H429 H 0.92011 0.63474 0.1944 0.0
H430 H 0.89448 0.645 0.172 0.0
H431 H 0.86451 0.59665 0.18772 0.0
H432 H 0.80349 0.63055 0.11521 0.0
H433 H 0.7314 0.51277 0.15168 0.0
H434 H 0.90017 0.62726 0.11044 0.0
H435 H 0.90628 0.65981 0.13362 0.0
H436 H 0.87872 0.66425 0.11039 0.0
H437 H 0.81236 0.48514 0.15586 0.0
H438 H 0.76497 0.47983 0.1699 0.0
H439 H 0.81885 0.51728 0.17924 0.0
C440 C 0.40875 0.92269 0.4765 0.0
C441 C 0.44583 0.92445 0.48586 0.0
C442 C 0.36966 0.88264 0.47259 0.0
C443 C 0.36603 0.84173 0.47797 0.0
C444 C 0.40326 0.84323 0.48753 0.0
C445 C 0.44202 0.88384 0.49132 0.0
C446 C 0.33197 0.88422 0.46246 0.0
C447 C 0.40234 0.80153 0.49367 0.0
C448 C 0.2505 0.73715 0.48318 0.0
C449 C 0.24518 0.71533 0.46332 0.0
C450 C 0.28887 0.7774 0.48812 0.0
C451 C 0.32418 0.79791 0.47304 0.0
C452 C 0.31888 0.77637 0.45295 0.0
C453 C 0.28027 0.73634 0.44841 0.0
C454 C 0.2917 0.79801 0.50976 0.0
C455 C 0.35435 0.79581 0.43598 0.0
H456 H 0.41018 0.95302 0.47206 0.0
H457 H 0.46965 0.88364 0.49851 0.0
H458 H 0.3242 0.86678 0.44685 0.0
H459 H 0.30262 0.86737 0.47295 0.0
H460 H 0.33885 0.91809 0.45962 0.0
H461 H 0.43301 0.80746 0.50128 0.0
H462 H 0.37487 0.78262 0.50502 0.0
H463 H 0.39689 0.78113 0.47917 0.0
H464 H 0.22484 0.72238 0.49523 0.0
H465 H 0.27761 0.72176 0.43276 0.0
H466 H 0.2967 0.83136 0.5076 0.0
H467 H 0.32016 0.80107 0.51854 0.0
H468 H 0.262 0.7789 0.51981 0.0
H469 H 0.36017 0.82859 0.43137 0.0
H470 H 0.34628 0.77536 0.4213 0.0
H471 H 0.3852 0.79995 0.44252 0.0
C472 C 0.60883 0.41924 0.809 0.0
C473 C 0.57638 0.42098 0.82183 0.0
C474 C 0.60891 0.37959 0.80467 0.0
C475 C 0.57615 0.33943 0.81362 0.0
C476 C 0.54388 0.34108 0.82704 0.0
C477 C 0.54408 0.38118 0.83075 0.0
C478 C 0.64393 0.38073 0.79007 0.0
C479 C 0.50876 0.30016 0.83756 0.0
C480 C 0.54951 0.22953 0.78618 0.0
C481 C 0.57335 0.21421 0.79795 0.0
C482 C 0.55044 0.26955 0.79095 0.0
C483 C 0.57493 0.29595 0.80844 0.0
C484 C 0.59835 0.28055 0.82073 0.0
C485 C 0.59761 0.24075 0.81533 0.0
C486 C 0.52525 0.28386 0.77694 0.0
C487 C 0.62468 0.30641 0.83969 0.0
H488 H 0.63419 0.44916 0.80182 0.0
H489 H 0.51878 0.38127 0.84072 0.0
H490 H 0.6629 0.36845 0.79877 0.0
H491 H 0.62892 0.359 0.77609 0.0
H492 H 0.6667 0.41405 0.78402 0.0
H493 H 0.48759 0.3067 0.84855 0.0
H494 H 0.48823 0.27686 0.82505 0.0
H495 H 0.52359 0.28413 0.84683 0.0
H496 H 0.52947 0.21012 0.77307 0.0
H497 H 0.61692 0.23098 0.8247 0.0
H498 H 0.54745 0.31654 0.77006 0.0
H499 H 0.5003 0.28668 0.78676 0.0
H500 H 0.50884 0.26088 0.76353 0.0
H501 H 0.65186 0.33807 0.83407 0.0
H502 H 0.6384 0.28901 0.84874 0.0
H503 H 0.60418 0.31356 0.85083 0.0
C504 C 0.63385 0.81574 0.51535 0.0
C505 C 0.61052 0.82154 0.53228 0.0
C506 C 0.65172 0.78833 0.51774 0.0
C507 C 0.64623 0.76655 0.53755 0.0
C508 C 0.61915 0.76896 0.55388 0.0
C509 C 0.60148 0.79641 0.55102 0.0
C510 C 0.67983 0.78603 0.49982 0.0
C511 C 0.61209 0.74579 0.57516 0.0
C512 C 0.68484 0.68468 0.54566 0.0
C513 C 0.72486 0.71053 0.55567 0.0
C514 C 0.65924 0.70261 0.539 0.0
C515 C 0.67407 0.7473 0.54255 0.0
C516 C 0.71512 0.77382 0.55197 0.0
C517 C 0.74003 0.75509 0.55839 0.0
C518 C 0.61587 0.67354 0.5288 0.0
C519 C 0.73209 0.82173 0.556 0.0
H520 H 0.64113 0.8352 0.50085 0.0
H521 H 0.58276 0.80024 0.56397 0.0
H522 H 0.71456 0.80663 0.50398 0.0
H523 H 0.67366 0.75225 0.49769 0.0
H524 H 0.67422 0.7978 0.48429 0.0
H525 H 0.58552 0.74598 0.58486 0.0
H526 H 0.60424 0.71157 0.57264 0.0
H527 H 0.64245 0.76213 0.58456 0.0
H528 H 0.67328 0.65027 0.54329 0.0
H529 H 0.77068 0.77505 0.56635 0.0
H530 H 0.61288 0.6883 0.51365 0.0
H531 H 0.58931 0.67 0.5398 0.0
H532 H 0.61108 0.64061 0.52521 0.0
H533 H 0.73268 0.83839 0.54081 0.0
H534 H 0.76537 0.83806 0.56271 0.0
H535 H 0.71011 0.82595 0.56748 0.0
C536 C 0.81602 0.50153 0.78723 0.0
C537 C 0.77628 0.4829 0.79862 0.0
C538 C 0.85205 0.50128 0.79616 0.0
C539 C 0.84767 0.48326 0.81691 0.0
C540 C 0.80564 0.45421 0.82503 0.0
C541 C 0.76975 0.45376 0.81545 0.0
C542 C 0.89613 0.52848 0.78575 0.0
C543 C 0.79931 0.43075 0.84608 0.0
C544 C 0.95032 0.52603 0.85022 0.0
C545 C 0.95364 0.56486 0.85828 0.0
C546 C 0.91562 0.49816 0.837 0.0
C547 C 0.8828 0.50868 0.83242 0.0
C548 C 0.88497 0.5467 0.84148 0.0
C549 C 0.92065 0.57454 0.85377 0.0
C550 C 0.91449 0.45774 0.82815 0.0
C551 C 0.85029 0.55917 0.83778 0.0
H552 H 0.82124 0.52219 0.7734 0.0
H553 H 0.73812 0.43629 0.82331 0.0
H554 H 0.91086 0.56227 0.79197 0.0
H555 H 0.91814 0.51544 0.78955 0.0
H556 H 0.89351 0.5297 0.768 0.0
H557 H 0.76618 0.40203 0.84744 0.0
H558 H 0.82377 0.42 0.84781 0.0
H559 H 0.80348 0.45325 0.85952 0.0
H560 H 0.97504 0.51754 0.854 0.0
H561 H 0.92315 0.60482 0.85929 0.0
H562 H 0.89782 0.44785 0.81247 0.0
H563 H 0.89665 0.4306 0.83973 0.0
H564 H 0.94785 0.46251 0.82615 0.0
H565 H 0.84995 0.56703 0.82056 0.0
H566 H 0.85555 0.58796 0.84738 0.0
H567 H 0.81787 0.53178 0.84226 0.0
C568 C 0.36387 0.78076 0.21319 0.0
C569 C 0.34022 0.76581 0.19422 0.0
C570 C 0.40816 0.81163 0.21244 0.0
C571 C 0.42904 0.82746 0.19223 0.0
C572 C 0.40642 0.80864 0.17305 0.0
C573 C 0.36197 0.77818 0.17427 0.0
C574 C 0.43125 0.83068 0.23329 0.0
C575 C 0.42798 0.82353 0.15124 0.0
C576 C 0.50657 0.94781 0.19522 0.0
C577 C 0.54598 0.94886 0.19903 0.0
C578 C 0.46868 0.90847 0.19154 0.0
C579 C 0.47045 0.86926 0.19142 0.0
C580 C 0.51092 0.87053 0.19326 0.0
C581 C 0.54843 0.91053 0.19718 0.0
C582 C 0.42624 0.90869 0.18942 0.0
C583 C 0.51424 0.82954 0.19259 0.0
H584 H 0.34704 0.77105 0.22862 0.0
H585 H 0.34372 0.76573 0.15959 0.0
H586 H 0.4637 0.83303 0.23316 0.0
H587 H 0.43627 0.86413 0.23519 0.0
H588 H 0.4124 0.81102 0.24747 0.0
H589 H 0.41 0.79904 0.13861 0.0
H590 H 0.42875 0.85431 0.14682 0.0
H591 H 0.46203 0.82998 0.15143 0.0
H592 H 0.50501 0.9777 0.19617 0.0
H593 H 0.57904 0.91142 0.20002 0.0
H594 H 0.40483 0.89197 0.2035 0.0
H595 H 0.409 0.89073 0.1748 0.0
H596 H 0.43102 0.9422 0.18849 0.0
H597 H 0.50479 0.8133 0.20855 0.0
H598 H 0.54794 0.83672 0.18878 0.0
H599 H 0.49195 0.80632 0.18052 0.0
C600 C 0.6592 0.32818 0.4632 0.0
C601 C 0.61706 0.30823 0.47218 0.0
C602 C 0.69109 0.36949 0.47018 0.0
C603 C 0.68024 0.39096 0.48635 0.0
C604 C 0.63641 0.37357 0.49317 0.0
C605 C 0.60529 0.33239 0.48594 0.0
C606 C 0.73712 0.38841 0.46173 0.0
C607 C 0.62317 0.3963 0.5098 0.0
C608 C 0.75391 0.44697 0.53298 0.0
C609 C 0.76613 0.49047 0.5291 0.0
C610 C 0.72874 0.41461 0.51818 0.0
C611 C 0.71487 0.42614 0.49923 0.0
C612 C 0.7298 0.47053 0.49452 0.0
C613 C 0.75549 0.50234 0.50958 0.0
C614 C 0.71439 0.36774 0.52362 0.0
C615 C 0.71592 0.48441 0.4746 0.0
H616 H 0.66836 0.31009 0.45219 0.0
H617 H 0.5723 0.31778 0.49227 0.0
H618 H 0.74996 0.42283 0.45685 0.0
H619 H 0.75831 0.38818 0.47466 0.0
H620 H 0.73949 0.36994 0.44775 0.0
H621 H 0.58729 0.3818 0.51106 0.0
H622 H 0.63542 0.39375 0.52577 0.0
H623 H 0.63768 0.43138 0.50587 0.0
H624 H 0.7624 0.43808 0.54811 0.0
H625 H 0.76477 0.53613 0.50674 0.0
H626 H 0.72088 0.35169 0.5098 0.0
H627 H 0.67884 0.34987 0.52693 0.0
H628 H 0.73121 0.36473 0.53792 0.0
H629 H 0.71082 0.46228 0.46088 0.0
H630 H 0.74032 0.51813 0.46979 0.0
H631 H 0.68474 0.48381 0.47803 0.0
C632 C 0.37452 0.62023 0.81879 0.0
C633 C 0.35563 0.58307 0.83193 0.0
C634 C 0.35643 0.64767 0.81772 0.0
C635 C 0.31905 0.63771 0.83034 0.0
C636 C 0.29798 0.59825 0.84225 0.0
C637 C 0.31652 0.57124 0.8428 0.0
C638 C 0.37918 0.68856 0.80427 0.0
C639 C 0.25781 0.58621 0.85586 0.0
C640 C 0.29923 0.71809 0.86062 0.0
C641 C 0.25991 0.71004 0.85164 0.0
C642 C 0.32226 0.69861 0.85205 0.0
C643 C 0.30536 0.6707 0.83409 0.0
C644 C 0.26931 0.66787 0.8231 0.0
C645 C 0.24664 0.68752 0.83213 0.0
C646 C 0.36133 0.7034 0.86393 0.0
C647 C 0.25178 0.64015 0.80328 0.0
H648 H 0.40425 0.62851 0.80994 0.0
H649 H 0.30198 0.54231 0.85285 0.0
H650 H 0.35608 0.69862 0.79821 0.0
H651 H 0.40358 0.7154 0.81424 0.0
H652 H 0.39669 0.68409 0.79036 0.0
H653 H 0.24391 0.55311 0.86296 0.0
H654 H 0.26601 0.60998 0.86916 0.0
H655 H 0.23248 0.58751 0.84609 0.0
H656 H 0.30969 0.73616 0.87554 0.0
H657 H 0.21631 0.68159 0.82511 0.0
H658 H 0.38813 0.70953 0.85249 0.0
H659 H 0.3524 0.6727 0.87267 0.0
H660 H 0.37344 0.73037 0.87579 0.0
H661 H 0.27862 0.64262 0.79281 0.0
H662 H 0.23132 0.64971 0.79385 0.0
H663 H 0.23142 0.60557 0.80813 0.0
C664 C 0.83081 0.33346 0.10859 0.0
C665 C 0.84787 0.37787 0.10461 0.0
C666 C 0.78917 0.30891 0.1176 0.0
C667 C 0.76377 0.3293 0.12179 0.0
C668 C 0.77723 0.37099 0.11296 0.0
C669 C 0.81987 0.39543 0.10484 0.0
C670 C 0.77584 0.26369 0.12576 0.0
C671 C 0.74909 0.39201 0.11433 0.0
C672 C 0.67837 0.24681 0.15771 0.0
C673 C 0.70049 0.26059 0.17728 0.0
C674 C 0.69389 0.27361 0.13938 0.0
C675 C 0.73339 0.31342 0.14061 0.0
C676 C 0.75055 0.33055 0.16114 0.0
C677 C 0.73299 0.3041 0.17933 0.0
C678 C 0.67062 0.25696 0.11841 0.0
C679 C 0.7913 0.37407 0.16373 0.0
H680 H 0.85222 0.31962 0.10791 0.0
H681 H 0.83263 0.4295 0.10093 0.0
H682 H 0.77343 0.26287 0.1436 0.0
H683 H 0.74359 0.24 0.11942 0.0
H684 H 0.79929 0.25277 0.12087 0.0
H685 H 0.74758 0.40462 0.09822 0.0
H686 H 0.71549 0.36908 0.11999 0.0
H687 H 0.76395 0.4205 0.12526 0.0
H688 H 0.65176 0.21383 0.15604 0.0
H689 H 0.74818 0.3158 0.19479 0.0
H690 H 0.67337 0.22843 0.11295 0.0
H691 H 0.68349 0.28225 0.1056 0.0
H692 H 0.63543 0.2455 0.12087 0.0
H693 H 0.81919 0.37352 0.15559 0.0
H694 H 0.79965 0.38266 0.18088 0.0
H695 H 0.78709 0.40013 0.15626 0.0
C696 C 0.07487 0.62191 0.09794 0.0
C697 C 0.10279 0.61106 0.10856 0.0
C698 C 0.07717 0.6268 0.07557 0.0
C699 C 0.10933 0.62235 0.06377 0.0
C700 C 0.13697 0.6103 0.07444 0.0
C701 C 0.1328 0.60401 0.0968 0.0
C702 C 1.04608 0.63808 0.06466 0.0
C703 C 0.17239 0.60645 0.06247 0.0
C704 C 0.09619 0.61264 0.00333 0.0
C705 C 0.11907 0.65656 -0.00308 0.0
C706 C 0.09354 0.60074 0.02502 0.0
C707 C 0.11569 0.63337 0.04055 0.0
C708 C 0.14113 0.67736 0.03409 0.0
C709 C 0.14188 0.68853 0.01244 0.0
C710 C 1.06535 0.55358 0.0314 0.0
C711 C 0.16618 0.71295 0.05019 0.0
H712 H 1.05137 0.6268 0.1072 0.0
H713 H 0.15446 0.5958 0.10522 0.0
H714 H 1.06415 0.6718 0.05827 0.0
H715 H 1.03058 0.61607 0.05083 0.0
H716 H 1.02014 0.6357 0.07583 0.0
H717 H 0.18868 0.59336 0.07281 0.0
H718 H 0.15906 0.58507 0.04824 0.0
H719 H 0.19719 0.63904 0.05646 0.0
H720 H 0.07952 0.58743 -0.00853 0.0
H721 H 0.15925 0.72258 0.00789 0.0
H722 H 1.0374 0.54999 0.04133 0.0
H723 H 0.08384 0.54256 0.04139 0.0
H724 H 1.05258 0.53183 0.01722 0.0
H725 H 0.14316 0.7177 0.06065 0.0
H726 H 0.18863 0.74447 0.04225 0.0
H727 H 0.18537 0.70366 0.06073 0.0
C728 C 0.63854 0.06328 0.42771 0.0
C729 C 0.59841 0.04907 0.43814 0.0
C730 C 0.64424 0.0748 0.40595 0.0
C731 C 0.60886 0.07205 0.39432 0.0
C732 C 0.56842 0.05866 0.40489 0.0
C733 C 0.56359 1.04708 0.42676 0.0
C734 C 0.6879 0.0889 0.39528 0.0
C735 C 0.53016 0.05569 0.39299 0.0
C736 C 0.64417 0.13173 0.341 0.0
C737 C 0.63965 0.09816 0.32728 0.0
C738 C 0.6315 0.12329 0.36275 0.0
C739 C 0.61403 0.08035 0.37081 0.0
C740 C 0.60695 1.046 0.3567 0.0
C741 C 0.6198 0.05534 0.33509 0.0
C742 C 0.63924 0.16067 0.37734 0.0
C743 C 0.58829 0.99976 0.36466 0.0
H744 H 0.66561 0.06518 0.43656 0.0
H745 H 0.53252 1.036 0.43488 0.0
H746 H 0.6844 0.06542 0.38247 0.0
H747 H 0.70029 0.12117 0.38751 0.0
H748 H 0.71251 0.09099 0.40685 0.0
H749 H 0.50234 0.04864 0.40396 0.0
H750 H 0.53978 0.08657 0.38429 0.0
H751 H 0.51921 1.0295 0.38078 0.0
H752 H 0.65938 0.16485 0.33497 0.0
H753 H 0.61527 1.02916 0.32436 0.0
H754 H 0.66702 0.16823 0.38797 0.0
H755 H 0.61041 0.15179 0.38785 0.0
H756 H 0.64677 0.19051 0.36812 0.0
H757 H 0.61206 0.99747 0.37528 0.0
H758 H 0.58062 0.97626 0.35125 0.0
H759 H 0.55826 0.98998 0.37434 0.0
C760 C 0.58128 0.55865 0.75385 0.0
C761 C 0.57341 0.52546 0.7684 0.0
C762 C 0.6073 0.56552 0.73545 0.0
C763 C 0.62886 0.54092 0.73257 0.0
C764 C 0.62006 0.50654 0.74713 0.0
C765 C 0.59084 0.49808 0.76439 0.0
C766 C 0.61283 0.60032 0.71967 0.0
C767 C 0.64236 0.4795 0.74537 0.0
C768 C 0.68394 0.5388 0.67984 0.0
C769 C 0.72456 0.57646 0.6815 0.0
C770 C 0.65227 0.5271 0.6962 0.0
C771 C 0.66209 0.55285 0.71506 0.0
C772 C 0.70356 0.59069 0.71688 0.0
C773 C 0.73405 0.60205 0.70002 0.0
C774 C 0.60803 0.48788 0.69281 0.0
C775 C 0.71628 0.62086 0.73601 0.0
H776 H 0.56739 0.57956 0.75699 0.0
H777 H 0.58455 0.47234 0.77575 0.0
H778 H 0.64172 0.63156 0.72404 0.0
H779 H 0.61753 0.59198 0.70296 0.0
H780 H 0.58421 0.6054 0.72012 0.0
H781 H 0.64803 0.47029 0.76158 0.0
H782 H 0.62084 0.44883 0.73681 0.0
H783 H 0.674 0.49654 0.73663 0.0
H784 H 0.67621 0.51944 0.6653 0.0
H785 H 0.76537 0.6314 0.70126 0.0
H786 H 0.58173 0.49254 0.70008 0.0
H787 H 0.60695 0.45904 0.70043 0.0
H788 H 0.60127 0.48064 0.67543 0.0
H789 H 0.71708 0.65148 0.73117 0.0
H790 H 0.74972 0.63 0.74104 0.0
H791 H 0.69398 0.60696 0.75005 0.0
C792 C 0.58883 0.06395 0.56334 0.0
C793 C 0.55229 0.06325 0.55434 0.0
C794 C 0.59243 0.0611 0.58581 0.0
C795 C 0.55944 0.05906 0.59987 0.0
C796 C 0.52288 0.05927 0.59085 0.0
C797 C 0.51952 0.06081 0.56828 0.0
C798 C 0.63153 0.06002 0.59448 0.0
C799 C 0.48743 0.05829 0.60507 0.0
C800 C 0.54842 1.01567 0.65756 0.0
C801 C 0.57158 0.05408 0.66947 0.0
C802 C 0.54463 1.01675 0.63498 0.0
C803 C 0.56342 0.05728 0.62396 0.0
C804 C 0.58615 0.09617 0.63602 0.0
C805 C 0.59041 0.09408 0.65847 0.0
C806 C 0.52105 0.9744 0.62287 0.0
C807 C 0.60581 0.14016 0.62521 0.0
H808 H 0.61459 0.06636 0.55278 0.0
H809 H 0.49131 0.06058 0.56154 0.0
H810 H 0.65066 0.08902 0.60466 0.0
H811 H 0.62087 1.03087 0.60483 0.0
H812 H 0.65308 0.0594 0.58146 0.0
H813 H 0.46167 0.05971 0.59566 0.0
H814 H 0.47223 1.02815 0.61494 0.0
H815 H 0.50149 0.08622 0.61635 0.0
H816 H 0.53409 0.98461 0.66586 0.0
H817 H 0.60804 0.12394 0.66754 0.0
H818 H 0.54305 0.97262 0.61048 0.0
H819 H 0.49295 0.97276 0.61435 0.0
H820 H 0.50908 0.94562 0.63364 0.0
H821 H 0.63085 0.14352 0.61323 0.0
H822 H 0.62107 0.16736 0.63689 0.0
H823 H 0.58039 0.14323 0.61638 0.0
C824 C 0.63535 0.55329 0.89999 0.0
C825 C 0.60265 0.55116 0.88662 0.0
C826 C 0.63123 0.55224 0.92263 0.0
C827 C 0.59373 0.54992 0.93253 0.0
C828 C 0.56037 0.54754 0.91911 0.0
C829 C 0.5651 0.54793 0.89638 0.0
C830 C 0.66742 0.55406 0.93597 0.0
C831 C 0.52014 0.54581 0.92876 0.0
C832 C 0.57005 0.51257 -0.00834 0.0
C833 C 0.5889 0.55215 0.0031 0.0
C834 C 0.57081 0.51136 0.96891 0.0
C835 C 0.59012 0.55063 0.95685 0.0
C836 C 0.60818 0.59067 0.96817 0.0
C837 C 0.6077 0.59097 0.99096 0.0
C838 C 0.55155 0.46784 0.95775 0.0
C839 C 0.6288 0.63346 0.95619 0.0
H840 H 0.6646 0.55596 0.89266 0.0
H841 H 0.54019 0.54745 0.88632 0.0
H842 H 0.68191 0.58398 0.94592 0.0
H843 H 0.65432 0.52586 0.94716 0.0
H844 H 0.69358 0.5539 0.92591 0.0
H845 H 0.49662 0.54281 0.9163 0.0
H846 H 0.50379 0.51784 0.94001 0.0
H847 H 0.52939 0.57578 0.93822 0.0
H848 H 0.55435 0.4821 0.00045 0.0
H849 H 0.62299 0.62196 -0.00079 0.0
H850 H 0.57714 0.46571 0.94814 0.0
H851 H 0.52614 0.46445 0.94641 0.0
H852 H 0.53695 0.44014 0.96928 0.0
H853 H 0.65819 0.63796 0.94731 0.0
H854 H 0.63835 0.66162 0.96713 0.0
H855 H 0.60597 0.63345 0.94413 0.0
C856 C 0.08956 0.50851 0.23468 0.0
C857 C 0.07341 0.53097 0.2227 0.0
C858 C 0.09061 0.51032 0.2574 0.0
C859 C 0.07468 0.5348 0.26868 0.0
C860 C 1.05839 0.55761 0.25661 0.0
C861 C 1.05817 0.5556 0.23388 0.0
C862 C 0.10876 0.48586 0.26938 0.0
C863 C 1.04074 0.58384 0.26775 0.0
C864 C 1.03925 0.50426 0.32775 0.0
C865 C 0.0747 0.53652 0.33912 0.0
C866 C 1.03858 0.50371 0.30502 0.0
C867 C 0.07444 0.53592 0.29303 0.0
C868 C 0.11024 0.56872 0.30438 0.0
C869 C 0.10983 0.56878 0.32715 0.0
C870 C 0.99938 0.46844 0.29381 0.0
C871 C 0.14944 0.60346 0.29245 0.0
H872 H 0.10159 0.48954 0.22624 0.0
H873 H 1.0456 0.57308 0.22482 0.0
H874 H 0.13577 0.50857 0.27977 0.0
H875 H 0.08326 0.46102 0.28006 0.0
H876 H 0.12101 0.46934 0.25834 0.0
H877 H 1.02935 0.59982 0.25617 0.0
H878 H 1.01318 0.56242 0.27855 0.0
H879 H 1.06616 0.60927 0.27792 0.0
H880 H 1.01162 0.47945 0.33668 0.0
H881 H 0.13766 0.59362 0.33561 0.0
H882 H 1.00914 0.44865 0.28368 0.0
H883 H 0.98555 0.48323 0.28295 0.0
H884 H 0.97359 0.44647 0.30533 0.0
H885 H 0.16439 0.58815 0.28238 0.0
H886 H 0.17442 0.62706 0.3035 0.0
H887 H 0.13949 0.62152 0.28145 0.0
loop_
_geom_bond_atom_site_label_1
_geom_bond_atom_site_label_2
_geom_bond_distance
_geom_bond_site_symmetry_2
_ccdc_geom_bond_type
Tb0 C2 2.809 . S
Tb0 O20 2.484 . S
Tb0 O21 2.440 . S
Tb0 O22 2.658 . S
Tb0 O23 2.409 . S
Tb0 O24 2.378 . S
Tb0 O28 2.325 . S
Tb0 O31 2.341 1_455 S
Tb1 C11 2.809 . S
Tb1 O22 2.325 1_655 S
Tb1 O25 2.341 1_655 S
Tb1 O26 2.484 . S
Tb1 O27 2.440 . S
Tb1 O28 2.658 1_655 S
Tb1 O29 2.409 1_655 S
Tb1 O30 2.378 . S
C2 Tb0 2.809 . S
C2 C3 1.514 . S
C2 O20 1.248 . S
C2 O21 1.266 . S
C3 C2 1.514 . S
C3 C4 1.359 . S
C3 C8 1.348 . S
C4 C3 1.359 . S
C4 C5 1.380 . S
C4 H32 0.929 . S
C5 C4 1.380 . S
C5 C6 1.347 . S
C5 H33 0.931 . S
C6 C5 1.347 . S
C6 C7 1.369 . S
C7 C6 1.369 . S
C7 C8 1.408 . S
C7 H34 0.930 . S
C8 C3 1.348 . S
C8 C7 1.408 . S
C8 H35 0.930 . S
C9 O22 1.281 . S
C9 O23 1.254 . S
C10 O24 1.236 . S
C10 O25 1.266 . S
C11 Tb1 2.809 . S
C11 C12 1.514 . S
C11 O26 1.248 . S
C11 O27 1.266 . S
C12 C11 1.514 . S
C12 C13 1.359 . S
C12 C17 1.348 . S
C13 C12 1.359 . S
C13 C14 1.380 . S
C13 H36 0.929 . S
C14 C13 1.380 . S
C14 C15 1.347 . S
C14 H37 0.931 . S
C15 C14 1.347 . S
C15 C16 1.369 . S
C16 C15 1.369 . S
C16 C17 1.408 . S
C16 H38 0.930 . S
C17 C12 1.348 . S
C17 C16 1.408 . S
C17 H39 0.930 . S
C18 O28 1.281 . S
C18 O29 1.254 . S
C19 O30 1.236 . S
C19 O31 1.266 . S
O20 Tb0 2.484 . S
O20 C2 1.248 . S
O21 Tb0 2.440 . S
O21 C2 1.266 . S
O22 Tb0 2.658 . S
O22 Tb1 2.325 1_455 S
O22 C9 1.281 . S
O23 Tb0 2.409 . S
O23 C9 1.254 . S
O24 Tb0 2.378 . S
O24 C10 1.236 . S
O25 Tb1 2.341 1_455 S
O25 C10 1.266 . S
O26 Tb1 2.484 . S
O26 C11 1.248 . S
O27 Tb1 2.440 . S
O27 C11 1.266 . S
O28 Tb0 2.325 . S
O28 Tb1 2.658 1_455 S
O28 C18 1.281 . S
O29 Tb1 2.409 1_455 S
O29 C18 1.254 . S
O30 Tb1 2.378 . S
O30 C19 1.236 . S
O31 Tb0 2.341 1_655 S
O31 C19 1.266 . S
H32 C4 0.929 . S
H33 C5 0.931 . S
H34 C7 0.930 . S
H35 C8 0.930 . S
H36 C13 0.929 . S
H37 C14 0.931 . S
H38 C16 0.930 . S
H39 C17 0.930 . S
Tb40 C42 2.798 1_545 S
Tb40 O60 2.475 1_545 S
Tb40 O61 2.430 1_545 S
Tb40 O62 2.668 . S
Tb40 O63 2.411 . S
Tb40 O64 2.377 1_545 S
Tb40 O68 2.330 . S
Tb40 O71 2.351 . S
Tb41 C51 2.809 . S
Tb41 O62 2.325 . S
Tb41 O65 2.341 1_545 S
Tb41 O66 2.484 . S
Tb41 O67 2.440 . S
Tb41 O68 2.658 . S
Tb41 O69 2.409 . S
Tb41 O70 2.378 . S
C42 Tb40 2.798 1_565 S
C42 C43 1.514 . S
C42 O60 1.248 . S
C42 O61 1.266 . S
C43 C42 1.514 . S
C43 C44 1.359 . S
C43 C48 1.348 . S
C44 C43 1.359 . S
C44 C45 1.380 . S
C44 H72 0.929 . S
C45 C44 1.380 . S
C45 C46 1.347 . S
C45 H73 0.931 . S
C46 C45 1.347 . S
C46 C47 1.369 . S
C47 C46 1.369 . S
C47 C48 1.408 . S
C47 H74 0.930 . S
C48 C43 1.348 . S
C48 C47 1.408 . S
C48 H75 0.930 . S
C49 O62 1.281 . S
C49 O63 1.254 . S
C50 O64 1.236 . S
C50 O65 1.266 . S
C51 Tb41 2.809 . S
C51 C52 1.514 . S
C51 O66 1.248 . S
C51 O67 1.266 . S
C52 C51 1.514 . S
C52 C53 1.359 . S
C52 C57 1.348 . S
C53 C52 1.359 . S
C53 C54 1.380 . S
C53 H76 0.929 . S
C54 C53 1.380 . S
C54 C55 1.347 . S
C54 H77 0.931 . S
C55 C54 1.347 . S
C55 C56 1.369 . S
C56 C55 1.369 . S
C56 C57 1.408 . S
C56 H78 0.930 . S
C57 C52 1.348 . S
C57 C56 1.408 . S
C57 H79 0.930 . S
C58 O68 1.281 . S
C58 O69 1.254 . S
C59 O70 1.236 . S
C59 O71 1.266 . S
O60 Tb40 2.475 1_565 S
O60 C42 1.248 . S
O61 Tb40 2.430 1_565 S
O61 C42 1.266 . S
O62 Tb40 2.668 . S
O62 Tb41 2.325 . S
O62 C49 1.281 . S
O63 Tb40 2.411 . S
O63 C49 1.254 . S
O64 Tb40 2.377 1_565 S
O64 C50 1.236 . S
O65 Tb41 2.341 1_565 S
O65 C50 1.266 . S
O66 Tb41 2.484 . S
O66 C51 1.248 . S
O67 Tb41 2.440 . S
O67 C51 1.266 . S
O68 Tb40 2.330 . S
O68 Tb41 2.658 . S
O68 C58 1.281 . S
O69 Tb41 2.409 . S
O69 C58 1.254 . S
O70 Tb41 2.378 . S
O70 C59 1.236 . S
O71 Tb40 2.351 . S
O71 C59 1.266 . S
H72 C44 0.929 . S
H73 C45 0.931 . S
H74 C47 0.930 . S
H75 C48 0.930 . S
H76 C53 0.929 . S
H77 C54 0.931 . S
H78 C56 0.930 . S
H79 C57 0.930 . S
Tb80 C82 2.809 . S
Tb80 O100 2.484 . S
Tb80 O101 2.440 . S
Tb80 O102 2.658 . S
Tb80 O103 2.409 . S
Tb80 O104 2.378 . S
Tb80 O108 2.325 . S
Tb80 O111 2.341 . S
Tb81 C91 2.809 . S
Tb81 O102 2.325 . S
Tb81 O105 2.341 . S
Tb81 O106 2.484 . S
Tb81 O107 2.440 . S
Tb81 O108 2.658 . S
Tb81 O109 2.409 . S
Tb81 O110 2.378 . S
C82 Tb80 2.809 . S
C82 C83 1.514 . S
C82 O100 1.248 . S
C82 O101 1.266 . S
C83 C82 1.514 . S
C83 C84 1.359 . S
C83 C88 1.348 . S
C84 C83 1.359 . S
C84 C85 1.380 . S
C84 H112 0.929 . S
C85 C84 1.380 . S
C85 C86 1.347 . S
C85 H113 0.931 . S
C86 C85 1.347 . S
C86 C87 1.369 . S
C87 C86 1.369 . S
C87 C88 1.408 . S
C87 H114 0.930 . S
C88 C83 1.348 . S
C88 C87 1.408 . S
C88 H115 0.930 . S
C89 O102 1.281 . S
C89 O103 1.254 . S
C90 O104 1.236 . S
C90 O105 1.266 . S
C91 Tb81 2.809 . S
C91 C92 1.514 . S
C91 O106 1.248 . S
C91 O107 1.266 . S
C92 C91 1.514 . S
C92 C93 1.359 . S
C92 C97 1.348 . S
C93 C92 1.359 . S
C93 C94 1.380 . S
C93 H116 0.929 . S
C94 C93 1.380 . S
C94 C95 1.347 . S
C94 H117 0.931 . S
C95 C94 1.347 . S
C95 C96 1.369 . S
C96 C95 1.369 . S
C96 C97 1.408 . S
C96 H118 0.930 . S
C97 C92 1.348 . S
C97 C96 1.408 . S
C97 H119 0.930 . S
C98 O108 1.281 . S
C98 O109 1.254 . S
C99 O110 1.236 . S
C99 O111 1.266 . S
O100 Tb80 2.484 . S
O100 C82 1.248 . S
O101 Tb80 2.440 . S
O101 C82 1.266 . S
O102 Tb80 2.658 . S
O102 Tb81 2.325 . S
O102 C89 1.281 . S
O103 Tb80 2.409 . S
O103 C89 1.254 . S
O104 Tb80 2.378 . S
O104 C90 1.236 . S
O105 Tb81 2.341 . S
O105 C90 1.266 . S
O106 Tb81 2.484 . S
O106 C91 1.248 . S
O107 Tb81 2.440 . S
O107 C91 1.266 . S
O108 Tb80 2.325 . S
O108 Tb81 2.658 . S
O108 C98 1.281 . S
O109 Tb81 2.409 . S
O109 C98 1.254 . S
O110 Tb81 2.378 . S
O110 C99 1.236 . S
O111 Tb80 2.341 . S
O111 C99 1.266 . S
H112 C84 0.929 . S
H113 C85 0.931 . S
H114 C87 0.930 . S
H115 C88 0.930 . S
H116 C93 0.929 . S
H117 C94 0.931 . S
H118 C96 0.930 . S
H119 C97 0.930 . S
P120 O131 1.490 1_545 S
P120 C134 1.812 1_545 S
P120 C140 1.803 . S
P120 C146 1.819 . S
H121 C135 0.941 . S
H122 C136 0.939 . S
H123 C138 0.940 . S
H124 C139 0.940 1_545 S
H125 C141 0.939 . S
H126 C142 0.942 . S
H127 C144 0.940 . S
H128 C145 0.939 . S
H129 C147 0.941 . S
H130 C151 0.939 . S
O131 P120 1.490 1_565 S
H132 C148 0.939 1_565 S
H133 C150 0.940 . S
C134 P120 1.812 1_565 S
C134 C135 1.389 . S
C134 C139 1.391 . S
C135 H121 0.941 . S
C135 C134 1.389 . S
C135 C136 1.397 . S
C136 H122 0.939 . S
C136 C135 1.397 . S
C136 C137 1.378 . S
C137 C136 1.378 . S
C137 C138 1.378 . S
C138 H123 0.940 . S
C138 C137 1.378 . S
C138 C139 1.396 . S
C139 H124 0.940 1_565 S
C139 C134 1.391 . S
C139 C138 1.396 . S
C140 P120 1.803 . S
C140 C141 1.378 . S
C140 C145 1.400 . S
C141 H125 0.939 . S
C141 C140 1.378 . S
C141 C142 1.361 . S
C142 H126 0.942 . S
C142 C141 1.361 . S
C142 C143 1.369 . S
C143 C142 1.369 . S
C143 C144 1.404 . S
C144 H127 0.940 . S
C144 C143 1.404 . S
C144 C145 1.389 . S
C145 H128 0.939 . S
C145 C140 1.400 . S
C145 C144 1.389 . S
C146 P120 1.819 . S
C146 C147 1.391 1_545 S
C146 C151 1.391 . S
C147 H129 0.941 . S
C147 C146 1.391 1_565 S
C147 C148 1.396 1_565 S
C148 H132 0.939 1_545 S
C148 C147 1.396 1_545 S
C148 C149 1.397 . S
C149 C148 1.397 . S
C149 C150 1.385 . S
C150 H133 0.940 . S
C150 C149 1.385 . S
C150 C151 1.388 . S
C151 H130 0.939 . S
C151 C146 1.391 . S
C151 C150 1.388 . S
P152 O163 1.490 . S
P152 C166 1.812 . S
P152 C172 1.803 . S
P152 C178 1.819 . S
H153 C167 0.941 . S
H154 C168 0.939 . S
H155 C170 0.940 . S
H156 C171 0.940 . S
H157 C173 0.939 . S
H158 C174 0.942 . S
H159 C176 0.940 . S
H160 C177 0.939 . S
H161 C179 0.941 . S
H162 C183 0.939 . S
O163 P152 1.490 . S
H164 C180 0.939 . S
H165 C182 0.940 . S
C166 P152 1.812 . S
C166 C167 1.389 . S
C166 C171 1.391 . S
C167 H153 0.941 . S
C167 C166 1.389 . S
C167 C168 1.397 . S
C168 H154 0.939 . S
C168 C167 1.397 . S
C168 C169 1.378 . S
C169 C168 1.378 . S
C169 C170 1.378 . S
C170 H155 0.940 . S
C170 C169 1.378 . S
C170 C171 1.396 . S
C171 H156 0.940 . S
C171 C166 1.391 . S
C171 C170 1.396 . S
C172 P152 1.803 . S
C172 C173 1.378 . S
C172 C177 1.400 . S
C173 H157 0.939 . S
C173 C172 1.378 . S
C173 C174 1.361 . S
C174 H158 0.942 . S
C174 C173 1.361 . S
C174 C175 1.369 . S
C175 C174 1.369 . S
C175 C176 1.404 . S
C176 H159 0.940 . S
C176 C175 1.404 . S
C176 C177 1.389 . S
C177 H160 0.939 . S
C177 C172 1.400 . S
C177 C176 1.389 . S
C178 P152 1.819 . S
C178 C179 1.391 . S
C178 C183 1.391 . S
C179 H161 0.941 . S
C179 C178 1.391 . S
C179 C180 1.396 . S
C180 H164 0.939 . S
C180 C179 1.396 . S
C180 C181 1.397 . S
C181 C180 1.397 . S
C181 C182 1.385 . S
C182 H165 0.940 . S
C182 C181 1.385 . S
C182 C183 1.388 . S
C183 H162 0.939 . S
C183 C178 1.391 . S
C183 C182 1.388 . S
P184 O195 1.490 . S
P184 C198 1.812 . S
P184 C204 1.803 1_455 S
P184 C210 1.819 . S
H185 C199 0.941 . S
H186 C200 0.939 . S
H187 C202 0.940 . S
H188 C203 0.940 . S
H189 C205 0.939 . S
H190 C206 0.942 . S
H191 C208 0.940 . S
H192 C209 0.939 . S
H193 C211 0.941 . S
H194 C215 0.939 . S
O195 P184 1.490 . S
H196 C212 0.939 . S
H197 C214 0.940 . S
C198 P184 1.812 . S
C198 C199 1.389 . S
C198 C203 1.391 . S
C199 H185 0.941 . S
C199 C198 1.389 . S
C199 C200 1.397 . S
C200 H186 0.939 . S
C200 C199 1.397 . S
C200 C201 1.378 . S
C201 C200 1.378 . S
C201 C202 1.378 . S
C202 H187 0.940 . S
C202 C201 1.378 . S
C202 C203 1.396 . S
C203 H188 0.940 . S
C203 C198 1.391 . S
C203 C202 1.396 . S
C204 P184 1.803 1_655 S
C204 C205 1.378 . S
C204 C209 1.400 . S
C205 H189 0.939 . S
C205 C204 1.378 . S
C205 C206 1.361 . S
C206 H190 0.942 . S
C206 C205 1.361 . S
C206 C207 1.369 . S
C207 C206 1.369 . S
C207 C208 1.404 . S
C208 H191 0.940 . S
C208 C207 1.404 . S
C208 C209 1.389 . S
C209 H192 0.939 . S
C209 C204 1.400 . S
C209 C208 1.389 . S
C210 P184 1.819 . S
C210 C211 1.391 . S
C210 C215 1.391 1_455 S
C211 H193 0.941 . S
C211 C210 1.391 . S
C211 C212 1.396 . S
C212 H196 0.939 . S
C212 C211 1.396 . S
C212 C213 1.397 . S
C213 C212 1.397 . S
C213 C214 1.385 1_455 S
C214 H197 0.940 . S
C214 C213 1.385 1_655 S
C214 C215 1.388 . S
C215 H194 0.939 . S
C215 C210 1.391 1_655 S
C215 C214 1.388 . S
P216 O227 1.490 . S
P216 C230 1.812 . S
P216 C236 1.803 . S
P216 C242 1.819 . S
H217 C231 0.941 . S
H218 C232 0.939 . S
H219 C234 0.940 . S
H220 C235 0.940 . S
H221 C237 0.939 . S
H222 C238 0.942 . S
H223 C240 0.940 . S
H224 C241 0.939 . S
H225 C243 0.941 . S
H226 C247 0.939 1_655 S
O227 P216 1.490 . S
H228 C244 0.939 . S
H229 C246 0.940 1_655 S
C230 P216 1.812 . S
C230 C231 1.389 . S
C230 C235 1.391 . S
C231 H217 0.941 . S
C231 C230 1.389 . S
C231 C232 1.397 . S
C232 H218 0.939 . S
C232 C231 1.397 . S
C232 C233 1.378 . S
C233 C232 1.378 . S
C233 C234 1.378 . S
C234 H219 0.940 . S
C234 C233 1.378 . S
C234 C235 1.396 . S
C235 H220 0.940 . S
C235 C230 1.391 . S
C235 C234 1.396 . S
C236 P216 1.803 . S
C236 C237 1.378 . S
C236 C241 1.400 . S
C237 H221 0.939 . S
C237 C236 1.378 . S
C237 C238 1.361 1_455 S
C238 H222 0.942 . S
C238 C237 1.361 1_655 S
C238 C239 1.369 . S
C239 C238 1.369 . S
C239 C240 1.404 . S
C240 H223 0.940 . S
C240 C239 1.404 . S
C240 C241 1.389 1_655 S
C241 H224 0.939 . S
C241 C236 1.400 . S
C241 C240 1.389 1_455 S
C242 P216 1.819 . S
C242 C243 1.391 . S
C242 C247 1.391 . S
C243 H225 0.941 . S
C243 C242 1.391 . S
C243 C244 1.396 . S
C244 H228 0.939 . S
C244 C243 1.396 . S
C244 C245 1.397 . S
C245 C244 1.397 . S
C245 C246 1.385 . S
C246 H229 0.940 1_455 S
C246 C245 1.385 . S
C246 C247 1.388 . S
C247 H226 0.939 1_455 S
C247 C242 1.391 . S
C247 C246 1.388 . S
P248 O259 1.490 . S
P248 C262 1.812 . S
P248 C268 1.803 1_545 S
P248 C274 1.819 . S
H249 C263 0.941 . S
H250 C264 0.939 . S
H251 C266 0.940 . S
H252 C267 0.940 . S
H253 C269 0.939 . S
H254 C270 0.942 . S
H255 C272 0.940 . S
H256 C273 0.939 . S
H257 C275 0.941 . S
H258 C279 0.939 . S
O259 P248 1.490 . S
H260 C276 0.939 . S
H261 C278 0.940 . S
C262 P248 1.812 . S
C262 C263 1.389 . S
C262 C267 1.391 . S
C263 H249 0.941 . S
C263 C262 1.389 . S
C263 C264 1.397 . S
C264 H250 0.939 . S
C264 C263 1.397 . S
C264 C265 1.378 . S
C265 C264 1.378 . S
C265 C266 1.378 . S
C266 H251 0.940 . S
C266 C265 1.378 . S
C266 C267 1.396 . S
C267 H252 0.940 . S
C267 C262 1.391 . S
C267 C266 1.396 . S
C268 P248 1.803 1_565 S
C268 C269 1.378 . S
C268 C273 1.400 . S
C269 H253 0.939 . S
C269 C268 1.378 . S
C269 C270 1.361 . S
C270 H254 0.942 . S
C270 C269 1.361 . S
C270 C271 1.369 . S
C271 C270 1.369 . S
C271 C272 1.404 . S
C272 H255 0.940 . S
C272 C271 1.404 . S
C272 C273 1.389 . S
C273 H256 0.939 . S
C273 C268 1.400 . S
C273 C272 1.389 . S
C274 P248 1.819 . S
C274 C275 1.391 . S
C274 C279 1.391 1_545 S
C275 H257 0.941 . S
C275 C274 1.391 . S
C275 C276 1.396 . S
C276 H260 0.939 . S
C276 C275 1.396 . S
C276 C277 1.397 . S
C277 C276 1.397 . S
C277 C278 1.385 1_545 S
C278 H261 0.940 . S
C278 C277 1.385 1_565 S
C278 C279 1.388 . S
C279 H258 0.939 . S
C279 C274 1.391 1_565 S
C279 C278 1.388 . S
P280 O291 1.490 . S
P280 C294 1.812 . S
P280 C300 1.803 . S
P280 C306 1.819 . S
H281 C295 0.941 . S
H282 C296 0.939 . S
H283 C298 0.940 . S
H284 C299 0.940 . S
H285 C301 0.939 . S
H286 C302 0.942 . S
H287 C304 0.940 . S
H288 C305 0.939 . S
H289 C307 0.941 . S
H290 C311 0.939 . S
O291 P280 1.490 . S
H292 C308 0.939 . S
H293 C310 0.940 . S
C294 P280 1.812 . S
C294 C295 1.389 . S
C294 C299 1.391 . S
C295 H281 0.941 . S
C295 C294 1.389 . S
C295 C296 1.397 . S
C296 H282 0.939 . S
C296 C295 1.397 . S
C296 C297 1.378 . S
C297 C296 1.378 . S
C297 C298 1.378 . S
C298 H283 0.940 . S
C298 C297 1.378 . S
C298 C299 1.396 . S
C299 H284 0.940 . S
C299 C294 1.391 . S
C299 C298 1.396 . S
C300 P280 1.803 . S
C300 C301 1.378 . S
C300 C305 1.400 . S
C301 H285 0.939 . S
C301 C300 1.378 . S
C301 C302 1.361 . S
C302 H286 0.942 . S
C302 C301 1.361 . S
C302 C303 1.369 . S
C303 C302 1.369 . S
C303 C304 1.404 . S
C304 H287 0.940 . S
C304 C303 1.404 . S
C304 C305 1.389 . S
C305 H288 0.939 . S
C305 C300 1.400 . S
C305 C304 1.389 . S
C306 P280 1.819 . S
C306 C307 1.391 . S
C306 C311 1.391 . S
C307 H289 0.941 . S
C307 C306 1.391 . S
C307 C308 1.396 . S
C308 H292 0.939 . S
C308 C307 1.396 . S
C308 C309 1.397 . S
C309 C308 1.397 . S
C309 C310 1.385 . S
C310 H293 0.940 . S
C310 C309 1.385 . S
C310 C311 1.388 . S
C311 H290 0.939 . S
C311 C306 1.391 . S
C311 C310 1.388 . S
C312 C313 1.391 . S
C312 C314 1.394 . S
C312 H328 0.931 . S
C313 C312 1.391 . S
C313 C317 1.376 . S
C314 C312 1.394 . S
C314 C315 1.369 . S
C314 C318 1.531 . S
C315 C314 1.369 . S
C315 C316 1.410 . S
C315 C323 1.503 . S
C316 C315 1.410 . S
C316 C317 1.392 . S
C316 C319 1.511 . S
C317 C313 1.376 . S
C317 C316 1.392 . S
C317 H329 0.929 . S
C318 C314 1.531 . S
C318 H330 0.960 . S
C318 H331 0.962 . S
C318 H332 0.960 . S
C319 C316 1.511 . S
C319 H333 0.961 . S
C319 H334 0.961 . S
C319 H335 0.961 . S
C320 C321 1.370 . S
C320 C322 1.363 . S
C320 H336 0.931 . S
C321 C320 1.370 . S
C321 C325 1.408 . S
C322 C320 1.363 . S
C322 C323 1.370 . S
C322 C326 1.524 . S
C323 C315 1.503 . S
C323 C322 1.370 . S
C323 C324 1.403 . S
C324 C323 1.403 . S
C324 C325 1.404 . S
C324 C327 1.539 . S
C325 C321 1.408 . S
C325 C324 1.404 . S
C325 H337 0.930 . S
C326 C322 1.524 . S
C326 H338 0.956 . S
C326 H339 0.961 . S
C326 H340 0.961 . S
C327 C324 1.539 . S
C327 H341 0.958 . S
C327 H342 0.961 . S
C327 H343 0.960 . S
H328 C312 0.931 . S
H329 C317 0.929 . S
H330 C318 0.960 . S
H331 C318 0.962 . S
H332 C318 0.960 . S
H333 C319 0.961 . S
H334 C319 0.961 . S
H335 C319 0.961 . S
H336 C320 0.931 . S
H337 C325 0.930 . S
H338 C326 0.956 . S
H339 C326 0.961 . S
H340 C326 0.961 . S
H341 C327 0.958 . S
H342 C327 0.961 . S
H343 C327 0.960 . S
C344 C345 1.391 . S
C344 C346 1.394 . S
C344 H360 0.931 . S
C345 C344 1.391 . S
C345 C349 1.376 . S
C346 C344 1.394 . S
C346 C347 1.369 . S
C346 C350 1.531 . S
C347 C346 1.369 . S
C347 C348 1.410 . S
C347 C355 1.503 . S
C348 C347 1.410 . S
C348 C349 1.392 . S
C348 C351 1.511 . S
C349 C345 1.376 . S
C349 C348 1.392 . S
C349 H361 0.929 . S
C350 C346 1.531 . S
C350 H362 0.960 . S
C350 H363 0.962 . S
C350 H364 0.960 . S
C351 C348 1.511 . S
C351 H365 0.961 . S
C351 H366 0.961 . S
C351 H367 0.961 . S
C352 C353 1.370 . S
C352 C354 1.363 . S
C352 H368 0.931 . S
C353 C352 1.370 . S
C353 C357 1.408 . S
C354 C352 1.363 . S
C354 C355 1.370 . S
C354 C358 1.524 . S
C355 C347 1.503 . S
C355 C354 1.370 . S
C355 C356 1.403 . S
C356 C355 1.403 . S
C356 C357 1.404 . S
C356 C359 1.539 . S
C357 C353 1.408 . S
C357 C356 1.404 . S
C357 H369 0.930 . S
C358 C354 1.524 . S
C358 H370 0.956 . S
C358 H371 0.961 . S
C358 H372 0.961 . S
C359 C356 1.539 . S
C359 H373 0.958 . S
C359 H374 0.961 . S
C359 H375 0.960 . S
H360 C344 0.931 . S
H361 C349 0.929 . S
H362 C350 0.960 . S
H363 C350 0.962 . S
H364 C350 0.960 . S
H365 C351 0.961 . S
H366 C351 0.961 . S
H367 C351 0.961 . S
H368 C352 0.931 . S
H369 C357 0.930 . S
H370 C358 0.956 . S
H371 C358 0.961 . S
H372 C358 0.961 . S
H373 C359 0.958 . S
H374 C359 0.961 . S
H375 C359 0.960 . S
C376 C377 1.391 . S
C376 C378 1.394 . S
C376 H392 0.931 . S
C377 C376 1.391 . S
C377 C381 1.376 . S
C378 C376 1.394 . S
C378 C379 1.369 . S
C378 C382 1.531 . S
C379 C378 1.369 . S
C379 C380 1.410 . S
C379 C387 1.503 . S
C380 C379 1.410 . S
C380 C381 1.392 . S
C380 C383 1.511 . S
C381 C377 1.376 . S
C381 C380 1.392 . S
C381 H393 0.929 . S
C382 C378 1.531 . S
C382 H394 0.960 . S
C382 H395 0.962 . S
C382 H396 0.960 . S
C383 C380 1.511 . S
C383 H397 0.961 . S
C383 H398 0.961 . S
C383 H399 0.961 . S
C384 C385 1.370 . S
C384 C386 1.363 . S
C384 H400 0.931 . S
C385 C384 1.370 . S
C385 C389 1.408 . S
C386 C384 1.363 . S
C386 C387 1.370 . S
C386 C390 1.524 . S
C387 C379 1.503 . S
C387 C386 1.370 . S
C387 C388 1.403 . S
C388 C387 1.403 . S
C388 C389 1.404 . S
C388 C391 1.539 . S
C389 C385 1.408 . S
C389 C388 1.404 . S
C389 H401 0.930 . S
C390 C386 1.524 . S
C390 H402 0.956 . S
C390 H403 0.961 . S
C390 H404 0.961 . S
C391 C388 1.539 . S
C391 H405 0.958 . S
C391 H406 0.961 . S
C391 H407 0.960 . S
H392 C376 0.931 . S
H393 C381 0.929 . S
H394 C382 0.960 . S
H395 C382 0.962 . S
H396 C382 0.960 . S
H397 C383 0.961 . S
H398 C383 0.961 . S
H399 C383 0.961 . S
H400 C384 0.931 . S
H401 C389 0.930 . S
H402 C390 0.956 . S
H403 C390 0.961 . S
H404 C390 0.961 . S
H405 C391 0.958 . S
H406 C391 0.961 . S
H407 C391 0.960 . S
C408 C409 1.391 . S
C408 C410 1.394 . S
C408 H424 0.931 . S
C409 C408 1.391 . S
C409 C413 1.376 . S
C410 C408 1.394 . S
C410 C411 1.369 . S
C410 C414 1.531 . S
C411 C410 1.369 . S
C411 C412 1.410 . S
C411 C419 1.503 . S
C412 C411 1.410 . S
C412 C413 1.392 . S
C412 C415 1.511 . S
C413 C409 1.376 . S
C413 C412 1.392 . S
C413 H425 0.929 . S
C414 C410 1.531 . S
C414 H426 0.960 . S
C414 H427 0.962 . S
C414 H428 0.960 . S
C415 C412 1.511 . S
C415 H429 0.961 . S
C415 H430 0.961 . S
C415 H431 0.961 . S
C416 C417 1.370 . S
C416 C418 1.363 . S
C416 H432 0.931 . S
C417 C416 1.370 . S
C417 C421 1.408 . S
C418 C416 1.363 . S
C418 C419 1.370 . S
C418 C422 1.524 . S
C419 C411 1.503 . S
C419 C418 1.370 . S
C419 C420 1.403 . S
C420 C419 1.403 . S
C420 C421 1.404 . S
C420 C423 1.539 . S
C421 C417 1.408 . S
C421 C420 1.404 . S
C421 H433 0.930 . S
C422 C418 1.524 . S
C422 H434 0.956 . S
C422 H435 0.961 . S
C422 H436 0.961 . S
C423 C420 1.539 . S
C423 H437 0.958 . S
C423 H438 0.961 . S
C423 H439 0.960 . S
H424 C408 0.931 . S
H425 C413 0.929 . S
H426 C414 0.960 . S
H427 C414 0.962 . S
H428 C414 0.960 . S
H429 C415 0.961 . S
H430 C415 0.961 . S
H431 C415 0.961 . S
H432 C416 0.931 . S
H433 C421 0.930 . S
H434 C422 0.956 . S
H435 C422 0.961 . S
H436 C422 0.961 . S
H437 C423 0.958 . S
H438 C423 0.961 . S
H439 C423 0.960 . S
C440 C441 1.391 . S
C440 C442 1.394 . S
C440 H456 0.931 . S
C441 C440 1.391 . S
C441 C445 1.376 . S
C442 C440 1.394 . S
C442 C443 1.369 . S
C442 C446 1.531 . S
C443 C442 1.369 . S
C443 C444 1.410 . S
C443 C451 1.503 . S
C444 C443 1.410 . S
C444 C445 1.392 . S
C444 C447 1.511 . S
C445 C441 1.376 . S
C445 C444 1.392 . S
C445 H457 0.929 . S
C446 C442 1.531 . S
C446 H458 0.960 . S
C446 H459 0.962 . S
C446 H460 0.960 . S
C447 C444 1.511 . S
C447 H461 0.961 . S
C447 H462 0.961 . S
C447 H463 0.961 . S
C448 C449 1.370 . S
C448 C450 1.363 . S
C448 H464 0.931 . S
C449 C448 1.370 . S
C449 C453 1.408 . S
C450 C448 1.363 . S
C450 C451 1.370 . S
C450 C454 1.524 . S
C451 C443 1.503 . S
C451 C450 1.370 . S
C451 C452 1.403 . S
C452 C451 1.403 . S
C452 C453 1.404 . S
C452 C455 1.539 . S
C453 C449 1.408 . S
C453 C452 1.404 . S
C453 H465 0.930 . S
C454 C450 1.524 . S
C454 H466 0.956 . S
C454 H467 0.961 . S
C454 H468 0.961 . S
C455 C452 1.539 . S
C455 H469 0.958 . S
C455 H470 0.961 . S
C455 H471 0.960 . S
H456 C440 0.931 . S
H457 C445 0.929 . S
H458 C446 0.960 . S
H459 C446 0.962 . S
H460 C446 0.960 . S
H461 C447 0.961 . S
H462 C447 0.961 . S
H463 C447 0.961 . S
H464 C448 0.931 . S
H465 C453 0.930 . S
H466 C454 0.956 . S
H467 C454 0.961 . S
H468 C454 0.961 . S
H469 C455 0.958 . S
H470 C455 0.961 . S
H471 C455 0.960 . S
C472 C473 1.391 . S
C472 C474 1.394 . S
C472 H488 0.931 . S
C473 C472 1.391 . S
C473 C477 1.376 . S
C474 C472 1.394 . S
C474 C475 1.369 . S
C474 C478 1.531 . S
C475 C474 1.369 . S
C475 C476 1.410 . S
C475 C483 1.503 . S
C476 C475 1.410 . S
C476 C477 1.392 . S
C476 C479 1.511 . S
C477 C473 1.376 . S
C477 C476 1.392 . S
C477 H489 0.929 . S
C478 C474 1.531 . S
C478 H490 0.960 . S
C478 H491 0.962 . S
C478 H492 0.960 . S
C479 C476 1.511 . S
C479 H493 0.961 . S
C479 H494 0.961 . S
C479 H495 0.961 . S
C480 C481 1.370 . S
C480 C482 1.363 . S
C480 H496 0.931 . S
C481 C480 1.370 . S
C481 C485 1.408 . S
C482 C480 1.363 . S
C482 C483 1.370 . S
C482 C486 1.524 . S
C483 C475 1.503 . S
C483 C482 1.370 . S
C483 C484 1.403 . S
C484 C483 1.403 . S
C484 C485 1.404 . S
C484 C487 1.539 . S
C485 C481 1.408 . S
C485 C484 1.404 . S
C485 H497 0.930 . S
C486 C482 1.524 . S
C486 H498 0.956 . S
C486 H499 0.961 . S
C486 H500 0.961 . S
C487 C484 1.539 . S
C487 H501 0.958 . S
C487 H502 0.961 . S
C487 H503 0.960 . S
H488 C472 0.931 . S
H489 C477 0.929 . S
H490 C478 0.960 . S
H491 C478 0.962 . S
H492 C478 0.960 . S
H493 C479 0.961 . S
H494 C479 0.961 . S
H495 C479 0.961 . S
H496 C480 0.931 . S
H497 C485 0.930 . S
H498 C486 0.956 . S
H499 C486 0.961 . S
H500 C486 0.961 . S
H501 C487 0.958 . S
H502 C487 0.961 . S
H503 C487 0.960 . S
C504 C505 1.391 . S
C504 C506 1.394 . S
C504 H520 0.931 . S
C505 C504 1.391 . S
C505 C509 1.376 . S
C506 C504 1.394 . S
C506 C507 1.369 . S
C506 C510 1.531 . S
C507 C506 1.369 . S
C507 C508 1.410 . S
C507 C515 1.503 . S
C508 C507 1.410 . S
C508 C509 1.392 . S
C508 C511 1.511 . S
C509 C505 1.376 . S
C509 C508 1.392 . S
C509 H521 0.929 . S
C510 C506 1.531 . S
C510 H522 0.960 . S
C510 H523 0.962 . S
C510 H524 0.960 . S
C511 C508 1.511 . S
C511 H525 0.961 . S
C511 H526 0.961 . S
C511 H527 0.961 . S
C512 C513 1.370 . S
C512 C514 1.363 . S
C512 H528 0.931 . S
C513 C512 1.370 . S
C513 C517 1.408 . S
C514 C512 1.363 . S
C514 C515 1.370 . S
C514 C518 1.524 . S
C515 C507 1.503 . S
C515 C514 1.370 . S
C515 C516 1.403 . S
C516 C515 1.403 . S
C516 C517 1.404 . S
C516 C519 1.539 . S
C517 C513 1.408 . S
C517 C516 1.404 . S
C517 H529 0.930 . S
C518 C514 1.524 . S
C518 H530 0.956 . S
C518 H531 0.961 . S
C518 H532 0.961 . S
C519 C516 1.539 . S
C519 H533 0.958 . S
C519 H534 0.961 . S
C519 H535 0.960 . S
H520 C504 0.931 . S
H521 C509 0.929 . S
H522 C510 0.960 . S
H523 C510 0.962 . S
H524 C510 0.960 . S
H525 C511 0.961 . S
H526 C511 0.961 . S
H527 C511 0.961 . S
H528 C512 0.931 . S
H529 C517 0.930 . S
H530 C518 0.956 . S
H531 C518 0.961 . S
H532 C518 0.961 . S
H533 C519 0.958 . S
H534 C519 0.961 . S
H535 C519 0.960 . S
C536 C537 1.391 . S
C536 C538 1.394 . S
C536 H552 0.931 . S
C537 C536 1.391 . S
C537 C541 1.376 . S
C538 C536 1.394 . S
C538 C539 1.369 . S
C538 C542 1.531 . S
C539 C538 1.369 . S
C539 C540 1.410 . S
C539 C547 1.503 . S
C540 C539 1.410 . S
C540 C541 1.392 . S
C540 C543 1.511 . S
C541 C537 1.376 . S
C541 C540 1.392 . S
C541 H553 0.929 . S
C542 C538 1.531 . S
C542 H554 0.960 . S
C542 H555 0.962 . S
C542 H556 0.960 . S
C543 C540 1.511 . S
C543 H557 0.961 . S
C543 H558 0.961 . S
C543 H559 0.961 . S
C544 C545 1.370 . S
C544 C546 1.363 . S
C544 H560 0.931 . S
C545 C544 1.370 . S
C545 C549 1.408 . S
C546 C544 1.363 . S
C546 C547 1.370 . S
C546 C550 1.524 . S
C547 C539 1.503 . S
C547 C546 1.370 . S
C547 C548 1.403 . S
C548 C547 1.403 . S
C548 C549 1.404 . S
C548 C551 1.539 . S
C549 C545 1.408 . S
C549 C548 1.404 . S
C549 H561 0.930 . S
C550 C546 1.524 . S
C550 H562 0.956 . S
C550 H563 0.961 . S
C550 H564 0.961 . S
C551 C548 1.539 . S
C551 H565 0.958 . S
C551 H566 0.961 . S
C551 H567 0.960 . S
H552 C536 0.931 . S
H553 C541 0.929 . S
H554 C542 0.960 . S
H555 C542 0.962 . S
H556 C542 0.960 . S
H557 C543 0.961 . S
H558 C543 0.961 . S
H559 C543 0.961 . S
H560 C544 0.931 . S
H561 C549 0.930 . S
H562 C550 0.956 . S
H563 C550 0.961 . S
H564 C550 0.961 . S
H565 C551 0.958 . S
H566 C551 0.961 . S
H567 C551 0.960 . S
C568 C569 1.391 . S
C568 C570 1.394 . S
C568 H584 0.931 . S
C569 C568 1.391 . S
C569 C573 1.376 . S
C570 C568 1.394 . S
C570 C571 1.369 . S
C570 C574 1.531 . S
C571 C570 1.369 . S
C571 C572 1.410 . S
C571 C579 1.503 . S
C572 C571 1.410 . S
C572 C573 1.392 . S
C572 C575 1.511 . S
C573 C569 1.376 . S
C573 C572 1.392 . S
C573 H585 0.929 . S
C574 C570 1.531 . S
C574 H586 0.960 . S
C574 H587 0.962 . S
C574 H588 0.960 . S
C575 C572 1.511 . S
C575 H589 0.961 . S
C575 H590 0.961 . S
C575 H591 0.961 . S
C576 C577 1.370 . S
C576 C578 1.363 . S
C576 H592 0.931 . S
C577 C576 1.370 . S
C577 C581 1.408 . S
C578 C576 1.363 . S
C578 C579 1.370 . S
C578 C582 1.524 . S
C579 C571 1.503 . S
C579 C578 1.370 . S
C579 C580 1.403 . S
C580 C579 1.403 . S
C580 C581 1.404 . S
C580 C583 1.539 . S
C581 C577 1.408 . S
C581 C580 1.404 . S
C581 H593 0.930 . S
C582 C578 1.524 . S
C582 H594 0.956 . S
C582 H595 0.961 . S
C582 H596 0.961 . S
C583 C580 1.539 . S
C583 H597 0.958 . S
C583 H598 0.961 . S
C583 H599 0.960 . S
H584 C568 0.931 . S
H585 C573 0.929 . S
H586 C574 0.960 . S
H587 C574 0.962 . S
H588 C574 0.960 . S
H589 C575 0.961 . S
H590 C575 0.961 . S
H591 C575 0.961 . S
H592 C576 0.931 . S
H593 C581 0.930 . S
H594 C582 0.956 . S
H595 C582 0.961 . S
H596 C582 0.961 . S
H597 C583 0.958 . S
H598 C583 0.961 . S
H599 C583 0.960 . S
C600 C601 1.391 . S
C600 C602 1.394 . S
C600 H616 0.931 . S
C601 C600 1.391 . S
C601 C605 1.376 . S
C602 C600 1.394 . S
C602 C603 1.369 . S
C602 C606 1.531 . S
C603 C602 1.369 . S
C603 C604 1.410 . S
C603 C611 1.503 . S
C604 C603 1.410 . S
C604 C605 1.392 . S
C604 C607 1.511 . S
C605 C601 1.376 . S
C605 C604 1.392 . S
C605 H617 0.929 . S
C606 C602 1.531 . S
C606 H618 0.960 . S
C606 H619 0.962 . S
C606 H620 0.960 . S
C607 C604 1.511 . S
C607 H621 0.961 . S
C607 H622 0.961 . S
C607 H623 0.961 . S
C608 C609 1.370 . S
C608 C610 1.363 . S
C608 H624 0.931 . S
C609 C608 1.370 . S
C609 C613 1.408 . S
C610 C608 1.363 . S
C610 C611 1.370 . S
C610 C614 1.524 . S
C611 C603 1.503 . S
C611 C610 1.370 . S
C611 C612 1.403 . S
C612 C611 1.403 . S
C612 C613 1.404 . S
C612 C615 1.539 . S
C613 C609 1.408 . S
C613 C612 1.404 . S
C613 H625 0.930 . S
C614 C610 1.524 . S
C614 H626 0.956 . S
C614 H627 0.961 . S
C614 H628 0.961 . S
C615 C612 1.539 . S
C615 H629 0.958 . S
C615 H630 0.961 . S
C615 H631 0.960 . S
H616 C600 0.931 . S
H617 C605 0.929 . S
H618 C606 0.960 . S
H619 C606 0.962 . S
H620 C606 0.960 . S
H621 C607 0.961 . S
H622 C607 0.961 . S
H623 C607 0.961 . S
H624 C608 0.931 . S
H625 C613 0.930 . S
H626 C614 0.956 . S
H627 C614 0.961 . S
H628 C614 0.961 . S
H629 C615 0.958 . S
H630 C615 0.961 . S
H631 C615 0.960 . S
C632 C633 1.391 . S
C632 C634 1.394 . S
C632 H648 0.931 . S
C633 C632 1.391 . S
C633 C637 1.376 . S
C634 C632 1.394 . S
C634 C635 1.369 . S
C634 C638 1.531 . S
C635 C634 1.369 . S
C635 C636 1.410 . S
C635 C643 1.503 . S
C636 C635 1.410 . S
C636 C637 1.392 . S
C636 C639 1.511 . S
C637 C633 1.376 . S
C637 C636 1.392 . S
C637 H649 0.929 . S
C638 C634 1.531 . S
C638 H650 0.960 . S
C638 H651 0.962 . S
C638 H652 0.960 . S
C639 C636 1.511 . S
C639 H653 0.961 . S
C639 H654 0.961 . S
C639 H655 0.961 . S
C640 C641 1.370 . S
C640 C642 1.363 . S
C640 H656 0.931 . S
C641 C640 1.370 . S
C641 C645 1.408 . S
C642 C640 1.363 . S
C642 C643 1.370 . S
C642 C646 1.524 . S
C643 C635 1.503 . S
C643 C642 1.370 . S
C643 C644 1.403 . S
C644 C643 1.403 . S
C644 C645 1.404 . S
C644 C647 1.539 . S
C645 C641 1.408 . S
C645 C644 1.404 . S
C645 H657 0.930 . S
C646 C642 1.524 . S
C646 H658 0.956 . S
C646 H659 0.961 . S
C646 H660 0.961 . S
C647 C644 1.539 . S
C647 H661 0.958 . S
C647 H662 0.961 . S
C647 H663 0.960 . S
H648 C632 0.931 . S
H649 C637 0.929 . S
H650 C638 0.960 . S
H651 C638 0.962 . S
H652 C638 0.960 . S
H653 C639 0.961 . S
H654 C639 0.961 . S
H655 C639 0.961 . S
H656 C640 0.931 . S
H657 C645 0.930 . S
H658 C646 0.956 . S
H659 C646 0.961 . S
H660 C646 0.961 . S
H661 C647 0.958 . S
H662 C647 0.961 . S
H663 C647 0.960 . S
C664 C665 1.391 . S
C664 C666 1.394 . S
C664 H680 0.931 . S
C665 C664 1.391 . S
C665 C669 1.376 . S
C666 C664 1.394 . S
C666 C667 1.369 . S
C666 C670 1.531 . S
C667 C666 1.369 . S
C667 C668 1.410 . S
C667 C675 1.503 . S
C668 C667 1.410 . S
C668 C669 1.392 . S
C668 C671 1.511 . S
C669 C665 1.376 . S
C669 C668 1.392 . S
C669 H681 0.929 . S
C670 C666 1.531 . S
C670 H682 0.960 . S
C670 H683 0.962 . S
C670 H684 0.960 . S
C671 C668 1.511 . S
C671 H685 0.961 . S
C671 H686 0.961 . S
C671 H687 0.961 . S
C672 C673 1.370 . S
C672 C674 1.363 . S
C672 H688 0.931 . S
C673 C672 1.370 . S
C673 C677 1.408 . S
C674 C672 1.363 . S
C674 C675 1.370 . S
C674 C678 1.524 . S
C675 C667 1.503 . S
C675 C674 1.370 . S
C675 C676 1.403 . S
C676 C675 1.403 . S
C676 C677 1.404 . S
C676 C679 1.539 . S
C677 C673 1.408 . S
C677 C676 1.404 . S
C677 H689 0.930 . S
C678 C674 1.524 . S
C678 H690 0.956 . S
C678 H691 0.961 . S
C678 H692 0.961 . S
C679 C676 1.539 . S
C679 H693 0.958 . S
C679 H694 0.961 . S
C679 H695 0.960 . S
H680 C664 0.931 . S
H681 C669 0.929 . S
H682 C670 0.960 . S
H683 C670 0.962 . S
H684 C670 0.960 . S
H685 C671 0.961 . S
H686 C671 0.961 . S
H687 C671 0.961 . S
H688 C672 0.931 . S
H689 C677 0.930 . S
H690 C678 0.956 . S
H691 C678 0.961 . S
H692 C678 0.961 . S
H693 C679 0.958 . S
H694 C679 0.961 . S
H695 C679 0.960 . S
C696 C697 1.391 . S
C696 C698 1.394 . S
C696 H712 0.914 1_455 S
C697 C696 1.391 . S
C697 C701 1.376 . S
C698 C696 1.394 . S
C698 C699 1.369 . S
C698 C702 1.531 1_455 S
C699 C698 1.369 . S
C699 C700 1.410 . S
C699 C707 1.503 . S
C700 C699 1.410 . S
C700 C701 1.392 . S
C700 C703 1.511 . S
C701 C697 1.376 . S
C701 C700 1.392 . S
C701 H713 0.929 . S
C702 C698 1.531 1_655 S
C702 H714 0.960 1_655 S
C702 H715 0.962 . S
C702 H716 0.960 . S
C703 C700 1.511 . S
C703 H717 0.961 . S
C703 H718 0.961 . S
C703 H719 0.961 . S
C704 C705 1.370 1_654 S
C704 C706 1.363 . S
C704 H720 0.931 . S
C705 C704 1.370 1_456 S
C705 C709 1.408 1_556 S
C706 C704 1.363 . S
C706 C707 1.370 1_655 S
C706 C710 1.524 . S
C707 C699 1.503 . S
C707 C706 1.370 1_455 S
C707 C708 1.403 . S
C708 C707 1.403 . S
C708 C709 1.404 . S
C708 C711 1.539 . S
C709 C705 1.408 1_554 S
C709 C708 1.404 . S
C709 H721 0.930 1_554 S
C710 C706 1.524 . S
C710 H722 0.956 . S
C710 H723 0.961 . S
C710 H724 0.961 . S
C711 C708 1.539 . S
C711 H725 0.958 . S
C711 H726 0.961 . S
C711 H727 0.960 . S
H712 C696 0.914 1_655 S
H713 C701 0.929 . S
H714 C702 0.960 1_455 S
H715 C702 0.962 . S
H716 C702 0.960 . S
H717 C703 0.961 . S
H718 C703 0.961 . S
H719 C703 0.961 . S
H720 C704 0.931 . S
H721 C709 0.930 1_556 S
H722 C710 0.956 . S
H723 C710 0.961 . S
H724 C710 0.961 . S
H725 C711 0.958 . S
H726 C711 0.961 . S
H727 C711 0.960 . S
C728 C729 1.391 . S
C728 C730 1.394 . S
C728 H744 0.931 1_545 S
C729 C728 1.391 . S
C729 C733 1.376 . S
C730 C728 1.394 . S
C730 C731 1.369 . S
C730 C734 1.531 1_545 S
C731 C730 1.369 . S
C731 C732 1.410 . S
C731 C739 1.503 . S
C732 C731 1.410 . S
C732 C733 1.392 . S
C732 C735 1.511 . S
C733 C729 1.376 . S
C733 C732 1.392 . S
C733 H745 0.929 . S
C734 C730 1.531 1_565 S
C734 H746 0.960 . S
C734 H747 0.962 1_565 S
C734 H748 0.960 . S
C735 C732 1.511 . S
C735 H749 0.961 . S
C735 H750 0.961 . S
C735 H751 0.961 . S
C736 C737 1.370 . S
C736 C738 1.363 . S
C736 H752 0.931 . S
C737 C736 1.370 . S
C737 C741 1.408 . S
C738 C736 1.363 . S
C738 C739 1.370 . S
C738 C742 1.524 . S
C739 C731 1.503 . S
C739 C738 1.370 . S
C739 C740 1.403 . S
C740 C739 1.403 . S
C740 C741 1.404 . S
C740 C743 1.539 1_545 S
C741 C737 1.408 . S
C741 C740 1.404 . S
C741 H753 0.930 1_545 S
C742 C738 1.524 . S
C742 H754 0.956 . S
C742 H755 0.961 . S
C742 H756 0.961 . S
C743 C740 1.539 1_565 S
C743 H757 0.958 . S
C743 H758 0.961 . S
C743 H759 0.960 . S
H744 C728 0.931 1_565 S
H745 C733 0.929 . S
H746 C734 0.960 . S
H747 C734 0.962 1_545 S
H748 C734 0.960 . S
H749 C735 0.961 . S
H750 C735 0.961 . S
H751 C735 0.961 . S
H752 C736 0.931 . S
H753 C741 0.930 1_565 S
H754 C742 0.956 . S
H755 C742 0.961 . S
H756 C742 0.961 . S
H757 C743 0.958 . S
H758 C743 0.961 . S
H759 C743 0.960 . S
C760 C761 1.391 . S
C760 C762 1.394 . S
C760 H776 0.931 . S
C761 C760 1.391 . S
C761 C765 1.376 . S
C762 C760 1.394 . S
C762 C763 1.369 . S
C762 C766 1.531 . S
C763 C762 1.369 . S
C763 C764 1.410 . S
C763 C771 1.503 . S
C764 C763 1.410 . S
C764 C765 1.392 . S
C764 C767 1.511 . S
C765 C761 1.376 . S
C765 C764 1.392 . S
C765 H777 0.929 . S
C766 C762 1.531 . S
C766 H778 0.960 . S
C766 H779 0.962 . S
C766 H780 0.960 . S
C767 C764 1.511 . S
C767 H781 0.961 . S
C767 H782 0.961 . S
C767 H783 0.961 . S
C768 C769 1.370 . S
C768 C770 1.363 . S
C768 H784 0.931 . S
C769 C768 1.370 . S
C769 C773 1.408 . S
C770 C768 1.363 . S
C770 C771 1.370 . S
C770 C774 1.524 . S
C771 C763 1.503 . S
C771 C770 1.370 . S
C771 C772 1.403 . S
C772 C771 1.403 . S
C772 C773 1.404 . S
C772 C775 1.539 . S
C773 C769 1.408 . S
C773 C772 1.404 . S
C773 H785 0.930 . S
C774 C770 1.524 . S
C774 H786 0.956 . S
C774 H787 0.961 . S
C774 H788 0.961 . S
C775 C772 1.539 . S
C775 H789 0.958 . S
C775 H790 0.961 . S
C775 H791 0.960 . S
H776 C760 0.931 . S
H777 C765 0.929 . S
H778 C766 0.960 . S
H779 C766 0.962 . S
H780 C766 0.960 . S
H781 C767 0.961 . S
H782 C767 0.961 . S
H783 C767 0.961 . S
H784 C768 0.931 . S
H785 C773 0.930 . S
H786 C774 0.956 . S
H787 C774 0.961 . S
H788 C774 0.961 . S
H789 C775 0.958 . S
H790 C775 0.961 . S
H791 C775 0.960 . S
C792 C793 1.391 . S
C792 C794 1.394 . S
C792 H808 0.931 . S
C793 C792 1.391 . S
C793 C797 1.376 . S
C794 C792 1.394 . S
C794 C795 1.369 . S
C794 C798 1.531 . S
C795 C794 1.369 . S
C795 C796 1.410 . S
C795 C803 1.503 . S
C796 C795 1.410 . S
C796 C797 1.392 . S
C796 C799 1.511 1_545 S
C797 C793 1.376 . S
C797 C796 1.392 . S
C797 H809 0.929 1_545 S
C798 C794 1.531 . S
C798 H810 0.960 . S
C798 H811 0.962 . S
C798 H812 0.960 . S
C799 C796 1.511 1_565 S
C799 H813 0.961 . S
C799 H814 0.961 . S
C799 H815 0.961 1_565 S
C800 C801 1.370 1_565 S
C800 C802 1.363 . S
C800 H816 0.931 . S
C801 C800 1.370 1_545 S
C801 C805 1.408 . S
C802 C800 1.363 . S
C802 C803 1.370 1_565 S
C802 C806 1.524 . S
C803 C795 1.503 . S
C803 C802 1.370 1_545 S
C803 C804 1.403 . S
C804 C803 1.403 . S
C804 C805 1.404 . S
C804 C807 1.539 . S
C805 C801 1.408 . S
C805 C804 1.404 . S
C805 H817 0.930 . S
C806 C802 1.524 . S
C806 H818 0.956 . S
C806 H819 0.961 . S
C806 H820 0.961 . S
C807 C804 1.539 . S
C807 H821 0.958 . S
C807 H822 0.961 . S
C807 H823 0.960 . S
H808 C792 0.931 . S
H809 C797 0.929 1_565 S
H810 C798 0.960 . S
H811 C798 0.962 . S
H812 C798 0.960 . S
H813 C799 0.961 . S
H814 C799 0.961 . S
H815 C799 0.961 1_545 S
H816 C800 0.931 . S
H817 C805 0.930 . S
H818 C806 0.956 . S
H819 C806 0.961 . S
H820 C806 0.961 . S
H821 C807 0.958 . S
H822 C807 0.961 . S
H823 C807 0.960 . S
C824 C825 1.391 . S
C824 C826 1.394 . S
C824 H840 0.931 . S
C825 C824 1.391 . S
C825 C829 1.376 . S
C826 C824 1.394 . S
C826 C827 1.369 . S
C826 C830 1.531 . S
C827 C826 1.369 . S
C827 C828 1.410 . S
C827 C835 1.503 . S
C828 C827 1.410 . S
C828 C829 1.392 . S
C828 C831 1.511 . S
C829 C825 1.376 . S
C829 C828 1.392 . S
C829 H841 0.929 . S
C830 C826 1.531 . S
C830 H842 0.960 . S
C830 H843 0.962 . S
C830 H844 0.960 . S
C831 C828 1.511 . S
C831 H845 0.961 . S
C831 H846 0.961 . S
C831 H847 0.961 . S
C832 C833 1.370 . S
C832 C834 1.363 1_554 S
C832 H848 0.931 . S
C833 C832 1.370 . S
C833 C837 1.408 . S
C834 C832 1.363 1_556 S
C834 C835 1.370 . S
C834 C838 1.524 . S
C835 C827 1.503 . S
C835 C834 1.370 . S
C835 C836 1.403 . S
C836 C835 1.403 . S
C836 C837 1.404 1_556 S
C836 C839 1.539 . S
C837 C833 1.408 . S
C837 C836 1.404 1_554 S
C837 H849 0.930 . S
C838 C834 1.524 . S
C838 H850 0.956 . S
C838 H851 0.961 . S
C838 H852 0.961 . S
C839 C836 1.539 . S
C839 H853 0.958 . S
C839 H854 0.961 . S
C839 H855 0.960 . S
H840 C824 0.931 . S
H841 C829 0.929 . S
H842 C830 0.960 . S
H843 C830 0.962 . S
H844 C830 0.960 . S
H845 C831 0.961 . S
H846 C831 0.961 . S
H847 C831 0.961 . S
H848 C832 0.931 . S
H849 C837 0.930 . S
H850 C838 0.956 . S
H851 C838 0.961 . S
H852 C838 0.961 . S
H853 C839 0.958 . S
H854 C839 0.961 . S
H855 C839 0.960 . S
C856 C857 1.391 . S
C856 C858 1.394 . S
C856 H872 0.931 . S
C857 C856 1.391 . S
C857 C861 1.376 1_455 S
C858 C856 1.394 . S
C858 C859 1.369 . S
C858 C862 1.531 . S
C859 C858 1.369 . S
C859 C860 1.410 1_455 S
C859 C867 1.503 . S
C860 C859 1.410 1_655 S
C860 C861 1.392 . S
C860 C863 1.511 . S
C861 C857 1.376 1_655 S
C861 C860 1.392 . S
C861 H873 0.929 . S
C862 C858 1.531 . S
C862 H874 0.960 . S
C862 H875 0.962 . S
C862 H876 0.960 . S
C863 C860 1.511 . S
C863 H877 0.961 . S
C863 H878 0.961 . S
C863 H879 0.961 . S
C864 C865 1.370 . S
C864 C866 1.363 . S
C864 H880 0.931 . S
C865 C864 1.370 . S
C865 C869 1.408 . S
C866 C864 1.363 . S
C866 C867 1.370 . S
C866 C870 1.524 . S
C867 C859 1.503 . S
C867 C866 1.370 . S
C867 C868 1.403 . S
C868 C867 1.403 . S
C868 C869 1.404 . S
C868 C871 1.539 . S
C869 C865 1.408 . S
C869 C868 1.404 . S
C869 H881 0.930 . S
C870 C866 1.524 . S
C870 H882 0.956 . S
C870 H883 0.961 . S
C870 H884 0.961 . S
C871 C868 1.539 . S
C871 H885 0.958 . S
C871 H886 0.961 . S
C871 H887 0.960 . S
H872 C856 0.931 . S
H873 C861 0.929 . S
H874 C862 0.960 . S
H875 C862 0.962 . S
H876 C862 0.960 . S
H877 C863 0.961 . S
H878 C863 0.961 . S
H879 C863 0.961 . S
H880 C864 0.931 . S
H881 C869 0.930 . S
H882 C870 0.956 . S
H883 C870 0.961 . S
H884 C870 0.961 . S
H885 C871 0.958 . S
H886 C871 0.961 . S
H887 C871 0.960 . S
C313 C10 2.946 . S
C321 C303 2.913 . S
C345 C59 3.068 . S
C353 C239 3.004 . S
C377 C90 2.981 . S
C385 C271 2.943 . S
C409 C19 3.075 . S
C417 C297 3.017 . S
C449 C233 2.922 . S
C441 C50 2.963 . S
C481 C265 2.988 . S
C473 C99 3.049 . S
C505 C46 0.386 . S
C513 C175 0.401 . S
C537 C95 0.375 . S
C545 C207 0.352 . S
C569 C6 0.485 . S
C577 C137 0.427 . S
C609 C169 0.366 . S
C601 C55 0.501 . S
C641 C201 0.516 . S
C633 C86 0.487 . S
C665 C15 0.336 . S
C673 C143 0.411 . S
C705 C213 1.044 . S
C697 C9 1.034 . S
C729 C49 1.058 . S
C737 C149 1.055 . S
C761 C89 1.087 . S
C769 C181 1.063 . S
C801 C277 1.754 . S
C793 C58 1.683 . S
C833 C309 1.761 . S
C825 C98 1.690 . S
C857 C18 1.734 . S
C865 C245 1.768 . S
