# Generated by pormake.
# Topology zzz, (3,6)-cn, num edge types: 1
# Building blocks:
#     Node 0, Type 0, BuildingBlock: MIDCAF_clean_linker_0, # of connection points: 3
#     Node 1, Type 0, BuildingBlock: MIDCAF_clean_linker_0, # of connection points: 3
#     Node 2, Type 0, BuildingBlock: MIDCAF_clean_linker_0, # of connection points: 3
#     Node 3, Type 0, BuildingBlock: MIDCAF_clean_linker_0, # of connection points: 3
#     Node 4, Type 0, BuildingBlock: MIDCAF_clean_linker_0, # of connection points: 3
#     Node 5, Type 0, BuildingBlock: MIDCAF_clean_linker_0, # of connection points: 3
#     Node 6, Type 0, BuildingBlock: MIDCAF_clean_linker_0, # of connection points: 3
#     Node 7, Type 0, BuildingBlock: MIDCAF_clean_linker_0, # of connection points: 3
#     Node 8, Type 1, BuildingBlock: KUMJIN_clean_sbu_0, # of connection points: 6
#     Node 9, Type 1, BuildingBlock: KUMJIN_clean_sbu_0, # of connection points: 6
#     Node 10, Type 1, BuildingBlock: KUMJIN_clean_sbu_0, # of connection points: 6
#     Node 11, Type 1, BuildingBlock: KUMJIN_clean_sbu_0, # of connection points: 6
#     Edge 12, Type (0, 1), BuildingBlock: ZUJKAS_clean_linker_0, # of connection points: 2
#     Edge 13, Type (0, 1), BuildingBlock: ZUJKAS_clean_linker_0, # of connection points: 2
#     Edge 14, Type (0, 1), BuildingBlock: ZUJKAS_clean_linker_0, # of connection points: 2
#     Edge 15, Type (0, 1), BuildingBlock: ZUJKAS_clean_linker_0, # of connection points: 2
#     Edge 16, Type (0, 1), BuildingBlock: ZUJKAS_clean_linker_0, # of connection points: 2
#     Edge 17, Type (0, 1), BuildingBlock: ZUJKAS_clean_linker_0, # of connection points: 2
#     Edge 18, Type (0, 1), BuildingBlock: ZUJKAS_clean_linker_0, # of connection points: 2
#     Edge 19, Type (0, 1), BuildingBlock: ZUJKAS_clean_linker_0, # of connection points: 2
#     Edge 20, Type (0, 1), BuildingBlock: ZUJKAS_clean_linker_0, # of connection points: 2
#     Edge 21, Type (0, 1), BuildingBlock: ZUJKAS_clean_linker_0, # of connection points: 2
#     Edge 22, Type (0, 1), BuildingBlock: ZUJKAS_clean_linker_0, # of connection points: 2
#     Edge 23, Type (0, 1), BuildingBlock: ZUJKAS_clean_linker_0, # of connection points: 2
#     Edge 24, Type (0, 1), BuildingBlock: ZUJKAS_clean_linker_0, # of connection points: 2
#     Edge 25, Type (0, 1), BuildingBlock: ZUJKAS_clean_linker_0, # of connection points: 2
#     Edge 26, Type (0, 1), BuildingBlock: ZUJKAS_clean_linker_0, # of connection points: 2
#     Edge 27, Type (0, 1), BuildingBlock: ZUJKAS_clean_linker_0, # of connection points: 2
#     Edge 28, Type (0, 1), BuildingBlock: ZUJKAS_clean_linker_0, # of connection points: 2
#     Edge 29, Type (0, 1), BuildingBlock: ZUJKAS_clean_linker_0, # of connection points: 2
#     Edge 30, Type (0, 1), BuildingBlock: ZUJKAS_clean_linker_0, # of connection points: 2
#     Edge 31, Type (0, 1), BuildingBlock: ZUJKAS_clean_linker_0, # of connection points: 2
#     Edge 32, Type (0, 1), BuildingBlock: ZUJKAS_clean_linker_0, # of connection points: 2
#     Edge 33, Type (0, 1), BuildingBlock: ZUJKAS_clean_linker_0, # of connection points: 2
#     Edge 34, Type (0, 1), BuildingBlock: ZUJKAS_clean_linker_0, # of connection points: 2
#     Edge 35, Type (0, 1), BuildingBlock: ZUJKAS_clean_linker_0, # of connection points: 2
# Relax obj value: 0.276
# Max RMSD: 0.228
# Mean RMSD: 0.211
data_MOF--net-zzz--node1-KUMJIN_clean_sbu_0--node2-MIDCAF_clean_linker_0--edge1-ZUJKAS_clean_linker_0
_symmetry_space_group_name_H-M    P1
_symmetry_Int_Tables_number       1
_symmetry_cell_setting            triclinic
loop_
_symmetry_equiv_pos_as_xyz
'x, y, z'
_cell_length_a     71.223241
_cell_length_b     71.036874
_cell_length_c     24.858633
_cell_angle_alpha  90.146339
_cell_angle_beta   90.126211
_cell_angle_gamma 89.939089
loop_
_atom_site_label
_atom_site_type_symbol
_atom_site_fract_x
_atom_site_fract_y
_atom_site_fract_z
_atom_type_partial_charge
C0 C 0.78952 0.55806 0.26497 0.0
C1 C 0.79455 0.53905 0.27142 0.0
C2 C 0.7857 0.52552 0.23836 0.0
C3 C 0.77309 0.53104 0.19767 0.0
H4 H 0.70905 0.5374 0.11278 0.0
H5 H 0.67831 0.53078 0.07145 0.0
H6 H 0.69637 0.55813 0.92566 0.0
H7 H 0.72644 0.56477 0.9659 0.0
H8 H 0.76531 0.58007 0.94925 0.0
H9 H 0.79042 0.5916 0.8915 0.0
H10 H 0.82431 0.60366 0.03157 0.0
H11 H 0.79929 0.59226 0.08944 0.0
H12 H 0.77471 0.57844 0.21777 0.0
H13 H 0.79613 0.56894 0.289 0.0
H14 H 0.7891 0.51073 0.2425 0.0
H15 H 0.76751 0.52049 0.17047 0.0
N16 N 0.7446 0.55095 0.11687 0.0
N17 N 0.75036 0.56853 0.03844 0.0
N18 N 0.77254 0.56835 0.10747 0.0
C19 C 0.73883 0.55713 0.0673 0.0
C20 C 0.76716 0.57421 0.05809 0.0
C21 C 0.76153 0.55678 0.13707 0.0
C22 C 0.72031 0.55182 0.04319 0.0
C23 C 0.70644 0.54193 0.07188 0.0
C24 C 0.68883 0.53812 0.04818 0.0
C25 C 0.68472 0.54424 0.9955 0.0
C26 C 0.69878 0.55364 0.96672 0.0
C27 C 0.71621 0.55736 0.99003 0.0
C28 C 0.78046 0.58484 0.02396 0.0
C29 C 0.7779 0.58564 0.9679 0.0
C30 C 0.79227 0.59224 0.93474 0.0
C31 C 0.80938 0.59833 0.95702 0.0
C32 C 0.81125 0.59916 0.01322 0.0
C33 C 0.79696 0.59243 0.04637 0.0
C34 C 0.76926 0.55019 0.18905 0.0
C35 C 0.77716 0.56355 0.22415 0.0
C36 C 0.97924 0.79452 0.25567 0.0
C37 C 0.99113 0.80962 0.24178 0.0
C38 C 0.99898 0.80971 0.1898 0.0
C39 C 0.99408 0.79592 0.15185 0.0
H40 H 0.99837 0.72392 0.07071 0.0
H41 H 0.00435 0.69331 0.02747 0.0
H42 H 0.94706 0.69209 0.97033 0.0
H43 H 0.94113 0.72211 0.01351 0.0
H44 H 0.93309 0.76494 0.95334 0.0
H45 H 0.9174 0.78652 0.89164 0.0
H46 H 0.92181 0.83096 0.00997 0.0
H47 H 0.93704 0.80949 0.07172 0.0
H48 H 0.96418 0.77004 0.22829 0.0
H49 H 0.97308 0.7938 0.29539 0.0
H50 H 0.00796 0.82114 0.17709 0.0
H51 H 0.9992 0.79726 0.11102 0.0
N52 N 0.9753 0.75325 0.10661 0.0
N53 N 0.95295 0.75567 0.03689 0.0
N54 N 0.95877 0.78155 0.09238 0.0
C55 C 0.96575 0.74521 0.06442 0.0
C56 C 0.94935 0.77379 0.05052 0.0
C57 C 0.97157 0.77153 0.12077 0.0
C58 C 0.96929 0.72555 0.04556 0.0
C59 C 0.987 0.71689 0.0498 0.0
C60 C 0.99046 0.69944 0.0245 0.0
C61 C 0.97621 0.69016 0.99511 0.0
C62 C 0.95836 0.69858 0.99295 0.0
C63 C 0.95499 0.71595 0.01758 0.0
C64 C 0.93674 0.78559 0.01707 0.0
C65 C 0.9303 0.77919 0.96671 0.0
C66 C 0.92131 0.79156 0.93127 0.0
C67 C 0.91853 0.81052 0.94556 0.0
C68 C 0.92354 0.81643 0.99767 0.0
C69 C 0.93253 0.80412 0.03298 0.0
C70 C 0.98142 0.7815 0.16492 0.0
C71 C 0.97441 0.78066 0.2176 0.0
C72 C 0.71332 0.95857 0.25741 0.0
C73 C 0.70856 0.97754 0.26636 0.0
C74 C 0.71902 0.99152 0.23955 0.0
C75 C 0.73275 0.98652 0.20135 0.0
H76 H 0.80365 0.9692 0.12646 0.0
H77 H 0.83436 0.97467 0.08363 0.0
H78 H 0.8068 0.98041 0.92966 0.0
H79 H 0.77664 0.97476 0.97178 0.0
H80 H 0.75359 0.93038 0.95911 0.0
H81 H 0.73296 0.91762 0.88976 0.0
H82 H 0.68591 0.9222 0.99863 0.0
H83 H 0.70651 0.9342 0.06812 0.0
H84 H 0.72917 0.93884 0.21077 0.0
H85 H 0.70596 0.94743 0.27823 0.0
H86 H 0.71574 0.00627 0.24533 0.0
H87 H 0.73952 0.99749 0.17829 0.0
N88 N 0.76256 0.96907 0.1226 0.0
N89 N 0.75986 0.95206 0.04143 0.0
N90 N 0.73624 0.94983 0.10575 0.0
C91 C 0.76975 0.96397 0.07361 0.0
C92 C 0.74318 0.94488 0.05709 0.0
C93 C 0.74568 0.9618 0.13876 0.0
C94 C 0.78777 0.97135 0.0524 0.0
C95 C 0.80421 0.97211 0.08375 0.0
C96 C 0.82177 0.97515 0.05915 0.0
C97 C 0.82309 0.97748 1.00292 0.0
C98 C 0.80641 0.9781 0.97271 0.0
C99 C 0.78907 0.97501 0.997 0.0
C100 C 0.73164 0.93375 0.01885 0.0
C101 C 0.73891 0.92824 0.96864 0.0
C102 C 0.72708 0.92095 0.92878 0.0
C103 C 0.70769 0.91917 0.93808 0.0
C104 C 0.70076 0.92318 0.98986 0.0
C105 C 0.71261 0.93029 0.02981 0.0
C106 C 0.73619 0.96749 0.18932 0.0
C107 C 0.72682 0.95363 0.21921 0.0
C108 C 0.59699 0.71734 0.98328 0.0
C109 C 0.59329 0.72287 0.93005 0.0
C110 C 0.58513 0.74059 0.92072 0.0
C111 C 0.57967 0.75199 0.96391 0.0
H112 H 0.52269 0.79771 0.08429 0.0
H113 H 0.51521 0.82869 0.04579 0.0
H114 H 0.57419 0.84281 0.04694 0.0
H115 H 0.58146 0.81202 0.08482 0.0
H116 H 0.52988 0.75802 0.22082 0.0
H117 H 0.5223 0.73616 0.29429 0.0
H118 H 0.57267 0.70451 0.25945 0.0
H119 H 0.58025 0.72617 0.18791 0.0
H120 H 0.59357 0.72348 0.06686 0.0
H121 H 0.60305 0.70368 0.99187 0.0
H122 H 0.5822 0.74523 0.88008 0.0
H123 H 0.57259 0.76516 0.95544 0.0
N124 N 0.56748 0.774 0.05694 0.0
N125 N 0.55356 0.77328 0.14295 0.0
N126 N 0.56921 0.74669 0.10862 0.0
C127 C 0.55785 0.78281 0.09682 0.0
C128 C 0.55952 0.7551 0.1491 0.0
C129 C 0.57313 0.75592 0.06243 0.0
C130 C 0.55261 0.80268 0.08826 0.0
C131 C 0.53389 0.80777 0.07808 0.0
C132 C 0.52968 0.82538 0.05539 0.0
C133 C 0.54411 0.83822 0.043 0.0
C134 C 0.5627 0.83342 0.05647 0.0
C135 C 0.56689 0.8158 0.07832 0.0
C136 C 0.55561 0.74382 0.19825 0.0
C137 C 0.53946 0.74659 0.22974 0.0
C138 C 0.53505 0.73396 0.27146 0.0
C139 C 0.54687 0.71851 0.28294 0.0
C140 C 0.56334 0.71632 0.25259 0.0
C141 C 0.56762 0.72873 0.21102 0.0
C142 C 0.58203 0.74574 0.01715 0.0
C143 C 0.59135 0.72861 0.02634 0.0
C144 C 0.22448 0.45573 0.8999 0.0
C145 C 0.22094 0.47493 0.89064 0.0
C146 C 0.23159 0.48832 0.91951 0.0
C147 C 0.24479 0.4826 0.95844 0.0
H148 H 0.30329 0.48836 0.06422 0.0
H149 H 0.33392 0.49604 0.1048 0.0
H150 H 0.33697 0.44002 0.17147 0.0
H151 H 0.30691 0.43246 0.13108 0.0
H152 H 0.26135 0.4356 0.20776 0.0
H153 H 0.23884 0.42545 0.27557 0.0
H154 H 0.19914 0.41135 0.15046 0.0
H155 H 0.22149 0.42159 0.08247 0.0
H156 H 0.23889 0.43517 0.94743 0.0
H157 H 0.21645 0.445 0.87911 0.0
H158 H 0.2293 0.50323 0.91317 0.0
H159 H 0.25204 0.49316 0.98209 0.0
N160 N 0.27498 0.46221 0.03223 0.0
N161 N 0.27271 0.44455 0.11204 0.0
N162 N 0.24718 0.44587 0.05328 0.0
C163 C 0.28299 0.45554 0.07857 0.0
C164 C 0.25482 0.43972 0.09993 0.0
C165 C 0.25701 0.45704 0.01927 0.0
C166 C 0.30264 0.45985 0.09461 0.0
C167 C 0.31077 0.47763 0.08654 0.0
C168 C 0.32821 0.48205 0.11024 0.0
C169 C 0.33793 0.46866 0.14163 0.0
C170 C 0.33009 0.45064 0.14719 0.0
C171 C 0.31273 0.44634 0.12423 0.0
C172 C 0.24306 0.42976 0.13972 0.0
C173 C 0.24804 0.42984 0.19452 0.0
C174 C 0.23519 0.42403 0.23343 0.0
C175 C 0.21726 0.41774 0.2182 0.0
C176 C 0.21293 0.416 0.16327 0.0
C177 C 0.22568 0.42205 0.12437 0.0
C178 C 0.24735 0.46339 0.96966 0.0
C179 C 0.23737 0.45007 0.93911 0.0
C180 C 0.04631 0.21547 0.91781 0.0
C181 C 0.02738 0.21156 0.90623 0.0
C182 C 0.01347 0.2223 0.93271 0.0
C183 C 0.01842 0.23598 0.97141 0.0
H184 H 0.00844 0.29202 0.10506 0.0
H185 H 1.00154 0.322 0.15066 0.0
H186 H 0.06088 0.33452 0.15569 0.0
H187 H 0.06757 0.30453 0.1124 0.0
H188 H 0.07352 0.26102 0.21291 0.0
H189 H 0.08695 0.24153 0.28378 0.0
H190 H 0.08764 0.19388 0.17549 0.0
H191 H 0.07466 0.21332 0.10447 0.0
H192 H 0.06591 0.23076 0.96638 0.0
H193 H 0.05745 0.20743 0.89905 0.0
H194 H 0.99874 0.21979 0.92453 0.0
H195 H 0.00745 0.24334 0.99306 0.0
N196 N 0.03696 0.26739 0.0455 0.0
N197 N 0.05552 0.26711 0.12422 0.0
N198 N 0.05504 0.24076 0.06816 0.0
C199 C 0.04354 0.27631 0.09074 0.0
C200 C 0.06121 0.2493 0.11356 0.0
C201 C 0.04305 0.24953 0.03388 0.0
C202 C 0.03854 0.29598 0.10505 0.0
C203 C 0.01989 0.30148 0.11469 0.0
C204 C 0.01598 0.31864 0.1411 0.0
C205 C 0.03067 0.33061 0.15818 0.0
C206 C 0.04919 0.32552 0.14487 0.0
C207 C 0.05305 0.30842 0.11924 0.0
C208 C 0.07258 0.23865 0.15326 0.0
C209 C 0.07693 0.2465 0.20377 0.0
C210 C 0.08461 0.23533 0.24448 0.0
C211 C 0.08812 0.21609 0.23555 0.0
C212 C 0.08524 0.20867 0.18373 0.0
C213 C 0.07758 0.21982 0.14304 0.0
C214 C 0.03736 0.239 0.98477 0.0
C215 C 0.05119 0.22888 0.9566 0.0
C216 C 0.30462 0.01934 0.9444 0.0
C217 C 0.30415 0.02744 0.89276 0.0
C218 C 0.28936 0.03994 0.88045 0.0
C219 C 0.27638 0.04535 0.92002 0.0
H220 H 0.22113 0.02469 0.06437 0.0
H221 H 0.19072 0.0192 0.10805 0.0
H222 H 0.19539 0.0728 0.18924 0.0
H223 H 0.22527 0.07833 0.14579 0.0
H224 H 0.27164 0.08123 0.19328 0.0
H225 H 0.29634 0.09494 0.24835 0.0
H226 H 0.33114 0.10122 0.1073 0.0
H227 H 0.30665 0.08684 0.05252 0.0
H228 H 0.29339 0.01949 0.02437 0.0
H229 H 0.31586 0.00988 0.95589 0.0
H230 H 0.28835 0.04627 0.84097 0.0
H231 H 0.26612 0.05614 0.91071 0.0
N232 N 0.25151 0.04545 0.03554 0.0
N233 N 0.25649 0.06742 0.10527 0.0
N234 N 0.28048 0.0611 0.04402 0.0
C235 C 0.24495 0.05506 0.07948 0.0
C236 C 0.27421 0.07057 0.08769 0.0
C237 C 0.26936 0.04866 0.01769 0.0
C238 C 0.22575 0.05192 0.10157 0.0
C239 C 0.21552 0.03537 0.09101 0.0
C240 C 0.19816 0.03217 0.11638 0.0
C241 C 0.19055 0.04556 0.15221 0.0
C242 C 0.20061 0.06226 0.16146 0.0
C243 C 0.21791 0.06537 0.1367 0.0
C244 C 0.28735 0.08254 0.11876 0.0
C245 C 0.28438 0.08592 0.17378 0.0
C246 C 0.29855 0.09394 0.20537 0.0
C247 C 0.31591 0.09892 0.18245 0.0
C248 C 0.31814 0.09713 0.12648 0.0
C249 C 0.30407 0.08891 0.09506 0.0
C250 C 0.27781 0.03823 0.97246 0.0
C251 C 0.29167 0.02475 0.98377 0.0
C252 C 0.40772 0.3216 0.14325 0.0
C253 C 0.40849 0.32087 0.19977 0.0
C254 C 0.41507 0.30427 0.2243 0.0
C255 C 0.42199 0.28939 0.19313 0.0
H256 H 0.42673 0.22981 0.17422 0.0
H257 H 0.43174 0.19941 0.21561 0.0
H258 H 0.47874 0.18918 0.1101 0.0
H259 H 0.47382 0.22009 0.06833 0.0
H260 H 0.43923 0.26855 0.92696 0.0
H261 H 0.44934 0.28838 0.85194 0.0
H262 H 0.49465 0.31003 0.95004 0.0
H263 H 0.48468 0.28984 0.02396 0.0
H264 H 0.41498 0.30831 0.06879 0.0
H265 H 0.4023 0.33393 0.1229 0.0
H266 H 0.41608 0.3032 0.26765 0.0
H267 H 0.42789 0.27725 0.21337 0.0
N268 N 0.43623 0.25926 0.12311 0.0
N269 N 0.45534 0.25239 0.04841 0.0
N270 N 0.44135 0.28225 0.05774 0.0
C271 C 0.44707 0.2468 0.09535 0.0
C272 C 0.45233 0.27018 0.02955 0.0
C273 C 0.43324 0.27694 0.10449 0.0
C274 C 0.4499 0.22755 0.11783 0.0
C275 C 0.43813 0.22116 0.15939 0.0
C276 C 0.44091 0.20357 0.18302 0.0
C277 C 0.45559 0.19175 0.16612 0.0
C278 C 0.46735 0.19798 0.12427 0.0
C279 C 0.46446 0.21564 0.10011 0.0
C280 C 0.46146 0.27739 0.98061 0.0
C281 C 0.45181 0.27697 0.93139 0.0
C282 C 0.45744 0.28859 0.88884 0.0
C283 C 0.47271 0.30104 0.89493 0.0
C284 C 0.483 0.30052 0.94338 0.0
C285 C 0.47736 0.28889 0.98579 0.0
C286 C 0.42274 0.29091 0.13685 0.0
C287 C 0.41493 0.30688 0.11217 0.0
Eu288 Eu 0.02869 0.007 0.62963 0.0
C289 C 0.9542 0.98351 0.5079 0.0
C290 C 0.96294 0.966 0.42827 0.0
C291 C 0.93329 0.9594 0.47243 0.0
C292 C 0.96703 0.97967 0.46792 0.0
C293 C 0.93694 0.97379 0.50982 0.0
C294 C 0.94628 0.95552 0.43166 0.0
C295 C 0.92732 0.99463 0.58159 0.0
N296 N 0.95803 0.99765 0.54278 0.0
C297 C 0.94459 1.00388 0.57783 0.0
C298 C 0.9236 0.97929 0.54803 0.0
Eu299 Eu 0.98811 0.0119 0.53752 0.0
N300 N 0.983 0.99009 0.46586 0.0
C301 C 0.9945 0.98872 0.42207 0.0
C302 C 0.97538 0.96374 0.38536 0.0
C303 C 0.991 0.97546 0.38169 0.0
H304 H 0.94747 0.01562 0.6043 0.0
H305 H 1.00031 0.97444 0.34745 0.0
H306 H 0.94304 0.94479 0.402 0.0
H307 H 0.91696 0.99927 0.61053 0.0
H308 H 0.00624 0.99796 0.41695 0.0
H309 H 0.01699 0.05433 0.80011 0.0
H310 H 0.9727 0.95347 0.35395 0.0
H311 H 0.0686 0.99962 0.56134 0.0
H312 H 0.01015 0.02783 0.73921 0.0
H313 H 0.09936 0.01501 0.54776 0.0
H314 H 0.92022 0.95162 0.47364 0.0
H315 H 0.04551 0.07354 0.78658 0.0
H316 H 0.07526 0.07919 0.73497 0.0
H317 H 0.91019 0.97217 0.55085 0.0
H318 H 0.09766 0.06856 0.66595 0.0
N319 N 0.03421 0.03222 0.69028 0.0
C320 C 0.02263 0.03606 0.73264 0.0
C321 C 0.04252 0.06197 0.75943 0.0
C322 C 0.05485 0.05737 0.71765 0.0
C323 C 0.02646 0.0511 0.76736 0.0
C324 C 0.05038 0.04203 0.68382 0.0
H325 H 0.10691 0.04446 0.59654 0.0
N326 N 0.05877 0.02042 0.6162 0.0
C327 C 0.08924 0.02112 0.57513 0.0
C328 C 0.06304 0.03599 0.64542 0.0
C329 C 0.07187 0.01241 0.58307 0.0
C330 C 0.09342 0.03777 0.60263 0.0
C331 C 0.08041 0.04521 0.63911 0.0
O332 O 0.04828 0.98462 0.65122 0.0
O333 O 0.0088 0.99228 0.57395 0.0
O334 O 0.97969 0.99371 0.60874 0.0
O335 O 1.00081 1.00356 0.6747 0.0
O336 O 0.03627 0.98319 0.57153 0.0
O337 O 0.02838 0.99505 0.71026 0.0
O338 O 0.96659 0.03221 0.51455 0.0
O339 O 0.00725 0.02647 0.59547 0.0
O340 O 0.03692 0.02508 0.55859 0.0
O341 O 0.01658 0.01303 0.4939 0.0
O342 O 0.97912 0.03285 0.60213 0.0
O343 O 0.99349 0.03276 0.47483 0.0
C344 C 0.01969 0.98048 0.55231 0.0
C345 C 0.03681 0.96288 0.71405 0.0
C346 C 0.01462 0.93714 0.72684 0.0
C347 C 0.01838 0.95585 0.71201 0.0
C348 C 0.02965 0.92553 0.743 0.0
C349 C 0.05155 0.95108 0.73007 0.0
C350 C 0.04797 0.93247 0.74435 0.0
C351 C 0.9846 0.9959 0.65982 0.0
C352 C 0.04105 0.98236 0.69888 0.0
C353 C 0.08447 0.06116 0.67057 0.0
C354 C 0.07172 0.06721 0.70986 0.0
C355 C 0.99563 0.0368 0.61994 0.0
C356 C 0.98041 0.06205 0.50205 0.0
C357 C 0.99737 0.07164 0.49267 0.0
C358 C 1.00046 0.08971 0.51433 0.0
C359 C 0.98627 0.09812 0.5455 0.0
C360 C 0.96627 0.07104 0.53212 0.0
C361 C 0.96927 0.08889 0.55388 0.0
C362 C 0.03253 0.02145 0.50794 0.0
C363 C 0.97817 0.0421 0.48568 0.0
H364 H 0.00702 0.96486 0.69876 0.0
H365 H 0.02723 0.91118 0.75575 0.0
H366 H 0.06584 0.95629 0.73156 0.0
H367 H 0.05939 0.92344 0.757 0.0
H368 H 0.00818 0.065 0.46855 0.0
H369 H 0.98832 0.11184 0.56365 0.0
H370 H 0.95307 0.06405 0.54014 0.0
H371 H 0.95844 0.09551 0.57784 0.0
Eu372 Eu 0.5131 0.03467 0.63008 0.0
C373 C 0.5322 0.95665 0.51958 0.0
C374 C 0.5491 0.96415 0.43817 0.0
C375 C 0.55475 0.93432 0.48301 0.0
C376 C 0.5361 0.96908 0.4786 0.0
C377 C 0.54118 0.93896 0.52173 0.0
C378 C 0.5587 0.9469 0.44124 0.0
C379 C 0.52147 0.93109 0.59736 0.0
N380 N 0.5189 0.96148 0.55588 0.0
C381 C 0.51292 0.94876 0.59332 0.0
C382 C 0.53585 0.92625 0.56183 0.0
Eu383 Eu 0.50546 0.99192 0.54883 0.0
N384 N 0.52661 0.98565 0.47699 0.0
C385 C 0.52867 0.99741 0.43397 0.0
C386 C 0.55172 0.97648 0.39513 0.0
C387 C 0.54126 0.99307 0.39273 0.0
H388 H 0.50191 0.9525 0.62122 0.0
H389 H 0.54291 1.00258 0.35912 0.0
H390 H 0.56888 0.94298 0.41086 0.0
H391 H 0.51702 0.92127 0.62797 0.0
H392 H 0.52088 0.01033 0.43115 0.0
H393 H 0.47345 0.02745 0.81677 0.0
H394 H 0.56148 0.97315 0.36311 0.0
H395 H 0.51659 0.07201 0.54828 0.0
H396 H 0.49537 0.01769 0.7458 0.0
H397 H 0.50158 0.10305 0.53534 0.0
H398 H 0.56193 0.92087 0.48424 0.0
H399 H 0.45679 0.0579 0.80976 0.0
H400 H 0.44979 0.08701 0.75663 0.0
H401 H 0.54243 0.91253 0.5649 0.0
H402 H 0.45701 0.10731 0.67935 0.0
N403 N 0.49084 0.04198 0.69762 0.0
C404 C 0.48807 0.03087 0.74162 0.0
C405 C 0.46612 0.05347 0.77778 0.0
C406 C 0.46901 0.06484 0.73276 0.0
C407 C 0.47561 0.03636 0.78208 0.0
C408 C 0.48186 0.05879 0.69323 0.0
H409 H 0.47634 0.11346 0.59686 0.0
N410 N 0.49946 0.06464 0.615 0.0
C411 C 0.49708 0.094 0.56779 0.0
C412 C 0.48616 0.07037 0.65035 0.0
C413 C 0.50556 0.07643 0.57526 0.0
C414 C 0.4828 0.09978 0.60248 0.0
C415 C 0.4774 0.0881 0.64499 0.0
O416 O 0.53553 0.05524 0.63944 0.0
O417 O 0.52625 0.01322 0.57611 0.0
O418 O 0.52519 0.9844 0.61731 0.0
O419 O 0.51795 0.00782 0.67991 0.0
O420 O 0.53371 0.04077 0.56236 0.0
O421 O 0.52908 0.03611 0.70489 0.0
O422 O 0.48235 0.97199 0.54076 0.0
O423 O 0.49266 0.01284 0.60481 0.0
O424 O 0.49147 0.04099 0.56593 0.0
O425 O 0.50069 0.01933 0.50104 0.0
O426 O 0.48602 0.98513 0.61875 0.0
O427 O 0.48662 0.99311 0.47948 0.0
C428 C 0.53656 0.02362 0.54779 0.0
C429 C 0.56075 0.04488 0.69191 0.0
C430 C 0.58718 0.02299 0.69044 0.0
C431 C 0.56788 0.02663 0.68415 0.0
C432 C 0.59928 0.03813 0.70252 0.0
C433 C 0.57302 0.05971 0.70372 0.0
C434 C 0.59222 0.05634 0.70865 0.0
C435 C 0.52463 0.99087 0.66732 0.0
C436 C 0.54065 0.04879 0.68625 0.0
C437 C 0.46396 0.0938 0.68293 0.0
C438 C 0.45985 0.08224 0.72692 0.0
C439 C 0.4828 1.00219 0.63377 0.0
C440 C 0.45559 0.98859 0.51166 0.0
C441 C 0.44988 0.00605 0.49062 0.0
C442 C 0.43307 0.0145 0.50753 0.0
C443 C 0.42176 0.00524 0.54534 0.0
C444 C 0.44381 0.97934 0.54848 0.0
C445 C 0.42706 0.98767 0.56526 0.0
C446 C 0.49216 0.03522 0.5154 0.0
C447 C 0.47475 0.98138 0.50134 0.0
H448 H 0.55837 0.0153 0.6737 0.0
H449 H 0.61415 0.03588 0.70902 0.0
H450 H 0.56772 0.0739 0.70914 0.0
H451 H 0.60165 0.06783 0.71818 0.0
H452 H 0.45875 0.0134 0.46222 0.0
H453 H 0.40865 0.01141 0.5587 0.0
H454 H 0.44785 0.96593 0.56568 0.0
H455 H 0.41825 0.98058 0.59424 0.0
Eu456 Eu 0.53054 0.50264 0.53258 0.0
C457 C 0.44774 0.49348 0.61978 0.0
C458 C 0.4276 0.51187 0.56154 0.0
C459 C 0.41479 0.48511 0.60966 0.0
C460 C 0.44547 0.50816 0.58394 0.0
C461 C 0.43238 0.4819 0.6335 0.0
C462 C 0.41238 0.50013 0.574 0.0
C463 C 0.45247 0.46584 0.69696 0.0
N464 N 0.46478 0.49096 0.64298 0.0
C465 C 0.46717 0.47781 0.68259 0.0
C466 C 0.43503 0.46776 0.6719 0.0
Eu467 Eu 0.48919 0.51168 0.61718 0.0
N468 N 0.46051 0.51919 0.57229 0.0
C469 C 0.45838 0.53434 0.53894 0.0
C470 C 0.42545 0.52748 0.52798 0.0
C471 C 0.44094 0.53864 0.51629 0.0
H472 H 0.48066 0.47631 0.7022 0.0
H473 H 0.43947 0.55063 0.48982 0.0
H474 H 0.39863 0.50268 0.55673 0.0
H475 H 0.45459 0.4552 0.72745 0.0
H476 H 0.46998 0.54314 0.52844 0.0
H477 H 0.58173 0.46665 0.66059 0.0
H478 H 0.41191 0.531 0.5108 0.0
H479 H 0.53754 0.53738 0.44409 0.0
H480 H 0.55101 0.4721 0.61901 0.0
H481 H 0.56262 0.55958 0.41786 0.0
H482 H 0.40286 0.47631 0.61947 0.0
H483 H 0.60804 0.4883 0.64231 0.0
H484 H 0.62002 0.51707 0.59528 0.0
H485 H 0.4236 0.45856 0.68336 0.0
H486 H 0.61468 0.5427 0.53068 0.0
N487 N 0.55924 0.49717 0.5786 0.0
C488 C 0.56214 0.48187 0.61078 0.0
C489 C 0.59443 0.49094 0.62424 0.0
C490 C 0.59158 0.50635 0.59027 0.0
C491 C 0.57964 0.47867 0.63456 0.0
C492 C 0.57364 0.50903 0.56729 0.0
H493 H 0.5934 0.55856 0.46408 0.0
N494 N 0.55374 0.52459 0.50605 0.0
C495 C 0.56508 0.54949 0.44967 0.0
C496 C 0.57075 0.52327 0.53031 0.0
C497 C 0.55094 0.53692 0.46458 0.0
C498 C 0.58241 0.54891 0.476 0.0
C499 C 0.58555 0.53545 0.51607 0.0
O500 O 0.53742 0.49776 0.44852 0.0
O501 O 0.49924 0.50253 0.53685 0.0
O502 O 0.48973 0.4807 0.59552 0.0
O503 O 0.52142 0.47588 0.57754 0.0
O504 O 0.51051 0.51328 0.46754 0.0
O505 O 0.53877 0.4746 0.50511 0.0
O506 O 0.48067 0.51591 0.70036 0.0
O507 O 0.52042 0.51104 0.61337 0.0
O508 O 0.53008 0.53366 0.55462 0.0
O509 O 0.49822 0.5381 0.5709 0.0
O510 O 0.50881 0.49917 0.68066 0.0
O511 O 0.48728 0.54007 0.65128 0.0
C512 C 0.49506 0.50922 0.49159 0.0
C513 C 0.52981 0.468 0.41557 0.0
C514 C 0.50093 0.45412 0.38103 0.0
C515 C 0.51057 0.46412 0.42135 0.0
C516 C 0.51088 0.4479 0.33537 0.0
C517 C 0.53945 0.46174 0.36988 0.0
C518 C 0.53 0.45168 0.32999 0.0
C519 C 0.50456 0.46958 0.5914 0.0
C520 C 0.53972 0.47972 0.45477 0.0
C521 C 0.60317 0.53341 0.54084 0.0
C522 C 0.60621 0.51881 0.57759 0.0
C523 C 0.52439 0.50364 0.65789 0.0
C524 C 0.49819 0.53987 0.74212 0.0
C525 C 0.51218 0.55334 0.7314 0.0
C526 C 0.52577 0.55783 0.77058 0.0
C527 C 0.52534 0.54854 0.82045 0.0
C528 C 0.49786 0.53108 0.79273 0.0
C529 C 0.51143 0.53531 0.83136 0.0
C530 C 0.51512 0.54464 0.55828 0.0
C531 C 0.48477 0.53376 0.70004 0.0
H532 H 0.50314 0.4691 0.45662 0.0
H533 H 0.50397 0.43978 0.30418 0.0
H534 H 0.55424 0.46481 0.36484 0.0
H535 H 0.5375 0.44681 0.29478 0.0
H536 H 0.51271 0.56014 0.69246 0.0
H537 H 0.53544 0.55186 0.85168 0.0
H538 H 0.48727 0.52066 0.80211 0.0
H539 H 0.51113 0.52835 0.87004 0.0
Eu540 Eu 0.01625 0.5296 0.54027 0.0
C541 C 0.01222 0.44791 0.58063 0.0
C542 C 0.98917 0.43658 0.5166 0.0
C543 C 0.01662 0.41758 0.53617 0.0
C544 C 0.99574 0.45068 0.55235 0.0
C545 C 0.02254 0.43103 0.57391 0.0
C546 C 0.9999 0.4203 0.50779 0.0
C547 C 0.04201 0.4403 0.6486 0.0
N548 N 0.0174 0.46097 0.6177 0.0
C549 C 0.03114 0.45654 0.65439 0.0
C550 C 0.038 0.4277 0.60722 0.0
Eu551 Eu 0.99936 0.48952 0.62149 0.0
N552 N 0.9857 0.46667 0.56144 0.0
C553 C 0.96801 0.46825 0.5399 0.0
C554 C 0.97178 0.43902 0.49159 0.0
C555 C 0.96103 0.45477 0.50407 0.0
H556 H 0.03372 0.46539 0.68896 0.0
H557 H 0.94718 0.45644 0.48667 0.0
H558 H 0.99515 0.40948 0.48014 0.0
H559 H 0.05322 0.43733 0.67681 0.0
H560 H 0.95866 0.47946 0.55058 0.0
H561 H 0.06146 0.56335 0.69374 0.0
H562 H 0.96629 0.42856 0.46396 0.0
H563 H 0.9862 0.55182 0.45645 0.0
H564 H 0.05175 0.53871 0.63289 0.0
H565 H 0.96869 0.58161 0.45072 0.0
H566 H 0.02449 0.40469 0.53012 0.0
H567 H 0.0443 0.59351 0.69672 0.0
H568 H 0.01903 0.61399 0.65965 0.0
H569 H 0.04626 0.41495 0.60326 0.0
H570 H 0.99325 0.61872 0.59536 0.0
N571 N 0.02793 0.55344 0.60094 0.0
C572 C 0.04347 0.55124 0.63307 0.0
C573 C 0.0397 0.58249 0.66951 0.0
C574 C 0.02452 0.58524 0.63488 0.0
C575 C 0.04936 0.5655 0.66802 0.0
C576 C 0.01898 0.57037 0.60029 0.0
H577 H 0.97438 0.60677 0.5176 0.0
N578 N 1.00023 0.55896 0.52951 0.0
C579 C 0.97851 0.57934 0.48336 0.0
C580 C 0.00455 0.5731 0.56404 0.0
C581 C 0.98824 0.56233 0.48737 0.0
C582 C 0.98178 0.59349 0.52107 0.0
C583 C 0.9953 0.5907 0.56113 0.0
O584 O 0.02265 0.5435 0.46432 0.0
O585 O 0.01292 0.49803 0.54386 0.0
O586 O 0.03001 0.4937 0.64217 0.0
O587 O 0.04142 0.51491 0.57882 0.0
O588 O 0.00425 0.51149 0.47367 0.0
O589 O 0.04421 0.52762 0.50457 0.0
O590 O 0.99581 0.47289 0.69444 0.0
O591 O 1.00193 0.52104 0.61633 0.0
O592 O 0.98487 0.52739 0.52521 0.0
O593 O 0.97403 0.50461 0.58508 0.0
O594 O 0.00893 0.50878 0.68925 0.0
O595 O 0.97239 0.48869 0.66313 0.0
C596 C 0.00652 0.49539 0.49675 0.0
C597 C 0.04226 0.52472 0.40966 0.0
C598 C 0.05746 0.49865 0.36239 0.0
C599 C 0.05535 0.50988 0.40863 0.0
C600 C 0.04628 0.50243 0.31696 0.0
C601 C 0.03153 0.52847 0.36332 0.0
C602 C 0.0335 0.51731 0.31745 0.0
C603 C 0.04384 0.50286 0.61882 0.0
C604 C 0.03899 0.53552 0.45974 0.0
C605 C 1.00029 0.60519 0.59679 0.0
C606 C 0.01496 0.6025 0.63335 0.0
C607 C 0.00689 0.52455 0.66423 0.0
C608 C 0.97632 0.48775 0.75816 0.0
C609 C 0.9659 0.50442 0.76511 0.0
C610 C 0.96451 0.51303 0.81602 0.0
C611 C 0.9737 0.50468 0.86008 0.0
C612 C 0.98504 0.4795 0.80304 0.0
C613 C 0.98376 0.48798 0.85358 0.0
C614 C 0.97126 0.51743 0.54723 0.0
C615 C 0.97911 0.47945 0.70412 0.0
H616 H 0.06397 0.50712 0.44371 0.0
H617 H 0.04738 0.49383 0.28105 0.0
H618 H 0.02137 0.53982 0.36277 0.0
H619 H 0.02501 0.52014 0.28221 0.0
H620 H 0.95877 0.51063 0.73095 0.0
H621 H 0.97322 0.51111 0.8996 0.0
H622 H 0.99311 0.46665 0.79885 0.0
H623 H 0.99074 0.48164 0.88779 0.0
H624 H 0.17853 0.01295 0.2005 0.0
H625 H 0.15034 0.00838 0.25546 0.0
H626 H 0.13417 0.06604 0.22757 0.0
H627 H 0.16198 0.07057 0.17168 0.0
H628 H 0.14109 0.0274 0.34948 0.0
H629 H 0.08554 0.03783 0.19595 0.0
H630 H 0.10976 0.03354 0.17846 0.0
H631 H 0.10228 0.05668 0.19869 0.0
C632 C 0.16877 0.02454 0.20511 0.0
C633 C 0.17257 0.04213 0.18158 0.0
C634 C 0.15272 0.02195 0.23691 0.0
C635 C 0.14 0.03681 0.24537 0.0
C636 C 0.14357 0.05426 0.22105 0.0
H637 H 0.06022 0.0481 0.50995 0.0
H638 H 0.08592 0.0522 0.44571 0.0
C639 C 0.15961 0.05688 0.18947 0.0
C640 C 0.12354 0.03443 0.28181 0.0
H641 H 0.07567 0.03797 0.28755 0.0
C642 C 0.12678 0.02964 0.33585 0.0
C643 C 0.10483 0.03716 0.26404 0.0
C644 C 0.10032 0.04141 0.20601 0.0
C645 C 0.11191 0.02787 0.3727 0.0
C646 C 0.09326 0.03124 0.35535 0.0
C647 C 0.08997 0.03564 0.30107 0.0
C648 C 0.07696 0.02971 0.39266 0.0
C649 C 0.11626 0.02205 0.42973 0.0
C650 C 0.06294 0.0162 0.38335 0.0
C651 C 0.04815 0.01392 0.41986 0.0
C652 C 0.04699 0.02519 0.46632 0.0
C653 C 0.06072 0.03914 0.47465 0.0
C654 C 0.0755 0.04142 0.43812 0.0
H655 H 0.13051 0.01578 0.43336 0.0
H656 H 0.11566 0.0346 0.45635 0.0
H657 H 0.1058 0.01169 0.44438 0.0
H658 H 0.06374 0.00699 0.34862 0.0
H659 H 0.03813 1.00278 0.41271 0.0
H660 H 0.42919 0.16584 0.19622 0.0
H661 H 0.43373 0.1376 0.25035 0.0
H662 H 0.49345 0.14723 0.25199 0.0
H663 H 0.48898 0.17586 0.19857 0.0
H664 H 0.45336 0.10467 0.23822 0.0
H665 H 0.48137 0.14516 0.41165 0.0
H666 H 0.47033 0.15636 0.35472 0.0
H667 H 0.49435 0.14866 0.3507 0.0
C668 C 0.44331 0.16199 0.20813 0.0
C669 C 0.45869 0.17333 0.19367 0.0
C670 C 0.44589 0.14574 0.23899 0.0
C671 C 0.46386 0.14047 0.25663 0.0
C672 C 0.47937 0.15123 0.24004 0.0
H673 H 0.50086 0.03661 0.40777 0.0
H674 H 0.49181 0.06099 0.34321 0.0
C675 C 0.47682 0.16749 0.20894 0.0
C676 C 0.46624 0.12412 0.29369 0.0
H677 H 0.48293 0.1119 0.4179 0.0
C678 C 0.45983 0.10626 0.2775 0.0
C679 C 0.47426 0.1262 0.34558 0.0
C680 C 0.4803 0.14515 0.36705 0.0
C681 C 0.46173 0.0904 0.31107 0.0
C682 C 0.47044 0.09239 0.36199 0.0
C683 C 0.4764 0.11032 0.37868 0.0
C684 C 0.47386 0.07613 0.39859 0.0
C685 C 0.45422 0.07172 0.2919 0.0
C686 C 0.46654 0.07626 0.45099 0.0
C687 C 0.47172 0.06236 0.48796 0.0
C688 C 0.48451 0.04809 0.47359 0.0
C689 C 0.49102 0.04738 0.42026 0.0
C690 C 0.48582 0.06132 0.3832 0.0
H691 H 0.44293 0.07358 0.26143 0.0
H692 H 0.46579 0.0636 0.27298 0.0
H693 H 0.44862 0.06331 0.32581 0.0
H694 H 0.4572 0.08745 0.46378 0.0
H695 H 0.46615 0.06315 0.52842 0.0
H696 H 0.34583 0.501 0.19794 0.0
H697 H 0.37298 0.5073 0.25588 0.0
H698 H 0.39641 0.45323 0.21416 0.0
H699 H 0.36961 0.44704 0.15517 0.0
H700 H 0.38359 0.48614 0.34511 0.0
H701 H 0.44145 0.48793 0.19602 0.0
H702 H 0.41706 0.4894 0.17656 0.0
H703 H 0.42726 0.46706 0.19387 0.0
C704 C 0.35698 0.49064 0.2 0.0
C705 C 0.35549 0.47351 0.17173 0.0
C706 C 0.37243 0.49418 0.23358 0.0
C707 C 0.38684 0.4808 0.23928 0.0
C708 C 0.38565 0.46391 0.21004 0.0
H709 H 0.46863 0.48146 0.50756 0.0
H710 H 0.44209 0.47351 0.44885 0.0
C711 C 0.3702 0.46033 0.17657 0.0
C712 C 0.40252 0.48412 0.27806 0.0
H713 H 0.45017 0.48885 0.28796 0.0
C714 C 0.39815 0.48682 0.33258 0.0
C715 C 0.42155 0.48478 0.26189 0.0
C716 C 0.42717 0.48229 0.20385 0.0
C717 C 0.41219 0.49037 0.37119 0.0
C718 C 0.43124 0.49128 0.35505 0.0
C719 C 0.43561 0.48828 0.30054 0.0
C720 C 0.44676 0.49639 0.39304 0.0
C721 C 0.40638 0.49363 0.42863 0.0
C722 C 0.45842 0.5118 0.38143 0.0
C723 C 0.47362 0.5163 0.41485 0.0
C724 C 0.47749 0.50561 0.461 0.0
C725 C 0.46572 0.49031 0.47319 0.0
C726 C 0.45052 0.48573 0.43949 0.0
H727 H 0.39118 0.49692 0.43217 0.0
H728 H 0.40927 0.48077 0.45253 0.0
H729 H 0.4145 0.50539 0.44607 0.0
H730 H 0.45589 0.52027 0.34598 0.0
H731 H 0.48257 0.52802 0.4041 0.0
H732 H 0.05174 0.34379 0.24284 0.0
H733 H 0.04671 0.37182 0.29763 0.0
H734 H 0.99634 0.38432 0.20824 0.0
H735 H 1.00141 0.35627 0.15222 0.0
H736 H 0.04478 0.40927 0.26586 0.0
H737 H 0.97844 0.38754 0.36474 0.0
H738 H 0.99323 0.37112 0.3289 0.0
H739 H 0.97799 0.38676 0.29249 0.0
C740 C 0.03965 0.35253 0.23417 0.0
C741 C 0.02709 0.34771 0.1924 0.0
C742 C 0.03674 0.36856 0.266 0.0
C743 C 0.02107 0.38018 0.25761 0.0
C744 C 0.00837 0.37543 0.21627 0.0
H745 H 0.9833 0.48332 0.41777 0.0
H746 H 0.98718 0.45604 0.3581 0.0
C747 C 0.01131 0.35935 0.18416 0.0
C748 C 0.01846 0.39744 0.29142 0.0
H749 H 0.98906 0.41848 0.38227 0.0
C750 C 0.03259 0.41124 0.29138 0.0
C751 C 1.00258 0.40013 0.32479 0.0
C752 C 0.98724 0.38556 0.3283 0.0
C753 C 0.03121 0.42763 0.32318 0.0
C754 C 0.01549 0.43019 0.35722 0.0
C755 C 1.00123 0.41651 0.35672 0.0
C756 C 0.01346 0.44697 0.39333 0.0
C757 C 0.04655 0.44214 0.31927 0.0
C758 C 0.02692 0.45106 0.43331 0.0
C759 C 0.02459 0.46657 0.46788 0.0
C760 C 0.00864 0.47815 0.46355 0.0
C761 C 0.99548 0.47433 0.4228 0.0
C762 C 0.99772 0.45878 0.3886 0.0
H763 H 0.05388 0.44138 0.27992 0.0
H764 H 0.041 0.45663 0.32471 0.0
H765 H 0.05704 0.43932 0.35122 0.0
H766 H 0.03912 0.44212 0.43824 0.0
H767 H 0.03522 0.46954 0.49792 0.0
H768 H 0.85529 0.99709 0.03039 0.0
H769 H 0.88456 0.9994 0.97821 0.0
H770 H 0.86186 0.96126 0.85974 0.0
H771 H 0.83286 0.95889 0.91112 0.0
H772 H 0.91082 0.97169 0.94032 0.0
H773 H 0.87534 0.00783 0.77088 0.0
H774 H 0.86462 0.00537 0.8362 0.0
H775 H 0.86433 0.98606 0.78924 0.0
C776 C 0.85663 0.98909 0.99344 0.0
C777 C 0.84155 0.97811 0.97443 0.0
C778 C 0.87334 0.99045 0.96361 0.0
C779 C 0.87526 0.98084 0.91435 0.0
C780 C 0.86056 0.9692 0.89679 0.0
H781 H 0.95416 0.97258 0.65081 0.0
H782 H 0.92868 0.96839 0.71543 0.0
C783 C 0.84394 0.9679 0.92628 0.0
C784 C 0.89229 0.98315 0.88019 0.0
H785 H 0.90616 0.99645 0.75434 0.0
C786 C 0.90985 0.97723 0.8998 0.0
C787 C 0.89108 0.99043 0.82732 0.0
C788 C 0.87287 0.99796 0.80475 0.0
C789 C 0.92606 0.97784 0.86733 0.0
C790 C 0.92472 0.98476 0.81403 0.0
C791 C 0.90721 0.99095 0.7949 0.0
C792 C 0.94118 0.98593 0.77715 0.0
C793 C 0.94436 0.97067 0.89009 0.0
C794 C 0.95689 0.99698 0.79035 0.0
C795 C 0.97144 0.99951 0.75318 0.0
C796 C 0.97052 0.9912 0.70178 0.0
C797 C 0.95514 0.97953 0.68953 0.0
C798 C 0.94058 0.97706 0.72657 0.0
H799 H 0.94201 0.9606 0.92352 0.0
H800 H 0.95299 0.96366 0.85875 0.0
H801 H 0.95249 0.98274 0.90632 0.0
H802 H 0.95758 1.00424 0.82865 0.0
H803 H 0.98302 0.00862 0.76402 0.0
H804 H 0.55867 0.87357 0.05911 0.0
H805 H 0.55519 0.90123 1.00132 0.0
H806 H 0.51825 0.86988 0.89669 0.0
H807 H 0.52147 0.84232 0.95465 0.0
H808 H 0.56553 0.90499 0.89884 0.0
H809 H 0.48906 0.91799 0.91255 0.0
H810 H 0.50122 0.90231 0.95781 0.0
H811 H 0.49436 0.89438 0.89179 0.0
C812 C 0.5496 0.87265 0.02417 0.0
C813 C 0.54027 0.85573 0.01173 0.0
C814 C 0.54763 0.88848 0.99111 0.0
C815 C 0.53628 0.88779 0.94482 0.0
C816 C 0.5267 0.871 0.93282 0.0
H817 H 0.54516 0.95825 0.66058 0.0
H818 H 0.5487 0.93398 0.72932 0.0
C819 C 0.52856 0.85521 0.96608 0.0
C820 C 0.53545 0.9042 0.90744 0.0
H821 H 0.50525 0.93372 0.84156 0.0
C822 C 0.55233 0.91134 0.88664 0.0
C823 C 0.51829 0.91272 0.8919 0.0
C824 C 0.49972 0.90659 0.91509 0.0
C825 C 0.55251 0.92641 0.85004 0.0
C826 C 0.53532 0.93437 0.83265 0.0
C827 C 0.51845 0.92752 0.85435 0.0
C828 C 0.53444 0.94972 0.79178 0.0
C829 C 0.57113 0.93398 0.83136 0.0
C830 C 0.52529 0.96676 0.80364 0.0
C831 C 0.52301 0.98059 0.76404 0.0
C832 C 0.52962 0.9776 0.71141 0.0
C833 C 0.53952 0.96088 0.70031 0.0
C834 C 0.54176 0.94704 0.73987 0.0
H835 H 0.58271 0.93015 0.85933 0.0
H836 H 0.5745 0.928 0.79125 0.0
H837 H 0.57053 0.94953 0.82788 0.0
H838 H 0.51957 0.96922 0.84339 0.0
H839 H 0.51542 0.99328 0.77433 0.0
H840 H 0.66425 0.56905 0.93529 0.0
H841 H 0.63592 0.56292 0.88269 0.0
H842 H 0.63429 0.50616 0.94335 0.0
H843 H 0.66289 0.51217 0.99605 0.0
H844 H 0.63385 0.53576 0.8023 0.0
H845 H 0.57915 0.52366 0.95678 0.0
H846 H 0.60111 0.53529 0.97164 0.0
H847 H 0.60027 0.51011 0.96549 0.0
C848 C 0.65783 0.55527 0.93784 0.0
C849 C 0.66602 0.54103 0.96952 0.0
C850 C 0.64154 0.55183 0.90788 0.0
C851 C 0.63287 0.53411 0.90911 0.0
C852 C 0.64053 0.52004 0.94236 0.0
H853 H 0.53835 0.48328 0.74109 0.0
H854 H 0.56511 0.49087 0.79921 0.0
C855 C 0.6569 0.52349 0.97248 0.0
C856 C 0.61694 0.53001 0.87182 0.0
H857 H 0.5709 0.51667 0.86659 0.0
C858 C 0.62005 0.5316 0.81632 0.0
C859 C 0.59894 0.52466 0.89005 0.0
C860 C 0.59452 0.52347 0.94924 0.0
C861 C 0.60595 0.52744 0.77847 0.0
C862 C 0.58787 0.52186 0.7964 0.0
C863 C 0.5847 0.52065 0.85226 0.0
C864 C 0.57215 0.51687 0.75853 0.0
C865 C 0.61102 0.52851 0.71978 0.0
C866 C 0.567 0.52876 0.71563 0.0
C867 C 0.55195 0.52416 0.68163 0.0
C868 C 0.54147 0.50769 0.69011 0.0
C869 C 0.54636 0.49593 0.73322 0.0
C870 C 0.56161 0.50036 0.76665 0.0
H871 H 0.62629 0.52627 0.71333 0.0
H872 H 0.60328 0.51785 0.69626 0.0
H873 H 0.60744 0.54269 0.70418 0.0
H874 H 0.57431 0.54188 0.70899 0.0
H875 H 0.54817 0.53381 0.64977 0.0
H876 H 0.00735 0.68044 0.93555 0.0
H877 H 0.01191 0.6524 0.87946 0.0
H878 H 0.95765 0.63158 0.9273 0.0
H879 H 0.95323 0.65924 0.98466 0.0
H880 H 0.98374 0.60363 0.92647 0.0
H881 H 0.98695 0.64293 0.73454 0.0
H882 H 0.00392 0.65074 0.78317 0.0
H883 H 0.97928 0.65365 0.79663 0.0
C884 C 0.99648 0.66979 0.93481 0.0
C885 C 0.97984 0.67228 0.9645 0.0
C886 C 0.999 0.65385 0.90201 0.0
C887 C 0.98494 0.64001 0.89794 0.0
C888 C 0.96863 0.64211 0.92909 0.0
H889 H 0.98119 0.55278 0.64481 0.0
H890 H 0.97504 0.58071 0.70091 0.0
C891 C 0.96609 0.65803 0.96178 0.0
C892 C 0.98721 0.62332 0.8616 0.0
H893 H 0.99496 0.6105 0.73079 0.0
C894 C 0.98621 0.60516 0.88367 0.0
C895 C 0.98994 0.62517 0.8054 0.0
C896 C 0.9899 0.64415 0.77832 0.0
C897 C 0.98853 0.58892 0.85168 0.0
C898 C 0.99227 0.59079 0.79586 0.0
C899 C 0.99253 0.60895 0.77351 0.0
C900 C 0.99636 0.5742 0.76036 0.0
C901 C 0.98673 0.56997 0.87842 0.0
C902 C 0.0107 0.56146 0.77388 0.0
C903 C 0.01424 0.54563 0.74178 0.0
C904 C 0.00391 0.54237 0.69448 0.0
C905 C 0.98972 0.55521 0.68028 0.0
C906 C 0.98614 0.57111 0.71255 0.0
H907 H 0.9768 0.57059 0.9128 0.0
H908 H 0.98185 0.55897 0.85004 0.0
H909 H 1.00065 0.5657 0.89449 0.0
H910 H 0.01917 0.56369 0.80955 0.0
H911 H 0.02516 0.53588 0.75395 0.0
H912 H 0.07131 0.21666 0.33353 0.0
H913 H 0.07085 0.19169 0.39944 0.0
H914 H 0.11185 0.16059 0.30748 0.0
H915 H 0.1122 0.18576 0.24021 0.0
H916 H 0.08232 0.14032 0.32113 0.0
H917 H 0.09891 0.16894 0.52024 0.0
H918 H 0.08258 0.18475 0.48943 0.0
H919 H 0.10541 0.18118 0.45943 0.0
C920 C 0.08089 0.20495 0.32829 0.0
C921 C 0.09171 0.20318 0.28136 0.0
C922 C 0.08069 0.19062 0.36643 0.0
C923 C 0.0915 0.17427 0.35904 0.0
C924 C 0.10346 0.1731 0.31427 0.0
H925 H 0.03654 0.07571 0.50832 0.0
H926 H 0.06482 0.09261 0.47941 0.0
C927 C 0.10358 0.18744 0.27574 0.0
C928 C 0.08715 0.15736 0.39174 0.0
H929 H 0.07201 0.14606 0.51765 0.0
C930 C 0.08083 0.14121 0.36447 0.0
C931 C 0.08542 0.15827 0.4484 0.0
C932 C 0.09368 0.17419 0.48089 0.0
C933 C 0.0706 0.12723 0.39125 0.0
C934 C 0.06662 0.12957 0.44649 0.0
C935 C 0.07486 0.14449 0.47502 0.0
C936 C 0.05075 0.11946 0.47126 0.0
C937 C 0.06241 0.11111 0.35926 0.0
C938 C 0.03368 0.12906 0.47705 0.0
C939 C 0.01753 0.11947 0.49244 0.0
C940 C 0.01814 0.10004 0.50286 0.0
C941 C 0.03552 0.09059 0.49952 0.0
C942 C 0.05171 0.10023 0.48357 0.0
H943 H 0.06692 0.11131 0.31651 0.0
H944 H 0.06682 0.09753 0.37729 0.0
H945 H 0.04683 0.11174 0.36064 0.0
H946 H 0.03265 0.14388 0.46716 0.0
H947 H 0.00442 0.12718 0.49381 0.0
H948 H 0.31699 0.11972 0.27624 0.0
H949 H 0.34217 0.11956 0.3435 0.0
H950 H 0.37685 0.08695 0.23593 0.0
H951 H 0.35197 0.08683 0.16947 0.0
H952 H 0.35163 0.0869 0.38585 0.0
H953 H 0.41615 0.11863 0.3085 0.0
H954 H 0.39361 0.12324 0.27757 0.0
H955 H 0.40728 0.10288 0.25821 0.0
C956 C 0.33018 0.11294 0.26644 0.0
C957 C 0.33234 0.1031 0.21762 0.0
C958 C 0.34462 0.11302 0.30473 0.0
C959 C 0.3615 0.10339 0.29469 0.0
C960 C 0.36421 0.09492 0.24425 0.0
H961 H 0.43255 0.02386 0.40173 0.0
H962 H 0.41774 0.05128 0.36089 0.0
C963 C 0.34983 0.09481 0.20612 0.0
C964 C 0.37436 0.09841 0.33945 0.0
H965 H 0.42077 0.09052 0.36551 0.0
C966 C 0.36675 0.08827 0.38258 0.0
C967 C 0.39408 0.10021 0.3353 0.0
C968 C 0.40316 0.11203 0.29247 0.0
C969 C 0.37826 0.0781 0.41791 0.0
C970 C 0.39796 0.07848 0.41056 0.0
C971 C 0.40566 0.09012 0.37077 0.0
C972 C 0.41021 0.06435 0.4366 0.0
C973 C 0.36909 0.06561 0.45934 0.0
C974 C 0.41153 0.06297 0.49279 0.0
C975 C 0.41966 0.04705 0.51627 0.0
C976 C 0.42691 0.03255 0.48378 0.0
C977 C 0.42704 0.0348 0.42771 0.0
C978 C 0.41867 0.05052 0.40434 0.0
H979 H 0.35359 0.06503 0.45458 0.0
H980 H 0.37469 0.05104 0.45655 0.0
H981 H 0.37222 0.07108 0.50022 0.0
H982 H 0.40544 0.07371 0.51838 0.0
H983 H 0.41978 0.0458 0.55966 0.0
H984 H 0.41754 0.35708 0.17403 0.0
H985 H 0.41843 0.38415 0.23345 0.0
H986 H 0.3938 0.35135 0.36065 0.0
H987 H 0.39242 0.32392 0.30059 0.0
H988 H 0.39321 0.4052 0.30576 0.0
H989 H 0.44818 0.36279 0.411 0.0
H990 H 0.43923 0.35556 0.3463 0.0
H991 H 0.42477 0.35357 0.40504 0.0
C992 C 0.41157 0.35565 0.21382 0.0
C993 C 0.40514 0.33814 0.2326 0.0
C994 C 0.41213 0.37124 0.24791 0.0
C995 C 0.40641 0.36969 0.30161 0.0
C996 C 0.39847 0.35276 0.31943 0.0
H997 H 0.48289 0.44089 0.47067 0.0
H998 H 0.45238 0.42515 0.4725 0.0
C999 C 0.39783 0.33707 0.28515 0.0
C1000 C 0.41215 0.38471 0.33964 0.0
H1001 H 0.44968 0.39522 0.41903 0.0
C1002 C 0.40518 0.40301 0.33209 0.0
C1003 C 0.42751 0.38182 0.37484 0.0
C1004 C 0.43548 0.36243 0.385 0.0
C1005 C 0.41442 0.41867 0.35446 0.0
C1006 C 0.43134 0.4159 0.38332 0.0
C1007 C 0.43685 0.39747 0.39639 0.0
C1008 C 0.44571 0.43097 0.3891 0.0
C1009 C 0.40652 0.43803 0.34444 0.0
C1010 C 0.4516 0.44062 0.34284 0.0
C1011 C 0.46889 0.44977 0.34196 0.0
C1012 C 0.48082 0.44917 0.38694 0.0
C1013 C 0.47408 0.4414 0.43513 0.0
C1014 C 0.45662 0.43239 0.43621 0.0
H1015 H 0.39094 0.43777 0.34591 0.0
H1016 H 0.41178 0.4484 0.37437 0.0
H1017 H 0.41055 0.44272 0.30355 0.0
H1018 H 0.44381 0.43958 0.30553 0.0
H1019 H 0.47352 0.45611 0.30469 0.0
H1020 H 0.20798 0.44401 0.29202 0.0
H1021 H 0.17883 0.4464 0.34134 0.0
H1022 H 0.16254 0.39121 0.28488 0.0
H1023 H 0.1916 0.38935 0.23226 0.0
H1024 H 0.13639 0.41247 0.26375 0.0
H1025 H 0.15301 0.43099 0.4713 0.0
H1026 H 0.16678 0.44664 0.43148 0.0
H1027 H 0.17081 0.42152 0.42722 0.0
C1028 C 0.19854 0.43206 0.29173 0.0
C1029 C 0.20203 0.4165 0.25837 0.0
C1030 C 0.18184 0.43335 0.32052 0.0
C1031 C 0.16844 0.41886 0.31791 0.0
C1032 C 0.17262 0.40258 0.28781 0.0
H1033 H 0.06621 0.47307 0.44151 0.0
H1034 H 0.09008 0.44821 0.43808 0.0
C1035 C 0.18921 0.40149 0.25783 0.0
C1036 C 0.14906 0.42259 0.33746 0.0
H1037 H 0.1263 0.44959 0.43034 0.0
C1038 C 0.13411 0.41999 0.30118 0.0
C1039 C 0.14552 0.43177 0.38709 0.0
C1040 C 0.15993 0.43262 0.43156 0.0
C1041 C 0.1166 0.42844 0.31002 0.0
C1042 C 0.11429 0.44049 0.35489 0.0
C1043 C 0.12829 0.441 0.39467 0.0
C1044 C 0.09894 0.4546 0.3569 0.0
C1045 C 0.10107 0.42503 0.2698 0.0
C1046 C 0.09626 0.46671 0.31299 0.0
C1047 C 0.08269 0.48081 0.31476 0.0
C1048 C 0.07165 0.48336 0.36089 0.0
C1049 C 0.07454 0.47148 0.40541 0.0
C1050 C 0.0881 0.45721 0.40343 0.0
H1051 H 0.10189 0.4105 0.25335 0.0
H1052 H 0.08701 0.42712 0.28806 0.0
H1053 H 0.10266 0.43487 0.2355 0.0
H1054 H 0.10502 0.46559 0.27757 0.0
H1055 H 0.08119 0.49004 0.2804 0.0
H1056 H 0.8954 0.84141 0.95557 0.0
H1057 H 0.89598 0.86935 0.8982 0.0
H1058 H 0.93207 0.84018 0.78643 0.0
H1059 H 0.93151 0.8125 0.84288 0.0
H1060 H 0.9285 0.8858 0.89141 0.0
H1061 H 0.90526 0.87391 0.68381 0.0
H1062 H 0.89782 0.85889 0.73837 0.0
H1063 H 0.91959 0.85439 0.70353 0.0
C1064 C 0.90288 0.84076 0.91771 0.0
C1065 C 0.91368 0.82484 0.90428 0.0
C1066 C 0.90308 0.8567 0.88477 0.0
C1067 C 0.91404 0.85693 0.83785 0.0
C1068 C 0.92313 0.84031 0.8216 0.0
H1069 H 1.00225 0.90248 0.69512 0.0
H1070 H 0.97194 0.88826 0.71467 0.0
C1071 C 0.92288 0.8244 0.85432 0.0
C1072 C 0.92011 0.87505 0.81395 0.0
H1073 H 0.93432 0.89328 0.69399 0.0
C1074 C 0.92917 0.88789 0.84825 0.0
C1075 C 0.92085 0.87791 0.75774 0.0
C1076 C 0.91014 0.86559 0.71896 0.0
C1077 C 0.94103 0.90188 0.82794 0.0
C1078 C 0.94349 0.90336 0.77157 0.0
C1079 C 0.93264 0.89199 0.73718 0.0
C1080 C 0.9598 0.91355 0.74889 0.0
C1081 C 0.95227 0.91357 0.86736 0.0
C1082 C 0.96278 0.93276 0.75913 0.0
C1083 C 0.98037 0.94082 0.74933 0.0
C1084 C 0.99509 0.92984 0.72819 0.0
C1085 C 0.99138 0.91115 0.7129 0.0
C1086 C 0.97394 0.90308 0.72336 0.0
H1087 H 0.95053 0.90875 0.90954 0.0
H1088 H 0.96744 0.91308 0.85734 0.0
H1089 H 0.94753 0.92841 0.86525 0.0
H1090 H 0.95191 0.94118 0.77774 0.0
H1091 H 0.98273 0.95527 0.76145 0.0
H1092 H 0.67435 0.89947 0.93728 0.0
H1093 H 0.6486 0.90394 0.87332 0.0
H1094 H 0.68486 0.93705 0.77232 0.0
H1095 H 0.71032 0.93323 0.83615 0.0
H1096 H 0.63915 0.94184 0.86468 0.0
H1097 H 0.64993 0.91194 0.66161 0.0
H1098 H 0.66108 0.90237 0.72105 0.0
H1099 H 0.67074 0.92275 0.68835 0.0
C1100 C 0.67701 0.90724 0.90065 0.0
C1101 C 0.69431 0.91637 0.89263 0.0
C1102 C 0.66232 0.90958 0.86383 0.0
C1103 C 0.66482 0.92079 0.818 0.0
C1104 C 0.68269 0.92803 0.80681 0.0
H1105 H 0.62113 0.01031 0.65221 0.0
H1106 H 0.63624 0.9805 0.67472 0.0
C1107 C 0.69731 0.92585 0.84373 0.0
C1108 C 0.64837 0.92919 0.79058 0.0
H1109 H 0.63153 0.94084 0.66633 0.0
C1110 C 0.637 0.94113 0.8215 0.0
C1111 C 0.64592 0.92851 0.73419 0.0
C1112 C 0.65748 0.91556 0.69941 0.0
C1113 C 0.62441 0.95367 0.79732 0.0
C1114 C 0.62245 0.95359 0.7406 0.0
C1115 C 0.63291 0.94073 0.70979 0.0
C1116 C 0.61175 0.96867 0.71326 0.0
C1117 C 0.61488 0.96823 0.83238 0.0
C1118 C 0.59264 0.97138 0.72425 0.0
C1119 C 0.58414 0.98868 0.7133 0.0
C1120 C 0.59455 1.00337 0.68984 0.0
C1121 C 0.61294 0.99959 0.67223 0.0
C1122 C 0.62152 0.98243 0.68427 0.0
H1123 H 0.62032 0.96818 0.87431 0.0
H1124 H 0.61688 0.98255 0.81549 0.0
H1125 H 0.59962 0.96542 0.83394 0.0
H1126 H 0.58474 0.96072 0.74536 0.0
H1127 H 0.56994 0.99096 0.7273 0.0
H1128 H 0.56755 0.71467 0.85255 0.0
H1129 H 0.56615 0.686 0.79874 0.0
H1130 H 0.62127 0.67019 0.8548 0.0
H1131 H 0.62269 0.69891 0.90959 0.0
H1132 H 0.58758 0.66424 0.72202 0.0
H1133 H 0.58531 0.63271 0.92722 0.0
H1134 H 0.58374 0.65774 0.91674 0.0
H1135 H 0.60595 0.64592 0.91041 0.0
C1136 C 0.57971 0.70551 0.85181 0.0
C1137 C 0.59509 0.70884 0.88608 0.0
C1138 C 0.57888 0.68909 0.82098 0.0
C1139 C 0.59342 0.67581 0.82379 0.0
C1140 C 0.60977 0.68016 0.85287 0.0
H1141 H 0.56309 0.55803 0.79748 0.0
H1142 H 0.58451 0.58478 0.79542 0.0
C1143 C 0.61055 0.69653 0.88416 0.0
C1144 C 0.5897 0.65634 0.8054 0.0
H1145 H 0.57768 0.6134 0.85526 0.0
C1146 C 0.58579 0.65295 0.75084 0.0
C1147 C 0.58733 0.64167 0.84319 0.0
C1148 C 0.59066 0.6446 0.90271 0.0
C1149 C 0.57886 0.63543 0.73339 0.0
C1150 C 0.57541 0.62117 0.77178 0.0
C1151 C 0.5804 0.62427 0.82573 0.0
C1152 C 0.56445 0.60393 0.75939 0.0
C1153 C 0.57498 0.63256 0.67427 0.0
C1154 C 0.54625 0.60553 0.73797 0.0
C1155 C 0.53407 0.59013 0.7383 0.0
C1156 C 0.53973 0.57295 0.76112 0.0
C1157 C 0.55828 0.57109 0.7798 0.0
C1158 C 0.57057 0.58637 0.77847 0.0
H1159 H 0.58495 0.6408 0.64939 0.0
H1160 H 0.57599 0.61749 0.66263 0.0
H1161 H 0.56062 0.63768 0.66485 0.0
H1162 H 0.54093 0.61901 0.72455 0.0
H1163 H 0.5198 0.59211 0.72426 0.0
H1164 H 0.83613 0.62625 0.95999 0.0
H1165 H 0.86693 0.62557 0.91589 0.0
H1166 H 0.85178 0.57342 0.8375 0.0
H1167 H 0.82114 0.57455 0.87902 0.0
H1168 H 0.89255 0.60275 0.93484 0.0
H1169 H 0.88088 0.59437 0.71954 0.0
H1170 H 0.86226 0.60246 0.76307 0.0
H1171 H 0.86561 0.57759 0.7501 0.0
C1172 C 0.83924 0.61505 0.93173 0.0
C1173 C 0.82621 0.60051 0.92267 0.0
C1174 C 0.85682 0.61465 0.90657 0.0
C1175 C 0.86172 0.59961 0.87245 0.0
C1176 C 0.84828 0.58562 0.86165 0.0
H1177 H 0.94176 0.52216 0.90057 0.0
H1178 H 0.92166 0.54953 0.91022 0.0
C1179 C 0.83068 0.58619 0.88588 0.0
C1180 C 0.88151 0.59638 0.85577 0.0
H1181 H 0.90565 0.57274 0.75864 0.0
C1182 C 0.89557 0.59681 0.89557 0.0
C1183 C 0.88609 0.58945 0.80397 0.0
C1184 C 0.87288 0.59122 0.75677 0.0
C1185 C 0.91297 0.58804 0.88725 0.0
C1186 C 0.91597 0.57783 0.83911 0.0
C1187 C 0.9031 0.57983 0.79662 0.0
C1188 C 0.93027 0.56266 0.83559 0.0
C1189 C 0.92759 0.58902 0.93118 0.0
C1190 C 0.94149 0.56049 0.78966 0.0
C1191 C 0.95272 0.54447 0.78346 0.0
C1192 C 0.95317 0.53045 0.82332 0.0
C1193 C 0.94219 0.53287 0.86968 0.0
C1194 C 0.93077 0.54869 0.87548 0.0
H1195 H 0.92733 0.60305 0.95099 0.0
H1196 H 0.92435 0.57839 0.96245 0.0
H1197 H 0.94194 0.58639 0.91543 0.0
H1198 H 0.94122 0.57094 0.75801 0.0
H1199 H 0.96095 0.543 0.74729 0.0
H1200 H 0.99941 0.18516 0.91817 0.0
H1201 H 0.99404 0.15674 0.86424 0.0
H1202 H 0.03909 0.17258 0.75824 0.0
H1203 H 0.04449 0.20104 0.81161 0.0
H1204 H 0.98552 0.15088 0.75524 0.0
H1205 H 0.05493 0.11982 0.80501 0.0
H1206 H 0.04547 0.13982 0.84078 0.0
H1207 H 0.05599 0.14287 0.77572 0.0
C1208 C 0.00799 0.1828 0.88288 0.0
C1209 C 0.02252 0.19541 0.86972 0.0
C1210 C 0.00498 0.16643 0.85223 0.0
C1211 C 0.01645 0.16221 0.80781 0.0
C1212 C 0.03039 0.17518 0.79314 0.0
H1213 H 0.02446 0.0616 0.60075 0.0
H1214 H 0.02921 0.09272 0.6421 0.0
C1215 C 0.03342 0.19152 0.82371 0.0
C1216 C 0.01396 0.14418 0.77731 0.0
H1217 H 0.03639 0.10341 0.74161 0.0
C1218 C 0.99662 0.14047 0.75246 0.0
C1219 C 0.02848 0.13059 0.77311 0.0
C1220 C 0.04722 0.13333 0.80041 0.0
C1221 C 0.99343 0.12369 0.72348 0.0
C1222 C 0.00782 0.10989 0.72021 0.0
C1223 C 0.02528 0.11379 0.74423 0.0
C1224 C 0.00486 0.09108 0.69404 0.0
C1225 C 0.97471 0.1212 0.69582 0.0
C1226 C 0.98979 0.07955 0.7096 0.0
C1227 C 0.987 0.06191 0.68561 0.0
C1228 C 0.99958 0.05503 0.64685 0.0
C1229 C 0.01478 0.06639 0.63142 0.0
C1230 C 0.01743 0.08422 0.65489 0.0
H1231 H 0.96842 0.13501 0.68499 0.0
H1232 H 0.97598 0.11258 0.65877 0.0
H1233 H 0.96487 0.11407 0.72366 0.0
H1234 H 0.98018 0.08411 0.7407 0.0
H1235 H 0.97509 0.05349 0.69792 0.0
H1236 H 0.32081 0.05343 0.82676 0.0
H1237 H 0.34932 0.04983 0.77345 0.0
H1238 H 0.35345 0.99177 0.82212 0.0
H1239 H 0.32445 0.995 0.87371 0.0
H1240 H 0.38337 0.04205 0.81334 0.0
H1241 H 0.3652 0.98708 0.66408 0.0
H1242 H 0.34761 0.99922 0.70327 0.0
H1243 H 0.36051 0.97985 0.73181 0.0
C1244 C 0.32738 0.03969 0.82485 0.0
C1245 C 0.32018 0.02449 0.85468 0.0
C1246 C 0.34384 0.03771 0.79462 0.0
C1247 C 0.35353 0.02048 0.79316 0.0
C1248 C 0.3461 0.00512 0.82154 0.0
H1249 H 0.46401 0.98154 0.70707 0.0
H1250 H 0.43256 0.98711 0.74355 0.0
C1251 C 0.32959 0.00706 0.85168 0.0
C1252 C 0.37223 0.01913 0.76635 0.0
H1253 H 0.39804 0.99337 0.67638 0.0
C1254 C 0.38646 0.03159 0.78274 0.0
C1255 C 0.37639 0.00542 0.72658 0.0
C1256 C 0.36157 0.99226 0.70498 0.0
C1257 C 0.40476 0.03034 0.76193 0.0
C1258 C 0.40905 0.01634 0.7234 0.0
C1259 C 0.39478 1.00408 0.7061 0.0
C1260 C 0.42847 0.01361 0.70257 0.0
C1261 C 0.41969 0.04332 0.78339 0.0
C1262 C 0.43671 0.0267 0.66753 0.0
C1263 C 0.45468 0.02347 0.64627 0.0
C1264 C 0.46487 0.00724 0.66053 0.0
C1265 C 0.45664 0.99431 0.69608 0.0
C1266 C 0.43864 0.99743 0.71675 0.0
H1267 H 0.41439 0.05271 0.81578 0.0
H1268 H 0.43146 0.03479 0.79961 0.0
H1269 H 0.42519 0.05218 0.75032 0.0
H1270 H 0.42905 0.03919 0.65558 0.0
H1271 H 0.46032 0.03338 0.61759 0.0
H1272 H 0.44743 0.32156 0.83577 0.0
H1273 H 0.45366 0.34761 0.7746 0.0
H1274 H 0.51312 0.34117 0.80166 0.0
H1275 H 0.50706 0.31456 0.86148 0.0
H1276 H 0.47037 0.38071 0.8017 0.0
H1277 H 0.51115 0.34627 0.63907 0.0
H1278 H 0.4978 0.33306 0.68774 0.0
H1279 H 0.5205 0.34233 0.70522 0.0
C1280 C 0.46188 0.32527 0.82766 0.0
C1281 C 0.47673 0.31578 0.85356 0.0
C1282 C 0.46541 0.34034 0.79293 0.0
C1283 C 0.48387 0.34629 0.78291 0.0
C1284 C 0.49877 0.33666 0.80781 0.0
H1285 H 0.53158 0.44515 0.62837 0.0
H1286 H 0.52658 0.41456 0.67121 0.0
C1287 C 0.49525 0.32155 0.84258 0.0
C1288 C 0.48732 0.36341 0.7497 0.0
H1289 H 0.5103 0.3798 0.63846 0.0
C1290 C 0.47899 0.38045 0.76579 0.0
C1291 C 0.49868 0.36316 0.70297 0.0
C1292 C 0.50742 0.3452 0.68234 0.0
C1293 C 0.48189 0.39722 0.73711 0.0
C1294 C 0.49319 0.39697 0.6903 0.0
C1295 C 0.5016 0.37998 0.67421 0.0
C1296 C 0.49653 0.41435 0.65827 0.0
C1297 C 0.47314 0.41517 0.75797 0.0
C1298 C 0.48146 0.42404 0.63456 0.0
C1299 C 0.48429 0.44151 0.61002 0.0
C1300 C 0.50227 0.44969 0.60857 0.0
C1301 C 0.51755 0.43935 0.62897 0.0
C1302 C 0.5147 0.42185 0.65364 0.0
H1303 H 0.4691 0.41398 0.80097 0.0
H1304 H 0.48289 0.42726 0.75356 0.0
H1305 H 0.46025 0.41826 0.73444 0.0
H1306 H 0.46738 0.41834 0.6364 0.0
H1307 H 0.47225 0.4489 0.59365 0.0
H1308 H 0.19426 0.50222 0.90789 0.0
H1309 H 0.16573 0.50815 0.85529 0.0
H1310 H 0.18288 0.46628 0.73958 0.0
H1311 H 0.21136 0.4602 0.79204 0.0
H1312 H 0.15796 0.519 0.75018 0.0
H1313 H 0.13198 0.44661 0.78767 0.0
H1314 H 0.15183 0.45641 0.82315 0.0
H1315 H 0.15457 0.44744 0.75589 0.0
C1316 C 0.19216 0.49452 0.8707 0.0
C1317 C 0.20506 0.48058 0.85457 0.0
C1318 C 0.17576 0.49787 0.84076 0.0
C1319 C 0.17188 0.48736 0.79405 0.0
C1320 C 0.18527 0.47423 0.77619 0.0
H1321 H 0.0779 0.51025 0.571 0.0
H1322 H 0.10933 0.50681 0.61057 0.0
C1323 C 0.2016 0.47081 0.80619 0.0
C1324 C 0.15352 0.48954 0.7655 0.0
H1325 H 0.11395 0.46542 0.72869 0.0
C1326 C 0.14835 0.50728 0.74534 0.0
C1327 C 0.14081 0.47432 0.75983 0.0
C1328 C 0.14494 0.45516 0.78318 0.0
C1329 C 0.13093 0.51017 0.71953 0.0
C1330 C 0.11841 0.49484 0.71288 0.0
C1331 C 0.12358 0.47714 0.73318 0.0
C1332 C 0.09942 0.49699 0.68785 0.0
C1333 C 0.12587 0.52975 0.70111 0.0
C1334 C 0.08334 0.49221 0.71738 0.0
C1335 C 0.06543 0.49399 0.69473 0.0
C1336 C 0.06307 0.50048 0.64169 0.0
C1337 C 0.07918 0.50523 0.61195 0.0
C1338 C 0.09717 0.50338 0.63468 0.0
H1339 H 0.13474 0.54063 0.72083 0.0
H1340 H 0.12804 0.53077 0.65703 0.0
H1341 H 0.1109 0.53295 0.70966 0.0
H1342 H 0.08463 0.4873 0.75845 0.0
H1343 H 0.05339 0.49062 0.7194 0.0
H1344 H 0.0234 0.83029 0.25881 0.0
H1345 H 0.02722 0.85879 0.31324 0.0
H1346 H 0.96945 0.85507 0.36321 0.0
H1347 H 0.96546 0.82666 0.30873 0.0
H1348 H 0.00866 0.89227 0.30178 0.0
H1349 H 0.99553 0.8643 0.50619 0.0
H1350 H 1.00011 0.84919 0.4492 0.0
H1351 H 0.97717 0.85924 0.45875 0.0
C1352 C 0.0115 0.83543 0.28158 0.0
C1353 C 0.99411 0.826 0.27924 0.0
C1354 C 0.01374 0.85175 0.31292 0.0
C1355 C 0.99871 0.85906 0.34309 0.0
C1356 C 0.98142 0.84955 0.34153 0.0
H1357 H 0.98769 0.95879 0.5521 0.0
H1358 H 0.98168 0.93021 0.49872 0.0
C1359 C 0.97917 0.83321 0.31023 0.0
C1360 C 1.00085 0.87723 0.37327 0.0
H1361 H 0.99745 0.89748 0.49802 0.0
C1362 C 0.00626 0.89338 0.34475 0.0
C1363 C 0.9976 0.87883 0.42932 0.0
C1364 C 0.99245 0.86195 0.46286 0.0
C1365 C 0.00831 0.91099 0.37022 0.0
C1366 C 0.00527 0.91264 0.42652 0.0
C1367 C 0.99971 0.89646 0.45498 0.0
C1368 C 0.00837 0.9307 0.45698 0.0
C1369 C 0.01344 0.92763 0.33568 0.0
C1370 C 0.02536 0.94063 0.45212 0.0
C1371 C 0.02853 0.95719 0.4815 0.0
C1372 C 0.01491 0.96424 0.51709 0.0
C1373 C 0.99812 0.95413 0.52335 0.0
C1374 C 0.99482 0.93762 0.49333 0.0
H1375 H 0.00797 0.92593 0.29404 0.0
H1376 H 0.0079 0.94095 0.35234 0.0
H1377 H 0.02895 0.92866 0.33312 0.0
H1378 H 0.03644 0.93537 0.42641 0.0
H1379 H 0.04186 0.96436 0.47706 0.0
H1380 H 0.7037 0.0067 0.33921 0.0
H1381 H 0.67516 0.01465 0.39003 0.0
H1382 H 0.64657 0.96739 0.31828 0.0
H1383 H 0.67465 0.9596 0.267 0.0
H1384 H 0.62645 1.0015 0.31272 0.0
H1385 H 0.65119 0.98698 0.52073 0.0
H1386 H 0.66577 1.00218 0.48089 0.0
H1387 H 0.66311 0.97793 0.462 0.0
C1388 C 0.69135 0.99798 0.33441 0.0
C1389 C 0.69163 0.98237 0.29933 0.0
C1390 C 0.67509 1.00244 0.36387 0.0
C1391 C 0.65876 0.99145 0.35862 0.0
C1392 C 0.65901 0.97597 0.3235 0.0
H1393 H 0.55797 0.99154 0.55949 0.0
H1394 H 0.58722 0.98365 0.51229 0.0
C1395 C 0.67519 0.97146 0.29441 0.0
C1396 C 0.64101 0.99646 0.38715 0.0
H1397 H 0.62065 0.99961 0.51139 0.0
C1398 C 0.62518 1.0011 0.35619 0.0
C1399 C 0.63929 0.99578 0.44382 0.0
C1400 C 0.65566 0.99032 0.47904 0.0
C1401 C 0.60774 0.00511 0.38004 0.0
C1402 C 0.60597 1.00468 0.43692 0.0
C1403 C 0.62185 0.99995 0.46792 0.0
C1404 C 0.58791 0.00922 0.46496 0.0
C1405 C 0.5914 0.00945 0.34341 0.0
C1406 C 0.57852 0.02628 0.45489 0.0
C1407 C 0.56161 0.03053 0.4808 0.0
C1408 C 0.5537 0.01796 0.51794 0.0
C1409 C 0.56335 1.00119 0.52961 0.0
C1410 C 0.58021 0.99679 0.50308 0.0
H1411 H 0.59305 1.00253 0.30356 0.0
H1412 H 0.57792 1.00487 0.36099 0.0
H1413 H 0.59075 0.02487 0.33657 0.0
H1414 H 0.58438 0.03646 0.42733 0.0
H1415 H 0.55475 0.0438 0.4721 0.0
H1416 H 0.51224 0.70295 0.30319 0.0
H1417 H 0.50503 0.67621 0.36163 0.0
H1418 H 0.56305 0.67348 0.41086 0.0
H1419 H 0.57018 0.7006 0.35455 0.0
H1420 H 0.51873 0.64128 0.35076 0.0
H1421 H 0.53787 0.66709 0.55369 0.0
H1422 H 0.53512 0.68271 0.49706 0.0
H1423 H 0.55667 0.66985 0.50657 0.0
C1424 C 0.52336 0.69703 0.32768 0.0
C1425 C 0.54182 0.70396 0.32388 0.0
C1426 C 0.51924 0.68161 0.36081 0.0
C1427 C 0.53343 0.67285 0.39125 0.0
C1428 C 0.55173 0.68015 0.38884 0.0
H1429 H 0.54752 0.56539 0.55131 0.0
H1430 H 0.55123 0.59703 0.51387 0.0
C1431 C 0.55584 0.69556 0.35594 0.0
C1432 C 0.52955 0.65512 0.42147 0.0
H1433 H 0.53487 0.63359 0.54372 0.0
C1434 C 0.52202 0.63972 0.39314 0.0
C1435 C 0.53396 0.65294 0.47678 0.0
C1436 C 0.54118 0.66909 0.51042 0.0
C1437 C 0.51928 0.62218 0.41797 0.0
C1438 C 0.52395 0.61993 0.47294 0.0
C1439 C 0.53131 0.63532 0.50156 0.0
C1440 C 0.52154 0.60155 0.50074 0.0
C1441 C 0.51192 0.60597 0.3847 0.0
C1442 C 0.50358 0.59381 0.5077 0.0
C1443 C 0.50142 0.57569 0.52887 0.0
C1444 C 0.51718 0.56483 0.54319 0.0
C1445 C 0.53509 0.57311 0.53928 0.0
C1446 C 0.53724 0.59127 0.51822 0.0
H1447 H 0.51271 0.60888 0.34087 0.0
H1448 H 0.51993 0.59289 0.39333 0.0
H1449 H 0.497 0.6034 0.39512 0.0
H1450 H 0.49123 0.60164 0.49553 0.0
H1451 H 0.4874 0.57005 0.53222 0.0
H1452 H 0.82335 0.51409 0.25361 0.0
H1453 H 0.85138 0.50907 0.30866 0.0
H1454 H 0.83005 0.54777 0.42762 0.0
H1455 H 0.80193 0.55285 0.37281 0.0
H1456 H 0.86578 0.55623 0.39916 0.0
H1457 H 0.86141 0.48023 0.44636 0.0
H1458 H 0.85964 0.48501 0.37567 0.0
H1459 H 0.84167 0.4934 0.42052 0.0
C1460 C 0.82433 0.52115 0.29217 0.0
C1461 C 0.81029 0.53389 0.30863 0.0
C1462 C 0.84044 0.51827 0.32369 0.0
C1463 C 0.84284 0.5279 0.37269 0.0
C1464 C 0.82858 0.54016 0.39004 0.0
H1465 H 0.93759 0.50823 0.59477 0.0
H1466 H 0.90594 0.51112 0.55605 0.0
C1467 C 0.81249 0.54307 0.35854 0.0
C1468 C 0.8608 0.52638 0.40363 0.0
H1469 H 0.89112 0.49504 0.46202 0.0
C1470 C 0.87121 0.54285 0.41329 0.0
C1471 C 0.86788 0.50898 0.42274 0.0
C1472 C 0.85699 0.49092 0.41632 0.0
C1473 C 0.88865 0.54235 0.43991 0.0
C1474 C 0.89615 0.52485 0.45679 0.0
C1475 C 0.88549 0.50844 0.44873 0.0
C1476 C 0.91528 0.52329 0.48103 0.0
C1477 C 0.89889 0.56062 0.44986 0.0
C1478 C 0.93111 0.52894 0.45168 0.0
C1479 C 0.94914 0.52731 0.47365 0.0
C1480 C 0.95187 0.51996 0.52561 0.0
C1481 C 0.93601 0.51411 0.55486 0.0
C1482 C 0.91791 0.51572 0.53273 0.0
H1483 H 0.88915 0.57285 0.44913 0.0
H1484 H 0.90631 0.56044 0.4892 0.0
H1485 H 0.90947 0.56273 0.41773 0.0
H1486 H 0.92956 0.53431 0.41117 0.0
H1487 H 0.96096 0.5313 0.44902 0.0
loop_
_geom_bond_atom_site_label_1
_geom_bond_atom_site_label_2
_geom_bond_distance
_geom_bond_site_symmetry_2
_ccdc_geom_bond_type
C0 C1 1.384 . S
C0 H13 0.947 . S
C0 C35 1.382 . S
C1 C0 1.384 . S
C1 C2 1.378 . S
C2 C1 1.378 . S
C2 C3 1.378 . S
C2 H14 0.952 . S
C3 C2 1.378 . S
C3 H15 0.950 . S
C3 C34 1.383 . S
H4 C23 0.947 . S
H5 C24 0.946 . S
H6 C26 0.953 . S
H7 C27 0.945 . S
H8 C29 0.952 1_556 S
H9 C30 0.949 . S
H10 C32 0.950 . S
H11 C33 0.948 . S
H12 C35 0.951 . S
H13 C0 0.947 . S
H14 C2 0.952 . S
H15 C3 0.950 . S
N16 C19 1.382 . S
N16 C21 1.363 . S
N17 C19 1.371 . S
N17 C20 1.372 . S
N18 C20 1.361 . S
N18 C21 1.377 . S
C19 N16 1.382 . S
C19 N17 1.371 . S
C19 C22 1.480 . S
C20 N17 1.372 . S
C20 N18 1.361 . S
C20 C28 1.457 . S
C21 N16 1.363 . S
C21 N18 1.377 . S
C21 C34 1.479 . S
C22 C19 1.480 . S
C22 C23 1.383 . S
C22 C27 1.385 . S
C23 H4 0.947 . S
C23 C22 1.383 . S
C23 C24 1.388 . S
C24 H5 0.946 . S
C24 C23 1.388 . S
C24 C25 1.384 . S
C25 C24 1.384 . S
C25 C26 1.377 . S
C26 H6 0.953 . S
C26 C25 1.377 . S
C26 C27 1.369 . S
C27 H7 0.945 . S
C27 C22 1.385 . S
C27 C26 1.369 . S
C28 C20 1.457 . S
C28 C29 1.372 . S
C28 C33 1.364 . S
C29 H8 0.952 1_554 S
C29 C28 1.372 . S
C29 C30 1.389 1_554 S
C30 H9 0.949 . S
C30 C29 1.389 1_556 S
C30 C31 1.387 . S
C31 C30 1.387 . S
C31 C32 1.372 1_556 S
C32 H10 0.950 . S
C32 C31 1.372 1_554 S
C32 C33 1.379 . S
C33 H11 0.948 . S
C33 C28 1.364 . S
C33 C32 1.379 . S
C34 C3 1.383 . S
C34 C21 1.479 . S
C34 C35 1.398 . S
C35 C0 1.382 . S
C35 H12 0.951 . S
C35 C34 1.398 . S
C36 C37 1.384 . S
C36 H49 0.947 . S
C36 C71 1.382 . S
C37 C36 1.384 . S
C37 C38 1.378 . S
C38 C37 1.378 . S
C38 C39 1.378 . S
C38 H50 0.952 . S
C39 C38 1.378 . S
C39 H51 0.950 . S
C39 C70 1.383 . S
H40 C59 0.947 . S
H41 C60 0.946 . S
H42 C62 0.953 . S
H43 C63 0.945 . S
H44 C65 0.952 . S
H45 C66 0.949 . S
H46 C68 0.950 . S
H47 C69 0.948 . S
H48 C71 0.951 . S
H49 C36 0.947 . S
H50 C38 0.952 . S
H51 C39 0.950 . S
N52 C55 1.382 . S
N52 C57 1.363 . S
N53 C55 1.371 . S
N53 C56 1.372 . S
N54 C56 1.361 . S
N54 C57 1.377 . S
C55 N52 1.382 . S
C55 N53 1.371 . S
C55 C58 1.480 . S
C56 N53 1.372 . S
C56 N54 1.361 . S
C56 C64 1.457 . S
C57 N52 1.363 . S
C57 N54 1.377 . S
C57 C70 1.479 . S
C58 C55 1.480 . S
C58 C59 1.383 . S
C58 C63 1.385 . S
C59 H40 0.947 . S
C59 C58 1.383 . S
C59 C60 1.388 . S
C60 H41 0.946 . S
C60 C59 1.388 . S
C60 C61 1.384 . S
C61 C60 1.384 . S
C61 C62 1.377 . S
C62 H42 0.953 . S
C62 C61 1.377 . S
C62 C63 1.369 . S
C63 H43 0.945 . S
C63 C58 1.385 . S
C63 C62 1.369 . S
C64 C56 1.457 . S
C64 C65 1.372 . S
C64 C69 1.364 . S
C65 H44 0.952 . S
C65 C64 1.372 . S
C65 C66 1.389 1_554 S
C66 H45 0.949 . S
C66 C65 1.389 1_556 S
C66 C67 1.387 . S
C67 C66 1.387 . S
C67 C68 1.372 1_556 S
C68 H46 0.950 . S
C68 C67 1.372 1_554 S
C68 C69 1.379 . S
C69 H47 0.948 . S
C69 C64 1.364 . S
C69 C68 1.379 . S
C70 C39 1.383 . S
C70 C57 1.479 . S
C70 C71 1.398 . S
C71 C36 1.382 . S
C71 H48 0.951 . S
C71 C70 1.398 . S
C72 C73 1.384 . S
C72 H85 0.947 . S
C72 C107 1.382 . S
C73 C72 1.384 . S
C73 C74 1.378 . S
C74 C73 1.378 . S
C74 C75 1.378 . S
C74 H86 0.952 . S
C75 C74 1.378 . S
C75 H87 0.950 . S
C75 C106 1.383 . S
H76 C95 0.947 . S
H77 C96 0.946 . S
H78 C98 0.953 . S
H79 C99 0.945 . S
H80 C101 0.952 . S
H81 C102 0.949 . S
H82 C104 0.950 . S
H83 C105 0.948 . S
H84 C107 0.951 . S
H85 C72 0.947 . S
H86 C74 0.952 . S
H87 C75 0.950 . S
N88 C91 1.382 . S
N88 C93 1.363 . S
N89 C91 1.371 . S
N89 C92 1.372 . S
N90 C92 1.361 . S
N90 C93 1.377 . S
C91 N88 1.382 . S
C91 N89 1.371 . S
C91 C94 1.480 . S
C92 N89 1.372 . S
C92 N90 1.361 . S
C92 C100 1.457 . S
C93 N88 1.363 . S
C93 N90 1.377 . S
C93 C106 1.479 . S
C94 C91 1.480 . S
C94 C95 1.383 . S
C94 C99 1.385 . S
C95 H76 0.947 . S
C95 C94 1.383 . S
C95 C96 1.388 . S
C96 H77 0.946 . S
C96 C95 1.388 . S
C96 C97 1.384 . S
C97 C96 1.384 . S
C97 C98 1.377 . S
C98 H78 0.953 . S
C98 C97 1.377 . S
C98 C99 1.369 . S
C99 H79 0.945 . S
C99 C94 1.385 . S
C99 C98 1.369 . S
C100 C92 1.457 . S
C100 C101 1.372 . S
C100 C105 1.364 . S
C101 H80 0.952 . S
C101 C100 1.372 . S
C101 C102 1.389 1_554 S
C102 H81 0.949 . S
C102 C101 1.389 1_556 S
C102 C103 1.387 . S
C103 C102 1.387 . S
C103 C104 1.372 1_556 S
C104 H82 0.950 . S
C104 C103 1.372 1_554 S
C104 C105 1.379 . S
C105 H83 0.948 . S
C105 C100 1.364 . S
C105 C104 1.379 . S
C106 C75 1.383 . S
C106 C93 1.479 . S
C106 C107 1.398 . S
C107 C72 1.382 . S
C107 H84 0.951 . S
C107 C106 1.398 . S
C108 C109 1.384 1_554 S
C108 H121 0.947 . S
C108 C143 1.382 . S
C109 C108 1.384 1_556 S
C109 C110 1.378 . S
C110 C109 1.378 . S
C110 C111 1.378 1_556 S
C110 H122 0.952 . S
C111 C110 1.378 1_554 S
C111 H123 0.950 1_554 S
C111 C142 1.383 . S
H112 C131 0.947 . S
H113 C132 0.946 . S
H114 C134 0.953 . S
H115 C135 0.945 . S
H116 C137 0.952 . S
H117 C138 0.949 . S
H118 C140 0.950 . S
H119 C141 0.948 . S
H120 C143 0.951 . S
H121 C108 0.947 . S
H122 C110 0.952 . S
H123 C111 0.950 1_556 S
N124 C127 1.382 . S
N124 C129 1.363 . S
N125 C127 1.371 . S
N125 C128 1.372 . S
N126 C128 1.361 . S
N126 C129 1.377 . S
C127 N124 1.382 . S
C127 N125 1.371 . S
C127 C130 1.480 . S
C128 N125 1.372 . S
C128 N126 1.361 . S
C128 C136 1.457 . S
C129 N124 1.363 . S
C129 N126 1.377 . S
C129 C142 1.479 . S
C130 C127 1.480 . S
C130 C131 1.383 . S
C130 C135 1.385 . S
C131 H112 0.947 . S
C131 C130 1.383 . S
C131 C132 1.388 . S
C132 H113 0.946 . S
C132 C131 1.388 . S
C132 C133 1.384 . S
C133 C132 1.384 . S
C133 C134 1.377 . S
C134 H114 0.953 . S
C134 C133 1.377 . S
C134 C135 1.369 . S
C135 H115 0.945 . S
C135 C130 1.385 . S
C135 C134 1.369 . S
C136 C128 1.457 . S
C136 C137 1.372 . S
C136 C141 1.364 . S
C137 H116 0.952 . S
C137 C136 1.372 . S
C137 C138 1.389 . S
C138 H117 0.949 . S
C138 C137 1.389 . S
C138 C139 1.387 . S
C139 C138 1.387 . S
C139 C140 1.372 . S
C140 H118 0.950 . S
C140 C139 1.372 . S
C140 C141 1.379 . S
C141 H119 0.948 . S
C141 C136 1.364 . S
C141 C140 1.379 . S
C142 C111 1.383 . S
C142 C129 1.479 . S
C142 C143 1.398 . S
C143 C108 1.382 . S
C143 H120 0.951 . S
C143 C142 1.398 . S
C144 C145 1.384 . S
C144 H157 0.947 . S
C144 C179 1.382 . S
C145 C144 1.384 . S
C145 C146 1.378 . S
C146 C145 1.378 . S
C146 C147 1.378 . S
C146 H158 0.952 . S
C147 C146 1.378 . S
C147 H159 0.950 . S
C147 C178 1.383 . S
H148 C167 0.947 1_556 S
H149 C168 0.946 1_556 S
H150 C170 0.953 . S
H151 C171 0.945 . S
H152 C173 0.952 . S
H153 C174 0.949 . S
H154 C176 0.950 . S
H155 C177 0.948 . S
H156 C179 0.951 . S
H157 C144 0.947 . S
H158 C146 0.952 . S
H159 C147 0.950 . S
N160 C163 1.382 1_556 S
N160 C165 1.363 . S
N161 C163 1.371 . S
N161 C164 1.372 . S
N162 C164 1.361 . S
N162 C165 1.377 1_554 S
C163 N160 1.382 1_554 S
C163 N161 1.371 . S
C163 C166 1.480 . S
C164 N161 1.372 . S
C164 N162 1.361 . S
C164 C172 1.457 . S
C165 N160 1.363 . S
C165 N162 1.377 1_556 S
C165 C178 1.479 . S
C166 C163 1.480 . S
C166 C167 1.383 . S
C166 C171 1.385 . S
C167 H148 0.947 1_554 S
C167 C166 1.383 . S
C167 C168 1.388 . S
C168 H149 0.946 1_554 S
C168 C167 1.388 . S
C168 C169 1.384 . S
C169 C168 1.384 . S
C169 C170 1.377 . S
C170 H150 0.953 . S
C170 C169 1.377 . S
C170 C171 1.369 . S
C171 H151 0.945 . S
C171 C166 1.385 . S
C171 C170 1.369 . S
C172 C164 1.457 . S
C172 C173 1.372 . S
C172 C177 1.364 . S
C173 H152 0.952 . S
C173 C172 1.372 . S
C173 C174 1.389 . S
C174 H153 0.949 . S
C174 C173 1.389 . S
C174 C175 1.387 . S
C175 C174 1.387 . S
C175 C176 1.372 . S
C176 H154 0.950 . S
C176 C175 1.372 . S
C176 C177 1.379 . S
C177 H155 0.948 . S
C177 C172 1.364 . S
C177 C176 1.379 . S
C178 C147 1.383 . S
C178 C165 1.479 . S
C178 C179 1.398 . S
C179 C144 1.382 . S
C179 H156 0.951 . S
C179 C178 1.398 . S
C180 C181 1.384 . S
C180 H193 0.947 . S
C180 C215 1.382 . S
C181 C180 1.384 . S
C181 C182 1.378 . S
C182 C181 1.378 . S
C182 C183 1.378 . S
C182 H194 0.952 . S
C183 C182 1.378 . S
C183 H195 0.950 . S
C183 C214 1.383 . S
H184 C203 0.947 . S
H185 C204 0.946 1_556 S
H186 C206 0.953 . S
H187 C207 0.945 . S
H188 C209 0.952 . S
H189 C210 0.949 . S
H190 C212 0.950 . S
H191 C213 0.948 . S
H192 C215 0.951 . S
H193 C180 0.947 . S
H194 C182 0.952 . S
H195 C183 0.950 . S
N196 C199 1.382 1_556 S
N196 C201 1.363 . S
N197 C199 1.371 . S
N197 C200 1.372 . S
N198 C200 1.369 . S
N198 C201 1.371 1_554 S
C199 N196 1.382 1_554 S
C199 N197 1.371 . S
C199 C202 1.480 . S
C200 N197 1.372 . S
C200 N198 1.369 . S
C200 C208 1.457 . S
C201 N196 1.363 . S
C201 N198 1.371 1_556 S
C201 C214 1.479 . S
C202 C199 1.480 . S
C202 C203 1.383 1_554 S
C202 C207 1.385 . S
C203 H184 0.947 . S
C203 C202 1.383 1_556 S
C203 C204 1.388 1_556 S
C204 H185 0.946 1_554 S
C204 C203 1.388 1_554 S
C204 C205 1.384 . S
C205 C204 1.384 . S
C205 C206 1.377 . S
C206 H186 0.953 . S
C206 C205 1.377 . S
C206 C207 1.369 . S
C207 H187 0.945 . S
C207 C202 1.385 . S
C207 C206 1.369 . S
C208 C200 1.457 . S
C208 C209 1.372 . S
C208 C213 1.364 . S
C209 H188 0.952 . S
C209 C208 1.372 . S
C209 C210 1.389 . S
C210 H189 0.949 . S
C210 C209 1.389 . S
C210 C211 1.387 . S
C211 C210 1.387 . S
C211 C212 1.372 . S
C212 H190 0.950 . S
C212 C211 1.372 . S
C212 C213 1.379 . S
C213 H191 0.948 . S
C213 C208 1.364 . S
C213 C212 1.379 . S
C214 C183 1.383 . S
C214 C201 1.479 . S
C214 C215 1.398 . S
C215 C180 1.382 . S
C215 H192 0.951 . S
C215 C214 1.398 . S
C216 C217 1.384 . S
C216 H229 0.947 . S
C216 C251 1.382 . S
C217 C216 1.384 . S
C217 C218 1.378 . S
C218 C217 1.378 . S
C218 C219 1.378 . S
C218 H230 0.952 . S
C219 C218 1.378 . S
C219 H231 0.950 . S
C219 C250 1.383 . S
H220 C239 0.947 . S
H221 C240 0.946 1_556 S
H222 C242 0.953 . S
H223 C243 0.945 . S
H224 C245 0.952 . S
H225 C246 0.949 . S
H226 C248 0.950 . S
H227 C249 0.948 . S
H228 C251 0.951 . S
H229 C216 0.947 . S
H230 C218 0.952 . S
H231 C219 0.950 . S
N232 C235 1.382 1_556 S
N232 C237 1.363 . S
N233 C235 1.371 . S
N233 C236 1.372 . S
N234 C236 1.349 1_556 S
N234 C237 1.386 . S
C235 N232 1.382 1_554 S
C235 N233 1.371 . S
C235 C238 1.480 . S
C236 N233 1.372 . S
C236 N234 1.349 1_554 S
C236 C244 1.457 . S
C237 N232 1.363 . S
C237 N234 1.386 . S
C237 C250 1.479 . S
C238 C235 1.480 . S
C238 C239 1.383 1_554 S
C238 C243 1.385 . S
C239 H220 0.947 . S
C239 C238 1.383 1_556 S
C239 C240 1.388 1_556 S
C240 H221 0.946 1_554 S
C240 C239 1.388 1_554 S
C240 C241 1.384 . S
C241 C240 1.384 . S
C241 C242 1.377 . S
C242 H222 0.953 . S
C242 C241 1.377 . S
C242 C243 1.369 . S
C243 H223 0.945 . S
C243 C238 1.385 . S
C243 C242 1.369 . S
C244 C236 1.457 . S
C244 C245 1.372 . S
C244 C249 1.364 . S
C245 H224 0.952 . S
C245 C244 1.372 . S
C245 C246 1.389 . S
C246 H225 0.949 . S
C246 C245 1.389 . S
C246 C247 1.387 . S
C247 C246 1.387 . S
C247 C248 1.372 . S
C248 H226 0.950 . S
C248 C247 1.372 . S
C248 C249 1.379 . S
C249 H227 0.948 . S
C249 C244 1.364 . S
C249 C248 1.379 . S
C250 C219 1.383 . S
C250 C237 1.479 . S
C250 C251 1.398 . S
C251 C216 1.382 . S
C251 H228 0.951 . S
C251 C250 1.398 . S
C252 C253 1.384 . S
C252 H265 0.947 . S
C252 C287 1.382 . S
C253 C252 1.384 . S
C253 C254 1.378 . S
C254 C253 1.378 . S
C254 C255 1.378 . S
C254 H266 0.952 . S
C255 C254 1.378 . S
C255 H267 0.950 . S
C255 C286 1.383 . S
H256 C275 0.947 . S
H257 C276 0.946 . S
H258 C278 0.953 1_556 S
H259 C279 0.963 . S
H260 C281 0.952 . S
H261 C282 0.949 . S
H262 C284 0.950 . S
H263 C285 0.948 . S
H264 C287 0.951 . S
H265 C252 0.947 . S
H266 C254 0.952 . S
H267 C255 0.950 . S
N268 C271 1.382 . S
N268 C273 1.363 . S
N269 C271 1.371 1_556 S
N269 C272 1.372 . S
N270 C272 1.361 1_554 S
N270 C273 1.376 . S
C271 N268 1.382 . S
C271 N269 1.371 1_554 S
C271 C274 1.480 . S
C272 N269 1.372 . S
C272 N270 1.361 1_556 S
C272 C280 1.457 . S
C273 N268 1.363 . S
C273 N270 1.376 . S
C273 C286 1.479 . S
C274 C271 1.480 . S
C274 C275 1.383 . S
C274 C279 1.371 1_554 S
C275 H256 0.947 . S
C275 C274 1.383 . S
C275 C276 1.388 . S
C276 H257 0.946 . S
C276 C275 1.388 . S
C276 C277 1.384 . S
C277 C276 1.384 . S
C277 C278 1.377 . S
C278 H258 0.953 1_554 S
C278 C277 1.377 . S
C278 C279 1.365 1_554 S
C279 H259 0.963 . S
C279 C274 1.371 1_556 S
C279 C278 1.365 1_556 S
C280 C272 1.457 . S
C280 C281 1.372 . S
C280 C285 1.364 . S
C281 H260 0.952 . S
C281 C280 1.372 . S
C281 C282 1.389 . S
C282 H261 0.949 . S
C282 C281 1.389 . S
C282 C283 1.387 . S
C283 C282 1.387 . S
C283 C284 1.372 . S
C284 H262 0.950 . S
C284 C283 1.372 . S
C284 C285 1.379 . S
C285 H263 0.948 . S
C285 C280 1.364 . S
C285 C284 1.379 . S
C286 C255 1.383 . S
C286 C273 1.479 . S
C286 C287 1.398 . S
C287 C252 1.382 . S
C287 H264 0.951 . S
C287 C286 1.398 . S
Eu288 N319 2.657 1_565 S
Eu288 N326 2.609 . S
Eu288 O332 2.558 . S
Eu288 O333 2.612 1_455 S
Eu288 O335 2.339 1_455 S
Eu288 O336 2.563 . S
Eu288 O337 2.419 . S
Eu288 O339 2.380 1_565 S
Eu288 O340 2.432 . S
Eu288 C352 2.848 . S
C289 C292 1.416 1_545 S
C289 C293 1.411 . S
C289 N296 1.377 . S
C290 C292 1.439 . S
C290 C294 1.423 . S
C290 C302 1.392 . S
C291 C293 1.420 1_565 S
C291 C294 1.351 . S
C291 H314 0.931 . S
C292 C289 1.416 1_565 S
C292 C290 1.439 . S
C292 N300 1.357 1_565 S
C293 C289 1.411 . S
C293 C291 1.420 1_545 S
C293 C298 1.395 . S
C294 C290 1.423 . S
C294 C291 1.351 . S
C294 H306 0.930 . S
C295 C297 1.400 . S
C295 C298 1.386 . S
C295 H307 0.930 . S
N296 C289 1.377 . S
N296 C297 1.321 . S
N296 Eu299 2.609 . S
C297 C295 1.400 . S
C297 N296 1.321 . S
C297 H304 0.930 . S
C298 C293 1.395 . S
C298 C295 1.386 . S
C298 H317 0.930 . S
Eu299 N296 2.609 . S
Eu299 N300 2.657 . S
Eu299 O333 2.380 1_545 S
Eu299 O334 2.432 . S
Eu299 O338 2.558 . S
Eu299 O339 2.612 1_655 S
Eu299 O341 2.339 1_655 S
Eu299 O342 2.563 1_655 S
Eu299 O343 2.419 . S
Eu299 C363 2.848 . S
N300 C292 1.357 1_545 S
N300 Eu299 2.657 . S
N300 C301 1.334 1_645 S
C301 N300 1.334 1_465 S
C301 C303 1.413 . S
C301 H308 0.929 . S
C302 C290 1.392 . S
C302 C303 1.367 1_655 S
C302 H310 0.930 . S
C303 C301 1.413 . S
C303 C302 1.367 1_455 S
C303 H305 0.930 . S
H304 C297 0.930 . S
H305 C303 0.930 . S
H306 C294 0.930 . S
H307 C295 0.930 . S
H308 C301 0.929 . S
H309 C323 0.930 1_655 S
H310 C302 0.930 . S
H311 C329 0.930 . S
H312 C320 0.929 1_655 S
H313 C327 0.930 . S
H314 C291 0.931 . S
H315 C321 0.930 . S
H316 C354 0.930 . S
H317 C298 0.930 . S
H318 C353 0.931 . S
N319 Eu288 2.657 1_545 S
N319 C320 1.334 . S
N319 C324 1.362 . S
C320 H312 0.929 1_455 S
C320 N319 1.334 . S
C320 C323 1.413 . S
C321 H315 0.930 . S
C321 C322 1.392 . S
C321 C323 1.367 . S
C322 C321 1.392 . S
C322 C324 1.420 . S
C322 C354 1.423 . S
C323 H309 0.930 1_455 S
C323 C320 1.413 . S
C323 C321 1.367 . S
C324 N319 1.362 . S
C324 C322 1.420 . S
C324 C328 1.429 . S
H325 C330 0.930 . S
N326 Eu288 2.609 . S
N326 C328 1.377 1_565 S
N326 C329 1.321 . S
C327 H313 0.930 . S
C327 C329 1.400 . S
C327 C330 1.386 . S
C328 C324 1.429 . S
C328 N326 1.377 1_545 S
C328 C331 1.411 . S
C329 H311 0.930 . S
C329 N326 1.321 . S
C329 C327 1.400 . S
C330 H325 0.930 . S
C330 C327 1.386 . S
C330 C331 1.395 1_565 S
C331 C328 1.411 . S
C331 C330 1.395 1_545 S
C331 C353 1.420 . S
O332 Eu288 2.558 . S
O332 C352 1.257 . S
O333 Eu288 2.612 1_655 S
O333 Eu299 2.380 1_565 S
O333 C344 1.276 . S
O334 Eu299 2.432 . S
O334 C351 1.264 . S
O335 Eu288 2.339 1_655 S
O335 C351 1.254 1_565 S
O336 Eu288 2.563 . S
O336 C344 1.235 1_455 S
O337 Eu288 2.419 . S
O337 C352 1.249 . S
O338 Eu299 2.558 . S
O338 C363 1.257 . S
O339 Eu288 2.380 1_545 S
O339 Eu299 2.612 1_455 S
O339 C355 1.276 . S
O340 Eu288 2.432 . S
O340 C362 1.264 1_565 S
O341 Eu299 2.339 1_455 S
O341 C362 1.254 . S
O342 Eu299 2.563 1_455 S
O342 C355 1.235 . S
O343 Eu299 2.419 . S
O343 C363 1.249 . S
C344 O333 1.276 . S
C344 O336 1.235 1_655 S
C345 C347 1.393 . S
C345 C349 1.395 . S
C345 C352 1.492 . S
C346 C347 1.392 . S
C346 C348 1.386 . S
C347 C345 1.393 . S
C347 C346 1.392 . S
C347 H364 0.930 1_455 S
C348 C346 1.386 . S
C348 C350 1.395 . S
C348 H365 0.930 . S
C349 C345 1.395 . S
C349 C350 1.379 . S
C349 H366 0.930 . S
C350 C348 1.395 . S
C350 C349 1.379 . S
C350 H367 0.930 . S
C351 O334 1.264 . S
C351 O335 1.254 1_545 S
C352 Eu288 2.848 . S
C352 O332 1.257 . S
C352 O337 1.249 . S
C352 C345 1.492 . S
C353 H318 0.931 . S
C353 C331 1.420 . S
C353 C354 1.351 . S
C354 H316 0.930 . S
C354 C322 1.423 . S
C354 C353 1.351 . S
C355 O339 1.276 . S
C355 O342 1.235 . S
C356 C357 1.393 . S
C356 C360 1.395 . S
C356 C363 1.492 . S
C357 C356 1.393 . S
C357 C358 1.392 . S
C357 H368 0.930 1_655 S
C358 C357 1.392 . S
C358 C359 1.386 . S
C359 C358 1.386 . S
C359 C361 1.395 . S
C359 H369 0.930 . S
C360 C356 1.395 . S
C360 C361 1.379 . S
C360 H370 0.930 . S
C361 C359 1.395 . S
C361 C360 1.379 . S
C361 H371 0.930 . S
C362 O340 1.264 1_545 S
C362 O341 1.254 . S
C363 Eu299 2.848 . S
C363 O338 1.257 . S
C363 O343 1.249 . S
C363 C356 1.492 . S
H364 C347 0.930 1_655 S
H365 C348 0.930 . S
H366 C349 0.930 . S
H367 C350 0.930 . S
H368 C357 0.930 1_455 S
H369 C359 0.930 . S
H370 C360 0.930 . S
H371 C361 0.930 . S
Eu372 N403 2.657 . S
Eu372 N410 2.609 . S
Eu372 O416 2.558 . S
Eu372 O417 2.612 1_545 S
Eu372 O419 2.339 1_545 S
Eu372 O420 2.563 . S
Eu372 O421 2.419 . S
Eu372 O423 2.380 . S
Eu372 O424 2.432 . S
Eu372 C436 2.848 . S
C373 C376 1.429 . S
C373 C377 1.411 . S
C373 N380 1.377 . S
C374 C376 1.420 . S
C374 C378 1.423 . S
C374 C386 1.392 . S
C375 C377 1.420 . S
C375 C378 1.351 . S
C375 H398 0.931 . S
C376 C373 1.429 . S
C376 C374 1.420 . S
C376 N384 1.362 . S
C377 C373 1.411 . S
C377 C375 1.420 . S
C377 C382 1.395 . S
C378 C374 1.423 . S
C378 C375 1.351 . S
C378 H390 0.930 . S
C379 C381 1.400 . S
C379 C382 1.386 . S
C379 H391 0.930 . S
N380 C373 1.377 . S
N380 C381 1.321 . S
N380 Eu383 2.609 . S
C381 C379 1.400 . S
C381 N380 1.321 . S
C381 H388 0.930 . S
C382 C377 1.395 . S
C382 C379 1.386 . S
C382 H401 0.930 . S
Eu383 N380 2.609 . S
Eu383 N384 2.657 . S
Eu383 O417 2.380 . S
Eu383 O418 2.432 . S
Eu383 O422 2.558 . S
Eu383 O423 2.612 1_565 S
Eu383 O425 2.339 1_565 S
Eu383 O426 2.563 1_565 S
Eu383 O427 2.419 . S
Eu383 C447 2.848 . S
N384 C376 1.362 . S
N384 Eu383 2.657 . S
N384 C385 1.334 1_565 S
C385 N384 1.334 1_545 S
C385 C387 1.413 . S
C385 H392 0.929 . S
C386 C374 1.392 . S
C386 C387 1.367 1_565 S
C386 H394 0.930 . S
C387 C385 1.413 . S
C387 C386 1.367 1_545 S
C387 H389 0.930 . S
H388 C381 0.930 . S
H389 C387 0.930 . S
H390 C378 0.930 . S
H391 C379 0.930 . S
H392 C385 0.929 . S
H393 C407 0.930 1_565 S
H394 C386 0.930 . S
H395 C413 0.930 . S
H396 C404 0.929 1_565 S
H397 C411 0.930 . S
H398 C375 0.931 . S
H399 C405 0.930 . S
H400 C438 0.930 . S
H401 C382 0.930 . S
H402 C437 0.931 . S
N403 Eu372 2.657 . S
N403 C404 1.334 . S
N403 C408 1.362 . S
C404 H396 0.929 1_545 S
C404 N403 1.334 . S
C404 C407 1.413 . S
C405 H399 0.930 . S
C405 C406 1.392 . S
C405 C407 1.367 . S
C406 C405 1.392 . S
C406 C408 1.420 . S
C406 C438 1.423 . S
C407 H393 0.930 1_545 S
C407 C404 1.413 . S
C407 C405 1.367 . S
C408 N403 1.362 . S
C408 C406 1.420 . S
C408 C412 1.429 . S
H409 C414 0.930 . S
N410 Eu372 2.609 . S
N410 C412 1.377 . S
N410 C413 1.321 . S
C411 H397 0.930 . S
C411 C413 1.400 . S
C411 C414 1.386 . S
C412 C408 1.429 . S
C412 N410 1.377 . S
C412 C415 1.411 . S
C413 H395 0.930 . S
C413 N410 1.321 . S
C413 C411 1.400 . S
C414 H409 0.930 . S
C414 C411 1.386 . S
C414 C415 1.395 . S
C415 C412 1.411 . S
C415 C414 1.395 . S
C415 C437 1.420 . S
O416 Eu372 2.558 . S
O416 C436 1.257 . S
O417 Eu372 2.612 1_565 S
O417 Eu383 2.380 . S
O417 C428 1.276 . S
O418 Eu383 2.432 . S
O418 C435 1.264 . S
O419 Eu372 2.339 1_565 S
O419 C435 1.254 . S
O420 Eu372 2.563 . S
O420 C428 1.235 1_545 S
O421 Eu372 2.419 . S
O421 C436 1.249 . S
O422 Eu383 2.558 . S
O422 C447 1.257 . S
O423 Eu372 2.380 . S
O423 Eu383 2.612 1_545 S
O423 C439 1.276 . S
O424 Eu372 2.432 . S
O424 C446 1.264 . S
O425 Eu383 2.339 1_545 S
O425 C446 1.254 . S
O426 Eu383 2.563 1_545 S
O426 C439 1.235 . S
O427 Eu383 2.419 . S
O427 C447 1.249 . S
C428 O417 1.276 . S
C428 O420 1.235 1_565 S
C429 C431 1.393 . S
C429 C433 1.395 . S
C429 C436 1.492 . S
C430 C431 1.392 . S
C430 C432 1.386 . S
C431 C429 1.393 . S
C431 C430 1.392 . S
C431 H448 0.939 . S
C432 C430 1.386 . S
C432 C434 1.395 . S
C432 H449 0.930 . S
C433 C429 1.395 . S
C433 C434 1.379 . S
C433 H450 0.930 . S
C434 C432 1.395 . S
C434 C433 1.379 . S
C434 H451 0.930 . S
C435 O418 1.264 . S
C435 O419 1.254 . S
C436 Eu372 2.848 . S
C436 O416 1.257 . S
C436 O421 1.249 . S
C436 C429 1.492 . S
C437 H402 0.931 . S
C437 C415 1.420 . S
C437 C438 1.351 . S
C438 H400 0.930 . S
C438 C406 1.423 . S
C438 C437 1.351 . S
C439 O423 1.276 . S
C439 O426 1.235 . S
C440 C441 1.393 . S
C440 C444 1.395 . S
C440 C447 1.492 . S
C441 C440 1.393 . S
C441 C442 1.392 . S
C441 H452 0.930 1_565 S
C442 C441 1.392 . S
C442 C443 1.386 . S
C443 C442 1.386 . S
C443 C445 1.395 . S
C443 H453 0.930 . S
C444 C440 1.395 . S
C444 C445 1.379 . S
C444 H454 0.930 . S
C445 C443 1.395 . S
C445 C444 1.379 . S
C445 H455 0.930 . S
C446 O424 1.264 . S
C446 O425 1.254 . S
C447 Eu383 2.848 . S
C447 O422 1.257 . S
C447 O427 1.249 . S
C447 C440 1.492 . S
H448 C431 0.939 . S
H449 C432 0.930 . S
H450 C433 0.930 . S
H451 C434 0.930 . S
H452 C441 0.930 1_545 S
H453 C443 0.930 . S
H454 C444 0.930 . S
H455 C445 0.930 . S
Eu456 N487 2.657 . S
Eu456 N494 2.609 . S
Eu456 O500 2.558 . S
Eu456 O501 2.612 . S
Eu456 O503 2.339 . S
Eu456 O504 2.563 . S
Eu456 O505 2.419 . S
Eu456 O507 2.380 . S
Eu456 O508 2.432 . S
Eu456 C520 2.848 . S
C457 C460 1.429 . S
C457 C461 1.411 . S
C457 N464 1.377 . S
C458 C460 1.420 . S
C458 C462 1.423 . S
C458 C470 1.392 . S
C459 C461 1.420 . S
C459 C462 1.351 . S
C459 H482 0.931 . S
C460 C457 1.429 . S
C460 C458 1.420 . S
C460 N468 1.362 . S
C461 C457 1.411 . S
C461 C459 1.420 . S
C461 C466 1.395 . S
C462 C458 1.423 . S
C462 C459 1.351 . S
C462 H474 0.930 . S
C463 C465 1.400 . S
C463 C466 1.386 . S
C463 H475 0.930 . S
N464 C457 1.377 . S
N464 C465 1.321 . S
N464 Eu467 2.609 . S
C465 C463 1.400 . S
C465 N464 1.321 . S
C465 H472 0.930 . S
C466 C461 1.395 . S
C466 C463 1.386 . S
C466 H485 0.930 . S
Eu467 N464 2.609 . S
Eu467 N468 2.657 . S
Eu467 O501 2.380 . S
Eu467 O502 2.432 . S
Eu467 O506 2.558 . S
Eu467 O507 2.612 . S
Eu467 O509 2.339 . S
Eu467 O510 2.563 . S
Eu467 O511 2.419 . S
Eu467 C531 2.848 . S
N468 C460 1.362 . S
N468 Eu467 2.657 . S
N468 C469 1.334 . S
C469 N468 1.334 . S
C469 C471 1.413 . S
C469 H476 0.929 . S
C470 C458 1.392 . S
C470 C471 1.367 . S
C470 H478 0.930 . S
C471 C469 1.413 . S
C471 C470 1.367 . S
C471 H473 0.930 . S
H472 C465 0.930 . S
H473 C471 0.930 . S
H474 C462 0.930 . S
H475 C463 0.930 . S
H476 C469 0.929 . S
H477 C491 0.930 . S
H478 C470 0.930 . S
H479 C497 0.930 . S
H480 C488 0.929 . S
H481 C495 0.930 . S
H482 C459 0.931 . S
H483 C489 0.930 . S
H484 C522 0.930 . S
H485 C466 0.930 . S
H486 C521 0.931 . S
N487 Eu456 2.657 . S
N487 C488 1.334 . S
N487 C492 1.362 . S
C488 H480 0.929 . S
C488 N487 1.334 . S
C488 C491 1.413 . S
C489 H483 0.930 . S
C489 C490 1.392 . S
C489 C491 1.367 . S
C490 C489 1.392 . S
C490 C492 1.420 . S
C490 C522 1.423 . S
C491 H477 0.930 . S
C491 C488 1.413 . S
C491 C489 1.367 . S
C492 N487 1.362 . S
C492 C490 1.420 . S
C492 C496 1.429 . S
H493 C498 0.930 . S
N494 Eu456 2.609 . S
N494 C496 1.377 . S
N494 C497 1.321 . S
C495 H481 0.930 . S
C495 C497 1.400 . S
C495 C498 1.386 . S
C496 C492 1.429 . S
C496 N494 1.377 . S
C496 C499 1.411 . S
C497 H479 0.930 . S
C497 N494 1.321 . S
C497 C495 1.400 . S
C498 H493 0.930 . S
C498 C495 1.386 . S
C498 C499 1.395 . S
C499 C496 1.411 . S
C499 C498 1.395 . S
C499 C521 1.420 . S
O500 Eu456 2.558 . S
O500 C520 1.257 . S
O501 Eu456 2.612 . S
O501 Eu467 2.380 . S
O501 C512 1.276 . S
O502 Eu467 2.432 . S
O502 C519 1.264 . S
O503 Eu456 2.339 . S
O503 C519 1.254 . S
O504 Eu456 2.563 . S
O504 C512 1.235 . S
O505 Eu456 2.419 . S
O505 C520 1.249 . S
O506 Eu467 2.558 . S
O506 C531 1.257 . S
O507 Eu456 2.380 . S
O507 Eu467 2.612 . S
O507 C523 1.276 . S
O508 Eu456 2.432 . S
O508 C530 1.264 . S
O509 Eu467 2.339 . S
O509 C530 1.254 . S
O510 Eu467 2.563 . S
O510 C523 1.235 . S
O511 Eu467 2.419 . S
O511 C531 1.249 . S
C512 O501 1.276 . S
C512 O504 1.235 . S
C513 C515 1.393 . S
C513 C517 1.395 . S
C513 C520 1.492 . S
C514 C515 1.392 . S
C514 C516 1.386 . S
C515 C513 1.393 . S
C515 C514 1.392 . S
C515 H532 0.930 . S
C516 C514 1.386 . S
C516 C518 1.395 . S
C516 H533 0.930 . S
C517 C513 1.395 . S
C517 C518 1.379 . S
C517 H534 0.930 . S
C518 C516 1.395 . S
C518 C517 1.379 . S
C518 H535 0.930 . S
C519 O502 1.264 . S
C519 O503 1.254 . S
C520 Eu456 2.848 . S
C520 O500 1.257 . S
C520 O505 1.249 . S
C520 C513 1.492 . S
C521 H486 0.931 . S
C521 C499 1.420 . S
C521 C522 1.351 . S
C522 H484 0.930 . S
C522 C490 1.423 . S
C522 C521 1.351 . S
C523 O507 1.276 . S
C523 O510 1.235 . S
C524 C525 1.393 . S
C524 C528 1.395 . S
C524 C531 1.492 . S
C525 C524 1.393 . S
C525 C526 1.392 . S
C525 H536 0.930 . S
C526 C525 1.392 . S
C526 C527 1.386 . S
C527 C526 1.386 . S
C527 C529 1.395 . S
C527 H537 0.930 . S
C528 C524 1.395 . S
C528 C529 1.379 . S
C528 H538 0.930 . S
C529 C527 1.395 . S
C529 C528 1.379 . S
C529 H539 0.930 . S
C530 O508 1.264 . S
C530 O509 1.254 . S
C531 Eu467 2.848 . S
C531 O506 1.257 . S
C531 O511 1.249 . S
C531 C524 1.492 . S
H532 C515 0.930 . S
H533 C516 0.930 . S
H534 C517 0.930 . S
H535 C518 0.930 . S
H536 C525 0.930 . S
H537 C527 0.930 . S
H538 C528 0.930 . S
H539 C529 0.930 . S
Eu540 N571 2.657 . S
Eu540 N578 2.609 . S
Eu540 O584 2.558 . S
Eu540 O585 2.612 . S
Eu540 O587 2.339 . S
Eu540 O588 2.563 . S
Eu540 O589 2.419 . S
Eu540 O591 2.405 . S
Eu540 O592 2.432 1_455 S
Eu540 C604 2.848 . S
C541 C544 1.429 . S
C541 C545 1.411 . S
C541 N548 1.377 . S
C542 C544 1.420 . S
C542 C546 1.423 . S
C542 C554 1.392 . S
C543 C545 1.420 . S
C543 C546 1.351 . S
C543 H566 0.931 . S
C544 C541 1.429 . S
C544 C542 1.420 . S
C544 N552 1.362 . S
C545 C541 1.411 . S
C545 C543 1.420 . S
C545 C550 1.395 . S
C546 C542 1.423 . S
C546 C543 1.351 . S
C546 H558 0.930 . S
C547 C549 1.400 . S
C547 C550 1.386 1_455 S
C547 H559 0.930 . S
N548 C541 1.377 . S
N548 C549 1.321 1_655 S
N548 Eu551 2.609 . S
C549 C547 1.400 . S
C549 N548 1.321 1_455 S
C549 H556 0.930 . S
C550 C545 1.395 . S
C550 C547 1.386 1_655 S
C550 H569 0.930 . S
Eu551 N548 2.609 . S
Eu551 N552 2.657 . S
Eu551 O585 2.380 1_655 S
Eu551 O586 2.432 1_655 S
Eu551 O590 2.558 . S
Eu551 O591 2.597 1_655 S
Eu551 O593 2.339 . S
Eu551 O594 2.563 . S
Eu551 O595 2.419 . S
Eu551 C615 2.848 . S
N552 C544 1.362 . S
N552 Eu551 2.657 . S
N552 C553 1.334 . S
C553 N552 1.334 . S
C553 C555 1.413 . S
C553 H560 0.929 . S
C554 C542 1.392 . S
C554 C555 1.367 . S
C554 H562 0.930 . S
C555 C553 1.413 . S
C555 C554 1.367 . S
C555 H557 0.930 . S
H556 C549 0.930 . S
H557 C555 0.930 . S
H558 C546 0.930 . S
H559 C547 0.930 . S
H560 C553 0.929 . S
H561 C575 0.930 . S
H562 C554 0.930 . S
H563 C581 0.930 1_655 S
H564 C572 0.929 . S
H565 C579 0.930 1_655 S
H566 C543 0.931 . S
H567 C573 0.930 . S
H568 C606 0.930 . S
H569 C550 0.930 . S
H570 C605 0.931 . S
N571 Eu540 2.657 . S
N571 C572 1.334 . S
N571 C576 1.362 . S
C572 H564 0.929 . S
C572 N571 1.334 . S
C572 C575 1.413 . S
C573 H567 0.930 . S
C573 C574 1.392 . S
C573 C575 1.367 . S
C574 C573 1.392 . S
C574 C576 1.420 . S
C574 C606 1.423 . S
C575 H561 0.930 . S
C575 C572 1.413 . S
C575 C573 1.367 . S
C576 N571 1.362 . S
C576 C574 1.420 . S
C576 C580 1.429 . S
H577 C582 0.930 . S
N578 Eu540 2.609 . S
N578 C580 1.377 . S
N578 C581 1.321 . S
C579 H565 0.930 1_455 S
C579 C581 1.400 . S
C579 C582 1.386 . S
C580 C576 1.429 . S
C580 N578 1.377 . S
C580 C583 1.411 . S
C581 H563 0.930 1_455 S
C581 N578 1.321 . S
C581 C579 1.400 . S
C582 H577 0.930 . S
C582 C579 1.386 . S
C582 C583 1.395 . S
C583 C580 1.411 . S
C583 C582 1.395 . S
C583 C605 1.420 . S
O584 Eu540 2.558 . S
O584 C604 1.257 . S
O585 Eu540 2.612 . S
O585 Eu551 2.380 1_455 S
O585 C596 1.276 . S
O586 Eu551 2.432 1_455 S
O586 C603 1.264 . S
O587 Eu540 2.339 . S
O587 C603 1.254 . S
O588 Eu540 2.563 . S
O588 C596 1.235 . S
O589 Eu540 2.419 . S
O589 C604 1.249 . S
O590 Eu551 2.558 . S
O590 C615 1.257 . S
O591 Eu540 2.405 . S
O591 Eu551 2.597 1_455 S
O591 C607 1.259 1_455 S
O592 Eu540 2.432 1_655 S
O592 C614 1.264 . S
O593 Eu551 2.339 . S
O593 C614 1.254 . S
O594 Eu551 2.563 . S
O594 C607 1.235 . S
O595 Eu551 2.419 . S
O595 C615 1.249 . S
C596 O585 1.276 . S
C596 O588 1.235 . S
C597 C599 1.393 . S
C597 C601 1.395 . S
C597 C604 1.492 . S
C598 C599 1.392 . S
C598 C600 1.386 . S
C599 C597 1.393 . S
C599 C598 1.392 . S
C599 H616 0.930 . S
C600 C598 1.386 . S
C600 C602 1.395 . S
C600 H617 0.930 . S
C601 C597 1.395 . S
C601 C602 1.379 . S
C601 H618 0.930 . S
C602 C600 1.395 . S
C602 C601 1.379 . S
C602 H619 0.930 . S
C603 O586 1.264 . S
C603 O587 1.254 . S
C604 Eu540 2.848 . S
C604 O584 1.257 . S
C604 O589 1.249 . S
C604 C597 1.492 . S
C605 H570 0.931 . S
C605 C583 1.420 . S
C605 C606 1.351 . S
C606 H568 0.930 . S
C606 C574 1.423 . S
C606 C605 1.351 . S
C607 O591 1.259 1_655 S
C607 O594 1.235 . S
C608 C609 1.393 . S
C608 C612 1.395 . S
C608 C615 1.492 . S
C609 C608 1.393 . S
C609 C610 1.392 . S
C609 H620 0.930 . S
C610 C609 1.392 . S
C610 C611 1.386 . S
C611 C610 1.386 . S
C611 C613 1.395 . S
C611 H621 0.930 . S
C612 C608 1.395 . S
C612 C613 1.379 . S
C612 H622 0.930 . S
C613 C611 1.395 . S
C613 C612 1.379 . S
C613 H623 0.930 . S
C614 O592 1.264 . S
C614 O593 1.254 . S
C615 Eu551 2.848 . S
C615 O590 1.257 . S
C615 O595 1.249 . S
C615 C608 1.492 . S
H616 C599 0.930 . S
H617 C600 0.930 . S
H618 C601 0.930 . S
H619 C602 0.930 . S
H620 C609 0.930 . S
H621 C611 0.930 . S
H622 C612 0.930 . S
H623 C613 0.930 . S
H624 C632 0.929 . S
H625 C634 0.930 . S
H626 C636 0.930 . S
H627 C639 0.929 . S
H628 C642 0.930 . S
H629 C644 0.960 . S
H630 C644 0.960 . S
H631 C644 0.960 . S
C632 H624 0.929 . S
C632 C633 1.377 . S
C632 C634 1.384 . S
C633 C632 1.377 . S
C633 C639 1.390 . S
C634 H625 0.930 . S
C634 C632 1.384 . S
C634 C635 1.372 . S
C635 C634 1.372 . S
C635 C636 1.400 . S
C635 C640 1.490 . S
C636 H626 0.930 . S
C636 C635 1.400 . S
C636 C639 1.386 . S
H637 C653 0.930 . S
H638 C654 0.931 . S
C639 H627 0.929 . S
C639 C633 1.390 . S
C639 C636 1.386 . S
C640 C635 1.490 . S
C640 C642 1.395 . S
C640 C643 1.403 . S
H641 C647 0.930 . S
C642 H628 0.930 . S
C642 C640 1.395 . S
C642 C645 1.403 . S
C643 C640 1.403 . S
C643 C644 1.524 . S
C643 C647 1.400 . S
C644 H629 0.960 . S
C644 H630 0.960 . S
C644 H631 0.960 . S
C644 C643 1.524 . S
C645 C642 1.403 . S
C645 C646 1.392 . S
C645 C649 1.495 . S
C646 C645 1.392 . S
C646 C647 1.385 . S
C646 C648 1.478 . S
C647 H641 0.930 . S
C647 C643 1.400 . S
C647 C646 1.385 . S
C648 C646 1.478 . S
C648 C650 1.381 . S
C648 C654 1.383 . S
C649 C645 1.495 . S
C649 H655 0.959 . S
C649 H656 0.961 . S
C649 H657 0.960 1_545 S
C650 C648 1.381 . S
C650 C651 1.394 . S
C650 H658 0.930 . S
C651 C650 1.394 . S
C651 C652 1.383 . S
C651 H659 0.929 1_545 S
C652 C651 1.383 . S
C652 C653 1.377 . S
C653 H637 0.930 . S
C653 C652 1.377 . S
C653 C654 1.379 . S
C654 H638 0.931 . S
C654 C648 1.383 . S
C654 C653 1.379 . S
H655 C649 0.959 . S
H656 C649 0.961 . S
H657 C649 0.960 1_565 S
H658 C650 0.930 . S
H659 C651 0.929 1_565 S
H660 C668 0.929 . S
H661 C670 0.930 . S
H662 C672 0.930 . S
H663 C675 0.929 . S
H664 C678 0.930 . S
H665 C680 0.960 . S
H666 C680 0.960 . S
H667 C680 0.960 . S
C668 H660 0.929 . S
C668 C669 1.377 . S
C668 C670 1.384 . S
C669 C668 1.377 . S
C669 C675 1.390 . S
C670 H661 0.930 . S
C670 C668 1.384 . S
C670 C671 1.372 . S
C671 C670 1.372 . S
C671 C672 1.400 . S
C671 C676 1.490 . S
C672 H662 0.930 . S
C672 C671 1.400 . S
C672 C675 1.386 . S
H673 C689 0.930 . S
H674 C690 0.931 . S
C675 H663 0.929 . S
C675 C669 1.390 . S
C675 C672 1.386 . S
C676 C671 1.490 . S
C676 C678 1.395 . S
C676 C679 1.403 . S
H677 C683 0.930 . S
C678 H664 0.930 . S
C678 C676 1.395 . S
C678 C681 1.403 . S
C679 C676 1.403 . S
C679 C680 1.524 . S
C679 C683 1.400 . S
C680 H665 0.960 . S
C680 H666 0.960 . S
C680 H667 0.960 . S
C680 C679 1.524 . S
C681 C678 1.403 . S
C681 C682 1.392 . S
C681 C685 1.495 . S
C682 C681 1.392 . S
C682 C683 1.385 . S
C682 C684 1.478 . S
C683 H677 0.930 . S
C683 C679 1.400 . S
C683 C682 1.385 . S
C684 C682 1.478 . S
C684 C686 1.381 . S
C684 C690 1.383 . S
C685 C681 1.495 . S
C685 H691 0.959 . S
C685 H692 0.961 . S
C685 H693 0.960 . S
C686 C684 1.381 . S
C686 C687 1.394 . S
C686 H694 0.930 . S
C687 C686 1.394 . S
C687 C688 1.383 . S
C687 H695 0.929 . S
C688 C687 1.383 . S
C688 C689 1.377 . S
C689 H673 0.930 . S
C689 C688 1.377 . S
C689 C690 1.379 . S
C690 H674 0.931 . S
C690 C684 1.383 . S
C690 C689 1.379 . S
H691 C685 0.959 . S
H692 C685 0.961 . S
H693 C685 0.960 . S
H694 C686 0.930 . S
H695 C687 0.929 . S
H696 C704 0.929 . S
H697 C706 0.930 . S
H698 C708 0.930 . S
H699 C711 0.929 . S
H700 C714 0.930 . S
H701 C716 0.960 . S
H702 C716 0.960 . S
H703 C716 0.960 . S
C704 H696 0.929 . S
C704 C705 1.377 . S
C704 C706 1.384 . S
C705 C704 1.377 . S
C705 C711 1.390 . S
C706 H697 0.930 . S
C706 C704 1.384 . S
C706 C707 1.372 . S
C707 C706 1.372 . S
C707 C708 1.400 . S
C707 C712 1.490 . S
C708 H698 0.930 . S
C708 C707 1.400 . S
C708 C711 1.386 . S
H709 C725 0.930 . S
H710 C726 0.931 . S
C711 H699 0.929 . S
C711 C705 1.390 . S
C711 C708 1.386 . S
C712 C707 1.490 . S
C712 C714 1.395 . S
C712 C715 1.403 . S
H713 C719 0.930 . S
C714 H700 0.930 . S
C714 C712 1.395 . S
C714 C717 1.403 . S
C715 C712 1.403 . S
C715 C716 1.524 . S
C715 C719 1.400 . S
C716 H701 0.960 . S
C716 H702 0.960 . S
C716 H703 0.960 . S
C716 C715 1.524 . S
C717 C714 1.403 . S
C717 C718 1.392 . S
C717 C721 1.495 . S
C718 C717 1.392 . S
C718 C719 1.385 . S
C718 C720 1.478 . S
C719 H713 0.930 . S
C719 C715 1.400 . S
C719 C718 1.385 . S
C720 C718 1.478 . S
C720 C722 1.381 . S
C720 C726 1.383 . S
C721 C717 1.495 . S
C721 H727 0.959 . S
C721 H728 0.961 . S
C721 H729 0.960 . S
C722 C720 1.381 . S
C722 C723 1.394 . S
C722 H730 0.930 . S
C723 C722 1.394 . S
C723 C724 1.383 . S
C723 H731 0.929 . S
C724 C723 1.383 . S
C724 C725 1.377 . S
C725 H709 0.930 . S
C725 C724 1.377 . S
C725 C726 1.379 . S
C726 H710 0.931 . S
C726 C720 1.383 . S
C726 C725 1.379 . S
H727 C721 0.959 . S
H728 C721 0.961 . S
H729 C721 0.960 . S
H730 C722 0.930 . S
H731 C723 0.929 . S
H732 C740 0.929 . S
H733 C742 0.930 . S
H734 C744 0.930 . S
H735 C747 0.929 . S
H736 C750 0.930 . S
H737 C752 0.960 . S
H738 C752 0.960 . S
H739 C752 0.960 . S
C740 H732 0.929 . S
C740 C741 1.377 . S
C740 C742 1.384 . S
C741 C740 1.377 . S
C741 C747 1.390 . S
C742 H733 0.930 . S
C742 C740 1.384 . S
C742 C743 1.372 . S
C743 C742 1.372 . S
C743 C744 1.400 . S
C743 C748 1.490 . S
C744 H734 0.930 . S
C744 C743 1.400 . S
C744 C747 1.386 . S
H745 C761 0.930 1_655 S
H746 C762 0.931 . S
C747 H735 0.929 . S
C747 C741 1.390 . S
C747 C744 1.386 . S
C748 C743 1.490 . S
C748 C750 1.395 . S
C748 C751 1.403 . S
H749 C755 0.930 . S
C750 H736 0.930 . S
C750 C748 1.395 . S
C750 C753 1.403 . S
C751 C748 1.403 . S
C751 C752 1.524 . S
C751 C755 1.400 . S
C752 H737 0.960 . S
C752 H738 0.960 . S
C752 H739 0.960 . S
C752 C751 1.524 . S
C753 C750 1.403 . S
C753 C754 1.392 . S
C753 C757 1.495 . S
C754 C753 1.392 . S
C754 C755 1.385 . S
C754 C756 1.478 . S
C755 H749 0.930 . S
C755 C751 1.400 . S
C755 C754 1.385 . S
C756 C754 1.478 . S
C756 C758 1.381 . S
C756 C762 1.383 . S
C757 C753 1.495 . S
C757 H763 0.959 . S
C757 H764 0.961 . S
C757 H765 0.960 . S
C758 C756 1.381 . S
C758 C759 1.394 . S
C758 H766 0.930 . S
C759 C758 1.394 . S
C759 C760 1.383 . S
C759 H767 0.929 . S
C760 C759 1.383 . S
C760 C761 1.377 . S
C761 H745 0.930 1_455 S
C761 C760 1.377 . S
C761 C762 1.379 . S
C762 H746 0.931 . S
C762 C756 1.383 . S
C762 C761 1.379 . S
H763 C757 0.959 . S
H764 C757 0.961 . S
H765 C757 0.960 . S
H766 C758 0.930 . S
H767 C759 0.929 . S
H768 C776 0.929 . S
H769 C778 0.930 . S
H770 C780 0.930 . S
H771 C783 0.929 . S
H772 C786 0.930 . S
H773 C788 0.960 . S
H774 C788 0.960 . S
H775 C788 0.960 . S
C776 H768 0.929 . S
C776 C777 1.377 . S
C776 C778 1.384 . S
C777 C776 1.377 . S
C777 C783 1.390 1_554 S
C778 H769 0.930 . S
C778 C776 1.384 . S
C778 C779 1.372 1_554 S
C779 C778 1.372 1_556 S
C779 C780 1.400 . S
C779 C784 1.490 . S
C780 H770 0.930 . S
C780 C779 1.400 . S
C780 C783 1.386 . S
H781 C797 0.930 . S
H782 C798 0.931 . S
C783 H771 0.929 . S
C783 C777 1.390 1_556 S
C783 C780 1.386 . S
C784 C779 1.490 . S
C784 C786 1.395 . S
C784 C787 1.403 . S
H785 C791 0.930 . S
C786 H772 0.930 . S
C786 C784 1.395 . S
C786 C789 1.403 . S
C787 C784 1.403 . S
C787 C788 1.524 . S
C787 C791 1.400 . S
C788 H773 0.960 . S
C788 H774 0.960 . S
C788 H775 0.960 . S
C788 C787 1.524 . S
C789 C786 1.403 . S
C789 C790 1.392 . S
C789 C793 1.495 . S
C790 C789 1.392 . S
C790 C791 1.385 . S
C790 C792 1.478 . S
C791 H785 0.930 . S
C791 C787 1.400 . S
C791 C790 1.385 . S
C792 C790 1.478 . S
C792 C794 1.381 . S
C792 C798 1.383 . S
C793 C789 1.495 . S
C793 H799 0.959 . S
C793 H800 0.961 . S
C793 H801 0.960 . S
C794 C792 1.381 . S
C794 C795 1.396 . S
C794 H802 0.931 1_565 S
C795 C794 1.396 . S
C795 C796 1.386 . S
C795 H803 0.925 1_565 S
C796 C795 1.386 . S
C796 C797 1.377 . S
C797 H781 0.930 . S
C797 C796 1.377 . S
C797 C798 1.379 . S
C798 H782 0.931 . S
C798 C792 1.383 . S
C798 C797 1.379 . S
H799 C793 0.959 . S
H800 C793 0.961 . S
H801 C793 0.960 . S
H802 C794 0.931 1_545 S
H803 C795 0.925 1_545 S
H804 C812 0.929 . S
H805 C814 0.930 . S
H806 C816 0.930 . S
H807 C819 0.929 . S
H808 C822 0.930 . S
H809 C824 0.960 . S
H810 C824 0.960 . S
H811 C824 0.960 . S
C812 H804 0.929 . S
C812 C813 1.377 . S
C812 C814 1.384 . S
C813 C812 1.377 . S
C813 C819 1.390 1_554 S
C814 H805 0.930 . S
C814 C812 1.384 . S
C814 C815 1.372 1_554 S
C815 C814 1.372 1_556 S
C815 C816 1.400 . S
C815 C820 1.490 . S
C816 H806 0.930 . S
C816 C815 1.400 . S
C816 C819 1.386 . S
H817 C833 0.930 . S
H818 C834 0.931 . S
C819 H807 0.929 . S
C819 C813 1.390 1_556 S
C819 C816 1.386 . S
C820 C815 1.490 . S
C820 C822 1.395 . S
C820 C823 1.403 . S
H821 C827 0.930 . S
C822 H808 0.930 . S
C822 C820 1.395 . S
C822 C825 1.403 . S
C823 C820 1.403 . S
C823 C824 1.524 . S
C823 C827 1.400 . S
C824 H809 0.960 . S
C824 H810 0.960 . S
C824 H811 0.960 . S
C824 C823 1.524 . S
C825 C822 1.403 . S
C825 C826 1.392 . S
C825 C829 1.495 . S
C826 C825 1.392 . S
C826 C827 1.385 . S
C826 C828 1.478 . S
C827 H821 0.930 . S
C827 C823 1.400 . S
C827 C826 1.385 . S
C828 C826 1.478 . S
C828 C830 1.381 . S
C828 C834 1.383 . S
C829 C825 1.495 . S
C829 H835 0.959 . S
C829 H836 0.961 . S
C829 H837 0.960 . S
C830 C828 1.381 . S
C830 C831 1.394 . S
C830 H838 0.930 . S
C831 C830 1.394 . S
C831 C832 1.383 . S
C831 H839 0.929 . S
C832 C831 1.383 . S
C832 C833 1.377 . S
C833 H817 0.930 . S
C833 C832 1.377 . S
C833 C834 1.379 . S
C834 H818 0.931 . S
C834 C828 1.383 . S
C834 C833 1.379 . S
H835 C829 0.959 . S
H836 C829 0.961 . S
H837 C829 0.960 . S
H838 C830 0.930 . S
H839 C831 0.929 . S
H840 C848 0.929 . S
H841 C850 0.930 . S
H842 C852 0.930 . S
H843 C855 0.929 . S
H844 C858 0.930 . S
H845 C860 0.960 . S
H846 C860 0.960 . S
H847 C860 0.960 . S
C848 H840 0.929 . S
C848 C849 1.377 1_556 S
C848 C850 1.384 . S
C849 C848 1.377 1_554 S
C849 C855 1.390 . S
C850 H841 0.930 . S
C850 C848 1.384 . S
C850 C851 1.372 . S
C851 C850 1.372 . S
C851 C852 1.400 . S
C851 C856 1.490 . S
C852 H842 0.930 . S
C852 C851 1.400 . S
C852 C855 1.386 1_556 S
H853 C869 0.930 . S
H854 C870 0.931 . S
C855 H843 0.929 . S
C855 C849 1.390 . S
C855 C852 1.386 1_554 S
C856 C851 1.490 . S
C856 C858 1.395 . S
C856 C859 1.403 . S
H857 C863 0.930 . S
C858 H844 0.930 . S
C858 C856 1.395 . S
C858 C861 1.403 . S
C859 C856 1.403 . S
C859 C860 1.524 . S
C859 C863 1.400 . S
C860 H845 0.960 . S
C860 H846 0.960 . S
C860 H847 0.960 . S
C860 C859 1.524 . S
C861 C858 1.403 . S
C861 C862 1.392 . S
C861 C865 1.495 . S
C862 C861 1.392 . S
C862 C863 1.385 . S
C862 C864 1.478 . S
C863 H857 0.930 . S
C863 C859 1.400 . S
C863 C862 1.385 . S
C864 C862 1.478 . S
C864 C866 1.381 . S
C864 C870 1.383 . S
C865 C861 1.495 . S
C865 H871 0.959 . S
C865 H872 0.961 . S
C865 H873 0.960 . S
C866 C864 1.381 . S
C866 C867 1.394 . S
C866 H874 0.930 . S
C867 C866 1.394 . S
C867 C868 1.383 . S
C867 H875 0.929 . S
C868 C867 1.383 . S
C868 C869 1.377 . S
C869 H853 0.930 . S
C869 C868 1.377 . S
C869 C870 1.379 . S
C870 H854 0.931 . S
C870 C864 1.383 . S
C870 C869 1.379 . S
H871 C865 0.959 . S
H872 C865 0.961 . S
H873 C865 0.960 . S
H874 C866 0.930 . S
H875 C867 0.929 . S
H876 C884 0.929 . S
H877 C886 0.930 . S
H878 C888 0.930 . S
H879 C891 0.929 . S
H880 C894 0.930 . S
H881 C896 0.960 . S
H882 C896 0.960 . S
H883 C896 0.960 . S
C884 H876 0.929 . S
C884 C885 1.377 . S
C884 C886 1.384 1_554 S
C885 C884 1.377 . S
C885 C891 1.390 . S
C886 H877 0.930 . S
C886 C884 1.384 1_556 S
C886 C887 1.372 . S
C887 C886 1.372 . S
C887 C888 1.400 . S
C887 C892 1.490 . S
C888 H878 0.930 . S
C888 C887 1.400 . S
C888 C891 1.386 1_556 S
H889 C905 0.930 . S
H890 C906 0.931 . S
C891 H879 0.929 . S
C891 C885 1.390 . S
C891 C888 1.386 1_554 S
C892 C887 1.490 . S
C892 C894 1.395 . S
C892 C895 1.403 . S
H893 C899 0.930 . S
C894 H880 0.930 . S
C894 C892 1.395 . S
C894 C897 1.403 . S
C895 C892 1.403 . S
C895 C896 1.524 . S
C895 C899 1.400 . S
C896 H881 0.960 . S
C896 H882 0.960 . S
C896 H883 0.960 . S
C896 C895 1.524 . S
C897 C894 1.403 . S
C897 C898 1.392 . S
C897 C901 1.495 1_655 S
C898 C897 1.392 . S
C898 C899 1.385 . S
C898 C900 1.478 . S
C899 H893 0.930 . S
C899 C895 1.400 . S
C899 C898 1.385 . S
C900 C898 1.478 . S
C900 C902 1.381 . S
C900 C906 1.383 . S
C901 C897 1.495 1_455 S
C901 H907 0.959 . S
C901 H908 0.961 . S
C901 H909 0.960 . S
C902 C900 1.381 . S
C902 C903 1.394 . S
C902 H910 0.930 . S
C903 C902 1.394 . S
C903 C904 1.383 . S
C903 H911 0.929 1_655 S
C904 C903 1.383 . S
C904 C905 1.377 . S
C905 H889 0.930 . S
C905 C904 1.377 . S
C905 C906 1.379 . S
C906 H890 0.931 . S
C906 C900 1.383 . S
C906 C905 1.379 . S
H907 C901 0.959 . S
H908 C901 0.961 . S
H909 C901 0.960 . S
H910 C902 0.930 . S
H911 C903 0.929 1_455 S
H912 C920 0.929 . S
H913 C922 0.930 . S
H914 C924 0.930 . S
H915 C927 0.929 . S
H916 C930 0.930 . S
H917 C932 0.960 . S
H918 C932 0.960 . S
H919 C932 0.960 . S
C920 H912 0.929 . S
C920 C921 1.377 . S
C920 C922 1.384 . S
C921 C920 1.377 . S
C921 C927 1.390 . S
C922 H913 0.930 . S
C922 C920 1.384 . S
C922 C923 1.372 . S
C923 C922 1.372 . S
C923 C924 1.400 . S
C923 C928 1.490 . S
C924 H914 0.930 . S
C924 C923 1.400 . S
C924 C927 1.386 . S
H925 C941 0.930 . S
H926 C942 0.931 . S
C927 H915 0.929 . S
C927 C921 1.390 . S
C927 C924 1.386 . S
C928 C923 1.490 . S
C928 C930 1.395 . S
C928 C931 1.403 . S
H929 C935 0.930 . S
C930 H916 0.930 . S
C930 C928 1.395 . S
C930 C933 1.403 . S
C931 C928 1.403 . S
C931 C932 1.524 . S
C931 C935 1.400 . S
C932 H917 0.960 . S
C932 H918 0.960 . S
C932 H919 0.960 . S
C932 C931 1.524 . S
C933 C930 1.403 . S
C933 C934 1.392 . S
C933 C937 1.495 . S
C934 C933 1.392 . S
C934 C935 1.385 . S
C934 C936 1.478 . S
C935 H929 0.930 . S
C935 C931 1.400 . S
C935 C934 1.385 . S
C936 C934 1.478 . S
C936 C938 1.381 . S
C936 C942 1.383 . S
C937 C933 1.495 . S
C937 H943 0.959 . S
C937 H944 0.961 . S
C937 H945 0.960 . S
C938 C936 1.381 . S
C938 C939 1.394 1_455 S
C938 H946 0.930 1_455 S
C939 C938 1.394 1_655 S
C939 C940 1.383 1_655 S
C939 H947 0.929 . S
C940 C939 1.383 1_455 S
C940 C941 1.377 . S
C941 H925 0.930 . S
C941 C940 1.377 . S
C941 C942 1.379 . S
C942 H926 0.931 . S
C942 C936 1.383 . S
C942 C941 1.379 . S
H943 C937 0.959 . S
H944 C937 0.961 . S
H945 C937 0.960 . S
H946 C938 0.930 1_655 S
H947 C939 0.929 . S
H948 C956 0.929 . S
H949 C958 0.930 . S
H950 C960 0.930 . S
H951 C963 0.929 . S
H952 C966 0.930 . S
H953 C968 0.960 . S
H954 C968 0.960 . S
H955 C968 0.960 . S
C956 H948 0.929 . S
C956 C957 1.377 . S
C956 C958 1.384 . S
C957 C956 1.377 . S
C957 C963 1.390 . S
C958 H949 0.930 . S
C958 C956 1.384 . S
C958 C959 1.372 . S
C959 C958 1.372 . S
C959 C960 1.400 . S
C959 C964 1.490 . S
C960 H950 0.930 . S
C960 C959 1.400 . S
C960 C963 1.386 . S
H961 C977 0.934 . S
H962 C978 0.931 . S
C963 H951 0.929 . S
C963 C957 1.390 . S
C963 C960 1.386 . S
C964 C959 1.490 . S
C964 C966 1.395 . S
C964 C967 1.403 . S
H965 C971 0.930 . S
C966 H952 0.930 . S
C966 C964 1.395 . S
C966 C969 1.403 . S
C967 C964 1.403 . S
C967 C968 1.524 . S
C967 C971 1.400 . S
C968 H953 0.960 . S
C968 H954 0.960 . S
C968 H955 0.960 . S
C968 C967 1.524 . S
C969 C966 1.403 . S
C969 C970 1.392 . S
C969 C973 1.495 . S
C970 C969 1.392 . S
C970 C971 1.385 . S
C970 C972 1.478 . S
C971 H965 0.930 . S
C971 C967 1.400 . S
C971 C970 1.385 . S
C972 C970 1.478 . S
C972 C974 1.381 . S
C972 C978 1.383 . S
C973 C969 1.495 . S
C973 H979 0.959 . S
C973 H980 0.961 1_545 S
C973 H981 0.960 . S
C974 C972 1.381 . S
C974 C975 1.394 . S
C974 H982 0.930 . S
C975 C974 1.394 . S
C975 C976 1.383 . S
C975 H983 0.929 . S
C976 C975 1.383 . S
C976 C977 1.376 1_545 S
C977 H961 0.934 . S
C977 C976 1.376 1_565 S
C977 C978 1.376 1_565 S
C978 H962 0.931 . S
C978 C972 1.383 . S
C978 C977 1.376 1_545 S
H979 C973 0.959 . S
H980 C973 0.961 1_565 S
H981 C973 0.960 . S
H982 C974 0.930 . S
H983 C975 0.929 . S
H984 C992 0.929 . S
H985 C994 0.930 . S
H986 C996 0.930 . S
H987 C999 0.929 . S
H988 C1002 0.930 . S
H989 C1004 0.960 . S
H990 C1004 0.960 . S
H991 C1004 0.960 . S
C992 H984 0.929 . S
C992 C993 1.377 . S
C992 C994 1.384 . S
C993 C992 1.377 . S
C993 C999 1.390 . S
C994 H985 0.930 . S
C994 C992 1.384 . S
C994 C995 1.372 . S
C995 C994 1.372 . S
C995 C996 1.400 . S
C995 C1000 1.490 . S
C996 H986 0.930 . S
C996 C995 1.400 . S
C996 C999 1.386 . S
H997 C1013 0.930 . S
H998 C1014 0.931 . S
C999 H987 0.929 . S
C999 C993 1.390 . S
C999 C996 1.386 . S
C1000 C995 1.490 . S
C1000 C1002 1.395 . S
C1000 C1003 1.403 . S
H1001 C1007 0.930 . S
C1002 H988 0.930 . S
C1002 C1000 1.395 . S
C1002 C1005 1.403 . S
C1003 C1000 1.403 . S
C1003 C1004 1.524 . S
C1003 C1007 1.400 . S
C1004 H989 0.960 . S
C1004 H990 0.960 . S
C1004 H991 0.960 . S
C1004 C1003 1.524 . S
C1005 C1002 1.403 . S
C1005 C1006 1.392 . S
C1005 C1009 1.495 . S
C1006 C1005 1.392 . S
C1006 C1007 1.385 . S
C1006 C1008 1.478 . S
C1007 H1001 0.930 . S
C1007 C1003 1.400 . S
C1007 C1006 1.385 . S
C1008 C1006 1.478 . S
C1008 C1010 1.381 . S
C1008 C1014 1.383 . S
C1009 C1005 1.495 . S
C1009 H1015 0.959 . S
C1009 H1016 0.961 . S
C1009 H1017 0.960 . S
C1010 C1008 1.381 . S
C1010 C1011 1.394 . S
C1010 H1018 0.930 . S
C1011 C1010 1.394 . S
C1011 C1012 1.383 . S
C1011 H1019 0.929 . S
C1012 C1011 1.383 . S
C1012 C1013 1.377 . S
C1013 H997 0.930 . S
C1013 C1012 1.377 . S
C1013 C1014 1.379 . S
C1014 H998 0.931 . S
C1014 C1008 1.383 . S
C1014 C1013 1.379 . S
H1015 C1009 0.959 . S
H1016 C1009 0.961 . S
H1017 C1009 0.960 . S
H1018 C1010 0.930 . S
H1019 C1011 0.929 . S
H1020 C1028 0.929 . S
H1021 C1030 0.930 . S
H1022 C1032 0.930 . S
H1023 C1035 0.929 . S
H1024 C1038 0.930 . S
H1025 C1040 0.960 . S
H1026 C1040 0.960 . S
H1027 C1040 0.960 . S
C1028 H1020 0.929 . S
C1028 C1029 1.377 . S
C1028 C1030 1.384 . S
C1029 C1028 1.377 . S
C1029 C1035 1.390 . S
C1030 H1021 0.930 . S
C1030 C1028 1.384 . S
C1030 C1031 1.372 . S
C1031 C1030 1.372 . S
C1031 C1032 1.400 . S
C1031 C1036 1.490 . S
C1032 H1022 0.930 . S
C1032 C1031 1.400 . S
C1032 C1035 1.386 . S
H1033 C1049 0.930 . S
H1034 C1050 0.931 . S
C1035 H1023 0.929 . S
C1035 C1029 1.390 . S
C1035 C1032 1.386 . S
C1036 C1031 1.490 . S
C1036 C1038 1.395 . S
C1036 C1039 1.403 . S
H1037 C1043 0.930 . S
C1038 H1024 0.930 . S
C1038 C1036 1.395 . S
C1038 C1041 1.403 . S
C1039 C1036 1.403 . S
C1039 C1040 1.524 . S
C1039 C1043 1.400 . S
C1040 H1025 0.960 . S
C1040 H1026 0.960 . S
C1040 H1027 0.960 . S
C1040 C1039 1.524 . S
C1041 C1038 1.403 . S
C1041 C1042 1.392 . S
C1041 C1045 1.495 . S
C1042 C1041 1.392 . S
C1042 C1043 1.385 . S
C1042 C1044 1.478 . S
C1043 H1037 0.930 . S
C1043 C1039 1.400 . S
C1043 C1042 1.385 . S
C1044 C1042 1.478 . S
C1044 C1046 1.381 . S
C1044 C1050 1.383 . S
C1045 C1041 1.495 . S
C1045 H1051 0.959 . S
C1045 H1052 0.961 . S
C1045 H1053 0.960 . S
C1046 C1044 1.381 . S
C1046 C1047 1.394 . S
C1046 H1054 0.930 . S
C1047 C1046 1.394 . S
C1047 C1048 1.383 . S
C1047 H1055 0.929 . S
C1048 C1047 1.383 . S
C1048 C1049 1.377 . S
C1049 H1033 0.930 . S
C1049 C1048 1.377 . S
C1049 C1050 1.379 . S
C1050 H1034 0.931 . S
C1050 C1044 1.383 . S
C1050 C1049 1.379 . S
H1051 C1045 0.959 . S
H1052 C1045 0.961 . S
H1053 C1045 0.960 . S
H1054 C1046 0.930 . S
H1055 C1047 0.929 . S
H1056 C1064 0.929 1_554 S
H1057 C1066 0.930 . S
H1058 C1068 0.930 . S
H1059 C1071 0.929 . S
H1060 C1074 0.930 . S
H1061 C1076 0.960 . S
H1062 C1076 0.960 . S
H1063 C1076 0.960 . S
C1064 H1056 0.929 1_556 S
C1064 C1065 1.377 . S
C1064 C1066 1.384 . S
C1065 C1064 1.377 . S
C1065 C1071 1.390 . S
C1066 H1057 0.930 . S
C1066 C1064 1.384 . S
C1066 C1067 1.372 . S
C1067 C1066 1.372 . S
C1067 C1068 1.400 . S
C1067 C1072 1.490 . S
C1068 H1058 0.930 . S
C1068 C1067 1.400 . S
C1068 C1071 1.386 . S
H1069 C1085 0.930 . S
H1070 C1086 0.931 . S
C1071 H1059 0.929 . S
C1071 C1065 1.390 . S
C1071 C1068 1.386 . S
C1072 C1067 1.490 . S
C1072 C1074 1.395 . S
C1072 C1075 1.403 . S
H1073 C1079 0.930 . S
C1074 H1060 0.930 . S
C1074 C1072 1.395 . S
C1074 C1077 1.403 . S
C1075 C1072 1.403 . S
C1075 C1076 1.524 . S
C1075 C1079 1.400 . S
C1076 H1061 0.960 . S
C1076 H1062 0.960 . S
C1076 H1063 0.960 . S
C1076 C1075 1.524 . S
C1077 C1074 1.403 . S
C1077 C1078 1.392 . S
C1077 C1081 1.495 . S
C1078 C1077 1.392 . S
C1078 C1079 1.385 . S
C1078 C1080 1.478 . S
C1079 H1073 0.930 . S
C1079 C1075 1.400 . S
C1079 C1078 1.385 . S
C1080 C1078 1.478 . S
C1080 C1082 1.381 . S
C1080 C1086 1.383 1_655 S
C1081 C1077 1.495 . S
C1081 H1087 0.959 . S
C1081 H1088 0.961 . S
C1081 H1089 0.960 . S
C1082 C1080 1.381 . S
C1082 C1083 1.394 . S
C1082 H1090 0.930 . S
C1083 C1082 1.394 . S
C1083 C1084 1.383 1_655 S
C1083 H1091 0.929 . S
C1084 C1083 1.383 1_455 S
C1084 C1085 1.377 . S
C1085 H1069 0.930 . S
C1085 C1084 1.377 . S
C1085 C1086 1.379 . S
C1086 H1070 0.931 . S
C1086 C1080 1.383 1_455 S
C1086 C1085 1.379 . S
H1087 C1081 0.959 . S
H1088 C1081 0.961 . S
H1089 C1081 0.960 . S
H1090 C1082 0.930 . S
H1091 C1083 0.929 . S
H1092 C1100 0.929 . S
H1093 C1102 0.930 . S
H1094 C1104 0.930 . S
H1095 C1107 0.929 . S
H1096 C1110 0.930 . S
H1097 C1112 0.960 . S
H1098 C1112 0.960 . S
H1099 C1112 0.960 . S
C1100 H1092 0.929 . S
C1100 C1101 1.377 . S
C1100 C1102 1.384 . S
C1101 C1100 1.377 . S
C1101 C1107 1.390 . S
C1102 H1093 0.930 . S
C1102 C1100 1.384 . S
C1102 C1103 1.372 . S
C1103 C1102 1.372 . S
C1103 C1104 1.400 . S
C1103 C1108 1.490 . S
C1104 H1094 0.930 . S
C1104 C1103 1.400 . S
C1104 C1107 1.386 . S
H1105 C1121 0.930 . S
H1106 C1122 0.931 . S
C1107 H1095 0.929 . S
C1107 C1101 1.390 . S
C1107 C1104 1.386 . S
C1108 C1103 1.490 . S
C1108 C1110 1.395 . S
C1108 C1111 1.403 . S
H1109 C1115 0.930 . S
C1110 H1096 0.930 . S
C1110 C1108 1.395 . S
C1110 C1113 1.403 . S
C1111 C1108 1.403 . S
C1111 C1112 1.524 . S
C1111 C1115 1.400 . S
C1112 H1097 0.960 . S
C1112 H1098 0.960 . S
C1112 H1099 0.960 . S
C1112 C1111 1.524 . S
C1113 C1110 1.403 . S
C1113 C1114 1.392 . S
C1113 C1117 1.495 . S
C1114 C1113 1.392 . S
C1114 C1115 1.385 . S
C1114 C1116 1.478 . S
C1115 H1109 0.930 . S
C1115 C1111 1.400 . S
C1115 C1114 1.385 . S
C1116 C1114 1.478 . S
C1116 C1118 1.381 . S
C1116 C1122 1.383 1_565 S
C1117 C1113 1.495 . S
C1117 H1123 0.959 . S
C1117 H1124 0.961 . S
C1117 H1125 0.960 . S
C1118 C1116 1.381 . S
C1118 C1119 1.394 . S
C1118 H1126 0.930 . S
C1119 C1118 1.394 . S
C1119 C1120 1.383 1_565 S
C1119 H1127 0.929 . S
C1120 C1119 1.383 1_545 S
C1120 C1121 1.377 . S
C1121 H1105 0.930 . S
C1121 C1120 1.377 . S
C1121 C1122 1.379 . S
C1122 H1106 0.931 . S
C1122 C1116 1.383 1_545 S
C1122 C1121 1.379 . S
H1123 C1117 0.959 . S
H1124 C1117 0.961 . S
H1125 C1117 0.960 . S
H1126 C1118 0.930 . S
H1127 C1119 0.929 . S
H1128 C1136 0.929 . S
H1129 C1138 0.930 . S
H1130 C1140 0.930 . S
H1131 C1143 0.929 . S
H1132 C1146 0.930 . S
H1133 C1148 0.960 . S
H1134 C1148 0.960 . S
H1135 C1148 0.960 . S
C1136 H1128 0.929 . S
C1136 C1137 1.377 . S
C1136 C1138 1.384 . S
C1137 C1136 1.377 . S
C1137 C1143 1.390 . S
C1138 H1129 0.930 . S
C1138 C1136 1.384 . S
C1138 C1139 1.372 . S
C1139 C1138 1.372 . S
C1139 C1140 1.400 . S
C1139 C1144 1.490 . S
C1140 H1130 0.930 . S
C1140 C1139 1.400 . S
C1140 C1143 1.386 . S
H1141 C1157 0.930 . S
H1142 C1158 0.931 . S
C1143 H1131 0.929 . S
C1143 C1137 1.390 . S
C1143 C1140 1.386 . S
C1144 C1139 1.490 . S
C1144 C1146 1.395 . S
C1144 C1147 1.403 . S
H1145 C1151 0.930 . S
C1146 H1132 0.930 . S
C1146 C1144 1.395 . S
C1146 C1149 1.403 . S
C1147 C1144 1.403 . S
C1147 C1148 1.524 . S
C1147 C1151 1.400 . S
C1148 H1133 0.960 . S
C1148 H1134 0.960 . S
C1148 H1135 0.960 . S
C1148 C1147 1.524 . S
C1149 C1146 1.403 . S
C1149 C1150 1.392 . S
C1149 C1153 1.495 . S
C1150 C1149 1.392 . S
C1150 C1151 1.385 . S
C1150 C1152 1.478 . S
C1151 H1145 0.930 . S
C1151 C1147 1.400 . S
C1151 C1150 1.385 . S
C1152 C1150 1.478 . S
C1152 C1154 1.381 . S
C1152 C1158 1.383 . S
C1153 C1149 1.495 . S
C1153 H1159 0.959 . S
C1153 H1160 0.961 . S
C1153 H1161 0.960 . S
C1154 C1152 1.381 . S
C1154 C1155 1.394 . S
C1154 H1162 0.930 . S
C1155 C1154 1.394 . S
C1155 C1156 1.383 . S
C1155 H1163 0.929 . S
C1156 C1155 1.383 . S
C1156 C1157 1.377 . S
C1157 H1141 0.930 . S
C1157 C1156 1.377 . S
C1157 C1158 1.379 . S
C1158 H1142 0.931 . S
C1158 C1152 1.383 . S
C1158 C1157 1.379 . S
H1159 C1153 0.959 . S
H1160 C1153 0.961 . S
H1161 C1153 0.960 . S
H1162 C1154 0.930 . S
H1163 C1155 0.929 . S
H1164 C1172 0.929 . S
H1165 C1174 0.930 . S
H1166 C1176 0.930 . S
H1167 C1179 0.929 . S
H1168 C1182 0.930 . S
H1169 C1184 0.960 . S
H1170 C1184 0.960 . S
H1171 C1184 0.960 . S
C1172 H1164 0.929 . S
C1172 C1173 1.377 . S
C1172 C1174 1.384 . S
C1173 C1172 1.377 . S
C1173 C1179 1.390 . S
C1174 H1165 0.930 . S
C1174 C1172 1.384 . S
C1174 C1175 1.372 . S
C1175 C1174 1.372 . S
C1175 C1176 1.400 . S
C1175 C1180 1.490 . S
C1176 H1166 0.930 . S
C1176 C1175 1.400 . S
C1176 C1179 1.386 . S
H1177 C1193 0.930 . S
H1178 C1194 0.931 . S
C1179 H1167 0.929 . S
C1179 C1173 1.390 . S
C1179 C1176 1.386 . S
C1180 C1175 1.490 . S
C1180 C1182 1.395 . S
C1180 C1183 1.403 . S
H1181 C1187 0.930 . S
C1182 H1168 0.930 . S
C1182 C1180 1.395 . S
C1182 C1185 1.403 . S
C1183 C1180 1.403 . S
C1183 C1184 1.524 . S
C1183 C1187 1.400 . S
C1184 H1169 0.960 . S
C1184 H1170 0.960 . S
C1184 H1171 0.960 . S
C1184 C1183 1.524 . S
C1185 C1182 1.403 . S
C1185 C1186 1.392 . S
C1185 C1189 1.495 . S
C1186 C1185 1.392 . S
C1186 C1187 1.385 . S
C1186 C1188 1.478 . S
C1187 H1181 0.930 . S
C1187 C1183 1.400 . S
C1187 C1186 1.385 . S
C1188 C1186 1.478 . S
C1188 C1190 1.381 . S
C1188 C1194 1.383 . S
C1189 C1185 1.495 . S
C1189 H1195 0.959 . S
C1189 H1196 0.961 . S
C1189 H1197 0.960 . S
C1190 C1188 1.381 . S
C1190 C1191 1.394 . S
C1190 H1198 0.930 . S
C1191 C1190 1.394 . S
C1191 C1192 1.383 . S
C1191 H1199 0.929 . S
C1192 C1191 1.383 . S
C1192 C1193 1.377 . S
C1193 H1177 0.930 . S
C1193 C1192 1.377 . S
C1193 C1194 1.379 . S
C1194 H1178 0.931 . S
C1194 C1188 1.383 . S
C1194 C1193 1.379 . S
H1195 C1189 0.959 . S
H1196 C1189 0.961 . S
H1197 C1189 0.960 . S
H1198 C1190 0.930 . S
H1199 C1191 0.929 . S
H1200 C1208 0.929 . S
H1201 C1210 0.930 . S
H1202 C1212 0.930 . S
H1203 C1215 0.929 . S
H1204 C1218 0.930 . S
H1205 C1220 0.960 . S
H1206 C1220 0.960 . S
H1207 C1220 0.960 . S
C1208 H1200 0.929 . S
C1208 C1209 1.377 . S
C1208 C1210 1.384 . S
C1209 C1208 1.377 . S
C1209 C1215 1.390 . S
C1210 H1201 0.930 . S
C1210 C1208 1.384 . S
C1210 C1211 1.372 . S
C1211 C1210 1.372 . S
C1211 C1212 1.400 . S
C1211 C1216 1.490 . S
C1212 H1202 0.930 . S
C1212 C1211 1.400 . S
C1212 C1215 1.386 . S
H1213 C1229 0.930 . S
H1214 C1230 0.931 . S
C1215 H1203 0.929 . S
C1215 C1209 1.390 . S
C1215 C1212 1.386 . S
C1216 C1211 1.490 . S
C1216 C1218 1.395 . S
C1216 C1219 1.403 . S
H1217 C1223 0.930 . S
C1218 H1204 0.930 . S
C1218 C1216 1.395 . S
C1218 C1221 1.403 . S
C1219 C1216 1.403 . S
C1219 C1220 1.524 . S
C1219 C1223 1.400 . S
C1220 H1205 0.960 . S
C1220 H1206 0.960 . S
C1220 H1207 0.960 . S
C1220 C1219 1.524 . S
C1221 C1218 1.403 . S
C1221 C1222 1.392 . S
C1221 C1225 1.495 . S
C1222 C1221 1.392 . S
C1222 C1223 1.385 . S
C1222 C1224 1.478 . S
C1223 H1217 0.930 . S
C1223 C1219 1.400 . S
C1223 C1222 1.385 . S
C1224 C1222 1.478 . S
C1224 C1226 1.381 . S
C1224 C1230 1.383 . S
C1225 C1221 1.495 . S
C1225 H1231 0.959 . S
C1225 H1232 0.961 . S
C1225 H1233 0.960 . S
C1226 C1224 1.381 . S
C1226 C1227 1.394 . S
C1226 H1234 0.930 . S
C1227 C1226 1.394 . S
C1227 C1228 1.383 . S
C1227 H1235 0.929 . S
C1228 C1227 1.383 . S
C1228 C1229 1.377 . S
C1229 H1213 0.930 . S
C1229 C1228 1.377 . S
C1229 C1230 1.379 . S
C1230 H1214 0.931 . S
C1230 C1224 1.383 . S
C1230 C1229 1.379 . S
H1231 C1225 0.959 . S
H1232 C1225 0.961 . S
H1233 C1225 0.960 . S
H1234 C1226 0.930 . S
H1235 C1227 0.929 . S
H1236 C1244 0.929 . S
H1237 C1246 0.930 . S
H1238 C1248 0.930 . S
H1239 C1251 0.929 . S
H1240 C1254 0.930 . S
H1241 C1256 0.960 . S
H1242 C1256 0.960 . S
H1243 C1256 0.960 . S
C1244 H1236 0.929 . S
C1244 C1245 1.377 . S
C1244 C1246 1.384 . S
C1245 C1244 1.377 . S
C1245 C1251 1.390 . S
C1246 H1237 0.930 . S
C1246 C1244 1.384 . S
C1246 C1247 1.372 . S
C1247 C1246 1.372 . S
C1247 C1248 1.400 . S
C1247 C1252 1.490 . S
C1248 H1238 0.930 . S
C1248 C1247 1.400 . S
C1248 C1251 1.386 . S
H1249 C1265 0.930 . S
H1250 C1266 0.931 . S
C1251 H1239 0.929 . S
C1251 C1245 1.390 . S
C1251 C1248 1.386 . S
C1252 C1247 1.490 . S
C1252 C1254 1.395 . S
C1252 C1255 1.403 . S
H1253 C1259 0.930 . S
C1254 H1240 0.930 . S
C1254 C1252 1.395 . S
C1254 C1257 1.403 . S
C1255 C1252 1.403 . S
C1255 C1256 1.524 . S
C1255 C1259 1.400 . S
C1256 H1241 0.960 . S
C1256 H1242 0.960 . S
C1256 H1243 0.960 . S
C1256 C1255 1.524 . S
C1257 C1254 1.403 . S
C1257 C1258 1.392 . S
C1257 C1261 1.495 . S
C1258 C1257 1.392 . S
C1258 C1259 1.385 . S
C1258 C1260 1.478 . S
C1259 H1253 0.930 . S
C1259 C1255 1.400 . S
C1259 C1258 1.385 . S
C1260 C1258 1.478 . S
C1260 C1262 1.381 . S
C1260 C1266 1.383 . S
C1261 C1257 1.495 . S
C1261 H1267 0.959 . S
C1261 H1268 0.961 . S
C1261 H1269 0.960 . S
C1262 C1260 1.381 . S
C1262 C1263 1.394 . S
C1262 H1270 0.930 . S
C1263 C1262 1.394 . S
C1263 C1264 1.383 . S
C1263 H1271 0.929 . S
C1264 C1263 1.383 . S
C1264 C1265 1.377 . S
C1265 H1249 0.930 . S
C1265 C1264 1.377 . S
C1265 C1266 1.379 . S
C1266 H1250 0.931 . S
C1266 C1260 1.383 . S
C1266 C1265 1.379 . S
H1267 C1261 0.959 . S
H1268 C1261 0.961 . S
H1269 C1261 0.960 . S
H1270 C1262 0.930 . S
H1271 C1263 0.929 . S
H1272 C1280 0.929 . S
H1273 C1282 0.930 . S
H1274 C1284 0.930 . S
H1275 C1287 0.929 . S
H1276 C1290 0.930 . S
H1277 C1292 0.960 . S
H1278 C1292 0.960 . S
H1279 C1292 0.960 . S
C1280 H1272 0.929 . S
C1280 C1281 1.377 . S
C1280 C1282 1.384 . S
C1281 C1280 1.377 . S
C1281 C1287 1.390 . S
C1282 H1273 0.930 . S
C1282 C1280 1.384 . S
C1282 C1283 1.372 . S
C1283 C1282 1.372 . S
C1283 C1284 1.400 . S
C1283 C1288 1.490 . S
C1284 H1274 0.930 . S
C1284 C1283 1.400 . S
C1284 C1287 1.386 . S
H1285 C1301 0.930 . S
H1286 C1302 0.931 . S
C1287 H1275 0.929 . S
C1287 C1281 1.390 . S
C1287 C1284 1.386 . S
C1288 C1283 1.490 . S
C1288 C1290 1.395 . S
C1288 C1291 1.403 . S
H1289 C1295 0.930 . S
C1290 H1276 0.930 . S
C1290 C1288 1.395 . S
C1290 C1293 1.403 . S
C1291 C1288 1.403 . S
C1291 C1292 1.524 . S
C1291 C1295 1.400 . S
C1292 H1277 0.960 . S
C1292 H1278 0.960 . S
C1292 H1279 0.960 . S
C1292 C1291 1.524 . S
C1293 C1290 1.403 . S
C1293 C1294 1.392 . S
C1293 C1297 1.495 . S
C1294 C1293 1.392 . S
C1294 C1295 1.385 . S
C1294 C1296 1.478 . S
C1295 H1289 0.930 . S
C1295 C1291 1.400 . S
C1295 C1294 1.385 . S
C1296 C1294 1.478 . S
C1296 C1298 1.381 . S
C1296 C1302 1.383 . S
C1297 C1293 1.495 . S
C1297 H1303 0.959 . S
C1297 H1304 0.961 . S
C1297 H1305 0.960 . S
C1298 C1296 1.381 . S
C1298 C1299 1.394 . S
C1298 H1306 0.930 . S
C1299 C1298 1.394 . S
C1299 C1300 1.383 . S
C1299 H1307 0.929 . S
C1300 C1299 1.383 . S
C1300 C1301 1.377 . S
C1301 H1285 0.930 . S
C1301 C1300 1.377 . S
C1301 C1302 1.379 . S
C1302 H1286 0.931 . S
C1302 C1296 1.383 . S
C1302 C1301 1.379 . S
H1303 C1297 0.959 . S
H1304 C1297 0.961 . S
H1305 C1297 0.960 . S
H1306 C1298 0.930 . S
H1307 C1299 0.929 . S
H1308 C1316 0.929 . S
H1309 C1318 0.930 . S
H1310 C1320 0.930 . S
H1311 C1323 0.929 . S
H1312 C1326 0.930 . S
H1313 C1328 0.960 . S
H1314 C1328 0.960 . S
H1315 C1328 0.960 . S
C1316 H1308 0.929 . S
C1316 C1317 1.377 . S
C1316 C1318 1.384 . S
C1317 C1316 1.377 . S
C1317 C1323 1.390 . S
C1318 H1309 0.930 . S
C1318 C1316 1.384 . S
C1318 C1319 1.372 . S
C1319 C1318 1.372 . S
C1319 C1320 1.400 . S
C1319 C1324 1.490 . S
C1320 H1310 0.930 . S
C1320 C1319 1.400 . S
C1320 C1323 1.386 . S
H1321 C1337 0.930 . S
H1322 C1338 0.931 . S
C1323 H1311 0.929 . S
C1323 C1317 1.390 . S
C1323 C1320 1.386 . S
C1324 C1319 1.490 . S
C1324 C1326 1.395 . S
C1324 C1327 1.403 . S
H1325 C1331 0.930 . S
C1326 H1312 0.930 . S
C1326 C1324 1.395 . S
C1326 C1329 1.403 . S
C1327 C1324 1.403 . S
C1327 C1328 1.524 . S
C1327 C1331 1.400 . S
C1328 H1313 0.960 . S
C1328 H1314 0.960 . S
C1328 H1315 0.960 . S
C1328 C1327 1.524 . S
C1329 C1326 1.403 . S
C1329 C1330 1.392 . S
C1329 C1333 1.495 . S
C1330 C1329 1.392 . S
C1330 C1331 1.385 . S
C1330 C1332 1.478 . S
C1331 H1325 0.930 . S
C1331 C1327 1.400 . S
C1331 C1330 1.385 . S
C1332 C1330 1.478 . S
C1332 C1334 1.381 . S
C1332 C1338 1.383 . S
C1333 C1329 1.495 . S
C1333 H1339 0.959 . S
C1333 H1340 0.961 . S
C1333 H1341 0.960 . S
C1334 C1332 1.381 . S
C1334 C1335 1.394 . S
C1334 H1342 0.930 . S
C1335 C1334 1.394 . S
C1335 C1336 1.383 . S
C1335 H1343 0.929 . S
C1336 C1335 1.383 . S
C1336 C1337 1.377 . S
C1337 H1321 0.930 . S
C1337 C1336 1.377 . S
C1337 C1338 1.379 . S
C1338 H1322 0.931 . S
C1338 C1332 1.383 . S
C1338 C1337 1.379 . S
H1339 C1333 0.959 . S
H1340 C1333 0.961 . S
H1341 C1333 0.960 . S
H1342 C1334 0.930 . S
H1343 C1335 0.929 . S
H1344 C1352 0.929 . S
H1345 C1354 0.930 . S
H1346 C1356 0.930 . S
H1347 C1359 0.929 . S
H1348 C1362 0.930 . S
H1349 C1364 0.960 . S
H1350 C1364 0.960 . S
H1351 C1364 0.960 . S
C1352 H1344 0.929 . S
C1352 C1353 1.377 . S
C1352 C1354 1.384 . S
C1353 C1352 1.377 . S
C1353 C1359 1.390 . S
C1354 H1345 0.930 . S
C1354 C1352 1.384 . S
C1354 C1355 1.372 . S
C1355 C1354 1.372 . S
C1355 C1356 1.400 . S
C1355 C1360 1.490 . S
C1356 H1346 0.930 . S
C1356 C1355 1.400 . S
C1356 C1359 1.386 . S
H1357 C1373 0.930 . S
H1358 C1374 0.931 . S
C1359 H1347 0.929 . S
C1359 C1353 1.390 . S
C1359 C1356 1.386 . S
C1360 C1355 1.490 . S
C1360 C1362 1.395 . S
C1360 C1363 1.403 . S
H1361 C1367 0.930 . S
C1362 H1348 0.930 . S
C1362 C1360 1.395 . S
C1362 C1365 1.403 . S
C1363 C1360 1.403 . S
C1363 C1364 1.524 . S
C1363 C1367 1.400 . S
C1364 H1349 0.960 . S
C1364 H1350 0.960 . S
C1364 H1351 0.960 . S
C1364 C1363 1.524 . S
C1365 C1362 1.403 . S
C1365 C1366 1.392 . S
C1365 C1369 1.495 . S
C1366 C1365 1.392 . S
C1366 C1367 1.385 . S
C1366 C1368 1.478 . S
C1367 H1361 0.930 . S
C1367 C1363 1.400 . S
C1367 C1366 1.385 . S
C1368 C1366 1.478 . S
C1368 C1370 1.381 . S
C1368 C1374 1.383 . S
C1369 C1365 1.495 . S
C1369 H1375 0.959 1_655 S
C1369 H1376 0.961 . S
C1369 H1377 0.960 1_655 S
C1370 C1368 1.381 . S
C1370 C1371 1.394 . S
C1370 H1378 0.930 . S
C1371 C1370 1.394 . S
C1371 C1372 1.383 . S
C1371 H1379 0.968 . S
C1372 C1371 1.383 . S
C1372 C1373 1.377 . S
C1373 H1357 0.930 . S
C1373 C1372 1.377 . S
C1373 C1374 1.379 . S
C1374 H1358 0.931 . S
C1374 C1368 1.383 . S
C1374 C1373 1.379 . S
H1375 C1369 0.959 1_455 S
H1376 C1369 0.961 . S
H1377 C1369 0.960 1_455 S
H1378 C1370 0.930 . S
H1379 C1371 0.968 . S
H1380 C1388 0.929 . S
H1381 C1390 0.930 . S
H1382 C1392 0.930 . S
H1383 C1395 0.929 . S
H1384 C1398 0.930 . S
H1385 C1400 0.960 . S
H1386 C1400 0.960 . S
H1387 C1400 0.960 . S
C1388 H1380 0.929 . S
C1388 C1389 1.377 . S
C1388 C1390 1.384 . S
C1389 C1388 1.377 . S
C1389 C1395 1.390 . S
C1390 H1381 0.930 . S
C1390 C1388 1.384 . S
C1390 C1391 1.372 . S
C1391 C1390 1.372 . S
C1391 C1392 1.400 . S
C1391 C1396 1.490 . S
C1392 H1382 0.930 . S
C1392 C1391 1.400 . S
C1392 C1395 1.386 . S
H1393 C1409 0.930 . S
H1394 C1410 0.931 . S
C1395 H1383 0.929 . S
C1395 C1389 1.390 . S
C1395 C1392 1.386 . S
C1396 C1391 1.490 . S
C1396 C1398 1.395 . S
C1396 C1399 1.403 . S
H1397 C1403 0.930 . S
C1398 H1384 0.930 . S
C1398 C1396 1.395 . S
C1398 C1401 1.403 . S
C1399 C1396 1.403 . S
C1399 C1400 1.524 . S
C1399 C1403 1.400 . S
C1400 H1385 0.960 . S
C1400 H1386 0.960 . S
C1400 H1387 0.960 . S
C1400 C1399 1.524 . S
C1401 C1398 1.403 . S
C1401 C1402 1.392 . S
C1401 C1405 1.495 1_565 S
C1402 C1401 1.392 . S
C1402 C1403 1.385 . S
C1402 C1404 1.478 . S
C1403 H1397 0.930 . S
C1403 C1399 1.400 . S
C1403 C1402 1.385 . S
C1404 C1402 1.478 . S
C1404 C1406 1.381 . S
C1404 C1410 1.383 . S
C1405 C1401 1.495 1_545 S
C1405 H1411 0.959 . S
C1405 H1412 0.961 . S
C1405 H1413 0.960 . S
C1406 C1404 1.381 . S
C1406 C1407 1.394 . S
C1406 H1414 0.930 . S
C1407 C1406 1.394 . S
C1407 C1408 1.383 . S
C1407 H1415 0.911 1_565 S
C1408 C1407 1.383 . S
C1408 C1409 1.377 . S
C1409 H1393 0.930 . S
C1409 C1408 1.377 . S
C1409 C1410 1.379 . S
C1410 H1394 0.931 . S
C1410 C1404 1.383 . S
C1410 C1409 1.379 . S
H1411 C1405 0.959 . S
H1412 C1405 0.961 . S
H1413 C1405 0.960 . S
H1414 C1406 0.930 . S
H1415 C1407 0.911 1_545 S
H1416 C1424 0.929 . S
H1417 C1426 0.930 . S
H1418 C1428 0.930 . S
H1419 C1431 0.929 . S
H1420 C1434 0.930 . S
H1421 C1436 0.960 . S
H1422 C1436 0.960 . S
H1423 C1436 0.960 . S
C1424 H1416 0.929 . S
C1424 C1425 1.377 . S
C1424 C1426 1.384 . S
C1425 C1424 1.377 . S
C1425 C1431 1.390 . S
C1426 H1417 0.930 . S
C1426 C1424 1.384 . S
C1426 C1427 1.372 . S
C1427 C1426 1.372 . S
C1427 C1428 1.400 . S
C1427 C1432 1.490 . S
C1428 H1418 0.930 . S
C1428 C1427 1.400 . S
C1428 C1431 1.386 . S
H1429 C1445 0.930 . S
H1430 C1446 0.931 . S
C1431 H1419 0.929 . S
C1431 C1425 1.390 . S
C1431 C1428 1.386 . S
C1432 C1427 1.490 . S
C1432 C1434 1.395 . S
C1432 C1435 1.403 . S
H1433 C1439 0.930 . S
C1434 H1420 0.930 . S
C1434 C1432 1.395 . S
C1434 C1437 1.403 . S
C1435 C1432 1.403 . S
C1435 C1436 1.524 . S
C1435 C1439 1.400 . S
C1436 H1421 0.960 . S
C1436 H1422 0.960 . S
C1436 H1423 0.960 . S
C1436 C1435 1.524 . S
C1437 C1434 1.403 . S
C1437 C1438 1.392 . S
C1437 C1441 1.495 . S
C1438 C1437 1.392 . S
C1438 C1439 1.385 . S
C1438 C1440 1.478 . S
C1439 H1433 0.930 . S
C1439 C1435 1.400 . S
C1439 C1438 1.385 . S
C1440 C1438 1.478 . S
C1440 C1442 1.381 . S
C1440 C1446 1.383 . S
C1441 C1437 1.495 . S
C1441 H1447 0.959 . S
C1441 H1448 0.961 . S
C1441 H1449 0.960 . S
C1442 C1440 1.381 . S
C1442 C1443 1.394 . S
C1442 H1450 0.930 . S
C1443 C1442 1.394 . S
C1443 C1444 1.383 . S
C1443 H1451 0.929 . S
C1444 C1443 1.383 . S
C1444 C1445 1.377 . S
C1445 H1429 0.930 . S
C1445 C1444 1.377 . S
C1445 C1446 1.379 . S
C1446 H1430 0.931 . S
C1446 C1440 1.383 . S
C1446 C1445 1.379 . S
H1447 C1441 0.959 . S
H1448 C1441 0.961 . S
H1449 C1441 0.960 . S
H1450 C1442 0.930 . S
H1451 C1443 0.929 . S
H1452 C1460 0.929 . S
H1453 C1462 0.930 . S
H1454 C1464 0.930 . S
H1455 C1467 0.929 . S
H1456 C1470 0.930 . S
H1457 C1472 0.960 . S
H1458 C1472 0.960 . S
H1459 C1472 0.960 . S
C1460 H1452 0.929 . S
C1460 C1461 1.377 . S
C1460 C1462 1.384 . S
C1461 C1460 1.377 . S
C1461 C1467 1.390 . S
C1462 H1453 0.930 . S
C1462 C1460 1.384 . S
C1462 C1463 1.372 . S
C1463 C1462 1.372 . S
C1463 C1464 1.400 . S
C1463 C1468 1.490 . S
C1464 H1454 0.930 . S
C1464 C1463 1.400 . S
C1464 C1467 1.386 . S
H1465 C1481 0.930 . S
H1466 C1482 0.931 . S
C1467 H1455 0.929 . S
C1467 C1461 1.390 . S
C1467 C1464 1.386 . S
C1468 C1463 1.490 . S
C1468 C1470 1.395 . S
C1468 C1471 1.403 . S
H1469 C1475 0.930 . S
C1470 H1456 0.930 . S
C1470 C1468 1.395 . S
C1470 C1473 1.403 . S
C1471 C1468 1.403 . S
C1471 C1472 1.524 . S
C1471 C1475 1.400 . S
C1472 H1457 0.960 . S
C1472 H1458 0.960 . S
C1472 H1459 0.960 . S
C1472 C1471 1.524 . S
C1473 C1470 1.403 . S
C1473 C1474 1.392 . S
C1473 C1477 1.495 . S
C1474 C1473 1.392 . S
C1474 C1475 1.385 . S
C1474 C1476 1.478 . S
C1475 H1469 0.930 . S
C1475 C1471 1.400 . S
C1475 C1474 1.385 . S
C1476 C1474 1.478 . S
C1476 C1478 1.381 . S
C1476 C1482 1.383 . S
C1477 C1473 1.495 . S
C1477 H1483 0.959 . S
C1477 H1484 0.961 . S
C1477 H1485 0.960 . S
C1478 C1476 1.381 . S
C1478 C1479 1.394 . S
C1478 H1486 0.930 . S
C1479 C1478 1.394 . S
C1479 C1480 1.383 . S
C1479 H1487 0.929 . S
C1480 C1479 1.383 . S
C1480 C1481 1.377 . S
C1481 H1465 0.930 . S
C1481 C1480 1.377 . S
C1481 C1482 1.379 . S
C1482 H1466 0.931 . S
C1482 C1476 1.383 . S
C1482 C1481 1.379 . S
H1483 C1477 0.959 . S
H1484 C1477 0.961 . S
H1485 C1477 0.960 . S
H1486 C1478 0.930 . S
H1487 C1479 0.929 . S
C633 C241 2.042 . S
C652 C362 2.099 . S
C688 C446 2.140 . S
C669 C277 2.072 . S
C724 C512 2.134 . S
C705 C169 2.211 . S
C760 C596 2.064 . S
C741 C205 2.188 . S
C796 C351 2.079 1_565 S
C777 C97 1.987 . S
C813 C133 2.126 . S
C832 C435 2.135 . S
C849 C25 2.164 . S
C868 C523 2.136 . S
C885 C61 2.138 . S
C904 C607 2.087 . S
C940 C358 0.391 1_455 S
C921 C211 0.416 . S
C976 C442 0.357 1_545 S
C957 C247 0.390 . S
C1012 C514 0.437 . S
C993 C253 0.431 . S
C1029 C175 0.404 . S
C1048 C598 0.354 . S
C1065 C67 0.526 . S
C1084 C346 0.388 . S
C1120 C430 0.379 . S
C1101 C103 0.502 . S
C1156 C526 0.541 . S
C1137 C109 0.325 . S
C1173 C31 0.527 . S
C1192 C610 0.400 . S
C1209 C181 2.623 . S
C1228 C355 2.680 . S
C1245 C217 2.572 . S
C1264 C439 2.658 . S
C1300 C519 2.638 . S
C1281 C283 2.349 . S
C1336 C603 2.666 . S
C1317 C145 2.472 . S
C1353 C37 2.599 . S
C1372 C344 2.692 . S
C1408 C428 2.631 . S
C1389 C73 2.542 . S
C1444 C530 2.639 . S
C1425 C139 2.394 . S
C1461 C1 2.439 . S
C1480 C614 2.679 . S
