# Generated by pormake.
# Topology tsx, (6,3)-cn, num edge types: 1
# Building blocks:
#     Node 0, Type 0, BuildingBlock: LEVNOQ01_clean_sbu_1, # of connection points: 6
#     Node 1, Type 0, BuildingBlock: LEVNOQ01_clean_sbu_1, # of connection points: 6
#     Node 2, Type 1, BuildingBlock: VETTIZ_charged_linker_0, # of connection points: 3
#     Node 3, Type 1, BuildingBlock: VETTIZ_charged_linker_0, # of connection points: 3
#     Node 4, Type 1, BuildingBlock: VETTIZ_charged_linker_0, # of connection points: 3
#     Node 5, Type 1, BuildingBlock: VETTIZ_charged_linker_0, # of connection points: 3
#     Edge 6, Type (0, 1), None
#     Edge 7, Type (0, 1), None
#     Edge 8, Type (0, 1), None
#     Edge 9, Type (0, 1), None
#     Edge 10, Type (0, 1), None
#     Edge 11, Type (0, 1), None
#     Edge 12, Type (0, 1), None
#     Edge 13, Type (0, 1), None
#     Edge 14, Type (0, 1), None
#     Edge 15, Type (0, 1), None
#     Edge 16, Type (0, 1), None
#     Edge 17, Type (0, 1), None
# Relax obj value: 0.136
# Max RMSD: 0.160
# Mean RMSD: 0.122
data_MOF--net-tsx--node1-LEVNOQ01_clean_sbu_1--node2-VETTIZ_charged_linker_0--edge1-none
_symmetry_space_group_name_H-M    P1
_symmetry_Int_Tables_number       1
_symmetry_cell_setting            triclinic
loop_
_symmetry_equiv_pos_as_xyz
'x, y, z'
_cell_length_a     11.684556
_cell_length_b     14.851309
_cell_length_c     24.711103
_cell_angle_alpha  95.582468
_cell_angle_beta   95.564209
_cell_angle_gamma 93.825743
loop_
_atom_site_label
_atom_site_type_symbol
_atom_site_fract_x
_atom_site_fract_y
_atom_site_fract_z
_atom_type_partial_charge
O0 O 0.31086 0.01757 0.1072 0.0
Mg1 Mg 0.3437 -0.00622 0.02498 0.0
O2 O 0.11856 0.02418 0.09636 0.0
Mg3 Mg 0.04963 0.00244 0.00425 0.0
O4 O 0.22005 0.06039 0.98768 0.0
O5 O 0.39898 0.11192 0.98967 0.0
O6 O 0.99072 -0.00819 0.91145 0.0
O7 O 0.01834 0.15593 0.00352 0.0
Mg8 Mg 0.85033 0.06127 0.00641 0.0
O9 O 0.86479 0.93498 0.02982 0.0
O10 O 0.84399 0.07627 0.92003 0.0
O11 O 0.90662 0.1702 0.06701 0.0
O12 O 0.70227 0.01092 0.02755 0.0
C13 C 0.19986 0.81236 0.98488 0.0
C14 C 0.21526 0.02968 0.12624 0.0
C15 C 0.29193 0.12775 0.98323 0.0
C16 C 0.91216 0.03695 0.89018 0.0
C17 C 0.96145 0.20697 0.03273 0.0
C18 C 0.75621 0.94111 0.03893 0.0
O19 O 0.29605 0.85973 0.99241 0.0
O20 O 0.10389 0.84812 0.99104 0.0
O21 O 0.81087 0.51757 0.6072 0.0
Mg22 Mg 0.84371 0.49378 0.52498 0.0
O23 O 0.61857 0.52418 0.59636 0.0
Mg24 Mg 0.54964 0.50244 0.50426 0.0
O25 O 0.72006 0.56039 0.48769 0.0
O26 O 0.89899 0.61192 0.48967 0.0
O27 O 0.49073 0.49181 0.41145 0.0
O28 O 0.51835 0.65593 0.50352 0.0
Mg29 Mg 0.35034 0.56127 0.50641 0.0
O30 O 0.3648 0.43498 0.52982 0.0
O31 O 0.344 0.57627 0.42003 0.0
O32 O 0.40663 0.6702 0.56701 0.0
O33 O 0.20228 0.51092 0.52755 0.0
C34 C 0.69987 0.31236 0.48489 0.0
C35 C 0.71526 0.52968 0.62625 0.0
C36 C 0.79194 0.62775 0.48323 0.0
C37 C 0.41217 0.53695 0.39018 0.0
C38 C 0.46146 0.70697 0.53273 0.0
C39 C 0.25622 0.44111 0.53893 0.0
O40 O 0.79606 0.35973 0.49241 0.0
O41 O 0.6039 0.34812 0.49104 0.0
C42 C 0.2836 0.76449 0.49137 0.0
C43 C 0.40438 0.77547 0.50348 0.0
C44 C 0.46757 0.84451 0.48149 0.0
C45 C 0.28945 0.8897 0.43828 0.0
C46 C 0.22735 0.82618 0.46085 0.0
C47 C 0.10006 0.84219 0.45539 0.0
H48 H 0.77386 0.29009 0.38937 0.0
C49 C 0.21105 0.94626 0.41214 0.0
C50 C 0.09811 0.93552 0.42958 0.0
H51 H 0.63564 0.13564 0.50961 0.0
H52 H 0.71524 0.00096 0.4781 0.0
H53 H 0.03137 0.31917 0.41484 0.0
H54 H 0.94661 0.1058 0.2812 0.0
H55 H 0.97618 0.22438 0.27334 0.0
H56 H 0.84334 0.1865 0.29463 0.0
H57 H 1.00132 0.33548 0.34572 0.0
H58 H 0.13479 0.28947 0.36825 0.0
C59 C 0.06382 0.83633 0.51412 0.0
C60 C 0.04053 0.76642 0.41256 0.0
C61 C 0.2632 -0.01299 0.21892 0.0
C62 C 0.21781 0.04922 0.18512 0.0
C63 C 0.18112 0.1315 0.20825 0.0
C64 C 0.18084 0.14755 0.26506 0.0
C65 C 0.20865 0.07811 0.29689 0.0
C66 C 0.25713 0.00279 0.27503 0.0
C67 C 0.29127 0.94225 0.31789 0.0
C68 C 0.23889 -0.01095 0.36666 0.0
C69 C 0.1862 0.06446 0.35241 0.0
C70 C 0.42396 0.94394 0.32545 0.0
C71 C 0.23565 0.84479 0.30158 0.0
C72 C 0.765 0.22735 0.40821 0.0
C73 C 0.70577 0.22208 0.45401 0.0
C74 C 0.69219 0.13887 0.47749 0.0
C75 C 0.75143 0.05993 0.46322 0.0
C76 C 0.84997 0.06436 0.43338 0.0
C77 C 0.84306 0.16549 0.39863 0.0
C78 C 0.98487 0.1897 0.36043 0.0
C79 C 0.08958 0.08681 0.3769 0.0
C80 C 0.01808 0.00688 0.41881 0.0
C81 C 0.04137 0.28858 0.3731 0.0
C82 C 0.93679 0.17607 0.29895 0.0
H83 H 0.45677 0.96192 0.43726 0.0
H84 H 0.23321 0.71059 0.50686 0.0
H85 H 0.96309 0.78973 0.3905 0.0
H86 H 0.01882 0.70331 0.43105 0.0
H87 H 0.09671 0.74815 0.37998 0.0
H88 H 0.03952 0.90053 0.53171 0.0
H89 H 0.13292 0.82436 0.54606 0.0
H90 H 0.99774 0.78035 0.51592 0.0
H91 H 0.29775 0.92595 0.20166 0.0
H92 H 0.15358 0.18275 0.18252 0.0
H93 H 0.1599 0.21221 0.2834 0.0
H94 H 0.45917 0.93516 0.28526 0.0
H95 H 0.45336 0.88742 0.34806 0.0
H96 H 0.46249 0.00974 0.34705 0.0
H97 H 0.13998 0.84413 0.29792 0.0
H98 H 0.26321 0.79903 0.3325 0.0
H99 H 0.26098 0.81589 0.26186 0.0
H100 H 0.5606 0.85257 0.48874 0.0
C101 C 0.40935 0.90433 0.45031 0.0
C102 C 0.18175 0.27985 0.53648 0.0
C103 C 0.18941 0.36862 0.5617 0.0
C104 C 0.11348 0.39116 0.60121 0.0
C105 C 0.03786 0.23449 0.59367 0.0
C106 C 0.09543 0.21614 0.54941 0.0
C107 C 0.05151 0.1253 0.51655 0.0
H108 H 0.72694 0.71598 0.57565 0.0
C109 C 0.96855 0.15372 0.60267 0.0
C110 C 0.95682 0.08789 0.55574 0.0
H111 H 0.79082 0.75649 0.41249 0.0
H112 H 0.86299 0.90756 0.44126 0.0
H113 H 0.86168 0.7776 0.64576 0.0
H114 H 0.5984 0.90941 0.58027 0.0
H115 H 0.62934 0.97223 0.64346 0.0
H116 H 0.60794 0.84936 0.63972 0.0
H117 H 0.78268 0.83321 0.6943 0.0
H118 H 0.92138 0.88144 0.68039 0.0
C119 C 0.1656 0.07649 0.52288 0.0
C120 C 0.01675 0.15625 0.45356 0.0
C121 C 0.97255 0.09497 0.8039 0.0
C122 C 0.89609 0.04104 0.83059 0.0
C123 C 0.79765 -0.00431 0.80046 0.0
C124 C 0.77882 -0.0011 0.74399 0.0
C125 C 0.86006 0.04679 0.71697 0.0
C126 C 0.95033 0.09909 0.74697 0.0
C127 C 1.01248 0.15844 0.7109 0.0
C128 C 0.9416 0.13171 0.65475 0.0
C129 C 0.86595 0.0575 0.65835 0.0
C130 C 0.13745 0.13172 0.70938 0.0
C131 C 1.01062 0.25846 0.73381 0.0
C132 C 0.75421 0.75993 0.54603 0.0
C133 C 0.76412 0.7232 0.4926 0.0
C134 C 0.79096 0.78268 0.45489 0.0
C135 C 0.83271 0.87284 0.47248 0.0
C136 C 0.83838 0.90948 0.52834 0.0
C137 C 0.78934 0.85225 0.56237 0.0
C138 C 0.77789 0.89915 0.61672 0.0
C139 C 0.83949 -0.0084 0.61287 0.0
C140 C 0.88342 0.00202 0.56128 0.0
C141 C 0.83841 0.84577 0.6616 0.0
C142 C 0.64701 0.9074 0.62089 0.0
H143 H 0.97477 0.34331 0.64471 0.0
H144 H 0.2358 0.26324 0.50429 0.0
H145 H 0.97494 0.21959 0.46698 0.0
H146 H 0.92621 0.06897 0.36949 0.0
H147 H 0.10009 0.19367 0.44827 0.0
H148 H 0.21745 0.0946 0.56333 0.0
H149 H 0.22269 0.09279 0.49121 0.0
H150 H 0.1535 0.00436 0.52315 0.0
H151 H 0.0458 0.13425 0.82703 0.0
H152 H 0.73544 0.95716 0.82067 0.0
H153 H 0.70144 0.96379 0.72362 0.0
H154 H 0.13884 0.05864 0.69465 0.0
H155 H 0.18579 0.14418 0.75075 0.0
H156 H 0.18344 0.17206 0.68144 0.0
H157 H 0.02727 0.26725 0.77908 0.0
H158 H 0.92553 0.28394 0.72247 0.0
H159 H 0.0802 0.30167 0.71958 0.0
H160 H 0.11139 0.46077 0.61864 0.0
C161 C 0.0372 0.32402 0.6172 0.0
C162 C 0.7836 0.26449 0.99137 0.0
C163 C 0.90437 0.27547 0.00348 0.0
C164 C 0.96756 0.34451 0.9815 0.0
C165 C 0.78944 0.3897 0.93828 0.0
C166 C 0.72734 0.32618 0.96086 0.0
C167 C 0.60005 0.34219 0.95539 0.0
H168 H 0.27385 0.79009 0.88937 0.0
C169 C 0.71103 0.44626 0.91214 0.0
C170 C 0.5981 0.43551 0.92958 0.0
H171 H 0.13563 0.63564 0.00961 0.0
H172 H 0.21523 0.50096 0.9781 0.0
H173 H 0.53135 0.81917 0.91483 0.0
H174 H 0.4466 0.6058 0.7812 0.0
H175 H 0.47617 0.72437 0.77333 0.0
H176 H 0.34333 0.68649 0.79463 0.0
H177 H 0.50132 0.83547 0.84572 0.0
H178 H 0.63478 0.78946 0.86825 0.0
C179 C 0.56381 0.33633 0.01412 0.0
C180 C 0.54052 0.26642 0.91256 0.0
C181 C 0.76321 0.48701 0.71892 0.0
C182 C 0.71781 0.54922 0.68512 0.0
C183 C 0.68111 0.6315 0.70825 0.0
C184 C 0.68083 0.64755 0.76506 0.0
C185 C 0.70865 0.57811 0.79689 0.0
C186 C 0.75713 0.50279 0.77503 0.0
C187 C 0.79126 0.44225 0.8179 0.0
C188 C 0.73888 0.48905 0.86666 0.0
C189 C 0.68619 0.56446 0.85241 0.0
C190 C 0.92395 0.44394 0.82546 0.0
C191 C 0.73565 0.34479 0.80158 0.0
C192 C 0.26499 0.72735 0.90821 0.0
C193 C 0.20575 0.72208 0.95401 0.0
C194 C 0.19218 0.63887 0.97749 0.0
C195 C 0.25142 0.55994 0.96322 0.0
C196 C 0.34995 0.56436 0.93338 0.0
C197 C 0.34305 0.66548 0.89863 0.0
C198 C 0.48486 0.68969 0.86043 0.0
C199 C 0.58957 0.58681 0.8769 0.0
C200 C 0.51807 0.50688 0.91881 0.0
C201 C 0.54136 0.78858 0.8731 0.0
C202 C 0.43678 0.67607 0.79895 0.0
H203 H 0.95676 0.46192 0.93726 0.0
H204 H 0.7332 0.21058 0.00686 0.0
H205 H 0.46307 0.28973 0.8905 0.0
H206 H 0.51882 0.2033 0.93105 0.0
H207 H 0.5967 0.24815 0.87998 0.0
H208 H 0.53952 0.40053 0.03171 0.0
H209 H 0.6329 0.32435 0.04606 0.0
H210 H 0.49772 0.28035 0.01591 0.0
H211 H 0.79775 0.42596 0.70166 0.0
H212 H 0.65358 0.68275 0.68253 0.0
H213 H 0.65989 0.7122 0.7834 0.0
H214 H 0.95917 0.43516 0.78526 0.0
H215 H 0.95335 0.38742 0.84807 0.0
H216 H 0.96249 0.50974 0.84705 0.0
H217 H 0.63998 0.34413 0.79792 0.0
H218 H 0.7632 0.29903 0.83251 0.0
H219 H 0.76098 0.31589 0.76187 0.0
H220 H 0.06059 0.35258 0.98874 0.0
C221 C 0.90934 0.40433 0.95031 0.0
C222 C 0.68174 0.77985 0.03648 0.0
C223 C 0.6894 0.86862 0.0617 0.0
C224 C 0.61347 0.89116 0.10121 0.0
C225 C 0.53785 0.73449 0.09367 0.0
C226 C 0.59542 0.71614 0.04941 0.0
C227 C 0.5515 0.6253 0.01655 0.0
H228 H 0.22693 0.21598 0.07565 0.0
C229 C 0.46855 0.65372 0.10267 0.0
C230 C 0.45681 0.58789 0.05574 0.0
H231 H 0.2908 0.25649 0.91249 0.0
H232 H 0.36298 0.40756 0.94126 0.0
H233 H 0.36169 0.2776 0.14576 0.0
H234 H 0.09839 0.4094 0.08027 0.0
H235 H 0.12934 0.47222 0.14346 0.0
H236 H 0.10794 0.34935 0.13972 0.0
H237 H 0.28269 0.3332 0.1943 0.0
H238 H 0.42139 0.38143 0.18039 0.0
C239 C 0.66559 0.57649 0.02288 0.0
C240 C 0.51674 0.65625 0.95355 0.0
C241 C 0.47256 0.59497 0.30389 0.0
C242 C 0.3961 0.54103 0.33059 0.0
C243 C 0.29766 0.49569 0.30046 0.0
C244 C 0.27883 0.49889 0.24399 0.0
C245 C 0.36006 0.54678 0.21697 0.0
C246 C 0.45034 0.59908 0.24697 0.0
C247 C 0.51248 0.65844 0.2109 0.0
C248 C 0.44159 0.63171 0.15475 0.0
C249 C 0.36595 0.55749 0.15835 0.0
C250 C 0.63745 0.63172 0.20938 0.0
C251 C 0.51062 0.75846 0.23381 0.0
C252 C 0.2542 0.25993 0.04603 0.0
C253 C 0.26411 0.2232 0.9926 0.0
C254 C 0.29095 0.28268 0.95489 0.0
C255 C 0.33269 0.37284 0.97247 0.0
C256 C 0.33837 0.40948 0.02834 0.0
C257 C 0.28934 0.35225 0.06237 0.0
C258 C 0.27788 0.39915 0.11672 0.0
C259 C 0.33948 0.4916 0.11287 0.0
C260 C 0.38341 0.50202 0.06128 0.0
C261 C 0.33842 0.34576 0.16159 0.0
C262 C 0.14701 0.4074 0.1209 0.0
H263 H 0.47476 0.84331 0.14471 0.0
H264 H 0.73579 0.76325 0.00429 0.0
H265 H 0.47493 0.71959 0.96698 0.0
H266 H 0.42619 0.56897 0.86949 0.0
H267 H 0.60008 0.69367 0.94827 0.0
H268 H 0.71744 0.5946 0.06333 0.0
H269 H 0.72268 0.59279 0.99121 0.0
H270 H 0.65349 0.50436 0.02315 0.0
H271 H 0.54581 0.63425 0.32703 0.0
H272 H 0.23545 0.45715 0.32067 0.0
H273 H 0.20144 0.46379 0.22362 0.0
H274 H 0.63885 0.55864 0.19465 0.0
H275 H 0.68579 0.64418 0.25075 0.0
H276 H 0.68344 0.67206 0.18143 0.0
H277 H 0.52727 0.76724 0.27908 0.0
H278 H 0.42553 0.78394 0.22247 0.0
H279 H 0.5802 0.80167 0.21958 0.0
H280 H 0.61139 0.96077 0.11864 0.0
C281 C 0.53719 0.82402 0.1172 0.0
loop_
_geom_bond_atom_site_label_1
_geom_bond_atom_site_label_2
_geom_bond_distance
_geom_bond_site_symmetry_2
_ccdc_geom_bond_type
O0 Mg1 1.990 . S
O0 C14 1.253 . S
Mg1 O0 1.990 . S
Mg1 O4 2.180 . S
Mg1 O5 2.117 . S
Mg1 O19 2.030 1_545 S
O2 Mg3 2.057 1_554 S
O2 C14 1.260 . S
Mg3 O2 2.057 1_556 S
Mg3 O4 2.097 1_556 S
Mg3 O6 2.094 . S
Mg3 O7 2.072 1_456 S
Mg3 O9 2.101 1_445 S
Mg3 O20 2.079 1_545 S
O4 Mg1 2.180 . S
O4 Mg3 2.097 1_554 S
O4 C15 1.279 . S
O5 Mg1 2.117 . S
O5 C15 1.250 . S
O6 Mg3 2.094 . S
O6 C16 1.264 . S
O7 Mg3 2.072 1_654 S
O7 C17 1.260 1_554 S
Mg8 O9 2.180 . S
Mg8 O10 2.030 1_565 S
Mg8 O11 1.990 1_565 S
Mg8 O12 2.117 . S
O9 Mg3 2.101 1_665 S
O9 Mg8 2.180 . S
O9 C18 1.279 1_556 S
O10 Mg8 2.030 1_545 S
O10 C16 1.248 1_655 S
O11 Mg8 1.990 1_545 S
O11 C17 1.253 . S
O12 Mg8 2.117 . S
O12 C18 1.250 1_556 S
C13 O19 1.248 . S
C13 O20 1.264 1_554 S
C14 O0 1.253 . S
C14 O2 1.260 . S
C15 O4 1.279 . S
C15 O5 1.250 . S
C16 O6 1.264 . S
C16 O10 1.248 1_455 S
C17 O7 1.260 1_556 S
C17 O11 1.253 . S
C18 O9 1.279 1_554 S
C18 O12 1.250 1_554 S
O19 Mg1 2.030 1_565 S
O19 C13 1.248 . S
O20 Mg3 2.079 1_565 S
O20 C13 1.264 1_556 S
O21 Mg22 1.990 . S
O21 C35 1.253 . S
Mg22 O21 1.990 . S
Mg22 O25 2.180 . S
Mg22 O26 2.117 . S
Mg22 O40 2.030 . S
O23 Mg24 2.072 . S
O23 C35 1.260 . S
Mg24 O23 2.072 . S
Mg24 O25 2.099 . S
Mg24 O27 2.079 . S
Mg24 O28 2.072 . S
Mg24 O30 2.099 . S
Mg24 O41 2.079 . S
O25 Mg22 2.180 . S
O25 Mg24 2.099 . S
O25 C36 1.279 . S
O26 Mg22 2.117 . S
O26 C36 1.250 . S
O27 Mg24 2.079 . S
O27 C37 1.264 . S
O28 Mg24 2.072 . S
O28 C38 1.260 . S
Mg29 O30 2.180 . S
Mg29 O31 2.030 . S
Mg29 O32 1.990 . S
Mg29 O33 2.117 . S
O30 Mg24 2.099 . S
O30 Mg29 2.180 . S
O30 C39 1.279 . S
O31 Mg29 2.030 . S
O31 C37 1.248 . S
O32 Mg29 1.990 . S
O32 C38 1.253 . S
O33 Mg29 2.117 . S
O33 C39 1.250 . S
C34 O40 1.248 . S
C34 O41 1.264 . S
C35 O21 1.253 . S
C35 O23 1.260 . S
C36 O25 1.279 . S
C36 O26 1.250 . S
C37 O27 1.264 . S
C37 O31 1.248 . S
C38 O28 1.260 . S
C38 O32 1.253 . S
C39 O30 1.279 . S
C39 O33 1.250 . S
O40 Mg22 2.030 . S
O40 C34 1.248 . S
O41 Mg24 2.079 . S
O41 C34 1.264 . S
C42 C43 1.391 . S
C42 C46 1.391 . S
C42 H84 0.948 . S
C43 C42 1.391 . S
C43 C44 1.391 . S
C44 C43 1.391 . S
C44 H100 0.947 . S
C44 C101 1.392 . S
C45 C46 1.391 . S
C45 C49 1.397 . S
C45 C101 1.419 . S
C46 C42 1.391 . S
C46 C45 1.391 . S
C46 C47 1.399 . S
C47 C46 1.399 . S
C47 C50 1.396 . S
C47 C59 1.453 1_565 S
C47 C60 1.684 1_455 S
H48 C72 0.948 . S
C49 C45 1.397 . S
C49 C50 1.394 . S
C49 C68 1.723 . S
C50 C47 1.396 . S
C50 C49 1.394 . S
C50 C80 1.723 1_465 S
H51 C74 0.947 . S
H52 C75 0.948 . S
H53 C81 0.982 . S
H54 C82 0.979 . S
H55 C82 0.980 . S
H56 C82 0.983 . S
H57 C81 0.979 . S
H58 C81 0.977 . S
C59 C47 1.453 1_545 S
C59 H88 0.982 . S
C59 H89 0.979 1_545 S
C59 H90 0.977 . S
C60 C47 1.684 1_655 S
C60 H85 0.979 . S
C60 H86 0.980 . S
C60 H87 0.983 1_655 S
C61 C62 1.391 . S
C61 C66 1.391 . S
C61 H91 0.948 . S
C62 C61 1.391 . S
C62 C63 1.391 1_465 S
C63 C62 1.391 1_645 S
C63 C64 1.392 . S
C63 H92 0.947 . S
C64 C63 1.392 . S
C64 C65 1.419 1_655 S
C64 H93 0.948 . S
C65 C64 1.419 1_455 S
C65 C66 1.391 1_545 S
C65 C69 1.397 . S
C66 C61 1.391 . S
C66 C65 1.391 1_565 S
C66 C67 1.399 . S
C67 C66 1.399 . S
C67 C68 1.396 . S
C67 C70 1.453 . S
C67 C71 1.684 . S
C68 C49 1.723 . S
C68 C67 1.396 . S
C68 C69 1.394 1_565 S
C69 C65 1.397 . S
C69 C68 1.394 1_545 S
C69 C79 1.723 1_455 S
C70 C67 1.453 . S
C70 H94 0.982 . S
C70 H95 0.979 . S
C70 H96 0.977 . S
C71 C67 1.684 . S
C71 H97 0.979 . S
C71 H98 0.980 . S
C71 H99 0.983 . S
C72 H48 0.948 . S
C72 C73 1.391 . S
C72 C77 1.391 . S
C73 C72 1.391 . S
C73 C74 1.391 . S
C74 H51 0.947 . S
C74 C73 1.391 . S
C74 C75 1.392 . S
C75 H52 0.948 . S
C75 C74 1.392 . S
C75 C76 1.419 . S
C76 C75 1.419 . S
C76 C77 1.391 . S
C76 C80 1.397 . S
C77 C72 1.391 . S
C77 C76 1.391 . S
C77 C78 1.399 . S
C78 C77 1.399 . S
C78 C79 1.396 . S
C78 C81 1.453 . S
C78 C82 1.684 . S
C79 C69 1.723 1_655 S
C79 C78 1.396 . S
C79 C80 1.394 . S
C80 C50 1.723 1_645 S
C80 C76 1.397 . S
C80 C79 1.394 . S
C81 H53 0.982 . S
C81 H57 0.979 . S
C81 H58 0.977 . S
C81 C78 1.453 . S
C82 H54 0.979 . S
C82 H55 0.980 . S
C82 H56 0.983 . S
C82 C78 1.684 . S
H83 C101 0.948 . S
H84 C42 0.948 . S
H85 C60 0.979 . S
H86 C60 0.980 . S
H87 C60 0.983 1_455 S
H88 C59 0.982 . S
H89 C59 0.979 1_565 S
H90 C59 0.977 . S
H91 C61 0.948 . S
H92 C63 0.947 . S
H93 C64 0.948 . S
H94 C70 0.982 . S
H95 C70 0.979 . S
H96 C70 0.977 . S
H97 C71 0.979 . S
H98 C71 0.980 . S
H99 C71 0.983 . S
H100 C44 0.947 . S
C101 C44 1.392 . S
C101 C45 1.419 . S
C101 H83 0.948 . S
C102 C103 1.391 . S
C102 C106 1.391 . S
C102 H144 0.948 . S
C103 C102 1.391 . S
C103 C104 1.391 . S
C104 C103 1.391 . S
C104 H160 0.947 . S
C104 C161 1.392 . S
C105 C106 1.391 . S
C105 C109 1.397 . S
C105 C161 1.419 . S
C106 C102 1.391 . S
C106 C105 1.391 . S
C106 C107 1.399 . S
C107 C106 1.399 . S
C107 C110 1.396 . S
C107 C119 1.453 . S
C107 C120 1.684 1_455 S
H108 C132 0.948 . S
C109 C105 1.397 . S
C109 C110 1.394 . S
C109 C128 1.723 . S
C110 C107 1.396 . S
C110 C109 1.394 . S
C110 C140 1.723 1_455 S
H111 C134 0.947 . S
H112 C135 0.948 1_545 S
H113 C141 0.982 . S
H114 C142 0.979 . S
H115 C142 0.980 . S
H116 C142 0.983 . S
H117 C141 0.979 . S
H118 C141 0.977 . S
C119 C107 1.453 . S
C119 H148 0.982 . S
C119 H149 0.979 . S
C119 H150 0.977 . S
C120 C107 1.684 1_655 S
C120 H145 0.979 . S
C120 H146 0.980 . S
C120 H147 0.983 . S
C121 C122 1.391 1_455 S
C121 C126 1.391 . S
C121 H151 0.948 . S
C122 C121 1.391 1_655 S
C122 C123 1.391 . S
C123 C122 1.391 . S
C123 C124 1.392 . S
C123 H152 0.947 1_545 S
C124 C123 1.392 . S
C124 C125 1.419 . S
C124 H153 0.948 1_545 S
C125 C124 1.419 . S
C125 C126 1.391 1_655 S
C125 C129 1.397 . S
C126 C121 1.391 . S
C126 C125 1.391 1_455 S
C126 C127 1.399 . S
C127 C126 1.399 . S
C127 C128 1.396 . S
C127 C130 1.453 . S
C127 C131 1.684 . S
C128 C109 1.723 . S
C128 C127 1.396 . S
C128 C129 1.394 1_455 S
C129 C125 1.397 . S
C129 C128 1.394 1_655 S
C129 C139 1.723 1_545 S
C130 C127 1.453 . S
C130 H154 0.982 . S
C130 H155 0.979 . S
C130 H156 0.977 . S
C131 C127 1.684 . S
C131 H157 0.979 . S
C131 H158 0.980 . S
C131 H159 0.983 . S
C132 H108 0.948 . S
C132 C133 1.391 . S
C132 C137 1.391 . S
C133 C132 1.391 . S
C133 C134 1.391 . S
C134 H111 0.947 . S
C134 C133 1.391 . S
C134 C135 1.392 . S
C135 H112 0.948 1_565 S
C135 C134 1.392 . S
C135 C136 1.419 . S
C136 C135 1.419 . S
C136 C137 1.391 . S
C136 C140 1.397 1_565 S
C137 C132 1.391 . S
C137 C136 1.391 . S
C137 C138 1.399 . S
C138 C137 1.399 . S
C138 C139 1.396 . S
C138 C141 1.453 . S
C138 C142 1.684 . S
C139 C129 1.723 1_565 S
C139 C138 1.396 . S
C139 C140 1.394 1_565 S
C140 C110 1.723 1_655 S
C140 C136 1.397 1_545 S
C140 C139 1.394 1_545 S
C141 H113 0.982 . S
C141 H117 0.979 . S
C141 H118 0.977 . S
C141 C138 1.453 . S
C142 H114 0.979 . S
C142 H115 0.980 . S
C142 H116 0.983 . S
C142 C138 1.684 . S
H143 C161 0.948 . S
H144 C102 0.948 . S
H145 C120 0.979 . S
H146 C120 0.980 . S
H147 C120 0.983 . S
H148 C119 0.982 . S
H149 C119 0.979 . S
H150 C119 0.977 . S
H151 C121 0.948 . S
H152 C123 0.947 1_565 S
H153 C124 0.948 1_565 S
H154 C130 0.982 . S
H155 C130 0.979 . S
H156 C130 0.977 . S
H157 C131 0.979 . S
H158 C131 0.980 . S
H159 C131 0.983 . S
H160 C104 0.947 . S
C161 C104 1.392 . S
C161 C105 1.419 . S
C161 H143 0.948 . S
C162 C163 1.391 . S
C162 C166 1.391 . S
C162 H204 0.948 . S
C163 C162 1.391 . S
C163 C164 1.391 1_554 S
C164 C163 1.391 1_556 S
C164 H220 0.947 . S
C164 C221 1.392 . S
C165 C166 1.391 1_556 S
C165 C169 1.397 . S
C165 C221 1.419 . S
C166 C162 1.391 . S
C166 C165 1.391 1_554 S
C166 C167 1.399 . S
C167 C166 1.399 . S
C167 C170 1.396 1_554 S
C167 C179 1.453 . S
C167 C180 1.684 . S
H168 C192 0.948 . S
C169 C165 1.397 . S
C169 C170 1.394 . S
C169 C188 1.723 . S
C170 C167 1.396 1_556 S
C170 C169 1.394 . S
C170 C200 1.723 . S
H171 C194 0.947 . S
H172 C195 0.948 . S
H173 C201 0.982 . S
H174 C202 0.979 . S
H175 C202 0.980 . S
H176 C202 0.983 . S
H177 C201 0.979 . S
H178 C201 0.977 . S
C179 C167 1.453 . S
C179 H208 0.982 . S
C179 H209 0.979 . S
C179 H210 0.977 . S
C180 C167 1.684 . S
C180 H205 0.979 . S
C180 H206 0.980 . S
C180 H207 0.983 . S
C181 C182 1.391 . S
C181 C186 1.391 . S
C181 H211 0.948 . S
C182 C181 1.391 . S
C182 C183 1.391 . S
C183 C182 1.391 . S
C183 C184 1.392 . S
C183 H212 0.947 . S
C184 C183 1.392 . S
C184 C185 1.419 . S
C184 H213 0.948 . S
C185 C184 1.419 . S
C185 C186 1.391 . S
C185 C189 1.397 . S
C186 C181 1.391 . S
C186 C185 1.391 . S
C186 C187 1.399 . S
C187 C186 1.399 . S
C187 C188 1.396 . S
C187 C190 1.453 . S
C187 C191 1.684 . S
C188 C169 1.723 . S
C188 C187 1.396 . S
C188 C189 1.394 . S
C189 C185 1.397 . S
C189 C188 1.394 . S
C189 C199 1.723 . S
C190 C187 1.453 . S
C190 H214 0.982 . S
C190 H215 0.979 . S
C190 H216 0.977 . S
C191 C187 1.684 . S
C191 H217 0.979 . S
C191 H218 0.980 . S
C191 H219 0.983 . S
C192 H168 0.948 . S
C192 C193 1.391 1_556 S
C192 C197 1.391 . S
C193 C192 1.391 1_554 S
C193 C194 1.391 . S
C194 H171 0.947 . S
C194 C193 1.391 . S
C194 C195 1.392 . S
C195 H172 0.948 . S
C195 C194 1.392 . S
C195 C196 1.419 1_554 S
C196 C195 1.419 1_556 S
C196 C197 1.391 . S
C196 C200 1.397 . S
C197 C192 1.391 . S
C197 C196 1.391 . S
C197 C198 1.399 . S
C198 C197 1.399 . S
C198 C199 1.396 . S
C198 C201 1.453 . S
C198 C202 1.684 . S
C199 C189 1.723 . S
C199 C198 1.396 . S
C199 C200 1.394 . S
C200 C170 1.723 . S
C200 C196 1.397 . S
C200 C199 1.394 . S
C201 H173 0.982 . S
C201 H177 0.979 . S
C201 H178 0.977 . S
C201 C198 1.453 . S
C202 H174 0.979 . S
C202 H175 0.980 . S
C202 H176 0.983 . S
C202 C198 1.684 . S
H203 C221 0.948 . S
H204 C162 0.948 . S
H205 C180 0.979 . S
H206 C180 0.980 . S
H207 C180 0.983 . S
H208 C179 0.982 . S
H209 C179 0.979 . S
H210 C179 0.977 . S
H211 C181 0.948 . S
H212 C183 0.947 . S
H213 C184 0.948 . S
H214 C190 0.982 . S
H215 C190 0.979 . S
H216 C190 0.977 . S
H217 C191 0.979 . S
H218 C191 0.980 . S
H219 C191 0.983 . S
H220 C164 0.947 . S
C221 C164 1.392 . S
C221 C165 1.419 . S
C221 H203 0.948 . S
C222 C223 1.398 . S
C222 C226 1.391 1_556 S
C222 H264 0.948 . S
C223 C222 1.398 . S
C223 C224 1.374 1_556 S
C224 C223 1.374 1_554 S
C224 H280 0.947 . S
C224 C281 1.392 . S
C225 C226 1.391 . S
C225 C229 1.397 . S
C225 C281 1.419 . S
C226 C222 1.391 1_554 S
C226 C225 1.391 . S
C226 C227 1.399 1_554 S
C227 C226 1.399 1_556 S
C227 C230 1.396 1_556 S
C227 C239 1.453 . S
C227 C240 1.684 . S
H228 C252 0.948 . S
C229 C225 1.397 . S
C229 C230 1.394 . S
C229 C248 1.723 . S
C230 C227 1.396 1_554 S
C230 C229 1.394 . S
C230 C260 1.723 . S
H231 C254 0.947 . S
H232 C255 0.948 . S
H233 C261 0.982 . S
H234 C262 0.979 . S
H235 C262 0.980 . S
H236 C262 0.983 . S
H237 C261 0.979 . S
H238 C261 0.977 . S
C239 C227 1.453 . S
C239 H268 0.982 . S
C239 H269 0.979 . S
C239 H270 0.977 . S
C240 C227 1.684 . S
C240 H265 0.979 . S
C240 H266 0.980 . S
C240 H267 0.983 . S
C241 C242 1.391 . S
C241 C246 1.391 . S
C241 H271 0.948 . S
C242 C241 1.391 . S
C242 C243 1.391 . S
C243 C242 1.391 . S
C243 C244 1.392 . S
C243 H272 0.947 . S
C244 C243 1.392 . S
C244 C245 1.419 . S
C244 H273 0.948 . S
C245 C244 1.419 . S
C245 C246 1.391 . S
C245 C249 1.397 . S
C246 C241 1.391 . S
C246 C245 1.391 . S
C246 C247 1.399 . S
C247 C246 1.399 . S
C247 C248 1.396 . S
C247 C250 1.453 . S
C247 C251 1.684 . S
C248 C229 1.723 . S
C248 C247 1.396 . S
C248 C249 1.394 . S
C249 C245 1.397 . S
C249 C248 1.394 . S
C249 C259 1.723 . S
C250 C247 1.453 . S
C250 H274 0.982 . S
C250 H275 0.979 . S
C250 H276 0.977 . S
C251 C247 1.684 . S
C251 H277 0.979 . S
C251 H278 0.980 . S
C251 H279 0.983 . S
C252 H228 0.948 . S
C252 C253 1.391 1_554 S
C252 C257 1.391 . S
C253 C252 1.391 1_556 S
C253 C254 1.391 . S
C254 H231 0.947 . S
C254 C253 1.391 . S
C254 C255 1.392 . S
C255 H232 0.948 . S
C255 C254 1.392 . S
C255 C256 1.419 1_556 S
C256 C255 1.419 1_554 S
C256 C257 1.391 . S
C256 C260 1.397 . S
C257 C252 1.391 . S
C257 C256 1.391 . S
C257 C258 1.399 . S
C258 C257 1.399 . S
C258 C259 1.396 . S
C258 C261 1.453 . S
C258 C262 1.684 . S
C259 C249 1.723 . S
C259 C258 1.396 . S
C259 C260 1.394 . S
C260 C230 1.723 . S
C260 C256 1.397 . S
C260 C259 1.394 . S
C261 H233 0.982 . S
C261 H237 0.979 . S
C261 H238 0.977 . S
C261 C258 1.453 . S
C262 H234 0.979 . S
C262 H235 0.980 . S
C262 H236 0.983 . S
C262 C258 1.684 . S
H263 C281 0.948 . S
H264 C222 0.948 . S
H265 C240 0.979 . S
H266 C240 0.980 . S
H267 C240 0.983 . S
H268 C239 0.982 . S
H269 C239 0.979 . S
H270 C239 0.977 . S
H271 C241 0.948 . S
H272 C243 0.947 . S
H273 C244 0.948 . S
H274 C250 0.982 . S
H275 C250 0.979 . S
H276 C250 0.977 . S
H277 C251 0.979 . S
H278 C251 0.980 . S
H279 C251 0.983 . S
H280 C224 0.947 . S
C281 C224 1.392 . S
C281 C225 1.419 . S
C281 H263 0.948 . S
C253 C15 2.598 1_556 S
C13 C193 2.171 . S
C18 C223 1.235 1_554 S
C17 C163 1.430 1_556 S
C36 C133 2.597 . S
C34 C73 2.172 . S
C103 C39 1.234 . S
C43 C38 1.430 . S
C14 C62 1.584 1_545 S
C16 C122 1.387 1_455 S
C182 C35 1.584 . S
C37 C242 1.387 . S
