# Generated by pormake.
# Topology ssa, (4,4)-cn, num edge types: 1
# Building blocks:
#     Node 0, Type 0, BuildingBlock: KOZSID_clean_sbu_0, # of connection points: 4
#     Node 1, Type 0, BuildingBlock: KOZSID_clean_sbu_0, # of connection points: 4
#     Node 2, Type 0, BuildingBlock: KOZSID_clean_sbu_0, # of connection points: 4
#     Node 3, Type 0, BuildingBlock: KOZSID_clean_sbu_0, # of connection points: 4
#     Node 4, Type 0, BuildingBlock: KOZSID_clean_sbu_0, # of connection points: 4
#     Node 5, Type 0, BuildingBlock: KOZSID_clean_sbu_0, # of connection points: 4
#     Node 6, Type 1, BuildingBlock: KUFVIS_clean_linker_0, # of connection points: 4
#     Node 7, Type 1, BuildingBlock: KUFVIS_clean_linker_0, # of connection points: 4
#     Node 8, Type 1, BuildingBlock: KUFVIS_clean_linker_0, # of connection points: 4
#     Node 9, Type 1, BuildingBlock: KUFVIS_clean_linker_0, # of connection points: 4
#     Node 10, Type 1, BuildingBlock: KUFVIS_clean_linker_0, # of connection points: 4
#     Node 11, Type 1, BuildingBlock: KUFVIS_clean_linker_0, # of connection points: 4
#     Edge 12, Type (0, 1), BuildingBlock: UVAHIK_clean_linker_0, # of connection points: 2
#     Edge 13, Type (0, 1), BuildingBlock: UVAHIK_clean_linker_0, # of connection points: 2
#     Edge 14, Type (0, 1), BuildingBlock: UVAHIK_clean_linker_0, # of connection points: 2
#     Edge 15, Type (0, 1), BuildingBlock: UVAHIK_clean_linker_0, # of connection points: 2
#     Edge 16, Type (0, 1), BuildingBlock: UVAHIK_clean_linker_0, # of connection points: 2
#     Edge 17, Type (0, 1), BuildingBlock: UVAHIK_clean_linker_0, # of connection points: 2
#     Edge 18, Type (0, 1), BuildingBlock: UVAHIK_clean_linker_0, # of connection points: 2
#     Edge 19, Type (0, 1), BuildingBlock: UVAHIK_clean_linker_0, # of connection points: 2
#     Edge 20, Type (0, 1), BuildingBlock: UVAHIK_clean_linker_0, # of connection points: 2
#     Edge 21, Type (0, 1), BuildingBlock: UVAHIK_clean_linker_0, # of connection points: 2
#     Edge 22, Type (0, 1), BuildingBlock: UVAHIK_clean_linker_0, # of connection points: 2
#     Edge 23, Type (0, 1), BuildingBlock: UVAHIK_clean_linker_0, # of connection points: 2
#     Edge 24, Type (0, 1), BuildingBlock: UVAHIK_clean_linker_0, # of connection points: 2
#     Edge 25, Type (0, 1), BuildingBlock: UVAHIK_clean_linker_0, # of connection points: 2
#     Edge 26, Type (0, 1), BuildingBlock: UVAHIK_clean_linker_0, # of connection points: 2
#     Edge 27, Type (0, 1), BuildingBlock: UVAHIK_clean_linker_0, # of connection points: 2
#     Edge 28, Type (0, 1), BuildingBlock: UVAHIK_clean_linker_0, # of connection points: 2
#     Edge 29, Type (0, 1), BuildingBlock: UVAHIK_clean_linker_0, # of connection points: 2
#     Edge 30, Type (0, 1), BuildingBlock: UVAHIK_clean_linker_0, # of connection points: 2
#     Edge 31, Type (0, 1), BuildingBlock: UVAHIK_clean_linker_0, # of connection points: 2
#     Edge 32, Type (0, 1), BuildingBlock: UVAHIK_clean_linker_0, # of connection points: 2
#     Edge 33, Type (0, 1), BuildingBlock: UVAHIK_clean_linker_0, # of connection points: 2
#     Edge 34, Type (0, 1), BuildingBlock: UVAHIK_clean_linker_0, # of connection points: 2
#     Edge 35, Type (0, 1), BuildingBlock: UVAHIK_clean_linker_0, # of connection points: 2
# Relax obj value: 0.003
# Max RMSD: 0.053
# Mean RMSD: 0.030
data_MOF--net-ssa--node1-KOZSID_clean_sbu_0--node2-KUFVIS_clean_linker_0--edge1-UVAHIK_clean_linker_0
_symmetry_space_group_name_H-M    P1
_symmetry_Int_Tables_number       1
_symmetry_cell_setting            triclinic
loop_
_symmetry_equiv_pos_as_xyz
'x, y, z'
_cell_length_a     73.504534
_cell_length_b     75.00284
_cell_length_c     41.104696
_cell_angle_alpha  87.463864
_cell_angle_beta   90.008551
_cell_angle_gamma 121.83132
loop_
_atom_site_label
_atom_site_type_symbol
_atom_site_fract_x
_atom_site_fract_y
_atom_site_fract_z
_atom_type_partial_charge
C0 C 0.96785 0.51364 0.01722 0.0
C1 C 0.95352 0.51019 0.04228 0.0
C2 C 0.95735 0.50025 0.06748 0.0
C3 C 0.9738 0.49832 0.0565 0.0
N4 N 0.98087 0.50659 0.0259 0.0
Co5 Co 0.00459 0.50723 0.00065 0.0
N6 N 0.00894 0.49097 0.03669 0.0
C7 C 0.99733 0.48294 0.06489 0.0
C8 C 0.00454 0.47325 0.08547 0.0
C9 C 0.02198 0.47544 0.06972 0.0
C10 C 0.02439 0.48634 0.04021 0.0
N11 N 0.02875 0.50843 0.97582 0.0
C12 C 0.0426 0.50258 0.98542 0.0
C13 C 0.05782 0.50713 0.9612 0.0
C14 C 0.0538 0.51671 0.93568 0.0
C15 C 0.03641 0.51739 0.9457 0.0
N16 N 0.99984 0.52298 0.96419 0.0
C17 C 0.0105 0.52974 0.93505 0.0
C18 C 1.00297 0.53899 0.9142 0.0
C19 C 0.98629 0.53784 0.93077 0.0
C20 C 0.98469 0.52803 0.96104 0.0
N21 N 0.02573 0.5341 0.02018 0.0
C22 C 0.05739 0.57137 0.04783 0.0
C23 C 0.05531 0.57028 0.01415 0.0
C24 C 0.03964 0.55156 0.00091 0.0
C25 C 0.04315 0.55374 0.06752 0.0
C26 C 0.02735 0.53552 0.05333 0.0
N27 N 0.98336 0.48037 0.98104 0.0
C28 C 0.9684 0.46009 0.93339 0.0
C29 C 0.9508 0.44424 0.95167 0.0
C30 C 0.95025 0.44632 0.98518 0.0
C31 C 0.96653 0.46439 0.99923 0.0
C32 C 0.98444 0.47773 0.94846 0.0
H33 H 0.96487 0.46525 0.02474 0.0
H34 H 0.99735 0.48918 0.93308 0.0
H35 H 0.03931 0.55154 0.97502 0.0
H36 H 0.01678 0.52272 0.0697 0.0
C37 C 0.98165 0.48724 0.07317 0.0
C38 C 0.96797 0.52306 0.98535 0.0
C39 C 0.04248 0.49336 0.0175 0.0
C40 C 0.02739 0.52697 0.92789 0.0
H41 H 0.94129 0.51409 0.0421 0.0
H42 H 0.94874 0.49455 0.09069 0.0
H43 H 0.99852 0.4664 0.10976 0.0
H44 H 0.0322 0.4703 0.07957 0.0
H45 H 0.07074 0.5042 0.96217 0.0
H46 H 0.0628 0.52288 0.91284 0.0
H47 H 0.00868 0.54546 0.88966 0.0
H48 H 0.97622 0.54328 0.92131 0.0
H49 H 0.06612 0.58364 0.99807 0.0
H50 H 0.04413 0.55407 0.09381 0.0
H51 H 0.96978 0.45894 0.90742 0.0
H52 H 0.93694 0.43441 0.00036 0.0
C53 C 0.53962 0.02179 0.55039 0.0
C54 C 0.54457 0.01852 0.58182 0.0
C55 C 0.52639 0.00161 0.59554 0.0
C56 C 0.51141 0.99553 0.57186 0.0
N57 N 0.51898 0.00742 0.5437 0.0
Co58 Co 0.50247 0.0041 0.50316 0.0
N59 N 0.47501 0.98135 0.52502 0.0
C60 C 0.4721 0.97443 0.55665 0.0
C61 C 0.4514 0.95899 0.56489 0.0
C62 C 0.44042 0.95575 0.5368 0.0
C63 C 0.45518 0.96934 0.51289 0.0
N64 N 0.4862 1.00002 0.4621 0.0
C65 C 0.46555 0.98556 0.45547 0.0
C66 C 0.46122 0.9872 0.42296 0.0
C67 C 0.47974 0.00322 0.40854 0.0
C68 C 0.49432 0.01031 0.43285 0.0
N69 N 0.52972 0.02768 0.48187 0.0
C70 C 0.53233 0.03578 0.45096 0.0
C71 C 0.55244 0.05282 0.44385 0.0
C72 C 0.56324 0.05611 0.47214 0.0
C73 C 0.54901 0.04081 0.49491 0.0
N74 N 0.509 0.98293 0.48925 0.0
C75 C 0.51762 0.95262 0.46888 0.0
C76 C 0.5241 0.97095 0.44977 0.0
C77 C 0.51956 0.9857 0.46021 0.0
C78 C 0.50681 0.94971 0.49842 0.0
C79 C 0.50285 0.96501 0.50818 0.0
N80 N 0.49611 0.02531 0.51706 0.0
C81 C 0.49341 0.05565 0.50443 0.0
C82 C 0.49258 0.05868 0.53749 0.0
C83 C 0.49243 0.04419 0.56012 0.0
C84 C 0.49386 0.02756 0.54946 0.0
C85 C 0.49529 0.03903 0.49478 0.0
H86 H 0.49357 0.01699 0.56793 0.0
H87 H 0.49659 0.03794 0.46922 0.0
H88 H 0.52467 0.99914 0.4442 0.0
H89 H 0.49476 0.96192 0.53115 0.0
C90 C 0.48953 0.98099 0.5769 0.0
C91 C 0.55449 0.03963 0.5287 0.0
C92 C 0.44976 0.96958 0.4788 0.0
C93 C 0.51558 0.02693 0.4292 0.0
H94 H 0.55951 0.02784 0.59408 0.0
H95 H 0.52406 0.99523 0.62038 0.0
H96 H 0.44518 0.95058 0.58826 0.0
H97 H 0.42357 0.94431 0.534 0.0
H98 H 0.44631 0.97767 0.41073 0.0
H99 H 0.48232 0.0089 0.38328 0.0
H100 H 0.55845 0.06191 0.42095 0.0
H101 H 0.57967 0.0685 0.47574 0.0
H102 H 0.53231 0.97377 0.42647 0.0
H103 H 0.50165 0.9358 0.51416 0.0
H104 H 0.49345 0.06653 0.48613 0.0
H105 H 0.49138 0.04579 0.58602 0.0
C106 C 0.54568 0.52516 0.9659 0.0
C107 C 0.55461 0.53559 0.93599 0.0
C108 C 0.53907 0.53689 0.91997 0.0
C109 C 0.52157 0.52717 0.94084 0.0
N110 N 0.52512 0.52013 0.96957 0.0
Co111 Co 0.50359 0.50355 0.00586 0.0
N112 N 0.47986 0.50257 0.98026 0.0
C113 C 0.48135 0.51081 0.94972 0.0
C114 C 0.46248 0.5082 0.93892 0.0
C115 C 0.44814 0.49797 0.96426 0.0
C116 C 0.45918 0.49501 0.98919 0.0
N117 N 0.48208 0.48697 0.04219 0.0
C118 C 0.46117 0.4809 0.04521 0.0
C119 C 0.45232 0.47058 0.07522 0.0
C120 C 0.46821 0.47029 0.09187 0.0
C121 C 0.48582 0.48046 0.07127 0.0
N122 N 0.52732 0.50443 0.03134 0.0
C123 C 0.52598 0.49653 0.06207 0.0
C124 C 0.54467 0.49845 0.07231 0.0
C125 C 0.55865 0.50771 0.0463 0.0
C126 C 0.54759 0.51083 0.02162 0.0
N127 N 0.50946 0.53005 0.02467 0.0
C128 C 0.51271 0.56535 0.05232 0.0
C129 C 0.51278 0.54967 0.07181 0.0
C130 C 0.5114 0.53244 0.0576 0.0
C131 C 0.51202 0.5636 0.01863 0.0
C132 C 0.51034 0.54593 0.00544 0.0
N133 N 0.49776 0.47713 0.98712 0.0
C134 C 0.49524 0.44365 0.99337 0.0
C135 C 0.49519 0.44218 0.95966 0.0
C136 C 0.49532 0.45791 0.94 0.0
C137 C 0.49633 0.47497 0.95414 0.0
C138 C 0.49658 0.46117 0.0065 0.0
H139 H 0.49644 0.48645 0.93784 0.0
H140 H 0.49722 0.46171 0.03233 0.0
H141 H 0.51151 0.5211 0.07386 0.0
H142 H 0.50929 0.54529 0.97968 0.0
C143 C 0.50101 0.52222 0.93271 0.0
C144 C 0.55664 0.51881 0.98884 0.0
C145 C 0.44953 0.48583 0.02134 0.0
C146 C 0.50641 0.48541 0.07934 0.0
H147 H 0.57042 0.54095 0.92612 0.0
H148 H 0.54005 0.54317 0.89537 0.0
H149 H 0.45966 0.51365 0.91576 0.0
H150 H 0.43157 0.49363 0.9647 0.0
H151 H 0.43622 0.46444 0.08459 0.0
H152 H 0.46725 0.46405 0.1165 0.0
H153 H 0.54749 0.49291 0.09538 0.0
H154 H 0.57491 0.51113 0.04517 0.0
H155 H 0.51378 0.55062 0.09804 0.0
H156 H 0.51199 0.57543 0.00256 0.0
H157 H 0.49506 0.43174 0.00952 0.0
H158 H 0.49482 0.45713 0.91372 0.0
C159 C 0.9683 0.45711 0.4914 0.0
C160 C 0.95454 0.44523 0.46724 0.0
C161 C 0.95861 0.4587 0.441 0.0
C162 C 0.97472 0.4779 0.45041 0.0
N163 N 0.98134 0.47751 0.48101 0.0
Co164 Co 0.00527 0.50172 0.50352 0.0
N165 N 0.01049 0.52165 0.46549 0.0
C166 C 0.99869 0.5174 0.43845 0.0
C167 C 0.00575 0.5344 0.41695 0.0
C168 C 0.02327 0.55043 0.43091 0.0
C169 C 0.02601 0.54217 0.4601 0.0
N170 N 0.02992 0.52583 0.52534 0.0
C171 C 0.04439 0.54562 0.51348 0.0
C172 C 0.06019 0.55678 0.53575 0.0
C173 C 0.05556 0.54361 0.56261 0.0
C174 C 0.03742 0.52519 0.55515 0.0
N175 N 0.99949 0.48191 0.54209 0.0
C176 C 0.00964 0.48684 0.57077 0.0
C177 C 1.00114 0.4705 0.59373 0.0
C178 C 0.98439 0.45416 0.57903 0.0
C179 C 0.98376 0.46143 0.54761 0.0
N180 N 0.0257 0.49506 0.4844 0.0
C181 C 0.05501 0.48604 0.45705 0.0
C182 C 0.05426 0.48819 0.49053 0.0
C183 C 0.03953 0.49255 0.50361 0.0
C184 C 0.04083 0.48848 0.43752 0.0
C185 C 0.02651 0.49304 0.45154 0.0
N186 N 0.98469 0.50831 0.52274 0.0
C187 C 0.97266 0.51949 0.568 0.0
C188 C 0.95435 0.51551 0.55154 0.0
C189 C 0.95165 0.50817 0.5202 0.0
C190 C 0.96696 0.50489 0.50628 0.0
C191 C 0.98741 0.51575 0.55337 0.0
H192 H 0.96397 0.49944 0.48223 0.0
H193 H 1.00075 0.51878 0.56759 0.0
H194 H 0.03965 0.49386 0.52933 0.0
H195 H 0.01633 0.49499 0.43526 0.0
C196 C 0.98274 0.49684 0.4322 0.0
C197 C 0.96754 0.44852 0.52428 0.0
C198 C 0.04421 0.55416 0.48095 0.0
C199 C 0.02721 0.50692 0.57535 0.0
H200 H 0.94246 0.42861 0.46871 0.0
H201 H 0.95042 0.45504 0.41811 0.0
H202 H 0.99942 0.53488 0.39337 0.0
H203 H 0.03325 0.56626 0.42038 0.0
H204 H 0.0739 0.57265 0.53279 0.0
H205 H 0.0646 0.54693 0.58468 0.0
H206 H 0.00635 0.47054 0.61838 0.0
H207 H 0.97371 0.43875 0.5905 0.0
H208 H 0.0648 0.48626 0.5067 0.0
H209 H 0.041 0.48725 0.41138 0.0
H210 H 0.97538 0.52503 0.59247 0.0
H211 H 0.93786 0.50512 0.50631 0.0
C212 C 0.46886 0.98214 0.05273 0.0
C213 C 0.46338 0.98402 0.08415 0.0
C214 C 0.48034 0.00209 0.09501 0.0
C215 C 0.49507 0.01022 0.06966 0.0
N216 N 0.48842 0.99862 0.04302 0.0
Co217 Co 0.50486 0.00434 0.00098 0.0
N218 N 0.53104 0.02912 0.01866 0.0
C219 C 0.53323 0.03638 0.04888 0.0
C220 C 0.55323 0.05322 0.05438 0.0
C221 C 0.56452 0.05709 0.02592 0.0
C222 C 0.5506 0.04244 0.00447 0.0
N223 N 0.52126 0.01016 0.95879 0.0
C224 C 0.54151 0.02572 0.94985 0.0
C225 C 0.54618 0.0246 0.91752 0.0
C226 C 0.5284 0.00768 0.90576 0.0
C227 C 0.51384 0.99952 0.93129 0.0
N228 N 0.47872 0.97929 0.9836 0.0
C229 C 0.47634 0.9721 0.95332 0.0
C230 C 0.45714 0.95385 0.94917 0.0
C231 C 0.44674 0.94882 0.97876 0.0
C232 C 0.46024 0.96443 0.99925 0.0
N233 N 0.49478 0.02311 0.98483 0.0
C234 C 0.48239 0.05092 0.96039 0.0
C235 C 0.47982 0.03449 0.94217 0.0
C236 C 0.48605 0.02095 0.9547 0.0
C237 C 0.49097 0.05298 0.99131 0.0
C238 C 0.49689 0.03899 0.003 0.0
N239 N 0.5149 0.98569 0.01699 0.0
C240 C 0.5205 0.95713 0.0089 0.0
C241 C 0.5277 0.95818 0.04061 0.0
C242 C 0.52858 0.97337 0.06018 0.0
C243 C 0.52205 0.98677 0.04806 0.0
C244 C 0.5144 0.97104 0.99758 0.0
H245 H 0.5227 0.99772 0.06438 0.0
H246 H 0.50921 0.96956 0.97311 0.0
H247 H 0.48386 0.00903 0.93926 0.0
H248 H 0.50329 0.04149 0.02671 0.0
C249 C 0.51604 0.02731 0.07137 0.0
C250 C 0.45546 0.96386 0.03382 0.0
C251 C 0.55662 0.04217 0.97072 0.0
C252 C 0.49305 0.98202 0.93006 0.0
H253 H 0.44889 0.97311 0.09809 0.0
H254 H 0.48208 0.00812 0.11901 0.0
H255 H 0.5589 0.06174 0.0764 0.0
H256 H 0.58109 0.06943 0.02141 0.0
H257 H 0.56082 0.03505 0.90361 0.0
H258 H 0.52625 0.00212 0.88136 0.0
H259 H 0.45169 0.94486 0.92757 0.0
H260 H 0.43125 0.93491 0.98476 0.0
H261 H 0.47349 0.03234 0.91789 0.0
H262 H 0.49302 0.06529 0.00659 0.0
H263 H 0.51975 0.94574 0.99276 0.0
H264 H 0.53382 0.97462 0.08506 0.0
C265 C 0.51497 0.5506 0.51196 0.0
C266 C 0.51246 0.56243 0.53454 0.0
C267 C 0.50205 0.54928 0.5611 0.0
C268 C 0.49894 0.5303 0.55335 0.0
N269 N 0.50708 0.53059 0.52367 0.0
Co270 Co 0.50575 0.50633 0.50251 0.0
N271 N 0.4892 0.48665 0.54073 0.0
C272 C 0.48257 0.49131 0.56802 0.0
C273 C 0.47178 0.47463 0.59018 0.0
C274 C 0.47182 0.45841 0.57654 0.0
C275 C 0.48281 0.46622 0.54679 0.0
N276 N 0.50424 0.48196 0.48128 0.0
C277 C 0.4966 0.46199 0.49316 0.0
C278 C 0.49965 0.45036 0.47088 0.0
C279 C 0.50966 0.46343 0.44408 0.0
C280 C 0.51224 0.48224 0.45149 0.0
N281 N 0.5225 0.5261 0.4644 0.0
C282 C 0.52913 0.52139 0.43718 0.0
C283 C 0.53934 0.53785 0.41453 0.0
C284 C 0.53903 0.55401 0.42785 0.0
C285 C 0.5287 0.5465 0.45814 0.0
N286 N 0.53298 0.51294 0.52313 0.0
C287 C 0.57189 0.52308 0.55216 0.0
C288 C 0.56815 0.5176 0.51974 0.0
C289 C 0.54879 0.5127 0.50581 0.0
C290 C 0.55572 0.52315 0.56989 0.0
C291 C 0.53654 0.51797 0.55511 0.0
N292 N 0.47863 0.49999 0.48179 0.0
C293 C 0.45884 0.49623 0.4329 0.0
C294 C 0.44312 0.49714 0.45044 0.0
C295 C 0.44478 0.49826 0.48421 0.0
C296 C 0.46256 0.49969 0.49927 0.0
C297 C 0.47616 0.49742 0.44895 0.0
H298 H 0.46321 0.50113 0.52494 0.0
H299 H 0.48761 0.49675 0.43412 0.0
H300 H 0.54703 0.50882 0.48096 0.0
H301 H 0.52482 0.51809 0.5701 0.0
C302 C 0.48761 0.51173 0.57278 0.0
C303 C 0.52399 0.55885 0.4792 0.0
C304 C 0.48757 0.45383 0.52597 0.0
C305 C 0.52378 0.50089 0.43228 0.0
H306 H 0.51724 0.57877 0.53177 0.0
H307 H 0.49691 0.55298 0.58312 0.0
H308 H 0.46512 0.47443 0.61378 0.0
H309 H 0.46494 0.44271 0.58754 0.0
H310 H 0.49568 0.43429 0.47395 0.0
H311 H 0.51516 0.45987 0.42229 0.0
H312 H 0.54551 0.53785 0.39062 0.0
H313 H 0.54514 0.56935 0.41599 0.0
H314 H 0.58024 0.51741 0.50496 0.0
H315 H 0.55772 0.52692 0.59529 0.0
H316 H 0.45793 0.49484 0.40674 0.0
H317 H 0.43289 0.49888 0.49882 0.0
H318 H 0.30931 0.49225 0.21423 0.0
H319 H 0.25775 0.4891 0.26797 0.0
H320 H 0.2502 0.47217 0.167 0.0
H321 H 0.22819 0.4843 0.1668 0.0
H322 H 0.1708 0.46663 0.22035 0.0
H323 H 0.2226 0.468 0.27044 0.0
C324 C 0.29313 0.48916 0.21514 0.0
C325 C 0.28088 0.48269 0.18729 0.0
C326 C 0.28467 0.49096 0.24438 0.0
C327 C 0.26365 0.48677 0.24546 0.0
C328 C 0.2508 0.48028 0.2175 0.0
C329 C 0.25963 0.47781 0.18859 0.0
C330 C 0.22844 0.4763 0.21838 0.0
C331 C 0.21919 0.47888 0.18969 0.0
C332 C 0.19818 0.47468 0.19033 0.0
C333 C 0.18661 0.4688 0.21987 0.0
C334 C 0.19556 0.46698 0.24893 0.0
C335 C 0.21626 0.4703 0.24798 0.0
H336 H 0.7066 0.16505 0.74378 0.0
H337 H 0.75663 0.2184 0.79012 0.0
H338 H 0.74879 0.2208 0.68563 0.0
H339 H 0.78368 0.24289 0.68434 0.0
H340 H 0.82675 0.30094 0.72719 0.0
H341 H 0.77309 0.25277 0.78421 0.0
C342 C 0.7205 0.18095 0.74203 0.0
C343 C 0.72718 0.19167 0.7116 0.0
C344 C 0.73066 0.19082 0.77035 0.0
C345 C 0.74853 0.21145 0.76797 0.0
C346 C 0.75592 0.22266 0.73739 0.0
C347 C 0.74447 0.2126 0.70934 0.0
C348 C 0.7755 0.24456 0.73472 0.0
C349 C 0.78783 0.25244 0.70526 0.0
C350 C 0.8061 0.27274 0.70263 0.0
C351 C 0.8125 0.28527 0.72942 0.0
C352 C 0.80078 0.27806 0.75887 0.0
C353 C 0.78228 0.25778 0.76151 0.0
H354 H 0.52814 0.70236 0.2719 0.0
H355 H 0.52963 0.75277 0.21631 0.0
H356 H 0.5487 0.75991 0.3173 0.0
H357 H 0.53725 0.78186 0.31651 0.0
H358 H 0.55657 0.83908 0.26152 0.0
H359 H 0.5508 0.78726 0.21249 0.0
C360 C 0.53128 0.71824 0.27033 0.0
C361 C 0.53822 0.73017 0.29776 0.0
C362 C 0.52853 0.72647 0.2409 0.0
C363 C 0.53257 0.747 0.23904 0.0
C364 C 0.53967 0.75954 0.26658 0.0
C365 C 0.5427 0.75081 0.29589 0.0
C366 C 0.54393 0.78153 0.26489 0.0
C367 C 0.54245 0.79075 0.29337 0.0
C368 C 0.5477 0.81167 0.29229 0.0
C369 C 0.55342 0.8232 0.26248 0.0
C370 C 0.55392 0.81424 0.23368 0.0
C371 C 0.54951 0.79358 0.23492 0.0
H372 H 0.83456 0.53674 0.78686 0.0
H373 H 0.78559 0.53933 0.83804 0.0
H374 H 0.78201 0.53127 0.7336 0.0
H375 H 0.76315 0.54577 0.73367 0.0
H376 H 0.71054 0.54172 0.7853 0.0
H377 H 0.75129 0.5262 0.83658 0.0
C378 C 0.81956 0.53631 0.78647 0.0
C379 C 0.80955 0.53461 0.75693 0.0
C380 C 0.81054 0.53735 0.81558 0.0
C381 C 0.79147 0.53736 0.81524 0.0
C382 C 0.78062 0.53532 0.78575 0.0
C383 C 0.78979 0.53339 0.75666 0.0
C384 C 0.76046 0.53608 0.78528 0.0
C385 C 0.75404 0.54198 0.75625 0.0
C386 C 0.73596 0.54378 0.75618 0.0
C387 C 0.72449 0.5403 0.78527 0.0
C388 C 0.7302 0.53427 0.81415 0.0
C389 C 0.74774 0.53161 0.81406 0.0
H390 H 0.17503 0.71532 0.264 0.0
H391 H 0.23178 0.76532 0.21637 0.0
H392 H 0.22723 0.75757 0.32207 0.0
H393 H 0.25149 0.79105 0.32116 0.0
H394 H 0.31358 0.83203 0.27729 0.0
H395 H 0.26573 0.78239 0.22252 0.0
C396 C 0.19083 0.72936 0.26571 0.0
C397 C 0.19945 0.73604 0.2963 0.0
C398 C 0.20275 0.73955 0.2372 0.0
C399 C 0.22337 0.75742 0.23904 0.0
C400 C 0.23273 0.76472 0.26962 0.0
C401 C 0.22053 0.75334 0.2982 0.0
C402 C 0.25519 0.78365 0.27166 0.0
C403 C 0.26221 0.79507 0.30038 0.0
C404 C 0.28337 0.81209 0.30254 0.0
C405 C 0.29744 0.81848 0.27574 0.0
C406 C 0.29082 0.80813 0.2467 0.0
C407 C 0.26995 0.79059 0.24486 0.0
H408 H 0.47475 0.30644 0.74147 0.0
H409 H 0.48123 0.25797 0.78796 0.0
H410 H 0.45959 0.25245 0.68863 0.0
H411 H 0.47849 0.23579 0.68603 0.0
H412 H 0.46541 0.17821 0.73397 0.0
H413 H 0.45907 0.22225 0.78821 0.0
C414 C 0.47331 0.29131 0.74053 0.0
C415 C 0.46661 0.28037 0.71198 0.0
C416 C 0.47844 0.28323 0.76781 0.0
C417 C 0.47674 0.26377 0.7668 0.0
C418 C 0.47004 0.25231 0.73823 0.0
C419 C 0.46508 0.26093 0.71073 0.0
C420 C 0.46848 0.23162 0.73706 0.0
C421 C 0.4732 0.22545 0.70779 0.0
C422 C 0.47186 0.20615 0.70676 0.0
C423 C 0.4659 0.19291 0.73482 0.0
C424 C 0.46159 0.19877 0.76425 0.0
C425 C 0.4628 0.21806 0.76537 0.0
C426 C 0.06006 0.47326 0.03292 0.0
C427 C 0.06146 0.49256 0.0278 0.0
C428 C 0.07764 0.47258 0.04424 0.0
C429 C 0.12828 0.50462 0.08787 0.0
H430 H 0.13791 0.46056 0.06511 0.0
C431 C 0.19543 0.49728 0.14642 0.0
C432 C 0.188 0.47723 0.1609 0.0
C433 C 0.18288 0.50033 0.12388 0.0
C434 C 0.13546 0.473 0.07161 0.0
H435 H 0.08239 0.52629 0.02878 0.0
H436 H 0.11343 0.52529 0.04762 0.0
H437 H 0.11029 0.46389 0.0377 0.0
H438 H 0.16242 0.44452 0.16212 0.0
H439 H 0.14073 0.44968 0.12233 0.0
H440 H 0.1533 0.51356 0.12201 0.0
C441 C 0.09862 0.51058 0.04392 0.0
C442 C 0.11953 0.47485 0.05606 0.0
C443 C 0.08095 0.51122 0.03291 0.0
C444 C 0.16856 0.46008 0.15096 0.0
C445 C 0.15616 0.46307 0.12819 0.0
C446 C 0.14431 0.50289 0.10317 0.0
C447 C 0.09713 0.49123 0.05025 0.0
C448 C 0.11541 0.49042 0.06447 0.0
C449 C 0.16282 0.48333 0.11524 0.0
C450 C 0.14781 0.48681 0.0957 0.0
H451 H 0.04518 0.45869 0.02883 0.0
H452 H 0.07572 0.45736 0.04917 0.0
H453 H 0.12543 0.5166 0.09546 0.0
H454 H 0.21026 0.51075 0.15406 0.0
H455 H 0.1885 0.5161 0.11411 0.0
C456 C 0.59179 0.05418 0.54842 0.0
C457 C 0.57479 0.05703 0.54142 0.0
C458 C 0.61045 0.0702 0.56198 0.0
C459 C 0.64131 0.12731 0.57596 0.0
H460 H 0.66313 0.11041 0.64906 0.0
C461 C 0.70107 0.18538 0.66788 0.0
C462 C 0.71521 0.18054 0.68279 0.0
C463 C 0.6861 0.17177 0.64589 0.0
C464 C 0.65759 0.11546 0.62829 0.0
H465 H 0.56395 0.07879 0.54185 0.0
H466 H 0.59659 0.10693 0.56572 0.0
H467 H 0.6329 0.08385 0.61985 0.0
H468 H 0.72586 0.1586 0.6853 0.0
H469 H 0.70047 0.1353 0.64598 0.0
H470 H 0.66596 0.15903 0.58472 0.0
C471 C 0.59563 0.09241 0.56064 0.0
C472 C 0.64016 0.10017 0.61156 0.0
C473 C 0.57694 0.07633 0.54718 0.0
C474 C 0.71512 0.16266 0.67393 0.0
C475 C 0.70038 0.1492 0.65175 0.0
C476 C 0.65888 0.14267 0.59265 0.0
C477 C 0.6125 0.08943 0.56864 0.0
C478 C 0.6317 0.10587 0.58531 0.0
C479 C 0.6851 0.15312 0.6384 0.0
C480 C 0.66719 0.13695 0.61916 0.0
H481 H 0.59046 0.03943 0.54384 0.0
H482 H 0.62325 0.0675 0.5674 0.0
H483 H 0.6353 0.13222 0.55563 0.0
H484 H 0.70067 0.19895 0.67481 0.0
H485 H 0.67452 0.17525 0.63632 0.0
C486 C 0.49846 0.57873 0.0936 0.0
C487 C 0.51255 0.58291 0.06727 0.0
C488 C 0.49839 0.5951 0.10834 0.0
C489 C 0.51697 0.65195 0.09807 0.0
H490 H 0.50925 0.646 0.19205 0.0
C491 C 0.53585 0.71897 0.18528 0.0
C492 C 0.52194 0.71316 0.21248 0.0
C493 C 0.53263 0.704 0.16299 0.0
C494 C 0.51113 0.6478 0.16575 0.0
H495 H 0.53738 0.60748 0.03532 0.0
H496 H 0.53777 0.63628 0.06174 0.0
H497 H 0.50854 0.61824 0.16298 0.0
H498 H 0.49278 0.68794 0.23619 0.0
H499 H 0.48693 0.66195 0.19715 0.0
H500 H 0.52031 0.68207 0.10148 0.0
C501 C 0.52645 0.6203 0.07061 0.0
C502 C 0.51068 0.63183 0.149 0.0
C503 C 0.52632 0.60383 0.05556 0.0
C504 C 0.50375 0.69275 0.21544 0.0
C505 C 0.50052 0.67786 0.19327 0.0
C506 C 0.51763 0.66812 0.11499 0.0
C507 C 0.51262 0.61614 0.09745 0.0
C508 C 0.5134 0.63355 0.11491 0.0
C509 C 0.51547 0.68304 0.16773 0.0
C510 C 0.51451 0.66609 0.149 0.0
H511 H 0.48735 0.56273 0.10268 0.0
H512 H 0.4871 0.5912 0.12834 0.0
H513 H 0.51897 0.65376 0.0718 0.0
H514 H 0.5501 0.73458 0.18271 0.0
H515 H 0.54441 0.70843 0.14353 0.0
C516 C 0.94466 0.53679 0.58466 0.0
C517 C 0.93815 0.51875 0.56727 0.0
C518 C 0.92959 0.53937 0.60101 0.0
C519 C 0.87115 0.51923 0.60915 0.0
H520 H 0.88759 0.54323 0.69364 0.0
C521 C 0.8126 0.51703 0.70835 0.0
C522 C 0.82076 0.53489 0.72679 0.0
C523 C 0.82566 0.51584 0.68468 0.0
C524 C 0.88281 0.53675 0.6699 0.0
H525 H 0.91065 0.48941 0.55298 0.0
H526 H 0.88432 0.49369 0.58209 0.0
H527 H 0.91281 0.53948 0.66117 0.0
H528 H 0.84815 0.56601 0.73357 0.0
H529 H 0.87073 0.56418 0.69207 0.0
H530 H 0.84079 0.51606 0.6187 0.0
C531 C 0.90105 0.50606 0.58261 0.0
C532 C 0.89733 0.53464 0.65118 0.0
C533 C 0.91615 0.50357 0.56598 0.0
C534 C 0.84155 0.55206 0.71968 0.0
C535 C 0.85451 0.55091 0.69614 0.0
C536 C 0.85649 0.52123 0.6281 0.0
C537 C 0.9076 0.52387 0.60075 0.0
C538 C 0.89181 0.52599 0.62043 0.0
C539 C 0.84705 0.5325 0.67927 0.0
C540 C 0.86225 0.53019 0.6586 0.0
H541 H 0.96146 0.54895 0.58564 0.0
H542 H 0.93525 0.55355 0.614 0.0
H543 H 0.86637 0.51264 0.58549 0.0
H544 H 0.79668 0.50352 0.71367 0.0
H545 H 0.81946 0.50143 0.6721 0.0
C546 C 0.41643 0.9378 0.046 0.0
C547 C 0.43793 0.94431 0.05058 0.0
C548 C 0.4001 0.92012 0.06362 0.0
C549 C 0.39106 0.88947 0.14054 0.0
H550 H 0.3371 0.84861 0.10342 0.0
C551 C 0.32666 0.82092 0.22089 0.0
C552 C 0.30578 0.81683 0.21811 0.0
C553 C 0.34233 0.83332 0.19696 0.0
C554 C 0.35204 0.85995 0.11419 0.0
H555 H 0.45948 0.93767 0.07647 0.0
H556 H 0.43101 0.90671 0.10732 0.0
H557 H 0.36547 0.87687 0.06832 0.0
H558 H 0.28451 0.82145 0.18748 0.0
H559 H 0.31198 0.84351 0.14578 0.0
H560 H 0.37766 0.87319 0.18643 0.0
C561 C 0.42667 0.91522 0.09031 0.0
C562 C 0.36828 0.87613 0.09408 0.0
C563 C 0.44294 0.93282 0.07263 0.0
C564 C 0.30047 0.82422 0.18996 0.0
C565 C 0.31624 0.83688 0.16612 0.0
C566 C 0.37486 0.87343 0.1606 0.0
C567 C 0.40507 0.9088 0.08632 0.0
C568 C 0.38795 0.8911 0.10709 0.0
C569 C 0.33756 0.84221 0.16995 0.0
C570 C 0.3551 0.85846 0.14777 0.0
H571 H 0.41232 0.94664 0.0293 0.0
H572 H 0.38366 0.91574 0.06029 0.0
H573 H 0.40585 0.90098 0.15148 0.0
H574 H 0.33108 0.81529 0.24236 0.0
H575 H 0.35841 0.83661 0.20029 0.0
C576 C 0.49729 0.43407 0.56548 0.0
C577 C 0.48478 0.43375 0.53948 0.0
C578 C 0.49376 0.4153 0.58015 0.0
C579 C 0.47082 0.35908 0.56934 0.0
H580 H 0.46579 0.35483 0.66366 0.0
C581 C 0.47512 0.29723 0.65553 0.0
C582 C 0.462 0.29029 0.68385 0.0
C583 C 0.47502 0.31196 0.63336 0.0
C584 C 0.46694 0.35565 0.6373 0.0
H585 H 0.459 0.4138 0.50804 0.0
H586 H 0.45302 0.38074 0.53338 0.0
H587 H 0.47242 0.38666 0.6342 0.0
H588 H 0.43717 0.29164 0.70979 0.0
H589 H 0.43672 0.31698 0.671 0.0
H590 H 0.46565 0.32802 0.57276 0.0
C591 C 0.4656 0.39553 0.5423 0.0
C592 C 0.47098 0.37399 0.62046 0.0
C593 C 0.46897 0.41436 0.52786 0.0
C594 C 0.44745 0.29679 0.68813 0.0
C595 C 0.44734 0.31143 0.66609 0.0
C596 C 0.46705 0.34073 0.58632 0.0
C597 C 0.47773 0.39582 0.56896 0.0
C598 C 0.47306 0.37598 0.58633 0.0
C599 C 0.46184 0.31994 0.63932 0.0
C600 C 0.46501 0.33882 0.62051 0.0
H601 H 0.50955 0.44887 0.57481 0.0
H602 H 0.50347 0.41602 0.60046 0.0
H603 H 0.47241 0.36023 0.54302 0.0
H604 H 0.48663 0.2926 0.65193 0.0
H605 H 0.48638 0.31825 0.61295 0.0
C606 C 0.54223 0.94284 0.44456 0.0
C607 C 0.52199 0.93664 0.45776 0.0
C608 C 0.54608 0.92803 0.43226 0.0
C609 C 0.52426 0.87054 0.42936 0.0
H610 H 0.55789 0.88815 0.34868 0.0
C611 C 0.5271 0.81442 0.33835 0.0
C612 C 0.54666 0.82192 0.32157 0.0
C613 C 0.52507 0.82699 0.36052 0.0
C614 C 0.54876 0.88304 0.37149 0.0
H615 H 0.49003 0.91 0.46906 0.0
H616 H 0.49656 0.88412 0.44684 0.0
H617 H 0.55234 0.91294 0.37602 0.0
H618 H 0.5798 0.84739 0.31665 0.0
H619 H 0.57646 0.8691 0.35576 0.0
H620 H 0.52021 0.84029 0.42388 0.0
C621 C 0.50962 0.90038 0.44657 0.0
C622 C 0.54558 0.8973 0.38725 0.0
C623 C 0.50583 0.91521 0.4592 0.0
C624 C 0.56454 0.84134 0.32922 0.0
C625 C 0.56256 0.85381 0.35137 0.0
C626 C 0.52735 0.85616 0.41339 0.0
C627 C 0.5297 0.90666 0.43246 0.0
C628 C 0.53333 0.89131 0.41642 0.0
C629 C 0.5426 0.84721 0.36617 0.0
C630 C 0.5397 0.8623 0.3843 0.0
H631 H 0.5551 0.9592 0.44367 0.0
H632 H 0.5619 0.9334 0.42233 0.0
H633 H 0.51489 0.86542 0.45193 0.0
H634 H 0.51306 0.79956 0.33259 0.0
H635 H 0.50948 0.82148 0.3715 0.0
C636 C 0.59571 0.53786 0.97294 0.0
C637 C 0.57602 0.5189 0.97811 0.0
C638 C 0.61363 0.5379 0.96131 0.0
C639 C 0.62808 0.50535 0.9159 0.0
H640 H 0.68558 0.54656 0.94156 0.0
C641 C 0.70166 0.51062 0.85557 0.0
C642 C 0.71731 0.53099 0.84394 0.0
C643 C 0.68579 0.50753 0.87809 0.0
C644 C 0.66962 0.53494 0.93414 0.0
H645 H 0.55955 0.48511 0.97659 0.0
H646 H 0.59092 0.48499 0.95676 0.0
H647 H 0.65484 0.54421 0.96889 0.0
H648 H 0.72938 0.56407 0.84747 0.0
H649 H 0.70201 0.55882 0.88703 0.0
H650 H 0.64285 0.49638 0.88072 0.0
C651 C 0.59253 0.49991 0.96097 0.0
C652 C 0.65198 0.53364 0.94972 0.0
C653 C 0.57462 0.49992 0.9725 0.0
C654 C 0.71765 0.54824 0.85658 0.0
C655 C 0.70194 0.54519 0.8792 0.0
C656 C 0.6457 0.50661 0.90042 0.0
C657 C 0.61224 0.51893 0.95483 0.0
C658 C 0.63098 0.5191 0.94037 0.0
C659 C 0.68537 0.52478 0.88939 0.0
C660 C 0.66672 0.52168 0.9089 0.0
H661 H 0.5971 0.55267 0.9773 0.0
H662 H 0.6284 0.55286 0.95652 0.0
H663 H 0.6122 0.49415 0.90768 0.0
H664 H 0.70091 0.4971 0.84571 0.0
H665 H 0.67338 0.49162 0.8857 0.0
C666 C 0.06807 0.59353 0.48134 0.0
C667 C 0.06288 0.57452 0.46805 0.0
C668 C 0.08474 0.61269 0.46749 0.0
C669 C 0.11058 0.63639 0.38923 0.0
H670 H 0.15705 0.68083 0.43625 0.0
C671 C 0.1647 0.71731 0.32765 0.0
C672 C 0.18636 0.72351 0.32558 0.0
C673 C 0.15066 0.70135 0.35001 0.0
C674 C 0.14412 0.66854 0.42295 0.0
H675 H 0.07095 0.56041 0.43037 0.0
H676 H 0.09976 0.59393 0.40555 0.0
H677 H 0.13058 0.64757 0.46549 0.0
H678 H 0.21073 0.7192 0.34725 0.0
H679 H 0.18606 0.69132 0.38706 0.0
H680 H 0.12373 0.65719 0.34687 0.0
C681 C 0.09114 0.59403 0.42685 0.0
C682 C 0.129 0.64961 0.43961 0.0
C683 C 0.07474 0.57491 0.44099 0.0
C684 C 0.19414 0.7148 0.34845 0.0
C685 C 0.18003 0.69882 0.37111 0.0
C686 C 0.12537 0.65534 0.3728 0.0
C687 C 0.09615 0.61311 0.43974 0.0
C688 C 0.1122 0.63332 0.42277 0.0
C689 C 0.158 0.69134 0.37101 0.0
C690 C 0.14229 0.67159 0.38942 0.0
H691 H 0.05892 0.59355 0.50199 0.0
H692 H 0.08817 0.6272 0.47766 0.0
H693 H 0.0977 0.62417 0.37573 0.0
H694 H 0.15834 0.72395 0.31055 0.0
H695 H 0.13381 0.69607 0.34979 0.0
C696 C 0.49001 0.08769 0.95081 0.0
C697 C 0.47662 0.06599 0.94675 0.0
C698 C 0.48539 0.10196 0.93589 0.0
C699 C 0.45659 0.10651 0.86581 0.0
H700 H 0.46716 0.15707 0.90518 0.0
C701 C 0.44094 0.16366 0.79376 0.0
C702 C 0.45738 0.18491 0.79372 0.0
C703 C 0.44016 0.14917 0.81716 0.0
C704 C 0.4642 0.14306 0.89381 0.0
H705 H 0.44722 0.04224 0.92527 0.0
H706 H 0.43915 0.06704 0.89935 0.0
H707 H 0.47205 0.13159 0.93695 0.0
H708 H 0.48513 0.20799 0.81905 0.0
H709 H 0.48405 0.18265 0.85985 0.0
H710 H 0.44933 0.11803 0.8225 0.0
C711 C 0.45348 0.0731 0.9135 0.0
C712 C 0.46703 0.12847 0.912 0.0
C713 C 0.45811 0.05887 0.92836 0.0
C714 C 0.47215 0.19171 0.81887 0.0
C715 C 0.47152 0.17715 0.84216 0.0
C716 C 0.45382 0.12105 0.84768 0.0
C717 C 0.46725 0.09486 0.91657 0.0
C718 C 0.46335 0.11005 0.89813 0.0
C719 C 0.45602 0.15556 0.84076 0.0
C720 C 0.45767 0.13958 0.86131 0.0
H721 H 0.50451 0.09374 0.96455 0.0
H722 H 0.49647 0.1186 0.93849 0.0
H723 H 0.45405 0.09275 0.85407 0.0
H724 H 0.42937 0.15807 0.77457 0.0
H725 H 0.42766 0.13278 0.81583 0.0
C726 C 0.43077 0.51161 0.40571 0.0
C727 C 0.42576 0.49793 0.43326 0.0
C728 C 0.41466 0.51235 0.38892 0.0
C729 C 0.35737 0.49673 0.39448 0.0
H730 H 0.3645 0.50401 0.30044 0.0
C731 C 0.29114 0.48234 0.30121 0.0
C732 C 0.29806 0.4963 0.27362 0.0
C733 C 0.30581 0.48433 0.32481 0.0
C734 C 0.36238 0.50224 0.32672 0.0
H735 H 0.39997 0.47451 0.46522 0.0
H736 H 0.37157 0.47527 0.43525 0.0
H737 H 0.3916 0.50304 0.3327 0.0
H738 H 0.32506 0.5244 0.25059 0.0
H739 H 0.35053 0.52802 0.29178 0.0
H740 H 0.32756 0.49522 0.38786 0.0
C741 C 0.38804 0.48576 0.42696 0.0
C742 C 0.37798 0.50173 0.3453 0.0
C743 C 0.40427 0.48523 0.44405 0.0
C744 C 0.31937 0.51333 0.27152 0.0
C745 C 0.33396 0.51531 0.29496 0.0
C746 C 0.34156 0.49701 0.37572 0.0
C747 C 0.39302 0.4992 0.39893 0.0
C748 C 0.37586 0.4992 0.37947 0.0
C749 C 0.32758 0.50029 0.32104 0.0
C750 C 0.34405 0.50002 0.34165 0.0
H751 H 0.44725 0.52192 0.39725 0.0
H752 H 0.41924 0.52332 0.36805 0.0
H753 H 0.35525 0.4949 0.42074 0.0
H754 H 0.27483 0.46898 0.30324 0.0
H755 H 0.30045 0.47254 0.34468 0.0
C756 C 0.92393 0.40542 0.9486 0.0
C757 C 0.93291 0.4261 0.93554 0.0
C758 C 0.90746 0.38844 0.9326 0.0
C759 C 0.8834 0.37488 0.85093 0.0
H760 H 0.83697 0.3254 0.89719 0.0
C761 C 0.81323 0.31291 0.78118 0.0
C762 C 0.80863 0.29228 0.7863 0.0
C763 C 0.82571 0.32823 0.803 0.0
C764 C 0.8499 0.33911 0.88402 0.0
H765 H 0.93093 0.44528 0.89641 0.0
H766 H 0.90204 0.41595 0.86902 0.0
H767 H 0.8645 0.35436 0.92791 0.0
H768 H 0.81206 0.27106 0.81944 0.0
H769 H 0.83391 0.29799 0.85809 0.0
H770 H 0.86881 0.35984 0.80716 0.0
C771 C 0.90811 0.41262 0.89095 0.0
C772 C 0.86573 0.35567 0.90156 0.0
C773 C 0.92467 0.42949 0.9067 0.0
C774 C 0.81525 0.28683 0.81512 0.0
C775 C 0.82781 0.30225 0.83711 0.0
C776 C 0.86755 0.35851 0.83353 0.0
C777 C 0.89947 0.39181 0.90336 0.0
C778 C 0.88263 0.37386 0.8852 0.0
C779 C 0.83392 0.32329 0.83046 0.0
C780 C 0.85052 0.3405 0.84978 0.0
H781 H 0.93001 0.40233 0.97075 0.0
H782 H 0.90139 0.37267 0.94275 0.0
H783 H 0.89643 0.38827 0.83739 0.0
H784 H 0.80821 0.31747 0.7592 0.0
H785 H 0.82977 0.3442 0.79757 0.0
C786 C 0.92972 0.50883 0.97144 0.0
C787 C 0.95017 0.52621 0.97675 0.0
C788 C 0.91325 0.51171 0.96125 0.0
C789 C 0.90519 0.55052 0.91715 0.0
H790 H 0.84591 0.5131 0.94553 0.0
C791 C 0.83906 0.55727 0.85525 0.0
C792 C 0.82154 0.53812 0.84596 0.0
C793 C 0.85325 0.55754 0.87823 0.0
C794 C 0.86238 0.52367 0.93728 0.0
H795 H 0.96948 0.5601 0.97698 0.0
H796 H 0.94069 0.56529 0.95907 0.0
H797 H 0.87399 0.51014 0.97216 0.0
H798 H 0.80449 0.50435 0.85383 0.0
H799 H 0.82919 0.50464 0.89377 0.0
H800 H 0.89369 0.56353 0.88149 0.0
C801 C 0.93737 0.54943 0.96242 0.0
C802 C 0.87846 0.52196 0.95255 0.0
C803 C 0.9538 0.54651 0.97275 0.0
C804 C 0.81768 0.51931 0.86125 0.0
C805 C 0.83188 0.51954 0.88409 0.0
C806 C 0.88913 0.55217 0.90182 0.0
C807 C 0.91697 0.53207 0.95611 0.0
C808 C 0.90003 0.53513 0.94227 0.0
C809 C 0.85031 0.53862 0.89196 0.0
C810 C 0.86746 0.53853 0.91126 0.0
H811 H 0.92666 0.49304 0.97441 0.0
H812 H 0.89783 0.49801 0.95626 0.0
H813 H 0.92158 0.56072 0.90829 0.0
H814 H 0.84248 0.57193 0.8433 0.0
H815 H 0.86705 0.57253 0.88411 0.0
C816 C 0.42453 0.93201 0.46628 0.0
C817 C 0.42874 0.95251 0.46738 0.0
C818 C 0.40511 0.916 0.45453 0.0
C819 C 0.36177 0.90787 0.40043 0.0
H820 H 0.33356 0.85062 0.43702 0.0
C821 C 0.28977 0.84119 0.33724 0.0
C822 C 0.29159 0.8238 0.33238 0.0
C823 C 0.3026 0.85588 0.35987 0.0
C824 C 0.34124 0.86652 0.42649 0.0
H825 H 0.41602 0.97243 0.45818 0.0
H826 H 0.38193 0.94443 0.4375 0.0
H827 H 0.36408 0.8787 0.46443 0.0
H828 H 0.30735 0.80749 0.34786 0.0
H829 H 0.32964 0.83291 0.38747 0.0
H830 H 0.33948 0.89568 0.36194 0.0
C831 C 0.39367 0.94072 0.44536 0.0
C832 C 0.35876 0.88261 0.44217 0.0
C833 C 0.41309 0.95671 0.45724 0.0
C834 C 0.3054 0.82059 0.35178 0.0
C835 C 0.31818 0.83521 0.37441 0.0
C836 C 0.34429 0.89179 0.38473 0.0
C837 C 0.38951 0.92019 0.4436 0.0
C838 C 0.36953 0.90342 0.42895 0.0
C839 C 0.31754 0.85346 0.37786 0.0
C840 C 0.33407 0.87083 0.39718 0.0
H841 H 0.43644 0.92849 0.47401 0.0
H842 H 0.4026 0.90047 0.45311 0.0
H843 H 0.36981 0.92365 0.38933 0.0
H844 H 0.27948 0.84413 0.32206 0.0
H845 H 0.3015 0.86961 0.36221 0.0
C846 C 0.51079 0.42943 0.91966 0.0
C847 C 0.49586 0.42487 0.94487 0.0
C848 C 0.51129 0.41329 0.90493 0.0
C849 C 0.49182 0.35618 0.91328 0.0
H850 H 0.50154 0.36362 0.81965 0.0
C851 C 0.47164 0.29015 0.82396 0.0
C852 C 0.48559 0.29584 0.79689 0.0
C853 C 0.47548 0.30495 0.8469 0.0
C854 C 0.49915 0.36141 0.84587 0.0
H855 H 0.47001 0.39992 0.97498 0.0
H856 H 0.47034 0.3715 0.94847 0.0
H857 H 0.50246 0.39124 0.84937 0.0
H858 H 0.51523 0.32056 0.77367 0.0
H859 H 0.52225 0.34626 0.81399 0.0
H860 H 0.48768 0.32579 0.9091 0.0
C861 C 0.48199 0.3876 0.94051 0.0
C862 C 0.4997 0.3773 0.86299 0.0
C863 C 0.4817 0.40383 0.95558 0.0
C864 C 0.50434 0.31585 0.79451 0.0
C865 C 0.50821 0.33057 0.81737 0.0
C866 C 0.49107 0.34011 0.89599 0.0
C867 C 0.49664 0.39213 0.9147 0.0
C868 C 0.49614 0.37499 0.89693 0.0
C869 C 0.49329 0.32562 0.84288 0.0
C870 C 0.49485 0.34265 0.8621 0.0
H871 H 0.5222 0.44556 0.91142 0.0
H872 H 0.52317 0.41745 0.88575 0.0
H873 H 0.48918 0.35393 0.93944 0.0
H874 H 0.45693 0.27486 0.82592 0.0
H875 H 0.46368 0.30072 0.86625 0.0
C876 C 0.09204 0.49218 0.45199 0.0
C877 C 0.07057 0.48149 0.44247 0.0
C878 C 0.10686 0.48854 0.43719 0.0
C879 C 0.1114 0.45075 0.38809 0.0
H880 H 0.16498 0.49967 0.35623 0.0
C881 C 0.16135 0.44883 0.2823 0.0
C882 C 0.18355 0.46338 0.28012 0.0
C883 C 0.14903 0.44878 0.30822 0.0
C884 C 0.15036 0.48577 0.36556 0.0
H885 H 0.04771 0.45808 0.41074 0.0
H886 H 0.07355 0.45178 0.38485 0.0
H887 H 0.14052 0.50416 0.38972 0.0
H888 H 0.21051 0.48812 0.30488 0.0
H889 H 0.18909 0.48764 0.35079 0.0
H890 H 0.12105 0.43234 0.36354 0.0
C891 C 0.07893 0.46294 0.40381 0.0
C892 C 0.13627 0.48838 0.3847 0.0
C893 C 0.06417 0.46672 0.41838 0.0
C894 C 0.19344 0.47669 0.30589 0.0
C895 C 0.1811 0.47661 0.33195 0.0
C896 C 0.12556 0.44811 0.36915 0.0
C897 C 0.1005 0.47396 0.41279 0.0
C898 C 0.11641 0.47094 0.39553 0.0
C899 C 0.15863 0.46321 0.33278 0.0
C900 C 0.145 0.46563 0.35694 0.0
H901 H 0.0975 0.50375 0.47034 0.0
H902 H 0.12333 0.49719 0.44477 0.0
H903 H 0.09637 0.43697 0.39655 0.0
H904 H 0.1533 0.43822 0.26297 0.0
H905 H 0.13181 0.43828 0.30779 0.0
C906 C 0.59323 0.05554 0.94645 0.0
C907 C 0.57763 0.05954 0.957 0.0
C908 C 0.61264 0.07181 0.93247 0.0
C909 C 0.63685 0.12523 0.89249 0.0
H910 H 0.68923 0.12471 0.89856 0.0
C911 C 0.71329 0.18847 0.82382 0.0
C912 C 0.72095 0.17977 0.8022 0.0
C913 C 0.69908 0.17599 0.84943 0.0
C914 C 0.67474 0.1251 0.89685 0.0
H915 H 0.57017 0.08355 0.96253 0.0
H916 H 0.60438 0.11221 0.9395 0.0
H917 H 0.65741 0.09855 0.93048 0.0
H918 H 0.72137 0.15194 0.79185 0.0
H919 H 0.6969 0.13024 0.83699 0.0
H920 H 0.65418 0.15172 0.85882 0.0
C921 C 0.6015 0.09647 0.94087 0.0
C922 C 0.65643 0.11002 0.9149 0.0
C923 C 0.58197 0.08014 0.95432 0.0
C924 C 0.71569 0.15898 0.80829 0.0
C925 C 0.70172 0.1466 0.83413 0.0
C926 C 0.6552 0.14044 0.87488 0.0
C927 C 0.617 0.0925 0.92925 0.0
C928 C 0.6371 0.10962 0.91245 0.0
C929 C 0.69254 0.15471 0.85406 0.0
C930 C 0.67422 0.14032 0.87639 0.0
H931 H 0.59019 0.03974 0.94849 0.0
H932 H 0.62395 0.06799 0.92341 0.0
H933 H 0.62226 0.12527 0.88934 0.0
H934 H 0.71697 0.2044 0.81943 0.0
H935 H 0.69236 0.18267 0.86462 0.0
C936 C 0.50805 0.5801 0.46256 0.0
C937 C 0.52629 0.57884 0.46639 0.0
C938 C 0.50992 0.59867 0.45019 0.0
C939 C 0.54969 0.65583 0.43043 0.0
H940 H 0.50538 0.6497 0.37239 0.0
C941 C 0.55796 0.71861 0.33322 0.0
C942 C 0.53989 0.72006 0.32823 0.0
C943 C 0.55717 0.70394 0.35638 0.0
C944 C 0.51773 0.65172 0.38896 0.0
H945 H 0.56084 0.59602 0.4615 0.0
H946 H 0.5642 0.62823 0.43823 0.0
H947 H 0.50221 0.61869 0.39921 0.0
H948 H 0.50725 0.70824 0.34409 0.0
H949 H 0.50583 0.68264 0.38478 0.0
H950 H 0.56565 0.68899 0.41847 0.0
C951 C 0.54841 0.61511 0.44539 0.0
C952 C 0.5159 0.6339 0.40448 0.0
C953 C 0.54653 0.5966 0.45831 0.0
C954 C 0.52149 0.7076 0.34803 0.0
C955 C 0.52062 0.69284 0.37097 0.0
C956 C 0.55165 0.67369 0.41447 0.0
C957 C 0.5301 0.61635 0.44087 0.0
C958 C 0.53187 0.63563 0.42538 0.0
C959 C 0.53816 0.69028 0.37447 0.0
C960 C 0.53568 0.67179 0.39352 0.0
H961 H 0.49229 0.56663 0.46904 0.0
H962 H 0.49548 0.59909 0.4479 0.0
H963 H 0.56216 0.65789 0.44672 0.0
H964 H 0.57214 0.72777 0.31764 0.0
H965 H 0.57087 0.70222 0.35835 0.0
C966 C 0.47737 0.08177 0.53827 0.0
C967 C 0.4928 0.07728 0.54857 0.0
C968 C 0.47712 0.09881 0.55037 0.0
C969 C 0.49724 0.13375 0.62008 0.0
H970 H 0.47728 0.16514 0.57065 0.0
C971 C 0.49829 0.20225 0.67574 0.0
C972 C 0.47802 0.19974 0.67746 0.0
C973 C 0.50235 0.19081 0.65418 0.0
C974 C 0.48295 0.15651 0.58461 0.0
H975 H 0.52076 0.08757 0.57789 0.0
H976 H 0.52102 0.11775 0.5979 0.0
H977 H 0.4802 0.13797 0.54456 0.0
H978 H 0.44645 0.18442 0.65713 0.0
H979 H 0.45362 0.16454 0.61877 0.0
H980 H 0.50011 0.1523 0.65997 0.0
C981 C 0.5085 0.10775 0.58165 0.0
C982 C 0.48449 0.14085 0.56982 0.0
C983 C 0.50847 0.09053 0.57008 0.0
C984 C 0.46233 0.18686 0.65564 0.0
C985 C 0.46643 0.17547 0.63386 0.0
C986 C 0.49602 0.14954 0.6346 0.0
C987 C 0.49255 0.1119 0.57257 0.0
C988 C 0.49155 0.12917 0.58746 0.0
C989 C 0.48615 0.17662 0.63404 0.0
C990 C 0.48878 0.16103 0.61714 0.0
H991 H 0.46512 0.07172 0.52168 0.0
H992 H 0.46445 0.10131 0.54306 0.0
H993 H 0.50215 0.12478 0.63486 0.0
H994 H 0.51046 0.21187 0.69278 0.0
H995 H 0.51774 0.19211 0.65461 0.0
C996 C 0.41008 0.46368 0.03501 0.0
C997 C 0.42887 0.48358 0.03087 0.0
C998 C 0.39089 0.46171 0.0452 0.0
C999 C 0.36423 0.49197 0.05343 0.0
H1000 H 0.33126 0.45027 0.1229 0.0
C1001 C 0.3091 0.4993 0.14355 0.0
C1002 C 0.29104 0.48111 0.15742 0.0
C1003 C 0.32247 0.49782 0.12116 0.0
C1004 C 0.33995 0.46171 0.103 0.0
H1005 H 0.44249 0.51701 0.03316 0.0
H1006 H 0.40908 0.51372 0.05118 0.0
H1007 H 0.36165 0.4511 0.09756 0.0
H1008 H 0.27213 0.44718 0.15781 0.0
H1009 H 0.29542 0.44448 0.11813 0.0
H1010 H 0.34289 0.50298 0.05958 0.0
C1011 C 0.40897 0.49959 0.04633 0.0
C1012 C 0.35746 0.46222 0.0885 0.0
C1013 C 0.42813 0.50152 0.03624 0.0
C1014 C 0.28581 0.46142 0.14703 0.0
C1015 C 0.29931 0.45991 0.12469 0.0
C1016 C 0.34671 0.49145 0.06791 0.0
C1017 C 0.39013 0.47965 0.05124 0.0
C1018 C 0.37013 0.47767 0.06407 0.0
C1019 C 0.3182 0.47808 0.11235 0.0
C1020 C 0.33465 0.47663 0.09343 0.0
H1021 H 0.41034 0.44967 0.0307 0.0
H1022 H 0.37666 0.44615 0.04838 0.0
H1023 H 0.37338 0.50382 0.03422 0.0
H1024 H 0.31359 0.51463 0.15162 0.0
H1025 H 0.33696 0.51214 0.11253 0.0
C1026 C 0.92826 0.42363 0.53514 0.0
C1027 C 0.94907 0.42736 0.53481 0.0
C1028 C 0.91085 0.404 0.54568 0.0
C1029 C 0.89477 0.34839 0.56839 0.0
H1030 H 0.85067 0.34914 0.61888 0.0
C1031 C 0.83965 0.28697 0.66939 0.0
C1032 C 0.81841 0.282 0.67174 0.0
C1033 C 0.85355 0.30123 0.6449 0.0
C1034 C 0.86263 0.34859 0.60433 0.0
H1035 H 0.96808 0.41352 0.54409 0.0
H1036 H 0.93793 0.37954 0.56451 0.0
H1037 H 0.87925 0.3815 0.59247 0.0
H1038 H 0.79457 0.28693 0.64975 0.0
H1039 H 0.81897 0.31209 0.60693 0.0
H1040 H 0.87859 0.3155 0.58255 0.0
C1041 C 0.93479 0.39147 0.55578 0.0
C1042 C 0.87908 0.36719 0.58904 0.0
C1043 C 0.95215 0.411 0.54452 0.0
C1044 C 0.81082 0.29031 0.64799 0.0
C1045 C 0.8248 0.30481 0.62376 0.0
C1046 C 0.87847 0.32981 0.58427 0.0
C1047 C 0.91389 0.38774 0.55684 0.0
C1048 C 0.89555 0.36746 0.57111 0.0
C1049 C 0.8465 0.31102 0.62283 0.0
C1050 C 0.86235 0.3298 0.60261 0.0
H1051 H 0.92552 0.43601 0.5274 0.0
H1052 H 0.89501 0.40167 0.54526 0.0
H1053 H 0.90688 0.34781 0.55432 0.0
H1054 H 0.84586 0.28097 0.68788 0.0
H1055 H 0.87023 0.30587 0.64493 0.0
C1056 C 0.55257 0.95069 0.07154 0.0
C1057 C 0.53391 0.94337 0.05353 0.0
C1058 C 0.55782 0.93666 0.08532 0.0
C1059 C 0.54451 0.88116 0.08518 0.0
H1060 H 0.56615 0.89259 0.17263 0.0
C1061 C 0.54109 0.81938 0.17982 0.0
C1062 C 0.55745 0.82653 0.20258 0.0
C1063 C 0.54129 0.83335 0.15581 0.0
C1064 C 0.56051 0.8893 0.14798 0.0
H1065 H 0.50629 0.9156 0.03536 0.0
H1066 H 0.51512 0.89099 0.06007 0.0
H1067 H 0.56022 0.91757 0.14276 0.0
H1068 H 0.58783 0.85315 0.21623 0.0
H1069 H 0.5885 0.87739 0.17392 0.0
H1070 H 0.54409 0.85234 0.0913 0.0
C1071 C 0.526 0.90763 0.063 0.0
C1072 C 0.5571 0.90369 0.13077 0.0
C1073 C 0.52087 0.92172 0.04891 0.0
C1074 C 0.575 0.84729 0.19899 0.0
C1075 C 0.57526 0.8612 0.17499 0.0
C1076 C 0.54781 0.86663 0.10259 0.0
C1077 C 0.5444 0.91488 0.0818 0.0
C1078 C 0.54895 0.89982 0.09919 0.0
C1079 C 0.55788 0.85467 0.15422 0.0
C1080 C 0.55578 0.87052 0.13426 0.0
H1081 H 0.56311 0.96733 0.07504 0.0
H1082 H 0.57237 0.94291 0.09896 0.0
H1083 H 0.53847 0.87775 0.06077 0.0
H1084 H 0.52728 0.8035 0.18232 0.0
H1085 H 0.52765 0.82783 0.14023 0.0
C1086 C 0.60174 0.51665 0.56277 0.0
C1087 C 0.59243 0.52863 0.56752 0.0
C1088 C 0.6205 0.52131 0.57863 0.0
C1089 C 0.65105 0.54765 0.65103 0.0
H1090 H 0.69499 0.54079 0.61241 0.0
C1091 C 0.72344 0.56434 0.72475 0.0
C1092 C 0.72785 0.54825 0.72589 0.0
C1093 C 0.71057 0.56522 0.70056 0.0
C1094 C 0.68283 0.54274 0.62351 0.0
H1095 H 0.5961 0.55552 0.59129 0.0
H1096 H 0.62888 0.56382 0.6186 0.0
H1097 H 0.66493 0.53578 0.57971 0.0
H1098 H 0.72367 0.52143 0.70143 0.0
H1099 H 0.70095 0.52281 0.65909 0.0
H1100 H 0.66853 0.55423 0.69487 0.0
C1101 C 0.62144 0.55048 0.60331 0.0
C1102 C 0.66557 0.53981 0.60483 0.0
C1103 C 0.60264 0.54574 0.58765 0.0
C1104 C 0.72064 0.53409 0.70085 0.0
C1105 C 0.70759 0.53488 0.67668 0.0
C1106 C 0.66824 0.55063 0.66957 0.0
C1107 C 0.63043 0.53812 0.59946 0.0
C1108 C 0.64939 0.54211 0.61846 0.0
C1109 C 0.70163 0.54989 0.67718 0.0
C1110 C 0.68431 0.54813 0.65616 0.0
H1111 H 0.59415 0.50327 0.54759 0.0
H1112 H 0.6268 0.51129 0.5754 0.0
H1113 H 0.63868 0.54909 0.66263 0.0
H1114 H 0.72891 0.57548 0.74376 0.0
H1115 H 0.70673 0.5773 0.70117 0.0
C1116 C 0.0761 0.60989 0.05684 0.0
C1117 C 0.07462 0.59057 0.06239 0.0
C1118 C 0.09203 0.62785 0.0716 0.0
C1119 C 0.13092 0.64367 0.13928 0.0
H1120 H 0.15344 0.6996 0.09976 0.0
C1121 C 0.2008 0.71661 0.19402 0.0
C1122 C 0.19405 0.72942 0.20624 0.0
C1123 C 0.18856 0.70182 0.17125 0.0
C1124 C 0.14731 0.68404 0.11089 0.0
H1125 H 0.08894 0.57487 0.08639 0.0
H1126 H 0.11742 0.60623 0.11068 0.0
H1127 H 0.12755 0.6689 0.07055 0.0
H1128 H 0.17009 0.73783 0.20319 0.0
H1129 H 0.1491 0.71251 0.16205 0.0
H1130 H 0.15124 0.65895 0.17914 0.0
C1131 C 0.10585 0.60759 0.09626 0.0
C1132 C 0.13231 0.6664 0.09439 0.0
C1133 C 0.08963 0.58958 0.08215 0.0
C1134 C 0.17579 0.72838 0.19354 0.0
C1135 C 0.16378 0.71387 0.17021 0.0
C1136 C 0.14624 0.66123 0.15531 0.0
C1137 C 0.10713 0.62697 0.09167 0.0
C1138 C 0.12373 0.64592 0.10848 0.0
C1139 C 0.1696 0.69989 0.15996 0.0
C1140 C 0.15446 0.68154 0.1414 0.0
H1141 H 0.0646 0.61096 0.04173 0.0
H1142 H 0.09212 0.64226 0.06779 0.0
H1143 H 0.12441 0.62837 0.15156 0.0
H1144 H 0.21456 0.71686 0.20404 0.0
H1145 H 0.19329 0.69114 0.16373 0.0
loop_
_geom_bond_atom_site_label_1
_geom_bond_atom_site_label_2
_geom_bond_distance
_geom_bond_site_symmetry_2
_ccdc_geom_bond_type
C0 C1 1.443 1_556 S
C0 N4 1.376 1_556 S
C0 C38 1.389 . S
C1 C0 1.443 1_554 S
C1 C2 1.340 . S
C1 H41 0.951 . S
C2 C1 1.340 . S
C2 C3 1.439 . S
C2 H42 0.950 . S
C3 C2 1.439 . S
C3 N4 1.374 . S
C3 C37 1.395 . S
N4 C0 1.376 1_554 S
N4 C3 1.374 . S
N4 Co5 2.008 1_655 S
Co5 N4 2.008 1_455 S
Co5 N6 1.995 . S
Co5 N11 2.008 1_554 S
Co5 N16 1.995 1_554 S
Co5 N21 2.282 . S
Co5 N27 2.282 1_454 S
N6 Co5 1.995 . S
N6 C7 1.376 1_455 S
N6 C10 1.383 . S
C7 N6 1.376 1_655 S
C7 C8 1.446 . S
C7 C37 1.391 . S
C8 C7 1.446 . S
C8 C9 1.339 1_655 S
C8 H43 0.949 . S
C9 C8 1.339 1_455 S
C9 C10 1.439 . S
C9 H44 0.950 . S
C10 N6 1.383 . S
C10 C9 1.439 . S
C10 C39 1.392 . S
N11 Co5 2.008 1_556 S
N11 C12 1.376 1_556 S
N11 C15 1.374 . S
C12 N11 1.376 1_554 S
C12 C13 1.443 1_554 S
C12 C39 1.389 . S
C13 C12 1.443 1_556 S
C13 C14 1.340 . S
C13 H45 0.962 . S
C14 C13 1.340 . S
C14 C15 1.439 . S
C14 H46 0.950 . S
C15 N11 1.374 . S
C15 C14 1.439 . S
C15 C40 1.395 . S
N16 Co5 1.995 1_556 S
N16 C17 1.376 . S
N16 C20 1.383 1_455 S
C17 N16 1.376 . S
C17 C18 1.446 . S
C17 C40 1.391 . S
C18 C17 1.446 . S
C18 C19 1.339 1_455 S
C18 H47 0.949 . S
C19 C18 1.339 1_655 S
C19 C20 1.439 . S
C19 H48 0.950 . S
C20 N16 1.383 1_655 S
C20 C19 1.439 . S
C20 C38 1.392 . S
N21 Co5 2.282 . S
N21 C24 1.332 . S
N21 C26 1.332 . S
C22 C23 1.386 . S
C22 C25 1.388 . S
C23 C22 1.386 . S
C23 C24 1.382 . S
C23 H49 0.950 . S
C24 N21 1.332 . S
C24 C23 1.382 . S
C24 H35 0.952 1_554 S
C25 C22 1.388 . S
C25 C26 1.382 . S
C25 H50 0.950 . S
C26 N21 1.332 . S
C26 C25 1.382 . S
C26 H36 0.948 . S
N27 Co5 2.282 1_656 S
N27 C31 1.332 . S
N27 C32 1.332 . S
C28 C29 1.388 . S
C28 C32 1.382 . S
C28 H51 0.950 . S
C29 C28 1.388 . S
C29 C30 1.386 . S
C30 C29 1.386 . S
C30 C31 1.382 . S
C30 H52 0.950 . S
C31 N27 1.332 . S
C31 C30 1.382 . S
C31 H33 0.952 1_556 S
C32 N27 1.332 . S
C32 C28 1.382 . S
C32 H34 0.948 . S
H33 C31 0.952 1_554 S
H34 C32 0.948 . S
H35 C24 0.952 1_556 S
H36 C26 0.948 . S
C37 C3 1.395 . S
C37 C7 1.391 . S
C38 C0 1.389 . S
C38 C20 1.392 . S
C39 C10 1.392 . S
C39 C12 1.389 . S
C40 C15 1.395 . S
C40 C17 1.391 . S
H41 C1 0.951 . S
H42 C2 0.950 . S
H43 C8 0.949 . S
H44 C9 0.950 . S
H45 C13 0.962 . S
H46 C14 0.950 . S
H47 C18 0.949 . S
H48 C19 0.950 . S
H49 C23 0.950 . S
H50 C25 0.950 . S
H51 C28 0.950 . S
H52 C30 0.950 . S
C53 C54 1.443 . S
C53 N57 1.376 . S
C53 C91 1.389 . S
C54 C53 1.443 . S
C54 C55 1.332 1_545 S
C54 H94 0.951 . S
C55 C54 1.332 1_565 S
C55 C56 1.441 . S
C55 H95 0.955 . S
C56 C55 1.441 . S
C56 N57 1.374 1_565 S
C56 C90 1.395 . S
N57 C53 1.376 . S
N57 C56 1.374 1_545 S
N57 Co58 2.008 . S
Co58 N57 2.008 . S
Co58 N59 1.995 1_545 S
Co58 N64 2.008 . S
Co58 N69 1.995 . S
Co58 N74 2.282 1_545 S
Co58 N80 2.282 . S
N59 Co58 1.995 1_565 S
N59 C60 1.376 . S
N59 C63 1.383 . S
C60 N59 1.376 . S
C60 C61 1.446 . S
C60 C90 1.391 . S
C61 C60 1.446 . S
C61 C62 1.339 . S
C61 H96 0.949 . S
C62 C61 1.339 . S
C62 C63 1.439 . S
C62 H97 0.950 . S
C63 N59 1.383 . S
C63 C62 1.439 . S
C63 C92 1.392 . S
N64 Co58 2.008 . S
N64 C65 1.376 1_545 S
N64 C68 1.374 . S
C65 N64 1.376 1_565 S
C65 C66 1.443 . S
C65 C92 1.389 . S
C66 C65 1.443 . S
C66 C67 1.340 1_565 S
C66 H98 0.951 . S
C67 C66 1.340 1_545 S
C67 C68 1.439 . S
C67 H99 0.950 . S
C68 N64 1.374 . S
C68 C67 1.439 . S
C68 C93 1.395 . S
N69 Co58 1.995 . S
N69 C70 1.376 . S
N69 C73 1.383 . S
C70 N69 1.376 . S
C70 C71 1.446 . S
C70 C93 1.391 . S
C71 C70 1.446 . S
C71 C72 1.339 . S
C71 H100 0.949 . S
C72 C71 1.339 . S
C72 C73 1.439 . S
C72 H101 0.950 . S
C73 N69 1.383 . S
C73 C72 1.439 . S
C73 C91 1.392 . S
N74 Co58 2.282 1_565 S
N74 C77 1.332 . S
N74 C79 1.332 . S
C75 C76 1.386 . S
C75 C78 1.388 . S
C76 C75 1.386 . S
C76 C77 1.382 . S
C76 H102 0.950 . S
C77 N74 1.332 . S
C77 C76 1.382 . S
C77 H88 0.952 1_565 S
C78 C75 1.388 . S
C78 C79 1.382 . S
C78 H103 0.950 . S
C79 N74 1.332 . S
C79 C78 1.382 . S
C79 H89 0.948 . S
N80 Co58 2.282 . S
N80 C84 1.332 . S
N80 C85 1.332 . S
C81 C82 1.388 . S
C81 C85 1.382 . S
C81 H104 0.950 . S
C82 C81 1.388 . S
C82 C83 1.386 . S
C83 C82 1.386 . S
C83 C84 1.382 . S
C83 H105 0.950 . S
C84 N80 1.332 . S
C84 C83 1.382 . S
C84 H86 0.952 . S
C85 N80 1.332 . S
C85 C81 1.382 . S
C85 H87 0.948 . S
H86 C84 0.952 . S
H87 C85 0.948 . S
H88 C77 0.952 1_545 S
H89 C79 0.948 . S
C90 C56 1.395 . S
C90 C60 1.391 . S
C91 C53 1.389 . S
C91 C73 1.392 . S
C92 C63 1.392 . S
C92 C65 1.389 . S
C93 C68 1.395 . S
C93 C70 1.391 . S
H94 C54 0.951 . S
H95 C55 0.955 . S
H96 C61 0.949 . S
H97 C62 0.950 . S
H98 C66 0.951 . S
H99 C67 0.950 . S
H100 C71 0.949 . S
H101 C72 0.950 . S
H102 C76 0.950 . S
H103 C78 0.950 . S
H104 C81 0.950 . S
H105 C83 0.950 . S
C106 C107 1.443 . S
C106 N110 1.376 . S
C106 C144 1.389 . S
C107 C106 1.443 . S
C107 C108 1.340 . S
C107 H147 0.951 . S
C108 C107 1.340 . S
C108 C109 1.439 . S
C108 H148 0.950 . S
C109 C108 1.439 . S
C109 N110 1.374 . S
C109 C143 1.395 . S
N110 C106 1.376 . S
N110 C109 1.374 . S
N110 Co111 2.008 1_556 S
Co111 N110 2.008 1_554 S
Co111 N112 1.995 1_554 S
Co111 N117 2.008 . S
Co111 N122 1.995 . S
Co111 N127 2.282 . S
Co111 N133 2.282 1_554 S
N112 Co111 1.995 1_556 S
N112 C113 1.376 . S
N112 C116 1.383 1_556 S
C113 N112 1.376 . S
C113 C114 1.446 . S
C113 C143 1.391 . S
C114 C113 1.446 . S
C114 C115 1.339 . S
C114 H149 0.949 . S
C115 C114 1.339 . S
C115 C116 1.439 1_556 S
C115 H150 0.950 . S
C116 N112 1.383 1_554 S
C116 C115 1.439 1_554 S
C116 C145 1.392 . S
N117 Co111 2.008 . S
N117 C118 1.376 . S
N117 C121 1.374 . S
C118 N117 1.376 . S
C118 C119 1.443 . S
C118 C145 1.389 . S
C119 C118 1.443 . S
C119 C120 1.340 . S
C119 H151 0.951 . S
C120 C119 1.340 . S
C120 C121 1.439 . S
C120 H152 0.950 . S
C121 N117 1.374 . S
C121 C120 1.439 . S
C121 C146 1.395 . S
N122 Co111 1.995 . S
N122 C123 1.376 . S
N122 C126 1.383 1_554 S
C123 N122 1.376 . S
C123 C124 1.446 . S
C123 C146 1.391 . S
C124 C123 1.446 . S
C124 C125 1.339 . S
C124 H153 0.949 . S
C125 C124 1.339 . S
C125 C126 1.439 1_554 S
C125 H154 0.950 . S
C126 N122 1.383 1_556 S
C126 C125 1.439 1_556 S
C126 C144 1.392 . S
N127 Co111 2.282 . S
N127 C130 1.332 . S
N127 C132 1.332 . S
C128 C129 1.386 . S
C128 C131 1.388 . S
C129 C128 1.386 . S
C129 C130 1.382 . S
C129 H155 0.950 . S
C130 N127 1.332 . S
C130 C129 1.382 . S
C130 H141 0.952 . S
C131 C128 1.388 . S
C131 C132 1.382 . S
C131 H156 0.950 . S
C132 N127 1.332 . S
C132 C131 1.382 . S
C132 H142 0.948 1_554 S
N133 Co111 2.282 1_556 S
N133 C137 1.332 . S
N133 C138 1.332 . S
C134 C135 1.388 . S
C134 C138 1.382 . S
C134 H157 0.950 . S
C135 C134 1.388 . S
C135 C136 1.386 . S
C136 C135 1.386 . S
C136 C137 1.382 . S
C136 H158 0.950 . S
C137 N133 1.332 . S
C137 C136 1.382 . S
C137 H139 0.952 . S
C138 N133 1.332 . S
C138 C134 1.382 . S
C138 H140 0.948 1_556 S
H139 C137 0.952 . S
H140 C138 0.948 1_554 S
H141 C130 0.952 . S
H142 C132 0.948 1_556 S
C143 C109 1.395 . S
C143 C113 1.391 . S
C144 C106 1.389 . S
C144 C126 1.392 . S
C145 C116 1.392 . S
C145 C118 1.389 . S
C146 C121 1.395 . S
C146 C123 1.391 . S
H147 C107 0.951 . S
H148 C108 0.950 . S
H149 C114 0.949 . S
H150 C115 0.950 . S
H151 C119 0.951 . S
H152 C120 0.950 . S
H153 C124 0.949 . S
H154 C125 0.950 . S
H155 C129 0.950 . S
H156 C131 0.950 . S
H157 C134 0.950 . S
H158 C136 0.950 . S
C159 C160 1.443 . S
C159 N163 1.376 . S
C159 C197 1.389 . S
C160 C159 1.443 . S
C160 C161 1.340 . S
C160 H200 0.951 . S
C161 C160 1.340 . S
C161 C162 1.439 . S
C161 H201 0.950 . S
C162 C161 1.439 . S
C162 N163 1.374 . S
C162 C196 1.395 . S
N163 C159 1.376 . S
N163 C162 1.374 . S
N163 Co164 2.008 1_655 S
Co164 N163 2.008 1_455 S
Co164 N165 1.995 . S
Co164 N170 2.008 . S
Co164 N175 1.995 . S
Co164 N180 2.282 . S
Co164 N186 2.282 1_455 S
N165 Co164 1.995 . S
N165 C166 1.376 1_455 S
N165 C169 1.383 . S
C166 N165 1.376 1_655 S
C166 C167 1.446 . S
C166 C196 1.391 . S
C167 C166 1.446 . S
C167 C168 1.339 1_655 S
C167 H202 0.949 . S
C168 C167 1.339 1_455 S
C168 C169 1.439 . S
C168 H203 0.950 . S
C169 N165 1.383 . S
C169 C168 1.439 . S
C169 C198 1.392 . S
N170 Co164 2.008 . S
N170 C171 1.376 . S
N170 C174 1.374 . S
C171 N170 1.376 . S
C171 C172 1.443 . S
C171 C198 1.389 . S
C172 C171 1.443 . S
C172 C173 1.340 . S
C172 H204 0.951 . S
C173 C172 1.340 . S
C173 C174 1.439 . S
C173 H205 0.950 . S
C174 N170 1.374 . S
C174 C173 1.439 . S
C174 C199 1.395 . S
N175 Co164 1.995 . S
N175 C176 1.376 . S
N175 C179 1.383 1_455 S
C176 N175 1.376 . S
C176 C177 1.446 . S
C176 C199 1.391 . S
C177 C176 1.446 . S
C177 C178 1.339 1_455 S
C177 H206 0.949 . S
C178 C177 1.339 1_655 S
C178 C179 1.439 . S
C178 H207 0.950 . S
C179 N175 1.383 1_655 S
C179 C178 1.439 . S
C179 C197 1.392 . S
N180 Co164 2.282 . S
N180 C183 1.332 . S
N180 C185 1.332 . S
C181 C182 1.386 . S
C181 C184 1.388 . S
C182 C181 1.386 . S
C182 C183 1.382 . S
C182 H208 0.950 . S
C183 N180 1.332 . S
C183 C182 1.382 . S
C183 H194 0.952 . S
C184 C181 1.388 . S
C184 C185 1.382 . S
C184 H209 0.950 . S
C185 N180 1.332 . S
C185 C184 1.382 . S
C185 H195 0.948 . S
N186 Co164 2.282 1_655 S
N186 C190 1.332 . S
N186 C191 1.332 . S
C187 C188 1.388 . S
C187 C191 1.382 . S
C187 H210 0.950 . S
C188 C187 1.388 . S
C188 C189 1.386 . S
C189 C188 1.386 . S
C189 C190 1.382 . S
C189 H211 0.950 . S
C190 N186 1.332 . S
C190 C189 1.382 . S
C190 H192 0.952 . S
C191 N186 1.332 . S
C191 C187 1.382 . S
C191 H193 0.948 . S
H192 C190 0.952 . S
H193 C191 0.948 . S
H194 C183 0.952 . S
H195 C185 0.948 . S
C196 C162 1.395 . S
C196 C166 1.391 . S
C197 C159 1.389 . S
C197 C179 1.392 . S
C198 C169 1.392 . S
C198 C171 1.389 . S
C199 C174 1.395 . S
C199 C176 1.391 . S
H200 C160 0.951 . S
H201 C161 0.950 . S
H202 C167 0.949 . S
H203 C168 0.950 . S
H204 C172 0.951 . S
H205 C173 0.950 . S
H206 C177 0.949 . S
H207 C178 0.950 . S
H208 C182 0.950 . S
H209 C184 0.950 . S
H210 C187 0.950 . S
H211 C189 0.950 . S
C212 C213 1.443 . S
C212 N216 1.376 1_565 S
C212 C250 1.389 . S
C213 C212 1.443 . S
C213 C214 1.340 1_565 S
C213 H253 0.951 . S
C214 C213 1.340 1_545 S
C214 C215 1.439 . S
C214 H254 0.950 . S
C215 C214 1.439 . S
C215 N216 1.374 . S
C215 C249 1.395 . S
N216 C212 1.376 1_545 S
N216 C215 1.374 . S
N216 Co217 2.008 . S
Co217 N216 2.008 . S
Co217 N218 1.995 . S
Co217 N223 2.008 1_554 S
Co217 N228 1.995 1_544 S
Co217 N233 2.282 1_554 S
Co217 N239 2.282 1_545 S
N218 Co217 1.995 . S
N218 C219 1.376 . S
N218 C222 1.383 1_554 S
C219 N218 1.376 . S
C219 C220 1.446 . S
C219 C249 1.391 . S
C220 C219 1.446 . S
C220 C221 1.339 . S
C220 H255 0.949 . S
C221 C220 1.339 . S
C221 C222 1.439 1_554 S
C221 H256 0.953 . S
C222 N218 1.383 1_556 S
C222 C221 1.439 1_556 S
C222 C251 1.392 . S
N223 Co217 2.008 1_556 S
N223 C224 1.376 . S
N223 C227 1.374 1_545 S
C224 N223 1.376 . S
C224 C225 1.443 . S
C224 C251 1.389 . S
C225 C224 1.443 . S
C225 C226 1.340 . S
C225 H257 0.951 . S
C226 C225 1.340 . S
C226 C227 1.439 1_545 S
C226 H258 0.950 1_545 S
C227 N223 1.374 1_565 S
C227 C226 1.439 1_565 S
C227 C252 1.395 . S
N228 Co217 1.995 1_566 S
N228 C229 1.376 . S
N228 C232 1.383 1_556 S
C229 N228 1.376 . S
C229 C230 1.446 . S
C229 C252 1.391 . S
C230 C229 1.446 . S
C230 C231 1.339 . S
C230 H259 0.949 . S
C231 C230 1.339 . S
C231 C232 1.439 1_556 S
C231 H260 0.950 1_556 S
C232 N228 1.383 1_554 S
C232 C231 1.439 1_554 S
C232 C250 1.392 . S
N233 Co217 2.282 1_556 S
N233 C236 1.332 . S
N233 C238 1.332 . S
C234 C235 1.386 . S
C234 C237 1.388 . S
C235 C234 1.386 . S
C235 C236 1.382 . S
C235 H261 0.950 . S
C236 N233 1.332 . S
C236 C235 1.382 . S
C236 H247 0.952 . S
C237 C234 1.388 . S
C237 C238 1.382 . S
C237 H262 0.950 . S
C238 N233 1.332 . S
C238 C237 1.382 . S
C238 H248 0.948 1_556 S
N239 Co217 2.282 1_565 S
N239 C243 1.332 . S
N239 C244 1.332 . S
C240 C241 1.388 . S
C240 C244 1.382 . S
C240 H263 0.950 . S
C241 C240 1.388 . S
C241 C242 1.386 . S
C242 C241 1.386 . S
C242 C243 1.382 . S
C242 H264 0.950 . S
C243 N239 1.332 . S
C243 C242 1.382 . S
C243 H245 0.952 1_565 S
C244 N239 1.332 . S
C244 C240 1.382 . S
C244 H246 0.925 1_554 S
H245 C243 0.952 1_545 S
H246 C244 0.925 1_556 S
H247 C236 0.952 . S
H248 C238 0.948 1_554 S
C249 C215 1.395 . S
C249 C219 1.391 . S
C250 C212 1.389 . S
C250 C232 1.392 . S
C251 C222 1.392 . S
C251 C224 1.389 . S
C252 C227 1.395 . S
C252 C229 1.391 . S
H253 C213 0.951 . S
H254 C214 0.950 . S
H255 C220 0.949 . S
H256 C221 0.953 . S
H257 C225 0.951 . S
H258 C226 0.950 1_565 S
H259 C230 0.949 . S
H260 C231 0.950 1_554 S
H261 C235 0.950 . S
H262 C237 0.950 . S
H263 C240 0.950 . S
H264 C242 0.950 . S
C265 C266 1.443 . S
C265 N269 1.376 . S
C265 C303 1.389 . S
C266 C265 1.443 . S
C266 C267 1.340 . S
C266 H306 0.951 . S
C267 C266 1.340 . S
C267 C268 1.439 . S
C267 H307 0.950 . S
C268 C267 1.439 . S
C268 N269 1.374 . S
C268 C302 1.395 . S
N269 C265 1.376 . S
N269 C268 1.374 . S
N269 Co270 2.008 . S
Co270 N269 2.008 . S
Co270 N271 1.995 . S
Co270 N276 2.008 . S
Co270 N281 1.995 . S
Co270 N286 2.282 . S
Co270 N292 2.282 . S
N271 Co270 1.995 . S
N271 C272 1.376 . S
N271 C275 1.383 . S
C272 N271 1.376 . S
C272 C273 1.446 . S
C272 C302 1.391 . S
C273 C272 1.446 . S
C273 C274 1.339 . S
C273 H308 0.949 . S
C274 C273 1.339 . S
C274 C275 1.439 . S
C274 H309 0.950 . S
C275 N271 1.383 . S
C275 C274 1.439 . S
C275 C304 1.392 . S
N276 Co270 2.008 . S
N276 C277 1.376 . S
N276 C280 1.374 . S
C277 N276 1.376 . S
C277 C278 1.443 . S
C277 C304 1.389 . S
C278 C277 1.443 . S
C278 C279 1.340 . S
C278 H310 0.951 . S
C279 C278 1.340 . S
C279 C280 1.439 . S
C279 H311 0.950 . S
C280 N276 1.374 . S
C280 C279 1.439 . S
C280 C305 1.395 . S
N281 Co270 1.995 . S
N281 C282 1.376 . S
N281 C285 1.383 . S
C282 N281 1.376 . S
C282 C283 1.446 . S
C282 C305 1.391 . S
C283 C282 1.446 . S
C283 C284 1.339 . S
C283 H312 0.949 . S
C284 C283 1.339 . S
C284 C285 1.439 . S
C284 H313 0.950 . S
C285 N281 1.383 . S
C285 C284 1.439 . S
C285 C303 1.392 . S
N286 Co270 2.282 . S
N286 C289 1.332 . S
N286 C291 1.332 . S
C287 C288 1.386 . S
C287 C290 1.388 . S
C288 C287 1.386 . S
C288 C289 1.382 . S
C288 H314 0.950 . S
C289 N286 1.332 . S
C289 C288 1.382 . S
C289 H300 0.952 . S
C290 C287 1.388 . S
C290 C291 1.382 . S
C290 H315 0.950 . S
C291 N286 1.332 . S
C291 C290 1.382 . S
C291 H301 0.948 . S
N292 Co270 2.282 . S
N292 C296 1.332 . S
N292 C297 1.332 . S
C293 C294 1.388 . S
C293 C297 1.382 . S
C293 H316 0.950 . S
C294 C293 1.388 . S
C294 C295 1.386 . S
C295 C294 1.386 . S
C295 C296 1.382 . S
C295 H317 0.950 . S
C296 N292 1.332 . S
C296 C295 1.382 . S
C296 H298 0.952 . S
C297 N292 1.332 . S
C297 C293 1.382 . S
C297 H299 0.948 . S
H298 C296 0.952 . S
H299 C297 0.948 . S
H300 C289 0.952 . S
H301 C291 0.948 . S
C302 C268 1.395 . S
C302 C272 1.391 . S
C303 C265 1.389 . S
C303 C285 1.392 . S
C304 C275 1.392 . S
C304 C277 1.389 . S
C305 C280 1.395 . S
C305 C282 1.391 . S
H306 C266 0.951 . S
H307 C267 0.950 . S
H308 C273 0.949 . S
H309 C274 0.950 . S
H310 C278 0.951 . S
H311 C279 0.950 . S
H312 C283 0.949 . S
H313 C284 0.950 . S
H314 C288 0.950 . S
H315 C290 0.950 . S
H316 C293 0.950 . S
H317 C295 0.950 . S
H318 C324 0.930 . S
H319 C327 0.931 . S
H320 C329 0.931 . S
H321 C331 0.930 . S
H322 C333 0.930 . S
H323 C335 0.931 . S
C324 H318 0.930 . S
C324 C325 1.380 . S
C324 C326 1.394 . S
C325 C324 1.380 . S
C325 C329 1.382 . S
C326 C324 1.394 . S
C326 C327 1.400 . S
C327 H319 0.931 . S
C327 C326 1.400 . S
C327 C328 1.375 . S
C328 C327 1.375 . S
C328 C329 1.415 . S
C328 C330 1.501 . S
C329 H320 0.931 . S
C329 C325 1.382 . S
C329 C328 1.415 . S
C330 C328 1.501 . S
C330 C331 1.384 . S
C330 C335 1.408 . S
C331 H321 0.930 . S
C331 C330 1.384 . S
C331 C332 1.389 . S
C332 C331 1.389 . S
C332 C333 1.405 . S
C333 H322 0.930 . S
C333 C332 1.405 . S
C333 C334 1.364 . S
C334 C333 1.364 . S
C334 C335 1.400 . S
C335 H323 0.931 . S
C335 C330 1.408 . S
C335 C334 1.400 . S
H336 C342 0.930 . S
H337 C345 0.931 . S
H338 C347 0.931 . S
H339 C349 0.930 . S
H340 C351 0.930 . S
H341 C353 0.931 . S
C342 H336 0.930 . S
C342 C343 1.380 . S
C342 C344 1.394 . S
C343 C342 1.380 . S
C343 C347 1.382 . S
C344 C342 1.394 . S
C344 C345 1.400 . S
C345 H337 0.931 . S
C345 C344 1.400 . S
C345 C346 1.375 . S
C346 C345 1.375 . S
C346 C347 1.415 . S
C346 C348 1.501 . S
C347 H338 0.931 . S
C347 C343 1.382 . S
C347 C346 1.415 . S
C348 C346 1.501 . S
C348 C349 1.384 . S
C348 C353 1.408 . S
C349 H339 0.930 . S
C349 C348 1.384 . S
C349 C350 1.389 . S
C350 C349 1.389 . S
C350 C351 1.405 . S
C351 H340 0.930 . S
C351 C350 1.405 . S
C351 C352 1.364 . S
C352 C351 1.364 . S
C352 C353 1.400 . S
C353 H341 0.931 . S
C353 C348 1.408 . S
C353 C352 1.400 . S
H354 C360 0.930 . S
H355 C363 0.931 . S
H356 C365 0.931 . S
H357 C367 0.930 . S
H358 C369 0.930 . S
H359 C371 0.931 . S
C360 H354 0.930 . S
C360 C361 1.380 . S
C360 C362 1.394 . S
C361 C360 1.380 . S
C361 C365 1.382 . S
C362 C360 1.394 . S
C362 C363 1.400 . S
C363 H355 0.931 . S
C363 C362 1.400 . S
C363 C364 1.375 . S
C364 C363 1.375 . S
C364 C365 1.415 . S
C364 C366 1.501 . S
C365 H356 0.931 . S
C365 C361 1.382 . S
C365 C364 1.415 . S
C366 C364 1.501 . S
C366 C367 1.384 . S
C366 C371 1.408 . S
C367 H357 0.930 . S
C367 C366 1.384 . S
C367 C368 1.389 . S
C368 C367 1.389 . S
C368 C369 1.405 . S
C369 H358 0.930 . S
C369 C368 1.405 . S
C369 C370 1.364 . S
C370 C369 1.364 . S
C370 C371 1.400 . S
C371 H359 0.931 . S
C371 C366 1.408 . S
C371 C370 1.400 . S
H372 C378 0.930 . S
H373 C381 0.931 . S
H374 C383 0.931 . S
H375 C385 0.930 . S
H376 C387 0.930 . S
H377 C389 0.931 . S
C378 H372 0.930 . S
C378 C379 1.380 . S
C378 C380 1.394 . S
C379 C378 1.380 . S
C379 C383 1.382 . S
C380 C378 1.394 . S
C380 C381 1.400 . S
C381 H373 0.931 . S
C381 C380 1.400 . S
C381 C382 1.375 . S
C382 C381 1.375 . S
C382 C383 1.415 . S
C382 C384 1.501 . S
C383 H374 0.931 . S
C383 C379 1.382 . S
C383 C382 1.415 . S
C384 C382 1.501 . S
C384 C385 1.384 . S
C384 C389 1.408 . S
C385 H375 0.930 . S
C385 C384 1.384 . S
C385 C386 1.389 . S
C386 C385 1.389 . S
C386 C387 1.405 . S
C387 H376 0.930 . S
C387 C386 1.405 . S
C387 C388 1.364 . S
C388 C387 1.364 . S
C388 C389 1.400 . S
C389 H377 0.931 . S
C389 C384 1.408 . S
C389 C388 1.400 . S
H390 C396 0.930 . S
H391 C399 0.931 . S
H392 C401 0.931 . S
H393 C403 0.930 . S
H394 C405 0.930 . S
H395 C407 0.931 . S
C396 H390 0.930 . S
C396 C397 1.380 . S
C396 C398 1.394 . S
C397 C396 1.380 . S
C397 C401 1.382 . S
C398 C396 1.394 . S
C398 C399 1.400 . S
C399 H391 0.931 . S
C399 C398 1.400 . S
C399 C400 1.375 . S
C400 C399 1.375 . S
C400 C401 1.415 . S
C400 C402 1.501 . S
C401 H392 0.931 . S
C401 C397 1.382 . S
C401 C400 1.415 . S
C402 C400 1.501 . S
C402 C403 1.384 . S
C402 C407 1.408 . S
C403 H393 0.930 . S
C403 C402 1.384 . S
C403 C404 1.389 . S
C404 C403 1.389 . S
C404 C405 1.405 . S
C405 H394 0.930 . S
C405 C404 1.405 . S
C405 C406 1.364 . S
C406 C405 1.364 . S
C406 C407 1.400 . S
C407 H395 0.931 . S
C407 C402 1.408 . S
C407 C406 1.400 . S
H408 C414 0.930 . S
H409 C417 0.931 . S
H410 C419 0.931 . S
H411 C421 0.930 . S
H412 C423 0.930 . S
H413 C425 0.931 . S
C414 H408 0.930 . S
C414 C415 1.380 . S
C414 C416 1.394 . S
C415 C414 1.380 . S
C415 C419 1.382 . S
C416 C414 1.394 . S
C416 C417 1.400 . S
C417 H409 0.931 . S
C417 C416 1.400 . S
C417 C418 1.375 . S
C418 C417 1.375 . S
C418 C419 1.415 . S
C418 C420 1.501 . S
C419 H410 0.931 . S
C419 C415 1.382 . S
C419 C418 1.415 . S
C420 C418 1.501 . S
C420 C421 1.384 . S
C420 C425 1.408 . S
C421 H411 0.930 . S
C421 C420 1.384 . S
C421 C422 1.389 . S
C422 C421 1.389 . S
C422 C423 1.405 . S
C423 H412 0.930 . S
C423 C422 1.405 . S
C423 C424 1.364 . S
C424 C423 1.364 . S
C424 C425 1.400 . S
C425 H413 0.931 . S
C425 C420 1.408 . S
C425 C424 1.400 . S
C426 C427 1.349 . S
C426 C428 1.327 . S
C426 H451 0.950 . S
C427 C426 1.349 . S
C427 C443 1.349 . S
C428 C426 1.327 . S
C428 C447 1.429 . S
C428 H452 0.950 . S
C429 C446 1.574 . S
C429 C448 1.368 . S
C429 H453 0.949 . S
H430 C434 0.949 . S
C431 C432 1.349 . S
C431 C433 1.327 . S
C431 H454 0.950 . S
C432 C431 1.349 . S
C432 C444 1.349 . S
C433 C431 1.327 . S
C433 C449 1.429 . S
C433 H455 0.950 . S
C434 H430 0.949 . S
C434 C442 1.574 . S
C434 C450 1.368 . S
H435 C443 0.950 . S
H436 C441 0.950 . S
H437 C442 0.949 . S
H438 C444 0.950 . S
H439 C445 0.950 . S
H440 C446 0.949 . S
C441 H436 0.950 . S
C441 C443 1.327 . S
C441 C447 1.429 . S
C442 C434 1.574 . S
C442 H437 0.949 . S
C442 C448 1.368 . S
C443 C427 1.349 . S
C443 H435 0.950 . S
C443 C441 1.327 . S
C444 C432 1.349 . S
C444 H438 0.950 . S
C444 C445 1.327 . S
C445 H439 0.950 . S
C445 C444 1.327 . S
C445 C449 1.429 . S
C446 C429 1.574 . S
C446 H440 0.949 . S
C446 C450 1.368 . S
C447 C428 1.429 . S
C447 C441 1.429 . S
C447 C448 1.523 . S
C448 C429 1.368 . S
C448 C442 1.368 . S
C448 C447 1.523 . S
C449 C433 1.429 . S
C449 C445 1.429 . S
C449 C450 1.523 . S
C450 C434 1.368 . S
C450 C446 1.368 . S
C450 C449 1.523 . S
H451 C426 0.950 . S
H452 C428 0.950 . S
H453 C429 0.949 . S
H454 C431 0.950 . S
H455 C433 0.950 . S
C456 C457 1.349 . S
C456 C458 1.327 . S
C456 H481 0.950 . S
C457 C456 1.349 . S
C457 C473 1.349 . S
C458 C456 1.327 . S
C458 C477 1.429 . S
C458 H482 0.950 . S
C459 C476 1.574 . S
C459 C478 1.368 . S
C459 H483 0.949 . S
H460 C464 0.949 . S
C461 C462 1.349 . S
C461 C463 1.327 . S
C461 H484 0.950 . S
C462 C461 1.349 . S
C462 C474 1.349 . S
C463 C461 1.327 . S
C463 C479 1.429 . S
C463 H485 0.950 . S
C464 H460 0.949 . S
C464 C472 1.574 . S
C464 C480 1.368 . S
H465 C473 0.950 . S
H466 C471 0.950 . S
H467 C472 0.949 . S
H468 C474 0.950 . S
H469 C475 0.950 . S
H470 C476 0.949 . S
C471 H466 0.950 . S
C471 C473 1.327 . S
C471 C477 1.429 . S
C472 C464 1.574 . S
C472 H467 0.949 . S
C472 C478 1.368 . S
C473 C457 1.349 . S
C473 H465 0.950 . S
C473 C471 1.327 . S
C474 C462 1.349 . S
C474 H468 0.950 . S
C474 C475 1.327 . S
C475 H469 0.950 . S
C475 C474 1.327 . S
C475 C479 1.429 . S
C476 C459 1.574 . S
C476 H470 0.949 . S
C476 C480 1.368 . S
C477 C458 1.429 . S
C477 C471 1.429 . S
C477 C478 1.523 . S
C478 C459 1.368 . S
C478 C472 1.368 . S
C478 C477 1.523 . S
C479 C463 1.429 . S
C479 C475 1.429 . S
C479 C480 1.523 . S
C480 C464 1.368 . S
C480 C476 1.368 . S
C480 C479 1.523 . S
H481 C456 0.950 . S
H482 C458 0.950 . S
H483 C459 0.949 . S
H484 C461 0.950 . S
H485 C463 0.950 . S
C486 C487 1.349 . S
C486 C488 1.327 . S
C486 H511 0.950 . S
C487 C486 1.349 . S
C487 C503 1.349 . S
C488 C486 1.327 . S
C488 C507 1.429 . S
C488 H512 0.950 . S
C489 C506 1.574 . S
C489 C508 1.368 . S
C489 H513 0.949 . S
H490 C494 0.949 . S
C491 C492 1.349 . S
C491 C493 1.327 . S
C491 H514 0.950 . S
C492 C491 1.349 . S
C492 C504 1.349 . S
C493 C491 1.327 . S
C493 C509 1.429 . S
C493 H515 0.950 . S
C494 H490 0.949 . S
C494 C502 1.574 . S
C494 C510 1.368 . S
H495 C503 0.950 . S
H496 C501 0.950 . S
H497 C502 0.949 . S
H498 C504 0.950 . S
H499 C505 0.950 . S
H500 C506 0.949 . S
C501 H496 0.950 . S
C501 C503 1.327 . S
C501 C507 1.429 . S
C502 C494 1.574 . S
C502 H497 0.949 . S
C502 C508 1.368 . S
C503 C487 1.349 . S
C503 H495 0.950 . S
C503 C501 1.327 . S
C504 C492 1.349 . S
C504 H498 0.950 . S
C504 C505 1.327 . S
C505 H499 0.950 . S
C505 C504 1.327 . S
C505 C509 1.429 . S
C506 C489 1.574 . S
C506 H500 0.949 . S
C506 C510 1.368 . S
C507 C488 1.429 . S
C507 C501 1.429 . S
C507 C508 1.523 . S
C508 C489 1.368 . S
C508 C502 1.368 . S
C508 C507 1.523 . S
C509 C493 1.429 . S
C509 C505 1.429 . S
C509 C510 1.523 . S
C510 C494 1.368 . S
C510 C506 1.368 . S
C510 C509 1.523 . S
H511 C486 0.950 . S
H512 C488 0.950 . S
H513 C489 0.949 . S
H514 C491 0.950 . S
H515 C493 0.950 . S
C516 C517 1.349 . S
C516 C518 1.327 . S
C516 H541 0.950 . S
C517 C516 1.349 . S
C517 C533 1.349 . S
C518 C516 1.327 . S
C518 C537 1.429 . S
C518 H542 0.950 . S
C519 C536 1.574 . S
C519 C538 1.368 . S
C519 H543 0.949 . S
H520 C524 0.949 . S
C521 C522 1.349 . S
C521 C523 1.327 . S
C521 H544 0.950 . S
C522 C521 1.349 . S
C522 C534 1.349 . S
C523 C521 1.327 . S
C523 C539 1.429 . S
C523 H545 0.950 . S
C524 H520 0.949 . S
C524 C532 1.574 . S
C524 C540 1.368 . S
H525 C533 0.950 . S
H526 C531 0.950 . S
H527 C532 0.949 . S
H528 C534 0.950 . S
H529 C535 0.950 . S
H530 C536 0.949 . S
C531 H526 0.950 . S
C531 C533 1.327 . S
C531 C537 1.429 . S
C532 C524 1.574 . S
C532 H527 0.949 . S
C532 C538 1.368 . S
C533 C517 1.349 . S
C533 H525 0.950 . S
C533 C531 1.327 . S
C534 C522 1.349 . S
C534 H528 0.950 . S
C534 C535 1.327 . S
C535 H529 0.950 . S
C535 C534 1.327 . S
C535 C539 1.429 . S
C536 C519 1.574 . S
C536 H530 0.949 . S
C536 C540 1.368 . S
C537 C518 1.429 . S
C537 C531 1.429 . S
C537 C538 1.523 . S
C538 C519 1.368 . S
C538 C532 1.368 . S
C538 C537 1.523 . S
C539 C523 1.429 . S
C539 C535 1.429 . S
C539 C540 1.523 . S
C540 C524 1.368 . S
C540 C536 1.368 . S
C540 C539 1.523 . S
H541 C516 0.950 . S
H542 C518 0.950 . S
H543 C519 0.949 . S
H544 C521 0.950 . S
H545 C523 0.950 . S
C546 C547 1.349 . S
C546 C548 1.327 . S
C546 H571 0.950 . S
C547 C546 1.349 . S
C547 C563 1.349 . S
C548 C546 1.327 . S
C548 C567 1.429 . S
C548 H572 0.950 . S
C549 C566 1.574 . S
C549 C568 1.368 . S
C549 H573 0.949 . S
H550 C554 0.949 . S
C551 C552 1.349 . S
C551 C553 1.327 . S
C551 H574 0.950 . S
C552 C551 1.349 . S
C552 C564 1.349 . S
C553 C551 1.327 . S
C553 C569 1.429 . S
C553 H575 0.950 . S
C554 H550 0.949 . S
C554 C562 1.574 . S
C554 C570 1.368 . S
H555 C563 0.950 . S
H556 C561 0.950 . S
H557 C562 0.949 . S
H558 C564 0.950 . S
H559 C565 0.950 . S
H560 C566 0.949 . S
C561 H556 0.950 . S
C561 C563 1.327 . S
C561 C567 1.429 . S
C562 C554 1.574 . S
C562 H557 0.949 . S
C562 C568 1.368 . S
C563 C547 1.349 . S
C563 H555 0.950 . S
C563 C561 1.327 . S
C564 C552 1.349 . S
C564 H558 0.950 . S
C564 C565 1.327 . S
C565 H559 0.950 . S
C565 C564 1.327 . S
C565 C569 1.429 . S
C566 C549 1.574 . S
C566 H560 0.949 . S
C566 C570 1.368 . S
C567 C548 1.429 . S
C567 C561 1.429 . S
C567 C568 1.523 . S
C568 C549 1.368 . S
C568 C562 1.368 . S
C568 C567 1.523 . S
C569 C553 1.429 . S
C569 C565 1.429 . S
C569 C570 1.523 . S
C570 C554 1.368 . S
C570 C566 1.368 . S
C570 C569 1.523 . S
H571 C546 0.950 . S
H572 C548 0.950 . S
H573 C549 0.949 . S
H574 C551 0.950 . S
H575 C553 0.950 . S
C576 C577 1.349 . S
C576 C578 1.327 . S
C576 H601 0.950 . S
C577 C576 1.349 . S
C577 C593 1.349 . S
C578 C576 1.327 . S
C578 C597 1.429 . S
C578 H602 0.950 . S
C579 C596 1.574 . S
C579 C598 1.368 . S
C579 H603 0.949 . S
H580 C584 0.949 . S
C581 C582 1.349 . S
C581 C583 1.327 . S
C581 H604 0.950 . S
C582 C581 1.349 . S
C582 C594 1.349 . S
C583 C581 1.327 . S
C583 C599 1.429 . S
C583 H605 0.950 . S
C584 H580 0.949 . S
C584 C592 1.574 . S
C584 C600 1.368 . S
H585 C593 0.950 . S
H586 C591 0.950 . S
H587 C592 0.949 . S
H588 C594 0.950 . S
H589 C595 0.950 . S
H590 C596 0.949 . S
C591 H586 0.950 . S
C591 C593 1.327 . S
C591 C597 1.429 . S
C592 C584 1.574 . S
C592 H587 0.949 . S
C592 C598 1.368 . S
C593 C577 1.349 . S
C593 H585 0.950 . S
C593 C591 1.327 . S
C594 C582 1.349 . S
C594 H588 0.950 . S
C594 C595 1.327 . S
C595 H589 0.950 . S
C595 C594 1.327 . S
C595 C599 1.429 . S
C596 C579 1.574 . S
C596 H590 0.949 . S
C596 C600 1.368 . S
C597 C578 1.429 . S
C597 C591 1.429 . S
C597 C598 1.523 . S
C598 C579 1.368 . S
C598 C592 1.368 . S
C598 C597 1.523 . S
C599 C583 1.429 . S
C599 C595 1.429 . S
C599 C600 1.523 . S
C600 C584 1.368 . S
C600 C596 1.368 . S
C600 C599 1.523 . S
H601 C576 0.950 . S
H602 C578 0.950 . S
H603 C579 0.949 . S
H604 C581 0.950 . S
H605 C583 0.950 . S
C606 C607 1.349 . S
C606 C608 1.327 . S
C606 H631 0.950 . S
C607 C606 1.349 . S
C607 C623 1.349 . S
C608 C606 1.327 . S
C608 C627 1.429 . S
C608 H632 0.950 . S
C609 C626 1.574 . S
C609 C628 1.368 . S
C609 H633 0.949 . S
H610 C614 0.949 . S
C611 C612 1.349 . S
C611 C613 1.327 . S
C611 H634 0.950 . S
C612 C611 1.349 . S
C612 C624 1.349 . S
C613 C611 1.327 . S
C613 C629 1.429 . S
C613 H635 0.950 . S
C614 H610 0.949 . S
C614 C622 1.574 . S
C614 C630 1.368 . S
H615 C623 0.950 . S
H616 C621 0.950 . S
H617 C622 0.949 . S
H618 C624 0.950 . S
H619 C625 0.950 . S
H620 C626 0.949 . S
C621 H616 0.950 . S
C621 C623 1.327 . S
C621 C627 1.429 . S
C622 C614 1.574 . S
C622 H617 0.949 . S
C622 C628 1.368 . S
C623 C607 1.349 . S
C623 H615 0.950 . S
C623 C621 1.327 . S
C624 C612 1.349 . S
C624 H618 0.950 . S
C624 C625 1.327 . S
C625 H619 0.950 . S
C625 C624 1.327 . S
C625 C629 1.429 . S
C626 C609 1.574 . S
C626 H620 0.949 . S
C626 C630 1.368 . S
C627 C608 1.429 . S
C627 C621 1.429 . S
C627 C628 1.523 . S
C628 C609 1.368 . S
C628 C622 1.368 . S
C628 C627 1.523 . S
C629 C613 1.429 . S
C629 C625 1.429 . S
C629 C630 1.523 . S
C630 C614 1.368 . S
C630 C626 1.368 . S
C630 C629 1.523 . S
H631 C606 0.950 . S
H632 C608 0.950 . S
H633 C609 0.949 . S
H634 C611 0.950 . S
H635 C613 0.950 . S
C636 C637 1.349 . S
C636 C638 1.327 . S
C636 H661 0.950 . S
C637 C636 1.349 . S
C637 C653 1.349 . S
C638 C636 1.327 . S
C638 C657 1.429 . S
C638 H662 0.950 . S
C639 C656 1.574 . S
C639 C658 1.368 . S
C639 H663 0.949 . S
H640 C644 0.949 . S
C641 C642 1.349 . S
C641 C643 1.327 . S
C641 H664 0.950 . S
C642 C641 1.349 . S
C642 C654 1.349 . S
C643 C641 1.327 . S
C643 C659 1.429 . S
C643 H665 0.950 . S
C644 H640 0.949 . S
C644 C652 1.574 . S
C644 C660 1.368 . S
H645 C653 0.950 . S
H646 C651 0.950 . S
H647 C652 0.949 . S
H648 C654 0.950 . S
H649 C655 0.950 . S
H650 C656 0.949 . S
C651 H646 0.950 . S
C651 C653 1.327 . S
C651 C657 1.429 . S
C652 C644 1.574 . S
C652 H647 0.949 . S
C652 C658 1.368 . S
C653 C637 1.349 . S
C653 H645 0.950 . S
C653 C651 1.327 . S
C654 C642 1.349 . S
C654 H648 0.950 . S
C654 C655 1.327 . S
C655 H649 0.950 . S
C655 C654 1.327 . S
C655 C659 1.429 . S
C656 C639 1.574 . S
C656 H650 0.949 . S
C656 C660 1.368 . S
C657 C638 1.429 . S
C657 C651 1.429 . S
C657 C658 1.523 . S
C658 C639 1.368 . S
C658 C652 1.368 . S
C658 C657 1.523 . S
C659 C643 1.429 . S
C659 C655 1.429 . S
C659 C660 1.523 . S
C660 C644 1.368 . S
C660 C656 1.368 . S
C660 C659 1.523 . S
H661 C636 0.950 . S
H662 C638 0.950 . S
H663 C639 0.949 . S
H664 C641 0.950 . S
H665 C643 0.950 . S
C666 C667 1.349 . S
C666 C668 1.327 . S
C666 H691 0.950 . S
C667 C666 1.349 . S
C667 C683 1.349 . S
C668 C666 1.327 . S
C668 C687 1.429 . S
C668 H692 0.950 . S
C669 C686 1.574 . S
C669 C688 1.368 . S
C669 H693 0.949 . S
H670 C674 0.949 . S
C671 C672 1.349 . S
C671 C673 1.327 . S
C671 H694 0.950 . S
C672 C671 1.349 . S
C672 C684 1.349 . S
C673 C671 1.327 . S
C673 C689 1.429 . S
C673 H695 0.950 . S
C674 H670 0.949 . S
C674 C682 1.574 . S
C674 C690 1.368 . S
H675 C683 0.950 . S
H676 C681 0.950 . S
H677 C682 0.949 . S
H678 C684 0.950 . S
H679 C685 0.950 . S
H680 C686 0.949 . S
C681 H676 0.950 . S
C681 C683 1.327 . S
C681 C687 1.429 . S
C682 C674 1.574 . S
C682 H677 0.949 . S
C682 C688 1.368 . S
C683 C667 1.349 . S
C683 H675 0.950 . S
C683 C681 1.327 . S
C684 C672 1.349 . S
C684 H678 0.950 . S
C684 C685 1.327 . S
C685 H679 0.950 . S
C685 C684 1.327 . S
C685 C689 1.429 . S
C686 C669 1.574 . S
C686 H680 0.949 . S
C686 C690 1.368 . S
C687 C668 1.429 . S
C687 C681 1.429 . S
C687 C688 1.523 . S
C688 C669 1.368 . S
C688 C682 1.368 . S
C688 C687 1.523 . S
C689 C673 1.429 . S
C689 C685 1.429 . S
C689 C690 1.523 . S
C690 C674 1.368 . S
C690 C686 1.368 . S
C690 C689 1.523 . S
H691 C666 0.950 . S
H692 C668 0.950 . S
H693 C669 0.949 . S
H694 C671 0.950 . S
H695 C673 0.950 . S
C696 C697 1.349 . S
C696 C698 1.327 . S
C696 H721 0.950 . S
C697 C696 1.349 . S
C697 C713 1.349 . S
C698 C696 1.327 . S
C698 C717 1.429 . S
C698 H722 0.950 . S
C699 C716 1.574 . S
C699 C718 1.368 . S
C699 H723 0.949 . S
H700 C704 0.949 . S
C701 C702 1.349 . S
C701 C703 1.327 . S
C701 H724 0.950 . S
C702 C701 1.349 . S
C702 C714 1.349 . S
C703 C701 1.327 . S
C703 C719 1.429 . S
C703 H725 0.950 . S
C704 H700 0.949 . S
C704 C712 1.574 . S
C704 C720 1.368 . S
H705 C713 0.950 . S
H706 C711 0.950 . S
H707 C712 0.949 . S
H708 C714 0.950 . S
H709 C715 0.950 . S
H710 C716 0.949 . S
C711 H706 0.950 . S
C711 C713 1.327 . S
C711 C717 1.429 . S
C712 C704 1.574 . S
C712 H707 0.949 . S
C712 C718 1.368 . S
C713 C697 1.349 . S
C713 H705 0.950 . S
C713 C711 1.327 . S
C714 C702 1.349 . S
C714 H708 0.950 . S
C714 C715 1.327 . S
C715 H709 0.950 . S
C715 C714 1.327 . S
C715 C719 1.429 . S
C716 C699 1.574 . S
C716 H710 0.949 . S
C716 C720 1.368 . S
C717 C698 1.429 . S
C717 C711 1.429 . S
C717 C718 1.523 . S
C718 C699 1.368 . S
C718 C712 1.368 . S
C718 C717 1.523 . S
C719 C703 1.429 . S
C719 C715 1.429 . S
C719 C720 1.523 . S
C720 C704 1.368 . S
C720 C716 1.368 . S
C720 C719 1.523 . S
H721 C696 0.950 . S
H722 C698 0.950 . S
H723 C699 0.949 . S
H724 C701 0.950 . S
H725 C703 0.950 . S
C726 C727 1.349 . S
C726 C728 1.327 . S
C726 H751 0.950 . S
C727 C726 1.349 . S
C727 C743 1.349 . S
C728 C726 1.327 . S
C728 C747 1.429 . S
C728 H752 0.950 . S
C729 C746 1.574 . S
C729 C748 1.368 . S
C729 H753 0.949 . S
H730 C734 0.949 . S
C731 C732 1.349 . S
C731 C733 1.327 . S
C731 H754 0.950 . S
C732 C731 1.349 . S
C732 C744 1.349 . S
C733 C731 1.327 . S
C733 C749 1.429 . S
C733 H755 0.950 . S
C734 H730 0.949 . S
C734 C742 1.574 . S
C734 C750 1.368 . S
H735 C743 0.950 . S
H736 C741 0.950 . S
H737 C742 0.949 . S
H738 C744 0.950 . S
H739 C745 0.950 . S
H740 C746 0.949 . S
C741 H736 0.950 . S
C741 C743 1.327 . S
C741 C747 1.429 . S
C742 C734 1.574 . S
C742 H737 0.949 . S
C742 C748 1.368 . S
C743 C727 1.349 . S
C743 H735 0.950 . S
C743 C741 1.327 . S
C744 C732 1.349 . S
C744 H738 0.950 . S
C744 C745 1.327 . S
C745 H739 0.950 . S
C745 C744 1.327 . S
C745 C749 1.429 . S
C746 C729 1.574 . S
C746 H740 0.949 . S
C746 C750 1.368 . S
C747 C728 1.429 . S
C747 C741 1.429 . S
C747 C748 1.523 . S
C748 C729 1.368 . S
C748 C742 1.368 . S
C748 C747 1.523 . S
C749 C733 1.429 . S
C749 C745 1.429 . S
C749 C750 1.523 . S
C750 C734 1.368 . S
C750 C746 1.368 . S
C750 C749 1.523 . S
H751 C726 0.950 . S
H752 C728 0.950 . S
H753 C729 0.949 . S
H754 C731 0.950 . S
H755 C733 0.950 . S
C756 C757 1.349 . S
C756 C758 1.327 . S
C756 H781 0.950 . S
C757 C756 1.349 . S
C757 C773 1.349 . S
C758 C756 1.327 . S
C758 C777 1.429 . S
C758 H782 0.950 . S
C759 C776 1.574 . S
C759 C778 1.368 . S
C759 H783 0.949 . S
H760 C764 0.949 . S
C761 C762 1.349 . S
C761 C763 1.327 . S
C761 H784 0.950 . S
C762 C761 1.349 . S
C762 C774 1.349 . S
C763 C761 1.327 . S
C763 C779 1.429 . S
C763 H785 0.950 . S
C764 H760 0.949 . S
C764 C772 1.574 . S
C764 C780 1.368 . S
H765 C773 0.950 . S
H766 C771 0.950 . S
H767 C772 0.949 . S
H768 C774 0.950 . S
H769 C775 0.950 . S
H770 C776 0.949 . S
C771 H766 0.950 . S
C771 C773 1.327 . S
C771 C777 1.429 . S
C772 C764 1.574 . S
C772 H767 0.949 . S
C772 C778 1.368 . S
C773 C757 1.349 . S
C773 H765 0.950 . S
C773 C771 1.327 . S
C774 C762 1.349 . S
C774 H768 0.950 . S
C774 C775 1.327 . S
C775 H769 0.950 . S
C775 C774 1.327 . S
C775 C779 1.429 . S
C776 C759 1.574 . S
C776 H770 0.949 . S
C776 C780 1.368 . S
C777 C758 1.429 . S
C777 C771 1.429 . S
C777 C778 1.523 . S
C778 C759 1.368 . S
C778 C772 1.368 . S
C778 C777 1.523 . S
C779 C763 1.429 . S
C779 C775 1.429 . S
C779 C780 1.523 . S
C780 C764 1.368 . S
C780 C776 1.368 . S
C780 C779 1.523 . S
H781 C756 0.950 . S
H782 C758 0.950 . S
H783 C759 0.949 . S
H784 C761 0.950 . S
H785 C763 0.950 . S
C786 C787 1.349 . S
C786 C788 1.327 . S
C786 H811 0.950 . S
C787 C786 1.349 . S
C787 C803 1.349 . S
C788 C786 1.327 . S
C788 C807 1.429 . S
C788 H812 0.950 . S
C789 C806 1.574 . S
C789 C808 1.368 . S
C789 H813 0.949 . S
H790 C794 0.949 . S
C791 C792 1.349 . S
C791 C793 1.327 . S
C791 H814 0.950 . S
C792 C791 1.349 . S
C792 C804 1.349 . S
C793 C791 1.327 . S
C793 C809 1.429 . S
C793 H815 0.950 . S
C794 H790 0.949 . S
C794 C802 1.574 . S
C794 C810 1.368 . S
H795 C803 0.950 . S
H796 C801 0.950 . S
H797 C802 0.949 . S
H798 C804 0.950 . S
H799 C805 0.950 . S
H800 C806 0.949 . S
C801 H796 0.950 . S
C801 C803 1.327 . S
C801 C807 1.429 . S
C802 C794 1.574 . S
C802 H797 0.949 . S
C802 C808 1.368 . S
C803 C787 1.349 . S
C803 H795 0.950 . S
C803 C801 1.327 . S
C804 C792 1.349 . S
C804 H798 0.950 . S
C804 C805 1.327 . S
C805 H799 0.950 . S
C805 C804 1.327 . S
C805 C809 1.429 . S
C806 C789 1.574 . S
C806 H800 0.949 . S
C806 C810 1.368 . S
C807 C788 1.429 . S
C807 C801 1.429 . S
C807 C808 1.523 . S
C808 C789 1.368 . S
C808 C802 1.368 . S
C808 C807 1.523 . S
C809 C793 1.429 . S
C809 C805 1.429 . S
C809 C810 1.523 . S
C810 C794 1.368 . S
C810 C806 1.368 . S
C810 C809 1.523 . S
H811 C786 0.950 . S
H812 C788 0.950 . S
H813 C789 0.949 . S
H814 C791 0.950 . S
H815 C793 0.950 . S
C816 C817 1.349 . S
C816 C818 1.327 . S
C816 H841 0.950 . S
C817 C816 1.349 . S
C817 C833 1.349 . S
C818 C816 1.327 . S
C818 C837 1.429 . S
C818 H842 0.950 . S
C819 C836 1.574 . S
C819 C838 1.368 . S
C819 H843 0.949 . S
H820 C824 0.949 . S
C821 C822 1.349 . S
C821 C823 1.327 . S
C821 H844 0.950 . S
C822 C821 1.349 . S
C822 C834 1.349 . S
C823 C821 1.327 . S
C823 C839 1.429 . S
C823 H845 0.950 . S
C824 H820 0.949 . S
C824 C832 1.574 . S
C824 C840 1.368 . S
H825 C833 0.950 . S
H826 C831 0.950 . S
H827 C832 0.949 . S
H828 C834 0.950 . S
H829 C835 0.950 . S
H830 C836 0.949 . S
C831 H826 0.950 . S
C831 C833 1.327 . S
C831 C837 1.429 . S
C832 C824 1.574 . S
C832 H827 0.949 . S
C832 C838 1.368 . S
C833 C817 1.349 . S
C833 H825 0.950 . S
C833 C831 1.327 . S
C834 C822 1.349 . S
C834 H828 0.950 . S
C834 C835 1.327 . S
C835 H829 0.950 . S
C835 C834 1.327 . S
C835 C839 1.429 . S
C836 C819 1.574 . S
C836 H830 0.949 . S
C836 C840 1.368 . S
C837 C818 1.429 . S
C837 C831 1.429 . S
C837 C838 1.523 . S
C838 C819 1.368 . S
C838 C832 1.368 . S
C838 C837 1.523 . S
C839 C823 1.429 . S
C839 C835 1.429 . S
C839 C840 1.523 . S
C840 C824 1.368 . S
C840 C836 1.368 . S
C840 C839 1.523 . S
H841 C816 0.950 . S
H842 C818 0.950 . S
H843 C819 0.949 . S
H844 C821 0.950 . S
H845 C823 0.950 . S
C846 C847 1.349 . S
C846 C848 1.327 . S
C846 H871 0.950 . S
C847 C846 1.349 . S
C847 C863 1.349 . S
C848 C846 1.327 . S
C848 C867 1.429 . S
C848 H872 0.950 . S
C849 C866 1.574 . S
C849 C868 1.368 . S
C849 H873 0.949 . S
H850 C854 0.949 . S
C851 C852 1.349 . S
C851 C853 1.327 . S
C851 H874 0.950 . S
C852 C851 1.349 . S
C852 C864 1.349 . S
C853 C851 1.327 . S
C853 C869 1.429 . S
C853 H875 0.950 . S
C854 H850 0.949 . S
C854 C862 1.574 . S
C854 C870 1.368 . S
H855 C863 0.950 . S
H856 C861 0.950 . S
H857 C862 0.949 . S
H858 C864 0.950 . S
H859 C865 0.950 . S
H860 C866 0.949 . S
C861 H856 0.950 . S
C861 C863 1.327 . S
C861 C867 1.429 . S
C862 C854 1.574 . S
C862 H857 0.949 . S
C862 C868 1.368 . S
C863 C847 1.349 . S
C863 H855 0.950 . S
C863 C861 1.327 . S
C864 C852 1.349 . S
C864 H858 0.950 . S
C864 C865 1.327 . S
C865 H859 0.950 . S
C865 C864 1.327 . S
C865 C869 1.429 . S
C866 C849 1.574 . S
C866 H860 0.949 . S
C866 C870 1.368 . S
C867 C848 1.429 . S
C867 C861 1.429 . S
C867 C868 1.523 . S
C868 C849 1.368 . S
C868 C862 1.368 . S
C868 C867 1.523 . S
C869 C853 1.429 . S
C869 C865 1.429 . S
C869 C870 1.523 . S
C870 C854 1.368 . S
C870 C866 1.368 . S
C870 C869 1.523 . S
H871 C846 0.950 . S
H872 C848 0.950 . S
H873 C849 0.949 . S
H874 C851 0.950 . S
H875 C853 0.950 . S
C876 C877 1.349 . S
C876 C878 1.327 . S
C876 H901 0.950 . S
C877 C876 1.349 . S
C877 C893 1.349 . S
C878 C876 1.327 . S
C878 C897 1.429 . S
C878 H902 0.950 . S
C879 C896 1.574 . S
C879 C898 1.368 . S
C879 H903 0.949 . S
H880 C884 0.949 . S
C881 C882 1.349 . S
C881 C883 1.327 . S
C881 H904 0.950 . S
C882 C881 1.349 . S
C882 C894 1.349 . S
C883 C881 1.327 . S
C883 C899 1.429 . S
C883 H905 0.950 . S
C884 H880 0.949 . S
C884 C892 1.574 . S
C884 C900 1.368 . S
H885 C893 0.950 . S
H886 C891 0.950 . S
H887 C892 0.949 . S
H888 C894 0.950 . S
H889 C895 0.950 . S
H890 C896 0.949 . S
C891 H886 0.950 . S
C891 C893 1.327 . S
C891 C897 1.429 . S
C892 C884 1.574 . S
C892 H887 0.949 . S
C892 C898 1.368 . S
C893 C877 1.349 . S
C893 H885 0.950 . S
C893 C891 1.327 . S
C894 C882 1.349 . S
C894 H888 0.950 . S
C894 C895 1.327 . S
C895 H889 0.950 . S
C895 C894 1.327 . S
C895 C899 1.429 . S
C896 C879 1.574 . S
C896 H890 0.949 . S
C896 C900 1.368 . S
C897 C878 1.429 . S
C897 C891 1.429 . S
C897 C898 1.523 . S
C898 C879 1.368 . S
C898 C892 1.368 . S
C898 C897 1.523 . S
C899 C883 1.429 . S
C899 C895 1.429 . S
C899 C900 1.523 . S
C900 C884 1.368 . S
C900 C896 1.368 . S
C900 C899 1.523 . S
H901 C876 0.950 . S
H902 C878 0.950 . S
H903 C879 0.949 . S
H904 C881 0.950 . S
H905 C883 0.950 . S
C906 C907 1.349 . S
C906 C908 1.327 . S
C906 H931 0.950 . S
C907 C906 1.349 . S
C907 C923 1.349 . S
C908 C906 1.327 . S
C908 C927 1.429 . S
C908 H932 0.950 . S
C909 C926 1.574 . S
C909 C928 1.368 . S
C909 H933 0.949 . S
H910 C914 0.949 . S
C911 C912 1.349 . S
C911 C913 1.327 . S
C911 H934 0.950 . S
C912 C911 1.349 . S
C912 C924 1.349 . S
C913 C911 1.327 . S
C913 C929 1.429 . S
C913 H935 0.950 . S
C914 H910 0.949 . S
C914 C922 1.574 . S
C914 C930 1.368 . S
H915 C923 0.950 . S
H916 C921 0.950 . S
H917 C922 0.949 . S
H918 C924 0.950 . S
H919 C925 0.950 . S
H920 C926 0.949 . S
C921 H916 0.950 . S
C921 C923 1.327 . S
C921 C927 1.429 . S
C922 C914 1.574 . S
C922 H917 0.949 . S
C922 C928 1.368 . S
C923 C907 1.349 . S
C923 H915 0.950 . S
C923 C921 1.327 . S
C924 C912 1.349 . S
C924 H918 0.950 . S
C924 C925 1.327 . S
C925 H919 0.950 . S
C925 C924 1.327 . S
C925 C929 1.429 . S
C926 C909 1.574 . S
C926 H920 0.949 . S
C926 C930 1.368 . S
C927 C908 1.429 . S
C927 C921 1.429 . S
C927 C928 1.523 . S
C928 C909 1.368 . S
C928 C922 1.368 . S
C928 C927 1.523 . S
C929 C913 1.429 . S
C929 C925 1.429 . S
C929 C930 1.523 . S
C930 C914 1.368 . S
C930 C926 1.368 . S
C930 C929 1.523 . S
H931 C906 0.950 . S
H932 C908 0.950 . S
H933 C909 0.949 . S
H934 C911 0.950 . S
H935 C913 0.950 . S
C936 C937 1.349 . S
C936 C938 1.327 . S
C936 H961 0.950 . S
C937 C936 1.349 . S
C937 C953 1.349 . S
C938 C936 1.327 . S
C938 C957 1.429 . S
C938 H962 0.950 . S
C939 C956 1.574 . S
C939 C958 1.368 . S
C939 H963 0.949 . S
H940 C944 0.949 . S
C941 C942 1.349 . S
C941 C943 1.327 . S
C941 H964 0.950 . S
C942 C941 1.349 . S
C942 C954 1.349 . S
C943 C941 1.327 . S
C943 C959 1.429 . S
C943 H965 0.950 . S
C944 H940 0.949 . S
C944 C952 1.574 . S
C944 C960 1.368 . S
H945 C953 0.950 . S
H946 C951 0.950 . S
H947 C952 0.949 . S
H948 C954 0.950 . S
H949 C955 0.950 . S
H950 C956 0.949 . S
C951 H946 0.950 . S
C951 C953 1.327 . S
C951 C957 1.429 . S
C952 C944 1.574 . S
C952 H947 0.949 . S
C952 C958 1.368 . S
C953 C937 1.349 . S
C953 H945 0.950 . S
C953 C951 1.327 . S
C954 C942 1.349 . S
C954 H948 0.950 . S
C954 C955 1.327 . S
C955 H949 0.950 . S
C955 C954 1.327 . S
C955 C959 1.429 . S
C956 C939 1.574 . S
C956 H950 0.949 . S
C956 C960 1.368 . S
C957 C938 1.429 . S
C957 C951 1.429 . S
C957 C958 1.523 . S
C958 C939 1.368 . S
C958 C952 1.368 . S
C958 C957 1.523 . S
C959 C943 1.429 . S
C959 C955 1.429 . S
C959 C960 1.523 . S
C960 C944 1.368 . S
C960 C956 1.368 . S
C960 C959 1.523 . S
H961 C936 0.950 . S
H962 C938 0.950 . S
H963 C939 0.949 . S
H964 C941 0.950 . S
H965 C943 0.950 . S
C966 C967 1.349 . S
C966 C968 1.327 . S
C966 H991 0.950 . S
C967 C966 1.349 . S
C967 C983 1.349 . S
C968 C966 1.327 . S
C968 C987 1.429 . S
C968 H992 0.950 . S
C969 C986 1.574 . S
C969 C988 1.368 . S
C969 H993 0.949 . S
H970 C974 0.949 . S
C971 C972 1.349 . S
C971 C973 1.327 . S
C971 H994 0.950 . S
C972 C971 1.349 . S
C972 C984 1.349 . S
C973 C971 1.327 . S
C973 C989 1.429 . S
C973 H995 0.950 . S
C974 H970 0.949 . S
C974 C982 1.574 . S
C974 C990 1.368 . S
H975 C983 0.950 . S
H976 C981 0.950 . S
H977 C982 0.949 . S
H978 C984 0.950 . S
H979 C985 0.950 . S
H980 C986 0.949 . S
C981 H976 0.950 . S
C981 C983 1.327 . S
C981 C987 1.429 . S
C982 C974 1.574 . S
C982 H977 0.949 . S
C982 C988 1.368 . S
C983 C967 1.349 . S
C983 H975 0.950 . S
C983 C981 1.327 . S
C984 C972 1.349 . S
C984 H978 0.950 . S
C984 C985 1.327 . S
C985 H979 0.950 . S
C985 C984 1.327 . S
C985 C989 1.429 . S
C986 C969 1.574 . S
C986 H980 0.949 . S
C986 C990 1.368 . S
C987 C968 1.429 . S
C987 C981 1.429 . S
C987 C988 1.523 . S
C988 C969 1.368 . S
C988 C982 1.368 . S
C988 C987 1.523 . S
C989 C973 1.429 . S
C989 C985 1.429 . S
C989 C990 1.523 . S
C990 C974 1.368 . S
C990 C986 1.368 . S
C990 C989 1.523 . S
H991 C966 0.950 . S
H992 C968 0.950 . S
H993 C969 0.949 . S
H994 C971 0.950 . S
H995 C973 0.950 . S
C996 C997 1.349 . S
C996 C998 1.327 . S
C996 H1021 0.950 . S
C997 C996 1.349 . S
C997 C1013 1.349 . S
C998 C996 1.327 . S
C998 C1017 1.429 . S
C998 H1022 0.950 . S
C999 C1016 1.574 . S
C999 C1018 1.368 . S
C999 H1023 0.949 . S
H1000 C1004 0.949 . S
C1001 C1002 1.349 . S
C1001 C1003 1.327 . S
C1001 H1024 0.950 . S
C1002 C1001 1.349 . S
C1002 C1014 1.349 . S
C1003 C1001 1.327 . S
C1003 C1019 1.429 . S
C1003 H1025 0.950 . S
C1004 H1000 0.949 . S
C1004 C1012 1.574 . S
C1004 C1020 1.368 . S
H1005 C1013 0.950 . S
H1006 C1011 0.950 . S
H1007 C1012 0.949 . S
H1008 C1014 0.950 . S
H1009 C1015 0.950 . S
H1010 C1016 0.949 . S
C1011 H1006 0.950 . S
C1011 C1013 1.327 . S
C1011 C1017 1.429 . S
C1012 C1004 1.574 . S
C1012 H1007 0.949 . S
C1012 C1018 1.368 . S
C1013 C997 1.349 . S
C1013 H1005 0.950 . S
C1013 C1011 1.327 . S
C1014 C1002 1.349 . S
C1014 H1008 0.950 . S
C1014 C1015 1.327 . S
C1015 H1009 0.950 . S
C1015 C1014 1.327 . S
C1015 C1019 1.429 . S
C1016 C999 1.574 . S
C1016 H1010 0.949 . S
C1016 C1020 1.368 . S
C1017 C998 1.429 . S
C1017 C1011 1.429 . S
C1017 C1018 1.523 . S
C1018 C999 1.368 . S
C1018 C1012 1.368 . S
C1018 C1017 1.523 . S
C1019 C1003 1.429 . S
C1019 C1015 1.429 . S
C1019 C1020 1.523 . S
C1020 C1004 1.368 . S
C1020 C1016 1.368 . S
C1020 C1019 1.523 . S
H1021 C996 0.950 . S
H1022 C998 0.950 . S
H1023 C999 0.949 . S
H1024 C1001 0.950 . S
H1025 C1003 0.950 . S
C1026 C1027 1.349 . S
C1026 C1028 1.327 . S
C1026 H1051 0.950 . S
C1027 C1026 1.349 . S
C1027 C1043 1.349 . S
C1028 C1026 1.327 . S
C1028 C1047 1.429 . S
C1028 H1052 0.950 . S
C1029 C1046 1.574 . S
C1029 C1048 1.368 . S
C1029 H1053 0.949 . S
H1030 C1034 0.949 . S
C1031 C1032 1.349 . S
C1031 C1033 1.327 . S
C1031 H1054 0.950 . S
C1032 C1031 1.349 . S
C1032 C1044 1.349 . S
C1033 C1031 1.327 . S
C1033 C1049 1.429 . S
C1033 H1055 0.950 . S
C1034 H1030 0.949 . S
C1034 C1042 1.574 . S
C1034 C1050 1.368 . S
H1035 C1043 0.950 . S
H1036 C1041 0.950 . S
H1037 C1042 0.949 . S
H1038 C1044 0.950 . S
H1039 C1045 0.950 . S
H1040 C1046 0.949 . S
C1041 H1036 0.950 . S
C1041 C1043 1.327 . S
C1041 C1047 1.429 . S
C1042 C1034 1.574 . S
C1042 H1037 0.949 . S
C1042 C1048 1.368 . S
C1043 C1027 1.349 . S
C1043 H1035 0.950 . S
C1043 C1041 1.327 . S
C1044 C1032 1.349 . S
C1044 H1038 0.950 . S
C1044 C1045 1.327 . S
C1045 H1039 0.950 . S
C1045 C1044 1.327 . S
C1045 C1049 1.429 . S
C1046 C1029 1.574 . S
C1046 H1040 0.949 . S
C1046 C1050 1.368 . S
C1047 C1028 1.429 . S
C1047 C1041 1.429 . S
C1047 C1048 1.523 . S
C1048 C1029 1.368 . S
C1048 C1042 1.368 . S
C1048 C1047 1.523 . S
C1049 C1033 1.429 . S
C1049 C1045 1.429 . S
C1049 C1050 1.523 . S
C1050 C1034 1.368 . S
C1050 C1046 1.368 . S
C1050 C1049 1.523 . S
H1051 C1026 0.950 . S
H1052 C1028 0.950 . S
H1053 C1029 0.949 . S
H1054 C1031 0.950 . S
H1055 C1033 0.950 . S
C1056 C1057 1.349 . S
C1056 C1058 1.327 . S
C1056 H1081 0.950 . S
C1057 C1056 1.349 . S
C1057 C1073 1.349 . S
C1058 C1056 1.327 . S
C1058 C1077 1.429 . S
C1058 H1082 0.950 . S
C1059 C1076 1.574 . S
C1059 C1078 1.368 . S
C1059 H1083 0.949 . S
H1060 C1064 0.949 . S
C1061 C1062 1.349 . S
C1061 C1063 1.327 . S
C1061 H1084 0.950 . S
C1062 C1061 1.349 . S
C1062 C1074 1.349 . S
C1063 C1061 1.327 . S
C1063 C1079 1.429 . S
C1063 H1085 0.950 . S
C1064 H1060 0.949 . S
C1064 C1072 1.574 . S
C1064 C1080 1.368 . S
H1065 C1073 0.950 . S
H1066 C1071 0.950 . S
H1067 C1072 0.949 . S
H1068 C1074 0.950 . S
H1069 C1075 0.950 . S
H1070 C1076 0.949 . S
C1071 H1066 0.950 . S
C1071 C1073 1.327 . S
C1071 C1077 1.429 . S
C1072 C1064 1.574 . S
C1072 H1067 0.949 . S
C1072 C1078 1.368 . S
C1073 C1057 1.349 . S
C1073 H1065 0.950 . S
C1073 C1071 1.327 . S
C1074 C1062 1.349 . S
C1074 H1068 0.950 . S
C1074 C1075 1.327 . S
C1075 H1069 0.950 . S
C1075 C1074 1.327 . S
C1075 C1079 1.429 . S
C1076 C1059 1.574 . S
C1076 H1070 0.949 . S
C1076 C1080 1.368 . S
C1077 C1058 1.429 . S
C1077 C1071 1.429 . S
C1077 C1078 1.523 . S
C1078 C1059 1.368 . S
C1078 C1072 1.368 . S
C1078 C1077 1.523 . S
C1079 C1063 1.429 . S
C1079 C1075 1.429 . S
C1079 C1080 1.523 . S
C1080 C1064 1.368 . S
C1080 C1076 1.368 . S
C1080 C1079 1.523 . S
H1081 C1056 0.950 . S
H1082 C1058 0.950 . S
H1083 C1059 0.949 . S
H1084 C1061 0.950 . S
H1085 C1063 0.950 . S
C1086 C1087 1.349 . S
C1086 C1088 1.327 . S
C1086 H1111 0.950 . S
C1087 C1086 1.349 . S
C1087 C1103 1.349 . S
C1088 C1086 1.327 . S
C1088 C1107 1.429 . S
C1088 H1112 0.950 . S
C1089 C1106 1.574 . S
C1089 C1108 1.368 . S
C1089 H1113 0.949 . S
H1090 C1094 0.949 . S
C1091 C1092 1.349 . S
C1091 C1093 1.327 . S
C1091 H1114 0.950 . S
C1092 C1091 1.349 . S
C1092 C1104 1.349 . S
C1093 C1091 1.327 . S
C1093 C1109 1.429 . S
C1093 H1115 0.950 . S
C1094 H1090 0.949 . S
C1094 C1102 1.574 . S
C1094 C1110 1.368 . S
H1095 C1103 0.950 . S
H1096 C1101 0.950 . S
H1097 C1102 0.949 . S
H1098 C1104 0.950 . S
H1099 C1105 0.950 . S
H1100 C1106 0.949 . S
C1101 H1096 0.950 . S
C1101 C1103 1.327 . S
C1101 C1107 1.429 . S
C1102 C1094 1.574 . S
C1102 H1097 0.949 . S
C1102 C1108 1.368 . S
C1103 C1087 1.349 . S
C1103 H1095 0.950 . S
C1103 C1101 1.327 . S
C1104 C1092 1.349 . S
C1104 H1098 0.950 . S
C1104 C1105 1.327 . S
C1105 H1099 0.950 . S
C1105 C1104 1.327 . S
C1105 C1109 1.429 . S
C1106 C1089 1.574 . S
C1106 H1100 0.949 . S
C1106 C1110 1.368 . S
C1107 C1088 1.429 . S
C1107 C1101 1.429 . S
C1107 C1108 1.523 . S
C1108 C1089 1.368 . S
C1108 C1102 1.368 . S
C1108 C1107 1.523 . S
C1109 C1093 1.429 . S
C1109 C1105 1.429 . S
C1109 C1110 1.523 . S
C1110 C1094 1.368 . S
C1110 C1106 1.368 . S
C1110 C1109 1.523 . S
H1111 C1086 0.950 . S
H1112 C1088 0.950 . S
H1113 C1089 0.949 . S
H1114 C1091 0.950 . S
H1115 C1093 0.950 . S
C1116 C1117 1.349 . S
C1116 C1118 1.327 . S
C1116 H1141 0.950 . S
C1117 C1116 1.349 . S
C1117 C1133 1.349 . S
C1118 C1116 1.327 . S
C1118 C1137 1.429 . S
C1118 H1142 0.950 . S
C1119 C1136 1.574 . S
C1119 C1138 1.368 . S
C1119 H1143 0.949 . S
H1120 C1124 0.949 . S
C1121 C1122 1.349 . S
C1121 C1123 1.327 . S
C1121 H1144 0.950 . S
C1122 C1121 1.349 . S
C1122 C1134 1.349 . S
C1123 C1121 1.327 . S
C1123 C1139 1.429 . S
C1123 H1145 0.950 . S
C1124 H1120 0.949 . S
C1124 C1132 1.574 . S
C1124 C1140 1.368 . S
H1125 C1133 0.950 . S
H1126 C1131 0.950 . S
H1127 C1132 0.949 . S
H1128 C1134 0.950 . S
H1129 C1135 0.950 . S
H1130 C1136 0.949 . S
C1131 H1126 0.950 . S
C1131 C1133 1.327 . S
C1131 C1137 1.429 . S
C1132 C1124 1.574 . S
C1132 H1127 0.949 . S
C1132 C1138 1.368 . S
C1133 C1117 1.349 . S
C1133 H1125 0.950 . S
C1133 C1131 1.327 . S
C1134 C1122 1.349 . S
C1134 H1128 0.950 . S
C1134 C1135 1.327 . S
C1135 H1129 0.950 . S
C1135 C1134 1.327 . S
C1135 C1139 1.429 . S
C1136 C1119 1.574 . S
C1136 H1130 0.949 . S
C1136 C1140 1.368 . S
C1137 C1118 1.429 . S
C1137 C1131 1.429 . S
C1137 C1138 1.523 . S
C1138 C1119 1.368 . S
C1138 C1132 1.368 . S
C1138 C1137 1.523 . S
C1139 C1123 1.429 . S
C1139 C1135 1.429 . S
C1139 C1140 1.523 . S
C1140 C1124 1.368 . S
C1140 C1136 1.368 . S
C1140 C1139 1.523 . S
H1141 C1116 0.950 . S
H1142 C1118 0.950 . S
H1143 C1119 0.949 . S
H1144 C1121 0.950 . S
H1145 C1123 0.950 . S
C427 C39 1.679 . S
C432 C332 1.593 . S
C457 C91 1.641 . S
C462 C343 1.575 . S
C492 C362 1.437 . S
C487 C128 1.490 . S
C522 C379 1.408 . S
C517 C188 1.453 . S
C552 C406 1.495 . S
C547 C250 1.539 . S
C582 C415 1.564 . S
C577 C304 1.637 . S
C607 C75 1.572 . S
C612 C368 1.493 . S
C637 C144 1.674 . S
C642 C388 1.598 . S
C672 C397 1.547 . S
C667 C198 1.619 . S
C702 C424 1.429 . S
C697 C234 1.480 . S
C727 C294 1.439 . S
C732 C326 1.395 . S
C762 C352 1.438 . S
C757 C29 1.485 . S
C792 C380 1.626 . S
C787 C38 1.717 . S
C817 C92 1.680 . S
C822 C404 1.608 . S
C852 C416 1.468 . S
C847 C135 1.530 . S
C877 C181 1.496 . S
C882 C334 1.427 . S
C907 C251 1.578 . S
C912 C344 1.522 . S
C937 C303 1.683 . S
C942 C361 1.586 . S
C967 C82 1.616 . S
C972 C422 1.532 . S
C1002 C325 1.611 . S
C997 C145 1.714 . S
C1027 C197 1.662 . S
C1032 C350 1.584 . S
C1057 C241 1.522 . S
C1062 C370 1.438 . S
C1087 C287 1.478 . S
C1092 C386 1.428 . S
C1117 C22 1.520 . S
C1122 C398 1.461 . S
