# Generated by pormake.
# Topology anh, (6,3)-cn, num edge types: 1
# Building blocks:
#     Node 0, Type 0, BuildingBlock: BETGAK_clean_sbu_0, # of connection points: 6
#     Node 1, Type 0, BuildingBlock: BETGAK_clean_sbu_0, # of connection points: 6
#     Node 2, Type 0, BuildingBlock: BETGAK_clean_sbu_0, # of connection points: 6
#     Node 3, Type 1, BuildingBlock: PAMTOO_clean_linker_0, # of connection points: 3
#     Node 4, Type 1, BuildingBlock: PAMTOO_clean_linker_0, # of connection points: 3
#     Node 5, Type 1, BuildingBlock: PAMTOO_clean_linker_0, # of connection points: 3
#     Node 6, Type 1, BuildingBlock: PAMTOO_clean_linker_0, # of connection points: 3
#     Node 7, Type 1, BuildingBlock: PAMTOO_clean_linker_0, # of connection points: 3
#     Node 8, Type 1, BuildingBlock: PAMTOO_clean_linker_0, # of connection points: 3
#     Edge 9, Type (0, 1), BuildingBlock: XUDNAN_clean_linker_2, # of connection points: 2
#     Edge 10, Type (0, 1), BuildingBlock: XUDNAN_clean_linker_2, # of connection points: 2
#     Edge 11, Type (0, 1), BuildingBlock: XUDNAN_clean_linker_2, # of connection points: 2
#     Edge 12, Type (0, 1), BuildingBlock: XUDNAN_clean_linker_2, # of connection points: 2
#     Edge 13, Type (0, 1), BuildingBlock: XUDNAN_clean_linker_2, # of connection points: 2
#     Edge 14, Type (0, 1), BuildingBlock: XUDNAN_clean_linker_2, # of connection points: 2
#     Edge 15, Type (0, 1), BuildingBlock: XUDNAN_clean_linker_2, # of connection points: 2
#     Edge 16, Type (0, 1), BuildingBlock: XUDNAN_clean_linker_2, # of connection points: 2
#     Edge 17, Type (0, 1), BuildingBlock: XUDNAN_clean_linker_2, # of connection points: 2
#     Edge 18, Type (0, 1), BuildingBlock: XUDNAN_clean_linker_2, # of connection points: 2
#     Edge 19, Type (0, 1), BuildingBlock: XUDNAN_clean_linker_2, # of connection points: 2
#     Edge 20, Type (0, 1), BuildingBlock: XUDNAN_clean_linker_2, # of connection points: 2
#     Edge 21, Type (0, 1), BuildingBlock: XUDNAN_clean_linker_2, # of connection points: 2
#     Edge 22, Type (0, 1), BuildingBlock: XUDNAN_clean_linker_2, # of connection points: 2
#     Edge 23, Type (0, 1), BuildingBlock: XUDNAN_clean_linker_2, # of connection points: 2
#     Edge 24, Type (0, 1), BuildingBlock: XUDNAN_clean_linker_2, # of connection points: 2
#     Edge 25, Type (0, 1), BuildingBlock: XUDNAN_clean_linker_2, # of connection points: 2
#     Edge 26, Type (0, 1), BuildingBlock: XUDNAN_clean_linker_2, # of connection points: 2
# Relax obj value: 0.168
# Max RMSD: 0.182
# Mean RMSD: 0.125
data_MOF--net-anh--node1-BETGAK_clean_sbu_0--node2-PAMTOO_clean_linker_0--edge1-XUDNAN_clean_linker_2
_symmetry_space_group_name_H-M    P1
_symmetry_Int_Tables_number       1
_symmetry_cell_setting            triclinic
loop_
_symmetry_equiv_pos_as_xyz
'x, y, z'
_cell_length_a     30.967164
_cell_length_b     38.068273
_cell_length_c     48.981812
_cell_angle_alpha  88.455378
_cell_angle_beta   91.756478
_cell_angle_gamma 130.89399
loop_
_atom_site_label
_atom_site_type_symbol
_atom_site_fract_x
_atom_site_fract_y
_atom_site_fract_z
_atom_type_partial_charge
La0 La 0.19095 0.5627 0.14796 0.0
La1 La 0.13487 0.60027 0.163 0.0
C2 C 0.24176 0.54261 0.12281 0.0
C3 C 0.2948 0.55073 0.1203 0.0
C4 C 0.32548 0.55428 0.14336 0.0
C5 C 0.36484 0.5479 0.14086 0.0
C6 C 0.37354 0.53744 0.11531 0.0
C7 C 0.34702 0.53894 0.09198 0.0
C8 C 0.30809 0.54557 0.0945 0.0
C9 C 0.17844 0.56378 0.20086 0.0
C10 C 0.26756 0.67297 0.15713 0.0
C11 C 1.07897 0.61761 0.18607 0.0
C12 C 1.01912 0.59108 0.19334 0.0
C13 C 0.98208 0.5427 0.19692 0.0
C14 C 0.92381 0.51722 0.20045 0.0
C15 C 0.90163 0.53974 0.20065 0.0
C16 C 0.93956 0.58855 0.19874 0.0
C17 C 0.99784 0.61397 0.19498 0.0
C18 C 0.15101 0.60077 0.11041 0.0
C19 C 1.05915 0.49068 0.15527 0.0
O20 O 0.21252 0.52135 0.14501 0.0
O21 O 0.24084 0.57509 0.11447 0.0
O22 O 0.17939 0.5341 0.18936 0.0
O23 O 0.19067 0.59376 0.18345 0.0
O24 O 0.26415 0.63884 0.14743 0.0
O25 O 0.2226 0.66466 0.16742 0.0
O26 O 1.08912 0.62335 0.15988 0.0
O27 O 0.10592 0.60639 0.19919 0.0
O28 O 0.15591 0.63312 0.12251 0.0
O29 O 0.13492 0.56892 0.1273 0.0
O30 O 1.06384 0.52455 0.16616 0.0
O31 O 0.10242 0.49929 0.14278 0.0
H32 H 0.31607 0.55859 0.1635 0.0
H33 H 0.38542 0.54795 0.15915 0.0
H34 H 0.35196 0.53065 0.07198 0.0
H35 H 0.2847 0.54261 0.07649 0.0
H36 H 0.9977 0.52435 0.19606 0.0
H37 H 0.89586 0.47968 0.20148 0.0
H38 H 0.9239 0.60696 0.19917 0.0
H39 H 1.02598 0.65137 0.19247 0.0
La40 La 0.70308 0.04112 0.48183 0.0
La41 La 0.63267 0.06785 0.47005 0.0
C42 C 0.74291 1.00635 0.5033 0.0
C43 C 0.73121 0.96213 0.50432 0.0
C44 C 0.71277 0.93436 0.48108 0.0
C45 C 0.70749 0.89491 0.4821 0.0
C46 C 0.72011 0.88242 0.5064 0.0
C47 C 0.73647 0.90943 0.52984 0.0
C48 C 0.74207 0.94894 0.52876 0.0
C49 C 0.70278 0.06269 0.43048 0.0
C50 C 0.56968 0.96253 0.466 0.0
C51 C 0.59182 0.10535 0.4557 0.0
C52 C 0.60636 0.14904 0.46364 0.0
C53 C 0.65389 0.18035 0.48073 0.0
C54 C 0.66494 0.21982 0.49031 0.0
C55 C 0.62834 0.22857 0.48323 0.0
C56 C 0.58157 0.1977 0.46548 0.0
C57 C 0.57067 0.15821 0.45581 0.0
C58 C 0.63547 0.04656 0.52137 0.0
C59 C 0.76824 0.1471 0.48017 0.0
O60 O 0.7596 0.02877 0.47993 0.0
O61 O 0.70646 1.00717 0.51538 0.0
O62 O 0.74498 0.06847 0.44226 0.0
O63 O 0.66088 0.04087 0.44617 0.0
O64 O 0.61504 0.97271 0.47889 0.0
O65 O 0.57106 0.99603 0.45606 0.0
O66 O 0.57118 0.07439 0.47523 0.0
O67 O 0.6303 0.10932 0.4419 0.0
O68 O 0.5907 0.03544 0.50903 0.0
O69 O 0.67701 0.07018 0.5055 0.0
O70 O 0.72073 0.13566 0.46943 0.0
O71 O 0.76873 0.11501 0.49077 0.0
H72 H 0.70368 0.94369 0.46203 0.0
H73 H 0.69411 0.87444 0.46381 0.0
H74 H 0.74707 0.90105 0.54879 0.0
H75 H 0.7564 0.96996 0.54689 0.0
H76 H 0.68174 0.17376 0.48722 0.0
H77 H 0.70181 0.24321 0.50358 0.0
H78 H 0.55222 0.20313 0.45984 0.0
H79 H 0.53353 0.13421 0.4428 0.0
La80 La 0.70156 0.5842 0.84866 0.0
La81 La 0.61983 0.48187 0.83976 0.0
C82 C 0.755 0.66999 0.8426 0.0
C83 C 0.74126 0.70059 0.83824 0.0
C84 C 0.7522 0.73026 0.85911 0.0
C85 C 0.74252 0.76117 0.85472 0.0
C86 C 0.7222 0.76352 0.82924 0.0
C87 C 0.71094 0.73363 0.80841 0.0
C88 C 0.72028 0.70255 0.81284 0.0
C89 C 0.66064 0.53187 0.89313 0.0
C90 C 0.56447 0.52943 0.84331 0.0
C91 C 0.56886 0.39625 0.84299 0.0
C92 C 0.58247 0.36801 0.83358 0.0
C93 C 0.62998 0.38778 0.81713 0.0
C94 C 0.6434 0.36109 0.8087 0.0
C95 C 0.60955 0.31403 0.81653 0.0
C96 C 0.56205 0.2945 0.83312 0.0
C97 C 0.54872 0.32128 0.84157 0.0
C98 C 0.65647 0.53143 0.79443 0.0
C99 C 0.75851 0.53859 0.84711 0.0
O100 O 0.74379 0.64959 0.8665 0.0
O101 O 0.74194 0.64214 0.82265 0.0
O102 O 0.71255 0.57149 0.89171 0.0
O103 O 0.63463 0.52503 0.87116 0.0
O104 O 0.61867 0.56887 0.84051 0.0
O105 O 0.55433 0.48948 0.84679 0.0
O106 O 0.55843 0.41461 0.82386 0.0
O107 O 0.60285 0.42619 0.8621 0.0
O108 O 0.60613 0.49126 0.79748 0.0
O109 O 0.68583 0.54088 0.81587 0.0
O110 O 0.70445 0.49805 0.8466 0.0
O111 O 0.76803 0.5782 0.84587 0.0
H112 H 0.76903 0.73003 0.87877 0.0
H113 H 0.75224 0.78403 0.87112 0.0
H114 H 0.69462 0.7341 0.78866 0.0
H115 H 0.71153 0.6804 0.79621 0.0
H116 H 0.65682 0.42393 0.81088 0.0
H117 H 0.68072 0.37753 0.79629 0.0
H118 H 0.5346 0.2583 0.83928 0.0
H119 H 0.51197 0.30544 0.85432 0.0
H120 H 0.77044 0.18822 0.23072 0.0
H121 H 0.64211 0.03876 0.2268 0.0
H122 H 0.70812 0.12044 0.1529 0.0
H123 H 0.58295 0.02663 0.14509 0.0
C124 C 0.58254 1.01353 0.16571 0.0
O125 O 0.63813 0.03496 0.17371 0.0
H126 H 0.56379 0.0225 0.18002 0.0
C127 C 0.74253 0.15647 0.21902 0.0
C128 C 0.74357 0.15955 0.19044 0.0
C129 C 0.70578 0.11325 0.23255 0.0
C130 C 0.67097 0.07251 0.2169 0.0
C131 C 0.67178 0.07489 0.18827 0.0
C132 C 0.70792 0.11854 0.175 0.0
H133 H 0.74263 0.66241 0.5977 0.0
H134 H 0.716 0.53679 0.59335 0.0
H135 H 0.71166 0.59812 0.51984 0.0
H136 H 0.63612 0.49482 0.51438 0.0
C137 C 0.65141 0.48974 0.53367 0.0
O138 O 0.70536 0.53075 0.54009 0.0
H139 H 0.62067 0.47959 0.54997 0.0
C140 C 0.73457 0.63518 0.58559 0.0
C141 C 0.72732 0.6349 0.55704 0.0
C142 C 0.73002 0.59977 0.59883 0.0
C143 C 0.71971 0.56439 0.58335 0.0
C144 C 0.71411 0.56444 0.5549 0.0
C145 C 0.71773 0.59944 0.5418 0.0
H146 H 1.06612 0.54227 0.91312 0.0
H147 H 0.21134 0.55129 0.90962 0.0
H148 H 0.11485 0.52562 0.83578 0.0
H149 H 0.18461 0.4763 0.84387 0.0
C150 C 0.21354 0.50297 0.85956 0.0
O151 O 0.20766 0.53706 0.85781 0.0
H152 H 0.19775 0.485 0.87971 0.0
C153 C 1.0922 0.53901 0.90113 0.0
C154 C 1.08192 0.53187 0.8728 0.0
C155 C 0.13848 0.54626 0.91417 0.0
C156 C 0.17505 0.54443 0.8993 0.0
C157 C 0.1668 0.53518 0.87121 0.0
C158 C 0.1203 0.53002 0.8577 0.0
H159 H 1.06353 0.45912 0.39841 0.0
H160 H 0.21673 0.6019 0.40896 0.0
H161 H 0.14589 0.50929 0.4778 0.0
H162 H 0.23461 0.62127 0.49683 0.0
C163 C 0.23159 0.62624 0.47462 0.0
O164 O 0.23076 0.59474 0.46047 0.0
H165 H 0.19085 0.61935 0.47139 0.0
C166 C 0.0969 0.48702 0.41161 0.0
C167 C 0.09834 0.47798 0.43965 0.0
C168 C 0.13899 0.5317 0.40034 0.0
C169 C 0.183 0.56765 0.41736 0.0
C170 C 0.18553 0.55974 0.4451 0.0
C171 C 0.1433 0.51501 0.45625 0.0
H172 H 0.67195 0.95975 0.72203 0.0
H173 H 0.68065 0.07723 0.72064 0.0
H174 H 0.70379 0.03227 0.79654 0.0
H175 H 0.64305 0.06685 0.80569 0.0
C176 C 0.64828 0.08079 0.78466 0.0
O177 O 0.69564 0.09063 0.77337 0.0
H178 H 0.60886 0.05371 0.77264 0.0
C179 C 0.67892 0.98765 0.73277 0.0
C180 C 0.68914 0.99211 0.76123 0.0
C181 C 0.67667 1.01857 0.71793 0.0
C182 C 0.68362 0.05384 0.73175 0.0
C183 C 0.69215 0.05802 0.7601 0.0
C184 C 0.6959 0.02782 0.7747 0.0
H185 H 0.60024 0.39437 0.0817 0.0
H186 H 0.42566 0.29431 0.05269 0.0
H187 H 0.46189 0.31393 0.13827 0.0
H188 H 0.30886 0.25227 0.11224 0.0
C189 C 0.34242 0.27321 0.09659 0.0
O190 O 0.38188 0.26731 0.10065 0.0
H191 H 0.32077 0.25844 0.07645 0.0
C192 C 0.55485 0.36891 0.0854 0.0
C193 C 0.536 0.35716 0.11254 0.0
C194 C 0.51588 0.34792 0.06323 0.0
C195 C 0.4576 0.31171 0.06887 0.0
C196 C 0.43845 0.30002 0.09577 0.0
C197 C 0.47742 0.3229 0.11755 0.0
H198 H 0.36394 0.47652 0.15128 0.0
H199 H 0.43998 0.54793 0.07411 0.0
H200 H 0.45493 0.49356 0.06405 0.0
H201 H 0.45789 0.44302 0.16329 0.0
H202 H 0.3982 0.38884 0.17868 0.0
H203 H 0.40751 0.44038 0.18291 0.0
H204 H 0.30488 0.39606 0.16392 0.0
H205 H 0.29563 0.34501 0.15876 0.0
H206 H 0.28585 0.37059 0.13045 0.0
H207 H 0.43393 0.41966 0.05643 0.0
H208 H 0.39504 0.33885 0.05543 0.0
H209 H 0.34383 0.31915 0.13961 0.0
C210 C 0.38687 0.48264 0.133 0.0
C211 C 0.40015 0.51627 0.11336 0.0
C212 C 0.42853 0.52198 0.0893 0.0
C213 C 0.43757 0.49142 0.08348 0.0
C214 C 0.41978 0.45633 0.10233 0.0
C215 C 0.39701 0.45286 0.12712 0.0
C216 C 0.37551 0.40904 0.14247 0.0
C217 C 0.41197 0.42105 0.16837 0.0
C218 C 0.31171 0.37841 0.14927 0.0
C219 C 0.38516 0.38651 0.12144 0.0
C220 C 0.41135 0.41461 0.09854 0.0
C221 C 0.4161 0.39829 0.0747 0.0
C222 C 0.39384 0.35231 0.0743 0.0
C223 C 0.36824 0.32341 0.09774 0.0
C224 C 0.36474 0.34107 0.12171 0.0
H225 H 0.79012 0.22079 0.45155 0.0
H226 H 0.86957 0.18619 0.50713 0.0
H227 H 0.96066 0.26724 0.5044 0.0
H228 H 0.90953 0.29555 0.40816 0.0
H229 H 0.89881 0.3363 0.40213 0.0
H230 H 0.83882 0.2764 0.40982 0.0
H231 H 0.81326 0.30172 0.45041 0.0
H232 H 0.87307 0.36176 0.44277 0.0
H233 H 0.8666 0.33849 0.47641 0.0
H234 H 1.04475 0.35201 0.49437 0.0
H235 H 0.1151 0.43256 0.47712 0.0
H236 H 0.98193 0.41273 0.42769 0.0
C237 C 0.82644 0.23034 0.46346 0.0
C238 C 0.82226 0.19684 0.47974 0.0
C239 C 0.87131 0.21094 0.49459 0.0
C240 C 0.92339 0.25705 0.49318 0.0
C241 C 0.92619 0.289 0.47675 0.0
C242 C 0.879 0.27625 0.46212 0.0
C243 C 0.89408 0.31689 0.44514 0.0
C244 C 0.88476 0.3056 0.4145 0.0
C245 C 0.85971 0.33052 0.45423 0.0
C246 C 0.95724 0.35437 0.45227 0.0
C247 C 0.97476 0.33762 0.47071 0.0
C248 C 1.03132 0.36552 0.48007 0.0
C249 C 1.07104 0.41151 0.47025 0.0
C250 C 1.05454 0.42958 0.45106 0.0
C251 C 0.99645 0.40026 0.44217 0.0
H252 H 0.75048 0.81868 0.78379 0.0
H253 H 0.67378 0.78483 0.86349 0.0
H254 H 0.65879 0.84059 0.85534 0.0
H255 H 0.82387 0.94109 0.78495 0.0
H256 H 0.81159 0.9442 0.7491 0.0
H257 H 0.81665 0.90193 0.76133 0.0
H258 H 0.71742 0.83598 0.73966 0.0
H259 H 0.71208 0.87805 0.72736 0.0
H260 H 0.6568 0.83005 0.74846 0.0
H261 H 0.64965 0.89871 0.83778 0.0
H262 H 0.64823 0.95498 0.81264 0.0
H263 H 0.7339 0.95276 0.74499 0.0
C264 C 0.73019 0.82274 0.79948 0.0
C265 C 0.71325 0.79724 0.82431 0.0
C266 C 0.68764 0.80423 0.84444 0.0
C267 C 0.67872 0.8357 0.83994 0.0
C268 C 0.69589 0.8602 0.81525 0.0
C269 C 0.72128 0.8542 0.79539 0.0
C270 C 0.73599 0.88491 0.77067 0.0
C271 C 0.80088 0.92012 0.76627 0.0
C272 C 0.70363 0.85548 0.74503 0.0
C273 C 0.71445 0.90882 0.7796 0.0
C274 C 0.69147 0.89411 0.80536 0.0
C275 C 0.66799 0.91074 0.81768 0.0
C276 C 0.66779 0.94306 0.80327 0.0
C277 C 0.69115 0.95876 0.77677 0.0
C278 C 0.71504 0.94132 0.76502 0.0
H279 H 0.84424 0.55693 0.16825 0.0
H280 H 0.81754 0.45853 0.22809 0.0
H281 H 0.71405 0.40489 0.21742 0.0
H282 H 0.70167 0.52758 0.17797 0.0
H283 H 0.69679 0.53537 0.14188 0.0
H284 H 0.76568 0.57005 0.15891 0.0
H285 H 0.7993 0.54273 0.12398 0.0
H286 H 0.73065 0.50752 0.10717 0.0
H287 H 0.75923 0.48136 0.11985 0.0
H288 H 0.61859 0.35632 0.19361 0.0
H289 H 0.53979 0.31805 0.15941 0.0
H290 H 0.62835 0.4496 0.11659 0.0
C291 C 0.81641 0.52518 0.18015 0.0
C292 C 0.83895 0.51205 0.1991 0.0
C293 C 0.80119 0.46923 0.2134 0.0
C294 C 0.7423 0.43872 0.20763 0.0
C295 C 0.72182 0.45189 0.18786 0.0
C296 C 0.75774 0.49454 0.17466 0.0
C297 C 0.72693 0.49809 0.15172 0.0
C298 C 0.72249 0.53496 0.15801 0.0
C299 C 0.75574 0.50797 0.12408 0.0
C300 C 0.66917 0.44975 0.15287 0.0
C301 C 0.66646 0.42386 0.1742 0.0
C302 C 0.61958 0.37661 0.17733 0.0
C303 C 0.57502 0.35515 0.15782 0.0
C304 C 0.57815 0.38092 0.13538 0.0
C305 C 0.62494 0.42906 0.13353 0.0
H306 H 0.53637 0.88419 0.4939 0.0
H307 H 0.48401 0.92843 0.42806 0.0
H308 H 0.39617 0.84697 0.42089 0.0
H309 H 0.47894 0.77323 0.46432 0.0
H310 H 0.45537 0.74286 0.49668 0.0
H311 H 0.5163 0.80423 0.4954 0.0
H312 H 0.46805 0.81966 0.5294 0.0
H313 H 0.40712 0.75841 0.53083 0.0
H314 H 0.39758 0.79913 0.52159 0.0
H315 H 0.31219 0.76046 0.42144 0.0
H316 H 0.2356 0.67681 0.43219 0.0
H317 H 0.33971 0.68814 0.49859 0.0
C318 C 0.50677 0.87666 0.47774 0.0
C319 C 0.51754 0.91293 0.4614 0.0
C320 C 0.477 0.90149 0.44084 0.0
C321 C 0.42696 0.85518 0.43652 0.0
C322 C 0.41747 0.82033 0.45303 0.0
C323 C 0.45604 0.83051 0.47337 0.0
C324 C 0.43383 0.78684 0.48933 0.0
C325 C 0.47348 0.77617 0.48624 0.0
C326 C 0.42619 0.79129 0.51958 0.0
C327 C 0.37653 0.75067 0.475 0.0
C328 C 0.36831 0.77067 0.45387 0.0
C329 C 0.31824 0.7445 0.43794 0.0
C330 C 0.27499 0.697 0.44413 0.0
C331 C 0.2815 0.67608 0.46629 0.0
C332 C 0.33356 0.70322 0.48152 0.0
H333 H 0.6032 0.2477 0.84564 0.0
H334 H 0.64636 0.31476 0.76598 0.0
H335 H 0.6672 0.26631 0.75005 0.0
H336 H 0.70986 0.23503 0.84788 0.0
H337 H 0.66334 0.17891 0.86448 0.0
H338 H 0.65476 0.22062 0.87008 0.0
H339 H 0.54873 0.16056 0.85433 0.0
H340 H 0.55689 0.11864 0.84881 0.0
H341 H 0.53132 0.13372 0.82139 0.0
H342 H 0.67818 0.20708 0.74192 0.0
H343 H 0.67818 0.14193 0.74256 0.0
H344 H 0.62762 0.11358 0.82727 0.0
C345 C 0.61693 0.25221 0.82482 0.0
C346 C 0.62326 0.28531 0.80713 0.0
C347 C 0.64198 0.29027 0.78011 0.0
C348 C 0.6537 0.26271 0.77081 0.0
C349 C 0.64676 0.23034 0.78875 0.0
C350 C 0.62888 0.22504 0.8152 0.0
C351 C 0.62325 0.18686 0.83017 0.0
C352 C 0.66532 0.20654 0.8546 0.0
C353 C 0.56137 0.14763 0.8392 0.0
C354 C 0.6398 0.17096 0.80788 0.0
C355 C 0.65358 0.19665 0.78417 0.0
C356 C 0.66822 0.18717 0.7605 0.0
C357 C 0.66834 0.15029 0.76104 0.0
C358 C 0.65431 0.12353 0.78512 0.0
C359 C 0.63989 0.13417 0.80877 0.0
H360 H 0.67745 0.81562 0.54636 0.0
H361 H 0.76281 0.86113 0.46843 0.0
H362 H 0.76997 0.80018 0.47163 0.0
H363 H 0.7612 0.79434 0.57881 0.0
H364 H 0.70329 0.74359 0.59743 0.0
H365 H 0.70047 0.78806 0.58793 0.0
H366 H 0.60321 0.72701 0.56305 0.0
H367 H 0.60549 0.68223 0.57268 0.0
H368 H 0.59724 0.6911 0.53723 0.0
H369 H 0.77507 0.73849 0.48536 0.0
H370 H 0.77369 0.6787 0.50751 0.0
H371 H 0.68254 0.67246 0.57578 0.0
C372 C 0.69721 0.8125 0.52985 0.0
C373 C 0.71947 0.84306 0.50711 0.0
C374 C 0.74474 0.83769 0.48586 0.0
C375 C 0.74929 0.80335 0.48757 0.0
C376 C 0.72793 0.77442 0.51054 0.0
C377 C 0.70184 0.77834 0.53117 0.0
C378 C 0.6839 0.7439 0.55406 0.0
C379 C 0.71403 0.76899 0.58115 0.0
C380 C 0.61858 0.70899 0.55691 0.0
C381 C 0.70516 0.72073 0.54341 0.0
C382 C 0.73025 0.73865 0.51825 0.0
C383 C 0.75483 0.72376 0.5049 0.0
C384 C 0.75364 0.68963 0.51761 0.0
C385 C 0.72802 0.67072 0.54342 0.0
C386 C 0.70317 0.68649 0.55625 0.0
H387 H 0.78049 0.48423 0.87532 0.0
H388 H 0.85667 0.59819 0.81751 0.0
H389 H 0.94104 0.60438 0.8147 0.0
H390 H 0.915 0.53553 0.91176 0.0
H391 H 0.89777 0.48085 0.91858 0.0
H392 H 0.84144 0.48295 0.91464 0.0
H393 H 0.79493 0.42166 0.87653 0.0
H394 H 0.8514 0.41965 0.88023 0.0
H395 H 0.83638 0.43237 0.84737 0.0
H396 H 1.02057 0.5972 0.81737 0.0
H397 H 1.08826 0.5851 0.83017 0.0
H398 H 0.96781 0.4812 0.88955 0.0
C399 C 0.81465 0.51031 0.86187 0.0
C400 C 0.81012 0.54041 0.84632 0.0
C401 C 0.85752 0.57442 0.82962 0.0
C402 C 0.90619 0.57812 0.82781 0.0
C403 C 0.90937 0.54828 0.84326 0.0
C404 C 0.86506 0.51548 0.86042 0.0
C405 C 0.88121 0.4899 0.87631 0.0
C406 C 0.88401 0.49777 0.90715 0.0
C407 C 0.83842 0.43779 0.86972 0.0
C408 C 0.94091 0.51303 0.86542 0.0
C409 C 0.95594 0.5461 0.84594 0.0
C410 C 1.00865 0.57137 0.83272 0.0
C411 C 1.04714 0.56385 0.83993 0.0
C412 C 1.03462 0.53168 0.86071 0.0
C413 C 0.97969 0.5058 0.87332 0.0
H414 H 0.2904 0.74985 0.17823 0.0
H415 H 0.37071 0.7072 0.13619 0.0
H416 H 0.46151 0.78897 0.13543 0.0
H417 H 0.35825 0.85576 0.14186 0.0
H418 H 0.36516 0.88698 0.1711 0.0
H419 H 0.30778 0.82506 0.16918 0.0
H420 H 0.34018 0.81457 0.21578 0.0
H421 H 0.39777 0.8765 0.21785 0.0
H422 H 0.41276 0.83805 0.22036 0.0
H423 H 0.54322 0.87738 0.13764 0.0
H424 H 0.60724 0.96289 0.14297 0.0
H425 H 0.47272 0.94619 0.18398 0.0
C426 C 0.32704 0.75741 0.16898 0.0
C427 C 0.32315 0.72176 0.1573 0.0
C428 C 0.37242 0.73367 0.14535 0.0
C429 C 0.42426 0.78011 0.14483 0.0
C430 C 0.42637 0.81435 0.15642 0.0
C431 C 0.37894 0.80339 0.16833 0.0
C432 C 0.39162 0.84644 0.1789 0.0
C433 C 0.35344 0.85399 0.16439 0.0
C434 C 0.38521 0.84371 0.21007 0.0
C435 C 0.45352 0.88359 0.17089 0.0
C436 C 0.47302 0.86452 0.158 0.0
C437 C 0.52847 0.89247 0.14802 0.0
C438 C 0.56464 0.94098 0.15121 0.0
C439 C 0.54551 0.96113 0.1645 0.0
C440 C 0.48907 0.93179 0.17432 0.0
H441 H 0.61714 0.28811 0.45822 0.0
H442 H 0.65901 0.25863 0.53607 0.0
H443 H 0.67225 0.3234 0.55691 0.0
H444 H 0.71677 0.4134 0.46448 0.0
H445 H 0.66884 0.41968 0.44859 0.0
H446 H 0.66448 0.37189 0.43948 0.0
H447 H 0.55735 0.31372 0.45195 0.0
H448 H 0.56135 0.3613 0.46109 0.0
H449 H 0.5364 0.31545 0.48548 0.0
H450 H 0.67789 0.38968 0.56982 0.0
H451 H 0.67624 0.45359 0.57354 0.0
H452 H 0.63037 0.43986 0.48761 0.0
C453 C 0.629 0.29521 0.47966 0.0
C454 C 0.6374 0.26839 0.49544 0.0
C455 C 0.65333 0.27914 0.5234 0.0
C456 C 0.66062 0.31571 0.53549 0.0
C457 C 0.6519 0.34134 0.51939 0.0
C458 C 0.63654 0.33168 0.49207 0.0
C459 C 0.62903 0.36421 0.47944 0.0
C460 C 0.67237 0.39406 0.45665 0.0
C461 C 0.56737 0.33704 0.46888 0.0
C462 C 0.64202 0.39334 0.50399 0.0
C463 C 0.65522 0.37963 0.52682 0.0
C464 C 0.66786 0.40086 0.55205 0.0
C465 C 0.66683 0.437 0.55401 0.0
C466 C 0.65331 0.45149 0.5309 0.0
C467 C 0.64099 0.42946 0.50557 0.0
H468 H 0.44372 0.46071 0.85496 0.0
H469 H 0.57497 0.60639 0.83362 0.0
H470 H 0.50438 0.61659 0.83532 0.0
H471 H 0.32683 0.44215 0.81603 0.0
H472 H 0.27338 0.40397 0.84118 0.0
H473 H 0.334 0.40751 0.83812 0.0
H474 H 0.35871 0.428 0.88924 0.0
H475 H 0.29821 0.42459 0.89243 0.0
H476 H 0.36865 0.47678 0.90223 0.0
H477 H 0.41523 0.61172 0.83955 0.0
H478 H 0.32147 0.59115 0.84573 0.0
H479 H 0.24589 0.44955 0.86459 0.0
C480 C 0.45785 0.4948 0.85049 0.0
C481 C 0.51674 0.53263 0.84401 0.0
C482 C 0.5314 0.57635 0.83861 0.0
C483 C 0.49097 0.58267 0.83954 0.0
C484 C 0.43399 0.54515 0.84602 0.0
C485 C 0.41742 0.5019 0.8514 0.0
C486 C 0.35333 0.46737 0.85802 0.0
C487 C 0.3199 0.4279 0.8371 0.0
C488 C 0.34419 0.44803 0.88721 0.0
C489 C 0.33657 0.49761 0.85553 0.0
C490 C 0.38377 0.54253 0.84856 0.0
C491 C 0.37838 0.57645 0.84507 0.0
C492 C 0.32439 0.56448 0.84868 0.0
C493 C 0.2748 0.51864 0.85592 0.0
C494 C 0.2822 0.48512 0.85924 0.0
H495 H 1.04268 0.4108 0.15996 0.0
H496 H 0.95127 0.46117 0.15481 0.0
H497 H 0.8594 0.38024 0.15805 0.0
H498 H 0.93971 0.30216 0.12312 0.0
H499 H 0.94932 0.26967 0.1459 0.0
H500 H 1.00739 0.33094 0.14048 0.0
H501 H 1.01582 0.34486 0.19259 0.0
H502 H 0.95821 0.28366 0.19816 0.0
H503 H 0.95366 0.32511 0.21091 0.0
H504 H 0.77732 0.29347 0.16297 0.0
H505 H 0.71289 0.20959 0.17491 0.0
H506 H 0.85786 0.21621 0.17992 0.0
C507 C 1.00322 0.40466 0.15904 0.0
C508 C 1.00397 0.44218 0.15666 0.0
C509 C 0.95162 0.43292 0.15643 0.0
C510 C 0.89925 0.38704 0.15812 0.0
C511 C 0.89993 0.35076 0.16045 0.0
C512 C 0.95066 0.35915 0.16136 0.0
C513 C 0.94002 0.31457 0.16662 0.0
C514 C 0.96032 0.30371 0.14259 0.0
C515 C 0.96861 0.31722 0.19367 0.0
C516 C 0.87539 0.27969 0.16848 0.0
C517 C 0.85299 0.30117 0.16442 0.0
C518 C 0.79442 0.27632 0.16596 0.0
C519 C 0.75807 0.22868 0.17252 0.0
C520 C 0.78037 0.20644 0.17764 0.0
C521 C 0.83969 0.23222 0.17532 0.0
H522 H 0.1001 0.52568 0.07672 0.0
H523 H 0.22297 0.67627 0.07789 0.0
H524 H 0.23803 0.67805 0.0284 0.0
H525 H 0.16791 0.50895 0.02491 0.0
H526 H 0.10109 0.46155 0.00878 0.0
H527 H 0.1039 0.47176 0.04477 0.0
H528 H 1.02489 0.47687 0.0378 0.0
H529 H 1.02176 0.46663 0.00184 0.0
H530 H 1.03489 0.5176 0.01316 0.0
H531 H 0.23849 0.66382 0.9788 0.0
H532 H 0.21837 0.63473 0.93149 0.0
H533 H 1.08983 0.49356 0.96116 0.0
C534 C 0.13073 0.55892 0.06654 0.0
C535 C 0.16091 0.60092 0.08106 0.0
C536 C 0.19964 0.64379 0.06706 0.0
C537 C 0.2086 0.64511 0.03901 0.0
C538 C 0.1778 0.60319 0.02513 0.0
C539 C 0.13915 0.56086 0.03831 0.0
C540 C 0.10829 0.52113 0.01812 0.0
C541 C 0.12108 0.48895 0.02453 0.0
C542 C 1.04363 0.49397 0.01771 0.0
C543 C 0.13542 0.54776 0.99156 0.0
C544 C 0.17608 0.59503 0.9962 0.0
C545 C 0.20683 0.62691 0.97493 0.0
C546 C 0.19529 0.61016 0.94819 0.0
C547 C 0.15294 0.5621 0.94288 0.0
C548 C 0.12273 0.53047 0.96483 0.0
H549 H 0.69281 0.02028 0.38376 0.0
H550 H 0.71595 0.13759 0.41398 0.0
H551 H 0.7145 0.16103 0.36665 0.0
H552 H 0.7852 0.08112 0.3263 0.0
H553 H 0.74232 0.03191 0.30382 0.0
H554 H 0.74198 0.02292 0.34012 0.0
H555 H 0.63181 0.97095 0.33987 0.0
H556 H 0.63184 0.97992 0.30356 0.0
H557 H 0.59972 0.99367 0.32598 0.0
H558 H 0.71023 0.17142 0.31644 0.0
H559 H 0.70948 0.17153 0.26618 0.0
H560 H 0.69548 0.05023 0.26781 0.0
C561 C 0.69711 0.05065 0.38023 0.0
C562 C 0.70253 0.07643 0.40228 0.0
C563 C 0.70936 0.11649 0.39725 0.0
C564 C 0.70914 0.13025 0.37046 0.0
C565 C 0.70276 0.10375 0.34904 0.0
C566 C 0.69738 0.06503 0.35354 0.0
C567 C 0.69344 0.04386 0.32679 0.0
C568 C 0.74374 0.04505 0.3241 0.0
C569 C 0.63577 0.99415 0.32389 0.0
C570 C 0.69766 0.07684 0.30658 0.0
C571 C 0.70258 0.11087 0.31991 0.0
C572 C 0.70689 0.1452 0.30574 0.0
C573 C 0.70686 0.14513 0.27716 0.0
C574 C 0.7032 0.11128 0.26292 0.0
C575 C 0.69799 0.07644 0.27798 0.0
H576 H 0.60178 0.49502 0.74573 0.0
H577 H 0.76425 0.61262 0.78144 0.0
H578 H 0.80175 0.64428 0.73497 0.0
H579 H 0.66158 0.48024 0.69073 0.0
H580 H 0.60515 0.46252 0.66686 0.0
H581 H 0.59079 0.45122 0.70283 0.0
H582 H 0.55281 0.49501 0.70188 0.0
H583 H 0.56676 0.50624 0.66589 0.0
H584 H 0.59749 0.55383 0.68894 0.0
H585 H 0.81944 0.66335 0.68377 0.0
H586 H 0.81787 0.66544 0.63302 0.0
H587 H 0.64645 0.53137 0.6322 0.0
C588 C 0.64517 0.52766 0.74387 0.0
C589 C 0.67988 0.55189 0.76716 0.0
C590 C 0.73668 0.59401 0.76383 0.0
C591 C 0.75832 0.61206 0.73754 0.0
C592 C 0.72283 0.58703 0.71495 0.0
C593 C 0.66763 0.54546 0.71796 0.0
C594 C 0.63866 0.52393 0.69068 0.0
C595 C 0.62316 0.47669 0.6876 0.0
C596 C 0.58582 0.51952 0.68662 0.0
C597 C 0.68591 0.56001 0.67165 0.0
C598 C 0.73402 0.59645 0.68592 0.0
C599 C 0.78222 0.63475 0.67246 0.0
C600 C 0.78102 0.6357 0.64374 0.0
C601 C 0.73237 0.59825 0.62896 0.0
C602 C 0.6845 0.55997 0.64313 0.0
H603 H 0.71946 0.09691 0.56073 0.0
H604 H 0.55137 0.96387 0.54513 0.0
H605 H 0.54715 0.93996 0.59311 0.0
H606 H 0.77023 0.05681 0.61131 0.0
H607 H 0.80532 0.10734 0.6324 0.0
H608 H 0.79853 0.11169 0.59604 0.0
H609 H 0.74869 0.14456 0.60442 0.0
H610 H 0.75505 0.14013 0.64075 0.0
H611 H 0.68592 0.1119 0.62522 0.0
H612 H 0.55947 0.93149 0.64291 0.0
H613 H 0.58415 0.94124 0.69225 0.0
H614 H 0.74031 0.08227 0.67686 0.0
C615 C 0.68246 0.06243 0.56741 0.0
C616 C 0.63601 0.03183 0.54937 0.0
C617 C 0.58742 0.98754 0.55878 0.0
C618 C 0.58476 0.97365 0.58591 0.0
C619 C 0.63071 1.00485 0.60346 0.0
C620 C 0.67846 0.0485 0.59471 0.0
C621 C 0.71935 0.07689 0.61838 0.0
C622 C 0.77676 0.08888 0.61428 0.0
C623 C 0.72771 0.12097 0.62242 0.0
C624 C 0.68679 0.04263 0.64179 0.0
C625 C 0.63632 1.00097 0.6326 0.0
C626 C 0.59891 0.96391 0.65035 0.0
C627 C 0.61323 0.96969 0.67827 0.0
C628 C 0.66393 1.01244 0.6882 0.0
C629 C 0.70118 0.0493 0.6697 0.0
H630 H 0.70047 0.54364 0.94658 0.0
H631 H 0.55726 0.44545 0.89232 0.0
H632 H 0.51326 0.38535 0.92804 0.0
H633 H 0.70366 0.46389 0.98756 0.0
H634 H 0.71371 0.49074 0.01963 0.0
H635 H 0.74026 0.52501 0.98862 0.0
H636 H 0.68267 0.55094 0.99753 0.0
H637 H 0.65679 0.51735 0.02872 0.0
H638 H 0.60688 0.50747 0.00311 0.0
H639 H 0.48718 0.33449 0.96831 0.0
H640 H 0.46521 0.30101 0.01439 0.0
H641 H 0.61142 0.43675 0.04625 0.0
C642 C 0.66038 0.50923 0.94222 0.0
C643 C 0.63418 0.49821 0.91606 0.0
C644 C 0.58 0.45378 0.91158 0.0
C645 C 0.55435 0.41937 0.93181 0.0
C646 C 0.58189 0.4306 0.95706 0.0
C647 C 0.63236 0.4749 0.96282 0.0
C648 C 0.64752 0.47929 0.993 0.0
C649 C 0.70469 0.49039 0.99745 0.0
C650 C 0.64849 0.51592 0.00638 0.0
C651 C 0.59785 0.43054 0.00298 0.0
C652 C 0.56177 0.40279 0.98168 0.0
C653 C 0.51419 0.35612 0.9854 0.0
C654 C 0.50168 0.33756 0.0119 0.0
C655 C 0.53511 0.36607 0.03468 0.0
C656 C 0.58465 0.41317 0.02977 0.0
H657 H 0.14565 0.49819 0.24022 0.0
H658 H 0.1975 0.63441 0.22815 0.0
H659 H 0.18526 0.63788 0.2773 0.0
H660 H 1.03994 0.45667 0.2926 0.0
H661 H 1.05837 0.42708 0.312 0.0
H662 H 1.06756 0.43377 0.27554 0.0
H663 H 0.17421 0.47366 0.28217 0.0
H664 H 0.16525 0.46682 0.31861 0.0
H665 H 0.21943 0.52367 0.30395 0.0
H666 H 0.17044 0.62784 0.32775 0.0
H667 H 0.15934 0.60711 0.3767 0.0
H668 H 0.12024 0.4784 0.3568 0.0
C669 C 0.15405 0.52857 0.24796 0.0
C670 C 0.17154 0.56572 0.23035 0.0
C671 C 0.18286 0.60517 0.2412 0.0
C672 C 0.17617 0.60748 0.2691 0.0
C673 C 0.15845 0.57017 0.28592 0.0
C674 C 0.14788 0.53156 0.27585 0.0
C675 C 0.13204 0.49729 0.29861 0.0
C676 C 1.07084 0.45096 0.29443 0.0
C677 C 0.17533 0.48995 0.30097 0.0
C678 C 0.1362 0.52301 0.32309 0.0
C679 C 0.15093 0.56475 0.31522 0.0
C680 C 0.15884 0.59523 0.33416 0.0
C681 C 0.15265 0.58322 0.36193 0.0
C682 C 0.13906 0.5412 0.37063 0.0
C683 C 0.12982 0.51042 0.35081 0.0
loop_
_geom_bond_atom_site_label_1
_geom_bond_atom_site_label_2
_geom_bond_distance
_geom_bond_site_symmetry_2
_ccdc_geom_bond_type
La0 C2 2.928 . S
La0 O20 2.521 . S
La0 O21 2.628 . S
La0 O22 2.554 . S
La0 O23 2.757 1_455 S
La0 O24 2.470 . S
La0 O29 2.482 . S
La0 O31 2.503 1_455 S
La1 C11 2.928 . S
La1 O23 2.482 . S
La1 O25 2.503 1_655 S
La1 O26 2.521 . S
La1 O27 2.628 . S
La1 O28 2.554 . S
La1 O29 2.757 1_655 S
La1 O30 2.470 . S
C2 La0 2.928 . S
C2 C3 1.503 . S
C2 O20 1.261 . S
C2 O21 1.243 . S
C3 C2 1.503 . S
C3 C4 1.394 . S
C3 C8 1.373 . S
C4 C3 1.394 . S
C4 C5 1.380 . S
C4 H32 0.930 . S
C5 C4 1.380 . S
C5 C6 1.376 . S
C5 H33 0.930 . S
C6 C5 1.376 . S
C6 C7 1.370 . S
C7 C6 1.370 . S
C7 C8 1.396 . S
C7 H34 0.929 . S
C8 C3 1.373 . S
C8 C7 1.396 . S
C8 H35 0.929 . S
C9 O22 1.240 . S
C9 O23 1.289 1_455 S
C10 O24 1.258 . S
C10 O25 1.256 . S
C11 La1 2.928 . S
C11 C12 1.503 . S
C11 O26 1.261 . S
C11 O27 1.243 . S
C12 C11 1.503 . S
C12 C13 1.394 . S
C12 C17 1.373 . S
C13 C12 1.394 . S
C13 C14 1.380 . S
C13 H36 0.930 . S
C14 C13 1.380 . S
C14 C15 1.376 . S
C14 H37 0.930 . S
C15 C14 1.376 . S
C15 C16 1.370 . S
C16 C15 1.370 . S
C16 C17 1.396 . S
C16 H38 0.929 . S
C17 C12 1.373 . S
C17 C16 1.396 . S
C17 H39 0.929 . S
C18 O28 1.240 1_455 S
C18 O29 1.289 . S
C19 O30 1.258 . S
C19 O31 1.256 . S
O20 La0 2.521 . S
O20 C2 1.261 . S
O21 La0 2.628 . S
O21 C2 1.243 . S
O22 La0 2.554 . S
O22 C9 1.240 . S
O23 La0 2.757 1_655 S
O23 La1 2.482 . S
O23 C9 1.289 1_655 S
O24 La0 2.470 . S
O24 C10 1.258 . S
O25 La1 2.503 1_455 S
O25 C10 1.256 . S
O26 La1 2.521 . S
O26 C11 1.261 . S
O27 La1 2.628 . S
O27 C11 1.243 . S
O28 La1 2.554 . S
O28 C18 1.240 1_655 S
O29 La0 2.482 . S
O29 La1 2.757 1_455 S
O29 C18 1.289 . S
O30 La1 2.470 . S
O30 C19 1.258 . S
O31 La0 2.503 1_655 S
O31 C19 1.256 . S
H32 C4 0.930 . S
H33 C5 0.930 . S
H34 C7 0.929 . S
H35 C8 0.929 . S
H36 C13 0.930 . S
H37 C14 0.930 . S
H38 C16 0.929 . S
H39 C17 0.929 . S
La40 C42 2.928 1_545 S
La40 O60 2.521 1_545 S
La40 O61 2.628 1_545 S
La40 O62 2.554 . S
La40 O63 2.757 . S
La40 O64 2.470 1_545 S
La40 O69 2.482 . S
La40 O71 2.503 . S
La41 C51 2.928 . S
La41 O63 2.482 . S
La41 O65 2.503 1_545 S
La41 O66 2.521 . S
La41 O67 2.628 . S
La41 O68 2.554 . S
La41 O69 2.757 . S
La41 O70 2.470 . S
C42 La40 2.928 1_565 S
C42 C43 1.503 . S
C42 O60 1.261 . S
C42 O61 1.243 . S
C43 C42 1.503 . S
C43 C44 1.394 . S
C43 C48 1.373 . S
C44 C43 1.394 . S
C44 C45 1.380 . S
C44 H72 0.930 . S
C45 C44 1.380 . S
C45 C46 1.376 . S
C45 H73 0.930 . S
C46 C45 1.376 . S
C46 C47 1.370 . S
C47 C46 1.370 . S
C47 C48 1.396 . S
C47 H74 0.929 . S
C48 C43 1.373 . S
C48 C47 1.396 . S
C48 H75 0.929 . S
C49 O62 1.240 . S
C49 O63 1.289 . S
C50 O64 1.258 . S
C50 O65 1.256 . S
C51 La41 2.928 . S
C51 C52 1.503 . S
C51 O66 1.261 . S
C51 O67 1.243 . S
C52 C51 1.503 . S
C52 C53 1.394 . S
C52 C57 1.373 . S
C53 C52 1.394 . S
C53 C54 1.380 . S
C53 H76 0.930 . S
C54 C53 1.380 . S
C54 C55 1.376 . S
C54 H77 0.930 . S
C55 C54 1.376 . S
C55 C56 1.370 . S
C56 C55 1.370 . S
C56 C57 1.396 . S
C56 H78 0.929 . S
C57 C52 1.373 . S
C57 C56 1.396 . S
C57 H79 0.929 . S
C58 O68 1.240 . S
C58 O69 1.289 . S
C59 O70 1.258 . S
C59 O71 1.256 . S
O60 La40 2.521 1_565 S
O60 C42 1.261 . S
O61 La40 2.628 1_565 S
O61 C42 1.243 . S
O62 La40 2.554 . S
O62 C49 1.240 . S
O63 La40 2.757 . S
O63 La41 2.482 . S
O63 C49 1.289 . S
O64 La40 2.470 1_565 S
O64 C50 1.258 . S
O65 La41 2.503 1_565 S
O65 C50 1.256 . S
O66 La41 2.521 . S
O66 C51 1.261 . S
O67 La41 2.628 . S
O67 C51 1.243 . S
O68 La41 2.554 . S
O68 C58 1.240 . S
O69 La40 2.482 . S
O69 La41 2.757 . S
O69 C58 1.289 . S
O70 La41 2.470 . S
O70 C59 1.258 . S
O71 La40 2.503 . S
O71 C59 1.256 . S
H72 C44 0.930 . S
H73 C45 0.930 . S
H74 C47 0.929 . S
H75 C48 0.929 . S
H76 C53 0.930 . S
H77 C54 0.930 . S
H78 C56 0.929 . S
H79 C57 0.929 . S
La80 C82 2.928 . S
La80 O100 2.521 . S
La80 O101 2.628 . S
La80 O102 2.554 . S
La80 O103 2.757 . S
La80 O104 2.470 . S
La80 O109 2.482 . S
La80 O111 2.503 . S
La81 C91 2.928 . S
La81 O103 2.482 . S
La81 O105 2.503 . S
La81 O106 2.521 . S
La81 O107 2.628 . S
La81 O108 2.554 . S
La81 O109 2.757 . S
La81 O110 2.470 . S
C82 La80 2.928 . S
C82 C83 1.503 . S
C82 O100 1.261 . S
C82 O101 1.243 . S
C83 C82 1.503 . S
C83 C84 1.394 . S
C83 C88 1.373 . S
C84 C83 1.394 . S
C84 C85 1.380 . S
C84 H112 0.930 . S
C85 C84 1.380 . S
C85 C86 1.376 . S
C85 H113 0.930 . S
C86 C85 1.376 . S
C86 C87 1.370 . S
C87 C86 1.370 . S
C87 C88 1.396 . S
C87 H114 0.929 . S
C88 C83 1.373 . S
C88 C87 1.396 . S
C88 H115 0.929 . S
C89 O102 1.240 . S
C89 O103 1.289 . S
C90 O104 1.258 . S
C90 O105 1.256 . S
C91 La81 2.928 . S
C91 C92 1.503 . S
C91 O106 1.261 . S
C91 O107 1.243 . S
C92 C91 1.503 . S
C92 C93 1.394 . S
C92 C97 1.373 . S
C93 C92 1.394 . S
C93 C94 1.380 . S
C93 H116 0.930 . S
C94 C93 1.380 . S
C94 C95 1.376 . S
C94 H117 0.930 . S
C95 C94 1.376 . S
C95 C96 1.370 . S
C96 C95 1.370 . S
C96 C97 1.396 . S
C96 H118 0.929 . S
C97 C92 1.373 . S
C97 C96 1.396 . S
C97 H119 0.929 . S
C98 O108 1.240 . S
C98 O109 1.289 . S
C99 O110 1.258 . S
C99 O111 1.256 . S
O100 La80 2.521 . S
O100 C82 1.261 . S
O101 La80 2.628 . S
O101 C82 1.243 . S
O102 La80 2.554 . S
O102 C89 1.240 . S
O103 La80 2.757 . S
O103 La81 2.482 . S
O103 C89 1.289 . S
O104 La80 2.470 . S
O104 C90 1.258 . S
O105 La81 2.503 . S
O105 C90 1.256 . S
O106 La81 2.521 . S
O106 C91 1.261 . S
O107 La81 2.628 . S
O107 C91 1.243 . S
O108 La81 2.554 . S
O108 C98 1.240 . S
O109 La80 2.482 . S
O109 La81 2.757 . S
O109 C98 1.289 . S
O110 La81 2.470 . S
O110 C99 1.258 . S
O111 La80 2.503 . S
O111 C99 1.256 . S
H112 C84 0.930 . S
H113 C85 0.930 . S
H114 C87 0.929 . S
H115 C88 0.929 . S
H116 C93 0.930 . S
H117 C94 0.930 . S
H118 C96 0.929 . S
H119 C97 0.929 . S
H120 C127 0.929 . S
H121 C130 0.930 . S
H122 C132 0.929 . S
H123 C124 0.969 . S
C124 H123 0.969 . S
C124 O125 1.550 . S
C124 H126 0.973 . S
O125 C124 1.550 . S
O125 C131 1.412 . S
H126 C124 0.973 . S
C127 H120 0.929 . S
C127 C128 1.400 . S
C127 C129 1.364 . S
C128 C127 1.400 . S
C128 C132 1.377 . S
C129 C127 1.364 . S
C129 C130 1.374 1_545 S
C130 H121 0.930 . S
C130 C129 1.374 1_565 S
C130 C131 1.383 . S
C131 O125 1.412 . S
C131 C130 1.383 . S
C131 C132 1.394 1_565 S
C132 H122 0.929 . S
C132 C128 1.377 . S
C132 C131 1.394 1_545 S
H133 C140 0.929 . S
H134 C143 0.930 . S
H135 C145 0.929 . S
H136 C137 0.969 . S
C137 H136 0.969 . S
C137 O138 1.550 . S
C137 H139 0.973 . S
O138 C137 1.550 . S
O138 C144 1.412 . S
H139 C137 0.973 . S
C140 H133 0.929 . S
C140 C141 1.400 . S
C140 C142 1.364 . S
C141 C140 1.400 . S
C141 C145 1.377 . S
C142 C140 1.364 . S
C142 C143 1.374 . S
C143 H134 0.930 . S
C143 C142 1.374 . S
C143 C144 1.383 . S
C144 O138 1.412 . S
C144 C143 1.383 . S
C144 C145 1.394 . S
C145 H135 0.929 . S
C145 C141 1.377 . S
C145 C144 1.394 . S
H146 C153 0.929 . S
H147 C156 0.930 . S
H148 C158 0.929 . S
H149 C150 0.969 . S
C150 H149 0.969 . S
C150 O151 1.550 . S
C150 H152 0.973 . S
O151 C150 1.550 . S
O151 C157 1.412 . S
H152 C150 0.973 . S
C153 H146 0.929 . S
C153 C154 1.400 . S
C153 C155 1.364 . S
C154 C153 1.400 . S
C154 C158 1.377 . S
C155 C153 1.364 . S
C155 C156 1.374 . S
C156 H147 0.930 . S
C156 C155 1.374 . S
C156 C157 1.383 . S
C157 O151 1.412 . S
C157 C156 1.383 . S
C157 C158 1.394 . S
C158 H148 0.929 . S
C158 C154 1.377 . S
C158 C157 1.394 . S
H159 C166 0.929 . S
H160 C169 0.930 . S
H161 C171 0.929 . S
H162 C163 0.969 . S
C163 H162 0.969 . S
C163 O164 1.550 . S
C163 H165 0.973 . S
O164 C163 1.550 . S
O164 C170 1.412 . S
H165 C163 0.973 . S
C166 H159 0.929 . S
C166 C167 1.400 . S
C166 C168 1.364 1_655 S
C167 C166 1.400 . S
C167 C171 1.377 1_655 S
C168 C166 1.364 1_455 S
C168 C169 1.374 . S
C169 H160 0.930 . S
C169 C168 1.374 . S
C169 C170 1.383 . S
C170 O164 1.412 . S
C170 C169 1.383 . S
C170 C171 1.394 . S
C171 H161 0.929 . S
C171 C167 1.377 1_455 S
C171 C170 1.394 . S
H172 C179 0.929 . S
H173 C182 0.930 . S
H174 C184 0.929 . S
H175 C176 0.969 . S
C176 H175 0.969 . S
C176 O177 1.550 . S
C176 H178 0.973 . S
O177 C176 1.550 . S
O177 C183 1.412 . S
H178 C176 0.973 . S
C179 H172 0.929 . S
C179 C180 1.400 . S
C179 C181 1.364 1_565 S
C180 C179 1.400 . S
C180 C184 1.377 1_565 S
C181 C179 1.364 1_545 S
C181 C182 1.374 . S
C182 H173 0.930 . S
C182 C181 1.374 . S
C182 C183 1.383 . S
C183 O177 1.412 . S
C183 C182 1.383 . S
C183 C184 1.394 . S
C184 H174 0.929 . S
C184 C180 1.377 1_545 S
C184 C183 1.394 . S
H185 C192 0.929 . S
H186 C195 0.930 . S
H187 C197 0.929 . S
H188 C189 0.969 . S
C189 H188 0.969 . S
C189 O190 1.550 . S
C189 H191 0.973 . S
O190 C189 1.550 . S
O190 C196 1.412 . S
H191 C189 0.973 . S
C192 H185 0.929 . S
C192 C193 1.400 . S
C192 C194 1.364 . S
C193 C192 1.400 . S
C193 C197 1.377 . S
C194 C192 1.364 . S
C194 C195 1.374 . S
C195 H186 0.930 . S
C195 C194 1.374 . S
C195 C196 1.383 . S
C196 O190 1.412 . S
C196 C195 1.383 . S
C196 C197 1.394 . S
C197 H187 0.929 . S
C197 C193 1.377 . S
C197 C196 1.394 . S
H198 C210 0.930 . S
H199 C212 0.930 . S
H200 C213 0.930 . S
H201 C217 0.959 . S
H202 C217 0.959 . S
H203 C217 0.961 . S
H204 C218 0.960 . S
H205 C218 0.961 . S
H206 C218 0.959 . S
H207 C221 0.929 . S
H208 C222 0.931 . S
H209 C224 0.930 . S
C210 H198 0.930 . S
C210 C211 1.399 . S
C210 C215 1.399 . S
C211 C210 1.399 . S
C211 C212 1.376 . S
C212 H199 0.930 . S
C212 C211 1.376 . S
C212 C213 1.388 . S
C213 H200 0.930 . S
C213 C212 1.388 . S
C213 C214 1.390 . S
C214 C213 1.390 . S
C214 C215 1.394 . S
C214 C220 1.465 . S
C215 C210 1.399 . S
C215 C214 1.394 . S
C215 C216 1.516 . S
C216 C215 1.516 . S
C216 C217 1.502 . S
C216 C218 1.561 . S
C216 C219 1.526 . S
C217 H201 0.959 . S
C217 H202 0.959 . S
C217 H203 0.961 . S
C217 C216 1.502 . S
C218 H204 0.960 . S
C218 H205 0.961 . S
C218 H206 0.959 . S
C218 C216 1.561 . S
C219 C216 1.526 . S
C219 C220 1.396 . S
C219 C224 1.390 . S
C220 C214 1.465 . S
C220 C219 1.396 . S
C220 C221 1.399 . S
C221 H207 0.929 . S
C221 C220 1.399 . S
C221 C222 1.385 . S
C222 H208 0.931 . S
C222 C221 1.385 . S
C222 C223 1.389 . S
C223 C222 1.389 . S
C223 C224 1.387 . S
C224 H209 0.930 . S
C224 C219 1.390 . S
C224 C223 1.387 . S
H225 C237 0.930 . S
H226 C239 0.930 . S
H227 C240 0.930 . S
H228 C244 0.959 . S
H229 C244 0.959 . S
H230 C244 0.961 . S
H231 C245 0.960 . S
H232 C245 0.961 . S
H233 C245 0.959 . S
H234 C248 0.929 . S
H235 C249 0.931 . S
H236 C251 0.930 . S
C237 H225 0.930 . S
C237 C238 1.399 . S
C237 C242 1.399 . S
C238 C237 1.399 . S
C238 C239 1.376 . S
C239 H226 0.930 . S
C239 C238 1.376 . S
C239 C240 1.388 . S
C240 H227 0.930 . S
C240 C239 1.388 . S
C240 C241 1.390 . S
C241 C240 1.390 . S
C241 C242 1.394 . S
C241 C247 1.465 . S
C242 C237 1.399 . S
C242 C241 1.394 . S
C242 C243 1.516 . S
C243 C242 1.516 . S
C243 C244 1.502 . S
C243 C245 1.561 . S
C243 C246 1.526 . S
C244 H228 0.959 . S
C244 H229 0.959 . S
C244 H230 0.961 . S
C244 C243 1.502 . S
C245 H231 0.960 . S
C245 H232 0.961 . S
C245 H233 0.959 . S
C245 C243 1.561 . S
C246 C243 1.526 . S
C246 C247 1.396 . S
C246 C251 1.390 . S
C247 C241 1.465 . S
C247 C246 1.396 . S
C247 C248 1.399 . S
C248 H234 0.929 . S
C248 C247 1.399 . S
C248 C249 1.385 . S
C249 H235 0.931 . S
C249 C248 1.385 . S
C249 C250 1.389 . S
C250 C249 1.389 . S
C250 C251 1.387 . S
C251 H236 0.930 . S
C251 C246 1.390 . S
C251 C250 1.387 . S
H252 C264 0.930 . S
H253 C266 0.930 . S
H254 C267 0.930 . S
H255 C271 0.959 . S
H256 C271 0.959 . S
H257 C271 0.961 . S
H258 C272 0.960 . S
H259 C272 0.961 . S
H260 C272 0.959 . S
H261 C275 0.929 . S
H262 C276 0.931 . S
H263 C278 0.930 . S
C264 H252 0.930 . S
C264 C265 1.399 . S
C264 C269 1.399 . S
C265 C264 1.399 . S
C265 C266 1.376 . S
C266 H253 0.930 . S
C266 C265 1.376 . S
C266 C267 1.388 . S
C267 H254 0.930 . S
C267 C266 1.388 . S
C267 C268 1.390 . S
C268 C267 1.390 . S
C268 C269 1.394 . S
C268 C274 1.465 . S
C269 C264 1.399 . S
C269 C268 1.394 . S
C269 C270 1.516 . S
C270 C269 1.516 . S
C270 C271 1.502 . S
C270 C272 1.561 . S
C270 C273 1.526 . S
C271 H255 0.959 . S
C271 H256 0.959 . S
C271 H257 0.961 . S
C271 C270 1.502 . S
C272 H258 0.960 . S
C272 H259 0.961 . S
C272 H260 0.959 . S
C272 C270 1.561 . S
C273 C270 1.526 . S
C273 C274 1.396 . S
C273 C278 1.390 . S
C274 C268 1.465 . S
C274 C273 1.396 . S
C274 C275 1.399 . S
C275 H261 0.929 . S
C275 C274 1.399 . S
C275 C276 1.385 . S
C276 H262 0.931 . S
C276 C275 1.385 . S
C276 C277 1.389 . S
C277 C276 1.389 . S
C277 C278 1.387 . S
C278 H263 0.930 . S
C278 C273 1.390 . S
C278 C277 1.387 . S
H279 C291 0.930 . S
H280 C293 0.930 . S
H281 C294 0.930 . S
H282 C298 0.959 . S
H283 C298 0.959 . S
H284 C298 0.961 . S
H285 C299 0.960 . S
H286 C299 0.961 . S
H287 C299 0.959 . S
H288 C302 0.929 . S
H289 C303 0.931 . S
H290 C305 0.930 . S
C291 H279 0.930 . S
C291 C292 1.399 . S
C291 C296 1.399 . S
C292 C291 1.399 . S
C292 C293 1.376 . S
C293 H280 0.930 . S
C293 C292 1.376 . S
C293 C294 1.388 . S
C294 H281 0.930 . S
C294 C293 1.388 . S
C294 C295 1.390 . S
C295 C294 1.390 . S
C295 C296 1.394 . S
C295 C301 1.465 . S
C296 C291 1.399 . S
C296 C295 1.394 . S
C296 C297 1.516 . S
C297 C296 1.516 . S
C297 C298 1.502 . S
C297 C299 1.561 . S
C297 C300 1.526 . S
C298 H282 0.959 . S
C298 H283 0.959 . S
C298 H284 0.961 . S
C298 C297 1.502 . S
C299 H285 0.960 . S
C299 H286 0.961 . S
C299 H287 0.959 . S
C299 C297 1.561 . S
C300 C297 1.526 . S
C300 C301 1.396 . S
C300 C305 1.390 . S
C301 C295 1.465 . S
C301 C300 1.396 . S
C301 C302 1.399 . S
C302 H288 0.929 . S
C302 C301 1.399 . S
C302 C303 1.385 . S
C303 H289 0.931 . S
C303 C302 1.385 . S
C303 C304 1.389 . S
C304 C303 1.389 . S
C304 C305 1.387 . S
C305 H290 0.930 . S
C305 C300 1.390 . S
C305 C304 1.387 . S
H306 C318 0.930 . S
H307 C320 0.930 . S
H308 C321 0.930 . S
H309 C325 0.959 . S
H310 C325 0.959 . S
H311 C325 0.961 . S
H312 C326 0.960 . S
H313 C326 0.961 . S
H314 C326 0.959 . S
H315 C329 0.929 . S
H316 C330 0.931 . S
H317 C332 0.930 . S
C318 H306 0.930 . S
C318 C319 1.399 . S
C318 C323 1.399 . S
C319 C318 1.399 . S
C319 C320 1.376 . S
C320 H307 0.930 . S
C320 C319 1.376 . S
C320 C321 1.388 . S
C321 H308 0.930 . S
C321 C320 1.388 . S
C321 C322 1.390 . S
C322 C321 1.390 . S
C322 C323 1.394 . S
C322 C328 1.465 . S
C323 C318 1.399 . S
C323 C322 1.394 . S
C323 C324 1.516 . S
C324 C323 1.516 . S
C324 C325 1.502 . S
C324 C326 1.561 . S
C324 C327 1.526 . S
C325 H309 0.959 . S
C325 H310 0.959 . S
C325 H311 0.961 . S
C325 C324 1.502 . S
C326 H312 0.960 . S
C326 H313 0.961 . S
C326 H314 0.959 . S
C326 C324 1.561 . S
C327 C324 1.526 . S
C327 C328 1.396 . S
C327 C332 1.390 . S
C328 C322 1.465 . S
C328 C327 1.396 . S
C328 C329 1.399 . S
C329 H315 0.929 . S
C329 C328 1.399 . S
C329 C330 1.385 . S
C330 H316 0.931 . S
C330 C329 1.385 . S
C330 C331 1.389 . S
C331 C330 1.389 . S
C331 C332 1.387 . S
C332 H317 0.930 . S
C332 C327 1.390 . S
C332 C331 1.387 . S
H333 C345 0.930 . S
H334 C347 0.930 . S
H335 C348 0.930 . S
H336 C352 0.959 . S
H337 C352 0.959 . S
H338 C352 0.961 . S
H339 C353 0.960 . S
H340 C353 0.961 . S
H341 C353 0.959 . S
H342 C356 0.929 . S
H343 C357 0.931 . S
H344 C359 0.930 . S
C345 H333 0.930 . S
C345 C346 1.399 . S
C345 C350 1.399 . S
C346 C345 1.399 . S
C346 C347 1.376 . S
C347 H334 0.930 . S
C347 C346 1.376 . S
C347 C348 1.388 . S
C348 H335 0.930 . S
C348 C347 1.388 . S
C348 C349 1.390 . S
C349 C348 1.390 . S
C349 C350 1.394 . S
C349 C355 1.465 . S
C350 C345 1.399 . S
C350 C349 1.394 . S
C350 C351 1.516 . S
C351 C350 1.516 . S
C351 C352 1.502 . S
C351 C353 1.561 . S
C351 C354 1.526 . S
C352 H336 0.959 . S
C352 H337 0.959 . S
C352 H338 0.961 . S
C352 C351 1.502 . S
C353 H339 0.960 . S
C353 H340 0.961 . S
C353 H341 0.959 . S
C353 C351 1.561 . S
C354 C351 1.526 . S
C354 C355 1.396 . S
C354 C359 1.390 . S
C355 C349 1.465 . S
C355 C354 1.396 . S
C355 C356 1.399 . S
C356 H342 0.929 . S
C356 C355 1.399 . S
C356 C357 1.385 . S
C357 H343 0.931 . S
C357 C356 1.385 . S
C357 C358 1.389 . S
C358 C357 1.389 . S
C358 C359 1.387 . S
C359 H344 0.930 . S
C359 C354 1.390 . S
C359 C358 1.387 . S
H360 C372 0.930 . S
H361 C374 0.930 . S
H362 C375 0.930 . S
H363 C379 0.959 . S
H364 C379 0.959 . S
H365 C379 0.961 . S
H366 C380 0.960 . S
H367 C380 0.961 . S
H368 C380 0.959 . S
H369 C383 0.929 . S
H370 C384 0.931 . S
H371 C386 0.930 . S
C372 H360 0.930 . S
C372 C373 1.399 . S
C372 C377 1.399 . S
C373 C372 1.399 . S
C373 C374 1.376 . S
C374 H361 0.930 . S
C374 C373 1.376 . S
C374 C375 1.388 . S
C375 H362 0.930 . S
C375 C374 1.388 . S
C375 C376 1.390 . S
C376 C375 1.390 . S
C376 C377 1.394 . S
C376 C382 1.465 . S
C377 C372 1.399 . S
C377 C376 1.394 . S
C377 C378 1.516 . S
C378 C377 1.516 . S
C378 C379 1.502 . S
C378 C380 1.561 . S
C378 C381 1.526 . S
C379 H363 0.959 . S
C379 H364 0.959 . S
C379 H365 0.961 . S
C379 C378 1.502 . S
C380 H366 0.960 . S
C380 H367 0.961 . S
C380 H368 0.959 . S
C380 C378 1.561 . S
C381 C378 1.526 . S
C381 C382 1.396 . S
C381 C386 1.390 . S
C382 C376 1.465 . S
C382 C381 1.396 . S
C382 C383 1.399 . S
C383 H369 0.929 . S
C383 C382 1.399 . S
C383 C384 1.385 . S
C384 H370 0.931 . S
C384 C383 1.385 . S
C384 C385 1.389 . S
C385 C384 1.389 . S
C385 C386 1.387 . S
C386 H371 0.930 . S
C386 C381 1.390 . S
C386 C385 1.387 . S
H387 C399 0.930 . S
H388 C401 0.930 . S
H389 C402 0.930 . S
H390 C406 0.959 . S
H391 C406 0.959 . S
H392 C406 0.961 . S
H393 C407 0.960 . S
H394 C407 0.961 . S
H395 C407 0.959 . S
H396 C410 0.929 . S
H397 C411 0.931 1_455 S
H398 C413 0.930 . S
C399 H387 0.930 . S
C399 C400 1.399 . S
C399 C404 1.399 . S
C400 C399 1.399 . S
C400 C401 1.376 . S
C401 H388 0.930 . S
C401 C400 1.376 . S
C401 C402 1.388 . S
C402 H389 0.930 . S
C402 C401 1.388 . S
C402 C403 1.390 . S
C403 C402 1.390 . S
C403 C404 1.394 . S
C403 C409 1.465 . S
C404 C399 1.399 . S
C404 C403 1.394 . S
C404 C405 1.516 . S
C405 C404 1.516 . S
C405 C406 1.502 . S
C405 C407 1.561 . S
C405 C408 1.526 . S
C406 H390 0.959 . S
C406 H391 0.959 . S
C406 H392 0.961 . S
C406 C405 1.502 . S
C407 H393 0.960 . S
C407 H394 0.961 . S
C407 H395 0.959 . S
C407 C405 1.561 . S
C408 C405 1.526 . S
C408 C409 1.396 . S
C408 C413 1.390 . S
C409 C403 1.465 . S
C409 C408 1.396 . S
C409 C410 1.399 . S
C410 H396 0.929 . S
C410 C409 1.399 . S
C410 C411 1.385 . S
C411 H397 0.931 1_655 S
C411 C410 1.385 . S
C411 C412 1.389 . S
C412 C411 1.389 . S
C412 C413 1.387 . S
C413 H398 0.930 . S
C413 C408 1.390 . S
C413 C412 1.387 . S
H414 C426 0.930 . S
H415 C428 0.930 . S
H416 C429 0.930 . S
H417 C433 0.959 . S
H418 C433 0.959 . S
H419 C433 0.961 . S
H420 C434 0.960 . S
H421 C434 0.961 . S
H422 C434 0.959 . S
H423 C437 0.929 . S
H424 C438 0.931 . S
H425 C440 0.930 . S
C426 H414 0.930 . S
C426 C427 1.399 . S
C426 C431 1.399 . S
C427 C426 1.399 . S
C427 C428 1.376 . S
C428 H415 0.930 . S
C428 C427 1.376 . S
C428 C429 1.388 . S
C429 H416 0.930 . S
C429 C428 1.388 . S
C429 C430 1.390 . S
C430 C429 1.390 . S
C430 C431 1.394 . S
C430 C436 1.465 . S
C431 C426 1.399 . S
C431 C430 1.394 . S
C431 C432 1.516 . S
C432 C431 1.516 . S
C432 C433 1.502 . S
C432 C434 1.561 . S
C432 C435 1.526 . S
C433 H417 0.959 . S
C433 H418 0.959 . S
C433 H419 0.961 . S
C433 C432 1.502 . S
C434 H420 0.960 . S
C434 H421 0.961 . S
C434 H422 0.959 . S
C434 C432 1.561 . S
C435 C432 1.526 . S
C435 C436 1.396 . S
C435 C440 1.390 . S
C436 C430 1.465 . S
C436 C435 1.396 . S
C436 C437 1.399 . S
C437 H423 0.929 . S
C437 C436 1.399 . S
C437 C438 1.385 . S
C438 H424 0.931 . S
C438 C437 1.385 . S
C438 C439 1.389 . S
C439 C438 1.389 . S
C439 C440 1.387 . S
C440 H425 0.930 . S
C440 C435 1.390 . S
C440 C439 1.387 . S
H441 C453 0.930 . S
H442 C455 0.930 . S
H443 C456 0.930 . S
H444 C460 0.959 . S
H445 C460 0.959 . S
H446 C460 0.961 . S
H447 C461 0.960 . S
H448 C461 0.961 . S
H449 C461 0.959 . S
H450 C464 0.929 . S
H451 C465 0.931 . S
H452 C467 0.930 . S
C453 H441 0.930 . S
C453 C454 1.399 . S
C453 C458 1.399 . S
C454 C453 1.399 . S
C454 C455 1.376 . S
C455 H442 0.930 . S
C455 C454 1.376 . S
C455 C456 1.388 . S
C456 H443 0.930 . S
C456 C455 1.388 . S
C456 C457 1.390 . S
C457 C456 1.390 . S
C457 C458 1.394 . S
C457 C463 1.465 . S
C458 C453 1.399 . S
C458 C457 1.394 . S
C458 C459 1.516 . S
C459 C458 1.516 . S
C459 C460 1.502 . S
C459 C461 1.561 . S
C459 C462 1.526 . S
C460 H444 0.959 . S
C460 H445 0.959 . S
C460 H446 0.961 . S
C460 C459 1.502 . S
C461 H447 0.960 . S
C461 H448 0.961 . S
C461 H449 0.959 . S
C461 C459 1.561 . S
C462 C459 1.526 . S
C462 C463 1.396 . S
C462 C467 1.390 . S
C463 C457 1.465 . S
C463 C462 1.396 . S
C463 C464 1.399 . S
C464 H450 0.929 . S
C464 C463 1.399 . S
C464 C465 1.385 . S
C465 H451 0.931 . S
C465 C464 1.385 . S
C465 C466 1.389 . S
C466 C465 1.389 . S
C466 C467 1.387 . S
C467 H452 0.930 . S
C467 C462 1.390 . S
C467 C466 1.387 . S
H468 C480 0.930 . S
H469 C482 0.930 . S
H470 C483 0.930 . S
H471 C487 0.959 . S
H472 C487 0.959 . S
H473 C487 0.961 . S
H474 C488 0.960 . S
H475 C488 0.961 . S
H476 C488 0.959 . S
H477 C491 0.929 . S
H478 C492 0.931 . S
H479 C494 0.930 . S
C480 H468 0.930 . S
C480 C481 1.399 . S
C480 C485 1.399 . S
C481 C480 1.399 . S
C481 C482 1.376 . S
C482 H469 0.930 . S
C482 C481 1.376 . S
C482 C483 1.388 . S
C483 H470 0.930 . S
C483 C482 1.388 . S
C483 C484 1.390 . S
C484 C483 1.390 . S
C484 C485 1.394 . S
C484 C490 1.465 . S
C485 C480 1.399 . S
C485 C484 1.394 . S
C485 C486 1.516 . S
C486 C485 1.516 . S
C486 C487 1.502 . S
C486 C488 1.561 . S
C486 C489 1.526 . S
C487 H471 0.959 . S
C487 H472 0.959 . S
C487 H473 0.961 . S
C487 C486 1.502 . S
C488 H474 0.960 . S
C488 H475 0.961 . S
C488 H476 0.959 . S
C488 C486 1.561 . S
C489 C486 1.526 . S
C489 C490 1.396 . S
C489 C494 1.390 . S
C490 C484 1.465 . S
C490 C489 1.396 . S
C490 C491 1.399 . S
C491 H477 0.929 . S
C491 C490 1.399 . S
C491 C492 1.385 . S
C492 H478 0.931 . S
C492 C491 1.385 . S
C492 C493 1.389 . S
C493 C492 1.389 . S
C493 C494 1.387 . S
C494 H479 0.930 . S
C494 C489 1.390 . S
C494 C493 1.387 . S
H495 C507 0.930 . S
H496 C509 0.930 . S
H497 C510 0.930 . S
H498 C514 0.959 . S
H499 C514 0.959 . S
H500 C514 0.961 . S
H501 C515 0.960 . S
H502 C515 0.961 . S
H503 C515 0.959 . S
H504 C518 0.929 . S
H505 C519 0.931 . S
H506 C521 0.930 . S
C507 H495 0.930 . S
C507 C508 1.399 . S
C507 C512 1.399 . S
C508 C507 1.399 . S
C508 C509 1.376 . S
C509 H496 0.930 . S
C509 C508 1.376 . S
C509 C510 1.388 . S
C510 H497 0.930 . S
C510 C509 1.388 . S
C510 C511 1.390 . S
C511 C510 1.390 . S
C511 C512 1.394 . S
C511 C517 1.465 . S
C512 C507 1.399 . S
C512 C511 1.394 . S
C512 C513 1.516 . S
C513 C512 1.516 . S
C513 C514 1.502 . S
C513 C515 1.561 . S
C513 C516 1.526 . S
C514 H498 0.959 . S
C514 H499 0.959 . S
C514 H500 0.961 . S
C514 C513 1.502 . S
C515 H501 0.960 . S
C515 H502 0.961 . S
C515 H503 0.959 . S
C515 C513 1.561 . S
C516 C513 1.526 . S
C516 C517 1.396 . S
C516 C521 1.390 . S
C517 C511 1.465 . S
C517 C516 1.396 . S
C517 C518 1.399 . S
C518 H504 0.929 . S
C518 C517 1.399 . S
C518 C519 1.385 . S
C519 H505 0.931 . S
C519 C518 1.385 . S
C519 C520 1.389 . S
C520 C519 1.389 . S
C520 C521 1.387 . S
C521 H506 0.930 . S
C521 C516 1.390 . S
C521 C520 1.387 . S
H522 C534 0.930 1_655 S
H523 C536 0.930 . S
H524 C537 0.930 . S
H525 C541 0.959 . S
H526 C541 0.959 1_556 S
H527 C541 0.961 1_655 S
H528 C542 0.960 1_554 S
H529 C542 0.961 . S
H530 C542 0.959 . S
H531 C545 0.929 . S
H532 C546 0.931 . S
H533 C548 0.930 . S
C534 H522 0.930 1_455 S
C534 C535 1.399 . S
C534 C539 1.399 . S
C535 C534 1.399 . S
C535 C536 1.376 . S
C536 H523 0.930 . S
C536 C535 1.376 . S
C536 C537 1.388 . S
C537 H524 0.930 . S
C537 C536 1.388 . S
C537 C538 1.390 . S
C538 C537 1.390 . S
C538 C539 1.394 . S
C538 C544 1.465 1_554 S
C539 C534 1.399 . S
C539 C538 1.394 . S
C539 C540 1.515 . S
C540 C539 1.515 . S
C540 C541 1.507 . S
C540 C542 1.556 1_454 S
C540 C543 1.526 1_554 S
C541 H525 0.959 . S
C541 H526 0.959 1_554 S
C541 H527 0.961 1_455 S
C541 C540 1.507 . S
C542 H528 0.960 1_556 S
C542 H529 0.961 . S
C542 H530 0.959 . S
C542 C540 1.556 1_656 S
C543 C540 1.526 1_556 S
C543 C544 1.396 . S
C543 C548 1.390 . S
C544 C538 1.465 1_556 S
C544 C543 1.396 . S
C544 C545 1.399 . S
C545 H531 0.929 . S
C545 C544 1.399 . S
C545 C546 1.385 . S
C546 H532 0.931 . S
C546 C545 1.385 . S
C546 C547 1.389 . S
C547 C546 1.389 . S
C547 C548 1.387 . S
C548 H533 0.930 . S
C548 C543 1.390 . S
C548 C547 1.387 . S
H549 C561 0.930 . S
H550 C563 0.930 . S
H551 C564 0.930 . S
H552 C568 0.959 . S
H553 C568 0.959 . S
H554 C568 0.961 . S
H555 C569 0.960 . S
H556 C569 0.961 . S
H557 C569 0.959 . S
H558 C572 0.929 . S
H559 C573 0.931 . S
H560 C575 0.930 . S
C561 H549 0.930 . S
C561 C562 1.399 1_565 S
C561 C566 1.399 1_565 S
C562 C561 1.399 1_545 S
C562 C563 1.376 . S
C563 H550 0.930 . S
C563 C562 1.376 . S
C563 C564 1.388 . S
C564 H551 0.930 . S
C564 C563 1.388 . S
C564 C565 1.390 . S
C565 C564 1.390 . S
C565 C566 1.394 . S
C565 C571 1.465 . S
C566 C561 1.399 1_545 S
C566 C565 1.394 . S
C566 C567 1.516 1_545 S
C567 C566 1.516 1_565 S
C567 C568 1.502 . S
C567 C569 1.561 . S
C567 C570 1.517 1_565 S
C568 H552 0.959 . S
C568 H553 0.959 . S
C568 H554 0.961 . S
C568 C567 1.502 . S
C569 H555 0.960 . S
C569 H556 0.961 . S
C569 H557 0.959 . S
C569 C567 1.561 . S
C570 C567 1.517 1_545 S
C570 C571 1.409 . S
C570 C575 1.387 1_545 S
C571 C565 1.465 . S
C571 C570 1.409 . S
C571 C572 1.399 . S
C572 H558 0.929 . S
C572 C571 1.399 . S
C572 C573 1.385 . S
C573 H559 0.931 . S
C573 C572 1.385 . S
C573 C574 1.389 . S
C574 C573 1.389 . S
C574 C575 1.387 1_545 S
C575 H560 0.930 . S
C575 C570 1.387 1_565 S
C575 C574 1.387 1_565 S
H576 C588 0.930 . S
H577 C590 0.930 . S
H578 C591 0.930 . S
H579 C595 0.959 . S
H580 C595 0.959 . S
H581 C595 0.961 . S
H582 C596 0.960 . S
H583 C596 0.961 . S
H584 C596 0.959 . S
H585 C599 0.929 . S
H586 C600 0.931 . S
H587 C602 0.930 . S
C588 H576 0.930 . S
C588 C589 1.399 . S
C588 C593 1.399 . S
C589 C588 1.399 . S
C589 C590 1.376 . S
C590 H577 0.930 . S
C590 C589 1.376 . S
C590 C591 1.388 . S
C591 H578 0.930 . S
C591 C590 1.388 . S
C591 C592 1.390 . S
C592 C591 1.390 . S
C592 C593 1.394 . S
C592 C598 1.465 . S
C593 C588 1.399 . S
C593 C592 1.394 . S
C593 C594 1.516 . S
C594 C593 1.516 . S
C594 C595 1.502 . S
C594 C596 1.561 . S
C594 C597 1.526 . S
C595 H579 0.959 . S
C595 H580 0.959 . S
C595 H581 0.961 . S
C595 C594 1.502 . S
C596 H582 0.960 . S
C596 H583 0.961 . S
C596 H584 0.959 . S
C596 C594 1.561 . S
C597 C594 1.526 . S
C597 C598 1.396 . S
C597 C602 1.390 . S
C598 C592 1.465 . S
C598 C597 1.396 . S
C598 C599 1.399 . S
C599 H585 0.929 . S
C599 C598 1.399 . S
C599 C600 1.385 . S
C600 H586 0.931 . S
C600 C599 1.385 . S
C600 C601 1.389 . S
C601 C600 1.389 . S
C601 C602 1.387 . S
C602 H587 0.930 . S
C602 C597 1.390 . S
C602 C601 1.387 . S
H603 C615 0.930 . S
H604 C617 0.930 . S
H605 C618 0.930 . S
H606 C622 0.959 . S
H607 C622 0.959 . S
H608 C622 0.961 . S
H609 C623 0.960 . S
H610 C623 0.961 . S
H611 C623 0.959 . S
H612 C626 0.929 . S
H613 C627 0.931 . S
H614 C629 0.930 . S
C615 H603 0.930 . S
C615 C616 1.399 . S
C615 C620 1.399 . S
C616 C615 1.399 . S
C616 C617 1.376 1_545 S
C617 H604 0.930 . S
C617 C616 1.376 1_565 S
C617 C618 1.388 . S
C618 H605 0.930 . S
C618 C617 1.388 . S
C618 C619 1.390 . S
C619 C618 1.390 . S
C619 C620 1.394 1_565 S
C619 C625 1.465 . S
C620 C615 1.399 . S
C620 C619 1.394 1_545 S
C620 C621 1.516 . S
C621 C620 1.516 . S
C621 C622 1.502 . S
C621 C623 1.561 . S
C621 C624 1.526 . S
C622 H606 0.959 . S
C622 H607 0.959 . S
C622 H608 0.961 . S
C622 C621 1.502 . S
C623 H609 0.960 . S
C623 H610 0.961 . S
C623 H611 0.959 . S
C623 C621 1.561 . S
C624 C621 1.526 . S
C624 C625 1.396 1_545 S
C624 C629 1.390 . S
C625 C619 1.465 . S
C625 C624 1.396 1_565 S
C625 C626 1.399 . S
C626 H612 0.929 . S
C626 C625 1.399 . S
C626 C627 1.385 . S
C627 H613 0.931 . S
C627 C626 1.385 . S
C627 C628 1.389 1_565 S
C628 C627 1.389 1_545 S
C628 C629 1.387 . S
C629 H614 0.930 . S
C629 C624 1.390 . S
C629 C628 1.387 . S
H630 C642 0.930 . S
H631 C644 0.930 . S
H632 C645 0.930 . S
H633 C649 0.959 . S
H634 C649 0.959 1_554 S
H635 C649 0.961 . S
H636 C650 0.960 . S
H637 C650 0.961 1_554 S
H638 C650 0.959 . S
H639 C653 0.956 . S
H640 C654 0.931 . S
H641 C656 0.930 . S
C642 H630 0.930 . S
C642 C643 1.399 . S
C642 C647 1.399 . S
C643 C642 1.399 . S
C643 C644 1.376 . S
C644 H631 0.930 . S
C644 C643 1.376 . S
C644 C645 1.388 . S
C645 H632 0.930 . S
C645 C644 1.388 . S
C645 C646 1.390 . S
C646 C645 1.390 . S
C646 C647 1.394 . S
C646 C652 1.465 . S
C647 C642 1.399 . S
C647 C646 1.394 . S
C647 C648 1.516 . S
C648 C647 1.516 . S
C648 C649 1.502 . S
C648 C650 1.561 . S
C648 C651 1.526 1_556 S
C649 H633 0.959 . S
C649 H634 0.959 1_556 S
C649 H635 0.961 . S
C649 C648 1.502 . S
C650 H636 0.960 . S
C650 H637 0.961 1_556 S
C650 H638 0.959 . S
C650 C648 1.561 . S
C651 C648 1.526 1_554 S
C651 C652 1.396 1_554 S
C651 C656 1.390 . S
C652 C646 1.465 . S
C652 C651 1.396 1_556 S
C652 C653 1.416 . S
C653 H639 0.956 . S
C653 C652 1.416 . S
C653 C654 1.341 1_556 S
C654 H640 0.931 . S
C654 C653 1.341 1_554 S
C654 C655 1.389 . S
C655 C654 1.389 . S
C655 C656 1.387 . S
C656 H641 0.930 . S
C656 C651 1.390 . S
C656 C655 1.387 . S
H657 C669 0.930 . S
H658 C671 0.930 . S
H659 C672 0.930 . S
H660 C676 0.959 . S
H661 C676 0.959 . S
H662 C676 0.961 . S
H663 C677 0.960 . S
H664 C677 0.961 . S
H665 C677 0.959 1_455 S
H666 C680 0.929 . S
H667 C681 0.931 . S
H668 C683 0.930 . S
C669 H657 0.930 . S
C669 C670 1.399 1_655 S
C669 C674 1.399 . S
C670 C669 1.399 1_455 S
C670 C671 1.376 . S
C671 H658 0.930 . S
C671 C670 1.376 . S
C671 C672 1.388 . S
C672 H659 0.930 . S
C672 C671 1.388 . S
C672 C673 1.390 . S
C673 C672 1.390 . S
C673 C674 1.394 1_455 S
C673 C679 1.465 . S
C674 C669 1.399 . S
C674 C673 1.394 1_655 S
C674 C675 1.516 . S
C675 C674 1.516 . S
C675 C676 1.502 . S
C675 C677 1.561 . S
C675 C678 1.526 . S
C676 H660 0.959 . S
C676 H661 0.959 . S
C676 H662 0.961 . S
C676 C675 1.502 . S
C677 H663 0.960 . S
C677 H664 0.961 . S
C677 H665 0.959 1_655 S
C677 C675 1.561 . S
C678 C675 1.526 . S
C678 C679 1.396 1_655 S
C678 C683 1.390 . S
C679 C673 1.465 . S
C679 C678 1.396 1_455 S
C679 C680 1.399 . S
C680 H666 0.929 . S
C680 C679 1.399 . S
C680 C681 1.385 . S
C681 H667 0.931 . S
C681 C680 1.385 . S
C681 C682 1.389 . S
C682 C681 1.389 . S
C682 C683 1.387 1_455 S
C683 H668 0.930 . S
C683 C678 1.390 . S
C683 C682 1.387 1_655 S
C211 C6 0.517 . S
C223 C189 0.520 . S
C238 C59 1.821 . S
C250 C167 1.777 . S
C265 C86 1.176 . S
C277 C180 1.203 . S
C292 C15 0.519 . S
C304 C193 0.251 . S
C331 C163 1.812 . S
C319 C50 1.971 . S
C358 C176 1.213 . S
C346 C95 1.304 . S
C373 C46 1.066 . S
C385 C141 1.058 . S
C400 C99 3.027 . S
C412 C154 3.012 1_655 S
C427 C10 2.018 . S
C439 C124 1.893 . S
C466 C137 1.245 . S
C454 C55 1.303 . S
C493 C150 2.928 . S
C481 C90 3.069 . S
C508 C19 1.829 . S
C520 C128 1.835 . S
C547 C155 1.744 . S
C535 C18 1.662 . S
C562 C49 1.479 . S
C574 C129 1.479 . S
C589 C98 1.524 . S
C601 C142 1.584 . S
C628 C181 1.538 . S
C616 C58 1.433 . S
C655 C194 1.321 . S
C643 C89 1.307 . S
C670 C9 1.395 . S
C682 C168 1.481 . S
