# Generated by pormake.
# Topology anh, (6,3)-cn, num edge types: 1
# Building blocks:
#     Node 0, Type 0, BuildingBlock: CUKXOW_clean_sbu_0, # of connection points: 6
#     Node 1, Type 0, BuildingBlock: CUKXOW_clean_sbu_0, # of connection points: 6
#     Node 2, Type 0, BuildingBlock: CUKXOW_clean_sbu_0, # of connection points: 6
#     Node 3, Type 1, BuildingBlock: BELTOD_clean_linker_0, # of connection points: 3
#     Node 4, Type 1, BuildingBlock: BELTOD_clean_linker_0, # of connection points: 3
#     Node 5, Type 1, BuildingBlock: BELTOD_clean_linker_0, # of connection points: 3
#     Node 6, Type 1, BuildingBlock: BELTOD_clean_linker_0, # of connection points: 3
#     Node 7, Type 1, BuildingBlock: BELTOD_clean_linker_0, # of connection points: 3
#     Node 8, Type 1, BuildingBlock: BELTOD_clean_linker_0, # of connection points: 3
#     Edge 9, Type (0, 1), BuildingBlock: OJICUG_clean_linker_0, # of connection points: 2
#     Edge 10, Type (0, 1), BuildingBlock: OJICUG_clean_linker_0, # of connection points: 2
#     Edge 11, Type (0, 1), BuildingBlock: OJICUG_clean_linker_0, # of connection points: 2
#     Edge 12, Type (0, 1), BuildingBlock: OJICUG_clean_linker_0, # of connection points: 2
#     Edge 13, Type (0, 1), BuildingBlock: OJICUG_clean_linker_0, # of connection points: 2
#     Edge 14, Type (0, 1), BuildingBlock: OJICUG_clean_linker_0, # of connection points: 2
#     Edge 15, Type (0, 1), BuildingBlock: OJICUG_clean_linker_0, # of connection points: 2
#     Edge 16, Type (0, 1), BuildingBlock: OJICUG_clean_linker_0, # of connection points: 2
#     Edge 17, Type (0, 1), BuildingBlock: OJICUG_clean_linker_0, # of connection points: 2
#     Edge 18, Type (0, 1), BuildingBlock: OJICUG_clean_linker_0, # of connection points: 2
#     Edge 19, Type (0, 1), BuildingBlock: OJICUG_clean_linker_0, # of connection points: 2
#     Edge 20, Type (0, 1), BuildingBlock: OJICUG_clean_linker_0, # of connection points: 2
#     Edge 21, Type (0, 1), BuildingBlock: OJICUG_clean_linker_0, # of connection points: 2
#     Edge 22, Type (0, 1), BuildingBlock: OJICUG_clean_linker_0, # of connection points: 2
#     Edge 23, Type (0, 1), BuildingBlock: OJICUG_clean_linker_0, # of connection points: 2
#     Edge 24, Type (0, 1), BuildingBlock: OJICUG_clean_linker_0, # of connection points: 2
#     Edge 25, Type (0, 1), BuildingBlock: OJICUG_clean_linker_0, # of connection points: 2
#     Edge 26, Type (0, 1), BuildingBlock: OJICUG_clean_linker_0, # of connection points: 2
# Relax obj value: 0.127
# Max RMSD: 0.188
# Mean RMSD: 0.133
data_MOF--net-anh--node1-CUKXOW_clean_sbu_0--node2-BELTOD_clean_linker_0--edge1-OJICUG_clean_linker_0
_symmetry_space_group_name_H-M    P1
_symmetry_Int_Tables_number       1
_symmetry_cell_setting            triclinic
loop_
_symmetry_equiv_pos_as_xyz
'x, y, z'
_cell_length_a     24.845968
_cell_length_b     23.968707
_cell_length_c     45.231889
_cell_angle_alpha  94.333179
_cell_angle_beta   90.387486
_cell_angle_gamma 111.3416
loop_
_atom_site_label
_atom_site_type_symbol
_atom_site_fract_x
_atom_site_fract_y
_atom_site_fract_z
_atom_type_partial_charge
Tb0 Tb 0.08278 0.57153 0.16199 0.0
C1 C 0.05717 0.4981 0.21821 0.0
Tb2 Tb 1.00577 0.43489 0.15494 0.0
O3 O 1.00933 0.59637 0.1493 0.0
O4 O 0.99441 0.51696 0.16887 0.0
O5 O 0.09411 0.54473 0.20578 0.0
C6 C 0.91724 0.33059 0.15622 0.0
O7 O 1.01392 0.45519 0.20297 0.0
C8 C 0.11809 0.45185 0.14915 0.0
C9 C 0.04167 0.50627 0.09892 0.0
O10 O 0.96593 0.34635 0.17113 0.0
O11 O 0.91832 0.3735 0.13998 0.0
O12 O 0.07611 0.39976 0.14602 0.0
O13 O 0.09389 0.4893 0.15431 0.0
O14 O 1.00004 0.46172 0.11029 0.0
O15 O 0.0846 0.54674 0.11521 0.0
C16 C 0.17104 0.67683 0.16569 0.0
O17 O 0.15886 0.63601 0.14367 0.0
O18 O 0.13331 0.65851 0.18606 0.0
C19 C 0.96964 0.54665 0.15598 0.0
Tb20 Tb 0.48134 0.99013 0.49585 0.0
C21 C 0.54011 0.03209 0.43628 0.0
Tb22 Tb 0.60771 0.0756 0.49815 0.0
O23 O 0.45087 0.06023 0.48193 0.0
O24 O 0.5271 0.08263 0.50703 0.0
O25 O 0.49875 0.98965 0.44891 0.0
C26 C 0.71076 0.16159 0.49267 0.0
O27 O 0.58221 0.07522 0.45189 0.0
C28 C 0.59178 0.96315 0.50467 0.0
C29 C 0.55094 0.0348 0.55771 0.0
O30 O 0.69462 0.10667 0.48105 0.0
O31 O 0.66884 0.16842 0.50761 0.0
O32 O 0.63571 0.00845 0.51607 0.0
O33 O 0.56222 0.98175 0.48794 0.0
O34 O 0.59039 0.07904 0.54491 0.0
O35 O 0.5085 0.99093 0.54229 0.0
C36 C 0.38462 0.893 0.49385 0.0
O37 O 0.39563 0.93985 0.51268 0.0
O38 O 0.42791 0.90087 0.47681 0.0
C39 C 0.49696 0.10405 0.49259 0.0
Tb40 Tb 0.47954 0.50022 0.82085 0.0
C41 C 0.54997 0.51278 0.88265 0.0
Tb42 Tb 0.6041 0.51171 0.8205 0.0
O43 O 0.44918 0.40376 0.80587 0.0
O44 O 0.52576 0.44583 0.83139 0.0
O45 O 0.50328 0.51452 0.86865 0.0
C46 C 0.70758 0.508 0.80905 0.0
O47 O 0.59397 0.50647 0.86808 0.0
C48 C 0.58636 0.61315 0.82642 0.0
C49 C 0.53196 0.48817 0.76 0.0
O50 O 0.68603 0.54461 0.7988 0.0
O51 O 0.67073 0.47314 0.82622 0.0
O52 O 0.62992 0.60525 0.83883 0.0
O53 O 0.55799 0.56666 0.81007 0.0
O54 O 0.57243 0.47659 0.77488 0.0
O55 O 0.49351 0.50618 0.77375 0.0
C56 C 0.39497 0.54142 0.82949 0.0
O57 O 0.38713 0.48486 0.82384 0.0
O58 O 0.44952 0.57351 0.8304 0.0
C59 C 0.49522 0.39773 0.81691 0.0
P60 P 0.5851 0.94978 0.21123 0.0
H61 H 0.52873 0.85848 0.16335 0.0
H62 H 0.42712 0.80516 0.14932 0.0
H63 H 0.38154 0.93022 0.20835 0.0
H64 H 0.48379 0.98297 0.22263 0.0
H65 H 0.70211 0.97059 0.19282 0.0
H66 H 0.77746 0.05705 0.1751 0.0
H67 H 0.65907 0.15189 0.17482 0.0
H68 H 0.58232 0.06305 0.19133 0.0
H69 H 0.54135 0.87621 0.25986 0.0
H70 H 0.61425 0.06568 0.24773 0.0
O71 O 0.60754 0.8919 0.20894 0.0
H72 H 0.52769 0.89933 0.31205 0.0
H73 H 0.5993 0.08919 0.29972 0.0
C74 C 0.51355 0.92367 0.1945 0.0
C75 C 0.49706 0.87538 0.17271 0.0
C76 C 0.43877 0.84505 0.16462 0.0
C77 C 0.39599 0.86284 0.1781 0.0
C78 C 0.41332 0.91468 0.19804 0.0
C79 C 0.4718 0.94507 0.20608 0.0
C80 C 0.63666 0.01048 0.19348 0.0
C81 C 0.69176 0.00936 0.18836 0.0
C82 C 0.73512 0.05922 0.17846 0.0
C83 C 0.72473 0.11195 0.1741 0.0
C84 C 0.66849 0.11194 0.17783 0.0
C85 C 0.62467 0.06136 0.18738 0.0
C86 C 0.57985 0.9691 0.25003 0.0
C87 C 0.55478 0.92284 0.26849 0.0
C88 C 0.54626 0.93614 0.29824 0.0
C89 C 0.56216 0.99615 0.31004 0.0
C90 C 0.58718 0.04253 0.2914 0.0
C91 C 0.59575 0.02908 0.26158 0.0
P92 P 0.61833 0.55195 0.53796 0.0
H93 H 0.66124 0.48646 0.49302 0.0
H94 H 0.62665 0.37967 0.47675 0.0
H95 H 0.46425 0.35416 0.51787 0.0
H96 H 0.49914 0.4615 0.53453 0.0
H97 H 0.69521 0.6753 0.53599 0.0
H98 H 0.68072 0.76725 0.52736 0.0
H99 H 0.49848 0.6675 0.50939 0.0
H100 H 0.51381 0.57346 0.51739 0.0
H101 H 0.67893 0.5275 0.58794 0.0
H102 H 0.51624 0.54809 0.57166 0.0
O103 O 0.68947 0.56773 0.53629 0.0
H104 H 0.65418 0.50856 0.639 0.0
H105 H 0.48916 0.52516 0.62235 0.0
C106 C 0.58344 0.48188 0.51574 0.0
C107 C 0.61745 0.45866 0.49778 0.0
C108 C 0.5977 0.39752 0.48843 0.0
C109 C 0.54323 0.35883 0.49647 0.0
C110 C 0.50645 0.38325 0.51141 0.0
C111 C 0.5265 0.4446 0.52101 0.0
C112 C 0.60573 0.6172 0.5271 0.0
C113 C 0.65214 0.67246 0.52967 0.0
C114 C 0.64369 0.72542 0.52503 0.0
C115 C 0.58827 0.72491 0.5182 0.0
C116 C 0.54169 0.66927 0.51462 0.0
C117 C 0.55037 0.61564 0.51921 0.0
C118 C 0.59982 0.54008 0.57604 0.0
C119 C 0.6377 0.52785 0.59533 0.0
C120 C 0.62298 0.51601 0.62455 0.0
C121 C 0.56933 0.51477 0.63499 0.0
C122 C 0.53119 0.52656 0.61538 0.0
C123 C 0.54649 0.53944 0.58625 0.0
P124 P 0.08923 0.70713 0.90529 0.0
H125 H 0.17632 0.75237 0.86156 0.0
H126 H 0.2476 0.71338 0.8405 0.0
H127 H 0.2064 0.58165 0.90522 0.0
H128 H 0.13535 0.6196 0.9257 0.0
H129 H 1.00319 0.74221 0.87552 0.0
H130 H 0.92187 0.68537 0.8413 0.0
H131 H 0.97685 0.53357 0.8376 0.0
H132 H 0.05813 0.59049 0.87161 0.0
H133 H 0.13634 0.74221 0.96542 0.0
H134 H 0.98848 0.60277 0.92109 0.0
O135 O 0.10555 0.78132 0.90801 0.0
H136 H 0.11913 0.68697 0.00978 0.0
H137 H 0.97214 0.54686 0.96504 0.0
C138 C 0.15147 0.68989 0.89555 0.0
C139 C 0.18396 0.71625 0.87168 0.0
C140 C 0.22417 0.69367 0.85955 0.0
C141 C 0.23167 0.644 0.87103 0.0
C142 C 0.20061 0.61928 0.89565 0.0
C143 C 0.16069 0.64187 0.90774 0.0
C144 C 0.03666 0.67071 0.87594 0.0
C145 C 0.99873 0.69744 0.86664 0.0
C146 C 0.95265 0.66507 0.84693 0.0
C147 C 0.94361 0.60528 0.83675 0.0
C148 C 0.98331 0.57968 0.84502 0.0
C149 C 0.02971 0.61232 0.86441 0.0
C150 C 0.06407 0.67669 0.9399 0.0
C151 C 0.09927 0.70065 0.9655 0.0
C152 C 0.08989 0.66857 0.99062 0.0
C153 C 0.04519 0.61188 0.99047 0.0
C154 C 1.00709 0.59021 0.96565 0.0
C155 C 1.01659 0.62235 0.94047 0.0
P156 P 0.10798 0.47167 0.44489 0.0
H157 H 0.17468 0.52995 0.49935 0.0
H158 H 0.22732 0.63625 0.5152 0.0
H159 H 0.14644 0.68662 0.44234 0.0
H160 H 0.09345 0.58058 0.42679 0.0
H161 H 0.07168 0.34871 0.46104 0.0
H162 H 0.97965 0.27821 0.47586 0.0
H163 H 0.90707 0.41708 0.47572 0.0
H164 H 1.00083 0.48846 0.46214 0.0
H165 H 0.19008 0.50775 0.39808 0.0
H166 H 1.00462 0.43816 0.40478 0.0
O167 O 0.16043 0.44536 0.45081 0.0
H168 H 0.17889 0.51351 0.34476 0.0
H169 H 0.99314 0.4451 0.35189 0.0
C170 C 0.13178 0.54762 0.46138 0.0
C171 C 0.16693 0.5639 0.48736 0.0
C172 C 0.19663 0.62457 0.49652 0.0
C173 C 0.19145 0.66938 0.47969 0.0
C174 C 0.15149 0.65276 0.45549 0.0
C175 C 0.12149 0.59219 0.44651 0.0
C176 C 0.04305 0.42379 0.46069 0.0
C177 C 0.03644 0.36445 0.46488 0.0
C178 C 0.98348 0.32395 0.47303 0.0
C179 C 0.93563 0.34167 0.47649 0.0
C180 C 0.94311 0.40204 0.47346 0.0
C181 C 0.99658 0.44286 0.46565 0.0
C182 C 0.09831 0.47156 0.40536 0.0
C183 C 0.14697 0.49328 0.38804 0.0
C184 C 0.14049 0.49713 0.35763 0.0
C185 C 0.08508 0.47966 0.34403 0.0
C186 C 0.0364 0.45799 0.36155 0.0
C187 C 0.04297 0.45416 0.39194 0.0
P188 P 0.62714 0.0421 0.78401 0.0
H189 H 0.67989 0.15984 0.81656 0.0
H190 H 0.64327 0.23959 0.82736 0.0
H191 H 0.46985 0.11598 0.80301 0.0
H192 H 0.50785 0.03625 0.79102 0.0
H193 H 0.69591 0.99069 0.81717 0.0
H194 H 0.67896 0.88979 0.83032 0.0
H195 H 0.50144 0.83269 0.79774 0.0
H196 H 0.51989 0.93462 0.78344 0.0
H197 H 0.60773 0.12678 0.74659 0.0
H198 H 0.60253 0.94433 0.73598 0.0
O199 O 0.69903 0.07582 0.78547 0.0
H200 H 0.5843 0.12236 0.69411 0.0
H201 H 0.58012 0.9402 0.6828 0.0
C202 C 0.59665 0.09189 0.80304 0.0
C203 C 0.63371 0.1491 0.81443 0.0
C204 C 0.61249 0.19502 0.82064 0.0
C205 C 0.55348 0.18473 0.81575 0.0
C206 C 0.51567 0.12592 0.80651 0.0
C207 C 0.53714 0.0799 0.80019 0.0
C208 C 0.60936 0.97014 0.79901 0.0
C209 C 0.65304 0.95687 0.81316 0.0
C210 C 0.64305 0.89882 0.82094 0.0
C211 C 0.58879 0.85254 0.81504 0.0
C212 C 0.54402 0.86685 0.80222 0.0
C213 C 0.55426 0.92525 0.79431 0.0
C214 C 0.60515 0.03524 0.7455 0.0
C215 C 0.60055 0.08526 0.73311 0.0
C216 C 0.58772 0.08297 0.70295 0.0
C217 C 0.58037 0.03094 0.68433 0.0
C218 C 0.58467 0.98057 0.69673 0.0
C219 C 0.59751 0.98292 0.72711 0.0
P220 P 0.52847 0.45064 0.10843 0.0
H221 H 0.59693 0.37689 0.11962 0.0
H222 H 0.6978 0.39956 0.1327 0.0
H223 H 0.7244 0.58806 0.14674 0.0
H224 H 0.62194 0.56465 0.13311 0.0
H225 H 0.45077 0.40476 0.15686 0.0
H226 H 0.35735 0.41092 0.1691 0.0
H227 H 0.38547 0.55018 0.10939 0.0
H228 H 0.4795 0.54434 0.09753 0.0
H229 H 0.62631 0.52402 0.07325 0.0
H230 H 0.44409 0.42002 0.05945 0.0
O231 O 0.49867 0.37568 0.10531 0.0
H232 H 0.63282 0.54446 0.02115 0.0
H233 H 0.45054 0.43943 0.00716 0.0
C234 C 0.60059 0.46881 0.12574 0.0
C235 C 0.62358 0.42314 0.12626 0.0
C236 C 0.68206 0.43624 0.1338 0.0
C237 C 0.7203 0.49579 0.14081 0.0
C238 C 0.69688 0.5416 0.1412 0.0
C239 C 0.63782 0.52826 0.13382 0.0
C240 C 0.47277 0.47371 0.12608 0.0
C241 C 0.43802 0.43821 0.14713 0.0
C242 C 0.38381 0.44114 0.15378 0.0
C243 C 0.36257 0.47999 0.13971 0.0
C244 C 0.39981 0.5195 0.12066 0.0
C245 C 0.4541 0.51631 0.11391 0.0
C246 C 0.53453 0.47051 0.07045 0.0
C247 C 0.58753 0.50579 0.0592 0.0
C248 C 0.59135 0.51718 0.02921 0.0
C249 C 0.54224 0.4936 0.00987 0.0
C250 C 0.4891 0.4591 0.02142 0.0
C251 C 0.48539 0.44766 0.05133 0.0
C252 C 0.22501 0.5191 0.14727 0.0
C253 C 0.18118 0.46171 0.14705 0.0
H254 H 0.31632 0.57036 0.14505 0.0
C255 C 0.19785 0.41141 0.14475 0.0
H256 H 0.21393 0.55885 0.14908 0.0
C257 C 0.25613 0.41784 0.14281 0.0
C258 C 0.30035 0.47491 0.14284 0.0
H259 H 0.16555 0.36646 0.14445 0.0
H260 H 0.26637 0.37753 0.14067 0.0
C261 C 0.28379 0.5256 0.14492 0.0
C262 C 0.80654 0.19526 0.46985 0.0
C263 C 0.76768 0.20831 0.4889 0.0
H264 H 0.88907 0.22734 0.45048 0.0
C265 C 0.78378 0.26573 0.50394 0.0
H266 H 0.79497 0.15147 0.45777 0.0
C267 C 0.83842 0.30933 0.50012 0.0
C268 C 0.8776 0.2961 0.48112 0.0
H269 H 0.75436 0.27677 0.51875 0.0
H270 H 0.85019 0.35303 0.51226 0.0
C271 C 0.86071 0.23867 0.46588 0.0
C272 C 0.54847 0.68315 0.80249 0.0
C273 C 0.58073 0.67226 0.82546 0.0
H274 H 0.52616 0.74861 0.78091 0.0
C275 C 0.61066 0.71946 0.84665 0.0
H276 H 0.52497 0.64744 0.78584 0.0
C277 C 0.61045 0.77718 0.84424 0.0
C278 C 0.58112 0.78932 0.82026 0.0
H279 H 0.63524 0.71202 0.86481 0.0
H280 H 0.63456 0.81265 0.86085 0.0
C281 C 0.54886 0.74114 0.79982 0.0
C282 C 0.88552 0.57243 0.13867 0.0
C283 C 0.90581 0.53302 0.15274 0.0
H284 H 0.81265 0.59207 0.12382 0.0
C285 C 0.86461 0.48185 0.16363 0.0
H286 H 0.91583 0.61227 0.12992 0.0
C287 C 0.80487 0.47026 0.16025 0.0
C288 C 0.78438 0.50962 0.14598 0.0
H289 H 0.87849 0.45078 0.17485 0.0
H290 H 0.77471 0.43045 0.16906 0.0
C291 C 0.826 0.56106 0.13538 0.0
C292 C 0.31585 0.8077 0.46268 0.0
C293 C 0.33104 0.83977 0.4906 0.0
H294 H 0.2588 0.72945 0.43743 0.0
C295 C 0.29688 0.81837 0.51488 0.0
H296 H 0.3415 0.8235 0.44361 0.0
C297 C 0.24973 0.76355 0.51144 0.0
C298 C 0.23547 0.73086 0.4835 0.0
H299 H 0.30814 0.84249 0.53663 0.0
H300 H 0.22522 0.74609 0.5306 0.0
C301 C 0.26824 0.75418 0.4591 0.0
C302 C 0.47811 0.29155 0.79727 0.0
C303 C 0.50586 0.34112 0.81766 0.0
H304 H 0.47192 0.20346 0.7803 0.0
C305 C 0.54568 0.33715 0.8388 0.0
H306 H 0.44727 0.29359 0.78074 0.0
C307 C 0.55873 0.28529 0.83913 0.0
C308 C 0.53321 0.23637 0.81792 0.0
H309 H 0.56718 0.37442 0.85508 0.0
H310 H 0.58965 0.28403 0.8558 0.0
C311 C 0.49194 0.23977 0.79725 0.0
C312 C 0.61036 0.88882 0.53406 0.0
C313 C 0.58235 0.90011 0.50949 0.0
H314 H 0.63233 0.82449 0.55649 0.0
C315 C 0.54995 0.85178 0.48928 0.0
H316 H 0.6347 0.92505 0.5503 0.0
C317 C 0.54911 0.79358 0.49266 0.0
C318 C 0.58047 0.78327 0.51634 0.0
H319 H 0.52776 0.85945 0.47021 0.0
H320 H 0.52646 0.75746 0.47603 0.0
C321 C 0.60912 0.83119 0.53755 0.0
C322 C 0.79363 0.4909 0.8282 0.0
C323 C 0.76924 0.51799 0.80835 0.0
H324 H 0.87004 0.49792 0.85265 0.0
C325 C 0.80542 0.56451 0.79242 0.0
H326 H 0.76645 0.45469 0.84057 0.0
C327 C 0.86448 0.58945 0.7994 0.0
C328 C 0.88782 0.56754 0.82211 0.0
H329 H 0.78748 0.58551 0.77664 0.0
H330 H 0.89094 0.629 0.78892 0.0
C331 C 0.85287 0.51558 0.83503 0.0
C332 C 0.24331 0.76464 0.19544 0.0
C333 C 0.22378 0.73131 0.16809 0.0
H334 H 0.31363 0.83252 0.22013 0.0
C335 C 0.25799 0.74686 0.14324 0.0
H336 H 0.21765 0.75339 0.21492 0.0
C337 C 0.31246 0.79257 0.14604 0.0
C338 C 0.33409 0.82327 0.17383 0.0
H339 H 0.24356 0.72216 0.1218 0.0
H340 H 0.33857 0.80228 0.12664 0.0
C341 C 0.29814 0.81018 0.19833 0.0
C342 C 0.55537 0.2104 0.50929 0.0
C343 C 0.5076 0.16891 0.49289 0.0
H344 H 0.6042 0.30274 0.52269 0.0
C345 C 0.47042 0.19013 0.47754 0.0
H346 H 0.58348 0.1954 0.52222 0.0
C347 C 0.48135 0.25206 0.47856 0.0
C348 C 0.53022 0.29331 0.49442 0.0
H349 H 0.43292 0.15896 0.46494 0.0
H350 H 0.45216 0.26775 0.46681 0.0
C351 C 0.56697 0.27184 0.50976 0.0
C352 C 0.36666 0.62928 0.84031 0.0
C353 C 0.3507 0.56656 0.83665 0.0
H354 H 0.34123 0.70301 0.85422 0.0
C355 C 0.29414 0.5293 0.84212 0.0
H356 H 0.41018 0.65893 0.83608 0.0
C357 C 0.2547 0.55462 0.85253 0.0
C358 C 0.27144 0.61743 0.85743 0.0
H359 H 0.28105 0.48083 0.83934 0.0
H360 H 0.21143 0.52514 0.85724 0.0
C361 C 0.32728 0.65455 0.85055 0.0
C362 C 0.87377 0.23395 0.17886 0.0
C363 C 0.86791 0.27427 0.15934 0.0
H364 H 0.83326 0.15242 0.19924 0.0
C365 C 0.81463 0.26104 0.14417 0.0
H366 H 0.91419 0.24324 0.19107 0.0
C367 C 0.76784 0.20811 0.14864 0.0
C368 C 0.77381 0.16773 0.16831 0.0
H369 H 0.80903 0.2917 0.12909 0.0
H370 H 0.72721 0.19869 0.13664 0.0
C371 C 0.82736 0.18155 0.18338 0.0
C372 C 0.98712 0.51618 0.05449 0.0
C373 C 0.03887 0.51725 0.06762 0.0
H374 H 0.94858 0.54676 0.01959 0.0
C375 C 0.09086 0.54223 0.05313 0.0
H376 H 0.94665 0.49785 0.06558 0.0
C377 C 0.09208 0.5703 0.02722 0.0
C378 C 0.04136 0.57433 0.01542 0.0
H379 H 0.13127 0.54332 0.06285 0.0
H380 H 0.13323 0.59108 0.01708 0.0
C381 C 0.98835 0.54468 0.02844 0.0
C382 C 0.59108 0.06537 0.38948 0.0
C383 C 0.54238 0.02804 0.40354 0.0
H384 H 0.6359 0.08407 0.34903 0.0
C385 C 0.4981 0.98345 0.38619 0.0
H386 H 0.62604 0.10017 0.40217 0.0
C387 C 0.50364 0.97454 0.35567 0.0
C388 C 0.55365 0.00984 0.34184 0.0
H389 H 0.45974 0.95426 0.39624 0.0
H390 H 0.4691 0.93924 0.34298 0.0
C391 C 0.5967 0.0563 0.35896 0.0
C392 C 0.51246 0.52486 0.71232 0.0
C393 C 0.53476 0.48838 0.72738 0.0
H394 H 0.50729 0.5634 0.67185 0.0
C395 C 0.56471 0.45707 0.71142 0.0
H396 H 0.4897 0.55011 0.72409 0.0
C397 C 0.57381 0.46366 0.68121 0.0
C398 C 0.55426 0.50275 0.66637 0.0
H399 H 0.58202 0.42826 0.72239 0.0
H400 H 0.59702 0.43872 0.66963 0.0
C401 C 0.52247 0.53236 0.68224 0.0
C402 C 0.52296 0.98321 0.6047 0.0
C403 C 0.55649 0.0336 0.59019 0.0
H404 H 0.50421 0.94272 0.64602 0.0
C405 C 0.59749 0.08264 0.60689 0.0
H406 H 0.49123 0.94456 0.59242 0.0
C407 C 0.60499 0.0814 0.63733 0.0
C408 C 0.5717 0.03114 0.6519 0.0
H409 H 0.62426 0.12213 0.59648 0.0
H410 H 0.63762 0.11964 0.64941 0.0
C411 C 0.53067 0.98191 0.6353 0.0
C412 C 0.50398 0.51805 0.93155 0.0
C413 C 0.55034 0.51252 0.91549 0.0
H414 H 0.46555 0.51751 0.97379 0.0
C415 C 0.59557 0.50393 0.93104 0.0
H416 H 0.46855 0.52511 0.92041 0.0
C417 C 0.59364 0.49924 0.96172 0.0
C418 C 0.54644 0.50302 0.97762 0.0
H419 H 0.63195 0.4994 0.91944 0.0
H420 H 0.6283 0.49069 0.9728 0.0
C421 C 0.50207 0.51336 0.96219 0.0
C422 C 0.10774 0.5392 0.26777 0.0
C423 C 0.06412 0.49375 0.25042 0.0
H424 H 0.14806 0.57082 0.3109 0.0
C425 C 0.02753 0.44364 0.26411 0.0
H426 H 0.13663 0.57851 0.25801 0.0
C427 C 0.03441 0.43906 0.2944 0.0
C428 C 0.07801 0.48448 0.31176 0.0
H429 H 0.99365 0.40758 0.25144 0.0
H430 H 1.006 0.39946 0.30415 0.0
C431 C 0.11457 0.53463 0.29809 0.0
loop_
_geom_bond_atom_site_label_1
_geom_bond_atom_site_label_2
_geom_bond_distance
_geom_bond_site_symmetry_2
_ccdc_geom_bond_type
Tb0 O3 2.453 1_455 S
Tb0 O4 2.596 1_455 S
Tb0 O5 2.374 . S
Tb0 O13 2.343 . S
Tb0 O15 2.353 . S
Tb0 O17 2.427 . S
Tb0 O18 2.513 . S
C1 O5 1.251 . S
C1 O7 1.263 . S
Tb2 O4 2.343 1_455 S
Tb2 O7 2.353 . S
Tb2 O10 2.427 1_455 S
Tb2 O11 2.513 1_455 S
Tb2 O12 2.453 . S
Tb2 O13 2.596 . S
Tb2 O14 2.374 . S
O3 Tb0 2.453 1_655 S
O3 C19 1.245 . S
O4 Tb0 2.596 1_655 S
O4 Tb2 2.343 1_655 S
O4 C19 1.259 . S
O5 Tb0 2.374 . S
O5 C1 1.251 . S
C6 O10 1.275 . S
C6 O11 1.246 . S
O7 C1 1.263 . S
O7 Tb2 2.353 . S
C8 O12 1.245 . S
C8 O13 1.259 . S
C9 O14 1.250 . S
C9 O15 1.263 . S
O10 Tb2 2.427 1_655 S
O10 C6 1.275 . S
O11 Tb2 2.513 1_655 S
O11 C6 1.246 . S
O12 Tb2 2.453 . S
O12 C8 1.245 . S
O13 Tb0 2.343 . S
O13 Tb2 2.596 . S
O13 C8 1.259 . S
O14 Tb2 2.374 . S
O14 C9 1.250 . S
O15 Tb0 2.353 . S
O15 C9 1.263 . S
C16 O17 1.275 . S
C16 O18 1.246 . S
O17 Tb0 2.427 . S
O17 C16 1.275 . S
O18 Tb0 2.513 . S
O18 C16 1.246 . S
C19 O3 1.245 . S
C19 O4 1.259 . S
Tb20 O23 2.453 . S
Tb20 O24 2.596 . S
Tb20 O25 2.374 . S
Tb20 O33 2.343 1_545 S
Tb20 O35 2.353 . S
Tb20 O37 2.427 1_545 S
Tb20 O38 2.513 1_545 S
C21 O25 1.251 . S
C21 O27 1.263 . S
Tb22 O24 2.343 . S
Tb22 O27 2.353 . S
Tb22 O30 2.427 . S
Tb22 O31 2.513 . S
Tb22 O32 2.453 1_545 S
Tb22 O33 2.596 1_545 S
Tb22 O34 2.374 . S
O23 Tb20 2.453 . S
O23 C39 1.245 . S
O24 Tb20 2.596 . S
O24 Tb22 2.343 . S
O24 C39 1.259 . S
O25 Tb20 2.374 . S
O25 C21 1.251 . S
C26 O30 1.275 . S
C26 O31 1.246 . S
O27 C21 1.263 . S
O27 Tb22 2.353 . S
C28 O32 1.245 . S
C28 O33 1.259 . S
C29 O34 1.250 . S
C29 O35 1.263 . S
O30 Tb22 2.427 . S
O30 C26 1.275 . S
O31 Tb22 2.513 . S
O31 C26 1.246 . S
O32 Tb22 2.453 1_565 S
O32 C28 1.245 . S
O33 Tb20 2.343 1_565 S
O33 Tb22 2.596 1_565 S
O33 C28 1.259 . S
O34 Tb22 2.374 . S
O34 C29 1.250 . S
O35 Tb20 2.353 . S
O35 C29 1.263 . S
C36 O37 1.275 . S
C36 O38 1.246 . S
O37 Tb20 2.427 1_565 S
O37 C36 1.275 . S
O38 Tb20 2.513 1_565 S
O38 C36 1.246 . S
C39 O23 1.245 . S
C39 O24 1.259 . S
Tb40 O43 2.453 . S
Tb40 O44 2.596 . S
Tb40 O45 2.374 . S
Tb40 O53 2.343 . S
Tb40 O55 2.353 . S
Tb40 O57 2.427 . S
Tb40 O58 2.513 . S
C41 O45 1.251 . S
C41 O47 1.263 . S
Tb42 O44 2.343 . S
Tb42 O47 2.353 . S
Tb42 O50 2.427 . S
Tb42 O51 2.513 . S
Tb42 O52 2.453 . S
Tb42 O53 2.596 . S
Tb42 O54 2.374 . S
O43 Tb40 2.453 . S
O43 C59 1.245 . S
O44 Tb40 2.596 . S
O44 Tb42 2.343 . S
O44 C59 1.259 . S
O45 Tb40 2.374 . S
O45 C41 1.251 . S
C46 O50 1.275 . S
C46 O51 1.246 . S
O47 C41 1.263 . S
O47 Tb42 2.353 . S
C48 O52 1.245 . S
C48 O53 1.259 . S
C49 O54 1.250 . S
C49 O55 1.263 . S
O50 Tb42 2.427 . S
O50 C46 1.275 . S
O51 Tb42 2.513 . S
O51 C46 1.246 . S
O52 Tb42 2.453 . S
O52 C48 1.245 . S
O53 Tb40 2.343 . S
O53 Tb42 2.596 . S
O53 C48 1.259 . S
O54 Tb42 2.374 . S
O54 C49 1.250 . S
O55 Tb40 2.353 . S
O55 C49 1.263 . S
C56 O57 1.275 . S
C56 O58 1.246 . S
O57 Tb40 2.427 . S
O57 C56 1.275 . S
O58 Tb40 2.513 . S
O58 C56 1.246 . S
C59 O43 1.245 . S
C59 O44 1.259 . S
P60 O71 1.490 . S
P60 C74 1.812 . S
P60 C80 1.803 1_565 S
P60 C86 1.819 1_565 S
H61 C75 0.941 . S
H62 C76 0.939 . S
H63 C78 0.940 . S
H64 C79 0.940 1_545 S
H65 C81 0.939 . S
H66 C82 0.942 . S
H67 C84 0.940 . S
H68 C85 0.939 . S
H69 C87 0.941 . S
H70 C91 0.939 . S
O71 P60 1.490 . S
H72 C88 0.939 . S
H73 C90 0.940 . S
C74 P60 1.812 . S
C74 C75 1.389 . S
C74 C79 1.391 . S
C75 H61 0.941 . S
C75 C74 1.389 . S
C75 C76 1.397 . S
C76 H62 0.939 . S
C76 C75 1.397 . S
C76 C77 1.378 . S
C77 C76 1.378 . S
C77 C78 1.378 . S
C78 H63 0.940 . S
C78 C77 1.378 . S
C78 C79 1.396 . S
C79 H64 0.940 1_565 S
C79 C74 1.391 . S
C79 C78 1.396 . S
C80 P60 1.803 1_545 S
C80 C81 1.378 . S
C80 C85 1.400 . S
C81 H65 0.939 . S
C81 C80 1.378 . S
C81 C82 1.361 . S
C82 H66 0.942 . S
C82 C81 1.361 . S
C82 C83 1.369 . S
C83 C82 1.369 . S
C83 C84 1.404 . S
C84 H67 0.940 . S
C84 C83 1.404 . S
C84 C85 1.389 . S
C85 H68 0.939 . S
C85 C80 1.400 . S
C85 C84 1.389 . S
C86 P60 1.819 1_545 S
C86 C87 1.391 1_545 S
C86 C91 1.391 . S
C87 H69 0.941 . S
C87 C86 1.391 1_565 S
C87 C88 1.396 . S
C88 H72 0.939 . S
C88 C87 1.396 . S
C88 C89 1.397 1_565 S
C89 C88 1.397 1_545 S
C89 C90 1.385 . S
C90 H73 0.940 . S
C90 C89 1.385 . S
C90 C91 1.388 . S
C91 H70 0.939 . S
C91 C86 1.391 . S
C91 C90 1.388 . S
P92 O103 1.490 . S
P92 C106 1.812 . S
P92 C112 1.803 . S
P92 C118 1.819 . S
H93 C107 0.941 . S
H94 C108 0.939 . S
H95 C110 0.940 . S
H96 C111 0.940 . S
H97 C113 0.939 . S
H98 C114 0.942 . S
H99 C116 0.940 . S
H100 C117 0.939 . S
H101 C119 0.941 . S
H102 C123 0.939 . S
O103 P92 1.490 . S
H104 C120 0.939 . S
H105 C122 0.940 . S
C106 P92 1.812 . S
C106 C107 1.389 . S
C106 C111 1.391 . S
C107 H93 0.941 . S
C107 C106 1.389 . S
C107 C108 1.397 . S
C108 H94 0.939 . S
C108 C107 1.397 . S
C108 C109 1.378 . S
C109 C108 1.378 . S
C109 C110 1.378 . S
C110 H95 0.940 . S
C110 C109 1.378 . S
C110 C111 1.396 . S
C111 H96 0.940 . S
C111 C106 1.391 . S
C111 C110 1.396 . S
C112 P92 1.803 . S
C112 C113 1.378 . S
C112 C117 1.400 . S
C113 H97 0.939 . S
C113 C112 1.378 . S
C113 C114 1.361 . S
C114 H98 0.942 . S
C114 C113 1.361 . S
C114 C115 1.369 . S
C115 C114 1.369 . S
C115 C116 1.404 . S
C116 H99 0.940 . S
C116 C115 1.404 . S
C116 C117 1.389 . S
C117 H100 0.939 . S
C117 C112 1.400 . S
C117 C116 1.389 . S
C118 P92 1.819 . S
C118 C119 1.391 . S
C118 C123 1.391 . S
C119 H101 0.941 . S
C119 C118 1.391 . S
C119 C120 1.396 . S
C120 H104 0.939 . S
C120 C119 1.396 . S
C120 C121 1.397 . S
C121 C120 1.397 . S
C121 C122 1.385 . S
C122 H105 0.940 . S
C122 C121 1.385 . S
C122 C123 1.388 . S
C123 H102 0.939 . S
C123 C118 1.391 . S
C123 C122 1.388 . S
P124 O135 1.490 . S
P124 C138 1.812 . S
P124 C144 1.803 . S
P124 C150 1.819 . S
H125 C139 0.941 . S
H126 C140 0.939 . S
H127 C142 0.940 . S
H128 C143 0.940 . S
H129 C145 0.939 . S
H130 C146 0.942 . S
H131 C148 0.940 . S
H132 C149 0.939 . S
H133 C151 0.941 . S
H134 C155 0.939 . S
O135 P124 1.490 . S
H136 C152 0.939 . S
H137 C154 0.940 1_655 S
C138 P124 1.812 . S
C138 C139 1.389 . S
C138 C143 1.391 . S
C139 H125 0.941 . S
C139 C138 1.389 . S
C139 C140 1.397 . S
C140 H126 0.939 . S
C140 C139 1.397 . S
C140 C141 1.378 . S
C141 C140 1.378 . S
C141 C142 1.378 . S
C142 H127 0.940 . S
C142 C141 1.378 . S
C142 C143 1.396 . S
C143 H128 0.940 . S
C143 C138 1.391 . S
C143 C142 1.396 . S
C144 P124 1.803 . S
C144 C145 1.378 . S
C144 C149 1.400 . S
C145 H129 0.939 . S
C145 C144 1.378 . S
C145 C146 1.361 1_455 S
C146 H130 0.942 . S
C146 C145 1.361 1_655 S
C146 C147 1.369 . S
C147 C146 1.369 . S
C147 C148 1.404 . S
C148 H131 0.940 . S
C148 C147 1.404 . S
C148 C149 1.389 1_655 S
C149 H132 0.939 . S
C149 C144 1.400 . S
C149 C148 1.389 1_455 S
C150 P124 1.819 . S
C150 C151 1.391 . S
C150 C155 1.391 . S
C151 H133 0.941 . S
C151 C150 1.391 . S
C151 C152 1.396 . S
C152 H136 0.939 . S
C152 C151 1.396 . S
C152 C153 1.397 . S
C153 C152 1.397 . S
C153 C154 1.385 . S
C154 H137 0.940 1_455 S
C154 C153 1.385 . S
C154 C155 1.388 . S
C155 H134 0.939 . S
C155 C150 1.391 . S
C155 C154 1.388 . S
P156 O167 1.490 . S
P156 C170 1.812 . S
P156 C176 1.803 1_455 S
P156 C182 1.819 . S
H157 C171 0.941 . S
H158 C172 0.939 . S
H159 C174 0.940 . S
H160 C175 0.940 . S
H161 C177 0.939 . S
H162 C178 0.942 . S
H163 C180 0.940 . S
H164 C181 0.939 . S
H165 C183 0.941 . S
H166 C187 0.939 . S
O167 P156 1.490 . S
H168 C184 0.939 . S
H169 C186 0.940 . S
C170 P156 1.812 . S
C170 C171 1.389 . S
C170 C175 1.391 . S
C171 H157 0.941 . S
C171 C170 1.389 . S
C171 C172 1.397 . S
C172 H158 0.939 . S
C172 C171 1.397 . S
C172 C173 1.378 . S
C173 C172 1.378 . S
C173 C174 1.378 . S
C174 H159 0.940 . S
C174 C173 1.378 . S
C174 C175 1.396 . S
C175 H160 0.940 . S
C175 C170 1.391 . S
C175 C174 1.396 . S
C176 P156 1.803 1_655 S
C176 C177 1.378 . S
C176 C181 1.400 . S
C177 H161 0.939 . S
C177 C176 1.378 . S
C177 C178 1.361 . S
C178 H162 0.942 . S
C178 C177 1.361 . S
C178 C179 1.369 . S
C179 C178 1.369 . S
C179 C180 1.404 . S
C180 H163 0.940 . S
C180 C179 1.404 . S
C180 C181 1.389 . S
C181 H164 0.939 . S
C181 C176 1.400 . S
C181 C180 1.389 . S
C182 P156 1.819 . S
C182 C183 1.391 . S
C182 C187 1.391 1_455 S
C183 H165 0.941 . S
C183 C182 1.391 . S
C183 C184 1.396 . S
C184 H168 0.939 . S
C184 C183 1.396 . S
C184 C185 1.397 . S
C185 C184 1.397 . S
C185 C186 1.385 1_455 S
C186 H169 0.940 . S
C186 C185 1.385 1_655 S
C186 C187 1.388 . S
C187 H166 0.939 . S
C187 C182 1.391 1_655 S
C187 C186 1.388 . S
P188 O199 1.490 . S
P188 C202 1.812 . S
P188 C208 1.803 1_545 S
P188 C214 1.819 . S
H189 C203 0.941 . S
H190 C204 0.939 . S
H191 C206 0.940 . S
H192 C207 0.940 . S
H193 C209 0.939 . S
H194 C210 0.942 . S
H195 C212 0.940 . S
H196 C213 0.939 . S
H197 C215 0.941 . S
H198 C219 0.939 . S
O199 P188 1.490 . S
H200 C216 0.939 . S
H201 C218 0.940 . S
C202 P188 1.812 . S
C202 C203 1.389 . S
C202 C207 1.391 . S
C203 H189 0.941 . S
C203 C202 1.389 . S
C203 C204 1.397 . S
C204 H190 0.939 . S
C204 C203 1.397 . S
C204 C205 1.378 . S
C205 C204 1.378 . S
C205 C206 1.378 . S
C206 H191 0.940 . S
C206 C205 1.378 . S
C206 C207 1.396 . S
C207 H192 0.940 . S
C207 C202 1.391 . S
C207 C206 1.396 . S
C208 P188 1.803 1_565 S
C208 C209 1.378 . S
C208 C213 1.400 . S
C209 H193 0.939 . S
C209 C208 1.378 . S
C209 C210 1.361 . S
C210 H194 0.942 . S
C210 C209 1.361 . S
C210 C211 1.369 . S
C211 C210 1.369 . S
C211 C212 1.404 . S
C212 H195 0.940 . S
C212 C211 1.404 . S
C212 C213 1.389 . S
C213 H196 0.939 . S
C213 C208 1.400 . S
C213 C212 1.389 . S
C214 P188 1.819 . S
C214 C215 1.391 . S
C214 C219 1.391 1_545 S
C215 H197 0.941 . S
C215 C214 1.391 . S
C215 C216 1.396 . S
C216 H200 0.939 . S
C216 C215 1.396 . S
C216 C217 1.397 . S
C217 C216 1.397 . S
C217 C218 1.385 1_545 S
C218 H201 0.940 . S
C218 C217 1.385 1_565 S
C218 C219 1.388 . S
C219 H198 0.939 . S
C219 C214 1.391 1_565 S
C219 C218 1.388 . S
P220 O231 1.490 . S
P220 C234 1.812 . S
P220 C240 1.803 . S
P220 C246 1.819 . S
H221 C235 0.941 . S
H222 C236 0.939 . S
H223 C238 0.940 . S
H224 C239 0.940 . S
H225 C241 0.939 . S
H226 C242 0.942 . S
H227 C244 0.940 . S
H228 C245 0.939 . S
H229 C247 0.941 . S
H230 C251 0.939 . S
O231 P220 1.490 . S
H232 C248 0.939 . S
H233 C250 0.940 . S
C234 P220 1.812 . S
C234 C235 1.389 . S
C234 C239 1.391 . S
C235 H221 0.941 . S
C235 C234 1.389 . S
C235 C236 1.397 . S
C236 H222 0.939 . S
C236 C235 1.397 . S
C236 C237 1.378 . S
C237 C236 1.378 . S
C237 C238 1.378 . S
C238 H223 0.940 . S
C238 C237 1.378 . S
C238 C239 1.396 . S
C239 H224 0.940 . S
C239 C234 1.391 . S
C239 C238 1.396 . S
C240 P220 1.803 . S
C240 C241 1.378 . S
C240 C245 1.400 . S
C241 H225 0.939 . S
C241 C240 1.378 . S
C241 C242 1.361 . S
C242 H226 0.942 . S
C242 C241 1.361 . S
C242 C243 1.369 . S
C243 C242 1.369 . S
C243 C244 1.404 . S
C244 H227 0.940 . S
C244 C243 1.404 . S
C244 C245 1.389 . S
C245 H228 0.939 . S
C245 C240 1.400 . S
C245 C244 1.389 . S
C246 P220 1.819 . S
C246 C247 1.391 . S
C246 C251 1.391 . S
C247 H229 0.941 . S
C247 C246 1.391 . S
C247 C248 1.396 . S
C248 H232 0.939 . S
C248 C247 1.396 . S
C248 C249 1.397 . S
C249 C248 1.397 . S
C249 C250 1.385 . S
C250 H233 0.940 . S
C250 C249 1.385 . S
C250 C251 1.388 . S
C251 H230 0.939 . S
C251 C246 1.391 . S
C251 C250 1.388 . S
C252 C253 1.387 . S
C252 H256 0.950 . S
C252 C261 1.390 . S
C253 C252 1.387 . S
C253 C255 1.387 . S
H254 C261 0.950 . S
C255 C253 1.387 . S
C255 C257 1.390 . S
C255 H259 0.950 . S
H256 C252 0.950 . S
C257 C255 1.390 . S
C257 C258 1.387 . S
C257 H260 0.950 . S
C258 C257 1.387 . S
C258 C261 1.387 . S
H259 C255 0.950 . S
H260 C257 0.950 . S
C261 C252 1.390 . S
C261 H254 0.950 . S
C261 C258 1.387 . S
C262 C263 1.387 . S
C262 H266 0.950 . S
C262 C271 1.390 . S
C263 C262 1.387 . S
C263 C265 1.387 . S
H264 C271 0.950 . S
C265 C263 1.387 . S
C265 C267 1.390 . S
C265 H269 0.950 . S
H266 C262 0.950 . S
C267 C265 1.390 . S
C267 C268 1.387 . S
C267 H270 0.950 . S
C268 C267 1.387 . S
C268 C271 1.387 . S
H269 C265 0.950 . S
H270 C267 0.950 . S
C271 C262 1.390 . S
C271 H264 0.950 . S
C271 C268 1.387 . S
C272 C273 1.387 . S
C272 H276 0.950 . S
C272 C281 1.390 . S
C273 C272 1.387 . S
C273 C275 1.387 . S
H274 C281 0.950 . S
C275 C273 1.387 . S
C275 C277 1.390 . S
C275 H279 0.950 . S
H276 C272 0.950 . S
C277 C275 1.390 . S
C277 C278 1.387 . S
C277 H280 0.950 . S
C278 C277 1.387 . S
C278 C281 1.387 . S
H279 C275 0.950 . S
H280 C277 0.950 . S
C281 C272 1.390 . S
C281 H274 0.950 . S
C281 C278 1.387 . S
C282 C283 1.387 . S
C282 H286 0.950 . S
C282 C291 1.390 . S
C283 C282 1.387 . S
C283 C285 1.387 . S
H284 C291 0.950 . S
C285 C283 1.387 . S
C285 C287 1.390 . S
C285 H289 0.950 . S
H286 C282 0.950 . S
C287 C285 1.390 . S
C287 C288 1.387 . S
C287 H290 0.950 . S
C288 C287 1.387 . S
C288 C291 1.387 . S
H289 C285 0.950 . S
H290 C287 0.950 . S
C291 C282 1.390 . S
C291 H284 0.950 . S
C291 C288 1.387 . S
C292 C293 1.387 . S
C292 H296 0.950 . S
C292 C301 1.390 . S
C293 C292 1.387 . S
C293 C295 1.387 . S
H294 C301 0.950 . S
C295 C293 1.387 . S
C295 C297 1.390 . S
C295 H299 0.950 . S
H296 C292 0.950 . S
C297 C295 1.390 . S
C297 C298 1.387 . S
C297 H300 0.950 . S
C298 C297 1.387 . S
C298 C301 1.387 . S
H299 C295 0.950 . S
H300 C297 0.950 . S
C301 C292 1.390 . S
C301 H294 0.950 . S
C301 C298 1.387 . S
C302 C303 1.387 . S
C302 H306 0.950 . S
C302 C311 1.390 . S
C303 C302 1.387 . S
C303 C305 1.387 . S
H304 C311 0.950 . S
C305 C303 1.387 . S
C305 C307 1.390 . S
C305 H309 0.950 . S
H306 C302 0.950 . S
C307 C305 1.390 . S
C307 C308 1.387 . S
C307 H310 0.950 . S
C308 C307 1.387 . S
C308 C311 1.387 . S
H309 C305 0.950 . S
H310 C307 0.950 . S
C311 C302 1.390 . S
C311 H304 0.950 . S
C311 C308 1.387 . S
C312 C313 1.387 . S
C312 H316 0.950 . S
C312 C321 1.390 . S
C313 C312 1.387 . S
C313 C315 1.387 . S
H314 C321 0.950 . S
C315 C313 1.387 . S
C315 C317 1.390 . S
C315 H319 0.950 . S
H316 C312 0.950 . S
C317 C315 1.390 . S
C317 C318 1.387 . S
C317 H320 0.950 . S
C318 C317 1.387 . S
C318 C321 1.387 . S
H319 C315 0.950 . S
H320 C317 0.950 . S
C321 C312 1.390 . S
C321 H314 0.950 . S
C321 C318 1.387 . S
C322 C323 1.387 . S
C322 H326 0.950 . S
C322 C331 1.390 . S
C323 C322 1.387 . S
C323 C325 1.387 . S
H324 C331 0.950 . S
C325 C323 1.387 . S
C325 C327 1.390 . S
C325 H329 0.950 . S
H326 C322 0.950 . S
C327 C325 1.390 . S
C327 C328 1.387 . S
C327 H330 0.950 . S
C328 C327 1.387 . S
C328 C331 1.387 . S
H329 C325 0.950 . S
H330 C327 0.950 . S
C331 C322 1.390 . S
C331 H324 0.950 . S
C331 C328 1.387 . S
C332 C333 1.387 . S
C332 H336 0.950 . S
C332 C341 1.390 . S
C333 C332 1.387 . S
C333 C335 1.387 . S
H334 C341 0.950 . S
C335 C333 1.387 . S
C335 C337 1.390 . S
C335 H339 0.950 . S
H336 C332 0.950 . S
C337 C335 1.390 . S
C337 C338 1.387 . S
C337 H340 0.950 . S
C338 C337 1.387 . S
C338 C341 1.387 . S
H339 C335 0.950 . S
H340 C337 0.950 . S
C341 C332 1.390 . S
C341 H334 0.950 . S
C341 C338 1.387 . S
C342 C343 1.387 . S
C342 H346 0.950 . S
C342 C351 1.390 . S
C343 C342 1.387 . S
C343 C345 1.387 . S
H344 C351 0.950 . S
C345 C343 1.387 . S
C345 C347 1.390 . S
C345 H349 0.950 . S
H346 C342 0.950 . S
C347 C345 1.390 . S
C347 C348 1.387 . S
C347 H350 0.950 . S
C348 C347 1.387 . S
C348 C351 1.387 . S
H349 C345 0.950 . S
H350 C347 0.950 . S
C351 C342 1.390 . S
C351 H344 0.950 . S
C351 C348 1.387 . S
C352 C353 1.387 . S
C352 H356 0.950 . S
C352 C361 1.390 . S
C353 C352 1.387 . S
C353 C355 1.387 . S
H354 C361 0.950 . S
C355 C353 1.387 . S
C355 C357 1.390 . S
C355 H359 0.950 . S
H356 C352 0.950 . S
C357 C355 1.390 . S
C357 C358 1.387 . S
C357 H360 0.950 . S
C358 C357 1.387 . S
C358 C361 1.387 . S
H359 C355 0.950 . S
H360 C357 0.950 . S
C361 C352 1.390 . S
C361 H354 0.950 . S
C361 C358 1.387 . S
C362 C363 1.387 . S
C362 H366 0.950 . S
C362 C371 1.390 . S
C363 C362 1.387 . S
C363 C365 1.387 . S
H364 C371 0.950 . S
C365 C363 1.387 . S
C365 C367 1.390 . S
C365 H369 0.950 . S
H366 C362 0.950 . S
C367 C365 1.390 . S
C367 C368 1.387 . S
C367 H370 0.950 . S
C368 C367 1.387 . S
C368 C371 1.387 . S
H369 C365 0.950 . S
H370 C367 0.950 . S
C371 C362 1.390 . S
C371 H364 0.950 . S
C371 C368 1.387 . S
C372 C373 1.387 . S
C372 H376 0.950 1_455 S
C372 C381 1.390 . S
C373 C372 1.387 . S
C373 C375 1.387 . S
H374 C381 0.950 1_655 S
C375 C373 1.387 . S
C375 C377 1.390 . S
C375 H379 0.950 . S
H376 C372 0.950 1_655 S
C377 C375 1.390 . S
C377 C378 1.387 . S
C377 H380 0.950 . S
C378 C377 1.387 . S
C378 C381 1.387 . S
H379 C375 0.950 . S
H380 C377 0.950 . S
C381 C372 1.390 . S
C381 H374 0.950 1_455 S
C381 C378 1.387 . S
C382 C383 1.387 . S
C382 H386 0.950 . S
C382 C391 1.390 . S
C383 C382 1.387 . S
C383 C385 1.387 . S
H384 C391 0.950 . S
C385 C383 1.387 . S
C385 C387 1.390 . S
C385 H389 0.950 . S
H386 C382 0.950 . S
C387 C385 1.390 . S
C387 C388 1.387 . S
C387 H390 0.950 . S
C388 C387 1.387 . S
C388 C391 1.387 . S
H389 C385 0.950 . S
H390 C387 0.950 . S
C391 C382 1.390 . S
C391 H384 0.950 . S
C391 C388 1.387 . S
C392 C393 1.387 . S
C392 H396 0.950 . S
C392 C401 1.390 . S
C393 C392 1.387 . S
C393 C395 1.387 . S
H394 C401 0.950 . S
C395 C393 1.387 . S
C395 C397 1.390 . S
C395 H399 0.950 . S
H396 C392 0.950 . S
C397 C395 1.390 . S
C397 C398 1.387 . S
C397 H400 0.950 . S
C398 C397 1.387 . S
C398 C401 1.387 . S
H399 C395 0.950 . S
H400 C397 0.950 . S
C401 C392 1.390 . S
C401 H394 0.950 . S
C401 C398 1.387 . S
C402 C403 1.387 . S
C402 H406 0.950 1_545 S
C402 C411 1.388 1_545 S
C403 C402 1.387 . S
C403 C405 1.387 . S
H404 C411 0.950 . S
C405 C403 1.387 . S
C405 C407 1.390 . S
C405 H409 0.950 . S
H406 C402 0.950 1_565 S
C407 C405 1.390 . S
C407 C408 1.387 . S
C407 H410 0.950 . S
C408 C407 1.387 . S
C408 C411 1.390 1_545 S
H409 C405 0.950 . S
H410 C407 0.950 . S
C411 C402 1.388 1_565 S
C411 H404 0.950 . S
C411 C408 1.390 1_565 S
C412 C413 1.387 . S
C412 H416 0.950 . S
C412 C421 1.390 . S
C413 C412 1.387 . S
C413 C415 1.387 . S
H414 C421 0.950 . S
C415 C413 1.387 . S
C415 C417 1.390 . S
C415 H419 0.950 . S
H416 C412 0.950 . S
C417 C415 1.390 . S
C417 C418 1.387 . S
C417 H420 0.950 . S
C418 C417 1.387 . S
C418 C421 1.387 . S
H419 C415 0.950 . S
H420 C417 0.950 . S
C421 C412 1.390 . S
C421 H414 0.950 . S
C421 C418 1.387 . S
C422 C423 1.387 . S
C422 H426 0.950 . S
C422 C431 1.390 . S
C423 C422 1.387 . S
C423 C425 1.387 1_455 S
H424 C431 0.950 . S
C425 C423 1.387 1_655 S
C425 C427 1.390 . S
C425 H429 0.950 . S
H426 C422 0.950 . S
C427 C425 1.390 . S
C427 C428 1.387 1_655 S
C427 H430 0.950 . S
C428 C427 1.387 1_455 S
C428 C431 1.387 . S
H429 C425 0.950 . S
H430 C427 0.950 . S
C431 C422 1.390 . S
C431 H424 0.950 . S
C431 C428 1.387 . S
C253 C8 1.983 . S
C258 C243 2.033 . S
C263 C26 1.389 . S
C268 C179 1.357 . S
C273 C48 1.544 . S
C278 C211 1.568 . S
C283 C19 1.895 . S
C288 C237 1.924 . S
C298 C173 1.461 . S
C293 C36 1.482 . S
C308 C205 1.707 . S
C303 C59 1.694 . S
C313 C28 1.563 . S
C318 C115 1.590 . S
C323 C46 1.214 . S
C328 C147 1.229 . S
C333 C16 1.536 . S
C338 C77 1.500 . S
C348 C109 1.688 . S
C343 C39 1.682 . S
C358 C141 1.078 . S
C353 C56 1.071 . S
C363 C6 1.454 . S
C368 C83 1.381 . S
C378 C153 1.435 1_554 S
C373 C9 1.412 . S
C383 C21 1.504 . S
C388 C89 1.468 . S
C393 C49 1.474 . S
C398 C121 1.450 . S
C408 C217 1.443 . S
C403 C29 1.469 . S
C418 C249 1.566 1_556 S
C413 C41 1.568 . S
C423 C1 1.497 . S
C428 C185 1.471 . S
