# Generated by pormake.
# Topology pyr, (3,6)-cn, num edge types: 1
# Building blocks:
#     Node 0, Type 0, BuildingBlock: MIDCAF_clean_linker_0, # of connection points: 3
#     Node 1, Type 0, BuildingBlock: MIDCAF_clean_linker_0, # of connection points: 3
#     Node 2, Type 0, BuildingBlock: MIDCAF_clean_linker_0, # of connection points: 3
#     Node 3, Type 0, BuildingBlock: MIDCAF_clean_linker_0, # of connection points: 3
#     Node 4, Type 0, BuildingBlock: MIDCAF_clean_linker_0, # of connection points: 3
#     Node 5, Type 0, BuildingBlock: MIDCAF_clean_linker_0, # of connection points: 3
#     Node 6, Type 0, BuildingBlock: MIDCAF_clean_linker_0, # of connection points: 3
#     Node 7, Type 0, BuildingBlock: MIDCAF_clean_linker_0, # of connection points: 3
#     Node 8, Type 1, BuildingBlock: VOLQOD_clean_sbu_1, # of connection points: 6
#     Node 9, Type 1, BuildingBlock: VOLQOD_clean_sbu_1, # of connection points: 6
#     Node 10, Type 1, BuildingBlock: VOLQOD_clean_sbu_1, # of connection points: 6
#     Node 11, Type 1, BuildingBlock: VOLQOD_clean_sbu_1, # of connection points: 6
#     Edge 12, Type (0, 1), BuildingBlock: XIVTED_clean_linker_0, # of connection points: 2
#     Edge 13, Type (0, 1), BuildingBlock: XIVTED_clean_linker_0, # of connection points: 2
#     Edge 14, Type (0, 1), BuildingBlock: XIVTED_clean_linker_0, # of connection points: 2
#     Edge 15, Type (0, 1), BuildingBlock: XIVTED_clean_linker_0, # of connection points: 2
#     Edge 16, Type (0, 1), BuildingBlock: XIVTED_clean_linker_0, # of connection points: 2
#     Edge 17, Type (0, 1), BuildingBlock: XIVTED_clean_linker_0, # of connection points: 2
#     Edge 18, Type (0, 1), BuildingBlock: XIVTED_clean_linker_0, # of connection points: 2
#     Edge 19, Type (0, 1), BuildingBlock: XIVTED_clean_linker_0, # of connection points: 2
#     Edge 20, Type (0, 1), BuildingBlock: XIVTED_clean_linker_0, # of connection points: 2
#     Edge 21, Type (0, 1), BuildingBlock: XIVTED_clean_linker_0, # of connection points: 2
#     Edge 22, Type (0, 1), BuildingBlock: XIVTED_clean_linker_0, # of connection points: 2
#     Edge 23, Type (0, 1), BuildingBlock: XIVTED_clean_linker_0, # of connection points: 2
#     Edge 24, Type (0, 1), BuildingBlock: XIVTED_clean_linker_0, # of connection points: 2
#     Edge 25, Type (0, 1), BuildingBlock: XIVTED_clean_linker_0, # of connection points: 2
#     Edge 26, Type (0, 1), BuildingBlock: XIVTED_clean_linker_0, # of connection points: 2
#     Edge 27, Type (0, 1), BuildingBlock: XIVTED_clean_linker_0, # of connection points: 2
#     Edge 28, Type (0, 1), BuildingBlock: XIVTED_clean_linker_0, # of connection points: 2
#     Edge 29, Type (0, 1), BuildingBlock: XIVTED_clean_linker_0, # of connection points: 2
#     Edge 30, Type (0, 1), BuildingBlock: XIVTED_clean_linker_0, # of connection points: 2
#     Edge 31, Type (0, 1), BuildingBlock: XIVTED_clean_linker_0, # of connection points: 2
#     Edge 32, Type (0, 1), BuildingBlock: XIVTED_clean_linker_0, # of connection points: 2
#     Edge 33, Type (0, 1), BuildingBlock: XIVTED_clean_linker_0, # of connection points: 2
#     Edge 34, Type (0, 1), BuildingBlock: XIVTED_clean_linker_0, # of connection points: 2
#     Edge 35, Type (0, 1), BuildingBlock: XIVTED_clean_linker_0, # of connection points: 2
# Relax obj value: 0.035
# Max RMSD: 0.119
# Mean RMSD: 0.044
data_MOF--net-pry--node1-VOLQOD_clean_sbu_1--node2-MIDCAF_clean_linker_0--edge1-XIVTED_clean_linker_0
_symmetry_space_group_name_H-M    P1
_symmetry_Int_Tables_number       1
_symmetry_cell_setting            triclinic
loop_
_symmetry_equiv_pos_as_xyz
'x, y, z'
_cell_length_a     45.304695
_cell_length_b     45.355606
_cell_length_c     45.550462
_cell_angle_alpha  89.9991
_cell_angle_beta   90.139217
_cell_angle_gamma 90.190542
loop_
_atom_site_label
_atom_site_type_symbol
_atom_site_fract_x
_atom_site_fract_y
_atom_site_fract_z
_atom_type_partial_charge
C0 C 0.06214 0.0981 0.22079 0.0
C1 C 0.08156 0.08637 0.24196 0.0
C2 C 0.11203 0.08647 0.23588 0.0
C3 C 0.12269 0.09737 0.20928 0.0
H4 H 0.19109 0.08428 0.15095 0.0
H5 H 0.23764 0.066 0.13205 0.0
H6 H 0.22069 0.1092 0.04914 0.0
H7 H 0.1745 0.12836 0.0684 0.0
H8 H 0.12125 0.17431 0.06477 0.0
H9 H 0.10199 0.21911 0.04265 0.0
H10 H 0.05213 0.23677 0.12146 0.0
H11 H 0.07062 0.19145 0.14323 0.0
H12 H 0.05743 0.11842 0.17853 0.0
H13 H 0.03853 0.09802 0.2243 0.0
H14 H 0.12787 0.07848 0.2518 0.0
H15 H 0.14627 0.09705 0.20536 0.0
N16 N 0.14011 0.10948 0.1489 0.0
N17 N 0.13682 0.14201 0.10911 0.0
N18 N 0.10071 0.1428 0.14594 0.0
C19 C 0.15115 0.11989 0.12322 0.0
C20 C 0.11167 0.15368 0.12036 0.0
C21 C 0.11482 0.12064 0.16026 0.0
C22 C 0.17903 0.10788 0.11124 0.0
C23 C 0.19718 0.08982 0.12864 0.0
C24 C 0.22387 0.07916 0.11771 0.0
C25 C 0.23298 0.08605 0.08902 0.0
C26 C 0.21462 0.10381 0.07149 0.0
C27 C 0.18803 0.11469 0.08251 0.0
C28 C 0.0977 0.17937 0.1059 0.0
C29 C 0.10595 0.18758 0.0773 0.0
C30 C 0.09502 0.21339 0.06466 0.0
C31 C 0.07579 0.23181 0.08039 0.0
C32 C 0.06667 0.22302 0.10857 0.0
C33 C 0.0774 0.19704 0.12113 0.0
C34 C 0.10328 0.10915 0.18833 0.0
C35 C 0.07293 0.10966 0.19442 0.0
C36 C 0.29708 0.94137 0.60943 0.0
C37 C 0.28126 0.92514 0.58833 0.0
C38 C 0.29403 0.89964 0.57641 0.0
C39 C 0.32178 0.89021 0.58583 0.0
H40 H 0.39157 0.83568 0.56367 0.0
H41 H 0.41014 0.78997 0.54305 0.0
H42 H 0.46424 0.77689 0.62021 0.0
H43 H 0.44637 0.82316 0.64048 0.0
H44 H 0.45746 0.88397 0.67977 0.0
H45 H 0.47731 0.90332 0.7256 0.0
H46 H 0.3981 0.95469 0.73781 0.0
H47 H 0.37867 0.93616 0.69162 0.0
H48 H 0.33612 0.94455 0.63576 0.0
H49 H 0.28768 0.961 0.61915 0.0
H50 H 0.28248 0.88689 0.55985 0.0
H51 H 0.33073 0.87023 0.57642 0.0
N52 N 0.37893 0.87117 0.60615 0.0
N53 N 0.41649 0.87208 0.64163 0.0
N54 N 0.37832 0.90686 0.64329 0.0
C55 C 0.40427 0.85974 0.61726 0.0
C56 C 0.40369 0.89575 0.65471 0.0
C57 C 0.36582 0.89474 0.61898 0.0
C58 C 0.41729 0.83302 0.60386 0.0
C59 C 0.40759 0.8232 0.57619 0.0
C60 C 0.41813 0.79686 0.56441 0.0
C61 C 0.43845 0.77953 0.58009 0.0
C62 C 0.44883 0.7898 0.60737 0.0
C63 C 0.43846 0.81631 0.61908 0.0
C64 C 0.4164 0.9084 0.68198 0.0
C65 C 0.44433 0.89952 0.69213 0.0
C66 C 0.45566 0.91051 0.71853 0.0
C67 C 0.43927 0.93048 0.73553 0.0
C68 C 0.41156 0.9397 0.72512 0.0
C69 C 0.40031 0.92889 0.69864 0.0
C70 C 0.33732 0.90595 0.60758 0.0
C71 C 0.32477 0.93182 0.61905 0.0
C72 C 0.60429 0.3023 0.95119 0.0
C73 C 0.57657 0.29138 0.94232 0.0
C74 C 0.55913 0.30864 0.92345 0.0
C75 C 0.56947 0.33575 0.91308 0.0
H76 H 0.56602 0.38561 0.83745 0.0
H77 H 0.54817 0.40284 0.79027 0.0
H78 H 0.60031 0.48231 0.79955 0.0
H79 H 0.61906 0.46455 0.84645 0.0
H80 H 0.67042 0.46517 0.89486 0.0
H81 H 0.7176 0.48472 0.91167 0.0
H82 H 0.73055 0.40701 0.96504 0.0
H83 H 0.68305 0.38787 0.94898 0.0
H84 H 0.63622 0.33695 0.94791 0.0
H85 H 0.61854 0.28946 0.96535 0.0
H86 H 0.53744 0.30121 0.9166 0.0
H87 H 0.55556 0.34828 0.89831 0.0
N88 N 0.59604 0.38669 0.88536 0.0
N89 N 0.63179 0.42414 0.88492 0.0
N90 N 0.63374 0.387 0.92067 0.0
C91 C 0.60724 0.4116 0.87307 0.0
C92 C 0.64515 0.41201 0.90876 0.0
C93 C 0.60906 0.37432 0.90923 0.0
C94 C 0.59418 0.42357 0.84571 0.0
C95 C 0.57352 0.4069 0.82964 0.0
C96 C 0.56311 0.41689 0.80255 0.0
C97 C 0.57287 0.44395 0.79096 0.0
C98 C 0.59274 0.46111 0.80753 0.0
C99 C 0.60337 0.45099 0.83454 0.0
C100 C 0.67295 0.42484 0.92041 0.0
C101 C 0.68321 0.45232 0.91035 0.0
C102 C 0.71037 0.46348 0.91988 0.0
C103 C 0.72803 0.44736 0.93955 0.0
C104 C 0.71741 0.42023 0.95018 0.0
C105 C 0.69016 0.40915 0.94081 0.0
C106 C 0.59741 0.34639 0.92153 0.0
C107 C 0.61452 0.32953 0.94104 0.0
C108 C 0.80811 0.58386 0.45387 0.0
C109 C 0.79039 0.56612 0.43557 0.0
C110 C 0.8011 0.55845 0.40764 0.0
C111 C 0.82848 0.56884 0.39801 0.0
H112 H 0.88655 0.56353 0.32945 0.0
H113 H 0.9058 0.54921 0.28179 0.0
H114 H 0.98371 0.60231 0.29721 0.0
H115 H 0.96407 0.61738 0.3445 0.0
H116 H 0.95499 0.67246 0.38671 0.0
H117 H 0.97057 0.72029 0.40534 0.0
H118 H 0.90775 0.71298 0.47611 0.0
H119 H 0.89212 0.66489 0.4577 0.0
H120 H 0.84817 0.60849 0.45864 0.0
H121 H 0.80088 0.58971 0.47574 0.0
H122 H 0.78795 0.54518 0.39276 0.0
H123 H 0.83567 0.56302 0.37611 0.0
N124 N 0.8861 0.58977 0.37988 0.0
N125 N 0.92272 0.62627 0.38247 0.0
N126 N 0.88577 0.62418 0.41831 0.0
C127 C 0.91084 0.60247 0.36871 0.0
C128 C 0.91037 0.63729 0.40728 0.0
C129 C 0.87355 0.60036 0.40479 0.0
C130 C 0.92363 0.59181 0.34077 0.0
C131 C 0.9079 0.572 0.32282 0.0
C132 C 0.91903 0.56365 0.29549 0.0
C133 C 0.94626 0.57472 0.28554 0.0
C134 C 0.96241 0.59381 0.30391 0.0
C135 C 0.95119 0.60233 0.33114 0.0
C136 C 0.92204 0.66486 0.4205 0.0
C137 C 0.94465 0.68078 0.40643 0.0
C138 C 0.95352 0.70831 0.417 0.0
C139 C 0.94016 0.7205 0.44198 0.0
C140 C 0.91853 0.70407 0.45687 0.0
C141 C 0.90949 0.67657 0.4462 0.0
C142 C 0.84569 0.58741 0.41593 0.0
C143 C 0.83534 0.5945 0.44412 0.0
C144 C 0.82423 0.97663 0.94978 0.0
C145 C 0.8101 0.95952 0.97132 0.0
C146 C 0.8255 0.93611 0.98436 0.0
C147 C 0.85391 0.92899 0.97506 0.0
H148 H 0.90858 0.86065 0.9773 0.0
H149 H 0.92386 0.81051 0.9884 0.0
H150 H -0.00037 0.82082 0.93205 0.0
H151 H 0.98439 0.87119 0.92061 0.0
H152 H 0.98229 0.9232 0.87239 0.0
H153 H 0.9955 0.93755 0.82266 0.0
H154 H 0.91632 0.9901 0.81668 0.0
H155 H 0.9035 0.97649 0.86666 0.0
H156 H 0.86247 0.98233 0.92288 0.0
H157 H 0.81282 0.99475 0.93929 0.0
H158 H 0.8153 0.92286 0.00134 0.0
H159 H 0.86471 0.91022 0.98507 0.0
N160 N 0.90898 0.91019 0.95065 0.0
N161 N 0.9444 0.91188 0.91336 0.0
N162 N 0.90709 0.94756 0.91523 0.0
C163 C 0.93332 0.89868 0.93773 0.0
C164 C 0.9315 0.93639 0.90201 0.0
C165 C 0.89583 0.93472 0.93973 0.0
C166 C 0.94506 0.86991 0.94775 0.0
C167 C 0.92876 0.85253 0.96755 0.0
C168 C 0.93739 0.82372 0.97384 0.0
C169 C 0.9627 0.81175 0.96081 0.0
C170 C 0.98002 0.82958 0.94241 0.0
C171 C 0.9712 0.85836 0.93579 0.0
C172 C 0.94162 0.94836 0.87346 0.0
C173 C 0.96787 0.93814 0.86065 0.0
C174 C 0.97538 0.94624 0.83203 0.0
C175 C 0.95674 0.9646 0.81547 0.0
C176 C 0.9313 0.97608 0.82883 0.0
C177 C 0.92388 0.96814 0.85753 0.0
C178 C 0.86751 0.94499 0.95232 0.0
C179 C 0.85265 0.96939 0.94031 0.0
C180 C 0.57725 0.03327 0.32949 0.0
C181 C 0.5585 0.05108 0.31254 0.0
C182 C 0.54563 0.07601 0.32541 0.0
C183 C 0.55226 0.08369 0.35433 0.0
H184 H 0.53325 0.14412 0.4152 0.0
H185 H 0.51757 0.1935 0.42849 0.0
H186 H 0.58176 0.19534 0.49866 0.0
H187 H 0.59762 0.14568 0.48555 0.0
H188 H 0.64248 0.09043 0.49178 0.0
H189 H 0.69123 0.07639 0.50945 0.0
H190 H 0.7052 0.02598 0.43017 0.0
H191 H 0.65628 0.03902 0.41308 0.0
H192 H 0.59955 0.02755 0.37059 0.0
H193 H 0.5875 0.01395 0.32 0.0
H194 H 0.5308 0.08989 0.31289 0.0
H195 H 0.5425 0.10354 0.36322 0.0
N196 N 0.56908 0.1011 0.41259 0.0
N197 N 0.60386 0.10092 0.4507 0.0
N198 N 0.60637 0.06553 0.41321 0.0
C199 C 0.57962 0.11299 0.43788 0.0
C200 C 0.61728 0.07708 0.43857 0.0
C201 C 0.58215 0.07732 0.40016 0.0
C202 C 0.56709 0.14101 0.44899 0.0
C203 C 0.54385 0.15475 0.43374 0.0
C204 C 0.53488 0.18314 0.44126 0.0
C205 C 0.54875 0.1984 0.4643 0.0
C206 C 0.57065 0.18405 0.48081 0.0
C207 C 0.57979 0.15563 0.47319 0.0
C208 C 0.64548 0.06605 0.45089 0.0
C209 C 0.65581 0.07603 0.47829 0.0
C210 C 0.68388 0.06814 0.48835 0.0
C211 C 0.70236 0.05027 0.47115 0.0
C212 C 0.69153 0.03944 0.44425 0.0
C213 C 0.66341 0.04709 0.43434 0.0
C214 C 0.57225 0.06681 0.37094 0.0
C215 C 0.58421 0.04115 0.35839 0.0
C216 C 0.32589 0.54621 0.07266 0.0
C217 C 0.31217 0.56408 0.05148 0.0
C218 C 0.32786 0.58805 0.03973 0.0
C219 C 0.35615 0.59487 0.04989 0.0
H220 H 0.42312 0.65514 0.03962 0.0
H221 H 0.43986 0.70485 0.02762 0.0
H222 H 0.49398 0.70606 0.10574 0.0
H223 H 0.47733 0.65652 0.11795 0.0
H224 H 0.4728 0.60811 0.16282 0.0
H225 H 0.48417 0.59127 0.21218 0.0
H226 H 0.42495 0.5174 0.20103 0.0
H227 H 0.41316 0.53425 0.15132 0.0
H228 H 0.36367 0.53955 0.10012 0.0
H229 H 0.31426 0.52764 0.08218 0.0
H230 H 0.31798 0.60193 0.02306 0.0
H231 H 0.36717 0.61404 0.04085 0.0
N232 N 0.41143 0.61231 0.07551 0.0
N233 N 0.44565 0.60983 0.11397 0.0
N234 N 0.40801 0.57442 0.11042 0.0
C235 C 0.43558 0.6234 0.08939 0.0
C236 C 0.43218 0.58527 0.12457 0.0
C237 C 0.39756 0.58778 0.08577 0.0
C238 C 0.44858 0.65189 0.07995 0.0
C239 C 0.43888 0.66581 0.05407 0.0
C240 C 0.44857 0.69424 0.04709 0.0
C241 C 0.46797 0.7094 0.06592 0.0
C242 C 0.47869 0.69503 0.09106 0.0
C243 C 0.46922 0.66654 0.09793 0.0
C244 C 0.44175 0.57274 0.15311 0.0
C245 C 0.46237 0.58806 0.17057 0.0
C246 C 0.46886 0.57852 0.19895 0.0
C247 C 0.45519 0.55326 0.21045 0.0
C248 C 0.4358 0.53695 0.1926 0.0
C249 C 0.429 0.54669 0.16421 0.0
C250 C 0.36935 0.57799 0.07225 0.0
C251 C 0.35417 0.55314 0.08301 0.0
C252 C 0.08094 0.31311 0.5498 0.0
C253 C 0.05323 0.30272 0.55919 0.0
C254 C 0.03486 0.3219 0.57506 0.0
C255 C 0.04457 0.35016 0.58264 0.0
H256 H 0.04366 0.4003 0.65794 0.0
H257 H 0.03004 0.416 0.70717 0.0
H258 H 0.08558 0.49299 0.69846 0.0
H259 H 0.09941 0.47741 0.6491 0.0
H260 H 0.15992 0.46323 0.61278 0.0
H261 H 0.20992 0.47617 0.59796 0.0
H262 H 0.20007 0.42343 0.51965 0.0
H263 H 0.14994 0.41027 0.53437 0.0
H264 H 0.11238 0.34832 0.55031 0.0
H265 H 0.09589 0.29893 0.53788 0.0
H266 H 0.01311 0.31493 0.58207 0.0
H267 H 0.03018 0.36404 0.59559 0.0
N268 N 0.07221 0.40125 0.60929 0.0
N269 N 0.10951 0.43715 0.60975 0.0
N270 N 0.10955 0.40018 0.57379 0.0
C271 C 0.08449 0.42568 0.62158 0.0
C272 C 0.12208 0.42465 0.58576 0.0
C273 C 0.0845 0.38845 0.58533 0.0
C274 C 0.07294 0.4374 0.64964 0.0
C275 C 0.05267 0.42083 0.66623 0.0
C276 C 0.04494 0.42971 0.69452 0.0
C277 C 0.05701 0.45552 0.70669 0.0
C278 C 0.0759 0.47303 0.68955 0.0
C279 C 0.08391 0.46399 0.66134 0.0
C280 C 0.15096 0.43545 0.57491 0.0
C281 C 0.16816 0.45467 0.59219 0.0
C282 C 0.19688 0.46199 0.58381 0.0
C283 C 0.2089 0.45057 0.55782 0.0
C284 C 0.19127 0.4326 0.53976 0.0
C285 C 0.16263 0.42497 0.54829 0.0
C286 C 0.07274 0.36006 0.57423 0.0
C287 C 0.09049 0.34149 0.55707 0.0
O288 O 0.98981 0.07524 0.54347 0.0
Zn289 Zn 0.97412 0.03363 0.54444 0.0
O290 O 0.99794 0.00763 0.51975 0.0
Zn291 Zn 0.97482 0.99493 0.4858 0.0
Zn292 Zn 0.03292 0.02868 0.50609 0.0
Zn293 Zn 0.01002 0.97319 0.54241 0.0
O294 O 0.97433 0.95066 0.48286 0.0
O295 O 0.99494 0.93542 0.52442 0.0
O296 O 0.9317 0.03424 0.53067 0.0
O297 O 0.93254 0.00746 0.48985 0.0
O298 O 0.9914 0.01108 0.44784 0.0
O299 O 0.03516 0.02824 0.46207 0.0
O300 O 0.07043 0.01078 0.52184 0.0
O301 O 0.97435 0.01985 0.58656 0.0
O302 O 0.05426 0.9704 0.54425 0.0
O303 O 0.99619 0.97616 0.58422 0.0
C304 C 0.01278 0.08681 0.53214 0.0
C305 C 0.9821 0.92997 0.5001 0.0
C306 C 0.01655 0.02223 0.44196 0.0
C307 C 0.91858 0.02272 0.50868 0.0
C308 C 0.07533 0.98704 0.53594 0.0
C309 C 0.98326 0.99626 0.59884 0.0
O310 O 0.03123 0.07142 0.51775 0.0
O311 O 0.50532 0.07034 0.98824 0.0
Zn312 Zn 0.48954 0.02883 0.99195 0.0
O313 O 0.51455 0.00494 0.01778 0.0
Zn314 Zn 0.5323 0.97297 0.99524 0.0
Zn315 Zn 0.54557 0.0299 0.03456 0.0
Zn316 Zn 0.49093 0.98796 0.04948 0.0
O317 O 0.52075 0.9332 0.01112 0.0
O318 O 0.4907 0.94364 0.04804 0.0
O319 O 0.48722 0.01134 0.95119 0.0
O320 O 0.51846 0.97378 0.95335 0.0
O321 O 0.57662 0.97575 0.99582 0.0
O322 O 0.58587 0.01543 0.02293 0.0
O323 O 0.54373 0.03034 0.07869 0.0
O324 O 0.44828 0.03173 0.00828 0.0
O325 O 0.50698 -0.00041 0.08908 0.0
O326 O 0.449 0.00235 0.04731 0.0
C327 C 0.52589 0.0843 0.0014 0.0
C328 C 0.50386 0.92497 0.03187 0.0
C329 C 0.59475 0.99374 0.00761 0.0
C330 C 0.50033 0.98971 0.93908 0.0
C331 C 0.52763 0.01685 0.09726 0.0
C332 C 0.43538 0.01985 0.03014 0.0
O333 O 0.54234 0.07164 0.02023 0.0
O334 O 0.53301 0.50701 0.56692 0.0
Zn335 Zn 0.52907 0.52115 0.52514 0.0
O336 O 0.50335 0.49512 0.50218 0.0
Zn337 Zn 0.52585 0.47711 0.47021 0.0
Zn338 Zn 0.48742 0.46437 0.5278 0.0
Zn339 Zn 0.47084 0.518 0.48568 0.0
O340 O 0.50905 0.48807 0.43055 0.0
O341 O 0.47248 0.51854 0.44165 0.0
O342 O 0.5697 0.52301 0.50771 0.0
O343 O 0.56832 0.49092 0.47089 0.0
O344 O 0.52544 0.43287 0.47354 0.0
O345 O 0.49961 0.424 0.51399 0.0
O346 O 0.44304 0.46548 0.5287 0.0
O347 O 0.51294 0.56247 0.5268 0.0
O348 O 0.43142 0.50127 0.49754 0.0
O349 O 0.47212 0.55997 0.49988 0.0
C350 C 0.5204 0.48653 0.58139 0.0
C351 C 0.48827 0.50525 0.42276 0.0
C352 C 0.51443 0.41493 0.49207 0.0
C353 C 0.58228 0.50955 0.48666 0.0
C354 C 0.42385 0.48088 0.51523 0.0
C355 C 0.49005 0.57452 0.51589 0.0
O356 O 0.50202 0.46908 0.56923 0.0
O357 O 0.99039 0.50772 0.06468 0.0
Zn358 Zn 0.9916 0.49213 0.02339 0.0
O359 O 0.01721 0.51669 0.99877 0.0
Zn360 Zn 0.99394 0.53409 0.967 0.0
Zn361 Zn 0.03483 0.54832 0.0223 0.0
Zn362 Zn 0.04851 0.49224 0.98224 0.0
O363 O 0.00974 0.52233 0.92743 0.0
O364 O 0.04597 0.49122 0.93813 0.0
O365 O 0.9499 0.49122 0.00781 0.0
O366 O 0.95174 0.52027 0.96863 0.0
O367 O 0.9938 0.57841 0.96938 0.0
O368 O 0.02361 0.58836 0.00686 0.0
O369 O 0.07918 0.54601 0.02202 0.0
O370 O 0.00621 0.4502 0.02553 0.0
O371 O 0.08881 0.5074 0.99369 0.0
O372 O 0.04577 0.45055 0.99693 0.0
C373 C 0.00315 0.52907 0.07776 0.0
C374 C 0.02994 0.50463 0.91943 0.0
C375 C 0.00686 0.59684 0.98605 0.0
C376 C 0.93741 0.50344 0.98589 0.0
C377 C 0.0975 0.52878 0.00968 0.0
C378 C 0.02802 0.43701 0.0139 0.0
O379 O 0.02085 0.54619 0.06425 0.0
H380 H 0.1039 0.0404 0.27469 0.0
H381 H 0.9797 0.03839 0.39705 0.0
H382 H 0.03326 0.10431 0.27425 0.0
H383 H 0.07121 0.02156 0.41727 0.0
H384 H 0.99413 0.05245 0.34691 0.0
H385 H 0.08718 0.02322 0.32257 0.0
C386 C 0.08498 0.05099 0.28455 0.0
C387 C 0.07033 0.07429 0.27031 0.0
C388 C 0.01092 0.04551 0.36238 0.0
C389 C 0.05047 0.05366 0.32475 0.0
C390 C 0.00274 0.03736 0.39082 0.0
C391 C 0.02435 0.02896 0.41126 0.0
C392 C 0.04075 0.04444 0.35426 0.0
C393 C 0.05391 0.02813 0.4022 0.0
C394 C 0.07536 0.04092 0.31181 0.0
C395 C 0.0452 0.08617 0.28401 0.0
N396 N 0.06125 0.03562 0.37429 0.0
N397 N 0.03604 0.07569 0.31045 0.0
H398 H 0.43422 0.98561 0.76024 0.0
H399 H 0.5189 0.94157 0.90805 0.0
H400 H 0.4698 0.899 0.77708 0.0
H401 H 0.46659 0.02057 0.89944 0.0
H402 H 0.50604 0.92826 0.85776 0.0
H403 H 0.45051 0.00115 0.80905 0.0
C404 C 0.44541 0.96982 0.77415 0.0
C405 C 0.45049 0.94087 0.76448 0.0
C406 C 0.49742 0.94854 0.86684 0.0
C407 C 0.46958 0.95872 0.82025 0.0
C408 C 0.50482 0.95623 0.89557 0.0
C409 C 0.4937 0.98219 0.90811 0.0
C410 C 0.47889 0.96699 0.85037 0.0
C411 C 0.47556 0.00027 0.89077 0.0
C412 C 0.45482 0.97878 0.80198 0.0
C413 C 0.46568 0.92163 0.78334 0.0
N414 N 0.46869 0.99231 0.86278 0.0
N415 N 0.47462 0.93088 0.81029 0.0
H416 H 0.51843 0.4372 0.76487 0.0
H417 H 0.5658 0.51138 0.61283 0.0
H418 H 0.60572 0.47214 0.74874 0.0
H419 H 0.4908 0.45308 0.62184 0.0
H420 H 0.57749 0.50359 0.66472 0.0
H421 H 0.50476 0.44928 0.71441 0.0
C422 C 0.53475 0.4474 0.75078 0.0
C423 C 0.56339 0.45341 0.76112 0.0
C424 C 0.55845 0.49258 0.6553 0.0
C425 C 0.54764 0.46773 0.70341 0.0
C426 C 0.55171 0.49705 0.62572 0.0
C427 C 0.52736 0.48273 0.61291 0.0
C428 C 0.54054 0.47391 0.67227 0.0
C429 C 0.5099 0.46441 0.63071 0.0
C430 C 0.52686 0.4544 0.722 0.0
C431 C 0.58331 0.46735 0.74195 0.0
N432 N 0.51682 0.46055 0.65948 0.0
N433 N 0.57508 0.47395 0.71402 0.0
H434 H 0.97467 0.61093 0.2464 0.0
H435 H 0.97204 0.49389 0.11566 0.0
H436 H 0.94256 0.52173 0.25636 0.0
H437 H 0.01945 0.57655 0.11146 0.0
H438 H 0.9601 0.50406 0.16689 0.0
H439 H 0.99068 0.599 0.19676 0.0
C440 C 0.97128 0.58872 0.23832 0.0
C441 C 0.9572 0.56731 0.25569 0.0
C442 C 0.97324 0.5199 0.1548 0.0
C443 C 0.975 0.55369 0.19848 0.0
C444 C 0.98002 0.51415 0.1255 0.0
C445 C 0.99671 0.53445 0.10915 0.0
C446 C 0.98298 0.54625 0.16783 0.0
C447 C 0.00653 0.56027 0.12317 0.0
C448 C 0.98028 0.58198 0.20986 0.0
C449 C 0.95289 0.53909 0.24368 0.0
N450 N -0.00063 0.5655 0.15164 0.0
N451 N 0.96163 0.53315 0.21579 0.0
H452 H 0.27263 0.1151 0.05363 0.0
H453 H 0.3978 0.99308 0.06899 0.0
H454 H 0.25927 0.03236 0.09871 0.0
H455 H 0.40218 0.06422 0.00611 0.0
H456 H 0.34759 0.00792 0.08138 0.0
H457 H 0.3206 0.09758 0.03691 0.0
C458 C 0.27957 0.09313 0.05978 0.0
C459 C 0.26179 0.07525 0.07773 0.0
C460 C 0.35947 0.02016 0.06473 0.0
C461 C 0.31708 0.05528 0.05907 0.0
C462 C 0.38818 0.01174 0.05768 0.0
C463 C 0.40431 0.02749 0.03654 0.0
C464 C 0.34685 0.04471 0.0508 0.0
C465 C 0.3906 0.05141 0.02253 0.0
C466 C 0.30708 0.08321 0.05033 0.0
C467 C 0.27237 0.04718 0.08539 0.0
N468 N 0.36275 0.05944 0.03008 0.0
N469 N 0.29936 0.03815 0.07616 0.0
H470 H 0.23254 0.89007 0.58222 0.0
H471 H 0.12586 0.02009 0.5299 0.0
H472 H 0.26128 0.98054 0.57473 0.0
H473 H 0.09489 0.93438 0.55772 0.0
H474 H 0.17635 0.0052 0.54189 0.0
H475 H 0.18264 0.90511 0.5686 0.0
C476 C 0.22837 0.91309 0.57748 0.0
C477 C 0.25107 0.93409 0.57955 0.0
C478 C 0.15847 0.98971 0.54538 0.0
C479 C 0.19396 0.95151 0.56415 0.0
C480 C 0.12965 0.99814 0.53847 0.0
C481 C 0.10606 0.97847 0.54286 0.0
C482 C 0.16376 0.96132 0.55647 0.0
C483 C 0.11233 0.95034 0.55408 0.0
C484 C 0.19985 0.92169 0.56992 0.0
C485 C 0.24434 0.96369 0.57361 0.0
N486 N 0.14055 0.9426 0.56041 0.0
N487 N 0.21638 0.97153 0.56609 0.0
H488 H 0.75561 0.44368 0.99333 0.0
H489 H 0.90477 0.52045 0.93814 0.0
H490 H 0.76886 0.4754 0.90492 0.0
H491 H 0.89788 0.47292 0.02002 0.0
H492 H 0.85312 0.50899 0.92787 0.0
H493 H 0.80596 0.45888 0.00557 0.0
C494 C 0.76906 0.45382 0.97647 0.0
C495 C 0.75792 0.45813 0.94798 0.0
C496 C 0.86289 0.50111 0.94812 0.0
C497 C 0.8155 0.47591 0.96201 0.0
C498 C 0.8924 0.5077 0.95404 0.0
C499 C 0.9058 0.49751 0.97994 0.0
C500 C 0.84653 0.48434 0.96827 0.0
C501 C 0.88856 0.4811 -0.00029 0.0
C502 C 0.79777 0.46259 0.98353 0.0
C503 C 0.77626 0.47194 0.92725 0.0
N504 N 0.85983 0.47501 0.99344 0.0
N505 N 0.80413 0.48025 0.93466 0.0
H506 H 0.75005 0.5976 0.46755 0.0
H507 H 0.61944 0.48079 0.44872 0.0
H508 H 0.76185 0.51342 0.42486 0.0
H509 H 0.61656 0.55368 0.50966 0.0
H510 H 0.67076 0.49339 0.43752 0.0
H511 H 0.70031 0.58271 0.48139 0.0
C512 C 0.74239 0.57583 0.46135 0.0
C513 C 0.76036 0.55674 0.44502 0.0
C514 C 0.65889 0.50651 0.45343 0.0
C515 C 0.70291 0.53982 0.46029 0.0
C516 C 0.62957 0.4994 0.45979 0.0
C517 C 0.6136 0.51624 0.48013 0.0
C518 C 0.67224 0.53081 0.46729 0.0
C519 C 0.62796 0.54004 0.49385 0.0
C520 C 0.71384 0.56742 0.46913 0.0
C521 C 0.74874 0.52908 0.43707 0.0
N522 N 0.65637 0.5467 0.48705 0.0
N523 N 0.72071 0.52151 0.44466 0.0
H524 H 0.02191 0.2595 0.0849 0.0
H525 H 0.07471 0.40294 0.99686 0.0
H526 H 0.10907 0.27062 0.04823 0.0
H527 H 0.99409 0.39948 0.0472 0.0
H528 H 0.0849 0.35211 0.01081 0.0
H529 H 0.00888 0.30863 0.06697 0.0
C530 C 0.03831 0.2722 0.07308 0.0
C531 C 0.06668 0.26081 0.06814 0.0
C532 C 0.06493 0.36242 0.01874 0.0
C533 C 0.05175 0.31692 0.04728 0.0
C534 C 0.05904 0.39148 0.01073 0.0
C535 C 0.03357 0.40564 0.021 0.0
C536 C 0.0452 0.34727 0.03711 0.0
C537 C 0.01408 0.38954 0.03888 0.0
C538 C 0.03079 0.30019 0.06275 0.0
C539 C 0.08681 0.27816 0.05223 0.0
N540 N 0.02034 0.36123 0.04643 0.0
N541 N 0.07897 0.30531 0.04246 0.0
H542 H 0.54582 0.25002 0.91039 0.0
H543 H 0.56105 0.12367 0.03085 0.0
H544 H 0.5843 0.26471 0.99604 0.0
H545 H 0.50326 0.11647 0.95563 0.0
H546 H 0.57138 0.17481 0.01759 0.0
H547 H 0.53117 0.20063 0.92584 0.0
C548 C 0.55091 0.24306 0.93257 0.0
C549 C 0.56641 0.26168 0.95191 0.0
C550 C 0.55631 0.16209 0.00408 0.0
C551 C 0.55018 0.20475 0.96949 0.0
C552 C 0.55046 0.13284 0.01158 0.0
C553 C 0.53133 0.11568 0.99427 0.0
C554 C 0.54321 0.17423 0.9789 0.0
C555 C 0.51814 0.12885 0.96963 0.0
C556 C 0.54266 0.21474 0.9413 0.0
C557 C 0.57287 0.25104 0.98017 0.0
N558 N 0.5245 0.15728 0.96256 0.0
N559 N 0.56488 0.22325 0.98804 0.0
H560 H 0.95034 0.74111 0.49783 0.0
H561 H 0.96311 0.90931 0.44686 0.0
H562 H 0.94627 0.76924 0.40742 0.0
H563 H 0.98758 0.88004 0.53378 0.0
H564 H 0.95355 0.85824 0.433 0.0
H565 H 0.96087 0.79213 0.51246 0.0
C566 C 0.95168 0.75802 0.48109 0.0
C567 C 0.94755 0.75094 0.45137 0.0
C568 C 0.96107 0.86297 0.4551 0.0
C569 C 0.95945 0.80918 0.46789 0.0
C570 C 0.96645 0.89216 0.46308 0.0
C571 C 0.97619 0.89902 0.49155 0.0
C572 C 0.9652 0.84038 0.47577 0.0
C573 C 0.98018 0.87579 0.51157 0.0
C574 C 0.95781 0.78706 0.48942 0.0
C575 C 0.94971 0.77365 0.43054 0.0
N576 N 0.97457 0.8475 0.50332 0.0
N577 N 0.95537 0.80173 0.43921 0.0
H578 H 0.49325 0.75354 0.58303 0.0
H579 H 0.44095 0.60626 0.50091 0.0
H580 H 0.40458 0.73854 0.5512 0.0
H581 H 0.52421 0.61399 0.54672 0.0
H582 H 0.42945 0.65689 0.5146 0.0
H583 H 0.50692 0.70437 0.56579 0.0
C584 C 0.47664 0.73996 0.57246 0.0
C585 C 0.44768 0.75028 0.56861 0.0
C586 C 0.45028 0.64755 0.5216 0.0
C587 C 0.46332 0.69412 0.54852 0.0
C588 C 0.45691 0.61862 0.51372 0.0
C589 C 0.48355 0.60573 0.5228 0.0
C590 C 0.47043 0.66384 0.53861 0.0
C591 C 0.50335 0.62294 0.53935 0.0
C592 C 0.48451 0.71194 0.56251 0.0
C593 C 0.42727 0.73182 0.55428 0.0
N594 N 0.49636 0.65109 0.54678 0.0
N595 N 0.43547 0.70468 0.54483 0.0
H596 H 0.9775 0.92549 0.77475 0.0
H597 H 0.96039 0.03555 0.6386 0.0
H598 H 0.94886 0.01575 0.78377 0.0
H599 H 0.99718 0.94805 0.63224 0.0
H600 H 0.95506 0.02868 0.69156 0.0
H601 H 0.98468 0.93361 0.72244 0.0
C602 C 0.97308 0.94717 0.76584 0.0
C603 C 0.96265 0.97001 0.78383 0.0
C604 C 0.96431 0.01102 0.67855 0.0
C605 C 0.97022 0.97927 0.72353 0.0
C606 C 0.96729 0.01487 0.64828 0.0
C607 C 0.97923 0.99233 0.63086 0.0
C608 C 0.97325 0.9844 0.69152 0.0
C609 C 0.98786 0.96606 0.64471 0.0
C610 C 0.97695 0.95172 0.73584 0.0
C611 C 0.95663 0.9974 0.77075 0.0
N612 N 0.98466 0.96283 0.67417 0.0
N613 N 0.96043 0.00125 0.74139 0.0
H614 H 0.54345 0.9986 0.28641 0.0
H615 H 0.55924 0.06112 0.12346 0.0
H616 H 0.56337 0.08959 0.26702 0.0
H617 H 0.50809 0.98314 0.14329 0.0
H618 H 0.5671 0.06884 0.17598 0.0
H619 H 0.53628 0.98946 0.23367 0.0
C620 C 0.54633 0.01659 0.27102 0.0
C621 C 0.5538 0.04491 0.28097 0.0
C622 C 0.55414 0.05006 0.16881 0.0
C623 C 0.54599 0.03464 0.221 0.0
C624 C 0.54974 0.04556 0.13884 0.0
C625 C 0.53289 0.0215 0.12897 0.0
C626 C 0.54197 0.03014 0.18907 0.0
C627 C 0.52106 0.00209 0.14995 0.0
C628 C 0.54213 0.01142 0.24105 0.0
C629 C 0.55724 0.06752 0.26024 0.0
N630 N 0.52593 0.00676 0.17904 0.0
N631 N 0.55345 0.06187 0.23122 0.0
H632 H 0.45082 0.58942 0.25774 0.0
H633 H 0.50774 0.47311 0.37549 0.0
H634 H 0.46941 0.49933 0.234 0.0
H635 H 0.45629 0.54977 0.39809 0.0
H636 H 0.49905 0.48368 0.32334 0.0
H637 H 0.4583 0.57682 0.30933 0.0
C638 C 0.45663 0.56698 0.26345 0.0
C639 C 0.45966 0.54538 0.24166 0.0
C640 C 0.48959 0.49803 0.3398 0.0
C641 C 0.46823 0.5308 0.30062 0.0
C642 C 0.49461 0.49211 0.36951 0.0
C643 C 0.48275 0.51062 0.39119 0.0
C644 C 0.47303 0.52288 0.33178 0.0
C645 C 0.46581 0.53486 0.38218 0.0
C646 C 0.4607 0.55977 0.29288 0.0
C647 C 0.46682 0.51655 0.25023 0.0
N648 N 0.46166 0.5404 0.35319 0.0
N649 N 0.4711 0.5101 0.27912 0.0
H650 H 0.06084 0.41874 0.75373 0.0
H651 H 0.00961 0.53672 0.87253 0.0
H652 H 0.04184 0.50895 0.73057 0.0
H653 H 0.05977 0.45889 0.89427 0.0
H654 H 0.01567 0.52526 0.82032 0.0
H655 H 0.05425 0.43118 0.80547 0.0
C656 C 0.05498 0.44113 0.75957 0.0
C657 C 0.05175 0.46285 0.7379 0.0
C658 C 0.02542 0.51081 0.83658 0.0
C659 C 0.04439 0.47727 0.79703 0.0
C660 C 0.02192 0.51727 0.86635 0.0
C661 C 0.03421 0.49873 0.8878 0.0
C662 C 0.04089 0.4854 0.82827 0.0
C663 C 0.05002 0.47387 0.87851 0.0
C664 C 0.05149 0.44826 0.78908 0.0
C665 C 0.04463 0.49162 0.74668 0.0
N666 N 0.05272 0.46783 0.84946 0.0
N667 N 0.04103 0.498 0.77563 0.0
H668 H 0.76646 0.91839 0.97623 0.0
H669 H 0.63991 0.03256 0.01913 0.0
H670 H 0.78219 0.01207 0.98243 0.0
H671 H 0.62264 0.94474 0.98656 0.0
H672 H 0.69277 0.02455 0.01156 0.0
H673 H 0.71427 0.92675 0.98628 0.0
C674 C 0.75895 0.94072 0.98002 0.0
C675 C 0.77867 0.96458 0.9786 0.0
C676 C 0.67736 0.00709 0.00608 0.0
C677 C 0.71889 0.97433 0.98983 0.0
C678 C 0.64721 0.01158 0.01046 0.0
C679 C 0.62679 0.98929 0.00341 0.0
C680 C 0.68716 0.98 0.99491 0.0
C681 C 0.63753 0.96259 0.99218 0.0
C682 C 0.72912 0.94549 0.98551 0.0
C683 C 0.76765 0.9931 0.98318 0.0
N684 N 0.66696 0.95867 0.98839 0.0
N685 N 0.73845 0.9972 0.98868 0.0
H686 H 0.73454 -0.00052 0.46365 0.0
H687 H 0.88257 0.06281 0.53593 0.0
H688 H 0.74122 0.08759 0.49914 0.0
H689 H 0.88105 0.99099 0.4737 0.0
H690 H 0.82916 0.0684 0.52949 0.0
H691 H 0.78684 0.99212 0.47431 0.0
C692 C 0.74692 0.01729 0.4737 0.0
C693 C 0.73337 0.04433 0.48021 0.0
C694 C 0.84059 0.05143 0.51729 0.0
C695 C 0.79322 0.03578 0.49291 0.0
C696 C 0.87103 0.04819 0.52098 0.0
C697 C 0.88634 0.02651 0.5052 0.0
C698 C 0.82533 0.03258 0.49803 0.0
C699 C 0.87023 0.00817 0.48613 0.0
C700 C 0.77676 0.01301 0.47987 0.0
C701 C 0.75051 0.06628 0.49397 0.0
N702 N 0.84061 0.01157 0.48315 0.0
N703 N 0.77955 0.06155 0.49977 0.0
H704 H 0.26851 0.60504 0.04684 0.0
H705 H 0.14308 0.49108 0.99735 0.0
H706 H 0.2846 0.51178 0.03771 0.0
H707 H 0.12489 0.5776 0.03236 0.0
H708 H 0.19581 0.49952 0.006 0.0
H709 H 0.21655 0.59661 0.03513 0.0
C710 C 0.26114 0.5828 0.04206 0.0
C711 C 0.28089 0.55906 0.04317 0.0
C712 C 0.18023 0.51661 0.01176 0.0
C713 C 0.22137 0.54923 0.02999 0.0
C714 C 0.15015 0.51188 0.00675 0.0
C715 C 0.1295 0.53364 0.01422 0.0
C716 C 0.18973 0.54343 0.02399 0.0
C717 C 0.13996 0.56013 0.0264 0.0
C718 C 0.23144 0.57798 0.03561 0.0
C719 C 0.27003 0.53065 0.03726 0.0
N720 N 0.16933 0.5643 0.03082 0.0
N721 N 0.24097 0.52651 0.03085 0.0
H722 H 0.23283 0.46744 0.50512 0.0
H723 H 0.39917 0.44908 0.55994 0.0
H724 H 0.25636 0.445 0.59416 0.0
H725 H 0.37629 0.50046 0.48343 0.0
H726 H 0.34672 0.44171 0.56983 0.0
H727 H 0.28538 0.47443 0.49388 0.0
C728 C 0.24908 0.46402 0.52226 0.0
C729 C 0.24032 0.45582 0.55064 0.0
C730 C 0.3532 0.4546 0.55088 0.0
C731 C 0.30016 0.46342 0.53794 0.0
C732 C 0.38313 0.45871 0.54513 0.0
C733 C 0.39215 0.4755 0.52086 0.0
C734 C 0.33207 0.46706 0.53205 0.0
C735 C 0.37033 0.4875 0.50248 0.0
C736 C 0.27896 0.4681 0.51589 0.0
C737 C 0.26218 0.45172 0.57211 0.0
N738 N 0.34127 0.48297 0.5084 0.0
N739 N 0.2911 0.4554 0.56528 0.0
H740 H 0.92524 0.76517 0.95489 0.0
H741 H 0.03954 0.64317 0.00742 0.0
H742 H 0.01585 0.78658 0.97519 0.0
H743 H 0.96258 0.62319 0.95487 0.0
H744 H 0.02959 0.69587 0.00102 0.0
H745 H 0.93668 0.71286 0.9605 0.0
C746 C 0.94752 0.7588 0.96075 0.0
C747 C 0.96963 0.78014 0.96474 0.0
C748 C 0.01501 0.67989 0.99081 0.0
C749 C 0.98288 0.72039 0.97109 0.0
C750 C 0.02059 0.64985 0.99452 0.0
C751 C 0.00183 0.62874 0.98167 0.0
C752 C 0.99025 0.68883 0.97458 0.0
C753 C 0.97767 0.63866 0.96509 0.0
C754 C 0.95408 0.72897 0.96371 0.0
C755 C 0.99824 0.77073 0.97186 0.0
N756 N 0.97246 0.66798 0.96222 0.0
N757 N 0.00404 0.74148 0.97502 0.0
H758 H 0.48443 0.73561 0.01412 0.0
H759 H 0.47848 0.89868 0.07968 0.0
H760 H 0.46772 0.75458 0.10539 0.0
H761 H 0.51903 0.87862 0.99636 0.0
H762 H 0.47101 0.84603 0.08805 0.0
H763 H 0.49409 0.78818 0.0057 0.0
C764 C 0.48288 0.75084 0.03236 0.0
C765 C 0.47537 0.74077 0.0605 0.0
C766 C 0.48163 0.85315 0.06798 0.0
C767 C 0.48615 0.80073 0.05104 0.0
C768 C 0.4858 0.88322 0.06312 0.0
C769 C 0.4994 0.89311 0.03727 0.0
C770 C 0.49082 0.83277 0.0467 0.0
C771 C 0.50853 0.872 0.01665 0.0
C772 C 0.48849 0.78076 0.02759 0.0
C773 C 0.4738 0.76137 0.08343 0.0
N774 N 0.50393 0.84282 0.02174 0.0
N775 N 0.47896 0.79038 0.07816 0.0
H776 H 0.02245 0.26583 0.59598 0.0
H777 H 0.05148 0.12148 0.50149 0.0
H778 H 0.06421 0.26799 0.51083 0.0
H779 H 0.98567 0.12527 0.56981 0.0
H780 H 0.05948 0.17451 0.50683 0.0
H781 H 0.01097 0.21383 0.58853 0.0
C782 C 0.02887 0.25558 0.57552 0.0
C783 C 0.0444 0.2715 0.55401 0.0
C784 C 0.04322 0.16373 0.52056 0.0
C785 C 0.03196 0.21156 0.54577 0.0
C786 C 0.03875 0.13343 0.51766 0.0
C787 C 0.01791 0.11888 0.53529 0.0
C788 C 0.02703 0.17956 0.54149 0.0
C789 C 0.00193 0.13557 0.55573 0.0
C790 C 0.02247 0.22577 0.5714 0.0
C791 C 0.05269 0.25661 0.52827 0.0
N792 N 0.00696 0.16501 0.5584 0.0
N793 N 0.04656 0.22745 0.52497 0.0
H794 H 0.53922 0.22682 0.51674 0.0
H795 H 0.53488 0.38655 0.44325 0.0
H796 H 0.54381 0.24178 0.42331 0.0
H797 H 0.50438 0.37032 0.53156 0.0
H798 H 0.54237 0.33372 0.43686 0.0
H799 H 0.53025 0.2797 0.52399 0.0
C800 C 0.53827 0.24123 0.4978 0.0
C801 C 0.54208 0.22994 0.46938 0.0
C802 C 0.53396 0.3417 0.45762 0.0
C803 C 0.53212 0.29018 0.47747 0.0
C804 C 0.52978 0.3719 0.46133 0.0
C805 C 0.51896 0.38291 0.48799 0.0
C806 C 0.5276 0.32232 0.48081 0.0
C807 C 0.51266 0.36279 0.5106 0.0
C808 C 0.53305 0.27131 0.50191 0.0
C809 C 0.54056 0.2495 0.44556 0.0
N810 N 0.5172 0.33345 0.50655 0.0
N811 N 0.53587 0.27865 0.45015 0.0
loop_
_geom_bond_atom_site_label_1
_geom_bond_atom_site_label_2
_geom_bond_distance
_geom_bond_site_symmetry_2
_ccdc_geom_bond_type
C0 C1 1.384 . S
C0 H13 0.947 . S
C0 C35 1.382 . S
C1 C0 1.384 . S
C1 C2 1.378 . S
C2 C1 1.378 . S
C2 C3 1.378 . S
C2 H14 0.952 . S
C3 C2 1.378 . S
C3 H15 0.950 . S
C3 C34 1.383 . S
H4 C23 0.947 . S
H5 C24 0.946 . S
H6 C26 0.953 . S
H7 C27 0.945 . S
H8 C29 0.952 . S
H9 C30 0.949 . S
H10 C32 0.950 . S
H11 C33 0.948 . S
H12 C35 0.951 . S
H13 C0 0.947 . S
H14 C2 0.952 . S
H15 C3 0.950 . S
N16 C19 1.382 . S
N16 C21 1.363 . S
N17 C19 1.371 . S
N17 C20 1.372 . S
N18 C20 1.361 . S
N18 C21 1.377 . S
C19 N16 1.382 . S
C19 N17 1.371 . S
C19 C22 1.480 . S
C20 N17 1.372 . S
C20 N18 1.361 . S
C20 C28 1.457 . S
C21 N16 1.363 . S
C21 N18 1.377 . S
C21 C34 1.479 . S
C22 C19 1.480 . S
C22 C23 1.383 . S
C22 C27 1.385 . S
C23 H4 0.947 . S
C23 C22 1.383 . S
C23 C24 1.388 . S
C24 H5 0.946 . S
C24 C23 1.388 . S
C24 C25 1.384 . S
C25 C24 1.384 . S
C25 C26 1.377 . S
C26 H6 0.953 . S
C26 C25 1.377 . S
C26 C27 1.369 . S
C27 H7 0.945 . S
C27 C22 1.385 . S
C27 C26 1.369 . S
C28 C20 1.457 . S
C28 C29 1.372 . S
C28 C33 1.364 . S
C29 H8 0.952 . S
C29 C28 1.372 . S
C29 C30 1.389 . S
C30 H9 0.949 . S
C30 C29 1.389 . S
C30 C31 1.387 . S
C31 C30 1.387 . S
C31 C32 1.372 . S
C32 H10 0.950 . S
C32 C31 1.372 . S
C32 C33 1.379 . S
C33 H11 0.948 . S
C33 C28 1.364 . S
C33 C32 1.379 . S
C34 C3 1.383 . S
C34 C21 1.479 . S
C34 C35 1.398 . S
C35 C0 1.382 . S
C35 H12 0.951 . S
C35 C34 1.398 . S
C36 C37 1.384 . S
C36 H49 0.947 . S
C36 C71 1.382 . S
C37 C36 1.384 . S
C37 C38 1.378 . S
C38 C37 1.378 . S
C38 C39 1.378 . S
C38 H50 0.952 . S
C39 C38 1.378 . S
C39 H51 0.950 . S
C39 C70 1.383 . S
H40 C59 0.947 . S
H41 C60 0.946 . S
H42 C62 0.953 . S
H43 C63 0.945 . S
H44 C65 0.952 . S
H45 C66 0.949 . S
H46 C68 0.950 . S
H47 C69 0.948 . S
H48 C71 0.951 . S
H49 C36 0.947 . S
H50 C38 0.952 . S
H51 C39 0.950 . S
N52 C55 1.382 . S
N52 C57 1.363 . S
N53 C55 1.371 . S
N53 C56 1.372 . S
N54 C56 1.361 . S
N54 C57 1.377 . S
C55 N52 1.382 . S
C55 N53 1.371 . S
C55 C58 1.480 . S
C56 N53 1.372 . S
C56 N54 1.361 . S
C56 C64 1.457 . S
C57 N52 1.363 . S
C57 N54 1.377 . S
C57 C70 1.479 . S
C58 C55 1.480 . S
C58 C59 1.383 . S
C58 C63 1.385 . S
C59 H40 0.947 . S
C59 C58 1.383 . S
C59 C60 1.388 . S
C60 H41 0.946 . S
C60 C59 1.388 . S
C60 C61 1.384 . S
C61 C60 1.384 . S
C61 C62 1.377 . S
C62 H42 0.953 . S
C62 C61 1.377 . S
C62 C63 1.369 . S
C63 H43 0.945 . S
C63 C58 1.385 . S
C63 C62 1.369 . S
C64 C56 1.457 . S
C64 C65 1.372 . S
C64 C69 1.364 . S
C65 H44 0.952 . S
C65 C64 1.372 . S
C65 C66 1.389 . S
C66 H45 0.949 . S
C66 C65 1.389 . S
C66 C67 1.387 . S
C67 C66 1.387 . S
C67 C68 1.372 . S
C68 H46 0.950 . S
C68 C67 1.372 . S
C68 C69 1.379 . S
C69 H47 0.948 . S
C69 C64 1.364 . S
C69 C68 1.379 . S
C70 C39 1.383 . S
C70 C57 1.479 . S
C70 C71 1.398 . S
C71 C36 1.382 . S
C71 H48 0.951 . S
C71 C70 1.398 . S
C72 C73 1.384 . S
C72 H85 0.947 . S
C72 C107 1.382 . S
C73 C72 1.384 . S
C73 C74 1.378 . S
C74 C73 1.378 . S
C74 C75 1.378 . S
C74 H86 0.952 . S
C75 C74 1.378 . S
C75 H87 0.950 . S
C75 C106 1.383 . S
H76 C95 0.947 . S
H77 C96 0.946 . S
H78 C98 0.953 . S
H79 C99 0.945 . S
H80 C101 0.952 . S
H81 C102 0.949 . S
H82 C104 0.950 . S
H83 C105 0.948 . S
H84 C107 0.951 . S
H85 C72 0.947 . S
H86 C74 0.952 . S
H87 C75 0.950 . S
N88 C91 1.382 . S
N88 C93 1.363 . S
N89 C91 1.371 . S
N89 C92 1.372 . S
N90 C92 1.361 . S
N90 C93 1.377 . S
C91 N88 1.382 . S
C91 N89 1.371 . S
C91 C94 1.480 . S
C92 N89 1.372 . S
C92 N90 1.361 . S
C92 C100 1.457 . S
C93 N88 1.363 . S
C93 N90 1.377 . S
C93 C106 1.479 . S
C94 C91 1.480 . S
C94 C95 1.383 . S
C94 C99 1.385 . S
C95 H76 0.947 . S
C95 C94 1.383 . S
C95 C96 1.388 . S
C96 H77 0.946 . S
C96 C95 1.388 . S
C96 C97 1.384 . S
C97 C96 1.384 . S
C97 C98 1.377 . S
C98 H78 0.953 . S
C98 C97 1.377 . S
C98 C99 1.369 . S
C99 H79 0.945 . S
C99 C94 1.385 . S
C99 C98 1.369 . S
C100 C92 1.457 . S
C100 C101 1.372 . S
C100 C105 1.364 . S
C101 H80 0.952 . S
C101 C100 1.372 . S
C101 C102 1.389 . S
C102 H81 0.949 . S
C102 C101 1.389 . S
C102 C103 1.387 . S
C103 C102 1.387 . S
C103 C104 1.372 . S
C104 H82 0.950 . S
C104 C103 1.372 . S
C104 C105 1.379 . S
C105 H83 0.948 . S
C105 C100 1.364 . S
C105 C104 1.379 . S
C106 C75 1.383 . S
C106 C93 1.479 . S
C106 C107 1.398 . S
C107 C72 1.382 . S
C107 H84 0.951 . S
C107 C106 1.398 . S
C108 C109 1.384 . S
C108 H121 0.947 . S
C108 C143 1.382 . S
C109 C108 1.384 . S
C109 C110 1.378 . S
C110 C109 1.378 . S
C110 C111 1.378 . S
C110 H122 0.952 . S
C111 C110 1.378 . S
C111 H123 0.950 . S
C111 C142 1.383 . S
H112 C131 0.947 . S
H113 C132 0.946 . S
H114 C134 0.953 . S
H115 C135 0.945 . S
H116 C137 0.952 . S
H117 C138 0.949 . S
H118 C140 0.950 . S
H119 C141 0.948 . S
H120 C143 0.951 . S
H121 C108 0.947 . S
H122 C110 0.952 . S
H123 C111 0.950 . S
N124 C127 1.382 . S
N124 C129 1.363 . S
N125 C127 1.371 . S
N125 C128 1.372 . S
N126 C128 1.361 . S
N126 C129 1.377 . S
C127 N124 1.382 . S
C127 N125 1.371 . S
C127 C130 1.480 . S
C128 N125 1.372 . S
C128 N126 1.361 . S
C128 C136 1.457 . S
C129 N124 1.363 . S
C129 N126 1.377 . S
C129 C142 1.479 . S
C130 C127 1.480 . S
C130 C131 1.383 . S
C130 C135 1.385 . S
C131 H112 0.947 . S
C131 C130 1.383 . S
C131 C132 1.388 . S
C132 H113 0.946 . S
C132 C131 1.388 . S
C132 C133 1.384 . S
C133 C132 1.384 . S
C133 C134 1.377 . S
C134 H114 0.953 . S
C134 C133 1.377 . S
C134 C135 1.369 . S
C135 H115 0.945 . S
C135 C130 1.385 . S
C135 C134 1.369 . S
C136 C128 1.457 . S
C136 C137 1.372 . S
C136 C141 1.364 . S
C137 H116 0.952 . S
C137 C136 1.372 . S
C137 C138 1.389 . S
C138 H117 0.949 . S
C138 C137 1.389 . S
C138 C139 1.387 . S
C139 C138 1.387 . S
C139 C140 1.372 . S
C140 H118 0.950 . S
C140 C139 1.372 . S
C140 C141 1.379 . S
C141 H119 0.948 . S
C141 C136 1.364 . S
C141 C140 1.379 . S
C142 C111 1.383 . S
C142 C129 1.479 . S
C142 C143 1.398 . S
C143 C108 1.382 . S
C143 H120 0.951 . S
C143 C142 1.398 . S
C144 C145 1.384 . S
C144 H157 0.947 1_565 S
C144 C179 1.382 . S
C145 C144 1.384 . S
C145 C146 1.378 . S
C146 C145 1.378 . S
C146 C147 1.378 . S
C146 H158 0.952 . S
C147 C146 1.378 . S
C147 H159 0.950 . S
C147 C178 1.383 . S
H148 C167 0.947 . S
H149 C168 0.946 . S
H150 C170 0.953 . S
H151 C171 0.945 . S
H152 C173 0.952 . S
H153 C174 0.949 . S
H154 C176 0.950 1_545 S
H155 C177 0.948 . S
H156 C179 0.951 . S
H157 C144 0.947 1_545 S
H158 C146 0.952 . S
H159 C147 0.950 . S
N160 C163 1.382 . S
N160 C165 1.363 . S
N161 C163 1.371 . S
N161 C164 1.372 . S
N162 C164 1.361 . S
N162 C165 1.377 . S
C163 N160 1.382 . S
C163 N161 1.371 . S
C163 C166 1.480 . S
C164 N161 1.372 . S
C164 N162 1.361 . S
C164 C172 1.457 . S
C165 N160 1.363 . S
C165 N162 1.377 . S
C165 C178 1.479 . S
C166 C163 1.480 . S
C166 C167 1.383 . S
C166 C171 1.385 . S
C167 H148 0.947 . S
C167 C166 1.383 . S
C167 C168 1.388 . S
C168 H149 0.946 . S
C168 C167 1.388 . S
C168 C169 1.384 . S
C169 C168 1.384 . S
C169 C170 1.377 . S
C170 H150 0.953 . S
C170 C169 1.377 . S
C170 C171 1.369 . S
C171 H151 0.945 . S
C171 C166 1.385 . S
C171 C170 1.369 . S
C172 C164 1.457 . S
C172 C173 1.372 . S
C172 C177 1.364 . S
C173 H152 0.952 . S
C173 C172 1.372 . S
C173 C174 1.389 . S
C174 H153 0.949 . S
C174 C173 1.389 . S
C174 C175 1.387 . S
C175 C174 1.387 . S
C175 C176 1.372 . S
C176 H154 0.950 1_565 S
C176 C175 1.372 . S
C176 C177 1.379 . S
C177 H155 0.948 . S
C177 C172 1.364 . S
C177 C176 1.379 . S
C178 C147 1.383 . S
C178 C165 1.479 . S
C178 C179 1.398 . S
C179 C144 1.382 . S
C179 H156 0.951 . S
C179 C178 1.398 . S
C180 C181 1.384 . S
C180 H193 0.947 . S
C180 C215 1.382 . S
C181 C180 1.384 . S
C181 C182 1.378 . S
C182 C181 1.378 . S
C182 C183 1.378 . S
C182 H194 0.952 . S
C183 C182 1.378 . S
C183 H195 0.950 . S
C183 C214 1.383 . S
H184 C203 0.947 . S
H185 C204 0.946 . S
H186 C206 0.953 . S
H187 C207 0.945 . S
H188 C209 0.952 . S
H189 C210 0.949 . S
H190 C212 0.950 . S
H191 C213 0.948 . S
H192 C215 0.951 . S
H193 C180 0.947 . S
H194 C182 0.952 . S
H195 C183 0.950 . S
N196 C199 1.382 . S
N196 C201 1.363 . S
N197 C199 1.371 . S
N197 C200 1.372 . S
N198 C200 1.361 . S
N198 C201 1.377 . S
C199 N196 1.382 . S
C199 N197 1.371 . S
C199 C202 1.480 . S
C200 N197 1.372 . S
C200 N198 1.361 . S
C200 C208 1.457 . S
C201 N196 1.363 . S
C201 N198 1.377 . S
C201 C214 1.479 . S
C202 C199 1.480 . S
C202 C203 1.383 . S
C202 C207 1.385 . S
C203 H184 0.947 . S
C203 C202 1.383 . S
C203 C204 1.388 . S
C204 H185 0.946 . S
C204 C203 1.388 . S
C204 C205 1.384 . S
C205 C204 1.384 . S
C205 C206 1.377 . S
C206 H186 0.953 . S
C206 C205 1.377 . S
C206 C207 1.369 . S
C207 H187 0.945 . S
C207 C202 1.385 . S
C207 C206 1.369 . S
C208 C200 1.457 . S
C208 C209 1.372 . S
C208 C213 1.364 . S
C209 H188 0.952 . S
C209 C208 1.372 . S
C209 C210 1.389 . S
C210 H189 0.949 . S
C210 C209 1.389 . S
C210 C211 1.387 . S
C211 C210 1.387 . S
C211 C212 1.372 . S
C212 H190 0.950 . S
C212 C211 1.372 . S
C212 C213 1.379 . S
C213 H191 0.948 . S
C213 C208 1.364 . S
C213 C212 1.379 . S
C214 C183 1.383 . S
C214 C201 1.479 . S
C214 C215 1.398 . S
C215 C180 1.382 . S
C215 H192 0.951 . S
C215 C214 1.398 . S
C216 C217 1.384 . S
C216 H229 0.947 . S
C216 C251 1.382 . S
C217 C216 1.384 . S
C217 C218 1.378 . S
C218 C217 1.378 . S
C218 C219 1.378 . S
C218 H230 0.952 . S
C219 C218 1.378 . S
C219 H231 0.950 . S
C219 C250 1.383 . S
H220 C239 0.947 . S
H221 C240 0.946 . S
H222 C242 0.953 . S
H223 C243 0.945 . S
H224 C245 0.952 . S
H225 C246 0.949 . S
H226 C248 0.950 . S
H227 C249 0.948 . S
H228 C251 0.951 . S
H229 C216 0.947 . S
H230 C218 0.952 . S
H231 C219 0.950 . S
N232 C235 1.382 . S
N232 C237 1.363 . S
N233 C235 1.371 . S
N233 C236 1.372 . S
N234 C236 1.361 . S
N234 C237 1.377 . S
C235 N232 1.382 . S
C235 N233 1.371 . S
C235 C238 1.480 . S
C236 N233 1.372 . S
C236 N234 1.361 . S
C236 C244 1.457 . S
C237 N232 1.363 . S
C237 N234 1.377 . S
C237 C250 1.479 . S
C238 C235 1.480 . S
C238 C239 1.383 . S
C238 C243 1.385 . S
C239 H220 0.947 . S
C239 C238 1.383 . S
C239 C240 1.388 . S
C240 H221 0.946 . S
C240 C239 1.388 . S
C240 C241 1.384 . S
C241 C240 1.384 . S
C241 C242 1.377 . S
C242 H222 0.953 . S
C242 C241 1.377 . S
C242 C243 1.369 . S
C243 H223 0.945 . S
C243 C238 1.385 . S
C243 C242 1.369 . S
C244 C236 1.457 . S
C244 C245 1.372 . S
C244 C249 1.364 . S
C245 H224 0.952 . S
C245 C244 1.372 . S
C245 C246 1.389 . S
C246 H225 0.949 . S
C246 C245 1.389 . S
C246 C247 1.387 . S
C247 C246 1.387 . S
C247 C248 1.372 . S
C248 H226 0.950 . S
C248 C247 1.372 . S
C248 C249 1.379 . S
C249 H227 0.948 . S
C249 C244 1.364 . S
C249 C248 1.379 . S
C250 C219 1.383 . S
C250 C237 1.479 . S
C250 C251 1.398 . S
C251 C216 1.382 . S
C251 H228 0.951 . S
C251 C250 1.398 . S
C252 C253 1.384 . S
C252 H265 0.947 . S
C252 C287 1.382 . S
C253 C252 1.384 . S
C253 C254 1.378 . S
C254 C253 1.378 . S
C254 C255 1.378 . S
C254 H266 0.952 . S
C255 C254 1.378 . S
C255 H267 0.950 . S
C255 C286 1.383 . S
H256 C275 0.947 . S
H257 C276 0.946 . S
H258 C278 0.953 . S
H259 C279 0.945 . S
H260 C281 0.952 . S
H261 C282 0.949 . S
H262 C284 0.950 . S
H263 C285 0.948 . S
H264 C287 0.951 . S
H265 C252 0.947 . S
H266 C254 0.952 . S
H267 C255 0.950 . S
N268 C271 1.382 . S
N268 C273 1.363 . S
N269 C271 1.371 . S
N269 C272 1.372 . S
N270 C272 1.361 . S
N270 C273 1.377 . S
C271 N268 1.382 . S
C271 N269 1.371 . S
C271 C274 1.480 . S
C272 N269 1.372 . S
C272 N270 1.361 . S
C272 C280 1.457 . S
C273 N268 1.363 . S
C273 N270 1.377 . S
C273 C286 1.479 . S
C274 C271 1.480 . S
C274 C275 1.383 . S
C274 C279 1.385 . S
C275 H256 0.947 . S
C275 C274 1.383 . S
C275 C276 1.388 . S
C276 H257 0.946 . S
C276 C275 1.388 . S
C276 C277 1.384 . S
C277 C276 1.384 . S
C277 C278 1.377 . S
C278 H258 0.953 . S
C278 C277 1.377 . S
C278 C279 1.369 . S
C279 H259 0.945 . S
C279 C274 1.385 . S
C279 C278 1.369 . S
C280 C272 1.457 . S
C280 C281 1.372 . S
C280 C285 1.364 . S
C281 H260 0.952 . S
C281 C280 1.372 . S
C281 C282 1.389 . S
C282 H261 0.949 . S
C282 C281 1.389 . S
C282 C283 1.387 . S
C283 C282 1.387 . S
C283 C284 1.372 . S
C284 H262 0.950 . S
C284 C283 1.372 . S
C284 C285 1.379 . S
C285 H263 0.948 . S
C285 C280 1.364 . S
C285 C284 1.379 . S
C286 C255 1.383 . S
C286 C273 1.479 . S
C286 C287 1.398 . S
C287 C252 1.382 . S
C287 H264 0.951 . S
C287 C286 1.398 . S
O288 Zn289 1.953 . S
O288 C304 1.225 1_655 S
Zn289 O288 1.953 . S
Zn289 O290 1.949 1_655 S
Zn289 O296 1.919 . S
Zn289 O301 1.924 . S
O290 Zn289 1.949 1_455 S
O290 Zn291 1.923 1_445 S
O290 Zn292 1.950 . S
O290 Zn293 1.945 1_545 S
Zn291 O290 1.923 1_665 S
Zn291 O294 1.933 . S
Zn291 O297 1.941 1_565 S
Zn291 O298 1.965 1_665 S
Zn292 O290 1.950 . S
Zn292 O299 1.938 . S
Zn292 O300 1.881 1_545 S
Zn292 O310 1.953 . S
Zn293 O290 1.945 1_565 S
Zn293 O295 1.932 1_455 S
Zn293 O302 1.977 . S
Zn293 O303 1.910 1_455 S
O294 Zn291 1.933 . S
O294 C305 1.226 . S
O295 Zn293 1.932 1_655 S
O295 C305 1.307 . S
O296 Zn289 1.919 . S
O296 C307 1.253 . S
O297 Zn291 1.941 1_545 S
O297 C307 1.283 . S
O298 Zn291 1.965 1_445 S
O298 C306 1.303 . S
O299 Zn292 1.938 . S
O299 C306 1.247 . S
O300 Zn292 1.881 1_565 S
O300 C308 1.341 . S
O301 Zn289 1.924 . S
O301 C309 1.311 1_545 S
O302 Zn293 1.977 . S
O302 C308 1.272 . S
O303 Zn293 1.910 1_655 S
O303 C309 1.231 . S
C304 O288 1.225 1_455 S
C304 O310 1.298 . S
C305 O294 1.226 . S
C305 O295 1.307 . S
C306 O298 1.303 . S
C306 O299 1.247 . S
C307 O296 1.253 . S
C307 O297 1.283 . S
C308 O300 1.341 . S
C308 O302 1.272 . S
C309 O301 1.311 1_565 S
C309 O303 1.231 . S
O310 Zn292 1.953 . S
O310 C304 1.298 . S
O311 Zn312 1.953 . S
O311 C327 1.225 . S
Zn312 O311 1.953 . S
Zn312 O313 1.949 1_556 S
Zn312 O319 1.919 . S
Zn312 O324 1.924 1_556 S
O313 Zn312 1.949 1_554 S
O313 Zn314 1.923 1_545 S
O313 Zn315 1.950 . S
O313 Zn316 1.945 1_545 S
Zn314 O313 1.923 1_565 S
Zn314 O317 1.933 . S
Zn314 O320 1.941 1_554 S
Zn314 O321 1.965 1_554 S
Zn315 O313 1.950 . S
Zn315 O322 1.938 . S
Zn315 O323 1.906 . S
Zn315 O333 1.953 . S
Zn316 O313 1.945 1_565 S
Zn316 O318 1.932 . S
Zn316 O325 1.977 1_565 S
Zn316 O326 1.910 1_565 S
O317 Zn314 1.933 . S
O317 C328 1.226 . S
O318 Zn316 1.932 . S
O318 C328 1.307 . S
O319 Zn312 1.919 . S
O319 C330 1.253 1_545 S
O320 Zn314 1.941 1_556 S
O320 C330 1.283 . S
O321 Zn314 1.965 1_556 S
O321 C329 1.305 . S
O322 Zn315 1.938 . S
O322 C329 1.224 1_544 S
O323 Zn315 1.906 . S
O323 C331 1.304 . S
O324 Zn312 1.924 1_554 S
O324 C332 1.311 . S
O325 Zn316 1.977 1_545 S
O325 C331 1.272 . S
O326 Zn316 1.910 1_545 S
O326 C332 1.231 . S
C327 O311 1.225 . S
C327 O333 1.298 1_556 S
C328 O317 1.226 . S
C328 O318 1.307 . S
C329 O321 1.305 . S
C329 O322 1.224 1_566 S
C330 O319 1.253 1_565 S
C330 O320 1.283 . S
C331 O323 1.304 . S
C331 O325 1.272 . S
C332 O324 1.311 . S
C332 O326 1.231 . S
O333 Zn315 1.953 . S
O333 C327 1.298 1_554 S
O334 Zn335 1.953 . S
O334 C350 1.225 . S
Zn335 O334 1.953 . S
Zn335 O336 1.949 . S
Zn335 O342 1.919 . S
Zn335 O347 1.924 . S
O336 Zn335 1.949 . S
O336 Zn337 1.923 . S
O336 Zn338 1.950 . S
O336 Zn339 1.945 . S
Zn337 O336 1.923 . S
Zn337 O340 1.933 . S
Zn337 O343 1.941 . S
Zn337 O344 1.965 . S
Zn338 O336 1.950 . S
Zn338 O345 1.938 . S
Zn338 O346 1.906 . S
Zn338 O356 1.953 . S
Zn339 O336 1.945 . S
Zn339 O341 1.932 . S
Zn339 O348 1.977 . S
Zn339 O349 1.910 . S
O340 Zn337 1.933 . S
O340 C351 1.226 . S
O341 Zn339 1.932 . S
O341 C351 1.307 . S
O342 Zn335 1.919 . S
O342 C353 1.253 . S
O343 Zn337 1.941 . S
O343 C353 1.283 . S
O344 Zn337 1.965 . S
O344 C352 1.303 . S
O345 Zn338 1.938 . S
O345 C352 1.247 . S
O346 Zn338 1.906 . S
O346 C354 1.304 . S
O347 Zn335 1.924 . S
O347 C355 1.311 . S
O348 Zn339 1.977 . S
O348 C354 1.272 . S
O349 Zn339 1.910 . S
O349 C355 1.231 . S
C350 O334 1.225 . S
C350 O356 1.298 . S
C351 O340 1.226 . S
C351 O341 1.307 . S
C352 O344 1.303 . S
C352 O345 1.247 . S
C353 O342 1.253 . S
C353 O343 1.283 . S
C354 O346 1.304 . S
C354 O348 1.272 . S
C355 O347 1.311 . S
C355 O349 1.231 . S
O356 Zn338 1.953 . S
O356 C350 1.298 . S
O357 Zn358 1.953 . S
O357 C373 1.225 . S
Zn358 O357 1.953 . S
Zn358 O359 1.949 1_655 S
Zn358 O365 1.919 . S
Zn358 O370 1.924 . S
O359 Zn358 1.949 1_455 S
O359 Zn360 1.923 1_454 S
O359 Zn361 1.950 . S
O359 Zn362 1.945 1_554 S
Zn360 O359 1.923 1_656 S
Zn360 O363 1.933 1_655 S
Zn360 O366 1.941 . S
Zn360 O367 1.965 . S
Zn361 O359 1.950 . S
Zn361 O368 1.938 . S
Zn361 O369 1.906 . S
Zn361 O379 1.953 . S
Zn362 O359 1.945 1_556 S
Zn362 O364 1.932 . S
Zn362 O371 1.977 1_556 S
Zn362 O372 1.910 1_556 S
O363 Zn360 1.933 1_455 S
O363 C374 1.226 . S
O364 Zn362 1.932 . S
O364 C374 1.307 . S
O365 Zn358 1.919 . S
O365 C376 1.253 1_554 S
O366 Zn360 1.941 . S
O366 C376 1.283 . S
O367 Zn360 1.965 . S
O367 C375 1.303 . S
O368 Zn361 1.938 . S
O368 C375 1.247 1_454 S
O369 Zn361 1.906 . S
O369 C377 1.304 . S
O370 Zn358 1.924 . S
O370 C378 1.311 1_655 S
O371 Zn362 1.977 1_554 S
O371 C377 1.272 . S
O372 Zn362 1.910 1_554 S
O372 C378 1.231 . S
C373 O357 1.225 . S
C373 O379 1.298 1_655 S
C374 O363 1.226 . S
C374 O364 1.307 . S
C375 O367 1.303 . S
C375 O368 1.247 1_656 S
C376 O365 1.253 1_556 S
C376 O366 1.283 . S
C377 O369 1.304 . S
C377 O371 1.272 . S
C378 O370 1.311 1_455 S
C378 O372 1.231 . S
O379 Zn361 1.953 . S
O379 C373 1.298 1_455 S
H380 C386 0.930 . S
H381 C390 0.930 . S
H382 C395 0.929 . S
H383 C393 0.929 . S
H384 C388 0.929 . S
H385 C394 0.929 . S
C386 H380 0.930 . S
C386 C387 1.367 . S
C386 C394 1.378 . S
C387 C386 1.367 . S
C387 C395 1.433 . S
C388 H384 0.929 . S
C388 C390 1.378 . S
C388 C392 1.350 . S
C389 C392 1.463 . S
C389 C394 1.350 . S
C389 N397 1.427 . S
C390 H381 0.930 . S
C390 C388 1.378 . S
C390 C391 1.367 . S
C391 C390 1.367 . S
C391 C393 1.433 . S
C392 C388 1.350 . S
C392 C389 1.463 . S
C392 N396 1.427 . S
C393 H383 0.929 . S
C393 C391 1.433 . S
C393 N396 1.384 . S
C394 H385 0.929 . S
C394 C386 1.378 . S
C394 C389 1.350 . S
C395 H382 0.929 . S
C395 C387 1.433 . S
C395 N397 1.384 . S
N396 C392 1.427 . S
N396 C393 1.384 . S
N397 C389 1.427 . S
N397 C395 1.384 . S
H398 C404 0.930 . S
H399 C408 0.930 . S
H400 C413 0.929 . S
H401 C411 0.929 1_545 S
H402 C406 0.929 . S
H403 C412 0.929 . S
C404 H398 0.930 . S
C404 C405 1.367 . S
C404 C412 1.378 . S
C405 C404 1.367 . S
C405 C413 1.433 . S
C406 H402 0.929 . S
C406 C408 1.378 . S
C406 C410 1.350 . S
C407 C410 1.463 . S
C407 C412 1.350 . S
C407 N415 1.427 . S
C408 H399 0.930 . S
C408 C406 1.378 . S
C408 C409 1.367 . S
C409 C408 1.367 . S
C409 C411 1.433 . S
C410 C406 1.350 . S
C410 C407 1.463 . S
C410 N414 1.427 . S
C411 H401 0.929 1_565 S
C411 C409 1.433 . S
C411 N414 1.384 . S
C412 H403 0.929 . S
C412 C404 1.378 . S
C412 C407 1.350 . S
C413 H400 0.929 . S
C413 C405 1.433 . S
C413 N415 1.384 . S
N414 C410 1.427 . S
N414 C411 1.384 . S
N415 C407 1.427 . S
N415 C413 1.384 . S
H416 C422 0.930 . S
H417 C426 0.930 . S
H418 C431 0.929 . S
H419 C429 0.929 . S
H420 C424 0.929 . S
H421 C430 0.929 . S
C422 H416 0.930 . S
C422 C423 1.367 . S
C422 C430 1.378 . S
C423 C422 1.367 . S
C423 C431 1.433 . S
C424 H420 0.929 . S
C424 C426 1.378 . S
C424 C428 1.350 . S
C425 C428 1.463 . S
C425 C430 1.350 . S
C425 N433 1.427 . S
C426 H417 0.930 . S
C426 C424 1.378 . S
C426 C427 1.367 . S
C427 C426 1.367 . S
C427 C429 1.433 . S
C428 C424 1.350 . S
C428 C425 1.463 . S
C428 N432 1.427 . S
C429 H419 0.929 . S
C429 C427 1.433 . S
C429 N432 1.384 . S
C430 H421 0.929 . S
C430 C422 1.378 . S
C430 C425 1.350 . S
C431 H418 0.929 . S
C431 C423 1.433 . S
C431 N433 1.384 . S
N432 C428 1.427 . S
N432 C429 1.384 . S
N433 C425 1.427 . S
N433 C431 1.384 . S
H434 C440 0.930 . S
H435 C444 0.930 . S
H436 C449 0.929 . S
H437 C447 0.929 1_455 S
H438 C442 0.929 . S
H439 C448 0.929 . S
C440 H434 0.930 . S
C440 C441 1.367 . S
C440 C448 1.378 . S
C441 C440 1.367 . S
C441 C449 1.433 . S
C442 H438 0.929 . S
C442 C444 1.378 . S
C442 C446 1.350 . S
C443 C446 1.463 . S
C443 C448 1.350 . S
C443 N451 1.427 . S
C444 H435 0.930 . S
C444 C442 1.378 . S
C444 C445 1.367 . S
C445 C444 1.367 . S
C445 C447 1.433 . S
C446 C442 1.350 . S
C446 C443 1.463 . S
C446 N450 1.427 . S
C447 H437 0.929 1_655 S
C447 C445 1.433 . S
C447 N450 1.384 . S
C448 H439 0.929 . S
C448 C440 1.378 . S
C448 C443 1.350 . S
C449 H436 0.929 . S
C449 C441 1.433 . S
C449 N451 1.384 . S
N450 C446 1.427 . S
N450 C447 1.384 . S
N451 C443 1.427 . S
N451 C449 1.384 . S
H452 C458 0.930 . S
H453 C462 0.930 . S
H454 C467 0.929 . S
H455 C465 0.929 . S
H456 C460 0.929 . S
H457 C466 0.929 . S
C458 H452 0.930 . S
C458 C459 1.367 . S
C458 C466 1.378 . S
C459 C458 1.367 . S
C459 C467 1.433 . S
C460 H456 0.929 . S
C460 C462 1.378 . S
C460 C464 1.350 . S
C461 C464 1.463 . S
C461 C466 1.350 . S
C461 N469 1.427 . S
C462 H453 0.930 . S
C462 C460 1.378 . S
C462 C463 1.367 . S
C463 C462 1.367 . S
C463 C465 1.433 . S
C464 C460 1.350 . S
C464 C461 1.463 . S
C464 N468 1.427 . S
C465 H455 0.929 . S
C465 C463 1.433 . S
C465 N468 1.384 . S
C466 H457 0.929 . S
C466 C458 1.378 . S
C466 C461 1.350 . S
C467 H454 0.929 . S
C467 C459 1.433 . S
C467 N469 1.384 . S
N468 C464 1.427 . S
N468 C465 1.384 . S
N469 C461 1.427 . S
N469 C467 1.384 . S
H470 C476 0.930 . S
H471 C480 0.930 . S
H472 C485 0.929 . S
H473 C483 0.929 . S
H474 C478 0.929 . S
H475 C484 0.929 . S
C476 H470 0.930 . S
C476 C477 1.367 . S
C476 C484 1.378 . S
C477 C476 1.367 . S
C477 C485 1.433 . S
C478 H474 0.929 . S
C478 C480 1.378 . S
C478 C482 1.350 . S
C479 C482 1.463 . S
C479 C484 1.350 . S
C479 N487 1.427 . S
C480 H471 0.930 . S
C480 C478 1.378 . S
C480 C481 1.367 . S
C481 C480 1.367 . S
C481 C483 1.433 . S
C482 C478 1.350 . S
C482 C479 1.463 . S
C482 N486 1.427 . S
C483 H473 0.929 . S
C483 C481 1.433 . S
C483 N486 1.384 . S
C484 H475 0.929 . S
C484 C476 1.378 . S
C484 C479 1.350 . S
C485 H472 0.929 . S
C485 C477 1.433 . S
C485 N487 1.384 . S
N486 C482 1.427 . S
N486 C483 1.384 . S
N487 C479 1.427 . S
N487 C485 1.384 . S
H488 C494 0.930 . S
H489 C498 0.930 . S
H490 C503 0.929 . S
H491 C501 0.929 1_554 S
H492 C496 0.929 . S
H493 C502 0.929 . S
C494 H488 0.930 . S
C494 C495 1.367 . S
C494 C502 1.378 . S
C495 C494 1.367 . S
C495 C503 1.433 . S
C496 H492 0.929 . S
C496 C498 1.378 . S
C496 C500 1.350 . S
C497 C500 1.463 . S
C497 C502 1.350 . S
C497 N505 1.427 . S
C498 H489 0.930 . S
C498 C496 1.378 . S
C498 C499 1.367 . S
C499 C498 1.367 . S
C499 C501 1.433 . S
C500 C496 1.350 . S
C500 C497 1.463 . S
C500 N504 1.427 . S
C501 H491 0.929 1_556 S
C501 C499 1.433 . S
C501 N504 1.384 . S
C502 H493 0.929 . S
C502 C494 1.378 . S
C502 C497 1.350 . S
C503 H490 0.929 . S
C503 C495 1.433 . S
C503 N505 1.384 . S
N504 C500 1.427 . S
N504 C501 1.384 . S
N505 C497 1.427 . S
N505 C503 1.384 . S
H506 C512 0.930 . S
H507 C516 0.930 . S
H508 C521 0.929 . S
H509 C519 0.929 . S
H510 C514 0.929 . S
H511 C520 0.929 . S
C512 H506 0.930 . S
C512 C513 1.367 . S
C512 C520 1.378 . S
C513 C512 1.367 . S
C513 C521 1.433 . S
C514 H510 0.929 . S
C514 C516 1.378 . S
C514 C518 1.350 . S
C515 C518 1.463 . S
C515 C520 1.350 . S
C515 N523 1.427 . S
C516 H507 0.930 . S
C516 C514 1.378 . S
C516 C517 1.367 . S
C517 C516 1.367 . S
C517 C519 1.433 . S
C518 C514 1.350 . S
C518 C515 1.463 . S
C518 N522 1.427 . S
C519 H509 0.929 . S
C519 C517 1.433 . S
C519 N522 1.384 . S
C520 H511 0.929 . S
C520 C512 1.378 . S
C520 C515 1.350 . S
C521 H508 0.929 . S
C521 C513 1.433 . S
C521 N523 1.384 . S
N522 C518 1.427 . S
N522 C519 1.384 . S
N523 C515 1.427 . S
N523 C521 1.384 . S
H524 C530 0.930 . S
H525 C534 0.930 . S
H526 C539 0.929 . S
H527 C537 0.929 1_655 S
H528 C532 0.929 . S
H529 C538 0.929 . S
C530 H524 0.930 . S
C530 C531 1.367 . S
C530 C538 1.378 . S
C531 C530 1.367 . S
C531 C539 1.433 . S
C532 H528 0.929 . S
C532 C534 1.378 . S
C532 C536 1.350 . S
C533 C536 1.463 . S
C533 C538 1.350 . S
C533 N541 1.427 . S
C534 H525 0.930 . S
C534 C532 1.378 . S
C534 C535 1.367 . S
C535 C534 1.367 . S
C535 C537 1.433 . S
C536 C532 1.350 . S
C536 C533 1.463 . S
C536 N540 1.427 . S
C537 H527 0.929 1_455 S
C537 C535 1.433 . S
C537 N540 1.384 . S
C538 H529 0.929 . S
C538 C530 1.378 . S
C538 C533 1.350 . S
C539 H526 0.929 . S
C539 C531 1.433 . S
C539 N541 1.384 . S
N540 C536 1.427 . S
N540 C537 1.384 . S
N541 C533 1.427 . S
N541 C539 1.384 . S
H542 C548 0.930 . S
H543 C552 0.930 . S
H544 C557 0.929 . S
H545 C555 0.929 . S
H546 C550 0.929 1_554 S
H547 C556 0.929 . S
C548 H542 0.930 . S
C548 C549 1.367 . S
C548 C556 1.378 . S
C549 C548 1.367 . S
C549 C557 1.433 . S
C550 H546 0.929 1_556 S
C550 C552 1.378 1_556 S
C550 C554 1.350 . S
C551 C554 1.463 . S
C551 C556 1.350 . S
C551 N559 1.427 . S
C552 H543 0.930 . S
C552 C550 1.378 1_554 S
C552 C553 1.367 1_554 S
C553 C552 1.367 1_556 S
C553 C555 1.433 . S
C554 C550 1.350 . S
C554 C551 1.463 . S
C554 N558 1.427 . S
C555 H545 0.929 . S
C555 C553 1.433 . S
C555 N558 1.384 . S
C556 H547 0.929 . S
C556 C548 1.378 . S
C556 C551 1.350 . S
C557 H544 0.929 . S
C557 C549 1.433 . S
C557 N559 1.384 . S
N558 C554 1.427 . S
N558 C555 1.384 . S
N559 C551 1.427 . S
N559 C557 1.384 . S
H560 C566 0.930 . S
H561 C570 0.930 . S
H562 C575 0.929 . S
H563 C573 0.929 1_455 S
H564 C568 0.929 . S
H565 C574 0.929 . S
C566 H560 0.930 . S
C566 C567 1.367 . S
C566 C574 1.378 . S
C567 C566 1.367 . S
C567 C575 1.433 . S
C568 H564 0.929 . S
C568 C570 1.378 . S
C568 C572 1.350 . S
C569 C572 1.463 . S
C569 C574 1.350 . S
C569 N577 1.427 . S
C570 H561 0.930 . S
C570 C568 1.378 . S
C570 C571 1.367 . S
C571 C570 1.367 . S
C571 C573 1.433 . S
C572 C568 1.350 . S
C572 C569 1.463 . S
C572 N576 1.427 . S
C573 H563 0.929 1_655 S
C573 C571 1.433 . S
C573 N576 1.384 . S
C574 H565 0.929 . S
C574 C566 1.378 . S
C574 C569 1.350 . S
C575 H562 0.929 . S
C575 C567 1.433 . S
C575 N577 1.384 . S
N576 C572 1.427 . S
N576 C573 1.384 . S
N577 C569 1.427 . S
N577 C575 1.384 . S
H578 C584 0.930 . S
H579 C588 0.930 . S
H580 C593 0.929 . S
H581 C591 0.929 . S
H582 C586 0.929 . S
H583 C592 0.929 . S
C584 H578 0.930 . S
C584 C585 1.367 . S
C584 C592 1.378 . S
C585 C584 1.367 . S
C585 C593 1.433 . S
C586 H582 0.929 . S
C586 C588 1.378 . S
C586 C590 1.350 . S
C587 C590 1.463 . S
C587 C592 1.350 . S
C587 N595 1.427 . S
C588 H579 0.930 . S
C588 C586 1.378 . S
C588 C589 1.367 . S
C589 C588 1.367 . S
C589 C591 1.433 . S
C590 C586 1.350 . S
C590 C587 1.463 . S
C590 N594 1.427 . S
C591 H581 0.929 . S
C591 C589 1.433 . S
C591 N594 1.384 . S
C592 H583 0.929 . S
C592 C584 1.378 . S
C592 C587 1.350 . S
C593 H580 0.929 . S
C593 C585 1.433 . S
C593 N595 1.384 . S
N594 C590 1.427 . S
N594 C591 1.384 . S
N595 C587 1.427 . S
N595 C593 1.384 . S
H596 C602 0.930 . S
H597 C606 0.930 . S
H598 C611 0.929 . S
H599 C609 0.929 . S
H600 C604 0.929 . S
H601 C610 0.929 . S
C602 H596 0.930 . S
C602 C603 1.367 . S
C602 C610 1.378 . S
C603 C602 1.367 . S
C603 C611 1.433 1_565 S
C604 H600 0.929 . S
C604 C606 1.378 . S
C604 C608 1.350 1_545 S
C605 C608 1.463 . S
C605 C610 1.350 . S
C605 N613 1.427 1_565 S
C606 H597 0.930 . S
C606 C604 1.378 . S
C606 C607 1.351 1_545 S
C607 C606 1.351 1_565 S
C607 C609 1.451 . S
C608 C604 1.350 1_565 S
C608 C605 1.463 . S
C608 N612 1.427 . S
C609 H599 0.929 . S
C609 C607 1.451 . S
C609 N612 1.384 . S
C610 H601 0.929 . S
C610 C602 1.378 . S
C610 C605 1.350 . S
C611 H598 0.929 . S
C611 C603 1.433 1_545 S
C611 N613 1.384 . S
N612 C608 1.427 . S
N612 C609 1.384 . S
N613 C605 1.427 1_545 S
N613 C611 1.384 . S
H614 C620 0.930 1_565 S
H615 C624 0.930 . S
H616 C629 0.929 . S
H617 C627 0.929 . S
H618 C622 0.929 . S
H619 C628 0.929 1_565 S
C620 H614 0.930 1_545 S
C620 C621 1.367 . S
C620 C628 1.378 . S
C621 C620 1.367 . S
C621 C629 1.433 . S
C622 H618 0.929 . S
C622 C624 1.378 . S
C622 C626 1.350 . S
C623 C626 1.463 . S
C623 C628 1.350 . S
C623 N631 1.427 . S
C624 H615 0.930 . S
C624 C622 1.378 . S
C624 C625 1.367 . S
C625 C624 1.367 . S
C625 C627 1.433 1_545 S
C626 C622 1.350 . S
C626 C623 1.463 . S
C626 N630 1.427 1_545 S
C627 H617 0.929 . S
C627 C625 1.433 1_565 S
C627 N630 1.384 . S
C628 H619 0.929 1_545 S
C628 C620 1.378 . S
C628 C623 1.350 . S
C629 H616 0.929 . S
C629 C621 1.433 . S
C629 N631 1.384 . S
N630 C626 1.427 1_565 S
N630 C627 1.384 . S
N631 C623 1.427 . S
N631 C629 1.384 . S
H632 C638 0.930 . S
H633 C642 0.930 . S
H634 C647 0.929 . S
H635 C645 0.929 . S
H636 C640 0.929 . S
H637 C646 0.929 . S
C638 H632 0.930 . S
C638 C639 1.367 . S
C638 C646 1.378 . S
C639 C638 1.367 . S
C639 C647 1.433 . S
C640 H636 0.929 . S
C640 C642 1.378 . S
C640 C644 1.350 . S
C641 C644 1.463 . S
C641 C646 1.350 . S
C641 N649 1.427 . S
C642 H633 0.930 . S
C642 C640 1.378 . S
C642 C643 1.367 . S
C643 C642 1.367 . S
C643 C645 1.433 . S
C644 C640 1.350 . S
C644 C641 1.463 . S
C644 N648 1.427 . S
C645 H635 0.929 . S
C645 C643 1.433 . S
C645 N648 1.384 . S
C646 H637 0.929 . S
C646 C638 1.378 . S
C646 C641 1.350 . S
C647 H634 0.929 . S
C647 C639 1.433 . S
C647 N649 1.384 . S
N648 C644 1.427 . S
N648 C645 1.384 . S
N649 C641 1.427 . S
N649 C647 1.384 . S
H650 C656 0.930 . S
H651 C660 0.930 . S
H652 C665 0.929 . S
H653 C663 0.929 . S
H654 C658 0.929 . S
H655 C664 0.929 . S
C656 H650 0.930 . S
C656 C657 1.367 . S
C656 C664 1.378 . S
C657 C656 1.367 . S
C657 C665 1.433 . S
C658 H654 0.929 . S
C658 C660 1.378 . S
C658 C662 1.350 . S
C659 C662 1.463 . S
C659 C664 1.350 . S
C659 N667 1.427 . S
C660 H651 0.930 . S
C660 C658 1.378 . S
C660 C661 1.367 . S
C661 C660 1.367 . S
C661 C663 1.433 . S
C662 C658 1.350 . S
C662 C659 1.463 . S
C662 N666 1.427 . S
C663 H653 0.929 . S
C663 C661 1.433 . S
C663 N666 1.384 . S
C664 H655 0.929 . S
C664 C656 1.378 . S
C664 C659 1.350 . S
C665 H652 0.929 . S
C665 C657 1.433 . S
C665 N667 1.384 . S
N666 C662 1.427 . S
N666 C663 1.384 . S
N667 C659 1.427 . S
N667 C665 1.384 . S
H668 C674 0.930 . S
H669 C678 0.930 . S
H670 C683 0.929 . S
H671 C681 0.929 . S
H672 C676 0.929 . S
H673 C682 0.929 1_554 S
C674 H668 0.930 . S
C674 C675 1.367 . S
C674 C682 1.378 . S
C675 C674 1.367 . S
C675 C683 1.433 1_565 S
C676 H672 0.929 . S
C676 C678 1.378 . S
C676 C680 1.350 1_545 S
C677 C680 1.463 . S
C677 C682 1.350 . S
C677 N685 1.427 1_565 S
C678 H669 0.930 . S
C678 C676 1.378 . S
C678 C679 1.367 1_545 S
C679 C678 1.367 1_565 S
C679 C681 1.433 1_556 S
C680 C676 1.350 1_565 S
C680 C677 1.463 . S
C680 N684 1.427 . S
C681 H671 0.929 . S
C681 C679 1.433 1_554 S
C681 N684 1.384 1_554 S
C682 H673 0.929 1_556 S
C682 C674 1.378 . S
C682 C677 1.350 . S
C683 H670 0.929 . S
C683 C675 1.433 1_545 S
C683 N685 1.384 . S
N684 C680 1.427 . S
N684 C681 1.384 1_556 S
N685 C677 1.427 1_545 S
N685 C683 1.384 . S
H686 C692 0.930 1_565 S
H687 C696 0.930 . S
H688 C701 0.929 . S
H689 C699 0.929 1_565 S
H690 C694 0.929 . S
H691 C700 0.929 1_565 S
C692 H686 0.930 1_545 S
C692 C693 1.367 . S
C692 C700 1.378 . S
C693 C692 1.367 . S
C693 C701 1.433 . S
C694 H690 0.929 . S
C694 C696 1.378 . S
C694 C698 1.350 . S
C695 C698 1.463 . S
C695 C700 1.350 . S
C695 N703 1.427 . S
C696 H687 0.930 . S
C696 C694 1.378 . S
C696 C697 1.367 . S
C697 C696 1.367 . S
C697 C699 1.433 . S
C698 C694 1.350 . S
C698 C695 1.463 . S
C698 N702 1.427 . S
C699 H689 0.929 1_545 S
C699 C697 1.433 . S
C699 N702 1.384 . S
C700 H691 0.929 1_545 S
C700 C692 1.378 . S
C700 C695 1.350 . S
C701 H688 0.929 . S
C701 C693 1.433 . S
C701 N703 1.384 . S
N702 C698 1.427 . S
N702 C699 1.384 . S
N703 C695 1.427 . S
N703 C701 1.384 . S
H704 C710 0.930 . S
H705 C714 0.930 1_556 S
H706 C719 0.929 . S
H707 C717 0.929 . S
H708 C712 0.929 . S
H709 C718 0.929 . S
C710 H704 0.930 . S
C710 C711 1.367 . S
C710 C718 1.378 . S
C711 C710 1.367 . S
C711 C719 1.433 . S
C712 H708 0.929 . S
C712 C714 1.378 . S
C712 C716 1.350 . S
C713 C716 1.463 . S
C713 C718 1.350 . S
C713 N721 1.427 . S
C714 H705 0.930 1_554 S
C714 C712 1.378 . S
C714 C715 1.367 . S
C715 C714 1.367 . S
C715 C717 1.433 . S
C716 C712 1.350 . S
C716 C713 1.463 . S
C716 N720 1.427 . S
C717 H707 0.929 . S
C717 C715 1.433 . S
C717 N720 1.384 . S
C718 H709 0.929 . S
C718 C710 1.378 . S
C718 C713 1.350 . S
C719 H706 0.929 . S
C719 C711 1.433 . S
C719 N721 1.384 . S
N720 C716 1.427 . S
N720 C717 1.384 . S
N721 C713 1.427 . S
N721 C719 1.384 . S
H722 C728 0.930 . S
H723 C732 0.930 . S
H724 C737 0.929 . S
H725 C735 0.929 . S
H726 C730 0.929 . S
H727 C736 0.929 . S
C728 H722 0.930 . S
C728 C729 1.367 . S
C728 C736 1.378 . S
C729 C728 1.367 . S
C729 C737 1.433 . S
C730 H726 0.929 . S
C730 C732 1.378 . S
C730 C734 1.350 . S
C731 C734 1.463 . S
C731 C736 1.350 . S
C731 N739 1.427 . S
C732 H723 0.930 . S
C732 C730 1.378 . S
C732 C733 1.367 . S
C733 C732 1.367 . S
C733 C735 1.433 . S
C734 C730 1.350 . S
C734 C731 1.463 . S
C734 N738 1.427 . S
C735 H725 0.929 . S
C735 C733 1.433 . S
C735 N738 1.384 . S
C736 H727 0.929 . S
C736 C728 1.378 . S
C736 C731 1.350 . S
C737 H724 0.929 . S
C737 C729 1.433 . S
C737 N739 1.384 . S
N738 C734 1.427 . S
N738 C735 1.384 . S
N739 C731 1.427 . S
N739 C737 1.384 . S
H740 C746 0.930 . S
H741 C750 0.930 . S
H742 C755 0.929 1_455 S
H743 C753 0.929 . S
H744 C748 0.958 . S
H745 C754 0.929 . S
C746 H740 0.930 . S
C746 C747 1.367 . S
C746 C754 1.378 . S
C747 C746 1.367 . S
C747 C755 1.433 . S
C748 H744 0.958 . S
C748 C750 1.382 . S
C748 C752 1.317 1_455 S
C749 C752 1.463 . S
C749 C754 1.350 . S
C749 N757 1.427 . S
C750 H741 0.930 . S
C750 C748 1.382 . S
C750 C751 1.367 1_455 S
C751 C750 1.367 1_655 S
C751 C753 1.433 . S
C752 C748 1.317 1_655 S
C752 C749 1.463 . S
C752 N756 1.427 . S
C753 H743 0.929 . S
C753 C751 1.433 . S
C753 N756 1.384 . S
C754 H745 0.929 . S
C754 C746 1.378 . S
C754 C749 1.350 . S
C755 H742 0.929 1_655 S
C755 C747 1.433 . S
C755 N757 1.384 . S
N756 C752 1.427 . S
N756 C753 1.384 . S
N757 C749 1.427 . S
N757 C755 1.384 . S
H758 C764 0.930 . S
H759 C768 0.930 . S
H760 C773 0.929 . S
H761 C771 0.929 . S
H762 C766 0.929 . S
H763 C772 0.929 . S
C764 H758 0.930 . S
C764 C765 1.367 . S
C764 C772 1.378 . S
C765 C764 1.367 . S
C765 C773 1.433 . S
C766 H762 0.929 . S
C766 C768 1.378 . S
C766 C770 1.350 . S
C767 C770 1.463 . S
C767 C772 1.350 . S
C767 N775 1.427 . S
C768 H759 0.930 . S
C768 C766 1.378 . S
C768 C769 1.367 . S
C769 C768 1.367 . S
C769 C771 1.433 . S
C770 C766 1.350 . S
C770 C767 1.463 . S
C770 N774 1.427 . S
C771 H761 0.929 . S
C771 C769 1.433 . S
C771 N774 1.384 . S
C772 H763 0.929 . S
C772 C764 1.378 . S
C772 C767 1.350 . S
C773 H760 0.929 . S
C773 C765 1.433 . S
C773 N775 1.384 . S
N774 C770 1.427 . S
N774 C771 1.384 . S
N775 C767 1.427 . S
N775 C773 1.384 . S
H776 C782 0.930 . S
H777 C786 0.930 . S
H778 C791 0.929 . S
H779 C789 0.929 . S
H780 C784 0.929 . S
H781 C790 0.929 . S
C782 H776 0.930 . S
C782 C783 1.367 . S
C782 C790 1.378 . S
C783 C782 1.367 . S
C783 C791 1.433 . S
C784 H780 0.929 . S
C784 C786 1.378 . S
C784 C788 1.350 . S
C785 C788 1.463 . S
C785 C790 1.350 . S
C785 N793 1.427 . S
C786 H777 0.930 . S
C786 C784 1.378 . S
C786 C787 1.367 . S
C787 C786 1.367 . S
C787 C789 1.433 . S
C788 C784 1.350 . S
C788 C785 1.463 . S
C788 N792 1.427 . S
C789 H779 0.929 . S
C789 C787 1.433 . S
C789 N792 1.384 . S
C790 H781 0.929 . S
C790 C782 1.378 . S
C790 C785 1.350 . S
C791 H778 0.929 . S
C791 C783 1.433 . S
C791 N793 1.384 . S
N792 C788 1.427 . S
N792 C789 1.384 . S
N793 C785 1.427 . S
N793 C791 1.384 . S
H794 C800 0.930 . S
H795 C804 0.930 . S
H796 C809 0.929 . S
H797 C807 0.929 . S
H798 C802 0.929 . S
H799 C808 0.929 . S
C800 H794 0.930 . S
C800 C801 1.367 . S
C800 C808 1.378 . S
C801 C800 1.367 . S
C801 C809 1.433 . S
C802 H798 0.929 . S
C802 C804 1.378 . S
C802 C806 1.350 . S
C803 C806 1.463 . S
C803 C808 1.350 . S
C803 N811 1.427 . S
C804 H795 0.930 . S
C804 C802 1.378 . S
C804 C805 1.367 . S
C805 C804 1.367 . S
C805 C807 1.433 . S
C806 C802 1.350 . S
C806 C803 1.463 . S
C806 N810 1.427 . S
C807 H797 0.929 . S
C807 C805 1.433 . S
C807 N810 1.384 . S
C808 H799 0.929 . S
C808 C800 1.378 . S
C808 C803 1.350 . S
C809 H796 0.929 . S
C809 C801 1.433 . S
C809 N811 1.384 . S
N810 C806 1.427 . S
N810 C807 1.384 . S
N811 C803 1.427 . S
N811 C809 1.384 . S
C387 C1 1.586 . S
C391 C306 1.589 . S
C405 C67 1.589 . S
C409 C330 1.577 . S
C427 C350 1.433 . S
C423 C97 1.403 . S
C441 C133 1.459 . S
C445 C373 1.463 . S
C463 C332 1.661 . S
C459 C25 1.688 . S
C481 C308 1.649 . S
C477 C37 1.680 . S
C499 C376 1.595 . S
C495 C103 1.613 . S
C517 C353 1.566 . S
C513 C109 1.622 . S
C531 C31 1.392 . S
C535 C378 1.368 . S
C553 C327 1.648 . S
C549 C73 1.612 . S
C567 C139 1.658 . S
C571 C305 1.661 . S
C585 C61 1.367 . S
C589 C355 1.344 . S
C607 C309 1.724 . S
C603 C175 1.708 . S
C621 C181 1.628 . S
C625 C331 1.658 . S
C639 C247 1.822 . S
C643 C351 1.831 . S
C657 C277 1.813 . S
C661 C374 1.824 . S
C675 C145 1.624 . S
C679 C329 1.617 . S
C697 C307 1.639 . S
C693 C211 1.574 . S
C715 C377 1.507 . S
C711 C217 1.533 . S
C733 C354 1.560 . S
C729 C283 1.600 . S
C747 C169 1.947 . S
C751 C375 1.898 . S
C769 C328 1.611 . S
C765 C241 1.605 . S
C787 C304 1.622 . S
C783 C253 1.609 . S
C801 C205 1.866 . S
C805 C352 1.881 . S
