# Generated by pormake.
# Topology llk, (3,12)-cn, num edge types: 1
# Building blocks:
#     Node 0, Type 0, BuildingBlock: MIDCAF_clean_linker_0, # of connection points: 3
#     Node 1, Type 0, BuildingBlock: MIDCAF_clean_linker_0, # of connection points: 3
#     Node 2, Type 0, BuildingBlock: MIDCAF_clean_linker_0, # of connection points: 3
#     Node 3, Type 0, BuildingBlock: MIDCAF_clean_linker_0, # of connection points: 3
#     Node 4, Type 0, BuildingBlock: MIDCAF_clean_linker_0, # of connection points: 3
#     Node 5, Type 0, BuildingBlock: MIDCAF_clean_linker_0, # of connection points: 3
#     Node 6, Type 0, BuildingBlock: MIDCAF_clean_linker_0, # of connection points: 3
#     Node 7, Type 0, BuildingBlock: MIDCAF_clean_linker_0, # of connection points: 3
#     Node 8, Type 0, BuildingBlock: MIDCAF_clean_linker_0, # of connection points: 3
#     Node 9, Type 0, BuildingBlock: MIDCAF_clean_linker_0, # of connection points: 3
#     Node 10, Type 0, BuildingBlock: MIDCAF_clean_linker_0, # of connection points: 3
#     Node 11, Type 0, BuildingBlock: MIDCAF_clean_linker_0, # of connection points: 3
#     Node 12, Type 0, BuildingBlock: MIDCAF_clean_linker_0, # of connection points: 3
#     Node 13, Type 0, BuildingBlock: MIDCAF_clean_linker_0, # of connection points: 3
#     Node 14, Type 0, BuildingBlock: MIDCAF_clean_linker_0, # of connection points: 3
#     Node 15, Type 0, BuildingBlock: MIDCAF_clean_linker_0, # of connection points: 3
#     Node 16, Type 0, BuildingBlock: MIDCAF_clean_linker_0, # of connection points: 3
#     Node 17, Type 0, BuildingBlock: MIDCAF_clean_linker_0, # of connection points: 3
#     Node 18, Type 0, BuildingBlock: MIDCAF_clean_linker_0, # of connection points: 3
#     Node 19, Type 0, BuildingBlock: MIDCAF_clean_linker_0, # of connection points: 3
#     Node 20, Type 0, BuildingBlock: MIDCAF_clean_linker_0, # of connection points: 3
#     Node 21, Type 0, BuildingBlock: MIDCAF_clean_linker_0, # of connection points: 3
#     Node 22, Type 0, BuildingBlock: MIDCAF_clean_linker_0, # of connection points: 3
#     Node 23, Type 0, BuildingBlock: MIDCAF_clean_linker_0, # of connection points: 3
#     Node 24, Type 1, BuildingBlock: EZIPEK_clean_sbu_0, # of connection points: 12
#     Node 25, Type 1, BuildingBlock: EZIPEK_clean_sbu_0, # of connection points: 12
#     Node 26, Type 1, BuildingBlock: EZIPEK_clean_sbu_0, # of connection points: 12
#     Node 27, Type 1, BuildingBlock: EZIPEK_clean_sbu_0, # of connection points: 12
#     Node 28, Type 1, BuildingBlock: EZIPEK_clean_sbu_0, # of connection points: 12
#     Node 29, Type 1, BuildingBlock: EZIPEK_clean_sbu_0, # of connection points: 12
#     Edge 30, Type (0, 1), BuildingBlock: OJICUG_clean_linker_0, # of connection points: 2
#     Edge 31, Type (0, 1), BuildingBlock: OJICUG_clean_linker_0, # of connection points: 2
#     Edge 32, Type (0, 1), BuildingBlock: OJICUG_clean_linker_0, # of connection points: 2
#     Edge 33, Type (0, 1), BuildingBlock: OJICUG_clean_linker_0, # of connection points: 2
#     Edge 34, Type (0, 1), BuildingBlock: OJICUG_clean_linker_0, # of connection points: 2
#     Edge 35, Type (0, 1), BuildingBlock: OJICUG_clean_linker_0, # of connection points: 2
#     Edge 36, Type (0, 1), BuildingBlock: OJICUG_clean_linker_0, # of connection points: 2
#     Edge 37, Type (0, 1), BuildingBlock: OJICUG_clean_linker_0, # of connection points: 2
#     Edge 38, Type (0, 1), BuildingBlock: OJICUG_clean_linker_0, # of connection points: 2
#     Edge 39, Type (0, 1), BuildingBlock: OJICUG_clean_linker_0, # of connection points: 2
#     Edge 40, Type (0, 1), BuildingBlock: OJICUG_clean_linker_0, # of connection points: 2
#     Edge 41, Type (0, 1), BuildingBlock: OJICUG_clean_linker_0, # of connection points: 2
#     Edge 42, Type (0, 1), BuildingBlock: OJICUG_clean_linker_0, # of connection points: 2
#     Edge 43, Type (0, 1), BuildingBlock: OJICUG_clean_linker_0, # of connection points: 2
#     Edge 44, Type (0, 1), BuildingBlock: OJICUG_clean_linker_0, # of connection points: 2
#     Edge 45, Type (0, 1), BuildingBlock: OJICUG_clean_linker_0, # of connection points: 2
#     Edge 46, Type (0, 1), BuildingBlock: OJICUG_clean_linker_0, # of connection points: 2
#     Edge 47, Type (0, 1), BuildingBlock: OJICUG_clean_linker_0, # of connection points: 2
#     Edge 48, Type (0, 1), BuildingBlock: OJICUG_clean_linker_0, # of connection points: 2
#     Edge 49, Type (0, 1), BuildingBlock: OJICUG_clean_linker_0, # of connection points: 2
#     Edge 50, Type (0, 1), BuildingBlock: OJICUG_clean_linker_0, # of connection points: 2
#     Edge 51, Type (0, 1), BuildingBlock: OJICUG_clean_linker_0, # of connection points: 2
#     Edge 52, Type (0, 1), BuildingBlock: OJICUG_clean_linker_0, # of connection points: 2
#     Edge 53, Type (0, 1), BuildingBlock: OJICUG_clean_linker_0, # of connection points: 2
#     Edge 54, Type (0, 1), BuildingBlock: OJICUG_clean_linker_0, # of connection points: 2
#     Edge 55, Type (0, 1), BuildingBlock: OJICUG_clean_linker_0, # of connection points: 2
#     Edge 56, Type (0, 1), BuildingBlock: OJICUG_clean_linker_0, # of connection points: 2
#     Edge 57, Type (0, 1), BuildingBlock: OJICUG_clean_linker_0, # of connection points: 2
#     Edge 58, Type (0, 1), BuildingBlock: OJICUG_clean_linker_0, # of connection points: 2
#     Edge 59, Type (0, 1), BuildingBlock: OJICUG_clean_linker_0, # of connection points: 2
#     Edge 60, Type (0, 1), BuildingBlock: OJICUG_clean_linker_0, # of connection points: 2
#     Edge 61, Type (0, 1), BuildingBlock: OJICUG_clean_linker_0, # of connection points: 2
#     Edge 62, Type (0, 1), BuildingBlock: OJICUG_clean_linker_0, # of connection points: 2
#     Edge 63, Type (0, 1), BuildingBlock: OJICUG_clean_linker_0, # of connection points: 2
#     Edge 64, Type (0, 1), BuildingBlock: OJICUG_clean_linker_0, # of connection points: 2
#     Edge 65, Type (0, 1), BuildingBlock: OJICUG_clean_linker_0, # of connection points: 2
#     Edge 66, Type (0, 1), BuildingBlock: OJICUG_clean_linker_0, # of connection points: 2
#     Edge 67, Type (0, 1), BuildingBlock: OJICUG_clean_linker_0, # of connection points: 2
#     Edge 68, Type (0, 1), BuildingBlock: OJICUG_clean_linker_0, # of connection points: 2
#     Edge 69, Type (0, 1), BuildingBlock: OJICUG_clean_linker_0, # of connection points: 2
#     Edge 70, Type (0, 1), BuildingBlock: OJICUG_clean_linker_0, # of connection points: 2
#     Edge 71, Type (0, 1), BuildingBlock: OJICUG_clean_linker_0, # of connection points: 2
#     Edge 72, Type (0, 1), BuildingBlock: OJICUG_clean_linker_0, # of connection points: 2
#     Edge 73, Type (0, 1), BuildingBlock: OJICUG_clean_linker_0, # of connection points: 2
#     Edge 74, Type (0, 1), BuildingBlock: OJICUG_clean_linker_0, # of connection points: 2
#     Edge 75, Type (0, 1), BuildingBlock: OJICUG_clean_linker_0, # of connection points: 2
#     Edge 76, Type (0, 1), BuildingBlock: OJICUG_clean_linker_0, # of connection points: 2
#     Edge 77, Type (0, 1), BuildingBlock: OJICUG_clean_linker_0, # of connection points: 2
#     Edge 78, Type (0, 1), BuildingBlock: OJICUG_clean_linker_0, # of connection points: 2
#     Edge 79, Type (0, 1), BuildingBlock: OJICUG_clean_linker_0, # of connection points: 2
#     Edge 80, Type (0, 1), BuildingBlock: OJICUG_clean_linker_0, # of connection points: 2
#     Edge 81, Type (0, 1), BuildingBlock: OJICUG_clean_linker_0, # of connection points: 2
#     Edge 82, Type (0, 1), BuildingBlock: OJICUG_clean_linker_0, # of connection points: 2
#     Edge 83, Type (0, 1), BuildingBlock: OJICUG_clean_linker_0, # of connection points: 2
#     Edge 84, Type (0, 1), BuildingBlock: OJICUG_clean_linker_0, # of connection points: 2
#     Edge 85, Type (0, 1), BuildingBlock: OJICUG_clean_linker_0, # of connection points: 2
#     Edge 86, Type (0, 1), BuildingBlock: OJICUG_clean_linker_0, # of connection points: 2
#     Edge 87, Type (0, 1), BuildingBlock: OJICUG_clean_linker_0, # of connection points: 2
#     Edge 88, Type (0, 1), BuildingBlock: OJICUG_clean_linker_0, # of connection points: 2
#     Edge 89, Type (0, 1), BuildingBlock: OJICUG_clean_linker_0, # of connection points: 2
#     Edge 90, Type (0, 1), BuildingBlock: OJICUG_clean_linker_0, # of connection points: 2
#     Edge 91, Type (0, 1), BuildingBlock: OJICUG_clean_linker_0, # of connection points: 2
#     Edge 92, Type (0, 1), BuildingBlock: OJICUG_clean_linker_0, # of connection points: 2
#     Edge 93, Type (0, 1), BuildingBlock: OJICUG_clean_linker_0, # of connection points: 2
#     Edge 94, Type (0, 1), BuildingBlock: OJICUG_clean_linker_0, # of connection points: 2
#     Edge 95, Type (0, 1), BuildingBlock: OJICUG_clean_linker_0, # of connection points: 2
#     Edge 96, Type (0, 1), BuildingBlock: OJICUG_clean_linker_0, # of connection points: 2
#     Edge 97, Type (0, 1), BuildingBlock: OJICUG_clean_linker_0, # of connection points: 2
#     Edge 98, Type (0, 1), BuildingBlock: OJICUG_clean_linker_0, # of connection points: 2
#     Edge 99, Type (0, 1), BuildingBlock: OJICUG_clean_linker_0, # of connection points: 2
#     Edge 100, Type (0, 1), BuildingBlock: OJICUG_clean_linker_0, # of connection points: 2
#     Edge 101, Type (0, 1), BuildingBlock: OJICUG_clean_linker_0, # of connection points: 2
# Relax obj value: 0.107
# Max RMSD: 0.161
# Mean RMSD: 0.135
data_MOF--net-llk--node1-EZIPEK_clean_sbu_0--node2-MIDCAF_clean_linker_0--edge1-OJICUG_clean_linker_0
_symmetry_space_group_name_H-M    P1
_symmetry_Int_Tables_number       1
_symmetry_cell_setting            triclinic
loop_
_symmetry_equiv_pos_as_xyz
'x, y, z'
_cell_length_a     44.391603
_cell_length_b     44.405235
_cell_length_c     44.406198
_cell_angle_alpha  89.974131
_cell_angle_beta   89.957895
_cell_angle_gamma 89.913513
loop_
_atom_site_label
_atom_site_type_symbol
_atom_site_fract_x
_atom_site_fract_y
_atom_site_fract_z
_atom_type_partial_charge
C0 C 0.01819 0.31288 0.17405 0.0
C1 C 0.99385 0.33015 0.16313 0.0
C2 C 0.96462 0.32268 0.17249 0.0
C3 C 0.95995 0.30028 0.19407 0.0
H4 H 0.03595 0.23062 0.31226 0.0
H5 H 0.04402 0.19096 0.34956 0.0
H6 H 0.97172 0.13954 0.30987 0.0
H7 H 0.96412 0.17925 0.27243 0.0
H8 H 0.94897 0.27137 0.3462 0.0
H9 H 0.94973 0.30969 0.38536 0.0
H10 H 0.95566 0.37895 0.31708 0.0
H11 H 0.95332 0.34111 0.27827 0.0
H12 H 0.03283 0.27962 0.20628 0.0
H13 H 0.04099 0.31808 0.1671 0.0
H14 H 0.94537 0.33512 0.16407 0.0
H15 H 0.93727 0.29667 0.20235 0.0
N16 N 0.99166 0.24462 0.24672 0.0
N17 N 0.97299 0.25406 0.29557 0.0
N18 N 0.96509 0.28925 0.2576 0.0
C19 C 0.98754 0.23569 0.27603 0.0
C20 C 0.96171 0.28084 0.28659 0.0
C21 C 0.97971 0.2716 0.23747 0.0
C22 C 0.99999 0.20763 0.28888 0.0
C23 C 0.02285 0.21011 0.31062 0.0
C24 C 0.02698 0.18767 0.33244 0.0
C25 C 0.00818 0.1622 0.3332 0.0
C26 C 0.98679 0.15869 0.30998 0.0
C27 C 0.98265 0.18125 0.28817 0.0
C28 C 0.95217 0.30317 0.3092 0.0
C29 C 0.94939 0.29485 0.33959 0.0
C30 C 0.95011 0.31679 0.36202 0.0
C31 C 0.95397 0.34725 0.35436 0.0
C32 C 0.95286 0.3557 0.32389 0.0
C33 C 0.95166 0.33386 0.3015 0.0
C34 C 0.98438 0.2849 0.20719 0.0
C35 C 0.01351 0.29053 0.19611 0.0
C36 C 0.69835 0.02624 0.17835 0.0
C37 C 0.68059 1.00306 0.166 0.0
C38 C 0.68696 0.97319 0.17395 0.0
C39 C 0.70897 0.96666 0.19541 0.0
H40 H 0.77657 0.03391 0.31932 0.0
H41 H 0.8159 0.04096 0.35716 0.0
H42 H 0.87106 0.97497 0.31154 0.0
H43 H 0.83173 0.9685 0.27359 0.0
H44 H 0.74033 0.94258 0.34526 0.0
H45 H 0.70203 0.94138 0.38445 0.0
H46 H 0.63268 0.9501 0.31663 0.0
H47 H 0.67052 0.94969 0.2777 0.0
H48 H 0.73174 0.03807 0.21157 0.0
H49 H 0.69393 0.04949 0.17241 0.0
H50 H 0.67396 0.95488 0.16444 0.0
H51 H 0.7119 0.94344 0.20236 0.0
N52 N 0.76493 0.9952 0.25009 0.0
N53 N 0.75663 0.97143 0.29688 0.0
N54 N 0.72181 0.96548 0.25828 0.0
C55 C 0.77415 0.98871 0.27888 0.0
C56 C 0.73045 0.95973 0.28682 0.0
C57 C 0.7386 0.98285 0.23966 0.0
C58 C 0.80148 1.00135 0.29296 0.0
C59 C 0.79778 0.02208 0.31661 0.0
C60 C 0.82004 0.02555 0.33871 0.0
C61 C 0.84656 0.00817 0.33786 0.0
C62 C 0.85111 0.98896 0.31294 0.0
C63 C 0.82875 0.9855 0.29085 0.0
C64 C 0.70849 0.94756 0.30852 0.0
C65 C 0.71684 0.94307 0.33869 0.0
C66 C 0.69491 0.94265 0.36116 0.0
C67 C 0.66444 0.94708 0.35374 0.0
C68 C 0.65594 0.94699 0.32327 0.0
C69 C 0.6778 0.9469 0.30081 0.0
C70 C 0.72495 0.98984 0.20994 0.0
C71 C 0.72029 0.0197 0.20038 0.0
C72 C 0.99601 0.69816 0.17805 0.0
C73 C 0.02021 0.68136 0.16611 0.0
C74 C 0.04962 0.68905 0.17461 0.0
C75 C 0.05469 0.71123 0.19628 0.0
H76 H 0.98241 0.77441 0.32029 0.0
H77 H 0.97253 0.8135 0.35773 0.0
H78 H 0.03388 0.87288 0.31116 0.0
H79 H 0.04334 0.83364 0.27361 0.0
H80 H 0.07261 0.74176 0.34729 0.0
H81 H 0.07247 0.70338 0.38641 0.0
H82 H 0.06698 0.63419 0.31813 0.0
H83 H 0.06875 0.6721 0.27934 0.0
H84 H 0.98199 0.73091 0.21107 0.0
H85 H 0.97307 0.6928 0.17173 0.0
H86 H 0.06874 0.67698 0.16537 0.0
H87 H 0.07761 0.71512 0.20372 0.0
N88 N 0.02243 0.7656 0.25055 0.0
N89 N 0.04458 0.75755 0.29813 0.0
N90 N 0.05333 0.72338 0.25945 0.0
C91 C 0.02743 0.77471 0.27964 0.0
C92 C 0.05761 0.73188 0.28829 0.0
C93 C 0.03613 0.73982 0.24034 0.0
C94 C 0.013 0.80128 0.29355 0.0
C95 C 0.99261 0.79637 0.31729 0.0
C96 C 0.98749 0.81855 0.33913 0.0
C97 C 1.00278 0.84624 0.33789 0.0
C98 C 0.02151 0.85194 0.31283 0.0
C99 C 0.02668 0.82962 0.29099 0.0
C100 C 0.06935 0.70999 0.31031 0.0
C101 C 0.07258 0.71828 0.34066 0.0
C102 C 0.07221 0.69631 0.36308 0.0
C103 C 0.06824 0.66586 0.35541 0.0
C104 C 0.06968 0.65743 0.32495 0.0
C105 C 0.07057 0.67934 0.30256 0.0
C106 C 0.03051 0.72615 0.21038 0.0
C107 C 1.00111 0.7203 0.20021 0.0
C108 C 0.31254 0.98884 0.17416 0.0
C109 C 0.33061 0.01246 0.16309 0.0
C110 C 0.32434 0.04197 0.17236 0.0
C111 C 0.30219 0.04761 0.19395 0.0
H112 H 0.23208 0.97506 0.31362 0.0
H113 H 0.19229 0.96732 0.35088 0.0
H114 H 0.13946 0.03721 0.30849 0.0
H115 H 0.17932 0.04449 0.27111 0.0
H116 H 0.27045 0.06447 0.34468 0.0
H117 H 0.30847 0.0663 0.38409 0.0
H118 H 0.37844 0.05921 0.31661 0.0
H119 H 0.34086 0.059 0.27747 0.0
H120 H 0.27879 0.97567 0.20654 0.0
H121 H 0.31687 0.96586 0.16721 0.0
H122 H 0.33756 0.06063 0.16385 0.0
H123 H 0.29939 0.07048 0.20202 0.0
N124 N 0.24556 0.01729 0.2468 0.0
N125 N 0.25413 0.03803 0.29494 0.0
N126 N 0.28946 0.04517 0.25694 0.0
C127 C 0.23628 0.02235 0.27585 0.0
C128 C 0.28073 0.04951 0.28571 0.0
C129 C 0.27233 0.02941 0.23727 0.0
C130 C 0.20842 0.00978 0.28894 0.0
C131 C 0.21127 0.98765 0.31141 0.0
C132 C 0.18874 0.98373 0.33318 0.0
C133 C 0.16282 1.00201 0.33314 0.0
C134 C 0.15897 0.02257 0.30921 0.0
C135 C 0.18163 0.02652 0.28746 0.0
C136 C 0.30263 0.06048 0.30806 0.0
C137 C 0.294 0.06434 0.33825 0.0
C138 C 0.31577 0.06513 0.36084 0.0
C139 C 0.34641 0.06167 0.35357 0.0
C140 C 0.35507 0.06174 0.32314 0.0
C141 C 0.33337 0.06145 0.30057 0.0
C142 C 0.28595 0.02387 0.20725 0.0
C143 C 0.29045 0.99448 0.1963 0.0
C144 C 0.02814 0.70066 0.84489 0.0
C145 C 1.00447 0.68305 0.85662 0.0
C146 C 0.97487 0.6898 0.84794 0.0
C147 C 0.96913 0.71195 0.82636 0.0
H148 H 0.03967 0.78131 0.70495 0.0
H149 H 0.04691 0.82087 0.66739 0.0
H150 H 0.97815 0.87427 0.71091 0.0
H151 H 0.97135 0.83462 0.74859 0.0
H152 H 0.9491 0.74369 0.676 0.0
H153 H 0.94672 0.70571 0.63659 0.0
H154 H 0.95468 0.63573 0.70391 0.0
H155 H 0.95543 0.67327 0.74307 0.0
H156 H 0.04118 0.73403 0.81204 0.0
H157 H 0.0512 0.69598 0.85134 0.0
H158 H 0.95616 0.67698 0.85694 0.0
H159 H 0.94613 0.71512 0.8188 0.0
N160 N 0.9989 0.76813 0.77268 0.0
N161 N 0.97676 0.7598 0.72512 0.0
N162 N 0.97035 0.72449 0.76326 0.0
C163 C 0.99312 0.7775 0.74377 0.0
C164 C 0.9653 0.7333 0.73463 0.0
C165 C 0.98679 0.74144 0.78252 0.0
C166 C 1.00559 0.80525 0.73026 0.0
C167 C 0.02723 0.80219 0.70733 0.0
C168 C 0.03085 0.8246 0.68537 0.0
C169 C 0.01276 0.85065 0.68566 0.0
C170 C 0.99266 0.85467 0.70997 0.0
C171 C 0.989 0.83213 0.7319 0.0
C172 C 0.95363 0.7115 0.71253 0.0
C173 C 0.94926 0.72015 0.68241 0.0
C174 C 0.94816 0.6984 0.65982 0.0
C175 C 0.95179 0.66777 0.66701 0.0
C176 C 0.95205 0.65909 0.69743 0.0
C177 C 0.95265 0.68077 0.72002 0.0
C178 C 0.99284 0.72775 0.81245 0.0
C179 C 0.02239 0.72275 0.82276 0.0
C180 C 0.17647 0.99295 0.70007 0.0
C181 C 0.16468 0.01642 0.68218 0.0
C182 C 0.17308 0.04612 0.68875 0.0
C183 C 0.1944 0.05214 0.71103 0.0
H184 H 0.31524 0.98204 0.78081 0.0
H185 H 0.35282 0.97414 0.82025 0.0
H186 H 0.30858 0.04132 0.87504 0.0
H187 H 0.27092 0.04871 0.83556 0.0
H188 H 0.34411 0.07312 0.74608 0.0
H189 H 0.38384 0.07413 0.70834 0.0
H190 H 0.31667 0.06999 0.63797 0.0
H191 H 0.27727 0.07054 0.67529 0.0
H192 H 0.20904 0.98038 0.73389 0.0
H193 H 0.17021 0.96983 0.69558 0.0
H194 H 0.16396 0.0647 0.67581 0.0
H195 H 0.20164 0.07523 0.71415 0.0
N196 N 0.24755 0.0223 0.76801 0.0
N197 N 0.29464 0.04592 0.76121 0.0
N198 N 0.25695 0.05264 0.72553 0.0
C199 C 0.27614 0.02849 0.77804 0.0
C200 C 0.28531 0.05806 0.73495 0.0
C201 C 0.23782 0.03513 0.7416 0.0
C202 C 0.28957 0.0153 0.80549 0.0
C203 C 0.31271 0.99394 0.80196 0.0
C204 C 0.33469 0.98998 0.82429 0.0
C205 C 0.3342 0.00745 0.85072 0.0
C206 C 0.3097 0.02726 0.85515 0.0
C207 C 0.28776 0.03125 0.8327 0.0
C208 C 0.30763 0.07036 0.71367 0.0
C209 C 0.33783 0.07361 0.72252 0.0
C210 C 0.36061 0.07392 0.7009 0.0
C211 C 0.35345 0.07069 0.67025 0.0
C212 C 0.32311 0.07214 0.66138 0.0
C213 C 0.30036 0.0723 0.68294 0.0
C214 C 0.20834 0.02865 0.72717 0.0
C215 C 0.19834 0.999 0.7223 0.0
C216 C 0.98597 0.31597 0.84205 0.0
C217 C 0.00922 0.33352 0.85463 0.0
C218 C 0.03909 0.32689 0.84682 0.0
C219 C 0.04557 0.30485 0.82534 0.0
H220 H 0.97945 0.2367 0.70088 0.0
H221 H 0.97313 0.1974 0.6629 0.0
H222 H 0.03948 0.14293 0.70874 0.0
H223 H 0.04528 0.18228 0.74682 0.0
H224 H 0.07054 0.27385 0.67553 0.0
H225 H 0.07204 0.31217 0.63639 0.0
H226 H 0.06272 0.38144 0.70421 0.0
H227 H 0.06285 0.34359 0.7431 0.0
H228 H 0.97408 0.28275 0.80865 0.0
H229 H 0.96271 0.32057 0.84784 0.0
H230 H 0.05746 0.3397 0.85646 0.0
H231 H 0.06882 0.30175 0.81853 0.0
N232 N 0.01751 0.24892 0.77038 0.0
N233 N 0.04163 0.25734 0.72377 0.0
N234 N 0.04688 0.29231 0.76234 0.0
C235 C 0.02436 0.23968 0.74164 0.0
C236 C 0.05297 0.28365 0.73387 0.0
C237 C 0.02951 0.27542 0.78087 0.0
C238 C 0.01214 0.21217 0.7274 0.0
C239 C 0.99153 0.21565 0.70362 0.0
C240 C 0.98848 0.19339 0.68142 0.0
C241 C 1.00615 0.16706 0.68228 0.0
C242 C 0.02528 0.16272 0.7073 0.0
C243 C 0.02835 0.18509 0.72948 0.0
C244 C 0.06524 0.30565 0.71226 0.0
C245 C 0.06998 0.29733 0.68212 0.0
C246 C 0.07057 0.31927 0.65967 0.0
C247 C 0.06606 0.34972 0.66709 0.0
C248 C 0.0659 0.3582 0.69757 0.0
C249 C 0.06581 0.33633 0.72 0.0
C250 C 0.02237 0.28906 0.81061 0.0
C251 C 0.99248 0.294 0.81999 0.0
C252 C 0.84365 0.02568 0.70476 0.0
C253 C 0.85528 1.00208 0.68696 0.0
C254 C 0.84631 0.97251 0.69332 0.0
C255 C 0.82456 0.96675 0.7153 0.0
H256 H 0.70348 0.03732 0.78571 0.0
H257 H 0.66553 0.04362 0.8251 0.0
H258 H 0.70784 0.97269 0.87654 0.0
H259 H 0.7459 0.96683 0.83708 0.0
H260 H 0.67388 0.94761 0.74577 0.0
H261 H 0.63443 0.9459 0.70779 0.0
H262 H 0.70168 0.95546 0.63791 0.0
H263 H 0.74089 0.95564 0.67544 0.0
H264 H 0.81071 0.03867 0.73809 0.0
H265 H 0.85032 0.04872 0.70034 0.0
H266 H 0.85519 0.95387 0.68029 0.0
H267 H 0.81676 0.9438 0.71814 0.0
N268 N 0.77081 0.99606 0.77161 0.0
N269 N 0.72303 0.97474 0.76248 0.0
N270 N 0.76125 0.96879 0.72716 0.0
C271 C 0.74177 0.99042 0.78068 0.0
C272 C 0.73252 0.96387 0.73573 0.0
C273 C 0.78063 0.98453 0.74463 0.0
C274 C 0.72824 1.00223 0.80873 0.0
C275 C 0.70552 0.02418 0.80618 0.0
C276 C 0.68332 0.02725 0.82846 0.0
C277 C 0.68315 0.0083 0.85386 0.0
C278 C 0.70724 0.98784 0.85745 0.0
C279 C 0.72941 0.98473 0.83504 0.0
C280 C 0.71038 0.95287 0.71364 0.0
C281 C 0.68027 0.9483 0.72223 0.0
C282 C 0.65766 0.94757 0.70049 0.0
C283 C 0.66482 0.95175 0.66994 0.0
C284 C 0.69525 0.95237 0.66123 0.0
C285 C 0.71785 0.95263 0.68289 0.0
C286 C 0.81076 0.99042 0.73129 0.0
C287 C 0.82135 0.01991 0.72668 0.0
C288 C 0.16605 0.30905 0.99111 0.0
C289 C 0.15442 0.32574 0.01547 0.0
C290 C 0.16392 0.31851 0.04469 0.0
C291 C 0.18629 0.29686 0.04937 0.0
H292 H 0.30939 0.23106 0.97604 0.0
H293 H 0.34737 0.19179 0.96917 0.0
H294 H 0.30521 0.13932 0.03939 0.0
H295 H 0.26706 0.17869 0.0458 0.0
H296 H 0.33793 0.27266 0.06557 0.0
H297 H 0.37683 0.3112 0.06759 0.0
H298 H 0.30921 0.37986 0.05284 0.0
H299 H 0.27046 0.34178 0.05233 0.0
H300 H 0.19962 0.27708 0.97648 0.0
H301 H 0.15904 0.31422 0.96832 0.0
H302 H 0.15511 0.33077 0.06388 0.0
H303 H 0.19465 0.29351 0.07205 0.0
N304 N 0.24121 0.24325 0.01831 0.0
N305 N 0.28958 0.25463 0.03707 0.0
N306 N 0.25035 0.28869 0.04407 0.0
C307 C 0.27082 0.23541 0.02268 0.0
C308 C 0.27957 0.28125 0.04783 0.0
C309 C 0.23094 0.27012 0.02966 0.0
C310 C 0.28474 0.20756 0.01086 0.0
C311 C 0.30743 0.21043 0.98894 0.0
C312 C 0.32961 0.18821 0.98551 0.0
C313 C 0.32983 0.16254 1.00409 0.0
C314 C 0.30577 0.15865 0.02452 0.0
C315 C 0.28357 0.181 0.02797 0.0
C316 C 0.3013 0.30414 0.05789 0.0
C317 C 0.33133 0.29609 0.06372 0.0
C318 C 0.35362 0.31813 0.06464 0.0
C319 C 0.34624 0.34846 0.05931 0.0
C320 C 0.31577 0.35673 0.05696 0.0
C321 C 0.29346 0.33477 0.05652 0.0
C322 C 0.20011 0.28213 0.02494 0.0
C323 C 0.18892 0.28747 0.99579 0.0
C324 C 0.17995 0.69371 0.02652 0.0
C325 C 0.16769 0.67654 1.00278 0.0
C326 C 0.17528 0.68431 0.97311 0.0
C327 C 0.19622 0.70702 0.9673 0.0
H328 H 0.31839 0.77514 0.03655 0.0
H329 H 0.35557 0.81475 0.0452 0.0
H330 H 0.30916 0.87168 0.98139 0.0
H331 H 0.2719 0.83199 0.97322 0.0
H332 H 0.34597 0.74246 0.94557 0.0
H333 H 0.3855 0.70448 0.94493 0.0
H334 H 0.31787 0.63451 0.9478 0.0
H335 H 0.27873 0.67205 0.94667 0.0
H336 H 0.21248 0.72738 0.03939 0.0
H337 H 0.17434 0.68835 0.04965 0.0
H338 H 0.16575 0.67205 0.95431 0.0
H339 H 0.20285 0.71105 0.94415 0.0
N340 N 0.24964 0.76342 0.99756 0.0
N341 N 0.29644 0.75735 0.97306 0.0
N342 N 0.25875 0.72178 0.96602 0.0
C343 C 0.27811 0.77372 0.99115 0.0
C344 C 0.28702 0.73138 0.96042 0.0
C345 C 0.23982 0.73732 0.98422 0.0
C346 C 0.29167 0.80081 1.00492 0.0
C347 C 0.31533 0.79673 0.02556 0.0
C348 C 0.33706 0.8192 0.02996 0.0
C349 C 0.33582 0.84635 0.01364 0.0
C350 C 0.31085 0.85123 0.99457 0.0
C351 C 0.28915 0.82864 0.99014 0.0
C352 C 0.30929 0.71024 0.94768 0.0
C353 C 0.33957 0.71894 0.94482 0.0
C354 C 0.36223 0.69717 0.94476 0.0
C355 C 0.35486 0.66655 0.94792 0.0
C356 C 0.32451 0.65788 0.94581 0.0
C357 C 0.30189 0.67958 0.94532 0.0
C358 C 0.21058 0.72247 0.99095 0.0
C359 C 0.20142 0.71638 0.02067 0.0
C360 C 0.83368 0.32075 0.0263 0.0
C361 C 0.84581 0.33835 1.00278 0.0
C362 C 0.83819 0.33109 0.97302 0.0
C363 C 0.81733 0.30842 0.96692 0.0
H364 H 0.69561 0.24012 0.03591 0.0
H365 H 0.65831 0.20071 0.04499 0.0
H366 H 0.70521 0.14266 0.98254 0.0
H367 H 0.74256 0.18216 0.9739 0.0
H368 H 0.6684 0.27059 0.94408 0.0
H369 H 0.62859 0.30826 0.94329 0.0
H370 H 0.69575 0.37873 0.94498 0.0
H371 H 0.73514 0.34147 0.94402 0.0
H372 H 0.80136 0.28668 0.03873 0.0
H373 H 0.83936 0.32571 0.04948 0.0
H374 H 0.84765 0.34371 0.9544 0.0
H375 H 0.81074 0.30472 0.94371 0.0
N376 N 0.76433 0.25139 0.99719 0.0
N377 N 0.71785 0.25652 0.97196 0.0
N378 N 0.75531 0.2923 0.96467 0.0
C379 C 0.73607 0.24071 0.99063 0.0
C380 C 0.7272 0.28233 0.95891 0.0
C381 C 0.77412 0.27728 0.98343 0.0
C382 C 0.72254 0.21389 1.0049 0.0
C383 C 0.69875 0.21834 0.02535 0.0
C384 C 0.67696 0.19598 0.02998 0.0
C385 C 0.67832 0.16858 0.01414 0.0
C386 C 0.70344 0.16332 0.99535 0.0
C387 C 0.72518 0.1858 0.99066 0.0
C388 C 0.70486 0.30308 0.94568 0.0
C389 C 0.67463 0.29414 0.94301 0.0
C390 C 0.6518 0.31574 0.94287 0.0
C391 C 0.65897 0.34644 0.94573 0.0
C392 C 0.68925 0.3553 0.94327 0.0
C393 C 0.71202 0.33376 0.94287 0.0
C394 C 0.80309 0.29251 0.99036 0.0
C395 C 0.81229 0.2981 0.02015 0.0
C396 C 0.70352 0.84615 0.02304 0.0
C397 C 0.68577 0.85647 0.99879 0.0
C398 C 0.69285 0.84648 0.96965 0.0
C399 C 0.7153 0.82488 0.96508 0.0
H400 H 0.78963 0.71043 0.0421 0.0
H401 H 0.82968 0.67332 0.04924 0.0
H402 H 0.87677 0.70975 0.97234 0.0
H403 H 0.8366 0.74697 0.96554 0.0
H404 H 0.74564 0.67277 0.95709 0.0
H405 H 0.70781 0.63313 0.95705 0.0
H406 H 0.63759 0.70049 0.96332 0.0
H407 H 0.67495 0.7398 0.96183 0.0
H408 H 0.73726 0.81444 0.03779 0.0
H409 H 0.69865 0.85355 0.04577 0.0
H410 H 0.68006 0.85441 0.95044 0.0
H411 H 0.71859 0.81609 0.94255 0.0
N412 N 0.77233 0.77358 0.99619 0.0
N413 N 0.7629 0.72414 0.97922 0.0
N414 N 0.72674 0.76139 0.97204 0.0
C415 C 0.78156 0.7443 0.99241 0.0
C416 C 0.73549 0.73245 0.969 0.0
C417 C 0.74467 0.78213 0.98531 0.0
C418 C 0.8104 0.73217 1.00379 0.0
C419 C 0.80933 0.71148 0.02772 0.0
C420 C 0.83198 0.68975 0.03136 0.0
C421 C 0.85625 0.68807 0.01103 0.0
C422 C 0.85854 0.71039 0.98854 0.0
C423 C 0.83573 0.73207 0.98485 0.0
C424 C 0.71333 0.70937 0.96037 0.0
C425 C 0.72207 0.67908 0.95754 0.0
C426 C 0.70041 0.65637 0.95778 0.0
C427 C 0.66976 0.66361 0.96119 0.0
C428 C 0.66097 0.69401 0.96071 0.0
C429 C 0.68253 0.71667 0.96002 0.0
C430 C 0.73121 0.81243 0.9895 0.0
C431 C 0.72596 0.82412 0.01846 0.0
C432 C 0.51825 0.81292 0.67422 0.0
C433 C 0.49392 0.83018 0.66326 0.0
C434 C 0.46468 0.8227 0.67259 0.0
C435 C 0.45999 0.80031 0.69417 0.0
H436 H 0.53586 0.73078 0.8125 0.0
H437 H 0.54398 0.69112 0.84979 0.0
H438 H 0.47188 0.63953 0.80996 0.0
H439 H 0.46424 0.67924 0.77252 0.0
H440 H 0.44881 0.77139 0.84628 0.0
H441 H 0.44955 0.80973 0.88542 0.0
H442 H 0.4554 0.87895 0.8171 0.0
H443 H 0.45308 0.8411 0.77831 0.0
H444 H 0.53286 0.77966 0.70647 0.0
H445 H 0.54106 0.81812 0.6673 0.0
H446 H 0.44544 0.83514 0.66413 0.0
H447 H 0.43729 0.79669 0.70241 0.0
N448 N 0.49168 0.74467 0.74686 0.0
N449 N 0.4729 0.75409 0.79568 0.0
N450 N 0.46499 0.78925 0.75768 0.0
C451 C 0.48752 0.73574 0.77617 0.0
C452 C 0.46158 0.78084 0.78667 0.0
C453 C 0.47969 0.77163 0.73758 0.0
C454 C 0.50001 0.70771 0.78905 0.0
C455 C 0.52282 0.71024 0.81083 0.0
C456 C 0.52697 0.6878 0.83265 0.0
C457 C 0.50824 0.66228 0.83336 0.0
C458 C 0.4869 0.65872 0.81009 0.0
C459 C 0.48273 0.68128 0.78829 0.0
C460 C 0.45198 0.80317 0.80926 0.0
C461 C 0.44921 0.79487 0.83966 0.0
C462 C 0.44991 0.81681 0.86208 0.0
C463 C 0.45376 0.84728 0.8544 0.0
C464 C 0.45262 0.85571 0.82393 0.0
C465 C 0.45143 0.83385 0.80155 0.0
C466 C 0.4844 0.78494 0.70732 0.0
C467 C 0.51355 0.79057 0.69628 0.0
C468 C 0.19851 0.52623 0.67834 0.0
C469 C 0.1808 0.50302 0.66596 0.0
C470 C 0.18721 0.47316 0.67389 0.0
C471 C 0.20922 0.46665 0.69536 0.0
H472 H 0.27668 0.5339 0.8194 0.0
H473 H 0.31601 0.54093 0.85723 0.0
H474 H 0.37115 0.47494 0.8116 0.0
H475 H 0.33182 0.46849 0.77365 0.0
H476 H 0.24027 0.44268 0.8453 0.0
H477 H 0.20191 0.44152 0.88444 0.0
H478 H 0.13266 0.45036 0.81653 0.0
H479 H 0.17054 0.44991 0.77765 0.0
H480 H 0.23186 0.53809 0.71159 0.0
H481 H 0.19406 0.54947 0.67242 0.0
H482 H 0.17424 0.45483 0.66437 0.0
H483 H 0.21218 0.44343 0.7023 0.0
N484 N 0.26508 0.49519 0.75011 0.0
N485 N 0.25666 0.47151 0.79693 0.0
N486 N 0.2219 0.46555 0.75828 0.0
C487 C 0.27424 0.48873 0.77893 0.0
C488 C 0.23049 0.45983 0.78685 0.0
C489 C 0.23875 0.48287 0.73966 0.0
C490 C 0.30158 0.50134 0.79303 0.0
C491 C 0.29788 0.52207 0.81668 0.0
C492 C 0.32015 0.52553 0.83878 0.0
C493 C 0.34666 0.50814 0.83793 0.0
C494 C 0.35121 0.48893 0.81301 0.0
C495 C 0.32885 0.48548 0.79091 0.0
C496 C 0.20847 0.44771 0.80852 0.0
C497 C 0.21678 0.44321 0.8387 0.0
C498 C 0.19482 0.44281 0.86114 0.0
C499 C 0.16437 0.44728 0.85368 0.0
C500 C 0.15591 0.44722 0.82321 0.0
C501 C 0.17779 0.44711 0.80077 0.0
C502 C 0.22515 0.48984 0.70992 0.0
C503 C 0.22046 0.5197 0.70037 0.0
C504 C 0.4961 0.1982 0.67798 0.0
C505 C 0.52031 0.1814 0.66605 0.0
C506 C 0.54972 0.18909 0.67457 0.0
C507 C 0.55479 0.21128 0.69623 0.0
H508 H 0.48242 0.27452 0.82014 0.0
H509 H 0.47255 0.3136 0.8576 0.0
H510 H 0.53407 0.3729 0.81116 0.0
H511 H 0.54352 0.33367 0.7736 0.0
H512 H 0.5726 0.2418 0.84726 0.0
H513 H 0.57242 0.20342 0.88638 0.0
H514 H 0.56696 0.13423 0.8181 0.0
H515 H 0.56876 0.17213 0.77931 0.0
H516 H 0.48208 0.23096 0.71099 0.0
H517 H 0.47317 0.19283 0.67166 0.0
H518 H 0.56884 0.17702 0.66534 0.0
H519 H 0.5777 0.21516 0.70368 0.0
N520 N 0.52251 0.26566 0.75048 0.0
N521 N 0.54464 0.2576 0.79808 0.0
N522 N 0.55339 0.22342 0.75941 0.0
C523 C 0.52751 0.27477 0.77957 0.0
C524 C 0.55765 0.23192 0.78825 0.0
C525 C 0.53621 0.23987 0.74028 0.0
C526 C 0.51309 0.30135 0.79347 0.0
C527 C 0.49266 0.29646 0.81717 0.0
C528 C 0.48754 0.31864 0.83903 0.0
C529 C 0.50289 0.3463 0.83783 0.0
C530 C 0.52166 0.35199 0.8128 0.0
C531 C 0.52682 0.32968 0.79095 0.0
C532 C 0.56936 0.21003 0.81028 0.0
C533 C 0.57257 0.21832 0.84063 0.0
C534 C 0.57217 0.19635 0.86305 0.0
C535 C 0.5682 0.1659 0.85538 0.0
C536 C 0.56966 0.15747 0.82492 0.0
C537 C 0.57057 0.17937 0.80253 0.0
C538 C 0.5306 0.2262 0.71032 0.0
C539 C 0.5012 0.22034 0.70014 0.0
C540 C 0.81265 0.4888 0.67424 0.0
C541 C 0.83071 0.51241 0.66314 0.0
C542 C 0.82444 0.54193 0.67238 0.0
C543 C 0.80229 0.54759 0.69396 0.0
H544 H 0.73222 0.47512 0.81367 0.0
H545 H 0.69246 0.46736 0.85095 0.0
H546 H 0.6395 0.53711 0.80851 0.0
H547 H 0.67934 0.54443 0.77111 0.0
H548 H 0.77039 0.5647 0.84463 0.0
H549 H 0.80838 0.56657 0.88406 0.0
H550 H 0.87839 0.55952 0.81662 0.0
H551 H 0.84083 0.55927 0.77747 0.0
H552 H 0.77889 0.47566 0.70663 0.0
H553 H 0.81698 0.46582 0.66731 0.0
H554 H 0.83765 0.56058 0.66384 0.0
H555 H 0.79948 0.57047 0.702 0.0
N556 N 0.74565 0.51729 0.74682 0.0
N557 N 0.75414 0.53816 0.79492 0.0
N558 N 0.78948 0.54529 0.75693 0.0
C559 C 0.73634 0.52239 0.77586 0.0
C560 C 0.78072 0.54967 0.78569 0.0
C561 C 0.7724 0.52945 0.73728 0.0
C562 C 0.7085 0.50978 0.78897 0.0
C563 C 0.71139 0.48768 0.81146 0.0
C564 C 0.68888 0.48374 0.83323 0.0
C565 C 0.66293 0.50197 0.83319 0.0
C566 C 0.65904 0.5225 0.80924 0.0
C567 C 0.68168 0.52647 0.78747 0.0
C568 C 0.80259 0.56072 0.80804 0.0
C569 C 0.79394 0.5646 0.83822 0.0
C570 C 0.8157 0.56541 0.86082 0.0
C571 C 0.84634 0.56196 0.85357 0.0
C572 C 0.85502 0.56203 0.82314 0.0
C573 C 0.83333 0.56172 0.80055 0.0
C574 C 0.78605 0.52386 0.70729 0.0
C575 C 0.79055 0.49447 0.69637 0.0
C576 C 0.5282 0.20057 0.34488 0.0
C577 C 0.50454 0.18293 0.35659 0.0
C578 C 0.47493 0.18966 0.3479 0.0
C579 C 0.46918 0.21182 0.32633 0.0
H580 H 0.53975 0.28131 0.20507 0.0
H581 H 0.54702 0.32088 0.16751 0.0
H582 H 0.47816 0.37424 0.21094 0.0
H583 H 0.47133 0.33458 0.2486 0.0
H584 H 0.4491 0.24375 0.17602 0.0
H585 H 0.44669 0.20581 0.13658 0.0
H586 H 0.45456 0.13576 0.20385 0.0
H587 H 0.45534 0.17328 0.24303 0.0
H588 H 0.54121 0.23397 0.31206 0.0
H589 H 0.55126 0.19591 0.35134 0.0
H590 H 0.45623 0.17682 0.35689 0.0
H591 H 0.44618 0.21496 0.31877 0.0
N592 N 0.49893 0.26807 0.27271 0.0
N593 N 0.47675 0.2598 0.22516 0.0
N594 N 0.47035 0.22446 0.26325 0.0
C595 C 0.49314 0.27747 0.24381 0.0
C596 C 0.46529 0.2333 0.23464 0.0
C597 C 0.48682 0.24137 0.28253 0.0
C598 C 0.50562 0.30523 0.23033 0.0
C599 C 0.52729 0.30218 0.20743 0.0
C600 C 0.53093 0.3246 0.18547 0.0
C601 C 0.51282 0.35063 0.18573 0.0
C602 C 0.49269 0.35465 0.21002 0.0
C603 C 0.48901 0.3321 0.23195 0.0
C604 C 0.45359 0.21153 0.21252 0.0
C605 C 0.44924 0.22021 0.18241 0.0
C606 C 0.44811 0.19847 0.1598 0.0
C607 C 0.45171 0.16784 0.16697 0.0
C608 C 0.45195 0.15913 0.19739 0.0
C609 C 0.45258 0.1808 0.21999 0.0
C610 C 0.49288 0.22765 0.31244 0.0
C611 C 0.52243 0.22267 0.32275 0.0
C612 C 0.67654 0.49285 0.20014 0.0
C613 C 0.66471 0.51632 0.18228 0.0
C614 C 0.67307 0.54602 0.18889 0.0
C615 C 0.69439 0.55205 0.21118 0.0
H616 H 0.81532 0.48201 0.28086 0.0
H617 H 0.85292 0.47412 0.32029 0.0
H618 H 0.80865 0.54125 0.37511 0.0
H619 H 0.77098 0.54863 0.33565 0.0
H620 H 0.84412 0.57309 0.24613 0.0
H621 H 0.88381 0.57411 0.20835 0.0
H622 H 0.81659 0.56998 0.13803 0.0
H623 H 0.77721 0.57053 0.17539 0.0
H624 H 0.70912 0.48027 0.23395 0.0
H625 H 0.6703 0.46972 0.19563 0.0
H626 H 0.66393 0.56461 0.17598 0.0
H627 H 0.7016 0.57514 0.21432 0.0
N628 N 0.7476 0.52222 0.2681 0.0
N629 N 0.79467 0.54588 0.26129 0.0
N630 N 0.75694 0.55258 0.22563 0.0
C631 C 0.77618 0.52843 0.27812 0.0
C632 C 0.78531 0.55802 0.23504 0.0
C633 C 0.73784 0.53505 0.24171 0.0
C634 C 0.78964 0.51525 0.30556 0.0
C635 C 0.8128 0.4939 0.30202 0.0
C636 C 0.83478 0.48995 0.32435 0.0
C637 C 0.83428 0.50741 0.35078 0.0
C638 C 0.80977 0.5272 0.35522 0.0
C639 C 0.78782 0.53118 0.33279 0.0
C640 C 0.80761 0.57034 0.21374 0.0
C641 C 0.83781 0.57359 0.22257 0.0
C642 C 0.86057 0.57391 0.20093 0.0
C643 C 0.8534 0.57068 0.17028 0.0
C644 C 0.82304 0.57213 0.16144 0.0
C645 C 0.80031 0.57228 0.18302 0.0
C646 C 0.70835 0.52856 0.22729 0.0
C647 C 0.6984 0.4989 0.22238 0.0
C648 C 0.48606 0.81582 0.34223 0.0
C649 C 0.50932 0.83336 0.35479 0.0
C650 C 0.53918 0.82671 0.34697 0.0
C651 C 0.54564 0.80466 0.32549 0.0
H652 H 0.47943 0.73647 0.20107 0.0
H653 H 0.47315 0.69716 0.1631 0.0
H654 H 0.53977 0.64288 0.20879 0.0
H655 H 0.54553 0.68224 0.24686 0.0
H656 H 0.57036 0.77396 0.17557 0.0
H657 H 0.57177 0.81232 0.13647 0.0
H658 H 0.5623 0.88151 0.20435 0.0
H659 H 0.56251 0.84363 0.24321 0.0
H660 H 0.47413 0.78262 0.30882 0.0
H661 H 0.4628 0.82043 0.34801 0.0
H662 H 0.55757 0.83951 0.35661 0.0
H663 H 0.56889 0.80155 0.31867 0.0
N664 N 0.5176 0.74876 0.27052 0.0
N665 N 0.54157 0.75732 0.22385 0.0
N666 N 0.54679 0.79227 0.26245 0.0
C667 C 0.52441 0.73958 0.24175 0.0
C668 C 0.55284 0.78367 0.23395 0.0
C669 C 0.52953 0.7753 0.281 0.0
C670 C 0.51225 0.71204 0.22752 0.0
C671 C 0.49158 0.71545 0.20378 0.0
C672 C 0.48855 0.69319 0.18158 0.0
C673 C 0.50631 0.66692 0.1824 0.0
C674 C 0.5255 0.66263 0.20738 0.0
C675 C 0.52855 0.685 0.22956 0.0
C676 C 0.56499 0.80572 0.21234 0.0
C677 C 0.56974 0.79743 0.18218 0.0
C678 C 0.57028 0.8194 0.15976 0.0
C679 C 0.56571 0.84983 0.1672 0.0
C680 C 0.56552 0.85828 0.19769 0.0
C681 C 0.56548 0.83639 0.2201 0.0
C682 C 0.52243 0.78889 0.31077 0.0
C683 C 0.49255 0.79385 0.32016 0.0
C684 C 0.34383 0.52562 0.20483 0.0
C685 C 0.35542 0.50201 0.18702 0.0
C686 C 0.34639 0.47245 0.19335 0.0
C687 C 0.32462 0.46672 0.21532 0.0
H688 H 0.20358 0.53738 0.28576 0.0
H689 H 0.16563 0.54365 0.32517 0.0
H690 H 0.20791 0.47261 0.37651 0.0
H691 H 0.24596 0.4668 0.33703 0.0
H692 H 0.17392 0.44774 0.24568 0.0
H693 H 0.13445 0.44604 0.20771 0.0
H694 H 0.20167 0.45577 0.13782 0.0
H695 H 0.24089 0.45596 0.17534 0.0
H696 H 0.31089 0.53865 0.23814 0.0
H697 H 0.35054 0.54864 0.20043 0.0
H698 H 0.35524 0.4538 0.18031 0.0
H699 H 0.31677 0.44378 0.21813 0.0
N700 N 0.27089 0.49605 0.27162 0.0
N701 N 0.22307 0.47486 0.26242 0.0
N702 N 0.26129 0.4689 0.2271 0.0
C703 C 0.24183 0.49046 0.28066 0.0
C704 C 0.23255 0.46402 0.23565 0.0
C705 C 0.2807 0.48456 0.24462 0.0
C706 C 0.22832 0.50224 0.30873 0.0
C707 C 0.20561 0.52421 0.30622 0.0
C708 C 0.18342 0.52726 0.3285 0.0
C709 C 0.18323 0.50827 0.35388 0.0
C710 C 0.20732 0.4878 0.35743 0.0
C711 C 0.22948 0.48471 0.33501 0.0
C712 C 0.2104 0.45309 0.21355 0.0
C713 C 0.1803 0.44848 0.22214 0.0
C714 C 0.15767 0.44775 0.20041 0.0
C715 C 0.16482 0.45197 0.16986 0.0
C716 C 0.19525 0.45264 0.16114 0.0
C717 C 0.21786 0.45291 0.1828 0.0
C718 C 0.31085 0.4904 0.23132 0.0
C719 C 0.3215 0.51987 0.22672 0.0
C720 C 0.66617 0.80899 0.49119 0.0
C721 C 0.65453 0.82568 0.51555 0.0
C722 C 0.66401 0.81844 0.54478 0.0
C723 C 0.68637 0.79679 0.54946 0.0
H724 H 0.80952 0.73102 0.47618 0.0
H725 H 0.8475 0.69175 0.4693 0.0
H726 H 0.80531 0.63925 0.53948 0.0
H727 H 0.76717 0.67861 0.5459 0.0
H728 H 0.83804 0.77263 0.56566 0.0
H729 H 0.87691 0.81119 0.56766 0.0
H730 H 0.80922 0.87981 0.55302 0.0
H731 H 0.7705 0.8417 0.55253 0.0
H732 H 0.69975 0.77703 0.47657 0.0
H733 H 0.65918 0.81417 0.4684 0.0
H734 H 0.65519 0.8307 0.56396 0.0
H735 H 0.69472 0.79343 0.57215 0.0
N736 N 0.74132 0.74318 0.51842 0.0
N737 N 0.78967 0.75457 0.53721 0.0
N738 N 0.75043 0.78862 0.5442 0.0
C739 C 0.77093 0.73534 0.5228 0.0
C740 C 0.77965 0.78118 0.54797 0.0
C741 C 0.73104 0.77005 0.52978 0.0
C742 C 0.78486 0.7075 0.51098 0.0
C743 C 0.80755 0.71038 0.48907 0.0
C744 C 0.82974 0.68816 0.48563 0.0
C745 C 0.82994 0.66248 0.5042 0.0
C746 C 0.80587 0.65858 0.52462 0.0
C747 C 0.78368 0.68094 0.52808 0.0
C748 C 0.80137 0.80408 0.55803 0.0
C749 C 0.83142 0.79605 0.56383 0.0
C750 C 0.85369 0.81811 0.56474 0.0
C751 C 0.84628 0.84844 0.55942 0.0
C752 C 0.81581 0.85669 0.55711 0.0
C753 C 0.79351 0.8347 0.55669 0.0
C754 C 0.70021 0.78206 0.52504 0.0
C755 C 0.68904 0.78741 0.49588 0.0
C756 C 0.68008 0.19365 0.52656 0.0
C757 C 0.66778 0.17652 0.50282 0.0
C758 C 0.6753 0.18433 0.47315 0.0
C759 C 0.69624 0.20704 0.46733 0.0
H760 H 0.81859 0.27498 0.53642 0.0
H761 H 0.85579 0.31456 0.5451 0.0
H762 H 0.80924 0.37167 0.48155 0.0
H763 H 0.77196 0.33201 0.47335 0.0
H764 H 0.84595 0.24247 0.44536 0.0
H765 H 0.88546 0.20448 0.4447 0.0
H766 H 0.81779 0.13454 0.44757 0.0
H767 H 0.77867 0.1721 0.44645 0.0
H768 H 0.71265 0.22731 0.53941 0.0
H769 H 0.67452 0.18827 0.54969 0.0
H770 H 0.66574 0.17209 0.45435 0.0
H771 H 0.70281 0.2111 0.44417 0.0
N772 N 0.74974 0.26338 0.49757 0.0
N773 N 0.79648 0.25735 0.47295 0.0
N774 N 0.75875 0.22181 0.46592 0.0
C775 C 0.77819 0.27368 0.49112 0.0
C776 C 0.78702 0.23141 0.46028 0.0
C777 C 0.73987 0.23732 0.4842 0.0
C778 C 0.7918 0.30074 0.50492 0.0
C779 C 0.81551 0.2966 0.5255 0.0
C780 C 0.83725 0.31906 0.52991 0.0
C781 C 0.83597 0.34626 0.51367 0.0
C782 C 0.81096 0.35119 0.49467 0.0
C783 C 0.78925 0.32861 0.49023 0.0
C784 C 0.80925 0.21028 0.44747 0.0
C785 C 0.83954 0.21895 0.4446 0.0
C786 C 0.86219 0.19718 0.44453 0.0
C787 C 0.8548 0.16656 0.4477 0.0
C788 C 0.82444 0.1579 0.44558 0.0
C789 C 0.80184 0.17962 0.4451 0.0
C790 C 0.71064 0.22246 0.49097 0.0
C791 C 0.70155 0.21633 0.5207 0.0
C792 C 0.33382 0.82069 0.5264 0.0
C793 C 0.34592 0.8383 0.50288 0.0
C794 C 0.33825 0.83106 0.47313 0.0
C795 C 0.31737 0.8084 0.46703 0.0
H796 H 0.19575 0.74001 0.53613 0.0
H797 H 0.15846 0.70057 0.54518 0.0
H798 H 0.2053 0.64264 0.48258 0.0
H799 H 0.24264 0.68216 0.47397 0.0
H800 H 0.16841 0.77059 0.44437 0.0
H801 H 0.12859 0.80825 0.44356 0.0
H802 H 0.19571 0.87874 0.44526 0.0
H803 H 0.23512 0.8415 0.44434 0.0
H804 H 0.30151 0.78662 0.53885 0.0
H805 H 0.33953 0.82563 0.54958 0.0
H806 H 0.34769 0.84369 0.45449 0.0
H807 H 0.31075 0.80472 0.44384 0.0
N808 N 0.26441 0.75135 0.49734 0.0
N809 N 0.2179 0.75652 0.47219 0.0
N810 N 0.25534 0.7923 0.46489 0.0
C811 C 0.23615 0.74068 0.4908 0.0
C812 C 0.22722 0.78234 0.45916 0.0
C813 C 0.27419 0.77726 0.4836 0.0
C814 C 0.22265 0.71383 0.50506 0.0
C815 C 0.19888 0.71824 0.52553 0.0
C816 C 0.17709 0.69588 0.53015 0.0
C817 C 0.17844 0.6685 0.51425 0.0
C818 C 0.20354 0.66328 0.49543 0.0
C819 C 0.22528 0.68577 0.49076 0.0
C820 C 0.20486 0.80309 0.44597 0.0
C821 C 0.17463 0.79414 0.4433 0.0
C822 C 0.1518 0.81573 0.44315 0.0
C823 C 0.15895 0.84643 0.44599 0.0
C824 C 0.18923 0.85531 0.44355 0.0
C825 C 0.21201 0.83378 0.44317 0.0
C826 C 0.30317 0.79248 0.49049 0.0
C827 C 0.31241 0.79805 0.52027 0.0
C828 C 0.20359 0.34607 0.52304 0.0
C829 C 0.18586 0.3564 0.49879 0.0
C830 C 0.19294 0.34642 0.46965 0.0
C831 C 0.2154 0.32483 0.46508 0.0
H832 H 0.28969 0.21033 0.54207 0.0
H833 H 0.32976 0.17323 0.54921 0.0
H834 H 0.37684 0.20967 0.4723 0.0
H835 H 0.33665 0.24689 0.46551 0.0
H836 H 0.24563 0.17268 0.45715 0.0
H837 H 0.20776 0.13308 0.45711 0.0
H838 H 0.1376 0.20051 0.46333 0.0
H839 H 0.175 0.23978 0.46183 0.0
H840 H 0.23732 0.31435 0.5378 0.0
H841 H 0.19871 0.35346 0.54577 0.0
H842 H 0.18017 0.35436 0.45044 0.0
H843 H 0.21869 0.31605 0.44254 0.0
N844 N 0.2724 0.2735 0.49617 0.0
N845 N 0.26294 0.22406 0.47922 0.0
N846 N 0.22679 0.26133 0.47205 0.0
C847 C 0.28162 0.24421 0.49239 0.0
C848 C 0.23553 0.23238 0.46901 0.0
C849 C 0.24474 0.28206 0.48531 0.0
C850 C 0.31046 0.23208 0.50376 0.0
C851 C 0.3094 0.21137 0.52769 0.0
C852 C 0.33205 0.18966 0.53132 0.0
C853 C 0.35633 0.18799 0.511 0.0
C854 C 0.35861 0.21031 0.4885 0.0
C855 C 0.33579 0.23198 0.48482 0.0
C856 C 0.21335 0.20931 0.4604 0.0
C857 C 0.22206 0.17902 0.45759 0.0
C858 C 0.20039 0.15633 0.45783 0.0
C859 C 0.16974 0.16359 0.46122 0.0
C860 C 0.16097 0.194 0.46073 0.0
C861 C 0.18256 0.21664 0.46003 0.0
C862 C 0.2313 0.31236 0.4895 0.0
C863 C 0.22603 0.32404 0.51846 0.0
C864 C 0.0101 0.9355 0.58478 0.0
C865 C 1.00228 0.93273 0.43704 0.0
C866 C 0.00883 0.0808 0.58247 0.0
C867 C 0.00816 0.07785 0.43434 0.0
C868 C 0.9363 0.07998 0.499 0.0
C869 C 0.93413 0.9356 0.52141 0.0
C870 C 0.08108 0.07778 0.50006 0.0
C871 C 0.07796 0.93301 0.49814 0.0
C872 C 0.07821 1.00382 0.43402 0.0
C873 C 0.93298 1.0063 0.43725 0.0
C874 C 0.08182 1.00499 0.58175 0.0
C875 C 0.93653 0.01193 0.58485 0.0
Eu876 Eu 1.00648 0.94922 0.5106 0.0
O877 O 0.97878 0.97909 0.48379 0.0
O878 O 0.03485 0.97948 0.53611 0.0
Eu879 Eu 0.94994 0.00764 0.51073 0.0
Eu880 Eu 0.06482 1.00571 0.50826 0.0
O881 O 0.98125 0.9813 0.53662 0.0
O882 O 0.0328 0.97932 0.48344 0.0
Eu883 Eu 0.00889 0.00791 0.56583 0.0
Eu884 Eu 1.00591 1.0055 0.45332 0.0
O885 O 0.98122 0.03487 0.53626 0.0
O886 O 0.98087 0.0332 0.48376 0.0
O887 O 0.03363 0.0323 0.48241 0.0
O888 O 0.03593 0.03425 0.53527 0.0
Eu889 Eu 0.00835 0.06429 0.50866 0.0
O890 O 0.01085 0.9252 0.55634 0.0
O891 O 1.00198 0.92339 0.46582 0.0
O892 O 0.00807 0.09024 0.5537 0.0
O893 O 0.00884 0.08825 0.46271 0.0
O894 O 0.92631 0.05181 0.50199 0.0
O895 O 0.92496 0.96413 0.51888 0.0
O896 O 0.09026 0.04933 0.50305 0.0
O897 O 0.08813 0.96114 0.50077 0.0
O898 O 0.04914 1.00358 0.42648 0.0
O899 O 0.96168 0.00737 0.42856 0.0
O900 O 0.05319 1.00595 0.5908 0.0
O901 O 0.9655 0.01002 0.59266 0.0
O902 O 0.05286 0.08783 0.50241 0.0
O903 O 0.96455 0.08938 0.50278 0.0
O904 O 0.04974 0.92378 0.50261 0.0
O905 O 0.96223 0.92552 0.51794 0.0
O906 O 1.00413 0.96138 0.42836 0.0
O907 O 1.00693 0.04884 0.42671 0.0
O908 O 0.00825 0.96449 0.59247 0.0
O909 O 0.00995 0.05203 0.591 0.0
O910 O 0.92613 0.01215 0.55646 0.0
O911 O 0.9237 1.0049 0.46602 0.0
O912 O 0.09103 1.00505 0.55294 0.0
O913 O 0.08869 1.00495 0.46233 0.0
C914 C 0.51877 0.9359 0.08261 0.0
C915 C 0.49442 0.08027 0.08168 0.0
C916 C 0.49863 0.93484 0.93829 0.0
C917 C 0.51798 0.07964 0.93781 0.0
C918 C 0.58192 1.00675 0.93836 0.0
C919 C 0.57991 0.01316 0.08358 0.0
C920 C 0.43401 0.00751 0.93673 0.0
C921 C 0.43263 1.00313 0.08198 0.0
C922 C 0.43154 0.07864 1.00669 0.0
C923 C 0.57945 0.08168 0.01301 0.0
C924 C 0.43462 0.93354 0.01255 0.0
C925 C 0.58248 0.93657 0.01014 0.0
Eu926 Eu 0.50643 0.00796 0.06758 0.0
O927 O 0.53278 0.03565 0.03751 0.0
O928 O 0.48077 0.97992 0.03727 0.0
Eu929 Eu 0.56333 0.00875 0.01088 0.0
Eu930 Eu 0.45089 1.00644 0.00958 0.0
O931 O 0.53331 0.98174 0.03704 0.0
O932 O 0.48014 0.03385 0.03622 0.0
Eu933 Eu 0.5083 0.95009 0.01042 0.0
Eu934 Eu 0.50581 0.0652 0.00978 0.0
O935 O 0.53475 0.98067 0.98322 0.0
O936 O 0.53272 0.03442 0.98392 0.0
O937 O 0.48009 0.03432 0.98231 0.0
O938 O 0.48202 0.98048 0.98352 0.0
Eu939 Eu 0.50778 0.00735 0.95263 0.0
O940 O 0.51564 0.96428 0.09205 0.0
O941 O 0.49709 0.05195 0.09144 0.0
O942 O 0.5009 0.96318 0.92855 0.0
O943 O 0.51579 0.05123 0.92829 0.0
O944 O 0.58967 0.00896 0.96729 0.0
O945 O 0.58865 0.01119 0.05493 0.0
O946 O 0.42565 1.00519 0.96549 0.0
O947 O 0.42453 1.00494 0.05313 0.0
O948 O 0.45992 0.08904 1.00536 0.0
O949 O 0.55064 0.09097 0.01399 0.0
O950 O 0.46341 0.92429 0.0141 0.0
O951 O 0.55422 0.92631 0.00704 0.0
O952 O 0.46263 0.00988 0.92717 0.0
O953 O 0.55349 1.00471 0.92821 0.0
O954 O 0.46112 1.00313 0.09209 0.0
O955 O 0.55119 0.01303 0.09308 0.0
O956 O 0.49834 0.08987 0.05349 0.0
O957 O 0.51336 0.0895 0.9658 0.0
O958 O 0.51527 0.92596 0.05451 0.0
O959 O 0.50222 0.92529 0.96654 0.0
O960 O 0.59009 0.96544 0.01318 0.0
O961 O 0.58818 0.05304 0.01073 0.0
O962 O 0.42593 0.96216 0.00978 0.0
O963 O 0.42404 0.04969 0.00926 0.0
C964 C 1.00418 0.43276 0.08247 0.0
C965 C 0.99874 0.43431 0.93732 0.0
C966 C 0.00983 0.58032 0.08375 0.0
C967 C 0.01393 0.58136 0.93839 0.0
C968 C 0.93883 0.58538 0.01052 0.0
C969 C 0.92957 0.43788 0.01371 0.0
C970 C 0.08392 0.57674 0.01338 0.0
C971 C 0.07454 0.4293 0.0074 0.0
C972 C 0.07826 0.49455 0.9381 0.0
C973 C 0.93428 0.52022 0.93895 0.0
C974 C 0.07875 0.49403 0.08276 0.0
C975 C 0.93575 0.5211 0.08353 0.0
Eu976 Eu 1.00284 0.45096 0.01016 0.0
O977 O 0.97746 0.48235 0.98304 0.0
O978 O 0.03149 0.47947 0.03654 0.0
Eu979 Eu 0.94944 0.51061 0.01103 0.0
Eu980 Eu 0.064 0.50399 0.01037 0.0
O981 O 0.97768 0.48177 0.03823 0.0
O982 O 0.03114 0.48009 0.98411 0.0
Eu983 Eu 1.00701 0.50668 0.06809 0.0
Eu984 Eu 1.00641 0.50774 0.95318 0.0
O985 O 0.98248 0.53438 0.03705 0.0
O986 O 0.98194 0.53511 0.9847 0.0
O987 O 0.03567 0.53271 0.98312 0.0
O988 O 0.0359 0.53227 0.03827 0.0
Eu989 Eu 0.01062 0.56365 0.01104 0.0
O990 O 1.00579 0.42468 0.05361 0.0
O991 O 0.99881 0.42565 0.9661 0.0
O992 O 0.00825 0.589 0.05506 0.0
O993 O 0.01395 0.58962 0.96727 0.0
O994 O 0.92743 0.55742 0.01109 0.0
O995 O 0.92144 0.46697 0.01194 0.0
O996 O 0.09201 0.54768 0.01095 0.0
O997 O 0.08591 0.4572 0.00937 0.0
O998 O 0.04986 0.49755 0.92872 0.0
O999 O 0.96263 0.5177 0.92925 0.0
O1000 O 0.05072 0.49859 0.09256 0.0
O1001 O 0.96367 0.51552 0.09309 0.0
O1002 O 0.05566 0.58679 0.01448 0.0
O1003 O 0.96815 0.59202 0.00991 0.0
O1004 O 0.04524 0.42258 1.0067 0.0
O1005 O 0.95783 0.4278 0.01397 0.0
O1006 O 1.00088 0.46294 0.92779 0.0
O1007 O 0.01184 0.55288 0.92845 0.0
O1008 O 1.00238 0.46122 0.0925 0.0
O1009 O 0.01158 0.55167 0.09326 0.0
O1010 O 0.92591 0.51927 0.05523 0.0
O1011 O 0.92467 0.51637 0.96713 0.0
O1012 O 0.08823 0.49597 0.05432 0.0
O1013 O 0.08823 0.49824 0.96616 0.0
C1014 C 0.51021 0.43544 0.08482 0.0
C1015 C 0.50898 0.5807 0.08255 0.0
C1016 C 0.50239 0.43271 0.93705 0.0
C1017 C 0.50827 0.57785 0.93444 0.0
C1018 C 0.57833 0.50378 0.93408 0.0
C1019 C 0.58192 0.50491 0.0818 0.0
C1020 C 0.43309 0.50628 0.93731 0.0
C1021 C 0.43668 0.51185 0.0849 0.0
C1022 C 0.43642 0.57995 0.99909 0.0
C1023 C 0.58119 0.57773 1.00009 0.0
C1024 C 0.43421 0.43556 0.02142 0.0
C1025 C 0.57807 0.43297 0.99812 0.0
Eu1026 Eu 0.50901 0.50784 0.0658 0.0
O1027 O 0.5361 0.53422 0.03531 0.0
O1028 O 0.48136 0.4812 0.03661 0.0
Eu1029 Eu 0.56494 0.50567 0.00832 0.0
Eu1030 Eu 0.45006 0.50761 0.01078 0.0
O1031 O 0.53498 0.47935 0.03609 0.0
O1032 O 0.4813 0.53484 0.03631 0.0
Eu1033 Eu 0.50659 0.4491 0.01063 0.0
Eu1034 Eu 0.50847 0.56424 0.00875 0.0
O1035 O 0.53287 0.47928 0.98351 0.0
O1036 O 0.53374 0.53224 0.98247 0.0
O1037 O 0.48099 0.53316 0.98381 0.0
O1038 O 0.47893 0.47904 0.98385 0.0
Eu1039 Eu 0.50602 0.50549 0.95336 0.0
O1040 O 0.50836 0.46444 0.09248 0.0
O1041 O 0.51009 0.55193 0.09105 0.0
O1042 O 0.50424 0.46137 0.92839 0.0
O1043 O 0.50705 0.54885 0.92678 0.0
O1044 O 0.58881 0.50491 0.96239 0.0
O1045 O 0.59114 0.50498 0.05299 0.0
O1046 O 0.42381 0.50487 0.96608 0.0
O1047 O 0.42626 0.51209 0.05652 0.0
O1048 O 0.46468 0.58935 1.00288 0.0
O1049 O 0.55297 0.58779 1.00247 0.0
O1050 O 0.4623 0.42545 0.01795 0.0
O1051 O 0.54987 0.42371 1.0026 0.0
O1052 O 0.46179 0.50736 0.92862 0.0
O1053 O 0.54926 0.50356 0.92654 0.0
O1054 O 0.46565 0.50994 0.09269 0.0
O1055 O 0.55329 0.50587 0.09082 0.0
O1056 O 0.50821 0.59017 0.05379 0.0
O1057 O 0.50895 0.58824 0.96282 0.0
O1058 O 0.51095 0.42512 0.05639 0.0
O1059 O 0.50208 0.42334 0.96582 0.0
O1060 O 0.58824 0.4611 1.00076 0.0
O1061 O 0.59037 0.54929 1.00308 0.0
O1062 O 0.42506 0.4641 0.01891 0.0
O1063 O 0.42643 0.55178 1.00205 0.0
C1064 C 0.01897 0.4358 0.5826 0.0
C1065 C 0.99874 0.43481 0.43831 0.0
C1066 C 0.99454 0.58019 0.58175 0.0
C1067 C 0.01808 0.57958 0.43785 0.0
C1068 C 0.93165 0.57857 0.50676 0.0
C1069 C 0.93475 0.43347 0.5126 0.0
C1070 C 0.07956 0.58161 0.51306 0.0
C1071 C 0.08257 0.43651 0.51015 0.0
C1072 C 0.08201 0.5067 0.43839 0.0
C1073 C 0.9341 0.50746 0.43678 0.0
C1074 C 0.08005 0.51308 0.58362 0.0
C1075 C 0.93274 0.50305 0.58204 0.0
Eu1076 Eu 0.00841 0.45009 0.51043 0.0
O1077 O 0.98209 0.48044 0.48353 0.0
O1078 O 0.03342 0.48172 0.53712 0.0
Eu1079 Eu 0.951 0.50636 0.50963 0.0
Eu1080 Eu 0.06344 0.50869 0.5109 0.0
O1081 O 0.98088 0.47989 0.53736 0.0
O1082 O 0.03489 0.48064 0.48323 0.0
Eu1083 Eu 1.00656 0.50787 0.56769 0.0
Eu1084 Eu 0.00788 0.50729 0.45268 0.0
O1085 O 0.9803 0.53375 0.53629 0.0
O1086 O 0.98019 0.53427 0.48238 0.0
O1087 O 0.03283 0.53438 0.48398 0.0
O1088 O 0.03287 0.53557 0.53758 0.0
Eu1089 Eu 1.00592 0.56514 0.50983 0.0
O1090 O 0.01544 0.42589 0.55448 0.0
O1091 O 1.00232 0.42526 0.46657 0.0
O1092 O 0.99845 0.58979 0.55356 0.0
O1093 O 0.01347 0.58944 0.46585 0.0
O1094 O 0.92415 0.54962 0.50933 0.0
O1095 O 0.92605 0.46209 0.50983 0.0
O1096 O 0.08829 0.55297 0.51077 0.0
O1097 O 0.09019 0.46538 0.51321 0.0
O1098 O 0.05358 0.50467 0.42824 0.0
O1099 O 0.96273 0.50983 0.42721 0.0
O1100 O 0.05134 0.51294 0.59314 0.0
O1101 O 0.96122 0.50304 0.59216 0.0
O1102 O 0.05076 0.5909 0.51406 0.0
O1103 O 0.96003 0.58897 0.50543 0.0
O1104 O 0.0543 0.42628 0.50703 0.0
O1105 O 0.96355 0.42425 0.51414 0.0
O1106 O 1.00101 0.46314 0.42858 0.0
O1107 O 0.01586 0.55117 0.42834 0.0
O1108 O 0.01581 0.46415 0.59208 0.0
O1109 O 0.99723 0.55187 0.59152 0.0
O1110 O 0.92464 0.50487 0.55319 0.0
O1111 O 0.92576 0.50513 0.46554 0.0
O1112 O 0.08878 0.51113 0.55495 0.0
O1113 O 0.08977 0.5089 0.46732 0.0
C1114 C 0.5043 0.93276 0.58256 0.0
C1115 C 0.49887 0.93421 0.43742 0.0
C1116 C 0.50994 0.08031 0.58375 0.0
C1117 C 0.51405 0.08126 0.43839 0.0
C1118 C 0.43894 0.08532 0.51052 0.0
C1119 C 0.42969 0.93782 0.51378 0.0
C1120 C 0.58404 0.0767 0.51341 0.0
C1121 C 0.57466 0.92924 0.50748 0.0
C1122 C 0.57838 0.99444 0.43816 0.0
C1123 C 0.4344 0.02008 0.43898 0.0
C1124 C 0.57885 0.99398 0.58282 0.0
C1125 C 0.43586 0.02109 0.58356 0.0
Eu1126 Eu 0.50296 0.9509 0.51024 0.0
O1127 O 0.47759 0.98228 0.48309 0.0
O1128 O 0.53161 0.97943 0.53661 0.0
Eu1129 Eu 0.44956 0.01055 0.51107 0.0
Eu1130 Eu 0.56412 1.00394 0.51042 0.0
O1131 O 0.47779 0.98173 0.53829 0.0
O1132 O 0.53126 0.98003 0.48418 0.0
Eu1133 Eu 0.50712 1.00666 0.56814 0.0
Eu1134 Eu 0.50653 0.00765 0.45322 0.0
O1135 O 0.4826 0.03435 0.53708 0.0
O1136 O 0.48205 0.03505 0.48472 0.0
O1137 O 0.53579 0.03265 0.48315 0.0
O1138 O 0.53602 0.03224 0.5383 0.0
Eu1139 Eu 0.51073 0.06359 0.51105 0.0
O1140 O 0.50592 0.92466 0.55371 0.0
O1141 O 0.49894 0.92556 0.46619 0.0
O1142 O 0.50836 0.08897 0.55506 0.0
O1143 O 0.51407 0.08955 0.46727 0.0
O1144 O 0.42755 0.05736 0.51109 0.0
O1145 O 0.42156 0.96692 0.512 0.0
O1146 O 0.59213 0.04763 0.51099 0.0
O1147 O 0.58604 0.95715 0.50943 0.0
O1148 O 0.54998 0.99744 0.42878 0.0
O1149 O 0.46275 0.01757 0.42929 0.0
O1150 O 0.55083 0.99857 0.59261 0.0
O1151 O 0.46378 0.01552 0.59312 0.0
O1152 O 0.55578 0.08674 0.51449 0.0
O1153 O 0.46826 0.09196 0.50991 0.0
O1154 O 0.54537 0.92253 0.50679 0.0
O1155 O 0.45796 0.92774 0.51405 0.0
O1156 O 0.50101 0.96283 0.42786 0.0
O1157 O 0.51196 0.05278 0.42846 0.0
O1158 O 0.50249 0.96122 0.59257 0.0
O1159 O 0.51169 0.05167 0.59328 0.0
O1160 O 0.42603 0.01923 0.55525 0.0
O1161 O 0.42479 0.01626 0.46716 0.0
O1162 O 0.58834 0.99592 0.55438 0.0
O1163 O 0.58835 0.99816 0.46621 0.0
C1164 C 0.15551 0.11675 0.4891 0.0
C1165 C 0.14749 0.14012 0.4692 0.0
H1166 H 0.14058 0.07872 0.51472 0.0
C1167 C 0.11745 0.14253 0.45956 0.0
H1168 H 0.17829 0.1146 0.49752 0.0
C1169 C 0.09575 0.12267 0.47035 0.0
C1170 C 0.10379 0.09966 0.49048 0.0
H1171 H 0.11062 0.15991 0.44386 0.0
H1172 H 0.07276 0.12498 0.46245 0.0
C1173 C 0.13389 0.09649 0.49938 0.0
C1174 C 0.87562 0.11409 0.45083 0.0
C1175 C 0.8775 0.14468 0.45868 0.0
H1176 H 0.89226 0.06952 0.45826 0.0
C1177 C 0.89892 0.15369 0.48026 0.0
H1178 H 0.85974 0.10641 0.43401 0.0
C1179 C 0.91777 0.13259 0.49384 0.0
C1180 C 0.91508 0.10203 0.48665 0.0
H1181 H 0.90055 0.1769 0.48749 0.0
H1182 H 0.93413 0.14012 0.51029 0.0
C1183 C 0.89403 0.09293 0.46492 0.0
C1184 C 0.89459 0.86173 0.53386 0.0
C1185 C 0.87002 0.87054 0.55187 0.0
H1186 H 0.93396 0.8755 0.50981 0.0
C1187 C 0.86684 0.90102 0.55974 0.0
H1188 H 0.89736 0.83858 0.52669 0.0
C1189 C 0.88732 0.9223 0.54916 0.0
C1190 C 0.91163 0.91341 0.53098 0.0
H1191 H 0.8484 0.9085 0.57387 0.0
H1192 H 0.88437 0.94562 0.55563 0.0
C1193 C 0.91534 0.88292 0.52375 0.0
C1194 C 0.11499 0.85921 0.47889 0.0
C1195 C 0.13617 0.86821 0.45701 0.0
H1196 H 0.08015 0.8728 0.5094 0.0
C1197 C 0.13782 0.89877 0.44898 0.0
H1198 H 0.11352 0.83601 0.48624 0.0
C1199 C 0.11956 0.91992 0.46328 0.0
C1200 C 0.09885 0.91086 0.48539 0.0
H1201 H 0.15347 0.90645 0.43192 0.0
H1202 H 0.12123 0.94331 0.45652 0.0
C1203 C 0.09627 0.88031 0.49268 0.0
C1204 C 0.45163 0.11544 0.14587 0.0
C1205 C 0.46019 0.1458 0.14342 0.0
H1206 H 0.45648 0.0708 0.12857 0.0
C1207 C 0.48003 0.15437 0.1202 0.0
H1208 H 0.43608 0.10814 0.16318 0.0
C1209 C 0.49137 0.13302 0.10021 0.0
C1210 C 0.48359 0.10264 0.10341 0.0
H1211 H 0.48773 0.17739 0.11804 0.0
H1212 H 0.5067 0.14021 0.08263 0.0
C1213 C 0.46347 0.09402 0.12622 0.0
C1214 C 0.87477 0.56881 0.11803 0.0
C1215 C 0.87647 0.56042 0.14849 0.0
H1216 H 0.89179 0.56225 0.07351 0.0
C1217 C 0.89812 0.53897 0.15737 0.0
H1218 H 0.85868 0.58554 0.1105 0.0
C1219 C 0.91727 0.52588 0.13623 0.0
C1220 C 0.91471 0.53352 0.10574 0.0
H1221 H 0.89963 0.53138 0.1805 0.0
H1222 H 0.93366 0.50937 0.14364 0.0
C1223 C 0.89353 0.55528 0.09682 0.0
C1224 C 0.5359 0.86242 0.12119 0.0
C1225 C 0.55591 0.87165 0.14397 0.0
H1226 H 0.50811 0.87565 0.08413 0.0
C1227 C 0.56331 0.9023 0.14638 0.0
H1228 H 0.52903 0.83913 0.11912 0.0
C1229 C 0.55035 0.9233 0.12699 0.0
C1230 C 0.5302 0.914 0.10452 0.0
H1231 H 0.57891 0.91012 0.16339 0.0
H1232 H 0.55659 0.94674 0.1292 0.0
C1233 C 0.52342 0.88336 0.10147 0.0
C1234 C 0.11773 0.4799 0.15671 0.0
C1235 C 0.14117 0.46038 0.14795 0.0
H1236 H 0.07974 0.50615 0.14282 0.0
C1237 C 0.14364 0.45198 0.11756 0.0
H1238 H 0.11554 0.48746 0.17978 0.0
C1239 C 0.12375 0.46362 0.09628 0.0
C1240 C 0.10067 0.48339 0.10506 0.0
H1241 H 0.16115 0.43668 0.11012 0.0
H1242 H 0.12618 0.45677 0.07302 0.0
C1243 C 0.09749 0.49106 0.13549 0.0
C1244 C 0.45482 0.89979 0.87503 0.0
C1245 C 0.46342 0.86942 0.87731 0.0
H1246 H 0.45994 0.94443 0.89217 0.0
C1247 C 0.48404 0.86084 0.89983 0.0
H1248 H 0.43867 0.90708 0.85826 0.0
C1249 C 0.49592 0.88219 0.91947 0.0
C1250 C 0.4879 0.91255 0.91653 0.0
H1251 H 0.49177 0.83779 0.9018 0.0
H1252 H 0.51168 0.87501 0.93666 0.0
C1253 C 0.46717 0.9212 0.89427 0.0
C1254 C 0.1119 0.44974 0.87454 0.0
C1255 C 0.14255 0.45723 0.87685 0.0
H1256 H 0.06745 0.45646 0.89174 0.0
C1257 C 0.15175 0.47741 0.89949 0.0
H1258 H 0.10409 0.43401 0.85763 0.0
C1259 C 0.13079 0.48997 0.91917 0.0
C1260 C 0.10016 0.48308 0.91621 0.0
H1261 H 0.17504 0.48435 0.90148 0.0
H1262 H 0.13849 0.50541 0.9364 0.0
C1263 C 0.09088 0.46278 0.89387 0.0
C1264 C 0.56507 0.11341 0.87603 0.0
C1265 C 0.55736 0.14403 0.87809 0.0
H1266 H 0.55793 0.06892 0.8929 0.0
C1267 C 0.53619 0.15318 0.8999 0.0
H1268 H 0.58154 0.10565 0.85978 0.0
C1269 C 0.52292 0.13218 0.91904 0.0
C1270 C 0.53006 0.10158 0.91632 0.0
H1271 H 0.52908 0.17644 0.90166 0.0
H1272 H 0.50678 0.13983 0.93568 0.0
C1273 C 0.55134 0.09235 0.89479 0.0
C1274 C 0.89877 0.56242 0.87461 0.0
C1275 C 0.86849 0.55355 0.87703 0.0
H1276 H 0.94344 0.55811 0.89199 0.0
C1277 C 0.8601 0.53361 0.90022 0.0
H1278 H 0.90592 0.57807 0.85732 0.0
C1279 C 0.88154 0.52254 0.92026 0.0
C1280 C 0.91185 0.53069 0.91713 0.0
H1281 H 0.83715 0.52567 0.90236 0.0
H1282 H 0.87449 0.50715 0.93784 0.0
C1283 C 0.92029 0.55085 0.8943 0.0
C1284 C 0.65559 0.61674 0.98906 0.0
C1285 C 0.64754 0.64012 0.96917 0.0
H1286 H 0.64071 0.57871 0.01469 0.0
C1287 C 0.61749 0.6425 0.95955 0.0
H1288 H 0.67838 0.6146 0.99747 0.0
C1289 C 0.59581 0.62262 0.97035 0.0
C1290 C 0.60388 0.59962 0.99048 0.0
H1291 H 0.61063 0.65987 0.94386 0.0
H1292 H 0.57282 0.62493 0.96248 0.0
C1293 C 0.63399 0.59647 0.99935 0.0
C1294 C 0.39901 0.65367 0.98043 0.0
C1295 C 0.37758 0.64467 0.95886 0.0
H1296 H 0.43425 0.64008 0.01042 0.0
C1297 C 0.37572 0.61409 0.95097 0.0
H1298 H 0.40063 0.67688 0.98769 0.0
C1299 C 0.39414 0.59292 0.96503 0.0
C1300 C 0.41521 0.60201 0.98676 0.0
H1301 H 0.35983 0.60642 0.93416 0.0
H1302 H 0.39238 0.56952 0.95835 0.0
C1303 C 0.41788 0.63257 0.99398 0.0
C1304 C 0.39459 0.36171 0.03381 0.0
C1305 C 0.37001 0.37055 0.05179 0.0
H1306 H 0.43401 0.37546 0.00981 0.0
C1307 C 0.36684 0.40103 0.05966 0.0
H1308 H 0.39735 0.33857 0.02664 0.0
C1309 C 0.38735 0.42229 0.04912 0.0
C1310 C 0.41168 0.41339 0.03097 0.0
H1311 H 0.34838 0.40852 0.07377 0.0
H1312 H 0.38441 0.44562 0.05558 0.0
C1313 C 0.41537 0.38289 0.02373 0.0
C1314 C 0.61507 0.35918 0.97872 0.0
C1315 C 0.63621 0.36821 0.95682 0.0
H1316 H 0.58028 0.37274 0.0093 0.0
C1317 C 0.63787 0.39878 0.94884 0.0
H1318 H 0.6136 0.33597 0.98604 0.0
C1319 C 0.61964 0.41992 0.96319 0.0
C1320 C 0.59895 0.41083 0.98532 0.0
H1321 H 0.65349 0.40648 0.93176 0.0
H1322 H 0.6213 0.44332 0.95647 0.0
C1323 C 0.59638 0.38027 0.99257 0.0
C1324 C 0.98011 0.6543 0.62025 0.0
C1325 C 0.96028 0.64572 0.64347 0.0
H1326 H 1.00678 0.64014 0.58267 0.0
C1327 C 0.95176 0.61536 0.64594 0.0
H1328 H 0.9878 0.67732 0.61807 0.0
C1329 C 0.9636 0.59394 0.6263 0.0
C1330 C 0.98371 0.60256 0.60348 0.0
H1331 H 0.93621 0.60806 0.66326 0.0
H1332 H 0.95663 0.57071 0.62867 0.0
C1333 C 0.99146 0.63295 0.60026 0.0
C1334 C 0.3982 0.03898 0.65737 0.0
C1335 C 0.37655 0.06043 0.64847 0.0
H1336 H 0.43375 0.00938 0.64367 0.0
C1337 C 0.37486 0.06881 0.61801 0.0
H1338 H 0.39969 0.0314 0.6805 0.0
C1339 C 0.39364 0.05528 0.59682 0.0
C1340 C 0.41482 0.03353 0.60576 0.0
H1341 H 0.35878 0.08554 0.61046 0.0
H1342 H 0.39191 0.06224 0.5735 0.0
C1343 C 0.41736 0.02589 0.63624 0.0
C1344 C 0.03621 0.3623 0.6211 0.0
C1345 C 0.05625 0.37152 0.64385 0.0
H1346 H 0.00833 0.37553 0.58409 0.0
C1347 C 0.06367 0.40218 0.64624 0.0
H1348 H 0.02932 0.33901 0.61904 0.0
C1349 C 0.05066 0.42318 0.62688 0.0
C1350 C 0.03046 0.41388 0.60445 0.0
H1351 H 0.07929 0.41 0.66323 0.0
H1352 H 0.0569 0.44662 0.62908 0.0
C1353 C 0.02368 0.38325 0.6014 0.0
C1354 C 0.64365 0.9518 0.61763 0.0
C1355 C 0.64119 0.96021 0.64802 0.0
H1356 H 0.62621 0.95663 0.57309 0.0
C1357 C 0.61778 0.97978 0.65677 0.0
H1358 H 0.66113 0.93646 0.6102 0.0
C1359 C 0.59759 0.99099 0.63555 0.0
C1360 C 0.60075 0.98332 0.60512 0.0
H1361 H 0.61561 0.98735 0.67985 0.0
H1362 H 0.57986 1.00612 0.64288 0.0
C1363 C 0.6238 0.96349 0.59635 0.0
C1364 C 0.95499 0.39976 0.37501 0.0
C1365 C 0.9636 0.36939 0.37729 0.0
H1366 H 0.96008 0.44439 0.39218 0.0
C1367 C 0.9842 0.36081 0.39983 0.0
H1368 H 0.93886 0.40705 0.35823 0.0
C1369 C 0.99604 0.38215 0.41949 0.0
C1370 C 0.98802 0.41251 0.41655 0.0
H1371 H 0.99193 0.33776 0.40181 0.0
H1372 H 0.0118 0.37497 0.4367 0.0
C1373 C 0.96732 0.42117 0.39428 0.0
C1374 C 0.61199 0.94954 0.37465 0.0
C1375 C 0.64264 0.95704 0.37693 0.0
H1376 H 0.56755 0.95627 0.39188 0.0
C1377 C 0.65186 0.97725 0.39953 0.0
H1378 H 0.60417 0.93379 0.35777 0.0
C1379 C 0.63091 0.98983 0.41921 0.0
C1380 C 0.60028 0.98294 0.41628 0.0
H1381 H 0.67514 0.9842 0.4015 0.0
H1382 H 0.63862 1.0053 0.43642 0.0
C1383 C 0.59099 0.9626 0.39398 0.0
C1384 C 0.03626 0.65313 0.39995 0.0
C1385 C 0.05741 0.64399 0.37812 0.0
H1386 H 1.00686 0.63978 0.43574 0.0
C1387 C 0.06513 0.61336 0.37606 0.0
H1388 H 0.02914 0.67639 0.40171 0.0
C1389 C 0.05141 0.5923 0.39482 0.0
C1390 C 0.03014 0.60153 0.41637 0.0
H1391 H 0.08159 0.60561 0.3598 0.0
H1392 H 0.058 0.56887 0.39292 0.0
C1393 C 0.023 0.63213 0.41909 0.0
C1394 C 0.39885 0.06217 0.37459 0.0
C1395 C 0.36858 0.05329 0.37703 0.0
H1396 H 0.44353 0.05792 0.39196 0.0
C1397 C 0.36021 0.03337 0.40024 0.0
H1398 H 0.40599 0.0778 0.35728 0.0
C1399 C 0.38166 0.02234 0.42029 0.0
C1400 C 0.41196 0.03051 0.41714 0.0
H1401 H 0.33726 0.02542 0.4024 0.0
H1402 H 0.37462 1.00696 0.43789 0.0
C1403 C 0.42038 0.05064 0.39429 0.0
C1404 C 0.01304 0.15096 0.38897 0.0
C1405 C 0.00936 0.1406 0.35915 0.0
H1406 H 0.01537 0.13969 0.43598 0.0
C1407 C 1.00563 0.10955 0.35452 0.0
H1408 H 0.01553 0.17478 0.39354 0.0
C1409 C 1.00537 0.08948 0.37885 0.0
C1410 C 0.00873 0.09977 0.40873 0.0
H1411 H 1.00301 0.10064 0.33197 0.0
H1412 H 1.00235 0.06577 0.37405 0.0
C1413 C 0.01267 0.13084 0.41343 0.0
C1414 C 0.89959 1.00671 0.35817 0.0
C1415 C 0.86848 0.00867 0.36357 0.0
H1416 H 0.94383 1.00431 0.37657 0.0
C1417 C 0.85855 0.01 0.39377 0.0
H1418 H 0.90822 1.006 0.33537 0.0
C1419 C 0.87918 0.0091 0.41782 0.0
C1420 C 0.91031 1.00693 0.4123 0.0
H1421 H 0.83473 0.01111 0.39891 0.0
H1422 H 0.87071 0.0101 0.44067 0.0
C1423 C 0.9201 1.00587 0.38205 0.0
C1424 C 0.99998 0.89927 0.35802 0.0
C1425 C 1.00088 0.86815 0.36351 0.0
H1426 H 0.99938 0.94361 0.37635 0.0
C1427 C 1.00122 0.85822 0.39372 0.0
H1428 H 0.99932 0.90781 0.33518 0.0
C1429 C 1.00125 0.8789 0.41771 0.0
C1430 C 1.00088 0.91008 0.41212 0.0
H1431 H 1.00232 0.83441 0.39889 0.0
H1432 H 1.00206 0.87044 0.44057 0.0
C1433 C 0.99992 0.91985 0.38187 0.0
C1434 C 0.15151 0.99903 0.38898 0.0
C1435 C 0.14114 1.00127 0.35903 0.0
H1436 H 0.14019 0.99829 0.43601 0.0
C1437 C 0.10999 1.00406 0.35418 0.0
H1438 H 0.17538 0.99732 0.39368 0.0
C1439 C 0.08984 1.00473 0.37845 0.0
C1440 C 0.10015 1.00281 0.40845 0.0
H1441 H 0.1011 1.0056 0.33152 0.0
H1442 H 0.06605 1.00698 0.37353 0.0
C1443 C 0.13132 0.99986 0.41335 0.0
C1444 C 0.01521 0.86206 0.62973 0.0
C1445 C 0.01328 0.87237 0.65974 0.0
H1446 H 0.01555 0.87345 0.5827 0.0
C1447 C 0.01067 0.90352 0.66463 0.0
H1448 H 0.01677 0.83819 0.62497 0.0
C1449 C 0.00984 0.92371 0.64039 0.0
C1450 C 0.01144 0.91347 0.61033 0.0
H1451 H 0.00941 0.9124 0.68731 0.0
H1452 H 0.0078 0.94749 0.64539 0.0
C1453 C 0.01426 0.8823 0.60538 0.0
C1454 C 0.11787 0.99444 0.65881 0.0
C1455 C 0.1449 0.01048 0.65568 0.0
H1456 H 0.07671 0.98028 0.63792 0.0
C1457 C 0.1522 0.02257 0.62725 0.0
H1458 H 0.11163 0.98493 0.6804 0.0
C1459 C 0.13251 0.01948 0.60272 0.0
C1460 C 0.10475 1.00479 0.60624 0.0
H1461 H 0.17301 0.0349 0.62413 0.0
H1462 H 0.13844 0.02976 0.58139 0.0
C1463 C 0.09787 0.99192 0.63447 0.0
C1464 C 0.00822 0.11403 0.66177 0.0
C1465 C 1.00598 0.14514 0.65649 0.0
H1466 H 0.01085 0.06983 0.64322 0.0
C1467 C 1.00458 0.1551 0.6263 0.0
H1468 H 0.009 0.10536 0.68456 0.0
C1469 C 1.0056 0.13453 0.60219 0.0
C1470 C 0.00801 0.10339 0.60758 0.0
H1471 H 1.00328 0.17892 0.62122 0.0
H1472 H 1.00459 0.14307 0.57937 0.0
C1473 C 0.00918 0.09356 0.63781 0.0
C1474 C 0.90349 0.02102 0.66365 0.0
C1475 C 0.87498 0.00784 0.66037 0.0
H1476 H 0.94535 0.03251 0.64241 0.0
C1477 C 0.86595 0.99815 0.63157 0.0
H1478 H 0.91103 0.02861 0.68555 0.0
C1479 C 0.88528 1.00087 0.6067 0.0
C1480 C 0.91444 0.01264 0.61019 0.0
H1481 H 0.84401 0.98798 0.6284 0.0
H1482 H 0.87781 0.99264 0.58502 0.0
C1483 C 0.92312 0.0231 0.63891 0.0
C1484 C 0.38601 0.01664 0.15258 0.0
C1485 C 0.35727 1.00676 0.14353 0.0
H1486 H 0.43254 0.02238 0.14074 0.0
C1487 C 0.3541 0.99338 0.11511 0.0
H1488 H 0.38909 0.0269 0.1745 0.0
C1489 C 0.37884 0.99139 0.09553 0.0
C1490 C 0.40746 1.00214 0.10418 0.0
H1491 H 0.33225 0.98561 0.10759 0.0
H1492 H 0.37542 0.98185 0.07334 0.0
C1493 C 0.4109 0.014 0.13329 0.0
C1494 C 0.01556 0.35508 0.11694 0.0
C1495 C 0.99858 0.35706 0.14353 0.0
H1496 H 0.03046 0.37737 0.0768 0.0
C1497 C 0.98511 0.38486 0.15095 0.0
H1498 H 0.0262 0.33404 0.11065 0.0
C1499 C 0.98793 0.40991 0.13186 0.0
C1500 C 1.00379 0.40755 0.10459 0.0
H1501 H 0.97214 0.38716 0.17149 0.0
H1502 H 0.97679 0.43076 0.13793 0.0
C1503 C 0.01786 0.37992 0.09755 0.0
C1504 C 0.65796 0.02253 0.11784 0.0
C1505 C 0.6542 0.00943 0.14632 0.0
H1506 H 0.63743 0.03392 0.07567 0.0
C1507 C 0.62521 1.00007 0.15512 0.0
H1508 H 0.68004 0.02986 0.1105 0.0
C1509 C 0.60061 1.00288 0.13548 0.0
C1510 C 0.60464 0.01434 0.10626 0.0
H1511 H 0.62171 0.98997 0.17706 0.0
H1512 H 0.57876 0.99488 0.14274 0.0
C1513 C 0.63353 0.02469 0.09792 0.0
C1514 C 0.99804 0.65716 0.11984 0.0
C1515 C 0.01526 0.65477 0.14621 0.0
H1516 H 0.98301 0.63556 0.0794 0.0
C1517 C 0.029 0.62693 0.15298 0.0
H1518 H 0.98721 0.67825 0.11405 0.0
C1519 C 0.02622 0.60226 0.13344 0.0
C1520 C 0.01016 0.60506 0.10636 0.0
H1521 H 0.0422 0.62435 0.17333 0.0
H1522 H 0.03758 0.58138 0.13899 0.0
C1523 C 0.99579 0.6327 0.09999 0.0
C1524 C 0.3901 1.00471 0.86256 0.0
C1525 C 0.35995 1.0065 0.8726 0.0
H1526 H 0.43704 1.00384 0.87452 0.0
C1527 C 0.3547 0.00853 0.90373 0.0
H1528 H 0.39513 1.00356 0.83873 0.0
C1529 C 0.37869 0.00891 0.92417 0.0
C1530 C 0.40888 0.00735 0.91424 0.0
H1531 H 0.33193 0.00966 0.91242 0.0
H1532 H 0.37337 0.01055 0.94791 0.0
C1533 C 0.41423 1.00519 0.88309 0.0
C1534 C 0.98892 0.35641 0.90248 0.0
C1535 C 1.00293 0.35996 0.87439 0.0
H1536 H 0.97668 0.37702 0.94441 0.0
C1537 C 0.01312 0.3888 0.86603 0.0
H1538 H 0.98093 0.33446 0.90952 0.0
C1539 C 0.01018 0.41339 0.88569 0.0
C1540 C 0.99773 0.40956 0.91455 0.0
H1541 H 0.02391 0.39219 0.84441 0.0
H1542 H 0.01882 0.43508 0.87872 0.0
C1543 C 0.98663 0.38083 0.92245 0.0
C1544 C 0.66177 1.0049 0.9065 0.0
C1545 C 0.65707 0.00849 0.87543 0.0
H1546 H 0.64226 1.00143 0.95032 0.0
C1547 C 0.62714 0.01127 0.86505 0.0
H1548 H 0.68437 1.00291 0.91544 0.0
C1549 C 0.60267 0.01039 0.88518 0.0
C1550 C 0.60745 1.00687 0.91629 0.0
H1551 H 0.62252 0.01362 0.84122 0.0
H1552 H 0.58004 0.01263 0.87635 0.0
C1553 C 0.63742 1.00418 0.92658 0.0
C1554 C 0.99911 0.62787 0.86791 0.0
C1555 C 0.01013 0.6564 0.87628 0.0
H1556 H 0.9925 0.58165 0.88039 0.0
C1557 C 0.02468 0.65939 0.90415 0.0
H1558 H 0.98794 0.62488 0.84644 0.0
C1559 C 0.02675 0.63475 0.92388 0.0
C1560 C 0.0149 0.60636 0.91593 0.0
H1561 H 0.03335 0.68107 0.91118 0.0
H1562 H 0.03719 0.6381 0.94566 0.0
C1563 C 1.0018 0.60308 0.88732 0.0
C1564 C 0.14416 0.38099 0.02094 0.0
C1565 C 0.13471 0.35251 0.01081 0.0
H1566 H 0.13313 0.4276 0.02703 0.0
C1567 C 0.10604 0.34981 0.99782 0.0
H1568 H 0.16626 0.38372 0.0309 0.0
C1569 C 0.08672 0.37486 0.99621 0.0
C1570 C 0.09591 0.40331 0.00697 0.0
H1571 H 0.09821 0.32814 0.98985 0.0
H1572 H 0.06444 0.37183 0.98677 0.0
C1573 C 0.12517 0.40614 0.0187 0.0
C1574 C 0.12227 0.65215 0.02664 0.0
C1575 C 0.14798 0.64985 0.00838 0.0
H1576 H 0.08194 0.63086 0.04247 0.0
C1577 C 0.15394 0.62215 0.99398 0.0
H1578 H 0.11704 0.67311 0.03798 0.0
C1579 C 0.13412 0.59768 0.99694 0.0
C1580 C 0.10756 0.60054 0.01389 0.0
H1581 H 0.17375 0.6196 0.97995 0.0
H1582 H 0.13888 0.57705 0.98481 0.0
C1583 C 0.10216 0.62792 0.0291 0.0
C1584 C 0.38585 0.15163 1.00108 0.0
C1585 C 0.35596 0.14108 1.0036 0.0
H1586 H 0.43301 0.14063 1.00023 0.0
C1587 C 0.3514 0.10994 1.00674 0.0
H1588 H 0.39035 0.1755 0.99909 0.0
C1589 C 0.37586 0.08999 0.00751 0.0
C1590 C 0.4058 0.10046 1.00531 0.0
H1591 H 0.32883 0.10089 0.00846 0.0
H1592 H 0.37109 0.06621 0.01 0.0
C1593 C 0.41042 0.13161 1.00196 0.0
C1594 C 0.85922 0.39292 0.99495 0.0
C1595 C 0.86546 0.36496 0.00871 0.0
H1596 H 0.87411 0.43817 0.98632 0.0
C1597 C 0.89146 0.3623 0.02646 0.0
H1598 H 0.83918 0.39571 0.98132 0.0
C1599 C 0.9116 0.38648 0.02899 0.0
C1600 C 0.90593 0.41412 0.01435 0.0
H1601 H 0.89689 0.34112 0.03729 0.0
H1602 H 0.93206 0.3833 0.0419 0.0
C1603 C 0.87907 0.41732 0.99799 0.0
C1604 C 0.66064 0.90257 0.02067 0.0
C1605 C 0.65879 0.87605 1.0036 0.0
H1606 H 0.63812 0.94246 0.03598 0.0
C1607 C 0.63096 0.86859 0.99026 0.0
H1608 H 0.68168 0.90893 0.03122 0.0
C1609 C 0.6058 0.88752 0.99334 0.0
C1610 C 0.60799 0.91469 0.00937 0.0
H1611 H 0.62871 0.84809 0.97725 0.0
H1612 H 0.58494 0.88136 0.9823 0.0
C1613 C 0.63565 0.9218 0.02326 0.0
C1614 C 0.90853 0.66582 1.00647 0.0
C1615 C 0.87757 0.66186 0.01176 0.0
H1616 H 0.95189 0.64525 1.00201 0.0
C1617 C 0.86687 0.63235 0.01661 0.0
H1618 H 0.91764 0.68813 1.0028 0.0
C1619 C 0.88653 0.60755 0.01602 0.0
C1620 C 0.91752 0.61153 0.01078 0.0
H1621 H 0.8431 0.6283 0.02027 0.0
H1622 H 0.87737 0.58526 0.01973 0.0
C1623 C 0.92821 0.64108 1.00612 0.0
C1624 C 0.39162 0.85882 0.01556 0.0
C1625 C 0.36131 0.86853 0.0149 0.0
H1626 H 0.43841 0.87129 0.01517 0.0
C1627 C 0.35564 0.89965 0.01421 0.0
H1628 H 0.39697 0.83503 0.01567 0.0
C1629 C 0.37938 0.92039 0.01377 0.0
C1630 C 0.40972 0.91079 0.01392 0.0
H1631 H 0.33274 0.9081 0.01407 0.0
H1632 H 0.37372 0.94412 0.01317 0.0
C1633 C 0.41549 0.87965 0.01505 0.0
C1634 C 0.6584 0.1154 0.01555 0.0
C1635 C 0.65278 0.14652 0.01551 0.0
H1636 H 0.64025 0.07097 0.01506 0.0
C1637 C 0.6225 0.15633 0.01544 0.0
H1638 H 0.68128 0.10691 0.01598 0.0
C1639 C 0.5986 0.13555 0.01491 0.0
C1640 C 0.60432 0.10439 0.01447 0.0
H1641 H 0.61721 0.18013 0.01498 0.0
H1642 H 0.57569 0.14395 0.01443 0.0
C1643 C 0.63464 0.09471 0.0151 0.0
C1644 C 0.50579 0.6096 0.85463 0.0
C1645 C 0.50945 0.64066 0.85929 0.0
H1646 H 0.50259 0.5658 0.87413 0.0
C1647 C 0.51306 0.65101 0.88913 0.0
H1648 H 0.50323 0.6007 0.83208 0.0
C1649 C 0.5127 0.63087 0.91357 0.0
C1650 C 0.50884 0.5998 0.90884 0.0
H1651 H 0.51548 0.67483 0.89372 0.0
H1652 H 0.51535 0.63971 0.93613 0.0
C1653 C 0.50555 0.58952 0.87895 0.0
C1654 C 0.35865 0.50997 0.89384 0.0
C1655 C 0.36858 0.50864 0.86364 0.0
H1656 H 0.37082 0.51008 0.94074 0.0
C1657 C 0.39969 0.50668 0.85824 0.0
H1658 H 0.33483 0.51109 0.89898 0.0
C1659 C 0.42021 0.50584 0.88212 0.0
C1660 C 0.41041 0.50691 0.91236 0.0
H1661 H 0.40831 0.50596 0.83543 0.0
H1662 H 0.44393 0.50428 0.87663 0.0
C1663 C 0.37928 0.50908 0.91788 0.0
C1664 C 0.50015 0.39931 0.858 0.0
C1665 C 0.50099 0.36819 0.86346 0.0
H1666 H 0.4996 0.44364 0.87637 0.0
C1667 C 0.50128 0.35823 0.89367 0.0
H1668 H 0.49953 0.40787 0.83516 0.0
C1669 C 0.50131 0.3789 0.91767 0.0
C1670 C 0.501 0.41008 0.91211 0.0
H1671 H 0.50233 0.33442 0.89881 0.0
H1672 H 0.50208 0.37041 0.94053 0.0
C1673 C 0.5001 0.41988 0.88186 0.0
C1674 C 0.6101 0.50396 0.85423 0.0
C1675 C 0.64125 0.50122 0.85908 0.0
H1676 H 0.56616 0.50685 0.87358 0.0
C1677 C 0.65163 0.49902 0.88903 0.0
H1678 H 0.6012 0.50547 0.83158 0.0
C1679 C 0.63144 0.49986 0.9134 0.0
C1680 C 0.60027 0.50276 0.90851 0.0
H1681 H 0.6755 0.49735 0.89373 0.0
H1682 H 0.64032 0.49832 0.93606 0.0
C1683 C 0.58995 0.50464 0.87851 0.0
C1684 C 0.51533 0.36203 0.12981 0.0
C1685 C 0.51335 0.37235 0.15981 0.0
H1686 H 0.51569 0.3734 0.08277 0.0
C1687 C 0.51072 0.4035 0.16469 0.0
H1688 H 0.51691 0.33816 0.12505 0.0
C1689 C 0.5099 0.42369 0.14043 0.0
C1690 C 0.51154 0.41343 0.11038 0.0
H1691 H 0.50943 0.41239 0.18736 0.0
H1692 H 0.50783 0.44747 0.14543 0.0
C1693 C 0.51438 0.38226 0.10545 0.0
C1694 C 0.65226 0.52249 0.12735 0.0
C1695 C 0.64495 0.51038 0.15577 0.0
H1696 H 0.63853 0.52969 0.08149 0.0
C1697 C 0.61791 0.49434 0.15888 0.0
H1698 H 0.67307 0.53482 0.12425 0.0
C1699 C 0.59794 0.49182 0.13453 0.0
C1700 C 0.60483 0.5047 0.1063 0.0
H1701 H 0.61167 0.48482 0.18046 0.0
H1702 H 0.57677 0.48018 0.13796 0.0
C1703 C 0.63259 0.5194 0.1028 0.0
C1704 C 0.50849 0.6139 0.16187 0.0
C1705 C 0.50615 0.645 0.15661 0.0
H1706 H 0.51119 0.56971 0.14329 0.0
C1707 C 0.50466 0.65497 0.12643 0.0
H1708 H 0.50935 0.60522 0.18465 0.0
C1709 C 0.50569 0.63441 0.1023 0.0
C1710 C 0.50818 0.60328 0.10767 0.0
H1711 H 0.50329 0.67879 0.12135 0.0
H1712 H 0.5046 0.64296 0.07949 0.0
C1713 C 0.50945 0.59343 0.1379 0.0
C1714 C 0.3661 0.49809 0.13162 0.0
C1715 C 0.37514 0.50775 0.16043 0.0
H1716 H 0.37794 0.49261 0.08507 0.0
C1717 C 0.40366 0.52089 0.16372 0.0
H1718 H 0.34414 0.48796 0.12845 0.0
C1719 C 0.4233 0.52297 0.13898 0.0
C1720 C 0.41459 0.51255 0.11025 0.0
H1721 H 0.41121 0.52846 0.18563 0.0
H1722 H 0.44554 0.53235 0.14249 0.0
C1723 C 0.38543 0.50081 0.10676 0.0
C1724 C 0.8542 0.49333 0.61516 0.0
C1725 C 0.85737 0.5067 0.64358 0.0
H1726 H 0.87551 0.4818 0.57339 0.0
C1727 C 0.88611 0.51656 0.65264 0.0
H1728 H 0.83234 0.48556 0.60763 0.0
C1729 C 0.91101 0.51392 0.63335 0.0
C1730 C 0.90756 0.50207 0.60423 0.0
H1731 H 0.88919 0.52682 0.67455 0.0
H1732 H 0.93264 0.52229 0.6408 0.0
C1733 C 0.87894 0.49132 0.59558 0.0
C1734 C 0.51567 0.85509 0.61708 0.0
C1735 C 0.49867 0.85708 0.64366 0.0
H1736 H 0.5306 0.87737 0.57694 0.0
C1737 C 0.48519 0.88489 0.65105 0.0
H1738 H 0.52632 0.83405 0.6108 0.0
C1739 C 0.48802 0.90992 0.63195 0.0
C1740 C 0.5039 0.90755 0.6047 0.0
H1741 H 0.4722 0.88719 0.67159 0.0
H1742 H 0.47687 0.93077 0.638 0.0
C1743 C 0.51798 0.87992 0.59768 0.0
C1744 C 0.15813 0.52248 0.61782 0.0
C1745 C 0.1544 0.50937 0.6463 0.0
H1746 H 0.13756 0.53387 0.57567 0.0
C1747 C 0.12541 0.49999 0.65511 0.0
H1748 H 0.1802 0.52983 0.61046 0.0
C1749 C 0.1008 0.5028 0.63549 0.0
C1750 C 0.1048 0.51426 0.60627 0.0
H1751 H 0.12194 0.48988 0.67705 0.0
H1752 H 0.07896 0.49478 0.64277 0.0
C1753 C 0.13368 0.52463 0.59791 0.0
C1754 C 0.52911 0.12696 0.65295 0.0
C1755 C 0.51537 0.15479 0.64617 0.0
H1756 H 0.53769 0.0814 0.63899 0.0
C1757 C 0.49816 0.15717 0.6198 0.0
H1758 H 0.54231 0.12439 0.67331 0.0
C1759 C 0.4959 0.1327 0.59996 0.0
C1760 C 0.51027 0.10507 0.60635 0.0
H1761 H 0.48732 0.17826 0.61399 0.0
H1762 H 0.48313 0.13555 0.57937 0.0
C1763 C 0.52633 0.10228 0.63343 0.0
C1764 C 0.89019 0.50468 0.36262 0.0
C1765 C 0.86004 0.50646 0.37266 0.0
H1766 H 0.93713 0.50381 0.37457 0.0
C1767 C 0.85479 0.50847 0.40378 0.0
H1768 H 0.89522 0.50353 0.33878 0.0
C1769 C 0.87879 0.50885 0.42422 0.0
C1770 C 0.90897 0.50731 0.41429 0.0
H1771 H 0.83202 0.50959 0.41248 0.0
H1772 H 0.87347 0.51048 0.44797 0.0
C1773 C 0.91433 0.50516 0.38314 0.0
C1774 C 0.51324 0.88864 0.36616 0.0
C1775 C 0.50304 0.85981 0.37453 0.0
H1776 H 0.51894 0.93493 0.3788 0.0
C1777 C 0.48904 0.85628 0.40264 0.0
H1778 H 0.52403 0.89202 0.34453 0.0
C1779 C 0.48676 0.88072 0.42259 0.0
C1780 C 0.49786 0.90944 0.41466 0.0
H1781 H 0.48105 0.83434 0.40969 0.0
H1782 H 0.47681 0.87693 0.44454 0.0
C1783 C 0.5103 0.91325 0.38579 0.0
C1784 C 0.12722 0.51127 0.36507 0.0
C1785 C 0.15716 0.50845 0.37544 0.0
H1786 H 0.08013 0.51264 0.37638 0.0
C1787 C 0.16186 0.50482 0.40652 0.0
H1788 H 0.12261 0.51364 0.34125 0.0
C1789 C 0.13751 0.50409 0.42659 0.0
C1790 C 0.10754 0.50682 0.41632 0.0
H1791 H 0.18446 0.50281 0.41545 0.0
H1792 H 0.14236 0.50132 0.45033 0.0
C1793 C 0.10276 0.51037 0.38521 0.0
C1794 C 0.49918 0.12775 0.3679 0.0
C1795 C 0.51021 0.15628 0.37625 0.0
H1796 H 0.49257 0.08154 0.3804 0.0
C1797 C 0.52478 0.15928 0.40411 0.0
H1798 H 0.48799 0.12476 0.34644 0.0
C1799 C 0.52686 0.13465 0.42385 0.0
C1800 C 0.515 0.10626 0.41592 0.0
H1801 H 0.53346 0.18096 0.41113 0.0
H1802 H 0.53732 0.13801 0.44562 0.0
C1803 C 0.50188 0.10296 0.38732 0.0
C1804 C 0.64429 0.88094 0.52099 0.0
C1805 C 0.63483 0.85246 0.51088 0.0
H1806 H 0.63327 0.92755 0.52707 0.0
C1807 C 0.60615 0.84975 0.49791 0.0
H1808 H 0.6664 0.88367 0.53094 0.0
C1809 C 0.58684 0.8748 0.4963 0.0
C1810 C 0.59603 0.90325 0.50705 0.0
H1811 H 0.59831 0.82808 0.48995 0.0
H1812 H 0.56455 0.87177 0.48688 0.0
C1813 C 0.6253 0.90609 0.51876 0.0
C1814 C 0.65404 0.12213 0.494 0.0
C1815 C 0.64808 0.14981 0.50842 0.0
H1816 H 0.63898 0.07703 0.48482 0.0
C1817 C 0.62238 0.1521 0.5267 0.0
H1818 H 0.67384 0.11959 0.47995 0.0
C1819 C 0.60228 0.12787 0.52915 0.0
C1820 C 0.60768 0.1005 0.51392 0.0
H1821 H 0.61716 0.17305 0.53806 0.0
H1822 H 0.58207 0.13079 0.54254 0.0
C1823 C 0.63423 0.09765 0.49696 0.0
C1824 C 0.88596 0.65156 0.50119 0.0
C1825 C 0.85607 0.64101 0.50371 0.0
H1826 H 0.93312 0.64056 0.50033 0.0
C1827 C 0.85151 0.60988 0.50683 0.0
H1828 H 0.89046 0.67544 0.49921 0.0
C1829 C 0.87596 0.58992 0.50759 0.0
C1830 C 0.90591 0.60039 0.50539 0.0
H1831 H 0.82894 0.60082 0.50854 0.0
H1832 H 0.8712 0.56614 0.51007 0.0
C1833 C 0.91053 0.63154 0.50206 0.0
C1834 C 0.35933 0.89287 0.49505 0.0
C1835 C 0.36558 0.86491 0.50879 0.0
H1836 H 0.37422 0.93813 0.48641 0.0
C1837 C 0.39159 0.86224 0.52653 0.0
H1838 H 0.33929 0.89567 0.48143 0.0
C1839 C 0.41173 0.88642 0.52905 0.0
C1840 C 0.40605 0.91407 0.51443 0.0
H1841 H 0.39702 0.84106 0.53735 0.0
H1842 H 0.4322 0.88323 0.54195 0.0
C1843 C 0.37919 0.91727 0.49808 0.0
C1844 C 0.16071 0.40249 0.5207 0.0
C1845 C 0.15887 0.37598 0.5036 0.0
H1846 H 0.13819 0.44236 0.53604 0.0
C1847 C 0.13105 0.36854 0.49024 0.0
H1848 H 0.18175 0.40883 0.53127 0.0
C1849 C 0.10589 0.38747 0.49331 0.0
C1850 C 0.10807 0.41462 0.50937 0.0
H1851 H 0.1288 0.34805 0.4772 0.0
H1852 H 0.08504 0.38133 0.48226 0.0
C1853 C 0.13573 0.42171 0.5233 0.0
C1854 C 0.40861 0.16575 0.50644 0.0
C1855 C 0.37766 0.16178 0.51173 0.0
H1856 H 0.45198 0.1452 0.50199 0.0
C1857 C 0.36696 0.13227 0.51658 0.0
H1858 H 0.41772 0.18806 0.50276 0.0
C1859 C 0.38663 0.10747 0.516 0.0
C1860 C 0.41763 0.11146 0.51076 0.0
H1861 H 0.34319 0.12821 0.52024 0.0
H1862 H 0.37748 0.08519 0.51971 0.0
C1863 C 0.4283 0.14102 0.5061 0.0
C1864 C 0.85579 0.39956 0.51435 0.0
C1865 C 0.86146 0.36844 0.51495 0.0
H1866 H 0.87386 0.44403 0.51339 0.0
C1867 C 0.89177 0.35873 0.51552 0.0
H1868 H 0.83289 0.408 0.51428 0.0
C1869 C 0.91564 0.37957 0.51503 0.0
C1870 C 0.90987 0.41072 0.51398 0.0
H1871 H 0.89714 0.33494 0.51557 0.0
H1872 H 0.93857 0.37122 0.51508 0.0
C1873 C 0.87952 0.42031 0.51392 0.0
C1874 C 0.15852 0.61532 0.51559 0.0
C1875 C 0.1529 0.64644 0.5156 0.0
H1876 H 0.14037 0.5709 0.51504 0.0
C1877 C 0.12262 0.65625 0.51557 0.0
H1878 H 0.1814 0.60683 0.51599 0.0
C1879 C 0.09872 0.63548 0.51503 0.0
C1880 C 0.10444 0.60432 0.51454 0.0
H1881 H 0.11734 0.68006 0.51516 0.0
H1882 H 0.07581 0.64389 0.51458 0.0
C1883 C 0.13475 0.59464 0.51512 0.0
loop_
_geom_bond_atom_site_label_1
_geom_bond_atom_site_label_2
_geom_bond_distance
_geom_bond_site_symmetry_2
_ccdc_geom_bond_type
C0 C1 1.383 1_455 S
C0 H13 0.948 . S
C0 C35 1.382 . S
C1 C0 1.383 1_655 S
C1 C2 1.378 . S
C2 C1 1.378 . S
C2 C3 1.378 . S
C2 H14 0.952 . S
C3 C2 1.378 . S
C3 H15 0.950 . S
C3 C34 1.383 . S
H4 C23 0.947 . S
H5 C24 0.954 . S
H6 C26 0.953 . S
H7 C27 0.945 . S
H8 C29 0.950 1_455 S
H9 C30 0.949 . S
H10 C32 0.950 . S
H11 C33 0.948 . S
H12 C35 0.951 . S
H13 C0 0.948 . S
H14 C2 0.952 . S
H15 C3 0.950 . S
N16 C19 1.382 . S
N16 C21 1.363 . S
N17 C19 1.371 . S
N17 C20 1.372 . S
N18 C20 1.361 . S
N18 C21 1.377 . S
C19 N16 1.382 . S
C19 N17 1.371 . S
C19 C22 1.480 . S
C20 N17 1.372 . S
C20 N18 1.361 . S
C20 C28 1.457 . S
C21 N16 1.363 . S
C21 N18 1.377 . S
C21 C34 1.479 . S
C22 C19 1.480 . S
C22 C23 1.383 . S
C22 C27 1.385 . S
C23 H4 0.947 . S
C23 C22 1.383 . S
C23 C24 1.385 1_655 S
C24 H5 0.954 . S
C24 C23 1.385 1_455 S
C24 C25 1.381 1_455 S
C25 C24 1.381 1_655 S
C25 C26 1.377 . S
C26 H6 0.953 . S
C26 C25 1.377 . S
C26 C27 1.369 . S
C27 H7 0.945 . S
C27 C22 1.385 . S
C27 C26 1.369 . S
C28 C20 1.457 . S
C28 C29 1.375 . S
C28 C33 1.364 . S
C29 H8 0.950 1_655 S
C29 C28 1.375 . S
C29 C30 1.388 1_655 S
C30 H9 0.949 . S
C30 C29 1.388 1_455 S
C30 C31 1.387 1_455 S
C31 C30 1.387 1_655 S
C31 C32 1.372 . S
C32 H10 0.950 . S
C32 C31 1.372 . S
C32 C33 1.379 . S
C33 H11 0.948 . S
C33 C28 1.364 . S
C33 C32 1.379 . S
C34 C3 1.383 . S
C34 C21 1.479 . S
C34 C35 1.398 1_655 S
C35 C0 1.382 . S
C35 H12 0.951 . S
C35 C34 1.398 1_455 S
C36 C37 1.384 1_545 S
C36 H49 0.948 . S
C36 C71 1.382 1_545 S
C37 C36 1.384 1_565 S
C37 C38 1.378 . S
C38 C37 1.378 . S
C38 C39 1.378 . S
C38 H50 0.952 . S
C39 C38 1.378 . S
C39 H51 0.950 . S
C39 C70 1.383 . S
H40 C59 0.947 . S
H41 C60 0.952 . S
H42 C62 0.953 . S
H43 C63 0.945 . S
H44 C65 0.949 1_545 S
H45 C66 0.949 . S
H46 C68 0.950 . S
H47 C69 0.948 . S
H48 C71 0.951 1_545 S
H49 C36 0.948 . S
H50 C38 0.952 . S
H51 C39 0.950 . S
N52 C55 1.382 . S
N52 C57 1.363 . S
N53 C55 1.371 . S
N53 C56 1.372 . S
N54 C56 1.361 . S
N54 C57 1.377 . S
C55 N52 1.382 . S
C55 N53 1.371 . S
C55 C58 1.480 . S
C56 N53 1.372 . S
C56 N54 1.361 . S
C56 C64 1.457 . S
C57 N52 1.363 . S
C57 N54 1.377 . S
C57 C70 1.479 . S
C58 C55 1.480 . S
C58 C59 1.383 . S
C58 C63 1.385 . S
C59 H40 0.947 . S
C59 C58 1.383 . S
C59 C60 1.386 1_565 S
C60 H41 0.952 . S
C60 C59 1.386 1_545 S
C60 C61 1.381 1_545 S
C61 C60 1.381 1_565 S
C61 C62 1.377 . S
C62 H42 0.953 . S
C62 C61 1.377 . S
C62 C63 1.369 . S
C63 H43 0.945 . S
C63 C58 1.385 . S
C63 C62 1.369 . S
C64 C56 1.457 . S
C64 C65 1.377 . S
C64 C69 1.364 . S
C65 H44 0.949 1_565 S
C65 C64 1.377 . S
C65 C66 1.387 1_565 S
C66 H45 0.949 . S
C66 C65 1.387 1_545 S
C66 C67 1.387 1_545 S
C67 C66 1.387 1_565 S
C67 C68 1.372 . S
C68 H46 0.950 . S
C68 C67 1.372 . S
C68 C69 1.379 . S
C69 H47 0.948 . S
C69 C64 1.364 . S
C69 C68 1.379 . S
C70 C39 1.383 . S
C70 C57 1.479 . S
C70 C71 1.398 . S
C71 C36 1.382 1_565 S
C71 H48 0.951 1_565 S
C71 C70 1.398 . S
C72 C73 1.384 . S
C72 H85 0.947 1_455 S
C72 C107 1.382 . S
C73 C72 1.384 . S
C73 C74 1.378 . S
C74 C73 1.378 . S
C74 C75 1.378 . S
C74 H86 0.952 . S
C75 C74 1.378 . S
C75 H87 0.950 . S
C75 C106 1.383 . S
H76 C95 0.947 . S
H77 C96 0.948 . S
H78 C98 0.953 . S
H79 C99 0.945 . S
H80 C101 0.952 1_655 S
H81 C102 0.953 . S
H82 C104 0.950 . S
H83 C105 0.948 . S
H84 C107 0.949 1_655 S
H85 C72 0.947 1_655 S
H86 C74 0.952 . S
H87 C75 0.950 . S
N88 C91 1.382 . S
N88 C93 1.363 . S
N89 C91 1.371 . S
N89 C92 1.372 . S
N90 C92 1.361 . S
N90 C93 1.377 . S
C91 N88 1.382 . S
C91 N89 1.371 . S
C91 C94 1.480 . S
C92 N89 1.372 . S
C92 N90 1.361 . S
C92 C100 1.457 . S
C93 N88 1.363 . S
C93 N90 1.377 . S
C93 C106 1.479 . S
C94 C91 1.480 . S
C94 C95 1.383 . S
C94 C99 1.385 . S
C95 H76 0.947 . S
C95 C94 1.383 . S
C95 C96 1.387 1_455 S
C96 H77 0.948 . S
C96 C95 1.387 1_655 S
C96 C97 1.383 1_655 S
C97 C96 1.383 1_455 S
C97 C98 1.377 . S
C98 H78 0.953 . S
C98 C97 1.377 . S
C98 C99 1.369 . S
C99 H79 0.945 . S
C99 C94 1.385 . S
C99 C98 1.369 . S
C100 C92 1.457 . S
C100 C101 1.372 . S
C100 C105 1.364 . S
C101 H80 0.952 1_455 S
C101 C100 1.372 . S
C101 C102 1.387 1_455 S
C102 H81 0.953 . S
C102 C101 1.387 1_655 S
C102 C103 1.384 1_655 S
C103 C102 1.384 1_455 S
C103 C104 1.372 . S
C104 H82 0.950 . S
C104 C103 1.372 . S
C104 C105 1.379 . S
C105 H83 0.948 . S
C105 C100 1.364 . S
C105 C104 1.379 . S
C106 C75 1.383 . S
C106 C93 1.479 . S
C106 C107 1.401 . S
C107 C72 1.382 . S
C107 H84 0.949 1_455 S
C107 C106 1.401 . S
C108 C109 1.384 1_565 S
C108 H121 0.947 . S
C108 C143 1.382 1_565 S
C109 C108 1.384 1_545 S
C109 C110 1.378 . S
C110 C109 1.378 . S
C110 C111 1.378 . S
C110 H122 0.952 . S
C111 C110 1.378 . S
C111 H123 0.950 . S
C111 C142 1.383 . S
H112 C131 0.947 . S
H113 C132 0.949 . S
H114 C134 0.953 . S
H115 C135 0.945 . S
H116 C137 0.947 1_565 S
H117 C138 0.954 . S
H118 C140 0.950 . S
H119 C141 0.948 . S
H120 C143 0.950 1_565 S
H121 C108 0.947 . S
H122 C110 0.952 . S
H123 C111 0.950 . S
N124 C127 1.382 . S
N124 C129 1.363 . S
N125 C127 1.371 . S
N125 C128 1.372 . S
N126 C128 1.361 . S
N126 C129 1.377 . S
C127 N124 1.382 . S
C127 N125 1.371 . S
C127 C130 1.480 . S
C128 N125 1.372 . S
C128 N126 1.361 . S
C128 C136 1.457 . S
C129 N124 1.363 . S
C129 N126 1.377 . S
C129 C142 1.479 . S
C130 C127 1.480 . S
C130 C131 1.383 . S
C130 C135 1.385 . S
C131 H112 0.947 . S
C131 C130 1.383 . S
C131 C132 1.387 1_545 S
C132 H113 0.949 . S
C132 C131 1.387 1_565 S
C132 C133 1.382 1_565 S
C133 C132 1.382 1_545 S
C133 C134 1.377 . S
C134 H114 0.953 . S
C134 C133 1.377 . S
C134 C135 1.369 . S
C135 H115 0.945 . S
C135 C130 1.385 . S
C135 C134 1.369 . S
C136 C128 1.457 . S
C136 C137 1.379 . S
C136 C141 1.364 . S
C137 H116 0.947 1_545 S
C137 C136 1.379 . S
C137 C138 1.387 1_545 S
C138 H117 0.954 . S
C138 C137 1.387 1_565 S
C138 C139 1.384 1_565 S
C139 C138 1.384 1_545 S
C139 C140 1.372 . S
C140 H118 0.950 . S
C140 C139 1.372 . S
C140 C141 1.379 . S
C141 H119 0.948 . S
C141 C136 1.364 . S
C141 C140 1.379 . S
C142 C111 1.383 . S
C142 C129 1.479 . S
C142 C143 1.399 . S
C143 C108 1.382 1_545 S
C143 H120 0.950 1_545 S
C143 C142 1.399 . S
C144 C145 1.383 1_455 S
C144 H157 0.949 . S
C144 C179 1.382 . S
C145 C144 1.383 1_655 S
C145 C146 1.378 . S
C146 C145 1.378 . S
C146 C147 1.378 . S
C146 H158 0.952 . S
C147 C146 1.378 . S
C147 H159 0.950 . S
C147 C178 1.383 . S
H148 C167 0.947 . S
H149 C168 0.954 . S
H150 C170 0.953 . S
H151 C171 0.945 . S
H152 C173 0.950 1_455 S
H153 C174 0.949 . S
H154 C176 0.950 . S
H155 C177 0.948 . S
H156 C179 0.951 . S
H157 C144 0.949 . S
H158 C146 0.952 . S
H159 C147 0.950 . S
N160 C163 1.382 . S
N160 C165 1.363 . S
N161 C163 1.371 . S
N161 C164 1.372 . S
N162 C164 1.361 . S
N162 C165 1.377 . S
C163 N160 1.382 . S
C163 N161 1.371 . S
C163 C166 1.480 . S
C164 N161 1.372 . S
C164 N162 1.361 . S
C164 C172 1.457 . S
C165 N160 1.363 . S
C165 N162 1.377 . S
C165 C178 1.479 . S
C166 C163 1.480 . S
C166 C167 1.383 . S
C166 C171 1.385 . S
C167 H148 0.947 . S
C167 C166 1.383 . S
C167 C168 1.385 1_655 S
C168 H149 0.954 . S
C168 C167 1.385 1_455 S
C168 C169 1.381 1_455 S
C169 C168 1.381 1_655 S
C169 C170 1.377 . S
C170 H150 0.953 . S
C170 C169 1.377 . S
C170 C171 1.369 . S
C171 H151 0.945 . S
C171 C166 1.385 . S
C171 C170 1.369 . S
C172 C164 1.457 . S
C172 C173 1.375 . S
C172 C177 1.364 . S
C173 H152 0.950 1_655 S
C173 C172 1.375 . S
C173 C174 1.388 1_655 S
C174 H153 0.949 . S
C174 C173 1.388 1_455 S
C174 C175 1.387 1_455 S
C175 C174 1.387 1_655 S
C175 C176 1.372 . S
C176 H154 0.950 . S
C176 C175 1.372 . S
C176 C177 1.379 . S
C177 H155 0.948 . S
C177 C172 1.364 . S
C177 C176 1.379 . S
C178 C147 1.383 . S
C178 C165 1.479 . S
C178 C179 1.398 1_655 S
C179 C144 1.382 . S
C179 H156 0.951 . S
C179 C178 1.398 1_455 S
C180 C181 1.384 . S
C180 H193 0.948 1_545 S
C180 C215 1.382 . S
C181 C180 1.384 . S
C181 C182 1.378 . S
C182 C181 1.378 . S
C182 C183 1.378 . S
C182 H194 0.952 . S
C183 C182 1.378 . S
C183 H195 0.950 . S
C183 C214 1.383 . S
H184 C203 0.947 . S
H185 C204 0.950 . S
H186 C206 0.953 . S
H187 C207 0.945 . S
H188 C209 0.947 1_565 S
H189 C210 0.954 . S
H190 C212 0.950 . S
H191 C213 0.948 . S
H192 C215 0.950 1_565 S
H193 C180 0.948 1_565 S
H194 C182 0.952 . S
H195 C183 0.950 . S
N196 C199 1.382 . S
N196 C201 1.363 . S
N197 C199 1.371 . S
N197 C200 1.372 . S
N198 C200 1.361 . S
N198 C201 1.377 . S
C199 N196 1.382 . S
C199 N197 1.371 . S
C199 C202 1.480 . S
C200 N197 1.372 . S
C200 N198 1.361 . S
C200 C208 1.457 . S
C201 N196 1.363 . S
C201 N198 1.377 . S
C201 C214 1.479 . S
C202 C199 1.480 . S
C202 C203 1.383 . S
C202 C207 1.385 . S
C203 H184 0.947 . S
C203 C202 1.383 . S
C203 C204 1.387 1_545 S
C204 H185 0.950 . S
C204 C203 1.387 1_565 S
C204 C205 1.382 1_565 S
C205 C204 1.382 1_545 S
C205 C206 1.377 . S
C206 H186 0.953 . S
C206 C205 1.377 . S
C206 C207 1.369 . S
C207 H187 0.945 . S
C207 C202 1.385 . S
C207 C206 1.369 . S
C208 C200 1.457 . S
C208 C209 1.379 . S
C208 C213 1.364 . S
C209 H188 0.947 1_545 S
C209 C208 1.379 . S
C209 C210 1.387 1_545 S
C210 H189 0.954 . S
C210 C209 1.387 1_565 S
C210 C211 1.383 1_565 S
C211 C210 1.383 1_545 S
C211 C212 1.372 . S
C212 H190 0.950 . S
C212 C211 1.372 . S
C212 C213 1.379 . S
C213 H191 0.948 . S
C213 C208 1.364 . S
C213 C212 1.379 . S
C214 C183 1.383 . S
C214 C201 1.479 . S
C214 C215 1.400 . S
C215 C180 1.382 . S
C215 H192 0.950 1_545 S
C215 C214 1.400 . S
C216 C217 1.384 . S
C216 H229 0.947 1_455 S
C216 C251 1.382 . S
C217 C216 1.384 . S
C217 C218 1.378 . S
C218 C217 1.378 . S
C218 C219 1.378 . S
C218 H230 0.952 . S
C219 C218 1.378 . S
C219 H231 0.950 . S
C219 C250 1.383 . S
H220 C239 0.947 . S
H221 C240 0.948 . S
H222 C242 0.953 . S
H223 C243 0.945 . S
H224 C245 0.946 1_655 S
H225 C246 0.953 . S
H226 C248 0.950 . S
H227 C249 0.948 . S
H228 C251 0.949 1_655 S
H229 C216 0.947 1_655 S
H230 C218 0.952 . S
H231 C219 0.950 . S
N232 C235 1.382 . S
N232 C237 1.363 . S
N233 C235 1.371 . S
N233 C236 1.372 . S
N234 C236 1.361 . S
N234 C237 1.377 . S
C235 N232 1.382 . S
C235 N233 1.371 . S
C235 C238 1.480 . S
C236 N233 1.372 . S
C236 N234 1.361 . S
C236 C244 1.457 . S
C237 N232 1.363 . S
C237 N234 1.377 . S
C237 C250 1.479 . S
C238 C235 1.480 . S
C238 C239 1.383 . S
C238 C243 1.385 . S
C239 H220 0.947 . S
C239 C238 1.383 . S
C239 C240 1.387 1_455 S
C240 H221 0.948 . S
C240 C239 1.387 1_655 S
C240 C241 1.383 1_655 S
C241 C240 1.383 1_455 S
C241 C242 1.377 . S
C242 H222 0.953 . S
C242 C241 1.377 . S
C242 C243 1.369 . S
C243 H223 0.945 . S
C243 C238 1.385 . S
C243 C242 1.369 . S
C244 C236 1.457 . S
C244 C245 1.381 . S
C244 C249 1.364 . S
C245 H224 0.946 1_455 S
C245 C244 1.381 . S
C245 C246 1.387 1_455 S
C246 H225 0.953 . S
C246 C245 1.387 1_655 S
C246 C247 1.384 1_655 S
C247 C246 1.384 1_455 S
C247 C248 1.372 . S
C248 H226 0.950 . S
C248 C247 1.372 . S
C248 C249 1.379 . S
C249 H227 0.948 . S
C249 C244 1.364 . S
C249 C248 1.379 . S
C250 C219 1.383 . S
C250 C237 1.479 . S
C250 C251 1.401 . S
C251 C216 1.382 . S
C251 H228 0.949 1_455 S
C251 C250 1.401 . S
C252 C253 1.384 1_545 S
C252 H265 0.948 . S
C252 C287 1.382 1_545 S
C253 C252 1.384 1_565 S
C253 C254 1.378 . S
C254 C253 1.378 . S
C254 C255 1.378 . S
C254 H266 0.952 . S
C255 C254 1.378 . S
C255 H267 0.950 . S
C255 C286 1.383 . S
H256 C275 0.947 . S
H257 C276 0.952 . S
H258 C278 0.953 . S
H259 C279 0.945 . S
H260 C281 0.949 1_545 S
H261 C282 0.949 . S
H262 C284 0.950 . S
H263 C285 0.948 . S
H264 C287 0.951 1_545 S
H265 C252 0.948 . S
H266 C254 0.952 . S
H267 C255 0.950 . S
N268 C271 1.382 . S
N268 C273 1.363 . S
N269 C271 1.371 . S
N269 C272 1.372 . S
N270 C272 1.361 . S
N270 C273 1.377 . S
C271 N268 1.382 . S
C271 N269 1.371 . S
C271 C274 1.480 . S
C272 N269 1.372 . S
C272 N270 1.361 . S
C272 C280 1.457 . S
C273 N268 1.363 . S
C273 N270 1.377 . S
C273 C286 1.479 . S
C274 C271 1.480 . S
C274 C275 1.383 . S
C274 C279 1.385 . S
C275 H256 0.947 . S
C275 C274 1.383 . S
C275 C276 1.386 1_565 S
C276 H257 0.952 . S
C276 C275 1.386 1_545 S
C276 C277 1.381 1_545 S
C277 C276 1.381 1_565 S
C277 C278 1.377 . S
C278 H258 0.953 . S
C278 C277 1.377 . S
C278 C279 1.369 . S
C279 H259 0.945 . S
C279 C274 1.385 . S
C279 C278 1.369 . S
C280 C272 1.457 . S
C280 C281 1.377 . S
C280 C285 1.364 . S
C281 H260 0.949 1_565 S
C281 C280 1.377 . S
C281 C282 1.387 1_565 S
C282 H261 0.949 . S
C282 C281 1.387 1_545 S
C282 C283 1.387 1_545 S
C283 C282 1.387 1_565 S
C283 C284 1.372 . S
C284 H262 0.950 . S
C284 C283 1.372 . S
C284 C285 1.379 . S
C285 H263 0.948 . S
C285 C280 1.364 . S
C285 C284 1.379 . S
C286 C255 1.383 . S
C286 C273 1.479 . S
C286 C287 1.398 . S
C287 C252 1.382 1_565 S
C287 H264 0.951 1_565 S
C287 C286 1.398 . S
C288 C289 1.385 . S
C288 H301 0.946 1_554 S
C288 C323 1.382 . S
C289 C288 1.385 . S
C289 C290 1.378 . S
C290 C289 1.378 . S
C290 C291 1.378 . S
C290 H302 0.952 . S
C291 C290 1.378 . S
C291 H303 0.950 . S
C291 C322 1.383 . S
H292 C311 0.947 . S
H293 C312 0.945 . S
H294 C314 0.953 . S
H295 C315 0.945 . S
H296 C317 0.952 1_556 S
H297 C318 0.951 . S
H298 C320 0.950 . S
H299 C321 0.948 . S
H300 C323 0.948 1_556 S
H301 C288 0.946 1_556 S
H302 C290 0.952 . S
H303 C291 0.950 . S
N304 C307 1.382 . S
N304 C309 1.363 . S
N305 C307 1.371 . S
N305 C308 1.372 . S
N306 C308 1.361 . S
N306 C309 1.377 . S
C307 N304 1.382 . S
C307 N305 1.371 . S
C307 C310 1.480 . S
C308 N305 1.372 . S
C308 N306 1.361 . S
C308 C316 1.457 . S
C309 N304 1.363 . S
C309 N306 1.377 . S
C309 C322 1.479 . S
C310 C307 1.480 . S
C310 C311 1.383 . S
C310 C315 1.385 . S
C311 H292 0.947 . S
C311 C310 1.383 . S
C311 C312 1.389 1_554 S
C312 H293 0.945 . S
C312 C311 1.389 1_556 S
C312 C313 1.384 1_556 S
C313 C312 1.384 1_554 S
C313 C314 1.377 . S
C314 H294 0.953 . S
C314 C313 1.377 . S
C314 C315 1.369 . S
C315 H295 0.945 . S
C315 C310 1.385 . S
C315 C314 1.369 . S
C316 C308 1.457 . S
C316 C317 1.372 . S
C316 C321 1.364 . S
C317 H296 0.952 1_554 S
C317 C316 1.372 . S
C317 C318 1.388 1_554 S
C318 H297 0.951 . S
C318 C317 1.388 1_556 S
C318 C319 1.385 1_556 S
C319 C318 1.385 1_554 S
C319 C320 1.372 . S
C320 H298 0.950 . S
C320 C319 1.372 . S
C320 C321 1.379 . S
C321 H299 0.948 . S
C321 C316 1.364 . S
C321 C320 1.379 . S
C322 C291 1.383 . S
C322 C309 1.479 . S
C322 C323 1.402 . S
C323 C288 1.382 . S
C323 H300 0.948 1_554 S
C323 C322 1.402 . S
C324 C325 1.383 1_554 S
C324 H337 0.950 . S
C324 C359 1.382 . S
C325 C324 1.383 1_556 S
C325 C326 1.378 . S
C326 C325 1.378 . S
C326 C327 1.378 . S
C326 H338 0.952 . S
C327 C326 1.378 . S
C327 H339 0.950 . S
C327 C358 1.383 . S
H328 C347 0.947 . S
H329 C348 0.946 . S
H330 C350 0.953 . S
H331 C351 0.945 . S
H332 C353 0.952 1_554 S
H333 C354 0.949 . S
H334 C356 0.950 . S
H335 C357 0.948 . S
H336 C359 0.952 . S
H337 C324 0.950 . S
H338 C326 0.952 . S
H339 C327 0.950 . S
N340 C343 1.382 . S
N340 C345 1.363 . S
N341 C343 1.371 . S
N341 C344 1.372 . S
N342 C344 1.361 . S
N342 C345 1.377 . S
C343 N340 1.382 . S
C343 N341 1.371 . S
C343 C346 1.480 . S
C344 N341 1.372 . S
C344 N342 1.361 . S
C344 C352 1.457 . S
C345 N340 1.363 . S
C345 N342 1.377 . S
C345 C358 1.479 . S
C346 C343 1.480 . S
C346 C347 1.383 . S
C346 C351 1.385 . S
C347 H328 0.947 . S
C347 C346 1.383 . S
C347 C348 1.388 1_556 S
C348 H329 0.946 . S
C348 C347 1.388 1_554 S
C348 C349 1.384 1_554 S
C349 C348 1.384 1_556 S
C349 C350 1.377 . S
C350 H330 0.953 . S
C350 C349 1.377 . S
C350 C351 1.369 . S
C351 H331 0.945 . S
C351 C346 1.385 . S
C351 C350 1.369 . S
C352 C344 1.457 . S
C352 C353 1.372 . S
C352 C357 1.364 . S
C353 H332 0.952 1_556 S
C353 C352 1.372 . S
C353 C354 1.388 1_556 S
C354 H333 0.949 . S
C354 C353 1.388 1_554 S
C354 C355 1.387 1_554 S
C355 C354 1.387 1_556 S
C355 C356 1.372 . S
C356 H334 0.950 . S
C356 C355 1.372 . S
C356 C357 1.379 . S
C357 H335 0.948 . S
C357 C352 1.364 . S
C357 C356 1.379 . S
C358 C327 1.383 . S
C358 C345 1.479 . S
C358 C359 1.397 1_556 S
C359 C324 1.382 . S
C359 H336 0.952 . S
C359 C358 1.397 1_554 S
C360 C361 1.383 1_554 S
C360 H373 0.950 . S
C360 C395 1.382 . S
C361 C360 1.383 1_556 S
C361 C362 1.378 . S
C362 C361 1.378 . S
C362 C363 1.378 . S
C362 H374 0.952 . S
C363 C362 1.378 . S
C363 H375 0.950 . S
C363 C394 1.383 . S
H364 C383 0.947 . S
H365 C384 0.946 . S
H366 C386 0.953 . S
H367 C387 0.945 . S
H368 C389 0.952 1_554 S
H369 C390 0.949 . S
H370 C392 0.950 . S
H371 C393 0.948 . S
H372 C395 0.952 . S
H373 C360 0.950 . S
H374 C362 0.952 . S
H375 C363 0.950 . S
N376 C379 1.382 . S
N376 C381 1.363 . S
N377 C379 1.371 . S
N377 C380 1.372 . S
N378 C380 1.361 . S
N378 C381 1.377 . S
C379 N376 1.382 . S
C379 N377 1.371 . S
C379 C382 1.480 . S
C380 N377 1.372 . S
C380 N378 1.361 . S
C380 C388 1.457 . S
C381 N376 1.363 . S
C381 N378 1.377 . S
C381 C394 1.479 . S
C382 C379 1.480 . S
C382 C383 1.383 . S
C382 C387 1.385 . S
C383 H364 0.947 . S
C383 C382 1.383 . S
C383 C384 1.388 1_556 S
C384 H365 0.946 . S
C384 C383 1.388 1_554 S
C384 C385 1.384 1_554 S
C385 C384 1.384 1_556 S
C385 C386 1.377 . S
C386 H366 0.953 . S
C386 C385 1.377 . S
C386 C387 1.369 . S
C387 H367 0.945 . S
C387 C382 1.385 . S
C387 C386 1.369 . S
C388 C380 1.457 . S
C388 C389 1.372 . S
C388 C393 1.364 . S
C389 H368 0.952 1_556 S
C389 C388 1.372 . S
C389 C390 1.388 1_556 S
C390 H369 0.949 . S
C390 C389 1.388 1_554 S
C390 C391 1.387 1_554 S
C391 C390 1.387 1_556 S
C391 C392 1.372 . S
C392 H370 0.950 . S
C392 C391 1.372 . S
C392 C393 1.379 . S
C393 H371 0.948 . S
C393 C388 1.364 . S
C393 C392 1.379 . S
C394 C363 1.383 . S
C394 C381 1.479 . S
C394 C395 1.397 1_556 S
C395 C360 1.382 . S
C395 H372 0.952 . S
C395 C394 1.397 1_554 S
C396 C397 1.382 1_554 S
C396 H409 0.950 . S
C396 C431 1.382 . S
C397 C396 1.382 1_556 S
C397 C398 1.378 . S
C398 C397 1.378 . S
C398 C399 1.378 . S
C398 H410 0.952 . S
C399 C398 1.378 . S
C399 H411 0.950 . S
C399 C430 1.383 . S
H400 C419 0.947 . S
H401 C420 0.946 . S
H402 C422 0.953 . S
H403 C423 0.945 . S
H404 C425 0.952 1_554 S
H405 C426 0.949 . S
H406 C428 0.950 . S
H407 C429 0.948 . S
H408 C431 0.953 . S
H409 C396 0.950 . S
H410 C398 0.952 . S
H411 C399 0.950 . S
N412 C415 1.382 . S
N412 C417 1.363 . S
N413 C415 1.371 . S
N413 C416 1.372 . S
N414 C416 1.361 . S
N414 C417 1.377 . S
C415 N412 1.382 . S
C415 N413 1.371 . S
C415 C418 1.480 . S
C416 N413 1.372 . S
C416 N414 1.361 . S
C416 C424 1.457 . S
C417 N412 1.363 . S
C417 N414 1.377 . S
C417 C430 1.479 . S
C418 C415 1.480 . S
C418 C419 1.383 . S
C418 C423 1.385 . S
C419 H400 0.947 . S
C419 C418 1.383 . S
C419 C420 1.388 1_556 S
C420 H401 0.946 . S
C420 C419 1.388 1_554 S
C420 C421 1.384 1_554 S
C421 C420 1.384 1_556 S
C421 C422 1.377 . S
C422 H402 0.953 . S
C422 C421 1.377 . S
C422 C423 1.369 . S
C423 H403 0.945 . S
C423 C418 1.385 . S
C423 C422 1.369 . S
C424 C416 1.457 . S
C424 C425 1.372 . S
C424 C429 1.364 . S
C425 H404 0.952 1_556 S
C425 C424 1.372 . S
C425 C426 1.388 1_556 S
C426 H405 0.949 . S
C426 C425 1.388 1_554 S
C426 C427 1.387 1_554 S
C427 C426 1.387 1_556 S
C427 C428 1.372 . S
C428 H406 0.950 . S
C428 C427 1.372 . S
C428 C429 1.379 . S
C429 H407 0.948 . S
C429 C424 1.364 . S
C429 C428 1.379 . S
C430 C399 1.383 . S
C430 C417 1.479 . S
C430 C431 1.397 1_556 S
C431 C396 1.382 . S
C431 H408 0.953 . S
C431 C430 1.397 1_554 S
C432 C433 1.384 . S
C432 H445 0.947 . S
C432 C467 1.382 . S
C433 C432 1.384 . S
C433 C434 1.378 . S
C434 C433 1.378 . S
C434 C435 1.378 . S
C434 H446 0.952 . S
C435 C434 1.378 . S
C435 H447 0.950 . S
C435 C466 1.383 . S
H436 C455 0.947 . S
H437 C456 0.946 . S
H438 C458 0.953 . S
H439 C459 0.945 . S
H440 C461 0.952 . S
H441 C462 0.949 . S
H442 C464 0.950 . S
H443 C465 0.948 . S
H444 C467 0.951 . S
H445 C432 0.947 . S
H446 C434 0.952 . S
H447 C435 0.950 . S
N448 C451 1.382 . S
N448 C453 1.363 . S
N449 C451 1.371 . S
N449 C452 1.372 . S
N450 C452 1.361 . S
N450 C453 1.377 . S
C451 N448 1.382 . S
C451 N449 1.371 . S
C451 C454 1.480 . S
C452 N449 1.372 . S
C452 N450 1.361 . S
C452 C460 1.457 . S
C453 N448 1.363 . S
C453 N450 1.377 . S
C453 C466 1.479 . S
C454 C451 1.480 . S
C454 C455 1.383 . S
C454 C459 1.385 . S
C455 H436 0.947 . S
C455 C454 1.383 . S
C455 C456 1.388 . S
C456 H437 0.946 . S
C456 C455 1.388 . S
C456 C457 1.384 . S
C457 C456 1.384 . S
C457 C458 1.377 . S
C458 H438 0.953 . S
C458 C457 1.377 . S
C458 C459 1.369 . S
C459 H439 0.945 . S
C459 C454 1.385 . S
C459 C458 1.369 . S
C460 C452 1.457 . S
C460 C461 1.372 . S
C460 C465 1.364 . S
C461 H440 0.952 . S
C461 C460 1.372 . S
C461 C462 1.389 . S
C462 H441 0.949 . S
C462 C461 1.389 . S
C462 C463 1.387 . S
C463 C462 1.387 . S
C463 C464 1.372 . S
C464 H442 0.950 . S
C464 C463 1.372 . S
C464 C465 1.379 . S
C465 H443 0.948 . S
C465 C460 1.364 . S
C465 C464 1.379 . S
C466 C435 1.383 . S
C466 C453 1.479 . S
C466 C467 1.398 . S
C467 C432 1.382 . S
C467 H444 0.951 . S
C467 C466 1.398 . S
C468 C469 1.384 . S
C468 H481 0.947 . S
C468 C503 1.382 . S
C469 C468 1.384 . S
C469 C470 1.378 . S
C470 C469 1.378 . S
C470 C471 1.378 . S
C470 H482 0.952 . S
C471 C470 1.378 . S
C471 H483 0.950 . S
C471 C502 1.383 . S
H472 C491 0.947 . S
H473 C492 0.946 . S
H474 C494 0.953 . S
H475 C495 0.945 . S
H476 C497 0.952 . S
H477 C498 0.949 . S
H478 C500 0.950 . S
H479 C501 0.948 . S
H480 C503 0.951 . S
H481 C468 0.947 . S
H482 C470 0.952 . S
H483 C471 0.950 . S
N484 C487 1.382 . S
N484 C489 1.363 . S
N485 C487 1.371 . S
N485 C488 1.372 . S
N486 C488 1.361 . S
N486 C489 1.377 . S
C487 N484 1.382 . S
C487 N485 1.371 . S
C487 C490 1.480 . S
C488 N485 1.372 . S
C488 N486 1.361 . S
C488 C496 1.457 . S
C489 N484 1.363 . S
C489 N486 1.377 . S
C489 C502 1.479 . S
C490 C487 1.480 . S
C490 C491 1.383 . S
C490 C495 1.385 . S
C491 H472 0.947 . S
C491 C490 1.383 . S
C491 C492 1.388 . S
C492 H473 0.946 . S
C492 C491 1.388 . S
C492 C493 1.384 . S
C493 C492 1.384 . S
C493 C494 1.377 . S
C494 H474 0.953 . S
C494 C493 1.377 . S
C494 C495 1.369 . S
C495 H475 0.945 . S
C495 C490 1.385 . S
C495 C494 1.369 . S
C496 C488 1.457 . S
C496 C497 1.372 . S
C496 C501 1.364 . S
C497 H476 0.952 . S
C497 C496 1.372 . S
C497 C498 1.389 . S
C498 H477 0.949 . S
C498 C497 1.389 . S
C498 C499 1.387 . S
C499 C498 1.387 . S
C499 C500 1.372 . S
C500 H478 0.950 . S
C500 C499 1.372 . S
C500 C501 1.379 . S
C501 H479 0.948 . S
C501 C496 1.364 . S
C501 C500 1.379 . S
C502 C471 1.383 . S
C502 C489 1.479 . S
C502 C503 1.398 . S
C503 C468 1.382 . S
C503 H480 0.951 . S
C503 C502 1.398 . S
C504 C505 1.384 . S
C504 H517 0.947 . S
C504 C539 1.382 . S
C505 C504 1.384 . S
C505 C506 1.378 . S
C506 C505 1.378 . S
C506 C507 1.378 . S
C506 H518 0.952 . S
C507 C506 1.378 . S
C507 H519 0.950 . S
C507 C538 1.383 . S
H508 C527 0.947 . S
H509 C528 0.946 . S
H510 C530 0.953 . S
H511 C531 0.945 . S
H512 C533 0.952 . S
H513 C534 0.949 . S
H514 C536 0.950 . S
H515 C537 0.948 . S
H516 C539 0.951 . S
H517 C504 0.947 . S
H518 C506 0.952 . S
H519 C507 0.950 . S
N520 C523 1.382 . S
N520 C525 1.363 . S
N521 C523 1.371 . S
N521 C524 1.372 . S
N522 C524 1.361 . S
N522 C525 1.377 . S
C523 N520 1.382 . S
C523 N521 1.371 . S
C523 C526 1.480 . S
C524 N521 1.372 . S
C524 N522 1.361 . S
C524 C532 1.457 . S
C525 N520 1.363 . S
C525 N522 1.377 . S
C525 C538 1.479 . S
C526 C523 1.480 . S
C526 C527 1.383 . S
C526 C531 1.385 . S
C527 H508 0.947 . S
C527 C526 1.383 . S
C527 C528 1.388 . S
C528 H509 0.946 . S
C528 C527 1.388 . S
C528 C529 1.384 . S
C529 C528 1.384 . S
C529 C530 1.377 . S
C530 H510 0.953 . S
C530 C529 1.377 . S
C530 C531 1.369 . S
C531 H511 0.945 . S
C531 C526 1.385 . S
C531 C530 1.369 . S
C532 C524 1.457 . S
C532 C533 1.372 . S
C532 C537 1.364 . S
C533 H512 0.952 . S
C533 C532 1.372 . S
C533 C534 1.389 . S
C534 H513 0.949 . S
C534 C533 1.389 . S
C534 C535 1.387 . S
C535 C534 1.387 . S
C535 C536 1.372 . S
C536 H514 0.950 . S
C536 C535 1.372 . S
C536 C537 1.379 . S
C537 H515 0.948 . S
C537 C532 1.364 . S
C537 C536 1.379 . S
C538 C507 1.383 . S
C538 C525 1.479 . S
C538 C539 1.398 . S
C539 C504 1.382 . S
C539 H516 0.951 . S
C539 C538 1.398 . S
C540 C541 1.384 . S
C540 H553 0.947 . S
C540 C575 1.382 . S
C541 C540 1.384 . S
C541 C542 1.378 . S
C542 C541 1.378 . S
C542 C543 1.378 . S
C542 H554 0.952 . S
C543 C542 1.378 . S
C543 H555 0.950 . S
C543 C574 1.383 . S
H544 C563 0.947 . S
H545 C564 0.946 . S
H546 C566 0.953 . S
H547 C567 0.945 . S
H548 C569 0.952 . S
H549 C570 0.949 . S
H550 C572 0.950 . S
H551 C573 0.948 . S
H552 C575 0.951 . S
H553 C540 0.947 . S
H554 C542 0.952 . S
H555 C543 0.950 . S
N556 C559 1.382 . S
N556 C561 1.363 . S
N557 C559 1.371 . S
N557 C560 1.372 . S
N558 C560 1.361 . S
N558 C561 1.377 . S
C559 N556 1.382 . S
C559 N557 1.371 . S
C559 C562 1.480 . S
C560 N557 1.372 . S
C560 N558 1.361 . S
C560 C568 1.457 . S
C561 N556 1.363 . S
C561 N558 1.377 . S
C561 C574 1.479 . S
C562 C559 1.480 . S
C562 C563 1.383 . S
C562 C567 1.385 . S
C563 H544 0.947 . S
C563 C562 1.383 . S
C563 C564 1.388 . S
C564 H545 0.946 . S
C564 C563 1.388 . S
C564 C565 1.384 . S
C565 C564 1.384 . S
C565 C566 1.377 . S
C566 H546 0.953 . S
C566 C565 1.377 . S
C566 C567 1.369 . S
C567 H547 0.945 . S
C567 C562 1.385 . S
C567 C566 1.369 . S
C568 C560 1.457 . S
C568 C569 1.372 . S
C568 C573 1.364 . S
C569 H548 0.952 . S
C569 C568 1.372 . S
C569 C570 1.389 . S
C570 H549 0.949 . S
C570 C569 1.389 . S
C570 C571 1.387 . S
C571 C570 1.387 . S
C571 C572 1.372 . S
C572 H550 0.950 . S
C572 C571 1.372 . S
C572 C573 1.379 . S
C573 H551 0.948 . S
C573 C568 1.364 . S
C573 C572 1.379 . S
C574 C543 1.383 . S
C574 C561 1.479 . S
C574 C575 1.398 . S
C575 C540 1.382 . S
C575 H552 0.951 . S
C575 C574 1.398 . S
C576 C577 1.384 . S
C576 H589 0.947 . S
C576 C611 1.382 . S
C577 C576 1.384 . S
C577 C578 1.378 . S
C578 C577 1.378 . S
C578 C579 1.378 . S
C578 H590 0.952 . S
C579 C578 1.378 . S
C579 H591 0.950 . S
C579 C610 1.383 . S
H580 C599 0.947 . S
H581 C600 0.946 . S
H582 C602 0.953 . S
H583 C603 0.945 . S
H584 C605 0.952 . S
H585 C606 0.949 . S
H586 C608 0.950 . S
H587 C609 0.948 . S
H588 C611 0.951 . S
H589 C576 0.947 . S
H590 C578 0.952 . S
H591 C579 0.950 . S
N592 C595 1.382 . S
N592 C597 1.363 . S
N593 C595 1.371 . S
N593 C596 1.372 . S
N594 C596 1.361 . S
N594 C597 1.377 . S
C595 N592 1.382 . S
C595 N593 1.371 . S
C595 C598 1.480 . S
C596 N593 1.372 . S
C596 N594 1.361 . S
C596 C604 1.457 . S
C597 N592 1.363 . S
C597 N594 1.377 . S
C597 C610 1.479 . S
C598 C595 1.480 . S
C598 C599 1.383 . S
C598 C603 1.385 . S
C599 H580 0.947 . S
C599 C598 1.383 . S
C599 C600 1.388 . S
C600 H581 0.946 . S
C600 C599 1.388 . S
C600 C601 1.384 . S
C601 C600 1.384 . S
C601 C602 1.377 . S
C602 H582 0.953 . S
C602 C601 1.377 . S
C602 C603 1.369 . S
C603 H583 0.945 . S
C603 C598 1.385 . S
C603 C602 1.369 . S
C604 C596 1.457 . S
C604 C605 1.372 . S
C604 C609 1.364 . S
C605 H584 0.952 . S
C605 C604 1.372 . S
C605 C606 1.389 . S
C606 H585 0.949 . S
C606 C605 1.389 . S
C606 C607 1.387 . S
C607 C606 1.387 . S
C607 C608 1.372 . S
C608 H586 0.950 . S
C608 C607 1.372 . S
C608 C609 1.379 . S
C609 H587 0.948 . S
C609 C604 1.364 . S
C609 C608 1.379 . S
C610 C579 1.383 . S
C610 C597 1.479 . S
C610 C611 1.398 . S
C611 C576 1.382 . S
C611 H588 0.951 . S
C611 C610 1.398 . S
C612 C613 1.384 . S
C612 H625 0.947 . S
C612 C647 1.382 . S
C613 C612 1.384 . S
C613 C614 1.378 . S
C614 C613 1.378 . S
C614 C615 1.378 . S
C614 H626 0.952 . S
C615 C614 1.378 . S
C615 H627 0.950 . S
C615 C646 1.383 . S
H616 C635 0.947 . S
H617 C636 0.946 . S
H618 C638 0.953 . S
H619 C639 0.945 . S
H620 C641 0.952 . S
H621 C642 0.949 . S
H622 C644 0.950 . S
H623 C645 0.948 . S
H624 C647 0.951 . S
H625 C612 0.947 . S
H626 C614 0.952 . S
H627 C615 0.950 . S
N628 C631 1.382 . S
N628 C633 1.363 . S
N629 C631 1.371 . S
N629 C632 1.372 . S
N630 C632 1.361 . S
N630 C633 1.377 . S
C631 N628 1.382 . S
C631 N629 1.371 . S
C631 C634 1.480 . S
C632 N629 1.372 . S
C632 N630 1.361 . S
C632 C640 1.457 . S
C633 N628 1.363 . S
C633 N630 1.377 . S
C633 C646 1.479 . S
C634 C631 1.480 . S
C634 C635 1.383 . S
C634 C639 1.385 . S
C635 H616 0.947 . S
C635 C634 1.383 . S
C635 C636 1.388 . S
C636 H617 0.946 . S
C636 C635 1.388 . S
C636 C637 1.384 . S
C637 C636 1.384 . S
C637 C638 1.377 . S
C638 H618 0.953 . S
C638 C637 1.377 . S
C638 C639 1.369 . S
C639 H619 0.945 . S
C639 C634 1.385 . S
C639 C638 1.369 . S
C640 C632 1.457 . S
C640 C641 1.372 . S
C640 C645 1.364 . S
C641 H620 0.952 . S
C641 C640 1.372 . S
C641 C642 1.389 . S
C642 H621 0.949 . S
C642 C641 1.389 . S
C642 C643 1.387 . S
C643 C642 1.387 . S
C643 C644 1.372 . S
C644 H622 0.950 . S
C644 C643 1.372 . S
C644 C645 1.379 . S
C645 H623 0.948 . S
C645 C640 1.364 . S
C645 C644 1.379 . S
C646 C615 1.383 . S
C646 C633 1.479 . S
C646 C647 1.398 . S
C647 C612 1.382 . S
C647 H624 0.951 . S
C647 C646 1.398 . S
C648 C649 1.384 . S
C648 H661 0.947 . S
C648 C683 1.382 . S
C649 C648 1.384 . S
C649 C650 1.378 . S
C650 C649 1.378 . S
C650 C651 1.378 . S
C650 H662 0.952 . S
C651 C650 1.378 . S
C651 H663 0.950 . S
C651 C682 1.383 . S
H652 C671 0.947 . S
H653 C672 0.946 . S
H654 C674 0.953 . S
H655 C675 0.945 . S
H656 C677 0.952 . S
H657 C678 0.949 . S
H658 C680 0.950 . S
H659 C681 0.948 . S
H660 C683 0.951 . S
H661 C648 0.947 . S
H662 C650 0.952 . S
H663 C651 0.950 . S
N664 C667 1.382 . S
N664 C669 1.363 . S
N665 C667 1.371 . S
N665 C668 1.372 . S
N666 C668 1.361 . S
N666 C669 1.377 . S
C667 N664 1.382 . S
C667 N665 1.371 . S
C667 C670 1.480 . S
C668 N665 1.372 . S
C668 N666 1.361 . S
C668 C676 1.457 . S
C669 N664 1.363 . S
C669 N666 1.377 . S
C669 C682 1.479 . S
C670 C667 1.480 . S
C670 C671 1.383 . S
C670 C675 1.385 . S
C671 H652 0.947 . S
C671 C670 1.383 . S
C671 C672 1.388 . S
C672 H653 0.946 . S
C672 C671 1.388 . S
C672 C673 1.384 . S
C673 C672 1.384 . S
C673 C674 1.377 . S
C674 H654 0.953 . S
C674 C673 1.377 . S
C674 C675 1.369 . S
C675 H655 0.945 . S
C675 C670 1.385 . S
C675 C674 1.369 . S
C676 C668 1.457 . S
C676 C677 1.372 . S
C676 C681 1.364 . S
C677 H656 0.952 . S
C677 C676 1.372 . S
C677 C678 1.389 . S
C678 H657 0.949 . S
C678 C677 1.389 . S
C678 C679 1.387 . S
C679 C678 1.387 . S
C679 C680 1.372 . S
C680 H658 0.950 . S
C680 C679 1.372 . S
C680 C681 1.379 . S
C681 H659 0.948 . S
C681 C676 1.364 . S
C681 C680 1.379 . S
C682 C651 1.383 . S
C682 C669 1.479 . S
C682 C683 1.398 . S
C683 C648 1.382 . S
C683 H660 0.951 . S
C683 C682 1.398 . S
C684 C685 1.384 . S
C684 H697 0.947 . S
C684 C719 1.382 . S
C685 C684 1.384 . S
C685 C686 1.378 . S
C686 C685 1.378 . S
C686 C687 1.378 . S
C686 H698 0.952 . S
C687 C686 1.378 . S
C687 H699 0.950 . S
C687 C718 1.383 . S
H688 C707 0.947 . S
H689 C708 0.946 . S
H690 C710 0.953 . S
H691 C711 0.945 . S
H692 C713 0.952 . S
H693 C714 0.949 . S
H694 C716 0.950 . S
H695 C717 0.948 . S
H696 C719 0.951 . S
H697 C684 0.947 . S
H698 C686 0.952 . S
H699 C687 0.950 . S
N700 C703 1.382 . S
N700 C705 1.363 . S
N701 C703 1.371 . S
N701 C704 1.372 . S
N702 C704 1.361 . S
N702 C705 1.377 . S
C703 N700 1.382 . S
C703 N701 1.371 . S
C703 C706 1.480 . S
C704 N701 1.372 . S
C704 N702 1.361 . S
C704 C712 1.457 . S
C705 N700 1.363 . S
C705 N702 1.377 . S
C705 C718 1.479 . S
C706 C703 1.480 . S
C706 C707 1.383 . S
C706 C711 1.385 . S
C707 H688 0.947 . S
C707 C706 1.383 . S
C707 C708 1.388 . S
C708 H689 0.946 . S
C708 C707 1.388 . S
C708 C709 1.384 . S
C709 C708 1.384 . S
C709 C710 1.377 . S
C710 H690 0.953 . S
C710 C709 1.377 . S
C710 C711 1.369 . S
C711 H691 0.945 . S
C711 C706 1.385 . S
C711 C710 1.369 . S
C712 C704 1.457 . S
C712 C713 1.372 . S
C712 C717 1.364 . S
C713 H692 0.952 . S
C713 C712 1.372 . S
C713 C714 1.389 . S
C714 H693 0.949 . S
C714 C713 1.389 . S
C714 C715 1.387 . S
C715 C714 1.387 . S
C715 C716 1.372 . S
C716 H694 0.950 . S
C716 C715 1.372 . S
C716 C717 1.379 . S
C717 H695 0.948 . S
C717 C712 1.364 . S
C717 C716 1.379 . S
C718 C687 1.383 . S
C718 C705 1.479 . S
C718 C719 1.398 . S
C719 C684 1.382 . S
C719 H696 0.951 . S
C719 C718 1.398 . S
C720 C721 1.384 . S
C720 H733 0.947 . S
C720 C755 1.382 . S
C721 C720 1.384 . S
C721 C722 1.378 . S
C722 C721 1.378 . S
C722 C723 1.378 . S
C722 H734 0.952 . S
C723 C722 1.378 . S
C723 H735 0.950 . S
C723 C754 1.383 . S
H724 C743 0.947 . S
H725 C744 0.946 . S
H726 C746 0.953 . S
H727 C747 0.945 . S
H728 C749 0.952 . S
H729 C750 0.949 . S
H730 C752 0.950 . S
H731 C753 0.948 . S
H732 C755 0.951 . S
H733 C720 0.947 . S
H734 C722 0.952 . S
H735 C723 0.950 . S
N736 C739 1.382 . S
N736 C741 1.363 . S
N737 C739 1.371 . S
N737 C740 1.372 . S
N738 C740 1.361 . S
N738 C741 1.377 . S
C739 N736 1.382 . S
C739 N737 1.371 . S
C739 C742 1.480 . S
C740 N737 1.372 . S
C740 N738 1.361 . S
C740 C748 1.457 . S
C741 N736 1.363 . S
C741 N738 1.377 . S
C741 C754 1.479 . S
C742 C739 1.480 . S
C742 C743 1.383 . S
C742 C747 1.385 . S
C743 H724 0.947 . S
C743 C742 1.383 . S
C743 C744 1.388 . S
C744 H725 0.946 . S
C744 C743 1.388 . S
C744 C745 1.384 . S
C745 C744 1.384 . S
C745 C746 1.377 . S
C746 H726 0.953 . S
C746 C745 1.377 . S
C746 C747 1.369 . S
C747 H727 0.945 . S
C747 C742 1.385 . S
C747 C746 1.369 . S
C748 C740 1.457 . S
C748 C749 1.372 . S
C748 C753 1.364 . S
C749 H728 0.952 . S
C749 C748 1.372 . S
C749 C750 1.389 . S
C750 H729 0.949 . S
C750 C749 1.389 . S
C750 C751 1.387 . S
C751 C750 1.387 . S
C751 C752 1.372 . S
C752 H730 0.950 . S
C752 C751 1.372 . S
C752 C753 1.379 . S
C753 H731 0.948 . S
C753 C748 1.364 . S
C753 C752 1.379 . S
C754 C723 1.383 . S
C754 C741 1.479 . S
C754 C755 1.398 . S
C755 C720 1.382 . S
C755 H732 0.951 . S
C755 C754 1.398 . S
C756 C757 1.384 . S
C756 H769 0.947 . S
C756 C791 1.382 . S
C757 C756 1.384 . S
C757 C758 1.378 . S
C758 C757 1.378 . S
C758 C759 1.378 . S
C758 H770 0.952 . S
C759 C758 1.378 . S
C759 H771 0.950 . S
C759 C790 1.383 . S
H760 C779 0.947 . S
H761 C780 0.946 . S
H762 C782 0.953 . S
H763 C783 0.945 . S
H764 C785 0.952 . S
H765 C786 0.949 . S
H766 C788 0.950 . S
H767 C789 0.948 . S
H768 C791 0.951 . S
H769 C756 0.947 . S
H770 C758 0.952 . S
H771 C759 0.950 . S
N772 C775 1.382 . S
N772 C777 1.363 . S
N773 C775 1.371 . S
N773 C776 1.372 . S
N774 C776 1.361 . S
N774 C777 1.377 . S
C775 N772 1.382 . S
C775 N773 1.371 . S
C775 C778 1.480 . S
C776 N773 1.372 . S
C776 N774 1.361 . S
C776 C784 1.457 . S
C777 N772 1.363 . S
C777 N774 1.377 . S
C777 C790 1.479 . S
C778 C775 1.480 . S
C778 C779 1.383 . S
C778 C783 1.385 . S
C779 H760 0.947 . S
C779 C778 1.383 . S
C779 C780 1.388 . S
C780 H761 0.946 . S
C780 C779 1.388 . S
C780 C781 1.384 . S
C781 C780 1.384 . S
C781 C782 1.377 . S
C782 H762 0.953 . S
C782 C781 1.377 . S
C782 C783 1.369 . S
C783 H763 0.945 . S
C783 C778 1.385 . S
C783 C782 1.369 . S
C784 C776 1.457 . S
C784 C785 1.372 . S
C784 C789 1.364 . S
C785 H764 0.952 . S
C785 C784 1.372 . S
C785 C786 1.389 . S
C786 H765 0.949 . S
C786 C785 1.389 . S
C786 C787 1.387 . S
C787 C786 1.387 . S
C787 C788 1.372 . S
C788 H766 0.950 . S
C788 C787 1.372 . S
C788 C789 1.379 . S
C789 H767 0.948 . S
C789 C784 1.364 . S
C789 C788 1.379 . S
C790 C759 1.383 . S
C790 C777 1.479 . S
C790 C791 1.398 . S
C791 C756 1.382 . S
C791 H768 0.951 . S
C791 C790 1.398 . S
C792 C793 1.384 . S
C792 H805 0.947 . S
C792 C827 1.382 . S
C793 C792 1.384 . S
C793 C794 1.378 . S
C794 C793 1.378 . S
C794 C795 1.378 . S
C794 H806 0.952 . S
C795 C794 1.378 . S
C795 H807 0.950 . S
C795 C826 1.383 . S
H796 C815 0.947 . S
H797 C816 0.946 . S
H798 C818 0.953 . S
H799 C819 0.945 . S
H800 C821 0.952 . S
H801 C822 0.949 . S
H802 C824 0.950 . S
H803 C825 0.948 . S
H804 C827 0.951 . S
H805 C792 0.947 . S
H806 C794 0.952 . S
H807 C795 0.950 . S
N808 C811 1.382 . S
N808 C813 1.363 . S
N809 C811 1.371 . S
N809 C812 1.372 . S
N810 C812 1.361 . S
N810 C813 1.377 . S
C811 N808 1.382 . S
C811 N809 1.371 . S
C811 C814 1.480 . S
C812 N809 1.372 . S
C812 N810 1.361 . S
C812 C820 1.457 . S
C813 N808 1.363 . S
C813 N810 1.377 . S
C813 C826 1.479 . S
C814 C811 1.480 . S
C814 C815 1.383 . S
C814 C819 1.385 . S
C815 H796 0.947 . S
C815 C814 1.383 . S
C815 C816 1.388 . S
C816 H797 0.946 . S
C816 C815 1.388 . S
C816 C817 1.384 . S
C817 C816 1.384 . S
C817 C818 1.377 . S
C818 H798 0.953 . S
C818 C817 1.377 . S
C818 C819 1.369 . S
C819 H799 0.945 . S
C819 C814 1.385 . S
C819 C818 1.369 . S
C820 C812 1.457 . S
C820 C821 1.372 . S
C820 C825 1.364 . S
C821 H800 0.952 . S
C821 C820 1.372 . S
C821 C822 1.389 . S
C822 H801 0.949 . S
C822 C821 1.389 . S
C822 C823 1.387 . S
C823 C822 1.387 . S
C823 C824 1.372 . S
C824 H802 0.950 . S
C824 C823 1.372 . S
C824 C825 1.379 . S
C825 H803 0.948 . S
C825 C820 1.364 . S
C825 C824 1.379 . S
C826 C795 1.383 . S
C826 C813 1.479 . S
C826 C827 1.398 . S
C827 C792 1.382 . S
C827 H804 0.951 . S
C827 C826 1.398 . S
C828 C829 1.384 . S
C828 H841 0.947 . S
C828 C863 1.382 . S
C829 C828 1.384 . S
C829 C830 1.378 . S
C830 C829 1.378 . S
C830 C831 1.378 . S
C830 H842 0.952 . S
C831 C830 1.378 . S
C831 H843 0.950 . S
C831 C862 1.383 . S
H832 C851 0.947 . S
H833 C852 0.946 . S
H834 C854 0.953 . S
H835 C855 0.945 . S
H836 C857 0.952 . S
H837 C858 0.949 . S
H838 C860 0.950 . S
H839 C861 0.948 . S
H840 C863 0.951 . S
H841 C828 0.947 . S
H842 C830 0.952 . S
H843 C831 0.950 . S
N844 C847 1.382 . S
N844 C849 1.363 . S
N845 C847 1.371 . S
N845 C848 1.372 . S
N846 C848 1.361 . S
N846 C849 1.377 . S
C847 N844 1.382 . S
C847 N845 1.371 . S
C847 C850 1.480 . S
C848 N845 1.372 . S
C848 N846 1.361 . S
C848 C856 1.457 . S
C849 N844 1.363 . S
C849 N846 1.377 . S
C849 C862 1.479 . S
C850 C847 1.480 . S
C850 C851 1.383 . S
C850 C855 1.385 . S
C851 H832 0.947 . S
C851 C850 1.383 . S
C851 C852 1.388 . S
C852 H833 0.946 . S
C852 C851 1.388 . S
C852 C853 1.384 . S
C853 C852 1.384 . S
C853 C854 1.377 . S
C854 H834 0.953 . S
C854 C853 1.377 . S
C854 C855 1.369 . S
C855 H835 0.945 . S
C855 C850 1.385 . S
C855 C854 1.369 . S
C856 C848 1.457 . S
C856 C857 1.372 . S
C856 C861 1.364 . S
C857 H836 0.952 . S
C857 C856 1.372 . S
C857 C858 1.389 . S
C858 H837 0.949 . S
C858 C857 1.389 . S
C858 C859 1.387 . S
C859 C858 1.387 . S
C859 C860 1.372 . S
C860 H838 0.950 . S
C860 C859 1.372 . S
C860 C861 1.379 . S
C861 H839 0.948 . S
C861 C856 1.364 . S
C861 C860 1.379 . S
C862 C831 1.383 . S
C862 C849 1.479 . S
C862 C863 1.398 . S
C863 C828 1.382 . S
C863 H840 0.951 . S
C863 C862 1.398 . S
C864 O890 1.283 . S
C864 O908 1.283 . S
C865 O891 1.283 . S
C865 O906 1.283 . S
C866 O892 1.283 . S
C866 O909 1.283 . S
C867 O893 1.283 . S
C867 O907 1.283 . S
C868 O894 1.283 . S
C868 O903 1.283 . S
C869 O895 1.283 . S
C869 O905 1.283 . S
C870 O896 1.283 . S
C870 O902 1.283 . S
C871 O897 1.283 . S
C871 O904 1.283 . S
C872 O898 1.283 . S
C872 O913 1.283 . S
C873 O899 1.283 . S
C873 O911 1.283 . S
C874 O900 1.283 . S
C874 O912 1.283 . S
C875 O901 1.283 . S
C875 O910 1.283 . S
Eu876 O877 2.366 1_455 S
Eu876 O878 2.374 . S
Eu876 O881 2.366 1_455 S
Eu876 O882 2.374 . S
Eu876 O890 2.363 . S
Eu876 O891 2.363 . S
Eu876 O904 2.369 . S
Eu876 O905 2.357 1_455 S
O877 Eu876 2.366 1_655 S
O877 Eu879 2.369 1_565 S
O877 Eu884 2.365 1_665 S
O878 Eu876 2.374 . S
O878 Eu880 2.368 1_565 S
O878 Eu883 2.372 1_565 S
Eu879 O877 2.369 1_545 S
Eu879 O881 2.369 1_545 S
Eu879 O885 2.371 . S
Eu879 O886 2.371 . S
Eu879 O894 2.365 . S
Eu879 O895 2.361 1_545 S
Eu879 O910 2.363 . S
Eu879 O911 2.363 . S
Eu880 O878 2.368 1_545 S
Eu880 O882 2.368 1_545 S
Eu880 O887 2.372 . S
Eu880 O888 2.372 . S
Eu880 O896 2.366 . S
Eu880 O897 2.360 1_545 S
Eu880 O912 2.363 . S
Eu880 O913 2.363 . S
O881 Eu876 2.366 1_655 S
O881 Eu879 2.369 1_565 S
O881 Eu883 2.365 1_665 S
O882 Eu876 2.374 . S
O882 Eu880 2.368 1_565 S
O882 Eu884 2.372 1_565 S
Eu883 O878 2.372 1_545 S
Eu883 O881 2.365 1_445 S
Eu883 O885 2.368 1_455 S
Eu883 O888 2.375 . S
Eu883 O900 2.369 . S
Eu883 O901 2.357 1_455 S
Eu883 O908 2.361 1_545 S
Eu883 O909 2.365 . S
Eu884 O877 2.365 1_445 S
Eu884 O882 2.372 1_545 S
Eu884 O886 2.368 1_455 S
Eu884 O887 2.375 . S
Eu884 O898 2.369 . S
Eu884 O899 2.357 1_455 S
Eu884 O906 2.360 1_545 S
Eu884 O907 2.365 . S
O885 Eu879 2.371 . S
O885 Eu883 2.368 1_655 S
O885 Eu889 2.367 1_655 S
O886 Eu879 2.371 . S
O886 Eu884 2.368 1_655 S
O886 Eu889 2.367 1_655 S
O887 Eu880 2.372 . S
O887 Eu884 2.375 . S
O887 Eu889 2.374 . S
O888 Eu880 2.372 . S
O888 Eu883 2.375 . S
O888 Eu889 2.374 . S
Eu889 O885 2.367 1_455 S
Eu889 O886 2.367 1_455 S
Eu889 O887 2.374 . S
Eu889 O888 2.374 . S
Eu889 O892 2.363 . S
Eu889 O893 2.363 . S
Eu889 O902 2.369 . S
Eu889 O903 2.357 1_455 S
O890 C864 1.283 . S
O890 Eu876 2.363 . S
O891 C865 1.283 . S
O891 Eu876 2.363 . S
O892 C866 1.283 . S
O892 Eu889 2.363 . S
O893 C867 1.283 . S
O893 Eu889 2.363 . S
O894 C868 1.283 . S
O894 Eu879 2.365 . S
O895 C869 1.283 . S
O895 Eu879 2.361 1_565 S
O896 C870 1.283 . S
O896 Eu880 2.366 . S
O897 C871 1.283 . S
O897 Eu880 2.360 1_565 S
O898 C872 1.283 . S
O898 Eu884 2.369 . S
O899 C873 1.283 . S
O899 Eu884 2.357 1_655 S
O900 C874 1.283 . S
O900 Eu883 2.369 . S
O901 C875 1.283 . S
O901 Eu883 2.357 1_655 S
O902 C870 1.283 . S
O902 Eu889 2.369 . S
O903 C868 1.283 . S
O903 Eu889 2.357 1_655 S
O904 C871 1.283 . S
O904 Eu876 2.369 . S
O905 C869 1.283 . S
O905 Eu876 2.357 1_655 S
O906 C865 1.283 . S
O906 Eu884 2.360 1_565 S
O907 C867 1.283 . S
O907 Eu884 2.365 . S
O908 C864 1.283 . S
O908 Eu883 2.361 1_565 S
O909 C866 1.283 . S
O909 Eu883 2.365 . S
O910 C875 1.283 . S
O910 Eu879 2.363 . S
O911 C873 1.283 . S
O911 Eu879 2.363 . S
O912 C874 1.283 . S
O912 Eu880 2.363 . S
O913 C872 1.283 . S
O913 Eu880 2.363 . S
C914 O940 1.283 . S
C914 O958 1.283 . S
C915 O941 1.283 . S
C915 O956 1.283 . S
C916 O942 1.283 . S
C916 O959 1.283 . S
C917 O943 1.283 . S
C917 O957 1.283 . S
C918 O944 1.283 . S
C918 O953 1.283 . S
C919 O945 1.283 . S
C919 O955 1.283 . S
C920 O946 1.283 . S
C920 O952 1.283 . S
C921 O947 1.283 . S
C921 O954 1.283 . S
C922 O948 1.283 . S
C922 O963 1.283 . S
C923 O949 1.283 . S
C923 O961 1.283 . S
C924 O950 1.283 . S
C924 O962 1.283 . S
C925 O951 1.283 . S
C925 O960 1.283 . S
Eu926 O927 2.370 . S
Eu926 O928 2.370 1_545 S
Eu926 O931 2.370 1_545 S
Eu926 O932 2.370 . S
Eu926 O940 2.363 1_545 S
Eu926 O941 2.363 . S
Eu926 O954 2.363 . S
Eu926 O955 2.363 . S
O927 Eu926 2.370 . S
O927 Eu929 2.384 . S
O927 Eu934 2.384 . S
O928 Eu926 2.370 1_565 S
O928 Eu930 2.384 1_565 S
O928 Eu933 2.384 . S
Eu929 O927 2.384 . S
Eu929 O931 2.384 1_545 S
Eu929 O935 2.356 1_544 S
Eu929 O936 2.356 1_554 S
Eu929 O944 2.340 1_554 S
Eu929 O945 2.386 . S
Eu929 O960 2.363 1_545 S
Eu929 O961 2.363 . S
Eu930 O928 2.384 1_545 S
Eu930 O932 2.384 . S
Eu930 O937 2.357 1_554 S
Eu930 O938 2.356 1_544 S
Eu930 O946 2.340 1_554 S
Eu930 O947 2.386 . S
Eu930 O962 2.363 1_545 S
Eu930 O963 2.363 . S
O931 Eu926 2.370 1_565 S
O931 Eu929 2.384 1_565 S
O931 Eu933 2.384 . S
O932 Eu926 2.370 . S
O932 Eu930 2.384 . S
O932 Eu934 2.384 . S
Eu933 O928 2.384 . S
Eu933 O931 2.384 . S
Eu933 O935 2.356 1_554 S
Eu933 O938 2.356 1_554 S
Eu933 O950 2.363 . S
Eu933 O951 2.363 . S
Eu933 O958 2.386 . S
Eu933 O959 2.340 1_554 S
Eu934 O927 2.384 . S
Eu934 O932 2.384 . S
Eu934 O936 2.356 1_554 S
Eu934 O937 2.356 1_554 S
Eu934 O948 2.363 . S
Eu934 O949 2.363 . S
Eu934 O956 2.386 . S
Eu934 O957 2.340 1_554 S
O935 Eu929 2.356 1_566 S
O935 Eu933 2.356 1_556 S
O935 Eu939 2.370 1_565 S
O936 Eu929 2.356 1_556 S
O936 Eu934 2.356 1_556 S
O936 Eu939 2.370 . S
O937 Eu930 2.357 1_556 S
O937 Eu934 2.356 1_556 S
O937 Eu939 2.370 . S
O938 Eu930 2.356 1_566 S
O938 Eu933 2.356 1_556 S
O938 Eu939 2.370 1_565 S
Eu939 O935 2.370 1_545 S
Eu939 O936 2.370 . S
Eu939 O937 2.370 . S
Eu939 O938 2.370 1_545 S
Eu939 O942 2.363 1_545 S
Eu939 O943 2.363 . S
Eu939 O952 2.363 . S
Eu939 O953 2.363 . S
O940 C914 1.283 . S
O940 Eu926 2.363 1_565 S
O941 C915 1.283 . S
O941 Eu926 2.363 . S
O942 C916 1.283 . S
O942 Eu939 2.363 1_565 S
O943 C917 1.283 . S
O943 Eu939 2.363 . S
O944 C918 1.283 . S
O944 Eu929 2.340 1_556 S
O945 C919 1.283 . S
O945 Eu929 2.386 . S
O946 C920 1.283 . S
O946 Eu930 2.340 1_556 S
O947 C921 1.283 . S
O947 Eu930 2.386 . S
O948 C922 1.283 . S
O948 Eu934 2.363 . S
O949 C923 1.283 . S
O949 Eu934 2.363 . S
O950 C924 1.283 . S
O950 Eu933 2.363 . S
O951 C925 1.283 . S
O951 Eu933 2.363 . S
O952 C920 1.283 . S
O952 Eu939 2.363 . S
O953 C918 1.283 . S
O953 Eu939 2.363 . S
O954 C921 1.283 . S
O954 Eu926 2.363 . S
O955 C919 1.283 . S
O955 Eu926 2.363 . S
O956 C915 1.283 . S
O956 Eu934 2.386 . S
O957 C917 1.283 . S
O957 Eu934 2.340 1_556 S
O958 C914 1.283 . S
O958 Eu933 2.386 . S
O959 C916 1.283 . S
O959 Eu933 2.340 1_556 S
O960 C925 1.283 . S
O960 Eu929 2.363 1_565 S
O961 C923 1.283 . S
O961 Eu929 2.363 . S
O962 C924 1.283 . S
O962 Eu930 2.363 1_565 S
O963 C922 1.283 . S
O963 Eu930 2.363 . S
C964 O990 1.283 . S
C964 O1008 1.283 . S
C965 O991 1.283 . S
C965 O1006 1.283 . S
C966 O992 1.283 . S
C966 O1009 1.283 . S
C967 O993 1.283 . S
C967 O1007 1.283 . S
C968 O994 1.283 . S
C968 O1003 1.283 . S
C969 O995 1.283 . S
C969 O1005 1.283 . S
C970 O996 1.283 . S
C970 O1002 1.283 . S
C971 O997 1.283 . S
C971 O1004 1.283 . S
C972 O998 1.283 . S
C972 O1013 1.283 . S
C973 O999 1.283 . S
C973 O1011 1.283 . S
C974 O1000 1.283 . S
C974 O1012 1.283 . S
C975 O1001 1.283 . S
C975 O1010 1.283 . S
Eu976 O977 2.355 1_454 S
Eu976 O978 2.385 . S
Eu976 O981 2.374 1_455 S
Eu976 O982 2.366 1_554 S
Eu976 O990 2.379 . S
Eu976 O991 2.347 1_554 S
Eu976 O1004 2.372 . S
Eu976 O1005 2.353 1_455 S
O977 Eu976 2.355 1_656 S
O977 Eu979 2.360 1_556 S
O977 Eu984 2.364 1_655 S
O978 Eu976 2.385 . S
O978 Eu980 2.380 . S
O978 Eu983 2.376 . S
Eu979 O977 2.360 1_554 S
Eu979 O981 2.380 . S
Eu979 O985 2.380 . S
Eu979 O986 2.360 1_554 S
Eu979 O994 2.363 . S
Eu979 O995 2.363 . S
Eu979 O1010 2.379 . S
Eu979 O1011 2.347 1_554 S
Eu980 O978 2.380 . S
Eu980 O982 2.360 1_554 S
Eu980 O987 2.360 1_554 S
Eu980 O988 2.380 . S
Eu980 O996 2.363 . S
Eu980 O997 2.363 . S
Eu980 O1012 2.379 . S
Eu980 O1013 2.347 1_554 S
O981 Eu976 2.374 1_655 S
O981 Eu979 2.380 . S
O981 Eu983 2.364 1_655 S
O982 Eu976 2.366 1_556 S
O982 Eu980 2.360 1_556 S
O982 Eu984 2.376 . S
Eu983 O978 2.376 . S
Eu983 O981 2.364 1_455 S
Eu983 O985 2.364 1_455 S
Eu983 O988 2.376 . S
Eu983 O1000 2.372 . S
Eu983 O1001 2.353 1_455 S
Eu983 O1008 2.363 . S
Eu983 O1009 2.363 . S
Eu984 O977 2.364 1_455 S
Eu984 O982 2.376 . S
Eu984 O986 2.364 1_455 S
Eu984 O987 2.376 . S
Eu984 O998 2.372 . S
Eu984 O999 2.353 1_455 S
Eu984 O1006 2.363 . S
Eu984 O1007 2.363 . S
O985 Eu979 2.380 . S
O985 Eu983 2.364 1_655 S
O985 Eu989 2.374 1_655 S
O986 Eu979 2.360 1_556 S
O986 Eu984 2.364 1_655 S
O986 Eu989 2.355 1_656 S
O987 Eu980 2.360 1_556 S
O987 Eu984 2.376 . S
O987 Eu989 2.366 1_556 S
O988 Eu980 2.380 . S
O988 Eu983 2.376 . S
O988 Eu989 2.385 . S
Eu989 O985 2.374 1_455 S
Eu989 O986 2.355 1_454 S
Eu989 O987 2.366 1_554 S
Eu989 O988 2.385 . S
Eu989 O992 2.379 . S
Eu989 O993 2.347 1_554 S
Eu989 O1002 2.373 . S
Eu989 O1003 2.353 1_455 S
O990 C964 1.283 . S
O990 Eu976 2.379 . S
O991 C965 1.283 . S
O991 Eu976 2.347 1_556 S
O992 C966 1.283 . S
O992 Eu989 2.379 . S
O993 C967 1.283 . S
O993 Eu989 2.347 1_556 S
O994 C968 1.283 . S
O994 Eu979 2.363 . S
O995 C969 1.283 . S
O995 Eu979 2.363 . S
O996 C970 1.283 . S
O996 Eu980 2.363 . S
O997 C971 1.283 . S
O997 Eu980 2.363 . S
O998 C972 1.283 . S
O998 Eu984 2.372 . S
O999 C973 1.283 . S
O999 Eu984 2.353 1_655 S
O1000 C974 1.283 . S
O1000 Eu983 2.372 . S
O1001 C975 1.283 . S
O1001 Eu983 2.353 1_655 S
O1002 C970 1.283 . S
O1002 Eu989 2.373 . S
O1003 C968 1.283 . S
O1003 Eu989 2.353 1_655 S
O1004 C971 1.283 . S
O1004 Eu976 2.372 . S
O1005 C969 1.283 . S
O1005 Eu976 2.353 1_655 S
O1006 C965 1.283 . S
O1006 Eu984 2.363 . S
O1007 C967 1.283 . S
O1007 Eu984 2.363 . S
O1008 C964 1.283 . S
O1008 Eu983 2.363 . S
O1009 C966 1.283 . S
O1009 Eu983 2.363 . S
O1010 C975 1.283 . S
O1010 Eu979 2.379 . S
O1011 C973 1.283 . S
O1011 Eu979 2.347 1_556 S
O1012 C974 1.283 . S
O1012 Eu980 2.379 . S
O1013 C972 1.283 . S
O1013 Eu980 2.347 1_556 S
C1014 O1040 1.283 . S
C1014 O1058 1.283 . S
C1015 O1041 1.283 . S
C1015 O1056 1.283 . S
C1016 O1042 1.283 . S
C1016 O1059 1.283 . S
C1017 O1043 1.283 . S
C1017 O1057 1.283 . S
C1018 O1044 1.283 . S
C1018 O1053 1.283 . S
C1019 O1045 1.283 . S
C1019 O1055 1.283 . S
C1020 O1046 1.283 . S
C1020 O1052 1.283 . S
C1021 O1047 1.283 . S
C1021 O1054 1.283 . S
C1022 O1048 1.283 . S
C1022 O1063 1.283 . S
C1023 O1049 1.283 . S
C1023 O1061 1.283 . S
C1024 O1050 1.283 . S
C1024 O1062 1.283 . S
C1025 O1051 1.283 . S
C1025 O1060 1.283 . S
Eu1026 O1027 2.370 . S
Eu1026 O1028 2.370 . S
Eu1026 O1031 2.370 . S
Eu1026 O1032 2.370 . S
Eu1026 O1040 2.363 . S
Eu1026 O1041 2.363 . S
Eu1026 O1054 2.363 . S
Eu1026 O1055 2.363 . S
O1027 Eu1026 2.370 . S
O1027 Eu1029 2.382 . S
O1027 Eu1034 2.382 . S
O1028 Eu1026 2.370 . S
O1028 Eu1030 2.382 . S
O1028 Eu1033 2.382 . S
Eu1029 O1027 2.382 . S
Eu1029 O1031 2.382 . S
Eu1029 O1035 2.358 1_554 S
Eu1029 O1036 2.358 1_554 S
Eu1029 O1044 2.343 1_554 S
Eu1029 O1045 2.383 . S
Eu1029 O1060 2.363 . S
Eu1029 O1061 2.363 . S
Eu1030 O1028 2.382 . S
Eu1030 O1032 2.382 . S
Eu1030 O1037 2.358 1_554 S
Eu1030 O1038 2.358 1_554 S
Eu1030 O1046 2.343 1_554 S
Eu1030 O1047 2.383 . S
Eu1030 O1062 2.363 . S
Eu1030 O1063 2.363 . S
O1031 Eu1026 2.370 . S
O1031 Eu1029 2.382 . S
O1031 Eu1033 2.382 . S
O1032 Eu1026 2.370 . S
O1032 Eu1030 2.382 . S
O1032 Eu1034 2.382 . S
Eu1033 O1028 2.382 . S
Eu1033 O1031 2.382 . S
Eu1033 O1035 2.358 1_554 S
Eu1033 O1038 2.358 1_554 S
Eu1033 O1050 2.363 . S
Eu1033 O1051 2.363 . S
Eu1033 O1058 2.383 . S
Eu1033 O1059 2.343 1_554 S
Eu1034 O1027 2.382 . S
Eu1034 O1032 2.382 . S
Eu1034 O1036 2.358 1_554 S
Eu1034 O1037 2.358 1_554 S
Eu1034 O1048 2.363 . S
Eu1034 O1049 2.363 . S
Eu1034 O1056 2.383 . S
Eu1034 O1057 2.343 1_554 S
O1035 Eu1029 2.358 1_556 S
O1035 Eu1033 2.358 1_556 S
O1035 Eu1039 2.370 . S
O1036 Eu1029 2.358 1_556 S
O1036 Eu1034 2.358 1_556 S
O1036 Eu1039 2.370 . S
O1037 Eu1030 2.358 1_556 S
O1037 Eu1034 2.358 1_556 S
O1037 Eu1039 2.370 . S
O1038 Eu1030 2.358 1_556 S
O1038 Eu1033 2.358 1_556 S
O1038 Eu1039 2.370 . S
Eu1039 O1035 2.370 . S
Eu1039 O1036 2.370 . S
Eu1039 O1037 2.370 . S
Eu1039 O1038 2.370 . S
Eu1039 O1042 2.363 . S
Eu1039 O1043 2.363 . S
Eu1039 O1052 2.363 . S
Eu1039 O1053 2.363 . S
O1040 C1014 1.283 . S
O1040 Eu1026 2.363 . S
O1041 C1015 1.283 . S
O1041 Eu1026 2.363 . S
O1042 C1016 1.283 . S
O1042 Eu1039 2.363 . S
O1043 C1017 1.283 . S
O1043 Eu1039 2.363 . S
O1044 C1018 1.283 . S
O1044 Eu1029 2.343 1_556 S
O1045 C1019 1.283 . S
O1045 Eu1029 2.383 . S
O1046 C1020 1.283 . S
O1046 Eu1030 2.343 1_556 S
O1047 C1021 1.283 . S
O1047 Eu1030 2.383 . S
O1048 C1022 1.283 . S
O1048 Eu1034 2.363 . S
O1049 C1023 1.283 . S
O1049 Eu1034 2.363 . S
O1050 C1024 1.283 . S
O1050 Eu1033 2.363 . S
O1051 C1025 1.283 . S
O1051 Eu1033 2.363 . S
O1052 C1020 1.283 . S
O1052 Eu1039 2.363 . S
O1053 C1018 1.283 . S
O1053 Eu1039 2.363 . S
O1054 C1021 1.283 . S
O1054 Eu1026 2.363 . S
O1055 C1019 1.283 . S
O1055 Eu1026 2.363 . S
O1056 C1015 1.283 . S
O1056 Eu1034 2.383 . S
O1057 C1017 1.283 . S
O1057 Eu1034 2.343 1_556 S
O1058 C1014 1.283 . S
O1058 Eu1033 2.383 . S
O1059 C1016 1.283 . S
O1059 Eu1033 2.343 1_556 S
O1060 C1025 1.283 . S
O1060 Eu1029 2.363 . S
O1061 C1023 1.283 . S
O1061 Eu1029 2.363 . S
O1062 C1024 1.283 . S
O1062 Eu1030 2.363 . S
O1063 C1022 1.283 . S
O1063 Eu1030 2.363 . S
C1064 O1090 1.283 . S
C1064 O1108 1.283 . S
C1065 O1091 1.283 . S
C1065 O1106 1.283 . S
C1066 O1092 1.283 . S
C1066 O1109 1.283 . S
C1067 O1093 1.283 . S
C1067 O1107 1.283 . S
C1068 O1094 1.283 . S
C1068 O1103 1.283 . S
C1069 O1095 1.283 . S
C1069 O1105 1.283 . S
C1070 O1096 1.283 . S
C1070 O1102 1.283 . S
C1071 O1097 1.283 . S
C1071 O1104 1.283 . S
C1072 O1098 1.283 . S
C1072 O1113 1.283 . S
C1073 O1099 1.283 . S
C1073 O1111 1.283 . S
C1074 O1100 1.283 . S
C1074 O1112 1.283 . S
C1075 O1101 1.283 . S
C1075 O1110 1.283 . S
Eu1076 O1077 2.365 1_455 S
Eu1076 O1078 2.375 . S
Eu1076 O1081 2.365 1_455 S
Eu1076 O1082 2.375 . S
Eu1076 O1090 2.363 . S
Eu1076 O1091 2.363 . S
Eu1076 O1104 2.371 . S
Eu1076 O1105 2.355 1_455 S
O1077 Eu1076 2.365 1_655 S
O1077 Eu1079 2.370 . S
O1077 Eu1084 2.365 1_655 S
O1078 Eu1076 2.375 . S
O1078 Eu1080 2.370 . S
O1078 Eu1083 2.375 . S
Eu1079 O1077 2.370 . S
Eu1079 O1081 2.370 . S
Eu1079 O1085 2.370 . S
Eu1079 O1086 2.370 . S
Eu1079 O1094 2.363 . S
Eu1079 O1095 2.363 . S
Eu1079 O1110 2.363 . S
Eu1079 O1111 2.363 . S
Eu1080 O1078 2.370 . S
Eu1080 O1082 2.370 . S
Eu1080 O1087 2.370 . S
Eu1080 O1088 2.370 . S
Eu1080 O1096 2.363 . S
Eu1080 O1097 2.363 . S
Eu1080 O1112 2.363 . S
Eu1080 O1113 2.363 . S
O1081 Eu1076 2.365 1_655 S
O1081 Eu1079 2.370 . S
O1081 Eu1083 2.365 1_655 S
O1082 Eu1076 2.375 . S
O1082 Eu1080 2.370 . S
O1082 Eu1084 2.375 . S
Eu1083 O1078 2.375 . S
Eu1083 O1081 2.365 1_455 S
Eu1083 O1085 2.365 1_455 S
Eu1083 O1088 2.375 . S
Eu1083 O1100 2.371 . S
Eu1083 O1101 2.355 1_455 S
Eu1083 O1108 2.363 . S
Eu1083 O1109 2.363 . S
Eu1084 O1077 2.365 1_455 S
Eu1084 O1082 2.375 . S
Eu1084 O1086 2.365 1_455 S
Eu1084 O1087 2.375 . S
Eu1084 O1098 2.371 . S
Eu1084 O1099 2.355 1_455 S
Eu1084 O1106 2.363 . S
Eu1084 O1107 2.363 . S
O1085 Eu1079 2.370 . S
O1085 Eu1083 2.365 1_655 S
O1085 Eu1089 2.365 1_655 S
O1086 Eu1079 2.370 . S
O1086 Eu1084 2.365 1_655 S
O1086 Eu1089 2.365 1_655 S
O1087 Eu1080 2.370 . S
O1087 Eu1084 2.375 . S
O1087 Eu1089 2.375 . S
O1088 Eu1080 2.370 . S
O1088 Eu1083 2.375 . S
O1088 Eu1089 2.375 . S
Eu1089 O1085 2.365 1_455 S
Eu1089 O1086 2.365 1_455 S
Eu1089 O1087 2.375 . S
Eu1089 O1088 2.375 . S
Eu1089 O1092 2.363 . S
Eu1089 O1093 2.363 . S
Eu1089 O1102 2.371 . S
Eu1089 O1103 2.355 1_455 S
O1090 C1064 1.283 . S
O1090 Eu1076 2.363 . S
O1091 C1065 1.283 . S
O1091 Eu1076 2.363 . S
O1092 C1066 1.283 . S
O1092 Eu1089 2.363 . S
O1093 C1067 1.283 . S
O1093 Eu1089 2.363 . S
O1094 C1068 1.283 . S
O1094 Eu1079 2.363 . S
O1095 C1069 1.283 . S
O1095 Eu1079 2.363 . S
O1096 C1070 1.283 . S
O1096 Eu1080 2.363 . S
O1097 C1071 1.283 . S
O1097 Eu1080 2.363 . S
O1098 C1072 1.283 . S
O1098 Eu1084 2.371 . S
O1099 C1073 1.283 . S
O1099 Eu1084 2.355 1_655 S
O1100 C1074 1.283 . S
O1100 Eu1083 2.371 . S
O1101 C1075 1.283 . S
O1101 Eu1083 2.355 1_655 S
O1102 C1070 1.283 . S
O1102 Eu1089 2.371 . S
O1103 C1068 1.283 . S
O1103 Eu1089 2.355 1_655 S
O1104 C1071 1.283 . S
O1104 Eu1076 2.371 . S
O1105 C1069 1.283 . S
O1105 Eu1076 2.355 1_655 S
O1106 C1065 1.283 . S
O1106 Eu1084 2.363 . S
O1107 C1067 1.283 . S
O1107 Eu1084 2.363 . S
O1108 C1064 1.283 . S
O1108 Eu1083 2.363 . S
O1109 C1066 1.283 . S
O1109 Eu1083 2.363 . S
O1110 C1075 1.283 . S
O1110 Eu1079 2.363 . S
O1111 C1073 1.283 . S
O1111 Eu1079 2.363 . S
O1112 C1074 1.283 . S
O1112 Eu1080 2.363 . S
O1113 C1072 1.283 . S
O1113 Eu1080 2.363 . S
C1114 O1140 1.283 . S
C1114 O1158 1.283 . S
C1115 O1141 1.283 . S
C1115 O1156 1.283 . S
C1116 O1142 1.283 . S
C1116 O1159 1.283 . S
C1117 O1143 1.283 . S
C1117 O1157 1.283 . S
C1118 O1144 1.283 . S
C1118 O1153 1.283 . S
C1119 O1145 1.283 . S
C1119 O1155 1.283 . S
C1120 O1146 1.283 . S
C1120 O1152 1.283 . S
C1121 O1147 1.283 . S
C1121 O1154 1.283 . S
C1122 O1148 1.283 . S
C1122 O1163 1.283 . S
C1123 O1149 1.283 . S
C1123 O1161 1.283 . S
C1124 O1150 1.283 . S
C1124 O1162 1.283 . S
C1125 O1151 1.283 . S
C1125 O1160 1.283 . S
Eu1126 O1127 2.370 . S
Eu1126 O1128 2.370 . S
Eu1126 O1131 2.370 . S
Eu1126 O1132 2.370 . S
Eu1126 O1140 2.363 . S
Eu1126 O1141 2.363 . S
Eu1126 O1154 2.363 . S
Eu1126 O1155 2.363 . S
O1127 Eu1126 2.370 . S
O1127 Eu1129 2.370 1_565 S
O1127 Eu1134 2.370 1_565 S
O1128 Eu1126 2.370 . S
O1128 Eu1130 2.370 1_565 S
O1128 Eu1133 2.370 1_565 S
Eu1129 O1127 2.370 1_545 S
Eu1129 O1131 2.370 1_545 S
Eu1129 O1135 2.370 . S
Eu1129 O1136 2.370 . S
Eu1129 O1144 2.363 . S
Eu1129 O1145 2.362 1_545 S
Eu1129 O1160 2.363 . S
Eu1129 O1161 2.363 . S
Eu1130 O1128 2.370 1_545 S
Eu1130 O1132 2.370 1_545 S
Eu1130 O1137 2.370 . S
Eu1130 O1138 2.370 . S
Eu1130 O1146 2.363 . S
Eu1130 O1147 2.363 1_545 S
Eu1130 O1162 2.363 . S
Eu1130 O1163 2.363 . S
O1131 Eu1126 2.370 . S
O1131 Eu1129 2.370 1_565 S
O1131 Eu1133 2.370 1_565 S
O1132 Eu1126 2.370 . S
O1132 Eu1130 2.370 1_565 S
O1132 Eu1134 2.370 1_565 S
Eu1133 O1128 2.370 1_545 S
Eu1133 O1131 2.370 1_545 S
Eu1133 O1135 2.370 . S
Eu1133 O1138 2.370 . S
Eu1133 O1150 2.363 . S
Eu1133 O1151 2.363 . S
Eu1133 O1158 2.363 1_545 S
Eu1133 O1159 2.363 . S
Eu1134 O1127 2.370 1_545 S
Eu1134 O1132 2.370 1_545 S
Eu1134 O1136 2.370 . S
Eu1134 O1137 2.370 . S
Eu1134 O1148 2.363 . S
Eu1134 O1149 2.363 . S
Eu1134 O1156 2.363 1_545 S
Eu1134 O1157 2.363 . S
O1135 Eu1129 2.370 . S
O1135 Eu1133 2.370 . S
O1135 Eu1139 2.370 . S
O1136 Eu1129 2.370 . S
O1136 Eu1134 2.370 . S
O1136 Eu1139 2.370 . S
O1137 Eu1130 2.370 . S
O1137 Eu1134 2.370 . S
O1137 Eu1139 2.370 . S
O1138 Eu1130 2.370 . S
O1138 Eu1133 2.370 . S
O1138 Eu1139 2.370 . S
Eu1139 O1135 2.370 . S
Eu1139 O1136 2.370 . S
Eu1139 O1137 2.370 . S
Eu1139 O1138 2.370 . S
Eu1139 O1142 2.363 . S
Eu1139 O1143 2.363 . S
Eu1139 O1152 2.363 . S
Eu1139 O1153 2.363 . S
O1140 C1114 1.283 . S
O1140 Eu1126 2.363 . S
O1141 C1115 1.283 . S
O1141 Eu1126 2.363 . S
O1142 C1116 1.283 . S
O1142 Eu1139 2.363 . S
O1143 C1117 1.283 . S
O1143 Eu1139 2.363 . S
O1144 C1118 1.283 . S
O1144 Eu1129 2.363 . S
O1145 C1119 1.283 . S
O1145 Eu1129 2.362 1_565 S
O1146 C1120 1.283 . S
O1146 Eu1130 2.363 . S
O1147 C1121 1.283 . S
O1147 Eu1130 2.363 1_565 S
O1148 C1122 1.283 . S
O1148 Eu1134 2.363 . S
O1149 C1123 1.283 . S
O1149 Eu1134 2.363 . S
O1150 C1124 1.283 . S
O1150 Eu1133 2.363 . S
O1151 C1125 1.283 . S
O1151 Eu1133 2.363 . S
O1152 C1120 1.283 . S
O1152 Eu1139 2.363 . S
O1153 C1118 1.283 . S
O1153 Eu1139 2.363 . S
O1154 C1121 1.283 . S
O1154 Eu1126 2.363 . S
O1155 C1119 1.283 . S
O1155 Eu1126 2.363 . S
O1156 C1115 1.283 . S
O1156 Eu1134 2.363 1_565 S
O1157 C1117 1.283 . S
O1157 Eu1134 2.363 . S
O1158 C1114 1.283 . S
O1158 Eu1133 2.363 1_565 S
O1159 C1116 1.283 . S
O1159 Eu1133 2.363 . S
O1160 C1125 1.283 . S
O1160 Eu1129 2.363 . S
O1161 C1123 1.283 . S
O1161 Eu1129 2.363 . S
O1162 C1124 1.283 . S
O1162 Eu1130 2.363 . S
O1163 C1122 1.283 . S
O1163 Eu1130 2.363 . S
C1164 C1165 1.387 . S
C1164 H1168 0.950 . S
C1164 C1173 1.390 . S
C1165 C1164 1.387 . S
C1165 C1167 1.387 . S
H1166 C1173 0.950 . S
C1167 C1165 1.387 . S
C1167 C1169 1.390 . S
C1167 H1171 0.950 . S
H1168 C1164 0.950 . S
C1169 C1167 1.390 . S
C1169 C1170 1.387 . S
C1169 H1172 0.950 . S
C1170 C1169 1.387 . S
C1170 C1173 1.387 . S
H1171 C1167 0.950 . S
H1172 C1169 0.950 . S
C1173 C1164 1.390 . S
C1173 H1166 0.950 . S
C1173 C1170 1.387 . S
C1174 C1175 1.387 . S
C1174 H1178 0.950 . S
C1174 C1183 1.390 . S
C1175 C1174 1.387 . S
C1175 C1177 1.387 . S
H1176 C1183 0.950 . S
C1177 C1175 1.387 . S
C1177 C1179 1.390 . S
C1177 H1181 0.950 . S
H1178 C1174 0.950 . S
C1179 C1177 1.390 . S
C1179 C1180 1.387 . S
C1179 H1182 0.950 . S
C1180 C1179 1.387 . S
C1180 C1183 1.387 . S
H1181 C1177 0.950 . S
H1182 C1179 0.950 . S
C1183 C1174 1.390 . S
C1183 H1176 0.950 . S
C1183 C1180 1.387 . S
C1184 C1185 1.387 . S
C1184 H1188 0.950 . S
C1184 C1193 1.390 . S
C1185 C1184 1.387 . S
C1185 C1187 1.387 . S
H1186 C1193 0.950 . S
C1187 C1185 1.387 . S
C1187 C1189 1.390 . S
C1187 H1191 0.950 . S
H1188 C1184 0.950 . S
C1189 C1187 1.390 . S
C1189 C1190 1.387 . S
C1189 H1192 0.950 . S
C1190 C1189 1.387 . S
C1190 C1193 1.387 . S
H1191 C1187 0.950 . S
H1192 C1189 0.950 . S
C1193 C1184 1.390 . S
C1193 H1186 0.950 . S
C1193 C1190 1.387 . S
C1194 C1195 1.387 . S
C1194 H1198 0.950 . S
C1194 C1203 1.390 . S
C1195 C1194 1.387 . S
C1195 C1197 1.387 . S
H1196 C1203 0.950 . S
C1197 C1195 1.387 . S
C1197 C1199 1.390 . S
C1197 H1201 0.950 . S
H1198 C1194 0.950 . S
C1199 C1197 1.390 . S
C1199 C1200 1.387 . S
C1199 H1202 0.950 . S
C1200 C1199 1.387 . S
C1200 C1203 1.387 . S
H1201 C1197 0.950 . S
H1202 C1199 0.950 . S
C1203 C1194 1.390 . S
C1203 H1196 0.950 . S
C1203 C1200 1.387 . S
C1204 C1205 1.387 . S
C1204 H1208 0.950 . S
C1204 C1213 1.390 . S
C1205 C1204 1.387 . S
C1205 C1207 1.387 . S
H1206 C1213 0.950 . S
C1207 C1205 1.387 . S
C1207 C1209 1.390 . S
C1207 H1211 0.950 . S
H1208 C1204 0.950 . S
C1209 C1207 1.390 . S
C1209 C1210 1.387 . S
C1209 H1212 0.950 . S
C1210 C1209 1.387 . S
C1210 C1213 1.387 . S
H1211 C1207 0.950 . S
H1212 C1209 0.950 . S
C1213 C1204 1.390 . S
C1213 H1206 0.950 . S
C1213 C1210 1.387 . S
C1214 C1215 1.387 . S
C1214 H1218 0.950 . S
C1214 C1223 1.390 . S
C1215 C1214 1.387 . S
C1215 C1217 1.387 . S
H1216 C1223 0.950 . S
C1217 C1215 1.387 . S
C1217 C1219 1.390 . S
C1217 H1221 0.950 . S
H1218 C1214 0.950 . S
C1219 C1217 1.390 . S
C1219 C1220 1.387 . S
C1219 H1222 0.950 . S
C1220 C1219 1.387 . S
C1220 C1223 1.387 . S
H1221 C1217 0.950 . S
H1222 C1219 0.950 . S
C1223 C1214 1.390 . S
C1223 H1216 0.950 . S
C1223 C1220 1.387 . S
C1224 C1225 1.387 . S
C1224 H1228 0.950 . S
C1224 C1233 1.390 . S
C1225 C1224 1.387 . S
C1225 C1227 1.387 . S
H1226 C1233 0.950 . S
C1227 C1225 1.387 . S
C1227 C1229 1.390 . S
C1227 H1231 0.950 . S
H1228 C1224 0.950 . S
C1229 C1227 1.390 . S
C1229 C1230 1.387 . S
C1229 H1232 0.950 . S
C1230 C1229 1.387 . S
C1230 C1233 1.387 . S
H1231 C1227 0.950 . S
H1232 C1229 0.950 . S
C1233 C1224 1.390 . S
C1233 H1226 0.950 . S
C1233 C1230 1.387 . S
C1234 C1235 1.387 . S
C1234 H1238 0.950 . S
C1234 C1243 1.390 . S
C1235 C1234 1.387 . S
C1235 C1237 1.387 . S
H1236 C1243 0.950 . S
C1237 C1235 1.387 . S
C1237 C1239 1.390 . S
C1237 H1241 0.950 . S
H1238 C1234 0.950 . S
C1239 C1237 1.390 . S
C1239 C1240 1.387 . S
C1239 H1242 0.950 . S
C1240 C1239 1.387 . S
C1240 C1243 1.387 . S
H1241 C1237 0.950 . S
H1242 C1239 0.950 . S
C1243 C1234 1.390 . S
C1243 H1236 0.950 . S
C1243 C1240 1.387 . S
C1244 C1245 1.387 . S
C1244 H1248 0.950 . S
C1244 C1253 1.390 . S
C1245 C1244 1.387 . S
C1245 C1247 1.387 . S
H1246 C1253 0.950 . S
C1247 C1245 1.387 . S
C1247 C1249 1.390 . S
C1247 H1251 0.950 . S
H1248 C1244 0.950 . S
C1249 C1247 1.390 . S
C1249 C1250 1.387 . S
C1249 H1252 0.950 . S
C1250 C1249 1.387 . S
C1250 C1253 1.387 . S
H1251 C1247 0.950 . S
H1252 C1249 0.950 . S
C1253 C1244 1.390 . S
C1253 H1246 0.950 . S
C1253 C1250 1.387 . S
C1254 C1255 1.387 . S
C1254 H1258 0.950 . S
C1254 C1263 1.390 . S
C1255 C1254 1.387 . S
C1255 C1257 1.387 . S
H1256 C1263 0.950 . S
C1257 C1255 1.387 . S
C1257 C1259 1.390 . S
C1257 H1261 0.950 . S
H1258 C1254 0.950 . S
C1259 C1257 1.390 . S
C1259 C1260 1.387 . S
C1259 H1262 0.950 . S
C1260 C1259 1.387 . S
C1260 C1263 1.387 . S
H1261 C1257 0.950 . S
H1262 C1259 0.950 . S
C1263 C1254 1.390 . S
C1263 H1256 0.950 . S
C1263 C1260 1.387 . S
C1264 C1265 1.387 . S
C1264 H1268 0.950 . S
C1264 C1273 1.390 . S
C1265 C1264 1.387 . S
C1265 C1267 1.387 . S
H1266 C1273 0.950 . S
C1267 C1265 1.387 . S
C1267 C1269 1.390 . S
C1267 H1271 0.950 . S
H1268 C1264 0.950 . S
C1269 C1267 1.390 . S
C1269 C1270 1.387 . S
C1269 H1272 0.950 . S
C1270 C1269 1.387 . S
C1270 C1273 1.387 . S
H1271 C1267 0.950 . S
H1272 C1269 0.950 . S
C1273 C1264 1.390 . S
C1273 H1266 0.950 . S
C1273 C1270 1.387 . S
C1274 C1275 1.387 . S
C1274 H1278 0.950 . S
C1274 C1283 1.390 . S
C1275 C1274 1.387 . S
C1275 C1277 1.387 . S
H1276 C1283 0.950 . S
C1277 C1275 1.387 . S
C1277 C1279 1.390 . S
C1277 H1281 0.950 . S
H1278 C1274 0.950 . S
C1279 C1277 1.390 . S
C1279 C1280 1.387 . S
C1279 H1282 0.950 . S
C1280 C1279 1.387 . S
C1280 C1283 1.387 . S
H1281 C1277 0.950 . S
H1282 C1279 0.950 . S
C1283 C1274 1.390 . S
C1283 H1276 0.950 . S
C1283 C1280 1.387 . S
C1284 C1285 1.406 . S
C1284 H1288 0.950 . S
C1284 C1293 1.390 . S
C1285 C1284 1.406 . S
C1285 C1287 1.369 1_554 S
H1286 C1293 0.950 . S
C1287 C1285 1.369 1_556 S
C1287 C1289 1.390 . S
C1287 H1291 0.950 . S
H1288 C1284 0.950 . S
C1289 C1287 1.390 . S
C1289 C1290 1.368 1_556 S
C1289 H1292 0.950 . S
C1290 C1289 1.368 1_554 S
C1290 C1293 1.407 . S
H1291 C1287 0.950 . S
H1292 C1289 0.950 . S
C1293 C1284 1.390 . S
C1293 H1286 0.950 . S
C1293 C1290 1.407 . S
C1294 C1295 1.406 . S
C1294 H1298 0.950 . S
C1294 C1303 1.390 . S
C1295 C1294 1.406 . S
C1295 C1297 1.369 1_554 S
H1296 C1303 0.950 . S
C1297 C1295 1.369 1_556 S
C1297 C1299 1.390 . S
C1297 H1301 0.950 . S
H1298 C1294 0.950 . S
C1299 C1297 1.390 . S
C1299 C1300 1.368 1_556 S
C1299 H1302 0.950 . S
C1300 C1299 1.368 1_554 S
C1300 C1303 1.407 . S
H1301 C1297 0.950 . S
H1302 C1299 0.950 . S
C1303 C1294 1.390 . S
C1303 H1296 0.950 . S
C1303 C1300 1.407 . S
C1304 C1305 1.368 1_556 S
C1304 H1308 0.950 . S
C1304 C1313 1.390 . S
C1305 C1304 1.368 1_554 S
C1305 C1307 1.407 . S
H1306 C1313 0.950 . S
C1307 C1305 1.407 . S
C1307 C1309 1.390 . S
C1307 H1311 0.950 . S
H1308 C1304 0.950 . S
C1309 C1307 1.390 . S
C1309 C1310 1.407 . S
C1309 H1312 0.950 . S
C1310 C1309 1.407 . S
C1310 C1313 1.368 1_554 S
H1311 C1307 0.950 . S
H1312 C1309 0.950 . S
C1313 C1304 1.390 . S
C1313 H1306 0.950 . S
C1313 C1310 1.368 1_556 S
C1314 C1315 1.407 . S
C1314 H1318 0.950 . S
C1314 C1323 1.390 . S
C1315 C1314 1.407 . S
C1315 C1317 1.368 1_554 S
H1316 C1323 0.950 . S
C1317 C1315 1.368 1_556 S
C1317 C1319 1.390 . S
C1317 H1321 0.950 . S
H1318 C1314 0.950 . S
C1319 C1317 1.390 . S
C1319 C1320 1.368 1_556 S
C1319 H1322 0.950 . S
C1320 C1319 1.368 1_554 S
C1320 C1323 1.407 . S
H1321 C1317 0.950 . S
H1322 C1319 0.950 . S
C1323 C1314 1.390 . S
C1323 H1316 0.950 . S
C1323 C1320 1.407 . S
C1324 C1325 1.396 . S
C1324 H1328 0.950 . S
C1324 C1333 1.390 . S
C1325 C1324 1.396 . S
C1325 C1327 1.379 1_455 S
H1326 C1333 0.950 . S
C1327 C1325 1.379 1_655 S
C1327 C1329 1.390 . S
C1327 H1331 0.950 . S
H1328 C1324 0.950 . S
C1329 C1327 1.390 . S
C1329 C1330 1.380 1_655 S
C1329 H1332 0.950 . S
C1330 C1329 1.380 1_455 S
C1330 C1333 1.395 . S
H1331 C1327 0.950 . S
H1332 C1329 0.950 . S
C1333 C1324 1.390 . S
C1333 H1326 0.950 . S
C1333 C1330 1.395 . S
C1334 C1335 1.387 1_565 S
C1334 H1338 0.950 . S
C1334 C1343 1.390 . S
C1335 C1334 1.387 1_545 S
C1335 C1337 1.388 . S
H1336 C1343 0.950 . S
C1337 C1335 1.388 . S
C1337 C1339 1.390 . S
C1337 H1341 0.950 . S
H1338 C1334 0.950 . S
C1339 C1337 1.390 . S
C1339 C1340 1.388 . S
C1339 H1342 0.950 . S
C1340 C1339 1.388 . S
C1340 C1343 1.387 1_545 S
H1341 C1337 0.950 . S
H1342 C1339 0.950 . S
C1343 C1334 1.390 . S
C1343 H1336 0.950 . S
C1343 C1340 1.387 1_565 S
C1344 C1345 1.380 1_655 S
C1344 H1348 0.950 . S
C1344 C1353 1.390 . S
C1345 C1344 1.380 1_455 S
C1345 C1347 1.395 . S
H1346 C1353 0.950 . S
C1347 C1345 1.395 . S
C1347 C1349 1.390 . S
C1347 H1351 0.950 . S
H1348 C1344 0.950 . S
C1349 C1347 1.390 . S
C1349 C1350 1.395 . S
C1349 H1352 0.950 . S
C1350 C1349 1.395 . S
C1350 C1353 1.380 1_455 S
H1351 C1347 0.950 . S
H1352 C1349 0.950 . S
C1353 C1344 1.390 . S
C1353 H1346 0.950 . S
C1353 C1350 1.380 1_655 S
C1354 C1355 1.388 1_565 S
C1354 H1358 0.950 . S
C1354 C1363 1.390 . S
C1355 C1354 1.388 1_545 S
C1355 C1357 1.387 . S
H1356 C1363 0.950 . S
C1357 C1355 1.387 . S
C1357 C1359 1.390 . S
C1357 H1361 0.950 . S
H1358 C1354 0.950 . S
C1359 C1357 1.390 . S
C1359 C1360 1.388 . S
C1359 H1362 0.950 . S
C1360 C1359 1.388 . S
C1360 C1363 1.387 1_545 S
H1361 C1357 0.950 . S
H1362 C1359 0.950 . S
C1363 C1354 1.390 . S
C1363 H1356 0.950 . S
C1363 C1360 1.387 1_565 S
C1364 C1365 1.380 1_655 S
C1364 H1368 0.950 . S
C1364 C1373 1.390 . S
C1365 C1364 1.380 1_455 S
C1365 C1367 1.395 . S
H1366 C1373 0.950 . S
C1367 C1365 1.395 . S
C1367 C1369 1.390 . S
C1367 H1371 0.950 . S
H1368 C1364 0.950 . S
C1369 C1367 1.390 . S
C1369 C1370 1.395 . S
C1369 H1372 0.950 . S
C1370 C1369 1.395 . S
C1370 C1373 1.380 1_455 S
H1371 C1367 0.950 . S
H1372 C1369 0.950 . S
C1373 C1364 1.390 . S
C1373 H1366 0.950 . S
C1373 C1370 1.380 1_655 S
C1374 C1375 1.388 1_565 S
C1374 H1378 0.950 . S
C1374 C1383 1.390 . S
C1375 C1374 1.388 1_545 S
C1375 C1377 1.387 . S
H1376 C1383 0.950 . S
C1377 C1375 1.387 . S
C1377 C1379 1.390 . S
C1377 H1381 0.950 . S
H1378 C1374 0.950 . S
C1379 C1377 1.390 . S
C1379 C1380 1.388 . S
C1379 H1382 0.950 . S
C1380 C1379 1.388 . S
C1380 C1383 1.387 1_545 S
H1381 C1377 0.950 . S
H1382 C1379 0.950 . S
C1383 C1374 1.390 . S
C1383 H1376 0.950 . S
C1383 C1380 1.387 1_565 S
C1384 C1385 1.379 1_655 S
C1384 H1388 0.950 . S
C1384 C1393 1.390 . S
C1385 C1384 1.379 1_455 S
C1385 C1387 1.395 . S
H1386 C1393 0.950 . S
C1387 C1385 1.395 . S
C1387 C1389 1.390 . S
C1387 H1391 0.950 . S
H1388 C1384 0.950 . S
C1389 C1387 1.390 . S
C1389 C1390 1.395 . S
C1389 H1392 0.950 . S
C1390 C1389 1.395 . S
C1390 C1393 1.380 1_455 S
H1391 C1387 0.950 . S
H1392 C1389 0.950 . S
C1393 C1384 1.390 . S
C1393 H1386 0.950 . S
C1393 C1390 1.380 1_655 S
C1394 C1395 1.388 . S
C1394 H1398 0.950 . S
C1394 C1403 1.390 . S
C1395 C1394 1.388 . S
C1395 C1397 1.387 1_545 S
H1396 C1403 0.950 . S
C1397 C1395 1.387 1_565 S
C1397 C1399 1.390 . S
C1397 H1401 0.950 . S
H1398 C1394 0.950 . S
C1399 C1397 1.390 . S
C1399 C1400 1.387 1_565 S
C1399 H1402 0.950 . S
C1400 C1399 1.387 1_545 S
C1400 C1403 1.388 . S
H1401 C1397 0.950 . S
H1402 C1399 0.950 . S
C1403 C1394 1.390 . S
C1403 H1396 0.950 . S
C1403 C1400 1.388 . S
C1404 C1405 1.394 . S
C1404 H1408 0.950 . S
C1404 C1413 1.390 . S
C1405 C1404 1.394 . S
C1405 C1407 1.381 1_455 S
H1406 C1413 0.950 . S
C1407 C1405 1.381 1_655 S
C1407 C1409 1.390 . S
C1407 H1411 0.950 . S
H1408 C1404 0.950 . S
C1409 C1407 1.390 . S
C1409 C1410 1.382 1_655 S
C1409 H1412 0.950 . S
C1410 C1409 1.382 1_455 S
C1410 C1413 1.393 . S
H1411 C1407 0.950 . S
H1412 C1409 0.950 . S
C1413 C1404 1.390 . S
C1413 H1406 0.950 . S
C1413 C1410 1.393 . S
C1414 C1415 1.386 1_565 S
C1414 H1418 0.950 . S
C1414 C1423 1.390 . S
C1415 C1414 1.386 1_545 S
C1415 C1417 1.388 . S
H1416 C1423 0.950 . S
C1417 C1415 1.388 . S
C1417 C1419 1.390 . S
C1417 H1421 0.950 . S
H1418 C1414 0.950 . S
C1419 C1417 1.390 . S
C1419 C1420 1.389 . S
C1419 H1422 0.950 . S
C1420 C1419 1.389 . S
C1420 C1423 1.386 1_545 S
H1421 C1417 0.950 . S
H1422 C1419 0.950 . S
C1423 C1414 1.390 . S
C1423 H1416 0.950 . S
C1423 C1420 1.386 1_565 S
C1424 C1425 1.395 . S
C1424 H1428 0.950 . S
C1424 C1433 1.390 . S
C1425 C1424 1.395 . S
C1425 C1427 1.380 1_455 S
H1426 C1433 0.950 . S
C1427 C1425 1.380 1_655 S
C1427 C1429 1.390 . S
C1427 H1431 0.950 . S
H1428 C1424 0.950 . S
C1429 C1427 1.390 . S
C1429 C1430 1.381 1_655 S
C1429 H1432 0.950 . S
C1430 C1429 1.381 1_455 S
C1430 C1433 1.394 . S
H1431 C1427 0.950 . S
H1432 C1429 0.950 . S
C1433 C1424 1.390 . S
C1433 H1426 0.950 . S
C1433 C1430 1.394 . S
C1434 C1435 1.386 1_565 S
C1434 H1438 0.950 . S
C1434 C1443 1.390 . S
C1435 C1434 1.386 1_545 S
C1435 C1437 1.389 . S
H1436 C1443 0.950 . S
C1437 C1435 1.389 . S
C1437 C1439 1.390 . S
C1437 H1441 0.950 . S
H1438 C1434 0.950 . S
C1439 C1437 1.390 . S
C1439 C1440 1.390 . S
C1439 H1442 0.950 . S
C1440 C1439 1.390 . S
C1440 C1443 1.385 1_545 S
H1441 C1437 0.950 . S
H1442 C1439 0.950 . S
C1443 C1434 1.390 . S
C1443 H1436 0.950 . S
C1443 C1440 1.385 1_565 S
C1444 C1445 1.395 . S
C1444 H1448 0.950 . S
C1444 C1453 1.390 . S
C1445 C1444 1.395 . S
C1445 C1447 1.380 1_455 S
H1446 C1453 0.950 . S
C1447 C1445 1.380 1_655 S
C1447 C1449 1.390 . S
C1447 H1451 0.950 . S
H1448 C1444 0.950 . S
C1449 C1447 1.390 . S
C1449 C1450 1.381 1_655 S
C1449 H1452 0.950 . S
C1450 C1449 1.381 1_455 S
C1450 C1453 1.394 . S
H1451 C1447 0.950 . S
H1452 C1449 0.950 . S
C1453 C1444 1.390 . S
C1453 H1446 0.950 . S
C1453 C1450 1.394 . S
C1454 C1455 1.386 1_565 S
C1454 H1458 0.950 . S
C1454 C1463 1.390 . S
C1455 C1454 1.386 1_545 S
C1455 C1457 1.389 . S
H1456 C1463 0.950 . S
C1457 C1455 1.389 . S
C1457 C1459 1.390 . S
C1457 H1461 0.950 . S
H1458 C1454 0.950 . S
C1459 C1457 1.390 . S
C1459 C1460 1.390 . S
C1459 H1462 0.950 . S
C1460 C1459 1.390 . S
C1460 C1463 1.385 1_545 S
H1461 C1457 0.950 . S
H1462 C1459 0.950 . S
C1463 C1454 1.390 . S
C1463 H1456 0.950 . S
C1463 C1460 1.385 1_565 S
C1464 C1465 1.394 . S
C1464 H1468 0.950 . S
C1464 C1473 1.390 . S
C1465 C1464 1.394 . S
C1465 C1467 1.381 1_455 S
H1466 C1473 0.950 . S
C1467 C1465 1.381 1_655 S
C1467 C1469 1.390 . S
C1467 H1471 0.950 . S
H1468 C1464 0.950 . S
C1469 C1467 1.390 . S
C1469 C1470 1.382 1_655 S
C1469 H1472 0.950 . S
C1470 C1469 1.382 1_455 S
C1470 C1473 1.393 . S
H1471 C1467 0.950 . S
H1472 C1469 0.950 . S
C1473 C1464 1.390 . S
C1473 H1466 0.950 . S
C1473 C1470 1.393 . S
C1474 C1475 1.388 . S
C1474 H1478 0.950 . S
C1474 C1483 1.390 . S
C1475 C1474 1.388 . S
C1475 C1477 1.387 1_545 S
H1476 C1483 0.950 . S
C1477 C1475 1.387 1_565 S
C1477 C1479 1.390 . S
C1477 H1481 0.950 . S
H1478 C1474 0.950 . S
C1479 C1477 1.390 . S
C1479 C1480 1.386 1_565 S
C1479 H1482 0.950 . S
C1480 C1479 1.386 1_545 S
C1480 C1483 1.389 . S
H1481 C1477 0.950 . S
H1482 C1479 0.950 . S
C1483 C1474 1.390 . S
C1483 H1476 0.950 . S
C1483 C1480 1.389 . S
C1484 C1485 1.389 . S
C1484 H1488 0.950 . S
C1484 C1493 1.390 . S
C1485 C1484 1.389 . S
C1485 C1487 1.386 1_545 S
H1486 C1493 0.950 . S
C1487 C1485 1.386 1_565 S
C1487 C1489 1.390 . S
C1487 H1491 0.950 . S
H1488 C1484 0.950 . S
C1489 C1487 1.390 . S
C1489 C1490 1.387 1_565 S
C1489 H1492 0.950 . S
C1490 C1489 1.387 1_545 S
C1490 C1493 1.388 . S
H1491 C1487 0.950 . S
H1492 C1489 0.950 . S
C1493 C1484 1.390 . S
C1493 H1486 0.950 . S
C1493 C1490 1.388 . S
C1494 C1495 1.395 . S
C1494 H1498 0.950 . S
C1494 C1503 1.390 . S
C1495 C1494 1.395 . S
C1495 C1497 1.380 1_455 S
H1496 C1503 0.950 . S
C1497 C1495 1.380 1_655 S
C1497 C1499 1.390 . S
C1497 H1501 0.950 . S
H1498 C1494 0.950 . S
C1499 C1497 1.390 . S
C1499 C1500 1.379 1_655 S
C1499 H1502 0.950 . S
C1500 C1499 1.379 1_455 S
C1500 C1503 1.396 . S
H1501 C1497 0.950 . S
H1502 C1499 0.950 . S
C1503 C1494 1.390 . S
C1503 H1496 0.950 . S
C1503 C1500 1.396 . S
C1504 C1505 1.388 . S
C1504 H1508 0.950 . S
C1504 C1513 1.390 . S
C1505 C1504 1.388 . S
C1505 C1507 1.387 1_545 S
H1506 C1513 0.950 . S
C1507 C1505 1.387 1_565 S
C1507 C1509 1.390 . S
C1507 H1511 0.950 . S
H1508 C1504 0.950 . S
C1509 C1507 1.390 . S
C1509 C1510 1.387 1_565 S
C1509 H1512 0.950 . S
C1510 C1509 1.387 1_545 S
C1510 C1513 1.388 . S
H1511 C1507 0.950 . S
H1512 C1509 0.950 . S
C1513 C1504 1.390 . S
C1513 H1506 0.950 . S
C1513 C1510 1.388 . S
C1514 C1515 1.379 1_655 S
C1514 H1518 0.950 . S
C1514 C1523 1.390 . S
C1515 C1514 1.379 1_455 S
C1515 C1517 1.396 . S
H1516 C1523 0.950 . S
C1517 C1515 1.396 . S
C1517 C1519 1.390 . S
C1517 H1521 0.950 . S
H1518 C1514 0.950 . S
C1519 C1517 1.390 . S
C1519 C1520 1.396 . S
C1519 H1522 0.950 . S
C1520 C1519 1.396 . S
C1520 C1523 1.379 1_455 S
H1521 C1517 0.950 . S
H1522 C1519 0.950 . S
C1523 C1514 1.390 . S
C1523 H1516 0.950 . S
C1523 C1520 1.379 1_655 S
C1524 C1525 1.388 1_565 S
C1524 H1528 0.950 . S
C1524 C1533 1.390 . S
C1525 C1524 1.388 1_545 S
C1525 C1527 1.387 . S
H1526 C1533 0.950 . S
C1527 C1525 1.387 . S
C1527 C1529 1.390 . S
C1527 H1531 0.950 . S
H1528 C1524 0.950 . S
C1529 C1527 1.390 . S
C1529 C1530 1.387 . S
C1529 H1532 0.950 . S
C1530 C1529 1.387 . S
C1530 C1533 1.388 1_545 S
H1531 C1527 0.950 . S
H1532 C1529 0.950 . S
C1533 C1524 1.390 . S
C1533 H1526 0.950 . S
C1533 C1530 1.388 1_565 S
C1534 C1535 1.380 1_655 S
C1534 H1538 0.950 . S
C1534 C1543 1.390 . S
C1535 C1534 1.380 1_455 S
C1535 C1537 1.395 . S
H1536 C1543 0.950 . S
C1537 C1535 1.395 . S
C1537 C1539 1.390 . S
C1537 H1541 0.950 . S
H1538 C1534 0.950 . S
C1539 C1537 1.390 . S
C1539 C1540 1.396 . S
C1539 H1542 0.950 . S
C1540 C1539 1.396 . S
C1540 C1543 1.379 1_455 S
H1541 C1537 0.950 . S
H1542 C1539 0.950 . S
C1543 C1534 1.390 . S
C1543 H1536 0.950 . S
C1543 C1540 1.379 1_655 S
C1544 C1545 1.387 1_565 S
C1544 H1548 0.950 . S
C1544 C1553 1.390 . S
C1545 C1544 1.387 1_545 S
C1545 C1547 1.388 . S
H1546 C1553 0.950 . S
C1547 C1545 1.388 . S
C1547 C1549 1.390 . S
C1547 H1551 0.950 . S
H1548 C1544 0.950 . S
C1549 C1547 1.390 . S
C1549 C1550 1.388 . S
C1549 H1552 0.950 . S
C1550 C1549 1.388 . S
C1550 C1553 1.387 1_545 S
H1551 C1547 0.950 . S
H1552 C1549 0.950 . S
C1553 C1544 1.390 . S
C1553 H1546 0.950 . S
C1553 C1550 1.387 1_565 S
C1554 C1555 1.379 1_655 S
C1554 H1558 0.950 . S
C1554 C1563 1.390 . S
C1555 C1554 1.379 1_455 S
C1555 C1557 1.396 . S
H1556 C1563 0.950 . S
C1557 C1555 1.396 . S
C1557 C1559 1.390 . S
C1557 H1561 0.950 . S
H1558 C1554 0.950 . S
C1559 C1557 1.390 . S
C1559 C1560 1.396 . S
C1559 H1562 0.950 . S
C1560 C1559 1.396 . S
C1560 C1563 1.379 1_455 S
H1561 C1557 0.950 . S
H1562 C1559 0.950 . S
C1563 C1554 1.390 . S
C1563 H1556 0.950 . S
C1563 C1560 1.379 1_655 S
C1564 C1565 1.405 . S
C1564 H1568 0.950 . S
C1564 C1573 1.390 . S
C1565 C1564 1.405 . S
C1565 C1567 1.370 1_554 S
H1566 C1573 0.950 . S
C1567 C1565 1.370 1_556 S
C1567 C1569 1.390 . S
C1567 H1571 0.950 . S
H1568 C1564 0.950 . S
C1569 C1567 1.390 . S
C1569 C1570 1.371 1_556 S
C1569 H1572 0.950 . S
C1570 C1569 1.371 1_554 S
C1570 C1573 1.404 . S
H1571 C1567 0.950 . S
H1572 C1569 0.950 . S
C1573 C1564 1.390 . S
C1573 H1566 0.950 . S
C1573 C1570 1.404 . S
C1574 C1575 1.404 . S
C1574 H1578 0.950 . S
C1574 C1583 1.390 . S
C1575 C1574 1.404 . S
C1575 C1577 1.371 1_554 S
H1576 C1583 0.950 . S
C1577 C1575 1.371 1_556 S
C1577 C1579 1.390 . S
C1577 H1581 0.950 . S
H1578 C1574 0.950 . S
C1579 C1577 1.390 . S
C1579 C1580 1.372 1_556 S
C1579 H1582 0.950 . S
C1580 C1579 1.372 1_554 S
C1580 C1583 1.403 . S
H1581 C1577 0.950 . S
H1582 C1579 0.950 . S
C1583 C1574 1.390 . S
C1583 H1576 0.950 . S
C1583 C1580 1.403 . S
C1584 C1585 1.367 1_556 S
C1584 H1588 0.950 . S
C1584 C1593 1.390 . S
C1585 C1584 1.367 1_554 S
C1585 C1587 1.408 . S
H1586 C1593 0.950 . S
C1587 C1585 1.408 . S
C1587 C1589 1.390 . S
C1587 H1591 0.950 . S
H1588 C1584 0.950 . S
C1589 C1587 1.390 . S
C1589 C1590 1.409 . S
C1589 H1592 0.950 . S
C1590 C1589 1.409 . S
C1590 C1593 1.366 1_554 S
H1591 C1587 0.950 . S
H1592 C1589 0.950 . S
C1593 C1584 1.390 . S
C1593 H1586 0.950 . S
C1593 C1590 1.366 1_556 S
C1594 C1595 1.370 1_556 S
C1594 H1598 0.950 . S
C1594 C1603 1.390 . S
C1595 C1594 1.370 1_554 S
C1595 C1597 1.405 . S
H1596 C1603 0.950 . S
C1597 C1595 1.405 . S
C1597 C1599 1.390 . S
C1597 H1601 0.950 . S
H1598 C1594 0.950 . S
C1599 C1597 1.390 . S
C1599 C1600 1.404 . S
C1599 H1602 0.950 . S
C1600 C1599 1.404 . S
C1600 C1603 1.371 1_554 S
H1601 C1597 0.950 . S
H1602 C1599 0.950 . S
C1603 C1594 1.390 . S
C1603 H1596 0.950 . S
C1603 C1600 1.371 1_556 S
C1604 C1605 1.408 . S
C1604 H1608 0.950 . S
C1604 C1613 1.390 . S
C1605 C1604 1.408 . S
C1605 C1607 1.367 1_554 S
H1606 C1613 0.950 . S
C1607 C1605 1.367 1_556 S
C1607 C1609 1.390 . S
C1607 H1611 0.950 . S
H1608 C1604 0.950 . S
C1609 C1607 1.390 . S
C1609 C1610 1.366 1_556 S
C1609 H1612 0.950 . S
C1610 C1609 1.366 1_554 S
C1610 C1613 1.409 . S
H1611 C1607 0.950 . S
H1612 C1609 0.950 . S
C1613 C1604 1.390 . S
C1613 H1606 0.950 . S
C1613 C1610 1.409 . S
C1614 C1615 1.371 1_556 S
C1614 H1618 0.950 . S
C1614 C1623 1.390 . S
C1615 C1614 1.371 1_554 S
C1615 C1617 1.405 . S
H1616 C1623 0.950 . S
C1617 C1615 1.405 . S
C1617 C1619 1.390 . S
C1617 H1621 0.950 . S
H1618 C1614 0.950 . S
C1619 C1617 1.390 . S
C1619 C1620 1.403 . S
C1619 H1622 0.950 . S
C1620 C1619 1.403 . S
C1620 C1623 1.372 1_554 S
H1621 C1617 0.950 . S
H1622 C1619 0.950 . S
C1623 C1614 1.390 . S
C1623 H1616 0.950 . S
C1623 C1620 1.372 1_556 S
C1624 C1625 1.408 . S
C1624 H1628 0.950 . S
C1624 C1633 1.390 . S
C1625 C1624 1.408 . S
C1625 C1627 1.367 1_554 S
H1626 C1633 0.950 . S
C1627 C1625 1.367 1_556 S
C1627 C1629 1.390 . S
C1627 H1631 0.950 . S
H1628 C1624 0.950 . S
C1629 C1627 1.390 . S
C1629 C1630 1.366 1_556 S
C1629 H1632 0.950 . S
C1630 C1629 1.366 1_554 S
C1630 C1633 1.409 . S
H1631 C1627 0.950 . S
H1632 C1629 0.950 . S
C1633 C1624 1.390 . S
C1633 H1626 0.950 . S
C1633 C1630 1.409 . S
C1634 C1635 1.367 1_556 S
C1634 H1638 0.950 . S
C1634 C1643 1.390 . S
C1635 C1634 1.367 1_554 S
C1635 C1637 1.408 . S
H1636 C1643 0.950 . S
C1637 C1635 1.408 . S
C1637 C1639 1.390 . S
C1637 H1641 0.950 . S
H1638 C1634 0.950 . S
C1639 C1637 1.390 . S
C1639 C1640 1.409 . S
C1639 H1642 0.950 . S
C1640 C1639 1.409 . S
C1640 C1643 1.366 1_554 S
H1641 C1637 0.950 . S
H1642 C1639 0.950 . S
C1643 C1634 1.390 . S
C1643 H1636 0.950 . S
C1643 C1640 1.366 1_556 S
C1644 C1645 1.387 . S
C1644 H1648 0.950 . S
C1644 C1653 1.390 . S
C1645 C1644 1.387 . S
C1645 C1647 1.387 . S
H1646 C1653 0.950 . S
C1647 C1645 1.387 . S
C1647 C1649 1.390 . S
C1647 H1651 0.950 . S
H1648 C1644 0.950 . S
C1649 C1647 1.390 . S
C1649 C1650 1.387 . S
C1649 H1652 0.950 . S
C1650 C1649 1.387 . S
C1650 C1653 1.387 . S
H1651 C1647 0.950 . S
H1652 C1649 0.950 . S
C1653 C1644 1.390 . S
C1653 H1646 0.950 . S
C1653 C1650 1.387 . S
C1654 C1655 1.387 . S
C1654 H1658 0.950 . S
C1654 C1663 1.390 . S
C1655 C1654 1.387 . S
C1655 C1657 1.387 . S
H1656 C1663 0.950 . S
C1657 C1655 1.387 . S
C1657 C1659 1.390 . S
C1657 H1661 0.950 . S
H1658 C1654 0.950 . S
C1659 C1657 1.390 . S
C1659 C1660 1.387 . S
C1659 H1662 0.950 . S
C1660 C1659 1.387 . S
C1660 C1663 1.387 . S
H1661 C1657 0.950 . S
H1662 C1659 0.950 . S
C1663 C1654 1.390 . S
C1663 H1656 0.950 . S
C1663 C1660 1.387 . S
C1664 C1665 1.387 . S
C1664 H1668 0.950 . S
C1664 C1673 1.390 . S
C1665 C1664 1.387 . S
C1665 C1667 1.387 . S
H1666 C1673 0.950 . S
C1667 C1665 1.387 . S
C1667 C1669 1.390 . S
C1667 H1671 0.950 . S
H1668 C1664 0.950 . S
C1669 C1667 1.390 . S
C1669 C1670 1.387 . S
C1669 H1672 0.950 . S
C1670 C1669 1.387 . S
C1670 C1673 1.387 . S
H1671 C1667 0.950 . S
H1672 C1669 0.950 . S
C1673 C1664 1.390 . S
C1673 H1666 0.950 . S
C1673 C1670 1.387 . S
C1674 C1675 1.387 . S
C1674 H1678 0.950 . S
C1674 C1683 1.390 . S
C1675 C1674 1.387 . S
C1675 C1677 1.387 . S
H1676 C1683 0.950 . S
C1677 C1675 1.387 . S
C1677 C1679 1.390 . S
C1677 H1681 0.950 . S
H1678 C1674 0.950 . S
C1679 C1677 1.390 . S
C1679 C1680 1.387 . S
C1679 H1682 0.950 . S
C1680 C1679 1.387 . S
C1680 C1683 1.387 . S
H1681 C1677 0.950 . S
H1682 C1679 0.950 . S
C1683 C1674 1.390 . S
C1683 H1676 0.950 . S
C1683 C1680 1.387 . S
C1684 C1685 1.387 . S
C1684 H1688 0.950 . S
C1684 C1693 1.390 . S
C1685 C1684 1.387 . S
C1685 C1687 1.387 . S
H1686 C1693 0.950 . S
C1687 C1685 1.387 . S
C1687 C1689 1.390 . S
C1687 H1691 0.950 . S
H1688 C1684 0.950 . S
C1689 C1687 1.390 . S
C1689 C1690 1.387 . S
C1689 H1692 0.950 . S
C1690 C1689 1.387 . S
C1690 C1693 1.387 . S
H1691 C1687 0.950 . S
H1692 C1689 0.950 . S
C1693 C1684 1.390 . S
C1693 H1686 0.950 . S
C1693 C1690 1.387 . S
C1694 C1695 1.387 . S
C1694 H1698 0.950 . S
C1694 C1703 1.390 . S
C1695 C1694 1.387 . S
C1695 C1697 1.387 . S
H1696 C1703 0.950 . S
C1697 C1695 1.387 . S
C1697 C1699 1.390 . S
C1697 H1701 0.950 . S
H1698 C1694 0.950 . S
C1699 C1697 1.390 . S
C1699 C1700 1.387 . S
C1699 H1702 0.950 . S
C1700 C1699 1.387 . S
C1700 C1703 1.387 . S
H1701 C1697 0.950 . S
H1702 C1699 0.950 . S
C1703 C1694 1.390 . S
C1703 H1696 0.950 . S
C1703 C1700 1.387 . S
C1704 C1705 1.387 . S
C1704 H1708 0.950 . S
C1704 C1713 1.390 . S
C1705 C1704 1.387 . S
C1705 C1707 1.387 . S
H1706 C1713 0.950 . S
C1707 C1705 1.387 . S
C1707 C1709 1.390 . S
C1707 H1711 0.950 . S
H1708 C1704 0.950 . S
C1709 C1707 1.390 . S
C1709 C1710 1.387 . S
C1709 H1712 0.950 . S
C1710 C1709 1.387 . S
C1710 C1713 1.387 . S
H1711 C1707 0.950 . S
H1712 C1709 0.950 . S
C1713 C1704 1.390 . S
C1713 H1706 0.950 . S
C1713 C1710 1.387 . S
C1714 C1715 1.387 . S
C1714 H1718 0.950 . S
C1714 C1723 1.390 . S
C1715 C1714 1.387 . S
C1715 C1717 1.387 . S
H1716 C1723 0.950 . S
C1717 C1715 1.387 . S
C1717 C1719 1.390 . S
C1717 H1721 0.950 . S
H1718 C1714 0.950 . S
C1719 C1717 1.390 . S
C1719 C1720 1.387 . S
C1719 H1722 0.950 . S
C1720 C1719 1.387 . S
C1720 C1723 1.387 . S
H1721 C1717 0.950 . S
H1722 C1719 0.950 . S
C1723 C1714 1.390 . S
C1723 H1716 0.950 . S
C1723 C1720 1.387 . S
C1724 C1725 1.387 . S
C1724 H1728 0.950 . S
C1724 C1733 1.390 . S
C1725 C1724 1.387 . S
C1725 C1727 1.387 . S
H1726 C1733 0.950 . S
C1727 C1725 1.387 . S
C1727 C1729 1.390 . S
C1727 H1731 0.950 . S
H1728 C1724 0.950 . S
C1729 C1727 1.390 . S
C1729 C1730 1.387 . S
C1729 H1732 0.950 . S
C1730 C1729 1.387 . S
C1730 C1733 1.387 . S
H1731 C1727 0.950 . S
H1732 C1729 0.950 . S
C1733 C1724 1.390 . S
C1733 H1726 0.950 . S
C1733 C1730 1.387 . S
C1734 C1735 1.387 . S
C1734 H1738 0.950 . S
C1734 C1743 1.390 . S
C1735 C1734 1.387 . S
C1735 C1737 1.387 . S
H1736 C1743 0.950 . S
C1737 C1735 1.387 . S
C1737 C1739 1.390 . S
C1737 H1741 0.950 . S
H1738 C1734 0.950 . S
C1739 C1737 1.390 . S
C1739 C1740 1.387 . S
C1739 H1742 0.950 . S
C1740 C1739 1.387 . S
C1740 C1743 1.387 . S
H1741 C1737 0.950 . S
H1742 C1739 0.950 . S
C1743 C1734 1.390 . S
C1743 H1736 0.950 . S
C1743 C1740 1.387 . S
C1744 C1745 1.387 . S
C1744 H1748 0.950 . S
C1744 C1753 1.390 . S
C1745 C1744 1.387 . S
C1745 C1747 1.387 . S
H1746 C1753 0.950 . S
C1747 C1745 1.387 . S
C1747 C1749 1.390 . S
C1747 H1751 0.950 . S
H1748 C1744 0.950 . S
C1749 C1747 1.390 . S
C1749 C1750 1.387 . S
C1749 H1752 0.950 . S
C1750 C1749 1.387 . S
C1750 C1753 1.387 . S
H1751 C1747 0.950 . S
H1752 C1749 0.950 . S
C1753 C1744 1.390 . S
C1753 H1746 0.950 . S
C1753 C1750 1.387 . S
C1754 C1755 1.387 . S
C1754 H1758 0.950 . S
C1754 C1763 1.390 . S
C1755 C1754 1.387 . S
C1755 C1757 1.387 . S
H1756 C1763 0.950 . S
C1757 C1755 1.387 . S
C1757 C1759 1.390 . S
C1757 H1761 0.950 . S
H1758 C1754 0.950 . S
C1759 C1757 1.390 . S
C1759 C1760 1.387 . S
C1759 H1762 0.950 . S
C1760 C1759 1.387 . S
C1760 C1763 1.387 . S
H1761 C1757 0.950 . S
H1762 C1759 0.950 . S
C1763 C1754 1.390 . S
C1763 H1756 0.950 . S
C1763 C1760 1.387 . S
C1764 C1765 1.387 . S
C1764 H1768 0.950 . S
C1764 C1773 1.390 . S
C1765 C1764 1.387 . S
C1765 C1767 1.387 . S
H1766 C1773 0.950 . S
C1767 C1765 1.387 . S
C1767 C1769 1.390 . S
C1767 H1771 0.950 . S
H1768 C1764 0.950 . S
C1769 C1767 1.390 . S
C1769 C1770 1.387 . S
C1769 H1772 0.950 . S
C1770 C1769 1.387 . S
C1770 C1773 1.387 . S
H1771 C1767 0.950 . S
H1772 C1769 0.950 . S
C1773 C1764 1.390 . S
C1773 H1766 0.950 . S
C1773 C1770 1.387 . S
C1774 C1775 1.387 . S
C1774 H1778 0.950 . S
C1774 C1783 1.390 . S
C1775 C1774 1.387 . S
C1775 C1777 1.387 . S
H1776 C1783 0.950 . S
C1777 C1775 1.387 . S
C1777 C1779 1.390 . S
C1777 H1781 0.950 . S
H1778 C1774 0.950 . S
C1779 C1777 1.390 . S
C1779 C1780 1.387 . S
C1779 H1782 0.950 . S
C1780 C1779 1.387 . S
C1780 C1783 1.387 . S
H1781 C1777 0.950 . S
H1782 C1779 0.950 . S
C1783 C1774 1.390 . S
C1783 H1776 0.950 . S
C1783 C1780 1.387 . S
C1784 C1785 1.387 . S
C1784 H1788 0.950 . S
C1784 C1793 1.390 . S
C1785 C1784 1.387 . S
C1785 C1787 1.387 . S
H1786 C1793 0.950 . S
C1787 C1785 1.387 . S
C1787 C1789 1.390 . S
C1787 H1791 0.950 . S
H1788 C1784 0.950 . S
C1789 C1787 1.390 . S
C1789 C1790 1.387 . S
C1789 H1792 0.950 . S
C1790 C1789 1.387 . S
C1790 C1793 1.387 . S
H1791 C1787 0.950 . S
H1792 C1789 0.950 . S
C1793 C1784 1.390 . S
C1793 H1786 0.950 . S
C1793 C1790 1.387 . S
C1794 C1795 1.387 . S
C1794 H1798 0.950 . S
C1794 C1803 1.390 . S
C1795 C1794 1.387 . S
C1795 C1797 1.387 . S
H1796 C1803 0.950 . S
C1797 C1795 1.387 . S
C1797 C1799 1.390 . S
C1797 H1801 0.950 . S
H1798 C1794 0.950 . S
C1799 C1797 1.390 . S
C1799 C1800 1.387 . S
C1799 H1802 0.950 . S
C1800 C1799 1.387 . S
C1800 C1803 1.387 . S
H1801 C1797 0.950 . S
H1802 C1799 0.950 . S
C1803 C1794 1.390 . S
C1803 H1796 0.950 . S
C1803 C1800 1.387 . S
C1804 C1805 1.387 . S
C1804 H1808 0.950 . S
C1804 C1813 1.390 . S
C1805 C1804 1.387 . S
C1805 C1807 1.387 . S
H1806 C1813 0.950 . S
C1807 C1805 1.387 . S
C1807 C1809 1.390 . S
C1807 H1811 0.950 . S
H1808 C1804 0.950 . S
C1809 C1807 1.390 . S
C1809 C1810 1.387 . S
C1809 H1812 0.950 . S
C1810 C1809 1.387 . S
C1810 C1813 1.387 . S
H1811 C1807 0.950 . S
H1812 C1809 0.950 . S
C1813 C1804 1.390 . S
C1813 H1806 0.950 . S
C1813 C1810 1.387 . S
C1814 C1815 1.387 . S
C1814 H1818 0.950 . S
C1814 C1823 1.390 . S
C1815 C1814 1.387 . S
C1815 C1817 1.387 . S
H1816 C1823 0.950 . S
C1817 C1815 1.387 . S
C1817 C1819 1.390 . S
C1817 H1821 0.950 . S
H1818 C1814 0.950 . S
C1819 C1817 1.390 . S
C1819 C1820 1.387 . S
C1819 H1822 0.950 . S
C1820 C1819 1.387 . S
C1820 C1823 1.387 . S
H1821 C1817 0.950 . S
H1822 C1819 0.950 . S
C1823 C1814 1.390 . S
C1823 H1816 0.950 . S
C1823 C1820 1.387 . S
C1824 C1825 1.387 . S
C1824 H1828 0.950 . S
C1824 C1833 1.390 . S
C1825 C1824 1.387 . S
C1825 C1827 1.387 . S
H1826 C1833 0.950 . S
C1827 C1825 1.387 . S
C1827 C1829 1.390 . S
C1827 H1831 0.950 . S
H1828 C1824 0.950 . S
C1829 C1827 1.390 . S
C1829 C1830 1.387 . S
C1829 H1832 0.950 . S
C1830 C1829 1.387 . S
C1830 C1833 1.387 . S
H1831 C1827 0.950 . S
H1832 C1829 0.950 . S
C1833 C1824 1.390 . S
C1833 H1826 0.950 . S
C1833 C1830 1.387 . S
C1834 C1835 1.387 . S
C1834 H1838 0.950 . S
C1834 C1843 1.390 . S
C1835 C1834 1.387 . S
C1835 C1837 1.387 . S
H1836 C1843 0.950 . S
C1837 C1835 1.387 . S
C1837 C1839 1.390 . S
C1837 H1841 0.950 . S
H1838 C1834 0.950 . S
C1839 C1837 1.390 . S
C1839 C1840 1.387 . S
C1839 H1842 0.950 . S
C1840 C1839 1.387 . S
C1840 C1843 1.387 . S
H1841 C1837 0.950 . S
H1842 C1839 0.950 . S
C1843 C1834 1.390 . S
C1843 H1836 0.950 . S
C1843 C1840 1.387 . S
C1844 C1845 1.387 . S
C1844 H1848 0.950 . S
C1844 C1853 1.390 . S
C1845 C1844 1.387 . S
C1845 C1847 1.387 . S
H1846 C1853 0.950 . S
C1847 C1845 1.387 . S
C1847 C1849 1.390 . S
C1847 H1851 0.950 . S
H1848 C1844 0.950 . S
C1849 C1847 1.390 . S
C1849 C1850 1.387 . S
C1849 H1852 0.950 . S
C1850 C1849 1.387 . S
C1850 C1853 1.387 . S
H1851 C1847 0.950 . S
H1852 C1849 0.950 . S
C1853 C1844 1.390 . S
C1853 H1846 0.950 . S
C1853 C1850 1.387 . S
C1854 C1855 1.387 . S
C1854 H1858 0.950 . S
C1854 C1863 1.390 . S
C1855 C1854 1.387 . S
C1855 C1857 1.387 . S
H1856 C1863 0.950 . S
C1857 C1855 1.387 . S
C1857 C1859 1.390 . S
C1857 H1861 0.950 . S
H1858 C1854 0.950 . S
C1859 C1857 1.390 . S
C1859 C1860 1.387 . S
C1859 H1862 0.950 . S
C1860 C1859 1.387 . S
C1860 C1863 1.387 . S
H1861 C1857 0.950 . S
H1862 C1859 0.950 . S
C1863 C1854 1.390 . S
C1863 H1856 0.950 . S
C1863 C1860 1.387 . S
C1864 C1865 1.387 . S
C1864 H1868 0.950 . S
C1864 C1873 1.390 . S
C1865 C1864 1.387 . S
C1865 C1867 1.387 . S
H1866 C1873 0.950 . S
C1867 C1865 1.387 . S
C1867 C1869 1.390 . S
C1867 H1871 0.950 . S
H1868 C1864 0.950 . S
C1869 C1867 1.390 . S
C1869 C1870 1.387 . S
C1869 H1872 0.950 . S
C1870 C1869 1.387 . S
C1870 C1873 1.387 . S
H1871 C1867 0.950 . S
H1872 C1869 0.950 . S
C1873 C1864 1.390 . S
C1873 H1866 0.950 . S
C1873 C1870 1.387 . S
C1874 C1875 1.387 . S
C1874 H1878 0.950 . S
C1874 C1883 1.390 . S
C1875 C1874 1.387 . S
C1875 C1877 1.387 . S
H1876 C1883 0.950 . S
C1877 C1875 1.387 . S
C1877 C1879 1.390 . S
C1877 H1881 0.950 . S
H1878 C1874 0.950 . S
C1879 C1877 1.390 . S
C1879 C1880 1.387 . S
C1879 H1882 0.950 . S
C1880 C1879 1.387 . S
C1880 C1883 1.387 . S
H1881 C1877 0.950 . S
H1882 C1879 0.950 . S
C1883 C1874 1.390 . S
C1883 H1876 0.950 . S
C1883 C1880 1.387 . S
C1170 C870 1.138 . S
C1165 C859 1.136 . S
C1175 C787 1.135 . S
C1180 C868 1.137 . S
C1190 C869 1.138 . S
C1185 C751 1.136 . S
C1195 C823 1.137 . S
C1200 C871 1.140 . S
C1210 C915 1.138 . S
C1205 C607 1.134 . S
C1220 C975 1.139 . S
C1215 C643 1.136 . S
C1225 C679 1.134 . S
C1230 C914 1.138 . S
C1240 C974 1.138 . S
C1235 C715 1.136 . S
C1245 C463 1.136 . S
C1250 C916 1.140 . S
C1260 C972 1.136 . S
C1255 C499 1.133 . S
C1265 C535 1.137 . S
C1270 C917 1.139 . S
C1275 C571 1.134 . S
C1280 C973 1.137 . S
C1290 C1023 1.138 . S
C1285 C427 1.134 1_554 S
C1295 C355 1.133 1_554 S
C1300 C1022 1.137 . S
C1305 C319 1.138 . S
C1310 C1024 1.138 . S
C1320 C1025 1.139 . S
C1315 C391 1.135 1_554 S
C1325 C175 1.134 1_455 S
C1330 C1066 1.138 . S
C1335 C211 1.137 . S
C1340 C1125 1.139 . S
C1345 C247 1.135 . S
C1350 C1064 1.137 . S
C1355 C283 1.135 1_545 S
C1360 C1124 1.138 . S
C1370 C1065 1.139 . S
C1365 C31 1.135 1_455 S
C1380 C1122 1.136 . S
C1375 C67 1.133 1_545 S
C1385 C103 1.138 . S
C1390 C1067 1.140 . S
C1400 C1123 1.137 . S
C1395 C139 1.134 . S
C1410 C867 2.078 . S
C1405 C25 1.862 1_455 S
C1415 C61 1.856 1_545 S
C1420 C873 2.075 . S
C1425 C97 1.859 . S
C1430 C865 2.077 . S
C1435 C133 1.861 . S
C1440 C872 2.077 . S
C1445 C169 1.862 1_455 S
C1450 C864 2.078 . S
C1460 C874 2.073 . S
C1455 C181 1.923 . S
C1465 C241 1.858 . S
C1470 C866 2.076 . S
C1480 C875 2.072 . S
C1475 C253 1.922 1_545 S
C1490 C921 2.075 . S
C1485 C109 1.925 . S
C1495 C1 1.923 1_455 S
C1500 C964 2.074 . S
C1510 C919 2.072 . S
C1505 C37 1.922 1_545 S
C1520 C966 2.074 . S
C1515 C73 1.924 . S
C1525 C205 1.861 . S
C1530 C920 2.077 . S
C1540 C965 2.073 . S
C1535 C217 1.923 . S
C1550 C918 2.075 . S
C1545 C277 1.857 1_545 S
C1560 C967 2.075 . S
C1555 C145 1.926 1_455 S
C1570 C971 2.076 . S
C1565 C289 1.928 . S
C1575 C325 1.923 1_554 S
C1580 C970 2.074 . S
C1590 C922 2.079 . S
C1585 C313 1.863 . S
C1600 C969 2.076 . S
C1595 C361 1.926 1_554 S
C1605 C397 1.923 1_554 S
C1610 C925 2.075 . S
C1615 C421 1.857 1_554 S
C1620 C968 2.077 . S
C1630 C924 2.079 . S
C1625 C349 1.862 1_554 S
C1640 C923 2.077 . S
C1635 C385 1.857 1_554 S
C1650 C1017 2.077 . S
C1645 C457 1.858 . S
C1660 C1020 2.077 . S
C1655 C493 1.860 . S
C1665 C529 1.859 . S
C1670 C1016 2.077 . S
C1680 C1018 2.075 . S
C1675 C565 1.857 . S
C1690 C1014 2.078 . S
C1685 C601 1.862 . S
C1695 C613 1.926 . S
C1700 C1019 2.075 . S
C1705 C673 1.858 . S
C1710 C1015 2.076 . S
C1720 C1021 2.075 . S
C1715 C685 1.926 . S
C1730 C1075 2.073 . S
C1725 C541 1.922 . S
C1735 C433 1.924 . S
C1740 C1114 2.074 . S
C1750 C1074 2.072 . S
C1745 C469 1.922 . S
C1760 C1116 2.076 . S
C1755 C505 1.927 . S
C1770 C1073 2.077 . S
C1765 C637 1.861 . S
C1775 C649 1.926 . S
C1780 C1115 2.075 . S
C1790 C1072 2.077 . S
C1785 C709 1.861 . S
C1800 C1117 2.075 . S
C1795 C577 1.926 . S
C1810 C1121 2.076 . S
C1805 C721 1.927 . S
C1815 C757 1.927 . S
C1820 C1120 2.076 . S
C1830 C1068 2.079 . S
C1825 C745 1.863 . S
C1835 C793 1.927 . S
C1840 C1119 2.076 . S
C1850 C1071 2.074 . S
C1845 C829 1.924 . S
C1860 C1118 2.077 . S
C1855 C853 1.858 . S
C1870 C1069 2.077 . S
C1865 C781 1.859 . S
C1875 C817 1.859 . S
C1880 C1070 2.077 . S
