# Generated by pormake.
# Topology pyr, (3,6)-cn, num edge types: 1
# Building blocks:
#     Node 0, Type 0, BuildingBlock: CUQRIR_clean_linker_1, # of connection points: 3
#     Node 1, Type 0, BuildingBlock: CUQRIR_clean_linker_1, # of connection points: 3
#     Node 2, Type 0, BuildingBlock: CUQRIR_clean_linker_1, # of connection points: 3
#     Node 3, Type 0, BuildingBlock: CUQRIR_clean_linker_1, # of connection points: 3
#     Node 4, Type 0, BuildingBlock: CUQRIR_clean_linker_1, # of connection points: 3
#     Node 5, Type 0, BuildingBlock: CUQRIR_clean_linker_1, # of connection points: 3
#     Node 6, Type 0, BuildingBlock: CUQRIR_clean_linker_1, # of connection points: 3
#     Node 7, Type 0, BuildingBlock: CUQRIR_clean_linker_1, # of connection points: 3
#     Node 8, Type 1, BuildingBlock: PAMTOO_clean_sbu_0, # of connection points: 6
#     Node 9, Type 1, BuildingBlock: PAMTOO_clean_sbu_0, # of connection points: 6
#     Node 10, Type 1, BuildingBlock: PAMTOO_clean_sbu_0, # of connection points: 6
#     Node 11, Type 1, BuildingBlock: PAMTOO_clean_sbu_0, # of connection points: 6
#     Edge 12, Type (0, 1), BuildingBlock: OJICUG_clean_linker_0, # of connection points: 2
#     Edge 13, Type (0, 1), BuildingBlock: OJICUG_clean_linker_0, # of connection points: 2
#     Edge 14, Type (0, 1), BuildingBlock: OJICUG_clean_linker_0, # of connection points: 2
#     Edge 15, Type (0, 1), BuildingBlock: OJICUG_clean_linker_0, # of connection points: 2
#     Edge 16, Type (0, 1), BuildingBlock: OJICUG_clean_linker_0, # of connection points: 2
#     Edge 17, Type (0, 1), BuildingBlock: OJICUG_clean_linker_0, # of connection points: 2
#     Edge 18, Type (0, 1), BuildingBlock: OJICUG_clean_linker_0, # of connection points: 2
#     Edge 19, Type (0, 1), BuildingBlock: OJICUG_clean_linker_0, # of connection points: 2
#     Edge 20, Type (0, 1), BuildingBlock: OJICUG_clean_linker_0, # of connection points: 2
#     Edge 21, Type (0, 1), BuildingBlock: OJICUG_clean_linker_0, # of connection points: 2
#     Edge 22, Type (0, 1), BuildingBlock: OJICUG_clean_linker_0, # of connection points: 2
#     Edge 23, Type (0, 1), BuildingBlock: OJICUG_clean_linker_0, # of connection points: 2
#     Edge 24, Type (0, 1), BuildingBlock: OJICUG_clean_linker_0, # of connection points: 2
#     Edge 25, Type (0, 1), BuildingBlock: OJICUG_clean_linker_0, # of connection points: 2
#     Edge 26, Type (0, 1), BuildingBlock: OJICUG_clean_linker_0, # of connection points: 2
#     Edge 27, Type (0, 1), BuildingBlock: OJICUG_clean_linker_0, # of connection points: 2
#     Edge 28, Type (0, 1), BuildingBlock: OJICUG_clean_linker_0, # of connection points: 2
#     Edge 29, Type (0, 1), BuildingBlock: OJICUG_clean_linker_0, # of connection points: 2
#     Edge 30, Type (0, 1), BuildingBlock: OJICUG_clean_linker_0, # of connection points: 2
#     Edge 31, Type (0, 1), BuildingBlock: OJICUG_clean_linker_0, # of connection points: 2
#     Edge 32, Type (0, 1), BuildingBlock: OJICUG_clean_linker_0, # of connection points: 2
#     Edge 33, Type (0, 1), BuildingBlock: OJICUG_clean_linker_0, # of connection points: 2
#     Edge 34, Type (0, 1), BuildingBlock: OJICUG_clean_linker_0, # of connection points: 2
#     Edge 35, Type (0, 1), BuildingBlock: OJICUG_clean_linker_0, # of connection points: 2
# Relax obj value: 0.291
# Max RMSD: 0.295
# Mean RMSD: 0.175
data_MOF--net-pyr--node1-PAMTOO_clean_sbu_0--node2-CUQRIR_clean_linker_1--edge1-OJICUG_clean_linker_0
_symmetry_space_group_name_H-M    P1
_symmetry_Int_Tables_number       1
_symmetry_cell_setting            triclinic
loop_
_symmetry_equiv_pos_as_xyz
'x, y, z'
_cell_length_a     24.829101
_cell_length_b     25.20259
_cell_length_c     23.979251
_cell_angle_alpha  89.511335
_cell_angle_beta   90.446686
_cell_angle_gamma 111.02448
loop_
_atom_site_label
_atom_site_type_symbol
_atom_site_fract_x
_atom_site_fract_y
_atom_site_fract_z
_atom_type_partial_charge
C0 C 0.41547 0.43967 0.29379 0.0
N1 N 0.44847 0.40764 0.30246 0.0
N2 N 0.40587 0.44468 0.23862 0.0
C3 C 0.38199 0.45491 0.33939 0.0
C4 C 0.43581 0.41575 0.21396 0.0
N5 N 0.4621 0.39357 0.25257 0.0
C6 C 0.43431 0.40467 0.15241 0.0
H7 H 0.36053 0.48414 0.32471 0.0
H8 H 0.41132 0.47575 0.37424 0.0
H9 H 0.34872 0.41555 0.35582 0.0
H10 H 0.43151 0.44168 0.12881 0.0
H11 H 0.39537 0.36721 0.14228 0.0
H12 H 0.47315 0.396 0.13938 0.0
C13 C 0.10381 0.8228 0.7892 0.0
N14 N 0.09091 0.86272 0.81785 0.0
N15 N 0.13342 0.79795 0.82119 0.0
C16 C 0.09561 0.81413 0.72721 0.0
C17 C 0.13309 0.82063 0.87215 0.0
N18 N 0.10862 0.86082 0.87004 0.0
C19 C 0.16881 0.81326 0.92078 0.0
H20 H 0.09343 0.77076 0.71599 0.0
H21 H 0.13255 0.84534 0.70487 0.0
H22 H 0.05559 0.82056 0.71341 0.0
H23 H 0.21033 0.84986 0.92203 0.0
H24 H 0.17786 0.77345 0.91745 0.0
H25 H 0.14602 0.812 0.96061 0.0
C26 C 0.60325 0.42317 0.93039 0.0
N27 N 0.63582 0.417 0.97399 0.0
N28 N 0.62678 0.4757 0.90687 0.0
C29 C 0.54762 0.37836 0.91174 0.0
C30 C 0.67485 0.5012 0.93811 0.0
N31 N 0.68012 0.46592 0.97923 0.0
C32 C 0.7193 0.55891 0.92548 0.0
H33 H 0.55731 0.3515 0.87982 0.0
H34 H 0.51821 0.39802 0.89303 0.0
H35 H 0.52547 0.35043 0.94691 0.0
H36 H 0.70847 0.59166 0.94863 0.0
H37 H 0.71995 0.56886 0.88028 0.0
H38 H 0.76303 0.56118 0.93859 0.0
C39 C 0.84501 0.72929 0.42571 0.0
N40 N 0.89753 0.76556 0.40839 0.0
N41 N 0.82357 0.75291 0.46646 0.0
C42 C 0.81362 0.6715 0.40131 0.0
C43 C 0.86472 0.80462 0.47388 0.0
N44 N 0.90947 0.81299 0.43851 0.0
C45 C 0.86188 0.84659 0.51741 0.0
H46 H 0.76647 0.65775 0.40839 0.0
H47 H 0.82978 0.64033 0.4216 0.0
H48 H 0.82181 0.67149 0.35589 0.0
H49 H 0.83254 0.82521 0.55199 0.0
H50 H 0.8459 0.87807 0.4975 0.0
H51 H 0.90482 0.87004 0.5357 0.0
C52 C 0.5818 0.82251 1.00274 0.0
N53 N 0.61604 0.81118 0.96454 0.0
N54 N 0.55138 0.85256 0.97993 0.0
C55 C 0.58277 0.81054 1.06422 0.0
C56 C 0.56608 0.85599 0.92535 0.0
N57 N 0.6059 0.83186 0.91603 0.0
C58 C 0.55129 0.89401 0.88396 0.0
H59 H 0.59701 0.77415 1.07221 0.0
H60 H 0.53916 0.80129 1.08198 0.0
H61 H 0.61275 0.84868 1.08561 0.0
H62 H 0.58911 0.93393 0.87866 0.0
H63 H 0.51391 0.90453 0.89819 0.0
H64 H 0.54085 0.87285 0.84282 0.0
C65 C 0.9347 0.40126 0.53887 0.0
N66 N 0.96318 0.37922 0.50312 0.0
N67 N 0.90589 0.42992 0.51103 0.0
C68 C 0.92995 0.3904 0.60066 0.0
C69 C 0.9187 0.42522 0.45693 0.0
N70 N 0.9525 0.39352 0.45174 0.0
C71 C 0.88813 0.44141 0.40873 0.0
H72 H 0.88984 0.35373 0.60954 0.0
H73 H 0.92699 0.42794 0.62244 0.0
H74 H 0.96751 0.38087 0.61689 0.0
H75 H 0.91983 0.4645 0.3765 0.0
H76 H 0.86456 0.46906 0.42209 0.0
H77 H 0.85706 0.40238 0.38952 0.0
C78 C 0.33718 0.72659 0.32963 0.0
N79 N 0.38772 0.76232 0.35155 0.0
N80 N 0.32551 0.74657 0.28017 0.0
C81 C 0.29872 0.67242 0.3569 0.0
C82 C 0.37132 0.79473 0.27181 0.0
N83 N 0.4092 0.80508 0.31507 0.0
C84 C 0.37823 0.8332 0.22168 0.0
H85 H 0.30947 0.63646 0.34033 0.0
H86 H 0.2527 0.66442 0.34723 0.0
H87 H 0.30503 0.6738 0.40278 0.0
H88 H 0.36257 0.86797 0.23206 0.0
H89 H 0.35316 0.80951 0.18549 0.0
H90 H 0.42423 0.85258 0.20965 0.0
C91 C 0.10637 0.42423 0.83242 0.0
N92 N 0.1401 0.41778 0.79045 0.0
N93 N 0.12888 0.47705 0.85513 0.0
C94 C 0.05074 0.37914 0.85057 0.0
C95 C 0.1777 0.5024 0.82495 0.0
N96 N 0.1845 0.46682 0.7854 0.0
C97 C 0.22116 0.56058 0.83694 0.0
H98 H 1.02062 0.39853 0.86739 0.0
H99 H 0.06025 0.35286 0.88384 0.0
H100 H 0.02936 0.35065 0.81566 0.0
H101 H 0.22046 0.57148 0.88159 0.0
H102 H 0.21025 0.59225 0.81145 0.0
H103 H 0.26538 0.5632 0.82595 0.0
Dy104 Dy 0.12056 0.12977 0.58544 0.0
Dy105 Dy 0.98454 0.09276 0.61745 0.0
C106 C 0.07964 0.20631 0.67005 0.0
O107 O 0.09774 1.05284 0.64003 0.0
O108 O 1.02041 1.05761 0.68815 0.0
O109 O 0.20775 0.14481 0.61351 0.0
O110 O 0.1875 0.14275 0.52502 0.0
O111 O 0.99518 1.01728 0.57568 0.0
O112 O 0.07057 1.0674 0.52006 0.0
O113 O 1.00218 0.14257 0.53818 0.0
O114 O 0.09472 0.20106 0.55274 0.0
O115 O 0.89645 1.04877 0.59049 0.0
O116 O 0.91435 0.0959 0.66776 0.0
C117 C 0.06317 1.03912 0.6832 0.0
O118 O 0.1204 0.18648 0.65742 0.0
O119 O 0.02609 0.18126 0.65236 0.0
C120 C 0.28211 0.19602 0.55178 0.0
C121 C 0.37517 0.27633 0.49758 0.0
C122 C 0.33152 0.29263 0.52033 0.0
C123 C 0.28471 0.25233 0.54711 0.0
C124 C 0.32924 0.18175 0.53572 0.0
C125 C 0.37572 0.2218 0.5086 0.0
C126 C 0.22761 0.15001 0.56282 0.0
C127 C 0.02705 1.02049 0.53135 0.0
C128 C 0.04254 0.19304 0.53412 0.0
C129 C 0.83433 1.01131 0.66601 0.0
C130 C 0.75832 0.92899 0.73603 0.0
C131 C 0.73713 0.95993 0.69837 0.0
C132 C 0.77509 1.00117 0.6637 0.0
C133 C 0.85495 0.97747 0.70047 0.0
C134 C 0.81722 0.93677 0.73553 0.0
C135 C 0.87507 1.0601 0.63638 0.0
H136 H 0.33007 0.33436 0.51157 0.0
H137 H 0.24839 0.26374 0.55942 0.0
H138 H 0.32764 0.13831 0.53929 0.0
H139 H 0.40883 0.20849 0.49092 0.0
H140 H 0.69196 0.95503 0.69852 0.0
H141 H 0.75861 1.0269 0.63711 0.0
H142 H 0.90061 0.98452 0.70228 0.0
H143 H 0.83442 0.91332 0.76421 0.0
Dy144 Dy 0.46654 0.10764 0.16619 0.0
Dy145 Dy 0.60638 0.13373 0.19147 0.0
C146 C 0.50619 1.0284 0.25144 0.0
O147 O 0.49676 0.15406 0.24543 0.0
O148 O 0.58759 0.20904 0.22299 0.0
O149 O 0.37644 1.07284 0.19029 0.0
O150 O 0.40363 0.13208 0.12127 0.0
O151 O 0.60596 0.18529 0.11488 0.0
O152 O 0.51702 0.19205 0.12645 0.0
O153 O 0.57315 1.05476 0.14143 0.0
O154 O 0.48929 1.05678 0.10061 0.0
O155 O 0.68985 0.13995 0.15996 0.0
O156 O 0.6771 0.148 0.24873 0.0
C157 C 0.53781 0.20412 0.24488 0.0
O158 O 0.46715 1.03162 0.21531 0.0
O159 O 0.55808 1.06782 0.25503 0.0
C160 C 0.30872 1.06651 0.11674 0.0
C161 C 0.21784 1.00841 1.04357 0.0
C162 C 0.23962 0.97801 1.08139 0.0
C163 C 0.28501 1.00684 0.11758 0.0
C164 C 0.28462 0.09674 1.08123 0.0
C165 C 0.2399 1.06799 1.04466 0.0
C166 C 0.36014 0.09872 0.14985 0.0
C167 C 0.56877 0.2103 0.10422 0.0
C168 C 0.53151 1.03688 0.10426 0.0
C169 C 0.77124 0.19194 0.21446 0.0
C170 C 0.87465 0.26751 0.25829 0.0
C171 C 0.83097 0.28744 0.24118 0.0
C172 C 0.77907 0.24957 0.2197 0.0
C173 C 0.81771 0.1739 0.22397 0.0
C174 C 0.86935 0.21157 0.24578 0.0
C175 C 0.71352 0.14871 0.20939 0.0
H176 H 0.22385 0.93197 1.08069 0.0
H177 H 0.30276 0.9825 0.1446 0.0
H178 H 0.30199 0.14281 1.08027 0.0
H179 H 0.2239 0.09227 1.01579 0.0
H180 H 0.8339 0.33027 0.25112 0.0
H181 H 0.74347 0.26405 0.21225 0.0
H182 H 0.81224 0.12947 0.21977 0.0
H183 H 0.90231 0.19532 0.25914 0.0
Dy184 Dy 0.50447 0.5593 0.59024 0.0
Dy185 Dy 0.50839 0.66922 0.66326 0.0
C186 C 0.54603 0.57119 0.71785 0.0
O187 O 0.41136 0.53257 0.61551 0.0
O188 O 0.42184 0.60257 0.68105 0.0
O189 O 0.49425 0.47118 0.57792 0.0
O190 O 0.53503 0.53382 0.5145 0.0
O191 O 0.45548 0.67404 0.58897 0.0
O192 O 0.4868 0.62088 0.52923 0.0
O193 O 0.58427 0.69846 0.60547 0.0
O194 O 0.59542 0.61361 0.60819 0.0
O195 O 0.52039 0.75813 0.67156 0.0
O196 O 0.5046 0.70371 0.74451 0.0
C197 C 0.39093 0.55481 0.6562 0.0
O198 O 0.51653 0.53669 0.67868 0.0
O199 O 0.5579 0.62632 0.71394 0.0
C200 C 0.58025 0.46932 0.53779 0.0
C201 C 0.68713 0.453 0.54047 0.0
C202 C 0.67258 0.48327 0.58305 0.0
C203 C 0.61944 0.49088 0.58197 0.0
C204 C 0.59455 0.43881 0.49544 0.0
C205 C 0.64724 0.43023 0.49702 0.0
C206 C 0.52738 0.48328 0.53408 0.0
C207 C 0.46341 0.65964 0.53805 0.0
C208 C 0.61542 0.66739 0.59508 0.0
C209 C 0.45392 0.76618 0.73863 0.0
C210 C 0.34634 0.77419 0.763 0.0
C211 C 0.37052 0.7887 0.70975 0.0
C212 C 0.42367 0.78453 0.69757 0.0
C213 C 0.43092 0.75423 0.79265 0.0
C214 C 0.3773 0.75771 0.80461 0.0
C215 C 0.50449 0.75161 0.72371 0.0
H216 H 0.7023 0.50101 0.61716 0.0
H217 H 0.60943 0.51457 0.61521 0.0
H218 H 0.56576 0.42259 0.46052 0.0
H219 H 0.65758 0.40724 0.4633 0.0
H220 H 0.34749 0.8017 0.67701 0.0
H221 H 0.43993 0.79382 0.65543 0.0
H222 H 0.45343 0.74013 0.82509 0.0
H223 H 0.35998 0.7474 0.8463 0.0
Dy224 Dy 1.00203 0.67033 1.09175 0.0
Dy225 Dy 1.00112 0.56161 0.16798 0.0
C226 C 0.96963 0.66616 0.22068 0.0
O227 O 0.08422 0.70002 0.14245 0.0
O228 O 0.0915 0.6129 0.1466 0.0
O229 O 1.00341 0.75657 1.08313 0.0
O230 O 0.99653 0.70494 1.01008 0.0
O231 O 1.01392 0.53844 1.07976 0.0
O232 O 0.04974 0.62718 1.03978 0.0
O233 O 0.90731 0.53688 0.14836 0.0
O234 O 0.91695 0.6009 1.07636 0.0
O235 O 0.99143 0.47352 0.18152 0.0
O236 O 0.02696 0.53539 0.24647 0.0
C237 C 0.11413 0.66759 0.15439 0.0
O238 O 0.95678 0.67841 0.1701 0.0
O239 O 0.99345 0.62751 0.22843 0.0
C240 C 0.9357 0.75828 1.01444 0.0
C241 C 0.82941 0.77313 0.99535 0.0
C242 C 0.83214 0.71841 0.99652 0.0
C243 C 0.88463 0.71108 1.00606 0.0
C244 C 0.93345 0.81301 1.01207 0.0
C245 C 0.88086 0.82041 1.00244 0.0
C246 C 0.98971 0.7499 1.03039 0.0
C247 C 0.04085 0.57235 1.03862 0.0
C248 C 0.88617 0.55616 0.10567 0.0
C249 C 0.07668 0.47332 0.22742 0.0
C250 C 0.18643 0.46418 0.21588 0.0
C251 C 0.13948 0.43089 0.18305 0.0
C252 C 0.08521 0.43545 0.1887 0.0
C253 C 0.12309 0.5046 0.26197 0.0
C254 C 0.17729 0.50032 0.25605 0.0
C255 C 0.02261 0.48587 0.227 0.0
H256 H 0.79342 0.68106 0.99194 0.0
H257 H 0.88487 0.66826 1.00816 0.0
H258 H 0.97208 0.84997 1.01887 0.0
H259 H 0.88043 0.86322 1.001 0.0
H260 H 0.14506 0.40242 0.15192 0.0
H261 H 0.05045 0.41067 0.16144 0.0
H262 H 0.11813 0.53391 0.29252 0.0
H263 H 0.21213 0.52546 0.28304 0.0
C264 C 0.40824 0.31501 0.34869 0.0
C265 C 0.44253 0.37285 0.35158 0.0
H266 H 0.36297 0.2387 0.39313 0.0
C267 C 0.46071 0.39759 0.40392 0.0
H268 H 0.38988 0.29581 0.30957 0.0
C269 C 0.44176 0.36544 0.45264 0.0
C270 C 0.40677 0.30795 0.44914 0.0
H271 H 0.48609 0.44249 0.40698 0.0
H272 H 0.45189 0.38559 0.49288 0.0
C273 C 0.39191 0.28253 0.3968 0.0
C274 C 0.10109 0.89498 0.96406 0.0
C275 C 0.12265 0.90641 0.90959 0.0
H276 H 0.11519 0.9182 1.05039 0.0
C277 C 0.16953 0.95666 0.89889 0.0
H278 H 0.06584 0.8557 0.97311 0.0
C279 C 0.19708 0.99269 0.9424 0.0
C280 C 0.17925 0.97822 0.99766 0.0
H281 H 0.18868 0.96517 0.85795 0.0
H282 H 0.23571 1.02899 0.93336 0.0
C283 C 0.12967 0.93022 1.00807 0.0
C284 C 0.59019 0.46924 0.80953 0.0
C285 C 0.60597 0.49944 0.85969 0.0
H286 H 0.55889 0.46791 0.72579 0.0
C287 C 0.60222 0.55376 0.86276 0.0
H288 H 0.59366 0.42785 0.80551 0.0
C289 C 0.58357 0.57748 0.81668 0.0
C290 C 0.56721 0.54699 0.76664 0.0
H291 H 0.61344 0.57779 0.90104 0.0
H292 H 0.58115 0.61936 0.82056 0.0
C293 C 0.57062 0.49247 0.76377 0.0
C294 C 0.95378 0.71056 0.37098 0.0
C295 C 0.9301 0.75324 0.36341 0.0
H296 H 0.98446 0.64977 0.3331 0.0
C297 C 0.92275 0.76933 0.3084 0.0
H298 H 0.95792 0.69567 0.41271 0.0
C299 C 0.93652 0.74205 0.26238 0.0
C300 C 0.95792 0.69749 0.2699 0.0
H301 H 0.90256 0.80038 0.30106 0.0
H302 H 0.92854 0.75472 0.2208 0.0
C303 C 0.96785 0.68341 0.32511 0.0
C304 C 0.53864 0.35355 0.26818 0.0
C305 C 0.48555 0.34948 0.24392 0.0
H306 H 0.59793 0.31076 0.28666 0.0
C307 C 0.45121 0.29819 0.2192 0.0
H308 H 0.56529 0.39258 0.28821 0.0
C309 C 0.46796 0.25105 0.22128 0.0
C310 C 0.52071 0.25461 0.24589 0.0
H311 H 0.40937 0.29337 0.20183 0.0
H312 H 0.43942 0.21166 0.20334 0.0
C313 C 0.5568 0.30677 0.26801 0.0
C314 C 0.03331 0.92202 0.79283 0.0
C315 C 0.08529 0.91197 0.79138 0.0
H316 H 0.98509 0.97104 0.75946 0.0
C317 C 0.13078 0.9471 0.75857 0.0
H318 H 0.99772 0.89502 0.81779 0.0
C319 C 0.12389 0.98972 0.72547 0.0
C320 C 0.07112 0.99836 0.72424 0.0
H321 H 0.17128 0.9401 0.75722 0.0
H322 H 0.15965 1.01491 0.69959 0.0
C323 C 0.02625 0.96525 0.75947 0.0
C324 C 0.76266 0.4508 1.02664 0.0
C325 C 0.72452 0.48047 1.02184 0.0
H326 H 0.8438 0.45109 1.05904 0.0
C327 C 0.73617 0.53067 1.05256 0.0
H328 H 0.7559 0.41318 1.00212 0.0
C329 C 0.78726 0.55337 1.08345 0.0
C330 C 0.82678 0.52524 1.08589 0.0
H331 H 0.7075 0.55437 1.04941 0.0
H332 H 0.79732 0.59441 0.10307 0.0
C333 C 0.81318 0.47274 1.05893 0.0
C334 C 0.7328 0.76061 0.49952 0.0
C335 C 0.76977 0.72962 0.49611 0.0
H336 H 0.65594 0.76623 0.53466 0.0
C337 C 0.756 0.67835 0.52579 0.0
H338 H 0.74258 0.80017 0.47666 0.0
C339 C 0.70639 0.6587 0.55878 0.0
C340 C 0.66988 0.69029 0.56314 0.0
H341 H 0.78427 0.65418 0.52426 0.0
H342 H 0.69683 0.61887 0.58113 0.0
C343 C 0.68362 0.74144 0.53305 0.0
C344 C 0.30461 0.40239 0.2097 0.0
C345 C 0.35423 0.45104 0.21725 0.0
H346 H 0.21246 0.36827 0.20381 0.0
C347 C 0.34919 0.50466 0.21658 0.0
H348 H 0.30766 0.36059 0.21129 0.0
C349 C 0.29473 0.50924 0.21307 0.0
C350 C 0.24446 0.46018 0.21 0.0
H351 H 0.38696 0.54251 0.22314 0.0
H352 H 0.29178 0.551 0.21526 0.0
C353 C 0.2502 0.40686 0.20593 0.0
C354 C 0.58086 0.35693 1.05116 0.0
C355 C 0.62293 0.36752 1.00961 0.0
H356 H 0.53011 0.29871 0.11287 0.0
C357 C 0.64718 0.32613 0.99903 0.0
H358 H 0.56087 0.38786 1.05917 0.0
C359 C 0.63045 0.2754 1.03022 0.0
C360 C 0.58747 0.26417 1.07119 0.0
H361 H 0.6783 0.33271 0.96588 0.0
H362 H 0.65002 0.24432 1.02125 0.0
C363 C 0.56296 0.30566 1.08133 0.0
C364 C 0.95338 0.91434 0.41841 0.0
C365 C 0.95996 0.86448 0.43906 0.0
H366 H 0.96847 1.00282 0.43232 0.0
C367 C 1.00068 0.87045 0.48206 0.0
H368 H 0.92144 0.91107 0.38632 0.0
C369 C 0.02603 0.92259 0.50993 0.0
C370 C 1.01289 0.97037 0.4939 0.0
H371 H 1.00573 0.83286 0.49985 0.0
H372 H 0.05208 0.92427 0.5468 0.0
C373 C 0.97921 0.96666 0.44575 0.0
C374 C 0.19291 0.73771 0.81441 0.0
C375 C 0.18328 0.78784 0.80097 0.0
H376 H 0.25339 0.69449 0.81367 0.0
C377 C 0.2268 0.83229 0.77386 0.0
H378 H 0.16021 0.70343 0.83615 0.0
C379 C 0.27904 0.82711 0.76054 0.0
C380 C 0.28953 0.77778 0.77517 0.0
H381 H 0.2211 0.87209 0.76488 0.0
H382 H 0.31209 0.8626 0.7406 0.0
C383 C 0.24603 0.73291 0.802 0.0
C384 C 0.702 0.88852 0.88104 0.0
C385 C 0.64655 0.84889 0.87101 0.0
H386 H 0.78122 0.94362 0.84588 0.0
C387 C 0.62916 0.832 0.8162 0.0
H388 H 0.71533 0.90382 0.92279 0.0
C389 C 0.66617 0.85621 0.77162 0.0
C390 C 0.72139 0.89667 0.78185 0.0
H391 H 0.58619 0.80198 0.8081 0.0
H392 H 0.65129 0.84451 0.72932 0.0
C393 C 0.7394 0.91152 0.837 0.0
C394 C 0.9686 0.38441 0.35105 0.0
C395 C 0.94963 0.35913 0.40331 0.0
H396 H 0.95834 0.37453 0.26198 0.0
C397 C 0.91585 0.30111 0.40588 0.0
H398 H 0.99439 0.42925 0.34817 0.0
C399 C 0.8984 0.26969 0.35758 0.0
C400 C 0.91165 0.29629 0.30533 0.0
H401 H 0.89759 0.28115 0.44481 0.0
H402 H 0.86868 0.22613 0.36123 0.0
C403 C 0.9485 0.35337 0.30207 0.0
C404 C 0.40628 0.75841 0.45288 0.0
C405 C 0.41758 0.74728 0.39778 0.0
H406 H 0.41131 0.7398 0.53995 0.0
C407 C 0.44557 0.70838 0.38919 0.0
H408 H 0.38293 0.78655 0.46065 0.0
C409 C 0.46071 0.68032 0.43431 0.0
C410 C 0.44801 0.69009 0.48961 0.0
H411 H 0.45294 0.69748 0.34707 0.0
H412 H 0.48127 0.64998 0.42565 0.0
C413 C 0.42163 0.7306 0.49818 0.0
C414 C 0.08895 0.47071 0.95122 0.0
C415 C 0.10651 0.50089 0.90088 0.0
H416 H 0.05448 0.46889 1.03334 0.0
C417 C 0.10234 0.5551 0.89628 0.0
H418 H 0.09255 0.42946 0.95677 0.0
C419 C 0.08153 0.57848 0.94073 0.0
C420 C 0.06338 0.54798 0.99094 0.0
H421 H 0.11486 0.57936 0.858 0.0
H422 H 0.0791 0.62029 0.93546 0.0
C423 C 0.06735 0.49363 0.99534 0.0
C424 C 0.48904 0.90006 1.0211 0.0
C425 C 0.54388 0.89922 1.00866 0.0
H426 H 0.44151 0.94575 1.06113 0.0
C427 C 0.59313 0.94556 1.02343 0.0
H428 H 0.45067 0.86476 1.00923 0.0
C429 C 0.58821 0.99102 1.05236 0.0
C430 C 0.53378 0.99163 1.06682 0.0
H431 H 0.63566 0.94585 1.01314 0.0
H432 H 0.62735 1.02548 1.0643 0.0
C433 C 0.48394 0.94636 1.05004 0.0
C434 C 0.9518 0.28496 0.54195 0.0
C435 C 0.98644 0.33539 0.51556 0.0
H436 H 0.94163 0.20039 0.56641 0.0
C437 C 0.04072 0.33931 0.49514 0.0
H438 H 0.90912 0.2801 0.55644 0.0
C439 C 0.05997 0.29344 0.50124 0.0
C440 C 0.02405 0.24227 0.52577 0.0
H441 H 0.06772 0.37763 0.47397 0.0
H442 H 0.1021 0.29745 0.4857 0.0
C443 C 0.96998 0.23883 0.54632 0.0
C444 C 0.24244 0.76346 0.23706 0.0
C445 C 0.27295 0.72699 0.24789 0.0
H446 H 0.16883 0.77394 0.198 0.0
C447 C 0.25254 0.67219 0.22564 0.0
H448 H 0.25738 0.80585 0.25436 0.0
C449 C 0.20215 0.65389 0.19339 0.0
C450 C 0.17104 0.69012 0.18279 0.0
H451 H 0.27573 0.64372 0.23319 0.0
H452 H 0.18714 0.61089 0.17749 0.0
C453 C 0.19206 0.74532 0.20463 0.0
C454 C 0.24165 0.53121 0.71139 0.0
C455 C 0.22994 0.48152 0.74379 0.0
H456 H 0.30194 0.59347 0.65855 0.0
C457 C 0.26845 0.45207 0.7406 0.0
H458 H 0.21297 0.55491 0.71305 0.0
C459 C 0.31857 0.47315 0.70771 0.0
C460 C 0.33189 0.52483 0.67839 0.0
H461 H 0.26214 0.41506 0.76642 0.0
H462 H 0.34903 0.45132 0.7086 0.0
C463 C 0.29238 0.55308 0.67991 0.0
C464 C 0.67823 0.75601 0.94461 0.0
C465 C 0.66657 0.79719 0.97623 0.0
H466 H 0.73895 0.71615 0.92542 0.0
C467 C 0.70825 0.82969 1.01448 0.0
H468 H 0.64713 0.73136 0.91408 0.0
C469 C 0.76061 0.82144 1.02091 0.0
C470 C 0.77288 0.78073 0.98891 0.0
H471 H 0.70139 0.8633 1.03771 0.0
H472 H 0.79168 0.84728 1.05083 0.0
C473 C 0.73074 0.74756 0.95109 0.0
C474 C 0.42237 0.9019 0.34119 0.0
C475 C 0.44786 0.86234 0.32626 0.0
H476 H 0.41886 0.98487 0.32632 0.0
C477 C 0.50102 0.88286 0.29825 0.0
H478 H 0.38085 0.8871 0.36174 0.0
C479 C 0.52336 0.93928 0.27842 0.0
C480 C 0.49247 0.97583 0.28578 0.0
H481 H 0.52099 0.8533 0.28504 0.0
H482 H 0.56139 0.95231 0.25234 0.0
C483 C 0.44337 0.95754 0.31972 0.0
C484 C 0.15502 0.32778 0.77013 0.0
C485 C 0.12867 0.36723 0.757 0.0
H486 H 0.16123 0.24668 0.75231 0.0
C487 C 0.08555 0.35311 0.71558 0.0
H488 H 0.18659 0.33661 0.80347 0.0
C489 C 0.06895 0.30055 0.68808 0.0
C490 C 0.09592 0.26129 0.70063 0.0
H491 H 0.06373 0.3823 0.70563 0.0
H492 H 0.03537 0.29089 0.65655 0.0
C493 C 0.13978 0.27598 0.74145 0.0
C494 C 0.84944 0.48797 0.54028 0.0
C495 C 0.85253 0.43474 0.52859 0.0
H496 H 0.79413 0.53549 0.55374 0.0
C497 C 0.80138 0.38705 0.52496 0.0
H498 H 0.88848 0.52529 0.54207 0.0
C499 C 0.74774 0.39275 0.53045 0.0
C500 C 0.74421 0.44626 0.54026 0.0
H501 H 0.80315 0.34587 0.51499 0.0
H502 H 0.70893 0.35551 0.52572 0.0
C503 C 0.79562 0.49365 0.54662 0.0
loop_
_geom_bond_atom_site_label_1
_geom_bond_atom_site_label_2
_geom_bond_distance
_geom_bond_site_symmetry_2
_ccdc_geom_bond_type
C0 N1 1.317 . S
C0 N2 1.348 . S
C0 C3 1.485 . S
N1 C0 1.317 . S
N1 N5 1.370 . S
N2 C0 1.348 . S
N2 C4 1.346 . S
C3 C0 1.485 . S
C3 H7 0.960 . S
C3 H8 0.961 . S
C3 H9 0.960 . S
C4 N2 1.346 . S
C4 N5 1.307 . S
C4 C6 1.486 . S
N5 N1 1.370 . S
N5 C4 1.307 . S
C6 C4 1.486 . S
C6 H10 0.960 . S
C6 H11 0.960 . S
C6 H12 0.959 . S
H7 C3 0.960 . S
H8 C3 0.961 . S
H9 C3 0.960 . S
H10 C6 0.960 . S
H11 C6 0.960 . S
H12 C6 0.959 . S
C13 N14 1.317 . S
C13 N15 1.348 . S
C13 C16 1.485 . S
N14 C13 1.317 . S
N14 N18 1.370 . S
N15 C13 1.348 . S
N15 C17 1.346 . S
C16 C13 1.485 . S
C16 H20 0.960 . S
C16 H21 0.961 . S
C16 H22 0.960 . S
C17 N15 1.346 . S
C17 N18 1.307 . S
C17 C19 1.486 . S
N18 N14 1.370 . S
N18 C17 1.307 . S
C19 C17 1.486 . S
C19 H23 0.960 . S
C19 H24 0.960 . S
C19 H25 0.959 . S
H20 C16 0.960 . S
H21 C16 0.961 . S
H22 C16 0.960 . S
H23 C19 0.960 . S
H24 C19 0.960 . S
H25 C19 0.959 . S
C26 N27 1.317 . S
C26 N28 1.348 . S
C26 C29 1.485 . S
N27 C26 1.317 . S
N27 N31 1.370 . S
N28 C26 1.348 . S
N28 C30 1.346 . S
C29 C26 1.485 . S
C29 H33 0.960 . S
C29 H34 0.961 . S
C29 H35 0.960 . S
C30 N28 1.346 . S
C30 N31 1.307 . S
C30 C32 1.486 . S
N31 N27 1.370 . S
N31 C30 1.307 . S
C32 C30 1.486 . S
C32 H36 0.960 . S
C32 H37 0.960 . S
C32 H38 0.959 . S
H33 C29 0.960 . S
H34 C29 0.961 . S
H35 C29 0.960 . S
H36 C32 0.960 . S
H37 C32 0.960 . S
H38 C32 0.959 . S
C39 N40 1.317 . S
C39 N41 1.348 . S
C39 C42 1.485 . S
N40 C39 1.317 . S
N40 N44 1.370 . S
N41 C39 1.348 . S
N41 C43 1.346 . S
C42 C39 1.485 . S
C42 H46 0.960 . S
C42 H47 0.961 . S
C42 H48 0.960 . S
C43 N41 1.346 . S
C43 N44 1.307 . S
C43 C45 1.486 . S
N44 N40 1.370 . S
N44 C43 1.307 . S
C45 C43 1.486 . S
C45 H49 0.960 . S
C45 H50 0.960 . S
C45 H51 0.959 . S
H46 C42 0.960 . S
H47 C42 0.961 . S
H48 C42 0.960 . S
H49 C45 0.960 . S
H50 C45 0.960 . S
H51 C45 0.959 . S
C52 N53 1.317 . S
C52 N54 1.348 . S
C52 C55 1.485 . S
N53 C52 1.317 . S
N53 N57 1.370 . S
N54 C52 1.348 . S
N54 C56 1.346 . S
C55 C52 1.485 . S
C55 H59 0.960 . S
C55 H60 0.961 . S
C55 H61 0.960 . S
C56 N54 1.346 . S
C56 N57 1.307 . S
C56 C58 1.486 . S
N57 N53 1.370 . S
N57 C56 1.307 . S
C58 C56 1.486 . S
C58 H62 0.960 . S
C58 H63 0.960 . S
C58 H64 0.959 . S
H59 C55 0.960 . S
H60 C55 0.961 . S
H61 C55 0.960 . S
H62 C58 0.960 . S
H63 C58 0.960 . S
H64 C58 0.959 . S
C65 N66 1.317 . S
C65 N67 1.348 . S
C65 C68 1.485 . S
N66 C65 1.317 . S
N66 N70 1.370 . S
N67 C65 1.348 . S
N67 C69 1.346 . S
C68 C65 1.485 . S
C68 H72 0.960 . S
C68 H73 0.961 . S
C68 H74 0.960 1_655 S
C69 N67 1.346 . S
C69 N70 1.307 . S
C69 C71 1.486 . S
N70 N66 1.370 . S
N70 C69 1.307 . S
C71 C69 1.486 . S
C71 H75 0.960 . S
C71 H76 0.960 . S
C71 H77 0.959 . S
H72 C68 0.960 . S
H73 C68 0.961 . S
H74 C68 0.960 1_455 S
H75 C71 0.960 . S
H76 C71 0.960 . S
H77 C71 0.959 . S
C78 N79 1.317 . S
C78 N80 1.348 . S
C78 C81 1.485 . S
N79 C78 1.317 . S
N79 N83 1.370 . S
N80 C78 1.348 . S
N80 C82 1.346 . S
C81 C78 1.485 . S
C81 H85 0.960 . S
C81 H86 0.961 . S
C81 H87 0.960 . S
C82 N80 1.346 . S
C82 N83 1.307 . S
C82 C84 1.486 . S
N83 N79 1.370 . S
N83 C82 1.307 . S
C84 C82 1.486 . S
C84 H88 0.960 . S
C84 H89 0.960 . S
C84 H90 0.959 . S
H85 C81 0.960 . S
H86 C81 0.961 . S
H87 C81 0.960 . S
H88 C84 0.960 . S
H89 C84 0.960 . S
H90 C84 0.959 . S
C91 N92 1.317 . S
C91 N93 1.348 . S
C91 C94 1.485 . S
N92 C91 1.317 . S
N92 N96 1.370 . S
N93 C91 1.348 . S
N93 C95 1.346 . S
C94 C91 1.485 . S
C94 H98 0.960 . S
C94 H99 0.961 . S
C94 H100 0.960 . S
C95 N93 1.346 . S
C95 N96 1.307 . S
C95 C97 1.486 . S
N96 N92 1.370 . S
N96 C95 1.307 . S
C97 C95 1.486 . S
C97 H101 0.960 . S
C97 H102 0.960 . S
C97 H103 0.959 . S
H98 C94 0.960 . S
H99 C94 0.961 . S
H100 C94 0.960 . S
H101 C97 0.960 . S
H102 C97 0.960 . S
H103 C97 0.959 . S
Dy104 O107 2.307 1_545 S
Dy104 O109 2.395 . S
Dy104 O110 2.379 . S
Dy104 O112 2.339 1_545 S
Dy104 O114 2.298 . S
Dy104 O118 2.275 . S
Dy104 C126 2.738 . S
Dy105 O108 2.298 1_645 S
Dy105 O111 2.275 1_545 S
Dy105 O113 2.307 . S
Dy105 O115 2.395 1_545 S
Dy105 O116 2.379 1_545 S
Dy105 O119 2.339 1_655 S
Dy105 C135 2.738 1_545 S
C106 O118 1.254 . S
C106 O119 1.257 . S
O107 Dy104 2.307 1_565 S
O107 C117 1.266 . S
O108 Dy105 2.298 1_465 S
O108 C117 1.236 . S
O109 Dy104 2.395 . S
O109 C126 1.255 . S
O110 Dy104 2.379 . S
O110 C126 1.249 . S
O111 Dy105 2.275 1_565 S
O111 C127 1.254 1_655 S
O112 Dy104 2.339 1_565 S
O112 C127 1.257 . S
O113 Dy105 2.307 . S
O113 C128 1.266 1_655 S
O114 Dy104 2.298 . S
O114 C128 1.236 . S
O115 Dy105 2.395 1_565 S
O115 C135 1.255 . S
O116 Dy105 2.379 1_565 S
O116 C135 1.249 . S
C117 O107 1.266 . S
C117 O108 1.236 . S
O118 Dy104 2.275 . S
O118 C106 1.254 . S
O119 Dy105 2.339 1_455 S
O119 C106 1.257 . S
C120 C123 1.344 . S
C120 C124 1.328 . S
C120 C126 1.516 . S
C121 C122 1.304 . S
C121 C125 1.323 . S
C122 C121 1.304 . S
C122 C123 1.371 . S
C122 H136 0.930 . S
C123 C120 1.344 . S
C123 C122 1.371 . S
C123 H137 0.931 . S
C124 C120 1.328 . S
C124 C125 1.433 . S
C124 H138 0.931 . S
C125 C121 1.323 . S
C125 C124 1.433 . S
C125 H139 0.933 . S
C126 Dy104 2.738 . S
C126 O109 1.255 . S
C126 O110 1.249 . S
C126 C120 1.516 . S
C127 O111 1.254 1_455 S
C127 O112 1.257 . S
C128 O113 1.266 1_455 S
C128 O114 1.236 . S
C129 C132 1.344 . S
C129 C133 1.328 . S
C129 C135 1.516 . S
C130 C131 1.304 . S
C130 C134 1.323 . S
C131 C130 1.304 . S
C131 C132 1.371 . S
C131 H140 0.930 . S
C132 C129 1.344 . S
C132 C131 1.371 . S
C132 H141 0.931 . S
C133 C129 1.328 . S
C133 C134 1.433 . S
C133 H142 0.931 . S
C134 C130 1.323 . S
C134 C133 1.433 . S
C134 H143 0.933 . S
C135 Dy105 2.738 1_565 S
C135 O115 1.255 . S
C135 O116 1.249 . S
C135 C129 1.516 . S
H136 C122 0.930 . S
H137 C123 0.931 . S
H138 C124 0.931 . S
H139 C125 0.933 . S
H140 C131 0.930 . S
H141 C132 0.931 . S
H142 C133 0.931 . S
H143 C134 0.933 . S
Dy144 O147 2.307 . S
Dy144 O149 2.395 1_545 S
Dy144 O150 2.379 1_554 S
Dy144 O152 2.339 1_554 S
Dy144 O154 2.298 1_544 S
Dy144 O158 2.275 1_545 S
Dy144 C166 2.738 1_544 S
Dy145 O148 2.298 . S
Dy145 O151 2.275 . S
Dy145 O153 2.307 1_545 S
Dy145 O155 2.395 . S
Dy145 O156 2.379 . S
Dy145 O159 2.339 1_545 S
Dy145 C175 2.738 . S
C146 O158 1.254 . S
C146 O159 1.257 . S
O147 Dy144 2.307 . S
O147 C157 1.266 . S
O148 Dy145 2.298 . S
O148 C157 1.236 . S
O149 Dy144 2.395 1_565 S
O149 C166 1.255 1_554 S
O150 Dy144 2.379 1_556 S
O150 C166 1.249 1_545 S
O151 Dy145 2.275 . S
O151 C167 1.254 . S
O152 Dy144 2.339 1_556 S
O152 C167 1.257 1_556 S
O153 Dy145 2.307 1_565 S
O153 C168 1.266 . S
O154 Dy144 2.298 1_566 S
O154 C168 1.236 1_556 S
O155 Dy145 2.395 . S
O155 C175 1.255 . S
O156 Dy145 2.379 . S
O156 C175 1.249 . S
C157 O147 1.266 . S
C157 O148 1.236 . S
O158 Dy144 2.275 1_565 S
O158 C146 1.254 . S
O159 Dy145 2.339 1_565 S
O159 C146 1.257 . S
C160 C163 1.344 . S
C160 C164 1.328 . S
C160 C166 1.516 . S
C161 C162 1.304 . S
C161 C165 1.323 . S
C162 C161 1.304 . S
C162 C163 1.371 . S
C162 H176 0.930 . S
C163 C160 1.344 . S
C163 C162 1.371 . S
C163 H177 0.931 . S
C164 C160 1.328 . S
C164 C165 1.433 . S
C164 H178 0.931 . S
C165 C161 1.323 . S
C165 C164 1.433 . S
C165 H179 0.933 . S
C166 Dy144 2.738 1_566 S
C166 O149 1.255 1_556 S
C166 O150 1.249 1_565 S
C166 C160 1.516 . S
C167 O151 1.254 . S
C167 O152 1.257 1_554 S
C168 O153 1.266 . S
C168 O154 1.236 1_554 S
C169 C172 1.344 . S
C169 C173 1.328 . S
C169 C175 1.516 . S
C170 C171 1.304 . S
C170 C174 1.323 . S
C171 C170 1.304 . S
C171 C172 1.371 . S
C171 H180 0.930 . S
C172 C169 1.344 . S
C172 C171 1.371 . S
C172 H181 0.931 . S
C173 C169 1.328 . S
C173 C174 1.433 . S
C173 H182 0.931 . S
C174 C170 1.323 . S
C174 C173 1.433 . S
C174 H183 0.933 . S
C175 Dy145 2.738 . S
C175 O155 1.255 . S
C175 O156 1.249 . S
C175 C169 1.516 . S
H176 C162 0.930 . S
H177 C163 0.931 . S
H178 C164 0.931 . S
H179 C165 0.933 . S
H180 C171 0.930 . S
H181 C172 0.931 . S
H182 C173 0.931 . S
H183 C174 0.933 . S
Dy184 O187 2.307 . S
Dy184 O189 2.395 . S
Dy184 O190 2.379 . S
Dy184 O192 2.339 . S
Dy184 O194 2.298 . S
Dy184 O198 2.275 . S
Dy184 C206 2.738 . S
Dy185 O188 2.298 . S
Dy185 O191 2.275 . S
Dy185 O193 2.307 . S
Dy185 O195 2.395 . S
Dy185 O196 2.379 . S
Dy185 O199 2.339 . S
Dy185 C215 2.738 . S
C186 O198 1.254 . S
C186 O199 1.257 . S
O187 Dy184 2.307 . S
O187 C197 1.266 . S
O188 Dy185 2.298 . S
O188 C197 1.236 . S
O189 Dy184 2.395 . S
O189 C206 1.255 . S
O190 Dy184 2.379 . S
O190 C206 1.249 . S
O191 Dy185 2.275 . S
O191 C207 1.254 . S
O192 Dy184 2.339 . S
O192 C207 1.257 . S
O193 Dy185 2.307 . S
O193 C208 1.266 . S
O194 Dy184 2.298 . S
O194 C208 1.236 . S
O195 Dy185 2.395 . S
O195 C215 1.255 . S
O196 Dy185 2.379 . S
O196 C215 1.249 . S
C197 O187 1.266 . S
C197 O188 1.236 . S
O198 Dy184 2.275 . S
O198 C186 1.254 . S
O199 Dy185 2.339 . S
O199 C186 1.257 . S
C200 C203 1.344 . S
C200 C204 1.328 . S
C200 C206 1.516 . S
C201 C202 1.304 . S
C201 C205 1.323 . S
C202 C201 1.304 . S
C202 C203 1.371 . S
C202 H216 0.930 . S
C203 C200 1.344 . S
C203 C202 1.371 . S
C203 H217 0.931 . S
C204 C200 1.328 . S
C204 C205 1.433 . S
C204 H218 0.931 . S
C205 C201 1.323 . S
C205 C204 1.433 . S
C205 H219 0.933 . S
C206 Dy184 2.738 . S
C206 O189 1.255 . S
C206 O190 1.249 . S
C206 C200 1.516 . S
C207 O191 1.254 . S
C207 O192 1.257 . S
C208 O193 1.266 . S
C208 O194 1.236 . S
C209 C212 1.344 . S
C209 C213 1.328 . S
C209 C215 1.516 . S
C210 C211 1.304 . S
C210 C214 1.323 . S
C211 C210 1.304 . S
C211 C212 1.371 . S
C211 H220 0.930 . S
C212 C209 1.344 . S
C212 C211 1.371 . S
C212 H221 0.931 . S
C213 C209 1.328 . S
C213 C214 1.433 . S
C213 H222 0.931 . S
C214 C210 1.323 . S
C214 C213 1.433 . S
C214 H223 0.933 . S
C215 Dy185 2.738 . S
C215 O195 1.255 . S
C215 O196 1.249 . S
C215 C209 1.516 . S
H216 C202 0.930 . S
H217 C203 0.931 . S
H218 C204 0.931 . S
H219 C205 0.933 . S
H220 C211 0.930 . S
H221 C212 0.931 . S
H222 C213 0.931 . S
H223 C214 0.933 . S
Dy224 O227 2.307 1_556 S
Dy224 O229 2.395 1_455 S
Dy224 O230 2.379 1_455 S
Dy224 O232 2.339 . S
Dy224 O234 2.298 1_455 S
Dy224 O238 2.275 1_456 S
Dy224 C246 2.738 1_455 S
Dy225 O228 2.298 . S
Dy225 O231 2.275 1_554 S
Dy225 O233 2.307 1_455 S
Dy225 O235 2.395 . S
Dy225 O236 2.379 . S
Dy225 O239 2.339 1_455 S
Dy225 C255 2.738 . S
C226 O238 1.254 . S
C226 O239 1.257 . S
O227 Dy224 2.307 1_554 S
O227 C237 1.266 . S
O228 Dy225 2.298 . S
O228 C237 1.236 . S
O229 Dy224 2.395 1_655 S
O229 C246 1.255 . S
O230 Dy224 2.379 1_655 S
O230 C246 1.249 . S
O231 Dy225 2.275 1_556 S
O231 C247 1.254 . S
O232 Dy224 2.339 . S
O232 C247 1.257 . S
O233 Dy225 2.307 1_655 S
O233 C248 1.266 1_554 S
O234 Dy224 2.298 1_655 S
O234 C248 1.236 . S
O235 Dy225 2.395 . S
O235 C255 1.255 . S
O236 Dy225 2.379 . S
O236 C255 1.249 . S
C237 O227 1.266 . S
C237 O228 1.236 . S
O238 Dy224 2.275 1_654 S
O238 C226 1.254 . S
O239 Dy225 2.339 1_655 S
O239 C226 1.257 . S
C240 C243 1.344 . S
C240 C244 1.328 . S
C240 C246 1.516 . S
C241 C242 1.304 . S
C241 C245 1.323 . S
C242 C241 1.304 . S
C242 C243 1.371 . S
C242 H256 0.930 . S
C243 C240 1.344 . S
C243 C242 1.371 . S
C243 H257 0.931 . S
C244 C240 1.328 . S
C244 C245 1.433 . S
C244 H258 0.931 . S
C245 C241 1.323 . S
C245 C244 1.433 . S
C245 H259 0.933 . S
C246 Dy224 2.738 1_655 S
C246 O229 1.255 . S
C246 O230 1.249 . S
C246 C240 1.516 . S
C247 O231 1.254 . S
C247 O232 1.257 . S
C248 O233 1.266 1_556 S
C248 O234 1.236 . S
C249 C252 1.344 . S
C249 C253 1.328 . S
C249 C255 1.516 . S
C250 C251 1.304 . S
C250 C254 1.323 . S
C251 C250 1.304 . S
C251 C252 1.371 . S
C251 H260 0.930 . S
C252 C249 1.344 . S
C252 C251 1.371 . S
C252 H261 0.931 . S
C253 C249 1.328 . S
C253 C254 1.433 . S
C253 H262 0.931 . S
C254 C250 1.323 . S
C254 C253 1.433 . S
C254 H263 0.933 . S
C255 Dy225 2.738 . S
C255 O235 1.255 . S
C255 O236 1.249 . S
C255 C249 1.516 . S
H256 C242 0.930 . S
H257 C243 0.931 . S
H258 C244 0.931 . S
H259 C245 0.933 . S
H260 C251 0.930 . S
H261 C252 0.931 . S
H262 C253 0.931 . S
H263 C254 0.933 . S
C264 C265 1.387 . S
C264 H268 0.950 . S
C264 C273 1.390 . S
C265 C264 1.387 . S
C265 C267 1.387 . S
H266 C273 0.950 . S
C267 C265 1.387 . S
C267 C269 1.390 . S
C267 H271 0.950 . S
H268 C264 0.950 . S
C269 C267 1.390 . S
C269 C270 1.387 . S
C269 H272 0.950 . S
C270 C269 1.387 . S
C270 C273 1.387 . S
H271 C267 0.950 . S
H272 C269 0.950 . S
C273 C264 1.390 . S
C273 H266 0.950 . S
C273 C270 1.387 . S
C274 C275 1.387 . S
C274 H278 0.950 . S
C274 C283 1.390 . S
C275 C274 1.387 . S
C275 C277 1.387 . S
H276 C283 0.950 . S
C277 C275 1.387 . S
C277 C279 1.390 . S
C277 H281 0.950 . S
H278 C274 0.950 . S
C279 C277 1.390 . S
C279 C280 1.387 . S
C279 H282 0.950 . S
C280 C279 1.387 . S
C280 C283 1.387 . S
H281 C277 0.950 . S
H282 C279 0.950 . S
C283 C274 1.390 . S
C283 H276 0.950 . S
C283 C280 1.387 . S
C284 C285 1.387 . S
C284 H288 0.950 . S
C284 C293 1.390 . S
C285 C284 1.387 . S
C285 C287 1.387 . S
H286 C293 0.950 . S
C287 C285 1.387 . S
C287 C289 1.390 . S
C287 H291 0.950 . S
H288 C284 0.950 . S
C289 C287 1.390 . S
C289 C290 1.387 . S
C289 H292 0.950 . S
C290 C289 1.387 . S
C290 C293 1.387 . S
H291 C287 0.950 . S
H292 C289 0.950 . S
C293 C284 1.390 . S
C293 H286 0.950 . S
C293 C290 1.387 . S
C294 C295 1.387 . S
C294 H298 0.950 . S
C294 C303 1.390 . S
C295 C294 1.387 . S
C295 C297 1.387 . S
H296 C303 0.950 1_455 S
C297 C295 1.387 . S
C297 C299 1.390 . S
C297 H301 0.950 . S
H298 C294 0.950 . S
C299 C297 1.390 . S
C299 C300 1.387 . S
C299 H302 0.950 . S
C300 C299 1.387 . S
C300 C303 1.387 . S
H301 C297 0.950 . S
H302 C299 0.950 . S
C303 C294 1.390 . S
C303 H296 0.950 1_655 S
C303 C300 1.387 . S
C304 C305 1.387 . S
C304 H308 0.950 . S
C304 C313 1.390 . S
C305 C304 1.387 . S
C305 C307 1.387 . S
H306 C313 0.950 . S
C307 C305 1.387 . S
C307 C309 1.390 . S
C307 H311 0.950 . S
H308 C304 0.950 . S
C309 C307 1.390 . S
C309 C310 1.387 . S
C309 H312 0.950 . S
C310 C309 1.387 . S
C310 C313 1.387 . S
H311 C307 0.950 . S
H312 C309 0.950 . S
C313 C304 1.390 . S
C313 H306 0.950 . S
C313 C310 1.387 . S
C314 C315 1.387 . S
C314 H318 0.950 1_455 S
C314 C323 1.390 . S
C315 C314 1.387 . S
C315 C317 1.387 . S
H316 C323 0.950 1_655 S
C317 C315 1.387 . S
C317 C319 1.390 . S
C317 H321 0.950 . S
H318 C314 0.950 1_655 S
C319 C317 1.390 . S
C319 C320 1.387 . S
C319 H322 0.950 . S
C320 C319 1.387 . S
C320 C323 1.387 . S
H321 C317 0.950 . S
H322 C319 0.950 . S
C323 C314 1.390 . S
C323 H316 0.950 1_455 S
C323 C320 1.387 . S
C324 C325 1.387 . S
C324 H328 0.950 . S
C324 C333 1.390 . S
C325 C324 1.387 . S
C325 C327 1.387 . S
H326 C333 0.950 1_554 S
C327 C325 1.387 . S
C327 C329 1.390 . S
C327 H331 0.950 . S
H328 C324 0.950 . S
C329 C327 1.390 . S
C329 C330 1.387 . S
C329 H332 0.950 . S
C330 C329 1.387 . S
C330 C333 1.387 . S
H331 C327 0.950 . S
H332 C329 0.950 . S
C333 C324 1.390 . S
C333 H326 0.950 1_556 S
C333 C330 1.387 . S
C334 C335 1.387 . S
C334 H338 0.950 . S
C334 C343 1.390 . S
C335 C334 1.387 . S
C335 C337 1.387 . S
H336 C343 0.950 . S
C337 C335 1.387 . S
C337 C339 1.390 . S
C337 H341 0.950 . S
H338 C334 0.950 . S
C339 C337 1.390 . S
C339 C340 1.387 . S
C339 H342 0.950 . S
C340 C339 1.387 . S
C340 C343 1.387 . S
H341 C337 0.950 . S
H342 C339 0.950 . S
C343 C334 1.390 . S
C343 H336 0.950 . S
C343 C340 1.387 . S
C344 C345 1.387 . S
C344 H348 0.950 . S
C344 C353 1.390 . S
C345 C344 1.387 . S
C345 C347 1.387 . S
H346 C353 0.950 . S
C347 C345 1.387 . S
C347 C349 1.390 . S
C347 H351 0.950 . S
H348 C344 0.950 . S
C349 C347 1.390 . S
C349 C350 1.387 . S
C349 H352 0.950 . S
C350 C349 1.387 . S
C350 C353 1.387 . S
H351 C347 0.950 . S
H352 C349 0.950 . S
C353 C344 1.390 . S
C353 H346 0.950 . S
C353 C350 1.387 . S
C354 C355 1.387 . S
C354 H358 0.950 . S
C354 C363 1.390 . S
C355 C354 1.387 . S
C355 C357 1.387 . S
H356 C363 0.950 1_554 S
C357 C355 1.387 . S
C357 C359 1.390 . S
C357 H361 0.950 . S
H358 C354 0.950 . S
C359 C357 1.390 . S
C359 C360 1.387 . S
C359 H362 0.950 . S
C360 C359 1.387 . S
C360 C363 1.387 . S
H361 C357 0.950 . S
H362 C359 0.950 . S
C363 C354 1.390 . S
C363 H356 0.950 1_556 S
C363 C360 1.387 . S
C364 C365 1.387 . S
C364 H368 0.950 . S
C364 C373 1.390 . S
C365 C364 1.387 . S
C365 C367 1.387 . S
H366 C373 0.950 . S
C367 C365 1.387 . S
C367 C369 1.390 1_655 S
C367 H371 0.950 1_655 S
H368 C364 0.950 . S
C369 C367 1.390 1_455 S
C369 C370 1.387 1_455 S
C369 H372 0.950 . S
C370 C369 1.387 1_655 S
C370 C373 1.387 . S
H371 C367 0.950 1_455 S
H372 C369 0.950 . S
C373 C364 1.390 . S
C373 H366 0.950 . S
C373 C370 1.387 . S
C374 C375 1.387 . S
C374 H378 0.950 . S
C374 C383 1.390 . S
C375 C374 1.387 . S
C375 C377 1.387 . S
H376 C383 0.950 . S
C377 C375 1.387 . S
C377 C379 1.390 . S
C377 H381 0.950 . S
H378 C374 0.950 . S
C379 C377 1.390 . S
C379 C380 1.387 . S
C379 H382 0.950 . S
C380 C379 1.387 . S
C380 C383 1.387 . S
H381 C377 0.950 . S
H382 C379 0.950 . S
C383 C374 1.390 . S
C383 H376 0.950 . S
C383 C380 1.387 . S
C384 C385 1.387 . S
C384 H388 0.950 . S
C384 C393 1.390 . S
C385 C384 1.387 . S
C385 C387 1.387 . S
H386 C393 0.950 . S
C387 C385 1.387 . S
C387 C389 1.390 . S
C387 H391 0.950 . S
H388 C384 0.950 . S
C389 C387 1.390 . S
C389 C390 1.387 . S
C389 H392 0.950 . S
C390 C389 1.387 . S
C390 C393 1.387 . S
H391 C387 0.950 . S
H392 C389 0.950 . S
C393 C384 1.390 . S
C393 H386 0.950 . S
C393 C390 1.387 . S
C394 C395 1.387 . S
C394 H398 0.950 . S
C394 C403 1.390 . S
C395 C394 1.387 . S
C395 C397 1.387 . S
H396 C403 0.950 . S
C397 C395 1.387 . S
C397 C399 1.390 . S
C397 H401 0.950 . S
H398 C394 0.950 . S
C399 C397 1.390 . S
C399 C400 1.387 . S
C399 H402 0.950 . S
C400 C399 1.387 . S
C400 C403 1.387 . S
H401 C397 0.950 . S
H402 C399 0.950 . S
C403 C394 1.390 . S
C403 H396 0.950 . S
C403 C400 1.387 . S
C404 C405 1.387 . S
C404 H408 0.950 . S
C404 C413 1.390 . S
C405 C404 1.387 . S
C405 C407 1.387 . S
H406 C413 0.950 . S
C407 C405 1.387 . S
C407 C409 1.390 . S
C407 H411 0.950 . S
H408 C404 0.950 . S
C409 C407 1.390 . S
C409 C410 1.387 . S
C409 H412 0.950 . S
C410 C409 1.387 . S
C410 C413 1.387 . S
H411 C407 0.950 . S
H412 C409 0.950 . S
C413 C404 1.390 . S
C413 H406 0.950 . S
C413 C410 1.387 . S
C414 C415 1.387 . S
C414 H418 0.950 . S
C414 C423 1.390 . S
C415 C414 1.387 . S
C415 C417 1.387 . S
H416 C423 0.950 . S
C417 C415 1.387 . S
C417 C419 1.390 . S
C417 H421 0.950 . S
H418 C414 0.950 . S
C419 C417 1.390 . S
C419 C420 1.387 . S
C419 H422 0.950 . S
C420 C419 1.387 . S
C420 C423 1.387 . S
H421 C417 0.950 . S
H422 C419 0.950 . S
C423 C414 1.390 . S
C423 H416 0.950 . S
C423 C420 1.387 . S
C424 C425 1.387 . S
C424 H428 0.950 . S
C424 C433 1.390 . S
C425 C424 1.387 . S
C425 C427 1.387 . S
H426 C433 0.950 . S
C427 C425 1.387 . S
C427 C429 1.390 . S
C427 H431 0.950 . S
H428 C424 0.950 . S
C429 C427 1.390 . S
C429 C430 1.387 . S
C429 H432 0.950 . S
C430 C429 1.387 . S
C430 C433 1.387 . S
H431 C427 0.950 . S
H432 C429 0.950 . S
C433 C424 1.390 . S
C433 H426 0.950 . S
C433 C430 1.387 . S
C434 C435 1.387 . S
C434 H438 0.950 . S
C434 C443 1.390 . S
C435 C434 1.387 . S
C435 C437 1.387 1_655 S
H436 C443 0.950 . S
C437 C435 1.387 1_455 S
C437 C439 1.390 . S
C437 H441 0.950 . S
H438 C434 0.950 . S
C439 C437 1.390 . S
C439 C440 1.387 1_455 S
C439 H442 0.950 . S
C440 C439 1.387 1_655 S
C440 C443 1.387 . S
H441 C437 0.950 . S
H442 C439 0.950 . S
C443 C434 1.390 . S
C443 H436 0.950 . S
C443 C440 1.387 . S
C444 C445 1.387 . S
C444 H448 0.950 . S
C444 C453 1.390 . S
C445 C444 1.387 . S
C445 C447 1.387 . S
H446 C453 0.950 . S
C447 C445 1.387 . S
C447 C449 1.390 . S
C447 H451 0.950 . S
H448 C444 0.950 . S
C449 C447 1.390 . S
C449 C450 1.387 . S
C449 H452 0.950 . S
C450 C449 1.387 . S
C450 C453 1.387 . S
H451 C447 0.950 . S
H452 C449 0.950 . S
C453 C444 1.390 . S
C453 H446 0.950 . S
C453 C450 1.387 . S
C454 C455 1.387 . S
C454 H458 0.950 . S
C454 C463 1.390 . S
C455 C454 1.387 . S
C455 C457 1.387 . S
H456 C463 0.950 . S
C457 C455 1.387 . S
C457 C459 1.390 . S
C457 H461 0.950 . S
H458 C454 0.950 . S
C459 C457 1.390 . S
C459 C460 1.387 . S
C459 H462 0.950 . S
C460 C459 1.387 . S
C460 C463 1.387 . S
H461 C457 0.950 . S
H462 C459 0.950 . S
C463 C454 1.390 . S
C463 H456 0.950 . S
C463 C460 1.387 . S
C464 C465 1.387 . S
C464 H468 0.950 . S
C464 C473 1.390 . S
C465 C464 1.387 . S
C465 C467 1.387 . S
H466 C473 0.950 . S
C467 C465 1.387 . S
C467 C469 1.390 . S
C467 H471 0.950 . S
H468 C464 0.950 . S
C469 C467 1.390 . S
C469 C470 1.387 . S
C469 H472 0.950 . S
C470 C469 1.387 . S
C470 C473 1.387 . S
H471 C467 0.950 . S
H472 C469 0.950 . S
C473 C464 1.390 . S
C473 H466 0.950 . S
C473 C470 1.387 . S
C474 C475 1.387 . S
C474 H478 0.950 . S
C474 C483 1.390 . S
C475 C474 1.387 . S
C475 C477 1.387 . S
H476 C483 0.950 . S
C477 C475 1.387 . S
C477 C479 1.390 . S
C477 H481 0.950 . S
H478 C474 0.950 . S
C479 C477 1.390 . S
C479 C480 1.387 . S
C479 H482 0.950 . S
C480 C479 1.387 . S
C480 C483 1.387 . S
H481 C477 0.950 . S
H482 C479 0.950 . S
C483 C474 1.390 . S
C483 H476 0.950 . S
C483 C480 1.387 . S
C484 C485 1.387 . S
C484 H488 0.950 . S
C484 C493 1.390 . S
C485 C484 1.387 . S
C485 C487 1.387 . S
H486 C493 0.950 . S
C487 C485 1.387 . S
C487 C489 1.390 . S
C487 H491 0.950 . S
H488 C484 0.950 . S
C489 C487 1.390 . S
C489 C490 1.387 . S
C489 H492 0.950 . S
C490 C489 1.387 . S
C490 C493 1.387 . S
H491 C487 0.950 . S
H492 C489 0.950 . S
C493 C484 1.390 . S
C493 H486 0.950 . S
C493 C490 1.387 . S
C494 C495 1.387 . S
C494 H498 0.950 . S
C494 C503 1.390 . S
C495 C494 1.387 . S
C495 C497 1.387 . S
H496 C503 0.950 . S
C497 C495 1.387 . S
C497 C499 1.390 . S
C497 H501 0.950 . S
H498 C494 0.950 . S
C499 C497 1.390 . S
C499 C500 1.387 . S
C499 H502 0.950 . S
C500 C499 1.387 . S
C500 C503 1.387 . S
H501 C497 0.950 . S
H502 C499 0.950 . S
C503 C494 1.390 . S
C503 H496 0.950 . S
C503 C500 1.387 . S
C265 N1 0.930 . S
C270 C121 0.958 . S
C275 N18 1.052 . S
C280 C161 1.102 . S
C290 C186 2.155 . S
C285 N28 2.215 . S
C295 N40 2.728 . S
C300 C226 2.740 . S
C310 C157 1.819 . S
C305 N5 1.752 . S
C320 C117 1.465 . S
C315 N14 1.331 . S
C330 C248 1.884 . S
C325 N31 1.898 . S
C340 C208 1.644 . S
C335 N41 1.678 . S
C345 N2 1.225 . S
C350 C250 1.261 . S
C360 C167 2.401 1_556 S
C355 N27 2.443 . S
C365 N44 2.390 . S
C370 C127 2.445 1_655 S
C375 N15 1.145 . S
C380 C210 1.190 . S
C390 C130 1.428 . S
C385 N57 1.431 . S
C395 N70 0.919 . S
C400 C170 1.007 . S
C405 N79 2.376 . S
C410 C207 2.419 . S
C415 N93 2.534 . S
C420 C247 2.500 . S
C425 N54 1.511 . S
C430 C168 1.647 1_556 S
C440 C128 2.004 1_655 S
C435 N66 1.965 . S
C450 C237 1.524 . S
C445 N80 1.590 . S
C460 C197 1.812 . S
C455 N96 1.867 . S
C465 N53 1.504 . S
C470 C241 1.483 . S
C480 C146 2.050 . S
C475 N83 1.991 . S
C490 C106 2.460 . S
C485 N92 2.537 . S
C495 N67 1.436 . S
C500 C201 1.464 . S
