# Generated by pormake.
# Topology zzz, (3,6)-cn, num edge types: 1
# Building blocks:
#     Node 0, Type 0, BuildingBlock: BELTOD_clean_linker_0, # of connection points: 3
#     Node 1, Type 0, BuildingBlock: BELTOD_clean_linker_0, # of connection points: 3
#     Node 2, Type 0, BuildingBlock: BELTOD_clean_linker_0, # of connection points: 3
#     Node 3, Type 0, BuildingBlock: BELTOD_clean_linker_0, # of connection points: 3
#     Node 4, Type 0, BuildingBlock: BELTOD_clean_linker_0, # of connection points: 3
#     Node 5, Type 0, BuildingBlock: BELTOD_clean_linker_0, # of connection points: 3
#     Node 6, Type 0, BuildingBlock: BELTOD_clean_linker_0, # of connection points: 3
#     Node 7, Type 0, BuildingBlock: BELTOD_clean_linker_0, # of connection points: 3
#     Node 8, Type 1, BuildingBlock: NUHQIS_clean_sbu_0, # of connection points: 6
#     Node 9, Type 1, BuildingBlock: NUHQIS_clean_sbu_0, # of connection points: 6
#     Node 10, Type 1, BuildingBlock: NUHQIS_clean_sbu_0, # of connection points: 6
#     Node 11, Type 1, BuildingBlock: NUHQIS_clean_sbu_0, # of connection points: 6
#     Edge 12, Type (0, 1), BuildingBlock: UVAHIK_clean_linker_0, # of connection points: 2
#     Edge 13, Type (0, 1), BuildingBlock: UVAHIK_clean_linker_0, # of connection points: 2
#     Edge 14, Type (0, 1), BuildingBlock: UVAHIK_clean_linker_0, # of connection points: 2
#     Edge 15, Type (0, 1), BuildingBlock: UVAHIK_clean_linker_0, # of connection points: 2
#     Edge 16, Type (0, 1), BuildingBlock: UVAHIK_clean_linker_0, # of connection points: 2
#     Edge 17, Type (0, 1), BuildingBlock: UVAHIK_clean_linker_0, # of connection points: 2
#     Edge 18, Type (0, 1), BuildingBlock: UVAHIK_clean_linker_0, # of connection points: 2
#     Edge 19, Type (0, 1), BuildingBlock: UVAHIK_clean_linker_0, # of connection points: 2
#     Edge 20, Type (0, 1), BuildingBlock: UVAHIK_clean_linker_0, # of connection points: 2
#     Edge 21, Type (0, 1), BuildingBlock: UVAHIK_clean_linker_0, # of connection points: 2
#     Edge 22, Type (0, 1), BuildingBlock: UVAHIK_clean_linker_0, # of connection points: 2
#     Edge 23, Type (0, 1), BuildingBlock: UVAHIK_clean_linker_0, # of connection points: 2
#     Edge 24, Type (0, 1), BuildingBlock: UVAHIK_clean_linker_0, # of connection points: 2
#     Edge 25, Type (0, 1), BuildingBlock: UVAHIK_clean_linker_0, # of connection points: 2
#     Edge 26, Type (0, 1), BuildingBlock: UVAHIK_clean_linker_0, # of connection points: 2
#     Edge 27, Type (0, 1), BuildingBlock: UVAHIK_clean_linker_0, # of connection points: 2
#     Edge 28, Type (0, 1), BuildingBlock: UVAHIK_clean_linker_0, # of connection points: 2
#     Edge 29, Type (0, 1), BuildingBlock: UVAHIK_clean_linker_0, # of connection points: 2
#     Edge 30, Type (0, 1), BuildingBlock: UVAHIK_clean_linker_0, # of connection points: 2
#     Edge 31, Type (0, 1), BuildingBlock: UVAHIK_clean_linker_0, # of connection points: 2
#     Edge 32, Type (0, 1), BuildingBlock: UVAHIK_clean_linker_0, # of connection points: 2
#     Edge 33, Type (0, 1), BuildingBlock: UVAHIK_clean_linker_0, # of connection points: 2
#     Edge 34, Type (0, 1), BuildingBlock: UVAHIK_clean_linker_0, # of connection points: 2
#     Edge 35, Type (0, 1), BuildingBlock: UVAHIK_clean_linker_0, # of connection points: 2
# Relax obj value: 0.372
# Max RMSD: 0.244
# Mean RMSD: 0.221
data_MOF--net-zzz--node1-NUHQIS_clean_sbu_0--node2-BELTOD_clean_linker_0--edge1-UVAHIK_clean_linker_0
_symmetry_space_group_name_H-M    P1
_symmetry_Int_Tables_number       1
_symmetry_cell_setting            triclinic
loop_
_symmetry_equiv_pos_as_xyz
'x, y, z'
_cell_length_a     70.34061
_cell_length_b     70.383643
_cell_length_c     22.157354
_cell_angle_alpha  89.94694
_cell_angle_beta   89.951251
_cell_angle_gamma 89.992986
loop_
_atom_site_label
_atom_site_type_symbol
_atom_site_fract_x
_atom_site_fract_y
_atom_site_fract_z
_atom_type_partial_charge
P0 P 0.72224 0.47977 0.34851 0.0
H1 H 0.72902 0.49181 0.47332 0.0
H2 H 0.75748 0.50466 0.52109 0.0
H3 H 0.78208 0.51478 0.3452 0.0
H4 H 0.75336 0.50249 0.2979 0.0
H5 H 0.68322 0.46819 0.32927 0.0
H6 H 0.65848 0.4789 0.26063 0.0
H7 H 0.69489 0.5245 0.19976 0.0
H8 H 0.71979 0.51362 0.26943 0.0
H9 H 0.74805 0.44898 0.37768 0.0
H10 H 0.72892 0.47796 0.21723 0.0
O11 O 0.71264 0.46654 0.40318 0.0
H12 H 0.7735 0.43396 0.31971 0.0
H13 H 0.75446 0.4634 0.15956 0.0
C14 C 0.73912 0.49594 0.38199 0.0
C15 C 0.74023 0.49744 0.44496 0.0
C16 C 0.75665 0.50461 0.47229 0.0
C17 C 0.77233 0.51029 0.43708 0.0
C18 C 0.77034 0.51056 0.37387 0.0
C19 C 0.75384 0.50352 0.34662 0.0
C20 C 0.70324 0.49029 0.30531 0.0
C21 C 0.68576 0.4808 0.30241 0.0
C22 C 0.67158 0.48696 0.26302 0.0
C23 C 0.67465 0.50262 0.22485 0.0
C24 C 0.69211 0.51236 0.22851 0.0
C25 C 0.70628 0.50627 0.26863 0.0
C26 C 0.73647 0.46446 0.30181 0.0
C27 C 0.74891 0.45161 0.32958 0.0
C28 C 0.76357 0.44319 0.29654 0.0
C29 C 0.76612 0.44765 0.23519 0.0
C30 C 0.75278 0.45949 0.20655 0.0
C31 C 0.73813 0.46789 0.23968 0.0
P32 P 0.02469 0.72055 0.33133 0.0
H33 H 0.03072 0.73476 0.45325 0.0
H34 H 0.01753 0.76228 0.50409 0.0
H35 H 0.9735 0.76597 0.36863 0.0
H36 H 0.98727 0.73858 0.31682 0.0
H37 H 0.02273 0.67922 0.34634 0.0
H38 H 0.01247 0.65399 0.27809 0.0
H39 H 0.9894 0.69609 0.15657 0.0
H40 H 0.99985 0.72129 0.22492 0.0
H41 H 0.02949 0.76222 0.33001 0.0
H42 H 0.04408 0.71481 0.2152 0.0
O43 O 0.04225 0.71062 0.3709 0.0
H44 H 0.03988 0.78418 0.25235 0.0
H45 H 0.05487 0.73713 0.13699 0.0
C46 C 0.00994 0.73446 0.38131 0.0
C47 C 0.01774 0.74093 0.43578 0.0
C48 C 0.01016 0.75683 0.4649 0.0
C49 C 0.9946 0.76666 0.44002 0.0
C50 C 0.98572 0.75902 0.38845 0.0
C51 C 0.99338 0.74311 0.35923 0.0
C52 C 0.0123 0.70216 0.29035 0.0
C53 C 0.01503 0.68302 0.30579 0.0
C54 C 0.00911 0.66857 0.26671 0.0
C55 C 1.00039 0.67303 0.21136 0.0
C56 C 0.99637 0.6922 0.19836 0.0
C57 C 0.00219 0.70662 0.23768 0.0
C58 C 0.03522 0.73676 0.27762 0.0
C59 C 0.0349 0.75641 0.28826 0.0
C60 C 0.04093 0.76906 0.24383 0.0
C61 C 0.0478 0.76232 0.18839 0.0
C62 C 0.0495 0.74264 0.17933 0.0
C63 C 0.04325 0.72993 0.2238 0.0
P64 P 0.78118 0.02499 0.3493 0.0
H65 H 0.77434 0.01417 0.4753 0.0
H66 H 0.74582 0.00193 0.5245 0.0
H67 H 0.72126 0.98998 0.34998 0.0
H68 H 0.75 0.00188 0.30116 0.0
H69 H 0.82049 0.03587 0.33099 0.0
H70 H 0.84498 0.02524 0.26139 0.0
H71 H 0.80791 0.98043 0.19902 0.0
H72 H 0.78322 0.99132 0.26947 0.0
H73 H 0.75208 0.05265 0.3776 0.0
H74 H 0.7779 0.02956 0.21687 0.0
O75 O 0.79085 0.03861 0.40273 0.0
H76 H 0.72699 0.06695 0.3162 0.0
H77 H 0.75287 0.04366 0.15565 0.0
C78 C 0.7643 0.0091 0.38446 0.0
C79 C 0.76314 0.00827 0.44758 0.0
C80 C 0.74668 1.00146 0.47572 0.0
C81 C 0.73102 0.9954 0.44122 0.0
C82 C 0.73301 0.99449 0.37806 0.0
C83 C 0.74953 1.00126 0.34998 0.0
C84 C 0.80013 0.01419 0.30634 0.0
C85 C 0.81775 0.02343 0.30365 0.0
C86 C 0.8318 0.01731 0.26366 0.0
C87 C 0.82848 0.00192 0.22466 0.0
C88 C 0.8109 0.99238 0.22829 0.0
C89 C 0.79684 0.99845 0.26894 0.0
C90 C 0.76686 0.04004 0.30197 0.0
C91 C 0.75273 0.0512 0.32896 0.0
C92 C 0.73833 0.05924 0.29394 0.0
C93 C 0.73791 0.05626 0.23126 0.0
C94 C 0.75293 0.04633 0.2038 0.0
C95 C 0.76724 0.03817 0.23896 0.0
P96 P 0.47992 0.78144 0.35138 0.0
H97 H 0.47345 0.76724 0.47338 0.0
H98 H 0.4856 0.73907 0.52332 0.0
H99 H 0.52967 0.73442 0.38803 0.0
H100 H 0.51684 0.76232 0.3369 0.0
H101 H 0.48007 0.82291 0.36303 0.0
H102 H 0.49119 0.84799 0.29567 0.0
H103 H 0.51888 0.80594 0.1841 0.0
H104 H 0.5073 0.78086 0.25101 0.0
H105 H 0.47025 0.74087 0.35709 0.0
H106 H 0.46551 0.78642 0.22714 0.0
O107 O 0.4622 0.79126 0.39059 0.0
H108 H 0.46084 0.71811 0.28055 0.0
H109 H 0.45593 0.76337 0.1499 0.0
C110 C 0.49424 0.76703 0.40133 0.0
C111 C 0.48622 0.76069 0.45574 0.0
C112 C 0.4932 0.7444 0.48434 0.0
C113 C 0.50842 0.73411 0.45918 0.0
C114 C 0.51762 0.74166 0.40796 0.0
C115 C 0.51051 0.75789 0.37911 0.0
C116 C 0.4927 0.79996 0.31189 0.0
C117 C 0.48892 0.81908 0.32494 0.0
C118 C 0.49537 0.83347 0.28636 0.0
C119 C 0.50571 0.82898 0.23389 0.0
C120 C 0.51067 0.80987 0.22353 0.0
C121 C 0.50426 0.79551 0.26226 0.0
C122 C 0.46958 0.76531 0.29723 0.0
C123 C 0.46722 0.74608 0.31221 0.0
C124 C 0.46175 0.73301 0.26843 0.0
C125 C 0.45813 0.73895 0.20909 0.0
C126 C 0.45883 0.75843 0.19528 0.0
C127 C 0.46445 0.77155 0.23926 0.0
P128 P 0.27005 0.45821 0.09635 0.0
H129 H 0.2553 0.43219 0.0046 0.0
H130 H 0.23102 0.43708 0.92774 0.0
H131 H 0.2354 0.49777 0.95257 0.0
H132 H 0.25999 0.49277 0.02902 0.0
H133 H 0.30262 0.43409 0.12452 0.0
H134 H 0.33433 0.4416 0.16045 0.0
H135 H 0.32483 0.50091 0.12007 0.0
H136 H 0.29277 0.49319 0.0839 0.0
H137 H 0.22963 0.46563 0.10909 0.0
H138 H 0.28102 0.48149 0.20277 0.0
O139 O 0.26632 0.43562 0.11614 0.0
H140 H 0.21136 0.48684 0.17356 0.0
H141 H 0.26287 0.50329 0.266 0.0
C142 C 0.25932 0.4621 0.02325 0.0
C143 C 0.25163 0.4466 0.99199 0.0
C144 C 0.23756 0.4494 0.94836 0.0
C145 C 0.23088 0.46779 0.93521 0.0
C146 C 0.24017 0.48342 0.96164 0.0
C147 C 0.25434 0.48058 0.00526 0.0
C148 C 0.2952 0.4631 0.10206 0.0
C149 C 0.30747 0.44865 0.12147 0.0
C150 C 0.32573 0.45298 0.14204 0.0
C151 C 0.33206 0.47191 0.14404 0.0
C152 C 0.32027 0.48621 0.11993 0.0
C153 C 0.30203 0.4818 0.09857 0.0
C154 C 0.25683 0.47258 0.14905 0.0
C155 C 0.23704 0.47382 0.14311 0.0
C156 C 0.22661 0.48604 0.17983 0.0
C157 C 0.23574 0.49718 0.22377 0.0
C158 C 0.25544 0.49506 0.23214 0.0
C159 C 0.26588 0.48273 0.19536 0.0
P160 P 0.05036 0.27595 0.02444 0.0
H161 H 0.05019 0.26514 0.8964 0.0
H162 H 0.03714 0.23689 0.84761 0.0
H163 H 0.00386 0.225 0.00689 0.0
H164 H 0.01663 0.25349 0.05511 0.0
H165 H 0.06968 0.30928 0.06842 0.0
H166 H 0.05952 0.33651 0.12738 0.0
H167 H 1.00118 0.31765 0.11405 0.0
H168 H 0.01171 0.28994 0.0556 0.0
H169 H 0.07407 0.24224 0.02625 0.0
H170 H 0.03976 0.27377 0.15283 0.0
O171 O 0.06973 0.28098 0.98393 0.0
H172 H 0.07393 0.21498 0.09465 0.0
H173 H 0.03941 0.24668 0.2206 0.0
C174 C 0.03448 0.26148 0.97964 0.0
C175 C 0.03942 0.25701 0.91992 0.0
C176 C 0.03202 0.24074 0.89208 0.0
C177 C 0.01976 0.22854 0.9239 0.0
C178 C 0.01347 0.23402 0.98156 0.0
C179 C 0.0206 0.25047 0.00889 0.0
C180 C 0.04144 0.29778 0.05645 0.0
C181 C 0.05463 0.31123 0.07675 0.0
C182 C 0.04876 0.32688 0.11061 0.0
C183 C 0.02948 0.32945 0.12543 0.0
C184 C 0.01616 0.31609 0.10388 0.0
C185 C 0.02211 0.30034 0.06982 0.0
C186 C 0.05701 0.26007 0.08439 0.0
C187 C 0.06726 0.24363 0.06989 0.0
C188 C 0.06699 0.22799 0.10869 0.0
C189 C 0.05642 0.22862 0.16252 0.0
C190 C 0.0478 0.24579 0.17968 0.0
C191 C 0.048 0.26137 0.14072 0.0
P192 P 0.22321 0.04925 0.04122 0.0
H193 H 0.2393 0.06307 0.92766 0.0
H194 H 0.26604 0.05159 0.86922 0.0
H195 H 0.26363 0.99805 0.96479 0.0
H196 H 0.23741 0.0102 0.0257 0.0
H197 H 0.19064 0.07021 0.08511 0.0
H198 H 0.16155 0.06058 0.13527 0.0
H199 H 0.17438 0.0018 0.09706 0.0
H200 H 0.20375 0.01168 0.04575 0.0
H201 H 0.26013 0.06497 0.0704 0.0
H202 H 0.22065 0.02544 0.15108 0.0
O203 O 0.22243 0.07247 0.02588 0.0
H204 H 0.28465 0.05468 0.14117 0.0
H205 H 0.24496 0.0153 0.22184 0.0
C206 C 0.23611 0.03751 0.98111 0.0
C207 C 0.244 0.0486 0.93476 0.0
C208 C 0.25948 0.04195 0.90109 0.0
C209 C 0.26743 0.02394 0.91269 0.0
C210 C 0.25829 0.01217 0.95537 0.0
C211 C 0.2429 0.01894 0.98946 0.0
C212 C 0.19937 0.04173 0.06079 0.0
C213 C 0.18696 0.05527 0.08535 0.0
C214 C 0.17025 0.04972 0.11437 0.0
C215 C 0.1656 0.0304 0.12051 0.0
C216 C 0.17761 0.01681 0.09346 0.0
C217 C 0.19431 0.02244 0.06348 0.0
C218 C 0.23852 0.04606 0.10531 0.0
C219 C 0.25651 0.05461 0.10473 0.0
C220 C 0.27052 0.04871 0.14519 0.0
C221 C 0.26674 0.03403 0.18655 0.0
C222 C 0.24831 0.02645 0.18984 0.0
C223 C 0.23433 0.03237 0.1494 0.0
P224 P 0.45137 0.22482 0.03119 0.0
H225 H 0.45358 0.23455 0.90251 0.0
H226 H 0.46759 0.26245 0.85439 0.0
H227 H 0.49946 0.27408 0.01646 0.0
H228 H 0.48579 0.24582 0.064 0.0
H229 H 0.4295 0.1956 0.08953 0.0
H230 H 0.43771 0.16945 0.15684 0.0
H231 H 0.49733 0.18121 0.12989 0.0
H232 H 0.48894 0.20779 0.06226 0.0
H233 H 0.4293 0.25953 0.02113 0.0
H234 H 0.45941 0.22914 0.16067 0.0
O235 O 0.43264 0.21957 0.98811 0.0
H236 H 0.42942 0.2881 0.0838 0.0
H237 H 0.45961 0.25744 0.22289 0.0
C238 C 0.46854 0.23804 0.9871 0.0
C239 C 0.46432 0.24247 0.92678 0.0
C240 C 0.47224 0.25857 0.89933 0.0
C241 C 0.48431 0.27067 0.93211 0.0
C242 C 0.49001 0.26513 0.99035 0.0
C243 C 0.48238 0.24881 0.01729 0.0
C244 C 0.45859 0.20347 0.07016 0.0
C245 C 0.44437 0.19235 0.09694 0.0
C246 C 0.44906 0.17751 0.13591 0.0
C247 C 0.46815 0.17337 0.14898 0.0
C248 C 0.4825 0.18405 0.12034 0.0
C249 C 0.47774 0.19917 0.08163 0.0
C250 C 0.4442 0.24215 0.08624 0.0
C251 C 0.43511 0.25872 0.06632 0.0
C252 C 0.43538 0.2751 0.10186 0.0
C253 C 0.44473 0.27506 0.15789 0.0
C254 C 0.45214 0.25789 0.18019 0.0
C255 C 0.45199 0.2416 0.14445 0.0
Tb256 Tb 0.01148 0.99285 0.71234 0.0
Eu257 Eu 0.9786 0.00585 0.61549 0.0
C258 C 0.02187 0.00398 0.57941 0.0
C259 C 1.00096 0.03655 0.69886 0.0
C260 C 0.04479 0.96201 0.79651 0.0
C261 C 0.06831 0.94234 0.84669 0.0
C262 C 0.06148 0.96031 0.83051 0.0
C263 C 0.03544 0.94558 0.77675 0.0
C264 C 0.04212 0.92765 0.79323 0.0
C265 C 0.05845 0.92579 0.82943 0.0
C266 C 0.03647 0.98082 0.78499 0.0
O267 O 0.9862 1.00079 0.76354 0.0
O268 O 0.96356 0.99263 0.6946 0.0
O269 O 0.98511 0.97525 0.59479 0.0
O270 O 0.99749 0.96642 0.68636 0.0
C271 C 0.96869 0.99569 0.75062 0.0
O272 O 0.95201 0.02036 0.59409 0.0
O273 O 0.96751 0.00569 0.52375 0.0
O274 O 0.00686 0.01496 0.57828 0.0
O275 O 0.02371 0.99098 0.62163 0.0
O276 O 0.01391 0.02379 0.71319 0.0
O277 O 0.98555 0.03225 0.6683 0.0
C278 C 0.99036 0.96207 0.6333 0.0
O279 O 0.04042 0.98858 0.73311 0.0
O280 O 0.01849 0.98234 0.79792 0.0
C281 C 0.9547 0.03566 0.49896 0.0
C282 C 0.96372 0.06976 0.43837 0.0
C283 C 0.95414 0.07019 0.49406 0.0
C284 C 0.94968 0.05331 0.52411 0.0
C285 C 0.96266 0.03523 0.4408 0.0
C286 C 0.96724 0.05209 0.41099 0.0
C287 C 0.95431 0.01815 0.53598 0.0
H288 H 0.08109 0.94143 0.87373 0.0
H289 H 0.06894 0.97287 0.84584 0.0
H290 H 0.02255 0.94662 0.7504 0.0
H291 H 0.03394 0.91533 0.7798 0.0
H292 H 0.95078 0.08357 0.51565 0.0
H293 H 0.94324 0.05417 0.56844 0.0
H294 H 0.9665 0.02186 0.41989 0.0
H295 H 0.97466 0.05118 0.36825 0.0
Tb296 Tb 0.50451 0.01488 0.72549 0.0
Eu297 Eu 0.49442 0.98067 0.63009 0.0
C298 C 0.49355 0.02446 0.59231 0.0
C299 C 0.46179 0.00213 0.70538 0.0
C300 C 0.53215 0.04501 0.82843 0.0
C301 C 0.55582 0.0673 0.86504 0.0
C302 C 0.53828 0.06373 0.83761 0.0
C303 C 0.54369 0.02988 0.84728 0.0
C304 C 0.56111 0.03342 0.87508 0.0
C305 C 0.5675 0.05217 0.8838 0.0
C306 C 0.51445 0.04135 0.79536 0.0
O307 O 0.51365 0.98906 0.77207 0.0
O308 O 0.49519 0.96732 0.72194 0.0
O309 O 0.52586 0.97836 0.64598 0.0
O310 O 0.53052 0.00929 0.67456 0.0
C311 C 0.50574 0.97216 0.76821 0.0
O312 O 0.47836 0.9552 0.60725 0.0
O313 O 0.49897 0.96638 0.54391 0.0
O314 O 0.49899 0.00741 0.57593 0.0
O315 O 0.49029 0.02843 0.64929 0.0
O316 O 0.47482 0.00799 0.7437 0.0
O317 O 0.46638 0.99454 0.65314 0.0
C318 C 0.53712 0.99294 0.6548 0.0
O319 O 0.51595 0.0422 0.73686 0.0
O320 O 0.50461 0.02661 0.8126 0.0
C321 C 0.47016 0.95403 0.50503 0.0
C322 C 0.43765 0.95633 0.43167 0.0
C323 C 0.44047 0.94054 0.46941 0.0
C324 C 0.45666 0.93936 0.50565 0.0
C325 C 0.46789 0.96928 0.46471 0.0
C326 C 0.45183 0.97035 0.4281 0.0
C327 C 0.48486 0.95462 0.55217 0.0
H328 H 0.56039 0.08189 0.87038 0.0
H329 H 0.52965 0.07557 0.82256 0.0
H330 H 0.53932 0.01529 0.84 0.0
H331 H 0.56954 0.02141 0.88992 0.0
H332 H 0.42979 0.9295 0.47265 0.0
H333 H 0.45814 0.92752 0.53657 0.0
H334 H 0.47798 0.98091 0.46368 0.0
H335 H 0.44991 0.9828 0.39997 0.0
Tb336 Tb 0.49031 0.50585 0.71795 0.0
Eu337 Eu 0.52375 0.4938 0.62177 0.0
C338 C 0.48066 0.494 0.58481 0.0
C339 C 0.50191 0.46269 0.70484 0.0
C340 C 0.46028 0.5366 0.81179 0.0
C341 C 0.43768 0.55931 0.85249 0.0
C342 C 0.44198 0.54092 0.83274 0.0
C343 C 0.4742 0.55085 0.81046 0.0
C344 C 0.46992 0.56919 0.82992 0.0
C345 C 0.45161 0.57366 0.85112 0.0
C346 C 0.46471 0.51751 0.78916 0.0
O347 O 0.51607 0.50083 0.77039 0.0
O348 O 0.53878 0.50763 0.69955 0.0
O349 O 0.51629 0.52436 0.60242 0.0
O350 O 0.50437 0.53251 0.69512 0.0
C351 C 0.53356 0.50567 0.75605 0.0
O352 O 0.55051 0.47969 0.59967 0.0
O353 O 0.53498 0.49473 0.53018 0.0
O354 O 0.49605 0.48358 0.5836 0.0
O355 O 0.47831 0.50686 0.62703 0.0
O356 O 0.48816 0.47494 0.71563 0.0
O357 O 0.51773 0.46762 0.67729 0.0
C358 C 0.51115 0.53728 0.64195 0.0
O359 O 0.46218 0.51509 0.73159 0.0
O360 O 0.48085 0.51039 0.80673 0.0
C361 C 0.54817 0.46515 0.50331 0.0
C362 C 0.53917 0.4318 0.43898 0.0
C363 C 0.54791 0.43069 0.49592 0.0
C364 C 0.55234 0.44719 0.52784 0.0
C365 C 0.54116 0.46625 0.44405 0.0
C366 C 0.53659 0.44975 0.41233 0.0
C367 C 0.54831 0.48234 0.54171 0.0
H368 H 0.42342 0.56235 0.86823 0.0
H369 H 0.43103 0.5301 0.83358 0.0
H370 H 0.48843 0.54779 0.79458 0.0
H371 H 0.48109 0.57979 0.82933 0.0
H372 H 0.55053 0.41705 0.51702 0.0
H373 H 0.55803 0.44581 0.57304 0.0
H374 H 0.53799 0.47989 0.42368 0.0
H375 H 0.52986 0.45117 0.36863 0.0
Tb376 Tb 0.9986 0.48468 0.71278 0.0
Eu377 Eu 0.01086 0.51819 0.61667 0.0
C378 C 0.00629 0.47527 0.57806 0.0
C379 C 0.04217 0.4952 0.69412 0.0
C380 C 0.9712 0.45563 0.82279 0.0
C381 C 0.94533 0.43494 0.85399 0.0
C382 C 0.96157 0.43822 0.81911 0.0
C383 C 0.96437 0.46975 0.86207 0.0
C384 C 0.94827 0.46639 0.8974 0.0
C385 C 0.93858 0.44898 0.89362 0.0
C386 C 0.98805 0.45891 0.78464 0.0
O387 O 0.99128 0.51152 0.75619 0.0
O388 O 0.01413 0.52961 0.71076 0.0
O389 O 0.97912 0.52109 0.62407 0.0
O390 O 0.97221 0.492 0.66663 0.0
C391 C 1.00198 0.52681 0.7548 0.0
O392 O 0.01393 0.54822 0.59347 0.0
O393 O 0.02209 0.5266 0.52909 0.0
O394 O 1.0011 0.49261 0.56419 0.0
O395 O 0.01103 0.47101 0.63374 0.0
O396 O 0.02866 0.48931 0.73072 0.0
O397 O 0.03838 0.50393 0.64306 0.0
C398 C 0.96692 0.50783 0.63974 0.0
O399 O 0.98519 0.45833 0.72657 0.0
O400 O 0.99916 0.47295 0.79978 0.0
C401 C 0.04121 0.5536 0.53447 0.0
C402 C 0.07832 0.56594 0.50722 0.0
C403 C 0.06262 0.57291 0.47448 0.0
C404 C 0.0442 0.56665 0.48774 0.0
C405 C 0.05657 0.54768 0.56998 0.0
C406 C 0.07496 0.55368 0.55635 0.0
C407 C 0.02259 0.54462 0.54267 0.0
H408 H 0.93817 0.42136 0.85049 0.0
H409 H 0.96658 0.42717 0.78901 0.0
H410 H 0.97139 0.48341 0.86535 0.0
H411 H 0.94322 0.47755 0.92701 0.0
H412 H 0.06461 0.58265 0.43715 0.0
H413 H 0.03243 0.57143 0.46012 0.0
H414 H 0.05443 0.53766 0.60646 0.0
H415 H 0.0866 0.54775 0.58219 0.0
C416 C 0.13216 0.03515 0.15827 0.0
C417 C 0.14923 0.02474 0.15952 0.0
C418 C 0.11781 0.03168 0.20062 0.0
C419 C 0.1007 0.99725 0.3165 0.0
H420 H 0.07689 0.04201 0.38495 0.0
C421 C 0.05265 0.99413 0.53008 0.0
C422 C 0.03639 0.00577 0.53083 0.0
C423 C 0.06616 0.9958 0.48379 0.0
C424 C 0.08319 0.02932 0.36591 0.0
H425 H 0.16424 0.00204 0.20537 0.0
H426 H 0.13919 0.99596 0.27925 0.0
H427 H 0.10027 0.04554 0.30482 0.0
H428 H 0.02162 0.02826 0.48287 0.0
H429 H 0.04499 0.03105 0.40239 0.0
H430 H 0.08363 0.98105 0.37809 0.0
C431 C 0.13683 0.00672 0.24512 0.0
C432 C 0.09662 0.03134 0.31973 0.0
C433 C 0.1512 0.01017 0.20258 0.0
C434 C 0.034 0.01911 0.4841 0.0
C435 C 0.04749 0.02078 0.43795 0.0
C436 C 0.08723 0.99522 0.36278 0.0
C437 C 0.12011 0.01773 0.24558 0.0
C438 C 0.10555 0.01535 0.29423 0.0
C439 C 0.06379 0.00919 0.43714 0.0
C440 C 0.07826 0.01124 0.38806 0.0
H441 H 0.13005 0.04628 0.12515 0.0
H442 H 0.10496 0.04014 0.19859 0.0
H443 H 0.10712 0.9846 0.2976 0.0
H444 H 0.05498 0.98371 0.56532 0.0
H445 H 0.07863 0.98679 0.48511 0.0
C446 C 0.48552 0.14383 0.18262 0.0
C447 C 0.47266 0.1586 0.19487 0.0
C448 C 0.48839 0.1292 0.22481 0.0
C449 C 0.46539 0.1073 0.36051 0.0
H450 H 0.51423 0.08259 0.38037 0.0
C451 C 0.48186 0.05665 0.55972 0.0
C452 C 0.49111 0.03948 0.54573 0.0
C453 C 0.47981 0.07089 0.51602 0.0
C454 C 0.50047 0.08927 0.37498 0.0
H455 H 0.45357 0.17025 0.26203 0.0
H456 H 0.45902 0.14535 0.33612 0.0
H457 H 0.51082 0.10822 0.30673 0.0
H458 H 0.50556 0.02395 0.47465 0.0
H459 H 0.50217 0.04894 0.39872 0.0
H460 H 0.45521 0.08862 0.42978 0.0
C461 C 0.46636 0.14445 0.29325 0.0
C462 C 0.49847 0.10395 0.33258 0.0
C463 C 0.46332 0.15885 0.25091 0.0
C464 C 0.49831 0.03696 0.48699 0.0
C465 C 0.49649 0.05132 0.44353 0.0
C466 C 0.46746 0.09283 0.40331 0.0
C467 C 0.47865 0.12918 0.28051 0.0
C468 C 0.4809 0.11326 0.32489 0.0
C469 C 0.48717 0.06844 0.45749 0.0
C470 C 0.48502 0.08367 0.41122 0.0
H471 H 0.49285 0.14325 0.13965 0.0
H472 H 0.49785 0.11766 0.21294 0.0
H473 H 0.4515 0.11369 0.35505 0.0
H474 H 0.47614 0.05908 0.60444 0.0
H475 H 0.47269 0.08397 0.52831 0.0
C476 C 0.36599 0.46505 0.1734 0.0
C477 C 0.34979 0.47669 0.17758 0.0
C478 C 0.38156 0.46788 0.21172 0.0
C479 C 0.4031 0.50214 0.32059 0.0
H480 H 0.42502 0.45661 0.39049 0.0
C481 C 0.45031 0.50403 0.53419 0.0
C482 C 0.46635 0.49211 0.53586 0.0
C483 C 0.43703 0.50255 0.48741 0.0
C484 C 0.41925 0.46948 0.3709 0.0
H485 H 0.33756 0.50082 0.22439 0.0
H486 H 0.36458 0.50574 0.29109 0.0
H487 H 0.40076 0.45382 0.31266 0.0
H488 H 0.48094 0.46923 0.48933 0.0
H489 H 0.45778 0.46668 0.40782 0.0
H490 H 0.42139 0.51777 0.37979 0.0
C491 C 0.36543 0.49456 0.25767 0.0
C492 C 0.40534 0.46789 0.32604 0.0
C493 C 0.3499 0.49176 0.21922 0.0
C494 C 0.46872 0.4786 0.48968 0.0
C495 C 0.4554 0.47709 0.44299 0.0
C496 C 0.41697 0.50372 0.3656 0.0
C497 C 0.3813 0.48239 0.25539 0.0
C498 C 0.39696 0.48419 0.30055 0.0
C499 C 0.4394 0.48907 0.44116 0.0
C500 C 0.42512 0.48741 0.39169 0.0
H501 H 0.36647 0.45346 0.14131 0.0
H502 H 0.39368 0.45849 0.20771 0.0
H503 H 0.3972 0.51501 0.30142 0.0
H504 H 0.44798 0.51457 0.569 0.0
H505 H 0.42474 0.51183 0.48795 0.0
C506 C 0.0329 0.36314 0.16233 0.0
C507 C 0.02374 0.3454 0.16605 0.0
C508 C 0.02916 0.37743 0.20453 0.0
C509 C 0.01388 0.4088 0.28461 0.0
H510 H 0.00618 0.39338 0.45078 0.0
C511 C 0.99907 0.46381 0.47317 0.0
C512 C 0.00708 0.46047 0.53033 0.0
C513 C 0.99976 0.44985 0.4282 0.0
C514 C 0.00848 0.39799 0.40473 0.0
H515 H 0.00283 0.32919 0.21639 0.0
H516 H 0.99574 0.35435 0.28847 0.0
H517 H 0.00972 0.36934 0.37291 0.0
H518 H 0.02222 0.43982 0.58478 0.0
H519 H 0.02393 0.41575 0.5061 0.0
H520 H 0.01355 0.43743 0.31681 0.0
C521 C 0.00623 0.35704 0.25374 0.0
C522 C 0.01021 0.38415 0.35971 0.0
C523 C 0.01009 0.34267 0.2117 0.0
C524 C 0.01581 0.44285 0.54139 0.0
C525 C 0.01666 0.42896 0.49624 0.0
C526 C 0.01232 0.42265 0.3297 0.0
C527 C 0.01598 0.37451 0.25146 0.0
C528 C 0.01307 0.38933 0.299 0.0
C529 C 0.00863 0.43224 0.43894 0.0
C530 C 0.00972 0.41746 0.39053 0.0
H531 H 0.04327 0.36592 0.12729 0.0
H532 H 0.03711 0.39057 0.20132 0.0
H533 H 0.01579 0.41343 0.23839 0.0
H534 H 0.9921 0.47716 0.46321 0.0
H535 H 0.99311 0.45285 0.38517 0.0
C536 C 0.86242 0.99733 0.19203 0.0
C537 C 0.84293 0.99691 0.17804 0.0
C538 C 0.87612 0.99508 0.14683 0.0
C539 C 0.88379 0.97912 0.98891 0.0
H540 H 0.92563 0.01495 0.99425 0.0
C541 C 0.93514 0.99079 0.78698 0.0
C542 C 0.95442 0.99418 0.79987 0.0
C543 C 0.92168 0.98984 0.83351 0.0
C544 C 0.91423 0.00463 0.99239 0.0
H545 H 0.8226 0.99309 0.10557 0.0
H546 H 0.84651 0.98907 0.02664 0.0
H547 H 0.90212 0.01487 0.07473 0.0
H548 H 0.97468 0.99879 0.87218 0.0
H549 H 0.95133 0.99687 0.95306 0.0
H550 H 0.89592 0.96895 0.90626 0.0
C551 C 0.8512 0.99103 0.07276 0.0
C552 C 0.90071 0.00459 0.03866 0.0
C553 C 0.83748 0.99329 0.11807 0.0
C554 C 0.95994 0.99632 0.86046 0.0
C555 C 0.94651 0.99531 0.90693 0.0
C556 C 0.89738 0.97913 0.94259 0.0
C557 C 0.8707 0.99234 0.08638 0.0
C558 C 0.8853 0.99186 0.03756 0.0
C559 C 0.92716 0.99222 0.89411 0.0
C560 C 0.91277 0.99191 0.94368 0.0
H561 H 0.86712 0.99974 0.23793 0.0
H562 H 0.891 0.99574 0.15916 0.0
H563 H 0.87221 0.96901 0.98693 0.0
H564 H 0.93037 0.98909 0.74084 0.0
H565 H 0.9069 0.98766 0.8218 0.0
C566 C 0.50625 0.83972 0.12589 0.0
C567 C 0.50942 0.84381 0.18719 0.0
C568 C 0.5076 0.85398 0.08218 0.0
C569 C 0.52634 0.9019 0.04922 0.0
H570 H 0.48488 0.90311 0.93411 0.0
C571 C 0.51555 0.96318 0.87409 0.0
C572 C 0.50856 0.95795 0.81701 0.0
C573 C 0.51684 0.94971 0.92075 0.0
C574 C 0.49674 0.90288 0.96524 0.0
H575 H 0.5173 0.86605 0.25005 0.0
H576 H 0.51963 0.89104 0.17334 0.0
H577 H 0.48547 0.87874 0.01172 0.0
H578 H 0.49834 0.93424 0.76351 0.0
H579 H 0.501 0.91092 0.84357 0.0
H580 H 0.53769 0.92602 0.00201 0.0
C581 C 0.5161 0.87673 0.15935 0.0
C582 C 0.49704 0.88888 0.00992 0.0
C583 C 0.51463 0.86244 0.20331 0.0
C584 C 0.50352 0.93888 0.8071 0.0
C585 C 0.50494 0.92547 0.8533 0.0
C586 C 0.52611 0.9159 0.00404 0.0
C587 C 0.51219 0.87272 0.09843 0.0
C588 C 0.51192 0.88807 0.05209 0.0
C589 C 0.51124 0.93073 0.91114 0.0
C590 C 0.51139 0.91643 0.96101 0.0
H591 H 0.50198 0.82563 0.11178 0.0
H592 H 0.50475 0.85036 0.03555 0.0
H593 H 0.53803 0.90162 0.081 0.0
H594 H 0.51956 0.97775 0.88323 0.0
H595 H 0.52168 0.9543 0.96474 0.0
C596 C 0.6653 0.51135 0.11882 0.0
C597 C 0.66006 0.50774 0.17901 0.0
C598 C 0.65141 0.51361 0.07412 0.0
C599 C 0.60178 0.49993 0.04288 0.0
H600 H 0.60628 0.53477 0.908 0.0
C601 C 0.5423 0.50692 0.86572 0.0
C602 C 0.54781 0.50813 0.80482 0.0
C603 C 0.55576 0.50855 0.91182 0.0
C604 C 0.6049 0.52484 0.94511 0.0
H605 H 0.63614 0.50494 0.24008 0.0
H606 H 0.61194 0.50903 0.16243 0.0
H607 H 0.63017 0.5352 0.98805 0.0
H608 H 0.57184 0.51237 0.74482 0.0
H609 H 0.59535 0.51494 0.82527 0.0
H610 H 0.57674 0.48936 0.9999 0.0
C611 C 0.62677 0.50966 0.14939 0.0
C612 C 0.61859 0.52511 0.99104 0.0
C613 C 0.64064 0.50737 0.19396 0.0
C614 C 0.56708 0.51137 0.79121 0.0
C615 C 0.58056 0.51296 0.8374 0.0
C616 C 0.58815 0.49965 0.99707 0.0
C617 C 0.63197 0.51232 0.08866 0.0
C618 C 0.61719 0.51264 0.04048 0.0
C619 C 0.5751 0.51138 0.8983 0.0
C620 C 0.58953 0.51207 0.94752 0.0
H621 H 0.68013 0.51153 0.10569 0.0
H622 H 0.65592 0.5155 0.02777 0.0
H623 H 0.60046 0.48984 0.07956 0.0
H624 H 0.52757 0.50461 0.87798 0.0
H625 H 0.55098 0.5076 0.9582 0.0
C626 C 0.99057 0.6399 0.18051 0.0
C627 C 0.99746 0.65802 0.16487 0.0
C628 C 0.98962 0.62538 0.13727 0.0
C629 C 0.01264 0.61038 0.99672 0.0
H630 H 0.96903 0.57746 0.9746 0.0
C631 C 0.00871 0.55931 0.79519 0.0
C632 C 1.00036 0.54135 0.80308 0.0
C633 C 0.00754 0.57309 0.84036 0.0
C634 C 0.98145 0.58633 0.98073 0.0
H635 H 0.00857 0.67508 0.09129 0.0
H636 H 0.00688 0.64987 0.01626 0.0
H637 H 0.96814 0.6023 0.05178 0.0
H638 H 0.98408 0.52383 0.86486 0.0
H639 H 0.98247 0.54775 0.94467 0.0
H640 H 0.0262 0.59439 0.92712 0.0
C641 C 0.00221 0.64687 0.06188 0.0
C642 C 0.98089 0.60061 0.02485 0.0
C643 C 0.00297 0.66139 0.10478 0.0
C644 C 0.99065 0.53754 0.85727 0.0
C645 C 0.98964 0.55132 0.90293 0.0
C646 C 0.01329 0.59604 0.95324 0.0
C647 C 0.9958 0.62863 0.07776 0.0
C648 C 0.9964 0.61296 0.03272 0.0
C649 C 0.99819 0.56926 0.89522 0.0
C650 C 0.99762 0.58396 0.94391 0.0
H651 H 0.98614 0.63688 0.22635 0.0
H652 H 0.98466 0.61145 0.15088 0.0
H653 H 0.02498 0.61941 0.00255 0.0
H654 H 0.0161 0.56285 0.75376 0.0
H655 H 0.0139 0.58685 0.83189 0.0
C656 C 0.05056 0.21038 0.25831 0.0
C657 C 0.05154 0.21086 0.195 0.0
C658 C 0.04279 0.19463 0.2879 0.0
C659 C 0.02727 0.1446 0.26429 0.0
H660 H 0.99183 0.15602 0.39352 0.0
C661 C 0.97267 0.08998 0.34913 0.0
C662 C 0.97186 0.08739 0.41201 0.0
C663 C 0.98257 0.10533 0.32446 0.0
C664 C 1.00179 0.15262 0.35779 0.0
H665 H 0.04555 0.19506 0.11316 0.0
H666 H 0.03201 0.16779 0.16439 0.0
H667 H 0.01057 0.18156 0.34869 0.0
H668 H 0.98047 0.09928 0.49823 0.0
H669 H 0.99728 0.12629 0.45502 0.0
H670 H 0.01807 0.11573 0.27253 0.0
C671 C 0.03755 0.17931 0.19151 0.0
C672 C 0.01263 0.16721 0.33237 0.0
C673 C 0.04538 0.19497 0.16205 0.0
C674 C 0.98049 0.10098 0.44965 0.0
C675 C 0.99024 0.11641 0.42495 0.0
C676 C 0.01631 0.13007 0.28935 0.0
C677 C 0.03575 0.17913 0.25469 0.0
C678 C 0.02539 0.16339 0.28497 0.0
C679 C 0.99172 0.1185 0.36214 0.0
C680 C 0.00336 0.13396 0.33599 0.0
H681 H 0.0553 0.22241 0.28481 0.0
H682 H 0.04193 0.19478 0.33669 0.0
H683 H 0.03718 0.14111 0.22856 0.0
H684 H 0.96592 0.07995 0.3189 0.0
H685 H 0.98322 0.10681 0.27583 0.0
C686 C 0.29668 0.03617 0.24757 0.0
C687 C 0.2825 0.02508 0.22037 0.0
C688 C 0.31263 0.02754 0.27319 0.0
C689 C 0.33188 0.98116 0.32469 0.0
H690 H 0.38035 0.00522 0.29142 0.0
C691 C 0.40227 0.95784 0.43576 0.0
C692 C 0.41911 0.95959 0.40211 0.0
C693 C 0.385 0.96403 0.4119 0.0
C694 C 0.36696 0.99817 0.30039 0.0
H695 H 0.27375 0.99629 0.1992 0.0
H696 H 0.30157 0.98128 0.24332 0.0
H697 H 0.3512 0.02017 0.25669 0.0
H698 H 0.43098 0.96795 0.31586 0.0
H699 H 0.40069 0.97837 0.2734 0.0
H700 H 0.34773 0.95889 0.36699 0.0
C701 C 0.30026 0.99658 0.2461 0.0
C702 C 0.35021 0.00693 0.28145 0.0
C703 C 0.28429 0.00519 0.22086 0.0
C704 C 0.41821 0.96663 0.3429 0.0
C705 C 0.40091 0.97269 0.31884 0.0
C706 C 0.34865 0.97234 0.3434 0.0
C707 C 0.31477 0.00767 0.2716 0.0
C708 C 0.33248 0.99856 0.2935 0.0
C709 C 0.38422 0.972 0.35378 0.0
C710 C 0.36638 0.98077 0.33152 0.0
H711 H 0.29556 0.05152 0.24822 0.0
H712 H 0.32342 0.03645 0.29353 0.0
H713 H 0.31843 0.97441 0.33504 0.0
H714 H 0.40259 0.95273 0.48188 0.0
H715 H 0.37246 0.96347 0.44026 0.0
C716 C 0.45743 0.30812 0.15394 0.0
C717 C 0.44972 0.29315 0.1881 0.0
C718 C 0.46554 0.32381 0.18242 0.0
C719 C 0.48853 0.33634 0.32566 0.0
H720 H 0.48676 0.38749 0.26068 0.0
C721 C 0.52108 0.40126 0.4464 0.0
C722 C 0.5308 0.41463 0.41061 0.0
C723 C 0.51125 0.38625 0.41976 0.0
C724 C 0.48753 0.37322 0.27891 0.0
H725 H 0.44338 0.28339 0.27867 0.0
H726 H 0.45728 0.31104 0.32866 0.0
H727 H 0.46742 0.3626 0.21489 0.0
H728 H 0.53845 0.4222 0.31883 0.0
H729 H 0.52111 0.39597 0.27223 0.0
H730 H 0.5086 0.34701 0.38977 0.0
C731 C 0.45741 0.31042 0.27982 0.0
C732 C 0.47642 0.35899 0.25284 0.0
C733 C 0.44935 0.29467 0.25128 0.0
C734 C 0.53091 0.41229 0.3476 0.0
C735 C 0.52096 0.39731 0.32093 0.0
C736 C 0.49956 0.35059 0.35189 0.0
C737 C 0.46609 0.3249 0.24572 0.0
C738 C 0.47687 0.34036 0.27572 0.0
C739 C 0.51081 0.38432 0.35674 0.0
C740 C 0.49925 0.36914 0.32856 0.0
H741 H 0.45828 0.3072 0.1052 0.0
H742 H 0.47229 0.33456 0.15478 0.0
H743 H 0.48952 0.32206 0.34362 0.0
H744 H 0.52034 0.40282 0.49496 0.0
H745 H 0.50338 0.37656 0.44846 0.0
C746 C 0.22776 0.51323 0.32207 0.0
C747 C 0.22463 0.51105 0.25981 0.0
C748 C 0.21622 0.52535 0.3562 0.0
C749 C 0.17881 0.56294 0.34255 0.0
H750 H 0.15898 0.5397 0.48821 0.0
C751 C 0.10219 0.56932 0.42379 0.0
C752 C 0.09814 0.56929 0.48598 0.0
C753 C 0.12094 0.56856 0.40336 0.0
C754 C 0.16467 0.54667 0.44851 0.0
H755 H 0.20777 0.52081 0.18394 0.0
H756 H 0.1873 0.54124 0.24332 0.0
H757 H 0.18648 0.52582 0.43866 0.0
H758 H 0.11083 0.57041 0.57524 0.0
H759 H 0.1436 0.56837 0.53923 0.0
H760 H 0.15598 0.58297 0.35036 0.0
C761 C 0.19876 0.53388 0.26604 0.0
C762 C 0.18048 0.53871 0.42001 0.0
C763 C 0.2103 0.52187 0.23203 0.0
C764 C 0.11339 0.56995 0.52707 0.0
C765 C 0.13217 0.56891 0.50657 0.0
C766 C 0.16287 0.57078 0.37073 0.0
C767 C 0.20133 0.53553 0.32874 0.0
C768 C 0.18727 0.5463 0.36535 0.0
C769 C 0.13606 0.56756 0.44457 0.0
C770 C 0.15524 0.56228 0.42272 0.0
H771 H 0.23868 0.50509 0.34482 0.0
H772 H 0.21871 0.52644 0.4043 0.0
H773 H 0.18398 0.56942 0.30132 0.0
H774 H 0.09093 0.56853 0.39064 0.0
H775 H 0.12349 0.5673 0.3553 0.0
C776 C 0.06937 0.77582 0.10867 0.0
C777 C 0.05188 0.77595 0.13928 0.0
C778 C 0.07327 0.78957 0.06457 0.0
C779 C 0.05016 0.82343 0.96162 0.0
H780 H 0.09471 0.85512 0.98393 0.0
C781 C 0.06157 0.89032 0.81807 0.0
C782 C 0.06402 0.90679 0.85319 0.0
C783 C 0.06391 0.87231 0.84363 0.0
C784 C 0.08233 0.84626 0.97677 0.0
H785 H 0.0245 0.78987 0.14654 0.0
H786 H 0.03116 0.81363 0.06934 0.0
H787 H 0.09062 0.82651 0.0457 0.0
H788 H 0.07189 0.91711 0.94208 0.0
H789 H 0.0763 0.88577 0.98603 0.0
H790 H 0.0414 0.84349 0.8947 0.0
C791 C 0.04191 0.80306 0.07938 0.0
C792 C 0.08007 0.82985 0.01174 0.0
C793 C 0.03815 0.78958 0.12387 0.0
C794 C 0.07011 0.9048 0.91334 0.0
C795 C 0.07262 0.8868 0.93868 0.0
C796 C 0.05251 0.83968 0.92628 0.0
C797 C 0.05954 0.80333 0.0497 0.0
C798 C 0.06365 0.81864 0.00577 0.0
C799 C 0.06897 0.87038 0.90464 0.0
C800 C 0.06833 0.85157 0.93476 0.0
H801 H 0.08016 0.76543 0.11995 0.0
H802 H 0.08697 0.7895 0.04222 0.0
H803 H 0.03744 0.81495 0.95593 0.0
H804 H 0.05729 0.89131 0.77124 0.0
H805 H 0.06123 0.85987 0.81616 0.0
C806 C 0.70275 0.05532 0.21837 0.0
C807 C 0.72061 0.06089 0.19614 0.0
C808 C 0.68659 0.05689 0.18239 0.0
C809 C 0.66141 0.04638 0.07596 0.0
H810 H 0.64348 0.09187 0.99497 0.0
C811 C 0.60178 0.04375 0.90025 0.0
C812 C 0.58626 0.05577 0.91243 0.0
C813 C 0.61898 0.04612 0.93059 0.0
C814 C 0.64841 0.07909 0.01731 0.0
H815 H 0.73545 0.07336 0.12005 0.0
H816 H 0.70688 0.07643 0.05707 0.0
H817 H 0.67204 0.09335 0.05884 0.0
H818 H 0.57701 0.08021 0.96447 0.0
H819 H 0.60731 0.08454 0.01652 0.0
H820 H 0.63803 0.03203 0.03457 0.0
C821 C 0.70555 0.07077 0.10235 0.0
C822 C 0.66471 0.07993 0.05346 0.0
C823 C 0.72184 0.06894 0.13816 0.0
C824 C 0.58869 0.07079 0.95361 0.0
C825 C 0.60601 0.07328 0.98348 0.0
C826 C 0.64539 0.04547 0.03916 0.0
C827 C 0.68791 0.06425 0.12369 0.0
C828 C 0.67116 0.0636 0.08362 0.0
C829 C 0.62115 0.0607 0.97316 0.0
C830 C 0.63866 0.06182 0.00986 0.0
H831 H 0.70139 0.04881 0.2625 0.0
H832 H 0.6731 0.05187 0.19984 0.0
H833 H 0.66624 0.03357 0.09839 0.0
H834 H 0.6006 0.03236 0.86765 0.0
H835 H 0.63055 0.03638 0.92131 0.0
C836 C 0.43997 0.72576 0.12074 0.0
C837 C 0.45527 0.72459 0.16132 0.0
C838 C 0.43736 0.71165 0.07694 0.0
C839 C 0.46316 0.67463 0.99369 0.0
H840 H 0.41505 0.64784 0.98556 0.0
C841 C 0.45482 0.60906 0.84347 0.0
C842 C 0.44747 0.59308 0.87361 0.0
C843 C 0.45296 0.62717 0.86845 0.0
C844 C 0.42852 0.65529 0.98707 0.0
H845 H 0.48014 0.70828 0.18687 0.0
H846 H 0.47569 0.68386 0.11049 0.0
H847 H 0.4179 0.67628 0.04868 0.0
H848 H 0.4316 0.58369 0.95211 0.0
H849 H 0.42838 0.61531 0.99577 0.0
H850 H 0.47409 0.65336 0.93442 0.0
C851 C 0.46567 0.69553 0.11248 0.0
C852 C 0.4301 0.67161 0.02272 0.0
C853 C 0.46811 0.7094 0.15653 0.0
C854 C 0.4373 0.59573 0.92756 0.0
C855 C 0.43542 0.61386 0.95253 0.0
C856 C 0.46156 0.65845 0.95782 0.0
C857 C 0.45025 0.69644 0.07243 0.0
C858 C 0.4476 0.68109 0.02765 0.0
C859 C 0.44369 0.6297 0.92405 0.0
C860 C 0.44437 0.64831 0.95532 0.0
H861 H 0.42989 0.73736 0.12367 0.0
H862 H 0.42537 0.71265 0.04645 0.0
H863 H 0.47678 0.68178 0.99639 0.0
H864 H 0.46239 0.60752 0.80116 0.0
H865 H 0.45922 0.63915 0.845 0.0
C866 C 0.80149 0.44448 0.23283 0.0
C867 C 0.78392 0.44228 0.20346 0.0
C868 C 0.81848 0.44236 0.20111 0.0
C869 C 0.8405 0.42403 0.06207 0.0
H870 H 0.87522 0.46621 0.08487 0.0
C871 C 0.9048 0.43814 0.90466 0.0
C872 C 0.92139 0.44561 0.93073 0.0
C873 C 0.88829 0.43594 0.93915 0.0
C874 C 0.86589 0.45413 0.07862 0.0
H875 H 0.77043 0.43507 0.11858 0.0
H876 H 0.80028 0.43142 0.06286 0.0
H877 H 0.84608 0.46473 0.14351 0.0
H878 H 0.93403 0.45582 0.01369 0.0
H879 H 0.90542 0.45161 0.07428 0.0
H880 H 0.86041 0.4134 0.99714 0.0
C881 C 0.80081 0.43476 0.11054 0.0
C882 C 0.84915 0.45332 0.1122 0.0
C883 C 0.78375 0.43697 0.14229 0.0
C884 C 0.92133 0.45032 0.99226 0.0
C885 C 0.90492 0.44795 0.02685 0.0
C886 C 0.85739 0.42475 0.02869 0.0
C887 C 0.81832 0.43798 0.13931 0.0
C888 C 0.83628 0.43828 0.10432 0.0
C889 C 0.88809 0.44102 1.00054 0.0
C890 C 0.87028 0.43984 0.03656 0.0
H891 H 0.80215 0.4488 0.27968 0.0
H892 H 0.83178 0.4447 0.22458 0.0
H893 H 0.83084 0.41223 0.05532 0.0
H894 H 0.90443 0.43453 0.85716 0.0
H895 H 0.87555 0.43079 0.91721 0.0
C896 C 0.00977 0.20624 0.84064 0.0
C897 C 0.01565 0.20915 0.90048 0.0
C898 C 0.00731 0.18778 0.81807 0.0
C899 C 0.00414 0.13665 0.86758 0.0
H900 H 0.01557 0.12682 0.69927 0.0
C901 C 0.01449 0.06081 0.77017 0.0
C902 C 0.00348 0.05652 0.71903 0.0
C903 C 0.01578 0.07952 0.79135 0.0
C904 C 0.01226 0.12939 0.74632 0.0
H905 H 0.02393 0.195 0.98321 0.0
H906 H 0.0204 0.16302 0.9438 0.0
H907 H 0.01785 0.15914 0.73824 0.0
H908 H 0.98568 0.06865 0.64895 0.0
H909 H 0.98845 0.10139 0.685 0.0
H910 H 0.99931 0.10666 0.87567 0.0
C911 C 0.01689 0.17481 0.91448 0.0
C912 C 0.01341 0.14797 0.76875 0.0
C913 C 0.01899 0.19322 0.93725 0.0
C914 C 0.99422 0.07146 0.68861 0.0
C915 C 0.99586 0.09021 0.70906 0.0
C916 C 0.00337 0.11805 0.84537 0.0
C917 C 0.01107 0.17174 0.85443 0.0
C918 C 0.00938 0.15193 0.82983 0.0
C919 C 0.00644 0.09442 0.76112 0.0
C920 C 0.00742 0.11421 0.78454 0.0
H921 H 0.00707 0.21826 0.81129 0.0
H922 H 0.00245 0.18615 0.77204 0.0
H923 H 1.00045 0.139 0.91441 0.0
H924 H 0.02171 0.04964 0.79476 0.0
H925 H 0.02414 0.08238 0.83138 0.0
C926 C 0.29966 0.00819 0.91931 0.0
C927 C 0.2862 0.01848 0.8854 0.0
C928 C 0.318 0.00493 0.89696 0.0
C929 C 0.34821 0.00786 0.75733 0.0
H930 H 0.389 0.00975 0.87454 0.0
C931 C 0.42716 0.99393 0.69116 0.0
C932 C 0.44137 0.00396 0.72237 0.0
C933 C 0.40805 0.9951 0.70921 0.0
C934 C 0.37787 0.0094 0.84086 0.0
H935 H 0.28159 0.03253 0.79939 0.0
H936 H 0.31369 0.0276 0.76176 0.0
H937 H 0.35637 0.01279 0.90809 0.0
H938 H 0.44645 0.02359 0.79598 0.0
H939 H 0.41333 0.02615 0.826 0.0
H940 H 0.36988 0.00537 0.6898 0.0
C941 C 0.31 0.02176 0.80543 0.0
C942 C 0.35899 0.0108 0.86037 0.0
C943 C 0.29155 0.02483 0.82749 0.0
C944 C 0.43595 0.01549 0.77122 0.0
C945 C 0.41687 0.01684 0.78879 0.0
C946 C 0.36715 0.00666 0.73771 0.0
C947 C 0.32364 0.01206 0.84029 0.0
C948 C 0.34382 0.01006 0.819 0.0
C949 C 0.40262 0.00649 0.7586 0.0
C950 C 0.3823 0.00748 0.77918 0.0
H951 H 0.29635 0.00322 0.96434 0.0
H952 H 0.32786 0.99701 0.9248 0.0
H953 H 0.33701 0.00699 0.72397 0.0
H954 H 0.43081 0.98483 0.6535 0.0
H955 H 0.39763 0.98671 0.68514 0.0
C956 C 0.4848 0.30599 0.94522 0.0
C957 C 0.48867 0.29007 0.90904 0.0
C958 C 0.48692 0.32441 0.92235 0.0
C959 C 0.49161 0.3511 0.77626 0.0
H960 H 0.50337 0.39291 0.88376 0.0
C961 C 0.51009 0.42803 0.69703 0.0
C962 C 0.49981 0.44269 0.72532 0.0
C963 C 0.50874 0.40926 0.71779 0.0
C964 C 0.49998 0.38137 0.85328 0.0
H965 H 0.49826 0.28099 0.82089 0.0
H966 H 0.50297 0.3131 0.78164 0.0
H967 H 0.50247 0.36061 0.92317 0.0
H968 H 0.48007 0.4491 0.79764 0.0
H969 H 0.47815 0.41637 0.83494 0.0
H970 H 0.4899 0.37209 0.70601 0.0
C971 C 0.49765 0.31147 0.82718 0.0
C972 C 0.49934 0.36279 0.87586 0.0
C973 C 0.49515 0.293 0.84979 0.0
C974 C 0.48809 0.43813 0.77469 0.0
C975 C 0.48708 0.41943 0.79628 0.0
C976 C 0.49265 0.36967 0.7535 0.0
C977 C 0.4933 0.32751 0.86282 0.0
C978 C 0.49492 0.34732 0.83792 0.0
C979 C 0.49741 0.4048 0.76812 0.0
C980 C 0.49665 0.38502 0.79189 0.0
H981 H 0.47938 0.30421 0.99067 0.0
H982 H 0.48295 0.33618 0.95111 0.0
H983 H 0.48779 0.3398 0.74549 0.0
H984 H 0.5192 0.43105 0.65875 0.0
H985 H 0.5169 0.39829 0.69534 0.0
C986 C 0.21029 0.48518 0.85932 0.0
C987 C 0.21271 0.4704 0.9015 0.0
C988 C 0.19252 0.4883 0.83212 0.0
C989 C 0.14174 0.48132 0.86179 0.0
H990 H 0.1342 0.48768 0.68968 0.0
C991 C 0.06663 0.48015 0.76101 0.0
C992 C 0.06229 0.4923 0.71258 0.0
C993 C 0.08536 0.47793 0.78076 0.0
C994 C 0.13605 0.48622 0.73796 0.0
H995 H 0.19827 0.44743 0.94814 0.0
H996 H 0.16755 0.45288 0.90101 0.0
H997 H 0.16638 0.48337 0.72958 0.0
H998 H 0.07448 0.51142 0.6462 0.0
H999 H 0.10715 0.50799 0.68179 0.0
H1000 H 0.1117 0.48449 0.87105 0.0
C1001 C 0.17934 0.46199 0.88869 0.0
C1002 C 0.15451 0.4837 0.76072 0.0
C1003 C 0.19705 0.45874 0.91517 0.0
C1004 C 0.07728 0.50195 0.68367 0.0
C1005 C 0.09607 0.4999 0.70394 0.0
C1006 C 0.12339 0.48404 0.83928 0.0
C1007 C 0.17678 0.47694 0.84746 0.0
C1008 C 0.15749 0.48089 0.82282 0.0
C1009 C 0.10035 0.488 0.75326 0.0
C1010 C 0.12019 0.48617 0.77692 0.0
H1011 H 0.22207 0.4944 0.84782 0.0
H1012 H 0.19095 0.49996 0.80059 0.0
H1013 H 0.14361 0.47958 0.91001 0.0
H1014 H 0.05553 0.47228 0.78394 0.0
H1015 H 0.08806 0.46823 0.81772 0.0
C1016 C 0.98518 0.80068 0.42214 0.0
C1017 C 0.98949 0.78597 0.46296 0.0
C1018 C 0.98312 0.81941 0.44211 0.0
C1019 C 0.97716 0.84968 0.57896 0.0
H1020 H 1.00076 0.88784 0.4772 0.0
C1021 C 0.99172 0.92714 0.65797 0.0
C1022 C 0.98845 0.94177 0.61587 0.0
C1023 C 0.99057 0.90803 0.64063 0.0
C1024 C 0.99389 0.87742 0.50586 0.0
H1025 H 0.99391 0.77947 0.55765 0.0
H1026 H 0.99078 0.8122 0.59225 0.0
H1027 H 1.00047 0.85485 0.44495 0.0
H1028 H 0.98105 0.94763 0.52262 0.0
H1029 H 0.97897 0.91443 0.49265 0.0
H1030 H 0.97091 0.8724 0.64037 0.0
C1031 C 0.98886 0.80922 0.54471 0.0
C1032 C 0.99367 0.85846 0.48728 0.0
C1033 C 0.99083 0.79043 0.52475 0.0
C1034 C 0.98372 0.93679 0.55629 0.0
C1035 C 0.98264 0.91772 0.53894 0.0
C1036 C 0.97745 0.8687 0.5977 0.0
C1037 C 0.98543 0.82403 0.50342 0.0
C1038 C 0.98526 0.8443 0.52341 0.0
C1039 C 0.9862 0.90309 0.58072 0.0
C1040 C 0.98579 0.88282 0.56127 0.0
H1041 H 0.98426 0.79794 0.37416 0.0
H1042 H 0.98009 0.83035 0.40909 0.0
H1043 H 0.97039 0.83923 0.60771 0.0
H1044 H 0.99525 0.93041 0.70435 0.0
H1045 H 0.99352 0.89714 0.67387 0.0
C1046 C 0.69964 0.97805 0.45048 0.0
C1047 C 0.71207 0.99243 0.47013 0.0
C1048 C 0.68115 0.97671 0.47393 0.0
C1049 C 0.64428 0.00666 0.54381 0.0
H1050 H 0.6202 0.95908 0.58767 0.0
C1051 C 0.57047 0.0056 0.65645 0.0
C1052 C 0.55758 0.99139 0.63884 0.0
C1053 C 0.58955 0.00477 0.63871 0.0
C1054 C 0.62662 0.97248 0.57498 0.0
H1055 H 0.71471 0.01659 0.53038 0.0
H1056 H 0.68276 0.01409 0.5715 0.0
H1057 H 0.65301 0.9591 0.55106 0.0
H1058 H 0.55482 0.96494 0.58949 0.0
H1059 H 0.58796 0.9637 0.55742 0.0
H1060 H 0.61798 0.02008 0.56632 0.0
C1061 C 0.68724 0.00389 0.5378 0.0
C1062 C 0.64545 0.97248 0.5541 0.0
C1063 C 0.70569 0.00514 0.51475 0.0
C1064 C 0.56435 0.97611 0.60406 0.0
C1065 C 0.58343 0.97535 0.58587 0.0
C1066 C 0.62547 0.00666 0.56422 0.0
C1067 C 0.67462 0.98987 0.51704 0.0
C1068 C 0.65454 0.9896 0.53864 0.0
C1069 C 0.59625 0.98979 0.60236 0.0
C1070 C 0.61637 0.9896 0.58048 0.0
H1071 H 0.70411 0.96797 0.41639 0.0
H1072 H 0.67176 0.96578 0.45681 0.0
H1073 H 0.65071 0.02007 0.53114 0.0
H1074 H 0.56582 0.01748 0.68383 0.0
H1075 H 0.59904 0.01594 0.65355 0.0
C1076 C 0.51721 0.69996 0.4402 0.0
C1077 C 0.5129 0.71454 0.48147 0.0
C1078 C 0.5189 0.68111 0.45938 0.0
C1079 C 0.5236 0.6501 0.59541 0.0
H1080 H 0.50128 0.61246 0.48925 0.0
C1081 C 0.50864 0.57202 0.66815 0.0
C1082 C 0.51283 0.55772 0.62578 0.0
C1083 C 0.50973 0.59125 0.65209 0.0
C1084 C 0.50777 0.62274 0.51918 0.0
H1085 H 0.508 0.72058 0.57623 0.0
H1086 H 0.51036 0.68763 0.60934 0.0
H1087 H 0.50169 0.64565 0.45892 0.0
H1088 H 0.52168 0.55258 0.53336 0.0
H1089 H 0.52355 0.58601 0.50556 0.0
H1090 H 0.52929 0.62703 0.65619 0.0
C1091 C 0.51263 0.69083 0.56208 0.0
C1092 C 0.50808 0.64183 0.5017 0.0
C1093 C 0.51108 0.70975 0.54293 0.0
C1094 C 0.51831 0.56316 0.56719 0.0
C1095 C 0.51928 0.58235 0.55109 0.0
C1096 C 0.52318 0.63097 0.61309 0.0
C1097 C 0.51615 0.67618 0.52031 0.0
C1098 C 0.51607 0.65579 0.53937 0.0
C1099 C 0.5149 0.59665 0.59318 0.0
C1100 C 0.51533 0.61705 0.57503 0.0
H1101 H 0.51848 0.70291 0.39241 0.0
H1102 H 0.52203 0.67032 0.426 0.0
H1103 H 0.53006 0.66038 0.62539 0.0
H1104 H 0.50439 0.56839 0.71369 0.0
H1105 H 0.50611 0.60189 0.68546 0.0
C1106 C 0.79749 0.5012 0.51191 0.0
C1107 C 0.79132 0.51336 0.46542 0.0
C1108 C 0.81605 0.50226 0.53395 0.0
C1109 C 0.85926 0.53216 0.5412 0.0
H1110 H 0.88453 0.48359 0.5611 0.0
C1111 C 0.9405 0.52496 0.58561 0.0
C1112 C 0.94651 0.51028 0.6243 0.0
C1113 C 0.92139 0.52646 0.56838 0.0
C1114 C 0.87766 0.49729 0.55673 0.0
H1115 H 0.79978 0.53676 0.4076 0.0
H1116 H 0.83236 0.5385 0.44593 0.0
H1117 H 0.85161 0.48451 0.52823 0.0
H1118 H 0.9369 0.48612 0.67706 0.0
H1119 H 0.9037 0.48895 0.64808 0.0
H1120 H 0.88542 0.54491 0.56988 0.0
C1121 C 0.8227 0.52818 0.46536 0.0
C1122 C 0.85874 0.49781 0.53774 0.0
C1123 C 0.80408 0.52709 0.44309 0.0
C1124 C 0.93286 0.49748 0.64665 0.0
C1125 C 0.91379 0.49904 0.62971 0.0
C1126 C 0.87824 0.53163 0.56051 0.0
C1127 C 0.82902 0.51548 0.51012 0.0
C1128 C 0.84925 0.51522 0.53003 0.0
C1129 C 0.90782 0.51336 0.58961 0.0
C1130 C 0.88765 0.51417 0.56881 0.0
H1131 H 0.78823 0.49025 0.52971 0.0
H1132 H 0.82035 0.49245 0.56907 0.0
H1133 H 0.85232 0.5458 0.53604 0.0
H1134 H 0.95062 0.53506 0.56742 0.0
H1135 H 0.91737 0.53757 0.53705 0.0
loop_
_geom_bond_atom_site_label_1
_geom_bond_atom_site_label_2
_geom_bond_distance
_geom_bond_site_symmetry_2
_ccdc_geom_bond_type
P0 O11 1.490 . S
P0 C14 1.812 . S
P0 C20 1.803 . S
P0 C26 1.819 . S
H1 C15 0.941 . S
H2 C16 0.939 . S
H3 C18 0.940 . S
H4 C19 0.940 . S
H5 C21 0.939 . S
H6 C22 0.942 . S
H7 C24 0.940 . S
H8 C25 0.939 . S
H9 C27 0.941 . S
H10 C31 0.939 . S
O11 P0 1.490 . S
H12 C28 0.939 . S
H13 C30 0.940 . S
C14 P0 1.812 . S
C14 C15 1.389 . S
C14 C19 1.391 . S
C15 H1 0.941 . S
C15 C14 1.389 . S
C15 C16 1.397 . S
C16 H2 0.939 . S
C16 C15 1.397 . S
C16 C17 1.378 . S
C17 C16 1.378 . S
C17 C18 1.378 . S
C18 H3 0.940 . S
C18 C17 1.378 . S
C18 C19 1.396 . S
C19 H4 0.940 . S
C19 C14 1.391 . S
C19 C18 1.396 . S
C20 P0 1.803 . S
C20 C21 1.378 . S
C20 C25 1.400 . S
C21 H5 0.939 . S
C21 C20 1.378 . S
C21 C22 1.361 . S
C22 H6 0.942 . S
C22 C21 1.361 . S
C22 C23 1.369 . S
C23 C22 1.369 . S
C23 C24 1.404 . S
C24 H7 0.940 . S
C24 C23 1.404 . S
C24 C25 1.389 . S
C25 H8 0.939 . S
C25 C20 1.400 . S
C25 C24 1.389 . S
C26 P0 1.819 . S
C26 C27 1.391 . S
C26 C31 1.391 . S
C27 H9 0.941 . S
C27 C26 1.391 . S
C27 C28 1.396 . S
C28 H12 0.939 . S
C28 C27 1.396 . S
C28 C29 1.397 . S
C29 C28 1.397 . S
C29 C30 1.385 . S
C30 H13 0.940 . S
C30 C29 1.385 . S
C30 C31 1.388 . S
C31 H10 0.939 . S
C31 C26 1.391 . S
C31 C30 1.388 . S
P32 O43 1.490 . S
P32 C46 1.812 . S
P32 C52 1.803 . S
P32 C58 1.819 . S
H33 C47 0.941 . S
H34 C48 0.939 . S
H35 C50 0.940 . S
H36 C51 0.950 . S
H37 C53 0.939 . S
H38 C54 0.942 . S
H39 C56 0.940 . S
H40 C57 0.959 . S
H41 C59 0.941 . S
H42 C63 0.929 1_655 S
O43 P32 1.490 . S
H44 C60 0.939 . S
H45 C62 0.940 . S
C46 P32 1.812 . S
C46 C47 1.389 . S
C46 C51 1.375 1_455 S
C47 H33 0.941 . S
C47 C46 1.389 . S
C47 C48 1.397 . S
C48 H34 0.939 . S
C48 C47 1.397 . S
C48 C49 1.378 . S
C49 C48 1.378 . S
C49 C50 1.378 1_455 S
C50 H35 0.940 . S
C50 C49 1.378 1_655 S
C50 C51 1.403 . S
C51 H36 0.950 . S
C51 C46 1.375 1_655 S
C51 C50 1.403 . S
C52 P32 1.803 . S
C52 C53 1.378 . S
C52 C57 1.368 1_455 S
C53 H37 0.939 . S
C53 C52 1.378 . S
C53 C54 1.361 . S
C54 H38 0.942 . S
C54 C53 1.361 . S
C54 C55 1.369 . S
C55 C54 1.369 . S
C55 C56 1.404 1_455 S
C56 H39 0.940 . S
C56 C55 1.404 1_655 S
C56 C57 1.402 . S
C57 H40 0.959 . S
C57 C52 1.368 1_655 S
C57 C56 1.402 . S
C58 P32 1.819 . S
C58 C59 1.391 . S
C58 C63 1.391 . S
C59 H41 0.941 . S
C59 C58 1.391 . S
C59 C60 1.396 . S
C60 H44 0.939 . S
C60 C59 1.396 . S
C60 C61 1.397 . S
C61 C60 1.397 . S
C61 C62 1.385 1_455 S
C62 H45 0.940 . S
C62 C61 1.385 1_655 S
C62 C63 1.388 1_655 S
C63 H42 0.929 1_455 S
C63 C58 1.391 . S
C63 C62 1.388 1_455 S
P64 O75 1.490 . S
P64 C78 1.812 . S
P64 C84 1.803 . S
P64 C90 1.819 . S
H65 C79 0.941 . S
H66 C80 0.939 . S
H67 C82 0.940 . S
H68 C83 0.950 . S
H69 C85 0.939 . S
H70 C86 0.942 . S
H71 C88 0.940 . S
H72 C89 0.959 . S
H73 C91 0.941 . S
H74 C95 0.929 1_565 S
O75 P64 1.490 . S
H76 C92 0.939 . S
H77 C94 0.940 . S
C78 P64 1.812 . S
C78 C79 1.389 . S
C78 C83 1.375 1_545 S
C79 H65 0.941 . S
C79 C78 1.389 . S
C79 C80 1.397 . S
C80 H66 0.939 . S
C80 C79 1.397 . S
C80 C81 1.378 . S
C81 C80 1.378 . S
C81 C82 1.378 1_545 S
C82 H67 0.940 . S
C82 C81 1.378 1_565 S
C82 C83 1.403 . S
C83 H68 0.950 . S
C83 C78 1.375 1_565 S
C83 C82 1.403 . S
C84 P64 1.803 . S
C84 C85 1.378 . S
C84 C89 1.368 1_545 S
C85 H69 0.939 . S
C85 C84 1.378 . S
C85 C86 1.361 . S
C86 H70 0.942 . S
C86 C85 1.361 . S
C86 C87 1.369 . S
C87 C86 1.369 . S
C87 C88 1.404 1_545 S
C88 H71 0.940 . S
C88 C87 1.404 1_565 S
C88 C89 1.402 . S
C89 H72 0.959 . S
C89 C84 1.368 1_565 S
C89 C88 1.402 . S
C90 P64 1.819 . S
C90 C91 1.391 . S
C90 C95 1.391 . S
C91 H73 0.941 . S
C91 C90 1.391 . S
C91 C92 1.396 . S
C92 H76 0.939 . S
C92 C91 1.396 . S
C92 C93 1.397 . S
C93 C92 1.397 . S
C93 C94 1.385 1_545 S
C94 H77 0.940 . S
C94 C93 1.385 1_565 S
C94 C95 1.388 1_565 S
C95 H74 0.929 1_545 S
C95 C90 1.391 . S
C95 C94 1.388 1_545 S
P96 O107 1.490 . S
P96 C110 1.812 . S
P96 C116 1.803 . S
P96 C122 1.819 . S
H97 C111 0.941 . S
H98 C112 0.939 . S
H99 C114 0.940 . S
H100 C115 0.940 . S
H101 C117 0.939 . S
H102 C118 0.942 . S
H103 C120 0.940 . S
H104 C121 0.939 . S
H105 C123 0.941 . S
H106 C127 0.939 . S
O107 P96 1.490 . S
H108 C124 0.939 . S
H109 C126 0.940 . S
C110 P96 1.812 . S
C110 C111 1.389 . S
C110 C115 1.391 . S
C111 H97 0.941 . S
C111 C110 1.389 . S
C111 C112 1.397 . S
C112 H98 0.939 . S
C112 C111 1.397 . S
C112 C113 1.378 . S
C113 C112 1.378 . S
C113 C114 1.378 . S
C114 H99 0.940 . S
C114 C113 1.378 . S
C114 C115 1.396 . S
C115 H100 0.940 . S
C115 C110 1.391 . S
C115 C114 1.396 . S
C116 P96 1.803 . S
C116 C117 1.378 . S
C116 C121 1.400 . S
C117 H101 0.939 . S
C117 C116 1.378 . S
C117 C118 1.361 . S
C118 H102 0.942 . S
C118 C117 1.361 . S
C118 C119 1.369 . S
C119 C118 1.369 . S
C119 C120 1.404 . S
C120 H103 0.940 . S
C120 C119 1.404 . S
C120 C121 1.389 . S
C121 H104 0.939 . S
C121 C116 1.400 . S
C121 C120 1.389 . S
C122 P96 1.819 . S
C122 C123 1.391 . S
C122 C127 1.391 . S
C123 H105 0.941 . S
C123 C122 1.391 . S
C123 C124 1.396 . S
C124 H108 0.939 . S
C124 C123 1.396 . S
C124 C125 1.397 . S
C125 C124 1.397 . S
C125 C126 1.385 . S
C126 H109 0.940 . S
C126 C125 1.385 . S
C126 C127 1.388 . S
C127 H106 0.939 . S
C127 C122 1.391 . S
C127 C126 1.388 . S
P128 O139 1.490 . S
P128 C142 1.812 1_554 S
P128 C148 1.803 . S
P128 C154 1.819 . S
H129 C143 0.941 . S
H130 C144 0.939 . S
H131 C146 0.940 . S
H132 C147 0.940 1_554 S
H133 C149 0.939 . S
H134 C150 0.942 . S
H135 C152 0.940 . S
H136 C153 0.939 . S
H137 C155 0.941 . S
H138 C159 0.939 . S
O139 P128 1.490 . S
H140 C156 0.939 . S
H141 C158 0.940 . S
C142 P128 1.812 1_556 S
C142 C143 1.389 . S
C142 C147 1.391 . S
C143 H129 0.941 . S
C143 C142 1.389 . S
C143 C144 1.397 . S
C144 H130 0.939 . S
C144 C143 1.397 . S
C144 C145 1.378 . S
C145 C144 1.378 . S
C145 C146 1.378 . S
C146 H131 0.940 . S
C146 C145 1.378 . S
C146 C147 1.396 . S
C147 H132 0.940 1_556 S
C147 C142 1.391 . S
C147 C146 1.396 . S
C148 P128 1.803 . S
C148 C149 1.378 . S
C148 C153 1.400 . S
C149 H133 0.939 . S
C149 C148 1.378 . S
C149 C150 1.361 . S
C150 H134 0.942 . S
C150 C149 1.361 . S
C150 C151 1.369 . S
C151 C150 1.369 . S
C151 C152 1.404 . S
C152 H135 0.940 . S
C152 C151 1.404 . S
C152 C153 1.389 . S
C153 H136 0.939 . S
C153 C148 1.400 . S
C153 C152 1.389 . S
C154 P128 1.819 . S
C154 C155 1.391 . S
C154 C159 1.391 . S
C155 H137 0.941 . S
C155 C154 1.391 . S
C155 C156 1.396 . S
C156 H140 0.939 . S
C156 C155 1.396 . S
C156 C157 1.397 . S
C157 C156 1.397 . S
C157 C158 1.385 . S
C158 H141 0.940 . S
C158 C157 1.385 . S
C158 C159 1.388 . S
C159 H138 0.939 . S
C159 C154 1.391 . S
C159 C158 1.388 . S
P160 O171 1.490 . S
P160 C174 1.812 1_554 S
P160 C180 1.803 . S
P160 C186 1.819 . S
H161 C175 0.941 . S
H162 C176 0.939 . S
H163 C178 0.940 . S
H164 C179 0.942 1_554 S
H165 C181 0.939 . S
H166 C182 0.942 . S
H167 C184 0.940 . S
H168 C185 0.951 . S
H169 C187 0.941 . S
H170 C191 0.934 1_655 S
O171 P160 1.490 . S
H172 C188 0.939 . S
H173 C190 0.940 . S
C174 P160 1.812 1_556 S
C174 C175 1.389 . S
C174 C179 1.388 1_455 S
C175 H161 0.941 . S
C175 C174 1.389 . S
C175 C176 1.397 . S
C176 H162 0.939 . S
C176 C175 1.397 . S
C176 C177 1.378 . S
C177 C176 1.378 . S
C177 C178 1.378 1_455 S
C178 H163 0.940 . S
C178 C177 1.378 1_655 S
C178 C179 1.398 . S
C179 H164 0.942 1_556 S
C179 C174 1.388 1_655 S
C179 C178 1.398 . S
C180 P160 1.803 . S
C180 C181 1.378 . S
C180 C185 1.381 1_455 S
C181 H165 0.939 . S
C181 C180 1.378 . S
C181 C182 1.361 . S
C182 H166 0.942 . S
C182 C181 1.361 . S
C182 C183 1.369 . S
C183 C182 1.369 . S
C183 C184 1.404 1_455 S
C184 H167 0.940 . S
C184 C183 1.404 1_655 S
C184 C185 1.396 . S
C185 H168 0.951 . S
C185 C180 1.381 1_655 S
C185 C184 1.396 . S
C186 P160 1.819 . S
C186 C187 1.391 . S
C186 C191 1.391 . S
C187 H169 0.941 . S
C187 C186 1.391 . S
C187 C188 1.396 . S
C188 H172 0.939 . S
C188 C187 1.396 . S
C188 C189 1.397 . S
C189 C188 1.397 . S
C189 C190 1.385 1_455 S
C190 H173 0.940 . S
C190 C189 1.385 1_655 S
C190 C191 1.388 1_655 S
C191 H170 0.934 1_455 S
C191 C186 1.391 . S
C191 C190 1.388 1_455 S
P192 O203 1.490 . S
P192 C206 1.812 1_554 S
P192 C212 1.803 . S
P192 C218 1.819 . S
H193 C207 0.941 . S
H194 C208 0.939 . S
H195 C210 0.940 . S
H196 C211 0.942 1_554 S
H197 C213 0.939 . S
H198 C214 0.942 . S
H199 C216 0.940 . S
H200 C217 0.951 . S
H201 C219 0.941 . S
H202 C223 0.934 1_565 S
O203 P192 1.490 . S
H204 C220 0.939 . S
H205 C222 0.940 . S
C206 P192 1.812 1_556 S
C206 C207 1.389 . S
C206 C211 1.388 1_545 S
C207 H193 0.941 . S
C207 C206 1.389 . S
C207 C208 1.397 . S
C208 H194 0.939 . S
C208 C207 1.397 . S
C208 C209 1.378 . S
C209 C208 1.378 . S
C209 C210 1.378 1_545 S
C210 H195 0.940 . S
C210 C209 1.378 1_565 S
C210 C211 1.398 . S
C211 H196 0.942 1_556 S
C211 C206 1.388 1_565 S
C211 C210 1.398 . S
C212 P192 1.803 . S
C212 C213 1.378 . S
C212 C217 1.381 1_545 S
C213 H197 0.939 . S
C213 C212 1.378 . S
C213 C214 1.361 . S
C214 H198 0.942 . S
C214 C213 1.361 . S
C214 C215 1.369 . S
C215 C214 1.369 . S
C215 C216 1.404 1_545 S
C216 H199 0.940 . S
C216 C215 1.404 1_565 S
C216 C217 1.397 . S
C217 H200 0.951 . S
C217 C212 1.381 1_565 S
C217 C216 1.397 . S
C218 P192 1.819 . S
C218 C219 1.391 . S
C218 C223 1.391 . S
C219 H201 0.941 . S
C219 C218 1.391 . S
C219 C220 1.396 . S
C220 H204 0.939 . S
C220 C219 1.396 . S
C220 C221 1.397 . S
C221 C220 1.397 . S
C221 C222 1.385 1_545 S
C222 H205 0.940 . S
C222 C221 1.385 1_565 S
C222 C223 1.388 1_565 S
C223 H202 0.934 1_545 S
C223 C218 1.391 . S
C223 C222 1.388 1_545 S
P224 O235 1.490 . S
P224 C238 1.812 1_554 S
P224 C244 1.803 . S
P224 C250 1.819 . S
H225 C239 0.941 . S
H226 C240 0.939 . S
H227 C242 0.940 . S
H228 C243 0.940 1_554 S
H229 C245 0.939 . S
H230 C246 0.942 . S
H231 C248 0.940 . S
H232 C249 0.939 . S
H233 C251 0.941 . S
H234 C255 0.939 . S
O235 P224 1.490 . S
H236 C252 0.939 . S
H237 C254 0.940 . S
C238 P224 1.812 1_556 S
C238 C239 1.389 . S
C238 C243 1.391 . S
C239 H225 0.941 . S
C239 C238 1.389 . S
C239 C240 1.397 . S
C240 H226 0.939 . S
C240 C239 1.397 . S
C240 C241 1.378 . S
C241 C240 1.378 . S
C241 C242 1.378 . S
C242 H227 0.940 . S
C242 C241 1.378 . S
C242 C243 1.396 . S
C243 H228 0.940 1_556 S
C243 C238 1.391 . S
C243 C242 1.396 . S
C244 P224 1.803 . S
C244 C245 1.378 . S
C244 C249 1.400 . S
C245 H229 0.939 . S
C245 C244 1.378 . S
C245 C246 1.361 . S
C246 H230 0.942 . S
C246 C245 1.361 . S
C246 C247 1.369 . S
C247 C246 1.369 . S
C247 C248 1.404 . S
C248 H231 0.940 . S
C248 C247 1.404 . S
C248 C249 1.389 . S
C249 H232 0.939 . S
C249 C244 1.400 . S
C249 C248 1.389 . S
C250 P224 1.819 . S
C250 C251 1.391 . S
C250 C255 1.391 . S
C251 H233 0.941 . S
C251 C250 1.391 . S
C251 C252 1.396 . S
C252 H236 0.939 . S
C252 C251 1.396 . S
C252 C253 1.397 . S
C253 C252 1.397 . S
C253 C254 1.385 . S
C254 H237 0.940 . S
C254 C253 1.385 . S
C254 C255 1.388 . S
C255 H234 0.939 . S
C255 C250 1.391 . S
C255 C254 1.388 . S
Tb256 C266 2.825 . S
Tb256 O267 2.347 1_455 S
Tb256 O270 2.366 . S
Tb256 O275 2.418 . S
Tb256 O276 2.384 1_565 S
Tb256 O279 2.479 . S
Tb256 O280 2.471 . S
Eu257 O268 2.418 . S
Eu257 O269 2.384 1_545 S
Eu257 O272 2.479 . S
Eu257 O273 2.471 . S
Eu257 O274 2.347 1_655 S
Eu257 O277 2.366 . S
Eu257 C287 2.825 . S
C258 O274 1.259 1_565 S
C258 O275 1.265 . S
C259 O276 1.255 . S
C259 O277 1.265 1_455 S
C260 C262 1.380 . S
C260 C263 1.374 . S
C260 C266 1.507 . S
C261 C262 1.384 . S
C261 C265 1.387 . S
C261 H288 0.930 . S
C262 C260 1.380 . S
C262 C261 1.384 . S
C262 H289 0.931 . S
C263 C260 1.374 . S
C263 C264 1.390 . S
C263 H290 0.930 1_455 S
C264 C263 1.390 . S
C264 C265 1.391 . S
C264 H291 0.930 1_455 S
C265 C261 1.387 . S
C265 C264 1.391 . S
C266 Tb256 2.825 . S
C266 C260 1.507 . S
C266 O279 1.238 . S
C266 O280 1.247 . S
O267 Tb256 2.347 1_655 S
O267 C271 1.259 1_565 S
O268 Eu257 2.418 . S
O268 C271 1.265 . S
O269 Eu257 2.384 1_565 S
O269 C278 1.255 . S
O270 Tb256 2.366 . S
O270 C278 1.265 1_455 S
C271 O267 1.259 1_545 S
C271 O268 1.265 . S
O272 Eu257 2.479 . S
O272 C287 1.238 . S
O273 Eu257 2.471 . S
O273 C287 1.247 . S
O274 Eu257 2.347 1_455 S
O274 C258 1.259 1_545 S
O275 Tb256 2.418 . S
O275 C258 1.265 . S
O276 Tb256 2.384 1_545 S
O276 C259 1.255 . S
O277 Eu257 2.366 . S
O277 C259 1.265 1_655 S
C278 O269 1.255 . S
C278 O270 1.265 1_655 S
O279 Tb256 2.479 . S
O279 C266 1.238 . S
O280 Tb256 2.471 . S
O280 C266 1.247 . S
C281 C284 1.380 . S
C281 C285 1.374 . S
C281 C287 1.507 . S
C282 C283 1.387 . S
C282 C286 1.391 . S
C283 C282 1.387 . S
C283 C284 1.384 . S
C283 H292 0.930 . S
C284 C281 1.380 . S
C284 C283 1.384 . S
C284 H293 0.931 . S
C285 C281 1.374 . S
C285 C286 1.390 . S
C285 H294 0.930 1_655 S
C286 C282 1.391 . S
C286 C285 1.390 . S
C286 H295 0.930 1_655 S
C287 Eu257 2.825 . S
C287 O272 1.238 . S
C287 O273 1.247 . S
C287 C281 1.507 . S
H288 C261 0.930 . S
H289 C262 0.931 . S
H290 C263 0.930 1_655 S
H291 C264 0.930 1_655 S
H292 C283 0.930 . S
H293 C284 0.931 . S
H294 C285 0.930 1_455 S
H295 C286 0.930 1_455 S
Tb296 C306 2.825 . S
Tb296 O307 2.347 1_545 S
Tb296 O310 2.366 . S
Tb296 O315 2.418 . S
Tb296 O316 2.384 . S
Tb296 O319 2.479 . S
Tb296 O320 2.471 . S
Eu297 O308 2.418 . S
Eu297 O309 2.384 . S
Eu297 O312 2.479 . S
Eu297 O313 2.471 . S
Eu297 O314 2.347 1_565 S
Eu297 O317 2.366 . S
Eu297 C327 2.825 . S
C298 O314 1.259 . S
C298 O315 1.265 . S
C299 O316 1.255 . S
C299 O317 1.265 1_545 S
C300 C302 1.380 . S
C300 C303 1.374 . S
C300 C306 1.507 . S
C301 C302 1.384 . S
C301 C305 1.387 . S
C301 H328 0.930 . S
C302 C300 1.380 . S
C302 C301 1.384 . S
C302 H329 0.931 . S
C303 C300 1.374 . S
C303 C304 1.390 . S
C303 H330 0.930 1_545 S
C304 C303 1.390 . S
C304 C305 1.391 . S
C304 H331 0.930 1_545 S
C305 C301 1.387 . S
C305 C304 1.391 . S
C306 Tb296 2.825 . S
C306 C300 1.507 . S
C306 O319 1.238 . S
C306 O320 1.247 . S
O307 Tb296 2.347 1_565 S
O307 C311 1.259 . S
O308 Eu297 2.418 . S
O308 C311 1.265 . S
O309 Eu297 2.384 . S
O309 C318 1.255 . S
O310 Tb296 2.366 . S
O310 C318 1.265 1_545 S
C311 O307 1.259 . S
C311 O308 1.265 . S
O312 Eu297 2.479 . S
O312 C327 1.238 . S
O313 Eu297 2.471 . S
O313 C327 1.247 . S
O314 Eu297 2.347 1_545 S
O314 C298 1.259 . S
O315 Tb296 2.418 . S
O315 C298 1.265 . S
O316 Tb296 2.384 . S
O316 C299 1.255 . S
O317 Eu297 2.366 . S
O317 C299 1.265 1_565 S
C318 O309 1.255 . S
C318 O310 1.265 1_565 S
O319 Tb296 2.479 . S
O319 C306 1.238 . S
O320 Tb296 2.471 . S
O320 C306 1.247 . S
C321 C324 1.380 . S
C321 C325 1.374 . S
C321 C327 1.507 . S
C322 C323 1.387 . S
C322 C326 1.391 . S
C323 C322 1.387 . S
C323 C324 1.384 . S
C323 H332 0.930 . S
C324 C321 1.380 . S
C324 C323 1.384 . S
C324 H333 0.931 . S
C325 C321 1.374 . S
C325 C326 1.390 . S
C325 H334 0.930 1_565 S
C326 C322 1.391 . S
C326 C325 1.390 . S
C326 H335 0.930 1_565 S
C327 Eu297 2.825 . S
C327 O312 1.238 . S
C327 O313 1.247 . S
C327 C321 1.507 . S
H328 C301 0.930 . S
H329 C302 0.931 . S
H330 C303 0.930 1_565 S
H331 C304 0.930 1_565 S
H332 C323 0.930 . S
H333 C324 0.931 . S
H334 C325 0.930 1_545 S
H335 C326 0.930 1_545 S
Tb336 C346 2.825 . S
Tb336 O347 2.347 . S
Tb336 O350 2.366 . S
Tb336 O355 2.418 . S
Tb336 O356 2.384 . S
Tb336 O359 2.479 . S
Tb336 O360 2.471 . S
Eu337 O348 2.418 . S
Eu337 O349 2.384 . S
Eu337 O352 2.479 . S
Eu337 O353 2.471 . S
Eu337 O354 2.347 . S
Eu337 O357 2.366 . S
Eu337 C367 2.825 . S
C338 O354 1.259 . S
C338 O355 1.265 . S
C339 O356 1.255 . S
C339 O357 1.265 . S
C340 C342 1.380 . S
C340 C343 1.374 . S
C340 C346 1.507 . S
C341 C342 1.384 . S
C341 C345 1.387 . S
C341 H368 0.930 . S
C342 C340 1.380 . S
C342 C341 1.384 . S
C342 H369 0.931 . S
C343 C340 1.374 . S
C343 C344 1.390 . S
C343 H370 0.930 . S
C344 C343 1.390 . S
C344 C345 1.391 . S
C344 H371 0.930 . S
C345 C341 1.387 . S
C345 C344 1.391 . S
C346 Tb336 2.825 . S
C346 C340 1.507 . S
C346 O359 1.238 . S
C346 O360 1.247 . S
O347 Tb336 2.347 . S
O347 C351 1.259 . S
O348 Eu337 2.418 . S
O348 C351 1.265 . S
O349 Eu337 2.384 . S
O349 C358 1.255 . S
O350 Tb336 2.366 . S
O350 C358 1.265 . S
C351 O347 1.259 . S
C351 O348 1.265 . S
O352 Eu337 2.479 . S
O352 C367 1.238 . S
O353 Eu337 2.471 . S
O353 C367 1.247 . S
O354 Eu337 2.347 . S
O354 C338 1.259 . S
O355 Tb336 2.418 . S
O355 C338 1.265 . S
O356 Tb336 2.384 . S
O356 C339 1.255 . S
O357 Eu337 2.366 . S
O357 C339 1.265 . S
C358 O349 1.255 . S
C358 O350 1.265 . S
O359 Tb336 2.479 . S
O359 C346 1.238 . S
O360 Tb336 2.471 . S
O360 C346 1.247 . S
C361 C364 1.380 . S
C361 C365 1.374 . S
C361 C367 1.507 . S
C362 C363 1.387 . S
C362 C366 1.391 . S
C363 C362 1.387 . S
C363 C364 1.384 . S
C363 H372 0.930 . S
C364 C361 1.380 . S
C364 C363 1.384 . S
C364 H373 0.931 . S
C365 C361 1.374 . S
C365 C366 1.390 . S
C365 H374 0.930 . S
C366 C362 1.391 . S
C366 C365 1.390 . S
C366 H375 0.930 . S
C367 Eu337 2.825 . S
C367 O352 1.238 . S
C367 O353 1.247 . S
C367 C361 1.507 . S
H368 C341 0.930 . S
H369 C342 0.931 . S
H370 C343 0.930 . S
H371 C344 0.930 . S
H372 C363 0.930 . S
H373 C364 0.931 . S
H374 C365 0.930 . S
H375 C366 0.930 . S
Tb376 C386 2.825 . S
Tb376 O387 2.347 . S
Tb376 O390 2.366 . S
Tb376 O395 2.418 . S
Tb376 O396 2.384 1_655 S
Tb376 O399 2.479 . S
Tb376 O400 2.471 . S
Eu377 O388 2.418 . S
Eu377 O389 2.384 1_455 S
Eu377 O392 2.479 . S
Eu377 O393 2.471 . S
Eu377 O394 2.347 . S
Eu377 O397 2.366 . S
Eu377 C407 2.825 . S
C378 O394 1.259 1_655 S
C378 O395 1.265 . S
C379 O396 1.255 . S
C379 O397 1.265 . S
C380 C382 1.380 . S
C380 C383 1.374 . S
C380 C386 1.507 . S
C381 C382 1.384 . S
C381 C385 1.387 . S
C381 H408 0.930 . S
C382 C380 1.380 . S
C382 C381 1.384 . S
C382 H409 0.931 . S
C383 C380 1.374 . S
C383 C384 1.390 . S
C383 H410 0.930 . S
C384 C383 1.390 . S
C384 C385 1.391 . S
C384 H411 0.930 . S
C385 C381 1.387 . S
C385 C384 1.391 . S
C386 Tb376 2.825 . S
C386 C380 1.507 . S
C386 O399 1.238 . S
C386 O400 1.247 . S
O387 Tb376 2.347 . S
O387 C391 1.259 1_655 S
O388 Eu377 2.418 . S
O388 C391 1.265 . S
O389 Eu377 2.384 1_655 S
O389 C398 1.255 . S
O390 Tb376 2.366 . S
O390 C398 1.265 . S
C391 O387 1.259 1_455 S
C391 O388 1.265 . S
O392 Eu377 2.479 . S
O392 C407 1.238 . S
O393 Eu377 2.471 . S
O393 C407 1.247 . S
O394 Eu377 2.347 . S
O394 C378 1.259 1_455 S
O395 Tb376 2.418 . S
O395 C378 1.265 . S
O396 Tb376 2.384 1_455 S
O396 C379 1.255 . S
O397 Eu377 2.366 . S
O397 C379 1.265 . S
C398 O389 1.255 . S
C398 O390 1.265 . S
O399 Tb376 2.479 . S
O399 C386 1.238 . S
O400 Tb376 2.471 . S
O400 C386 1.247 . S
C401 C404 1.380 . S
C401 C405 1.374 . S
C401 C407 1.507 . S
C402 C403 1.387 . S
C402 C406 1.391 . S
C403 C402 1.387 . S
C403 C404 1.384 . S
C403 H412 0.930 . S
C404 C401 1.380 . S
C404 C403 1.384 . S
C404 H413 0.931 . S
C405 C401 1.374 . S
C405 C406 1.390 . S
C405 H414 0.930 . S
C406 C402 1.391 . S
C406 C405 1.390 . S
C406 H415 0.930 . S
C407 Eu377 2.825 . S
C407 O392 1.238 . S
C407 O393 1.247 . S
C407 C401 1.507 . S
H408 C381 0.930 . S
H409 C382 0.931 . S
H410 C383 0.930 . S
H411 C384 0.930 . S
H412 C403 0.930 . S
H413 C404 0.931 . S
H414 C405 0.930 . S
H415 C406 0.930 . S
C416 C417 1.352 . S
C416 C418 1.327 . S
C416 H441 0.950 . S
C417 C416 1.352 . S
C417 C433 1.346 1_545 S
C418 C416 1.327 . S
C418 C437 1.438 . S
C418 H442 0.950 . S
C419 C436 1.574 . S
C419 C438 1.354 1_565 S
C419 H443 0.949 . S
H420 C424 0.949 . S
C421 C422 1.320 1_565 S
C421 C423 1.327 . S
C421 H444 0.950 . S
C422 C421 1.320 1_545 S
C422 C434 1.379 . S
C423 C421 1.327 . S
C423 C439 1.407 1_565 S
C423 H445 0.950 . S
C424 H420 0.949 . S
C424 C432 1.574 . S
C424 C440 1.389 . S
H425 C433 0.950 . S
H426 C431 0.950 . S
H427 C432 0.949 . S
H428 C434 0.950 . S
H429 C435 0.950 . S
H430 C436 0.949 . S
C431 H426 0.950 . S
C431 C433 1.327 . S
C431 C437 1.419 1_565 S
C432 C424 1.574 . S
C432 H427 0.949 . S
C432 C438 1.382 . S
C433 C417 1.346 1_565 S
C433 H425 0.950 . S
C433 C431 1.327 . S
C434 C422 1.379 . S
C434 H428 0.950 . S
C434 C435 1.327 . S
C435 H429 0.950 . S
C435 C434 1.327 . S
C435 C439 1.451 . S
C436 C419 1.574 . S
C436 H430 0.949 . S
C436 C440 1.348 1_565 S
C437 C418 1.438 . S
C437 C431 1.419 1_545 S
C437 C438 1.523 . S
C438 C419 1.354 1_545 S
C438 C432 1.382 . S
C438 C437 1.523 . S
C439 C423 1.407 1_545 S
C439 C435 1.451 . S
C439 C440 1.523 . S
C440 C424 1.389 . S
C440 C436 1.348 1_545 S
C440 C439 1.523 . S
H441 C416 0.950 . S
H442 C418 0.950 . S
H443 C419 0.949 . S
H444 C421 0.950 . S
H445 C423 0.950 . S
C446 C447 1.349 . S
C446 C448 1.327 . S
C446 H471 0.950 . S
C447 C446 1.349 . S
C447 C463 1.349 . S
C448 C446 1.327 . S
C448 C467 1.429 . S
C448 H472 0.950 . S
C449 C466 1.574 . S
C449 C468 1.368 . S
C449 H473 0.949 . S
H450 C454 0.949 . S
C451 C452 1.349 . S
C451 C453 1.327 . S
C451 H474 0.950 . S
C452 C451 1.349 . S
C452 C464 1.349 . S
C453 C451 1.327 . S
C453 C469 1.429 . S
C453 H475 0.950 . S
C454 H450 0.949 . S
C454 C462 1.574 . S
C454 C470 1.368 . S
H455 C463 0.950 . S
H456 C461 0.950 . S
H457 C462 0.949 . S
H458 C464 0.950 . S
H459 C465 0.950 . S
H460 C466 0.949 . S
C461 H456 0.950 . S
C461 C463 1.327 . S
C461 C467 1.429 . S
C462 C454 1.574 . S
C462 H457 0.949 . S
C462 C468 1.368 . S
C463 C447 1.349 . S
C463 H455 0.950 . S
C463 C461 1.327 . S
C464 C452 1.349 . S
C464 H458 0.950 . S
C464 C465 1.327 . S
C465 H459 0.950 . S
C465 C464 1.327 . S
C465 C469 1.429 . S
C466 C449 1.574 . S
C466 H460 0.949 . S
C466 C470 1.368 . S
C467 C448 1.429 . S
C467 C461 1.429 . S
C467 C468 1.523 . S
C468 C449 1.368 . S
C468 C462 1.368 . S
C468 C467 1.523 . S
C469 C453 1.429 . S
C469 C465 1.429 . S
C469 C470 1.523 . S
C470 C454 1.368 . S
C470 C466 1.368 . S
C470 C469 1.523 . S
H471 C446 0.950 . S
H472 C448 0.950 . S
H473 C449 0.949 . S
H474 C451 0.950 . S
H475 C453 0.950 . S
C476 C477 1.349 . S
C476 C478 1.327 . S
C476 H501 0.950 . S
C477 C476 1.349 . S
C477 C493 1.349 . S
C478 C476 1.327 . S
C478 C497 1.429 . S
C478 H502 0.950 . S
C479 C496 1.574 . S
C479 C498 1.368 . S
C479 H503 0.949 . S
H480 C484 0.949 . S
C481 C482 1.349 . S
C481 C483 1.327 . S
C481 H504 0.950 . S
C482 C481 1.349 . S
C482 C494 1.349 . S
C483 C481 1.327 . S
C483 C499 1.429 . S
C483 H505 0.950 . S
C484 H480 0.949 . S
C484 C492 1.574 . S
C484 C500 1.368 . S
H485 C493 0.950 . S
H486 C491 0.950 . S
H487 C492 0.949 . S
H488 C494 0.950 . S
H489 C495 0.950 . S
H490 C496 0.949 . S
C491 H486 0.950 . S
C491 C493 1.327 . S
C491 C497 1.429 . S
C492 C484 1.574 . S
C492 H487 0.949 . S
C492 C498 1.368 . S
C493 C477 1.349 . S
C493 H485 0.950 . S
C493 C491 1.327 . S
C494 C482 1.349 . S
C494 H488 0.950 . S
C494 C495 1.327 . S
C495 H489 0.950 . S
C495 C494 1.327 . S
C495 C499 1.429 . S
C496 C479 1.574 . S
C496 H490 0.949 . S
C496 C500 1.368 . S
C497 C478 1.429 . S
C497 C491 1.429 . S
C497 C498 1.523 . S
C498 C479 1.368 . S
C498 C492 1.368 . S
C498 C497 1.523 . S
C499 C483 1.429 . S
C499 C495 1.429 . S
C499 C500 1.523 . S
C500 C484 1.368 . S
C500 C496 1.368 . S
C500 C499 1.523 . S
H501 C476 0.950 . S
H502 C478 0.950 . S
H503 C479 0.949 . S
H504 C481 0.950 . S
H505 C483 0.950 . S
C506 C507 1.352 . S
C506 C508 1.327 . S
C506 H531 0.950 . S
C507 C506 1.352 . S
C507 C523 1.345 1_455 S
C508 C506 1.327 . S
C508 C527 1.442 . S
C508 H532 0.950 . S
C509 C526 1.574 . S
C509 C528 1.348 1_655 S
C509 H533 0.949 . S
H510 C514 0.949 . S
C511 C512 1.305 1_655 S
C511 C513 1.327 . S
C511 H534 0.950 . S
C512 C511 1.305 1_455 S
C512 C524 1.393 . S
C513 C511 1.327 . S
C513 C529 1.396 1_655 S
C513 H535 0.950 . S
C514 H510 0.949 . S
C514 C522 1.574 . S
C514 C530 1.399 . S
H515 C523 0.950 . S
H516 C521 0.950 . S
H517 C522 0.949 . S
H518 C524 0.950 . S
H519 C525 0.950 . S
H520 C526 0.949 . S
C521 H516 0.950 . S
C521 C523 1.327 . S
C521 C527 1.415 1_655 S
C522 C514 1.574 . S
C522 H517 0.949 . S
C522 C528 1.389 . S
C523 C507 1.345 1_655 S
C523 H515 0.950 . S
C523 C521 1.327 . S
C524 C512 1.393 . S
C524 H518 0.950 . S
C524 C525 1.327 . S
C525 H519 0.950 . S
C525 C524 1.327 . S
C525 C529 1.462 . S
C526 C509 1.574 . S
C526 H520 0.949 . S
C526 C530 1.338 1_655 S
C527 C508 1.442 . S
C527 C521 1.415 1_455 S
C527 C528 1.523 . S
C528 C509 1.348 1_455 S
C528 C522 1.389 . S
C528 C527 1.523 . S
C529 C513 1.396 1_455 S
C529 C525 1.462 . S
C529 C530 1.523 . S
C530 C514 1.399 . S
C530 C526 1.338 1_455 S
C530 C529 1.523 . S
H531 C506 0.950 . S
H532 C508 0.950 . S
H533 C509 0.949 . S
H534 C511 0.950 . S
H535 C513 0.950 . S
C536 C537 1.346 . S
C536 C538 1.327 . S
C536 H561 0.950 . S
C537 C536 1.346 . S
C537 C553 1.352 1_545 S
C538 C536 1.327 . S
C538 C557 1.429 1_545 S
C538 H562 0.950 . S
C539 C556 1.574 1_554 S
C539 C558 1.372 . S
C539 H563 0.949 . S
H540 C544 0.949 . S
C541 C542 1.368 . S
C541 C543 1.327 . S
C541 H564 0.950 . S
C542 C541 1.368 . S
C542 C554 1.329 1_565 S
C543 C541 1.327 . S
C543 C559 1.441 . S
C543 H565 0.950 . S
C544 H540 0.949 . S
C544 C552 1.574 1_556 S
C544 C560 1.358 1_545 S
H545 C553 0.950 . S
H546 C551 0.950 . S
H547 C552 0.949 . S
H548 C554 0.950 . S
H549 C555 0.950 . S
H550 C556 0.949 . S
C551 H546 0.950 . S
C551 C553 1.327 . S
C551 C557 1.428 . S
C552 C544 1.574 1_554 S
C552 H547 0.949 . S
C552 C558 1.365 1_545 S
C553 C537 1.352 1_565 S
C553 H545 0.950 . S
C553 C551 1.327 . S
C554 C542 1.329 1_545 S
C554 H548 0.950 . S
C554 C555 1.327 . S
C555 H549 0.950 . S
C555 C554 1.327 . S
C555 C559 1.416 1_545 S
C556 C539 1.574 1_556 S
C556 H550 0.949 . S
C556 C560 1.378 . S
C557 C538 1.429 1_565 S
C557 C551 1.428 . S
C557 C558 1.523 . S
C558 C539 1.372 . S
C558 C552 1.365 1_565 S
C558 C557 1.523 . S
C559 C543 1.441 . S
C559 C555 1.416 1_565 S
C559 C560 1.523 . S
C560 C544 1.358 1_565 S
C560 C556 1.378 . S
C560 C559 1.523 . S
H561 C536 0.950 . S
H562 C538 0.950 . S
H563 C539 0.949 . S
H564 C541 0.950 . S
H565 C543 0.950 . S
C566 C567 1.349 . S
C566 C568 1.327 . S
C566 H591 0.950 . S
C567 C566 1.349 . S
C567 C583 1.349 . S
C568 C566 1.327 . S
C568 C587 1.429 . S
C568 H592 0.950 . S
C569 C586 1.574 . S
C569 C588 1.368 . S
C569 H593 0.949 . S
H570 C574 0.949 . S
C571 C572 1.349 . S
C571 C573 1.327 . S
C571 H594 0.950 . S
C572 C571 1.349 . S
C572 C584 1.349 . S
C573 C571 1.327 . S
C573 C589 1.429 . S
C573 H595 0.950 . S
C574 H570 0.949 . S
C574 C582 1.574 1_556 S
C574 C590 1.368 . S
H575 C583 0.950 . S
H576 C581 0.950 . S
H577 C582 0.949 . S
H578 C584 0.950 . S
H579 C585 0.950 . S
H580 C586 0.949 . S
C581 H576 0.950 . S
C581 C583 1.327 . S
C581 C587 1.429 . S
C582 C574 1.574 1_554 S
C582 H577 0.949 . S
C582 C588 1.368 . S
C583 C567 1.349 . S
C583 H575 0.950 . S
C583 C581 1.327 . S
C584 C572 1.349 . S
C584 H578 0.950 . S
C584 C585 1.327 . S
C585 H579 0.950 . S
C585 C584 1.327 . S
C585 C589 1.429 . S
C586 C569 1.574 . S
C586 H580 0.949 . S
C586 C590 1.368 1_554 S
C587 C568 1.429 . S
C587 C581 1.429 . S
C587 C588 1.523 . S
C588 C569 1.368 . S
C588 C582 1.368 . S
C588 C587 1.523 . S
C589 C573 1.429 . S
C589 C585 1.429 . S
C589 C590 1.523 . S
C590 C574 1.368 . S
C590 C586 1.368 1_556 S
C590 C589 1.523 . S
H591 C566 0.950 . S
H592 C568 0.950 . S
H593 C569 0.949 . S
H594 C571 0.950 . S
H595 C573 0.950 . S
C596 C597 1.349 . S
C596 C598 1.327 . S
C596 H621 0.950 . S
C597 C596 1.349 . S
C597 C613 1.349 . S
C598 C596 1.327 . S
C598 C617 1.429 . S
C598 H622 0.950 . S
C599 C616 1.574 1_554 S
C599 C618 1.368 . S
C599 H623 0.949 . S
H600 C604 0.949 . S
C601 C602 1.349 . S
C601 C603 1.327 . S
C601 H624 0.950 . S
C602 C601 1.349 . S
C602 C614 1.349 . S
C603 C601 1.327 . S
C603 C619 1.429 . S
C603 H625 0.950 . S
C604 H600 0.949 . S
C604 C612 1.574 1_556 S
C604 C620 1.368 . S
H605 C613 0.950 . S
H606 C611 0.950 . S
H607 C612 0.949 . S
H608 C614 0.950 . S
H609 C615 0.950 . S
H610 C616 0.949 . S
C611 H606 0.950 . S
C611 C613 1.327 . S
C611 C617 1.429 . S
C612 C604 1.574 1_554 S
C612 H607 0.949 . S
C612 C618 1.368 . S
C613 C597 1.349 . S
C613 H605 0.950 . S
C613 C611 1.327 . S
C614 C602 1.349 . S
C614 H608 0.950 . S
C614 C615 1.327 . S
C615 H609 0.950 . S
C615 C614 1.327 . S
C615 C619 1.429 . S
C616 C599 1.574 1_556 S
C616 H610 0.949 . S
C616 C620 1.368 . S
C617 C598 1.429 . S
C617 C611 1.429 . S
C617 C618 1.523 . S
C618 C599 1.368 . S
C618 C612 1.368 . S
C618 C617 1.523 . S
C619 C603 1.429 . S
C619 C615 1.429 . S
C619 C620 1.523 . S
C620 C604 1.368 . S
C620 C616 1.368 . S
C620 C619 1.523 . S
H621 C596 0.950 . S
H622 C598 0.950 . S
H623 C599 0.949 . S
H624 C601 0.950 . S
H625 C603 0.950 . S
C626 C627 1.348 . S
C626 C628 1.327 . S
C626 H651 0.953 . S
C627 C626 1.348 . S
C627 C643 1.348 1_655 S
C628 C626 1.327 . S
C628 C647 1.428 . S
C628 H652 0.953 . S
C629 C646 1.574 . S
C629 C648 1.368 1_456 S
C629 H653 0.949 . S
H630 C634 0.949 . S
C631 C632 1.348 . S
C631 C633 1.327 . S
C631 H654 0.949 1_655 S
C632 C631 1.348 . S
C632 C644 1.351 . S
C633 C631 1.327 . S
C633 C649 1.428 . S
C633 H655 0.949 1_655 S
C634 H630 0.949 . S
C634 C642 1.574 . S
C634 C650 1.370 1_554 S
H635 C643 0.949 . S
H636 C641 0.949 . S
H637 C642 0.949 . S
H638 C644 0.950 . S
H639 C645 0.950 . S
H640 C646 0.949 . S
C641 H636 0.949 . S
C641 C643 1.327 . S
C641 C647 1.428 1_455 S
C642 C634 1.574 . S
C642 H637 0.949 . S
C642 C648 1.369 . S
C643 C627 1.348 1_455 S
C643 H635 0.949 . S
C643 C641 1.327 . S
C644 C632 1.351 . S
C644 H638 0.950 . S
C644 C645 1.327 . S
C645 H639 0.950 . S
C645 C644 1.327 . S
C645 C649 1.430 . S
C646 C629 1.574 . S
C646 H640 0.949 . S
C646 C650 1.367 1_455 S
C647 C628 1.428 . S
C647 C641 1.428 1_655 S
C647 C648 1.523 . S
C648 C629 1.368 1_654 S
C648 C642 1.369 . S
C648 C647 1.523 . S
C649 C633 1.428 . S
C649 C645 1.430 . S
C649 C650 1.523 . S
C650 C634 1.370 1_556 S
C650 C646 1.367 1_655 S
C650 C649 1.523 . S
H651 C626 0.953 . S
H652 C628 0.953 . S
H653 C629 0.949 . S
H654 C631 0.949 1_455 S
H655 C633 0.949 1_455 S
C656 C657 1.349 1_655 S
C656 C658 1.327 . S
C656 H681 0.950 . S
C657 C656 1.349 1_455 S
C657 C673 1.349 . S
C658 C656 1.327 . S
C658 C677 1.429 . S
C658 H682 0.950 . S
C659 C676 1.574 . S
C659 C678 1.368 . S
C659 H683 0.949 1_655 S
H660 C664 0.949 . S
C661 C662 1.349 . S
C661 C663 1.327 . S
C661 H684 0.950 . S
C662 C661 1.349 . S
C662 C674 1.349 . S
C663 C661 1.327 . S
C663 C679 1.429 . S
C663 H685 0.950 . S
C664 H660 0.949 . S
C664 C672 1.574 . S
C664 C680 1.368 . S
H665 C673 0.950 . S
H666 C671 0.950 . S
H667 C672 0.949 . S
H668 C674 0.950 . S
H669 C675 0.950 . S
H670 C676 0.959 . S
C671 H666 0.950 . S
C671 C673 1.327 . S
C671 C677 1.429 1_455 S
C672 C664 1.574 . S
C672 H667 0.949 . S
C672 C678 1.368 . S
C673 C657 1.349 . S
C673 H665 0.950 . S
C673 C671 1.327 . S
C674 C662 1.349 . S
C674 H668 0.950 . S
C674 C675 1.327 . S
C675 H669 0.950 . S
C675 C674 1.327 . S
C675 C679 1.429 . S
C676 C659 1.574 . S
C676 H670 0.959 . S
C676 C680 1.368 . S
C677 C658 1.429 . S
C677 C671 1.429 1_655 S
C677 C678 1.523 . S
C678 C659 1.368 . S
C678 C672 1.368 . S
C678 C677 1.523 . S
C679 C663 1.429 . S
C679 C675 1.429 . S
C679 C680 1.523 . S
C680 C664 1.368 . S
C680 C676 1.368 . S
C680 C679 1.523 . S
H681 C656 0.950 . S
H682 C658 0.950 . S
H683 C659 0.949 1_455 S
H684 C661 0.950 . S
H685 C663 0.950 . S
C686 C687 1.349 . S
C686 C688 1.327 . S
C686 H711 0.950 . S
C687 C686 1.349 . S
C687 C703 1.349 1_545 S
C688 C686 1.327 . S
C688 C707 1.429 1_545 S
C688 H712 0.950 . S
C689 C706 1.574 . S
C689 C708 1.368 . S
C689 H713 0.949 . S
H690 C694 0.949 . S
C691 C692 1.349 . S
C691 C693 1.327 . S
C691 H714 0.950 . S
C692 C691 1.349 . S
C692 C704 1.349 . S
C693 C691 1.327 . S
C693 C709 1.429 . S
C693 H715 0.950 . S
C694 H690 0.949 . S
C694 C702 1.574 . S
C694 C710 1.368 1_545 S
H695 C703 0.950 . S
H696 C701 0.950 . S
H697 C702 0.949 . S
H698 C704 0.950 1_545 S
H699 C705 0.950 1_545 S
H700 C706 0.949 . S
C701 H696 0.950 . S
C701 C703 1.327 . S
C701 C707 1.429 . S
C702 C694 1.574 . S
C702 H697 0.949 . S
C702 C708 1.368 1_545 S
C703 C687 1.349 1_565 S
C703 H695 0.950 . S
C703 C701 1.327 . S
C704 C692 1.349 . S
C704 H698 0.950 1_565 S
C704 C705 1.327 . S
C705 H699 0.950 1_565 S
C705 C704 1.327 . S
C705 C709 1.429 . S
C706 C689 1.574 . S
C706 H700 0.949 . S
C706 C710 1.368 . S
C707 C688 1.429 1_565 S
C707 C701 1.429 . S
C707 C708 1.523 . S
C708 C689 1.368 . S
C708 C702 1.368 1_565 S
C708 C707 1.523 . S
C709 C693 1.429 . S
C709 C705 1.429 . S
C709 C710 1.523 . S
C710 C694 1.368 1_565 S
C710 C706 1.368 . S
C710 C709 1.523 . S
H711 C686 0.950 . S
H712 C688 0.950 . S
H713 C689 0.949 . S
H714 C691 0.950 . S
H715 C693 0.950 . S
C716 C717 1.349 . S
C716 C718 1.327 . S
C716 H741 0.950 . S
C717 C716 1.349 . S
C717 C733 1.349 . S
C718 C716 1.327 . S
C718 C737 1.429 . S
C718 H742 0.950 . S
C719 C736 1.574 . S
C719 C738 1.368 . S
C719 H743 0.949 . S
H720 C724 0.949 . S
C721 C722 1.349 . S
C721 C723 1.327 . S
C721 H744 0.950 . S
C722 C721 1.349 . S
C722 C734 1.349 . S
C723 C721 1.327 . S
C723 C739 1.429 . S
C723 H745 0.950 . S
C724 H720 0.949 . S
C724 C732 1.574 . S
C724 C740 1.368 . S
H725 C733 0.950 . S
H726 C731 0.950 . S
H727 C732 0.949 . S
H728 C734 0.950 . S
H729 C735 0.950 . S
H730 C736 0.949 . S
C731 H726 0.950 . S
C731 C733 1.327 . S
C731 C737 1.429 . S
C732 C724 1.574 . S
C732 H727 0.949 . S
C732 C738 1.368 . S
C733 C717 1.349 . S
C733 H725 0.950 . S
C733 C731 1.327 . S
C734 C722 1.349 . S
C734 H728 0.950 . S
C734 C735 1.327 . S
C735 H729 0.950 . S
C735 C734 1.327 . S
C735 C739 1.429 . S
C736 C719 1.574 . S
C736 H730 0.949 . S
C736 C740 1.368 . S
C737 C718 1.429 . S
C737 C731 1.429 . S
C737 C738 1.523 . S
C738 C719 1.368 . S
C738 C732 1.368 . S
C738 C737 1.523 . S
C739 C723 1.429 . S
C739 C735 1.429 . S
C739 C740 1.523 . S
C740 C724 1.368 . S
C740 C736 1.368 . S
C740 C739 1.523 . S
H741 C716 0.950 . S
H742 C718 0.950 . S
H743 C719 0.949 . S
H744 C721 0.950 . S
H745 C723 0.950 . S
C746 C747 1.349 . S
C746 C748 1.327 . S
C746 H771 0.950 . S
C747 C746 1.349 . S
C747 C763 1.349 . S
C748 C746 1.327 . S
C748 C767 1.429 . S
C748 H772 0.950 . S
C749 C766 1.574 . S
C749 C768 1.368 . S
C749 H773 0.949 . S
H750 C754 0.949 . S
C751 C752 1.349 . S
C751 C753 1.327 . S
C751 H774 0.950 . S
C752 C751 1.349 . S
C752 C764 1.349 . S
C753 C751 1.327 . S
C753 C769 1.429 . S
C753 H775 0.950 . S
C754 H750 0.949 . S
C754 C762 1.574 . S
C754 C770 1.368 . S
H755 C763 0.950 . S
H756 C761 0.950 . S
H757 C762 0.949 . S
H758 C764 0.950 . S
H759 C765 0.950 . S
H760 C766 0.949 . S
C761 H756 0.950 . S
C761 C763 1.327 . S
C761 C767 1.429 . S
C762 C754 1.574 . S
C762 H757 0.949 . S
C762 C768 1.368 . S
C763 C747 1.349 . S
C763 H755 0.950 . S
C763 C761 1.327 . S
C764 C752 1.349 . S
C764 H758 0.950 . S
C764 C765 1.327 . S
C765 H759 0.950 . S
C765 C764 1.327 . S
C765 C769 1.429 . S
C766 C749 1.574 . S
C766 H760 0.949 . S
C766 C770 1.368 . S
C767 C748 1.429 . S
C767 C761 1.429 . S
C767 C768 1.523 . S
C768 C749 1.368 . S
C768 C762 1.368 . S
C768 C767 1.523 . S
C769 C753 1.429 . S
C769 C765 1.429 . S
C769 C770 1.523 . S
C770 C754 1.368 . S
C770 C766 1.368 . S
C770 C769 1.523 . S
H771 C746 0.950 . S
H772 C748 0.950 . S
H773 C749 0.949 . S
H774 C751 0.950 . S
H775 C753 0.950 . S
C776 C777 1.349 1_455 S
C776 C778 1.327 . S
C776 H801 0.950 . S
C777 C776 1.349 1_655 S
C777 C793 1.349 . S
C778 C776 1.327 . S
C778 C797 1.429 . S
C778 H802 0.950 . S
C779 C796 1.574 1_554 S
C779 C798 1.368 1_655 S
C779 H803 0.949 . S
H780 C784 0.949 . S
C781 C782 1.349 . S
C781 C783 1.327 . S
C781 H804 0.947 1_455 S
C782 C781 1.349 . S
C782 C794 1.349 . S
C783 C781 1.327 . S
C783 C799 1.429 . S
C783 H805 0.950 1_455 S
C784 H780 0.949 . S
C784 C792 1.574 . S
C784 C800 1.368 1_554 S
H785 C793 0.950 . S
H786 C791 0.950 . S
H787 C792 0.949 . S
H788 C794 0.950 . S
H789 C795 0.950 . S
H790 C796 0.949 . S
C791 H786 0.950 . S
C791 C793 1.327 . S
C791 C797 1.429 1_655 S
C792 C784 1.574 . S
C792 H787 0.949 . S
C792 C798 1.368 . S
C793 C777 1.349 . S
C793 H785 0.950 . S
C793 C791 1.327 . S
C794 C782 1.349 . S
C794 H788 0.950 . S
C794 C795 1.327 . S
C795 H789 0.950 . S
C795 C794 1.327 . S
C795 C799 1.429 . S
C796 C779 1.574 1_556 S
C796 H790 0.949 . S
C796 C800 1.368 1_655 S
C797 C778 1.429 . S
C797 C791 1.429 1_455 S
C797 C798 1.523 . S
C798 C779 1.368 1_455 S
C798 C792 1.368 . S
C798 C797 1.523 . S
C799 C783 1.429 . S
C799 C795 1.429 . S
C799 C800 1.523 . S
C800 C784 1.368 1_556 S
C800 C796 1.368 1_455 S
C800 C799 1.523 . S
H801 C776 0.950 . S
H802 C778 0.950 . S
H803 C779 0.949 . S
H804 C781 0.947 1_655 S
H805 C783 0.950 1_655 S
C806 C807 1.349 1_545 S
C806 C808 1.327 . S
C806 H831 0.950 . S
C807 C806 1.349 1_565 S
C807 C823 1.349 . S
C808 C806 1.327 . S
C808 C827 1.429 . S
C808 H832 0.950 . S
C809 C826 1.573 1_554 S
C809 C828 1.368 1_565 S
C809 H833 0.949 1_554 S
H810 C814 0.949 . S
C811 C812 1.349 . S
C811 C813 1.327 . S
C811 H834 0.950 . S
C812 C811 1.349 . S
C812 C824 1.349 . S
C813 C811 1.327 . S
C813 C829 1.429 . S
C813 H835 0.950 1_545 S
C814 H810 0.949 . S
C814 C822 1.574 . S
C814 C830 1.368 1_554 S
H815 C823 0.950 . S
H816 C821 0.950 . S
H817 C822 0.949 . S
H818 C824 0.950 . S
H819 C825 0.941 1_554 S
H820 C826 0.948 . S
C821 H816 0.950 . S
C821 C823 1.327 . S
C821 C827 1.429 1_565 S
C822 C814 1.574 . S
C822 H817 0.949 . S
C822 C828 1.368 . S
C823 C807 1.349 . S
C823 H815 0.950 . S
C823 C821 1.327 . S
C824 C812 1.349 . S
C824 H818 0.950 . S
C824 C825 1.327 . S
C825 H819 0.941 1_556 S
C825 C824 1.327 . S
C825 C829 1.429 . S
C826 C809 1.573 1_556 S
C826 H820 0.948 . S
C826 C830 1.370 1_565 S
C827 C808 1.429 . S
C827 C821 1.429 1_545 S
C827 C828 1.523 . S
C828 C809 1.368 1_545 S
C828 C822 1.368 . S
C828 C827 1.523 . S
C829 C813 1.429 . S
C829 C825 1.429 . S
C829 C830 1.523 . S
C830 C814 1.368 1_556 S
C830 C826 1.370 1_545 S
C830 C829 1.523 . S
H831 C806 0.950 . S
H832 C808 0.950 . S
H833 C809 0.949 1_556 S
H834 C811 0.950 . S
H835 C813 0.950 1_565 S
C836 C837 1.349 . S
C836 C838 1.327 . S
C836 H861 0.950 . S
C837 C836 1.349 . S
C837 C853 1.349 . S
C838 C836 1.327 . S
C838 C857 1.429 . S
C838 H862 0.950 . S
C839 C856 1.574 1_554 S
C839 C858 1.368 . S
C839 H863 0.949 . S
H840 C844 0.949 . S
C841 C842 1.349 . S
C841 C843 1.327 . S
C841 H864 0.950 . S
C842 C841 1.349 . S
C842 C854 1.349 . S
C843 C841 1.327 . S
C843 C859 1.429 . S
C843 H865 0.950 . S
C844 H840 0.949 . S
C844 C852 1.574 . S
C844 C860 1.368 1_554 S
H845 C853 0.950 . S
H846 C851 0.950 . S
H847 C852 0.949 . S
H848 C854 0.950 . S
H849 C855 0.950 . S
H850 C856 0.949 . S
C851 H846 0.950 . S
C851 C853 1.327 . S
C851 C857 1.429 . S
C852 C844 1.574 . S
C852 H847 0.949 . S
C852 C858 1.368 . S
C853 C837 1.349 . S
C853 H845 0.950 . S
C853 C851 1.327 . S
C854 C842 1.349 . S
C854 H848 0.950 . S
C854 C855 1.327 . S
C855 H849 0.950 . S
C855 C854 1.327 . S
C855 C859 1.429 . S
C856 C839 1.574 1_556 S
C856 H850 0.949 . S
C856 C860 1.368 . S
C857 C838 1.429 . S
C857 C851 1.429 . S
C857 C858 1.523 . S
C858 C839 1.368 . S
C858 C852 1.368 . S
C858 C857 1.523 . S
C859 C843 1.429 . S
C859 C855 1.429 . S
C859 C860 1.523 . S
C860 C844 1.368 1_556 S
C860 C856 1.368 . S
C860 C859 1.523 . S
H861 C836 0.950 . S
H862 C838 0.950 . S
H863 C839 0.949 . S
H864 C841 0.950 . S
H865 C843 0.950 . S
C866 C867 1.349 . S
C866 C868 1.327 . S
C866 H891 0.950 . S
C867 C866 1.349 . S
C867 C883 1.349 . S
C868 C866 1.327 . S
C868 C887 1.429 . S
C868 H892 0.950 . S
C869 C886 1.574 1_554 S
C869 C888 1.368 . S
C869 H893 0.949 . S
H870 C874 0.949 . S
C871 C872 1.349 . S
C871 C873 1.327 . S
C871 H894 0.950 . S
C872 C871 1.349 . S
C872 C884 1.349 . S
C873 C871 1.327 . S
C873 C889 1.429 . S
C873 H895 0.950 . S
C874 H870 0.949 . S
C874 C882 1.574 . S
C874 C890 1.368 1_554 S
H875 C883 0.950 . S
H876 C881 0.950 . S
H877 C882 0.949 . S
H878 C884 0.950 . S
H879 C885 0.950 . S
H880 C886 0.949 . S
C881 H876 0.950 . S
C881 C883 1.327 . S
C881 C887 1.429 . S
C882 C874 1.574 . S
C882 H877 0.949 . S
C882 C888 1.368 . S
C883 C867 1.349 . S
C883 H875 0.950 . S
C883 C881 1.327 . S
C884 C872 1.349 . S
C884 H878 0.950 . S
C884 C885 1.327 . S
C885 H879 0.950 . S
C885 C884 1.327 . S
C885 C889 1.429 . S
C886 C869 1.574 1_556 S
C886 H880 0.949 . S
C886 C890 1.368 . S
C887 C868 1.429 . S
C887 C881 1.429 . S
C887 C888 1.523 . S
C888 C869 1.368 . S
C888 C882 1.368 . S
C888 C887 1.523 . S
C889 C873 1.429 . S
C889 C885 1.429 . S
C889 C890 1.523 . S
C890 C874 1.368 1_556 S
C890 C886 1.368 . S
C890 C889 1.523 . S
H891 C866 0.950 . S
H892 C868 0.950 . S
H893 C869 0.949 . S
H894 C871 0.950 . S
H895 C873 0.950 . S
C896 C897 1.349 . S
C896 C898 1.327 . S
C896 H921 0.950 . S
C897 C896 1.349 . S
C897 C913 1.349 1_455 S
C898 C896 1.327 . S
C898 C917 1.429 . S
C898 H922 0.950 . S
C899 C916 1.574 . S
C899 C918 1.368 1_655 S
C899 H923 0.949 . S
H900 C904 0.949 . S
C901 C902 1.349 1_655 S
C901 C903 1.327 . S
C901 H924 0.950 . S
C902 C901 1.349 1_455 S
C902 C914 1.349 . S
C903 C901 1.327 . S
C903 C919 1.429 1_655 S
C903 H925 0.950 . S
C904 H900 0.949 . S
C904 C912 1.574 . S
C904 C920 1.368 . S
H905 C913 0.950 . S
H906 C911 0.950 . S
H907 C912 0.949 . S
H908 C914 0.950 . S
H909 C915 0.950 . S
H910 C916 0.949 . S
C911 H906 0.950 . S
C911 C913 1.327 . S
C911 C917 1.429 1_655 S
C912 C904 1.574 . S
C912 H907 0.949 . S
C912 C918 1.368 . S
C913 C897 1.349 1_655 S
C913 H905 0.950 . S
C913 C911 1.327 . S
C914 C902 1.349 . S
C914 H908 0.950 . S
C914 C915 1.327 . S
C915 H909 0.950 . S
C915 C914 1.327 . S
C915 C919 1.429 . S
C916 C899 1.574 . S
C916 H910 0.949 . S
C916 C920 1.368 1_655 S
C917 C898 1.429 . S
C917 C911 1.429 1_455 S
C917 C918 1.523 . S
C918 C899 1.368 1_455 S
C918 C912 1.368 . S
C918 C917 1.523 . S
C919 C903 1.429 1_455 S
C919 C915 1.429 . S
C919 C920 1.523 . S
C920 C904 1.368 . S
C920 C916 1.368 1_455 S
C920 C919 1.523 . S
H921 C896 0.950 . S
H922 C898 0.950 . S
H923 C899 0.949 . S
H924 C901 0.950 . S
H925 C903 0.950 . S
C926 C927 1.349 . S
C926 C928 1.327 . S
C926 H951 0.950 . S
C927 C926 1.349 . S
C927 C943 1.349 1_545 S
C928 C926 1.327 . S
C928 C947 1.429 . S
C928 H952 0.950 . S
C929 C946 1.575 . S
C929 C948 1.374 . S
C929 H953 0.944 1_545 S
H930 C934 0.949 . S
C931 C932 1.349 . S
C931 C933 1.327 . S
C931 H954 0.950 . S
C932 C931 1.349 . S
C932 C944 1.349 . S
C933 C931 1.327 . S
C933 C949 1.429 . S
C933 H955 0.960 . S
C934 H930 0.949 . S
C934 C942 1.574 . S
C934 C950 1.368 . S
H935 C943 0.950 . S
H936 C941 0.959 . S
H937 C942 0.949 . S
H938 C944 0.950 . S
H939 C945 0.950 . S
H940 C946 0.947 1_565 S
C941 H936 0.959 . S
C941 C943 1.330 . S
C941 C947 1.420 1_565 S
C942 C934 1.574 . S
C942 H937 0.949 . S
C942 C948 1.368 . S
C943 C927 1.349 1_565 S
C943 H935 0.950 . S
C943 C941 1.330 . S
C944 C932 1.349 . S
C944 H938 0.950 . S
C944 C945 1.327 . S
C945 H939 0.950 . S
C945 C944 1.327 . S
C945 C949 1.429 . S
C946 C929 1.575 . S
C946 H940 0.947 1_545 S
C946 C950 1.368 . S
C947 C928 1.429 . S
C947 C941 1.420 1_545 S
C947 C948 1.523 . S
C948 C929 1.374 . S
C948 C942 1.368 . S
C948 C947 1.523 . S
C949 C933 1.429 . S
C949 C945 1.429 . S
C949 C950 1.523 . S
C950 C934 1.368 . S
C950 C946 1.368 . S
C950 C949 1.523 . S
H951 C926 0.950 . S
H952 C928 0.950 . S
H953 C929 0.944 1_565 S
H954 C931 0.950 . S
H955 C933 0.960 . S
C956 C957 1.349 . S
C956 C958 1.327 . S
C956 H981 0.950 . S
C957 C956 1.349 . S
C957 C973 1.349 . S
C958 C956 1.327 . S
C958 C977 1.429 . S
C958 H982 0.950 . S
C959 C976 1.574 . S
C959 C978 1.368 . S
C959 H983 0.949 . S
H960 C964 0.949 . S
C961 C962 1.349 . S
C961 C963 1.327 . S
C961 H984 0.950 . S
C962 C961 1.349 . S
C962 C974 1.349 . S
C963 C961 1.327 . S
C963 C979 1.429 . S
C963 H985 0.950 . S
C964 H960 0.949 . S
C964 C972 1.574 . S
C964 C980 1.368 . S
H965 C973 0.950 . S
H966 C971 0.950 . S
H967 C972 0.949 . S
H968 C974 0.950 . S
H969 C975 0.950 . S
H970 C976 0.949 . S
C971 H966 0.950 . S
C971 C973 1.327 . S
C971 C977 1.429 . S
C972 C964 1.574 . S
C972 H967 0.949 . S
C972 C978 1.368 . S
C973 C957 1.349 . S
C973 H965 0.950 . S
C973 C971 1.327 . S
C974 C962 1.349 . S
C974 H968 0.950 . S
C974 C975 1.327 . S
C975 H969 0.950 . S
C975 C974 1.327 . S
C975 C979 1.429 . S
C976 C959 1.574 . S
C976 H970 0.949 . S
C976 C980 1.368 . S
C977 C958 1.429 . S
C977 C971 1.429 . S
C977 C978 1.523 . S
C978 C959 1.368 . S
C978 C972 1.368 . S
C978 C977 1.523 . S
C979 C963 1.429 . S
C979 C975 1.429 . S
C979 C980 1.523 . S
C980 C964 1.368 . S
C980 C976 1.368 . S
C980 C979 1.523 . S
H981 C956 0.950 . S
H982 C958 0.950 . S
H983 C959 0.949 . S
H984 C961 0.950 . S
H985 C963 0.950 . S
C986 C987 1.349 . S
C986 C988 1.327 . S
C986 H1011 0.950 . S
C987 C986 1.349 . S
C987 C1003 1.349 . S
C988 C986 1.327 . S
C988 C1007 1.429 . S
C988 H1012 0.950 . S
C989 C1006 1.574 . S
C989 C1008 1.368 . S
C989 H1013 0.949 . S
H990 C994 0.949 . S
C991 C992 1.349 . S
C991 C993 1.327 . S
C991 H1014 0.950 . S
C992 C991 1.349 . S
C992 C1004 1.349 . S
C993 C991 1.327 . S
C993 C1009 1.429 . S
C993 H1015 0.950 . S
C994 H990 0.949 . S
C994 C1002 1.574 . S
C994 C1010 1.368 . S
H995 C1003 0.950 . S
H996 C1001 0.950 . S
H997 C1002 0.949 . S
H998 C1004 0.950 . S
H999 C1005 0.950 . S
H1000 C1006 0.949 . S
C1001 H996 0.950 . S
C1001 C1003 1.327 . S
C1001 C1007 1.429 . S
C1002 C994 1.574 . S
C1002 H997 0.949 . S
C1002 C1008 1.368 . S
C1003 C987 1.349 . S
C1003 H995 0.950 . S
C1003 C1001 1.327 . S
C1004 C992 1.349 . S
C1004 H998 0.950 . S
C1004 C1005 1.327 . S
C1005 H999 0.950 . S
C1005 C1004 1.327 . S
C1005 C1009 1.429 . S
C1006 C989 1.574 . S
C1006 H1000 0.949 . S
C1006 C1010 1.368 . S
C1007 C988 1.429 . S
C1007 C1001 1.429 . S
C1007 C1008 1.523 . S
C1008 C989 1.368 . S
C1008 C1002 1.368 . S
C1008 C1007 1.523 . S
C1009 C993 1.429 . S
C1009 C1005 1.429 . S
C1009 C1010 1.523 . S
C1010 C994 1.368 . S
C1010 C1006 1.368 . S
C1010 C1009 1.523 . S
H1011 C986 0.950 . S
H1012 C988 0.950 . S
H1013 C989 0.949 . S
H1014 C991 0.950 . S
H1015 C993 0.950 . S
C1016 C1017 1.349 . S
C1016 C1018 1.327 . S
C1016 H1041 0.950 . S
C1017 C1016 1.349 . S
C1017 C1033 1.349 1_655 S
C1018 C1016 1.327 . S
C1018 C1037 1.429 . S
C1018 H1042 0.950 . S
C1019 C1036 1.574 . S
C1019 C1038 1.368 1_455 S
C1019 H1043 0.949 . S
H1020 C1024 0.949 . S
C1021 C1022 1.349 1_455 S
C1021 C1023 1.327 . S
C1021 H1044 0.950 . S
C1022 C1021 1.349 1_655 S
C1022 C1034 1.349 . S
C1023 C1021 1.327 . S
C1023 C1039 1.429 1_455 S
C1023 H1045 0.950 . S
C1024 H1020 0.949 . S
C1024 C1032 1.574 . S
C1024 C1040 1.368 . S
H1025 C1033 0.950 . S
H1026 C1031 0.950 . S
H1027 C1032 0.949 . S
H1028 C1034 0.950 . S
H1029 C1035 0.950 . S
H1030 C1036 0.949 . S
C1031 H1026 0.950 . S
C1031 C1033 1.327 . S
C1031 C1037 1.429 1_455 S
C1032 C1024 1.574 . S
C1032 H1027 0.949 . S
C1032 C1038 1.368 . S
C1033 C1017 1.349 1_455 S
C1033 H1025 0.950 . S
C1033 C1031 1.327 . S
C1034 C1022 1.349 . S
C1034 H1028 0.950 . S
C1034 C1035 1.327 . S
C1035 H1029 0.950 . S
C1035 C1034 1.327 . S
C1035 C1039 1.429 . S
C1036 C1019 1.574 . S
C1036 H1030 0.949 . S
C1036 C1040 1.368 1_455 S
C1037 C1018 1.429 . S
C1037 C1031 1.429 1_655 S
C1037 C1038 1.523 . S
C1038 C1019 1.368 1_655 S
C1038 C1032 1.368 . S
C1038 C1037 1.523 . S
C1039 C1023 1.429 1_655 S
C1039 C1035 1.429 . S
C1039 C1040 1.523 . S
C1040 C1024 1.368 . S
C1040 C1036 1.368 1_655 S
C1040 C1039 1.523 . S
H1041 C1016 0.950 . S
H1042 C1018 0.950 . S
H1043 C1019 0.949 . S
H1044 C1021 0.950 . S
H1045 C1023 0.950 . S
C1046 C1047 1.395 . S
C1046 C1048 1.327 . S
C1046 H1071 0.950 . S
C1047 C1046 1.395 . S
C1047 C1063 1.306 1_565 S
C1048 C1046 1.327 . S
C1048 C1067 1.429 . S
C1048 H1072 0.950 . S
C1049 C1066 1.574 . S
C1049 C1068 1.368 1_545 S
C1049 H1073 0.949 . S
H1050 C1054 0.949 . S
C1051 C1052 1.349 1_545 S
C1051 C1053 1.327 . S
C1051 H1074 0.950 . S
C1052 C1051 1.349 1_565 S
C1052 C1064 1.349 . S
C1053 C1051 1.327 . S
C1053 C1069 1.429 1_545 S
C1053 H1075 0.950 . S
C1054 H1050 0.949 . S
C1054 C1062 1.574 . S
C1054 C1070 1.368 . S
H1055 C1063 0.950 . S
H1056 C1061 0.950 . S
H1057 C1062 0.949 . S
H1058 C1064 0.950 . S
H1059 C1065 0.950 . S
H1060 C1066 0.949 . S
C1061 H1056 0.950 . S
C1061 C1063 1.327 . S
C1061 C1067 1.429 1_545 S
C1062 C1054 1.574 . S
C1062 H1057 0.949 . S
C1062 C1068 1.368 . S
C1063 C1047 1.306 1_545 S
C1063 H1055 0.950 . S
C1063 C1061 1.327 . S
C1064 C1052 1.349 . S
C1064 H1058 0.950 . S
C1064 C1065 1.327 . S
C1065 H1059 0.950 . S
C1065 C1064 1.327 . S
C1065 C1069 1.429 . S
C1066 C1049 1.574 . S
C1066 H1060 0.949 . S
C1066 C1070 1.368 1_545 S
C1067 C1048 1.429 . S
C1067 C1061 1.429 1_565 S
C1067 C1068 1.523 . S
C1068 C1049 1.368 1_565 S
C1068 C1062 1.368 . S
C1068 C1067 1.523 . S
C1069 C1053 1.429 1_565 S
C1069 C1065 1.429 . S
C1069 C1070 1.523 . S
C1070 C1054 1.368 . S
C1070 C1066 1.368 1_565 S
C1070 C1069 1.523 . S
H1071 C1046 0.950 . S
H1072 C1048 0.950 . S
H1073 C1049 0.949 . S
H1074 C1051 0.950 . S
H1075 C1053 0.950 . S
C1076 C1077 1.349 . S
C1076 C1078 1.327 . S
C1076 H1101 0.950 . S
C1077 C1076 1.349 . S
C1077 C1093 1.349 . S
C1078 C1076 1.327 . S
C1078 C1097 1.429 . S
C1078 H1102 0.950 . S
C1079 C1096 1.574 . S
C1079 C1098 1.368 . S
C1079 H1103 0.949 . S
H1080 C1084 0.949 . S
C1081 C1082 1.349 . S
C1081 C1083 1.327 . S
C1081 H1104 0.950 . S
C1082 C1081 1.349 . S
C1082 C1094 1.349 . S
C1083 C1081 1.327 . S
C1083 C1099 1.429 . S
C1083 H1105 0.950 . S
C1084 H1080 0.949 . S
C1084 C1092 1.574 . S
C1084 C1100 1.368 . S
H1085 C1093 0.950 . S
H1086 C1091 0.950 . S
H1087 C1092 0.949 . S
H1088 C1094 0.950 . S
H1089 C1095 0.950 . S
H1090 C1096 0.949 . S
C1091 H1086 0.950 . S
C1091 C1093 1.327 . S
C1091 C1097 1.429 . S
C1092 C1084 1.574 . S
C1092 H1087 0.949 . S
C1092 C1098 1.368 . S
C1093 C1077 1.349 . S
C1093 H1085 0.950 . S
C1093 C1091 1.327 . S
C1094 C1082 1.349 . S
C1094 H1088 0.950 . S
C1094 C1095 1.327 . S
C1095 H1089 0.950 . S
C1095 C1094 1.327 . S
C1095 C1099 1.429 . S
C1096 C1079 1.574 . S
C1096 H1090 0.949 . S
C1096 C1100 1.368 . S
C1097 C1078 1.429 . S
C1097 C1091 1.429 . S
C1097 C1098 1.523 . S
C1098 C1079 1.368 . S
C1098 C1092 1.368 . S
C1098 C1097 1.523 . S
C1099 C1083 1.429 . S
C1099 C1095 1.429 . S
C1099 C1100 1.523 . S
C1100 C1084 1.368 . S
C1100 C1096 1.368 . S
C1100 C1099 1.523 . S
H1101 C1076 0.950 . S
H1102 C1078 0.950 . S
H1103 C1079 0.949 . S
H1104 C1081 0.950 . S
H1105 C1083 0.950 . S
C1106 C1107 1.349 . S
C1106 C1108 1.327 . S
C1106 H1131 0.950 . S
C1107 C1106 1.349 . S
C1107 C1123 1.349 . S
C1108 C1106 1.327 . S
C1108 C1127 1.429 . S
C1108 H1132 0.950 . S
C1109 C1126 1.574 . S
C1109 C1128 1.368 . S
C1109 H1133 0.949 . S
H1110 C1114 0.949 . S
C1111 C1112 1.349 . S
C1111 C1113 1.327 . S
C1111 H1134 0.950 . S
C1112 C1111 1.349 . S
C1112 C1124 1.349 . S
C1113 C1111 1.327 . S
C1113 C1129 1.429 . S
C1113 H1135 0.950 . S
C1114 H1110 0.949 . S
C1114 C1122 1.574 . S
C1114 C1130 1.368 . S
H1115 C1123 0.950 . S
H1116 C1121 0.950 . S
H1117 C1122 0.949 . S
H1118 C1124 0.950 . S
H1119 C1125 0.950 . S
H1120 C1126 0.949 . S
C1121 H1116 0.950 . S
C1121 C1123 1.327 . S
C1121 C1127 1.429 . S
C1122 C1114 1.574 . S
C1122 H1117 0.949 . S
C1122 C1128 1.368 . S
C1123 C1107 1.349 . S
C1123 H1115 0.950 . S
C1123 C1121 1.327 . S
C1124 C1112 1.349 . S
C1124 H1118 0.950 . S
C1124 C1125 1.327 . S
C1125 H1119 0.950 . S
C1125 C1124 1.327 . S
C1125 C1129 1.429 . S
C1126 C1109 1.574 . S
C1126 H1120 0.949 . S
C1126 C1130 1.368 . S
C1127 C1108 1.429 . S
C1127 C1121 1.429 . S
C1127 C1128 1.523 . S
C1128 C1109 1.368 . S
C1128 C1122 1.368 . S
C1128 C1127 1.523 . S
C1129 C1113 1.429 . S
C1129 C1125 1.429 . S
C1129 C1130 1.523 . S
C1130 C1114 1.368 . S
C1130 C1126 1.368 . S
C1130 C1129 1.523 . S
H1131 C1106 0.950 . S
H1132 C1108 0.950 . S
H1133 C1109 0.949 . S
H1134 C1111 0.950 . S
H1135 C1113 0.950 . S
C417 C215 1.829 . S
C422 C258 1.935 1_545 S
C452 C298 1.945 . S
C447 C247 1.824 . S
C482 C338 1.946 . S
C477 C151 1.831 . S
C512 C378 1.940 1_455 S
C507 C183 1.831 . S
C542 C271 1.940 1_565 S
C537 C87 1.832 . S
C567 C119 1.835 . S
C572 C311 1.949 . S
C597 C23 1.835 . S
C602 C351 1.945 . S
C627 C55 1.830 1_655 S
C632 C391 1.940 1_655 S
C662 C282 0.235 . S
C657 C189 0.249 . S
C692 C322 0.237 . S
C687 C221 0.254 . S
C722 C362 0.238 . S
C717 C253 0.260 . S
C747 C157 0.256 . S
C752 C402 0.230 . S
C777 C61 0.419 1_655 S
C782 C265 0.234 . S
C812 C305 0.237 . S
C807 C93 0.405 1_565 S
C842 C345 0.238 . S
C837 C125 0.414 . S
C867 C29 0.414 . S
C872 C385 0.240 . S
C897 C177 2.250 . S
C902 C259 2.498 . S
C927 C209 2.239 . S
C932 C299 2.495 . S
C962 C339 2.489 . S
C957 C241 2.233 . S
C992 C379 2.499 . S
C987 C145 2.237 . S
C1017 C49 2.265 1_655 S
C1022 C278 2.512 . S
C1052 C318 2.495 . S
C1047 C81 2.247 1_565 S
C1082 C358 2.490 . S
C1077 C113 2.252 . S
C1107 C17 2.261 . S
C1112 C398 2.505 . S
