# Generated by pormake.
# Topology pto, (3,4)-cn, num edge types: 1
# Building blocks:
#     Node 0, Type 0, BuildingBlock: INOVEN_clean_linker_0, # of connection points: 3
#     Node 1, Type 0, BuildingBlock: INOVEN_clean_linker_0, # of connection points: 3
#     Node 2, Type 0, BuildingBlock: INOVEN_clean_linker_0, # of connection points: 3
#     Node 3, Type 0, BuildingBlock: INOVEN_clean_linker_0, # of connection points: 3
#     Node 4, Type 0, BuildingBlock: INOVEN_clean_linker_0, # of connection points: 3
#     Node 5, Type 0, BuildingBlock: INOVEN_clean_linker_0, # of connection points: 3
#     Node 6, Type 0, BuildingBlock: INOVEN_clean_linker_0, # of connection points: 3
#     Node 7, Type 0, BuildingBlock: INOVEN_clean_linker_0, # of connection points: 3
#     Node 8, Type 1, BuildingBlock: NAWXER_clean_sbu_0, # of connection points: 4
#     Node 9, Type 1, BuildingBlock: NAWXER_clean_sbu_0, # of connection points: 4
#     Node 10, Type 1, BuildingBlock: NAWXER_clean_sbu_0, # of connection points: 4
#     Node 11, Type 1, BuildingBlock: NAWXER_clean_sbu_0, # of connection points: 4
#     Node 12, Type 1, BuildingBlock: NAWXER_clean_sbu_0, # of connection points: 4
#     Node 13, Type 1, BuildingBlock: NAWXER_clean_sbu_0, # of connection points: 4
#     Edge 14, Type (0, 1), BuildingBlock: AJUNOK_clean_linker_0, # of connection points: 2
#     Edge 15, Type (0, 1), BuildingBlock: AJUNOK_clean_linker_0, # of connection points: 2
#     Edge 16, Type (0, 1), BuildingBlock: AJUNOK_clean_linker_0, # of connection points: 2
#     Edge 17, Type (0, 1), BuildingBlock: AJUNOK_clean_linker_0, # of connection points: 2
#     Edge 18, Type (0, 1), BuildingBlock: AJUNOK_clean_linker_0, # of connection points: 2
#     Edge 19, Type (0, 1), BuildingBlock: AJUNOK_clean_linker_0, # of connection points: 2
#     Edge 20, Type (0, 1), BuildingBlock: AJUNOK_clean_linker_0, # of connection points: 2
#     Edge 21, Type (0, 1), BuildingBlock: AJUNOK_clean_linker_0, # of connection points: 2
#     Edge 22, Type (0, 1), BuildingBlock: AJUNOK_clean_linker_0, # of connection points: 2
#     Edge 23, Type (0, 1), BuildingBlock: AJUNOK_clean_linker_0, # of connection points: 2
#     Edge 24, Type (0, 1), BuildingBlock: AJUNOK_clean_linker_0, # of connection points: 2
#     Edge 25, Type (0, 1), BuildingBlock: AJUNOK_clean_linker_0, # of connection points: 2
#     Edge 26, Type (0, 1), BuildingBlock: AJUNOK_clean_linker_0, # of connection points: 2
#     Edge 27, Type (0, 1), BuildingBlock: AJUNOK_clean_linker_0, # of connection points: 2
#     Edge 28, Type (0, 1), BuildingBlock: AJUNOK_clean_linker_0, # of connection points: 2
#     Edge 29, Type (0, 1), BuildingBlock: AJUNOK_clean_linker_0, # of connection points: 2
#     Edge 30, Type (0, 1), BuildingBlock: AJUNOK_clean_linker_0, # of connection points: 2
#     Edge 31, Type (0, 1), BuildingBlock: AJUNOK_clean_linker_0, # of connection points: 2
#     Edge 32, Type (0, 1), BuildingBlock: AJUNOK_clean_linker_0, # of connection points: 2
#     Edge 33, Type (0, 1), BuildingBlock: AJUNOK_clean_linker_0, # of connection points: 2
#     Edge 34, Type (0, 1), BuildingBlock: AJUNOK_clean_linker_0, # of connection points: 2
#     Edge 35, Type (0, 1), BuildingBlock: AJUNOK_clean_linker_0, # of connection points: 2
#     Edge 36, Type (0, 1), BuildingBlock: AJUNOK_clean_linker_0, # of connection points: 2
#     Edge 37, Type (0, 1), BuildingBlock: AJUNOK_clean_linker_0, # of connection points: 2
# Relax obj value: 0.011
# Max RMSD: 0.130
# Mean RMSD: 0.054
data_MOF--net-pto--node1-NAWXER_clean_sbu_0--node2-INOVEN_clean_linker_0--edge1-AJUNOK_clean_linker_0
_symmetry_space_group_name_H-M    P1
_symmetry_Int_Tables_number       1
_symmetry_cell_setting            triclinic
loop_
_symmetry_equiv_pos_as_xyz
'x, y, z'
_cell_length_a     30.50038
_cell_length_b     28.224917
_cell_length_c     27.473076
_cell_angle_alpha  108.93803
_cell_angle_beta   95.921
_cell_angle_gamma 98.788034
loop_
_atom_site_label
_atom_site_type_symbol
_atom_site_fract_x
_atom_site_fract_y
_atom_site_fract_z
_atom_type_partial_charge
H0 H 0.24021 0.23717 0.49084 0.0
H1 H 0.34489 0.16985 0.41661 0.0
H2 H 0.30398 0.29701 0.38481 0.0
N3 N 0.24084 0.30844 0.44748 0.0
N4 N 0.24704 0.34344 0.42904 0.0
C5 C 0.26384 0.23503 0.4637 0.0
C6 C 0.29134 0.1983 0.45618 0.0
C7 C 0.26822 0.27085 0.43831 0.0
C8 C 0.30022 0.26952 0.40469 0.0
C9 C 0.32804 0.23339 0.39686 0.0
C10 C 0.32301 0.19739 0.42207 0.0
H11 H 0.2184 0.76256 0.87295 0.0
H12 H 0.30757 0.68757 0.94033 0.0
H13 H 0.35462 0.77029 0.84341 0.0
N14 N 0.27792 0.80411 0.82724 0.0
N15 N 0.30879 0.82264 0.80831 0.0
C16 C 0.25122 0.75336 0.87935 0.0
C17 C 0.25858 0.72232 0.90935 0.0
C18 C 0.28583 0.77158 0.85615 0.0
C19 C 0.32789 0.75731 0.86194 0.0
C20 C 0.33574 0.7261 0.89134 0.0
C21 C 0.30122 0.70989 0.9158 0.0
H22 H 0.83596 0.61527 0.30092 0.0
H23 H 0.88338 0.7409 0.44591 0.0
H24 H 0.76123 0.73478 0.34873 0.0
N25 N 0.76657 0.65161 0.27084 0.0
N26 N 0.76063 0.68117 0.24663 0.0
C27 C 0.83154 0.65014 0.32989 0.0
C28 C 0.86434 0.67539 0.37482 0.0
C29 C 0.79467 0.67176 0.32025 0.0
C30 C 0.78911 0.71742 0.35706 0.0
C31 C 0.82043 0.74214 0.4029 0.0
C32 C 0.8581 0.72094 0.41153 0.0
H33 H 0.79066 0.36293 0.01965 0.0
H34 H 0.84731 0.29323 0.8833 0.0
H35 H 0.73353 0.20822 0.91913 0.0
N36 N 0.725 0.28465 0.00583 0.0
N37 N 0.69494 0.24629 0.99772 0.0
C38 C 0.79106 0.33015 0.98561 0.0
C39 C 0.82328 0.33325 0.9532 0.0
C40 C 0.75827 0.28539 0.97331 0.0
C41 C 0.75827 0.24308 0.92849 0.0
C42 C 0.79044 0.24566 0.89588 0.0
C43 C 0.82267 0.29083 0.90863 0.0
H44 H 0.78348 0.80773 0.84951 0.0
H45 H 0.82291 0.68889 0.89987 0.0
H46 H 0.9046 0.75507 0.81036 0.0
N47 N 0.85075 0.82006 0.79974 0.0
N48 N 0.88813 0.8378 0.79138 0.0
C49 C 0.80678 0.78266 0.85121 0.0
C50 C 0.79902 0.74862 0.87826 0.0
C51 C 0.84514 0.78593 0.8277 0.0
C52 C 0.87543 0.75355 0.82966 0.0
C53 C 0.86704 0.71763 0.85467 0.0
C54 C 0.829 0.7157 0.87944 0.0
H55 H 0.74605 0.25168 0.40676 0.0
H56 H 0.80241 0.34538 0.32389 0.0
H57 H 0.88901 0.28082 0.40756 0.0
N58 N 0.82177 0.2311 0.44174 0.0
N59 N 0.85858 0.22337 0.45877 0.0
C60 C 0.77505 0.26979 0.39502 0.0
C61 C 0.76928 0.29961 0.36366 0.0
C62 C 0.81795 0.26219 0.41048 0.0
C63 C 0.8556 0.28531 0.39473 0.0
C64 C 0.85012 0.31568 0.36366 0.0
C65 C 0.80684 0.32214 0.34798 0.0
H66 H 0.29469 0.29169 0.84234 0.0
H67 H 0.40068 0.28286 0.95328 0.0
H68 H 0.30636 0.37942 0.00542 0.0
N69 N 0.25716 0.3558 0.90859 0.0
N70 N 0.23625 0.37919 0.9423 0.0
C71 C 0.31294 0.30443 0.88179 0.0
C72 C 0.35028 0.28378 0.89272 0.0
C73 C 0.29678 0.33883 0.92183 0.0
C74 C 0.31889 0.35364 0.9738 0.0
C75 C 0.35677 0.33387 0.9849 0.0
C76 C 0.37224 0.2992 0.94432 0.0
H77 H 0.31174 0.6706 0.25054 0.0
H78 H 0.28379 0.753 0.40218 0.0
H79 H 0.39563 0.81578 0.34452 0.0
N80 N 0.38348 0.73877 0.25254 0.0
N81 N 0.41464 0.77446 0.2557 0.0
C82 C 0.31937 0.70394 0.28584 0.0
C83 C 0.29356 0.70681 0.32594 0.0
C84 C 0.35609 0.74339 0.29208 0.0
C85 C 0.3666 0.78597 0.33861 0.0
C86 C 0.34075 0.7896 0.37842 0.0
C87 C 0.30418 0.75009 0.37164 0.0
C88 C 1.00757 0.43964 0.33514 0.0
C89 C 0.13689 0.5634 0.32937 0.0
O90 O 0.02507 0.47396 0.37911 0.0
Zn91 Zn 0.07856 0.53767 0.41227 0.0
O92 O 0.02417 0.43898 0.2943 0.0
Zn93 Zn 0.07103 0.50066 0.32845 0.0
O94 O 0.11563 0.47427 0.37394 0.0
O95 O 0.11593 0.51369 0.458 0.0
O96 O 0.11192 0.52889 0.28993 0.0
O97 O 0.12715 0.56989 0.3751 0.0
O98 O 0.04458 0.59113 0.4395 0.0
O99 O 0.03155 0.55758 0.35358 0.0
C100 C 0.12977 0.48125 0.42175 0.0
C101 C 0.02371 0.58877 0.3959 0.0
C102 C 0.96987 0.49581 0.96707 0.0
C103 C 0.10336 0.61494 0.96006 0.0
O104 O 0.99361 0.53154 0.00658 0.0
Zn105 Zn 0.03748 0.55831 0.96894 0.0
O106 O 0.98099 0.48858 0.92199 0.0
Zn107 Zn 0.0296 0.51804 0.88482 0.0
O108 O 0.06253 0.46267 0.86035 0.0
O109 O 0.07507 0.49946 0.94595 0.0
O110 O 0.08451 0.5803 0.91678 0.0
O111 O 0.08715 0.61788 0.00171 0.0
O112 O 0.99793 0.58767 0.92175 0.0
O113 O 0.99258 0.54143 0.83831 0.0
C114 C 0.08287 0.4665 0.90481 0.0
C115 C 0.9833 0.57888 0.87368 0.0
C116 C 0.30277 0.96043 0.69284 0.0
C117 C 0.29712 0.07015 0.58528 0.0
O118 O 0.26729 0.97016 0.67259 0.0
Zn119 Zn 0.29675 0.01554 0.63944 0.0
O120 O 0.34119 0.98129 0.68673 0.0
Zn121 Zn 0.36934 0.03176 0.64989 0.0
O122 O 0.40294 0.09057 0.70748 0.0
O123 O 0.32917 0.0817 0.70426 0.0
O124 O 0.33663 0.06706 0.60313 0.0
O125 O 0.26309 0.04589 0.59643 0.0
O126 O 0.32615 0.9648 0.58214 0.0
O127 O 0.40034 0.98926 0.60024 0.0
C128 C 0.3691 0.10621 0.72573 0.0
C129 C 0.36522 0.95883 0.57133 0.0
C130 C 0.63008 0.6672 0.07769 0.0
C131 C 0.50985 0.68979 0.95829 0.0
O132 O 0.60116 0.63061 0.04438 0.0
Zn133 Zn 0.57048 0.67423 0.01464 0.0
O134 O 0.62885 0.71332 0.08151 0.0
Zn135 Zn 0.59236 0.75625 0.0486 0.0
O136 O 0.56661 0.79434 0.10753 0.0
O137 O 0.53859 0.71158 0.07802 0.0
O138 O 0.53571 0.73127 0.9887 0.0
O139 O 0.51834 0.64711 0.9588 0.0
O140 O 0.62252 0.70613 0.98055 0.0
O141 O 0.63921 0.78978 0.02194 0.0
C142 C 0.53928 0.7565 0.10983 0.0
C143 C 0.64608 0.75017 0.98743 0.0
C144 C 0.88146 0.97904 0.683 0.0
C145 C 0.86622 0.09253 0.5821 0.0
O146 O 0.84102 0.97992 0.66604 0.0
Zn147 Zn 0.80445 0.01539 0.62255 0.0
O148 O 0.91416 1.00911 0.67644 0.0
Zn149 Zn 0.87664 0.03836 0.63592 0.0
O150 O 0.84367 0.08227 0.69454 0.0
O151 O 0.77053 0.05285 0.67295 0.0
O152 O 0.90262 0.08679 0.60457 0.0
O153 O 0.82869 0.06802 0.58638 0.0
O154 O 0.775 0.95451 0.56406 0.0
O155 O 0.84886 0.97064 0.57009 0.0
C156 C 0.80377 0.08429 0.70474 0.0
C157 C 0.81054 0.94187 0.54755 0.0
C158 C 0.59233 0.31702 0.28096 0.0
C159 C 0.46606 0.33488 0.16726 0.0
O160 O 0.56844 0.27449 0.24999 0.0
Zn161 Zn 0.50858 0.24677 0.19346 0.0
O162 O 0.58021 0.35884 0.28345 0.0
Zn163 Zn 0.52754 0.32885 0.22892 0.0
O164 O 0.48122 0.29368 0.26566 0.0
O165 O 0.46663 0.21044 0.22486 0.0
O166 O 0.494 0.3712 0.20204 0.0
O167 O 0.4684 0.28849 0.1616 0.0
O168 O 0.53463 0.2113 0.13276 0.0
O169 O 0.55922 0.29479 0.16402 0.0
C170 C 0.46066 0.24909 0.26144 0.0
C171 C 0.56013 0.25088 0.13119 0.0
C172 C 0.22687 0.41312 0.40517 0.0
C173 C 0.22015 0.38119 0.43462 0.0
C174 C 0.19869 0.44744 0.40368 0.0
C175 C 0.16318 0.45188 0.43257 0.0
H176 H 0.25315 0.40986 0.38128 0.0
H177 H 0.20391 0.46966 0.37841 0.0
S178 S 0.13341 0.38024 0.51997 0.0
N179 N 0.17684 0.35818 0.49628 0.0
N180 N 0.12416 0.42385 0.49411 0.0
C181 C 0.15742 0.42229 0.46469 0.0
C182 C 0.18583 0.38649 0.46558 0.0
C183 C 0.21579 0.64606 0.92265 0.0
C184 C 0.2212 0.69849 0.93006 0.0
C185 C 0.17916 0.62062 0.93699 0.0
C186 C 0.14638 0.64638 0.9596 0.0
H187 H 0.23889 0.62371 0.90323 0.0
H188 H 0.17522 0.57967 0.92786 0.0
S189 S 0.14597 0.78414 0.99136 0.0
N190 N 0.19193 0.77615 0.96516 0.0
N191 N 0.12221 0.72737 0.9912 0.0
C192 C 0.15205 0.6991 0.9696 0.0
C193 C 0.18959 0.72533 0.95486 0.0
C194 C 0.92268 0.65026 0.42831 0.0
C195 C 0.90683 0.65657 0.38125 0.0
C196 C 0.96196 0.63075 0.43401 0.0
C197 C 0.98679 0.617 0.39286 0.0
H198 H 0.90389 0.65906 0.46041 0.0
H199 H 0.97185 0.62452 0.47011 0.0
S200 S 0.96307 0.63342 0.26456 0.0
N201 N 0.92172 0.65285 0.29503 0.0
N202 N 0.99493 0.61593 0.30535 0.0
C203 C 0.97239 0.62558 0.3466 0.0
C204 C 0.93259 0.64538 0.34088 0.0
C205 C 0.8597 0.40101 0.92264 0.0
C206 C 0.85655 0.38104 0.96305 0.0
C207 C 0.89512 0.44037 0.92623 0.0
C208 C 0.92905 0.46166 0.97043 0.0
H209 H 0.83543 0.38464 0.88694 0.0
H210 H 0.89678 0.45295 0.89303 0.0
S211 S 0.93413 0.42616 0.0892 0.0
N212 N 0.88844 0.3878 0.05043 0.0
N213 N 0.95537 0.46246 0.05732 0.0
C214 C 0.92483 0.44448 0.01271 0.0
C215 C 0.8885 0.40397 0.00896 0.0
C216 C 0.33144 0.16187 0.51485 0.0
C217 C 0.29068 0.16455 0.48804 0.0
C218 C 0.33262 0.13157 0.5461 0.0
C219 C 0.29306 0.10233 0.55214 0.0
H220 H 0.36286 0.18402 0.51227 0.0
H221 H 0.36519 0.1314 0.56585 0.0
S222 S 0.17737 0.0953 0.48933 0.0
N223 N 0.20955 0.13503 0.46876 0.0
N224 N 0.21165 0.07789 0.528 0.0
C225 C 0.25186 0.10467 0.52562 0.0
C226 C 0.25069 0.13582 0.49357 0.0
C227 C 0.41959 0.75146 0.91337 0.0
C228 C 0.3808 0.7129 0.89925 0.0
C229 C 0.46179 0.74213 0.92826 0.0
C230 C 0.46712 0.6939 0.92998 0.0
H231 H 0.41711 0.78998 0.91569 0.0
H232 H 0.49014 0.77399 0.94114 0.0
S233 S 0.37713 0.57764 0.88818 0.0
N234 N 0.35114 0.62272 0.88092 0.0
N235 N 0.43047 0.60546 0.91025 0.0
C236 C 0.42915 0.65392 0.91216 0.0
C237 C 0.38601 0.66342 0.89672 0.0
C238 C 0.85221 0.83442 0.45241 0.0
C239 C 0.81608 0.79277 0.43887 0.0
C240 C 0.84908 0.88285 0.4856 0.0
C241 C 0.80971 0.89175 0.50689 0.0
H242 H 0.88319 0.8296 0.43703 0.0
H243 H 0.87823 0.91342 0.49528 0.0
S244 S 0.70555 0.79479 0.48371 0.0
N245 N 0.73962 0.76309 0.4489 0.0
N246 N 0.73365 0.85424 0.51171 0.0
C247 C 0.77297 0.85048 0.49298 0.0
C248 C 0.7762 0.80101 0.45893 0.0
C249 C 0.65872 0.29192 0.07032 0.0
C250 C 0.66138 0.24695 0.03019 0.0
C251 C 0.62548 0.29238 0.10183 0.0
C252 C 0.59347 0.24795 0.09489 0.0
H253 H 0.6824 0.32714 0.07758 0.0
H254 H 0.62538 0.32812 0.13235 0.0
S255 S 0.5862 0.12063 0.99441 0.0
N256 N 0.62949 0.15729 0.98441 0.0
N257 N 0.56681 0.15769 0.04404 0.0
C258 C 0.59577 0.20274 0.05469 0.0
C259 C 0.62972 0.20245 0.02231 0.0
C260 C 0.34258 0.87552 0.7634 0.0
C261 C 0.30402 0.85587 0.77951 0.0
C262 C 0.34144 0.90901 0.7356 0.0
C263 C 0.30135 0.92435 0.72229 0.0
H264 H 0.37422 0.8649 0.77274 0.0
H265 H 0.37255 0.92281 0.72435 0.0
S266 S 0.19001 0.88293 0.75488 0.0
N267 N 0.22388 0.85343 0.78011 0.0
N268 N 0.22148 0.9165 0.7273 0.0
C269 C 0.26203 0.90454 0.73784 0.0
C270 C 0.26334 0.87031 0.76662 0.0
C271 C 0.73906 0.69873 0.16879 0.0
C272 C 0.73152 0.66724 0.19841 0.0
C273 C 0.70736 0.6948 0.12661 0.0
C274 C 0.66631 0.65949 0.11273 0.0
H275 H 0.76895 0.72858 0.18013 0.0
H276 H 0.71401 0.7218 0.10654 0.0
S277 S 0.63169 0.56465 0.17527 0.0
N278 N 0.68165 0.59638 0.20896 0.0
N279 N 0.62118 0.58937 0.12939 0.0
C280 C 0.65942 0.62507 0.13974 0.0
C281 C 0.69221 0.62894 0.18293 0.0
C282 C 0.83243 0.18647 0.83922 0.0
C283 C 0.79135 0.20159 0.84843 0.0
C284 C 0.83561 0.1481 0.79309 0.0
C285 C 0.79781 0.12292 0.75404 0.0
H286 H 0.86261 0.20484 0.86782 0.0
H287 H 0.86827 0.13842 0.78802 0.0
S288 S 0.68206 0.14785 0.75933 0.0
N289 N 0.7118 0.18829 0.81498 0.0
N290 N 0.71757 0.11535 0.72826 0.0
C291 C 0.75616 0.13672 0.76323 0.0
C292 C 0.75298 0.17617 0.81039 0.0
C293 C 0.36654 0.19391 0.32108 0.0
C294 C 0.36418 0.23598 0.36488 0.0
C295 C 0.39851 0.1978 0.28834 0.0
C296 C 0.42934 0.24386 0.29845 0.0
H297 H 0.34265 0.15829 0.3112 0.0
H298 H 0.39827 0.1649 0.25421 0.0
S299 S 0.44027 0.363 0.41255 0.0
N300 N 0.39759 0.32336 0.41935 0.0
N301 N 0.45758 0.33102 0.3587 0.0
C302 C 0.42838 0.28541 0.34367 0.0
C303 C 0.39586 0.28139 0.37663 0.0
C304 C 0.88275 0.62911 0.83328 0.0
C305 C 0.89824 0.68239 0.85531 0.0
C306 C 0.91146 0.59516 0.83582 0.0
C307 C 0.9562 0.61361 0.86132 0.0
H308 H 0.84806 0.61368 0.81465 0.0
H309 H 0.89801 0.55442 0.82012 0.0
S310 S 1.01325 0.7494 0.92388 0.0
N311 N 0.96152 0.75176 0.90153 0.0
N312 N 0.01502 0.6881 0.90763 0.0
C313 C 0.97224 0.66669 0.88241 0.0
C314 C 0.94338 0.70109 0.87904 0.0
C315 C 0.89362 0.39799 0.36457 0.0
C316 C 0.88944 0.34487 0.35127 0.0
C317 C 0.93112 0.42768 0.35621 0.0
C318 C 0.96557 0.40538 0.33346 0.0
H319 H 0.86839 0.41707 0.38327 0.0
H320 H 0.93383 0.46878 0.36907 0.0
S321 S 0.96986 0.26779 0.28907 0.0
N322 N 0.9221 0.27075 0.31238 0.0
N323 N 0.99288 0.32712 0.29624 0.0
C324 C 0.9613 0.35219 0.31819 0.0
C325 C 0.92318 0.32179 0.32737 0.0
C326 C 0.17475 0.4204 0.97035 0.0
C327 C 0.19647 0.39634 0.92952 0.0
C328 C 0.13682 0.44057 0.96131 0.0
C329 C 0.11893 0.43773 0.91076 0.0
H330 H 0.18783 0.42443 0.00998 0.0
H331 H 0.12212 0.45973 0.99474 0.0
S332 S 0.16215 0.37572 0.78916 0.0
N333 N 0.19636 0.36832 0.83563 0.0
N334 N 0.1251 0.40669 0.81864 0.0
C335 C 0.13949 0.41209 0.86897 0.0
C336 C 0.17832 0.39137 0.87827 0.0
C337 C 0.2192 0.64761 0.28162 0.0
C338 C 0.25634 0.66447 0.32225 0.0
C339 C 0.18095 0.61302 0.28257 0.0
C340 C 0.17871 0.59471 0.32439 0.0
H341 H 0.21892 0.66293 0.25021 0.0
H342 H 0.15231 0.60241 0.25172 0.0
S343 S 0.27013 0.62064 0.43537 0.0
N344 N 0.2906 0.65524 0.40162 0.0
N345 N 0.21908 0.5912 0.40385 0.0
C346 C 0.21677 0.60902 0.3634 0.0
C347 C 0.2555 0.64363 0.36221 0.0
C348 C 0.92311 0.91469 0.77597 0.0
C349 C 0.89051 0.86937 0.76034 0.0
C350 C 0.9219 0.94976 0.74943 0.0
C351 C 0.88817 0.93987 0.70642 0.0
H352 H 0.94815 0.92416 0.81036 0.0
H353 H 0.94597 0.98563 0.76407 0.0
S354 S 0.80138 0.82112 0.64388 0.0
N355 N 0.82804 0.81302 0.69512 0.0
N356 N 0.82597 0.87776 0.64476 0.0
C357 C 0.8578 0.89257 0.68815 0.0
C358 C 0.85888 0.85751 0.71522 0.0
C359 C 0.70892 0.28882 0.29067 0.0
C360 C 0.72394 0.30548 0.34464 0.0
C361 C 0.66638 0.29368 0.27094 0.0
C362 C 0.63769 0.31637 0.3044 0.0
H363 H 0.73001 0.27121 0.26349 0.0
H364 H 0.65575 0.27949 0.22902 0.0
S365 S 0.66143 0.36723 0.44868 0.0
N366 N 0.70708 0.34586 0.43139 0.0
N367 N 0.62704 0.35609 0.39384 0.0
C368 C 0.6524 0.33404 0.35839 0.0
C369 C 0.69558 0.3282 0.37865 0.0
C370 C 0.36625 0.19561 0.86019 0.0
C371 C 0.36277 0.24153 0.85146 0.0
C372 C 0.37157 0.1524 0.81982 0.0
C373 C 0.37429 0.154 0.76974 0.0
H374 H 0.36231 0.19215 0.89771 0.0
H375 H 0.37139 0.11689 0.82715 0.0
S376 S 0.37083 0.26535 0.72733 0.0
N377 N 0.36555 0.28661 0.78958 0.0
N378 N 0.37536 0.20499 0.71366 0.0
C379 C 0.37303 0.20002 0.76094 0.0
C380 C 0.36736 0.24397 0.80188 0.0
C381 C 0.44235 0.72435 0.17757 0.0
C382 C 0.44405 0.77048 0.21832 0.0
C383 C 0.4733 0.72065 0.14287 0.0
C384 C 0.50705 0.76285 0.14742 0.0
H385 H 0.41743 0.69075 0.17275 0.0
H386 H 0.47062 0.68415 0.11226 0.0
S387 S 0.52435 0.89224 0.24759 0.0
N388 N 0.481 0.85895 0.26137 0.0
N389 N 0.53928 0.85251 0.196 0.0
C390 C 0.50849 0.80933 0.18775 0.0
C391 C 0.47697 0.8129 0.22319 0.0
C392 C 0.82168 0.166 0.50033 0.0
C393 C 0.86084 0.19156 0.48963 0.0
C394 C 0.82416 0.13443 0.53027 0.0
C395 C 0.86582 0.12701 0.55097 0.0
H396 H 0.78876 0.17016 0.48538 0.0
H397 H 0.79288 0.1157 0.53714 0.0
S398 S 0.97805 0.1859 0.53393 0.0
N399 N 0.94215 0.20783 0.50166 0.0
N400 N 0.94725 0.14852 0.55833 0.0
C401 C 0.90524 0.15262 0.54064 0.0
C402 C 0.90256 0.18478 0.50989 0.0
C403 C 0.36618 0.30745 0.06227 0.0
C404 C 0.37815 0.34396 0.03895 0.0
C405 C 0.39321 0.30749 0.10669 0.0
C406 C 0.43317 0.34412 0.12945 0.0
H407 H 0.33734 0.27662 0.04399 0.0
H408 H 0.38404 0.27682 0.12157 0.0
S409 S 0.47696 0.45056 0.08529 0.0
N410 N 0.43054 0.41963 0.04325 0.0
N411 N 0.48136 0.42034 0.12747 0.0
C412 C 0.44372 0.38313 0.10866 0.0
C413 C 0.41625 0.38276 0.06302 0.0
C414 C 0.35429 0.82601 0.47596 0.0
C415 C 0.35237 0.83402 0.42784 0.0
C416 C 0.36161 0.8672 0.5231 0.0
C417 C 0.36788 0.91763 0.52363 0.0
H418 H 0.34904 0.78756 0.4771 0.0
H419 H 0.36072 0.85952 0.5592 0.0
S420 S 0.36576 0.9596 0.40919 0.0
N421 N 0.35732 0.89662 0.38407 0.0
N422 N 0.3718 0.97393 0.47309 0.0
C423 C 0.36736 0.92642 0.47627 0.0
C424 C 0.35959 0.88459 0.4282 0.0
C425 C 0.71599 0.73512 0.87896 0.0
C426 C 0.7602 0.749 0.9065 0.0
C427 C 0.67885 0.73628 0.90538 0.0
C428 C 0.68494 0.75311 0.96013 0.0
H429 H 0.71015 0.72264 0.83675 0.0
H430 H 0.64524 0.72404 0.88293 0.0
S431 S 0.79368 0.7934 0.05 0.0
N432 N 0.80787 0.77928 0.99125 0.0
N433 N 0.73816 0.78324 0.0409 0.0
C434 C 0.72891 0.76764 0.98802 0.0
C435 C 0.76657 0.76517 0.96118 0.0
loop_
_geom_bond_atom_site_label_1
_geom_bond_atom_site_label_2
_geom_bond_distance
_geom_bond_site_symmetry_2
_ccdc_geom_bond_type
H0 C5 0.929 . S
H1 C10 0.931 . S
H2 C8 0.930 . S
N3 N4 1.234 . S
N3 C7 1.453 . S
N4 N3 1.234 . S
C5 H0 0.929 . S
C5 C6 1.373 . S
C5 C7 1.368 . S
C6 C5 1.373 . S
C6 C10 1.397 . S
C7 N3 1.453 . S
C7 C5 1.368 . S
C7 C8 1.373 . S
C8 H2 0.930 . S
C8 C7 1.373 . S
C8 C9 1.371 . S
C9 C8 1.371 . S
C9 C10 1.383 . S
C10 H1 0.931 . S
C10 C6 1.397 . S
C10 C9 1.383 . S
H11 C16 0.929 . S
H12 C21 0.931 . S
H13 C19 0.930 . S
N14 N15 1.234 . S
N14 C18 1.453 . S
N15 N14 1.234 . S
C16 H11 0.929 . S
C16 C17 1.373 . S
C16 C18 1.368 . S
C17 C16 1.373 . S
C17 C21 1.397 . S
C18 N14 1.453 . S
C18 C16 1.368 . S
C18 C19 1.373 . S
C19 H13 0.930 . S
C19 C18 1.373 . S
C19 C20 1.371 . S
C20 C19 1.371 . S
C20 C21 1.383 . S
C21 H12 0.931 . S
C21 C17 1.397 . S
C21 C20 1.383 . S
H22 C27 0.929 . S
H23 C32 0.931 . S
H24 C30 0.930 . S
N25 N26 1.234 . S
N25 C29 1.453 . S
N26 N25 1.234 . S
C27 H22 0.929 . S
C27 C28 1.373 . S
C27 C29 1.368 . S
C28 C27 1.373 . S
C28 C32 1.397 . S
C29 N25 1.453 . S
C29 C27 1.368 . S
C29 C30 1.373 . S
C30 H24 0.930 . S
C30 C29 1.373 . S
C30 C31 1.371 . S
C31 C30 1.371 . S
C31 C32 1.383 . S
C32 H23 0.931 . S
C32 C28 1.397 . S
C32 C31 1.383 . S
H33 C38 0.930 . S
H34 C43 0.931 . S
H35 C41 0.930 . S
N36 N37 1.234 . S
N36 C40 1.453 1_554 S
N37 N36 1.234 . S
C38 H33 0.930 . S
C38 C39 1.372 1_554 S
C38 C40 1.368 1_554 S
C39 C38 1.372 1_556 S
C39 C43 1.397 . S
C40 N36 1.453 1_556 S
C40 C38 1.368 1_556 S
C40 C41 1.373 . S
C41 H35 0.930 . S
C41 C40 1.373 . S
C41 C42 1.371 . S
C42 C41 1.371 . S
C42 C43 1.383 . S
C43 H34 0.931 . S
C43 C39 1.397 . S
C43 C42 1.383 . S
H44 C49 0.929 . S
H45 C54 0.931 . S
H46 C52 0.930 . S
N47 N48 1.234 . S
N47 C51 1.453 . S
N48 N47 1.234 . S
C49 H44 0.929 . S
C49 C50 1.373 . S
C49 C51 1.368 . S
C50 C49 1.373 . S
C50 C54 1.397 . S
C51 N47 1.453 . S
C51 C49 1.368 . S
C51 C52 1.373 . S
C52 H46 0.930 . S
C52 C51 1.373 . S
C52 C53 1.371 . S
C53 C52 1.371 . S
C53 C54 1.383 . S
C54 H45 0.931 . S
C54 C50 1.397 . S
C54 C53 1.383 . S
H55 C60 0.929 . S
H56 C65 0.931 . S
H57 C63 0.930 . S
N58 N59 1.234 . S
N58 C62 1.453 . S
N59 N58 1.234 . S
C60 H55 0.929 . S
C60 C61 1.373 . S
C60 C62 1.368 . S
C61 C60 1.373 . S
C61 C65 1.397 . S
C62 N58 1.453 . S
C62 C60 1.368 . S
C62 C63 1.373 . S
C63 H57 0.930 . S
C63 C62 1.373 . S
C63 C64 1.371 . S
C64 C63 1.371 . S
C64 C65 1.383 . S
C65 H56 0.931 . S
C65 C61 1.397 . S
C65 C64 1.383 . S
H66 C71 0.929 . S
H67 C76 0.931 . S
H68 C74 0.930 . S
N69 N70 1.234 . S
N69 C73 1.453 . S
N70 N69 1.234 . S
C71 H66 0.929 . S
C71 C72 1.373 . S
C71 C73 1.368 . S
C72 C71 1.373 . S
C72 C76 1.397 . S
C73 N69 1.453 . S
C73 C71 1.368 . S
C73 C74 1.373 . S
C74 H68 0.930 . S
C74 C73 1.373 . S
C74 C75 1.371 . S
C75 C74 1.371 . S
C75 C76 1.383 . S
C76 H67 0.931 . S
C76 C72 1.397 . S
C76 C75 1.383 . S
H77 C82 0.929 . S
H78 C87 0.931 . S
H79 C85 0.930 . S
N80 N81 1.234 . S
N80 C84 1.453 . S
N81 N80 1.234 . S
C82 H77 0.929 . S
C82 C83 1.373 . S
C82 C84 1.368 . S
C83 C82 1.373 . S
C83 C87 1.397 . S
C84 N80 1.453 . S
C84 C82 1.368 . S
C84 C85 1.373 . S
C85 H79 0.930 . S
C85 C84 1.373 . S
C85 C86 1.371 . S
C86 C85 1.371 . S
C86 C87 1.383 . S
C87 H78 0.931 . S
C87 C83 1.397 . S
C87 C86 1.383 . S
C88 O90 1.247 1_655 S
C88 O92 1.258 . S
C89 O96 1.247 . S
C89 O97 1.258 . S
O90 C88 1.247 1_455 S
O90 Zn91 2.028 . S
Zn91 O90 2.028 . S
Zn91 O95 2.035 . S
Zn91 O97 2.035 . S
Zn91 O98 2.028 . S
O92 C88 1.258 . S
O92 Zn93 2.035 1_655 S
Zn93 O92 2.035 1_455 S
Zn93 O94 2.028 . S
Zn93 O96 2.028 . S
Zn93 O99 2.035 1_455 S
O94 Zn93 2.028 . S
O94 C100 1.247 . S
O95 Zn91 2.035 . S
O95 C100 1.258 . S
O96 C89 1.247 . S
O96 Zn93 2.028 . S
O97 C89 1.258 . S
O97 Zn91 2.035 . S
O98 Zn91 2.028 . S
O98 C101 1.247 1_455 S
O99 Zn93 2.035 1_655 S
O99 C101 1.258 . S
C100 O94 1.247 . S
C100 O95 1.258 . S
C101 O98 1.247 1_655 S
C101 O99 1.258 . S
C102 O104 1.247 1_656 S
C102 O106 1.258 . S
C103 O110 1.247 . S
C103 O111 1.258 . S
O104 C102 1.247 1_454 S
O104 Zn105 2.028 . S
Zn105 O104 2.028 . S
Zn105 O109 2.035 . S
Zn105 O111 2.035 1_554 S
Zn105 O112 2.028 1_554 S
O106 C102 1.258 . S
O106 Zn107 2.035 1_655 S
Zn107 O106 2.035 1_455 S
Zn107 O108 2.028 . S
Zn107 O110 2.028 . S
Zn107 O113 2.035 1_455 S
O108 Zn107 2.028 . S
O108 C114 1.247 . S
O109 Zn105 2.035 . S
O109 C114 1.258 1_554 S
O110 C103 1.247 . S
O110 Zn107 2.028 . S
O111 C103 1.258 . S
O111 Zn105 2.035 1_556 S
O112 Zn105 2.028 1_556 S
O112 C115 1.247 1_455 S
O113 Zn107 2.035 1_655 S
O113 C115 1.258 . S
C114 O108 1.247 . S
C114 O109 1.258 1_556 S
C115 O112 1.247 1_655 S
C115 O113 1.258 . S
C116 O118 1.247 . S
C116 O120 1.258 . S
C117 O124 1.247 . S
C117 O125 1.258 . S
O118 C116 1.247 . S
O118 Zn119 2.028 1_565 S
Zn119 O118 2.028 1_545 S
Zn119 O123 2.035 . S
Zn119 O125 2.035 . S
Zn119 O126 2.028 1_545 S
O120 C116 1.258 . S
O120 Zn121 2.035 1_565 S
Zn121 O120 2.035 1_545 S
Zn121 O122 2.028 . S
Zn121 O124 2.028 . S
Zn121 O127 2.035 1_545 S
O122 Zn121 2.028 . S
O122 C128 1.247 . S
O123 Zn119 2.035 . S
O123 C128 1.258 . S
O124 C117 1.247 . S
O124 Zn121 2.028 . S
O125 C117 1.258 . S
O125 Zn119 2.035 . S
O126 Zn119 2.028 1_565 S
O126 C129 1.247 . S
O127 Zn121 2.035 1_565 S
O127 C129 1.258 . S
C128 O122 1.247 . S
C128 O123 1.258 . S
C129 O126 1.247 . S
C129 O127 1.258 . S
C130 O132 1.247 . S
C130 O134 1.258 . S
C131 O138 1.247 . S
C131 O139 1.258 . S
O132 C130 1.247 . S
O132 Zn133 2.028 1_554 S
Zn133 O132 2.028 1_556 S
Zn133 O137 2.035 1_556 S
Zn133 O139 2.035 . S
Zn133 O140 2.028 . S
O134 C130 1.258 . S
O134 Zn135 2.035 . S
Zn135 O134 2.035 . S
Zn135 O136 2.028 . S
Zn135 O138 2.028 1_554 S
Zn135 O141 2.035 1_554 S
O136 Zn135 2.028 . S
O136 C142 1.247 . S
O137 Zn133 2.035 1_554 S
O137 C142 1.258 . S
O138 C131 1.247 . S
O138 Zn135 2.028 1_556 S
O139 C131 1.258 . S
O139 Zn133 2.035 . S
O140 Zn133 2.028 . S
O140 C143 1.247 . S
O141 Zn135 2.035 1_556 S
O141 C143 1.258 . S
C142 O136 1.247 . S
C142 O137 1.258 . S
C143 O140 1.247 . S
C143 O141 1.258 . S
C144 O146 1.247 . S
C144 O148 1.258 . S
C145 O152 1.247 . S
C145 O153 1.258 . S
O146 C144 1.247 . S
O146 Zn147 2.028 1_565 S
Zn147 O146 2.028 1_545 S
Zn147 O151 2.035 . S
Zn147 O153 2.035 . S
Zn147 O154 2.028 1_545 S
O148 C144 1.258 . S
O148 Zn149 2.035 1_565 S
Zn149 O148 2.035 1_545 S
Zn149 O150 2.028 . S
Zn149 O152 2.028 . S
Zn149 O155 2.035 1_545 S
O150 Zn149 2.028 . S
O150 C156 1.247 . S
O151 Zn147 2.035 . S
O151 C156 1.258 . S
O152 C145 1.247 . S
O152 Zn149 2.028 . S
O153 C145 1.258 . S
O153 Zn147 2.035 . S
O154 Zn147 2.028 1_565 S
O154 C157 1.247 . S
O155 Zn149 2.035 1_565 S
O155 C157 1.258 . S
C156 O150 1.247 . S
C156 O151 1.258 . S
C157 O154 1.247 . S
C157 O155 1.258 . S
C158 O160 1.247 . S
C158 O162 1.258 . S
C159 O166 1.247 . S
C159 O167 1.258 . S
O160 C158 1.247 . S
O160 Zn161 2.028 . S
Zn161 O160 2.028 . S
Zn161 O165 2.035 . S
Zn161 O167 2.035 . S
Zn161 O168 2.028 . S
O162 C158 1.258 . S
O162 Zn163 2.035 . S
Zn163 O162 2.035 . S
Zn163 O164 2.028 . S
Zn163 O166 2.028 . S
Zn163 O169 2.035 . S
O164 Zn163 2.028 . S
O164 C170 1.247 . S
O165 Zn161 2.035 . S
O165 C170 1.258 . S
O166 C159 1.247 . S
O166 Zn163 2.028 . S
O167 C159 1.258 . S
O167 Zn161 2.035 . S
O168 Zn161 2.028 . S
O168 C171 1.247 . S
O169 Zn163 2.035 . S
O169 C171 1.258 . S
C170 O164 1.247 . S
C170 O165 1.258 . S
C171 O168 1.247 . S
C171 O169 1.258 . S
C172 C173 1.369 . S
C172 C174 1.419 . S
C172 H176 0.930 . S
C173 C172 1.369 . S
C173 C182 1.429 . S
C174 C172 1.419 . S
C174 C175 1.363 . S
C174 H177 0.929 . S
C175 C174 1.363 . S
C175 C181 1.428 . S
H176 C172 0.930 . S
H177 C174 0.929 . S
S178 N179 1.613 . S
S178 N180 1.610 . S
N179 S178 1.613 . S
N179 C182 1.350 . S
N180 S178 1.610 . S
N180 C181 1.351 . S
C181 C175 1.428 . S
C181 N180 1.351 . S
C181 C182 1.434 . S
C182 C173 1.429 . S
C182 N179 1.350 . S
C182 C181 1.434 . S
C183 C184 1.369 . S
C183 C185 1.419 . S
C183 H187 0.930 . S
C184 C183 1.369 . S
C184 C193 1.429 . S
C185 C183 1.419 . S
C185 C186 1.363 . S
C185 H188 0.929 . S
C186 C185 1.363 . S
C186 C192 1.428 . S
H187 C183 0.930 . S
H188 C185 0.929 . S
S189 N190 1.613 . S
S189 N191 1.610 . S
N190 S189 1.613 . S
N190 C193 1.350 . S
N191 S189 1.610 . S
N191 C192 1.351 . S
C192 C186 1.428 . S
C192 N191 1.351 . S
C192 C193 1.434 . S
C193 C184 1.429 . S
C193 N190 1.350 . S
C193 C192 1.434 . S
C194 C195 1.369 . S
C194 C196 1.419 . S
C194 H198 0.930 . S
C195 C194 1.369 . S
C195 C204 1.429 . S
C196 C194 1.419 . S
C196 C197 1.363 . S
C196 H199 0.929 . S
C197 C196 1.363 . S
C197 C203 1.428 . S
H198 C194 0.930 . S
H199 C196 0.929 . S
S200 N201 1.613 . S
S200 N202 1.610 . S
N201 S200 1.613 . S
N201 C204 1.350 . S
N202 S200 1.610 . S
N202 C203 1.351 . S
C203 C197 1.428 . S
C203 N202 1.351 . S
C203 C204 1.434 . S
C204 C195 1.429 . S
C204 N201 1.350 . S
C204 C203 1.434 . S
C205 C206 1.369 . S
C205 C207 1.419 . S
C205 H209 0.930 . S
C206 C205 1.369 . S
C206 C215 1.429 1_556 S
C207 C205 1.419 . S
C207 C208 1.363 . S
C207 H210 0.929 . S
C208 C207 1.363 . S
C208 C214 1.428 1_556 S
H209 C205 0.930 . S
H210 C207 0.929 . S
S211 N212 1.613 . S
S211 N213 1.610 . S
N212 S211 1.613 . S
N212 C215 1.350 . S
N213 S211 1.610 . S
N213 C214 1.351 . S
C214 C208 1.428 1_554 S
C214 N213 1.351 . S
C214 C215 1.434 . S
C215 C206 1.429 1_554 S
C215 N212 1.350 . S
C215 C214 1.434 . S
C216 C217 1.369 . S
C216 C218 1.419 . S
C216 H220 0.930 . S
C217 C216 1.369 . S
C217 C226 1.429 . S
C218 C216 1.419 . S
C218 C219 1.363 . S
C218 H221 0.929 . S
C219 C218 1.363 . S
C219 C225 1.428 . S
H220 C216 0.930 . S
H221 C218 0.929 . S
S222 N223 1.613 . S
S222 N224 1.610 . S
N223 S222 1.613 . S
N223 C226 1.350 . S
N224 S222 1.610 . S
N224 C225 1.351 . S
C225 C219 1.428 . S
C225 N224 1.351 . S
C225 C226 1.434 . S
C226 C217 1.429 . S
C226 N223 1.350 . S
C226 C225 1.434 . S
C227 C228 1.369 . S
C227 C229 1.419 . S
C227 H231 0.930 . S
C228 C227 1.369 . S
C228 C237 1.429 . S
C229 C227 1.419 . S
C229 C230 1.363 . S
C229 H232 0.929 . S
C230 C229 1.363 . S
C230 C236 1.428 . S
H231 C227 0.930 . S
H232 C229 0.929 . S
S233 N234 1.613 . S
S233 N235 1.610 . S
N234 S233 1.613 . S
N234 C237 1.350 . S
N235 S233 1.610 . S
N235 C236 1.351 . S
C236 C230 1.428 . S
C236 N235 1.351 . S
C236 C237 1.434 . S
C237 C228 1.429 . S
C237 N234 1.350 . S
C237 C236 1.434 . S
C238 C239 1.369 . S
C238 C240 1.419 . S
C238 H242 0.930 . S
C239 C238 1.369 . S
C239 C248 1.429 . S
C240 C238 1.419 . S
C240 C241 1.363 . S
C240 H243 0.929 . S
C241 C240 1.363 . S
C241 C247 1.428 . S
H242 C238 0.930 . S
H243 C240 0.929 . S
S244 N245 1.613 . S
S244 N246 1.610 . S
N245 S244 1.613 . S
N245 C248 1.350 . S
N246 S244 1.610 . S
N246 C247 1.351 . S
C247 C241 1.428 . S
C247 N246 1.351 . S
C247 C248 1.434 . S
C248 C239 1.429 . S
C248 N245 1.350 . S
C248 C247 1.434 . S
C249 C250 1.369 . S
C249 C251 1.419 . S
C249 H253 0.930 . S
C250 C249 1.369 . S
C250 C259 1.429 . S
C251 C249 1.419 . S
C251 C252 1.363 . S
C251 H254 0.929 . S
C252 C251 1.363 . S
C252 C258 1.428 . S
H253 C249 0.930 . S
H254 C251 0.929 . S
S255 N256 1.613 . S
S255 N257 1.610 . S
N256 S255 1.613 . S
N256 C259 1.350 . S
N257 S255 1.610 . S
N257 C258 1.351 . S
C258 C252 1.428 . S
C258 N257 1.351 . S
C258 C259 1.434 . S
C259 C250 1.429 . S
C259 N256 1.350 . S
C259 C258 1.434 . S
C260 C261 1.369 . S
C260 C262 1.419 . S
C260 H264 0.930 . S
C261 C260 1.369 . S
C261 C270 1.429 . S
C262 C260 1.419 . S
C262 C263 1.363 . S
C262 H265 0.929 . S
C263 C262 1.363 . S
C263 C269 1.428 . S
H264 C260 0.930 . S
H265 C262 0.929 . S
S266 N267 1.613 . S
S266 N268 1.610 . S
N267 S266 1.613 . S
N267 C270 1.350 . S
N268 S266 1.610 . S
N268 C269 1.351 . S
C269 C263 1.428 . S
C269 N268 1.351 . S
C269 C270 1.434 . S
C270 C261 1.429 . S
C270 N267 1.350 . S
C270 C269 1.434 . S
C271 C272 1.369 . S
C271 C273 1.419 . S
C271 H275 0.930 . S
C272 C271 1.369 . S
C272 C281 1.429 . S
C273 C271 1.419 . S
C273 C274 1.363 . S
C273 H276 0.929 . S
C274 C273 1.363 . S
C274 C280 1.428 . S
H275 C271 0.930 . S
H276 C273 0.929 . S
S277 N278 1.613 . S
S277 N279 1.610 . S
N278 S277 1.613 . S
N278 C281 1.350 . S
N279 S277 1.610 . S
N279 C280 1.351 . S
C280 C274 1.428 . S
C280 N279 1.351 . S
C280 C281 1.434 . S
C281 C272 1.429 . S
C281 N278 1.350 . S
C281 C280 1.434 . S
C282 C283 1.369 . S
C282 C284 1.419 . S
C282 H286 0.930 . S
C283 C282 1.369 . S
C283 C292 1.429 . S
C284 C282 1.419 . S
C284 C285 1.363 . S
C284 H287 0.929 . S
C285 C284 1.363 . S
C285 C291 1.428 . S
H286 C282 0.930 . S
H287 C284 0.929 . S
S288 N289 1.613 . S
S288 N290 1.610 . S
N289 S288 1.613 . S
N289 C292 1.350 . S
N290 S288 1.610 . S
N290 C291 1.351 . S
C291 C285 1.428 . S
C291 N290 1.351 . S
C291 C292 1.434 . S
C292 C283 1.429 . S
C292 N289 1.350 . S
C292 C291 1.434 . S
C293 C294 1.369 . S
C293 C295 1.419 . S
C293 H297 0.930 . S
C294 C293 1.369 . S
C294 C303 1.429 . S
C295 C293 1.419 . S
C295 C296 1.363 . S
C295 H298 0.929 . S
C296 C295 1.363 . S
C296 C302 1.428 . S
H297 C293 0.930 . S
H298 C295 0.929 . S
S299 N300 1.613 . S
S299 N301 1.610 . S
N300 S299 1.613 . S
N300 C303 1.350 . S
N301 S299 1.610 . S
N301 C302 1.351 . S
C302 C296 1.428 . S
C302 N301 1.351 . S
C302 C303 1.434 . S
C303 C294 1.429 . S
C303 N300 1.350 . S
C303 C302 1.434 . S
C304 C305 1.369 . S
C304 C306 1.419 . S
C304 H308 0.930 . S
C305 C304 1.369 . S
C305 C314 1.429 . S
C306 C304 1.419 . S
C306 C307 1.363 . S
C306 H309 0.929 . S
C307 C306 1.363 . S
C307 C313 1.428 . S
H308 C304 0.930 . S
H309 C306 0.929 . S
S310 N311 1.613 . S
S310 N312 1.610 . S
N311 S310 1.613 . S
N311 C314 1.350 . S
N312 S310 1.610 . S
N312 C313 1.351 . S
C313 C307 1.428 . S
C313 N312 1.351 . S
C313 C314 1.434 . S
C314 C305 1.429 . S
C314 N311 1.350 . S
C314 C313 1.434 . S
C315 C316 1.369 . S
C315 C317 1.419 . S
C315 H319 0.930 . S
C316 C315 1.369 . S
C316 C325 1.429 . S
C317 C315 1.419 . S
C317 C318 1.363 . S
C317 H320 0.929 . S
C318 C317 1.363 . S
C318 C324 1.428 . S
H319 C315 0.930 . S
H320 C317 0.929 . S
S321 N322 1.613 . S
S321 N323 1.610 . S
N322 S321 1.613 . S
N322 C325 1.350 . S
N323 S321 1.610 . S
N323 C324 1.351 . S
C324 C318 1.428 . S
C324 N323 1.351 . S
C324 C325 1.434 . S
C325 C316 1.429 . S
C325 N322 1.350 . S
C325 C324 1.434 . S
C326 C327 1.369 . S
C326 C328 1.419 . S
C326 H330 0.930 . S
C327 C326 1.369 . S
C327 C336 1.429 . S
C328 C326 1.419 . S
C328 C329 1.363 . S
C328 H331 0.929 . S
C329 C328 1.363 . S
C329 C335 1.428 . S
H330 C326 0.930 . S
H331 C328 0.929 . S
S332 N333 1.613 . S
S332 N334 1.610 . S
N333 S332 1.613 . S
N333 C336 1.350 . S
N334 S332 1.610 . S
N334 C335 1.351 . S
C335 C329 1.428 . S
C335 N334 1.351 . S
C335 C336 1.434 . S
C336 C327 1.429 . S
C336 N333 1.350 . S
C336 C335 1.434 . S
C337 C338 1.369 . S
C337 C339 1.419 . S
C337 H341 0.930 . S
C338 C337 1.369 . S
C338 C347 1.429 . S
C339 C337 1.419 . S
C339 C340 1.363 . S
C339 H342 0.929 . S
C340 C339 1.363 . S
C340 C346 1.428 . S
H341 C337 0.930 . S
H342 C339 0.929 . S
S343 N344 1.613 . S
S343 N345 1.610 . S
N344 S343 1.613 . S
N344 C347 1.350 . S
N345 S343 1.610 . S
N345 C346 1.351 . S
C346 C340 1.428 . S
C346 N345 1.351 . S
C346 C347 1.434 . S
C347 C338 1.429 . S
C347 N344 1.350 . S
C347 C346 1.434 . S
C348 C349 1.369 . S
C348 C350 1.419 . S
C348 H352 0.930 . S
C349 C348 1.369 . S
C349 C358 1.429 . S
C350 C348 1.419 . S
C350 C351 1.363 . S
C350 H353 0.929 . S
C351 C350 1.363 . S
C351 C357 1.428 . S
H352 C348 0.930 . S
H353 C350 0.929 . S
S354 N355 1.613 . S
S354 N356 1.610 . S
N355 S354 1.613 . S
N355 C358 1.350 . S
N356 S354 1.610 . S
N356 C357 1.351 . S
C357 C351 1.428 . S
C357 N356 1.351 . S
C357 C358 1.434 . S
C358 C349 1.429 . S
C358 N355 1.350 . S
C358 C357 1.434 . S
C359 C360 1.369 . S
C359 C361 1.419 . S
C359 H363 0.930 . S
C360 C359 1.369 . S
C360 C369 1.429 . S
C361 C359 1.419 . S
C361 C362 1.363 . S
C361 H364 0.929 . S
C362 C361 1.363 . S
C362 C368 1.428 . S
H363 C359 0.930 . S
H364 C361 0.929 . S
S365 N366 1.613 . S
S365 N367 1.610 . S
N366 S365 1.613 . S
N366 C369 1.350 . S
N367 S365 1.610 . S
N367 C368 1.351 . S
C368 C362 1.428 . S
C368 N367 1.351 . S
C368 C369 1.434 . S
C369 C360 1.429 . S
C369 N366 1.350 . S
C369 C368 1.434 . S
C370 C371 1.369 . S
C370 C372 1.419 . S
C370 H374 0.930 . S
C371 C370 1.369 . S
C371 C380 1.429 . S
C372 C370 1.419 . S
C372 C373 1.363 . S
C372 H375 0.929 . S
C373 C372 1.363 . S
C373 C379 1.428 . S
H374 C370 0.930 . S
H375 C372 0.929 . S
S376 N377 1.613 . S
S376 N378 1.610 . S
N377 S376 1.613 . S
N377 C380 1.350 . S
N378 S376 1.610 . S
N378 C379 1.351 . S
C379 C373 1.428 . S
C379 N378 1.351 . S
C379 C380 1.434 . S
C380 C371 1.429 . S
C380 N377 1.350 . S
C380 C379 1.434 . S
C381 C382 1.369 . S
C381 C383 1.419 . S
C381 H385 0.930 . S
C382 C381 1.369 . S
C382 C391 1.429 . S
C383 C381 1.419 . S
C383 C384 1.363 . S
C383 H386 0.929 . S
C384 C383 1.363 . S
C384 C390 1.428 . S
H385 C381 0.930 . S
H386 C383 0.929 . S
S387 N388 1.613 . S
S387 N389 1.610 . S
N388 S387 1.613 . S
N388 C391 1.350 . S
N389 S387 1.610 . S
N389 C390 1.351 . S
C390 C384 1.428 . S
C390 N389 1.351 . S
C390 C391 1.434 . S
C391 C382 1.429 . S
C391 N388 1.350 . S
C391 C390 1.434 . S
C392 C393 1.369 . S
C392 C394 1.419 . S
C392 H396 0.930 . S
C393 C392 1.369 . S
C393 C402 1.429 . S
C394 C392 1.419 . S
C394 C395 1.363 . S
C394 H397 0.929 . S
C395 C394 1.363 . S
C395 C401 1.428 . S
H396 C392 0.930 . S
H397 C394 0.929 . S
S398 N399 1.613 . S
S398 N400 1.610 . S
N399 S398 1.613 . S
N399 C402 1.350 . S
N400 S398 1.610 . S
N400 C401 1.351 . S
C401 C395 1.428 . S
C401 N400 1.351 . S
C401 C402 1.434 . S
C402 C393 1.429 . S
C402 N399 1.350 . S
C402 C401 1.434 . S
C403 C404 1.369 . S
C403 C405 1.419 . S
C403 H407 0.930 . S
C404 C403 1.369 . S
C404 C413 1.431 . S
C405 C403 1.419 . S
C405 C406 1.363 . S
C405 H408 0.929 . S
C406 C405 1.363 . S
C406 C412 1.428 . S
H407 C403 0.930 . S
H408 C405 0.929 . S
S409 N410 1.613 . S
S409 N411 1.610 1_556 S
N410 S409 1.613 . S
N410 C413 1.340 1_556 S
N411 S409 1.610 1_554 S
N411 C412 1.351 . S
C412 C406 1.428 . S
C412 N411 1.351 . S
C412 C413 1.442 . S
C413 C404 1.431 . S
C413 N410 1.340 1_554 S
C413 C412 1.442 . S
C414 C415 1.369 . S
C414 C416 1.419 . S
C414 H418 0.930 . S
C415 C414 1.369 . S
C415 C424 1.429 . S
C416 C414 1.419 . S
C416 C417 1.363 . S
C416 H419 0.929 . S
C417 C416 1.363 . S
C417 C423 1.428 . S
H418 C414 0.930 . S
H419 C416 0.929 . S
S420 N421 1.613 . S
S420 N422 1.610 . S
N421 S420 1.613 . S
N421 C424 1.350 . S
N422 S420 1.610 . S
N422 C423 1.351 . S
C423 C417 1.428 . S
C423 N422 1.351 . S
C423 C424 1.434 . S
C424 C415 1.429 . S
C424 N421 1.350 . S
C424 C423 1.434 . S
C425 C426 1.369 . S
C425 C427 1.419 . S
C425 H429 0.930 . S
C426 C425 1.369 . S
C426 C435 1.429 . S
C427 C425 1.419 . S
C427 C428 1.363 . S
C427 H430 0.929 . S
C428 C427 1.363 . S
C428 C434 1.428 . S
H429 C425 0.930 . S
H430 C427 0.929 . S
S431 N432 1.613 1_554 S
S431 N433 1.610 1_554 S
N432 S431 1.613 1_556 S
N432 C435 1.350 . S
N433 S431 1.610 1_556 S
N433 C434 1.351 . S
C434 C428 1.428 . S
C434 N433 1.351 . S
C434 C435 1.434 . S
C435 C426 1.429 . S
C435 N432 1.350 . S
C435 C434 1.434 . S
C175 C100 1.511 . S
C173 N4 1.508 . S
C186 C103 1.665 . S
C184 C17 1.678 . S
C197 C101 1.434 . S
C195 C28 1.441 . S
C208 C102 1.508 . S
C206 C39 1.534 . S
C219 C117 1.695 . S
C217 C6 1.705 . S
C230 C131 1.651 . S
C228 C20 1.637 . S
C239 C31 1.586 . S
C241 C157 1.587 . S
C252 C171 1.428 . S
C250 N37 1.420 . S
C263 C116 1.633 . S
C261 N15 1.614 . S
C272 N26 1.482 . S
C274 C130 1.458 . S
C285 C156 1.587 . S
C283 C42 1.574 . S
C296 C170 1.571 . S
C294 C9 1.570 . S
C305 C53 1.719 . S
C307 C115 1.711 . S
C318 C88 1.587 . S
C316 C64 1.586 . S
C327 N70 1.554 . S
C329 C114 1.544 . S
C338 C83 1.520 . S
C340 C89 1.543 . S
C351 C144 1.502 . S
C349 N48 1.497 . S
C362 C158 1.581 . S
C360 C61 1.585 . S
C373 C128 1.580 . S
C371 C72 1.592 . S
C382 N81 1.605 . S
C384 C142 1.588 . S
C395 C145 1.552 . S
C393 N59 1.530 . S
C406 C159 1.592 . S
C404 C75 1.566 1_554 S
C417 C129 1.592 . S
C415 C86 1.601 . S
C426 C50 1.679 . S
C428 C143 1.664 . S
