# Generated by pormake.
# Topology tbo, (3,4)-cn, num edge types: 1
# Building blocks:
#     Node 0, Type 0, BuildingBlock: CUQRIR_clean_linker_1, # of connection points: 3
#     Node 1, Type 0, BuildingBlock: CUQRIR_clean_linker_1, # of connection points: 3
#     Node 2, Type 0, BuildingBlock: CUQRIR_clean_linker_1, # of connection points: 3
#     Node 3, Type 0, BuildingBlock: CUQRIR_clean_linker_1, # of connection points: 3
#     Node 4, Type 0, BuildingBlock: CUQRIR_clean_linker_1, # of connection points: 3
#     Node 5, Type 0, BuildingBlock: CUQRIR_clean_linker_1, # of connection points: 3
#     Node 6, Type 0, BuildingBlock: CUQRIR_clean_linker_1, # of connection points: 3
#     Node 7, Type 0, BuildingBlock: CUQRIR_clean_linker_1, # of connection points: 3
#     Node 8, Type 0, BuildingBlock: CUQRIR_clean_linker_1, # of connection points: 3
#     Node 9, Type 0, BuildingBlock: CUQRIR_clean_linker_1, # of connection points: 3
#     Node 10, Type 0, BuildingBlock: CUQRIR_clean_linker_1, # of connection points: 3
#     Node 11, Type 0, BuildingBlock: CUQRIR_clean_linker_1, # of connection points: 3
#     Node 12, Type 0, BuildingBlock: CUQRIR_clean_linker_1, # of connection points: 3
#     Node 13, Type 0, BuildingBlock: CUQRIR_clean_linker_1, # of connection points: 3
#     Node 14, Type 0, BuildingBlock: CUQRIR_clean_linker_1, # of connection points: 3
#     Node 15, Type 0, BuildingBlock: CUQRIR_clean_linker_1, # of connection points: 3
#     Node 16, Type 0, BuildingBlock: CUQRIR_clean_linker_1, # of connection points: 3
#     Node 17, Type 0, BuildingBlock: CUQRIR_clean_linker_1, # of connection points: 3
#     Node 18, Type 0, BuildingBlock: CUQRIR_clean_linker_1, # of connection points: 3
#     Node 19, Type 0, BuildingBlock: CUQRIR_clean_linker_1, # of connection points: 3
#     Node 20, Type 0, BuildingBlock: CUQRIR_clean_linker_1, # of connection points: 3
#     Node 21, Type 0, BuildingBlock: CUQRIR_clean_linker_1, # of connection points: 3
#     Node 22, Type 0, BuildingBlock: CUQRIR_clean_linker_1, # of connection points: 3
#     Node 23, Type 0, BuildingBlock: CUQRIR_clean_linker_1, # of connection points: 3
#     Node 24, Type 0, BuildingBlock: CUQRIR_clean_linker_1, # of connection points: 3
#     Node 25, Type 0, BuildingBlock: CUQRIR_clean_linker_1, # of connection points: 3
#     Node 26, Type 0, BuildingBlock: CUQRIR_clean_linker_1, # of connection points: 3
#     Node 27, Type 0, BuildingBlock: CUQRIR_clean_linker_1, # of connection points: 3
#     Node 28, Type 0, BuildingBlock: CUQRIR_clean_linker_1, # of connection points: 3
#     Node 29, Type 0, BuildingBlock: CUQRIR_clean_linker_1, # of connection points: 3
#     Node 30, Type 0, BuildingBlock: CUQRIR_clean_linker_1, # of connection points: 3
#     Node 31, Type 0, BuildingBlock: CUQRIR_clean_linker_1, # of connection points: 3
#     Node 32, Type 1, BuildingBlock: ESEHIV_clean_sbu_0, # of connection points: 4
#     Node 33, Type 1, BuildingBlock: ESEHIV_clean_sbu_0, # of connection points: 4
#     Node 34, Type 1, BuildingBlock: ESEHIV_clean_sbu_0, # of connection points: 4
#     Node 35, Type 1, BuildingBlock: ESEHIV_clean_sbu_0, # of connection points: 4
#     Node 36, Type 1, BuildingBlock: ESEHIV_clean_sbu_0, # of connection points: 4
#     Node 37, Type 1, BuildingBlock: ESEHIV_clean_sbu_0, # of connection points: 4
#     Node 38, Type 1, BuildingBlock: ESEHIV_clean_sbu_0, # of connection points: 4
#     Node 39, Type 1, BuildingBlock: ESEHIV_clean_sbu_0, # of connection points: 4
#     Node 40, Type 1, BuildingBlock: ESEHIV_clean_sbu_0, # of connection points: 4
#     Node 41, Type 1, BuildingBlock: ESEHIV_clean_sbu_0, # of connection points: 4
#     Node 42, Type 1, BuildingBlock: ESEHIV_clean_sbu_0, # of connection points: 4
#     Node 43, Type 1, BuildingBlock: ESEHIV_clean_sbu_0, # of connection points: 4
#     Node 44, Type 1, BuildingBlock: ESEHIV_clean_sbu_0, # of connection points: 4
#     Node 45, Type 1, BuildingBlock: ESEHIV_clean_sbu_0, # of connection points: 4
#     Node 46, Type 1, BuildingBlock: ESEHIV_clean_sbu_0, # of connection points: 4
#     Node 47, Type 1, BuildingBlock: ESEHIV_clean_sbu_0, # of connection points: 4
#     Node 48, Type 1, BuildingBlock: ESEHIV_clean_sbu_0, # of connection points: 4
#     Node 49, Type 1, BuildingBlock: ESEHIV_clean_sbu_0, # of connection points: 4
#     Node 50, Type 1, BuildingBlock: ESEHIV_clean_sbu_0, # of connection points: 4
#     Node 51, Type 1, BuildingBlock: ESEHIV_clean_sbu_0, # of connection points: 4
#     Node 52, Type 1, BuildingBlock: ESEHIV_clean_sbu_0, # of connection points: 4
#     Node 53, Type 1, BuildingBlock: ESEHIV_clean_sbu_0, # of connection points: 4
#     Node 54, Type 1, BuildingBlock: ESEHIV_clean_sbu_0, # of connection points: 4
#     Node 55, Type 1, BuildingBlock: ESEHIV_clean_sbu_0, # of connection points: 4
#     Edge 56, Type (0, 1), BuildingBlock: XUDNAN_clean_linker_2, # of connection points: 2
#     Edge 57, Type (0, 1), BuildingBlock: XUDNAN_clean_linker_2, # of connection points: 2
#     Edge 58, Type (0, 1), BuildingBlock: XUDNAN_clean_linker_2, # of connection points: 2
#     Edge 59, Type (0, 1), BuildingBlock: XUDNAN_clean_linker_2, # of connection points: 2
#     Edge 60, Type (0, 1), BuildingBlock: XUDNAN_clean_linker_2, # of connection points: 2
#     Edge 61, Type (0, 1), BuildingBlock: XUDNAN_clean_linker_2, # of connection points: 2
#     Edge 62, Type (0, 1), BuildingBlock: XUDNAN_clean_linker_2, # of connection points: 2
#     Edge 63, Type (0, 1), BuildingBlock: XUDNAN_clean_linker_2, # of connection points: 2
#     Edge 64, Type (0, 1), BuildingBlock: XUDNAN_clean_linker_2, # of connection points: 2
#     Edge 65, Type (0, 1), BuildingBlock: XUDNAN_clean_linker_2, # of connection points: 2
#     Edge 66, Type (0, 1), BuildingBlock: XUDNAN_clean_linker_2, # of connection points: 2
#     Edge 67, Type (0, 1), BuildingBlock: XUDNAN_clean_linker_2, # of connection points: 2
#     Edge 68, Type (0, 1), BuildingBlock: XUDNAN_clean_linker_2, # of connection points: 2
#     Edge 69, Type (0, 1), BuildingBlock: XUDNAN_clean_linker_2, # of connection points: 2
#     Edge 70, Type (0, 1), BuildingBlock: XUDNAN_clean_linker_2, # of connection points: 2
#     Edge 71, Type (0, 1), BuildingBlock: XUDNAN_clean_linker_2, # of connection points: 2
#     Edge 72, Type (0, 1), BuildingBlock: XUDNAN_clean_linker_2, # of connection points: 2
#     Edge 73, Type (0, 1), BuildingBlock: XUDNAN_clean_linker_2, # of connection points: 2
#     Edge 74, Type (0, 1), BuildingBlock: XUDNAN_clean_linker_2, # of connection points: 2
#     Edge 75, Type (0, 1), BuildingBlock: XUDNAN_clean_linker_2, # of connection points: 2
#     Edge 76, Type (0, 1), BuildingBlock: XUDNAN_clean_linker_2, # of connection points: 2
#     Edge 77, Type (0, 1), BuildingBlock: XUDNAN_clean_linker_2, # of connection points: 2
#     Edge 78, Type (0, 1), BuildingBlock: XUDNAN_clean_linker_2, # of connection points: 2
#     Edge 79, Type (0, 1), BuildingBlock: XUDNAN_clean_linker_2, # of connection points: 2
#     Edge 80, Type (0, 1), BuildingBlock: XUDNAN_clean_linker_2, # of connection points: 2
#     Edge 81, Type (0, 1), BuildingBlock: XUDNAN_clean_linker_2, # of connection points: 2
#     Edge 82, Type (0, 1), BuildingBlock: XUDNAN_clean_linker_2, # of connection points: 2
#     Edge 83, Type (0, 1), BuildingBlock: XUDNAN_clean_linker_2, # of connection points: 2
#     Edge 84, Type (0, 1), BuildingBlock: XUDNAN_clean_linker_2, # of connection points: 2
#     Edge 85, Type (0, 1), BuildingBlock: XUDNAN_clean_linker_2, # of connection points: 2
#     Edge 86, Type (0, 1), BuildingBlock: XUDNAN_clean_linker_2, # of connection points: 2
#     Edge 87, Type (0, 1), BuildingBlock: XUDNAN_clean_linker_2, # of connection points: 2
#     Edge 88, Type (0, 1), BuildingBlock: XUDNAN_clean_linker_2, # of connection points: 2
#     Edge 89, Type (0, 1), BuildingBlock: XUDNAN_clean_linker_2, # of connection points: 2
#     Edge 90, Type (0, 1), BuildingBlock: XUDNAN_clean_linker_2, # of connection points: 2
#     Edge 91, Type (0, 1), BuildingBlock: XUDNAN_clean_linker_2, # of connection points: 2
#     Edge 92, Type (0, 1), BuildingBlock: XUDNAN_clean_linker_2, # of connection points: 2
#     Edge 93, Type (0, 1), BuildingBlock: XUDNAN_clean_linker_2, # of connection points: 2
#     Edge 94, Type (0, 1), BuildingBlock: XUDNAN_clean_linker_2, # of connection points: 2
#     Edge 95, Type (0, 1), BuildingBlock: XUDNAN_clean_linker_2, # of connection points: 2
#     Edge 96, Type (0, 1), BuildingBlock: XUDNAN_clean_linker_2, # of connection points: 2
#     Edge 97, Type (0, 1), BuildingBlock: XUDNAN_clean_linker_2, # of connection points: 2
#     Edge 98, Type (0, 1), BuildingBlock: XUDNAN_clean_linker_2, # of connection points: 2
#     Edge 99, Type (0, 1), BuildingBlock: XUDNAN_clean_linker_2, # of connection points: 2
#     Edge 100, Type (0, 1), BuildingBlock: XUDNAN_clean_linker_2, # of connection points: 2
#     Edge 101, Type (0, 1), BuildingBlock: XUDNAN_clean_linker_2, # of connection points: 2
#     Edge 102, Type (0, 1), BuildingBlock: XUDNAN_clean_linker_2, # of connection points: 2
#     Edge 103, Type (0, 1), BuildingBlock: XUDNAN_clean_linker_2, # of connection points: 2
#     Edge 104, Type (0, 1), BuildingBlock: XUDNAN_clean_linker_2, # of connection points: 2
#     Edge 105, Type (0, 1), BuildingBlock: XUDNAN_clean_linker_2, # of connection points: 2
#     Edge 106, Type (0, 1), BuildingBlock: XUDNAN_clean_linker_2, # of connection points: 2
#     Edge 107, Type (0, 1), BuildingBlock: XUDNAN_clean_linker_2, # of connection points: 2
#     Edge 108, Type (0, 1), BuildingBlock: XUDNAN_clean_linker_2, # of connection points: 2
#     Edge 109, Type (0, 1), BuildingBlock: XUDNAN_clean_linker_2, # of connection points: 2
#     Edge 110, Type (0, 1), BuildingBlock: XUDNAN_clean_linker_2, # of connection points: 2
#     Edge 111, Type (0, 1), BuildingBlock: XUDNAN_clean_linker_2, # of connection points: 2
#     Edge 112, Type (0, 1), BuildingBlock: XUDNAN_clean_linker_2, # of connection points: 2
#     Edge 113, Type (0, 1), BuildingBlock: XUDNAN_clean_linker_2, # of connection points: 2
#     Edge 114, Type (0, 1), BuildingBlock: XUDNAN_clean_linker_2, # of connection points: 2
#     Edge 115, Type (0, 1), BuildingBlock: XUDNAN_clean_linker_2, # of connection points: 2
#     Edge 116, Type (0, 1), BuildingBlock: XUDNAN_clean_linker_2, # of connection points: 2
#     Edge 117, Type (0, 1), BuildingBlock: XUDNAN_clean_linker_2, # of connection points: 2
#     Edge 118, Type (0, 1), BuildingBlock: XUDNAN_clean_linker_2, # of connection points: 2
#     Edge 119, Type (0, 1), BuildingBlock: XUDNAN_clean_linker_2, # of connection points: 2
#     Edge 120, Type (0, 1), BuildingBlock: XUDNAN_clean_linker_2, # of connection points: 2
#     Edge 121, Type (0, 1), BuildingBlock: XUDNAN_clean_linker_2, # of connection points: 2
#     Edge 122, Type (0, 1), BuildingBlock: XUDNAN_clean_linker_2, # of connection points: 2
#     Edge 123, Type (0, 1), BuildingBlock: XUDNAN_clean_linker_2, # of connection points: 2
#     Edge 124, Type (0, 1), BuildingBlock: XUDNAN_clean_linker_2, # of connection points: 2
#     Edge 125, Type (0, 1), BuildingBlock: XUDNAN_clean_linker_2, # of connection points: 2
#     Edge 126, Type (0, 1), BuildingBlock: XUDNAN_clean_linker_2, # of connection points: 2
#     Edge 127, Type (0, 1), BuildingBlock: XUDNAN_clean_linker_2, # of connection points: 2
#     Edge 128, Type (0, 1), BuildingBlock: XUDNAN_clean_linker_2, # of connection points: 2
#     Edge 129, Type (0, 1), BuildingBlock: XUDNAN_clean_linker_2, # of connection points: 2
#     Edge 130, Type (0, 1), BuildingBlock: XUDNAN_clean_linker_2, # of connection points: 2
#     Edge 131, Type (0, 1), BuildingBlock: XUDNAN_clean_linker_2, # of connection points: 2
#     Edge 132, Type (0, 1), BuildingBlock: XUDNAN_clean_linker_2, # of connection points: 2
#     Edge 133, Type (0, 1), BuildingBlock: XUDNAN_clean_linker_2, # of connection points: 2
#     Edge 134, Type (0, 1), BuildingBlock: XUDNAN_clean_linker_2, # of connection points: 2
#     Edge 135, Type (0, 1), BuildingBlock: XUDNAN_clean_linker_2, # of connection points: 2
#     Edge 136, Type (0, 1), BuildingBlock: XUDNAN_clean_linker_2, # of connection points: 2
#     Edge 137, Type (0, 1), BuildingBlock: XUDNAN_clean_linker_2, # of connection points: 2
#     Edge 138, Type (0, 1), BuildingBlock: XUDNAN_clean_linker_2, # of connection points: 2
#     Edge 139, Type (0, 1), BuildingBlock: XUDNAN_clean_linker_2, # of connection points: 2
#     Edge 140, Type (0, 1), BuildingBlock: XUDNAN_clean_linker_2, # of connection points: 2
#     Edge 141, Type (0, 1), BuildingBlock: XUDNAN_clean_linker_2, # of connection points: 2
#     Edge 142, Type (0, 1), BuildingBlock: XUDNAN_clean_linker_2, # of connection points: 2
#     Edge 143, Type (0, 1), BuildingBlock: XUDNAN_clean_linker_2, # of connection points: 2
#     Edge 144, Type (0, 1), BuildingBlock: XUDNAN_clean_linker_2, # of connection points: 2
#     Edge 145, Type (0, 1), BuildingBlock: XUDNAN_clean_linker_2, # of connection points: 2
#     Edge 146, Type (0, 1), BuildingBlock: XUDNAN_clean_linker_2, # of connection points: 2
#     Edge 147, Type (0, 1), BuildingBlock: XUDNAN_clean_linker_2, # of connection points: 2
#     Edge 148, Type (0, 1), BuildingBlock: XUDNAN_clean_linker_2, # of connection points: 2
#     Edge 149, Type (0, 1), BuildingBlock: XUDNAN_clean_linker_2, # of connection points: 2
#     Edge 150, Type (0, 1), BuildingBlock: XUDNAN_clean_linker_2, # of connection points: 2
#     Edge 151, Type (0, 1), BuildingBlock: XUDNAN_clean_linker_2, # of connection points: 2
# Relax obj value: 0.020
# Max RMSD: 0.192
# Mean RMSD: 0.117
data_MOF--net-tbo--node1-ESEHIV_clean_sbu_0--node2-CUQRIR_clean_linker_1--edge1-XUDNAN_clean_linker_2
_symmetry_space_group_name_H-M    P1
_symmetry_Int_Tables_number       1
_symmetry_cell_setting            triclinic
loop_
_symmetry_equiv_pos_as_xyz
'x, y, z'
_cell_length_a     67.378083
_cell_length_b     68.137449
_cell_length_c     65.685526
_cell_angle_alpha  87.076606
_cell_angle_beta   95.572765
_cell_angle_gamma 95.51599
loop_
_atom_site_label
_atom_site_type_symbol
_atom_site_fract_x
_atom_site_fract_y
_atom_site_fract_z
_atom_type_partial_charge
C0 C 0.17979 0.16514 0.21777 0.0
N1 N 0.19414 0.16542 0.20465 0.0
N2 N 0.16839 0.18043 0.21355 0.0
C3 C 0.17639 0.14933 0.23428 0.0
C4 C 0.17648 0.19019 0.19733 0.0
N5 N 0.19221 0.18111 0.19183 0.0
C6 C 0.16782 0.20744 0.18568 0.0
H7 H 0.16856 0.13593 0.22718 0.0
H8 H 0.16722 0.1542 0.24589 0.0
H9 H 0.19085 0.14527 0.24208 0.0
H10 H 0.17594 0.22129 0.19145 0.0
H11 H 0.15172 0.20771 0.18782 0.0
H12 H 0.16961 0.20697 0.1691 0.0
C13 C 0.85541 0.17741 0.17335 0.0
N14 N 0.87217 0.17468 0.18606 0.0
N15 N 0.85857 0.19355 0.16068 0.0
C16 C 0.83607 0.16436 0.1733 0.0
C17 C 0.87784 0.20031 0.16587 0.0
N18 N 0.88608 0.18884 0.18115 0.0
C19 C 0.88858 0.21819 0.15594 0.0
H20 H 0.83912 0.14864 0.17558 0.0
H21 H 0.82625 0.1663 0.15897 0.0
H22 H 0.82781 0.1682 0.18612 0.0
H23 H 0.88493 0.2316 0.16317 0.0
H24 H 0.8836 0.21945 0.13936 0.0
H25 H 0.90504 0.21778 0.15784 0.0
C26 C 0.88954 0.87226 0.19769 0.0
N27 N 0.89252 0.85596 0.18767 0.0
N28 N 0.87288 0.88041 0.18928 0.0
C29 C 0.90272 0.88005 0.21592 0.0
C30 C 0.8657 0.8684 0.17391 0.0
N31 N 0.87744 0.85338 0.17307 0.0
C32 C 0.84699 0.87116 0.15993 0.0
H33 H 0.90784 0.8677 0.22614 0.0
H34 H 0.89507 0.88988 0.22486 0.0
H35 H 0.9161 0.88876 0.21049 0.0
H36 H 0.84347 0.88673 0.15869 0.0
H37 H 0.83417 0.86221 0.16621 0.0
H38 H 0.8485 0.86616 0.14438 0.0
C39 C 0.21198 0.82066 0.16594 0.0
N40 N 0.22701 0.8351 0.16392 0.0
N41 N 0.19897 0.82593 0.17877 0.0
C42 C 0.20941 0.80191 0.15446 0.0
C43 C 0.20668 0.84426 0.18432 0.0
N44 N 0.22365 0.84988 0.17516 0.0
C45 C 0.19867 0.85591 0.20005 0.0
H46 H 0.1934 0.79621 0.15219 0.0
H47 H 0.21782 0.7906 0.16337 0.0
H48 H 0.21548 0.80436 0.13933 0.0
H49 H 0.21083 0.86546 0.20822 0.0
H50 H 0.19103 0.84599 0.21136 0.0
H51 H 0.18765 0.86552 0.19218 0.0
C52 C 0.18241 0.86065 0.85525 0.0
N53 N 0.20135 0.86717 0.86219 0.0
N54 N 0.17863 0.86592 0.83515 0.0
C55 C 0.16836 0.84746 0.86757 0.0
C56 C 0.1961 0.87566 0.83012 0.0
N57 N 0.20993 0.87625 0.84651 0.0
C58 C 0.19929 0.88568 0.80961 0.0
H59 H 0.17678 0.83845 0.87935 0.0
H60 H 0.15824 0.83745 0.85758 0.0
H61 H 0.15912 0.85675 0.87548 0.0
H62 H 0.20986 0.89915 0.81135 0.0
H63 H 0.18493 0.88973 0.80153 0.0
H64 H 0.2059 0.87544 0.80012 0.0
C65 C 0.22008 0.16114 0.85393 0.0
N66 N 0.21755 0.17234 0.86979 0.0
N67 N 0.23548 0.14981 0.85867 0.0
C68 C 0.207 0.16076 0.83404 0.0
C69 C 0.24216 0.15443 0.87815 0.0
N70 N 0.23111 0.16795 0.88504 0.0
C71 C 0.25881 0.14498 0.89088 0.0
H72 H 0.19349 0.1504 0.8359 0.0
H73 H 0.21501 0.15574 0.82155 0.0
H74 H 0.20201 0.1756 0.82978 0.0
H75 H 0.26977 0.13979 0.88138 0.0
H76 H 0.25228 0.13199 0.89963 0.0
H77 H 0.26685 0.15548 0.90189 0.0
C78 C 0.88259 0.19313 0.84702 0.0
N79 N 0.89291 0.18814 0.83159 0.0
N80 N 0.88968 0.21121 0.85372 0.0
C81 C 0.86696 0.1796 0.85686 0.0
C82 C 0.90466 0.21692 0.84171 0.0
N83 N 0.90667 0.20297 0.82829 0.0
C84 C 0.91805 0.23584 0.84368 0.0
H85 H 0.85529 0.18804 0.86207 0.0
H86 H 0.87422 0.17186 0.87045 0.0
H87 H 0.85975 0.16843 0.8461 0.0
H88 H 0.93174 0.23311 0.85384 0.0
H89 H 0.91033 0.24733 0.85033 0.0
H90 H 0.92275 0.24123 0.82849 0.0
C91 C 0.85276 0.87967 0.85411 0.0
N92 N 0.86406 0.8647 0.86061 0.0
N93 N 0.85887 0.88854 0.83658 0.0
C94 C 0.83559 0.88551 0.86491 0.0
C95 C 0.87428 0.87833 0.83253 0.0
N96 N 0.8773 0.86356 0.84697 0.0
C97 C 0.88644 0.88296 0.81454 0.0
H98 H 0.82625 0.87218 0.86998 0.0
H99 H 0.82599 0.89527 0.85526 0.0
H100 H 0.84167 0.89363 0.8787 0.0
H101 H 0.88579 0.89845 0.80876 0.0
H102 H 0.8803 0.87329 0.8019 0.0
H103 H 0.90232 0.88023 0.81872 0.0
C104 C 0.18938 0.69031 0.70235 0.0
N105 N 0.20368 0.69022 0.68911 0.0
N106 N 0.17769 0.70533 0.69748 0.0
C107 C 0.18831 0.67719 0.72138 0.0
C108 C 0.18554 0.71443 0.68085 0.0
N109 N 0.20142 0.70543 0.6758 0.0
C110 C 0.17749 0.73214 0.66949 0.0
H111 H 0.17266 0.67431 0.72539 0.0
H112 H 0.19731 0.68471 0.73426 0.0
H113 H 0.19449 0.66296 0.71939 0.0
H114 H 0.1851 0.74576 0.6763 0.0
H115 H 0.16118 0.73209 0.67081 0.0
H116 H 0.18024 0.7324 0.65309 0.0
C117 C 0.8625 0.67738 0.64609 0.0
N118 N 0.87706 0.6793 0.66183 0.0
N119 N 0.86234 0.69426 0.63423 0.0
C120 C 0.84857 0.6591 0.64202 0.0
C121 C 0.8774 0.70639 0.64326 0.0
N122 N 0.88633 0.69729 0.65992 0.0
C123 C 0.88378 0.72702 0.63565 0.0
H124 H 0.85455 0.65065 0.63035 0.0
H125 H 0.83352 0.66313 0.63583 0.0
H126 H 0.84716 0.64934 0.65589 0.0
H127 H 0.87544 0.73759 0.64296 0.0
H128 H 0.88058 0.7287 0.61879 0.0
H129 H 0.90001 0.73079 0.63981 0.0
C130 C 0.90404 0.37512 0.70522 0.0
N131 N 0.90895 0.35966 0.69507 0.0
N132 N 0.88692 0.38208 0.69626 0.0
C133 C 0.91722 0.38491 0.72237 0.0
C134 C 0.88172 0.37031 0.68019 0.0
N135 N 0.89509 0.35679 0.67938 0.0
C136 C 0.86335 0.37165 0.6654 0.0
H137 H 0.91279 0.3783 0.73723 0.0
H138 H 0.91562 0.40098 0.72206 0.0
H139 H 0.9332 0.38275 0.72134 0.0
H140 H 0.86733 0.3812 0.65195 0.0
H141 H 0.85136 0.37804 0.67262 0.0
H142 H 0.85763 0.35686 0.65988 0.0
C143 C 0.22153 0.35119 0.67886 0.0
N144 N 0.23604 0.36649 0.67876 0.0
N145 N 0.20994 0.35239 0.69443 0.0
C146 C 0.21731 0.33625 0.66249 0.0
C147 C 0.21778 0.36911 0.70368 0.0
N148 N 0.23345 0.37777 0.69407 0.0
C149 C 0.21083 0.37654 0.72274 0.0
H150 H 0.2216 0.3427 0.64751 0.0
H151 H 0.20121 0.3308 0.66081 0.0
H152 H 0.22615 0.32351 0.66678 0.0
H153 H 0.2234 0.38459 0.73198 0.0
H154 H 0.20417 0.3642 0.7323 0.0
H155 H 0.19932 0.38694 0.71826 0.0
C156 C 0.18222 0.35214 0.36801 0.0
N157 N 0.19924 0.3625 0.3754 0.0
N158 N 0.17705 0.35802 0.34837 0.0
C159 C 0.17009 0.33703 0.38036 0.0
C160 C 0.19151 0.37246 0.34414 0.0
N161 N 0.20502 0.37528 0.36068 0.0
C162 C 0.1933 0.38247 0.32337 0.0
H163 H 0.17537 0.3223 0.37878 0.0
H164 H 0.15395 0.33644 0.37484 0.0
H165 H 0.17198 0.34037 0.39683 0.0
H166 H 0.18601 0.39645 0.32265 0.0
H167 H 0.18573 0.37304 0.31112 0.0
H168 H 0.20925 0.38601 0.32055 0.0
C169 C 0.20734 0.65108 0.33055 0.0
N170 N 0.20597 0.6648 0.3445 0.0
N171 N 0.22139 0.63871 0.33737 0.0
C172 C 0.19564 0.65034 0.30986 0.0
C173 C 0.22848 0.64543 0.35602 0.0
N174 N 0.21939 0.6615 0.36025 0.0
C175 C 0.24295 0.63512 0.37086 0.0
H176 H 0.18198 0.64001 0.31097 0.0
H177 H 0.2046 0.64488 0.2984 0.0
H178 H 0.19093 0.66505 0.30457 0.0
H179 H 0.25847 0.64136 0.36872 0.0
H180 H 0.24182 0.61909 0.36817 0.0
H181 H 0.24001 0.63718 0.38691 0.0
C182 C 0.87311 0.67476 0.35263 0.0
N183 N 0.88179 0.66964 0.33615 0.0
N184 N 0.88304 0.69118 0.3608 0.0
C185 C 0.8541 0.66447 0.35985 0.0
C186 C 0.89802 0.69595 0.34857 0.0
N187 N 0.89713 0.683 0.33337 0.0
C188 C 0.91445 0.71228 0.35253 0.0
H189 H 0.84576 0.67478 0.36752 0.0
H190 H 0.85797 0.65228 0.37093 0.0
H191 H 0.84424 0.65801 0.3469 0.0
H192 H 0.91651 0.71571 0.36898 0.0
H193 H 0.91039 0.72576 0.34352 0.0
H194 H 0.92883 0.70821 0.34781 0.0
C195 C 0.86244 0.37196 0.36837 0.0
N196 N 0.86775 0.35396 0.37571 0.0
N197 N 0.87456 0.37971 0.35409 0.0
C198 C 0.84659 0.38284 0.37635 0.0
C199 C 0.8876 0.36591 0.35315 0.0
N200 N 0.88366 0.35039 0.36638 0.0
C201 C 0.90334 0.36692 0.33824 0.0
H202 H 0.83202 0.37889 0.36747 0.0
H203 H 0.85017 0.39903 0.37458 0.0
H204 H 0.84509 0.3788 0.39275 0.0
H205 H 0.91784 0.373 0.34596 0.0
H206 H 0.89942 0.37657 0.32462 0.0
H207 H 0.9053 0.35201 0.33312 0.0
C208 C 0.69601 0.18479 0.70283 0.0
N209 N 0.70991 0.18293 0.68956 0.0
N210 N 0.68564 0.20066 0.69743 0.0
C211 C 0.69121 0.16999 0.71989 0.0
C212 C 0.69376 0.20834 0.68029 0.0
N213 N 0.7084 0.19757 0.67544 0.0
C214 C 0.68739 0.22636 0.66817 0.0
H215 H 0.67521 0.16941 0.72275 0.0
H216 H 0.70047 0.17444 0.7341 0.0
H217 H 0.69466 0.15501 0.71635 0.0
H218 H 0.68009 0.23599 0.67774 0.0
H219 H 0.67663 0.22166 0.65507 0.0
H220 H 0.70046 0.23491 0.6619 0.0
C221 C 0.35493 0.18856 0.68504 0.0
N222 N 0.37173 0.18613 0.6977 0.0
N223 N 0.35786 0.20449 0.67211 0.0
C224 C 0.33523 0.17636 0.68631 0.0
C225 C 0.37704 0.21167 0.67734 0.0
N226 N 0.38538 0.20067 0.69303 0.0
C227 C 0.3883 0.22813 0.66577 0.0
H228 H 0.33458 0.16368 0.67624 0.0
H229 H 0.32255 0.1852 0.6811 0.0
H230 H 0.33358 0.17053 0.7022 0.0
H231 H 0.38659 0.24236 0.67262 0.0
H232 H 0.38237 0.22895 0.64943 0.0
H233 H 0.4045 0.22606 0.66669 0.0
C234 C 0.3923 0.86842 0.7134 0.0
N235 N 0.39594 0.85188 0.70421 0.0
N236 N 0.37542 0.87582 0.70441 0.0
C237 C 0.40389 0.876 0.73263 0.0
C238 C 0.36889 0.86303 0.68948 0.0
N239 N 0.38126 0.84849 0.6894 0.0
C240 C 0.35065 0.86486 0.67464 0.0
H241 H 0.41069 0.86389 0.74193 0.0
H242 H 0.39411 0.8831 0.74214 0.0
H243 H 0.41609 0.88712 0.72839 0.0
H244 H 0.35289 0.85903 0.65964 0.0
H245 H 0.34717 0.88045 0.67239 0.0
H246 H 0.33769 0.85599 0.68076 0.0
C247 C 0.70852 0.83649 0.65497 0.0
N248 N 0.72414 0.85003 0.65187 0.0
N249 N 0.69655 0.84312 0.6681 0.0
C250 C 0.70506 0.81662 0.64556 0.0
C251 C 0.70555 0.86126 0.67276 0.0
N252 N 0.72222 0.86549 0.66277 0.0
C253 C 0.69843 0.87463 0.68748 0.0
H254 H 0.69354 0.81738 0.63235 0.0
H255 H 0.6994 0.80525 0.6568 0.0
H256 H 0.71879 0.81204 0.63992 0.0
H257 H 0.70652 0.87222 0.70281 0.0
H258 H 0.68211 0.87152 0.68872 0.0
H259 H 0.7017 0.89033 0.68259 0.0
C260 C 0.65959 0.8524 0.343 0.0
N261 N 0.67742 0.86085 0.35115 0.0
N262 N 0.65322 0.86249 0.32571 0.0
C263 C 0.64914 0.83337 0.35082 0.0
C264 C 0.66782 0.87726 0.32343 0.0
N265 N 0.68264 0.87625 0.33888 0.0
C266 C 0.66685 0.89332 0.30688 0.0
H267 H 0.64016 0.82547 0.33817 0.0
H268 H 0.63882 0.83674 0.36208 0.0
H269 H 0.66007 0.82355 0.35846 0.0
H270 H 0.6511 0.89533 0.30118 0.0
H271 H 0.67468 0.88913 0.29388 0.0
H272 H 0.67429 0.9075 0.31256 0.0
C273 C 0.70078 0.16119 0.32782 0.0
N274 N 0.69962 0.17532 0.34146 0.0
N275 N 0.71712 0.15117 0.33289 0.0
C276 C 0.685 0.15591 0.31065 0.0
C277 C 0.72579 0.15958 0.35021 0.0
N278 N 0.71501 0.17399 0.35566 0.0
C279 C 0.7459 0.15512 0.36061 0.0
H280 H 0.66999 0.1591 0.31449 0.0
H281 H 0.68454 0.14005 0.30734 0.0
H282 H 0.68858 0.16477 0.29662 0.0
H283 H 0.754 0.16846 0.36756 0.0
H284 H 0.75534 0.14957 0.34963 0.0
H285 H 0.74366 0.14362 0.37296 0.0
C286 C 0.35962 0.18033 0.36937 0.0
N287 N 0.37082 0.17456 0.35511 0.0
N288 N 0.37005 0.19466 0.38076 0.0
C289 C 0.33824 0.17258 0.37149 0.0
C290 C 0.388 0.19735 0.37276 0.0
N291 N 0.38841 0.18521 0.35711 0.0
C292 C 0.40566 0.21063 0.3813 0.0
H293 H 0.32993 0.18385 0.37775 0.0
H294 H 0.33803 0.1594 0.38212 0.0
H295 H 0.33059 0.16806 0.3565 0.0
H296 H 0.40516 0.21233 0.39795 0.0
H297 H 0.40527 0.22541 0.37344 0.0
H298 H 0.41996 0.20474 0.37872 0.0
C299 C 0.34811 0.87022 0.36998 0.0
N300 N 0.3585 0.8543 0.37535 0.0
N301 N 0.34942 0.87575 0.35002 0.0
C302 C 0.33495 0.87914 0.38361 0.0
C303 C 0.3608 0.86247 0.34333 0.0
N304 N 0.36632 0.8494 0.35865 0.0
C305 C 0.36675 0.86241 0.32186 0.0
H306 H 0.32277 0.88643 0.37452 0.0
H307 H 0.34419 0.89039 0.39292 0.0
H308 H 0.32818 0.86773 0.39416 0.0
H309 H 0.36641 0.87729 0.31422 0.0
H310 H 0.35604 0.85194 0.31298 0.0
H311 H 0.38195 0.85742 0.32188 0.0
C312 C 0.67699 0.67321 0.21097 0.0
N313 N 0.6916 0.67552 0.19792 0.0
N314 N 0.66491 0.68821 0.20819 0.0
C315 C 0.67437 0.65607 0.22616 0.0
C316 C 0.67267 0.69965 0.1928 0.0
N317 N 0.68877 0.6919 0.18646 0.0
C318 C 0.66413 0.71803 0.18349 0.0
H319 H 0.67579 0.64204 0.21878 0.0
H320 H 0.65984 0.65521 0.23285 0.0
H321 H 0.68637 0.65773 0.23891 0.0
H322 H 0.67618 0.72882 0.17826 0.0
H323 H 0.65586 0.72515 0.1944 0.0
H324 H 0.65352 0.71402 0.17005 0.0
C325 C 0.34462 0.66674 0.15517 0.0
N326 N 0.35941 0.66437 0.17038 0.0
N327 N 0.34539 0.68573 0.14794 0.0
C328 C 0.33003 0.65045 0.14663 0.0
C329 C 0.36106 0.69483 0.15941 0.0
N330 N 0.36947 0.68191 0.17317 0.0
C331 C 0.36945 0.71587 0.15573 0.0
H332 H 0.33645 0.64398 0.13385 0.0
H333 H 0.3157 0.6562 0.14051 0.0
H334 H 0.32705 0.63866 0.15852 0.0
H335 H 0.3731 0.72323 0.17046 0.0
H336 H 0.35874 0.72442 0.14587 0.0
H337 H 0.38353 0.71596 0.14823 0.0
C338 C 0.39711 0.35673 0.21327 0.0
N339 N 0.40159 0.3409 0.20338 0.0
N340 N 0.3788 0.36224 0.20607 0.0
C341 C 0.41137 0.36765 0.22884 0.0
C342 C 0.37234 0.34913 0.19147 0.0
N343 N 0.38607 0.33611 0.18986 0.0
C344 C 0.35257 0.34905 0.17866 0.0
H345 H 0.40356 0.37584 0.23925 0.0
H346 H 0.42146 0.37852 0.22069 0.0
H347 H 0.42069 0.35729 0.23811 0.0
H348 H 0.35468 0.35795 0.16428 0.0
H349 H 0.34133 0.35557 0.18689 0.0
H350 H 0.34687 0.3338 0.17455 0.0
C351 C 0.70167 0.34745 0.15817 0.0
N352 N 0.71349 0.36426 0.15436 0.0
N353 N 0.69392 0.34804 0.17633 0.0
C354 C 0.69914 0.32965 0.14512 0.0
C355 C 0.70157 0.36567 0.18362 0.0
N356 N 0.71361 0.37549 0.17039 0.0
C357 C 0.69723 0.37333 0.20366 0.0
H358 H 0.68723 0.33176 0.13252 0.0
H359 H 0.69474 0.31599 0.15415 0.0
H360 H 0.71321 0.32774 0.13827 0.0
H361 H 0.70937 0.36979 0.21555 0.0
H362 H 0.68278 0.36636 0.20851 0.0
H363 H 0.69683 0.38958 0.20261 0.0
C364 C 0.69247 0.37338 0.86327 0.0
N365 N 0.70976 0.38395 0.86959 0.0
N366 N 0.68146 0.38393 0.84904 0.0
C367 C 0.68643 0.35276 0.87108 0.0
C368 C 0.69284 0.40131 0.84691 0.0
N369 N 0.71001 0.40131 0.8595 0.0
C370 C 0.68761 0.4177 0.83172 0.0
H371 H 0.69252 0.34208 0.86169 0.0
H372 H 0.66988 0.3498 0.87008 0.0
H373 H 0.69269 0.35044 0.88719 0.0
H374 H 0.67561 0.42547 0.83733 0.0
H375 H 0.68173 0.41151 0.81678 0.0
H376 H 0.70062 0.4286 0.82955 0.0
C377 C 0.71879 0.66154 0.84167 0.0
N378 N 0.71837 0.67517 0.85594 0.0
N379 N 0.73642 0.65324 0.84388 0.0
C380 C 0.70232 0.65711 0.82494 0.0
C381 C 0.7467 0.66236 0.8601 0.0
N382 N 0.73585 0.67584 0.86731 0.0
C383 C 0.76647 0.65664 0.87023 0.0
H384 H 0.69153 0.64519 0.83053 0.0
H385 H 0.70839 0.65214 0.81115 0.0
H386 H 0.69412 0.6703 0.82068 0.0
H387 H 0.76828 0.64092 0.86795 0.0
H388 H 0.76775 0.65906 0.8869 0.0
H389 H 0.7788 0.66588 0.8634 0.0
C390 C 0.38992 0.68078 0.86527 0.0
N391 N 0.39987 0.675 0.84995 0.0
N392 N 0.39814 0.69842 0.87208 0.0
C393 C 0.3713 0.66983 0.87265 0.0
C394 C 0.41338 0.70332 0.86022 0.0
N395 N 0.4143 0.6892 0.84651 0.0
C396 C 0.4286 0.72081 0.86357 0.0
H397 H 0.36178 0.68011 0.87882 0.0
H398 H 0.37564 0.65895 0.88503 0.0
H399 H 0.36244 0.66174 0.86006 0.0
H400 H 0.4436 0.71744 0.85987 0.0
H401 H 0.42976 0.72535 0.87966 0.0
H402 H 0.42391 0.7334 0.85346 0.0
C403 C 0.36918 0.37406 0.86306 0.0
N404 N 0.37611 0.35632 0.86906 0.0
N405 N 0.37722 0.38164 0.84587 0.0
C406 C 0.35326 0.38333 0.87282 0.0
C407 C 0.3893 0.36797 0.84155 0.0
N408 N 0.3886 0.35257 0.85547 0.0
C409 C 0.40207 0.3698 0.82386 0.0
H410 H 0.34504 0.39304 0.86157 0.0
H411 H 0.36044 0.39249 0.88546 0.0
H412 H 0.34243 0.37189 0.87915 0.0
H413 H 0.40598 0.38551 0.81937 0.0
H414 H 0.39353 0.36251 0.81058 0.0
H415 H 0.41601 0.36242 0.82768 0.0
Cu416 Cu 0.29937 0.26263 0.03805 0.0
N417 N 0.30401 0.2841 0.01897 0.0
N418 N 0.31594 0.3004 0.99139 0.0
C419 C 0.31448 0.28315 1.00254 0.0
C420 C 0.30595 0.31274 1.00118 0.0
C421 C 0.29847 0.30264 0.01805 0.0
O422 O 0.29233 0.23973 0.02093 0.0
C423 C 0.33006 0.27872 0.06528 0.0
O424 O 0.32252 0.29473 0.05728 0.0
H425 H 0.32103 0.27001 0.99892 0.0
H426 H 0.28971 0.30846 0.02888 0.0
N427 N 0.27803 0.26334 0.05452 0.0
N428 N 0.25841 0.25161 0.07915 0.0
C429 C 0.26978 0.24713 0.06441 0.0
C430 C 0.27167 0.27871 0.06334 0.0
C431 C 0.25951 0.27154 0.0784 0.0
C432 C 0.27886 0.24246 1.00621 0.0
O433 O 0.27082 0.25936 1.00446 0.0
H434 H 0.27335 0.23236 0.06185 0.0
H435 H 0.27656 0.29402 0.06007 0.0
O436 O 0.32297 0.26206 0.05824 0.0
H437 H 0.30384 0.32787 0.99628 0.0
H438 H 0.25262 0.28039 0.08847 0.0
Cu439 Cu 0.80454 0.29343 1.00391 0.0
N440 N 0.7825 0.30467 0.01546 0.0
N441 N 0.76682 0.32096 0.03704 0.0
C442 C 0.7846 0.31764 0.03052 0.0
C443 C 0.75301 0.30965 0.02536 0.0
C444 C 0.76273 0.29959 0.01212 0.0
O445 O 0.80654 0.27391 0.02838 0.0
C446 C 0.79922 0.32956 0.97726 0.0
O447 O 0.80129 0.33934 0.99416 0.0
H448 H 0.79899 0.32429 0.03668 0.0
H449 H 0.75595 0.28882 1.00139 0.0
N450 N 0.82744 0.28262 0.9935 0.0
N451 N 0.84871 0.26995 0.97455 0.0
C452 C 0.83032 0.27659 0.97476 0.0
C453 C 0.84436 0.27972 1.00536 0.0
C454 C 0.85731 0.27184 0.99392 0.0
C455 C 0.81403 0.27794 0.04636 0.0
O456 O 0.8213 0.29607 0.0503 0.0
H457 H 0.81934 0.27723 0.96164 0.0
H458 H 0.84707 0.28303 0.02136 0.0
O459 O 0.80101 0.31111 0.97808 0.0
H460 H 0.73708 0.30802 0.02682 0.0
H461 H 0.87189 0.26758 0.99977 0.0
Cu462 Cu 0.79182 0.76517 0.02582 0.0
N463 N 0.79351 0.78703 1.00735 0.0
N464 N 0.80438 0.80458 0.9801 0.0
C465 C 0.80241 0.78669 0.98986 0.0
C466 C 0.79635 0.81678 0.99198 0.0
C467 C 0.78964 0.8059 1.0088 0.0
O468 O 0.79112 0.743 1.00779 0.0
C469 C 0.81311 0.78147 0.05965 0.0
O470 O 0.79683 0.79082 0.05807 0.0
H471 H 0.80828 0.77366 0.98496 0.0
H472 H 0.78306 0.81148 0.02146 0.0
N473 N 0.76908 0.76229 0.0407 0.0
N474 N 0.75065 0.75244 0.06667 0.0
C475 C 0.76817 0.75157 0.05848 0.0
C476 C 0.75147 0.77027 0.03743 0.0
C477 C 0.74001 0.7641 0.05337 0.0
C478 C 0.77433 0.73564 0.99936 0.0
O479 O 0.75772 0.74008 1.0062 0.0
H480 H 0.7803 0.74341 0.06535 0.0
H481 H 0.74737 0.78004 0.02453 0.0
O482 O 0.81497 0.76887 0.04635 0.0
H483 H 0.79559 0.83246 0.98892 0.0
H484 H 0.72526 0.76835 0.05532 0.0
Cu485 Cu 0.30886 0.79952 1.00198 0.0
N486 N 0.31326 0.81843 0.02202 0.0
N487 N 0.30905 0.83112 0.05191 0.0
C488 C 0.30966 0.81454 0.0417 0.0
C489 C 0.31247 0.84613 0.03812 0.0
C490 C 0.31513 0.83824 0.01967 0.0
O491 O 0.30338 0.77435 0.0166 0.0
C492 C 0.27245 0.81538 0.98711 0.0
O493 O 0.27068 0.81821 1.00646 0.0
H494 H 0.30568 0.79983 0.04792 0.0
H495 H 0.31674 0.84632 1.00522 0.0
N496 N 0.33086 0.79799 0.987 0.0
N497 N 0.35106 0.78463 0.96757 0.0
C498 C 0.33636 0.78119 0.9802 0.0
C499 C 0.34238 0.81266 0.97822 0.0
C500 C 0.35488 0.80444 0.96617 0.0
C501 C 0.3184 0.76775 0.02709 0.0
O502 O 0.33605 0.77771 0.02647 0.0
H503 H 0.32908 0.76672 0.98374 0.0
H504 H 0.34126 0.82821 0.9799 0.0
O505 O 0.28701 0.8065 0.98239 0.0
H506 H 0.3121 0.86161 0.04088 0.0
H507 H 0.36573 0.81239 0.95694 0.0
Cu508 Cu 0.02203 0.25507 0.29738 0.0
N509 N 0.03621 0.23249 0.29816 0.0
N510 N 0.05714 0.21195 0.28807 0.0
C511 C 0.05208 0.23069 0.28749 0.0
C512 C 0.04401 0.20158 0.29976 0.0
C513 C 0.03116 0.21427 0.30595 0.0
O514 O 0.04139 0.27787 0.29457 0.0
C515 C 1.00637 0.24792 0.25684 0.0
O516 O 0.02527 0.24844 0.25333 0.0
H517 H 0.05898 0.24267 0.27838 0.0
H518 H 0.01842 0.21031 0.31464 0.0
N519 N 1.00836 0.25775 0.32065 0.0
N520 N 0.98492 0.26724 0.33916 0.0
C521 C 0.98933 0.26256 0.32045 0.0
C522 C 1.01616 0.2593 0.34024 0.0
C523 C 1.00178 0.26522 0.35165 0.0
C524 C 0.05754 0.27728 0.30628 0.0
O525 O 0.05944 0.26227 0.31945 0.0
H526 H 0.97934 0.26386 0.30661 0.0
H527 H 0.03151 0.25726 0.34568 0.0
O528 O 1.00201 0.25228 0.27435 0.0
H529 H 0.04331 0.18582 0.30306 0.0
H530 H 1.00373 0.26834 0.36775 0.0
Cu531 Cu 0.81142 0.01587 0.28173 0.0
N532 N 0.83515 0.03238 0.28399 0.0
N533 N 0.85669 0.05795 0.27586 0.0
C534 C 0.83737 0.05044 0.27476 0.0
C535 C 0.86706 0.04404 0.2863 0.0
C536 C 0.8537 0.02826 0.29133 0.0
O537 O 0.78978 0.03336 0.27826 0.0
C538 C 0.82279 0.98328 0.26327 0.0
O539 O 0.83053 0.97998 0.28212 0.0
H540 H 0.82518 0.05731 0.26611 0.0
H541 H 0.85736 0.01438 0.2988 0.0
N542 N 0.8078 0.99994 0.30538 0.0
N543 N 0.79345 0.97667 0.32579 0.0
C544 C 0.79301 0.98537 0.30686 0.0
C545 C 0.81806 1.00053 0.32402 0.0
C546 C 0.80914 0.98621 0.33671 0.0
C547 C 0.78711 0.04223 0.2943 0.0
O548 O 0.79842 0.03864 0.31126 0.0
H549 H 0.78185 0.98156 0.29436 0.0
H550 H 0.83089 1.01082 0.32815 0.0
O551 O 0.81315 0.99848 0.25916 0.0
H552 H 0.88319 0.04488 0.2894 0.0
H553 H 0.81383 0.98306 0.35268 0.0
Cu554 Cu 0.04999 0.75422 0.26345 0.0
N555 N 0.03541 0.7766 0.2605 0.0
N556 N 1.01012 0.7946 0.24923 0.0
C557 C 0.01816 0.77732 0.24835 0.0
C558 C 0.02294 0.80535 0.26236 0.0
C559 C 0.03849 0.79413 0.26943 0.0
O560 O 0.02927 0.73171 0.26396 0.0
C561 C 0.07412 0.77181 0.23309 0.0
O562 O 0.06567 0.78764 0.23684 0.0
H563 H 1.01151 0.76522 0.23915 0.0
H564 H 0.05101 0.79837 0.28039 0.0
N565 N 0.06707 0.7525 0.28782 0.0
N566 N 0.09393 0.7434 0.30769 0.0
C567 C 0.0865 0.74881 0.28859 0.0
C568 C 0.06218 0.7495 0.30721 0.0
C569 C 0.07868 0.74381 0.31946 0.0
C570 C 1.01531 0.73386 0.27533 0.0
O571 O 0.01651 0.74973 0.28606 0.0
H572 H 0.09456 0.74852 0.27515 0.0
H573 H 0.04737 0.7501 0.31199 0.0
O574 O 0.06808 0.75524 0.2415 0.0
H575 H 0.02091 0.82 0.26697 0.0
H576 H 0.07921 0.73954 0.3356 0.0
Cu577 Cu 0.2921 0.02035 0.24941 0.0
N578 N 0.31619 0.0358 0.25677 0.0
N579 N 0.33622 0.06135 0.26937 0.0
C580 C 0.31844 0.05547 0.25922 0.0
C581 C 0.34585 0.04489 0.27295 0.0
C582 C 0.33359 0.02921 0.26488 0.0
O583 O 0.27047 0.03759 0.24219 0.0
C584 C 0.29712 0.99652 0.28733 0.0
O585 O 0.30806 0.01165 0.29544 0.0
H586 H 0.30684 0.06517 0.2549 0.0
H587 H 0.33651 0.01384 0.26632 0.0
N588 N 0.29381 1.00662 0.22579 0.0
N589 N 0.28856 0.98013 0.2065 0.0
C590 C 0.29401 0.98686 0.22539 0.0
C591 C 0.28826 0.0126 0.2064 0.0
C592 C 0.28497 0.99628 0.19447 0.0
C593 C 0.26622 0.05211 0.25196 0.0
O594 O 0.27482 0.05498 0.27053 0.0
H595 H 0.29603 0.97739 0.23903 0.0
H596 H 0.28499 0.02748 0.20168 0.0
O597 O 0.28723 0.99884 0.26993 0.0
H598 H 0.36026 0.04411 0.28166 0.0
H599 H 0.27915 0.99613 0.17852 0.0
Cu600 Cu 0.02275 0.77729 0.77732 0.0
N601 N 0.03999 0.75702 0.77754 0.0
N602 N 0.06616 0.74214 0.76884 0.0
C603 C 0.05813 0.75944 0.77014 0.0
C604 C 0.0525 0.72823 0.7758 0.0
C605 C 0.0364 0.73743 0.78116 0.0
O606 O 0.04004 0.80143 0.77321 0.0
C607 C 1.00105 0.76177 0.74102 0.0
O608 O 0.01726 0.75335 0.73827 0.0
H609 H 0.06478 0.77359 0.7647 0.0
H610 H 0.02267 0.73028 0.78642 0.0
N611 N 1.00959 0.77813 0.80127 0.0
N612 N 0.98803 0.78718 0.82236 0.0
C613 C 0.99372 0.78845 0.80309 0.0
C614 C 1.01401 0.76984 0.81997 0.0
C615 C 1.00081 0.77543 0.833 0.0
C616 C 0.04594 0.81303 0.78762 0.0
O617 O 0.03733 0.81084 0.80478 0.0
H618 H 0.98693 0.79727 0.79062 0.0
H619 H 0.02617 0.76067 0.82394 0.0
O620 O 1.00134 0.77344 0.75558 0.0
H621 H 0.05384 0.7125 0.77662 0.0
H622 H 1.00071 0.77117 0.84909 0.0
Cu623 Cu 0.32729 0.01987 0.79147 0.0
N624 N 0.3506 0.03704 0.79058 0.0
N625 N 0.36913 0.06467 0.78209 0.0
C626 C 0.35253 0.05253 0.77716 0.0
C627 C 0.37812 0.05637 0.79924 0.0
C628 C 0.36666 0.03925 0.80442 0.0
O629 O 0.30498 0.03641 0.792 0.0
C630 C 0.34143 0.99472 0.76505 0.0
O631 O 0.35845 1.0012 0.77503 0.0
H632 H 0.34111 0.05564 0.76497 0.0
H633 H 0.3692 0.02975 0.81794 0.0
N634 N 0.32745 1.00355 0.81514 0.0
N635 N 0.31789 0.97667 0.83395 0.0
C636 C 0.32106 0.98424 0.81506 0.0
C637 C 0.32855 1.00842 0.83486 0.0
C638 C 0.32257 0.99182 0.84652 0.0
C639 C 0.30824 0.05131 0.80334 0.0
O640 O 0.32586 0.05451 0.81363 0.0
H641 H 0.31697 0.97634 0.80116 0.0
H642 H 0.332 0.02323 0.84018 0.0
O643 O 0.32539 1.00189 0.76882 0.0
H644 H 0.39156 0.06261 0.80784 0.0
H645 H 0.32073 0.99121 0.86274 0.0
Cu646 Cu 0.06795 0.26534 0.77907 0.0
N647 N 0.05102 0.28571 0.77811 0.0
N648 N 0.02585 0.30333 0.76547 0.0
C649 C 0.03923 0.29089 0.7613 0.0
C650 C 0.02938 0.30608 0.78577 0.0
C651 C 0.0449 0.29516 0.79354 0.0
O652 O 0.04906 0.24181 0.77758 0.0
C653 C 0.09241 0.28756 0.75323 0.0
O654 O 0.08693 0.30164 0.76382 0.0
H655 H 0.03972 0.2847 0.74653 0.0
H656 H 0.05064 0.29347 0.80943 0.0
N657 N 0.0858 0.26435 0.80292 0.0
N658 N 0.10964 0.25288 0.82537 0.0
C659 C 0.09406 0.24818 0.81136 0.0
C660 C 0.09655 0.27976 0.81195 0.0
C661 C 0.11127 0.27274 0.82577 0.0
C662 C 0.04045 0.23683 0.79376 0.0
O663 O 0.04711 0.24561 0.81076 0.0
H664 H 0.08962 0.23339 0.80632 0.0
H665 H 0.09458 0.29508 0.80788 0.0
O666 O 0.085 0.26987 0.75656 0.0
H667 H 0.02107 0.31497 0.79448 0.0
H668 H 0.12269 0.28155 0.83492 0.0
Cu669 Cu 0.80658 0.03553 0.73036 0.0
N670 N 0.82992 0.05293 0.73239 0.0
N671 N 0.85204 0.07642 0.746 0.0
C672 C 0.83871 0.06088 0.74978 0.0
C673 C 0.85178 0.07822 0.72543 0.0
C674 C 0.83814 0.06369 0.71708 0.0
O675 O 0.78414 0.05211 0.72528 0.0
C676 C 0.8227 1.00921 0.76016 0.0
O677 O 0.8391 0.01576 0.75174 0.0
H678 H 0.83407 0.05648 0.7648 0.0
H679 H 0.83349 0.06199 0.70098 0.0
N680 N 0.80504 0.0196 0.70777 0.0
N681 N 0.79682 0.99222 0.69019 0.0
C682 C 0.80261 0.9997 0.7087 0.0
C683 C 0.80073 0.0249 0.68793 0.0
C684 C 0.79563 1.00803 0.67704 0.0
C685 C 0.78406 0.06897 0.73291 0.0
O686 O 0.79769 0.0742 0.74778 0.0
H687 H 0.80336 0.99092 0.72291 0.0
H688 H 0.79992 0.03996 0.68207 0.0
O689 O 0.80642 0.01687 0.75415 0.0
H690 H 0.86013 0.08976 0.71701 0.0
H691 H 0.79056 1.00746 0.66091 0.0
Cu692 Cu 0.30466 0.75333 0.52903 0.0
N693 N 0.32792 0.75335 0.54723 0.0
N694 N 0.34716 0.7625 0.57561 0.0
C695 C 0.32838 0.75755 0.56713 0.0
C696 C 0.35907 0.76127 0.56043 0.0
C697 C 0.34716 0.75564 0.54294 0.0
O698 O 0.28305 0.75433 0.54696 0.0
C699 C 0.31832 0.77259 0.49344 0.0
O700 O 0.32361 0.75488 0.49108 0.0
H701 H 0.31505 0.75884 0.57473 0.0
H702 H 0.35204 0.75488 0.52781 0.0
N703 N 0.29877 0.73067 0.51362 0.0
N704 N 0.28405 0.71259 0.4879 0.0
C705 C 0.28287 0.72809 0.49957 0.0
C706 C 0.31031 0.71609 0.51098 0.0
C707 C 0.3013 0.70497 0.49499 0.0
C708 C 0.27722 0.73819 0.55636 0.0
O709 O 0.28433 0.72181 0.55187 0.0
H710 H 0.27137 0.73823 0.49702 0.0
H711 H 0.3248 0.71444 0.51919 0.0
O712 O 0.30936 0.7757 0.50916 0.0
H713 H 0.37509 0.76514 0.56158 0.0
H714 H 0.30726 0.69266 0.48865 0.0
Cu715 Cu 0.79814 0.79615 0.49011 0.0
N716 N 0.82022 0.7939 0.47542 0.0
N717 N 0.84036 0.77924 0.45707 0.0
C718 C 0.82446 0.7768 0.46822 0.0
C719 C 0.84644 0.79869 0.45724 0.0
C720 C 0.83407 0.80771 0.46878 0.0
O721 O 0.77457 0.8003 0.47142 0.0
C722 C 0.80984 0.76894 0.5194 0.0
O723 O 0.82547 0.78207 0.5204 0.0
H724 H 0.81565 0.76288 0.47064 0.0
H725 H 0.8348 0.82325 0.4717 0.0
N726 N 0.80168 0.81692 0.50811 0.0
N727 N 0.79799 0.83268 0.53638 0.0
C728 C 0.7982 0.81506 0.528 0.0
C729 C 0.80364 0.83649 0.50369 0.0
C730 C 0.80132 0.84628 0.52114 0.0
C731 C 0.77619 0.81081 0.45496 0.0
O732 O 0.79403 0.81795 0.45024 0.0
H733 H 0.79438 0.80105 0.53583 0.0
H734 H 0.80543 0.84312 0.48858 0.0
O735 O 0.79489 0.77184 0.50661 0.0
H736 H 0.8589 0.80583 0.4496 0.0
H737 H 0.80136 0.86207 0.52234 0.0
Cu738 Cu 0.80529 0.25762 0.52792 0.0
N739 N 0.80027 0.23717 0.50959 0.0
N740 N 0.78592 0.22233 0.48143 0.0
C741 C 0.78943 0.23934 0.4914 0.0
C742 C 0.79498 0.20884 0.49396 0.0
C743 C 0.80382 0.21804 0.51134 0.0
O744 O 0.80872 0.28096 0.50922 0.0
C745 C 0.7841 0.2573 0.56412 0.0
O746 O 0.8005 0.26685 0.5724 0.0
H747 H 0.78354 0.25309 0.48601 0.0
H748 H 0.81177 0.21115 0.52448 0.0
N749 N 0.82858 0.2562 0.54601 0.0
N750 N 0.85157 0.26728 0.57078 0.0
C751 C 0.8399 0.27204 0.55368 0.0
C752 C 0.83347 0.24083 0.5586 0.0
C753 C 0.84762 0.24763 0.57391 0.0
C754 C 0.82477 0.28263 0.50004 0.0
O755 O 0.83849 0.27049 0.50562 0.0
H756 H 0.83802 0.28704 0.54811 0.0
H757 H 0.82593 0.22611 0.55786 0.0
O758 O 0.78243 0.25447 0.54489 0.0
H759 H 0.79511 0.1934 0.49091 0.0
H760 H 0.85364 0.23902 0.58697 0.0
Cu761 Cu 0.30359 0.30614 0.52174 0.0
N762 N 0.31079 0.32859 0.53735 0.0
N763 N 0.30872 0.34934 0.56236 0.0
C764 C 0.30474 0.33069 0.55605 0.0
C765 C 0.31777 0.35937 0.54701 0.0
C766 C 0.31898 0.34656 0.5316 0.0
O767 O 0.29893 0.28398 0.54092 0.0
C768 C 0.26808 0.32345 0.5066 0.0
O769 O 0.26959 0.33135 0.52455 0.0
H770 H 0.29612 0.3191 0.56411 0.0
H771 H 0.32432 0.3504 0.51679 0.0
N772 N 0.32333 0.29989 0.50549 0.0
N773 N 0.3379 0.2825 0.48395 0.0
C774 C 0.32317 0.28249 0.49655 0.0
C775 C 0.33877 0.31136 0.49838 0.0
C776 C 0.34776 0.30068 0.48508 0.0
C777 C 0.31314 0.28234 0.55496 0.0
O778 O 0.32927 0.29479 0.5548 0.0
H779 H 0.3119 0.27031 0.49865 0.0
H780 H 0.34292 0.32654 0.50217 0.0
O781 O 0.28024 0.31109 0.50312 0.0
H782 H 0.32247 0.37502 0.54654 0.0
H783 H 0.3605 0.30595 0.47682 0.0
Cu784 Cu 0.83332 0.52775 0.77859 0.0
N785 N 0.85628 0.54466 0.77508 0.0
N786 N 0.87514 0.5701 0.76208 0.0
C787 C 0.8566 0.56077 0.7624 0.0
C788 C 0.88707 0.55927 0.77496 0.0
C789 C 0.87533 0.54355 0.78303 0.0
O790 O 0.81053 0.54376 0.77662 0.0
C791 C 0.84323 0.493 0.7633 0.0
O792 O 0.85418 0.49298 0.78098 0.0
H793 H 0.84346 0.56526 0.7532 0.0
H794 H 0.88035 0.53203 0.79369 0.0
N795 N 0.83346 0.51554 0.80458 0.0
N796 N 0.82132 0.49556 0.82931 0.0
C797 C 0.82006 0.50049 0.80913 0.0
C798 C 0.84367 0.5205 0.8225 0.0
C799 C 0.83615 0.50815 0.83787 0.0
C800 C 0.81308 0.55904 0.7874 0.0
O801 O 0.83046 0.56304 0.79793 0.0
H802 H 0.80883 0.49404 0.79789 0.0
H803 H 0.85513 0.53269 0.82436 0.0
O804 O 0.8322 0.50711 0.75865 0.0
H805 H 0.90306 0.56246 0.77831 0.0
H806 H 0.84088 0.50871 0.85407 0.0
Cu807 Cu 0.31163 0.53797 0.74788 0.0
N808 N 0.33228 0.52266 0.7435 0.0
N809 N 0.349 0.49684 0.75572 0.0
C810 C 0.3423 0.51415 0.75989 0.0
C811 C 0.34324 0.49454 0.73563 0.0
C812 C 0.33281 0.51037 0.7282 0.0
O813 O 0.29089 0.51688 0.75341 0.0
C814 C 0.33484 0.56867 0.76661 0.0
O815 O 0.33945 0.57162 0.74765 0.0
H816 H 0.34199 0.5191 0.77524 0.0
H817 H 0.32405 0.51139 0.71356 0.0
N818 N 0.30278 0.55545 0.7263 0.0
N819 N 0.28888 0.58196 0.71152 0.0
C820 C 0.29492 0.57247 0.72928 0.0
C821 C 0.30175 0.55415 0.70582 0.0
C822 C 0.29303 0.57042 0.69667 0.0
C823 C 0.27821 0.51045 0.73903 0.0
O824 O 0.27406 0.52212 0.72298 0.0
H825 H 0.29339 0.57766 0.74431 0.0
H826 H 0.30667 0.54211 0.69808 0.0
O827 O 0.32217 0.55422 0.77086 0.0
H828 H 0.34489 0.48159 0.72729 0.0
H829 H 0.29018 0.57362 0.68039 0.0
Cu830 Cu 0.32245 0.50907 0.28454 0.0
N831 N 0.32291 0.49692 0.3107 0.0
N832 N 0.3118 0.47606 0.33529 0.0
C833 C 0.30718 0.4855 0.31716 0.0
C834 C 0.33127 0.48187 0.34054 0.0
C835 C 0.33809 0.49483 0.32534 0.0
O836 O 0.32202 0.48826 0.26474 0.0
C837 C 0.30068 0.53868 0.2943 0.0
O838 O 0.31678 0.54097 0.30722 0.0
H839 H 0.29299 0.48313 0.30798 0.0
H840 H 0.35331 0.50123 0.32447 0.0
N841 N 0.34487 0.52682 0.28081 0.0
N842 N 0.36261 0.55097 0.26442 0.0
C843 C 0.3484 0.53566 0.26258 0.0
C844 C 0.35749 0.53675 0.29471 0.0
C845 C 0.36839 0.55176 0.28462 0.0
C846 C 0.3333 0.47437 0.26955 0.0
O847 O 0.34424 0.47467 0.28721 0.0
H848 H 0.33943 0.53207 0.24845 0.0
H849 H 0.35761 0.53438 0.31111 0.0
O850 O 0.29922 0.52465 0.28191 0.0
H851 H 0.34012 0.47656 0.35396 0.0
H852 H 0.3789 0.56303 0.29164 0.0
Cu853 Cu 0.79944 0.52878 0.24693 0.0
N854 N 0.82369 0.51696 0.25166 0.0
N855 N 0.84525 0.49598 0.26606 0.0
C856 C 0.82602 0.50043 0.26355 0.0
C857 C 0.85536 0.51027 0.25505 0.0
C858 C 0.84203 0.52316 0.2462 0.0
O859 O 0.77829 0.50765 0.24005 0.0
C860 C 0.81123 0.54805 0.28436 0.0
O861 O 0.82321 0.53415 0.28937 0.0
H862 H 0.81391 0.49241 0.27104 0.0
H863 H 0.84556 0.53639 0.23693 0.0
N864 N 0.79777 0.54757 0.22512 0.0
N865 N 0.78504 0.57306 0.207 0.0
C866 C 0.78583 0.5624 0.22491 0.0
C867 C 0.80487 0.54878 0.20661 0.0
C868 C 0.79702 0.5645 0.19538 0.0
C869 C 0.78275 0.49502 0.22788 0.0
O870 O 0.80065 0.49685 0.22129 0.0
H871 H 0.77704 0.56467 0.23738 0.0
H872 H 0.8145 0.53861 0.20142 0.0
O873 O 0.79717 0.5452 0.27004 0.0
H874 H 0.87131 0.51154 0.25366 0.0
H875 H 0.79968 0.56903 0.17978 0.0
Cu876 Cu 0.53761 0.27066 0.79108 0.0
N877 N 0.52351 0.2705 0.81446 0.0
N878 N 0.4983 0.27759 0.83206 0.0
C879 C 0.50398 0.27373 0.81359 0.0
C880 C 0.51495 0.27665 0.84515 0.0
C881 C 0.53046 0.27227 0.83427 0.0
O882 O 0.51757 0.26339 0.76873 0.0
C883 C 0.56797 0.29923 0.79999 0.0
O884 O 0.57282 0.28489 0.81306 0.0
H885 H 0.49449 0.27474 0.79937 0.0
H886 H 0.54594 0.27164 0.8402 0.0
N887 N 0.55717 0.25256 0.79115 0.0
N888 N 0.58079 0.23725 0.77806 0.0
C889 C 0.56629 0.24968 0.77431 0.0
C890 C 0.56616 0.24147 0.80623 0.0
C891 C 0.58084 0.23208 0.79819 0.0
C892 C 0.51181 0.24501 0.76872 0.0
O893 O 0.51962 0.23319 0.78311 0.0
H894 H 0.56265 0.25709 0.75964 0.0
H895 H 0.56263 0.24062 0.82198 0.0
O896 O 0.55191 0.2968 0.78806 0.0
H897 H 0.51603 0.2796 0.86127 0.0
H898 H 0.59071 0.22219 0.80649 0.0
Cu899 Cu 0.5639 0.76351 0.77489 0.0
N900 N 0.58151 0.76269 0.799 0.0
N901 N 0.60581 0.75168 0.8211 0.0
C902 C 0.59197 0.74722 0.80536 0.0
C903 C 0.604 0.77061 0.82499 0.0
C904 C 0.58884 0.77732 0.81146 0.0
O905 O 0.58037 0.76695 0.75165 0.0
C906 C 0.53393 0.73926 0.79024 0.0
O907 O 0.5368 0.75353 0.80322 0.0
H908 H 0.59015 0.73326 0.79792 0.0
H909 H 0.5842 0.79211 0.81022 0.0
N910 N 0.54746 0.78447 0.77261 0.0
N911 N 0.52024 0.80032 0.76253 0.0
C912 C 0.5284 0.78289 0.76399 0.0
C913 C 0.55163 0.80368 0.77664 0.0
C914 C 0.53487 0.81348 0.77046 0.0
C915 C 0.59457 0.7808 0.7531 0.0
O916 O 0.59699 0.79124 0.76955 0.0
H917 H 0.52089 0.76926 0.75822 0.0
H918 H 0.56595 0.81024 0.78309 0.0
O919 O 0.54514 0.73973 0.7756 0.0
H920 H 0.61316 0.77902 0.83655 0.0
H921 H 0.53362 0.82909 0.77165 0.0
Cu922 Cu 0.5093 0.75913 0.28137 0.0
N923 N 0.49647 0.76435 0.30463 0.0
N924 N 0.47342 0.77505 0.32299 0.0
C925 C 0.47731 0.76878 0.30465 0.0
C926 C 0.49081 0.77441 0.335 0.0
C927 C 0.50493 0.76778 0.3237 0.0
O928 O 0.48855 0.74975 0.26058 0.0
C929 C 0.52508 0.79951 0.27969 0.0
O930 O 0.51126 0.80241 0.29171 0.0
H931 H 0.46675 0.76845 0.29113 0.0
H932 H 0.52053 0.76644 0.32873 0.0
N933 N 0.52732 0.73949 0.2862 0.0
N934 N 0.55105 0.72047 0.27912 0.0
C935 C 0.54399 0.73845 0.27645 0.0
C936 C 0.52395 0.72167 0.29563 0.0
C937 C 0.53849 0.70993 0.29126 0.0
C938 C 0.49248 0.74035 0.24543 0.0
O939 O 0.51124 0.73881 0.24244 0.0
H940 H 0.54965 0.74996 0.26597 0.0
H941 H 0.51098 0.71705 0.30378 0.0
O942 O 0.5253 0.78264 0.27231 0.0
H943 H 0.49325 0.77874 0.35074 0.0
H944 H 0.53908 0.69446 0.29569 0.0
Cu945 Cu 0.54721 0.24498 0.26586 0.0
N946 N 0.53056 0.22164 0.26836 0.0
N947 N 0.50491 0.20172 0.27885 0.0
C948 C 0.5153 0.21959 0.28026 0.0
C949 C 0.51421 0.19198 0.26568 0.0
C950 C 0.53003 0.20439 0.25913 0.0
O951 O 0.52982 0.26675 0.26256 0.0
C952 C 0.57965 0.23137 0.28858 0.0
O953 O 0.57638 0.21908 0.27359 0.0
H954 H 0.51185 0.23115 0.2897 0.0
H955 H 0.5402 0.20118 0.24823 0.0
N956 N 0.56138 0.24667 0.2427 0.0
N957 N 0.58668 0.25686 0.22399 0.0
C958 C 0.58007 0.25555 0.24275 0.0
C959 C 0.55575 0.24228 0.22311 0.0
C960 C 0.57139 0.24864 0.21145 0.0
C961 C 0.51362 0.26381 0.25078 0.0
O962 O 0.50954 0.24679 0.24209 0.0
H963 H 0.58834 0.26179 0.25622 0.0
H964 H 0.54115 0.23554 0.21761 0.0
O965 O 0.56784 0.24489 0.28923 0.0
H966 H 0.50962 0.17718 0.26075 0.0
H967 H 0.57141 0.24758 0.19507 0.0
H968 H 0.21278 0.21671 0.18486 0.0
H969 H 0.19623 0.15974 0.15884 0.0
H970 H 0.21276 0.17108 0.12789 0.0
H971 H 0.20241 0.24459 0.1386 0.0
H972 H 0.22272 0.26349 0.1434 0.0
H973 H 0.21168 0.25019 0.16452 0.0
H974 H 0.24646 0.23995 0.17908 0.0
H975 H 0.25766 0.25337 0.15809 0.0
H976 H 0.26113 0.2276 0.16302 0.0
H977 H 0.22955 0.18948 0.09863 0.0
H978 H 0.24521 0.21307 0.07381 0.0
H979 H 0.2497 0.25893 0.11793 0.0
C980 C 0.21305 0.20654 0.17278 0.0
C981 C 0.20383 0.18702 0.17467 0.0
C982 C 0.204 0.17432 0.15831 0.0
C983 C 0.21311 0.18081 0.14046 0.0
C984 C 0.22185 0.2002 0.13899 0.0
C985 C 0.2219 0.21289 0.15474 0.0
C986 C 0.2313 0.23333 0.14885 0.0
C987 C 0.21612 0.24881 0.14884 0.0
C988 C 0.25027 0.23888 0.16311 0.0
C989 C 0.23641 0.23021 0.12727 0.0
C990 C 0.23092 0.21095 0.12193 0.0
C991 C 0.234 0.20456 0.10274 0.0
C992 C 0.24299 0.21809 0.08872 0.0
C993 C 0.24881 0.23796 0.09375 0.0
C994 C 0.24533 0.24398 0.11338 0.0
H995 H 0.84773 0.23063 0.156 0.0
H996 H 0.84197 0.17434 0.12741 0.0
H997 H 0.82514 0.18937 0.09606 0.0
H998 H 0.80164 0.25116 0.12981 0.0
H999 H 0.81456 0.27543 0.12704 0.0
H1000 H 0.82159 0.25934 0.14864 0.0
H1001 H 0.85822 0.26313 0.1391 0.0
H1002 H 0.85132 0.279 0.11737 0.0
H1003 H 0.86338 0.25707 0.11385 0.0
H1004 H 0.81312 0.21126 0.06668 0.0
H1005 H 0.80789 0.23826 0.04088 0.0
H1006 H 0.82444 0.28116 0.08766 0.0
C1007 C 0.84224 0.22143 0.14333 0.0
C1008 C 0.84553 0.20126 0.14419 0.0
C1009 C 0.83885 0.18965 0.12721 0.0
C1010 C 0.82944 0.19811 0.10935 0.0
C1011 C 0.82709 0.21826 0.1087 0.0
C1012 C 0.83332 0.22979 0.12526 0.0
C1013 C 0.83177 0.25149 0.11971 0.0
C1014 C 0.81647 0.25984 0.13203 0.0
C1015 C 0.8524 0.26336 0.12268 0.0
C1016 C 0.82425 0.25043 0.09729 0.0
C1017 C 0.82124 0.23111 0.09137 0.0
C1018 C 0.81519 0.22643 0.07119 0.0
C1019 C 0.81229 0.2419 0.05663 0.0
C1020 C 0.81577 0.26184 0.06225 0.0
C1021 C 0.82162 0.26608 0.08291 0.0
H1022 H 0.84404 0.82864 0.1662 0.0
H1023 H 0.90324 0.84373 0.14676 0.0
H1024 H 0.89506 0.82155 0.11761 0.0
H1025 H 0.83576 0.77684 0.14836 0.0
H1026 H 0.80988 0.77972 0.14004 0.0
H1027 H 0.8221 0.79293 0.16158 0.0
H1028 H 0.81236 0.82594 0.14381 0.0
H1029 H 0.80019 0.81291 0.12227 0.0
H1030 H 0.81959 0.83252 0.11846 0.0
H1031 H 0.87813 0.80118 0.0876 0.0
H1032 H 0.85428 0.78674 0.05981 0.0
H1033 H 0.80581 0.78748 0.09838 0.0
C1034 C 0.8554 0.82685 0.15606 0.0
C1035 C 0.87425 0.83781 0.15863 0.0
C1036 C 0.88881 0.83522 0.14511 0.0
C1037 C 0.88422 0.8227 0.12852 0.0
C1038 C 0.86503 0.81283 0.12577 0.0
C1039 C 0.85091 0.81476 0.13933 0.0
C1040 C 0.83062 0.80494 0.13179 0.0
C1041 C 0.82422 0.78757 0.14631 0.0
C1042 C 0.81477 0.81997 0.1289 0.0
C1043 C 0.83523 0.79777 0.11149 0.0
C1044 C 0.85523 0.80194 0.1084 0.0
C1045 C 0.86252 0.7976 0.09006 0.0
C1046 C 0.84893 0.78932 0.07438 0.0
C1047 C 0.82829 0.78592 0.07705 0.0
C1048 C 0.82157 0.78979 0.09602 0.0
H1049 H 0.23627 0.85934 0.13162 0.0
H1050 H 0.25477 0.80904 0.16898 0.0
H1051 H 0.2812 0.80518 0.14613 0.0
H1052 H 0.24051 0.83964 0.08473 0.0
H1053 H 0.2497 0.86231 0.07204 0.0
H1054 H 0.23447 0.86302 0.09296 0.0
H1055 H 0.26219 0.88603 0.11212 0.0
H1056 H 0.27752 0.88546 0.09116 0.0
H1057 H 0.28722 0.87852 0.11679 0.0
H1058 H 0.30251 0.80432 0.1173 0.0
H1059 H 0.31732 0.80625 0.08423 0.0
H1060 H 0.28512 0.8571 0.06493 0.0
C1061 C 0.24634 0.84793 0.13517 0.0
C1062 C 0.24378 0.83453 0.152 0.0
C1063 C 0.25672 0.8194 0.15612 0.0
C1064 C 0.27175 0.81719 0.14329 0.0
C1065 C 0.27364 0.83031 0.12645 0.0
C1066 C 0.26136 0.84546 0.12238 0.0
C1067 C 0.26535 0.85636 0.10224 0.0
C1068 C 0.24638 0.85525 0.0871 0.0
C1069 C 0.27356 0.87787 0.10579 0.0
C1070 C 0.28126 0.84455 0.09528 0.0
C1071 C 0.286 0.82977 0.10964 0.0
C1072 C 0.29916 0.81602 0.10609 0.0
C1073 C 0.30744 0.81717 0.08725 0.0
C1074 C 0.30252 0.8319 0.07211 0.0
C1075 C 0.28955 0.846 0.07641 0.0
H1076 H 0.23392 0.84728 0.87225 0.0
H1077 H 0.18959 0.87844 0.89741 0.0
H1078 H 0.20321 0.86887 0.93259 0.0
H1079 H 0.23206 0.80656 0.90751 0.0
H1080 H 0.25847 0.80357 0.9093 0.0
H1081 H 0.24643 0.81428 0.88627 0.0
H1082 H 0.2717 0.84541 0.88904 0.0
H1083 H 0.28404 0.83466 0.91192 0.0
H1084 H 0.27499 0.85867 0.91236 0.0
H1085 H 0.22036 0.85416 0.96468 0.0
H1086 H 0.24098 0.83691 0.99176 0.0
H1087 H 0.27403 0.8149 0.94549 0.0
C1088 C 0.2275 0.85242 0.88526 0.0
C1089 C 0.2109 0.86368 0.8824 0.0
C1090 C 0.20241 0.86987 0.89957 0.0
C1091 C 0.21001 0.86448 0.91948 0.0
C1092 C 0.2261 0.85289 0.92186 0.0
C1093 C 0.23487 0.84707 0.90523 0.0
C1094 C 0.25149 0.83403 0.91197 0.0
C1095 C 0.24682 0.81339 0.90324 0.0
C1096 C 0.27176 0.84378 0.90597 0.0
C1097 C 0.25057 0.83328 0.93495 0.0
C1098 C 0.23585 0.84427 0.94034 0.0
C1099 C 0.23201 0.84559 0.96067 0.0
C1100 C 0.24374 0.83566 0.97594 0.0
C1101 C 0.25911 0.82451 0.9708 0.0
C1102 C 0.26238 0.82324 0.94997 0.0
H1103 H 0.23836 0.20642 0.89452 0.0
H1104 H 0.23015 0.14714 0.92111 0.0
H1105 H 0.24199 0.1595 0.9554 0.0
H1106 H 0.28217 0.22233 0.92405 0.0
H1107 H 0.27576 0.24699 0.92735 0.0
H1108 H 0.26527 0.23384 0.90514 0.0
H1109 H 0.22935 0.23853 0.91372 0.0
H1110 H 0.23973 0.25214 0.93569 0.0
H1111 H 0.22192 0.23095 0.93878 0.0
H1112 H 0.25904 0.17796 0.98605 0.0
H1113 H 0.27389 0.20201 0.01176 0.0
H1114 H 0.26836 0.24951 0.96569 0.0
C1115 C 0.23847 0.19622 0.9077 0.0
C1116 C 0.23358 0.17582 0.90524 0.0
C1117 C 0.23411 0.16279 0.92275 0.0
C1118 C 0.24084 0.16968 0.94223 0.0
C1119 C 0.24656 0.18976 0.94406 0.0
C1120 C 0.24487 0.20294 0.92736 0.0
C1121 C 0.252 0.22378 0.93348 0.0
C1122 C 0.26986 0.23222 0.92181 0.0
C1123 C 0.23472 0.23714 0.93023 0.0
C1124 C 0.25835 0.22019 0.95606 0.0
C1125 C 0.25533 0.20045 0.96186 0.0
C1126 C 0.26114 0.19351 0.98175 0.0
C1127 C 0.26974 0.2072 0.99621 0.0
C1128 C 0.27213 0.22756 0.99074 0.0
C1129 C 0.26648 0.23402 0.97036 0.0
H1130 H 0.85496 0.22309 0.86554 0.0
H1131 H 0.91757 0.21789 0.88521 0.0
H1132 H 0.91378 0.23362 0.91745 0.0
H1133 H 0.85058 0.26957 0.88779 0.0
H1134 H 0.82609 0.26275 0.89622 0.0
H1135 H 0.83356 0.25162 0.8742 0.0
H1136 H 0.82597 0.21685 0.89101 0.0
H1137 H 0.81832 0.22787 0.913 0.0
H1138 H 0.83761 0.21109 0.91621 0.0
H1139 H 0.90403 0.25098 0.94632 0.0
H1140 H 0.88835 0.26587 0.97286 0.0
H1141 H 0.83045 0.25731 0.93734 0.0
C1142 C 0.86774 0.22512 0.87679 0.0
C1143 C 0.88668 0.21953 0.87286 0.0
C1144 C 0.90311 0.22246 0.88783 0.0
C1145 C 0.90106 0.2313 0.90617 0.0
C1146 C 0.88234 0.23686 0.90954 0.0
C1147 C 0.86584 0.23365 0.89551 0.0
C1148 C 0.84731 0.24046 0.90358 0.0
C1149 C 0.83889 0.25709 0.88961 0.0
C1150 C 0.83136 0.22303 0.9061 0.0
C1151 C 0.85608 0.24808 0.92424 0.0
C1152 C 0.87636 0.24598 0.92709 0.0
C1153 C 0.88808 0.25235 0.94448 0.0
C1154 C 0.87885 0.26071 0.95965 0.0
C1155 C 0.85788 0.26241 0.95776 0.0
C1156 C 0.84643 0.25619 0.93952 0.0
H1157 H 0.86313 0.87392 0.90007 0.0
H1158 H 0.85535 0.82518 0.85953 0.0
H1159 H 0.84116 0.80337 0.88701 0.0
H1160 H 0.87329 0.84527 0.94922 0.0
H1161 H 0.859 0.86049 0.96279 0.0
H1162 H 0.87182 0.87086 0.94133 0.0
H1163 H 0.83839 0.88222 0.92408 0.0
H1164 H 0.82537 0.87159 0.94524 0.0
H1165 H 0.81715 0.86428 0.91957 0.0
H1166 H 0.82401 0.7882 0.91765 0.0
H1167 H 0.80686 0.78039 0.94901 0.0
H1168 H 0.82409 0.83986 0.96888 0.0
C1169 C 0.85886 0.85852 0.89722 0.0
C1170 C 0.86034 0.85113 0.87776 0.0
C1171 C 0.85461 0.83096 0.87446 0.0
C1172 C 0.84638 0.81858 0.88993 0.0
C1173 C 0.84404 0.82664 0.9086 0.0
C1174 C 0.85032 0.84614 0.91236 0.0
C1175 C 0.84454 0.85175 0.93291 0.0
C1176 C 0.86328 0.85742 0.94742 0.0
C1177 C 0.83053 0.86844 0.93028 0.0
C1178 C 0.83363 0.8325 0.94002 0.0
C1179 C 0.83371 0.81813 0.9259 0.0
C1180 C 0.82411 0.79929 0.92889 0.0
C1181 C 0.8144 0.79498 0.9468 0.0
C1182 C 0.81413 0.80946 0.96154 0.0
C1183 C 0.82387 0.82849 0.95793 0.0
H1184 H 0.15837 0.21222 0.2328 0.0
H1185 H 0.13613 0.15394 0.21284 0.0
H1186 H 0.10514 0.15587 0.22967 0.0
H1187 H 0.13947 0.20769 0.28186 0.0
H1188 H 0.13245 0.23258 0.28166 0.0
H1189 H 0.15261 0.22712 0.26737 0.0
H1190 H 0.13474 0.242 0.23427 0.0
H1191 H 0.11461 0.24763 0.24853 0.0
H1192 H 0.1093 0.23294 0.22626 0.0
H1193 H 0.07774 0.163 0.25046 0.0
H1194 H 0.05403 0.17604 0.27151 0.0
H1195 H 0.09279 0.23047 0.27752 0.0
C1196 C 0.14678 0.20007 0.23179 0.0
C1197 C 0.14962 0.18282 0.22169 0.0
C1198 C 0.13423 0.16714 0.22068 0.0
C1199 C 0.11662 0.16813 0.23018 0.0
C1200 C 0.11443 0.18506 0.24047 0.0
C1201 C 0.12892 0.20089 0.24113 0.0
C1202 C 0.12268 0.21727 0.25339 0.0
C1203 C 0.1377 0.2214 0.27219 0.0
C1204 C 0.12018 0.23607 0.2398 0.0
C1205 C 0.10261 0.20802 0.2597 0.0
C1206 C 0.09824 0.1894 0.25212 0.0
C1207 C 0.08093 0.17762 0.25636 0.0
C1208 C 0.0676 0.1851 0.2685 0.0
C1209 C 0.07149 0.20426 0.27624 0.0
C1210 C 0.08929 0.21584 0.27169 0.0
H1211 H 0.84869 0.1615 0.21626 0.0
H1212 H 0.90221 0.15087 0.18859 0.0
H1213 H 0.90644 0.12171 0.21202 0.0
H1214 H 0.86346 0.14317 0.26872 0.0
H1215 H 0.83875 0.13157 0.27217 0.0
H1216 H 0.84176 0.15333 0.25556 0.0
H1217 H 0.82163 0.13463 0.2257 0.0
H1218 H 0.81853 0.11287 0.2422 0.0
H1219 H 0.82959 0.11167 0.21843 0.0
H1220 H 0.90326 0.09219 0.23655 0.0
H1221 H 0.89184 0.06356 0.25846 0.0
H1222 H 0.83889 0.09198 0.26828 0.0
C1223 C 0.86133 0.15306 0.21523 0.0
C1224 C 0.87526 0.15852 0.20076 0.0
C1225 C 0.8917 0.14723 0.19994 0.0
C1226 C 0.89413 0.13058 0.2131 0.0
C1227 C 0.87986 0.12532 0.2269 0.0
C1228 C 0.86371 0.13618 0.22797 0.0
C1229 C 0.84945 0.12633 0.24268 0.0
C1230 C 0.8483 0.13938 0.26086 0.0
C1231 C 0.82857 0.12106 0.23159 0.0
C1232 C 0.85986 0.10801 0.24936 0.0
C1233 C 0.87758 0.1079 0.24041 0.0
C1234 C 0.8895 0.0922 0.24379 0.0
C1235 C 0.88295 0.07604 0.25634 0.0
C1236 C 0.8645 0.07555 0.2651 0.0
C1237 C 0.85303 0.09193 0.26175 0.0
H1238 H 0.93259 0.86584 0.19379 0.0
H1239 H 0.88724 0.81639 0.19497 0.0
H1240 H 0.91308 0.79455 0.20901 0.0
H1241 H 0.97478 0.83908 0.18286 0.0
H1242 H 0.99244 0.85341 0.19989 0.0
H1243 H 0.97091 0.86427 0.18727 0.0
H1244 H 0.96064 0.87309 0.22244 0.0
H1245 H 0.98202 0.86214 0.23519 0.0
H1246 H 0.95722 0.85387 0.24201 0.0
H1247 H 0.94372 0.7787 0.22519 0.0
H1248 H 0.97627 0.77015 0.2423 0.0
H1249 H 1.00104 0.83073 0.23343 0.0
C1250 C 0.92816 0.85038 0.19688 0.0
C1251 C 0.90793 0.84276 0.19326 0.0
C1252 C 0.90271 0.82242 0.19729 0.0
C1253 C 0.91727 0.80997 0.20542 0.0
C1254 C 0.93697 0.81815 0.20957 0.0
C1255 C 0.94242 0.83791 0.20542 0.0
C1256 C 0.96421 0.84342 0.21271 0.0
C1257 C 0.9763 0.85046 0.1946 0.0
C1258 C 0.96613 0.85905 0.22906 0.0
C1259 C 0.97019 0.82372 0.22184 0.0
C1260 C 0.95433 0.80927 0.21962 0.0
C1261 C 0.95623 0.78989 0.22688 0.0
C1262 C 0.97479 0.78516 0.23654 0.0
C1263 C 0.99119 0.79976 0.23917 0.0
C1264 C 0.98874 0.81931 0.23176 0.0
H1265 H 0.21642 0.88793 0.16645 0.0
H1266 H 0.26126 0.8506 0.1933 0.0
H1267 H 0.28398 0.88025 0.20283 0.0
H1268 H 0.25192 0.92669 0.14564 0.0
H1269 H 0.23724 0.94633 0.1508 0.0
H1270 H 0.22509 0.92219 0.14535 0.0
H1271 H 0.20859 0.92101 0.17947 0.0
H1272 H 0.22067 0.94511 0.18504 0.0
H1273 H 0.22417 0.92465 0.20312 0.0
H1274 H 0.30016 0.914 0.21244 0.0
H1275 H 0.3098 0.94934 0.21892 0.0
H1276 H 0.25535 0.96485 0.18381 0.0
C1277 C 0.23115 0.88616 0.1741 0.0
C1278 C 0.23728 0.86716 0.17918 0.0
C1279 C 0.25653 0.86514 0.18923 0.0
C1280 C 0.26943 0.88186 0.1947 0.0
C1281 C 0.2629 0.90048 0.18972 0.0
C1282 C 0.24432 0.90272 0.17937 0.0
C1283 C 0.24081 0.92435 0.17606 0.0
C1284 C 0.23864 0.93023 0.1531 0.0
C1285 C 0.22248 0.92905 0.18655 0.0
C1286 C 0.2601 0.93392 0.18656 0.0
C1287 C 0.27262 0.9199 0.19442 0.0
C1288 C 0.29065 0.92512 0.20601 0.0
C1289 C 0.296 0.94516 0.20966 0.0
C1290 C 0.28353 0.95977 0.20154 0.0
C1291 C 0.26543 0.95402 0.1897 0.0
H1292 H 0.14101 0.87108 0.84343 0.0
H1293 H 0.1752 0.84986 0.79798 0.0
H1294 H 0.14374 0.83929 0.77714 0.0
H1295 H 0.10612 0.83052 0.84305 0.0
H1296 H 0.08514 0.84385 0.84729 0.0
H1297 H 0.11011 0.85335 0.8562 0.0
H1298 H 0.10496 0.8863 0.83572 0.0
H1299 H 0.07994 0.87682 0.82662 0.0
H1300 H 0.09752 0.88603 0.80861 0.0
H1301 H 0.10872 0.82746 0.76352 0.0
H1302 H 0.07369 0.81285 0.75967 0.0
H1303 H 0.06244 0.84002 0.81528 0.0
C1304 C 0.1418 0.86451 0.82891 0.0
C1305 C 0.16044 0.86146 0.82213 0.0
C1306 C 0.16102 0.8527 0.80315 0.0
C1307 C 0.14324 0.84665 0.79127 0.0
C1308 C 0.12503 0.84942 0.79865 0.0
C1309 C 0.12421 0.85809 0.8171 0.0
C1310 C 0.10295 0.85703 0.82298 0.0
C1311 C 0.10097 0.8455 0.84359 0.0
C1312 C 0.09593 0.87778 0.8235 0.0
C1313 C 0.09199 0.84581 0.80533 0.0
C1314 C 0.10489 0.84198 0.79119 0.0
C1315 C 0.09843 0.83062 0.77432 0.0
C1316 C 0.07845 0.82242 0.77224 0.0
C1317 C 0.06527 0.82532 0.78716 0.0
C1318 C 0.07206 0.8377 0.8035 0.0
H1319 H 0.27215 0.14765 0.84581 0.0
H1320 H 0.21262 0.1175 0.84501 0.0
H1321 H 0.22363 0.09007 0.82663 0.0
H1322 H 0.28504 0.13154 0.79645 0.0
H1323 H 0.31058 0.12851 0.80611 0.0
H1324 H 0.29719 0.14674 0.81654 0.0
H1325 H 0.30455 0.13117 0.85301 0.0
H1326 H 0.31802 0.11299 0.84271 0.0
H1327 H 0.29747 0.10528 0.85781 0.0
H1328 H 0.24231 0.0647 0.81034 0.0
H1329 H 0.26711 0.0432 0.80014 0.0
H1330 H 0.31455 0.08957 0.81375 0.0
C1331 C 0.26146 0.1353 0.84159 0.0
C1332 C 0.24159 0.13455 0.8468 0.0
C1333 C 0.22789 0.1183 0.84097 0.0
C1334 C 0.23403 0.10271 0.83056 0.0
C1335 C 0.25394 0.10362 0.82609 0.0
C1336 C 0.26745 0.11953 0.83151 0.0
C1337 C 0.28836 0.1163 0.82665 0.0
C1338 C 0.29572 0.13169 0.81047 0.0
C1339 C 0.30295 0.11643 0.84621 0.0
C1340 C 0.28466 0.09592 0.81808 0.0
C1341 C 0.26469 0.08893 0.81746 0.0
C1342 C 0.25797 0.07011 0.81064 0.0
C1343 C 0.27211 0.05802 0.80479 0.0
C1344 C 0.29272 0.0647 0.80616 0.0
C1345 C 0.29888 0.08403 0.81252 0.0
H1346 H 0.94336 0.19798 0.84605 0.0
H1347 H 0.90984 0.20697 0.78742 0.0
H1348 H 0.94149 0.21052 0.77049 0.0
H1349 H 0.97993 0.23489 0.83854 0.0
H1350 H 1.00025 0.22288 0.8522 0.0
H1351 H 0.97506 0.2165 0.85859 0.0
H1352 H 0.97832 0.17974 0.8523 0.0
H1353 H 1.00364 0.18602 0.84589 0.0
H1354 H 0.98562 0.17301 0.82809 0.0
H1355 H 0.97735 0.21794 0.76106 0.0
H1356 H 1.01302 0.23049 0.76032 0.0
H1357 H 0.02273 0.21803 0.82571 0.0
C1358 C 0.94278 0.19995 0.82955 0.0
C1359 C 0.92433 0.2017 0.81787 0.0
C1360 C 0.92388 0.205 0.79643 0.0
C1361 C 0.94178 0.2071 0.78678 0.0
C1362 C 0.95993 0.20589 0.79886 0.0
C1363 C 0.96047 0.20234 0.81983 0.0
C1364 C 0.9817 0.20445 0.82988 0.0
C1365 C 0.98438 0.22064 0.84572 0.0
C1366 C 0.98767 0.18462 0.83961 0.0
C1367 C 0.99307 0.21048 0.81145 0.0
C1368 C 0.98038 0.21079 0.7936 0.0
C1369 C 0.98743 0.21739 0.7749 0.0
C1370 C 1.00776 0.2244 0.77459 0.0
C1371 C 0.0207 0.22509 0.79293 0.0
C1372 C 1.01328 0.21745 0.8114 0.0
H1373 H 0.87608 0.92558 0.82897 0.0
H1374 H 0.82169 0.88714 0.81711 0.0
H1375 H 0.80528 0.91476 0.7985 0.0
H1376 H 0.85362 0.97035 0.83561 0.0
H1377 H 0.87164 0.98604 0.82225 0.0
H1378 H 0.87879 0.96353 0.8353 0.0
H1379 H 0.89014 0.95174 0.80174 0.0
H1380 H 0.88334 0.97434 0.78869 0.0
H1381 H 0.87287 0.95093 0.77899 0.0
H1382 H 0.79462 0.94719 0.78198 0.0
H1383 H 0.79211 0.98009 0.76455 0.0
H1384 H 0.85432 0.99663 0.785 0.0
C1385 C 0.86078 0.92304 0.82227 0.0
C1386 C 0.85002 0.90435 0.82452 0.0
C1387 C 0.83004 0.90145 0.81559 0.0
C1388 C 0.82063 0.91705 0.80511 0.0
C1389 C 0.83153 0.93543 0.80339 0.0
C1390 C 0.85131 0.93838 0.81139 0.0
C1391 C 0.86004 0.95923 0.80642 0.0
C1392 C 0.8664 0.97045 0.82607 0.0
C1393 C 0.87763 0.95904 0.79317 0.0
C1394 C 0.84212 0.96755 0.79441 0.0
C1395 C 0.8257 0.95372 0.79313 0.0
C1396 C 0.80741 0.95811 0.78286 0.0
C1397 C 0.80605 0.9769 0.77315 0.0
C1398 C 0.82297 0.99096 0.77349 0.0
C1399 C 0.8411 0.98622 0.78454 0.0
H1400 H 0.22775 0.15966 0.22915 0.0
H1401 H 0.18661 0.13405 0.18109 0.0
H1402 H 0.2025 0.10275 0.18611 0.0
H1403 H 0.27214 0.13155 0.22267 0.0
H1404 H 0.27789 0.12855 0.24997 0.0
H1405 H 0.26648 0.15012 0.23929 0.0
H1406 H 0.23785 0.14231 0.26286 0.0
H1407 H 0.24883 0.12047 0.27326 0.0
H1408 H 0.22334 0.11867 0.26178 0.0
H1409 H 0.22055 0.0731 0.19885 0.0
H1410 H 0.23923 0.04754 0.21819 0.0
H1411 H 0.26624 0.09124 0.26079 0.0
C1412 C 0.22299 0.14777 0.21895 0.0
C1413 C 0.2069 0.14971 0.20369 0.0
C1414 C 0.19985 0.13335 0.19173 0.0
C1415 C 0.20855 0.11538 0.19481 0.0
C1416 C 0.22399 0.11375 0.21039 0.0
C1417 C 0.23118 0.12953 0.22228 0.0
C1418 C 0.246 0.12316 0.23974 0.0
C1419 C 0.26687 0.13399 0.23779 0.0
C1420 C 0.23855 0.12635 0.26064 0.0
C1421 C 0.24582 0.10133 0.23596 0.0
C1422 C 0.23323 0.09627 0.21879 0.0
C1423 C 0.23051 0.07694 0.21228 0.0
C1424 C 0.24111 0.06248 0.22342 0.0
C1425 C 0.25404 0.06727 0.24115 0.0
C1426 C 0.25627 0.087 0.24749 0.0
H1427 H 0.22445 0.90836 0.86739 0.0
H1428 H 0.23968 0.86606 0.82598 0.0
H1429 H 0.27251 0.88519 0.82268 0.0
H1430 H 0.24247 0.94947 0.84046 0.0
H1431 H 0.25195 0.96389 0.86215 0.0
H1432 H 0.23171 0.94496 0.86454 0.0
H1433 H 0.25212 0.92835 0.89502 0.0
H1434 H 0.27247 0.94733 0.89278 0.0
H1435 H 0.27688 0.92172 0.8919 0.0
H1436 H 0.30074 0.9112 0.81969 0.0
H1437 H 0.3224 0.94243 0.81685 0.0
H1438 H 0.28899 0.9684 0.86003 0.0
C1439 C 0.23513 0.90289 0.85828 0.0
C1440 C 0.22995 0.88573 0.84714 0.0
C1441 C 0.24373 0.87912 0.83473 0.0
C1442 C 0.26233 0.88985 0.83286 0.0
C1443 C 0.26686 0.90712 0.84356 0.0
C1444 C 0.2537 0.91357 0.85613 0.0
C1445 C 0.26113 0.93378 0.86394 0.0
C1446 C 0.24591 0.94891 0.85737 0.0
C1447 C 0.26594 0.93273 0.8873 0.0
C1448 C 0.28004 0.93805 0.8531 0.0
C1449 C 0.28324 0.92232 0.84172 0.0
C1450 C 0.29865 0.92345 0.82888 0.0
C1451 C 0.31082 0.94123 0.82729 0.0
C1452 C 0.30751 0.95769 0.8384 0.0
C1453 C 0.29223 0.95586 0.85185 0.0
H1454 H 0.2147 0.21069 0.85826 0.0
H1455 H 0.18186 0.15819 0.88174 0.0
H1456 H 0.15022 0.17429 0.87534 0.0
H1457 H 0.18284 0.24722 0.87783 0.0
H1458 H 0.18508 0.26324 0.8553 0.0
H1459 H 0.2052 0.24855 0.86463 0.0
H1460 H 0.2037 0.23358 0.82901 0.0
H1461 H 0.18336 0.24787 0.81965 0.0
H1462 H 0.18044 0.22139 0.81811 0.0
H1463 H 0.12185 0.19398 0.8609 0.0
H1464 H 0.09913 0.21737 0.84339 0.0
H1465 H 0.15031 0.25807 0.83081 0.0
C1466 C 0.20091 0.20306 0.86289 0.0
C1467 C 0.2006 0.18345 0.871 0.0
C1468 C 0.18229 0.17342 0.87608 0.0
C1469 C 0.16431 0.18241 0.87232 0.0
C1470 C 0.16494 0.20156 0.86365 0.0
C1471 C 0.18284 0.21196 0.85941 0.0
C1472 C 0.17925 0.23187 0.84897 0.0
C1473 C 0.18865 0.24872 0.86249 0.0
C1474 C 0.18715 0.23378 0.82768 0.0
C1475 C 0.15654 0.23078 0.84735 0.0
C1476 C 0.14857 0.21315 0.85588 0.0
C1477 C 0.12794 0.20803 0.85462 0.0
C1478 C 0.11514 0.2213 0.84455 0.0
C1479 C 0.12294 0.23959 0.83606 0.0
C1480 C 0.14393 0.24439 0.83764 0.0
H1481 H 0.88171 0.18216 0.79168 0.0
H1482 H 0.89873 0.15235 0.84952 0.0
H1483 H 0.8922 0.12 0.8332 0.0
H1484 H 0.84183 0.14793 0.7754 0.0
H1485 H 0.84639 0.14964 0.74875 0.0
H1486 H 0.85394 0.1703 0.76464 0.0
H1487 H 0.89038 0.17064 0.75501 0.0
H1488 H 0.88291 0.15002 0.73896 0.0
H1489 H 0.90309 0.14846 0.75894 0.0
H1490 H 0.88088 0.091 0.81112 0.0
H1491 H 0.8668 0.0675 0.78478 0.0
H1492 H 0.85826 0.11633 0.74091 0.0
C1493 C 0.88454 0.16879 0.80067 0.0
C1494 C 0.89084 0.16955 0.82173 0.0
C1495 C 0.8939 0.15187 0.83333 0.0
C1496 C 0.89028 0.13353 0.82417 0.0
C1497 C 0.88378 0.13321 0.80336 0.0
C1498 C 0.88109 0.1504 0.7917 0.0
C1499 C 0.87317 0.14598 0.76986 0.0
C1500 C 0.85261 0.15393 0.76435 0.0
C1501 C 0.88829 0.15426 0.7548 0.0
C1502 C 0.87141 0.12361 0.77113 0.0
C1503 C 0.87764 0.11653 0.79057 0.0
C1504 C 0.87625 0.09638 0.79578 0.0
C1505 C 0.86817 0.08315 0.78078 0.0
C1506 C 0.86168 0.09006 0.76077 0.0
C1507 C 0.86356 0.11058 0.75591 0.0
H1508 H 0.88739 0.84149 0.81663 0.0
H1509 H 0.90306 0.85567 0.88002 0.0
H1510 H 0.93216 0.83584 0.88128 0.0
H1511 H 0.90384 0.79163 0.81962 0.0
H1512 H 0.91369 0.79446 0.79498 0.0
H1513 H 0.89291 0.80775 0.79991 0.0
H1514 H 0.91274 0.84067 0.78972 0.0
H1515 H 0.9336 0.8275 0.78485 0.0
H1516 H 0.93718 0.84715 0.80259 0.0
H1517 H 0.96095 0.81611 0.87477 0.0
H1518 H 0.98691 0.79852 0.86132 0.0
H1519 H 0.95369 0.79883 0.80134 0.0
C1520 C 0.89693 0.84037 0.83079 0.0
C1521 C 0.89296 0.85019 0.84826 0.0
C1522 C 0.90563 0.84808 0.86657 0.0
C1523 C 0.92228 0.83695 0.86735 0.0
C1524 C 0.92615 0.82804 0.84964 0.0
C1525 C 0.91379 0.82962 0.83169 0.0
C1526 C 0.9219 0.81966 0.81445 0.0
C1527 C 0.90721 0.80235 0.8068 0.0
C1528 C 0.92664 0.83464 0.79686 0.0
C1529 C 0.9409 0.81241 0.8254 0.0
C1530 C 0.94295 0.8172 0.84575 0.0
C1531 C 0.95938 0.8122 0.8589 0.0
C1532 C 0.97406 0.8021 0.8511 0.0
C1533 C 0.97246 0.79716 0.83024 0.0
C1534 C 0.95553 0.80245 0.8173 0.0
H1535 H 0.85773 0.88394 0.22542 0.0
H1536 H 0.8688 0.91503 0.16801 0.0
H1537 H 0.85389 0.94419 0.17921 0.0
H1538 H 0.81115 0.9042 0.23353 0.0
H1539 H 0.81747 0.90616 0.26069 0.0
H1540 H 0.82716 0.88728 0.24726 0.0
H1541 H 0.86339 0.89984 0.26061 0.0
H1542 H 0.85381 0.91861 0.27421 0.0
H1543 H 0.87207 0.92542 0.25618 0.0
H1544 H 0.83807 0.97028 0.19747 0.0
H1545 H 0.82658 0.99201 0.22233 0.0
H1546 H 0.82848 0.94433 0.26856 0.0
C1547 C 0.85688 0.89691 0.21525 0.0
C1548 C 0.86417 0.89731 0.19581 0.0
C1549 C 0.86302 0.91448 0.18286 0.0
C1550 C 0.85459 0.93104 0.18911 0.0
C1551 C 0.84757 0.93023 0.20847 0.0
C1552 C 0.84888 0.91365 0.22143 0.0
C1553 C 0.84178 0.917 0.24205 0.0
C1554 C 0.82329 0.90281 0.24611 0.0
C1555 C 0.85878 0.91511 0.25927 0.0
C1556 C 0.83643 0.93809 0.23878 0.0
C1557 C 0.83948 0.9454 0.21921 0.0
C1558 C 0.83563 0.96467 0.21283 0.0
C1559 C 0.829 0.97688 0.22697 0.0
C1560 C 0.82666 0.96986 0.24733 0.0
C1561 C 0.83016 0.95012 0.25309 0.0
H1562 H 0.16127 0.83662 0.17999 0.0
H1563 H 0.19837 0.78845 0.19463 0.0
H1564 H 0.16938 0.76778 0.20709 0.0
H1565 H 0.13458 0.82928 0.22452 0.0
H1566 H 0.1112 0.836 0.21162 0.0
H1567 H 0.13452 0.84618 0.20249 0.0
H1568 H 0.12268 0.83304 0.16656 0.0
H1569 H 0.0994 0.82263 0.17568 0.0
H1570 H 0.11494 0.80714 0.164 0.0
H1571 H 0.13627 0.75277 0.21922 0.0
H1572 H 0.10292 0.74577 0.23227 0.0
H1573 H 0.08788 0.80419 0.2105 0.0
C1574 C 0.16322 0.82171 0.1858 0.0
C1575 C 0.18197 0.81401 0.18612 0.0
C1576 C 0.18401 0.79445 0.19387 0.0
C1577 C 0.16764 0.78265 0.20102 0.0
C1578 C 0.14929 0.79064 0.20042 0.0
C1579 C 0.14705 0.80979 0.19314 0.0
C1580 C 0.12609 0.81526 0.19521 0.0
C1581 C 0.12664 0.83271 0.2093 0.0
C1582 C 0.11514 0.81978 0.1741 0.0
C1583 C 0.11696 0.79631 0.20501 0.0
C1584 C 0.13047 0.78217 0.2077 0.0
C1585 C 0.12553 0.76371 0.21706 0.0
C1586 C 0.1065 0.75979 0.22432 0.0
C1587 C 0.09269 0.77435 0.22234 0.0
C1588 C 0.09799 0.79266 0.21216 0.0
H1589 H 0.89547 0.20523 0.21758 0.0
H1590 H 0.92059 0.18204 0.16672 0.0
H1591 H 0.95473 0.19453 0.18077 0.0
H1592 H 0.92617 0.2493 0.21988 0.0
H1593 H 0.92903 0.25033 0.24739 0.0
H1594 H 0.90694 0.23755 0.23483 0.0
H1595 H 0.91355 0.20555 0.25645 0.0
H1596 H 0.93542 0.21837 0.26946 0.0
H1597 H 0.93757 0.19584 0.25691 0.0
H1598 H 0.98531 0.21247 0.19848 0.0
H1599 H 1.01114 0.2314 0.2207 0.0
H1600 H 0.96589 0.24309 0.26019 0.0
C1601 C 0.90833 0.20229 0.20992 0.0
C1602 C 0.90577 0.19253 0.19135 0.0
C1603 C 0.92261 0.18927 0.18117 0.0
C1604 C 0.9419 0.19642 0.18896 0.0
C1605 C 0.94395 0.2067 0.20696 0.0
C1606 C 0.92767 0.20935 0.21751 0.0
C1607 C 0.93386 0.22166 0.23601 0.0
C1608 C 0.92338 0.24084 0.23442 0.0
C1609 C 0.92987 0.20964 0.25589 0.0
C1610 C 0.95608 0.22581 0.23399 0.0
C1611 C 0.96159 0.21707 0.21713 0.0
C1612 C 0.98123 0.21921 0.21185 0.0
C1613 C 0.99576 0.23013 0.22448 0.0
C1614 C 0.99056 0.23873 0.2422 0.0
C1615 C 0.97037 0.23672 0.24677 0.0
H1616 H 0.21248 0.68625 0.64385 0.0
H1617 H 0.22105 0.7418 0.67409 0.0
H1618 H 0.24028 0.75681 0.64611 0.0
H1619 H 0.26293 0.69018 0.62549 0.0
H1620 H 0.25404 0.67848 0.60191 0.0
H1621 H 0.24141 0.67225 0.62464 0.0
H1622 H 0.20807 0.68115 0.60493 0.0
H1623 H 0.22066 0.6878 0.58226 0.0
H1624 H 0.20659 0.70539 0.59284 0.0
H1625 H 0.25646 0.76646 0.61335 0.0
H1626 H 0.2726 0.76868 0.58088 0.0
H1627 H 0.25538 0.70634 0.57288 0.0
C1628 C 0.21883 0.70141 0.64475 0.0
C1629 C 0.21513 0.71296 0.661 0.0
C1630 C 0.22348 0.73284 0.66158 0.0
C1631 C 0.23441 0.74147 0.64577 0.0
C1632 C 0.23722 0.72993 0.62956 0.0
C1633 C 0.23006 0.7102 0.62916 0.0
C1634 C 0.23548 0.70103 0.6101 0.0
C1635 C 0.24929 0.68451 0.61588 0.0
C1636 C 0.21657 0.6934 0.59675 0.0
C1637 C 0.24649 0.71873 0.59974 0.0
C1638 C 0.24718 0.73531 0.61112 0.0
C1639 C 0.25615 0.75352 0.60439 0.0
C1640 C 0.26512 0.75471 0.58582 0.0
C1641 C 0.26524 0.73774 0.57428 0.0
C1642 C 0.25557 0.71961 0.58133 0.0
H1643 H 0.84103 0.72583 0.6289 0.0
H1644 H 0.8541 0.67369 0.59972 0.0
H1645 H 0.83473 0.68445 0.56776 0.0
H1646 H 0.79097 0.7331 0.60006 0.0
H1647 H 0.79683 0.75948 0.59849 0.0
H1648 H 0.80686 0.74516 0.62027 0.0
H1649 H 0.84281 0.75958 0.61363 0.0
H1650 H 0.83288 0.77389 0.59198 0.0
H1651 H 0.85151 0.75724 0.58884 0.0
H1652 H 0.81872 0.70352 0.53765 0.0
H1653 H 0.81037 0.73007 0.51183 0.0
H1654 H 0.81067 0.77085 0.56024 0.0
C1655 C 0.83935 0.71651 0.61588 0.0
C1656 C 0.84883 0.6989 0.61669 0.0
C1657 C 0.84654 0.68703 0.59944 0.0
C1658 C 0.8356 0.69306 0.58127 0.0
C1659 C 0.8271 0.711 0.58068 0.0
C1660 C 0.82892 0.72256 0.5976 0.0
C1661 C 0.82145 0.7426 0.59229 0.0
C1662 C 0.80292 0.74523 0.60344 0.0
C1663 C 0.83816 0.75929 0.59695 0.0
C1664 C 0.81602 0.7409 0.56954 0.0
C1665 C 0.81871 0.72237 0.56319 0.0
C1666 C 0.81615 0.71793 0.54251 0.0
C1667 C 0.81133 0.733 0.52797 0.0
C1668 C 0.80957 0.7522 0.53427 0.0
C1669 C 0.81148 0.75606 0.55524 0.0
H1670 H 0.88016 0.31846 0.67736 0.0
H1671 H 0.909 0.36719 0.64327 0.0
H1672 H 0.90384 0.34793 0.6119 0.0
H1673 H 0.89797 0.27767 0.64919 0.0
H1674 H 0.87443 0.2628 0.65004 0.0
H1675 H 0.88311 0.27924 0.67035 0.0
H1676 H 0.84991 0.29583 0.66451 0.0
H1677 H 0.84121 0.27963 0.64408 0.0
H1678 H 0.84225 0.30599 0.63941 0.0
H1679 H 0.8915 0.32541 0.58354 0.0
H1680 H 0.87425 0.30039 0.5603 0.0
H1681 H 0.85355 0.26564 0.61247 0.0
C1682 C 0.88606 0.32461 0.66343 0.0
C1683 C 0.89556 0.34399 0.66268 0.0
C1684 C 0.90225 0.35213 0.64407 0.0
C1685 C 0.89928 0.34133 0.62624 0.0
C1686 C 0.88948 0.32238 0.62726 0.0
C1687 C 0.88313 0.31396 0.64541 0.0
C1688 C 0.87151 0.294 0.64189 0.0
C1689 C 0.88241 0.27745 0.65356 0.0
C1690 C 0.84995 0.29387 0.64782 0.0
C1691 C 0.87189 0.29277 0.61891 0.0
C1692 C 0.88241 0.30927 0.6108 0.0
C1693 C 0.88356 0.31225 0.58976 0.0
C1694 C 0.87367 0.29803 0.57666 0.0
C1695 C 0.86285 0.28097 0.58458 0.0
C1696 C 0.86217 0.27826 0.60603 0.0
H1697 H 0.26086 0.34063 0.66832 0.0
H1698 H 0.24377 0.39991 0.65551 0.0
H1699 H 0.26464 0.40361 0.62623 0.0
H1700 H 0.3124 0.3484 0.65097 0.0
H1701 H 0.30996 0.3246 0.63973 0.0
H1702 H 0.2971 0.32814 0.6619 0.0
H1703 H 0.26343 0.31554 0.64237 0.0
H1704 H 0.27612 0.31201 0.62017 0.0
H1705 H 0.25556 0.32731 0.61812 0.0
H1706 H 0.28375 0.399 0.59562 0.0
H1707 H 0.29889 0.38669 0.56655 0.0
H1708 H 0.30212 0.32964 0.59853 0.0
C1709 C 0.26199 0.35455 0.65963 0.0
C1710 C 0.25092 0.37008 0.66425 0.0
C1711 C 0.25251 0.38803 0.65249 0.0
C1712 C 0.26421 0.39017 0.63575 0.0
C1713 C 0.27424 0.3742 0.63103 0.0
C1714 C 0.27332 0.35675 0.64275 0.0
C1715 C 0.28356 0.34106 0.63327 0.0
C1716 C 0.30185 0.33521 0.64731 0.0
C1717 C 0.26878 0.32292 0.62818 0.0
C1718 C 0.28985 0.35216 0.61403 0.0
C1719 C 0.28468 0.37135 0.61317 0.0
C1720 C 0.28812 0.38409 0.59632 0.0
C1721 C 0.29682 0.37697 0.57986 0.0
C1722 C 0.30178 0.35718 0.58019 0.0
C1723 C 0.29847 0.34481 0.59773 0.0
H1724 H 0.21715 0.33107 0.3919 0.0
H1725 H 0.20271 0.38948 0.40436 0.0
H1726 H 0.21718 0.38512 0.44042 0.0
H1727 H 0.20727 0.30725 0.44025 0.0
H1728 H 0.22814 0.29239 0.44157 0.0
H1729 H 0.21635 0.30007 0.41705 0.0
H1730 H 0.25049 0.31604 0.40641 0.0
H1731 H 0.26244 0.30823 0.43079 0.0
H1732 H 0.26491 0.33391 0.42252 0.0
H1733 H 0.232 0.37357 0.47518 0.0
H1734 H 0.2502 0.35788 0.50513 0.0
H1735 H 0.25674 0.30752 0.46921 0.0
C1736 C 0.21718 0.34287 0.40234 0.0
C1737 C 0.20889 0.36056 0.39575 0.0
C1738 C 0.20913 0.3759 0.40943 0.0
C1739 C 0.21717 0.37346 0.42983 0.0
C1740 C 0.22504 0.35567 0.43603 0.0
C1741 C 0.22543 0.34078 0.42259 0.0
C1742 C 0.23555 0.32348 0.43281 0.0
C1743 C 0.22095 0.30469 0.43293 0.0
C1744 C 0.25447 0.32023 0.42253 0.0
C1745 C 0.24074 0.3309 0.45417 0.0
C1746 C 0.23429 0.34937 0.45578 0.0
C1747 C 0.23721 0.35915 0.47408 0.0
C1748 C 0.24746 0.35005 0.49105 0.0
C1749 C 0.25491 0.33148 0.4895 0.0
C1750 C 0.25123 0.32172 0.47086 0.0
H1751 H 0.25636 0.67615 0.37486 0.0
H1752 H 0.19395 0.6726 0.38635 0.0
H1753 H 0.20356 0.68795 0.41977 0.0
H1754 H 0.27329 0.66008 0.42408 0.0
H1755 H 0.29676 0.67529 0.4253 0.0
H1756 H 0.28477 0.66765 0.40093 0.0
H1757 H 0.28503 0.70413 0.38763 0.0
H1758 H 0.29727 0.71192 0.41189 0.0
H1759 H 0.27414 0.7216 0.40191 0.0
H1760 H 0.22076 0.70147 0.45337 0.0
H1761 H 0.24359 0.71099 0.48394 0.0
H1762 H 0.2947 0.70195 0.45151 0.0
C1763 C 0.24472 0.67892 0.3843 0.0
C1764 C 0.2244 0.67334 0.378 0.0
C1765 C 0.20954 0.67717 0.39069 0.0
C1766 C 0.21492 0.68571 0.40977 0.0
C1767 C 0.23524 0.69018 0.41594 0.0
C1768 C 0.24989 0.6869 0.4035 0.0
C1769 C 0.27068 0.69107 0.41428 0.0
C1770 C 0.28203 0.67241 0.41626 0.0
C1771 C 0.28247 0.7082 0.40327 0.0
C1772 C 0.26554 0.69693 0.43493 0.0
C1773 C 0.24504 0.6967 0.4355 0.0
C1774 C 0.23681 0.70169 0.45302 0.0
C1775 C 0.24984 0.70706 0.4703 0.0
C1776 C 0.27083 0.70699 0.47012 0.0
C1777 C 0.27869 0.70184 0.45216 0.0
H1778 H 0.87837 0.73018 0.36226 0.0
H1779 H 0.87715 0.67526 0.39847 0.0
H1780 H 0.86737 0.69231 0.42788 0.0
H1781 H 0.89899 0.76196 0.40424 0.0
H1782 H 0.88427 0.7819 0.39509 0.0
H1783 H 0.89179 0.76544 0.37723 0.0
H1784 H 0.8547 0.7576 0.36336 0.0
H1785 H 0.84706 0.77397 0.38119 0.0
H1786 H 0.83655 0.74863 0.38088 0.0
H1787 H 0.85563 0.71486 0.45238 0.0
H1788 H 0.84394 0.74164 0.47089 0.0
H1789 H 0.85438 0.78247 0.41946 0.0
C1790 C 0.87634 0.72189 0.37652 0.0
C1791 C 0.87841 0.70142 0.37819 0.0
C1792 C 0.87539 0.6909 0.39693 0.0
C1793 C 0.86996 0.70049 0.41368 0.0
C1794 C 0.86783 0.72066 0.4115 0.0
C1795 C 0.87109 0.7313 0.39345 0.0
C1796 C 0.86744 0.75277 0.39501 0.0
C1797 C 0.88677 0.76632 0.39276 0.0
C1798 C 0.85042 0.75857 0.37917 0.0
C1799 C 0.86129 0.75249 0.41664 0.0
C1800 C 0.86161 0.7338 0.42585 0.0
C1801 C 0.85554 0.7296 0.44541 0.0
C1802 C 0.84885 0.74484 0.45577 0.0
C1803 C 0.84841 0.7641 0.44666 0.0
C1804 C 0.85494 0.76797 0.42692 0.0
H1805 H 0.88542 0.33731 0.41075 0.0
H1806 H 0.82825 0.34257 0.37566 0.0
H1807 H 0.81076 0.32639 0.40433 0.0
H1808 H 0.87103 0.28818 0.43442 0.0
H1809 H 0.88552 0.29362 0.45832 0.0
H1810 H 0.8933 0.30513 0.43473 0.0
H1811 H 0.89323 0.33944 0.44994 0.0
H1812 H 0.88502 0.32806 0.47341 0.0
H1813 H 0.8707 0.34622 0.45941 0.0
H1814 H 0.79933 0.312 0.43816 0.0
H1815 H 0.79514 0.29555 0.47221 0.0
H1816 H 0.85969 0.29764 0.48462 0.0
C1817 C 0.86926 0.33461 0.40899 0.0
C1818 C 0.85813 0.34143 0.39108 0.0
C1819 C 0.83699 0.33775 0.38938 0.0
C1820 C 0.82694 0.3286 0.4056 0.0
C1821 C 0.83825 0.32279 0.4234 0.0
C1822 C 0.85897 0.3252 0.42501 0.0
C1823 C 0.86753 0.31727 0.44571 0.0
C1824 C 0.88008 0.30002 0.44314 0.0
C1825 C 0.87985 0.33374 0.45783 0.0
C1826 C 0.84842 0.31029 0.45554 0.0
C1827 C 0.83168 0.31381 0.44251 0.0
C1828 C 0.81236 0.30904 0.44842 0.0
C1829 C 0.81009 0.29989 0.46789 0.0
C1830 C 0.82704 0.29539 0.48115 0.0
C1831 C 0.84642 0.30093 0.47487 0.0
H1832 H 0.14118 0.68829 0.70707 0.0
H1833 H 0.18305 0.7401 0.71573 0.0
H1834 H 0.15933 0.75478 0.73575 0.0
H1835 H 0.09653 0.71357 0.70101 0.0
H1836 H 0.08163 0.69491 0.71473 0.0
H1837 H 0.10211 0.68818 0.70167 0.0
H1838 H 0.11764 0.67229 0.73542 0.0
H1839 H 0.09718 0.67896 0.74859 0.0
H1840 H 0.12262 0.68678 0.75787 0.0
H1841 H 0.13071 0.76433 0.75378 0.0
H1842 H 0.09934 0.76807 0.76908 0.0
H1843 H 0.0755 0.70996 0.74938 0.0
C1844 C 0.14534 0.70261 0.71344 0.0
C1845 C 0.16395 0.71313 0.70994 0.0
C1846 C 0.16885 0.73193 0.71823 0.0
C1847 C 0.15549 0.74032 0.72964 0.0
C1848 C 0.13721 0.72969 0.73273 0.0
C1849 C 0.1321 0.71121 0.72496 0.0
C1850 C 0.11129 0.70317 0.73027 0.0
C1851 C 0.09705 0.69976 0.71076 0.0
C1852 C 0.11225 0.68417 0.74385 0.0
C1853 C 0.10547 0.72005 0.74209 0.0
C1854 C 0.12068 0.73518 0.7433 0.0
C1855 C 0.11872 0.75255 0.75297 0.0
C1856 C 0.10077 0.75458 0.76155 0.0
C1857 C 0.08484 0.73936 0.76052 0.0
C1858 C 0.08741 0.72179 0.75073 0.0
H1859 H 0.8532 0.66421 0.69059 0.0
H1860 H 0.91142 0.66191 0.66882 0.0
H1861 H 0.91906 0.63562 0.69517 0.0
H1862 H 0.86768 0.65307 0.74547 0.0
H1863 H 0.84462 0.63799 0.74869 0.0
H1864 H 0.84504 0.65835 0.73006 0.0
H1865 H 0.83021 0.63461 0.70169 0.0
H1866 H 0.82978 0.61423 0.72021 0.0
H1867 H 0.84281 0.61317 0.69764 0.0
H1868 H 0.91891 0.60759 0.72193 0.0
H1869 H 0.9107 0.57953 0.74603 0.0
H1870 H 0.85209 0.59974 0.74959 0.0
C1871 C 0.86762 0.65826 0.69168 0.0
C1872 C 0.88183 0.66494 0.67792 0.0
C1873 C 0.90054 0.65699 0.67951 0.0
C1874 C 0.90493 0.64209 0.69435 0.0
C1875 C 0.8904 0.63541 0.70746 0.0
C1876 C 0.87211 0.64327 0.70626 0.0
C1877 C 0.85845 0.63249 0.72097 0.0
C1878 C 0.85367 0.6463 0.73727 0.0
C1879 C 0.83918 0.62306 0.70943 0.0
C1880 C 0.87169 0.61699 0.73023 0.0
C1881 C 0.89016 0.61908 0.72251 0.0
C1882 C 0.90456 0.60594 0.72825 0.0
C1883 C 0.89982 0.59009 0.742 0.0
C1884 C 0.88075 0.58741 0.74964 0.0
C1885 C 0.86672 0.60129 0.74388 0.0
H1886 H 0.91923 0.3423 0.73192 0.0
H1887 H 0.93798 0.35307 0.67087 0.0
H1888 H 0.96947 0.33788 0.68178 0.0
H1889 H 0.96623 0.35613 0.75755 0.0
H1890 H 0.96402 0.33809 0.77845 0.0
H1891 H 0.94187 0.34713 0.76511 0.0
H1892 H 0.92758 0.31138 0.7572 0.0
H1893 H 0.9496 0.30218 0.77072 0.0
H1894 H 0.94231 0.2958 0.74458 0.0
H1895 H 1.0001 0.32359 0.70038 0.0
H1896 H 0.02701 0.31142 0.7247 0.0
H1897 H 0.98891 0.31187 0.77419 0.0
C1898 C 0.92985 0.34108 0.72079 0.0
C1899 C 0.92605 0.34851 0.70045 0.0
C1900 C 0.94032 0.34694 0.68633 0.0
C1901 C 0.95834 0.33852 0.69249 0.0
C1902 C 0.96188 0.33186 0.71287 0.0
C1903 C 0.94797 0.33301 0.72679 0.0
C1904 C 0.95589 0.32615 0.74811 0.0
C1905 C 0.95707 0.34287 0.76319 0.0
C1906 C 0.94308 0.30778 0.75559 0.0
C1907 C 0.97657 0.32117 0.74413 0.0
C1908 C 0.97968 0.32436 0.72367 0.0
C1909 C 0.99775 0.32094 0.71639 0.0
C1910 C 1.01294 0.31399 0.73032 0.0
C1911 C 1.01014 0.31071 0.75138 0.0
C1912 C 0.99165 0.31443 0.75827 0.0
H1913 H 0.22222 0.41445 0.68684 0.0
H1914 H 0.2696 0.38133 0.71573 0.0
H1915 H 0.2859 0.41168 0.73206 0.0
H1916 H 0.25416 0.46045 0.67679 0.0
H1917 H 0.23487 0.47577 0.68154 0.0
H1918 H 0.22816 0.45166 0.67156 0.0
H1919 H 0.2065 0.44262 0.70179 0.0
H1920 H 0.21358 0.46651 0.71218 0.0
H1921 H 0.2179 0.44446 0.72769 0.0
H1922 H 0.29514 0.44544 0.74744 0.0
H1923 H 0.29961 0.48052 0.75631 0.0
H1924 H 0.24656 0.49173 0.71609 0.0
C1925 C 0.23636 0.41387 0.69611 0.0
C1926 C 0.24501 0.39584 0.6998 0.0
C1927 C 0.26316 0.39523 0.71244 0.0
C1928 C 0.27231 0.4123 0.7219 0.0
C1929 C 0.2631 0.42984 0.71841 0.0
C1930 C 0.24575 0.43081 0.70542 0.0
C1931 C 0.23879 0.45136 0.70416 0.0
C1932 C 0.23902 0.46035 0.68222 0.0
C1933 C 0.21796 0.45122 0.71192 0.0
C1934 C 0.25479 0.46184 0.71862 0.0
C1935 C 0.26856 0.44915 0.7269 0.0
C1936 C 0.28448 0.45549 0.74094 0.0
C1937 C 0.28676 0.47542 0.74609 0.0
C1938 C 0.27333 0.48887 0.73704 0.0
C1939 C 0.25699 0.4818 0.72338 0.0
H1940 H 0.16763 0.32 0.33983 0.0
H1941 H 0.14817 0.37847 0.32824 0.0
H1942 H 0.11627 0.36416 0.31038 0.0
H1943 H 0.14156 0.29685 0.29237 0.0
H1944 H 0.13547 0.27402 0.30646 0.0
H1945 H 0.15815 0.28922 0.31391 0.0
H1946 H 0.14737 0.29004 0.35067 0.0
H1947 H 0.12468 0.275 0.34336 0.0
H1948 H 0.12348 0.29856 0.35427 0.0
H1949 H 0.0846 0.34276 0.2985 0.0
H1950 H 0.05625 0.31666 0.2949 0.0
H1951 H 0.09667 0.27257 0.31608 0.0
C1952 C 0.15681 0.32973 0.33298 0.0
C1953 C 0.16017 0.35023 0.3352 0.0
C1954 C 0.14579 0.36271 0.32634 0.0
C1955 C 0.12771 0.35469 0.31623 0.0
C1956 C 0.12444 0.33421 0.31504 0.0
C1957 C 0.13874 0.32194 0.32308 0.0
C1958 C 0.13083 0.30046 0.32233 0.0
C1959 C 0.14218 0.2895 0.3079 0.0
C1960 C 0.13163 0.29045 0.34393 0.0
C1961 C 0.10955 0.30253 0.31351 0.0
C1962 C 0.10619 0.32202 0.30888 0.0
C1963 C 0.08717 0.32744 0.30177 0.0
C1964 C 0.07118 0.31257 0.29976 0.0
C1965 C 0.07435 0.29271 0.30531 0.0
C1966 C 0.09384 0.28768 0.31177 0.0
H1967 H 0.25997 0.63465 0.33206 0.0
H1968 H 0.19959 0.60766 0.31901 0.0
H1969 H 0.21288 0.58002 0.30288 0.0
H1970 H 0.28109 0.61961 0.28667 0.0
H1971 H 0.30465 0.61511 0.30076 0.0
H1972 H 0.29002 0.63359 0.30884 0.0
H1973 H 0.29012 0.61641 0.34499 0.0
H1974 H 0.3048 0.59797 0.33706 0.0
H1975 H 0.28131 0.59065 0.3475 0.0
H1976 H 0.23383 0.55402 0.28997 0.0
H1977 H 0.25985 0.53203 0.28376 0.0
H1978 H 0.30594 0.57604 0.30734 0.0
C1979 C 0.24956 0.62296 0.3257 0.0
C1980 C 0.22878 0.62325 0.32672 0.0
C1981 C 0.21556 0.60779 0.31812 0.0
C1982 C 0.223 0.59204 0.309 0.0
C1983 C 0.24371 0.59201 0.30862 0.0
C1984 C 0.25674 0.60714 0.31682 0.0
C1985 C 0.27834 0.60316 0.31601 0.0
C1986 C 0.28916 0.6188 0.30225 0.0
C1987 C 0.28928 0.60197 0.33767 0.0
C1988 C 0.27554 0.58325 0.30643 0.0
C1989 C 0.25552 0.57709 0.3019 0.0
C1990 C 0.24953 0.55881 0.29337 0.0
C1991 C 0.26438 0.54644 0.2898 0.0
C1992 C 0.28488 0.55231 0.29509 0.0
C1993 C 0.29038 0.57109 0.30316 0.0
H1994 H 0.90637 0.71332 0.30724 0.0
H1995 H 0.92021 0.65416 0.32607 0.0
H1996 H 0.95015 0.6585 0.30643 0.0
H1997 H 0.92793 0.71673 0.25562 0.0
H1998 H 0.93744 0.74205 0.25943 0.0
H1999 H 0.91462 0.73221 0.26995 0.0
H2000 H 0.92969 0.7428 0.30596 0.0
H2001 H 0.9525 0.75249 0.29566 0.0
H2002 H 0.95317 0.73418 0.31647 0.0
H2003 H 0.98216 0.67204 0.29014 0.0
H2004 H 1.0122 0.69317 0.28025 0.0
H2005 H 0.97756 0.74379 0.27397 0.0
C2006 C 0.91529 0.70104 0.30642 0.0
C2007 C 0.91098 0.68335 0.31788 0.0
C2008 C 0.92311 0.66766 0.31699 0.0
C2009 C 0.94018 0.67009 0.30596 0.0
C2010 C 0.94476 0.68826 0.29577 0.0
C2011 C 0.93243 0.70339 0.29577 0.0
C2012 C 0.94191 0.72242 0.28658 0.0
C2013 C 0.92975 0.72872 0.26671 0.0
C2014 C 0.94448 0.73892 0.30209 0.0
C2015 C 0.9619 0.71598 0.28223 0.0
C2016 C 0.96321 0.69613 0.28708 0.0
C2017 C 0.98107 0.68748 0.28587 0.0
C2018 C 0.99805 0.69952 0.28015 0.0
C2019 C 0.99706 0.72001 0.27613 0.0
C2020 C 0.97861 0.72808 0.27665 0.0
H2021 H 0.84251 0.39318 0.33098 0.0
H2022 H 0.905 0.4082 0.35098 0.0
H2023 H 0.90448 0.43956 0.33017 0.0
H2024 H 0.84407 0.41301 0.27928 0.0
H2025 H 0.81977 0.42226 0.27785 0.0
H2026 H 0.82504 0.40112 0.29439 0.0
H2027 H 0.81508 0.41881 0.32535 0.0
H2028 H 0.80969 0.43997 0.30888 0.0
H2029 H 0.82718 0.44286 0.33132 0.0
H2030 H 0.89715 0.46912 0.30681 0.0
H2031 H 0.88351 0.49516 0.28366 0.0
H2032 H 0.8255 0.46112 0.27867 0.0
C2033 C 0.85598 0.40321 0.33106 0.0
C2034 C 0.87385 0.39832 0.34251 0.0
C2035 C 0.89127 0.41166 0.34215 0.0
C2036 C 0.89106 0.42949 0.33042 0.0
C2037 C 0.87327 0.43382 0.31914 0.0
C2038 C 0.85601 0.42111 0.31942 0.0
C2039 C 0.83888 0.42933 0.30591 0.0
C2040 C 0.83152 0.41561 0.28832 0.0
C2041 C 0.82169 0.43296 0.31863 0.0
C2042 C 0.8492 0.44863 0.298 0.0
C2043 C 0.86904 0.45089 0.30578 0.0
C2044 C 0.88163 0.46747 0.30062 0.0
C2045 C 0.87375 0.48218 0.28729 0.0
C2046 C 0.85338 0.48034 0.27919 0.0
C2047 C 0.84105 0.4632 0.28467 0.0
H2048 H 0.2085 0.65695 0.66979 0.0
H2049 H 0.23609 0.69654 0.71588 0.0
H2050 H 0.26252 0.67386 0.72525 0.0
H2051 H 0.21577 0.61285 0.69757 0.0
H2052 H 0.22141 0.59911 0.67644 0.0
H2053 H 0.20602 0.61934 0.67182 0.0
H2054 H 0.23008 0.63605 0.64637 0.0
H2055 H 0.24551 0.61577 0.65071 0.0
H2056 H 0.25636 0.64069 0.65452 0.0
H2057 H 0.28336 0.64515 0.73227 0.0
H2058 H 0.29886 0.61357 0.73487 0.0
H2059 H 0.25888 0.59262 0.68324 0.0
C2060 C 0.22054 0.66104 0.68134 0.0
C2061 C 0.22065 0.67862 0.6919 0.0
C2062 C 0.23613 0.6833 0.70745 0.0
C2063 C 0.25108 0.67047 0.71287 0.0
C2064 C 0.25042 0.65303 0.70247 0.0
C2065 C 0.23573 0.64841 0.6868 0.0
C2066 C 0.238 0.62831 0.67871 0.0
C2067 C 0.21918 0.61406 0.6813 0.0
C2068 C 0.24278 0.63032 0.65625 0.0
C2069 C 0.25584 0.62206 0.69269 0.0
C2070 C 0.26277 0.63659 0.70626 0.0
C2071 C 0.27826 0.63381 0.72152 0.0
C2072 C 0.28689 0.61577 0.72298 0.0
C2073 C 0.28019 0.60066 0.70921 0.0
C2074 C 0.26456 0.60401 0.69373 0.0
H2075 H 0.20843 0.41426 0.35015 0.0
H2076 H 0.24246 0.3658 0.37327 0.0
H2077 H 0.2738 0.38797 0.37362 0.0
H2078 H 0.24214 0.4331 0.31515 0.0
H2079 H 0.23853 0.45865 0.31802 0.0
H2080 H 0.21874 0.43977 0.32269 0.0
H2081 H 0.21749 0.45241 0.35907 0.0
H2082 H 0.23736 0.47132 0.35452 0.0
H2083 H 0.23999 0.45436 0.37638 0.0
H2084 H 0.30159 0.41478 0.36852 0.0
H2085 H 0.32363 0.44323 0.35644 0.0
H2086 H 0.27145 0.47373 0.33507 0.0
C2087 C 0.2225 0.40845 0.35546 0.0
C2088 C 0.22311 0.38846 0.36193 0.0
C2089 C 0.24171 0.38122 0.36874 0.0
C2090 C 0.25955 0.39368 0.3689 0.0
C2091 C 0.25849 0.41331 0.3621 0.0
C2092 C 0.24042 0.42062 0.35543 0.0
C2093 C 0.24347 0.44168 0.34704 0.0
C2094 C 0.23524 0.44339 0.32438 0.0
C2095 C 0.23402 0.45578 0.36004 0.0
C2096 C 0.26609 0.44492 0.34954 0.0
C2097 C 0.27449 0.42853 0.3586 0.0
C2098 C 0.29518 0.42778 0.36164 0.0
C2099 C 0.30759 0.44405 0.35483 0.0
C2100 C 0.29924 0.46069 0.34485 0.0
C2101 C 0.27823 0.46119 0.34261 0.0
H2102 H 0.16753 0.66398 0.35308 0.0
H2103 H 0.21582 0.70103 0.32823 0.0
H2104 H 0.19254 0.7266 0.31745 0.0
H2105 H 0.1299 0.67404 0.31494 0.0
H2106 H 0.11019 0.6744 0.33158 0.0
H2107 H 0.13098 0.66004 0.339 0.0
H2108 H 0.13847 0.67842 0.37284 0.0
H2109 H 0.11752 0.69271 0.36565 0.0
H2110 H 0.14209 0.705 0.37197 0.0
H2111 H 0.16278 0.74585 0.3054 0.0
H2112 H 0.12984 0.75905 0.29646 0.0
H2113 H 0.10128 0.71056 0.33137 0.0
C2114 C 0.1732 0.6778 0.34598 0.0
C2115 C 0.19344 0.6809 0.34179 0.0
C2116 C 0.20042 0.69877 0.3319 0.0
C2117 C 0.18728 0.71323 0.32566 0.0
C2118 C 0.16725 0.70963 0.32967 0.0
C2119 C 0.16033 0.69251 0.33998 0.0
C2120 C 0.138 0.69195 0.34185 0.0
C2121 C 0.1266 0.67405 0.3312 0.0
C2122 C 0.13378 0.69203 0.36442 0.0
C2123 C 0.1333 0.71115 0.33051 0.0
C2124 C 0.15035 0.7211 0.32349 0.0
C2125 C 0.14944 0.7384 0.31122 0.0
C2126 C 0.13071 0.74576 0.30614 0.0
C2127 C 0.11315 0.73603 0.31352 0.0
C2128 C 0.11456 0.71857 0.32597 0.0
H2129 H 0.88253 0.6307 0.34486 0.0
H2130 H 0.86167 0.67358 0.299 0.0
H2131 H 0.8401 0.64704 0.28089 0.0
H2132 H 0.88275 0.58959 0.30945 0.0
H2133 H 0.87478 0.57134 0.32854 0.0
H2134 H 0.88972 0.59355 0.33623 0.0
H2135 H 0.86256 0.60065 0.35952 0.0
H2136 H 0.84723 0.57882 0.35143 0.0
H2137 H 0.83722 0.60251 0.34849 0.0
H2138 H 0.81779 0.61622 0.27053 0.0
H2139 H 0.80121 0.58281 0.2647 0.0
H2140 H 0.83777 0.55969 0.31685 0.0
C2141 C 0.87401 0.63423 0.33053 0.0
C2142 C 0.87397 0.65397 0.32293 0.0
C2143 C 0.86219 0.6584 0.3046 0.0
C2144 C 0.84974 0.64347 0.29445 0.0
C2145 C 0.84946 0.6242 0.30282 0.0
C2146 C 0.86171 0.61947 0.32015 0.0
C2147 C 0.85837 0.59773 0.32625 0.0
C2148 C 0.87754 0.58745 0.32504 0.0
C2149 C 0.8509 0.59477 0.34769 0.0
C2150 C 0.84214 0.59097 0.30983 0.0
C2151 C 0.83702 0.60649 0.29661 0.0
C2152 C 0.8219 0.60392 0.28063 0.0
C2153 C 0.81239 0.58488 0.27758 0.0
C2154 C 0.81817 0.56854 0.29028 0.0
C2155 C 0.83299 0.57183 0.30685 0.0
H2156 H 0.92175 0.34633 0.38122 0.0
H2157 H 0.86856 0.31517 0.35206 0.0
H2158 H 0.88856 0.28819 0.3442 0.0
H2159 H 0.95346 0.33747 0.3464 0.0
H2160 H 0.97525 0.33418 0.364 0.0
H2161 H 0.95638 0.34899 0.37075 0.0
H2162 H 0.952 0.32741 0.40388 0.0
H2163 H 0.97123 0.31273 0.39754 0.0
H2164 H 0.94688 0.30104 0.40235 0.0
H2165 H 0.91571 0.26821 0.33375 0.0
H2166 H 0.94677 0.25448 0.32587 0.0
H2167 H 0.98218 0.29789 0.36332 0.0
C2168 C 0.91425 0.33328 0.37414 0.0
C2169 C 0.89359 0.33247 0.36765 0.0
C2170 C 0.88426 0.31568 0.35763 0.0
C2171 C 0.89557 0.30045 0.35294 0.0
C2172 C 0.91617 0.30214 0.35867 0.0
C2173 C 0.92533 0.31792 0.36955 0.0
C2174 C 0.94786 0.31708 0.3726 0.0
C2175 C 0.95887 0.33552 0.36285 0.0
C2176 C 0.95491 0.3144 0.39545 0.0
C2177 C 0.95009 0.29876 0.36116 0.0
C2178 C 0.93166 0.29035 0.35317 0.0
C2179 C 0.93014 0.27439 0.3404 0.0
C2180 C 0.94783 0.26676 0.33587 0.0
C2181 C 0.96682 0.2749 0.34425 0.0
C2182 C 0.96784 0.29104 0.35716 0.0
H2183 H 0.87826 0.39051 0.73418 0.0
H2184 H 0.8748 0.41232 0.67099 0.0
H2185 H 0.85953 0.44174 0.68061 0.0
H2186 H 0.83305 0.40944 0.74891 0.0
H2187 H 0.84454 0.41625 0.77379 0.0
H2188 H 0.85276 0.39584 0.76147 0.0
H2189 H 0.88923 0.41219 0.76485 0.0
H2190 H 0.88114 0.43255 0.77729 0.0
H2191 H 0.8944 0.43705 0.75472 0.0
H2192 H 0.84568 0.4697 0.69777 0.0
H2193 H 0.83789 0.49483 0.72115 0.0
H2194 H 0.85339 0.45578 0.77326 0.0
C2195 C 0.87418 0.40144 0.72238 0.0
C2196 C 0.87739 0.39896 0.70178 0.0
C2197 C 0.87194 0.41364 0.68676 0.0
C2198 C 0.86337 0.43046 0.69212 0.0
C2199 C 0.86054 0.43253 0.71264 0.0
C2200 C 0.86601 0.41848 0.72755 0.0
C2201 C 0.86312 0.42493 0.7487 0.0
C2202 C 0.84743 0.41077 0.75881 0.0
C2203 C 0.88316 0.4268 0.76218 0.0
C2204 C 0.85542 0.44492 0.74343 0.0
C2205 C 0.85364 0.44892 0.72254 0.0
C2206 C 0.84699 0.46667 0.71416 0.0
C2207 C 0.8425 0.48083 0.72752 0.0
C2208 C 0.84506 0.47727 0.74899 0.0
C2209 C 0.85132 0.45894 0.7569 0.0
H2210 H 0.17331 0.36182 0.70232 0.0
H2211 H 0.20896 0.31263 0.69948 0.0
H2212 H 0.18078 0.2896 0.71026 0.0
H2213 H 0.15286 0.34502 0.74814 0.0
H2214 H 0.1288 0.35413 0.74101 0.0
H2215 H 0.15077 0.36605 0.73053 0.0
H2216 H 0.13368 0.36097 0.69384 0.0
H2217 H 0.11169 0.34886 0.70424 0.0
H2218 H 0.12427 0.33648 0.68632 0.0
H2219 H 0.14908 0.27224 0.72354 0.0
H2220 H 0.11821 0.2626 0.7407 0.0
H2221 H 0.10447 0.32365 0.73661 0.0
C2222 C 0.17512 0.34619 0.7039 0.0
C2223 C 0.19323 0.33894 0.69996 0.0
C2224 C 0.19505 0.31839 0.7021 0.0
C2225 C 0.17915 0.30525 0.70825 0.0
C2226 C 0.16153 0.31291 0.71229 0.0
C2227 C 0.15952 0.33295 0.71031 0.0
C2228 C 0.13981 0.3377 0.71722 0.0
C2229 C 0.14327 0.35153 0.7353 0.0
C2230 C 0.12658 0.34652 0.69933 0.0
C2231 C 0.13118 0.31728 0.72379 0.0
C2232 C 0.14372 0.30309 0.7205 0.0
C2233 C 0.13909 0.28323 0.72605 0.0
C2234 C 0.12149 0.27786 0.73569 0.0
C2235 C 0.10893 0.29235 0.73996 0.0
C2236 C 0.11373 0.31221 0.7335 0.0
H2237 H 0.92648 0.69621 0.66367 0.0
H2238 H 0.87764 0.72054 0.68878 0.0
H2239 H 0.90191 0.74066 0.71193 0.0
H2240 H 0.95872 0.69331 0.71204 0.0
H2241 H 0.98138 0.6997 0.69975 0.0
H2242 H 0.96 0.68687 0.68595 0.0
H2243 H 0.96093 0.71446 0.65731 0.0
H2244 H 0.98207 0.72757 0.67119 0.0
H2245 H 0.9597 0.7397 0.66374 0.0
H2246 H 0.93137 0.75921 0.73067 0.0
H2247 H 0.96405 0.77281 0.74666 0.0
H2248 H 0.99409 0.73567 0.70992 0.0
C2249 C 0.92106 0.70542 0.67447 0.0
C2250 C 0.90039 0.70674 0.67496 0.0
C2251 C 0.89353 0.7193 0.68867 0.0
C2252 C 0.90716 0.73078 0.70167 0.0
C2253 C 0.92755 0.7294 0.7007 0.0
C2254 C 0.9345 0.71685 0.68767 0.0
C2255 C 0.95717 0.71823 0.68961 0.0
C2256 C 0.96476 0.69835 0.6973 0.0
C2257 C 0.96545 0.72542 0.66925 0.0
C2258 C 0.96188 0.73365 0.70563 0.0
C2259 C 0.94457 0.73998 0.7117 0.0
C2260 C 0.94505 0.75429 0.72616 0.0
C2261 C 0.96371 0.76201 0.73507 0.0
C2262 C 0.98168 0.75531 0.72958 0.0
C2263 C 0.98067 0.74114 0.71444 0.0
H2264 H 0.7432 0.22029 0.6718 0.0
H2265 H 0.69624 0.18422 0.63808 0.0
H2266 H 0.71039 0.19541 0.60549 0.0
H2267 H 0.74362 0.26101 0.63678 0.0
H2268 H 0.77031 0.26731 0.63973 0.0
H2269 H 0.75793 0.25483 0.66048 0.0
H2270 H 0.7814 0.22676 0.66168 0.0
H2271 H 0.79414 0.23936 0.64121 0.0
H2272 H 0.78365 0.21416 0.63865 0.0
H2273 H 0.7285 0.21268 0.57632 0.0
H2274 H 0.75031 0.23253 0.55326 0.0
H2275 H 0.78521 0.25802 0.60611 0.0
C2276 C 0.73644 0.21426 0.65756 0.0
C2277 C 0.71907 0.20087 0.65737 0.0
C2278 C 0.70995 0.19394 0.63846 0.0
C2279 C 0.71777 0.2004 0.61993 0.0
C2280 C 0.73469 0.21398 0.62053 0.0
C2281 C 0.74406 0.22067 0.63891 0.0
C2282 C 0.76146 0.23592 0.63529 0.0
C2283 C 0.75812 0.25595 0.64356 0.0
C2284 C 0.78134 0.22861 0.64476 0.0
C2285 C 0.76036 0.23689 0.61205 0.0
C2286 C 0.74481 0.22414 0.60381 0.0
C2287 C 0.74077 0.22263 0.58265 0.0
C2288 C 0.75319 0.23408 0.56963 0.0
C2289 C 0.7695 0.24697 0.57774 0.0
C2290 C 0.77286 0.24844 0.59929 0.0
H2291 H 0.3493 0.24215 0.66496 0.0
H2292 H 0.3367 0.18343 0.64208 0.0
H2293 H 0.31743 0.19694 0.61135 0.0
H2294 H 0.30241 0.26375 0.64169 0.0
H2295 H 0.31626 0.28691 0.63558 0.0
H2296 H 0.32438 0.27222 0.6579 0.0
H2297 H 0.35948 0.27226 0.64484 0.0
H2298 H 0.35154 0.28694 0.62259 0.0
H2299 H 0.36149 0.26372 0.61966 0.0
H2300 H 0.30385 0.21752 0.58092 0.0
H2301 H 0.2998 0.24312 0.55292 0.0
H2302 H 0.32426 0.28824 0.59483 0.0
C2303 C 0.34201 0.23216 0.65368 0.0
C2304 C 0.34425 0.2118 0.65585 0.0
C2305 C 0.33474 0.19904 0.6408 0.0
C2306 C 0.32382 0.20661 0.62333 0.0
C2307 C 0.3226 0.22695 0.6212 0.0
C2308 C 0.33148 0.23954 0.63604 0.0
C2309 C 0.33083 0.26092 0.62887 0.0
C2310 C 0.31768 0.27157 0.64178 0.0
C2311 C 0.35209 0.27157 0.62899 0.0
C2312 C 0.32109 0.25843 0.60733 0.0
C2313 C 0.31581 0.2388 0.60335 0.0
C2314 C 0.30765 0.23295 0.58398 0.0
C2315 C 0.30536 0.24752 0.5682 0.0
C2316 C 0.31173 0.26749 0.57189 0.0
C2317 C 0.31921 0.273 0.59175 0.0
H2318 H 0.39722 0.84251 0.6541 0.0
H2319 H 0.35555 0.81698 0.69629 0.0
H2320 H 0.34465 0.78981 0.67287 0.0
H2321 H 0.36527 0.83406 0.60976 0.0
H2322 H 0.38418 0.82841 0.5939 0.0
H2323 H 0.39088 0.84409 0.61519 0.0
H2324 H 0.41751 0.82094 0.63004 0.0
H2325 H 0.41098 0.80521 0.60869 0.0
H2326 H 0.41021 0.79505 0.63451 0.0
H2327 H 0.3357 0.76775 0.64347 0.0
H2328 H 0.32931 0.752 0.61013 0.0
H2329 H 0.37648 0.79177 0.5862 0.0
C2330 C 0.38634 0.83074 0.65858 0.0
C2331 C 0.37756 0.83132 0.67717 0.0
C2332 C 0.3627 0.81632 0.68231 0.0
C2333 C 0.35643 0.80094 0.66909 0.0
C2334 C 0.3651 0.80086 0.65066 0.0
C2335 C 0.3798 0.81531 0.64539 0.0
C2336 C 0.38535 0.81268 0.62388 0.0
C2337 C 0.38117 0.83089 0.60986 0.0
C2338 C 0.40732 0.8082 0.62431 0.0
C2339 C 0.37117 0.79481 0.61773 0.0
C2340 C 0.35975 0.78816 0.6335 0.0
C2341 C 0.34474 0.77266 0.63112 0.0
C2342 C 0.34115 0.76385 0.6121 0.0
C2343 C 0.35247 0.7705 0.59559 0.0
C2344 C 0.36788 0.78603 0.59863 0.0
H2345 H 0.7298 0.86953 0.61584 0.0
H2346 H 0.75371 0.82605 0.65928 0.0
H2347 H 0.77841 0.81944 0.63538 0.0
H2348 H 0.73161 0.84357 0.57226 0.0
H2349 H 0.7388 0.86448 0.55577 0.0
H2350 H 0.72514 0.86781 0.57735 0.0
H2351 H 0.753 0.89401 0.59103 0.0
H2352 H 0.76673 0.89087 0.56936 0.0
H2353 H 0.77855 0.88783 0.595 0.0
H2354 H 0.7968 0.81426 0.60506 0.0
H2355 H 0.80897 0.81193 0.57103 0.0
H2356 H 0.77393 0.8595 0.54718 0.0
C2357 C 0.74067 0.85905 0.62038 0.0
C2358 C 0.74007 0.84823 0.63921 0.0
C2359 C 0.75416 0.8344 0.64482 0.0
C2360 C 0.76817 0.83062 0.63139 0.0
C2361 C 0.76801 0.84105 0.61254 0.0
C2362 C 0.7548 0.85518 0.60712 0.0
C2363 C 0.75679 0.86325 0.58539 0.0
C2364 C 0.73691 0.85954 0.5719 0.0
C2365 C 0.76421 0.8853 0.58519 0.0
C2366 C 0.77262 0.85093 0.57916 0.0
C2367 C 0.77899 0.83833 0.59513 0.0
C2368 C 0.79225 0.82434 0.5926 0.0
C2369 C 0.79902 0.82306 0.57322 0.0
C2370 C 0.79261 0.83571 0.55661 0.0
C2371 C 0.7795 0.85004 0.55977 0.0
H2372 H 0.71661 0.85404 0.35424 0.0
H2373 H 0.66465 0.85191 0.38852 0.0
H2374 H 0.6839 0.83751 0.41874 0.0
H2375 H 0.736 0.80986 0.37486 0.0
H2376 H 0.76186 0.81975 0.37617 0.0
H2377 H 0.74389 0.82954 0.35719 0.0
H2378 H 0.75344 0.86475 0.37032 0.0
H2379 H 0.77165 0.85512 0.38917 0.0
H2380 H 0.75248 0.86904 0.39704 0.0
H2381 H 0.7085 0.82189 0.44456 0.0
H2382 H 0.73774 0.80985 0.46556 0.0
H2383 H 0.77433 0.82476 0.41514 0.0
C2384 C 0.70943 0.85077 0.36822 0.0
C2385 C 0.68913 0.85382 0.3691 0.0
C2386 C 0.68011 0.84928 0.38755 0.0
C2387 C 0.69093 0.84119 0.40474 0.0
C2388 C 0.71087 0.83807 0.4033 0.0
C2389 C 0.72014 0.84306 0.38564 0.0
C2390 C 0.74191 0.83889 0.38831 0.0
C2391 C 0.74615 0.8236 0.37324 0.0
C2392 C 0.75569 0.85809 0.38609 0.0
C2393 C 0.74337 0.83051 0.41016 0.0
C2394 C 0.72525 0.82998 0.41847 0.0
C2395 C 0.72281 0.82238 0.43828 0.0
C2396 C 0.73945 0.81547 0.45004 0.0
C2397 C 0.75829 0.81644 0.442 0.0
C2398 C 0.76015 0.82394 0.42175 0.0
H2399 H 0.72098 0.16051 0.39476 0.0
H2400 H 0.72196 0.21382 0.35613 0.0
H2401 H 0.7384 0.23295 0.38536 0.0
H2402 H 0.71447 0.1831 0.44406 0.0
H2403 H 0.73094 0.16697 0.45837 0.0
H2404 H 0.71617 0.15862 0.43555 0.0
H2405 H 0.74849 0.15052 0.42063 0.0
H2406 H 0.76343 0.15919 0.44316 0.0
H2407 H 0.76865 0.16965 0.41827 0.0
H2408 H 0.75872 0.2451 0.41776 0.0
H2409 H 0.77925 0.24985 0.45062 0.0
H2410 H 0.76583 0.18799 0.46776 0.0
C2411 C 0.72409 0.17634 0.39275 0.0
C2412 C 0.72006 0.18582 0.37336 0.0
C2413 C 0.7246 0.20644 0.371 0.0
C2414 C 0.73409 0.21732 0.38748 0.0
C2415 C 0.73883 0.20729 0.40617 0.0
C2416 C 0.73373 0.18727 0.40892 0.0
C2417 C 0.74196 0.17957 0.42981 0.0
C2418 C 0.72487 0.1716 0.44271 0.0
C2419 C 0.75649 0.16381 0.42784 0.0
C2420 C 0.7529 0.19829 0.43832 0.0
C2421 C 0.75078 0.21416 0.42455 0.0
C2422 C 0.76017 0.23282 0.42875 0.0
C2423 C 0.77181 0.23538 0.44754 0.0
C2424 C 0.77413 0.21935 0.46199 0.0
C2425 C 0.76451 0.20056 0.45713 0.0
H2426 H 0.37214 0.23412 0.38623 0.0
H2427 H 0.35423 0.17702 0.41409 0.0
H2428 H 0.34383 0.19335 0.44367 0.0
H2429 H 0.39285 0.25671 0.43318 0.0
H2430 H 0.38445 0.28057 0.42561 0.0
H2431 H 0.3899 0.26436 0.40646 0.0
H2432 H 0.35425 0.26645 0.38826 0.0
H2433 H 0.34869 0.28267 0.40734 0.0
H2434 H 0.33281 0.26025 0.40254 0.0
H2435 H 0.3354 0.21604 0.47019 0.0
H2436 H 0.32992 0.24319 0.4919 0.0
H2437 H 0.35424 0.28572 0.44729 0.0
C2438 C 0.3661 0.22511 0.39863 0.0
C2439 C 0.36383 0.2043 0.39787 0.0
C2440 C 0.35576 0.19296 0.41428 0.0
C2441 C 0.34995 0.20212 0.43116 0.0
C2442 C 0.35242 0.22267 0.43148 0.0
C2443 C 0.36036 0.23404 0.41567 0.0
C2444 C 0.36164 0.25584 0.41989 0.0
C2445 C 0.38351 0.2649 0.42138 0.0
C2446 C 0.34856 0.26695 0.40354 0.0
C2447 C 0.35317 0.25498 0.44053 0.0
C2448 C 0.34789 0.23571 0.4469 0.0
C2449 C 0.33949 0.23118 0.46534 0.0
C2450 C 0.33634 0.24673 0.47754 0.0
C2451 C 0.34162 0.26664 0.47138 0.0
C2452 C 0.35025 0.2707 0.45261 0.0
H2453 H 0.34523 0.81591 0.38293 0.0
H2454 H 0.37086 0.86924 0.41202 0.0
H2455 H 0.3627 0.85452 0.44578 0.0
H2456 H 0.30491 0.80556 0.41193 0.0
H2457 H 0.30575 0.77917 0.41415 0.0
H2458 H 0.31528 0.79297 0.39252 0.0
H2459 H 0.34975 0.77908 0.4007 0.0
H2460 H 0.34013 0.76476 0.42202 0.0
H2461 H 0.36254 0.78135 0.426 0.0
H2462 H 0.34727 0.83558 0.47564 0.0
H2463 H 0.33217 0.8112 0.50044 0.0
H2464 H 0.31877 0.76934 0.45237 0.0
C2465 C 0.34984 0.82409 0.39654 0.0
C2466 C 0.35874 0.84368 0.39497 0.0
C2467 C 0.36411 0.85419 0.41303 0.0
C2468 C 0.35938 0.846 0.43221 0.0
C2469 C 0.34961 0.82705 0.43316 0.0
C2470 C 0.34548 0.81597 0.41591 0.0
C2471 C 0.33477 0.79601 0.42114 0.0
C2472 C 0.31394 0.79328 0.40922 0.0
C2473 C 0.34756 0.77931 0.41724 0.0
C2474 C 0.33313 0.79778 0.44386 0.0
C2475 C 0.34155 0.81589 0.45048 0.0
C2476 C 0.34092 0.82123 0.47068 0.0
C2477 C 0.33211 0.80742 0.48462 0.0
C2478 C 0.32431 0.78844 0.47833 0.0
C2479 C 0.32468 0.78375 0.45762 0.0
H2480 H 0.68184 0.2078 0.73728 0.0
H2481 H 0.64954 0.20534 0.67704 0.0
H2482 H 0.61914 0.21433 0.6913 0.0
H2483 H 0.64048 0.18637 0.76502 0.0
H2484 H 0.64677 0.20174 0.78668 0.0
H2485 H 0.66615 0.19559 0.7717 0.0
H2486 H 0.67703 0.23274 0.7655 0.0
H2487 H 0.65771 0.239 0.7805 0.0
H2488 H 0.65879 0.24895 0.75463 0.0
H2489 H 0.59239 0.22374 0.71193 0.0
H2490 H 0.57076 0.23266 0.73758 0.0
H2491 H 0.61968 0.22819 0.78514 0.0
C2492 C 0.66832 0.20918 0.72718 0.0
C2493 C 0.66806 0.20616 0.70598 0.0
C2494 C 0.65013 0.20801 0.6932 0.0
C2495 C 0.63278 0.21296 0.70121 0.0
C2496 C 0.63351 0.21587 0.72213 0.0
C2497 C 0.65077 0.214 0.735 0.0
C2498 C 0.64737 0.21775 0.75696 0.0
C2499 C 0.65037 0.19926 0.77091 0.0
C2500 C 0.66104 0.23568 0.76486 0.0
C2501 C 0.62553 0.22208 0.75441 0.0
C2502 C 0.61789 0.22094 0.73416 0.0
C2503 C 0.59821 0.22467 0.72783 0.0
C2504 C 0.58605 0.22982 0.74252 0.0
C2505 C 0.59347 0.23118 0.76339 0.0
C2506 C 0.61348 0.22707 0.76937 0.0
H2507 H 0.3641 0.14699 0.69249 0.0
H2508 H 0.3857 0.1901 0.73754 0.0
H2509 H 0.3903 0.16314 0.76393 0.0
H2510 H 0.33502 0.11581 0.72554 0.0
H2511 H 0.34001 0.09327 0.71457 0.0
H2512 H 0.34033 0.11588 0.69916 0.0
H2513 H 0.37639 0.11144 0.69071 0.0
H2514 H 0.37623 0.08885 0.70623 0.0
H2515 H 0.39574 0.10848 0.7113 0.0
H2516 H 0.39118 0.13118 0.78556 0.0
H2517 H 0.38624 0.09744 0.80112 0.0
H2518 H 0.36252 0.07559 0.74198 0.0
C2519 C 0.36975 0.15069 0.70794 0.0
C2520 C 0.37462 0.17052 0.71307 0.0
C2521 C 0.38215 0.17492 0.73335 0.0
C2522 C 0.38476 0.15973 0.74837 0.0
C2523 C 0.37965 0.14026 0.74283 0.0
C2524 C 0.37218 0.13575 0.72311 0.0
C2525 C 0.36666 0.11381 0.7213 0.0
C2526 C 0.34417 0.10944 0.71476 0.0
C2527 C 0.37953 0.10514 0.70651 0.0
C2528 C 0.37191 0.10665 0.74316 0.0
C2529 C 0.37966 0.12205 0.75531 0.0
C2530 C 0.38524 0.11901 0.77615 0.0
C2531 C 0.3825 0.09978 0.78484 0.0
C2532 C 0.37403 0.0839 0.77275 0.0
C2533 C 0.36895 0.08745 0.7516 0.0
H2534 H 0.43539 0.86413 0.70802 0.0
H2535 H 0.39317 0.8128 0.71501 0.0
H2536 H 0.42088 0.79328 0.7292 0.0
H2537 H 0.47803 0.83837 0.69573 0.0
H2538 H 0.49603 0.8546 0.71041 0.0
H2539 H 0.47319 0.8636 0.69861 0.0
H2540 H 0.46506 0.87447 0.73387 0.0
H2541 H 0.48774 0.86533 0.74583 0.0
H2542 H 0.46398 0.85658 0.75501 0.0
H2543 H 0.45311 0.78017 0.74503 0.0
H2544 H 0.48698 0.77426 0.76046 0.0
H2545 H 0.50811 0.83471 0.74444 0.0
C2546 C 0.43213 0.84867 0.7122 0.0
C2547 C 0.41223 0.83982 0.71006 0.0
C2548 C 0.40836 0.81966 0.71594 0.0
C2549 C 0.424 0.80856 0.72422 0.0
C2550 C 0.44341 0.81788 0.72661 0.0
C2551 C 0.44752 0.83749 0.72069 0.0
C2552 C 0.4694 0.84438 0.72599 0.0
C2553 C 0.47978 0.8506 0.70652 0.0
C2554 C 0.47167 0.86118 0.74107 0.0
C2555 C 0.47698 0.82567 0.73606 0.0
C2556 C 0.46179 0.81051 0.73614 0.0
C2557 C 0.46513 0.7919 0.74487 0.0
C2558 C 0.48448 0.78867 0.75357 0.0
C2559 C 0.50034 0.80397 0.75368 0.0
C2560 C 0.49637 0.82273 0.7448 0.0
H2561 H 0.72055 0.90341 0.64872 0.0
H2562 H 0.75733 0.86393 0.68554 0.0
H2563 H 0.78208 0.89216 0.69494 0.0
H2564 H 0.76253 0.93659 0.63013 0.0
H2565 H 0.74946 0.95836 0.63104 0.0
H2566 H 0.73558 0.93486 0.62612 0.0
H2567 H 0.71492 0.93876 0.65669 0.0
H2568 H 0.72873 0.96222 0.66176 0.0
H2569 H 0.72776 0.94304 0.68168 0.0
H2570 H 0.80075 0.9251 0.70307 0.0
H2571 H 0.81324 0.96011 0.70772 0.0
H2572 H 0.76508 0.97828 0.66442 0.0
C2573 C 0.73404 0.90084 0.65846 0.0
C2574 C 0.73727 0.88169 0.66647 0.0
C2575 C 0.75486 0.8786 0.67928 0.0
C2576 C 0.76889 0.89451 0.68467 0.0
C2577 C 0.76516 0.91337 0.67685 0.0
C2578 C 0.74828 0.91657 0.66381 0.0
C2579 C 0.74753 0.93835 0.65807 0.0
C2580 C 0.74886 0.94227 0.63497 0.0
C2581 C 0.72861 0.94604 0.66497 0.0
C2582 C 0.76631 0.94696 0.67034 0.0
C2583 C 0.77627 0.93228 0.68105 0.0
C2584 C 0.79327 0.93668 0.69449 0.0
C2585 C 0.80021 0.95657 0.6971 0.0
C2586 C 0.79031 0.97186 0.68624 0.0
C2587 C 0.77325 0.9669 0.67253 0.0
H2588 H 0.61577 0.86182 0.33656 0.0
H2589 H 0.65018 0.85236 0.28634 0.0
H2590 H 0.61908 0.8397 0.26584 0.0
H2591 H 0.5849 0.81936 0.33331 0.0
H2592 H 0.5626 0.82946 0.33961 0.0
H2593 H 0.58681 0.84087 0.34852 0.0
H2594 H 0.57757 0.87427 0.33125 0.0
H2595 H 0.55323 0.86292 0.32227 0.0
H2596 H 0.56918 0.87557 0.30435 0.0
H2597 H 0.58553 0.82246 0.25394 0.0
H2598 H 0.55223 0.80351 0.25091 0.0
H2599 H 0.53929 0.82617 0.30821 0.0
C2600 C 0.61649 0.85764 0.32099 0.0
C2601 C 0.63507 0.8581 0.31279 0.0
C2602 C 0.63588 0.85227 0.29259 0.0
C2603 C 0.61834 0.8451 0.28093 0.0
C2604 C 0.60018 0.84427 0.28967 0.0
C2605 C 0.59913 0.85071 0.30915 0.0
C2606 C 0.57821 0.84664 0.3158 0.0
C2607 C 0.57814 0.83329 0.33546 0.0
C2608 C 0.569 0.86601 0.31857 0.0
C2609 C 0.56783 0.83604 0.29748 0.0
C2610 C 0.58067 0.83496 0.28245 0.0
C2611 C 0.57515 0.82372 0.26529 0.0
C2612 C 0.55624 0.81299 0.2637 0.0
C2613 C 0.54305 0.8137 0.27911 0.0
C2614 C 0.54877 0.82586 0.29584 0.0
H2615 H 0.72841 0.11641 0.3497 0.0
H2616 H 0.72184 0.15039 0.29237 0.0
H2617 H 0.73567 0.12409 0.27478 0.0
H2618 H 0.77565 0.10152 0.34257 0.0
H2619 H 0.77134 0.07749 0.35501 0.0
H2620 H 0.75846 0.09769 0.36209 0.0
H2621 H 0.72439 0.07714 0.35421 0.0
H2622 H 0.73719 0.05689 0.347 0.0
H2623 H 0.71826 0.067 0.32932 0.0
H2624 H 0.75258 0.09447 0.26409 0.0
H2625 H 0.77269 0.06604 0.262 0.0
H2626 H 0.76965 0.05307 0.32699 0.0
C2627 C 0.72976 0.11821 0.33342 0.0
C2628 C 0.72394 0.13533 0.32234 0.0
C2629 C 0.72589 0.1372 0.30103 0.0
C2630 C 0.73379 0.12236 0.29096 0.0
C2631 C 0.73974 0.10577 0.30245 0.0
C2632 C 0.73785 0.10372 0.32326 0.0
C2633 C 0.74684 0.08544 0.33257 0.0
C2634 C 0.7641 0.09086 0.34902 0.0
C2635 C 0.7307 0.07075 0.34129 0.0
C2636 C 0.75441 0.07765 0.31388 0.0
C2637 C 0.74992 0.08932 0.29653 0.0
C2638 C 0.75603 0.08518 0.27758 0.0
C2639 C 0.76735 0.06896 0.27648 0.0
C2640 C 0.77269 0.05735 0.2943 0.0
C2641 C 0.76578 0.06166 0.31308 0.0
H2642 H 0.40838 0.2145 0.33579 0.0
H2643 H 0.40591 0.152 0.35189 0.0
H2644 H 0.43438 0.1488 0.33149 0.0
H2645 H 0.42277 0.21201 0.28395 0.0
H2646 H 0.43946 0.23431 0.28561 0.0
H2647 H 0.41795 0.23126 0.30015 0.0
H2648 H 0.44098 0.23763 0.33357 0.0
H2649 H 0.46252 0.24073 0.31912 0.0
H2650 H 0.46156 0.22274 0.34018 0.0
H2651 H 0.46401 0.15286 0.31025 0.0
H2652 H 0.4932 0.16405 0.29107 0.0
H2653 H 0.47679 0.22413 0.28981 0.0
C2654 C 0.41386 0.20018 0.33489 0.0
C2655 C 0.40488 0.18341 0.34508 0.0
C2656 C 0.41235 0.16487 0.34373 0.0
C2657 C 0.42856 0.16297 0.3323 0.0
C2658 C 0.43717 0.17982 0.32243 0.0
C2659 C 0.43012 0.19809 0.32368 0.0
C2660 C 0.44258 0.21404 0.31246 0.0
C2661 C 0.42993 0.22345 0.29447 0.0
C2662 C 0.4525 0.22971 0.32722 0.0
C2663 C 0.45791 0.20195 0.30496 0.0
C2664 C 0.45444 0.18222 0.31067 0.0
C2665 C 0.46683 0.16827 0.30564 0.0
C2666 C 0.48331 0.17472 0.29467 0.0
C2667 C 0.48736 0.19495 0.28905 0.0
C2668 C 0.47429 0.20862 0.29414 0.0
H2669 H 0.35301 0.91483 0.35728 0.0
H2670 H 0.32291 0.87108 0.31667 0.0
H2671 H 0.30435 0.89696 0.29742 0.0
H2672 H 0.31115 0.94408 0.35923 0.0
H2673 H 0.32633 0.96735 0.35926 0.0
H2674 H 0.33687 0.94535 0.36999 0.0
H2675 H 0.36531 0.95104 0.34589 0.0
H2676 H 0.35498 0.97314 0.33525 0.0
H2677 H 0.35902 0.95392 0.31866 0.0
H2678 H 0.28904 0.92782 0.28275 0.0
H2679 H 0.28034 0.96136 0.27185 0.0
H2680 H 0.32092 0.98537 0.32178 0.0
C2681 C 0.34249 0.91082 0.34431 0.0
C2682 C 0.33935 0.89104 0.33833 0.0
C2683 C 0.32558 0.8862 0.32128 0.0
C2684 C 0.31491 0.90078 0.31041 0.0
C2685 C 0.31822 0.92016 0.31676 0.0
C2686 C 0.33182 0.92523 0.33321 0.0
C2687 C 0.33311 0.94724 0.33646 0.0
C2688 C 0.32647 0.95123 0.35749 0.0
C2689 C 0.35437 0.9569 0.3339 0.0
C2690 C 0.3182 0.95379 0.31922 0.0
C2691 C 0.30962 0.93792 0.30817 0.0
C2692 C 0.29567 0.94034 0.29132 0.0
C2693 C 0.29074 0.95951 0.28529 0.0
C2694 C 0.29985 0.97614 0.29593 0.0
C2695 C 0.3135 0.97305 0.31337 0.0
H2696 H 0.73829 0.17366 0.71935 0.0
H2697 H 0.70815 0.15498 0.66151 0.0
H2698 H 0.72417 0.12353 0.66587 0.0
H2699 H 0.78548 0.15039 0.71558 0.0
H2700 H 0.78802 0.14386 0.74258 0.0
H2701 H 0.77593 0.16551 0.73344 0.0
H2702 H 0.74465 0.15214 0.75166 0.0
H2703 H 0.75644 0.13026 0.76049 0.0
H2704 H 0.7324 0.12815 0.74572 0.0
H2705 H 0.74094 0.09257 0.67868 0.0
H2706 H 0.75981 0.06643 0.69672 0.0
H2707 H 0.77901 0.10558 0.74639 0.0
C2708 C 0.73569 0.16316 0.70733 0.0
C2709 C 0.7224 0.16684 0.68985 0.0
C2710 C 0.71875 0.15263 0.67466 0.0
C2711 C 0.7276 0.13465 0.67718 0.0
C2712 C 0.74012 0.13117 0.69498 0.0
C2713 C 0.74443 0.14521 0.70963 0.0
C2714 C 0.75768 0.13762 0.72775 0.0
C2715 C 0.77798 0.15008 0.72996 0.0
C2716 C 0.74716 0.13701 0.74757 0.0
C2717 C 0.75995 0.11699 0.7212 0.0
C2718 C 0.74967 0.1135 0.70229 0.0
C2719 C 0.74918 0.09526 0.6934 0.0
C2720 C 0.75984 0.08042 0.70386 0.0
C2721 C 0.77093 0.08385 0.72303 0.0
C2722 C 0.77073 0.10239 0.73179 0.0
H2723 H 0.70931 0.88764 0.31144 0.0
H2724 H 0.69563 0.89561 0.37334 0.0
H2725 H 0.72505 0.92031 0.3781 0.0
H2726 H 0.76414 0.89502 0.32053 0.0
H2727 H 0.76668 0.90838 0.29637 0.0
H2728 H 0.74616 0.88966 0.29891 0.0
H2729 H 0.72093 0.91507 0.28631 0.0
H2730 H 0.74132 0.93384 0.28372 0.0
H2731 H 0.72164 0.9378 0.29937 0.0
H2732 H 0.75461 0.94596 0.37495 0.0
H2733 H 0.78084 0.97111 0.36388 0.0
H2734 H 0.77398 0.94713 0.30346 0.0
C2735 C 0.71263 0.89456 0.326 0.0
C2736 C 0.70034 0.88981 0.34205 0.0
C2737 C 0.7051 0.89897 0.36098 0.0
C2738 C 0.72171 0.913 0.36377 0.0
C2739 C 0.73334 0.91768 0.34743 0.0
C2740 C 0.72897 0.90872 0.32891 0.0
C2741 C 0.74282 0.91733 0.31327 0.0
C2742 C 0.75572 0.90166 0.3069 0.0
C2743 C 0.73097 0.92656 0.29457 0.0
C2744 C 0.75535 0.93291 0.32569 0.0
C2745 C 0.74991 0.93269 0.34546 0.0
C2746 C 0.75909 0.94614 0.35956 0.0
C2747 C 0.77401 0.96033 0.35317 0.0
C2748 C 0.77939 0.9611 0.33281 0.0
C2749 C 0.77006 0.94701 0.31907 0.0
H2750 H 0.68864 0.19885 0.30902 0.0
H2751 H 0.67569 0.18198 0.37098 0.0
H2752 H 0.6454 0.20048 0.36617 0.0
H2753 H 0.66719 0.24795 0.3044 0.0
H2754 H 0.65719 0.24386 0.27834 0.0
H2755 H 0.67997 0.23353 0.28844 0.0
H2756 H 0.66427 0.19869 0.27853 0.0
H2757 H 0.64154 0.20887 0.26846 0.0
H2758 H 0.6408 0.18922 0.28791 0.0
H2759 H 0.61352 0.21685 0.35227 0.0
H2760 H 0.58358 0.22723 0.33071 0.0
H2761 H 0.61696 0.23084 0.27741 0.0
C2762 C 0.6797 0.19958 0.32174 0.0
C2763 C 0.6845 0.18914 0.3404 0.0
C2764 C 0.67242 0.19018 0.35669 0.0
C2765 C 0.65516 0.2006 0.35402 0.0
C2766 C 0.65027 0.20994 0.33496 0.0
C2767 C 0.66235 0.20955 0.31914 0.0
C2768 C 0.65269 0.21816 0.29933 0.0
C2769 C 0.665 0.237 0.29222 0.0
C2770 C 0.64964 0.20282 0.28259 0.0
C2771 C 0.63294 0.22286 0.30617 0.0
C2772 C 0.63189 0.21854 0.32687 0.0
C2773 C 0.61439 0.22058 0.33615 0.0
C2774 C 0.59748 0.2266 0.32386 0.0
C2775 C 0.59814 0.23012 0.30252 0.0
C2776 C 0.61623 0.22862 0.29379 0.0
H2777 H 0.36927 0.13485 0.35951 0.0
H2778 H 0.35907 0.18311 0.31564 0.0
H2779 H 0.34924 0.15925 0.28822 0.0
H2780 H 0.3917 0.10573 0.32501 0.0
H2781 H 0.38115 0.08241 0.33525 0.0
H2782 H 0.38631 0.10323 0.35141 0.0
H2783 H 0.3494 0.09984 0.36009 0.0
H2784 H 0.34413 0.07893 0.34409 0.0
H2785 H 0.32954 0.09982 0.3396 0.0
H2786 H 0.33917 0.12972 0.26616 0.0
H2787 H 0.33192 0.09708 0.25056 0.0
H2788 H 0.35177 0.06832 0.30824 0.0
C2789 C 0.36479 0.14022 0.34411 0.0
C2790 C 0.36461 0.16063 0.33948 0.0
C2791 C 0.35906 0.16743 0.31926 0.0
C2792 C 0.35354 0.15401 0.3037 0.0
C2793 C 0.35401 0.13389 0.30866 0.0
C2794 C 0.35972 0.12703 0.32834 0.0
C2795 C 0.35977 0.10477 0.32948 0.0
C2796 C 0.38099 0.09868 0.33565 0.0
C2797 C 0.34482 0.09529 0.34418 0.0
C2798 C 0.35291 0.1001 0.30745 0.0
C2799 C 0.34949 0.11707 0.29571 0.0
C2800 C 0.34207 0.11637 0.27514 0.0
C2801 C 0.33799 0.09784 0.26641 0.0
C2802 C 0.34166 0.08031 0.27809 0.0
C2803 C 0.34935 0.08154 0.29883 0.0
H2804 H 0.40565 0.84749 0.37148 0.0
H2805 H 0.35429 0.81602 0.33929 0.0
H2806 H 0.37604 0.79194 0.32832 0.0
H2807 H 0.43866 0.84379 0.3347 0.0
H2808 H 0.46055 0.84039 0.35212 0.0
H2809 H 0.44076 0.85342 0.35996 0.0
H2810 H 0.43738 0.82928 0.39141 0.0
H2811 H 0.4574 0.81631 0.38386 0.0
H2812 H 0.43349 0.8031 0.38777 0.0
H2813 H 0.40399 0.77406 0.31708 0.0
H2814 H 0.43559 0.76189 0.30884 0.0
H2815 H 0.4693 0.80444 0.34874 0.0
C2816 C 0.399 0.835 0.36287 0.0
C2817 C 0.37823 0.83318 0.35665 0.0
C2818 C 0.37006 0.81724 0.34459 0.0
C2819 C 0.38235 0.80364 0.3382 0.0
C2820 C 0.40289 0.80613 0.34401 0.0
C2821 C 0.41115 0.82124 0.35636 0.0
C2822 C 0.43383 0.82133 0.3593 0.0
C2823 C 0.44404 0.84089 0.35102 0.0
C2824 C 0.44094 0.81726 0.38193 0.0
C2825 C 0.43706 0.80423 0.34634 0.0
C2826 C 0.419 0.79568 0.33766 0.0
C2827 C 0.41819 0.78045 0.32408 0.0
C2828 C 0.43623 0.77371 0.31936 0.0
C2829 C 0.45496 0.78203 0.32824 0.0
C2830 C 0.45525 0.79747 0.34201 0.0
H2831 H 0.39293 0.91259 0.71216 0.0
H2832 H 0.33642 0.87645 0.71134 0.0
H2833 H 0.3203 0.90445 0.72313 0.0
H2834 H 0.38796 0.93474 0.75876 0.0
H2835 H 0.40017 0.95837 0.75135 0.0
H2836 H 0.40638 0.93631 0.74044 0.0
H2837 H 0.3977 0.95142 0.70402 0.0
H2838 H 0.39133 0.97351 0.71485 0.0
H2839 H 0.37334 0.96005 0.69739 0.0
H2840 H 0.31082 0.93631 0.73687 0.0
H2841 H 0.30959 0.96777 0.75387 0.0
H2842 H 0.3729 0.98208 0.74771 0.0
C2843 C 0.37714 0.91066 0.71433 0.0
C2844 C 0.36584 0.89244 0.71051 0.0
C2845 C 0.34522 0.89042 0.71364 0.0
C2846 C 0.33598 0.90623 0.72044 0.0
C2847 C 0.3476 0.92397 0.72423 0.0
C2848 C 0.36779 0.92618 0.72142 0.0
C2849 C 0.37735 0.94612 0.72818 0.0
C2850 C 0.39394 0.94374 0.74572 0.0
C2851 C 0.3854 0.9585 0.71002 0.0
C2852 C 0.35949 0.9547 0.73549 0.0
C2853 C 0.34236 0.94188 0.7328 0.0
C2854 C 0.32414 0.9465 0.73893 0.0
C2855 C 0.32353 0.96446 0.74848 0.0
C2856 C 0.3411 0.97744 0.75206 0.0
C2857 C 0.35917 0.97253 0.74512 0.0
H2858 H 0.6913 0.83661 0.70835 0.0
H2859 H 0.66344 0.82531 0.64739 0.0
H2860 H 0.63493 0.80575 0.66224 0.0
H2861 H 0.67596 0.7898 0.7326 0.0
H2862 H 0.67138 0.80034 0.75613 0.0
H2863 H 0.68989 0.81247 0.74058 0.0
H2864 H 0.67201 0.84463 0.7389 0.0
H2865 H 0.6536 0.83266 0.75463 0.0
H2866 H 0.64578 0.84386 0.73006 0.0
H2867 H 0.60918 0.78724 0.68448 0.0
H2868 H 0.58757 0.77438 0.71168 0.0
H2869 H 0.63196 0.79975 0.75756 0.0
C2870 C 0.6791 0.83016 0.69816 0.0
C2871 C 0.67957 0.83237 0.67673 0.0
C2872 C 0.66346 0.82352 0.66386 0.0
C2873 C 0.64721 0.81244 0.67216 0.0
C2874 C 0.64724 0.81047 0.69342 0.0
C2875 C 0.66271 0.8193 0.70621 0.0
C2876 C 0.65887 0.81576 0.72846 0.0
C2877 C 0.67499 0.80388 0.74012 0.0
C2878 C 0.65748 0.83539 0.7386 0.0
C2879 C 0.63876 0.80369 0.72627 0.0
C2880 C 0.63234 0.80051 0.70599 0.0
C2881 C 0.61409 0.78969 0.7004 0.0
C2882 C 0.60195 0.78233 0.71592 0.0
C2883 C 0.60804 0.7861 0.7367 0.0
C2884 C 0.62682 0.79669 0.7418 0.0
H2885 H 0.40253 0.23411 0.70999 0.0
H2886 H 0.41342 0.17455 0.69734 0.0
H2887 H 0.44824 0.18037 0.71338 0.0
H2888 H 0.45186 0.25717 0.69978 0.0
H2889 H 0.45295 0.27427 0.71999 0.0
H2890 H 0.42911 0.26545 0.70725 0.0
H2891 H 0.41655 0.25317 0.74215 0.0
H2892 H 0.44028 0.26206 0.75501 0.0
H2893 H 0.4308 0.23659 0.75861 0.0
H2894 H 0.48096 0.19225 0.73205 0.0
H2895 H 0.50947 0.20893 0.75291 0.0
H2896 H 0.47802 0.26163 0.75199 0.0
C2897 C 0.4124 0.22242 0.71051 0.0
C2898 C 0.4055 0.20388 0.70258 0.0
C2899 C 0.41854 0.18875 0.70358 0.0
C2900 C 0.43829 0.192 0.71249 0.0
C2901 C 0.44471 0.21054 0.72007 0.0
C2902 C 0.43216 0.2255 0.71917 0.0
C2903 C 0.4426 0.24389 0.72889 0.0
C2904 C 0.44423 0.26122 0.71303 0.0
C2905 C 0.43192 0.24923 0.74725 0.0
C2906 C 0.46294 0.23686 0.73569 0.0
C2907 C 0.46381 0.21759 0.73038 0.0
C2908 C 0.48055 0.2074 0.73607 0.0
C2909 C 0.49665 0.21699 0.74789 0.0
C2910 C 0.49598 0.23661 0.75376 0.0
C2911 C 0.47908 0.24681 0.74723 0.0
H2912 H 0.67692 0.70297 0.147 0.0
H2913 H 0.72898 0.6995 0.19072 0.0
H2914 H 0.75073 0.71423 0.16452 0.0
H2915 H 0.70021 0.69222 0.1021 0.0
H2916 H 0.68698 0.70944 0.08545 0.0
H2917 H 0.67573 0.69802 0.10741 0.0
H2918 H 0.6714 0.73249 0.12036 0.0
H2919 H 0.68263 0.74403 0.09844 0.0
H2920 H 0.69292 0.75027 0.1239 0.0
H2921 H 0.76664 0.72983 0.13363 0.0
H2922 H 0.77568 0.74522 0.10057 0.0
H2923 H 0.71308 0.73967 0.07698 0.0
C2924 C 0.69288 0.70549 0.15106 0.0
C2925 C 0.70133 0.70022 0.17091 0.0
C2926 C 0.72231 0.70336 0.17556 0.0
C2927 C 0.73471 0.71177 0.16081 0.0
C2928 C 0.72589 0.71705 0.14145 0.0
C2929 C 0.70544 0.71406 0.13654 0.0
C2930 C 0.69972 0.72134 0.11472 0.0
C2931 C 0.6901 0.70423 0.10165 0.0
C2932 C 0.68585 0.73803 0.11434 0.0
C2933 C 0.72013 0.72897 0.10811 0.0
C2934 C 0.73502 0.72624 0.12374 0.0
C2935 C 0.75509 0.73196 0.12128 0.0
C2936 C 0.7601 0.7406 0.10237 0.0
C2937 C 0.74514 0.74359 0.08607 0.0
C2938 C 0.72486 0.73774 0.08914 0.0
H2939 H 0.36336 0.6967 0.11405 0.0
H2940 H 0.30641 0.69236 0.13981 0.0
H2941 H 0.29116 0.70887 0.10825 0.0
H2942 H 0.36111 0.74411 0.09423 0.0
H2943 H 0.37344 0.74078 0.07166 0.0
H2944 H 0.37845 0.72552 0.09435 0.0
H2945 H 0.3682 0.69417 0.07361 0.0
H2946 H 0.36313 0.70938 0.05078 0.0
H2947 H 0.34397 0.69136 0.05926 0.0
H2948 H 0.28358 0.72942 0.07539 0.0
H2949 H 0.28482 0.75345 0.04579 0.0
H2950 H 0.34736 0.74484 0.0427 0.0
C2951 C 0.34756 0.69883 0.11269 0.0
C2952 C 0.33588 0.69319 0.129 0.0
C2953 C 0.31537 0.69642 0.12717 0.0
C2954 C 0.30668 0.70573 0.10936 0.0
C2955 C 0.31877 0.7116 0.09362 0.0
C2956 C 0.3388 0.7082 0.09518 0.0
C2957 C 0.34924 0.71784 0.07741 0.0
C2958 C 0.36657 0.73296 0.08486 0.0
C2959 C 0.35656 0.70225 0.0645 0.0
C2960 C 0.33218 0.72779 0.06589 0.0
C2961 C 0.31459 0.72373 0.07515 0.0
C2962 C 0.2972 0.73244 0.06785 0.0
C2963 C 0.298 0.746 0.051 0.0
C2964 C 0.31617 0.7509 0.04197 0.0
C2965 C 0.33323 0.74126 0.04923 0.0
H2966 H 0.38878 0.345 0.15001 0.0
H2967 H 0.37826 0.29643 0.19356 0.0
H2968 H 0.3683 0.27393 0.16508 0.0
H2969 H 0.34644 0.33397 0.11927 0.0
H2970 H 0.35636 0.34161 0.0953 0.0
H2971 H 0.36749 0.35237 0.11859 0.0
H2972 H 0.40209 0.34179 0.11179 0.0
H2973 H 0.39111 0.3311 0.08828 0.0
H2974 H 0.40466 0.3163 0.10737 0.0
H2975 H 0.35413 0.25813 0.13147 0.0
H2976 H 0.33624 0.25141 0.09734 0.0
H2977 H 0.35475 0.31105 0.07625 0.0
C2978 C 0.38536 0.32939 0.15339 0.0
C2979 C 0.38513 0.3222 0.17388 0.0
C2980 C 0.37947 0.30196 0.17796 0.0
C2981 C 0.3736 0.28916 0.16183 0.0
C2982 C 0.37333 0.29688 0.14168 0.0
C2983 C 0.3792 0.31659 0.13748 0.0
C2984 C 0.37483 0.32209 0.11497 0.0
C2985 C 0.36042 0.33846 0.11186 0.0
C2986 C 0.39434 0.32817 0.10501 0.0
C2987 C 0.36494 0.30264 0.1072 0.0
C2988 C 0.36454 0.2881 0.12265 0.0
C2989 C 0.35473 0.26934 0.11921 0.0
C2990 C 0.34468 0.26558 0.09974 0.0
C2991 C 0.34422 0.28063 0.08406 0.0
C2992 C 0.355 0.29915 0.08783 0.0
H2993 H 0.70054 0.36367 0.11435 0.0
H2994 H 0.75382 0.36979 0.15657 0.0
H2995 H 0.77454 0.3642 0.12868 0.0
H2996 H 0.71262 0.32361 0.09273 0.0
H2997 H 0.70236 0.32899 0.06689 0.0
H2998 H 0.69235 0.33917 0.088 0.0
H2999 H 0.6993 0.37457 0.07249 0.0
H3000 H 0.70891 0.36453 0.05094 0.0
H3001 H 0.72409 0.38297 0.0657 0.0
H3002 H 0.78825 0.35099 0.0984 0.0
H3003 H 0.79429 0.33336 0.06824 0.0
H3004 H 0.73167 0.33454 0.04549 0.0
C3005 C 0.71668 0.36485 0.11733 0.0
C3006 C 0.7257 0.36759 0.13744 0.0
C3007 C 0.74676 0.36837 0.14115 0.0
C3008 C 0.75857 0.36496 0.1254 0.0
C3009 C 0.74905 0.36088 0.10602 0.0
C3010 C 0.72856 0.36113 0.10185 0.0
C3011 C 0.72159 0.3535 0.0808 0.0
C3012 C 0.70634 0.33524 0.0822 0.0
C3013 C 0.71297 0.36987 0.06664 0.0
C3014 C 0.7412 0.34812 0.07409 0.0
C3015 C 0.7569 0.35279 0.08869 0.0
C3016 C 0.77614 0.34775 0.08664 0.0
C3017 C 0.77942 0.33769 0.06931 0.0
C3018 C 0.76353 0.33255 0.05414 0.0
C3019 C 0.74422 0.33816 0.05662 0.0
H3020 H 0.72342 0.39283 0.90833 0.0
H3021 H 0.73324 0.35784 0.8578 0.0
H3022 H 0.76096 0.34299 0.87896 0.0
H3023 H 0.77704 0.4011 0.9292 0.0
H3024 H 0.77076 0.39913 0.95533 0.0
H3025 H 0.7535 0.40865 0.93538 0.0
H3026 H 0.72568 0.38215 0.94586 0.0
H3027 H 0.7428 0.37259 0.96578 0.0
H3028 H 0.73021 0.35646 0.94673 0.0
H3029 H 0.78457 0.32947 0.90654 0.0
H3030 H 0.8022 0.31751 0.93882 0.0
H3031 H 0.77775 0.36191 0.97162 0.0
C3032 C 0.73184 0.38241 0.90173 0.0
C3033 C 0.7266 0.37647 0.88155 0.0
C3034 C 0.73735 0.36247 0.87328 0.0
C3035 C 0.75308 0.35412 0.88513 0.0
C3036 C 0.75786 0.36009 0.90514 0.0
C3037 C 0.74762 0.37397 0.91338 0.0
C3038 C 0.75466 0.37662 0.93577 0.0
C3039 C 0.76459 0.39762 0.93911 0.0
C3040 C 0.73731 0.37165 0.94932 0.0
C3041 C 0.76991 0.36153 0.93904 0.0
C3042 C 0.77171 0.35236 0.9211 0.0
C3043 C 0.78359 0.33677 0.92061 0.0
C3044 C 0.79352 0.33006 0.93901 0.0
C3045 C 0.79151 0.33892 0.95766 0.0
C3046 C 0.77996 0.35518 0.95753 0.0
H3047 H 0.71845 0.67912 0.90266 0.0
H3048 H 0.76909 0.70095 0.86953 0.0
H3049 H 0.78518 0.71762 0.90027 0.0
H3050 H 0.71859 0.72432 0.93248 0.0
H3051 H 0.71118 0.71031 0.95497 0.0
H3052 H 0.70331 0.70121 0.9299 0.0
H3053 H 0.71886 0.66854 0.94082 0.0
H3054 H 0.72725 0.67772 0.96573 0.0
H3055 H 0.74499 0.66924 0.9501 0.0
H3056 H 0.7974 0.72874 0.93557 0.0
H3057 H 0.80226 0.73905 0.97136 0.0
H3058 H 0.74286 0.71194 0.98144 0.0
C3059 C 0.73261 0.68794 0.90179 0.0
C3060 C 0.74263 0.68877 0.88381 0.0
C3061 C 0.7613 0.70016 0.88325 0.0
C3062 C 0.77056 0.70956 0.90064 0.0
C3063 C 0.76079 0.70773 0.91846 0.0
C3064 C 0.74199 0.69768 0.91905 0.0
C3065 C 0.73481 0.69813 0.94021 0.0
C3066 C 0.71585 0.70915 0.93934 0.0
C3067 C 0.73127 0.67716 0.94977 0.0
C3068 C 0.75264 0.70965 0.95144 0.0
C3069 C 0.76756 0.71483 0.93865 0.0
C3070 C 0.78572 0.72497 0.94568 0.0
C3071 C 0.78845 0.73059 0.96612 0.0
C3072 C 0.77298 0.72632 0.97925 0.0
C3073 C 0.75499 0.71542 0.9718 0.0
H3074 H 0.38996 0.73667 0.87231 0.0
H3075 H 0.39456 0.68325 0.91039 0.0
H3076 H 0.38414 0.70008 0.93959 0.0
H3077 H 0.40885 0.77099 0.91247 0.0
H3078 H 0.39202 0.78921 0.90331 0.0
H3079 H 0.40039 0.77311 0.88562 0.0
H3080 H 0.36352 0.76179 0.87348 0.0
H3081 H 0.35505 0.77783 0.89113 0.0
H3082 H 0.34677 0.75187 0.89203 0.0
H3083 H 0.3716 0.72206 0.96392 0.0
H3084 H 0.3585 0.74808 0.98228 0.0
H3085 H 0.36304 0.78792 0.92898 0.0
C3086 C 0.38896 0.72869 0.8869 0.0
C3087 C 0.39289 0.70866 0.88919 0.0
C3088 C 0.39132 0.69852 0.90838 0.0
C3089 C 0.38555 0.70799 0.92501 0.0
C3090 C 0.38157 0.72769 0.92225 0.0
C3091 C 0.38331 0.738 0.90373 0.0
C3092 C 0.37779 0.75897 0.9048 0.0
C3093 C 0.39584 0.77396 0.90135 0.0
C3094 C 0.35971 0.76283 0.88945 0.0
C3095 C 0.37242 0.75875 0.92671 0.0
C3096 C 0.37472 0.74055 0.93648 0.0
C3097 C 0.36989 0.73642 0.95649 0.0
C3098 C 0.36238 0.75124 0.96676 0.0
C3099 C 0.35984 0.77001 0.9571 0.0
C3100 C 0.36515 0.77383 0.93687 0.0
H3101 H 0.37413 0.36671 0.90824 0.0
H3102 H 0.36313 0.31725 0.86856 0.0
H3103 H 0.34873 0.29666 0.89658 0.0
H3104 H 0.38415 0.33923 0.95713 0.0
H3105 H 0.37069 0.35499 0.97098 0.0
H3106 H 0.38282 0.36475 0.94886 0.0
H3107 H 0.34919 0.3763 0.93236 0.0
H3108 H 0.33692 0.36648 0.95434 0.0
H3109 H 0.32756 0.35863 0.92913 0.0
H3110 H 0.33341 0.28204 0.92871 0.0
H3111 H 0.31782 0.27505 0.96122 0.0
H3112 H 0.33575 0.33508 0.97878 0.0
C3113 C 0.36889 0.35147 0.90553 0.0
C3114 C 0.37007 0.34354 0.8862 0.0
C3115 C 0.36302 0.32352 0.88332 0.0
C3116 C 0.35457 0.31178 0.89914 0.0
C3117 C 0.35304 0.32029 0.91776 0.0
C3118 C 0.35997 0.33973 0.92098 0.0
C3119 C 0.35508 0.34589 0.9417 0.0
C3120 C 0.37433 0.35155 0.95548 0.0
C3121 C 0.34137 0.36282 0.93923 0.0
C3122 C 0.34412 0.32694 0.94962 0.0
C3123 C 0.34336 0.31225 0.93572 0.0
C3124 C 0.33401 0.29345 0.93969 0.0
C3125 C 0.32524 0.28958 0.95825 0.0
C3126 C 0.32552 0.30448 0.97259 0.0
C3127 C 0.33513 0.32341 0.96809 0.0
H3128 H 0.65605 0.71794 0.23131 0.0
H3129 H 0.6318 0.66262 0.20528 0.0
H3130 H 0.60018 0.66471 0.2211 0.0
H3131 H 0.63327 0.7118 0.27884 0.0
H3132 H 0.62778 0.73714 0.27938 0.0
H3133 H 0.64871 0.73108 0.26655 0.0
H3134 H 0.63446 0.74862 0.23317 0.0
H3135 H 0.61353 0.7548 0.24592 0.0
H3136 H 0.60924 0.74144 0.22268 0.0
H3137 H 0.5718 0.67212 0.24087 0.0
H3138 H 0.54727 0.68563 0.26068 0.0
H3139 H 0.58818 0.73783 0.27178 0.0
C3140 C 0.64398 0.70638 0.22889 0.0
C3141 C 0.64639 0.68996 0.21724 0.0
C3142 C 0.6303 0.67513 0.21437 0.0
C3143 C 0.61232 0.67624 0.22326 0.0
C3144 C 0.61042 0.69254 0.23473 0.0
C3145 C 0.62569 0.70751 0.23734 0.0
C3146 C 0.61941 0.72371 0.24982 0.0
C3147 C 0.63311 0.72606 0.26984 0.0
C3148 C 0.61915 0.7433 0.23714 0.0
C3149 C 0.59833 0.71542 0.25399 0.0
C3150 C 0.59359 0.6973 0.24529 0.0
C3151 C 0.57532 0.68635 0.2476 0.0
C3152 C 0.56151 0.69409 0.25899 0.0
C3153 C 0.56578 0.71276 0.26778 0.0
C3154 C 0.58445 0.7236 0.2651 0.0
H3155 H 0.36318 0.65778 0.21134 0.0
H3156 H 0.3663 0.63037 0.1539 0.0
H3157 H 0.3712 0.5984 0.1725 0.0
H3158 H 0.40072 0.62865 0.24194 0.0
H3159 H 0.38708 0.6274 0.26433 0.0
H3160 H 0.38602 0.64844 0.24658 0.0
H3161 H 0.34728 0.64266 0.24249 0.0
H3162 H 0.34822 0.62163 0.26013 0.0
H3163 H 0.3355 0.61895 0.23485 0.0
H3164 H 0.37137 0.56893 0.19683 0.0
H3165 H 0.36798 0.54405 0.2254 0.0
H3166 H 0.36626 0.59071 0.26737 0.0
C3167 C 0.36533 0.64507 0.20284 0.0
C3168 C 0.36412 0.64628 0.18127 0.0
C3169 C 0.36682 0.62948 0.17044 0.0
C3170 C 0.36978 0.61138 0.18088 0.0
C3171 C 0.37033 0.61048 0.20218 0.0
C3172 C 0.3684 0.62692 0.21307 0.0
C3173 C 0.36829 0.62171 0.23577 0.0
C3174 C 0.38662 0.63217 0.24787 0.0
C3175 C 0.34865 0.62652 0.24377 0.0
C3176 C 0.36972 0.59964 0.23585 0.0
C3177 C 0.37106 0.5935 0.21632 0.0
C3178 C 0.37077 0.57359 0.21224 0.0
C3179 C 0.36878 0.55958 0.22848 0.0
C3180 C 0.36721 0.56553 0.24853 0.0
C3181 C 0.36806 0.58584 0.25228 0.0
H3182 H 0.40696 0.30328 0.21688 0.0
H3183 H 0.43838 0.35848 0.1978 0.0
H3184 H 0.47084 0.34548 0.20964 0.0
H3185 H 0.4381 0.29289 0.26124 0.0
H3186 H 0.4375 0.26674 0.25793 0.0
H3187 H 0.41677 0.28002 0.24736 0.0
H3188 H 0.42019 0.26793 0.21121 0.0
H3189 H 0.44057 0.25416 0.22179 0.0
H3190 H 0.44409 0.27178 0.20073 0.0
H3191 H 0.49972 0.32729 0.2269 0.0
H3192 H 0.52308 0.30319 0.24184 0.0
H3193 H 0.47292 0.2589 0.24663 0.0
C3194 C 0.4207 0.31231 0.21451 0.0
C3195 C 0.42024 0.33184 0.20634 0.0
C3196 C 0.43852 0.34349 0.20407 0.0
C3197 C 0.45697 0.33625 0.21085 0.0
C3198 C 0.45691 0.31715 0.21953 0.0
C3199 C 0.43928 0.30513 0.22083 0.0
C3200 C 0.44338 0.28502 0.23037 0.0
C3201 C 0.43334 0.28094 0.25041 0.0
C3202 C 0.43666 0.26876 0.21511 0.0
C3203 C 0.46601 0.28768 0.23447 0.0
C3204 C 0.47354 0.30642 0.22845 0.0
C3205 C 0.49399 0.31249 0.23144 0.0
C3206 C 0.50714 0.29883 0.24014 0.0
C3207 C 0.49978 0.27927 0.24539 0.0
C3208 C 0.47893 0.27379 0.24272 0.0
H3209 H 0.75021 0.3866 0.18894 0.0
H3210 H 0.69626 0.40863 0.15919 0.0
H3211 H 0.70738 0.44202 0.17178 0.0
H3212 H 0.75373 0.41306 0.23302 0.0
H3213 H 0.78055 0.41842 0.23532 0.0
H3214 H 0.76931 0.39676 0.22256 0.0
H3215 H 0.78666 0.40797 0.18986 0.0
H3216 H 0.7985 0.42934 0.20275 0.0
H3217 H 0.78377 0.43231 0.17856 0.0
H3218 H 0.72269 0.47189 0.19169 0.0
H3219 H 0.74416 0.49761 0.21111 0.0
H3220 H 0.78928 0.45656 0.22551 0.0
C3221 C 0.74127 0.39872 0.18433 0.0
C3222 C 0.72268 0.39535 0.17264 0.0
C3223 C 0.71083 0.41125 0.16762 0.0
C3224 C 0.71691 0.43011 0.17495 0.0
C3225 C 0.73505 0.43286 0.18708 0.0
C3226 C 0.74736 0.41773 0.1912 0.0
C3227 C 0.7661 0.42449 0.20461 0.0
C3228 C 0.76749 0.41246 0.22509 0.0
C3229 C 0.78487 0.42348 0.19326 0.0
C3230 C 0.76227 0.44565 0.20771 0.0
C3231 C 0.74414 0.45015 0.19778 0.0
C3232 C 0.73705 0.4686 0.19927 0.0
C3233 C 0.74918 0.48303 0.21053 0.0
C3234 C 0.76825 0.47898 0.21983 0.0
C3235 C 0.7747 0.45999 0.21855 0.0
H3236 H 0.67502 0.35088 0.82769 0.0
H3237 H 0.64671 0.40137 0.84419 0.0
H3238 H 0.6144 0.38767 0.82668 0.0
H3239 H 0.64452 0.34115 0.77809 0.0
H3240 H 0.64378 0.31482 0.78296 0.0
H3241 H 0.66518 0.33063 0.79285 0.0
H3242 H 0.66074 0.31607 0.82957 0.0
H3243 H 0.63953 0.30018 0.81977 0.0
H3244 H 0.63694 0.31658 0.83984 0.0
H3245 H 0.58426 0.36594 0.81131 0.0
H3246 H 0.55938 0.33757 0.80258 0.0
H3247 H 0.60769 0.30093 0.79825 0.0
C3248 C 0.66206 0.35916 0.82728 0.0
C3249 C 0.66323 0.37715 0.83715 0.0
C3250 C 0.64607 0.38768 0.83638 0.0
C3251 C 0.62772 0.38 0.82649 0.0
C3252 C 0.62689 0.36181 0.81738 0.0
C3253 C 0.6437 0.35156 0.81775 0.0
C3254 C 0.63858 0.33126 0.80941 0.0
C3255 C 0.64861 0.32936 0.78965 0.0
C3256 C 0.64427 0.31508 0.82562 0.0
C3257 C 0.61614 0.33128 0.80506 0.0
C3258 C 0.60963 0.34918 0.80917 0.0
C3259 C 0.58924 0.352 0.80768 0.0
C3260 C 0.57521 0.33591 0.80259 0.0
C3261 C 0.58176 0.31729 0.7995 0.0
C3262 C 0.60241 0.31519 0.80017 0.0
H3263 H 0.772 0.65349 0.82786 0.0
H3264 H 0.71564 0.6184 0.83376 0.0
H3265 H 0.72749 0.59165 0.81519 0.0
H3266 H 0.78251 0.63667 0.77801 0.0
H3267 H 0.80888 0.63613 0.78571 0.0
H3268 H 0.79477 0.65352 0.79656 0.0
H3269 H 0.8061 0.64021 0.83311 0.0
H3270 H 0.82034 0.62294 0.82238 0.0
H3271 H 0.80172 0.6142 0.83946 0.0
H3272 H 0.74684 0.56767 0.79788 0.0
H3273 H 0.77266 0.54787 0.78685 0.0
H3274 H 0.81691 0.59804 0.79497 0.0
C3275 C 0.76212 0.64023 0.82508 0.0
C3276 C 0.74283 0.63808 0.83204 0.0
C3277 C 0.7303 0.62051 0.82815 0.0
C3278 C 0.73695 0.60523 0.81767 0.0
C3279 C 0.75623 0.6077 0.81129 0.0
C3280 C 0.76867 0.62476 0.81501 0.0
C3281 C 0.78938 0.62309 0.80857 0.0
C3282 C 0.79416 0.63825 0.79117 0.0
C3283 C 0.80532 0.62523 0.82697 0.0
C3284 C 0.78686 0.60228 0.80105 0.0
C3285 C 0.76754 0.59373 0.80227 0.0
C3286 C 0.76197 0.57429 0.79674 0.0
C3287 C 0.77667 0.56318 0.79037 0.0
C3288 C 0.79672 0.57145 0.79001 0.0
C3289 C 0.80166 0.59136 0.79501 0.0
H3290 H 0.4238 0.71835 0.81909 0.0
H3291 H 0.4392 0.66084 0.84256 0.0
H3292 H 0.46969 0.66482 0.82383 0.0
H3293 H 0.44723 0.71972 0.76874 0.0
H3294 H 0.45595 0.74541 0.7713 0.0
H3295 H 0.43294 0.73562 0.78148 0.0
H3296 H 0.44657 0.74835 0.81713 0.0
H3297 H 0.46953 0.75806 0.80711 0.0
H3298 H 0.4701 0.74088 0.82893 0.0
H3299 H 0.50163 0.67796 0.80763 0.0
H3300 H 0.53153 0.69906 0.79744 0.0
H3301 H 0.49598 0.74882 0.78738 0.0
C3302 C 0.43326 0.70633 0.81958 0.0
C3303 C 0.42913 0.68922 0.83203 0.0
C3304 C 0.44192 0.67387 0.83274 0.0
C3305 C 0.45931 0.6761 0.82221 0.0
C3306 C 0.46362 0.69375 0.81101 0.0
C3307 C 0.45079 0.70856 0.80958 0.0
C3308 C 0.46009 0.72732 0.79962 0.0
C3309 C 0.44835 0.7323 0.77906 0.0
C3310 C 0.46168 0.74465 0.81407 0.0
C3311 C 0.4805 0.72112 0.79646 0.0
C3312 C 0.48216 0.70155 0.80252 0.0
C3313 C 0.5003 0.69314 0.80243 0.0
C3314 C 0.51719 0.70516 0.79654 0.0
C3315 C 0.51583 0.72537 0.79124 0.0
C3316 C 0.49719 0.73324 0.79082 0.0
H3317 H 0.36201 0.38863 0.80649 0.0
H3318 H 0.38679 0.41727 0.86181 0.0
H3319 H 0.38364 0.45002 0.84411 0.0
H3320 H 0.38477 0.4235 0.77026 0.0
H3321 H 0.36312 0.42261 0.75179 0.0
H3322 H 0.36769 0.40146 0.7686 0.0
H3323 H 0.33246 0.40154 0.78125 0.0
H3324 H 0.32775 0.42259 0.76437 0.0
H3325 H 0.32539 0.42369 0.79138 0.0
H3326 H 0.37838 0.47953 0.82023 0.0
H3327 H 0.36887 0.50395 0.79293 0.0
H3328 H 0.34572 0.45641 0.75316 0.0
C3329 C 0.36675 0.40187 0.81475 0.0
C3330 C 0.37472 0.40058 0.83547 0.0
C3331 C 0.38063 0.41809 0.84597 0.0
C3332 C 0.37897 0.43669 0.836 0.0
C3333 C 0.37116 0.43753 0.81553 0.0
C3334 C 0.36492 0.4206 0.80506 0.0
C3335 C 0.35639 0.42572 0.78335 0.0
C3336 C 0.36874 0.41786 0.76757 0.0
C3337 C 0.33418 0.41792 0.77989 0.0
C3338 C 0.35889 0.44814 0.78323 0.0
C3339 C 0.36759 0.4546 0.80192 0.0
C3340 C 0.37143 0.47463 0.80559 0.0
C3341 C 0.36589 0.48842 0.78996 0.0
C3342 C 0.35639 0.48229 0.7708 0.0
C3343 C 0.35313 0.46176 0.76742 0.0
H3344 H 0.71825 0.65976 0.22671 0.0
H3345 H 0.6971 0.65937 0.16234 0.0
H3346 H 0.72045 0.63451 0.15707 0.0
H3347 H 0.77026 0.65218 0.22166 0.0
H3348 H 0.77249 0.63603 0.24421 0.0
H3349 H 0.75534 0.65491 0.24251 0.0
H3350 H 0.72618 0.62848 0.24932 0.0
H3351 H 0.74324 0.60955 0.2511 0.0
H3352 H 0.72121 0.60764 0.23315 0.0
H3353 H 0.74545 0.60861 0.15923 0.0
H3354 H 0.76872 0.58303 0.16875 0.0
H3355 H 0.77243 0.59909 0.23214 0.0
C3356 C 0.71848 0.65434 0.21155 0.0
C3357 C 0.70585 0.6615 0.1949 0.0
C3358 C 0.70684 0.65428 0.17522 0.0
C3359 C 0.71999 0.64011 0.17213 0.0
C3360 C 0.73205 0.63315 0.18892 0.0
C3361 C 0.73135 0.63999 0.20828 0.0
C3362 C 0.74515 0.62943 0.22393 0.0
C3363 C 0.7618 0.64401 0.23365 0.0
C3364 C 0.73323 0.6181 0.24034 0.0
C3365 C 0.75355 0.61542 0.21043 0.0
C3366 C 0.746 0.61795 0.19025 0.0
C3367 C 0.75149 0.60657 0.17499 0.0
C3368 C 0.76484 0.59211 0.18053 0.0
C3369 C 0.77246 0.58893 0.2012 0.0
C3370 C 0.76677 0.60096 0.21624 0.0
H3371 H 0.73522 0.40815 0.83013 0.0
H3372 H 0.72303 0.42629 0.88941 0.0
H3373 H 0.7528 0.45091 0.88994 0.0
H3374 H 0.78998 0.41392 0.839 0.0
H3375 H 0.79312 0.423 0.81315 0.0
H3376 H 0.77182 0.40605 0.81835 0.0
H3377 H 0.74789 0.43082 0.80092 0.0
H3378 H 0.76909 0.44777 0.79558 0.0
H3379 H 0.7498 0.45566 0.80962 0.0
H3380 H 0.78278 0.47486 0.8826 0.0
H3381 H 0.80944 0.49692 0.86763 0.0
H3382 H 0.802 0.46238 0.81331 0.0
C3383 C 0.739 0.41734 0.84317 0.0
C3384 C 0.72707 0.41564 0.8597 0.0
C3385 C 0.7322 0.42762 0.87668 0.0
C3386 C 0.74903 0.4415 0.87709 0.0
C3387 C 0.76052 0.44299 0.86042 0.0
C3388 C 0.7557 0.4312 0.84378 0.0
C3389 C 0.76985 0.43625 0.8274 0.0
C3390 C 0.78191 0.41876 0.8243 0.0
C3391 C 0.75848 0.44303 0.80719 0.0
C3392 C 0.78308 0.45309 0.83713 0.0
C3393 C 0.77767 0.45664 0.85627 0.0
C3394 C 0.78727 0.47208 0.86772 0.0
C3395 C 0.80248 0.48447 0.85915 0.0
C3396 C 0.80777 0.48141 0.83928 0.0
C3397 C 0.79819 0.4652 0.82845 0.0
H3398 H 0.71394 0.71387 0.84664 0.0
H3399 H 0.68403 0.65945 0.86959 0.0
H3400 H 0.65179 0.67447 0.8661 0.0
H3401 H 0.6818 0.74818 0.86994 0.0
H3402 H 0.6822 0.76501 0.84787 0.0
H3403 H 0.70332 0.75105 0.8554 0.0
H3404 H 0.70055 0.73743 0.81907 0.0
H3405 H 0.67925 0.75102 0.8115 0.0
H3406 H 0.67727 0.72467 0.80896 0.0
H3407 H 0.6223 0.693 0.85411 0.0
H3408 H 0.59777 0.71556 0.83844 0.0
H3409 H 0.64629 0.7591 0.82487 0.0
C3410 C 0.70071 0.70557 0.8518 0.0
C3411 C 0.70136 0.68568 0.85881 0.0
C3412 C 0.68372 0.67483 0.86464 0.0
C3413 C 0.66539 0.68322 0.86257 0.0
C3414 C 0.66498 0.70261 0.85481 0.0
C3415 C 0.68222 0.71385 0.84992 0.0
C3416 C 0.67731 0.73386 0.8405 0.0
C3417 C 0.68672 0.75051 0.85425 0.0
C3418 C 0.68399 0.73691 0.81872 0.0
C3419 C 0.65462 0.73179 0.84016 0.0
C3420 C 0.64784 0.71362 0.84848 0.0
C3421 C 0.62744 0.70748 0.84808 0.0
C3422 C 0.61363 0.72027 0.83908 0.0
C3423 C 0.6202 0.73907 0.83087 0.0
C3424 C 0.64096 0.74496 0.83157 0.0
H3425 H 0.38915 0.66987 0.8095 0.0
H3426 H 0.39967 0.63878 0.86803 0.0
H3427 H 0.38451 0.60762 0.85302 0.0
H3428 H 0.34252 0.64603 0.79494 0.0
H3429 H 0.34593 0.64444 0.76821 0.0
H3430 H 0.35958 0.66389 0.78276 0.0
H3431 H 0.39321 0.65331 0.77299 0.0
H3432 H 0.37964 0.63409 0.75798 0.0
H3433 H 0.39882 0.62805 0.77776 0.0
H3434 H 0.36379 0.58111 0.83291 0.0
H3435 H 0.34408 0.55964 0.80742 0.0
H3436 H 0.34877 0.60734 0.76135 0.0
C3437 C 0.38888 0.65631 0.81885 0.0
C3438 C 0.39553 0.65657 0.83987 0.0
C3439 C 0.39462 0.63871 0.85188 0.0
C3440 C 0.38596 0.62103 0.84351 0.0
C3441 C 0.3786 0.62138 0.82296 0.0
C3442 C 0.38045 0.63842 0.81061 0.0
C3443 C 0.37081 0.63483 0.78913 0.0
C3444 C 0.3537 0.64809 0.78344 0.0
C3445 C 0.38656 0.63773 0.77354 0.0
C3446 C 0.36286 0.61331 0.79151 0.0
C3447 C 0.36736 0.60585 0.81118 0.0
C3448 C 0.3605 0.58667 0.81734 0.0
C3449 C 0.34916 0.57464 0.80286 0.0
C3450 C 0.34504 0.58178 0.78244 0.0
C3451 C 0.35192 0.6014 0.77682 0.0
H3452 H 0.4253 0.34791 0.87471 0.0
H3453 H 0.37822 0.32073 0.83316 0.0
H3454 H 0.40059 0.29588 0.82529 0.0
H3455 H 0.46327 0.34486 0.84392 0.0
H3456 H 0.48259 0.33981 0.86395 0.0
H3457 H 0.46199 0.35301 0.86941 0.0
H3458 H 0.4535 0.32729 0.89838 0.0
H3459 H 0.4743 0.3141 0.89324 0.0
H3460 H 0.4495 0.30148 0.8929 0.0
H3461 H 0.42939 0.27726 0.81816 0.0
H3462 H 0.462 0.26519 0.8134 0.0
H3463 H 0.4911 0.30447 0.85935 0.0
C3464 C 0.41953 0.33606 0.8648 0.0
C3465 C 0.3998 0.33559 0.85518 0.0
C3466 C 0.39301 0.32072 0.84125 0.0
C3467 C 0.40569 0.3067 0.83659 0.0
C3468 C 0.42526 0.30783 0.84589 0.0
C3469 C 0.43213 0.32201 0.85989 0.0
C3470 C 0.45439 0.32123 0.86608 0.0
C3471 C 0.46625 0.34089 0.8605 0.0
C3472 C 0.45814 0.31569 0.88901 0.0
C3473 C 0.45906 0.30477 0.85303 0.0
C3474 C 0.442 0.29718 0.84159 0.0
C3475 C 0.44276 0.28286 0.82731 0.0
C3476 C 0.46138 0.27617 0.82461 0.0
C3477 C 0.47911 0.28371 0.8361 0.0
C3478 C 0.47779 0.29807 0.85068 0.0
H3479 H 0.3691 0.37122 0.24345 0.0
H3480 H 0.36705 0.3918 0.17994 0.0
H3481 H 0.35159 0.4216 0.18847 0.0
H3482 H 0.32344 0.3905 0.25634 0.0
H3483 H 0.33422 0.39769 0.28135 0.0
H3484 H 0.34288 0.37708 0.26974 0.0
H3485 H 0.37929 0.3935 0.27394 0.0
H3486 H 0.37076 0.41405 0.28569 0.0
H3487 H 0.38469 0.41822 0.26354 0.0
H3488 H 0.3374 0.45008 0.2047 0.0
H3489 H 0.32893 0.4756 0.22731 0.0
H3490 H 0.34308 0.43722 0.28036 0.0
C3491 C 0.36542 0.38206 0.2314 0.0
C3492 C 0.36931 0.37931 0.21106 0.0
C3493 C 0.36403 0.39362 0.19559 0.0
C3494 C 0.35527 0.41056 0.20032 0.0
C3495 C 0.35198 0.41305 0.22064 0.0
C3496 C 0.35707 0.39921 0.23595 0.0
C3497 C 0.35355 0.406 0.25679 0.0
C3498 C 0.33757 0.39198 0.26663 0.0
C3499 C 0.37324 0.40807 0.27081 0.0
C3500 C 0.34593 0.42592 0.25091 0.0
C3501 C 0.34472 0.42962 0.22997 0.0
C3502 C 0.33826 0.44728 0.22111 0.0
C3503 C 0.33337 0.46166 0.23403 0.0
C3504 C 0.33536 0.4584 0.25556 0.0
C3505 C 0.34142 0.44015 0.26395 0.0
H3506 H 0.65725 0.33282 0.16133 0.0
H3507 H 0.70199 0.3295 0.21298 0.0
H3508 H 0.68008 0.30347 0.22978 0.0
H3509 H 0.61488 0.32732 0.19022 0.0
H3510 H 0.59916 0.31274 0.17176 0.0
H3511 H 0.6189 0.33011 0.16345 0.0
H3512 H 0.63368 0.30213 0.14619 0.0
H3513 H 0.61403 0.28463 0.15457 0.0
H3514 H 0.63988 0.28028 0.16118 0.0
H3515 H 0.65301 0.27882 0.24124 0.0
H3516 H 0.62179 0.2585 0.24777 0.0
H3517 H 0.59412 0.27805 0.18879 0.0
C3518 C 0.66237 0.32641 0.1761 0.0
C3519 C 0.68117 0.33297 0.186 0.0
C3520 C 0.68752 0.32458 0.20537 0.0
C3521 C 0.67526 0.30977 0.21488 0.0
C3522 C 0.65674 0.30358 0.20474 0.0
C3523 C 0.65025 0.31168 0.18583 0.0
C3524 C 0.62927 0.30309 0.17872 0.0
C3525 C 0.6147 0.31928 0.17588 0.0
C3526 C 0.62922 0.29186 0.15899 0.0
C3527 C 0.62484 0.2891 0.19673 0.0
C3528 C 0.64099 0.28948 0.21146 0.0
C3529 C 0.6403 0.27838 0.2298 0.0
C3530 C 0.62248 0.26694 0.23341 0.0
C3531 C 0.60552 0.26674 0.21882 0.0
C3532 C 0.60692 0.27768 0.20007 0.0
H3533 H 0.37936 0.70573 0.20491 0.0
H3534 H 0.40305 0.66651 0.16557 0.0
H3535 H 0.43752 0.67646 0.18066 0.0
H3536 H 0.41666 0.74462 0.20109 0.0
H3537 H 0.41779 0.75163 0.2273 0.0
H3538 H 0.39494 0.73979 0.21522 0.0
H3539 H 0.39458 0.71235 0.24402 0.0
H3540 H 0.41728 0.72427 0.25641 0.0
H3541 H 0.41623 0.69877 0.24995 0.0
H3542 H 0.46925 0.69339 0.19728 0.0
H3543 H 0.49624 0.71356 0.21676 0.0
H3544 H 0.45183 0.74183 0.2457 0.0
C3545 C 0.39187 0.69899 0.19992 0.0
C3546 C 0.38883 0.68533 0.18428 0.0
C3547 C 0.40532 0.67681 0.17778 0.0
C3548 C 0.42484 0.68247 0.18616 0.0
C3549 C 0.42748 0.69655 0.2011 0.0
C3550 C 0.41143 0.70447 0.20818 0.0
C3551 C 0.4184 0.71991 0.22376 0.0
C3552 C 0.41154 0.74018 0.21639 0.0
C3553 C 0.4112 0.71343 0.24478 0.0
C3554 C 0.44088 0.71976 0.22399 0.0
C3555 C 0.44579 0.70619 0.21082 0.0
C3556 C 0.4656 0.70389 0.20784 0.0
C3557 C 0.48083 0.71553 0.21888 0.0
C3558 C 0.47618 0.72927 0.2328 0.0
C3559 C 0.45589 0.73142 0.23525 0.0
loop_
_geom_bond_atom_site_label_1
_geom_bond_atom_site_label_2
_geom_bond_distance
_geom_bond_site_symmetry_2
_ccdc_geom_bond_type
C0 N1 1.317 . S
C0 N2 1.348 . S
C0 C3 1.485 . S
N1 C0 1.317 . S
N1 N5 1.370 . S
N2 C0 1.348 . S
N2 C4 1.346 . S
C3 C0 1.485 . S
C3 H7 0.960 . S
C3 H8 0.961 . S
C3 H9 0.960 . S
C4 N2 1.346 . S
C4 N5 1.307 . S
C4 C6 1.486 . S
N5 N1 1.370 . S
N5 C4 1.307 . S
C6 C4 1.486 . S
C6 H10 0.960 . S
C6 H11 0.960 . S
C6 H12 0.959 . S
H7 C3 0.960 . S
H8 C3 0.961 . S
H9 C3 0.960 . S
H10 C6 0.960 . S
H11 C6 0.960 . S
H12 C6 0.959 . S
C13 N14 1.317 . S
C13 N15 1.348 . S
C13 C16 1.485 . S
N14 C13 1.317 . S
N14 N18 1.370 . S
N15 C13 1.348 . S
N15 C17 1.346 . S
C16 C13 1.485 . S
C16 H20 0.960 . S
C16 H21 0.961 . S
C16 H22 0.960 . S
C17 N15 1.346 . S
C17 N18 1.307 . S
C17 C19 1.486 . S
N18 N14 1.370 . S
N18 C17 1.307 . S
C19 C17 1.486 . S
C19 H23 0.960 . S
C19 H24 0.960 . S
C19 H25 0.959 . S
H20 C16 0.960 . S
H21 C16 0.961 . S
H22 C16 0.960 . S
H23 C19 0.960 . S
H24 C19 0.960 . S
H25 C19 0.959 . S
C26 N27 1.317 . S
C26 N28 1.348 . S
C26 C29 1.485 . S
N27 C26 1.317 . S
N27 N31 1.370 . S
N28 C26 1.348 . S
N28 C30 1.346 . S
C29 C26 1.485 . S
C29 H33 0.960 . S
C29 H34 0.961 . S
C29 H35 0.960 . S
C30 N28 1.346 . S
C30 N31 1.307 . S
C30 C32 1.486 . S
N31 N27 1.370 . S
N31 C30 1.307 . S
C32 C30 1.486 . S
C32 H36 0.960 . S
C32 H37 0.960 . S
C32 H38 0.959 . S
H33 C29 0.960 . S
H34 C29 0.961 . S
H35 C29 0.960 . S
H36 C32 0.960 . S
H37 C32 0.960 . S
H38 C32 0.959 . S
C39 N40 1.317 . S
C39 N41 1.348 . S
C39 C42 1.485 . S
N40 C39 1.317 . S
N40 N44 1.370 . S
N41 C39 1.348 . S
N41 C43 1.346 . S
C42 C39 1.485 . S
C42 H46 0.960 . S
C42 H47 0.961 . S
C42 H48 0.960 . S
C43 N41 1.346 . S
C43 N44 1.307 . S
C43 C45 1.486 . S
N44 N40 1.370 . S
N44 C43 1.307 . S
C45 C43 1.486 . S
C45 H49 0.960 . S
C45 H50 0.960 . S
C45 H51 0.959 . S
H46 C42 0.960 . S
H47 C42 0.961 . S
H48 C42 0.960 . S
H49 C45 0.960 . S
H50 C45 0.960 . S
H51 C45 0.959 . S
C52 N53 1.317 . S
C52 N54 1.348 . S
C52 C55 1.485 . S
N53 C52 1.317 . S
N53 N57 1.370 . S
N54 C52 1.348 . S
N54 C56 1.346 . S
C55 C52 1.485 . S
C55 H59 0.960 . S
C55 H60 0.961 . S
C55 H61 0.960 . S
C56 N54 1.346 . S
C56 N57 1.307 . S
C56 C58 1.486 . S
N57 N53 1.370 . S
N57 C56 1.307 . S
C58 C56 1.486 . S
C58 H62 0.960 . S
C58 H63 0.960 . S
C58 H64 0.959 . S
H59 C55 0.960 . S
H60 C55 0.961 . S
H61 C55 0.960 . S
H62 C58 0.960 . S
H63 C58 0.960 . S
H64 C58 0.959 . S
C65 N66 1.317 . S
C65 N67 1.348 . S
C65 C68 1.485 . S
N66 C65 1.317 . S
N66 N70 1.370 . S
N67 C65 1.348 . S
N67 C69 1.346 . S
C68 C65 1.485 . S
C68 H72 0.960 . S
C68 H73 0.961 . S
C68 H74 0.960 . S
C69 N67 1.346 . S
C69 N70 1.307 . S
C69 C71 1.486 . S
N70 N66 1.370 . S
N70 C69 1.307 . S
C71 C69 1.486 . S
C71 H75 0.960 . S
C71 H76 0.960 . S
C71 H77 0.959 . S
H72 C68 0.960 . S
H73 C68 0.961 . S
H74 C68 0.960 . S
H75 C71 0.960 . S
H76 C71 0.960 . S
H77 C71 0.959 . S
C78 N79 1.317 . S
C78 N80 1.348 . S
C78 C81 1.485 . S
N79 C78 1.317 . S
N79 N83 1.370 . S
N80 C78 1.348 . S
N80 C82 1.346 . S
C81 C78 1.485 . S
C81 H85 0.960 . S
C81 H86 0.961 . S
C81 H87 0.960 . S
C82 N80 1.346 . S
C82 N83 1.307 . S
C82 C84 1.486 . S
N83 N79 1.370 . S
N83 C82 1.307 . S
C84 C82 1.486 . S
C84 H88 0.960 . S
C84 H89 0.960 . S
C84 H90 0.959 . S
H85 C81 0.960 . S
H86 C81 0.961 . S
H87 C81 0.960 . S
H88 C84 0.960 . S
H89 C84 0.960 . S
H90 C84 0.959 . S
C91 N92 1.317 . S
C91 N93 1.348 . S
C91 C94 1.485 . S
N92 C91 1.317 . S
N92 N96 1.370 . S
N93 C91 1.348 . S
N93 C95 1.346 . S
C94 C91 1.485 . S
C94 H98 0.960 . S
C94 H99 0.961 . S
C94 H100 0.960 . S
C95 N93 1.346 . S
C95 N96 1.307 . S
C95 C97 1.486 . S
N96 N92 1.370 . S
N96 C95 1.307 . S
C97 C95 1.486 . S
C97 H101 0.960 . S
C97 H102 0.960 . S
C97 H103 0.959 . S
H98 C94 0.960 . S
H99 C94 0.961 . S
H100 C94 0.960 . S
H101 C97 0.960 . S
H102 C97 0.960 . S
H103 C97 0.959 . S
C104 N105 1.317 . S
C104 N106 1.348 . S
C104 C107 1.485 . S
N105 C104 1.317 . S
N105 N109 1.370 . S
N106 C104 1.348 . S
N106 C108 1.346 . S
C107 C104 1.485 . S
C107 H111 0.960 . S
C107 H112 0.961 . S
C107 H113 0.960 . S
C108 N106 1.346 . S
C108 N109 1.307 . S
C108 C110 1.486 . S
N109 N105 1.370 . S
N109 C108 1.307 . S
C110 C108 1.486 . S
C110 H114 0.960 . S
C110 H115 0.960 . S
C110 H116 0.959 . S
H111 C107 0.960 . S
H112 C107 0.961 . S
H113 C107 0.960 . S
H114 C110 0.960 . S
H115 C110 0.960 . S
H116 C110 0.959 . S
C117 N118 1.317 . S
C117 N119 1.348 . S
C117 C120 1.485 . S
N118 C117 1.317 . S
N118 N122 1.370 . S
N119 C117 1.348 . S
N119 C121 1.346 . S
C120 C117 1.485 . S
C120 H124 0.960 . S
C120 H125 0.961 . S
C120 H126 0.960 . S
C121 N119 1.346 . S
C121 N122 1.307 . S
C121 C123 1.486 . S
N122 N118 1.370 . S
N122 C121 1.307 . S
C123 C121 1.486 . S
C123 H127 0.960 . S
C123 H128 0.960 . S
C123 H129 0.959 . S
H124 C120 0.960 . S
H125 C120 0.961 . S
H126 C120 0.960 . S
H127 C123 0.960 . S
H128 C123 0.960 . S
H129 C123 0.959 . S
C130 N131 1.317 . S
C130 N132 1.348 . S
C130 C133 1.485 . S
N131 C130 1.317 . S
N131 N135 1.370 . S
N132 C130 1.348 . S
N132 C134 1.346 . S
C133 C130 1.485 . S
C133 H137 0.960 . S
C133 H138 0.961 . S
C133 H139 0.960 . S
C134 N132 1.346 . S
C134 N135 1.307 . S
C134 C136 1.486 . S
N135 N131 1.370 . S
N135 C134 1.307 . S
C136 C134 1.486 . S
C136 H140 0.960 . S
C136 H141 0.960 . S
C136 H142 0.959 . S
H137 C133 0.960 . S
H138 C133 0.961 . S
H139 C133 0.960 . S
H140 C136 0.960 . S
H141 C136 0.960 . S
H142 C136 0.959 . S
C143 N144 1.317 . S
C143 N145 1.348 . S
C143 C146 1.485 . S
N144 C143 1.317 . S
N144 N148 1.370 . S
N145 C143 1.348 . S
N145 C147 1.346 . S
C146 C143 1.485 . S
C146 H150 0.960 . S
C146 H151 0.961 . S
C146 H152 0.960 . S
C147 N145 1.346 . S
C147 N148 1.307 . S
C147 C149 1.486 . S
N148 N144 1.370 . S
N148 C147 1.307 . S
C149 C147 1.486 . S
C149 H153 0.960 . S
C149 H154 0.960 . S
C149 H155 0.959 . S
H150 C146 0.960 . S
H151 C146 0.961 . S
H152 C146 0.960 . S
H153 C149 0.960 . S
H154 C149 0.960 . S
H155 C149 0.959 . S
C156 N157 1.317 . S
C156 N158 1.348 . S
C156 C159 1.485 . S
N157 C156 1.317 . S
N157 N161 1.370 . S
N158 C156 1.348 . S
N158 C160 1.346 . S
C159 C156 1.485 . S
C159 H163 0.960 . S
C159 H164 0.961 . S
C159 H165 0.960 . S
C160 N158 1.346 . S
C160 N161 1.307 . S
C160 C162 1.486 . S
N161 N157 1.370 . S
N161 C160 1.307 . S
C162 C160 1.486 . S
C162 H166 0.960 . S
C162 H167 0.960 . S
C162 H168 0.959 . S
H163 C159 0.960 . S
H164 C159 0.961 . S
H165 C159 0.960 . S
H166 C162 0.960 . S
H167 C162 0.960 . S
H168 C162 0.959 . S
C169 N170 1.317 . S
C169 N171 1.348 . S
C169 C172 1.485 . S
N170 C169 1.317 . S
N170 N174 1.370 . S
N171 C169 1.348 . S
N171 C173 1.346 . S
C172 C169 1.485 . S
C172 H176 0.960 . S
C172 H177 0.961 . S
C172 H178 0.960 . S
C173 N171 1.346 . S
C173 N174 1.307 . S
C173 C175 1.486 . S
N174 N170 1.370 . S
N174 C173 1.307 . S
C175 C173 1.486 . S
C175 H179 0.960 . S
C175 H180 0.960 . S
C175 H181 0.959 . S
H176 C172 0.960 . S
H177 C172 0.961 . S
H178 C172 0.960 . S
H179 C175 0.960 . S
H180 C175 0.960 . S
H181 C175 0.959 . S
C182 N183 1.317 . S
C182 N184 1.348 . S
C182 C185 1.485 . S
N183 C182 1.317 . S
N183 N187 1.370 . S
N184 C182 1.348 . S
N184 C186 1.346 . S
C185 C182 1.485 . S
C185 H189 0.960 . S
C185 H190 0.961 . S
C185 H191 0.960 . S
C186 N184 1.346 . S
C186 N187 1.307 . S
C186 C188 1.486 . S
N187 N183 1.370 . S
N187 C186 1.307 . S
C188 C186 1.486 . S
C188 H192 0.960 . S
C188 H193 0.960 . S
C188 H194 0.959 . S
H189 C185 0.960 . S
H190 C185 0.961 . S
H191 C185 0.960 . S
H192 C188 0.960 . S
H193 C188 0.960 . S
H194 C188 0.959 . S
C195 N196 1.317 . S
C195 N197 1.348 . S
C195 C198 1.485 . S
N196 C195 1.317 . S
N196 N200 1.370 . S
N197 C195 1.348 . S
N197 C199 1.346 . S
C198 C195 1.485 . S
C198 H202 0.960 . S
C198 H203 0.961 . S
C198 H204 0.960 . S
C199 N197 1.346 . S
C199 N200 1.307 . S
C199 C201 1.486 . S
N200 N196 1.370 . S
N200 C199 1.307 . S
C201 C199 1.486 . S
C201 H205 0.960 . S
C201 H206 0.960 . S
C201 H207 0.959 . S
H202 C198 0.960 . S
H203 C198 0.961 . S
H204 C198 0.960 . S
H205 C201 0.960 . S
H206 C201 0.960 . S
H207 C201 0.959 . S
C208 N209 1.317 . S
C208 N210 1.348 . S
C208 C211 1.485 . S
N209 C208 1.317 . S
N209 N213 1.370 . S
N210 C208 1.348 . S
N210 C212 1.346 . S
C211 C208 1.485 . S
C211 H215 0.960 . S
C211 H216 0.961 . S
C211 H217 0.960 . S
C212 N210 1.346 . S
C212 N213 1.307 . S
C212 C214 1.486 . S
N213 N209 1.370 . S
N213 C212 1.307 . S
C214 C212 1.486 . S
C214 H218 0.960 . S
C214 H219 0.960 . S
C214 H220 0.959 . S
H215 C211 0.960 . S
H216 C211 0.961 . S
H217 C211 0.960 . S
H218 C214 0.960 . S
H219 C214 0.960 . S
H220 C214 0.959 . S
C221 N222 1.317 . S
C221 N223 1.348 . S
C221 C224 1.485 . S
N222 C221 1.317 . S
N222 N226 1.370 . S
N223 C221 1.348 . S
N223 C225 1.346 . S
C224 C221 1.485 . S
C224 H228 0.960 . S
C224 H229 0.961 . S
C224 H230 0.960 . S
C225 N223 1.346 . S
C225 N226 1.307 . S
C225 C227 1.486 . S
N226 N222 1.370 . S
N226 C225 1.307 . S
C227 C225 1.486 . S
C227 H231 0.960 . S
C227 H232 0.960 . S
C227 H233 0.959 . S
H228 C224 0.960 . S
H229 C224 0.961 . S
H230 C224 0.960 . S
H231 C227 0.960 . S
H232 C227 0.960 . S
H233 C227 0.959 . S
C234 N235 1.317 . S
C234 N236 1.348 . S
C234 C237 1.485 . S
N235 C234 1.317 . S
N235 N239 1.370 . S
N236 C234 1.348 . S
N236 C238 1.346 . S
C237 C234 1.485 . S
C237 H241 0.960 . S
C237 H242 0.961 . S
C237 H243 0.960 . S
C238 N236 1.346 . S
C238 N239 1.307 . S
C238 C240 1.486 . S
N239 N235 1.370 . S
N239 C238 1.307 . S
C240 C238 1.486 . S
C240 H244 0.960 . S
C240 H245 0.960 . S
C240 H246 0.959 . S
H241 C237 0.960 . S
H242 C237 0.961 . S
H243 C237 0.960 . S
H244 C240 0.960 . S
H245 C240 0.960 . S
H246 C240 0.959 . S
C247 N248 1.317 . S
C247 N249 1.348 . S
C247 C250 1.485 . S
N248 C247 1.317 . S
N248 N252 1.370 . S
N249 C247 1.348 . S
N249 C251 1.346 . S
C250 C247 1.485 . S
C250 H254 0.960 . S
C250 H255 0.961 . S
C250 H256 0.960 . S
C251 N249 1.346 . S
C251 N252 1.307 . S
C251 C253 1.486 . S
N252 N248 1.370 . S
N252 C251 1.307 . S
C253 C251 1.486 . S
C253 H257 0.960 . S
C253 H258 0.960 . S
C253 H259 0.959 . S
H254 C250 0.960 . S
H255 C250 0.961 . S
H256 C250 0.960 . S
H257 C253 0.960 . S
H258 C253 0.960 . S
H259 C253 0.959 . S
C260 N261 1.317 . S
C260 N262 1.348 . S
C260 C263 1.485 . S
N261 C260 1.317 . S
N261 N265 1.370 . S
N262 C260 1.348 . S
N262 C264 1.346 . S
C263 C260 1.485 . S
C263 H267 0.960 . S
C263 H268 0.961 . S
C263 H269 0.960 . S
C264 N262 1.346 . S
C264 N265 1.307 . S
C264 C266 1.486 . S
N265 N261 1.370 . S
N265 C264 1.307 . S
C266 C264 1.486 . S
C266 H270 0.960 . S
C266 H271 0.960 . S
C266 H272 0.959 . S
H267 C263 0.960 . S
H268 C263 0.961 . S
H269 C263 0.960 . S
H270 C266 0.960 . S
H271 C266 0.960 . S
H272 C266 0.959 . S
C273 N274 1.317 . S
C273 N275 1.348 . S
C273 C276 1.485 . S
N274 C273 1.317 . S
N274 N278 1.370 . S
N275 C273 1.348 . S
N275 C277 1.346 . S
C276 C273 1.485 . S
C276 H280 0.960 . S
C276 H281 0.961 . S
C276 H282 0.960 . S
C277 N275 1.346 . S
C277 N278 1.307 . S
C277 C279 1.486 . S
N278 N274 1.370 . S
N278 C277 1.307 . S
C279 C277 1.486 . S
C279 H283 0.960 . S
C279 H284 0.960 . S
C279 H285 0.959 . S
H280 C276 0.960 . S
H281 C276 0.961 . S
H282 C276 0.960 . S
H283 C279 0.960 . S
H284 C279 0.960 . S
H285 C279 0.959 . S
C286 N287 1.317 . S
C286 N288 1.348 . S
C286 C289 1.485 . S
N287 C286 1.317 . S
N287 N291 1.370 . S
N288 C286 1.348 . S
N288 C290 1.346 . S
C289 C286 1.485 . S
C289 H293 0.960 . S
C289 H294 0.961 . S
C289 H295 0.960 . S
C290 N288 1.346 . S
C290 N291 1.307 . S
C290 C292 1.486 . S
N291 N287 1.370 . S
N291 C290 1.307 . S
C292 C290 1.486 . S
C292 H296 0.960 . S
C292 H297 0.960 . S
C292 H298 0.959 . S
H293 C289 0.960 . S
H294 C289 0.961 . S
H295 C289 0.960 . S
H296 C292 0.960 . S
H297 C292 0.960 . S
H298 C292 0.959 . S
C299 N300 1.317 . S
C299 N301 1.348 . S
C299 C302 1.485 . S
N300 C299 1.317 . S
N300 N304 1.370 . S
N301 C299 1.348 . S
N301 C303 1.346 . S
C302 C299 1.485 . S
C302 H306 0.960 . S
C302 H307 0.961 . S
C302 H308 0.960 . S
C303 N301 1.346 . S
C303 N304 1.307 . S
C303 C305 1.486 . S
N304 N300 1.370 . S
N304 C303 1.307 . S
C305 C303 1.486 . S
C305 H309 0.960 . S
C305 H310 0.960 . S
C305 H311 0.959 . S
H306 C302 0.960 . S
H307 C302 0.961 . S
H308 C302 0.960 . S
H309 C305 0.960 . S
H310 C305 0.960 . S
H311 C305 0.959 . S
C312 N313 1.317 . S
C312 N314 1.348 . S
C312 C315 1.485 . S
N313 C312 1.317 . S
N313 N317 1.370 . S
N314 C312 1.348 . S
N314 C316 1.346 . S
C315 C312 1.485 . S
C315 H319 0.960 . S
C315 H320 0.961 . S
C315 H321 0.960 . S
C316 N314 1.346 . S
C316 N317 1.307 . S
C316 C318 1.486 . S
N317 N313 1.370 . S
N317 C316 1.307 . S
C318 C316 1.486 . S
C318 H322 0.960 . S
C318 H323 0.960 . S
C318 H324 0.959 . S
H319 C315 0.960 . S
H320 C315 0.961 . S
H321 C315 0.960 . S
H322 C318 0.960 . S
H323 C318 0.960 . S
H324 C318 0.959 . S
C325 N326 1.317 . S
C325 N327 1.348 . S
C325 C328 1.485 . S
N326 C325 1.317 . S
N326 N330 1.370 . S
N327 C325 1.348 . S
N327 C329 1.346 . S
C328 C325 1.485 . S
C328 H332 0.960 . S
C328 H333 0.961 . S
C328 H334 0.960 . S
C329 N327 1.346 . S
C329 N330 1.307 . S
C329 C331 1.486 . S
N330 N326 1.370 . S
N330 C329 1.307 . S
C331 C329 1.486 . S
C331 H335 0.960 . S
C331 H336 0.960 . S
C331 H337 0.959 . S
H332 C328 0.960 . S
H333 C328 0.961 . S
H334 C328 0.960 . S
H335 C331 0.960 . S
H336 C331 0.960 . S
H337 C331 0.959 . S
C338 N339 1.317 . S
C338 N340 1.348 . S
C338 C341 1.485 . S
N339 C338 1.317 . S
N339 N343 1.370 . S
N340 C338 1.348 . S
N340 C342 1.346 . S
C341 C338 1.485 . S
C341 H345 0.960 . S
C341 H346 0.961 . S
C341 H347 0.960 . S
C342 N340 1.346 . S
C342 N343 1.307 . S
C342 C344 1.486 . S
N343 N339 1.370 . S
N343 C342 1.307 . S
C344 C342 1.486 . S
C344 H348 0.960 . S
C344 H349 0.960 . S
C344 H350 0.959 . S
H345 C341 0.960 . S
H346 C341 0.961 . S
H347 C341 0.960 . S
H348 C344 0.960 . S
H349 C344 0.960 . S
H350 C344 0.959 . S
C351 N352 1.317 . S
C351 N353 1.348 . S
C351 C354 1.485 . S
N352 C351 1.317 . S
N352 N356 1.370 . S
N353 C351 1.348 . S
N353 C355 1.346 . S
C354 C351 1.485 . S
C354 H358 0.960 . S
C354 H359 0.961 . S
C354 H360 0.960 . S
C355 N353 1.346 . S
C355 N356 1.307 . S
C355 C357 1.486 . S
N356 N352 1.370 . S
N356 C355 1.307 . S
C357 C355 1.486 . S
C357 H361 0.960 . S
C357 H362 0.960 . S
C357 H363 0.959 . S
H358 C354 0.960 . S
H359 C354 0.961 . S
H360 C354 0.960 . S
H361 C357 0.960 . S
H362 C357 0.960 . S
H363 C357 0.959 . S
C364 N365 1.317 . S
C364 N366 1.348 . S
C364 C367 1.485 . S
N365 C364 1.317 . S
N365 N369 1.370 . S
N366 C364 1.348 . S
N366 C368 1.346 . S
C367 C364 1.485 . S
C367 H371 0.960 . S
C367 H372 0.961 . S
C367 H373 0.960 . S
C368 N366 1.346 . S
C368 N369 1.307 . S
C368 C370 1.486 . S
N369 N365 1.370 . S
N369 C368 1.307 . S
C370 C368 1.486 . S
C370 H374 0.960 . S
C370 H375 0.960 . S
C370 H376 0.959 . S
H371 C367 0.960 . S
H372 C367 0.961 . S
H373 C367 0.960 . S
H374 C370 0.960 . S
H375 C370 0.960 . S
H376 C370 0.959 . S
C377 N378 1.317 . S
C377 N379 1.348 . S
C377 C380 1.485 . S
N378 C377 1.317 . S
N378 N382 1.370 . S
N379 C377 1.348 . S
N379 C381 1.346 . S
C380 C377 1.485 . S
C380 H384 0.960 . S
C380 H385 0.961 . S
C380 H386 0.960 . S
C381 N379 1.346 . S
C381 N382 1.307 . S
C381 C383 1.486 . S
N382 N378 1.370 . S
N382 C381 1.307 . S
C383 C381 1.486 . S
C383 H387 0.960 . S
C383 H388 0.960 . S
C383 H389 0.959 . S
H384 C380 0.960 . S
H385 C380 0.961 . S
H386 C380 0.960 . S
H387 C383 0.960 . S
H388 C383 0.960 . S
H389 C383 0.959 . S
C390 N391 1.317 . S
C390 N392 1.348 . S
C390 C393 1.485 . S
N391 C390 1.317 . S
N391 N395 1.370 . S
N392 C390 1.348 . S
N392 C394 1.346 . S
C393 C390 1.485 . S
C393 H397 0.960 . S
C393 H398 0.961 . S
C393 H399 0.960 . S
C394 N392 1.346 . S
C394 N395 1.307 . S
C394 C396 1.486 . S
N395 N391 1.370 . S
N395 C394 1.307 . S
C396 C394 1.486 . S
C396 H400 0.960 . S
C396 H401 0.960 . S
C396 H402 0.959 . S
H397 C393 0.960 . S
H398 C393 0.961 . S
H399 C393 0.960 . S
H400 C396 0.960 . S
H401 C396 0.960 . S
H402 C396 0.959 . S
C403 N404 1.317 . S
C403 N405 1.348 . S
C403 C406 1.485 . S
N404 C403 1.317 . S
N404 N408 1.370 . S
N405 C403 1.348 . S
N405 C407 1.346 . S
C406 C403 1.485 . S
C406 H410 0.960 . S
C406 H411 0.961 . S
C406 H412 0.960 . S
C407 N405 1.346 . S
C407 N408 1.307 . S
C407 C409 1.486 . S
N408 N404 1.370 . S
N408 C407 1.307 . S
C409 C407 1.486 . S
C409 H413 0.960 . S
C409 H414 0.960 . S
C409 H415 0.959 . S
H410 C406 0.960 . S
H411 C406 0.961 . S
H412 C406 0.960 . S
H413 C409 0.960 . S
H414 C409 0.960 . S
H415 C409 0.959 . S
Cu416 N417 1.999 . S
Cu416 O422 1.974 1_554 S
Cu416 N427 1.985 . S
Cu416 O436 1.959 . S
N417 Cu416 1.999 . S
N417 C419 1.263 1_554 S
N417 C421 1.389 . S
N418 C419 1.358 . S
N418 C420 1.400 . S
C419 N417 1.263 1_556 S
C419 N418 1.358 . S
C419 H425 0.930 . S
C420 N418 1.400 . S
C420 C421 1.351 1_556 S
C420 H437 0.930 . S
C421 N417 1.389 . S
C421 C420 1.351 1_554 S
C421 H426 0.930 . S
O422 Cu416 1.974 1_556 S
O422 C432 1.282 . S
C423 O424 1.261 . S
C423 O436 1.251 . S
O424 C423 1.261 . S
H425 C419 0.930 . S
H426 C421 0.930 . S
N427 Cu416 1.985 . S
N427 C429 1.335 . S
N427 C430 1.390 . S
N428 C429 1.345 . S
N428 C431 1.336 . S
C429 N427 1.335 . S
C429 N428 1.345 . S
C429 H434 0.930 . S
C430 N427 1.390 . S
C430 C431 1.346 . S
C430 H435 0.930 . S
C431 N428 1.336 . S
C431 C430 1.346 . S
C431 H438 0.929 . S
C432 O422 1.282 . S
C432 O433 1.216 . S
O433 C432 1.216 . S
H434 C429 0.930 . S
H435 C430 0.930 . S
O436 Cu416 1.959 . S
O436 C423 1.251 . S
H437 C420 0.930 . S
H438 C431 0.929 . S
Cu439 N440 1.999 . S
Cu439 O445 1.974 . S
Cu439 N450 1.985 1_554 S
Cu439 O459 1.959 1_554 S
N440 Cu439 1.999 . S
N440 C442 1.263 . S
N440 C444 1.389 . S
N441 C442 1.358 . S
N441 C443 1.400 . S
C442 N440 1.263 . S
C442 N441 1.358 . S
C442 H448 0.930 . S
C443 N441 1.400 . S
C443 C444 1.351 . S
C443 H460 0.930 . S
C444 N440 1.389 . S
C444 C443 1.351 . S
C444 H449 0.930 . S
O445 Cu439 1.974 . S
O445 C455 1.282 . S
C446 O447 1.261 . S
C446 O459 1.251 . S
O447 C446 1.261 . S
H448 C442 0.930 . S
H449 C444 0.930 . S
N450 Cu439 1.985 1_556 S
N450 C452 1.335 . S
N450 C453 1.390 1_556 S
N451 C452 1.345 . S
N451 C454 1.336 . S
C452 N450 1.335 . S
C452 N451 1.345 . S
C452 H457 0.930 . S
C453 N450 1.390 1_554 S
C453 C454 1.346 1_554 S
C453 H458 0.930 . S
C454 N451 1.336 . S
C454 C453 1.346 1_556 S
C454 H461 0.929 . S
C455 O445 1.282 . S
C455 O456 1.216 . S
O456 C455 1.216 . S
H457 C452 0.930 . S
H458 C453 0.930 . S
O459 Cu439 1.959 1_556 S
O459 C446 1.251 . S
H460 C443 0.930 . S
H461 C454 0.929 . S
Cu462 N463 1.999 1_554 S
Cu462 O468 1.974 1_554 S
Cu462 N473 1.985 . S
Cu462 O482 1.959 . S
N463 Cu462 1.999 1_556 S
N463 C465 1.263 . S
N463 C467 1.389 . S
N464 C465 1.358 . S
N464 C466 1.400 . S
C465 N463 1.263 . S
C465 N464 1.358 . S
C465 H471 0.930 . S
C466 N464 1.400 . S
C466 C467 1.351 . S
C466 H483 0.930 . S
C467 N463 1.389 . S
C467 C466 1.351 . S
C467 H472 0.930 1_556 S
O468 Cu462 1.974 1_556 S
O468 C478 1.282 . S
C469 O470 1.261 . S
C469 O482 1.251 . S
O470 C469 1.261 . S
H471 C465 0.930 . S
H472 C467 0.930 1_554 S
N473 Cu462 1.985 . S
N473 C475 1.335 . S
N473 C476 1.390 . S
N474 C475 1.345 . S
N474 C477 1.336 . S
C475 N473 1.335 . S
C475 N474 1.345 . S
C475 H480 0.930 . S
C476 N473 1.390 . S
C476 C477 1.346 . S
C476 H481 0.930 . S
C477 N474 1.336 . S
C477 C476 1.346 . S
C477 H484 0.929 . S
C478 O468 1.282 . S
C478 O479 1.216 . S
O479 C478 1.216 . S
H480 C475 0.930 . S
H481 C476 0.930 . S
O482 Cu462 1.959 . S
O482 C469 1.251 . S
H483 C466 0.930 . S
H484 C477 0.929 . S
Cu485 N486 1.999 . S
Cu485 O491 1.974 . S
Cu485 N496 1.985 1_554 S
Cu485 O505 1.959 1_554 S
N486 Cu485 1.999 . S
N486 C488 1.263 . S
N486 C490 1.389 . S
N487 C488 1.358 . S
N487 C489 1.400 . S
C488 N486 1.263 . S
C488 N487 1.358 . S
C488 H494 0.930 . S
C489 N487 1.400 . S
C489 C490 1.351 . S
C489 H506 0.930 . S
C490 N486 1.389 . S
C490 C489 1.351 . S
C490 H495 0.930 . S
O491 Cu485 1.974 . S
O491 C501 1.282 . S
C492 O493 1.261 . S
C492 O505 1.251 . S
O493 C492 1.261 . S
H494 C488 0.930 . S
H495 C490 0.930 . S
N496 Cu485 1.985 1_556 S
N496 C498 1.335 . S
N496 C499 1.390 . S
N497 C498 1.345 . S
N497 C500 1.336 . S
C498 N496 1.335 . S
C498 N497 1.345 . S
C498 H503 0.930 . S
C499 N496 1.390 . S
C499 C500 1.346 . S
C499 H504 0.930 1_556 S
C500 N497 1.336 . S
C500 C499 1.346 . S
C500 H507 0.929 . S
C501 O491 1.282 . S
C501 O502 1.216 . S
O502 C501 1.216 . S
H503 C498 0.930 . S
H504 C499 0.930 1_554 S
O505 Cu485 1.959 1_556 S
O505 C492 1.251 . S
H506 C489 0.930 . S
H507 C500 0.929 . S
Cu508 N509 1.999 . S
Cu508 O514 1.974 . S
Cu508 N519 1.985 1_455 S
Cu508 O528 1.959 1_455 S
N509 Cu508 1.999 . S
N509 C511 1.263 . S
N509 C513 1.389 . S
N510 C511 1.358 . S
N510 C512 1.400 . S
C511 N509 1.263 . S
C511 N510 1.358 . S
C511 H517 0.930 . S
C512 N510 1.400 . S
C512 C513 1.351 . S
C512 H529 0.930 . S
C513 N509 1.389 . S
C513 C512 1.351 . S
C513 H518 0.930 . S
O514 Cu508 1.974 . S
O514 C524 1.282 . S
C515 O516 1.261 . S
C515 O528 1.251 . S
O516 C515 1.261 . S
H517 C511 0.930 . S
H518 C513 0.930 . S
N519 Cu508 1.985 1_655 S
N519 C521 1.335 . S
N519 C522 1.390 1_655 S
N520 C521 1.345 . S
N520 C523 1.336 . S
C521 N519 1.335 . S
C521 N520 1.345 . S
C521 H526 0.930 . S
C522 N519 1.390 1_455 S
C522 C523 1.346 1_455 S
C522 H527 0.930 . S
C523 N520 1.336 . S
C523 C522 1.346 1_655 S
C523 H530 0.929 . S
C524 O514 1.282 . S
C524 O525 1.216 . S
O525 C524 1.216 . S
H526 C521 0.930 . S
H527 C522 0.930 . S
O528 Cu508 1.959 1_655 S
O528 C515 1.251 . S
H529 C512 0.930 . S
H530 C523 0.929 . S
Cu531 N532 2.038 . S
Cu531 O537 2.019 . S
Cu531 N542 1.948 1_545 S
Cu531 O551 1.915 1_545 S
N532 Cu531 2.038 . S
N532 C534 1.263 . S
N532 C536 1.389 . S
N533 C534 1.358 . S
N533 C535 1.400 . S
C534 N532 1.263 . S
C534 N533 1.358 . S
C534 H540 0.930 . S
C535 N533 1.400 . S
C535 C536 1.351 . S
C535 H552 0.930 . S
C536 N532 1.389 . S
C536 C535 1.351 . S
C536 H541 0.930 . S
O537 Cu531 2.019 . S
O537 C547 1.282 . S
C538 O539 1.261 . S
C538 O551 1.251 . S
O539 C538 1.261 . S
H540 C534 0.930 . S
H541 C536 0.930 . S
N542 Cu531 1.948 1_565 S
N542 C544 1.335 . S
N542 C545 1.390 . S
N543 C544 1.345 . S
N543 C546 1.336 . S
C544 N542 1.335 . S
C544 N543 1.345 . S
C544 H549 0.930 . S
C545 N542 1.390 . S
C545 C546 1.346 . S
C545 H550 0.930 . S
C546 N543 1.336 . S
C546 C545 1.346 . S
C546 H553 0.929 . S
C547 O537 1.282 . S
C547 O548 1.216 . S
O548 C547 1.216 . S
H549 C544 0.930 . S
H550 C545 0.930 . S
O551 Cu531 1.915 1_565 S
O551 C538 1.251 . S
H552 C535 0.930 . S
H553 C546 0.929 . S
Cu554 N555 1.999 1_455 S
Cu554 O560 1.974 1_455 S
Cu554 N565 1.985 . S
Cu554 O574 1.959 . S
N555 Cu554 1.999 1_655 S
N555 C557 1.263 . S
N555 C559 1.389 . S
N556 C557 1.358 . S
N556 C558 1.400 . S
C557 N555 1.263 . S
C557 N556 1.358 . S
C557 H563 0.930 . S
C558 N556 1.400 . S
C558 C559 1.351 . S
C558 H575 0.930 . S
C559 N555 1.389 . S
C559 C558 1.351 . S
C559 H564 0.930 1_655 S
O560 Cu554 1.974 1_655 S
O560 C570 1.282 . S
C561 O562 1.261 . S
C561 O574 1.251 . S
O562 C561 1.261 . S
H563 C557 0.930 . S
H564 C559 0.930 1_455 S
N565 Cu554 1.985 . S
N565 C567 1.335 . S
N565 C568 1.390 . S
N566 C567 1.345 . S
N566 C569 1.336 . S
C567 N565 1.335 . S
C567 N566 1.345 . S
C567 H572 0.930 . S
C568 N565 1.390 . S
C568 C569 1.346 . S
C568 H573 0.930 . S
C569 N566 1.336 . S
C569 C568 1.346 . S
C569 H576 0.929 . S
C570 O560 1.282 . S
C570 O571 1.216 . S
O571 C570 1.216 . S
H572 C567 0.930 . S
H573 C568 0.930 . S
O574 Cu554 1.959 . S
O574 C561 1.251 . S
H575 C558 0.930 . S
H576 C569 0.929 . S
Cu577 N578 1.999 . S
Cu577 O583 1.974 . S
Cu577 N588 1.985 . S
Cu577 O597 1.940 1_545 S
N578 Cu577 1.999 . S
N578 C580 1.263 . S
N578 C582 1.389 . S
N579 C580 1.358 . S
N579 C581 1.400 . S
C580 N578 1.263 . S
C580 N579 1.358 . S
C580 H586 0.930 . S
C581 N579 1.400 . S
C581 C582 1.351 . S
C581 H598 0.930 . S
C582 N578 1.389 . S
C582 C581 1.351 . S
C582 H587 0.930 . S
O583 Cu577 1.974 . S
O583 C593 1.282 . S
C584 O585 1.261 . S
C584 O597 1.261 . S
O585 C584 1.261 . S
H586 C580 0.930 . S
H587 C582 0.930 . S
N588 Cu577 1.985 . S
N588 C590 1.335 1_545 S
N588 C591 1.390 . S
N589 C590 1.345 . S
N589 C592 1.336 . S
C590 N588 1.335 1_565 S
C590 N589 1.345 . S
C590 H595 0.930 . S
C591 N588 1.390 . S
C591 C592 1.346 1_545 S
C591 H596 0.930 . S
C592 N589 1.336 . S
C592 C591 1.346 1_565 S
C592 H599 0.929 . S
C593 O583 1.282 . S
C593 O594 1.216 . S
O594 C593 1.216 . S
H595 C590 0.930 . S
H596 C591 0.930 . S
O597 Cu577 1.940 1_565 S
O597 C584 1.261 . S
H598 C581 0.930 . S
H599 C592 0.929 . S
Cu600 N601 1.999 . S
Cu600 O606 1.974 . S
Cu600 N611 1.985 1_455 S
Cu600 O620 1.959 1_455 S
N601 Cu600 1.999 . S
N601 C603 1.263 . S
N601 C605 1.389 . S
N602 C603 1.358 . S
N602 C604 1.400 . S
C603 N601 1.263 . S
C603 N602 1.358 . S
C603 H609 0.930 . S
C604 N602 1.400 . S
C604 C605 1.351 . S
C604 H621 0.930 . S
C605 N601 1.389 . S
C605 C604 1.351 . S
C605 H610 0.930 . S
O606 Cu600 1.974 . S
O606 C616 1.282 . S
C607 O608 1.261 . S
C607 O620 1.251 . S
O608 C607 1.261 . S
H609 C603 0.930 . S
H610 C605 0.930 . S
N611 Cu600 1.985 1_655 S
N611 C613 1.335 . S
N611 C614 1.384 1_655 S
N612 C613 1.345 . S
N612 C615 1.336 . S
C613 N611 1.335 . S
C613 N612 1.345 . S
C613 H618 0.930 . S
C614 N611 1.384 1_455 S
C614 C615 1.318 1_455 S
C614 H619 0.960 . S
C615 N612 1.336 . S
C615 C614 1.318 1_655 S
C615 H622 0.929 . S
C616 O606 1.282 . S
C616 O617 1.216 . S
O617 C616 1.216 . S
H618 C613 0.930 . S
H619 C614 0.960 . S
O620 Cu600 1.959 1_655 S
O620 C607 1.251 . S
H621 C604 0.930 . S
H622 C615 0.929 . S
Cu623 N624 1.999 . S
Cu623 O629 1.974 . S
Cu623 N634 1.985 1_545 S
Cu623 O643 1.959 1_545 S
N624 Cu623 1.999 . S
N624 C626 1.263 . S
N624 C628 1.389 . S
N625 C626 1.358 . S
N625 C627 1.400 . S
C626 N624 1.263 . S
C626 N625 1.358 . S
C626 H632 0.930 . S
C627 N625 1.400 . S
C627 C628 1.351 . S
C627 H644 0.930 . S
C628 N624 1.389 . S
C628 C627 1.351 . S
C628 H633 0.930 . S
O629 Cu623 1.974 . S
O629 C639 1.282 . S
C630 O631 1.261 . S
C630 O643 1.251 . S
O631 C630 1.261 . S
H632 C626 0.930 . S
H633 C628 0.930 . S
N634 Cu623 1.985 1_565 S
N634 C636 1.335 . S
N634 C637 1.390 . S
N635 C636 1.345 . S
N635 C638 1.336 . S
C636 N634 1.335 . S
C636 N635 1.345 . S
C636 H641 0.930 . S
C637 N634 1.390 . S
C637 C638 1.346 . S
C637 H642 0.929 1_565 S
C638 N635 1.336 . S
C638 C637 1.346 . S
C638 H645 0.929 . S
C639 O629 1.282 . S
C639 O640 1.216 . S
O640 C639 1.216 . S
H641 C636 0.930 . S
H642 C637 0.929 1_545 S
O643 Cu623 1.959 1_565 S
O643 C630 1.251 . S
H644 C627 0.930 . S
H645 C638 0.929 . S
Cu646 N647 1.999 . S
Cu646 O652 1.974 . S
Cu646 N657 1.985 . S
Cu646 O666 1.959 . S
N647 Cu646 1.999 . S
N647 C649 1.263 . S
N647 C651 1.389 . S
N648 C649 1.358 1_655 S
N648 C650 1.400 1_655 S
C649 N647 1.263 . S
C649 N648 1.358 1_455 S
C649 H655 0.930 . S
C650 N648 1.400 1_455 S
C650 C651 1.351 . S
C650 H667 0.930 . S
C651 N647 1.389 . S
C651 C650 1.351 . S
C651 H656 0.930 . S
O652 Cu646 1.974 . S
O652 C662 1.282 . S
C653 O654 1.261 . S
C653 O666 1.251 . S
O654 C653 1.261 . S
H655 C649 0.930 . S
H656 C651 0.930 . S
N657 Cu646 1.985 . S
N657 C659 1.335 . S
N657 C660 1.390 . S
N658 C659 1.345 . S
N658 C661 1.336 . S
C659 N657 1.335 . S
C659 N658 1.345 . S
C659 H664 0.930 . S
C660 N657 1.390 . S
C660 C661 1.346 . S
C660 H665 0.930 . S
C661 N658 1.336 . S
C661 C660 1.346 . S
C661 H668 0.929 . S
C662 O652 1.282 . S
C662 O663 1.216 . S
O663 C662 1.216 . S
H664 C659 0.930 . S
H665 C660 0.930 . S
O666 Cu646 1.959 . S
O666 C653 1.251 . S
H667 C650 0.930 . S
H668 C661 0.929 . S
Cu669 N670 1.999 . S
Cu669 O675 1.974 . S
Cu669 N680 1.985 . S
Cu669 O689 1.959 . S
N670 Cu669 1.999 . S
N670 C672 1.263 . S
N670 C674 1.389 . S
N671 C672 1.358 . S
N671 C673 1.400 . S
C672 N670 1.263 . S
C672 N671 1.358 . S
C672 H678 0.930 . S
C673 N671 1.400 . S
C673 C674 1.351 . S
C673 H690 0.930 . S
C674 N670 1.389 . S
C674 C673 1.351 . S
C674 H679 0.930 . S
O675 Cu669 1.974 . S
O675 C685 1.282 . S
C676 O677 1.261 . S
C676 O689 1.251 . S
O677 C676 1.261 . S
H678 C672 0.930 . S
H679 C674 0.930 . S
N680 Cu669 1.985 . S
N680 C682 1.383 . S
N680 C683 1.390 . S
N681 C682 1.325 1_565 S
N681 C684 1.336 1_565 S
C682 N680 1.383 . S
C682 N681 1.325 1_545 S
C682 H687 0.906 1_545 S
C683 N680 1.390 . S
C683 C684 1.346 . S
C683 H688 0.930 . S
C684 N681 1.336 1_545 S
C684 C683 1.346 . S
C684 H691 0.929 . S
C685 O675 1.282 . S
C685 O686 1.216 . S
O686 C685 1.216 . S
H687 C682 0.906 1_565 S
H688 C683 0.930 . S
O689 Cu669 1.959 . S
O689 C676 1.251 . S
H690 C673 0.930 . S
H691 C684 0.929 . S
Cu692 N693 1.999 . S
Cu692 O698 1.974 . S
Cu692 N703 1.985 . S
Cu692 O712 1.959 . S
N693 Cu692 1.999 . S
N693 C695 1.263 . S
N693 C697 1.389 . S
N694 C695 1.358 . S
N694 C696 1.400 . S
C695 N693 1.263 . S
C695 N694 1.358 . S
C695 H701 0.930 . S
C696 N694 1.400 . S
C696 C697 1.351 . S
C696 H713 0.930 . S
C697 N693 1.389 . S
C697 C696 1.351 . S
C697 H702 0.930 . S
O698 Cu692 1.974 . S
O698 C708 1.282 . S
C699 O700 1.261 . S
C699 O712 1.251 . S
O700 C699 1.261 . S
H701 C695 0.930 . S
H702 C697 0.930 . S
N703 Cu692 1.985 . S
N703 C705 1.335 . S
N703 C706 1.390 . S
N704 C705 1.345 . S
N704 C707 1.336 . S
C705 N703 1.335 . S
C705 N704 1.345 . S
C705 H710 0.930 . S
C706 N703 1.390 . S
C706 C707 1.346 . S
C706 H711 0.930 . S
C707 N704 1.336 . S
C707 C706 1.346 . S
C707 H714 0.929 . S
C708 O698 1.282 . S
C708 O709 1.216 . S
O709 C708 1.216 . S
H710 C705 0.930 . S
H711 C706 0.930 . S
O712 Cu692 1.959 . S
O712 C699 1.251 . S
H713 C696 0.930 . S
H714 C707 0.929 . S
Cu715 N716 1.999 . S
Cu715 O721 1.974 . S
Cu715 N726 1.985 . S
Cu715 O735 1.959 . S
N716 Cu715 1.999 . S
N716 C718 1.263 . S
N716 C720 1.389 . S
N717 C718 1.358 . S
N717 C719 1.400 . S
C718 N716 1.263 . S
C718 N717 1.358 . S
C718 H724 0.930 . S
C719 N717 1.400 . S
C719 C720 1.351 . S
C719 H736 0.930 . S
C720 N716 1.389 . S
C720 C719 1.351 . S
C720 H725 0.930 . S
O721 Cu715 1.974 . S
O721 C731 1.282 . S
C722 O723 1.261 . S
C722 O735 1.251 . S
O723 C722 1.261 . S
H724 C718 0.930 . S
H725 C720 0.930 . S
N726 Cu715 1.985 . S
N726 C728 1.335 . S
N726 C729 1.390 . S
N727 C728 1.345 . S
N727 C730 1.336 . S
C728 N726 1.335 . S
C728 N727 1.345 . S
C728 H733 0.930 . S
C729 N726 1.390 . S
C729 C730 1.346 . S
C729 H734 0.930 . S
C730 N727 1.336 . S
C730 C729 1.346 . S
C730 H737 0.929 . S
C731 O721 1.282 . S
C731 O732 1.216 . S
O732 C731 1.216 . S
H733 C728 0.930 . S
H734 C729 0.930 . S
O735 Cu715 1.959 . S
O735 C722 1.251 . S
H736 C719 0.930 . S
H737 C730 0.929 . S
Cu738 N739 1.999 . S
Cu738 O744 1.974 . S
Cu738 N749 1.985 . S
Cu738 O758 1.959 . S
N739 Cu738 1.999 . S
N739 C741 1.263 . S
N739 C743 1.389 . S
N740 C741 1.358 . S
N740 C742 1.400 . S
C741 N739 1.263 . S
C741 N740 1.358 . S
C741 H747 0.930 . S
C742 N740 1.400 . S
C742 C743 1.351 . S
C742 H759 0.930 . S
C743 N739 1.389 . S
C743 C742 1.351 . S
C743 H748 0.930 . S
O744 Cu738 1.974 . S
O744 C754 1.282 . S
C745 O746 1.261 . S
C745 O758 1.251 . S
O746 C745 1.261 . S
H747 C741 0.930 . S
H748 C743 0.930 . S
N749 Cu738 1.985 . S
N749 C751 1.335 . S
N749 C752 1.390 . S
N750 C751 1.345 . S
N750 C753 1.336 . S
C751 N749 1.335 . S
C751 N750 1.345 . S
C751 H756 0.930 . S
C752 N749 1.390 . S
C752 C753 1.346 . S
C752 H757 0.930 . S
C753 N750 1.336 . S
C753 C752 1.346 . S
C753 H760 0.929 . S
C754 O744 1.282 . S
C754 O755 1.216 . S
O755 C754 1.216 . S
H756 C751 0.930 . S
H757 C752 0.930 . S
O758 Cu738 1.959 . S
O758 C745 1.251 . S
H759 C742 0.930 . S
H760 C753 0.929 . S
Cu761 N762 1.999 . S
Cu761 O767 1.974 . S
Cu761 N772 1.985 . S
Cu761 O781 1.959 . S
N762 Cu761 1.999 . S
N762 C764 1.263 . S
N762 C766 1.389 . S
N763 C764 1.358 . S
N763 C765 1.400 . S
C764 N762 1.263 . S
C764 N763 1.358 . S
C764 H770 0.930 . S
C765 N763 1.400 . S
C765 C766 1.351 . S
C765 H782 0.930 . S
C766 N762 1.389 . S
C766 C765 1.351 . S
C766 H771 0.930 . S
O767 Cu761 1.974 . S
O767 C777 1.282 . S
C768 O769 1.261 . S
C768 O781 1.251 . S
O769 C768 1.261 . S
H770 C764 0.930 . S
H771 C766 0.930 . S
N772 Cu761 1.985 . S
N772 C774 1.335 . S
N772 C775 1.390 . S
N773 C774 1.345 . S
N773 C776 1.336 . S
C774 N772 1.335 . S
C774 N773 1.345 . S
C774 H779 0.930 . S
C775 N772 1.390 . S
C775 C776 1.346 . S
C775 H780 0.930 . S
C776 N773 1.336 . S
C776 C775 1.346 . S
C776 H783 0.929 . S
C777 O767 1.282 . S
C777 O778 1.216 . S
O778 C777 1.216 . S
H779 C774 0.930 . S
H780 C775 0.930 . S
O781 Cu761 1.959 . S
O781 C768 1.251 . S
H782 C765 0.930 . S
H783 C776 0.929 . S
Cu784 N785 1.999 . S
Cu784 O790 1.974 . S
Cu784 N795 1.985 . S
Cu784 O804 1.959 . S
N785 Cu784 1.999 . S
N785 C787 1.263 . S
N785 C789 1.389 . S
N786 C787 1.358 . S
N786 C788 1.400 . S
C787 N785 1.263 . S
C787 N786 1.358 . S
C787 H793 0.930 . S
C788 N786 1.400 . S
C788 C789 1.351 . S
C788 H805 0.930 . S
C789 N785 1.389 . S
C789 C788 1.351 . S
C789 H794 0.930 . S
O790 Cu784 1.974 . S
O790 C800 1.282 . S
C791 O792 1.261 . S
C791 O804 1.251 . S
O792 C791 1.261 . S
H793 C787 0.930 . S
H794 C789 0.930 . S
N795 Cu784 1.985 . S
N795 C797 1.335 . S
N795 C798 1.390 . S
N796 C797 1.345 . S
N796 C799 1.336 . S
C797 N795 1.335 . S
C797 N796 1.345 . S
C797 H802 0.930 . S
C798 N795 1.390 . S
C798 C799 1.346 . S
C798 H803 0.930 . S
C799 N796 1.336 . S
C799 C798 1.346 . S
C799 H806 0.929 . S
C800 O790 1.282 . S
C800 O801 1.216 . S
O801 C800 1.216 . S
H802 C797 0.930 . S
H803 C798 0.930 . S
O804 Cu784 1.959 . S
O804 C791 1.251 . S
H805 C788 0.930 . S
H806 C799 0.929 . S
Cu807 N808 1.999 . S
Cu807 O813 1.974 . S
Cu807 N818 1.985 . S
Cu807 O827 1.959 . S
N808 Cu807 1.999 . S
N808 C810 1.263 . S
N808 C812 1.389 . S
N809 C810 1.358 . S
N809 C811 1.400 . S
C810 N808 1.263 . S
C810 N809 1.358 . S
C810 H816 0.930 . S
C811 N809 1.400 . S
C811 C812 1.351 . S
C811 H828 0.930 . S
C812 N808 1.389 . S
C812 C811 1.351 . S
C812 H817 0.930 . S
O813 Cu807 1.974 . S
O813 C823 1.282 . S
C814 O815 1.261 . S
C814 O827 1.251 . S
O815 C814 1.261 . S
H816 C810 0.930 . S
H817 C812 0.930 . S
N818 Cu807 1.985 . S
N818 C820 1.335 . S
N818 C821 1.390 . S
N819 C820 1.345 . S
N819 C822 1.336 . S
C820 N818 1.335 . S
C820 N819 1.345 . S
C820 H825 0.930 . S
C821 N818 1.390 . S
C821 C822 1.346 . S
C821 H826 0.930 . S
C822 N819 1.336 . S
C822 C821 1.346 . S
C822 H829 0.929 . S
C823 O813 1.282 . S
C823 O824 1.216 . S
O824 C823 1.216 . S
H825 C820 0.930 . S
H826 C821 0.930 . S
O827 Cu807 1.959 . S
O827 C814 1.251 . S
H828 C811 0.930 . S
H829 C822 0.929 . S
Cu830 N831 1.999 . S
Cu830 O836 1.974 . S
Cu830 N841 1.985 . S
Cu830 O850 1.959 . S
N831 Cu830 1.999 . S
N831 C833 1.263 . S
N831 C835 1.389 . S
N832 C833 1.358 . S
N832 C834 1.400 . S
C833 N831 1.263 . S
C833 N832 1.358 . S
C833 H839 0.930 . S
C834 N832 1.400 . S
C834 C835 1.351 . S
C834 H851 0.930 . S
C835 N831 1.389 . S
C835 C834 1.351 . S
C835 H840 0.930 . S
O836 Cu830 1.974 . S
O836 C846 1.282 . S
C837 O838 1.261 . S
C837 O850 1.251 . S
O838 C837 1.261 . S
H839 C833 0.930 . S
H840 C835 0.930 . S
N841 Cu830 1.985 . S
N841 C843 1.335 . S
N841 C844 1.390 . S
N842 C843 1.345 . S
N842 C845 1.336 . S
C843 N841 1.335 . S
C843 N842 1.345 . S
C843 H848 0.930 . S
C844 N841 1.390 . S
C844 C845 1.346 . S
C844 H849 0.930 . S
C845 N842 1.336 . S
C845 C844 1.346 . S
C845 H852 0.929 . S
C846 O836 1.282 . S
C846 O847 1.216 . S
O847 C846 1.216 . S
H848 C843 0.930 . S
H849 C844 0.930 . S
O850 Cu830 1.959 . S
O850 C837 1.251 . S
H851 C834 0.930 . S
H852 C845 0.929 . S
Cu853 N854 1.999 . S
Cu853 O859 1.974 . S
Cu853 N864 1.985 . S
Cu853 O873 1.959 . S
N854 Cu853 1.999 . S
N854 C856 1.263 . S
N854 C858 1.389 . S
N855 C856 1.358 . S
N855 C857 1.400 . S
C856 N854 1.263 . S
C856 N855 1.358 . S
C856 H862 0.930 . S
C857 N855 1.400 . S
C857 C858 1.351 . S
C857 H874 0.930 . S
C858 N854 1.389 . S
C858 C857 1.351 . S
C858 H863 0.930 . S
O859 Cu853 1.974 . S
O859 C869 1.282 . S
C860 O861 1.261 . S
C860 O873 1.251 . S
O861 C860 1.261 . S
H862 C856 0.930 . S
H863 C858 0.930 . S
N864 Cu853 1.985 . S
N864 C866 1.335 . S
N864 C867 1.390 . S
N865 C866 1.345 . S
N865 C868 1.336 . S
C866 N864 1.335 . S
C866 N865 1.345 . S
C866 H871 0.930 . S
C867 N864 1.390 . S
C867 C868 1.346 . S
C867 H872 0.930 . S
C868 N865 1.336 . S
C868 C867 1.346 . S
C868 H875 0.929 . S
C869 O859 1.282 . S
C869 O870 1.216 . S
O870 C869 1.216 . S
H871 C866 0.930 . S
H872 C867 0.930 . S
O873 Cu853 1.959 . S
O873 C860 1.251 . S
H874 C857 0.930 . S
H875 C868 0.929 . S
Cu876 N877 1.999 . S
Cu876 O882 1.974 . S
Cu876 N887 1.985 . S
Cu876 O896 1.959 . S
N877 Cu876 1.999 . S
N877 C879 1.263 . S
N877 C881 1.389 . S
N878 C879 1.358 . S
N878 C880 1.400 . S
C879 N877 1.263 . S
C879 N878 1.358 . S
C879 H885 0.930 . S
C880 N878 1.400 . S
C880 C881 1.351 . S
C880 H897 0.930 . S
C881 N877 1.389 . S
C881 C880 1.351 . S
C881 H886 0.930 . S
O882 Cu876 1.974 . S
O882 C892 1.282 . S
C883 O884 1.261 . S
C883 O896 1.251 . S
O884 C883 1.261 . S
H885 C879 0.930 . S
H886 C881 0.930 . S
N887 Cu876 1.985 . S
N887 C889 1.335 . S
N887 C890 1.390 . S
N888 C889 1.345 . S
N888 C891 1.336 . S
C889 N887 1.335 . S
C889 N888 1.345 . S
C889 H894 0.930 . S
C890 N887 1.390 . S
C890 C891 1.346 . S
C890 H895 0.930 . S
C891 N888 1.336 . S
C891 C890 1.346 . S
C891 H898 0.929 . S
C892 O882 1.282 . S
C892 O893 1.216 . S
O893 C892 1.216 . S
H894 C889 0.930 . S
H895 C890 0.930 . S
O896 Cu876 1.959 . S
O896 C883 1.251 . S
H897 C880 0.930 . S
H898 C891 0.929 . S
Cu899 N900 1.999 . S
Cu899 O905 1.974 . S
Cu899 N910 1.985 . S
Cu899 O919 1.959 . S
N900 Cu899 1.999 . S
N900 C902 1.263 . S
N900 C904 1.389 . S
N901 C902 1.358 . S
N901 C903 1.400 . S
C902 N900 1.263 . S
C902 N901 1.358 . S
C902 H908 0.930 . S
C903 N901 1.400 . S
C903 C904 1.351 . S
C903 H920 0.930 . S
C904 N900 1.389 . S
C904 C903 1.351 . S
C904 H909 0.930 . S
O905 Cu899 1.974 . S
O905 C915 1.282 . S
C906 O907 1.261 . S
C906 O919 1.251 . S
O907 C906 1.261 . S
H908 C902 0.930 . S
H909 C904 0.930 . S
N910 Cu899 1.985 . S
N910 C912 1.335 . S
N910 C913 1.390 . S
N911 C912 1.345 . S
N911 C914 1.336 . S
C912 N910 1.335 . S
C912 N911 1.345 . S
C912 H917 0.930 . S
C913 N910 1.390 . S
C913 C914 1.346 . S
C913 H918 0.930 . S
C914 N911 1.336 . S
C914 C913 1.346 . S
C914 H921 0.929 . S
C915 O905 1.282 . S
C915 O916 1.216 . S
O916 C915 1.216 . S
H917 C912 0.930 . S
H918 C913 0.930 . S
O919 Cu899 1.959 . S
O919 C906 1.251 . S
H920 C903 0.930 . S
H921 C914 0.929 . S
Cu922 N923 1.999 . S
Cu922 O928 1.974 . S
Cu922 N933 1.985 . S
Cu922 O942 1.959 . S
N923 Cu922 1.999 . S
N923 C925 1.263 . S
N923 C927 1.389 . S
N924 C925 1.358 . S
N924 C926 1.400 . S
C925 N923 1.263 . S
C925 N924 1.358 . S
C925 H931 0.930 . S
C926 N924 1.400 . S
C926 C927 1.351 . S
C926 H943 0.930 . S
C927 N923 1.389 . S
C927 C926 1.351 . S
C927 H932 0.930 . S
O928 Cu922 1.974 . S
O928 C938 1.282 . S
C929 O930 1.261 . S
C929 O942 1.251 . S
O930 C929 1.261 . S
H931 C925 0.930 . S
H932 C927 0.930 . S
N933 Cu922 1.985 . S
N933 C935 1.335 . S
N933 C936 1.390 . S
N934 C935 1.345 . S
N934 C937 1.336 . S
C935 N933 1.335 . S
C935 N934 1.345 . S
C935 H940 0.930 . S
C936 N933 1.390 . S
C936 C937 1.346 . S
C936 H941 0.930 . S
C937 N934 1.336 . S
C937 C936 1.346 . S
C937 H944 0.929 . S
C938 O928 1.282 . S
C938 O939 1.216 . S
O939 C938 1.216 . S
H940 C935 0.930 . S
H941 C936 0.930 . S
O942 Cu922 1.959 . S
O942 C929 1.251 . S
H943 C926 0.930 . S
H944 C937 0.929 . S
Cu945 N946 1.999 . S
Cu945 O951 1.974 . S
Cu945 N956 1.985 . S
Cu945 O965 1.959 . S
N946 Cu945 1.999 . S
N946 C948 1.263 . S
N946 C950 1.389 . S
N947 C948 1.358 . S
N947 C949 1.400 . S
C948 N946 1.263 . S
C948 N947 1.358 . S
C948 H954 0.930 . S
C949 N947 1.400 . S
C949 C950 1.351 . S
C949 H966 0.930 . S
C950 N946 1.389 . S
C950 C949 1.351 . S
C950 H955 0.930 . S
O951 Cu945 1.974 . S
O951 C961 1.282 . S
C952 O953 1.261 . S
C952 O965 1.251 . S
O953 C952 1.261 . S
H954 C948 0.930 . S
H955 C950 0.930 . S
N956 Cu945 1.985 . S
N956 C958 1.335 . S
N956 C959 1.390 . S
N957 C958 1.345 . S
N957 C960 1.336 . S
C958 N956 1.335 . S
C958 N957 1.345 . S
C958 H963 0.930 . S
C959 N956 1.390 . S
C959 C960 1.346 . S
C959 H964 0.930 . S
C960 N957 1.336 . S
C960 C959 1.346 . S
C960 H967 0.929 . S
C961 O951 1.282 . S
C961 O962 1.216 . S
O962 C961 1.216 . S
H963 C958 0.930 . S
H964 C959 0.930 . S
O965 Cu945 1.959 . S
O965 C952 1.251 . S
H966 C949 0.930 . S
H967 C960 0.929 . S
H968 C980 0.930 . S
H969 C982 0.930 . S
H970 C983 0.930 . S
H971 C987 0.959 . S
H972 C987 0.959 . S
H973 C987 0.961 . S
H974 C988 0.960 . S
H975 C988 0.961 . S
H976 C988 0.959 . S
H977 C991 0.929 . S
H978 C992 0.931 . S
H979 C994 0.930 . S
C980 H968 0.930 . S
C980 C981 1.399 . S
C980 C985 1.399 . S
C981 C980 1.399 . S
C981 C982 1.376 . S
C982 H969 0.930 . S
C982 C981 1.376 . S
C982 C983 1.388 . S
C983 H970 0.930 . S
C983 C982 1.388 . S
C983 C984 1.390 . S
C984 C983 1.390 . S
C984 C985 1.394 . S
C984 C990 1.465 . S
C985 C980 1.399 . S
C985 C984 1.394 . S
C985 C986 1.516 . S
C986 C985 1.516 . S
C986 C987 1.502 . S
C986 C988 1.561 . S
C986 C989 1.526 . S
C987 H971 0.959 . S
C987 H972 0.959 . S
C987 H973 0.961 . S
C987 C986 1.502 . S
C988 H974 0.960 . S
C988 H975 0.961 . S
C988 H976 0.959 . S
C988 C986 1.561 . S
C989 C986 1.526 . S
C989 C990 1.396 . S
C989 C994 1.390 . S
C990 C984 1.465 . S
C990 C989 1.396 . S
C990 C991 1.399 . S
C991 H977 0.929 . S
C991 C990 1.399 . S
C991 C992 1.385 . S
C992 H978 0.931 . S
C992 C991 1.385 . S
C992 C993 1.389 . S
C993 C992 1.389 . S
C993 C994 1.387 . S
C994 H979 0.930 . S
C994 C989 1.390 . S
C994 C993 1.387 . S
H995 C1007 0.930 . S
H996 C1009 0.930 . S
H997 C1010 0.930 . S
H998 C1014 0.959 . S
H999 C1014 0.959 . S
H1000 C1014 0.961 . S
H1001 C1015 0.960 . S
H1002 C1015 0.961 . S
H1003 C1015 0.959 . S
H1004 C1018 0.929 . S
H1005 C1019 0.931 . S
H1006 C1021 0.930 . S
C1007 H995 0.930 . S
C1007 C1008 1.399 . S
C1007 C1012 1.399 . S
C1008 C1007 1.399 . S
C1008 C1009 1.376 . S
C1009 H996 0.930 . S
C1009 C1008 1.376 . S
C1009 C1010 1.388 . S
C1010 H997 0.930 . S
C1010 C1009 1.388 . S
C1010 C1011 1.390 . S
C1011 C1010 1.390 . S
C1011 C1012 1.394 . S
C1011 C1017 1.465 . S
C1012 C1007 1.399 . S
C1012 C1011 1.394 . S
C1012 C1013 1.516 . S
C1013 C1012 1.516 . S
C1013 C1014 1.502 . S
C1013 C1015 1.561 . S
C1013 C1016 1.526 . S
C1014 H998 0.959 . S
C1014 H999 0.959 . S
C1014 H1000 0.961 . S
C1014 C1013 1.502 . S
C1015 H1001 0.960 . S
C1015 H1002 0.961 . S
C1015 H1003 0.959 . S
C1015 C1013 1.561 . S
C1016 C1013 1.526 . S
C1016 C1017 1.396 . S
C1016 C1021 1.390 . S
C1017 C1011 1.465 . S
C1017 C1016 1.396 . S
C1017 C1018 1.399 . S
C1018 H1004 0.929 . S
C1018 C1017 1.399 . S
C1018 C1019 1.385 . S
C1019 H1005 0.931 . S
C1019 C1018 1.385 . S
C1019 C1020 1.389 . S
C1020 C1019 1.389 . S
C1020 C1021 1.387 . S
C1021 H1006 0.930 . S
C1021 C1016 1.390 . S
C1021 C1020 1.387 . S
H1022 C1034 0.930 . S
H1023 C1036 0.930 . S
H1024 C1037 0.930 . S
H1025 C1041 0.959 . S
H1026 C1041 0.959 . S
H1027 C1041 0.961 . S
H1028 C1042 0.960 . S
H1029 C1042 0.961 . S
H1030 C1042 0.959 . S
H1031 C1045 0.929 . S
H1032 C1046 0.931 . S
H1033 C1048 0.930 . S
C1034 H1022 0.930 . S
C1034 C1035 1.399 . S
C1034 C1039 1.399 . S
C1035 C1034 1.399 . S
C1035 C1036 1.376 . S
C1036 H1023 0.930 . S
C1036 C1035 1.376 . S
C1036 C1037 1.388 . S
C1037 H1024 0.930 . S
C1037 C1036 1.388 . S
C1037 C1038 1.390 . S
C1038 C1037 1.390 . S
C1038 C1039 1.394 . S
C1038 C1044 1.465 . S
C1039 C1034 1.399 . S
C1039 C1038 1.394 . S
C1039 C1040 1.516 . S
C1040 C1039 1.516 . S
C1040 C1041 1.502 . S
C1040 C1042 1.561 . S
C1040 C1043 1.526 . S
C1041 H1025 0.959 . S
C1041 H1026 0.959 . S
C1041 H1027 0.961 . S
C1041 C1040 1.502 . S
C1042 H1028 0.960 . S
C1042 H1029 0.961 . S
C1042 H1030 0.959 . S
C1042 C1040 1.561 . S
C1043 C1040 1.526 . S
C1043 C1044 1.396 . S
C1043 C1048 1.390 . S
C1044 C1038 1.465 . S
C1044 C1043 1.396 . S
C1044 C1045 1.399 . S
C1045 H1031 0.929 . S
C1045 C1044 1.399 . S
C1045 C1046 1.385 . S
C1046 H1032 0.931 . S
C1046 C1045 1.385 . S
C1046 C1047 1.389 . S
C1047 C1046 1.389 . S
C1047 C1048 1.387 . S
C1048 H1033 0.930 . S
C1048 C1043 1.390 . S
C1048 C1047 1.387 . S
H1049 C1061 0.930 . S
H1050 C1063 0.930 . S
H1051 C1064 0.930 . S
H1052 C1068 0.959 . S
H1053 C1068 0.959 . S
H1054 C1068 0.961 . S
H1055 C1069 0.960 . S
H1056 C1069 0.961 . S
H1057 C1069 0.959 . S
H1058 C1072 0.929 . S
H1059 C1073 0.931 . S
H1060 C1075 0.930 . S
C1061 H1049 0.930 . S
C1061 C1062 1.399 . S
C1061 C1066 1.399 . S
C1062 C1061 1.399 . S
C1062 C1063 1.376 . S
C1063 H1050 0.930 . S
C1063 C1062 1.376 . S
C1063 C1064 1.388 . S
C1064 H1051 0.930 . S
C1064 C1063 1.388 . S
C1064 C1065 1.390 . S
C1065 C1064 1.390 . S
C1065 C1066 1.394 . S
C1065 C1071 1.465 . S
C1066 C1061 1.399 . S
C1066 C1065 1.394 . S
C1066 C1067 1.516 . S
C1067 C1066 1.516 . S
C1067 C1068 1.502 . S
C1067 C1069 1.561 . S
C1067 C1070 1.526 . S
C1068 H1052 0.959 . S
C1068 H1053 0.959 . S
C1068 H1054 0.961 . S
C1068 C1067 1.502 . S
C1069 H1055 0.960 . S
C1069 H1056 0.961 . S
C1069 H1057 0.959 . S
C1069 C1067 1.561 . S
C1070 C1067 1.526 . S
C1070 C1071 1.396 . S
C1070 C1075 1.390 . S
C1071 C1065 1.465 . S
C1071 C1070 1.396 . S
C1071 C1072 1.399 . S
C1072 H1058 0.929 . S
C1072 C1071 1.399 . S
C1072 C1073 1.385 . S
C1073 H1059 0.931 . S
C1073 C1072 1.385 . S
C1073 C1074 1.389 . S
C1074 C1073 1.389 . S
C1074 C1075 1.387 . S
C1075 H1060 0.930 . S
C1075 C1070 1.390 . S
C1075 C1074 1.387 . S
H1076 C1088 0.930 . S
H1077 C1090 0.930 . S
H1078 C1091 0.930 . S
H1079 C1095 0.959 . S
H1080 C1095 0.959 . S
H1081 C1095 0.961 . S
H1082 C1096 0.960 . S
H1083 C1096 0.961 . S
H1084 C1096 0.959 . S
H1085 C1099 0.929 . S
H1086 C1100 0.931 . S
H1087 C1102 0.930 . S
C1088 H1076 0.930 . S
C1088 C1089 1.399 . S
C1088 C1093 1.399 . S
C1089 C1088 1.399 . S
C1089 C1090 1.376 . S
C1090 H1077 0.930 . S
C1090 C1089 1.376 . S
C1090 C1091 1.388 . S
C1091 H1078 0.930 . S
C1091 C1090 1.388 . S
C1091 C1092 1.390 . S
C1092 C1091 1.390 . S
C1092 C1093 1.394 . S
C1092 C1098 1.465 . S
C1093 C1088 1.399 . S
C1093 C1092 1.394 . S
C1093 C1094 1.516 . S
C1094 C1093 1.516 . S
C1094 C1095 1.502 . S
C1094 C1096 1.561 . S
C1094 C1097 1.526 . S
C1095 H1079 0.959 . S
C1095 H1080 0.959 . S
C1095 H1081 0.961 . S
C1095 C1094 1.502 . S
C1096 H1082 0.960 . S
C1096 H1083 0.961 . S
C1096 H1084 0.959 . S
C1096 C1094 1.561 . S
C1097 C1094 1.526 . S
C1097 C1098 1.396 . S
C1097 C1102 1.390 . S
C1098 C1092 1.465 . S
C1098 C1097 1.396 . S
C1098 C1099 1.399 . S
C1099 H1085 0.929 . S
C1099 C1098 1.399 . S
C1099 C1100 1.385 . S
C1100 H1086 0.931 . S
C1100 C1099 1.385 . S
C1100 C1101 1.389 . S
C1101 C1100 1.389 . S
C1101 C1102 1.387 . S
C1102 H1087 0.930 . S
C1102 C1097 1.390 . S
C1102 C1101 1.387 . S
H1103 C1115 0.930 . S
H1104 C1117 0.930 . S
H1105 C1118 0.930 . S
H1106 C1122 0.959 . S
H1107 C1122 0.959 . S
H1108 C1122 0.961 . S
H1109 C1123 0.960 . S
H1110 C1123 0.961 . S
H1111 C1123 0.959 . S
H1112 C1126 0.929 . S
H1113 C1127 0.931 . S
H1114 C1129 0.930 . S
C1115 H1103 0.930 . S
C1115 C1116 1.399 . S
C1115 C1120 1.399 . S
C1116 C1115 1.399 . S
C1116 C1117 1.376 . S
C1117 H1104 0.930 . S
C1117 C1116 1.376 . S
C1117 C1118 1.388 . S
C1118 H1105 0.930 . S
C1118 C1117 1.388 . S
C1118 C1119 1.390 . S
C1119 C1118 1.390 . S
C1119 C1120 1.394 . S
C1119 C1125 1.465 . S
C1120 C1115 1.399 . S
C1120 C1119 1.394 . S
C1120 C1121 1.516 . S
C1121 C1120 1.516 . S
C1121 C1122 1.502 . S
C1121 C1123 1.561 . S
C1121 C1124 1.526 . S
C1122 H1106 0.959 . S
C1122 H1107 0.959 . S
C1122 H1108 0.961 . S
C1122 C1121 1.502 . S
C1123 H1109 0.960 . S
C1123 H1110 0.961 . S
C1123 H1111 0.959 . S
C1123 C1121 1.561 . S
C1124 C1121 1.526 . S
C1124 C1125 1.396 . S
C1124 C1129 1.390 . S
C1125 C1119 1.465 . S
C1125 C1124 1.396 . S
C1125 C1126 1.399 . S
C1126 H1112 0.929 . S
C1126 C1125 1.399 . S
C1126 C1127 1.385 . S
C1127 H1113 0.931 . S
C1127 C1126 1.385 . S
C1127 C1128 1.389 . S
C1128 C1127 1.389 . S
C1128 C1129 1.387 . S
C1129 H1114 0.930 . S
C1129 C1124 1.390 . S
C1129 C1128 1.387 . S
H1130 C1142 0.930 . S
H1131 C1144 0.930 . S
H1132 C1145 0.930 . S
H1133 C1149 0.959 . S
H1134 C1149 0.959 . S
H1135 C1149 0.961 . S
H1136 C1150 0.960 . S
H1137 C1150 0.961 . S
H1138 C1150 0.959 . S
H1139 C1153 0.929 . S
H1140 C1154 0.931 . S
H1141 C1156 0.930 . S
C1142 H1130 0.930 . S
C1142 C1143 1.399 . S
C1142 C1147 1.399 . S
C1143 C1142 1.399 . S
C1143 C1144 1.376 . S
C1144 H1131 0.930 . S
C1144 C1143 1.376 . S
C1144 C1145 1.388 . S
C1145 H1132 0.930 . S
C1145 C1144 1.388 . S
C1145 C1146 1.390 . S
C1146 C1145 1.390 . S
C1146 C1147 1.394 . S
C1146 C1152 1.465 . S
C1147 C1142 1.399 . S
C1147 C1146 1.394 . S
C1147 C1148 1.516 . S
C1148 C1147 1.516 . S
C1148 C1149 1.502 . S
C1148 C1150 1.561 . S
C1148 C1151 1.526 . S
C1149 H1133 0.959 . S
C1149 H1134 0.959 . S
C1149 H1135 0.961 . S
C1149 C1148 1.502 . S
C1150 H1136 0.960 . S
C1150 H1137 0.961 . S
C1150 H1138 0.959 . S
C1150 C1148 1.561 . S
C1151 C1148 1.526 . S
C1151 C1152 1.396 . S
C1151 C1156 1.390 . S
C1152 C1146 1.465 . S
C1152 C1151 1.396 . S
C1152 C1153 1.399 . S
C1153 H1139 0.929 . S
C1153 C1152 1.399 . S
C1153 C1154 1.385 . S
C1154 H1140 0.931 . S
C1154 C1153 1.385 . S
C1154 C1155 1.389 . S
C1155 C1154 1.389 . S
C1155 C1156 1.387 . S
C1156 H1141 0.930 . S
C1156 C1151 1.390 . S
C1156 C1155 1.387 . S
H1157 C1169 0.930 . S
H1158 C1171 0.930 . S
H1159 C1172 0.930 . S
H1160 C1176 0.959 . S
H1161 C1176 0.959 . S
H1162 C1176 0.961 . S
H1163 C1177 0.960 . S
H1164 C1177 0.961 . S
H1165 C1177 0.959 . S
H1166 C1180 0.929 . S
H1167 C1181 0.931 . S
H1168 C1183 0.930 . S
C1169 H1157 0.930 . S
C1169 C1170 1.399 . S
C1169 C1174 1.399 . S
C1170 C1169 1.399 . S
C1170 C1171 1.376 . S
C1171 H1158 0.930 . S
C1171 C1170 1.376 . S
C1171 C1172 1.388 . S
C1172 H1159 0.930 . S
C1172 C1171 1.388 . S
C1172 C1173 1.390 . S
C1173 C1172 1.390 . S
C1173 C1174 1.394 . S
C1173 C1179 1.465 . S
C1174 C1169 1.399 . S
C1174 C1173 1.394 . S
C1174 C1175 1.516 . S
C1175 C1174 1.516 . S
C1175 C1176 1.502 . S
C1175 C1177 1.561 . S
C1175 C1178 1.526 . S
C1176 H1160 0.959 . S
C1176 H1161 0.959 . S
C1176 H1162 0.961 . S
C1176 C1175 1.502 . S
C1177 H1163 0.960 . S
C1177 H1164 0.961 . S
C1177 H1165 0.959 . S
C1177 C1175 1.561 . S
C1178 C1175 1.526 . S
C1178 C1179 1.396 . S
C1178 C1183 1.390 . S
C1179 C1173 1.465 . S
C1179 C1178 1.396 . S
C1179 C1180 1.399 . S
C1180 H1166 0.929 . S
C1180 C1179 1.399 . S
C1180 C1181 1.385 . S
C1181 H1167 0.931 . S
C1181 C1180 1.385 . S
C1181 C1182 1.389 . S
C1182 C1181 1.389 . S
C1182 C1183 1.387 . S
C1183 H1168 0.930 . S
C1183 C1178 1.390 . S
C1183 C1182 1.387 . S
H1184 C1196 0.930 . S
H1185 C1198 0.930 . S
H1186 C1199 0.930 . S
H1187 C1203 0.959 . S
H1188 C1203 0.959 . S
H1189 C1203 0.961 . S
H1190 C1204 0.960 . S
H1191 C1204 0.961 . S
H1192 C1204 0.959 . S
H1193 C1207 0.929 . S
H1194 C1208 0.931 . S
H1195 C1210 0.930 . S
C1196 H1184 0.930 . S
C1196 C1197 1.399 . S
C1196 C1201 1.399 . S
C1197 C1196 1.399 . S
C1197 C1198 1.376 . S
C1198 H1185 0.930 . S
C1198 C1197 1.376 . S
C1198 C1199 1.388 . S
C1199 H1186 0.930 . S
C1199 C1198 1.388 . S
C1199 C1200 1.390 . S
C1200 C1199 1.390 . S
C1200 C1201 1.394 . S
C1200 C1206 1.465 . S
C1201 C1196 1.399 . S
C1201 C1200 1.394 . S
C1201 C1202 1.516 . S
C1202 C1201 1.516 . S
C1202 C1203 1.502 . S
C1202 C1204 1.561 . S
C1202 C1205 1.526 . S
C1203 H1187 0.959 . S
C1203 H1188 0.959 . S
C1203 H1189 0.961 . S
C1203 C1202 1.502 . S
C1204 H1190 0.960 . S
C1204 H1191 0.961 . S
C1204 H1192 0.959 . S
C1204 C1202 1.561 . S
C1205 C1202 1.526 . S
C1205 C1206 1.396 . S
C1205 C1210 1.390 . S
C1206 C1200 1.465 . S
C1206 C1205 1.396 . S
C1206 C1207 1.399 . S
C1207 H1193 0.929 . S
C1207 C1206 1.399 . S
C1207 C1208 1.385 . S
C1208 H1194 0.931 . S
C1208 C1207 1.385 . S
C1208 C1209 1.389 . S
C1209 C1208 1.389 . S
C1209 C1210 1.387 . S
C1210 H1195 0.930 . S
C1210 C1205 1.390 . S
C1210 C1209 1.387 . S
H1211 C1223 0.930 . S
H1212 C1225 0.930 . S
H1213 C1226 0.930 . S
H1214 C1230 0.959 . S
H1215 C1230 0.959 . S
H1216 C1230 0.961 . S
H1217 C1231 0.960 . S
H1218 C1231 0.961 . S
H1219 C1231 0.959 . S
H1220 C1234 0.929 . S
H1221 C1235 0.931 . S
H1222 C1237 0.930 . S
C1223 H1211 0.930 . S
C1223 C1224 1.399 . S
C1223 C1228 1.399 . S
C1224 C1223 1.399 . S
C1224 C1225 1.376 . S
C1225 H1212 0.930 . S
C1225 C1224 1.376 . S
C1225 C1226 1.388 . S
C1226 H1213 0.930 . S
C1226 C1225 1.388 . S
C1226 C1227 1.390 . S
C1227 C1226 1.390 . S
C1227 C1228 1.394 . S
C1227 C1233 1.465 . S
C1228 C1223 1.399 . S
C1228 C1227 1.394 . S
C1228 C1229 1.516 . S
C1229 C1228 1.516 . S
C1229 C1230 1.502 . S
C1229 C1231 1.561 . S
C1229 C1232 1.526 . S
C1230 H1214 0.959 . S
C1230 H1215 0.959 . S
C1230 H1216 0.961 . S
C1230 C1229 1.502 . S
C1231 H1217 0.960 . S
C1231 H1218 0.961 . S
C1231 H1219 0.959 . S
C1231 C1229 1.561 . S
C1232 C1229 1.526 . S
C1232 C1233 1.396 . S
C1232 C1237 1.390 . S
C1233 C1227 1.465 . S
C1233 C1232 1.396 . S
C1233 C1234 1.399 . S
C1234 H1220 0.929 . S
C1234 C1233 1.399 . S
C1234 C1235 1.385 . S
C1235 H1221 0.931 . S
C1235 C1234 1.385 . S
C1235 C1236 1.389 . S
C1236 C1235 1.389 . S
C1236 C1237 1.387 . S
C1237 H1222 0.930 . S
C1237 C1232 1.390 . S
C1237 C1236 1.387 . S
H1238 C1250 0.930 . S
H1239 C1252 0.930 . S
H1240 C1253 0.930 . S
H1241 C1257 0.959 . S
H1242 C1257 0.959 . S
H1243 C1257 0.961 . S
H1244 C1258 0.960 . S
H1245 C1258 0.961 . S
H1246 C1258 0.959 . S
H1247 C1261 0.929 . S
H1248 C1262 0.931 . S
H1249 C1264 0.930 . S
C1250 H1238 0.930 . S
C1250 C1251 1.399 . S
C1250 C1255 1.399 . S
C1251 C1250 1.399 . S
C1251 C1252 1.376 . S
C1252 H1239 0.930 . S
C1252 C1251 1.376 . S
C1252 C1253 1.388 . S
C1253 H1240 0.930 . S
C1253 C1252 1.388 . S
C1253 C1254 1.390 . S
C1254 C1253 1.390 . S
C1254 C1255 1.394 . S
C1254 C1260 1.465 . S
C1255 C1250 1.399 . S
C1255 C1254 1.394 . S
C1255 C1256 1.516 . S
C1256 C1255 1.516 . S
C1256 C1257 1.502 . S
C1256 C1258 1.561 . S
C1256 C1259 1.526 . S
C1257 H1241 0.959 . S
C1257 H1242 0.959 . S
C1257 H1243 0.961 . S
C1257 C1256 1.502 . S
C1258 H1244 0.960 . S
C1258 H1245 0.961 . S
C1258 H1246 0.959 . S
C1258 C1256 1.561 . S
C1259 C1256 1.526 . S
C1259 C1260 1.396 . S
C1259 C1264 1.390 . S
C1260 C1254 1.465 . S
C1260 C1259 1.396 . S
C1260 C1261 1.399 . S
C1261 H1247 0.929 . S
C1261 C1260 1.399 . S
C1261 C1262 1.385 . S
C1262 H1248 0.931 . S
C1262 C1261 1.385 . S
C1262 C1263 1.389 . S
C1263 C1262 1.389 . S
C1263 C1264 1.387 . S
C1264 H1249 0.930 . S
C1264 C1259 1.390 . S
C1264 C1263 1.387 . S
H1265 C1277 0.930 . S
H1266 C1279 0.930 . S
H1267 C1280 0.930 . S
H1268 C1284 0.959 . S
H1269 C1284 0.959 . S
H1270 C1284 0.961 . S
H1271 C1285 0.960 . S
H1272 C1285 0.961 . S
H1273 C1285 0.959 . S
H1274 C1288 0.929 . S
H1275 C1289 0.931 . S
H1276 C1291 0.930 . S
C1277 H1265 0.930 . S
C1277 C1278 1.399 . S
C1277 C1282 1.399 . S
C1278 C1277 1.399 . S
C1278 C1279 1.376 . S
C1279 H1266 0.930 . S
C1279 C1278 1.376 . S
C1279 C1280 1.388 . S
C1280 H1267 0.930 . S
C1280 C1279 1.388 . S
C1280 C1281 1.390 . S
C1281 C1280 1.390 . S
C1281 C1282 1.394 . S
C1281 C1287 1.465 . S
C1282 C1277 1.399 . S
C1282 C1281 1.394 . S
C1282 C1283 1.516 . S
C1283 C1282 1.516 . S
C1283 C1284 1.502 . S
C1283 C1285 1.561 . S
C1283 C1286 1.526 . S
C1284 H1268 0.959 . S
C1284 H1269 0.959 . S
C1284 H1270 0.961 . S
C1284 C1283 1.502 . S
C1285 H1271 0.960 . S
C1285 H1272 0.961 . S
C1285 H1273 0.959 . S
C1285 C1283 1.561 . S
C1286 C1283 1.526 . S
C1286 C1287 1.396 . S
C1286 C1291 1.390 . S
C1287 C1281 1.465 . S
C1287 C1286 1.396 . S
C1287 C1288 1.399 . S
C1288 H1274 0.929 . S
C1288 C1287 1.399 . S
C1288 C1289 1.385 . S
C1289 H1275 0.931 . S
C1289 C1288 1.385 . S
C1289 C1290 1.389 . S
C1290 C1289 1.389 . S
C1290 C1291 1.387 . S
C1291 H1276 0.930 . S
C1291 C1286 1.390 . S
C1291 C1290 1.387 . S
H1292 C1304 0.930 . S
H1293 C1306 0.930 . S
H1294 C1307 0.930 . S
H1295 C1311 0.959 . S
H1296 C1311 0.959 . S
H1297 C1311 0.961 . S
H1298 C1312 0.960 . S
H1299 C1312 0.961 . S
H1300 C1312 0.959 . S
H1301 C1315 0.929 . S
H1302 C1316 0.931 . S
H1303 C1318 0.930 . S
C1304 H1292 0.930 . S
C1304 C1305 1.399 . S
C1304 C1309 1.399 . S
C1305 C1304 1.399 . S
C1305 C1306 1.376 . S
C1306 H1293 0.930 . S
C1306 C1305 1.376 . S
C1306 C1307 1.388 . S
C1307 H1294 0.930 . S
C1307 C1306 1.388 . S
C1307 C1308 1.390 . S
C1308 C1307 1.390 . S
C1308 C1309 1.394 . S
C1308 C1314 1.465 . S
C1309 C1304 1.399 . S
C1309 C1308 1.394 . S
C1309 C1310 1.516 . S
C1310 C1309 1.516 . S
C1310 C1311 1.502 . S
C1310 C1312 1.561 . S
C1310 C1313 1.526 . S
C1311 H1295 0.959 . S
C1311 H1296 0.959 . S
C1311 H1297 0.961 . S
C1311 C1310 1.502 . S
C1312 H1298 0.960 . S
C1312 H1299 0.961 . S
C1312 H1300 0.959 . S
C1312 C1310 1.561 . S
C1313 C1310 1.526 . S
C1313 C1314 1.396 . S
C1313 C1318 1.390 . S
C1314 C1308 1.465 . S
C1314 C1313 1.396 . S
C1314 C1315 1.399 . S
C1315 H1301 0.929 . S
C1315 C1314 1.399 . S
C1315 C1316 1.385 . S
C1316 H1302 0.931 . S
C1316 C1315 1.385 . S
C1316 C1317 1.389 . S
C1317 C1316 1.389 . S
C1317 C1318 1.387 . S
C1318 H1303 0.930 . S
C1318 C1313 1.390 . S
C1318 C1317 1.387 . S
H1319 C1331 0.930 . S
H1320 C1333 0.930 . S
H1321 C1334 0.930 . S
H1322 C1338 0.959 . S
H1323 C1338 0.959 . S
H1324 C1338 0.961 . S
H1325 C1339 0.960 . S
H1326 C1339 0.961 . S
H1327 C1339 0.959 . S
H1328 C1342 0.929 . S
H1329 C1343 0.931 . S
H1330 C1345 0.930 . S
C1331 H1319 0.930 . S
C1331 C1332 1.399 . S
C1331 C1336 1.399 . S
C1332 C1331 1.399 . S
C1332 C1333 1.376 . S
C1333 H1320 0.930 . S
C1333 C1332 1.376 . S
C1333 C1334 1.388 . S
C1334 H1321 0.930 . S
C1334 C1333 1.388 . S
C1334 C1335 1.390 . S
C1335 C1334 1.390 . S
C1335 C1336 1.394 . S
C1335 C1341 1.465 . S
C1336 C1331 1.399 . S
C1336 C1335 1.394 . S
C1336 C1337 1.516 . S
C1337 C1336 1.516 . S
C1337 C1338 1.502 . S
C1337 C1339 1.561 . S
C1337 C1340 1.526 . S
C1338 H1322 0.959 . S
C1338 H1323 0.959 . S
C1338 H1324 0.961 . S
C1338 C1337 1.502 . S
C1339 H1325 0.960 . S
C1339 H1326 0.961 . S
C1339 H1327 0.959 . S
C1339 C1337 1.561 . S
C1340 C1337 1.526 . S
C1340 C1341 1.396 . S
C1340 C1345 1.390 . S
C1341 C1335 1.465 . S
C1341 C1340 1.396 . S
C1341 C1342 1.399 . S
C1342 H1328 0.929 . S
C1342 C1341 1.399 . S
C1342 C1343 1.385 . S
C1343 H1329 0.931 . S
C1343 C1342 1.385 . S
C1343 C1344 1.389 . S
C1344 C1343 1.389 . S
C1344 C1345 1.387 . S
C1345 H1330 0.930 . S
C1345 C1340 1.390 . S
C1345 C1344 1.387 . S
H1346 C1358 0.930 . S
H1347 C1360 0.930 . S
H1348 C1361 0.930 . S
H1349 C1365 0.959 . S
H1350 C1365 0.959 . S
H1351 C1365 0.961 . S
H1352 C1366 0.960 . S
H1353 C1366 0.961 . S
H1354 C1366 0.959 . S
H1355 C1369 0.929 . S
H1356 C1370 0.931 . S
H1357 C1372 0.930 . S
C1358 H1346 0.930 . S
C1358 C1359 1.399 . S
C1358 C1363 1.399 . S
C1359 C1358 1.399 . S
C1359 C1360 1.376 . S
C1360 H1347 0.930 . S
C1360 C1359 1.376 . S
C1360 C1361 1.388 . S
C1361 H1348 0.930 . S
C1361 C1360 1.388 . S
C1361 C1362 1.390 . S
C1362 C1361 1.390 . S
C1362 C1363 1.394 . S
C1362 C1368 1.465 . S
C1363 C1358 1.399 . S
C1363 C1362 1.394 . S
C1363 C1364 1.516 . S
C1364 C1363 1.516 . S
C1364 C1365 1.502 . S
C1364 C1366 1.561 . S
C1364 C1367 1.526 . S
C1365 H1349 0.959 . S
C1365 H1350 0.959 . S
C1365 H1351 0.961 . S
C1365 C1364 1.502 . S
C1366 H1352 0.960 . S
C1366 H1353 0.961 . S
C1366 H1354 0.959 . S
C1366 C1364 1.561 . S
C1367 C1364 1.526 . S
C1367 C1368 1.396 . S
C1367 C1372 1.390 . S
C1368 C1362 1.465 . S
C1368 C1367 1.396 . S
C1368 C1369 1.399 . S
C1369 H1355 0.929 . S
C1369 C1368 1.399 . S
C1369 C1370 1.385 . S
C1370 H1356 0.931 . S
C1370 C1369 1.385 . S
C1370 C1371 1.389 . S
C1371 C1370 1.389 . S
C1371 C1372 1.387 . S
C1372 H1357 0.930 . S
C1372 C1367 1.390 . S
C1372 C1371 1.387 . S
H1373 C1385 0.930 . S
H1374 C1387 0.930 . S
H1375 C1388 0.930 . S
H1376 C1392 0.959 . S
H1377 C1392 0.959 . S
H1378 C1392 0.961 . S
H1379 C1393 0.960 . S
H1380 C1393 0.961 . S
H1381 C1393 0.959 . S
H1382 C1396 0.929 . S
H1383 C1397 0.931 . S
H1384 C1399 0.930 . S
C1385 H1373 0.930 . S
C1385 C1386 1.399 . S
C1385 C1390 1.399 . S
C1386 C1385 1.399 . S
C1386 C1387 1.376 . S
C1387 H1374 0.930 . S
C1387 C1386 1.376 . S
C1387 C1388 1.388 . S
C1388 H1375 0.930 . S
C1388 C1387 1.388 . S
C1388 C1389 1.390 . S
C1389 C1388 1.390 . S
C1389 C1390 1.394 . S
C1389 C1395 1.465 . S
C1390 C1385 1.399 . S
C1390 C1389 1.394 . S
C1390 C1391 1.516 . S
C1391 C1390 1.516 . S
C1391 C1392 1.502 . S
C1391 C1393 1.561 . S
C1391 C1394 1.526 . S
C1392 H1376 0.959 . S
C1392 H1377 0.959 . S
C1392 H1378 0.961 . S
C1392 C1391 1.502 . S
C1393 H1379 0.960 . S
C1393 H1380 0.961 . S
C1393 H1381 0.959 . S
C1393 C1391 1.561 . S
C1394 C1391 1.526 . S
C1394 C1395 1.396 . S
C1394 C1399 1.390 . S
C1395 C1389 1.465 . S
C1395 C1394 1.396 . S
C1395 C1396 1.399 . S
C1396 H1382 0.929 . S
C1396 C1395 1.399 . S
C1396 C1397 1.385 . S
C1397 H1383 0.931 . S
C1397 C1396 1.385 . S
C1397 C1398 1.389 . S
C1398 C1397 1.389 . S
C1398 C1399 1.387 . S
C1399 H1384 0.930 . S
C1399 C1394 1.390 . S
C1399 C1398 1.387 . S
H1400 C1412 0.930 . S
H1401 C1414 0.930 . S
H1402 C1415 0.930 . S
H1403 C1419 0.959 . S
H1404 C1419 0.959 . S
H1405 C1419 0.961 . S
H1406 C1420 0.960 . S
H1407 C1420 0.961 . S
H1408 C1420 0.959 . S
H1409 C1423 0.929 . S
H1410 C1424 0.931 . S
H1411 C1426 0.930 . S
C1412 H1400 0.930 . S
C1412 C1413 1.399 . S
C1412 C1417 1.399 . S
C1413 C1412 1.399 . S
C1413 C1414 1.376 . S
C1414 H1401 0.930 . S
C1414 C1413 1.376 . S
C1414 C1415 1.388 . S
C1415 H1402 0.930 . S
C1415 C1414 1.388 . S
C1415 C1416 1.390 . S
C1416 C1415 1.390 . S
C1416 C1417 1.394 . S
C1416 C1422 1.465 . S
C1417 C1412 1.399 . S
C1417 C1416 1.394 . S
C1417 C1418 1.516 . S
C1418 C1417 1.516 . S
C1418 C1419 1.502 . S
C1418 C1420 1.561 . S
C1418 C1421 1.526 . S
C1419 H1403 0.959 . S
C1419 H1404 0.959 . S
C1419 H1405 0.961 . S
C1419 C1418 1.502 . S
C1420 H1406 0.960 . S
C1420 H1407 0.961 . S
C1420 H1408 0.959 . S
C1420 C1418 1.561 . S
C1421 C1418 1.526 . S
C1421 C1422 1.396 . S
C1421 C1426 1.390 . S
C1422 C1416 1.465 . S
C1422 C1421 1.396 . S
C1422 C1423 1.399 . S
C1423 H1409 0.929 . S
C1423 C1422 1.399 . S
C1423 C1424 1.385 . S
C1424 H1410 0.931 . S
C1424 C1423 1.385 . S
C1424 C1425 1.389 . S
C1425 C1424 1.389 . S
C1425 C1426 1.387 . S
C1426 H1411 0.930 . S
C1426 C1421 1.390 . S
C1426 C1425 1.387 . S
H1427 C1439 0.930 . S
H1428 C1441 0.930 . S
H1429 C1442 0.930 . S
H1430 C1446 0.959 . S
H1431 C1446 0.959 . S
H1432 C1446 0.961 . S
H1433 C1447 0.960 . S
H1434 C1447 0.961 . S
H1435 C1447 0.959 . S
H1436 C1450 0.929 . S
H1437 C1451 0.931 . S
H1438 C1453 0.930 . S
C1439 H1427 0.930 . S
C1439 C1440 1.399 . S
C1439 C1444 1.399 . S
C1440 C1439 1.399 . S
C1440 C1441 1.376 . S
C1441 H1428 0.930 . S
C1441 C1440 1.376 . S
C1441 C1442 1.388 . S
C1442 H1429 0.930 . S
C1442 C1441 1.388 . S
C1442 C1443 1.390 . S
C1443 C1442 1.390 . S
C1443 C1444 1.394 . S
C1443 C1449 1.465 . S
C1444 C1439 1.399 . S
C1444 C1443 1.394 . S
C1444 C1445 1.516 . S
C1445 C1444 1.516 . S
C1445 C1446 1.502 . S
C1445 C1447 1.561 . S
C1445 C1448 1.526 . S
C1446 H1430 0.959 . S
C1446 H1431 0.959 . S
C1446 H1432 0.961 . S
C1446 C1445 1.502 . S
C1447 H1433 0.960 . S
C1447 H1434 0.961 . S
C1447 H1435 0.959 . S
C1447 C1445 1.561 . S
C1448 C1445 1.526 . S
C1448 C1449 1.396 . S
C1448 C1453 1.390 . S
C1449 C1443 1.465 . S
C1449 C1448 1.396 . S
C1449 C1450 1.399 . S
C1450 H1436 0.929 . S
C1450 C1449 1.399 . S
C1450 C1451 1.385 . S
C1451 H1437 0.931 . S
C1451 C1450 1.385 . S
C1451 C1452 1.389 . S
C1452 C1451 1.389 . S
C1452 C1453 1.387 . S
C1453 H1438 0.930 . S
C1453 C1448 1.390 . S
C1453 C1452 1.387 . S
H1454 C1466 0.930 . S
H1455 C1468 0.930 . S
H1456 C1469 0.930 . S
H1457 C1473 0.959 . S
H1458 C1473 0.959 . S
H1459 C1473 0.961 . S
H1460 C1474 0.960 . S
H1461 C1474 0.961 . S
H1462 C1474 0.959 . S
H1463 C1477 0.929 . S
H1464 C1478 0.931 . S
H1465 C1480 0.930 . S
C1466 H1454 0.930 . S
C1466 C1467 1.399 . S
C1466 C1471 1.399 . S
C1467 C1466 1.399 . S
C1467 C1468 1.376 . S
C1468 H1455 0.930 . S
C1468 C1467 1.376 . S
C1468 C1469 1.388 . S
C1469 H1456 0.930 . S
C1469 C1468 1.388 . S
C1469 C1470 1.390 . S
C1470 C1469 1.390 . S
C1470 C1471 1.394 . S
C1470 C1476 1.465 . S
C1471 C1466 1.399 . S
C1471 C1470 1.394 . S
C1471 C1472 1.516 . S
C1472 C1471 1.516 . S
C1472 C1473 1.502 . S
C1472 C1474 1.561 . S
C1472 C1475 1.526 . S
C1473 H1457 0.959 . S
C1473 H1458 0.959 . S
C1473 H1459 0.961 . S
C1473 C1472 1.502 . S
C1474 H1460 0.960 . S
C1474 H1461 0.961 . S
C1474 H1462 0.959 . S
C1474 C1472 1.561 . S
C1475 C1472 1.526 . S
C1475 C1476 1.396 . S
C1475 C1480 1.390 . S
C1476 C1470 1.465 . S
C1476 C1475 1.396 . S
C1476 C1477 1.399 . S
C1477 H1463 0.929 . S
C1477 C1476 1.399 . S
C1477 C1478 1.385 . S
C1478 H1464 0.931 . S
C1478 C1477 1.385 . S
C1478 C1479 1.389 . S
C1479 C1478 1.389 . S
C1479 C1480 1.387 . S
C1480 H1465 0.930 . S
C1480 C1475 1.390 . S
C1480 C1479 1.387 . S
H1481 C1493 0.930 . S
H1482 C1495 0.930 . S
H1483 C1496 0.930 . S
H1484 C1500 0.959 . S
H1485 C1500 0.959 . S
H1486 C1500 0.961 . S
H1487 C1501 0.960 . S
H1488 C1501 0.961 . S
H1489 C1501 0.959 . S
H1490 C1504 0.929 . S
H1491 C1505 0.931 . S
H1492 C1507 0.930 . S
C1493 H1481 0.930 . S
C1493 C1494 1.399 . S
C1493 C1498 1.399 . S
C1494 C1493 1.399 . S
C1494 C1495 1.376 . S
C1495 H1482 0.930 . S
C1495 C1494 1.376 . S
C1495 C1496 1.388 . S
C1496 H1483 0.930 . S
C1496 C1495 1.388 . S
C1496 C1497 1.390 . S
C1497 C1496 1.390 . S
C1497 C1498 1.394 . S
C1497 C1503 1.465 . S
C1498 C1493 1.399 . S
C1498 C1497 1.394 . S
C1498 C1499 1.516 . S
C1499 C1498 1.516 . S
C1499 C1500 1.502 . S
C1499 C1501 1.561 . S
C1499 C1502 1.526 . S
C1500 H1484 0.959 . S
C1500 H1485 0.959 . S
C1500 H1486 0.961 . S
C1500 C1499 1.502 . S
C1501 H1487 0.960 . S
C1501 H1488 0.961 . S
C1501 H1489 0.959 . S
C1501 C1499 1.561 . S
C1502 C1499 1.526 . S
C1502 C1503 1.396 . S
C1502 C1507 1.390 . S
C1503 C1497 1.465 . S
C1503 C1502 1.396 . S
C1503 C1504 1.399 . S
C1504 H1490 0.929 . S
C1504 C1503 1.399 . S
C1504 C1505 1.385 . S
C1505 H1491 0.931 . S
C1505 C1504 1.385 . S
C1505 C1506 1.389 . S
C1506 C1505 1.389 . S
C1506 C1507 1.387 . S
C1507 H1492 0.930 . S
C1507 C1502 1.390 . S
C1507 C1506 1.387 . S
H1508 C1520 0.930 . S
H1509 C1522 0.930 . S
H1510 C1523 0.930 . S
H1511 C1527 0.959 . S
H1512 C1527 0.959 . S
H1513 C1527 0.961 . S
H1514 C1528 0.960 . S
H1515 C1528 0.961 . S
H1516 C1528 0.959 . S
H1517 C1531 0.929 . S
H1518 C1532 0.931 . S
H1519 C1534 0.930 . S
C1520 H1508 0.930 . S
C1520 C1521 1.399 . S
C1520 C1525 1.399 . S
C1521 C1520 1.399 . S
C1521 C1522 1.376 . S
C1522 H1509 0.930 . S
C1522 C1521 1.376 . S
C1522 C1523 1.388 . S
C1523 H1510 0.930 . S
C1523 C1522 1.388 . S
C1523 C1524 1.390 . S
C1524 C1523 1.390 . S
C1524 C1525 1.394 . S
C1524 C1530 1.465 . S
C1525 C1520 1.399 . S
C1525 C1524 1.394 . S
C1525 C1526 1.516 . S
C1526 C1525 1.516 . S
C1526 C1527 1.502 . S
C1526 C1528 1.561 . S
C1526 C1529 1.526 . S
C1527 H1511 0.959 . S
C1527 H1512 0.959 . S
C1527 H1513 0.961 . S
C1527 C1526 1.502 . S
C1528 H1514 0.960 . S
C1528 H1515 0.961 . S
C1528 H1516 0.959 . S
C1528 C1526 1.561 . S
C1529 C1526 1.526 . S
C1529 C1530 1.396 . S
C1529 C1534 1.390 . S
C1530 C1524 1.465 . S
C1530 C1529 1.396 . S
C1530 C1531 1.399 . S
C1531 H1517 0.929 . S
C1531 C1530 1.399 . S
C1531 C1532 1.385 . S
C1532 H1518 0.931 . S
C1532 C1531 1.385 . S
C1532 C1533 1.389 . S
C1533 C1532 1.389 . S
C1533 C1534 1.387 . S
C1534 H1519 0.930 . S
C1534 C1529 1.390 . S
C1534 C1533 1.387 . S
H1535 C1547 0.930 . S
H1536 C1549 0.930 . S
H1537 C1550 0.930 . S
H1538 C1554 0.959 . S
H1539 C1554 0.959 . S
H1540 C1554 0.961 . S
H1541 C1555 0.960 . S
H1542 C1555 0.961 . S
H1543 C1555 0.959 . S
H1544 C1558 0.929 . S
H1545 C1559 0.931 . S
H1546 C1561 0.930 . S
C1547 H1535 0.930 . S
C1547 C1548 1.399 . S
C1547 C1552 1.399 . S
C1548 C1547 1.399 . S
C1548 C1549 1.376 . S
C1549 H1536 0.930 . S
C1549 C1548 1.376 . S
C1549 C1550 1.388 . S
C1550 H1537 0.930 . S
C1550 C1549 1.388 . S
C1550 C1551 1.390 . S
C1551 C1550 1.390 . S
C1551 C1552 1.394 . S
C1551 C1557 1.465 . S
C1552 C1547 1.399 . S
C1552 C1551 1.394 . S
C1552 C1553 1.516 . S
C1553 C1552 1.516 . S
C1553 C1554 1.502 . S
C1553 C1555 1.561 . S
C1553 C1556 1.526 . S
C1554 H1538 0.959 . S
C1554 H1539 0.959 . S
C1554 H1540 0.961 . S
C1554 C1553 1.502 . S
C1555 H1541 0.960 . S
C1555 H1542 0.961 . S
C1555 H1543 0.959 . S
C1555 C1553 1.561 . S
C1556 C1553 1.526 . S
C1556 C1557 1.396 . S
C1556 C1561 1.390 . S
C1557 C1551 1.465 . S
C1557 C1556 1.396 . S
C1557 C1558 1.399 . S
C1558 H1544 0.929 . S
C1558 C1557 1.399 . S
C1558 C1559 1.385 . S
C1559 H1545 0.931 . S
C1559 C1558 1.385 . S
C1559 C1560 1.389 . S
C1560 C1559 1.389 . S
C1560 C1561 1.387 . S
C1561 H1546 0.930 . S
C1561 C1556 1.390 . S
C1561 C1560 1.387 . S
H1562 C1574 0.930 . S
H1563 C1576 0.930 . S
H1564 C1577 0.930 . S
H1565 C1581 0.959 . S
H1566 C1581 0.959 . S
H1567 C1581 0.961 . S
H1568 C1582 0.960 . S
H1569 C1582 0.961 . S
H1570 C1582 0.959 . S
H1571 C1585 0.929 . S
H1572 C1586 0.931 . S
H1573 C1588 0.930 . S
C1574 H1562 0.930 . S
C1574 C1575 1.399 . S
C1574 C1579 1.399 . S
C1575 C1574 1.399 . S
C1575 C1576 1.376 . S
C1576 H1563 0.930 . S
C1576 C1575 1.376 . S
C1576 C1577 1.388 . S
C1577 H1564 0.930 . S
C1577 C1576 1.388 . S
C1577 C1578 1.390 . S
C1578 C1577 1.390 . S
C1578 C1579 1.394 . S
C1578 C1584 1.465 . S
C1579 C1574 1.399 . S
C1579 C1578 1.394 . S
C1579 C1580 1.516 . S
C1580 C1579 1.516 . S
C1580 C1581 1.502 . S
C1580 C1582 1.561 . S
C1580 C1583 1.526 . S
C1581 H1565 0.959 . S
C1581 H1566 0.959 . S
C1581 H1567 0.961 . S
C1581 C1580 1.502 . S
C1582 H1568 0.960 . S
C1582 H1569 0.961 . S
C1582 H1570 0.959 . S
C1582 C1580 1.561 . S
C1583 C1580 1.526 . S
C1583 C1584 1.396 . S
C1583 C1588 1.390 . S
C1584 C1578 1.465 . S
C1584 C1583 1.396 . S
C1584 C1585 1.399 . S
C1585 H1571 0.929 . S
C1585 C1584 1.399 . S
C1585 C1586 1.385 . S
C1586 H1572 0.931 . S
C1586 C1585 1.385 . S
C1586 C1587 1.389 . S
C1587 C1586 1.389 . S
C1587 C1588 1.387 . S
C1588 H1573 0.930 . S
C1588 C1583 1.390 . S
C1588 C1587 1.387 . S
H1589 C1601 0.930 . S
H1590 C1603 0.930 . S
H1591 C1604 0.930 . S
H1592 C1608 0.959 . S
H1593 C1608 0.959 . S
H1594 C1608 0.961 . S
H1595 C1609 0.960 . S
H1596 C1609 0.961 . S
H1597 C1609 0.959 . S
H1598 C1612 0.929 . S
H1599 C1613 0.931 . S
H1600 C1615 0.930 . S
C1601 H1589 0.930 . S
C1601 C1602 1.399 . S
C1601 C1606 1.399 . S
C1602 C1601 1.399 . S
C1602 C1603 1.376 . S
C1603 H1590 0.930 . S
C1603 C1602 1.376 . S
C1603 C1604 1.388 . S
C1604 H1591 0.930 . S
C1604 C1603 1.388 . S
C1604 C1605 1.390 . S
C1605 C1604 1.390 . S
C1605 C1606 1.394 . S
C1605 C1611 1.465 . S
C1606 C1601 1.399 . S
C1606 C1605 1.394 . S
C1606 C1607 1.516 . S
C1607 C1606 1.516 . S
C1607 C1608 1.502 . S
C1607 C1609 1.561 . S
C1607 C1610 1.526 . S
C1608 H1592 0.959 . S
C1608 H1593 0.959 . S
C1608 H1594 0.961 . S
C1608 C1607 1.502 . S
C1609 H1595 0.960 . S
C1609 H1596 0.961 . S
C1609 H1597 0.959 . S
C1609 C1607 1.561 . S
C1610 C1607 1.526 . S
C1610 C1611 1.396 . S
C1610 C1615 1.390 . S
C1611 C1605 1.465 . S
C1611 C1610 1.396 . S
C1611 C1612 1.399 . S
C1612 H1598 0.929 . S
C1612 C1611 1.399 . S
C1612 C1613 1.385 . S
C1613 H1599 0.931 . S
C1613 C1612 1.385 . S
C1613 C1614 1.389 . S
C1614 C1613 1.389 . S
C1614 C1615 1.387 . S
C1615 H1600 0.930 . S
C1615 C1610 1.390 . S
C1615 C1614 1.387 . S
H1616 C1628 0.930 . S
H1617 C1630 0.930 . S
H1618 C1631 0.930 . S
H1619 C1635 0.959 . S
H1620 C1635 0.959 . S
H1621 C1635 0.961 . S
H1622 C1636 0.960 . S
H1623 C1636 0.961 . S
H1624 C1636 0.959 . S
H1625 C1639 0.929 . S
H1626 C1640 0.931 . S
H1627 C1642 0.930 . S
C1628 H1616 0.930 . S
C1628 C1629 1.399 . S
C1628 C1633 1.399 . S
C1629 C1628 1.399 . S
C1629 C1630 1.376 . S
C1630 H1617 0.930 . S
C1630 C1629 1.376 . S
C1630 C1631 1.388 . S
C1631 H1618 0.930 . S
C1631 C1630 1.388 . S
C1631 C1632 1.390 . S
C1632 C1631 1.390 . S
C1632 C1633 1.394 . S
C1632 C1638 1.465 . S
C1633 C1628 1.399 . S
C1633 C1632 1.394 . S
C1633 C1634 1.516 . S
C1634 C1633 1.516 . S
C1634 C1635 1.502 . S
C1634 C1636 1.561 . S
C1634 C1637 1.526 . S
C1635 H1619 0.959 . S
C1635 H1620 0.959 . S
C1635 H1621 0.961 . S
C1635 C1634 1.502 . S
C1636 H1622 0.960 . S
C1636 H1623 0.961 . S
C1636 H1624 0.959 . S
C1636 C1634 1.561 . S
C1637 C1634 1.526 . S
C1637 C1638 1.396 . S
C1637 C1642 1.390 . S
C1638 C1632 1.465 . S
C1638 C1637 1.396 . S
C1638 C1639 1.399 . S
C1639 H1625 0.929 . S
C1639 C1638 1.399 . S
C1639 C1640 1.385 . S
C1640 H1626 0.931 . S
C1640 C1639 1.385 . S
C1640 C1641 1.389 . S
C1641 C1640 1.389 . S
C1641 C1642 1.387 . S
C1642 H1627 0.930 . S
C1642 C1637 1.390 . S
C1642 C1641 1.387 . S
H1643 C1655 0.930 . S
H1644 C1657 0.930 . S
H1645 C1658 0.930 . S
H1646 C1662 0.959 . S
H1647 C1662 0.959 . S
H1648 C1662 0.961 . S
H1649 C1663 0.960 . S
H1650 C1663 0.961 . S
H1651 C1663 0.959 . S
H1652 C1666 0.929 . S
H1653 C1667 0.931 . S
H1654 C1669 0.930 . S
C1655 H1643 0.930 . S
C1655 C1656 1.399 . S
C1655 C1660 1.399 . S
C1656 C1655 1.399 . S
C1656 C1657 1.376 . S
C1657 H1644 0.930 . S
C1657 C1656 1.376 . S
C1657 C1658 1.388 . S
C1658 H1645 0.930 . S
C1658 C1657 1.388 . S
C1658 C1659 1.390 . S
C1659 C1658 1.390 . S
C1659 C1660 1.394 . S
C1659 C1665 1.465 . S
C1660 C1655 1.399 . S
C1660 C1659 1.394 . S
C1660 C1661 1.516 . S
C1661 C1660 1.516 . S
C1661 C1662 1.502 . S
C1661 C1663 1.561 . S
C1661 C1664 1.526 . S
C1662 H1646 0.959 . S
C1662 H1647 0.959 . S
C1662 H1648 0.961 . S
C1662 C1661 1.502 . S
C1663 H1649 0.960 . S
C1663 H1650 0.961 . S
C1663 H1651 0.959 . S
C1663 C1661 1.561 . S
C1664 C1661 1.526 . S
C1664 C1665 1.396 . S
C1664 C1669 1.390 . S
C1665 C1659 1.465 . S
C1665 C1664 1.396 . S
C1665 C1666 1.399 . S
C1666 H1652 0.929 . S
C1666 C1665 1.399 . S
C1666 C1667 1.385 . S
C1667 H1653 0.931 . S
C1667 C1666 1.385 . S
C1667 C1668 1.389 . S
C1668 C1667 1.389 . S
C1668 C1669 1.387 . S
C1669 H1654 0.930 . S
C1669 C1664 1.390 . S
C1669 C1668 1.387 . S
H1670 C1682 0.930 . S
H1671 C1684 0.930 . S
H1672 C1685 0.930 . S
H1673 C1689 0.959 . S
H1674 C1689 0.959 . S
H1675 C1689 0.961 . S
H1676 C1690 0.960 . S
H1677 C1690 0.961 . S
H1678 C1690 0.959 . S
H1679 C1693 0.929 . S
H1680 C1694 0.931 . S
H1681 C1696 0.930 . S
C1682 H1670 0.930 . S
C1682 C1683 1.399 . S
C1682 C1687 1.399 . S
C1683 C1682 1.399 . S
C1683 C1684 1.376 . S
C1684 H1671 0.930 . S
C1684 C1683 1.376 . S
C1684 C1685 1.388 . S
C1685 H1672 0.930 . S
C1685 C1684 1.388 . S
C1685 C1686 1.390 . S
C1686 C1685 1.390 . S
C1686 C1687 1.394 . S
C1686 C1692 1.465 . S
C1687 C1682 1.399 . S
C1687 C1686 1.394 . S
C1687 C1688 1.516 . S
C1688 C1687 1.516 . S
C1688 C1689 1.502 . S
C1688 C1690 1.561 . S
C1688 C1691 1.526 . S
C1689 H1673 0.959 . S
C1689 H1674 0.959 . S
C1689 H1675 0.961 . S
C1689 C1688 1.502 . S
C1690 H1676 0.960 . S
C1690 H1677 0.961 . S
C1690 H1678 0.959 . S
C1690 C1688 1.561 . S
C1691 C1688 1.526 . S
C1691 C1692 1.396 . S
C1691 C1696 1.390 . S
C1692 C1686 1.465 . S
C1692 C1691 1.396 . S
C1692 C1693 1.399 . S
C1693 H1679 0.929 . S
C1693 C1692 1.399 . S
C1693 C1694 1.385 . S
C1694 H1680 0.931 . S
C1694 C1693 1.385 . S
C1694 C1695 1.389 . S
C1695 C1694 1.389 . S
C1695 C1696 1.387 . S
C1696 H1681 0.930 . S
C1696 C1691 1.390 . S
C1696 C1695 1.387 . S
H1697 C1709 0.930 . S
H1698 C1711 0.930 . S
H1699 C1712 0.930 . S
H1700 C1716 0.959 . S
H1701 C1716 0.959 . S
H1702 C1716 0.961 . S
H1703 C1717 0.960 . S
H1704 C1717 0.961 . S
H1705 C1717 0.959 . S
H1706 C1720 0.929 . S
H1707 C1721 0.931 . S
H1708 C1723 0.930 . S
C1709 H1697 0.930 . S
C1709 C1710 1.399 . S
C1709 C1714 1.399 . S
C1710 C1709 1.399 . S
C1710 C1711 1.376 . S
C1711 H1698 0.930 . S
C1711 C1710 1.376 . S
C1711 C1712 1.388 . S
C1712 H1699 0.930 . S
C1712 C1711 1.388 . S
C1712 C1713 1.390 . S
C1713 C1712 1.390 . S
C1713 C1714 1.394 . S
C1713 C1719 1.465 . S
C1714 C1709 1.399 . S
C1714 C1713 1.394 . S
C1714 C1715 1.516 . S
C1715 C1714 1.516 . S
C1715 C1716 1.502 . S
C1715 C1717 1.561 . S
C1715 C1718 1.526 . S
C1716 H1700 0.959 . S
C1716 H1701 0.959 . S
C1716 H1702 0.961 . S
C1716 C1715 1.502 . S
C1717 H1703 0.960 . S
C1717 H1704 0.961 . S
C1717 H1705 0.959 . S
C1717 C1715 1.561 . S
C1718 C1715 1.526 . S
C1718 C1719 1.396 . S
C1718 C1723 1.390 . S
C1719 C1713 1.465 . S
C1719 C1718 1.396 . S
C1719 C1720 1.399 . S
C1720 H1706 0.929 . S
C1720 C1719 1.399 . S
C1720 C1721 1.385 . S
C1721 H1707 0.931 . S
C1721 C1720 1.385 . S
C1721 C1722 1.389 . S
C1722 C1721 1.389 . S
C1722 C1723 1.387 . S
C1723 H1708 0.930 . S
C1723 C1718 1.390 . S
C1723 C1722 1.387 . S
H1724 C1736 0.930 . S
H1725 C1738 0.930 . S
H1726 C1739 0.930 . S
H1727 C1743 0.959 . S
H1728 C1743 0.959 . S
H1729 C1743 0.961 . S
H1730 C1744 0.960 . S
H1731 C1744 0.961 . S
H1732 C1744 0.959 . S
H1733 C1747 0.929 . S
H1734 C1748 0.931 . S
H1735 C1750 0.930 . S
C1736 H1724 0.930 . S
C1736 C1737 1.399 . S
C1736 C1741 1.399 . S
C1737 C1736 1.399 . S
C1737 C1738 1.376 . S
C1738 H1725 0.930 . S
C1738 C1737 1.376 . S
C1738 C1739 1.388 . S
C1739 H1726 0.930 . S
C1739 C1738 1.388 . S
C1739 C1740 1.390 . S
C1740 C1739 1.390 . S
C1740 C1741 1.394 . S
C1740 C1746 1.465 . S
C1741 C1736 1.399 . S
C1741 C1740 1.394 . S
C1741 C1742 1.516 . S
C1742 C1741 1.516 . S
C1742 C1743 1.502 . S
C1742 C1744 1.561 . S
C1742 C1745 1.526 . S
C1743 H1727 0.959 . S
C1743 H1728 0.959 . S
C1743 H1729 0.961 . S
C1743 C1742 1.502 . S
C1744 H1730 0.960 . S
C1744 H1731 0.961 . S
C1744 H1732 0.959 . S
C1744 C1742 1.561 . S
C1745 C1742 1.526 . S
C1745 C1746 1.396 . S
C1745 C1750 1.390 . S
C1746 C1740 1.465 . S
C1746 C1745 1.396 . S
C1746 C1747 1.399 . S
C1747 H1733 0.929 . S
C1747 C1746 1.399 . S
C1747 C1748 1.385 . S
C1748 H1734 0.931 . S
C1748 C1747 1.385 . S
C1748 C1749 1.389 . S
C1749 C1748 1.389 . S
C1749 C1750 1.387 . S
C1750 H1735 0.930 . S
C1750 C1745 1.390 . S
C1750 C1749 1.387 . S
H1751 C1763 0.930 . S
H1752 C1765 0.930 . S
H1753 C1766 0.930 . S
H1754 C1770 0.959 . S
H1755 C1770 0.959 . S
H1756 C1770 0.961 . S
H1757 C1771 0.960 . S
H1758 C1771 0.961 . S
H1759 C1771 0.959 . S
H1760 C1774 0.929 . S
H1761 C1775 0.931 . S
H1762 C1777 0.930 . S
C1763 H1751 0.930 . S
C1763 C1764 1.399 . S
C1763 C1768 1.399 . S
C1764 C1763 1.399 . S
C1764 C1765 1.376 . S
C1765 H1752 0.930 . S
C1765 C1764 1.376 . S
C1765 C1766 1.388 . S
C1766 H1753 0.930 . S
C1766 C1765 1.388 . S
C1766 C1767 1.390 . S
C1767 C1766 1.390 . S
C1767 C1768 1.394 . S
C1767 C1773 1.465 . S
C1768 C1763 1.399 . S
C1768 C1767 1.394 . S
C1768 C1769 1.516 . S
C1769 C1768 1.516 . S
C1769 C1770 1.502 . S
C1769 C1771 1.561 . S
C1769 C1772 1.526 . S
C1770 H1754 0.959 . S
C1770 H1755 0.959 . S
C1770 H1756 0.961 . S
C1770 C1769 1.502 . S
C1771 H1757 0.960 . S
C1771 H1758 0.961 . S
C1771 H1759 0.959 . S
C1771 C1769 1.561 . S
C1772 C1769 1.526 . S
C1772 C1773 1.396 . S
C1772 C1777 1.390 . S
C1773 C1767 1.465 . S
C1773 C1772 1.396 . S
C1773 C1774 1.399 . S
C1774 H1760 0.929 . S
C1774 C1773 1.399 . S
C1774 C1775 1.385 . S
C1775 H1761 0.931 . S
C1775 C1774 1.385 . S
C1775 C1776 1.389 . S
C1776 C1775 1.389 . S
C1776 C1777 1.387 . S
C1777 H1762 0.930 . S
C1777 C1772 1.390 . S
C1777 C1776 1.387 . S
H1778 C1790 0.930 . S
H1779 C1792 0.930 . S
H1780 C1793 0.930 . S
H1781 C1797 0.959 . S
H1782 C1797 0.959 . S
H1783 C1797 0.961 . S
H1784 C1798 0.960 . S
H1785 C1798 0.961 . S
H1786 C1798 0.959 . S
H1787 C1801 0.929 . S
H1788 C1802 0.931 . S
H1789 C1804 0.930 . S
C1790 H1778 0.930 . S
C1790 C1791 1.399 . S
C1790 C1795 1.399 . S
C1791 C1790 1.399 . S
C1791 C1792 1.376 . S
C1792 H1779 0.930 . S
C1792 C1791 1.376 . S
C1792 C1793 1.388 . S
C1793 H1780 0.930 . S
C1793 C1792 1.388 . S
C1793 C1794 1.390 . S
C1794 C1793 1.390 . S
C1794 C1795 1.394 . S
C1794 C1800 1.465 . S
C1795 C1790 1.399 . S
C1795 C1794 1.394 . S
C1795 C1796 1.516 . S
C1796 C1795 1.516 . S
C1796 C1797 1.502 . S
C1796 C1798 1.561 . S
C1796 C1799 1.526 . S
C1797 H1781 0.959 . S
C1797 H1782 0.959 . S
C1797 H1783 0.961 . S
C1797 C1796 1.502 . S
C1798 H1784 0.960 . S
C1798 H1785 0.961 . S
C1798 H1786 0.959 . S
C1798 C1796 1.561 . S
C1799 C1796 1.526 . S
C1799 C1800 1.396 . S
C1799 C1804 1.390 . S
C1800 C1794 1.465 . S
C1800 C1799 1.396 . S
C1800 C1801 1.399 . S
C1801 H1787 0.929 . S
C1801 C1800 1.399 . S
C1801 C1802 1.385 . S
C1802 H1788 0.931 . S
C1802 C1801 1.385 . S
C1802 C1803 1.389 . S
C1803 C1802 1.389 . S
C1803 C1804 1.387 . S
C1804 H1789 0.930 . S
C1804 C1799 1.390 . S
C1804 C1803 1.387 . S
H1805 C1817 0.930 . S
H1806 C1819 0.930 . S
H1807 C1820 0.930 . S
H1808 C1824 0.959 . S
H1809 C1824 0.959 . S
H1810 C1824 0.961 . S
H1811 C1825 0.960 . S
H1812 C1825 0.961 . S
H1813 C1825 0.959 . S
H1814 C1828 0.929 . S
H1815 C1829 0.931 . S
H1816 C1831 0.930 . S
C1817 H1805 0.930 . S
C1817 C1818 1.399 . S
C1817 C1822 1.399 . S
C1818 C1817 1.399 . S
C1818 C1819 1.376 . S
C1819 H1806 0.930 . S
C1819 C1818 1.376 . S
C1819 C1820 1.388 . S
C1820 H1807 0.930 . S
C1820 C1819 1.388 . S
C1820 C1821 1.390 . S
C1821 C1820 1.390 . S
C1821 C1822 1.394 . S
C1821 C1827 1.465 . S
C1822 C1817 1.399 . S
C1822 C1821 1.394 . S
C1822 C1823 1.516 . S
C1823 C1822 1.516 . S
C1823 C1824 1.502 . S
C1823 C1825 1.561 . S
C1823 C1826 1.526 . S
C1824 H1808 0.959 . S
C1824 H1809 0.959 . S
C1824 H1810 0.961 . S
C1824 C1823 1.502 . S
C1825 H1811 0.960 . S
C1825 H1812 0.961 . S
C1825 H1813 0.959 . S
C1825 C1823 1.561 . S
C1826 C1823 1.526 . S
C1826 C1827 1.396 . S
C1826 C1831 1.390 . S
C1827 C1821 1.465 . S
C1827 C1826 1.396 . S
C1827 C1828 1.399 . S
C1828 H1814 0.929 . S
C1828 C1827 1.399 . S
C1828 C1829 1.385 . S
C1829 H1815 0.931 . S
C1829 C1828 1.385 . S
C1829 C1830 1.389 . S
C1830 C1829 1.389 . S
C1830 C1831 1.387 . S
C1831 H1816 0.930 . S
C1831 C1826 1.390 . S
C1831 C1830 1.387 . S
H1832 C1844 0.930 . S
H1833 C1846 0.930 . S
H1834 C1847 0.930 . S
H1835 C1851 0.959 . S
H1836 C1851 0.959 . S
H1837 C1851 0.961 . S
H1838 C1852 0.960 . S
H1839 C1852 0.961 . S
H1840 C1852 0.959 . S
H1841 C1855 0.929 . S
H1842 C1856 0.931 . S
H1843 C1858 0.930 . S
C1844 H1832 0.930 . S
C1844 C1845 1.399 . S
C1844 C1849 1.399 . S
C1845 C1844 1.399 . S
C1845 C1846 1.376 . S
C1846 H1833 0.930 . S
C1846 C1845 1.376 . S
C1846 C1847 1.388 . S
C1847 H1834 0.930 . S
C1847 C1846 1.388 . S
C1847 C1848 1.390 . S
C1848 C1847 1.390 . S
C1848 C1849 1.394 . S
C1848 C1854 1.465 . S
C1849 C1844 1.399 . S
C1849 C1848 1.394 . S
C1849 C1850 1.516 . S
C1850 C1849 1.516 . S
C1850 C1851 1.502 . S
C1850 C1852 1.561 . S
C1850 C1853 1.526 . S
C1851 H1835 0.959 . S
C1851 H1836 0.959 . S
C1851 H1837 0.961 . S
C1851 C1850 1.502 . S
C1852 H1838 0.960 . S
C1852 H1839 0.961 . S
C1852 H1840 0.959 . S
C1852 C1850 1.561 . S
C1853 C1850 1.526 . S
C1853 C1854 1.396 . S
C1853 C1858 1.390 . S
C1854 C1848 1.465 . S
C1854 C1853 1.396 . S
C1854 C1855 1.399 . S
C1855 H1841 0.929 . S
C1855 C1854 1.399 . S
C1855 C1856 1.385 . S
C1856 H1842 0.931 . S
C1856 C1855 1.385 . S
C1856 C1857 1.389 . S
C1857 C1856 1.389 . S
C1857 C1858 1.387 . S
C1858 H1843 0.930 . S
C1858 C1853 1.390 . S
C1858 C1857 1.387 . S
H1859 C1871 0.930 . S
H1860 C1873 0.930 . S
H1861 C1874 0.930 . S
H1862 C1878 0.959 . S
H1863 C1878 0.959 . S
H1864 C1878 0.961 . S
H1865 C1879 0.960 . S
H1866 C1879 0.961 . S
H1867 C1879 0.959 . S
H1868 C1882 0.929 . S
H1869 C1883 0.931 . S
H1870 C1885 0.930 . S
C1871 H1859 0.930 . S
C1871 C1872 1.399 . S
C1871 C1876 1.399 . S
C1872 C1871 1.399 . S
C1872 C1873 1.376 . S
C1873 H1860 0.930 . S
C1873 C1872 1.376 . S
C1873 C1874 1.388 . S
C1874 H1861 0.930 . S
C1874 C1873 1.388 . S
C1874 C1875 1.390 . S
C1875 C1874 1.390 . S
C1875 C1876 1.394 . S
C1875 C1881 1.465 . S
C1876 C1871 1.399 . S
C1876 C1875 1.394 . S
C1876 C1877 1.516 . S
C1877 C1876 1.516 . S
C1877 C1878 1.502 . S
C1877 C1879 1.561 . S
C1877 C1880 1.526 . S
C1878 H1862 0.959 . S
C1878 H1863 0.959 . S
C1878 H1864 0.961 . S
C1878 C1877 1.502 . S
C1879 H1865 0.960 . S
C1879 H1866 0.961 . S
C1879 H1867 0.959 . S
C1879 C1877 1.561 . S
C1880 C1877 1.526 . S
C1880 C1881 1.396 . S
C1880 C1885 1.390 . S
C1881 C1875 1.465 . S
C1881 C1880 1.396 . S
C1881 C1882 1.399 . S
C1882 H1868 0.929 . S
C1882 C1881 1.399 . S
C1882 C1883 1.385 . S
C1883 H1869 0.931 . S
C1883 C1882 1.385 . S
C1883 C1884 1.389 . S
C1884 C1883 1.389 . S
C1884 C1885 1.387 . S
C1885 H1870 0.930 . S
C1885 C1880 1.390 . S
C1885 C1884 1.387 . S
H1886 C1898 0.930 . S
H1887 C1900 0.930 . S
H1888 C1901 0.930 . S
H1889 C1905 0.959 . S
H1890 C1905 0.959 . S
H1891 C1905 0.961 . S
H1892 C1906 0.960 . S
H1893 C1906 0.961 . S
H1894 C1906 0.959 . S
H1895 C1909 0.929 . S
H1896 C1910 0.931 . S
H1897 C1912 0.930 . S
C1898 H1886 0.930 . S
C1898 C1899 1.399 . S
C1898 C1903 1.399 . S
C1899 C1898 1.399 . S
C1899 C1900 1.376 . S
C1900 H1887 0.930 . S
C1900 C1899 1.376 . S
C1900 C1901 1.388 . S
C1901 H1888 0.930 . S
C1901 C1900 1.388 . S
C1901 C1902 1.390 . S
C1902 C1901 1.390 . S
C1902 C1903 1.394 . S
C1902 C1908 1.465 . S
C1903 C1898 1.399 . S
C1903 C1902 1.394 . S
C1903 C1904 1.516 . S
C1904 C1903 1.516 . S
C1904 C1905 1.502 . S
C1904 C1906 1.561 . S
C1904 C1907 1.526 . S
C1905 H1889 0.959 . S
C1905 H1890 0.959 . S
C1905 H1891 0.961 . S
C1905 C1904 1.502 . S
C1906 H1892 0.960 . S
C1906 H1893 0.961 . S
C1906 H1894 0.959 . S
C1906 C1904 1.561 . S
C1907 C1904 1.526 . S
C1907 C1908 1.396 . S
C1907 C1912 1.390 . S
C1908 C1902 1.465 . S
C1908 C1907 1.396 . S
C1908 C1909 1.399 . S
C1909 H1895 0.929 . S
C1909 C1908 1.399 . S
C1909 C1910 1.385 . S
C1910 H1896 0.931 . S
C1910 C1909 1.385 . S
C1910 C1911 1.389 . S
C1911 C1910 1.389 . S
C1911 C1912 1.387 . S
C1912 H1897 0.930 . S
C1912 C1907 1.390 . S
C1912 C1911 1.387 . S
H1913 C1925 0.930 . S
H1914 C1927 0.930 . S
H1915 C1928 0.930 . S
H1916 C1932 0.959 . S
H1917 C1932 0.959 . S
H1918 C1932 0.961 . S
H1919 C1933 0.960 . S
H1920 C1933 0.961 . S
H1921 C1933 0.959 . S
H1922 C1936 0.929 . S
H1923 C1937 0.931 . S
H1924 C1939 0.930 . S
C1925 H1913 0.930 . S
C1925 C1926 1.399 . S
C1925 C1930 1.399 . S
C1926 C1925 1.399 . S
C1926 C1927 1.376 . S
C1927 H1914 0.930 . S
C1927 C1926 1.376 . S
C1927 C1928 1.388 . S
C1928 H1915 0.930 . S
C1928 C1927 1.388 . S
C1928 C1929 1.390 . S
C1929 C1928 1.390 . S
C1929 C1930 1.394 . S
C1929 C1935 1.465 . S
C1930 C1925 1.399 . S
C1930 C1929 1.394 . S
C1930 C1931 1.516 . S
C1931 C1930 1.516 . S
C1931 C1932 1.502 . S
C1931 C1933 1.561 . S
C1931 C1934 1.526 . S
C1932 H1916 0.959 . S
C1932 H1917 0.959 . S
C1932 H1918 0.961 . S
C1932 C1931 1.502 . S
C1933 H1919 0.960 . S
C1933 H1920 0.961 . S
C1933 H1921 0.959 . S
C1933 C1931 1.561 . S
C1934 C1931 1.526 . S
C1934 C1935 1.396 . S
C1934 C1939 1.390 . S
C1935 C1929 1.465 . S
C1935 C1934 1.396 . S
C1935 C1936 1.399 . S
C1936 H1922 0.929 . S
C1936 C1935 1.399 . S
C1936 C1937 1.385 . S
C1937 H1923 0.931 . S
C1937 C1936 1.385 . S
C1937 C1938 1.389 . S
C1938 C1937 1.389 . S
C1938 C1939 1.387 . S
C1939 H1924 0.930 . S
C1939 C1934 1.390 . S
C1939 C1938 1.387 . S
H1940 C1952 0.930 . S
H1941 C1954 0.930 . S
H1942 C1955 0.930 . S
H1943 C1959 0.959 . S
H1944 C1959 0.959 . S
H1945 C1959 0.961 . S
H1946 C1960 0.960 . S
H1947 C1960 0.961 . S
H1948 C1960 0.959 . S
H1949 C1963 0.929 . S
H1950 C1964 0.931 . S
H1951 C1966 0.930 . S
C1952 H1940 0.930 . S
C1952 C1953 1.399 . S
C1952 C1957 1.399 . S
C1953 C1952 1.399 . S
C1953 C1954 1.376 . S
C1954 H1941 0.930 . S
C1954 C1953 1.376 . S
C1954 C1955 1.388 . S
C1955 H1942 0.930 . S
C1955 C1954 1.388 . S
C1955 C1956 1.390 . S
C1956 C1955 1.390 . S
C1956 C1957 1.394 . S
C1956 C1962 1.465 . S
C1957 C1952 1.399 . S
C1957 C1956 1.394 . S
C1957 C1958 1.516 . S
C1958 C1957 1.516 . S
C1958 C1959 1.502 . S
C1958 C1960 1.561 . S
C1958 C1961 1.526 . S
C1959 H1943 0.959 . S
C1959 H1944 0.959 . S
C1959 H1945 0.961 . S
C1959 C1958 1.502 . S
C1960 H1946 0.960 . S
C1960 H1947 0.961 . S
C1960 H1948 0.959 . S
C1960 C1958 1.561 . S
C1961 C1958 1.526 . S
C1961 C1962 1.396 . S
C1961 C1966 1.390 . S
C1962 C1956 1.465 . S
C1962 C1961 1.396 . S
C1962 C1963 1.399 . S
C1963 H1949 0.929 . S
C1963 C1962 1.399 . S
C1963 C1964 1.385 . S
C1964 H1950 0.931 . S
C1964 C1963 1.385 . S
C1964 C1965 1.389 . S
C1965 C1964 1.389 . S
C1965 C1966 1.387 . S
C1966 H1951 0.930 . S
C1966 C1961 1.390 . S
C1966 C1965 1.387 . S
H1967 C1979 0.930 . S
H1968 C1981 0.930 . S
H1969 C1982 0.930 . S
H1970 C1986 0.959 . S
H1971 C1986 0.959 . S
H1972 C1986 0.961 . S
H1973 C1987 0.960 . S
H1974 C1987 0.961 . S
H1975 C1987 0.959 . S
H1976 C1990 0.929 . S
H1977 C1991 0.931 . S
H1978 C1993 0.930 . S
C1979 H1967 0.930 . S
C1979 C1980 1.399 . S
C1979 C1984 1.399 . S
C1980 C1979 1.399 . S
C1980 C1981 1.376 . S
C1981 H1968 0.930 . S
C1981 C1980 1.376 . S
C1981 C1982 1.388 . S
C1982 H1969 0.930 . S
C1982 C1981 1.388 . S
C1982 C1983 1.390 . S
C1983 C1982 1.390 . S
C1983 C1984 1.394 . S
C1983 C1989 1.465 . S
C1984 C1979 1.399 . S
C1984 C1983 1.394 . S
C1984 C1985 1.516 . S
C1985 C1984 1.516 . S
C1985 C1986 1.502 . S
C1985 C1987 1.561 . S
C1985 C1988 1.526 . S
C1986 H1970 0.959 . S
C1986 H1971 0.959 . S
C1986 H1972 0.961 . S
C1986 C1985 1.502 . S
C1987 H1973 0.960 . S
C1987 H1974 0.961 . S
C1987 H1975 0.959 . S
C1987 C1985 1.561 . S
C1988 C1985 1.526 . S
C1988 C1989 1.396 . S
C1988 C1993 1.390 . S
C1989 C1983 1.465 . S
C1989 C1988 1.396 . S
C1989 C1990 1.399 . S
C1990 H1976 0.929 . S
C1990 C1989 1.399 . S
C1990 C1991 1.385 . S
C1991 H1977 0.931 . S
C1991 C1990 1.385 . S
C1991 C1992 1.389 . S
C1992 C1991 1.389 . S
C1992 C1993 1.387 . S
C1993 H1978 0.930 . S
C1993 C1988 1.390 . S
C1993 C1992 1.387 . S
H1994 C2006 0.930 . S
H1995 C2008 0.930 . S
H1996 C2009 0.930 . S
H1997 C2013 0.959 . S
H1998 C2013 0.959 . S
H1999 C2013 0.961 . S
H2000 C2014 0.960 . S
H2001 C2014 0.961 . S
H2002 C2014 0.959 . S
H2003 C2017 0.929 . S
H2004 C2018 0.931 . S
H2005 C2020 0.930 . S
C2006 H1994 0.930 . S
C2006 C2007 1.399 . S
C2006 C2011 1.399 . S
C2007 C2006 1.399 . S
C2007 C2008 1.376 . S
C2008 H1995 0.930 . S
C2008 C2007 1.376 . S
C2008 C2009 1.388 . S
C2009 H1996 0.930 . S
C2009 C2008 1.388 . S
C2009 C2010 1.390 . S
C2010 C2009 1.390 . S
C2010 C2011 1.394 . S
C2010 C2016 1.465 . S
C2011 C2006 1.399 . S
C2011 C2010 1.394 . S
C2011 C2012 1.516 . S
C2012 C2011 1.516 . S
C2012 C2013 1.502 . S
C2012 C2014 1.561 . S
C2012 C2015 1.526 . S
C2013 H1997 0.959 . S
C2013 H1998 0.959 . S
C2013 H1999 0.961 . S
C2013 C2012 1.502 . S
C2014 H2000 0.960 . S
C2014 H2001 0.961 . S
C2014 H2002 0.959 . S
C2014 C2012 1.561 . S
C2015 C2012 1.526 . S
C2015 C2016 1.396 . S
C2015 C2020 1.390 . S
C2016 C2010 1.465 . S
C2016 C2015 1.396 . S
C2016 C2017 1.399 . S
C2017 H2003 0.929 . S
C2017 C2016 1.399 . S
C2017 C2018 1.385 . S
C2018 H2004 0.931 . S
C2018 C2017 1.385 . S
C2018 C2019 1.389 . S
C2019 C2018 1.389 . S
C2019 C2020 1.387 . S
C2020 H2005 0.930 . S
C2020 C2015 1.390 . S
C2020 C2019 1.387 . S
H2021 C2033 0.930 . S
H2022 C2035 0.930 . S
H2023 C2036 0.930 . S
H2024 C2040 0.959 . S
H2025 C2040 0.959 . S
H2026 C2040 0.961 . S
H2027 C2041 0.960 . S
H2028 C2041 0.961 . S
H2029 C2041 0.959 . S
H2030 C2044 0.929 . S
H2031 C2045 0.931 . S
H2032 C2047 0.930 . S
C2033 H2021 0.930 . S
C2033 C2034 1.399 . S
C2033 C2038 1.399 . S
C2034 C2033 1.399 . S
C2034 C2035 1.376 . S
C2035 H2022 0.930 . S
C2035 C2034 1.376 . S
C2035 C2036 1.388 . S
C2036 H2023 0.930 . S
C2036 C2035 1.388 . S
C2036 C2037 1.390 . S
C2037 C2036 1.390 . S
C2037 C2038 1.394 . S
C2037 C2043 1.465 . S
C2038 C2033 1.399 . S
C2038 C2037 1.394 . S
C2038 C2039 1.516 . S
C2039 C2038 1.516 . S
C2039 C2040 1.502 . S
C2039 C2041 1.561 . S
C2039 C2042 1.526 . S
C2040 H2024 0.959 . S
C2040 H2025 0.959 . S
C2040 H2026 0.961 . S
C2040 C2039 1.502 . S
C2041 H2027 0.960 . S
C2041 H2028 0.961 . S
C2041 H2029 0.959 . S
C2041 C2039 1.561 . S
C2042 C2039 1.526 . S
C2042 C2043 1.396 . S
C2042 C2047 1.390 . S
C2043 C2037 1.465 . S
C2043 C2042 1.396 . S
C2043 C2044 1.399 . S
C2044 H2030 0.929 . S
C2044 C2043 1.399 . S
C2044 C2045 1.385 . S
C2045 H2031 0.931 . S
C2045 C2044 1.385 . S
C2045 C2046 1.389 . S
C2046 C2045 1.389 . S
C2046 C2047 1.387 . S
C2047 H2032 0.930 . S
C2047 C2042 1.390 . S
C2047 C2046 1.387 . S
H2048 C2060 0.930 . S
H2049 C2062 0.930 . S
H2050 C2063 0.930 . S
H2051 C2067 0.959 . S
H2052 C2067 0.959 . S
H2053 C2067 0.961 . S
H2054 C2068 0.960 . S
H2055 C2068 0.961 . S
H2056 C2068 0.959 . S
H2057 C2071 0.929 . S
H2058 C2072 0.931 . S
H2059 C2074 0.930 . S
C2060 H2048 0.930 . S
C2060 C2061 1.399 . S
C2060 C2065 1.399 . S
C2061 C2060 1.399 . S
C2061 C2062 1.376 . S
C2062 H2049 0.930 . S
C2062 C2061 1.376 . S
C2062 C2063 1.388 . S
C2063 H2050 0.930 . S
C2063 C2062 1.388 . S
C2063 C2064 1.390 . S
C2064 C2063 1.390 . S
C2064 C2065 1.394 . S
C2064 C2070 1.465 . S
C2065 C2060 1.399 . S
C2065 C2064 1.394 . S
C2065 C2066 1.516 . S
C2066 C2065 1.516 . S
C2066 C2067 1.502 . S
C2066 C2068 1.561 . S
C2066 C2069 1.526 . S
C2067 H2051 0.959 . S
C2067 H2052 0.959 . S
C2067 H2053 0.961 . S
C2067 C2066 1.502 . S
C2068 H2054 0.960 . S
C2068 H2055 0.961 . S
C2068 H2056 0.959 . S
C2068 C2066 1.561 . S
C2069 C2066 1.526 . S
C2069 C2070 1.396 . S
C2069 C2074 1.390 . S
C2070 C2064 1.465 . S
C2070 C2069 1.396 . S
C2070 C2071 1.399 . S
C2071 H2057 0.929 . S
C2071 C2070 1.399 . S
C2071 C2072 1.385 . S
C2072 H2058 0.931 . S
C2072 C2071 1.385 . S
C2072 C2073 1.389 . S
C2073 C2072 1.389 . S
C2073 C2074 1.387 . S
C2074 H2059 0.930 . S
C2074 C2069 1.390 . S
C2074 C2073 1.387 . S
H2075 C2087 0.930 . S
H2076 C2089 0.930 . S
H2077 C2090 0.930 . S
H2078 C2094 0.959 . S
H2079 C2094 0.959 . S
H2080 C2094 0.961 . S
H2081 C2095 0.960 . S
H2082 C2095 0.961 . S
H2083 C2095 0.959 . S
H2084 C2098 0.929 . S
H2085 C2099 0.931 . S
H2086 C2101 0.930 . S
C2087 H2075 0.930 . S
C2087 C2088 1.399 . S
C2087 C2092 1.399 . S
C2088 C2087 1.399 . S
C2088 C2089 1.376 . S
C2089 H2076 0.930 . S
C2089 C2088 1.376 . S
C2089 C2090 1.388 . S
C2090 H2077 0.930 . S
C2090 C2089 1.388 . S
C2090 C2091 1.390 . S
C2091 C2090 1.390 . S
C2091 C2092 1.394 . S
C2091 C2097 1.465 . S
C2092 C2087 1.399 . S
C2092 C2091 1.394 . S
C2092 C2093 1.516 . S
C2093 C2092 1.516 . S
C2093 C2094 1.502 . S
C2093 C2095 1.561 . S
C2093 C2096 1.526 . S
C2094 H2078 0.959 . S
C2094 H2079 0.959 . S
C2094 H2080 0.961 . S
C2094 C2093 1.502 . S
C2095 H2081 0.960 . S
C2095 H2082 0.961 . S
C2095 H2083 0.959 . S
C2095 C2093 1.561 . S
C2096 C2093 1.526 . S
C2096 C2097 1.396 . S
C2096 C2101 1.390 . S
C2097 C2091 1.465 . S
C2097 C2096 1.396 . S
C2097 C2098 1.399 . S
C2098 H2084 0.929 . S
C2098 C2097 1.399 . S
C2098 C2099 1.385 . S
C2099 H2085 0.931 . S
C2099 C2098 1.385 . S
C2099 C2100 1.389 . S
C2100 C2099 1.389 . S
C2100 C2101 1.387 . S
C2101 H2086 0.930 . S
C2101 C2096 1.390 . S
C2101 C2100 1.387 . S
H2102 C2114 0.930 . S
H2103 C2116 0.930 . S
H2104 C2117 0.930 . S
H2105 C2121 0.959 . S
H2106 C2121 0.959 . S
H2107 C2121 0.961 . S
H2108 C2122 0.960 . S
H2109 C2122 0.961 . S
H2110 C2122 0.959 . S
H2111 C2125 0.929 . S
H2112 C2126 0.931 . S
H2113 C2128 0.930 . S
C2114 H2102 0.930 . S
C2114 C2115 1.399 . S
C2114 C2119 1.399 . S
C2115 C2114 1.399 . S
C2115 C2116 1.376 . S
C2116 H2103 0.930 . S
C2116 C2115 1.376 . S
C2116 C2117 1.388 . S
C2117 H2104 0.930 . S
C2117 C2116 1.388 . S
C2117 C2118 1.390 . S
C2118 C2117 1.390 . S
C2118 C2119 1.394 . S
C2118 C2124 1.465 . S
C2119 C2114 1.399 . S
C2119 C2118 1.394 . S
C2119 C2120 1.516 . S
C2120 C2119 1.516 . S
C2120 C2121 1.502 . S
C2120 C2122 1.561 . S
C2120 C2123 1.526 . S
C2121 H2105 0.959 . S
C2121 H2106 0.959 . S
C2121 H2107 0.961 . S
C2121 C2120 1.502 . S
C2122 H2108 0.960 . S
C2122 H2109 0.961 . S
C2122 H2110 0.959 . S
C2122 C2120 1.561 . S
C2123 C2120 1.526 . S
C2123 C2124 1.396 . S
C2123 C2128 1.390 . S
C2124 C2118 1.465 . S
C2124 C2123 1.396 . S
C2124 C2125 1.399 . S
C2125 H2111 0.929 . S
C2125 C2124 1.399 . S
C2125 C2126 1.385 . S
C2126 H2112 0.931 . S
C2126 C2125 1.385 . S
C2126 C2127 1.389 . S
C2127 C2126 1.389 . S
C2127 C2128 1.387 . S
C2128 H2113 0.930 . S
C2128 C2123 1.390 . S
C2128 C2127 1.387 . S
H2129 C2141 0.930 . S
H2130 C2143 0.930 . S
H2131 C2144 0.930 . S
H2132 C2148 0.959 . S
H2133 C2148 0.959 . S
H2134 C2148 0.961 . S
H2135 C2149 0.960 . S
H2136 C2149 0.961 . S
H2137 C2149 0.959 . S
H2138 C2152 0.929 . S
H2139 C2153 0.931 . S
H2140 C2155 0.930 . S
C2141 H2129 0.930 . S
C2141 C2142 1.399 . S
C2141 C2146 1.399 . S
C2142 C2141 1.399 . S
C2142 C2143 1.376 . S
C2143 H2130 0.930 . S
C2143 C2142 1.376 . S
C2143 C2144 1.388 . S
C2144 H2131 0.930 . S
C2144 C2143 1.388 . S
C2144 C2145 1.390 . S
C2145 C2144 1.390 . S
C2145 C2146 1.394 . S
C2145 C2151 1.465 . S
C2146 C2141 1.399 . S
C2146 C2145 1.394 . S
C2146 C2147 1.516 . S
C2147 C2146 1.516 . S
C2147 C2148 1.502 . S
C2147 C2149 1.561 . S
C2147 C2150 1.526 . S
C2148 H2132 0.959 . S
C2148 H2133 0.959 . S
C2148 H2134 0.961 . S
C2148 C2147 1.502 . S
C2149 H2135 0.960 . S
C2149 H2136 0.961 . S
C2149 H2137 0.959 . S
C2149 C2147 1.561 . S
C2150 C2147 1.526 . S
C2150 C2151 1.396 . S
C2150 C2155 1.390 . S
C2151 C2145 1.465 . S
C2151 C2150 1.396 . S
C2151 C2152 1.399 . S
C2152 H2138 0.929 . S
C2152 C2151 1.399 . S
C2152 C2153 1.385 . S
C2153 H2139 0.931 . S
C2153 C2152 1.385 . S
C2153 C2154 1.389 . S
C2154 C2153 1.389 . S
C2154 C2155 1.387 . S
C2155 H2140 0.930 . S
C2155 C2150 1.390 . S
C2155 C2154 1.387 . S
H2156 C2168 0.930 . S
H2157 C2170 0.930 . S
H2158 C2171 0.930 . S
H2159 C2175 0.959 . S
H2160 C2175 0.959 . S
H2161 C2175 0.961 . S
H2162 C2176 0.960 . S
H2163 C2176 0.961 . S
H2164 C2176 0.959 . S
H2165 C2179 0.929 . S
H2166 C2180 0.931 . S
H2167 C2182 0.930 . S
C2168 H2156 0.930 . S
C2168 C2169 1.399 . S
C2168 C2173 1.399 . S
C2169 C2168 1.399 . S
C2169 C2170 1.376 . S
C2170 H2157 0.930 . S
C2170 C2169 1.376 . S
C2170 C2171 1.388 . S
C2171 H2158 0.930 . S
C2171 C2170 1.388 . S
C2171 C2172 1.390 . S
C2172 C2171 1.390 . S
C2172 C2173 1.394 . S
C2172 C2178 1.465 . S
C2173 C2168 1.399 . S
C2173 C2172 1.394 . S
C2173 C2174 1.516 . S
C2174 C2173 1.516 . S
C2174 C2175 1.502 . S
C2174 C2176 1.561 . S
C2174 C2177 1.526 . S
C2175 H2159 0.959 . S
C2175 H2160 0.959 . S
C2175 H2161 0.961 . S
C2175 C2174 1.502 . S
C2176 H2162 0.960 . S
C2176 H2163 0.961 . S
C2176 H2164 0.959 . S
C2176 C2174 1.561 . S
C2177 C2174 1.526 . S
C2177 C2178 1.396 . S
C2177 C2182 1.390 . S
C2178 C2172 1.465 . S
C2178 C2177 1.396 . S
C2178 C2179 1.399 . S
C2179 H2165 0.929 . S
C2179 C2178 1.399 . S
C2179 C2180 1.385 . S
C2180 H2166 0.931 . S
C2180 C2179 1.385 . S
C2180 C2181 1.389 . S
C2181 C2180 1.389 . S
C2181 C2182 1.387 . S
C2182 H2167 0.930 . S
C2182 C2177 1.390 . S
C2182 C2181 1.387 . S
H2183 C2195 0.930 . S
H2184 C2197 0.930 . S
H2185 C2198 0.930 . S
H2186 C2202 0.959 . S
H2187 C2202 0.959 . S
H2188 C2202 0.961 . S
H2189 C2203 0.960 . S
H2190 C2203 0.961 . S
H2191 C2203 0.959 . S
H2192 C2206 0.929 . S
H2193 C2207 0.931 . S
H2194 C2209 0.930 . S
C2195 H2183 0.930 . S
C2195 C2196 1.399 . S
C2195 C2200 1.399 . S
C2196 C2195 1.399 . S
C2196 C2197 1.376 . S
C2197 H2184 0.930 . S
C2197 C2196 1.376 . S
C2197 C2198 1.388 . S
C2198 H2185 0.930 . S
C2198 C2197 1.388 . S
C2198 C2199 1.390 . S
C2199 C2198 1.390 . S
C2199 C2200 1.394 . S
C2199 C2205 1.465 . S
C2200 C2195 1.399 . S
C2200 C2199 1.394 . S
C2200 C2201 1.516 . S
C2201 C2200 1.516 . S
C2201 C2202 1.502 . S
C2201 C2203 1.561 . S
C2201 C2204 1.526 . S
C2202 H2186 0.959 . S
C2202 H2187 0.959 . S
C2202 H2188 0.961 . S
C2202 C2201 1.502 . S
C2203 H2189 0.960 . S
C2203 H2190 0.961 . S
C2203 H2191 0.959 . S
C2203 C2201 1.561 . S
C2204 C2201 1.526 . S
C2204 C2205 1.396 . S
C2204 C2209 1.390 . S
C2205 C2199 1.465 . S
C2205 C2204 1.396 . S
C2205 C2206 1.399 . S
C2206 H2192 0.929 . S
C2206 C2205 1.399 . S
C2206 C2207 1.385 . S
C2207 H2193 0.931 . S
C2207 C2206 1.385 . S
C2207 C2208 1.389 . S
C2208 C2207 1.389 . S
C2208 C2209 1.387 . S
C2209 H2194 0.930 . S
C2209 C2204 1.390 . S
C2209 C2208 1.387 . S
H2210 C2222 0.930 . S
H2211 C2224 0.930 . S
H2212 C2225 0.930 . S
H2213 C2229 0.959 . S
H2214 C2229 0.959 . S
H2215 C2229 0.961 . S
H2216 C2230 0.960 . S
H2217 C2230 0.961 . S
H2218 C2230 0.959 . S
H2219 C2233 0.929 . S
H2220 C2234 0.931 . S
H2221 C2236 0.930 . S
C2222 H2210 0.930 . S
C2222 C2223 1.399 . S
C2222 C2227 1.399 . S
C2223 C2222 1.399 . S
C2223 C2224 1.376 . S
C2224 H2211 0.930 . S
C2224 C2223 1.376 . S
C2224 C2225 1.388 . S
C2225 H2212 0.930 . S
C2225 C2224 1.388 . S
C2225 C2226 1.390 . S
C2226 C2225 1.390 . S
C2226 C2227 1.394 . S
C2226 C2232 1.465 . S
C2227 C2222 1.399 . S
C2227 C2226 1.394 . S
C2227 C2228 1.516 . S
C2228 C2227 1.516 . S
C2228 C2229 1.502 . S
C2228 C2230 1.561 . S
C2228 C2231 1.526 . S
C2229 H2213 0.959 . S
C2229 H2214 0.959 . S
C2229 H2215 0.961 . S
C2229 C2228 1.502 . S
C2230 H2216 0.960 . S
C2230 H2217 0.961 . S
C2230 H2218 0.959 . S
C2230 C2228 1.561 . S
C2231 C2228 1.526 . S
C2231 C2232 1.396 . S
C2231 C2236 1.390 . S
C2232 C2226 1.465 . S
C2232 C2231 1.396 . S
C2232 C2233 1.399 . S
C2233 H2219 0.929 . S
C2233 C2232 1.399 . S
C2233 C2234 1.385 . S
C2234 H2220 0.931 . S
C2234 C2233 1.385 . S
C2234 C2235 1.389 . S
C2235 C2234 1.389 . S
C2235 C2236 1.387 . S
C2236 H2221 0.930 . S
C2236 C2231 1.390 . S
C2236 C2235 1.387 . S
H2237 C2249 0.930 . S
H2238 C2251 0.930 . S
H2239 C2252 0.930 . S
H2240 C2256 0.959 . S
H2241 C2256 0.959 . S
H2242 C2256 0.961 . S
H2243 C2257 0.960 . S
H2244 C2257 0.961 . S
H2245 C2257 0.959 . S
H2246 C2260 0.929 . S
H2247 C2261 0.931 . S
H2248 C2263 0.930 . S
C2249 H2237 0.930 . S
C2249 C2250 1.399 . S
C2249 C2254 1.399 . S
C2250 C2249 1.399 . S
C2250 C2251 1.376 . S
C2251 H2238 0.930 . S
C2251 C2250 1.376 . S
C2251 C2252 1.388 . S
C2252 H2239 0.930 . S
C2252 C2251 1.388 . S
C2252 C2253 1.390 . S
C2253 C2252 1.390 . S
C2253 C2254 1.394 . S
C2253 C2259 1.465 . S
C2254 C2249 1.399 . S
C2254 C2253 1.394 . S
C2254 C2255 1.516 . S
C2255 C2254 1.516 . S
C2255 C2256 1.502 . S
C2255 C2257 1.561 . S
C2255 C2258 1.526 . S
C2256 H2240 0.959 . S
C2256 H2241 0.959 . S
C2256 H2242 0.961 . S
C2256 C2255 1.502 . S
C2257 H2243 0.960 . S
C2257 H2244 0.961 . S
C2257 H2245 0.959 . S
C2257 C2255 1.561 . S
C2258 C2255 1.526 . S
C2258 C2259 1.396 . S
C2258 C2263 1.390 . S
C2259 C2253 1.465 . S
C2259 C2258 1.396 . S
C2259 C2260 1.399 . S
C2260 H2246 0.929 . S
C2260 C2259 1.399 . S
C2260 C2261 1.385 . S
C2261 H2247 0.931 . S
C2261 C2260 1.385 . S
C2261 C2262 1.389 . S
C2262 C2261 1.389 . S
C2262 C2263 1.387 . S
C2263 H2248 0.930 . S
C2263 C2258 1.390 . S
C2263 C2262 1.387 . S
H2264 C2276 0.930 . S
H2265 C2278 0.930 . S
H2266 C2279 0.930 . S
H2267 C2283 0.959 . S
H2268 C2283 0.959 . S
H2269 C2283 0.961 . S
H2270 C2284 0.960 . S
H2271 C2284 0.961 . S
H2272 C2284 0.959 . S
H2273 C2287 0.929 . S
H2274 C2288 0.931 . S
H2275 C2290 0.930 . S
C2276 H2264 0.930 . S
C2276 C2277 1.399 . S
C2276 C2281 1.399 . S
C2277 C2276 1.399 . S
C2277 C2278 1.376 . S
C2278 H2265 0.930 . S
C2278 C2277 1.376 . S
C2278 C2279 1.388 . S
C2279 H2266 0.930 . S
C2279 C2278 1.388 . S
C2279 C2280 1.390 . S
C2280 C2279 1.390 . S
C2280 C2281 1.394 . S
C2280 C2286 1.465 . S
C2281 C2276 1.399 . S
C2281 C2280 1.394 . S
C2281 C2282 1.516 . S
C2282 C2281 1.516 . S
C2282 C2283 1.502 . S
C2282 C2284 1.561 . S
C2282 C2285 1.526 . S
C2283 H2267 0.959 . S
C2283 H2268 0.959 . S
C2283 H2269 0.961 . S
C2283 C2282 1.502 . S
C2284 H2270 0.960 . S
C2284 H2271 0.961 . S
C2284 H2272 0.959 . S
C2284 C2282 1.561 . S
C2285 C2282 1.526 . S
C2285 C2286 1.396 . S
C2285 C2290 1.390 . S
C2286 C2280 1.465 . S
C2286 C2285 1.396 . S
C2286 C2287 1.399 . S
C2287 H2273 0.929 . S
C2287 C2286 1.399 . S
C2287 C2288 1.385 . S
C2288 H2274 0.931 . S
C2288 C2287 1.385 . S
C2288 C2289 1.389 . S
C2289 C2288 1.389 . S
C2289 C2290 1.387 . S
C2290 H2275 0.930 . S
C2290 C2285 1.390 . S
C2290 C2289 1.387 . S
H2291 C2303 0.930 . S
H2292 C2305 0.930 . S
H2293 C2306 0.930 . S
H2294 C2310 0.959 . S
H2295 C2310 0.959 . S
H2296 C2310 0.961 . S
H2297 C2311 0.960 . S
H2298 C2311 0.961 . S
H2299 C2311 0.959 . S
H2300 C2314 0.929 . S
H2301 C2315 0.931 . S
H2302 C2317 0.930 . S
C2303 H2291 0.930 . S
C2303 C2304 1.399 . S
C2303 C2308 1.399 . S
C2304 C2303 1.399 . S
C2304 C2305 1.376 . S
C2305 H2292 0.930 . S
C2305 C2304 1.376 . S
C2305 C2306 1.388 . S
C2306 H2293 0.930 . S
C2306 C2305 1.388 . S
C2306 C2307 1.390 . S
C2307 C2306 1.390 . S
C2307 C2308 1.394 . S
C2307 C2313 1.465 . S
C2308 C2303 1.399 . S
C2308 C2307 1.394 . S
C2308 C2309 1.516 . S
C2309 C2308 1.516 . S
C2309 C2310 1.502 . S
C2309 C2311 1.561 . S
C2309 C2312 1.526 . S
C2310 H2294 0.959 . S
C2310 H2295 0.959 . S
C2310 H2296 0.961 . S
C2310 C2309 1.502 . S
C2311 H2297 0.960 . S
C2311 H2298 0.961 . S
C2311 H2299 0.959 . S
C2311 C2309 1.561 . S
C2312 C2309 1.526 . S
C2312 C2313 1.396 . S
C2312 C2317 1.390 . S
C2313 C2307 1.465 . S
C2313 C2312 1.396 . S
C2313 C2314 1.399 . S
C2314 H2300 0.929 . S
C2314 C2313 1.399 . S
C2314 C2315 1.385 . S
C2315 H2301 0.931 . S
C2315 C2314 1.385 . S
C2315 C2316 1.389 . S
C2316 C2315 1.389 . S
C2316 C2317 1.387 . S
C2317 H2302 0.930 . S
C2317 C2312 1.390 . S
C2317 C2316 1.387 . S
H2318 C2330 0.930 . S
H2319 C2332 0.930 . S
H2320 C2333 0.930 . S
H2321 C2337 0.959 . S
H2322 C2337 0.959 . S
H2323 C2337 0.961 . S
H2324 C2338 0.960 . S
H2325 C2338 0.961 . S
H2326 C2338 0.959 . S
H2327 C2341 0.929 . S
H2328 C2342 0.931 . S
H2329 C2344 0.930 . S
C2330 H2318 0.930 . S
C2330 C2331 1.399 . S
C2330 C2335 1.399 . S
C2331 C2330 1.399 . S
C2331 C2332 1.376 . S
C2332 H2319 0.930 . S
C2332 C2331 1.376 . S
C2332 C2333 1.388 . S
C2333 H2320 0.930 . S
C2333 C2332 1.388 . S
C2333 C2334 1.390 . S
C2334 C2333 1.390 . S
C2334 C2335 1.394 . S
C2334 C2340 1.465 . S
C2335 C2330 1.399 . S
C2335 C2334 1.394 . S
C2335 C2336 1.516 . S
C2336 C2335 1.516 . S
C2336 C2337 1.502 . S
C2336 C2338 1.561 . S
C2336 C2339 1.526 . S
C2337 H2321 0.959 . S
C2337 H2322 0.959 . S
C2337 H2323 0.961 . S
C2337 C2336 1.502 . S
C2338 H2324 0.960 . S
C2338 H2325 0.961 . S
C2338 H2326 0.959 . S
C2338 C2336 1.561 . S
C2339 C2336 1.526 . S
C2339 C2340 1.396 . S
C2339 C2344 1.390 . S
C2340 C2334 1.465 . S
C2340 C2339 1.396 . S
C2340 C2341 1.399 . S
C2341 H2327 0.929 . S
C2341 C2340 1.399 . S
C2341 C2342 1.385 . S
C2342 H2328 0.931 . S
C2342 C2341 1.385 . S
C2342 C2343 1.389 . S
C2343 C2342 1.389 . S
C2343 C2344 1.387 . S
C2344 H2329 0.930 . S
C2344 C2339 1.390 . S
C2344 C2343 1.387 . S
H2345 C2357 0.930 . S
H2346 C2359 0.930 . S
H2347 C2360 0.930 . S
H2348 C2364 0.959 . S
H2349 C2364 0.959 . S
H2350 C2364 0.961 . S
H2351 C2365 0.960 . S
H2352 C2365 0.961 . S
H2353 C2365 0.959 . S
H2354 C2368 0.929 . S
H2355 C2369 0.931 . S
H2356 C2371 0.930 . S
C2357 H2345 0.930 . S
C2357 C2358 1.399 . S
C2357 C2362 1.399 . S
C2358 C2357 1.399 . S
C2358 C2359 1.376 . S
C2359 H2346 0.930 . S
C2359 C2358 1.376 . S
C2359 C2360 1.388 . S
C2360 H2347 0.930 . S
C2360 C2359 1.388 . S
C2360 C2361 1.390 . S
C2361 C2360 1.390 . S
C2361 C2362 1.394 . S
C2361 C2367 1.465 . S
C2362 C2357 1.399 . S
C2362 C2361 1.394 . S
C2362 C2363 1.516 . S
C2363 C2362 1.516 . S
C2363 C2364 1.502 . S
C2363 C2365 1.561 . S
C2363 C2366 1.526 . S
C2364 H2348 0.959 . S
C2364 H2349 0.959 . S
C2364 H2350 0.961 . S
C2364 C2363 1.502 . S
C2365 H2351 0.960 . S
C2365 H2352 0.961 . S
C2365 H2353 0.959 . S
C2365 C2363 1.561 . S
C2366 C2363 1.526 . S
C2366 C2367 1.396 . S
C2366 C2371 1.390 . S
C2367 C2361 1.465 . S
C2367 C2366 1.396 . S
C2367 C2368 1.399 . S
C2368 H2354 0.929 . S
C2368 C2367 1.399 . S
C2368 C2369 1.385 . S
C2369 H2355 0.931 . S
C2369 C2368 1.385 . S
C2369 C2370 1.389 . S
C2370 C2369 1.389 . S
C2370 C2371 1.387 . S
C2371 H2356 0.930 . S
C2371 C2366 1.390 . S
C2371 C2370 1.387 . S
H2372 C2384 0.930 . S
H2373 C2386 0.930 . S
H2374 C2387 0.930 . S
H2375 C2391 0.959 . S
H2376 C2391 0.959 . S
H2377 C2391 0.961 . S
H2378 C2392 0.960 . S
H2379 C2392 0.961 . S
H2380 C2392 0.959 . S
H2381 C2395 0.929 . S
H2382 C2396 0.931 . S
H2383 C2398 0.930 . S
C2384 H2372 0.930 . S
C2384 C2385 1.399 . S
C2384 C2389 1.399 . S
C2385 C2384 1.399 . S
C2385 C2386 1.376 . S
C2386 H2373 0.930 . S
C2386 C2385 1.376 . S
C2386 C2387 1.388 . S
C2387 H2374 0.930 . S
C2387 C2386 1.388 . S
C2387 C2388 1.390 . S
C2388 C2387 1.390 . S
C2388 C2389 1.394 . S
C2388 C2394 1.465 . S
C2389 C2384 1.399 . S
C2389 C2388 1.394 . S
C2389 C2390 1.516 . S
C2390 C2389 1.516 . S
C2390 C2391 1.502 . S
C2390 C2392 1.561 . S
C2390 C2393 1.526 . S
C2391 H2375 0.959 . S
C2391 H2376 0.959 . S
C2391 H2377 0.961 . S
C2391 C2390 1.502 . S
C2392 H2378 0.960 . S
C2392 H2379 0.961 . S
C2392 H2380 0.959 . S
C2392 C2390 1.561 . S
C2393 C2390 1.526 . S
C2393 C2394 1.396 . S
C2393 C2398 1.390 . S
C2394 C2388 1.465 . S
C2394 C2393 1.396 . S
C2394 C2395 1.399 . S
C2395 H2381 0.929 . S
C2395 C2394 1.399 . S
C2395 C2396 1.385 . S
C2396 H2382 0.931 . S
C2396 C2395 1.385 . S
C2396 C2397 1.389 . S
C2397 C2396 1.389 . S
C2397 C2398 1.387 . S
C2398 H2383 0.930 . S
C2398 C2393 1.390 . S
C2398 C2397 1.387 . S
H2399 C2411 0.930 . S
H2400 C2413 0.930 . S
H2401 C2414 0.930 . S
H2402 C2418 0.959 . S
H2403 C2418 0.959 . S
H2404 C2418 0.961 . S
H2405 C2419 0.960 . S
H2406 C2419 0.961 . S
H2407 C2419 0.959 . S
H2408 C2422 0.929 . S
H2409 C2423 0.931 . S
H2410 C2425 0.930 . S
C2411 H2399 0.930 . S
C2411 C2412 1.399 . S
C2411 C2416 1.399 . S
C2412 C2411 1.399 . S
C2412 C2413 1.376 . S
C2413 H2400 0.930 . S
C2413 C2412 1.376 . S
C2413 C2414 1.388 . S
C2414 H2401 0.930 . S
C2414 C2413 1.388 . S
C2414 C2415 1.390 . S
C2415 C2414 1.390 . S
C2415 C2416 1.394 . S
C2415 C2421 1.465 . S
C2416 C2411 1.399 . S
C2416 C2415 1.394 . S
C2416 C2417 1.516 . S
C2417 C2416 1.516 . S
C2417 C2418 1.502 . S
C2417 C2419 1.561 . S
C2417 C2420 1.526 . S
C2418 H2402 0.959 . S
C2418 H2403 0.959 . S
C2418 H2404 0.961 . S
C2418 C2417 1.502 . S
C2419 H2405 0.960 . S
C2419 H2406 0.961 . S
C2419 H2407 0.959 . S
C2419 C2417 1.561 . S
C2420 C2417 1.526 . S
C2420 C2421 1.396 . S
C2420 C2425 1.390 . S
C2421 C2415 1.465 . S
C2421 C2420 1.396 . S
C2421 C2422 1.399 . S
C2422 H2408 0.929 . S
C2422 C2421 1.399 . S
C2422 C2423 1.385 . S
C2423 H2409 0.931 . S
C2423 C2422 1.385 . S
C2423 C2424 1.389 . S
C2424 C2423 1.389 . S
C2424 C2425 1.387 . S
C2425 H2410 0.930 . S
C2425 C2420 1.390 . S
C2425 C2424 1.387 . S
H2426 C2438 0.930 . S
H2427 C2440 0.930 . S
H2428 C2441 0.930 . S
H2429 C2445 0.959 . S
H2430 C2445 0.959 . S
H2431 C2445 0.961 . S
H2432 C2446 0.960 . S
H2433 C2446 0.961 . S
H2434 C2446 0.959 . S
H2435 C2449 0.929 . S
H2436 C2450 0.931 . S
H2437 C2452 0.930 . S
C2438 H2426 0.930 . S
C2438 C2439 1.399 . S
C2438 C2443 1.399 . S
C2439 C2438 1.399 . S
C2439 C2440 1.376 . S
C2440 H2427 0.930 . S
C2440 C2439 1.376 . S
C2440 C2441 1.388 . S
C2441 H2428 0.930 . S
C2441 C2440 1.388 . S
C2441 C2442 1.390 . S
C2442 C2441 1.390 . S
C2442 C2443 1.394 . S
C2442 C2448 1.465 . S
C2443 C2438 1.399 . S
C2443 C2442 1.394 . S
C2443 C2444 1.516 . S
C2444 C2443 1.516 . S
C2444 C2445 1.502 . S
C2444 C2446 1.561 . S
C2444 C2447 1.526 . S
C2445 H2429 0.959 . S
C2445 H2430 0.959 . S
C2445 H2431 0.961 . S
C2445 C2444 1.502 . S
C2446 H2432 0.960 . S
C2446 H2433 0.961 . S
C2446 H2434 0.959 . S
C2446 C2444 1.561 . S
C2447 C2444 1.526 . S
C2447 C2448 1.396 . S
C2447 C2452 1.390 . S
C2448 C2442 1.465 . S
C2448 C2447 1.396 . S
C2448 C2449 1.399 . S
C2449 H2435 0.929 . S
C2449 C2448 1.399 . S
C2449 C2450 1.385 . S
C2450 H2436 0.931 . S
C2450 C2449 1.385 . S
C2450 C2451 1.389 . S
C2451 C2450 1.389 . S
C2451 C2452 1.387 . S
C2452 H2437 0.930 . S
C2452 C2447 1.390 . S
C2452 C2451 1.387 . S
H2453 C2465 0.930 . S
H2454 C2467 0.930 . S
H2455 C2468 0.930 . S
H2456 C2472 0.959 . S
H2457 C2472 0.959 . S
H2458 C2472 0.961 . S
H2459 C2473 0.960 . S
H2460 C2473 0.961 . S
H2461 C2473 0.959 . S
H2462 C2476 0.929 . S
H2463 C2477 0.931 . S
H2464 C2479 0.930 . S
C2465 H2453 0.930 . S
C2465 C2466 1.399 . S
C2465 C2470 1.399 . S
C2466 C2465 1.399 . S
C2466 C2467 1.376 . S
C2467 H2454 0.930 . S
C2467 C2466 1.376 . S
C2467 C2468 1.388 . S
C2468 H2455 0.930 . S
C2468 C2467 1.388 . S
C2468 C2469 1.390 . S
C2469 C2468 1.390 . S
C2469 C2470 1.394 . S
C2469 C2475 1.465 . S
C2470 C2465 1.399 . S
C2470 C2469 1.394 . S
C2470 C2471 1.516 . S
C2471 C2470 1.516 . S
C2471 C2472 1.502 . S
C2471 C2473 1.561 . S
C2471 C2474 1.526 . S
C2472 H2456 0.959 . S
C2472 H2457 0.959 . S
C2472 H2458 0.961 . S
C2472 C2471 1.502 . S
C2473 H2459 0.960 . S
C2473 H2460 0.961 . S
C2473 H2461 0.959 . S
C2473 C2471 1.561 . S
C2474 C2471 1.526 . S
C2474 C2475 1.396 . S
C2474 C2479 1.390 . S
C2475 C2469 1.465 . S
C2475 C2474 1.396 . S
C2475 C2476 1.399 . S
C2476 H2462 0.929 . S
C2476 C2475 1.399 . S
C2476 C2477 1.385 . S
C2477 H2463 0.931 . S
C2477 C2476 1.385 . S
C2477 C2478 1.389 . S
C2478 C2477 1.389 . S
C2478 C2479 1.387 . S
C2479 H2464 0.930 . S
C2479 C2474 1.390 . S
C2479 C2478 1.387 . S
H2480 C2492 0.930 . S
H2481 C2494 0.930 . S
H2482 C2495 0.930 . S
H2483 C2499 0.959 . S
H2484 C2499 0.959 . S
H2485 C2499 0.961 . S
H2486 C2500 0.960 . S
H2487 C2500 0.961 . S
H2488 C2500 0.959 . S
H2489 C2503 0.929 . S
H2490 C2504 0.931 . S
H2491 C2506 0.930 . S
C2492 H2480 0.930 . S
C2492 C2493 1.399 . S
C2492 C2497 1.399 . S
C2493 C2492 1.399 . S
C2493 C2494 1.376 . S
C2494 H2481 0.930 . S
C2494 C2493 1.376 . S
C2494 C2495 1.388 . S
C2495 H2482 0.930 . S
C2495 C2494 1.388 . S
C2495 C2496 1.390 . S
C2496 C2495 1.390 . S
C2496 C2497 1.394 . S
C2496 C2502 1.465 . S
C2497 C2492 1.399 . S
C2497 C2496 1.394 . S
C2497 C2498 1.516 . S
C2498 C2497 1.516 . S
C2498 C2499 1.502 . S
C2498 C2500 1.561 . S
C2498 C2501 1.526 . S
C2499 H2483 0.959 . S
C2499 H2484 0.959 . S
C2499 H2485 0.961 . S
C2499 C2498 1.502 . S
C2500 H2486 0.960 . S
C2500 H2487 0.961 . S
C2500 H2488 0.959 . S
C2500 C2498 1.561 . S
C2501 C2498 1.526 . S
C2501 C2502 1.396 . S
C2501 C2506 1.390 . S
C2502 C2496 1.465 . S
C2502 C2501 1.396 . S
C2502 C2503 1.399 . S
C2503 H2489 0.929 . S
C2503 C2502 1.399 . S
C2503 C2504 1.385 . S
C2504 H2490 0.931 . S
C2504 C2503 1.385 . S
C2504 C2505 1.389 . S
C2505 C2504 1.389 . S
C2505 C2506 1.387 . S
C2506 H2491 0.930 . S
C2506 C2501 1.390 . S
C2506 C2505 1.387 . S
H2507 C2519 0.930 . S
H2508 C2521 0.930 . S
H2509 C2522 0.930 . S
H2510 C2526 0.959 . S
H2511 C2526 0.959 . S
H2512 C2526 0.961 . S
H2513 C2527 0.960 . S
H2514 C2527 0.961 . S
H2515 C2527 0.959 . S
H2516 C2530 0.929 . S
H2517 C2531 0.931 . S
H2518 C2533 0.930 . S
C2519 H2507 0.930 . S
C2519 C2520 1.399 . S
C2519 C2524 1.399 . S
C2520 C2519 1.399 . S
C2520 C2521 1.376 . S
C2521 H2508 0.930 . S
C2521 C2520 1.376 . S
C2521 C2522 1.388 . S
C2522 H2509 0.930 . S
C2522 C2521 1.388 . S
C2522 C2523 1.390 . S
C2523 C2522 1.390 . S
C2523 C2524 1.394 . S
C2523 C2529 1.465 . S
C2524 C2519 1.399 . S
C2524 C2523 1.394 . S
C2524 C2525 1.516 . S
C2525 C2524 1.516 . S
C2525 C2526 1.502 . S
C2525 C2527 1.561 . S
C2525 C2528 1.526 . S
C2526 H2510 0.959 . S
C2526 H2511 0.959 . S
C2526 H2512 0.961 . S
C2526 C2525 1.502 . S
C2527 H2513 0.960 . S
C2527 H2514 0.961 . S
C2527 H2515 0.959 . S
C2527 C2525 1.561 . S
C2528 C2525 1.526 . S
C2528 C2529 1.396 . S
C2528 C2533 1.390 . S
C2529 C2523 1.465 . S
C2529 C2528 1.396 . S
C2529 C2530 1.399 . S
C2530 H2516 0.929 . S
C2530 C2529 1.399 . S
C2530 C2531 1.385 . S
C2531 H2517 0.931 . S
C2531 C2530 1.385 . S
C2531 C2532 1.389 . S
C2532 C2531 1.389 . S
C2532 C2533 1.387 . S
C2533 H2518 0.930 . S
C2533 C2528 1.390 . S
C2533 C2532 1.387 . S
H2534 C2546 0.930 . S
H2535 C2548 0.930 . S
H2536 C2549 0.930 . S
H2537 C2553 0.959 . S
H2538 C2553 0.959 . S
H2539 C2553 0.961 . S
H2540 C2554 0.960 . S
H2541 C2554 0.961 . S
H2542 C2554 0.959 . S
H2543 C2557 0.929 . S
H2544 C2558 0.931 . S
H2545 C2560 0.930 . S
C2546 H2534 0.930 . S
C2546 C2547 1.399 . S
C2546 C2551 1.399 . S
C2547 C2546 1.399 . S
C2547 C2548 1.376 . S
C2548 H2535 0.930 . S
C2548 C2547 1.376 . S
C2548 C2549 1.388 . S
C2549 H2536 0.930 . S
C2549 C2548 1.388 . S
C2549 C2550 1.390 . S
C2550 C2549 1.390 . S
C2550 C2551 1.394 . S
C2550 C2556 1.465 . S
C2551 C2546 1.399 . S
C2551 C2550 1.394 . S
C2551 C2552 1.516 . S
C2552 C2551 1.516 . S
C2552 C2553 1.502 . S
C2552 C2554 1.561 . S
C2552 C2555 1.526 . S
C2553 H2537 0.959 . S
C2553 H2538 0.959 . S
C2553 H2539 0.961 . S
C2553 C2552 1.502 . S
C2554 H2540 0.960 . S
C2554 H2541 0.961 . S
C2554 H2542 0.959 . S
C2554 C2552 1.561 . S
C2555 C2552 1.526 . S
C2555 C2556 1.396 . S
C2555 C2560 1.390 . S
C2556 C2550 1.465 . S
C2556 C2555 1.396 . S
C2556 C2557 1.399 . S
C2557 H2543 0.929 . S
C2557 C2556 1.399 . S
C2557 C2558 1.385 . S
C2558 H2544 0.931 . S
C2558 C2557 1.385 . S
C2558 C2559 1.389 . S
C2559 C2558 1.389 . S
C2559 C2560 1.387 . S
C2560 H2545 0.930 . S
C2560 C2555 1.390 . S
C2560 C2559 1.387 . S
H2561 C2573 0.930 . S
H2562 C2575 0.930 . S
H2563 C2576 0.930 . S
H2564 C2580 0.959 . S
H2565 C2580 0.959 . S
H2566 C2580 0.961 . S
H2567 C2581 0.960 . S
H2568 C2581 0.961 . S
H2569 C2581 0.959 . S
H2570 C2584 0.929 . S
H2571 C2585 0.931 . S
H2572 C2587 0.930 . S
C2573 H2561 0.930 . S
C2573 C2574 1.399 . S
C2573 C2578 1.399 . S
C2574 C2573 1.399 . S
C2574 C2575 1.376 . S
C2575 H2562 0.930 . S
C2575 C2574 1.376 . S
C2575 C2576 1.388 . S
C2576 H2563 0.930 . S
C2576 C2575 1.388 . S
C2576 C2577 1.390 . S
C2577 C2576 1.390 . S
C2577 C2578 1.394 . S
C2577 C2583 1.465 . S
C2578 C2573 1.399 . S
C2578 C2577 1.394 . S
C2578 C2579 1.516 . S
C2579 C2578 1.516 . S
C2579 C2580 1.502 . S
C2579 C2581 1.561 . S
C2579 C2582 1.526 . S
C2580 H2564 0.959 . S
C2580 H2565 0.959 . S
C2580 H2566 0.961 . S
C2580 C2579 1.502 . S
C2581 H2567 0.960 . S
C2581 H2568 0.961 . S
C2581 H2569 0.959 . S
C2581 C2579 1.561 . S
C2582 C2579 1.526 . S
C2582 C2583 1.396 . S
C2582 C2587 1.390 . S
C2583 C2577 1.465 . S
C2583 C2582 1.396 . S
C2583 C2584 1.399 . S
C2584 H2570 0.929 . S
C2584 C2583 1.399 . S
C2584 C2585 1.385 . S
C2585 H2571 0.931 . S
C2585 C2584 1.385 . S
C2585 C2586 1.389 . S
C2586 C2585 1.389 . S
C2586 C2587 1.387 . S
C2587 H2572 0.930 . S
C2587 C2582 1.390 . S
C2587 C2586 1.387 . S
H2588 C2600 0.930 . S
H2589 C2602 0.930 . S
H2590 C2603 0.930 . S
H2591 C2607 0.959 . S
H2592 C2607 0.959 . S
H2593 C2607 0.961 . S
H2594 C2608 0.960 . S
H2595 C2608 0.961 . S
H2596 C2608 0.959 . S
H2597 C2611 0.929 . S
H2598 C2612 0.931 . S
H2599 C2614 0.930 . S
C2600 H2588 0.930 . S
C2600 C2601 1.399 . S
C2600 C2605 1.399 . S
C2601 C2600 1.399 . S
C2601 C2602 1.376 . S
C2602 H2589 0.930 . S
C2602 C2601 1.376 . S
C2602 C2603 1.388 . S
C2603 H2590 0.930 . S
C2603 C2602 1.388 . S
C2603 C2604 1.390 . S
C2604 C2603 1.390 . S
C2604 C2605 1.394 . S
C2604 C2610 1.465 . S
C2605 C2600 1.399 . S
C2605 C2604 1.394 . S
C2605 C2606 1.516 . S
C2606 C2605 1.516 . S
C2606 C2607 1.502 . S
C2606 C2608 1.561 . S
C2606 C2609 1.526 . S
C2607 H2591 0.959 . S
C2607 H2592 0.959 . S
C2607 H2593 0.961 . S
C2607 C2606 1.502 . S
C2608 H2594 0.960 . S
C2608 H2595 0.961 . S
C2608 H2596 0.959 . S
C2608 C2606 1.561 . S
C2609 C2606 1.526 . S
C2609 C2610 1.396 . S
C2609 C2614 1.390 . S
C2610 C2604 1.465 . S
C2610 C2609 1.396 . S
C2610 C2611 1.399 . S
C2611 H2597 0.929 . S
C2611 C2610 1.399 . S
C2611 C2612 1.385 . S
C2612 H2598 0.931 . S
C2612 C2611 1.385 . S
C2612 C2613 1.389 . S
C2613 C2612 1.389 . S
C2613 C2614 1.387 . S
C2614 H2599 0.930 . S
C2614 C2609 1.390 . S
C2614 C2613 1.387 . S
H2615 C2627 0.930 . S
H2616 C2629 0.930 . S
H2617 C2630 0.930 . S
H2618 C2634 0.959 . S
H2619 C2634 0.959 . S
H2620 C2634 0.961 . S
H2621 C2635 0.960 . S
H2622 C2635 0.961 . S
H2623 C2635 0.959 . S
H2624 C2638 0.929 . S
H2625 C2639 0.931 . S
H2626 C2641 0.930 . S
C2627 H2615 0.930 . S
C2627 C2628 1.399 . S
C2627 C2632 1.399 . S
C2628 C2627 1.399 . S
C2628 C2629 1.376 . S
C2629 H2616 0.930 . S
C2629 C2628 1.376 . S
C2629 C2630 1.388 . S
C2630 H2617 0.930 . S
C2630 C2629 1.388 . S
C2630 C2631 1.390 . S
C2631 C2630 1.390 . S
C2631 C2632 1.394 . S
C2631 C2637 1.465 . S
C2632 C2627 1.399 . S
C2632 C2631 1.394 . S
C2632 C2633 1.516 . S
C2633 C2632 1.516 . S
C2633 C2634 1.502 . S
C2633 C2635 1.561 . S
C2633 C2636 1.526 . S
C2634 H2618 0.959 . S
C2634 H2619 0.959 . S
C2634 H2620 0.961 . S
C2634 C2633 1.502 . S
C2635 H2621 0.960 . S
C2635 H2622 0.961 . S
C2635 H2623 0.959 . S
C2635 C2633 1.561 . S
C2636 C2633 1.526 . S
C2636 C2637 1.396 . S
C2636 C2641 1.390 . S
C2637 C2631 1.465 . S
C2637 C2636 1.396 . S
C2637 C2638 1.399 . S
C2638 H2624 0.929 . S
C2638 C2637 1.399 . S
C2638 C2639 1.385 . S
C2639 H2625 0.931 . S
C2639 C2638 1.385 . S
C2639 C2640 1.389 . S
C2640 C2639 1.389 . S
C2640 C2641 1.387 . S
C2641 H2626 0.930 . S
C2641 C2636 1.390 . S
C2641 C2640 1.387 . S
H2642 C2654 0.930 . S
H2643 C2656 0.930 . S
H2644 C2657 0.930 . S
H2645 C2661 0.959 . S
H2646 C2661 0.959 . S
H2647 C2661 0.961 . S
H2648 C2662 0.960 . S
H2649 C2662 0.961 . S
H2650 C2662 0.959 . S
H2651 C2665 0.929 . S
H2652 C2666 0.931 . S
H2653 C2668 0.930 . S
C2654 H2642 0.930 . S
C2654 C2655 1.399 . S
C2654 C2659 1.399 . S
C2655 C2654 1.399 . S
C2655 C2656 1.376 . S
C2656 H2643 0.930 . S
C2656 C2655 1.376 . S
C2656 C2657 1.388 . S
C2657 H2644 0.930 . S
C2657 C2656 1.388 . S
C2657 C2658 1.390 . S
C2658 C2657 1.390 . S
C2658 C2659 1.394 . S
C2658 C2664 1.465 . S
C2659 C2654 1.399 . S
C2659 C2658 1.394 . S
C2659 C2660 1.516 . S
C2660 C2659 1.516 . S
C2660 C2661 1.502 . S
C2660 C2662 1.561 . S
C2660 C2663 1.526 . S
C2661 H2645 0.959 . S
C2661 H2646 0.959 . S
C2661 H2647 0.961 . S
C2661 C2660 1.502 . S
C2662 H2648 0.960 . S
C2662 H2649 0.961 . S
C2662 H2650 0.959 . S
C2662 C2660 1.561 . S
C2663 C2660 1.526 . S
C2663 C2664 1.396 . S
C2663 C2668 1.390 . S
C2664 C2658 1.465 . S
C2664 C2663 1.396 . S
C2664 C2665 1.399 . S
C2665 H2651 0.929 . S
C2665 C2664 1.399 . S
C2665 C2666 1.385 . S
C2666 H2652 0.931 . S
C2666 C2665 1.385 . S
C2666 C2667 1.389 . S
C2667 C2666 1.389 . S
C2667 C2668 1.387 . S
C2668 H2653 0.930 . S
C2668 C2663 1.390 . S
C2668 C2667 1.387 . S
H2669 C2681 0.930 . S
H2670 C2683 0.930 . S
H2671 C2684 0.930 . S
H2672 C2688 0.959 . S
H2673 C2688 0.959 . S
H2674 C2688 0.961 . S
H2675 C2689 0.960 . S
H2676 C2689 0.961 . S
H2677 C2689 0.959 . S
H2678 C2692 0.929 . S
H2679 C2693 0.931 . S
H2680 C2695 0.930 . S
C2681 H2669 0.930 . S
C2681 C2682 1.399 . S
C2681 C2686 1.399 . S
C2682 C2681 1.399 . S
C2682 C2683 1.376 . S
C2683 H2670 0.930 . S
C2683 C2682 1.376 . S
C2683 C2684 1.388 . S
C2684 H2671 0.930 . S
C2684 C2683 1.388 . S
C2684 C2685 1.390 . S
C2685 C2684 1.390 . S
C2685 C2686 1.394 . S
C2685 C2691 1.465 . S
C2686 C2681 1.399 . S
C2686 C2685 1.394 . S
C2686 C2687 1.516 . S
C2687 C2686 1.516 . S
C2687 C2688 1.502 . S
C2687 C2689 1.561 . S
C2687 C2690 1.526 . S
C2688 H2672 0.959 . S
C2688 H2673 0.959 . S
C2688 H2674 0.961 . S
C2688 C2687 1.502 . S
C2689 H2675 0.960 . S
C2689 H2676 0.961 . S
C2689 H2677 0.959 . S
C2689 C2687 1.561 . S
C2690 C2687 1.526 . S
C2690 C2691 1.396 . S
C2690 C2695 1.390 . S
C2691 C2685 1.465 . S
C2691 C2690 1.396 . S
C2691 C2692 1.399 . S
C2692 H2678 0.929 . S
C2692 C2691 1.399 . S
C2692 C2693 1.385 . S
C2693 H2679 0.931 . S
C2693 C2692 1.385 . S
C2693 C2694 1.389 . S
C2694 C2693 1.389 . S
C2694 C2695 1.387 . S
C2695 H2680 0.930 . S
C2695 C2690 1.390 . S
C2695 C2694 1.387 . S
H2696 C2708 0.930 . S
H2697 C2710 0.930 . S
H2698 C2711 0.930 . S
H2699 C2715 0.959 . S
H2700 C2715 0.959 . S
H2701 C2715 0.961 . S
H2702 C2716 0.960 . S
H2703 C2716 0.961 . S
H2704 C2716 0.959 . S
H2705 C2719 0.929 . S
H2706 C2720 0.931 . S
H2707 C2722 0.930 . S
C2708 H2696 0.930 . S
C2708 C2709 1.399 . S
C2708 C2713 1.399 . S
C2709 C2708 1.399 . S
C2709 C2710 1.376 . S
C2710 H2697 0.930 . S
C2710 C2709 1.376 . S
C2710 C2711 1.388 . S
C2711 H2698 0.930 . S
C2711 C2710 1.388 . S
C2711 C2712 1.390 . S
C2712 C2711 1.390 . S
C2712 C2713 1.394 . S
C2712 C2718 1.465 . S
C2713 C2708 1.399 . S
C2713 C2712 1.394 . S
C2713 C2714 1.516 . S
C2714 C2713 1.516 . S
C2714 C2715 1.502 . S
C2714 C2716 1.561 . S
C2714 C2717 1.526 . S
C2715 H2699 0.959 . S
C2715 H2700 0.959 . S
C2715 H2701 0.961 . S
C2715 C2714 1.502 . S
C2716 H2702 0.960 . S
C2716 H2703 0.961 . S
C2716 H2704 0.959 . S
C2716 C2714 1.561 . S
C2717 C2714 1.526 . S
C2717 C2718 1.396 . S
C2717 C2722 1.390 . S
C2718 C2712 1.465 . S
C2718 C2717 1.396 . S
C2718 C2719 1.399 . S
C2719 H2705 0.929 . S
C2719 C2718 1.399 . S
C2719 C2720 1.385 . S
C2720 H2706 0.931 . S
C2720 C2719 1.385 . S
C2720 C2721 1.389 . S
C2721 C2720 1.389 . S
C2721 C2722 1.387 . S
C2722 H2707 0.930 . S
C2722 C2717 1.390 . S
C2722 C2721 1.387 . S
H2723 C2735 0.930 . S
H2724 C2737 0.930 . S
H2725 C2738 0.930 . S
H2726 C2742 0.959 . S
H2727 C2742 0.959 . S
H2728 C2742 0.961 . S
H2729 C2743 0.960 . S
H2730 C2743 0.961 . S
H2731 C2743 0.959 . S
H2732 C2746 0.929 . S
H2733 C2747 0.931 . S
H2734 C2749 0.930 . S
C2735 H2723 0.930 . S
C2735 C2736 1.399 . S
C2735 C2740 1.399 . S
C2736 C2735 1.399 . S
C2736 C2737 1.376 . S
C2737 H2724 0.930 . S
C2737 C2736 1.376 . S
C2737 C2738 1.388 . S
C2738 H2725 0.930 . S
C2738 C2737 1.388 . S
C2738 C2739 1.390 . S
C2739 C2738 1.390 . S
C2739 C2740 1.394 . S
C2739 C2745 1.465 . S
C2740 C2735 1.399 . S
C2740 C2739 1.394 . S
C2740 C2741 1.516 . S
C2741 C2740 1.516 . S
C2741 C2742 1.502 . S
C2741 C2743 1.561 . S
C2741 C2744 1.526 . S
C2742 H2726 0.959 . S
C2742 H2727 0.959 . S
C2742 H2728 0.961 . S
C2742 C2741 1.502 . S
C2743 H2729 0.960 . S
C2743 H2730 0.961 . S
C2743 H2731 0.959 . S
C2743 C2741 1.561 . S
C2744 C2741 1.526 . S
C2744 C2745 1.396 . S
C2744 C2749 1.390 . S
C2745 C2739 1.465 . S
C2745 C2744 1.396 . S
C2745 C2746 1.399 . S
C2746 H2732 0.929 . S
C2746 C2745 1.399 . S
C2746 C2747 1.385 . S
C2747 H2733 0.931 . S
C2747 C2746 1.385 . S
C2747 C2748 1.389 . S
C2748 C2747 1.389 . S
C2748 C2749 1.387 . S
C2749 H2734 0.930 . S
C2749 C2744 1.390 . S
C2749 C2748 1.387 . S
H2750 C2762 0.930 . S
H2751 C2764 0.930 . S
H2752 C2765 0.930 . S
H2753 C2769 0.959 . S
H2754 C2769 0.959 . S
H2755 C2769 0.961 . S
H2756 C2770 0.960 . S
H2757 C2770 0.961 . S
H2758 C2770 0.959 . S
H2759 C2773 0.929 . S
H2760 C2774 0.931 . S
H2761 C2776 0.930 . S
C2762 H2750 0.930 . S
C2762 C2763 1.399 . S
C2762 C2767 1.399 . S
C2763 C2762 1.399 . S
C2763 C2764 1.376 . S
C2764 H2751 0.930 . S
C2764 C2763 1.376 . S
C2764 C2765 1.388 . S
C2765 H2752 0.930 . S
C2765 C2764 1.388 . S
C2765 C2766 1.390 . S
C2766 C2765 1.390 . S
C2766 C2767 1.394 . S
C2766 C2772 1.465 . S
C2767 C2762 1.399 . S
C2767 C2766 1.394 . S
C2767 C2768 1.516 . S
C2768 C2767 1.516 . S
C2768 C2769 1.502 . S
C2768 C2770 1.561 . S
C2768 C2771 1.526 . S
C2769 H2753 0.959 . S
C2769 H2754 0.959 . S
C2769 H2755 0.961 . S
C2769 C2768 1.502 . S
C2770 H2756 0.960 . S
C2770 H2757 0.961 . S
C2770 H2758 0.959 . S
C2770 C2768 1.561 . S
C2771 C2768 1.526 . S
C2771 C2772 1.396 . S
C2771 C2776 1.390 . S
C2772 C2766 1.465 . S
C2772 C2771 1.396 . S
C2772 C2773 1.399 . S
C2773 H2759 0.929 . S
C2773 C2772 1.399 . S
C2773 C2774 1.385 . S
C2774 H2760 0.931 . S
C2774 C2773 1.385 . S
C2774 C2775 1.389 . S
C2775 C2774 1.389 . S
C2775 C2776 1.387 . S
C2776 H2761 0.930 . S
C2776 C2771 1.390 . S
C2776 C2775 1.387 . S
H2777 C2789 0.930 . S
H2778 C2791 0.930 . S
H2779 C2792 0.930 . S
H2780 C2796 0.959 . S
H2781 C2796 0.959 . S
H2782 C2796 0.961 . S
H2783 C2797 0.960 . S
H2784 C2797 0.961 . S
H2785 C2797 0.959 . S
H2786 C2800 0.929 . S
H2787 C2801 0.931 . S
H2788 C2803 0.930 . S
C2789 H2777 0.930 . S
C2789 C2790 1.399 . S
C2789 C2794 1.399 . S
C2790 C2789 1.399 . S
C2790 C2791 1.376 . S
C2791 H2778 0.930 . S
C2791 C2790 1.376 . S
C2791 C2792 1.388 . S
C2792 H2779 0.930 . S
C2792 C2791 1.388 . S
C2792 C2793 1.390 . S
C2793 C2792 1.390 . S
C2793 C2794 1.394 . S
C2793 C2799 1.465 . S
C2794 C2789 1.399 . S
C2794 C2793 1.394 . S
C2794 C2795 1.516 . S
C2795 C2794 1.516 . S
C2795 C2796 1.502 . S
C2795 C2797 1.561 . S
C2795 C2798 1.526 . S
C2796 H2780 0.959 . S
C2796 H2781 0.959 . S
C2796 H2782 0.961 . S
C2796 C2795 1.502 . S
C2797 H2783 0.960 . S
C2797 H2784 0.961 . S
C2797 H2785 0.959 . S
C2797 C2795 1.561 . S
C2798 C2795 1.526 . S
C2798 C2799 1.396 . S
C2798 C2803 1.390 . S
C2799 C2793 1.465 . S
C2799 C2798 1.396 . S
C2799 C2800 1.399 . S
C2800 H2786 0.929 . S
C2800 C2799 1.399 . S
C2800 C2801 1.385 . S
C2801 H2787 0.931 . S
C2801 C2800 1.385 . S
C2801 C2802 1.389 . S
C2802 C2801 1.389 . S
C2802 C2803 1.387 . S
C2803 H2788 0.930 . S
C2803 C2798 1.390 . S
C2803 C2802 1.387 . S
H2804 C2816 0.930 . S
H2805 C2818 0.930 . S
H2806 C2819 0.930 . S
H2807 C2823 0.959 . S
H2808 C2823 0.959 . S
H2809 C2823 0.961 . S
H2810 C2824 0.960 . S
H2811 C2824 0.961 . S
H2812 C2824 0.959 . S
H2813 C2827 0.929 . S
H2814 C2828 0.931 . S
H2815 C2830 0.930 . S
C2816 H2804 0.930 . S
C2816 C2817 1.399 . S
C2816 C2821 1.399 . S
C2817 C2816 1.399 . S
C2817 C2818 1.376 . S
C2818 H2805 0.930 . S
C2818 C2817 1.376 . S
C2818 C2819 1.388 . S
C2819 H2806 0.930 . S
C2819 C2818 1.388 . S
C2819 C2820 1.390 . S
C2820 C2819 1.390 . S
C2820 C2821 1.394 . S
C2820 C2826 1.465 . S
C2821 C2816 1.399 . S
C2821 C2820 1.394 . S
C2821 C2822 1.516 . S
C2822 C2821 1.516 . S
C2822 C2823 1.502 . S
C2822 C2824 1.561 . S
C2822 C2825 1.526 . S
C2823 H2807 0.959 . S
C2823 H2808 0.959 . S
C2823 H2809 0.961 . S
C2823 C2822 1.502 . S
C2824 H2810 0.960 . S
C2824 H2811 0.961 . S
C2824 H2812 0.959 . S
C2824 C2822 1.561 . S
C2825 C2822 1.526 . S
C2825 C2826 1.396 . S
C2825 C2830 1.390 . S
C2826 C2820 1.465 . S
C2826 C2825 1.396 . S
C2826 C2827 1.399 . S
C2827 H2813 0.929 . S
C2827 C2826 1.399 . S
C2827 C2828 1.385 . S
C2828 H2814 0.931 . S
C2828 C2827 1.385 . S
C2828 C2829 1.389 . S
C2829 C2828 1.389 . S
C2829 C2830 1.387 . S
C2830 H2815 0.930 . S
C2830 C2825 1.390 . S
C2830 C2829 1.387 . S
H2831 C2843 0.930 . S
H2832 C2845 0.930 . S
H2833 C2846 0.930 . S
H2834 C2850 0.959 . S
H2835 C2850 0.959 . S
H2836 C2850 0.961 . S
H2837 C2851 0.960 . S
H2838 C2851 0.961 . S
H2839 C2851 0.959 . S
H2840 C2854 0.929 . S
H2841 C2855 0.931 . S
H2842 C2857 0.930 . S
C2843 H2831 0.930 . S
C2843 C2844 1.399 . S
C2843 C2848 1.399 . S
C2844 C2843 1.399 . S
C2844 C2845 1.376 . S
C2845 H2832 0.930 . S
C2845 C2844 1.376 . S
C2845 C2846 1.388 . S
C2846 H2833 0.930 . S
C2846 C2845 1.388 . S
C2846 C2847 1.390 . S
C2847 C2846 1.390 . S
C2847 C2848 1.394 . S
C2847 C2853 1.465 . S
C2848 C2843 1.399 . S
C2848 C2847 1.394 . S
C2848 C2849 1.516 . S
C2849 C2848 1.516 . S
C2849 C2850 1.502 . S
C2849 C2851 1.561 . S
C2849 C2852 1.526 . S
C2850 H2834 0.959 . S
C2850 H2835 0.959 . S
C2850 H2836 0.961 . S
C2850 C2849 1.502 . S
C2851 H2837 0.960 . S
C2851 H2838 0.961 . S
C2851 H2839 0.959 . S
C2851 C2849 1.561 . S
C2852 C2849 1.526 . S
C2852 C2853 1.396 . S
C2852 C2857 1.390 . S
C2853 C2847 1.465 . S
C2853 C2852 1.396 . S
C2853 C2854 1.399 . S
C2854 H2840 0.929 . S
C2854 C2853 1.399 . S
C2854 C2855 1.385 . S
C2855 H2841 0.931 . S
C2855 C2854 1.385 . S
C2855 C2856 1.389 . S
C2856 C2855 1.389 . S
C2856 C2857 1.387 . S
C2857 H2842 0.930 . S
C2857 C2852 1.390 . S
C2857 C2856 1.387 . S
H2858 C2870 0.930 . S
H2859 C2872 0.930 . S
H2860 C2873 0.930 . S
H2861 C2877 0.959 . S
H2862 C2877 0.959 . S
H2863 C2877 0.961 . S
H2864 C2878 0.960 . S
H2865 C2878 0.961 . S
H2866 C2878 0.959 . S
H2867 C2881 0.929 . S
H2868 C2882 0.931 . S
H2869 C2884 0.930 . S
C2870 H2858 0.930 . S
C2870 C2871 1.399 . S
C2870 C2875 1.399 . S
C2871 C2870 1.399 . S
C2871 C2872 1.376 . S
C2872 H2859 0.930 . S
C2872 C2871 1.376 . S
C2872 C2873 1.388 . S
C2873 H2860 0.930 . S
C2873 C2872 1.388 . S
C2873 C2874 1.390 . S
C2874 C2873 1.390 . S
C2874 C2875 1.394 . S
C2874 C2880 1.465 . S
C2875 C2870 1.399 . S
C2875 C2874 1.394 . S
C2875 C2876 1.516 . S
C2876 C2875 1.516 . S
C2876 C2877 1.502 . S
C2876 C2878 1.561 . S
C2876 C2879 1.526 . S
C2877 H2861 0.959 . S
C2877 H2862 0.959 . S
C2877 H2863 0.961 . S
C2877 C2876 1.502 . S
C2878 H2864 0.960 . S
C2878 H2865 0.961 . S
C2878 H2866 0.959 . S
C2878 C2876 1.561 . S
C2879 C2876 1.526 . S
C2879 C2880 1.396 . S
C2879 C2884 1.390 . S
C2880 C2874 1.465 . S
C2880 C2879 1.396 . S
C2880 C2881 1.399 . S
C2881 H2867 0.929 . S
C2881 C2880 1.399 . S
C2881 C2882 1.385 . S
C2882 H2868 0.931 . S
C2882 C2881 1.385 . S
C2882 C2883 1.389 . S
C2883 C2882 1.389 . S
C2883 C2884 1.387 . S
C2884 H2869 0.930 . S
C2884 C2879 1.390 . S
C2884 C2883 1.387 . S
H2885 C2897 0.930 . S
H2886 C2899 0.930 . S
H2887 C2900 0.930 . S
H2888 C2904 0.959 . S
H2889 C2904 0.959 . S
H2890 C2904 0.961 . S
H2891 C2905 0.960 . S
H2892 C2905 0.961 . S
H2893 C2905 0.959 . S
H2894 C2908 0.929 . S
H2895 C2909 0.931 . S
H2896 C2911 0.930 . S
C2897 H2885 0.930 . S
C2897 C2898 1.399 . S
C2897 C2902 1.399 . S
C2898 C2897 1.399 . S
C2898 C2899 1.376 . S
C2899 H2886 0.930 . S
C2899 C2898 1.376 . S
C2899 C2900 1.388 . S
C2900 H2887 0.930 . S
C2900 C2899 1.388 . S
C2900 C2901 1.390 . S
C2901 C2900 1.390 . S
C2901 C2902 1.394 . S
C2901 C2907 1.465 . S
C2902 C2897 1.399 . S
C2902 C2901 1.394 . S
C2902 C2903 1.516 . S
C2903 C2902 1.516 . S
C2903 C2904 1.502 . S
C2903 C2905 1.561 . S
C2903 C2906 1.526 . S
C2904 H2888 0.959 . S
C2904 H2889 0.959 . S
C2904 H2890 0.961 . S
C2904 C2903 1.502 . S
C2905 H2891 0.960 . S
C2905 H2892 0.961 . S
C2905 H2893 0.959 . S
C2905 C2903 1.561 . S
C2906 C2903 1.526 . S
C2906 C2907 1.396 . S
C2906 C2911 1.390 . S
C2907 C2901 1.465 . S
C2907 C2906 1.396 . S
C2907 C2908 1.399 . S
C2908 H2894 0.929 . S
C2908 C2907 1.399 . S
C2908 C2909 1.385 . S
C2909 H2895 0.931 . S
C2909 C2908 1.385 . S
C2909 C2910 1.389 . S
C2910 C2909 1.389 . S
C2910 C2911 1.387 . S
C2911 H2896 0.930 . S
C2911 C2906 1.390 . S
C2911 C2910 1.387 . S
H2912 C2924 0.930 . S
H2913 C2926 0.930 . S
H2914 C2927 0.930 . S
H2915 C2931 0.959 . S
H2916 C2931 0.959 . S
H2917 C2931 0.961 . S
H2918 C2932 0.960 . S
H2919 C2932 0.961 . S
H2920 C2932 0.959 . S
H2921 C2935 0.929 . S
H2922 C2936 0.931 . S
H2923 C2938 0.930 . S
C2924 H2912 0.930 . S
C2924 C2925 1.399 . S
C2924 C2929 1.399 . S
C2925 C2924 1.399 . S
C2925 C2926 1.376 . S
C2926 H2913 0.930 . S
C2926 C2925 1.376 . S
C2926 C2927 1.388 . S
C2927 H2914 0.930 . S
C2927 C2926 1.388 . S
C2927 C2928 1.390 . S
C2928 C2927 1.390 . S
C2928 C2929 1.394 . S
C2928 C2934 1.465 . S
C2929 C2924 1.399 . S
C2929 C2928 1.394 . S
C2929 C2930 1.516 . S
C2930 C2929 1.516 . S
C2930 C2931 1.502 . S
C2930 C2932 1.561 . S
C2930 C2933 1.526 . S
C2931 H2915 0.959 . S
C2931 H2916 0.959 . S
C2931 H2917 0.961 . S
C2931 C2930 1.502 . S
C2932 H2918 0.960 . S
C2932 H2919 0.961 . S
C2932 H2920 0.959 . S
C2932 C2930 1.561 . S
C2933 C2930 1.526 . S
C2933 C2934 1.396 . S
C2933 C2938 1.390 . S
C2934 C2928 1.465 . S
C2934 C2933 1.396 . S
C2934 C2935 1.399 . S
C2935 H2921 0.929 . S
C2935 C2934 1.399 . S
C2935 C2936 1.385 . S
C2936 H2922 0.931 . S
C2936 C2935 1.385 . S
C2936 C2937 1.389 . S
C2937 C2936 1.389 . S
C2937 C2938 1.387 . S
C2938 H2923 0.930 . S
C2938 C2933 1.390 . S
C2938 C2937 1.387 . S
H2939 C2951 0.930 . S
H2940 C2953 0.930 . S
H2941 C2954 0.930 . S
H2942 C2958 0.959 . S
H2943 C2958 0.959 . S
H2944 C2958 0.961 . S
H2945 C2959 0.960 . S
H2946 C2959 0.961 . S
H2947 C2959 0.959 . S
H2948 C2962 0.929 . S
H2949 C2963 0.931 . S
H2950 C2965 0.930 . S
C2951 H2939 0.930 . S
C2951 C2952 1.399 . S
C2951 C2956 1.399 . S
C2952 C2951 1.399 . S
C2952 C2953 1.376 . S
C2953 H2940 0.930 . S
C2953 C2952 1.376 . S
C2953 C2954 1.388 . S
C2954 H2941 0.930 . S
C2954 C2953 1.388 . S
C2954 C2955 1.390 . S
C2955 C2954 1.390 . S
C2955 C2956 1.394 . S
C2955 C2961 1.465 . S
C2956 C2951 1.399 . S
C2956 C2955 1.394 . S
C2956 C2957 1.516 . S
C2957 C2956 1.516 . S
C2957 C2958 1.502 . S
C2957 C2959 1.561 . S
C2957 C2960 1.526 . S
C2958 H2942 0.959 . S
C2958 H2943 0.959 . S
C2958 H2944 0.961 . S
C2958 C2957 1.502 . S
C2959 H2945 0.960 . S
C2959 H2946 0.961 . S
C2959 H2947 0.959 . S
C2959 C2957 1.561 . S
C2960 C2957 1.526 . S
C2960 C2961 1.396 . S
C2960 C2965 1.390 . S
C2961 C2955 1.465 . S
C2961 C2960 1.396 . S
C2961 C2962 1.399 . S
C2962 H2948 0.929 . S
C2962 C2961 1.399 . S
C2962 C2963 1.385 . S
C2963 H2949 0.931 . S
C2963 C2962 1.385 . S
C2963 C2964 1.389 . S
C2964 C2963 1.389 . S
C2964 C2965 1.387 . S
C2965 H2950 0.930 . S
C2965 C2960 1.390 . S
C2965 C2964 1.387 . S
H2966 C2978 0.930 . S
H2967 C2980 0.930 . S
H2968 C2981 0.930 . S
H2969 C2985 0.959 . S
H2970 C2985 0.959 . S
H2971 C2985 0.961 . S
H2972 C2986 0.960 . S
H2973 C2986 0.961 . S
H2974 C2986 0.959 . S
H2975 C2989 0.929 . S
H2976 C2990 0.931 . S
H2977 C2992 0.930 . S
C2978 H2966 0.930 . S
C2978 C2979 1.399 . S
C2978 C2983 1.399 . S
C2979 C2978 1.399 . S
C2979 C2980 1.376 . S
C2980 H2967 0.930 . S
C2980 C2979 1.376 . S
C2980 C2981 1.388 . S
C2981 H2968 0.930 . S
C2981 C2980 1.388 . S
C2981 C2982 1.390 . S
C2982 C2981 1.390 . S
C2982 C2983 1.394 . S
C2982 C2988 1.465 . S
C2983 C2978 1.399 . S
C2983 C2982 1.394 . S
C2983 C2984 1.516 . S
C2984 C2983 1.516 . S
C2984 C2985 1.502 . S
C2984 C2986 1.561 . S
C2984 C2987 1.526 . S
C2985 H2969 0.959 . S
C2985 H2970 0.959 . S
C2985 H2971 0.961 . S
C2985 C2984 1.502 . S
C2986 H2972 0.960 . S
C2986 H2973 0.961 . S
C2986 H2974 0.959 . S
C2986 C2984 1.561 . S
C2987 C2984 1.526 . S
C2987 C2988 1.396 . S
C2987 C2992 1.390 . S
C2988 C2982 1.465 . S
C2988 C2987 1.396 . S
C2988 C2989 1.399 . S
C2989 H2975 0.929 . S
C2989 C2988 1.399 . S
C2989 C2990 1.385 . S
C2990 H2976 0.931 . S
C2990 C2989 1.385 . S
C2990 C2991 1.389 . S
C2991 C2990 1.389 . S
C2991 C2992 1.387 . S
C2992 H2977 0.930 . S
C2992 C2987 1.390 . S
C2992 C2991 1.387 . S
H2993 C3005 0.930 . S
H2994 C3007 0.930 . S
H2995 C3008 0.930 . S
H2996 C3012 0.959 . S
H2997 C3012 0.959 . S
H2998 C3012 0.961 . S
H2999 C3013 0.960 . S
H3000 C3013 0.961 . S
H3001 C3013 0.959 . S
H3002 C3016 0.929 . S
H3003 C3017 0.931 . S
H3004 C3019 0.930 . S
C3005 H2993 0.930 . S
C3005 C3006 1.399 . S
C3005 C3010 1.399 . S
C3006 C3005 1.399 . S
C3006 C3007 1.376 . S
C3007 H2994 0.930 . S
C3007 C3006 1.376 . S
C3007 C3008 1.388 . S
C3008 H2995 0.930 . S
C3008 C3007 1.388 . S
C3008 C3009 1.390 . S
C3009 C3008 1.390 . S
C3009 C3010 1.394 . S
C3009 C3015 1.465 . S
C3010 C3005 1.399 . S
C3010 C3009 1.394 . S
C3010 C3011 1.516 . S
C3011 C3010 1.516 . S
C3011 C3012 1.502 . S
C3011 C3013 1.561 . S
C3011 C3014 1.526 . S
C3012 H2996 0.959 . S
C3012 H2997 0.959 . S
C3012 H2998 0.961 . S
C3012 C3011 1.502 . S
C3013 H2999 0.960 . S
C3013 H3000 0.961 . S
C3013 H3001 0.959 . S
C3013 C3011 1.561 . S
C3014 C3011 1.526 . S
C3014 C3015 1.396 . S
C3014 C3019 1.390 . S
C3015 C3009 1.465 . S
C3015 C3014 1.396 . S
C3015 C3016 1.399 . S
C3016 H3002 0.929 . S
C3016 C3015 1.399 . S
C3016 C3017 1.385 . S
C3017 H3003 0.931 . S
C3017 C3016 1.385 . S
C3017 C3018 1.389 . S
C3018 C3017 1.389 . S
C3018 C3019 1.387 . S
C3019 H3004 0.930 . S
C3019 C3014 1.390 . S
C3019 C3018 1.387 . S
H3020 C3032 0.930 . S
H3021 C3034 0.930 . S
H3022 C3035 0.930 . S
H3023 C3039 0.959 . S
H3024 C3039 0.959 . S
H3025 C3039 0.961 . S
H3026 C3040 0.960 . S
H3027 C3040 0.961 . S
H3028 C3040 0.959 . S
H3029 C3043 0.929 . S
H3030 C3044 0.931 . S
H3031 C3046 0.930 . S
C3032 H3020 0.930 . S
C3032 C3033 1.399 . S
C3032 C3037 1.399 . S
C3033 C3032 1.399 . S
C3033 C3034 1.376 . S
C3034 H3021 0.930 . S
C3034 C3033 1.376 . S
C3034 C3035 1.388 . S
C3035 H3022 0.930 . S
C3035 C3034 1.388 . S
C3035 C3036 1.390 . S
C3036 C3035 1.390 . S
C3036 C3037 1.394 . S
C3036 C3042 1.465 . S
C3037 C3032 1.399 . S
C3037 C3036 1.394 . S
C3037 C3038 1.516 . S
C3038 C3037 1.516 . S
C3038 C3039 1.502 . S
C3038 C3040 1.561 . S
C3038 C3041 1.526 . S
C3039 H3023 0.959 . S
C3039 H3024 0.959 . S
C3039 H3025 0.961 . S
C3039 C3038 1.502 . S
C3040 H3026 0.960 . S
C3040 H3027 0.961 . S
C3040 H3028 0.959 . S
C3040 C3038 1.561 . S
C3041 C3038 1.526 . S
C3041 C3042 1.396 . S
C3041 C3046 1.390 . S
C3042 C3036 1.465 . S
C3042 C3041 1.396 . S
C3042 C3043 1.399 . S
C3043 H3029 0.929 . S
C3043 C3042 1.399 . S
C3043 C3044 1.385 . S
C3044 H3030 0.931 . S
C3044 C3043 1.385 . S
C3044 C3045 1.389 . S
C3045 C3044 1.389 . S
C3045 C3046 1.387 . S
C3046 H3031 0.930 . S
C3046 C3041 1.390 . S
C3046 C3045 1.387 . S
H3047 C3059 0.930 . S
H3048 C3061 0.930 . S
H3049 C3062 0.930 . S
H3050 C3066 0.959 . S
H3051 C3066 0.959 . S
H3052 C3066 0.961 . S
H3053 C3067 0.960 . S
H3054 C3067 0.961 . S
H3055 C3067 0.959 . S
H3056 C3070 0.929 . S
H3057 C3071 0.931 . S
H3058 C3073 0.930 . S
C3059 H3047 0.930 . S
C3059 C3060 1.399 . S
C3059 C3064 1.399 . S
C3060 C3059 1.399 . S
C3060 C3061 1.376 . S
C3061 H3048 0.930 . S
C3061 C3060 1.376 . S
C3061 C3062 1.388 . S
C3062 H3049 0.930 . S
C3062 C3061 1.388 . S
C3062 C3063 1.390 . S
C3063 C3062 1.390 . S
C3063 C3064 1.394 . S
C3063 C3069 1.465 . S
C3064 C3059 1.399 . S
C3064 C3063 1.394 . S
C3064 C3065 1.516 . S
C3065 C3064 1.516 . S
C3065 C3066 1.502 . S
C3065 C3067 1.561 . S
C3065 C3068 1.526 . S
C3066 H3050 0.959 . S
C3066 H3051 0.959 . S
C3066 H3052 0.961 . S
C3066 C3065 1.502 . S
C3067 H3053 0.960 . S
C3067 H3054 0.961 . S
C3067 H3055 0.959 . S
C3067 C3065 1.561 . S
C3068 C3065 1.526 . S
C3068 C3069 1.396 . S
C3068 C3073 1.390 . S
C3069 C3063 1.465 . S
C3069 C3068 1.396 . S
C3069 C3070 1.399 . S
C3070 H3056 0.929 . S
C3070 C3069 1.399 . S
C3070 C3071 1.385 . S
C3071 H3057 0.931 . S
C3071 C3070 1.385 . S
C3071 C3072 1.389 . S
C3072 C3071 1.389 . S
C3072 C3073 1.387 . S
C3073 H3058 0.930 . S
C3073 C3068 1.390 . S
C3073 C3072 1.387 . S
H3074 C3086 0.930 . S
H3075 C3088 0.930 . S
H3076 C3089 0.930 . S
H3077 C3093 0.959 . S
H3078 C3093 0.959 . S
H3079 C3093 0.961 . S
H3080 C3094 0.960 . S
H3081 C3094 0.961 . S
H3082 C3094 0.959 . S
H3083 C3097 0.929 . S
H3084 C3098 0.931 . S
H3085 C3100 0.930 . S
C3086 H3074 0.930 . S
C3086 C3087 1.399 . S
C3086 C3091 1.399 . S
C3087 C3086 1.399 . S
C3087 C3088 1.376 . S
C3088 H3075 0.930 . S
C3088 C3087 1.376 . S
C3088 C3089 1.388 . S
C3089 H3076 0.930 . S
C3089 C3088 1.388 . S
C3089 C3090 1.390 . S
C3090 C3089 1.390 . S
C3090 C3091 1.394 . S
C3090 C3096 1.465 . S
C3091 C3086 1.399 . S
C3091 C3090 1.394 . S
C3091 C3092 1.516 . S
C3092 C3091 1.516 . S
C3092 C3093 1.502 . S
C3092 C3094 1.561 . S
C3092 C3095 1.526 . S
C3093 H3077 0.959 . S
C3093 H3078 0.959 . S
C3093 H3079 0.961 . S
C3093 C3092 1.502 . S
C3094 H3080 0.960 . S
C3094 H3081 0.961 . S
C3094 H3082 0.959 . S
C3094 C3092 1.561 . S
C3095 C3092 1.526 . S
C3095 C3096 1.396 . S
C3095 C3100 1.390 . S
C3096 C3090 1.465 . S
C3096 C3095 1.396 . S
C3096 C3097 1.399 . S
C3097 H3083 0.929 . S
C3097 C3096 1.399 . S
C3097 C3098 1.385 . S
C3098 H3084 0.931 . S
C3098 C3097 1.385 . S
C3098 C3099 1.389 . S
C3099 C3098 1.389 . S
C3099 C3100 1.387 . S
C3100 H3085 0.930 . S
C3100 C3095 1.390 . S
C3100 C3099 1.387 . S
H3101 C3113 0.930 . S
H3102 C3115 0.930 . S
H3103 C3116 0.930 . S
H3104 C3120 0.959 . S
H3105 C3120 0.959 . S
H3106 C3120 0.961 . S
H3107 C3121 0.960 . S
H3108 C3121 0.961 . S
H3109 C3121 0.959 . S
H3110 C3124 0.929 . S
H3111 C3125 0.931 . S
H3112 C3127 0.930 . S
C3113 H3101 0.930 . S
C3113 C3114 1.399 . S
C3113 C3118 1.399 . S
C3114 C3113 1.399 . S
C3114 C3115 1.376 . S
C3115 H3102 0.930 . S
C3115 C3114 1.376 . S
C3115 C3116 1.388 . S
C3116 H3103 0.930 . S
C3116 C3115 1.388 . S
C3116 C3117 1.390 . S
C3117 C3116 1.390 . S
C3117 C3118 1.394 . S
C3117 C3123 1.465 . S
C3118 C3113 1.399 . S
C3118 C3117 1.394 . S
C3118 C3119 1.516 . S
C3119 C3118 1.516 . S
C3119 C3120 1.502 . S
C3119 C3121 1.561 . S
C3119 C3122 1.526 . S
C3120 H3104 0.959 . S
C3120 H3105 0.959 . S
C3120 H3106 0.961 . S
C3120 C3119 1.502 . S
C3121 H3107 0.960 . S
C3121 H3108 0.961 . S
C3121 H3109 0.959 . S
C3121 C3119 1.561 . S
C3122 C3119 1.526 . S
C3122 C3123 1.396 . S
C3122 C3127 1.390 . S
C3123 C3117 1.465 . S
C3123 C3122 1.396 . S
C3123 C3124 1.399 . S
C3124 H3110 0.929 . S
C3124 C3123 1.399 . S
C3124 C3125 1.385 . S
C3125 H3111 0.931 . S
C3125 C3124 1.385 . S
C3125 C3126 1.389 . S
C3126 C3125 1.389 . S
C3126 C3127 1.387 . S
C3127 H3112 0.930 . S
C3127 C3122 1.390 . S
C3127 C3126 1.387 . S
H3128 C3140 0.930 . S
H3129 C3142 0.930 . S
H3130 C3143 0.930 . S
H3131 C3147 0.959 . S
H3132 C3147 0.959 . S
H3133 C3147 0.961 . S
H3134 C3148 0.960 . S
H3135 C3148 0.961 . S
H3136 C3148 0.959 . S
H3137 C3151 0.929 . S
H3138 C3152 0.931 . S
H3139 C3154 0.930 . S
C3140 H3128 0.930 . S
C3140 C3141 1.399 . S
C3140 C3145 1.399 . S
C3141 C3140 1.399 . S
C3141 C3142 1.376 . S
C3142 H3129 0.930 . S
C3142 C3141 1.376 . S
C3142 C3143 1.388 . S
C3143 H3130 0.930 . S
C3143 C3142 1.388 . S
C3143 C3144 1.390 . S
C3144 C3143 1.390 . S
C3144 C3145 1.394 . S
C3144 C3150 1.465 . S
C3145 C3140 1.399 . S
C3145 C3144 1.394 . S
C3145 C3146 1.516 . S
C3146 C3145 1.516 . S
C3146 C3147 1.502 . S
C3146 C3148 1.561 . S
C3146 C3149 1.526 . S
C3147 H3131 0.959 . S
C3147 H3132 0.959 . S
C3147 H3133 0.961 . S
C3147 C3146 1.502 . S
C3148 H3134 0.960 . S
C3148 H3135 0.961 . S
C3148 H3136 0.959 . S
C3148 C3146 1.561 . S
C3149 C3146 1.526 . S
C3149 C3150 1.396 . S
C3149 C3154 1.390 . S
C3150 C3144 1.465 . S
C3150 C3149 1.396 . S
C3150 C3151 1.399 . S
C3151 H3137 0.929 . S
C3151 C3150 1.399 . S
C3151 C3152 1.385 . S
C3152 H3138 0.931 . S
C3152 C3151 1.385 . S
C3152 C3153 1.389 . S
C3153 C3152 1.389 . S
C3153 C3154 1.387 . S
C3154 H3139 0.930 . S
C3154 C3149 1.390 . S
C3154 C3153 1.387 . S
H3155 C3167 0.930 . S
H3156 C3169 0.930 . S
H3157 C3170 0.930 . S
H3158 C3174 0.959 . S
H3159 C3174 0.959 . S
H3160 C3174 0.961 . S
H3161 C3175 0.960 . S
H3162 C3175 0.961 . S
H3163 C3175 0.959 . S
H3164 C3178 0.929 . S
H3165 C3179 0.931 . S
H3166 C3181 0.930 . S
C3167 H3155 0.930 . S
C3167 C3168 1.399 . S
C3167 C3172 1.399 . S
C3168 C3167 1.399 . S
C3168 C3169 1.376 . S
C3169 H3156 0.930 . S
C3169 C3168 1.376 . S
C3169 C3170 1.388 . S
C3170 H3157 0.930 . S
C3170 C3169 1.388 . S
C3170 C3171 1.390 . S
C3171 C3170 1.390 . S
C3171 C3172 1.394 . S
C3171 C3177 1.465 . S
C3172 C3167 1.399 . S
C3172 C3171 1.394 . S
C3172 C3173 1.516 . S
C3173 C3172 1.516 . S
C3173 C3174 1.502 . S
C3173 C3175 1.561 . S
C3173 C3176 1.526 . S
C3174 H3158 0.959 . S
C3174 H3159 0.959 . S
C3174 H3160 0.961 . S
C3174 C3173 1.502 . S
C3175 H3161 0.960 . S
C3175 H3162 0.961 . S
C3175 H3163 0.959 . S
C3175 C3173 1.561 . S
C3176 C3173 1.526 . S
C3176 C3177 1.396 . S
C3176 C3181 1.390 . S
C3177 C3171 1.465 . S
C3177 C3176 1.396 . S
C3177 C3178 1.399 . S
C3178 H3164 0.929 . S
C3178 C3177 1.399 . S
C3178 C3179 1.385 . S
C3179 H3165 0.931 . S
C3179 C3178 1.385 . S
C3179 C3180 1.389 . S
C3180 C3179 1.389 . S
C3180 C3181 1.387 . S
C3181 H3166 0.930 . S
C3181 C3176 1.390 . S
C3181 C3180 1.387 . S
H3182 C3194 0.930 . S
H3183 C3196 0.930 . S
H3184 C3197 0.930 . S
H3185 C3201 0.959 . S
H3186 C3201 0.959 . S
H3187 C3201 0.961 . S
H3188 C3202 0.960 . S
H3189 C3202 0.961 . S
H3190 C3202 0.959 . S
H3191 C3205 0.929 . S
H3192 C3206 0.931 . S
H3193 C3208 0.930 . S
C3194 H3182 0.930 . S
C3194 C3195 1.399 . S
C3194 C3199 1.399 . S
C3195 C3194 1.399 . S
C3195 C3196 1.376 . S
C3196 H3183 0.930 . S
C3196 C3195 1.376 . S
C3196 C3197 1.388 . S
C3197 H3184 0.930 . S
C3197 C3196 1.388 . S
C3197 C3198 1.390 . S
C3198 C3197 1.390 . S
C3198 C3199 1.394 . S
C3198 C3204 1.465 . S
C3199 C3194 1.399 . S
C3199 C3198 1.394 . S
C3199 C3200 1.516 . S
C3200 C3199 1.516 . S
C3200 C3201 1.502 . S
C3200 C3202 1.561 . S
C3200 C3203 1.526 . S
C3201 H3185 0.959 . S
C3201 H3186 0.959 . S
C3201 H3187 0.961 . S
C3201 C3200 1.502 . S
C3202 H3188 0.960 . S
C3202 H3189 0.961 . S
C3202 H3190 0.959 . S
C3202 C3200 1.561 . S
C3203 C3200 1.526 . S
C3203 C3204 1.396 . S
C3203 C3208 1.390 . S
C3204 C3198 1.465 . S
C3204 C3203 1.396 . S
C3204 C3205 1.399 . S
C3205 H3191 0.929 . S
C3205 C3204 1.399 . S
C3205 C3206 1.385 . S
C3206 H3192 0.931 . S
C3206 C3205 1.385 . S
C3206 C3207 1.389 . S
C3207 C3206 1.389 . S
C3207 C3208 1.387 . S
C3208 H3193 0.930 . S
C3208 C3203 1.390 . S
C3208 C3207 1.387 . S
H3209 C3221 0.930 . S
H3210 C3223 0.930 . S
H3211 C3224 0.930 . S
H3212 C3228 0.959 . S
H3213 C3228 0.959 . S
H3214 C3228 0.961 . S
H3215 C3229 0.960 . S
H3216 C3229 0.961 . S
H3217 C3229 0.959 . S
H3218 C3232 0.929 . S
H3219 C3233 0.931 . S
H3220 C3235 0.930 . S
C3221 H3209 0.930 . S
C3221 C3222 1.399 . S
C3221 C3226 1.399 . S
C3222 C3221 1.399 . S
C3222 C3223 1.376 . S
C3223 H3210 0.930 . S
C3223 C3222 1.376 . S
C3223 C3224 1.388 . S
C3224 H3211 0.930 . S
C3224 C3223 1.388 . S
C3224 C3225 1.390 . S
C3225 C3224 1.390 . S
C3225 C3226 1.394 . S
C3225 C3231 1.465 . S
C3226 C3221 1.399 . S
C3226 C3225 1.394 . S
C3226 C3227 1.516 . S
C3227 C3226 1.516 . S
C3227 C3228 1.502 . S
C3227 C3229 1.561 . S
C3227 C3230 1.526 . S
C3228 H3212 0.959 . S
C3228 H3213 0.959 . S
C3228 H3214 0.961 . S
C3228 C3227 1.502 . S
C3229 H3215 0.960 . S
C3229 H3216 0.961 . S
C3229 H3217 0.959 . S
C3229 C3227 1.561 . S
C3230 C3227 1.526 . S
C3230 C3231 1.396 . S
C3230 C3235 1.390 . S
C3231 C3225 1.465 . S
C3231 C3230 1.396 . S
C3231 C3232 1.399 . S
C3232 H3218 0.929 . S
C3232 C3231 1.399 . S
C3232 C3233 1.385 . S
C3233 H3219 0.931 . S
C3233 C3232 1.385 . S
C3233 C3234 1.389 . S
C3234 C3233 1.389 . S
C3234 C3235 1.387 . S
C3235 H3220 0.930 . S
C3235 C3230 1.390 . S
C3235 C3234 1.387 . S
H3236 C3248 0.930 . S
H3237 C3250 0.930 . S
H3238 C3251 0.930 . S
H3239 C3255 0.959 . S
H3240 C3255 0.959 . S
H3241 C3255 0.961 . S
H3242 C3256 0.960 . S
H3243 C3256 0.961 . S
H3244 C3256 0.959 . S
H3245 C3259 0.929 . S
H3246 C3260 0.931 . S
H3247 C3262 0.930 . S
C3248 H3236 0.930 . S
C3248 C3249 1.399 . S
C3248 C3253 1.399 . S
C3249 C3248 1.399 . S
C3249 C3250 1.376 . S
C3250 H3237 0.930 . S
C3250 C3249 1.376 . S
C3250 C3251 1.388 . S
C3251 H3238 0.930 . S
C3251 C3250 1.388 . S
C3251 C3252 1.390 . S
C3252 C3251 1.390 . S
C3252 C3253 1.394 . S
C3252 C3258 1.465 . S
C3253 C3248 1.399 . S
C3253 C3252 1.394 . S
C3253 C3254 1.516 . S
C3254 C3253 1.516 . S
C3254 C3255 1.502 . S
C3254 C3256 1.561 . S
C3254 C3257 1.526 . S
C3255 H3239 0.959 . S
C3255 H3240 0.959 . S
C3255 H3241 0.961 . S
C3255 C3254 1.502 . S
C3256 H3242 0.960 . S
C3256 H3243 0.961 . S
C3256 H3244 0.959 . S
C3256 C3254 1.561 . S
C3257 C3254 1.526 . S
C3257 C3258 1.396 . S
C3257 C3262 1.390 . S
C3258 C3252 1.465 . S
C3258 C3257 1.396 . S
C3258 C3259 1.399 . S
C3259 H3245 0.929 . S
C3259 C3258 1.399 . S
C3259 C3260 1.385 . S
C3260 H3246 0.931 . S
C3260 C3259 1.385 . S
C3260 C3261 1.389 . S
C3261 C3260 1.389 . S
C3261 C3262 1.387 . S
C3262 H3247 0.930 . S
C3262 C3257 1.390 . S
C3262 C3261 1.387 . S
H3263 C3275 0.930 . S
H3264 C3277 0.930 . S
H3265 C3278 0.930 . S
H3266 C3282 0.959 . S
H3267 C3282 0.959 . S
H3268 C3282 0.961 . S
H3269 C3283 0.960 . S
H3270 C3283 0.961 . S
H3271 C3283 0.959 . S
H3272 C3286 0.929 . S
H3273 C3287 0.931 . S
H3274 C3289 0.930 . S
C3275 H3263 0.930 . S
C3275 C3276 1.399 . S
C3275 C3280 1.399 . S
C3276 C3275 1.399 . S
C3276 C3277 1.376 . S
C3277 H3264 0.930 . S
C3277 C3276 1.376 . S
C3277 C3278 1.388 . S
C3278 H3265 0.930 . S
C3278 C3277 1.388 . S
C3278 C3279 1.390 . S
C3279 C3278 1.390 . S
C3279 C3280 1.394 . S
C3279 C3285 1.465 . S
C3280 C3275 1.399 . S
C3280 C3279 1.394 . S
C3280 C3281 1.516 . S
C3281 C3280 1.516 . S
C3281 C3282 1.502 . S
C3281 C3283 1.561 . S
C3281 C3284 1.526 . S
C3282 H3266 0.959 . S
C3282 H3267 0.959 . S
C3282 H3268 0.961 . S
C3282 C3281 1.502 . S
C3283 H3269 0.960 . S
C3283 H3270 0.961 . S
C3283 H3271 0.959 . S
C3283 C3281 1.561 . S
C3284 C3281 1.526 . S
C3284 C3285 1.396 . S
C3284 C3289 1.390 . S
C3285 C3279 1.465 . S
C3285 C3284 1.396 . S
C3285 C3286 1.399 . S
C3286 H3272 0.929 . S
C3286 C3285 1.399 . S
C3286 C3287 1.385 . S
C3287 H3273 0.931 . S
C3287 C3286 1.385 . S
C3287 C3288 1.389 . S
C3288 C3287 1.389 . S
C3288 C3289 1.387 . S
C3289 H3274 0.930 . S
C3289 C3284 1.390 . S
C3289 C3288 1.387 . S
H3290 C3302 0.930 . S
H3291 C3304 0.930 . S
H3292 C3305 0.930 . S
H3293 C3309 0.959 . S
H3294 C3309 0.959 . S
H3295 C3309 0.961 . S
H3296 C3310 0.960 . S
H3297 C3310 0.961 . S
H3298 C3310 0.959 . S
H3299 C3313 0.929 . S
H3300 C3314 0.931 . S
H3301 C3316 0.930 . S
C3302 H3290 0.930 . S
C3302 C3303 1.399 . S
C3302 C3307 1.399 . S
C3303 C3302 1.399 . S
C3303 C3304 1.376 . S
C3304 H3291 0.930 . S
C3304 C3303 1.376 . S
C3304 C3305 1.388 . S
C3305 H3292 0.930 . S
C3305 C3304 1.388 . S
C3305 C3306 1.390 . S
C3306 C3305 1.390 . S
C3306 C3307 1.394 . S
C3306 C3312 1.465 . S
C3307 C3302 1.399 . S
C3307 C3306 1.394 . S
C3307 C3308 1.516 . S
C3308 C3307 1.516 . S
C3308 C3309 1.502 . S
C3308 C3310 1.561 . S
C3308 C3311 1.526 . S
C3309 H3293 0.959 . S
C3309 H3294 0.959 . S
C3309 H3295 0.961 . S
C3309 C3308 1.502 . S
C3310 H3296 0.960 . S
C3310 H3297 0.961 . S
C3310 H3298 0.959 . S
C3310 C3308 1.561 . S
C3311 C3308 1.526 . S
C3311 C3312 1.396 . S
C3311 C3316 1.390 . S
C3312 C3306 1.465 . S
C3312 C3311 1.396 . S
C3312 C3313 1.399 . S
C3313 H3299 0.929 . S
C3313 C3312 1.399 . S
C3313 C3314 1.385 . S
C3314 H3300 0.931 . S
C3314 C3313 1.385 . S
C3314 C3315 1.389 . S
C3315 C3314 1.389 . S
C3315 C3316 1.387 . S
C3316 H3301 0.930 . S
C3316 C3311 1.390 . S
C3316 C3315 1.387 . S
H3317 C3329 0.930 . S
H3318 C3331 0.930 . S
H3319 C3332 0.930 . S
H3320 C3336 0.959 . S
H3321 C3336 0.959 . S
H3322 C3336 0.961 . S
H3323 C3337 0.960 . S
H3324 C3337 0.961 . S
H3325 C3337 0.959 . S
H3326 C3340 0.929 . S
H3327 C3341 0.931 . S
H3328 C3343 0.930 . S
C3329 H3317 0.930 . S
C3329 C3330 1.399 . S
C3329 C3334 1.399 . S
C3330 C3329 1.399 . S
C3330 C3331 1.376 . S
C3331 H3318 0.930 . S
C3331 C3330 1.376 . S
C3331 C3332 1.388 . S
C3332 H3319 0.930 . S
C3332 C3331 1.388 . S
C3332 C3333 1.390 . S
C3333 C3332 1.390 . S
C3333 C3334 1.394 . S
C3333 C3339 1.465 . S
C3334 C3329 1.399 . S
C3334 C3333 1.394 . S
C3334 C3335 1.516 . S
C3335 C3334 1.516 . S
C3335 C3336 1.502 . S
C3335 C3337 1.561 . S
C3335 C3338 1.526 . S
C3336 H3320 0.959 . S
C3336 H3321 0.959 . S
C3336 H3322 0.961 . S
C3336 C3335 1.502 . S
C3337 H3323 0.960 . S
C3337 H3324 0.961 . S
C3337 H3325 0.959 . S
C3337 C3335 1.561 . S
C3338 C3335 1.526 . S
C3338 C3339 1.396 . S
C3338 C3343 1.390 . S
C3339 C3333 1.465 . S
C3339 C3338 1.396 . S
C3339 C3340 1.399 . S
C3340 H3326 0.929 . S
C3340 C3339 1.399 . S
C3340 C3341 1.385 . S
C3341 H3327 0.931 . S
C3341 C3340 1.385 . S
C3341 C3342 1.389 . S
C3342 C3341 1.389 . S
C3342 C3343 1.387 . S
C3343 H3328 0.930 . S
C3343 C3338 1.390 . S
C3343 C3342 1.387 . S
H3344 C3356 0.930 . S
H3345 C3358 0.930 . S
H3346 C3359 0.930 . S
H3347 C3363 0.959 . S
H3348 C3363 0.959 . S
H3349 C3363 0.961 . S
H3350 C3364 0.960 . S
H3351 C3364 0.961 . S
H3352 C3364 0.959 . S
H3353 C3367 0.929 . S
H3354 C3368 0.931 . S
H3355 C3370 0.930 . S
C3356 H3344 0.930 . S
C3356 C3357 1.399 . S
C3356 C3361 1.399 . S
C3357 C3356 1.399 . S
C3357 C3358 1.376 . S
C3358 H3345 0.930 . S
C3358 C3357 1.376 . S
C3358 C3359 1.388 . S
C3359 H3346 0.930 . S
C3359 C3358 1.388 . S
C3359 C3360 1.390 . S
C3360 C3359 1.390 . S
C3360 C3361 1.394 . S
C3360 C3366 1.465 . S
C3361 C3356 1.399 . S
C3361 C3360 1.394 . S
C3361 C3362 1.516 . S
C3362 C3361 1.516 . S
C3362 C3363 1.502 . S
C3362 C3364 1.561 . S
C3362 C3365 1.526 . S
C3363 H3347 0.959 . S
C3363 H3348 0.959 . S
C3363 H3349 0.961 . S
C3363 C3362 1.502 . S
C3364 H3350 0.960 . S
C3364 H3351 0.961 . S
C3364 H3352 0.959 . S
C3364 C3362 1.561 . S
C3365 C3362 1.526 . S
C3365 C3366 1.396 . S
C3365 C3370 1.390 . S
C3366 C3360 1.465 . S
C3366 C3365 1.396 . S
C3366 C3367 1.399 . S
C3367 H3353 0.929 . S
C3367 C3366 1.399 . S
C3367 C3368 1.385 . S
C3368 H3354 0.931 . S
C3368 C3367 1.385 . S
C3368 C3369 1.389 . S
C3369 C3368 1.389 . S
C3369 C3370 1.387 . S
C3370 H3355 0.930 . S
C3370 C3365 1.390 . S
C3370 C3369 1.387 . S
H3371 C3383 0.930 . S
H3372 C3385 0.930 . S
H3373 C3386 0.930 . S
H3374 C3390 0.959 . S
H3375 C3390 0.959 . S
H3376 C3390 0.961 . S
H3377 C3391 0.960 . S
H3378 C3391 0.961 . S
H3379 C3391 0.959 . S
H3380 C3394 0.929 . S
H3381 C3395 0.931 . S
H3382 C3397 0.930 . S
C3383 H3371 0.930 . S
C3383 C3384 1.399 . S
C3383 C3388 1.399 . S
C3384 C3383 1.399 . S
C3384 C3385 1.376 . S
C3385 H3372 0.930 . S
C3385 C3384 1.376 . S
C3385 C3386 1.388 . S
C3386 H3373 0.930 . S
C3386 C3385 1.388 . S
C3386 C3387 1.390 . S
C3387 C3386 1.390 . S
C3387 C3388 1.394 . S
C3387 C3393 1.465 . S
C3388 C3383 1.399 . S
C3388 C3387 1.394 . S
C3388 C3389 1.516 . S
C3389 C3388 1.516 . S
C3389 C3390 1.502 . S
C3389 C3391 1.561 . S
C3389 C3392 1.526 . S
C3390 H3374 0.959 . S
C3390 H3375 0.959 . S
C3390 H3376 0.961 . S
C3390 C3389 1.502 . S
C3391 H3377 0.960 . S
C3391 H3378 0.961 . S
C3391 H3379 0.959 . S
C3391 C3389 1.561 . S
C3392 C3389 1.526 . S
C3392 C3393 1.396 . S
C3392 C3397 1.390 . S
C3393 C3387 1.465 . S
C3393 C3392 1.396 . S
C3393 C3394 1.399 . S
C3394 H3380 0.929 . S
C3394 C3393 1.399 . S
C3394 C3395 1.385 . S
C3395 H3381 0.931 . S
C3395 C3394 1.385 . S
C3395 C3396 1.389 . S
C3396 C3395 1.389 . S
C3396 C3397 1.387 . S
C3397 H3382 0.930 . S
C3397 C3392 1.390 . S
C3397 C3396 1.387 . S
H3398 C3410 0.930 . S
H3399 C3412 0.930 . S
H3400 C3413 0.930 . S
H3401 C3417 0.959 . S
H3402 C3417 0.959 . S
H3403 C3417 0.961 . S
H3404 C3418 0.960 . S
H3405 C3418 0.961 . S
H3406 C3418 0.959 . S
H3407 C3421 0.929 . S
H3408 C3422 0.931 . S
H3409 C3424 0.930 . S
C3410 H3398 0.930 . S
C3410 C3411 1.399 . S
C3410 C3415 1.399 . S
C3411 C3410 1.399 . S
C3411 C3412 1.376 . S
C3412 H3399 0.930 . S
C3412 C3411 1.376 . S
C3412 C3413 1.388 . S
C3413 H3400 0.930 . S
C3413 C3412 1.388 . S
C3413 C3414 1.390 . S
C3414 C3413 1.390 . S
C3414 C3415 1.394 . S
C3414 C3420 1.465 . S
C3415 C3410 1.399 . S
C3415 C3414 1.394 . S
C3415 C3416 1.516 . S
C3416 C3415 1.516 . S
C3416 C3417 1.502 . S
C3416 C3418 1.561 . S
C3416 C3419 1.526 . S
C3417 H3401 0.959 . S
C3417 H3402 0.959 . S
C3417 H3403 0.961 . S
C3417 C3416 1.502 . S
C3418 H3404 0.960 . S
C3418 H3405 0.961 . S
C3418 H3406 0.959 . S
C3418 C3416 1.561 . S
C3419 C3416 1.526 . S
C3419 C3420 1.396 . S
C3419 C3424 1.390 . S
C3420 C3414 1.465 . S
C3420 C3419 1.396 . S
C3420 C3421 1.399 . S
C3421 H3407 0.929 . S
C3421 C3420 1.399 . S
C3421 C3422 1.385 . S
C3422 H3408 0.931 . S
C3422 C3421 1.385 . S
C3422 C3423 1.389 . S
C3423 C3422 1.389 . S
C3423 C3424 1.387 . S
C3424 H3409 0.930 . S
C3424 C3419 1.390 . S
C3424 C3423 1.387 . S
H3425 C3437 0.930 . S
H3426 C3439 0.930 . S
H3427 C3440 0.930 . S
H3428 C3444 0.959 . S
H3429 C3444 0.959 . S
H3430 C3444 0.961 . S
H3431 C3445 0.960 . S
H3432 C3445 0.961 . S
H3433 C3445 0.959 . S
H3434 C3448 0.929 . S
H3435 C3449 0.931 . S
H3436 C3451 0.930 . S
C3437 H3425 0.930 . S
C3437 C3438 1.399 . S
C3437 C3442 1.399 . S
C3438 C3437 1.399 . S
C3438 C3439 1.376 . S
C3439 H3426 0.930 . S
C3439 C3438 1.376 . S
C3439 C3440 1.388 . S
C3440 H3427 0.930 . S
C3440 C3439 1.388 . S
C3440 C3441 1.390 . S
C3441 C3440 1.390 . S
C3441 C3442 1.394 . S
C3441 C3447 1.465 . S
C3442 C3437 1.399 . S
C3442 C3441 1.394 . S
C3442 C3443 1.516 . S
C3443 C3442 1.516 . S
C3443 C3444 1.502 . S
C3443 C3445 1.561 . S
C3443 C3446 1.526 . S
C3444 H3428 0.959 . S
C3444 H3429 0.959 . S
C3444 H3430 0.961 . S
C3444 C3443 1.502 . S
C3445 H3431 0.960 . S
C3445 H3432 0.961 . S
C3445 H3433 0.959 . S
C3445 C3443 1.561 . S
C3446 C3443 1.526 . S
C3446 C3447 1.396 . S
C3446 C3451 1.390 . S
C3447 C3441 1.465 . S
C3447 C3446 1.396 . S
C3447 C3448 1.399 . S
C3448 H3434 0.929 . S
C3448 C3447 1.399 . S
C3448 C3449 1.385 . S
C3449 H3435 0.931 . S
C3449 C3448 1.385 . S
C3449 C3450 1.389 . S
C3450 C3449 1.389 . S
C3450 C3451 1.387 . S
C3451 H3436 0.930 . S
C3451 C3446 1.390 . S
C3451 C3450 1.387 . S
H3452 C3464 0.930 . S
H3453 C3466 0.930 . S
H3454 C3467 0.930 . S
H3455 C3471 0.959 . S
H3456 C3471 0.959 . S
H3457 C3471 0.961 . S
H3458 C3472 0.960 . S
H3459 C3472 0.961 . S
H3460 C3472 0.959 . S
H3461 C3475 0.929 . S
H3462 C3476 0.931 . S
H3463 C3478 0.930 . S
C3464 H3452 0.930 . S
C3464 C3465 1.399 . S
C3464 C3469 1.399 . S
C3465 C3464 1.399 . S
C3465 C3466 1.376 . S
C3466 H3453 0.930 . S
C3466 C3465 1.376 . S
C3466 C3467 1.388 . S
C3467 H3454 0.930 . S
C3467 C3466 1.388 . S
C3467 C3468 1.390 . S
C3468 C3467 1.390 . S
C3468 C3469 1.394 . S
C3468 C3474 1.465 . S
C3469 C3464 1.399 . S
C3469 C3468 1.394 . S
C3469 C3470 1.516 . S
C3470 C3469 1.516 . S
C3470 C3471 1.502 . S
C3470 C3472 1.561 . S
C3470 C3473 1.526 . S
C3471 H3455 0.959 . S
C3471 H3456 0.959 . S
C3471 H3457 0.961 . S
C3471 C3470 1.502 . S
C3472 H3458 0.960 . S
C3472 H3459 0.961 . S
C3472 H3460 0.959 . S
C3472 C3470 1.561 . S
C3473 C3470 1.526 . S
C3473 C3474 1.396 . S
C3473 C3478 1.390 . S
C3474 C3468 1.465 . S
C3474 C3473 1.396 . S
C3474 C3475 1.399 . S
C3475 H3461 0.929 . S
C3475 C3474 1.399 . S
C3475 C3476 1.385 . S
C3476 H3462 0.931 . S
C3476 C3475 1.385 . S
C3476 C3477 1.389 . S
C3477 C3476 1.389 . S
C3477 C3478 1.387 . S
C3478 H3463 0.930 . S
C3478 C3473 1.390 . S
C3478 C3477 1.387 . S
H3479 C3491 0.930 . S
H3480 C3493 0.930 . S
H3481 C3494 0.930 . S
H3482 C3498 0.959 . S
H3483 C3498 0.959 . S
H3484 C3498 0.961 . S
H3485 C3499 0.960 . S
H3486 C3499 0.961 . S
H3487 C3499 0.959 . S
H3488 C3502 0.929 . S
H3489 C3503 0.931 . S
H3490 C3505 0.930 . S
C3491 H3479 0.930 . S
C3491 C3492 1.399 . S
C3491 C3496 1.399 . S
C3492 C3491 1.399 . S
C3492 C3493 1.376 . S
C3493 H3480 0.930 . S
C3493 C3492 1.376 . S
C3493 C3494 1.388 . S
C3494 H3481 0.930 . S
C3494 C3493 1.388 . S
C3494 C3495 1.390 . S
C3495 C3494 1.390 . S
C3495 C3496 1.394 . S
C3495 C3501 1.465 . S
C3496 C3491 1.399 . S
C3496 C3495 1.394 . S
C3496 C3497 1.516 . S
C3497 C3496 1.516 . S
C3497 C3498 1.502 . S
C3497 C3499 1.561 . S
C3497 C3500 1.526 . S
C3498 H3482 0.959 . S
C3498 H3483 0.959 . S
C3498 H3484 0.961 . S
C3498 C3497 1.502 . S
C3499 H3485 0.960 . S
C3499 H3486 0.961 . S
C3499 H3487 0.959 . S
C3499 C3497 1.561 . S
C3500 C3497 1.526 . S
C3500 C3501 1.396 . S
C3500 C3505 1.390 . S
C3501 C3495 1.465 . S
C3501 C3500 1.396 . S
C3501 C3502 1.399 . S
C3502 H3488 0.929 . S
C3502 C3501 1.399 . S
C3502 C3503 1.385 . S
C3503 H3489 0.931 . S
C3503 C3502 1.385 . S
C3503 C3504 1.389 . S
C3504 C3503 1.389 . S
C3504 C3505 1.387 . S
C3505 H3490 0.930 . S
C3505 C3500 1.390 . S
C3505 C3504 1.387 . S
H3506 C3518 0.930 . S
H3507 C3520 0.930 . S
H3508 C3521 0.930 . S
H3509 C3525 0.959 . S
H3510 C3525 0.959 . S
H3511 C3525 0.961 . S
H3512 C3526 0.960 . S
H3513 C3526 0.961 . S
H3514 C3526 0.959 . S
H3515 C3529 0.929 . S
H3516 C3530 0.931 . S
H3517 C3532 0.930 . S
C3518 H3506 0.930 . S
C3518 C3519 1.399 . S
C3518 C3523 1.399 . S
C3519 C3518 1.399 . S
C3519 C3520 1.376 . S
C3520 H3507 0.930 . S
C3520 C3519 1.376 . S
C3520 C3521 1.388 . S
C3521 H3508 0.930 . S
C3521 C3520 1.388 . S
C3521 C3522 1.390 . S
C3522 C3521 1.390 . S
C3522 C3523 1.394 . S
C3522 C3528 1.465 . S
C3523 C3518 1.399 . S
C3523 C3522 1.394 . S
C3523 C3524 1.516 . S
C3524 C3523 1.516 . S
C3524 C3525 1.502 . S
C3524 C3526 1.561 . S
C3524 C3527 1.526 . S
C3525 H3509 0.959 . S
C3525 H3510 0.959 . S
C3525 H3511 0.961 . S
C3525 C3524 1.502 . S
C3526 H3512 0.960 . S
C3526 H3513 0.961 . S
C3526 H3514 0.959 . S
C3526 C3524 1.561 . S
C3527 C3524 1.526 . S
C3527 C3528 1.396 . S
C3527 C3532 1.390 . S
C3528 C3522 1.465 . S
C3528 C3527 1.396 . S
C3528 C3529 1.399 . S
C3529 H3515 0.929 . S
C3529 C3528 1.399 . S
C3529 C3530 1.385 . S
C3530 H3516 0.931 . S
C3530 C3529 1.385 . S
C3530 C3531 1.389 . S
C3531 C3530 1.389 . S
C3531 C3532 1.387 . S
C3532 H3517 0.930 . S
C3532 C3527 1.390 . S
C3532 C3531 1.387 . S
H3533 C3545 0.930 . S
H3534 C3547 0.930 . S
H3535 C3548 0.930 . S
H3536 C3552 0.959 . S
H3537 C3552 0.959 . S
H3538 C3552 0.961 . S
H3539 C3553 0.960 . S
H3540 C3553 0.961 . S
H3541 C3553 0.959 . S
H3542 C3556 0.929 . S
H3543 C3557 0.931 . S
H3544 C3559 0.930 . S
C3545 H3533 0.930 . S
C3545 C3546 1.399 . S
C3545 C3550 1.399 . S
C3546 C3545 1.399 . S
C3546 C3547 1.376 . S
C3547 H3534 0.930 . S
C3547 C3546 1.376 . S
C3547 C3548 1.388 . S
C3548 H3535 0.930 . S
C3548 C3547 1.388 . S
C3548 C3549 1.390 . S
C3549 C3548 1.390 . S
C3549 C3550 1.394 . S
C3549 C3555 1.465 . S
C3550 C3545 1.399 . S
C3550 C3549 1.394 . S
C3550 C3551 1.516 . S
C3551 C3550 1.516 . S
C3551 C3552 1.502 . S
C3551 C3553 1.561 . S
C3551 C3554 1.526 . S
C3552 H3536 0.959 . S
C3552 H3537 0.959 . S
C3552 H3538 0.961 . S
C3552 C3551 1.502 . S
C3553 H3539 0.960 . S
C3553 H3540 0.961 . S
C3553 H3541 0.959 . S
C3553 C3551 1.561 . S
C3554 C3551 1.526 . S
C3554 C3555 1.396 . S
C3554 C3559 1.390 . S
C3555 C3549 1.465 . S
C3555 C3554 1.396 . S
C3555 C3556 1.399 . S
C3556 H3542 0.929 . S
C3556 C3555 1.399 . S
C3556 C3557 1.385 . S
C3557 H3543 0.931 . S
C3557 C3556 1.385 . S
C3557 C3558 1.389 . S
C3558 C3557 1.389 . S
C3558 C3559 1.387 . S
C3559 H3544 0.930 . S
C3559 C3554 1.390 . S
C3559 C3558 1.387 . S
C993 N428 1.668 . S
C981 N5 1.708 . S
C1020 C455 1.594 . S
C1008 N15 1.624 . S
C1035 N31 1.669 . S
C1047 C469 1.714 . S
C1074 N487 1.494 . S
C1062 N40 1.540 . S
C1089 N53 1.486 . S
C1101 C492 1.480 . S
C1116 N70 1.615 . S
C1128 C432 1.627 . S
C1143 N80 1.482 . S
C1155 N451 1.450 . S
C1182 N464 1.709 . S
C1170 N92 1.732 . S
C1209 N510 1.641 . S
C1197 N2 1.728 . S
C1224 N14 1.428 . S
C1236 N533 1.381 . S
C1251 N27 1.715 . S
C1263 N556 1.717 . S
C1290 N589 1.601 . S
C1278 N44 1.683 . S
C1305 N54 1.340 . S
C1317 C616 1.372 . S
C1344 C639 1.401 . S
C1332 N67 1.381 . S
C1359 N83 1.285 . S
C1371 C662 1.279 1_655 S
C1398 C676 1.532 1_565 S
C1386 N93 1.573 . S
C1413 N1 1.652 . S
C1425 C593 1.601 . S
C1440 N57 1.449 . S
C1452 N635 1.437 . S
C1479 N658 1.742 . S
C1467 N66 1.740 . S
C1494 N79 1.824 . S
C1506 N671 1.773 . S
C1533 N612 1.725 . S
C1521 N96 1.785 . S
C1560 C538 1.578 . S
C1548 N28 1.596 . S
C1575 N41 1.425 . S
C1587 C561 1.417 . S
C1614 C515 1.509 . S
C1602 N18 1.528 . S
C1641 C708 1.732 . S
C1629 N109 1.721 . S
C1656 N119 1.493 . S
C1668 C722 1.477 . S
C1683 N135 1.604 . S
C1695 N750 1.584 . S
C1722 N763 1.432 . S
C1710 N144 1.517 . S
C1737 N157 1.512 . S
C1749 C768 1.502 . S
C1764 N174 1.636 . S
C1776 N704 1.567 . S
C1791 N184 1.603 . S
C1803 N717 1.456 . S
C1818 N196 1.726 . S
C1830 C754 1.732 . S
C1857 N602 1.596 . S
C1845 N106 1.704 . S
C1872 N118 1.448 . S
C1884 N786 1.359 . S
C1911 N648 1.619 . S
C1899 N131 1.656 . S
C1926 N148 1.765 . S
C1938 C823 1.756 . S
C1953 N158 1.490 . S
C1965 C524 1.464 . S
C1992 C837 1.455 . S
C1980 N171 1.440 . S
C2007 N187 1.395 . S
C2019 C570 1.380 . S
C2046 N855 1.556 . S
C2034 N197 1.632 . S
C2061 N105 1.645 . S
C2073 N819 1.645 . S
C2100 N832 1.437 . S
C2088 N161 1.479 . S
C2115 N170 1.769 . S
C2127 N566 1.787 . S
C2154 C860 1.750 . S
C2142 N183 1.758 . S
C2169 N200 1.782 . S
C2181 N520 1.766 . S
C2196 N132 1.506 . S
C2208 C791 1.504 . S
C2223 N145 1.448 . S
C2235 C653 1.455 . S
C2250 N122 1.373 . S
C2262 C607 1.374 . S
C2277 N213 1.767 . S
C2289 C745 1.763 . S
C2316 C777 1.488 . S
C2304 N223 1.509 . S
C2331 N239 1.657 . S
C2343 N694 1.646 . S
C2358 N248 1.541 . S
C2370 N727 1.540 . S
C2385 N261 1.528 . S
C2397 C731 1.531 . S
C2412 N278 1.646 . S
C2424 N740 1.631 . S
C2451 N773 1.426 . S
C2439 N288 1.483 . S
C2466 N300 1.768 . S
C2478 C699 1.765 . S
C2505 N888 1.719 . S
C2493 N210 1.781 . S
C2520 N222 1.451 . S
C2532 N625 1.424 . S
C2559 N911 1.559 . S
C2547 N235 1.629 . S
C2574 N252 1.743 . S
C2586 N681 1.650 . S
C2601 N262 1.443 . S
C2613 C929 1.373 . S
C2628 N275 1.455 . S
C2640 C547 1.474 . S
C2667 N947 1.207 . S
C2655 N291 1.288 . S
C2682 N301 1.601 . S
C2694 C584 1.603 . S
C2721 C685 1.655 . S
C2709 N209 1.695 . S
C2748 N543 1.368 . S
C2736 N265 1.434 . S
C2763 N274 1.833 . S
C2775 C952 1.888 . S
C2790 N287 1.739 . S
C2802 N579 1.737 . S
C2829 N924 1.733 . S
C2817 N304 1.826 . S
C2856 C630 1.511 . S
C2844 N236 1.525 . S
C2883 C915 1.438 . S
C2871 N249 1.445 . S
C2910 C892 1.397 . S
C2898 N226 1.416 . S
C2925 N317 1.659 . S
C2937 N474 1.624 . S
C2952 N327 1.506 . S
C2964 C501 1.496 . S
C2991 C423 1.700 . S
C2979 N343 1.706 . S
C3018 N441 1.432 . S
C3006 N352 1.474 . S
C3045 C446 1.509 . S
C3033 N365 1.582 . S
C3072 C478 1.642 . S
C3060 N382 1.619 . S
C3099 N497 1.534 . S
C3087 N392 1.596 . S
C3114 N404 1.727 . S
C3126 N418 1.718 . S
C3141 N314 1.671 . S
C3153 N934 1.638 . S
C3180 N842 1.402 . S
C3168 N326 1.417 . S
C3207 C961 1.768 . S
C3195 N339 1.755 . S
C3234 C869 1.610 . S
C3222 N356 1.615 . S
C3249 N366 1.423 . S
C3261 C883 1.453 . S
C3288 C800 1.413 . S
C3276 N379 1.428 . S
C3315 C906 1.448 . S
C3303 N395 1.450 . S
C3330 N405 1.595 . S
C3342 N809 1.447 . S
C3369 N865 1.587 . S
C3357 N313 1.666 . S
C3396 N796 1.384 . S
C3384 N369 1.435 . S
C3423 N901 1.789 . S
C3411 N378 1.747 . S
C3438 N391 1.854 . S
C3450 C814 1.802 . S
C3465 N408 1.775 . S
C3477 N878 1.678 . S
C3492 N340 1.612 . S
C3504 C846 1.611 . S
C3519 N353 1.405 . S
C3531 N957 1.375 . S
C3558 C938 1.444 . S
C3546 N330 1.448 . S
