# Generated by pormake.
# Topology pts, (4,4)-cn, num edge types: 1
# Building blocks:
#     Node 0, Type 0, BuildingBlock: MIFKUJ_clean_linker_1, # of connection points: 4
#     Node 1, Type 0, BuildingBlock: MIFKUJ_clean_linker_1, # of connection points: 4
#     Node 2, Type 1, BuildingBlock: QUQFOY_clean_sbu_1, # of connection points: 4
#     Node 3, Type 1, BuildingBlock: QUQFOY_clean_sbu_1, # of connection points: 4
#     Edge 4, Type (0, 1), BuildingBlock: TEMPAE_clean_linker_10, # of connection points: 2
#     Edge 5, Type (0, 1), BuildingBlock: TEMPAE_clean_linker_10, # of connection points: 2
#     Edge 6, Type (0, 1), BuildingBlock: TEMPAE_clean_linker_10, # of connection points: 2
#     Edge 7, Type (0, 1), BuildingBlock: TEMPAE_clean_linker_10, # of connection points: 2
#     Edge 8, Type (0, 1), BuildingBlock: TEMPAE_clean_linker_10, # of connection points: 2
#     Edge 9, Type (0, 1), BuildingBlock: TEMPAE_clean_linker_10, # of connection points: 2
#     Edge 10, Type (0, 1), BuildingBlock: TEMPAE_clean_linker_10, # of connection points: 2
#     Edge 11, Type (0, 1), BuildingBlock: TEMPAE_clean_linker_10, # of connection points: 2
# Relax obj value: 0.096
# Max RMSD: 0.259
# Mean RMSD: 0.154
data_MOF--net-pts--node1-QUQFOY_clean_sbu_1--node2-MIFKUJ_clean_linker_1--edge1-TEMPAE_clean_linker_10
_symmetry_space_group_name_H-M    P1
_symmetry_Int_Tables_number       1
_symmetry_cell_setting            triclinic
loop_
_symmetry_equiv_pos_as_xyz
'x, y, z'
_cell_length_a     28.705954
_cell_length_b     31.669169
_cell_length_c     44.675724
_cell_angle_alpha  90.058233
_cell_angle_beta   89.978243
_cell_angle_gamma 89.992578
loop_
_atom_site_label
_atom_site_type_symbol
_atom_site_fract_x
_atom_site_fract_y
_atom_site_fract_z
_atom_type_partial_charge
H0 H 0.56334 0.94563 0.05315 0.0
H1 H 0.62826 0.9474 0.08849 0.0
H2 H 0.67416 0.06583 0.05086 0.0
H3 H 0.60847 0.06453 0.01587 0.0
H4 H 0.49473 0.99756 0.0523 0.0
H5 H 0.61035 0.95698 0.98026 0.0
H6 H 0.67672 0.95725 0.94575 0.0
H7 H 0.62908 0.07544 0.9086 0.0
H8 H 0.56336 0.0755 0.94336 0.0
H9 H 0.42809 0.07545 0.94351 0.0
H10 H 0.36294 0.0759 0.90834 0.0
H11 H 0.3163 0.95597 0.94315 0.0
H12 H 0.38208 0.95525 0.97809 0.0
H13 H 0.49616 0.02145 0.94284 0.0
H14 H 0.38075 0.06187 0.01579 0.0
H15 H 0.3143 0.06046 0.05019 0.0
H16 H 0.36165 0.94089 0.08526 0.0
H17 H 0.42757 0.94211 0.05066 0.0
C18 C 0.58103 0.00488 0.03178 0.0
C19 C 0.58758 0.97184 0.0523 0.0
C20 C 0.62452 0.97291 0.07253 0.0
C21 C 0.65587 0.00693 0.07252 0.0
C22 C 0.65056 0.03914 0.05119 0.0
C23 C 0.61321 0.03829 0.0311 0.0
C24 C 0.53799 0.00629 0.01344 0.0
C25 C 0.4951 0.00203 0.02822 0.0
C26 C 0.53838 0.01371 0.98225 0.0
C27 C 0.5819 0.01627 0.96445 0.0
C28 C 0.61484 0.98349 0.96523 0.0
C29 C 0.65261 0.98356 0.94544 0.0
C30 C 0.65762 0.01614 0.92433 0.0
C31 C 0.62559 0.04964 0.92435 0.0
C32 C 0.58819 0.04975 0.94426 0.0
C33 C 0.40995 0.01537 0.96349 0.0
C34 C 0.40361 0.04941 0.94379 0.0
C35 C 0.36654 0.04958 0.92364 0.0
C36 C 0.33492 0.01579 0.92288 0.0
C37 C 0.34008 0.98252 0.94342 0.0
C38 C 0.3775 0.98218 0.96346 0.0
C39 C 0.453 0.01292 0.98173 0.0
C40 C 0.49587 0.01694 0.96691 0.0
C41 C 0.45261 0.00514 0.01286 0.0
C42 C 0.40909 0.00203 0.03059 0.0
C43 C 0.37618 0.03485 0.03034 0.0
C44 C 0.33835 0.0341 0.05007 0.0
C45 C 0.33319 1.00077 0.07056 0.0
C46 C 0.36521 0.96726 0.07 0.0
C47 C 0.40273 0.96787 0.05017 0.0
H48 H 0.05738 0.44775 0.43859 0.0
H49 H 0.05702 0.38196 0.40993 0.0
H50 H 0.93216 0.34264 0.45625 0.0
H51 H 0.93178 0.40923 0.48402 0.0
H52 H -0.00364 0.51202 0.44194 0.0
H53 H 0.06047 0.40883 0.50948 0.0
H54 H 0.06022 0.34167 0.53646 0.0
H55 H 0.93567 0.38017 0.58356 0.0
H56 H 0.93514 0.44647 0.55565 0.0
H57 H 0.93093 0.613 0.51075 0.0
H58 H 0.93062 0.6797 0.5384 0.0
H59 H 0.05559 0.64136 0.58496 0.0
H60 H 0.0566 0.57545 0.55645 0.0
H61 H -0.00419 0.51071 0.55303 0.0
H62 H 0.93495 0.57655 0.43956 0.0
H63 H 0.93546 0.64309 0.41187 0.0
H64 H 0.06057 0.68086 0.45855 0.0
H65 H 0.06071 0.61358 0.48543 0.0
C66 C 0.99485 0.43328 0.4636 0.0
C67 C 0.02977 0.42507 0.44241 0.0
C68 C 0.0298 0.38723 0.4263 0.0
C69 C 0.99479 0.35685 0.431 0.0
C70 C 0.95948 0.36543 0.45198 0.0
C71 C 0.9594 0.40335 0.46802 0.0
C72 C -0.00402 0.4729 0.48138 0.0
C73 C -0.00375 0.51172 0.46622 0.0
C74 C -0.00364 0.47253 0.51307 0.0
C75 C -0.00247 0.4325 0.53032 0.0
C76 C 0.03293 0.40263 0.52546 0.0
C77 C 0.03293 0.36438 0.54106 0.0
C78 C -0.00225 0.35541 0.56204 0.0
C79 C 0.96277 0.38571 0.56716 0.0
C80 C 0.96272 0.42386 0.55149 0.0
C81 C 0.99407 0.58943 0.53132 0.0
C82 C 0.95841 0.61912 0.52678 0.0
C83 C 0.9581 0.6571 0.54275 0.0
C84 C 0.99325 0.66599 0.56376 0.0
C85 C 0.02848 0.63585 0.56857 0.0
C86 C 0.02882 0.59794 0.55255 0.0
C87 C -0.00437 0.54979 0.51358 0.0
C88 C -0.00407 0.51099 0.52875 0.0
C89 C -0.00366 0.55016 0.4819 0.0
C90 C -0.00242 0.59021 0.46469 0.0
C91 C 0.96264 0.59906 0.44368 0.0
C92 C 0.96269 0.63732 0.42813 0.0
C93 C -0.00217 0.66746 0.43321 0.0
C94 C 0.03315 0.65826 0.45402 0.0
C95 C 0.03311 0.61994 0.46953 0.0
O96 O 0.93314 0.97701 0.23226 0.0
Cd97 Cd 0.99436 0.96743 0.25518 0.0
Cd98 Cd -0.00345 0.05472 0.25394 0.0
O99 O 0.93504 0.04659 0.23073 0.0
O100 O 0.99264 0.90607 0.26449 0.0
O101 O -0.00421 0.95516 0.29957 0.0
C102 C 0.99417 0.91562 0.29249 0.0
C103 C -0.00236 0.10741 0.29064 0.0
C104 C 0.91544 0.01187 0.22403 0.0
C105 C 0.07459 0.0083 0.22311 0.0
O106 O 0.05759 0.04377 0.23076 0.0
O107 O 0.05472 0.97418 0.23084 0.0
O108 O -0.00154 0.11632 0.26252 0.0
O109 O -0.00372 0.06804 0.29815 0.0
O110 O 0.9346 0.04648 0.76386 0.0
Cd111 Cd -0.0047 0.05544 0.74023 0.0
Cd112 Cd -0.00404 0.96811 0.74077 0.0
O113 O 0.93515 0.97685 0.76464 0.0
O114 O 0.99438 0.11686 0.73103 0.0
O115 O -0.00437 0.06783 0.69586 0.0
C116 C 0.99491 0.10736 0.70301 0.0
C117 C -0.0044 0.91545 0.70402 0.0
C118 C 0.91643 0.01174 0.77194 0.0
C119 C 0.0756 0.01296 0.77105 0.0
O120 O 0.05769 0.97789 0.76339 0.0
O121 O 0.05623 0.04751 0.76377 0.0
O122 O -0.00328 0.9065 0.73212 0.0
O123 O 0.99463 0.95484 0.69654 0.0
C124 C 0.25007 0.0117 0.08573 0.0
C125 C 0.29604 0.00187 0.09357 0.0
C126 C 0.21478 0.01278 0.10747 0.0
C127 C 0.22598 0.00429 0.13776 0.0
C128 C 0.27246 0.99476 0.14582 0.0
C129 C 0.3069 0.99349 0.12359 0.0
C130 C 0.16547 0.02263 0.09802 0.0
C131 C 0.28582 0.98601 0.17791 0.0
C132 C 0.14092 0.04357 0.19662 0.0
C133 C 0.11574 0.00673 0.20313 0.0
C134 C 0.17756 0.04306 0.17582 0.0
C135 C 0.18892 0.00493 0.16097 0.0
C136 C 0.1643 0.96748 0.16787 0.0
C137 C 0.12819 0.96878 0.18899 0.0
C138 C 0.20355 0.08349 0.16933 0.0
C139 C 0.1753 0.92625 0.15237 0.0
H140 H 0.24161 0.01794 0.0625 0.0
H141 H 0.34261 0.98652 0.12976 0.0
H142 H 0.14218 0.996 0.10406 0.0
H143 H 0.15267 0.05096 0.11011 0.0
H144 H 0.16257 0.02842 0.07357 0.0
H145 H 0.32367 0.97968 0.18049 0.0
H146 H 0.27637 0.01337 0.19222 0.0
H147 H 0.26619 0.95833 0.1864 0.0
H148 H 0.13166 0.07299 0.20753 0.0
H149 H 0.10883 0.94018 0.19378 0.0
H150 H 0.19834 0.0926 0.14559 0.0
H151 H 0.24149 0.07872 0.17266 0.0
H152 H 0.19188 0.11 0.1838 0.0
H153 H 0.16946 0.92952 0.12793 0.0
H154 H 0.15357 0.89976 0.16077 0.0
H155 H 0.21252 0.91802 0.15561 0.0
C156 C 0.95611 0.29348 0.58465 0.0
C157 C -0.00208 0.31506 0.57908 0.0
C158 C 0.95525 0.2571 0.60256 0.0
C159 C -0.00275 0.24181 0.61513 0.0
C160 C 0.03982 0.26241 0.6086 0.0
C161 C 0.03963 0.29884 0.59072 0.0
C162 C 0.90916 0.23598 0.60896 0.0
C163 C 0.08535 0.24704 0.62153 0.0
C164 C 0.99004 0.18345 0.68903 0.0
C165 C 0.99485 0.14119 0.68011 0.0
C166 C 0.99048 0.2163 0.66806 0.0
C167 C -0.00391 0.20679 0.63731 0.0
C168 C 0.00081 0.1642 0.62805 0.0
C169 C 1e-05 0.13182 0.64959 0.0
C170 C 0.98507 0.26127 0.67886 0.0
C171 C 0.00704 0.15293 0.59546 0.0
H172 H 0.92386 0.30533 0.57526 0.0
H173 H 0.07203 0.31548 0.58675 0.0
H174 H 0.91133 0.20168 0.6041 0.0
H175 H 0.90057 0.23942 0.63306 0.0
H176 H 0.88026 0.24973 0.59561 0.0
H177 H 0.11579 0.26408 0.61207 0.0
H178 H 0.08521 0.2516 0.64616 0.0
H179 H 0.08973 0.21276 0.61725 0.0
H180 H 0.98588 0.19102 0.71255 0.0
H181 H 0.00381 0.09925 0.64254 0.0
H182 H 0.95448 0.27615 0.66795 0.0
H183 H 0.01618 0.28002 0.67253 0.0
H184 H 0.98048 0.26326 0.70351 0.0
H185 H 0.97728 0.16513 0.5822 0.0
H186 H 0.00973 0.1183 0.59188 0.0
H187 H 0.03901 0.16814 0.58661 0.0
C188 C 0.73891 0.01806 0.08757 0.0
C189 C 0.69271 0.00949 0.09561 0.0
C190 C 0.77416 0.01945 0.10931 0.0
C191 C 0.76267 0.0127 0.13978 0.0
C192 C 0.71587 0.00496 0.14805 0.0
C193 C 0.68148 0.00319 0.12582 0.0
C194 C 0.8238 0.02731 0.09962 0.0
C195 C 0.70219 0.99823 0.18035 0.0
C196 C 0.85889 0.97409 0.191 0.0
C197 C 0.87381 0.01179 0.20446 0.0
C198 C 0.82243 0.97393 0.17015 0.0
C199 C 0.79991 0.0123 0.16285 0.0
C200 C 0.81368 0.05025 0.17708 0.0
C201 C 0.85069 0.0496 0.1976 0.0
C202 C 0.80888 0.93285 0.1553 0.0
C203 C 0.7899 0.09165 0.17019 0.0
H204 H 0.74759 0.02273 0.06419 0.0
H205 H 0.64559 0.99719 0.13209 0.0
H206 H 0.83805 0.05527 0.11146 0.0
H207 H 0.84585 0.99987 0.10575 0.0
H208 H 0.82677 0.03264 0.07512 0.0
H209 H 0.66398 0.99436 0.18315 0.0
H210 H 0.71975 0.96966 0.18922 0.0
H211 H 0.71383 0.02539 0.19416 0.0
H212 H 0.87664 0.94474 0.19607 0.0
H213 H 0.86187 0.07883 0.20799 0.0
H214 H 0.8145 0.93519 0.13078 0.0
H215 H 0.77131 0.92644 0.1589 0.0
H216 H 0.82923 0.90562 0.16392 0.0
H217 H 0.79557 0.10003 0.14636 0.0
H218 H 0.80304 0.11789 0.18438 0.0
H219 H 0.75175 0.08867 0.1736 0.0
C220 C 0.03451 0.72811 0.58643 0.0
C221 C 0.99288 0.70617 0.58104 0.0
C222 C 0.03516 0.76455 0.60434 0.0
C223 C 0.99314 0.77949 0.61712 0.0
C224 C 0.95075 0.75841 0.61088 0.0
C225 C 0.95114 0.72196 0.59296 0.0
C226 C 0.08107 0.78619 0.61041 0.0
C227 C 0.90521 0.77338 0.62408 0.0
C228 C 0.00076 0.83913 0.69058 0.0
C229 C -0.0046 0.8812 0.68139 0.0
C230 C 0.00031 0.80592 0.66984 0.0
C231 C 0.99411 0.81486 0.63908 0.0
C232 C 0.98875 0.85724 0.62956 0.0
C233 C 0.98959 0.88999 0.65085 0.0
C234 C 0.00642 0.76119 0.68091 0.0
C235 C 0.98187 0.8679 0.59693 0.0
H236 H 0.06677 0.71656 0.57682 0.0
H237 H 0.91888 0.70502 0.58913 0.0
H238 H 0.07846 0.82037 0.6053 0.0
H239 H 0.08987 0.78329 0.63451 0.0
H240 H 0.11002 0.77248 0.59706 0.0
H241 H 0.87487 0.75578 0.61498 0.0
H242 H 0.90587 0.76924 0.64873 0.0
H243 H 0.9002 0.80752 0.61959 0.0
H244 H 0.00542 0.83201 0.71412 0.0
H245 H 0.98536 0.92241 0.6436 0.0
H246 H 0.03709 0.74647 0.66996 0.0
H247 H 0.97549 0.742 0.67486 0.0
H248 H 0.01129 0.75964 0.70555 0.0
H249 H 0.01167 0.85594 0.58357 0.0
H250 H 0.97851 0.90243 0.59315 0.0
H251 H 0.95006 0.85209 0.58837 0.0
C252 C 0.3091 0.0229 0.86977 0.0
C253 C 0.29801 0.01453 0.89975 0.0
C254 C 0.27473 0.02205 0.84749 0.0
C255 C 0.22811 0.01298 0.85549 0.0
C256 C 0.21673 0.0043 0.88573 0.0
C257 C 0.25194 0.00492 0.90751 0.0
C258 C 0.28828 0.03093 0.81544 0.0
C259 C 0.16727 0.99491 0.89511 0.0
C260 C 0.13068 0.05106 0.80496 0.0
C261 C 0.11722 0.01355 0.79063 0.0
C262 C 0.1671 0.05139 0.82586 0.0
C263 C 0.191 0.0134 0.83233 0.0
C264 C 0.17871 0.97573 0.81721 0.0
C265 C 0.14177 0.97619 0.79664 0.0
C266 C 0.17912 0.09215 0.84166 0.0
C267 C 0.20393 0.93476 0.82322 0.0
H268 H 0.34488 0.02971 0.86368 0.0
H269 H 0.24332 0.99868 0.93071 0.0
H270 H 0.27798 0.00406 0.80093 0.0
H271 H 0.26948 0.05923 0.80721 0.0
H272 H 0.3263 0.03635 0.81286 0.0
H273 H 0.1643 0.98855 0.91949 0.0
H274 H 0.14445 0.02204 0.88945 0.0
H275 H 0.15393 0.96709 0.88269 0.0
H276 H 0.11184 0.08005 0.80055 0.0
H277 H 0.13174 0.94712 0.78556 0.0
H278 H 0.2165 0.09972 0.83841 0.0
H279 H 0.17326 0.08861 0.86608 0.0
H280 H 0.15798 0.11918 0.8335 0.0
H281 H 0.24196 0.939 0.81996 0.0
H282 H 0.1918 0.90878 0.80842 0.0
H283 H 0.19847 0.92516 0.84684 0.0
C284 C 0.9532 0.3007 0.40168 0.0
C285 C 0.9948 0.31675 0.41361 0.0
C286 C 0.95313 0.2643 0.38372 0.0
C287 C -0.00429 0.24352 0.37743 0.0
C288 C 0.03761 0.25875 0.39018 0.0
C289 C 0.03663 0.29513 0.40815 0.0
C290 C 0.90772 0.24902 0.37055 0.0
C291 C 0.0837 0.23745 0.38404 0.0
C292 C 0.99248 0.13295 0.34382 0.0
C293 C -0.00204 0.14169 0.31324 0.0
C294 C 0.99179 0.16573 0.36509 0.0
C295 C -0.00307 0.20811 0.35551 0.0
C296 C 0.00292 0.21699 0.32472 0.0
C297 C 0.00326 0.18374 0.304 0.0
C298 C 0.98519 0.15511 0.39775 0.0
C299 C 0.00878 0.26172 0.31358 0.0
H300 H 0.92079 0.31739 0.40556 0.0
H301 H 0.06879 0.30688 0.41775 0.0
H302 H 0.90838 0.25305 0.34588 0.0
H303 H 0.90295 0.21486 0.37511 0.0
H304 H 0.87724 0.26648 0.37961 0.0
H305 H 0.11256 0.2514 0.39734 0.0
H306 H 0.08142 0.20326 0.3892 0.0
H307 H 0.0924 0.24037 0.35993 0.0
H308 H 0.98831 0.10054 0.35112 0.0
H309 H 0.00767 0.19083 0.28044 0.0
H310 H 0.95318 0.1706 0.40633 0.0
H311 H 0.01485 0.16746 0.41104 0.0
H312 H 0.98232 0.12056 0.4016 0.0
H313 H 0.97771 0.28077 0.3196 0.0
H314 H 0.01369 0.26322 0.28894 0.0
H315 H 0.03932 0.27664 0.32453 0.0
C316 C 0.74087 0.00566 0.90934 0.0
C317 C 0.69469 0.01431 0.90132 0.0
C318 C 0.7762 0.00456 0.88762 0.0
C319 C 0.76482 0.01173 0.85719 0.0
C320 C 0.71807 0.01973 0.84894 0.0
C321 C 0.6836 0.02114 0.87114 0.0
C322 C 0.82579 0.99638 0.89728 0.0
C323 C 0.70451 0.02697 0.81669 0.0
C324 C 0.86106 0.04979 0.8057 0.0
C325 C 0.87527 0.01207 0.79194 0.0
C326 C 0.82492 0.05013 0.82681 0.0
C327 C 0.80203 0.01193 0.83408 0.0
C328 C 0.81518 0.97396 0.81964 0.0
C329 C 0.85185 0.97443 0.79884 0.0
C330 C 0.812 0.09123 0.84188 0.0
C331 C 0.79105 0.93273 0.82652 0.0
H332 H 0.74947 1.00058 0.93269 0.0
H333 H 0.64773 0.02718 0.86487 0.0
H334 H 0.83981 0.96835 0.8854 0.0
H335 H 0.84805 0.02368 0.89117 0.0
H336 H 0.82872 0.99097 0.92177 0.0
H337 H 0.66637 0.03146 0.81393 0.0
H338 H 0.7226 0.05532 0.80791 0.0
H339 H 0.71562 0.99974 0.80277 0.0
H340 H 0.87905 0.079 0.80062 0.0
H341 H 0.86249 0.94518 0.78823 0.0
H342 H 0.81767 0.0886 0.86637 0.0
H343 H 0.77451 0.0981 0.83837 0.0
H344 H 0.83269 0.1183 0.83333 0.0
H345 H 0.79655 0.92432 0.85036 0.0
H346 H 0.80399 0.90638 0.81234 0.0
H347 H 0.75294 0.93599 0.82308 0.0
C348 C 0.95632 0.7299 0.41127 0.0
C349 C -0.00198 0.70789 0.4163 0.0
C350 C 0.95542 0.76639 0.39348 0.0
C351 C -0.00277 0.78128 0.38042 0.0
C352 C 0.03973 0.76022 0.3864 0.0
C353 C 0.0396 0.72374 0.40423 0.0
C354 C 0.90942 0.78803 0.38771 0.0
C355 C 0.08506 0.77512 0.37289 0.0
C356 C 0.98855 0.83964 0.3066 0.0
C357 C 0.99427 0.88185 0.31542 0.0
C358 C 0.98916 0.80682 0.32759 0.0
C359 C -0.00414 0.81629 0.35824 0.0
C360 C 0.00146 0.85883 0.36741 0.0
C361 C 0.00049 0.89119 0.34586 0.0
C362 C 0.9828 0.7619 0.31689 0.0
C363 C 0.00883 0.87006 0.3999 0.0
H364 H 0.9242 0.71828 0.421 0.0
H365 H 0.07191 0.70676 0.40781 0.0
H366 H 0.91223 0.82231 0.39249 0.0
H367 H 0.89998 0.78463 0.36375 0.0
H368 H 0.88079 0.77465 0.4015 0.0
H369 H 0.11556 0.75774 0.38196 0.0
H370 H 0.08412 0.77059 0.34827 0.0
H371 H 0.09 0.80935 0.37714 0.0
H372 H 0.98357 0.8321 0.28315 0.0
H373 H 0.00499 0.92373 0.35283 0.0
H374 H 0.95233 0.7474 0.32819 0.0
H375 H 0.01383 0.74279 0.32283 0.0
H376 H 0.97746 0.75994 0.2923 0.0
H377 H 0.97934 0.85817 0.41356 0.0
H378 H 0.01204 0.90467 0.40343 0.0
H379 H 0.04088 0.85454 0.40834 0.0
loop_
_geom_bond_atom_site_label_1
_geom_bond_atom_site_label_2
_geom_bond_distance
_geom_bond_site_symmetry_2
_ccdc_geom_bond_type
H0 C19 0.949 . S
H1 C20 0.950 . S
H2 C22 0.950 . S
H3 C23 0.950 . S
H4 C25 0.950 1_565 S
H5 C28 0.950 . S
H6 C29 0.950 . S
H7 C31 0.951 . S
H8 C32 0.949 . S
H9 C34 0.949 . S
H10 C35 0.950 . S
H11 C37 0.950 . S
H12 C38 0.950 . S
H13 C40 0.950 . S
H14 C43 0.950 . S
H15 C44 0.950 . S
H16 C46 0.951 . S
H17 C47 0.949 . S
C18 C19 1.376 1_545 S
C18 C23 1.386 . S
C18 C24 1.483 . S
C19 H0 0.949 . S
C19 C18 1.376 1_565 S
C19 C20 1.397 . S
C20 H1 0.950 . S
C20 C19 1.397 . S
C20 C21 1.391 1_565 S
C21 C20 1.391 1_545 S
C21 C22 1.405 . S
C22 H2 0.950 . S
C22 C21 1.405 . S
C22 C23 1.367 . S
C23 H3 0.950 . S
C23 C18 1.386 . S
C23 C22 1.367 . S
C24 C18 1.483 . S
C24 C25 1.382 . S
C24 C26 1.403 1_554 S
C25 H4 0.950 1_545 S
C25 C24 1.382 . S
C25 C41 1.411 . S
C26 C24 1.403 1_556 S
C26 C27 1.489 . S
C26 C40 1.411 . S
C27 C26 1.489 . S
C27 C28 1.383 1_545 S
C27 C32 1.382 . S
C28 H5 0.950 . S
C28 C27 1.383 1_565 S
C28 C29 1.395 . S
C29 H6 0.950 . S
C29 C28 1.395 . S
C29 C30 1.288 1_565 S
C30 C29 1.288 1_545 S
C30 C31 1.392 . S
C31 H7 0.951 . S
C31 C30 1.392 . S
C31 C32 1.392 . S
C32 H8 0.949 . S
C32 C27 1.382 . S
C32 C31 1.392 . S
C33 C34 1.376 . S
C33 C38 1.386 1_545 S
C33 C39 1.483 . S
C34 H9 0.949 . S
C34 C33 1.376 . S
C34 C35 1.397 . S
C35 H10 0.950 . S
C35 C34 1.397 . S
C35 C36 1.391 . S
C36 C35 1.391 . S
C36 C37 1.405 1_545 S
C37 H11 0.950 . S
C37 C36 1.405 1_565 S
C37 C38 1.367 . S
C38 H12 0.950 . S
C38 C33 1.386 1_565 S
C38 C37 1.367 . S
C39 C33 1.483 . S
C39 C40 1.382 . S
C39 C41 1.403 1_556 S
C40 H13 0.950 . S
C40 C26 1.411 . S
C40 C39 1.382 . S
C41 C25 1.411 . S
C41 C39 1.403 1_554 S
C41 C42 1.489 . S
C42 C41 1.489 . S
C42 C43 1.383 . S
C42 C47 1.382 1_545 S
C43 H14 0.950 . S
C43 C42 1.383 . S
C43 C44 1.395 . S
C44 H15 0.950 . S
C44 C43 1.395 . S
C44 C45 1.288 . S
C45 C44 1.288 . S
C45 C46 1.392 1_545 S
C46 H16 0.951 . S
C46 C45 1.392 1_565 S
C46 C47 1.392 . S
C47 H17 0.949 . S
C47 C42 1.382 1_565 S
C47 C46 1.392 . S
H48 C67 0.949 . S
H49 C68 0.950 . S
H50 C70 0.950 . S
H51 C71 0.950 . S
H52 C73 0.950 . S
H53 C76 0.950 . S
H54 C77 0.950 . S
H55 C79 0.951 . S
H56 C80 0.949 . S
H57 C82 0.949 . S
H58 C83 0.950 . S
H59 C85 0.950 . S
H60 C86 0.950 . S
H61 C88 0.950 . S
H62 C91 0.950 . S
H63 C92 0.950 . S
H64 C94 0.951 . S
H65 C95 0.949 . S
C66 C67 1.376 . S
C66 C71 1.386 1_455 S
C66 C72 1.483 . S
C67 H48 0.949 . S
C67 C66 1.376 . S
C67 C68 1.397 . S
C68 H49 0.950 . S
C68 C67 1.397 . S
C68 C69 1.391 . S
C69 C68 1.391 . S
C69 C70 1.405 1_455 S
C70 H50 0.950 . S
C70 C69 1.405 1_655 S
C70 C71 1.367 . S
C71 H51 0.950 . S
C71 C66 1.386 1_655 S
C71 C70 1.367 . S
C72 C66 1.483 . S
C72 C73 1.382 . S
C72 C74 1.403 1_455 S
C73 H52 0.950 . S
C73 C72 1.382 . S
C73 C89 1.411 . S
C74 C72 1.403 1_655 S
C74 C75 1.489 . S
C74 C88 1.411 . S
C75 C74 1.489 . S
C75 C76 1.383 1_655 S
C75 C80 1.382 . S
C76 H53 0.950 . S
C76 C75 1.383 1_455 S
C76 C77 1.395 . S
C77 H54 0.950 . S
C77 C76 1.395 . S
C77 C78 1.288 1_455 S
C78 C77 1.288 1_655 S
C78 C79 1.392 . S
C79 H55 0.951 . S
C79 C78 1.392 . S
C79 C80 1.392 . S
C80 H56 0.949 . S
C80 C75 1.382 . S
C80 C79 1.392 . S
C81 C82 1.376 . S
C81 C86 1.386 1_655 S
C81 C87 1.483 . S
C82 H57 0.949 . S
C82 C81 1.376 . S
C82 C83 1.397 . S
C83 H58 0.950 . S
C83 C82 1.397 . S
C83 C84 1.390 . S
C84 C83 1.390 . S
C84 C85 1.406 1_655 S
C85 H59 0.950 . S
C85 C84 1.406 1_455 S
C85 C86 1.367 . S
C86 H60 0.950 . S
C86 C81 1.386 1_455 S
C86 C85 1.367 . S
C87 C81 1.483 . S
C87 C88 1.382 . S
C87 C89 1.403 1_655 S
C88 H61 0.950 . S
C88 C74 1.411 . S
C88 C87 1.382 . S
C89 C73 1.411 . S
C89 C87 1.403 1_455 S
C89 C90 1.489 . S
C90 C89 1.489 . S
C90 C91 1.383 1_455 S
C90 C95 1.382 . S
C91 H62 0.950 . S
C91 C90 1.383 1_655 S
C91 C92 1.395 . S
C92 H63 0.950 . S
C92 C91 1.395 . S
C92 C93 1.288 1_655 S
C93 C92 1.288 1_455 S
C93 C94 1.392 . S
C94 H64 0.951 . S
C94 C93 1.392 . S
C94 C95 1.392 . S
C95 H65 0.949 . S
C95 C90 1.382 . S
C95 C94 1.392 . S
O96 Cd97 2.223 1_655 S
O96 C104 1.315 . S
Cd97 O96 2.223 1_455 S
Cd97 O100 2.297 1_455 S
Cd97 O101 2.439 1_455 S
Cd97 O107 2.240 1_565 S
Cd98 O99 2.240 . S
Cd98 O106 2.223 1_655 S
Cd98 O108 2.297 1_655 S
Cd98 O109 2.439 1_655 S
O99 Cd98 2.240 . S
O99 C104 1.279 1_545 S
O100 Cd97 2.297 1_655 S
O100 C102 1.247 . S
O101 Cd97 2.439 1_655 S
O101 C102 1.208 . S
C102 O100 1.247 . S
C102 O101 1.208 . S
C103 O108 1.247 . S
C103 O109 1.208 . S
C104 O96 1.315 . S
C104 O99 1.279 1_565 S
C105 O106 1.315 . S
C105 O107 1.279 . S
O106 Cd98 2.223 1_455 S
O106 C105 1.315 . S
O107 Cd97 2.240 1_545 S
O107 C105 1.279 . S
O108 Cd98 2.297 1_455 S
O108 C103 1.247 . S
O109 Cd98 2.439 1_455 S
O109 C103 1.208 . S
O110 Cd111 2.223 1_655 S
O110 C118 1.315 . S
Cd111 O110 2.223 1_455 S
Cd111 O114 2.297 1_455 S
Cd111 O115 2.439 1_455 S
Cd111 O121 2.240 . S
Cd112 O113 2.240 1_565 S
Cd112 O120 2.223 1_655 S
Cd112 O122 2.297 1_655 S
Cd112 O123 2.439 1_655 S
O113 Cd112 2.240 1_545 S
O113 C118 1.279 . S
O114 Cd111 2.297 1_655 S
O114 C116 1.247 . S
O115 Cd111 2.439 1_655 S
O115 C116 1.208 . S
C116 O114 1.247 . S
C116 O115 1.208 . S
C117 O122 1.247 . S
C117 O123 1.208 . S
C118 O110 1.315 . S
C118 O113 1.279 . S
C119 O120 1.315 . S
C119 O121 1.279 1_565 S
O120 Cd112 2.223 1_455 S
O120 C119 1.315 . S
O121 Cd111 2.240 . S
O121 C119 1.279 1_545 S
O122 Cd112 2.297 1_455 S
O122 C117 1.247 . S
O123 Cd112 2.439 1_455 S
O123 C117 1.208 . S
C124 C125 1.391 . S
C124 C126 1.394 . S
C124 H140 0.931 . S
C125 C124 1.391 . S
C125 C129 1.376 1_545 S
C126 C124 1.394 . S
C126 C127 1.369 . S
C126 C130 1.531 . S
C127 C126 1.369 . S
C127 C128 1.410 1_545 S
C127 C135 1.503 . S
C128 C127 1.410 1_565 S
C128 C129 1.392 . S
C128 C131 1.511 . S
C129 C125 1.376 1_565 S
C129 C128 1.392 . S
C129 H141 0.929 . S
C130 C126 1.531 . S
C130 H142 0.960 . S
C130 H143 0.962 . S
C130 H144 0.960 . S
C131 C128 1.511 . S
C131 H145 0.961 . S
C131 H146 0.961 . S
C131 H147 0.961 . S
C132 C133 1.370 . S
C132 C134 1.363 . S
C132 H148 0.931 . S
C133 C132 1.370 . S
C133 C137 1.408 . S
C134 C132 1.363 . S
C134 C135 1.370 . S
C134 C138 1.524 . S
C135 C127 1.503 . S
C135 C134 1.370 . S
C135 C136 1.405 . S
C136 C135 1.405 . S
C136 C137 1.404 . S
C136 C139 1.536 1_545 S
C137 C133 1.408 . S
C137 C136 1.404 . S
C137 H149 0.930 1_545 S
C138 C134 1.524 . S
C138 H150 0.956 . S
C138 H151 0.961 . S
C138 H152 0.961 . S
C139 C136 1.536 1_565 S
C139 H153 0.958 . S
C139 H154 0.961 . S
C139 H155 0.960 . S
H140 C124 0.931 . S
H141 C129 0.929 . S
H142 C130 0.960 . S
H143 C130 0.962 . S
H144 C130 0.960 . S
H145 C131 0.961 . S
H146 C131 0.961 . S
H147 C131 0.961 . S
H148 C132 0.931 . S
H149 C137 0.930 1_565 S
H150 C138 0.956 . S
H151 C138 0.961 . S
H152 C138 0.961 . S
H153 C139 0.958 . S
H154 C139 0.961 . S
H155 C139 0.960 . S
C156 C157 1.391 . S
C156 C158 1.394 . S
C156 H172 0.931 . S
C157 C156 1.391 . S
C157 C161 1.376 1_655 S
C158 C156 1.394 . S
C158 C159 1.369 . S
C158 C162 1.531 . S
C159 C158 1.369 . S
C159 C160 1.410 1_655 S
C159 C167 1.503 . S
C160 C159 1.410 1_455 S
C160 C161 1.392 . S
C160 C163 1.511 . S
C161 C157 1.376 1_455 S
C161 C160 1.392 . S
C161 H173 0.929 . S
C162 C158 1.531 . S
C162 H174 0.960 . S
C162 H175 0.962 . S
C162 H176 0.960 . S
C163 C160 1.511 . S
C163 H177 0.961 . S
C163 H178 0.961 . S
C163 H179 0.961 . S
C164 C165 1.370 . S
C164 C166 1.363 . S
C164 H180 0.931 1_655 S
C165 C164 1.370 . S
C165 C169 1.408 . S
C166 C164 1.363 . S
C166 C167 1.370 . S
C166 C170 1.524 1_655 S
C167 C159 1.503 . S
C167 C166 1.370 . S
C167 C168 1.403 . S
C168 C167 1.403 . S
C168 C169 1.404 . S
C168 C171 1.539 . S
C169 C165 1.408 . S
C169 C168 1.404 . S
C169 H181 0.930 . S
C170 C166 1.524 1_455 S
C170 H182 0.956 . S
C170 H183 0.961 . S
C170 H184 0.961 . S
C171 C168 1.539 . S
C171 H185 0.958 . S
C171 H186 0.961 . S
C171 H187 0.960 . S
H172 C156 0.931 . S
H173 C161 0.929 . S
H174 C162 0.960 . S
H175 C162 0.962 . S
H176 C162 0.960 . S
H177 C163 0.961 . S
H178 C163 0.961 . S
H179 C163 0.961 . S
H180 C164 0.931 1_455 S
H181 C169 0.930 . S
H182 C170 0.956 . S
H183 C170 0.961 . S
H184 C170 0.961 . S
H185 C171 0.958 . S
H186 C171 0.961 . S
H187 C171 0.960 . S
C188 C189 1.391 . S
C188 C190 1.394 . S
C188 H204 0.931 . S
C189 C188 1.391 . S
C189 C193 1.376 1_545 S
C190 C188 1.394 . S
C190 C191 1.369 . S
C190 C194 1.531 . S
C191 C190 1.369 . S
C191 C192 1.410 1_545 S
C191 C199 1.503 . S
C192 C191 1.410 1_565 S
C192 C193 1.392 . S
C192 C195 1.511 . S
C193 C189 1.376 1_565 S
C193 C192 1.392 . S
C193 H205 0.929 . S
C194 C190 1.531 . S
C194 H206 0.960 . S
C194 H207 0.962 . S
C194 H208 0.960 . S
C195 C192 1.511 . S
C195 H209 0.961 . S
C195 H210 0.961 . S
C195 H211 0.961 . S
C196 C197 1.370 . S
C196 C198 1.363 . S
C196 H212 0.931 . S
C197 C196 1.370 . S
C197 C201 1.408 1_565 S
C198 C196 1.363 . S
C198 C199 1.370 1_565 S
C198 C202 1.524 . S
C199 C191 1.503 . S
C199 C198 1.370 1_545 S
C199 C200 1.403 . S
C200 C199 1.403 . S
C200 C201 1.404 . S
C200 C203 1.539 . S
C201 C197 1.408 1_545 S
C201 C200 1.404 . S
C201 H213 0.930 . S
C202 C198 1.524 . S
C202 H214 0.956 . S
C202 H215 0.961 . S
C202 H216 0.961 . S
C203 C200 1.539 . S
C203 H217 0.958 . S
C203 H218 0.961 . S
C203 H219 0.960 . S
H204 C188 0.931 . S
H205 C193 0.929 . S
H206 C194 0.960 . S
H207 C194 0.962 . S
H208 C194 0.960 . S
H209 C195 0.961 . S
H210 C195 0.961 . S
H211 C195 0.961 . S
H212 C196 0.931 . S
H213 C201 0.930 . S
H214 C202 0.956 . S
H215 C202 0.961 . S
H216 C202 0.961 . S
H217 C203 0.958 . S
H218 C203 0.961 . S
H219 C203 0.960 . S
C220 C221 1.391 . S
C220 C222 1.394 . S
C220 H236 0.931 . S
C221 C220 1.391 . S
C221 C225 1.376 1_455 S
C222 C220 1.394 . S
C222 C223 1.369 . S
C222 C226 1.531 . S
C223 C222 1.369 . S
C223 C224 1.410 1_455 S
C223 C231 1.503 . S
C224 C223 1.410 1_655 S
C224 C225 1.392 . S
C224 C227 1.511 . S
C225 C221 1.376 1_655 S
C225 C224 1.392 . S
C225 H237 0.929 . S
C226 C222 1.531 . S
C226 H238 0.960 . S
C226 H239 0.962 . S
C226 H240 0.960 . S
C227 C224 1.511 . S
C227 H241 0.961 . S
C227 H242 0.961 . S
C227 H243 0.961 . S
C228 C229 1.370 . S
C228 C230 1.363 . S
C228 H244 0.931 . S
C229 C228 1.370 . S
C229 C233 1.408 1_455 S
C230 C228 1.363 . S
C230 C231 1.370 . S
C230 C234 1.524 . S
C231 C223 1.503 . S
C231 C230 1.370 . S
C231 C232 1.403 1_455 S
C232 C231 1.403 1_655 S
C232 C233 1.404 . S
C232 C235 1.539 . S
C233 C229 1.408 1_655 S
C233 C232 1.404 . S
C233 H245 0.930 . S
C234 C230 1.524 . S
C234 H246 0.956 . S
C234 H247 0.961 . S
C234 H248 0.961 . S
C235 C232 1.539 . S
C235 H249 0.958 . S
C235 H250 0.961 . S
C235 H251 0.960 . S
H236 C220 0.931 . S
H237 C225 0.929 . S
H238 C226 0.960 . S
H239 C226 0.962 . S
H240 C226 0.960 . S
H241 C227 0.961 . S
H242 C227 0.961 . S
H243 C227 0.961 . S
H244 C228 0.931 . S
H245 C233 0.930 . S
H246 C234 0.956 . S
H247 C234 0.961 . S
H248 C234 0.961 . S
H249 C235 0.958 . S
H250 C235 0.961 . S
H251 C235 0.960 . S
C252 C253 1.391 . S
C252 C254 1.394 . S
C252 H268 0.931 . S
C253 C252 1.391 . S
C253 C257 1.376 1_545 S
C254 C252 1.394 . S
C254 C255 1.369 1_545 S
C254 C258 1.531 . S
C255 C254 1.369 1_565 S
C255 C256 1.410 . S
C255 C263 1.503 . S
C256 C255 1.410 . S
C256 C257 1.392 . S
C256 C259 1.511 . S
C257 C253 1.376 1_565 S
C257 C256 1.392 . S
C257 H269 0.929 . S
C258 C254 1.531 . S
C258 H270 0.960 . S
C258 H271 0.962 . S
C258 H272 0.960 . S
C259 C256 1.511 . S
C259 H273 0.961 . S
C259 H274 0.961 . S
C259 H275 0.961 . S
C260 C261 1.370 1_545 S
C260 C262 1.363 . S
C260 H276 0.931 . S
C261 C260 1.370 1_565 S
C261 C265 1.408 . S
C262 C260 1.363 . S
C262 C263 1.370 1_545 S
C262 C266 1.524 . S
C263 C255 1.503 . S
C263 C262 1.370 1_565 S
C263 C264 1.403 . S
C264 C263 1.403 . S
C264 C265 1.404 . S
C264 C267 1.539 . S
C265 C261 1.408 . S
C265 C264 1.404 . S
C265 H277 0.930 . S
C266 C262 1.524 . S
C266 H278 0.956 . S
C266 H279 0.961 . S
C266 H280 0.961 . S
C267 C264 1.539 . S
C267 H281 0.958 . S
C267 H282 0.961 . S
C267 H283 0.960 . S
H268 C252 0.931 . S
H269 C257 0.929 . S
H270 C258 0.960 . S
H271 C258 0.962 . S
H272 C258 0.960 . S
H273 C259 0.961 . S
H274 C259 0.961 . S
H275 C259 0.961 . S
H276 C260 0.931 . S
H277 C265 0.930 . S
H278 C266 0.956 . S
H279 C266 0.961 . S
H280 C266 0.961 . S
H281 C267 0.958 . S
H282 C267 0.961 . S
H283 C267 0.960 . S
C284 C285 1.391 1_655 S
C284 C286 1.394 . S
C284 H300 0.931 . S
C285 C284 1.391 1_455 S
C285 C289 1.376 . S
C286 C284 1.394 . S
C286 C287 1.369 1_655 S
C286 C290 1.531 . S
C287 C286 1.369 1_455 S
C287 C288 1.410 . S
C287 C295 1.503 . S
C288 C287 1.410 . S
C288 C289 1.392 . S
C288 C291 1.511 . S
C289 C285 1.376 . S
C289 C288 1.392 . S
C289 H301 0.929 . S
C290 C286 1.531 . S
C290 H302 0.960 . S
C290 H303 0.962 . S
C290 H304 0.960 . S
C291 C288 1.511 . S
C291 H305 0.961 . S
C291 H306 0.961 . S
C291 H307 0.961 . S
C292 C293 1.370 . S
C292 C294 1.363 . S
C292 H308 0.931 . S
C293 C292 1.370 . S
C293 C297 1.408 . S
C294 C292 1.363 . S
C294 C295 1.370 . S
C294 C298 1.524 1_455 S
C295 C287 1.503 . S
C295 C294 1.370 . S
C295 C296 1.403 . S
C296 C295 1.403 . S
C296 C297 1.404 . S
C296 C299 1.539 . S
C297 C293 1.408 . S
C297 C296 1.404 . S
C297 H309 0.930 . S
C298 C294 1.524 1_655 S
C298 H310 0.956 . S
C298 H311 0.961 1_655 S
C298 H312 0.961 . S
C299 C296 1.539 . S
C299 H313 0.958 . S
C299 H314 0.961 . S
C299 H315 0.960 . S
H300 C284 0.931 . S
H301 C289 0.929 . S
H302 C290 0.960 . S
H303 C290 0.962 . S
H304 C290 0.960 . S
H305 C291 0.961 . S
H306 C291 0.961 . S
H307 C291 0.961 . S
H308 C292 0.931 . S
H309 C297 0.930 . S
H310 C298 0.956 . S
H311 C298 0.961 1_455 S
H312 C298 0.961 . S
H313 C299 0.958 . S
H314 C299 0.961 . S
H315 C299 0.960 . S
C316 C317 1.391 1_565 S
C316 C318 1.394 . S
C316 H332 0.931 . S
C317 C316 1.391 1_545 S
C317 C321 1.376 . S
C318 C316 1.394 . S
C318 C319 1.369 1_565 S
C318 C322 1.531 . S
C319 C318 1.369 1_545 S
C319 C320 1.410 . S
C319 C327 1.503 . S
C320 C319 1.410 . S
C320 C321 1.392 . S
C320 C323 1.511 . S
C321 C317 1.376 . S
C321 C320 1.392 . S
C321 H333 0.929 . S
C322 C318 1.531 . S
C322 H334 0.960 . S
C322 H335 0.962 . S
C322 H336 0.960 . S
C323 C320 1.511 . S
C323 H337 0.961 . S
C323 H338 0.961 . S
C323 H339 0.961 . S
C324 C325 1.370 . S
C324 C326 1.363 . S
C324 H340 0.931 . S
C325 C324 1.370 . S
C325 C329 1.408 1_545 S
C326 C324 1.363 . S
C326 C327 1.370 . S
C326 C330 1.524 . S
C327 C319 1.503 . S
C327 C326 1.370 . S
C327 C328 1.403 1_545 S
C328 C327 1.403 1_565 S
C328 C329 1.404 . S
C328 C331 1.539 . S
C329 C325 1.408 1_565 S
C329 C328 1.404 . S
C329 H341 0.930 . S
C330 C326 1.524 . S
C330 H342 0.956 . S
C330 H343 0.961 . S
C330 H344 0.961 . S
C331 C328 1.539 . S
C331 H345 0.958 . S
C331 H346 0.961 . S
C331 H347 0.960 . S
H332 C316 0.931 . S
H333 C321 0.929 . S
H334 C322 0.960 . S
H335 C322 0.962 . S
H336 C322 0.960 . S
H337 C323 0.961 . S
H338 C323 0.961 . S
H339 C323 0.961 . S
H340 C324 0.931 . S
H341 C329 0.930 . S
H342 C330 0.956 . S
H343 C330 0.961 . S
H344 C330 0.961 . S
H345 C331 0.958 . S
H346 C331 0.961 . S
H347 C331 0.960 . S
C348 C349 1.379 1_655 S
C348 C350 1.394 . S
C348 H364 0.931 . S
C349 C348 1.379 1_455 S
C349 C353 1.387 . S
C350 C348 1.394 . S
C350 C351 1.369 . S
C350 C354 1.531 . S
C351 C350 1.369 . S
C351 C352 1.410 1_655 S
C351 C359 1.503 . S
C352 C351 1.410 1_455 S
C352 C353 1.392 . S
C352 C355 1.511 . S
C353 C349 1.387 . S
C353 C352 1.392 . S
C353 H365 0.929 . S
C354 C350 1.531 . S
C354 H366 0.960 . S
C354 H367 0.962 . S
C354 H368 0.960 . S
C355 C352 1.511 . S
C355 H369 0.961 . S
C355 H370 0.961 . S
C355 H371 0.961 . S
C356 C357 1.370 . S
C356 C358 1.363 . S
C356 H372 0.931 . S
C357 C356 1.370 . S
C357 C361 1.408 1_655 S
C358 C356 1.363 . S
C358 C359 1.370 . S
C358 C362 1.524 . S
C359 C351 1.503 . S
C359 C358 1.370 . S
C359 C360 1.403 1_655 S
C360 C359 1.403 1_455 S
C360 C361 1.404 . S
C360 C363 1.539 . S
C361 C357 1.408 1_455 S
C361 C360 1.404 . S
C361 H373 0.930 . S
C362 C358 1.524 . S
C362 H374 0.956 . S
C362 H375 0.961 . S
C362 H376 0.961 . S
C363 C360 1.539 . S
C363 H377 0.958 . S
C363 H378 0.961 . S
C363 H379 0.960 . S
H364 C348 0.931 . S
H365 C353 0.929 . S
H366 C354 0.960 . S
H367 C354 0.962 . S
H368 C354 0.960 . S
H369 C355 0.961 . S
H370 C355 0.961 . S
H371 C355 0.961 . S
H372 C356 0.931 . S
H373 C361 0.930 . S
H374 C362 0.956 . S
H375 C362 0.961 . S
H376 C362 0.961 . S
H377 C363 0.958 . S
H378 C363 0.961 . S
H379 C363 0.960 . S
C133 C105 1.635 . S
C125 C45 1.629 . S
C165 C116 1.558 . S
C157 C78 1.596 . S
C197 C104 1.632 . S
C189 C21 1.632 . S
C229 C117 1.542 . S
C221 C84 1.615 1_455 S
C261 C119 1.631 . S
C253 C36 1.629 . S
C293 C103 1.545 . S
C285 C69 1.611 . S
C325 C118 1.632 . S
C317 C30 1.624 . S
C349 C93 1.617 . S
C357 C102 1.544 . S
