# Generated by pormake.
# Topology pyr, (3,6)-cn, num edge types: 1
# Building blocks:
#     Node 0, Type 0, BuildingBlock: QEWDON_clean_linker_0, # of connection points: 3
#     Node 1, Type 0, BuildingBlock: QEWDON_clean_linker_0, # of connection points: 3
#     Node 2, Type 0, BuildingBlock: QEWDON_clean_linker_0, # of connection points: 3
#     Node 3, Type 0, BuildingBlock: QEWDON_clean_linker_0, # of connection points: 3
#     Node 4, Type 0, BuildingBlock: QEWDON_clean_linker_0, # of connection points: 3
#     Node 5, Type 0, BuildingBlock: QEWDON_clean_linker_0, # of connection points: 3
#     Node 6, Type 0, BuildingBlock: QEWDON_clean_linker_0, # of connection points: 3
#     Node 7, Type 0, BuildingBlock: QEWDON_clean_linker_0, # of connection points: 3
#     Node 8, Type 1, BuildingBlock: BETGAK_clean_sbu_0, # of connection points: 6
#     Node 9, Type 1, BuildingBlock: BETGAK_clean_sbu_0, # of connection points: 6
#     Node 10, Type 1, BuildingBlock: BETGAK_clean_sbu_0, # of connection points: 6
#     Node 11, Type 1, BuildingBlock: BETGAK_clean_sbu_0, # of connection points: 6
#     Edge 12, Type (0, 1), BuildingBlock: UVAHIK_clean_linker_0, # of connection points: 2
#     Edge 13, Type (0, 1), BuildingBlock: UVAHIK_clean_linker_0, # of connection points: 2
#     Edge 14, Type (0, 1), BuildingBlock: UVAHIK_clean_linker_0, # of connection points: 2
#     Edge 15, Type (0, 1), BuildingBlock: UVAHIK_clean_linker_0, # of connection points: 2
#     Edge 16, Type (0, 1), BuildingBlock: UVAHIK_clean_linker_0, # of connection points: 2
#     Edge 17, Type (0, 1), BuildingBlock: UVAHIK_clean_linker_0, # of connection points: 2
#     Edge 18, Type (0, 1), BuildingBlock: UVAHIK_clean_linker_0, # of connection points: 2
#     Edge 19, Type (0, 1), BuildingBlock: UVAHIK_clean_linker_0, # of connection points: 2
#     Edge 20, Type (0, 1), BuildingBlock: UVAHIK_clean_linker_0, # of connection points: 2
#     Edge 21, Type (0, 1), BuildingBlock: UVAHIK_clean_linker_0, # of connection points: 2
#     Edge 22, Type (0, 1), BuildingBlock: UVAHIK_clean_linker_0, # of connection points: 2
#     Edge 23, Type (0, 1), BuildingBlock: UVAHIK_clean_linker_0, # of connection points: 2
#     Edge 24, Type (0, 1), BuildingBlock: UVAHIK_clean_linker_0, # of connection points: 2
#     Edge 25, Type (0, 1), BuildingBlock: UVAHIK_clean_linker_0, # of connection points: 2
#     Edge 26, Type (0, 1), BuildingBlock: UVAHIK_clean_linker_0, # of connection points: 2
#     Edge 27, Type (0, 1), BuildingBlock: UVAHIK_clean_linker_0, # of connection points: 2
#     Edge 28, Type (0, 1), BuildingBlock: UVAHIK_clean_linker_0, # of connection points: 2
#     Edge 29, Type (0, 1), BuildingBlock: UVAHIK_clean_linker_0, # of connection points: 2
#     Edge 30, Type (0, 1), BuildingBlock: UVAHIK_clean_linker_0, # of connection points: 2
#     Edge 31, Type (0, 1), BuildingBlock: UVAHIK_clean_linker_0, # of connection points: 2
#     Edge 32, Type (0, 1), BuildingBlock: UVAHIK_clean_linker_0, # of connection points: 2
#     Edge 33, Type (0, 1), BuildingBlock: UVAHIK_clean_linker_0, # of connection points: 2
#     Edge 34, Type (0, 1), BuildingBlock: UVAHIK_clean_linker_0, # of connection points: 2
#     Edge 35, Type (0, 1), BuildingBlock: UVAHIK_clean_linker_0, # of connection points: 2
# Relax obj value: 0.146
# Max RMSD: 0.266
# Mean RMSD: 0.196
data_MOF--net-pyr--node1-BETGAK_clean_sbu_0--node2-QEWDON_clean_linker_0--edge1-UVAHIK_clean_linker_0
_symmetry_space_group_name_H-M    P1
_symmetry_Int_Tables_number       1
_symmetry_cell_setting            triclinic
loop_
_symmetry_equiv_pos_as_xyz
'x, y, z'
_cell_length_a     49.198345
_cell_length_b     52.967948
_cell_length_c     50.329053
_cell_angle_alpha  91.623235
_cell_angle_beta   89.757822
_cell_angle_gamma 108.23115
loop_
_atom_site_label
_atom_site_type_symbol
_atom_site_fract_x
_atom_site_fract_y
_atom_site_fract_z
_atom_type_partial_charge
H0 H 0.36806 0.30621 0.18782 0.0
C1 C 0.35419 0.30124 0.20497 0.0
C2 C 0.34998 0.27676 0.21701 0.0
C3 C 0.34074 0.31932 0.21498 0.0
H4 H 0.32864 0.25124 0.24838 0.0
C5 C 0.33216 0.27029 0.23925 0.0
C6 C 0.31783 0.28776 0.24898 0.0
C7 C 0.32218 0.31221 0.23675 0.0
C8 C 0.34665 0.34583 0.20309 0.0
H9 H 0.31172 0.326 0.24471 0.0
C10 C 0.32433 0.35652 0.19838 0.0
C11 C 0.33 0.38179 0.18735 0.0
C12 C 0.37483 0.36072 0.19664 0.0
H13 H 0.39248 0.35317 0.20037 0.0
C14 C 0.3806 0.38579 0.1858 0.0
H15 H 0.30247 0.34488 0.20271 0.0
C16 C 0.35842 0.39631 0.1812 0.0
H17 H 0.3636 0.41598 0.17311 0.0
H18 H 0.40241 0.39719 0.1811 0.0
H19 H 0.2548 0.89905 0.71813 0.0
C20 C 0.2689 0.88925 0.70893 0.0
C21 C 0.29675 0.89404 0.71899 0.0
C22 C 0.2586 0.87068 0.68791 0.0
H23 H 0.33619 0.88469 0.71418 0.0
C24 C 0.31442 0.88062 0.70713 0.0
C25 C 0.30427 0.86174 0.68644 0.0
C26 C 0.27639 0.85701 0.67681 0.0
C27 C 0.22897 0.86486 0.67787 0.0
H28 H 0.26829 0.8423 0.66097 0.0
C29 C 0.21859 0.88564 0.67086 0.0
C30 C 0.19107 0.88018 0.6597 0.0
C31 C 0.2113 0.83842 0.67437 0.0
H32 H 0.21876 0.82207 0.67983 0.0
C33 C 0.18383 0.83285 0.66383 0.0
H34 H 0.23219 0.90603 0.67369 0.0
C35 C 0.17379 0.85352 0.65636 0.0
H36 H 0.15271 0.84854 0.64744 0.0
H37 H 0.17039 0.81242 0.6611 0.0
H38 H 0.69288 0.44172 0.89173 0.0
C39 C 0.68528 0.42113 0.89745 0.0
C40 C 0.70171 0.41153 0.91516 0.0
C41 C 0.65783 0.40492 0.88922 0.0
H42 H 0.7039 0.37759 0.93654 0.0
C43 C 0.6909 0.38509 0.92351 0.0
C44 C 0.66356 0.36846 0.91578 0.0
C45 C 0.64738 0.37861 0.89837 0.0
C46 C 0.63762 0.41659 0.87575 0.0
H47 H 0.62584 0.36655 0.89298 0.0
C48 C 0.64355 0.42982 0.85116 0.0
C49 C 0.62336 0.44072 0.83991 0.0
C50 C 0.61159 0.41458 0.88854 0.0
H51 H 0.60656 0.4049 0.90743 0.0
C52 C 0.59189 0.42528 0.87751 0.0
H53 H 0.66349 0.43162 0.841 0.0
C54 C 0.59768 0.43823 0.8535 0.0
H55 H 0.58185 0.44624 0.84534 0.0
H56 H 0.57199 0.42357 0.88769 0.0
H57 H 0.89948 0.7855 0.37327 0.0
C58 C 0.8828 0.77096 0.38386 0.0
C59 C 0.87647 0.77655 0.41027 0.0
C60 C 0.86708 0.7472 0.3705 0.0
H61 H 0.84818 0.76248 0.44314 0.0
C62 C 0.85409 0.75772 0.42331 0.0
C63 C 0.8378 0.73383 0.41033 0.0
C64 C 0.84474 0.72867 0.38387 0.0
C65 C 0.87034 0.74475 0.34123 0.0
H66 H 0.83207 0.71081 0.37327 0.0
C67 C 0.88338 0.72701 0.32906 0.0
C68 C 0.88776 0.72724 0.30118 0.0
C69 C 0.86104 0.76178 0.32528 0.0
H70 H 0.85097 0.77546 0.33417 0.0
C71 C 0.86474 0.76156 0.29785 0.0
H72 H 0.8909 0.71395 0.34117 0.0
C73 C 0.87813 0.74459 0.2859 0.0
H74 H 0.88099 0.74501 0.26454 0.0
H75 H 0.85746 0.7748 0.2858 0.0
H76 H 0.73211 0.80319 0.93291 0.0
C77 C 0.7445 0.81679 0.91839 0.0
C78 C 0.77177 0.81589 0.91111 0.0
C79 C 0.7328 0.83478 0.90656 0.0
H80 H 0.8084 0.83292 0.88637 0.0
C81 C 0.78712 0.83316 0.89173 0.0
C82 C 0.77545 0.85084 0.87925 0.0
C83 C 0.74841 0.85192 0.8872 0.0
C84 C 0.70336 0.83428 0.91308 0.0
H85 H 0.73887 0.86512 0.87747 0.0
C86 C 0.69795 0.85686 0.92427 0.0
C87 C 0.66982 0.85605 0.93088 0.0
C88 C 0.68053 0.81095 0.90817 0.0
H89 H 0.68433 0.7934 0.8995 0.0
C90 C 0.65258 0.8102 0.91402 0.0
H91 H 0.71575 0.87463 0.9286 0.0
C92 C 0.6472 0.83254 0.92525 0.0
H93 H 0.62524 0.83139 0.92944 0.0
H94 H 0.63502 0.79223 0.9099 0.0
H95 H 0.7524 0.19374 0.53276 0.0
C96 C 0.74489 0.19234 0.5124 0.0
C97 C 0.75954 0.18333 0.49209 0.0
C98 C 0.7208 0.20005 0.50675 0.0
H99 H 0.76036 0.17467 0.45002 0.0
C100 C 0.74995 0.18257 0.46571 0.0
C101 C 0.72636 0.191 0.45951 0.0
C102 C 0.71191 0.19973 0.48023 0.0
C103 C 0.70465 0.20787 0.52874 0.0
H104 H 0.69354 0.20605 0.4758 0.0
C105 C 0.69555 0.2304 0.52688 0.0
C106 C 0.68004 0.23773 0.54765 0.0
C107 C 0.6982 0.1927 0.55174 0.0
H108 H 0.70469 0.17507 0.5536 0.0
C109 C 0.68285 0.19985 0.5724 0.0
H110 H 0.70114 0.24255 0.5095 0.0
C111 C 0.67376 0.22217 0.57042 0.0
H112 H 0.66145 0.22701 0.58656 0.0
H113 H 0.6778 0.18794 0.58995 0.0
H114 H 0.42606 0.79035 0.24219 0.0
C115 C 0.40395 0.77969 0.23721 0.0
C116 C 0.38816 0.79184 0.22149 0.0
C117 C 0.39225 0.75304 0.24487 0.0
H118 H 0.3473 0.78647 0.20311 0.0
C119 C 0.35998 0.77693 0.21417 0.0
C120 C 0.3482 0.74983 0.22027 0.0
C121 C 0.36453 0.73822 0.23609 0.0
C122 C 0.41157 0.73916 0.25595 0.0
H123 H 0.3566 0.71721 0.24014 0.0
C124 C 0.4123 0.73325 0.28327 0.0
C125 C 0.43241 0.72118 0.29247 0.0
C126 C 0.43034 0.73226 0.23823 0.0
H127 H 0.43009 0.73651 0.21731 0.0
C128 C 0.44964 0.71995 0.24716 0.0
H129 H 0.39806 0.73864 0.29719 0.0
C130 C 0.45078 0.71456 0.27398 0.0
H131 H 0.46615 0.7051 0.28034 0.0
H132 H 0.46396 0.71472 0.23324 0.0
H133 H 0.22944 0.45482 0.75918 0.0
C134 C 0.21663 0.43744 0.74796 0.0
C135 C 0.22356 0.43333 0.72121 0.0
C136 C 0.19419 0.41836 0.76074 0.0
H137 H 0.2134 0.40589 0.68741 0.0
C138 C 0.20737 0.4099 0.70744 0.0
C139 C 0.185 0.39055 0.71986 0.0
C140 C 0.17843 0.3952 0.74641 0.0
C141 C 0.19076 0.41933 0.79016 0.0
H142 H 0.16162 0.38024 0.75644 0.0
C143 C 0.18141 0.43886 0.80392 0.0
C144 C 0.17775 0.4379 0.83196 0.0
C145 C 0.19648 0.39925 0.8046 0.0
H146 H 0.20371 0.38416 0.79456 0.0
C147 C 0.19287 0.39823 0.83199 0.0
H148 H 0.17691 0.45441 0.79296 0.0
C149 C 0.18349 0.41719 0.84552 0.0
H150 H 0.18028 0.41532 0.86677 0.0
H151 H 0.19715 0.38249 0.8428 0.0
La152 La 0.04035 0.09551 0.53469 0.0
La153 La 0.03172 0.07315 0.58971 0.0
C154 C 0.04271 0.12164 0.49318 0.0
C155 C 0.06583 0.14066 0.47863 0.0
C156 C 0.09339 0.13817 0.47789 0.0
C157 C 0.11473 0.15515 0.46257 0.0
C158 C 0.10911 0.17525 0.44795 0.0
C159 C 0.08167 0.17822 0.44952 0.0
C160 C 0.0602 0.16099 0.46466 0.0
C161 C 0.0805 0.07598 0.55122 0.0
C162 C 0.0639 0.1336 0.58545 0.0
C163 C 0.03071 0.0475 0.63136 0.0
C164 C 1.00815 0.02922 0.64698 0.0
C165 C 0.97934 0.02718 0.64293 0.0
C166 C 0.95825 1.01202 0.6598 0.0
C167 C 0.96563 0.99854 0.68095 0.0
C168 C 0.99447 0.99988 0.6842 0.0
C169 C 0.01555 1.01517 0.6674 0.0
C170 C 0.99136 0.09245 0.57358 0.0
C171 C 1.00755 0.03518 0.539 0.0
O172 O 0.04371 0.09727 0.4933 0.0
O173 O 0.03648 0.12963 0.51658 0.0
O174 O 0.07343 0.07635 0.5266 0.0
O175 O 0.06748 0.08858 0.56477 0.0
O176 O 0.05394 0.13155 0.56077 0.0
O177 O 0.06258 0.11207 0.59879 0.0
O178 O 0.02987 0.0719 0.63118 0.0
O179 O 0.03548 0.03896 0.6077 0.0
O180 O 0.99758 0.09081 0.59823 0.0
O181 O 1.00449 0.08021 0.55965 0.0
O182 O 0.0179 0.03716 0.56355 0.0
O183 O 1.00891 0.0568 0.52572 0.0
H184 H 0.09828 0.1227 0.48868 0.0
H185 H 0.13538 0.15191 0.46159 0.0
H186 H 0.07668 0.19374 0.43894 0.0
H187 H 0.0391 0.16333 0.46519 0.0
H188 H 0.97329 0.03798 0.62723 0.0
H189 H 0.93635 1.01166 0.65684 0.0
H190 H 1.00082 0.98934 0.69994 0.0
H191 H 0.03771 0.01651 0.67072 0.0
La192 La 0.55753 0.09718 0.08907 0.0
La193 La 0.50195 0.06484 0.05444 0.0
C194 C 0.60158 0.13162 0.1073 0.0
C195 C 0.61152 0.14006 0.13454 0.0
C196 C 0.59566 0.12703 0.15612 0.0
C197 C 0.60521 0.13456 0.18208 0.0
C198 C 0.63071 0.15547 0.18701 0.0
C199 C 0.6464 0.16868 0.16523 0.0
C200 C 0.63687 0.16098 0.13918 0.0
C201 C 0.52587 0.05217 0.11193 0.0
C202 C 0.49766 0.10651 0.09975 0.0
C203 C 0.45746 0.03056 0.03663 0.0
C204 C 0.43948 0.02772 1.01285 0.0
C205 C 0.44283 0.04916 0.99605 0.0
C206 C 0.42765 0.04548 0.97208 0.0
C207 C 0.40888 0.02029 0.96456 0.0
C208 C 0.40493 0.99911 0.98196 0.0
C209 C 0.42017 1.00281 1.00588 0.0
C210 C 0.53364 0.1095 0.03096 0.0
C211 C 0.56036 0.05287 0.04816 0.0
O212 O 0.60064 0.10728 0.10037 0.0
O213 O 0.57842 0.13699 0.10015 0.0
O214 O 0.54934 0.0684 0.12193 0.0
O215 O 0.52182 0.06252 0.09088 0.0
O216 O 0.52584 0.1153 0.10299 0.0
O217 O 0.48406 0.08583 0.08412 0.0
O218 O 0.45711 0.04957 0.05377 0.0
O219 O 0.48341 0.02967 0.03216 0.0
O220 O 0.51019 0.09308 0.0212 0.0
O221 O 0.53774 0.0996 0.05231 0.0
O222 O 0.53215 0.04261 0.04955 0.0
O223 O 0.57433 0.07704 0.05766 0.0
H224 H 0.57596 0.11088 0.1529 0.0
H225 H 0.59282 0.12362 0.19827 0.0
H226 H 0.66593 0.18507 0.1683 0.0
H227 H 0.64928 0.17132 0.12269 0.0
H228 H 0.45763 0.06857 1.00116 0.0
H229 H 0.43093 0.06223 0.95924 0.0
H230 H 0.39098 0.97938 0.9766 0.0
H231 H 0.41749 0.98602 0.01857 0.0
La232 La 0.52915 0.56081 0.54865 0.0
La233 La 0.534 0.60656 0.5846 0.0
C234 C 0.53858 0.52478 0.51986 0.0
C235 C 0.55041 0.50284 0.52332 0.0
C236 C 0.53886 0.47916 0.50848 0.0
C237 C 0.55007 0.45817 0.51096 0.0
C238 C 0.57317 0.46056 0.52828 0.0
C239 C 0.58448 0.48429 0.5434 0.0
C240 C 0.57315 0.50524 0.54099 0.0
C241 C 0.4815 0.55834 0.57449 0.0
C242 C 0.55446 0.56149 0.60771 0.0
C243 C 0.52617 0.64323 0.61357 0.0
C244 C 0.51071 0.66278 0.61275 0.0
C245 C 0.52042 0.68592 0.62872 0.0
C246 C 0.50486 0.70384 0.63018 0.0
C247 C 0.47922 0.69885 0.61574 0.0
C248 C 0.47019 0.67617 0.59879 0.0
C249 C 0.48585 0.65822 0.59732 0.0
C250 C 0.58147 0.6087 0.55853 0.0
C251 C 0.50846 0.60566 0.5259 0.0
O252 O 0.51408 0.52233 0.5314 0.0
O253 O 0.55651 0.54886 0.52275 0.0
O254 O 0.48251 0.55036 0.55003 0.0
O255 O 0.50659 0.56641 0.58385 0.0
O256 O 0.55158 0.55108 0.58317 0.0
O257 O 0.5464 0.58253 0.61363 0.0
O258 O 0.54767 0.64673 0.59726 0.0
O259 O 0.51046 0.61826 0.61458 0.0
O260 O 0.58068 0.61658 0.58304 0.0
O261 O 0.55631 0.60093 0.54941 0.0
O262 O 0.50921 0.61467 0.55088 0.0
O263 O 0.51868 0.586 0.51967 0.0
H264 H 0.52118 0.47692 0.49488 0.0
H265 H 0.54049 0.44001 0.49941 0.0
H266 H 0.60242 0.48688 0.55674 0.0
H267 H 0.58236 0.52337 0.55271 0.0
H268 H 0.5397 0.68981 0.64058 0.0
H269 H 0.5126 0.72138 0.64304 0.0
H270 H 0.45045 0.67172 0.58755 0.0
H271 H 0.47811 0.64045 0.58477 0.0
La272 La 0.02566 0.55433 0.07615 0.0
La273 La 0.02797 0.60557 0.05297 0.0
C274 C 0.03561 0.51251 0.08971 0.0
C275 C 0.05926 0.5053 0.10164 0.0
C276 C 0.08763 0.52204 0.10001 0.0
C277 C 0.10998 0.51412 0.11019 0.0
C278 C 0.10434 0.48932 0.12216 0.0
C279 C 0.07579 0.47292 0.12427 0.0
C280 C 0.05347 0.48087 0.11408 0.0
C281 C 0.99794 0.5817 0.10381 0.0
C282 C 0.08006 0.60602 0.08808 0.0
C283 C 0.01798 0.64717 0.03902 0.0
C284 C 0.99343 0.65475 0.02963 0.0
C285 C 0.99794 0.67423 1.01041 0.0
C286 C 0.97525 0.68236 1.00153 0.0
C287 C 0.9476 0.67122 1.01183 0.0
C288 C 0.94304 0.6515 0.03098 0.0
C289 C 0.96577 0.64321 0.03972 0.0
C290 C 0.05589 0.5783 0.02534 0.0
C291 C 0.97364 0.55417 0.04132 0.0
O292 O 0.02301 0.52571 0.10506 0.0
O293 O 0.04011 0.52213 0.06588 0.0
O294 O 0.98951 0.55601 0.10089 0.0
O295 O 0.02169 0.59097 0.09229 0.0
O296 O 0.06899 0.57974 0.08803 0.0
O297 O 0.06639 0.62097 0.07712 0.0
O298 O 0.02726 0.63201 0.0228 0.0
O299 O 0.0172 0.63975 0.06366 0.0
O300 O 0.06409 0.60397 0.02822 0.0
O301 O 0.03208 0.56897 0.03679 0.0
O302 O 0.98382 0.58049 0.04322 0.0
O303 O 0.98835 0.53925 0.05054 0.0
H304 H 0.09257 0.54101 0.09049 0.0
H305 H 0.13169 0.52735 0.10857 0.0
H306 H 0.07074 0.45359 0.13308 0.0
H307 H 0.03169 0.46769 0.11545 0.0
H308 H 0.01914 0.68335 1.00242 0.0
H309 H 0.97947 0.6978 0.98699 0.0
H310 H 0.92191 0.64241 0.03906 0.0
H311 H 0.96176 0.62795 0.05444 0.0
C312 C 0.26994 0.28155 0.26964 0.0
C313 C 0.29788 0.28016 0.27159 0.0
C314 C 0.25056 0.27301 0.29038 0.0
C315 C 0.23857 0.23081 0.34979 0.0
H316 H 0.17916 0.26307 0.36449 0.0
C317 C 0.16055 0.19964 0.43737 0.0
C318 C 0.13141 0.19205 0.43021 0.0
C319 C 0.18166 0.21308 0.4196 0.0
C320 C 0.19567 0.25391 0.36055 0.0
H321 H 0.32793 0.2698 0.29698 0.0
H322 H 0.29455 0.25582 0.33369 0.0
H323 H 0.21519 0.28187 0.33086 0.0
H324 H 0.10179 0.19356 0.39885 0.0
H325 H 0.1387 0.21776 0.36826 0.0
H326 H 0.21917 0.20313 0.37983 0.0
C327 C 0.28715 0.26262 0.31585 0.0
C328 C 0.21622 0.26454 0.34118 0.0
C329 C 0.30636 0.27076 0.29491 0.0
C330 C 0.12392 0.19936 0.40526 0.0
C331 C 0.14506 0.21314 0.38765 0.0
C332 C 0.21831 0.22048 0.3694 0.0
C333 C 0.25883 0.26325 0.31373 0.0
C334 C 0.23778 0.25294 0.33532 0.0
C335 C 0.17412 0.21962 0.39445 0.0
C336 C 0.19651 0.23176 0.37477 0.0
H337 H 0.26283 0.2885 0.25171 0.0
H338 H 0.22886 0.27338 0.28774 0.0
H339 H 0.25439 0.22093 0.34553 0.0
H340 H 0.16713 0.19494 0.45662 0.0
H341 H 0.20395 0.21817 0.42543 0.0
C342 C 0.32373 0.90452 0.76207 0.0
C343 C 0.30708 0.9117 0.74281 0.0
C344 C 0.33429 0.92106 0.78415 0.0
C345 C 0.32207 0.97194 0.82798 0.0
H346 H 0.40134 0.9839 0.84776 0.0
C347 C 0.36683 0.99869 0.93456 0.0
C348 C 0.39513 1.01548 0.93787 0.0
C349 C 0.35523 0.99143 0.90911 0.0
C350 C 0.37929 0.98117 0.84236 0.0
H351 H 0.28792 0.94179 0.73214 0.0
H352 H 0.30598 0.97057 0.77143 0.0
H353 H 0.38304 0.96072 0.80595 0.0
H354 H 0.43298 0.0388 0.91707 0.0
H355 H 0.41262 0.02637 0.87273 0.0
H356 H 0.31819 0.99179 0.86489 0.0
C357 C 0.31096 0.95212 0.76904 0.0
C358 C 0.36876 0.96766 0.81853 0.0
C359 C 0.30058 0.93561 0.74664 0.0
C360 C 0.41106 0.02596 0.91523 0.0
C361 C 0.39949 0.01865 0.88981 0.0
C362 C 0.33257 0.98532 0.85203 0.0
C363 C 0.32822 0.9451 0.7878 0.0
C364 C 0.33991 0.96238 0.81139 0.0
C365 C 0.37174 1.00074 0.88646 0.0
C366 C 0.36118 0.98962 0.85968 0.0
H367 H 0.32845 0.8859 0.76026 0.0
H368 H 0.34699 0.91486 0.79862 0.0
H369 H 0.29972 0.96805 0.82295 0.0
H370 H 0.3539 0.99057 0.95163 0.0
H371 H 0.33385 0.97746 0.90721 0.0
C372 C 0.62751 0.44106 0.78983 0.0
C373 C 0.62766 0.45482 0.81416 0.0
C374 C 0.62425 0.45259 0.76561 0.0
C375 C 0.62541 0.51729 0.73559 0.0
H376 H 0.57237 0.47208 0.68422 0.0
C377 C 0.57084 0.561 0.65506 0.0
C378 C 0.5661 0.54897 0.62945 0.0
C379 C 0.58116 0.54933 0.67581 0.0
C380 C 0.58755 0.485 0.69812 0.0
H381 H 0.62551 0.49175 0.83204 0.0
H382 H 0.62024 0.5119 0.79031 0.0
H383 H 0.58671 0.45253 0.72304 0.0
H384 H 0.56876 0.51492 0.60589 0.0
H385 H 0.58678 0.49454 0.64215 0.0
H386 H 0.62584 0.5498 0.71102 0.0
C387 C 0.62286 0.49235 0.78955 0.0
C388 C 0.59587 0.47373 0.72047 0.0
C389 C 0.62594 0.4808 0.81361 0.0
C390 C 0.57212 0.52484 0.62527 0.0
C391 C 0.58233 0.51304 0.64616 0.0
C392 C 0.61705 0.52852 0.71335 0.0
C393 C 0.62119 0.47822 0.76515 0.0
C394 C 0.61457 0.48976 0.73984 0.0
C395 C 0.58704 0.52514 0.67179 0.0
C396 C 0.59759 0.51266 0.69446 0.0
H397 H 0.62827 0.42083 0.78962 0.0
H398 H 0.62344 0.44114 0.7473 0.0
H399 H 0.64031 0.53032 0.74961 0.0
H400 H 0.56645 0.57951 0.65923 0.0
H401 H 0.58399 0.55913 0.69525 0.0
C402 C 0.89126 0.68254 0.28592 0.0
C403 C 0.90287 0.71039 0.28714 0.0
C404 C 0.90248 0.66732 0.26822 0.0
C405 C 0.96558 0.67008 0.22526 0.0
H406 H 0.91063 0.61594 0.18249 0.0
C407 C 0.99997 0.62345 0.13019 0.0
C408 C 0.98644 0.59629 0.12444 0.0
C409 C 0.98993 0.63667 0.15072 0.0
C410 C 0.92639 0.6307 0.19443 0.0
H411 H 0.93599 0.744 0.27167 0.0
H412 H 0.95581 0.71767 0.24133 0.0
H413 H 0.89395 0.639 0.21851 0.0
H414 H 0.95155 0.5618 0.13565 0.0
H415 H 0.93434 0.58456 0.1716 0.0
H416 H 0.99805 0.66185 0.20128 0.0
C417 C 0.93813 0.7074 0.25391 0.0
C418 C 0.91676 0.64395 0.21521 0.0
C419 C 0.92676 0.72254 0.27132 0.0
C420 C 0.96242 0.58277 0.13949 0.0
C421 C 0.95244 0.59592 0.16008 0.0
C422 C 0.97523 0.65675 0.20459 0.0
C423 C 0.92575 0.67962 0.25157 0.0
C424 C 0.93618 0.66402 0.23078 0.0
C425 C 0.96613 0.62307 0.16618 0.0
C426 C 0.95579 0.63699 0.18865 0.0
H427 H 0.87263 0.67268 0.29763 0.0
H428 H 0.89258 0.64596 0.26719 0.0
H429 H 0.98125 0.68515 0.23701 0.0
H430 H 0.01856 0.63445 0.11902 0.0
H431 H 1.00081 0.65764 0.15438 0.0
C432 C 0.38199 0.24861 0.22178 0.0
C433 C 0.36381 0.25774 0.20597 0.0
C434 C 0.39564 0.23116 0.21102 0.0
C435 C 0.41386 0.20537 0.14567 0.0
H436 H 0.4313 0.15334 0.18953 0.0
C437 C 0.454 0.12098 0.10334 0.0
C438 C 0.48051 0.12114 0.11377 0.0
C439 C 0.43879 0.13646 0.11539 0.0
C440 C 0.42655 0.16784 0.17713 0.0
H441 H 0.34471 0.25533 0.16698 0.0
H442 H 0.36722 0.22386 0.14843 0.0
H443 H 0.4059 0.18232 0.20881 0.0
H444 H 0.51135 0.13677 0.14556 0.0
H445 H 0.48419 0.16326 0.16708 0.0
H446 H 0.43371 0.19004 0.11381 0.0
C447 C 0.37207 0.23087 0.1688 0.0
C448 C 0.41219 0.18461 0.18816 0.0
C449 C 0.35896 0.24875 0.17942 0.0
C450 C 0.49103 0.13636 0.13701 0.0
C451 C 0.47549 0.15139 0.14939 0.0
C452 C 0.42763 0.18824 0.13456 0.0
C453 C 0.3909 0.22203 0.18434 0.0
C454 C 0.40576 0.20374 0.17261 0.0
C455 C 0.4495 0.1519 0.13841 0.0
C456 C 0.43421 0.16944 0.15022 0.0
H457 H 0.38612 0.25546 0.24231 0.0
H458 H 0.41031 0.22527 0.22354 0.0
H459 H 0.41002 0.22019 0.13313 0.0
H460 H 0.44542 0.10955 0.08539 0.0
H461 H 0.41872 0.13651 0.10666 0.0
C462 C 0.19969 0.92425 0.63818 0.0
C463 C 0.18083 0.9021 0.65056 0.0
C464 C 0.1898 0.94425 0.6285 0.0
C465 C 0.12554 0.9551 0.60277 0.0
H466 H 0.16548 0.02999 0.61656 0.0
C467 C 0.10008 0.03806 0.5461 0.0
C468 C 0.09515 0.05826 0.56215 0.0
C469 C 0.11167 0.01976 0.55709 0.0
C470 C 0.15414 1.00914 0.6126 0.0
H471 H 0.1369 0.88417 0.66318 0.0
H472 H 0.11957 0.91879 0.64557 0.0
H473 H 0.18317 0.99637 0.63642 0.0
H474 H 0.09911 0.07582 0.60193 0.0
H475 H 0.11992 0.04404 0.62109 0.0
H476 H 0.09665 0.96781 0.57882 0.0
C477 C 0.14198 0.9205 0.64334 0.0
C478 C 0.16431 0.98997 0.62382 0.0
C479 C 0.15192 0.90066 0.65332 0.0
C480 C 0.1028 0.06042 0.58916 0.0
C481 C 0.11473 0.04232 0.60008 0.0
C482 C 0.11562 0.97425 0.59127 0.0
C483 C 0.1608 0.94238 0.63069 0.0
C484 C 0.15002 0.96278 0.61907 0.0
C485 C 0.11888 0.0216 0.58422 0.0
C486 C 0.12979 1.00143 0.59612 0.0
H487 H 0.22197 0.92582 0.63525 0.0
H488 H 0.20468 0.96079 0.61857 0.0
H489 H 0.11429 0.93426 0.59862 0.0
H490 H 0.09426 0.03596 0.52523 0.0
H491 H 0.1149 1.00407 0.54442 0.0
C492 C 0.73341 0.42921 0.95483 0.0
C493 C 0.72897 0.42934 0.92725 0.0
C494 C 0.75937 0.44425 0.96652 0.0
C495 C 0.82709 0.49965 0.95543 0.0
H496 H 0.8542 0.46661 1.01303 0.0
C497 C 0.92807 0.55577 0.01926 0.0
C498 C 0.94556 0.54101 0.02786 0.0
C499 C 0.90178 0.5431 1.00644 0.0
C500 C 0.84723 0.47615 0.99683 0.0
H501 H 0.74823 0.44631 0.89044 0.0
H502 H 0.79405 0.4724 0.91079 0.0
H503 H 0.80917 0.4432 0.99125 0.0
H504 H 0.94908 0.50124 0.02914 0.0
H505 H 0.90395 0.47942 1.0066 0.0
H506 H 0.86582 0.53232 0.96065 0.0
C507 C 0.77721 0.46075 0.92346 0.0
C508 C 0.821 0.4628 0.98451 0.0
C509 C 0.75097 0.44575 0.91173 0.0
C510 C 0.93615 0.51332 0.0231 0.0
C511 C 0.91005 0.50071 1.01022 0.0
C512 C 0.85349 0.51302 0.96775 0.0
C513 C 0.78196 0.45985 0.95102 0.0
C514 C 0.81038 0.47433 0.96369 0.0
C515 C 0.89231 0.51532 1.0018 0.0
C516 C 0.86399 0.50144 0.98865 0.0
H517 H 0.7167 0.4173 0.9675 0.0
H518 H 0.76169 0.44356 0.98784 0.0
H519 H 0.81964 0.50933 0.93964 0.0
H520 H 0.93456 0.57713 0.02256 0.0
H521 H 0.88869 0.55507 1.00057 0.0
C522 C 0.81257 0.71145 0.45129 0.0
C523 C 0.8121 0.71575 0.42384 0.0
C524 C 0.78778 0.69679 0.46454 0.0
C525 C 0.70835 0.67464 0.45803 0.0
H526 H 0.71182 0.63173 0.51828 0.0
C527 C 0.60612 0.61471 0.51416 0.0
C528 C 0.60776 0.61644 0.54207 0.0
C529 C 0.63088 0.62424 0.49874 0.0
C530 C 0.71047 0.64376 0.50159 0.0
H531 H 0.78486 0.70719 0.3888 0.0
H532 H 0.74198 0.68097 0.41165 0.0
H533 H 0.75512 0.65256 0.49309 0.0
H534 H 0.63672 0.62873 0.57566 0.0
H535 H 0.67984 0.64521 0.54888 0.0
H536 H 0.66369 0.66586 0.46662 0.0
C537 C 0.76146 0.6894 0.42311 0.0
C538 C 0.73538 0.65579 0.48713 0.0
C539 C 0.78626 0.70415 0.40987 0.0
C540 C 0.63476 0.62712 0.5542 0.0
C541 C 0.65951 0.63646 0.53881 0.0
C542 C 0.68342 0.66249 0.47241 0.0
C543 C 0.76171 0.68584 0.45074 0.0
C544 C 0.73479 0.67167 0.46528 0.0
C545 C 0.6579 0.63551 0.51086 0.0
C546 C 0.68418 0.64711 0.49458 0.0
H547 H 0.8321 0.71977 0.46272 0.0
H548 H 0.78894 0.69478 0.48581 0.0
H549 H 0.70698 0.68703 0.44167 0.0
H550 H 0.58561 0.60655 0.50423 0.0
H551 H 0.62884 0.62286 0.47729 0.0
C552 C 0.30636 0.40708 0.15887 0.0
C553 C 0.30642 0.393 0.18212 0.0
C554 C 0.2846 0.41813 0.15412 0.0
C555 C 0.21049 0.41296 0.17182 0.0
H556 H 0.23052 0.4838 0.14362 0.0
C557 C 0.12611 0.46644 0.15522 0.0
C558 C 0.12817 0.48005 0.13134 0.0
C559 C 0.14809 0.45674 0.16316 0.0
C560 C 0.22453 0.46391 0.15127 0.0
H561 H 0.28355 0.37955 0.21865 0.0
H562 H 0.24534 0.39869 0.21018 0.0
H563 H 0.26819 0.46472 0.15399 0.0
H564 H 0.15487 0.49398 0.097 0.0
H565 H 0.1931 0.47706 0.11076 0.0
H566 H 0.16679 0.41198 0.16872 0.0
C567 C 0.26211 0.40098 0.19557 0.0
C568 C 0.24612 0.45299 0.15722 0.0
C569 C 0.28396 0.38999 0.20038 0.0
C570 C 0.15283 0.484 0.11573 0.0
C571 C 0.17476 0.47428 0.12363 0.0
C572 C 0.18886 0.42386 0.16578 0.0
C573 C 0.26229 0.41532 0.17245 0.0
C574 C 0.23934 0.42729 0.1673 0.0
C575 C 0.17261 0.46042 0.14737 0.0
C576 C 0.19562 0.44936 0.15518 0.0
H577 H 0.32299 0.40933 0.14414 0.0
H578 H 0.28505 0.42863 0.13587 0.0
H579 H 0.20457 0.393 0.17931 0.0
H580 H 0.10754 0.46337 0.16785 0.0
H581 H 0.14595 0.44648 0.18173 0.0
C582 C 0.6329 0.31984 0.91265 0.0
C583 C 0.65131 0.34135 0.92745 0.0
C584 C 0.62133 0.29472 0.92387 0.0
C585 C 0.60895 0.26092 0.98968 0.0
H586 H 0.59454 0.19705 0.94536 0.0
C587 C 0.57267 0.15417 0.03283 0.0
C588 C 0.54986 0.13545 0.01937 0.0
C589 C 0.58633 0.17912 0.02187 0.0
C590 C 0.5983 0.21469 0.95803 0.0
H591 H 0.67121 0.35281 0.96627 0.0
H592 H 0.6524 0.30922 0.98512 0.0
H593 H 0.61544 0.24041 0.92586 0.0
H594 H 0.52401 0.12803 0.98351 0.0
H595 H 0.54793 0.17101 0.96431 0.0
H596 H 0.59213 0.23495 0.02192 0.0
C597 C 0.64636 0.31171 0.96494 0.0
C598 C 0.61019 0.23969 0.94679 0.0
C599 C 0.65768 0.33682 0.95385 0.0
C600 C 0.54153 0.14197 0.99445 0.0
C601 C 0.55534 0.16663 0.98335 0.0
C602 C 0.59735 0.23588 1.00097 0.0
C603 C 0.6279 0.29019 0.95022 0.0
C604 C 0.61555 0.26331 0.96236 0.0
C605 C 0.57778 0.1857 0.99696 0.0
C606 C 0.59163 0.2124 0.98527 0.0
H607 H 0.62752 0.32228 0.89225 0.0
H608 H 0.6069 0.27895 0.91185 0.0
H609 H 0.61214 0.27844 1.00241 0.0
H610 H 0.57978 0.14969 0.05187 0.0
H611 H 0.60372 0.1932 0.03281 0.0
C612 C 0.89716 0.82659 0.40954 0.0
C613 C 0.89152 0.80288 0.42355 0.0
C614 C 0.9099 0.85137 0.42225 0.0
C615 C 0.95288 0.884 0.48151 0.0
H616 H 0.92357 0.94193 0.46594 0.0
C617 C 0.99026 0.98507 0.54053 0.0
C618 C 0.9936 1.00841 0.52642 0.0
C619 C 0.97772 0.95991 0.52841 0.0
C620 C 0.93234 0.92614 0.47033 0.0
H621 H 0.89553 0.78687 0.46197 0.0
H622 H 0.91761 0.83007 0.48418 0.0
H623 H 0.90266 0.89865 0.44396 0.0
H624 H 0.98642 0.02335 0.48828 0.0
H625 H 0.96508 0.97974 0.46712 0.0
H626 H 0.98273 0.91154 0.50773 0.0
C627 C 0.91228 0.82948 0.46327 0.0
C628 C 0.92028 0.90121 0.45768 0.0
C629 C 0.89938 0.80468 0.45058 0.0
C630 C 0.98404 1.00588 0.49988 0.0
C631 C 0.9716 0.98076 0.48774 0.0
C632 C 0.96505 0.90898 0.49409 0.0
C633 C 0.91749 0.85321 0.44934 0.0
C634 C 0.93039 0.87978 0.46302 0.0
C635 C 0.96824 0.95734 0.50179 0.0
C636 C 0.95502 0.93049 0.48866 0.0
H637 H 0.89112 0.82609 0.38882 0.0
H638 H 0.91386 0.86914 0.41077 0.0
H639 H 0.96149 0.86809 0.48592 0.0
H640 H 0.99732 0.98618 0.56101 0.0
H641 H 0.97519 0.94246 0.54006 0.0
C642 C 0.32354 0.83991 0.64897 0.0
C643 C 0.32214 0.84565 0.6763 0.0
C644 C 0.33959 0.82378 0.63987 0.0
C645 C 0.36859 0.77209 0.66303 0.0
H646 H 0.42052 0.79083 0.60337 0.0
C647 C 0.45657 0.72455 0.64596 0.0
C648 C 0.46097 0.71618 0.62002 0.0
C649 C 0.43859 0.73992 0.65056 0.0
C650 C 0.4058 0.78519 0.61983 0.0
H651 H 0.33634 0.83894 0.71547 0.0
H652 H 0.36459 0.81134 0.69962 0.0
H653 H 0.39077 0.81877 0.61557 0.0
H654 H 0.45032 0.71772 0.57847 0.0
H655 H 0.41852 0.74471 0.5866 0.0
H656 H 0.38377 0.73884 0.66764 0.0
C657 C 0.35315 0.81906 0.68522 0.0
C658 C 0.3888 0.80115 0.6268 0.0
C659 C 0.33726 0.83516 0.69427 0.0
C660 C 0.44717 0.72378 0.59869 0.0
C661 C 0.42919 0.73934 0.6033 0.0
C662 C 0.38551 0.75623 0.6561 0.0
C663 C 0.35427 0.81296 0.65797 0.0
C664 C 0.3705 0.79503 0.64885 0.0
C665 C 0.42449 0.74728 0.62935 0.0
C666 C 0.40474 0.76291 0.63482 0.0
H667 H 0.31225 0.84788 0.63466 0.0
H668 H 0.34002 0.81935 0.61876 0.0
H669 H 0.35417 0.76652 0.67972 0.0
H670 H 0.46658 0.71875 0.66286 0.0
H671 H 0.4357 0.74606 0.67081 0.0
C672 C 0.79265 0.89388 0.85494 0.0
C673 C 0.79115 0.86708 0.85713 0.0
C674 C 0.80845 0.90914 0.83452 0.0
C675 C 0.84212 0.90324 0.76925 0.0
H676 H 0.8915 0.9744 0.78723 0.0
C677 C 0.91582 0.96941 0.69155 0.0
C678 C 0.94355 0.98412 0.70017 0.0
C679 C 0.89501 0.95636 0.70981 0.0
C680 C 0.87793 0.95451 0.78191 0.0
H681 H 0.80402 0.835 0.83891 0.0
H682 H 0.83209 0.86162 0.80398 0.0
H683 H 0.85887 0.94907 0.82048 0.0
H684 H 0.97093 0.99696 0.73489 0.0
H685 H 0.93508 0.97348 0.76651 0.0
H686 H 0.86209 0.90816 0.73111 0.0
C687 C 0.82092 0.87091 0.81778 0.0
C688 C 0.85892 0.94012 0.80087 0.0
C689 C 0.80516 0.85572 0.83809 0.0
C690 C 0.94994 0.98548 0.72748 0.0
C691 C 0.92921 0.97236 0.74569 0.0
C692 C 0.86121 0.91756 0.75034 0.0
C693 C 0.82296 0.89785 0.81582 0.0
C694 C 0.84113 0.91413 0.79491 0.0
C695 C 0.90146 0.95766 0.73711 0.0
C696 C 0.87969 0.94321 0.75657 0.0
H697 H 0.78214 0.90321 0.86933 0.0
H698 H 0.80935 0.92977 0.8334 0.0
H699 H 0.8284 0.88343 0.76385 0.0
H700 H 0.91021 0.96777 0.67065 0.0
H701 H 0.87379 0.94541 0.70253 0.0
C702 C 0.68711 0.18195 0.42527 0.0
C703 C 0.71647 0.19001 0.43147 0.0
C704 C 0.67786 0.18034 0.39889 0.0
C705 C 0.70255 0.2017 0.3307 0.0
H706 H 0.63617 0.14258 0.30967 0.0
C707 C 0.67027 0.16965 0.22111 0.0
C708 C 0.64099 0.16296 0.21477 0.0
C709 C 0.67961 0.175 0.24749 0.0
C710 C 0.65456 0.15935 0.31531 0.0
H711 H 0.75913 0.20334 0.41466 0.0
H712 H 0.74303 0.1995 0.36866 0.0
H713 H 0.65221 0.14772 0.35575 0.0
H714 H 0.5988 0.15795 0.23117 0.0
H715 H 0.61509 0.16672 0.27715 0.0
H716 H 0.70519 0.21278 0.28988 0.0
C717 C 0.7271 0.19485 0.38421 0.0
C718 C 0.66373 0.16237 0.34175 0.0
C719 C 0.73634 0.19669 0.41061 0.0
C720 C 0.62141 0.16243 0.23536 0.0
C721 C 0.63072 0.16753 0.26171 0.0
C722 C 0.69352 0.1985 0.30415 0.0
C723 C 0.69773 0.1865 0.37799 0.0
C724 C 0.68783 0.1836 0.34983 0.0
C725 C 0.65986 0.17356 0.26808 0.0
C726 C 0.6694 0.17731 0.29622 0.0
H727 H 0.67117 0.17637 0.44075 0.0
H728 H 0.65508 0.17423 0.39491 0.0
H729 H 0.72092 0.21851 0.33625 0.0
H730 H 0.68591 0.16994 0.20583 0.0
H731 H 0.70218 0.17938 0.25187 0.0
C732 C 0.41383 0.69729 0.33502 0.0
C733 C 0.43581 0.71559 0.32105 0.0
C734 C 0.41959 0.68755 0.35949 0.0
C735 C 0.48092 0.67655 0.39458 0.0
H736 H 0.43044 0.65935 0.45533 0.0
C737 C 0.49976 0.6107 0.47737 0.0
C738 C 0.49733 0.61845 0.50405 0.0
C739 C 0.4907 0.62312 0.45648 0.0
C740 C 0.44486 0.66417 0.43858 0.0
H741 H 0.48049 0.73928 0.32268 0.0
H742 H 0.49036 0.72292 0.36516 0.0
H743 H 0.41722 0.68105 0.41714 0.0
H744 H 0.48262 0.64525 0.52942 0.0
H745 H 0.46659 0.6669 0.49279 0.0
H746 H 0.5085 0.65976 0.41567 0.0
C747 C 0.46883 0.71551 0.35717 0.0
C748 C 0.43715 0.67642 0.41657 0.0
C749 C 0.4631 0.72515 0.33289 0.0
C750 C 0.48491 0.63873 0.50918 0.0
C751 C 0.47558 0.65108 0.48815 0.0
C752 C 0.48843 0.66415 0.41633 0.0
C753 C 0.44749 0.69585 0.37042 0.0
C754 C 0.45516 0.68289 0.39425 0.0
C755 C 0.47872 0.64369 0.46145 0.0
C756 C 0.47054 0.65765 0.43866 0.0
H757 H 0.39268 0.6893 0.32628 0.0
H758 H 0.40259 0.67242 0.36905 0.0
H759 H 0.49522 0.6808 0.37772 0.0
H760 H 0.50905 0.59514 0.47245 0.0
H761 H 0.49308 0.61653 0.43629 0.0
C762 C 0.14355 0.46475 0.83986 0.0
C763 C 0.16735 0.45741 0.8479 0.0
C764 C 0.13101 0.47911 0.8574 0.0
C765 C 0.12164 0.48859 0.92908 0.0
H766 H 0.10156 0.55139 0.91189 0.0
C767 C 0.05631 0.53627 1.00047 0.0
C768 C 0.06772 0.56395 1.0047 0.0
C769 C 0.06738 0.52319 0.98051 0.0
C770 C 0.107 0.53382 0.91697 0.0
H771 H 0.19796 0.46156 0.87994 0.0
H772 H 0.17589 0.48584 0.91032 0.0
H773 H 0.12325 0.52969 0.87785 0.0
H774 H 0.09951 0.59956 0.99099 0.0
H775 H 0.11832 0.57687 0.95596 0.0
H776 H 0.10535 0.49254 0.96808 0.0
C777 C 0.16658 0.48016 0.89073 0.0
C778 C 0.11926 0.52132 0.89742 0.0
C779 C 0.17925 0.46624 0.87322 0.0
C780 C 0.09024 0.57821 0.98834 0.0
C781 C 0.10093 0.56523 0.96811 0.0
C782 C 0.10892 0.50076 0.94842 0.0
C783 C 0.14187 0.48619 0.88338 0.0
C784 C 0.12714 0.49878 0.90337 0.0
C785 C 0.08972 0.53754 0.96395 0.0
C786 C 0.10176 0.52375 0.94277 0.0
H787 H 0.13373 0.45823 0.8206 0.0
H788 H 0.11203 0.48358 0.85109 0.0
H789 H 0.12723 0.47112 0.93426 0.0
H790 H 0.03875 0.52473 1.01248 0.0
H791 H 0.05814 0.50185 0.97775 0.0
C792 C 0.64316 0.87507 0.96436 0.0
C793 C 0.66393 0.87921 0.94429 0.0
C794 C 0.63679 0.89647 0.9766 0.0
C795 C 0.64184 0.96681 0.96712 0.0
H796 H 0.61781 0.96198 0.0408 0.0
C797 C 0.60411 0.04682 0.0263 0.0
C798 C 0.57656 0.03586 0.0369 0.0
C799 C 0.61891 0.0302 1.01557 0.0
C800 C 0.62464 0.96365 0.02025 0.0
H801 H 0.69462 0.90937 0.92168 0.0
H802 H 0.68408 0.94693 0.94371 0.0
H803 H 0.6372 0.92859 0.02145 0.0
H804 H 0.54316 0.99898 0.04501 0.0
H805 H 0.56922 0.97021 0.02696 0.0
H806 H 0.62913 1.00207 0.96624 0.0
C807 C 0.67235 0.92698 0.9496 0.0
C808 C 0.63554 0.94444 1.00907 0.0
C809 C 0.67862 0.90545 0.93717 0.0
C810 C 0.56428 1.00807 0.03686 0.0
C811 C 0.57924 0.99157 0.02669 0.0
C812 C 0.63127 0.98629 0.97848 0.0
C813 C 0.65124 0.92273 0.96942 0.0
C814 C 0.64341 0.94525 0.98211 0.0
C815 C 0.60663 1.00243 1.01591 0.0
C816 C 0.62182 0.9844 1.00492 0.0
H817 H 0.63175 0.85521 0.97072 0.0
H818 H 0.62005 0.89229 0.99141 0.0
H819 H 0.6475 0.96801 0.94627 0.0
H820 H 0.61404 0.06817 0.02602 0.0
H821 H 0.64004 0.03899 1.00733 0.0
C822 C 0.80812 0.17925 0.4813 0.0
C823 C 0.78457 0.17447 0.49859 0.0
C824 C 0.83175 0.17127 0.4878 0.0
C825 C 0.87235 0.16123 0.54309 0.0
H826 H 0.89394 0.10897 0.49974 0.0
C827 C 0.95102 0.11045 0.58192 0.0
C828 C 0.96911 0.10305 0.56387 0.0
C829 C 0.92964 0.12026 0.57281 0.0
C830 C 0.88865 0.12399 0.51183 0.0
H831 H 0.76727 0.15669 0.53594 0.0
H832 H 0.80913 0.14411 0.54771 0.0
H833 H 0.85488 0.1247 0.48528 0.0
H834 H 0.97948 0.10023 0.52226 0.0
H835 H 0.9431 0.11861 0.50628 0.0
H836 H 0.90633 0.16135 0.56932 0.0
C837 C 0.80907 0.15398 0.52915 0.0
C838 C 0.86618 0.13283 0.50357 0.0
C839 C 0.78523 0.16139 0.52244 0.0
C840 C 0.96574 0.10584 0.53656 0.0
C841 C 0.9447 0.11615 0.52744 0.0
C842 C 0.89516 0.15285 0.5511 0.0
C843 C 0.83247 0.15889 0.51191 0.0
C844 C 0.8576 0.15114 0.5194 0.0
C845 C 0.92626 0.12338 0.54544 0.0
C846 C 0.90328 0.13371 0.53586 0.0
H847 H 0.80861 0.18959 0.46297 0.0
H848 H 0.84972 0.1753 0.47431 0.0
H849 H 0.86616 0.1756 0.55543 0.0
H850 H 0.9531 0.10831 0.60309 0.0
H851 H 0.91549 0.12498 0.58728 0.0
C852 C 0.31186 0.7395 0.18279 0.0
C853 C 0.32002 0.73349 0.20811 0.0
C854 C 0.28561 0.72487 0.17131 0.0
C855 C 0.23048 0.66035 0.16837 0.0
H856 H 0.18153 0.69926 0.14257 0.0
C857 C 0.11842 0.60609 0.12127 0.0
C858 C 0.10793 0.61919 0.10176 0.0
C859 C 0.14388 0.6192 0.13516 0.0
C860 C 0.19502 0.68794 0.14912 0.0
H861 H 0.30642 0.70633 0.24062 0.0
H862 H 0.26099 0.68007 0.21987 0.0
H863 H 0.22637 0.72311 0.16481 0.0
H864 H 0.1167 0.65606 0.08087 0.0
H865 H 0.16144 0.67836 0.10384 0.0
H866 H 0.19995 0.62527 0.15171 0.0
C867 C 0.27507 0.69659 0.20929 0.0
C868 C 0.2207 0.70172 0.16216 0.0
C869 C 0.30121 0.71164 0.22112 0.0
C870 C 0.12393 0.64544 0.09599 0.0
C871 C 0.1496 0.65837 0.10947 0.0
C872 C 0.205 0.64654 0.15482 0.0
C873 C 0.26685 0.70328 0.18438 0.0
C874 C 0.23882 0.68815 0.17182 0.0
C875 C 0.15987 0.64567 0.12962 0.0
C876 C 0.18688 0.66014 0.14476 0.0
H877 H 0.3259 0.75537 0.17144 0.0
H878 H 0.28014 0.73023 0.15189 0.0
H879 H 0.24413 0.64936 0.17541 0.0
H880 H 0.10657 0.58589 0.12634 0.0
H881 H 0.15059 0.60867 0.15066 0.0
C882 C 0.27547 0.46226 0.7216 0.0
C883 C 0.24919 0.45183 0.708 0.0
C884 C 0.30032 0.47665 0.70811 0.0
C885 C 0.33082 0.48373 0.64036 0.0
H886 H 0.38869 0.54558 0.67026 0.0
C887 C 0.42815 0.54069 0.57801 0.0
C888 C 0.45495 0.55041 0.59064 0.0
C889 C 0.40307 0.53094 0.59286 0.0
C890 C 0.37293 0.52815 0.66169 0.0
H891 H 0.22832 0.45001 0.66981 0.0
H892 H 0.27142 0.4749 0.64642 0.0
H893 H 0.3451 0.52476 0.69534 0.0
H894 H 0.47641 0.55823 0.62888 0.0
H895 H 0.43273 0.54069 0.65489 0.0
H896 H 0.35858 0.48652 0.60706 0.0
C897 C 0.27302 0.47151 0.6674 0.0
C898 C 0.34785 0.51623 0.67609 0.0
C899 C 0.24823 0.45725 0.68086 0.0
C900 C 0.45605 0.5509 0.61857 0.0
C901 C 0.43092 0.54092 0.63347 0.0
C902 C 0.35587 0.49547 0.62608 0.0
C903 C 0.29956 0.48092 0.68066 0.0
C904 C 0.32637 0.49392 0.66555 0.0
C905 C 0.40406 0.53036 0.62081 0.0
C906 C 0.3773 0.51797 0.6364 0.0
H907 H 0.27718 0.45827 0.7424 0.0
H908 H 0.32037 0.48345 0.71896 0.0
H909 H 0.31511 0.46624 0.63181 0.0
H910 H 0.42656 0.54028 0.55653 0.0
H911 H 0.38287 0.52368 0.5823 0.0
C912 C 0.79875 0.78293 0.90708 0.0
C913 C 0.78415 0.79659 0.92309 0.0
C914 C 0.81186 0.7659 0.9183 0.0
C915 C 0.84199 0.75341 0.98152 0.0
H916 H 0.84535 0.68973 0.94348 0.0
C917 C 0.90551 0.68715 0.02155 0.0
C918 C 0.9239 0.68075 1.00296 0.0
C919 C 0.88467 0.69818 1.01329 0.0
C920 C 0.84462 0.70748 0.95431 0.0
H921 H 0.77126 0.80251 0.96343 0.0
H922 H 0.79382 0.7723 0.98307 0.0
H923 H 0.81519 0.71456 0.92656 0.0
H924 H 0.9341 0.6798 0.96108 0.0
H925 H 0.89785 0.69909 0.94667 0.0
H926 H 0.87179 0.74649 1.00905 0.0
C927 C 0.79542 0.77511 0.96182 0.0
C928 C 0.8274 0.72173 0.94461 0.0
C929 C 0.78227 0.79221 0.95055 0.0
C930 C 0.9204 0.68477 0.97588 0.0
C931 C 0.89946 0.69557 0.96761 0.0
C932 C 0.85912 0.73906 0.99129 0.0
C933 C 0.81063 0.76196 0.94584 0.0
C934 C 0.82636 0.7452 0.95777 0.0
C935 C 0.88164 0.70276 0.98625 0.0
C936 C 0.86108 0.71626 0.97749 0.0
H937 H 0.80022 0.78555 0.88579 0.0
H938 H 0.82367 0.75639 0.90542 0.0
H939 H 0.84198 0.77155 0.99198 0.0
H940 H 0.90783 0.68442 0.04257 0.0
H941 H 0.8711 0.70335 0.02808 0.0
C942 C 0.42145 0.83949 0.22567 0.0
C943 C 0.40161 0.81915 0.21067 0.0
C944 C 0.43418 0.86474 0.21507 0.0
C945 C 0.42533 0.90936 0.1619 0.0
H946 H 0.50609 0.94521 0.17408 0.0
C947 C 0.48765 1.00717 0.10839 0.0
C948 C 0.50959 0.02595 0.1228 0.0
C949 C 0.47382 0.98199 0.11884 0.0
C950 C 0.4834 0.93577 0.17072 0.0
H951 H 0.38057 0.80976 0.17213 0.0
H952 H 0.40224 0.85353 0.15408 0.0
H953 H 0.48347 0.90208 0.19333 0.0
H954 H 0.53368 0.03333 0.15967 0.0
H955 H 0.50934 0.99023 0.17807 0.0
H956 H 0.42519 0.94316 0.13946 0.0
C957 C 0.40762 0.85014 0.17423 0.0
C958 C 0.4704 0.91089 0.18182 0.0
C959 C 0.39506 0.82493 0.18472 0.0
C960 C 0.51698 0.01924 0.14797 0.0
C961 C 0.50313 0.99431 0.15845 0.0
C962 C 0.4383 0.93436 0.15091 0.0
C963 C 0.42742 0.87046 0.18918 0.0
C964 C 0.44117 0.89728 0.17761 0.0
C965 C 0.48154 0.97508 0.14399 0.0
C966 C 0.46756 0.94805 0.1552 0.0
H967 H 0.42694 0.83604 0.24575 0.0
H968 H 0.4491 0.87992 0.22732 0.0
H969 H 0.4027 0.89968 0.15842 0.0
H970 H 0.48157 1.01173 0.08888 0.0
H971 H 0.45751 0.96777 0.10691 0.0
C972 C 0.16488 0.34045 0.71917 0.0
C973 C 0.17038 0.36452 0.70582 0.0
C974 C 0.15265 0.31596 0.70578 0.0
C975 C 0.14081 0.28454 0.63781 0.0
H976 H 0.08785 0.22591 0.6743 0.0
C977 C 0.07992 0.18373 0.58435 0.0
C978 C 0.07698 0.16037 0.5983 0.0
C979 C 0.09113 0.20885 0.59692 0.0
C980 C 0.10284 0.24197 0.66386 0.0
H981 H 0.16662 0.38148 0.66785 0.0
H982 H 0.14502 0.33883 0.64455 0.0
H983 H 0.10677 0.26905 0.69708 0.0
H984 H 0.08385 0.14535 0.63652 0.0
H985 H 0.10343 0.18895 0.65827 0.0
H986 H 0.1367 0.25736 0.60453 0.0
C987 C 0.15065 0.33885 0.66533 0.0
C988 C 0.11374 0.2668 0.67697 0.0
C989 C 0.16297 0.36337 0.67873 0.0
C990 C 0.08576 0.16283 0.62509 0.0
C991 C 0.09681 0.1879 0.63767 0.0
C992 C 0.1298 0.2597 0.62465 0.0
C993 C 0.14546 0.31474 0.67861 0.0
C994 C 0.13306 0.28844 0.66423 0.0
C995 C 0.09952 0.21129 0.62384 0.0
C996 C 0.11081 0.238 0.63756 0.0
H997 H 0.1708 0.34046 0.73988 0.0
H998 H 0.14953 0.29793 0.71666 0.0
H999 H 0.15593 0.30052 0.6274 0.0
H1000 H 0.07333 0.18265 0.56373 0.0
H1001 H 0.09264 0.22637 0.58567 0.0
C1002 C 0.67115 0.27838 0.56772 0.0
C1003 C 0.67028 0.26145 0.5455 0.0
C1004 C 0.66148 0.30041 0.56579 0.0
C1005 C 0.61543 0.32708 0.52445 0.0
H1006 H 0.65494 0.39356 0.56158 0.0
C1007 C 0.58849 0.42362 0.50747 0.0
C1008 C 0.58551 0.43843 0.53031 0.0
C1009 C 0.59951 0.40246 0.50934 0.0
C1010 C 0.64359 0.37504 0.55128 0.0
H1011 H 0.65856 0.25446 0.50379 0.0
H1012 H 0.64261 0.29332 0.50021 0.0
H1013 H 0.67325 0.35588 0.56451 0.0
H1014 H 0.59193 0.44261 0.57305 0.0
H1015 H 0.6116 0.40581 0.5762 0.0
H1016 H 0.58597 0.34639 0.511 0.0
C1017 C 0.6503 0.28933 0.51927 0.0
C1018 C 0.65401 0.35345 0.55299 0.0
C1019 C 0.65981 0.26723 0.52123 0.0
C1020 C 0.59426 0.43183 0.55502 0.0
C1021 C 0.60549 0.41075 0.55686 0.0
C1022 C 0.60515 0.34872 0.5226 0.0
C1023 C 0.65086 0.30609 0.54156 0.0
C1024 C 0.64002 0.32919 0.53961 0.0
C1025 C 0.60802 0.39575 0.53405 0.0
C1026 C 0.6191 0.37289 0.53601 0.0
H1027 H 0.67943 0.27471 0.58663 0.0
H1028 H 0.66195 0.31274 0.58343 0.0
H1029 H 0.60381 0.30856 0.5143 0.0
H1030 H 0.58253 0.42852 0.48805 0.0
H1031 H 0.60165 0.39149 0.49137 0.0
loop_
_geom_bond_atom_site_label_1
_geom_bond_atom_site_label_2
_geom_bond_distance
_geom_bond_site_symmetry_2
_ccdc_geom_bond_type
H0 C1 0.949 . S
C1 H0 0.949 . S
C1 C2 1.395 . S
C1 C3 1.391 . S
C2 C1 1.395 . S
C2 C5 1.390 . S
C3 C1 1.391 . S
C3 C7 1.387 . S
C3 C8 1.491 . S
H4 C5 0.950 . S
C5 C2 1.390 . S
C5 H4 0.950 . S
C5 C6 1.378 . S
C6 C5 1.378 . S
C6 C7 1.409 . S
C7 C3 1.387 . S
C7 C6 1.409 . S
C7 H9 0.951 . S
C8 C3 1.491 . S
C8 C10 1.382 . S
C8 C12 1.404 . S
H9 C7 0.951 . S
C10 C8 1.382 . S
C10 C11 1.390 . S
C10 H15 0.949 . S
C11 C10 1.390 . S
C11 C16 1.399 . S
C12 C8 1.404 . S
C12 H13 0.950 . S
C12 C14 1.375 . S
H13 C12 0.950 . S
C14 C12 1.375 . S
C14 C16 1.382 . S
C14 H18 0.950 . S
H15 C10 0.949 . S
C16 C11 1.399 . S
C16 C14 1.382 . S
C16 H17 0.952 . S
H17 C16 0.952 . S
H18 C14 0.950 . S
H19 C20 0.949 . S
C20 H19 0.949 . S
C20 C21 1.395 . S
C20 C22 1.391 . S
C21 C20 1.395 . S
C21 C24 1.390 . S
C22 C20 1.391 . S
C22 C26 1.387 . S
C22 C27 1.491 . S
H23 C24 0.950 . S
C24 C21 1.390 . S
C24 H23 0.950 . S
C24 C25 1.378 . S
C25 C24 1.378 . S
C25 C26 1.409 . S
C26 C22 1.387 . S
C26 C25 1.409 . S
C26 H28 0.951 . S
C27 C22 1.491 . S
C27 C29 1.382 . S
C27 C31 1.404 . S
H28 C26 0.951 . S
C29 C27 1.382 . S
C29 C30 1.390 . S
C29 H34 0.949 . S
C30 C29 1.390 . S
C30 C35 1.399 . S
C31 C27 1.404 . S
C31 H32 0.950 . S
C31 C33 1.375 . S
H32 C31 0.950 . S
C33 C31 1.375 . S
C33 C35 1.382 . S
C33 H37 0.950 . S
H34 C29 0.949 . S
C35 C30 1.399 . S
C35 C33 1.382 . S
C35 H36 0.952 . S
H36 C35 0.952 . S
H37 C33 0.950 . S
H38 C39 0.949 . S
C39 H38 0.949 . S
C39 C40 1.395 . S
C39 C41 1.391 . S
C40 C39 1.395 . S
C40 C43 1.390 . S
C41 C39 1.391 . S
C41 C45 1.387 . S
C41 C46 1.491 . S
H42 C43 0.950 . S
C43 C40 1.390 . S
C43 H42 0.950 . S
C43 C44 1.378 . S
C44 C43 1.378 . S
C44 C45 1.409 . S
C45 C41 1.387 . S
C45 C44 1.409 . S
C45 H47 0.951 . S
C46 C41 1.491 . S
C46 C48 1.382 . S
C46 C50 1.404 . S
H47 C45 0.951 . S
C48 C46 1.382 . S
C48 C49 1.390 . S
C48 H53 0.949 . S
C49 C48 1.390 . S
C49 C54 1.399 . S
C50 C46 1.404 . S
C50 H51 0.950 . S
C50 C52 1.375 . S
H51 C50 0.950 . S
C52 C50 1.375 . S
C52 C54 1.382 . S
C52 H56 0.950 . S
H53 C48 0.949 . S
C54 C49 1.399 . S
C54 C52 1.382 . S
C54 H55 0.952 . S
H55 C54 0.952 . S
H56 C52 0.950 . S
H57 C58 0.949 . S
C58 H57 0.949 . S
C58 C59 1.395 . S
C58 C60 1.391 . S
C59 C58 1.395 . S
C59 C62 1.390 . S
C60 C58 1.391 . S
C60 C64 1.387 . S
C60 C65 1.491 . S
H61 C62 0.950 . S
C62 C59 1.390 . S
C62 H61 0.950 . S
C62 C63 1.378 . S
C63 C62 1.378 . S
C63 C64 1.409 . S
C64 C60 1.387 . S
C64 C63 1.409 . S
C64 H66 0.951 . S
C65 C60 1.491 . S
C65 C67 1.382 . S
C65 C69 1.404 . S
H66 C64 0.951 . S
C67 C65 1.382 . S
C67 C68 1.390 . S
C67 H72 0.949 . S
C68 C67 1.390 . S
C68 C73 1.399 . S
C69 C65 1.404 . S
C69 H70 0.950 . S
C69 C71 1.375 . S
H70 C69 0.950 . S
C71 C69 1.375 . S
C71 C73 1.382 . S
C71 H75 0.950 . S
H72 C67 0.949 . S
C73 C68 1.399 . S
C73 C71 1.382 . S
C73 H74 0.952 . S
H74 C73 0.952 . S
H75 C71 0.950 . S
H76 C77 0.949 . S
C77 H76 0.949 . S
C77 C78 1.395 . S
C77 C79 1.391 . S
C78 C77 1.395 . S
C78 C81 1.390 . S
C79 C77 1.391 . S
C79 C83 1.387 . S
C79 C84 1.491 . S
H80 C81 0.950 . S
C81 C78 1.390 . S
C81 H80 0.950 . S
C81 C82 1.378 . S
C82 C81 1.378 . S
C82 C83 1.409 . S
C83 C79 1.387 . S
C83 C82 1.409 . S
C83 H85 0.951 . S
C84 C79 1.491 . S
C84 C86 1.382 . S
C84 C88 1.404 . S
H85 C83 0.951 . S
C86 C84 1.382 . S
C86 C87 1.390 . S
C86 H91 0.949 . S
C87 C86 1.390 . S
C87 C92 1.399 . S
C88 C84 1.404 . S
C88 H89 0.950 . S
C88 C90 1.375 . S
H89 C88 0.950 . S
C90 C88 1.375 . S
C90 C92 1.382 . S
C90 H94 0.950 . S
H91 C86 0.949 . S
C92 C87 1.399 . S
C92 C90 1.382 . S
C92 H93 0.952 . S
H93 C92 0.952 . S
H94 C90 0.950 . S
H95 C96 0.949 . S
C96 H95 0.949 . S
C96 C97 1.395 . S
C96 C98 1.391 . S
C97 C96 1.395 . S
C97 C100 1.390 . S
C98 C96 1.391 . S
C98 C102 1.387 . S
C98 C103 1.491 . S
H99 C100 0.950 . S
C100 C97 1.390 . S
C100 H99 0.950 . S
C100 C101 1.378 . S
C101 C100 1.378 . S
C101 C102 1.409 . S
C102 C98 1.387 . S
C102 C101 1.409 . S
C102 H104 0.951 . S
C103 C98 1.491 . S
C103 C105 1.382 . S
C103 C107 1.404 . S
H104 C102 0.951 . S
C105 C103 1.382 . S
C105 C106 1.390 . S
C105 H110 0.949 . S
C106 C105 1.390 . S
C106 C111 1.399 . S
C107 C103 1.404 . S
C107 H108 0.950 . S
C107 C109 1.375 . S
H108 C107 0.950 . S
C109 C107 1.375 . S
C109 C111 1.382 . S
C109 H113 0.950 . S
H110 C105 0.949 . S
C111 C106 1.399 . S
C111 C109 1.382 . S
C111 H112 0.952 . S
H112 C111 0.952 . S
H113 C109 0.950 . S
H114 C115 0.949 . S
C115 H114 0.949 . S
C115 C116 1.395 . S
C115 C117 1.391 . S
C116 C115 1.395 . S
C116 C119 1.390 . S
C117 C115 1.391 . S
C117 C121 1.387 . S
C117 C122 1.491 . S
H118 C119 0.950 . S
C119 C116 1.390 . S
C119 H118 0.950 . S
C119 C120 1.378 . S
C120 C119 1.378 . S
C120 C121 1.409 . S
C121 C117 1.387 . S
C121 C120 1.409 . S
C121 H123 0.951 . S
C122 C117 1.491 . S
C122 C124 1.382 . S
C122 C126 1.404 . S
H123 C121 0.951 . S
C124 C122 1.382 . S
C124 C125 1.390 . S
C124 H129 0.949 . S
C125 C124 1.390 . S
C125 C130 1.399 . S
C126 C122 1.404 . S
C126 H127 0.950 . S
C126 C128 1.375 . S
H127 C126 0.950 . S
C128 C126 1.375 . S
C128 C130 1.382 . S
C128 H132 0.950 . S
H129 C124 0.949 . S
C130 C125 1.399 . S
C130 C128 1.382 . S
C130 H131 0.952 . S
H131 C130 0.952 . S
H132 C128 0.950 . S
H133 C134 0.949 . S
C134 H133 0.949 . S
C134 C135 1.395 . S
C134 C136 1.391 . S
C135 C134 1.395 . S
C135 C138 1.390 . S
C136 C134 1.391 . S
C136 C140 1.387 . S
C136 C141 1.491 . S
H137 C138 0.950 . S
C138 C135 1.390 . S
C138 H137 0.950 . S
C138 C139 1.378 . S
C139 C138 1.378 . S
C139 C140 1.409 . S
C140 C136 1.387 . S
C140 C139 1.409 . S
C140 H142 0.951 . S
C141 C136 1.491 . S
C141 C143 1.382 . S
C141 C145 1.404 . S
H142 C140 0.951 . S
C143 C141 1.382 . S
C143 C144 1.390 . S
C143 H148 0.949 . S
C144 C143 1.390 . S
C144 C149 1.399 . S
C145 C141 1.404 . S
C145 H146 0.950 . S
C145 C147 1.375 . S
H146 C145 0.950 . S
C147 C145 1.375 . S
C147 C149 1.382 . S
C147 H151 0.950 . S
H148 C143 0.949 . S
C149 C144 1.399 . S
C149 C147 1.382 . S
C149 H150 0.952 . S
H150 C149 0.952 . S
H151 C147 0.950 . S
La152 C154 2.928 . S
La152 O172 2.521 . S
La152 O173 2.628 . S
La152 O174 2.554 . S
La152 O175 2.757 . S
La152 O176 2.470 . S
La152 O181 2.482 1_455 S
La152 O183 2.503 . S
La153 C163 2.928 1_545 S
La153 O175 2.482 1_655 S
La153 O177 2.503 1_655 S
La153 O178 2.521 . S
La153 O179 2.628 1_545 S
La153 O180 2.554 . S
La153 O181 2.757 . S
La153 O182 2.470 . S
C154 La152 2.928 . S
C154 C155 1.503 . S
C154 O172 1.261 . S
C154 O173 1.243 . S
C155 C154 1.503 . S
C155 C156 1.394 . S
C155 C160 1.373 . S
C156 C155 1.394 . S
C156 C157 1.380 . S
C156 H184 0.930 . S
C157 C156 1.380 . S
C157 C158 1.376 . S
C157 H185 0.930 . S
C158 C157 1.376 . S
C158 C159 1.370 . S
C159 C158 1.370 . S
C159 C160 1.396 . S
C159 H186 0.929 . S
C160 C155 1.373 . S
C160 C159 1.396 . S
C160 H187 0.929 . S
C161 O174 1.240 . S
C161 O175 1.289 . S
C162 O176 1.258 . S
C162 O177 1.256 . S
C163 La153 2.928 1_565 S
C163 C164 1.503 . S
C163 O178 1.261 1_565 S
C163 O179 1.243 . S
C164 C163 1.503 . S
C164 C165 1.394 . S
C164 C169 1.373 . S
C165 C164 1.394 . S
C165 C166 1.380 . S
C165 H188 0.930 . S
C166 C165 1.380 . S
C166 C167 1.376 . S
C166 H189 0.930 . S
C167 C166 1.376 . S
C167 C168 1.370 . S
C168 C167 1.370 . S
C168 C169 1.396 . S
C168 H190 0.929 . S
C169 C164 1.373 . S
C169 C168 1.396 . S
C169 H191 0.929 . S
C170 O180 1.240 . S
C170 O181 1.289 . S
C171 O182 1.258 1_565 S
C171 O183 1.256 1_665 S
O172 La152 2.521 . S
O172 C154 1.261 . S
O173 La152 2.628 . S
O173 C154 1.243 . S
O174 La152 2.554 . S
O174 C161 1.240 . S
O175 La152 2.757 . S
O175 La153 2.482 1_455 S
O175 C161 1.289 . S
O176 La152 2.470 . S
O176 C162 1.258 . S
O177 La153 2.503 1_455 S
O177 C162 1.256 . S
O178 La153 2.521 . S
O178 C163 1.261 1_545 S
O179 La153 2.628 1_565 S
O179 C163 1.243 . S
O180 La153 2.554 . S
O180 C170 1.240 . S
O181 La152 2.482 1_655 S
O181 La153 2.757 . S
O181 C170 1.289 . S
O182 La153 2.470 . S
O182 C171 1.258 1_545 S
O183 La152 2.503 . S
O183 C171 1.256 1_445 S
H184 C156 0.930 . S
H185 C157 0.930 . S
H186 C159 0.929 . S
H187 C160 0.929 . S
H188 C165 0.930 . S
H189 C166 0.930 . S
H190 C168 0.929 . S
H191 C169 0.929 . S
La192 C194 2.928 . S
La192 O212 2.521 . S
La192 O213 2.628 . S
La192 O214 2.578 . S
La192 O215 2.757 . S
La192 O216 2.470 . S
La192 O221 2.482 . S
La192 O223 2.503 . S
La193 C203 2.924 1_545 S
La193 O215 2.482 . S
La193 O217 2.503 . S
La193 O218 2.524 1_554 S
La193 O219 2.628 1_545 S
La193 O220 2.554 . S
La193 O221 2.757 . S
La193 O222 2.470 . S
C194 La192 2.928 . S
C194 C195 1.503 . S
C194 O212 1.261 . S
C194 O213 1.243 . S
C195 C194 1.503 . S
C195 C196 1.394 . S
C195 C200 1.373 . S
C196 C195 1.394 . S
C196 C197 1.380 . S
C196 H224 0.930 . S
C197 C196 1.380 . S
C197 C198 1.376 . S
C197 H225 0.930 . S
C198 C197 1.376 . S
C198 C199 1.370 . S
C199 C198 1.370 . S
C199 C200 1.396 . S
C199 H226 0.929 . S
C200 C195 1.373 . S
C200 C199 1.396 . S
C200 H227 0.929 . S
C201 O214 1.241 1_565 S
C201 O215 1.289 1_565 S
C202 O216 1.258 . S
C202 O217 1.256 . S
C203 La193 2.924 1_565 S
C203 C204 1.507 1_554 S
C203 O218 1.253 1_564 S
C203 O219 1.247 . S
C204 C203 1.507 1_556 S
C204 C205 1.394 . S
C204 C209 1.373 . S
C205 C204 1.394 . S
C205 C206 1.380 . S
C205 H228 0.930 1_565 S
C206 C205 1.380 . S
C206 C207 1.376 . S
C206 H229 0.930 . S
C207 C206 1.376 . S
C207 C208 1.370 . S
C208 C207 1.370 . S
C208 C209 1.396 . S
C208 H230 0.929 . S
C209 C204 1.373 . S
C209 C208 1.396 . S
C209 H231 0.929 . S
C210 O220 1.240 . S
C210 O221 1.289 . S
C211 O222 1.258 . S
C211 O223 1.256 . S
O212 La192 2.521 . S
O212 C194 1.261 . S
O213 La192 2.628 . S
O213 C194 1.243 . S
O214 La192 2.578 . S
O214 C201 1.241 1_545 S
O215 La192 2.757 . S
O215 La193 2.482 . S
O215 C201 1.289 1_545 S
O216 La192 2.470 . S
O216 C202 1.258 . S
O217 La193 2.503 . S
O217 C202 1.256 . S
O218 La193 2.524 1_556 S
O218 C203 1.253 1_546 S
O219 La193 2.628 1_565 S
O219 C203 1.247 . S
O220 La193 2.554 . S
O220 C210 1.240 . S
O221 La192 2.482 . S
O221 La193 2.757 . S
O221 C210 1.289 . S
O222 La193 2.470 . S
O222 C211 1.258 . S
O223 La192 2.503 . S
O223 C211 1.256 . S
H224 C196 0.930 . S
H225 C197 0.930 . S
H226 C199 0.929 . S
H227 C200 0.929 . S
H228 C205 0.930 1_545 S
H229 C206 0.930 . S
H230 C208 0.929 . S
H231 C209 0.929 . S
La232 C234 2.928 . S
La232 O252 2.521 . S
La232 O253 2.628 . S
La232 O254 2.554 . S
La232 O255 2.757 . S
La232 O256 2.470 . S
La232 O261 2.482 . S
La232 O263 2.503 . S
La233 C243 2.928 . S
La233 O255 2.482 . S
La233 O257 2.503 . S
La233 O258 2.521 . S
La233 O259 2.628 . S
La233 O260 2.554 . S
La233 O261 2.757 . S
La233 O262 2.470 . S
C234 La232 2.928 . S
C234 C235 1.503 . S
C234 O252 1.261 . S
C234 O253 1.243 . S
C235 C234 1.503 . S
C235 C236 1.394 . S
C235 C240 1.373 . S
C236 C235 1.394 . S
C236 C237 1.380 . S
C236 H264 0.930 . S
C237 C236 1.380 . S
C237 C238 1.376 . S
C237 H265 0.930 . S
C238 C237 1.376 . S
C238 C239 1.370 . S
C239 C238 1.370 . S
C239 C240 1.396 . S
C239 H266 0.929 . S
C240 C235 1.373 . S
C240 C239 1.396 . S
C240 H267 0.929 . S
C241 O254 1.240 . S
C241 O255 1.289 . S
C242 O256 1.258 . S
C242 O257 1.256 . S
C243 La233 2.928 . S
C243 C244 1.503 . S
C243 O258 1.261 . S
C243 O259 1.243 . S
C244 C243 1.503 . S
C244 C245 1.394 . S
C244 C249 1.373 . S
C245 C244 1.394 . S
C245 C246 1.380 . S
C245 H268 0.930 . S
C246 C245 1.380 . S
C246 C247 1.376 . S
C246 H269 0.930 . S
C247 C246 1.376 . S
C247 C248 1.370 . S
C248 C247 1.370 . S
C248 C249 1.396 . S
C248 H270 0.929 . S
C249 C244 1.373 . S
C249 C248 1.396 . S
C249 H271 0.929 . S
C250 O260 1.240 . S
C250 O261 1.289 . S
C251 O262 1.258 . S
C251 O263 1.256 . S
O252 La232 2.521 . S
O252 C234 1.261 . S
O253 La232 2.628 . S
O253 C234 1.243 . S
O254 La232 2.554 . S
O254 C241 1.240 . S
O255 La232 2.757 . S
O255 La233 2.482 . S
O255 C241 1.289 . S
O256 La232 2.470 . S
O256 C242 1.258 . S
O257 La233 2.503 . S
O257 C242 1.256 . S
O258 La233 2.521 . S
O258 C243 1.261 . S
O259 La233 2.628 . S
O259 C243 1.243 . S
O260 La233 2.554 . S
O260 C250 1.240 . S
O261 La232 2.482 . S
O261 La233 2.757 . S
O261 C250 1.289 . S
O262 La233 2.470 . S
O262 C251 1.258 . S
O263 La232 2.503 . S
O263 C251 1.256 . S
H264 C236 0.930 . S
H265 C237 0.930 . S
H266 C239 0.929 . S
H267 C240 0.929 . S
H268 C245 0.930 . S
H269 C246 0.930 . S
H270 C248 0.929 . S
H271 C249 0.929 . S
La272 C274 2.928 . S
La272 O292 2.521 . S
La272 O293 2.628 . S
La272 O294 2.554 . S
La272 O295 2.757 . S
La272 O296 2.470 . S
La272 O301 2.482 1_554 S
La272 O303 2.503 1_455 S
La273 C283 2.926 1_454 S
La273 O295 2.487 . S
La273 O297 2.506 . S
La273 O298 2.516 1_554 S
La273 O299 2.628 1_454 S
La273 O300 2.549 1_554 S
La273 O301 2.757 1_554 S
La273 O302 2.487 1_554 S
C274 La272 2.928 . S
C274 C275 1.503 . S
C274 O292 1.261 . S
C274 O293 1.243 . S
C275 C274 1.503 . S
C275 C276 1.394 . S
C275 C280 1.373 . S
C276 C275 1.394 . S
C276 C277 1.380 . S
C276 H304 0.930 . S
C277 C276 1.380 . S
C277 C278 1.376 . S
C277 H305 0.930 . S
C278 C277 1.376 . S
C278 C279 1.370 . S
C279 C278 1.370 . S
C279 C280 1.396 . S
C279 H306 0.929 . S
C280 C275 1.373 . S
C280 C279 1.396 . S
C280 H307 0.929 . S
C281 O294 1.240 . S
C281 O295 1.289 . S
C282 O296 1.258 . S
C282 O297 1.256 . S
C283 La273 2.926 1_656 S
C283 C284 1.503 . S
C283 O298 1.261 1_655 S
C283 O299 1.243 . S
C284 C283 1.503 . S
C284 C285 1.394 . S
C284 C289 1.373 . S
C285 C284 1.394 . S
C285 C286 1.380 . S
C285 H308 0.930 . S
C286 C285 1.380 . S
C286 C287 1.376 . S
C286 H309 0.930 . S
C287 C286 1.376 . S
C287 C288 1.370 . S
C288 C287 1.370 . S
C288 C289 1.396 . S
C288 H310 0.929 . S
C289 C284 1.373 . S
C289 C288 1.396 . S
C289 H311 0.929 . S
C290 O300 1.240 . S
C290 O301 1.289 . S
C291 O302 1.246 1_655 S
C291 O303 1.256 1_556 S
O292 La272 2.521 . S
O292 C274 1.261 . S
O293 La272 2.628 . S
O293 C274 1.243 . S
O294 La272 2.554 . S
O294 C281 1.240 . S
O295 La272 2.757 . S
O295 La273 2.487 . S
O295 C281 1.289 . S
O296 La272 2.470 . S
O296 C282 1.258 . S
O297 La273 2.506 . S
O297 C282 1.256 . S
O298 La273 2.516 1_556 S
O298 C283 1.261 1_455 S
O299 La273 2.628 1_656 S
O299 C283 1.243 . S
O300 La273 2.549 1_556 S
O300 C290 1.240 . S
O301 La272 2.482 1_556 S
O301 La273 2.757 1_556 S
O301 C290 1.289 . S
O302 La273 2.487 1_556 S
O302 C291 1.246 1_455 S
O303 La272 2.503 1_655 S
O303 C291 1.256 1_554 S
H304 C276 0.930 . S
H305 C277 0.930 . S
H306 C279 0.929 . S
H307 C280 0.929 . S
H308 C285 0.930 . S
H309 C286 0.930 . S
H310 C288 0.929 . S
H311 C289 0.929 . S
C312 C313 1.349 . S
C312 C314 1.327 . S
C312 H337 0.950 . S
C313 C312 1.349 . S
C313 C329 1.349 . S
C314 C312 1.327 . S
C314 C333 1.429 . S
C314 H338 0.950 . S
C315 C332 1.574 . S
C315 C334 1.368 . S
C315 H339 0.949 . S
H316 C320 0.949 . S
C317 C318 1.349 . S
C317 C319 1.327 . S
C317 H340 0.950 . S
C318 C317 1.349 . S
C318 C330 1.349 . S
C319 C317 1.327 . S
C319 C335 1.429 . S
C319 H341 0.950 . S
C320 H316 0.949 . S
C320 C328 1.574 . S
C320 C336 1.368 . S
H321 C329 0.950 . S
H322 C327 0.950 . S
H323 C328 0.949 . S
H324 C330 0.950 . S
H325 C331 0.950 . S
H326 C332 0.949 . S
C327 H322 0.950 . S
C327 C329 1.327 . S
C327 C333 1.429 . S
C328 C320 1.574 . S
C328 H323 0.949 . S
C328 C334 1.368 . S
C329 C313 1.349 . S
C329 H321 0.950 . S
C329 C327 1.327 . S
C330 C318 1.349 . S
C330 H324 0.950 . S
C330 C331 1.327 . S
C331 H325 0.950 . S
C331 C330 1.327 . S
C331 C335 1.429 . S
C332 C315 1.574 . S
C332 H326 0.949 . S
C332 C336 1.368 . S
C333 C314 1.429 . S
C333 C327 1.429 . S
C333 C334 1.523 . S
C334 C315 1.368 . S
C334 C328 1.368 . S
C334 C333 1.523 . S
C335 C319 1.429 . S
C335 C331 1.429 . S
C335 C336 1.523 . S
C336 C320 1.368 . S
C336 C332 1.368 . S
C336 C335 1.523 . S
H337 C312 0.950 . S
H338 C314 0.950 . S
H339 C315 0.949 . S
H340 C317 0.950 . S
H341 C319 0.950 . S
C342 C343 1.349 . S
C342 C344 1.327 . S
C342 H367 0.950 . S
C343 C342 1.349 . S
C343 C359 1.349 . S
C344 C342 1.327 . S
C344 C363 1.429 . S
C344 H368 0.950 . S
C345 C362 1.574 . S
C345 C364 1.368 . S
C345 H369 0.949 . S
H346 C350 0.949 . S
C347 C348 1.349 . S
C347 C349 1.327 . S
C347 H370 0.950 . S
C348 C347 1.349 . S
C348 C360 1.349 . S
C349 C347 1.327 . S
C349 C365 1.429 . S
C349 H371 0.950 . S
C350 H346 0.949 . S
C350 C358 1.574 . S
C350 C366 1.368 . S
H351 C359 0.950 . S
H352 C357 0.950 . S
H353 C358 0.949 . S
H354 C360 0.950 . S
H355 C361 0.950 . S
H356 C362 0.949 . S
C357 H352 0.950 . S
C357 C359 1.327 . S
C357 C363 1.429 . S
C358 C350 1.574 . S
C358 H353 0.949 . S
C358 C364 1.368 . S
C359 C343 1.349 . S
C359 H351 0.950 . S
C359 C357 1.327 . S
C360 C348 1.349 . S
C360 H354 0.950 . S
C360 C361 1.327 . S
C361 H355 0.950 . S
C361 C360 1.327 . S
C361 C365 1.429 . S
C362 C345 1.574 . S
C362 H356 0.949 . S
C362 C366 1.368 . S
C363 C344 1.429 . S
C363 C357 1.429 . S
C363 C364 1.523 . S
C364 C345 1.368 . S
C364 C358 1.368 . S
C364 C363 1.523 . S
C365 C349 1.429 . S
C365 C361 1.429 . S
C365 C366 1.523 . S
C366 C350 1.368 . S
C366 C362 1.368 . S
C366 C365 1.523 . S
H367 C342 0.950 . S
H368 C344 0.950 . S
H369 C345 0.949 . S
H370 C347 0.950 . S
H371 C349 0.950 . S
C372 C373 1.349 . S
C372 C374 1.327 . S
C372 H397 0.950 . S
C373 C372 1.349 . S
C373 C389 1.349 . S
C374 C372 1.327 . S
C374 C393 1.429 . S
C374 H398 0.950 . S
C375 C392 1.574 . S
C375 C394 1.368 . S
C375 H399 0.949 . S
H376 C380 0.949 . S
C377 C378 1.349 . S
C377 C379 1.327 . S
C377 H400 0.950 . S
C378 C377 1.349 . S
C378 C390 1.349 . S
C379 C377 1.327 . S
C379 C395 1.429 . S
C379 H401 0.950 . S
C380 H376 0.949 . S
C380 C388 1.574 . S
C380 C396 1.368 . S
H381 C389 0.950 . S
H382 C387 0.950 . S
H383 C388 0.949 . S
H384 C390 0.950 . S
H385 C391 0.950 . S
H386 C392 0.949 . S
C387 H382 0.950 . S
C387 C389 1.327 . S
C387 C393 1.429 . S
C388 C380 1.574 . S
C388 H383 0.949 . S
C388 C394 1.368 . S
C389 C373 1.349 . S
C389 H381 0.950 . S
C389 C387 1.327 . S
C390 C378 1.349 . S
C390 H384 0.950 . S
C390 C391 1.327 . S
C391 H385 0.950 . S
C391 C390 1.327 . S
C391 C395 1.429 . S
C392 C375 1.574 . S
C392 H386 0.949 . S
C392 C396 1.368 . S
C393 C374 1.429 . S
C393 C387 1.429 . S
C393 C394 1.523 . S
C394 C375 1.368 . S
C394 C388 1.368 . S
C394 C393 1.523 . S
C395 C379 1.429 . S
C395 C391 1.429 . S
C395 C396 1.523 . S
C396 C380 1.368 . S
C396 C392 1.368 . S
C396 C395 1.523 . S
H397 C372 0.950 . S
H398 C374 0.950 . S
H399 C375 0.949 . S
H400 C377 0.950 . S
H401 C379 0.950 . S
C402 C403 1.349 . S
C402 C404 1.327 . S
C402 H427 0.950 . S
C403 C402 1.349 . S
C403 C419 1.349 . S
C404 C402 1.327 . S
C404 C423 1.429 . S
C404 H428 0.950 . S
C405 C422 1.574 . S
C405 C424 1.368 . S
C405 H429 0.949 . S
H406 C410 0.949 . S
C407 C408 1.349 . S
C407 C409 1.343 . S
C407 H430 0.935 1_655 S
C408 C407 1.349 . S
C408 C420 1.349 . S
C409 C407 1.343 . S
C409 C425 1.429 . S
C409 H431 0.950 . S
C410 H406 0.949 . S
C410 C418 1.574 . S
C410 C426 1.368 . S
H411 C419 0.950 . S
H412 C417 0.950 . S
H413 C418 0.949 . S
H414 C420 0.950 . S
H415 C421 0.950 . S
H416 C422 0.949 . S
C417 H412 0.950 . S
C417 C419 1.327 . S
C417 C423 1.429 . S
C418 C410 1.574 . S
C418 H413 0.949 . S
C418 C424 1.368 . S
C419 C403 1.349 . S
C419 H411 0.950 . S
C419 C417 1.327 . S
C420 C408 1.349 . S
C420 H414 0.950 . S
C420 C421 1.327 . S
C421 H415 0.950 . S
C421 C420 1.327 . S
C421 C425 1.429 . S
C422 C405 1.574 . S
C422 H416 0.949 . S
C422 C426 1.368 . S
C423 C404 1.429 . S
C423 C417 1.429 . S
C423 C424 1.523 . S
C424 C405 1.368 . S
C424 C418 1.368 . S
C424 C423 1.523 . S
C425 C409 1.429 . S
C425 C421 1.429 . S
C425 C426 1.523 . S
C426 C410 1.368 . S
C426 C422 1.368 . S
C426 C425 1.523 . S
H427 C402 0.950 . S
H428 C404 0.950 . S
H429 C405 0.949 . S
H430 C407 0.935 1_455 S
H431 C409 0.950 . S
C432 C433 1.349 . S
C432 C434 1.327 . S
C432 H457 0.950 . S
C433 C432 1.349 . S
C433 C449 1.349 . S
C434 C432 1.327 . S
C434 C453 1.429 . S
C434 H458 0.950 . S
C435 C452 1.574 . S
C435 C454 1.368 . S
C435 H459 0.949 . S
H436 C440 0.949 . S
C437 C438 1.349 . S
C437 C439 1.327 . S
C437 H460 0.950 . S
C438 C437 1.349 . S
C438 C450 1.349 . S
C439 C437 1.327 . S
C439 C455 1.429 . S
C439 H461 0.950 . S
C440 H436 0.949 . S
C440 C448 1.574 . S
C440 C456 1.368 . S
H441 C449 0.950 . S
H442 C447 0.950 . S
H443 C448 0.949 . S
H444 C450 0.950 . S
H445 C451 0.950 . S
H446 C452 0.949 . S
C447 H442 0.950 . S
C447 C449 1.327 . S
C447 C453 1.429 . S
C448 C440 1.574 . S
C448 H443 0.949 . S
C448 C454 1.368 . S
C449 C433 1.349 . S
C449 H441 0.950 . S
C449 C447 1.327 . S
C450 C438 1.349 . S
C450 H444 0.950 . S
C450 C451 1.327 . S
C451 H445 0.950 . S
C451 C450 1.327 . S
C451 C455 1.429 . S
C452 C435 1.574 . S
C452 H446 0.949 . S
C452 C456 1.368 . S
C453 C434 1.429 . S
C453 C447 1.429 . S
C453 C454 1.523 . S
C454 C435 1.368 . S
C454 C448 1.368 . S
C454 C453 1.523 . S
C455 C439 1.429 . S
C455 C451 1.429 . S
C455 C456 1.523 . S
C456 C440 1.368 . S
C456 C452 1.368 . S
C456 C455 1.523 . S
H457 C432 0.950 . S
H458 C434 0.950 . S
H459 C435 0.949 . S
H460 C437 0.950 . S
H461 C439 0.950 . S
C462 C463 1.349 . S
C462 C464 1.327 . S
C462 H487 0.950 . S
C463 C462 1.349 . S
C463 C479 1.349 . S
C464 C462 1.327 . S
C464 C483 1.429 . S
C464 H488 0.950 . S
C465 C482 1.574 . S
C465 C484 1.368 . S
C465 H489 0.949 . S
H466 C470 0.949 1_545 S
C467 C468 1.349 1_565 S
C467 C469 1.327 . S
C467 H490 0.950 . S
C468 C467 1.349 1_545 S
C468 C480 1.349 . S
C469 C467 1.327 . S
C469 C485 1.429 . S
C469 H491 0.950 . S
C470 H466 0.949 1_565 S
C470 C478 1.574 . S
C470 C486 1.368 . S
H471 C479 0.950 . S
H472 C477 0.950 . S
H473 C478 0.949 . S
H474 C480 0.950 . S
H475 C481 0.950 . S
H476 C482 0.949 . S
C477 H472 0.950 . S
C477 C479 1.327 . S
C477 C483 1.429 . S
C478 C470 1.574 . S
C478 H473 0.949 . S
C478 C484 1.368 . S
C479 C463 1.349 . S
C479 H471 0.950 . S
C479 C477 1.327 . S
C480 C468 1.349 . S
C480 H474 0.950 . S
C480 C481 1.327 . S
C481 H475 0.950 . S
C481 C480 1.327 . S
C481 C485 1.429 1_545 S
C482 C465 1.574 . S
C482 H476 0.949 . S
C482 C486 1.368 . S
C483 C464 1.429 . S
C483 C477 1.429 . S
C483 C484 1.523 . S
C484 C465 1.368 . S
C484 C478 1.368 . S
C484 C483 1.523 . S
C485 C469 1.429 . S
C485 C481 1.429 1_565 S
C485 C486 1.523 . S
C486 C470 1.368 . S
C486 C482 1.368 . S
C486 C485 1.523 . S
H487 C462 0.950 . S
H488 C464 0.950 . S
H489 C465 0.949 . S
H490 C467 0.950 . S
H491 C469 0.950 . S
C492 C493 1.349 . S
C492 C494 1.327 . S
C492 H517 0.950 . S
C493 C492 1.349 . S
C493 C509 1.349 . S
C494 C492 1.327 . S
C494 C513 1.429 . S
C494 H518 0.950 . S
C495 C512 1.574 . S
C495 C514 1.368 . S
C495 H519 0.949 . S
H496 C500 0.949 . S
C497 C498 1.349 . S
C497 C499 1.327 . S
C497 H520 0.950 . S
C498 C497 1.349 . S
C498 C510 1.349 . S
C499 C497 1.327 . S
C499 C515 1.429 . S
C499 H521 0.950 . S
C500 H496 0.949 . S
C500 C508 1.574 . S
C500 C516 1.368 . S
H501 C509 0.950 . S
H502 C507 0.950 . S
H503 C508 0.949 . S
H504 C510 0.950 1_554 S
H505 C511 0.962 . S
H506 C512 0.949 . S
C507 H502 0.950 . S
C507 C509 1.327 . S
C507 C513 1.429 . S
C508 C500 1.574 . S
C508 H503 0.949 . S
C508 C514 1.368 . S
C509 C493 1.349 . S
C509 H501 0.950 . S
C509 C507 1.327 . S
C510 C498 1.349 . S
C510 H504 0.950 1_556 S
C510 C511 1.327 . S
C511 H505 0.962 . S
C511 C510 1.327 . S
C511 C515 1.429 . S
C512 C495 1.574 . S
C512 H506 0.949 . S
C512 C516 1.368 . S
C513 C494 1.429 . S
C513 C507 1.429 . S
C513 C514 1.523 . S
C514 C495 1.368 . S
C514 C508 1.368 . S
C514 C513 1.523 . S
C515 C499 1.429 . S
C515 C511 1.429 . S
C515 C516 1.523 . S
C516 C500 1.368 . S
C516 C512 1.368 . S
C516 C515 1.523 . S
H517 C492 0.950 . S
H518 C494 0.950 . S
H519 C495 0.949 . S
H520 C497 0.950 . S
H521 C499 0.950 . S
C522 C523 1.349 . S
C522 C524 1.327 . S
C522 H547 0.950 . S
C523 C522 1.349 . S
C523 C539 1.349 . S
C524 C522 1.327 . S
C524 C543 1.429 . S
C524 H548 0.950 . S
C525 C542 1.574 . S
C525 C544 1.368 . S
C525 H549 0.949 . S
H526 C530 0.949 . S
C527 C528 1.349 . S
C527 C529 1.327 . S
C527 H550 0.950 . S
C528 C527 1.349 . S
C528 C540 1.349 . S
C529 C527 1.327 . S
C529 C545 1.429 . S
C529 H551 0.950 . S
C530 H526 0.949 . S
C530 C538 1.574 . S
C530 C546 1.368 . S
H531 C539 0.950 . S
H532 C537 0.950 . S
H533 C538 0.949 . S
H534 C540 0.950 . S
H535 C541 0.950 . S
H536 C542 0.949 . S
C537 H532 0.950 . S
C537 C539 1.327 . S
C537 C543 1.429 . S
C538 C530 1.574 . S
C538 H533 0.949 . S
C538 C544 1.368 . S
C539 C523 1.349 . S
C539 H531 0.950 . S
C539 C537 1.327 . S
C540 C528 1.349 . S
C540 H534 0.950 . S
C540 C541 1.327 . S
C541 H535 0.950 . S
C541 C540 1.327 . S
C541 C545 1.429 . S
C542 C525 1.574 . S
C542 H536 0.949 . S
C542 C546 1.368 . S
C543 C524 1.429 . S
C543 C537 1.429 . S
C543 C544 1.523 . S
C544 C525 1.368 . S
C544 C538 1.368 . S
C544 C543 1.523 . S
C545 C529 1.429 . S
C545 C541 1.429 . S
C545 C546 1.523 . S
C546 C530 1.368 . S
C546 C542 1.368 . S
C546 C545 1.523 . S
H547 C522 0.950 . S
H548 C524 0.950 . S
H549 C525 0.949 . S
H550 C527 0.950 . S
H551 C529 0.950 . S
C552 C553 1.349 . S
C552 C554 1.327 . S
C552 H577 0.950 . S
C553 C552 1.349 . S
C553 C569 1.349 . S
C554 C552 1.327 . S
C554 C573 1.429 . S
C554 H578 0.950 . S
C555 C572 1.574 . S
C555 C574 1.368 . S
C555 H579 0.949 . S
H556 C560 0.949 . S
C557 C558 1.349 . S
C557 C559 1.327 . S
C557 H580 0.950 . S
C558 C557 1.349 . S
C558 C570 1.349 . S
C559 C557 1.327 . S
C559 C575 1.429 . S
C559 H581 0.950 . S
C560 H556 0.949 . S
C560 C568 1.574 . S
C560 C576 1.368 . S
H561 C569 0.950 . S
H562 C567 0.950 . S
H563 C568 0.949 . S
H564 C570 0.950 . S
H565 C571 0.950 . S
H566 C572 0.949 . S
C567 H562 0.950 . S
C567 C569 1.327 . S
C567 C573 1.429 . S
C568 C560 1.574 . S
C568 H563 0.949 . S
C568 C574 1.368 . S
C569 C553 1.349 . S
C569 H561 0.950 . S
C569 C567 1.327 . S
C570 C558 1.349 . S
C570 H564 0.950 . S
C570 C571 1.327 . S
C571 H565 0.950 . S
C571 C570 1.327 . S
C571 C575 1.429 . S
C572 C555 1.574 . S
C572 H566 0.949 . S
C572 C576 1.368 . S
C573 C554 1.429 . S
C573 C567 1.429 . S
C573 C574 1.523 . S
C574 C555 1.368 . S
C574 C568 1.368 . S
C574 C573 1.523 . S
C575 C559 1.429 . S
C575 C571 1.429 . S
C575 C576 1.523 . S
C576 C560 1.368 . S
C576 C572 1.368 . S
C576 C575 1.523 . S
H577 C552 0.950 . S
H578 C554 0.950 . S
H579 C555 0.949 . S
H580 C557 0.950 . S
H581 C559 0.950 . S
C582 C583 1.349 . S
C582 C584 1.327 . S
C582 H607 0.950 . S
C583 C582 1.349 . S
C583 C599 1.349 . S
C584 C582 1.327 . S
C584 C603 1.429 . S
C584 H608 0.950 . S
C585 C602 1.574 1_556 S
C585 C604 1.368 . S
C585 H609 0.949 . S
H586 C590 0.949 . S
C587 C588 1.349 . S
C587 C589 1.327 . S
C587 H610 0.950 . S
C588 C587 1.349 . S
C588 C600 1.338 1_554 S
C589 C587 1.327 . S
C589 C605 1.469 . S
C589 H611 0.950 . S
C590 H586 0.949 . S
C590 C598 1.574 . S
C590 C606 1.368 . S
H591 C599 0.950 . S
H592 C597 0.950 . S
H593 C598 0.949 . S
H594 C600 0.955 . S
H595 C601 0.950 . S
H596 C602 0.949 . S
C597 H592 0.950 . S
C597 C599 1.327 . S
C597 C603 1.429 . S
C598 C590 1.574 . S
C598 H593 0.949 . S
C598 C604 1.368 . S
C599 C583 1.349 . S
C599 H591 0.950 . S
C599 C597 1.327 . S
C600 C588 1.338 1_556 S
C600 H594 0.955 . S
C600 C601 1.333 . S
C601 H595 0.950 . S
C601 C600 1.333 . S
C601 C605 1.410 1_556 S
C602 C585 1.574 1_554 S
C602 H596 0.949 . S
C602 C606 1.368 1_554 S
C603 C584 1.429 . S
C603 C597 1.429 . S
C603 C604 1.523 . S
C604 C585 1.368 . S
C604 C598 1.368 . S
C604 C603 1.523 . S
C605 C589 1.469 . S
C605 C601 1.410 1_554 S
C605 C606 1.503 1_554 S
C606 C590 1.368 . S
C606 C602 1.368 1_556 S
C606 C605 1.503 1_556 S
H607 C582 0.950 . S
H608 C584 0.950 . S
H609 C585 0.949 . S
H610 C587 0.950 . S
H611 C589 0.950 . S
C612 C613 1.349 . S
C612 C614 1.327 . S
C612 H637 0.950 . S
C613 C612 1.349 . S
C613 C629 1.349 . S
C614 C612 1.327 . S
C614 C633 1.429 . S
C614 H638 0.950 . S
C615 C632 1.574 . S
C615 C634 1.368 . S
C615 H639 0.949 . S
H616 C620 0.949 . S
C617 C618 1.349 . S
C617 C619 1.327 . S
C617 H640 0.950 . S
C618 C617 1.349 . S
C618 C630 1.349 . S
C619 C617 1.327 . S
C619 C635 1.429 . S
C619 H641 0.950 . S
C620 H616 0.949 . S
C620 C628 1.574 . S
C620 C636 1.368 . S
H621 C629 0.950 . S
H622 C627 0.950 . S
H623 C628 0.949 . S
H624 C630 0.950 . S
H625 C631 0.950 . S
H626 C632 0.949 . S
C627 H622 0.950 . S
C627 C629 1.327 . S
C627 C633 1.429 . S
C628 C620 1.574 . S
C628 H623 0.949 . S
C628 C634 1.368 . S
C629 C613 1.349 . S
C629 H621 0.950 . S
C629 C627 1.327 . S
C630 C618 1.349 . S
C630 H624 0.950 . S
C630 C631 1.327 . S
C631 H625 0.950 . S
C631 C630 1.327 . S
C631 C635 1.429 . S
C632 C615 1.574 . S
C632 H626 0.949 . S
C632 C636 1.368 . S
C633 C614 1.429 . S
C633 C627 1.429 . S
C633 C634 1.523 . S
C634 C615 1.368 . S
C634 C628 1.368 . S
C634 C633 1.523 . S
C635 C619 1.429 . S
C635 C631 1.429 . S
C635 C636 1.523 . S
C636 C620 1.368 . S
C636 C632 1.368 . S
C636 C635 1.523 . S
H637 C612 0.950 . S
H638 C614 0.950 . S
H639 C615 0.949 . S
H640 C617 0.950 . S
H641 C619 0.950 . S
C642 C643 1.349 . S
C642 C644 1.327 . S
C642 H667 0.950 . S
C643 C642 1.349 . S
C643 C659 1.349 . S
C644 C642 1.327 . S
C644 C663 1.429 . S
C644 H668 0.950 . S
C645 C662 1.574 . S
C645 C664 1.368 . S
C645 H669 0.949 . S
H646 C650 0.949 . S
C647 C648 1.349 . S
C647 C649 1.327 . S
C647 H670 0.950 . S
C648 C647 1.349 . S
C648 C660 1.349 . S
C649 C647 1.327 . S
C649 C665 1.429 . S
C649 H671 0.950 . S
C650 H646 0.949 . S
C650 C658 1.574 . S
C650 C666 1.368 . S
H651 C659 0.950 . S
H652 C657 0.950 . S
H653 C658 0.949 . S
H654 C660 0.950 . S
H655 C661 0.950 . S
H656 C662 0.949 . S
C657 H652 0.950 . S
C657 C659 1.327 . S
C657 C663 1.429 . S
C658 C650 1.574 . S
C658 H653 0.949 . S
C658 C664 1.368 . S
C659 C643 1.349 . S
C659 H651 0.950 . S
C659 C657 1.327 . S
C660 C648 1.349 . S
C660 H654 0.950 . S
C660 C661 1.327 . S
C661 H655 0.950 . S
C661 C660 1.327 . S
C661 C665 1.429 . S
C662 C645 1.574 . S
C662 H656 0.949 . S
C662 C666 1.368 . S
C663 C644 1.429 . S
C663 C657 1.429 . S
C663 C664 1.523 . S
C664 C645 1.368 . S
C664 C658 1.368 . S
C664 C663 1.523 . S
C665 C649 1.429 . S
C665 C661 1.429 . S
C665 C666 1.523 . S
C666 C650 1.368 . S
C666 C662 1.368 . S
C666 C665 1.523 . S
H667 C642 0.950 . S
H668 C644 0.950 . S
H669 C645 0.949 . S
H670 C647 0.950 . S
H671 C649 0.950 . S
C672 C673 1.349 . S
C672 C674 1.327 . S
C672 H697 0.950 . S
C673 C672 1.349 . S
C673 C689 1.349 . S
C674 C672 1.327 . S
C674 C693 1.429 . S
C674 H698 0.950 . S
C675 C692 1.574 . S
C675 C694 1.368 . S
C675 H699 0.949 . S
H676 C680 0.949 . S
C677 C678 1.349 . S
C677 C679 1.327 . S
C677 H700 0.950 . S
C678 C677 1.349 . S
C678 C690 1.349 . S
C679 C677 1.327 . S
C679 C695 1.429 . S
C679 H701 0.950 . S
C680 H676 0.949 . S
C680 C688 1.574 . S
C680 C696 1.368 . S
H681 C689 0.950 . S
H682 C687 0.950 . S
H683 C688 0.949 . S
H684 C690 0.950 . S
H685 C691 0.950 . S
H686 C692 0.949 . S
C687 H682 0.950 . S
C687 C689 1.327 . S
C687 C693 1.429 . S
C688 C680 1.574 . S
C688 H683 0.949 . S
C688 C694 1.368 . S
C689 C673 1.349 . S
C689 H681 0.950 . S
C689 C687 1.327 . S
C690 C678 1.349 . S
C690 H684 0.950 . S
C690 C691 1.327 . S
C691 H685 0.950 . S
C691 C690 1.327 . S
C691 C695 1.429 . S
C692 C675 1.574 . S
C692 H686 0.949 . S
C692 C696 1.368 . S
C693 C674 1.429 . S
C693 C687 1.429 . S
C693 C694 1.523 . S
C694 C675 1.368 . S
C694 C688 1.368 . S
C694 C693 1.523 . S
C695 C679 1.429 . S
C695 C691 1.429 . S
C695 C696 1.523 . S
C696 C680 1.368 . S
C696 C692 1.368 . S
C696 C695 1.523 . S
H697 C672 0.950 . S
H698 C674 0.950 . S
H699 C675 0.949 . S
H700 C677 0.950 . S
H701 C679 0.950 . S
C702 C703 1.349 . S
C702 C704 1.327 . S
C702 H727 0.950 . S
C703 C702 1.349 . S
C703 C719 1.349 . S
C704 C702 1.327 . S
C704 C723 1.429 . S
C704 H728 0.950 . S
C705 C722 1.574 . S
C705 C724 1.368 . S
C705 H729 0.949 . S
H706 C710 0.949 . S
C707 C708 1.349 . S
C707 C709 1.327 . S
C707 H730 0.950 . S
C708 C707 1.349 . S
C708 C720 1.349 . S
C709 C707 1.327 . S
C709 C725 1.429 . S
C709 H731 0.950 . S
C710 H706 0.949 . S
C710 C718 1.574 . S
C710 C726 1.368 . S
H711 C719 0.950 . S
H712 C717 0.950 . S
H713 C718 0.949 . S
H714 C720 0.950 . S
H715 C721 0.950 . S
H716 C722 0.949 . S
C717 H712 0.950 . S
C717 C719 1.327 . S
C717 C723 1.429 . S
C718 C710 1.574 . S
C718 H713 0.949 . S
C718 C724 1.368 . S
C719 C703 1.349 . S
C719 H711 0.950 . S
C719 C717 1.327 . S
C720 C708 1.349 . S
C720 H714 0.950 . S
C720 C721 1.327 . S
C721 H715 0.950 . S
C721 C720 1.327 . S
C721 C725 1.429 . S
C722 C705 1.574 . S
C722 H716 0.949 . S
C722 C726 1.368 . S
C723 C704 1.429 . S
C723 C717 1.429 . S
C723 C724 1.523 . S
C724 C705 1.368 . S
C724 C718 1.368 . S
C724 C723 1.523 . S
C725 C709 1.429 . S
C725 C721 1.429 . S
C725 C726 1.523 . S
C726 C710 1.368 . S
C726 C722 1.368 . S
C726 C725 1.523 . S
H727 C702 0.950 . S
H728 C704 0.950 . S
H729 C705 0.949 . S
H730 C707 0.950 . S
H731 C709 0.950 . S
C732 C733 1.349 . S
C732 C734 1.327 . S
C732 H757 0.950 . S
C733 C732 1.349 . S
C733 C749 1.349 . S
C734 C732 1.327 . S
C734 C753 1.429 . S
C734 H758 0.950 . S
C735 C752 1.574 . S
C735 C754 1.368 . S
C735 H759 0.949 . S
H736 C740 0.949 . S
C737 C738 1.349 . S
C737 C739 1.327 . S
C737 H760 0.950 . S
C738 C737 1.349 . S
C738 C750 1.349 . S
C739 C737 1.327 . S
C739 C755 1.429 . S
C739 H761 0.950 . S
C740 H736 0.949 . S
C740 C748 1.574 . S
C740 C756 1.368 . S
H741 C749 0.950 . S
H742 C747 0.950 . S
H743 C748 0.949 . S
H744 C750 0.950 . S
H745 C751 0.950 . S
H746 C752 0.949 . S
C747 H742 0.950 . S
C747 C749 1.327 . S
C747 C753 1.429 . S
C748 C740 1.574 . S
C748 H743 0.949 . S
C748 C754 1.368 . S
C749 C733 1.349 . S
C749 H741 0.950 . S
C749 C747 1.327 . S
C750 C738 1.349 . S
C750 H744 0.950 . S
C750 C751 1.327 . S
C751 H745 0.950 . S
C751 C750 1.327 . S
C751 C755 1.429 . S
C752 C735 1.574 . S
C752 H746 0.949 . S
C752 C756 1.368 . S
C753 C734 1.429 . S
C753 C747 1.429 . S
C753 C754 1.523 . S
C754 C735 1.368 . S
C754 C748 1.368 . S
C754 C753 1.523 . S
C755 C739 1.429 . S
C755 C751 1.429 . S
C755 C756 1.523 . S
C756 C740 1.368 . S
C756 C752 1.368 . S
C756 C755 1.523 . S
H757 C732 0.950 . S
H758 C734 0.950 . S
H759 C735 0.949 . S
H760 C737 0.950 . S
H761 C739 0.950 . S
C762 C763 1.349 . S
C762 C764 1.327 . S
C762 H787 0.950 . S
C763 C762 1.349 . S
C763 C779 1.349 . S
C764 C762 1.327 . S
C764 C783 1.429 . S
C764 H788 0.950 . S
C765 C782 1.574 . S
C765 C784 1.368 . S
C765 H789 0.949 . S
H766 C770 0.949 . S
C767 C768 1.349 . S
C767 C769 1.327 . S
C767 H790 0.950 . S
C768 C767 1.349 . S
C768 C780 1.349 . S
C769 C767 1.327 . S
C769 C785 1.429 . S
C769 H791 0.950 . S
C770 H766 0.949 . S
C770 C778 1.574 . S
C770 C786 1.368 . S
H771 C779 0.950 . S
H772 C777 0.950 . S
H773 C778 0.949 . S
H774 C780 0.950 . S
H775 C781 0.950 . S
H776 C782 0.949 . S
C777 H772 0.950 . S
C777 C779 1.327 . S
C777 C783 1.429 . S
C778 C770 1.574 . S
C778 H773 0.949 . S
C778 C784 1.368 . S
C779 C763 1.349 . S
C779 H771 0.950 . S
C779 C777 1.327 . S
C780 C768 1.349 . S
C780 H774 0.950 . S
C780 C781 1.327 . S
C781 H775 0.950 . S
C781 C780 1.327 . S
C781 C785 1.429 . S
C782 C765 1.574 . S
C782 H776 0.949 . S
C782 C786 1.368 . S
C783 C764 1.429 . S
C783 C777 1.429 . S
C783 C784 1.523 . S
C784 C765 1.368 . S
C784 C778 1.368 . S
C784 C783 1.523 . S
C785 C769 1.429 . S
C785 C781 1.429 . S
C785 C786 1.523 . S
C786 C770 1.368 . S
C786 C782 1.368 . S
C786 C785 1.523 . S
H787 C762 0.950 . S
H788 C764 0.950 . S
H789 C765 0.949 . S
H790 C767 0.950 . S
H791 C769 0.950 . S
C792 C793 1.349 . S
C792 C794 1.327 . S
C792 H817 0.950 . S
C793 C792 1.349 . S
C793 C809 1.349 . S
C794 C792 1.327 . S
C794 C813 1.429 . S
C794 H818 0.950 . S
C795 C812 1.574 . S
C795 C814 1.368 . S
C795 H819 0.949 . S
H796 C800 0.949 . S
C797 C798 1.349 1_556 S
C797 C799 1.327 . S
C797 H820 0.950 1_565 S
C798 C797 1.349 1_554 S
C798 C810 1.349 . S
C799 C797 1.327 . S
C799 C815 1.429 . S
C799 H821 0.950 . S
C800 H796 0.949 . S
C800 C808 1.574 . S
C800 C816 1.368 . S
H801 C809 0.950 . S
H802 C807 0.950 . S
H803 C808 0.949 . S
H804 C810 0.950 . S
H805 C811 0.950 . S
H806 C812 0.949 . S
C807 H802 0.950 . S
C807 C809 1.327 . S
C807 C813 1.429 . S
C808 C800 1.574 . S
C808 H803 0.949 . S
C808 C814 1.368 . S
C809 C793 1.349 . S
C809 H801 0.950 . S
C809 C807 1.327 . S
C810 C798 1.349 . S
C810 H804 0.950 . S
C810 C811 1.327 . S
C811 H805 0.950 . S
C811 C810 1.327 . S
C811 C815 1.429 1_554 S
C812 C795 1.574 . S
C812 H806 0.949 . S
C812 C816 1.368 . S
C813 C794 1.429 . S
C813 C807 1.429 . S
C813 C814 1.523 . S
C814 C795 1.368 . S
C814 C808 1.368 . S
C814 C813 1.523 . S
C815 C799 1.429 . S
C815 C811 1.429 1_556 S
C815 C816 1.523 . S
C816 C800 1.368 . S
C816 C812 1.368 . S
C816 C815 1.523 . S
H817 C792 0.950 . S
H818 C794 0.950 . S
H819 C795 0.949 . S
H820 C797 0.950 1_545 S
H821 C799 0.950 . S
C822 C823 1.349 . S
C822 C824 1.327 . S
C822 H847 0.950 . S
C823 C822 1.349 . S
C823 C839 1.349 . S
C824 C822 1.327 . S
C824 C843 1.429 . S
C824 H848 0.950 . S
C825 C842 1.574 . S
C825 C844 1.368 . S
C825 H849 0.949 . S
H826 C830 0.949 . S
C827 C828 1.349 . S
C827 C829 1.327 . S
C827 H850 0.950 . S
C828 C827 1.349 . S
C828 C840 1.349 . S
C829 C827 1.327 . S
C829 C845 1.429 . S
C829 H851 0.950 . S
C830 H826 0.949 . S
C830 C838 1.574 . S
C830 C846 1.368 . S
H831 C839 0.950 . S
H832 C837 0.950 . S
H833 C838 0.949 . S
H834 C840 0.950 . S
H835 C841 0.950 . S
H836 C842 0.949 . S
C837 H832 0.950 . S
C837 C839 1.327 . S
C837 C843 1.429 . S
C838 C830 1.574 . S
C838 H833 0.949 . S
C838 C844 1.368 . S
C839 C823 1.349 . S
C839 H831 0.950 . S
C839 C837 1.327 . S
C840 C828 1.349 . S
C840 H834 0.950 . S
C840 C841 1.327 . S
C841 H835 0.950 . S
C841 C840 1.327 . S
C841 C845 1.429 . S
C842 C825 1.574 . S
C842 H836 0.949 . S
C842 C846 1.368 . S
C843 C824 1.429 . S
C843 C837 1.429 . S
C843 C844 1.523 . S
C844 C825 1.368 . S
C844 C838 1.368 . S
C844 C843 1.523 . S
C845 C829 1.429 . S
C845 C841 1.429 . S
C845 C846 1.523 . S
C846 C830 1.368 . S
C846 C842 1.368 . S
C846 C845 1.523 . S
H847 C822 0.950 . S
H848 C824 0.950 . S
H849 C825 0.949 . S
H850 C827 0.950 . S
H851 C829 0.950 . S
C852 C853 1.349 . S
C852 C854 1.327 . S
C852 H877 0.950 . S
C853 C852 1.349 . S
C853 C869 1.349 . S
C854 C852 1.327 . S
C854 C873 1.429 . S
C854 H878 0.950 . S
C855 C872 1.574 . S
C855 C874 1.368 . S
C855 H879 0.949 . S
H856 C860 0.949 . S
C857 C858 1.349 . S
C857 C859 1.327 . S
C857 H880 0.950 . S
C858 C857 1.349 . S
C858 C870 1.349 . S
C859 C857 1.327 . S
C859 C875 1.429 . S
C859 H881 0.950 . S
C860 H856 0.949 . S
C860 C868 1.574 . S
C860 C876 1.368 . S
H861 C869 0.950 . S
H862 C867 0.950 . S
H863 C868 0.949 . S
H864 C870 0.950 . S
H865 C871 0.950 . S
H866 C872 0.949 . S
C867 H862 0.950 . S
C867 C869 1.327 . S
C867 C873 1.429 . S
C868 C860 1.574 . S
C868 H863 0.949 . S
C868 C874 1.368 . S
C869 C853 1.349 . S
C869 H861 0.950 . S
C869 C867 1.327 . S
C870 C858 1.349 . S
C870 H864 0.950 . S
C870 C871 1.327 . S
C871 H865 0.950 . S
C871 C870 1.327 . S
C871 C875 1.429 . S
C872 C855 1.574 . S
C872 H866 0.949 . S
C872 C876 1.368 . S
C873 C854 1.429 . S
C873 C867 1.429 . S
C873 C874 1.523 . S
C874 C855 1.368 . S
C874 C868 1.368 . S
C874 C873 1.523 . S
C875 C859 1.429 . S
C875 C871 1.429 . S
C875 C876 1.523 . S
C876 C860 1.368 . S
C876 C872 1.368 . S
C876 C875 1.523 . S
H877 C852 0.950 . S
H878 C854 0.950 . S
H879 C855 0.949 . S
H880 C857 0.950 . S
H881 C859 0.950 . S
C882 C883 1.349 . S
C882 C884 1.327 . S
C882 H907 0.950 . S
C883 C882 1.349 . S
C883 C899 1.349 . S
C884 C882 1.327 . S
C884 C903 1.429 . S
C884 H908 0.950 . S
C885 C902 1.574 . S
C885 C904 1.368 . S
C885 H909 0.949 . S
H886 C890 0.949 . S
C887 C888 1.349 . S
C887 C889 1.327 . S
C887 H910 0.950 . S
C888 C887 1.349 . S
C888 C900 1.349 . S
C889 C887 1.327 . S
C889 C905 1.429 . S
C889 H911 0.950 . S
C890 H886 0.949 . S
C890 C898 1.574 . S
C890 C906 1.368 . S
H891 C899 0.950 . S
H892 C897 0.950 . S
H893 C898 0.949 . S
H894 C900 0.950 . S
H895 C901 0.950 . S
H896 C902 0.949 . S
C897 H892 0.950 . S
C897 C899 1.327 . S
C897 C903 1.429 . S
C898 C890 1.574 . S
C898 H893 0.949 . S
C898 C904 1.368 . S
C899 C883 1.349 . S
C899 H891 0.950 . S
C899 C897 1.327 . S
C900 C888 1.349 . S
C900 H894 0.950 . S
C900 C901 1.327 . S
C901 H895 0.950 . S
C901 C900 1.327 . S
C901 C905 1.429 . S
C902 C885 1.574 . S
C902 H896 0.949 . S
C902 C906 1.368 . S
C903 C884 1.429 . S
C903 C897 1.429 . S
C903 C904 1.523 . S
C904 C885 1.368 . S
C904 C898 1.368 . S
C904 C903 1.523 . S
C905 C889 1.429 . S
C905 C901 1.429 . S
C905 C906 1.523 . S
C906 C890 1.368 . S
C906 C902 1.368 . S
C906 C905 1.523 . S
H907 C882 0.950 . S
H908 C884 0.950 . S
H909 C885 0.949 . S
H910 C887 0.950 . S
H911 C889 0.950 . S
C912 C913 1.349 . S
C912 C914 1.327 . S
C912 H937 0.950 . S
C913 C912 1.349 . S
C913 C929 1.349 . S
C914 C912 1.327 . S
C914 C933 1.429 . S
C914 H938 0.950 . S
C915 C932 1.574 . S
C915 C934 1.368 . S
C915 H939 0.949 . S
H916 C920 0.949 . S
C917 C918 1.349 . S
C917 C919 1.327 . S
C917 H940 0.950 . S
C918 C917 1.349 . S
C918 C930 1.349 . S
C919 C917 1.327 . S
C919 C935 1.429 . S
C919 H941 0.950 . S
C920 H916 0.949 . S
C920 C928 1.574 . S
C920 C936 1.368 . S
H921 C929 0.950 . S
H922 C927 0.950 . S
H923 C928 0.949 . S
H924 C930 0.950 . S
H925 C931 0.950 . S
H926 C932 0.949 . S
C927 H922 0.950 . S
C927 C929 1.327 . S
C927 C933 1.429 . S
C928 C920 1.574 . S
C928 H923 0.949 . S
C928 C934 1.368 . S
C929 C913 1.349 . S
C929 H921 0.950 . S
C929 C927 1.327 . S
C930 C918 1.349 . S
C930 H924 0.950 . S
C930 C931 1.327 . S
C931 H925 0.950 . S
C931 C930 1.327 . S
C931 C935 1.429 . S
C932 C915 1.574 . S
C932 H926 0.949 . S
C932 C936 1.368 . S
C933 C914 1.429 . S
C933 C927 1.429 . S
C933 C934 1.523 . S
C934 C915 1.368 . S
C934 C928 1.368 . S
C934 C933 1.523 . S
C935 C919 1.429 . S
C935 C931 1.429 . S
C935 C936 1.523 . S
C936 C920 1.368 . S
C936 C932 1.368 . S
C936 C935 1.523 . S
H937 C912 0.950 . S
H938 C914 0.950 . S
H939 C915 0.949 . S
H940 C917 0.950 . S
H941 C919 0.950 . S
C942 C943 1.349 . S
C942 C944 1.327 . S
C942 H967 0.950 . S
C943 C942 1.349 . S
C943 C959 1.349 . S
C944 C942 1.327 . S
C944 C963 1.429 . S
C944 H968 0.950 . S
C945 C962 1.574 . S
C945 C964 1.368 . S
C945 H969 0.949 . S
H946 C950 0.949 . S
C947 C948 1.349 . S
C947 C949 1.327 . S
C947 H970 0.950 . S
C948 C947 1.349 . S
C948 C960 1.349 . S
C949 C947 1.327 . S
C949 C965 1.429 . S
C949 H971 0.950 . S
C950 H946 0.949 . S
C950 C958 1.574 . S
C950 C966 1.368 . S
H951 C959 0.950 . S
H952 C957 0.950 . S
H953 C958 0.949 . S
H954 C960 0.950 . S
H955 C961 0.950 . S
H956 C962 0.949 . S
C957 H952 0.950 . S
C957 C959 1.327 . S
C957 C963 1.429 . S
C958 C950 1.574 . S
C958 H953 0.949 . S
C958 C964 1.368 . S
C959 C943 1.349 . S
C959 H951 0.950 . S
C959 C957 1.327 . S
C960 C948 1.349 . S
C960 H954 0.950 . S
C960 C961 1.327 . S
C961 H955 0.950 . S
C961 C960 1.327 . S
C961 C965 1.429 . S
C962 C945 1.574 . S
C962 H956 0.949 . S
C962 C966 1.368 . S
C963 C944 1.429 . S
C963 C957 1.429 . S
C963 C964 1.523 . S
C964 C945 1.368 . S
C964 C958 1.368 . S
C964 C963 1.523 . S
C965 C949 1.429 . S
C965 C961 1.429 . S
C965 C966 1.523 . S
C966 C950 1.368 . S
C966 C962 1.368 . S
C966 C965 1.523 . S
H967 C942 0.950 . S
H968 C944 0.950 . S
H969 C945 0.949 . S
H970 C947 0.950 . S
H971 C949 0.950 . S
C972 C973 1.349 . S
C972 C974 1.327 . S
C972 H997 0.950 . S
C973 C972 1.349 . S
C973 C989 1.349 . S
C974 C972 1.327 . S
C974 C993 1.429 . S
C974 H998 0.950 . S
C975 C992 1.574 . S
C975 C994 1.368 . S
C975 H999 0.949 . S
H976 C980 0.949 . S
C977 C978 1.349 . S
C977 C979 1.327 . S
C977 H1000 0.950 . S
C978 C977 1.349 . S
C978 C990 1.349 . S
C979 C977 1.327 . S
C979 C995 1.429 . S
C979 H1001 0.950 . S
C980 H976 0.949 . S
C980 C988 1.574 . S
C980 C996 1.368 . S
H981 C989 0.950 . S
H982 C987 0.950 . S
H983 C988 0.949 . S
H984 C990 0.950 . S
H985 C991 0.950 . S
H986 C992 0.949 . S
C987 H982 0.950 . S
C987 C989 1.327 . S
C987 C993 1.429 . S
C988 C980 1.574 . S
C988 H983 0.949 . S
C988 C994 1.368 . S
C989 C973 1.349 . S
C989 H981 0.950 . S
C989 C987 1.327 . S
C990 C978 1.349 . S
C990 H984 0.950 . S
C990 C991 1.327 . S
C991 H985 0.950 . S
C991 C990 1.327 . S
C991 C995 1.429 . S
C992 C975 1.574 . S
C992 H986 0.949 . S
C992 C996 1.368 . S
C993 C974 1.429 . S
C993 C987 1.429 . S
C993 C994 1.523 . S
C994 C975 1.368 . S
C994 C988 1.368 . S
C994 C993 1.523 . S
C995 C979 1.429 . S
C995 C991 1.429 . S
C995 C996 1.523 . S
C996 C980 1.368 . S
C996 C992 1.368 . S
C996 C995 1.523 . S
H997 C972 0.950 . S
H998 C974 0.950 . S
H999 C975 0.949 . S
H1000 C977 0.950 . S
H1001 C979 0.950 . S
C1002 C1003 1.349 . S
C1002 C1004 1.327 . S
C1002 H1027 0.950 . S
C1003 C1002 1.349 . S
C1003 C1019 1.349 . S
C1004 C1002 1.327 . S
C1004 C1023 1.429 . S
C1004 H1028 0.950 . S
C1005 C1022 1.574 . S
C1005 C1024 1.368 . S
C1005 H1029 0.949 . S
H1006 C1010 0.949 . S
C1007 C1008 1.349 . S
C1007 C1009 1.327 . S
C1007 H1030 0.950 . S
C1008 C1007 1.349 . S
C1008 C1020 1.349 . S
C1009 C1007 1.327 . S
C1009 C1025 1.429 . S
C1009 H1031 0.950 . S
C1010 H1006 0.949 . S
C1010 C1018 1.574 . S
C1010 C1026 1.368 . S
H1011 C1019 0.950 . S
H1012 C1017 0.950 . S
H1013 C1018 0.949 . S
H1014 C1020 0.950 . S
H1015 C1021 0.950 . S
H1016 C1022 0.949 . S
C1017 H1012 0.950 . S
C1017 C1019 1.327 . S
C1017 C1023 1.429 . S
C1018 C1010 1.574 . S
C1018 H1013 0.949 . S
C1018 C1024 1.368 . S
C1019 C1003 1.349 . S
C1019 H1011 0.950 . S
C1019 C1017 1.327 . S
C1020 C1008 1.349 . S
C1020 H1014 0.950 . S
C1020 C1021 1.327 . S
C1021 H1015 0.950 . S
C1021 C1020 1.327 . S
C1021 C1025 1.429 . S
C1022 C1005 1.574 . S
C1022 H1016 0.949 . S
C1022 C1026 1.368 . S
C1023 C1004 1.429 . S
C1023 C1017 1.429 . S
C1023 C1024 1.523 . S
C1024 C1005 1.368 . S
C1024 C1018 1.368 . S
C1024 C1023 1.523 . S
C1025 C1009 1.429 . S
C1025 C1021 1.429 . S
C1025 C1026 1.523 . S
C1026 C1010 1.368 . S
C1026 C1022 1.368 . S
C1026 C1025 1.523 . S
H1027 C1002 0.950 . S
H1028 C1004 0.950 . S
H1029 C1005 0.949 . S
H1030 C1007 0.950 . S
H1031 C1009 0.950 . S
C313 C6 1.190 . S
C318 C158 1.206 . S
C343 C21 1.511 . S
C348 C207 1.525 . S
C378 C242 1.702 . S
C373 C49 1.658 . S
C403 C68 1.976 . S
C408 C281 2.025 1_655 S
C438 C202 3.204 . S
C433 C2 3.121 . S
C468 C161 0.400 . S
C463 C30 0.475 . S
C498 C291 1.766 . S
C493 C40 1.811 . S
C528 C250 1.361 . S
C523 C63 1.366 . S
C553 C11 1.452 . S
C558 C278 1.591 . S
C588 C210 2.611 . S
C583 C44 2.703 . S
C613 C59 1.903 . S
C618 C171 1.896 . S
C643 C25 1.077 . S
C648 C247 1.069 . S
C678 C167 1.537 . S
C673 C82 1.533 . S
C703 C101 1.174 . S
C708 C198 1.176 . S
C733 C125 2.226 . S
C738 C251 2.330 . S
C763 C144 1.646 . S
C768 C290 1.733 . S
C793 C87 1.876 . S
C798 C211 1.996 1_565 S
C828 C170 1.923 . S
C823 C97 1.985 . S
C858 C282 1.555 . S
C853 C120 1.620 . S
C888 C241 1.357 . S
C883 C135 1.423 . S
C913 C78 2.001 . S
C918 C287 2.084 . S
C948 C201 1.806 . S
C943 C116 1.865 . S
C978 C162 2.665 . S
C973 C139 2.681 . S
C1003 C106 0.773 . S
C1008 C238 0.796 . S
