# Generated by pormake.
# Topology pyr, (3,6)-cn, num edge types: 1
# Building blocks:
#     Node 0, Type 0, BuildingBlock: MIDCAF_clean_linker_0, # of connection points: 3
#     Node 1, Type 0, BuildingBlock: MIDCAF_clean_linker_0, # of connection points: 3
#     Node 2, Type 0, BuildingBlock: MIDCAF_clean_linker_0, # of connection points: 3
#     Node 3, Type 0, BuildingBlock: MIDCAF_clean_linker_0, # of connection points: 3
#     Node 4, Type 0, BuildingBlock: MIDCAF_clean_linker_0, # of connection points: 3
#     Node 5, Type 0, BuildingBlock: MIDCAF_clean_linker_0, # of connection points: 3
#     Node 6, Type 0, BuildingBlock: MIDCAF_clean_linker_0, # of connection points: 3
#     Node 7, Type 0, BuildingBlock: MIDCAF_clean_linker_0, # of connection points: 3
#     Node 8, Type 1, BuildingBlock: BETDAH_clean_sbu_0, # of connection points: 6
#     Node 9, Type 1, BuildingBlock: BETDAH_clean_sbu_0, # of connection points: 6
#     Node 10, Type 1, BuildingBlock: BETDAH_clean_sbu_0, # of connection points: 6
#     Node 11, Type 1, BuildingBlock: BETDAH_clean_sbu_0, # of connection points: 6
#     Edge 12, Type (0, 1), None
#     Edge 13, Type (0, 1), None
#     Edge 14, Type (0, 1), None
#     Edge 15, Type (0, 1), None
#     Edge 16, Type (0, 1), None
#     Edge 17, Type (0, 1), None
#     Edge 18, Type (0, 1), None
#     Edge 19, Type (0, 1), None
#     Edge 20, Type (0, 1), None
#     Edge 21, Type (0, 1), None
#     Edge 22, Type (0, 1), None
#     Edge 23, Type (0, 1), None
#     Edge 24, Type (0, 1), None
#     Edge 25, Type (0, 1), None
#     Edge 26, Type (0, 1), None
#     Edge 27, Type (0, 1), None
#     Edge 28, Type (0, 1), None
#     Edge 29, Type (0, 1), None
#     Edge 30, Type (0, 1), None
#     Edge 31, Type (0, 1), None
#     Edge 32, Type (0, 1), None
#     Edge 33, Type (0, 1), None
#     Edge 34, Type (0, 1), None
#     Edge 35, Type (0, 1), None
# Relax obj value: 0.230
# Max RMSD: 0.162
# Mean RMSD: 0.078
data_MOF--net-pyr--node1-BETDAH_clean_sbu_0--node2-MIDCAF_clean_linker_0--edge1-none
_symmetry_space_group_name_H-M    P1
_symmetry_Int_Tables_number       1
_symmetry_cell_setting            triclinic
loop_
_symmetry_equiv_pos_as_xyz
'x, y, z'
_cell_length_a     25.94787
_cell_length_b     26.22372
_cell_length_c     22.578557
_cell_angle_alpha  90.481073
_cell_angle_beta   87.959199
_cell_angle_gamma 104.01855
loop_
_atom_site_label
_atom_site_type_symbol
_atom_site_fract_x
_atom_site_fract_y
_atom_site_fract_z
_atom_type_partial_charge
C0 C 0.34368 0.34384 0.5311 0.0
C1 C 0.3515 0.29325 0.54007 0.0
C2 C 0.40225 0.28495 0.52657 0.0
C3 C 0.43862 0.32097 0.49104 0.0
H4 H 0.54565 0.30836 0.33642 0.0
H5 H 0.56573 0.23099 0.28716 0.0
H6 H 0.44201 0.22928 0.164 0.0
H7 H 0.42324 0.30687 0.21101 0.0
H8 H 0.36913 0.3996 0.20764 0.0
H9 H 0.2856 0.41564 0.17546 0.0
H10 H 0.26396 0.48789 0.34394 0.0
H11 H 0.34734 0.47254 0.37626 0.0
H12 H 0.36995 0.41603 0.484 0.0
H13 H 0.30612 0.35298 0.54284 0.0
H14 H 0.4111 0.24769 0.53644 0.0
H15 H 0.4737 0.30972 0.47354 0.0
N16 N 0.46611 0.35367 0.37256 0.0
N17 N 0.43336 0.38284 0.28688 0.0
N18 N 0.4106 0.41168 0.38022 0.0
C19 C 0.46389 0.35419 0.31253 0.0
C20 C 0.40722 0.41249 0.32048 0.0
C21 C 0.43936 0.38219 0.40701 0.0
C22 C 0.48289 0.31382 0.27759 0.0
C23 C 0.52363 0.29207 0.29797 0.0
C24 C 0.53502 0.24781 0.27008 0.0
C25 C 0.50463 0.22381 0.22275 0.0
C26 C 0.4654 0.24666 0.20113 0.0
C27 C 0.45511 0.29153 0.22769 0.0
C28 C 0.36468 0.43382 0.29504 0.0
C29 C 0.34741 0.42018 0.23734 0.0
C30 C 0.29941 0.42921 0.21888 0.0
C31 C 0.26772 0.45182 0.2578 0.0
C32 C 0.287 0.46922 0.31358 0.0
C33 C 0.33505 0.46066 0.33185 0.0
C34 C 0.42434 0.36551 0.46924 0.0
C35 C 0.38066 0.38033 0.49686 0.0
C36 C 0.05056 0.96991 0.76379 0.0
C37 C 0.05224 0.96453 0.7019 0.0
C38 C 0.05647 0.91635 0.67716 0.0
C39 C 0.06306 0.87564 0.71309 0.0
H40 H 0.20124 0.8186 0.72012 0.0
H41 H 0.28529 0.79665 0.69244 0.0
H42 H 0.2531 0.67332 0.82349 0.0
H43 H 0.16962 0.69613 0.8529 0.0
H44 H 0.16674 0.77429 0.97759 0.0
H45 H 0.21997 0.82719 1.05128 0.0
H46 H 0.11646 0.93394 1.05306 0.0
H47 H 0.06524 0.88281 0.97534 0.0
H48 H 0.0588 0.93509 0.84752 0.0
H49 H 0.04696 1.00659 0.7839 0.0
H50 H 0.05689 0.91074 0.62955 0.0
H51 H 0.06855 0.83993 0.69213 0.0
N52 N 0.11307 0.81237 0.78373 0.0
N53 N 0.1317 0.78251 0.87587 0.0
N54 N 0.08034 0.8444 0.87096 0.0
C55 C 0.13671 0.7816 0.81601 0.0
C56 C 0.10383 0.81371 0.90401 0.0
C57 C 0.08386 0.84312 0.81073 0.0
C58 C 0.17884 0.75905 0.78875 0.0
C59 C 0.21117 0.78573 0.74184 0.0
C60 C 0.25946 0.77363 0.72633 0.0
C61 C 0.27542 0.73379 0.75634 0.0
C62 C 0.24135 0.70429 0.79992 0.0
C63 C 0.19363 0.71717 0.81646 0.0
C64 C 0.11435 0.82675 0.96719 0.0
C65 C 0.15408 0.80815 0.9948 0.0
C66 C 0.18472 0.83857 1.03781 0.0
C67 C 0.17483 0.88705 1.055 0.0
C68 C 0.12717 0.89848 1.03781 0.0
C69 C 0.09734 0.8688 0.99359 0.0
C70 C 0.06558 0.88205 0.77479 0.0
C71 C 0.05717 0.92888 0.80007 0.0
C72 C 0.61608 0.22036 1.023 0.0
C73 C 0.56034 0.20802 1.02299 0.0
C74 C 0.53541 0.24408 0.99728 0.0
C75 C 0.5652 0.2917 0.9734 0.0
H76 H 0.61153 0.39529 0.79642 0.0
H77 H 0.57771 0.44152 0.71848 0.0
H78 H 0.62344 0.58638 0.8166 0.0
H79 H 0.65967 0.54049 0.89346 0.0
H80 H 0.77712 0.53704 0.9676 0.0
H81 H 0.85914 0.57865 1.0159 0.0
H82 H 0.86597 0.42878 1.08896 0.0
H83 H 0.78352 0.3871 1.04103 0.0
H84 H 0.68894 0.27813 1.00318 0.0
H85 H 0.63632 0.19335 1.04205 0.0
H86 H 0.49246 0.23585 0.99639 0.0
H87 H 0.54435 0.31873 0.95507 0.0
N88 N 0.63279 0.38541 0.91378 0.0
N89 N 0.70384 0.45909 0.92714 0.0
N90 N 0.69729 0.38254 0.98333 0.0
C91 C 0.65878 0.43553 0.89868 0.0
C92 C 0.72365 0.43275 0.96927 0.0
C93 C 0.65165 0.35869 0.95629 0.0
C94 C 0.63823 0.46408 0.85132 0.0
C95 C 0.61467 0.43705 0.80126 0.0
C96 C 0.59559 0.46365 0.75638 0.0
C97 C 0.59788 0.5177 0.7612 0.0
C98 C 0.62103 0.54476 0.81149 0.0
C99 C 0.64183 0.51847 0.85548 0.0
C100 C 0.77349 0.4585 0.99989 0.0
C101 C 0.79591 0.51282 0.99399 0.0
C102 C 0.84303 0.53681 1.02204 0.0
C103 C 0.86949 0.50713 1.05638 0.0
C104 C 0.84688 0.45292 1.06283 0.0
C105 C 0.79942 0.429 1.03523 0.0
C106 C 0.62087 0.30543 0.976 0.0
C107 C 0.64606 0.26895 1.00069 0.0
C108 C 0.71013 0.69281 0.59646 0.0
C109 C 0.6659 0.65875 0.57155 0.0
C110 C 0.67034 0.64293 0.51214 0.0
C111 C 0.71786 0.66135 0.47836 0.0
H112 H 0.84 0.61757 0.35931 0.0
H113 H 0.878 0.56746 0.2859 0.0
H114 H 1.00139 0.70547 0.24112 0.0
H115 H 0.96344 0.7563 0.31523 0.0
H116 H 0.98051 0.86146 0.42071 0.0
H117 H 0.02088 0.94916 0.46109 0.0
H118 H 0.87311 0.94912 0.55509 0.0
H119 H 0.83331 0.86355 0.5154 0.0
H120 H 0.78953 0.73942 0.58298 0.0
H121 H 0.70825 0.70579 0.64199 0.0
H122 H 0.6369 0.61681 0.49161 0.0
H123 H 0.71986 0.6493 0.4325 0.0
N124 N 0.8301 0.69701 0.42237 0.0
N125 N 0.90001 0.7725 0.40458 0.0
N126 N 0.83459 0.77302 0.47888 0.0
C127 C 0.87553 0.72136 0.39115 0.0
C128 C 0.87918 0.79873 0.44837 0.0
C129 C 0.80969 0.72267 0.46662 0.0
C130 C 0.89849 0.69139 0.34398 0.0
C131 C 0.8751 0.63773 0.3339 0.0
C132 C 0.89695 0.60873 0.29152 0.0
C133 C 0.9429 0.63224 0.25749 0.0
C134 C 0.96597 0.68603 0.26649 0.0
C135 C 0.94416 0.71518 0.30921 0.0
C136 C 0.9038 0.85455 0.46538 0.0
C137 C 0.9565 0.88068 0.44914 0.0
C138 C 0.97956 0.93108 0.4721 0.0
C139 C 0.95037 0.9562 0.51174 0.0
C140 C 0.89709 0.93105 0.52519 0.0
C141 C 0.87424 0.88142 0.50238 0.0
C142 C 0.76128 0.69714 0.50287 0.0
C143 C 0.75684 0.71212 0.5625 0.0
C144 C 0.50814 0.92649 0.9842 0.0
C145 C 0.53909 0.95088 1.03094 0.0
C146 C 0.5789 0.92847 1.05188 0.0
C147 C 0.58927 0.88372 1.02512 0.0
H148 H 0.67642 0.77557 1.04309 0.0
H149 H 0.76018 0.75928 1.07425 0.0
H150 H 0.78195 0.6902 0.90391 0.0
H151 H 0.69839 0.70581 0.87258 0.0
H152 H 0.65806 0.74922 0.76037 0.0
H153 H 0.72555 0.80466 0.69603 0.0
H154 H 0.64984 0.93293 0.7242 0.0
H155 H 0.58217 0.87758 0.78685 0.0
H156 H 0.49711 0.8658 0.91805 0.0
H157 H 0.47697 0.94295 0.96767 0.0
H158 H 0.60272 0.94614 1.08859 0.0
H159 H 0.62163 0.86878 1.04118 0.0
N160 N 0.61156 0.79305 0.96487 0.0
N161 N 0.63338 0.76484 0.87084 0.0
N162 N 0.57687 0.82178 0.88022 0.0
C163 C 0.63772 0.76395 0.93046 0.0
C164 C 0.60356 0.79381 0.84499 0.0
C165 C 0.58008 0.8212 0.94013 0.0
C166 C 0.68089 0.74292 0.95488 0.0
C167 C 0.69826 0.75568 1.01272 0.0
C168 C 0.74638 0.7465 1.0306 0.0
C169 C 0.77812 0.72464 0.99095 0.0
C170 C 0.75888 0.70828 0.93486 0.0
C171 C 0.71071 0.71698 0.91716 0.0
C172 C 0.6175 0.81053 0.78264 0.0
C173 C 0.65412 0.7884 0.7503 0.0
C174 C 0.69319 0.82034 0.71371 0.0
C175 C 0.69514 0.87418 0.70853 0.0
C176 C 0.65071 0.89208 0.72878 0.0
C177 C 0.61154 0.86004 0.76507 0.0
C178 C 0.56095 0.86112 0.97569 0.0
C179 C 0.51956 0.88236 0.95611 0.0
C180 C 0.91775 0.2742 0.21408 0.0
C181 C 0.87031 0.28615 0.19695 0.0
C182 C 0.8609 0.33479 0.21428 0.0
C183 C 0.89167 0.3648 0.25748 0.0
H184 H 0.87638 0.47617 0.4023 0.0
H185 H 0.79279 0.49902 0.43104 0.0
H186 H 0.75664 0.37147 0.55691 0.0
H187 H 0.84085 0.34951 0.52994 0.0
H188 H 0.97748 0.33137 0.55982 0.0
H189 H 0.99011 0.26079 0.62213 0.0
H190 H 0.99818 0.16454 0.46767 0.0
H191 H 0.98545 0.23587 0.40431 0.0
H192 H 0.97947 0.28898 0.27677 0.0
H193 H 0.9281 0.23861 0.19869 0.0
H194 H 0.82587 0.34658 0.20081 0.0
H195 H 0.8793 0.39876 0.27485 0.0
N196 N 0.91296 0.38881 0.3769 0.0
N197 N 0.93127 0.35819 0.46879 0.0
N198 N 0.96467 0.32719 0.3813 0.0
C199 C 0.90763 0.38911 0.43675 0.0
C200 C 0.96086 0.32792 0.44154 0.0
C201 C 0.94116 0.35804 0.34851 0.0
C202 C 0.86522 0.41122 0.46402 0.0
C203 C 0.85145 0.45419 0.43753 0.0
C204 C 0.80366 0.46709 0.4537 0.0
C205 C 0.76843 0.43646 0.49555 0.0
C206 C 0.78332 0.39536 0.52433 0.0
C207 C 0.83171 0.38326 0.50929 0.0
C208 C 0.97951 0.28904 0.47715 0.0
C209 C 0.98277 0.29562 0.53877 0.0
C210 C 0.98994 0.25505 0.57454 0.0
C211 C 0.99394 0.20683 0.54972 0.0
C212 C 0.9948 0.20127 0.48784 0.0
C213 C 0.98767 0.24219 0.45171 0.0
C214 C 0.93099 0.3456 0.28514 0.0
C215 C 0.94768 0.30346 0.25851 0.0
C216 C 0.20174 0.63696 0.22635 0.0
C217 C 0.17536 0.6668 0.19213 0.0
C218 C 0.19793 0.72106 0.18611 0.0
C219 C 0.24527 0.74487 0.21404 0.0
H220 H 0.35514 0.89579 0.24845 0.0
H221 H 0.40769 0.98111 0.21087 0.0
H222 H 0.55158 0.93845 0.2561 0.0
H223 H 0.49976 0.85503 0.29617 0.0
H224 H 0.43251 0.77705 0.45351 0.0
H225 H 0.46621 0.73038 0.53109 0.0
H226 H 0.4207 0.58608 0.4319 0.0
H227 H 0.38458 0.63244 0.35535 0.0
H228 H 0.26745 0.63646 0.28098 0.0
H229 H 0.18568 0.59508 0.23216 0.0
H230 H 0.1789 0.74533 0.16009 0.0
H231 H 0.26114 0.7868 0.20859 0.0
N232 N 0.34705 0.79115 0.26687 0.0
N233 N 0.41134 0.78779 0.33649 0.0
N234 N 0.34054 0.71409 0.32213 0.0
C235 C 0.39254 0.81485 0.29428 0.0
C236 C 0.38545 0.73748 0.35095 0.0
C237 C 0.32078 0.74077 0.28028 0.0
C238 C 0.42323 0.86836 0.27531 0.0
C239 C 0.398 0.90503 0.2511 0.0
C240 C 0.42794 0.95393 0.22953 0.0
C241 C 0.48368 0.96639 0.22979 0.0
C242 C 0.50863 0.93013 0.25503 0.0
C243 C 0.47888 0.8822 0.27819 0.0
C244 C 0.40592 0.70859 0.39807 0.0
C245 C 0.42939 0.73532 0.44834 0.0
C246 C 0.44841 0.70846 0.49302 0.0
C247 C 0.44614 0.65444 0.48782 0.0
C248 C 0.42309 0.62767 0.43731 0.0
C249 C 0.40235 0.65423 0.3935 0.0
C250 C 0.27111 0.71518 0.24927 0.0
C251 C 0.24873 0.66082 0.25471 0.0
C252 C 0.14955 0.23812 0.73153 0.0
C253 C 0.09538 0.21445 0.74158 0.0
C254 C 0.06499 0.24112 0.77783 0.0
C255 C 0.08783 0.29166 0.80043 0.0
H256 H 0.08142 0.41658 0.93462 0.0
H257 H 0.04361 0.46801 1.00813 0.0
H258 H 0.16672 0.60576 0.96163 0.0
H259 H 0.20457 0.55503 0.88874 0.0
H260 H 0.32384 0.52399 0.81565 0.0
H261 H 0.40653 0.55664 0.75623 0.0
H262 H 0.3367 0.46335 0.60794 0.0
H263 H 0.25569 0.42955 0.66737 0.0
H264 H 0.21382 0.30501 0.74331 0.0
H265 H 0.17446 0.21859 0.70476 0.0
H266 H 0.023 0.22417 0.78621 0.0
H267 H 0.06296 0.31213 0.82594 0.0
N268 N 0.14492 0.39943 0.84592 0.0
N269 N 0.21443 0.4749 0.8267 0.0
N270 N 0.21033 0.39801 0.77184 0.0
C271 C 0.16917 0.45083 0.85834 0.0
C272 C 0.23494 0.44868 0.78305 0.0
C273 C 0.16587 0.37262 0.8028 0.0
C274 C 0.14623 0.48128 0.90502 0.0
C275 C 0.10066 0.45777 0.94011 0.0
C276 C 0.07893 0.48727 0.98249 0.0
C277 C 0.10199 0.54116 0.99088 0.0
C278 C 0.1478 0.56442 0.95651 0.0
C279 C 0.16956 0.53507 0.91442 0.0
C280 C 0.2832 0.47397 0.74642 0.0
C281 C 0.3261 0.511 0.77019 0.0
C282 C 0.37347 0.52954 0.73621 0.0
C283 C 0.37825 0.51262 0.67729 0.0
C284 C 0.33453 0.47726 0.65307 0.0
C285 C 0.28798 0.45781 0.68728 0.0
C286 C 0.14147 0.31649 0.78708 0.0
C287 C 0.17215 0.28808 0.75381 0.0
Ho288 Ho 0.07193 0.09237 0.58852 0.0
Ho289 Ho 0.97434 1.0791 0.66312 0.0
C290 C 0.07056 0.16601 0.70778 0.0
C291 C 0.16057 0.12749 0.52962 0.0
C292 C 0.20947 0.16873 0.5371 0.0
C293 C 0.21033 0.2133 0.57228 0.0
C294 C 0.25757 0.25229 0.57756 0.0
C295 C 0.30453 0.24759 0.54703 0.0
C296 C 0.30337 0.20159 0.51371 0.0
C297 C 0.25645 0.16263 0.50908 0.0
C298 C 0.05452 1.00916 0.6617 0.0
C299 C 0.97559 1.0047 0.54523 0.0
C300 C 0.88431 1.04158 0.71778 0.0
C301 C 0.83868 0.99631 0.70781 0.0
C302 C 0.83728 0.94677 0.73176 0.0
C303 C 0.79206 0.90557 0.72706 0.0
C304 C 0.74696 0.91293 0.69854 0.0
C305 C 0.74966 0.96157 0.67141 0.0
C306 C 0.79493 1.00286 0.67621 0.0
C307 C 0.99211 0.16232 0.58994 0.0
O308 O 0.09344 0.15796 0.65628 0.0
O309 O 0.02442 0.13543 0.72558 0.0
O310 O 0.15275 0.08882 0.56739 0.0
O311 O 0.11718 0.14268 0.5197 0.0
O312 O 0.07289 1.00952 0.60768 0.0
O313 O 0.048 1.05403 0.67607 0.0
O314 O 0.9539 1.01199 0.59755 0.0
O315 O 0.02073 1.03636 0.52631 0.0
O316 O 0.89203 1.07949 0.67892 0.0
O317 O 0.92882 1.0314 0.73384 0.0
O318 O 0.97394 0.16207 0.64406 0.0
O319 O 0.99819 0.11729 0.5755 0.0
H320 H 0.17435 0.21857 0.5945 0.0
H321 H 0.2568 0.28679 0.60394 0.0
H322 H 0.33791 0.19664 0.48815 0.0
H323 H 0.25656 0.12827 0.4821 0.0
H324 H 0.87026 0.94029 0.75628 0.0
H325 H 0.79126 0.86908 0.74961 0.0
H326 H 0.71581 0.9685 0.64893 0.0
H327 H 0.79481 1.04051 0.6569 0.0
Ho328 Ho 0.58045 0.09737 0.14084 0.0
Ho329 Ho 0.46328 1.07743 1.11259 0.0
C330 C 0.51167 0.17438 0.196 0.0
C331 C 0.68221 0.12457 0.15181 0.0
C332 C 0.73079 0.16633 0.15813 0.0
C333 C 0.7381 0.21634 0.1327 0.0
C334 C 0.78531 0.25473 0.14123 0.0
C335 C 0.82554 0.24368 0.17578 0.0
C336 C 0.81816 0.19266 0.19912 0.0
C337 C 0.7715 0.15457 0.19017 0.0
C338 C 0.51715 1.01416 0.20003 0.0
C339 C 0.53203 1.00031 1.05769 0.0
C340 C 0.36156 1.0501 1.1012 0.0
C341 C 0.3133 1.00797 1.09459 0.0
C342 C 0.30644 0.95793 1.1198 0.0
C343 C 0.25958 0.91916 1.11099 0.0
C344 C 0.21924 0.92983 1.07632 0.0
C345 C 0.22615 0.98086 1.05316 0.0
C346 C 0.27247 1.01934 1.06241 0.0
C347 C 0.52687 0.16063 1.05344 0.0
O348 O 0.55983 0.16958 0.18028 0.0
O349 O 0.46835 0.13863 0.18277 0.0
O350 O 0.64834 0.11512 0.19711 0.0
O351 O 0.65942 0.11955 1.10065 0.0
O352 O 0.56624 1.01825 0.18419 0.0
O353 O 0.50485 1.0569 0.18881 0.0
O354 O 0.48387 1.00514 1.07336 0.0
O355 O 0.57534 1.03611 1.07078 0.0
O356 O 0.39557 1.05981 1.05605 0.0
O357 O 0.38419 1.05512 0.15246 0.0
O358 O 0.47784 0.15676 1.06941 0.0
O359 O 0.53882 0.11771 1.06456 0.0
H360 H 0.70718 0.22608 1.10744 0.0
H361 H 0.78957 0.29338 1.12227 0.0
H362 H 0.84706 0.18253 0.22731 0.0
H363 H 0.76666 0.11601 0.20975 0.0
H364 H 0.33747 0.94847 0.14512 0.0
H365 H 0.25567 0.88053 0.12985 0.0
H366 H 0.19716 0.99072 1.02488 0.0
H367 H 0.27696 1.0579 1.04297 0.0
Ho368 Ho 0.52445 0.54153 0.5833 0.0
Ho369 Ho 0.51959 0.6304 0.66554 0.0
C370 C 0.57422 0.54464 0.71502 0.0
C371 C 0.55936 0.47402 0.51961 0.0
C372 C 0.61228 0.46301 0.51621 0.0
C373 C 0.65674 0.50121 0.53469 0.0
C374 C 0.70764 0.49253 0.5284 0.0
C375 C 0.71458 0.44478 0.50537 0.0
C376 C 0.66992 0.40571 0.48901 0.0
C377 C 0.61902 0.41495 0.49397 0.0
C378 C 0.42878 0.52949 0.64142 0.0
C379 C 0.4697 0.62728 0.53391 0.0
C380 C 0.48489 0.6979 0.72949 0.0
C381 C 0.43188 0.70863 0.73349 0.0
C382 C 0.38764 0.67087 0.71368 0.0
C383 C 0.33659 0.67909 0.72074 0.0
C384 C 0.32933 0.72592 0.74598 0.0
C385 C 0.37373 0.76456 0.7638 0.0
C386 C 0.42477 0.75578 0.75799 0.0
C387 C 0.6153 0.64214 0.60735 0.0
O388 O 0.575 0.52843 0.65933 0.0
O389 O 0.55088 0.58236 0.73073 0.0
O390 O 0.53239 0.46175 0.56957 0.0
O391 O 0.55768 0.52042 0.5004 0.0
O392 O 0.43522 0.51253 0.58815 0.0
O393 O 0.47379 0.54815 0.66267 0.0
O394 O 0.46894 0.64344 0.58961 0.0
O395 O 0.49301 0.58954 0.51813 0.0
O396 O 0.51137 0.71009 0.67921 0.0
O397 O 0.48691 0.65161 0.74869 0.0
O398 O 0.60892 0.65908 0.66065 0.0
O399 O 0.57021 0.62382 0.5862 0.0
H400 H 0.65209 0.53804 0.55333 0.0
H401 H 0.74156 0.52301 0.54147 0.0
H402 H 0.67465 0.36866 0.47088 0.0
H403 H 0.58512 0.38494 0.47989 0.0
H404 H 0.39259 0.63473 0.69346 0.0
H405 H 0.30283 0.64896 0.70659 0.0
H406 H 0.36869 0.8009 0.7836 0.0
H407 H 0.45849 0.7854 0.7732 0.0
Ho408 Ho 0.02322 0.53853 0.15641 0.0
Ho409 Ho 0.02184 0.63544 1.09155 0.0
C410 C 0.12365 0.64152 0.16519 0.0
C411 C 0.05494 0.46123 0.19998 0.0
C412 C 0.10893 0.45642 0.21298 0.0
C413 C 0.15181 0.47413 0.17225 0.0
C414 C 0.20338 0.47247 0.18656 0.0
C415 C 0.21319 0.45391 0.24216 0.0
C416 C 0.17025 0.43622 0.28278 0.0
C417 C 0.11859 0.4373 0.26822 0.0
C418 C 0.96714 0.59976 0.21495 0.0
C419 C 0.92131 0.53247 1.08304 0.0
C420 C 0.99047 0.71289 1.04773 0.0
C421 C 0.93661 0.71818 1.03498 0.0
C422 C 0.89364 0.70003 1.07546 0.0
C423 C 0.84218 0.70233 1.06143 0.0
C424 C 0.83257 0.722 1.00633 0.0
C425 C 0.87561 0.74011 0.96594 0.0
C426 C 0.92716 0.73838 0.98025 0.0
C427 C 0.07787 0.57389 1.03322 0.0
O428 O 0.10637 0.58977 0.16775 0.0
O429 O 0.09506 0.6707 0.14117 0.0
O430 O 0.0369 0.49473 0.23289 0.0
O431 O 0.04474 0.46443 0.14403 0.0
O432 O 0.95347 0.54871 0.21392 0.0
O433 O 1.01096 0.61565 0.18647 0.0
O434 O 0.93859 0.58424 1.08047 0.0
O435 O 0.94996 0.50329 1.10692 0.0
O436 O 1.00798 0.67898 1.01493 0.0
O437 O 1.00086 0.70982 1.10364 0.0
O438 O 0.09171 0.62494 1.03422 0.0
O439 O 0.03392 0.55832 1.06149 0.0
H440 H 0.14568 0.48993 0.1296 0.0
H441 H 0.23573 0.48659 0.15459 0.0
H442 H 0.17658 0.42106 0.3257 0.0
H443 H 0.08623 0.42379 0.30038 0.0
H444 H 0.89963 0.68343 1.11771 0.0
H445 H 0.80976 0.68784 1.0932 0.0
H446 H 0.86945 0.7561 0.92341 0.0
H447 H 0.9596 0.75226 0.94828 0.0
loop_
_geom_bond_atom_site_label_1
_geom_bond_atom_site_label_2
_geom_bond_distance
_geom_bond_site_symmetry_2
_ccdc_geom_bond_type
C0 C1 1.384 . S
C0 H13 0.947 . S
C0 C35 1.382 . S
C1 C0 1.384 . S
C1 C2 1.378 . S
C2 C1 1.378 . S
C2 C3 1.378 . S
C2 H14 0.952 . S
C3 C2 1.378 . S
C3 H15 0.950 . S
C3 C34 1.383 . S
H4 C23 0.947 . S
H5 C24 0.946 . S
H6 C26 0.953 . S
H7 C27 0.945 . S
H8 C29 0.952 . S
H9 C30 0.949 . S
H10 C32 0.950 . S
H11 C33 0.948 . S
H12 C35 0.951 . S
H13 C0 0.947 . S
H14 C2 0.952 . S
H15 C3 0.950 . S
N16 C19 1.382 . S
N16 C21 1.363 . S
N17 C19 1.371 . S
N17 C20 1.372 . S
N18 C20 1.361 . S
N18 C21 1.377 . S
C19 N16 1.382 . S
C19 N17 1.371 . S
C19 C22 1.480 . S
C20 N17 1.372 . S
C20 N18 1.361 . S
C20 C28 1.457 . S
C21 N16 1.363 . S
C21 N18 1.377 . S
C21 C34 1.479 . S
C22 C19 1.480 . S
C22 C23 1.383 . S
C22 C27 1.385 . S
C23 H4 0.947 . S
C23 C22 1.383 . S
C23 C24 1.388 . S
C24 H5 0.946 . S
C24 C23 1.388 . S
C24 C25 1.384 . S
C25 C24 1.384 . S
C25 C26 1.377 . S
C26 H6 0.953 . S
C26 C25 1.377 . S
C26 C27 1.369 . S
C27 H7 0.945 . S
C27 C22 1.385 . S
C27 C26 1.369 . S
C28 C20 1.457 . S
C28 C29 1.372 . S
C28 C33 1.364 . S
C29 H8 0.952 . S
C29 C28 1.372 . S
C29 C30 1.389 . S
C30 H9 0.949 . S
C30 C29 1.389 . S
C30 C31 1.387 . S
C31 C30 1.387 . S
C31 C32 1.372 . S
C32 H10 0.950 . S
C32 C31 1.372 . S
C32 C33 1.379 . S
C33 H11 0.948 . S
C33 C28 1.364 . S
C33 C32 1.379 . S
C34 C3 1.383 . S
C34 C21 1.479 . S
C34 C35 1.398 . S
C35 C0 1.382 . S
C35 H12 0.951 . S
C35 C34 1.398 . S
C36 C37 1.384 . S
C36 H49 0.947 . S
C36 C71 1.382 . S
C37 C36 1.384 . S
C37 C38 1.378 . S
C38 C37 1.378 . S
C38 C39 1.378 . S
C38 H50 0.952 . S
C39 C38 1.378 . S
C39 H51 0.950 . S
C39 C70 1.383 . S
H40 C59 0.947 . S
H41 C60 0.946 . S
H42 C62 0.953 . S
H43 C63 0.945 . S
H44 C65 0.952 . S
H45 C66 0.949 . S
H46 C68 0.950 . S
H47 C69 0.948 . S
H48 C71 0.951 . S
H49 C36 0.947 . S
H50 C38 0.952 . S
H51 C39 0.950 . S
N52 C55 1.382 . S
N52 C57 1.363 . S
N53 C55 1.371 . S
N53 C56 1.372 . S
N54 C56 1.361 . S
N54 C57 1.377 . S
C55 N52 1.382 . S
C55 N53 1.371 . S
C55 C58 1.480 . S
C56 N53 1.372 . S
C56 N54 1.361 . S
C56 C64 1.457 . S
C57 N52 1.363 . S
C57 N54 1.377 . S
C57 C70 1.479 . S
C58 C55 1.480 . S
C58 C59 1.383 . S
C58 C63 1.385 . S
C59 H40 0.947 . S
C59 C58 1.383 . S
C59 C60 1.388 . S
C60 H41 0.946 . S
C60 C59 1.388 . S
C60 C61 1.384 . S
C61 C60 1.384 . S
C61 C62 1.377 . S
C62 H42 0.953 . S
C62 C61 1.377 . S
C62 C63 1.369 . S
C63 H43 0.945 . S
C63 C58 1.385 . S
C63 C62 1.369 . S
C64 C56 1.457 . S
C64 C65 1.372 . S
C64 C69 1.364 . S
C65 H44 0.952 . S
C65 C64 1.372 . S
C65 C66 1.389 . S
C66 H45 0.949 . S
C66 C65 1.389 . S
C66 C67 1.387 . S
C67 C66 1.387 . S
C67 C68 1.372 . S
C68 H46 0.950 . S
C68 C67 1.372 . S
C68 C69 1.379 . S
C69 H47 0.948 . S
C69 C64 1.364 . S
C69 C68 1.379 . S
C70 C39 1.383 . S
C70 C57 1.479 . S
C70 C71 1.398 . S
C71 C36 1.382 . S
C71 H48 0.951 . S
C71 C70 1.398 . S
C72 C73 1.384 . S
C72 H85 0.947 . S
C72 C107 1.382 . S
C73 C72 1.384 . S
C73 C74 1.378 . S
C74 C73 1.378 . S
C74 C75 1.378 . S
C74 H86 0.952 . S
C75 C74 1.378 . S
C75 H87 0.950 . S
C75 C106 1.383 . S
H76 C95 0.947 . S
H77 C96 0.946 . S
H78 C98 0.953 . S
H79 C99 0.945 . S
H80 C101 0.952 . S
H81 C102 0.949 . S
H82 C104 0.950 . S
H83 C105 0.948 . S
H84 C107 0.951 . S
H85 C72 0.947 . S
H86 C74 0.952 . S
H87 C75 0.950 . S
N88 C91 1.382 . S
N88 C93 1.363 . S
N89 C91 1.371 . S
N89 C92 1.372 . S
N90 C92 1.361 . S
N90 C93 1.377 . S
C91 N88 1.382 . S
C91 N89 1.371 . S
C91 C94 1.480 . S
C92 N89 1.372 . S
C92 N90 1.361 . S
C92 C100 1.457 . S
C93 N88 1.363 . S
C93 N90 1.377 . S
C93 C106 1.479 . S
C94 C91 1.480 . S
C94 C95 1.383 . S
C94 C99 1.385 . S
C95 H76 0.947 . S
C95 C94 1.383 . S
C95 C96 1.388 . S
C96 H77 0.946 . S
C96 C95 1.388 . S
C96 C97 1.384 . S
C97 C96 1.384 . S
C97 C98 1.377 . S
C98 H78 0.953 . S
C98 C97 1.377 . S
C98 C99 1.369 . S
C99 H79 0.945 . S
C99 C94 1.385 . S
C99 C98 1.369 . S
C100 C92 1.457 . S
C100 C101 1.372 . S
C100 C105 1.364 . S
C101 H80 0.952 . S
C101 C100 1.372 . S
C101 C102 1.389 . S
C102 H81 0.949 . S
C102 C101 1.389 . S
C102 C103 1.387 . S
C103 C102 1.387 . S
C103 C104 1.372 . S
C104 H82 0.950 . S
C104 C103 1.372 . S
C104 C105 1.379 . S
C105 H83 0.948 . S
C105 C100 1.364 . S
C105 C104 1.379 . S
C106 C75 1.383 . S
C106 C93 1.479 . S
C106 C107 1.398 . S
C107 C72 1.382 . S
C107 H84 0.951 . S
C107 C106 1.398 . S
C108 C109 1.384 . S
C108 H121 0.947 . S
C108 C143 1.382 . S
C109 C108 1.384 . S
C109 C110 1.378 . S
C110 C109 1.378 . S
C110 C111 1.378 . S
C110 H122 0.952 . S
C111 C110 1.378 . S
C111 H123 0.950 . S
C111 C142 1.383 . S
H112 C131 0.947 . S
H113 C132 0.946 . S
H114 C134 0.953 . S
H115 C135 0.945 . S
H116 C137 0.952 . S
H117 C138 0.949 . S
H118 C140 0.950 . S
H119 C141 0.948 . S
H120 C143 0.951 . S
H121 C108 0.947 . S
H122 C110 0.952 . S
H123 C111 0.950 . S
N124 C127 1.382 . S
N124 C129 1.363 . S
N125 C127 1.371 . S
N125 C128 1.372 . S
N126 C128 1.361 . S
N126 C129 1.377 . S
C127 N124 1.382 . S
C127 N125 1.371 . S
C127 C130 1.480 . S
C128 N125 1.372 . S
C128 N126 1.361 . S
C128 C136 1.457 . S
C129 N124 1.363 . S
C129 N126 1.377 . S
C129 C142 1.479 . S
C130 C127 1.480 . S
C130 C131 1.383 . S
C130 C135 1.385 . S
C131 H112 0.947 . S
C131 C130 1.383 . S
C131 C132 1.388 . S
C132 H113 0.946 . S
C132 C131 1.388 . S
C132 C133 1.384 . S
C133 C132 1.384 . S
C133 C134 1.377 . S
C134 H114 0.953 . S
C134 C133 1.377 . S
C134 C135 1.369 . S
C135 H115 0.945 . S
C135 C130 1.385 . S
C135 C134 1.369 . S
C136 C128 1.457 . S
C136 C137 1.372 . S
C136 C141 1.364 . S
C137 H116 0.952 . S
C137 C136 1.372 . S
C137 C138 1.389 . S
C138 H117 0.949 . S
C138 C137 1.389 . S
C138 C139 1.387 . S
C139 C138 1.387 . S
C139 C140 1.372 . S
C140 H118 0.950 . S
C140 C139 1.372 . S
C140 C141 1.379 . S
C141 H119 0.948 . S
C141 C136 1.364 . S
C141 C140 1.379 . S
C142 C111 1.383 . S
C142 C129 1.479 . S
C142 C143 1.398 . S
C143 C108 1.382 . S
C143 H120 0.951 . S
C143 C142 1.398 . S
C144 C145 1.384 . S
C144 H157 0.947 . S
C144 C179 1.382 . S
C145 C144 1.384 . S
C145 C146 1.378 . S
C146 C145 1.378 . S
C146 C147 1.378 . S
C146 H158 0.952 . S
C147 C146 1.378 . S
C147 H159 0.950 . S
C147 C178 1.383 . S
H148 C167 0.947 . S
H149 C168 0.946 . S
H150 C170 0.953 . S
H151 C171 0.945 . S
H152 C173 0.952 . S
H153 C174 0.949 . S
H154 C176 0.950 . S
H155 C177 0.948 . S
H156 C179 0.951 . S
H157 C144 0.947 . S
H158 C146 0.952 . S
H159 C147 0.950 . S
N160 C163 1.382 . S
N160 C165 1.363 . S
N161 C163 1.371 . S
N161 C164 1.372 . S
N162 C164 1.361 . S
N162 C165 1.377 . S
C163 N160 1.382 . S
C163 N161 1.371 . S
C163 C166 1.480 . S
C164 N161 1.372 . S
C164 N162 1.361 . S
C164 C172 1.457 . S
C165 N160 1.363 . S
C165 N162 1.377 . S
C165 C178 1.479 . S
C166 C163 1.480 . S
C166 C167 1.383 . S
C166 C171 1.385 . S
C167 H148 0.947 . S
C167 C166 1.383 . S
C167 C168 1.388 . S
C168 H149 0.946 . S
C168 C167 1.388 . S
C168 C169 1.384 . S
C169 C168 1.384 . S
C169 C170 1.377 . S
C170 H150 0.953 . S
C170 C169 1.377 . S
C170 C171 1.369 . S
C171 H151 0.945 . S
C171 C166 1.385 . S
C171 C170 1.369 . S
C172 C164 1.457 . S
C172 C173 1.372 . S
C172 C177 1.364 . S
C173 H152 0.952 . S
C173 C172 1.372 . S
C173 C174 1.389 . S
C174 H153 0.949 . S
C174 C173 1.389 . S
C174 C175 1.387 . S
C175 C174 1.387 . S
C175 C176 1.372 . S
C176 H154 0.950 . S
C176 C175 1.372 . S
C176 C177 1.379 . S
C177 H155 0.948 . S
C177 C172 1.364 . S
C177 C176 1.379 . S
C178 C147 1.383 . S
C178 C165 1.479 . S
C178 C179 1.398 . S
C179 C144 1.382 . S
C179 H156 0.951 . S
C179 C178 1.398 . S
C180 C181 1.384 . S
C180 H193 0.947 . S
C180 C215 1.382 . S
C181 C180 1.384 . S
C181 C182 1.378 . S
C182 C181 1.378 . S
C182 C183 1.378 . S
C182 H194 0.952 . S
C183 C182 1.378 . S
C183 H195 0.950 . S
C183 C214 1.383 . S
H184 C203 0.947 . S
H185 C204 0.946 . S
H186 C206 0.953 . S
H187 C207 0.945 . S
H188 C209 0.952 . S
H189 C210 0.949 . S
H190 C212 0.950 . S
H191 C213 0.948 . S
H192 C215 0.951 . S
H193 C180 0.947 . S
H194 C182 0.952 . S
H195 C183 0.950 . S
N196 C199 1.382 . S
N196 C201 1.363 . S
N197 C199 1.371 . S
N197 C200 1.372 . S
N198 C200 1.361 . S
N198 C201 1.377 . S
C199 N196 1.382 . S
C199 N197 1.371 . S
C199 C202 1.480 . S
C200 N197 1.372 . S
C200 N198 1.361 . S
C200 C208 1.457 . S
C201 N196 1.363 . S
C201 N198 1.377 . S
C201 C214 1.479 . S
C202 C199 1.480 . S
C202 C203 1.383 . S
C202 C207 1.385 . S
C203 H184 0.947 . S
C203 C202 1.383 . S
C203 C204 1.388 . S
C204 H185 0.946 . S
C204 C203 1.388 . S
C204 C205 1.384 . S
C205 C204 1.384 . S
C205 C206 1.377 . S
C206 H186 0.953 . S
C206 C205 1.377 . S
C206 C207 1.369 . S
C207 H187 0.945 . S
C207 C202 1.385 . S
C207 C206 1.369 . S
C208 C200 1.457 . S
C208 C209 1.372 . S
C208 C213 1.364 . S
C209 H188 0.952 . S
C209 C208 1.372 . S
C209 C210 1.389 . S
C210 H189 0.949 . S
C210 C209 1.389 . S
C210 C211 1.387 . S
C211 C210 1.387 . S
C211 C212 1.372 . S
C212 H190 0.950 . S
C212 C211 1.372 . S
C212 C213 1.379 . S
C213 H191 0.948 . S
C213 C208 1.364 . S
C213 C212 1.379 . S
C214 C183 1.383 . S
C214 C201 1.479 . S
C214 C215 1.398 . S
C215 C180 1.382 . S
C215 H192 0.951 . S
C215 C214 1.398 . S
C216 C217 1.384 . S
C216 H229 0.947 . S
C216 C251 1.382 . S
C217 C216 1.384 . S
C217 C218 1.378 . S
C218 C217 1.378 . S
C218 C219 1.378 . S
C218 H230 0.952 . S
C219 C218 1.378 . S
C219 H231 0.950 . S
C219 C250 1.383 . S
H220 C239 0.947 . S
H221 C240 0.946 . S
H222 C242 0.953 . S
H223 C243 0.945 . S
H224 C245 0.952 . S
H225 C246 0.949 . S
H226 C248 0.950 . S
H227 C249 0.948 . S
H228 C251 0.951 . S
H229 C216 0.947 . S
H230 C218 0.952 . S
H231 C219 0.950 . S
N232 C235 1.382 . S
N232 C237 1.363 . S
N233 C235 1.371 . S
N233 C236 1.372 . S
N234 C236 1.361 . S
N234 C237 1.377 . S
C235 N232 1.382 . S
C235 N233 1.371 . S
C235 C238 1.480 . S
C236 N233 1.372 . S
C236 N234 1.361 . S
C236 C244 1.457 . S
C237 N232 1.363 . S
C237 N234 1.377 . S
C237 C250 1.479 . S
C238 C235 1.480 . S
C238 C239 1.383 . S
C238 C243 1.385 . S
C239 H220 0.947 . S
C239 C238 1.383 . S
C239 C240 1.388 . S
C240 H221 0.946 . S
C240 C239 1.388 . S
C240 C241 1.384 . S
C241 C240 1.384 . S
C241 C242 1.377 . S
C242 H222 0.953 . S
C242 C241 1.377 . S
C242 C243 1.369 . S
C243 H223 0.945 . S
C243 C238 1.385 . S
C243 C242 1.369 . S
C244 C236 1.457 . S
C244 C245 1.372 . S
C244 C249 1.364 . S
C245 H224 0.952 . S
C245 C244 1.372 . S
C245 C246 1.389 . S
C246 H225 0.949 . S
C246 C245 1.389 . S
C246 C247 1.387 . S
C247 C246 1.387 . S
C247 C248 1.372 . S
C248 H226 0.950 . S
C248 C247 1.372 . S
C248 C249 1.379 . S
C249 H227 0.948 . S
C249 C244 1.364 . S
C249 C248 1.379 . S
C250 C219 1.383 . S
C250 C237 1.479 . S
C250 C251 1.398 . S
C251 C216 1.382 . S
C251 H228 0.951 . S
C251 C250 1.398 . S
C252 C253 1.384 . S
C252 H265 0.947 . S
C252 C287 1.382 . S
C253 C252 1.384 . S
C253 C254 1.378 . S
C254 C253 1.378 . S
C254 C255 1.378 . S
C254 H266 0.952 . S
C255 C254 1.378 . S
C255 H267 0.950 . S
C255 C286 1.383 . S
H256 C275 0.947 . S
H257 C276 0.946 . S
H258 C278 0.953 . S
H259 C279 0.945 . S
H260 C281 0.952 . S
H261 C282 0.949 . S
H262 C284 0.950 . S
H263 C285 0.948 . S
H264 C287 0.951 . S
H265 C252 0.947 . S
H266 C254 0.952 . S
H267 C255 0.950 . S
N268 C271 1.382 . S
N268 C273 1.363 . S
N269 C271 1.371 . S
N269 C272 1.372 . S
N270 C272 1.361 . S
N270 C273 1.377 . S
C271 N268 1.382 . S
C271 N269 1.371 . S
C271 C274 1.480 . S
C272 N269 1.372 . S
C272 N270 1.361 . S
C272 C280 1.457 . S
C273 N268 1.363 . S
C273 N270 1.377 . S
C273 C286 1.479 . S
C274 C271 1.480 . S
C274 C275 1.383 . S
C274 C279 1.385 . S
C275 H256 0.947 . S
C275 C274 1.383 . S
C275 C276 1.388 . S
C276 H257 0.946 . S
C276 C275 1.388 . S
C276 C277 1.384 . S
C277 C276 1.384 . S
C277 C278 1.377 . S
C278 H258 0.953 . S
C278 C277 1.377 . S
C278 C279 1.369 . S
C279 H259 0.945 . S
C279 C274 1.385 . S
C279 C278 1.369 . S
C280 C272 1.457 . S
C280 C281 1.372 . S
C280 C285 1.364 . S
C281 H260 0.952 . S
C281 C280 1.372 . S
C281 C282 1.389 . S
C282 H261 0.949 . S
C282 C281 1.389 . S
C282 C283 1.387 . S
C283 C282 1.387 . S
C283 C284 1.372 . S
C284 H262 0.950 . S
C284 C283 1.372 . S
C284 C285 1.379 . S
C285 H263 0.948 . S
C285 C280 1.364 . S
C285 C284 1.379 . S
C286 C255 1.383 . S
C286 C273 1.479 . S
C286 C287 1.398 . S
C287 C252 1.382 . S
C287 H264 0.951 . S
C287 C286 1.398 . S
Ho288 C291 2.811 . S
Ho288 O308 2.322 . S
Ho288 O310 2.378 . S
Ho288 O311 2.524 . S
Ho288 O312 2.381 1_545 S
Ho288 O313 2.669 1_545 S
Ho288 O315 2.346 1_445 S
Ho288 O319 2.305 1_455 S
Ho289 C300 2.811 . S
Ho289 O309 2.346 1_665 S
Ho289 O313 2.305 1_655 S
Ho289 O314 2.322 . S
Ho289 O316 2.378 . S
Ho289 O317 2.524 . S
Ho289 O318 2.381 1_565 S
Ho289 O319 2.669 1_565 S
C290 O308 1.259 . S
C290 O309 1.268 . S
C291 Ho288 2.811 . S
C291 C292 1.488 . S
C291 O310 1.215 . S
C291 O311 1.289 . S
C292 C291 1.488 . S
C292 C293 1.348 . S
C292 C297 1.413 . S
C293 C292 1.348 . S
C293 C294 1.442 . S
C293 H320 0.930 . S
C294 C293 1.442 . S
C294 C295 1.381 . S
C294 H321 0.931 . S
C295 C294 1.381 . S
C295 C296 1.321 . S
C296 C295 1.321 . S
C296 C297 1.403 . S
C296 H322 0.934 . S
C297 C292 1.413 . S
C297 C296 1.403 . S
C297 H323 0.930 . S
C298 O312 1.275 . S
C298 O313 1.256 . S
C299 O314 1.259 . S
C299 O315 1.268 . S
C300 Ho289 2.811 . S
C300 C301 1.488 . S
C300 O316 1.215 . S
C300 O317 1.289 . S
C301 C300 1.488 . S
C301 C302 1.348 . S
C301 C306 1.413 . S
C302 C301 1.348 . S
C302 C303 1.442 . S
C302 H324 0.930 . S
C303 C302 1.442 . S
C303 C304 1.381 . S
C303 H325 0.931 . S
C304 C303 1.381 . S
C304 C305 1.321 . S
C305 C304 1.321 . S
C305 C306 1.403 . S
C305 H326 0.934 . S
C306 C301 1.413 . S
C306 C305 1.403 . S
C306 H327 0.930 . S
C307 O318 1.275 . S
C307 O319 1.256 . S
O308 Ho288 2.322 . S
O308 C290 1.259 . S
O309 Ho289 2.346 1_445 S
O309 C290 1.268 . S
O310 Ho288 2.378 . S
O310 C291 1.215 . S
O311 Ho288 2.524 . S
O311 C291 1.289 . S
O312 Ho288 2.381 1_565 S
O312 C298 1.275 . S
O313 Ho288 2.669 1_565 S
O313 Ho289 2.305 1_455 S
O313 C298 1.256 . S
O314 Ho289 2.322 . S
O314 C299 1.259 . S
O315 Ho288 2.346 1_665 S
O315 C299 1.268 . S
O316 Ho289 2.378 . S
O316 C300 1.215 . S
O317 Ho289 2.524 . S
O317 C300 1.289 . S
O318 Ho289 2.381 1_545 S
O318 C307 1.275 . S
O319 Ho288 2.305 1_655 S
O319 Ho289 2.669 1_545 S
O319 C307 1.256 . S
H320 C293 0.930 . S
H321 C294 0.931 . S
H322 C296 0.934 . S
H323 C297 0.930 . S
H324 C302 0.930 . S
H325 C303 0.931 . S
H326 C305 0.934 . S
H327 C306 0.930 . S
Ho328 C331 2.811 1_565 S
Ho328 O348 2.322 1_565 S
Ho328 O350 2.378 1_565 S
Ho328 O351 2.524 1_565 S
Ho328 O352 2.381 . S
Ho328 O353 2.669 . S
Ho328 O355 2.346 1_554 S
Ho328 O359 2.305 1_564 S
Ho329 C340 2.811 1_545 S
Ho329 O349 2.346 1_556 S
Ho329 O353 2.305 1_546 S
Ho329 O354 2.322 1_545 S
Ho329 O356 2.378 1_545 S
Ho329 O357 2.524 1_545 S
Ho329 O358 2.381 . S
Ho329 O359 2.669 . S
C330 O348 1.259 . S
C330 O349 1.268 . S
C331 Ho328 2.811 1_545 S
C331 C332 1.488 . S
C331 O350 1.215 . S
C331 O351 1.289 . S
C332 C331 1.488 . S
C332 C333 1.348 . S
C332 C337 1.413 . S
C333 C332 1.348 . S
C333 C334 1.442 . S
C333 H360 0.930 . S
C334 C333 1.442 . S
C334 C335 1.381 . S
C334 H361 0.931 . S
C335 C334 1.381 . S
C335 C336 1.321 . S
C336 C335 1.321 . S
C336 C337 1.403 . S
C336 H362 0.934 . S
C337 C332 1.413 . S
C337 C336 1.403 . S
C337 H363 0.930 . S
C338 O352 1.275 . S
C338 O353 1.256 . S
C339 O354 1.259 . S
C339 O355 1.268 . S
C340 Ho329 2.811 1_565 S
C340 C341 1.488 . S
C340 O356 1.215 . S
C340 O357 1.289 . S
C341 C340 1.488 . S
C341 C342 1.348 . S
C341 C346 1.413 . S
C342 C341 1.348 . S
C342 C343 1.442 . S
C342 H364 0.930 . S
C343 C342 1.442 . S
C343 C344 1.381 . S
C343 H365 0.931 . S
C344 C343 1.381 . S
C344 C345 1.321 . S
C345 C344 1.321 . S
C345 C346 1.403 . S
C345 H366 0.934 . S
C346 C341 1.413 . S
C346 C345 1.403 . S
C346 H367 0.930 . S
C347 O358 1.275 . S
C347 O359 1.256 . S
O348 Ho328 2.322 1_545 S
O348 C330 1.259 . S
O349 Ho329 2.346 1_554 S
O349 C330 1.268 . S
O350 Ho328 2.378 1_545 S
O350 C331 1.215 . S
O351 Ho328 2.524 1_545 S
O351 C331 1.289 . S
O352 Ho328 2.381 . S
O352 C338 1.275 . S
O353 Ho328 2.669 . S
O353 Ho329 2.305 1_564 S
O353 C338 1.256 . S
O354 Ho329 2.322 1_565 S
O354 C339 1.259 . S
O355 Ho328 2.346 1_556 S
O355 C339 1.268 . S
O356 Ho329 2.378 1_565 S
O356 C340 1.215 . S
O357 Ho329 2.524 1_565 S
O357 C340 1.289 . S
O358 Ho329 2.381 . S
O358 C347 1.275 . S
O359 Ho328 2.305 1_546 S
O359 Ho329 2.669 . S
O359 C347 1.256 . S
H360 C333 0.930 . S
H361 C334 0.931 . S
H362 C336 0.934 . S
H363 C337 0.930 . S
H364 C342 0.930 . S
H365 C343 0.931 . S
H366 C345 0.934 . S
H367 C346 0.930 . S
Ho368 C371 2.811 . S
Ho368 O388 2.322 . S
Ho368 O390 2.378 . S
Ho368 O391 2.524 . S
Ho368 O392 2.381 . S
Ho368 O393 2.669 . S
Ho368 O395 2.346 . S
Ho368 O399 2.305 . S
Ho369 C380 2.811 . S
Ho369 O389 2.346 . S
Ho369 O393 2.305 . S
Ho369 O394 2.322 . S
Ho369 O396 2.378 . S
Ho369 O397 2.524 . S
Ho369 O398 2.381 . S
Ho369 O399 2.669 . S
C370 O388 1.259 . S
C370 O389 1.268 . S
C371 Ho368 2.811 . S
C371 C372 1.488 . S
C371 O390 1.215 . S
C371 O391 1.289 . S
C372 C371 1.488 . S
C372 C373 1.348 . S
C372 C377 1.413 . S
C373 C372 1.348 . S
C373 C374 1.442 . S
C373 H400 0.930 . S
C374 C373 1.442 . S
C374 C375 1.381 . S
C374 H401 0.931 . S
C375 C374 1.381 . S
C375 C376 1.321 . S
C376 C375 1.321 . S
C376 C377 1.403 . S
C376 H402 0.934 . S
C377 C372 1.413 . S
C377 C376 1.403 . S
C377 H403 0.930 . S
C378 O392 1.275 . S
C378 O393 1.256 . S
C379 O394 1.259 . S
C379 O395 1.268 . S
C380 Ho369 2.811 . S
C380 C381 1.488 . S
C380 O396 1.215 . S
C380 O397 1.289 . S
C381 C380 1.488 . S
C381 C382 1.348 . S
C381 C386 1.413 . S
C382 C381 1.348 . S
C382 C383 1.442 . S
C382 H404 0.930 . S
C383 C382 1.442 . S
C383 C384 1.381 . S
C383 H405 0.931 . S
C384 C383 1.381 . S
C384 C385 1.321 . S
C385 C384 1.321 . S
C385 C386 1.403 . S
C385 H406 0.934 . S
C386 C381 1.413 . S
C386 C385 1.403 . S
C386 H407 0.930 . S
C387 O398 1.275 . S
C387 O399 1.256 . S
O388 Ho368 2.322 . S
O388 C370 1.259 . S
O389 Ho369 2.346 . S
O389 C370 1.268 . S
O390 Ho368 2.378 . S
O390 C371 1.215 . S
O391 Ho368 2.524 . S
O391 C371 1.289 . S
O392 Ho368 2.381 . S
O392 C378 1.275 . S
O393 Ho368 2.669 . S
O393 Ho369 2.305 . S
O393 C378 1.256 . S
O394 Ho369 2.322 . S
O394 C379 1.259 . S
O395 Ho368 2.346 . S
O395 C379 1.268 . S
O396 Ho369 2.378 . S
O396 C380 1.215 . S
O397 Ho369 2.524 . S
O397 C380 1.289 . S
O398 Ho369 2.381 . S
O398 C387 1.275 . S
O399 Ho368 2.305 . S
O399 Ho369 2.669 . S
O399 C387 1.256 . S
H400 C373 0.930 . S
H401 C374 0.931 . S
H402 C376 0.934 . S
H403 C377 0.930 . S
H404 C382 0.930 . S
H405 C383 0.931 . S
H406 C385 0.934 . S
H407 C386 0.930 . S
Ho408 C411 2.811 . S
Ho408 O428 2.322 . S
Ho408 O430 2.378 . S
Ho408 O431 2.524 . S
Ho408 O432 2.381 1_455 S
Ho408 O433 2.669 1_455 S
Ho408 O435 2.346 1_454 S
Ho408 O439 2.305 1_554 S
Ho409 C420 2.811 . S
Ho409 O429 2.346 1_656 S
Ho409 O433 2.305 1_556 S
Ho409 O434 2.322 . S
Ho409 O436 2.378 . S
Ho409 O437 2.524 . S
Ho409 O438 2.381 1_655 S
Ho409 O439 2.669 1_655 S
C410 O428 1.259 . S
C410 O429 1.268 . S
C411 Ho408 2.811 . S
C411 C412 1.488 . S
C411 O430 1.215 . S
C411 O431 1.289 . S
C412 C411 1.488 . S
C412 C413 1.348 . S
C412 C417 1.413 . S
C413 C412 1.348 . S
C413 C414 1.442 . S
C413 H440 0.930 . S
C414 C413 1.442 . S
C414 C415 1.381 . S
C414 H441 0.931 . S
C415 C414 1.381 . S
C415 C416 1.321 . S
C416 C415 1.321 . S
C416 C417 1.403 . S
C416 H442 0.934 . S
C417 C412 1.413 . S
C417 C416 1.403 . S
C417 H443 0.930 . S
C418 O432 1.275 . S
C418 O433 1.256 . S
C419 O434 1.259 . S
C419 O435 1.268 . S
C420 Ho409 2.811 . S
C420 C421 1.488 . S
C420 O436 1.215 . S
C420 O437 1.289 . S
C421 C420 1.488 . S
C421 C422 1.348 . S
C421 C426 1.413 . S
C422 C421 1.348 . S
C422 C423 1.442 . S
C422 H444 0.930 . S
C423 C422 1.442 . S
C423 C424 1.381 . S
C423 H445 0.931 . S
C424 C423 1.381 . S
C424 C425 1.321 . S
C425 C424 1.321 . S
C425 C426 1.403 . S
C425 H446 0.934 . S
C426 C421 1.413 . S
C426 C425 1.403 . S
C426 H447 0.930 . S
C427 O438 1.275 . S
C427 O439 1.256 . S
O428 Ho408 2.322 . S
O428 C410 1.259 . S
O429 Ho409 2.346 1_454 S
O429 C410 1.268 . S
O430 Ho408 2.378 . S
O430 C411 1.215 . S
O431 Ho408 2.524 . S
O431 C411 1.289 . S
O432 Ho408 2.381 1_655 S
O432 C418 1.275 . S
O433 Ho408 2.669 1_655 S
O433 Ho409 2.305 1_554 S
O433 C418 1.256 . S
O434 Ho409 2.322 . S
O434 C419 1.259 . S
O435 Ho408 2.346 1_656 S
O435 C419 1.268 . S
O436 Ho409 2.378 . S
O436 C420 1.215 . S
O437 Ho409 2.524 . S
O437 C420 1.289 . S
O438 Ho409 2.381 1_455 S
O438 C427 1.275 . S
O439 Ho408 2.305 1_556 S
O439 Ho409 2.669 1_455 S
O439 C427 1.256 . S
H440 C413 0.930 . S
H441 C414 0.931 . S
H442 C416 0.934 . S
H443 C417 0.930 . S
H444 C422 0.930 . S
H445 C423 0.931 . S
H446 C425 0.934 . S
H447 C426 0.930 . S
C1 C295 2.245 . S
C67 C344 1.898 . S
C370 C97 3.589 . S
C133 C418 3.568 . S
C330 C25 4.624 . S
C298 C37 1.659 . S
C419 C103 2.528 . S
C387 C109 2.262 . S
C31 C415 2.994 . S
C347 C73 3.322 . S
C139 C299 3.352 . S
C61 C384 2.583 . S
C304 C175 2.069 . S
C181 C335 1.785 . S
C247 C379 3.643 . S
C277 C427 3.518 . S
C145 C339 4.438 . S
C307 C211 1.642 . S
C410 C217 2.470 . S
C378 C283 2.255 . S
C169 C424 2.816 . S
C338 C241 3.346 . S
C290 C253 3.326 . S
C205 C375 2.671 . S
