# Generated by pormake.
# Topology ptr, (4,4)-cn, num edge types: 1
# Building blocks:
#     Node 0, Type 0, BuildingBlock: QUQFOY_clean_sbu_1, # of connection points: 4
#     Node 1, Type 0, BuildingBlock: QUQFOY_clean_sbu_1, # of connection points: 4
#     Node 2, Type 0, BuildingBlock: QUQFOY_clean_sbu_1, # of connection points: 4
#     Node 3, Type 0, BuildingBlock: QUQFOY_clean_sbu_1, # of connection points: 4
#     Node 4, Type 0, BuildingBlock: QUQFOY_clean_sbu_1, # of connection points: 4
#     Node 5, Type 0, BuildingBlock: QUQFOY_clean_sbu_1, # of connection points: 4
#     Node 6, Type 0, BuildingBlock: QUQFOY_clean_sbu_1, # of connection points: 4
#     Node 7, Type 0, BuildingBlock: QUQFOY_clean_sbu_1, # of connection points: 4
#     Node 8, Type 0, BuildingBlock: QUQFOY_clean_sbu_1, # of connection points: 4
#     Node 9, Type 0, BuildingBlock: QUQFOY_clean_sbu_1, # of connection points: 4
#     Node 10, Type 0, BuildingBlock: QUQFOY_clean_sbu_1, # of connection points: 4
#     Node 11, Type 0, BuildingBlock: QUQFOY_clean_sbu_1, # of connection points: 4
#     Node 12, Type 0, BuildingBlock: QUQFOY_clean_sbu_1, # of connection points: 4
#     Node 13, Type 0, BuildingBlock: QUQFOY_clean_sbu_1, # of connection points: 4
#     Node 14, Type 0, BuildingBlock: QUQFOY_clean_sbu_1, # of connection points: 4
#     Node 15, Type 0, BuildingBlock: QUQFOY_clean_sbu_1, # of connection points: 4
#     Node 16, Type 0, BuildingBlock: QUQFOY_clean_sbu_1, # of connection points: 4
#     Node 17, Type 0, BuildingBlock: QUQFOY_clean_sbu_1, # of connection points: 4
#     Node 18, Type 1, BuildingBlock: GIZVER_clean_linker_0, # of connection points: 4
#     Node 19, Type 1, BuildingBlock: GIZVER_clean_linker_0, # of connection points: 4
#     Node 20, Type 1, BuildingBlock: GIZVER_clean_linker_0, # of connection points: 4
#     Node 21, Type 1, BuildingBlock: GIZVER_clean_linker_0, # of connection points: 4
#     Node 22, Type 1, BuildingBlock: GIZVER_clean_linker_0, # of connection points: 4
#     Node 23, Type 1, BuildingBlock: GIZVER_clean_linker_0, # of connection points: 4
#     Node 24, Type 1, BuildingBlock: GIZVER_clean_linker_0, # of connection points: 4
#     Node 25, Type 1, BuildingBlock: GIZVER_clean_linker_0, # of connection points: 4
#     Node 26, Type 1, BuildingBlock: GIZVER_clean_linker_0, # of connection points: 4
#     Node 27, Type 1, BuildingBlock: GIZVER_clean_linker_0, # of connection points: 4
#     Node 28, Type 1, BuildingBlock: GIZVER_clean_linker_0, # of connection points: 4
#     Node 29, Type 1, BuildingBlock: GIZVER_clean_linker_0, # of connection points: 4
#     Node 30, Type 1, BuildingBlock: GIZVER_clean_linker_0, # of connection points: 4
#     Node 31, Type 1, BuildingBlock: GIZVER_clean_linker_0, # of connection points: 4
#     Node 32, Type 1, BuildingBlock: GIZVER_clean_linker_0, # of connection points: 4
#     Node 33, Type 1, BuildingBlock: GIZVER_clean_linker_0, # of connection points: 4
#     Node 34, Type 1, BuildingBlock: GIZVER_clean_linker_0, # of connection points: 4
#     Node 35, Type 1, BuildingBlock: GIZVER_clean_linker_0, # of connection points: 4
#     Edge 36, Type (0, 1), BuildingBlock: AJUNOK_clean_linker_0, # of connection points: 2
#     Edge 37, Type (0, 1), BuildingBlock: AJUNOK_clean_linker_0, # of connection points: 2
#     Edge 38, Type (0, 1), BuildingBlock: AJUNOK_clean_linker_0, # of connection points: 2
#     Edge 39, Type (0, 1), BuildingBlock: AJUNOK_clean_linker_0, # of connection points: 2
#     Edge 40, Type (0, 1), BuildingBlock: AJUNOK_clean_linker_0, # of connection points: 2
#     Edge 41, Type (0, 1), BuildingBlock: AJUNOK_clean_linker_0, # of connection points: 2
#     Edge 42, Type (0, 1), BuildingBlock: AJUNOK_clean_linker_0, # of connection points: 2
#     Edge 43, Type (0, 1), BuildingBlock: AJUNOK_clean_linker_0, # of connection points: 2
#     Edge 44, Type (0, 1), BuildingBlock: AJUNOK_clean_linker_0, # of connection points: 2
#     Edge 45, Type (0, 1), BuildingBlock: AJUNOK_clean_linker_0, # of connection points: 2
#     Edge 46, Type (0, 1), BuildingBlock: AJUNOK_clean_linker_0, # of connection points: 2
#     Edge 47, Type (0, 1), BuildingBlock: AJUNOK_clean_linker_0, # of connection points: 2
#     Edge 48, Type (0, 1), BuildingBlock: AJUNOK_clean_linker_0, # of connection points: 2
#     Edge 49, Type (0, 1), BuildingBlock: AJUNOK_clean_linker_0, # of connection points: 2
#     Edge 50, Type (0, 1), BuildingBlock: AJUNOK_clean_linker_0, # of connection points: 2
#     Edge 51, Type (0, 1), BuildingBlock: AJUNOK_clean_linker_0, # of connection points: 2
#     Edge 52, Type (0, 1), BuildingBlock: AJUNOK_clean_linker_0, # of connection points: 2
#     Edge 53, Type (0, 1), BuildingBlock: AJUNOK_clean_linker_0, # of connection points: 2
#     Edge 54, Type (0, 1), BuildingBlock: AJUNOK_clean_linker_0, # of connection points: 2
#     Edge 55, Type (0, 1), BuildingBlock: AJUNOK_clean_linker_0, # of connection points: 2
#     Edge 56, Type (0, 1), BuildingBlock: AJUNOK_clean_linker_0, # of connection points: 2
#     Edge 57, Type (0, 1), BuildingBlock: AJUNOK_clean_linker_0, # of connection points: 2
#     Edge 58, Type (0, 1), BuildingBlock: AJUNOK_clean_linker_0, # of connection points: 2
#     Edge 59, Type (0, 1), BuildingBlock: AJUNOK_clean_linker_0, # of connection points: 2
#     Edge 60, Type (0, 1), BuildingBlock: AJUNOK_clean_linker_0, # of connection points: 2
#     Edge 61, Type (0, 1), BuildingBlock: AJUNOK_clean_linker_0, # of connection points: 2
#     Edge 62, Type (0, 1), BuildingBlock: AJUNOK_clean_linker_0, # of connection points: 2
#     Edge 63, Type (0, 1), BuildingBlock: AJUNOK_clean_linker_0, # of connection points: 2
#     Edge 64, Type (0, 1), BuildingBlock: AJUNOK_clean_linker_0, # of connection points: 2
#     Edge 65, Type (0, 1), BuildingBlock: AJUNOK_clean_linker_0, # of connection points: 2
#     Edge 66, Type (0, 1), BuildingBlock: AJUNOK_clean_linker_0, # of connection points: 2
#     Edge 67, Type (0, 1), BuildingBlock: AJUNOK_clean_linker_0, # of connection points: 2
#     Edge 68, Type (0, 1), BuildingBlock: AJUNOK_clean_linker_0, # of connection points: 2
#     Edge 69, Type (0, 1), BuildingBlock: AJUNOK_clean_linker_0, # of connection points: 2
#     Edge 70, Type (0, 1), BuildingBlock: AJUNOK_clean_linker_0, # of connection points: 2
#     Edge 71, Type (0, 1), BuildingBlock: AJUNOK_clean_linker_0, # of connection points: 2
#     Edge 72, Type (0, 1), BuildingBlock: AJUNOK_clean_linker_0, # of connection points: 2
#     Edge 73, Type (0, 1), BuildingBlock: AJUNOK_clean_linker_0, # of connection points: 2
#     Edge 74, Type (0, 1), BuildingBlock: AJUNOK_clean_linker_0, # of connection points: 2
#     Edge 75, Type (0, 1), BuildingBlock: AJUNOK_clean_linker_0, # of connection points: 2
#     Edge 76, Type (0, 1), BuildingBlock: AJUNOK_clean_linker_0, # of connection points: 2
#     Edge 77, Type (0, 1), BuildingBlock: AJUNOK_clean_linker_0, # of connection points: 2
#     Edge 78, Type (0, 1), BuildingBlock: AJUNOK_clean_linker_0, # of connection points: 2
#     Edge 79, Type (0, 1), BuildingBlock: AJUNOK_clean_linker_0, # of connection points: 2
#     Edge 80, Type (0, 1), BuildingBlock: AJUNOK_clean_linker_0, # of connection points: 2
#     Edge 81, Type (0, 1), BuildingBlock: AJUNOK_clean_linker_0, # of connection points: 2
#     Edge 82, Type (0, 1), BuildingBlock: AJUNOK_clean_linker_0, # of connection points: 2
#     Edge 83, Type (0, 1), BuildingBlock: AJUNOK_clean_linker_0, # of connection points: 2
#     Edge 84, Type (0, 1), BuildingBlock: AJUNOK_clean_linker_0, # of connection points: 2
#     Edge 85, Type (0, 1), BuildingBlock: AJUNOK_clean_linker_0, # of connection points: 2
#     Edge 86, Type (0, 1), BuildingBlock: AJUNOK_clean_linker_0, # of connection points: 2
#     Edge 87, Type (0, 1), BuildingBlock: AJUNOK_clean_linker_0, # of connection points: 2
#     Edge 88, Type (0, 1), BuildingBlock: AJUNOK_clean_linker_0, # of connection points: 2
#     Edge 89, Type (0, 1), BuildingBlock: AJUNOK_clean_linker_0, # of connection points: 2
#     Edge 90, Type (0, 1), BuildingBlock: AJUNOK_clean_linker_0, # of connection points: 2
#     Edge 91, Type (0, 1), BuildingBlock: AJUNOK_clean_linker_0, # of connection points: 2
#     Edge 92, Type (0, 1), BuildingBlock: AJUNOK_clean_linker_0, # of connection points: 2
#     Edge 93, Type (0, 1), BuildingBlock: AJUNOK_clean_linker_0, # of connection points: 2
#     Edge 94, Type (0, 1), BuildingBlock: AJUNOK_clean_linker_0, # of connection points: 2
#     Edge 95, Type (0, 1), BuildingBlock: AJUNOK_clean_linker_0, # of connection points: 2
#     Edge 96, Type (0, 1), BuildingBlock: AJUNOK_clean_linker_0, # of connection points: 2
#     Edge 97, Type (0, 1), BuildingBlock: AJUNOK_clean_linker_0, # of connection points: 2
#     Edge 98, Type (0, 1), BuildingBlock: AJUNOK_clean_linker_0, # of connection points: 2
#     Edge 99, Type (0, 1), BuildingBlock: AJUNOK_clean_linker_0, # of connection points: 2
#     Edge 100, Type (0, 1), BuildingBlock: AJUNOK_clean_linker_0, # of connection points: 2
#     Edge 101, Type (0, 1), BuildingBlock: AJUNOK_clean_linker_0, # of connection points: 2
#     Edge 102, Type (0, 1), BuildingBlock: AJUNOK_clean_linker_0, # of connection points: 2
#     Edge 103, Type (0, 1), BuildingBlock: AJUNOK_clean_linker_0, # of connection points: 2
#     Edge 104, Type (0, 1), BuildingBlock: AJUNOK_clean_linker_0, # of connection points: 2
#     Edge 105, Type (0, 1), BuildingBlock: AJUNOK_clean_linker_0, # of connection points: 2
#     Edge 106, Type (0, 1), BuildingBlock: AJUNOK_clean_linker_0, # of connection points: 2
#     Edge 107, Type (0, 1), BuildingBlock: AJUNOK_clean_linker_0, # of connection points: 2
# Relax obj value: 0.019
# Max RMSD: 0.066
# Mean RMSD: 0.054
data_MOF--net-ptr--node1-QUQFOY_clean_sbu_1--node2-GIZVER_clean_linker_0--edge1-AJUNOK_clean_linker_0
_symmetry_space_group_name_H-M    P1
_symmetry_Int_Tables_number       1
_symmetry_cell_setting            triclinic
loop_
_symmetry_equiv_pos_as_xyz
'x, y, z'
_cell_length_a     61.097069
_cell_length_b     61.077701
_cell_length_c     37.460549
_cell_angle_alpha  90.323911
_cell_angle_beta   90.271406
_cell_angle_gamma 120.00953
loop_
_atom_site_label
_atom_site_type_symbol
_atom_site_fract_x
_atom_site_fract_y
_atom_site_fract_z
_atom_type_partial_charge
O0 O 0.03887 0.42491 0.05586 0.0
Cd1 Cd 0.04504 0.40962 0.01032 0.0
Cd2 Cd 0.99221 0.38294 0.01082 0.0
O3 O 0.9975 0.40055 0.06006 0.0
O4 O 0.08131 0.41847 0.01382 0.0
O5 O 0.04957 0.3792 0.01481 0.0
C6 C 0.07365 0.39471 0.01698 0.0
C7 C 0.963 0.3395 0.00383 0.0
C8 C 0.01838 0.41821 0.07244 0.0
C9 C 0.01904 0.41938 0.94979 0.0
O10 O 0.99849 0.40484 0.96577 0.0
O11 O 0.03998 0.42281 0.96209 0.0
O12 O 0.95575 0.3559 0.00748 0.0
O13 O 0.98703 0.34774 0.00534 0.0
O14 O 0.60131 0.61952 0.05448 0.0
Cd15 Cd 0.61796 0.64074 0.00946 0.0
Cd16 Cd 0.64433 0.61497 0.0145 0.0
O17 O 0.62599 0.60321 0.06281 0.0
O18 O 0.61027 0.66899 0.01096 0.0
O19 O 0.64895 0.67503 0.01561 0.0
C20 C 0.63409 0.68441 0.01587 0.0
C21 C 0.68747 0.62812 0.00826 0.0
C22 C 0.60776 0.60618 0.07284 0.0
C23 C 0.60943 0.6044 0.95058 0.0
O24 O 0.62292 0.59825 0.96922 0.0
O25 O 0.60632 0.62261 0.96049 0.0
O26 O 0.67076 0.60477 0.01332 0.0
O27 O 0.67981 0.64439 0.0086 0.0
O28 O 0.42932 0.03023 0.96784 0.0
Cd29 Cd 0.41181 0.03413 0.01267 0.0
Cd30 Cd 0.38814 0.98275 0.00804 0.0
O31 O 0.40638 0.98901 0.95968 0.0
O32 O 0.42087 0.07039 0.0121 0.0
O33 O 0.38168 0.03901 0.00599 0.0
C34 C 0.39736 0.06308 0.00665 0.0
C35 C 0.34449 0.9558 0.01441 0.0
C36 C 0.42391 0.01052 0.94957 0.0
C37 C 0.4218 1.00781 0.07211 0.0
O38 O 0.40955 0.98779 0.0534 0.0
O39 O 0.42355 0.02842 0.06183 0.0
O40 O 0.35959 0.94704 0.00946 0.0
O41 O 0.35414 0.98007 0.01396 0.0
O42 O 0.9927 0.59469 0.96984 0.0
Cd43 Cd 0.98931 0.61226 0.01514 0.0
Cd44 Cd 0.0403 0.63661 0.01118 0.0
O45 O 0.03383 0.61827 0.96256 0.0
O46 O 0.95372 0.60528 0.01394 0.0
O47 O 0.98675 0.64363 0.00893 0.0
C48 C 0.96248 0.62909 0.00884 0.0
C49 C 0.06728 0.68034 0.0173 0.0
C50 C 1.01242 0.60058 0.95179 0.0
C51 C 0.01615 0.60301 0.07464 0.0
O52 O 0.03603 0.61566 0.05635 0.0
O53 O 0.99525 0.60061 0.06408 0.0
O54 O 0.07597 0.66516 0.01251 0.0
O55 O 0.04302 0.67067 0.01709 0.0
O56 O 0.42593 0.40734 0.96424 0.0
Cd57 Cd 0.41033 0.38627 0.00961 0.0
Cd58 Cd 0.38523 0.41346 0.00803 0.0
O59 O 0.40233 0.42513 0.95877 0.0
O60 O 0.42053 0.35986 0.00762 0.0
O61 O 0.38078 0.35061 0.00456 0.0
C62 C 0.39704 0.34297 0.0038 0.0
C63 C 0.34161 0.39656 0.01549 0.0
C64 C 0.41966 0.42131 0.94707 0.0
C65 C 0.42109 0.42285 0.0699 0.0
O66 O 0.40733 0.42969 0.05324 0.0
O67 O 0.42354 0.40466 0.05802 0.0
O68 O 0.35659 0.42048 0.01125 0.0
O69 O 0.35138 0.38205 0.01395 0.0
O70 O 0.60562 0.9895 0.05246 0.0
Cd71 Cd 0.6224 0.98483 0.00759 0.0
Cd72 Cd 0.64823 0.03746 0.0134 0.0
O73 O 0.62974 0.03053 0.06193 0.0
O74 O 0.6135 0.94847 0.00877 0.0
O75 O 0.65265 0.98013 0.01382 0.0
C76 C 0.63711 0.95602 0.01397 0.0
C77 C 0.69163 0.06667 0.00733 0.0
C78 C 0.61154 1.00912 0.07124 0.0
C79 C 0.61337 0.01247 0.94917 0.0
O80 O 0.62676 0.03228 0.96787 0.0
O81 O 0.61041 0.99125 0.95904 0.0
O82 O 0.67535 0.07397 0.01201 0.0
O83 O 0.68337 0.04262 0.00786 0.0
O84 O 0.70689 0.75826 0.38824 0.0
Cd85 Cd 0.71318 0.74273 0.34304 0.0
Cd86 Cd 0.66031 0.71582 0.34313 0.0
O87 O 0.66553 0.73366 0.39214 0.0
O88 O 0.74909 0.75039 0.347 0.0
O89 O 0.7164 0.71162 0.34818 0.0
C90 C 0.74061 0.72648 0.35046 0.0
C91 C 0.63047 0.67247 0.3366 0.0
C92 C 0.6863 0.75146 0.4046 0.0
C93 C 0.68737 0.75214 0.28194 0.0
O94 O 0.6668 0.73753 0.29783 0.0
O95 O 0.70833 0.75577 0.29449 0.0
O96 O 0.62367 0.68924 0.33985 0.0
O97 O 0.65441 0.68029 0.33819 0.0
O98 O 0.26829 0.95116 0.38874 0.0
Cd99 Cd 0.28465 0.97256 0.34373 0.0
Cd100 Cd 0.31189 0.9478 0.34864 0.0
O101 O 0.29381 0.93586 0.39712 0.0
O102 O 0.27649 1.00047 0.34561 0.0
O103 O 0.31542 1.00705 0.34963 0.0
C104 C 0.30031 0.01613 0.35014 0.0
C105 C 0.35518 0.96159 0.34225 0.0
C106 C 0.27522 0.93822 0.40715 0.0
C107 C 0.27676 0.93654 0.28476 0.0
O108 O 0.29053 0.93073 0.30339 0.0
O109 O 0.27322 0.95447 0.2947 0.0
O110 O 0.33873 0.93817 0.34739 0.0
O111 O 0.34717 0.97758 0.34256 0.0
O112 O 0.09705 0.36564 0.30184 0.0
Cd113 Cd 0.07949 0.36918 0.34684 0.0
Cd114 Cd 0.05558 0.31811 0.34176 0.0
O115 O 0.07376 0.32447 0.29338 0.0
O116 O 0.08684 0.40492 0.34634 0.0
O117 O 0.04832 0.37217 0.34037 0.0
C118 C 0.06306 0.39642 0.34095 0.0
C119 C 1.01192 0.29127 0.34791 0.0
C120 C 0.0914 0.34595 0.28337 0.0
C121 C 0.08939 0.3427 0.40586 0.0
O122 O 0.07694 0.32278 0.38702 0.0
O123 O 0.09136 0.36345 0.39584 0.0
O124 O 0.02695 0.28245 0.34287 0.0
O125 O 0.02166 0.31556 0.34772 0.0
O126 O 0.66218 0.92831 0.30006 0.0
Cd127 Cd 0.65747 0.94492 0.34552 0.0
Cd128 Cd 0.70852 0.97232 0.34201 0.0
O129 O 0.70304 0.95428 0.2934 0.0
O130 O 0.62187 0.93789 0.34378 0.0
O131 O 0.65496 0.97632 0.33965 0.0
C132 C 0.63068 0.96177 0.33909 0.0
C133 C 0.73699 0.01583 0.34852 0.0
C134 C 0.68237 0.93558 0.28243 0.0
C135 C 0.68536 0.93724 0.40474 0.0
O136 O 0.70498 0.95136 0.38677 0.0
O137 O 0.66385 0.93336 0.39436 0.0
O138 O 0.74461 0.99984 0.34345 0.0
O139 O 0.71288 1.00716 0.34831 0.0
O140 O 0.09501 0.73858 0.30276 0.0
Cd141 Cd 0.07835 0.71776 0.34786 0.0
Cd142 Cd 0.0546 0.74617 0.34402 0.0
O143 O 0.07252 0.75736 0.29513 0.0
O144 O 0.08842 0.69124 0.3468 0.0
O145 O 0.04879 0.68218 0.34218 0.0
C146 C 0.065 0.67446 0.34208 0.0
C147 C 1.01097 0.72986 0.35048 0.0
C148 C 0.08977 0.75296 0.28476 0.0
C149 C 0.08928 0.75496 0.40723 0.0
O150 O 0.07629 0.7623 0.38962 0.0
O151 O 0.09114 0.73622 0.39627 0.0
O152 O 0.02626 0.7537 0.34602 0.0
O153 O 0.02044 0.71507 0.34964 0.0
O154 O 0.27187 0.32291 0.38822 0.0
Cd155 Cd 0.28728 0.31671 0.34296 0.0
Cd156 Cd 0.31375 0.36973 0.34488 0.0
O157 O 0.29612 0.36431 0.3939 0.0
O158 O 0.27817 0.28033 0.34562 0.0
O159 O 0.31752 0.31186 0.34791 0.0
C160 C 0.30188 0.2878 0.34926 0.0
C161 C 0.35705 0.39918 0.33788 0.0
C162 C 0.2784 0.34333 0.40537 0.0
C163 C 0.27724 0.3426 0.2829 0.0
O164 O 0.2916 0.36316 0.29959 0.0
O165 O 0.27407 0.32171 0.29459 0.0
O166 O 0.34056 0.40629 0.34176 0.0
O167 O 0.34906 0.37521 0.33945 0.0
O168 O 0.37506 0.09224 0.72024 0.0
Cd169 Cd 0.37987 0.07552 0.67523 0.0
Cd170 Cd 0.32724 0.05019 0.67807 0.0
O171 O 0.3338 0.06869 0.7269 0.0
O172 O 0.416 0.0838 0.67785 0.0
O173 O 0.38384 0.04485 0.68098 0.0
C174 C 0.40801 0.06007 0.68225 0.0
C175 C 0.29806 1.0067 0.67181 0.0
C176 C 0.35515 0.08648 0.73777 0.0
C177 C 0.35327 0.08505 0.61533 0.0
O178 O 0.33302 0.07149 0.63255 0.0
O179 O 0.37421 0.08789 0.62663 0.0
O180 O 0.29076 0.02304 0.67583 0.0
O181 O 0.32212 0.01502 0.67281 0.0
O182 O 0.93662 0.28751 0.72243 0.0
Cd183 Cd 0.95336 0.30921 0.67777 0.0
Cd184 Cd 0.97805 0.28143 0.68057 0.0
O185 O 0.95962 0.26915 0.72877 0.0
O186 O 0.94523 0.33713 0.68046 0.0
O187 O 0.98416 0.34374 0.6839 0.0
C188 C 0.96905 0.3528 0.68478 0.0
C189 C 0.02112 0.29429 0.67414 0.0
C190 C 0.94215 0.27304 0.73972 0.0
C191 C 0.94364 0.27355 0.6171 0.0
O192 O 0.95648 0.26614 0.6349 0.0
O193 O 0.94127 0.29192 0.62839 0.0
O194 O 1.0042 0.27088 0.67819 0.0
O195 O 1.01368 0.31072 0.67548 0.0
O196 O 0.76337 0.6961 0.63415 0.0
Cd197 Cd 0.74622 0.70119 0.67847 0.0
Cd198 Cd 0.72011 0.65006 0.67513 0.0
O199 O 0.73791 0.65511 0.62665 0.0
O200 O 0.75393 0.73704 0.6767 0.0
O201 O 0.71524 0.70442 0.67159 0.0
C202 C 0.73013 0.72865 0.67161 0.0
C203 C 0.67639 0.62334 0.6814 0.0
C204 C 0.75655 0.67587 0.61635 0.0
C205 C 0.75474 0.67475 0.73867 0.0
O206 O 0.74146 0.65466 0.72048 0.0
O207 O 0.75771 0.69574 0.72785 0.0
O208 O 0.6914 0.61445 0.67682 0.0
O209 O 0.68617 0.64762 0.6808 0.0
O210 O 0.32852 0.26114 0.63265 0.0
Cd211 Cd 0.32381 0.27785 0.67801 0.0
Cd212 Cd 0.37467 0.30506 0.67457 0.0
O213 O 0.36948 0.28671 0.62632 0.0
O214 O 0.28817 0.27075 0.67638 0.0
O215 O 0.32121 0.3092 0.67223 0.0
C216 C 0.29694 0.29463 0.67183 0.0
C217 C 0.40103 0.34892 0.68032 0.0
C218 C 0.34876 0.26812 0.61526 0.0
C219 C 0.3517 0.27048 0.73764 0.0
O220 O 0.3714 0.2846 0.7198 0.0
O221 O 0.3302 0.26645 0.72691 0.0
O222 O 0.4101 0.33404 0.67591 0.0
O223 O 0.37673 0.33888 0.67993 0.0
O224 O 0.76081 0.0714 0.63498 0.0
Cd225 Cd 0.7436 0.05023 0.67961 0.0
Cd226 Cd 0.71996 0.07864 0.67548 0.0
O227 O 0.73825 0.09006 0.62683 0.0
O228 O 0.75357 0.02363 0.67862 0.0
O229 O 0.71402 0.01471 0.6732 0.0
C230 C 0.73017 1.00692 0.67339 0.0
C231 C 0.67629 0.06223 0.68174 0.0
C232 C 0.75571 0.08585 0.61688 0.0
C233 C 0.75428 0.08728 0.73906 0.0
O234 O 0.74147 0.09472 0.72122 0.0
O235 O 0.75605 0.06846 0.72825 0.0
O236 O 0.69155 0.08609 0.67731 0.0
O237 O 0.6858 0.04749 0.68087 0.0
O238 O 0.93822 0.65788 0.72207 0.0
Cd239 Cd 0.9541 0.65222 0.67686 0.0
Cd240 Cd 0.98144 0.70501 0.68112 0.0
O241 O 0.96352 0.69892 0.72995 0.0
O242 O 0.94523 0.61588 0.67891 0.0
O243 O 0.98447 0.64763 0.68232 0.0
C244 C 0.96895 0.62353 0.68319 0.0
C245 C 0.02482 0.73443 0.67475 0.0
C246 C 0.94516 0.67796 0.74031 0.0
C247 C 0.94565 0.67981 0.61772 0.0
O248 O 0.95981 0.69975 0.63574 0.0
O249 O 0.9419 0.65844 0.6283 0.0
O250 O 1.00843 0.74156 0.67945 0.0
O251 O 0.01668 0.7104 0.67536 0.0
H252 H 0.15884 0.33205 0.15776 0.0
H253 H 0.15504 0.34948 0.04706 0.0
H254 H 0.11784 0.3691 0.12749 0.0
H255 H 0.16406 0.30759 0.10368 0.0
H256 H 0.17188 0.32272 0.06152 0.0
H257 H 0.19422 0.32926 0.15748 0.0
H258 H 0.27216 0.36539 0.12757 0.0
H259 H 0.21556 0.3502 0.04773 0.0
C260 C 0.15343 0.3409 0.13734 0.0
C261 C 0.13869 0.35173 0.1469 0.0
C262 C 0.16029 0.3407 0.10145 0.0
C263 C 0.15111 0.3506 0.07498 0.0
C264 C 0.13571 0.36074 0.08448 0.0
C265 C 0.13011 0.36167 0.12036 0.0
C266 C 0.17377 0.32645 0.0908 0.0
C267 C 0.20152 0.33951 0.10168 0.0
C268 C 0.20853 0.33837 0.13732 0.0
C269 C 0.23404 0.34815 0.14685 0.0
C270 C 0.25253 0.3586 0.12053 0.0
C271 C 0.24601 0.35915 0.08488 0.0
C272 C 0.22058 0.35009 0.07548 0.0
H273 H 0.70023 0.8339 0.15584 0.0
H274 H 0.6784 0.81082 0.04606 0.0
H275 H 0.66424 0.75554 0.12637 0.0
H276 H 0.72116 0.86348 0.10162 0.0
H277 H 0.70539 0.8547 0.05953 0.0
H278 H 0.69622 0.86811 0.15577 0.0
H279 H 0.66095 0.91069 0.1252 0.0
H280 H 0.67993 0.87283 0.04465 0.0
C281 C 0.69089 0.81929 0.13575 0.0
C282 C 0.68132 0.79393 0.14547 0.0
C283 C 0.68919 0.82571 0.10003 0.0
C284 C 0.67871 0.80624 0.0739 0.0
C285 C 0.67002 0.78101 0.08347 0.0
C286 C 0.67083 0.77505 0.1192 0.0
C287 C 0.70212 0.85328 0.08883 0.0
C288 C 0.68814 0.86712 0.0992 0.0
C289 C 0.68777 0.87388 0.13518 0.0
C290 C 0.67763 0.88924 0.14466 0.0
C291 C 0.668 0.8981 0.11805 0.0
C292 C 0.66897 0.89248 0.08209 0.0
C293 C 0.67869 0.87669 0.07261 0.0
H294 H 0.17675 0.81481 0.16469 0.0
H295 H 0.16745 0.79317 0.05366 0.0
H296 H 0.10387 0.76085 0.12418 0.0
H297 H 0.21158 0.81343 0.12393 0.0
H298 H 0.20858 0.81566 0.07725 0.0
H299 H 0.2123 0.84938 0.16446 0.0
H300 H 0.26704 0.92106 0.12343 0.0
H301 H 0.23192 0.85643 0.0532 0.0
C302 C 0.16478 0.80542 0.14191 0.0
C303 C 0.13891 0.78895 0.1477 0.0
C304 C 0.17538 0.80786 0.10779 0.0
C305 C 0.1594 0.79299 0.07946 0.0
C306 C 0.1335 0.77605 0.08509 0.0
C307 C 0.1234 0.77487 0.11903 0.0
C308 C 0.20396 0.821 0.10341 0.0
C309 C 0.21824 0.84968 0.10754 0.0
C310 C 0.22156 0.86088 0.14158 0.0
C311 C 0.23876 0.88667 0.14722 0.0
C312 C 0.25258 0.90156 0.11843 0.0
C313 C 0.25039 0.89087 0.08444 0.0
C314 C 0.23288 0.86498 0.07902 0.0
H315 H 0.37377 0.20717 0.85941 0.0
H316 H 0.38609 0.229 0.97043 0.0
H317 H 0.35709 0.26294 0.89807 0.0
H318 H 0.41008 0.2086 0.90163 0.0
H319 H 0.40376 0.20543 0.94791 0.0
H320 H 0.37634 0.17351 0.85841 0.0
H321 H 0.35812 0.10112 0.89823 0.0
H322 H 0.38451 0.16431 0.9707 0.0
C323 C 0.37158 0.21693 0.88192 0.0
C324 C 0.363 0.234 0.8755 0.0
C325 C 0.37943 0.21434 0.91628 0.0
C326 C 0.37875 0.22961 0.94429 0.0
C327 C 0.37085 0.24736 0.93791 0.0
C328 C 0.36212 0.2486 0.90372 0.0
C329 C 0.39438 0.20072 0.9212 0.0
C330 C 0.37987 0.17212 0.91579 0.0
C331 C 0.37322 0.16158 0.88113 0.0
C332 C 0.36464 0.13582 0.87494 0.0
C333 C 0.36296 0.12051 0.9036 0.0
C334 C 0.37069 0.13067 0.93806 0.0
C335 C 0.37815 0.15627 0.94424 0.0
H336 H 0.87423 0.19058 0.86466 0.0
H337 H 0.87857 0.21272 0.97547 0.0
H338 H 0.91697 0.26869 0.89507 0.0
H339 H 0.86724 0.16058 0.91849 0.0
H340 H 0.86051 0.16885 0.96096 0.0
H341 H 0.83702 0.1551 0.865 0.0
H342 H 0.75935 0.11383 0.89595 0.0
H343 H 0.81705 0.15123 0.97615 0.0
C344 C 0.87994 0.20499 0.88515 0.0
C345 C 0.89521 0.23044 0.87564 0.0
C346 C 0.87285 0.19825 0.92105 0.0
C347 C 0.88262 0.21752 0.94755 0.0
C348 C 0.89873 0.24289 0.93808 0.0
C349 C 0.90435 0.24912 0.90221 0.0
C350 C 0.85841 0.17055 0.93175 0.0
C351 C 0.83048 0.15667 0.92153 0.0
C352 C 0.82299 0.14971 0.88562 0.0
C353 C 0.79735 0.1346 0.87628 0.0
C354 C 0.77909 0.12627 0.90297 0.0
C355 C 0.78601 0.13193 0.93891 0.0
C356 C 0.81169 0.14736 0.94822 0.0
H357 H 0.85564 0.65219 0.85571 0.0
H358 H 0.86237 0.64002 0.96738 0.0
H359 H 0.92793 0.67303 0.90063 0.0
H360 H 0.82013 0.61615 0.89363 0.0
H361 H 0.82196 0.61953 0.94073 0.0
H362 H 0.81932 0.6518 0.85617 0.0
H363 H 0.76456 0.66821 0.89964 0.0
H364 H 0.79945 0.63744 0.96716 0.0
C365 C 0.86716 0.6551 0.87917 0.0
C366 C 0.89338 0.66562 0.87506 0.0
C367 C 0.85572 0.64651 0.9127 0.0
C368 C 0.87105 0.64809 0.94202 0.0
C369 C 0.8972 0.65774 0.93795 0.0
C370 C 0.90816 0.66707 0.90462 0.0
C371 C 0.82712 0.6305 0.91553 0.0
C372 C 0.81286 0.64491 0.91276 0.0
C373 C 0.80989 0.6536 0.87936 0.0
C374 C 0.79309 0.66277 0.87489 0.0
C375 C 0.77888 0.66294 0.90396 0.0
C376 C 0.78063 0.65346 0.93721 0.0
C377 C 0.79828 0.6452 0.94175 0.0
H378 H 0.8257 0.66245 0.49089 0.0
H379 H 0.82318 0.68313 0.38138 0.0
H380 H 0.78095 0.69571 0.46231 0.0
H381 H 0.83393 0.64111 0.43597 0.0
H382 H 0.84118 0.65705 0.39444 0.0
H383 H 0.86342 0.66513 0.49121 0.0
H384 H 0.94138 0.70193 0.46159 0.0
H385 H 0.88462 0.68362 0.38082 0.0
C386 C 0.81999 0.67132 0.47089 0.0
C387 C 0.80349 0.67998 0.48064 0.0
C388 C 0.82792 0.67292 0.43518 0.0
C389 C 0.8183 0.68277 0.40922 0.0
C390 C 0.8011 0.69071 0.41899 0.0
C391 C 0.79426 0.68966 0.45473 0.0
C392 C 0.84281 0.66021 0.42385 0.0
C393 C 0.87056 0.67423 0.43498 0.0
C394 C 0.87764 0.6741 0.47092 0.0
C395 C 0.90321 0.68471 0.4807 0.0
C396 C 0.9217 0.69467 0.45432 0.0
C397 C 0.91514 0.69413 0.41843 0.0
C398 C 0.88964 0.68438 0.40876 0.0
H399 H 0.36574 0.1658 0.48854 0.0
H400 H 0.34352 0.14245 0.379 0.0
H401 H 0.32773 0.0872 0.46004 0.0
H402 H 0.38675 0.19505 0.43409 0.0
H403 H 0.3707 0.18634 0.39217 0.0
H404 H 0.36256 0.20042 0.48854 0.0
H405 H 0.32693 0.24277 0.45863 0.0
H406 H 0.34527 0.20463 0.3777 0.0
C407 C 0.35601 0.15114 0.46863 0.0
C408 C 0.34588 0.12576 0.47865 0.0
C409 C 0.3544 0.1575 0.43287 0.0
C410 C 0.34361 0.13794 0.40692 0.0
C411 C 0.33409 0.11262 0.41682 0.0
C412 C 0.3347 0.10674 0.45266 0.0
C413 C 0.36763 0.18504 0.42151 0.0
C414 C 0.35399 0.19918 0.4321 0.0
C415 C 0.35395 0.2061 0.46809 0.0
C416 C 0.34383 0.22145 0.47778 0.0
C417 C 0.33398 0.2302 0.45134 0.0
C418 C 0.33467 0.22447 0.41536 0.0
C419 C 0.34432 0.20865 0.40568 0.0
H420 H 0.84454 0.15008 0.49956 0.0
H421 H 0.83702 0.12999 0.38802 0.0
H422 H 0.77277 0.09459 0.45725 0.0
H423 H 0.88039 0.15059 0.46044 0.0
H424 H 0.87775 0.15165 0.41347 0.0
H425 H 0.87933 0.18654 0.49836 0.0
H426 H 0.93325 0.2579 0.45535 0.0
H427 H 0.90001 0.1919 0.38771 0.0
C428 C 0.8329 0.14052 0.47652 0.0
C429 C 0.80707 0.12341 0.48162 0.0
C430 C 0.84396 0.14356 0.44263 0.0
C431 C 0.82857 0.12882 0.41381 0.0
C432 C 0.8029 0.11079 0.41895 0.0
C433 C 0.79222 0.10907 0.45261 0.0
C434 C 0.87258 0.15728 0.43896 0.0
C435 C 0.88595 0.18597 0.4418 0.0
C436 C 0.88856 0.19775 0.4752 0.0
C437 C 0.90501 0.22381 0.47989 0.0
C438 C 0.91903 0.23826 0.45087 0.0
C439 C 0.91747 0.22698 0.41752 0.0
C440 C 0.9005 0.20088 0.41297 0.0
H441 H 0.04066 0.54038 0.19305 0.0
H442 H 0.05496 0.56141 0.30426 0.0
H443 H 0.02356 0.59501 0.23551 0.0
H444 H 0.07696 0.54057 0.23241 0.0
H445 H 0.0726 0.53832 0.27924 0.0
H446 H 0.04195 0.50545 0.1918 0.0
H447 H 0.02059 0.43272 0.23369 0.0
H448 H 0.05254 0.49748 0.30371 0.0
C449 C 0.03869 0.54986 0.21616 0.0
C450 C 0.02921 0.56635 0.21126 0.0
C451 C 0.04738 0.54723 0.24988 0.0
C452 C 0.04707 0.56215 0.27864 0.0
C453 C 0.03869 0.57966 0.27361 0.0
C454 C 0.02899 0.58085 0.24014 0.0
C455 C 0.06216 0.53337 0.25332 0.0
C456 C 0.04672 0.50475 0.249 0.0
C457 C 0.03866 0.4937 0.21484 0.0
C458 C 0.02832 0.46757 0.20953 0.0
C459 C 0.02646 0.45243 0.23854 0.0
C460 C 0.03533 0.463 0.27253 0.0
C461 C 0.04484 0.4891 0.2778 0.0
H462 H 0.54032 0.52408 0.19772 0.0
H463 H 0.54477 0.54575 0.30875 0.0
H464 H 0.58297 0.60205 0.22865 0.0
H465 H 0.53325 0.49382 0.25144 0.0
H466 H 0.52622 0.5019 0.29385 0.0
H467 H 0.5034 0.48888 0.19746 0.0
H468 H 0.42551 0.44752 0.22718 0.0
H469 H 0.48262 0.48391 0.3084 0.0
C470 C 0.54596 0.53838 0.21833 0.0
C471 C 0.56118 0.56386 0.20899 0.0
C472 C 0.53888 0.53149 0.25419 0.0
C473 C 0.54874 0.55066 0.28085 0.0
C474 C 0.56484 0.57607 0.27154 0.0
C475 C 0.57035 0.58245 0.23568 0.0
C476 C 0.52433 0.50374 0.26462 0.0
C477 C 0.49647 0.48991 0.25398 0.0
C478 C 0.48924 0.48332 0.21791 0.0
C479 C 0.46367 0.46841 0.20812 0.0
C480 C 0.4452 0.45982 0.23455 0.0
C481 C 0.45186 0.46505 0.27062 0.0
C482 C 0.47747 0.48033 0.28038 0.0
H483 H 0.52257 0.9856 0.18874 0.0
H484 H 0.53098 0.97426 0.30017 0.0
H485 H 0.59517 1.00479 0.23083 0.0
H486 H 0.48743 0.95015 0.2282 0.0
H487 H 0.49012 0.95439 0.27514 0.0
H488 H 0.48699 0.98601 0.18994 0.0
H489 H 0.43219 1.00232 0.23337 0.0
H490 H 0.46769 0.97235 0.30117 0.0
C491 C 0.53442 0.98833 0.21171 0.0
C492 C 0.56037 0.99767 0.20645 0.0
C493 C 0.52355 0.98043 0.2457 0.0
C494 C 0.53926 0.98187 0.27445 0.0
C495 C 0.5652 0.9908 0.26938 0.0
C496 C 0.5756 0.99935 0.23553 0.0
C497 C 0.49497 0.96491 0.24955 0.0
C498 C 0.48089 0.97952 0.24666 0.0
C499 C 0.47771 0.98796 0.21317 0.0
C500 C 0.4608 0.997 0.20862 0.0
C501 C 0.44664 0.99723 0.23772 0.0
C502 C 0.44857 0.98797 0.27106 0.0
C503 C 0.46639 0.97993 0.27568 0.0
H504 H 0.49283 0.99759 0.82485 0.0
H505 H 0.48969 0.01551 0.71416 0.0
H506 H 0.45088 0.03355 0.794 0.0
H507 H 0.49944 0.97402 0.77144 0.0
H508 H 0.50644 0.98862 0.72889 0.0
H509 H 0.52995 0.99778 0.82471 0.0
H510 H 0.60756 0.03415 0.79318 0.0
H511 H 0.54984 0.01571 0.71384 0.0
C512 C 0.48734 1.00635 0.80437 0.0
C513 C 0.47214 0.0167 0.81371 0.0
C514 C 0.49461 1.00652 0.76858 0.0
C515 C 0.48541 0.01632 0.74201 0.0
C516 C 0.46949 0.02591 0.75127 0.0
C517 C 0.46346 0.02647 0.78705 0.0
C518 C 0.50858 0.99271 0.75808 0.0
C519 C 0.53647 1.00649 0.76834 0.0
C520 C 0.54397 1.00653 0.80409 0.0
C521 C 0.56964 0.01708 0.81321 0.0
C522 C 0.5878 0.0269 0.78639 0.0
C523 C 0.58083 0.02627 0.75067 0.0
C524 C 0.55522 0.01652 0.74163 0.0
H525 H 0.03255 0.50169 0.82436 0.0
H526 H 1.01167 0.47917 0.71423 0.0
H527 H 0.99572 0.42336 0.79447 0.0
H528 H 0.05363 0.53171 0.77089 0.0
H529 H 0.03838 0.5231 0.72837 0.0
H530 H 0.02775 0.53546 0.82448 0.0
H531 H 0.99019 0.57579 0.79374 0.0
H532 H 1.01272 0.54099 0.71309 0.0
C533 C 0.02322 0.48717 0.80414 0.0
C534 C 1.01324 0.46174 0.81374 0.0
C535 C 0.0219 0.49379 0.76841 0.0
C536 C 1.01158 0.47445 0.74209 0.0
C537 C 1.00227 0.44909 0.7516 0.0
C538 C 1.00258 0.44294 0.78738 0.0
C539 C 0.03478 0.52144 0.75759 0.0
C540 C 0.02032 0.53482 0.76774 0.0
C541 C 0.01912 0.54094 0.80378 0.0
C542 C 1.00773 0.55516 0.81327 0.0
C543 C 0.99798 0.56384 0.78656 0.0
C544 C 0.99989 0.55902 0.75053 0.0
C545 C 1.01081 0.54428 0.74106 0.0
H546 H 0.50722 0.48298 0.82961 0.0
H547 H 0.50014 0.46167 0.71859 0.0
H548 H 0.43498 0.42999 0.78613 0.0
H549 H 0.54265 0.4813 0.79089 0.0
H550 H 0.54074 0.48353 0.74399 0.0
H551 H 0.54382 0.51724 0.83058 0.0
H552 H 0.59862 0.58897 0.78954 0.0
H553 H 0.56347 0.52432 0.71936 0.0
C554 C 0.49568 0.47387 0.80632 0.0
C555 C 0.46955 0.45801 0.81086 0.0
C556 C 0.50699 0.47615 0.77279 0.0
C557 C 0.49156 0.46156 0.7439 0.0
C558 C 0.46549 0.44487 0.74842 0.0
C559 C 0.45466 0.4439 0.78172 0.0
C560 C 0.5356 0.48896 0.76968 0.0
C561 C 0.54988 0.51761 0.77372 0.0
C562 C 0.55313 0.5288 0.80774 0.0
C563 C 0.57036 0.55459 0.81336 0.0
C564 C 0.58413 0.56949 0.78454 0.0
C565 C 0.58193 0.55879 0.75055 0.0
C566 C 0.56444 0.5329 0.74516 0.0
H567 H 0.70839 0.87346 0.52474 0.0
H568 H 0.71995 0.89371 0.63633 0.0
H569 H 0.69117 0.92851 0.56511 0.0
H570 H 0.74364 0.87325 0.5661 0.0
H571 H 0.73816 0.87077 0.61267 0.0
H572 H 0.7085 0.83824 0.52434 0.0
H573 H 0.68765 0.76547 0.56539 0.0
H574 H 0.71908 0.82981 0.63612 0.0
C575 C 0.70605 0.88294 0.54751 0.0
C576 C 0.69734 0.89998 0.54165 0.0
C577 C 0.7137 0.8799 0.58177 0.0
C578 C 0.71281 0.89473 0.61023 0.0
C579 C 0.70487 0.91251 0.60441 0.0
C580 C 0.69629 0.91418 0.5703 0.0
C581 C 0.72834 0.86594 0.58628 0.0
C582 C 0.7131 0.83732 0.58158 0.0
C583 C 0.70524 0.82643 0.54728 0.0
C584 C 0.69514 0.80037 0.54166 0.0
C585 C 0.69335 0.78512 0.57047 0.0
C586 C 0.70215 0.79553 0.60454 0.0
C587 C 0.71142 0.82155 0.61014 0.0
H588 H 0.20859 0.85685 0.53395 0.0
H589 H 0.21298 0.88033 0.6441 0.0
H590 H 0.25158 0.93524 0.5624 0.0
H591 H 0.2013 0.82745 0.58883 0.0
H592 H 0.1943 0.83627 0.6307 0.0
H593 H 0.17145 0.82205 0.53426 0.0
H594 H 0.09366 0.78031 0.56428 0.0
H595 H 0.15073 0.81829 0.6451 0.0
C596 C 0.21426 0.87147 0.55408 0.0
C597 C 0.22967 0.89676 0.54404 0.0
C598 C 0.20707 0.8652 0.59004 0.0
C599 C 0.21702 0.88479 0.61609 0.0
C600 C 0.23335 0.91 0.60608 0.0
C601 C 0.23893 0.91579 0.57007 0.0
C602 C 0.19242 0.83763 0.60135 0.0
C603 C 0.16456 0.82366 0.59069 0.0
C604 C 0.15732 0.81662 0.55472 0.0
C605 C 0.13176 0.80139 0.54506 0.0
C606 C 0.11334 0.79281 0.57153 0.0
C607 C 0.12002 0.79855 0.6075 0.0
C608 C 0.14558 0.81429 0.61712 0.0
H609 H 0.18964 0.31888 0.52165 0.0
H610 H 0.19699 0.30672 0.63312 0.0
H611 H 0.2621 0.33941 0.56551 0.0
H612 H 0.1542 0.28317 0.56003 0.0
H613 H 0.15641 0.28662 0.60712 0.0
H614 H 0.15413 0.3197 0.52306 0.0
H615 H 0.09891 0.33537 0.56665 0.0
H616 H 0.13333 0.30383 0.63356 0.0
C617 C 0.20129 0.32182 0.54497 0.0
C618 C 0.22746 0.33219 0.54048 0.0
C619 C 0.19005 0.31337 0.57865 0.0
C620 C 0.20553 0.31479 0.60769 0.0
C621 C 0.23161 0.32423 0.60321 0.0
C622 C 0.24239 0.33358 0.5698 0.0
C623 C 0.16144 0.29755 0.58189 0.0
C624 C 0.14726 0.31208 0.57944 0.0
C625 C 0.14453 0.3212 0.54625 0.0
C626 C 0.12769 0.33033 0.54189 0.0
C627 C 0.11325 0.33012 0.5709 0.0
C628 C 0.11477 0.32025 0.60394 0.0
C629 C 0.13239 0.31194 0.60835 0.0
C630 C 0.04112 0.4544 0.11533 0.0
C631 C 0.01923 0.43138 0.10638 0.0
C632 C 0.04329 0.46672 0.14791 0.0
C633 C 0.02373 0.45647 0.17301 0.0
H634 H 0.057 0.46285 0.09729 0.0
H635 H 0.06089 0.48384 0.15412 0.0
S636 S 0.96184 0.39768 0.16218 0.0
N637 N 0.97699 0.39956 0.12489 0.0
N638 N 0.98126 0.42278 0.18626 0.0
C639 C 1.00141 0.43397 0.16408 0.0
C640 C 0.99909 0.42145 0.13074 0.0
C641 C 0.59733 0.57523 0.12278 0.0
C642 C 0.59389 0.59397 0.10612 0.0
C643 C 0.58532 0.56423 0.15503 0.0
C644 C 0.56959 0.57171 0.17189 0.0
H645 H 0.60973 0.56927 0.11117 0.0
H646 H 0.58925 0.55064 0.16765 0.0
S647 S 0.55296 0.61867 0.13896 0.0
N648 N 0.57234 0.61845 0.10859 0.0
N649 N 0.55012 0.59786 0.16919 0.0
C650 C 0.56527 0.5897 0.1551 0.0
C651 C 0.57732 0.6008 0.12223 0.0
C652 C 0.43614 0.98537 0.11349 0.0
C653 C 0.43395 1.00679 0.10605 0.0
C654 C 0.44618 0.98302 0.14599 0.0
C655 C 0.4543 1.00193 0.17248 0.0
H656 H 0.42965 0.96998 0.09431 0.0
H657 H 0.44657 0.96577 0.15099 0.0
S658 S 0.4544 0.06251 0.16592 0.0
N659 N 0.44214 0.04797 0.12753 0.0
N660 N 0.46087 0.04334 0.18871 0.0
C661 C 0.45306 0.02381 0.1651 0.0
C662 C 0.44297 0.02632 0.13188 0.0
C663 C 0.43536 0.99083 0.89918 0.0
C664 C 0.43814 0.01271 0.91634 0.0
C665 C 0.44773 0.99233 0.86698 0.0
C666 C 0.46317 0.01574 0.85066 0.0
H667 H 0.42321 0.97232 0.91033 0.0
H668 H 0.44431 0.975 0.85399 0.0
S669 S 0.47819 0.07876 0.88516 0.0
N670 N 0.45882 0.05873 0.91499 0.0
N671 N 0.48173 0.06127 0.85452 0.0
C672 C 0.46683 0.03777 0.86798 0.0
C673 C 0.45442 0.03634 0.90079 0.0
C674 C 0.99479 0.42483 0.89984 0.0
C675 C 0.01824 0.43216 0.91644 0.0
C676 C 0.99331 0.43547 0.86753 0.0
C677 C 1.01516 0.45411 0.85063 0.0
H678 H 0.97736 0.41022 0.91133 0.0
H679 H 0.97493 0.42857 0.85513 0.0
S680 S 0.08107 0.48115 0.8834 0.0
N681 N 0.06386 0.46026 0.91393 0.0
N682 N 0.06086 0.48014 0.8531 0.0
C683 C 0.03865 0.46235 0.86737 0.0
C684 C 0.04024 0.45139 0.90023 0.0
C685 C 0.58809 0.60047 0.89149 0.0
C686 C 0.59758 0.59035 0.91691 0.0
C687 C 0.57837 0.58831 0.85853 0.0
C688 C 0.57741 0.56539 0.84998 0.0
H689 H 0.58883 0.6183 0.89659 0.0
H690 H 0.57202 0.59714 0.83926 0.0
S691 S 0.59879 0.53032 0.90749 0.0
N692 N 0.60441 0.55536 0.93152 0.0
N693 N 0.58637 0.53281 0.86959 0.0
C694 C 0.58611 0.55467 0.87547 0.0
C695 C 0.59614 0.56707 0.9089 0.0
C696 C 0.03246 0.58987 0.9014 0.0
C697 C 1.01045 0.58693 0.91785 0.0
C698 C 0.0313 0.57829 0.86845 0.0
C699 C 1.00813 0.56351 0.85059 0.0
H700 H 0.05084 0.60155 0.91374 0.0
H701 H 0.04877 0.5818 0.85615 0.0
S702 S 0.94485 0.54836 0.88269 0.0
N703 N 0.96454 0.56683 0.91419 0.0
N704 N 0.96261 0.54534 0.85222 0.0
C705 C 0.98593 0.55968 0.86713 0.0
C706 C 0.98702 0.57129 0.90076 0.0
C707 C 0.45612 0.43422 0.90584 0.0
C708 C 0.43297 0.43306 0.91332 0.0
C709 C 0.46854 0.4437 0.87344 0.0
C710 C 0.45827 0.45226 0.84703 0.0
H711 H 0.46458 0.42734 0.92493 0.0
H712 H 0.48578 0.44327 0.86842 0.0
S713 S 0.39911 0.4549 0.85373 0.0
N714 N 0.40098 0.44263 0.89202 0.0
N715 N 0.42437 0.46027 0.83096 0.0
C716 C 0.43563 0.45204 0.85447 0.0
C717 C 0.42301 0.44255 0.88765 0.0
C718 C 0.58207 0.99206 0.89876 0.0
C719 C 0.60102 0.01419 0.91576 0.0
C720 C 0.57076 0.99317 0.86659 0.0
C721 C 0.57811 0.01642 0.85012 0.0
H722 H 0.57614 0.97367 0.91009 0.0
H723 H 0.55695 0.97567 0.85375 0.0
S724 S 0.62561 0.07993 0.884 0.0
N725 N 0.62564 0.06023 0.91398 0.0
N726 N 0.60444 0.06205 0.85356 0.0
C727 C 0.59637 0.03868 0.86722 0.0
C728 C 0.60779 0.03764 0.90001 0.0
C729 C 0.60662 0.02643 0.12989 0.0
C730 C 0.59705 1.00677 0.10426 0.0
C731 C 0.59405 0.02386 0.16224 0.0
C732 C 0.57123 1.00169 0.17002 0.0
H733 H 0.62436 0.04368 0.12547 0.0
H734 H 0.60255 0.03909 0.18174 0.0
S735 S 0.5374 0.94508 0.11149 0.0
N736 N 0.56257 0.96471 0.08849 0.0
N737 N 0.53928 0.95996 0.14927 0.0
C738 C 0.561 0.98225 0.14422 0.0
C739 C 0.57382 0.98476 0.1114 0.0
C740 C 0.03949 0.58971 0.11612 0.0
C741 C 0.0177 0.59127 0.1085 0.0
C742 C 0.0424 0.58024 0.14866 0.0
C743 C 0.0237 0.57208 0.175 0.0
H744 H 0.05474 0.5963 0.09707 0.0
H745 H 0.05992 0.58035 0.15384 0.0
S746 S 0.96234 0.57038 0.16789 0.0
N747 N 0.97641 0.58239 0.12959 0.0
N748 N 0.9821 0.56473 0.19087 0.0
C749 C 1.00145 0.57264 0.1674 0.0
C750 C 0.99837 0.58215 0.13414 0.0
C751 C 0.42634 0.45149 0.1214 0.0
C752 C 0.4339 0.43597 0.10373 0.0
C753 C 0.43691 0.46286 0.15443 0.0
C754 C 0.45572 0.45949 0.17088 0.0
H755 H 0.41157 0.45433 0.11021 0.0
H756 H 0.42988 0.47392 0.16766 0.0
S757 S 0.48338 0.422 0.13526 0.0
N758 N 0.46238 0.41885 0.10474 0.0
N759 N 0.48214 0.44031 0.16683 0.0
C760 C 0.46418 0.44485 0.15307 0.0
C761 C 0.45327 0.43304 0.11954 0.0
C762 C 0.7086 0.78767 0.44759 0.0
C763 C 0.68685 0.76459 0.43843 0.0
C764 C 0.71049 0.7999 0.48017 0.0
C765 C 0.69078 0.78948 0.50504 0.0
H766 H 0.72459 0.79623 0.42974 0.0
H767 H 0.728 0.81706 0.48659 0.0
S768 S 0.62914 0.73051 0.49354 0.0
N769 N 0.64456 0.73257 0.45646 0.0
N770 N 0.64832 0.75561 0.5178 0.0
C771 C 0.66859 0.76695 0.49585 0.0
C772 C 0.66655 0.75452 0.46254 0.0
C773 C 0.26773 0.90976 0.45951 0.0
C774 C 0.26158 0.9259 0.44057 0.0
C775 C 0.25609 0.89895 0.49203 0.0
C776 C 0.23795 0.90394 0.50681 0.0
H777 H 0.28205 0.90582 0.44959 0.0
H778 H 0.2621 0.88751 0.50646 0.0
S779 S 0.21365 0.94323 0.46762 0.0
N780 N 0.23478 0.94498 0.43871 0.0
N781 N 0.21339 0.92485 0.49994 0.0
C782 C 0.23095 0.91922 0.48783 0.0
C783 C 0.24262 0.93013 0.45468 0.0
C784 C 0.1037 0.31989 0.44653 0.0
C785 C 0.10148 0.34137 0.43966 0.0
C786 C 0.11358 0.31718 0.47893 0.0
C787 C 0.12151 0.33576 0.50587 0.0
H788 H 0.09733 0.30474 0.42698 0.0
H789 H 0.11396 0.29988 0.4835 0.0
S790 S 0.1215 0.39634 0.50085 0.0
N791 N 0.10947 0.38226 0.46213 0.0
N792 N 0.12791 0.37694 0.52313 0.0
C793 C 0.12028 0.35771 0.49905 0.0
C794 C 0.11035 0.36059 0.46592 0.0
C795 C 0.10252 0.32615 0.23282 0.0
C796 C 0.10544 0.34808 0.25 0.0
C797 C 0.11464 0.32756 0.20045 0.0
C798 C 0.12996 0.35091 0.18395 0.0
H799 H 0.09044 0.30766 0.24411 0.0
H800 H 0.11111 0.31017 0.18748 0.0
S801 S 0.14532 0.41404 0.21842 0.0
N802 N 0.12614 0.39409 0.24849 0.0
N803 N 0.14861 0.39646 0.18766 0.0
C804 C 0.13379 0.373 0.20127 0.0
C805 C 0.12162 0.37166 0.23428 0.0
C806 C 0.66307 0.75715 0.23167 0.0
C807 C 0.68653 0.76475 0.24844 0.0
C808 C 0.66153 0.76766 0.19928 0.0
C809 C 0.68332 0.78644 0.18243 0.0
H810 H 0.64569 0.74243 0.24311 0.0
H811 H 0.64314 0.76056 0.18678 0.0
S812 S 0.74921 0.81423 0.21563 0.0
N813 N 0.73208 0.79327 0.24614 0.0
N814 N 0.72896 0.81292 0.18514 0.0
C815 C 0.7068 0.79496 0.19932 0.0
C816 C 0.70847 0.78412 0.23228 0.0
C817 C 0.25585 0.93254 0.22528 0.0
C818 C 0.26517 0.92246 0.251 0.0
C819 C 0.24644 0.9204 0.19222 0.0
C820 C 0.24563 0.89752 0.18385 0.0
H821 H 0.25649 0.95034 0.23023 0.0
H822 H 0.24019 0.9292 0.17275 0.0
S823 S 0.26663 0.86253 0.2422 0.0
N824 N 0.27199 0.88754 0.2661 0.0
N825 N 0.25452 0.865 0.204 0.0
C826 C 0.25416 0.88683 0.20964 0.0
C827 C 0.26388 0.89922 0.24317 0.0
C828 C 0.65828 0.90692 0.23119 0.0
C829 C 0.68158 0.92233 0.24866 0.0
C830 C 0.65705 0.89536 0.19825 0.0
C831 C 0.679 0.89839 0.18177 0.0
H832 H 0.64086 0.90436 0.24247 0.0
H833 H 0.63883 0.88442 0.18512 0.0
S834 S 0.7445 0.93541 0.21698 0.0
N835 N 0.72708 0.93896 0.24749 0.0
N836 N 0.72458 0.9171 0.18558 0.0
C837 C 0.7023 0.91292 0.1994 0.0
C838 C 0.70364 0.92494 0.2328 0.0
C839 C 0.09392 0.77379 0.2255 0.0
C840 C 0.10379 0.76428 0.25126 0.0
C841 C 0.10593 0.78275 0.19257 0.0
C842 C 0.12847 0.78292 0.18439 0.0
H843 H 0.07634 0.77358 0.23027 0.0
H844 H 0.09723 0.78908 0.17302 0.0
S845 S 0.16293 0.76138 0.24311 0.0
N846 N 0.13826 0.75675 0.26672 0.0
N847 N 0.16052 0.77335 0.20491 0.0
C848 C 0.13901 0.77429 0.2103 0.0
C849 C 0.12675 0.76503 0.24368 0.0
C850 C 0.27175 0.36677 0.2332 0.0
C851 C 0.26435 0.34335 0.24946 0.0
C852 C 0.26093 0.36819 0.20088 0.0
C853 C 0.24204 0.34632 0.18364 0.0
H854 H 0.28653 0.3842 0.245 0.0
H855 H 0.26785 0.38654 0.18876 0.0
S856 S 0.21478 0.2805 0.21539 0.0
N857 N 0.23597 0.29776 0.24622 0.0
N858 N 0.21573 0.30065 0.18538 0.0
C859 C 0.23376 0.32288 0.2 0.0
C860 C 0.24492 0.32134 0.23286 0.0
C861 C 0.24159 0.32039 0.44626 0.0
C862 C 0.26482 0.34227 0.43879 0.0
C863 C 0.22885 0.31796 0.4783 0.0
C864 C 0.23886 0.33723 0.50436 0.0
H865 H 0.2333 0.30471 0.42746 0.0
H866 H 0.2116 0.30035 0.48337 0.0
S867 S 0.29804 0.39901 0.49745 0.0
N868 N 0.29655 0.38422 0.45968 0.0
N869 N 0.27257 0.37946 0.52002 0.0
C870 C 0.26155 0.35956 0.49686 0.0
C871 C 0.2745 0.36215 0.46407 0.0
C872 C 0.6683 0.91612 0.46351 0.0
C873 C 0.68783 0.92566 0.43819 0.0
C874 C 0.67105 0.90683 0.49641 0.0
C875 C 0.69325 0.90636 0.50497 0.0
H876 H 0.65105 0.91655 0.45842 0.0
H877 H 0.65594 0.90049 0.51565 0.0
S878 S 0.74949 0.92781 0.44752 0.0
N879 N 0.72975 0.93289 0.42355 0.0
N880 N 0.73483 0.91562 0.48536 0.0
C881 C 0.71255 0.915 0.47951 0.0
C882 C 0.70986 0.92461 0.44615 0.0
C883 C 0.09444 0.78388 0.4583 0.0
C884 C 0.10199 0.76821 0.44103 0.0
C885 C 0.10499 0.79547 0.49123 0.0
C886 C 0.1238 0.79219 0.50793 0.0
H887 H 0.07969 0.78666 0.44687 0.0
H888 H 0.09798 0.80663 0.50418 0.0
S889 S 0.1514 0.75441 0.47332 0.0
N890 N 0.1304 0.75104 0.44265 0.0
N891 N 0.15018 0.77295 0.50453 0.0
C892 C 0.13222 0.77739 0.49051 0.0
C893 C 0.12131 0.76534 0.45711 0.0
C894 C 0.33712 0.09052 0.79597 0.0
C895 C 0.35707 0.10053 0.77132 0.0
C896 C 0.33926 0.1026 0.82887 0.0
C897 C 0.36126 0.12535 0.83814 0.0
H898 H 0.31998 0.0728 0.79036 0.0
H899 H 0.3238 0.0938 0.84756 0.0
S900 S 0.41846 0.16022 0.7826 0.0
N901 N 0.39921 0.13533 0.75808 0.0
N902 N 0.40313 0.15774 0.81987 0.0
C903 C 0.38099 0.13602 0.81334 0.0
C904 C 0.37893 0.12368 0.77998 0.0
C905 C 0.93154 0.2419 0.78953 0.0
C906 C 0.92811 0.26065 0.77286 0.0
C907 C 0.91945 0.23083 0.82173 0.0
C908 C 0.90361 0.2382 0.8385 0.0
H909 H 0.94404 0.23603 0.77804 0.0
H910 H 0.92343 0.21728 0.8344 0.0
S911 S 0.88673 0.28493 0.80537 0.0
N912 N 0.90629 0.28488 0.77515 0.0
N913 N 0.88392 0.26415 0.83559 0.0
C914 C 0.89923 0.25613 0.82163 0.0
C915 C 0.91137 0.26733 0.78886 0.0
C916 C 0.76839 0.65166 0.77986 0.0
C917 C 0.76671 0.67338 0.77254 0.0
C918 C 0.77831 0.64904 0.81229 0.0
C919 C 0.78677 0.66795 0.83882 0.0
H920 H 0.76162 0.63629 0.76061 0.0
H921 H 0.77834 0.63159 0.81722 0.0
S922 S 0.7881 0.72914 0.83261 0.0
N923 N 0.77567 0.71477 0.79418 0.0
N924 N 0.79412 0.7096 0.85528 0.0
C925 C 0.786 0.69009 0.83158 0.0
C926 C 0.77607 0.69289 0.79841 0.0
C927 C 0.75966 0.65564 0.55953 0.0
C928 C 0.77022 0.67651 0.58325 0.0
C929 C 0.77135 0.65633 0.52708 0.0
C930 C 0.79415 0.67773 0.51742 0.0
H931 H 0.74181 0.63892 0.56547 0.0
H932 H 0.76206 0.64038 0.50884 0.0
S933 S 0.83079 0.73652 0.57042 0.0
N934 N 0.80587 0.71872 0.59517 0.0
N935 N 0.82754 0.71972 0.53405 0.0
C936 C 0.80544 0.6983 0.54116 0.0
C937 C 0.79356 0.69775 0.57413 0.0
C938 C 0.32845 0.08992 0.56569 0.0
C939 C 0.35209 0.09734 0.58171 0.0
C940 C 0.32659 0.10014 0.53319 0.0
C941 C 0.34825 0.11845 0.51555 0.0
H942 H 0.31115 0.07556 0.57779 0.0
H943 H 0.30806 0.0932 0.52127 0.0
S944 S 0.41456 0.14556 0.54663 0.0
N945 N 0.39768 0.12515 0.57785 0.0
N946 N 0.39399 0.14427 0.5167 0.0
C947 C 0.37194 0.12677 0.53169 0.0
C948 C 0.37391 0.11621 0.56472 0.0
C949 C 0.92935 0.23683 0.57517 0.0
C950 C 0.93153 0.26043 0.583 0.0
C951 C 0.91944 0.22449 0.54249 0.0
C952 C 0.91142 0.2353 0.51618 0.0
H953 H 0.93577 0.2279 0.59419 0.0
H954 H 0.91909 0.20685 0.53723 0.0
S955 S 0.91143 0.29584 0.52374 0.0
N956 N 0.92351 0.29349 0.5621 0.0
N957 N 0.90498 0.2702 0.50053 0.0
C958 C 0.91266 0.25843 0.52394 0.0
C959 C 0.92263 0.27099 0.55738 0.0
C960 C 0.32461 0.23916 0.56435 0.0
C961 C 0.34795 0.2547 0.58165 0.0
C962 C 0.32334 0.22749 0.53149 0.0
C963 C 0.34528 0.23058 0.5149 0.0
H964 H 0.3072 0.23656 0.57567 0.0
H965 H 0.3051 0.21645 0.51847 0.0
S966 S 0.41086 0.26788 0.54973 0.0
N967 N 0.39347 0.27147 0.58027 0.0
N968 N 0.39088 0.24942 0.51849 0.0
C969 C 0.36861 0.24521 0.5324 0.0
C970 C 0.37 0.25733 0.56574 0.0
C971 C 0.76058 0.10703 0.55772 0.0
C972 C 0.77025 0.09757 0.58387 0.0
C973 C 0.77315 0.11639 0.52525 0.0
C974 C 0.79606 0.11707 0.51795 0.0
H975 H 0.74276 0.10644 0.56182 0.0
H976 H 0.7646 0.12263 0.50532 0.0
S977 S 0.83017 0.09596 0.57806 0.0
N978 N 0.8049 0.09066 0.6007 0.0
N979 N 0.82823 0.1081 0.53974 0.0
C980 C 0.80639 0.10854 0.54429 0.0
C981 C 0.79355 0.09882 0.57719 0.0
C982 C 0.91465 0.65951 0.56688 0.0
C983 C 0.93348 0.6816 0.58413 0.0
C984 C 0.90369 0.66068 0.5344 0.0
C985 C 0.91125 0.68396 0.51787 0.0
H986 H 0.9086 0.64109 0.5782 0.0
H987 H 0.89 0.64321 0.52138 0.0
S988 S 0.95838 0.74741 0.5524 0.0
N989 N 0.9581 0.72766 0.58254 0.0
N990 N 0.93754 0.72958 0.52158 0.0
C991 C 0.92933 0.70618 0.53524 0.0
C992 C 0.94041 0.70508 0.56832 0.0
C993 C 0.90814 0.65457 0.78077 0.0
C994 C 0.9314 0.67654 0.77371 0.0
C995 C 0.89522 0.65185 0.81273 0.0
C996 C 0.90505 0.67091 0.8391 0.0
H997 H 0.89997 0.63904 0.76172 0.0
H998 H 0.87795 0.63418 0.81747 0.0
S999 S 0.96417 0.73283 0.83331 0.0
N1000 N 0.96294 0.71835 0.79536 0.0
N1001 N 0.93859 0.71305 0.85549 0.0
C1002 C 0.92776 0.69332 0.83202 0.0
C1003 C 0.94091 0.6962 0.79934 0.0
C1004 C 0.33438 0.24979 0.79652 0.0
C1005 C 0.354 0.25907 0.77134 0.0
C1006 C 0.33696 0.24067 0.82966 0.0
C1007 C 0.35905 0.2401 0.8386 0.0
H1008 H 0.31722 0.25031 0.79113 0.0
H1009 H 0.3218 0.23455 0.84879 0.0
S1010 S 0.41541 0.26085 0.78163 0.0
N1011 N 0.39586 0.26595 0.75723 0.0
N1012 N 0.40061 0.24897 0.81949 0.0
C1013 C 0.37842 0.24847 0.81328 0.0
C1014 C 0.37592 0.25793 0.77969 0.0
C1015 C 0.75962 0.11649 0.78984 0.0
C1016 C 0.76701 0.10061 0.7728 0.0
C1017 C 0.77034 0.12832 0.82259 0.0
C1018 C 0.78916 0.12509 0.83932 0.0
H1019 H 0.7449 0.11928 0.77834 0.0
H1020 H 0.76346 0.13966 0.83535 0.0
S1021 S 0.8163 0.08671 0.80537 0.0
N1022 N 0.79523 0.08322 0.77475 0.0
N1023 N 0.81532 0.10558 0.83627 0.0
C1024 C 0.79739 0.11003 0.82216 0.0
C1025 C 0.7863 0.09773 0.78896 0.0
C1026 C 0.08241 0.35988 0.03268 0.0
C1027 C 0.0916 0.38577 0.02647 0.0
C1028 C 0.09783 0.35146 0.04822 0.0
C1029 C 0.12304 0.36854 0.05785 0.0
H1030 H 0.06275 0.34612 0.02749 0.0
H1031 H 0.08946 0.33167 0.05506 0.0
S1032 S 0.15739 0.43767 0.04372 0.0
N1033 N 0.12863 0.42808 0.02813 0.0
N1034 N 0.1572 0.41199 0.05774 0.0
C1035 C 0.13303 0.39411 0.04958 0.0
C1036 C 0.11743 0.40278 0.03369 0.0
C1037 C 0.6696 0.72732 0.03338 0.0
C1038 C 0.64376 0.71148 0.02525 0.0
C1039 C 0.6785 0.75125 0.04905 0.0
C1040 C 0.66199 0.76035 0.05689 0.0
H1041 H 0.68286 0.72065 0.02962 0.0
H1042 H 0.69814 0.76199 0.05737 0.0
S1043 S 0.59341 0.72812 0.03714 0.0
N1044 N 0.60225 0.70806 0.02304 0.0
N1045 N 0.61926 0.75297 0.05287 0.0
C1046 C 0.63658 0.74569 0.04659 0.0
C1047 C 0.62741 0.72129 0.0306 0.0
C1048 C 0.3089 0.9125 0.02869 0.0
C1049 C 0.31765 0.9385 0.02439 0.0
C1050 C 0.28571 0.89649 0.04509 0.0
C1051 C 0.27029 0.90582 0.05779 0.0
H1052 H 0.32072 0.90464 0.02138 0.0
H1053 H 0.28083 0.87715 0.05032 0.0
S1054 S 0.28191 0.9711 0.047 0.0
N1055 N 0.30712 0.97192 0.02967 0.0
N1056 N 0.26354 0.94174 0.06035 0.0
C1057 C 0.27764 0.93117 0.05068 0.0
C1058 C 0.30128 0.94752 0.03401 0.0
C1059 C 0.36437 0.07307 0.98514 0.0
C1060 C 0.3892 0.08163 -0.00261 0.0
C1061 C 0.35769 0.08966 0.96906 0.0
C1062 C 0.37555 0.11545 0.96461 0.0
H1063 H 0.35033 0.05316 0.98593 0.0
H1064 H 0.33883 0.08191 0.95792 0.0
S1065 S 0.44206 0.14814 -0.00304 0.0
N1066 N 0.43081 0.11833 0.00817 0.0
N1067 N 0.41842 0.1492 0.9772 0.0
C1068 C 0.39979 0.12464 0.97956 0.0
C1069 C 0.40658 0.1078 0.99607 0.0
C1070 C 0.9533 0.29547 0.98819 0.0
C1071 C 0.94459 0.31255 0.99482 0.0
C1072 C 0.93731 0.27145 0.97323 0.0
C1073 C 0.91199 0.2635 0.96463 0.0
H1074 H 0.97298 0.30119 0.99258 0.0
H1075 H 0.9453 0.25972 0.96596 0.0
S1076 S 0.8788 0.29934 0.98032 0.0
N1077 N 0.90794 0.31844 0.99475 0.0
N1078 N 0.87829 0.27342 0.96622 0.0
C1079 C 0.90251 0.27949 0.9734 0.0
C1080 C 0.9187 0.30396 0.98868 0.0
C1081 C 0.73083 0.66048 0.98777 0.0
C1082 C 0.71385 0.63549 -0.00184 0.0
C1083 C 0.75374 0.66676 0.97105 0.0
C1084 C 0.76066 0.64835 0.96402 0.0
H1085 H 0.72578 0.67505 0.99062 0.0
H1086 H 0.76543 0.68589 0.96153 0.0
S1087 S 0.72465 0.58092 0.99033 0.0
N1088 N 0.70714 0.59287 0.00407 0.0
N1089 N 0.74978 0.6046 0.97194 0.0
C1090 C 0.74489 0.62379 0.97693 0.0
C1091 C 0.72159 0.61738 0.99411 0.0
C1092 C 0.91915 0.62119 0.99406 0.0
C1093 C 0.9451 0.63857 -0.00104 0.0
C1094 C 0.90306 0.62825 0.97738 0.0
C1095 C 0.91223 0.65301 0.96505 0.0
H1096 H 0.91142 0.6015 0.00099 0.0
H1097 H 0.88379 0.61366 0.97158 0.0
S1098 S 0.97726 0.70704 0.9781 0.0
N1099 N 0.97829 0.68266 0.99504 0.0
N1100 N 0.94789 0.6959 0.96396 0.0
C1101 C 0.9375 0.67118 0.973 0.0
C1102 C 0.95396 0.66398 0.9899 0.0
C1103 C 0.36436 0.29913 0.98422 0.0
C1104 C 0.38938 0.31623 0.995 0.0
C1105 C 0.35783 0.27558 0.96886 0.0
C1106 C 0.37602 0.26813 0.96372 0.0
H1107 H 0.34998 0.30451 0.98564 0.0
H1108 H 0.33873 0.26376 0.95885 0.0
S1109 S 0.44335 0.30432 0.99207 0.0
N1110 N 0.43173 0.3226 0.0035 0.0
N1111 N 0.41956 0.27873 0.97395 0.0
C1112 C 0.40058 0.28411 0.97713 0.0
C1113 C 0.40724 0.30807 0.99286 0.0
C1114 C 0.72441 0.10971 0.98667 0.0
C1115 C 0.71822 0.08521 -0.0024 0.0
C1116 C 0.74769 0.12602 0.97065 0.0
C1117 C 0.76592 0.11871 0.96569 0.0
H1118 H 0.71055 0.1158 0.98827 0.0
H1119 H 0.75082 0.14381 0.96 0.0
S1120 S 0.76072 0.05817 0.99335 0.0
N1121 N 0.7335 0.05557 0.00515 0.0
N1122 N 0.77728 0.08643 0.97539 0.0
C1123 C 0.76085 0.09517 0.97886 0.0
C1124 C 0.73702 0.07838 0.99477 0.0
C1125 C 0.67136 0.94687 0.03202 0.0
C1126 C 0.64572 0.93783 0.02359 0.0
C1127 C 0.67927 0.93113 0.04777 0.0
C1128 C 0.66191 0.90573 0.05543 0.0
H1129 H 0.68526 0.96662 0.02838 0.0
H1130 H 0.69881 0.93935 0.05627 0.0
S1131 S 0.59335 0.87175 0.03519 0.0
N1132 N 0.60343 0.90082 0.02112 0.0
N1133 N 0.61854 0.87163 0.05113 0.0
C1134 C 0.63665 0.89594 0.04497 0.0
C1135 C 0.62851 0.91188 0.02887 0.0
C1136 C 0.11078 0.71619 0.03082 0.0
C1137 C 0.08473 0.70739 0.02669 0.0
C1138 C 0.12708 0.73976 0.04665 0.0
C1139 C 0.11801 0.75554 0.05892 0.0
H1140 H 0.11848 0.70417 0.02384 0.0
H1141 H 0.14649 0.74472 0.05181 0.0
S1142 S 0.05263 0.74381 0.04804 0.0
N1143 N 0.05146 0.71813 0.03145 0.0
N1144 N 0.08221 0.76247 0.06107 0.0
C1145 C 0.09257 0.74808 0.05189 0.0
C1146 C 0.07591 0.72402 0.0358 0.0
C1147 C 0.29958 0.36057 0.0339 0.0
C1148 C 0.31466 0.38637 0.02555 0.0
C1149 C 0.27593 0.35131 0.05007 0.0
C1150 C 0.26633 0.36738 0.05817 0.0
H1151 H 0.30667 0.34766 0.0299 0.0
H1152 H 0.26582 0.33176 0.05846 0.0
S1153 S 0.29642 0.43557 0.03805 0.0
N1154 N 0.31676 0.42729 0.0235 0.0
N1155 N 0.27238 0.4096 0.05419 0.0
C1156 C 0.28019 0.39269 0.0477 0.0
C1157 C 0.30432 0.40224 0.03124 0.0
C1158 C 0.74746 0.69101 0.36947 0.0
C1159 C 0.75777 0.71666 0.36046 0.0
C1160 C 0.76236 0.68216 0.38545 0.0
C1161 C 0.7882 0.69849 0.39264 0.0
H1162 H 0.72741 0.67791 0.36616 0.0
H1163 H 0.75327 0.66273 0.39434 0.0
S1164 S 0.82529 0.76642 0.37058 0.0
N1165 N 0.79629 0.7577 0.35689 0.0
N1166 N 0.824 0.74079 0.38713 0.0
C1167 C 0.79919 0.72364 0.38153 0.0
C1168 C 0.78406 0.73277 0.36533 0.0
C1169 C 0.292 0.05043 0.37058 0.0
C1170 C 0.30945 0.04308 0.35947 0.0
C1171 C 0.30012 0.07426 0.38616 0.0
C1172 C 0.32595 0.09183 0.39044 0.0
H1173 H 0.27188 0.0371 0.36949 0.0
H1174 H 0.28614 0.07836 0.39704 0.0
S1175 S 0.37933 0.08354 0.3619 0.0
N1176 N 0.35388 0.05654 0.35088 0.0
N1177 N 0.36894 0.10136 0.37986 0.0
C1178 C 0.34356 0.08557 0.37704 0.0
C1179 C 0.33537 0.06121 0.36157 0.0
C1180 C 0.9764 0.24813 0.3629 0.0
C1181 C 0.98505 0.27404 0.35772 0.0
C1182 C 0.95315 0.23229 0.37923 0.0
C1183 C 0.93755 0.24167 0.39096 0.0
H1184 H 0.98834 0.24027 0.35638 0.0
H1185 H 0.94835 0.21307 0.38519 0.0
S1186 S 0.94885 0.30663 0.37735 0.0
N1187 N 0.97426 0.30735 0.36097 0.0
N1188 N 0.93052 0.27746 0.39145 0.0
C1189 C 0.9448 0.26687 0.38288 0.0
C1190 C 0.96853 0.28307 0.36632 0.0
C1191 C 0.0713 0.44006 0.3282 0.0
C1192 C 0.05379 0.41406 0.33169 0.0
C1193 C 0.06444 0.45649 0.31223 0.0
C1194 C 0.03977 0.44762 0.2992 0.0
H1195 H 0.09093 0.44758 0.33571 0.0
H1196 H 0.07912 0.47581 0.30747 0.0
S1197 S 0.98547 0.38256 0.30853 0.0
N1198 N 1.00966 0.38112 0.32572 0.0
N1199 N 0.99682 0.41214 0.29592 0.0
C1200 C 0.02147 0.42228 0.30577 0.0
C1201 C 0.02845 0.40548 0.32197 0.0
C1202 C 0.61987 0.62808 0.32161 0.0
C1203 C 0.61165 0.64558 0.32791 0.0
C1204 C 0.60352 0.60406 0.30688 0.0
C1205 C 0.57831 0.59657 0.29817 0.0
H1206 H 0.63946 0.63343 0.32605 0.0
H1207 H 0.61115 0.59199 0.29979 0.0
S1208 S 0.54633 0.63365 0.31318 0.0
N1209 N 0.57556 0.65237 0.32755 0.0
N1210 N 0.54523 0.60738 0.29941 0.0
C1211 C 0.56931 0.613 0.30668 0.0
C1212 C 0.58586 0.63745 0.32174 0.0
C1213 C 0.39829 0.99433 0.32144 0.0
C1214 C 0.38164 0.96933 0.3321 0.0
C1215 C 0.42127 1.00087 0.30468 0.0
C1216 C 0.42855 0.9827 0.29788 0.0
H1217 H 0.39294 1.0087 0.32411 0.0
H1218 H 0.4327 0.01998 0.29497 0.0
S1219 S 0.39347 0.91539 0.32494 0.0
N1220 N 0.37563 0.92701 0.33852 0.0
N1221 N 0.41835 0.93919 0.3063 0.0
C1222 C 0.4131 0.95816 0.31105 0.0
C1223 C 0.38975 0.9515 0.32828 0.0
C1224 C 0.58732 0.95416 0.32502 0.0
C1225 C 0.61337 0.97138 0.32932 0.0
C1226 C 0.57119 0.96133 0.30869 0.0
C1227 C 0.58044 0.98603 0.29607 0.0
H1228 H 0.5795 0.93451 0.33225 0.0
H1229 H 0.55179 0.94685 0.3034 0.0
S1230 S 0.64586 0.03966 0.30721 0.0
N1231 N 0.64681 0.01529 0.32433 0.0
N1232 N 0.61636 0.02869 0.29382 0.0
C1233 C 0.60586 1.00404 0.3033 0.0
C1234 C 0.62235 0.99675 0.31989 0.0
C1235 C 0.03231 0.63063 0.32252 0.0
C1236 C 0.05742 0.64781 0.33277 0.0
C1237 C 0.02577 0.60727 0.30651 0.0
C1238 C 0.04406 0.60013 0.30007 0.0
H1239 H 0.01781 0.63581 0.32488 0.0
H1240 H 1.00654 0.59539 0.29699 0.0
S1241 S 0.11176 0.63662 0.32658 0.0
N1242 N 0.10004 0.65454 0.33942 0.0
N1243 N 0.08785 0.61107 0.30856 0.0
C1244 C 0.06876 0.61616 0.31296 0.0
C1245 C 0.07542 0.6399 0.32943 0.0
C1246 C 0.38971 0.44225 0.31712 0.0
C1247 C 0.38363 0.41782 0.3282 0.0
C1248 C 0.41309 0.45871 0.30146 0.0
C1249 C 0.43152 0.45163 0.29703 0.0
H1250 H 0.37573 0.44819 0.31837 0.0
H1251 H 0.41615 0.47645 0.29071 0.0
S1252 S 0.42665 0.39133 0.32521 0.0
N1253 N 0.39922 0.38846 0.33642 0.0
N1254 N 0.44317 0.41962 0.30732 0.0
C1255 C 0.42654 0.42814 0.31032 0.0
C1256 C 0.40262 0.4112 0.32587 0.0
C1257 C 0.33638 0.27864 0.36572 0.0
C1258 C 0.31061 0.26962 0.35831 0.0
C1259 C 0.34453 0.26292 0.38088 0.0
C1260 C 0.32728 0.23755 0.38891 0.0
H1261 H 0.35024 0.29837 0.36181 0.0
H1262 H 0.3642 0.27113 0.38872 0.0
S1263 S 0.25841 0.2036 0.37101 0.0
N1264 N 0.26828 0.23264 0.35699 0.0
N1265 N 0.28383 0.20348 0.38589 0.0
C1266 C 0.30186 0.22777 0.37936 0.0
C1267 C 0.29347 0.24369 0.36388 0.0
C1268 C 0.74628 0.05878 0.36949 0.0
C1269 C 0.75521 0.04259 0.35844 0.0
C1270 C 0.76243 0.08213 0.38611 0.0
C1271 C 0.78815 0.09025 0.39235 0.0
H1272 H 0.72637 0.05278 0.36725 0.0
H1273 H 0.75438 0.09323 0.39614 0.0
S1274 S 0.82174 0.05658 0.36403 0.0
N1275 N 0.79222 0.03788 0.35095 0.0
N1276 N 0.82225 0.08128 0.38299 0.0
C1277 C 0.79774 0.07522 0.37876 0.0
C1278 C 0.78134 0.05151 0.36167 0.0
C1279 C 0.96848 0.69435 0.36842 0.0
C1280 C 0.984 0.72009 0.36005 0.0
C1281 C 0.94475 0.68548 0.3842 0.0
C1282 C 0.93552 0.70193 0.3919 0.0
H1283 H 0.97527 0.68117 0.36475 0.0
H1284 H 0.93429 0.66596 0.39266 0.0
S1285 S 0.96687 0.77017 0.37162 0.0
N1286 N 0.98692 0.76137 0.35756 0.0
N1287 N 0.94242 0.74445 0.38758 0.0
C1288 C 0.94985 0.7272 0.38143 0.0
C1289 C 0.97404 0.73633 0.36534 0.0
C1290 C 0.4162 0.02511 0.69945 0.0
C1291 C 0.42573 0.05092 0.69218 0.0
C1292 C 0.43144 0.01664 0.71541 0.0
C1293 C 0.45682 0.03358 0.72444 0.0
H1294 H 0.39644 0.0115 0.69472 0.0
H1295 H 0.42285 0.99697 0.72299 0.0
S1296 S 0.49197 0.1024 0.70771 0.0
N1297 N 0.46318 0.09295 0.69236 0.0
N1298 N 0.49144 0.07678 0.72274 0.0
C1299 C 0.46711 0.05902 0.71517 0.0
C1300 C 0.45168 0.06775 0.69886 0.0
C1301 C 0.96066 0.38718 0.70456 0.0
C1302 C 0.97818 0.37976 0.69413 0.0
C1303 C 0.96865 0.41101 0.72007 0.0
C1304 C 0.99445 0.42849 0.72497 0.0
H1305 H 0.94054 0.37391 0.70298 0.0
H1306 H 0.95458 0.41514 0.73046 0.0
S1307 S 0.04806 0.42003 0.69828 0.0
N1308 N 0.02269 0.3931 0.68677 0.0
N1309 N 0.03752 0.43789 0.71567 0.0
C1310 C 1.01217 0.42218 0.71223 0.0
C1311 C 1.00409 0.39782 0.6968 0.0
C1312 C 0.64055 0.58014 0.69531 0.0
C1313 C 0.64947 0.60618 0.69106 0.0
C1314 C 0.61726 0.56422 0.71146 0.0
C1315 C 0.6019 0.57368 0.72399 0.0
H1316 H 0.65231 0.57219 0.68814 0.0
H1317 H 0.61224 0.54484 0.71669 0.0
S1318 S 0.61396 0.63911 0.71307 0.0
N1319 N 0.63918 0.63978 0.69605 0.0
N1320 N 0.59539 0.60976 0.72633 0.0
C1321 C 0.60942 0.59907 0.71687 0.0
C1322 C 0.63317 0.61533 0.70042 0.0
C1323 C 0.73846 0.77234 0.65889 0.0
C1324 C 0.72092 0.74636 0.66243 0.0
C1325 C 0.73153 0.78886 0.6434 0.0
C1326 C 0.70676 0.78008 0.63087 0.0
H1327 H 0.75814 0.77981 0.66608 0.0
H1328 H 0.74619 0.80818 0.6386 0.0
S1329 S 0.65245 0.71505 0.6403 0.0
N1330 N 0.67673 0.71351 0.65693 0.0
N1331 N 0.66378 0.74467 0.62793 0.0
C1332 C 0.68848 0.75474 0.63741 0.0
C1333 C 0.69553 0.73786 0.65315 0.0
C1334 C 0.28848 0.96289 0.6551 0.0
C1335 C 0.27966 0.97975 0.66276 0.0
C1336 C 0.27246 0.93893 0.63999 0.0
C1337 C 0.24698 0.9308 0.63228 0.0
H1338 H 0.30826 0.96874 0.6588 0.0
H1339 H 0.28049 0.92737 0.63201 0.0
S1340 S 0.2135 0.966 0.65079 0.0
N1341 N 0.24278 0.98523 0.66455 0.0
N1342 N 0.21304 0.9403 0.63578 0.0
C1343 C 0.23741 0.94656 0.64202 0.0
C1344 C 0.25365 0.97098 0.65744 0.0
C1345 C 0.06468 0.32678 0.65452 0.0
C1346 C 0.04753 0.30166 0.66416 0.0
C1347 C 0.08772 0.33321 0.63805 0.0
C1348 C 0.09459 0.31482 0.63054 0.0
H1349 H 0.0597 0.34138 0.65778 0.0
H1350 H 0.09955 0.35246 0.62909 0.0
S1351 S 0.05811 0.24703 0.65485 0.0
N1352 N 0.04056 0.25888 0.66884 0.0
N1353 N 0.08345 0.27091 0.63721 0.0
C1354 C 0.07861 0.29009 0.6427 0.0
C1355 C 0.05518 0.28353 0.6596 0.0
C1356 C 0.2536 0.28699 0.65763 0.0
C1357 C 0.27959 0.30426 0.66244 0.0
C1358 C 0.23749 0.2943 0.64161 0.0
C1359 C 0.2467 0.31919 0.62983 0.0
H1360 H 0.24584 0.26723 0.66416 0.0
H1361 H 0.21817 0.27982 0.63583 0.0
S1362 S 0.31188 0.37292 0.64284 0.0
N1363 N 0.31288 0.34834 0.65903 0.0
N1364 N 0.28247 0.36202 0.62911 0.0
C1365 C 0.27202 0.33721 0.63768 0.0
C1366 C 0.2885 0.32977 0.65394 0.0
C1367 C 0.69775 0.96337 0.65236 0.0
C1368 C 0.72263 0.98031 0.66386 0.0
C1369 C 0.69144 0.94012 0.6362 0.0
C1370 C 0.70973 0.93282 0.63089 0.0
H1371 H 0.68332 0.9687 0.65385 0.0
H1372 H 0.67245 0.92845 0.6257 0.0
S1373 S 0.77674 0.96862 0.66081 0.0
N1374 N 0.76493 0.98662 0.67282 0.0
N1375 N 0.75318 0.94334 0.64172 0.0
C1376 C 0.73413 0.94859 0.64499 0.0
C1377 C 0.74055 0.97223 0.66158 0.0
C1378 C 0.0687 0.74443 0.65845 0.0
C1379 C 0.05151 0.75294 0.66529 0.0
C1380 C 0.09233 0.76037 0.643 0.0
C1381 C 0.09974 0.78544 0.63404 0.0
H1382 H 0.06336 0.72491 0.66313 0.0
H1383 H 0.10415 0.75249 0.63572 0.0
S1384 S 0.06338 0.81807 0.64974 0.0
N1385 N 0.04494 0.78918 0.66478 0.0
N1386 N 0.08918 0.8187 0.63532 0.0
C1387 C 0.08364 0.79474 0.64286 0.0
C1388 C 0.05959 0.77862 0.65869 0.0
C1389 C 0.95954 0.5806 0.70328 0.0
C1390 C 0.9775 0.6053 0.69271 0.0
C1391 C 0.96697 0.56448 0.71898 0.0
C1392 C 0.99263 0.57219 0.72397 0.0
H1393 H 0.93952 0.57418 0.70164 0.0
H1394 H 0.95256 0.5465 0.72938 0.0
S1395 S 0.04721 0.63342 0.69713 0.0
N1396 N 0.02226 0.6356 0.68546 0.0
N1397 N 0.03602 0.60508 0.71465 0.0
C1398 C 1.01077 0.59596 0.71113 0.0
C1399 C 1.00327 0.61255 0.69553 0.0
C1400 C 0.44413 0.38512 0.69449 0.0
C1401 C 0.41809 0.37604 0.68959 0.0
C1402 C 0.46001 0.40874 0.71044 0.0
C1403 C 0.45053 0.42431 0.72204 0.0
H1404 H 0.45213 0.37327 0.68808 0.0
H1405 H 0.47939 0.41388 0.71626 0.0
S1406 S 0.38506 0.41188 0.70874 0.0
N1407 N 0.38442 0.3863 0.69276 0.0
N1408 N 0.41441 0.43081 0.7225 0.0
C1409 C 0.42513 0.41661 0.71412 0.0
C1410 C 0.40888 0.39247 0.69795 0.0
C1411 C 0.63378 0.02663 0.69945 0.0
C1412 C 0.64931 0.05242 0.69139 0.0
C1413 C 0.6101 0.01769 0.71545 0.0
C1414 C 0.60094 0.03412 0.72368 0.0
H1415 H 0.64053 0.01345 0.69541 0.0
H1416 H 0.59966 0.99812 0.72372 0.0
S1417 S 0.63234 0.1025 0.70434 0.0
N1418 N 0.6523 0.09374 0.68973 0.0
N1419 N 0.60791 0.0767 0.72016 0.0
C1420 C 0.61526 0.05945 0.71348 0.0
C1421 C 0.6394 0.06865 0.69716 0.0
loop_
_geom_bond_atom_site_label_1
_geom_bond_atom_site_label_2
_geom_bond_distance
_geom_bond_site_symmetry_2
_ccdc_geom_bond_type
O0 Cd1 2.223 . S
O0 C8 1.315 . S
Cd1 O0 2.223 . S
Cd1 O4 2.297 . S
Cd1 O5 2.439 . S
Cd1 O11 2.240 1_554 S
Cd2 O3 2.240 . S
Cd2 O10 2.223 1_554 S
Cd2 O12 2.297 1_554 S
Cd2 O13 2.439 1_554 S
O3 Cd2 2.240 . S
O3 C8 1.279 1_655 S
O4 Cd1 2.297 . S
O4 C6 1.247 . S
O5 Cd1 2.439 . S
O5 C6 1.208 . S
C6 O4 1.247 . S
C6 O5 1.208 . S
C7 O12 1.247 . S
C7 O13 1.208 . S
C8 O0 1.315 . S
C8 O3 1.279 1_455 S
C9 O10 1.315 . S
C9 O11 1.279 1_655 S
O10 Cd2 2.223 1_556 S
O10 C9 1.315 . S
O11 Cd1 2.240 1_556 S
O11 C9 1.279 1_455 S
O12 Cd2 2.297 1_556 S
O12 C7 1.247 . S
O13 Cd2 2.439 1_556 S
O13 C7 1.208 . S
O14 Cd15 2.223 . S
O14 C22 1.315 . S
Cd15 O14 2.223 . S
Cd15 O18 2.297 . S
Cd15 O19 2.439 . S
Cd15 O25 2.240 1_554 S
Cd16 O17 2.240 . S
Cd16 O24 2.223 1_554 S
Cd16 O26 2.297 1_554 S
Cd16 O27 2.439 1_554 S
O17 Cd16 2.240 . S
O17 C22 1.279 . S
O18 Cd15 2.297 . S
O18 C20 1.247 . S
O19 Cd15 2.439 . S
O19 C20 1.208 . S
C20 O18 1.247 . S
C20 O19 1.208 . S
C21 O26 1.247 . S
C21 O27 1.208 . S
C22 O14 1.315 . S
C22 O17 1.279 . S
C23 O24 1.315 . S
C23 O25 1.279 . S
O24 Cd16 2.223 1_556 S
O24 C23 1.315 . S
O25 Cd15 2.240 1_556 S
O25 C23 1.279 . S
O26 Cd16 2.297 1_556 S
O26 C21 1.247 . S
O27 Cd16 2.439 1_556 S
O27 C21 1.208 . S
O28 Cd29 2.223 1_556 S
O28 C36 1.315 . S
Cd29 O28 2.223 1_554 S
Cd29 O32 2.297 1_554 S
Cd29 O33 2.439 1_554 S
Cd29 O39 2.240 . S
Cd30 O31 2.240 1_554 S
Cd30 O38 2.223 . S
Cd30 O40 2.297 . S
Cd30 O41 2.439 . S
O31 Cd30 2.240 1_556 S
O31 C36 1.279 1_565 S
O32 Cd29 2.297 1_556 S
O32 C34 1.247 . S
O33 Cd29 2.439 1_556 S
O33 C34 1.208 . S
C34 O32 1.247 . S
C34 O33 1.208 . S
C35 O40 1.247 . S
C35 O41 1.208 . S
C36 O28 1.315 . S
C36 O31 1.279 1_545 S
C37 O38 1.315 . S
C37 O39 1.279 1_565 S
O38 Cd30 2.223 . S
O38 C37 1.315 . S
O39 Cd29 2.240 . S
O39 C37 1.279 1_545 S
O40 Cd30 2.297 . S
O40 C35 1.247 . S
O41 Cd30 2.439 . S
O41 C35 1.208 . S
O42 Cd43 2.223 1_556 S
O42 C50 1.315 . S
Cd43 O42 2.223 1_554 S
Cd43 O46 2.297 1_554 S
Cd43 O47 2.439 1_554 S
Cd43 O53 2.240 . S
Cd44 O45 2.240 1_554 S
Cd44 O52 2.223 . S
Cd44 O54 2.297 . S
Cd44 O55 2.439 . S
O45 Cd44 2.240 1_556 S
O45 C50 1.279 1_455 S
O46 Cd43 2.297 1_556 S
O46 C48 1.247 . S
O47 Cd43 2.439 1_556 S
O47 C48 1.208 . S
C48 O46 1.247 . S
C48 O47 1.208 . S
C49 O54 1.247 . S
C49 O55 1.208 . S
C50 O42 1.315 . S
C50 O45 1.279 1_655 S
C51 O52 1.315 . S
C51 O53 1.279 1_455 S
O52 Cd44 2.223 . S
O52 C51 1.315 . S
O53 Cd43 2.240 . S
O53 C51 1.279 1_655 S
O54 Cd44 2.297 . S
O54 C49 1.247 . S
O55 Cd44 2.439 . S
O55 C49 1.208 . S
O56 Cd57 2.223 1_556 S
O56 C64 1.315 . S
Cd57 O56 2.223 1_554 S
Cd57 O60 2.297 1_554 S
Cd57 O61 2.439 1_554 S
Cd57 O67 2.240 . S
Cd58 O59 2.240 1_554 S
Cd58 O66 2.223 . S
Cd58 O68 2.297 . S
Cd58 O69 2.439 . S
O59 Cd58 2.240 1_556 S
O59 C64 1.279 . S
O60 Cd57 2.297 1_556 S
O60 C62 1.247 . S
O61 Cd57 2.439 1_556 S
O61 C62 1.208 . S
C62 O60 1.247 . S
C62 O61 1.208 . S
C63 O68 1.247 . S
C63 O69 1.208 . S
C64 O56 1.315 . S
C64 O59 1.279 . S
C65 O66 1.315 . S
C65 O67 1.279 . S
O66 Cd58 2.223 . S
O66 C65 1.315 . S
O67 Cd57 2.240 . S
O67 C65 1.279 . S
O68 Cd58 2.297 . S
O68 C63 1.247 . S
O69 Cd58 2.439 . S
O69 C63 1.208 . S
O70 Cd71 2.223 . S
O70 C78 1.315 . S
Cd71 O70 2.223 . S
Cd71 O74 2.297 . S
Cd71 O75 2.439 . S
Cd71 O81 2.240 1_554 S
Cd72 O73 2.240 . S
Cd72 O80 2.223 1_554 S
Cd72 O82 2.297 1_554 S
Cd72 O83 2.439 1_554 S
O73 Cd72 2.240 . S
O73 C78 1.279 1_545 S
O74 Cd71 2.297 . S
O74 C76 1.247 . S
O75 Cd71 2.439 . S
O75 C76 1.208 . S
C76 O74 1.247 . S
C76 O75 1.208 . S
C77 O82 1.247 . S
C77 O83 1.208 . S
C78 O70 1.315 . S
C78 O73 1.279 1_565 S
C79 O80 1.315 . S
C79 O81 1.279 1_545 S
O80 Cd72 2.223 1_556 S
O80 C79 1.315 . S
O81 Cd71 2.240 1_556 S
O81 C79 1.279 1_565 S
O82 Cd72 2.297 1_556 S
O82 C77 1.247 . S
O83 Cd72 2.439 1_556 S
O83 C77 1.208 . S
O84 Cd85 2.223 . S
O84 C92 1.315 . S
Cd85 O84 2.223 . S
Cd85 O88 2.297 . S
Cd85 O89 2.439 . S
Cd85 O95 2.240 . S
Cd86 O87 2.240 . S
Cd86 O94 2.223 . S
Cd86 O96 2.297 . S
Cd86 O97 2.439 . S
O87 Cd86 2.240 . S
O87 C92 1.279 . S
O88 Cd85 2.297 . S
O88 C90 1.247 . S
O89 Cd85 2.439 . S
O89 C90 1.208 . S
C90 O88 1.247 . S
C90 O89 1.208 . S
C91 O96 1.247 . S
C91 O97 1.208 . S
C92 O84 1.315 . S
C92 O87 1.279 . S
C93 O94 1.315 . S
C93 O95 1.279 . S
O94 Cd86 2.223 . S
O94 C93 1.315 . S
O95 Cd85 2.240 . S
O95 C93 1.279 . S
O96 Cd86 2.297 . S
O96 C91 1.247 . S
O97 Cd86 2.439 . S
O97 C91 1.208 . S
O98 Cd99 2.223 . S
O98 C106 1.315 . S
Cd99 O98 2.223 . S
Cd99 O102 2.297 1_565 S
Cd99 O103 2.439 1_565 S
Cd99 O109 2.240 . S
Cd100 O101 2.240 . S
Cd100 O108 2.223 . S
Cd100 O110 2.297 . S
Cd100 O111 2.439 . S
O101 Cd100 2.240 . S
O101 C106 1.279 . S
O102 Cd99 2.297 1_545 S
O102 C104 1.247 . S
O103 Cd99 2.439 1_545 S
O103 C104 1.208 . S
C104 O102 1.247 . S
C104 O103 1.208 . S
C105 O110 1.247 . S
C105 O111 1.208 . S
C106 O98 1.315 . S
C106 O101 1.279 . S
C107 O108 1.315 . S
C107 O109 1.279 . S
O108 Cd100 2.223 . S
O108 C107 1.315 . S
O109 Cd99 2.240 . S
O109 C107 1.279 . S
O110 Cd100 2.297 . S
O110 C105 1.247 . S
O111 Cd100 2.439 . S
O111 C105 1.208 . S
O112 Cd113 2.223 . S
O112 C120 1.315 . S
Cd113 O112 2.223 . S
Cd113 O116 2.297 . S
Cd113 O117 2.439 . S
Cd113 O123 2.240 . S
Cd114 O115 2.240 . S
Cd114 O122 2.223 . S
Cd114 O124 2.297 1_455 S
Cd114 O125 2.439 1_455 S
O115 Cd114 2.240 . S
O115 C120 1.279 . S
O116 Cd113 2.297 . S
O116 C118 1.247 . S
O117 Cd113 2.439 . S
O117 C118 1.208 . S
C118 O116 1.247 . S
C118 O117 1.208 . S
C119 O124 1.247 . S
C119 O125 1.208 . S
C120 O112 1.315 . S
C120 O115 1.279 . S
C121 O122 1.315 . S
C121 O123 1.279 . S
O122 Cd114 2.223 . S
O122 C121 1.315 . S
O123 Cd113 2.240 . S
O123 C121 1.279 . S
O124 Cd114 2.297 1_655 S
O124 C119 1.247 . S
O125 Cd114 2.439 1_655 S
O125 C119 1.208 . S
O126 Cd127 2.223 . S
O126 C134 1.315 . S
Cd127 O126 2.223 . S
Cd127 O130 2.297 . S
Cd127 O131 2.439 . S
Cd127 O137 2.240 . S
Cd128 O129 2.240 . S
Cd128 O136 2.223 . S
Cd128 O138 2.297 1_565 S
Cd128 O139 2.439 1_565 S
O129 Cd128 2.240 . S
O129 C134 1.279 . S
O130 Cd127 2.297 . S
O130 C132 1.247 . S
O131 Cd127 2.439 . S
O131 C132 1.208 . S
C132 O130 1.247 . S
C132 O131 1.208 . S
C133 O138 1.247 . S
C133 O139 1.208 . S
C134 O126 1.315 . S
C134 O129 1.279 . S
C135 O136 1.315 . S
C135 O137 1.279 . S
O136 Cd128 2.223 . S
O136 C135 1.315 . S
O137 Cd127 2.240 . S
O137 C135 1.279 . S
O138 Cd128 2.297 1_545 S
O138 C133 1.247 . S
O139 Cd128 2.439 1_545 S
O139 C133 1.208 . S
O140 Cd141 2.223 . S
O140 C148 1.315 . S
Cd141 O140 2.223 . S
Cd141 O144 2.297 . S
Cd141 O145 2.439 . S
Cd141 O151 2.240 . S
Cd142 O143 2.240 . S
Cd142 O150 2.223 . S
Cd142 O152 2.297 1_455 S
Cd142 O153 2.439 1_455 S
O143 Cd142 2.240 . S
O143 C148 1.279 . S
O144 Cd141 2.297 . S
O144 C146 1.247 . S
O145 Cd141 2.439 . S
O145 C146 1.208 . S
C146 O144 1.247 . S
C146 O145 1.208 . S
C147 O152 1.247 . S
C147 O153 1.208 . S
C148 O140 1.315 . S
C148 O143 1.279 . S
C149 O150 1.315 . S
C149 O151 1.279 . S
O150 Cd142 2.223 . S
O150 C149 1.315 . S
O151 Cd141 2.240 . S
O151 C149 1.279 . S
O152 Cd142 2.297 1_655 S
O152 C147 1.247 . S
O153 Cd142 2.439 1_655 S
O153 C147 1.208 . S
O154 Cd155 2.223 . S
O154 C162 1.315 . S
Cd155 O154 2.223 . S
Cd155 O158 2.297 . S
Cd155 O159 2.439 . S
Cd155 O165 2.240 . S
Cd156 O157 2.240 . S
Cd156 O164 2.223 . S
Cd156 O166 2.297 . S
Cd156 O167 2.439 . S
O157 Cd156 2.240 . S
O157 C162 1.279 . S
O158 Cd155 2.297 . S
O158 C160 1.247 . S
O159 Cd155 2.439 . S
O159 C160 1.208 . S
C160 O158 1.247 . S
C160 O159 1.208 . S
C161 O166 1.247 . S
C161 O167 1.208 . S
C162 O154 1.315 . S
C162 O157 1.279 . S
C163 O164 1.315 . S
C163 O165 1.279 . S
O164 Cd156 2.223 . S
O164 C163 1.315 . S
O165 Cd155 2.240 . S
O165 C163 1.279 . S
O166 Cd156 2.297 . S
O166 C161 1.247 . S
O167 Cd156 2.439 . S
O167 C161 1.208 . S
O168 Cd169 2.223 . S
O168 C176 1.315 . S
Cd169 O168 2.223 . S
Cd169 O172 2.297 . S
Cd169 O173 2.439 . S
Cd169 O179 2.240 . S
Cd170 O171 2.240 . S
Cd170 O178 2.223 . S
Cd170 O180 2.297 1_545 S
Cd170 O181 2.439 1_545 S
O171 Cd170 2.240 . S
O171 C176 1.279 . S
O172 Cd169 2.297 . S
O172 C174 1.247 . S
O173 Cd169 2.439 . S
O173 C174 1.208 . S
C174 O172 1.247 . S
C174 O173 1.208 . S
C175 O180 1.247 . S
C175 O181 1.208 . S
C176 O168 1.315 . S
C176 O171 1.279 . S
C177 O178 1.315 . S
C177 O179 1.279 . S
O178 Cd170 2.223 . S
O178 C177 1.315 . S
O179 Cd169 2.240 . S
O179 C177 1.279 . S
O180 Cd170 2.297 1_565 S
O180 C175 1.247 . S
O181 Cd170 2.439 1_565 S
O181 C175 1.208 . S
O182 Cd183 2.223 . S
O182 C190 1.315 . S
Cd183 O182 2.223 . S
Cd183 O186 2.297 . S
Cd183 O187 2.439 . S
Cd183 O193 2.240 . S
Cd184 O185 2.240 . S
Cd184 O192 2.223 . S
Cd184 O194 2.297 1_655 S
Cd184 O195 2.439 1_655 S
O185 Cd184 2.240 . S
O185 C190 1.279 . S
O186 Cd183 2.297 . S
O186 C188 1.247 . S
O187 Cd183 2.439 . S
O187 C188 1.208 . S
C188 O186 1.247 . S
C188 O187 1.208 . S
C189 O194 1.247 . S
C189 O195 1.208 . S
C190 O182 1.315 . S
C190 O185 1.279 . S
C191 O192 1.315 . S
C191 O193 1.279 . S
O192 Cd184 2.223 . S
O192 C191 1.315 . S
O193 Cd183 2.240 . S
O193 C191 1.279 . S
O194 Cd184 2.297 1_455 S
O194 C189 1.247 . S
O195 Cd184 2.439 1_455 S
O195 C189 1.208 . S
O196 Cd197 2.223 . S
O196 C204 1.315 . S
Cd197 O196 2.223 . S
Cd197 O200 2.297 . S
Cd197 O201 2.439 . S
Cd197 O207 2.240 . S
Cd198 O199 2.240 . S
Cd198 O206 2.223 . S
Cd198 O208 2.297 . S
Cd198 O209 2.439 . S
O199 Cd198 2.240 . S
O199 C204 1.279 . S
O200 Cd197 2.297 . S
O200 C202 1.247 . S
O201 Cd197 2.439 . S
O201 C202 1.208 . S
C202 O200 1.247 . S
C202 O201 1.208 . S
C203 O208 1.247 . S
C203 O209 1.208 . S
C204 O196 1.315 . S
C204 O199 1.279 . S
C205 O206 1.315 . S
C205 O207 1.279 . S
O206 Cd198 2.223 . S
O206 C205 1.315 . S
O207 Cd197 2.240 . S
O207 C205 1.279 . S
O208 Cd198 2.297 . S
O208 C203 1.247 . S
O209 Cd198 2.439 . S
O209 C203 1.208 . S
O210 Cd211 2.223 . S
O210 C218 1.315 . S
Cd211 O210 2.223 . S
Cd211 O214 2.297 . S
Cd211 O215 2.439 . S
Cd211 O221 2.240 . S
Cd212 O213 2.240 . S
Cd212 O220 2.223 . S
Cd212 O222 2.297 . S
Cd212 O223 2.439 . S
O213 Cd212 2.240 . S
O213 C218 1.279 . S
O214 Cd211 2.297 . S
O214 C216 1.247 . S
O215 Cd211 2.439 . S
O215 C216 1.208 . S
C216 O214 1.247 . S
C216 O215 1.208 . S
C217 O222 1.247 . S
C217 O223 1.208 . S
C218 O210 1.315 . S
C218 O213 1.279 . S
C219 O220 1.315 . S
C219 O221 1.279 . S
O220 Cd212 2.223 . S
O220 C219 1.315 . S
O221 Cd211 2.240 . S
O221 C219 1.279 . S
O222 Cd212 2.297 . S
O222 C217 1.247 . S
O223 Cd212 2.439 . S
O223 C217 1.208 . S
O224 Cd225 2.223 . S
O224 C232 1.315 . S
Cd225 O224 2.223 . S
Cd225 O228 2.297 1_545 S
Cd225 O229 2.439 1_545 S
Cd225 O235 2.240 . S
Cd226 O227 2.240 . S
Cd226 O234 2.223 . S
Cd226 O236 2.297 . S
Cd226 O237 2.439 . S
O227 Cd226 2.240 . S
O227 C232 1.279 . S
O228 Cd225 2.297 1_565 S
O228 C230 1.247 . S
O229 Cd225 2.439 1_565 S
O229 C230 1.208 . S
C230 O228 1.247 . S
C230 O229 1.208 . S
C231 O236 1.247 . S
C231 O237 1.208 . S
C232 O224 1.315 . S
C232 O227 1.279 . S
C233 O234 1.315 . S
C233 O235 1.279 . S
O234 Cd226 2.223 . S
O234 C233 1.315 . S
O235 Cd225 2.240 . S
O235 C233 1.279 . S
O236 Cd226 2.297 . S
O236 C231 1.247 . S
O237 Cd226 2.439 . S
O237 C231 1.208 . S
O238 Cd239 2.223 . S
O238 C246 1.315 . S
Cd239 O238 2.223 . S
Cd239 O242 2.297 . S
Cd239 O243 2.439 . S
Cd239 O249 2.240 . S
Cd240 O241 2.240 . S
Cd240 O248 2.223 . S
Cd240 O250 2.297 1_655 S
Cd240 O251 2.439 1_655 S
O241 Cd240 2.240 . S
O241 C246 1.279 . S
O242 Cd239 2.297 . S
O242 C244 1.247 . S
O243 Cd239 2.439 . S
O243 C244 1.208 . S
C244 O242 1.247 . S
C244 O243 1.208 . S
C245 O250 1.247 . S
C245 O251 1.208 . S
C246 O238 1.315 . S
C246 O241 1.279 . S
C247 O248 1.315 . S
C247 O249 1.279 . S
O248 Cd240 2.223 . S
O248 C247 1.315 . S
O249 Cd239 2.240 . S
O249 C247 1.279 . S
O250 Cd240 2.297 1_455 S
O250 C245 1.247 . S
O251 Cd240 2.439 1_455 S
O251 C245 1.208 . S
H252 C260 0.930 . S
H253 C263 0.930 . S
H254 C265 0.930 . S
H255 C266 0.970 . S
H256 C266 0.970 . S
H257 C268 0.930 . S
H258 C270 0.930 . S
H259 C272 0.930 . S
C260 H252 0.930 . S
C260 C261 1.382 . S
C260 C262 1.426 . S
C261 C260 1.382 . S
C261 C265 1.389 . S
C262 C260 1.426 . S
C262 C263 1.375 . S
C262 C266 1.532 . S
C263 H253 0.930 . S
C263 C262 1.375 . S
C263 C264 1.416 . S
C264 C263 1.416 . S
C264 C265 1.371 . S
C265 H254 0.930 . S
C265 C261 1.389 . S
C265 C264 1.371 . S
C266 H255 0.970 . S
C266 H256 0.970 . S
C266 C262 1.532 . S
C266 C267 1.499 . S
C267 C266 1.499 . S
C267 C268 1.370 . S
C267 C272 1.415 . S
C268 H257 0.930 . S
C268 C267 1.370 . S
C268 C269 1.407 . S
C269 C268 1.407 . S
C269 C270 1.365 . S
C270 H258 0.930 . S
C270 C269 1.365 . S
C270 C271 1.393 . S
C271 C270 1.393 . S
C271 C272 1.387 . S
C272 H259 0.930 . S
C272 C267 1.415 . S
C272 C271 1.387 . S
H273 C281 0.930 . S
H274 C284 0.930 . S
H275 C286 0.930 . S
H276 C287 0.970 . S
H277 C287 0.970 . S
H278 C289 0.930 . S
H279 C291 0.930 . S
H280 C293 0.930 . S
C281 H273 0.930 . S
C281 C282 1.382 . S
C281 C283 1.426 . S
C282 C281 1.382 . S
C282 C286 1.389 . S
C283 C281 1.426 . S
C283 C284 1.375 . S
C283 C287 1.532 . S
C284 H274 0.930 . S
C284 C283 1.375 . S
C284 C285 1.416 . S
C285 C284 1.416 . S
C285 C286 1.371 . S
C286 H275 0.930 . S
C286 C282 1.389 . S
C286 C285 1.371 . S
C287 H276 0.970 . S
C287 H277 0.970 . S
C287 C283 1.532 . S
C287 C288 1.499 . S
C288 C287 1.499 . S
C288 C289 1.370 . S
C288 C293 1.415 . S
C289 H278 0.930 . S
C289 C288 1.370 . S
C289 C290 1.407 . S
C290 C289 1.407 . S
C290 C291 1.365 . S
C291 H279 0.930 . S
C291 C290 1.365 . S
C291 C292 1.393 . S
C292 C291 1.393 . S
C292 C293 1.387 . S
C293 H280 0.930 . S
C293 C288 1.415 . S
C293 C292 1.387 . S
H294 C302 0.930 . S
H295 C305 0.930 . S
H296 C307 0.930 . S
H297 C308 0.970 . S
H298 C308 0.970 . S
H299 C310 0.930 . S
H300 C312 0.930 . S
H301 C314 0.930 . S
C302 H294 0.930 . S
C302 C303 1.382 . S
C302 C304 1.426 . S
C303 C302 1.382 . S
C303 C307 1.389 . S
C304 C302 1.426 . S
C304 C305 1.375 . S
C304 C308 1.532 . S
C305 H295 0.930 . S
C305 C304 1.375 . S
C305 C306 1.416 . S
C306 C305 1.416 . S
C306 C307 1.371 . S
C307 H296 0.930 . S
C307 C303 1.389 . S
C307 C306 1.371 . S
C308 H297 0.970 . S
C308 H298 0.970 . S
C308 C304 1.532 . S
C308 C309 1.499 . S
C309 C308 1.499 . S
C309 C310 1.370 . S
C309 C314 1.415 . S
C310 H299 0.930 . S
C310 C309 1.370 . S
C310 C311 1.407 . S
C311 C310 1.407 . S
C311 C312 1.365 . S
C312 H300 0.930 . S
C312 C311 1.365 . S
C312 C313 1.393 . S
C313 C312 1.393 . S
C313 C314 1.387 . S
C314 H301 0.930 . S
C314 C309 1.415 . S
C314 C313 1.387 . S
H315 C323 0.930 . S
H316 C326 0.930 . S
H317 C328 0.930 . S
H318 C329 0.970 . S
H319 C329 0.970 . S
H320 C331 0.930 . S
H321 C333 0.930 . S
H322 C335 0.930 . S
C323 H315 0.930 . S
C323 C324 1.382 . S
C323 C325 1.426 . S
C324 C323 1.382 . S
C324 C328 1.389 . S
C325 C323 1.426 . S
C325 C326 1.375 . S
C325 C329 1.532 . S
C326 H316 0.930 . S
C326 C325 1.375 . S
C326 C327 1.416 . S
C327 C326 1.416 . S
C327 C328 1.371 . S
C328 H317 0.930 . S
C328 C324 1.389 . S
C328 C327 1.371 . S
C329 H318 0.970 . S
C329 H319 0.970 . S
C329 C325 1.532 . S
C329 C330 1.499 . S
C330 C329 1.499 . S
C330 C331 1.370 . S
C330 C335 1.415 . S
C331 H320 0.930 . S
C331 C330 1.370 . S
C331 C332 1.407 . S
C332 C331 1.407 . S
C332 C333 1.365 . S
C333 H321 0.930 . S
C333 C332 1.365 . S
C333 C334 1.393 . S
C334 C333 1.393 . S
C334 C335 1.387 . S
C335 H322 0.930 . S
C335 C330 1.415 . S
C335 C334 1.387 . S
H336 C344 0.930 . S
H337 C347 0.930 . S
H338 C349 0.930 . S
H339 C350 0.970 . S
H340 C350 0.970 . S
H341 C352 0.930 . S
H342 C354 0.930 . S
H343 C356 0.930 . S
C344 H336 0.930 . S
C344 C345 1.382 . S
C344 C346 1.426 . S
C345 C344 1.382 . S
C345 C349 1.389 . S
C346 C344 1.426 . S
C346 C347 1.375 . S
C346 C350 1.532 . S
C347 H337 0.930 . S
C347 C346 1.375 . S
C347 C348 1.416 . S
C348 C347 1.416 . S
C348 C349 1.371 . S
C349 H338 0.930 . S
C349 C345 1.389 . S
C349 C348 1.371 . S
C350 H339 0.970 . S
C350 H340 0.970 . S
C350 C346 1.532 . S
C350 C351 1.499 . S
C351 C350 1.499 . S
C351 C352 1.370 . S
C351 C356 1.415 . S
C352 H341 0.930 . S
C352 C351 1.370 . S
C352 C353 1.407 . S
C353 C352 1.407 . S
C353 C354 1.365 . S
C354 H342 0.930 . S
C354 C353 1.365 . S
C354 C355 1.393 . S
C355 C354 1.393 . S
C355 C356 1.387 . S
C356 H343 0.930 . S
C356 C351 1.415 . S
C356 C355 1.387 . S
H357 C365 0.930 . S
H358 C368 0.930 . S
H359 C370 0.930 . S
H360 C371 0.970 . S
H361 C371 0.970 . S
H362 C373 0.930 . S
H363 C375 0.930 . S
H364 C377 0.930 . S
C365 H357 0.930 . S
C365 C366 1.382 . S
C365 C367 1.426 . S
C366 C365 1.382 . S
C366 C370 1.389 . S
C367 C365 1.426 . S
C367 C368 1.375 . S
C367 C371 1.532 . S
C368 H358 0.930 . S
C368 C367 1.375 . S
C368 C369 1.416 . S
C369 C368 1.416 . S
C369 C370 1.371 . S
C370 H359 0.930 . S
C370 C366 1.389 . S
C370 C369 1.371 . S
C371 H360 0.970 . S
C371 H361 0.970 . S
C371 C367 1.532 . S
C371 C372 1.499 . S
C372 C371 1.499 . S
C372 C373 1.370 . S
C372 C377 1.415 . S
C373 H362 0.930 . S
C373 C372 1.370 . S
C373 C374 1.407 . S
C374 C373 1.407 . S
C374 C375 1.365 . S
C375 H363 0.930 . S
C375 C374 1.365 . S
C375 C376 1.393 . S
C376 C375 1.393 . S
C376 C377 1.387 . S
C377 H364 0.930 . S
C377 C372 1.415 . S
C377 C376 1.387 . S
H378 C386 0.930 . S
H379 C389 0.930 . S
H380 C391 0.930 . S
H381 C392 0.970 . S
H382 C392 0.970 . S
H383 C394 0.930 . S
H384 C396 0.930 . S
H385 C398 0.930 . S
C386 H378 0.930 . S
C386 C387 1.382 . S
C386 C388 1.426 . S
C387 C386 1.382 . S
C387 C391 1.389 . S
C388 C386 1.426 . S
C388 C389 1.375 . S
C388 C392 1.532 . S
C389 H379 0.930 . S
C389 C388 1.375 . S
C389 C390 1.416 . S
C390 C389 1.416 . S
C390 C391 1.371 . S
C391 H380 0.930 . S
C391 C387 1.389 . S
C391 C390 1.371 . S
C392 H381 0.970 . S
C392 H382 0.970 . S
C392 C388 1.532 . S
C392 C393 1.499 . S
C393 C392 1.499 . S
C393 C394 1.370 . S
C393 C398 1.415 . S
C394 H383 0.930 . S
C394 C393 1.370 . S
C394 C395 1.407 . S
C395 C394 1.407 . S
C395 C396 1.365 . S
C396 H384 0.930 . S
C396 C395 1.365 . S
C396 C397 1.393 . S
C397 C396 1.393 . S
C397 C398 1.387 . S
C398 H385 0.930 . S
C398 C393 1.415 . S
C398 C397 1.387 . S
H399 C407 0.930 . S
H400 C410 0.930 . S
H401 C412 0.930 . S
H402 C413 0.970 . S
H403 C413 0.970 . S
H404 C415 0.930 . S
H405 C417 0.930 . S
H406 C419 0.930 . S
C407 H399 0.930 . S
C407 C408 1.382 . S
C407 C409 1.426 . S
C408 C407 1.382 . S
C408 C412 1.389 . S
C409 C407 1.426 . S
C409 C410 1.375 . S
C409 C413 1.532 . S
C410 H400 0.930 . S
C410 C409 1.375 . S
C410 C411 1.416 . S
C411 C410 1.416 . S
C411 C412 1.371 . S
C412 H401 0.930 . S
C412 C408 1.389 . S
C412 C411 1.371 . S
C413 H402 0.970 . S
C413 H403 0.970 . S
C413 C409 1.532 . S
C413 C414 1.499 . S
C414 C413 1.499 . S
C414 C415 1.370 . S
C414 C419 1.415 . S
C415 H404 0.930 . S
C415 C414 1.370 . S
C415 C416 1.407 . S
C416 C415 1.407 . S
C416 C417 1.365 . S
C417 H405 0.930 . S
C417 C416 1.365 . S
C417 C418 1.393 . S
C418 C417 1.393 . S
C418 C419 1.387 . S
C419 H406 0.930 . S
C419 C414 1.415 . S
C419 C418 1.387 . S
H420 C428 0.930 . S
H421 C431 0.930 . S
H422 C433 0.930 . S
H423 C434 0.970 . S
H424 C434 0.970 . S
H425 C436 0.930 . S
H426 C438 0.930 . S
H427 C440 0.930 . S
C428 H420 0.930 . S
C428 C429 1.382 . S
C428 C430 1.426 . S
C429 C428 1.382 . S
C429 C433 1.389 . S
C430 C428 1.426 . S
C430 C431 1.375 . S
C430 C434 1.532 . S
C431 H421 0.930 . S
C431 C430 1.375 . S
C431 C432 1.416 . S
C432 C431 1.416 . S
C432 C433 1.371 . S
C433 H422 0.930 . S
C433 C429 1.389 . S
C433 C432 1.371 . S
C434 H423 0.970 . S
C434 H424 0.970 . S
C434 C430 1.532 . S
C434 C435 1.499 . S
C435 C434 1.499 . S
C435 C436 1.370 . S
C435 C440 1.415 . S
C436 H425 0.930 . S
C436 C435 1.370 . S
C436 C437 1.407 . S
C437 C436 1.407 . S
C437 C438 1.365 . S
C438 H426 0.930 . S
C438 C437 1.365 . S
C438 C439 1.393 . S
C439 C438 1.393 . S
C439 C440 1.387 . S
C440 H427 0.930 . S
C440 C435 1.415 . S
C440 C439 1.387 . S
H441 C449 0.930 . S
H442 C452 0.930 . S
H443 C454 0.922 1_655 S
H444 C455 0.970 . S
H445 C455 0.970 . S
H446 C457 0.930 . S
H447 C459 0.936 . S
H448 C461 0.930 . S
C449 H441 0.930 . S
C449 C450 1.382 . S
C449 C451 1.426 . S
C450 C449 1.382 . S
C450 C454 1.392 . S
C451 C449 1.426 . S
C451 C452 1.375 . S
C451 C455 1.532 . S
C452 H442 0.930 . S
C452 C451 1.375 . S
C452 C453 1.416 . S
C453 C452 1.416 . S
C453 C454 1.375 . S
C454 H443 0.922 1_455 S
C454 C450 1.392 . S
C454 C453 1.375 . S
C455 H444 0.970 . S
C455 H445 0.970 . S
C455 C451 1.532 . S
C455 C456 1.499 . S
C456 C455 1.499 . S
C456 C457 1.370 . S
C456 C461 1.415 . S
C457 H446 0.930 . S
C457 C456 1.370 . S
C457 C458 1.407 . S
C458 C457 1.407 . S
C458 C459 1.370 1_455 S
C459 H447 0.936 . S
C459 C458 1.370 1_655 S
C459 C460 1.386 1_655 S
C460 C459 1.386 1_455 S
C460 C461 1.387 . S
C461 H448 0.930 . S
C461 C456 1.415 . S
C461 C460 1.387 . S
H462 C470 0.930 . S
H463 C473 0.930 . S
H464 C475 0.930 . S
H465 C476 0.970 . S
H466 C476 0.970 . S
H467 C478 0.930 . S
H468 C480 0.930 . S
H469 C482 0.930 . S
C470 H462 0.930 . S
C470 C471 1.382 . S
C470 C472 1.426 . S
C471 C470 1.382 . S
C471 C475 1.389 . S
C472 C470 1.426 . S
C472 C473 1.375 . S
C472 C476 1.532 . S
C473 H463 0.930 . S
C473 C472 1.375 . S
C473 C474 1.416 . S
C474 C473 1.416 . S
C474 C475 1.371 . S
C475 H464 0.930 . S
C475 C471 1.389 . S
C475 C474 1.371 . S
C476 H465 0.970 . S
C476 H466 0.970 . S
C476 C472 1.532 . S
C476 C477 1.499 . S
C477 C476 1.499 . S
C477 C478 1.370 . S
C477 C482 1.415 . S
C478 H467 0.930 . S
C478 C477 1.370 . S
C478 C479 1.407 . S
C479 C478 1.407 . S
C479 C480 1.365 . S
C480 H468 0.930 . S
C480 C479 1.365 . S
C480 C481 1.393 . S
C481 C480 1.393 . S
C481 C482 1.387 . S
C482 H469 0.930 . S
C482 C477 1.415 . S
C482 C481 1.387 . S
H483 C491 0.930 . S
H484 C494 0.930 . S
H485 C496 0.930 . S
H486 C497 0.970 . S
H487 C497 0.970 . S
H488 C499 0.930 . S
H489 C501 0.930 . S
H490 C503 0.930 . S
C491 H483 0.930 . S
C491 C492 1.382 . S
C491 C493 1.426 . S
C492 C491 1.382 . S
C492 C496 1.389 1_565 S
C493 C491 1.426 . S
C493 C494 1.375 . S
C493 C497 1.532 . S
C494 H484 0.930 . S
C494 C493 1.375 . S
C494 C495 1.416 . S
C495 C494 1.416 . S
C495 C496 1.371 1_565 S
C496 H485 0.930 . S
C496 C492 1.389 1_545 S
C496 C495 1.371 1_545 S
C497 H486 0.970 . S
C497 H487 0.970 . S
C497 C493 1.532 . S
C497 C498 1.499 . S
C498 C497 1.499 . S
C498 C499 1.370 . S
C498 C503 1.415 . S
C499 H488 0.930 . S
C499 C498 1.370 . S
C499 C500 1.439 . S
C500 C499 1.439 . S
C500 C501 1.352 1_565 S
C501 H489 0.930 . S
C501 C500 1.352 1_545 S
C501 C502 1.393 1_545 S
C502 C501 1.393 1_565 S
C502 C503 1.387 . S
C503 H490 0.930 . S
C503 C498 1.415 . S
C503 C502 1.387 . S
H504 C512 0.930 . S
H505 C515 0.930 . S
H506 C517 0.930 . S
H507 C518 0.970 . S
H508 C518 0.970 . S
H509 C520 0.930 . S
H510 C522 0.930 . S
H511 C524 0.930 . S
C512 H504 0.930 . S
C512 C513 1.382 . S
C512 C514 1.426 . S
C513 C512 1.382 . S
C513 C517 1.389 1_565 S
C514 C512 1.426 . S
C514 C515 1.375 . S
C514 C518 1.532 . S
C515 H505 0.930 . S
C515 C514 1.375 . S
C515 C516 1.385 1_565 S
C516 C515 1.385 1_545 S
C516 C517 1.383 . S
C517 H506 0.930 . S
C517 C513 1.389 1_545 S
C517 C516 1.383 . S
C518 H507 0.970 . S
C518 H508 0.970 . S
C518 C514 1.532 . S
C518 C519 1.499 . S
C519 C518 1.499 . S
C519 C520 1.370 . S
C519 C524 1.415 . S
C520 H509 0.930 . S
C520 C519 1.370 . S
C520 C521 1.407 . S
C521 C520 1.407 . S
C521 C522 1.365 1_565 S
C522 H510 0.930 . S
C522 C521 1.365 1_545 S
C522 C523 1.393 1_545 S
C523 C522 1.393 1_565 S
C523 C524 1.387 . S
C524 H511 0.930 . S
C524 C519 1.415 . S
C524 C523 1.387 . S
H525 C533 0.930 . S
H526 C536 0.930 . S
H527 C538 0.930 . S
H528 C539 0.970 . S
H529 C539 0.970 . S
H530 C541 0.930 . S
H531 C543 0.930 . S
H532 C545 0.930 . S
C533 H525 0.930 . S
C533 C534 1.382 . S
C533 C535 1.426 . S
C534 C533 1.382 . S
C534 C538 1.389 1_455 S
C535 C533 1.426 . S
C535 C536 1.375 . S
C535 C539 1.532 . S
C536 H526 0.930 . S
C536 C535 1.375 . S
C536 C537 1.416 . S
C537 C536 1.416 . S
C537 C538 1.371 1_455 S
C538 H527 0.930 . S
C538 C534 1.389 1_655 S
C538 C537 1.371 1_655 S
C539 H528 0.970 . S
C539 H529 0.970 . S
C539 C535 1.532 . S
C539 C540 1.499 . S
C540 C539 1.499 . S
C540 C541 1.370 . S
C540 C545 1.415 . S
C541 H530 0.930 . S
C541 C540 1.370 . S
C541 C542 1.407 . S
C542 C541 1.407 . S
C542 C543 1.365 1_455 S
C543 H531 0.930 . S
C543 C542 1.365 1_655 S
C543 C544 1.393 1_655 S
C544 C543 1.393 1_455 S
C544 C545 1.387 . S
C545 H532 0.930 . S
C545 C540 1.415 . S
C545 C544 1.387 . S
H546 C554 0.930 . S
H547 C557 0.930 . S
H548 C559 0.930 . S
H549 C560 0.970 . S
H550 C560 0.970 . S
H551 C562 0.930 . S
H552 C564 0.930 . S
H553 C566 0.930 . S
C554 H546 0.930 . S
C554 C555 1.382 . S
C554 C556 1.426 . S
C555 C554 1.382 . S
C555 C559 1.389 . S
C556 C554 1.426 . S
C556 C557 1.375 . S
C556 C560 1.532 . S
C557 H547 0.930 . S
C557 C556 1.375 . S
C557 C558 1.416 . S
C558 C557 1.416 . S
C558 C559 1.371 . S
C559 H548 0.930 . S
C559 C555 1.389 . S
C559 C558 1.371 . S
C560 H549 0.970 . S
C560 H550 0.970 . S
C560 C556 1.532 . S
C560 C561 1.499 . S
C561 C560 1.499 . S
C561 C562 1.370 . S
C561 C566 1.415 . S
C562 H551 0.930 . S
C562 C561 1.370 . S
C562 C563 1.407 . S
C563 C562 1.407 . S
C563 C564 1.365 . S
C564 H552 0.930 . S
C564 C563 1.365 . S
C564 C565 1.393 . S
C565 C564 1.393 . S
C565 C566 1.387 . S
C566 H553 0.930 . S
C566 C561 1.415 . S
C566 C565 1.387 . S
H567 C575 0.930 . S
H568 C578 0.930 . S
H569 C580 0.930 . S
H570 C581 0.970 . S
H571 C581 0.970 . S
H572 C583 0.930 . S
H573 C585 0.930 . S
H574 C587 0.930 . S
C575 H567 0.930 . S
C575 C576 1.382 . S
C575 C577 1.426 . S
C576 C575 1.382 . S
C576 C580 1.389 . S
C577 C575 1.426 . S
C577 C578 1.375 . S
C577 C581 1.532 . S
C578 H568 0.930 . S
C578 C577 1.375 . S
C578 C579 1.416 . S
C579 C578 1.416 . S
C579 C580 1.371 . S
C580 H569 0.930 . S
C580 C576 1.389 . S
C580 C579 1.371 . S
C581 H570 0.970 . S
C581 H571 0.970 . S
C581 C577 1.532 . S
C581 C582 1.499 . S
C582 C581 1.499 . S
C582 C583 1.370 . S
C582 C587 1.415 . S
C583 H572 0.930 . S
C583 C582 1.370 . S
C583 C584 1.407 . S
C584 C583 1.407 . S
C584 C585 1.365 . S
C585 H573 0.930 . S
C585 C584 1.365 . S
C585 C586 1.393 . S
C586 C585 1.393 . S
C586 C587 1.387 . S
C587 H574 0.930 . S
C587 C582 1.415 . S
C587 C586 1.387 . S
H588 C596 0.930 . S
H589 C599 0.930 . S
H590 C601 0.930 . S
H591 C602 0.970 . S
H592 C602 0.970 . S
H593 C604 0.930 . S
H594 C606 0.930 . S
H595 C608 0.930 . S
C596 H588 0.930 . S
C596 C597 1.382 . S
C596 C598 1.426 . S
C597 C596 1.382 . S
C597 C601 1.389 . S
C598 C596 1.426 . S
C598 C599 1.375 . S
C598 C602 1.532 . S
C599 H589 0.930 . S
C599 C598 1.375 . S
C599 C600 1.416 . S
C600 C599 1.416 . S
C600 C601 1.371 . S
C601 H590 0.930 . S
C601 C597 1.389 . S
C601 C600 1.371 . S
C602 H591 0.970 . S
C602 H592 0.970 . S
C602 C598 1.532 . S
C602 C603 1.499 . S
C603 C602 1.499 . S
C603 C604 1.370 . S
C603 C608 1.415 . S
C604 H593 0.930 . S
C604 C603 1.370 . S
C604 C605 1.407 . S
C605 C604 1.407 . S
C605 C606 1.365 . S
C606 H594 0.930 . S
C606 C605 1.365 . S
C606 C607 1.393 . S
C607 C606 1.393 . S
C607 C608 1.387 . S
C608 H595 0.930 . S
C608 C603 1.415 . S
C608 C607 1.387 . S
H609 C617 0.930 . S
H610 C620 0.930 . S
H611 C622 0.930 . S
H612 C623 0.970 . S
H613 C623 0.970 . S
H614 C625 0.930 . S
H615 C627 0.930 . S
H616 C629 0.930 . S
C617 H609 0.930 . S
C617 C618 1.382 . S
C617 C619 1.426 . S
C618 C617 1.382 . S
C618 C622 1.389 . S
C619 C617 1.426 . S
C619 C620 1.375 . S
C619 C623 1.532 . S
C620 H610 0.930 . S
C620 C619 1.375 . S
C620 C621 1.416 . S
C621 C620 1.416 . S
C621 C622 1.371 . S
C622 H611 0.930 . S
C622 C618 1.389 . S
C622 C621 1.371 . S
C623 H612 0.970 . S
C623 H613 0.970 . S
C623 C619 1.532 . S
C623 C624 1.499 . S
C624 C623 1.499 . S
C624 C625 1.370 . S
C624 C629 1.415 . S
C625 H614 0.930 . S
C625 C624 1.370 . S
C625 C626 1.407 . S
C626 C625 1.407 . S
C626 C627 1.365 . S
C627 H615 0.930 . S
C627 C626 1.365 . S
C627 C628 1.393 . S
C628 C627 1.393 . S
C628 C629 1.387 . S
C629 H616 0.930 . S
C629 C624 1.415 . S
C629 C628 1.387 . S
C630 C631 1.369 1_655 S
C630 C632 1.419 . S
C630 H634 0.930 . S
C631 C630 1.369 1_455 S
C631 C640 1.429 . S
C632 C630 1.419 . S
C632 C633 1.363 . S
C632 H635 0.929 . S
C633 C632 1.363 . S
C633 C639 1.428 1_655 S
H634 C630 0.930 . S
H635 C632 0.929 . S
S636 N637 1.613 . S
S636 N638 1.610 . S
N637 S636 1.613 . S
N637 C640 1.350 . S
N638 S636 1.610 . S
N638 C639 1.351 . S
C639 C633 1.428 1_455 S
C639 N638 1.351 . S
C639 C640 1.434 . S
C640 C631 1.429 . S
C640 N637 1.350 . S
C640 C639 1.434 . S
C641 C642 1.369 . S
C641 C643 1.419 . S
C641 H645 0.930 . S
C642 C641 1.369 . S
C642 C651 1.429 . S
C643 C641 1.419 . S
C643 C644 1.363 . S
C643 H646 0.929 . S
C644 C643 1.363 . S
C644 C650 1.428 . S
H645 C641 0.930 . S
H646 C643 0.929 . S
S647 N648 1.613 . S
S647 N649 1.610 . S
N648 S647 1.613 . S
N648 C651 1.350 . S
N649 S647 1.610 . S
N649 C650 1.351 . S
C650 C644 1.428 . S
C650 N649 1.351 . S
C650 C651 1.434 . S
C651 C642 1.429 . S
C651 N648 1.350 . S
C651 C650 1.434 . S
C652 C653 1.327 1_565 S
C652 C654 1.419 . S
C652 H656 0.930 . S
C653 C652 1.327 1_545 S
C653 C662 1.454 . S
C654 C652 1.419 . S
C654 C655 1.363 1_565 S
C654 H657 0.929 . S
C655 C654 1.363 1_545 S
C655 C661 1.428 . S
H656 C652 0.930 . S
H657 C654 0.929 . S
S658 N659 1.613 . S
S658 N660 1.610 . S
N659 S658 1.613 . S
N659 C662 1.350 . S
N660 S658 1.610 . S
N660 C661 1.351 . S
C661 C655 1.428 . S
C661 N660 1.351 . S
C661 C662 1.434 . S
C662 C653 1.454 . S
C662 N659 1.350 . S
C662 C661 1.434 . S
C663 C664 1.369 1_565 S
C663 C665 1.419 . S
C663 H667 0.930 . S
C664 C663 1.369 1_545 S
C664 C673 1.429 . S
C665 C663 1.419 . S
C665 C666 1.363 . S
C665 H668 0.929 . S
C666 C665 1.363 . S
C666 C672 1.428 1_565 S
H667 C663 0.930 . S
H668 C665 0.929 . S
S669 N670 1.613 . S
S669 N671 1.610 . S
N670 S669 1.613 . S
N670 C673 1.350 . S
N671 S669 1.610 . S
N671 C672 1.351 . S
C672 C666 1.428 1_545 S
C672 N671 1.351 . S
C672 C673 1.434 . S
C673 C664 1.429 . S
C673 N670 1.350 . S
C673 C672 1.434 . S
C674 C675 1.338 1_655 S
C674 C676 1.419 . S
C674 H678 0.930 . S
C675 C674 1.338 1_455 S
C675 C684 1.447 . S
C676 C674 1.419 . S
C676 C677 1.363 1_655 S
C676 H679 0.929 . S
C677 C676 1.363 1_455 S
C677 C683 1.428 . S
H678 C674 0.930 . S
H679 C676 0.929 . S
S680 N681 1.613 . S
S680 N682 1.610 . S
N681 S680 1.613 . S
N681 C684 1.350 . S
N682 S680 1.610 . S
N682 C683 1.351 . S
C683 C677 1.428 . S
C683 N682 1.351 . S
C683 C684 1.434 . S
C684 C675 1.447 . S
C684 N681 1.350 . S
C684 C683 1.434 . S
C685 C686 1.369 . S
C685 C687 1.419 . S
C685 H689 0.930 . S
C686 C685 1.369 . S
C686 C695 1.429 . S
C687 C685 1.419 . S
C687 C688 1.363 . S
C687 H690 0.929 . S
C688 C687 1.363 . S
C688 C694 1.428 . S
H689 C685 0.930 . S
H690 C687 0.929 . S
S691 N692 1.613 . S
S691 N693 1.610 . S
N692 S691 1.613 . S
N692 C695 1.350 . S
N693 S691 1.610 . S
N693 C694 1.351 . S
C694 C688 1.428 . S
C694 N693 1.351 . S
C694 C695 1.434 . S
C695 C686 1.429 . S
C695 N692 1.350 . S
C695 C694 1.434 . S
C696 C697 1.348 1_455 S
C696 C698 1.419 . S
C696 H700 0.930 . S
C697 C696 1.348 1_655 S
C697 C706 1.439 . S
C698 C696 1.419 . S
C698 C699 1.371 . S
C698 H701 0.929 . S
C699 C698 1.371 . S
C699 C705 1.410 1_455 S
H700 C696 0.930 . S
H701 C698 0.929 . S
S702 N703 1.613 . S
S702 N704 1.610 . S
N703 S702 1.613 . S
N703 C706 1.350 . S
N704 S702 1.610 . S
N704 C705 1.351 . S
C705 C699 1.410 1_655 S
C705 N704 1.351 . S
C705 C706 1.434 . S
C706 C697 1.439 . S
C706 N703 1.350 . S
C706 C705 1.434 . S
C707 C708 1.369 . S
C707 C709 1.419 . S
C707 H711 0.930 . S
C708 C707 1.369 . S
C708 C717 1.429 . S
C709 C707 1.419 . S
C709 C710 1.363 . S
C709 H712 0.929 . S
C710 C709 1.363 . S
C710 C716 1.428 . S
H711 C707 0.930 . S
H712 C709 0.929 . S
S713 N714 1.613 . S
S713 N715 1.610 . S
N714 S713 1.613 . S
N714 C717 1.350 . S
N715 S713 1.610 . S
N715 C716 1.351 . S
C716 C710 1.428 . S
C716 N715 1.351 . S
C716 C717 1.434 . S
C717 C708 1.429 . S
C717 N714 1.350 . S
C717 C716 1.434 . S
C718 C719 1.369 1_565 S
C718 C720 1.419 . S
C718 H722 0.930 . S
C719 C718 1.369 1_545 S
C719 C728 1.429 . S
C720 C718 1.419 . S
C720 C721 1.363 1_565 S
C720 H723 0.929 . S
C721 C720 1.363 1_545 S
C721 C727 1.428 . S
H722 C718 0.930 . S
H723 C720 0.929 . S
S724 N725 1.613 . S
S724 N726 1.610 . S
N725 S724 1.613 . S
N725 C728 1.350 . S
N726 S724 1.610 . S
N726 C727 1.351 . S
C727 C721 1.428 . S
C727 N726 1.351 . S
C727 C728 1.434 . S
C728 C719 1.429 . S
C728 N725 1.350 . S
C728 C727 1.434 . S
C729 C730 1.367 . S
C729 C731 1.419 . S
C729 H733 0.930 . S
C730 C729 1.367 . S
C730 C739 1.428 1_545 S
C731 C729 1.419 . S
C731 C732 1.361 . S
C731 H734 0.929 . S
C732 C731 1.361 . S
C732 C738 1.417 1_545 S
H733 C729 0.930 . S
H734 C731 0.929 . S
S735 N736 1.613 . S
S735 N737 1.610 . S
N736 S735 1.613 . S
N736 C739 1.350 . S
N737 S735 1.610 . S
N737 C738 1.351 . S
C738 C732 1.417 1_565 S
C738 N737 1.351 . S
C738 C739 1.434 . S
C739 C730 1.428 1_565 S
C739 N736 1.350 . S
C739 C738 1.434 . S
C740 C741 1.369 . S
C740 C742 1.419 . S
C740 H744 0.930 . S
C741 C740 1.369 . S
C741 C750 1.429 1_455 S
C742 C740 1.419 . S
C742 C743 1.363 . S
C742 H745 0.929 . S
C743 C742 1.363 . S
C743 C749 1.428 1_455 S
H744 C740 0.930 . S
H745 C742 0.929 . S
S746 N747 1.613 . S
S746 N748 1.610 . S
N747 S746 1.613 . S
N747 C750 1.350 . S
N748 S746 1.610 . S
N748 C749 1.351 . S
C749 C743 1.428 1_655 S
C749 N748 1.351 . S
C749 C750 1.434 . S
C750 C741 1.429 1_655 S
C750 N747 1.350 . S
C750 C749 1.434 . S
C751 C752 1.369 . S
C751 C753 1.419 . S
C751 H755 0.930 . S
C752 C751 1.369 . S
C752 C761 1.429 . S
C753 C751 1.419 . S
C753 C754 1.363 . S
C753 H756 0.929 . S
C754 C753 1.363 . S
C754 C760 1.428 . S
H755 C751 0.930 . S
H756 C753 0.929 . S
S757 N758 1.613 . S
S757 N759 1.610 . S
N758 S757 1.613 . S
N758 C761 1.350 . S
N759 S757 1.610 . S
N759 C760 1.351 . S
C760 C754 1.428 . S
C760 N759 1.351 . S
C760 C761 1.434 . S
C761 C752 1.429 . S
C761 N758 1.350 . S
C761 C760 1.434 . S
C762 C763 1.369 . S
C762 C764 1.419 . S
C762 H766 0.930 . S
C763 C762 1.369 . S
C763 C772 1.429 . S
C764 C762 1.419 . S
C764 C765 1.363 . S
C764 H767 0.929 . S
C765 C764 1.363 . S
C765 C771 1.428 . S
H766 C762 0.930 . S
H767 C764 0.929 . S
S768 N769 1.613 . S
S768 N770 1.610 . S
N769 S768 1.613 . S
N769 C772 1.350 . S
N770 S768 1.610 . S
N770 C771 1.351 . S
C771 C765 1.428 . S
C771 N770 1.351 . S
C771 C772 1.434 . S
C772 C763 1.429 . S
C772 N769 1.350 . S
C772 C771 1.434 . S
C773 C774 1.369 . S
C773 C775 1.419 . S
C773 H777 0.930 . S
C774 C773 1.369 . S
C774 C783 1.429 . S
C775 C773 1.419 . S
C775 C776 1.363 . S
C775 H778 0.929 . S
C776 C775 1.363 . S
C776 C782 1.428 . S
H777 C773 0.930 . S
H778 C775 0.929 . S
S779 N780 1.613 . S
S779 N781 1.610 . S
N780 S779 1.613 . S
N780 C783 1.350 . S
N781 S779 1.610 . S
N781 C782 1.351 . S
C782 C776 1.428 . S
C782 N781 1.351 . S
C782 C783 1.434 . S
C783 C774 1.429 . S
C783 N780 1.350 . S
C783 C782 1.434 . S
C784 C785 1.369 . S
C784 C786 1.419 . S
C784 H788 0.930 . S
C785 C784 1.369 . S
C785 C794 1.429 . S
C786 C784 1.419 . S
C786 C787 1.363 . S
C786 H789 0.929 . S
C787 C786 1.363 . S
C787 C793 1.428 . S
H788 C784 0.930 . S
H789 C786 0.929 . S
S790 N791 1.613 . S
S790 N792 1.610 . S
N791 S790 1.613 . S
N791 C794 1.350 . S
N792 S790 1.610 . S
N792 C793 1.351 . S
C793 C787 1.428 . S
C793 N792 1.351 . S
C793 C794 1.434 . S
C794 C785 1.429 . S
C794 N791 1.350 . S
C794 C793 1.434 . S
C795 C796 1.369 . S
C795 C797 1.419 . S
C795 H799 0.930 . S
C796 C795 1.369 . S
C796 C805 1.429 . S
C797 C795 1.419 . S
C797 C798 1.363 . S
C797 H800 0.929 . S
C798 C797 1.363 . S
C798 C804 1.428 . S
H799 C795 0.930 . S
H800 C797 0.929 . S
S801 N802 1.613 . S
S801 N803 1.610 . S
N802 S801 1.613 . S
N802 C805 1.350 . S
N803 S801 1.610 . S
N803 C804 1.351 . S
C804 C798 1.428 . S
C804 N803 1.351 . S
C804 C805 1.434 . S
C805 C796 1.429 . S
C805 N802 1.350 . S
C805 C804 1.434 . S
C806 C807 1.369 . S
C806 C808 1.419 . S
C806 H810 0.930 . S
C807 C806 1.369 . S
C807 C816 1.429 . S
C808 C806 1.419 . S
C808 C809 1.363 . S
C808 H811 0.929 . S
C809 C808 1.363 . S
C809 C815 1.428 . S
H810 C806 0.930 . S
H811 C808 0.929 . S
S812 N813 1.613 . S
S812 N814 1.610 . S
N813 S812 1.613 . S
N813 C816 1.350 . S
N814 S812 1.610 . S
N814 C815 1.351 . S
C815 C809 1.428 . S
C815 N814 1.351 . S
C815 C816 1.434 . S
C816 C807 1.429 . S
C816 N813 1.350 . S
C816 C815 1.434 . S
C817 C818 1.369 . S
C817 C819 1.419 . S
C817 H821 0.930 . S
C818 C817 1.369 . S
C818 C827 1.429 . S
C819 C817 1.419 . S
C819 C820 1.363 . S
C819 H822 0.929 . S
C820 C819 1.363 . S
C820 C826 1.428 . S
H821 C817 0.930 . S
H822 C819 0.929 . S
S823 N824 1.613 . S
S823 N825 1.610 . S
N824 S823 1.613 . S
N824 C827 1.350 . S
N825 S823 1.610 . S
N825 C826 1.351 . S
C826 C820 1.428 . S
C826 N825 1.351 . S
C826 C827 1.434 . S
C827 C818 1.429 . S
C827 N824 1.350 . S
C827 C826 1.434 . S
C828 C829 1.369 . S
C828 C830 1.419 . S
C828 H832 0.930 . S
C829 C828 1.369 . S
C829 C838 1.429 . S
C830 C828 1.419 . S
C830 C831 1.363 . S
C830 H833 0.929 . S
C831 C830 1.363 . S
C831 C837 1.428 . S
H832 C828 0.930 . S
H833 C830 0.929 . S
S834 N835 1.613 . S
S834 N836 1.610 . S
N835 S834 1.613 . S
N835 C838 1.350 . S
N836 S834 1.610 . S
N836 C837 1.351 . S
C837 C831 1.428 . S
C837 N836 1.351 . S
C837 C838 1.434 . S
C838 C829 1.429 . S
C838 N835 1.350 . S
C838 C837 1.434 . S
C839 C840 1.369 . S
C839 C841 1.419 . S
C839 H843 0.930 . S
C840 C839 1.369 . S
C840 C849 1.429 . S
C841 C839 1.419 . S
C841 C842 1.363 . S
C841 H844 0.929 . S
C842 C841 1.363 . S
C842 C848 1.428 . S
H843 C839 0.930 . S
H844 C841 0.929 . S
S845 N846 1.613 . S
S845 N847 1.610 . S
N846 S845 1.613 . S
N846 C849 1.350 . S
N847 S845 1.610 . S
N847 C848 1.351 . S
C848 C842 1.428 . S
C848 N847 1.351 . S
C848 C849 1.434 . S
C849 C840 1.429 . S
C849 N846 1.350 . S
C849 C848 1.434 . S
C850 C851 1.369 . S
C850 C852 1.419 . S
C850 H854 0.930 . S
C851 C850 1.369 . S
C851 C860 1.429 . S
C852 C850 1.419 . S
C852 C853 1.363 . S
C852 H855 0.929 . S
C853 C852 1.363 . S
C853 C859 1.428 . S
H854 C850 0.930 . S
H855 C852 0.929 . S
S856 N857 1.613 . S
S856 N858 1.610 . S
N857 S856 1.613 . S
N857 C860 1.350 . S
N858 S856 1.610 . S
N858 C859 1.351 . S
C859 C853 1.428 . S
C859 N858 1.351 . S
C859 C860 1.434 . S
C860 C851 1.429 . S
C860 N857 1.350 . S
C860 C859 1.434 . S
C861 C862 1.369 . S
C861 C863 1.419 . S
C861 H865 0.930 . S
C862 C861 1.369 . S
C862 C871 1.429 . S
C863 C861 1.419 . S
C863 C864 1.363 . S
C863 H866 0.929 . S
C864 C863 1.363 . S
C864 C870 1.428 . S
H865 C861 0.930 . S
H866 C863 0.929 . S
S867 N868 1.613 . S
S867 N869 1.610 . S
N868 S867 1.613 . S
N868 C871 1.350 . S
N869 S867 1.610 . S
N869 C870 1.351 . S
C870 C864 1.428 . S
C870 N869 1.351 . S
C870 C871 1.434 . S
C871 C862 1.429 . S
C871 N868 1.350 . S
C871 C870 1.434 . S
C872 C873 1.369 . S
C872 C874 1.419 . S
C872 H876 0.930 . S
C873 C872 1.369 . S
C873 C882 1.429 . S
C874 C872 1.419 . S
C874 C875 1.363 . S
C874 H877 0.929 . S
C875 C874 1.363 . S
C875 C881 1.428 . S
H876 C872 0.930 . S
H877 C874 0.929 . S
S878 N879 1.613 . S
S878 N880 1.610 . S
N879 S878 1.613 . S
N879 C882 1.350 . S
N880 S878 1.610 . S
N880 C881 1.351 . S
C881 C875 1.428 . S
C881 N880 1.351 . S
C881 C882 1.434 . S
C882 C873 1.429 . S
C882 N879 1.350 . S
C882 C881 1.434 . S
C883 C884 1.369 . S
C883 C885 1.419 . S
C883 H887 0.930 . S
C884 C883 1.369 . S
C884 C893 1.429 . S
C885 C883 1.419 . S
C885 C886 1.363 . S
C885 H888 0.929 . S
C886 C885 1.363 . S
C886 C892 1.428 . S
H887 C883 0.930 . S
H888 C885 0.929 . S
S889 N890 1.613 . S
S889 N891 1.610 . S
N890 S889 1.613 . S
N890 C893 1.350 . S
N891 S889 1.610 . S
N891 C892 1.351 . S
C892 C886 1.428 . S
C892 N891 1.351 . S
C892 C893 1.434 . S
C893 C884 1.429 . S
C893 N890 1.350 . S
C893 C892 1.434 . S
C894 C895 1.369 . S
C894 C896 1.419 . S
C894 H898 0.930 . S
C895 C894 1.369 . S
C895 C904 1.429 . S
C896 C894 1.419 . S
C896 C897 1.363 . S
C896 H899 0.929 . S
C897 C896 1.363 . S
C897 C903 1.428 . S
H898 C894 0.930 . S
H899 C896 0.929 . S
S900 N901 1.613 . S
S900 N902 1.610 . S
N901 S900 1.613 . S
N901 C904 1.350 . S
N902 S900 1.610 . S
N902 C903 1.351 . S
C903 C897 1.428 . S
C903 N902 1.351 . S
C903 C904 1.434 . S
C904 C895 1.429 . S
C904 N901 1.350 . S
C904 C903 1.434 . S
C905 C906 1.369 . S
C905 C907 1.419 . S
C905 H909 0.930 . S
C906 C905 1.369 . S
C906 C915 1.429 . S
C907 C905 1.419 . S
C907 C908 1.363 . S
C907 H910 0.929 . S
C908 C907 1.363 . S
C908 C914 1.428 . S
H909 C905 0.930 . S
H910 C907 0.929 . S
S911 N912 1.613 . S
S911 N913 1.610 . S
N912 S911 1.613 . S
N912 C915 1.350 . S
N913 S911 1.610 . S
N913 C914 1.351 . S
C914 C908 1.428 . S
C914 N913 1.351 . S
C914 C915 1.434 . S
C915 C906 1.429 . S
C915 N912 1.350 . S
C915 C914 1.434 . S
C916 C917 1.369 . S
C916 C918 1.419 . S
C916 H920 0.930 . S
C917 C916 1.369 . S
C917 C926 1.429 . S
C918 C916 1.419 . S
C918 C919 1.363 . S
C918 H921 0.929 . S
C919 C918 1.363 . S
C919 C925 1.428 . S
H920 C916 0.930 . S
H921 C918 0.929 . S
S922 N923 1.613 . S
S922 N924 1.610 . S
N923 S922 1.613 . S
N923 C926 1.350 . S
N924 S922 1.610 . S
N924 C925 1.351 . S
C925 C919 1.428 . S
C925 N924 1.351 . S
C925 C926 1.434 . S
C926 C917 1.429 . S
C926 N923 1.350 . S
C926 C925 1.434 . S
C927 C928 1.369 . S
C927 C929 1.419 . S
C927 H931 0.930 . S
C928 C927 1.369 . S
C928 C937 1.429 . S
C929 C927 1.419 . S
C929 C930 1.363 . S
C929 H932 0.929 . S
C930 C929 1.363 . S
C930 C936 1.428 . S
H931 C927 0.930 . S
H932 C929 0.929 . S
S933 N934 1.613 . S
S933 N935 1.610 . S
N934 S933 1.613 . S
N934 C937 1.350 . S
N935 S933 1.610 . S
N935 C936 1.351 . S
C936 C930 1.428 . S
C936 N935 1.351 . S
C936 C937 1.434 . S
C937 C928 1.429 . S
C937 N934 1.350 . S
C937 C936 1.434 . S
C938 C939 1.369 . S
C938 C940 1.419 . S
C938 H942 0.930 . S
C939 C938 1.369 . S
C939 C948 1.429 . S
C940 C938 1.419 . S
C940 C941 1.363 . S
C940 H943 0.929 . S
C941 C940 1.363 . S
C941 C947 1.428 . S
H942 C938 0.930 . S
H943 C940 0.929 . S
S944 N945 1.613 . S
S944 N946 1.610 . S
N945 S944 1.613 . S
N945 C948 1.350 . S
N946 S944 1.610 . S
N946 C947 1.351 . S
C947 C941 1.428 . S
C947 N946 1.351 . S
C947 C948 1.434 . S
C948 C939 1.429 . S
C948 N945 1.350 . S
C948 C947 1.434 . S
C949 C950 1.369 . S
C949 C951 1.419 . S
C949 H953 0.930 . S
C950 C949 1.369 . S
C950 C959 1.429 . S
C951 C949 1.419 . S
C951 C952 1.363 . S
C951 H954 0.929 . S
C952 C951 1.363 . S
C952 C958 1.428 . S
H953 C949 0.930 . S
H954 C951 0.929 . S
S955 N956 1.613 . S
S955 N957 1.610 . S
N956 S955 1.613 . S
N956 C959 1.350 . S
N957 S955 1.610 . S
N957 C958 1.351 . S
C958 C952 1.428 . S
C958 N957 1.351 . S
C958 C959 1.434 . S
C959 C950 1.429 . S
C959 N956 1.350 . S
C959 C958 1.434 . S
C960 C961 1.369 . S
C960 C962 1.419 . S
C960 H964 0.930 . S
C961 C960 1.369 . S
C961 C970 1.429 . S
C962 C960 1.419 . S
C962 C963 1.363 . S
C962 H965 0.929 . S
C963 C962 1.363 . S
C963 C969 1.428 . S
H964 C960 0.930 . S
H965 C962 0.929 . S
S966 N967 1.613 . S
S966 N968 1.610 . S
N967 S966 1.613 . S
N967 C970 1.350 . S
N968 S966 1.610 . S
N968 C969 1.351 . S
C969 C963 1.428 . S
C969 N968 1.351 . S
C969 C970 1.434 . S
C970 C961 1.429 . S
C970 N967 1.350 . S
C970 C969 1.434 . S
C971 C972 1.369 . S
C971 C973 1.419 . S
C971 H975 0.930 . S
C972 C971 1.369 . S
C972 C981 1.429 . S
C973 C971 1.419 . S
C973 C974 1.363 . S
C973 H976 0.929 . S
C974 C973 1.363 . S
C974 C980 1.428 . S
H975 C971 0.930 . S
H976 C973 0.929 . S
S977 N978 1.613 . S
S977 N979 1.610 . S
N978 S977 1.613 . S
N978 C981 1.350 . S
N979 S977 1.610 . S
N979 C980 1.351 . S
C980 C974 1.428 . S
C980 N979 1.351 . S
C980 C981 1.434 . S
C981 C972 1.429 . S
C981 N978 1.350 . S
C981 C980 1.434 . S
C982 C983 1.369 . S
C982 C984 1.419 . S
C982 H986 0.930 . S
C983 C982 1.369 . S
C983 C992 1.429 . S
C984 C982 1.419 . S
C984 C985 1.363 . S
C984 H987 0.929 . S
C985 C984 1.363 . S
C985 C991 1.428 . S
H986 C982 0.930 . S
H987 C984 0.929 . S
S988 N989 1.613 . S
S988 N990 1.610 . S
N989 S988 1.613 . S
N989 C992 1.350 . S
N990 S988 1.610 . S
N990 C991 1.351 . S
C991 C985 1.428 . S
C991 N990 1.351 . S
C991 C992 1.434 . S
C992 C983 1.429 . S
C992 N989 1.350 . S
C992 C991 1.434 . S
C993 C994 1.369 . S
C993 C995 1.419 . S
C993 H997 0.930 . S
C994 C993 1.369 . S
C994 C1003 1.429 . S
C995 C993 1.419 . S
C995 C996 1.363 . S
C995 H998 0.929 . S
C996 C995 1.363 . S
C996 C1002 1.428 . S
H997 C993 0.930 . S
H998 C995 0.929 . S
S999 N1000 1.613 . S
S999 N1001 1.610 . S
N1000 S999 1.613 . S
N1000 C1003 1.350 . S
N1001 S999 1.610 . S
N1001 C1002 1.351 . S
C1002 C996 1.428 . S
C1002 N1001 1.351 . S
C1002 C1003 1.434 . S
C1003 C994 1.429 . S
C1003 N1000 1.350 . S
C1003 C1002 1.434 . S
C1004 C1005 1.369 . S
C1004 C1006 1.419 . S
C1004 H1008 0.930 . S
C1005 C1004 1.369 . S
C1005 C1014 1.429 . S
C1006 C1004 1.419 . S
C1006 C1007 1.363 . S
C1006 H1009 0.929 . S
C1007 C1006 1.363 . S
C1007 C1013 1.428 . S
H1008 C1004 0.930 . S
H1009 C1006 0.929 . S
S1010 N1011 1.613 . S
S1010 N1012 1.610 . S
N1011 S1010 1.613 . S
N1011 C1014 1.350 . S
N1012 S1010 1.610 . S
N1012 C1013 1.351 . S
C1013 C1007 1.428 . S
C1013 N1012 1.351 . S
C1013 C1014 1.434 . S
C1014 C1005 1.429 . S
C1014 N1011 1.350 . S
C1014 C1013 1.434 . S
C1015 C1016 1.369 . S
C1015 C1017 1.419 . S
C1015 H1019 0.930 . S
C1016 C1015 1.369 . S
C1016 C1025 1.429 . S
C1017 C1015 1.419 . S
C1017 C1018 1.363 . S
C1017 H1020 0.929 . S
C1018 C1017 1.363 . S
C1018 C1024 1.428 . S
H1019 C1015 0.930 . S
H1020 C1017 0.929 . S
S1021 N1022 1.613 . S
S1021 N1023 1.610 . S
N1022 S1021 1.613 . S
N1022 C1025 1.350 . S
N1023 S1021 1.610 . S
N1023 C1024 1.351 . S
C1024 C1018 1.428 . S
C1024 N1023 1.351 . S
C1024 C1025 1.434 . S
C1025 C1016 1.429 . S
C1025 N1022 1.350 . S
C1025 C1024 1.434 . S
C1026 C1027 1.369 . S
C1026 C1028 1.419 . S
C1026 H1030 0.930 . S
C1027 C1026 1.369 . S
C1027 C1036 1.429 . S
C1028 C1026 1.419 . S
C1028 C1029 1.363 . S
C1028 H1031 0.929 . S
C1029 C1028 1.363 . S
C1029 C1035 1.428 . S
H1030 C1026 0.930 . S
H1031 C1028 0.929 . S
S1032 N1033 1.613 . S
S1032 N1034 1.610 . S
N1033 S1032 1.613 . S
N1033 C1036 1.350 . S
N1034 S1032 1.610 . S
N1034 C1035 1.351 . S
C1035 C1029 1.428 . S
C1035 N1034 1.351 . S
C1035 C1036 1.434 . S
C1036 C1027 1.429 . S
C1036 N1033 1.350 . S
C1036 C1035 1.434 . S
C1037 C1038 1.369 . S
C1037 C1039 1.419 . S
C1037 H1041 0.930 . S
C1038 C1037 1.369 . S
C1038 C1047 1.429 . S
C1039 C1037 1.419 . S
C1039 C1040 1.363 . S
C1039 H1042 0.929 . S
C1040 C1039 1.363 . S
C1040 C1046 1.428 . S
H1041 C1037 0.930 . S
H1042 C1039 0.929 . S
S1043 N1044 1.613 . S
S1043 N1045 1.610 . S
N1044 S1043 1.613 . S
N1044 C1047 1.350 . S
N1045 S1043 1.610 . S
N1045 C1046 1.351 . S
C1046 C1040 1.428 . S
C1046 N1045 1.351 . S
C1046 C1047 1.434 . S
C1047 C1038 1.429 . S
C1047 N1044 1.350 . S
C1047 C1046 1.434 . S
C1048 C1049 1.369 . S
C1048 C1050 1.419 . S
C1048 H1052 0.930 . S
C1049 C1048 1.369 . S
C1049 C1058 1.429 . S
C1050 C1048 1.419 . S
C1050 C1051 1.363 . S
C1050 H1053 0.929 . S
C1051 C1050 1.363 . S
C1051 C1057 1.428 . S
H1052 C1048 0.930 . S
H1053 C1050 0.929 . S
S1054 N1055 1.613 . S
S1054 N1056 1.610 . S
N1055 S1054 1.613 . S
N1055 C1058 1.350 . S
N1056 S1054 1.610 . S
N1056 C1057 1.351 . S
C1057 C1051 1.428 . S
C1057 N1056 1.351 . S
C1057 C1058 1.434 . S
C1058 C1049 1.429 . S
C1058 N1055 1.350 . S
C1058 C1057 1.434 . S
C1059 C1060 1.369 . S
C1059 C1061 1.419 . S
C1059 H1063 0.930 . S
C1060 C1059 1.369 . S
C1060 C1069 1.429 . S
C1061 C1059 1.419 . S
C1061 C1062 1.363 . S
C1061 H1064 0.929 . S
C1062 C1061 1.363 . S
C1062 C1068 1.428 . S
H1063 C1059 0.930 . S
H1064 C1061 0.929 . S
S1065 N1066 1.613 . S
S1065 N1067 1.610 . S
N1066 S1065 1.613 . S
N1066 C1069 1.350 . S
N1067 S1065 1.610 . S
N1067 C1068 1.351 . S
C1068 C1062 1.428 . S
C1068 N1067 1.351 . S
C1068 C1069 1.434 . S
C1069 C1060 1.429 . S
C1069 N1066 1.350 . S
C1069 C1068 1.434 . S
C1070 C1071 1.369 . S
C1070 C1072 1.419 . S
C1070 H1074 0.930 . S
C1071 C1070 1.369 . S
C1071 C1080 1.429 . S
C1072 C1070 1.419 . S
C1072 C1073 1.363 . S
C1072 H1075 0.929 . S
C1073 C1072 1.363 . S
C1073 C1079 1.428 . S
H1074 C1070 0.930 . S
H1075 C1072 0.929 . S
S1076 N1077 1.613 . S
S1076 N1078 1.610 . S
N1077 S1076 1.613 . S
N1077 C1080 1.350 . S
N1078 S1076 1.610 . S
N1078 C1079 1.351 . S
C1079 C1073 1.428 . S
C1079 N1078 1.351 . S
C1079 C1080 1.434 . S
C1080 C1071 1.429 . S
C1080 N1077 1.350 . S
C1080 C1079 1.434 . S
C1081 C1082 1.369 . S
C1081 C1083 1.419 . S
C1081 H1085 0.930 . S
C1082 C1081 1.369 . S
C1082 C1091 1.429 . S
C1083 C1081 1.419 . S
C1083 C1084 1.363 . S
C1083 H1086 0.929 . S
C1084 C1083 1.363 . S
C1084 C1090 1.428 . S
H1085 C1081 0.930 . S
H1086 C1083 0.929 . S
S1087 N1088 1.613 . S
S1087 N1089 1.610 . S
N1088 S1087 1.613 . S
N1088 C1091 1.350 . S
N1089 S1087 1.610 . S
N1089 C1090 1.351 . S
C1090 C1084 1.428 . S
C1090 N1089 1.351 . S
C1090 C1091 1.434 . S
C1091 C1082 1.429 . S
C1091 N1088 1.350 . S
C1091 C1090 1.434 . S
C1092 C1093 1.369 . S
C1092 C1094 1.419 . S
C1092 H1096 0.930 . S
C1093 C1092 1.369 . S
C1093 C1102 1.429 . S
C1094 C1092 1.419 . S
C1094 C1095 1.363 . S
C1094 H1097 0.929 . S
C1095 C1094 1.363 . S
C1095 C1101 1.428 . S
H1096 C1092 0.930 . S
H1097 C1094 0.929 . S
S1098 N1099 1.613 . S
S1098 N1100 1.610 1_554 S
N1099 S1098 1.613 . S
N1099 C1102 1.350 1_554 S
N1100 S1098 1.610 1_556 S
N1100 C1101 1.351 . S
C1101 C1095 1.428 . S
C1101 N1100 1.351 . S
C1101 C1102 1.434 . S
C1102 C1093 1.429 . S
C1102 N1099 1.350 1_556 S
C1102 C1101 1.434 . S
C1103 C1104 1.369 . S
C1103 C1105 1.419 . S
C1103 H1107 0.930 . S
C1104 C1103 1.369 . S
C1104 C1113 1.429 . S
C1105 C1103 1.419 . S
C1105 C1106 1.363 . S
C1105 H1108 0.929 . S
C1106 C1105 1.363 . S
C1106 C1112 1.428 . S
H1107 C1103 0.930 . S
H1108 C1105 0.929 . S
S1109 N1110 1.613 . S
S1109 N1111 1.610 1_554 S
N1110 S1109 1.613 . S
N1110 C1113 1.350 1_554 S
N1111 S1109 1.610 1_556 S
N1111 C1112 1.351 . S
C1112 C1106 1.428 . S
C1112 N1111 1.351 . S
C1112 C1113 1.434 . S
C1113 C1104 1.429 . S
C1113 N1110 1.350 1_556 S
C1113 C1112 1.434 . S
C1114 C1115 1.369 . S
C1114 C1116 1.419 . S
C1114 H1118 0.930 . S
C1115 C1114 1.369 . S
C1115 C1124 1.429 . S
C1116 C1114 1.419 . S
C1116 C1117 1.363 . S
C1116 H1119 0.929 . S
C1117 C1116 1.363 . S
C1117 C1123 1.428 . S
H1118 C1114 0.930 . S
H1119 C1116 0.929 . S
S1120 N1121 1.613 1_554 S
S1120 N1122 1.610 1_554 S
N1121 S1120 1.613 1_556 S
N1121 C1124 1.353 . S
N1122 S1120 1.610 1_556 S
N1122 C1123 1.351 . S
C1123 C1117 1.428 . S
C1123 N1122 1.351 . S
C1123 C1124 1.434 . S
C1124 C1115 1.429 . S
C1124 N1121 1.353 . S
C1124 C1123 1.434 . S
C1125 C1126 1.369 . S
C1125 C1127 1.419 . S
C1125 H1129 0.930 . S
C1126 C1125 1.369 . S
C1126 C1135 1.429 . S
C1127 C1125 1.419 . S
C1127 C1128 1.363 . S
C1127 H1130 0.929 . S
C1128 C1127 1.363 . S
C1128 C1134 1.428 . S
H1129 C1125 0.930 . S
H1130 C1127 0.929 . S
S1131 N1132 1.613 . S
S1131 N1133 1.610 . S
N1132 S1131 1.613 . S
N1132 C1135 1.350 . S
N1133 S1131 1.610 . S
N1133 C1134 1.351 . S
C1134 C1128 1.428 . S
C1134 N1133 1.351 . S
C1134 C1135 1.434 . S
C1135 C1126 1.429 . S
C1135 N1132 1.350 . S
C1135 C1134 1.434 . S
C1136 C1137 1.369 . S
C1136 C1138 1.419 . S
C1136 H1140 0.930 . S
C1137 C1136 1.369 . S
C1137 C1146 1.429 . S
C1138 C1136 1.419 . S
C1138 C1139 1.363 . S
C1138 H1141 0.929 . S
C1139 C1138 1.363 . S
C1139 C1145 1.428 . S
H1140 C1136 0.930 . S
H1141 C1138 0.929 . S
S1142 N1143 1.613 . S
S1142 N1144 1.610 . S
N1143 S1142 1.613 . S
N1143 C1146 1.350 . S
N1144 S1142 1.610 . S
N1144 C1145 1.351 . S
C1145 C1139 1.428 . S
C1145 N1144 1.351 . S
C1145 C1146 1.434 . S
C1146 C1137 1.429 . S
C1146 N1143 1.350 . S
C1146 C1145 1.434 . S
C1147 C1148 1.369 . S
C1147 C1149 1.419 . S
C1147 H1151 0.930 . S
C1148 C1147 1.369 . S
C1148 C1157 1.429 . S
C1149 C1147 1.419 . S
C1149 C1150 1.363 . S
C1149 H1152 0.929 . S
C1150 C1149 1.363 . S
C1150 C1156 1.428 . S
H1151 C1147 0.930 . S
H1152 C1149 0.929 . S
S1153 N1154 1.613 . S
S1153 N1155 1.610 . S
N1154 S1153 1.613 . S
N1154 C1157 1.350 . S
N1155 S1153 1.610 . S
N1155 C1156 1.351 . S
C1156 C1150 1.428 . S
C1156 N1155 1.351 . S
C1156 C1157 1.434 . S
C1157 C1148 1.429 . S
C1157 N1154 1.350 . S
C1157 C1156 1.434 . S
C1158 C1159 1.369 . S
C1158 C1160 1.419 . S
C1158 H1162 0.930 . S
C1159 C1158 1.369 . S
C1159 C1168 1.429 . S
C1160 C1158 1.419 . S
C1160 C1161 1.363 . S
C1160 H1163 0.929 . S
C1161 C1160 1.363 . S
C1161 C1167 1.428 . S
H1162 C1158 0.930 . S
H1163 C1160 0.929 . S
S1164 N1165 1.613 . S
S1164 N1166 1.610 . S
N1165 S1164 1.613 . S
N1165 C1168 1.350 . S
N1166 S1164 1.610 . S
N1166 C1167 1.351 . S
C1167 C1161 1.428 . S
C1167 N1166 1.351 . S
C1167 C1168 1.434 . S
C1168 C1159 1.429 . S
C1168 N1165 1.350 . S
C1168 C1167 1.434 . S
C1169 C1170 1.369 . S
C1169 C1171 1.419 . S
C1169 H1173 0.930 . S
C1170 C1169 1.369 . S
C1170 C1179 1.429 . S
C1171 C1169 1.419 . S
C1171 C1172 1.363 . S
C1171 H1174 0.929 . S
C1172 C1171 1.363 . S
C1172 C1178 1.428 . S
H1173 C1169 0.930 . S
H1174 C1171 0.929 . S
S1175 N1176 1.613 . S
S1175 N1177 1.610 . S
N1176 S1175 1.613 . S
N1176 C1179 1.350 . S
N1177 S1175 1.610 . S
N1177 C1178 1.351 . S
C1178 C1172 1.428 . S
C1178 N1177 1.351 . S
C1178 C1179 1.434 . S
C1179 C1170 1.429 . S
C1179 N1176 1.350 . S
C1179 C1178 1.434 . S
C1180 C1181 1.369 . S
C1180 C1182 1.419 . S
C1180 H1184 0.930 . S
C1181 C1180 1.369 . S
C1181 C1190 1.429 . S
C1182 C1180 1.419 . S
C1182 C1183 1.363 . S
C1182 H1185 0.929 . S
C1183 C1182 1.363 . S
C1183 C1189 1.428 . S
H1184 C1180 0.930 . S
H1185 C1182 0.929 . S
S1186 N1187 1.613 . S
S1186 N1188 1.610 . S
N1187 S1186 1.613 . S
N1187 C1190 1.350 . S
N1188 S1186 1.610 . S
N1188 C1189 1.351 . S
C1189 C1183 1.428 . S
C1189 N1188 1.351 . S
C1189 C1190 1.434 . S
C1190 C1181 1.429 . S
C1190 N1187 1.350 . S
C1190 C1189 1.434 . S
C1191 C1192 1.369 . S
C1191 C1193 1.419 . S
C1191 H1195 0.930 . S
C1192 C1191 1.369 . S
C1192 C1201 1.429 1_455 S
C1193 C1191 1.419 . S
C1193 C1194 1.363 . S
C1193 H1196 0.929 . S
C1194 C1193 1.363 . S
C1194 C1200 1.428 1_455 S
H1195 C1191 0.930 . S
H1196 C1193 0.929 . S
S1197 N1198 1.613 . S
S1197 N1199 1.610 . S
N1198 S1197 1.613 . S
N1198 C1201 1.350 . S
N1199 S1197 1.610 . S
N1199 C1200 1.351 . S
C1200 C1194 1.428 1_655 S
C1200 N1199 1.351 . S
C1200 C1201 1.434 . S
C1201 C1192 1.429 1_655 S
C1201 N1198 1.350 . S
C1201 C1200 1.434 . S
C1202 C1203 1.369 . S
C1202 C1204 1.419 . S
C1202 H1206 0.930 . S
C1203 C1202 1.369 . S
C1203 C1212 1.429 . S
C1204 C1202 1.419 . S
C1204 C1205 1.363 . S
C1204 H1207 0.929 . S
C1205 C1204 1.363 . S
C1205 C1211 1.428 . S
H1206 C1202 0.930 . S
H1207 C1204 0.929 . S
S1208 N1209 1.613 . S
S1208 N1210 1.610 . S
N1209 S1208 1.613 . S
N1209 C1212 1.350 . S
N1210 S1208 1.610 . S
N1210 C1211 1.351 . S
C1211 C1205 1.428 . S
C1211 N1210 1.351 . S
C1211 C1212 1.434 . S
C1212 C1203 1.429 . S
C1212 N1209 1.350 . S
C1212 C1211 1.434 . S
C1213 C1214 1.369 . S
C1213 C1215 1.419 . S
C1213 H1217 0.930 . S
C1214 C1213 1.369 . S
C1214 C1223 1.429 . S
C1215 C1213 1.419 . S
C1215 C1216 1.363 . S
C1215 H1218 0.929 . S
C1216 C1215 1.363 . S
C1216 C1222 1.428 . S
H1217 C1213 0.930 . S
H1218 C1215 0.929 . S
S1219 N1220 1.613 . S
S1219 N1221 1.610 . S
N1220 S1219 1.613 . S
N1220 C1223 1.350 . S
N1221 S1219 1.610 . S
N1221 C1222 1.351 . S
C1222 C1216 1.428 . S
C1222 N1221 1.351 . S
C1222 C1223 1.434 . S
C1223 C1214 1.429 . S
C1223 N1220 1.350 . S
C1223 C1222 1.434 . S
C1224 C1225 1.369 . S
C1224 C1226 1.419 . S
C1224 H1228 0.930 . S
C1225 C1224 1.369 . S
C1225 C1234 1.429 1_565 S
C1226 C1224 1.419 . S
C1226 C1227 1.363 . S
C1226 H1229 0.929 . S
C1227 C1226 1.363 . S
C1227 C1233 1.428 1_565 S
H1228 C1224 0.930 . S
H1229 C1226 0.929 . S
S1230 N1231 1.613 . S
S1230 N1232 1.610 . S
N1231 S1230 1.613 . S
N1231 C1234 1.350 . S
N1232 S1230 1.610 . S
N1232 C1233 1.351 . S
C1233 C1227 1.428 1_545 S
C1233 N1232 1.351 . S
C1233 C1234 1.434 . S
C1234 C1225 1.429 1_545 S
C1234 N1231 1.350 . S
C1234 C1233 1.434 . S
C1235 C1236 1.369 1_655 S
C1235 C1237 1.419 . S
C1235 H1239 0.930 . S
C1236 C1235 1.369 1_455 S
C1236 C1245 1.429 . S
C1237 C1235 1.419 . S
C1237 C1238 1.363 1_655 S
C1237 H1240 0.929 . S
C1238 C1237 1.363 1_455 S
C1238 C1244 1.428 . S
H1239 C1235 0.930 . S
H1240 C1237 0.929 . S
S1241 N1242 1.613 . S
S1241 N1243 1.610 . S
N1242 S1241 1.613 . S
N1242 C1245 1.350 . S
N1243 S1241 1.610 . S
N1243 C1244 1.351 . S
C1244 C1238 1.428 . S
C1244 N1243 1.351 . S
C1244 C1245 1.434 . S
C1245 C1236 1.429 . S
C1245 N1242 1.350 . S
C1245 C1244 1.434 . S
C1246 C1247 1.369 . S
C1246 C1248 1.419 . S
C1246 H1250 0.930 . S
C1247 C1246 1.369 . S
C1247 C1256 1.429 . S
C1248 C1246 1.419 . S
C1248 C1249 1.363 . S
C1248 H1251 0.929 . S
C1249 C1248 1.363 . S
C1249 C1255 1.428 . S
H1250 C1246 0.930 . S
H1251 C1248 0.929 . S
S1252 N1253 1.613 . S
S1252 N1254 1.610 . S
N1253 S1252 1.613 . S
N1253 C1256 1.350 . S
N1254 S1252 1.610 . S
N1254 C1255 1.351 . S
C1255 C1249 1.428 . S
C1255 N1254 1.351 . S
C1255 C1256 1.434 . S
C1256 C1247 1.429 . S
C1256 N1253 1.350 . S
C1256 C1255 1.434 . S
C1257 C1258 1.369 . S
C1257 C1259 1.419 . S
C1257 H1261 0.930 . S
C1258 C1257 1.369 . S
C1258 C1267 1.429 . S
C1259 C1257 1.419 . S
C1259 C1260 1.363 . S
C1259 H1262 0.929 . S
C1260 C1259 1.363 . S
C1260 C1266 1.428 . S
H1261 C1257 0.930 . S
H1262 C1259 0.929 . S
S1263 N1264 1.613 . S
S1263 N1265 1.610 . S
N1264 S1263 1.613 . S
N1264 C1267 1.350 . S
N1265 S1263 1.610 . S
N1265 C1266 1.351 . S
C1266 C1260 1.428 . S
C1266 N1265 1.351 . S
C1266 C1267 1.434 . S
C1267 C1258 1.429 . S
C1267 N1264 1.350 . S
C1267 C1266 1.434 . S
C1268 C1269 1.369 . S
C1268 C1270 1.419 . S
C1268 H1272 0.930 . S
C1269 C1268 1.369 . S
C1269 C1278 1.429 . S
C1270 C1268 1.419 . S
C1270 C1271 1.363 . S
C1270 H1273 0.929 . S
C1271 C1270 1.363 . S
C1271 C1277 1.428 . S
H1272 C1268 0.930 . S
H1273 C1270 0.929 . S
S1274 N1275 1.613 . S
S1274 N1276 1.610 . S
N1275 S1274 1.613 . S
N1275 C1278 1.350 . S
N1276 S1274 1.610 . S
N1276 C1277 1.351 . S
C1277 C1271 1.428 . S
C1277 N1276 1.351 . S
C1277 C1278 1.434 . S
C1278 C1269 1.429 . S
C1278 N1275 1.350 . S
C1278 C1277 1.434 . S
C1279 C1280 1.369 . S
C1279 C1281 1.419 . S
C1279 H1283 0.930 . S
C1280 C1279 1.369 . S
C1280 C1289 1.429 . S
C1281 C1279 1.419 . S
C1281 C1282 1.363 . S
C1281 H1284 0.929 . S
C1282 C1281 1.363 . S
C1282 C1288 1.428 . S
H1283 C1279 0.930 . S
H1284 C1281 0.929 . S
S1285 N1286 1.613 . S
S1285 N1287 1.610 . S
N1286 S1285 1.613 . S
N1286 C1289 1.350 . S
N1287 S1285 1.610 . S
N1287 C1288 1.351 . S
C1288 C1282 1.428 . S
C1288 N1287 1.351 . S
C1288 C1289 1.434 . S
C1289 C1280 1.429 . S
C1289 N1286 1.350 . S
C1289 C1288 1.434 . S
C1290 C1291 1.369 1_565 S
C1290 C1292 1.419 . S
C1290 H1294 0.930 . S
C1291 C1290 1.369 1_545 S
C1291 C1300 1.429 . S
C1292 C1290 1.419 . S
C1292 C1293 1.363 1_565 S
C1292 H1295 0.929 . S
C1293 C1292 1.363 1_545 S
C1293 C1299 1.428 . S
H1294 C1290 0.930 . S
H1295 C1292 0.929 . S
S1296 N1297 1.613 . S
S1296 N1298 1.610 . S
N1297 S1296 1.613 . S
N1297 C1300 1.350 . S
N1298 S1296 1.610 . S
N1298 C1299 1.351 . S
C1299 C1293 1.428 . S
C1299 N1298 1.351 . S
C1299 C1300 1.434 . S
C1300 C1291 1.429 . S
C1300 N1297 1.350 . S
C1300 C1299 1.434 . S
C1301 C1302 1.369 . S
C1301 C1303 1.419 . S
C1301 H1305 0.930 . S
C1302 C1301 1.369 . S
C1302 C1311 1.422 1_655 S
C1303 C1301 1.419 . S
C1303 C1304 1.363 . S
C1303 H1306 0.929 . S
C1304 C1303 1.363 . S
C1304 C1310 1.428 1_655 S
H1305 C1301 0.930 . S
H1306 C1303 0.929 . S
S1307 N1308 1.613 . S
S1307 N1309 1.610 . S
N1308 S1307 1.613 . S
N1308 C1311 1.369 . S
N1309 S1307 1.610 . S
N1309 C1310 1.351 . S
C1310 C1304 1.428 1_455 S
C1310 N1309 1.351 . S
C1310 C1311 1.421 . S
C1311 C1302 1.422 1_455 S
C1311 N1308 1.369 . S
C1311 C1310 1.421 . S
C1312 C1313 1.369 . S
C1312 C1314 1.419 . S
C1312 H1316 0.930 . S
C1313 C1312 1.369 . S
C1313 C1322 1.429 . S
C1314 C1312 1.419 . S
C1314 C1315 1.363 . S
C1314 H1317 0.929 . S
C1315 C1314 1.363 . S
C1315 C1321 1.428 . S
H1316 C1312 0.930 . S
H1317 C1314 0.929 . S
S1318 N1319 1.613 . S
S1318 N1320 1.610 . S
N1319 S1318 1.613 . S
N1319 C1322 1.350 . S
N1320 S1318 1.610 . S
N1320 C1321 1.351 . S
C1321 C1315 1.428 . S
C1321 N1320 1.351 . S
C1321 C1322 1.434 . S
C1322 C1313 1.429 . S
C1322 N1319 1.350 . S
C1322 C1321 1.434 . S
C1323 C1324 1.369 . S
C1323 C1325 1.419 . S
C1323 H1327 0.930 . S
C1324 C1323 1.369 . S
C1324 C1333 1.429 . S
C1325 C1323 1.419 . S
C1325 C1326 1.363 . S
C1325 H1328 0.929 . S
C1326 C1325 1.363 . S
C1326 C1332 1.428 . S
H1327 C1323 0.930 . S
H1328 C1325 0.929 . S
S1329 N1330 1.613 . S
S1329 N1331 1.610 . S
N1330 S1329 1.613 . S
N1330 C1333 1.350 . S
N1331 S1329 1.610 . S
N1331 C1332 1.351 . S
C1332 C1326 1.428 . S
C1332 N1331 1.351 . S
C1332 C1333 1.434 . S
C1333 C1324 1.429 . S
C1333 N1330 1.350 . S
C1333 C1332 1.434 . S
C1334 C1335 1.369 . S
C1334 C1336 1.419 . S
C1334 H1338 0.930 . S
C1335 C1334 1.369 . S
C1335 C1344 1.429 . S
C1336 C1334 1.419 . S
C1336 C1337 1.363 . S
C1336 H1339 0.929 . S
C1337 C1336 1.363 . S
C1337 C1343 1.428 . S
H1338 C1334 0.930 . S
H1339 C1336 0.929 . S
S1340 N1341 1.613 . S
S1340 N1342 1.610 . S
N1341 S1340 1.613 . S
N1341 C1344 1.350 . S
N1342 S1340 1.610 . S
N1342 C1343 1.351 . S
C1343 C1337 1.428 . S
C1343 N1342 1.351 . S
C1343 C1344 1.434 . S
C1344 C1335 1.429 . S
C1344 N1341 1.350 . S
C1344 C1343 1.434 . S
C1345 C1346 1.369 . S
C1345 C1347 1.419 . S
C1345 H1349 0.930 . S
C1346 C1345 1.369 . S
C1346 C1355 1.429 . S
C1347 C1345 1.419 . S
C1347 C1348 1.363 . S
C1347 H1350 0.929 . S
C1348 C1347 1.363 . S
C1348 C1354 1.428 . S
H1349 C1345 0.930 . S
H1350 C1347 0.929 . S
S1351 N1352 1.613 . S
S1351 N1353 1.610 . S
N1352 S1351 1.613 . S
N1352 C1355 1.350 . S
N1353 S1351 1.610 . S
N1353 C1354 1.351 . S
C1354 C1348 1.428 . S
C1354 N1353 1.351 . S
C1354 C1355 1.434 . S
C1355 C1346 1.429 . S
C1355 N1352 1.350 . S
C1355 C1354 1.434 . S
C1356 C1357 1.369 . S
C1356 C1358 1.419 . S
C1356 H1360 0.930 . S
C1357 C1356 1.369 . S
C1357 C1366 1.429 . S
C1358 C1356 1.419 . S
C1358 C1359 1.363 . S
C1358 H1361 0.929 . S
C1359 C1358 1.363 . S
C1359 C1365 1.428 . S
H1360 C1356 0.930 . S
H1361 C1358 0.929 . S
S1362 N1363 1.613 . S
S1362 N1364 1.610 . S
N1363 S1362 1.613 . S
N1363 C1366 1.350 . S
N1364 S1362 1.610 . S
N1364 C1365 1.351 . S
C1365 C1359 1.428 . S
C1365 N1364 1.351 . S
C1365 C1366 1.434 . S
C1366 C1357 1.429 . S
C1366 N1363 1.350 . S
C1366 C1365 1.434 . S
C1367 C1368 1.369 . S
C1367 C1369 1.419 . S
C1367 H1371 0.930 . S
C1368 C1367 1.369 . S
C1368 C1377 1.429 . S
C1369 C1367 1.419 . S
C1369 C1370 1.363 . S
C1369 H1372 0.929 . S
C1370 C1369 1.363 . S
C1370 C1376 1.428 . S
H1371 C1367 0.930 . S
H1372 C1369 0.929 . S
S1373 N1374 1.613 . S
S1373 N1375 1.610 . S
N1374 S1373 1.613 . S
N1374 C1377 1.350 . S
N1375 S1373 1.610 . S
N1375 C1376 1.351 . S
C1376 C1370 1.428 . S
C1376 N1375 1.351 . S
C1376 C1377 1.434 . S
C1377 C1368 1.429 . S
C1377 N1374 1.350 . S
C1377 C1376 1.434 . S
C1378 C1379 1.369 . S
C1378 C1380 1.419 . S
C1378 H1382 0.930 . S
C1379 C1378 1.369 . S
C1379 C1388 1.429 . S
C1380 C1378 1.419 . S
C1380 C1381 1.363 . S
C1380 H1383 0.929 . S
C1381 C1380 1.363 . S
C1381 C1387 1.428 . S
H1382 C1378 0.930 . S
H1383 C1380 0.929 . S
S1384 N1385 1.613 . S
S1384 N1386 1.610 . S
N1385 S1384 1.613 . S
N1385 C1388 1.350 . S
N1386 S1384 1.610 . S
N1386 C1387 1.351 . S
C1387 C1381 1.428 . S
C1387 N1386 1.351 . S
C1387 C1388 1.434 . S
C1388 C1379 1.429 . S
C1388 N1385 1.350 . S
C1388 C1387 1.434 . S
C1389 C1390 1.369 . S
C1389 C1391 1.419 . S
C1389 H1393 0.930 . S
C1390 C1389 1.369 . S
C1390 C1399 1.429 1_655 S
C1391 C1389 1.419 . S
C1391 C1392 1.363 . S
C1391 H1394 0.929 . S
C1392 C1391 1.363 . S
C1392 C1398 1.428 1_655 S
H1393 C1389 0.930 . S
H1394 C1391 0.929 . S
S1395 N1396 1.613 . S
S1395 N1397 1.610 . S
N1396 S1395 1.613 . S
N1396 C1399 1.350 . S
N1397 S1395 1.610 . S
N1397 C1398 1.351 . S
C1398 C1392 1.428 1_455 S
C1398 N1397 1.351 . S
C1398 C1399 1.434 . S
C1399 C1390 1.429 1_455 S
C1399 N1396 1.350 . S
C1399 C1398 1.434 . S
C1400 C1401 1.369 . S
C1400 C1402 1.419 . S
C1400 H1404 0.930 . S
C1401 C1400 1.369 . S
C1401 C1410 1.429 . S
C1402 C1400 1.419 . S
C1402 C1403 1.363 . S
C1402 H1405 0.929 . S
C1403 C1402 1.363 . S
C1403 C1409 1.428 . S
H1404 C1400 0.930 . S
H1405 C1402 0.929 . S
S1406 N1407 1.613 . S
S1406 N1408 1.610 . S
N1407 S1406 1.613 . S
N1407 C1410 1.350 . S
N1408 S1406 1.610 . S
N1408 C1409 1.351 . S
C1409 C1403 1.428 . S
C1409 N1408 1.351 . S
C1409 C1410 1.434 . S
C1410 C1401 1.429 . S
C1410 N1407 1.350 . S
C1410 C1409 1.434 . S
C1411 C1412 1.369 1_565 S
C1411 C1413 1.419 . S
C1411 H1415 0.930 . S
C1412 C1411 1.369 1_545 S
C1412 C1421 1.429 . S
C1413 C1411 1.419 . S
C1413 C1414 1.363 1_565 S
C1413 H1416 0.929 . S
C1414 C1413 1.363 1_545 S
C1414 C1420 1.428 . S
H1415 C1411 0.930 . S
H1416 C1413 0.929 . S
S1417 N1418 1.613 . S
S1417 N1419 1.610 . S
N1418 S1417 1.613 . S
N1418 C1421 1.350 . S
N1419 S1417 1.610 . S
N1419 C1420 1.351 . S
C1420 C1414 1.428 . S
C1420 N1419 1.351 . S
C1420 C1421 1.434 . S
C1421 C1412 1.429 . S
C1421 N1418 1.350 . S
C1421 C1420 1.434 . S
C631 C8 1.552 . S
C633 C458 1.481 1_655 S
C642 C22 1.543 . S
C644 C471 1.513 . S
C655 C500 1.455 1_545 S
C653 C37 1.557 1_545 S
C664 C36 1.535 . S
C666 C513 1.508 . S
C675 C9 1.559 1_455 S
C677 C534 1.520 . S
C686 C23 1.546 . S
C688 C563 1.471 . S
C697 C50 1.549 . S
C699 C542 1.507 . S
C710 C555 1.487 . S
C708 C64 1.530 . S
C721 C521 1.490 1_545 S
C719 C79 1.524 . S
C730 C78 1.524 1_545 S
C732 C492 1.485 1_545 S
C743 C450 1.487 . S
C741 C51 1.536 . S
C752 C65 1.533 . S
C754 C479 1.489 . S
C763 C92 1.554 . S
C765 C584 1.484 . S
C774 C106 1.543 . S
C776 C597 1.516 . S
C787 C626 1.472 . S
C785 C121 1.544 . S
C796 C120 1.537 . S
C798 C261 1.506 . S
C807 C93 1.550 . S
C809 C282 1.520 . S
C818 C107 1.543 . S
C820 C311 1.472 . S
C829 C134 1.540 . S
C831 C290 1.493 . S
C840 C148 1.529 . S
C842 C303 1.480 . S
C853 C269 1.484 . S
C851 C163 1.526 . S
C864 C618 1.480 . S
C862 C162 1.525 . S
C875 C576 1.483 . S
C873 C135 1.531 . S
C886 C605 1.487 . S
C884 C149 1.530 . S
C895 C176 1.551 . S
C897 C332 1.480 . S
C906 C190 1.545 . S
C908 C345 1.512 . S
C917 C205 1.541 . S
C919 C374 1.474 . S
C928 C204 1.537 . S
C930 C387 1.511 . S
C941 C408 1.519 . S
C939 C177 1.550 . S
C952 C437 1.478 . S
C950 C191 1.548 . S
C963 C416 1.494 . S
C961 C218 1.541 . S
C974 C429 1.480 . S
C972 C232 1.528 . S
C983 C247 1.524 . S
C985 C395 1.487 . S
C996 C366 1.482 . S
C994 C246 1.525 . S
C1005 C219 1.533 . S
C1007 C324 1.484 . S
C1018 C353 1.487 . S
C1016 C233 1.531 . S
C1029 C264 1.396 . S
C1027 C6 1.477 . S
C1038 C20 1.467 . S
C1040 C285 1.393 . S
C1051 C313 1.417 . S
C1049 C35 1.471 . S
C1062 C334 1.415 . S
C1060 C34 1.457 . S
C1073 C348 1.396 . S
C1071 C7 1.467 . S
C1084 C376 1.416 . S
C1082 C21 1.471 . S
C1093 C48 1.486 . S
C1095 C369 1.393 . S
C1104 C62 1.475 . S
C1106 C327 1.384 . S
C1115 C77 1.477 . S
C1117 C355 1.430 . S
C1126 C76 1.470 . S
C1128 C292 1.418 . S
C1139 C306 1.384 . S
C1137 C49 1.485 . S
C1148 C63 1.476 . S
C1150 C271 1.433 . S
C1161 C390 1.399 . S
C1159 C90 1.475 . S
C1170 C104 1.469 . S
C1172 C411 1.385 . S
C1181 C119 1.470 . S
C1183 C439 1.415 . S
C1194 C460 1.412 . S
C1192 C118 1.465 . S
C1203 C91 1.471 . S
C1205 C474 1.394 . S
C1214 C105 1.470 . S
C1216 C502 1.419 . S
C1225 C132 1.489 . S
C1227 C495 1.394 . S
C1236 C146 1.478 . S
C1238 C453 1.377 . S
C1249 C481 1.422 . S
C1247 C161 1.480 . S
C1258 C160 1.468 . S
C1260 C418 1.420 . S
C1269 C133 1.479 . S
C1271 C432 1.380 . S
C1282 C397 1.433 . S
C1280 C147 1.477 . S
C1293 C516 1.423 . S
C1291 C174 1.474 . S
C1302 C188 1.470 . S
C1304 C537 1.385 1_655 S
C1313 C203 1.468 . S
C1315 C565 1.422 . S
C1326 C586 1.413 . S
C1324 C202 1.464 . S
C1337 C600 1.391 . S
C1335 C175 1.468 . S
C1346 C189 1.466 . S
C1348 C628 1.420 . S
C1357 C216 1.492 . S
C1359 C621 1.389 . S
C1368 C230 1.476 . S
C1370 C579 1.377 . S
C1381 C607 1.423 . S
C1379 C245 1.479 . S
C1392 C544 1.422 1_655 S
C1390 C244 1.468 . S
C1403 C558 1.389 . S
C1401 C217 1.483 . S
C1412 C231 1.477 . S
C1414 C523 1.433 1_545 S
