# Generated by pormake.
# Topology ptr, (4,4)-cn, num edge types: 1
# Building blocks:
#     Node 0, Type 0, BuildingBlock: UXUYUI_clean_sbu_0, # of connection points: 4
#     Node 1, Type 0, BuildingBlock: UXUYUI_clean_sbu_0, # of connection points: 4
#     Node 2, Type 0, BuildingBlock: UXUYUI_clean_sbu_0, # of connection points: 4
#     Node 3, Type 0, BuildingBlock: UXUYUI_clean_sbu_0, # of connection points: 4
#     Node 4, Type 0, BuildingBlock: UXUYUI_clean_sbu_0, # of connection points: 4
#     Node 5, Type 0, BuildingBlock: UXUYUI_clean_sbu_0, # of connection points: 4
#     Node 6, Type 0, BuildingBlock: UXUYUI_clean_sbu_0, # of connection points: 4
#     Node 7, Type 0, BuildingBlock: UXUYUI_clean_sbu_0, # of connection points: 4
#     Node 8, Type 0, BuildingBlock: UXUYUI_clean_sbu_0, # of connection points: 4
#     Node 9, Type 0, BuildingBlock: UXUYUI_clean_sbu_0, # of connection points: 4
#     Node 10, Type 0, BuildingBlock: UXUYUI_clean_sbu_0, # of connection points: 4
#     Node 11, Type 0, BuildingBlock: UXUYUI_clean_sbu_0, # of connection points: 4
#     Node 12, Type 0, BuildingBlock: UXUYUI_clean_sbu_0, # of connection points: 4
#     Node 13, Type 0, BuildingBlock: UXUYUI_clean_sbu_0, # of connection points: 4
#     Node 14, Type 0, BuildingBlock: UXUYUI_clean_sbu_0, # of connection points: 4
#     Node 15, Type 0, BuildingBlock: UXUYUI_clean_sbu_0, # of connection points: 4
#     Node 16, Type 0, BuildingBlock: UXUYUI_clean_sbu_0, # of connection points: 4
#     Node 17, Type 0, BuildingBlock: UXUYUI_clean_sbu_0, # of connection points: 4
#     Node 18, Type 1, BuildingBlock: MIFKUJ_clean_linker_1, # of connection points: 4
#     Node 19, Type 1, BuildingBlock: MIFKUJ_clean_linker_1, # of connection points: 4
#     Node 20, Type 1, BuildingBlock: MIFKUJ_clean_linker_1, # of connection points: 4
#     Node 21, Type 1, BuildingBlock: MIFKUJ_clean_linker_1, # of connection points: 4
#     Node 22, Type 1, BuildingBlock: MIFKUJ_clean_linker_1, # of connection points: 4
#     Node 23, Type 1, BuildingBlock: MIFKUJ_clean_linker_1, # of connection points: 4
#     Node 24, Type 1, BuildingBlock: MIFKUJ_clean_linker_1, # of connection points: 4
#     Node 25, Type 1, BuildingBlock: MIFKUJ_clean_linker_1, # of connection points: 4
#     Node 26, Type 1, BuildingBlock: MIFKUJ_clean_linker_1, # of connection points: 4
#     Node 27, Type 1, BuildingBlock: MIFKUJ_clean_linker_1, # of connection points: 4
#     Node 28, Type 1, BuildingBlock: MIFKUJ_clean_linker_1, # of connection points: 4
#     Node 29, Type 1, BuildingBlock: MIFKUJ_clean_linker_1, # of connection points: 4
#     Node 30, Type 1, BuildingBlock: MIFKUJ_clean_linker_1, # of connection points: 4
#     Node 31, Type 1, BuildingBlock: MIFKUJ_clean_linker_1, # of connection points: 4
#     Node 32, Type 1, BuildingBlock: MIFKUJ_clean_linker_1, # of connection points: 4
#     Node 33, Type 1, BuildingBlock: MIFKUJ_clean_linker_1, # of connection points: 4
#     Node 34, Type 1, BuildingBlock: MIFKUJ_clean_linker_1, # of connection points: 4
#     Node 35, Type 1, BuildingBlock: MIFKUJ_clean_linker_1, # of connection points: 4
#     Edge 36, Type (0, 1), BuildingBlock: AJUNOK_clean_linker_0, # of connection points: 2
#     Edge 37, Type (0, 1), BuildingBlock: AJUNOK_clean_linker_0, # of connection points: 2
#     Edge 38, Type (0, 1), BuildingBlock: AJUNOK_clean_linker_0, # of connection points: 2
#     Edge 39, Type (0, 1), BuildingBlock: AJUNOK_clean_linker_0, # of connection points: 2
#     Edge 40, Type (0, 1), BuildingBlock: AJUNOK_clean_linker_0, # of connection points: 2
#     Edge 41, Type (0, 1), BuildingBlock: AJUNOK_clean_linker_0, # of connection points: 2
#     Edge 42, Type (0, 1), BuildingBlock: AJUNOK_clean_linker_0, # of connection points: 2
#     Edge 43, Type (0, 1), BuildingBlock: AJUNOK_clean_linker_0, # of connection points: 2
#     Edge 44, Type (0, 1), BuildingBlock: AJUNOK_clean_linker_0, # of connection points: 2
#     Edge 45, Type (0, 1), BuildingBlock: AJUNOK_clean_linker_0, # of connection points: 2
#     Edge 46, Type (0, 1), BuildingBlock: AJUNOK_clean_linker_0, # of connection points: 2
#     Edge 47, Type (0, 1), BuildingBlock: AJUNOK_clean_linker_0, # of connection points: 2
#     Edge 48, Type (0, 1), BuildingBlock: AJUNOK_clean_linker_0, # of connection points: 2
#     Edge 49, Type (0, 1), BuildingBlock: AJUNOK_clean_linker_0, # of connection points: 2
#     Edge 50, Type (0, 1), BuildingBlock: AJUNOK_clean_linker_0, # of connection points: 2
#     Edge 51, Type (0, 1), BuildingBlock: AJUNOK_clean_linker_0, # of connection points: 2
#     Edge 52, Type (0, 1), BuildingBlock: AJUNOK_clean_linker_0, # of connection points: 2
#     Edge 53, Type (0, 1), BuildingBlock: AJUNOK_clean_linker_0, # of connection points: 2
#     Edge 54, Type (0, 1), BuildingBlock: AJUNOK_clean_linker_0, # of connection points: 2
#     Edge 55, Type (0, 1), BuildingBlock: AJUNOK_clean_linker_0, # of connection points: 2
#     Edge 56, Type (0, 1), BuildingBlock: AJUNOK_clean_linker_0, # of connection points: 2
#     Edge 57, Type (0, 1), BuildingBlock: AJUNOK_clean_linker_0, # of connection points: 2
#     Edge 58, Type (0, 1), BuildingBlock: AJUNOK_clean_linker_0, # of connection points: 2
#     Edge 59, Type (0, 1), BuildingBlock: AJUNOK_clean_linker_0, # of connection points: 2
#     Edge 60, Type (0, 1), BuildingBlock: AJUNOK_clean_linker_0, # of connection points: 2
#     Edge 61, Type (0, 1), BuildingBlock: AJUNOK_clean_linker_0, # of connection points: 2
#     Edge 62, Type (0, 1), BuildingBlock: AJUNOK_clean_linker_0, # of connection points: 2
#     Edge 63, Type (0, 1), BuildingBlock: AJUNOK_clean_linker_0, # of connection points: 2
#     Edge 64, Type (0, 1), BuildingBlock: AJUNOK_clean_linker_0, # of connection points: 2
#     Edge 65, Type (0, 1), BuildingBlock: AJUNOK_clean_linker_0, # of connection points: 2
#     Edge 66, Type (0, 1), BuildingBlock: AJUNOK_clean_linker_0, # of connection points: 2
#     Edge 67, Type (0, 1), BuildingBlock: AJUNOK_clean_linker_0, # of connection points: 2
#     Edge 68, Type (0, 1), BuildingBlock: AJUNOK_clean_linker_0, # of connection points: 2
#     Edge 69, Type (0, 1), BuildingBlock: AJUNOK_clean_linker_0, # of connection points: 2
#     Edge 70, Type (0, 1), BuildingBlock: AJUNOK_clean_linker_0, # of connection points: 2
#     Edge 71, Type (0, 1), BuildingBlock: AJUNOK_clean_linker_0, # of connection points: 2
#     Edge 72, Type (0, 1), BuildingBlock: AJUNOK_clean_linker_0, # of connection points: 2
#     Edge 73, Type (0, 1), BuildingBlock: AJUNOK_clean_linker_0, # of connection points: 2
#     Edge 74, Type (0, 1), BuildingBlock: AJUNOK_clean_linker_0, # of connection points: 2
#     Edge 75, Type (0, 1), BuildingBlock: AJUNOK_clean_linker_0, # of connection points: 2
#     Edge 76, Type (0, 1), BuildingBlock: AJUNOK_clean_linker_0, # of connection points: 2
#     Edge 77, Type (0, 1), BuildingBlock: AJUNOK_clean_linker_0, # of connection points: 2
#     Edge 78, Type (0, 1), BuildingBlock: AJUNOK_clean_linker_0, # of connection points: 2
#     Edge 79, Type (0, 1), BuildingBlock: AJUNOK_clean_linker_0, # of connection points: 2
#     Edge 80, Type (0, 1), BuildingBlock: AJUNOK_clean_linker_0, # of connection points: 2
#     Edge 81, Type (0, 1), BuildingBlock: AJUNOK_clean_linker_0, # of connection points: 2
#     Edge 82, Type (0, 1), BuildingBlock: AJUNOK_clean_linker_0, # of connection points: 2
#     Edge 83, Type (0, 1), BuildingBlock: AJUNOK_clean_linker_0, # of connection points: 2
#     Edge 84, Type (0, 1), BuildingBlock: AJUNOK_clean_linker_0, # of connection points: 2
#     Edge 85, Type (0, 1), BuildingBlock: AJUNOK_clean_linker_0, # of connection points: 2
#     Edge 86, Type (0, 1), BuildingBlock: AJUNOK_clean_linker_0, # of connection points: 2
#     Edge 87, Type (0, 1), BuildingBlock: AJUNOK_clean_linker_0, # of connection points: 2
#     Edge 88, Type (0, 1), BuildingBlock: AJUNOK_clean_linker_0, # of connection points: 2
#     Edge 89, Type (0, 1), BuildingBlock: AJUNOK_clean_linker_0, # of connection points: 2
#     Edge 90, Type (0, 1), BuildingBlock: AJUNOK_clean_linker_0, # of connection points: 2
#     Edge 91, Type (0, 1), BuildingBlock: AJUNOK_clean_linker_0, # of connection points: 2
#     Edge 92, Type (0, 1), BuildingBlock: AJUNOK_clean_linker_0, # of connection points: 2
#     Edge 93, Type (0, 1), BuildingBlock: AJUNOK_clean_linker_0, # of connection points: 2
#     Edge 94, Type (0, 1), BuildingBlock: AJUNOK_clean_linker_0, # of connection points: 2
#     Edge 95, Type (0, 1), BuildingBlock: AJUNOK_clean_linker_0, # of connection points: 2
#     Edge 96, Type (0, 1), BuildingBlock: AJUNOK_clean_linker_0, # of connection points: 2
#     Edge 97, Type (0, 1), BuildingBlock: AJUNOK_clean_linker_0, # of connection points: 2
#     Edge 98, Type (0, 1), BuildingBlock: AJUNOK_clean_linker_0, # of connection points: 2
#     Edge 99, Type (0, 1), BuildingBlock: AJUNOK_clean_linker_0, # of connection points: 2
#     Edge 100, Type (0, 1), BuildingBlock: AJUNOK_clean_linker_0, # of connection points: 2
#     Edge 101, Type (0, 1), BuildingBlock: AJUNOK_clean_linker_0, # of connection points: 2
#     Edge 102, Type (0, 1), BuildingBlock: AJUNOK_clean_linker_0, # of connection points: 2
#     Edge 103, Type (0, 1), BuildingBlock: AJUNOK_clean_linker_0, # of connection points: 2
#     Edge 104, Type (0, 1), BuildingBlock: AJUNOK_clean_linker_0, # of connection points: 2
#     Edge 105, Type (0, 1), BuildingBlock: AJUNOK_clean_linker_0, # of connection points: 2
#     Edge 106, Type (0, 1), BuildingBlock: AJUNOK_clean_linker_0, # of connection points: 2
#     Edge 107, Type (0, 1), BuildingBlock: AJUNOK_clean_linker_0, # of connection points: 2
# Relax obj value: 0.094
# Max RMSD: 0.272
# Mean RMSD: 0.119
data_MOF--net-ptr--node1-UXUYUI_clean_sbu_0--node2-MIFKUJ_clean_linker_1--edge1-AJUNOK_clean_linker_0
_symmetry_space_group_name_H-M    P1
_symmetry_Int_Tables_number       1
_symmetry_cell_setting            triclinic
loop_
_symmetry_equiv_pos_as_xyz
'x, y, z'
_cell_length_a     88.51211
_cell_length_b     88.507481
_cell_length_c     58.105488
_cell_angle_alpha  90.10595
_cell_angle_beta   89.903107
_cell_angle_gamma 120.11634
loop_
_atom_site_label
_atom_site_type_symbol
_atom_site_fract_x
_atom_site_fract_y
_atom_site_fract_z
_atom_type_partial_charge
Li0 Li 0.98783 0.33505 0.0066 0.0
Li1 Li 0.01804 0.35098 0.02126 0.0
Li2 Li 0.99645 0.35948 0.0334 0.0
Li3 Li 0.0081 0.36548 0.99442 0.0
C4 C 0.98293 0.32619 0.0538 0.0
N5 N 0.9565 0.30436 0.0834 0.0
C6 C 0.98593 0.31654 0.0703 0.0
C7 C 0.96652 0.32477 0.05236 0.0
C8 C 0.97239 0.30556 0.08511 0.0
C9 C 0.95332 0.31367 0.06748 0.0
C10 C 0.02368 0.34826 0.9741 0.0
C11 C 0.05373 0.36682 0.96287 0.0
N12 N 0.05103 0.35646 0.9442 0.0
C13 C 0.02118 0.3378 0.95482 0.0
C14 C 0.04007 0.36288 0.97818 0.0
C15 C 0.03517 0.34217 0.9399 0.0
C16 C 0.96195 0.31366 0.97571 0.0
N17 N 0.96994 0.31325 0.99545 0.0
C18 C 0.95394 0.28203 0.99553 0.0
C19 C 0.96618 0.29789 0.00554 0.0
C20 C 0.94579 0.28208 0.97484 0.0
C21 C 0.94971 0.29815 0.9651 0.0
H22 H 0.96536 0.32609 0.968 0.0
H23 H 0.97296 0.29795 0.02102 0.0
C24 C 0.04702 0.35904 0.04891 0.0
N25 N 0.03676 0.34829 0.03185 0.0
C26 C 0.06022 0.35678 0.05843 0.0
C27 C 0.05203 0.33242 0.03261 0.0
C28 C 0.039 0.33518 0.02354 0.0
C29 C 0.0628 0.34329 0.05033 0.0
H30 H 0.04466 0.36913 0.05547 0.0
H31 H 0.03047 0.3267 0.01015 0.0
C32 C 0.97105 0.35939 0.00195 0.0
N33 N 0.94584 0.36891 0.99759 0.0
C34 C 0.97592 0.37688 0.9984 0.0
C35 C 0.95333 0.34671 0.00287 0.0
C36 C 0.96299 0.38143 0.99634 0.0
C37 C 0.94079 0.3518 0.00076 0.0
C38 C 0.03067 0.39235 0.02518 0.0
C39 C 0.02231 0.40214 0.02694 0.0
C40 C 0.04892 0.40087 0.02513 0.0
C41 C 0.03234 0.42033 0.02821 0.0
C42 C 0.05849 0.41908 0.02641 0.0
N43 N 0.05007 0.42836 0.02789 0.0
C44 C 0.00318 0.37775 0.07448 0.0
C45 C 0.97474 0.36865 0.06052 0.0
C46 C 0.00111 0.38726 0.09214 0.0
N47 N 0.99026 0.36904 0.0588 0.0
C48 C 0.97208 0.37796 0.07798 0.0
C49 C 0.98549 0.38765 0.09385 0.0
H50 H 0.01542 0.37788 0.07266 0.0
H51 H 0.96456 0.3615 0.04807 0.0
C52 C 0.00041 0.37678 0.95377 0.0
N53 N 0.0136 0.38098 0.96897 0.0
C54 C 0.00232 0.38832 0.93618 0.0
C55 C 0.03178 0.40781 0.94924 0.0
C56 C 0.02929 0.39588 0.96663 0.0
C57 C 0.018 0.40428 0.93416 0.0
H58 H 0.98815 0.36472 0.95585 0.0
H59 H 0.03977 0.39873 0.97847 0.0
O60 O 0.99604 0.33691 0.03912 0.0
O61 O 0.01006 0.34417 0.98876 0.0
O62 O 0.98348 0.3546 0.00394 0.0
O63 O 0.02112 0.37451 0.02384 0.0
H64 H 0.99859 0.3175 0.0716 0.0
H65 H 0.96402 0.33216 0.03972 0.0
H66 H 0.97451 0.29798 0.09796 0.0
H67 H 0.94054 0.31245 0.06654 0.0
H68 H 0.06649 0.3781 0.96582 0.0
H69 H 0.00854 0.32644 0.95142 0.0
H70 H 0.04223 0.37111 0.99299 0.0
H71 H 0.03343 0.33419 0.9249 0.0
H72 H 0.95126 0.26987 0.00348 0.0
H73 H 0.94347 0.2987 0.94937 0.0
H74 H 0.06797 0.36517 0.07244 0.0
H75 H 0.05361 0.32185 0.02597 0.0
H76 H 0.98951 0.38681 0.99695 0.0
H77 H 0.94928 0.33307 0.00524 0.0
H78 H 0.96659 0.39492 0.99364 0.0
H79 H 0.92705 0.34213 0.00158 0.0
H80 H 0.00825 0.39579 0.02756 0.0
H81 H 0.05563 0.3935 0.02395 0.0
H82 H 0.02602 0.42806 0.02952 0.0
H83 H 0.07261 0.42585 0.02624 0.0
H84 H 0.01193 0.39483 0.10369 0.0
H85 H 0.95981 0.37787 0.0788 0.0
H86 H 0.99139 0.3851 0.92486 0.0
H87 H 0.04424 0.41978 0.94784 0.0
Li88 Li 0.66565 0.64826 0.00132 0.0
Li89 Li 0.65227 0.66376 0.01702 0.0
Li90 Li 0.64199 0.63397 0.02839 0.0
Li91 Li 0.63616 0.64013 0.99019 0.0
C92 C 0.67496 0.64973 0.04738 0.0
N93 N 0.69426 0.6399 0.07433 0.0
C94 C 0.68383 0.6596 0.06671 0.0
C95 C 0.67591 0.63487 0.04174 0.0
C96 C 0.69352 0.65441 0.08012 0.0
C97 C 0.68573 0.63011 0.05558 0.0
C98 C 0.67218 0.67773 0.97698 0.0
C99 C 0.68849 0.69836 0.94698 0.0
N100 N 0.70125 0.70815 0.96242 0.0
C101 C 0.68546 0.68799 0.99256 0.0
C102 C 0.67369 0.68292 0.95401 0.0
C103 C 0.70004 0.70333 0.98486 0.0
C104 C 0.6858 0.64135 0.97054 0.0
N105 N 0.68687 0.65071 0.98964 0.0
C106 C 0.71804 0.66508 0.98893 0.0
C107 C 0.70254 0.66231 0.99907 0.0
C108 C 0.71737 0.65573 0.96902 0.0
C109 C 0.70097 0.64364 0.95992 0.0
H110 H 0.67314 0.63235 0.96332 0.0
H111 H 0.70303 0.66975 0.01411 0.0
C112 C 0.65624 0.68651 0.05222 0.0
N113 N 0.65584 0.68534 0.0289 0.0
C114 C 0.65849 0.70159 0.06299 0.0
C115 C 0.66 0.71409 0.02548 0.0
C116 C 0.65758 0.69868 0.01541 0.0
C117 C 0.66033 0.71557 0.04956 0.0
H118 H 0.65475 0.67564 0.06245 0.0
H119 H 0.65703 0.69734 0.99689 0.0
C120 C 0.63224 0.60744 0.99621 0.0
N121 N 0.60611 0.57316 0.99007 0.0
C122 C 0.61519 0.602 0.00347 0.0
C123 C 0.63598 0.59545 0.98581 0.0
C124 C 0.60217 0.58462 1.00022 0.0
C125 C 0.6226 0.57817 0.98286 0.0
C126 C 0.61686 0.65116 0.01603 0.0
C127 C 0.60272 0.64667 0.03075 0.0
C128 C 0.61994 0.66256 0.99768 0.0
C129 C 0.59188 0.65366 0.02685 0.0
C130 C 0.6088 0.66928 0.99438 0.0
N131 N 0.59512 0.66473 0.00891 0.0
C132 C 0.62303 0.62164 0.06907 0.0
C133 C 0.63337 0.60335 0.05483 0.0
C134 C 0.61384 0.60975 0.08659 0.0
N135 N 0.63225 0.61809 0.05341 0.0
C136 C 0.62437 0.59109 0.07209 0.0
C137 C 0.61412 0.59407 0.08792 0.0
H138 H 0.62243 0.6335 0.06753 0.0
H139 H 0.64085 0.60087 0.04219 0.0
C140 C 0.62654 0.62724 0.94571 0.0
N141 N 0.62008 0.63045 0.96518 0.0
C142 C 0.61537 0.61777 0.92764 0.0
C143 C 0.59118 0.61574 0.94958 0.0
C144 C 0.60276 0.62494 0.96742 0.0
C145 C 0.59746 0.61182 0.9296 0.0
H146 H 0.64029 0.63141 0.94465 0.0
H147 H 0.59773 0.62694 0.98335 0.0
O148 O 0.66545 0.65474 0.03417 0.0
O149 O 0.65783 0.66254 0.98396 0.0
O150 O 0.64524 0.62442 0.99898 0.0
O151 O 0.62769 0.64457 0.0199 0.0
H152 H 0.68324 0.67115 0.07129 0.0
H153 H 0.66921 0.62708 0.02682 0.0
H154 H 0.70046 0.66193 0.09514 0.0
H155 H 0.68658 0.61864 0.05141 0.0
H156 H 0.68983 0.70254 0.92924 0.0
H157 H 0.68455 0.68418 0.0104 0.0
H158 H 0.66354 0.67508 0.94173 0.0
H159 H 0.71041 0.71138 0.99673 0.0
H160 H 0.73041 0.67481 0.9962 0.0
H161 H 0.69989 0.63614 0.94463 0.0
H162 H 0.65893 0.70238 0.0816 0.0
H163 H 0.66134 0.72463 0.01462 0.0
H164 H 0.612 0.61106 0.01153 0.0
H165 H 0.64911 0.59947 0.98006 0.0
H166 H 0.58894 0.58024 0.00576 0.0
H167 H 0.62532 0.56875 0.97484 0.0
H168 H 0.60015 0.63787 0.04503 0.0
H169 H 0.63075 0.66616 0.98605 0.0
H170 H 0.58089 0.65029 0.03811 0.0
H171 H 0.61103 0.67811 0.98025 0.0
H172 H 0.60606 0.6125 0.09844 0.0
H173 H 0.62516 0.57928 0.07282 0.0
H174 H 0.62057 0.6148 0.91252 0.0
H175 H 0.57736 0.61099 0.95181 0.0
Li176 Li 0.35695 0.99387 0.9878 0.0
Li177 Li 0.36333 0.00464 0.02668 0.0
Li178 Li 0.33344 0.98677 0.0145 0.0
Li179 Li 0.35036 0.01599 0.00045 0.0
C180 C 0.34409 0.96251 0.01179 0.0
N181 N 0.32887 0.92721 0.00255 0.0
C182 C 0.34737 0.9518 0.02608 0.0
C183 C 0.33308 0.95527 0.99278 0.0
C184 C 0.33956 0.93399 0.02112 0.0
C185 C 0.32551 0.9374 0.98841 0.0
C186 C 0.39035 0.02149 0.99477 0.0
C187 C 0.41955 0.04006 0.9804 0.0
N188 N 0.42398 0.02812 0.98732 0.0
C189 C 0.39519 0.00939 0.00174 0.0
C190 C 0.40261 0.03694 0.984 0.0
C191 C 0.41225 0.01299 0.99782 0.0
C192 C 0.36955 0.99691 0.94291 0.0
N193 N 0.3664 0.98747 0.96256 0.0
C194 C 0.38245 0.97436 0.94823 0.0
C195 C 0.37242 0.97616 0.96538 0.0
C196 C 0.38658 0.98449 0.92816 0.0
C197 C 0.37969 0.99563 0.92538 0.0
H198 H 0.36503 0.00618 0.94145 0.0
H199 H 0.37035 0.96927 0.98144 0.0
C200 C 0.37322 0.99522 0.06682 0.0
N201 N 0.37855 0.00879 0.05196 0.0
C202 C 0.38427 0.99586 0.08434 0.0
C203 C 0.40582 0.02482 0.07165 0.0
C204 C 0.39431 0.02362 0.05432 0.0
C205 C 0.40098 0.0106 0.0865 0.0
H206 H 0.36054 0.98368 0.06461 0.0
H207 H 0.39822 0.03425 0.04229 0.0
C208 C 0.32053 0.99481 0.97548 0.0
N209 N 0.29094 0.99551 0.96211 0.0
C210 C 0.31108 0.99855 0.99155 0.0
C211 C 0.31494 0.99144 0.95262 0.0
C212 C 0.29616 0.99884 0.98446 0.0
C213 C 0.29994 0.99185 0.94619 0.0
C214 C 0.34915 0.02283 0.04701 0.0
C215 C 0.3392 0.02206 0.06612 0.0
C216 C 0.36486 0.03818 0.04241 0.0
C217 C 0.34513 0.03669 0.08036 0.0
C218 C 0.37035 0.05252 0.05706 0.0
N219 N 0.36045 0.05149 0.07557 0.0
C220 C 0.3099 0.96818 0.04895 0.0
C221 C 0.29785 0.9584 0.01177 0.0
C222 C 0.29434 0.95578 0.05926 0.0
N223 N 0.31134 0.96929 0.02566 0.0
C224 C 0.28197 0.94585 0.02138 0.0
C225 C 0.28011 0.9445 0.04542 0.0
H226 H 0.32092 0.97695 0.05951 0.0
H227 H 0.29943 0.95941 0.99328 0.0
C228 C 0.3573 0.04278 0.96954 0.0
N229 N 0.3491 0.03561 0.98974 0.0
C230 C 0.35532 0.05589 0.95914 0.0
C231 C 0.33673 0.05419 0.99075 0.0
C232 C 0.33903 0.04108 0.00052 0.0
C233 C 0.34482 0.06164 0.96969 0.0
H234 H 0.36499 0.03796 0.96121 0.0
H235 H 0.3323 0.03486 0.01629 0.0
O236 O 0.35156 0.97995 0.01663 0.0
O237 O 0.37363 0.01816 0.99794 0.0
O238 O 0.3353 0.99461 0.98186 0.0
O239 O 0.34343 0.00853 0.03301 0.0
H240 H 0.35588 0.9572 0.04085 0.0
H241 H 0.3304 0.96332 0.98145 0.0
H242 H 0.34198 0.92554 0.03204 0.0
H243 H 0.31695 0.93162 0.97377 0.0
H244 H 0.42918 0.05197 0.97207 0.0
H245 H 0.38588 0.99731 0.01001 0.0
H246 H 0.39903 0.04639 0.97841 0.0
H247 H 0.41616 0.00373 0.00309 0.0
H248 H 0.38757 0.96567 0.95107 0.0
H249 H 0.38293 0.00403 0.91048 0.0
H250 H 0.37994 0.9848 0.09579 0.0
H251 H 0.4186 0.03641 0.07284 0.0
H252 H 0.31519 0.00121 0.00932 0.0
H253 H 0.32215 0.98857 0.93996 0.0
H254 H 0.28873 0.00172 0.99671 0.0
H255 H 0.29547 0.98928 0.92854 0.0
H256 H 0.327 0.01027 0.0699 0.0
H257 H 0.37274 0.0391 0.02768 0.0
H258 H 0.33755 0.03628 0.09522 0.0
H259 H 0.38247 0.06448 0.05369 0.0
H260 H 0.29337 0.95511 0.07786 0.0
H261 H 0.27136 0.93715 0.01018 0.0
H262 H 0.36174 0.06132 0.94287 0.0
H263 H 0.32821 0.05799 0.99915 0.0
Li264 Li 0.0142 0.66409 0.0165 0.0
Li265 Li 0.99372 0.63493 0.02935 0.0
Li266 Li 0.00544 0.63908 0.98991 0.0
Li267 Li 0.98423 0.64773 0.00052 0.0
C268 C 0.03543 0.6493 0.01516 0.0
N269 N 0.06988 0.6595 0.00594 0.0
C270 C 0.0439 0.64235 0.02786 0.0
C271 C 0.04446 0.66142 0.99774 0.0
C272 C 0.06133 0.64768 0.02295 0.0
C273 C 0.06187 0.66641 0.99335 0.0
C274 C 0.98437 0.65332 0.05378 0.0
C275 C 0.9591 0.64199 0.07848 0.0
N276 N 0.9697 0.64655 0.09722 0.0
C277 C 0.99503 0.65806 0.07326 0.0
C278 C 0.96627 0.64536 0.05637 0.0
C279 C 0.98736 0.65445 0.09508 0.0
C280 C 0.03555 0.70118 0.0177 0.0
N281 N 0.03248 0.68591 0.02732 0.0
C282 C 0.05414 0.70125 0.0561 0.0
C283 C 0.04153 0.68565 0.04604 0.0
C284 C 0.05752 0.71723 0.04666 0.0
C285 C 0.04818 0.71712 0.02709 0.0
H286 H 0.02791 0.70098 0.00311 0.0
H287 H 0.03868 0.6733 0.05346 0.0
C288 C 0.97261 0.60507 0.05775 0.0
N289 N 0.98833 0.6199 0.05527 0.0
C290 C 0.97012 0.59316 0.07515 0.0
C291 C 0.99984 0.61232 0.0876 0.0
C292 C 0.00174 0.62385 0.06999 0.0
C293 C 0.98402 0.59652 0.08993 0.0
H294 H 0.9622 0.60213 0.04578 0.0
H295 H 0.01414 0.6357 0.06753 0.0
C296 C 0.00313 0.6649 0.96163 0.0
N297 N 0.99486 0.67095 0.91804 0.0
C298 C 0.99312 0.65093 0.94684 0.0
C299 C 0.00889 0.68196 0.95425 0.0
C300 C 0.98909 0.65424 0.92487 0.0
C301 C 0.00459 0.68475 0.93215 0.0
C302 C 0.96501 0.61207 0.99289 0.0
C303 C 0.96309 0.60292 0.97243 0.0
C304 C 0.95017 0.60909 0.00517 0.0
C305 C 0.94633 0.59098 0.96459 0.0
C306 C 0.93365 0.59705 0.99675 0.0
N307 N 0.93208 0.58832 0.9768 0.0
C308 C 0.0085 0.61167 0.97366 0.0
C309 C 0.01963 0.63492 0.94676 0.0
C310 C 0.01048 0.60093 0.95787 0.0
N311 N 0.01249 0.62808 0.96762 0.0
C312 C 0.02161 0.62451 0.93025 0.0
C313 C 0.0164 0.60707 0.93552 0.0
H314 H 0.00311 0.60671 0.99053 0.0
H315 H 0.02313 0.64818 0.94259 0.0
C316 C 0.96345 0.66359 0.99815 0.0
N317 N 0.96568 0.65077 0.98868 0.0
C318 C 0.95108 0.66736 0.98908 0.0
C319 C 0.94342 0.64458 0.96086 0.0
C320 C 0.95596 0.64132 0.97036 0.0
C321 C 0.941 0.65786 0.97007 0.0
H322 H 0.97149 0.67108 0.01252 0.0
H323 H 0.95815 0.6315 0.96264 0.0
O324 O 0.01836 0.64416 0.01983 0.0
O325 O 0.99161 0.65638 0.03227 0.0
O326 O 0.00696 0.66191 0.98339 0.0
O327 O 0.98133 0.62388 0.00074 0.0
H328 H 0.03708 0.63292 0.04137 0.0
H329 H 0.03816 0.66696 0.9877 0.0
H330 H 0.06805 0.64241 0.03265 0.0
H331 H 0.06902 0.67578 0.97994 0.0
H332 H 0.9451 0.63577 0.08075 0.0
H333 H 0.00906 0.66426 0.07155 0.0
H334 H 0.95785 0.64185 0.04148 0.0
H335 H 0.99544 0.65791 0.11031 0.0
H336 H 0.06111 0.70085 0.07118 0.0
H337 H 0.05025 0.72921 0.01959 0.0
H338 H 0.95763 0.58123 0.07665 0.0
H339 H 0.01088 0.61535 0.09859 0.0
H340 H 0.98837 0.63764 0.95234 0.0
H341 H 0.01658 0.69296 0.96546 0.0
H342 H 0.98132 0.64352 0.9133 0.0
H343 H 0.00897 0.69789 0.92622 0.0
H344 H 0.97438 0.60507 0.96261 0.0
H345 H 0.9514 0.61612 0.02091 0.0
H346 H 0.94466 0.58384 0.94877 0.0
H347 H 0.92206 0.59468 0.00605 0.0
H348 H 0.00691 0.58777 0.96289 0.0
H349 H 0.02646 0.62978 0.91329 0.0
H350 H 0.94947 0.67762 0.99678 0.0
H351 H 0.93603 0.6371 0.94603 0.0
Li352 Li 0.33759 0.35129 0.01969 0.0
Li353 Li 0.36761 0.3593 0.03073 0.0
Li354 Li 0.36134 0.36668 0.99103 0.0
Li355 Li 0.35256 0.33665 0.00162 0.0
C356 C 0.35758 0.38897 0.02886 0.0
N357 N 0.3562 0.41798 0.04346 0.0
C358 C 0.36132 0.39451 0.05174 0.0
C359 C 0.35342 0.39837 0.01331 0.0
C360 C 0.36047 0.40915 0.05882 0.0
C361 C 0.35271 0.41295 0.02106 0.0
C362 C 0.34623 0.32925 0.05492 0.0
C363 C 0.35808 0.31582 0.07948 0.0
N364 N 0.34749 0.31527 0.09685 0.0
C365 C 0.33538 0.32845 0.07295 0.0
C366 C 0.35759 0.32278 0.05812 0.0
C367 C 0.33624 0.32137 0.09404 0.0
C368 C 0.30084 0.33535 0.02205 0.0
N369 N 0.31606 0.34786 0.03158 0.0
C370 C 0.30046 0.354 0.06019 0.0
C371 C 0.31614 0.35711 0.05031 0.0
C372 C 0.28456 0.34106 0.05087 0.0
C373 C 0.28483 0.33175 0.03143 0.0
H374 H 0.30116 0.32799 0.00736 0.0
H375 H 0.32837 0.36655 0.05802 0.0
C376 C 0.40112 0.3805 0.04743 0.0
N377 N 0.38458 0.3692 0.0546 0.0
C378 C 0.41402 0.39085 0.06332 0.0
C379 C 0.39287 0.37718 0.09387 0.0
C380 C 0.38029 0.36723 0.07734 0.0
C381 C 0.40981 0.38948 0.08679 0.0
H382 H 0.40407 0.38206 0.02922 0.0
H383 H 0.36695 0.35869 0.08263 0.0
C384 C 0.32811 0.34747 0.97054 0.0
N385 N 0.30786 0.35186 0.9381 0.0
C386 C 0.3233 0.33758 0.95031 0.0
C387 C 0.32251 0.35946 0.97438 0.0
C388 C 0.31309 0.34003 0.93408 0.0
C389 C 0.3123 0.36152 0.95775 0.0
C390 C 0.3871 0.35182 0.99091 0.0
C391 C 0.39116 0.35433 0.96747 0.0
C392 C 0.39404 0.34385 0.00466 0.0
C393 C 0.40184 0.34846 0.95805 0.0
C394 C 0.40467 0.33817 0.99459 0.0
N395 N 0.4083 0.34055 0.97169 0.0
C396 C 0.38529 0.39932 0.97407 0.0
C397 C 0.36684 0.38005 0.94503 0.0
C398 C 0.39528 0.41186 0.95761 0.0
N399 N 0.3715 0.38374 0.96753 0.0
C400 C 0.37641 0.3923 0.92799 0.0
C401 C 0.391 0.4083 0.93423 0.0
H402 H 0.38889 0.40172 0.99205 0.0
H403 H 0.35622 0.36736 0.94018 0.0
C404 C 0.34231 0.30047 0.00069 0.0
N405 N 0.34902 0.31551 0.98835 0.0
C406 C 0.33878 0.28488 0.98994 0.0
C407 C 0.34934 0.30065 0.95415 0.0
C408 C 0.35245 0.31584 0.9655 0.0
C409 C 0.34212 0.28483 0.96629 0.0
H410 H 0.33935 0.30049 0.01874 0.0
H411 H 0.35739 0.3279 0.956 0.0
O412 O 0.35862 0.37481 0.02156 0.0
O413 O 0.34556 0.33615 0.03418 0.0
O414 O 0.33816 0.34526 0.98652 0.0
O415 O 0.37661 0.35739 1.00041 0.0
H416 H 0.36471 0.38749 0.06396 0.0
H417 H 0.35094 0.39457 0.99541 0.0
H418 H 0.36321 0.41351 0.07651 0.0
H419 H 0.34946 0.42031 0.00923 0.0
H420 H 0.36685 0.31082 0.08223 0.0
H421 H 0.32643 0.3333 0.0707 0.0
H422 H 0.36591 0.32311 0.04426 0.0
H423 H 0.32797 0.32073 0.10818 0.0
H424 H 0.30077 0.36129 0.07535 0.0
H425 H 0.27281 0.32178 0.02366 0.0
H426 H 0.427 0.40023 0.05731 0.0
H427 H 0.38916 0.37598 0.11184 0.0
H428 H 0.32748 0.32817 0.94714 0.0
H429 H 0.32586 0.36698 0.9901 0.0
H430 H 0.30933 0.33252 0.9183 0.0
H431 H 0.30788 0.37077 0.96049 0.0
H432 H 0.386 0.36061 0.95664 0.0
H433 H 0.39131 0.34215 0.02291 0.0
H434 H 0.40498 0.3502 0.9399 0.0
H435 H 0.41008 0.33191 0.00501 0.0
H436 H 0.4065 0.42405 0.96303 0.0
H437 H 0.37296 0.38897 0.91007 0.0
H438 H 0.33313 0.27294 0.9999 0.0
H439 H 0.35252 0.30131 0.93604 0.0
Li440 Li 0.64946 0.98506 0.02014 0.0
Li441 Li 0.64064 0.00628 0.03125 0.0
Li442 Li 0.63534 0.99365 0.99162 0.0
Li443 Li 0.66474 0.01537 0.00312 0.0
C444 C 0.61523 0.96608 0.03182 0.0
N445 N 0.59474 0.93445 0.0536 0.0
C446 C 0.60965 0.96563 0.05447 0.0
C447 C 0.61022 0.95043 0.02018 0.0
C448 C 0.59933 0.94951 0.06519 0.0
C449 C 0.59992 0.93458 0.03152 0.0
C450 C 0.67306 0.0171 0.05476 0.0
C451 C 0.69262 0.04432 0.0737 0.0
N452 N 0.69209 0.03537 0.09297 0.0
C453 C 0.6729 0.00817 0.07467 0.0
C454 C 0.68316 0.03532 0.05419 0.0
C455 C 0.68253 0.01764 0.09383 0.0
C456 C 0.66122 0.96052 0.01913 0.0
N457 N 0.65276 0.96685 0.03198 0.0
C458 C 0.64998 0.94815 0.06329 0.0
C459 C 0.6472 0.96098 0.05369 0.0
C460 C 0.65869 0.94137 0.05048 0.0
C461 C 0.66436 0.9477 0.02811 0.0
H462 H 0.66582 0.96566 0.00208 0.0
H463 H 0.64081 0.96644 0.06373 0.0
C464 C 0.61473 0.01184 0.04761 0.0
N465 N 0.62967 0.01249 0.0547 0.0
C466 C 0.60378 0.01341 0.06348 0.0
C467 C 0.62412 0.01706 0.09365 0.0
C468 C 0.63469 0.01535 0.07715 0.0
C469 C 0.60821 0.01558 0.0869 0.0
H470 H 0.61102 0.00942 0.02967 0.0
H471 H 0.64647 0.0156 0.08248 0.0
C472 C 0.65459 0.9854 0.96626 0.0
N473 N 0.64894 0.97129 0.92252 0.0
C474 C 0.66257 0.99619 0.94727 0.0
C475 C 0.64392 0.96741 0.96304 0.0
C476 C 0.6595 0.98882 0.92528 0.0
C477 C 0.64117 0.96053 0.94079 0.0
C478 C 0.6479 0.03527 0.00046 0.0
C479 C 0.6448 0.04212 0.98052 0.0
C480 C 0.65469 0.04586 0.01992 0.0
C481 C 0.64895 0.05958 0.98024 0.0
C482 C 0.65865 0.06324 0.01898 0.0
N483 N 0.65575 0.06969 0.99931 0.0
C484 C 0.60291 0.97347 0.96858 0.0
C485 C 0.62465 0.99773 0.94785 0.0
C486 C 0.59048 0.97064 0.95179 0.0
N487 N 0.61951 0.98707 0.96653 0.0
C488 C 0.61264 0.99543 0.93072 0.0
C489 C 0.59517 0.9821 0.93298 0.0
H490 H 0.5991 0.96533 0.98375 0.0
H491 H 0.63789 0.00857 0.94683 0.0
C492 C 0.70162 0.03647 0.0007 0.0
N493 N 0.68629 0.03362 0.99149 0.0
C494 C 0.7175 0.04875 0.99082 0.0
C495 C 0.7015 0.05482 0.96216 0.0
C496 C 0.68596 0.04253 0.97266 0.0
C497 C 0.7175 0.05786 0.97108 0.0
H498 H 0.70149 0.0289 0.01537 0.0
H499 H 0.6736 0.03966 0.96528 0.0
O500 O 0.62542 0.98175 0.02107 0.0
O501 O 0.66382 0.00799 0.03576 0.0
O502 O 0.6572 0.99241 0.98788 0.0
O503 O 0.64386 0.01818 0.001 0.0
H504 H 0.61334 0.97758 0.06376 0.0
H505 H 0.61426 0.95051 0.00261 0.0
H506 H 0.595 0.94898 0.08275 0.0
H507 H 0.59602 0.92237 0.02275 0.0
H508 H 0.70043 0.05842 0.07349 0.0
H509 H 0.66535 0.99409 0.07541 0.0
H510 H 0.68385 0.04247 0.0388 0.0
H511 H 0.68242 0.01088 0.10939 0.0
H512 H 0.64541 0.94362 0.0806 0.0
H513 H 0.67149 0.94311 0.01787 0.0
H514 H 0.59173 0.01248 0.05761 0.0
H515 H 0.62792 0.0187 0.1116 0.0
H516 H 0.67094 0.01012 0.94944 0.0
H517 H 0.63784 0.95886 0.97757 0.0
H518 H 0.6655 0.99703 0.91041 0.0
H519 H 0.63288 0.94664 0.93804 0.0
H520 H 0.63934 0.03409 0.96537 0.0
H521 H 0.65672 0.0407 0.03568 0.0
H522 H 0.64674 0.06507 0.96486 0.0
H523 H 0.66397 0.07158 0.03392 0.0
H524 H 0.57719 0.96003 0.95394 0.0
H525 H 0.61676 0.00459 0.91655 0.0
H526 H 0.72963 0.05071 0.99808 0.0
H527 H 0.701 0.06172 0.94707 0.0
Li528 Li 0.65383 0.66973 0.33652 0.0
Li529 Li 0.68387 0.68458 0.35138 0.0
Li530 Li 0.66339 0.69454 0.36311 0.0
Li531 Li 0.67522 0.69988 0.32416 0.0
C532 C 0.64766 0.66177 0.38351 0.0
N533 N 0.61964 0.64257 0.41245 0.0
C534 C 0.64959 0.65345 0.40275 0.0
C535 C 0.63149 0.66034 0.37899 0.0
C536 C 0.63527 0.64379 0.41718 0.0
C537 C 0.61748 0.65057 0.39382 0.0
C538 C 0.68929 0.68006 0.30495 0.0
C539 C 0.71875 0.69761 0.29089 0.0
N540 N 0.7164 0.68418 0.27707 0.0
C541 C 0.68714 0.66644 0.2906 0.0
C542 C 0.70519 0.69577 0.30511 0.0
C543 C 0.70102 0.66877 0.27664 0.0
C544 C 0.62741 0.64874 0.30572 0.0
N545 N 0.63533 0.6482 0.32546 0.0
C546 C 0.6183 0.61703 0.32624 0.0
C547 C 0.63107 0.63281 0.33584 0.0
C548 C 0.61004 0.61719 0.30569 0.0
C549 C 0.61468 0.6333 0.29545 0.0
H550 H 0.63127 0.66119 0.29772 0.0
H551 H 0.63785 0.63276 0.35128 0.0
C552 C 0.7124 0.69161 0.37927 0.0
N553 N 0.70212 0.68111 0.36203 0.0
C554 C 0.72557 0.68918 0.38848 0.0
C555 C 0.71717 0.66501 0.36224 0.0
C556 C 0.70418 0.66796 0.35346 0.0
C557 C 0.72808 0.67574 0.37995 0.0
H558 H 0.71018 0.70171 0.38609 0.0
H559 H 0.69559 0.65961 0.34002 0.0
C560 C 0.64082 0.69786 0.33036 0.0
N561 N 0.62102 0.7136 0.32321 0.0
C562 C 0.64891 0.71601 0.32842 0.0
C563 C 0.62266 0.68769 0.32847 0.0
C564 C 0.63868 0.72373 0.32483 0.0
C565 C 0.61288 0.6959 0.32495 0.0
C566 C 0.69999 0.72599 0.35513 0.0
C567 C 0.69447 0.73806 0.35912 0.0
C568 C 0.71784 0.73185 0.35314 0.0
C569 C 0.70688 0.75581 0.36061 0.0
C570 C 0.72984 0.74972 0.35472 0.0
N571 N 0.72416 0.76123 0.35837 0.0
C572 C 0.67 0.71307 0.40416 0.0
C573 C 0.64179 0.70409 0.38936 0.0
C574 C 0.66758 0.72234 0.42184 0.0
N575 N 0.65735 0.70451 0.3881 0.0
C576 C 0.6388 0.71317 0.4068 0.0
C577 C 0.65189 0.72264 0.42317 0.0
H578 H 0.68224 0.71317 0.40274 0.0
H579 H 0.63182 0.69699 0.37663 0.0
C580 C 0.66803 0.70943 0.28225 0.0
N581 N 0.68086 0.71512 0.29836 0.0
C582 C 0.66902 0.72042 0.26445 0.0
C583 C 0.69702 0.74258 0.27912 0.0
C584 C 0.69546 0.73116 0.29676 0.0
C585 C 0.6834 0.73741 0.26318 0.0
H586 H 0.65662 0.69657 0.28388 0.0
H587 H 0.70561 0.73538 0.30953 0.0
O588 O 0.66161 0.67131 0.36931 0.0
O589 O 0.67589 0.67787 0.31891 0.0
O590 O 0.65056 0.68997 0.33363 0.0
O591 O 0.68807 0.70852 0.35373 0.0
H592 H 0.66205 0.65446 0.40649 0.0
H593 H 0.62973 0.66666 0.36419 0.0
H594 H 0.63657 0.63728 0.43214 0.0
H595 H 0.60489 0.64936 0.39052 0.0
H596 H 0.73113 0.70971 0.29085 0.0
H597 H 0.6749 0.65417 0.29035 0.0
H598 H 0.70703 0.70641 0.31609 0.0
H599 H 0.69957 0.65833 0.26547 0.0
H600 H 0.61528 0.60484 0.3344 0.0
H601 H 0.6086 0.63391 0.27958 0.0
H602 H 0.73343 0.69744 0.40252 0.0
H603 H 0.71866 0.65446 0.35532 0.0
H604 H 0.66294 0.72406 0.32936 0.0
H605 H 0.61619 0.67361 0.32977 0.0
H606 H 0.64479 0.73776 0.32324 0.0
H607 H 0.59881 0.6882 0.32354 0.0
H608 H 0.68078 0.73379 0.36126 0.0
H609 H 0.7224 0.72272 0.35029 0.0
H610 H 0.70278 0.76528 0.36364 0.0
H611 H 0.74368 0.75443 0.35307 0.0
H612 H 0.67814 0.72973 0.43381 0.0
H613 H 0.62649 0.71301 0.40732 0.0
H614 H 0.6584 0.71588 0.25219 0.0
H615 H 0.70835 0.75559 0.27859 0.0
Li616 Li 0.2994 0.97465 0.31984 0.0
Li617 Li 0.30338 0.96723 0.36007 0.0
Li618 Li 0.3152 0.99798 0.34991 0.0
Li619 Li 0.32811 0.98209 0.33539 0.0
C620 C 0.2814 0.98689 0.35467 0.0
N621 N 0.26496 0.00533 0.36639 0.0
C622 C 0.27315 0.98418 0.37601 0.0
C623 C 0.28133 0.99898 0.33929 0.0
C624 C 0.26487 0.99362 0.3816 0.0
C625 C 0.27295 0.00818 0.34555 0.0
C626 C 0.30041 0.94148 0.33457 0.0
C627 C 0.30207 0.91719 0.35037 0.0
N628 N 0.28501 0.90637 0.34486 0.0
C629 C 0.28292 0.93012 0.32894 0.0
C630 C 0.31011 0.93499 0.34527 0.0
C631 C 0.27536 0.91241 0.33433 0.0
C632 C 0.28835 0.95767 0.27751 0.0
N633 N 0.28407 0.96566 0.29418 0.0
C634 C 0.25649 0.95651 0.27628 0.0
C635 C 0.26853 0.96531 0.29387 0.0
C636 C 0.26045 0.9479 0.25901 0.0
C637 C 0.2767 0.9487 0.25966 0.0
H638 H 0.30053 0.95764 0.27865 0.0
H639 H 0.26518 0.97128 0.30767 0.0
C640 C 0.30026 0.94877 0.40171 0.0
N641 N 0.29154 0.9503 0.38345 0.0
C642 C 0.29115 0.9366 0.41904 0.0
C643 C 0.26431 0.92783 0.39836 0.0
C644 C 0.27392 0.94018 0.3815 0.0
C645 C 0.27291 0.92604 0.41753 0.0
H646 H 0.31425 0.95707 0.40296 0.0
H647 H 0.26733 0.94182 0.36688 0.0
C648 C 0.33588 0.00612 0.30367 0.0
N649 N 0.36543 0.02272 0.27647 0.0
C650 C 0.35064 0.02127 0.31154 0.0
C651 C 0.33611 0.9995 0.2819 0.0
C652 C 0.36545 0.02947 0.29752 0.0
C653 C 0.3512 0.00804 0.26844 0.0
C654 C 0.34197 0.99274 0.37793 0.0
C655 C 0.35276 0.01027 0.38398 0.0
C656 C 0.3475 0.98073 0.38213 0.0
C657 C 0.36899 0.01551 0.39401 0.0
C658 C 0.36384 0.98649 0.39214 0.0
N659 N 0.37415 0.00362 0.39783 0.0
C660 C 0.3155 0.01933 0.3853 0.0
C661 C 0.32506 0.0342 0.34967 0.0
C662 C 0.31879 0.03469 0.39635 0.0
N663 N 0.31884 0.01941 0.36246 0.0
C664 C 0.32879 0.04994 0.36012 0.0
C665 C 0.32595 0.05036 0.38387 0.0
H666 H 0.31044 0.00732 0.39497 0.0
H667 H 0.32739 0.03384 0.33146 0.0
C668 C 0.34779 0.97183 0.30871 0.0
N669 N 0.3495 0.98374 0.32486 0.0
C670 C 0.36251 0.97334 0.29767 0.0
C671 C 0.38059 0.99894 0.32067 0.0
C672 C 0.36551 0.99712 0.33099 0.0
C673 C 0.37911 0.98715 0.30349 0.0
H674 H 0.33492 0.96154 0.30377 0.0
H675 H 0.36663 0.00688 0.34307 0.0
O676 O 0.28986 0.97804 0.34904 0.0
O677 O 0.30792 0.95893 0.33003 0.0
O678 O 0.32142 0.99765 0.31738 0.0
O679 O 0.32596 0.98735 0.36833 0.0
H680 H 0.2732 0.97494 0.38815 0.0
H681 H 0.28787 0.00137 0.32282 0.0
H682 H 0.25842 0.99167 0.39806 0.0
H683 H 0.27285 0.01763 0.33386 0.0
H684 H 0.3094 0.91199 0.35874 0.0
H685 H 0.27519 0.93496 0.32079 0.0
H686 H 0.32368 0.94362 0.34963 0.0
H687 H 0.2618 0.90347 0.33022 0.0
H688 H 0.24405 0.95609 0.27648 0.0
H689 H 0.28005 0.9418 0.24711 0.0
H690 H 0.29827 0.93543 0.43341 0.0
H691 H 0.25025 0.91999 0.39666 0.0
H692 H 0.3508 0.02641 0.3285 0.0
H693 H 0.32482 0.9878 0.27556 0.0
H694 H 0.37701 0.04111 0.30348 0.0
H695 H 0.35161 0.00298 0.25164 0.0
H696 H 0.34871 0.01976 0.38085 0.0
H697 H 0.33935 0.96714 0.37748 0.0
H698 H 0.3775 0.02904 0.39871 0.0
H699 H 0.36833 0.97736 0.39536 0.0
H700 H 0.31583 0.03428 0.41451 0.0
H701 H 0.3342 0.06172 0.34985 0.0
H702 H 0.36094 0.964 0.28447 0.0
H703 H 0.39321 0.00989 0.32532 0.0
Li704 Li 0.02548 0.32708 0.32302 0.0
Li705 Li 0.03121 0.33981 0.36394 0.0
Li706 Li 0.002 0.32009 0.35008 0.0
Li707 Li 0.0171 0.34852 0.33488 0.0
C708 C 0.01298 0.29892 0.363 0.0
N709 N 0.99425 0.26619 0.38273 0.0
C710 C 0.0131 0.29699 0.38686 0.0
C711 C 0.00354 0.28417 0.34916 0.0
C712 C 0.0035 0.28034 0.39651 0.0
C713 C 0.9941 0.26775 0.35946 0.0
C714 C 0.0506 0.36921 0.32994 0.0
C715 C 0.06343 0.39894 0.34335 0.0
N716 N 0.06833 0.40471 0.32142 0.0
C717 C 0.05582 0.37542 0.30756 0.0
C718 C 0.05445 0.38104 0.34801 0.0
C719 C 0.06474 0.39342 0.3036 0.0
C720 C 0.03918 0.32885 0.27878 0.0
N721 N 0.03554 0.32034 0.29926 0.0
C722 C 0.05019 0.30513 0.28762 0.0
C723 C 0.04046 0.30837 0.30377 0.0
C724 C 0.05523 0.31463 0.26693 0.0
C725 C 0.04913 0.32621 0.26228 0.0
H726 H 0.03496 0.3382 0.27567 0.0
H727 H 0.03736 0.3018 0.32023 0.0
C728 C 0.04132 0.34362 0.41086 0.0
N729 N 0.04713 0.34644 0.38875 0.0
C730 C 0.05289 0.34654 0.42893 0.0
C731 C 0.07628 0.35606 0.40112 0.0
C732 C 0.06424 0.35274 0.3836 0.0
C733 C 0.07058 0.35268 0.42406 0.0
H734 H 0.02758 0.3385 0.41437 0.0
H735 H 0.06842 0.35467 0.36582 0.0
C736 C 0.9906 0.31606 0.30264 0.0
N737 N 0.96437 0.29431 0.27271 0.0
C738 C 0.97753 0.31976 0.29652 0.0
C739 C 0.99053 0.3015 0.29315 0.0
C740 C 0.96432 0.30854 0.28148 0.0
C741 C 0.9771 0.29061 0.27816 0.0
C742 C 0.99743 0.34545 0.37385 0.0
C743 C 0.98297 0.34022 0.35955 0.0
C744 C 0.9985 0.35394 0.3946 0.0
C745 C 0.9698 0.34362 0.36621 0.0
C746 C 0.98506 0.35711 0.40066 0.0
N747 N 0.9711 0.35193 0.38646 0.0
C748 C 0.97863 0.30215 0.38527 0.0
C749 C 0.96679 0.28977 0.34889 0.0
C750 C 0.96362 0.2895 0.39637 0.0
N751 N 0.98002 0.30204 0.36196 0.0
C752 C 0.95143 0.27693 0.35929 0.0
C753 C 0.94984 0.27664 0.38333 0.0
H754 H 0.98935 0.31201 0.3953 0.0
H755 H 0.9681 0.28971 0.33048 0.0
C756 C 0.01375 0.36749 0.29932 0.0
N757 N 0.01529 0.36741 0.32257 0.0
C758 C 0.01248 0.38086 0.28854 0.0
C759 C 0.01432 0.39382 0.32586 0.0
C760 C 0.01569 0.38023 0.33594 0.0
C761 C 0.01278 0.39424 0.30186 0.0
H762 H 0.01355 0.35714 0.28916 0.0
H763 H 0.01715 0.37996 0.35438 0.0
O764 O 0.02179 0.31519 0.35331 0.0
O765 O 0.04123 0.35165 0.33409 0.0
O766 O 0.00377 0.32705 0.3171 0.0
O767 O 0.01054 0.34233 0.3677 0.0
H768 H 0.02033 0.30823 0.39784 0.0
H769 H 0.00336 0.28539 0.33068 0.0
H770 H 0.00334 0.27868 0.41496 0.0
H771 H 0.98661 0.25625 0.34895 0.0
H772 H 0.06641 0.40824 0.35714 0.0
H773 H 0.05286 0.36646 0.29336 0.0
H774 H 0.05031 0.37644 0.36539 0.0
H775 H 0.06877 0.39841 0.28634 0.0
H776 H 0.05419 0.2957 0.2916 0.0
H777 H 0.05269 0.33377 0.24653 0.0
H778 H 0.04804 0.34372 0.44644 0.0
H779 H 0.08976 0.36046 0.39668 0.0
H780 H 0.97761 0.33122 0.3032 0.0
H781 H 0.00069 0.2986 0.29729 0.0
H782 H 0.95407 0.3112 0.2767 0.0
H783 H 0.97682 0.27923 0.27081 0.0
H784 H 0.98191 0.33356 0.34356 0.0
H785 H 0.00963 0.35806 0.40586 0.0
H786 H 0.95852 0.33963 0.3553 0.0
H787 H 0.98572 0.36369 0.41665 0.0
H788 H 0.96275 0.28981 0.41494 0.0
H789 H 0.94104 0.26715 0.34872 0.0
H790 H 0.01105 0.38063 0.27001 0.0
H791 H 0.01463 0.40398 0.33664 0.0
Li792 Li 0.682 0.99804 0.34585 0.0
Li793 Li 0.66155 0.96793 0.35686 0.0
Li794 Li 0.67352 0.97558 0.31783 0.0
Li795 Li 0.65232 0.98359 0.32915 0.0
C796 C 0.70154 0.98452 0.35756 0.0
N797 N 0.73337 0.99878 0.37973 0.0
C798 C 0.7022 0.98344 0.38149 0.0
C799 C 0.71704 0.99266 0.34487 0.0
C800 C 0.71843 0.99078 0.39239 0.0
C801 C 0.73301 0.99984 0.3564 0.0
C802 C 0.64506 0.98551 0.3754 0.0
C803 C 0.61513 0.96611 0.38649 0.0
N804 N 0.61595 0.97859 0.40097 0.0
C805 C 0.64561 0.99815 0.39036 0.0
C806 C 0.62971 0.96935 0.37341 0.0
C807 C 0.63075 0.99439 0.40316 0.0
C808 C 0.71094 0.03301 0.34509 0.0
N809 N 0.69987 0.01936 0.3586 0.0
C810 C 0.71332 0.03581 0.39265 0.0
C811 C 0.70075 0.02051 0.38194 0.0
C812 C 0.72487 0.05015 0.37917 0.0
C813 C 0.72365 0.04863 0.3551 0.0
H814 H 0.70983 0.03186 0.3266 0.0
H815 H 0.6916 0.00952 0.39223 0.0
C816 C 0.65819 0.93758 0.37483 0.0
N817 N 0.65597 0.95121 0.38066 0.0
C818 C 0.65671 0.92556 0.39143 0.0
C819 C 0.6506 0.94174 0.41988 0.0
C820 C 0.65219 0.95349 0.40267 0.0
C821 C 0.65324 0.92778 0.41438 0.0
H822 H 0.66179 0.93644 0.35741 0.0
H823 H 0.65112 0.96478 0.4071 0.0
C824 C 0.68182 0.004 0.29222 0.0
N825 N 0.69572 0.01484 0.24872 0.0
C826 C 0.67149 0.00463 0.27449 0.0
C827 C 0.69924 0.00896 0.28785 0.0
C828 C 0.67876 0.01014 0.25261 0.0
C829 C 0.70601 0.01436 0.26573 0.0
C830 C 0.64193 0.94861 0.30877 0.0
C831 C 0.63743 0.95407 0.28865 0.0
C832 C 0.64017 0.93202 0.30965 0.0
C833 C 0.63131 0.94284 0.26969 0.0
C834 C 0.63405 0.9212 0.2903 0.0
N835 N 0.62979 0.92679 0.27089 0.0
C836 C 0.68652 0.95498 0.3011 0.0
C837 C 0.67731 0.96649 0.27092 0.0
C838 C 0.68903 0.94438 0.28559 0.0
N839 N 0.68049 0.96554 0.29364 0.0
C840 C 0.6799 0.9563 0.25477 0.0
C841 C 0.68538 0.94477 0.26221 0.0
H842 H 0.68853 0.95412 0.31929 0.0
H843 H 0.67182 0.97432 0.26538 0.0
C844 C 0.63786 0.00349 0.3135 0.0
N845 N 0.63376 0.98709 0.3198 0.0
C846 C 0.625 0.00662 0.3048 0.0
C847 C 0.60378 0.97605 0.31023 0.0
C848 C 0.6171 0.97347 0.31861 0.0
C849 C 0.60774 0.99276 0.30295 0.0
H850 H 0.65124 0.01406 0.31472 0.0
H851 H 0.61423 0.96055 0.32369 0.0
O852 O 0.6858 0.97772 0.3466 0.0
O853 O 0.65946 0.98913 0.36257 0.0
O854 O 0.67498 0.9988 0.3138 0.0
O855 O 0.64841 0.95964 0.32728 0.0
H856 H 0.69033 0.97721 0.39158 0.0
H857 H 0.71673 0.99339 0.32631 0.0
H858 H 0.71914 0.99016 0.41092 0.0
H859 H 0.74512 0.00625 0.34681 0.0
H860 H 0.60317 0.95366 0.38513 0.0
H861 H 0.6574 0.01073 0.39203 0.0
H862 H 0.62905 0.95939 0.36196 0.0
H863 H 0.63098 0.00405 0.41482 0.0
H864 H 0.71381 0.03655 0.41127 0.0
H865 H 0.73247 0.05937 0.34415 0.0
H866 H 0.65864 0.91485 0.38647 0.0
H867 H 0.64806 0.94395 0.43745 0.0
H868 H 0.65797 0.00077 0.2775 0.0
H869 H 0.7074 0.00853 0.30134 0.0
H870 H 0.6709 0.01063 0.23871 0.0
H871 H 0.71945 0.01816 0.26209 0.0
H872 H 0.63899 0.96696 0.28748 0.0
H873 H 0.64356 0.92756 0.32503 0.0
H874 H 0.62791 0.94695 0.25396 0.0
H875 H 0.6327 0.90836 0.29071 0.0
H876 H 0.69321 0.93555 0.29187 0.0
H877 H 0.67671 0.95667 0.23686 0.0
H878 H 0.6285 0.01969 0.29942 0.0
H879 H 0.59064 0.96501 0.30877 0.0
Li880 Li 0.03316 0.69429 0.3644 0.0
Li881 Li 0.00344 0.68581 0.35284 0.0
Li882 Li 0.01937 0.67169 0.33583 0.0
Li883 Li 0.02742 0.70129 0.32455 0.0
C884 C 0.01344 0.66673 0.39005 0.0
N885 N 0.01767 0.65884 0.43472 0.0
C886 C 0.00314 0.66753 0.40774 0.0
C887 C 0.02573 0.6617 0.39504 0.0
C888 C 0.00551 0.66353 0.43022 0.0
C889 C 0.02772 0.65783 0.41774 0.0
C890 C 0.02139 0.72365 0.35709 0.0
C891 C 0.01346 0.74382 0.34091 0.0
N892 N 0.01668 0.75214 0.36154 0.0
C893 C 0.02489 0.73261 0.37803 0.0
C894 C 0.01587 0.72947 0.33829 0.0
C895 C 0.02232 0.74689 0.37998 0.0
C896 C 0.06578 0.70801 0.38771 0.0
N897 N 0.04876 0.70366 0.38977 0.0
C898 C 0.05406 0.71669 0.4271 0.0
C899 C 0.04269 0.70745 0.40915 0.0
C900 C 0.07182 0.72199 0.42505 0.0
C901 C 0.07762 0.71714 0.40539 0.0
H902 H 0.07031 0.70503 0.37198 0.0
H903 H 0.02911 0.7039 0.41027 0.0
C904 C 0.96659 0.66829 0.35635 0.0
N905 N 0.98167 0.68194 0.36453 0.0
C906 C 0.95054 0.66436 0.36598 0.0
C907 C 0.96588 0.68861 0.39222 0.0
C908 C 0.9816 0.69206 0.38209 0.0
C909 C 0.95011 0.67448 0.38435 0.0
H910 H 0.96706 0.6603 0.34257 0.0
H911 H 0.99377 0.70245 0.38879 0.0
C912 C 0.05264 0.68654 0.32355 0.0
N913 N 0.07091 0.67334 0.30063 0.0
C914 C 0.05637 0.68992 0.30011 0.0
C915 C 0.05842 0.67666 0.33539 0.0
C916 C 0.06558 0.68309 0.28882 0.0
C917 C 0.06756 0.67003 0.32348 0.0
C918 C 0.99388 0.68014 0.30337 0.0
C919 C 0.99066 0.67046 0.28309 0.0
C920 C 0.98578 0.69006 0.30677 0.0
C921 C 0.97976 0.67123 0.26634 0.0
C922 C 0.97495 0.69047 0.28963 0.0
N923 N 0.97221 0.68115 0.26991 0.0
C924 C 0.01322 0.63667 0.33667 0.0
C925 C 0.01926 0.65049 0.30021 0.0
C926 C 0.01163 0.62153 0.32672 0.0
N927 N 0.01704 0.65075 0.32332 0.0
C928 C 0.0178 0.63569 0.28958 0.0
C929 C 0.01405 0.621 0.30289 0.0
H930 H 0.01136 0.63717 0.35498 0.0
H931 H 0.0222 0.66184 0.29002 0.0
C932 C 0.05217 0.73328 0.30686 0.0
N933 N 0.03759 0.7182 0.3007 0.0
C934 C 0.06201 0.74579 0.29028 0.0
C935 C 0.04139 0.72726 0.26135 0.0
C936 C 0.03198 0.71503 0.2785 0.0
C937 C 0.05675 0.74274 0.26716 0.0
H938 H 0.05643 0.73532 0.32461 0.0
H939 H 0.02063 0.70279 0.27388 0.0
O940 O 0.01149 0.67084 0.36799 0.0
O941 O 0.02408 0.70974 0.35483 0.0
O942 O 0.04331 0.6928 0.3348 0.0
O943 O 0.00447 0.67944 0.31999 0.0
H944 H 0.99347 0.67125 0.40419 0.0
H945 H 0.03372 0.66091 0.38155 0.0
H946 H 0.99769 0.66419 0.44409 0.0
H947 H 0.03727 0.65404 0.42186 0.0
H948 H 0.00914 0.74839 0.3265 0.0
H949 H 0.02947 0.72857 0.39269 0.0
H950 H 0.01366 0.72317 0.32173 0.0
H951 H 0.02484 0.75383 0.39614 0.0
H952 H 0.04916 0.72015 0.44211 0.0
H953 H 0.09128 0.72113 0.40324 0.0
H954 H 0.93863 0.65349 0.35923 0.0
H955 H 0.9661 0.69658 0.40653 0.0
H956 H 0.05204 0.69756 0.29065 0.0
H957 H 0.05578 0.67404 0.35356 0.0
H958 H 0.06844 0.68549 0.27064 0.0
H959 H 0.07199 0.66224 0.3324 0.0
H960 H 0.99653 0.66246 0.28024 0.0
H961 H 0.98759 0.69717 0.3226 0.0
H962 H 0.97727 0.66389 0.25051 0.0
H963 H 0.96865 0.69814 0.29206 0.0
H964 H 0.00865 0.61041 0.33752 0.0
H965 H 0.01934 0.63566 0.27109 0.0
H966 H 0.0738 0.75758 0.2954 0.0
H967 H 0.03713 0.7243 0.24362 0.0
Li968 Li 0.30807 0.33996 0.36222 0.0
Li969 Li 0.31755 0.31957 0.35321 0.0
Li970 Li 0.33305 0.34814 0.33473 0.0
Li971 Li 0.30361 0.32614 0.32376 0.0
C972 C 0.33977 0.33947 0.38538 0.0
N973 N 0.35594 0.33065 0.41913 0.0
C974 C 0.33408 0.33753 0.40821 0.0
C975 C 0.35372 0.33696 0.37973 0.0
C976 C 0.34244 0.33308 0.42502 0.0
C977 C 0.3617 0.33247 0.39703 0.0
C978 C 0.28378 0.30023 0.36587 0.0
C979 C 0.26922 0.26883 0.36897 0.0
N980 N 0.26469 0.26992 0.39102 0.0
C981 C 0.27888 0.30101 0.38855 0.0
C982 C 0.27881 0.28399 0.35595 0.0
C983 C 0.26926 0.28555 0.40098 0.0
C984 C 0.28023 0.34187 0.37976 0.0
N985 N 0.29753 0.34819 0.38338 0.0
C986 C 0.29687 0.36338 0.4171 0.0
C987 C 0.30606 0.35903 0.40133 0.0
C988 C 0.27886 0.35664 0.41407 0.0
C989 C 0.27058 0.34584 0.39502 0.0
H990 H 0.27384 0.33328 0.36531 0.0
H991 H 0.31991 0.36409 0.40358 0.0
C992 C 0.32981 0.2954 0.35467 0.0
N993 N 0.32101 0.30173 0.36679 0.0
C994 C 0.33367 0.28341 0.36474 0.0
C995 C 0.31925 0.28456 0.39949 0.0
C996 C 0.31573 0.29653 0.3888 0.0
C997 C 0.32855 0.27803 0.38754 0.0
H998 H 0.33421 0.29999 0.33737 0.0
H999 H 0.30919 0.30204 0.39837 0.0
C1000 C 0.31633 0.36799 0.33291 0.0
N1001 N 0.32424 0.4023 0.3369 0.0
C1002 C 0.30791 0.37434 0.31895 0.0
C1003 C 0.32877 0.37907 0.34889 0.0
C1004 C 0.3121 0.39173 0.32123 0.0
C1005 C 0.33259 0.39638 0.35065 0.0
C1006 C 0.32202 0.31685 0.30001 0.0
C1007 C 0.32894 0.32666 0.27996 0.0
C1008 C 0.31124 0.29874 0.29846 0.0
C1009 C 0.32472 0.3182 0.25864 0.0
C1010 C 0.30732 0.29076 0.27683 0.0
N1011 N 0.31407 0.30058 0.25753 0.0
C1012 C 0.36973 0.3728 0.33345 0.0
C1013 C 0.35299 0.37359 0.30216 0.0
C1014 C 0.38513 0.38559 0.32309 0.0
N1015 N 0.35414 0.36684 0.32264 0.0
C1016 C 0.36803 0.38636 0.2912 0.0
C1017 C 0.3844 0.39223 0.30145 0.0
H1018 H 0.37027 0.36747 0.34992 0.0
H1019 H 0.34037 0.36878 0.29413 0.0
C1020 C 0.27229 0.30395 0.29917 0.0
N1021 N 0.28798 0.31898 0.29838 0.0
C1022 C 0.25977 0.30041 0.28221 0.0
C1023 C 0.28007 0.32753 0.26352 0.0
C1024 C 0.2922 0.33054 0.28082 0.0
C1025 C 0.26342 0.31258 0.26453 0.0
H1026 H 0.26918 0.29512 0.31349 0.0
H1027 H 0.3047 0.34251 0.28085 0.0
O1028 O 0.33153 0.34348 0.3686 0.0
O1029 O 0.29314 0.31524 0.35339 0.0
O1030 O 0.31231 0.35097 0.33086 0.0
O1031 O 0.32562 0.32493 0.32102 0.0
H1032 H 0.32312 0.33911 0.41285 0.0
H1033 H 0.35805 0.33801 0.36208 0.0
H1034 H 0.3381 0.33144 0.44273 0.0
H1035 H 0.37239 0.33032 0.39287 0.0
H1036 H 0.26538 0.2562 0.36153 0.0
H1037 H 0.2827 0.31342 0.39665 0.0
H1038 H 0.28237 0.28308 0.33844 0.0
H1039 H 0.26549 0.28599 0.41858 0.0
H1040 H 0.3037 0.37177 0.43157 0.0
H1041 H 0.25665 0.34003 0.39234 0.0
H1042 H 0.34094 0.27871 0.35502 0.0
H1043 H 0.31481 0.28052 0.41697 0.0
H1044 H 0.29824 0.3659 0.3065 0.0
H1045 H 0.33543 0.3744 0.35984 0.0
H1046 H 0.30569 0.39683 0.31054 0.0
H1047 H 0.34218 0.4051 0.36295 0.0
H1048 H 0.33738 0.34065 0.28081 0.0
H1049 H 0.30594 0.29094 0.31379 0.0
H1050 H 0.3299 0.32565 0.24299 0.0
H1051 H 0.29892 0.27676 0.27539 0.0
H1052 H 0.39752 0.3899 0.33159 0.0
H1053 H 0.36689 0.3915 0.2748 0.0
H1054 H 0.24713 0.28863 0.28339 0.0
H1055 H 0.28333 0.33727 0.25025 0.0
Li1056 Li 0.32171 0.00351 0.66586 0.0
Li1057 Li 0.35138 0.01938 0.68194 0.0
Li1058 Li 0.32946 0.02779 0.69237 0.0
Li1059 Li 0.34223 0.03391 0.65398 0.0
C1060 C 0.31569 0.99412 0.71277 0.0
N1061 N 0.28877 0.97103 0.74087 0.0
C1062 C 0.31807 0.98295 0.72735 0.0
C1063 C 0.29966 0.99361 0.71254 0.0
C1064 C 0.30429 0.97135 0.74141 0.0
C1065 C 0.2862 0.98184 0.72685 0.0
C1066 C 0.35881 0.01707 0.63567 0.0
C1067 C 0.38931 0.03609 0.6269 0.0
N1068 N 0.38763 0.02607 0.60823 0.0
C1069 C 0.35738 0.00697 0.6164 0.0
C1070 C 0.37489 0.03175 0.64098 0.0
C1071 C 0.3721 0.01173 0.60274 0.0
C1072 C 0.29556 0.9816 0.63522 0.0
N1073 N 0.30398 0.98157 0.65474 0.0
C1074 C 0.28803 0.95037 0.65586 0.0
C1075 C 0.30057 0.96641 0.66509 0.0
C1076 C 0.2791 0.95001 0.63573 0.0
C1077 C 0.28299 0.96588 0.62536 0.0
H1078 H 0.29876 0.99387 0.62719 0.0
H1079 H 0.30779 0.96675 0.68025 0.0
C1080 C 0.37901 0.02771 0.71191 0.0
N1081 N 0.3698 0.01695 0.69426 0.0
C1082 C 0.39183 0.0257 0.72306 0.0
C1083 C 0.38556 0.00167 0.69745 0.0
C1084 C 0.37285 0.00417 0.68675 0.0
C1085 C 0.39501 0.01233 0.71612 0.0
H1086 H 0.37615 0.03765 0.71761 0.0
H1087 H 0.36515 0.99569 0.67281 0.0
C1088 C 0.30431 0.02695 0.66004 0.0
N1089 N 0.27787 0.0347 0.65525 0.0
C1090 C 0.30829 0.04401 0.65506 0.0
C1091 C 0.28684 0.01377 0.66215 0.0
C1092 C 0.29475 0.04768 0.65282 0.0
C1093 C 0.27367 0.01797 0.65979 0.0
C1094 C 0.36292 0.06069 0.68602 0.0
C1095 C 0.35359 0.06959 0.68619 0.0
C1096 C 0.38108 0.07006 0.68845 0.0
C1097 C 0.3626 0.08773 0.68866 0.0
C1098 C 0.38962 0.08821 0.69083 0.0
N1099 N 0.38028 0.0966 0.69089 0.0
C1100 C 0.33556 0.04464 0.73397 0.0
C1101 C 0.30847 0.03886 0.7182 0.0
C1102 C 0.33417 0.05463 0.75151 0.0
N1103 N 0.32308 0.03744 0.7174 0.0
C1104 C 0.3065 0.04869 0.73559 0.0
C1105 C 0.31974 0.05715 0.75205 0.0
H1106 H 0.347 0.04324 0.73292 0.0
H1107 H 0.29864 0.03293 0.705 0.0
C1108 C 0.33629 0.04583 0.61254 0.0
N1109 N 0.3488 0.04962 0.62867 0.0
C1110 C 0.33926 0.05749 0.59465 0.0
C1111 C 0.36829 0.07636 0.60959 0.0
C1112 C 0.36474 0.06433 0.62725 0.0
C1113 C 0.35536 0.0731 0.59319 0.0
H1114 H 0.32376 0.03399 0.61405 0.0
H1115 H 0.3746 0.06692 0.64001 0.0
O1116 O 0.32901 0.00541 0.69877 0.0
O1117 O 0.34446 0.01259 0.64908 0.0
O1118 O 0.31736 0.02303 0.66217 0.0
O1119 O 0.35438 0.0429 0.68382 0.0
H1120 H 0.33043 0.98321 0.72771 0.0
H1121 H 0.29767 0.00223 0.70149 0.0
H1122 H 0.30593 0.96259 0.75274 0.0
H1123 H 0.27372 0.9813 0.72683 0.0
H1124 H 0.40182 0.04742 0.63081 0.0
H1125 H 0.345 0.99557 0.61205 0.0
H1126 H 0.37627 0.03974 0.6558 0.0
H1127 H 0.37119 0.00403 0.58777 0.0
H1128 H 0.28565 0.93839 0.66406 0.0
H1129 H 0.27638 0.9661 0.60981 0.0
H1130 H 0.39907 0.0344 0.7371 0.0
H1131 H 0.38763 0.99121 0.69166 0.0
H1132 H 0.32167 0.0543 0.65275 0.0
H1133 H 0.28346 0.00043 0.66559 0.0
H1134 H 0.29766 0.06084 0.64906 0.0
H1135 H 0.26011 0.00792 0.66153 0.0
H1136 H 0.33955 0.06256 0.68468 0.0
H1137 H 0.38851 0.06338 0.68839 0.0
H1138 H 0.35553 0.09476 0.68888 0.0
H1139 H 0.40367 0.09562 0.69264 0.0
H1140 H 0.34451 0.06076 0.76415 0.0
H1141 H 0.29516 0.05033 0.73555 0.0
H1142 H 0.32881 0.05462 0.58263 0.0
H1143 H 0.38091 0.08821 0.60896 0.0
Li1144 Li 0.99831 0.31447 0.66812 0.0
Li1145 Li 0.98236 0.32855 0.68284 0.0
Li1146 Li 0.97418 0.29822 0.69643 0.0
Li1147 Li 0.96747 0.30353 0.65777 0.0
C1148 C 0.00918 0.32813 0.71638 0.0
N1149 N 0.03489 0.34351 0.74953 0.0
C1150 C 0.0209 0.3461 0.71587 0.0
C1151 C 0.01044 0.31799 0.73387 0.0
C1152 C 0.03384 0.35363 0.73274 0.0
C1153 C 0.02356 0.32601 0.75044 0.0
C1154 C 0.99356 0.34196 0.63977 0.0
C1155 C 0.98753 0.3639 0.62523 0.0
N1156 N 0.00458 0.37388 0.619 0.0
C1157 C 0.011 0.35238 0.63313 0.0
C1158 C 0.98169 0.3477 0.6357 0.0
C1159 C 0.01633 0.36849 0.62267 0.0
C1160 C 0.01966 0.30853 0.63851 0.0
N1161 N 0.02018 0.31839 0.65677 0.0
C1162 C 0.05139 0.33436 0.65577 0.0
C1163 C 0.0356 0.33112 0.66552 0.0
C1164 C 0.05125 0.32438 0.63687 0.0
C1165 C 0.03511 0.31127 0.62829 0.0
H1166 H 0.0072 0.29867 0.63169 0.0
H1167 H 0.0357 0.33906 0.67965 0.0
C1168 C 0.97338 0.34842 0.71093 0.0
N1169 N 0.98477 0.34992 0.69413 0.0
C1170 C 0.97512 0.3633 0.72179 0.0
C1171 C 1.00003 0.38105 0.6975 0.0
C1172 C 0.99798 0.36582 0.68736 0.0
C1173 C 0.9886 0.37984 0.71507 0.0
H1174 H 0.96319 0.33561 0.71628 0.0
H1175 H 0.00729 0.36674 0.67465 0.0
C1176 C 0.98436 0.27807 0.67055 0.0
N1177 N 0.99625 0.25497 0.6778 0.0
C1178 C 0.97682 0.26218 0.65871 0.0
C1179 C 0.99799 0.28226 0.68599 0.0
C1180 C 0.98299 0.25066 0.66264 0.0
C1181 C 0.00382 0.2704 0.68943 0.0
C1182 C 0.94164 0.30084 0.68312 0.0
C1183 C 0.92986 0.28348 0.6889 0.0
C1184 C 0.93559 0.31094 0.6725 0.0
C1185 C 0.91219 0.27643 0.68362 0.0
C1186 C 0.91782 0.3034 0.66749 0.0
N1187 N 0.90659 0.28644 0.67309 0.0
C1188 C 0.96165 0.29022 0.74102 0.0
C1189 C 0.96021 0.26596 0.72153 0.0
C1190 C 0.95237 0.27968 0.75965 0.0
N1191 N 0.96511 0.28319 0.72234 0.0
C1192 C 0.95109 0.25498 0.73993 0.0
C1193 C 0.9467 0.26177 0.75897 0.0
H1194 H 0.96546 0.30391 0.74098 0.0
H1195 H 0.9626 0.26051 0.70629 0.0
C1196 C 0.94893 0.30082 0.61591 0.0
N1197 N 0.95041 0.29223 0.63436 0.0
C1198 C 0.93622 0.29167 0.59913 0.0
C1199 C 0.92693 0.26511 0.62072 0.0
C1200 C 0.93984 0.27471 0.63694 0.0
C1201 C 0.92497 0.2736 0.60158 0.0
H1202 H 0.95765 0.31471 0.6141 0.0
H1203 H 0.9415 0.2682 0.65164 0.0
O1204 O 0.99622 0.32052 0.70027 0.0
O1205 O 0.98814 0.32617 0.65003 0.0
O1206 O 0.97845 0.28948 0.66678 0.0
O1207 O 0.95904 0.30785 0.68761 0.0
H1208 H 0.02021 0.35412 0.70239 0.0
H1209 H 0.00139 0.30408 0.73468 0.0
H1210 H 0.04306 0.36752 0.73246 0.0
H1211 H 0.02471 0.31831 0.76403 0.0
H1212 H 0.97852 0.36856 0.6221 0.0
H1213 H 0.02034 0.3481 0.63607 0.0
H1214 H 0.96817 0.33981 0.64078 0.0
H1215 H 0.02979 0.37672 0.6175 0.0
H1216 H 0.06354 0.34487 0.66254 0.0
H1217 H 0.03446 0.3033 0.61373 0.0
H1218 H 0.96614 0.36193 0.73539 0.0
H1219 H 0.01079 0.3936 0.69223 0.0
H1220 H 0.96628 0.25879 0.64664 0.0
H1221 H 0.00409 0.29455 0.69511 0.0
H1222 H 0.97726 0.2383 0.65364 0.0
H1223 H 0.01436 0.27347 0.70133 0.0
H1224 H 0.93435 0.27548 0.69711 0.0
H1225 H 0.94454 0.32444 0.6681 0.0
H1226 H 0.90294 0.26297 0.68783 0.0
H1227 H 0.91295 0.31103 0.65915 0.0
H1228 H 0.94921 0.28532 0.77412 0.0
H1229 H 0.94671 0.24117 0.73876 0.0
H1230 H 0.93514 0.29862 0.58448 0.0
H1231 H 0.91877 0.25112 0.62293 0.0
Li1232 Li 0.68349 0.68263 0.66692 0.0
Li1233 Li 0.66945 0.65396 0.68203 0.0
Li1234 Li 0.69936 0.67466 0.69425 0.0
Li1235 Li 0.69243 0.66199 0.65306 0.0
C1236 C 0.66629 0.6797 0.70923 0.0
N1237 N 0.64228 0.68738 0.72818 0.0
C1238 C 0.64978 0.67302 0.69932 0.0
C1239 C 0.67057 0.69021 0.72885 0.0
C1240 C 0.63782 0.67705 0.70914 0.0
C1241 C 0.65826 0.69397 0.73815 0.0
C1242 C 0.65578 0.65305 0.6356 0.0
C1243 C 0.63841 0.63112 0.6074 0.0
N1244 N 0.62694 0.6371 0.60711 0.0
C1245 C 0.64394 0.65912 0.63479 0.0
C1246 C 0.65311 0.63906 0.62159 0.0
C1247 C 0.6294 0.65083 0.62036 0.0
C1248 C 0.67948 0.70145 0.63194 0.0
N1249 N 0.68035 0.70097 0.65526 0.0
C1250 C 0.67708 0.7261 0.65869 0.0
C1251 C 0.67927 0.71298 0.66874 0.0
C1252 C 0.67626 0.72692 0.63463 0.0
C1253 C 0.67743 0.71436 0.62121 0.0
H1254 H 0.68047 0.69177 0.62167 0.0
H1255 H 0.68028 0.7125 0.68721 0.0
C1256 C 0.64888 0.6327 0.71748 0.0
N1257 N 0.6483 0.63534 0.69455 0.0
C1258 C 0.63409 0.62002 0.72897 0.0
C1259 C 0.61821 0.61311 0.69311 0.0
C1260 C 0.63342 0.62572 0.68221 0.0
C1261 C 0.61837 0.61027 0.71687 0.0
H1262 H 0.66089 0.64055 0.72687 0.0
H1263 H 0.63316 0.62795 0.66404 0.0
C1264 C 0.71621 0.70353 0.65666 0.0
N1265 N 0.73149 0.73765 0.64157 0.0
C1266 C 0.72016 0.70739 0.63336 0.0
C1267 C 0.72014 0.71701 0.67233 0.0
C1268 C 0.72786 0.72474 0.62606 0.0
C1269 C 0.72784 0.73418 0.66434 0.0
C1270 C 0.68227 0.63259 0.68751 0.0
C1271 C 0.68357 0.62675 0.70935 0.0
C1272 C 0.6729 0.62045 0.67026 0.0
C1273 C 0.67526 0.60882 0.71364 0.0
C1274 C 0.66477 0.60263 0.67522 0.0
N1275 N 0.6661 0.59723 0.69663 0.0
C1276 C 0.71075 0.67254 0.73862 0.0
C1277 C 0.73301 0.69288 0.71395 0.0
C1278 C 0.7231 0.67484 0.75527 0.0
N1279 N 0.71596 0.68114 0.71822 0.0
C1280 C 0.74576 0.69581 0.73027 0.0
C1281 C 0.74094 0.6862 0.75087 0.0
H1282 H 0.69706 0.66331 0.74153 0.0
H1283 H 0.73679 0.6995 0.69754 0.0
C1284 C 0.7002 0.66024 0.60636 0.0
N1285 N 0.70152 0.65536 0.62809 0.0
C1286 C 0.70883 0.65739 0.58819 0.0
C1287 C 0.71942 0.64398 0.61505 0.0
C1288 C 0.71067 0.64717 0.6327 0.0
C1289 C 0.71877 0.64936 0.59253 0.0
H1290 H 0.69294 0.6669 0.60332 0.0
H1291 H 0.71171 0.64371 0.65023 0.0
O1292 O 0.67826 0.67598 0.69994 0.0
O1293 O 0.67018 0.66105 0.64949 0.0
O1294 O 0.70804 0.68658 0.66403 0.0
O1295 O 0.68995 0.65009 0.68306 0.0
H1296 H 0.64621 0.66473 0.68432 0.0
H1297 H 0.68331 0.69545 0.73673 0.0
H1298 H 0.62499 0.67196 0.70164 0.0
H1299 H 0.66142 0.70214 0.75329 0.0
H1300 H 0.63614 0.62022 0.59656 0.0
H1301 H 0.64596 0.67018 0.64507 0.0
H1302 H 0.6623 0.6344 0.62161 0.0
H1303 H 0.6201 0.65535 0.61965 0.0
H1304 H 0.67628 0.73564 0.66954 0.0
H1305 H 0.67661 0.71444 0.60261 0.0
H1306 H 0.63499 0.61791 0.74714 0.0
H1307 H 0.60636 0.60588 0.68312 0.0
H1308 H 0.71714 0.6971 0.62102 0.0
H1309 H 0.71699 0.71418 0.69039 0.0
H1310 H 0.73089 0.72792 0.60806 0.0
H1311 H 0.73083 0.74473 0.67624 0.0
H1312 H 0.69083 0.63595 0.72288 0.0
H1313 H 0.67184 0.62477 0.65327 0.0
H1314 H 0.67608 0.60411 0.73049 0.0
H1315 H 0.6574 0.5931 0.66204 0.0
H1316 H 0.71881 0.66718 0.77092 0.0
H1317 H 0.75931 0.70509 0.72647 0.0
H1318 H 0.70811 0.66178 0.57106 0.0
H1319 H 0.72729 0.63813 0.61918 0.0
Li1320 Li 0.34779 0.33092 0.68262 0.0
Li1321 Li 0.32627 0.30081 0.69291 0.0
Li1322 Li 0.34025 0.30845 0.65344 0.0
Li1323 Li 0.31814 0.31628 0.66425 0.0
C1324 C 0.36674 0.31584 0.69433 0.0
N1325 N 0.39857 0.32742 0.71565 0.0
C1326 C 0.36743 0.31273 0.71777 0.0
C1327 C 0.38221 0.32459 0.68165 0.0
C1328 C 0.38366 0.31876 0.72825 0.0
C1329 C 0.39818 0.33041 0.69276 0.0
C1330 C 0.31288 0.32026 0.71426 0.0
C1331 C 0.28329 0.30727 0.72825 0.0
N1332 N 0.28932 0.31633 0.74827 0.0
C1333 C 0.31878 0.32958 0.73488 0.0
C1334 C 0.29499 0.30913 0.71082 0.0
C1335 C 0.30666 0.32735 0.7519 0.0
C1336 C 0.37438 0.36679 0.68253 0.0
N1337 N 0.36577 0.35212 0.69556 0.0
C1338 C 0.38224 0.36744 0.72881 0.0
C1339 C 0.36929 0.35223 0.71834 0.0
C1340 C 0.39149 0.38278 0.71579 0.0
C1341 C 0.38732 0.38237 0.69237 0.0
H1342 H 0.37104 0.36646 0.66458 0.0
H1343 H 0.36195 0.3405 0.72842 0.0
C1344 C 0.31741 0.26801 0.70896 0.0
N1345 N 0.3192 0.28344 0.71614 0.0
C1346 C 0.31511 0.25528 0.72493 0.0
C1347 C 0.31585 0.27426 0.75542 0.0
C1348 C 0.31823 0.2867 0.73883 0.0
C1349 C 0.31477 0.25855 0.74851 0.0
H1350 H 0.31852 0.26591 0.69084 0.0
H1351 H 0.32019 0.29924 0.74419 0.0
C1352 C 0.34886 0.33764 0.62887 0.0
N1353 N 0.36376 0.34975 0.58614 0.0
C1354 C 0.33875 0.33808 0.61072 0.0
C1355 C 0.36659 0.34356 0.62537 0.0
C1356 C 0.34651 0.34421 0.58923 0.0
C1357 C 0.37386 0.34957 0.60362 0.0
C1358 C 0.29975 0.27894 0.65594 0.0
C1359 C 0.29697 0.27261 0.63338 0.0
C1360 C 0.28645 0.2707 0.67226 0.0
C1361 C 0.28077 0.25839 0.62737 0.0
C1362 C 0.27043 0.25651 0.66559 0.0
N1363 N 0.26794 0.25071 0.64346 0.0
C1364 C 0.35609 0.29038 0.63594 0.0
C1365 C 0.34326 0.29922 0.60707 0.0
C1366 C 0.35972 0.2809 0.61983 0.0
N1367 N 0.34782 0.29911 0.62939 0.0
C1368 C 0.34682 0.29007 0.59033 0.0
C1369 C 0.35484 0.2805 0.59677 0.0
H1370 H 0.35922 0.29016 0.65387 0.0
H1371 H 0.33609 0.30567 0.60242 0.0
C1372 C 0.29709 0.33198 0.66186 0.0
N1373 N 0.30011 0.31975 0.65211 0.0
C1374 C 0.28482 0.33566 0.65224 0.0
C1375 C 0.27899 0.31408 0.62279 0.0
C1376 C 0.29138 0.31087 0.63293 0.0
C1377 C 0.27573 0.32675 0.63231 0.0
H1378 H 0.30441 0.33907 0.6769 0.0
H1379 H 0.29444 0.30169 0.62502 0.0
O1380 O 0.35099 0.31018 0.6838 0.0
O1381 O 0.32459 0.32228 0.69746 0.0
O1382 O 0.34147 0.33162 0.65001 0.0
O1383 O 0.31561 0.29274 0.66216 0.0
H1384 H 0.35558 0.3059 0.72781 0.0
H1385 H 0.38188 0.32681 0.66341 0.0
H1386 H 0.38439 0.31656 0.74642 0.0
H1387 H 0.41026 0.33728 0.68318 0.0
H1388 H 0.26941 0.29867 0.72582 0.0
H1389 H 0.33257 0.33836 0.73774 0.0
H1390 H 0.29018 0.30213 0.6948 0.0
H1391 H 0.31105 0.3344 0.76799 0.0
H1392 H 0.385 0.36718 0.74691 0.0
H1393 H 0.39373 0.39402 0.68186 0.0
H1394 H 0.31416 0.24323 0.71898 0.0
H1395 H 0.31578 0.27726 0.77349 0.0
H1396 H 0.32505 0.3337 0.61318 0.0
H1397 H 0.37464 0.34351 0.63931 0.0
H1398 H 0.33882 0.34455 0.57499 0.0
H1399 H 0.38755 0.35411 0.60064 0.0
H1400 H 0.30718 0.2787 0.62059 0.0
H1401 H 0.28851 0.27507 0.68996 0.0
H1402 H 0.2784 0.25345 0.60992 0.0
H1403 H 0.26002 0.25004 0.67803 0.0
H1404 H 0.36581 0.27355 0.62542 0.0
H1405 H 0.34252 0.28973 0.57279 0.0
H1406 H 0.28253 0.3454 0.66021 0.0
H1407 H 0.27239 0.30711 0.60727 0.0
Li1408 Li 0.67152 0.01869 0.68707 0.0
Li1409 Li 0.70172 0.02741 0.69726 0.0
Li1410 Li 0.69489 0.03308 0.65811 0.0
Li1411 Li 0.68551 0.0037 0.67032 0.0
C1412 C 0.69485 0.05762 0.69638 0.0
N1413 N 0.70099 0.0892 0.71419 0.0
C1414 C 0.69773 0.061 0.71996 0.0
C1415 C 0.6951 0.07033 0.68186 0.0
C1416 C 0.70082 0.07703 0.72863 0.0
C1417 C 0.69821 0.0862 0.6912 0.0
C1418 C 0.6836 0.99369 0.71589 0.0
C1419 C 0.70323 0.98347 0.72672 0.0
N1420 N 0.69065 0.97132 0.74065 0.0
C1421 C 0.67087 0.9811 0.73028 0.0
C1422 C 0.69993 0.99489 0.71405 0.0
C1423 C 0.67468 0.96991 0.74267 0.0
C1424 C 0.63478 0.00372 0.6904 0.0
N1425 N 0.65036 0.01602 0.69934 0.0
C1426 C 0.63589 0.02364 0.7279 0.0
C1427 C 0.65117 0.02586 0.71778 0.0
C1428 C 0.6196 0.01109 0.71905 0.0
C1429 C 0.61914 0.00105 0.70002 0.0
H1430 H 0.63449 0.99579 0.67605 0.0
H1431 H 0.66366 0.03522 0.72491 0.0
C1432 C 0.73388 0.05259 0.71405 0.0
N1433 N 0.71882 0.0382 0.72069 0.0
C1434 C 0.7462 0.06313 0.73044 0.0
C1435 C 0.72761 0.04343 0.76014 0.0
C1436 C 0.71554 0.03331 0.74317 0.0
C1437 C 0.74292 0.05878 0.75383 0.0
H1438 H 0.73598 0.05624 0.69607 0.0
H1439 H 0.70326 0.02204 0.74804 0.0
C1440 C 0.66092 0.01605 0.64097 0.0
N1441 N 0.64021 0.02429 0.6144 0.0
C1442 C 0.65185 0.00563 0.6221 0.0
C1443 C 0.65944 0.03065 0.64633 0.0
C1444 C 0.64145 0.01002 0.60887 0.0
C1445 C 0.6489 0.0346 0.6327 0.0
C1446 C 0.71788 0.02146 0.64819 0.0
C1447 C 0.70834 0.01461 0.62791 0.0
C1448 C 0.73558 0.02656 0.64873 0.0
C1449 C 0.71671 0.01295 0.60849 0.0
C1450 C 0.74348 0.02469 0.62893 0.0
N1451 N 0.73396 0.01798 0.60939 0.0
C1452 C 0.72028 0.06426 0.63949 0.0
C1453 C 0.69876 0.04661 0.61206 0.0
C1454 C 0.73003 0.07649 0.62261 0.0
N1455 N 0.70503 0.04966 0.63396 0.0
C1456 C 0.70811 0.05854 0.59459 0.0
C1457 C 0.72405 0.07361 0.59979 0.0
H1458 H 0.72507 0.06615 0.65698 0.0
H1459 H 0.6869 0.03464 0.60793 0.0
C1460 C 0.66533 0.97081 0.65017 0.0
N1461 N 0.68128 0.98163 0.65947 0.0
C1462 C 0.66177 0.95503 0.6401 0.0
C1463 C 0.69103 0.96166 0.64977 0.0
C1464 C 0.69404 0.97734 0.65963 0.0
C1465 C 0.67475 0.95033 0.63972 0.0
H1466 H 0.6555 0.97465 0.65012 0.0
H1467 H 0.70667 0.98626 0.66693 0.0
O1468 O 0.69226 0.04218 0.68741 0.0
O1469 O 0.67995 0.00461 0.70353 0.0
O1470 O 0.67124 0.01192 0.6539 0.0
O1471 O 0.71005 0.02335 0.66744 0.0
H1472 H 0.69741 0.05128 0.7315 0.0
H1473 H 0.69295 0.068 0.66356 0.0
H1474 H 0.70306 0.07979 0.74684 0.0
H1475 H 0.69844 0.09614 0.68016 0.0
H1476 H 0.7158 0.98425 0.72546 0.0
H1477 H 0.65815 0.97999 0.73183 0.0
H1478 H 0.70995 0.00454 0.703 0.0
H1479 H 0.66495 0.96011 0.75389 0.0
H1480 H 0.6368 0.03161 0.74259 0.0
H1481 H 0.60684 0.99096 0.69302 0.0
H1482 H 0.75797 0.0748 0.72496 0.0
H1483 H 0.72464 0.03976 0.77806 0.0
H1484 H 0.65291 0.9943 0.61768 0.0
H1485 H 0.66625 0.0388 0.66091 0.0
H1486 H 0.63439 0.00208 0.59419 0.0
H1487 H 0.64763 0.04585 0.63668 0.0
H1488 H 0.69464 0.01061 0.62713 0.0
H1489 H 0.74314 0.03192 0.66429 0.0
H1490 H 0.7095 0.00766 0.59269 0.0
H1491 H 0.75718 0.02858 0.6291 0.0
H1492 H 0.74228 0.08795 0.62726 0.0
H1493 H 0.70329 0.05568 0.57708 0.0
H1494 H 0.64919 0.94685 0.63209 0.0
H1495 H 0.70137 0.9585 0.64982 0.0
Li1496 Li 0.97618 0.67149 0.69647 0.0
Li1497 Li 0.98301 0.64849 0.6839 0.0
Li1498 Li 0.99887 0.67919 0.66839 0.0
Li1499 Li 0.96935 0.65983 0.65781 0.0
C1500 C 0.00157 0.67544 0.72315 0.0
N1501 N 0.0069 0.68402 0.76934 0.0
C1502 C 0.99746 0.66246 0.73965 0.0
C1503 C 0.00847 0.69279 0.73014 0.0
C1504 C 0.00024 0.66707 0.76292 0.0
C1505 C 0.01103 0.69686 0.75357 0.0
C1506 C 0.94274 0.63765 0.68258 0.0
C1507 C 0.91788 0.61263 0.66569 0.0
N1508 N 0.90781 0.61982 0.67069 0.0
C1509 C 0.93214 0.64477 0.68759 0.0
C1510 C 0.93558 0.62145 0.67155 0.0
C1511 C 0.91452 0.63555 0.68142 0.0
C1512 C 0.96552 0.69257 0.7207 0.0
N1513 N 0.96723 0.67817 0.72193 0.0
C1514 C 0.95168 0.66981 0.75761 0.0
C1515 C 0.96065 0.66692 0.73996 0.0
C1516 C 0.94929 0.68432 0.7565 0.0
C1517 C 0.95656 0.69593 0.73793 0.0
H1518 H 0.9704 0.70102 0.70585 0.0
H1519 H 0.96169 0.65525 0.7401 0.0
C1520 C 0.00252 0.63332 0.69777 0.0
N1521 N 0.98587 0.62988 0.69463 0.0
C1522 C 0.00566 0.62076 0.70754 0.0
C1523 C 0.97446 0.60113 0.70992 0.0
C1524 C 0.97191 0.61419 0.70047 0.0
C1525 C 0.99151 0.60447 0.71375 0.0
H1526 H 0.01334 0.64602 0.69322 0.0
H1527 H 0.95883 0.61195 0.69828 0.0
C1528 C 0.98818 0.70054 0.65782 0.0
N1529 N 0.00657 0.73314 0.63766 0.0
C1530 C 0.987 0.70243 0.63411 0.0
C1531 C 0.99867 0.71526 0.67127 0.0
C1532 C 0.99639 0.71902 0.62425 0.0
C1533 C 0.00789 0.73161 0.66076 0.0
C1534 C 0.98555 0.64667 0.63196 0.0
C1535 C 0.98642 0.65418 0.61048 0.0
C1536 C 0.98068 0.62902 0.63326 0.0
C1537 C 0.98237 0.64389 0.59067 0.0
C1538 C 0.97674 0.61918 0.61305 0.0
N1539 N 0.97766 0.62675 0.59235 0.0
C1540 C 0.03486 0.7058 0.67218 0.0
C1541 C 0.02311 0.69997 0.63448 0.0
C1542 C 0.05113 0.71862 0.66378 0.0
N1543 N 0.02125 0.69687 0.65749 0.0
C1544 C 0.03903 0.71268 0.62538 0.0
C1545 C 0.0533 0.72215 0.64007 0.0
H1546 H 0.03312 0.70298 0.69039 0.0
H1547 H 0.01219 0.69266 0.62315 0.0
C1548 C 0.94491 0.66482 0.63466 0.0
N1549 N 0.9516 0.65394 0.63469 0.0
C1550 C 0.93175 0.66219 0.61931 0.0
C1551 C 0.93211 0.63688 0.60439 0.0
C1552 C 0.94521 0.63991 0.62028 0.0
C1553 C 0.92523 0.64811 0.60391 0.0
H1554 H 0.94973 0.67554 0.64674 0.0
H1555 H 0.95 0.63087 0.62129 0.0
O1556 O 0.99861 0.67116 0.70032 0.0
O1557 O 0.96016 0.64675 0.68776 0.0
O1558 O 0.97936 0.68435 0.66775 0.0
O1559 O 0.9898 0.65658 0.65155 0.0
H1560 H 0.99196 0.64894 0.73463 0.0
H1561 H 0.01166 0.70299 0.71764 0.0
H1562 H 0.99704 0.65714 0.77587 0.0
H1563 H 0.01628 0.71022 0.75922 0.0
H1564 H 0.91219 0.60015 0.657 0.0
H1565 H 0.93751 0.65739 0.69585 0.0
H1566 H 0.94367 0.61592 0.66707 0.0
H1567 H 0.90618 0.64095 0.68508 0.0
H1568 H 0.94585 0.66028 0.77128 0.0
H1569 H 0.95482 0.70716 0.73638 0.0
H1570 H 0.01898 0.62375 0.71034 0.0
H1571 H 0.96326 0.58877 0.71485 0.0
H1572 H 0.9792 0.69118 0.62334 0.0
H1573 H 0.99983 0.71404 0.6896 0.0
H1574 H 0.99568 0.72065 0.60591 0.0
H1575 H 0.01613 0.74309 0.67095 0.0
H1576 H 0.98978 0.66767 0.6091 0.0
H1577 H 0.97996 0.62296 0.64965 0.0
H1578 H 0.98288 0.64951 0.57397 0.0
H1579 H 0.97295 0.60551 0.61382 0.0
H1580 H 0.06181 0.72579 0.67568 0.0
H1581 H 0.04023 0.71497 0.60699 0.0
H1582 H 0.92679 0.67116 0.61937 0.0
H1583 H 0.92719 0.62574 0.59293 0.0
H1584 H 0.15062 0.34012 0.19467 0.0
H1585 H 0.12774 0.33879 0.21958 0.0
H1586 H 0.08914 0.29332 0.1827 0.0
H1587 H 0.11216 0.29501 0.15726 0.0
H1588 H 0.15935 0.31457 0.19064 0.0
H1589 H 0.1407 0.34585 0.14333 0.0
H1590 H 0.12026 0.35136 0.1218 0.0
H1591 H 0.10815 0.30748 0.07752 0.0
H1592 H 0.12828 0.30165 0.09963 0.0
H1593 H 0.17672 0.3013 0.0988 0.0
H1594 H 0.20245 0.30614 0.07685 0.0
H1595 H 0.23552 0.3486 0.12243 0.0
H1596 H 0.20978 0.34417 0.14373 0.0
H1597 H 0.16349 0.32247 0.10596 0.0
H1598 H 0.18773 0.29517 0.15433 0.0
H1599 H 0.20906 0.29271 0.17872 0.0
H1600 H 0.21285 0.33406 0.22217 0.0
H1601 H 0.19188 0.33672 0.19776 0.0
C1602 C 0.13309 0.3176 0.17425 0.0
C1603 C 0.13722 0.3299 0.19188 0.0
C1604 C 0.12416 0.32905 0.20619 0.0
C1605 C 0.10673 0.31567 0.20344 0.0
C1606 C 0.10249 0.3037 0.18526 0.0
C1607 C 0.11559 0.30465 0.17076 0.0
C1608 C 0.14734 0.31793 0.16045 0.0
C1609 C 0.16035 0.31642 0.17212 0.0
C1610 C 0.14837 0.31999 0.13628 0.0
C1611 C 0.13584 0.32319 0.12328 0.0
C1612 C 0.13351 0.33728 0.12915 0.0
C1613 C 0.12202 0.34057 0.11665 0.0
C1614 C 0.11279 0.32997 0.09783 0.0
C1615 C 0.1151 0.31584 0.09197 0.0
C1616 C 0.12661 0.31255 0.10451 0.0
C1617 C 0.19135 0.32217 0.12314 0.0
C1618 C 0.18952 0.31165 0.10404 0.0
C1619 C 0.20422 0.31433 0.09165 0.0
C1620 C 0.221 0.32759 0.09814 0.0
C1621 C 0.22275 0.33827 0.11705 0.0
C1622 C 0.20807 0.33564 0.12936 0.0
C1623 C 0.17578 0.31944 0.13624 0.0
C1624 C 0.16242 0.32038 0.12442 0.0
C1625 C 0.17464 0.31728 0.16044 0.0
C1626 C 0.18816 0.31612 0.17422 0.0
C1627 C 0.19332 0.30385 0.16894 0.0
C1628 C 0.20543 0.3024 0.18287 0.0
C1629 C 0.21233 0.31301 0.20246 0.0
C1630 C 0.20744 0.3255 0.20741 0.0
C1631 C 0.19548 0.32703 0.19346 0.0
H1632 H 0.71303 0.88073 0.17789 0.0
H1633 H 0.71338 0.90323 0.20314 0.0
H1634 H 0.65896 0.88383 0.18812 0.0
H1635 H 0.65866 0.86147 0.16282 0.0
H1636 H 0.69076 0.84413 0.18417 0.0
H1637 H 0.70326 0.88772 0.12586 0.0
H1638 H 0.69838 0.90899 0.10517 0.0
H1639 H 0.64647 0.86802 0.08702 0.0
H1640 H 0.65148 0.84679 0.10747 0.0
H1641 H 0.65148 0.80222 0.10715 0.0
H1642 H 0.64637 0.77585 0.08665 0.0
H1643 H 0.69812 0.78669 0.10494 0.0
H1644 H 0.70329 0.8132 0.12527 0.0
H1645 H 0.6748 0.83618 0.10144 0.0
H1646 H 0.65941 0.79332 0.15887 0.0
H1647 H 0.65938 0.77094 0.1834 0.0
H1648 H 0.71108 0.80823 0.2075 0.0
H1649 H 0.71142 0.83045 0.18203 0.0
C1650 C 0.68585 0.86952 0.16844 0.0
C1651 C 0.70125 0.88146 0.17987 0.0
C1652 C 0.70145 0.89429 0.19417 0.0
C1653 C 0.68617 0.89511 0.19757 0.0
C1654 C 0.67086 0.88335 0.18583 0.0
C1655 C 0.67071 0.87067 0.17133 0.0
C1656 C 0.68521 0.85513 0.15461 0.0
C1657 C 0.68773 0.84259 0.16593 0.0
C1658 C 0.68047 0.8528 0.13111 0.0
C1659 C 0.67771 0.86568 0.11827 0.0
C1660 C 0.69084 0.88333 0.11742 0.0
C1661 C 0.68805 0.89545 0.10559 0.0
C1662 C 0.67212 0.89012 0.09428 0.0
C1663 C 0.65902 0.87244 0.0951 0.0
C1664 C 0.66183 0.86032 0.10688 0.0
C1665 C 0.67771 0.80958 0.11789 0.0
C1666 C 0.66177 0.79898 0.10662 0.0
C1667 C 0.65881 0.78388 0.09509 0.0
C1668 C 0.67179 0.77919 0.09449 0.0
C1669 C 0.68791 0.79004 0.10522 0.0
C1670 C 0.69083 0.8051 0.11689 0.0
C1671 C 0.68044 0.82515 0.13097 0.0
C1672 C 0.67823 0.83788 0.11955 0.0
C1673 C 0.68505 0.82743 0.15456 0.0
C1674 C 0.68551 0.81355 0.16838 0.0
C1675 C 0.67092 0.79661 0.16901 0.0
C1676 C 0.6708 0.78389 0.1833 0.0
C1677 C 0.68513 0.78793 0.19761 0.0
C1678 C 0.69988 0.80475 0.19661 0.0
C1679 C 0.70004 0.81747 0.18218 0.0
H1680 H 0.11779 0.83312 0.17911 0.0
H1681 H 0.09593 0.81136 0.20519 0.0
H1682 H 0.11285 0.77495 0.18644 0.0
H1683 H 0.13484 0.7968 0.16063 0.0
H1684 H 0.15314 0.84726 0.18274 0.0
H1685 H 0.10857 0.81338 0.12733 0.0
H1686 H 0.08761 0.78692 0.10666 0.0
H1687 H 0.12987 0.77997 0.08251 0.0
H1688 H 0.15077 0.80616 0.10359 0.0
H1689 H 0.19449 0.85003 0.10515 0.0
H1690 H 0.22024 0.87139 0.08367 0.0
H1691 H 0.20857 0.91179 0.10171 0.0
H1692 H 0.18265 0.89034 0.12292 0.0
H1693 H 0.16028 0.83868 0.09992 0.0
H1694 H 0.20378 0.86793 0.15702 0.0
H1695 H 0.22592 0.89132 0.18086 0.0
H1696 H 0.18775 0.90491 0.20346 0.0
H1697 H 0.16559 0.88153 0.17938 0.0
C1698 C 0.12783 0.81653 0.16778 0.0
C1699 C 0.11664 0.82038 0.18042 0.0
C1700 C 0.1041 0.80792 0.19516 0.0
C1701 C 0.10263 0.79145 0.19764 0.0
C1702 C 0.1137 0.78754 0.18477 0.0
C1703 C 0.12618 0.79997 0.16995 0.0
C1704 C 0.142 0.83019 0.15354 0.0
C1705 C 0.1545 0.84557 0.16449 0.0
C1706 C 0.14409 0.82761 0.12995 0.0
C1707 C 0.13126 0.8117 0.11723 0.0
C1708 C 0.11333 0.80609 0.11779 0.0
C1709 C 0.10138 0.79104 0.10591 0.0
C1710 C 0.10718 0.78154 0.09289 0.0
C1711 C 0.12511 0.78724 0.09214 0.0
C1712 C 0.13703 0.80216 0.10421 0.0
C1713 C 0.1867 0.86861 0.11569 0.0
C1714 C 0.19738 0.86345 0.10429 0.0
C1715 C 0.21211 0.87565 0.09215 0.0
C1716 C 0.21629 0.89317 0.09095 0.0
C1717 C 0.20548 0.8983 0.10211 0.0
C1718 C 0.19078 0.88611 0.11437 0.0
C1719 C 0.17143 0.85568 0.12917 0.0
C1720 C 0.15875 0.84047 0.11808 0.0
C1721 C 0.16936 0.85822 0.15276 0.0
C1722 C 0.18306 0.87313 0.16611 0.0
C1723 C 0.20024 0.87618 0.16667 0.0
C1724 C 0.2129 0.88957 0.18029 0.0
C1725 C 0.20859 0.90006 0.19378 0.0
C1726 C 0.19142 0.89703 0.19318 0.0
C1727 C 0.17877 0.8837 0.17945 0.0
H1728 H 0.2882 0.16854 0.83554 0.0
H1729 H 0.28763 0.19009 0.8095 0.0
H1730 H 0.34078 0.22735 0.82819 0.0
H1731 H 0.34143 0.2058 0.85386 0.0
H1732 H 0.31047 0.15536 0.83127 0.0
H1733 H 0.29685 0.18528 0.89105 0.0
H1734 H 0.30121 0.21137 0.91149 0.0
H1735 H 0.35464 0.22556 0.9257 0.0
H1736 H 0.34999 0.19912 0.90591 0.0
H1737 H 0.35003 0.15469 0.90988 0.0
H1738 H 0.35568 0.13422 0.93119 0.0
H1739 H 0.30545 0.09162 0.91025 0.0
H1740 H 0.29977 0.11215 0.88901 0.0
H1741 H 0.32676 0.16435 0.91386 0.0
H1742 H 0.34252 0.13683 0.85657 0.0
H1743 H 0.34285 0.11464 0.83189 0.0
H1744 H 0.29097 0.09942 0.80793 0.0
H1745 H 0.29033 0.12112 0.83355 0.0
C1746 C 0.31482 0.18559 0.84673 0.0
C1747 C 0.29965 0.18141 0.83419 0.0
C1748 C 0.29931 0.19371 0.81944 0.0
C1749 C 0.31421 0.21027 0.81675 0.0
C1750 C 0.32919 0.2146 0.8298 0.0
C1751 C 0.32951 0.20235 0.8446 0.0
C1752 C 0.31582 0.17209 0.86067 0.0
C1753 C 0.31357 0.15704 0.84949 0.0
C1754 C 0.32065 0.17474 0.88413 0.0
C1755 C 0.32314 0.19036 0.89684 0.0
C1756 C 0.3095 0.19403 0.89856 0.0
C1757 C 0.31205 0.20901 0.91009 0.0
C1758 C 0.32837 0.22069 0.91985 0.0
C1759 C 0.34191 0.21679 0.91841 0.0
C1760 C 0.33929 0.20172 0.90709 0.0
C1761 C 0.32451 0.13496 0.89773 0.0
C1762 C 0.34015 0.14097 0.91005 0.0
C1763 C 0.34335 0.12929 0.92226 0.0
C1764 C 0.33093 0.11138 0.9225 0.0
C1765 C 0.31526 0.10536 0.91026 0.0
C1766 C 0.31202 0.11707 0.89811 0.0
C1767 C 0.32137 0.14746 0.88448 0.0
C1768 C 0.32327 0.16237 0.89577 0.0
C1769 C 0.31661 0.14484 0.86092 0.0
C1770 C 0.31633 0.13055 0.84712 0.0
C1771 C 0.33105 0.12848 0.84642 0.0
C1772 C 0.33133 0.11596 0.83205 0.0
C1773 C 0.31704 0.1055 0.81771 0.0
C1774 C 0.30215 0.10728 0.81881 0.0
C1775 C 0.30182 0.11973 0.83334 0.0
H1776 H 0.83363 0.12062 0.83948 0.0
H1777 H 0.81143 0.09922 0.81334 0.0
H1778 H 0.77503 0.11509 0.83617 0.0
H1779 H 0.7973 0.13664 0.86202 0.0
H1780 H 0.84723 0.15618 0.83755 0.0
H1781 H 0.81504 0.1099 0.89218 0.0
H1782 H 0.78829 0.08831 0.9117 0.0
H1783 H 0.78111 0.12978 0.93858 0.0
H1784 H 0.8077 0.15135 0.91878 0.0
H1785 H 0.85169 0.19405 0.92056 0.0
H1786 H 0.87362 0.21984 0.94137 0.0
H1787 H 0.91413 0.21069 0.91565 0.0
H1788 H 0.89215 0.18481 0.89495 0.0
H1789 H 0.84068 0.16056 0.92167 0.0
H1790 H 0.86943 0.20632 0.86776 0.0
H1791 H 0.89216 0.22923 0.84413 0.0
H1792 H 0.90256 0.19115 0.81253 0.0
H1793 H 0.88066 0.16847 0.83743 0.0
C1794 C 0.8171 0.13017 0.85274 0.0
C1795 C 0.82082 0.11939 0.83896 0.0
C1796 C 0.80815 0.10715 0.82415 0.0
C1797 C 0.79161 0.10565 0.82264 0.0
C1798 C 0.78776 0.11615 0.83683 0.0
C1799 C 0.80041 0.12835 0.85171 0.0
C1800 C 0.83099 0.14405 0.86712 0.0
C1801 C 0.84604 0.15696 0.85605 0.0
C1802 C 0.82897 0.14539 0.89107 0.0
C1803 C 0.81325 0.13225 0.90372 0.0
C1804 C 0.80765 0.11436 0.90213 0.0
C1805 C 0.7924 0.10204 0.91327 0.0
C1806 C 0.78259 0.10742 0.92639 0.0
C1807 C 0.78848 0.12533 0.92857 0.0
C1808 C 0.80365 0.13763 0.91729 0.0
C1809 C 0.87029 0.18762 0.90593 0.0
C1810 C 0.86526 0.19747 0.9196 0.0
C1811 C 0.87778 0.21219 0.93145 0.0
C1812 C 0.89556 0.21736 0.92982 0.0
C1813 C 0.90053 0.20717 0.9168 0.0
C1814 C 0.888 0.19239 0.90502 0.0
C1815 C 0.85704 0.17273 0.89211 0.0
C1816 C 0.84209 0.15966 0.90325 0.0
C1817 C 0.85895 0.17148 0.86807 0.0
C1818 C 0.87342 0.18565 0.85461 0.0
C1819 C 0.87688 0.20294 0.85619 0.0
C1820 C 0.88969 0.216 0.84236 0.0
C1821 C 0.89894 0.21195 0.82615 0.0
C1822 C 0.8957 0.19471 0.8249 0.0
C1823 C 0.88309 0.1817 0.839 0.0
H1824 H 0.80934 0.65928 0.82382 0.0
H1825 H 0.78826 0.66105 0.79858 0.0
H1826 H 0.79513 0.70629 0.83597 0.0
H1827 H 0.816 0.70416 0.86173 0.0
H1828 H 0.8436 0.68417 0.8288 0.0
H1829 H 0.79266 0.6539 0.87454 0.0
H1830 H 0.76658 0.64866 0.89573 0.0
H1831 H 0.79864 0.69117 0.94175 0.0
H1832 H 0.82478 0.69659 0.92026 0.0
H1833 H 0.87348 0.69779 0.92069 0.0
H1834 H 0.89427 0.69316 0.9431 0.0
H1835 H 0.88449 0.64991 0.89888 0.0
H1836 H 0.86335 0.65421 0.87704 0.0
H1837 H 0.83874 0.67628 0.91347 0.0
H1838 H 0.89093 0.70327 0.86578 0.0
H1839 H 0.91491 0.7052 0.84225 0.0
H1840 H 0.87748 0.66374 0.79872 0.0
H1841 H 0.85364 0.66166 0.8223 0.0
C1842 C 0.81431 0.68165 0.84453 0.0
C1843 C 0.80628 0.66955 0.82664 0.0
C1844 C 0.79434 0.67065 0.81214 0.0
C1845 C 0.79041 0.68408 0.81496 0.0
C1846 C 0.79801 0.69587 0.83336 0.0
C1847 C 0.8099 0.69467 0.84804 0.0
C1848 C 0.8279 0.68099 0.85866 0.0
C1849 C 0.8425 0.68232 0.84731 0.0
C1850 C 0.82652 0.67887 0.88284 0.0
C1851 C 0.81068 0.67584 0.89556 0.0
C1852 C 0.79409 0.66228 0.88896 0.0
C1853 C 0.7792 0.65923 0.90114 0.0
C1854 C 0.78063 0.66947 0.9204 0.0
C1855 C 0.79722 0.68295 0.92712 0.0
C1856 C 0.81212 0.68609 0.91483 0.0
C1857 C 0.86707 0.67652 0.89698 0.0
C1858 C 0.87582 0.68732 0.91585 0.0
C1859 C 0.88778 0.68475 0.92851 0.0
C1860 C 0.89114 0.67131 0.92254 0.0
C1861 C 0.88215 0.66037 0.90386 0.0
C1862 C 0.8702 0.66291 0.89126 0.0
C1863 C 0.85438 0.67921 0.88352 0.0
C1864 C 0.83998 0.67835 0.89501 0.0
C1865 C 0.8557 0.68132 0.85932 0.0
C1866 C 0.87046 0.68226 0.84588 0.0
C1867 C 0.8879 0.69443 0.85138 0.0
C1868 C 0.90158 0.69553 0.83795 0.0
C1869 C 0.898 0.6846 0.81872 0.0
C1870 C 0.88057 0.6724 0.81336 0.0
C1871 C 0.86696 0.67122 0.82682 0.0
H1872 H 0.81331 0.67176 0.52544 0.0
H1873 H 0.78928 0.67074 0.54754 0.0
H1874 H 0.75219 0.62713 0.50648 0.0
H1875 H 0.77637 0.62805 0.48447 0.0
H1876 H 0.82258 0.6473 0.52194 0.0
H1877 H 0.80614 0.67875 0.4722 0.0
H1878 H 0.78603 0.68431 0.44996 0.0
H1879 H 0.77391 0.63998 0.40655 0.0
H1880 H 0.79372 0.63411 0.42941 0.0
H1881 H 0.8422 0.6327 0.43267 0.0
H1882 H 0.86831 0.63763 0.41158 0.0
H1883 H 0.90037 0.68134 0.45597 0.0
H1884 H 0.87425 0.67669 0.47658 0.0
H1885 H 0.82909 0.65456 0.43725 0.0
H1886 H 0.85135 0.62714 0.4899 0.0
H1887 H 0.87177 0.62498 0.51649 0.0
H1888 H 0.87593 0.66847 0.55549 0.0
H1889 H 0.85563 0.67058 0.52912 0.0
C1890 C 0.79663 0.64998 0.50334 0.0
C1891 C 0.80001 0.66198 0.52117 0.0
C1892 C 0.7863 0.66146 0.53367 0.0
C1893 C 0.76893 0.64881 0.52875 0.0
C1894 C 0.76549 0.63689 0.51074 0.0
C1895 C 0.77926 0.63748 0.4981 0.0
C1896 C 0.8114 0.65038 0.49073 0.0
C1897 C 0.82408 0.64898 0.50342 0.0
C1898 C 0.8132 0.65239 0.46657 0.0
C1899 C 0.80125 0.65588 0.45264 0.0
C1900 C 0.79908 0.67015 0.45799 0.0
C1901 C 0.78776 0.67345 0.4451 0.0
C1902 C 0.77857 0.66269 0.42637 0.0
C1903 C 0.78083 0.64847 0.42092 0.0
C1904 C 0.79217 0.64515 0.43387 0.0
C1905 C 0.8563 0.65415 0.45642 0.0
C1906 C 0.85487 0.64329 0.43791 0.0
C1907 C 0.86977 0.64604 0.42599 0.0
C1908 C 0.88636 0.65975 0.43232 0.0
C1909 C 0.88774 0.67067 0.45075 0.0
C1910 C 0.87286 0.66792 0.46266 0.0
C1911 C 0.84045 0.65164 0.46854 0.0
C1912 C 0.82749 0.65259 0.45572 0.0
C1913 C 0.83869 0.64979 0.49275 0.0
C1914 C 0.8519 0.64898 0.50759 0.0
C1915 C 0.8568 0.6363 0.50406 0.0
C1916 C 0.8684 0.63504 0.51925 0.0
C1917 C 0.87511 0.64633 0.53828 0.0
C1918 C 0.87058 0.65931 0.54132 0.0
C1919 C 0.85906 0.66057 0.52621 0.0
H1920 H 0.38546 0.21913 0.51019 0.0
H1921 H 0.38587 0.24192 0.53502 0.0
H1922 H 0.33034 0.21932 0.52548 0.0
H1923 H 0.32999 0.19682 0.50034 0.0
H1924 H 0.36362 0.18134 0.51818 0.0
H1925 H 0.37506 0.22455 0.46032 0.0
H1926 H 0.37012 0.24625 0.44104 0.0
H1927 H 0.31746 0.20606 0.42463 0.0
H1928 H 0.32253 0.18433 0.44372 0.0
H1929 H 0.32192 0.13841 0.444 0.0
H1930 H 0.31611 0.11154 0.42429 0.0
H1931 H 0.36946 0.12449 0.43617 0.0
H1932 H 0.37503 0.15105 0.45648 0.0
H1933 H 0.34542 0.17314 0.43622 0.0
H1934 H 0.33191 0.13066 0.49438 0.0
H1935 H 0.3333 0.10842 0.51761 0.0
H1936 H 0.38643 0.14574 0.53647 0.0
H1937 H 0.38505 0.16802 0.51297 0.0
C1938 C 0.35771 0.20638 0.5034 0.0
C1939 C 0.37343 0.21922 0.51329 0.0
C1940 C 0.37367 0.23221 0.52732 0.0
C1941 C 0.35814 0.23228 0.53195 0.0
C1942 C 0.34246 0.21949 0.522 0.0
C1943 C 0.34226 0.2067 0.50768 0.0
C1944 C 0.35714 0.19217 0.48928 0.0
C1945 C 0.36009 0.17974 0.5001 0.0
C1946 C 0.35191 0.18984 0.46597 0.0
C1947 C 0.34909 0.20287 0.45367 0.0
C1948 C 0.36243 0.22043 0.45266 0.0
C1949 C 0.35957 0.23282 0.44173 0.0
C1950 C 0.34331 0.22787 0.43167 0.0
C1951 C 0.33011 0.21021 0.43224 0.0
C1952 C 0.33299 0.19782 0.44313 0.0
C1953 C 0.34884 0.1466 0.4519 0.0
C1954 C 0.33237 0.13547 0.44226 0.0
C1955 C 0.32908 0.12015 0.43101 0.0
C1956 C 0.34224 0.11575 0.42903 0.0
C1957 C 0.35891 0.12725 0.43801 0.0
C1958 C 0.36215 0.14249 0.44945 0.0
C1959 C 0.35192 0.16224 0.4651 0.0
C1960 C 0.34935 0.17489 0.45415 0.0
C1961 C 0.35727 0.16464 0.48842 0.0
C1962 C 0.35848 0.15094 0.50161 0.0
C1963 C 0.344 0.13397 0.50307 0.0
C1964 C 0.34481 0.12126 0.51632 0.0
C1965 C 0.36007 0.1253 0.52856 0.0
C1966 C 0.37455 0.14228 0.52713 0.0
C1967 C 0.37376 0.15499 0.51375 0.0
H1968 H 0.78524 0.16418 0.51244 0.0
H1969 H 0.76306 0.14216 0.53792 0.0
H1970 H 0.77953 0.10559 0.51807 0.0
H1971 H 0.80194 0.12774 0.49309 0.0
H1972 H 0.82001 0.17814 0.51687 0.0
H1973 H 0.77791 0.14729 0.45732 0.0
H1974 H 0.7568 0.12119 0.43618 0.0
H1975 H 0.79772 0.11009 0.41893 0.0
H1976 H 0.81877 0.13607 0.4404 0.0
H1977 H 0.86409 0.18128 0.44262 0.0
H1978 H 0.89065 0.20272 0.42256 0.0
H1979 H 0.8784 0.24308 0.43817 0.0
H1980 H 0.85173 0.22157 0.45809 0.0
H1981 H 0.82994 0.17017 0.43481 0.0
H1982 H 0.87124 0.19824 0.49495 0.0
H1983 H 0.89226 0.22054 0.52111 0.0
H1984 H 0.85402 0.23516 0.53939 0.0
H1985 H 0.83297 0.21281 0.51315 0.0
C1986 C 0.79513 0.14756 0.50068 0.0
C1987 C 0.78391 0.15134 0.51335 0.0
C1988 C 0.77116 0.13873 0.52774 0.0
C1989 C 0.7695 0.12214 0.52979 0.0
C1990 C 0.78052 0.11827 0.51675 0.0
C1991 C 0.79323 0.13087 0.50236 0.0
C1992 C 0.80975 0.16143 0.4872 0.0
C1993 C 0.82196 0.17662 0.49876 0.0
C1994 C 0.81261 0.15911 0.46382 0.0
C1995 C 0.7999 0.14358 0.45052 0.0
C1996 C 0.78233 0.13923 0.44901 0.0
C1997 C 0.77033 0.12443 0.43678 0.0
C1998 C 0.7757 0.11374 0.4258 0.0
C1999 C 0.79327 0.11813 0.42727 0.0
C2000 C 0.8053 0.13298 0.4394 0.0
C2001 C 0.85603 0.19987 0.45199 0.0
C2002 C 0.86709 0.19473 0.44165 0.0
C2003 C 0.88229 0.20697 0.43037 0.0
C2004 C 0.8866 0.22454 0.42908 0.0
C2005 C 0.87534 0.22961 0.43899 0.0
C2006 C 0.86019 0.21738 0.45043 0.0
C2007 C 0.8402 0.1869 0.46452 0.0
C2008 C 0.82781 0.17187 0.45279 0.0
C2009 C 0.83727 0.18928 0.48785 0.0
C2010 C 0.85055 0.20392 0.50197 0.0
C2011 C 0.86748 0.20648 0.50421 0.0
C2012 C 0.87947 0.21919 0.5192 0.0
C2013 C 0.87469 0.22943 0.53244 0.0
C2014 C 0.85793 0.22723 0.52968 0.0
C2015 C 0.84595 0.21454 0.51464 0.0
H2016 H 0.96005 0.50421 0.17346 0.0
H2017 H 0.95721 0.52518 0.14903 0.0
H2018 H 0.01064 0.5641 0.16405 0.0
H2019 H 0.01341 0.54315 0.18855 0.0
H2020 H 0.98199 0.49161 0.16755 0.0
H2021 H 0.97194 0.52417 0.22596 0.0
H2022 H 0.97729 0.55063 0.24639 0.0
H2023 H 0.02913 0.56134 0.26398 0.0
H2024 H 0.024 0.53526 0.2428 0.0
H2025 H 0.02455 0.49008 0.24075 0.0
H2026 H 0.02953 0.46877 0.26131 0.0
H2027 H 0.97601 0.42893 0.24893 0.0
H2028 H 0.97103 0.45027 0.22847 0.0
H2029 H 0.00168 0.50188 0.24886 0.0
H2030 H 0.01374 0.4721 0.19007 0.0
H2031 H 0.01134 0.44784 0.16708 0.0
H2032 H 0.95829 0.43296 0.1494 0.0
H2033 H 0.96069 0.45724 0.17264 0.0
C2034 C 0.98691 0.52212 0.18291 0.0
C2035 C 0.97112 0.51728 0.17158 0.0
C2036 C 0.96953 0.52924 0.15758 0.0
C2037 C 0.98376 0.5462 0.15448 0.0
C2038 C 0.99943 0.55115 0.16626 0.0
C2039 C 0.00102 0.53919 0.18025 0.0
C2040 C 0.9889 0.50906 0.19653 0.0
C2041 C 0.98595 0.49369 0.18547 0.0
C2042 C 0.99469 0.51209 0.21967 0.0
C2043 C 0.99767 0.52787 0.23252 0.0
C2044 C 0.98453 0.53232 0.23399 0.0
C2045 C 0.98754 0.54734 0.24582 0.0
C2046 C 0.0037 0.55815 0.2565 0.0
C2047 C 0.01669 0.55347 0.25547 0.0
C2048 C 0.01371 0.53848 0.24357 0.0
C2049 C 0.99747 0.4717 0.23295 0.0
C2050 C 0.01388 0.47678 0.24257 0.0
C2051 C 0.01674 0.46461 0.25413 0.0
C2052 C 0.00318 0.44723 0.25646 0.0
C2053 C 0.98665 0.44227 0.24732 0.0
C2054 C 0.98383 0.4544 0.23558 0.0
C2055 C 0.99468 0.48445 0.21989 0.0
C2056 C 0.99752 0.49974 0.23102 0.0
C2057 C 0.989 0.48146 0.19673 0.0
C2058 C 0.9873 0.46634 0.18339 0.0
C2059 C 0.00147 0.46342 0.18164 0.0
C2060 C 1.00008 0.44954 0.16853 0.0
C2061 C 0.98454 0.43838 0.15674 0.0
C2062 C 0.97039 0.44135 0.15838 0.0
C2063 C 0.97176 0.4552 0.17161 0.0
H2064 H 0.50045 0.45221 0.1735 0.0
H2065 H 0.47848 0.42999 0.14778 0.0
H2066 H 0.4434 0.44927 0.16287 0.0
H2067 H 0.4653 0.47139 0.18857 0.0
H2068 H 0.51536 0.48836 0.16798 0.0
H2069 H 0.48261 0.44496 0.22491 0.0
H2070 H 0.45582 0.42362 0.2445 0.0
H2071 H 0.44594 0.46489 0.26444 0.0
H2072 H 0.47274 0.48624 0.24474 0.0
H2073 H 0.51678 0.52959 0.24629 0.0
H2074 H 0.53762 0.55558 0.26776 0.0
H2075 H 0.5795 0.5469 0.24695 0.0
H2076 H 0.55859 0.52068 0.22581 0.0
H2077 H 0.50613 0.49666 0.25018 0.0
H2078 H 0.53521 0.53918 0.19112 0.0
H2079 H 0.55806 0.56055 0.16583 0.0
H2080 H 0.57293 0.52246 0.14766 0.0
H2081 H 0.54999 0.50107 0.17293 0.0
C2082 C 0.48447 0.46338 0.18299 0.0
C2083 C 0.48796 0.45151 0.17143 0.0
C2084 C 0.47542 0.43883 0.15686 0.0
C2085 C 0.45937 0.43806 0.15333 0.0
C2086 C 0.45576 0.44971 0.16525 0.0
C2087 C 0.4682 0.46226 0.17998 0.0
C2088 C 0.49816 0.47765 0.19708 0.0
C2089 C 0.51356 0.49001 0.18611 0.0
C2090 C 0.49545 0.48004 0.22048 0.0
C2091 C 0.47956 0.46717 0.23307 0.0
C2092 C 0.47462 0.44941 0.23335 0.0
C2093 C 0.45932 0.43724 0.2445 0.0
C2094 C 0.44871 0.44261 0.25567 0.0
C2095 C 0.4539 0.46043 0.25593 0.0
C2096 C 0.46918 0.47261 0.24471 0.0
C2097 C 0.53611 0.52322 0.23426 0.0
C2098 C 0.53042 0.53315 0.24652 0.0
C2099 C 0.5423 0.54797 0.25881 0.0
C2100 C 0.56012 0.55314 0.25908 0.0
C2101 C 0.56583 0.5432 0.2469 0.0
C2102 C 0.5539 0.52828 0.23477 0.0
C2103 C 0.52336 0.50759 0.22102 0.0
C2104 C 0.50811 0.49495 0.23216 0.0
C2105 C 0.52607 0.50509 0.19761 0.0
C2106 C 0.54094 0.51854 0.184 0.0
C2107 C 0.54358 0.53551 0.18202 0.0
C2108 C 0.55662 0.5477 0.16755 0.0
C2109 C 0.56712 0.54308 0.15461 0.0
C2110 C 0.5648 0.52626 0.15713 0.0
C2111 C 0.55178 0.51407 0.17161 0.0
H2112 H 0.54218 0.04049 0.17044 0.0
H2113 H 0.56472 0.04112 0.14516 0.0
H2114 H 0.55088 0.98931 0.16781 0.0
H2115 H 0.52809 0.98852 0.19253 0.0
H2116 H 0.50745 0.01795 0.16676 0.0
H2117 H 0.55077 0.03328 0.22676 0.0
H2118 H 0.57263 0.02974 0.2481 0.0
H2119 H 0.53336 0.97683 0.2652 0.0
H2120 H 0.51149 0.98062 0.24438 0.0
H2121 H 0.46693 0.98059 0.24723 0.0
H2122 H 0.4405 0.97548 0.26757 0.0
H2123 H 0.4475 0.0242 0.24144 0.0
H2124 H 0.47423 0.0296 0.22168 0.0
H2125 H 0.49956 0.00357 0.24996 0.0
H2126 H 0.45666 0.98635 0.1911 0.0
H2127 H 0.43434 0.98613 0.16612 0.0
H2128 H 0.47137 0.03817 0.14285 0.0
H2129 H 0.49353 0.03861 0.16853 0.0
C2130 C 0.5335 0.0145 0.18346 0.0
C2131 C 0.54411 0.02933 0.1701 0.0
C2132 C 0.55701 0.02972 0.15577 0.0
C2133 C 0.55938 0.01519 0.15439 0.0
C2134 C 0.54914 0.00059 0.16832 0.0
C2135 C 0.53626 0.0002 0.18263 0.0
C2136 C 0.5187 0.01339 0.19688 0.0
C2137 C 0.5059 0.01522 0.18508 0.0
C2138 C 0.51635 0.00911 0.22055 0.0
C2139 C 0.52952 0.0072 0.23398 0.0
C2140 C 0.54687 0.02096 0.23522 0.0
C2141 C 0.55934 0.01891 0.24738 0.0
C2142 C 0.55468 0.00306 0.25853 0.0
C2143 C 0.53726 0.98934 0.25731 0.0
C2144 C 0.52478 0.99145 0.24531 0.0
C2145 C 0.47247 0.00537 0.23263 0.0
C2146 C 0.46289 0.99026 0.24602 0.0
C2147 C 0.44779 0.98732 0.25757 0.0
C2148 C 0.44192 0.99934 0.25576 0.0
C2149 C 0.45163 0.01459 0.24273 0.0
C2150 C 0.46686 0.01765 0.23142 0.0
C2151 C 0.48823 0.00817 0.21983 0.0
C2152 C 0.50119 0.0066 0.23172 0.0
C2153 C 0.49057 0.01238 0.19609 0.0
C2154 C 0.47675 0.01256 0.18182 0.0
C2155 C 0.45992 0.99784 0.18092 0.0
C2156 C 0.44723 0.99764 0.16646 0.0
C2157 C 0.45121 0.01206 0.15235 0.0
C2158 C 0.46795 0.02691 0.15359 0.0
C2159 C 0.48063 0.02713 0.16813 0.0
H2160 H 0.48466 0.01345 0.86093 0.0
H2161 H 0.46066 0.01158 0.88399 0.0
H2162 H 0.42384 0.96708 0.84392 0.0
H2163 H 0.44794 0.96925 0.82055 0.0
H2164 H 0.49451 0.98911 0.85648 0.0
H2165 H 0.47616 0.02008 0.80787 0.0
H2166 H 0.4545 0.02417 0.78703 0.0
H2167 H 0.44277 0.97977 0.74403 0.0
H2168 H 0.4645 0.97566 0.76504 0.0
H2169 H 0.51237 0.97512 0.76558 0.0
H2170 H 0.53812 0.97892 0.7446 0.0
H2171 H 0.57142 0.02166 0.78963 0.0
H2172 H 0.54572 0.01791 0.81045 0.0
H2173 H 0.49971 0.99686 0.77176 0.0
H2174 H 0.52168 0.96831 0.82177 0.0
H2175 H 0.54203 0.96488 0.84696 0.0
H2176 H 0.54814 0.00807 0.88854 0.0
H2177 H 0.52791 0.01147 0.86349 0.0
C2178 C 0.46808 0.99152 0.83901 0.0
C2179 C 0.47141 0.00336 0.85702 0.0
C2180 C 0.45769 0.00227 0.87017 0.0
C2181 C 0.44036 0.98923 0.8657 0.0
C2182 C 0.43701 0.97748 0.84748 0.0
C2183 C 0.45077 0.97864 0.83421 0.0
C2184 C 0.48286 0.99237 0.82585 0.0
C2185 C 0.49577 0.99097 0.83797 0.0
C2186 C 0.48425 0.99446 0.80168 0.0
C2187 C 0.47169 0.99735 0.78829 0.0
C2188 C 0.46885 0.01114 0.79407 0.0
C2189 C 0.45647 0.01345 0.7822 0.0
C2190 C 0.44678 0.00209 0.76422 0.0
C2191 C 0.45005 0.98866 0.75789 0.0
C2192 C 0.46242 0.98631 0.76985 0.0
C2193 C 0.52713 0.99608 0.78977 0.0
C2194 C 0.52522 0.98535 0.77086 0.0
C2195 C 0.5399 0.98757 0.75885 0.0
C2196 C 0.55673 0.00063 0.76547 0.0
C2197 C 0.5586 0.01141 0.7843 0.0
C2198 C 0.54394 0.00923 0.79623 0.0
C2199 C 0.51156 0.99378 0.80247 0.0
C2200 C 0.49844 0.99485 0.79024 0.0
C2201 C 0.51012 0.99169 0.82667 0.0
C2202 C 0.52323 0.99012 0.84079 0.0
C2203 C 0.52755 0.97714 0.83617 0.0
C2204 C 0.53912 0.97516 0.85056 0.0
C2205 C 0.54636 0.986 0.86989 0.0
C2206 C 0.5424 0.99927 0.87407 0.0
C2207 C 0.5309 0.00126 0.85972 0.0
H2208 H 0.04205 0.5418 0.85127 0.0
H2209 H 0.04238 0.56389 0.87703 0.0
H2210 H 0.99188 0.5521 0.85121 0.0
H2211 H 0.991 0.52924 0.82685 0.0
H2212 H 0.02136 0.50847 0.85331 0.0
H2213 H 0.03438 0.55019 0.79127 0.0
H2214 H 0.03014 0.57127 0.76904 0.0
H2215 H 0.97623 0.53187 0.75748 0.0
H2216 H 0.98081 0.51073 0.77877 0.0
H2217 H 0.98149 0.46645 0.7753 0.0
H2218 H 0.97627 0.4404 0.7539 0.0
H2219 H 0.02591 0.44792 0.77685 0.0
H2220 H 0.03151 0.47439 0.79754 0.0
H2221 H 0.00405 0.49886 0.77113 0.0
H2222 H 0.99029 0.45717 0.83217 0.0
H2223 H 0.99237 0.43629 0.85769 0.0
H2224 H 0.0456 0.47503 0.87403 0.0
H2225 H 0.04344 0.49591 0.8486 0.0
C2226 C 0.01655 0.53387 0.83695 0.0
C2227 C 0.03107 0.54401 0.8511 0.0
C2228 C 0.0313 0.55671 0.8657 0.0
C2229 C 0.01703 0.55952 0.86643 0.0
C2230 C 0.00289 0.54994 0.85147 0.0
C2231 C 0.00253 0.53707 0.83717 0.0
C2232 C 0.01538 0.51898 0.82355 0.0
C2233 C 0.01797 0.50657 0.83518 0.0
C2234 C 0.01038 0.51614 0.80012 0.0
C2235 C 0.00792 0.52891 0.78659 0.0
C2236 C 0.0217 0.54611 0.78378 0.0
C2237 C 0.01923 0.55812 0.77114 0.0
C2238 C 0.0029 0.55319 0.76122 0.0
C2239 C 0.9891 0.53597 0.76426 0.0
C2240 C 0.99166 0.5239 0.77658 0.0
C2241 C 0.00683 0.47234 0.78826 0.0
C2242 C 0.99134 0.46261 0.77561 0.0
C2243 C 0.98834 0.44774 0.76341 0.0
C2244 C 0.00071 0.44226 0.76378 0.0
C2245 C 0.01616 0.45189 0.77647 0.0
C2246 C 0.01929 0.46693 0.78837 0.0
C2247 C 0.00995 0.48827 0.80093 0.0
C2248 C 0.00772 0.50086 0.78916 0.0
C2249 C 0.01517 0.4912 0.82431 0.0
C2250 C 0.01674 0.47809 0.83842 0.0
C2251 C 0.00248 0.46109 0.841 0.0
C2252 C 0.00368 0.44918 0.85557 0.0
C2253 C 0.01908 0.45412 0.868 0.0
C2254 C 0.03347 0.471 0.86497 0.0
C2255 C 0.03227 0.48289 0.8504 0.0
H2256 H 0.45473 0.49781 0.84595 0.0
H2257 H 0.43193 0.47638 0.87146 0.0
H2258 H 0.4486 0.43929 0.85574 0.0
H2259 H 0.4714 0.46073 0.83037 0.0
H2260 H 0.49051 0.5109 0.85197 0.0
H2261 H 0.44737 0.48096 0.79187 0.0
H2262 H 0.42584 0.45511 0.7707 0.0
H2263 H 0.46529 0.44115 0.75691 0.0
H2264 H 0.48685 0.4673 0.77742 0.0
H2265 H 0.53381 0.51479 0.7764 0.0
H2266 H 0.56013 0.53701 0.75677 0.0
H2267 H 0.54476 0.57541 0.77064 0.0
H2268 H 0.51889 0.55331 0.79109 0.0
H2269 H 0.49838 0.50241 0.76932 0.0
H2270 H 0.54197 0.53224 0.82501 0.0
H2271 H 0.56437 0.55578 0.84813 0.0
H2272 H 0.52549 0.56657 0.87608 0.0
H2273 H 0.50339 0.544 0.85135 0.0
C2274 C 0.46464 0.4808 0.83615 0.0
C2275 C 0.45329 0.48497 0.84777 0.0
C2276 C 0.44024 0.47273 0.86219 0.0
C2277 C 0.43849 0.4562 0.86539 0.0
C2278 C 0.44969 0.45195 0.85348 0.0
C2279 C 0.46263 0.46413 0.83892 0.0
C2280 C 0.47939 0.49423 0.82245 0.0
C2281 C 0.49206 0.50931 0.83376 0.0
C2282 C 0.48174 0.49164 0.79901 0.0
C2283 C 0.46869 0.47603 0.78618 0.0
C2284 C 0.45137 0.47234 0.7842 0.0
C2285 C 0.43909 0.45757 0.77214 0.0
C2286 C 0.44392 0.44621 0.76186 0.0
C2287 C 0.46127 0.4499 0.76404 0.0
C2288 C 0.47357 0.46476 0.7759 0.0
C2289 C 0.52455 0.53249 0.7854 0.0
C2290 C 0.53612 0.528 0.77513 0.0
C2291 C 0.55112 0.54069 0.76392 0.0
C2292 C 0.5547 0.55804 0.76256 0.0
C2293 C 0.54268 0.56231 0.77207 0.0
C2294 C 0.52782 0.54967 0.78355 0.0
C2295 C 0.50936 0.51934 0.79872 0.0
C2296 C 0.4967 0.50424 0.78742 0.0
C2297 C 0.5072 0.52181 0.82233 0.0
C2298 C 0.52099 0.53656 0.83592 0.0
C2299 C 0.53833 0.54005 0.83547 0.0
C2300 C 0.55112 0.55337 0.849 0.0
C2301 C 0.54681 0.56323 0.86379 0.0
C2302 C 0.52942 0.55963 0.86439 0.0
C2303 C 0.51669 0.54653 0.85047 0.0
H2304 H 0.62513 0.83757 0.50067 0.0
H2305 H 0.62558 0.85946 0.47445 0.0
H2306 H 0.67714 0.89709 0.49859 0.0
H2307 H 0.67696 0.87505 0.52403 0.0
H2308 H 0.64584 0.82408 0.49897 0.0
H2309 H 0.63312 0.85533 0.55652 0.0
H2310 H 0.63738 0.88103 0.57803 0.0
H2311 H 0.68849 0.89141 0.59908 0.0
H2312 H 0.68435 0.86595 0.57716 0.0
H2313 H 0.68532 0.82186 0.57506 0.0
H2314 H 0.69056 0.80081 0.59575 0.0
H2315 H 0.63826 0.75978 0.57954 0.0
H2316 H 0.63299 0.78091 0.55898 0.0
H2317 H 0.66158 0.83235 0.58174 0.0
H2318 H 0.6764 0.80411 0.52328 0.0
H2319 H 0.67504 0.78064 0.49954 0.0
H2320 H 0.62254 0.76585 0.479 0.0
H2321 H 0.62391 0.78937 0.50292 0.0
C2322 C 0.65097 0.85466 0.51442 0.0
C2323 C 0.63648 0.85057 0.50042 0.0
C2324 C 0.63671 0.86309 0.48555 0.0
C2325 C 0.65148 0.87989 0.4843 0.0
C2326 C 0.66571 0.88415 0.49891 0.0
C2327 C 0.66552 0.87162 0.51368 0.0
C2328 C 0.65147 0.8409 0.52843 0.0
C2329 C 0.64886 0.8257 0.51721 0.0
C2330 C 0.65601 0.84328 0.55204 0.0
C2331 C 0.65845 0.85876 0.56514 0.0
C2332 C 0.64527 0.86318 0.56568 0.0
C2333 C 0.64764 0.87775 0.57814 0.0
C2334 C 0.66321 0.88809 0.59036 0.0
C2335 C 0.67638 0.88367 0.58977 0.0
C2336 C 0.67399 0.86909 0.57738 0.0
C2337 C 0.65882 0.80291 0.56534 0.0
C2338 C 0.67495 0.80835 0.57606 0.0
C2339 C 0.67797 0.79633 0.58771 0.0
C2340 C 0.66486 0.77869 0.58898 0.0
C2341 C 0.64857 0.77332 0.57875 0.0
C2342 C 0.64559 0.78533 0.56695 0.0
C2343 C 0.65601 0.81563 0.55224 0.0
C2344 C 0.65822 0.83061 0.56361 0.0
C2345 C 0.65129 0.81314 0.5287 0.0
C2346 C 0.65015 0.79834 0.51518 0.0
C2347 C 0.66445 0.7956 0.51407 0.0
C2348 C 0.66366 0.78217 0.50052 0.0
C2349 C 0.64859 0.77128 0.48768 0.0
C2350 C 0.63429 0.77403 0.48877 0.0
C2351 C 0.63506 0.78744 0.50241 0.0
H2352 H 0.16634 0.78677 0.50321 0.0
H2353 H 0.14359 0.76518 0.47806 0.0
H2354 H 0.10588 0.77611 0.50964 0.0
H2355 H 0.12886 0.79856 0.53345 0.0
H2356 H 0.17881 0.82013 0.50292 0.0
H2357 H 0.15012 0.77596 0.56191 0.0
H2358 H 0.12437 0.75468 0.58352 0.0
H2359 H 0.11582 0.79613 0.60692 0.0
H2360 H 0.14129 0.81729 0.58491 0.0
H2361 H 0.18424 0.86059 0.58334 0.0
H2362 H 0.20584 0.88693 0.60345 0.0
H2363 H 0.24716 0.87935 0.577 0.0
H2364 H 0.22549 0.85283 0.55705 0.0
H2365 H 0.17489 0.82768 0.58686 0.0
H2366 H 0.19947 0.87071 0.52755 0.0
H2367 H 0.22082 0.89265 0.50133 0.0
H2368 H 0.23478 0.8552 0.47673 0.0
H2369 H 0.21343 0.83326 0.50309 0.0
C2370 C 0.14936 0.79427 0.52038 0.0
C2371 C 0.15316 0.7845 0.50475 0.0
C2372 C 0.14012 0.77207 0.49049 0.0
C2373 C 0.12298 0.76912 0.4916 0.0
C2374 C 0.11904 0.77839 0.50794 0.0
C2375 C 0.13214 0.79101 0.5219 0.0
C2376 C 0.16365 0.80881 0.53363 0.0
C2377 C 0.17815 0.82154 0.52139 0.0
C2378 C 0.1625 0.81105 0.5576 0.0
C2379 C 0.14756 0.79819 0.57166 0.0
C2380 C 0.14273 0.78046 0.57175 0.0
C2381 C 0.12814 0.76836 0.58426 0.0
C2382 C 0.1182 0.77381 0.597 0.0
C2383 C 0.12325 0.7916 0.59722 0.0
C2384 C 0.13783 0.80368 0.58476 0.0
C2385 C 0.20323 0.85476 0.56857 0.0
C2386 C 0.19793 0.86447 0.58204 0.0
C2387 C 0.21026 0.87949 0.59357 0.0
C2388 C 0.22813 0.88506 0.59191 0.0
C2389 C 0.23345 0.87533 0.57848 0.0
C2390 C 0.2211 0.86023 0.56706 0.0
C2391 C 0.18999 0.83898 0.55609 0.0
C2392 C 0.17572 0.82606 0.56847 0.0
C2393 C 0.19119 0.8367 0.53217 0.0
C2394 C 0.20501 0.8504 0.51752 0.0
C2395 C 0.20739 0.86732 0.5169 0.0
C2396 C 0.2196 0.87985 0.50193 0.0
C2397 C 0.22957 0.87566 0.4872 0.0
C2398 C 0.22726 0.85876 0.48793 0.0
C2399 C 0.2151 0.84625 0.50297 0.0
H2400 H 0.1417 0.32994 0.49223 0.0
H2401 H 0.11878 0.33103 0.47004 0.0
H2402 H 0.12615 0.37532 0.51015 0.0
H2403 H 0.14913 0.37416 0.53249 0.0
H2404 H 0.17631 0.35574 0.49584 0.0
H2405 H 0.1271 0.32257 0.54402 0.0
H2406 H 0.10108 0.31693 0.56569 0.0
H2407 H 0.13292 0.36067 0.61017 0.0
H2408 H 0.15901 0.36633 0.58832 0.0
H2409 H 0.20783 0.3669 0.58683 0.0
H2410 H 0.22883 0.36175 0.60776 0.0
H2411 H 0.22007 0.32092 0.5596 0.0
H2412 H 0.19861 0.32564 0.53927 0.0
H2413 H 0.17366 0.34562 0.58002 0.0
H2414 H 0.2248 0.37413 0.53073 0.0
H2415 H 0.24827 0.37736 0.50488 0.0
H2416 H 0.20992 0.33805 0.45988 0.0
H2417 H 0.18662 0.3344 0.48586 0.0
C2418 C 0.14711 0.35197 0.51396 0.0
C2419 C 0.13836 0.33986 0.4963 0.0
C2420 C 0.12523 0.34043 0.48375 0.0
C2421 C 0.12079 0.35329 0.4884 0.0
C2422 C 0.12945 0.36537 0.50619 0.0
C2423 C 0.14249 0.36466 0.51896 0.0
C2424 C 0.16132 0.35143 0.5267 0.0
C2425 C 0.17574 0.3534 0.51423 0.0
C2426 C 0.16059 0.34869 0.55072 0.0
C2427 C 0.14495 0.34504 0.56436 0.0
C2428 C 0.12848 0.33102 0.55835 0.0
C2429 C 0.11365 0.32778 0.57075 0.0
C2430 C 0.11502 0.33835 0.58961 0.0
C2431 C 0.13155 0.35219 0.59589 0.0
C2432 C 0.14642 0.35547 0.5834 0.0
C2433 C 0.20185 0.34686 0.56126 0.0
C2434 C 0.21046 0.35686 0.58076 0.0
C2435 C 0.22256 0.35402 0.59258 0.0
C2436 C 0.22626 0.3411 0.58511 0.0
C2437 C 0.21749 0.33098 0.56573 0.0
C2438 C 0.20536 0.33378 0.55397 0.0
C2439 C 0.1887 0.34961 0.54906 0.0
C2440 C 0.17445 0.34816 0.56168 0.0
C2441 C 0.18939 0.35237 0.52497 0.0
C2442 C 0.20391 0.354 0.51027 0.0
C2443 C 0.22146 0.36602 0.51549 0.0
C2444 C 0.23484 0.36793 0.50071 0.0
C2445 C 0.23079 0.35812 0.48032 0.0
C2446 C 0.2133 0.34596 0.47533 0.0
C2447 C 0.20001 0.34388 0.49017 0.0
C2448 C 0.97808 0.41073 0.10363 0.0
C2449 C 0.98381 0.39927 0.11089 0.0
C2450 C 0.97789 0.42299 0.11875 0.0
C2451 C 0.98348 0.4243 0.14169 0.0
H2452 H 0.97428 0.41064 0.0859 0.0
H2453 H 0.97392 0.43192 0.11221 0.0
S2454 S 0.99771 0.396 0.17 0.0
N2455 N 0.99377 0.38903 0.1431 0.0
N2456 N 0.9935 0.41217 0.17149 0.0
C2457 C 0.98862 0.41251 0.14942 0.0
C2458 C 0.98877 0.39999 0.13404 0.0
C2459 C 0.60293 0.58521 0.12819 0.0
C2460 C 0.603 0.58057 0.10502 0.0
C2461 C 0.59156 0.57293 0.14425 0.0
C2462 C 0.57986 0.55557 0.13774 0.0
H2463 H 0.61163 0.59848 0.13389 0.0
H2464 H 0.59184 0.57708 0.16188 0.0
S2465 S 0.57424 0.53705 0.07895 0.0
N2466 N 0.59 0.55756 0.07625 0.0
N2467 N 0.56867 0.5345 0.10641 0.0
C2468 C 0.57989 0.55074 0.11467 0.0
C2469 C 0.59145 0.56323 0.09833 0.0
C2470 C 0.42262 0.02491 0.11851 0.0
C2471 C 0.4136 0.01073 0.10338 0.0
C2472 C 0.43469 0.02523 0.13443 0.0
C2473 C 0.43817 0.01138 0.13572 0.0
H2474 H 0.42021 0.03576 0.11817 0.0
H2475 H 0.44125 0.03632 0.14592 0.0
S2476 S 0.41925 0.97206 0.09835 0.0
N2477 N 0.40977 0.98305 0.08971 0.0
N2478 N 0.43245 0.98366 0.1195 0.0
C2479 C 0.42944 0.99727 0.12042 0.0
C2480 C 0.41716 0.99695 0.10428 0.0
C2481 C 0.41528 0.98663 0.91996 0.0
C2482 C 0.39956 0.98485 0.91159 0.0
C2483 C 0.42825 0.9879 0.90497 0.0
C2484 C 0.42608 0.98746 0.88096 0.0
H2485 H 0.41777 0.98741 0.9383 0.0
H2486 H 0.44011 0.98923 0.91229 0.0
S2487 S 0.38722 0.98269 0.85018 0.0
N2488 N 0.38234 0.98227 0.8777 0.0
N2489 N 0.40696 0.98508 0.84943 0.0
C2490 C 0.41036 0.98552 0.87229 0.0
C2491 C 0.39709 0.98419 0.88761 0.0
C2492 C 0.01419 0.41256 0.89421 0.0
C2493 C 0.01951 0.41747 0.91715 0.0
C2494 C 0.01436 0.42455 0.8783 0.0
C2495 C 0.01985 0.44188 0.88475 0.0
H2496 H 0.00978 0.39932 0.88856 0.0
H2497 H 0.01011 0.42021 0.86084 0.0
S2498 S 0.034 0.46098 0.94304 0.0
N2499 N 0.0298 0.44066 0.9457 0.0
N2500 N 0.03013 0.46317 0.91583 0.0
C2501 C 0.02524 0.44696 0.90761 0.0
C2502 C 0.02507 0.43477 0.92379 0.0
C2503 C 0.58387 0.58407 0.90721 0.0
C2504 C 0.58513 0.60024 0.91184 0.0
C2505 C 0.57158 0.57232 0.89151 0.0
C2506 C 0.5602 0.57638 0.87962 0.0
H2507 H 0.59215 0.58029 0.91628 0.0
H2508 H 0.57073 0.55978 0.88911 0.0
S2509 S 0.55957 0.61792 0.88424 0.0
N2510 N 0.57472 0.62019 0.90275 0.0
N2511 N 0.55198 0.59841 0.87251 0.0
C2512 C 0.56173 0.5928 0.88367 0.0
C2513 C 0.5741 0.60465 0.89994 0.0
C2514 C 0.03096 0.59997 0.90348 0.0
C2515 C 0.01627 0.59502 0.91758 0.0
C2516 C 0.0311 0.58849 0.88686 0.0
C2517 C 0.0165 0.57172 0.88362 0.0
H2518 H 0.04252 0.61269 0.90555 0.0
H2519 H 0.0427 0.5928 0.87643 0.0
S2520 S 0.97462 0.55267 0.91576 0.0
N2521 N 0.98652 0.57247 0.92659 0.0
N2522 N 0.98701 0.55074 0.89608 0.0
C2523 C 0.00169 0.5667 0.8975 0.0
C2524 C 0.00152 0.57838 0.9143 0.0
C2525 C 0.4206 0.4261 0.9169 0.0
C2526 C 0.40268 0.4206 0.91644 0.0
C2527 C 0.43199 0.43744 0.90013 0.0
C2528 C 0.42594 0.44386 0.88244 0.0
H2529 H 0.42581 0.42144 0.9302 0.0
H2530 H 0.44571 0.4414 0.90118 0.0
S2531 S 0.38024 0.43346 0.87357 0.0
N2532 N 0.37937 0.42236 0.89685 0.0
N2533 N 0.4009 0.44385 0.86533 0.0
C2534 C 0.40807 0.43852 0.8818 0.0
C2535 C 0.39641 0.4268 0.89876 0.0
C2536 C 0.5845 0.98226 0.893 0.0
C2537 C 0.58175 0.98132 0.91696 0.0
C2538 C 0.5727 0.98319 0.87776 0.0
C2539 C 0.55788 0.98345 0.88598 0.0
H2540 H 0.59599 0.98252 0.88603 0.0
H2541 H 0.57549 0.98427 0.85948 0.0
S2542 S 0.54438 0.98067 0.947 0.0
N2543 N 0.56286 0.98037 0.94808 0.0
N2544 N 0.54062 0.98182 0.91943 0.0
C2545 C 0.55475 0.98206 0.90981 0.0
C2546 C 0.56668 0.98105 0.9253 0.0
C2547 C 0.60108 0.02877 0.1205 0.0
C2548 C 0.59576 0.01521 0.1043 0.0
C2549 C 0.58927 0.02871 0.13671 0.0
C2550 C 0.57183 0.01493 0.1375 0.0
H2551 H 0.61439 0.03962 0.12039 0.0
H2552 H 0.5938 0.03946 0.14879 0.0
S2553 S 0.55161 0.97614 0.0992 0.0
N2554 N 0.57207 0.98749 0.09038 0.0
N2555 N 0.54988 0.98742 0.12067 0.0
C2556 C 0.56645 0.00122 0.12156 0.0
C2557 C 0.57841 0.00135 0.10499 0.0
C2558 C 0.98822 0.58793 0.12949 0.0
C2559 C 0.98257 0.58318 0.10663 0.0
C2560 C 0.98824 0.57581 0.14502 0.0
C2561 C 0.98261 0.55852 0.13825 0.0
H2562 H 0.9928 0.60115 0.13536 0.0
H2563 H 0.99279 0.58004 0.16243 0.0
S2564 S 0.96754 0.53979 0.07998 0.0
N2565 N 0.97178 0.56015 0.0778 0.0
N2566 N 0.97179 0.53742 0.10696 0.0
C2567 C 0.97685 0.55358 0.11549 0.0
C2568 C 0.97683 0.5659 0.09969 0.0
C2569 C 0.42788 0.39589 0.12254 0.0
C2570 C 0.42259 0.40192 0.10354 0.0
C2571 C 0.43995 0.40766 0.13855 0.0
C2572 C 0.44676 0.42576 0.1363 0.0
H2573 H 0.42278 0.38202 0.12489 0.0
H2574 H 0.44382 0.40258 0.15292 0.0
S2575 S 0.43675 0.44804 0.08984 0.0
N2576 N 0.42492 0.42707 0.08349 0.0
N2577 N 0.44739 0.44913 0.11368 0.0
C2578 C 0.44145 0.4319 0.11748 0.0
C2579 C 0.42941 0.41998 0.10106 0.0
C2580 C 0.64406 0.74534 0.43343 0.0
C2581 C 0.64974 0.7338 0.44048 0.0
C2582 C 0.6433 0.75709 0.44894 0.0
C2583 C 0.64822 0.75777 0.4721 0.0
H2584 H 0.64072 0.74571 0.41558 0.0
H2585 H 0.63938 0.7661 0.44257 0.0
S2586 S 0.66204 0.72896 0.49987 0.0
N2587 N 0.65896 0.72279 0.47262 0.0
N2588 N 0.65759 0.74494 0.50178 0.0
C2589 C 0.65332 0.74589 0.47958 0.0
C2590 C 0.65407 0.7339 0.46378 0.0
C2591 C 0.25046 0.89593 0.4299 0.0
C2592 C 0.26275 0.91325 0.43584 0.0
C2593 C 0.24011 0.88377 0.4467 0.0
C2594 C 0.24154 0.88852 0.47006 0.0
H2595 H 0.24878 0.89177 0.41208 0.0
H2596 H 0.2306 0.87065 0.4413 0.0
S2597 S 0.272 0.9321 0.4947 0.0
N2598 N 0.27594 0.93449 0.46675 0.0
N2599 N 0.25656 0.91154 0.49839 0.0
C2600 C 0.25395 0.90572 0.47629 0.0
C2601 C 0.26457 0.91809 0.45918 0.0
C2602 C 0.07866 0.33924 0.45596 0.0
C2603 C 0.08275 0.35398 0.44245 0.0
C2604 C 0.09086 0.33931 0.47138 0.0
C2605 C 0.10746 0.35421 0.47406 0.0
H2606 H 0.06623 0.32732 0.45389 0.0
H2607 H 0.08743 0.32751 0.48092 0.0
S2608 S 0.1241 0.39649 0.44386 0.0
N2609 N 0.10418 0.38411 0.43356 0.0
N2610 N 0.1271 0.38429 0.46271 0.0
C2611 C 0.11144 0.36926 0.46138 0.0
C2612 C 0.0991 0.36912 0.44549 0.0
C2613 C 0.06503 0.31228 0.2271 0.0
C2614 C 0.06785 0.31353 0.25105 0.0
C2615 C 0.07743 0.31252 0.21178 0.0
C2616 C 0.09316 0.31415 0.21986 0.0
H2617 H 0.05321 0.31128 0.22013 0.0
H2618 H 0.07491 0.3119 0.19347 0.0
S2619 S 0.10661 0.3172 0.28093 0.0
N2620 N 0.08753 0.31626 0.28205 0.0
N2621 N 0.11046 0.31608 0.25336 0.0
C2622 C 0.09592 0.31494 0.24377 0.0
C2623 C 0.08337 0.31477 0.25933 0.0
C2624 C 0.69807 0.7595 0.23175 0.0
C2625 C 0.68361 0.75004 0.24629 0.0
C2626 C 0.69845 0.77166 0.21593 0.0
C2627 C 0.68442 0.77483 0.2142 0.0
H2628 H 0.70909 0.75736 0.23248 0.0
H2629 H 0.70976 0.77854 0.20486 0.0
S2630 S 0.64433 0.75474 0.25017 0.0
N2631 N 0.65544 0.74544 0.25903 0.0
N2632 N 0.65621 0.76836 0.22953 0.0
C2633 C 0.67004 0.76568 0.22899 0.0
C2634 C 0.66963 0.75328 0.24498 0.0
C2635 C 0.23001 0.92485 0.24868 0.0
C2636 C 0.24714 0.93689 0.2416 0.0
C2637 C 0.21752 0.91332 0.23298 0.0
C2638 C 0.22169 0.91334 0.2096 0.0
H2639 H 0.22637 0.92393 0.26664 0.0
H2640 H 0.20466 0.90392 0.23934 0.0
S2641 S 0.26404 0.94354 0.18179 0.0
N2642 N 0.26718 0.94906 0.20927 0.0
N2643 N 0.2437 0.92728 0.17978 0.0
C2644 C 0.23857 0.92567 0.20213 0.0
C2645 C 0.25129 0.93746 0.21811 0.0
C2646 C 0.69697 0.93778 0.22687 0.0
C2647 C 0.68573 0.93207 0.24601 0.0
C2648 C 0.69723 0.92574 0.21132 0.0
C2649 C 0.68596 0.90768 0.2142 0.0
H2650 H 0.70568 0.95162 0.22403 0.0
H2651 H 0.7061 0.93057 0.1968 0.0
S2652 S 0.65392 0.88621 0.26134 0.0
N2653 N 0.66309 0.9073 0.26696 0.0
N2654 N 0.66335 0.8847 0.23757 0.0
C2655 C 0.6746 0.90186 0.23319 0.0
C2656 C 0.67455 0.91406 0.24915 0.0
C2657 C 0.08583 0.76028 0.24825 0.0
C2658 C 0.068 0.75511 0.2491 0.0
C2659 C 0.09683 0.77182 0.23133 0.0
C2660 C 0.09045 0.77878 0.21477 0.0
H2661 H 0.0913 0.75522 0.26065 0.0
H2662 H 0.1105 0.77554 0.23142 0.0
S2663 S 0.04479 0.76937 0.20946 0.0
N2664 N 0.04443 0.75778 0.23192 0.0
N2665 N 0.06516 0.77954 0.20005 0.0
C2666 C 0.07265 0.77373 0.21539 0.0
C2667 C 0.0614 0.76184 0.23253 0.0
C2668 C 0.25259 0.31288 0.2247 0.0
C2669 C 0.24951 0.31073 0.24857 0.0
C2670 C 0.24019 0.3129 0.20966 0.0
C2671 C 0.22445 0.31105 0.21808 0.0
H2672 H 0.26479 0.31485 0.21766 0.0
H2673 H 0.24321 0.31501 0.19146 0.0
S2674 S 0.20983 0.30443 0.27891 0.0
N2675 N 0.22932 0.30626 0.27977 0.0
N2676 N 0.20606 0.30619 0.25151 0.0
C2677 C 0.22102 0.30842 0.24178 0.0
C2678 C 0.23354 0.30827 0.25703 0.0
C2679 C 0.26952 0.35672 0.45481 0.0
C2680 C 0.26835 0.35981 0.43129 0.0
C2681 C 0.25784 0.35704 0.47092 0.0
C2682 C 0.2446 0.3604 0.46398 0.0
H2683 H 0.27895 0.35317 0.46063 0.0
H2684 H 0.25863 0.35382 0.4887 0.0
S2685 S 0.23773 0.37202 0.40522 0.0
N2686 N 0.25425 0.36844 0.40245 0.0
N2687 N 0.23216 0.36874 0.43267 0.0
C2688 C 0.24396 0.36452 0.44082 0.0
C2689 C 0.25587 0.36431 0.42448 0.0
C2690 C 0.63906 0.90773 0.44795 0.0
C2691 C 0.6532 0.91603 0.43259 0.0
C2692 C 0.6386 0.89611 0.46473 0.0
C2693 C 0.65238 0.89259 0.46693 0.0
H2694 H 0.62814 0.90999 0.4467 0.0
H2695 H 0.62741 0.88986 0.47611 0.0
S2696 S 0.69261 0.91142 0.43131 0.0
N2697 N 0.68153 0.92037 0.42109 0.0
N2698 N 0.68054 0.89837 0.4523 0.0
C2699 C 0.66668 0.90101 0.45185 0.0
C2700 C 0.66712 0.91275 0.43476 0.0
C2701 C 0.09546 0.72921 0.45403 0.0
C2702 C 0.08446 0.73382 0.4424 0.0
C2703 C 0.10771 0.74056 0.47018 0.0
C2704 C 0.1095 0.75699 0.47505 0.0
H2705 H 0.0945 0.71671 0.45072 0.0
H2706 H 0.11581 0.73643 0.47896 0.0
S2707 S 0.08477 0.77573 0.44735 0.0
N2708 N 0.0766 0.75609 0.43588 0.0
N2709 N 0.09989 0.77764 0.46564 0.0
C2710 C 0.09871 0.76181 0.46315 0.0
C2711 C 0.08615 0.75018 0.44696 0.0
C2712 C 0.3046 0.06427 0.78316 0.0
C2713 C 0.31917 0.06951 0.76876 0.0
C2714 C 0.304 0.07594 0.79904 0.0
C2715 C 0.31793 0.09326 0.80097 0.0
H2716 H 0.29368 0.05103 0.78229 0.0
H2717 H 0.29264 0.07134 0.81004 0.0
S2718 S 0.35818 0.11381 0.76533 0.0
N2719 N 0.34729 0.09337 0.75631 0.0
N2720 N 0.34611 0.11534 0.78588 0.0
C2721 C 0.33239 0.09871 0.78627 0.0
C2722 C 0.33302 0.08683 0.77023 0.0
C2723 C 0.93923 0.23884 0.78905 0.0
C2724 C 0.93492 0.24991 0.777 0.0
C2725 C 0.9277 0.22687 0.8053 0.0
C2726 C 0.91138 0.22542 0.80985 0.0
H2727 H 0.95158 0.23943 0.78585 0.0
H2728 H 0.93157 0.21863 0.81428 0.0
S2729 S 0.89352 0.25064 0.78136 0.0
N2730 N 0.91313 0.25834 0.76999 0.0
N2731 N 0.89125 0.23558 0.79999 0.0
C2732 C 0.90693 0.23639 0.79773 0.0
C2733 C 0.91874 0.24868 0.78142 0.0
C2734 C 0.75257 0.68803 0.79088 0.0
C2735 C 0.75438 0.68696 0.76693 0.0
C2736 C 0.7645 0.68755 0.80633 0.0
C2737 C 0.7786 0.68585 0.79841 0.0
H2738 H 0.74176 0.6891 0.79773 0.0
H2739 H 0.76241 0.68804 0.82463 0.0
S2740 S 0.7896 0.68317 0.73744 0.0
N2741 N 0.77157 0.68429 0.73612 0.0
N2742 N 0.79425 0.68403 0.76507 0.0
C2743 C 0.78082 0.68522 0.77452 0.0
C2744 C 0.76867 0.68564 0.75882 0.0
C2745 C 0.74149 0.66331 0.56194 0.0
C2746 C 0.72987 0.6482 0.57426 0.0
C2747 C 0.75371 0.66323 0.54666 0.0
C2748 C 0.75462 0.648 0.54295 0.0
H2749 H 0.74165 0.67548 0.56485 0.0
H2750 H 0.76276 0.67527 0.53803 0.0
S2751 S 0.72629 0.60473 0.56975 0.0
N2752 N 0.71935 0.61738 0.58078 0.0
N2753 N 0.7424 0.61725 0.55208 0.0
C2754 C 0.74261 0.63263 0.55444 0.0
C2755 C 0.73024 0.63274 0.57013 0.0
C2756 C 0.36439 0.10389 0.58269 0.0
C2757 C 0.35809 0.08649 0.57576 0.0
C2758 C 0.36551 0.11648 0.56712 0.0
C2759 C 0.36037 0.11215 0.54403 0.0
H2760 H 0.36786 0.10766 0.6005 0.0
H2761 H 0.36984 0.12956 0.57341 0.0
S2762 S 0.34509 0.06903 0.51654 0.0
N2763 N 0.34815 0.06598 0.54378 0.0
N2764 N 0.35023 0.08968 0.5145 0.0
C2765 C 0.35474 0.095 0.53664 0.0
C2766 C 0.35361 0.08217 0.5525 0.0
C2767 C 0.91647 0.26437 0.56065 0.0
C2768 C 0.9116 0.26342 0.58389 0.0
C2769 C 0.90437 0.2536 0.54399 0.0
C2770 C 0.88693 0.24168 0.54994 0.0
H2771 H 0.92987 0.27308 0.55545 0.0
H2772 H 0.90874 0.25445 0.52636 0.0
S2773 S 0.86745 0.23487 0.60828 0.0
N2774 N 0.88804 0.25023 0.61185 0.0
N2775 N 0.86533 0.22988 0.58062 0.0
C2776 C 0.8818 0.241 0.57301 0.0
C2777 C 0.89413 0.25188 0.58996 0.0
C2778 C 0.34892 0.25085 0.58531 0.0
C2779 C 0.35651 0.26873 0.58011 0.0
C2780 C 0.34953 0.23917 0.56957 0.0
C2781 C 0.358 0.245 0.54826 0.0
H2782 H 0.34214 0.24581 0.60149 0.0
H2783 H 0.34335 0.22546 0.57407 0.0
S2784 S 0.38015 0.29043 0.52647 0.0
N2785 N 0.37282 0.2917 0.55218 0.0
N2786 N 0.37422 0.26967 0.52271 0.0
C2787 C 0.36583 0.26282 0.54292 0.0
C2788 C 0.36499 0.27471 0.55881 0.0
C2789 C 0.75278 0.09042 0.5798 0.0
C2790 C 0.7351 0.08574 0.58138 0.0
C2791 C 0.76367 0.10196 0.56282 0.0
C2792 C 0.75734 0.10937 0.54686 0.0
H2793 H 0.75824 0.08506 0.59176 0.0
H2794 H 0.77725 0.10535 0.56245 0.0
S2795 S 0.712 0.10118 0.54339 0.0
N2796 N 0.71168 0.08927 0.56545 0.0
N2797 N 0.73219 0.11096 0.53335 0.0
C2798 C 0.73966 0.10473 0.54811 0.0
C2799 C 0.72852 0.09287 0.56537 0.0
C2800 C 0.91396 0.64492 0.56361 0.0
C2801 C 0.91135 0.64541 0.58743 0.0
C2802 C 0.90186 0.64458 0.5477 0.0
C2803 C 0.88678 0.6447 0.55514 0.0
H2804 H 0.92577 0.64553 0.55725 0.0
H2805 H 0.90466 0.64492 0.52949 0.0
S2806 S 0.87272 0.64319 0.61569 0.0
N2807 N 0.89177 0.64411 0.61768 0.0
N2808 N 0.86899 0.64334 0.58788 0.0
C2809 C 0.88359 0.64419 0.57893 0.0
C2810 C 0.89589 0.64458 0.59505 0.0
C2811 C 0.92365 0.688 0.76477 0.0
C2812 C 0.93753 0.68613 0.7731 0.0
C2813 C 0.91118 0.68789 0.77974 0.0
C2814 C 0.9122 0.68606 0.80363 0.0
H2815 H 0.92203 0.68893 0.74644 0.0
H2816 H 0.9005 0.68899 0.77252 0.0
S2817 S 0.94655 0.68177 0.83431 0.0
N2818 N 0.95205 0.68321 0.80687 0.0
N2819 N 0.92852 0.68297 0.83507 0.0
C2820 C 0.92632 0.68477 0.8123 0.0
C2821 C 0.93898 0.68476 0.79702 0.0
C2822 C 0.30194 0.23946 0.78328 0.0
C2823 C 0.31467 0.24622 0.76581 0.0
C2824 C 0.30175 0.22772 0.79968 0.0
C2825 C 0.3145 0.22266 0.79938 0.0
H2826 H 0.29198 0.24314 0.78409 0.0
H2827 H 0.2917 0.22271 0.81281 0.0
S2828 S 0.35078 0.23693 0.75747 0.0
N2829 N 0.34042 0.2472 0.7494 0.0
N2830 N 0.34007 0.2252 0.78015 0.0
C2831 C 0.32734 0.22943 0.7821 0.0
C2832 C 0.32742 0.2412 0.76533 0.0
C2833 C 0.76229 0.06466 0.78811 0.0
C2834 C 0.75499 0.07074 0.77162 0.0
C2835 C 0.7741 0.076 0.80465 0.0
C2836 C 0.77874 0.09371 0.8055 0.0
H2837 H 0.75907 0.05112 0.78795 0.0
H2838 H 0.77961 0.07089 0.81692 0.0
S2839 S 0.76277 0.11585 0.76658 0.0
N2840 N 0.75286 0.09542 0.75747 0.0
N2841 N 0.77503 0.11672 0.7885 0.0
C2842 C 0.7713 0.09985 0.78931 0.0
C2843 C 0.75945 0.08836 0.77237 0.0
C2844 C 0.07139 0.32315 0.06876 0.0
C2845 C 0.07608 0.34003 0.06114 0.0
C2846 C 0.08342 0.31994 0.08026 0.0
C2847 C 0.10057 0.33351 0.08457 0.0
H2848 H 0.05819 0.31242 0.06635 0.0
H2849 H 0.07913 0.30684 0.08634 0.0
S2850 S 0.1199 0.37961 0.06586 0.0
N2851 N 0.0994 0.37018 0.05716 0.0
N2852 N 0.12202 0.36415 0.07874 0.0
C2853 C 0.10557 0.35033 0.07642 0.0
C2854 C 0.09333 0.35359 0.06472 0.0
C2855 C 0.67711 0.74801 0.05486 0.0
C2856 C 0.66272 0.73169 0.06071 0.0
C2857 C 0.68001 0.76334 0.06591 0.0
C2858 C 0.66846 0.76288 0.08292 0.0
H2859 H 0.68635 0.74888 0.04194 0.0
H2860 H 0.6913 0.77565 0.06104 0.0
S2861 S 0.62868 0.72349 0.10411 0.0
N2862 N 0.63668 0.71601 0.08432 0.0
N2863 N 0.64212 0.74482 0.10509 0.0
C2864 C 0.65393 0.74668 0.08873 0.0
C2865 C 0.65107 0.73108 0.07765 0.0
C2866 C 0.26382 0.92004 0.07318 0.0
C2867 C 0.26356 0.93124 0.05625 0.0
C2868 C 0.24843 0.90764 0.0841 0.0
C2869 C 0.23226 0.90615 0.0787 0.0
H2870 H 0.27602 0.92082 0.07795 0.0
H2871 H 0.24924 0.89934 0.09715 0.0
S2872 S 0.22452 0.93236 0.0356 0.0
N2873 N 0.2458 0.94006 0.03457 0.0
N2874 N 0.21682 0.9167 0.05512 0.0
C2875 C 0.23179 0.91723 0.06177 0.0
C2876 C 0.24745 0.92976 0.0505 0.0
C2877 C 0.33616 0.07215 0.93494 0.0
C2878 C 0.34156 0.07466 0.95809 0.0
C2879 C 0.33261 0.08401 0.92366 0.0
C2880 C 0.33449 0.09889 0.93502 0.0
H2881 H 0.33446 0.06081 0.92556 0.0
H2882 H 0.32854 0.0816 0.90581 0.0
S2883 S 0.34829 0.11147 0.99561 0.0
N2884 N 0.34872 0.09318 0.99194 0.0
N2885 N 0.3419 0.11541 0.97076 0.0
C2886 C 0.3399 0.10158 0.95814 0.0
C2887 C 0.34343 0.08946 0.96968 0.0
C2888 C 0.91934 0.25215 0.97551 0.0
C2889 C 0.93344 0.26545 0.96324 0.0
C2890 C 0.90718 0.23657 0.96463 0.0
C2891 C 0.90886 0.23366 0.94119 0.0
H2892 H 0.9175 0.25394 0.99354 0.0
H2893 H 0.89639 0.22672 0.97462 0.0
S2894 S 0.94376 0.26417 0.9016 0.0
N2895 N 0.94866 0.27451 0.92655 0.0
N2896 N 0.92575 0.24531 0.90609 0.0
C2897 C 0.92305 0.24675 0.92882 0.0
C2898 C 0.93534 0.26263 0.93984 0.0
C2899 C 0.73516 0.6616 0.93312 0.0
C2900 C 0.73366 0.65911 0.95712 0.0
C2901 C 0.7504 0.66497 0.92142 0.0
C2902 C 0.76475 0.66607 0.93328 0.0
H2903 H 0.72456 0.66116 0.9233 0.0
H2904 H 0.75103 0.66693 0.90296 0.0
S2905 S 0.76707 0.65937 0.99586 0.0
N2906 N 0.74755 0.65712 0.99216 0.0
N2907 N 0.77627 0.66365 0.97015 0.0
C2908 C 0.76341 0.66349 0.95722 0.0
C2909 C 0.74785 0.65997 0.96914 0.0
C2910 C 0.91115 0.64833 0.95477 0.0
C2911 C 0.92824 0.6619 0.95934 0.0
C2912 C 0.89917 0.65156 0.94324 0.0
C2913 C 0.90383 0.66848 0.93578 0.0
H2914 H 0.90703 0.63509 0.96005 0.0
H2915 H 0.88615 0.64071 0.94005 0.0
S2916 S 0.94723 0.70835 0.94259 0.0
N2917 N 0.94938 0.69279 0.95508 0.0
N2918 N 0.92687 0.69887 0.93329 0.0
C2919 C 0.92085 0.68218 0.94038 0.0
C2920 C 0.93305 0.67889 0.95219 0.0
C2921 C 0.34307 0.25701 0.96424 0.0
C2922 C 0.33808 0.26834 0.95435 0.0
C2923 C 0.33981 0.24162 0.95304 0.0
C2924 C 0.33138 0.23692 0.93153 0.0
H2925 H 0.3498 0.26019 0.98063 0.0
H2926 H 0.34387 0.23329 0.96135 0.0
S2927 S 0.31535 0.26191 0.89844 0.0
N2928 N 0.32373 0.27349 0.9221 0.0
N2929 N 0.31821 0.24492 0.90067 0.0
C2930 C 0.32622 0.24808 0.9215 0.0
C2931 C 0.32945 0.2637 0.93296 0.0
C2932 C 0.74777 0.08374 0.972 0.0
C2933 C 0.73411 0.07016 0.95947 0.0
C2934 C 0.76343 0.09575 0.96119 0.0
C2935 C 0.76607 0.09441 0.93756 0.0
H2936 H 0.74621 0.08524 0.99022 0.0
H2937 H 0.77359 0.10611 0.9714 0.0
S2938 S 0.73454 0.06097 0.89723 0.0
N2939 N 0.72436 0.05586 0.9223 0.0
N2940 N 0.75378 0.07845 0.90198 0.0
C2941 C 0.7526 0.08078 0.92491 0.0
C2942 C 0.73662 0.06866 0.93586 0.0
C2943 C 0.66939 0.93094 0.08323 0.0
C2944 C 0.66232 0.92821 0.06092 0.0
C2945 C 0.6727 0.91867 0.09373 0.0
C2946 C 0.66899 0.90313 0.08237 0.0
H2947 H 0.67246 0.94272 0.09265 0.0
H2948 H 0.67796 0.92124 0.11103 0.0
S2949 S 0.65062 0.88983 0.02362 0.0
N2950 N 0.65172 0.90882 0.02778 0.0
N2951 N 0.65829 0.88588 0.04735 0.0
C2952 C 0.66207 0.90029 0.05997 0.0
C2953 C 0.6587 0.91281 0.04927 0.0
C2954 C 0.06862 0.73634 0.08149 0.0
C2955 C 0.07023 0.73387 0.05788 0.0
C2956 C 0.08047 0.75191 0.09259 0.0
C2957 C 0.0945 0.76546 0.08054 0.0
H2958 H 0.05803 0.72618 0.09142 0.0
H2959 H 0.07881 0.75326 0.11082 0.0
S2960 S 0.10447 0.76552 0.01852 0.0
N2961 N 0.08686 0.74628 0.02279 0.0
N2962 N 0.10922 0.77556 0.0437 0.0
C2963 C 0.09625 0.76318 0.05694 0.0
C2964 C 0.08408 0.7474 0.04558 0.0
C2965 C 0.2646 0.35077 0.06699 0.0
C2966 C 0.26785 0.33713 0.06187 0.0
C2967 C 0.2493 0.34752 0.0784 0.0
C2968 C 0.23671 0.33051 0.0852 0.0
H2969 H 0.27397 0.36407 0.06214 0.0
H2970 H 0.24731 0.35842 0.08194 0.0
S2971 S 0.23951 0.29041 0.07696 0.0
N2972 N 0.25753 0.30606 0.06501 0.0
N2973 N 0.2288 0.29996 0.08663 0.0
C2974 C 0.2398 0.31675 0.08014 0.0
C2975 C 0.25536 0.32005 0.06844 0.0
C2976 C 0.73693 0.65562 0.3978 0.0
C2977 C 0.74151 0.67248 0.39023 0.0
C2978 C 0.74911 0.65247 0.409 0.0
C2979 C 0.76629 0.66607 0.41302 0.0
H2980 H 0.7237 0.64488 0.39565 0.0
H2981 H 0.74489 0.6394 0.41516 0.0
S2982 S 0.78536 0.7121 0.39409 0.0
N2983 N 0.76475 0.70261 0.38583 0.0
N2984 N 0.78766 0.6967 0.4068 0.0
C2985 C 0.77119 0.68285 0.40479 0.0
C2986 C 0.7588 0.68605 0.39342 0.0
C2987 C 0.32563 0.07854 0.38569 0.0
C2988 C 0.33048 0.06708 0.39557 0.0
C2989 C 0.32953 0.09424 0.39657 0.0
C2990 C 0.33847 0.09913 0.41772 0.0
H2991 H 0.31857 0.07524 0.36955 0.0
H2992 H 0.32558 0.10266 0.38827 0.0
S2993 S 0.35424 0.07387 0.45069 0.0
N2994 N 0.34515 0.06199 0.42746 0.0
N2995 N 0.35185 0.09114 0.44831 0.0
C2996 C 0.34342 0.08782 0.42777 0.0
C2997 C 0.33955 0.07189 0.41664 0.0
C2998 C 0.91741 0.26048 0.38851 0.0
C2999 C 0.93385 0.26302 0.39483 0.0
C3000 C 0.90217 0.24806 0.39976 0.0
C3001 C 0.90285 0.23758 0.41745 0.0
H3002 H 0.91636 0.26835 0.37503 0.0
H3003 H 0.88974 0.24654 0.39449 0.0
S3004 S 0.94267 0.23895 0.44004 0.0
N3005 N 0.94993 0.25393 0.41961 0.0
N3006 N 0.92128 0.23056 0.44074 0.0
C3007 C 0.9192 0.23988 0.42374 0.0
C3008 C 0.93471 0.25263 0.41245 0.0
C3009 C 0.99794 0.41181 0.29787 0.0
C3010 C 0.01109 0.40835 0.29071 0.0
C3011 C 0.99547 0.42444 0.28672 0.0
C3012 C 0.00624 0.43421 0.26828 0.0
H3013 H 0.98926 0.40444 0.31187 0.0
H3014 H 0.98508 0.42661 0.29258 0.0
S3015 S 0.04279 0.43042 0.24337 0.0
N3016 N 0.03521 0.41591 0.26437 0.0
N3017 N 0.03057 0.43967 0.24342 0.0
C3018 C 0.01959 0.43106 0.26119 0.0
C3019 C 0.022 0.4181 0.27239 0.0
C3020 C 0.5994 0.59778 0.27108 0.0
C3021 C 0.59719 0.60065 0.29436 0.0
C3022 C 0.58748 0.58227 0.25991 0.0
C3023 C 0.57281 0.56917 0.27154 0.0
H3024 H 0.61051 0.60757 0.26147 0.0
H3025 H 0.58962 0.58062 0.24194 0.0
S3026 S 0.5611 0.57027 0.33259 0.0
N3027 N 0.57927 0.58911 0.32868 0.0
N3028 N 0.55684 0.55993 0.30766 0.0
C3029 C 0.57045 0.57185 0.29482 0.0
C3030 C 0.58267 0.58758 0.30625 0.0
C3031 C 0.40878 0.99026 0.30302 0.0
C3032 C 0.39481 0.98981 0.29097 0.0
C3033 C 0.42392 0.99312 0.29145 0.0
C3034 C 0.42569 0.99599 0.26755 0.0
H3035 H 0.40795 0.9883 0.32148 0.0
H3036 H 0.43442 0.99337 0.30131 0.0
S3037 S 0.39288 0.99629 0.22827 0.0
N3038 N 0.38365 0.99249 0.25395 0.0
N3039 N 0.41219 0.99808 0.23223 0.0
C3040 C 0.41182 0.99563 0.25535 0.0
C3041 C 0.39634 0.99247 0.26706 0.0
C3042 C 0.59708 0.00352 0.27062 0.0
C3043 C 0.59415 0.99561 0.29239 0.0
C3044 C 0.5843 0.00596 0.25991 0.0
C3045 C 0.56813 0.00069 0.27063 0.0
H3046 H 0.60924 0.00754 0.2616 0.0
H3047 H 0.58699 0.01174 0.2429 0.0
S3048 S 0.55469 0.98076 0.32861 0.0
N3049 N 0.57434 0.98333 0.32485 0.0
N3050 N 0.55037 0.98819 0.30493 0.0
C3051 C 0.56519 0.99309 0.29264 0.0
C3052 C 0.57818 0.9905 0.30347 0.0
C3053 C 0.99726 0.5887 0.29608 0.0
C3054 C 0.01215 0.60503 0.29175 0.0
C3055 C 0.99466 0.5736 0.28468 0.0
C3056 C 0.00694 0.57426 0.2687 0.0
H3057 H 0.98734 0.58764 0.30798 0.0
H3058 H 0.98296 0.56131 0.28843 0.0
S3059 S 0.04837 0.61375 0.2518 0.0
N3060 N 0.03961 0.62089 0.27096 0.0
N3061 N 0.03459 0.59258 0.24922 0.0
C3062 C 0.02201 0.59047 0.26447 0.0
C3063 C 0.02464 0.60583 0.27604 0.0
C3064 C 0.41335 0.41997 0.30098 0.0
C3065 C 0.40066 0.40496 0.28943 0.0
C3066 C 0.4288 0.43216 0.2899 0.0
C3067 C 0.43221 0.42964 0.26698 0.0
H3068 H 0.41124 0.42239 0.31865 0.0
H3069 H 0.43825 0.44354 0.29943 0.0
S3070 S 0.40327 0.39243 0.2292 0.0
N3071 N 0.39263 0.38816 0.25388 0.0
N3072 N 0.42157 0.41116 0.23301 0.0
C3073 C 0.41965 0.41468 0.25525 0.0
C3074 C 0.4039 0.40234 0.26648 0.0
C3075 C 0.32922 0.25009 0.38774 0.0
C3076 C 0.33291 0.2657 0.39888 0.0
C3077 C 0.33265 0.23795 0.39844 0.0
C3078 C 0.34004 0.24105 0.42059 0.0
H3079 H 0.32336 0.24711 0.37078 0.0
H3080 H 0.32957 0.22608 0.38927 0.0
S3081 S 0.35252 0.28012 0.45686 0.0
N3082 N 0.34482 0.28385 0.43299 0.0
N3083 N 0.35092 0.26086 0.45331 0.0
C3084 C 0.34395 0.25668 0.43182 0.0
C3085 C 0.34045 0.26903 0.42093 0.0
C3086 C 0.74911 0.06627 0.40738 0.0
C3087 C 0.73803 0.06662 0.39034 0.0
C3088 C 0.76143 0.08161 0.41853 0.0
C3089 C 0.76292 0.09781 0.41325 0.0
H3090 H 0.7483 0.05404 0.41206 0.0
H3091 H 0.76964 0.08075 0.43166 0.0
S3092 S 0.73698 0.10576 0.36994 0.0
N3093 N 0.72932 0.08449 0.36872 0.0
N3094 N 0.75251 0.11335 0.38965 0.0
C3095 C 0.75195 0.09835 0.39621 0.0
C3096 C 0.73952 0.08276 0.38473 0.0
C3097 C 0.92941 0.68345 0.39999 0.0
C3098 C 0.93341 0.67019 0.39575 0.0
C3099 C 0.91411 0.67992 0.41163 0.0
C3100 C 0.90222 0.66299 0.41949 0.0
H3101 H 0.93819 0.69668 0.39422 0.0
H3102 H 0.91153 0.69052 0.41445 0.0
S3103 S 0.90708 0.62389 0.41398 0.0
N3104 N 0.92455 0.6396 0.40107 0.0
N3105 N 0.89574 0.63296 0.42293 0.0
C3106 C 0.90604 0.6496 0.41538 0.0
C3107 C 0.92163 0.6532 0.40352 0.0
C3108 C 0.42066 0.0076 0.71644 0.0
C3109 C 0.40785 0.00932 0.72863 0.0
C3110 C 0.43312 0.00509 0.72804 0.0
C3111 C 0.4332 0.00422 0.75221 0.0
H3112 H 0.42124 0.0085 0.69784 0.0
H3113 H 0.44296 0.00413 0.71805 0.0
S3114 S 0.40133 0.00608 0.79192 0.0
N3115 N 0.39523 0.00867 0.76608 0.0
N3116 N 0.41867 0.00401 0.78783 0.0
C3117 C 0.42021 0.00548 0.76454 0.0
C3118 C 0.40754 0.00802 0.75277 0.0
C3119 C 0.99398 0.39725 0.75108 0.0
C3120 C 0.99129 0.39572 0.72714 0.0
C3121 C 0.99718 0.41244 0.76281 0.0
C3122 C 0.99747 0.42644 0.75102 0.0
H3123 H 0.99388 0.38674 0.76073 0.0
H3124 H 0.99929 0.41319 0.78124 0.0
S3125 S 0.99094 0.42877 0.68842 0.0
N3126 N 0.98906 0.40939 0.69209 0.0
N3127 N 0.99479 0.43786 0.71421 0.0
C3128 C 0.99463 0.425 0.72715 0.0
C3129 C 0.99163 0.40966 0.71517 0.0
C3130 C 0.59147 0.58067 0.71899 0.0
C3131 C 0.60218 0.59722 0.72888 0.0
C3132 C 0.57617 0.56812 0.72996 0.0
C3133 C 0.57097 0.57162 0.75126 0.0
H3134 H 0.59502 0.57729 0.70272 0.0
H3135 H 0.56828 0.55561 0.72158 0.0
S3136 S 0.59439 0.61294 0.7845 0.0
N3137 N 0.60626 0.61658 0.76103 0.0
N3138 N 0.57797 0.59272 0.78213 0.0
C3139 C 0.58159 0.58809 0.76141 0.0
C3140 C 0.59708 0.60093 0.75014 0.0
C3141 C 0.65992 0.74297 0.62967 0.0
C3142 C 0.674 0.74067 0.62344 0.0
C3143 C 0.657 0.75527 0.61839 0.0
C3144 C 0.66822 0.76586 0.60077 0.0
H3145 H 0.65091 0.73495 0.64302 0.0
H3146 H 0.64594 0.75658 0.62355 0.0
S3147 S 0.70713 0.76515 0.57844 0.0
N3148 N 0.69942 0.75015 0.59885 0.0
N3149 N 0.69393 0.77328 0.57766 0.0
C3150 C 0.68246 0.76383 0.5946 0.0
C3151 C 0.68534 0.75122 0.60592 0.0
C3152 C 0.26738 0.93016 0.60161 0.0
C3153 C 0.26611 0.93319 0.62513 0.0
C3154 C 0.25521 0.91443 0.5911 0.0
C3155 C 0.24122 0.90126 0.60367 0.0
H3156 H 0.27792 0.93999 0.59128 0.0
H3157 H 0.25659 0.91269 0.5729 0.0
S3158 S 0.23211 0.90269 0.66572 0.0
N3159 N 0.24981 0.92172 0.66068 0.0
N3160 N 0.22697 0.8921 0.64094 0.0
C3161 C 0.23985 0.90408 0.62721 0.0
C3162 C 0.2523 0.92004 0.63794 0.0
C3163 C 0.06918 0.32972 0.6013 0.0
C3164 C 0.06775 0.32807 0.6254 0.0
C3165 C 0.08454 0.33313 0.58994 0.0
C3166 C 0.09908 0.33506 0.60224 0.0
H3167 H 0.05838 0.32853 0.59114 0.0
H3168 H 0.08509 0.33441 0.57137 0.0
S3169 S 0.10173 0.33096 0.6654 0.0
N3170 N 0.08197 0.32797 0.66113 0.0
N3171 N 0.11091 0.33447 0.63972 0.0
C3172 C 0.09784 0.3334 0.62632 0.0
C3173 C 0.08217 0.32989 0.63791 0.0
C3174 C 0.24642 0.31726 0.61499 0.0
C3175 C 0.26316 0.33084 0.62106 0.0
C3176 C 0.23455 0.32071 0.60356 0.0
C3177 C 0.23898 0.33788 0.59769 0.0
H3178 H 0.24245 0.30385 0.61918 0.0
H3179 H 0.22175 0.30985 0.59937 0.0
S3180 S 0.2816 0.37793 0.60838 0.0
N3181 N 0.28383 0.36203 0.61961 0.0
N3182 N 0.26155 0.36853 0.59799 0.0
C3183 C 0.25571 0.35158 0.60359 0.0
C3184 C 0.26779 0.34806 0.61529 0.0
C3185 C 0.68404 0.93479 0.61208 0.0
C3186 C 0.67165 0.93413 0.62787 0.0
C3187 C 0.68122 0.91984 0.60011 0.0
C3188 C 0.66589 0.90367 0.60343 0.0
H3189 H 0.69588 0.94704 0.60862 0.0
H3190 H 0.69101 0.921 0.58788 0.0
S3191 S 0.63006 0.89462 0.64423 0.0
N3192 N 0.64394 0.91574 0.64717 0.0
N3193 N 0.63862 0.88764 0.62455 0.0
C3194 C 0.65352 0.90275 0.61941 0.0
C3195 C 0.6564 0.91797 0.63166 0.0
C3196 C 0.07073 0.74843 0.61548 0.0
C3197 C 0.07024 0.7357 0.63041 0.0
C3198 C 0.08636 0.76086 0.60509 0.0
C3199 C 0.10206 0.76092 0.60907 0.0
H3200 H 0.0589 0.74874 0.61172 0.0
H3201 H 0.08608 0.77027 0.59347 0.0
S3202 S 0.10786 0.73059 0.64706 0.0
N3203 N 0.08682 0.72401 0.64888 0.0
N3204 N 0.11629 0.7475 0.62944 0.0
C3205 C 0.10181 0.7484 0.62417 0.0
C3206 C 0.08589 0.7358 0.63487 0.0
C3207 C 0.00399 0.59548 0.74585 0.0
C3208 C 0.99455 0.59131 0.72515 0.0
C3209 C 0.00667 0.58311 0.75731 0.0
C3210 C 1.00017 0.56616 0.74836 0.0
H3211 H 0.00906 0.60832 0.75345 0.0
H3212 H 0.01364 0.58677 0.77353 0.0
S3213 S 0.97595 0.54941 0.69343 0.0
N3214 N 0.97938 0.5695 0.69552 0.0
N3215 N 0.98486 0.54633 0.7166 0.0
C3216 C 0.99105 0.562 0.72732 0.0
C3217 C 0.98814 0.57456 0.71583 0.0
C3218 C 0.40167 0.40423 0.7484 0.0
C3219 C 0.40506 0.39918 0.7269 0.0
C3220 C 0.41424 0.41948 0.75944 0.0
C3221 C 0.43073 0.43031 0.74945 0.0
H3222 H 0.38915 0.39639 0.75674 0.0
H3223 H 0.41109 0.42269 0.77611 0.0
S3224 S 0.4461 0.42308 0.69324 0.0
N3225 N 0.4262 0.40617 0.69611 0.0
N3226 N 0.44959 0.43516 0.71648 0.0
C3227 C 0.43424 0.42551 0.72786 0.0
C3228 C 0.42146 0.40991 0.71666 0.0
C3229 C 0.60156 0.00635 0.75437 0.0
C3230 C 0.60326 0.00812 0.73029 0.0
C3231 C 0.58644 0.00383 0.76554 0.0
C3232 C 0.57241 0.00294 0.75307 0.0
H3233 H 0.61197 0.0068 0.76466 0.0
H3234 H 0.58566 0.00244 0.7841 0.0
S3235 S 0.57069 0.00779 0.6899 0.0
N3236 N 0.58988 0.00945 0.69441 0.0
N3237 N 0.56138 0.00462 0.71545 0.0
C3238 C 0.57392 0.00471 0.72901 0.0
C3239 C 0.58935 0.00731 0.71761 0.0
loop_
_geom_bond_atom_site_label_1
_geom_bond_atom_site_label_2
_geom_bond_distance
_geom_bond_site_symmetry_2
_ccdc_geom_bond_type
Li0 N17 1.990 1_554 S
Li0 O60 1.956 . S
Li0 O61 1.970 1_654 S
Li0 O62 1.964 . S
Li1 N25 1.990 . S
Li1 O60 1.970 1_455 S
Li1 O61 1.956 1_554 S
Li1 O63 1.961 . S
Li2 N47 1.990 . S
Li2 O60 1.961 . S
Li2 O62 1.988 . S
Li2 O63 1.970 1_655 S
Li3 N53 1.990 . S
Li3 O61 1.961 . S
Li3 O62 1.956 1_456 S
Li3 O63 1.956 1_556 S
C4 C6 1.340 1_655 S
C4 C7 1.356 . S
C4 O60 1.325 . S
N5 C8 1.314 . S
N5 C9 1.279 . S
C6 C4 1.340 1_455 S
C6 C8 1.353 1_455 S
C6 H64 0.937 . S
C7 C4 1.356 . S
C7 C9 1.358 . S
C7 H65 0.930 . S
C8 N5 1.314 . S
C8 C6 1.353 1_655 S
C8 H66 0.930 1_655 S
C9 N5 1.279 . S
C9 C7 1.358 . S
C9 H67 0.930 . S
C10 C13 1.348 . S
C10 C14 1.356 . S
C10 O61 1.325 . S
C11 N12 1.279 . S
C11 C14 1.358 . S
C11 H68 0.930 . S
N12 C11 1.279 . S
N12 C15 1.314 . S
C13 C10 1.348 . S
C13 C15 1.353 . S
C13 H69 0.929 1_455 S
C14 C10 1.356 . S
C14 C11 1.358 . S
C14 H70 0.930 . S
C15 N12 1.314 . S
C15 C13 1.353 . S
C15 H71 0.930 . S
C16 N17 1.314 . S
C16 C21 1.353 . S
C16 H22 0.930 . S
N17 Li0 1.990 1_556 S
N17 C16 1.314 . S
N17 C19 1.279 1_556 S
C18 C19 1.358 . S
C18 C20 1.356 1_554 S
C18 H72 0.930 . S
C19 N17 1.279 1_554 S
C19 C18 1.358 . S
C19 H23 0.930 . S
C20 C18 1.356 1_556 S
C20 C21 1.348 . S
C21 C16 1.353 . S
C21 C20 1.348 . S
C21 H73 0.929 . S
H22 C16 0.930 . S
H23 C19 0.930 . S
C24 N25 1.314 . S
C24 C26 1.353 . S
C24 H30 0.930 . S
N25 Li1 1.990 . S
N25 C24 1.314 . S
N25 C28 1.279 . S
C26 C24 1.353 . S
C26 C29 1.348 . S
C26 H74 0.929 . S
C27 C28 1.358 . S
C27 C29 1.356 . S
C27 H75 0.930 . S
C28 N25 1.279 . S
C28 C27 1.358 . S
C28 H31 0.930 1_554 S
C29 C26 1.348 . S
C29 C27 1.356 . S
H30 C24 0.930 . S
H31 C28 0.930 1_556 S
C32 C34 1.348 . S
C32 C35 1.356 1_556 S
C32 O62 1.318 1_556 S
N33 C36 1.314 . S
N33 C37 1.294 . S
C34 C32 1.348 . S
C34 C36 1.353 . S
C34 H76 0.929 . S
C35 C32 1.356 1_554 S
C35 C37 1.353 1_554 S
C35 H77 0.930 . S
C36 N33 1.314 . S
C36 C34 1.353 . S
C36 H78 0.930 . S
C37 N33 1.294 . S
C37 C35 1.353 1_556 S
C37 H79 0.921 1_556 S
C38 C39 1.348 . S
C38 C40 1.356 . S
C38 O63 1.325 . S
C39 C38 1.348 . S
C39 C41 1.353 . S
C39 H80 0.929 . S
C40 C38 1.356 . S
C40 C42 1.358 . S
C40 H81 0.930 . S
C41 C39 1.353 . S
C41 N43 1.314 . S
C41 H82 0.930 . S
C42 C40 1.358 . S
C42 N43 1.279 . S
C42 H83 0.930 . S
N43 C41 1.314 . S
N43 C42 1.279 . S
C44 C46 1.353 . S
C44 N47 1.314 . S
C44 H50 0.908 1_655 S
C45 N47 1.279 . S
C45 C48 1.358 . S
C45 H51 0.930 . S
C46 C44 1.353 . S
C46 C49 1.348 . S
C46 H84 0.929 . S
N47 Li2 1.990 . S
N47 C44 1.314 . S
N47 C45 1.279 . S
C48 C45 1.358 . S
C48 C49 1.356 . S
C48 H85 0.930 . S
C49 C46 1.348 . S
C49 C48 1.356 . S
H50 C44 0.908 1_455 S
H51 C45 0.930 . S
C52 N53 1.314 . S
C52 C54 1.353 . S
C52 H58 0.930 . S
N53 Li3 1.990 . S
N53 C52 1.314 . S
N53 C56 1.279 . S
C54 C52 1.353 . S
C54 C57 1.348 . S
C54 H86 0.929 . S
C55 C56 1.358 . S
C55 C57 1.356 . S
C55 H87 0.930 . S
C56 N53 1.279 . S
C56 C55 1.358 . S
C56 H59 0.930 . S
C57 C54 1.348 . S
C57 C55 1.356 . S
H58 C52 0.930 . S
H59 C56 0.930 . S
O60 Li0 1.956 . S
O60 Li1 1.970 1_655 S
O60 Li2 1.961 . S
O60 C4 1.325 . S
O61 Li0 1.970 1_456 S
O61 Li1 1.956 1_556 S
O61 Li3 1.961 . S
O61 C10 1.325 . S
O62 Li0 1.964 . S
O62 Li2 1.988 . S
O62 Li3 1.956 1_654 S
O62 C32 1.318 1_554 S
O63 Li1 1.961 . S
O63 Li2 1.970 1_455 S
O63 Li3 1.956 1_554 S
O63 C38 1.325 . S
H64 C6 0.937 . S
H65 C7 0.930 . S
H66 C8 0.930 1_455 S
H67 C9 0.930 . S
H68 C11 0.930 . S
H69 C13 0.929 1_655 S
H70 C14 0.930 . S
H71 C15 0.930 . S
H72 C18 0.930 . S
H73 C21 0.929 . S
H74 C26 0.929 . S
H75 C27 0.930 . S
H76 C34 0.929 . S
H77 C35 0.930 . S
H78 C36 0.930 . S
H79 C37 0.921 1_554 S
H80 C39 0.929 . S
H81 C40 0.930 . S
H82 C41 0.930 . S
H83 C42 0.930 . S
H84 C46 0.929 . S
H85 C48 0.930 . S
H86 C54 0.929 . S
H87 C55 0.930 . S
Li88 N105 1.980 1_554 S
Li88 O148 1.991 . S
Li88 O149 1.954 1_554 S
Li88 O150 1.958 1_554 S
Li89 N113 1.990 . S
Li89 O148 1.970 . S
Li89 O149 1.956 1_554 S
Li89 O151 1.961 . S
Li90 N135 1.990 . S
Li90 O148 1.961 . S
Li90 O150 1.956 1_554 S
Li90 O151 1.970 . S
Li91 N141 1.990 . S
Li91 O149 1.961 . S
Li91 O150 1.970 . S
Li91 O151 1.956 1_556 S
C92 C94 1.348 . S
C92 C95 1.356 . S
C92 O148 1.325 . S
N93 C96 1.314 . S
N93 C97 1.279 . S
C94 C92 1.348 . S
C94 C96 1.353 . S
C94 H152 0.929 . S
C95 C92 1.356 . S
C95 C97 1.358 . S
C95 H153 0.930 . S
C96 N93 1.314 . S
C96 C94 1.353 . S
C96 H154 0.930 . S
C97 N93 1.279 . S
C97 C95 1.358 . S
C97 H155 0.930 . S
C98 C101 1.348 . S
C98 C102 1.356 . S
C98 O149 1.325 . S
C99 N100 1.279 . S
C99 C102 1.358 . S
C99 H156 0.930 . S
N100 C99 1.279 . S
N100 C103 1.314 . S
C101 C98 1.348 . S
C101 C103 1.353 . S
C101 H157 0.929 . S
C102 C98 1.356 . S
C102 C99 1.358 . S
C102 H158 0.930 . S
C103 N100 1.314 . S
C103 C101 1.353 . S
C103 H159 0.930 . S
C104 N105 1.314 . S
C104 C109 1.353 . S
C104 H110 0.930 . S
N105 Li88 1.980 1_556 S
N105 C104 1.314 . S
N105 C107 1.279 1_556 S
C106 C107 1.358 1_556 S
C106 C108 1.356 . S
C106 H160 0.930 1_556 S
C107 N105 1.279 1_554 S
C107 C106 1.358 1_554 S
C107 H111 0.930 . S
C108 C106 1.356 . S
C108 C109 1.348 . S
C109 C104 1.353 . S
C109 C108 1.348 . S
C109 H161 0.929 . S
H110 C104 0.930 . S
H111 C107 0.930 . S
C112 N113 1.314 . S
C112 C114 1.353 . S
C112 H118 0.930 . S
N113 Li89 1.990 . S
N113 C112 1.314 . S
N113 C116 1.279 . S
C114 C112 1.353 . S
C114 C117 1.348 . S
C114 H162 0.929 . S
C115 C116 1.358 . S
C115 C117 1.356 . S
C115 H163 0.930 . S
C116 N113 1.279 . S
C116 C115 1.358 . S
C116 H119 0.930 . S
C117 C114 1.348 . S
C117 C115 1.356 . S
H118 C112 0.930 . S
H119 C116 0.930 . S
C120 C122 1.348 . S
C120 C123 1.356 . S
C120 O150 1.325 . S
N121 C124 1.314 . S
N121 C125 1.279 . S
C122 C120 1.348 . S
C122 C124 1.353 . S
C122 H164 0.929 . S
C123 C120 1.356 . S
C123 C125 1.358 . S
C123 H165 0.930 1_556 S
C124 N121 1.314 . S
C124 C122 1.353 . S
C124 H166 0.930 . S
C125 N121 1.279 . S
C125 C123 1.358 . S
C125 H167 0.930 . S
C126 C127 1.348 . S
C126 C128 1.356 . S
C126 O151 1.325 . S
C127 C126 1.348 . S
C127 C129 1.353 . S
C127 H168 0.929 . S
C128 C126 1.356 . S
C128 C130 1.358 . S
C128 H169 0.930 . S
C129 C127 1.353 . S
C129 N131 1.314 . S
C129 H170 0.930 . S
C130 C128 1.358 . S
C130 N131 1.279 . S
C130 H171 0.930 . S
N131 C129 1.314 . S
N131 C130 1.279 . S
C132 C134 1.353 . S
C132 N135 1.314 . S
C132 H138 0.930 . S
C133 N135 1.279 . S
C133 C136 1.358 . S
C133 H139 0.930 . S
C134 C132 1.353 . S
C134 C137 1.348 . S
C134 H172 0.929 . S
N135 Li90 1.990 . S
N135 C132 1.314 . S
N135 C133 1.279 . S
C136 C133 1.358 . S
C136 C137 1.356 . S
C136 H173 0.930 . S
C137 C134 1.348 . S
C137 C136 1.356 . S
H138 C132 0.930 . S
H139 C133 0.930 . S
C140 N141 1.314 . S
C140 C142 1.353 . S
C140 H146 0.930 . S
N141 Li91 1.990 . S
N141 C140 1.314 . S
N141 C144 1.279 . S
C142 C140 1.353 . S
C142 C145 1.348 . S
C142 H174 0.929 . S
C143 C144 1.358 . S
C143 C145 1.356 . S
C143 H175 0.930 . S
C144 N141 1.279 . S
C144 C143 1.358 . S
C144 H147 0.930 . S
C145 C142 1.348 . S
C145 C143 1.356 . S
H146 C140 0.930 . S
H147 C144 0.930 . S
O148 Li88 1.991 . S
O148 Li89 1.970 . S
O148 Li90 1.961 . S
O148 C92 1.325 . S
O149 Li88 1.954 1_556 S
O149 Li89 1.956 1_556 S
O149 Li91 1.961 . S
O149 C98 1.325 . S
O150 Li88 1.958 1_556 S
O150 Li90 1.956 1_556 S
O150 Li91 1.970 . S
O150 C120 1.325 . S
O151 Li89 1.961 . S
O151 Li90 1.970 . S
O151 Li91 1.956 1_554 S
O151 C126 1.325 . S
H152 C94 0.929 . S
H153 C95 0.930 . S
H154 C96 0.930 . S
H155 C97 0.930 . S
H156 C99 0.930 . S
H157 C101 0.929 . S
H158 C102 0.930 . S
H159 C103 0.930 . S
H160 C106 0.930 1_554 S
H161 C109 0.929 . S
H162 C114 0.929 . S
H163 C115 0.930 . S
H164 C122 0.929 . S
H165 C123 0.930 1_554 S
H166 C124 0.930 . S
H167 C125 0.930 . S
H168 C127 0.929 . S
H169 C128 0.930 . S
H170 C129 0.930 . S
H171 C130 0.930 . S
H172 C134 0.929 . S
H173 C136 0.930 . S
H174 C142 0.929 . S
H175 C143 0.930 . S
Li176 N193 1.990 . S
Li176 O236 1.956 1_556 S
Li176 O237 1.967 1_566 S
Li176 O238 1.961 . S
Li177 N201 1.990 . S
Li177 O236 1.970 1_545 S
Li177 O237 1.963 . S
Li177 O239 1.961 . S
Li178 N223 1.990 . S
Li178 O236 1.961 . S
Li178 O238 1.956 1_554 S
Li178 O239 1.970 1_565 S
Li179 N229 1.990 1_554 S
Li179 O237 1.961 . S
Li179 O238 1.970 1_544 S
Li179 O239 1.956 . S
C180 C182 1.348 . S
C180 C183 1.356 . S
C180 O236 1.325 . S
N181 C184 1.314 . S
N181 C185 1.279 . S
C182 C180 1.348 . S
C182 C184 1.353 . S
C182 H240 0.929 . S
C183 C180 1.356 . S
C183 C185 1.358 . S
C183 H241 0.930 . S
C184 N181 1.314 . S
C184 C182 1.353 . S
C184 H242 0.930 . S
C185 N181 1.279 . S
C185 C183 1.358 . S
C185 H243 0.930 . S
C186 C189 1.348 . S
C186 C190 1.356 1_556 S
C186 O237 1.323 1_556 S
C187 N188 1.308 . S
C187 C190 1.348 1_556 S
C187 H244 0.913 1_556 S
N188 C187 1.308 . S
N188 C191 1.314 . S
C189 C186 1.348 . S
C189 C191 1.353 . S
C189 H245 0.929 . S
C190 C186 1.356 1_554 S
C190 C187 1.348 1_554 S
C190 H246 0.930 . S
C191 N188 1.314 . S
C191 C189 1.353 . S
C191 H247 0.930 . S
C192 N193 1.314 . S
C192 C197 1.353 . S
C192 H198 0.906 1_565 S
N193 Li176 1.990 . S
N193 C192 1.314 . S
N193 C195 1.279 . S
C194 C195 1.358 . S
C194 C196 1.356 . S
C194 H248 0.930 . S
C195 N193 1.279 . S
C195 C194 1.358 . S
C195 H199 0.930 . S
C196 C194 1.356 . S
C196 C197 1.348 . S
C197 C192 1.353 . S
C197 C196 1.348 . S
C197 H249 0.929 . S
H198 C192 0.906 1_545 S
H199 C195 0.930 . S
C200 N201 1.314 . S
C200 C202 1.353 . S
C200 H206 0.930 . S
N201 Li177 1.990 . S
N201 C200 1.314 . S
N201 C204 1.279 . S
C202 C200 1.353 . S
C202 C205 1.348 . S
C202 H250 0.929 . S
C203 C204 1.358 . S
C203 C205 1.356 . S
C203 H251 0.930 . S
C204 N201 1.279 . S
C204 C203 1.358 . S
C204 H207 0.930 . S
C205 C202 1.348 . S
C205 C203 1.356 . S
H206 C200 0.930 . S
H207 C204 0.930 . S
C208 C210 1.339 1_565 S
C208 C211 1.356 . S
C208 O238 1.325 . S
N209 C212 1.314 . S
N209 C213 1.279 . S
C210 C208 1.339 1_545 S
C210 C212 1.353 1_545 S
C210 H252 0.938 . S
C211 C208 1.356 . S
C211 C213 1.358 . S
C211 H253 0.930 . S
C212 N209 1.314 . S
C212 C210 1.353 1_565 S
C212 H254 0.930 1_565 S
C213 N209 1.279 . S
C213 C211 1.358 . S
C213 H255 0.930 . S
C214 C215 1.348 . S
C214 C216 1.356 . S
C214 O239 1.325 . S
C215 C214 1.348 . S
C215 C217 1.353 . S
C215 H256 0.929 1_545 S
C216 C214 1.356 . S
C216 C218 1.358 . S
C216 H257 0.930 . S
C217 C215 1.353 . S
C217 N219 1.314 . S
C217 H258 0.930 . S
C218 C216 1.358 . S
C218 N219 1.279 . S
C218 H259 0.930 . S
N219 C217 1.314 . S
N219 C218 1.279 . S
C220 C222 1.353 . S
C220 N223 1.314 . S
C220 H226 0.930 . S
C221 N223 1.279 . S
C221 C224 1.358 . S
C221 H227 0.930 1_554 S
C222 C220 1.353 . S
C222 C225 1.348 . S
C222 H260 0.929 . S
N223 Li178 1.990 . S
N223 C220 1.314 . S
N223 C221 1.279 . S
C224 C221 1.358 . S
C224 C225 1.356 . S
C224 H261 0.930 . S
C225 C222 1.348 . S
C225 C224 1.356 . S
H226 C220 0.930 . S
H227 C221 0.930 1_556 S
C228 N229 1.314 . S
C228 C230 1.353 . S
C228 H234 0.930 . S
N229 Li179 1.990 1_556 S
N229 C228 1.314 . S
N229 C232 1.279 1_556 S
C230 C228 1.353 . S
C230 C233 1.348 . S
C230 H262 0.929 . S
C231 C232 1.370 . S
C231 C233 1.321 1_554 S
C231 H263 0.955 . S
C232 N229 1.279 1_554 S
C232 C231 1.370 . S
C232 H235 0.930 . S
C233 C230 1.348 . S
C233 C231 1.321 1_556 S
H234 C228 0.930 . S
H235 C232 0.930 . S
O236 Li176 1.956 1_554 S
O236 Li177 1.970 1_565 S
O236 Li178 1.961 . S
O236 C180 1.325 . S
O237 Li176 1.967 1_544 S
O237 Li177 1.963 . S
O237 Li179 1.961 . S
O237 C186 1.323 1_554 S
O238 Li176 1.961 . S
O238 Li178 1.956 1_556 S
O238 Li179 1.970 1_566 S
O238 C208 1.325 . S
O239 Li177 1.961 . S
O239 Li178 1.970 1_545 S
O239 Li179 1.956 . S
O239 C214 1.325 . S
H240 C182 0.929 . S
H241 C183 0.930 . S
H242 C184 0.930 . S
H243 C185 0.930 . S
H244 C187 0.913 1_554 S
H245 C189 0.929 . S
H246 C190 0.930 . S
H247 C191 0.930 . S
H248 C194 0.930 . S
H249 C197 0.929 . S
H250 C202 0.929 . S
H251 C203 0.930 . S
H252 C210 0.938 . S
H253 C211 0.930 . S
H254 C212 0.930 1_545 S
H255 C213 0.930 . S
H256 C215 0.929 1_565 S
H257 C216 0.930 . S
H258 C217 0.930 . S
H259 C218 0.930 . S
H260 C222 0.929 . S
H261 C224 0.930 . S
H262 C230 0.929 . S
H263 C231 0.955 . S
Li264 N281 1.990 . S
Li264 O324 1.956 . S
Li264 O325 1.970 1_455 S
Li264 O326 1.961 1_554 S
Li265 N289 1.990 . S
Li265 O324 1.970 1_655 S
Li265 O325 1.956 . S
Li265 O327 1.995 . S
Li266 N311 1.990 . S
Li266 O324 1.961 1_556 S
Li266 O326 1.956 . S
Li266 O327 1.954 1_456 S
Li267 N317 1.990 1_554 S
Li267 O325 1.961 . S
Li267 O326 1.970 1_654 S
Li267 O327 1.957 . S
C268 C270 1.348 . S
C268 C271 1.356 . S
C268 O324 1.325 . S
N269 C272 1.314 . S
N269 C273 1.279 . S
C270 C268 1.348 . S
C270 C272 1.353 . S
C270 H328 0.929 . S
C271 C268 1.356 . S
C271 C273 1.358 . S
C271 H329 0.930 1_554 S
C272 N269 1.314 . S
C272 C270 1.353 . S
C272 H330 0.930 . S
C273 N269 1.279 . S
C273 C271 1.358 . S
C273 H331 0.930 . S
C274 C277 1.348 1_655 S
C274 C278 1.356 . S
C274 O325 1.325 . S
C275 N276 1.279 . S
C275 C278 1.358 . S
C275 H332 0.930 . S
N276 C275 1.279 . S
N276 C279 1.314 . S
C277 C274 1.348 1_455 S
C277 C279 1.353 1_455 S
C277 H333 0.929 . S
C278 C274 1.356 . S
C278 C275 1.358 . S
C278 H334 0.930 . S
C279 N276 1.314 . S
C279 C277 1.353 1_655 S
C279 H335 0.930 1_655 S
C280 N281 1.314 . S
C280 C285 1.353 . S
C280 H286 0.930 . S
N281 Li264 1.990 . S
N281 C280 1.314 . S
N281 C283 1.279 . S
C282 C283 1.358 . S
C282 C284 1.356 . S
C282 H336 0.930 . S
C283 N281 1.279 . S
C283 C282 1.358 . S
C283 H287 0.930 . S
C284 C282 1.356 . S
C284 C285 1.348 . S
C285 C280 1.353 . S
C285 C284 1.348 . S
C285 H337 0.929 . S
H286 C280 0.930 . S
H287 C283 0.930 . S
C288 N289 1.314 . S
C288 C290 1.353 . S
C288 H294 0.930 . S
N289 Li265 1.990 . S
N289 C288 1.314 . S
N289 C292 1.279 . S
C290 C288 1.353 . S
C290 C293 1.348 . S
C290 H338 0.929 . S
C291 C292 1.358 . S
C291 C293 1.356 . S
C291 H339 0.930 . S
C292 N289 1.279 . S
C292 C291 1.358 . S
C292 H295 0.930 . S
C293 C290 1.348 . S
C293 C291 1.356 . S
H294 C288 0.930 . S
H295 C292 0.930 . S
C296 C298 1.348 1_455 S
C296 C299 1.356 . S
C296 O326 1.325 . S
N297 C300 1.314 . S
N297 C301 1.279 . S
C298 C296 1.348 1_655 S
C298 C300 1.353 1_655 S
C298 H340 0.929 . S
C299 C296 1.356 . S
C299 C301 1.358 . S
C299 H341 0.930 . S
C300 N297 1.314 . S
C300 C298 1.353 1_455 S
C300 H342 0.930 1_455 S
C301 N297 1.279 . S
C301 C299 1.358 . S
C301 H343 0.930 . S
C302 C303 1.348 . S
C302 C304 1.356 1_556 S
C302 O327 1.316 1_556 S
C303 C302 1.348 . S
C303 C305 1.353 . S
C303 H344 0.929 . S
C304 C302 1.356 1_554 S
C304 C306 1.358 . S
C304 H345 0.930 . S
C305 C303 1.353 . S
C305 N307 1.314 . S
C305 H346 0.930 . S
C306 C304 1.358 . S
C306 N307 1.279 1_554 S
C306 H347 0.930 . S
N307 C305 1.314 . S
N307 C306 1.279 1_556 S
C308 C310 1.353 . S
C308 N311 1.314 . S
C308 H314 0.930 . S
C309 N311 1.279 . S
C309 C312 1.358 . S
C309 H315 0.930 . S
C310 C308 1.353 . S
C310 C313 1.348 . S
C310 H348 0.929 . S
N311 Li266 1.990 . S
N311 C308 1.314 . S
N311 C309 1.279 . S
C312 C309 1.358 . S
C312 C313 1.356 . S
C312 H349 0.930 . S
C313 C310 1.348 . S
C313 C312 1.356 . S
H314 C308 0.930 . S
H315 C309 0.930 . S
C316 N317 1.325 . S
C316 C318 1.365 . S
C316 H322 0.906 1_556 S
N317 Li267 1.990 1_556 S
N317 C316 1.325 . S
N317 C320 1.279 . S
C318 C316 1.365 . S
C318 C321 1.348 . S
C318 H350 0.929 . S
C319 C320 1.358 . S
C319 C321 1.356 . S
C319 H351 0.930 . S
C320 N317 1.279 . S
C320 C319 1.358 . S
C320 H323 0.930 . S
C321 C318 1.348 . S
C321 C319 1.356 . S
H322 C316 0.906 1_554 S
H323 C320 0.930 . S
O324 Li264 1.956 . S
O324 Li265 1.970 1_455 S
O324 Li266 1.961 1_554 S
O324 C268 1.325 . S
O325 Li264 1.970 1_655 S
O325 Li265 1.956 . S
O325 Li267 1.961 . S
O325 C274 1.325 . S
O326 Li264 1.961 1_556 S
O326 Li266 1.956 . S
O326 Li267 1.970 1_456 S
O326 C296 1.325 . S
O327 Li265 1.995 . S
O327 Li266 1.954 1_654 S
O327 Li267 1.957 . S
O327 C302 1.316 1_554 S
H328 C270 0.929 . S
H329 C271 0.930 1_556 S
H330 C272 0.930 . S
H331 C273 0.930 . S
H332 C275 0.930 . S
H333 C277 0.929 . S
H334 C278 0.930 . S
H335 C279 0.930 1_455 S
H336 C282 0.930 . S
H337 C285 0.929 . S
H338 C290 0.929 . S
H339 C291 0.930 . S
H340 C298 0.929 . S
H341 C299 0.930 . S
H342 C300 0.930 1_655 S
H343 C301 0.930 . S
H344 C303 0.929 . S
H345 C304 0.930 . S
H346 C305 0.930 . S
H347 C306 0.930 . S
H348 C310 0.929 . S
H349 C312 0.930 . S
H350 C318 0.929 . S
H351 C319 0.930 . S
Li352 N369 1.990 . S
Li352 O412 1.956 . S
Li352 O413 1.970 . S
Li352 O414 1.961 1_554 S
Li353 N377 1.990 . S
Li353 O412 1.970 . S
Li353 O413 1.956 . S
Li353 O415 1.914 1_554 S
Li354 N399 1.990 . S
Li354 O412 1.961 1_556 S
Li354 O414 1.956 . S
Li354 O415 1.989 . S
Li355 N405 1.990 . S
Li355 O413 1.960 1_556 S
Li355 O414 1.971 . S
Li355 O415 1.955 . S
C356 C358 1.348 . S
C356 C359 1.356 . S
C356 O412 1.325 . S
N357 C360 1.314 . S
N357 C361 1.279 . S
C358 C356 1.348 . S
C358 C360 1.353 . S
C358 H416 0.929 . S
C359 C356 1.356 . S
C359 C361 1.358 . S
C359 H417 0.928 1_554 S
C360 N357 1.314 . S
C360 C358 1.353 . S
C360 H418 0.930 . S
C361 N357 1.279 . S
C361 C359 1.358 . S
C361 H419 0.930 . S
C362 C365 1.348 . S
C362 C366 1.356 . S
C362 O413 1.325 . S
C363 N364 1.279 . S
C363 C366 1.358 . S
C363 H420 0.930 . S
N364 C363 1.279 . S
N364 C367 1.314 . S
C365 C362 1.348 . S
C365 C367 1.353 . S
C365 H421 0.929 . S
C366 C362 1.356 . S
C366 C363 1.358 . S
C366 H422 0.930 . S
C367 N364 1.314 . S
C367 C365 1.353 . S
C367 H423 0.930 . S
C368 N369 1.314 . S
C368 C373 1.353 . S
C368 H374 0.930 . S
N369 Li352 1.990 . S
N369 C368 1.314 . S
N369 C371 1.279 . S
C370 C371 1.358 . S
C370 C372 1.356 . S
C370 H424 0.930 . S
C371 N369 1.279 . S
C371 C370 1.358 . S
C371 H375 0.930 . S
C372 C370 1.356 . S
C372 C373 1.348 . S
C373 C368 1.353 . S
C373 C372 1.348 . S
C373 H425 0.929 . S
H374 C368 0.930 . S
H375 C371 0.930 . S
C376 N377 1.314 . S
C376 C378 1.353 . S
C376 H382 0.930 . S
N377 Li353 1.990 . S
N377 C376 1.314 . S
N377 C380 1.279 . S
C378 C376 1.353 . S
C378 C381 1.348 . S
C378 H426 0.929 . S
C379 C380 1.358 . S
C379 C381 1.356 . S
C379 H427 0.930 . S
C380 N377 1.279 . S
C380 C379 1.358 . S
C380 H383 0.930 . S
C381 C378 1.348 . S
C381 C379 1.356 . S
H382 C376 0.930 . S
H383 C380 0.930 . S
C384 C386 1.348 . S
C384 C387 1.356 . S
C384 O414 1.325 . S
N385 C388 1.314 . S
N385 C389 1.279 . S
C386 C384 1.348 . S
C386 C388 1.353 . S
C386 H428 0.929 . S
C387 C384 1.356 . S
C387 C389 1.358 . S
C387 H429 0.930 . S
C388 N385 1.314 . S
C388 C386 1.353 . S
C388 H430 0.930 . S
C389 N385 1.279 . S
C389 C387 1.358 . S
C389 H431 0.930 . S
C390 C391 1.348 . S
C390 C392 1.356 1_556 S
C390 O415 1.342 . S
C391 C390 1.348 . S
C391 C393 1.353 . S
C391 H432 0.929 . S
C392 C390 1.356 1_554 S
C392 C394 1.358 1_554 S
C392 H433 0.930 . S
C393 C391 1.353 . S
C393 N395 1.314 . S
C393 H434 0.930 . S
C394 C392 1.358 1_556 S
C394 N395 1.279 . S
C394 H435 0.930 1_556 S
N395 C393 1.314 . S
N395 C394 1.279 . S
C396 C398 1.353 . S
C396 N399 1.314 . S
C396 H402 0.930 . S
C397 N399 1.279 . S
C397 C400 1.358 . S
C397 H403 0.930 . S
C398 C396 1.353 . S
C398 C401 1.348 . S
C398 H436 0.929 . S
N399 Li354 1.990 . S
N399 C396 1.314 . S
N399 C397 1.279 . S
C400 C397 1.358 . S
C400 C401 1.356 . S
C400 H437 0.930 . S
C401 C398 1.348 . S
C401 C400 1.356 . S
H402 C396 0.930 . S
H403 C397 0.930 . S
C404 N405 1.314 . S
C404 C406 1.353 . S
C404 H410 0.930 1_556 S
N405 Li355 1.990 . S
N405 C404 1.314 . S
N405 C408 1.279 . S
C406 C404 1.353 . S
C406 C409 1.348 . S
C406 H438 0.929 . S
C407 C408 1.358 . S
C407 C409 1.356 . S
C407 H439 0.930 . S
C408 N405 1.279 . S
C408 C407 1.358 . S
C408 H411 0.930 . S
C409 C406 1.348 . S
C409 C407 1.356 . S
H410 C404 0.930 1_554 S
H411 C408 0.930 . S
O412 Li352 1.956 . S
O412 Li353 1.970 . S
O412 Li354 1.961 1_554 S
O412 C356 1.325 . S
O413 Li352 1.970 . S
O413 Li353 1.956 . S
O413 Li355 1.960 1_554 S
O413 C362 1.325 . S
O414 Li352 1.961 1_556 S
O414 Li354 1.956 . S
O414 Li355 1.971 . S
O414 C384 1.325 . S
O415 Li353 1.914 1_556 S
O415 Li354 1.989 . S
O415 Li355 1.955 . S
O415 C390 1.342 . S
H416 C358 0.929 . S
H417 C359 0.928 1_556 S
H418 C360 0.930 . S
H419 C361 0.930 . S
H420 C363 0.930 . S
H421 C365 0.929 . S
H422 C366 0.930 . S
H423 C367 0.930 . S
H424 C370 0.930 . S
H425 C373 0.929 . S
H426 C378 0.929 . S
H427 C379 0.930 . S
H428 C386 0.929 . S
H429 C387 0.930 . S
H430 C388 0.930 . S
H431 C389 0.930 . S
H432 C391 0.929 . S
H433 C392 0.930 . S
H434 C393 0.930 . S
H435 C394 0.930 1_554 S
H436 C398 0.929 . S
H437 C400 0.930 . S
H438 C406 0.929 . S
H439 C407 0.930 . S
Li440 N457 1.990 . S
Li440 O500 1.956 . S
Li440 O501 1.970 1_565 S
Li440 O502 1.961 1_554 S
Li441 N465 1.990 . S
Li441 O500 1.970 1_545 S
Li441 O501 1.956 . S
Li441 O503 1.961 . S
Li442 N487 1.990 . S
Li442 O500 1.961 1_556 S
Li442 O502 1.956 . S
Li442 O503 1.970 1_566 S
Li443 N493 1.990 1_554 S
Li443 O501 1.961 . S
Li443 O502 1.970 1_544 S
Li443 O503 1.956 . S
C444 C446 1.348 . S
C444 C447 1.356 . S
C444 O500 1.325 . S
N445 C448 1.314 . S
N445 C449 1.279 . S
C446 C444 1.348 . S
C446 C448 1.353 . S
C446 H504 0.929 . S
C447 C444 1.356 . S
C447 C449 1.358 . S
C447 H505 0.930 1_554 S
C448 N445 1.314 . S
C448 C446 1.353 . S
C448 H506 0.930 . S
C449 N445 1.279 . S
C449 C447 1.358 . S
C449 H507 0.930 . S
C450 C453 1.348 1_545 S
C450 C454 1.356 . S
C450 O501 1.325 . S
C451 N452 1.279 . S
C451 C454 1.358 . S
C451 H508 0.930 . S
N452 C451 1.279 . S
N452 C455 1.314 . S
C453 C450 1.348 1_565 S
C453 C455 1.353 1_565 S
C453 H509 0.929 . S
C454 C450 1.356 . S
C454 C451 1.358 . S
C454 H510 0.930 . S
C455 N452 1.314 . S
C455 C453 1.353 1_545 S
C455 H511 0.930 1_545 S
C456 N457 1.314 . S
C456 C461 1.353 . S
C456 H462 0.930 . S
N457 Li440 1.990 . S
N457 C456 1.314 . S
N457 C459 1.279 . S
C458 C459 1.358 . S
C458 C460 1.356 . S
C458 H512 0.930 . S
C459 N457 1.279 . S
C459 C458 1.358 . S
C459 H463 0.930 . S
C460 C458 1.356 . S
C460 C461 1.348 . S
C461 C456 1.353 . S
C461 C460 1.348 . S
C461 H513 0.929 . S
H462 C456 0.930 . S
H463 C459 0.930 . S
C464 N465 1.314 . S
C464 C466 1.353 . S
C464 H470 0.930 . S
N465 Li441 1.990 . S
N465 C464 1.314 . S
N465 C468 1.279 . S
C466 C464 1.353 . S
C466 C469 1.348 . S
C466 H514 0.929 . S
C467 C468 1.358 . S
C467 C469 1.356 . S
C467 H515 0.930 . S
C468 N465 1.279 . S
C468 C467 1.358 . S
C468 H471 0.930 . S
C469 C466 1.348 . S
C469 C467 1.356 . S
H470 C464 0.930 . S
H471 C468 0.930 . S
C472 C474 1.348 1_565 S
C472 C475 1.356 . S
C472 O502 1.325 . S
N473 C476 1.314 . S
N473 C477 1.279 . S
C474 C472 1.348 1_545 S
C474 C476 1.353 1_545 S
C474 H516 0.929 . S
C475 C472 1.356 . S
C475 C477 1.358 . S
C475 H517 0.930 . S
C476 N473 1.314 . S
C476 C474 1.353 1_565 S
C476 H518 0.930 1_565 S
C477 N473 1.279 . S
C477 C475 1.358 . S
C477 H519 0.930 . S
C478 C479 1.348 . S
C478 C480 1.356 1_556 S
C478 O503 1.325 1_556 S
C479 C478 1.348 . S
C479 C481 1.353 . S
C479 H520 0.929 . S
C480 C478 1.356 1_554 S
C480 C482 1.358 . S
C480 H521 0.930 . S
C481 C479 1.353 . S
C481 N483 1.314 . S
C481 H522 0.930 . S
C482 C480 1.358 . S
C482 N483 1.279 1_554 S
C482 H523 0.930 . S
N483 C481 1.314 . S
N483 C482 1.279 1_556 S
C484 C486 1.353 . S
C484 N487 1.314 . S
C484 H490 0.930 . S
C485 N487 1.279 . S
C485 C488 1.358 . S
C485 H491 0.930 . S
C486 C484 1.353 . S
C486 C489 1.348 . S
C486 H524 0.929 . S
N487 Li442 1.990 . S
N487 C484 1.314 . S
N487 C485 1.279 . S
C488 C485 1.358 . S
C488 C489 1.356 . S
C488 H525 0.930 . S
C489 C486 1.348 . S
C489 C488 1.356 . S
H490 C484 0.930 . S
H491 C485 0.930 . S
C492 N493 1.309 1_554 S
C492 C494 1.348 1_554 S
C492 H498 0.942 . S
N493 Li443 1.990 1_556 S
N493 C492 1.309 1_556 S
N493 C496 1.279 . S
C494 C492 1.348 1_556 S
C494 C497 1.348 . S
C494 H526 0.926 1_556 S
C495 C496 1.358 . S
C495 C497 1.356 . S
C495 H527 0.930 . S
C496 N493 1.279 . S
C496 C495 1.358 . S
C496 H499 0.930 . S
C497 C494 1.348 . S
C497 C495 1.356 . S
H498 C492 0.942 . S
H499 C496 0.930 . S
O500 Li440 1.956 . S
O500 Li441 1.970 1_565 S
O500 Li442 1.961 1_554 S
O500 C444 1.325 . S
O501 Li440 1.970 1_545 S
O501 Li441 1.956 . S
O501 Li443 1.961 . S
O501 C450 1.325 . S
O502 Li440 1.961 1_556 S
O502 Li442 1.956 . S
O502 Li443 1.970 1_566 S
O502 C472 1.325 . S
O503 Li441 1.961 . S
O503 Li442 1.970 1_544 S
O503 Li443 1.956 . S
O503 C478 1.325 1_554 S
H504 C446 0.929 . S
H505 C447 0.930 1_556 S
H506 C448 0.930 . S
H507 C449 0.930 . S
H508 C451 0.930 . S
H509 C453 0.929 . S
H510 C454 0.930 . S
H511 C455 0.930 1_565 S
H512 C458 0.930 . S
H513 C461 0.929 . S
H514 C466 0.929 . S
H515 C467 0.930 . S
H516 C474 0.929 . S
H517 C475 0.930 . S
H518 C476 0.930 1_545 S
H519 C477 0.930 . S
H520 C479 0.929 . S
H521 C480 0.930 . S
H522 C481 0.930 . S
H523 C482 0.930 . S
H524 C486 0.929 . S
H525 C488 0.930 . S
H526 C494 0.926 1_554 S
H527 C495 0.930 . S
Li528 N545 1.990 . S
Li528 O588 1.956 . S
Li528 O589 1.970 . S
Li528 O590 1.961 . S
Li529 N553 1.990 . S
Li529 O588 1.970 . S
Li529 O589 1.956 . S
Li529 O591 1.961 . S
Li530 N575 1.990 . S
Li530 O588 1.961 . S
Li530 O590 1.956 . S
Li530 O591 1.970 . S
Li531 N581 1.990 . S
Li531 O589 1.961 . S
Li531 O590 1.970 . S
Li531 O591 1.956 . S
C532 C534 1.348 . S
C532 C535 1.356 . S
C532 O588 1.325 . S
N533 C536 1.314 . S
N533 C537 1.279 . S
C534 C532 1.348 . S
C534 C536 1.353 . S
C534 H592 0.929 . S
C535 C532 1.356 . S
C535 C537 1.358 . S
C535 H593 0.930 . S
C536 N533 1.314 . S
C536 C534 1.353 . S
C536 H594 0.930 . S
C537 N533 1.279 . S
C537 C535 1.358 . S
C537 H595 0.930 . S
C538 C541 1.348 . S
C538 C542 1.356 . S
C538 O589 1.325 . S
C539 N540 1.279 . S
C539 C542 1.358 . S
C539 H596 0.930 . S
N540 C539 1.279 . S
N540 C543 1.314 . S
C541 C538 1.348 . S
C541 C543 1.353 . S
C541 H597 0.929 . S
C542 C538 1.356 . S
C542 C539 1.358 . S
C542 H598 0.930 . S
C543 N540 1.314 . S
C543 C541 1.353 . S
C543 H599 0.930 . S
C544 N545 1.314 . S
C544 C549 1.353 . S
C544 H550 0.930 . S
N545 Li528 1.990 . S
N545 C544 1.314 . S
N545 C547 1.279 . S
C546 C547 1.358 . S
C546 C548 1.356 . S
C546 H600 0.930 . S
C547 N545 1.279 . S
C547 C546 1.358 . S
C547 H551 0.930 . S
C548 C546 1.356 . S
C548 C549 1.348 . S
C549 C544 1.353 . S
C549 C548 1.348 . S
C549 H601 0.929 . S
H550 C544 0.930 . S
H551 C547 0.930 . S
C552 N553 1.314 . S
C552 C554 1.353 . S
C552 H558 0.930 . S
N553 Li529 1.990 . S
N553 C552 1.314 . S
N553 C556 1.279 . S
C554 C552 1.353 . S
C554 C557 1.348 . S
C554 H602 0.929 . S
C555 C556 1.358 . S
C555 C557 1.356 . S
C555 H603 0.930 . S
C556 N553 1.279 . S
C556 C555 1.358 . S
C556 H559 0.930 . S
C557 C554 1.348 . S
C557 C555 1.356 . S
H558 C552 0.930 . S
H559 C556 0.930 . S
C560 C562 1.348 . S
C560 C563 1.356 . S
C560 O590 1.325 . S
N561 C564 1.314 . S
N561 C565 1.279 . S
C562 C560 1.348 . S
C562 C564 1.353 . S
C562 H604 0.929 . S
C563 C560 1.356 . S
C563 C565 1.358 . S
C563 H605 0.930 . S
C564 N561 1.314 . S
C564 C562 1.353 . S
C564 H606 0.930 . S
C565 N561 1.279 . S
C565 C563 1.358 . S
C565 H607 0.930 . S
C566 C567 1.348 . S
C566 C568 1.356 . S
C566 O591 1.325 . S
C567 C566 1.348 . S
C567 C569 1.353 . S
C567 H608 0.929 . S
C568 C566 1.356 . S
C568 C570 1.358 . S
C568 H609 0.930 . S
C569 C567 1.353 . S
C569 N571 1.314 . S
C569 H610 0.930 . S
C570 C568 1.358 . S
C570 N571 1.279 . S
C570 H611 0.930 . S
N571 C569 1.314 . S
N571 C570 1.279 . S
C572 C574 1.353 . S
C572 N575 1.314 . S
C572 H578 0.930 . S
C573 N575 1.279 . S
C573 C576 1.358 . S
C573 H579 0.930 . S
C574 C572 1.353 . S
C574 C577 1.348 . S
C574 H612 0.929 . S
N575 Li530 1.990 . S
N575 C572 1.314 . S
N575 C573 1.279 . S
C576 C573 1.358 . S
C576 C577 1.356 . S
C576 H613 0.930 . S
C577 C574 1.348 . S
C577 C576 1.356 . S
H578 C572 0.930 . S
H579 C573 0.930 . S
C580 N581 1.314 . S
C580 C582 1.353 . S
C580 H586 0.930 . S
N581 Li531 1.990 . S
N581 C580 1.314 . S
N581 C584 1.279 . S
C582 C580 1.353 . S
C582 C585 1.348 . S
C582 H614 0.929 . S
C583 C584 1.358 . S
C583 C585 1.356 . S
C583 H615 0.930 . S
C584 N581 1.279 . S
C584 C583 1.358 . S
C584 H587 0.930 . S
C585 C582 1.348 . S
C585 C583 1.356 . S
H586 C580 0.930 . S
H587 C584 0.930 . S
O588 Li528 1.956 . S
O588 Li529 1.970 . S
O588 Li530 1.961 . S
O588 C532 1.325 . S
O589 Li528 1.970 . S
O589 Li529 1.956 . S
O589 Li531 1.961 . S
O589 C538 1.325 . S
O590 Li528 1.961 . S
O590 Li530 1.956 . S
O590 Li531 1.970 . S
O590 C560 1.325 . S
O591 Li529 1.961 . S
O591 Li530 1.970 . S
O591 Li531 1.956 . S
O591 C566 1.325 . S
H592 C534 0.929 . S
H593 C535 0.930 . S
H594 C536 0.930 . S
H595 C537 0.930 . S
H596 C539 0.930 . S
H597 C541 0.929 . S
H598 C542 0.930 . S
H599 C543 0.930 . S
H600 C546 0.930 . S
H601 C549 0.929 . S
H602 C554 0.929 . S
H603 C555 0.930 . S
H604 C562 0.929 . S
H605 C563 0.930 . S
H606 C564 0.930 . S
H607 C565 0.930 . S
H608 C567 0.929 . S
H609 C568 0.930 . S
H610 C569 0.930 . S
H611 C570 0.930 . S
H612 C574 0.929 . S
H613 C576 0.930 . S
H614 C582 0.929 . S
H615 C583 0.930 . S
Li616 N633 1.990 . S
Li616 O676 1.956 . S
Li616 O677 1.970 . S
Li616 O678 1.961 . S
Li617 N641 1.990 . S
Li617 O676 1.970 . S
Li617 O677 1.956 . S
Li617 O679 1.961 . S
Li618 N663 1.990 . S
Li618 O676 1.961 1_545 S
Li618 O678 1.956 1_545 S
Li618 O679 1.970 1_545 S
Li619 N669 1.990 . S
Li619 O677 1.961 . S
Li619 O678 1.970 . S
Li619 O679 1.956 . S
C620 C622 1.348 . S
C620 C623 1.356 . S
C620 O676 1.325 . S
N621 C624 1.314 . S
N621 C625 1.279 . S
C622 C620 1.348 . S
C622 C624 1.353 . S
C622 H680 0.929 . S
C623 C620 1.356 . S
C623 C625 1.358 . S
C623 H681 0.928 1_565 S
C624 N621 1.314 . S
C624 C622 1.353 . S
C624 H682 0.930 . S
C625 N621 1.279 . S
C625 C623 1.358 . S
C625 H683 0.930 . S
C626 C629 1.348 . S
C626 C630 1.356 . S
C626 O677 1.325 . S
C627 N628 1.279 . S
C627 C630 1.358 . S
C627 H684 0.930 . S
N628 C627 1.279 . S
N628 C631 1.314 . S
C629 C626 1.348 . S
C629 C631 1.353 . S
C629 H685 0.929 . S
C630 C626 1.356 . S
C630 C627 1.358 . S
C630 H686 0.930 . S
C631 N628 1.314 . S
C631 C629 1.353 . S
C631 H687 0.930 . S
C632 N633 1.314 . S
C632 C637 1.353 . S
C632 H638 0.930 . S
N633 Li616 1.990 . S
N633 C632 1.314 . S
N633 C635 1.279 . S
C634 C635 1.358 . S
C634 C636 1.356 . S
C634 H688 0.930 . S
C635 N633 1.279 . S
C635 C634 1.358 . S
C635 H639 0.930 . S
C636 C634 1.356 . S
C636 C637 1.348 . S
C637 C632 1.353 . S
C637 C636 1.348 . S
C637 H689 0.929 . S
H638 C632 0.930 . S
H639 C635 0.930 . S
C640 N641 1.314 . S
C640 C642 1.353 . S
C640 H646 0.930 . S
N641 Li617 1.990 . S
N641 C640 1.314 . S
N641 C644 1.279 . S
C642 C640 1.353 . S
C642 C645 1.348 . S
C642 H690 0.929 . S
C643 C644 1.358 . S
C643 C645 1.356 . S
C643 H691 0.930 . S
C644 N641 1.279 . S
C644 C643 1.358 . S
C644 H647 0.930 . S
C645 C642 1.348 . S
C645 C643 1.356 . S
H646 C640 0.930 . S
H647 C644 0.930 . S
C648 C650 1.348 . S
C648 C651 1.356 . S
C648 O678 1.325 1_545 S
N649 C652 1.314 . S
N649 C653 1.279 . S
C650 C648 1.348 . S
C650 C652 1.353 . S
C650 H692 0.929 . S
C651 C648 1.356 . S
C651 C653 1.358 . S
C651 H693 0.930 . S
C652 N649 1.314 . S
C652 C650 1.353 . S
C652 H694 0.930 . S
C653 N649 1.279 . S
C653 C651 1.358 . S
C653 H695 0.930 . S
C654 C655 1.348 1_565 S
C654 C656 1.356 . S
C654 O679 1.325 . S
C655 C654 1.348 1_545 S
C655 C657 1.353 . S
C655 H696 0.929 . S
C656 C654 1.356 . S
C656 C658 1.358 . S
C656 H697 0.930 . S
C657 C655 1.353 . S
C657 N659 1.314 . S
C657 H698 0.930 . S
C658 C656 1.358 . S
C658 N659 1.279 1_565 S
C658 H699 0.930 . S
N659 C657 1.314 . S
N659 C658 1.279 1_545 S
C660 C662 1.353 . S
C660 N663 1.314 . S
C660 H666 0.930 . S
C661 N663 1.279 . S
C661 C664 1.358 . S
C661 H667 0.930 . S
C662 C660 1.353 . S
C662 C665 1.348 . S
C662 H700 0.929 . S
N663 Li618 1.990 . S
N663 C660 1.314 . S
N663 C661 1.279 . S
C664 C661 1.358 . S
C664 C665 1.356 . S
C664 H701 0.930 . S
C665 C662 1.348 . S
C665 C664 1.356 . S
H666 C660 0.930 . S
H667 C661 0.930 . S
C668 N669 1.314 . S
C668 C670 1.353 . S
C668 H674 0.930 . S
N669 Li619 1.990 . S
N669 C668 1.314 . S
N669 C672 1.279 . S
C670 C668 1.353 . S
C670 C673 1.348 . S
C670 H702 0.929 . S
C671 C672 1.358 . S
C671 C673 1.356 . S
C671 H703 0.930 1_565 S
C672 N669 1.279 . S
C672 C671 1.358 . S
C672 H675 0.930 . S
C673 C670 1.348 . S
C673 C671 1.356 . S
H674 C668 0.930 . S
H675 C672 0.930 . S
O676 Li616 1.956 . S
O676 Li617 1.970 . S
O676 Li618 1.961 1_565 S
O676 C620 1.325 . S
O677 Li616 1.970 . S
O677 Li617 1.956 . S
O677 Li619 1.961 . S
O677 C626 1.325 . S
O678 Li616 1.961 . S
O678 Li618 1.956 1_565 S
O678 Li619 1.970 . S
O678 C648 1.325 1_565 S
O679 Li617 1.961 . S
O679 Li618 1.970 1_565 S
O679 Li619 1.956 . S
O679 C654 1.325 . S
H680 C622 0.929 . S
H681 C623 0.928 1_545 S
H682 C624 0.930 . S
H683 C625 0.930 . S
H684 C627 0.930 . S
H685 C629 0.929 . S
H686 C630 0.930 . S
H687 C631 0.930 . S
H688 C634 0.930 . S
H689 C637 0.929 . S
H690 C642 0.929 . S
H691 C643 0.930 . S
H692 C650 0.929 . S
H693 C651 0.930 . S
H694 C652 0.930 . S
H695 C653 0.930 . S
H696 C655 0.929 . S
H697 C656 0.930 . S
H698 C657 0.930 . S
H699 C658 0.930 . S
H700 C662 0.929 . S
H701 C664 0.930 . S
H702 C670 0.929 . S
H703 C671 0.930 1_545 S
Li704 N721 1.990 . S
Li704 O764 1.956 . S
Li704 O765 1.970 . S
Li704 O766 1.961 . S
Li705 N729 1.990 . S
Li705 O764 1.970 . S
Li705 O765 1.956 . S
Li705 O767 1.961 . S
Li706 N751 1.980 1_455 S
Li706 O764 1.977 . S
Li706 O766 1.956 . S
Li706 O767 1.971 . S
Li707 N757 1.990 . S
Li707 O765 1.961 . S
Li707 O766 1.970 . S
Li707 O767 1.956 . S
C708 C710 1.348 . S
C708 C711 1.356 . S
C708 O764 1.325 . S
N709 C712 1.314 . S
N709 C713 1.279 . S
C710 C708 1.348 . S
C710 C712 1.353 . S
C710 H768 0.929 . S
C711 C708 1.356 . S
C711 C713 1.358 . S
C711 H769 0.930 . S
C712 N709 1.314 . S
C712 C710 1.353 . S
C712 H770 0.930 . S
C713 N709 1.279 . S
C713 C711 1.358 . S
C713 H771 0.930 . S
C714 C717 1.348 . S
C714 C718 1.356 . S
C714 O765 1.325 . S
C715 N716 1.279 . S
C715 C718 1.358 . S
C715 H772 0.930 . S
N716 C715 1.279 . S
N716 C719 1.314 . S
C717 C714 1.348 . S
C717 C719 1.353 . S
C717 H773 0.929 . S
C718 C714 1.356 . S
C718 C715 1.358 . S
C718 H774 0.930 . S
C719 N716 1.314 . S
C719 C717 1.353 . S
C719 H775 0.930 . S
C720 N721 1.314 . S
C720 C725 1.353 . S
C720 H726 0.930 . S
N721 Li704 1.990 . S
N721 C720 1.314 . S
N721 C723 1.279 . S
C722 C723 1.358 . S
C722 C724 1.356 . S
C722 H776 0.930 . S
C723 N721 1.279 . S
C723 C722 1.358 . S
C723 H727 0.930 . S
C724 C722 1.356 . S
C724 C725 1.348 . S
C725 C720 1.353 . S
C725 C724 1.348 . S
C725 H777 0.929 . S
H726 C720 0.930 . S
H727 C723 0.930 . S
C728 N729 1.314 . S
C728 C730 1.353 . S
C728 H734 0.930 . S
N729 Li705 1.990 . S
N729 C728 1.314 . S
N729 C732 1.279 . S
C730 C728 1.353 . S
C730 C733 1.348 . S
C730 H778 0.929 . S
C731 C732 1.358 . S
C731 C733 1.356 . S
C731 H779 0.930 . S
C732 N729 1.279 . S
C732 C731 1.358 . S
C732 H735 0.930 . S
C733 C730 1.348 . S
C733 C731 1.356 . S
H734 C728 0.930 . S
H735 C732 0.930 . S
C736 C738 1.348 . S
C736 C739 1.356 . S
C736 O766 1.325 1_655 S
N737 C740 1.314 . S
N737 C741 1.279 . S
C738 C736 1.348 . S
C738 C740 1.353 . S
C738 H780 0.929 . S
C739 C736 1.356 . S
C739 C741 1.358 . S
C739 H781 0.930 . S
C740 N737 1.314 . S
C740 C738 1.353 . S
C740 H782 0.930 . S
C741 N737 1.279 . S
C741 C739 1.358 . S
C741 H783 0.930 . S
C742 C743 1.348 1_455 S
C742 C744 1.356 . S
C742 O767 1.325 . S
C743 C742 1.348 1_655 S
C743 C745 1.353 . S
C743 H784 0.929 . S
C744 C742 1.356 . S
C744 C746 1.358 . S
C744 H785 0.930 . S
C745 C743 1.353 . S
C745 N747 1.314 . S
C745 H786 0.930 . S
C746 C744 1.358 . S
C746 N747 1.279 1_455 S
C746 H787 0.930 . S
N747 C745 1.314 . S
N747 C746 1.279 1_655 S
C748 C750 1.353 . S
C748 N751 1.314 . S
C748 H754 0.930 . S
C749 N751 1.279 . S
C749 C752 1.358 . S
C749 H755 0.930 . S
C750 C748 1.353 . S
C750 C753 1.348 . S
C750 H788 0.929 . S
N751 Li706 1.980 1_655 S
N751 C748 1.314 . S
N751 C749 1.279 . S
C752 C749 1.358 . S
C752 C753 1.356 . S
C752 H789 0.930 . S
C753 C750 1.348 . S
C753 C752 1.356 . S
H754 C748 0.930 . S
H755 C749 0.930 . S
C756 N757 1.314 . S
C756 C758 1.353 . S
C756 H762 0.930 . S
N757 Li707 1.990 . S
N757 C756 1.314 . S
N757 C760 1.279 . S
C758 C756 1.353 . S
C758 C761 1.348 . S
C758 H790 0.929 . S
C759 C760 1.358 . S
C759 C761 1.356 . S
C759 H791 0.966 . S
C760 N757 1.279 . S
C760 C759 1.358 . S
C760 H763 0.930 . S
C761 C758 1.348 . S
C761 C759 1.356 . S
H762 C756 0.930 . S
H763 C760 0.930 . S
O764 Li704 1.956 . S
O764 Li705 1.970 . S
O764 Li706 1.977 . S
O764 C708 1.325 . S
O765 Li704 1.970 . S
O765 Li705 1.956 . S
O765 Li707 1.961 . S
O765 C714 1.325 . S
O766 Li704 1.961 . S
O766 Li706 1.956 . S
O766 Li707 1.970 . S
O766 C736 1.325 1_455 S
O767 Li705 1.961 . S
O767 Li706 1.971 . S
O767 Li707 1.956 . S
O767 C742 1.325 . S
H768 C710 0.929 . S
H769 C711 0.930 . S
H770 C712 0.930 . S
H771 C713 0.930 . S
H772 C715 0.930 . S
H773 C717 0.929 . S
H774 C718 0.930 . S
H775 C719 0.930 . S
H776 C722 0.930 . S
H777 C725 0.929 . S
H778 C730 0.929 . S
H779 C731 0.930 . S
H780 C738 0.929 . S
H781 C739 0.930 . S
H782 C740 0.930 . S
H783 C741 0.930 . S
H784 C743 0.929 . S
H785 C744 0.930 . S
H786 C745 0.930 . S
H787 C746 0.930 . S
H788 C750 0.929 . S
H789 C752 0.930 . S
H790 C758 0.929 . S
H791 C759 0.966 . S
Li792 N809 1.987 . S
Li792 O852 1.961 1_545 S
Li792 O853 1.970 1_545 S
Li792 O854 1.961 1_545 S
Li793 N817 1.990 . S
Li793 O852 1.970 . S
Li793 O853 1.956 . S
Li793 O855 1.961 . S
Li794 N839 1.990 . S
Li794 O852 1.961 . S
Li794 O854 1.956 . S
Li794 O855 1.970 . S
Li795 N845 1.990 . S
Li795 O853 1.961 . S
Li795 O854 1.970 . S
Li795 O855 1.956 . S
C796 C798 1.348 . S
C796 C799 1.356 . S
C796 O852 1.325 . S
N797 C800 1.314 . S
N797 C801 1.279 . S
C798 C796 1.348 . S
C798 C800 1.353 . S
C798 H856 0.929 . S
C799 C796 1.356 . S
C799 C801 1.358 . S
C799 H857 0.930 . S
C800 N797 1.314 . S
C800 C798 1.353 . S
C800 H858 0.930 . S
C801 N797 1.279 . S
C801 C799 1.358 . S
C801 H859 0.930 . S
C802 C805 1.348 1_565 S
C802 C806 1.356 . S
C802 O853 1.325 . S
C803 N804 1.279 1_565 S
C803 C806 1.358 . S
C803 H860 0.930 . S
N804 C803 1.279 1_545 S
N804 C807 1.314 . S
C805 C802 1.348 1_545 S
C805 C807 1.353 . S
C805 H861 0.929 . S
C806 C802 1.356 . S
C806 C803 1.358 . S
C806 H862 0.930 . S
C807 N804 1.314 . S
C807 C805 1.353 . S
C807 H863 0.930 . S
C808 N809 1.314 . S
C808 C813 1.353 . S
C808 H814 0.930 . S
N809 Li792 1.987 . S
N809 C808 1.314 . S
N809 C811 1.279 . S
C810 C811 1.358 . S
C810 C812 1.356 . S
C810 H864 0.930 . S
C811 N809 1.279 . S
C811 C810 1.358 . S
C811 H815 0.930 . S
C812 C810 1.356 . S
C812 C813 1.348 . S
C813 C808 1.353 . S
C813 C812 1.348 . S
C813 H865 0.929 . S
H814 C808 0.930 . S
H815 C811 0.930 . S
C816 N817 1.314 . S
C816 C818 1.353 . S
C816 H822 0.930 . S
N817 Li793 1.990 . S
N817 C816 1.314 . S
N817 C820 1.279 . S
C818 C816 1.353 . S
C818 C821 1.348 . S
C818 H866 0.929 . S
C819 C820 1.358 . S
C819 C821 1.356 . S
C819 H867 0.930 . S
C820 N817 1.279 . S
C820 C819 1.358 . S
C820 H823 0.930 . S
C821 C818 1.348 . S
C821 C819 1.356 . S
H822 C816 0.930 . S
H823 C820 0.930 . S
C824 C826 1.348 . S
C824 C827 1.356 . S
C824 O854 1.325 1_545 S
N825 C828 1.314 . S
N825 C829 1.279 . S
C826 C824 1.348 . S
C826 C828 1.353 . S
C826 H868 0.929 1_545 S
C827 C824 1.356 . S
C827 C829 1.358 . S
C827 H869 0.930 . S
C828 N825 1.314 . S
C828 C826 1.353 . S
C828 H870 0.930 . S
C829 N825 1.279 . S
C829 C827 1.358 . S
C829 H871 0.930 . S
C830 C831 1.348 . S
C830 C832 1.356 . S
C830 O855 1.325 . S
C831 C830 1.348 . S
C831 C833 1.353 . S
C831 H872 0.929 . S
C832 C830 1.356 . S
C832 C834 1.358 . S
C832 H873 0.930 . S
C833 C831 1.353 . S
C833 N835 1.314 . S
C833 H874 0.930 . S
C834 C832 1.358 . S
C834 N835 1.279 . S
C834 H875 0.930 . S
N835 C833 1.314 . S
N835 C834 1.279 . S
C836 C838 1.353 . S
C836 N839 1.314 . S
C836 H842 0.930 . S
C837 N839 1.279 . S
C837 C840 1.358 . S
C837 H843 0.930 . S
C838 C836 1.353 . S
C838 C841 1.348 . S
C838 H876 0.929 . S
N839 Li794 1.990 . S
N839 C836 1.314 . S
N839 C837 1.279 . S
C840 C837 1.358 . S
C840 C841 1.356 . S
C840 H877 0.930 . S
C841 C838 1.348 . S
C841 C840 1.356 . S
H842 C836 0.930 . S
H843 C837 0.930 . S
C844 N845 1.314 . S
C844 C846 1.353 . S
C844 H850 0.930 1_565 S
N845 Li795 1.990 . S
N845 C844 1.314 . S
N845 C848 1.279 . S
C846 C844 1.353 . S
C846 C849 1.348 . S
C846 H878 0.929 1_565 S
C847 C848 1.358 . S
C847 C849 1.356 . S
C847 H879 0.930 . S
C848 N845 1.279 . S
C848 C847 1.358 . S
C848 H851 0.930 . S
C849 C846 1.348 . S
C849 C847 1.356 . S
H850 C844 0.930 1_545 S
H851 C848 0.930 . S
O852 Li792 1.961 1_565 S
O852 Li793 1.970 . S
O852 Li794 1.961 . S
O852 C796 1.325 . S
O853 Li792 1.970 1_565 S
O853 Li793 1.956 . S
O853 Li795 1.961 . S
O853 C802 1.325 . S
O854 Li792 1.961 1_565 S
O854 Li794 1.956 . S
O854 Li795 1.970 . S
O854 C824 1.325 1_565 S
O855 Li793 1.961 . S
O855 Li794 1.970 . S
O855 Li795 1.956 . S
O855 C830 1.325 . S
H856 C798 0.929 . S
H857 C799 0.930 . S
H858 C800 0.930 . S
H859 C801 0.930 . S
H860 C803 0.930 . S
H861 C805 0.929 . S
H862 C806 0.930 . S
H863 C807 0.930 . S
H864 C810 0.930 . S
H865 C813 0.929 . S
H866 C818 0.929 . S
H867 C819 0.930 . S
H868 C826 0.929 1_565 S
H869 C827 0.930 . S
H870 C828 0.930 . S
H871 C829 0.930 . S
H872 C831 0.929 . S
H873 C832 0.930 . S
H874 C833 0.930 . S
H875 C834 0.930 . S
H876 C838 0.929 . S
H877 C840 0.930 . S
H878 C846 0.929 1_545 S
H879 C847 0.930 . S
Li880 N897 1.990 . S
Li880 O940 1.956 . S
Li880 O941 1.970 . S
Li880 O942 1.961 . S
Li881 N905 2.004 . S
Li881 O940 1.959 1_655 S
Li881 O941 1.950 1_655 S
Li881 O943 1.957 1_655 S
Li882 N927 1.990 . S
Li882 O940 1.961 . S
Li882 O942 1.956 . S
Li882 O943 1.970 . S
Li883 N933 1.990 . S
Li883 O941 1.961 . S
Li883 O942 1.970 . S
Li883 O943 1.956 . S
C884 C886 1.348 1_455 S
C884 C887 1.356 . S
C884 O940 1.325 . S
N885 C888 1.314 . S
N885 C889 1.279 1_655 S
C886 C884 1.348 1_655 S
C886 C888 1.353 . S
C886 H944 0.929 . S
C887 C884 1.356 . S
C887 C889 1.358 . S
C887 H945 0.930 . S
C888 N885 1.314 . S
C888 C886 1.353 . S
C888 H946 0.930 . S
C889 N885 1.279 1_455 S
C889 C887 1.358 . S
C889 H947 0.930 . S
C890 C893 1.348 . S
C890 C894 1.356 . S
C890 O941 1.325 . S
C891 N892 1.279 . S
C891 C894 1.358 . S
C891 H948 0.930 . S
N892 C891 1.279 . S
N892 C895 1.314 . S
C893 C890 1.348 . S
C893 C895 1.353 . S
C893 H949 0.929 . S
C894 C890 1.356 . S
C894 C891 1.358 . S
C894 H950 0.930 . S
C895 N892 1.314 . S
C895 C893 1.353 . S
C895 H951 0.930 . S
C896 N897 1.314 . S
C896 C901 1.353 . S
C896 H902 0.930 . S
N897 Li880 1.990 . S
N897 C896 1.314 . S
N897 C899 1.279 . S
C898 C899 1.358 . S
C898 C900 1.356 . S
C898 H952 0.930 . S
C899 N897 1.279 . S
C899 C898 1.358 . S
C899 H903 0.930 . S
C900 C898 1.356 . S
C900 C901 1.348 . S
C901 C896 1.353 . S
C901 C900 1.348 . S
C901 H953 0.929 . S
H902 C896 0.930 . S
H903 C899 0.930 . S
C904 N905 1.314 . S
C904 C906 1.353 . S
C904 H910 0.930 . S
N905 Li881 2.004 . S
N905 C904 1.314 . S
N905 C908 1.279 . S
C906 C904 1.353 . S
C906 C909 1.348 . S
C906 H954 0.929 . S
C907 C908 1.358 . S
C907 C909 1.356 . S
C907 H955 0.930 . S
C908 N905 1.279 . S
C908 C907 1.358 . S
C908 H911 0.930 . S
C909 C906 1.348 . S
C909 C907 1.356 . S
H910 C904 0.930 . S
H911 C908 0.930 . S
C912 C914 1.348 . S
C912 C915 1.356 . S
C912 O942 1.325 . S
N913 C916 1.314 . S
N913 C917 1.279 . S
C914 C912 1.348 . S
C914 C916 1.353 . S
C914 H956 0.929 . S
C915 C912 1.356 . S
C915 C917 1.358 . S
C915 H957 0.930 . S
C916 N913 1.314 . S
C916 C914 1.353 . S
C916 H958 0.930 . S
C917 N913 1.279 . S
C917 C915 1.358 . S
C917 H959 0.930 . S
C918 C919 1.348 . S
C918 C920 1.356 . S
C918 O943 1.325 1_655 S
C919 C918 1.348 . S
C919 C921 1.353 . S
C919 H960 0.951 . S
C920 C918 1.356 . S
C920 C922 1.358 . S
C920 H961 0.930 . S
C921 C919 1.353 . S
C921 N923 1.314 . S
C921 H962 0.930 . S
C922 C920 1.358 . S
C922 N923 1.279 . S
C922 H963 0.930 . S
N923 C921 1.314 . S
N923 C922 1.279 . S
C924 C926 1.329 . S
C924 N927 1.314 . S
C924 H930 0.930 1_455 S
C925 N927 1.279 . S
C925 C928 1.358 . S
C925 H931 0.930 . S
C926 C924 1.329 . S
C926 C929 1.409 . S
C926 H964 0.898 1_455 S
N927 Li882 1.990 . S
N927 C924 1.314 . S
N927 C925 1.279 . S
C928 C925 1.358 . S
C928 C929 1.356 . S
C928 H965 0.930 . S
C929 C926 1.409 . S
C929 C928 1.356 . S
H930 C924 0.930 1_655 S
H931 C925 0.930 . S
C932 N933 1.314 . S
C932 C934 1.353 . S
C932 H938 0.930 . S
N933 Li883 1.990 . S
N933 C932 1.314 . S
N933 C936 1.279 . S
C934 C932 1.353 . S
C934 C937 1.348 . S
C934 H966 0.929 . S
C935 C936 1.358 . S
C935 C937 1.356 . S
C935 H967 0.930 . S
C936 N933 1.279 . S
C936 C935 1.358 . S
C936 H939 0.930 . S
C937 C934 1.348 . S
C937 C935 1.356 . S
H938 C932 0.930 . S
H939 C936 0.930 . S
O940 Li880 1.956 . S
O940 Li881 1.959 1_455 S
O940 Li882 1.961 . S
O940 C884 1.325 . S
O941 Li880 1.970 . S
O941 Li881 1.950 1_455 S
O941 Li883 1.961 . S
O941 C890 1.325 . S
O942 Li880 1.961 . S
O942 Li882 1.956 . S
O942 Li883 1.970 . S
O942 C912 1.325 . S
O943 Li881 1.957 1_455 S
O943 Li882 1.970 . S
O943 Li883 1.956 . S
O943 C918 1.325 1_455 S
H944 C886 0.929 . S
H945 C887 0.930 . S
H946 C888 0.930 . S
H947 C889 0.930 . S
H948 C891 0.930 . S
H949 C893 0.929 . S
H950 C894 0.930 . S
H951 C895 0.930 . S
H952 C898 0.930 . S
H953 C901 0.929 . S
H954 C906 0.929 . S
H955 C907 0.930 . S
H956 C914 0.929 . S
H957 C915 0.930 . S
H958 C916 0.930 . S
H959 C917 0.930 . S
H960 C919 0.951 . S
H961 C920 0.930 . S
H962 C921 0.930 . S
H963 C922 0.930 . S
H964 C926 0.898 1_655 S
H965 C928 0.930 . S
H966 C934 0.929 . S
H967 C935 0.930 . S
Li968 N985 1.990 . S
Li968 O1028 1.956 . S
Li968 O1029 1.970 . S
Li968 O1030 1.961 . S
Li969 N993 1.990 . S
Li969 O1028 1.970 . S
Li969 O1029 1.956 . S
Li969 O1031 1.961 . S
Li970 N1015 1.990 . S
Li970 O1028 1.961 . S
Li970 O1030 1.956 . S
Li970 O1031 1.970 . S
Li971 N1021 1.990 . S
Li971 O1029 1.961 . S
Li971 O1030 1.970 . S
Li971 O1031 1.956 . S
C972 C974 1.348 . S
C972 C975 1.356 . S
C972 O1028 1.325 . S
N973 C976 1.314 . S
N973 C977 1.279 . S
C974 C972 1.348 . S
C974 C976 1.353 . S
C974 H1032 0.929 . S
C975 C972 1.356 . S
C975 C977 1.358 . S
C975 H1033 0.930 . S
C976 N973 1.314 . S
C976 C974 1.353 . S
C976 H1034 0.930 . S
C977 N973 1.279 . S
C977 C975 1.358 . S
C977 H1035 0.930 . S
C978 C981 1.348 . S
C978 C982 1.356 . S
C978 O1029 1.325 . S
C979 N980 1.279 . S
C979 C982 1.358 . S
C979 H1036 0.930 . S
N980 C979 1.279 . S
N980 C983 1.314 . S
C981 C978 1.348 . S
C981 C983 1.353 . S
C981 H1037 0.929 . S
C982 C978 1.356 . S
C982 C979 1.358 . S
C982 H1038 0.930 . S
C983 N980 1.314 . S
C983 C981 1.353 . S
C983 H1039 0.930 . S
C984 N985 1.314 . S
C984 C989 1.353 . S
C984 H990 0.930 . S
N985 Li968 1.990 . S
N985 C984 1.314 . S
N985 C987 1.279 . S
C986 C987 1.358 . S
C986 C988 1.356 . S
C986 H1040 0.930 . S
C987 N985 1.279 . S
C987 C986 1.358 . S
C987 H991 0.930 . S
C988 C986 1.356 . S
C988 C989 1.348 . S
C989 C984 1.353 . S
C989 C988 1.348 . S
C989 H1041 0.929 . S
H990 C984 0.930 . S
H991 C987 0.930 . S
C992 N993 1.314 . S
C992 C994 1.353 . S
C992 H998 0.930 . S
N993 Li969 1.990 . S
N993 C992 1.314 . S
N993 C996 1.279 . S
C994 C992 1.353 . S
C994 C997 1.348 . S
C994 H1042 0.929 . S
C995 C996 1.358 . S
C995 C997 1.356 . S
C995 H1043 0.930 . S
C996 N993 1.279 . S
C996 C995 1.358 . S
C996 H999 0.930 . S
C997 C994 1.348 . S
C997 C995 1.356 . S
H998 C992 0.930 . S
H999 C996 0.930 . S
C1000 C1002 1.348 . S
C1000 C1003 1.356 . S
C1000 O1030 1.325 . S
N1001 C1004 1.314 . S
N1001 C1005 1.279 . S
C1002 C1000 1.348 . S
C1002 C1004 1.353 . S
C1002 H1044 0.929 . S
C1003 C1000 1.356 . S
C1003 C1005 1.358 . S
C1003 H1045 0.930 . S
C1004 N1001 1.314 . S
C1004 C1002 1.353 . S
C1004 H1046 0.930 . S
C1005 N1001 1.279 . S
C1005 C1003 1.358 . S
C1005 H1047 0.930 . S
C1006 C1007 1.348 . S
C1006 C1008 1.356 . S
C1006 O1031 1.325 . S
C1007 C1006 1.348 . S
C1007 C1009 1.353 . S
C1007 H1048 0.929 . S
C1008 C1006 1.356 . S
C1008 C1010 1.358 . S
C1008 H1049 0.930 . S
C1009 C1007 1.353 . S
C1009 N1011 1.314 . S
C1009 H1050 0.930 . S
C1010 C1008 1.358 . S
C1010 N1011 1.279 . S
C1010 H1051 0.930 . S
N1011 C1009 1.314 . S
N1011 C1010 1.279 . S
C1012 C1014 1.353 . S
C1012 N1015 1.314 . S
C1012 H1018 0.930 . S
C1013 N1015 1.279 . S
C1013 C1016 1.358 . S
C1013 H1019 0.930 . S
C1014 C1012 1.353 . S
C1014 C1017 1.348 . S
C1014 H1052 0.929 . S
N1015 Li970 1.990 . S
N1015 C1012 1.314 . S
N1015 C1013 1.279 . S
C1016 C1013 1.358 . S
C1016 C1017 1.356 . S
C1016 H1053 0.930 . S
C1017 C1014 1.348 . S
C1017 C1016 1.356 . S
H1018 C1012 0.930 . S
H1019 C1013 0.930 . S
C1020 N1021 1.314 . S
C1020 C1022 1.353 . S
C1020 H1026 0.930 . S
N1021 Li971 1.990 . S
N1021 C1020 1.314 . S
N1021 C1024 1.279 . S
C1022 C1020 1.353 . S
C1022 C1025 1.348 . S
C1022 H1054 0.929 . S
C1023 C1024 1.358 . S
C1023 C1025 1.356 . S
C1023 H1055 0.930 . S
C1024 N1021 1.279 . S
C1024 C1023 1.358 . S
C1024 H1027 0.930 . S
C1025 C1022 1.348 . S
C1025 C1023 1.356 . S
H1026 C1020 0.930 . S
H1027 C1024 0.930 . S
O1028 Li968 1.956 . S
O1028 Li969 1.970 . S
O1028 Li970 1.961 . S
O1028 C972 1.325 . S
O1029 Li968 1.970 . S
O1029 Li969 1.956 . S
O1029 Li971 1.961 . S
O1029 C978 1.325 . S
O1030 Li968 1.961 . S
O1030 Li970 1.956 . S
O1030 Li971 1.970 . S
O1030 C1000 1.325 . S
O1031 Li969 1.961 . S
O1031 Li970 1.970 . S
O1031 Li971 1.956 . S
O1031 C1006 1.325 . S
H1032 C974 0.929 . S
H1033 C975 0.930 . S
H1034 C976 0.930 . S
H1035 C977 0.930 . S
H1036 C979 0.930 . S
H1037 C981 0.929 . S
H1038 C982 0.930 . S
H1039 C983 0.930 . S
H1040 C986 0.930 . S
H1041 C989 0.929 . S
H1042 C994 0.929 . S
H1043 C995 0.930 . S
H1044 C1002 0.929 . S
H1045 C1003 0.930 . S
H1046 C1004 0.930 . S
H1047 C1005 0.930 . S
H1048 C1007 0.929 . S
H1049 C1008 0.930 . S
H1050 C1009 0.930 . S
H1051 C1010 0.930 . S
H1052 C1014 0.929 . S
H1053 C1016 0.930 . S
H1054 C1022 0.929 . S
H1055 C1023 0.930 . S
Li1056 N1073 1.988 1_545 S
Li1056 O1116 1.956 . S
Li1056 O1117 1.970 . S
Li1056 O1118 1.964 . S
Li1057 N1081 1.990 . S
Li1057 O1116 1.970 . S
Li1057 O1117 1.956 . S
Li1057 O1119 1.961 . S
Li1058 N1103 1.990 . S
Li1058 O1116 1.961 . S
Li1058 O1118 1.956 . S
Li1058 O1119 1.970 . S
Li1059 N1109 1.990 . S
Li1059 O1117 1.961 . S
Li1059 O1118 1.970 . S
Li1059 O1119 1.956 . S
C1060 C1062 1.348 . S
C1060 C1063 1.356 . S
C1060 O1116 1.325 1_565 S
N1061 C1064 1.314 . S
N1061 C1065 1.279 . S
C1062 C1060 1.348 . S
C1062 C1064 1.353 . S
C1062 H1120 0.929 . S
C1063 C1060 1.356 . S
C1063 C1065 1.358 . S
C1063 H1121 0.930 . S
C1064 N1061 1.314 . S
C1064 C1062 1.353 . S
C1064 H1122 0.930 . S
C1065 N1061 1.279 . S
C1065 C1063 1.358 . S
C1065 H1123 0.930 . S
C1066 C1069 1.348 1_545 S
C1066 C1070 1.356 . S
C1066 O1117 1.325 . S
C1067 N1068 1.279 1_545 S
C1067 C1070 1.358 . S
C1067 H1124 0.930 . S
N1068 C1067 1.279 1_565 S
N1068 C1071 1.314 . S
C1069 C1066 1.348 1_565 S
C1069 C1071 1.353 . S
C1069 H1125 0.929 . S
C1070 C1066 1.356 . S
C1070 C1067 1.358 . S
C1070 H1126 0.930 . S
C1071 N1068 1.314 . S
C1071 C1069 1.353 . S
C1071 H1127 0.930 . S
C1072 N1073 1.314 . S
C1072 C1077 1.353 . S
C1072 H1078 0.930 . S
N1073 Li1056 1.988 1_565 S
N1073 C1072 1.314 . S
N1073 C1075 1.279 . S
C1074 C1075 1.358 . S
C1074 C1076 1.356 . S
C1074 H1128 0.930 . S
C1075 N1073 1.279 . S
C1075 C1074 1.358 . S
C1075 H1079 0.930 . S
C1076 C1074 1.356 . S
C1076 C1077 1.348 . S
C1077 C1072 1.353 . S
C1077 C1076 1.348 . S
C1077 H1129 0.929 . S
H1078 C1072 0.930 . S
H1079 C1075 0.930 . S
C1080 N1081 1.314 . S
C1080 C1082 1.353 . S
C1080 H1086 0.930 . S
N1081 Li1057 1.990 . S
N1081 C1080 1.314 . S
N1081 C1084 1.279 . S
C1082 C1080 1.353 . S
C1082 C1085 1.348 . S
C1082 H1130 0.929 . S
C1083 C1084 1.358 . S
C1083 C1085 1.356 . S
C1083 H1131 0.956 . S
C1084 N1081 1.279 . S
C1084 C1083 1.358 . S
C1084 H1087 0.930 . S
C1085 C1082 1.348 . S
C1085 C1083 1.356 . S
H1086 C1080 0.930 . S
H1087 C1084 0.930 . S
C1088 C1090 1.348 . S
C1088 C1091 1.356 . S
C1088 O1118 1.325 . S
N1089 C1092 1.314 . S
N1089 C1093 1.279 . S
C1090 C1088 1.348 . S
C1090 C1092 1.353 . S
C1090 H1132 0.929 . S
C1091 C1088 1.356 . S
C1091 C1093 1.358 . S
C1091 H1133 0.930 . S
C1092 N1089 1.314 . S
C1092 C1090 1.353 . S
C1092 H1134 0.930 . S
C1093 N1089 1.279 . S
C1093 C1091 1.358 . S
C1093 H1135 0.930 . S
C1094 C1095 1.348 . S
C1094 C1096 1.356 . S
C1094 O1119 1.325 . S
C1095 C1094 1.348 . S
C1095 C1097 1.353 . S
C1095 H1136 0.929 . S
C1096 C1094 1.356 . S
C1096 C1098 1.358 . S
C1096 H1137 0.930 . S
C1097 C1095 1.353 . S
C1097 N1099 1.314 . S
C1097 H1138 0.930 . S
C1098 C1096 1.358 . S
C1098 N1099 1.279 . S
C1098 H1139 0.930 . S
N1099 C1097 1.314 . S
N1099 C1098 1.279 . S
C1100 C1102 1.353 . S
C1100 N1103 1.314 . S
C1100 H1106 0.930 . S
C1101 N1103 1.279 . S
C1101 C1104 1.358 . S
C1101 H1107 0.930 . S
C1102 C1100 1.353 . S
C1102 C1105 1.348 . S
C1102 H1140 0.929 . S
N1103 Li1058 1.990 . S
N1103 C1100 1.314 . S
N1103 C1101 1.279 . S
C1104 C1101 1.358 . S
C1104 C1105 1.356 . S
C1104 H1141 0.930 . S
C1105 C1102 1.348 . S
C1105 C1104 1.356 . S
H1106 C1100 0.930 . S
H1107 C1101 0.930 . S
C1108 N1109 1.314 . S
C1108 C1110 1.353 . S
C1108 H1114 0.930 . S
N1109 Li1059 1.990 . S
N1109 C1108 1.314 . S
N1109 C1112 1.279 . S
C1110 C1108 1.353 . S
C1110 C1113 1.348 . S
C1110 H1142 0.929 . S
C1111 C1112 1.358 . S
C1111 C1113 1.356 . S
C1111 H1143 0.930 . S
C1112 N1109 1.279 . S
C1112 C1111 1.358 . S
C1112 H1115 0.930 . S
C1113 C1110 1.348 . S
C1113 C1111 1.356 . S
H1114 C1108 0.930 . S
H1115 C1112 0.930 . S
O1116 Li1056 1.956 . S
O1116 Li1057 1.970 . S
O1116 Li1058 1.961 . S
O1116 C1060 1.325 1_545 S
O1117 Li1056 1.970 . S
O1117 Li1057 1.956 . S
O1117 Li1059 1.961 . S
O1117 C1066 1.325 . S
O1118 Li1056 1.964 . S
O1118 Li1058 1.956 . S
O1118 Li1059 1.970 . S
O1118 C1088 1.325 . S
O1119 Li1057 1.961 . S
O1119 Li1058 1.970 . S
O1119 Li1059 1.956 . S
O1119 C1094 1.325 . S
H1120 C1062 0.929 . S
H1121 C1063 0.930 . S
H1122 C1064 0.930 . S
H1123 C1065 0.930 . S
H1124 C1067 0.930 . S
H1125 C1069 0.929 . S
H1126 C1070 0.930 . S
H1127 C1071 0.930 . S
H1128 C1074 0.930 . S
H1129 C1077 0.929 . S
H1130 C1082 0.929 . S
H1131 C1083 0.956 . S
H1132 C1090 0.929 . S
H1133 C1091 0.930 . S
H1134 C1092 0.930 . S
H1135 C1093 0.930 . S
H1136 C1095 0.929 . S
H1137 C1096 0.930 . S
H1138 C1097 0.930 . S
H1139 C1098 0.930 . S
H1140 C1102 0.929 . S
H1141 C1104 0.930 . S
H1142 C1110 0.929 . S
H1143 C1111 0.930 . S
Li1144 N1161 1.990 . S
Li1144 O1204 1.956 1_455 S
Li1144 O1205 1.970 1_455 S
Li1144 O1206 1.961 1_455 S
Li1145 N1169 1.990 . S
Li1145 O1204 1.970 . S
Li1145 O1205 1.956 . S
Li1145 O1207 1.961 . S
Li1146 N1191 1.990 . S
Li1146 O1204 1.961 . S
Li1146 O1206 1.956 . S
Li1146 O1207 1.970 . S
Li1147 N1197 1.990 . S
Li1147 O1205 1.961 . S
Li1147 O1206 1.970 . S
Li1147 O1207 1.956 . S
C1148 C1150 1.348 . S
C1148 C1151 1.356 . S
C1148 O1204 1.325 1_455 S
N1149 C1152 1.314 . S
N1149 C1153 1.279 . S
C1150 C1148 1.348 . S
C1150 C1152 1.353 . S
C1150 H1208 0.929 . S
C1151 C1148 1.356 . S
C1151 C1153 1.358 . S
C1151 H1209 0.930 . S
C1152 N1149 1.314 . S
C1152 C1150 1.353 . S
C1152 H1210 0.930 . S
C1153 N1149 1.279 . S
C1153 C1151 1.358 . S
C1153 H1211 0.930 . S
C1154 C1157 1.348 1_655 S
C1154 C1158 1.356 . S
C1154 O1205 1.325 . S
C1155 N1156 1.279 1_655 S
C1155 C1158 1.358 . S
C1155 H1212 0.930 . S
N1156 C1155 1.279 1_455 S
N1156 C1159 1.314 . S
C1157 C1154 1.348 1_455 S
C1157 C1159 1.353 . S
C1157 H1213 0.929 . S
C1158 C1154 1.356 . S
C1158 C1155 1.358 . S
C1158 H1214 0.930 . S
C1159 N1156 1.314 . S
C1159 C1157 1.353 . S
C1159 H1215 0.930 . S
C1160 N1161 1.314 . S
C1160 C1165 1.353 . S
C1160 H1166 0.930 . S
N1161 Li1144 1.990 . S
N1161 C1160 1.314 . S
N1161 C1163 1.279 . S
C1162 C1163 1.358 . S
C1162 C1164 1.356 . S
C1162 H1216 0.930 . S
C1163 N1161 1.279 . S
C1163 C1162 1.358 . S
C1163 H1167 0.930 . S
C1164 C1162 1.356 . S
C1164 C1165 1.348 . S
C1165 C1160 1.353 . S
C1165 C1164 1.348 . S
C1165 H1217 0.929 . S
H1166 C1160 0.930 . S
H1167 C1163 0.930 . S
C1168 N1169 1.314 . S
C1168 C1170 1.353 . S
C1168 H1174 0.930 . S
N1169 Li1145 1.990 . S
N1169 C1168 1.314 . S
N1169 C1172 1.279 . S
C1170 C1168 1.353 . S
C1170 C1173 1.348 . S
C1170 H1218 0.929 . S
C1171 C1172 1.358 . S
C1171 C1173 1.356 . S
C1171 H1219 0.930 1_655 S
C1172 N1169 1.279 . S
C1172 C1171 1.358 . S
C1172 H1175 0.930 . S
C1173 C1170 1.348 . S
C1173 C1171 1.356 . S
H1174 C1168 0.930 . S
H1175 C1172 0.930 . S
C1176 C1178 1.348 . S
C1176 C1179 1.356 . S
C1176 O1206 1.325 . S
N1177 C1180 1.314 . S
N1177 C1181 1.279 . S
C1178 C1176 1.348 . S
C1178 C1180 1.353 . S
C1178 H1220 0.929 . S
C1179 C1176 1.356 . S
C1179 C1181 1.358 . S
C1179 H1221 0.928 1_655 S
C1180 N1177 1.314 . S
C1180 C1178 1.353 . S
C1180 H1222 0.930 . S
C1181 N1177 1.279 . S
C1181 C1179 1.358 . S
C1181 H1223 0.930 . S
C1182 C1183 1.348 . S
C1182 C1184 1.356 . S
C1182 O1207 1.325 . S
C1183 C1182 1.348 . S
C1183 C1185 1.353 . S
C1183 H1224 0.929 . S
C1184 C1182 1.356 . S
C1184 C1186 1.358 . S
C1184 H1225 0.930 . S
C1185 C1183 1.353 . S
C1185 N1187 1.314 . S
C1185 H1226 0.930 . S
C1186 C1184 1.358 . S
C1186 N1187 1.279 . S
C1186 H1227 0.930 . S
N1187 C1185 1.314 . S
N1187 C1186 1.279 . S
C1188 C1190 1.353 . S
C1188 N1191 1.314 . S
C1188 H1194 0.930 . S
C1189 N1191 1.279 . S
C1189 C1192 1.358 . S
C1189 H1195 0.930 . S
C1190 C1188 1.353 . S
C1190 C1193 1.348 . S
C1190 H1228 0.929 . S
N1191 Li1146 1.990 . S
N1191 C1188 1.314 . S
N1191 C1189 1.279 . S
C1192 C1189 1.358 . S
C1192 C1193 1.356 . S
C1192 H1229 0.930 . S
C1193 C1190 1.348 . S
C1193 C1192 1.356 . S
H1194 C1188 0.930 . S
H1195 C1189 0.930 . S
C1196 N1197 1.314 . S
C1196 C1198 1.353 . S
C1196 H1202 0.930 . S
N1197 Li1147 1.990 . S
N1197 C1196 1.314 . S
N1197 C1200 1.279 . S
C1198 C1196 1.353 . S
C1198 C1201 1.348 . S
C1198 H1230 0.929 . S
C1199 C1200 1.358 . S
C1199 C1201 1.356 . S
C1199 H1231 0.930 . S
C1200 N1197 1.279 . S
C1200 C1199 1.358 . S
C1200 H1203 0.930 . S
C1201 C1198 1.348 . S
C1201 C1199 1.356 . S
H1202 C1196 0.930 . S
H1203 C1200 0.930 . S
O1204 Li1144 1.956 1_655 S
O1204 Li1145 1.970 . S
O1204 Li1146 1.961 . S
O1204 C1148 1.325 1_655 S
O1205 Li1144 1.970 1_655 S
O1205 Li1145 1.956 . S
O1205 Li1147 1.961 . S
O1205 C1154 1.325 . S
O1206 Li1144 1.961 1_655 S
O1206 Li1146 1.956 . S
O1206 Li1147 1.970 . S
O1206 C1176 1.325 . S
O1207 Li1145 1.961 . S
O1207 Li1146 1.970 . S
O1207 Li1147 1.956 . S
O1207 C1182 1.325 . S
H1208 C1150 0.929 . S
H1209 C1151 0.930 . S
H1210 C1152 0.930 . S
H1211 C1153 0.930 . S
H1212 C1155 0.930 . S
H1213 C1157 0.929 . S
H1214 C1158 0.930 . S
H1215 C1159 0.930 . S
H1216 C1162 0.930 . S
H1217 C1165 0.929 . S
H1218 C1170 0.929 . S
H1219 C1171 0.930 1_455 S
H1220 C1178 0.929 . S
H1221 C1179 0.928 1_455 S
H1222 C1180 0.930 . S
H1223 C1181 0.930 . S
H1224 C1183 0.929 . S
H1225 C1184 0.930 . S
H1226 C1185 0.930 . S
H1227 C1186 0.930 . S
H1228 C1190 0.929 . S
H1229 C1192 0.930 . S
H1230 C1198 0.929 . S
H1231 C1199 0.930 . S
Li1232 N1249 1.990 . S
Li1232 O1292 1.956 . S
Li1232 O1293 1.970 . S
Li1232 O1294 1.961 . S
Li1233 N1257 1.990 . S
Li1233 O1292 1.970 . S
Li1233 O1293 1.956 . S
Li1233 O1295 1.961 . S
Li1234 N1279 1.990 . S
Li1234 O1292 1.961 . S
Li1234 O1294 1.956 . S
Li1234 O1295 1.970 . S
Li1235 N1285 1.990 . S
Li1235 O1293 1.961 . S
Li1235 O1294 1.970 . S
Li1235 O1295 1.956 . S
C1236 C1238 1.348 . S
C1236 C1239 1.356 . S
C1236 O1292 1.325 . S
N1237 C1240 1.314 . S
N1237 C1241 1.279 . S
C1238 C1236 1.348 . S
C1238 C1240 1.353 . S
C1238 H1296 0.929 . S
C1239 C1236 1.356 . S
C1239 C1241 1.358 . S
C1239 H1297 0.930 . S
C1240 N1237 1.314 . S
C1240 C1238 1.353 . S
C1240 H1298 0.930 . S
C1241 N1237 1.279 . S
C1241 C1239 1.358 . S
C1241 H1299 0.930 . S
C1242 C1245 1.348 . S
C1242 C1246 1.356 . S
C1242 O1293 1.325 . S
C1243 N1244 1.279 . S
C1243 C1246 1.358 . S
C1243 H1300 0.930 . S
N1244 C1243 1.279 . S
N1244 C1247 1.314 . S
C1245 C1242 1.348 . S
C1245 C1247 1.353 . S
C1245 H1301 0.929 . S
C1246 C1242 1.356 . S
C1246 C1243 1.358 . S
C1246 H1302 0.930 . S
C1247 N1244 1.314 . S
C1247 C1245 1.353 . S
C1247 H1303 0.930 . S
C1248 N1249 1.314 . S
C1248 C1253 1.353 . S
C1248 H1254 0.930 . S
N1249 Li1232 1.990 . S
N1249 C1248 1.314 . S
N1249 C1251 1.279 . S
C1250 C1251 1.358 . S
C1250 C1252 1.356 . S
C1250 H1304 0.930 . S
C1251 N1249 1.279 . S
C1251 C1250 1.358 . S
C1251 H1255 0.930 . S
C1252 C1250 1.356 . S
C1252 C1253 1.348 . S
C1253 C1248 1.353 . S
C1253 C1252 1.348 . S
C1253 H1305 0.929 . S
H1254 C1248 0.930 . S
H1255 C1251 0.930 . S
C1256 N1257 1.314 . S
C1256 C1258 1.353 . S
C1256 H1262 0.930 . S
N1257 Li1233 1.990 . S
N1257 C1256 1.314 . S
N1257 C1260 1.279 . S
C1258 C1256 1.353 . S
C1258 C1261 1.348 . S
C1258 H1306 0.929 . S
C1259 C1260 1.358 . S
C1259 C1261 1.356 . S
C1259 H1307 0.930 . S
C1260 N1257 1.279 . S
C1260 C1259 1.358 . S
C1260 H1263 0.930 . S
C1261 C1258 1.348 . S
C1261 C1259 1.356 . S
H1262 C1256 0.930 . S
H1263 C1260 0.930 . S
C1264 C1266 1.348 . S
C1264 C1267 1.356 . S
C1264 O1294 1.325 . S
N1265 C1268 1.314 . S
N1265 C1269 1.279 . S
C1266 C1264 1.348 . S
C1266 C1268 1.353 . S
C1266 H1308 0.929 . S
C1267 C1264 1.356 . S
C1267 C1269 1.358 . S
C1267 H1309 0.930 . S
C1268 N1265 1.314 . S
C1268 C1266 1.353 . S
C1268 H1310 0.930 . S
C1269 N1265 1.279 . S
C1269 C1267 1.358 . S
C1269 H1311 0.930 . S
C1270 C1271 1.348 . S
C1270 C1272 1.356 . S
C1270 O1295 1.325 . S
C1271 C1270 1.348 . S
C1271 C1273 1.353 . S
C1271 H1312 0.929 . S
C1272 C1270 1.356 . S
C1272 C1274 1.358 . S
C1272 H1313 0.930 . S
C1273 C1271 1.353 . S
C1273 N1275 1.314 . S
C1273 H1314 0.930 . S
C1274 C1272 1.358 . S
C1274 N1275 1.279 . S
C1274 H1315 0.930 . S
N1275 C1273 1.314 . S
N1275 C1274 1.279 . S
C1276 C1278 1.353 . S
C1276 N1279 1.314 . S
C1276 H1282 0.930 . S
C1277 N1279 1.279 . S
C1277 C1280 1.358 . S
C1277 H1283 0.930 . S
C1278 C1276 1.353 . S
C1278 C1281 1.348 . S
C1278 H1316 0.929 . S
N1279 Li1234 1.990 . S
N1279 C1276 1.314 . S
N1279 C1277 1.279 . S
C1280 C1277 1.358 . S
C1280 C1281 1.356 . S
C1280 H1317 0.930 . S
C1281 C1278 1.348 . S
C1281 C1280 1.356 . S
H1282 C1276 0.930 . S
H1283 C1277 0.930 . S
C1284 N1285 1.314 . S
C1284 C1286 1.353 . S
C1284 H1290 0.930 . S
N1285 Li1235 1.990 . S
N1285 C1284 1.314 . S
N1285 C1288 1.279 . S
C1286 C1284 1.353 . S
C1286 C1289 1.348 . S
C1286 H1318 0.929 . S
C1287 C1288 1.358 . S
C1287 C1289 1.356 . S
C1287 H1319 0.930 . S
C1288 N1285 1.279 . S
C1288 C1287 1.358 . S
C1288 H1291 0.930 . S
C1289 C1286 1.348 . S
C1289 C1287 1.356 . S
H1290 C1284 0.930 . S
H1291 C1288 0.930 . S
O1292 Li1232 1.956 . S
O1292 Li1233 1.970 . S
O1292 Li1234 1.961 . S
O1292 C1236 1.325 . S
O1293 Li1232 1.970 . S
O1293 Li1233 1.956 . S
O1293 Li1235 1.961 . S
O1293 C1242 1.325 . S
O1294 Li1232 1.961 . S
O1294 Li1234 1.956 . S
O1294 Li1235 1.970 . S
O1294 C1264 1.325 . S
O1295 Li1233 1.961 . S
O1295 Li1234 1.970 . S
O1295 Li1235 1.956 . S
O1295 C1270 1.325 . S
H1296 C1238 0.929 . S
H1297 C1239 0.930 . S
H1298 C1240 0.930 . S
H1299 C1241 0.930 . S
H1300 C1243 0.930 . S
H1301 C1245 0.929 . S
H1302 C1246 0.930 . S
H1303 C1247 0.930 . S
H1304 C1250 0.930 . S
H1305 C1253 0.929 . S
H1306 C1258 0.929 . S
H1307 C1259 0.930 . S
H1308 C1266 0.929 . S
H1309 C1267 0.930 . S
H1310 C1268 0.930 . S
H1311 C1269 0.930 . S
H1312 C1271 0.929 . S
H1313 C1272 0.930 . S
H1314 C1273 0.930 . S
H1315 C1274 0.930 . S
H1316 C1278 0.929 . S
H1317 C1280 0.930 . S
H1318 C1286 0.929 . S
H1319 C1287 0.930 . S
Li1320 N1337 1.990 . S
Li1320 O1380 1.956 . S
Li1320 O1381 1.970 . S
Li1320 O1382 1.961 . S
Li1321 N1345 1.990 . S
Li1321 O1380 1.970 . S
Li1321 O1381 1.956 . S
Li1321 O1383 1.961 . S
Li1322 N1367 1.990 . S
Li1322 O1380 1.961 . S
Li1322 O1382 1.956 . S
Li1322 O1383 1.970 . S
Li1323 N1373 1.990 . S
Li1323 O1381 1.961 . S
Li1323 O1382 1.970 . S
Li1323 O1383 1.956 . S
C1324 C1326 1.348 . S
C1324 C1327 1.356 . S
C1324 O1380 1.325 . S
N1325 C1328 1.314 . S
N1325 C1329 1.279 . S
C1326 C1324 1.348 . S
C1326 C1328 1.353 . S
C1326 H1384 0.929 . S
C1327 C1324 1.356 . S
C1327 C1329 1.358 . S
C1327 H1385 0.930 . S
C1328 N1325 1.314 . S
C1328 C1326 1.353 . S
C1328 H1386 0.930 . S
C1329 N1325 1.279 . S
C1329 C1327 1.358 . S
C1329 H1387 0.930 . S
C1330 C1333 1.348 . S
C1330 C1334 1.356 . S
C1330 O1381 1.325 . S
C1331 N1332 1.279 . S
C1331 C1334 1.358 . S
C1331 H1388 0.930 . S
N1332 C1331 1.279 . S
N1332 C1335 1.314 . S
C1333 C1330 1.348 . S
C1333 C1335 1.353 . S
C1333 H1389 0.929 . S
C1334 C1330 1.356 . S
C1334 C1331 1.358 . S
C1334 H1390 0.930 . S
C1335 N1332 1.314 . S
C1335 C1333 1.353 . S
C1335 H1391 0.930 . S
C1336 N1337 1.314 . S
C1336 C1341 1.353 . S
C1336 H1342 0.930 . S
N1337 Li1320 1.990 . S
N1337 C1336 1.314 . S
N1337 C1339 1.279 . S
C1338 C1339 1.358 . S
C1338 C1340 1.356 . S
C1338 H1392 0.930 . S
C1339 N1337 1.279 . S
C1339 C1338 1.358 . S
C1339 H1343 0.930 . S
C1340 C1338 1.356 . S
C1340 C1341 1.348 . S
C1341 C1336 1.353 . S
C1341 C1340 1.348 . S
C1341 H1393 0.929 . S
H1342 C1336 0.930 . S
H1343 C1339 0.930 . S
C1344 N1345 1.314 . S
C1344 C1346 1.353 . S
C1344 H1350 0.930 . S
N1345 Li1321 1.990 . S
N1345 C1344 1.314 . S
N1345 C1348 1.279 . S
C1346 C1344 1.353 . S
C1346 C1349 1.348 . S
C1346 H1394 0.929 . S
C1347 C1348 1.358 . S
C1347 C1349 1.356 . S
C1347 H1395 0.930 . S
C1348 N1345 1.279 . S
C1348 C1347 1.358 . S
C1348 H1351 0.930 . S
C1349 C1346 1.348 . S
C1349 C1347 1.356 . S
H1350 C1344 0.930 . S
H1351 C1348 0.930 . S
C1352 C1354 1.348 . S
C1352 C1355 1.356 . S
C1352 O1382 1.325 . S
N1353 C1356 1.314 . S
N1353 C1357 1.279 . S
C1354 C1352 1.348 . S
C1354 C1356 1.353 . S
C1354 H1396 0.929 . S
C1355 C1352 1.356 . S
C1355 C1357 1.358 . S
C1355 H1397 0.930 . S
C1356 N1353 1.314 . S
C1356 C1354 1.353 . S
C1356 H1398 0.930 . S
C1357 N1353 1.279 . S
C1357 C1355 1.358 . S
C1357 H1399 0.930 . S
C1358 C1359 1.348 . S
C1358 C1360 1.356 . S
C1358 O1383 1.325 . S
C1359 C1358 1.348 . S
C1359 C1361 1.353 . S
C1359 H1400 0.929 . S
C1360 C1358 1.356 . S
C1360 C1362 1.358 . S
C1360 H1401 0.930 . S
C1361 C1359 1.353 . S
C1361 N1363 1.314 . S
C1361 H1402 0.930 . S
C1362 C1360 1.358 . S
C1362 N1363 1.279 . S
C1362 H1403 0.930 . S
N1363 C1361 1.314 . S
N1363 C1362 1.279 . S
C1364 C1366 1.353 . S
C1364 N1367 1.314 . S
C1364 H1370 0.930 . S
C1365 N1367 1.279 . S
C1365 C1368 1.358 . S
C1365 H1371 0.930 . S
C1366 C1364 1.353 . S
C1366 C1369 1.348 . S
C1366 H1404 0.929 . S
N1367 Li1322 1.990 . S
N1367 C1364 1.314 . S
N1367 C1365 1.279 . S
C1368 C1365 1.358 . S
C1368 C1369 1.356 . S
C1368 H1405 0.930 . S
C1369 C1366 1.348 . S
C1369 C1368 1.356 . S
H1370 C1364 0.930 . S
H1371 C1365 0.930 . S
C1372 N1373 1.314 . S
C1372 C1374 1.353 . S
C1372 H1378 0.930 . S
N1373 Li1323 1.990 . S
N1373 C1372 1.314 . S
N1373 C1376 1.279 . S
C1374 C1372 1.353 . S
C1374 C1377 1.348 . S
C1374 H1406 0.929 . S
C1375 C1376 1.358 . S
C1375 C1377 1.356 . S
C1375 H1407 0.930 . S
C1376 N1373 1.279 . S
C1376 C1375 1.358 . S
C1376 H1379 0.930 . S
C1377 C1374 1.348 . S
C1377 C1375 1.356 . S
H1378 C1372 0.930 . S
H1379 C1376 0.930 . S
O1380 Li1320 1.956 . S
O1380 Li1321 1.970 . S
O1380 Li1322 1.961 . S
O1380 C1324 1.325 . S
O1381 Li1320 1.970 . S
O1381 Li1321 1.956 . S
O1381 Li1323 1.961 . S
O1381 C1330 1.325 . S
O1382 Li1320 1.961 . S
O1382 Li1322 1.956 . S
O1382 Li1323 1.970 . S
O1382 C1352 1.325 . S
O1383 Li1321 1.961 . S
O1383 Li1322 1.970 . S
O1383 Li1323 1.956 . S
O1383 C1358 1.325 . S
H1384 C1326 0.929 . S
H1385 C1327 0.930 . S
H1386 C1328 0.930 . S
H1387 C1329 0.930 . S
H1388 C1331 0.930 . S
H1389 C1333 0.929 . S
H1390 C1334 0.930 . S
H1391 C1335 0.930 . S
H1392 C1338 0.930 . S
H1393 C1341 0.929 . S
H1394 C1346 0.929 . S
H1395 C1347 0.930 . S
H1396 C1354 0.929 . S
H1397 C1355 0.930 . S
H1398 C1356 0.930 . S
H1399 C1357 0.930 . S
H1400 C1359 0.929 . S
H1401 C1360 0.930 . S
H1402 C1361 0.930 . S
H1403 C1362 0.930 . S
H1404 C1366 0.929 . S
H1405 C1368 0.930 . S
H1406 C1374 0.929 . S
H1407 C1375 0.930 . S
Li1408 N1425 1.990 . S
Li1408 O1468 1.956 . S
Li1408 O1469 1.970 . S
Li1408 O1470 1.961 . S
Li1409 N1433 1.990 . S
Li1409 O1468 1.970 . S
Li1409 O1469 1.956 . S
Li1409 O1471 1.961 . S
Li1410 N1455 1.990 . S
Li1410 O1468 1.961 . S
Li1410 O1470 1.956 . S
Li1410 O1471 1.970 . S
Li1411 N1461 2.005 . S
Li1411 O1469 1.956 1_565 S
Li1411 O1470 1.958 1_565 S
Li1411 O1471 1.949 1_565 S
C1412 C1414 1.348 . S
C1412 C1415 1.356 . S
C1412 O1468 1.325 . S
N1413 C1416 1.314 . S
N1413 C1417 1.279 . S
C1414 C1412 1.348 . S
C1414 C1416 1.353 . S
C1414 H1472 0.929 . S
C1415 C1412 1.356 . S
C1415 C1417 1.358 . S
C1415 H1473 0.930 . S
C1416 N1413 1.314 . S
C1416 C1414 1.353 . S
C1416 H1474 0.930 . S
C1417 N1413 1.279 . S
C1417 C1415 1.358 . S
C1417 H1475 0.930 . S
C1418 C1421 1.348 . S
C1418 C1422 1.356 . S
C1418 O1469 1.325 1_565 S
C1419 N1420 1.279 . S
C1419 C1422 1.358 . S
C1419 H1476 0.930 . S
N1420 C1419 1.279 . S
N1420 C1423 1.314 . S
C1421 C1418 1.348 . S
C1421 C1423 1.353 . S
C1421 H1477 0.952 . S
C1422 C1418 1.356 . S
C1422 C1419 1.358 . S
C1422 H1478 0.930 . S
C1423 N1420 1.314 . S
C1423 C1421 1.353 . S
C1423 H1479 0.930 . S
C1424 N1425 1.314 . S
C1424 C1429 1.329 . S
C1424 H1430 0.930 1_545 S
N1425 Li1408 1.990 . S
N1425 C1424 1.314 . S
N1425 C1427 1.279 . S
C1426 C1427 1.358 . S
C1426 C1428 1.356 . S
C1426 H1480 0.930 . S
C1427 N1425 1.279 . S
C1427 C1426 1.358 . S
C1427 H1431 0.930 . S
C1428 C1426 1.356 . S
C1428 C1429 1.409 . S
C1429 C1424 1.329 . S
C1429 C1428 1.409 . S
C1429 H1481 0.898 1_545 S
H1430 C1424 0.930 1_565 S
H1431 C1427 0.930 . S
C1432 N1433 1.314 . S
C1432 C1434 1.353 . S
C1432 H1438 0.930 . S
N1433 Li1409 1.990 . S
N1433 C1432 1.314 . S
N1433 C1436 1.279 . S
C1434 C1432 1.353 . S
C1434 C1437 1.348 . S
C1434 H1482 0.929 . S
C1435 C1436 1.358 . S
C1435 C1437 1.356 . S
C1435 H1483 0.930 . S
C1436 N1433 1.279 . S
C1436 C1435 1.358 . S
C1436 H1439 0.930 . S
C1437 C1434 1.348 . S
C1437 C1435 1.356 . S
H1438 C1432 0.930 . S
H1439 C1436 0.930 . S
C1440 C1442 1.348 1_545 S
C1440 C1443 1.356 . S
C1440 O1470 1.325 . S
N1441 C1444 1.314 . S
N1441 C1445 1.279 1_565 S
C1442 C1440 1.348 1_565 S
C1442 C1444 1.353 . S
C1442 H1484 0.929 . S
C1443 C1440 1.356 . S
C1443 C1445 1.358 . S
C1443 H1485 0.930 . S
C1444 N1441 1.314 . S
C1444 C1442 1.353 . S
C1444 H1486 0.930 . S
C1445 N1441 1.279 1_545 S
C1445 C1443 1.358 . S
C1445 H1487 0.930 . S
C1446 C1447 1.348 . S
C1446 C1448 1.356 . S
C1446 O1471 1.325 . S
C1447 C1446 1.348 . S
C1447 C1449 1.353 . S
C1447 H1488 0.929 . S
C1448 C1446 1.356 . S
C1448 C1450 1.358 . S
C1448 H1489 0.930 . S
C1449 C1447 1.353 . S
C1449 N1451 1.314 . S
C1449 H1490 0.930 . S
C1450 C1448 1.358 . S
C1450 N1451 1.279 . S
C1450 H1491 0.930 . S
N1451 C1449 1.314 . S
N1451 C1450 1.279 . S
C1452 C1454 1.353 . S
C1452 N1455 1.314 . S
C1452 H1458 0.930 . S
C1453 N1455 1.279 . S
C1453 C1456 1.358 . S
C1453 H1459 0.930 . S
C1454 C1452 1.353 . S
C1454 C1457 1.348 . S
C1454 H1492 0.929 . S
N1455 Li1410 1.990 . S
N1455 C1452 1.314 . S
N1455 C1453 1.279 . S
C1456 C1453 1.358 . S
C1456 C1457 1.356 . S
C1456 H1493 0.930 . S
C1457 C1454 1.348 . S
C1457 C1456 1.356 . S
H1458 C1452 0.930 . S
H1459 C1453 0.930 . S
C1460 N1461 1.314 . S
C1460 C1462 1.353 . S
C1460 H1466 0.930 . S
N1461 Li1411 2.005 . S
N1461 C1460 1.314 . S
N1461 C1464 1.279 . S
C1462 C1460 1.353 . S
C1462 C1465 1.348 . S
C1462 H1494 0.929 . S
C1463 C1464 1.358 . S
C1463 C1465 1.356 . S
C1463 H1495 0.930 . S
C1464 N1461 1.279 . S
C1464 C1463 1.358 . S
C1464 H1467 0.930 . S
C1465 C1462 1.348 . S
C1465 C1463 1.356 . S
H1466 C1460 0.930 . S
H1467 C1464 0.930 . S
O1468 Li1408 1.956 . S
O1468 Li1409 1.970 . S
O1468 Li1410 1.961 . S
O1468 C1412 1.325 . S
O1469 Li1408 1.970 . S
O1469 Li1409 1.956 . S
O1469 Li1411 1.956 1_545 S
O1469 C1418 1.325 1_545 S
O1470 Li1408 1.961 . S
O1470 Li1410 1.956 . S
O1470 Li1411 1.958 1_545 S
O1470 C1440 1.325 . S
O1471 Li1409 1.961 . S
O1471 Li1410 1.970 . S
O1471 Li1411 1.949 1_545 S
O1471 C1446 1.325 . S
H1472 C1414 0.929 . S
H1473 C1415 0.930 . S
H1474 C1416 0.930 . S
H1475 C1417 0.930 . S
H1476 C1419 0.930 . S
H1477 C1421 0.952 . S
H1478 C1422 0.930 . S
H1479 C1423 0.930 . S
H1480 C1426 0.930 . S
H1481 C1429 0.898 1_565 S
H1482 C1434 0.929 . S
H1483 C1435 0.930 . S
H1484 C1442 0.929 . S
H1485 C1443 0.930 . S
H1486 C1444 0.930 . S
H1487 C1445 0.930 . S
H1488 C1447 0.929 . S
H1489 C1448 0.930 . S
H1490 C1449 0.930 . S
H1491 C1450 0.930 . S
H1492 C1454 0.929 . S
H1493 C1456 0.930 . S
H1494 C1462 0.929 . S
H1495 C1463 0.930 . S
Li1496 N1513 1.990 . S
Li1496 O1556 1.956 . S
Li1496 O1557 1.970 . S
Li1496 O1558 1.961 . S
Li1497 N1521 1.990 . S
Li1497 O1556 1.970 . S
Li1497 O1557 1.956 . S
Li1497 O1559 1.961 . S
Li1498 N1543 1.997 . S
Li1498 O1556 1.961 1_455 S
Li1498 O1558 1.945 1_455 S
Li1498 O1559 1.971 1_455 S
Li1499 N1549 1.990 . S
Li1499 O1557 1.961 . S
Li1499 O1558 1.970 . S
Li1499 O1559 1.956 . S
C1500 C1502 1.348 . S
C1500 C1503 1.356 . S
C1500 O1556 1.325 1_455 S
N1501 C1504 1.314 . S
N1501 C1505 1.279 . S
C1502 C1500 1.348 . S
C1502 C1504 1.353 . S
C1502 H1560 0.928 . S
C1503 C1500 1.356 . S
C1503 C1505 1.358 . S
C1503 H1561 0.930 . S
C1504 N1501 1.314 . S
C1504 C1502 1.353 . S
C1504 H1562 0.930 . S
C1505 N1501 1.279 . S
C1505 C1503 1.358 . S
C1505 H1563 0.930 . S
C1506 C1509 1.348 . S
C1506 C1510 1.356 . S
C1506 O1557 1.325 . S
C1507 N1508 1.279 . S
C1507 C1510 1.358 . S
C1507 H1564 0.930 . S
N1508 C1507 1.279 . S
N1508 C1511 1.314 . S
C1509 C1506 1.348 . S
C1509 C1511 1.353 . S
C1509 H1565 0.929 . S
C1510 C1506 1.356 . S
C1510 C1507 1.358 . S
C1510 H1566 0.930 . S
C1511 N1508 1.314 . S
C1511 C1509 1.353 . S
C1511 H1567 0.930 . S
C1512 N1513 1.314 . S
C1512 C1517 1.353 . S
C1512 H1518 0.930 . S
N1513 Li1496 1.990 . S
N1513 C1512 1.314 . S
N1513 C1515 1.279 . S
C1514 C1515 1.358 . S
C1514 C1516 1.356 . S
C1514 H1568 0.930 . S
C1515 N1513 1.279 . S
C1515 C1514 1.358 . S
C1515 H1519 0.930 . S
C1516 C1514 1.356 . S
C1516 C1517 1.348 . S
C1517 C1512 1.353 . S
C1517 C1516 1.348 . S
C1517 H1569 0.929 . S
H1518 C1512 0.930 . S
H1519 C1515 0.930 . S
C1520 N1521 1.314 . S
C1520 C1522 1.353 . S
C1520 H1526 0.930 1_655 S
N1521 Li1497 1.990 . S
N1521 C1520 1.314 . S
N1521 C1524 1.279 . S
C1522 C1520 1.353 . S
C1522 C1525 1.348 . S
C1522 H1570 0.929 1_655 S
C1523 C1524 1.358 . S
C1523 C1525 1.356 . S
C1523 H1571 0.930 . S
C1524 N1521 1.279 . S
C1524 C1523 1.358 . S
C1524 H1527 0.930 . S
C1525 C1522 1.348 . S
C1525 C1523 1.356 . S
H1526 C1520 0.930 1_455 S
H1527 C1524 0.930 . S
C1528 C1530 1.348 . S
C1528 C1531 1.356 . S
C1528 O1558 1.325 . S
N1529 C1532 1.314 . S
N1529 C1533 1.279 . S
C1530 C1528 1.348 . S
C1530 C1532 1.353 . S
C1530 H1572 0.929 . S
C1531 C1528 1.356 . S
C1531 C1533 1.358 . S
C1531 H1573 0.930 . S
C1532 N1529 1.314 . S
C1532 C1530 1.353 . S
C1532 H1574 0.930 . S
C1533 N1529 1.279 . S
C1533 C1531 1.358 . S
C1533 H1575 0.930 . S
C1534 C1535 1.348 1_655 S
C1534 C1536 1.356 . S
C1534 O1559 1.325 . S
C1535 C1534 1.348 1_455 S
C1535 C1537 1.353 . S
C1535 H1576 0.929 . S
C1536 C1534 1.356 . S
C1536 C1538 1.358 . S
C1536 H1577 0.930 . S
C1537 C1535 1.353 . S
C1537 N1539 1.314 . S
C1537 H1578 0.930 . S
C1538 C1536 1.358 . S
C1538 N1539 1.279 1_655 S
C1538 H1579 0.930 . S
N1539 C1537 1.314 . S
N1539 C1538 1.279 1_455 S
C1540 C1542 1.353 . S
C1540 N1543 1.314 . S
C1540 H1546 0.930 . S
C1541 N1543 1.279 . S
C1541 C1544 1.358 . S
C1541 H1547 0.930 . S
C1542 C1540 1.353 . S
C1542 C1545 1.348 . S
C1542 H1580 0.929 . S
N1543 Li1498 1.997 . S
N1543 C1540 1.314 . S
N1543 C1541 1.279 . S
C1544 C1541 1.358 . S
C1544 C1545 1.356 . S
C1544 H1581 0.930 . S
C1545 C1542 1.348 . S
C1545 C1544 1.356 . S
H1546 C1540 0.930 . S
H1547 C1541 0.930 . S
C1548 N1549 1.314 . S
C1548 C1550 1.353 . S
C1548 H1554 0.930 . S
N1549 Li1499 1.990 . S
N1549 C1548 1.314 . S
N1549 C1552 1.279 . S
C1550 C1548 1.353 . S
C1550 C1553 1.348 . S
C1550 H1582 0.929 . S
C1551 C1552 1.358 . S
C1551 C1553 1.356 . S
C1551 H1583 0.930 . S
C1552 N1549 1.279 . S
C1552 C1551 1.358 . S
C1552 H1555 0.930 . S
C1553 C1550 1.348 . S
C1553 C1551 1.356 . S
H1554 C1548 0.930 . S
H1555 C1552 0.930 . S
O1556 Li1496 1.956 . S
O1556 Li1497 1.970 . S
O1556 Li1498 1.961 1_655 S
O1556 C1500 1.325 1_655 S
O1557 Li1496 1.970 . S
O1557 Li1497 1.956 . S
O1557 Li1499 1.961 . S
O1557 C1506 1.325 . S
O1558 Li1496 1.961 . S
O1558 Li1498 1.945 1_655 S
O1558 Li1499 1.970 . S
O1558 C1528 1.325 . S
O1559 Li1497 1.961 . S
O1559 Li1498 1.971 1_655 S
O1559 Li1499 1.956 . S
O1559 C1534 1.325 . S
H1560 C1502 0.928 . S
H1561 C1503 0.930 . S
H1562 C1504 0.930 . S
H1563 C1505 0.930 . S
H1564 C1507 0.930 . S
H1565 C1509 0.929 . S
H1566 C1510 0.930 . S
H1567 C1511 0.930 . S
H1568 C1514 0.930 . S
H1569 C1517 0.929 . S
H1570 C1522 0.929 1_455 S
H1571 C1523 0.930 . S
H1572 C1530 0.929 . S
H1573 C1531 0.930 . S
H1574 C1532 0.930 . S
H1575 C1533 0.930 . S
H1576 C1535 0.929 . S
H1577 C1536 0.930 . S
H1578 C1537 0.930 . S
H1579 C1538 0.930 . S
H1580 C1542 0.929 . S
H1581 C1544 0.930 . S
H1582 C1550 0.929 . S
H1583 C1551 0.930 . S
H1584 C1603 0.949 . S
H1585 C1604 0.950 . S
H1586 C1606 0.950 . S
H1587 C1607 0.950 . S
H1588 C1609 0.950 . S
H1589 C1612 0.950 . S
H1590 C1613 0.950 . S
H1591 C1615 0.951 . S
H1592 C1616 0.949 . S
H1593 C1618 0.949 . S
H1594 C1619 0.950 . S
H1595 C1621 0.950 . S
H1596 C1622 0.950 . S
H1597 C1624 0.950 . S
H1598 C1627 0.950 . S
H1599 C1628 0.950 . S
H1600 C1630 0.951 . S
H1601 C1631 0.949 . S
C1602 C1603 1.376 . S
C1602 C1607 1.386 . S
C1602 C1608 1.483 . S
C1603 H1584 0.949 . S
C1603 C1602 1.376 . S
C1603 C1604 1.397 . S
C1604 H1585 0.950 . S
C1604 C1603 1.397 . S
C1604 C1605 1.391 . S
C1605 C1604 1.391 . S
C1605 C1606 1.405 . S
C1606 H1586 0.950 . S
C1606 C1605 1.405 . S
C1606 C1607 1.367 . S
C1607 H1587 0.950 . S
C1607 C1602 1.386 . S
C1607 C1606 1.367 . S
C1608 C1602 1.483 . S
C1608 C1609 1.382 . S
C1608 C1610 1.403 . S
C1609 H1588 0.950 . S
C1609 C1608 1.382 . S
C1609 C1625 1.411 . S
C1610 C1608 1.403 . S
C1610 C1611 1.489 . S
C1610 C1624 1.411 . S
C1611 C1610 1.489 . S
C1611 C1612 1.383 . S
C1611 C1616 1.382 . S
C1612 H1589 0.950 . S
C1612 C1611 1.383 . S
C1612 C1613 1.395 . S
C1613 H1590 0.950 . S
C1613 C1612 1.395 . S
C1613 C1614 1.288 . S
C1614 C1613 1.288 . S
C1614 C1615 1.392 . S
C1615 H1591 0.951 . S
C1615 C1614 1.392 . S
C1615 C1616 1.392 . S
C1616 H1592 0.949 . S
C1616 C1611 1.382 . S
C1616 C1615 1.392 . S
C1617 C1618 1.376 . S
C1617 C1622 1.386 . S
C1617 C1623 1.483 . S
C1618 H1593 0.949 . S
C1618 C1617 1.376 . S
C1618 C1619 1.397 . S
C1619 H1594 0.950 . S
C1619 C1618 1.397 . S
C1619 C1620 1.391 . S
C1620 C1619 1.391 . S
C1620 C1621 1.405 . S
C1621 H1595 0.950 . S
C1621 C1620 1.405 . S
C1621 C1622 1.367 . S
C1622 H1596 0.950 . S
C1622 C1617 1.386 . S
C1622 C1621 1.367 . S
C1623 C1617 1.483 . S
C1623 C1624 1.382 . S
C1623 C1625 1.403 . S
C1624 H1597 0.950 . S
C1624 C1610 1.411 . S
C1624 C1623 1.382 . S
C1625 C1609 1.411 . S
C1625 C1623 1.403 . S
C1625 C1626 1.489 . S
C1626 C1625 1.489 . S
C1626 C1627 1.383 . S
C1626 C1631 1.382 . S
C1627 H1598 0.950 . S
C1627 C1626 1.383 . S
C1627 C1628 1.395 . S
C1628 H1599 0.950 . S
C1628 C1627 1.395 . S
C1628 C1629 1.288 . S
C1629 C1628 1.288 . S
C1629 C1630 1.392 . S
C1630 H1600 0.951 . S
C1630 C1629 1.392 . S
C1630 C1631 1.392 . S
C1631 H1601 0.949 . S
C1631 C1626 1.382 . S
C1631 C1630 1.392 . S
H1632 C1651 0.949 . S
H1633 C1652 0.950 . S
H1634 C1654 0.950 . S
H1635 C1655 0.950 . S
H1636 C1657 0.950 . S
H1637 C1660 0.950 . S
H1638 C1661 0.950 . S
H1639 C1663 0.951 . S
H1640 C1664 0.949 . S
H1641 C1666 0.949 . S
H1642 C1667 0.950 . S
H1643 C1669 0.950 . S
H1644 C1670 0.950 . S
H1645 C1672 0.950 . S
H1646 C1675 0.950 . S
H1647 C1676 0.950 . S
H1648 C1678 0.951 . S
H1649 C1679 0.949 . S
C1650 C1651 1.376 . S
C1650 C1655 1.386 . S
C1650 C1656 1.483 . S
C1651 H1632 0.949 . S
C1651 C1650 1.376 . S
C1651 C1652 1.397 . S
C1652 H1633 0.950 . S
C1652 C1651 1.397 . S
C1652 C1653 1.391 . S
C1653 C1652 1.391 . S
C1653 C1654 1.405 . S
C1654 H1634 0.950 . S
C1654 C1653 1.405 . S
C1654 C1655 1.367 . S
C1655 H1635 0.950 . S
C1655 C1650 1.386 . S
C1655 C1654 1.367 . S
C1656 C1650 1.483 . S
C1656 C1657 1.382 . S
C1656 C1658 1.403 . S
C1657 H1636 0.950 . S
C1657 C1656 1.382 . S
C1657 C1673 1.411 . S
C1658 C1656 1.403 . S
C1658 C1659 1.489 . S
C1658 C1672 1.411 . S
C1659 C1658 1.489 . S
C1659 C1660 1.383 . S
C1659 C1664 1.382 . S
C1660 H1637 0.950 . S
C1660 C1659 1.383 . S
C1660 C1661 1.395 . S
C1661 H1638 0.950 . S
C1661 C1660 1.395 . S
C1661 C1662 1.288 . S
C1662 C1661 1.288 . S
C1662 C1663 1.392 . S
C1663 H1639 0.951 . S
C1663 C1662 1.392 . S
C1663 C1664 1.392 . S
C1664 H1640 0.949 . S
C1664 C1659 1.382 . S
C1664 C1663 1.392 . S
C1665 C1666 1.376 . S
C1665 C1670 1.386 . S
C1665 C1671 1.483 . S
C1666 H1641 0.949 . S
C1666 C1665 1.376 . S
C1666 C1667 1.397 . S
C1667 H1642 0.950 . S
C1667 C1666 1.397 . S
C1667 C1668 1.391 . S
C1668 C1667 1.391 . S
C1668 C1669 1.405 . S
C1669 H1643 0.950 . S
C1669 C1668 1.405 . S
C1669 C1670 1.367 . S
C1670 H1644 0.950 . S
C1670 C1665 1.386 . S
C1670 C1669 1.367 . S
C1671 C1665 1.483 . S
C1671 C1672 1.382 . S
C1671 C1673 1.403 . S
C1672 H1645 0.950 . S
C1672 C1658 1.411 . S
C1672 C1671 1.382 . S
C1673 C1657 1.411 . S
C1673 C1671 1.403 . S
C1673 C1674 1.489 . S
C1674 C1673 1.489 . S
C1674 C1675 1.383 . S
C1674 C1679 1.382 . S
C1675 H1646 0.950 . S
C1675 C1674 1.383 . S
C1675 C1676 1.395 . S
C1676 H1647 0.950 . S
C1676 C1675 1.395 . S
C1676 C1677 1.288 . S
C1677 C1676 1.288 . S
C1677 C1678 1.392 . S
C1678 H1648 0.951 . S
C1678 C1677 1.392 . S
C1678 C1679 1.392 . S
C1679 H1649 0.949 . S
C1679 C1674 1.382 . S
C1679 C1678 1.392 . S
H1680 C1699 0.949 . S
H1681 C1700 0.950 . S
H1682 C1702 0.950 . S
H1683 C1703 0.950 . S
H1684 C1705 0.950 . S
H1685 C1708 0.950 . S
H1686 C1709 0.950 . S
H1687 C1711 0.951 . S
H1688 C1712 0.949 . S
H1689 C1714 0.949 . S
H1690 C1715 0.950 . S
H1691 C1717 0.950 . S
H1692 C1718 0.950 . S
H1693 C1720 0.950 . S
H1694 C1723 0.950 . S
H1695 C1724 0.950 . S
H1696 C1726 0.951 . S
H1697 C1727 0.949 . S
C1698 C1699 1.376 . S
C1698 C1703 1.386 . S
C1698 C1704 1.483 . S
C1699 H1680 0.949 . S
C1699 C1698 1.376 . S
C1699 C1700 1.397 . S
C1700 H1681 0.950 . S
C1700 C1699 1.397 . S
C1700 C1701 1.391 . S
C1701 C1700 1.391 . S
C1701 C1702 1.405 . S
C1702 H1682 0.950 . S
C1702 C1701 1.405 . S
C1702 C1703 1.367 . S
C1703 H1683 0.950 . S
C1703 C1698 1.386 . S
C1703 C1702 1.367 . S
C1704 C1698 1.483 . S
C1704 C1705 1.382 . S
C1704 C1706 1.403 . S
C1705 H1684 0.950 . S
C1705 C1704 1.382 . S
C1705 C1721 1.411 . S
C1706 C1704 1.403 . S
C1706 C1707 1.489 . S
C1706 C1720 1.411 . S
C1707 C1706 1.489 . S
C1707 C1708 1.383 . S
C1707 C1712 1.382 . S
C1708 H1685 0.950 . S
C1708 C1707 1.383 . S
C1708 C1709 1.395 . S
C1709 H1686 0.950 . S
C1709 C1708 1.395 . S
C1709 C1710 1.288 . S
C1710 C1709 1.288 . S
C1710 C1711 1.392 . S
C1711 H1687 0.951 . S
C1711 C1710 1.392 . S
C1711 C1712 1.392 . S
C1712 H1688 0.949 . S
C1712 C1707 1.382 . S
C1712 C1711 1.392 . S
C1713 C1714 1.376 . S
C1713 C1718 1.386 . S
C1713 C1719 1.483 . S
C1714 H1689 0.949 . S
C1714 C1713 1.376 . S
C1714 C1715 1.397 . S
C1715 H1690 0.950 . S
C1715 C1714 1.397 . S
C1715 C1716 1.391 . S
C1716 C1715 1.391 . S
C1716 C1717 1.405 . S
C1717 H1691 0.950 . S
C1717 C1716 1.405 . S
C1717 C1718 1.367 . S
C1718 H1692 0.950 . S
C1718 C1713 1.386 . S
C1718 C1717 1.367 . S
C1719 C1713 1.483 . S
C1719 C1720 1.382 . S
C1719 C1721 1.403 . S
C1720 H1693 0.950 . S
C1720 C1706 1.411 . S
C1720 C1719 1.382 . S
C1721 C1705 1.411 . S
C1721 C1719 1.403 . S
C1721 C1722 1.489 . S
C1722 C1721 1.489 . S
C1722 C1723 1.383 . S
C1722 C1727 1.382 . S
C1723 H1694 0.950 . S
C1723 C1722 1.383 . S
C1723 C1724 1.395 . S
C1724 H1695 0.950 . S
C1724 C1723 1.395 . S
C1724 C1725 1.288 . S
C1725 C1724 1.288 . S
C1725 C1726 1.392 . S
C1726 H1696 0.951 . S
C1726 C1725 1.392 . S
C1726 C1727 1.392 . S
C1727 H1697 0.949 . S
C1727 C1722 1.382 . S
C1727 C1726 1.392 . S
H1728 C1747 0.949 . S
H1729 C1748 0.950 . S
H1730 C1750 0.950 . S
H1731 C1751 0.950 . S
H1732 C1753 0.950 . S
H1733 C1756 0.950 . S
H1734 C1757 0.950 . S
H1735 C1759 0.951 . S
H1736 C1760 0.949 . S
H1737 C1762 0.949 . S
H1738 C1763 0.950 . S
H1739 C1765 0.950 . S
H1740 C1766 0.950 . S
H1741 C1768 0.950 . S
H1742 C1771 0.950 . S
H1743 C1772 0.950 . S
H1744 C1774 0.951 . S
H1745 C1775 0.949 . S
C1746 C1747 1.376 . S
C1746 C1751 1.386 . S
C1746 C1752 1.483 . S
C1747 H1728 0.949 . S
C1747 C1746 1.376 . S
C1747 C1748 1.397 . S
C1748 H1729 0.950 . S
C1748 C1747 1.397 . S
C1748 C1749 1.391 . S
C1749 C1748 1.391 . S
C1749 C1750 1.405 . S
C1750 H1730 0.950 . S
C1750 C1749 1.405 . S
C1750 C1751 1.367 . S
C1751 H1731 0.950 . S
C1751 C1746 1.386 . S
C1751 C1750 1.367 . S
C1752 C1746 1.483 . S
C1752 C1753 1.382 . S
C1752 C1754 1.403 . S
C1753 H1732 0.950 . S
C1753 C1752 1.382 . S
C1753 C1769 1.411 . S
C1754 C1752 1.403 . S
C1754 C1755 1.489 . S
C1754 C1768 1.411 . S
C1755 C1754 1.489 . S
C1755 C1756 1.383 . S
C1755 C1760 1.382 . S
C1756 H1733 0.950 . S
C1756 C1755 1.383 . S
C1756 C1757 1.395 . S
C1757 H1734 0.950 . S
C1757 C1756 1.395 . S
C1757 C1758 1.288 . S
C1758 C1757 1.288 . S
C1758 C1759 1.392 . S
C1759 H1735 0.951 . S
C1759 C1758 1.392 . S
C1759 C1760 1.392 . S
C1760 H1736 0.949 . S
C1760 C1755 1.382 . S
C1760 C1759 1.392 . S
C1761 C1762 1.376 . S
C1761 C1766 1.386 . S
C1761 C1767 1.483 . S
C1762 H1737 0.949 . S
C1762 C1761 1.376 . S
C1762 C1763 1.397 . S
C1763 H1738 0.950 . S
C1763 C1762 1.397 . S
C1763 C1764 1.391 . S
C1764 C1763 1.391 . S
C1764 C1765 1.405 . S
C1765 H1739 0.950 . S
C1765 C1764 1.405 . S
C1765 C1766 1.367 . S
C1766 H1740 0.950 . S
C1766 C1761 1.386 . S
C1766 C1765 1.367 . S
C1767 C1761 1.483 . S
C1767 C1768 1.382 . S
C1767 C1769 1.403 . S
C1768 H1741 0.950 . S
C1768 C1754 1.411 . S
C1768 C1767 1.382 . S
C1769 C1753 1.411 . S
C1769 C1767 1.403 . S
C1769 C1770 1.489 . S
C1770 C1769 1.489 . S
C1770 C1771 1.383 . S
C1770 C1775 1.382 . S
C1771 H1742 0.950 . S
C1771 C1770 1.383 . S
C1771 C1772 1.395 . S
C1772 H1743 0.950 . S
C1772 C1771 1.395 . S
C1772 C1773 1.288 . S
C1773 C1772 1.288 . S
C1773 C1774 1.392 . S
C1774 H1744 0.951 . S
C1774 C1773 1.392 . S
C1774 C1775 1.392 . S
C1775 H1745 0.949 . S
C1775 C1770 1.382 . S
C1775 C1774 1.392 . S
H1776 C1795 0.949 . S
H1777 C1796 0.950 . S
H1778 C1798 0.950 . S
H1779 C1799 0.950 . S
H1780 C1801 0.950 . S
H1781 C1804 0.950 . S
H1782 C1805 0.950 . S
H1783 C1807 0.951 . S
H1784 C1808 0.949 . S
H1785 C1810 0.949 . S
H1786 C1811 0.950 . S
H1787 C1813 0.950 . S
H1788 C1814 0.950 . S
H1789 C1816 0.950 . S
H1790 C1819 0.950 . S
H1791 C1820 0.950 . S
H1792 C1822 0.951 . S
H1793 C1823 0.949 . S
C1794 C1795 1.376 . S
C1794 C1799 1.386 . S
C1794 C1800 1.483 . S
C1795 H1776 0.949 . S
C1795 C1794 1.376 . S
C1795 C1796 1.397 . S
C1796 H1777 0.950 . S
C1796 C1795 1.397 . S
C1796 C1797 1.391 . S
C1797 C1796 1.391 . S
C1797 C1798 1.405 . S
C1798 H1778 0.950 . S
C1798 C1797 1.405 . S
C1798 C1799 1.367 . S
C1799 H1779 0.950 . S
C1799 C1794 1.386 . S
C1799 C1798 1.367 . S
C1800 C1794 1.483 . S
C1800 C1801 1.382 . S
C1800 C1802 1.403 . S
C1801 H1780 0.950 . S
C1801 C1800 1.382 . S
C1801 C1817 1.411 . S
C1802 C1800 1.403 . S
C1802 C1803 1.489 . S
C1802 C1816 1.411 . S
C1803 C1802 1.489 . S
C1803 C1804 1.383 . S
C1803 C1808 1.382 . S
C1804 H1781 0.950 . S
C1804 C1803 1.383 . S
C1804 C1805 1.395 . S
C1805 H1782 0.950 . S
C1805 C1804 1.395 . S
C1805 C1806 1.288 . S
C1806 C1805 1.288 . S
C1806 C1807 1.392 . S
C1807 H1783 0.951 . S
C1807 C1806 1.392 . S
C1807 C1808 1.392 . S
C1808 H1784 0.949 . S
C1808 C1803 1.382 . S
C1808 C1807 1.392 . S
C1809 C1810 1.376 . S
C1809 C1814 1.386 . S
C1809 C1815 1.483 . S
C1810 H1785 0.949 . S
C1810 C1809 1.376 . S
C1810 C1811 1.397 . S
C1811 H1786 0.950 . S
C1811 C1810 1.397 . S
C1811 C1812 1.391 . S
C1812 C1811 1.391 . S
C1812 C1813 1.405 . S
C1813 H1787 0.950 . S
C1813 C1812 1.405 . S
C1813 C1814 1.367 . S
C1814 H1788 0.950 . S
C1814 C1809 1.386 . S
C1814 C1813 1.367 . S
C1815 C1809 1.483 . S
C1815 C1816 1.382 . S
C1815 C1817 1.403 . S
C1816 H1789 0.950 . S
C1816 C1802 1.411 . S
C1816 C1815 1.382 . S
C1817 C1801 1.411 . S
C1817 C1815 1.403 . S
C1817 C1818 1.489 . S
C1818 C1817 1.489 . S
C1818 C1819 1.383 . S
C1818 C1823 1.382 . S
C1819 H1790 0.950 . S
C1819 C1818 1.383 . S
C1819 C1820 1.395 . S
C1820 H1791 0.950 . S
C1820 C1819 1.395 . S
C1820 C1821 1.288 . S
C1821 C1820 1.288 . S
C1821 C1822 1.392 . S
C1822 H1792 0.951 . S
C1822 C1821 1.392 . S
C1822 C1823 1.392 . S
C1823 H1793 0.949 . S
C1823 C1818 1.382 . S
C1823 C1822 1.392 . S
H1824 C1843 0.949 . S
H1825 C1844 0.950 . S
H1826 C1846 0.950 . S
H1827 C1847 0.950 . S
H1828 C1849 0.950 . S
H1829 C1852 0.950 . S
H1830 C1853 0.950 . S
H1831 C1855 0.951 . S
H1832 C1856 0.949 . S
H1833 C1858 0.949 . S
H1834 C1859 0.950 . S
H1835 C1861 0.950 . S
H1836 C1862 0.950 . S
H1837 C1864 0.950 . S
H1838 C1867 0.950 . S
H1839 C1868 0.950 . S
H1840 C1870 0.951 . S
H1841 C1871 0.949 . S
C1842 C1843 1.376 . S
C1842 C1847 1.386 . S
C1842 C1848 1.483 . S
C1843 H1824 0.949 . S
C1843 C1842 1.376 . S
C1843 C1844 1.397 . S
C1844 H1825 0.950 . S
C1844 C1843 1.397 . S
C1844 C1845 1.391 . S
C1845 C1844 1.391 . S
C1845 C1846 1.405 . S
C1846 H1826 0.950 . S
C1846 C1845 1.405 . S
C1846 C1847 1.367 . S
C1847 H1827 0.950 . S
C1847 C1842 1.386 . S
C1847 C1846 1.367 . S
C1848 C1842 1.483 . S
C1848 C1849 1.382 . S
C1848 C1850 1.403 . S
C1849 H1828 0.950 . S
C1849 C1848 1.382 . S
C1849 C1865 1.411 . S
C1850 C1848 1.403 . S
C1850 C1851 1.489 . S
C1850 C1864 1.411 . S
C1851 C1850 1.489 . S
C1851 C1852 1.383 . S
C1851 C1856 1.382 . S
C1852 H1829 0.950 . S
C1852 C1851 1.383 . S
C1852 C1853 1.395 . S
C1853 H1830 0.950 . S
C1853 C1852 1.395 . S
C1853 C1854 1.288 . S
C1854 C1853 1.288 . S
C1854 C1855 1.392 . S
C1855 H1831 0.951 . S
C1855 C1854 1.392 . S
C1855 C1856 1.392 . S
C1856 H1832 0.949 . S
C1856 C1851 1.382 . S
C1856 C1855 1.392 . S
C1857 C1858 1.376 . S
C1857 C1862 1.386 . S
C1857 C1863 1.483 . S
C1858 H1833 0.949 . S
C1858 C1857 1.376 . S
C1858 C1859 1.397 . S
C1859 H1834 0.950 . S
C1859 C1858 1.397 . S
C1859 C1860 1.391 . S
C1860 C1859 1.391 . S
C1860 C1861 1.405 . S
C1861 H1835 0.950 . S
C1861 C1860 1.405 . S
C1861 C1862 1.367 . S
C1862 H1836 0.950 . S
C1862 C1857 1.386 . S
C1862 C1861 1.367 . S
C1863 C1857 1.483 . S
C1863 C1864 1.382 . S
C1863 C1865 1.403 . S
C1864 H1837 0.950 . S
C1864 C1850 1.411 . S
C1864 C1863 1.382 . S
C1865 C1849 1.411 . S
C1865 C1863 1.403 . S
C1865 C1866 1.489 . S
C1866 C1865 1.489 . S
C1866 C1867 1.383 . S
C1866 C1871 1.382 . S
C1867 H1838 0.950 . S
C1867 C1866 1.383 . S
C1867 C1868 1.395 . S
C1868 H1839 0.950 . S
C1868 C1867 1.395 . S
C1868 C1869 1.288 . S
C1869 C1868 1.288 . S
C1869 C1870 1.392 . S
C1870 H1840 0.951 . S
C1870 C1869 1.392 . S
C1870 C1871 1.392 . S
C1871 H1841 0.949 . S
C1871 C1866 1.382 . S
C1871 C1870 1.392 . S
H1872 C1891 0.949 . S
H1873 C1892 0.950 . S
H1874 C1894 0.950 . S
H1875 C1895 0.950 . S
H1876 C1897 0.950 . S
H1877 C1900 0.950 . S
H1878 C1901 0.950 . S
H1879 C1903 0.951 . S
H1880 C1904 0.949 . S
H1881 C1906 0.949 . S
H1882 C1907 0.950 . S
H1883 C1909 0.950 . S
H1884 C1910 0.950 . S
H1885 C1912 0.950 . S
H1886 C1915 0.950 . S
H1887 C1916 0.950 . S
H1888 C1918 0.951 . S
H1889 C1919 0.949 . S
C1890 C1891 1.376 . S
C1890 C1895 1.386 . S
C1890 C1896 1.483 . S
C1891 H1872 0.949 . S
C1891 C1890 1.376 . S
C1891 C1892 1.397 . S
C1892 H1873 0.950 . S
C1892 C1891 1.397 . S
C1892 C1893 1.391 . S
C1893 C1892 1.391 . S
C1893 C1894 1.405 . S
C1894 H1874 0.950 . S
C1894 C1893 1.405 . S
C1894 C1895 1.367 . S
C1895 H1875 0.950 . S
C1895 C1890 1.386 . S
C1895 C1894 1.367 . S
C1896 C1890 1.483 . S
C1896 C1897 1.382 . S
C1896 C1898 1.403 . S
C1897 H1876 0.950 . S
C1897 C1896 1.382 . S
C1897 C1913 1.411 . S
C1898 C1896 1.403 . S
C1898 C1899 1.489 . S
C1898 C1912 1.411 . S
C1899 C1898 1.489 . S
C1899 C1900 1.383 . S
C1899 C1904 1.382 . S
C1900 H1877 0.950 . S
C1900 C1899 1.383 . S
C1900 C1901 1.395 . S
C1901 H1878 0.950 . S
C1901 C1900 1.395 . S
C1901 C1902 1.288 . S
C1902 C1901 1.288 . S
C1902 C1903 1.392 . S
C1903 H1879 0.951 . S
C1903 C1902 1.392 . S
C1903 C1904 1.392 . S
C1904 H1880 0.949 . S
C1904 C1899 1.382 . S
C1904 C1903 1.392 . S
C1905 C1906 1.376 . S
C1905 C1910 1.386 . S
C1905 C1911 1.483 . S
C1906 H1881 0.949 . S
C1906 C1905 1.376 . S
C1906 C1907 1.397 . S
C1907 H1882 0.950 . S
C1907 C1906 1.397 . S
C1907 C1908 1.391 . S
C1908 C1907 1.391 . S
C1908 C1909 1.405 . S
C1909 H1883 0.950 . S
C1909 C1908 1.405 . S
C1909 C1910 1.367 . S
C1910 H1884 0.950 . S
C1910 C1905 1.386 . S
C1910 C1909 1.367 . S
C1911 C1905 1.483 . S
C1911 C1912 1.382 . S
C1911 C1913 1.403 . S
C1912 H1885 0.950 . S
C1912 C1898 1.411 . S
C1912 C1911 1.382 . S
C1913 C1897 1.411 . S
C1913 C1911 1.403 . S
C1913 C1914 1.489 . S
C1914 C1913 1.489 . S
C1914 C1915 1.383 . S
C1914 C1919 1.382 . S
C1915 H1886 0.950 . S
C1915 C1914 1.383 . S
C1915 C1916 1.395 . S
C1916 H1887 0.950 . S
C1916 C1915 1.395 . S
C1916 C1917 1.288 . S
C1917 C1916 1.288 . S
C1917 C1918 1.392 . S
C1918 H1888 0.951 . S
C1918 C1917 1.392 . S
C1918 C1919 1.392 . S
C1919 H1889 0.949 . S
C1919 C1914 1.382 . S
C1919 C1918 1.392 . S
H1920 C1939 0.949 . S
H1921 C1940 0.950 . S
H1922 C1942 0.950 . S
H1923 C1943 0.950 . S
H1924 C1945 0.950 . S
H1925 C1948 0.950 . S
H1926 C1949 0.950 . S
H1927 C1951 0.951 . S
H1928 C1952 0.949 . S
H1929 C1954 0.949 . S
H1930 C1955 0.950 . S
H1931 C1957 0.950 . S
H1932 C1958 0.950 . S
H1933 C1960 0.950 . S
H1934 C1963 0.950 . S
H1935 C1964 0.950 . S
H1936 C1966 0.951 . S
H1937 C1967 0.949 . S
C1938 C1939 1.376 . S
C1938 C1943 1.386 . S
C1938 C1944 1.483 . S
C1939 H1920 0.949 . S
C1939 C1938 1.376 . S
C1939 C1940 1.397 . S
C1940 H1921 0.950 . S
C1940 C1939 1.397 . S
C1940 C1941 1.391 . S
C1941 C1940 1.391 . S
C1941 C1942 1.405 . S
C1942 H1922 0.950 . S
C1942 C1941 1.405 . S
C1942 C1943 1.367 . S
C1943 H1923 0.950 . S
C1943 C1938 1.386 . S
C1943 C1942 1.367 . S
C1944 C1938 1.483 . S
C1944 C1945 1.382 . S
C1944 C1946 1.403 . S
C1945 H1924 0.950 . S
C1945 C1944 1.382 . S
C1945 C1961 1.411 . S
C1946 C1944 1.403 . S
C1946 C1947 1.489 . S
C1946 C1960 1.411 . S
C1947 C1946 1.489 . S
C1947 C1948 1.383 . S
C1947 C1952 1.382 . S
C1948 H1925 0.950 . S
C1948 C1947 1.383 . S
C1948 C1949 1.395 . S
C1949 H1926 0.950 . S
C1949 C1948 1.395 . S
C1949 C1950 1.288 . S
C1950 C1949 1.288 . S
C1950 C1951 1.392 . S
C1951 H1927 0.951 . S
C1951 C1950 1.392 . S
C1951 C1952 1.392 . S
C1952 H1928 0.949 . S
C1952 C1947 1.382 . S
C1952 C1951 1.392 . S
C1953 C1954 1.376 . S
C1953 C1958 1.386 . S
C1953 C1959 1.483 . S
C1954 H1929 0.949 . S
C1954 C1953 1.376 . S
C1954 C1955 1.397 . S
C1955 H1930 0.950 . S
C1955 C1954 1.397 . S
C1955 C1956 1.391 . S
C1956 C1955 1.391 . S
C1956 C1957 1.405 . S
C1957 H1931 0.950 . S
C1957 C1956 1.405 . S
C1957 C1958 1.367 . S
C1958 H1932 0.950 . S
C1958 C1953 1.386 . S
C1958 C1957 1.367 . S
C1959 C1953 1.483 . S
C1959 C1960 1.382 . S
C1959 C1961 1.403 . S
C1960 H1933 0.950 . S
C1960 C1946 1.411 . S
C1960 C1959 1.382 . S
C1961 C1945 1.411 . S
C1961 C1959 1.403 . S
C1961 C1962 1.489 . S
C1962 C1961 1.489 . S
C1962 C1963 1.383 . S
C1962 C1967 1.382 . S
C1963 H1934 0.950 . S
C1963 C1962 1.383 . S
C1963 C1964 1.395 . S
C1964 H1935 0.950 . S
C1964 C1963 1.395 . S
C1964 C1965 1.288 . S
C1965 C1964 1.288 . S
C1965 C1966 1.392 . S
C1966 H1936 0.951 . S
C1966 C1965 1.392 . S
C1966 C1967 1.392 . S
C1967 H1937 0.949 . S
C1967 C1962 1.382 . S
C1967 C1966 1.392 . S
H1968 C1987 0.949 . S
H1969 C1988 0.950 . S
H1970 C1990 0.950 . S
H1971 C1991 0.950 . S
H1972 C1993 0.950 . S
H1973 C1996 0.950 . S
H1974 C1997 0.950 . S
H1975 C1999 0.951 . S
H1976 C2000 0.949 . S
H1977 C2002 0.949 . S
H1978 C2003 0.950 . S
H1979 C2005 0.950 . S
H1980 C2006 0.950 . S
H1981 C2008 0.950 . S
H1982 C2011 0.950 . S
H1983 C2012 0.950 . S
H1984 C2014 0.951 . S
H1985 C2015 0.949 . S
C1986 C1987 1.376 . S
C1986 C1991 1.386 . S
C1986 C1992 1.483 . S
C1987 H1968 0.949 . S
C1987 C1986 1.376 . S
C1987 C1988 1.397 . S
C1988 H1969 0.950 . S
C1988 C1987 1.397 . S
C1988 C1989 1.391 . S
C1989 C1988 1.391 . S
C1989 C1990 1.405 . S
C1990 H1970 0.950 . S
C1990 C1989 1.405 . S
C1990 C1991 1.367 . S
C1991 H1971 0.950 . S
C1991 C1986 1.386 . S
C1991 C1990 1.367 . S
C1992 C1986 1.483 . S
C1992 C1993 1.382 . S
C1992 C1994 1.403 . S
C1993 H1972 0.950 . S
C1993 C1992 1.382 . S
C1993 C2009 1.411 . S
C1994 C1992 1.403 . S
C1994 C1995 1.489 . S
C1994 C2008 1.411 . S
C1995 C1994 1.489 . S
C1995 C1996 1.383 . S
C1995 C2000 1.382 . S
C1996 H1973 0.950 . S
C1996 C1995 1.383 . S
C1996 C1997 1.395 . S
C1997 H1974 0.950 . S
C1997 C1996 1.395 . S
C1997 C1998 1.288 . S
C1998 C1997 1.288 . S
C1998 C1999 1.392 . S
C1999 H1975 0.951 . S
C1999 C1998 1.392 . S
C1999 C2000 1.392 . S
C2000 H1976 0.949 . S
C2000 C1995 1.382 . S
C2000 C1999 1.392 . S
C2001 C2002 1.376 . S
C2001 C2006 1.386 . S
C2001 C2007 1.483 . S
C2002 H1977 0.949 . S
C2002 C2001 1.376 . S
C2002 C2003 1.397 . S
C2003 H1978 0.950 . S
C2003 C2002 1.397 . S
C2003 C2004 1.391 . S
C2004 C2003 1.391 . S
C2004 C2005 1.405 . S
C2005 H1979 0.950 . S
C2005 C2004 1.405 . S
C2005 C2006 1.367 . S
C2006 H1980 0.950 . S
C2006 C2001 1.386 . S
C2006 C2005 1.367 . S
C2007 C2001 1.483 . S
C2007 C2008 1.382 . S
C2007 C2009 1.403 . S
C2008 H1981 0.950 . S
C2008 C1994 1.411 . S
C2008 C2007 1.382 . S
C2009 C1993 1.411 . S
C2009 C2007 1.403 . S
C2009 C2010 1.489 . S
C2010 C2009 1.489 . S
C2010 C2011 1.383 . S
C2010 C2015 1.382 . S
C2011 H1982 0.950 . S
C2011 C2010 1.383 . S
C2011 C2012 1.395 . S
C2012 H1983 0.950 . S
C2012 C2011 1.395 . S
C2012 C2013 1.288 . S
C2013 C2012 1.288 . S
C2013 C2014 1.392 . S
C2014 H1984 0.951 . S
C2014 C2013 1.392 . S
C2014 C2015 1.392 . S
C2015 H1985 0.949 . S
C2015 C2010 1.382 . S
C2015 C2014 1.392 . S
H2016 C2035 0.949 . S
H2017 C2036 0.950 . S
H2018 C2038 0.950 . S
H2019 C2039 0.950 . S
H2020 C2041 0.950 . S
H2021 C2044 0.950 . S
H2022 C2045 0.950 . S
H2023 C2047 0.951 . S
H2024 C2048 0.949 . S
H2025 C2050 0.949 . S
H2026 C2051 0.950 . S
H2027 C2053 0.950 . S
H2028 C2054 0.950 . S
H2029 C2056 0.950 . S
H2030 C2059 0.950 . S
H2031 C2060 0.950 . S
H2032 C2062 0.951 . S
H2033 C2063 0.949 . S
C2034 C2035 1.376 . S
C2034 C2039 1.386 1_655 S
C2034 C2040 1.483 . S
C2035 H2016 0.949 . S
C2035 C2034 1.376 . S
C2035 C2036 1.397 . S
C2036 H2017 0.950 . S
C2036 C2035 1.397 . S
C2036 C2037 1.391 . S
C2037 C2036 1.391 . S
C2037 C2038 1.405 1_655 S
C2038 H2018 0.950 . S
C2038 C2037 1.405 1_455 S
C2038 C2039 1.367 . S
C2039 H2019 0.950 . S
C2039 C2034 1.386 1_455 S
C2039 C2038 1.367 . S
C2040 C2034 1.483 . S
C2040 C2041 1.382 . S
C2040 C2042 1.403 1_655 S
C2041 H2020 0.950 . S
C2041 C2040 1.382 . S
C2041 C2057 1.411 . S
C2042 C2040 1.403 1_455 S
C2042 C2043 1.489 . S
C2042 C2056 1.411 . S
C2043 C2042 1.489 . S
C2043 C2044 1.383 1_455 S
C2043 C2048 1.382 . S
C2044 H2021 0.950 . S
C2044 C2043 1.383 1_655 S
C2044 C2045 1.395 . S
C2045 H2022 0.950 . S
C2045 C2044 1.395 . S
C2045 C2046 1.288 1_655 S
C2046 C2045 1.288 1_455 S
C2046 C2047 1.392 . S
C2047 H2023 0.951 . S
C2047 C2046 1.392 . S
C2047 C2048 1.392 . S
C2048 H2024 0.949 . S
C2048 C2043 1.382 . S
C2048 C2047 1.392 . S
C2049 C2050 1.376 . S
C2049 C2054 1.386 1_455 S
C2049 C2055 1.483 . S
C2050 H2025 0.949 . S
C2050 C2049 1.376 . S
C2050 C2051 1.397 . S
C2051 H2026 0.950 . S
C2051 C2050 1.397 . S
C2051 C2052 1.391 . S
C2052 C2051 1.391 . S
C2052 C2053 1.405 1_455 S
C2053 H2027 0.950 . S
C2053 C2052 1.405 1_655 S
C2053 C2054 1.367 . S
C2054 H2028 0.950 . S
C2054 C2049 1.386 1_655 S
C2054 C2053 1.367 . S
C2055 C2049 1.483 . S
C2055 C2056 1.382 . S
C2055 C2057 1.403 1_455 S
C2056 H2029 0.950 . S
C2056 C2042 1.411 . S
C2056 C2055 1.382 . S
C2057 C2041 1.411 . S
C2057 C2055 1.403 1_655 S
C2057 C2058 1.489 . S
C2058 C2057 1.489 . S
C2058 C2059 1.383 1_655 S
C2058 C2063 1.382 . S
C2059 H2030 0.950 . S
C2059 C2058 1.383 1_455 S
C2059 C2060 1.395 . S
C2060 H2031 0.950 . S
C2060 C2059 1.395 . S
C2060 C2061 1.288 1_455 S
C2061 C2060 1.288 1_655 S
C2061 C2062 1.392 . S
C2062 H2032 0.951 . S
C2062 C2061 1.392 . S
C2062 C2063 1.392 . S
C2063 H2033 0.949 . S
C2063 C2058 1.382 . S
C2063 C2062 1.392 . S
H2064 C2083 0.949 . S
H2065 C2084 0.950 . S
H2066 C2086 0.950 . S
H2067 C2087 0.950 . S
H2068 C2089 0.950 . S
H2069 C2092 0.950 . S
H2070 C2093 0.950 . S
H2071 C2095 0.951 . S
H2072 C2096 0.949 . S
H2073 C2098 0.949 . S
H2074 C2099 0.950 . S
H2075 C2101 0.950 . S
H2076 C2102 0.950 . S
H2077 C2104 0.950 . S
H2078 C2107 0.950 . S
H2079 C2108 0.950 . S
H2080 C2110 0.951 . S
H2081 C2111 0.949 . S
C2082 C2083 1.376 . S
C2082 C2087 1.386 . S
C2082 C2088 1.483 . S
C2083 H2064 0.949 . S
C2083 C2082 1.376 . S
C2083 C2084 1.397 . S
C2084 H2065 0.950 . S
C2084 C2083 1.397 . S
C2084 C2085 1.391 . S
C2085 C2084 1.391 . S
C2085 C2086 1.405 . S
C2086 H2066 0.950 . S
C2086 C2085 1.405 . S
C2086 C2087 1.367 . S
C2087 H2067 0.950 . S
C2087 C2082 1.386 . S
C2087 C2086 1.367 . S
C2088 C2082 1.483 . S
C2088 C2089 1.382 . S
C2088 C2090 1.403 . S
C2089 H2068 0.950 . S
C2089 C2088 1.382 . S
C2089 C2105 1.411 . S
C2090 C2088 1.403 . S
C2090 C2091 1.489 . S
C2090 C2104 1.411 . S
C2091 C2090 1.489 . S
C2091 C2092 1.383 . S
C2091 C2096 1.382 . S
C2092 H2069 0.950 . S
C2092 C2091 1.383 . S
C2092 C2093 1.395 . S
C2093 H2070 0.950 . S
C2093 C2092 1.395 . S
C2093 C2094 1.288 . S
C2094 C2093 1.288 . S
C2094 C2095 1.392 . S
C2095 H2071 0.951 . S
C2095 C2094 1.392 . S
C2095 C2096 1.392 . S
C2096 H2072 0.949 . S
C2096 C2091 1.382 . S
C2096 C2095 1.392 . S
C2097 C2098 1.376 . S
C2097 C2102 1.386 . S
C2097 C2103 1.483 . S
C2098 H2073 0.949 . S
C2098 C2097 1.376 . S
C2098 C2099 1.397 . S
C2099 H2074 0.950 . S
C2099 C2098 1.397 . S
C2099 C2100 1.391 . S
C2100 C2099 1.391 . S
C2100 C2101 1.405 . S
C2101 H2075 0.950 . S
C2101 C2100 1.405 . S
C2101 C2102 1.367 . S
C2102 H2076 0.950 . S
C2102 C2097 1.386 . S
C2102 C2101 1.367 . S
C2103 C2097 1.483 . S
C2103 C2104 1.382 . S
C2103 C2105 1.403 . S
C2104 H2077 0.950 . S
C2104 C2090 1.411 . S
C2104 C2103 1.382 . S
C2105 C2089 1.411 . S
C2105 C2103 1.403 . S
C2105 C2106 1.489 . S
C2106 C2105 1.489 . S
C2106 C2107 1.383 . S
C2106 C2111 1.382 . S
C2107 H2078 0.950 . S
C2107 C2106 1.383 . S
C2107 C2108 1.395 . S
C2108 H2079 0.950 . S
C2108 C2107 1.395 . S
C2108 C2109 1.288 . S
C2109 C2108 1.288 . S
C2109 C2110 1.392 . S
C2110 H2080 0.951 . S
C2110 C2109 1.392 . S
C2110 C2111 1.392 . S
C2111 H2081 0.949 . S
C2111 C2106 1.382 . S
C2111 C2110 1.392 . S
H2112 C2131 0.949 . S
H2113 C2132 0.950 . S
H2114 C2134 0.950 . S
H2115 C2135 0.950 . S
H2116 C2137 0.950 . S
H2117 C2140 0.950 . S
H2118 C2141 0.950 . S
H2119 C2143 0.951 . S
H2120 C2144 0.949 . S
H2121 C2146 0.949 . S
H2122 C2147 0.950 . S
H2123 C2149 0.950 . S
H2124 C2150 0.950 . S
H2125 C2152 0.950 . S
H2126 C2155 0.950 . S
H2127 C2156 0.950 . S
H2128 C2158 0.951 . S
H2129 C2159 0.949 . S
C2130 C2131 1.376 . S
C2130 C2135 1.386 1_545 S
C2130 C2136 1.483 . S
C2131 H2112 0.949 . S
C2131 C2130 1.376 . S
C2131 C2132 1.397 . S
C2132 H2113 0.950 . S
C2132 C2131 1.397 . S
C2132 C2133 1.391 . S
C2133 C2132 1.391 . S
C2133 C2134 1.405 1_545 S
C2134 H2114 0.950 . S
C2134 C2133 1.405 1_565 S
C2134 C2135 1.367 . S
C2135 H2115 0.950 . S
C2135 C2130 1.386 1_565 S
C2135 C2134 1.367 . S
C2136 C2130 1.483 . S
C2136 C2137 1.382 . S
C2136 C2138 1.403 1_545 S
C2137 H2116 0.950 . S
C2137 C2136 1.382 . S
C2137 C2153 1.411 . S
C2138 C2136 1.403 1_565 S
C2138 C2139 1.489 . S
C2138 C2152 1.411 . S
C2139 C2138 1.489 . S
C2139 C2140 1.383 1_565 S
C2139 C2144 1.382 . S
C2140 H2117 0.950 . S
C2140 C2139 1.383 1_545 S
C2140 C2141 1.395 . S
C2141 H2118 0.950 . S
C2141 C2140 1.395 . S
C2141 C2142 1.288 1_545 S
C2142 C2141 1.288 1_565 S
C2142 C2143 1.392 . S
C2143 H2119 0.951 . S
C2143 C2142 1.392 . S
C2143 C2144 1.392 . S
C2144 H2120 0.949 . S
C2144 C2139 1.382 . S
C2144 C2143 1.392 . S
C2145 C2146 1.376 . S
C2145 C2150 1.386 1_565 S
C2145 C2151 1.483 . S
C2146 H2121 0.949 . S
C2146 C2145 1.376 . S
C2146 C2147 1.397 . S
C2147 H2122 0.950 . S
C2147 C2146 1.397 . S
C2147 C2148 1.391 . S
C2148 C2147 1.391 . S
C2148 C2149 1.405 1_565 S
C2149 H2123 0.950 . S
C2149 C2148 1.405 1_545 S
C2149 C2150 1.367 . S
C2150 H2124 0.950 . S
C2150 C2145 1.386 1_545 S
C2150 C2149 1.367 . S
C2151 C2145 1.483 . S
C2151 C2152 1.382 . S
C2151 C2153 1.403 1_565 S
C2152 H2125 0.950 . S
C2152 C2138 1.411 . S
C2152 C2151 1.382 . S
C2153 C2137 1.411 . S
C2153 C2151 1.403 1_545 S
C2153 C2154 1.489 . S
C2154 C2153 1.489 . S
C2154 C2155 1.383 1_545 S
C2154 C2159 1.382 . S
C2155 H2126 0.950 . S
C2155 C2154 1.383 1_565 S
C2155 C2156 1.395 . S
C2156 H2127 0.950 . S
C2156 C2155 1.395 . S
C2156 C2157 1.288 1_565 S
C2157 C2156 1.288 1_545 S
C2157 C2158 1.392 . S
C2158 H2128 0.951 . S
C2158 C2157 1.392 . S
C2158 C2159 1.392 . S
C2159 H2129 0.949 . S
C2159 C2154 1.382 . S
C2159 C2158 1.392 . S
H2160 C2179 0.949 . S
H2161 C2180 0.950 . S
H2162 C2182 0.950 . S
H2163 C2183 0.950 . S
H2164 C2185 0.950 . S
H2165 C2188 0.950 . S
H2166 C2189 0.950 . S
H2167 C2191 0.951 . S
H2168 C2192 0.949 . S
H2169 C2194 0.949 . S
H2170 C2195 0.950 . S
H2171 C2197 0.950 . S
H2172 C2198 0.950 . S
H2173 C2200 0.950 . S
H2174 C2203 0.950 . S
H2175 C2204 0.950 . S
H2176 C2206 0.951 . S
H2177 C2207 0.949 . S
C2178 C2179 1.378 . S
C2178 C2183 1.385 1_545 S
C2178 C2184 1.506 . S
C2179 H2160 0.949 . S
C2179 C2178 1.378 . S
C2179 C2180 1.397 . S
C2180 H2161 0.950 . S
C2180 C2179 1.397 . S
C2180 C2181 1.391 1_545 S
C2181 C2180 1.391 1_565 S
C2181 C2182 1.405 . S
C2182 H2162 0.950 . S
C2182 C2181 1.405 . S
C2182 C2183 1.367 . S
C2183 H2163 0.950 . S
C2183 C2178 1.385 1_565 S
C2183 C2182 1.367 . S
C2184 C2178 1.506 . S
C2184 C2185 1.359 . S
C2184 C2186 1.399 1_545 S
C2185 H2164 0.950 . S
C2185 C2184 1.359 . S
C2185 C2201 1.440 . S
C2186 C2184 1.399 1_565 S
C2186 C2187 1.480 . S
C2186 C2200 1.431 . S
C2187 C2186 1.480 . S
C2187 C2188 1.365 1_565 S
C2187 C2192 1.391 . S
C2188 H2165 0.950 . S
C2188 C2187 1.365 1_545 S
C2188 C2189 1.395 . S
C2189 H2166 0.950 . S
C2189 C2188 1.395 . S
C2189 C2190 1.288 . S
C2190 C2189 1.288 . S
C2190 C2191 1.392 1_545 S
C2191 H2167 0.951 . S
C2191 C2190 1.392 1_565 S
C2191 C2192 1.392 . S
C2192 H2168 0.949 . S
C2192 C2187 1.391 . S
C2192 C2191 1.392 . S
C2193 C2194 1.378 1_545 S
C2193 C2198 1.385 . S
C2193 C2199 1.499 1_545 S
C2194 H2169 0.949 . S
C2194 C2193 1.378 1_565 S
C2194 C2195 1.397 . S
C2195 H2170 0.950 . S
C2195 C2194 1.397 . S
C2195 C2196 1.391 1_565 S
C2196 C2195 1.391 1_545 S
C2196 C2197 1.405 . S
C2197 H2171 0.950 . S
C2197 C2196 1.405 . S
C2197 C2198 1.367 . S
C2198 H2172 0.950 . S
C2198 C2193 1.385 . S
C2198 C2197 1.367 . S
C2199 C2193 1.499 1_565 S
C2199 C2200 1.366 . S
C2199 C2201 1.399 1_565 S
C2200 H2173 0.950 . S
C2200 C2186 1.431 . S
C2200 C2199 1.366 . S
C2201 C2185 1.440 . S
C2201 C2199 1.399 1_545 S
C2201 C2202 1.480 . S
C2202 C2201 1.480 . S
C2202 C2203 1.348 1_545 S
C2202 C2207 1.401 . S
C2203 H2174 0.950 . S
C2203 C2202 1.348 1_565 S
C2203 C2204 1.395 . S
C2204 H2175 0.950 . S
C2204 C2203 1.395 . S
C2204 C2205 1.288 . S
C2205 C2204 1.288 . S
C2205 C2206 1.392 1_565 S
C2206 H2176 0.951 . S
C2206 C2205 1.392 1_545 S
C2206 C2207 1.392 . S
C2207 H2177 0.949 . S
C2207 C2202 1.401 . S
C2207 C2206 1.392 . S
H2208 C2227 0.949 . S
H2209 C2228 0.950 . S
H2210 C2230 0.950 . S
H2211 C2231 0.950 . S
H2212 C2233 0.950 . S
H2213 C2236 0.950 . S
H2214 C2237 0.950 . S
H2215 C2239 0.951 . S
H2216 C2240 0.949 . S
H2217 C2242 0.949 . S
H2218 C2243 0.950 . S
H2219 C2245 0.950 . S
H2220 C2246 0.950 . S
H2221 C2248 0.950 . S
H2222 C2251 0.950 . S
H2223 C2252 0.950 . S
H2224 C2254 0.951 . S
H2225 C2255 0.949 . S
C2226 C2227 1.376 . S
C2226 C2231 1.386 1_455 S
C2226 C2232 1.483 . S
C2227 H2208 0.949 . S
C2227 C2226 1.376 . S
C2227 C2228 1.397 . S
C2228 H2209 0.950 . S
C2228 C2227 1.397 . S
C2228 C2229 1.391 . S
C2229 C2228 1.391 . S
C2229 C2230 1.405 1_455 S
C2230 H2210 0.950 . S
C2230 C2229 1.405 1_655 S
C2230 C2231 1.367 . S
C2231 H2211 0.950 . S
C2231 C2226 1.386 1_655 S
C2231 C2230 1.367 . S
C2232 C2226 1.483 . S
C2232 C2233 1.382 . S
C2232 C2234 1.403 1_455 S
C2233 H2212 0.950 . S
C2233 C2232 1.382 . S
C2233 C2249 1.411 . S
C2234 C2232 1.403 1_655 S
C2234 C2235 1.489 . S
C2234 C2248 1.411 . S
C2235 C2234 1.489 . S
C2235 C2236 1.383 1_655 S
C2235 C2240 1.382 . S
C2236 H2213 0.950 . S
C2236 C2235 1.383 1_455 S
C2236 C2237 1.395 . S
C2237 H2214 0.950 . S
C2237 C2236 1.395 . S
C2237 C2238 1.288 1_455 S
C2238 C2237 1.288 1_655 S
C2238 C2239 1.392 . S
C2239 H2215 0.951 . S
C2239 C2238 1.392 . S
C2239 C2240 1.392 . S
C2240 H2216 0.949 . S
C2240 C2235 1.382 . S
C2240 C2239 1.392 . S
C2241 C2242 1.376 . S
C2241 C2246 1.386 1_655 S
C2241 C2247 1.483 . S
C2242 H2217 0.949 . S
C2242 C2241 1.376 . S
C2242 C2243 1.397 . S
C2243 H2218 0.950 . S
C2243 C2242 1.397 . S
C2243 C2244 1.391 . S
C2244 C2243 1.391 . S
C2244 C2245 1.405 1_655 S
C2245 H2219 0.950 . S
C2245 C2244 1.405 1_455 S
C2245 C2246 1.367 . S
C2246 H2220 0.950 . S
C2246 C2241 1.386 1_455 S
C2246 C2245 1.367 . S
C2247 C2241 1.483 . S
C2247 C2248 1.382 . S
C2247 C2249 1.403 1_655 S
C2248 H2221 0.950 . S
C2248 C2234 1.411 . S
C2248 C2247 1.382 . S
C2249 C2233 1.411 . S
C2249 C2247 1.403 1_455 S
C2249 C2250 1.489 . S
C2250 C2249 1.489 . S
C2250 C2251 1.383 1_455 S
C2250 C2255 1.382 . S
C2251 H2222 0.950 . S
C2251 C2250 1.383 1_655 S
C2251 C2252 1.395 . S
C2252 H2223 0.950 . S
C2252 C2251 1.395 . S
C2252 C2253 1.288 1_655 S
C2253 C2252 1.288 1_455 S
C2253 C2254 1.392 . S
C2254 H2224 0.951 . S
C2254 C2253 1.392 . S
C2254 C2255 1.392 . S
C2255 H2225 0.949 . S
C2255 C2250 1.382 . S
C2255 C2254 1.392 . S
H2256 C2275 0.949 . S
H2257 C2276 0.950 . S
H2258 C2278 0.950 . S
H2259 C2279 0.950 . S
H2260 C2281 0.950 . S
H2261 C2284 0.950 . S
H2262 C2285 0.950 . S
H2263 C2287 0.951 . S
H2264 C2288 0.949 . S
H2265 C2290 0.949 . S
H2266 C2291 0.950 . S
H2267 C2293 0.950 . S
H2268 C2294 0.950 . S
H2269 C2296 0.950 . S
H2270 C2299 0.950 . S
H2271 C2300 0.950 . S
H2272 C2302 0.951 . S
H2273 C2303 0.949 . S
C2274 C2275 1.376 . S
C2274 C2279 1.386 . S
C2274 C2280 1.483 . S
C2275 H2256 0.949 . S
C2275 C2274 1.376 . S
C2275 C2276 1.397 . S
C2276 H2257 0.950 . S
C2276 C2275 1.397 . S
C2276 C2277 1.391 . S
C2277 C2276 1.391 . S
C2277 C2278 1.405 . S
C2278 H2258 0.950 . S
C2278 C2277 1.405 . S
C2278 C2279 1.367 . S
C2279 H2259 0.950 . S
C2279 C2274 1.386 . S
C2279 C2278 1.367 . S
C2280 C2274 1.483 . S
C2280 C2281 1.382 . S
C2280 C2282 1.403 . S
C2281 H2260 0.950 . S
C2281 C2280 1.382 . S
C2281 C2297 1.411 . S
C2282 C2280 1.403 . S
C2282 C2283 1.489 . S
C2282 C2296 1.411 . S
C2283 C2282 1.489 . S
C2283 C2284 1.383 . S
C2283 C2288 1.382 . S
C2284 H2261 0.950 . S
C2284 C2283 1.383 . S
C2284 C2285 1.395 . S
C2285 H2262 0.950 . S
C2285 C2284 1.395 . S
C2285 C2286 1.288 . S
C2286 C2285 1.288 . S
C2286 C2287 1.392 . S
C2287 H2263 0.951 . S
C2287 C2286 1.392 . S
C2287 C2288 1.392 . S
C2288 H2264 0.949 . S
C2288 C2283 1.382 . S
C2288 C2287 1.392 . S
C2289 C2290 1.376 . S
C2289 C2294 1.386 . S
C2289 C2295 1.483 . S
C2290 H2265 0.949 . S
C2290 C2289 1.376 . S
C2290 C2291 1.397 . S
C2291 H2266 0.950 . S
C2291 C2290 1.397 . S
C2291 C2292 1.391 . S
C2292 C2291 1.391 . S
C2292 C2293 1.405 . S
C2293 H2267 0.950 . S
C2293 C2292 1.405 . S
C2293 C2294 1.367 . S
C2294 H2268 0.950 . S
C2294 C2289 1.386 . S
C2294 C2293 1.367 . S
C2295 C2289 1.483 . S
C2295 C2296 1.382 . S
C2295 C2297 1.403 . S
C2296 H2269 0.950 . S
C2296 C2282 1.411 . S
C2296 C2295 1.382 . S
C2297 C2281 1.411 . S
C2297 C2295 1.403 . S
C2297 C2298 1.489 . S
C2298 C2297 1.489 . S
C2298 C2299 1.383 . S
C2298 C2303 1.382 . S
C2299 H2270 0.950 . S
C2299 C2298 1.383 . S
C2299 C2300 1.395 . S
C2300 H2271 0.950 . S
C2300 C2299 1.395 . S
C2300 C2301 1.288 . S
C2301 C2300 1.288 . S
C2301 C2302 1.392 . S
C2302 H2272 0.951 . S
C2302 C2301 1.392 . S
C2302 C2303 1.392 . S
C2303 H2273 0.949 . S
C2303 C2298 1.382 . S
C2303 C2302 1.392 . S
H2304 C2323 0.949 . S
H2305 C2324 0.950 . S
H2306 C2326 0.950 . S
H2307 C2327 0.950 . S
H2308 C2329 0.950 . S
H2309 C2332 0.950 . S
H2310 C2333 0.950 . S
H2311 C2335 0.951 . S
H2312 C2336 0.949 . S
H2313 C2338 0.949 . S
H2314 C2339 0.950 . S
H2315 C2341 0.950 . S
H2316 C2342 0.950 . S
H2317 C2344 0.950 . S
H2318 C2347 0.950 . S
H2319 C2348 0.950 . S
H2320 C2350 0.951 . S
H2321 C2351 0.949 . S
C2322 C2323 1.376 . S
C2322 C2327 1.386 . S
C2322 C2328 1.483 . S
C2323 H2304 0.949 . S
C2323 C2322 1.376 . S
C2323 C2324 1.397 . S
C2324 H2305 0.950 . S
C2324 C2323 1.397 . S
C2324 C2325 1.391 . S
C2325 C2324 1.391 . S
C2325 C2326 1.405 . S
C2326 H2306 0.950 . S
C2326 C2325 1.405 . S
C2326 C2327 1.367 . S
C2327 H2307 0.950 . S
C2327 C2322 1.386 . S
C2327 C2326 1.367 . S
C2328 C2322 1.483 . S
C2328 C2329 1.382 . S
C2328 C2330 1.403 . S
C2329 H2308 0.950 . S
C2329 C2328 1.382 . S
C2329 C2345 1.411 . S
C2330 C2328 1.403 . S
C2330 C2331 1.489 . S
C2330 C2344 1.411 . S
C2331 C2330 1.489 . S
C2331 C2332 1.383 . S
C2331 C2336 1.382 . S
C2332 H2309 0.950 . S
C2332 C2331 1.383 . S
C2332 C2333 1.395 . S
C2333 H2310 0.950 . S
C2333 C2332 1.395 . S
C2333 C2334 1.288 . S
C2334 C2333 1.288 . S
C2334 C2335 1.392 . S
C2335 H2311 0.951 . S
C2335 C2334 1.392 . S
C2335 C2336 1.392 . S
C2336 H2312 0.949 . S
C2336 C2331 1.382 . S
C2336 C2335 1.392 . S
C2337 C2338 1.376 . S
C2337 C2342 1.386 . S
C2337 C2343 1.483 . S
C2338 H2313 0.949 . S
C2338 C2337 1.376 . S
C2338 C2339 1.397 . S
C2339 H2314 0.950 . S
C2339 C2338 1.397 . S
C2339 C2340 1.391 . S
C2340 C2339 1.391 . S
C2340 C2341 1.405 . S
C2341 H2315 0.950 . S
C2341 C2340 1.405 . S
C2341 C2342 1.367 . S
C2342 H2316 0.950 . S
C2342 C2337 1.386 . S
C2342 C2341 1.367 . S
C2343 C2337 1.483 . S
C2343 C2344 1.382 . S
C2343 C2345 1.403 . S
C2344 H2317 0.950 . S
C2344 C2330 1.411 . S
C2344 C2343 1.382 . S
C2345 C2329 1.411 . S
C2345 C2343 1.403 . S
C2345 C2346 1.489 . S
C2346 C2345 1.489 . S
C2346 C2347 1.383 . S
C2346 C2351 1.382 . S
C2347 H2318 0.950 . S
C2347 C2346 1.383 . S
C2347 C2348 1.395 . S
C2348 H2319 0.950 . S
C2348 C2347 1.395 . S
C2348 C2349 1.288 . S
C2349 C2348 1.288 . S
C2349 C2350 1.392 . S
C2350 H2320 0.951 . S
C2350 C2349 1.392 . S
C2350 C2351 1.392 . S
C2351 H2321 0.949 . S
C2351 C2346 1.382 . S
C2351 C2350 1.392 . S
H2352 C2371 0.949 . S
H2353 C2372 0.950 . S
H2354 C2374 0.950 . S
H2355 C2375 0.950 . S
H2356 C2377 0.950 . S
H2357 C2380 0.950 . S
H2358 C2381 0.950 . S
H2359 C2383 0.951 . S
H2360 C2384 0.949 . S
H2361 C2386 0.949 . S
H2362 C2387 0.950 . S
H2363 C2389 0.950 . S
H2364 C2390 0.950 . S
H2365 C2392 0.950 . S
H2366 C2395 0.950 . S
H2367 C2396 0.950 . S
H2368 C2398 0.951 . S
H2369 C2399 0.949 . S
C2370 C2371 1.376 . S
C2370 C2375 1.386 . S
C2370 C2376 1.483 . S
C2371 H2352 0.949 . S
C2371 C2370 1.376 . S
C2371 C2372 1.397 . S
C2372 H2353 0.950 . S
C2372 C2371 1.397 . S
C2372 C2373 1.391 . S
C2373 C2372 1.391 . S
C2373 C2374 1.405 . S
C2374 H2354 0.950 . S
C2374 C2373 1.405 . S
C2374 C2375 1.367 . S
C2375 H2355 0.950 . S
C2375 C2370 1.386 . S
C2375 C2374 1.367 . S
C2376 C2370 1.483 . S
C2376 C2377 1.382 . S
C2376 C2378 1.403 . S
C2377 H2356 0.950 . S
C2377 C2376 1.382 . S
C2377 C2393 1.411 . S
C2378 C2376 1.403 . S
C2378 C2379 1.489 . S
C2378 C2392 1.411 . S
C2379 C2378 1.489 . S
C2379 C2380 1.383 . S
C2379 C2384 1.382 . S
C2380 H2357 0.950 . S
C2380 C2379 1.383 . S
C2380 C2381 1.395 . S
C2381 H2358 0.950 . S
C2381 C2380 1.395 . S
C2381 C2382 1.288 . S
C2382 C2381 1.288 . S
C2382 C2383 1.392 . S
C2383 H2359 0.951 . S
C2383 C2382 1.392 . S
C2383 C2384 1.392 . S
C2384 H2360 0.949 . S
C2384 C2379 1.382 . S
C2384 C2383 1.392 . S
C2385 C2386 1.376 . S
C2385 C2390 1.386 . S
C2385 C2391 1.483 . S
C2386 H2361 0.949 . S
C2386 C2385 1.376 . S
C2386 C2387 1.397 . S
C2387 H2362 0.950 . S
C2387 C2386 1.397 . S
C2387 C2388 1.391 . S
C2388 C2387 1.391 . S
C2388 C2389 1.405 . S
C2389 H2363 0.950 . S
C2389 C2388 1.405 . S
C2389 C2390 1.367 . S
C2390 H2364 0.950 . S
C2390 C2385 1.386 . S
C2390 C2389 1.367 . S
C2391 C2385 1.483 . S
C2391 C2392 1.382 . S
C2391 C2393 1.403 . S
C2392 H2365 0.950 . S
C2392 C2378 1.411 . S
C2392 C2391 1.382 . S
C2393 C2377 1.411 . S
C2393 C2391 1.403 . S
C2393 C2394 1.489 . S
C2394 C2393 1.489 . S
C2394 C2395 1.383 . S
C2394 C2399 1.382 . S
C2395 H2366 0.950 . S
C2395 C2394 1.383 . S
C2395 C2396 1.395 . S
C2396 H2367 0.950 . S
C2396 C2395 1.395 . S
C2396 C2397 1.288 . S
C2397 C2396 1.288 . S
C2397 C2398 1.392 . S
C2398 H2368 0.951 . S
C2398 C2397 1.392 . S
C2398 C2399 1.392 . S
C2399 H2369 0.949 . S
C2399 C2394 1.382 . S
C2399 C2398 1.392 . S
H2400 C2419 0.949 . S
H2401 C2420 0.950 . S
H2402 C2422 0.950 . S
H2403 C2423 0.950 . S
H2404 C2425 0.950 . S
H2405 C2428 0.950 . S
H2406 C2429 0.950 . S
H2407 C2431 0.951 . S
H2408 C2432 0.949 . S
H2409 C2434 0.949 . S
H2410 C2435 0.950 . S
H2411 C2437 0.950 . S
H2412 C2438 0.950 . S
H2413 C2440 0.950 . S
H2414 C2443 0.950 . S
H2415 C2444 0.950 . S
H2416 C2446 0.951 . S
H2417 C2447 0.949 . S
C2418 C2419 1.376 . S
C2418 C2423 1.386 . S
C2418 C2424 1.483 . S
C2419 H2400 0.949 . S
C2419 C2418 1.376 . S
C2419 C2420 1.397 . S
C2420 H2401 0.950 . S
C2420 C2419 1.397 . S
C2420 C2421 1.391 . S
C2421 C2420 1.391 . S
C2421 C2422 1.405 . S
C2422 H2402 0.950 . S
C2422 C2421 1.405 . S
C2422 C2423 1.367 . S
C2423 H2403 0.950 . S
C2423 C2418 1.386 . S
C2423 C2422 1.367 . S
C2424 C2418 1.483 . S
C2424 C2425 1.382 . S
C2424 C2426 1.403 . S
C2425 H2404 0.950 . S
C2425 C2424 1.382 . S
C2425 C2441 1.411 . S
C2426 C2424 1.403 . S
C2426 C2427 1.489 . S
C2426 C2440 1.411 . S
C2427 C2426 1.489 . S
C2427 C2428 1.383 . S
C2427 C2432 1.382 . S
C2428 H2405 0.950 . S
C2428 C2427 1.383 . S
C2428 C2429 1.395 . S
C2429 H2406 0.950 . S
C2429 C2428 1.395 . S
C2429 C2430 1.288 . S
C2430 C2429 1.288 . S
C2430 C2431 1.392 . S
C2431 H2407 0.951 . S
C2431 C2430 1.392 . S
C2431 C2432 1.392 . S
C2432 H2408 0.949 . S
C2432 C2427 1.382 . S
C2432 C2431 1.392 . S
C2433 C2434 1.376 . S
C2433 C2438 1.386 . S
C2433 C2439 1.483 . S
C2434 H2409 0.949 . S
C2434 C2433 1.376 . S
C2434 C2435 1.397 . S
C2435 H2410 0.950 . S
C2435 C2434 1.397 . S
C2435 C2436 1.391 . S
C2436 C2435 1.391 . S
C2436 C2437 1.405 . S
C2437 H2411 0.950 . S
C2437 C2436 1.405 . S
C2437 C2438 1.367 . S
C2438 H2412 0.950 . S
C2438 C2433 1.386 . S
C2438 C2437 1.367 . S
C2439 C2433 1.483 . S
C2439 C2440 1.382 . S
C2439 C2441 1.403 . S
C2440 H2413 0.950 . S
C2440 C2426 1.411 . S
C2440 C2439 1.382 . S
C2441 C2425 1.411 . S
C2441 C2439 1.403 . S
C2441 C2442 1.489 . S
C2442 C2441 1.489 . S
C2442 C2443 1.383 . S
C2442 C2447 1.382 . S
C2443 H2414 0.950 . S
C2443 C2442 1.383 . S
C2443 C2444 1.395 . S
C2444 H2415 0.950 . S
C2444 C2443 1.395 . S
C2444 C2445 1.288 . S
C2445 C2444 1.288 . S
C2445 C2446 1.392 . S
C2446 H2416 0.951 . S
C2446 C2445 1.392 . S
C2446 C2447 1.392 . S
C2447 H2417 0.949 . S
C2447 C2442 1.382 . S
C2447 C2446 1.392 . S
C2448 C2449 1.369 . S
C2448 C2450 1.419 . S
C2448 H2452 0.930 . S
C2449 C2448 1.369 . S
C2449 C2458 1.429 . S
C2450 C2448 1.419 . S
C2450 C2451 1.363 . S
C2450 H2453 0.929 . S
C2451 C2450 1.363 . S
C2451 C2457 1.428 . S
H2452 C2448 0.930 . S
H2453 C2450 0.929 . S
S2454 N2455 1.613 . S
S2454 N2456 1.610 . S
N2455 S2454 1.613 . S
N2455 C2458 1.350 . S
N2456 S2454 1.610 . S
N2456 C2457 1.351 . S
C2457 C2451 1.428 . S
C2457 N2456 1.351 . S
C2457 C2458 1.434 . S
C2458 C2449 1.429 . S
C2458 N2455 1.350 . S
C2458 C2457 1.434 . S
C2459 C2460 1.369 . S
C2459 C2461 1.419 . S
C2459 H2463 0.930 . S
C2460 C2459 1.369 . S
C2460 C2469 1.429 . S
C2461 C2459 1.419 . S
C2461 C2462 1.363 . S
C2461 H2464 0.929 . S
C2462 C2461 1.363 . S
C2462 C2468 1.428 . S
H2463 C2459 0.930 . S
H2464 C2461 0.929 . S
S2465 N2466 1.613 . S
S2465 N2467 1.610 . S
N2466 S2465 1.613 . S
N2466 C2469 1.350 . S
N2467 S2465 1.610 . S
N2467 C2468 1.351 . S
C2468 C2462 1.428 . S
C2468 N2467 1.351 . S
C2468 C2469 1.434 . S
C2469 C2460 1.429 . S
C2469 N2466 1.350 . S
C2469 C2468 1.434 . S
C2470 C2471 1.369 . S
C2470 C2472 1.419 . S
C2470 H2474 0.930 . S
C2471 C2470 1.369 . S
C2471 C2480 1.429 . S
C2472 C2470 1.419 . S
C2472 C2473 1.363 . S
C2472 H2475 0.929 . S
C2473 C2472 1.363 . S
C2473 C2479 1.428 1_545 S
H2474 C2470 0.930 . S
H2475 C2472 0.929 . S
S2476 N2477 1.613 . S
S2476 N2478 1.610 . S
N2477 S2476 1.613 . S
N2477 C2480 1.350 1_565 S
N2478 S2476 1.610 . S
N2478 C2479 1.351 . S
C2479 C2473 1.428 1_565 S
C2479 N2478 1.351 . S
C2479 C2480 1.434 1_565 S
C2480 C2471 1.429 . S
C2480 N2477 1.350 1_545 S
C2480 C2479 1.434 1_545 S
C2481 C2482 1.369 . S
C2481 C2483 1.419 . S
C2481 H2485 0.930 . S
C2482 C2481 1.369 . S
C2482 C2491 1.429 . S
C2483 C2481 1.419 . S
C2483 C2484 1.363 . S
C2483 H2486 0.929 1_565 S
C2484 C2483 1.363 . S
C2484 C2490 1.428 . S
H2485 C2481 0.930 . S
H2486 C2483 0.929 1_545 S
S2487 N2488 1.613 . S
S2487 N2489 1.610 . S
N2488 S2487 1.613 . S
N2488 C2491 1.350 . S
N2489 S2487 1.610 . S
N2489 C2490 1.351 . S
C2490 C2484 1.428 . S
C2490 N2489 1.351 . S
C2490 C2491 1.434 . S
C2491 C2482 1.429 . S
C2491 N2488 1.350 . S
C2491 C2490 1.434 . S
C2492 C2493 1.369 . S
C2492 C2494 1.419 . S
C2492 H2496 0.930 . S
C2493 C2492 1.369 . S
C2493 C2502 1.429 . S
C2494 C2492 1.419 . S
C2494 C2495 1.363 . S
C2494 H2497 0.929 1_455 S
C2495 C2494 1.363 . S
C2495 C2501 1.428 . S
H2496 C2492 0.930 . S
H2497 C2494 0.929 1_655 S
S2498 N2499 1.613 . S
S2498 N2500 1.610 . S
N2499 S2498 1.613 . S
N2499 C2502 1.350 . S
N2500 S2498 1.610 . S
N2500 C2501 1.351 . S
C2501 C2495 1.428 . S
C2501 N2500 1.351 . S
C2501 C2502 1.434 . S
C2502 C2493 1.429 . S
C2502 N2499 1.350 . S
C2502 C2501 1.434 . S
C2503 C2504 1.369 . S
C2503 C2505 1.419 . S
C2503 H2507 0.930 . S
C2504 C2503 1.369 . S
C2504 C2513 1.429 . S
C2505 C2503 1.419 . S
C2505 C2506 1.363 . S
C2505 H2508 0.929 . S
C2506 C2505 1.363 . S
C2506 C2512 1.428 . S
H2507 C2503 0.930 . S
H2508 C2505 0.929 . S
S2509 N2510 1.613 . S
S2509 N2511 1.610 . S
N2510 S2509 1.613 . S
N2510 C2513 1.350 . S
N2511 S2509 1.610 . S
N2511 C2512 1.351 . S
C2512 C2506 1.428 . S
C2512 N2511 1.351 . S
C2512 C2513 1.434 . S
C2513 C2504 1.429 . S
C2513 N2510 1.350 . S
C2513 C2512 1.434 . S
C2514 C2515 1.369 . S
C2514 C2516 1.419 . S
C2514 H2518 0.930 . S
C2515 C2514 1.369 . S
C2515 C2524 1.429 . S
C2516 C2514 1.419 . S
C2516 C2517 1.363 . S
C2516 H2519 0.929 . S
C2517 C2516 1.363 . S
C2517 C2523 1.428 . S
H2518 C2514 0.930 . S
H2519 C2516 0.929 . S
S2520 N2521 1.613 1_655 S
S2520 N2522 1.610 . S
N2521 S2520 1.613 1_455 S
N2521 C2524 1.350 . S
N2522 S2520 1.610 . S
N2522 C2523 1.351 1_655 S
C2523 C2517 1.428 . S
C2523 N2522 1.351 1_455 S
C2523 C2524 1.434 . S
C2524 C2515 1.429 . S
C2524 N2521 1.350 . S
C2524 C2523 1.434 . S
C2525 C2526 1.369 . S
C2525 C2527 1.419 . S
C2525 H2529 0.930 . S
C2526 C2525 1.369 . S
C2526 C2535 1.429 . S
C2527 C2525 1.419 . S
C2527 C2528 1.363 . S
C2527 H2530 0.929 . S
C2528 C2527 1.363 . S
C2528 C2534 1.428 . S
H2529 C2525 0.930 . S
H2530 C2527 0.929 . S
S2531 N2532 1.613 . S
S2531 N2533 1.610 . S
N2532 S2531 1.613 . S
N2532 C2535 1.350 . S
N2533 S2531 1.610 . S
N2533 C2534 1.351 . S
C2534 C2528 1.428 . S
C2534 N2533 1.351 . S
C2534 C2535 1.434 . S
C2535 C2526 1.429 . S
C2535 N2532 1.350 . S
C2535 C2534 1.434 . S
C2536 C2537 1.369 . S
C2536 C2538 1.419 . S
C2536 H2540 0.930 . S
C2537 C2536 1.369 . S
C2537 C2546 1.429 . S
C2538 C2536 1.419 . S
C2538 C2539 1.363 . S
C2538 H2541 0.929 . S
C2539 C2538 1.363 . S
C2539 C2545 1.428 . S
H2540 C2536 0.930 . S
H2541 C2538 0.929 . S
S2542 N2543 1.613 1_545 S
S2542 N2544 1.610 . S
N2543 S2542 1.613 1_565 S
N2543 C2546 1.350 . S
N2544 S2542 1.610 . S
N2544 C2545 1.351 1_545 S
C2545 C2539 1.428 . S
C2545 N2544 1.351 1_565 S
C2545 C2546 1.434 . S
C2546 C2537 1.429 . S
C2546 N2543 1.350 . S
C2546 C2545 1.434 . S
C2547 C2548 1.369 . S
C2547 C2549 1.419 . S
C2547 H2551 0.930 . S
C2548 C2547 1.369 . S
C2548 C2557 1.468 . S
C2549 C2547 1.419 . S
C2549 C2550 1.363 . S
C2549 H2552 0.929 . S
C2550 C2549 1.363 . S
C2550 C2556 1.428 1_545 S
H2551 C2547 0.930 . S
H2552 C2549 0.929 . S
S2553 N2554 1.613 . S
S2553 N2555 1.610 . S
N2554 S2553 1.613 . S
N2554 C2557 1.302 1_565 S
N2555 S2553 1.610 . S
N2555 C2556 1.351 . S
C2556 C2550 1.428 1_565 S
C2556 N2555 1.351 . S
C2556 C2557 1.443 1_565 S
C2557 C2548 1.468 . S
C2557 N2554 1.302 1_545 S
C2557 C2556 1.443 1_545 S
C2558 C2559 1.369 . S
C2558 C2560 1.419 . S
C2558 H2562 0.930 . S
C2559 C2558 1.369 . S
C2559 C2568 1.429 . S
C2560 C2558 1.419 . S
C2560 C2561 1.363 . S
C2560 H2563 0.929 . S
C2561 C2560 1.363 . S
C2561 C2567 1.428 . S
H2562 C2558 0.930 . S
H2563 C2560 0.929 . S
S2564 N2565 1.613 . S
S2564 N2566 1.610 . S
N2565 S2564 1.613 . S
N2565 C2568 1.350 . S
N2566 S2564 1.610 . S
N2566 C2567 1.351 . S
C2567 C2561 1.428 . S
C2567 N2566 1.351 . S
C2567 C2568 1.434 . S
C2568 C2559 1.429 . S
C2568 N2565 1.350 . S
C2568 C2567 1.434 . S
C2569 C2570 1.369 . S
C2569 C2571 1.419 . S
C2569 H2573 0.930 . S
C2570 C2569 1.369 . S
C2570 C2579 1.429 . S
C2571 C2569 1.419 . S
C2571 C2572 1.363 . S
C2571 H2574 0.929 . S
C2572 C2571 1.363 . S
C2572 C2578 1.428 . S
H2573 C2569 0.930 . S
H2574 C2571 0.929 . S
S2575 N2576 1.613 . S
S2575 N2577 1.610 . S
N2576 S2575 1.613 . S
N2576 C2579 1.350 . S
N2577 S2575 1.610 . S
N2577 C2578 1.351 . S
C2578 C2572 1.428 . S
C2578 N2577 1.351 . S
C2578 C2579 1.434 . S
C2579 C2570 1.429 . S
C2579 N2576 1.350 . S
C2579 C2578 1.434 . S
C2580 C2581 1.369 . S
C2580 C2582 1.419 . S
C2580 H2584 0.930 . S
C2581 C2580 1.369 . S
C2581 C2590 1.429 . S
C2582 C2580 1.419 . S
C2582 C2583 1.363 . S
C2582 H2585 0.929 . S
C2583 C2582 1.363 . S
C2583 C2589 1.428 . S
H2584 C2580 0.930 . S
H2585 C2582 0.929 . S
S2586 N2587 1.613 . S
S2586 N2588 1.610 . S
N2587 S2586 1.613 . S
N2587 C2590 1.350 . S
N2588 S2586 1.610 . S
N2588 C2589 1.351 . S
C2589 C2583 1.428 . S
C2589 N2588 1.351 . S
C2589 C2590 1.434 . S
C2590 C2581 1.429 . S
C2590 N2587 1.350 . S
C2590 C2589 1.434 . S
C2591 C2592 1.369 . S
C2591 C2593 1.419 . S
C2591 H2595 0.930 . S
C2592 C2591 1.369 . S
C2592 C2601 1.429 . S
C2593 C2591 1.419 . S
C2593 C2594 1.363 . S
C2593 H2596 0.929 . S
C2594 C2593 1.363 . S
C2594 C2600 1.428 . S
H2595 C2591 0.930 . S
H2596 C2593 0.929 . S
S2597 N2598 1.613 . S
S2597 N2599 1.610 . S
N2598 S2597 1.613 . S
N2598 C2601 1.350 . S
N2599 S2597 1.610 . S
N2599 C2600 1.351 . S
C2600 C2594 1.428 . S
C2600 N2599 1.351 . S
C2600 C2601 1.434 . S
C2601 C2592 1.429 . S
C2601 N2598 1.350 . S
C2601 C2600 1.434 . S
C2602 C2603 1.369 . S
C2602 C2604 1.419 . S
C2602 H2606 0.930 . S
C2603 C2602 1.369 . S
C2603 C2612 1.429 . S
C2604 C2602 1.419 . S
C2604 C2605 1.363 . S
C2604 H2607 0.929 . S
C2605 C2604 1.363 . S
C2605 C2611 1.428 . S
H2606 C2602 0.930 . S
H2607 C2604 0.929 . S
S2608 N2609 1.613 . S
S2608 N2610 1.610 . S
N2609 S2608 1.613 . S
N2609 C2612 1.350 . S
N2610 S2608 1.610 . S
N2610 C2611 1.351 . S
C2611 C2605 1.428 . S
C2611 N2610 1.351 . S
C2611 C2612 1.434 . S
C2612 C2603 1.429 . S
C2612 N2609 1.350 . S
C2612 C2611 1.434 . S
C2613 C2614 1.369 . S
C2613 C2615 1.419 . S
C2613 H2617 0.930 . S
C2614 C2613 1.369 . S
C2614 C2623 1.429 . S
C2615 C2613 1.419 . S
C2615 C2616 1.363 . S
C2615 H2618 0.929 . S
C2616 C2615 1.363 . S
C2616 C2622 1.428 . S
H2617 C2613 0.930 . S
H2618 C2615 0.929 . S
S2619 N2620 1.613 . S
S2619 N2621 1.610 . S
N2620 S2619 1.613 . S
N2620 C2623 1.350 . S
N2621 S2619 1.610 . S
N2621 C2622 1.351 . S
C2622 C2616 1.428 . S
C2622 N2621 1.351 . S
C2622 C2623 1.434 . S
C2623 C2614 1.429 . S
C2623 N2620 1.350 . S
C2623 C2622 1.434 . S
C2624 C2625 1.369 . S
C2624 C2626 1.419 . S
C2624 H2628 0.930 . S
C2625 C2624 1.369 . S
C2625 C2634 1.429 . S
C2626 C2624 1.419 . S
C2626 C2627 1.363 . S
C2626 H2629 0.929 . S
C2627 C2626 1.363 . S
C2627 C2633 1.428 . S
H2628 C2624 0.930 . S
H2629 C2626 0.929 . S
S2630 N2631 1.613 . S
S2630 N2632 1.610 . S
N2631 S2630 1.613 . S
N2631 C2634 1.350 . S
N2632 S2630 1.610 . S
N2632 C2633 1.351 . S
C2633 C2627 1.428 . S
C2633 N2632 1.351 . S
C2633 C2634 1.434 . S
C2634 C2625 1.429 . S
C2634 N2631 1.350 . S
C2634 C2633 1.434 . S
C2635 C2636 1.369 . S
C2635 C2637 1.419 . S
C2635 H2639 0.930 . S
C2636 C2635 1.369 . S
C2636 C2645 1.429 . S
C2637 C2635 1.419 . S
C2637 C2638 1.363 . S
C2637 H2640 0.929 . S
C2638 C2637 1.363 . S
C2638 C2644 1.428 . S
H2639 C2635 0.930 . S
H2640 C2637 0.929 . S
S2641 N2642 1.613 . S
S2641 N2643 1.610 . S
N2642 S2641 1.613 . S
N2642 C2645 1.350 . S
N2643 S2641 1.610 . S
N2643 C2644 1.351 . S
C2644 C2638 1.428 . S
C2644 N2643 1.351 . S
C2644 C2645 1.434 . S
C2645 C2636 1.429 . S
C2645 N2642 1.350 . S
C2645 C2644 1.434 . S
C2646 C2647 1.369 . S
C2646 C2648 1.419 . S
C2646 H2650 0.930 . S
C2647 C2646 1.369 . S
C2647 C2656 1.429 . S
C2648 C2646 1.419 . S
C2648 C2649 1.363 . S
C2648 H2651 0.929 . S
C2649 C2648 1.363 . S
C2649 C2655 1.428 . S
H2650 C2646 0.930 . S
H2651 C2648 0.929 . S
S2652 N2653 1.613 . S
S2652 N2654 1.610 . S
N2653 S2652 1.613 . S
N2653 C2656 1.350 . S
N2654 S2652 1.610 . S
N2654 C2655 1.351 . S
C2655 C2649 1.428 . S
C2655 N2654 1.351 . S
C2655 C2656 1.434 . S
C2656 C2647 1.429 . S
C2656 N2653 1.350 . S
C2656 C2655 1.434 . S
C2657 C2658 1.369 . S
C2657 C2659 1.419 . S
C2657 H2661 0.930 . S
C2658 C2657 1.369 . S
C2658 C2667 1.429 . S
C2659 C2657 1.419 . S
C2659 C2660 1.363 . S
C2659 H2662 0.929 . S
C2660 C2659 1.363 . S
C2660 C2666 1.428 . S
H2661 C2657 0.930 . S
H2662 C2659 0.929 . S
S2663 N2664 1.613 . S
S2663 N2665 1.610 . S
N2664 S2663 1.613 . S
N2664 C2667 1.350 . S
N2665 S2663 1.610 . S
N2665 C2666 1.351 . S
C2666 C2660 1.428 . S
C2666 N2665 1.351 . S
C2666 C2667 1.434 . S
C2667 C2658 1.429 . S
C2667 N2664 1.350 . S
C2667 C2666 1.434 . S
C2668 C2669 1.369 . S
C2668 C2670 1.419 . S
C2668 H2672 0.930 . S
C2669 C2668 1.369 . S
C2669 C2678 1.429 . S
C2670 C2668 1.419 . S
C2670 C2671 1.363 . S
C2670 H2673 0.929 . S
C2671 C2670 1.363 . S
C2671 C2677 1.428 . S
H2672 C2668 0.930 . S
H2673 C2670 0.929 . S
S2674 N2675 1.613 . S
S2674 N2676 1.610 . S
N2675 S2674 1.613 . S
N2675 C2678 1.350 . S
N2676 S2674 1.610 . S
N2676 C2677 1.351 . S
C2677 C2671 1.428 . S
C2677 N2676 1.351 . S
C2677 C2678 1.434 . S
C2678 C2669 1.429 . S
C2678 N2675 1.350 . S
C2678 C2677 1.434 . S
C2679 C2680 1.369 . S
C2679 C2681 1.419 . S
C2679 H2683 0.930 . S
C2680 C2679 1.369 . S
C2680 C2689 1.429 . S
C2681 C2679 1.419 . S
C2681 C2682 1.363 . S
C2681 H2684 0.929 . S
C2682 C2681 1.363 . S
C2682 C2688 1.428 . S
H2683 C2679 0.930 . S
H2684 C2681 0.929 . S
S2685 N2686 1.613 . S
S2685 N2687 1.610 . S
N2686 S2685 1.613 . S
N2686 C2689 1.350 . S
N2687 S2685 1.610 . S
N2687 C2688 1.351 . S
C2688 C2682 1.428 . S
C2688 N2687 1.351 . S
C2688 C2689 1.434 . S
C2689 C2680 1.429 . S
C2689 N2686 1.350 . S
C2689 C2688 1.434 . S
C2690 C2691 1.369 . S
C2690 C2692 1.419 . S
C2690 H2694 0.930 . S
C2691 C2690 1.369 . S
C2691 C2700 1.429 . S
C2692 C2690 1.419 . S
C2692 C2693 1.363 . S
C2692 H2695 0.929 . S
C2693 C2692 1.363 . S
C2693 C2699 1.428 . S
H2694 C2690 0.930 . S
H2695 C2692 0.929 . S
S2696 N2697 1.613 . S
S2696 N2698 1.610 . S
N2697 S2696 1.613 . S
N2697 C2700 1.350 . S
N2698 S2696 1.610 . S
N2698 C2699 1.351 . S
C2699 C2693 1.428 . S
C2699 N2698 1.351 . S
C2699 C2700 1.434 . S
C2700 C2691 1.429 . S
C2700 N2697 1.350 . S
C2700 C2699 1.434 . S
C2701 C2702 1.369 . S
C2701 C2703 1.419 . S
C2701 H2705 0.930 . S
C2702 C2701 1.369 . S
C2702 C2711 1.429 . S
C2703 C2701 1.419 . S
C2703 C2704 1.363 . S
C2703 H2706 0.929 . S
C2704 C2703 1.363 . S
C2704 C2710 1.428 . S
H2705 C2701 0.930 . S
H2706 C2703 0.929 . S
S2707 N2708 1.613 . S
S2707 N2709 1.610 . S
N2708 S2707 1.613 . S
N2708 C2711 1.350 . S
N2709 S2707 1.610 . S
N2709 C2710 1.351 . S
C2710 C2704 1.428 . S
C2710 N2709 1.351 . S
C2710 C2711 1.434 . S
C2711 C2702 1.429 . S
C2711 N2708 1.350 . S
C2711 C2710 1.434 . S
C2712 C2713 1.369 . S
C2712 C2714 1.419 . S
C2712 H2716 0.930 . S
C2713 C2712 1.369 . S
C2713 C2722 1.429 . S
C2714 C2712 1.419 . S
C2714 C2715 1.363 . S
C2714 H2717 0.929 . S
C2715 C2714 1.363 . S
C2715 C2721 1.428 . S
H2716 C2712 0.930 . S
H2717 C2714 0.929 . S
S2718 N2719 1.613 . S
S2718 N2720 1.610 . S
N2719 S2718 1.613 . S
N2719 C2722 1.350 . S
N2720 S2718 1.610 . S
N2720 C2721 1.351 . S
C2721 C2715 1.428 . S
C2721 N2720 1.351 . S
C2721 C2722 1.434 . S
C2722 C2713 1.429 . S
C2722 N2719 1.350 . S
C2722 C2721 1.434 . S
C2723 C2724 1.369 . S
C2723 C2725 1.419 . S
C2723 H2727 0.930 . S
C2724 C2723 1.369 . S
C2724 C2733 1.429 . S
C2725 C2723 1.419 . S
C2725 C2726 1.363 . S
C2725 H2728 0.929 . S
C2726 C2725 1.363 . S
C2726 C2732 1.428 . S
H2727 C2723 0.930 . S
H2728 C2725 0.929 . S
S2729 N2730 1.613 . S
S2729 N2731 1.610 . S
N2730 S2729 1.613 . S
N2730 C2733 1.350 . S
N2731 S2729 1.610 . S
N2731 C2732 1.351 . S
C2732 C2726 1.428 . S
C2732 N2731 1.351 . S
C2732 C2733 1.434 . S
C2733 C2724 1.429 . S
C2733 N2730 1.350 . S
C2733 C2732 1.434 . S
C2734 C2735 1.369 . S
C2734 C2736 1.419 . S
C2734 H2738 0.930 . S
C2735 C2734 1.369 . S
C2735 C2744 1.429 . S
C2736 C2734 1.419 . S
C2736 C2737 1.363 . S
C2736 H2739 0.929 . S
C2737 C2736 1.363 . S
C2737 C2743 1.428 . S
H2738 C2734 0.930 . S
H2739 C2736 0.929 . S
S2740 N2741 1.613 . S
S2740 N2742 1.610 . S
N2741 S2740 1.613 . S
N2741 C2744 1.350 . S
N2742 S2740 1.610 . S
N2742 C2743 1.351 . S
C2743 C2737 1.428 . S
C2743 N2742 1.351 . S
C2743 C2744 1.434 . S
C2744 C2735 1.429 . S
C2744 N2741 1.350 . S
C2744 C2743 1.434 . S
C2745 C2746 1.369 . S
C2745 C2747 1.419 . S
C2745 H2749 0.930 . S
C2746 C2745 1.369 . S
C2746 C2755 1.429 . S
C2747 C2745 1.419 . S
C2747 C2748 1.363 . S
C2747 H2750 0.929 . S
C2748 C2747 1.363 . S
C2748 C2754 1.428 . S
H2749 C2745 0.930 . S
H2750 C2747 0.929 . S
S2751 N2752 1.613 . S
S2751 N2753 1.610 . S
N2752 S2751 1.613 . S
N2752 C2755 1.350 . S
N2753 S2751 1.610 . S
N2753 C2754 1.351 . S
C2754 C2748 1.428 . S
C2754 N2753 1.351 . S
C2754 C2755 1.434 . S
C2755 C2746 1.429 . S
C2755 N2752 1.350 . S
C2755 C2754 1.434 . S
C2756 C2757 1.369 . S
C2756 C2758 1.419 . S
C2756 H2760 0.930 . S
C2757 C2756 1.369 . S
C2757 C2766 1.429 . S
C2758 C2756 1.419 . S
C2758 C2759 1.363 . S
C2758 H2761 0.929 . S
C2759 C2758 1.363 . S
C2759 C2765 1.428 . S
H2760 C2756 0.930 . S
H2761 C2758 0.929 . S
S2762 N2763 1.613 . S
S2762 N2764 1.610 . S
N2763 S2762 1.613 . S
N2763 C2766 1.350 . S
N2764 S2762 1.610 . S
N2764 C2765 1.351 . S
C2765 C2759 1.428 . S
C2765 N2764 1.351 . S
C2765 C2766 1.434 . S
C2766 C2757 1.429 . S
C2766 N2763 1.350 . S
C2766 C2765 1.434 . S
C2767 C2768 1.369 . S
C2767 C2769 1.419 . S
C2767 H2771 0.930 . S
C2768 C2767 1.369 . S
C2768 C2777 1.429 . S
C2769 C2767 1.419 . S
C2769 C2770 1.363 . S
C2769 H2772 0.929 . S
C2770 C2769 1.363 . S
C2770 C2776 1.428 . S
H2771 C2767 0.930 . S
H2772 C2769 0.929 . S
S2773 N2774 1.613 . S
S2773 N2775 1.610 . S
N2774 S2773 1.613 . S
N2774 C2777 1.350 . S
N2775 S2773 1.610 . S
N2775 C2776 1.351 . S
C2776 C2770 1.428 . S
C2776 N2775 1.351 . S
C2776 C2777 1.434 . S
C2777 C2768 1.429 . S
C2777 N2774 1.350 . S
C2777 C2776 1.434 . S
C2778 C2779 1.369 . S
C2778 C2780 1.419 . S
C2778 H2782 0.930 . S
C2779 C2778 1.369 . S
C2779 C2788 1.429 . S
C2780 C2778 1.419 . S
C2780 C2781 1.363 . S
C2780 H2783 0.929 . S
C2781 C2780 1.363 . S
C2781 C2787 1.428 . S
H2782 C2778 0.930 . S
H2783 C2780 0.929 . S
S2784 N2785 1.613 . S
S2784 N2786 1.610 . S
N2785 S2784 1.613 . S
N2785 C2788 1.350 . S
N2786 S2784 1.610 . S
N2786 C2787 1.351 . S
C2787 C2781 1.428 . S
C2787 N2786 1.351 . S
C2787 C2788 1.434 . S
C2788 C2779 1.429 . S
C2788 N2785 1.350 . S
C2788 C2787 1.434 . S
C2789 C2790 1.369 . S
C2789 C2791 1.419 . S
C2789 H2793 0.930 . S
C2790 C2789 1.369 . S
C2790 C2799 1.429 . S
C2791 C2789 1.419 . S
C2791 C2792 1.363 . S
C2791 H2794 0.929 . S
C2792 C2791 1.363 . S
C2792 C2798 1.428 . S
H2793 C2789 0.930 . S
H2794 C2791 0.929 . S
S2795 N2796 1.613 . S
S2795 N2797 1.610 . S
N2796 S2795 1.613 . S
N2796 C2799 1.350 . S
N2797 S2795 1.610 . S
N2797 C2798 1.351 . S
C2798 C2792 1.428 . S
C2798 N2797 1.351 . S
C2798 C2799 1.434 . S
C2799 C2790 1.429 . S
C2799 N2796 1.350 . S
C2799 C2798 1.434 . S
C2800 C2801 1.369 . S
C2800 C2802 1.419 . S
C2800 H2804 0.930 . S
C2801 C2800 1.369 . S
C2801 C2810 1.429 . S
C2802 C2800 1.419 . S
C2802 C2803 1.363 . S
C2802 H2805 0.929 . S
C2803 C2802 1.363 . S
C2803 C2809 1.428 . S
H2804 C2800 0.930 . S
H2805 C2802 0.929 . S
S2806 N2807 1.613 . S
S2806 N2808 1.610 . S
N2807 S2806 1.613 . S
N2807 C2810 1.350 . S
N2808 S2806 1.610 . S
N2808 C2809 1.351 . S
C2809 C2803 1.428 . S
C2809 N2808 1.351 . S
C2809 C2810 1.434 . S
C2810 C2801 1.429 . S
C2810 N2807 1.350 . S
C2810 C2809 1.434 . S
C2811 C2812 1.369 . S
C2811 C2813 1.419 . S
C2811 H2815 0.930 . S
C2812 C2811 1.369 . S
C2812 C2821 1.429 . S
C2813 C2811 1.419 . S
C2813 C2814 1.363 . S
C2813 H2816 0.929 . S
C2814 C2813 1.363 . S
C2814 C2820 1.428 . S
H2815 C2811 0.930 . S
H2816 C2813 0.929 . S
S2817 N2818 1.613 . S
S2817 N2819 1.610 . S
N2818 S2817 1.613 . S
N2818 C2821 1.350 . S
N2819 S2817 1.610 . S
N2819 C2820 1.351 . S
C2820 C2814 1.428 . S
C2820 N2819 1.351 . S
C2820 C2821 1.434 . S
C2821 C2812 1.429 . S
C2821 N2818 1.350 . S
C2821 C2820 1.434 . S
C2822 C2823 1.369 . S
C2822 C2824 1.419 . S
C2822 H2826 0.930 . S
C2823 C2822 1.369 . S
C2823 C2832 1.429 . S
C2824 C2822 1.419 . S
C2824 C2825 1.363 . S
C2824 H2827 0.929 . S
C2825 C2824 1.363 . S
C2825 C2831 1.428 . S
H2826 C2822 0.930 . S
H2827 C2824 0.929 . S
S2828 N2829 1.613 . S
S2828 N2830 1.610 . S
N2829 S2828 1.613 . S
N2829 C2832 1.350 . S
N2830 S2828 1.610 . S
N2830 C2831 1.351 . S
C2831 C2825 1.428 . S
C2831 N2830 1.351 . S
C2831 C2832 1.434 . S
C2832 C2823 1.429 . S
C2832 N2829 1.350 . S
C2832 C2831 1.434 . S
C2833 C2834 1.369 . S
C2833 C2835 1.419 . S
C2833 H2837 0.930 . S
C2834 C2833 1.369 . S
C2834 C2843 1.429 . S
C2835 C2833 1.419 . S
C2835 C2836 1.363 . S
C2835 H2838 0.929 . S
C2836 C2835 1.363 . S
C2836 C2842 1.428 . S
H2837 C2833 0.930 . S
H2838 C2835 0.929 . S
S2839 N2840 1.613 . S
S2839 N2841 1.610 . S
N2840 S2839 1.613 . S
N2840 C2843 1.350 . S
N2841 S2839 1.610 . S
N2841 C2842 1.351 . S
C2842 C2836 1.428 . S
C2842 N2841 1.351 . S
C2842 C2843 1.434 . S
C2843 C2834 1.429 . S
C2843 N2840 1.350 . S
C2843 C2842 1.434 . S
C2844 C2845 1.369 . S
C2844 C2846 1.419 . S
C2844 H2848 0.930 . S
C2845 C2844 1.369 . S
C2845 C2854 1.429 . S
C2846 C2844 1.419 . S
C2846 C2847 1.363 . S
C2846 H2849 0.929 . S
C2847 C2846 1.363 . S
C2847 C2853 1.428 . S
H2848 C2844 0.930 . S
H2849 C2846 0.929 . S
S2850 N2851 1.613 . S
S2850 N2852 1.610 . S
N2851 S2850 1.613 . S
N2851 C2854 1.350 . S
N2852 S2850 1.610 . S
N2852 C2853 1.351 . S
C2853 C2847 1.428 . S
C2853 N2852 1.351 . S
C2853 C2854 1.434 . S
C2854 C2845 1.429 . S
C2854 N2851 1.350 . S
C2854 C2853 1.434 . S
C2855 C2856 1.369 . S
C2855 C2857 1.419 . S
C2855 H2859 0.930 . S
C2856 C2855 1.369 . S
C2856 C2865 1.429 . S
C2857 C2855 1.419 . S
C2857 C2858 1.363 . S
C2857 H2860 0.929 . S
C2858 C2857 1.363 . S
C2858 C2864 1.428 . S
H2859 C2855 0.930 . S
H2860 C2857 0.929 . S
S2861 N2862 1.613 . S
S2861 N2863 1.610 . S
N2862 S2861 1.613 . S
N2862 C2865 1.350 . S
N2863 S2861 1.610 . S
N2863 C2864 1.351 . S
C2864 C2858 1.428 . S
C2864 N2863 1.351 . S
C2864 C2865 1.434 . S
C2865 C2856 1.429 . S
C2865 N2862 1.350 . S
C2865 C2864 1.434 . S
C2866 C2867 1.369 . S
C2866 C2868 1.419 . S
C2866 H2870 0.930 . S
C2867 C2866 1.369 . S
C2867 C2876 1.429 . S
C2868 C2866 1.419 . S
C2868 C2869 1.363 . S
C2868 H2871 0.929 . S
C2869 C2868 1.363 . S
C2869 C2875 1.428 . S
H2870 C2866 0.930 . S
H2871 C2868 0.929 . S
S2872 N2873 1.613 . S
S2872 N2874 1.610 . S
N2873 S2872 1.613 . S
N2873 C2876 1.350 . S
N2874 S2872 1.610 . S
N2874 C2875 1.351 . S
C2875 C2869 1.428 . S
C2875 N2874 1.351 . S
C2875 C2876 1.434 . S
C2876 C2867 1.429 . S
C2876 N2873 1.350 . S
C2876 C2875 1.434 . S
C2877 C2878 1.369 . S
C2877 C2879 1.419 . S
C2877 H2881 0.930 . S
C2878 C2877 1.369 . S
C2878 C2887 1.429 . S
C2879 C2877 1.419 . S
C2879 C2880 1.363 . S
C2879 H2882 0.929 . S
C2880 C2879 1.363 . S
C2880 C2886 1.428 . S
H2881 C2877 0.930 . S
H2882 C2879 0.929 . S
S2883 N2884 1.613 . S
S2883 N2885 1.610 1_554 S
N2884 S2883 1.613 . S
N2884 C2887 1.350 1_554 S
N2885 S2883 1.610 1_556 S
N2885 C2886 1.351 . S
C2886 C2880 1.428 . S
C2886 N2885 1.351 . S
C2886 C2887 1.434 . S
C2887 C2878 1.429 . S
C2887 N2884 1.350 1_556 S
C2887 C2886 1.434 . S
C2888 C2889 1.369 . S
C2888 C2890 1.419 . S
C2888 H2892 0.930 . S
C2889 C2888 1.369 . S
C2889 C2898 1.429 . S
C2890 C2888 1.419 . S
C2890 C2891 1.363 . S
C2890 H2893 0.929 . S
C2891 C2890 1.363 . S
C2891 C2897 1.428 . S
H2892 C2888 0.930 . S
H2893 C2890 0.929 . S
S2894 N2895 1.613 . S
S2894 N2896 1.610 . S
N2895 S2894 1.613 . S
N2895 C2898 1.350 . S
N2896 S2894 1.610 . S
N2896 C2897 1.351 . S
C2897 C2891 1.428 . S
C2897 N2896 1.351 . S
C2897 C2898 1.434 . S
C2898 C2889 1.429 . S
C2898 N2895 1.350 . S
C2898 C2897 1.434 . S
C2899 C2900 1.369 . S
C2899 C2901 1.419 . S
C2899 H2903 0.930 . S
C2900 C2899 1.369 . S
C2900 C2909 1.429 . S
C2901 C2899 1.419 . S
C2901 C2902 1.363 . S
C2901 H2904 0.929 . S
C2902 C2901 1.363 . S
C2902 C2908 1.428 . S
H2903 C2899 0.930 . S
H2904 C2901 0.929 . S
S2905 N2906 1.613 1_554 S
S2905 N2907 1.610 1_554 S
N2906 S2905 1.613 1_556 S
N2906 C2909 1.350 . S
N2907 S2905 1.610 1_556 S
N2907 C2908 1.351 . S
C2908 C2902 1.428 . S
C2908 N2907 1.351 . S
C2908 C2909 1.434 . S
C2909 C2900 1.429 . S
C2909 N2906 1.350 . S
C2909 C2908 1.434 . S
C2910 C2911 1.369 . S
C2910 C2912 1.419 . S
C2910 H2914 0.930 . S
C2911 C2910 1.369 . S
C2911 C2920 1.429 . S
C2912 C2910 1.419 . S
C2912 C2913 1.363 . S
C2912 H2915 0.929 . S
C2913 C2912 1.363 . S
C2913 C2919 1.428 . S
H2914 C2910 0.930 . S
H2915 C2912 0.929 . S
S2916 N2917 1.613 . S
S2916 N2918 1.610 . S
N2917 S2916 1.613 . S
N2917 C2920 1.350 . S
N2918 S2916 1.610 . S
N2918 C2919 1.351 . S
C2919 C2913 1.428 . S
C2919 N2918 1.351 . S
C2919 C2920 1.434 . S
C2920 C2911 1.429 . S
C2920 N2917 1.350 . S
C2920 C2919 1.434 . S
C2921 C2922 1.369 . S
C2921 C2923 1.419 . S
C2921 H2925 0.930 . S
C2922 C2921 1.369 . S
C2922 C2931 1.429 . S
C2923 C2921 1.419 . S
C2923 C2924 1.363 . S
C2923 H2926 0.929 . S
C2924 C2923 1.363 . S
C2924 C2930 1.428 . S
H2925 C2921 0.930 . S
H2926 C2923 0.929 . S
S2927 N2928 1.613 . S
S2927 N2929 1.610 . S
N2928 S2927 1.613 . S
N2928 C2931 1.350 . S
N2929 S2927 1.610 . S
N2929 C2930 1.351 . S
C2930 C2924 1.428 . S
C2930 N2929 1.351 . S
C2930 C2931 1.434 . S
C2931 C2922 1.429 . S
C2931 N2928 1.350 . S
C2931 C2930 1.434 . S
C2932 C2933 1.369 . S
C2932 C2934 1.419 . S
C2932 H2936 0.960 . S
C2933 C2932 1.369 . S
C2933 C2942 1.429 . S
C2934 C2932 1.419 . S
C2934 C2935 1.363 . S
C2934 H2937 0.929 . S
C2935 C2934 1.363 . S
C2935 C2941 1.428 . S
H2936 C2932 0.960 . S
H2937 C2934 0.929 . S
S2938 N2939 1.613 . S
S2938 N2940 1.610 . S
N2939 S2938 1.613 . S
N2939 C2942 1.350 . S
N2940 S2938 1.610 . S
N2940 C2941 1.351 . S
C2941 C2935 1.428 . S
C2941 N2940 1.351 . S
C2941 C2942 1.434 . S
C2942 C2933 1.429 . S
C2942 N2939 1.350 . S
C2942 C2941 1.434 . S
C2943 C2944 1.369 . S
C2943 C2945 1.419 . S
C2943 H2947 0.930 . S
C2944 C2943 1.369 . S
C2944 C2953 1.429 . S
C2945 C2943 1.419 . S
C2945 C2946 1.363 . S
C2945 H2948 0.929 . S
C2946 C2945 1.363 . S
C2946 C2952 1.428 . S
H2947 C2943 0.930 . S
H2948 C2945 0.929 . S
S2949 N2950 1.613 . S
S2949 N2951 1.610 . S
N2950 S2949 1.613 . S
N2950 C2953 1.350 . S
N2951 S2949 1.610 . S
N2951 C2952 1.351 . S
C2952 C2946 1.428 . S
C2952 N2951 1.351 . S
C2952 C2953 1.434 . S
C2953 C2944 1.429 . S
C2953 N2950 1.350 . S
C2953 C2952 1.434 . S
C2954 C2955 1.369 . S
C2954 C2956 1.419 . S
C2954 H2958 0.930 . S
C2955 C2954 1.369 . S
C2955 C2964 1.429 . S
C2956 C2954 1.419 . S
C2956 C2957 1.363 . S
C2956 H2959 0.929 . S
C2957 C2956 1.363 . S
C2957 C2963 1.428 . S
H2958 C2954 0.930 . S
H2959 C2956 0.929 . S
S2960 N2961 1.613 . S
S2960 N2962 1.610 . S
N2961 S2960 1.613 . S
N2961 C2964 1.350 . S
N2962 S2960 1.610 . S
N2962 C2963 1.351 . S
C2963 C2957 1.428 . S
C2963 N2962 1.351 . S
C2963 C2964 1.434 . S
C2964 C2955 1.429 . S
C2964 N2961 1.350 . S
C2964 C2963 1.434 . S
C2965 C2966 1.369 . S
C2965 C2967 1.419 . S
C2965 H2969 0.930 . S
C2966 C2965 1.369 . S
C2966 C2975 1.429 . S
C2967 C2965 1.419 . S
C2967 C2968 1.363 . S
C2967 H2970 0.929 . S
C2968 C2967 1.363 . S
C2968 C2974 1.428 . S
H2969 C2965 0.930 . S
H2970 C2967 0.929 . S
S2971 N2972 1.613 . S
S2971 N2973 1.610 . S
N2972 S2971 1.613 . S
N2972 C2975 1.350 . S
N2973 S2971 1.610 . S
N2973 C2974 1.351 . S
C2974 C2968 1.428 . S
C2974 N2973 1.351 . S
C2974 C2975 1.434 . S
C2975 C2966 1.429 . S
C2975 N2972 1.350 . S
C2975 C2974 1.434 . S
C2976 C2977 1.369 . S
C2976 C2978 1.419 . S
C2976 H2980 0.930 . S
C2977 C2976 1.369 . S
C2977 C2986 1.429 . S
C2978 C2976 1.419 . S
C2978 C2979 1.363 . S
C2978 H2981 0.929 . S
C2979 C2978 1.363 . S
C2979 C2985 1.428 . S
H2980 C2976 0.930 . S
H2981 C2978 0.929 . S
S2982 N2983 1.613 . S
S2982 N2984 1.610 . S
N2983 S2982 1.613 . S
N2983 C2986 1.350 . S
N2984 S2982 1.610 . S
N2984 C2985 1.351 . S
C2985 C2979 1.428 . S
C2985 N2984 1.351 . S
C2985 C2986 1.434 . S
C2986 C2977 1.429 . S
C2986 N2983 1.350 . S
C2986 C2985 1.434 . S
C2987 C2988 1.369 . S
C2987 C2989 1.419 . S
C2987 H2991 0.930 . S
C2988 C2987 1.369 . S
C2988 C2997 1.429 . S
C2989 C2987 1.419 . S
C2989 C2990 1.363 . S
C2989 H2992 0.929 . S
C2990 C2989 1.363 . S
C2990 C2996 1.428 . S
H2991 C2987 0.930 . S
H2992 C2989 0.929 . S
S2993 N2994 1.613 . S
S2993 N2995 1.610 . S
N2994 S2993 1.613 . S
N2994 C2997 1.350 . S
N2995 S2993 1.610 . S
N2995 C2996 1.351 . S
C2996 C2990 1.428 . S
C2996 N2995 1.351 . S
C2996 C2997 1.434 . S
C2997 C2988 1.429 . S
C2997 N2994 1.350 . S
C2997 C2996 1.434 . S
C2998 C2999 1.369 . S
C2998 C3000 1.419 . S
C2998 H3002 0.930 . S
C2999 C2998 1.369 . S
C2999 C3008 1.429 . S
C3000 C2998 1.419 . S
C3000 C3001 1.363 . S
C3000 H3003 0.929 . S
C3001 C3000 1.363 . S
C3001 C3007 1.428 . S
H3002 C2998 0.930 . S
H3003 C3000 0.929 . S
S3004 N3005 1.613 . S
S3004 N3006 1.610 . S
N3005 S3004 1.613 . S
N3005 C3008 1.350 . S
N3006 S3004 1.610 . S
N3006 C3007 1.351 . S
C3007 C3001 1.428 . S
C3007 N3006 1.351 . S
C3007 C3008 1.434 . S
C3008 C2999 1.429 . S
C3008 N3005 1.350 . S
C3008 C3007 1.434 . S
C3009 C3010 1.369 1_655 S
C3009 C3011 1.419 . S
C3009 H3013 0.930 . S
C3010 C3009 1.369 1_455 S
C3010 C3019 1.429 . S
C3011 C3009 1.419 . S
C3011 C3012 1.363 1_655 S
C3011 H3014 0.929 . S
C3012 C3011 1.363 1_455 S
C3012 C3018 1.428 . S
H3013 C3009 0.930 . S
H3014 C3011 0.929 . S
S3015 N3016 1.613 . S
S3015 N3017 1.610 . S
N3016 S3015 1.613 . S
N3016 C3019 1.350 . S
N3017 S3015 1.610 . S
N3017 C3018 1.351 . S
C3018 C3012 1.428 . S
C3018 N3017 1.351 . S
C3018 C3019 1.434 . S
C3019 C3010 1.429 . S
C3019 N3016 1.350 . S
C3019 C3018 1.434 . S
C3020 C3021 1.369 . S
C3020 C3022 1.419 . S
C3020 H3024 0.930 . S
C3021 C3020 1.369 . S
C3021 C3030 1.429 . S
C3022 C3020 1.419 . S
C3022 C3023 1.363 . S
C3022 H3025 0.929 . S
C3023 C3022 1.363 . S
C3023 C3029 1.428 . S
H3024 C3020 0.930 . S
H3025 C3022 0.929 . S
S3026 N3027 1.613 . S
S3026 N3028 1.610 . S
N3027 S3026 1.613 . S
N3027 C3030 1.350 . S
N3028 S3026 1.610 . S
N3028 C3029 1.351 . S
C3029 C3023 1.428 . S
C3029 N3028 1.351 . S
C3029 C3030 1.434 . S
C3030 C3021 1.429 . S
C3030 N3027 1.350 . S
C3030 C3029 1.434 . S
C3031 C3032 1.369 . S
C3031 C3033 1.419 . S
C3031 H3035 0.930 . S
C3032 C3031 1.369 . S
C3032 C3041 1.429 . S
C3033 C3031 1.419 . S
C3033 C3034 1.363 . S
C3033 H3036 0.929 . S
C3034 C3033 1.363 . S
C3034 C3040 1.391 1_565 S
H3035 C3031 0.930 . S
H3036 C3033 0.929 . S
S3037 N3038 1.613 . S
S3037 N3039 1.610 . S
N3038 S3037 1.613 . S
N3038 C3041 1.350 1_545 S
N3039 S3037 1.610 . S
N3039 C3040 1.375 . S
C3040 C3034 1.391 1_545 S
C3040 N3039 1.375 . S
C3040 C3041 1.453 1_545 S
C3041 C3032 1.429 . S
C3041 N3038 1.350 1_565 S
C3041 C3040 1.453 1_565 S
C3042 C3043 1.369 1_545 S
C3042 C3044 1.419 . S
C3042 H3046 0.930 . S
C3043 C3042 1.369 1_565 S
C3043 C3052 1.429 . S
C3044 C3042 1.419 . S
C3044 C3045 1.363 1_545 S
C3044 H3047 0.929 . S
C3045 C3044 1.363 1_565 S
C3045 C3051 1.428 . S
H3046 C3042 0.930 . S
H3047 C3044 0.929 . S
S3048 N3049 1.613 . S
S3048 N3050 1.610 . S
N3049 S3048 1.613 . S
N3049 C3052 1.350 . S
N3050 S3048 1.610 . S
N3050 C3051 1.351 . S
C3051 C3045 1.428 . S
C3051 N3050 1.351 . S
C3051 C3052 1.434 . S
C3052 C3043 1.429 . S
C3052 N3049 1.350 . S
C3052 C3051 1.434 . S
C3053 C3054 1.369 1_655 S
C3053 C3055 1.419 . S
C3053 H3057 0.930 . S
C3054 C3053 1.369 1_455 S
C3054 C3063 1.429 . S
C3055 C3053 1.419 . S
C3055 C3056 1.363 1_655 S
C3055 H3058 0.929 . S
C3056 C3055 1.363 1_455 S
C3056 C3062 1.428 . S
H3057 C3053 0.930 . S
H3058 C3055 0.929 . S
S3059 N3060 1.613 . S
S3059 N3061 1.610 . S
N3060 S3059 1.613 . S
N3060 C3063 1.350 . S
N3061 S3059 1.610 . S
N3061 C3062 1.351 . S
C3062 C3056 1.428 . S
C3062 N3061 1.351 . S
C3062 C3063 1.434 . S
C3063 C3054 1.429 . S
C3063 N3060 1.350 . S
C3063 C3062 1.434 . S
C3064 C3065 1.369 . S
C3064 C3066 1.419 . S
C3064 H3068 0.930 . S
C3065 C3064 1.369 . S
C3065 C3074 1.429 . S
C3066 C3064 1.419 . S
C3066 C3067 1.363 . S
C3066 H3069 0.929 . S
C3067 C3066 1.363 . S
C3067 C3073 1.428 . S
H3068 C3064 0.930 . S
H3069 C3066 0.929 . S
S3070 N3071 1.613 . S
S3070 N3072 1.610 . S
N3071 S3070 1.613 . S
N3071 C3074 1.350 . S
N3072 S3070 1.610 . S
N3072 C3073 1.351 . S
C3073 C3067 1.428 . S
C3073 N3072 1.351 . S
C3073 C3074 1.434 . S
C3074 C3065 1.429 . S
C3074 N3071 1.350 . S
C3074 C3073 1.434 . S
C3075 C3076 1.369 . S
C3075 C3077 1.419 . S
C3075 H3079 0.930 . S
C3076 C3075 1.369 . S
C3076 C3085 1.429 . S
C3077 C3075 1.419 . S
C3077 C3078 1.363 . S
C3077 H3080 0.929 . S
C3078 C3077 1.363 . S
C3078 C3084 1.428 . S
H3079 C3075 0.930 . S
H3080 C3077 0.929 . S
S3081 N3082 1.613 . S
S3081 N3083 1.610 . S
N3082 S3081 1.613 . S
N3082 C3085 1.350 . S
N3083 S3081 1.610 . S
N3083 C3084 1.351 . S
C3084 C3078 1.428 . S
C3084 N3083 1.351 . S
C3084 C3085 1.434 . S
C3085 C3076 1.429 . S
C3085 N3082 1.350 . S
C3085 C3084 1.434 . S
C3086 C3087 1.369 . S
C3086 C3088 1.419 . S
C3086 H3090 0.930 . S
C3087 C3086 1.369 . S
C3087 C3096 1.429 . S
C3088 C3086 1.419 . S
C3088 C3089 1.363 . S
C3088 H3091 0.929 . S
C3089 C3088 1.363 . S
C3089 C3095 1.428 . S
H3090 C3086 0.930 . S
H3091 C3088 0.929 . S
S3092 N3093 1.613 . S
S3092 N3094 1.610 . S
N3093 S3092 1.613 . S
N3093 C3096 1.350 . S
N3094 S3092 1.610 . S
N3094 C3095 1.351 . S
C3095 C3089 1.428 . S
C3095 N3094 1.351 . S
C3095 C3096 1.434 . S
C3096 C3087 1.429 . S
C3096 N3093 1.350 . S
C3096 C3095 1.434 . S
C3097 C3098 1.369 . S
C3097 C3099 1.419 . S
C3097 H3101 0.930 . S
C3098 C3097 1.369 . S
C3098 C3107 1.429 . S
C3099 C3097 1.419 . S
C3099 C3100 1.363 . S
C3099 H3102 0.929 . S
C3100 C3099 1.363 . S
C3100 C3106 1.428 . S
H3101 C3097 0.930 . S
H3102 C3099 0.929 . S
S3103 N3104 1.613 . S
S3103 N3105 1.610 . S
N3104 S3103 1.613 . S
N3104 C3107 1.350 . S
N3105 S3103 1.610 . S
N3105 C3106 1.351 . S
C3106 C3100 1.428 . S
C3106 N3105 1.351 . S
C3106 C3107 1.434 . S
C3107 C3098 1.429 . S
C3107 N3104 1.350 . S
C3107 C3106 1.434 . S
C3108 C3109 1.369 . S
C3108 C3110 1.419 . S
C3108 H3112 0.930 . S
C3109 C3108 1.369 . S
C3109 C3118 1.429 . S
C3110 C3108 1.419 . S
C3110 C3111 1.363 . S
C3110 H3113 0.929 . S
C3111 C3110 1.363 . S
C3111 C3117 1.428 . S
H3112 C3108 0.930 . S
H3113 C3110 0.929 . S
S3114 N3115 1.584 1_565 S
S3114 N3116 1.610 . S
N3115 S3114 1.584 1_545 S
N3115 C3118 1.337 . S
N3116 S3114 1.610 . S
N3116 C3117 1.351 1_565 S
C3117 C3111 1.428 . S
C3117 N3116 1.351 1_545 S
C3117 C3118 1.434 . S
C3118 C3109 1.429 . S
C3118 N3115 1.337 . S
C3118 C3117 1.434 . S
C3119 C3120 1.369 . S
C3119 C3121 1.419 . S
C3119 H3123 0.930 . S
C3120 C3119 1.369 . S
C3120 C3129 1.429 . S
C3121 C3119 1.419 . S
C3121 C3122 1.363 . S
C3121 H3124 0.918 1_655 S
C3122 C3121 1.363 . S
C3122 C3128 1.428 . S
H3123 C3119 0.930 . S
H3124 C3121 0.918 1_455 S
S3125 N3126 1.613 . S
S3125 N3127 1.610 . S
N3126 S3125 1.613 . S
N3126 C3129 1.350 . S
N3127 S3125 1.610 . S
N3127 C3128 1.351 . S
C3128 C3122 1.428 . S
C3128 N3127 1.351 . S
C3128 C3129 1.434 . S
C3129 C3120 1.429 . S
C3129 N3126 1.350 . S
C3129 C3128 1.434 . S
C3130 C3131 1.369 . S
C3130 C3132 1.419 . S
C3130 H3134 0.930 . S
C3131 C3130 1.369 . S
C3131 C3140 1.429 . S
C3132 C3130 1.419 . S
C3132 C3133 1.363 . S
C3132 H3135 0.929 . S
C3133 C3132 1.363 . S
C3133 C3139 1.428 . S
H3134 C3130 0.930 . S
H3135 C3132 0.929 . S
S3136 N3137 1.613 . S
S3136 N3138 1.610 . S
N3137 S3136 1.613 . S
N3137 C3140 1.350 . S
N3138 S3136 1.610 . S
N3138 C3139 1.351 . S
C3139 C3133 1.428 . S
C3139 N3138 1.351 . S
C3139 C3140 1.434 . S
C3140 C3131 1.429 . S
C3140 N3137 1.350 . S
C3140 C3139 1.434 . S
C3141 C3142 1.369 . S
C3141 C3143 1.419 . S
C3141 H3145 0.930 . S
C3142 C3141 1.369 . S
C3142 C3151 1.429 . S
C3143 C3141 1.419 . S
C3143 C3144 1.363 . S
C3143 H3146 0.929 . S
C3144 C3143 1.363 . S
C3144 C3150 1.428 . S
H3145 C3141 0.930 . S
H3146 C3143 0.929 . S
S3147 N3148 1.613 . S
S3147 N3149 1.610 . S
N3148 S3147 1.613 . S
N3148 C3151 1.350 . S
N3149 S3147 1.610 . S
N3149 C3150 1.351 . S
C3150 C3144 1.428 . S
C3150 N3149 1.351 . S
C3150 C3151 1.434 . S
C3151 C3142 1.429 . S
C3151 N3148 1.350 . S
C3151 C3150 1.434 . S
C3152 C3153 1.369 . S
C3152 C3154 1.419 . S
C3152 H3156 0.930 . S
C3153 C3152 1.369 . S
C3153 C3162 1.429 . S
C3154 C3152 1.419 . S
C3154 C3155 1.363 . S
C3154 H3157 0.929 . S
C3155 C3154 1.363 . S
C3155 C3161 1.428 . S
H3156 C3152 0.930 . S
H3157 C3154 0.929 . S
S3158 N3159 1.613 . S
S3158 N3160 1.610 . S
N3159 S3158 1.613 . S
N3159 C3162 1.350 . S
N3160 S3158 1.610 . S
N3160 C3161 1.351 . S
C3161 C3155 1.428 . S
C3161 N3160 1.351 . S
C3161 C3162 1.434 . S
C3162 C3153 1.429 . S
C3162 N3159 1.350 . S
C3162 C3161 1.434 . S
C3163 C3164 1.369 . S
C3163 C3165 1.419 . S
C3163 H3167 0.930 . S
C3164 C3163 1.369 . S
C3164 C3173 1.429 . S
C3165 C3163 1.419 . S
C3165 C3166 1.363 . S
C3165 H3168 0.929 . S
C3166 C3165 1.363 . S
C3166 C3172 1.428 . S
H3167 C3163 0.930 . S
H3168 C3165 0.929 . S
S3169 N3170 1.613 . S
S3169 N3171 1.610 . S
N3170 S3169 1.613 . S
N3170 C3173 1.350 . S
N3171 S3169 1.610 . S
N3171 C3172 1.351 . S
C3172 C3166 1.428 . S
C3172 N3171 1.351 . S
C3172 C3173 1.434 . S
C3173 C3164 1.429 . S
C3173 N3170 1.350 . S
C3173 C3172 1.434 . S
C3174 C3175 1.369 . S
C3174 C3176 1.419 . S
C3174 H3178 0.930 . S
C3175 C3174 1.369 . S
C3175 C3184 1.429 . S
C3176 C3174 1.419 . S
C3176 C3177 1.363 . S
C3176 H3179 0.929 . S
C3177 C3176 1.363 . S
C3177 C3183 1.428 . S
H3178 C3174 0.930 . S
H3179 C3176 0.929 . S
S3180 N3181 1.613 . S
S3180 N3182 1.610 . S
N3181 S3180 1.613 . S
N3181 C3184 1.350 . S
N3182 S3180 1.610 . S
N3182 C3183 1.351 . S
C3183 C3177 1.428 . S
C3183 N3182 1.351 . S
C3183 C3184 1.434 . S
C3184 C3175 1.429 . S
C3184 N3181 1.350 . S
C3184 C3183 1.434 . S
C3185 C3186 1.369 . S
C3185 C3187 1.419 . S
C3185 H3189 0.930 . S
C3186 C3185 1.369 . S
C3186 C3195 1.429 . S
C3187 C3185 1.419 . S
C3187 C3188 1.363 . S
C3187 H3190 0.929 . S
C3188 C3187 1.363 . S
C3188 C3194 1.428 . S
H3189 C3185 0.930 . S
H3190 C3187 0.929 . S
S3191 N3192 1.613 . S
S3191 N3193 1.610 . S
N3192 S3191 1.613 . S
N3192 C3195 1.350 . S
N3193 S3191 1.610 . S
N3193 C3194 1.351 . S
C3194 C3188 1.428 . S
C3194 N3193 1.351 . S
C3194 C3195 1.434 . S
C3195 C3186 1.429 . S
C3195 N3192 1.350 . S
C3195 C3194 1.434 . S
C3196 C3197 1.369 . S
C3196 C3198 1.419 . S
C3196 H3200 0.930 . S
C3197 C3196 1.369 . S
C3197 C3206 1.429 . S
C3198 C3196 1.419 . S
C3198 C3199 1.363 . S
C3198 H3201 0.929 . S
C3199 C3198 1.363 . S
C3199 C3205 1.428 . S
H3200 C3196 0.930 . S
H3201 C3198 0.929 . S
S3202 N3203 1.613 . S
S3202 N3204 1.610 . S
N3203 S3202 1.613 . S
N3203 C3206 1.350 . S
N3204 S3202 1.610 . S
N3204 C3205 1.351 . S
C3205 C3199 1.428 . S
C3205 N3204 1.351 . S
C3205 C3206 1.434 . S
C3206 C3197 1.429 . S
C3206 N3203 1.350 . S
C3206 C3205 1.434 . S
C3207 C3208 1.369 1_455 S
C3207 C3209 1.419 . S
C3207 H3211 0.930 . S
C3208 C3207 1.369 1_655 S
C3208 C3217 1.429 . S
C3209 C3207 1.419 . S
C3209 C3210 1.363 1_455 S
C3209 H3212 0.929 . S
C3210 C3209 1.363 1_655 S
C3210 C3216 1.428 . S
H3211 C3207 0.930 . S
H3212 C3209 0.929 . S
S3213 N3214 1.613 . S
S3213 N3215 1.610 . S
N3214 S3213 1.613 . S
N3214 C3217 1.350 . S
N3215 S3213 1.610 . S
N3215 C3216 1.351 . S
C3216 C3210 1.428 . S
C3216 N3215 1.351 . S
C3216 C3217 1.434 . S
C3217 C3208 1.429 . S
C3217 N3214 1.350 . S
C3217 C3216 1.434 . S
C3218 C3219 1.369 . S
C3218 C3220 1.419 . S
C3218 H3222 0.930 . S
C3219 C3218 1.369 . S
C3219 C3228 1.429 . S
C3220 C3218 1.419 . S
C3220 C3221 1.363 . S
C3220 H3223 0.929 . S
C3221 C3220 1.363 . S
C3221 C3227 1.428 . S
H3222 C3218 0.930 . S
H3223 C3220 0.929 . S
S3224 N3225 1.613 . S
S3224 N3226 1.610 . S
N3225 S3224 1.613 . S
N3225 C3228 1.350 . S
N3226 S3224 1.610 . S
N3226 C3227 1.351 . S
C3227 C3221 1.428 . S
C3227 N3226 1.351 . S
C3227 C3228 1.434 . S
C3228 C3219 1.429 . S
C3228 N3225 1.350 . S
C3228 C3227 1.434 . S
C3229 C3230 1.369 . S
C3229 C3231 1.419 . S
C3229 H3233 0.930 . S
C3230 C3229 1.369 . S
C3230 C3239 1.429 1_545 S
C3231 C3229 1.419 . S
C3231 C3232 1.363 . S
C3231 H3234 0.929 . S
C3232 C3231 1.363 . S
C3232 C3238 1.428 1_545 S
H3233 C3229 0.930 . S
H3234 C3231 0.929 . S
S3235 N3236 1.613 . S
S3235 N3237 1.610 . S
N3236 S3235 1.613 . S
N3236 C3239 1.350 . S
N3237 S3235 1.610 . S
N3237 C3238 1.351 . S
C3238 C3232 1.428 1_565 S
C3238 N3237 1.351 . S
C3238 C3239 1.434 . S
C3239 C3230 1.429 1_565 S
C3239 N3236 1.350 . S
C3239 C3238 1.434 . S
C2449 C49 1.656 . S
C2451 C2061 1.692 . S
C2460 C137 1.640 . S
C2462 C2109 1.667 . S
C2473 C2157 1.715 . S
C2471 C205 1.668 . S
C2482 C196 1.659 . S
C2484 C2181 1.724 . S
C2493 C57 1.664 . S
C2495 C2253 1.715 . S
C2504 C145 1.646 . S
C2506 C2301 1.668 . S
C2515 C313 1.658 . S
C2517 C2229 1.717 . S
C2528 C2277 1.669 . S
C2526 C401 1.651 . S
C2539 C2205 1.743 . S
C2537 C489 1.662 . S
C2548 C469 1.655 . S
C2550 C2133 1.716 . S
C2561 C2037 1.727 . S
C2559 C293 1.667 . S
C2570 C381 1.646 . S
C2572 C2085 1.669 . S
C2581 C577 1.699 . S
C2583 C2349 1.714 . S
C2592 C645 1.683 . S
C2594 C2397 1.688 . S
C2605 C2421 1.656 . S
C2603 C733 1.654 . S
C2614 C724 1.638 . S
C2616 C1605 1.651 . S
C2625 C585 1.681 . S
C2627 C1677 1.700 . S
C2636 C636 1.694 . S
C2638 C1725 1.705 . S
C2647 C841 1.637 . S
C2649 C1653 1.655 . S
C2658 C937 1.699 . S
C2660 C1701 1.708 . S
C2671 C1629 1.677 . S
C2669 C1025 1.681 . S
C2682 C2445 1.691 . S
C2680 C988 1.700 . S
C2693 C2325 1.660 . S
C2691 C821 1.651 . S
C2704 C2373 1.688 . S
C2702 C900 1.687 . S
C2713 C1105 1.636 . S
C2715 C1773 1.657 . S
C2724 C1193 1.690 . S
C2726 C1821 1.703 . S
C2735 C1281 1.683 . S
C2737 C1845 1.695 . S
C2746 C1289 1.699 . S
C2748 C1893 1.707 . S
C2759 C1965 1.664 . S
C2757 C1113 1.652 . S
C2770 C2013 1.687 . S
C2768 C1201 1.680 . S
C2781 C1941 1.718 . S
C2779 C1369 1.706 . S
C2792 C1989 1.690 . S
C2790 C1457 1.690 . S
C2801 C1553 1.647 . S
C2803 C1917 1.631 . S
C2814 C1869 1.633 . S
C2812 C1516 1.638 . S
C2823 C1349 1.685 . S
C2825 C1749 1.703 . S
C2836 C1797 1.706 . S
C2834 C1437 1.695 . S
C2847 C1614 1.663 . S
C2845 C29 1.636 . S
C2856 C117 1.554 . S
C2858 C1668 1.502 . S
C2869 C1716 1.650 . S
C2867 C225 1.667 . S
C2880 C1764 1.620 . S
C2878 C233 1.636 . S
C2891 C1812 1.642 . S
C2889 C20 1.668 . S
C2902 C1854 1.560 . S
C2900 C108 1.550 . S
C2911 C321 1.637 . S
C2913 C1860 1.659 . S
C2922 C409 1.556 . S
C2924 C1758 1.479 . S
C2933 C497 1.672 . S
C2935 C1806 1.612 . S
C2944 C460 1.642 . S
C2946 C1662 1.590 . S
C2957 C1710 1.615 . S
C2955 C284 1.678 . S
C2966 C372 1.554 . S
C2968 C1620 1.541 . S
C2979 C1902 1.553 . S
C2977 C557 1.550 . S
C2988 C665 1.606 . S
C2990 C1956 1.559 . S
C2999 C753 1.619 . S
C3001 C2004 1.561 . S
C3012 C2052 1.237 . S
C3010 C761 1.243 . S
C3021 C548 1.532 . S
C3023 C2100 1.494 . S
C3032 C673 1.242 . S
C3034 C2148 1.238 . S
C3043 C849 1.243 . S
C3045 C2142 1.226 . S
C3054 C929 1.251 . S
C3056 C2046 1.242 . S
C3067 C2094 1.467 . S
C3065 C1017 1.536 . S
C3076 C997 1.552 . S
C3078 C1950 1.486 . S
C3087 C812 1.613 . S
C3089 C1998 1.543 . S
C3100 C1908 1.591 . S
C3098 C909 1.610 . S
C3111 C2190 1.243 . S
C3109 C1085 1.236 . S
C3120 C1173 1.243 . S
C3122 C2244 1.240 . S
C3131 C1261 1.534 . S
C3133 C2292 1.493 . S
C3144 C2340 1.504 . S
C3142 C1252 1.555 . S
C3155 C2388 1.565 . S
C3153 C1076 1.613 . S
C3164 C1164 1.604 . S
C3166 C2430 1.608 . S
C3175 C1377 1.556 . S
C3177 C2436 1.544 . S
C3186 C1465 1.611 . S
C3188 C2334 1.542 . S
C3199 C2382 1.541 . S
C3197 C1545 1.610 . S
C3210 C2238 1.227 . S
C3208 C1525 1.235 . S
C3221 C2286 1.475 . S
C3219 C1340 1.540 . S
C3230 C1428 1.253 . S
C3232 C2196 1.254 . S
