# Generated by pormake.
# Topology nom, (4,4)-cn, num edge types: 1
# Building blocks:
#     Node 0, Type 0, BuildingBlock: GIZVER_clean_linker_0, # of connection points: 4
#     Node 1, Type 0, BuildingBlock: GIZVER_clean_linker_0, # of connection points: 4
#     Node 2, Type 0, BuildingBlock: GIZVER_clean_linker_0, # of connection points: 4
#     Node 3, Type 0, BuildingBlock: GIZVER_clean_linker_0, # of connection points: 4
#     Node 4, Type 0, BuildingBlock: GIZVER_clean_linker_0, # of connection points: 4
#     Node 5, Type 0, BuildingBlock: GIZVER_clean_linker_0, # of connection points: 4
#     Node 6, Type 1, BuildingBlock: QUQFOY_clean_sbu_1, # of connection points: 4
#     Node 7, Type 1, BuildingBlock: QUQFOY_clean_sbu_1, # of connection points: 4
#     Node 8, Type 1, BuildingBlock: QUQFOY_clean_sbu_1, # of connection points: 4
#     Node 9, Type 1, BuildingBlock: QUQFOY_clean_sbu_1, # of connection points: 4
#     Node 10, Type 1, BuildingBlock: QUQFOY_clean_sbu_1, # of connection points: 4
#     Node 11, Type 1, BuildingBlock: QUQFOY_clean_sbu_1, # of connection points: 4
#     Edge 12, Type (0, 1), BuildingBlock: UVAHIK_clean_linker_0, # of connection points: 2
#     Edge 13, Type (0, 1), BuildingBlock: UVAHIK_clean_linker_0, # of connection points: 2
#     Edge 14, Type (0, 1), BuildingBlock: UVAHIK_clean_linker_0, # of connection points: 2
#     Edge 15, Type (0, 1), BuildingBlock: UVAHIK_clean_linker_0, # of connection points: 2
#     Edge 16, Type (0, 1), BuildingBlock: UVAHIK_clean_linker_0, # of connection points: 2
#     Edge 17, Type (0, 1), BuildingBlock: UVAHIK_clean_linker_0, # of connection points: 2
#     Edge 18, Type (0, 1), BuildingBlock: UVAHIK_clean_linker_0, # of connection points: 2
#     Edge 19, Type (0, 1), BuildingBlock: UVAHIK_clean_linker_0, # of connection points: 2
#     Edge 20, Type (0, 1), BuildingBlock: UVAHIK_clean_linker_0, # of connection points: 2
#     Edge 21, Type (0, 1), BuildingBlock: UVAHIK_clean_linker_0, # of connection points: 2
#     Edge 22, Type (0, 1), BuildingBlock: UVAHIK_clean_linker_0, # of connection points: 2
#     Edge 23, Type (0, 1), BuildingBlock: UVAHIK_clean_linker_0, # of connection points: 2
#     Edge 24, Type (0, 1), BuildingBlock: UVAHIK_clean_linker_0, # of connection points: 2
#     Edge 25, Type (0, 1), BuildingBlock: UVAHIK_clean_linker_0, # of connection points: 2
#     Edge 26, Type (0, 1), BuildingBlock: UVAHIK_clean_linker_0, # of connection points: 2
#     Edge 27, Type (0, 1), BuildingBlock: UVAHIK_clean_linker_0, # of connection points: 2
#     Edge 28, Type (0, 1), BuildingBlock: UVAHIK_clean_linker_0, # of connection points: 2
#     Edge 29, Type (0, 1), BuildingBlock: UVAHIK_clean_linker_0, # of connection points: 2
#     Edge 30, Type (0, 1), BuildingBlock: UVAHIK_clean_linker_0, # of connection points: 2
#     Edge 31, Type (0, 1), BuildingBlock: UVAHIK_clean_linker_0, # of connection points: 2
#     Edge 32, Type (0, 1), BuildingBlock: UVAHIK_clean_linker_0, # of connection points: 2
#     Edge 33, Type (0, 1), BuildingBlock: UVAHIK_clean_linker_0, # of connection points: 2
#     Edge 34, Type (0, 1), BuildingBlock: UVAHIK_clean_linker_0, # of connection points: 2
#     Edge 35, Type (0, 1), BuildingBlock: UVAHIK_clean_linker_0, # of connection points: 2
# Relax obj value: 0.004
# Max RMSD: 0.089
# Mean RMSD: 0.076
data_MOF--net-nom--node1-QUQFOY_clean_sbu_1--node2-GIZVER_clean_linker_0--edge1-UVAHIK_clean_linker_0
_symmetry_space_group_name_H-M    P1
_symmetry_Int_Tables_number       1
_symmetry_cell_setting            triclinic
loop_
_symmetry_equiv_pos_as_xyz
'x, y, z'
_cell_length_a     61.702865
_cell_length_b     61.676267
_cell_length_c     56.790484
_cell_angle_alpha  89.977989
_cell_angle_beta   90.033254
_cell_angle_gamma 120.03
loop_
_atom_site_label
_atom_site_type_symbol
_atom_site_fract_x
_atom_site_fract_y
_atom_site_fract_z
_atom_type_partial_charge
H0 H 0.98892 0.55676 0.34893 0.0
H1 H 0.99678 0.56614 0.27353 0.0
H2 H 0.93128 0.50374 0.30321 0.0
H3 H 0.01981 0.59694 0.33169 0.0
H4 H 0.02163 0.60145 0.30056 0.0
H5 H 0.03924 0.57381 0.35054 0.0
H6 H 0.10469 0.58288 0.31486 0.0
H7 H 0.05303 0.59819 0.27821 0.0
C8 C 0.98215 0.54993 0.33133 0.0
C9 C 0.95887 0.52804 0.32835 0.0
C10 C 0.99626 0.56348 0.31153 0.0
C11 C 0.98662 0.55516 0.28877 0.0
C12 C 0.963 0.53381 0.2858 0.0
C13 C 0.94973 0.52002 0.30557 0.0
C14 C 0.02012 0.58821 0.31465 0.0
C15 C 0.04282 0.58502 0.31407 0.0
C16 C 0.05022 0.57767 0.33459 0.0
C17 C 0.0725 0.57676 0.33498 0.0
C18 C 0.08683 0.5823 0.31438 0.0
C19 C 0.08003 0.59015 0.29396 0.0
C20 C 0.05792 0.59138 0.29377 0.0
H21 H 0.44507 0.98296 0.51015 0.0
H22 H 0.46072 0.99934 0.43629 0.0
H23 H 0.4551 0.93249 0.46549 0.0
H24 H 0.43808 0.01452 0.49116 0.0
H25 H 0.44175 0.01926 0.46008 0.0
H26 H 0.47356 0.03759 0.51792 0.0
H27 H 0.53736 0.10328 0.49053 0.0
H28 H 0.48238 0.04983 0.44288 0.0
C29 C 0.44966 0.97844 0.4931 0.0
C30 C 0.4506 0.95628 0.49029 0.0
C31 C 0.45377 0.99432 0.47371 0.0
C32 C 0.4585 0.98768 0.45142 0.0
C33 C 0.45925 0.96548 0.4484 0.0
C34 C 0.45583 0.95028 0.46799 0.0
C35 C 0.45074 0.01701 0.47618 0.0
C36 C 0.47569 0.04045 0.47992 0.0
C37 C 0.48456 0.04837 0.50293 0.0
C38 C 0.50689 0.07092 0.50663 0.0
C39 C 0.52073 0.08526 0.48737 0.0
C40 C 0.51205 0.07797 0.46431 0.0
C41 C 0.48953 0.05537 0.46062 0.0
H42 H 0.45156 0.48053 0.60961 0.0
H43 H 0.46737 0.48196 0.68371 0.0
H44 H 0.46395 0.54338 0.65205 0.0
H45 H 0.4444 0.44261 0.62936 0.0
H46 H 0.44645 0.44196 0.66069 0.0
H47 H 0.48343 0.45945 0.60483 0.0
H48 H 0.5416 0.44943 0.63496 0.0
H49 H 0.4835 0.44598 0.67929 0.0
C50 C 0.45652 0.49028 0.62635 0.0
C51 C 0.45821 0.5138 0.62827 0.0
C52 C 0.4603 0.47889 0.64625 0.0
C53 C 0.46547 0.49109 0.66817 0.0
C54 C 0.46713 0.51454 0.67024 0.0
C55 C 0.46402 0.52591 0.65017 0.0
C56 C 0.45646 0.45278 0.6447 0.0
C57 C 0.48112 0.45337 0.64243 0.0
C58 C 0.49232 0.45677 0.62016 0.0
C59 C 0.51438 0.45575 0.6175 0.0
C60 C 0.52539 0.45168 0.63733 0.0
C61 C 0.51445 0.44798 0.65969 0.0
C62 C 0.49235 0.44912 0.66218 0.0
H63 H 0.99118 0.43887 0.77662 0.0
H64 H 1.00573 0.46377 0.84876 0.0
H65 H 0.94004 0.45471 0.81349 0.0
H66 H 0.02282 0.43558 0.79882 0.0
H67 H 0.02467 0.44015 0.82992 0.0
H68 H 0.04731 0.47145 0.77179 0.0
H69 H 0.11373 0.53269 0.80153 0.0
H70 H 0.05631 0.47945 0.84725 0.0
C71 C 0.98651 0.4459 0.79215 0.0
C72 C 0.96442 0.44717 0.79247 0.0
C73 C 1.00191 0.45254 0.81229 0.0
C74 C 0.99465 0.4599 0.83287 0.0
C75 C 0.97239 0.46086 0.8334 0.0
C76 C 0.95788 0.45523 0.8129 0.0
C77 C 0.0243 0.44884 0.81285 0.0
C78 C 0.04848 0.47331 0.80986 0.0
C79 C 0.05778 0.48204 0.78708 0.0
C80 C 0.0815 0.50325 0.78412 0.0
C81 C 0.09517 0.51657 0.80391 0.0
C82 C 0.08631 0.50824 0.8267 0.0
C83 C 0.0629 0.48649 0.82967 0.0
H84 H 0.60288 0.05559 0.01374 0.0
H85 H 0.5895 0.03908 0.93963 0.0
H86 H 0.59576 0.10673 0.96745 0.0
H87 H 0.60743 0.02199 -0.00316 0.0
H88 H 0.60765 0.0189 0.96558 0.0
H89 H 0.56721 1.00109 0.01894 0.0
H90 H 0.50663 0.93689 -0.01444 0.0
H91 H 0.57025 0.98848 0.94463 0.0
C92 C 0.59915 0.06025 -0.00363 0.0
C93 C 0.59887 0.08268 -0.00704 0.0
C94 C 0.59529 0.04417 0.97721 0.0
C95 C 0.59162 0.05096 0.95454 0.0
C96 C 0.59147 0.07339 0.95097 0.0
C97 C 0.59463 0.0888 0.97032 0.0
C98 C 0.59698 0.02078 0.98046 0.0
C99 C 0.57124 0.99785 0.98151 0.0
C100 C 0.55851 0.99034 0.00315 0.0
C101 C 0.53506 0.96845 0.00463 0.0
C102 C 0.52414 0.95448 0.9842 0.0
C103 C 0.53667 0.96137 0.96254 0.0
C104 C 0.56024 0.98323 0.96122 0.0
H105 H 0.59339 0.55711 0.11081 0.0
H106 H 0.581 0.55794 0.18541 0.0
H107 H 0.58575 0.49689 0.1546 0.0
H108 H 0.60067 0.59557 0.13015 0.0
H109 H 0.59845 0.59677 0.16143 0.0
H110 H 0.56203 0.57749 0.10533 0.0
H111 H 0.50078 0.58281 0.13475 0.0
H112 H 0.56027 0.59061 0.17969 0.0
C113 C 0.58965 0.54806 0.12788 0.0
C114 C 0.58901 0.52506 0.13022 0.0
C115 C 0.5863 0.55981 0.14771 0.0
C116 C 0.58266 0.54852 0.16998 0.0
C117 C 0.58216 0.52565 0.1725 0.0
C118 C 0.58482 0.51389 0.1525 0.0
C119 C 0.58882 0.58536 0.14559 0.0
C120 C 0.56354 0.58335 0.14294 0.0
C121 C 0.55248 0.57938 0.12053 0.0
C122 C 0.52968 0.57893 0.11753 0.0
C123 C 0.51771 0.58184 0.13722 0.0
C124 C 0.52859 0.58622 0.15965 0.0
C125 C 0.5515 0.58679 0.16248 0.0
O126 O 0.6169 0.37534 0.41923 0.0
Cd127 Cd 0.6283 0.36512 0.38916 0.0
Cd128 Cd 0.67206 0.40869 0.39895 0.0
O129 O 0.65304 0.40828 0.42891 0.0
O130 O 0.60158 0.32975 0.38359 0.0
O131 O 0.64094 0.34061 0.39066 0.0
C132 C 0.61818 0.32317 0.3866 0.0
C133 C 0.71408 0.41922 0.40213 0.0
C134 C 0.62996 0.39349 0.43306 0.0
C135 C 0.64387 0.40706 0.35482 0.0
O136 O 0.66204 0.42002 0.36866 0.0
O137 O 0.62888 0.38402 0.35904 0.0
O138 O 0.70725 0.43568 0.40476 0.0
O139 O 0.69686 0.39639 0.39802 0.0
O140 O 0.25778 0.61085 0.5795 0.0
Cd141 Cd 0.28085 0.62381 0.55046 0.0
Cd142 Cd 0.27733 0.6657 0.56078 0.0
O143 O 0.2587 0.64564 0.59038 0.0
O144 O 0.28951 0.59706 0.54518 0.0
O145 O 0.31795 0.6362 0.5531 0.0
C146 C 0.31261 0.61347 0.54891 0.0
C147 C 0.30774 0.70812 0.564 0.0
C148 C 0.25128 0.62257 0.59359 0.0
C149 C 0.25367 0.63776 0.51565 0.0
O150 O 0.25667 0.65483 0.53005 0.0
O151 O 0.26352 0.6243 0.51967 0.0
O152 O 0.28424 0.70053 0.56635 0.0
O153 O 0.31416 0.69143 0.56031 0.0
O154 O 0.6641 0.25237 0.74984 0.0
Cd155 Cd 0.6731 0.27577 0.72099 0.0
Cd156 Cd 0.63107 0.27638 0.7359 0.0
O157 O 0.63552 0.25958 0.76532 0.0
O158 O 0.70771 0.28412 0.71201 0.0
O159 O 0.69856 0.3124 0.72501 0.0
C160 C 0.71516 0.30697 0.71789 0.0
C161 C 0.6184 0.30628 0.73996 0.0
C162 C 0.64882 0.24918 0.76632 0.0
C163 C 0.62827 0.24977 0.69044 0.0
O164 O 0.61658 0.2532 0.70709 0.0
O165 O 0.65195 0.25976 0.69114 0.0
O166 O 0.60358 0.28297 0.74464 0.0
O167 O 0.64097 0.31294 0.73355 0.0
O168 O 0.42923 0.66141 0.91929 0.0
Cd169 Cd 0.4195 0.67273 0.88885 0.0
Cd170 Cd 0.37517 0.62775 0.8964 0.0
O171 O 0.39324 0.62724 0.92675 0.0
O172 O 0.44761 0.70772 0.88457 0.0
O173 O 0.40845 0.69857 0.88948 0.0
C174 C 0.43169 0.71531 0.88652 0.0
C175 C 0.33281 0.61633 0.89864 0.0
C176 C 0.41591 0.64241 0.93212 0.0
C177 C 0.40564 0.63198 0.85319 0.0
O178 O 0.38676 0.61821 0.866 0.0
O179 O 0.42029 0.65477 0.85859 0.0
O180 O 0.33998 0.60006 0.90075 0.0
O181 O 0.34986 0.63944 0.89548 0.0
O182 O 0.78974 0.38477 0.02957 0.0
Cd183 Cd 0.76917 0.37403 0.06034 0.0
Cd184 Cd 0.76573 0.41598 0.04998 0.0
O185 O 0.78319 0.41553 0.01927 0.0
O186 O 0.76252 0.33932 0.06616 0.0
O187 O 0.73238 0.34811 0.06004 0.0
C188 C 0.73898 0.33156 0.0639 0.0
C189 C 0.73364 0.42582 0.04836 0.0
C190 C 0.79287 0.40193 0.01521 0.0
C191 C 0.7951 0.41721 0.09324 0.0
O192 O 0.78862 0.42898 0.07917 0.0
O193 O 0.7878 0.39419 0.08989 0.0
O194 O 0.75667 0.44242 0.04459 0.0
O195 O 0.72857 0.40317 0.05259 0.0
O196 O 0.426 0.78258 0.19898 0.0
Cd197 Cd 0.41509 0.76181 0.22959 0.0
Cd198 Cd 0.37099 0.76145 0.21981 0.0
O199 O 0.38947 0.77823 0.18905 0.0
O200 O 0.44235 0.75401 0.23541 0.0
O201 O 0.40308 0.72473 0.22917 0.0
C202 C 0.42603 0.73062 0.23304 0.0
C203 C 0.32867 0.73057 0.21805 0.0
C204 C 0.41255 0.78675 0.1848 0.0
C205 C 0.40012 0.78957 0.26292 0.0
O206 O 0.38201 0.78441 0.24901 0.0
O207 O 0.41463 0.78086 0.2592 0.0
O208 O 0.33602 0.75366 0.21337 0.0
O209 O 0.34545 0.72473 0.22347 0.0
C210 C 0.11197 0.62741 0.27225 0.0
C211 C 0.09881 0.60134 0.27497 0.0
C212 C 0.13444 0.63915 0.25966 0.0
C213 C 0.18084 0.66188 0.2296 0.0
H214 H 0.2214 0.63061 0.23734 0.0
C215 C 0.28505 0.7152 0.20395 0.0
C216 C 0.30168 0.71188 0.21832 0.0
C217 C 0.25922 0.69914 0.20585 0.0
C218 C 0.21051 0.63983 0.23521 0.0
H219 H 0.09757 0.56681 0.26542 0.0
H220 H 0.13583 0.587 0.24191 0.0
H221 H 0.17799 0.60831 0.24931 0.0
H222 H 0.30448 0.68894 0.24563 0.0
H223 H 0.2595 0.66178 0.25005 0.0
H224 H 0.21388 0.69427 0.21755 0.0
C225 C 0.12956 0.59866 0.25027 0.0
C226 C 0.18525 0.62672 0.24165 0.0
C227 C 0.10738 0.58698 0.26336 0.0
C228 C 0.29205 0.69178 0.23419 0.0
C229 C 0.26616 0.67609 0.23658 0.0
C230 C 0.20624 0.67522 0.22371 0.0
C231 C 0.14406 0.625 0.24916 0.0
C232 C 0.17009 0.63772 0.23938 0.0
C233 C 0.24928 0.67977 0.22269 0.0
C234 C 0.22163 0.66458 0.22682 0.0
H235 H 0.10597 0.63887 0.28149 0.0
H236 H 0.14499 0.6594 0.25965 0.0
H237 H 0.16982 0.67089 0.22699 0.0
H238 H 0.29203 0.73044 0.19136 0.0
H239 H 0.24708 0.70225 0.19429 0.0
C240 C 0.55115 0.10876 0.4434 0.0
C241 C 0.52492 0.09626 0.44507 0.0
C242 C 0.56401 0.13075 0.43021 0.0
C243 C 0.55635 0.17362 0.38882 0.0
H244 H 0.60922 0.22518 0.42688 0.0
C245 C 0.58579 0.27793 0.38225 0.0
C246 C 0.61082 0.2963 0.38656 0.0
C247 C 0.57805 0.25251 0.38435 0.0
C248 C 0.59491 0.21104 0.41569 0.0
H249 H 0.49148 0.09577 0.43276 0.0
H250 H 0.51382 0.13423 0.40984 0.0
H251 H 0.5907 0.18163 0.43846 0.0
H252 H 0.64761 0.30231 0.3954 0.0
H253 H 0.63411 0.25781 0.3989 0.0
H254 H 0.56006 0.20333 0.36653 0.0
C255 C 0.52455 0.127 0.41849 0.0
C256 C 0.58426 0.18595 0.42234 0.0
C257 C 0.51169 0.10489 0.43158 0.0
C258 C 0.62816 0.28863 0.39209 0.0
C259 C 0.62039 0.26313 0.3942 0.0
C260 C 0.56705 0.19878 0.38215 0.0
C261 C 0.55091 0.14082 0.41856 0.0
C262 C 0.56445 0.16694 0.4093 0.0
C263 C 0.59512 0.24477 0.3908 0.0
C264 C 0.58606 0.21785 0.39584 0.0
H265 H 0.56179 0.10238 0.45353 0.0
H266 H 0.58428 0.14059 0.43018 0.0
H267 H 0.54137 0.15944 0.37821 0.0
H268 H 0.57193 0.28317 0.37791 0.0
H269 H 0.5584 0.23898 0.38189 0.0
C270 C 0.46401 0.55041 0.60429 0.0
C271 C 0.45037 0.52455 0.60887 0.0
C272 C 0.45344 0.56189 0.59107 0.0
C273 C 0.39926 0.5506 0.55351 0.0
H274 H 0.40386 0.60687 0.58828 0.0
C275 C 0.32492 0.58058 0.54651 0.0
C276 C 0.33193 0.6059 0.54945 0.0
C277 C 0.34249 0.57277 0.54894 0.0
C278 C 0.40273 0.59157 0.57797 0.0
H279 H 0.41585 0.49014 0.60151 0.0
H280 H 0.39739 0.51012 0.57832 0.0
H281 H 0.42967 0.58919 0.59979 0.0
H282 H 0.3632 0.64305 0.55625 0.0
H283 H 0.39408 0.62947 0.56012 0.0
H284 H 0.37181 0.55266 0.53202 0.0
C285 C 0.4163 0.52156 0.58487 0.0
C286 C 0.41758 0.58139 0.58459 0.0
C287 C 0.4269 0.51006 0.59811 0.0
C288 C 0.35716 0.62339 0.55402 0.0
C289 C 0.37482 0.61557 0.55636 0.0
C290 C 0.38447 0.56089 0.54678 0.0
C291 C 0.429 0.54776 0.58214 0.0
C292 C 0.41566 0.56045 0.57278 0.0
C293 C 0.36761 0.59007 0.55426 0.0
C294 C 0.38558 0.58115 0.55929 0.0
H295 H 0.48226 0.56199 0.61219 0.0
H296 H 0.46393 0.58204 0.58885 0.0
H297 H 0.39754 0.53465 0.54389 0.0
H298 H 0.30563 0.56658 0.54299 0.0
H299 H 0.33609 0.55295 0.54756 0.0
C300 C 0.93223 0.40985 0.77096 0.0
C301 C 0.94546 0.43594 0.77362 0.0
C302 C 0.90966 0.39812 0.75849 0.0
C303 C 0.86307 0.37547 0.72856 0.0
H304 H 0.82264 0.40683 0.73683 0.0
C305 C 0.75867 0.3226 0.70317 0.0
C306 C 0.74217 0.32573 0.7179 0.0
C307 C 0.78454 0.33861 0.70498 0.0
C308 C 0.8335 0.3976 0.73454 0.0
H309 H 0.94671 0.47047 0.76407 0.0
H310 H 0.90826 0.45029 0.74081 0.0
H311 H 0.86613 0.42903 0.74862 0.0
H312 H 0.73968 0.34834 0.74573 0.0
H313 H 0.78468 0.37544 0.74987 0.0
H314 H 0.8299 0.34319 0.71647 0.0
C315 C 0.91456 0.43863 0.74912 0.0
C316 C 0.8588 0.41064 0.74088 0.0
C317 C 0.93685 0.45029 0.76207 0.0
C318 C 0.75197 0.34564 0.734 0.0
C319 C 0.77788 0.36129 0.73624 0.0
C320 C 0.83763 0.36221 0.72273 0.0
C321 C 0.9 0.41229 0.74806 0.0
C322 C 0.8739 0.39961 0.73843 0.0
C323 C 0.79462 0.35777 0.72203 0.0
C324 C 0.8223 0.37288 0.72604 0.0
H325 H 0.93827 0.39838 0.78015 0.0
H326 H 0.89907 0.37787 0.75851 0.0
H327 H 0.87404 0.36644 0.72584 0.0
H328 H 0.75158 0.30752 0.69042 0.0
H329 H 0.79659 0.33563 0.69321 0.0
C330 C 0.50057 0.93201 0.93734 0.0
C331 C 0.52619 0.94333 0.94273 0.0
C332 C 0.48885 0.91006 0.92398 0.0
C333 C 0.49933 0.86539 0.88821 0.0
H334 H 0.44072 0.8155 0.92175 0.0
C335 C 0.4659 0.76004 0.88426 0.0
C336 C 0.44025 0.74247 0.88633 0.0
C337 C 0.47452 0.78568 0.88594 0.0
C338 C 0.45669 0.82918 0.91177 0.0
H339 H 0.56006 0.94184 0.9367 0.0
H340 H 0.53967 0.90349 0.91336 0.0
H341 H 0.45944 0.85929 0.93257 0.0
H342 H 0.4034 0.73813 0.89076 0.0
H343 H 0.41841 0.78301 0.89339 0.0
H344 H 0.49691 0.83502 0.86785 0.0
C345 C 0.52859 0.91159 0.9193 0.0
C346 C 0.46748 0.8544 0.91799 0.0
C347 C 0.54034 0.93364 0.93262 0.0
C348 C 0.42329 0.75118 0.88925 0.0
C349 C 0.43193 0.7769 0.89087 0.0
C350 C 0.48846 0.84012 0.88191 0.0
C351 C 0.50249 0.8989 0.91581 0.0
C352 C 0.48925 0.87277 0.90666 0.0
C353 C 0.45771 0.79446 0.88964 0.0
C354 C 0.46735 0.82162 0.89401 0.0
H355 H 0.48928 0.93923 0.94479 0.0
H356 H 0.46884 0.90107 0.92115 0.0
H357 H 0.51592 0.8791 0.87895 0.0
H358 H 0.47951 0.75401 0.88199 0.0
H359 H 0.49451 0.79853 0.88526 0.0
C360 C 0.6191 0.52837 0.09897 0.0
C361 C 0.59619 0.51396 0.11067 0.0
C362 C 0.62938 0.51672 0.08549 0.0
C363 C 0.62884 0.4572 0.08579 0.0
H364 H 0.67269 0.48509 0.03184 0.0
C365 C 0.68903 0.41548 0.05405 0.0
C366 C 0.7141 0.4331 0.04897 0.0
C367 C 0.67123 0.42308 0.05663 0.0
C368 C 0.66056 0.47709 0.04697 0.0
H369 H 0.56485 0.47644 0.11549 0.0
H370 H 0.58254 0.45613 0.09167 0.0
H371 H 0.647 0.50295 0.04425 0.0
H372 H 0.73991 0.47237 0.04174 0.0
H373 H 0.70919 0.48561 0.04667 0.0
H374 H 0.64305 0.4321 0.08926 0.0
C375 C 0.59289 0.47634 0.09334 0.0
C376 C 0.6458 0.4873 0.05402 0.0
C377 C 0.58267 0.48796 0.10683 0.0
C378 C 0.72076 0.45828 0.04568 0.0
C379 C 0.70304 0.46587 0.04832 0.0
C380 C 0.64364 0.44709 0.07882 0.0
C381 C 0.61688 0.49045 0.08345 0.0
C382 C 0.63011 0.47777 0.0738 0.0
C383 C 0.67813 0.44848 0.05423 0.0
C384 C 0.66011 0.45723 0.05963 0.0
H385 H 0.63004 0.5484 0.1018 0.0
H386 H 0.64794 0.52816 0.0782 0.0
H387 H 0.61733 0.44966 0.10137 0.0
H388 H 0.68326 0.39592 0.05656 0.0
H389 H 0.65213 0.40911 0.06084 0.0
C390 C 0.45637 0.92498 0.51336 0.0
C391 C 0.44267 0.93718 0.5092 0.0
C392 C 0.44582 0.9026 0.5261 0.0
C393 C 0.39106 0.85828 0.56254 0.0
H394 H 0.39794 0.80807 0.52756 0.0
C395 C 0.3185 0.75291 0.56707 0.0
C396 C 0.3264 0.73527 0.56434 0.0
C397 C 0.33555 0.77854 0.56528 0.0
C398 C 0.39615 0.82183 0.53792 0.0
H399 H 0.40799 0.93663 0.51667 0.0
H400 H 0.38946 0.89752 0.53888 0.0
H401 H 0.42319 0.85186 0.51681 0.0
H402 H 0.35871 0.73083 0.55866 0.0
H403 H 0.38861 0.77566 0.55583 0.0
H404 H 0.36341 0.82798 0.58323 0.0
C405 C 0.40845 0.90527 0.53248 0.0
C406 C 0.4107 0.84705 0.53174 0.0
C407 C 0.41908 0.92776 0.5198 0.0
C408 C 0.35197 0.74392 0.5607 0.0
C409 C 0.36909 0.76962 0.55896 0.0
C410 C 0.37652 0.83299 0.56878 0.0
C411 C 0.42126 0.89186 0.53485 0.0
C412 C 0.40801 0.86557 0.54366 0.0
C413 C 0.36101 0.78725 0.56077 0.0
C414 C 0.37851 0.81438 0.55621 0.0
H415 H 0.47469 0.93196 0.50552 0.0
H416 H 0.45643 0.89306 0.52807 0.0
H417 H 0.38873 0.87209 0.57226 0.0
H418 H 0.29894 0.74692 0.56991 0.0
H419 H 0.32853 0.79147 0.56646 0.0
C420 C 0.50866 0.41832 0.69256 0.0
C421 C 0.52464 0.43959 0.6792 0.0
C422 C 0.51847 0.40653 0.70648 0.0
C423 C 0.57828 0.41155 0.72844 0.0
H424 H 0.54218 0.33991 0.71745 0.0
C425 C 0.62362 0.34876 0.73199 0.0
C426 C 0.609 0.32418 0.74049 0.0
C427 C 0.61339 0.36448 0.72994 0.0
C428 C 0.55234 0.35982 0.7211 0.0
H429 H 0.56348 0.46673 0.67202 0.0
H430 H 0.58054 0.44592 0.69563 0.0
H431 H 0.5237 0.36481 0.70545 0.0
H432 H 0.57268 0.29737 0.75481 0.0
H433 H 0.55501 0.32476 0.75138 0.0
H434 H 0.60746 0.40643 0.74316 0.0
C435 C 0.56046 0.43826 0.69557 0.0
C436 C 0.54166 0.37416 0.71429 0.0
C437 C 0.55066 0.45012 0.68183 0.0
C438 C 0.5844 0.31611 0.74797 0.0
C439 C 0.57421 0.33178 0.74592 0.0
C440 C 0.58906 0.39717 0.73513 0.0
C441 C 0.54445 0.41566 0.70723 0.0
C442 C 0.55462 0.40029 0.7175 0.0
C443 C 0.58834 0.35591 0.73633 0.0
C444 C 0.57634 0.37117 0.73122 0.0
H445 H 0.48853 0.4097 0.69095 0.0
H446 H 0.5056 0.38952 0.71571 0.0
H447 H 0.58869 0.43157 0.73148 0.0
H448 H 0.64263 0.35555 0.7261 0.0
H449 H 0.62473 0.38292 0.72234 0.0
C450 C 0.11302 0.5073 0.85916 0.0
C451 C 0.10387 0.52059 0.8465 0.0
C452 C 0.13538 0.52016 0.87192 0.0
C453 C 0.19367 0.58043 0.86752 0.0
H454 H 0.21374 0.55558 0.92104 0.0
C455 C 0.29749 0.62538 0.89457 0.0
C456 C 0.30579 0.60829 0.89898 0.0
C457 C 0.27185 0.61713 0.89317 0.0
C458 C 0.20843 0.56276 0.90605 0.0
H459 H 0.10927 0.55739 0.83915 0.0
H460 H 0.14777 0.57986 0.86208 0.0
H461 H 0.16938 0.53657 0.91105 0.0
H462 H 0.29361 0.56929 0.90622 0.0
H463 H 0.24916 0.55496 0.90348 0.0
H464 H 0.23261 0.60595 0.86192 0.0
C465 C 0.13819 0.55959 0.86167 0.0
C466 C 0.183 0.55187 0.90035 0.0
C467 C 0.11599 0.54675 0.8488 0.0
C468 C 0.2879 0.58298 0.90275 0.0
C469 C 0.26233 0.57476 0.90138 0.0
C470 C 0.21902 0.59129 0.8732 0.0
C471 C 0.14889 0.54654 0.8723 0.0
C472 C 0.17534 0.56023 0.8807 0.0
C473 C 0.25395 0.59164 0.89619 0.0
C474 C 0.2268 0.58222 0.8922 0.0
H475 H 0.10421 0.48715 0.85739 0.0
H476 H 0.14306 0.50946 0.87979 0.0
H477 H 0.18861 0.58709 0.85198 0.0
H478 H 0.31079 0.64503 0.8917 0.0
H479 H 0.26603 0.63069 0.88941 0.0
C480 C 0.6296 0.11141 0.02286 0.0
C481 C 0.60621 0.10176 0.01178 0.0
C482 C 0.63983 0.134 0.03534 0.0
C483 C 0.63698 0.1919 0.03313 0.0
H484 H 0.68383 0.21208 0.08513 0.0
C485 C 0.69485 0.29552 0.06078 0.0
C486 C 0.72045 0.30439 0.06457 0.0
C487 C 0.67787 0.26975 0.05937 0.0
C488 C 0.67083 0.20675 0.07054 0.0
H489 H 0.5741 0.10664 0.00701 0.0
H490 H 0.59161 0.14567 0.02928 0.0
H491 H 0.65888 0.16779 0.07471 0.0
H492 H 0.74809 0.29309 0.07079 0.0
H493 H 0.71872 0.24843 0.06795 0.0
H494 H 0.64948 0.23075 0.02829 0.0
C495 C 0.60239 0.13626 0.02783 0.0
C496 C 0.65651 0.18136 0.06461 0.0
C497 C 0.59225 0.1138 0.01527 0.0
C498 C 0.72851 0.28693 0.06781 0.0
C499 C 0.71159 0.26123 0.06637 0.0
C500 C 0.65129 0.21722 0.03901 0.0
C501 C 0.6268 0.14727 0.03703 0.0
C502 C 0.63974 0.17367 0.04554 0.0
C503 C 0.68612 0.25229 0.06171 0.0
C504 C 0.66878 0.22506 0.05748 0.0
H505 H 0.64086 0.10265 0.02023 0.0
H506 H 0.65871 0.14195 0.0421 0.0
H507 H 0.62464 0.18679 0.01804 0.0
H508 H 0.688 0.30846 0.05835 0.0
H509 H 0.65833 0.26352 0.0561 0.0
C510 C 0.53153 0.61703 0.18991 0.0
C511 C 0.51733 0.59373 0.17879 0.0
C512 C 0.51967 0.62754 0.20273 0.0
C513 C 0.45962 0.62601 0.20133 0.0
H514 H 0.48755 0.67251 0.25347 0.0
C515 C 0.41657 0.68605 0.22971 0.0
C516 C 0.43388 0.71149 0.23358 0.0
C517 C 0.42463 0.66852 0.22815 0.0
C518 C 0.47953 0.65961 0.23885 0.0
H519 H 0.47999 0.562 0.17433 0.0
H520 H 0.45933 0.58003 0.19713 0.0
H521 H 0.50587 0.64677 0.24261 0.0
H522 H 0.47311 0.73831 0.23976 0.0
H523 H 0.48714 0.708 0.23662 0.0
H524 H 0.43398 0.63943 0.19685 0.0
C525 C 0.47952 0.59052 0.19547 0.0
C526 C 0.49001 0.64484 0.23268 0.0
C527 C 0.49135 0.5801 0.18259 0.0
C528 C 0.45925 0.71886 0.23673 0.0
C529 C 0.4673 0.70139 0.23512 0.0
C530 C 0.44921 0.64079 0.20745 0.0
C531 C 0.4934 0.61488 0.20471 0.0
C532 C 0.48047 0.6282 0.21354 0.0
C533 C 0.45019 0.67606 0.23038 0.0
C534 C 0.45934 0.65818 0.22596 0.0
H535 H 0.55155 0.62805 0.18707 0.0
H536 H 0.53096 0.64637 0.20951 0.0
H537 H 0.45205 0.61377 0.1862 0.0
H538 H 0.39687 0.67974 0.22735 0.0
H539 H 0.41088 0.6491 0.22482 0.0
C540 C 0.93273 0.52807 0.36178 0.0
C541 C 0.9417 0.51517 0.34828 0.0
C542 C 0.91069 0.51482 0.3749 0.0
C543 C 0.85254 0.4546 0.37017 0.0
H544 H 0.83324 0.47803 0.42522 0.0
C545 C 0.749 0.40964 0.39768 0.0
C546 C 0.74099 0.42681 0.40279 0.0
C547 C 0.77458 0.41762 0.39629 0.0
C548 C 0.83834 0.47125 0.40981 0.0
H549 H 0.93642 0.47864 0.3398 0.0
H550 H 0.89845 0.45548 0.36331 0.0
H551 H 0.87746 0.49727 0.41464 0.0
H552 H 0.75358 0.46562 0.41141 0.0
H553 H 0.79792 0.4795 0.40865 0.0
H554 H 0.81353 0.42933 0.36471 0.0
C555 C 0.90792 0.47575 0.3633 0.0
C556 C 0.86368 0.48225 0.40378 0.0
C557 C 0.92981 0.48898 0.35007 0.0
C558 C 0.75908 0.45188 0.40737 0.0
C559 C 0.78458 0.45983 0.40599 0.0
C560 C 0.82727 0.44363 0.37618 0.0
C561 C 0.89733 0.48844 0.3748 0.0
C562 C 0.87105 0.47444 0.38356 0.0
C563 C 0.79269 0.44292 0.4 0.0
C564 C 0.81977 0.45222 0.39573 0.0
H565 H 0.94138 0.54824 0.36044 0.0
H566 H 0.90308 0.52525 0.38344 0.0
H567 H 0.85738 0.44837 0.35422 0.0
H568 H 0.73553 0.39017 0.39418 0.0
H569 H 0.78018 0.40403 0.39191 0.0
C570 C 0.09562 0.56047 0.35858 0.0
C571 C 0.08354 0.57463 0.35743 0.0
C572 C 0.11143 0.56346 0.37744 0.0
C573 C 0.13295 0.59304 0.43645 0.0
H574 H 0.19664 0.60145 0.41578 0.0
C575 C 0.22175 0.6433 0.49337 0.0
C576 C 0.23613 0.63151 0.49564 0.0
C577 C 0.2026 0.63497 0.47668 0.0
C578 C 0.17889 0.5989 0.42188 0.0
H579 H 0.07719 0.60172 0.37584 0.0
H580 H 0.10475 0.60702 0.40865 0.0
H581 H 0.16206 0.58682 0.38799 0.0
H582 H 0.24237 0.60244 0.48137 0.0
H583 H 0.20906 0.58808 0.45209 0.0
H584 H 0.15012 0.60577 0.47022 0.0
C585 C 0.1019 0.59341 0.39518 0.0
C586 C 0.15898 0.59037 0.40601 0.0
C587 C 0.086 0.59032 0.37639 0.0
C588 C 0.23167 0.61196 0.4801 0.0
C589 C 0.21259 0.60372 0.4633 0.0
C590 C 0.15291 0.6017 0.45229 0.0
C591 C 0.11558 0.58077 0.39544 0.0
C592 C 0.13583 0.58755 0.41303 0.0
C593 C 0.19751 0.61478 0.46178 0.0
C594 C 0.17616 0.60497 0.4451 0.0
H595 H 0.09387 0.54809 0.34427 0.0
H596 H 0.12122 0.55298 0.3774 0.0
H597 H 0.1153 0.59078 0.44251 0.0
H598 H 0.22468 0.65845 0.50501 0.0
H599 H 0.19159 0.64417 0.4756 0.0
C600 C 0.53317 0.08189 0.54286 0.0
C601 C 0.51391 0.08226 0.53016 0.0
C602 C 0.54344 0.09729 0.56261 0.0
C603 C 0.57434 0.14442 0.59091 0.0
H604 H 0.53704 0.1668 0.62874 0.0
C605 C 0.62521 0.23158 0.65025 0.0
C606 C 0.6139 0.23159 0.67168 0.0
C607 C 0.61209 0.21276 0.63358 0.0
C608 C 0.54781 0.1606 0.61864 0.0
H609 H 0.48986 0.09831 0.52785 0.0
H610 H 0.50808 0.12573 0.56164 0.0
H611 H 0.51494 0.13236 0.60153 0.0
H612 H 0.58 0.21193 0.69248 0.0
H613 H 0.55764 0.1787 0.66413 0.0
H614 H 0.60707 0.17177 0.6089 0.0
C615 C 0.51488 0.11311 0.55723 0.0
C616 C 0.53509 0.14099 0.60269 0.0
C617 C 0.50439 0.09744 0.53781 0.0
C618 C 0.58913 0.21265 0.67598 0.0
C619 C 0.57624 0.19357 0.6596 0.0
C620 C 0.58701 0.16369 0.60722 0.0
C621 C 0.53499 0.11376 0.56957 0.0
C622 C 0.54821 0.13288 0.5883 0.0
C623 C 0.58756 0.19321 0.63821 0.0
C624 C 0.57398 0.17231 0.6211 0.0
H625 H 0.54093 0.07049 0.53695 0.0
H626 H 0.55852 0.09684 0.57193 0.0
H627 H 0.58524 0.13907 0.57995 0.0
H628 H 0.64426 0.24601 0.64643 0.0
H629 H 0.62128 0.21356 0.61711 0.0
C630 C 0.45019 0.51175 0.71071 0.0
C631 C 0.46815 0.5258 0.69352 0.0
C632 C 0.44665 0.52366 0.73003 0.0
C633 C 0.45443 0.5852 0.74444 0.0
H634 H 0.43164 0.556 0.80629 0.0
C635 C 0.43346 0.63543 0.81952 0.0
C636 C 0.41217 0.62068 0.83339 0.0
C637 C 0.44144 0.62431 0.80281 0.0
C638 C 0.43779 0.56427 0.78901 0.0
H639 H 0.49806 0.56281 0.68408 0.0
H640 H 0.49241 0.58359 0.71818 0.0
H641 H 0.446 0.53586 0.77828 0.0
H642 H 0.38206 0.58273 0.83992 0.0
H643 H 0.3959 0.56343 0.81061 0.0
H644 H 0.44605 0.61348 0.7551 0.0
C645 C 0.48054 0.5635 0.71642 0.0
C646 C 0.44608 0.55278 0.77301 0.0
C647 C 0.48395 0.55161 0.69703 0.0
C648 C 0.39856 0.59467 0.82958 0.0
C649 C 0.40662 0.58355 0.81295 0.0
C650 C 0.44624 0.59672 0.76047 0.0
C651 C 0.46112 0.54983 0.73257 0.0
C652 C 0.45431 0.563 0.75045 0.0
C653 C 0.42837 0.5982 0.79966 0.0
C654 C 0.4376 0.58625 0.78284 0.0
H655 H 0.43757 0.49186 0.70827 0.0
H656 H 0.43144 0.51256 0.74205 0.0
H657 H 0.4601 0.59331 0.72705 0.0
H658 H 0.44441 0.65551 0.82201 0.0
H659 H 0.45833 0.63609 0.7929 0.0
C660 C 0.95916 0.44749 0.87489 0.0
C661 C 0.96157 0.46315 0.85591 0.0
C662 C 0.94343 0.44458 0.89378 0.0
C663 C 0.88671 0.44819 0.905 0.0
H664 H 0.89599 0.43294 0.96917 0.0
C665 C 0.81486 0.42761 0.97959 0.0
C666 C 0.81033 0.40804 -0.00483 0.0
C667 C 0.8338 0.43564 0.96269 0.0
C668 C 0.89308 0.43698 0.95125 0.0
H669 H 0.95134 0.48979 0.84277 0.0
H670 H 0.92433 0.48522 0.87608 0.0
H671 H 0.93051 0.44751 0.94119 0.0
H672 H 0.82152 0.3809 0.00449 0.0
H673 H 0.85438 0.39482 0.9749 0.0
H674 H 0.84923 0.4375 0.91506 0.0
C675 C 0.93401 0.47463 0.87606 0.0
C676 C 0.91287 0.44539 0.93525 0.0
C677 C 0.94963 0.47743 0.85711 0.0
C678 C 0.82452 0.39606 -0.00717 0.0
C679 C 0.84353 0.40418 0.97603 0.0
C680 C 0.86698 0.4399 0.92103 0.0
C681 C 0.9299 0.45737 0.89412 0.0
C682 C 0.90984 0.45082 0.91185 0.0
C683 C 0.84868 0.42436 0.96109 0.0
C684 C 0.86985 0.43391 0.94424 0.0
H685 H 0.96786 0.43599 0.8743 0.0
H686 H 0.94061 0.43101 0.90728 0.0
H687 H 0.88351 0.45169 0.887 0.0
H688 H 0.80431 0.43727 0.98091 0.0
H689 H 0.83737 0.45127 0.95144 0.0
C690 C 0.53693 0.95341 0.04496 0.0
C691 C 0.52326 0.95764 0.02759 0.0
C692 C 0.52458 0.93741 0.06386 0.0
C693 C 0.463 0.88288 0.07635 0.0
H694 H 0.48998 0.88834 0.13912 0.0
C695 C 0.41025 0.81053 0.15 0.0
C696 C 0.4245 0.80419 0.16482 0.0
C697 C 0.42195 0.82963 0.13335 0.0
C698 C 0.48235 0.88646 0.12157 0.0
H699 H 0.48643 0.95052 0.01744 0.0
H700 H 0.46488 0.92308 0.05076 0.0
H701 H 0.51088 0.92343 0.11179 0.0
H702 H 0.4622 0.81225 0.17299 0.0
H703 H 0.48253 0.84535 0.14375 0.0
H704 H 0.4346 0.84588 0.08604 0.0
C705 C 0.48502 0.93149 0.04947 0.0
C706 C 0.49427 0.9066 0.10596 0.0
C707 C 0.49735 0.94737 0.03053 0.0
C708 C 0.45063 0.81668 0.16192 0.0
C709 C 0.46233 0.83583 0.14533 0.0
C710 C 0.45107 0.8628 0.09196 0.0
C711 C 0.49835 0.92545 0.06576 0.0
C712 C 0.48481 0.90498 0.08311 0.0
C713 C 0.44816 0.84285 0.13119 0.0
C714 C 0.46071 0.86429 0.11467 0.0
H715 H 0.55688 0.96087 0.04297 0.0
H716 H 0.53541 0.93309 0.07602 0.0
H717 H 0.4555 0.88076 0.05872 0.0
H718 H 0.39008 0.80133 0.15177 0.0
H719 H 0.41052 0.83467 0.12278 0.0
C720 C 0.56821 0.48958 0.20027 0.0
C721 C 0.58263 0.51545 0.196 0.0
C722 C 0.57298 0.47899 0.21991 0.0
C723 C 0.62603 0.49059 0.25689 0.0
H724 H 0.5765 0.43396 0.29285 0.0
C725 C 0.65268 0.44571 0.33259 0.0
C726 C 0.63851 0.41956 0.33524 0.0
C727 C 0.64568 0.45798 0.31621 0.0
C728 C 0.59056 0.44959 0.28276 0.0
H729 H 0.61212 0.55075 0.20976 0.0
H730 H 0.62023 0.53228 0.24433 0.0
H731 H 0.56297 0.45514 0.26518 0.0
H732 H 0.60645 0.38569 0.32195 0.0
H733 H 0.59459 0.40705 0.29298 0.0
H734 H 0.65359 0.48479 0.27398 0.0
C735 C 0.60546 0.52017 0.2323 0.0
C736 C 0.5828 0.4618 0.26703 0.0
C737 C 0.6006 0.53078 0.21269 0.0
C738 C 0.61774 0.40586 0.32045 0.0
C739 C 0.61078 0.41813 0.304 0.0
C740 C 0.63378 0.47834 0.27252 0.0
C741 C 0.59235 0.49407 0.23561 0.0
C742 C 0.60045 0.48234 0.25383 0.0
C743 C 0.62439 0.44438 0.302 0.0
C744 C 0.61614 0.45757 0.28553 0.0
H745 H 0.55419 0.47738 0.18768 0.0
H746 H 0.56259 0.45883 0.22192 0.0
H747 H 0.64007 0.50605 0.24662 0.0
H748 H 0.66873 0.45688 0.34374 0.0
H749 H 0.65648 0.47822 0.31527 0.0
C750 C 0.47389 0.94415 0.42042 0.0
C751 C 0.45965 0.95578 0.42463 0.0
C752 C 0.46974 0.92964 0.40025 0.0
C753 C 0.41791 0.89048 0.36111 0.0
H754 H 0.46796 0.88325 0.32631 0.0
C755 C 0.39224 0.82046 0.28432 0.0
C756 C 0.40581 0.80782 0.28219 0.0
C757 C 0.39933 0.83971 0.30074 0.0
C758 C 0.45375 0.88488 0.33605 0.0
H759 H 0.43126 0.96289 0.41024 0.0
H760 H 0.4243 0.93786 0.37478 0.0
H761 H 0.48113 0.91713 0.35491 0.0
H762 H 0.43697 0.80494 0.29629 0.0
H763 H 0.44896 0.83812 0.32532 0.0
H764 H 0.39053 0.85795 0.3428 0.0
C765 C 0.4384 0.93968 0.38726 0.0
C766 C 0.46132 0.90437 0.35231 0.0
C767 C 0.44262 0.95428 0.40739 0.0
C768 C 0.42615 0.81434 0.2974 0.0
C769 C 0.43319 0.83354 0.31388 0.0
C770 C 0.41035 0.87096 0.34495 0.0
C771 C 0.45121 0.92642 0.38395 0.0
C772 C 0.44347 0.90727 0.36513 0.0
C773 C 0.42009 0.8467 0.3155 0.0
C774 C 0.42817 0.86779 0.33236 0.0
H775 H 0.48724 0.94513 0.43339 0.0
H776 H 0.47989 0.91962 0.39825 0.0
H777 H 0.40369 0.89189 0.37107 0.0
H778 H 0.37655 0.81603 0.27281 0.0
H779 H 0.38895 0.84958 0.30137 0.0
C780 C 0.50881 0.43828 0.57684 0.0
C781 C 0.52448 0.45542 0.59394 0.0
C782 C 0.51909 0.43348 0.55695 0.0
C783 C 0.57728 0.45534 0.52226 0.0
H784 H 0.55227 0.38433 0.51345 0.0
C785 C 0.63155 0.41938 0.46776 0.0
C786 C 0.61759 0.39902 0.45261 0.0
C787 C 0.61953 0.42647 0.48432 0.0
C788 C 0.55927 0.40421 0.51542 0.0
H789 H 0.56286 0.48247 0.60281 0.0
H790 H 0.58084 0.47421 0.56807 0.0
H791 H 0.53168 0.39805 0.54138 0.0
H792 H 0.58003 0.36969 0.44351 0.0
H793 H 0.55912 0.38221 0.47217 0.0
H794 H 0.605 0.46151 0.4964 0.0
C795 C 0.56066 0.46442 0.56997 0.0
C796 C 0.54741 0.41208 0.53137 0.0
C797 C 0.5504 0.46911 0.58989 0.0
C798 C 0.59139 0.3854 0.45496 0.0
C799 C 0.57937 0.39257 0.47144 0.0
C800 C 0.58909 0.44746 0.5062 0.0
C801 C 0.54519 0.44585 0.55377 0.0
C802 C 0.55642 0.43772 0.53514 0.0
C803 C 0.59326 0.41343 0.48606 0.0
C804 C 0.58039 0.4218 0.50278 0.0
H805 H 0.48878 0.42734 0.57961 0.0
H806 H 0.5067 0.41932 0.54457 0.0
H807 H 0.58452 0.47521 0.52466 0.0
H808 H 0.65177 0.43022 0.4665 0.0
H809 H 0.63082 0.44231 0.49566 0.0
C810 C 0.11732 0.51115 0.75869 0.0
C811 C 0.09407 0.50987 0.76097 0.0
C812 C 0.13125 0.52024 0.73815 0.0
C813 C 0.15378 0.53101 0.68982 0.0
H814 H 0.16051 0.5924 0.66436 0.0
C815 C 0.2197 0.58221 0.61209 0.0
C816 C 0.23298 0.60853 0.61243 0.0
C817 C 0.20079 0.56872 0.62846 0.0
C818 C 0.15897 0.57536 0.67138 0.0
H819 H 0.06648 0.51597 0.74335 0.0
H820 H 0.09098 0.53192 0.70686 0.0
H821 H 0.12987 0.57005 0.69528 0.0
H822 H 0.23716 0.64133 0.63059 0.0
H823 H 0.20479 0.61774 0.65982 0.0
H824 H 0.1837 0.53689 0.66701 0.0
C825 C 0.09848 0.52609 0.7212 0.0
C826 C 0.14109 0.56232 0.68882 0.0
C827 C 0.08439 0.51681 0.7419 0.0
C828 C 0.22725 0.62106 0.62984 0.0
C829 C 0.20849 0.60752 0.64643 0.0
C830 C 0.17174 0.54411 0.67257 0.0
C831 C 0.12227 0.52826 0.71929 0.0
C832 C 0.13865 0.54025 0.69856 0.0
C833 C 0.19488 0.58117 0.64581 0.0
C834 C 0.17485 0.56666 0.66337 0.0
H835 H 0.12508 0.50575 0.77318 0.0
H836 H 0.14959 0.52195 0.73749 0.0
H837 H 0.15215 0.51388 0.69673 0.0
H838 H 0.22339 0.57193 0.59874 0.0
H839 H 0.19048 0.54849 0.62717 0.0
C840 C 0.60848 0.08398 0.91001 0.0
C841 C 0.59142 0.08287 0.927 0.0
C842 C 0.61285 0.09826 0.88959 0.0
C843 C 0.59008 0.13372 0.85421 0.0
H844 H 0.66086 0.17892 0.84319 0.0
C845 C 0.62549 0.22515 0.80213 0.0
C846 C 0.64437 0.23099 0.78535 0.0
C847 C 0.61894 0.20567 0.81815 0.0
C848 C 0.64103 0.16625 0.84582 0.0
H849 H 0.56397 0.09387 0.93509 0.0
H850 H 0.57165 0.1189 0.89964 0.0
H851 H 0.64775 0.14492 0.87148 0.0
H852 H 0.67184 0.22149 0.77289 0.0
H853 H 0.66043 0.18752 0.80095 0.0
H854 H 0.58343 0.15548 0.82892 0.0
C855 C 0.58168 0.1088 0.90193 0.0
C856 C 0.63349 0.14667 0.86195 0.0
C857 C 0.57735 0.09457 0.92232 0.0
C858 C 0.65724 0.21753 0.78559 0.0
C859 C 0.65071 0.19806 0.80168 0.0
C860 C 0.59763 0.15334 0.83812 0.0
C861 C 0.60018 0.11161 0.88579 0.0
C862 C 0.60793 0.1304 0.86659 0.0
C863 C 0.63115 0.1916 0.81781 0.0
C864 C 0.62319 0.17006 0.83404 0.0
H865 H 0.61969 0.07526 0.91322 0.0
H866 H 0.62691 0.09972 0.87727 0.0
H867 H 0.57026 0.12133 0.85716 0.0
H868 H 0.61524 0.23517 0.80251 0.0
H869 H 0.60414 0.20147 0.83071 0.0
C870 C 0.49409 0.56495 0.08919 0.0
C871 C 0.51988 0.57931 0.09381 0.0
C872 C 0.48387 0.56973 0.06926 0.0
C873 C 0.49618 0.62289 0.03229 0.0
H874 H 0.4407 0.57369 -0.00506 0.0
C875 C 0.45371 0.65071 0.95551 0.0
C876 C 0.4277 0.63649 0.95194 0.0
C877 C 0.4654 0.64337 0.9722 0.0
C878 C 0.45599 0.58766 0.00542 0.0
H879 H 0.55544 0.60866 0.08041 0.0
H880 H 0.53762 0.61682 0.04539 0.0
H881 H 0.46109 0.5599 0.02327 0.0
H882 H 0.39344 0.60396 0.96388 0.0
H883 H 0.41379 0.59154 -0.00654 0.0
H884 H 0.49078 0.65062 0.01502 0.0
C885 C 0.52528 0.60208 0.05733 0.0
C886 C 0.46776 0.57974 0.02152 0.0
C887 C 0.53552 0.59719 0.0772 0.0
C888 C 0.41353 0.61529 0.9661 0.0
C889 C 0.42523 0.60802 0.98289 0.0
C890 C 0.48434 0.63079 0.01633 0.0
C891 C 0.49925 0.58905 0.05365 0.0
C892 C 0.48792 0.59728 0.03518 0.0
C893 C 0.45136 0.62172 -0.01415 0.0
C894 C 0.46401 0.61327 0.00278 0.0
H895 H 0.48165 0.551 0.1017 0.0
H896 H 0.46375 0.55941 0.06694 0.0
H897 H 0.51133 0.63683 0.04293 0.0
H898 H 0.46524 0.66708 0.94484 0.0
H899 H 0.48558 0.65425 0.97383 0.0
C900 C 0.96053 0.52213 0.24303 0.0
C901 C 0.95021 0.52737 0.26273 0.0
C902 C 0.94656 0.51329 0.2222 0.0
C903 C 0.90476 0.47728 0.18896 0.0
H904 H 0.86002 0.50099 0.16931 0.0
C905 C 0.81937 0.41847 0.12922 0.0
C906 C 0.81314 0.4311 0.11232 0.0
C907 C 0.8379 0.43189 0.14603 0.0
C908 C 0.87258 0.49428 0.17428 0.0
H909 H 0.91812 0.52901 0.27591 0.0
H910 H 0.89382 0.51354 0.23999 0.0
H911 H 0.89105 0.52351 0.19964 0.0
H912 H 0.82153 0.46778 0.09986 0.0
H913 H 0.854 0.49108 0.12879 0.0
H914 H 0.8864 0.44816 0.16339 0.0
C915 C 0.91256 0.51621 0.24031 0.0
C916 C 0.89024 0.50709 0.19186 0.0
C917 C 0.92637 0.52485 0.26098 0.0
C918 C 0.82565 0.45742 0.11277 0.0
C919 C 0.8443 0.47081 0.12941 0.0
C920 C 0.88715 0.46452 0.17124 0.0
C921 C 0.92225 0.50991 0.22078 0.0
C922 C 0.90614 0.49842 0.1998 0.0
C923 C 0.85075 0.45825 0.1462 0.0
C924 C 0.87052 0.47259 0.16401 0.0
H925 H 0.97891 0.52398 0.24403 0.0
H926 H 0.9546 0.50878 0.20736 0.0
H927 H 0.9166 0.47 0.19479 0.0
H928 H 0.81007 0.39821 0.12937 0.0
H929 H 0.84203 0.42158 0.15899 0.0
loop_
_geom_bond_atom_site_label_1
_geom_bond_atom_site_label_2
_geom_bond_distance
_geom_bond_site_symmetry_2
_ccdc_geom_bond_type
H0 C8 0.930 . S
H1 C11 0.930 . S
H2 C13 0.930 . S
H3 C14 0.970 . S
H4 C14 0.970 . S
H5 C16 0.930 . S
H6 C18 0.930 . S
H7 C20 0.930 . S
C8 H0 0.930 . S
C8 C9 1.382 . S
C8 C10 1.426 . S
C9 C8 1.382 . S
C9 C13 1.389 . S
C10 C8 1.426 . S
C10 C11 1.375 . S
C10 C14 1.532 1_655 S
C11 H1 0.930 . S
C11 C10 1.375 . S
C11 C12 1.416 . S
C12 C11 1.416 . S
C12 C13 1.371 . S
C13 H2 0.930 . S
C13 C9 1.389 . S
C13 C12 1.371 . S
C14 H3 0.970 . S
C14 H4 0.970 . S
C14 C10 1.532 1_455 S
C14 C15 1.499 . S
C15 C14 1.499 . S
C15 C16 1.370 . S
C15 C20 1.415 . S
C16 H5 0.930 . S
C16 C15 1.370 . S
C16 C17 1.407 . S
C17 C16 1.407 . S
C17 C18 1.365 . S
C18 H6 0.930 . S
C18 C17 1.365 . S
C18 C19 1.393 . S
C19 C18 1.393 . S
C19 C20 1.387 . S
C20 H7 0.930 . S
C20 C15 1.415 . S
C20 C19 1.387 . S
H21 C29 0.930 . S
H22 C32 0.930 . S
H23 C34 0.930 . S
H24 C35 0.970 . S
H25 C35 0.970 . S
H26 C37 0.930 . S
H27 C39 0.930 . S
H28 C41 0.930 . S
C29 H21 0.930 . S
C29 C30 1.382 . S
C29 C31 1.426 . S
C30 C29 1.382 . S
C30 C34 1.389 . S
C31 C29 1.426 . S
C31 C32 1.375 . S
C31 C35 1.532 1_565 S
C32 H22 0.930 . S
C32 C31 1.375 . S
C32 C33 1.416 . S
C33 C32 1.416 . S
C33 C34 1.371 . S
C34 H23 0.930 . S
C34 C30 1.389 . S
C34 C33 1.371 . S
C35 H24 0.970 . S
C35 H25 0.970 . S
C35 C31 1.532 1_545 S
C35 C36 1.499 . S
C36 C35 1.499 . S
C36 C37 1.370 . S
C36 C41 1.415 . S
C37 H26 0.930 . S
C37 C36 1.370 . S
C37 C38 1.407 . S
C38 C37 1.407 . S
C38 C39 1.365 . S
C39 H27 0.930 . S
C39 C38 1.365 . S
C39 C40 1.393 . S
C40 C39 1.393 . S
C40 C41 1.387 . S
C41 H28 0.930 . S
C41 C36 1.415 . S
C41 C40 1.387 . S
H42 C50 0.930 . S
H43 C53 0.930 . S
H44 C55 0.930 . S
H45 C56 0.970 . S
H46 C56 0.970 . S
H47 C58 0.930 . S
H48 C60 0.930 . S
H49 C62 0.930 . S
C50 H42 0.930 . S
C50 C51 1.382 . S
C50 C52 1.426 . S
C51 C50 1.382 . S
C51 C55 1.389 . S
C52 C50 1.426 . S
C52 C53 1.375 . S
C52 C56 1.532 . S
C53 H43 0.930 . S
C53 C52 1.375 . S
C53 C54 1.416 . S
C54 C53 1.416 . S
C54 C55 1.371 . S
C55 H44 0.930 . S
C55 C51 1.389 . S
C55 C54 1.371 . S
C56 H45 0.970 . S
C56 H46 0.970 . S
C56 C52 1.532 . S
C56 C57 1.499 . S
C57 C56 1.499 . S
C57 C58 1.370 . S
C57 C62 1.415 . S
C58 H47 0.930 . S
C58 C57 1.370 . S
C58 C59 1.407 . S
C59 C58 1.407 . S
C59 C60 1.365 . S
C60 H48 0.930 . S
C60 C59 1.365 . S
C60 C61 1.393 . S
C61 C60 1.393 . S
C61 C62 1.387 . S
C62 H49 0.930 . S
C62 C57 1.415 . S
C62 C61 1.387 . S
H63 C71 0.930 . S
H64 C74 0.930 . S
H65 C76 0.930 . S
H66 C77 0.970 . S
H67 C77 0.970 . S
H68 C79 0.930 . S
H69 C81 0.930 . S
H70 C83 0.930 . S
C71 H63 0.930 . S
C71 C72 1.382 . S
C71 C73 1.426 . S
C72 C71 1.382 . S
C72 C76 1.389 . S
C73 C71 1.426 . S
C73 C74 1.375 . S
C73 C77 1.532 1_655 S
C74 H64 0.930 . S
C74 C73 1.375 . S
C74 C75 1.416 . S
C75 C74 1.416 . S
C75 C76 1.371 . S
C76 H65 0.930 . S
C76 C72 1.389 . S
C76 C75 1.371 . S
C77 H66 0.970 . S
C77 H67 0.970 . S
C77 C73 1.532 1_455 S
C77 C78 1.499 . S
C78 C77 1.499 . S
C78 C79 1.370 . S
C78 C83 1.415 . S
C79 H68 0.930 . S
C79 C78 1.370 . S
C79 C80 1.407 . S
C80 C79 1.407 . S
C80 C81 1.365 . S
C81 H69 0.930 . S
C81 C80 1.365 . S
C81 C82 1.393 . S
C82 C81 1.393 . S
C82 C83 1.387 . S
C83 H70 0.930 . S
C83 C78 1.415 . S
C83 C82 1.387 . S
H84 C92 0.930 . S
H85 C95 0.930 . S
H86 C97 0.930 . S
H87 C98 0.970 1_554 S
H88 C98 0.970 . S
H89 C100 0.930 . S
H90 C102 0.930 . S
H91 C104 0.930 . S
C92 H84 0.930 . S
C92 C93 1.382 1_554 S
C92 C94 1.426 1_554 S
C93 C92 1.382 1_556 S
C93 C97 1.389 . S
C94 C92 1.426 1_556 S
C94 C95 1.375 . S
C94 C98 1.532 . S
C95 H85 0.930 . S
C95 C94 1.375 . S
C95 C96 1.416 . S
C96 C95 1.416 . S
C96 C97 1.371 . S
C97 H86 0.930 . S
C97 C93 1.389 . S
C97 C96 1.371 . S
C98 H87 0.970 1_556 S
C98 H88 0.970 . S
C98 C94 1.532 . S
C98 C99 1.499 1_545 S
C99 C98 1.499 1_565 S
C99 C100 1.370 1_556 S
C99 C104 1.415 . S
C100 H89 0.930 . S
C100 C99 1.370 1_554 S
C100 C101 1.407 . S
C101 C100 1.407 . S
C101 C102 1.365 . S
C102 H90 0.930 . S
C102 C101 1.365 . S
C102 C103 1.393 1_554 S
C103 C102 1.393 1_556 S
C103 C104 1.387 . S
C104 H91 0.930 . S
C104 C99 1.415 . S
C104 C103 1.387 . S
H105 C113 0.930 . S
H106 C116 0.930 . S
H107 C118 0.930 . S
H108 C119 0.970 . S
H109 C119 0.970 . S
H110 C121 0.930 . S
H111 C123 0.930 . S
H112 C125 0.930 . S
C113 H105 0.930 . S
C113 C114 1.382 . S
C113 C115 1.426 . S
C114 C113 1.382 . S
C114 C118 1.389 . S
C115 C113 1.426 . S
C115 C116 1.375 . S
C115 C119 1.532 . S
C116 H106 0.930 . S
C116 C115 1.375 . S
C116 C117 1.416 . S
C117 C116 1.416 . S
C117 C118 1.371 . S
C118 H107 0.930 . S
C118 C114 1.389 . S
C118 C117 1.371 . S
C119 H108 0.970 . S
C119 H109 0.970 . S
C119 C115 1.532 . S
C119 C120 1.499 . S
C120 C119 1.499 . S
C120 C121 1.370 . S
C120 C125 1.415 . S
C121 H110 0.930 . S
C121 C120 1.370 . S
C121 C122 1.407 . S
C122 C121 1.407 . S
C122 C123 1.365 . S
C123 H111 0.930 . S
C123 C122 1.365 . S
C123 C124 1.393 . S
C124 C123 1.393 . S
C124 C125 1.387 . S
C125 H112 0.930 . S
C125 C120 1.415 . S
C125 C124 1.387 . S
O126 Cd127 2.223 . S
O126 C134 1.315 . S
Cd127 O126 2.223 . S
Cd127 O130 2.297 . S
Cd127 O131 2.439 . S
Cd127 O137 2.240 . S
Cd128 O129 2.240 . S
Cd128 O136 2.223 . S
Cd128 O138 2.297 . S
Cd128 O139 2.439 . S
O129 Cd128 2.240 . S
O129 C134 1.279 . S
O130 Cd127 2.297 . S
O130 C132 1.247 . S
O131 Cd127 2.439 . S
O131 C132 1.208 . S
C132 O130 1.247 . S
C132 O131 1.208 . S
C133 O138 1.247 . S
C133 O139 1.208 . S
C134 O126 1.315 . S
C134 O129 1.279 . S
C135 O136 1.315 . S
C135 O137 1.279 . S
O136 Cd128 2.223 . S
O136 C135 1.315 . S
O137 Cd127 2.240 . S
O137 C135 1.279 . S
O138 Cd128 2.297 . S
O138 C133 1.247 . S
O139 Cd128 2.439 . S
O139 C133 1.208 . S
O140 Cd141 2.223 . S
O140 C148 1.315 . S
Cd141 O140 2.223 . S
Cd141 O144 2.297 . S
Cd141 O145 2.439 . S
Cd141 O151 2.240 . S
Cd142 O143 2.240 . S
Cd142 O150 2.223 . S
Cd142 O152 2.297 . S
Cd142 O153 2.439 . S
O143 Cd142 2.240 . S
O143 C148 1.279 . S
O144 Cd141 2.297 . S
O144 C146 1.247 . S
O145 Cd141 2.439 . S
O145 C146 1.208 . S
C146 O144 1.247 . S
C146 O145 1.208 . S
C147 O152 1.247 . S
C147 O153 1.208 . S
C148 O140 1.315 . S
C148 O143 1.279 . S
C149 O150 1.315 . S
C149 O151 1.279 . S
O150 Cd142 2.223 . S
O150 C149 1.315 . S
O151 Cd141 2.240 . S
O151 C149 1.279 . S
O152 Cd142 2.297 . S
O152 C147 1.247 . S
O153 Cd142 2.439 . S
O153 C147 1.208 . S
O154 Cd155 2.223 . S
O154 C162 1.315 . S
Cd155 O154 2.223 . S
Cd155 O158 2.297 . S
Cd155 O159 2.439 . S
Cd155 O165 2.240 . S
Cd156 O157 2.240 . S
Cd156 O164 2.223 . S
Cd156 O166 2.297 . S
Cd156 O167 2.439 . S
O157 Cd156 2.240 . S
O157 C162 1.279 . S
O158 Cd155 2.297 . S
O158 C160 1.247 . S
O159 Cd155 2.439 . S
O159 C160 1.208 . S
C160 O158 1.247 . S
C160 O159 1.208 . S
C161 O166 1.247 . S
C161 O167 1.208 . S
C162 O154 1.315 . S
C162 O157 1.279 . S
C163 O164 1.315 . S
C163 O165 1.279 . S
O164 Cd156 2.223 . S
O164 C163 1.315 . S
O165 Cd155 2.240 . S
O165 C163 1.279 . S
O166 Cd156 2.297 . S
O166 C161 1.247 . S
O167 Cd156 2.439 . S
O167 C161 1.208 . S
O168 Cd169 2.223 . S
O168 C176 1.315 . S
Cd169 O168 2.223 . S
Cd169 O172 2.297 . S
Cd169 O173 2.439 . S
Cd169 O179 2.240 . S
Cd170 O171 2.240 . S
Cd170 O178 2.223 . S
Cd170 O180 2.297 . S
Cd170 O181 2.439 . S
O171 Cd170 2.240 . S
O171 C176 1.279 . S
O172 Cd169 2.297 . S
O172 C174 1.247 . S
O173 Cd169 2.439 . S
O173 C174 1.208 . S
C174 O172 1.247 . S
C174 O173 1.208 . S
C175 O180 1.247 . S
C175 O181 1.208 . S
C176 O168 1.315 . S
C176 O171 1.279 . S
C177 O178 1.315 . S
C177 O179 1.279 . S
O178 Cd170 2.223 . S
O178 C177 1.315 . S
O179 Cd169 2.240 . S
O179 C177 1.279 . S
O180 Cd170 2.297 . S
O180 C175 1.247 . S
O181 Cd170 2.439 . S
O181 C175 1.208 . S
O182 Cd183 2.223 . S
O182 C190 1.315 . S
Cd183 O182 2.223 . S
Cd183 O186 2.297 . S
Cd183 O187 2.439 . S
Cd183 O193 2.240 . S
Cd184 O185 2.240 . S
Cd184 O192 2.223 . S
Cd184 O194 2.297 . S
Cd184 O195 2.439 . S
O185 Cd184 2.240 . S
O185 C190 1.279 . S
O186 Cd183 2.297 . S
O186 C188 1.247 . S
O187 Cd183 2.439 . S
O187 C188 1.208 . S
C188 O186 1.247 . S
C188 O187 1.208 . S
C189 O194 1.247 . S
C189 O195 1.208 . S
C190 O182 1.315 . S
C190 O185 1.279 . S
C191 O192 1.315 . S
C191 O193 1.279 . S
O192 Cd184 2.223 . S
O192 C191 1.315 . S
O193 Cd183 2.240 . S
O193 C191 1.279 . S
O194 Cd184 2.297 . S
O194 C189 1.247 . S
O195 Cd184 2.439 . S
O195 C189 1.208 . S
O196 Cd197 2.223 . S
O196 C204 1.315 . S
Cd197 O196 2.223 . S
Cd197 O200 2.297 . S
Cd197 O201 2.439 . S
Cd197 O207 2.240 . S
Cd198 O199 2.240 . S
Cd198 O206 2.223 . S
Cd198 O208 2.297 . S
Cd198 O209 2.439 . S
O199 Cd198 2.240 . S
O199 C204 1.279 . S
O200 Cd197 2.297 . S
O200 C202 1.247 . S
O201 Cd197 2.439 . S
O201 C202 1.208 . S
C202 O200 1.247 . S
C202 O201 1.208 . S
C203 O208 1.247 . S
C203 O209 1.208 . S
C204 O196 1.315 . S
C204 O199 1.279 . S
C205 O206 1.315 . S
C205 O207 1.279 . S
O206 Cd198 2.223 . S
O206 C205 1.315 . S
O207 Cd197 2.240 . S
O207 C205 1.279 . S
O208 Cd198 2.297 . S
O208 C203 1.247 . S
O209 Cd198 2.439 . S
O209 C203 1.208 . S
C210 C211 1.349 . S
C210 C212 1.327 . S
C210 H235 0.950 . S
C211 C210 1.349 . S
C211 C227 1.349 . S
C212 C210 1.327 . S
C212 C231 1.429 . S
C212 H236 0.950 . S
C213 C230 1.574 . S
C213 C232 1.368 . S
C213 H237 0.949 . S
H214 C218 0.949 . S
C215 C216 1.349 . S
C215 C217 1.327 . S
C215 H238 0.950 . S
C216 C215 1.349 . S
C216 C228 1.349 . S
C217 C215 1.327 . S
C217 C233 1.429 . S
C217 H239 0.950 . S
C218 H214 0.949 . S
C218 C226 1.574 . S
C218 C234 1.368 . S
H219 C227 0.950 . S
H220 C225 0.950 . S
H221 C226 0.949 . S
H222 C228 0.950 . S
H223 C229 0.950 . S
H224 C230 0.949 . S
C225 H220 0.950 . S
C225 C227 1.327 . S
C225 C231 1.429 . S
C226 C218 1.574 . S
C226 H221 0.949 . S
C226 C232 1.368 . S
C227 C211 1.349 . S
C227 H219 0.950 . S
C227 C225 1.327 . S
C228 C216 1.349 . S
C228 H222 0.950 . S
C228 C229 1.327 . S
C229 H223 0.950 . S
C229 C228 1.327 . S
C229 C233 1.429 . S
C230 C213 1.574 . S
C230 H224 0.949 . S
C230 C234 1.368 . S
C231 C212 1.429 . S
C231 C225 1.429 . S
C231 C232 1.523 . S
C232 C213 1.368 . S
C232 C226 1.368 . S
C232 C231 1.523 . S
C233 C217 1.429 . S
C233 C229 1.429 . S
C233 C234 1.523 . S
C234 C218 1.368 . S
C234 C230 1.368 . S
C234 C233 1.523 . S
H235 C210 0.950 . S
H236 C212 0.950 . S
H237 C213 0.949 . S
H238 C215 0.950 . S
H239 C217 0.950 . S
C240 C241 1.349 . S
C240 C242 1.327 . S
C240 H265 0.950 . S
C241 C240 1.349 . S
C241 C257 1.349 . S
C242 C240 1.327 . S
C242 C261 1.429 . S
C242 H266 0.950 . S
C243 C260 1.574 . S
C243 C262 1.368 . S
C243 H267 0.949 . S
H244 C248 0.949 . S
C245 C246 1.349 . S
C245 C247 1.327 . S
C245 H268 0.950 . S
C246 C245 1.349 . S
C246 C258 1.349 . S
C247 C245 1.327 . S
C247 C263 1.429 . S
C247 H269 0.950 . S
C248 H244 0.949 . S
C248 C256 1.574 . S
C248 C264 1.368 . S
H249 C257 0.950 . S
H250 C255 0.950 . S
H251 C256 0.949 . S
H252 C258 0.950 . S
H253 C259 0.950 . S
H254 C260 0.949 . S
C255 H250 0.950 . S
C255 C257 1.327 . S
C255 C261 1.429 . S
C256 C248 1.574 . S
C256 H251 0.949 . S
C256 C262 1.368 . S
C257 C241 1.349 . S
C257 H249 0.950 . S
C257 C255 1.327 . S
C258 C246 1.349 . S
C258 H252 0.950 . S
C258 C259 1.327 . S
C259 H253 0.950 . S
C259 C258 1.327 . S
C259 C263 1.429 . S
C260 C243 1.574 . S
C260 H254 0.949 . S
C260 C264 1.368 . S
C261 C242 1.429 . S
C261 C255 1.429 . S
C261 C262 1.523 . S
C262 C243 1.368 . S
C262 C256 1.368 . S
C262 C261 1.523 . S
C263 C247 1.429 . S
C263 C259 1.429 . S
C263 C264 1.523 . S
C264 C248 1.368 . S
C264 C260 1.368 . S
C264 C263 1.523 . S
H265 C240 0.950 . S
H266 C242 0.950 . S
H267 C243 0.949 . S
H268 C245 0.950 . S
H269 C247 0.950 . S
C270 C271 1.349 . S
C270 C272 1.327 . S
C270 H295 0.950 . S
C271 C270 1.349 . S
C271 C287 1.349 . S
C272 C270 1.327 . S
C272 C291 1.429 . S
C272 H296 0.950 . S
C273 C290 1.574 . S
C273 C292 1.368 . S
C273 H297 0.949 . S
H274 C278 0.949 . S
C275 C276 1.349 . S
C275 C277 1.327 . S
C275 H298 0.950 . S
C276 C275 1.349 . S
C276 C288 1.349 . S
C277 C275 1.327 . S
C277 C293 1.429 . S
C277 H299 0.950 . S
C278 H274 0.949 . S
C278 C286 1.574 . S
C278 C294 1.368 . S
H279 C287 0.950 . S
H280 C285 0.950 . S
H281 C286 0.949 . S
H282 C288 0.950 . S
H283 C289 0.950 . S
H284 C290 0.949 . S
C285 H280 0.950 . S
C285 C287 1.327 . S
C285 C291 1.429 . S
C286 C278 1.574 . S
C286 H281 0.949 . S
C286 C292 1.368 . S
C287 C271 1.349 . S
C287 H279 0.950 . S
C287 C285 1.327 . S
C288 C276 1.349 . S
C288 H282 0.950 . S
C288 C289 1.327 . S
C289 H283 0.950 . S
C289 C288 1.327 . S
C289 C293 1.429 . S
C290 C273 1.574 . S
C290 H284 0.949 . S
C290 C294 1.368 . S
C291 C272 1.429 . S
C291 C285 1.429 . S
C291 C292 1.523 . S
C292 C273 1.368 . S
C292 C286 1.368 . S
C292 C291 1.523 . S
C293 C277 1.429 . S
C293 C289 1.429 . S
C293 C294 1.523 . S
C294 C278 1.368 . S
C294 C290 1.368 . S
C294 C293 1.523 . S
H295 C270 0.950 . S
H296 C272 0.950 . S
H297 C273 0.949 . S
H298 C275 0.950 . S
H299 C277 0.950 . S
C300 C301 1.349 . S
C300 C302 1.327 . S
C300 H325 0.950 . S
C301 C300 1.349 . S
C301 C317 1.349 . S
C302 C300 1.327 . S
C302 C321 1.429 . S
C302 H326 0.950 . S
C303 C320 1.574 . S
C303 C322 1.368 . S
C303 H327 0.949 . S
H304 C308 0.949 . S
C305 C306 1.349 . S
C305 C307 1.327 . S
C305 H328 0.950 . S
C306 C305 1.349 . S
C306 C318 1.349 . S
C307 C305 1.327 . S
C307 C323 1.429 . S
C307 H329 0.950 . S
C308 H304 0.949 . S
C308 C316 1.574 . S
C308 C324 1.368 . S
H309 C317 0.950 . S
H310 C315 0.950 . S
H311 C316 0.949 . S
H312 C318 0.950 . S
H313 C319 0.950 . S
H314 C320 0.949 . S
C315 H310 0.950 . S
C315 C317 1.327 . S
C315 C321 1.429 . S
C316 C308 1.574 . S
C316 H311 0.949 . S
C316 C322 1.368 . S
C317 C301 1.349 . S
C317 H309 0.950 . S
C317 C315 1.327 . S
C318 C306 1.349 . S
C318 H312 0.950 . S
C318 C319 1.327 . S
C319 H313 0.950 . S
C319 C318 1.327 . S
C319 C323 1.429 . S
C320 C303 1.574 . S
C320 H314 0.949 . S
C320 C324 1.368 . S
C321 C302 1.429 . S
C321 C315 1.429 . S
C321 C322 1.523 . S
C322 C303 1.368 . S
C322 C316 1.368 . S
C322 C321 1.523 . S
C323 C307 1.429 . S
C323 C319 1.429 . S
C323 C324 1.523 . S
C324 C308 1.368 . S
C324 C320 1.368 . S
C324 C323 1.523 . S
H325 C300 0.950 . S
H326 C302 0.950 . S
H327 C303 0.949 . S
H328 C305 0.950 . S
H329 C307 0.950 . S
C330 C331 1.349 . S
C330 C332 1.327 . S
C330 H355 0.982 . S
C331 C330 1.349 . S
C331 C347 1.349 . S
C332 C330 1.327 . S
C332 C351 1.429 . S
C332 H356 0.950 . S
C333 C350 1.574 . S
C333 C352 1.368 . S
C333 H357 0.949 . S
H334 C338 0.949 . S
C335 C336 1.349 . S
C335 C337 1.327 . S
C335 H358 0.950 . S
C336 C335 1.349 . S
C336 C348 1.349 . S
C337 C335 1.327 . S
C337 C353 1.429 . S
C337 H359 0.950 . S
C338 H334 0.949 . S
C338 C346 1.574 . S
C338 C354 1.368 . S
H339 C347 0.950 . S
H340 C345 0.950 . S
H341 C346 0.949 . S
H342 C348 0.950 . S
H343 C349 0.950 . S
H344 C350 0.949 . S
C345 H340 0.950 . S
C345 C347 1.327 . S
C345 C351 1.429 . S
C346 C338 1.574 . S
C346 H341 0.949 . S
C346 C352 1.368 . S
C347 C331 1.349 . S
C347 H339 0.950 . S
C347 C345 1.327 . S
C348 C336 1.349 . S
C348 H342 0.950 . S
C348 C349 1.327 . S
C349 H343 0.950 . S
C349 C348 1.327 . S
C349 C353 1.429 . S
C350 C333 1.574 . S
C350 H344 0.949 . S
C350 C354 1.368 . S
C351 C332 1.429 . S
C351 C345 1.429 . S
C351 C352 1.523 . S
C352 C333 1.368 . S
C352 C346 1.368 . S
C352 C351 1.523 . S
C353 C337 1.429 . S
C353 C349 1.429 . S
C353 C354 1.523 . S
C354 C338 1.368 . S
C354 C350 1.368 . S
C354 C353 1.523 . S
H355 C330 0.982 . S
H356 C332 0.950 . S
H357 C333 0.949 . S
H358 C335 0.950 . S
H359 C337 0.950 . S
C360 C361 1.349 . S
C360 C362 1.327 . S
C360 H385 0.950 . S
C361 C360 1.349 . S
C361 C377 1.349 . S
C362 C360 1.327 . S
C362 C381 1.429 . S
C362 H386 0.950 . S
C363 C380 1.574 . S
C363 C382 1.368 . S
C363 H387 0.949 . S
H364 C368 0.949 . S
C365 C366 1.349 . S
C365 C367 1.327 . S
C365 H388 0.950 . S
C366 C365 1.349 . S
C366 C378 1.349 . S
C367 C365 1.327 . S
C367 C383 1.429 . S
C367 H389 0.950 . S
C368 H364 0.949 . S
C368 C376 1.574 . S
C368 C384 1.368 . S
H369 C377 0.950 . S
H370 C375 0.950 . S
H371 C376 0.949 . S
H372 C378 0.950 . S
H373 C379 0.950 . S
H374 C380 0.949 . S
C375 H370 0.950 . S
C375 C377 1.327 . S
C375 C381 1.429 . S
C376 C368 1.574 . S
C376 H371 0.949 . S
C376 C382 1.368 . S
C377 C361 1.349 . S
C377 H369 0.950 . S
C377 C375 1.327 . S
C378 C366 1.349 . S
C378 H372 0.950 . S
C378 C379 1.327 . S
C379 H373 0.950 . S
C379 C378 1.327 . S
C379 C383 1.429 . S
C380 C363 1.574 . S
C380 H374 0.949 . S
C380 C384 1.368 . S
C381 C362 1.429 . S
C381 C375 1.429 . S
C381 C382 1.523 . S
C382 C363 1.368 . S
C382 C376 1.368 . S
C382 C381 1.523 . S
C383 C367 1.429 . S
C383 C379 1.429 . S
C383 C384 1.523 . S
C384 C368 1.368 . S
C384 C380 1.368 . S
C384 C383 1.523 . S
H385 C360 0.950 . S
H386 C362 0.950 . S
H387 C363 0.949 . S
H388 C365 0.950 . S
H389 C367 0.950 . S
C390 C391 1.349 . S
C390 C392 1.327 . S
C390 H415 0.950 . S
C391 C390 1.349 . S
C391 C407 1.349 . S
C392 C390 1.327 . S
C392 C411 1.429 . S
C392 H416 0.950 . S
C393 C410 1.574 . S
C393 C412 1.368 . S
C393 H417 0.949 . S
H394 C398 0.949 . S
C395 C396 1.349 . S
C395 C397 1.327 . S
C395 H418 0.950 . S
C396 C395 1.349 . S
C396 C408 1.349 . S
C397 C395 1.327 . S
C397 C413 1.429 . S
C397 H419 0.950 . S
C398 H394 0.949 . S
C398 C406 1.574 . S
C398 C414 1.368 . S
H399 C407 0.950 . S
H400 C405 0.950 . S
H401 C406 0.949 . S
H402 C408 0.950 . S
H403 C409 0.950 . S
H404 C410 0.949 . S
C405 H400 0.950 . S
C405 C407 1.327 . S
C405 C411 1.429 . S
C406 C398 1.574 . S
C406 H401 0.949 . S
C406 C412 1.368 . S
C407 C391 1.349 . S
C407 H399 0.950 . S
C407 C405 1.327 . S
C408 C396 1.349 . S
C408 H402 0.950 . S
C408 C409 1.327 . S
C409 H403 0.950 . S
C409 C408 1.327 . S
C409 C413 1.429 . S
C410 C393 1.574 . S
C410 H404 0.949 . S
C410 C414 1.368 . S
C411 C392 1.429 . S
C411 C405 1.429 . S
C411 C412 1.523 . S
C412 C393 1.368 . S
C412 C406 1.368 . S
C412 C411 1.523 . S
C413 C397 1.429 . S
C413 C409 1.429 . S
C413 C414 1.523 . S
C414 C398 1.368 . S
C414 C410 1.368 . S
C414 C413 1.523 . S
H415 C390 0.950 . S
H416 C392 0.950 . S
H417 C393 0.949 . S
H418 C395 0.950 . S
H419 C397 0.950 . S
C420 C421 1.349 . S
C420 C422 1.327 . S
C420 H445 0.950 . S
C421 C420 1.349 . S
C421 C437 1.349 . S
C422 C420 1.327 . S
C422 C441 1.429 . S
C422 H446 0.950 . S
C423 C440 1.574 . S
C423 C442 1.368 . S
C423 H447 0.949 . S
H424 C428 0.949 . S
C425 C426 1.349 . S
C425 C427 1.327 . S
C425 H448 0.950 . S
C426 C425 1.349 . S
C426 C438 1.349 . S
C427 C425 1.327 . S
C427 C443 1.429 . S
C427 H449 0.950 . S
C428 H424 0.949 . S
C428 C436 1.574 . S
C428 C444 1.368 . S
H429 C437 0.950 . S
H430 C435 0.950 . S
H431 C436 0.949 . S
H432 C438 0.950 . S
H433 C439 0.950 . S
H434 C440 0.949 . S
C435 H430 0.950 . S
C435 C437 1.327 . S
C435 C441 1.429 . S
C436 C428 1.574 . S
C436 H431 0.949 . S
C436 C442 1.368 . S
C437 C421 1.349 . S
C437 H429 0.950 . S
C437 C435 1.327 . S
C438 C426 1.349 . S
C438 H432 0.950 . S
C438 C439 1.327 . S
C439 H433 0.950 . S
C439 C438 1.327 . S
C439 C443 1.429 . S
C440 C423 1.574 . S
C440 H434 0.949 . S
C440 C444 1.368 . S
C441 C422 1.429 . S
C441 C435 1.429 . S
C441 C442 1.523 . S
C442 C423 1.368 . S
C442 C436 1.368 . S
C442 C441 1.523 . S
C443 C427 1.429 . S
C443 C439 1.429 . S
C443 C444 1.523 . S
C444 C428 1.368 . S
C444 C440 1.368 . S
C444 C443 1.523 . S
H445 C420 0.950 . S
H446 C422 0.950 . S
H447 C423 0.949 . S
H448 C425 0.950 . S
H449 C427 0.950 . S
C450 C451 1.349 . S
C450 C452 1.327 . S
C450 H475 0.950 . S
C451 C450 1.349 . S
C451 C467 1.349 . S
C452 C450 1.327 . S
C452 C471 1.429 . S
C452 H476 0.950 . S
C453 C470 1.574 . S
C453 C472 1.368 . S
C453 H477 0.949 . S
H454 C458 0.949 . S
C455 C456 1.349 . S
C455 C457 1.327 . S
C455 H478 0.950 . S
C456 C455 1.349 . S
C456 C468 1.349 . S
C457 C455 1.327 . S
C457 C473 1.429 . S
C457 H479 0.950 . S
C458 H454 0.949 . S
C458 C466 1.574 . S
C458 C474 1.368 . S
H459 C467 0.950 . S
H460 C465 0.950 . S
H461 C466 0.949 . S
H462 C468 0.950 . S
H463 C469 0.950 . S
H464 C470 0.949 . S
C465 H460 0.950 . S
C465 C467 1.327 . S
C465 C471 1.429 . S
C466 C458 1.574 . S
C466 H461 0.949 . S
C466 C472 1.368 . S
C467 C451 1.349 . S
C467 H459 0.950 . S
C467 C465 1.327 . S
C468 C456 1.349 . S
C468 H462 0.950 . S
C468 C469 1.327 . S
C469 H463 0.950 . S
C469 C468 1.327 . S
C469 C473 1.429 . S
C470 C453 1.574 . S
C470 H464 0.949 . S
C470 C474 1.368 . S
C471 C452 1.429 . S
C471 C465 1.429 . S
C471 C472 1.523 . S
C472 C453 1.368 . S
C472 C466 1.368 . S
C472 C471 1.523 . S
C473 C457 1.429 . S
C473 C469 1.429 . S
C473 C474 1.523 . S
C474 C458 1.368 . S
C474 C470 1.368 . S
C474 C473 1.523 . S
H475 C450 0.950 . S
H476 C452 0.950 . S
H477 C453 0.949 . S
H478 C455 0.950 . S
H479 C457 0.950 . S
C480 C481 1.349 . S
C480 C482 1.327 . S
C480 H505 0.950 . S
C481 C480 1.349 . S
C481 C497 1.349 1_554 S
C482 C480 1.327 . S
C482 C501 1.429 . S
C482 H506 0.950 . S
C483 C500 1.574 . S
C483 C502 1.368 . S
C483 H507 0.948 1_554 S
H484 C488 0.949 . S
C485 C486 1.349 . S
C485 C487 1.327 . S
C485 H508 0.950 . S
C486 C485 1.349 . S
C486 C498 1.349 . S
C487 C485 1.327 . S
C487 C503 1.429 . S
C487 H509 0.950 . S
C488 H484 0.949 . S
C488 C496 1.574 . S
C488 C504 1.368 . S
H489 C497 0.950 . S
H490 C495 0.950 1_556 S
H491 C496 0.949 . S
H492 C498 0.950 . S
H493 C499 0.950 . S
H494 C500 0.949 . S
C495 H490 0.950 1_554 S
C495 C497 1.327 1_554 S
C495 C501 1.429 . S
C496 C488 1.574 . S
C496 H491 0.949 . S
C496 C502 1.368 . S
C497 C481 1.349 1_556 S
C497 H489 0.950 . S
C497 C495 1.327 1_556 S
C498 C486 1.349 . S
C498 H492 0.950 . S
C498 C499 1.327 . S
C499 H493 0.950 . S
C499 C498 1.327 . S
C499 C503 1.429 . S
C500 C483 1.574 . S
C500 H494 0.949 . S
C500 C504 1.368 . S
C501 C482 1.429 . S
C501 C495 1.429 . S
C501 C502 1.523 . S
C502 C483 1.368 . S
C502 C496 1.368 . S
C502 C501 1.523 . S
C503 C487 1.429 . S
C503 C499 1.429 . S
C503 C504 1.523 . S
C504 C488 1.368 . S
C504 C500 1.368 . S
C504 C503 1.523 . S
H505 C480 0.950 . S
H506 C482 0.950 . S
H507 C483 0.948 1_556 S
H508 C485 0.950 . S
H509 C487 0.950 . S
C510 C511 1.349 . S
C510 C512 1.327 . S
C510 H535 0.950 . S
C511 C510 1.349 . S
C511 C527 1.349 . S
C512 C510 1.327 . S
C512 C531 1.429 . S
C512 H536 0.950 . S
C513 C530 1.574 . S
C513 C532 1.368 . S
C513 H537 0.949 . S
H514 C518 0.949 . S
C515 C516 1.349 . S
C515 C517 1.327 . S
C515 H538 0.950 . S
C516 C515 1.349 . S
C516 C528 1.349 . S
C517 C515 1.327 . S
C517 C533 1.429 . S
C517 H539 0.950 . S
C518 H514 0.949 . S
C518 C526 1.574 . S
C518 C534 1.368 . S
H519 C527 0.950 . S
H520 C525 0.950 . S
H521 C526 0.949 . S
H522 C528 0.950 . S
H523 C529 0.950 . S
H524 C530 0.949 . S
C525 H520 0.950 . S
C525 C527 1.327 . S
C525 C531 1.429 . S
C526 C518 1.574 . S
C526 H521 0.949 . S
C526 C532 1.368 . S
C527 C511 1.349 . S
C527 H519 0.950 . S
C527 C525 1.327 . S
C528 C516 1.349 . S
C528 H522 0.950 . S
C528 C529 1.327 . S
C529 H523 0.950 . S
C529 C528 1.327 . S
C529 C533 1.429 . S
C530 C513 1.574 . S
C530 H524 0.949 . S
C530 C534 1.368 . S
C531 C512 1.429 . S
C531 C525 1.429 . S
C531 C532 1.523 . S
C532 C513 1.368 . S
C532 C526 1.368 . S
C532 C531 1.523 . S
C533 C517 1.429 . S
C533 C529 1.429 . S
C533 C534 1.523 . S
C534 C518 1.368 . S
C534 C530 1.368 . S
C534 C533 1.523 . S
H535 C510 0.950 . S
H536 C512 0.950 . S
H537 C513 0.949 . S
H538 C515 0.950 . S
H539 C517 0.950 . S
C540 C541 1.349 . S
C540 C542 1.327 . S
C540 H565 0.950 . S
C541 C540 1.349 . S
C541 C557 1.349 . S
C542 C540 1.327 . S
C542 C561 1.429 . S
C542 H566 0.950 . S
C543 C560 1.574 . S
C543 C562 1.368 . S
C543 H567 0.949 . S
H544 C548 0.949 . S
C545 C546 1.349 . S
C545 C547 1.327 . S
C545 H568 0.950 . S
C546 C545 1.349 . S
C546 C558 1.349 . S
C547 C545 1.327 . S
C547 C563 1.429 . S
C547 H569 0.950 . S
C548 H544 0.949 . S
C548 C556 1.574 . S
C548 C564 1.368 . S
H549 C557 0.950 . S
H550 C555 0.950 . S
H551 C556 0.949 . S
H552 C558 0.950 . S
H553 C559 0.950 . S
H554 C560 0.949 . S
C555 H550 0.950 . S
C555 C557 1.327 . S
C555 C561 1.429 . S
C556 C548 1.574 . S
C556 H551 0.949 . S
C556 C562 1.368 . S
C557 C541 1.349 . S
C557 H549 0.950 . S
C557 C555 1.327 . S
C558 C546 1.349 . S
C558 H552 0.950 . S
C558 C559 1.327 . S
C559 H553 0.950 . S
C559 C558 1.327 . S
C559 C563 1.429 . S
C560 C543 1.574 . S
C560 H554 0.949 . S
C560 C564 1.368 . S
C561 C542 1.429 . S
C561 C555 1.429 . S
C561 C562 1.523 . S
C562 C543 1.368 . S
C562 C556 1.368 . S
C562 C561 1.523 . S
C563 C547 1.429 . S
C563 C559 1.429 . S
C563 C564 1.523 . S
C564 C548 1.368 . S
C564 C560 1.368 . S
C564 C563 1.523 . S
H565 C540 0.950 . S
H566 C542 0.950 . S
H567 C543 0.949 . S
H568 C545 0.950 . S
H569 C547 0.950 . S
C570 C571 1.349 . S
C570 C572 1.327 . S
C570 H595 0.950 . S
C571 C570 1.349 . S
C571 C587 1.349 . S
C572 C570 1.327 . S
C572 C591 1.429 . S
C572 H596 0.950 . S
C573 C590 1.574 . S
C573 C592 1.368 . S
C573 H597 0.949 . S
H574 C578 0.949 . S
C575 C576 1.349 . S
C575 C577 1.327 . S
C575 H598 0.950 . S
C576 C575 1.349 . S
C576 C588 1.349 . S
C577 C575 1.327 . S
C577 C593 1.429 . S
C577 H599 0.950 . S
C578 H574 0.949 . S
C578 C586 1.574 . S
C578 C594 1.368 . S
H579 C587 0.950 . S
H580 C585 0.950 . S
H581 C586 0.949 . S
H582 C588 0.950 . S
H583 C589 0.950 . S
H584 C590 0.949 . S
C585 H580 0.950 . S
C585 C587 1.327 . S
C585 C591 1.429 . S
C586 C578 1.574 . S
C586 H581 0.949 . S
C586 C592 1.368 . S
C587 C571 1.349 . S
C587 H579 0.950 . S
C587 C585 1.327 . S
C588 C576 1.349 . S
C588 H582 0.950 . S
C588 C589 1.327 . S
C589 H583 0.950 . S
C589 C588 1.327 . S
C589 C593 1.429 . S
C590 C573 1.574 . S
C590 H584 0.949 . S
C590 C594 1.368 . S
C591 C572 1.429 . S
C591 C585 1.429 . S
C591 C592 1.523 . S
C592 C573 1.368 . S
C592 C586 1.368 . S
C592 C591 1.523 . S
C593 C577 1.429 . S
C593 C589 1.429 . S
C593 C594 1.523 . S
C594 C578 1.368 . S
C594 C590 1.368 . S
C594 C593 1.523 . S
H595 C570 0.950 . S
H596 C572 0.950 . S
H597 C573 0.949 . S
H598 C575 0.950 . S
H599 C577 0.950 . S
C600 C601 1.349 . S
C600 C602 1.327 . S
C600 H625 0.950 . S
C601 C600 1.349 . S
C601 C617 1.349 . S
C602 C600 1.327 . S
C602 C621 1.429 . S
C602 H626 0.950 . S
C603 C620 1.574 . S
C603 C622 1.368 . S
C603 H627 0.949 . S
H604 C608 0.949 . S
C605 C606 1.349 . S
C605 C607 1.327 . S
C605 H628 0.950 . S
C606 C605 1.349 . S
C606 C618 1.349 . S
C607 C605 1.327 . S
C607 C623 1.429 . S
C607 H629 0.950 . S
C608 H604 0.949 . S
C608 C616 1.574 . S
C608 C624 1.368 . S
H609 C617 0.950 . S
H610 C615 0.950 . S
H611 C616 0.949 . S
H612 C618 0.950 . S
H613 C619 0.950 . S
H614 C620 0.949 . S
C615 H610 0.950 . S
C615 C617 1.327 . S
C615 C621 1.429 . S
C616 C608 1.574 . S
C616 H611 0.949 . S
C616 C622 1.368 . S
C617 C601 1.349 . S
C617 H609 0.950 . S
C617 C615 1.327 . S
C618 C606 1.349 . S
C618 H612 0.950 . S
C618 C619 1.327 . S
C619 H613 0.950 . S
C619 C618 1.327 . S
C619 C623 1.429 . S
C620 C603 1.574 . S
C620 H614 0.949 . S
C620 C624 1.368 . S
C621 C602 1.429 . S
C621 C615 1.429 . S
C621 C622 1.523 . S
C622 C603 1.368 . S
C622 C616 1.368 . S
C622 C621 1.523 . S
C623 C607 1.429 . S
C623 C619 1.429 . S
C623 C624 1.523 . S
C624 C608 1.368 . S
C624 C620 1.368 . S
C624 C623 1.523 . S
H625 C600 0.950 . S
H626 C602 0.950 . S
H627 C603 0.949 . S
H628 C605 0.950 . S
H629 C607 0.950 . S
C630 C631 1.349 . S
C630 C632 1.327 . S
C630 H655 0.950 . S
C631 C630 1.349 . S
C631 C647 1.349 . S
C632 C630 1.327 . S
C632 C651 1.429 . S
C632 H656 0.950 . S
C633 C650 1.574 . S
C633 C652 1.368 . S
C633 H657 0.949 . S
H634 C638 0.949 . S
C635 C636 1.349 . S
C635 C637 1.327 . S
C635 H658 0.950 . S
C636 C635 1.349 . S
C636 C648 1.349 . S
C637 C635 1.327 . S
C637 C653 1.429 . S
C637 H659 0.950 . S
C638 H634 0.949 . S
C638 C646 1.574 . S
C638 C654 1.368 . S
H639 C647 0.950 . S
H640 C645 0.950 . S
H641 C646 0.949 . S
H642 C648 0.950 . S
H643 C649 0.950 . S
H644 C650 0.949 . S
C645 H640 0.950 . S
C645 C647 1.327 . S
C645 C651 1.429 . S
C646 C638 1.574 . S
C646 H641 0.949 . S
C646 C652 1.368 . S
C647 C631 1.349 . S
C647 H639 0.950 . S
C647 C645 1.327 . S
C648 C636 1.349 . S
C648 H642 0.950 . S
C648 C649 1.327 . S
C649 H643 0.950 . S
C649 C648 1.327 . S
C649 C653 1.429 . S
C650 C633 1.574 . S
C650 H644 0.949 . S
C650 C654 1.368 . S
C651 C632 1.429 . S
C651 C645 1.429 . S
C651 C652 1.523 . S
C652 C633 1.368 . S
C652 C646 1.368 . S
C652 C651 1.523 . S
C653 C637 1.429 . S
C653 C649 1.429 . S
C653 C654 1.523 . S
C654 C638 1.368 . S
C654 C650 1.368 . S
C654 C653 1.523 . S
H655 C630 0.950 . S
H656 C632 0.950 . S
H657 C633 0.949 . S
H658 C635 0.950 . S
H659 C637 0.950 . S
C660 C661 1.349 . S
C660 C662 1.327 . S
C660 H685 0.950 . S
C661 C660 1.349 . S
C661 C677 1.349 . S
C662 C660 1.327 . S
C662 C681 1.429 . S
C662 H686 0.950 . S
C663 C680 1.574 . S
C663 C682 1.368 . S
C663 H687 0.949 . S
H664 C668 0.949 . S
C665 C666 1.349 . S
C665 C667 1.327 1_554 S
C665 H688 0.950 . S
C666 C665 1.349 . S
C666 C678 1.349 . S
C667 C665 1.327 1_556 S
C667 C683 1.429 . S
C667 H689 0.950 . S
C668 H664 0.949 . S
C668 C676 1.574 . S
C668 C684 1.368 . S
H669 C677 0.950 . S
H670 C675 0.950 . S
H671 C676 0.949 . S
H672 C678 0.950 . S
H673 C679 0.950 . S
H674 C680 0.949 . S
C675 H670 0.950 . S
C675 C677 1.327 . S
C675 C681 1.429 . S
C676 C668 1.574 . S
C676 H671 0.949 . S
C676 C682 1.368 . S
C677 C661 1.349 . S
C677 H669 0.950 . S
C677 C675 1.327 . S
C678 C666 1.349 . S
C678 H672 0.950 . S
C678 C679 1.327 . S
C679 H673 0.950 . S
C679 C678 1.327 . S
C679 C683 1.429 1_554 S
C680 C663 1.574 . S
C680 H674 0.949 . S
C680 C684 1.368 . S
C681 C662 1.429 . S
C681 C675 1.429 . S
C681 C682 1.523 . S
C682 C663 1.368 . S
C682 C676 1.368 . S
C682 C681 1.523 . S
C683 C667 1.429 . S
C683 C679 1.429 1_556 S
C683 C684 1.523 . S
C684 C668 1.368 . S
C684 C680 1.368 . S
C684 C683 1.523 . S
H685 C660 0.950 . S
H686 C662 0.950 . S
H687 C663 0.949 . S
H688 C665 0.950 . S
H689 C667 0.950 . S
C690 C691 1.349 . S
C690 C692 1.327 . S
C690 H715 0.950 . S
C691 C690 1.349 . S
C691 C707 1.349 . S
C692 C690 1.327 . S
C692 C711 1.429 . S
C692 H716 0.950 . S
C693 C710 1.574 . S
C693 C712 1.368 . S
C693 H717 0.949 . S
H694 C698 0.949 . S
C695 C696 1.349 . S
C695 C697 1.327 . S
C695 H718 0.950 . S
C696 C695 1.349 . S
C696 C708 1.349 . S
C697 C695 1.327 . S
C697 C713 1.429 . S
C697 H719 0.950 . S
C698 H694 0.949 . S
C698 C706 1.574 . S
C698 C714 1.368 . S
H699 C707 0.950 . S
H700 C705 0.950 . S
H701 C706 0.949 . S
H702 C708 0.950 . S
H703 C709 0.950 . S
H704 C710 0.949 . S
C705 H700 0.950 . S
C705 C707 1.327 . S
C705 C711 1.429 . S
C706 C698 1.574 . S
C706 H701 0.949 . S
C706 C712 1.368 . S
C707 C691 1.349 . S
C707 H699 0.950 . S
C707 C705 1.327 . S
C708 C696 1.349 . S
C708 H702 0.950 . S
C708 C709 1.327 . S
C709 H703 0.950 . S
C709 C708 1.327 . S
C709 C713 1.429 . S
C710 C693 1.574 . S
C710 H704 0.949 . S
C710 C714 1.368 . S
C711 C692 1.429 . S
C711 C705 1.429 . S
C711 C712 1.523 . S
C712 C693 1.368 . S
C712 C706 1.368 . S
C712 C711 1.523 . S
C713 C697 1.429 . S
C713 C709 1.429 . S
C713 C714 1.523 . S
C714 C698 1.368 . S
C714 C710 1.368 . S
C714 C713 1.523 . S
H715 C690 0.950 . S
H716 C692 0.950 . S
H717 C693 0.949 . S
H718 C695 0.950 . S
H719 C697 0.950 . S
C720 C721 1.349 . S
C720 C722 1.327 . S
C720 H745 0.950 . S
C721 C720 1.349 . S
C721 C737 1.349 . S
C722 C720 1.327 . S
C722 C741 1.429 . S
C722 H746 0.950 . S
C723 C740 1.574 . S
C723 C742 1.368 . S
C723 H747 0.949 . S
H724 C728 0.949 . S
C725 C726 1.349 . S
C725 C727 1.327 . S
C725 H748 0.950 . S
C726 C725 1.349 . S
C726 C738 1.349 . S
C727 C725 1.327 . S
C727 C743 1.429 . S
C727 H749 0.950 . S
C728 H724 0.949 . S
C728 C736 1.574 . S
C728 C744 1.368 . S
H729 C737 0.950 . S
H730 C735 0.950 . S
H731 C736 0.949 . S
H732 C738 0.950 . S
H733 C739 0.950 . S
H734 C740 0.949 . S
C735 H730 0.950 . S
C735 C737 1.327 . S
C735 C741 1.429 . S
C736 C728 1.574 . S
C736 H731 0.949 . S
C736 C742 1.368 . S
C737 C721 1.349 . S
C737 H729 0.950 . S
C737 C735 1.327 . S
C738 C726 1.349 . S
C738 H732 0.950 . S
C738 C739 1.327 . S
C739 H733 0.950 . S
C739 C738 1.327 . S
C739 C743 1.429 . S
C740 C723 1.574 . S
C740 H734 0.949 . S
C740 C744 1.368 . S
C741 C722 1.429 . S
C741 C735 1.429 . S
C741 C742 1.523 . S
C742 C723 1.368 . S
C742 C736 1.368 . S
C742 C741 1.523 . S
C743 C727 1.429 . S
C743 C739 1.429 . S
C743 C744 1.523 . S
C744 C728 1.368 . S
C744 C740 1.368 . S
C744 C743 1.523 . S
H745 C720 0.950 . S
H746 C722 0.950 . S
H747 C723 0.949 . S
H748 C725 0.950 . S
H749 C727 0.950 . S
C750 C751 1.349 . S
C750 C752 1.327 . S
C750 H775 0.950 . S
C751 C750 1.349 . S
C751 C767 1.349 . S
C752 C750 1.327 . S
C752 C771 1.429 . S
C752 H776 0.950 . S
C753 C770 1.574 . S
C753 C772 1.368 . S
C753 H777 0.949 . S
H754 C758 0.949 . S
C755 C756 1.349 . S
C755 C757 1.327 . S
C755 H778 0.950 . S
C756 C755 1.349 . S
C756 C768 1.349 . S
C757 C755 1.327 . S
C757 C773 1.429 . S
C757 H779 0.950 . S
C758 H754 0.949 . S
C758 C766 1.574 . S
C758 C774 1.368 . S
H759 C767 0.950 . S
H760 C765 0.950 . S
H761 C766 0.949 . S
H762 C768 0.950 . S
H763 C769 0.950 . S
H764 C770 0.949 . S
C765 H760 0.950 . S
C765 C767 1.327 . S
C765 C771 1.429 . S
C766 C758 1.574 . S
C766 H761 0.949 . S
C766 C772 1.368 . S
C767 C751 1.349 . S
C767 H759 0.950 . S
C767 C765 1.327 . S
C768 C756 1.349 . S
C768 H762 0.950 . S
C768 C769 1.327 . S
C769 H763 0.950 . S
C769 C768 1.327 . S
C769 C773 1.429 . S
C770 C753 1.574 . S
C770 H764 0.949 . S
C770 C774 1.368 . S
C771 C752 1.429 . S
C771 C765 1.429 . S
C771 C772 1.523 . S
C772 C753 1.368 . S
C772 C766 1.368 . S
C772 C771 1.523 . S
C773 C757 1.429 . S
C773 C769 1.429 . S
C773 C774 1.523 . S
C774 C758 1.368 . S
C774 C770 1.368 . S
C774 C773 1.523 . S
H775 C750 0.950 . S
H776 C752 0.950 . S
H777 C753 0.949 . S
H778 C755 0.950 . S
H779 C757 0.950 . S
C780 C781 1.349 . S
C780 C782 1.327 . S
C780 H805 0.950 . S
C781 C780 1.349 . S
C781 C797 1.349 . S
C782 C780 1.327 . S
C782 C801 1.429 . S
C782 H806 0.950 . S
C783 C800 1.574 . S
C783 C802 1.368 . S
C783 H807 0.949 . S
H784 C788 0.949 . S
C785 C786 1.349 . S
C785 C787 1.327 . S
C785 H808 0.950 . S
C786 C785 1.349 . S
C786 C798 1.349 . S
C787 C785 1.327 . S
C787 C803 1.429 . S
C787 H809 0.950 . S
C788 H784 0.949 . S
C788 C796 1.574 . S
C788 C804 1.368 . S
H789 C797 0.950 . S
H790 C795 0.950 . S
H791 C796 0.949 . S
H792 C798 0.950 . S
H793 C799 0.950 . S
H794 C800 0.949 . S
C795 H790 0.950 . S
C795 C797 1.327 . S
C795 C801 1.429 . S
C796 C788 1.574 . S
C796 H791 0.949 . S
C796 C802 1.368 . S
C797 C781 1.349 . S
C797 H789 0.950 . S
C797 C795 1.327 . S
C798 C786 1.349 . S
C798 H792 0.950 . S
C798 C799 1.327 . S
C799 H793 0.950 . S
C799 C798 1.327 . S
C799 C803 1.429 . S
C800 C783 1.574 . S
C800 H794 0.949 . S
C800 C804 1.368 . S
C801 C782 1.429 . S
C801 C795 1.429 . S
C801 C802 1.523 . S
C802 C783 1.368 . S
C802 C796 1.368 . S
C802 C801 1.523 . S
C803 C787 1.429 . S
C803 C799 1.429 . S
C803 C804 1.523 . S
C804 C788 1.368 . S
C804 C800 1.368 . S
C804 C803 1.523 . S
H805 C780 0.950 . S
H806 C782 0.950 . S
H807 C783 0.949 . S
H808 C785 0.950 . S
H809 C787 0.950 . S
C810 C811 1.349 . S
C810 C812 1.327 . S
C810 H835 0.950 . S
C811 C810 1.349 . S
C811 C827 1.349 . S
C812 C810 1.327 . S
C812 C831 1.429 . S
C812 H836 0.950 . S
C813 C830 1.574 . S
C813 C832 1.368 . S
C813 H837 0.949 . S
H814 C818 0.949 . S
C815 C816 1.349 . S
C815 C817 1.327 . S
C815 H838 0.950 . S
C816 C815 1.349 . S
C816 C828 1.349 . S
C817 C815 1.327 . S
C817 C833 1.429 . S
C817 H839 0.950 . S
C818 H814 0.949 . S
C818 C826 1.574 . S
C818 C834 1.368 . S
H819 C827 0.950 . S
H820 C825 0.950 . S
H821 C826 0.949 . S
H822 C828 0.950 . S
H823 C829 0.950 . S
H824 C830 0.949 . S
C825 H820 0.950 . S
C825 C827 1.327 . S
C825 C831 1.429 . S
C826 C818 1.574 . S
C826 H821 0.949 . S
C826 C832 1.368 . S
C827 C811 1.349 . S
C827 H819 0.950 . S
C827 C825 1.327 . S
C828 C816 1.349 . S
C828 H822 0.950 . S
C828 C829 1.327 . S
C829 H823 0.950 . S
C829 C828 1.327 . S
C829 C833 1.429 . S
C830 C813 1.574 . S
C830 H824 0.949 . S
C830 C834 1.368 . S
C831 C812 1.429 . S
C831 C825 1.429 . S
C831 C832 1.523 . S
C832 C813 1.368 . S
C832 C826 1.368 . S
C832 C831 1.523 . S
C833 C817 1.429 . S
C833 C829 1.429 . S
C833 C834 1.523 . S
C834 C818 1.368 . S
C834 C830 1.368 . S
C834 C833 1.523 . S
H835 C810 0.950 . S
H836 C812 0.950 . S
H837 C813 0.949 . S
H838 C815 0.950 . S
H839 C817 0.950 . S
C840 C841 1.349 . S
C840 C842 1.327 . S
C840 H865 0.950 . S
C841 C840 1.349 . S
C841 C857 1.349 . S
C842 C840 1.327 . S
C842 C861 1.429 . S
C842 H866 0.950 . S
C843 C860 1.574 . S
C843 C862 1.368 . S
C843 H867 0.949 . S
H844 C848 0.949 . S
C845 C846 1.349 . S
C845 C847 1.327 . S
C845 H868 0.950 . S
C846 C845 1.349 . S
C846 C858 1.349 . S
C847 C845 1.327 . S
C847 C863 1.429 . S
C847 H869 0.950 . S
C848 H844 0.949 . S
C848 C856 1.574 . S
C848 C864 1.368 . S
H849 C857 0.950 . S
H850 C855 0.950 . S
H851 C856 0.949 . S
H852 C858 0.950 . S
H853 C859 0.950 . S
H854 C860 0.949 . S
C855 H850 0.950 . S
C855 C857 1.327 . S
C855 C861 1.429 . S
C856 C848 1.574 . S
C856 H851 0.949 . S
C856 C862 1.368 . S
C857 C841 1.349 . S
C857 H849 0.950 . S
C857 C855 1.327 . S
C858 C846 1.349 . S
C858 H852 0.950 . S
C858 C859 1.327 . S
C859 H853 0.950 . S
C859 C858 1.327 . S
C859 C863 1.429 . S
C860 C843 1.574 . S
C860 H854 0.949 . S
C860 C864 1.368 . S
C861 C842 1.429 . S
C861 C855 1.429 . S
C861 C862 1.523 . S
C862 C843 1.368 . S
C862 C856 1.368 . S
C862 C861 1.523 . S
C863 C847 1.429 . S
C863 C859 1.429 . S
C863 C864 1.523 . S
C864 C848 1.368 . S
C864 C860 1.368 . S
C864 C863 1.523 . S
H865 C840 0.950 . S
H866 C842 0.950 . S
H867 C843 0.949 . S
H868 C845 0.950 . S
H869 C847 0.950 . S
C870 C871 1.349 . S
C870 C872 1.327 . S
C870 H895 0.950 . S
C871 C870 1.349 . S
C871 C887 1.349 . S
C872 C870 1.327 . S
C872 C891 1.429 . S
C872 H896 0.950 . S
C873 C890 1.574 . S
C873 C892 1.368 . S
C873 H897 0.949 . S
H874 C878 0.949 1_556 S
C875 C876 1.349 . S
C875 C877 1.327 . S
C875 H898 0.950 . S
C876 C875 1.349 . S
C876 C888 1.349 . S
C877 C875 1.327 . S
C877 C893 1.429 . S
C877 H899 0.950 1_556 S
C878 H874 0.949 1_554 S
C878 C886 1.574 . S
C878 C894 1.368 . S
H879 C887 0.950 . S
H880 C885 0.950 . S
H881 C886 0.949 . S
H882 C888 0.950 . S
H883 C889 0.950 . S
H884 C890 0.949 . S
C885 H880 0.950 . S
C885 C887 1.327 . S
C885 C891 1.429 . S
C886 C878 1.574 . S
C886 H881 0.949 . S
C886 C892 1.368 . S
C887 C871 1.349 . S
C887 H879 0.950 . S
C887 C885 1.327 . S
C888 C876 1.349 . S
C888 H882 0.950 . S
C888 C889 1.327 . S
C889 H883 0.950 . S
C889 C888 1.327 . S
C889 C893 1.429 . S
C890 C873 1.574 . S
C890 H884 0.949 . S
C890 C894 1.368 . S
C891 C872 1.429 . S
C891 C885 1.429 . S
C891 C892 1.523 . S
C892 C873 1.368 . S
C892 C886 1.368 . S
C892 C891 1.523 . S
C893 C877 1.429 . S
C893 C889 1.429 . S
C893 C894 1.523 1_556 S
C894 C878 1.368 . S
C894 C890 1.368 . S
C894 C893 1.523 1_554 S
H895 C870 0.950 . S
H896 C872 0.950 . S
H897 C873 0.949 . S
H898 C875 0.950 . S
H899 C877 0.950 1_554 S
C900 C901 1.349 . S
C900 C902 1.327 . S
C900 H925 0.950 . S
C901 C900 1.349 . S
C901 C917 1.349 . S
C902 C900 1.327 . S
C902 C921 1.429 . S
C902 H926 0.950 . S
C903 C920 1.574 . S
C903 C922 1.368 . S
C903 H927 0.949 . S
H904 C908 0.949 . S
C905 C906 1.349 . S
C905 C907 1.327 . S
C905 H928 0.950 . S
C906 C905 1.349 . S
C906 C918 1.349 . S
C907 C905 1.327 . S
C907 C923 1.429 . S
C907 H929 0.950 . S
C908 H904 0.949 . S
C908 C916 1.574 . S
C908 C924 1.368 . S
H909 C917 0.950 . S
H910 C915 0.950 . S
H911 C916 0.949 . S
H912 C918 0.950 . S
H913 C919 0.950 . S
H914 C920 0.949 . S
C915 H910 0.950 . S
C915 C917 1.327 . S
C915 C921 1.429 . S
C916 C908 1.574 . S
C916 H911 0.949 . S
C916 C922 1.368 . S
C917 C901 1.349 . S
C917 H909 0.950 . S
C917 C915 1.327 . S
C918 C906 1.349 . S
C918 H912 0.950 . S
C918 C919 1.327 . S
C919 H913 0.950 . S
C919 C918 1.327 . S
C919 C923 1.429 . S
C920 C903 1.574 . S
C920 H914 0.949 . S
C920 C924 1.368 . S
C921 C902 1.429 . S
C921 C915 1.429 . S
C921 C922 1.523 . S
C922 C903 1.368 . S
C922 C916 1.368 . S
C922 C921 1.523 . S
C923 C907 1.429 . S
C923 C919 1.429 . S
C923 C924 1.523 . S
C924 C908 1.368 . S
C924 C920 1.368 . S
C924 C923 1.523 . S
H925 C900 0.950 . S
H926 C902 0.950 . S
H927 C903 0.949 . S
H928 C905 0.950 . S
H929 C907 0.950 . S
C216 C203 1.498 . S
C211 C19 1.451 . S
C241 C40 1.453 . S
C246 C132 1.501 . S
C271 C51 1.452 . S
C276 C146 1.513 . S
C301 C72 1.442 . S
C306 C160 1.503 . S
C336 C174 1.499 . S
C331 C103 1.452 . S
C361 C114 1.444 . S
C366 C189 1.505 . S
C391 C30 1.451 . S
C396 C147 1.513 . S
C421 C61 1.454 . S
C426 C161 1.501 . S
C451 C82 1.451 . S
C456 C175 1.498 . S
C486 C188 1.504 . S
C481 C93 1.444 1_554 S
C516 C202 1.499 . S
C511 C124 1.452 . S
C546 C133 1.503 . S
C541 C9 1.442 . S
C571 C17 1.483 . S
C576 C149 1.548 . S
C601 C38 1.479 . S
C606 C163 1.544 . S
C636 C177 1.541 . S
C631 C54 1.473 . S
C661 C75 1.479 . S
C666 C190 1.548 . S
C696 C204 1.543 . S
C691 C101 1.478 . S
C726 C135 1.541 . S
C721 C117 1.473 . S
C756 C205 1.540 . S
C751 C33 1.472 . S
C781 C59 1.479 . S
C786 C134 1.545 . S
C816 C148 1.548 . S
C811 C80 1.483 . S
C841 C96 1.473 . S
C846 C162 1.542 . S
C871 C122 1.477 . S
C876 C176 1.543 . S
C901 C12 1.479 . S
C906 C191 1.547 . S
