# Generated by pormake.
# Topology llj, (12,3)-cn, num edge types: 1
# Building blocks:
#     Node 0, Type 0, BuildingBlock: QEWDON_clean_sbu_0, # of connection points: 12
#     Node 1, Type 0, BuildingBlock: QEWDON_clean_sbu_0, # of connection points: 12
#     Node 2, Type 1, BuildingBlock: ESEHIV_clean_linker_0, # of connection points: 3
#     Node 3, Type 1, BuildingBlock: ESEHIV_clean_linker_0, # of connection points: 3
#     Node 4, Type 1, BuildingBlock: ESEHIV_clean_linker_0, # of connection points: 3
#     Node 5, Type 1, BuildingBlock: ESEHIV_clean_linker_0, # of connection points: 3
#     Node 6, Type 1, BuildingBlock: ESEHIV_clean_linker_0, # of connection points: 3
#     Node 7, Type 1, BuildingBlock: ESEHIV_clean_linker_0, # of connection points: 3
#     Node 8, Type 1, BuildingBlock: ESEHIV_clean_linker_0, # of connection points: 3
#     Node 9, Type 1, BuildingBlock: ESEHIV_clean_linker_0, # of connection points: 3
#     Edge 10, Type (0, 1), BuildingBlock: XUDNAN_clean_linker_2, # of connection points: 2
#     Edge 11, Type (0, 1), BuildingBlock: XUDNAN_clean_linker_2, # of connection points: 2
#     Edge 12, Type (0, 1), BuildingBlock: XUDNAN_clean_linker_2, # of connection points: 2
#     Edge 13, Type (0, 1), BuildingBlock: XUDNAN_clean_linker_2, # of connection points: 2
#     Edge 14, Type (0, 1), BuildingBlock: XUDNAN_clean_linker_2, # of connection points: 2
#     Edge 15, Type (0, 1), BuildingBlock: XUDNAN_clean_linker_2, # of connection points: 2
#     Edge 16, Type (0, 1), BuildingBlock: XUDNAN_clean_linker_2, # of connection points: 2
#     Edge 17, Type (0, 1), BuildingBlock: XUDNAN_clean_linker_2, # of connection points: 2
#     Edge 18, Type (0, 1), BuildingBlock: XUDNAN_clean_linker_2, # of connection points: 2
#     Edge 19, Type (0, 1), BuildingBlock: XUDNAN_clean_linker_2, # of connection points: 2
#     Edge 20, Type (0, 1), BuildingBlock: XUDNAN_clean_linker_2, # of connection points: 2
#     Edge 21, Type (0, 1), BuildingBlock: XUDNAN_clean_linker_2, # of connection points: 2
#     Edge 22, Type (0, 1), BuildingBlock: XUDNAN_clean_linker_2, # of connection points: 2
#     Edge 23, Type (0, 1), BuildingBlock: XUDNAN_clean_linker_2, # of connection points: 2
#     Edge 24, Type (0, 1), BuildingBlock: XUDNAN_clean_linker_2, # of connection points: 2
#     Edge 25, Type (0, 1), BuildingBlock: XUDNAN_clean_linker_2, # of connection points: 2
#     Edge 26, Type (0, 1), BuildingBlock: XUDNAN_clean_linker_2, # of connection points: 2
#     Edge 27, Type (0, 1), BuildingBlock: XUDNAN_clean_linker_2, # of connection points: 2
#     Edge 28, Type (0, 1), BuildingBlock: XUDNAN_clean_linker_2, # of connection points: 2
#     Edge 29, Type (0, 1), BuildingBlock: XUDNAN_clean_linker_2, # of connection points: 2
#     Edge 30, Type (0, 1), BuildingBlock: XUDNAN_clean_linker_2, # of connection points: 2
#     Edge 31, Type (0, 1), BuildingBlock: XUDNAN_clean_linker_2, # of connection points: 2
#     Edge 32, Type (0, 1), BuildingBlock: XUDNAN_clean_linker_2, # of connection points: 2
#     Edge 33, Type (0, 1), BuildingBlock: XUDNAN_clean_linker_2, # of connection points: 2
# Relax obj value: 0.011
# Max RMSD: 0.055
# Mean RMSD: 0.051
data_MOF--net-llj--node1-QEWDON_clean_sbu_0--node2-ESEHIV_clean_linker_0--edge1-XUDNAN_clean_linker_2
_symmetry_space_group_name_H-M    P1
_symmetry_Int_Tables_number       1
_symmetry_cell_setting            triclinic
loop_
_symmetry_equiv_pos_as_xyz
'x, y, z'
_cell_length_a     35.938471
_cell_length_b     35.883242
_cell_length_c     24.904622
_cell_angle_alpha  90.01936
_cell_angle_beta   90.054952
_cell_angle_gamma 89.960975
loop_
_atom_site_label
_atom_site_type_symbol
_atom_site_fract_x
_atom_site_fract_y
_atom_site_fract_z
_atom_type_partial_charge
Zn0 Zn 0.96727 0.0672 0.95914 0.0
Zn1 Zn 0.94777 0.06858 0.08379 0.0
O2 O 0.98756 0.05479 0.03208 0.0
H3 H 0.01016 0.04102 0.03869 0.0
C4 C 0.85021 0.967 0.87222 0.0
O5 O 0.82992 0.95017 0.90876 0.0
Zn6 Zn 0.04132 0.94687 0.0975 0.0
Zn7 Zn 0.04184 0.96433 0.97193 0.0
O8 O 0.00926 0.96492 0.03768 0.0
H9 H 0.98755 0.98042 0.042 0.0
Zn10 Zn 0.90684 0.94071 0.94336 0.0
O11 O 0.91867 0.97386 0.00621 0.0
Zn12 Zn 0.91094 0.94364 0.07301 0.0
H13 H 0.92837 -0.00119 0.00242 0.0
Zn14 Zn 0.10527 0.06875 0.98977 0.0
O15 O 0.08563 0.03574 0.04762 0.0
H16 H 0.07338 0.01263 0.03865 0.0
Zn17 Zn 0.08059 0.06766 0.11374 0.0
C18 C 0.11099 0.01809 0.89926 0.0
O19 O 0.07579 0.01298 0.9112 0.0
O20 O 0.9256 0.10641 0.96249 0.0
O21 O 0.91404 0.10855 0.05029 0.0
O22 O 0.09221 0.9388 0.98571 0.0
O23 O 0.08398 0.91545 0.06774 0.0
O24 O 0.88165 0.89191 0.96519 0.0
O25 O 0.88355 0.89514 0.05466 0.0
C26 C 0.0067 0.08729 0.15792 0.0
O27 O 0.13295 0.11272 0.0223 0.0
O28 O 0.11628 0.11255 0.10863 0.0
O29 O 0.01635 0.94563 0.90257 0.0
C30 C 0.90801 0.11991 0.00243 0.0
O31 O 0.00715 0.07475 0.9012 0.0
C32 C 0.97496 0.91906 0.14706 0.0
O33 O 0.88538 0.96682 0.87697 0.0
C34 C 0.10273 0.91801 0.02431 0.0
O35 O 0.12979 0.0416 0.926 0.0
C36 C 0.89694 0.00911 0.13216 0.0
O37 O 0.97147 0.0856 0.15374 0.0
O38 O 0.02644 0.08209 0.11633 0.0
C39 C 0.87446 0.87842 0.01127 0.0
O40 O 0.01007 0.91985 0.15289 0.0
O41 O 0.96159 0.9316 0.1033 0.0
C42 C 0.0786 0.0021 0.17462 0.0
O43 O 0.8855 0.97566 0.12909 0.0
O44 O 0.91927 0.02071 0.0963 0.0
C45 C 0.13488 0.12628 0.06951 0.0
O46 O 0.09057 0.03528 0.17937 0.0
O47 O 0.06319 0.99319 0.13055 0.0
C48 C 0.01804 0.91047 0.89729 0.0
O49 O 0.03474 0.89085 0.93478 0.0
C50 C 0.03419 0.09588 0.91344 0.0
O51 O 0.03524 0.11102 0.96148 0.0
Zn52 Zn 0.46002 0.5875 0.43142 0.0
Zn53 Zn 0.44679 0.58308 0.55736 0.0
O54 O 0.4794 0.56388 0.49928 0.0
H55 H 0.49184 0.54003 0.49987 0.0
C56 C 0.3792 0.5312 0.36395 0.0
O57 O 0.3968 0.54355 0.40661 0.0
Zn58 Zn 0.5301 0.42171 0.56417 0.0
Zn59 Zn 0.54319 0.43787 0.44311 0.0
O60 O 0.50323 0.44183 0.4998 0.0
H61 H 0.48618 0.4626 0.49998 0.0
Zn62 Zn 0.36718 0.47401 0.44133 0.0
O63 O 0.4098 0.48969 0.48962 0.0
Zn64 Zn 0.40138 0.46158 0.55716 0.0
H65 H 0.43292 0.50086 0.47828 0.0
Zn66 Zn 0.60736 0.53429 0.45695 0.0
O67 O 0.57137 0.51265 0.51012 0.0
H68 H 0.54944 0.49914 0.49904 0.0
Zn69 Zn 0.57571 0.54272 0.57708 0.0
C70 C 0.62352 0.46927 0.39539 0.0
O71 O 0.62439 0.45664 0.44489 0.0
O72 O 0.42457 0.63161 0.44209 0.0
O73 O 0.41583 0.62749 0.53015 0.0
O74 O 0.5751 0.39201 0.45561 0.0
O75 O 0.56414 0.37843 0.54117 0.0
O76 O 0.34674 0.42138 0.45816 0.0
O77 O 0.36993 0.41584 0.54093 0.0
C78 C 0.51215 0.5859 0.62427 0.0
O79 O 0.63961 0.57752 0.48536 0.0
O80 O 0.61623 0.58226 0.56811 0.0
O81 O 0.5246 0.43934 0.36563 0.0
C82 C 0.40955 0.6433 0.48515 0.0
O83 O 0.49531 0.58767 0.36704 0.0
C84 C 0.46049 0.42002 0.61919 0.0
O85 O 0.36248 0.50004 0.36677 0.0
C86 C 0.5797 0.3712 0.49631 0.0
O87 O 0.61818 0.50384 0.38786 0.0
C88 C 0.39024 0.53033 0.61171 0.0
O89 O 0.47854 0.59692 0.62215 0.0
O90 O 0.52562 0.56807 0.5848 0.0
C91 C 0.35129 0.40282 0.5014 0.0
O92 O 0.49304 0.40628 0.62126 0.0
O93 O 0.45188 0.44123 0.58018 0.0
C94 C 0.57496 0.47449 0.63618 0.0
O95 O 0.37759 0.4972 0.61131 0.0
O96 O 0.41429 0.53885 0.57629 0.0
C97 C 0.63868 0.59312 0.53141 0.0
O98 O 0.58666 0.50784 0.64049 0.0
O99 O 0.55843 0.46571 0.59285 0.0
C100 C 0.52265 0.4668 0.33372 0.0
O101 O 0.53335 0.49995 0.34976 0.0
C102 C 0.52993 0.58569 0.37675 0.0
O103 O 0.54135 0.58387 0.42681 0.0
H104 H 0.38612 0.40072 0.97475 0.0
H105 H 0.34097 0.33941 0.10778 0.0
H106 H 0.30328 0.31724 0.94609 0.0
C107 C 0.36734 0.37966 0.99026 0.0
C108 C 0.34513 0.35942 0.95461 0.0
C109 C 0.36606 0.37261 0.0454 0.0
C110 C 0.34197 0.34495 0.06503 0.0
C111 C 0.31906 0.32466 0.02962 0.0
C112 C 0.32113 0.33194 0.97408 0.0
H113 H 0.61768 0.36808 0.0135 0.0
H114 H 0.71073 0.30834 0.08054 0.0
H115 H 0.6887 0.30304 0.91119 0.0
C116 C 0.64159 0.34998 0.0086 0.0
C117 C 0.65114 0.33717 0.95704 0.0
C118 C 0.66227 0.3387 0.05378 0.0
C119 C 0.69346 0.31546 0.04638 0.0
C120 C 0.70334 0.30239 0.99519 0.0
C121 C 0.68157 0.31302 0.95093 0.0
H122 H 0.62609 0.59589 -0.0004 0.0
H123 H 0.70386 0.66102 0.90753 0.0
H124 H 0.71142 0.65735 0.08009 0.0
C125 C 0.65005 0.61415 -0.00222 0.0
C126 C 0.66793 0.62419 0.04547 0.0
C127 C 0.6626 0.62725 0.94779 0.0
C128 C 0.69362 0.65118 0.94589 0.0
C129 C 0.71211 0.66127 0.99367 0.0
C130 C 0.69859 0.64807 0.04304 0.0
H131 H 0.3409 0.6237 0.98151 0.0
H132 H 0.29089 0.71166 0.0741 0.0
H133 H 0.28181 0.71211 0.90191 0.0
C134 C 0.32405 0.64874 0.98338 0.0
C135 C 0.31234 0.66613 0.93576 0.0
C136 C 0.31648 0.66523 0.03333 0.0
C137 C 0.29611 0.69863 0.03555 0.0
C138 C 0.28351 0.7158 0.98831 0.0
C139 C 0.29155 0.69917 0.93867 0.0
H140 H 0.90799 0.86322 0.5294 0.0
H141 H 0.8431 0.7879 0.62449 0.0
H142 H 0.81669 0.80283 0.45773 0.0
C143 C 0.88512 0.84367 0.53234 0.0
C144 C 0.86341 0.83523 0.48682 0.0
C145 C 0.8782 0.82619 0.58164 0.0
C146 C 0.84832 0.80138 0.58627 0.0
C147 C 0.8255 0.79338 0.54205 0.0
C148 C 0.83358 0.80994 0.49225 0.0
H149 H 0.13036 0.89966 0.54915 0.0
H150 H 0.22866 0.84194 0.60227 0.0
H151 H 0.19001 0.82847 0.44017 0.0
C152 C 0.15272 0.88012 0.54128 0.0
C153 C 0.15673 0.86473 0.48977 0.0
C154 C 0.17856 0.87196 0.58197 0.0
C155 C 0.20822 0.84753 0.57127 0.0
C156 C 0.21245 0.83159 0.52017 0.0
C157 C 0.18637 0.84009 0.47996 0.0
H158 H 0.11412 0.12988 0.54648 0.0
H159 H 0.19731 0.16358 0.43134 0.0
H160 H 0.2169 0.1769 0.59971 0.0
C161 C 0.14175 0.13964 0.53694 0.0
C162 C 0.16492 0.15075 0.57941 0.0
C163 C 0.1532 0.14241 0.48289 0.0
C164 C 0.18756 0.16003 0.47206 0.0
C165 C 0.20994 0.17353 0.51411 0.0
C166 C 0.19911 0.16736 0.56741 0.0
H167 H 0.82631 0.08085 0.51396 0.0
H168 H 0.73516 0.14414 0.5792 0.0
H169 H 0.77346 0.16539 0.41869 0.0
C170 C 0.8057 0.10273 0.50982 0.0
C171 C 0.8029 0.12232 0.46131 0.0
C172 C 0.78149 0.11062 0.5526 0.0
C173 C 0.75423 0.13841 0.54655 0.0
C174 C 0.75107 0.15827 0.49823 0.0
C175 C 0.77584 0.1503 0.4562 0.0
H176 H 0.19454 0.14346 0.00805 0.0
H177 H 0.13444 0.17949 0.14986 0.0
H178 H 0.17821 0.23257 0.15992 0.0
H179 H 0.28715 0.16823 0.05468 0.0
H180 H 0.30185 0.18272 0.98874 0.0
H181 H 0.26733 0.14669 0.99583 0.0
H182 H 0.22192 0.18444 0.9358 0.0
H183 H 0.2562 0.22057 0.92858 0.0
H184 H 0.21056 0.23176 0.95385 0.0
H185 H 0.22665 0.28447 0.14903 0.0
H186 H 0.27449 0.32948 0.11924 0.0
H187 H 0.30252 0.2567 0.98607 0.0
C188 C 0.19054 0.16234 0.0415 0.0
C189 C 0.1611 0.15739 0.07828 0.0
C190 C 0.15708 0.1826 0.12162 0.0
C191 C 0.18173 0.21282 0.12747 0.0
C192 C 0.2103 0.217 0.08992 0.0
C193 C 0.21481 0.19219 0.04801 0.0
C194 C 0.24667 0.20307 0.01179 0.0
C195 C 0.27758 0.17342 0.01286 0.0
C196 C 0.233 0.2104 0.95412 0.0
C197 C 0.25901 0.23855 0.0389 0.0
C198 C 0.238 0.24615 0.0841 0.0
C199 C 0.24353 0.27848 0.11411 0.0
C200 C 0.2709 0.30379 0.09702 0.0
C201 C 0.29228 0.29662 0.05028 0.0
C202 C 0.28647 0.26321 0.02164 0.0
H203 H 0.85028 0.1419 0.06777 0.0
H204 H 0.90327 0.1652 0.91476 0.0
H205 H 0.85758 0.21504 0.89752 0.0
H206 H 0.75656 0.15513 0.0207 0.0
H207 H 0.74048 0.17615 0.0822 0.0
H208 H 0.77822 0.14312 0.0837 0.0
H209 H 0.8198 0.19166 0.13197 0.0
H210 H 0.78222 0.2249 0.1305 0.0
H211 H 0.8267 0.23683 0.10192 0.0
H212 H 0.80739 0.26303 0.89742 0.0
H213 H 0.7533 0.30387 0.91177 0.0
H214 H 0.72976 0.24671 0.0618 0.0
C215 C 0.85238 0.15766 0.03081 0.0
C216 C 0.88046 0.14979 0.99272 0.0
C217 C 0.88197 0.17068 0.94449 0.0
C218 C 0.85623 0.19914 0.93438 0.0
C219 C 0.8289 0.20615 0.97263 0.0
C220 C 0.82654 0.18587 0.01966 0.0
C221 C 0.79354 0.19827 0.05309 0.0
C222 C 0.76554 0.16626 0.06032 0.0
C223 C 0.80634 0.21384 0.1076 0.0
C224 C 0.77788 0.22876 0.01751 0.0
C225 C 0.79891 0.233 0.97156 0.0
C226 C 0.79041 0.25972 0.93297 0.0
C227 C 0.75937 0.2826 0.94132 0.0
C228 C 0.73677 0.27835 0.9876 0.0
C229 C 0.74646 0.25102 0.02619 0.0
H230 H 0.81821 0.85333 0.94748 0.0
H231 H 0.88886 0.82197 0.08133 0.0
H232 H 0.85974 0.75945 0.08277 0.0
H233 H 0.73697 0.80962 -0.00099 0.0
H234 H 0.71943 0.79589 0.93411 0.0
H235 H 0.74858 0.83643 0.94015 0.0
H236 H 0.79376 0.80852 0.86968 0.0
H237 H 0.76495 0.7676 0.86405 0.0
H238 H 0.81354 0.76299 0.88082 0.0
H239 H 0.82368 0.70097 0.06919 0.0
H240 H 0.77517 0.65378 0.05391 0.0
H241 H 0.72331 0.72536 0.93481 0.0
C242 C 0.82768 0.83308 0.97673 0.0
C243 C 0.85596 0.84199 0.01395 0.0
C244 C 0.86721 0.8154 0.05254 0.0
C245 C 0.85112 0.77984 0.05325 0.0
C246 C 0.8235 0.77175 0.01566 0.0
C247 C 0.81126 0.79784 0.97889 0.0
C248 C 0.77851 0.78335 0.94669 0.0
C249 C 0.74382 0.80776 0.95555 0.0
C250 C 0.78829 0.78045 0.88675 0.0
C251 C 0.77393 0.74514 0.97161 0.0
C252 C 0.80085 0.73875 0.01026 0.0
C253 C 0.80227 0.70576 0.03939 0.0
C254 C 0.7745 0.67922 0.03052 0.0
C255 C 0.74505 0.6862 0.99389 0.0
C256 C 0.74554 0.71911 0.96279 0.0
H257 H 0.12311 0.85548 0.08055 0.0
H258 H 0.15745 0.92755 0.94957 0.0
H259 H 0.21049 0.88593 0.93113 0.0
H260 H 0.21716 0.82734 0.12483 0.0
H261 H 0.20284 0.78015 0.13844 0.0
H262 H 0.17006 0.81787 0.14556 0.0
H263 H 0.12503 0.78458 0.0799 0.0
H264 H 0.15769 0.74692 0.07236 0.0
H265 H 0.14126 0.77166 0.01398 0.0
H266 H 0.25692 0.83478 0.92264 0.0
H267 H 0.2933 0.7765 0.92343 0.0
H268 H 0.22751 0.73619 0.05749 0.0
C269 C 0.14228 0.86294 0.0488 0.0
C270 C 0.13633 0.89489 0.01679 0.0
C271 C 0.16153 0.90327 0.97475 0.0
C272 C 0.19182 0.87987 0.96405 0.0
C273 C 0.19648 0.84821 0.99566 0.0
C274 C 0.17247 0.83968 0.03719 0.0
C275 C 0.18209 0.80243 0.06227 0.0
C276 C 0.19373 0.80725 0.12128 0.0
C277 C 0.14959 0.77478 0.05676 0.0
C278 C 0.2148 0.79108 0.02766 0.0
C279 C 0.22287 0.8181 0.98991 0.0
C280 C 0.25101 0.81346 0.95214 0.0
C281 C 0.27129 0.78014 0.95263 0.0
C282 C 0.26309 0.75171 0.9903 0.0
C283 C 0.23472 0.75758 0.02865 0.0
H284 H 0.69547 0.61996 0.46811 0.0
H285 H 0.63777 0.63917 0.61853 0.0
H286 H 0.67827 0.69334 0.63661 0.0
H287 H 0.78677 0.64354 0.51563 0.0
H288 H 0.80061 0.6658 0.45393 0.0
H289 H 0.76676 0.62884 0.45269 0.0
H290 H 0.72023 0.67227 0.40358 0.0
H291 H 0.75388 0.70945 0.40489 0.0
H292 H 0.70825 0.71657 0.43309 0.0
H293 H 0.72477 0.74525 0.63819 0.0
H294 H 0.77553 0.79054 0.6247 0.0
H295 H 0.80371 0.73702 0.47372 0.0
C296 C 0.6913 0.63554 0.50487 0.0
C297 C 0.6635 0.62522 0.54217 0.0
C298 C 0.65907 0.64639 0.58974 0.0
C299 C 0.68181 0.67728 0.60018 0.0
C300 C 0.70887 0.68668 0.56258 0.0
C301 C 0.71382 0.66641 0.51595 0.0
C302 C 0.74533 0.68215 0.48253 0.0
C303 C 0.77672 0.65337 0.47583 0.0
C304 C 0.73105 0.69593 0.42778 0.0
C305 C 0.7574 0.71437 0.51777 0.0
C306 C 0.73589 0.71654 0.56363 0.0
C307 C 0.74188 0.74377 0.60252 0.0
C308 C 0.77089 0.76924 0.5946 0.0
C309 C 0.79371 0.76727 0.54827 0.0
C310 C 0.78653 0.73956 0.50923 0.0
H311 H 0.35999 0.66694 0.56211 0.0
H312 H 0.40057 0.69198 0.40184 0.0
H313 H 0.35657 0.74448 0.39572 0.0
H314 H 0.26469 0.685 0.53379 0.0
H315 H 0.2547 0.7053 0.59842 0.0
H316 H 0.29111 0.67109 0.59203 0.0
H317 H 0.33819 0.71721 0.63407 0.0
H318 H 0.30197 0.75166 0.64062 0.0
H319 H 0.34405 0.76275 0.60471 0.0
H320 H 0.30789 0.79314 0.40568 0.0
H321 H 0.25537 0.83395 0.42965 0.0
H322 H 0.244 0.77613 0.58194 0.0
C323 C 0.35992 0.68373 0.52597 0.0
C324 C 0.38391 0.67548 0.48256 0.0
C325 C 0.38253 0.69778 0.43565 0.0
C326 C 0.35771 0.72774 0.43182 0.0
C327 C 0.33432 0.73496 0.47512 0.0
C328 C 0.33504 0.71359 0.52123 0.0
C329 C 0.30561 0.72631 0.56081 0.0
C330 C 0.27736 0.69506 0.57188 0.0
C331 C 0.32354 0.74032 0.61314 0.0
C332 C 0.28811 0.75801 0.52945 0.0
C333 C 0.30536 0.76263 0.48035 0.0
C334 C 0.29402 0.78974 0.44392 0.0
C335 C 0.26395 0.81257 0.45775 0.0
C336 C 0.24522 0.80795 0.50739 0.0
C337 C 0.25785 0.7805 0.54387 0.0
H338 H 0.29342 0.37114 0.44534 0.0
H339 H 0.3781 0.34706 0.56487 0.0
H340 H 0.35708 0.28176 0.56865 0.0
H341 H 0.22329 0.31825 0.50755 0.0
H342 H 0.20227 0.30263 0.44576 0.0
H343 H 0.22713 0.34607 0.44754 0.0
H344 H 0.26905 0.323 0.36958 0.0
H345 H 0.24464 0.27912 0.36839 0.0
H346 H 0.29445 0.27995 0.3768 0.0
H347 H 0.3255 0.2203 0.56318 0.0
H348 H 0.27899 0.16977 0.56023 0.0
H349 H 0.2127 0.23403 0.44789 0.0
C350 C 0.30779 0.35195 0.47176 0.0
C351 C 0.33755 0.36408 0.50448 0.0
C352 C 0.35519 0.3384 0.53945 0.0
C353 C 0.34376 0.30113 0.54144 0.0
C354 C 0.3145 0.28998 0.50846 0.0
C355 C 0.29632 0.31472 0.47492 0.0
C356 C 0.26299 0.29657 0.44833 0.0
C357 C 0.22679 0.31709 0.46322 0.0
C358 C 0.26811 0.29455 0.38713 0.0
C359 C 0.26468 0.25812 0.47337 0.0
C360 C 0.29523 0.25463 0.50677 0.0
C361 C 0.30161 0.22256 0.53689 0.0
C362 C 0.2751 0.19401 0.53492 0.0
C363 C 0.24233 0.19803 0.50381 0.0
C364 C 0.23789 0.22986 0.47104 0.0
H365 H 0.62298 0.33436 0.57092 0.0
H366 H 0.5861 0.33113 0.40488 0.0
H367 H 0.623 0.27437 0.38977 0.0
H368 H 0.71659 0.307 0.54214 0.0
H369 H 0.72233 0.27952 0.60215 0.0
H370 H 0.6906 0.31837 0.60183 0.0
H371 H 0.63716 0.2749 0.63239 0.0
H372 H 0.66872 0.23584 0.63268 0.0
H373 H 0.62654 0.23383 0.59358 0.0
H374 H 0.66287 0.21866 0.39176 0.0
H375 H 0.70902 0.1694 0.40815 0.0
H376 H 0.72515 0.21055 0.57068 0.0
C377 C 0.62241 0.32131 0.5317 0.0
C378 C 0.60152 0.33684 0.48917 0.0
C379 C 0.60194 0.31961 0.43799 0.0
C380 C 0.62263 0.28727 0.42905 0.0
C381 C 0.64306 0.27269 0.47154 0.0
C382 C 0.64359 0.28923 0.52169 0.0
C383 C 0.67021 0.26906 0.55901 0.0
C384 C 0.70181 0.29504 0.57734 0.0
C385 C 0.6494 0.25242 0.60727 0.0
C386 C 0.68448 0.23878 0.5218 0.0
C387 C 0.66796 0.24123 0.47185 0.0
C388 C 0.67633 0.21657 0.43053 0.0
C389 C 0.70285 0.18888 0.44014 0.0
C390 C 0.72126 0.18644 0.49039 0.0
C391 C 0.71148 0.21152 0.53194 0.0
H392 H 0.06794 0.12795 0.18526 0.0
H393 H 0.98396 0.05418 0.25052 0.0
H394 H 0.01379 0.05824 0.33996 0.0
H395 H 0.14591 0.0935 0.26576 0.0
H396 H 0.16592 0.1393 0.27307 0.0
H397 H 0.13895 0.12799 0.21431 0.0
H398 H 0.0957 0.18508 0.23421 0.0
H399 H 0.12305 0.1956 0.29286 0.0
H400 H 0.07358 0.18847 0.29893 0.0
H401 H 0.05423 0.06877 0.42091 0.0
H402 H 0.09899 0.08733 0.48918 0.0
H403 H 0.15126 0.16237 0.37408 0.0
C404 C 0.05623 0.11235 0.21834 0.0
C405 C 0.0241 0.09036 0.21121 0.0
C406 C 0.00868 0.0711 0.25546 0.0
C407 C 0.02553 0.07309 0.30618 0.0
C408 C 0.05743 0.09484 0.31188 0.0
C409 C 0.07237 0.11449 0.26936 0.0
C410 C 0.10577 0.1372 0.28687 0.0
C411 C 0.14124 0.12371 0.25831 0.0
C412 C 0.09912 0.17906 0.27768 0.0
C413 C 0.10693 0.12772 0.34609 0.0
C414 C 0.07936 0.10261 0.3593 0.0
C415 C 0.07586 0.08849 0.41092 0.0
C416 C 0.10118 0.1002 0.4501 0.0
C417 C 0.12855 0.1278 0.4388 0.0
C418 C 0.1313 0.14132 0.38539 0.0
H419 H 0.87329 0.98586 0.23109 0.0
H420 H 0.89606 0.08514 0.13794 0.0
H421 H 0.88309 0.12425 0.21666 0.0
H422 H 0.79566 0.02305 0.29933 0.0
H423 H 0.80523 -0.00029 0.36193 0.0
H424 H 0.82061 0.97942 0.29974 0.0
H425 H 0.88806 0.97735 0.33597 0.0
H426 H 0.87309 0.99815 0.39822 0.0
H427 H 0.90967 0.01961 0.35962 0.0
H428 H 0.86553 0.15265 0.30356 0.0
H429 H 0.83662 0.16941 0.38995 0.0
H430 H 0.82066 0.05206 0.4257 0.0
C431 C 0.87567 0.01584 0.22736 0.0
C432 C 0.88676 0.03256 0.17856 0.0
C433 C 0.88902 0.07178 0.17515 0.0
C434 C 0.88159 0.09421 0.21978 0.0
C435 C 0.87153 0.0769 0.26754 0.0
C436 C 0.868 0.03866 0.27154 0.0
C437 C 0.85364 0.02738 0.32631 0.0
C438 C 0.81658 0.00616 0.32151 0.0
C439 C 0.88286 0.00426 0.35682 0.0
C440 C 0.84839 0.06544 0.35169 0.0
C441 C 0.8598 0.09349 0.31747 0.0
C442 C 0.85649 0.131 0.33083 0.0
C443 C 0.83985 0.14024 0.3798 0.0
C444 C 0.8261 0.11208 0.41434 0.0
C445 C 0.8314 0.0742 0.40059 0.0
H446 H 0.99732 0.90115 0.24904 0.0
H447 H 0.89895 0.90839 0.14879 0.0
H448 H 0.85963 0.89323 0.22624 0.0
H449 H 0.96713 0.82126 0.32197 0.0
H450 H 0.98769 0.83605 0.38449 0.0
H451 H 0.00778 0.85072 0.32181 0.0
H452 H 0.00174 0.91956 0.35083 0.0
H453 H 0.98154 0.90533 0.41375 0.0
H454 H 0.95703 0.9376 0.37095 0.0
H455 H 0.8309 0.87789 0.3152 0.0
H456 H 0.81514 0.85605 0.40608 0.0
H457 H 0.93292 0.85179 0.44586 0.0
C458 C 0.96749 0.89963 0.24318 0.0
C459 C 0.95115 0.9072 0.1926 0.0
C460 C 0.91211 0.90417 0.18698 0.0
C461 C 0.88949 0.89533 0.23095 0.0
C462 C 0.90645 0.88881 0.2803 0.0
C463 C 0.94461 0.89017 0.28646 0.0
C464 C 0.95604 0.8796 0.34297 0.0
C465 C 0.98112 0.84483 0.34277 0.0
C466 C 0.9752 0.9125 0.37131 0.0
C467 C 0.91827 0.87149 0.36733 0.0
C468 C 0.89003 0.87772 0.3308 0.0
C469 C 0.85278 0.87246 0.34404 0.0
C470 C 0.84415 0.8597 0.39573 0.0
C471 C 0.87268 0.85159 0.43339 0.0
C472 C 0.91023 0.85806 0.41873 0.0
H473 H 0.08861 0.01665 0.28165 0.0
H474 H 0.0811 0.92615 0.16712 0.0
H475 H 0.08769 0.8806 0.24002 0.0
H476 H 0.15996 0.98027 0.35527 0.0
H477 H 0.14382 0.99535 0.42027 0.0
H478 H 0.13031 0.02067 0.36118 0.0
H479 H 0.05916 0.01034 0.38221 0.0
H480 H 0.07476 0.98916 0.44406 0.0
H481 H 0.04365 0.96445 0.39984 0.0
H482 H 0.10074 0.84503 0.32328 0.0
H483 H 0.12804 0.82227 0.40799 0.0
H484 H 0.13285 0.93585 0.46775 0.0
C485 C 0.08766 0.98721 0.27215 0.0
C486 C 0.08286 0.97489 0.21874 0.0
C487 C 0.08288 0.93623 0.20775 0.0
C488 C 0.08677 0.91009 0.24905 0.0
C489 C 0.09105 0.92307 0.30132 0.0
C490 C 0.0919 0.96072 0.31301 0.0
C491 C 0.10137 0.96731 0.37149 0.0
C492 C 0.13593 0.99235 0.37735 0.0
C493 C 0.06777 0.9838 0.40127 0.0
C494 C 0.10874 0.92767 0.38961 0.0
C495 C 0.10094 0.90251 0.34914 0.0
C496 C 0.10682 0.86441 0.3554 0.0
C497 C 0.12255 0.85178 0.40354 0.0
C498 C 0.13298 0.87727 0.44434 0.0
C499 C 0.12472 0.91556 0.43779 0.0
H500 H 0.07867 0.96553 0.83405 0.0
H501 H 0.18329 0.02196 0.86599 0.0
H502 H 0.21278 0.98702 0.79222 0.0
H503 H 0.12012 0.87499 0.79665 0.0
H504 H 0.0853 0.86672 0.74585 0.0
H505 H 0.0741 0.89403 0.80434 0.0
H506 H 0.05273 0.94848 0.74184 0.0
H507 H 0.06434 0.92032 0.68444 0.0
H508 H 0.08469 0.96581 0.69191 0.0
H509 H 0.23044 0.94825 0.71347 0.0
H510 H 0.23439 0.91004 0.63119 0.0
H511 H 0.11814 0.87985 0.64838 0.0
C512 C 0.10786 0.9703 0.82586 0.0
C513 C 0.12869 0.99649 0.85577 0.0
C514 C 0.16677 0.00205 0.84362 0.0
C515 C 0.18382 0.98226 0.8019 0.0
C516 C 0.16244 0.95697 0.77284 0.0
C517 C 0.12529 0.95093 0.78412 0.0
C518 C 0.1083 0.92324 0.74524 0.0
C519 C 0.09626 0.88761 0.77475 0.0
C520 C 0.07559 0.94055 0.71406 0.0
C521 C 0.14137 0.91586 0.7091 0.0
C522 C 0.17249 0.93499 0.72651 0.0
C523 C 0.20636 0.93292 0.69958 0.0
C524 C 0.20839 0.91106 0.65311 0.0
C525 C 0.17663 0.89197 0.63379 0.0
C526 C 0.1428 0.89421 0.66242 0.0
H527 H 0.04532 0.06278 0.81585 0.0
H528 H 0.08615 0.15139 0.91899 0.0
H529 H 0.12797 0.17249 0.84655 0.0
H530 H 0.13544 0.04407 0.74808 0.0
H531 H 0.11305 0.03476 0.68474 0.0
H532 H 0.08915 0.02467 0.74658 0.0
H533 H 0.0338 0.06529 0.7162 0.0
H534 H 0.05744 0.0762 0.65456 0.0
H535 H 0.0418 0.11324 0.69794 0.0
H536 H 0.15762 0.1895 0.75894 0.0
H537 H 0.17838 0.19736 0.66562 0.0
H538 H 0.12284 0.09399 0.62221 0.0
C539 C 0.06347 0.08627 0.82351 0.0
C540 C 0.06226 0.10572 0.87276 0.0
C541 C 0.08658 0.13616 0.88143 0.0
C542 C 0.11043 0.14834 0.84058 0.0
C543 C 0.11006 0.12928 0.79184 0.0
C544 C 0.08777 0.09844 0.78351 0.0
C545 C 0.09152 0.08383 0.72679 0.0
C546 C 0.10835 0.04448 0.72655 0.0
C547 C 0.05391 0.08472 0.69715 0.0
C548 C 0.11836 0.11207 0.70398 0.0
C549 C 0.12871 0.13806 0.74206 0.0
C550 C 0.15066 0.16869 0.72912 0.0
C551 C 0.16251 0.17276 0.67587 0.0
C552 C 0.15282 0.14603 0.6362 0.0
C553 C 0.13072 0.11512 0.65108 0.0
H554 H 0.88424 0.00883 0.79474 0.0
H555 H 0.77596 0.96991 0.84785 0.0
H556 H 0.74633 0.00337 0.77242 0.0
H557 H 0.85587 0.09939 0.75235 0.0
H558 H 0.8862 0.10019 0.69476 0.0
H559 H 0.89881 0.07338 0.75313 0.0
H560 H 0.90507 0.01419 0.69433 0.0
H561 H 0.89246 0.04064 0.63565 0.0
H562 H 0.86639 -0.00045 0.65331 0.0
H563 H 0.72862 0.04132 0.69168 0.0
H564 H 0.72425 0.07942 0.60924 0.0
H565 H 0.84431 0.09238 0.60882 0.0
C566 C 0.85433 0.007 0.79032 0.0
C567 C 0.83241 0.98657 0.82694 0.0
C568 C 0.7933 0.98537 0.82018 0.0
C569 C 0.77622 0.00426 0.7775 0.0
C570 C 0.79871 0.02403 0.74203 0.0
C571 C 0.83692 0.02537 0.74784 0.0
C572 C 0.85484 0.04827 0.70397 0.0
C573 C 0.87511 0.08233 0.72748 0.0
C574 C 0.88123 0.02422 0.6698 0.0
C575 C 0.82067 0.0597 0.67259 0.0
C576 C 0.78856 0.04558 0.69529 0.0
C577 C 0.75354 0.05257 0.67351 0.0
C578 C 0.75132 0.0744 0.62698 0.0
C579 C 0.78394 0.08881 0.60283 0.0
C580 C 0.81897 0.08141 0.62619 0.0
H581 H 0.9809 0.94224 0.81199 0.0
H582 H 0.01738 0.83589 0.87676 0.0
H583 H 0.98826 0.8035 0.80044 0.0
H584 H 0.89272 0.91132 0.76732 0.0
H585 H 0.89226 0.93905 0.707 0.0
H586 H 0.91835 0.95441 0.76464 0.0
H587 H 0.97834 0.95855 0.70751 0.0
H588 H 0.95224 0.94377 0.64949 0.0
H589 H 0.99321 0.91837 0.66966 0.0
H590 H 0.95241 0.78214 0.72122 0.0
H591 H 0.91253 0.77311 0.64148 0.0
H592 H 0.89951 0.89285 0.62645 0.0
C593 C 0.98299 0.91217 0.80988 0.0
C594 C 0.00131 0.89158 0.85046 0.0
C595 C 0.0034 0.85226 0.84629 0.0
C596 C 0.98705 0.83358 0.803 0.0
C597 C 0.96888 0.8546 0.76405 0.0
C598 C 0.96686 0.893 0.76678 0.0
C599 C 0.94437 0.90868 0.72046 0.0
C600 C 0.90985 0.92957 0.74107 0.0
C601 C 0.9685 0.93383 0.68467 0.0
C602 C 0.93374 0.873 0.69173 0.0
C603 C 0.94827 0.84218 0.71763 0.0
C604 C 0.94111 0.80602 0.70025 0.0
C605 C 0.91835 0.80116 0.65521 0.0
C606 C 0.90314 0.83228 0.62803 0.0
C607 C 0.91123 0.86866 0.64624 0.0
H608 H 0.55214 0.64453 0.6671 0.0
H609 H 0.51639 0.53091 0.69604 0.0
H610 H 0.55155 0.53021 0.781 0.0
H611 H 0.64468 0.63812 0.71803 0.0
H612 H 0.64489 0.68221 0.75263 0.0
H613 H 0.61573 0.67599 0.69456 0.0
H614 H 0.55759 0.69488 0.74865 0.0
H615 H 0.58652 0.70225 0.80684 0.0
H616 H 0.54723 0.67117 0.81066 0.0
H617 H 0.597 0.53744 0.85364 0.0
H618 H 0.63872 0.55711 0.92577 0.0
H619 H 0.64201 0.66875 0.85831 0.0
C620 C 0.55219 0.61952 0.69143 0.0
C621 C 0.53249 0.58736 0.67508 0.0
C622 C 0.53208 0.55538 0.70785 0.0
C623 C 0.55221 0.5546 0.75573 0.0
C624 C 0.57285 0.58586 0.76984 0.0
C625 C 0.57232 0.6182 0.73979 0.0
C626 C 0.59517 0.64851 0.76703 0.0
C627 C 0.62702 0.66196 0.73084 0.0
C628 C 0.57013 0.68113 0.78433 0.0
C629 C 0.60994 0.62736 0.8154 0.0
C630 C 0.5967 0.59126 0.81562 0.0
C631 C 0.60707 0.56565 0.85452 0.0
C632 C 0.63071 0.57727 0.89552 0.0
C633 C 0.64291 0.61474 0.89859 0.0
C634 C 0.63308 0.63995 0.85714 0.0
H635 H 0.35157 0.51568 0.70485 0.0
H636 H 0.4034 0.60534 0.6165 0.0
H637 H 0.38621 0.64961 0.68672 0.0
H638 H 0.27651 0.5666 0.76456 0.0
H639 H 0.28036 0.5446 0.8294 0.0
H640 H 0.29434 0.51975 0.76988 0.0
H641 H 0.36019 0.50912 0.81047 0.0
H642 H 0.34573 0.53308 0.87034 0.0
H643 H 0.38644 0.54842 0.83433 0.0
H644 H 0.36487 0.68405 0.76691 0.0
H645 H 0.34335 0.70644 0.85515 0.0
H646 H 0.30938 0.59414 0.89729 0.0
C647 C 0.35948 0.54454 0.7004 0.0
C648 C 0.37887 0.55699 0.65431 0.0
C649 C 0.38835 0.59508 0.65031 0.0
C650 C 0.37873 0.62051 0.69045 0.0
C651 C 0.36023 0.60725 0.73547 0.0
C652 C 0.35114 0.5701 0.74127 0.0
C653 C 0.3335 0.56294 0.79564 0.0
C654 C 0.29381 0.54757 0.78947 0.0
C655 C 0.35791 0.53685 0.82972 0.0
C656 C 0.33343 0.60204 0.8187 0.0
C657 C 0.34894 0.6271 0.78308 0.0
C658 C 0.35258 0.66477 0.79518 0.0
C659 C 0.34015 0.67721 0.84525 0.0
C660 C 0.3245 0.65204 0.88275 0.0
C661 C 0.32124 0.61393 0.8693 0.0
H662 H 0.445 0.35429 0.67242 0.0
H663 H 0.4232 0.47248 0.67225 0.0
H664 H 0.37778 0.46469 0.74521 0.0
H665 H 0.35223 0.31939 0.72132 0.0
H666 H 0.37328 0.28653 0.76691 0.0
H667 H 0.39649 0.29861 0.70513 0.0
H668 H 0.45531 0.31804 0.75859 0.0
H669 H 0.43244 0.30569 0.82022 0.0
H670 H 0.45109 0.35194 0.81169 0.0
H671 H 0.33849 0.44676 0.81961 0.0
H672 H 0.32191 0.42337 0.90941 0.0
H673 H 0.37466 0.31773 0.87307 0.0
C674 C 0.42932 0.37813 0.68657 0.0
C675 C 0.43408 0.41362 0.66305 0.0
C676 C 0.41592 0.44474 0.68529 0.0
C677 C 0.39067 0.4406 0.72726 0.0
C678 C 0.3849 0.4052 0.74807 0.0
C679 C 0.40467 0.37459 0.72999 0.0
C680 C 0.39929 0.34163 0.76736 0.0
C681 C 0.37912 0.30964 0.73845 0.0
C682 C 0.43675 0.32859 0.79086 0.0
C683 C 0.37465 0.35913 0.81003 0.0
C684 C 0.36556 0.39538 0.79659 0.0
C685 C 0.34529 0.41845 0.8307 0.0
C686 C 0.33579 0.40493 0.88135 0.0
C687 C 0.34673 0.36883 0.8973 0.0
C688 C 0.36527 0.34512 0.86078 0.0
H689 H 0.59371 0.48901 0.74108 0.0
H690 H 0.56899 0.39836 0.63253 0.0
H691 H 0.57977 0.35314 0.70483 0.0
H692 H 0.66444 0.44903 0.81454 0.0
H693 H 0.64956 0.46761 0.87826 0.0
H694 H 0.6375 0.49123 0.81696 0.0
H695 H 0.56417 0.48466 0.84418 0.0
H696 H 0.58163 0.46435 0.90544 0.0
H697 H 0.54851 0.4396 0.86441 0.0
H698 H 0.59898 0.31762 0.78746 0.0
H699 H 0.62467 0.295 0.8737 0.0
H700 H 0.63357 0.40893 0.93034 0.0
C701 C 0.58936 0.45979 0.73294 0.0
C702 C 0.57968 0.44741 0.68089 0.0
C703 C 0.57568 0.4087 0.67174 0.0
C704 C 0.58174 0.38272 0.71286 0.0
C705 C 0.59102 0.39591 0.76366 0.0
C706 C 0.59414 0.43358 0.77415 0.0
C707 C 0.60529 0.44036 0.83203 0.0
C708 C 0.6413 0.46343 0.83569 0.0
C709 C 0.57312 0.45838 0.8634 0.0
C710 C 0.61112 0.40077 0.85094 0.0
C711 C 0.60174 0.37545 0.8114 0.0
C712 C 0.60591 0.33721 0.81896 0.0
C713 C 0.62058 0.32464 0.86795 0.0
C714 C 0.63093 0.35024 0.90865 0.0
C715 C 0.62534 0.38872 0.90028 0.0
H716 H 0.61533 0.48454 0.28753 0.0
H717 H 0.64044 0.39524 0.39965 0.0
H718 H 0.64631 0.35129 0.32434 0.0
H719 H 0.56345 0.4256 0.18918 0.0
H720 H 0.58166 0.45162 0.13325 0.0
H721 H 0.57487 0.47416 0.19724 0.0
H722 H 0.64434 0.4945 0.19519 0.0
H723 H 0.65113 0.47061 0.13244 0.0
H724 H 0.68005 0.45937 0.18937 0.0
H725 H 0.6528 0.31773 0.23816 0.0
H726 H 0.66341 0.29686 0.14535 0.0
H727 H 0.63754 0.40809 0.0873 0.0
C728 C 0.62185 0.45568 0.2962 0.0
C729 C 0.6272 0.44328 0.3496 0.0
C730 C 0.63581 0.40534 0.35924 0.0
C731 C 0.63914 0.3801 0.31669 0.0
C732 C 0.63382 0.39318 0.26463 0.0
C733 C 0.62543 0.43004 0.25405 0.0
C734 C 0.6233 0.43713 0.19405 0.0
C735 C 0.58346 0.44776 0.17744 0.0
C736 C 0.6514 0.46716 0.17678 0.0
C737 C 0.63376 0.39888 0.17269 0.0
C738 C 0.6387 0.37384 0.21425 0.0
C739 C 0.64906 0.33702 0.2052 0.0
C740 C 0.65533 0.32554 0.15231 0.0
C741 C 0.65188 0.3509 0.10894 0.0
C742 C 0.64019 0.38792 0.11941 0.0
H743 H 0.51501 0.59143 0.26954 0.0
H744 H 0.60571 0.58023 0.38353 0.0
H745 H 0.65072 0.57994 0.30889 0.0
H746 H 0.55674 0.53653 0.15906 0.0
H747 H 0.53919 0.56788 0.10852 0.0
H748 H 0.51366 0.56111 0.17 0.0
H749 H 0.51475 0.63217 0.18798 0.0
H750 H 0.54002 0.63933 0.12662 0.0
H751 H 0.55872 0.65636 0.18917 0.0
H752 H 0.68589 0.5858 0.22296 0.0
H753 H 0.70915 0.60255 0.13302 0.0
H754 H 0.59533 0.61528 0.07703 0.0
C755 C 0.54429 0.58823 0.2788 0.0
C756 C 0.55687 0.58505 0.33226 0.0
C757 C 0.59544 0.58188 0.34278 0.0
C758 C 0.62119 0.58159 0.30064 0.0
C759 C 0.60785 0.58486 0.24836 0.0
C760 C 0.57031 0.5884 0.23734 0.0
C761 C 0.56343 0.59581 0.17844 0.0
C762 C 0.542 0.56338 0.15249 0.0
C763 C 0.54305 0.63314 0.1701 0.0
C764 C 0.60308 0.59743 0.15843 0.0
C765 C 0.62823 0.59005 0.19905 0.0
C766 C 0.66649 0.59149 0.19073 0.0
C767 C 0.67941 0.60144 0.13969 0.0
C768 C 0.65409 0.61053 0.09799 0.0
C769 C 0.61546 0.60787 0.10758 0.0
H770 H 0.34336 0.51609 0.26825 0.0
H771 H 0.41152 0.59897 0.34872 0.0
H772 H 0.40531 0.64062 0.27094 0.0
H773 H 0.37988 0.53558 0.13151 0.0
H774 H 0.33528 0.52721 0.1007 0.0
H775 H 0.3479 0.50291 0.16142 0.0
H776 H 0.2876 0.52809 0.20651 0.0
H777 H 0.2757 0.55308 0.14623 0.0
H778 H 0.27969 0.57769 0.20908 0.0
H779 H 0.38716 0.67566 0.18927 0.0
H780 H 0.36131 0.70057 0.10458 0.0
H781 H 0.30709 0.59476 0.07391 0.0
C782 C 0.35732 0.54281 0.26921 0.0
C783 C 0.37759 0.55443 0.31494 0.0
C784 C 0.39553 0.58957 0.31451 0.0
C785 C 0.39229 0.61343 0.27038 0.0
C786 C 0.37142 0.60158 0.22655 0.0
C787 C 0.35463 0.56695 0.22513 0.0
C788 C 0.33308 0.56158 0.17331 0.0
C789 C 0.35003 0.5299 0.13975 0.0
C790 C 0.29156 0.55472 0.18448 0.0
C791 C 0.3394 0.59908 0.14682 0.0
C792 C 0.36174 0.62161 0.17826 0.0
C793 C 0.37006 0.65816 0.16389 0.0
C794 C 0.35515 0.67211 0.11602 0.0
C795 C 0.33243 0.64948 0.08303 0.0
C796 C 0.32476 0.61239 0.09833 0.0
H797 H 0.507 0.40059 0.28652 0.0
H798 H 0.49737 0.52001 0.26277 0.0
H799 H 0.45969 0.50881 0.18099 0.0
H800 H 0.50924 0.37416 0.14243 0.0
H801 H 0.4825 0.33259 0.15507 0.0
H802 H 0.51337 0.35052 0.20598 0.0
H803 H 0.45836 0.35244 0.27324 0.0
H804 H 0.42713 0.33532 0.22252 0.0
H805 H 0.4171 0.37857 0.2564 0.0
H806 H 0.41842 0.48387 0.10686 0.0
H807 H 0.37586 0.44816 0.04805 0.0
H808 H 0.41168 0.34538 0.12377 0.0
C809 C 0.49762 0.42448 0.26365 0.0
C810 C 0.50498 0.46119 0.28095 0.0
C811 C 0.49224 0.49166 0.2499 0.0
C812 C 0.47084 0.48554 0.20349 0.0
C813 C 0.46295 0.44884 0.18875 0.0
C814 C 0.4763 0.41887 0.21775 0.0
C815 C 0.46168 0.38226 0.19646 0.0
C816 C 0.49359 0.35848 0.17361 0.0
C817 C 0.43977 0.36093 0.23974 0.0
C818 C 0.43644 0.39628 0.15245 0.0
C819 C 0.43815 0.43466 0.14775 0.0
C820 C 0.41673 0.45389 0.11032 0.0
C821 C 0.39277 0.4334 0.07713 0.0
C822 C 0.39041 0.39411 0.08184 0.0
C823 C 0.41262 0.37544 0.11992 0.0
loop_
_geom_bond_atom_site_label_1
_geom_bond_atom_site_label_2
_geom_bond_distance
_geom_bond_site_symmetry_2
_ccdc_geom_bond_type
Zn0 O2 1.933 1_556 S
Zn0 O20 1.985 . S
Zn0 O31 1.955 . S
Zn1 O2 1.911 . S
Zn1 O21 1.970 . S
Zn1 O37 1.945 . S
Zn1 O44 1.981 . S
O2 Zn0 1.933 1_554 S
O2 Zn1 1.911 . S
O2 H3 0.841 1_655 S
H3 O2 0.841 1_455 S
C4 O5 1.246 . S
C4 O33 1.276 1_545 S
O5 C4 1.246 . S
Zn6 O8 1.911 . S
Zn6 O23 1.970 . S
Zn6 O40 1.945 . S
Zn6 O47 1.981 . S
Zn7 O8 1.933 1_556 S
Zn7 O22 1.985 . S
Zn7 O29 1.955 . S
O8 Zn6 1.911 . S
O8 Zn7 1.933 1_554 S
O8 H9 0.841 1_455 S
H9 O8 0.841 1_655 S
Zn10 O11 1.933 1_556 S
Zn10 O24 1.985 . S
Zn10 O33 1.955 . S
O11 Zn10 1.933 1_554 S
O11 Zn12 1.911 . S
O11 H13 0.841 1_565 S
Zn12 O11 1.911 . S
Zn12 O25 1.970 . S
Zn12 O41 1.981 . S
Zn12 O43 1.945 . S
H13 O11 0.841 1_545 S
Zn14 O15 1.933 1_556 S
Zn14 O27 1.985 . S
Zn14 O35 1.955 . S
O15 Zn14 1.933 1_554 S
O15 H16 0.841 1_545 S
O15 Zn17 1.911 . S
H16 O15 0.841 1_565 S
Zn17 O15 1.911 . S
Zn17 O28 1.970 . S
Zn17 O38 1.981 . S
Zn17 O46 1.945 . S
C18 O19 1.246 . S
C18 O35 1.276 1_565 S
O19 C18 1.246 . S
O20 Zn0 1.985 . S
O20 C30 1.245 1_556 S
O21 Zn1 1.970 . S
O21 C30 1.263 . S
O22 Zn7 1.985 . S
O22 C34 1.245 1_556 S
O23 Zn6 1.970 . S
O23 C34 1.263 . S
O24 Zn10 1.985 . S
O24 C39 1.245 1_556 S
O25 Zn12 1.970 . S
O25 C39 1.263 . S
C26 O37 1.262 1_455 S
C26 O38 1.245 . S
O27 Zn14 1.985 . S
O27 C45 1.245 1_556 S
O28 Zn17 1.970 . S
O28 C45 1.263 . S
O29 Zn7 1.955 . S
O29 C48 1.276 1_455 S
C30 O20 1.245 1_554 S
C30 O21 1.263 . S
O31 Zn0 1.955 . S
O31 C50 1.276 1_655 S
C32 O40 1.262 1_655 S
C32 O41 1.245 . S
O33 C4 1.276 1_565 S
O33 Zn10 1.955 . S
C34 O22 1.245 1_554 S
C34 O23 1.263 . S
O35 Zn14 1.955 . S
O35 C18 1.276 1_545 S
C36 O43 1.262 1_545 S
C36 O44 1.245 . S
O37 Zn1 1.945 . S
O37 C26 1.262 1_655 S
O38 Zn17 1.981 . S
O38 C26 1.245 . S
C39 O24 1.245 1_554 S
C39 O25 1.263 . S
O40 Zn6 1.945 . S
O40 C32 1.262 1_455 S
O41 Zn12 1.981 . S
O41 C32 1.245 . S
C42 O46 1.262 1_565 S
C42 O47 1.245 . S
O43 Zn12 1.945 . S
O43 C36 1.262 1_565 S
O44 Zn1 1.981 . S
O44 C36 1.245 . S
C45 O27 1.245 1_554 S
C45 O28 1.263 . S
O46 Zn17 1.945 . S
O46 C42 1.262 1_545 S
O47 Zn6 1.981 . S
O47 C42 1.245 . S
C48 O29 1.276 1_655 S
C48 O49 1.246 . S
O49 C48 1.246 . S
C50 O31 1.276 1_455 S
C50 O51 1.246 . S
O51 C50 1.246 . S
Zn52 O54 1.933 . S
Zn52 O72 1.985 . S
Zn52 O83 1.955 . S
Zn53 O54 1.911 . S
Zn53 O73 1.970 . S
Zn53 O89 1.945 . S
Zn53 O96 1.981 . S
O54 Zn52 1.933 . S
O54 Zn53 1.911 . S
O54 H55 0.841 . S
H55 O54 0.841 . S
C56 O57 1.246 . S
C56 O85 1.276 . S
O57 C56 1.246 . S
Zn58 O60 1.911 . S
Zn58 O75 1.970 . S
Zn58 O92 1.945 . S
Zn58 O99 1.981 . S
Zn59 O60 1.933 . S
Zn59 O74 1.985 . S
Zn59 O81 1.955 . S
O60 Zn58 1.911 . S
O60 Zn59 1.933 . S
O60 H61 0.841 . S
H61 O60 0.841 . S
Zn62 O63 1.933 . S
Zn62 O76 1.985 . S
Zn62 O85 1.955 . S
O63 Zn62 1.933 . S
O63 Zn64 1.911 . S
O63 H65 0.841 . S
Zn64 O63 1.911 . S
Zn64 O77 1.970 . S
Zn64 O93 1.981 . S
Zn64 O95 1.945 . S
H65 O63 0.841 . S
Zn66 O67 1.933 . S
Zn66 O79 1.985 . S
Zn66 O87 1.955 . S
O67 Zn66 1.933 . S
O67 H68 0.841 . S
O67 Zn69 1.911 . S
H68 O67 0.841 . S
Zn69 O67 1.911 . S
Zn69 O80 1.970 . S
Zn69 O90 1.981 . S
Zn69 O98 1.945 . S
C70 O71 1.246 . S
C70 O87 1.276 . S
O71 C70 1.246 . S
O72 Zn52 1.985 . S
O72 C82 1.245 . S
O73 Zn53 1.970 . S
O73 C82 1.263 . S
O74 Zn59 1.985 . S
O74 C86 1.245 . S
O75 Zn58 1.970 . S
O75 C86 1.263 . S
O76 Zn62 1.985 . S
O76 C91 1.245 . S
O77 Zn64 1.970 . S
O77 C91 1.263 . S
C78 O89 1.262 . S
C78 O90 1.245 . S
O79 Zn66 1.985 . S
O79 C97 1.245 . S
O80 Zn69 1.970 . S
O80 C97 1.263 . S
O81 Zn59 1.955 . S
O81 C100 1.276 . S
C82 O72 1.245 . S
C82 O73 1.263 . S
O83 Zn52 1.955 . S
O83 C102 1.276 . S
C84 O92 1.262 . S
C84 O93 1.245 . S
O85 C56 1.276 . S
O85 Zn62 1.955 . S
C86 O74 1.245 . S
C86 O75 1.263 . S
O87 Zn66 1.955 . S
O87 C70 1.276 . S
C88 O95 1.262 . S
C88 O96 1.245 . S
O89 Zn53 1.945 . S
O89 C78 1.262 . S
O90 Zn69 1.981 . S
O90 C78 1.245 . S
C91 O76 1.245 . S
C91 O77 1.263 . S
O92 Zn58 1.945 . S
O92 C84 1.262 . S
O93 Zn64 1.981 . S
O93 C84 1.245 . S
C94 O98 1.262 . S
C94 O99 1.245 . S
O95 Zn64 1.945 . S
O95 C88 1.262 . S
O96 Zn53 1.981 . S
O96 C88 1.245 . S
C97 O79 1.245 . S
C97 O80 1.263 . S
O98 Zn69 1.945 . S
O98 C94 1.262 . S
O99 Zn58 1.981 . S
O99 C94 1.245 . S
C100 O81 1.276 . S
C100 O101 1.246 . S
O101 C100 1.246 . S
C102 O83 1.276 . S
C102 O103 1.246 . S
O103 C102 1.246 . S
H104 C107 0.931 . S
H105 C110 0.928 . S
H106 C112 0.930 . S
C107 H104 0.931 . S
C107 C108 1.413 1_554 S
C107 C109 1.360 . S
C108 C107 1.413 1_556 S
C108 C112 1.429 . S
C109 C107 1.360 . S
C109 C110 1.372 . S
C110 H105 0.928 . S
C110 C109 1.372 . S
C110 C111 1.404 . S
C111 C110 1.404 . S
C111 C112 1.391 1_554 S
C112 H106 0.930 . S
C112 C108 1.429 . S
C112 C111 1.391 1_556 S
H113 C116 0.931 . S
H114 C119 0.928 . S
H115 C121 0.930 . S
C116 H113 0.931 . S
C116 C117 1.413 1_554 S
C116 C118 1.360 . S
C117 C116 1.413 1_556 S
C117 C121 1.429 . S
C118 C116 1.360 . S
C118 C119 1.372 . S
C119 H114 0.928 . S
C119 C118 1.372 . S
C119 C120 1.404 . S
C120 C119 1.404 . S
C120 C121 1.391 1_554 S
C121 H115 0.930 . S
C121 C117 1.429 . S
C121 C120 1.391 1_556 S
H122 C125 0.931 . S
H123 C128 0.928 . S
H124 C130 0.930 . S
C125 H122 0.931 . S
C125 C126 1.413 . S
C125 C127 1.360 1_554 S
C126 C125 1.413 . S
C126 C130 1.429 . S
C127 C125 1.360 1_556 S
C127 C128 1.372 . S
C128 H123 0.928 . S
C128 C127 1.372 . S
C128 C129 1.404 1_556 S
C129 C128 1.404 1_554 S
C129 C130 1.391 . S
C130 H124 0.930 . S
C130 C126 1.429 . S
C130 C129 1.391 . S
H131 C134 0.931 . S
H132 C137 0.928 . S
H133 C139 0.930 . S
C134 H131 0.931 . S
C134 C135 1.413 1_554 S
C134 C136 1.360 . S
C135 C134 1.413 1_556 S
C135 C139 1.429 . S
C136 C134 1.360 . S
C136 C137 1.372 . S
C137 H132 0.928 . S
C137 C136 1.372 . S
C137 C138 1.404 . S
C138 C137 1.404 . S
C138 C139 1.391 1_554 S
C139 H133 0.930 . S
C139 C135 1.429 . S
C139 C138 1.391 1_556 S
H140 C143 0.931 . S
H141 C146 0.928 . S
H142 C148 0.930 . S
C143 H140 0.931 . S
C143 C144 1.413 . S
C143 C145 1.360 . S
C144 C143 1.413 . S
C144 C148 1.429 . S
C145 C143 1.360 . S
C145 C146 1.372 . S
C146 H141 0.928 . S
C146 C145 1.372 . S
C146 C147 1.404 . S
C147 C146 1.404 . S
C147 C148 1.391 . S
C148 H142 0.930 . S
C148 C144 1.429 . S
C148 C147 1.391 . S
H149 C152 0.931 . S
H150 C155 0.928 . S
H151 C157 0.930 . S
C152 H149 0.931 . S
C152 C153 1.413 . S
C152 C154 1.360 . S
C153 C152 1.413 . S
C153 C157 1.429 . S
C154 C152 1.360 . S
C154 C155 1.372 . S
C155 H150 0.928 . S
C155 C154 1.372 . S
C155 C156 1.404 . S
C156 C155 1.404 . S
C156 C157 1.391 . S
C157 H151 0.930 . S
C157 C153 1.429 . S
C157 C156 1.391 . S
H158 C161 0.931 . S
H159 C164 0.928 . S
H160 C166 0.930 . S
C161 H158 0.931 . S
C161 C162 1.413 . S
C161 C163 1.360 . S
C162 C161 1.413 . S
C162 C166 1.429 . S
C163 C161 1.360 . S
C163 C164 1.372 . S
C164 H159 0.928 . S
C164 C163 1.372 . S
C164 C165 1.404 . S
C165 C164 1.404 . S
C165 C166 1.391 . S
C166 H160 0.930 . S
C166 C162 1.429 . S
C166 C165 1.391 . S
H167 C170 0.931 . S
H168 C173 0.928 . S
H169 C175 0.930 . S
C170 H167 0.931 . S
C170 C171 1.413 . S
C170 C172 1.360 . S
C171 C170 1.413 . S
C171 C175 1.429 . S
C172 C170 1.360 . S
C172 C173 1.372 . S
C173 H168 0.928 . S
C173 C172 1.372 . S
C173 C174 1.404 . S
C174 C173 1.404 . S
C174 C175 1.391 . S
C175 H169 0.930 . S
C175 C171 1.429 . S
C175 C174 1.391 . S
H176 C188 0.930 . S
H177 C190 0.930 . S
H178 C191 0.930 . S
H179 C195 0.959 . S
H180 C195 0.959 . S
H181 C195 0.961 . S
H182 C196 0.960 . S
H183 C196 0.961 . S
H184 C196 0.959 . S
H185 C199 0.929 . S
H186 C200 0.931 . S
H187 C202 0.930 . S
C188 H176 0.930 . S
C188 C189 1.399 1_556 S
C188 C193 1.399 . S
C189 C188 1.399 1_554 S
C189 C190 1.376 . S
C190 H177 0.930 . S
C190 C189 1.376 . S
C190 C191 1.388 . S
C191 H178 0.930 . S
C191 C190 1.388 . S
C191 C192 1.390 . S
C192 C191 1.390 . S
C192 C193 1.394 1_554 S
C192 C198 1.465 . S
C193 C188 1.399 . S
C193 C192 1.394 1_556 S
C193 C194 1.516 . S
C194 C193 1.516 . S
C194 C195 1.502 . S
C194 C196 1.561 . S
C194 C197 1.526 . S
C195 H179 0.959 . S
C195 H180 0.959 . S
C195 H181 0.961 . S
C195 C194 1.502 . S
C196 H182 0.960 . S
C196 H183 0.961 . S
C196 H184 0.959 . S
C196 C194 1.561 . S
C197 C194 1.526 . S
C197 C198 1.396 1_556 S
C197 C202 1.390 . S
C198 C192 1.465 . S
C198 C197 1.396 1_554 S
C198 C199 1.399 . S
C199 H185 0.929 . S
C199 C198 1.399 . S
C199 C200 1.385 . S
C200 H186 0.931 . S
C200 C199 1.385 . S
C200 C201 1.389 . S
C201 C200 1.389 . S
C201 C202 1.387 1_554 S
C202 H187 0.930 . S
C202 C197 1.390 . S
C202 C201 1.387 1_556 S
H203 C215 0.930 . S
H204 C217 0.930 . S
H205 C218 0.930 . S
H206 C222 0.959 . S
H207 C222 0.959 . S
H208 C222 0.961 . S
H209 C223 0.960 . S
H210 C223 0.961 . S
H211 C223 0.959 . S
H212 C226 0.929 . S
H213 C227 0.931 . S
H214 C229 0.930 . S
C215 H203 0.930 . S
C215 C216 1.399 . S
C215 C220 1.399 . S
C216 C215 1.399 . S
C216 C217 1.376 1_554 S
C217 H204 0.930 . S
C217 C216 1.376 1_556 S
C217 C218 1.388 . S
C218 H205 0.930 . S
C218 C217 1.388 . S
C218 C219 1.390 . S
C219 C218 1.390 . S
C219 C220 1.394 1_556 S
C219 C225 1.465 . S
C220 C215 1.399 . S
C220 C219 1.394 1_554 S
C220 C221 1.516 . S
C221 C220 1.516 . S
C221 C222 1.502 . S
C221 C223 1.561 . S
C221 C224 1.526 . S
C222 H206 0.959 . S
C222 H207 0.959 . S
C222 H208 0.961 . S
C222 C221 1.502 . S
C223 H209 0.960 . S
C223 H210 0.961 . S
C223 H211 0.959 . S
C223 C221 1.561 . S
C224 C221 1.526 . S
C224 C225 1.396 1_554 S
C224 C229 1.390 . S
C225 C219 1.465 . S
C225 C224 1.396 1_556 S
C225 C226 1.399 . S
C226 H212 0.929 . S
C226 C225 1.399 . S
C226 C227 1.385 . S
C227 H213 0.931 . S
C227 C226 1.385 . S
C227 C228 1.389 1_556 S
C228 C227 1.389 1_554 S
C228 C229 1.387 . S
C229 H214 0.930 . S
C229 C224 1.390 . S
C229 C228 1.387 . S
H230 C242 0.930 . S
H231 C244 0.930 . S
H232 C245 0.930 . S
H233 C249 0.959 . S
H234 C249 0.959 . S
H235 C249 0.961 . S
H236 C250 0.960 . S
H237 C250 0.961 . S
H238 C250 0.959 . S
H239 C253 0.929 . S
H240 C254 0.931 . S
H241 C256 0.930 . S
C242 H230 0.930 . S
C242 C243 1.399 1_556 S
C242 C247 1.399 . S
C243 C242 1.399 1_554 S
C243 C244 1.376 . S
C244 H231 0.930 . S
C244 C243 1.376 . S
C244 C245 1.388 . S
C245 H232 0.930 . S
C245 C244 1.388 . S
C245 C246 1.390 . S
C246 C245 1.390 . S
C246 C247 1.394 1_554 S
C246 C252 1.465 . S
C247 C242 1.399 . S
C247 C246 1.394 1_556 S
C247 C248 1.516 . S
C248 C247 1.516 . S
C248 C249 1.502 . S
C248 C250 1.561 . S
C248 C251 1.526 . S
C249 H233 0.959 . S
C249 H234 0.959 . S
C249 H235 0.961 . S
C249 C248 1.502 . S
C250 H236 0.960 . S
C250 H237 0.961 . S
C250 H238 0.959 . S
C250 C248 1.561 . S
C251 C248 1.526 . S
C251 C252 1.396 1_556 S
C251 C256 1.390 . S
C252 C246 1.465 . S
C252 C251 1.396 1_554 S
C252 C253 1.399 . S
C253 H239 0.929 . S
C253 C252 1.399 . S
C253 C254 1.385 . S
C254 H240 0.931 . S
C254 C253 1.385 . S
C254 C255 1.389 . S
C255 C254 1.389 . S
C255 C256 1.387 1_554 S
C256 H241 0.930 . S
C256 C251 1.390 . S
C256 C255 1.387 1_556 S
H257 C269 0.930 . S
H258 C271 0.930 . S
H259 C272 0.930 . S
H260 C276 0.959 . S
H261 C276 0.959 . S
H262 C276 0.961 . S
H263 C277 0.960 . S
H264 C277 0.961 . S
H265 C277 0.959 . S
H266 C280 0.929 . S
H267 C281 0.931 . S
H268 C283 0.930 . S
C269 H257 0.930 . S
C269 C270 1.399 . S
C269 C274 1.399 . S
C270 C269 1.399 . S
C270 C271 1.376 1_554 S
C271 H258 0.930 . S
C271 C270 1.376 1_556 S
C271 C272 1.388 . S
C272 H259 0.930 . S
C272 C271 1.388 . S
C272 C273 1.390 . S
C273 C272 1.390 . S
C273 C274 1.394 1_556 S
C273 C279 1.465 . S
C274 C269 1.399 . S
C274 C273 1.394 1_554 S
C274 C275 1.516 . S
C275 C274 1.516 . S
C275 C276 1.502 . S
C275 C277 1.561 . S
C275 C278 1.526 . S
C276 H260 0.959 . S
C276 H261 0.959 . S
C276 H262 0.961 . S
C276 C275 1.502 . S
C277 H263 0.960 . S
C277 H264 0.961 . S
C277 H265 0.959 . S
C277 C275 1.561 . S
C278 C275 1.526 . S
C278 C279 1.396 1_554 S
C278 C283 1.390 . S
C279 C273 1.465 . S
C279 C278 1.396 1_556 S
C279 C280 1.399 . S
C280 H266 0.929 . S
C280 C279 1.399 . S
C280 C281 1.385 . S
C281 H267 0.931 . S
C281 C280 1.385 . S
C281 C282 1.389 1_556 S
C282 C281 1.389 1_554 S
C282 C283 1.387 . S
C283 H268 0.930 . S
C283 C278 1.390 . S
C283 C282 1.387 . S
H284 C296 0.930 . S
H285 C298 0.930 . S
H286 C299 0.930 . S
H287 C303 0.959 . S
H288 C303 0.959 . S
H289 C303 0.961 . S
H290 C304 0.960 . S
H291 C304 0.961 . S
H292 C304 0.959 . S
H293 C307 0.929 . S
H294 C308 0.931 . S
H295 C310 0.930 . S
C296 H284 0.930 . S
C296 C297 1.399 . S
C296 C301 1.399 . S
C297 C296 1.399 . S
C297 C298 1.376 . S
C298 H285 0.930 . S
C298 C297 1.376 . S
C298 C299 1.388 . S
C299 H286 0.930 . S
C299 C298 1.388 . S
C299 C300 1.390 . S
C300 C299 1.390 . S
C300 C301 1.394 . S
C300 C306 1.465 . S
C301 C296 1.399 . S
C301 C300 1.394 . S
C301 C302 1.516 . S
C302 C301 1.516 . S
C302 C303 1.502 . S
C302 C304 1.561 . S
C302 C305 1.526 . S
C303 H287 0.959 . S
C303 H288 0.959 . S
C303 H289 0.961 . S
C303 C302 1.502 . S
C304 H290 0.960 . S
C304 H291 0.961 . S
C304 H292 0.959 . S
C304 C302 1.561 . S
C305 C302 1.526 . S
C305 C306 1.396 . S
C305 C310 1.390 . S
C306 C300 1.465 . S
C306 C305 1.396 . S
C306 C307 1.399 . S
C307 H293 0.929 . S
C307 C306 1.399 . S
C307 C308 1.385 . S
C308 H294 0.931 . S
C308 C307 1.385 . S
C308 C309 1.389 . S
C309 C308 1.389 . S
C309 C310 1.387 . S
C310 H295 0.930 . S
C310 C305 1.390 . S
C310 C309 1.387 . S
H311 C323 0.930 . S
H312 C325 0.930 . S
H313 C326 0.930 . S
H314 C330 0.959 . S
H315 C330 0.959 . S
H316 C330 0.961 . S
H317 C331 0.960 . S
H318 C331 0.961 . S
H319 C331 0.959 . S
H320 C334 0.929 . S
H321 C335 0.931 . S
H322 C337 0.930 . S
C323 H311 0.930 . S
C323 C324 1.399 . S
C323 C328 1.399 . S
C324 C323 1.399 . S
C324 C325 1.376 . S
C325 H312 0.930 . S
C325 C324 1.376 . S
C325 C326 1.388 . S
C326 H313 0.930 . S
C326 C325 1.388 . S
C326 C327 1.390 . S
C327 C326 1.390 . S
C327 C328 1.394 . S
C327 C333 1.465 . S
C328 C323 1.399 . S
C328 C327 1.394 . S
C328 C329 1.516 . S
C329 C328 1.516 . S
C329 C330 1.502 . S
C329 C331 1.561 . S
C329 C332 1.526 . S
C330 H314 0.959 . S
C330 H315 0.959 . S
C330 H316 0.961 . S
C330 C329 1.502 . S
C331 H317 0.960 . S
C331 H318 0.961 . S
C331 H319 0.959 . S
C331 C329 1.561 . S
C332 C329 1.526 . S
C332 C333 1.396 . S
C332 C337 1.390 . S
C333 C327 1.465 . S
C333 C332 1.396 . S
C333 C334 1.399 . S
C334 H320 0.929 . S
C334 C333 1.399 . S
C334 C335 1.385 . S
C335 H321 0.931 . S
C335 C334 1.385 . S
C335 C336 1.389 . S
C336 C335 1.389 . S
C336 C337 1.387 . S
C337 H322 0.930 . S
C337 C332 1.390 . S
C337 C336 1.387 . S
H338 C350 0.930 . S
H339 C352 0.930 . S
H340 C353 0.930 . S
H341 C357 0.959 . S
H342 C357 0.959 . S
H343 C357 0.961 . S
H344 C358 0.960 . S
H345 C358 0.961 . S
H346 C358 0.959 . S
H347 C361 0.929 . S
H348 C362 0.931 . S
H349 C364 0.930 . S
C350 H338 0.930 . S
C350 C351 1.399 . S
C350 C355 1.399 . S
C351 C350 1.399 . S
C351 C352 1.376 . S
C352 H339 0.930 . S
C352 C351 1.376 . S
C352 C353 1.388 . S
C353 H340 0.930 . S
C353 C352 1.388 . S
C353 C354 1.390 . S
C354 C353 1.390 . S
C354 C355 1.394 . S
C354 C360 1.465 . S
C355 C350 1.399 . S
C355 C354 1.394 . S
C355 C356 1.516 . S
C356 C355 1.516 . S
C356 C357 1.502 . S
C356 C358 1.561 . S
C356 C359 1.526 . S
C357 H341 0.959 . S
C357 H342 0.959 . S
C357 H343 0.961 . S
C357 C356 1.502 . S
C358 H344 0.960 . S
C358 H345 0.961 . S
C358 H346 0.959 . S
C358 C356 1.561 . S
C359 C356 1.526 . S
C359 C360 1.396 . S
C359 C364 1.390 . S
C360 C354 1.465 . S
C360 C359 1.396 . S
C360 C361 1.399 . S
C361 H347 0.929 . S
C361 C360 1.399 . S
C361 C362 1.385 . S
C362 H348 0.931 . S
C362 C361 1.385 . S
C362 C363 1.389 . S
C363 C362 1.389 . S
C363 C364 1.387 . S
C364 H349 0.930 . S
C364 C359 1.390 . S
C364 C363 1.387 . S
H365 C377 0.930 . S
H366 C379 0.930 . S
H367 C380 0.930 . S
H368 C384 0.959 . S
H369 C384 0.959 . S
H370 C384 0.961 . S
H371 C385 0.960 . S
H372 C385 0.961 . S
H373 C385 0.959 . S
H374 C388 0.929 . S
H375 C389 0.931 . S
H376 C391 0.930 . S
C377 H365 0.930 . S
C377 C378 1.399 . S
C377 C382 1.399 . S
C378 C377 1.399 . S
C378 C379 1.376 . S
C379 H366 0.930 . S
C379 C378 1.376 . S
C379 C380 1.388 . S
C380 H367 0.930 . S
C380 C379 1.388 . S
C380 C381 1.390 . S
C381 C380 1.390 . S
C381 C382 1.394 . S
C381 C387 1.465 . S
C382 C377 1.399 . S
C382 C381 1.394 . S
C382 C383 1.516 . S
C383 C382 1.516 . S
C383 C384 1.502 . S
C383 C385 1.561 . S
C383 C386 1.526 . S
C384 H368 0.959 . S
C384 H369 0.959 . S
C384 H370 0.961 . S
C384 C383 1.502 . S
C385 H371 0.960 . S
C385 H372 0.961 . S
C385 H373 0.959 . S
C385 C383 1.561 . S
C386 C383 1.526 . S
C386 C387 1.396 . S
C386 C391 1.390 . S
C387 C381 1.465 . S
C387 C386 1.396 . S
C387 C388 1.399 . S
C388 H374 0.929 . S
C388 C387 1.399 . S
C388 C389 1.385 . S
C389 H375 0.931 . S
C389 C388 1.385 . S
C389 C390 1.389 . S
C390 C389 1.389 . S
C390 C391 1.387 . S
C391 H376 0.930 . S
C391 C386 1.390 . S
C391 C390 1.387 . S
H392 C404 0.930 . S
H393 C406 0.930 1_655 S
H394 C407 0.930 . S
H395 C411 0.959 . S
H396 C411 0.959 . S
H397 C411 0.961 . S
H398 C412 0.960 . S
H399 C412 0.961 . S
H400 C412 0.959 . S
H401 C415 0.929 . S
H402 C416 0.931 . S
H403 C418 0.930 . S
C404 H392 0.930 . S
C404 C405 1.399 . S
C404 C409 1.399 . S
C405 C404 1.399 . S
C405 C406 1.376 . S
C406 H393 0.930 1_455 S
C406 C405 1.376 . S
C406 C407 1.388 . S
C407 H394 0.930 . S
C407 C406 1.388 . S
C407 C408 1.390 . S
C408 C407 1.390 . S
C408 C409 1.394 . S
C408 C414 1.465 . S
C409 C404 1.399 . S
C409 C408 1.394 . S
C409 C410 1.516 . S
C410 C409 1.516 . S
C410 C411 1.502 . S
C410 C412 1.561 . S
C410 C413 1.526 . S
C411 H395 0.959 . S
C411 H396 0.959 . S
C411 H397 0.961 . S
C411 C410 1.502 . S
C412 H398 0.960 . S
C412 H399 0.961 . S
C412 H400 0.959 . S
C412 C410 1.561 . S
C413 C410 1.526 . S
C413 C414 1.396 . S
C413 C418 1.390 . S
C414 C408 1.465 . S
C414 C413 1.396 . S
C414 C415 1.399 . S
C415 H401 0.929 . S
C415 C414 1.399 . S
C415 C416 1.385 . S
C416 H402 0.931 . S
C416 C415 1.385 . S
C416 C417 1.389 . S
C417 C416 1.389 . S
C417 C418 1.387 . S
C418 H403 0.930 . S
C418 C413 1.390 . S
C418 C417 1.387 . S
H419 C431 0.930 1_565 S
H420 C433 0.930 . S
H421 C434 0.930 . S
H422 C438 0.959 1_545 S
H423 C438 0.959 . S
H424 C438 0.961 . S
H425 C439 0.960 . S
H426 C439 0.961 . S
H427 C439 0.959 1_545 S
H428 C442 0.929 . S
H429 C443 0.931 . S
H430 C445 0.930 . S
C431 H419 0.930 1_545 S
C431 C432 1.399 . S
C431 C436 1.399 . S
C432 C431 1.399 . S
C432 C433 1.376 . S
C433 H420 0.930 . S
C433 C432 1.376 . S
C433 C434 1.388 . S
C434 H421 0.930 . S
C434 C433 1.388 . S
C434 C435 1.390 . S
C435 C434 1.390 . S
C435 C436 1.394 . S
C435 C441 1.465 . S
C436 C431 1.399 . S
C436 C435 1.394 . S
C436 C437 1.516 . S
C437 C436 1.516 . S
C437 C438 1.502 1_545 S
C437 C439 1.561 1_545 S
C437 C440 1.526 . S
C438 H422 0.959 1_565 S
C438 H423 0.959 . S
C438 H424 0.961 . S
C438 C437 1.502 1_565 S
C439 H425 0.960 . S
C439 H426 0.961 . S
C439 H427 0.959 1_565 S
C439 C437 1.561 1_565 S
C440 C437 1.526 . S
C440 C441 1.396 . S
C440 C445 1.390 . S
C441 C435 1.465 . S
C441 C440 1.396 . S
C441 C442 1.399 . S
C442 H428 0.929 . S
C442 C441 1.399 . S
C442 C443 1.385 . S
C443 H429 0.931 . S
C443 C442 1.385 . S
C443 C444 1.389 . S
C444 C443 1.389 . S
C444 C445 1.387 . S
C445 H430 0.930 . S
C445 C440 1.390 . S
C445 C444 1.387 . S
H446 C458 0.930 1_455 S
H447 C460 0.930 . S
H448 C461 0.930 . S
H449 C465 0.959 . S
H450 C465 0.959 . S
H451 C465 0.961 . S
H452 C466 0.960 1_455 S
H453 C466 0.961 . S
H454 C466 0.959 . S
H455 C469 0.929 . S
H456 C470 0.931 . S
H457 C472 0.930 . S
C458 H446 0.930 1_655 S
C458 C459 1.399 . S
C458 C463 1.399 . S
C459 C458 1.399 . S
C459 C460 1.376 . S
C460 H447 0.930 . S
C460 C459 1.376 . S
C460 C461 1.388 . S
C461 H448 0.930 . S
C461 C460 1.388 . S
C461 C462 1.390 . S
C462 C461 1.390 . S
C462 C463 1.394 . S
C462 C468 1.465 . S
C463 C458 1.399 . S
C463 C462 1.394 . S
C463 C464 1.516 . S
C464 C463 1.516 . S
C464 C465 1.502 1_655 S
C464 C466 1.561 . S
C464 C467 1.526 . S
C465 H449 0.959 . S
C465 H450 0.959 . S
C465 H451 0.961 . S
C465 C464 1.502 1_455 S
C466 H452 0.960 1_655 S
C466 H453 0.961 . S
C466 H454 0.959 . S
C466 C464 1.561 . S
C467 C464 1.526 . S
C467 C468 1.396 . S
C467 C472 1.390 . S
C468 C462 1.465 . S
C468 C467 1.396 . S
C468 C469 1.399 . S
C469 H455 0.929 . S
C469 C468 1.399 . S
C469 C470 1.385 . S
C470 H456 0.931 . S
C470 C469 1.385 . S
C470 C471 1.389 . S
C471 C470 1.389 . S
C471 C472 1.387 . S
C472 H457 0.930 . S
C472 C467 1.390 . S
C472 C471 1.387 . S
H473 C485 0.930 1_545 S
H474 C487 0.930 . S
H475 C488 0.930 . S
H476 C492 0.972 . S
H477 C492 0.959 . S
H478 C492 0.961 . S
H479 C493 0.960 1_545 S
H480 C493 0.961 1_545 S
H481 C493 0.959 . S
H482 C496 0.929 . S
H483 C497 0.931 . S
H484 C499 0.930 . S
C485 H473 0.930 1_565 S
C485 C486 1.399 . S
C485 C490 1.399 . S
C486 C485 1.399 . S
C486 C487 1.376 . S
C487 H474 0.930 . S
C487 C486 1.376 . S
C487 C488 1.388 . S
C488 H475 0.930 . S
C488 C487 1.388 . S
C488 C489 1.390 . S
C489 C488 1.390 . S
C489 C490 1.394 . S
C489 C495 1.465 . S
C490 C485 1.399 . S
C490 C489 1.394 . S
C490 C491 1.516 . S
C491 C490 1.516 . S
C491 C492 1.502 1_565 S
C491 C493 1.561 . S
C491 C494 1.526 . S
C492 H476 0.972 . S
C492 H477 0.959 . S
C492 H478 0.961 . S
C492 C491 1.502 1_545 S
C493 H479 0.960 1_565 S
C493 H480 0.961 1_565 S
C493 H481 0.959 . S
C493 C491 1.561 . S
C494 C491 1.526 . S
C494 C495 1.396 . S
C494 C499 1.390 . S
C495 C489 1.465 . S
C495 C494 1.396 . S
C495 C496 1.399 . S
C496 H482 0.929 . S
C496 C495 1.399 . S
C496 C497 1.385 . S
C497 H483 0.931 . S
C497 C496 1.385 . S
C497 C498 1.389 . S
C498 C497 1.389 . S
C498 C499 1.387 . S
C499 H484 0.930 . S
C499 C494 1.390 . S
C499 C498 1.387 . S
H500 C512 0.930 . S
H501 C514 0.930 1_545 S
H502 C515 0.930 1_545 S
H503 C519 0.959 . S
H504 C519 0.959 . S
H505 C519 0.961 . S
H506 C520 0.960 . S
H507 C520 0.961 . S
H508 C520 0.959 . S
H509 C523 0.929 . S
H510 C524 0.931 . S
H511 C526 0.930 . S
C512 H500 0.930 . S
C512 C513 1.399 . S
C512 C517 1.399 . S
C513 C512 1.399 . S
C513 C514 1.376 . S
C514 H501 0.930 1_565 S
C514 C513 1.376 . S
C514 C515 1.388 . S
C515 H502 0.930 1_565 S
C515 C514 1.388 . S
C515 C516 1.390 . S
C516 C515 1.390 . S
C516 C517 1.394 . S
C516 C522 1.465 . S
C517 C512 1.399 . S
C517 C516 1.394 . S
C517 C518 1.516 . S
C518 C517 1.516 . S
C518 C519 1.502 . S
C518 C520 1.561 . S
C518 C521 1.526 . S
C519 H503 0.959 . S
C519 H504 0.959 . S
C519 H505 0.961 . S
C519 C518 1.502 . S
C520 H506 0.960 . S
C520 H507 0.961 . S
C520 H508 0.959 . S
C520 C518 1.561 . S
C521 C518 1.526 . S
C521 C522 1.396 . S
C521 C526 1.390 . S
C522 C516 1.465 . S
C522 C521 1.396 . S
C522 C523 1.399 . S
C523 H509 0.929 . S
C523 C522 1.399 . S
C523 C524 1.385 . S
C524 H510 0.931 . S
C524 C523 1.385 . S
C524 C525 1.389 . S
C525 C524 1.389 . S
C525 C526 1.387 . S
C526 H511 0.930 . S
C526 C521 1.390 . S
C526 C525 1.387 . S
H527 C539 0.930 . S
H528 C541 0.930 . S
H529 C542 0.930 . S
H530 C546 0.959 . S
H531 C546 0.959 . S
H532 C546 0.961 . S
H533 C547 0.960 . S
H534 C547 0.961 . S
H535 C547 0.959 . S
H536 C550 0.929 . S
H537 C551 0.931 . S
H538 C553 0.930 . S
C539 H527 0.930 . S
C539 C540 1.399 . S
C539 C544 1.399 . S
C540 C539 1.399 . S
C540 C541 1.376 . S
C541 H528 0.930 . S
C541 C540 1.376 . S
C541 C542 1.388 . S
C542 H529 0.930 . S
C542 C541 1.388 . S
C542 C543 1.390 . S
C543 C542 1.390 . S
C543 C544 1.394 . S
C543 C549 1.465 . S
C544 C539 1.399 . S
C544 C543 1.394 . S
C544 C545 1.516 . S
C545 C544 1.516 . S
C545 C546 1.502 . S
C545 C547 1.561 . S
C545 C548 1.526 . S
C546 H530 0.959 . S
C546 H531 0.959 . S
C546 H532 0.961 . S
C546 C545 1.502 . S
C547 H533 0.960 . S
C547 H534 0.961 . S
C547 H535 0.959 . S
C547 C545 1.561 . S
C548 C545 1.526 . S
C548 C549 1.396 . S
C548 C553 1.390 . S
C549 C543 1.465 . S
C549 C548 1.396 . S
C549 C550 1.399 . S
C550 H536 0.929 . S
C550 C549 1.399 . S
C550 C551 1.385 . S
C551 H537 0.931 . S
C551 C550 1.385 . S
C551 C552 1.389 . S
C552 C551 1.389 . S
C552 C553 1.387 . S
C553 H538 0.930 . S
C553 C548 1.390 . S
C553 C552 1.387 . S
H554 C566 0.930 . S
H555 C568 0.930 . S
H556 C569 0.930 . S
H557 C573 0.959 . S
H558 C573 0.959 . S
H559 C573 0.961 . S
H560 C574 0.960 . S
H561 C574 0.961 . S
H562 C574 0.959 . S
H563 C577 0.929 . S
H564 C578 0.931 . S
H565 C580 0.930 . S
C566 H554 0.930 . S
C566 C567 1.399 . S
C566 C571 1.399 . S
C567 C566 1.399 . S
C567 C568 1.376 . S
C568 H555 0.930 . S
C568 C567 1.376 . S
C568 C569 1.388 . S
C569 H556 0.930 . S
C569 C568 1.388 . S
C569 C570 1.390 . S
C570 C569 1.390 . S
C570 C571 1.394 . S
C570 C576 1.465 . S
C571 C566 1.399 . S
C571 C570 1.394 . S
C571 C572 1.516 . S
C572 C571 1.516 . S
C572 C573 1.502 . S
C572 C574 1.561 . S
C572 C575 1.526 . S
C573 H557 0.959 . S
C573 H558 0.959 . S
C573 H559 0.961 . S
C573 C572 1.502 . S
C574 H560 0.960 . S
C574 H561 0.961 . S
C574 H562 0.959 . S
C574 C572 1.561 . S
C575 C572 1.526 . S
C575 C576 1.396 . S
C575 C580 1.390 . S
C576 C570 1.465 . S
C576 C575 1.396 . S
C576 C577 1.399 . S
C577 H563 0.929 . S
C577 C576 1.399 . S
C577 C578 1.385 . S
C578 H564 0.931 . S
C578 C577 1.385 . S
C578 C579 1.389 . S
C579 C578 1.389 . S
C579 C580 1.387 . S
C580 H565 0.930 . S
C580 C575 1.390 . S
C580 C579 1.387 . S
H581 C593 0.930 . S
H582 C595 0.930 . S
H583 C596 0.930 . S
H584 C600 0.959 . S
H585 C600 0.959 . S
H586 C600 0.961 . S
H587 C601 0.960 . S
H588 C601 0.961 . S
H589 C601 0.959 . S
H590 C604 0.929 . S
H591 C605 0.931 . S
H592 C607 0.930 . S
C593 H581 0.930 . S
C593 C594 1.399 . S
C593 C598 1.399 . S
C594 C593 1.399 . S
C594 C595 1.376 . S
C595 H582 0.930 . S
C595 C594 1.376 . S
C595 C596 1.388 . S
C596 H583 0.930 . S
C596 C595 1.388 . S
C596 C597 1.390 . S
C597 C596 1.390 . S
C597 C598 1.394 . S
C597 C603 1.465 . S
C598 C593 1.399 . S
C598 C597 1.394 . S
C598 C599 1.516 . S
C599 C598 1.516 . S
C599 C600 1.502 . S
C599 C601 1.561 . S
C599 C602 1.526 . S
C600 H584 0.959 . S
C600 H585 0.959 . S
C600 H586 0.961 . S
C600 C599 1.502 . S
C601 H587 0.960 . S
C601 H588 0.961 . S
C601 H589 0.959 . S
C601 C599 1.561 . S
C602 C599 1.526 . S
C602 C603 1.396 . S
C602 C607 1.390 . S
C603 C597 1.465 . S
C603 C602 1.396 . S
C603 C604 1.399 . S
C604 H590 0.929 . S
C604 C603 1.399 . S
C604 C605 1.385 . S
C605 H591 0.931 . S
C605 C604 1.385 . S
C605 C606 1.389 . S
C606 C605 1.389 . S
C606 C607 1.387 . S
C607 H592 0.930 . S
C607 C602 1.390 . S
C607 C606 1.387 . S
H608 C620 0.930 . S
H609 C622 0.930 . S
H610 C623 0.930 . S
H611 C627 0.959 . S
H612 C627 0.959 . S
H613 C627 0.961 . S
H614 C628 0.960 . S
H615 C628 0.961 . S
H616 C628 0.959 . S
H617 C631 0.929 . S
H618 C632 0.931 . S
H619 C634 0.930 . S
C620 H608 0.930 . S
C620 C621 1.399 . S
C620 C625 1.399 . S
C621 C620 1.399 . S
C621 C622 1.376 . S
C622 H609 0.930 . S
C622 C621 1.376 . S
C622 C623 1.388 . S
C623 H610 0.930 . S
C623 C622 1.388 . S
C623 C624 1.390 . S
C624 C623 1.390 . S
C624 C625 1.394 . S
C624 C630 1.465 . S
C625 C620 1.399 . S
C625 C624 1.394 . S
C625 C626 1.516 . S
C626 C625 1.516 . S
C626 C627 1.502 . S
C626 C628 1.561 . S
C626 C629 1.526 . S
C627 H611 0.959 . S
C627 H612 0.959 . S
C627 H613 0.961 . S
C627 C626 1.502 . S
C628 H614 0.960 . S
C628 H615 0.961 . S
C628 H616 0.959 . S
C628 C626 1.561 . S
C629 C626 1.526 . S
C629 C630 1.396 . S
C629 C634 1.390 . S
C630 C624 1.465 . S
C630 C629 1.396 . S
C630 C631 1.399 . S
C631 H617 0.929 . S
C631 C630 1.399 . S
C631 C632 1.385 . S
C632 H618 0.931 . S
C632 C631 1.385 . S
C632 C633 1.389 . S
C633 C632 1.389 . S
C633 C634 1.387 . S
C634 H619 0.930 . S
C634 C629 1.390 . S
C634 C633 1.387 . S
H635 C647 0.930 . S
H636 C649 0.930 . S
H637 C650 0.930 . S
H638 C654 0.959 . S
H639 C654 0.959 . S
H640 C654 0.961 . S
H641 C655 0.960 . S
H642 C655 0.961 . S
H643 C655 0.959 . S
H644 C658 0.929 . S
H645 C659 0.931 . S
H646 C661 0.930 . S
C647 H635 0.930 . S
C647 C648 1.399 . S
C647 C652 1.399 . S
C648 C647 1.399 . S
C648 C649 1.376 . S
C649 H636 0.930 . S
C649 C648 1.376 . S
C649 C650 1.388 . S
C650 H637 0.930 . S
C650 C649 1.388 . S
C650 C651 1.390 . S
C651 C650 1.390 . S
C651 C652 1.394 . S
C651 C657 1.465 . S
C652 C647 1.399 . S
C652 C651 1.394 . S
C652 C653 1.516 . S
C653 C652 1.516 . S
C653 C654 1.502 . S
C653 C655 1.561 . S
C653 C656 1.526 . S
C654 H638 0.959 . S
C654 H639 0.959 . S
C654 H640 0.961 . S
C654 C653 1.502 . S
C655 H641 0.960 . S
C655 H642 0.961 . S
C655 H643 0.959 . S
C655 C653 1.561 . S
C656 C653 1.526 . S
C656 C657 1.396 . S
C656 C661 1.390 . S
C657 C651 1.465 . S
C657 C656 1.396 . S
C657 C658 1.399 . S
C658 H644 0.929 . S
C658 C657 1.399 . S
C658 C659 1.385 . S
C659 H645 0.931 . S
C659 C658 1.385 . S
C659 C660 1.389 . S
C660 C659 1.389 . S
C660 C661 1.387 . S
C661 H646 0.930 . S
C661 C656 1.390 . S
C661 C660 1.387 . S
H662 C674 0.930 . S
H663 C676 0.930 . S
H664 C677 0.930 . S
H665 C681 0.959 . S
H666 C681 0.959 . S
H667 C681 0.961 . S
H668 C682 0.960 . S
H669 C682 0.961 . S
H670 C682 0.959 . S
H671 C685 0.929 . S
H672 C686 0.931 . S
H673 C688 0.930 . S
C674 H662 0.930 . S
C674 C675 1.399 . S
C674 C679 1.399 . S
C675 C674 1.399 . S
C675 C676 1.376 . S
C676 H663 0.930 . S
C676 C675 1.376 . S
C676 C677 1.388 . S
C677 H664 0.930 . S
C677 C676 1.388 . S
C677 C678 1.390 . S
C678 C677 1.390 . S
C678 C679 1.394 . S
C678 C684 1.465 . S
C679 C674 1.399 . S
C679 C678 1.394 . S
C679 C680 1.516 . S
C680 C679 1.516 . S
C680 C681 1.502 . S
C680 C682 1.561 . S
C680 C683 1.526 . S
C681 H665 0.959 . S
C681 H666 0.959 . S
C681 H667 0.961 . S
C681 C680 1.502 . S
C682 H668 0.960 . S
C682 H669 0.961 . S
C682 H670 0.959 . S
C682 C680 1.561 . S
C683 C680 1.526 . S
C683 C684 1.396 . S
C683 C688 1.390 . S
C684 C678 1.465 . S
C684 C683 1.396 . S
C684 C685 1.399 . S
C685 H671 0.929 . S
C685 C684 1.399 . S
C685 C686 1.385 . S
C686 H672 0.931 . S
C686 C685 1.385 . S
C686 C687 1.389 . S
C687 C686 1.389 . S
C687 C688 1.387 . S
C688 H673 0.930 . S
C688 C683 1.390 . S
C688 C687 1.387 . S
H689 C701 0.930 . S
H690 C703 0.930 . S
H691 C704 0.930 . S
H692 C708 0.959 . S
H693 C708 0.959 . S
H694 C708 0.961 . S
H695 C709 0.960 . S
H696 C709 0.961 . S
H697 C709 0.959 . S
H698 C712 0.929 . S
H699 C713 0.931 . S
H700 C715 0.930 . S
C701 H689 0.930 . S
C701 C702 1.399 . S
C701 C706 1.399 . S
C702 C701 1.399 . S
C702 C703 1.376 . S
C703 H690 0.930 . S
C703 C702 1.376 . S
C703 C704 1.388 . S
C704 H691 0.930 . S
C704 C703 1.388 . S
C704 C705 1.390 . S
C705 C704 1.390 . S
C705 C706 1.394 . S
C705 C711 1.465 . S
C706 C701 1.399 . S
C706 C705 1.394 . S
C706 C707 1.516 . S
C707 C706 1.516 . S
C707 C708 1.502 . S
C707 C709 1.561 . S
C707 C710 1.526 . S
C708 H692 0.959 . S
C708 H693 0.959 . S
C708 H694 0.961 . S
C708 C707 1.502 . S
C709 H695 0.960 . S
C709 H696 0.961 . S
C709 H697 0.959 . S
C709 C707 1.561 . S
C710 C707 1.526 . S
C710 C711 1.396 . S
C710 C715 1.390 . S
C711 C705 1.465 . S
C711 C710 1.396 . S
C711 C712 1.399 . S
C712 H698 0.929 . S
C712 C711 1.399 . S
C712 C713 1.385 . S
C713 H699 0.931 . S
C713 C712 1.385 . S
C713 C714 1.389 . S
C714 C713 1.389 . S
C714 C715 1.387 . S
C715 H700 0.930 . S
C715 C710 1.390 . S
C715 C714 1.387 . S
H716 C728 0.930 . S
H717 C730 0.930 . S
H718 C731 0.930 . S
H719 C735 0.959 . S
H720 C735 0.959 . S
H721 C735 0.961 . S
H722 C736 0.960 . S
H723 C736 0.961 . S
H724 C736 0.959 . S
H725 C739 0.929 . S
H726 C740 0.931 . S
H727 C742 0.930 . S
C728 H716 0.930 . S
C728 C729 1.399 . S
C728 C733 1.399 . S
C729 C728 1.399 . S
C729 C730 1.376 . S
C730 H717 0.930 . S
C730 C729 1.376 . S
C730 C731 1.388 . S
C731 H718 0.930 . S
C731 C730 1.388 . S
C731 C732 1.390 . S
C732 C731 1.390 . S
C732 C733 1.394 . S
C732 C738 1.465 . S
C733 C728 1.399 . S
C733 C732 1.394 . S
C733 C734 1.516 . S
C734 C733 1.516 . S
C734 C735 1.502 . S
C734 C736 1.561 . S
C734 C737 1.526 . S
C735 H719 0.959 . S
C735 H720 0.959 . S
C735 H721 0.961 . S
C735 C734 1.502 . S
C736 H722 0.960 . S
C736 H723 0.961 . S
C736 H724 0.959 . S
C736 C734 1.561 . S
C737 C734 1.526 . S
C737 C738 1.396 . S
C737 C742 1.390 . S
C738 C732 1.465 . S
C738 C737 1.396 . S
C738 C739 1.399 . S
C739 H725 0.929 . S
C739 C738 1.399 . S
C739 C740 1.385 . S
C740 H726 0.931 . S
C740 C739 1.385 . S
C740 C741 1.389 . S
C741 C740 1.389 . S
C741 C742 1.387 . S
C742 H727 0.930 . S
C742 C737 1.390 . S
C742 C741 1.387 . S
H743 C755 0.930 . S
H744 C757 0.930 . S
H745 C758 0.930 . S
H746 C762 0.959 . S
H747 C762 0.959 . S
H748 C762 0.961 . S
H749 C763 0.960 . S
H750 C763 0.961 . S
H751 C763 0.959 . S
H752 C766 0.929 . S
H753 C767 0.931 . S
H754 C769 0.930 . S
C755 H743 0.930 . S
C755 C756 1.399 . S
C755 C760 1.399 . S
C756 C755 1.399 . S
C756 C757 1.376 . S
C757 H744 0.930 . S
C757 C756 1.376 . S
C757 C758 1.388 . S
C758 H745 0.930 . S
C758 C757 1.388 . S
C758 C759 1.390 . S
C759 C758 1.390 . S
C759 C760 1.394 . S
C759 C765 1.465 . S
C760 C755 1.399 . S
C760 C759 1.394 . S
C760 C761 1.516 . S
C761 C760 1.516 . S
C761 C762 1.502 . S
C761 C763 1.561 . S
C761 C764 1.526 . S
C762 H746 0.959 . S
C762 H747 0.959 . S
C762 H748 0.961 . S
C762 C761 1.502 . S
C763 H749 0.960 . S
C763 H750 0.961 . S
C763 H751 0.959 . S
C763 C761 1.561 . S
C764 C761 1.526 . S
C764 C765 1.396 . S
C764 C769 1.390 . S
C765 C759 1.465 . S
C765 C764 1.396 . S
C765 C766 1.399 . S
C766 H752 0.929 . S
C766 C765 1.399 . S
C766 C767 1.385 . S
C767 H753 0.931 . S
C767 C766 1.385 . S
C767 C768 1.389 . S
C768 C767 1.389 . S
C768 C769 1.387 . S
C769 H754 0.930 . S
C769 C764 1.390 . S
C769 C768 1.387 . S
H770 C782 0.930 . S
H771 C784 0.930 . S
H772 C785 0.930 . S
H773 C789 0.959 . S
H774 C789 0.959 . S
H775 C789 0.961 . S
H776 C790 0.960 . S
H777 C790 0.961 . S
H778 C790 0.959 . S
H779 C793 0.929 . S
H780 C794 0.931 . S
H781 C796 0.930 . S
C782 H770 0.930 . S
C782 C783 1.399 . S
C782 C787 1.399 . S
C783 C782 1.399 . S
C783 C784 1.376 . S
C784 H771 0.930 . S
C784 C783 1.376 . S
C784 C785 1.388 . S
C785 H772 0.930 . S
C785 C784 1.388 . S
C785 C786 1.390 . S
C786 C785 1.390 . S
C786 C787 1.394 . S
C786 C792 1.465 . S
C787 C782 1.399 . S
C787 C786 1.394 . S
C787 C788 1.516 . S
C788 C787 1.516 . S
C788 C789 1.502 . S
C788 C790 1.561 . S
C788 C791 1.526 . S
C789 H773 0.959 . S
C789 H774 0.959 . S
C789 H775 0.961 . S
C789 C788 1.502 . S
C790 H776 0.960 . S
C790 H777 0.961 . S
C790 H778 0.959 . S
C790 C788 1.561 . S
C791 C788 1.526 . S
C791 C792 1.396 . S
C791 C796 1.390 . S
C792 C786 1.465 . S
C792 C791 1.396 . S
C792 C793 1.399 . S
C793 H779 0.929 . S
C793 C792 1.399 . S
C793 C794 1.385 . S
C794 H780 0.931 . S
C794 C793 1.385 . S
C794 C795 1.389 . S
C795 C794 1.389 . S
C795 C796 1.387 . S
C796 H781 0.930 . S
C796 C791 1.390 . S
C796 C795 1.387 . S
H797 C809 0.930 . S
H798 C811 0.930 . S
H799 C812 0.930 . S
H800 C816 0.959 . S
H801 C816 0.959 . S
H802 C816 0.961 . S
H803 C817 0.960 . S
H804 C817 0.961 . S
H805 C817 0.959 . S
H806 C820 0.929 . S
H807 C821 0.931 . S
H808 C823 0.930 . S
C809 H797 0.930 . S
C809 C810 1.399 . S
C809 C814 1.399 . S
C810 C809 1.399 . S
C810 C811 1.376 . S
C811 H798 0.930 . S
C811 C810 1.376 . S
C811 C812 1.388 . S
C812 H799 0.930 . S
C812 C811 1.388 . S
C812 C813 1.390 . S
C813 C812 1.390 . S
C813 C814 1.394 . S
C813 C819 1.465 . S
C814 C809 1.399 . S
C814 C813 1.394 . S
C814 C815 1.516 . S
C815 C814 1.516 . S
C815 C816 1.502 . S
C815 C817 1.561 . S
C815 C818 1.526 . S
C816 H800 0.959 . S
C816 H801 0.959 . S
C816 H802 0.961 . S
C816 C815 1.502 . S
C817 H803 0.960 . S
C817 H804 0.961 . S
C817 H805 0.959 . S
C817 C815 1.561 . S
C818 C815 1.526 . S
C818 C819 1.396 . S
C818 C823 1.390 . S
C819 C813 1.465 . S
C819 C818 1.396 . S
C819 C820 1.399 . S
C820 H806 0.929 . S
C820 C819 1.399 . S
C820 C821 1.385 . S
C821 H807 0.931 . S
C821 C820 1.385 . S
C821 C822 1.389 . S
C822 C821 1.389 . S
C822 C823 1.387 . S
C823 H808 0.930 . S
C823 C818 1.390 . S
C823 C822 1.387 . S
C189 C45 1.554 . S
C201 C111 1.540 . S
C216 C30 1.520 . S
C228 C120 1.557 . S
C243 C39 1.558 . S
C255 C129 1.534 . S
C282 C138 1.551 . S
C270 C34 1.531 . S
C297 C97 1.557 . S
C309 C147 1.538 . S
C336 C156 1.556 . S
C324 C82 1.523 . S
C363 C165 1.534 . S
C351 C91 1.557 . S
C390 C174 1.562 . S
C378 C86 1.516 . S
C417 C163 1.458 . S
C405 C26 1.414 . S
C444 C171 1.447 . S
C432 C36 1.457 . S
C471 C144 1.454 . S
C459 C32 1.452 . S
C498 C153 1.450 . S
C486 C42 1.454 . S
C513 C18 1.490 . S
C525 C154 1.539 . S
C552 C162 1.552 . S
C540 C50 1.437 . S
C567 C4 1.442 . S
C579 C172 1.556 . S
C594 C48 1.441 . S
C606 C145 1.555 . S
C633 C127 1.445 . S
C621 C78 1.442 . S
C648 C88 1.456 . S
C660 C135 1.448 . S
C687 C108 1.446 . S
C675 C84 1.451 . S
C714 C117 1.443 . S
C702 C94 1.460 . S
C741 C118 1.539 . S
C729 C70 1.470 . S
C768 C126 1.510 . S
C756 C102 1.521 . S
C783 C56 1.471 . S
C795 C136 1.538 . S
C810 C100 1.522 . S
C822 C109 1.518 . S
