# Generated by pormake.
# Topology pyr, (3,6)-cn, num edge types: 1
# Building blocks:
#     Node 0, Type 0, BuildingBlock: BELTOD_clean_linker_0, # of connection points: 3
#     Node 1, Type 0, BuildingBlock: BELTOD_clean_linker_0, # of connection points: 3
#     Node 2, Type 0, BuildingBlock: BELTOD_clean_linker_0, # of connection points: 3
#     Node 3, Type 0, BuildingBlock: BELTOD_clean_linker_0, # of connection points: 3
#     Node 4, Type 0, BuildingBlock: BELTOD_clean_linker_0, # of connection points: 3
#     Node 5, Type 0, BuildingBlock: BELTOD_clean_linker_0, # of connection points: 3
#     Node 6, Type 0, BuildingBlock: BELTOD_clean_linker_0, # of connection points: 3
#     Node 7, Type 0, BuildingBlock: BELTOD_clean_linker_0, # of connection points: 3
#     Node 8, Type 1, BuildingBlock: VOLQOD_clean_sbu_1, # of connection points: 6
#     Node 9, Type 1, BuildingBlock: VOLQOD_clean_sbu_1, # of connection points: 6
#     Node 10, Type 1, BuildingBlock: VOLQOD_clean_sbu_1, # of connection points: 6
#     Node 11, Type 1, BuildingBlock: VOLQOD_clean_sbu_1, # of connection points: 6
#     Edge 12, Type (0, 1), BuildingBlock: MIFKUJ_clean_linker_0, # of connection points: 2
#     Edge 13, Type (0, 1), BuildingBlock: MIFKUJ_clean_linker_0, # of connection points: 2
#     Edge 14, Type (0, 1), BuildingBlock: MIFKUJ_clean_linker_0, # of connection points: 2
#     Edge 15, Type (0, 1), BuildingBlock: MIFKUJ_clean_linker_0, # of connection points: 2
#     Edge 16, Type (0, 1), BuildingBlock: MIFKUJ_clean_linker_0, # of connection points: 2
#     Edge 17, Type (0, 1), BuildingBlock: MIFKUJ_clean_linker_0, # of connection points: 2
#     Edge 18, Type (0, 1), BuildingBlock: MIFKUJ_clean_linker_0, # of connection points: 2
#     Edge 19, Type (0, 1), BuildingBlock: MIFKUJ_clean_linker_0, # of connection points: 2
#     Edge 20, Type (0, 1), BuildingBlock: MIFKUJ_clean_linker_0, # of connection points: 2
#     Edge 21, Type (0, 1), BuildingBlock: MIFKUJ_clean_linker_0, # of connection points: 2
#     Edge 22, Type (0, 1), BuildingBlock: MIFKUJ_clean_linker_0, # of connection points: 2
#     Edge 23, Type (0, 1), BuildingBlock: MIFKUJ_clean_linker_0, # of connection points: 2
#     Edge 24, Type (0, 1), BuildingBlock: MIFKUJ_clean_linker_0, # of connection points: 2
#     Edge 25, Type (0, 1), BuildingBlock: MIFKUJ_clean_linker_0, # of connection points: 2
#     Edge 26, Type (0, 1), BuildingBlock: MIFKUJ_clean_linker_0, # of connection points: 2
#     Edge 27, Type (0, 1), BuildingBlock: MIFKUJ_clean_linker_0, # of connection points: 2
#     Edge 28, Type (0, 1), BuildingBlock: MIFKUJ_clean_linker_0, # of connection points: 2
#     Edge 29, Type (0, 1), BuildingBlock: MIFKUJ_clean_linker_0, # of connection points: 2
#     Edge 30, Type (0, 1), BuildingBlock: MIFKUJ_clean_linker_0, # of connection points: 2
#     Edge 31, Type (0, 1), BuildingBlock: MIFKUJ_clean_linker_0, # of connection points: 2
#     Edge 32, Type (0, 1), BuildingBlock: MIFKUJ_clean_linker_0, # of connection points: 2
#     Edge 33, Type (0, 1), BuildingBlock: MIFKUJ_clean_linker_0, # of connection points: 2
#     Edge 34, Type (0, 1), BuildingBlock: MIFKUJ_clean_linker_0, # of connection points: 2
#     Edge 35, Type (0, 1), BuildingBlock: MIFKUJ_clean_linker_0, # of connection points: 2
# Relax obj value: 0.036
# Max RMSD: 0.117
# Mean RMSD: 0.050
data_MOF--net-pry--node1-VOLQOD_clean_sbu_1--node2-BELTOD_clean_linker_0--edge1-MIFKUJ_clean_linker_0
_symmetry_space_group_name_H-M    P1
_symmetry_Int_Tables_number       1
_symmetry_cell_setting            triclinic
loop_
_symmetry_equiv_pos_as_xyz
'x, y, z'
_cell_length_a     52.855103
_cell_length_b     53.239605
_cell_length_c     52.703705
_cell_angle_alpha  89.963766
_cell_angle_beta   90.160256
_cell_angle_gamma 90.173379
loop_
_atom_site_label
_atom_site_type_symbol
_atom_site_fract_x
_atom_site_fract_y
_atom_site_fract_z
_atom_type_partial_charge
P0 P 0.1685 0.18313 0.18321 0.0
H1 H 0.18958 0.19074 0.13256 0.0
H2 H 0.21531 0.16439 0.10507 0.0
H3 H 0.21187 0.10478 0.1608 0.0
H4 H 0.18487 0.13056 0.18718 0.0
H5 H 0.15081 0.23309 0.196 0.0
H6 H 0.12536 0.26392 0.17323 0.0
H7 H 0.11467 0.21091 0.11195 0.0
H8 H 0.13918 0.17974 0.13557 0.0
H9 H 0.18506 0.16181 0.23107 0.0
H10 H 0.11583 0.16529 0.18781 0.0
O11 O 0.19078 0.20035 0.19752 0.0
H12 H 0.16381 0.13726 0.26366 0.0
H13 H 0.09392 0.1415 0.221 0.0
C14 C 0.18466 0.16245 0.16164 0.0
C15 C 0.19373 0.17171 0.13847 0.0
C16 C 0.20881 0.1567 0.12293 0.0
C17 C 0.21582 0.13236 0.13064 0.0
C18 C 0.20649 0.12314 0.15385 0.0
C19 C 0.19106 0.13803 0.16915 0.0
C20 C 0.14758 0.20449 0.16706 0.0
C21 C 0.14286 0.22808 0.17772 0.0
C22 C 0.12844 0.24575 0.16457 0.0
C23 C 0.11848 0.24017 0.14042 0.0
C24 C 0.12209 0.21591 0.13044 0.0
C25 C 0.13633 0.19813 0.14381 0.0
C26 C 0.1519 0.16576 0.2073 0.0
C27 C 0.16512 0.15759 0.22881 0.0
C28 C 0.15287 0.14362 0.24751 0.0
C29 C 0.127 0.13765 0.24521 0.0
C30 C 0.11386 0.14563 0.22336 0.0
C31 C 0.12629 0.15944 0.20447 0.0
P32 P 0.4176 0.89978 0.60795 0.0
H33 H 0.46304 0.91304 0.63664 0.0
H34 H 0.47093 0.9195 0.682 0.0
H35 H 0.39308 0.90052 0.69802 0.0
H36 H 0.38537 0.8939 0.65271 0.0
H37 H 0.45731 0.87576 0.57797 0.0
H38 H 0.46547 0.83195 0.56681 0.0
H39 H 0.39997 0.80892 0.60989 0.0
H40 H 0.39202 0.85288 0.62121 0.0
H41 H 0.38735 0.94298 0.6225 0.0
H42 H 0.37771 0.87694 0.57601 0.0
O43 O 0.43697 0.9186 0.59168 0.0
H44 H 0.34338 0.95479 0.61427 0.0
H45 H 0.33377 0.88856 0.56788 0.0
C46 C 0.42347 0.90373 0.64132 0.0
C47 C 0.44769 0.9103 0.64994 0.0
C48 C 0.45221 0.9138 0.67584 0.0
C49 C 0.43254 0.91074 0.69348 0.0
C50 C 0.40846 0.90341 0.68479 0.0
C51 C 0.40405 0.89965 0.65893 0.0
C52 C 0.42382 0.86754 0.60005 0.0
C53 C 0.4447 0.86131 0.58503 0.0
C54 C 0.44943 0.83627 0.57878 0.0
C55 C 0.43327 0.81709 0.58739 0.0
C56 C 0.41254 0.82338 0.60275 0.0
C57 C 0.40803 0.84841 0.60926 0.0
C58 C 0.38557 0.90869 0.60055 0.0
C59 C 0.37576 0.931 0.61057 0.0
C60 C 0.3507 0.9378 0.60574 0.0
C61 C 0.33507 0.92242 0.59069 0.0
C62 C 0.34524 0.90049 0.57999 0.0
C63 C 0.37037 0.89382 0.58468 0.0
P64 P 0.65722 0.34615 0.86094 0.0
H65 H 0.70308 0.33677 0.88998 0.0
H66 H 0.73211 0.3643 0.91311 0.0
H67 H 0.68341 0.42752 0.89755 0.0
H68 H 0.65432 0.39981 0.87452 0.0
H69 H 0.60845 0.32313 0.84861 0.0
H70 H 0.5812 0.29406 0.87146 0.0
H71 H 0.63228 0.29695 0.93568 0.0
H72 H 0.65846 0.32733 0.91327 0.0
H73 H 0.67219 0.36014 0.80979 0.0
H74 H 0.60884 0.37337 0.8593 0.0
O75 O 0.67609 0.32556 0.84654 0.0
H76 H 0.65132 0.3838 0.77614 0.0
H77 H 0.58726 0.39637 0.82534 0.0
C78 C 0.67679 0.3663 0.88019 0.0
C79 C 0.69851 0.3565 0.89177 0.0
C80 C 0.715 0.37223 0.90512 0.0
C81 C 0.71008 0.39809 0.90702 0.0
C82 C 0.6878 0.40771 0.89614 0.0
C83 C 0.67117 0.39187 0.88299 0.0
C84 C 0.63513 0.32805 0.87946 0.0
C85 C 0.61332 0.31824 0.86795 0.0
C86 C 0.59794 0.30121 0.88094 0.0
C87 C 0.60453 0.29294 0.90544 0.0
C88 C 0.62625 0.30318 0.91707 0.0
C89 C 0.64139 0.32056 0.90418 0.0
C90 C 0.64168 0.36432 0.8367 0.0
C91 C 0.65362 0.36792 0.81331 0.0
C92 C 0.6416 0.38138 0.79405 0.0
C93 C 0.61738 0.39157 0.79785 0.0
C94 C 0.60589 0.38877 0.82175 0.0
C95 C 0.61807 0.37541 0.84109 0.0
P96 P 0.85463 0.64881 0.3756 0.0
H97 H 0.89385 0.681 0.35543 0.0
H98 H 0.92313 0.71075 0.37498 0.0
H99 H 0.89469 0.69042 0.44906 0.0
H100 H 0.86602 0.65998 0.42936 0.0
H101 H 0.83533 0.6302 0.32742 0.0
H102 H 0.85511 0.60765 0.29239 0.0
H103 H 0.9254 0.60502 0.33447 0.0
H104 H 0.90516 0.62685 0.36977 0.0
H105 H 0.81384 0.65833 0.41092 0.0
H106 H 0.85872 0.59489 0.38768 0.0
O107 O 0.83359 0.6681 0.36229 0.0
H108 H 0.78664 0.63053 0.43562 0.0
H109 H 0.83161 0.56688 0.41253 0.0
C110 C 0.87795 0.66817 0.39093 0.0
C111 C 0.89427 0.68259 0.37592 0.0
C112 C 0.91085 0.69972 0.38711 0.0
C113 C 0.91109 0.70306 0.41356 0.0
C114 C 0.89515 0.68806 0.42865 0.0
C115 C 0.87863 0.67076 0.41739 0.0
C116 C 0.86903 0.63083 0.35076 0.0
C117 C 0.85498 0.62471 0.32909 0.0
C118 C 0.86634 0.61192 0.30907 0.0
C119 C 0.89197 0.60496 0.31046 0.0
C120 C 0.90565 0.6101 0.3328 0.0
C121 C 0.89418 0.6228 0.35288 0.0
C122 C 0.83788 0.62859 0.39709 0.0
C123 C 0.81807 0.63844 0.41151 0.0
C124 C 0.80268 0.62254 0.4258 0.0
C125 C 0.80688 0.59646 0.42586 0.0
C126 C 0.82775 0.58685 0.41256 0.0
C127 C 0.84324 0.60285 0.39837 0.0
P128 P 0.91811 0.93742 0.94795 0.0
H129 H 0.89367 0.96555 0.98885 0.0
H130 H 0.84955 0.97509 0.99809 0.0
H131 H 0.82655 0.93243 0.932 0.0
H132 H 0.87075 0.9247 0.92201 0.0
H133 H 0.96344 0.9141 0.96932 0.0
H134 H 0.97485 0.8704 0.97775 0.0
H135 H 0.89997 0.84689 0.95443 0.0
H136 H 0.88909 0.89023 0.94532 0.0
H137 H 0.89797 0.97214 0.90982 0.0
H138 H 0.9536 0.91309 0.91308 0.0
O139 O 0.9367 0.95709 0.96418 0.0
H140 H 0.90659 0.97793 0.86472 0.0
H141 H 0.96304 0.91941 0.86834 0.0
C142 C 0.88548 0.94449 0.95471 0.0
C143 C 0.8791 0.95848 0.97624 0.0
C144 C 0.85376 0.96369 0.98164 0.0
C145 C 0.83425 0.95454 0.96585 0.0
C146 C 0.84089 0.9403 0.94437 0.0
C147 C 0.86623 0.93556 0.93876 0.0
C148 C 0.92526 0.90558 0.95708 0.0
C149 C 0.94938 0.89956 0.96637 0.0
C150 C 0.95587 0.87455 0.97121 0.0
C151 C 0.93834 0.8551 0.96671 0.0
C152 C 0.91407 0.86133 0.95776 0.0
C153 C 0.90769 0.88627 0.9528 0.0
C154 C 0.92455 0.94165 0.91467 0.0
C155 C 0.91195 0.96032 0.90082 0.0
C156 C 0.91713 0.96381 0.87506 0.0
C157 C 0.93539 0.949 0.86278 0.0
C158 C 0.94843 0.93074 0.87698 0.0
C159 C 0.9431 0.92716 0.90268 0.0
P160 P 0.63722 0.12268 0.38755 0.0
H161 H 0.65961 0.1621 0.418 0.0
H162 H 0.64149 0.19601 0.44319 0.0
H163 H 0.56671 0.16521 0.43071 0.0
H164 H 0.58516 0.13072 0.4065 0.0
H165 H 0.68265 0.09717 0.37103 0.0
H166 H 0.71386 0.07179 0.39321 0.0
H167 H 0.66791 0.07393 0.46096 0.0
H168 H 0.63695 0.10011 0.43858 0.0
H169 H 0.59651 0.14247 0.35675 0.0
H170 H 0.62713 0.06955 0.37466 0.0
O171 O 0.65499 0.13974 0.36784 0.0
H172 H 0.56822 0.12341 0.32557 0.0
H173 H 0.59949 0.0504 0.34276 0.0
C174 C 0.62367 0.14439 0.40978 0.0
C175 C 0.63936 0.16244 0.42107 0.0
C176 C 0.62895 0.18188 0.43532 0.0
C177 C 0.60259 0.18367 0.43842 0.0
C178 C 0.58707 0.16443 0.42864 0.0
C179 C 0.59759 0.14483 0.41453 0.0
C180 C 0.65788 0.10098 0.40337 0.0
C181 C 0.67919 0.09201 0.3906 0.0
C182 C 0.69691 0.07724 0.40328 0.0
C183 C 0.69351 0.07091 0.42898 0.0
C184 C 0.67131 0.07882 0.44132 0.0
C185 C 0.65358 0.09371 0.42855 0.0
C186 C 0.61375 0.10744 0.36815 0.0
C187 C 0.59683 0.12228 0.35426 0.0
C188 C 0.58084 0.11138 0.33628 0.0
C189 C 0.58181 0.08542 0.33148 0.0
C190 C 0.59811 0.07041 0.34617 0.0
C191 C 0.61403 0.08137 0.36435 0.0
P192 P 0.42603 0.57879 0.08418 0.0
H193 H 0.39925 0.56002 0.03931 0.0
H194 H 0.35434 0.55664 0.02866 0.0
H195 H 0.33522 0.58726 0.10212 0.0
H196 H 0.38015 0.59138 0.11214 0.0
H197 H 0.4521 0.6053 0.04309 0.0
H198 H 0.46116 0.64978 0.03568 0.0
H199 H 0.42582 0.66826 0.10712 0.0
H200 H 0.41652 0.6238 0.11415 0.0
H201 H 0.40165 0.54297 0.11882 0.0
H202 H 0.46595 0.59305 0.11995 0.0
O203 O 0.44318 0.56074 0.06494 0.0
H204 H 0.41004 0.53137 0.16293 0.0
H205 H 0.47453 0.58138 0.16407 0.0
C206 C 0.39296 0.5754 0.07674 0.0
C207 C 0.38536 0.56586 0.05315 0.0
C208 C 0.35965 0.56386 0.04713 0.0
C209 C 0.3411 0.5715 0.0646 0.0
C210 C 0.34893 0.58142 0.0881 0.0
C211 C 0.37463 0.58356 0.09399 0.0
C212 C 0.43402 0.61128 0.07935 0.0
C213 C 0.44652 0.61892 0.05724 0.0
C214 C 0.45173 0.64434 0.05306 0.0
C215 C 0.44427 0.66256 0.07084 0.0
C216 C 0.4316 0.65475 0.09293 0.0
C217 C 0.42644 0.62933 0.09708 0.0
C218 C 0.43263 0.56958 0.11642 0.0
C219 C 0.41742 0.55167 0.12861 0.0
C220 C 0.42225 0.54501 0.15381 0.0
C221 C 0.44275 0.5557 0.16702 0.0
C222 C 0.45859 0.57284 0.15436 0.0
C223 C 0.45359 0.57966 0.12924 0.0
P224 P 0.12492 0.37564 0.64553 0.0
H225 H 0.13965 0.32775 0.62433 0.0
H226 H 0.1167 0.29576 0.60056 0.0
H227 H 0.05102 0.34393 0.59786 0.0
H228 H 0.07415 0.37581 0.62221 0.0
H229 H 0.15506 0.41824 0.66139 0.0
H230 H 0.1877 0.44304 0.64012 0.0
H231 H 0.17353 0.40239 0.57056 0.0
H232 H 0.14062 0.37789 0.59185 0.0
H233 H 0.1031 0.36657 0.69521 0.0
H234 H 0.09853 0.42338 0.63707 0.0
O235 O 0.14327 0.35914 0.6652 0.0
H236 H 0.07719 0.39216 0.72309 0.0
H237 H 0.07182 0.44905 0.6647 0.0
C238 C 0.10839 0.35381 0.6255 0.0
C239 C 0.12037 0.3315 0.61847 0.0
C240 C 0.10727 0.31333 0.60463 0.0
C241 C 0.08196 0.31726 0.59738 0.0
C242 C 0.07037 0.34023 0.60347 0.0
C243 C 0.08357 0.35846 0.61735 0.0
C244 C 0.14543 0.39632 0.62819 0.0
C245 C 0.15861 0.41505 0.64141 0.0
C246 C 0.17732 0.4291 0.6293 0.0
C247 C 0.18324 0.42452 0.60375 0.0
C248 C 0.16917 0.40649 0.5902 0.0
C249 C 0.15045 0.39238 0.6024 0.0
C250 C 0.10322 0.39344 0.66443 0.0
C251 C 0.09622 0.38448 0.68835 0.0
C252 C 0.08113 0.39905 0.70417 0.0
C253 C 0.0725 0.42277 0.69619 0.0
C254 C 0.07849 0.43107 0.67156 0.0
C255 C 0.0937 0.41644 0.65576 0.0
O256 O 0.9938 0.05605 0.55243 0.0
Zn257 Zn 0.98377 0.01953 0.55118 0.0
O258 O 0.00758 -8e-05 0.53108 0.0
Zn259 Zn 0.99135 0.98914 0.49944 0.0
Zn260 Zn 0.03682 0.02072 0.52312 0.0
Zn261 Zn 0.01855 0.97071 0.55074 0.0
O262 O 0.99299 0.95158 0.4964 0.0
O263 O 0.00907 0.93851 0.53308 0.0
O264 O 0.94882 0.0176 0.53618 0.0
O265 O 0.95429 0.99823 0.49931 0.0
O266 O 0.00819 0.00433 0.46838 0.0
O267 O 0.04108 0.02399 0.48557 0.0
O268 O 0.06904 0.0064 0.5374 0.0
O269 O 0.98191 0.00662 0.58702 0.0
O270 O 0.05647 0.97056 0.55489 0.0
O271 O 0.00346 0.97088 0.58592 0.0
C272 C 0.01392 0.06754 0.54591 0.0
C273 C -0.00024 0.93392 0.51124 0.0
C274 C 0.02832 0.01738 0.46617 0.0
C275 C 0.94001 0.00899 0.51541 0.0
C276 C 0.07395 0.98603 0.54906 0.0
C277 C 0.99 0.9868 0.59783 0.0
O278 O 0.0322 0.05595 0.53556 0.0
O279 O 0.49446 0.04866 0.99094 0.0
Zn280 Zn 0.47879 0.01449 0.99603 0.0
O281 O 0.49896 0.99412 0.01925 0.0
Zn282 Zn 0.51518 0.96719 0.00032 0.0
Zn283 Zn 0.52481 0.01525 0.03496 0.0
Zn284 Zn 0.47707 0.97968 0.04543 0.0
O285 O 0.50644 0.93341 0.01523 0.0
O286 O 0.47656 0.94185 0.04352 0.0
O287 O 0.4754 0.99783 0.96184 0.0
O288 O 0.50282 0.96641 0.96421 0.0
O289 O 0.55309 0.97113 0.00021 0.0
O290 O 0.55988 0.00232 0.02741 0.0
O291 O 0.52037 0.01648 0.07267 0.0
O292 O 0.44393 0.01997 0.01019 0.0
O293 O 0.48916 0.98958 0.08052 0.0
O294 O 0.44146 0.99299 0.04228 0.0
C295 C 0.51126 0.06079 0.00329 0.0
C296 C 0.49006 0.92616 0.03136 0.0
C297 C 0.56812 0.98537 0.01254 0.0
C298 C 0.48663 0.97919 0.95181 0.0
C299 C 0.506 0.00499 0.08819 0.0
C300 C 0.43151 0.00963 0.02806 0.0
O301 O 0.52345 0.05067 0.02147 0.0
O302 O 0.51935 0.50444 0.55778 0.0
Zn303 Zn 0.51735 0.5169 0.5218 0.0
O304 O 0.49595 0.495 0.50094 0.0
Zn305 Zn 0.51616 0.48062 0.47365 0.0
Zn306 Zn 0.48213 0.46799 0.52208 0.0
Zn307 Zn 0.46828 0.51454 0.48617 0.0
O308 O 0.50305 0.49085 0.4392 0.0
O309 O 0.46951 0.51428 0.44795 0.0
O310 O 0.55308 0.51805 0.50877 0.0
O311 O 0.55231 0.492 0.47594 0.0
O312 O 0.51651 0.44297 0.47587 0.0
O313 O 0.49223 0.43383 0.50894 0.0
O314 O 0.44417 0.46986 0.52341 0.0
O315 O 0.50379 0.55212 0.52263 0.0
O316 O 0.43451 0.50087 0.49689 0.0
O317 O 0.46959 0.55052 0.49811 0.0
C318 C 0.50978 0.48571 0.56935 0.0
C319 C 0.4844 0.50419 0.43199 0.0
C320 C 0.50631 0.42696 0.49064 0.0
C321 C 0.56424 0.50686 0.49065 0.0
C322 C 0.42789 0.48354 0.51216 0.0
C323 C 0.48468 0.56267 0.51249 0.0
O324 O 0.49524 0.47028 0.55795 0.0
O325 O 0.98327 0.5137 0.06103 0.0
Zn326 Zn 0.98539 0.5019 0.02506 0.0
O327 O 0.00691 0.52426 0.00516 0.0
Zn328 Zn 0.9865 0.53971 0.97841 0.0
Zn329 Zn 0.02101 0.55069 0.02691 0.0
Zn330 Zn 0.03441 0.5046 0.99032 0.0
O331 O 0.00028 0.53104 0.94409 0.0
O332 O 0.03203 0.50494 0.95214 0.0
O333 O 0.95008 0.49974 0.01083 0.0
O334 O 0.95056 0.52699 0.97899 0.0
O335 O 0.98577 0.57739 0.98164 0.0
O336 O 0.00997 0.58505 0.01524 0.0
O337 O 0.05916 0.55013 0.0266 0.0
O338 O 0.99954 0.46703 0.02654 0.0
O339 O 0.06834 0.51891 0.00031 0.0
O340 O 0.03395 0.46855 0.00263 0.0
C341 C 0.99393 0.53122 0.07355 0.0
C342 C 0.01791 0.51667 0.9365 0.0
C343 C 0.99599 0.59274 0.99713 0.0
C344 C 0.93893 0.51097 0.99265 0.0
C345 C 0.07529 0.53666 0.01498 0.0
C346 C 0.01886 0.45647 0.017 0.0
O347 O 0.00912 0.5466 0.063 0.0
H348 H 0.09052 0.10084 0.24039 0.0
H349 H 0.07079 0.07621 0.27437 0.0
H350 H 0.11496 0.11654 0.32996 0.0
H351 H 0.13401 0.14179 0.29647 0.0
H352 H 0.11701 0.06348 0.33477 0.0
H353 H 0.05539 0.13039 0.3236 0.0
H354 H 0.02491 0.15537 0.29873 0.0
H355 H 0.982 0.0887 0.28224 0.0
H356 H 0.01245 0.06327 0.30676 0.0
H357 H 0.06818 0.04817 0.45558 0.0
H358 H 0.08217 0.06329 0.41448 0.0
H359 H 0.02261 0.02118 0.37776 0.0
H360 H 0.00796 0.00619 0.41928 0.0
H361 H 0.02622 0.06759 0.35805 0.0
H362 H 0.08367 0.00127 0.37357 0.0
H363 H 0.11375 0.97529 0.39784 0.0
H364 H 0.16439 0.03817 0.40446 0.0
H365 H 0.13445 0.06465 0.38055 0.0
C366 C 0.09575 0.10476 0.25987 0.0
C367 C 0.11405 0.1232 0.26563 0.0
C368 C 0.08456 0.09055 0.27923 0.0
C369 C 0.09156 0.09449 0.30462 0.0
C370 C 0.10951 0.11305 0.31044 0.0
C371 C 0.12048 0.12738 0.29122 0.0
C372 C 0.0807 0.07915 0.32537 0.0
C373 C 0.09718 0.06441 0.33995 0.0
C374 C 0.05465 0.07959 0.3314 0.0
C375 C 0.03636 0.09489 0.31672 0.0
C376 C 0.03959 0.12102 0.31447 0.0
C377 C 0.02229 0.13527 0.30048 0.0
C378 C 0.00158 0.12362 0.28884 0.0
C379 C 0.99808 0.0977 0.29122 0.0
C380 C 0.01534 0.08336 0.30517 0.0
C381 C 0.05804 0.04192 0.43884 0.0
C382 C 0.03698 0.02581 0.44079 0.0
C383 C 0.06618 0.05053 0.41527 0.0
C384 C 0.05374 0.04302 0.39297 0.0
C385 C 0.03258 0.02709 0.39473 0.0
C386 C 0.02429 0.0185 0.41845 0.0
C387 C 0.06274 0.05259 0.36809 0.0
C388 C 0.04595 0.06619 0.35265 0.0
C389 C 0.08852 0.05087 0.36105 0.0
C390 C 0.10672 0.03499 0.37535 0.0
C391 C 0.10114 0.00961 0.38034 0.0
C392 C 0.11818 0.99478 0.39402 0.0
C393 C 0.14095 0.00508 0.40272 0.0
C394 C 0.14674 0.03022 0.39771 0.0
C395 C 0.12976 0.04514 0.38405 0.0
H396 H 0.15411 0.99357 0.41331 0.0
H397 H 0.9882 0.13468 0.27803 0.0
H398 H 0.4031 0.93846 0.72523 0.0
H399 H 0.41129 0.94884 0.76976 0.0
H400 H 0.48004 0.90547 0.76778 0.0
H401 H 0.47192 0.89495 0.72317 0.0
H402 H 0.44987 0.89769 0.81217 0.0
H403 H 0.48549 0.96544 0.76282 0.0
H404 H 0.48444 0.99899 0.73056 0.0
H405 H 0.42533 0.03628 0.77149 0.0
H406 H 0.42577 0.00272 0.80382 0.0
H407 H 0.51029 0.94405 0.92247 0.0
H408 H 0.49981 0.9316 0.87917 0.0
H409 H 0.43831 0.98471 0.87811 0.0
H410 H 0.44904 0.99774 0.92128 0.0
H411 H 0.46358 0.98708 0.83527 0.0
H412 H 0.42779 0.92111 0.88513 0.0
H413 H 0.42723 0.88772 0.91758 0.0
H414 H 0.48389 0.84706 0.87645 0.0
H415 H 0.48507 0.8804 0.84393 0.0
C416 C 0.4198 0.9309 0.73438 0.0
C417 C 0.43693 0.91596 0.72076 0.0
C418 C 0.42451 0.93694 0.75974 0.0
C419 C 0.44634 0.92803 0.77194 0.0
C420 C 0.46311 0.91252 0.75864 0.0
C421 C 0.45854 0.90668 0.73317 0.0
C422 C 0.45209 0.93567 0.79833 0.0
C423 C 0.45318 0.91717 0.81725 0.0
C424 C 0.45567 0.96117 0.80493 0.0
C425 C 0.45548 0.98144 0.78559 0.0
C426 C 0.47212 0.98068 0.76482 0.0
C427 C 0.47166 -0.00029 0.74655 0.0
C428 C 0.45478 0.01972 0.74893 0.0
C429 C 0.43837 0.02075 0.76965 0.0
C430 C 0.43873 0.00174 0.78796 0.0
C431 C 0.49452 0.95311 0.91307 0.0
C432 C 0.48046 0.97186 0.9254 0.0
C433 C 0.48846 0.94586 0.88833 0.0
C434 C 0.46802 0.95693 0.87553 0.0
C435 C 0.45413 0.97585 0.88765 0.0
C436 C 0.46028 0.98326 0.91235 0.0
C437 C 0.46144 0.9491 0.84931 0.0
C438 C 0.4602 0.96757 0.83033 0.0
C439 C 0.45745 0.92358 0.84275 0.0
C440 C 0.45669 0.90339 0.8622 0.0
C441 C 0.44028 0.90515 0.8831 0.0
C442 C 0.43982 0.88621 0.90149 0.0
C443 C 0.45556 0.86532 0.89911 0.0
C444 C 0.47174 0.86328 0.87828 0.0
C445 C 0.47229 0.88218 0.85985 0.0
H446 H 0.45519 0.85068 0.91336 0.0
H447 H 0.45446 0.03444 0.73477 0.0
H448 H 0.61624 0.37806 0.7479 0.0
H449 H 0.59583 0.39987 0.71274 0.0
H450 H 0.56716 0.45563 0.76442 0.0
H451 H 0.5881 0.43417 0.79988 0.0
H452 H 0.53104 0.43926 0.72898 0.0
H453 H 0.61517 0.4717 0.72976 0.0
H454 H 0.66174 0.46951 0.73131 0.0
H455 H 0.66218 0.42813 0.66142 0.0
H456 H 0.61557 0.42974 0.65964 0.0
H457 H 0.53978 0.51476 0.60006 0.0
H458 H 0.55468 0.50495 0.64282 0.0
H459 H 0.51155 0.43604 0.64186 0.0
H460 H 0.49622 0.44584 0.59929 0.0
H461 H 0.58339 0.46697 0.65605 0.0
H462 H 0.49528 0.41915 0.70156 0.0
H463 H 0.44885 0.42358 0.70102 0.0
H464 H 0.45633 0.50126 0.68031 0.0
H465 H 0.5028 0.49741 0.68108 0.0
C466 C 0.60585 0.39511 0.75184 0.0
C467 C 0.60409 0.40454 0.7767 0.0
C468 C 0.59407 0.40747 0.73172 0.0
C469 C 0.58025 0.42949 0.73597 0.0
C470 C 0.57779 0.43865 0.76079 0.0
C471 C 0.58971 0.42633 0.781 0.0
C472 C 0.56881 0.44296 0.71423 0.0
C473 C 0.54242 0.44549 0.71306 0.0
C474 C 0.58379 0.45158 0.69379 0.0
C475 C 0.61185 0.4507 0.69466 0.0
C476 C 0.62518 0.46198 0.71481 0.0
C477 C 0.65159 0.46086 0.71572 0.0
C478 C 0.66491 0.44865 0.6965 0.0
C479 C 0.65184 0.43758 0.6763 0.0
C480 C 0.62543 0.43861 0.67531 0.0
C481 C 0.53316 0.49767 0.60905 0.0
C482 C 0.5169 0.48101 0.59615 0.0
C483 C 0.54173 0.4921 0.6335 0.0
C484 C 0.53415 0.46984 0.6456 0.0
C485 C 0.51734 0.45353 0.63308 0.0
C486 C 0.5087 0.45911 0.60865 0.0
C487 C 0.54545 0.46258 0.67032 0.0
C488 C 0.57191 0.46112 0.67205 0.0
C489 C 0.53051 0.45533 0.69137 0.0
C490 C 0.50255 0.45792 0.69119 0.0
C491 C 0.48703 0.43722 0.69702 0.0
C492 C 0.46069 0.43962 0.69665 0.0
C493 C 0.44965 0.46267 0.69057 0.0
C494 C 0.46491 0.48339 0.68493 0.0
C495 C 0.49125 0.48109 0.68529 0.0
H496 H 0.42926 0.46448 0.69027 0.0
H497 H 0.68535 0.44781 0.69723 0.0
H498 H 0.88647 0.61794 0.26076 0.0
H499 H 0.90677 0.59913 0.22396 0.0
H500 H 0.94694 0.54776 0.27277 0.0
H501 H 0.9263 0.5663 0.30993 0.0
H502 H 0.97762 0.56874 0.23574 0.0
H503 H 0.89897 0.5254 0.24043 0.0
H504 H 0.85274 0.52103 0.24483 0.0
H505 H 0.84171 0.56335 0.17633 0.0
H506 H 0.88788 0.56831 0.17171 0.0
H507 H 0.96923 0.49783 0.10411 0.0
H508 H 0.95637 0.5038 0.14811 0.0
H509 H 0.99118 0.57723 0.1483 0.0
H510 H 0.0047 0.57115 0.10449 0.0
H511 H 0.92461 0.53651 0.16498 0.0
H512 H 0.0086 0.59412 0.2074 0.0
H513 H 0.05509 0.59593 0.2039 0.0
H514 H 0.05649 0.51882 0.18013 0.0
H515 H 0.01005 0.51643 0.18384 0.0
C516 C 0.89935 0.60242 0.26371 0.0
C517 C 0.90454 0.59341 0.28825 0.0
C518 C 0.91103 0.59178 0.24266 0.0
C519 C 0.9281 0.57189 0.24568 0.0
C520 C 0.93377 0.5631 0.27012 0.0
C521 C 0.92201 0.57373 0.29127 0.0
C522 C 0.93977 0.56041 0.22304 0.0
C523 C 0.96614 0.56149 0.22029 0.0
C524 C 0.92472 0.55041 0.20324 0.0
C525 C 0.89691 0.54735 0.20582 0.0
C526 C 0.88669 0.53392 0.22639 0.0
C527 C 0.86049 0.53132 0.22891 0.0
C528 C 0.8443 0.54194 0.21089 0.0
C529 C 0.85428 0.55514 0.19028 0.0
C530 C 0.88046 0.55782 0.18768 0.0
C531 C 0.97443 0.51514 0.1136 0.0
C532 C 0.98785 0.5341 0.10075 0.0
C533 C 0.96708 0.5185 0.13876 0.0
C534 C 0.97293 0.54087 0.15156 0.0
C535 C 0.98686 0.5596 0.13898 0.0
C536 C 0.99444 0.55616 0.11386 0.0
C537 C 0.96252 0.54559 0.17718 0.0
C538 C 0.93628 0.54333 0.1805 0.0
C539 C 0.97778 0.55402 0.19761 0.0
C540 C 0.00579 0.55517 0.19573 0.0
C541 C 0.01882 0.57751 0.20157 0.0
C542 C 0.04517 0.57864 0.19952 0.0
C543 C 0.05872 0.55753 0.19174 0.0
C544 C 0.04596 0.53519 0.18608 0.0
C545 C 0.01962 0.53395 0.18812 0.0
H546 H 0.07912 0.55846 0.19013 0.0
H547 H 0.82402 0.5399 0.21287 0.0
H548 H 0.25651 0.1493 0.10315 0.0
H549 H 0.2881 0.12445 0.08092 0.0
H550 H 0.24958 0.05636 0.10272 0.0
H551 H 0.21695 0.08106 0.12395 0.0
H552 H 0.30345 0.05978 0.11539 0.0
H553 H 0.24667 0.06941 0.04463 0.0
H554 H 0.21988 0.09338 0.01494 0.0
H555 H 0.28469 0.13545 0.99012 0.0
H556 H 0.31182 0.11198 0.01995 0.0
H557 H 0.3939 0.98485 0.0535 0.0
H558 H 0.35283 0.00155 0.06636 0.0
H559 H 0.37056 0.07196 0.02972 0.0
H560 H 0.41095 0.05491 0.01573 0.0
H561 H 0.32343 0.06362 0.02354 0.0
H562 H 0.37897 0.06093 0.09582 0.0
H563 H 0.40769 0.04129 0.12695 0.0
H564 H 0.34814 0.99164 0.15078 0.0
H565 H 0.31914 0.01079 0.11953 0.0
C566 C 0.25421 0.1291 0.10268 0.0
C567 C 0.23406 0.11727 0.11546 0.0
C568 C 0.27245 0.11492 0.09008 0.0
C569 C 0.2711 0.08863 0.0902 0.0
C570 C 0.25091 0.07667 0.1025 0.0
C571 C 0.2324 0.09085 0.11478 0.0
C572 C 0.29177 0.07374 0.0789 0.0
C573 C 0.30757 0.06012 0.09523 0.0
C574 C 0.2975 0.07503 0.05276 0.0
C575 C 0.28125 0.08905 0.03468 0.0
C576 C 0.25518 0.08391 0.033 0.0
C577 C 0.23994 0.09738 0.01611 0.0
C578 C 0.25056 0.11596 0.00069 0.0
C579 C 0.27648 0.12106 0.00208 0.0
C580 C 0.2918 0.10766 0.01896 0.0
C581 C 0.38886 0.00377 0.04792 0.0
C582 C 0.40572 0.01864 0.03378 0.0
C583 C 0.36544 0.01336 0.05539 0.0
C584 C 0.3588 0.03826 0.04955 0.0
C585 C 0.37521 0.05273 0.03453 0.0
C586 C 0.39836 0.04297 0.02657 0.0
C587 C 0.33546 0.04975 0.06008 0.0
C588 C 0.31919 0.06287 0.04365 0.0
C589 C 0.32963 0.04857 0.0863 0.0
C590 C 0.34699 0.03708 0.10514 0.0
C591 C 0.37206 0.0457 0.10757 0.0
C592 C 0.38838 0.03468 0.12526 0.0
C593 C 0.37977 0.01518 0.14078 0.0
C594 C 0.3548 0.00671 0.1387 0.0
C595 C 0.33841 0.01764 0.12102 0.0
H596 H 0.39243 0.00667 0.15446 0.0
H597 H 0.23873 0.12636 0.98763 0.0
H598 H 0.294 0.89143 0.59377 0.0
H599 H 0.24952 0.90234 0.58755 0.0
H600 H 0.27085 0.9791 0.57192 0.0
H601 H 0.31539 0.96834 0.57852 0.0
H602 H 0.2313 0.97794 0.60233 0.0
H603 H 0.2535 0.93782 0.52407 0.0
H604 H 0.27042 0.90408 0.49701 0.0
H605 H 0.21468 0.85284 0.52608 0.0
H606 H 0.19764 0.8862 0.55359 0.0
H607 H 0.11566 0.01629 0.54449 0.0
H608 H 0.15975 0.00537 0.55299 0.0
H609 H 0.13677 0.93092 0.57576 0.0
H610 H 0.0926 0.94161 0.56731 0.0
H611 H 0.17676 0.93071 0.54211 0.0
H612 H 0.15426 0.97172 0.61987 0.0
H613 H 0.1373 0.00601 0.64618 0.0
H614 H 0.19371 0.05637 0.61686 0.0
H615 H 0.21079 0.02245 0.59008 0.0
C616 C 0.28921 0.91058 0.58879 0.0
C617 C 0.30815 0.92901 0.58649 0.0
C618 C 0.26379 0.9168 0.58524 0.0
C619 C 0.25687 0.94147 0.57893 0.0
C620 C 0.27576 0.95995 0.57679 0.0
C621 C 0.30117 0.95379 0.58056 0.0
C622 C 0.2299 0.94806 0.57478 0.0
C623 C 0.21948 0.96783 0.5889 0.0
C624 C 0.2143 0.93452 0.55768 0.0
C625 C 0.22445 0.91445 0.54107 0.0
C626 C 0.24497 0.9193 0.52484 0.0
C627 C 0.25456 0.90026 0.50939 0.0
C628 C 0.24367 0.87632 0.50987 0.0
C629 C 0.22312 0.87139 0.52575 0.0
C630 C 0.21347 0.89036 0.54126 0.0
C631 C 0.11993 0.99762 0.55143 0.0
C632 C 0.10057 0.97983 0.55522 0.0
C633 C 0.14514 0.99145 0.55635 0.0
C634 C 0.15147 0.96739 0.56513 0.0
C635 C 0.13224 0.9496 0.56901 0.0
C636 C 0.107 0.9558 0.56425 0.0
C637 C 0.17826 0.96057 0.56961 0.0
C638 C 0.18862 0.94078 0.55554 0.0
C639 C 0.19382 0.97419 0.58663 0.0
C640 C 0.18364 0.9946 0.60278 0.0
C641 C 0.16291 0.99016 0.61887 0.0
C642 C 0.1533 0.00952 0.6339 0.0
C643 C 0.16438 0.03337 0.63314 0.0
C644 C 0.18513 0.03789 0.6174 0.0
C645 C 0.1948 0.0186 0.60231 0.0
H646 H 0.15691 0.04833 0.64479 0.0
H647 H 0.25113 0.86159 0.4979 0.0
H648 H 0.73573 0.39135 0.95164 0.0
H649 H 0.77078 0.41669 0.9682 0.0
H650 H 0.76257 0.4682 0.90552 0.0
H651 H 0.72769 0.44277 0.88871 0.0
H652 H 0.8109 0.45143 0.91092 0.0
H653 H 0.74766 0.48723 0.96394 0.0
H654 H 0.71205 0.48743 0.99404 0.0
H655 H 0.75793 0.45 0.04968 0.0
H656 H 0.79374 0.44922 0.01977 0.0
H657 H 0.90904 0.53053 0.955 0.0
H658 H 0.86659 0.51696 0.9426 0.0
H659 H 0.86629 0.46269 0.00339 0.0
H660 H 0.90859 0.47634 0.0162 0.0
H661 H 0.82035 0.48507 0.99823 0.0
H662 H 0.88145 0.44503 0.94402 0.0
H663 H 0.91721 0.44381 0.91409 0.0
H664 H 0.87502 0.48818 0.86076 0.0
H665 H 0.83911 0.48996 0.89056 0.0
C666 C 0.74123 0.40823 0.94157 0.0
C667 C 0.72905 0.41504 0.91885 0.0
C668 C 0.76111 0.42279 0.95114 0.0
C669 C 0.76919 0.44438 0.93814 0.0
C670 C 0.75655 0.45165 0.91588 0.0
C671 C 0.73654 0.4372 0.90639 0.0
C672 C 0.79221 0.458 0.94657 0.0
C673 C 0.81277 0.45927 0.92984 0.0
C674 C 0.79484 0.46762 0.97146 0.0
C675 C 0.77333 0.46797 0.98951 0.0
C676 C 0.7501 0.47883 0.9825 0.0
C677 C 0.72989 0.47909 -0.00045 0.0
C678 C 0.73271 0.46868 0.02373 0.0
C679 C 0.75577 0.45803 0.03093 0.0
C680 C 0.77604 0.4577 0.01395 0.0
C681 C 0.89988 0.51588 0.96593 0.0
C682 C 0.91237 0.50434 0.98645 0.0
C683 C 0.87562 0.50813 0.95877 0.0
C684 C 0.86345 0.48857 0.97185 0.0
C685 C 0.87537 0.47779 0.99301 0.0
C686 C 0.89961 0.48556 0.00023 0.0
C687 C 0.839 0.4783 0.96262 0.0
C688 C 0.81828 0.47755 0.9792 0.0
C689 C 0.8362 0.469 0.93761 0.0
C690 C 0.85772 0.46788 0.91963 0.0
C691 C 0.87988 0.4547 0.92599 0.0
C692 C 0.90016 0.45388 0.90904 0.0
C693 C 0.89842 0.46598 0.88557 0.0
C694 C 0.87636 0.47886 0.87897 0.0
C695 C 0.85604 0.47978 0.89588 0.0
H696 H 0.91413 0.46532 0.87247 0.0
H697 H 0.71704 0.46892 0.03691 0.0
H698 H 0.78267 0.60135 0.47149 0.0
H699 H 0.74518 0.57825 0.48555 0.0
H700 H 0.75027 0.53021 0.41989 0.0
H701 H 0.78734 0.55357 0.40541 0.0
H702 H 0.70516 0.55276 0.42298 0.0
H703 H 0.75815 0.506 0.47868 0.0
H704 H 0.79078 0.49917 0.51145 0.0
H705 H 0.74621 0.53983 0.56553 0.0
H706 H 0.71345 0.54724 0.53297 0.0
H707 H 0.59443 0.48572 0.45446 0.0
H708 H 0.63911 0.49422 0.44654 0.0
H709 H 0.64074 0.54626 0.50921 0.0
H710 H 0.59607 0.53768 0.51756 0.0
H711 H 0.68381 0.51712 0.50727 0.0
H712 H 0.63393 0.56808 0.45049 0.0
H713 H 0.60132 0.57577 0.41787 0.0
H714 H 0.64081 0.52788 0.36588 0.0
H715 H 0.67349 0.51962 0.39835 0.0
C716 C 0.77607 0.58555 0.46032 0.0
C717 C 0.7878 0.57942 0.43724 0.0
C718 C 0.75479 0.57223 0.46848 0.0
C719 C 0.74496 0.55252 0.45374 0.0
C720 C 0.7576 0.54534 0.43154 0.0
C721 C 0.77889 0.55861 0.4234 0.0
C722 C 0.71974 0.54185 0.45959 0.0
C723 C 0.70066 0.54442 0.44122 0.0
C724 C 0.71373 0.53169 0.48364 0.0
C725 C 0.73342 0.52736 0.50329 0.0
C726 C 0.7554 0.51369 0.49749 0.0
C727 C 0.7739 0.50967 0.51605 0.0
C728 C 0.77059 0.51911 0.54054 0.0
C729 C 0.74875 0.53255 0.54654 0.0
C730 C 0.73019 0.53664 0.52805 0.0
C731 C 0.60428 0.49889 0.46669 0.0
C732 C 0.59157 0.51124 0.48648 0.0
C733 C 0.62983 0.50368 0.46213 0.0
C734 C 0.64312 0.52105 0.47714 0.0
C735 C 0.63079 0.53278 0.49744 0.0
C736 C 0.60522 0.52797 0.50205 0.0
C737 C 0.6694 0.52816 0.47068 0.0
C738 C 0.68854 0.52508 0.48893 0.0
C739 C 0.67555 0.53798 0.44653 0.0
C740 C 0.65598 0.54301 0.42694 0.0
C741 C 0.63554 0.55903 0.43217 0.0
C742 C 0.61707 0.56351 0.4137 0.0
C743 C 0.61895 0.55225 0.38984 0.0
C744 C 0.63935 0.53654 0.38438 0.0
C745 C 0.65786 0.53196 0.40281 0.0
H746 H 0.60463 0.55576 0.37556 0.0
H747 H 0.78493 0.51596 0.55488 0.0
H748 H 0.13078 0.28995 0.1371 0.0
H749 H 0.10902 0.32279 0.11346 0.0
H750 H 0.05546 0.26839 0.08502 0.0
H751 H 0.07672 0.23528 0.10934 0.0
H752 H 0.07388 0.30217 0.04742 0.0
H753 H 0.03586 0.30439 0.12958 0.0
H754 H 0.03539 0.30553 0.17635 0.0
H755 H 0.07467 0.37624 0.17548 0.0
H756 H 0.07572 0.37534 0.12869 0.0
H757 H 0.98991 0.42455 0.04545 0.0
H758 H 0.00184 0.38361 0.06238 0.0
H759 H 0.07334 0.3883 0.0234 0.0
H760 H 0.06146 0.42921 0.00607 0.0
H761 H 0.03956 0.37541 0.0941 0.0
H762 H 0.09531 0.32905 0.01169 0.0
H763 H 0.09388 0.32693 0.96496 0.0
H764 H 0.01426 0.34266 0.96601 0.0
H765 H 0.01513 0.34453 0.01275 0.0
C766 C 0.11417 0.28492 0.12614 0.0
C767 C 0.10532 0.25996 0.12544 0.0
C768 C 0.10188 0.30372 0.11246 0.0
C769 C 0.08054 0.29803 0.09768 0.0
C770 C 0.07194 0.27311 0.09633 0.0
C771 C 0.08415 0.25423 0.1102 0.0
C772 C 0.06708 0.31842 0.08416 0.0
C773 C 0.06623 0.31816 0.05755 0.0
C774 C 0.05674 0.339 0.09748 0.0
C775 C 0.05603 0.33969 0.12563 0.0
C776 C 0.04457 0.32009 0.13936 0.0
C777 C 0.04417 0.32071 0.16588 0.0
C778 C 0.05503 0.34092 0.17888 0.0
C779 C 0.06628 0.36059 0.16538 0.0
C780 C 0.06675 0.36004 0.13886 0.0
C781 C 0.00803 0.41675 0.04011 0.0
C782 C 0.02481 0.4303 0.02453 0.0
C783 C 0.01482 0.39332 0.04985 0.0
C784 C 0.03846 0.38286 0.04416 0.0
C785 C 0.05486 0.39584 0.02779 0.0
C786 C 0.04807 0.4193 0.01797 0.0
C787 C 0.04685 0.3596 0.0572 0.0
C788 C 0.04689 0.35936 0.08383 0.0
C789 C 0.05614 0.33849 0.04385 0.0
C790 C 0.05535 0.33714 0.01574 0.0
C791 C 0.07747 0.33194 0.00196 0.0
C792 C 0.07676 0.33081 0.97547 0.0
C793 C 0.05401 0.33473 0.96252 0.0
C794 C 0.03189 0.33972 0.97605 0.0
C795 C 0.0325 0.34086 0.00255 0.0
H796 H 0.0535 0.33386 0.94201 0.0
H797 H 0.0547 0.34137 0.1994 0.0
H798 H 0.59396 0.28687 0.95626 0.0
H799 H 0.57402 0.25059 0.9767 0.0
H800 H 0.56185 0.21639 0.90356 0.0
H801 H 0.58261 0.25182 0.88302 0.0
H802 H 0.51958 0.21262 0.93777 0.0
H803 H 0.61084 0.19898 0.93529 0.0
H804 H 0.65502 0.2108 0.94479 0.0
H805 H 0.63829 0.21193 0.02447 0.0
H806 H 0.59389 0.20046 0.01538 0.0
H807 H 0.50392 0.08301 0.95724 0.0
H808 H 0.51576 0.12547 0.9445 0.0
H809 H 0.54281 0.14059 0.02037 0.0
H810 H 0.53219 0.09757 0.03282 0.0
H811 H 0.57501 0.15779 0.98979 0.0
H812 H 0.48581 0.16678 0.99455 0.0
H813 H 0.44093 0.15642 0.98693 0.0
H814 H 0.45153 0.16625 0.90679 0.0
H815 H 0.49657 0.17633 0.91388 0.0
C816 C 0.58709 0.27164 0.94449 0.0
C817 C 0.59006 0.27232 0.91794 0.0
C818 C 0.57553 0.25103 0.95621 0.0
C819 C 0.56655 0.23085 0.9416 0.0
C820 C 0.5685 0.2319 0.91512 0.0
C821 C 0.58029 0.2523 0.90342 0.0
C822 C 0.55672 0.20777 0.95378 0.0
C823 C 0.53163 0.20051 0.9491 0.0
C824 C 0.57228 0.19252 0.96921 0.0
C825 C 0.59901 0.19915 0.97464 0.0
C826 C 0.61655 0.20195 0.95482 0.0
C827 C 0.64163 0.20855 0.96013 0.0
C828 C 0.64944 0.21219 0.98521 0.0
C829 C 0.6322 0.20915 0.00505 0.0
C830 C 0.60708 0.20259 -0.00017 0.0
C831 C 0.51221 0.09545 0.97126 0.0
C832 C 0.51713 0.08698 0.99602 0.0
C833 C 0.51881 0.11983 0.96401 0.0
C834 C 0.52976 0.13652 0.98158 0.0
C835 C 0.53436 0.12814 0.00645 0.0
C836 C 0.52827 0.10356 0.01356 0.0
C837 C 0.53774 0.16214 0.97355 0.0
C838 C 0.56261 0.16995 0.97891 0.0
C839 C 0.52177 0.17809 0.95913 0.0
C840 C 0.49464 0.17215 0.95475 0.0
C841 C 0.47862 0.16657 0.97528 0.0
C842 C 0.45314 0.16077 0.97106 0.0
C843 C 0.4434 0.16063 0.94639 0.0
C844 C 0.45911 0.16636 0.92589 0.0
C845 C 0.48461 0.17215 0.93001 0.0
H846 H 0.42367 0.15613 0.94316 0.0
H847 H 0.66886 0.2173 0.98929 0.0
H848 H 0.93921 0.70187 0.45751 0.0
H849 H 0.96238 0.73686 0.47716 0.0
H850 H 0.94036 0.78517 0.4152 0.0
H851 H 0.91721 0.75063 0.39569 0.0
H852 H 0.98936 0.79235 0.42798 0.0
H853 H 0.90819 0.78471 0.47134 0.0
H854 H 0.8763 0.76207 0.49676 0.0
H855 H 0.9306 0.75192 0.55664 0.0
H856 H 0.96291 0.77424 0.53139 0.0
H857 H 0.98125 0.91723 0.46587 0.0
H858 H 0.97454 0.87399 0.45249 0.0
H859 H 0.00408 0.84744 0.52399 0.0
H860 H 0.01063 0.89089 0.5378 0.0
H861 H 0.96042 0.82404 0.51149 0.0
H862 H 0.03883 0.84003 0.47081 0.0
H863 H 0.06984 0.86365 0.44527 0.0
H864 H 0.02097 0.85861 0.38024 0.0
H865 H 0.98949 0.83528 0.40547 0.0
C866 C 0.93939 0.71996 0.44811 0.0
C867 C 0.92643 0.72348 0.42503 0.0
C868 C 0.95268 0.73987 0.45929 0.0
C869 C 0.953 0.7636 0.44765 0.0
C870 C 0.94055 0.76695 0.42438 0.0
C871 C 0.92736 0.74715 0.41322 0.0
C872 C 0.96505 0.78556 0.45999 0.0
C873 C 0.98309 0.79931 0.44625 0.0
C874 C 0.95746 0.79412 0.4842 0.0
C875 C 0.93802 0.78083 0.49937 0.0
C876 C 0.91337 0.77747 0.48985 0.0
C877 C 0.89522 0.76473 0.50423 0.0
C878 C 0.90145 0.75549 0.52826 0.0
C879 C 0.92582 0.75903 0.53799 0.0
C880 C 0.94405 0.77173 0.52366 0.0
C881 C 0.98649 0.90227 0.47876 0.0
C882 C 0.99648 0.90757 0.50293 0.0
C883 C 0.9828 0.87752 0.47099 0.0
C884 C 0.98918 0.85751 0.4871 0.0
C885 C 0.99919 0.86264 0.51123 0.0
C886 C 0.00291 0.88747 0.51906 0.0
C887 C 0.98397 0.83139 0.47898 0.0
C888 C 0.96726 0.81681 0.49353 0.0
C889 C 0.99275 0.82209 0.45547 0.0
C890 C 0.01173 0.83597 0.4401 0.0
C891 C 0.03461 0.84409 0.45111 0.0
C892 C 0.05229 0.85741 0.43667 0.0
C893 C 0.04737 0.86265 0.41115 0.0
C894 C 0.02477 0.85453 0.40001 0.0
C895 C 0.00702 0.84121 0.41436 0.0
H896 H 0.06107 0.87298 0.40001 0.0
H897 H 0.88737 0.74563 0.53938 0.0
H898 H 0.47786 0.79149 0.58927 0.0
H899 H 0.48579 0.74827 0.57586 0.0
H900 H 0.40718 0.74006 0.55491 0.0
H901 H 0.39907 0.78312 0.56898 0.0
H902 H 0.42241 0.69914 0.57731 0.0
H903 H 0.45445 0.75008 0.51002 0.0
H904 H 0.4796 0.78395 0.49039 0.0
H905 H 0.54812 0.74941 0.51678 0.0
H906 H 0.52335 0.7155 0.53688 0.0
H907 H 0.44144 0.58916 0.50255 0.0
H908 H 0.43212 0.63259 0.51437 0.0
H909 H 0.50648 0.63993 0.54746 0.0
H910 H 0.516 0.59655 0.53581 0.0
H911 H 0.49225 0.68111 0.51733 0.0
H912 H 0.45819 0.63018 0.58525 0.0
H913 H 0.4318 0.59608 0.60276 0.0
H914 H 0.36519 0.63081 0.57205 0.0
H915 H 0.39125 0.66496 0.55405 0.0
C916 C 0.4623 0.78044 0.58177 0.0
C917 C 0.43789 0.79065 0.58002 0.0
C918 C 0.46685 0.75578 0.57404 0.0
C919 C 0.44718 0.74104 0.56391 0.0
C920 C 0.42266 0.75107 0.56262 0.0
C921 C 0.41804 0.77564 0.57066 0.0
C922 C 0.45223 0.71521 0.5546 0.0
C923 C 0.43745 0.69529 0.56391 0.0
C924 C 0.47204 0.71006 0.53732 0.0
C925 C 0.48702 0.73037 0.52516 0.0
C926 C 0.47487 0.7498 0.5118 0.0
C927 C 0.48906 0.76899 0.50056 0.0
C928 C 0.51544 0.76886 0.50239 0.0
C929 C 0.52768 0.7495 0.5154 0.0
C930 C 0.51358 0.73028 0.5267 0.0
C931 C 0.45589 0.60005 0.51219 0.0
C932 C 0.47943 0.58935 0.51833 0.0
C933 C 0.45048 0.62481 0.51901 0.0
C934 C 0.46855 0.63933 0.53197 0.0
C935 C 0.49229 0.62898 0.5375 0.0
C936 C 0.49764 0.60416 0.5309 0.0
C937 C 0.46258 0.66521 0.54021 0.0
C938 C 0.47718 0.68509 0.53066 0.0
C939 C 0.44241 0.67034 0.55699 0.0
C940 C 0.4267 0.64999 0.56809 0.0
C941 C 0.43794 0.63045 0.58207 0.0
C942 C 0.42304 0.61113 0.59211 0.0
C943 C 0.39684 0.61125 0.58846 0.0
C944 C 0.38549 0.63073 0.57484 0.0
C945 C 0.40031 0.65009 0.56473 0.0
H946 H 0.38534 0.59628 0.59624 0.0
H947 H 0.52639 0.78374 0.49368 0.0
H948 H 0.93798 0.99326 0.83618 0.0
H949 H 0.94656 0.99894 0.791 0.0
H950 H 0.9546 0.91887 0.78212 0.0
H951 H 0.94536 0.91288 0.82714 0.0
H952 H 0.99321 0.94637 0.75887 0.0
H953 H 0.90212 0.9457 0.76217 0.0
H954 H 0.86039 0.95951 0.77751 0.0
H955 H 0.87582 0.03452 0.75174 0.0
H956 H 0.91782 0.02123 0.73656 0.0
H957 H 0.99367 0.94286 0.62457 0.0
H958 H 0.9839 0.93591 0.66931 0.0
H959 H 0.96377 0.01402 0.67723 0.0
H960 H 0.97258 0.02086 0.63232 0.0
H961 H 0.9311 0.98694 0.70133 0.0
H962 H 0.02171 0.98937 0.69894 0.0
H963 H 0.0643 0.97729 0.68444 0.0
H964 H 0.05125 0.90156 0.70938 0.0
H965 H 0.00844 0.91312 0.72373 0.0
C966 C 0.94125 0.9768 0.8246 0.0
C967 C 0.94088 0.95259 0.83533 0.0
C968 C 0.94627 0.98011 0.7988 0.0
C969 C 0.95105 0.95931 0.78322 0.0
C970 C 0.95102 0.93516 0.79386 0.0
C971 C 0.94584 0.93181 0.81963 0.0
C972 C 0.95614 0.96275 0.75581 0.0
C973 C 0.97953 0.95493 0.74617 0.0
C974 C 0.93853 0.97454 0.73949 0.0
C975 C 0.91321 0.98252 0.74845 0.0
C976 C 0.8967 0.96518 0.75995 0.0
C977 C 0.87298 0.97291 0.76859 0.0
C978 C 0.86548 0.99789 0.76566 0.0
C979 C 0.88166 0.01518 0.75403 0.0
C980 C 0.90542 0.00756 0.74538 0.0
C981 C 0.98716 0.95855 0.63584 0.0
C982 C 0.98398 0.98243 0.6249 0.0
C983 C 0.9817 0.95459 0.66147 0.0
C984 C 0.9735 0.97454 0.6768 0.0
C985 C 0.97008 0.99833 0.66583 0.0
C986 C 0.97517 0.00222 0.64013 0.0
C987 C 0.96829 0.97065 0.70423 0.0
C988 C 0.94485 0.97837 0.71394 0.0
C989 C 0.98601 0.95905 0.72069 0.0
C990 C 0.01178 0.95206 0.71218 0.0
C991 C 0.02786 0.9701 0.70116 0.0
C992 C 0.05205 0.96336 0.693 0.0
C993 C 0.06045 0.93866 0.69593 0.0
C994 C 0.0447 0.92068 0.70709 0.0
C995 C 0.02049 0.92732 0.71526 0.0
H996 H 0.07918 0.93347 0.68959 0.0
H997 H 0.84711 0.00384 0.77236 0.0
H998 H 0.5765 0.10558 0.28437 0.0
H999 H 0.55508 0.08771 0.24775 0.0
H1000 H 0.53431 0.02252 0.29177 0.0
H1001 H 0.55588 0.04051 0.32894 0.0
H1002 H 0.55295 0.00923 0.24643 0.0
H1003 H 0.48874 0.06399 0.27405 0.0
H1004 H 0.46975 0.10311 0.29007 0.0
H1005 H 0.49214 0.14176 0.22219 0.0
H1006 H 0.51161 0.10299 0.20589 0.0
H1007 H 0.48855 0.97702 0.12836 0.0
H1008 H 0.49366 0.9863 0.17376 0.0
H1009 H 0.53396 0.05437 0.15509 0.0
H1010 H 0.52931 0.04518 0.11002 0.0
H1011 H 0.49508 0.05992 0.19276 0.0
H1012 H 0.56683 0.00603 0.17111 0.0
H1013 H 0.58555 0.96653 0.15567 0.0
H1014 H 0.5464 0.92536 0.21371 0.0
H1015 H 0.52718 0.96463 0.22927 0.0
C1016 C 0.56693 0.08769 0.28653 0.0
C1017 C 0.56762 0.07462 0.30969 0.0
C1018 C 0.55469 0.07746 0.26551 0.0
C1019 C 0.54265 0.054 0.26713 0.0
C1020 C 0.54332 0.04075 0.29017 0.0
C1021 C 0.55569 0.05101 0.31133 0.0
C1022 C 0.53078 0.04309 0.2441 0.0
C1023 C 0.53973 0.01999 0.23502 0.0
C1024 C 0.51354 0.05712 0.22918 0.0
C1025 C 0.50172 0.08054 0.23878 0.0
C1026 C 0.48975 0.08086 0.26259 0.0
C1027 C 0.47889 0.10298 0.27171 0.0
C1028 C 0.47975 0.12491 0.25716 0.0
C1029 C 0.49146 0.12475 0.23343 0.0
C1030 C 0.50238 0.10269 0.22421 0.0
C1031 C 0.49845 0.99397 0.13397 0.0
C1032 C 0.50864 0.01031 0.11561 0.0
C1033 C 0.50135 0.99922 0.15986 0.0
C1034 C 0.51414 0.02102 0.16766 0.0
C1035 C 0.52393 0.0375 0.14939 0.0
C1036 C 0.52139 0.03211 0.12364 0.0
C1037 C 0.51815 0.02676 0.19481 0.0
C1038 C 0.50766 0.04886 0.20459 0.0
C1039 C 0.53372 0.01171 0.21045 0.0
C1040 C 0.54531 0.98818 0.20112 0.0
C1041 C 0.56203 0.98852 0.18041 0.0
C1042 C 0.57277 0.96619 0.17168 0.0
C1043 C 0.56709 0.94343 0.18364 0.0
C1044 C 0.55073 0.94298 0.20442 0.0
C1045 C 0.53991 0.96527 0.21321 0.0
H1046 H 0.57544 0.92616 0.17686 0.0
H1047 H 0.47133 0.14201 0.26427 0.0
H1048 H 0.48768 0.54382 0.18992 0.0
H1049 H 0.49503 0.53419 0.23483 0.0
H1050 H 0.41549 0.54378 0.24996 0.0
H1051 H 0.40805 0.55354 0.20515 0.0
H1052 H 0.44705 0.56901 0.28435 0.0
H1053 H 0.43839 0.48652 0.24739 0.0
H1054 H 0.44869 0.45278 0.21712 0.0
H1055 H 0.52538 0.45186 0.24419 0.0
H1056 H 0.51563 0.48586 0.27438 0.0
H1057 H 0.44129 0.52065 0.40865 0.0
H1058 H 0.4346 0.52836 0.36347 0.0
H1059 H 0.51144 0.5059 0.34811 0.0
H1060 H 0.51794 0.49721 0.39321 0.0
H1061 H 0.48216 0.48752 0.31331 0.0
H1062 H 0.49254 0.56916 0.34967 0.0
H1063 H 0.48425 0.60389 0.37942 0.0
H1064 H 0.40744 0.60815 0.35305 0.0
H1065 H 0.41518 0.5732 0.32336 0.0
C1066 C 0.4718 0.54391 0.20285 0.0
C1067 C 0.44728 0.54936 0.19405 0.0
C1068 C 0.47599 0.53828 0.22843 0.0
C1069 C 0.45577 0.53814 0.24564 0.0
C1070 C 0.43132 0.54374 0.23694 0.0
C1071 C 0.42708 0.54913 0.21135 0.0
C1072 C 0.46011 0.53252 0.27283 0.0
C1073 C 0.45443 0.55109 0.29077 0.0
C1074 C 0.47049 0.50944 0.28102 0.0
C1075 C 0.47634 0.48891 0.26297 0.0
C1076 C 0.45751 0.47927 0.24674 0.0
C1077 C 0.46323 0.46007 0.22963 0.0
C1078 C 0.48769 0.45023 0.22868 0.0
C1079 C 0.50645 0.45953 0.24491 0.0
C1080 C 0.50083 0.47874 0.26204 0.0
C1081 C 0.45677 0.51733 0.39566 0.0
C1082 C 0.48019 0.50845 0.40454 0.0
C1083 C 0.45296 0.52187 0.36982 0.0
C1084 C 0.47267 0.5182 0.35239 0.0
C1085 C 0.49595 0.50894 0.36117 0.0
C1086 C 0.49966 0.50402 0.38697 0.0
C1087 C 0.46898 0.524 0.32503 0.0
C1088 C 0.47482 0.50549 0.307 0.0
C1089 C 0.45907 0.54731 0.31671 0.0
C1090 C 0.45438 0.56841 0.33446 0.0
C1091 C 0.47383 0.57739 0.35034 0.0
C1092 C 0.46924 0.59713 0.36717 0.0
C1093 C 0.44532 0.60818 0.36817 0.0
C1094 C 0.42596 0.59955 0.35228 0.0
C1095 C 0.43044 0.57979 0.33543 0.0
H1096 H 0.4418 0.62346 0.38121 0.0
H1097 H 0.49209 0.43537 0.21542 0.0
H1098 H 0.03671 0.40983 0.73139 0.0
H1099 H 0.02232 0.43515 0.76694 0.0
H1100 H 0.06332 0.49906 0.73759 0.0
H1101 H 0.07903 0.47337 0.70274 0.0
H1102 H 0.07604 0.49239 0.78367 0.0
H1103 H 0.99705 0.49867 0.74261 0.0
H1104 H 0.95905 0.48486 0.71918 0.0
H1105 H 0.93748 0.4378 0.78172 0.0
H1106 H 0.97554 0.45101 0.8054 0.0
H1107 H 0.99263 0.53966 0.89745 0.0
H1108 H 0.9982 0.53283 0.85194 0.0
H1109 H 0.05649 0.4784 0.86766 0.0
H1110 H 0.05144 0.48539 0.91304 0.0
H1111 H 0.9913 0.49225 0.82384 0.0
H1112 H 0.10096 0.47952 0.82349 0.0
H1113 H 0.13826 0.49695 0.84558 0.0
H1114 H 0.09709 0.56427 0.86243 0.0
H1115 H 0.05965 0.54743 0.84013 0.0
C1116 C 0.04244 0.42935 0.73232 0.0
C1117 C 0.05936 0.43944 0.71444 0.0
C1118 C 0.03389 0.44396 0.7525 0.0
C1119 C 0.04167 0.46908 0.75495 0.0
C1120 C 0.05708 0.47971 0.73611 0.0
C1121 C 0.06588 0.46503 0.71605 0.0
C1122 C 0.03662 0.48289 0.77883 0.0
C1123 C 0.05743 0.49265 0.79226 0.0
C1124 C 0.01226 0.48382 0.78988 0.0
C1125 C 0.98926 0.47577 0.77575 0.0
C1126 C 0.98431 0.48524 0.75131 0.0
C1127 C 0.96273 0.47754 0.73799 0.0
C1128 C 0.94588 0.46045 0.74894 0.0
C1129 C 0.95055 0.45105 0.77326 0.0
C1130 C 0.9721 0.45868 0.78666 0.0
C1131 C 0.00677 0.52636 0.89123 0.0
C1132 C 0.02165 0.51312 0.90892 0.0
C1133 C 0.00987 0.52246 0.86521 0.0
C1134 C 0.02795 0.50536 0.85641 0.0
C1135 C 0.04277 0.49208 0.87401 0.0
C1136 C 0.03976 0.49602 0.89999 0.0
C1137 C 0.0309 0.50054 0.82891 0.0
C1138 C 0.00976 0.49247 0.81491 0.0
C1139 C 0.05484 0.50171 0.81706 0.0
C1140 C 0.07743 0.51212 0.83024 0.0
C1141 C 0.0999 0.49811 0.83177 0.0
C1142 C 0.12106 0.50787 0.84436 0.0
C1143 C 0.12003 0.53168 0.85545 0.0
C1144 C 0.09784 0.5458 0.8539 0.0
C1145 C 0.07663 0.53614 0.84131 0.0
H1146 H 0.13642 0.53919 0.86521 0.0
H1147 H 0.92919 0.45451 0.7386 0.0
H1148 H 0.79494 0.96211 0.93243 0.0
H1149 H 0.75047 0.96816 0.94207 0.0
H1150 H 0.76746 0.96675 0.02219 0.0
H1151 H 0.81172 0.95834 0.01275 0.0
H1152 H 0.72733 0.94191 0.01563 0.0
H1153 H 0.75303 0.02286 0.98767 0.0
H1154 H 0.77255 0.05456 0.95971 0.0
H1155 H 0.72031 0.03537 0.90023 0.0
H1156 H 0.70067 0.00329 0.92771 0.0
H1157 H 0.60596 0.99877 0.04538 0.0
H1158 H 0.65173 0.99453 0.03898 0.0
H1159 H 0.63829 0.96243 0.96508 0.0
H1160 H 0.59256 0.96592 0.97155 0.0
H1161 H 0.6764 0.00656 0.97107 0.0
H1162 H 0.65309 0.92315 0.00201 0.0
H1163 H 0.63363 0.89446 0.03315 0.0
H1164 H 0.6824 0.92348 0.09155 0.0
H1165 H 0.70188 0.95263 0.06079 0.0
C1166 C 0.78929 0.96269 0.95215 0.0
C1167 C 0.80715 0.95963 0.97178 0.0
C1168 C 0.76379 0.96664 0.95764 0.0
C1169 C 0.75555 0.96845 0.98289 0.0
C1170 C 0.7733 0.96557 0.00254 0.0
C1171 C 0.79875 0.96108 0.99707 0.0
C1172 C 0.72832 0.97248 0.98871 0.0
C1173 C 0.71639 0.95636 0.00613 0.0
C1174 C 0.71379 0.99122 0.97631 0.0
C1175 C 0.72552 0.01051 0.9597 0.0
C1176 C 0.74581 0.02527 0.96856 0.0
C1177 C 0.75688 0.04333 0.95281 0.0
C1178 C 0.74771 0.04694 0.92819 0.0
C1179 C 0.72741 0.03253 0.9193 0.0
C1180 C 0.71628 0.01443 0.93496 0.0
C1181 C 0.61277 0.99075 0.0278 0.0
C1182 C 0.5957 0.98261 0.00899 0.0
C1183 C 0.63885 0.98833 0.02421 0.0
C1184 C 0.64823 0.97821 0.00157 0.0
C1185 C 0.6313 0.97031 0.98266 0.0
C1186 C 0.60523 0.9722 0.98645 0.0
C1187 C 0.67576 0.97583 0.99754 0.0
C1188 C 0.68761 0.99231 0.98056 0.0
C1189 C 0.69032 0.95789 0.01077 0.0
C1190 C 0.67871 0.94027 0.02918 0.0
C1191 C 0.65948 0.9236 0.02155 0.0
C1192 C 0.64849 0.90721 0.03911 0.0
C1193 C 0.65671 0.90721 0.06433 0.0
C1194 C 0.67601 0.92354 0.07202 0.0
C1195 C 0.68704 0.93998 0.05453 0.0
H1196 H 0.64818 0.8945 0.0779 0.0
H1197 H 0.75631 0.06093 0.91602 0.0
H1198 H 0.72423 0.03281 0.41255 0.0
H1199 H 0.76294 0.01783 0.43264 0.0
H1200 H 0.74806 0.06437 0.49789 0.0
H1201 H 0.71005 0.08051 0.47729 0.0
H1202 H 0.79348 0.0727 0.48185 0.0
H1203 H 0.7467 0.99849 0.50064 0.0
H1204 H 0.71885 0.96219 0.49227 0.0
H1205 H 0.7728 0.93285 0.43933 0.0
H1206 H 0.80084 0.96915 0.4471 0.0
H1207 H 0.9039 0.03101 0.54506 0.0
H1208 H 0.85915 0.03688 0.53522 0.0
H1209 H 0.86924 0.99923 0.46354 0.0
H1210 H 0.91403 0.99299 0.47329 0.0
H1211 H 0.82485 0.98514 0.48734 0.0
H1212 H 0.86885 0.062 0.4657 0.0
H1213 H 0.8966 0.09835 0.47436 0.0
H1214 H 0.84678 0.12244 0.53373 0.0
H1215 H 0.81891 0.08603 0.52563 0.0
C1216 C 0.72906 0.03971 0.43127 0.0
C1217 C 0.71417 0.05812 0.44314 0.0
C1218 C 0.75107 0.03086 0.44291 0.0
C1219 C 0.75841 0.03989 0.46686 0.0
C1220 C 0.74278 0.05714 0.4794 0.0
C1221 C 0.72089 0.06618 0.46768 0.0
C1222 C 0.7837 0.03359 0.47739 0.0
C1223 C 0.80007 0.0535 0.48359 0.0
C1224 C 0.79261 0.00858 0.47907 0.0
C1225 C 0.7758 0.98667 0.47433 0.0
C1226 C 0.75255 0.98441 0.48706 0.0
C1227 C 0.73674 0.9638 0.48245 0.0
C1228 C 0.74402 0.94525 0.46524 0.0
C1229 C 0.76717 0.94724 0.45264 0.0
C1230 C 0.78305 0.96781 0.45718 0.0
C1231 C 0.89664 0.02385 0.52724 0.0
C1232 C 0.91266 0.01173 0.50985 0.0
C1233 C 0.87103 0.02723 0.52166 0.0
C1234 C 0.86096 0.01871 0.49855 0.0
C1235 C 0.87667 0.00594 0.48149 0.0
C1236 C 0.9023 0.00253 0.48705 0.0
C1237 C 0.83439 0.02425 0.49157 0.0
C1238 C 0.81794 0.00426 0.48594 0.0
C1239 C 0.82529 0.04918 0.49048 0.0
C1240 C 0.84195 0.07116 0.49524 0.0
C1241 C 0.86392 0.07495 0.48072 0.0
C1242 C 0.87965 0.09558 0.48551 0.0
C1243 C 0.8735 0.11265 0.50463 0.0
C1244 C 0.85155 0.10918 0.51895 0.0
C1245 C 0.83577 0.08856 0.51426 0.0
H1246 H 0.8857 0.12861 0.50831 0.0
H1247 H 0.73175 0.92932 0.4617 0.0
H1248 H 0.31724 0.53304 0.03942 0.0
H1249 H 0.27221 0.52888 0.0297 0.0
H1250 H 0.2577 0.59963 0.0666 0.0
H1251 H 0.30281 0.60432 0.07587 0.0
H1252 H 0.22458 0.56212 0.08146 0.0
H1253 H 0.25657 0.59702 0.00388 0.0
H1254 H 0.28482 0.59948 0.96681 0.0
H1255 H 0.25917 0.52695 0.9419 0.0
H1256 H 0.23101 0.52389 0.97904 0.0
H1257 H 0.09752 0.57548 0.04096 0.0
H1258 H 0.14261 0.58263 0.04828 0.0
H1259 H 0.16014 0.51567 0.00583 0.0
H1260 H 0.11513 0.50867 0.99791 0.0
H1261 H 0.19187 0.55232 0.99366 0.0
H1262 H 0.16117 0.51628 0.07118 0.0
H1263 H 0.13323 0.5127 0.10842 0.0
H1264 H 0.15685 0.58576 0.13373 0.0
H1265 H 0.18468 0.58993 0.09644 0.0
C1266 C 0.30457 0.54793 0.04516 0.0
C1267 C 0.31371 0.56904 0.05841 0.0
C1268 C 0.27881 0.54545 0.03967 0.0
C1269 C 0.26166 0.56402 0.04731 0.0
C1270 C 0.27064 0.58506 0.06061 0.0
C1271 C 0.29642 0.58763 0.06598 0.0
C1272 C 0.23428 0.56125 0.04182 0.0
C1273 C 0.21735 0.56035 0.06225 0.0
C1274 C 0.22501 0.5583 0.01679 0.0
C1275 C 0.24186 0.56013 0.99438 0.0
C1276 C 0.25711 0.5815 0.99061 0.0
C1277 C 0.27307 0.58302 0.96957 0.0
C1278 C 0.27384 0.56335 0.95204 0.0
C1279 C 0.25858 0.54215 0.9555 0.0
C1280 C 0.2426 0.54053 0.97654 0.0
C1281 C 0.11094 0.56228 0.03313 0.0
C1282 C 0.10266 0.54141 0.01896 0.0
C1283 C 0.13673 0.56635 0.03741 0.0
C1284 C 0.15475 0.54948 0.02792 0.0
C1285 C 0.14658 0.52891 0.01337 0.0
C1286 C 0.12081 0.52491 0.00893 0.0
C1287 C 0.1821 0.55312 0.03332 0.0
C1288 C 0.19905 0.55416 0.01288 0.0
C1289 C 0.19143 0.55602 0.05837 0.0
C1290 C 0.17481 0.55352 0.08088 0.0
C1291 C 0.16026 0.53166 0.08459 0.0
C1292 C 0.14447 0.52951 0.10572 0.0
C1293 C 0.14321 0.54902 0.12339 0.0
C1294 C 0.15781 0.57069 0.12001 0.0
C1295 C 0.17361 0.57294 0.09889 0.0
H1296 H 0.13097 0.54732 0.13974 0.0
H1297 H 0.28621 0.56457 0.93576 0.0
H1298 H 0.18738 0.44586 0.55649 0.0
H1299 H 0.22584 0.46274 0.5367 0.0
H1300 H 0.26807 0.44613 0.60488 0.0
H1301 H 0.22988 0.42983 0.62472 0.0
H1302 H 0.28285 0.4894 0.58677 0.0
H1303 H 0.26677 0.40633 0.55196 0.0
H1304 H 0.24155 0.37445 0.52913 0.0
H1305 H 0.2401 0.42147 0.4629 0.0
H1306 H 0.26506 0.45377 0.48549 0.0
H1307 H 0.40739 0.45969 0.55301 0.0
H1308 H 0.36267 0.45622 0.56406 0.0
H1309 H 0.34225 0.49587 0.49569 0.0
H1310 H 0.38714 0.49987 0.48458 0.0
H1311 H 0.31348 0.44879 0.50792 0.0
H1312 H 0.33706 0.52864 0.54265 0.0
H1313 H 0.36443 0.55788 0.56654 0.0
H1314 H 0.35356 0.5143 0.63425 0.0
H1315 H 0.32642 0.48458 0.61067 0.0
C1316 C 0.20488 0.44605 0.56724 0.0
C1317 C 0.20567 0.43659 0.59213 0.0
C1318 C 0.2268 0.45566 0.55594 0.0
C1319 C 0.24989 0.45546 0.56923 0.0
C1320 C 0.25046 0.44664 0.59431 0.0
C1321 C 0.2286 0.43734 0.60565 0.0
C1322 C 0.27391 0.46311 0.55695 0.0
C1323 C 0.28951 0.48053 0.56951 0.0
C1324 C 0.28239 0.452 0.53408 0.0
C1325 C 0.26747 0.43258 0.5205 0.0
C1326 C 0.2609 0.40994 0.53259 0.0
C1327 C 0.24668 0.39179 0.51969 0.0
C1328 C 0.23915 0.39597 0.49461 0.0
C1329 C 0.24589 0.41828 0.48235 0.0
C1330 C 0.26007 0.43651 0.49519 0.0
C1331 C 0.39342 0.46755 0.54021 0.0
C1332 C 0.40078 0.48011 0.51795 0.0
C1333 C 0.36792 0.46564 0.54661 0.0
C1334 C 0.34933 0.47598 0.53076 0.0
C1335 C 0.35644 0.48788 0.50815 0.0
C1336 C 0.38204 0.49017 0.5019 0.0
C1337 C 0.32252 0.47435 0.53825 0.0
C1338 C 0.30649 0.4581 0.52481 0.0
C1339 C 0.31375 0.48627 0.56048 0.0
C1340 C 0.32982 0.50428 0.57483 0.0
C1341 C 0.34065 0.52518 0.56259 0.0
C1342 C 0.3561 0.54186 0.57608 0.0
C1343 C 0.36077 0.53792 0.60189 0.0
C1344 C 0.34993 0.51733 0.61426 0.0
C1345 C 0.33448 0.50058 0.60084 0.0
H1346 H 0.37275 0.55083 0.6123 0.0
H1347 H 0.22815 0.38189 0.48465 0.0
H1348 H 0.92621 0.81488 0.93677 0.0
H1349 H 0.93686 0.77083 0.94352 0.0
H1350 H 0.97786 0.79052 0.01154 0.0
H1351 H 0.96685 0.83476 0.00522 0.0
H1352 H 0.00392 0.7569 0.98099 0.0
H1353 H 0.9213 0.76472 0.01719 0.0
H1354 H 0.87627 0.77665 0.01799 0.0
H1355 H 0.86114 0.72728 0.95532 0.0
H1356 H 0.90618 0.71534 0.9539 0.0
H1357 H 0.01386 0.6312 0.02682 0.0
H1358 H 0.00521 0.67605 0.02241 0.0
H1359 H 0.95905 0.66105 0.95648 0.0
H1360 H 0.96728 0.61616 0.9609 0.0
H1361 H 0.9359 0.69284 0.98805 0.0
H1362 H 0.01834 0.68587 0.95076 0.0
H1363 H 0.06341 0.6742 0.94915 0.0
H1364 H 0.07897 0.72188 0.01304 0.0
H1365 H 0.03389 0.73358 0.01524 0.0
C1366 C 0.93724 0.80987 0.95335 0.0
C1367 C 0.94544 0.82836 0.97061 0.0
C1368 C 0.94341 0.78468 0.9571 0.0
C1369 C 0.9579 0.7774 0.97818 0.0
C1370 C 0.96664 0.79579 0.99516 0.0
C1371 C 0.96039 0.82105 0.99147 0.0
C1372 C 0.96371 0.75051 0.98243 0.0
C1373 C 0.98909 0.7429 0.98295 0.0
C1374 C 0.9443 0.73226 0.98442 0.0
C1375 C 0.91716 0.73931 0.9853 0.0
C1376 C 0.90841 0.75656 0.00345 0.0
C1377 C 0.88288 0.7633 0.00403 0.0
C1378 C 0.86586 0.75278 0.98668 0.0
C1379 C 0.87434 0.73544 0.96874 0.0
C1380 C 0.89987 0.72866 0.96805 0.0
C1381 C 0.00192 0.63741 0.01132 0.0
C1382 C 0.99128 0.62003 0.9942 0.0
C1383 C 0.99708 0.66309 0.00877 0.0
C1384 C 0.98166 0.67192 0.98898 0.0
C1385 C 0.971 0.65464 0.97189 0.0
C1386 C 0.9758 0.62898 0.97443 0.0
C1387 C 0.97614 0.6991 0.98635 0.0
C1388 C 0.95077 0.7068 0.98619 0.0
C1389 C 0.99558 0.71739 0.98462 0.0
C1390 C 0.02269 0.71039 0.98334 0.0
C1391 C 0.03133 0.6937 0.96461 0.0
C1392 C 0.05689 0.68711 0.96356 0.0
C1393 C 0.07403 0.69723 0.98103 0.0
C1394 C 0.06566 0.71402 -0.00046 0.0
C1395 C 0.04011 0.72065 0.00069 0.0
H1396 H 0.09381 0.69211 0.98018 0.0
H1397 H 0.8461 0.75801 0.98716 0.0
H1398 H 0.48751 0.68405 0.05211 0.0
H1399 H 0.49588 0.72866 0.04468 0.0
H1400 H 0.42142 0.74691 0.07232 0.0
H1401 H 0.41264 0.70229 0.07909 0.0
H1402 H 0.43237 0.77287 0.02978 0.0
H1403 H 0.47321 0.7556 0.10941 0.0
H1404 H 0.50193 0.73323 0.13856 0.0
H1405 H 0.56539 0.75323 0.09195 0.0
H1406 H 0.53697 0.77543 0.06231 0.0
H1407 H 0.44996 0.90295 0.0543 0.0
H1408 H 0.44315 0.85784 0.06003 0.0
H1409 H 0.51468 0.84265 0.0241 0.0
H1410 H 0.52158 0.88775 0.01802 0.0
H1411 H 0.50618 0.81517 0.06974 0.0
H1412 H 0.4654 0.833 0.99053 0.0
H1413 H 0.43673 0.85582 0.96169 0.0
H1414 H 0.3732 0.83506 0.00786 0.0
H1415 H 0.40157 0.81241 0.03722 0.0
C1416 C 0.47284 0.69754 0.0564 0.0
C1417 C 0.44944 0.68963 0.06629 0.0
C1418 C 0.47773 0.72304 0.05235 0.0
C1419 C 0.45937 0.74112 0.05822 0.0
C1420 C 0.43588 0.73327 0.06775 0.0
C1421 C 0.43098 0.70779 0.07182 0.0
C1422 C 0.46462 0.76825 0.05444 0.0
C1423 C 0.44833 0.78217 0.03877 0.0
C1424 C 0.4858 0.78026 0.06569 0.0
C1425 C 0.50293 0.76695 0.0835 0.0
C1426 C 0.49326 0.75505 0.10526 0.0
C1427 C 0.50949 0.74243 0.12189 0.0
C1428 C 0.53546 0.74175 0.11707 0.0
C1429 C 0.54526 0.75374 0.09564 0.0
C1430 C 0.52911 0.76636 0.07892 0.0
C1431 C 0.4643 0.89005 0.04769 0.0
C1432 C 0.48628 0.89893 0.03563 0.0
C1433 C 0.46033 0.86429 0.0509 0.0
C1434 C 0.47835 0.84699 0.04233 0.0
C1435 C 0.50056 0.85576 0.0308 0.0
C1436 C 0.5044 0.88151 0.02727 0.0
C1437 C 0.47385 0.8197 0.04526 0.0
C1438 C 0.49027 0.80579 0.06074 0.0
C1439 C 0.45279 0.8077 0.03387 0.0
C1440 C 0.43565 0.82123 0.01622 0.0
C1441 C 0.44535 0.83349 0.99467 0.0
C1442 C 0.42915 0.84635 0.97819 0.0
C1443 C 0.40317 0.84694 0.98297 0.0
C1444 C 0.39334 0.83461 0.0042 0.0
C1445 C 0.40946 0.82174 0.02075 0.0
H1446 H 0.39066 0.85691 0.9702 0.0
H1447 H 0.548 0.73198 0.12998 0.0
H1448 H 0.09775 0.28471 0.56058 0.0
H1449 H 0.07712 0.24586 0.54747 0.0
H1450 H 0.01228 0.26413 0.59343 0.0
H1451 H 0.03343 0.30251 0.60766 0.0
H1452 H 0.02806 0.2195 0.60468 0.0
H1453 H 0.00827 0.26017 0.52725 0.0
H1454 H 0.01537 0.28583 0.48897 0.0
H1455 H 0.0699 0.2325 0.46221 0.0
H1456 H 0.06343 0.20668 0.5005 0.0
H1457 H 0.97924 0.09919 0.56759 0.0
H1458 H 0.98243 0.14484 0.57226 0.0
H1459 H 0.05577 0.14374 0.5366 0.0
H1460 H 0.05275 0.09833 0.53165 0.0
H1461 H 0.02591 0.18202 0.51857 0.0
H1462 H 0.05082 0.14676 0.60016 0.0
H1463 H 0.04396 0.12137 0.63871 0.0
H1464 H 0.97874 0.16559 0.65716 0.0
H1465 H 0.98505 0.19105 0.61851 0.0
C1466 C 0.07896 0.28062 0.56766 0.0
C1467 C 0.06738 0.29653 0.58542 0.0
C1468 C 0.06701 0.25854 0.55987 0.0
C1469 C 0.04305 0.2521 0.56935 0.0
C1470 C 0.03075 0.26874 0.58585 0.0
C1471 C 0.04279 0.29078 0.5938 0.0
C1472 C 0.03259 0.22664 0.56464 0.0
C1473 C 0.02691 0.21155 0.58575 0.0
C1474 C 0.03147 0.21609 0.54001 0.0
C1475 C 0.03543 0.23153 0.51686 0.0
C1476 C 0.02191 0.25398 0.5133 0.0
C1477 C 0.0258 0.26855 0.49157 0.0
C1478 C 0.04309 0.26081 0.47318 0.0
C1479 C 0.0565 0.23847 0.47646 0.0
C1480 C 0.05269 0.22383 0.49816 0.0
C1481 C 0.99606 0.10865 0.56076 0.0
C1482 C 0.01581 0.09506 0.54939 0.0
C1483 C 0.99782 0.13473 0.56341 0.0
C1484 C 0.01936 0.14761 0.5548 0.0
C1485 C 0.03893 0.13414 0.54323 0.0
C1486 C 0.03723 0.10814 0.54061 0.0
C1487 C 0.02221 0.17499 0.55861 0.0
C1488 C 0.02645 0.19032 0.53736 0.0
C1489 C 0.02194 0.18584 0.58308 0.0
C1490 C 0.01821 0.17059 0.60631 0.0
C1491 C 0.0349 0.15093 0.61234 0.0
C1492 C 0.03113 0.13655 0.63421 0.0
C1493 C 0.01088 0.1418 0.65033 0.0
C1494 C 0.99439 0.1615 0.64463 0.0
C1495 C 0.99805 0.17592 0.62275 0.0
H1496 H 0.00799 0.13065 0.66726 0.0
H1497 H 0.04608 0.27212 0.45637 0.0
H1498 H 0.61721 0.23201 0.43028 0.0
H1499 H 0.59796 0.2702 0.44623 0.0
H1500 H 0.54249 0.22632 0.48679 0.0
H1501 H 0.56196 0.18758 0.47088 0.0
H1502 H 0.52068 0.26469 0.46121 0.0
H1503 H 0.58796 0.25677 0.51984 0.0
H1504 H 0.63153 0.24922 0.53476 0.0
H1505 H 0.65754 0.31367 0.49321 0.0
H1506 H 0.6142 0.3214 0.47772 0.0
H1507 H 0.48431 0.38624 0.51401 0.0
H1508 H 0.49723 0.34211 0.51083 0.0
H1509 H 0.55549 0.36288 0.45763 0.0
H1510 H 0.5427 0.40672 0.46041 0.0
H1511 H 0.57233 0.33301 0.49925 0.0
H1512 H 0.50495 0.33566 0.43598 0.0
H1513 H 0.46099 0.34262 0.42188 0.0
H1514 H 0.4347 0.28733 0.47506 0.0
H1515 H 0.47851 0.28029 0.48971 0.0
C1516 C 0.60128 0.23034 0.44305 0.0
C1517 C 0.59134 0.20669 0.44957 0.0
C1518 C 0.59022 0.25226 0.45211 0.0
C1519 C 0.56904 0.25112 0.46805 0.0
C1520 C 0.55892 0.22759 0.47461 0.0
C1521 C 0.57003 0.20552 0.46549 0.0
C1522 C 0.55713 0.2748 0.47666 0.0
C1523 C 0.53179 0.27943 0.47012 0.0
C1524 C 0.57164 0.29407 0.4882 0.0
C1525 C 0.5978 0.28959 0.49752 0.0
C1526 C 0.60299 0.26924 0.51374 0.0
C1527 C 0.62765 0.26494 0.52232 0.0
C1528 C 0.64729 0.28094 0.51492 0.0
C1529 C 0.6423 0.30129 0.49894 0.0
C1530 C 0.61768 0.30567 0.49029 0.0
C1531 C 0.49973 0.38137 0.50147 0.0
C1532 C 0.5125 0.40003 0.48749 0.0
C1533 C 0.50705 0.35618 0.49968 0.0
C1534 C 0.52736 0.34935 0.48408 0.0
C1535 C 0.53983 0.36785 0.46986 0.0
C1536 C 0.53239 0.39289 0.47139 0.0
C1537 C 0.53634 0.3231 0.48285 0.0
C1538 C 0.56111 0.31804 0.49089 0.0
C1539 C 0.52123 0.30344 0.47298 0.0
C1540 C 0.49494 0.3077 0.46418 0.0
C1541 C 0.48976 0.32518 0.44485 0.0
C1542 C 0.46489 0.32909 0.43671 0.0
C1543 C 0.44505 0.31549 0.44763 0.0
C1544 C 0.45007 0.29789 0.46666 0.0
C1545 C 0.47492 0.29393 0.47488 0.0
H1546 H 0.42581 0.31854 0.4413 0.0
H1547 H 0.66637 0.27758 0.52158 0.0
loop_
_geom_bond_atom_site_label_1
_geom_bond_atom_site_label_2
_geom_bond_distance
_geom_bond_site_symmetry_2
_ccdc_geom_bond_type
P0 O11 1.490 . S
P0 C14 1.812 . S
P0 C20 1.803 . S
P0 C26 1.819 . S
H1 C15 0.941 . S
H2 C16 0.939 . S
H3 C18 0.940 . S
H4 C19 0.940 . S
H5 C21 0.939 . S
H6 C22 0.942 . S
H7 C24 0.940 . S
H8 C25 0.939 . S
H9 C27 0.941 . S
H10 C31 0.939 . S
O11 P0 1.490 . S
H12 C28 0.939 . S
H13 C30 0.940 . S
C14 P0 1.812 . S
C14 C15 1.389 . S
C14 C19 1.391 . S
C15 H1 0.941 . S
C15 C14 1.389 . S
C15 C16 1.397 . S
C16 H2 0.939 . S
C16 C15 1.397 . S
C16 C17 1.378 . S
C17 C16 1.378 . S
C17 C18 1.378 . S
C18 H3 0.940 . S
C18 C17 1.378 . S
C18 C19 1.396 . S
C19 H4 0.940 . S
C19 C14 1.391 . S
C19 C18 1.396 . S
C20 P0 1.803 . S
C20 C21 1.378 . S
C20 C25 1.400 . S
C21 H5 0.939 . S
C21 C20 1.378 . S
C21 C22 1.361 . S
C22 H6 0.942 . S
C22 C21 1.361 . S
C22 C23 1.369 . S
C23 C22 1.369 . S
C23 C24 1.404 . S
C24 H7 0.940 . S
C24 C23 1.404 . S
C24 C25 1.389 . S
C25 H8 0.939 . S
C25 C20 1.400 . S
C25 C24 1.389 . S
C26 P0 1.819 . S
C26 C27 1.391 . S
C26 C31 1.391 . S
C27 H9 0.941 . S
C27 C26 1.391 . S
C27 C28 1.396 . S
C28 H12 0.939 . S
C28 C27 1.396 . S
C28 C29 1.397 . S
C29 C28 1.397 . S
C29 C30 1.385 . S
C30 H13 0.940 . S
C30 C29 1.385 . S
C30 C31 1.388 . S
C31 H10 0.939 . S
C31 C26 1.391 . S
C31 C30 1.388 . S
P32 O43 1.490 . S
P32 C46 1.812 . S
P32 C52 1.803 . S
P32 C58 1.819 . S
H33 C47 0.941 . S
H34 C48 0.939 . S
H35 C50 0.940 . S
H36 C51 0.940 . S
H37 C53 0.939 . S
H38 C54 0.942 . S
H39 C56 0.940 . S
H40 C57 0.939 . S
H41 C59 0.941 . S
H42 C63 0.939 . S
O43 P32 1.490 . S
H44 C60 0.939 . S
H45 C62 0.940 . S
C46 P32 1.812 . S
C46 C47 1.389 . S
C46 C51 1.391 . S
C47 H33 0.941 . S
C47 C46 1.389 . S
C47 C48 1.397 . S
C48 H34 0.939 . S
C48 C47 1.397 . S
C48 C49 1.378 . S
C49 C48 1.378 . S
C49 C50 1.378 . S
C50 H35 0.940 . S
C50 C49 1.378 . S
C50 C51 1.396 . S
C51 H36 0.940 . S
C51 C46 1.391 . S
C51 C50 1.396 . S
C52 P32 1.803 . S
C52 C53 1.378 . S
C52 C57 1.400 . S
C53 H37 0.939 . S
C53 C52 1.378 . S
C53 C54 1.361 . S
C54 H38 0.942 . S
C54 C53 1.361 . S
C54 C55 1.369 . S
C55 C54 1.369 . S
C55 C56 1.404 . S
C56 H39 0.940 . S
C56 C55 1.404 . S
C56 C57 1.389 . S
C57 H40 0.939 . S
C57 C52 1.400 . S
C57 C56 1.389 . S
C58 P32 1.819 . S
C58 C59 1.391 . S
C58 C63 1.391 . S
C59 H41 0.941 . S
C59 C58 1.391 . S
C59 C60 1.396 . S
C60 H44 0.939 . S
C60 C59 1.396 . S
C60 C61 1.397 . S
C61 C60 1.397 . S
C61 C62 1.385 . S
C62 H45 0.940 . S
C62 C61 1.385 . S
C62 C63 1.388 . S
C63 H42 0.939 . S
C63 C58 1.391 . S
C63 C62 1.388 . S
P64 O75 1.490 . S
P64 C78 1.812 . S
P64 C84 1.803 . S
P64 C90 1.819 . S
H65 C79 0.941 . S
H66 C80 0.939 . S
H67 C82 0.940 . S
H68 C83 0.940 . S
H69 C85 0.939 . S
H70 C86 0.942 . S
H71 C88 0.940 . S
H72 C89 0.939 . S
H73 C91 0.941 . S
H74 C95 0.939 . S
O75 P64 1.490 . S
H76 C92 0.939 . S
H77 C94 0.940 . S
C78 P64 1.812 . S
C78 C79 1.389 . S
C78 C83 1.391 . S
C79 H65 0.941 . S
C79 C78 1.389 . S
C79 C80 1.397 . S
C80 H66 0.939 . S
C80 C79 1.397 . S
C80 C81 1.378 . S
C81 C80 1.378 . S
C81 C82 1.378 . S
C82 H67 0.940 . S
C82 C81 1.378 . S
C82 C83 1.396 . S
C83 H68 0.940 . S
C83 C78 1.391 . S
C83 C82 1.396 . S
C84 P64 1.803 . S
C84 C85 1.378 . S
C84 C89 1.400 . S
C85 H69 0.939 . S
C85 C84 1.378 . S
C85 C86 1.361 . S
C86 H70 0.942 . S
C86 C85 1.361 . S
C86 C87 1.369 . S
C87 C86 1.369 . S
C87 C88 1.404 . S
C88 H71 0.940 . S
C88 C87 1.404 . S
C88 C89 1.389 . S
C89 H72 0.939 . S
C89 C84 1.400 . S
C89 C88 1.389 . S
C90 P64 1.819 . S
C90 C91 1.391 . S
C90 C95 1.391 . S
C91 H73 0.941 . S
C91 C90 1.391 . S
C91 C92 1.396 . S
C92 H76 0.939 . S
C92 C91 1.396 . S
C92 C93 1.397 . S
C93 C92 1.397 . S
C93 C94 1.385 . S
C94 H77 0.940 . S
C94 C93 1.385 . S
C94 C95 1.388 . S
C95 H74 0.939 . S
C95 C90 1.391 . S
C95 C94 1.388 . S
P96 O107 1.490 . S
P96 C110 1.812 . S
P96 C116 1.803 . S
P96 C122 1.819 . S
H97 C111 0.941 . S
H98 C112 0.939 . S
H99 C114 0.940 . S
H100 C115 0.940 . S
H101 C117 0.939 . S
H102 C118 0.942 . S
H103 C120 0.940 . S
H104 C121 0.939 . S
H105 C123 0.941 . S
H106 C127 0.939 . S
O107 P96 1.490 . S
H108 C124 0.939 . S
H109 C126 0.940 . S
C110 P96 1.812 . S
C110 C111 1.389 . S
C110 C115 1.391 . S
C111 H97 0.941 . S
C111 C110 1.389 . S
C111 C112 1.397 . S
C112 H98 0.939 . S
C112 C111 1.397 . S
C112 C113 1.378 . S
C113 C112 1.378 . S
C113 C114 1.378 . S
C114 H99 0.940 . S
C114 C113 1.378 . S
C114 C115 1.396 . S
C115 H100 0.940 . S
C115 C110 1.391 . S
C115 C114 1.396 . S
C116 P96 1.803 . S
C116 C117 1.378 . S
C116 C121 1.400 . S
C117 H101 0.939 . S
C117 C116 1.378 . S
C117 C118 1.361 . S
C118 H102 0.942 . S
C118 C117 1.361 . S
C118 C119 1.369 . S
C119 C118 1.369 . S
C119 C120 1.404 . S
C120 H103 0.940 . S
C120 C119 1.404 . S
C120 C121 1.389 . S
C121 H104 0.939 . S
C121 C116 1.400 . S
C121 C120 1.389 . S
C122 P96 1.819 . S
C122 C123 1.391 . S
C122 C127 1.391 . S
C123 H105 0.941 . S
C123 C122 1.391 . S
C123 C124 1.396 . S
C124 H108 0.939 . S
C124 C123 1.396 . S
C124 C125 1.397 . S
C125 C124 1.397 . S
C125 C126 1.385 . S
C126 H109 0.940 . S
C126 C125 1.385 . S
C126 C127 1.388 . S
C127 H106 0.939 . S
C127 C122 1.391 . S
C127 C126 1.388 . S
P128 O139 1.490 . S
P128 C142 1.812 . S
P128 C148 1.803 . S
P128 C154 1.819 . S
H129 C143 0.941 . S
H130 C144 0.939 . S
H131 C146 0.940 . S
H132 C147 0.940 . S
H133 C149 0.939 . S
H134 C150 0.942 . S
H135 C152 0.940 . S
H136 C153 0.939 . S
H137 C155 0.941 . S
H138 C159 0.939 . S
O139 P128 1.490 . S
H140 C156 0.939 . S
H141 C158 0.940 . S
C142 P128 1.812 . S
C142 C143 1.389 . S
C142 C147 1.391 . S
C143 H129 0.941 . S
C143 C142 1.389 . S
C143 C144 1.397 . S
C144 H130 0.939 . S
C144 C143 1.397 . S
C144 C145 1.378 . S
C145 C144 1.378 . S
C145 C146 1.378 . S
C146 H131 0.940 . S
C146 C145 1.378 . S
C146 C147 1.396 . S
C147 H132 0.940 . S
C147 C142 1.391 . S
C147 C146 1.396 . S
C148 P128 1.803 . S
C148 C149 1.378 . S
C148 C153 1.400 . S
C149 H133 0.939 . S
C149 C148 1.378 . S
C149 C150 1.361 . S
C150 H134 0.942 . S
C150 C149 1.361 . S
C150 C151 1.369 . S
C151 C150 1.369 . S
C151 C152 1.404 . S
C152 H135 0.940 . S
C152 C151 1.404 . S
C152 C153 1.389 . S
C153 H136 0.939 . S
C153 C148 1.400 . S
C153 C152 1.389 . S
C154 P128 1.819 . S
C154 C155 1.391 . S
C154 C159 1.391 . S
C155 H137 0.941 . S
C155 C154 1.391 . S
C155 C156 1.396 . S
C156 H140 0.939 . S
C156 C155 1.396 . S
C156 C157 1.397 . S
C157 C156 1.397 . S
C157 C158 1.385 . S
C158 H141 0.940 . S
C158 C157 1.385 . S
C158 C159 1.388 . S
C159 H138 0.939 . S
C159 C154 1.391 . S
C159 C158 1.388 . S
P160 O171 1.490 . S
P160 C174 1.812 . S
P160 C180 1.803 . S
P160 C186 1.819 . S
H161 C175 0.941 . S
H162 C176 0.939 . S
H163 C178 0.940 . S
H164 C179 0.940 . S
H165 C181 0.939 . S
H166 C182 0.942 . S
H167 C184 0.940 . S
H168 C185 0.939 . S
H169 C187 0.941 . S
H170 C191 0.939 . S
O171 P160 1.490 . S
H172 C188 0.939 . S
H173 C190 0.940 . S
C174 P160 1.812 . S
C174 C175 1.389 . S
C174 C179 1.391 . S
C175 H161 0.941 . S
C175 C174 1.389 . S
C175 C176 1.397 . S
C176 H162 0.939 . S
C176 C175 1.397 . S
C176 C177 1.378 . S
C177 C176 1.378 . S
C177 C178 1.378 . S
C178 H163 0.940 . S
C178 C177 1.378 . S
C178 C179 1.396 . S
C179 H164 0.940 . S
C179 C174 1.391 . S
C179 C178 1.396 . S
C180 P160 1.803 . S
C180 C181 1.378 . S
C180 C185 1.400 . S
C181 H165 0.939 . S
C181 C180 1.378 . S
C181 C182 1.361 . S
C182 H166 0.942 . S
C182 C181 1.361 . S
C182 C183 1.369 . S
C183 C182 1.369 . S
C183 C184 1.404 . S
C184 H167 0.940 . S
C184 C183 1.404 . S
C184 C185 1.389 . S
C185 H168 0.939 . S
C185 C180 1.400 . S
C185 C184 1.389 . S
C186 P160 1.819 . S
C186 C187 1.391 . S
C186 C191 1.391 . S
C187 H169 0.941 . S
C187 C186 1.391 . S
C187 C188 1.396 . S
C188 H172 0.939 . S
C188 C187 1.396 . S
C188 C189 1.397 . S
C189 C188 1.397 . S
C189 C190 1.385 . S
C190 H173 0.940 . S
C190 C189 1.385 . S
C190 C191 1.388 . S
C191 H170 0.939 . S
C191 C186 1.391 . S
C191 C190 1.388 . S
P192 O203 1.490 . S
P192 C206 1.812 . S
P192 C212 1.803 . S
P192 C218 1.819 . S
H193 C207 0.941 . S
H194 C208 0.939 . S
H195 C210 0.940 . S
H196 C211 0.940 . S
H197 C213 0.939 . S
H198 C214 0.942 . S
H199 C216 0.940 . S
H200 C217 0.939 . S
H201 C219 0.941 . S
H202 C223 0.939 . S
O203 P192 1.490 . S
H204 C220 0.939 . S
H205 C222 0.940 . S
C206 P192 1.812 . S
C206 C207 1.389 . S
C206 C211 1.391 . S
C207 H193 0.941 . S
C207 C206 1.389 . S
C207 C208 1.397 . S
C208 H194 0.939 . S
C208 C207 1.397 . S
C208 C209 1.378 . S
C209 C208 1.378 . S
C209 C210 1.378 . S
C210 H195 0.940 . S
C210 C209 1.378 . S
C210 C211 1.396 . S
C211 H196 0.940 . S
C211 C206 1.391 . S
C211 C210 1.396 . S
C212 P192 1.803 . S
C212 C213 1.378 . S
C212 C217 1.400 . S
C213 H197 0.939 . S
C213 C212 1.378 . S
C213 C214 1.361 . S
C214 H198 0.942 . S
C214 C213 1.361 . S
C214 C215 1.369 . S
C215 C214 1.369 . S
C215 C216 1.404 . S
C216 H199 0.940 . S
C216 C215 1.404 . S
C216 C217 1.389 . S
C217 H200 0.939 . S
C217 C212 1.400 . S
C217 C216 1.389 . S
C218 P192 1.819 . S
C218 C219 1.391 . S
C218 C223 1.391 . S
C219 H201 0.941 . S
C219 C218 1.391 . S
C219 C220 1.396 . S
C220 H204 0.939 . S
C220 C219 1.396 . S
C220 C221 1.397 . S
C221 C220 1.397 . S
C221 C222 1.385 . S
C222 H205 0.940 . S
C222 C221 1.385 . S
C222 C223 1.388 . S
C223 H202 0.939 . S
C223 C218 1.391 . S
C223 C222 1.388 . S
P224 O235 1.490 . S
P224 C238 1.812 . S
P224 C244 1.803 . S
P224 C250 1.819 . S
H225 C239 0.941 . S
H226 C240 0.939 . S
H227 C242 0.940 . S
H228 C243 0.940 . S
H229 C245 0.939 . S
H230 C246 0.942 . S
H231 C248 0.940 . S
H232 C249 0.939 . S
H233 C251 0.941 . S
H234 C255 0.939 . S
O235 P224 1.490 . S
H236 C252 0.939 . S
H237 C254 0.940 . S
C238 P224 1.812 . S
C238 C239 1.389 . S
C238 C243 1.391 . S
C239 H225 0.941 . S
C239 C238 1.389 . S
C239 C240 1.397 . S
C240 H226 0.939 . S
C240 C239 1.397 . S
C240 C241 1.378 . S
C241 C240 1.378 . S
C241 C242 1.378 . S
C242 H227 0.940 . S
C242 C241 1.378 . S
C242 C243 1.396 . S
C243 H228 0.940 . S
C243 C238 1.391 . S
C243 C242 1.396 . S
C244 P224 1.803 . S
C244 C245 1.378 . S
C244 C249 1.400 . S
C245 H229 0.939 . S
C245 C244 1.378 . S
C245 C246 1.361 . S
C246 H230 0.942 . S
C246 C245 1.361 . S
C246 C247 1.369 . S
C247 C246 1.369 . S
C247 C248 1.404 . S
C248 H231 0.940 . S
C248 C247 1.404 . S
C248 C249 1.389 . S
C249 H232 0.939 . S
C249 C244 1.400 . S
C249 C248 1.389 . S
C250 P224 1.819 . S
C250 C251 1.391 . S
C250 C255 1.391 . S
C251 H233 0.941 . S
C251 C250 1.391 . S
C251 C252 1.396 . S
C252 H236 0.939 . S
C252 C251 1.396 . S
C252 C253 1.397 . S
C253 C252 1.397 . S
C253 C254 1.385 . S
C254 H237 0.940 . S
C254 C253 1.385 . S
C254 C255 1.388 . S
C255 H234 0.939 . S
C255 C250 1.391 . S
C255 C254 1.388 . S
O256 Zn257 1.953 . S
O256 C272 1.225 1_655 S
Zn257 O256 1.953 . S
Zn257 O258 1.949 1_655 S
Zn257 O264 1.919 . S
Zn257 O269 1.924 . S
O258 Zn257 1.949 1_455 S
O258 Zn259 1.923 1_445 S
O258 Zn260 1.950 . S
O258 Zn261 1.945 1_545 S
Zn259 O258 1.923 1_665 S
Zn259 O262 1.933 . S
Zn259 O265 1.941 1_565 S
Zn259 O266 1.965 1_665 S
Zn260 O258 1.950 . S
Zn260 O267 1.938 . S
Zn260 O268 1.906 1_545 S
Zn260 O278 1.953 . S
Zn261 O258 1.945 1_565 S
Zn261 O263 1.932 1_455 S
Zn261 O270 1.977 . S
Zn261 O271 1.910 1_455 S
O262 Zn259 1.933 . S
O262 C273 1.226 . S
O263 Zn261 1.932 1_655 S
O263 C273 1.307 . S
O264 Zn257 1.919 . S
O264 C275 1.253 . S
O265 Zn259 1.941 1_545 S
O265 C275 1.283 . S
O266 Zn259 1.965 1_445 S
O266 C274 1.303 . S
O267 Zn260 1.938 . S
O267 C274 1.247 . S
O268 Zn260 1.906 1_565 S
O268 C276 1.304 . S
O269 Zn257 1.924 . S
O269 C277 1.311 1_545 S
O270 Zn261 1.977 . S
O270 C276 1.272 . S
O271 Zn261 1.910 1_655 S
O271 C277 1.231 . S
C272 O256 1.225 1_455 S
C272 O278 1.298 . S
C273 O262 1.226 . S
C273 O263 1.307 . S
C274 O266 1.303 . S
C274 O267 1.247 . S
C275 O264 1.253 . S
C275 O265 1.283 . S
C276 O268 1.304 . S
C276 O270 1.272 . S
C277 O269 1.311 1_565 S
C277 O271 1.231 . S
O278 Zn260 1.953 . S
O278 C272 1.298 . S
O279 Zn280 1.953 . S
O279 C295 1.225 1_556 S
Zn280 O279 1.953 . S
Zn280 O281 1.949 1_556 S
Zn280 O287 1.919 . S
Zn280 O292 1.924 1_556 S
O281 Zn280 1.949 1_554 S
O281 Zn282 1.923 1_545 S
O281 Zn283 1.950 . S
O281 Zn284 1.944 1_545 S
Zn282 O281 1.923 1_565 S
Zn282 O285 1.933 . S
Zn282 O288 1.941 1_554 S
Zn282 O289 1.965 . S
Zn283 O281 1.950 . S
Zn283 O290 1.938 . S
Zn283 O291 1.906 . S
Zn283 O301 1.953 . S
Zn284 O281 1.944 1_565 S
Zn284 O286 1.934 . S
Zn284 O293 1.976 1_565 S
Zn284 O294 1.909 1_565 S
O285 Zn282 1.933 . S
O285 C296 1.226 . S
O286 Zn284 1.934 . S
O286 C296 1.307 . S
O287 Zn280 1.919 . S
O287 C298 1.253 1_545 S
O288 Zn282 1.941 1_556 S
O288 C298 1.283 . S
O289 Zn282 1.965 . S
O289 C297 1.303 . S
O290 Zn283 1.938 . S
O290 C297 1.247 1_545 S
O291 Zn283 1.906 . S
O291 C299 1.304 . S
O292 Zn280 1.924 1_554 S
O292 C300 1.311 . S
O293 Zn284 1.976 1_545 S
O293 C299 1.272 . S
O294 Zn284 1.909 1_545 S
O294 C300 1.231 . S
C295 O279 1.225 1_554 S
C295 O301 1.298 . S
C296 O285 1.226 . S
C296 O286 1.307 . S
C297 O289 1.303 . S
C297 O290 1.247 1_565 S
C298 O287 1.253 1_565 S
C298 O288 1.283 . S
C299 O291 1.304 . S
C299 O293 1.272 . S
C300 O292 1.311 . S
C300 O294 1.231 . S
O301 Zn283 1.953 . S
O301 C295 1.298 . S
O302 Zn303 1.953 . S
O302 C318 1.225 . S
Zn303 O302 1.953 . S
Zn303 O304 1.949 . S
Zn303 O310 1.919 . S
Zn303 O315 1.924 . S
O304 Zn303 1.949 . S
O304 Zn305 1.923 . S
O304 Zn306 1.950 . S
O304 Zn307 1.945 . S
Zn305 O304 1.923 . S
Zn305 O308 1.933 . S
Zn305 O311 1.941 . S
Zn305 O312 1.965 . S
Zn306 O304 1.950 . S
Zn306 O313 1.938 . S
Zn306 O314 1.906 . S
Zn306 O324 1.953 . S
Zn307 O304 1.945 . S
Zn307 O309 1.932 . S
Zn307 O316 1.977 . S
Zn307 O317 1.910 . S
O308 Zn305 1.933 . S
O308 C319 1.226 . S
O309 Zn307 1.932 . S
O309 C319 1.307 . S
O310 Zn303 1.919 . S
O310 C321 1.253 . S
O311 Zn305 1.941 . S
O311 C321 1.283 . S
O312 Zn305 1.965 . S
O312 C320 1.303 . S
O313 Zn306 1.938 . S
O313 C320 1.247 . S
O314 Zn306 1.906 . S
O314 C322 1.304 . S
O315 Zn303 1.924 . S
O315 C323 1.311 . S
O316 Zn307 1.977 . S
O316 C322 1.272 . S
O317 Zn307 1.910 . S
O317 C323 1.231 . S
C318 O302 1.225 . S
C318 O324 1.298 . S
C319 O308 1.226 . S
C319 O309 1.307 . S
C320 O312 1.303 . S
C320 O313 1.247 . S
C321 O310 1.253 . S
C321 O311 1.283 . S
C322 O314 1.304 . S
C322 O316 1.272 . S
C323 O315 1.311 . S
C323 O317 1.231 . S
O324 Zn306 1.953 . S
O324 C318 1.298 . S
O325 Zn326 1.953 . S
O325 C341 1.225 . S
Zn326 O325 1.953 . S
Zn326 O327 1.949 1_655 S
Zn326 O333 1.919 . S
Zn326 O338 1.924 . S
O327 Zn326 1.949 1_455 S
O327 Zn328 1.923 1_454 S
O327 Zn329 1.950 . S
O327 Zn330 1.945 1_554 S
Zn328 O327 1.923 1_656 S
Zn328 O331 1.933 1_655 S
Zn328 O334 1.941 . S
Zn328 O335 1.965 . S
Zn329 O327 1.950 . S
Zn329 O336 1.938 . S
Zn329 O337 1.906 . S
Zn329 O347 1.953 . S
Zn330 O327 1.945 1_556 S
Zn330 O332 1.932 . S
Zn330 O339 1.977 1_556 S
Zn330 O340 1.910 1_556 S
O331 Zn328 1.933 1_455 S
O331 C342 1.226 . S
O332 Zn330 1.932 . S
O332 C342 1.307 . S
O333 Zn326 1.919 . S
O333 C344 1.253 1_554 S
O334 Zn328 1.941 . S
O334 C344 1.283 . S
O335 Zn328 1.965 . S
O335 C343 1.303 . S
O336 Zn329 1.938 . S
O336 C343 1.247 1_454 S
O337 Zn329 1.906 . S
O337 C345 1.304 . S
O338 Zn326 1.924 . S
O338 C346 1.311 1_655 S
O339 Zn330 1.977 1_554 S
O339 C345 1.272 . S
O340 Zn330 1.910 1_554 S
O340 C346 1.231 . S
C341 O325 1.225 . S
C341 O347 1.298 1_655 S
C342 O331 1.226 . S
C342 O332 1.307 . S
C343 O335 1.303 . S
C343 O336 1.247 1_656 S
C344 O333 1.253 1_556 S
C344 O334 1.283 . S
C345 O337 1.304 . S
C345 O339 1.272 . S
C346 O338 1.311 1_455 S
C346 O340 1.231 . S
O347 Zn329 1.953 . S
O347 C341 1.298 1_455 S
H348 C366 0.951 . S
H349 C368 0.951 . S
H350 C370 0.950 . S
H351 C371 0.950 . S
H352 C373 0.950 . S
H353 C376 0.950 . S
H354 C377 0.950 . S
H355 C379 0.950 . S
H356 C380 0.950 . S
H357 C381 0.951 . S
H358 C383 0.951 . S
H359 C385 0.950 . S
H360 C386 0.950 . S
H361 C388 0.950 . S
H362 C391 0.950 . S
H363 C392 0.950 . S
H364 C394 0.950 . S
H365 C395 0.950 . S
C366 H348 0.951 . S
C366 C367 1.366 . S
C366 C368 1.388 . S
C367 C366 1.366 . S
C367 C371 1.385 . S
C368 H349 0.951 . S
C368 C366 1.388 . S
C368 C369 1.366 . S
C369 C368 1.366 . S
C369 C370 1.414 . S
C369 C372 1.499 . S
C370 H350 0.950 . S
C370 C369 1.414 . S
C370 C371 1.374 . S
C371 H351 0.950 . S
C371 C367 1.385 . S
C371 C370 1.374 . S
C372 C369 1.499 . S
C372 C373 1.373 . S
C372 C374 1.389 . S
C373 H352 0.950 . S
C373 C372 1.373 . S
C373 C389 1.377 . S
C374 C372 1.389 . S
C374 C375 1.524 . S
C374 C388 1.377 . S
C375 C374 1.524 . S
C375 C376 1.397 . S
C375 C380 1.363 . S
C376 H353 0.950 . S
C376 C375 1.397 . S
C376 C377 1.334 . S
C377 H354 0.950 . S
C377 C376 1.334 . S
C377 C378 1.287 1_455 S
C378 C377 1.287 1_655 S
C378 C379 1.524 . S
C378 H397 0.913 . S
C379 H355 0.950 . S
C379 C378 1.524 . S
C379 C380 1.415 1_655 S
C380 H356 0.950 . S
C380 C375 1.363 . S
C380 C379 1.415 1_455 S
C381 H357 0.951 . S
C381 C382 1.366 . S
C381 C383 1.388 . S
C382 C381 1.366 . S
C382 C386 1.385 . S
C383 H358 0.951 . S
C383 C381 1.388 . S
C383 C384 1.366 . S
C384 C383 1.366 . S
C384 C385 1.414 . S
C384 C387 1.499 . S
C385 H359 0.950 . S
C385 C384 1.414 . S
C385 C386 1.374 . S
C386 H360 0.950 . S
C386 C382 1.385 . S
C386 C385 1.374 . S
C387 C384 1.499 . S
C387 C388 1.373 . S
C387 C389 1.389 . S
C388 H361 0.950 . S
C388 C374 1.377 . S
C388 C387 1.373 . S
C389 C373 1.377 . S
C389 C387 1.389 . S
C389 C390 1.524 . S
C390 C389 1.524 . S
C390 C391 1.397 . S
C390 C395 1.363 . S
C391 H362 0.950 . S
C391 C390 1.397 . S
C391 C392 1.334 . S
C392 H363 0.950 . S
C392 C391 1.334 . S
C392 C393 1.287 . S
C393 C392 1.287 . S
C393 C394 1.524 . S
C393 H396 0.999 . S
C394 H364 0.950 . S
C394 C393 1.524 . S
C394 C395 1.415 . S
C395 H365 0.950 . S
C395 C390 1.363 . S
C395 C394 1.415 . S
H396 C393 0.999 . S
H397 C378 0.913 . S
H398 C416 0.951 . S
H399 C418 0.951 . S
H400 C420 0.950 . S
H401 C421 0.950 . S
H402 C423 0.950 . S
H403 C426 0.950 . S
H404 C427 0.950 . S
H405 C429 0.950 . S
H406 C430 0.950 . S
H407 C431 0.951 . S
H408 C433 0.951 . S
H409 C435 0.950 . S
H410 C436 0.950 1_545 S
H411 C438 0.950 . S
H412 C441 0.950 . S
H413 C442 0.950 . S
H414 C444 0.950 . S
H415 C445 0.950 . S
C416 H398 0.951 . S
C416 C417 1.366 . S
C416 C418 1.388 . S
C417 C416 1.366 . S
C417 C421 1.385 . S
C418 H399 0.951 . S
C418 C416 1.388 . S
C418 C419 1.366 . S
C419 C418 1.366 . S
C419 C420 1.414 . S
C419 C422 1.499 . S
C420 H400 0.950 . S
C420 C419 1.414 . S
C420 C421 1.374 . S
C421 H401 0.950 . S
C421 C417 1.385 . S
C421 C420 1.374 . S
C422 C419 1.499 . S
C422 C423 1.373 . S
C422 C424 1.389 . S
C423 H402 0.950 . S
C423 C422 1.373 . S
C423 C439 1.377 . S
C424 C422 1.389 . S
C424 C425 1.524 . S
C424 C438 1.377 . S
C425 C424 1.524 . S
C425 C426 1.397 . S
C425 C430 1.363 . S
C426 H403 0.950 . S
C426 C425 1.397 . S
C426 C427 1.334 . S
C427 H404 0.950 . S
C427 C426 1.334 . S
C427 C428 1.287 . S
C428 C427 1.287 . S
C428 C429 1.524 1_565 S
C428 H447 0.913 1_565 S
C429 H405 0.950 . S
C429 C428 1.524 1_545 S
C429 C430 1.415 1_545 S
C430 H406 0.950 . S
C430 C425 1.363 . S
C430 C429 1.415 1_565 S
C431 H407 0.951 . S
C431 C432 1.366 . S
C431 C433 1.388 . S
C432 C431 1.366 . S
C432 C436 1.385 . S
C433 H408 0.951 . S
C433 C431 1.388 . S
C433 C434 1.366 . S
C434 C433 1.366 . S
C434 C435 1.414 . S
C434 C437 1.499 . S
C435 H409 0.950 . S
C435 C434 1.414 . S
C435 C436 1.374 . S
C436 H410 0.950 1_565 S
C436 C432 1.385 . S
C436 C435 1.374 . S
C437 C434 1.499 . S
C437 C438 1.373 . S
C437 C439 1.389 . S
C438 H411 0.950 . S
C438 C424 1.377 . S
C438 C437 1.373 . S
C439 C423 1.377 . S
C439 C437 1.389 . S
C439 C440 1.524 . S
C440 C439 1.524 . S
C440 C441 1.397 . S
C440 C445 1.363 . S
C441 H412 0.950 . S
C441 C440 1.397 . S
C441 C442 1.334 . S
C442 H413 0.950 . S
C442 C441 1.334 . S
C442 C443 1.287 . S
C443 C442 1.287 . S
C443 C444 1.524 . S
C443 H446 0.999 . S
C444 H414 0.950 . S
C444 C443 1.524 . S
C444 C445 1.415 . S
C445 H415 0.950 . S
C445 C440 1.363 . S
C445 C444 1.415 . S
H446 C443 0.999 . S
H447 C428 0.913 1_545 S
H448 C466 0.951 . S
H449 C468 0.951 . S
H450 C470 0.950 . S
H451 C471 0.950 . S
H452 C473 0.950 . S
H453 C476 0.950 . S
H454 C477 0.950 . S
H455 C479 0.950 . S
H456 C480 0.950 . S
H457 C481 0.951 . S
H458 C483 0.951 . S
H459 C485 0.950 . S
H460 C486 0.950 . S
H461 C488 0.950 . S
H462 C491 0.950 . S
H463 C492 0.950 . S
H464 C494 0.950 . S
H465 C495 0.950 . S
C466 H448 0.951 . S
C466 C467 1.366 . S
C466 C468 1.388 . S
C467 C466 1.366 . S
C467 C471 1.385 . S
C468 H449 0.951 . S
C468 C466 1.388 . S
C468 C469 1.366 . S
C469 C468 1.366 . S
C469 C470 1.414 . S
C469 C472 1.499 . S
C470 H450 0.950 . S
C470 C469 1.414 . S
C470 C471 1.374 . S
C471 H451 0.950 . S
C471 C467 1.385 . S
C471 C470 1.374 . S
C472 C469 1.499 . S
C472 C473 1.373 . S
C472 C474 1.389 . S
C473 H452 0.950 . S
C473 C472 1.373 . S
C473 C489 1.377 . S
C474 C472 1.389 . S
C474 C475 1.524 . S
C474 C488 1.377 . S
C475 C474 1.524 . S
C475 C476 1.397 . S
C475 C480 1.363 . S
C476 H453 0.950 . S
C476 C475 1.397 . S
C476 C477 1.334 . S
C477 H454 0.950 . S
C477 C476 1.334 . S
C477 C478 1.287 . S
C478 C477 1.287 . S
C478 C479 1.524 . S
C478 H497 0.913 . S
C479 H455 0.950 . S
C479 C478 1.524 . S
C479 C480 1.415 . S
C480 H456 0.950 . S
C480 C475 1.363 . S
C480 C479 1.415 . S
C481 H457 0.951 . S
C481 C482 1.366 . S
C481 C483 1.388 . S
C482 C481 1.366 . S
C482 C486 1.385 . S
C483 H458 0.951 . S
C483 C481 1.388 . S
C483 C484 1.366 . S
C484 C483 1.366 . S
C484 C485 1.414 . S
C484 C487 1.499 . S
C485 H459 0.950 . S
C485 C484 1.414 . S
C485 C486 1.374 . S
C486 H460 0.950 . S
C486 C482 1.385 . S
C486 C485 1.374 . S
C487 C484 1.499 . S
C487 C488 1.373 . S
C487 C489 1.389 . S
C488 H461 0.950 . S
C488 C474 1.377 . S
C488 C487 1.373 . S
C489 C473 1.377 . S
C489 C487 1.389 . S
C489 C490 1.524 . S
C490 C489 1.524 . S
C490 C491 1.397 . S
C490 C495 1.363 . S
C491 H462 0.950 . S
C491 C490 1.397 . S
C491 C492 1.334 . S
C492 H463 0.950 . S
C492 C491 1.334 . S
C492 C493 1.287 . S
C493 C492 1.287 . S
C493 C494 1.524 . S
C493 H496 0.999 . S
C494 H464 0.950 . S
C494 C493 1.524 . S
C494 C495 1.415 . S
C495 H465 0.950 . S
C495 C490 1.363 . S
C495 C494 1.415 . S
H496 C493 0.999 . S
H497 C478 0.913 . S
H498 C516 0.951 . S
H499 C518 0.951 . S
H500 C520 0.950 . S
H501 C521 0.950 . S
H502 C523 0.950 . S
H503 C526 0.950 . S
H504 C527 0.950 . S
H505 C529 0.950 . S
H506 C530 0.950 . S
H507 C531 0.951 1_455 S
H508 C533 0.951 . S
H509 C535 0.950 . S
H510 C536 0.950 . S
H511 C538 0.950 . S
H512 C541 0.934 1_655 S
H513 C542 0.950 . S
H514 C544 0.950 . S
H515 C545 0.950 . S
C516 H498 0.951 . S
C516 C517 1.366 . S
C516 C518 1.388 . S
C517 C516 1.366 . S
C517 C521 1.385 . S
C518 H499 0.951 . S
C518 C516 1.388 . S
C518 C519 1.366 . S
C519 C518 1.366 . S
C519 C520 1.414 . S
C519 C522 1.499 . S
C520 H500 0.950 . S
C520 C519 1.414 . S
C520 C521 1.374 . S
C521 H501 0.950 . S
C521 C517 1.385 . S
C521 C520 1.374 . S
C522 C519 1.499 . S
C522 C523 1.373 . S
C522 C524 1.389 . S
C523 H502 0.950 . S
C523 C522 1.373 . S
C523 C539 1.377 . S
C524 C522 1.389 . S
C524 C525 1.524 . S
C524 C538 1.377 . S
C525 C524 1.524 . S
C525 C526 1.397 . S
C525 C530 1.363 . S
C526 H503 0.950 . S
C526 C525 1.397 . S
C526 C527 1.334 . S
C527 H504 0.950 . S
C527 C526 1.334 . S
C527 C528 1.287 . S
C528 C527 1.287 . S
C528 C529 1.524 . S
C528 H547 0.913 . S
C529 H505 0.950 . S
C529 C528 1.524 . S
C529 C530 1.415 . S
C530 H506 0.950 . S
C530 C525 1.363 . S
C530 C529 1.415 . S
C531 H507 0.951 1_655 S
C531 C532 1.366 . S
C531 C533 1.388 . S
C532 C531 1.366 . S
C532 C536 1.385 . S
C533 H508 0.951 . S
C533 C531 1.388 . S
C533 C534 1.366 . S
C534 C533 1.366 . S
C534 C535 1.414 . S
C534 C537 1.499 . S
C535 H509 0.950 . S
C535 C534 1.414 . S
C535 C536 1.374 . S
C536 H510 0.950 . S
C536 C532 1.385 . S
C536 C535 1.374 . S
C537 C534 1.499 . S
C537 C538 1.373 . S
C537 C539 1.389 . S
C538 H511 0.950 . S
C538 C524 1.377 . S
C538 C537 1.373 . S
C539 C523 1.377 . S
C539 C537 1.389 . S
C539 C540 1.524 1_655 S
C540 C539 1.524 1_455 S
C540 C541 1.397 . S
C540 C545 1.363 . S
C541 H512 0.934 1_455 S
C541 C540 1.397 . S
C541 C542 1.334 . S
C542 H513 0.950 . S
C542 C541 1.334 . S
C542 C543 1.287 . S
C543 C542 1.287 . S
C543 C544 1.524 . S
C543 H546 0.999 . S
C544 H514 0.950 . S
C544 C543 1.524 . S
C544 C545 1.415 . S
C545 H515 0.950 . S
C545 C540 1.363 . S
C545 C544 1.415 . S
H546 C543 0.999 . S
H547 C528 0.913 . S
H548 C566 0.951 . S
H549 C568 0.951 . S
H550 C570 0.950 . S
H551 C571 0.950 . S
H552 C573 0.950 . S
H553 C576 0.950 . S
H554 C577 0.950 . S
H555 C579 0.950 . S
H556 C580 0.950 . S
H557 C581 0.951 . S
H558 C583 0.951 . S
H559 C585 0.950 . S
H560 C586 0.950 . S
H561 C588 0.950 . S
H562 C591 0.950 . S
H563 C592 0.950 . S
H564 C594 0.950 . S
H565 C595 0.950 . S
C566 H548 0.951 . S
C566 C567 1.366 . S
C566 C568 1.388 . S
C567 C566 1.366 . S
C567 C571 1.385 . S
C568 H549 0.951 . S
C568 C566 1.388 . S
C568 C569 1.366 . S
C569 C568 1.366 . S
C569 C570 1.414 . S
C569 C572 1.499 . S
C570 H550 0.950 . S
C570 C569 1.414 . S
C570 C571 1.374 . S
C571 H551 0.950 . S
C571 C567 1.385 . S
C571 C570 1.374 . S
C572 C569 1.499 . S
C572 C573 1.373 . S
C572 C574 1.389 . S
C573 H552 0.950 . S
C573 C572 1.373 . S
C573 C589 1.377 . S
C574 C572 1.389 . S
C574 C575 1.524 . S
C574 C588 1.377 . S
C575 C574 1.524 . S
C575 C576 1.397 . S
C575 C580 1.363 . S
C576 H553 0.950 . S
C576 C575 1.397 . S
C576 C577 1.334 . S
C577 H554 0.950 . S
C577 C576 1.334 . S
C577 C578 1.287 . S
C578 C577 1.287 . S
C578 C579 1.524 . S
C578 H597 0.913 . S
C579 H555 0.950 . S
C579 C578 1.524 . S
C579 C580 1.415 . S
C580 H556 0.950 . S
C580 C575 1.363 . S
C580 C579 1.415 . S
C581 H557 0.951 . S
C581 C582 1.366 . S
C581 C583 1.388 . S
C582 C581 1.366 . S
C582 C586 1.385 . S
C583 H558 0.951 . S
C583 C581 1.388 . S
C583 C584 1.366 . S
C584 C583 1.366 . S
C584 C585 1.414 . S
C584 C587 1.499 . S
C585 H559 0.950 . S
C585 C584 1.414 . S
C585 C586 1.374 . S
C586 H560 0.950 . S
C586 C582 1.385 . S
C586 C585 1.374 . S
C587 C584 1.499 . S
C587 C588 1.373 . S
C587 C589 1.389 . S
C588 H561 0.950 . S
C588 C574 1.377 . S
C588 C587 1.373 . S
C589 C573 1.377 . S
C589 C587 1.389 . S
C589 C590 1.524 . S
C590 C589 1.524 . S
C590 C591 1.397 . S
C590 C595 1.363 . S
C591 H562 0.950 . S
C591 C590 1.397 . S
C591 C592 1.334 . S
C592 H563 0.950 . S
C592 C591 1.334 . S
C592 C593 1.287 1_545 S
C593 C592 1.287 1_565 S
C593 C594 1.524 . S
C593 H596 0.999 . S
C594 H564 0.950 . S
C594 C593 1.524 . S
C594 C595 1.415 1_565 S
C595 H565 0.950 . S
C595 C590 1.363 . S
C595 C594 1.415 1_545 S
H596 C593 0.999 . S
H597 C578 0.913 . S
H598 C616 0.951 . S
H599 C618 0.951 . S
H600 C620 0.950 . S
H601 C621 0.950 . S
H602 C623 0.950 . S
H603 C626 0.950 . S
H604 C627 0.950 . S
H605 C629 0.950 . S
H606 C630 0.950 . S
H607 C631 0.951 . S
H608 C633 0.951 . S
H609 C635 0.950 . S
H610 C636 0.950 . S
H611 C638 0.950 . S
H612 C641 0.950 . S
H613 C642 0.950 . S
H614 C644 0.950 . S
H615 C645 0.950 . S
C616 H598 0.951 . S
C616 C617 1.366 . S
C616 C618 1.388 . S
C617 C616 1.366 . S
C617 C621 1.385 . S
C618 H599 0.951 . S
C618 C616 1.388 . S
C618 C619 1.366 . S
C619 C618 1.366 . S
C619 C620 1.414 . S
C619 C622 1.499 . S
C620 H600 0.950 . S
C620 C619 1.414 . S
C620 C621 1.374 . S
C621 H601 0.950 . S
C621 C617 1.385 . S
C621 C620 1.374 . S
C622 C619 1.499 . S
C622 C623 1.373 . S
C622 C624 1.389 . S
C623 H602 0.950 . S
C623 C622 1.373 . S
C623 C639 1.377 . S
C624 C622 1.389 . S
C624 C625 1.524 . S
C624 C638 1.377 . S
C625 C624 1.524 . S
C625 C626 1.397 . S
C625 C630 1.363 . S
C626 H603 0.950 . S
C626 C625 1.397 . S
C626 C627 1.334 . S
C627 H604 0.950 . S
C627 C626 1.334 . S
C627 C628 1.287 . S
C628 C627 1.287 . S
C628 C629 1.524 . S
C628 H647 0.913 . S
C629 H605 0.950 . S
C629 C628 1.524 . S
C629 C630 1.415 . S
C630 H606 0.950 . S
C630 C625 1.363 . S
C630 C629 1.415 . S
C631 H607 0.951 . S
C631 C632 1.366 . S
C631 C633 1.388 . S
C632 C631 1.366 . S
C632 C636 1.385 . S
C633 H608 0.951 . S
C633 C631 1.388 . S
C633 C634 1.366 . S
C634 C633 1.366 . S
C634 C635 1.414 . S
C634 C637 1.499 . S
C635 H609 0.950 . S
C635 C634 1.414 . S
C635 C636 1.374 . S
C636 H610 0.950 . S
C636 C632 1.385 . S
C636 C635 1.374 . S
C637 C634 1.499 . S
C637 C638 1.373 . S
C637 C639 1.389 . S
C638 H611 0.950 . S
C638 C624 1.377 . S
C638 C637 1.373 . S
C639 C623 1.377 . S
C639 C637 1.389 . S
C639 C640 1.524 . S
C640 C639 1.524 . S
C640 C641 1.397 . S
C640 C645 1.363 . S
C641 H612 0.950 . S
C641 C640 1.397 . S
C641 C642 1.334 . S
C642 H613 0.950 . S
C642 C641 1.334 . S
C642 C643 1.287 . S
C643 C642 1.287 . S
C643 C644 1.524 1_565 S
C643 H646 0.999 1_565 S
C644 H614 0.950 . S
C644 C643 1.524 1_545 S
C644 C645 1.415 1_545 S
C645 H615 0.950 . S
C645 C640 1.363 . S
C645 C644 1.415 1_565 S
H646 C643 0.999 1_545 S
H647 C628 0.913 . S
H648 C666 0.951 . S
H649 C668 0.951 . S
H650 C670 0.950 . S
H651 C671 0.950 . S
H652 C673 0.950 . S
H653 C676 0.950 . S
H654 C677 0.950 . S
H655 C679 0.950 . S
H656 C680 0.950 . S
H657 C681 0.951 . S
H658 C683 0.951 . S
H659 C685 0.950 . S
H660 C686 0.950 1_554 S
H661 C688 0.950 . S
H662 C691 0.950 . S
H663 C692 0.950 . S
H664 C694 0.950 . S
H665 C695 0.950 . S
C666 H648 0.951 . S
C666 C667 1.366 . S
C666 C668 1.388 . S
C667 C666 1.366 . S
C667 C671 1.385 . S
C668 H649 0.951 . S
C668 C666 1.388 . S
C668 C669 1.366 . S
C669 C668 1.366 . S
C669 C670 1.414 . S
C669 C672 1.499 . S
C670 H650 0.950 . S
C670 C669 1.414 . S
C670 C671 1.374 . S
C671 H651 0.950 . S
C671 C667 1.385 . S
C671 C670 1.374 . S
C672 C669 1.499 . S
C672 C673 1.373 . S
C672 C674 1.389 . S
C673 H652 0.950 . S
C673 C672 1.373 . S
C673 C689 1.377 . S
C674 C672 1.389 . S
C674 C675 1.524 . S
C674 C688 1.377 . S
C675 C674 1.524 . S
C675 C676 1.397 . S
C675 C680 1.363 . S
C676 H653 0.950 . S
C676 C675 1.397 . S
C676 C677 1.334 . S
C677 H654 0.950 . S
C677 C676 1.334 . S
C677 C678 1.287 . S
C678 C677 1.287 . S
C678 C679 1.524 . S
C678 H697 0.913 . S
C679 H655 0.950 . S
C679 C678 1.524 . S
C679 C680 1.415 . S
C680 H656 0.950 . S
C680 C675 1.363 . S
C680 C679 1.415 . S
C681 H657 0.951 . S
C681 C682 1.366 . S
C681 C683 1.388 . S
C682 C681 1.366 . S
C682 C686 1.385 . S
C683 H658 0.951 . S
C683 C681 1.388 . S
C683 C684 1.366 . S
C684 C683 1.366 . S
C684 C685 1.414 . S
C684 C687 1.499 . S
C685 H659 0.950 . S
C685 C684 1.414 . S
C685 C686 1.374 . S
C686 H660 0.950 1_556 S
C686 C682 1.385 . S
C686 C685 1.374 . S
C687 C684 1.499 . S
C687 C688 1.373 . S
C687 C689 1.389 . S
C688 H661 0.950 . S
C688 C674 1.377 . S
C688 C687 1.373 . S
C689 C673 1.377 . S
C689 C687 1.389 . S
C689 C690 1.524 . S
C690 C689 1.524 . S
C690 C691 1.397 . S
C690 C695 1.363 . S
C691 H662 0.950 . S
C691 C690 1.397 . S
C691 C692 1.334 . S
C692 H663 0.950 . S
C692 C691 1.334 . S
C692 C693 1.287 . S
C693 C692 1.287 . S
C693 C694 1.524 . S
C693 H696 0.999 . S
C694 H664 0.950 . S
C694 C693 1.524 . S
C694 C695 1.415 . S
C695 H665 0.950 . S
C695 C690 1.363 . S
C695 C694 1.415 . S
H696 C693 0.999 . S
H697 C678 0.913 . S
H698 C716 0.951 . S
H699 C718 0.951 . S
H700 C720 0.950 . S
H701 C721 0.950 . S
H702 C723 0.950 . S
H703 C726 0.950 . S
H704 C727 0.950 . S
H705 C729 0.950 . S
H706 C730 0.950 . S
H707 C731 0.951 . S
H708 C733 0.951 . S
H709 C735 0.950 . S
H710 C736 0.950 . S
H711 C738 0.950 . S
H712 C741 0.950 . S
H713 C742 0.950 . S
H714 C744 0.950 . S
H715 C745 0.950 . S
C716 H698 0.951 . S
C716 C717 1.366 . S
C716 C718 1.388 . S
C717 C716 1.366 . S
C717 C721 1.385 . S
C718 H699 0.951 . S
C718 C716 1.388 . S
C718 C719 1.366 . S
C719 C718 1.366 . S
C719 C720 1.414 . S
C719 C722 1.499 . S
C720 H700 0.950 . S
C720 C719 1.414 . S
C720 C721 1.374 . S
C721 H701 0.950 . S
C721 C717 1.385 . S
C721 C720 1.374 . S
C722 C719 1.499 . S
C722 C723 1.373 . S
C722 C724 1.389 . S
C723 H702 0.950 . S
C723 C722 1.373 . S
C723 C739 1.377 . S
C724 C722 1.389 . S
C724 C725 1.524 . S
C724 C738 1.377 . S
C725 C724 1.524 . S
C725 C726 1.397 . S
C725 C730 1.363 . S
C726 H703 0.950 . S
C726 C725 1.397 . S
C726 C727 1.334 . S
C727 H704 0.950 . S
C727 C726 1.334 . S
C727 C728 1.287 . S
C728 C727 1.287 . S
C728 C729 1.524 . S
C728 H747 0.913 . S
C729 H705 0.950 . S
C729 C728 1.524 . S
C729 C730 1.415 . S
C730 H706 0.950 . S
C730 C725 1.363 . S
C730 C729 1.415 . S
C731 H707 0.951 . S
C731 C732 1.366 . S
C731 C733 1.388 . S
C732 C731 1.366 . S
C732 C736 1.385 . S
C733 H708 0.951 . S
C733 C731 1.388 . S
C733 C734 1.366 . S
C734 C733 1.366 . S
C734 C735 1.414 . S
C734 C737 1.499 . S
C735 H709 0.950 . S
C735 C734 1.414 . S
C735 C736 1.374 . S
C736 H710 0.950 . S
C736 C732 1.385 . S
C736 C735 1.374 . S
C737 C734 1.499 . S
C737 C738 1.373 . S
C737 C739 1.389 . S
C738 H711 0.950 . S
C738 C724 1.377 . S
C738 C737 1.373 . S
C739 C723 1.377 . S
C739 C737 1.389 . S
C739 C740 1.524 . S
C740 C739 1.524 . S
C740 C741 1.397 . S
C740 C745 1.363 . S
C741 H712 0.950 . S
C741 C740 1.397 . S
C741 C742 1.334 . S
C742 H713 0.950 . S
C742 C741 1.334 . S
C742 C743 1.287 . S
C743 C742 1.287 . S
C743 C744 1.524 . S
C743 H746 0.999 . S
C744 H714 0.950 . S
C744 C743 1.524 . S
C744 C745 1.415 . S
C745 H715 0.950 . S
C745 C740 1.363 . S
C745 C744 1.415 . S
H746 C743 0.999 . S
H747 C728 0.913 . S
H748 C766 0.951 . S
H749 C768 0.951 . S
H750 C770 0.950 . S
H751 C771 0.950 . S
H752 C773 0.950 . S
H753 C776 0.950 . S
H754 C777 0.950 . S
H755 C779 0.950 . S
H756 C780 0.950 . S
H757 C781 0.933 1_655 S
H758 C783 0.951 . S
H759 C785 0.950 . S
H760 C786 0.950 . S
H761 C788 0.950 . S
H762 C791 0.950 . S
H763 C792 0.950 . S
H764 C794 0.950 . S
H765 C795 0.950 . S
C766 H748 0.951 . S
C766 C767 1.366 . S
C766 C768 1.388 . S
C767 C766 1.366 . S
C767 C771 1.385 . S
C768 H749 0.951 . S
C768 C766 1.388 . S
C768 C769 1.366 . S
C769 C768 1.366 . S
C769 C770 1.414 . S
C769 C772 1.499 . S
C770 H750 0.950 . S
C770 C769 1.414 . S
C770 C771 1.374 . S
C771 H751 0.950 . S
C771 C767 1.385 . S
C771 C770 1.374 . S
C772 C769 1.499 . S
C772 C773 1.373 . S
C772 C774 1.389 . S
C773 H752 0.950 . S
C773 C772 1.373 . S
C773 C789 1.377 . S
C774 C772 1.389 . S
C774 C775 1.524 . S
C774 C788 1.377 . S
C775 C774 1.524 . S
C775 C776 1.397 . S
C775 C780 1.363 . S
C776 H753 0.950 . S
C776 C775 1.397 . S
C776 C777 1.334 . S
C777 H754 0.950 . S
C777 C776 1.334 . S
C777 C778 1.287 . S
C778 C777 1.287 . S
C778 C779 1.524 . S
C778 H797 0.913 . S
C779 H755 0.950 . S
C779 C778 1.524 . S
C779 C780 1.415 . S
C780 H756 0.950 . S
C780 C775 1.363 . S
C780 C779 1.415 . S
C781 H757 0.933 1_455 S
C781 C782 1.366 . S
C781 C783 1.388 . S
C782 C781 1.366 . S
C782 C786 1.385 . S
C783 H758 0.951 . S
C783 C781 1.388 . S
C783 C784 1.366 . S
C784 C783 1.366 . S
C784 C785 1.414 . S
C784 C787 1.499 . S
C785 H759 0.950 . S
C785 C784 1.414 . S
C785 C786 1.374 . S
C786 H760 0.950 . S
C786 C782 1.385 . S
C786 C785 1.374 . S
C787 C784 1.499 . S
C787 C788 1.373 . S
C787 C789 1.389 . S
C788 H761 0.950 . S
C788 C774 1.377 . S
C788 C787 1.373 . S
C789 C773 1.377 . S
C789 C787 1.389 . S
C789 C790 1.524 . S
C790 C789 1.524 . S
C790 C791 1.397 . S
C790 C795 1.363 . S
C791 H762 0.950 . S
C791 C790 1.397 . S
C791 C792 1.334 1_554 S
C792 H763 0.950 . S
C792 C791 1.334 1_556 S
C792 C793 1.287 . S
C793 C792 1.287 . S
C793 C794 1.524 . S
C793 H796 0.999 . S
C794 H764 0.950 . S
C794 C793 1.524 . S
C794 C795 1.415 1_556 S
C795 H765 0.950 . S
C795 C790 1.363 . S
C795 C794 1.415 1_554 S
H796 C793 0.999 . S
H797 C778 0.913 . S
H798 C816 0.951 . S
H799 C818 0.951 . S
H800 C820 0.950 . S
H801 C821 0.950 . S
H802 C823 0.950 . S
H803 C826 0.950 . S
H804 C827 0.950 . S
H805 C829 0.950 . S
H806 C830 0.950 . S
H807 C831 0.951 . S
H808 C833 0.951 . S
H809 C835 0.950 1_554 S
H810 C836 0.950 . S
H811 C838 0.950 1_554 S
H812 C841 0.950 . S
H813 C842 0.950 . S
H814 C844 0.950 . S
H815 C845 0.950 . S
C816 H798 0.951 . S
C816 C817 1.366 . S
C816 C818 1.388 . S
C817 C816 1.366 . S
C817 C821 1.385 . S
C818 H799 0.951 . S
C818 C816 1.388 . S
C818 C819 1.366 . S
C819 C818 1.366 . S
C819 C820 1.414 . S
C819 C822 1.499 . S
C820 H800 0.950 . S
C820 C819 1.414 . S
C820 C821 1.374 . S
C821 H801 0.950 . S
C821 C817 1.385 . S
C821 C820 1.374 . S
C822 C819 1.499 . S
C822 C823 1.373 . S
C822 C824 1.389 . S
C823 H802 0.950 . S
C823 C822 1.373 . S
C823 C839 1.377 . S
C824 C822 1.389 . S
C824 C825 1.528 1_556 S
C824 C838 1.377 . S
C825 C824 1.528 1_554 S
C825 C826 1.397 1_554 S
C825 C830 1.359 . S
C826 H803 0.950 . S
C826 C825 1.397 1_556 S
C826 C827 1.334 1_556 S
C827 H804 0.950 . S
C827 C826 1.334 1_554 S
C827 C828 1.287 . S
C828 C827 1.287 . S
C828 C829 1.524 . S
C828 H847 0.913 . S
C829 H805 0.950 . S
C829 C828 1.524 . S
C829 C830 1.415 . S
C830 H806 0.950 . S
C830 C825 1.359 . S
C830 C829 1.415 . S
C831 H807 0.951 . S
C831 C832 1.366 . S
C831 C833 1.388 . S
C832 C831 1.366 . S
C832 C836 1.385 1_556 S
C833 H808 0.951 . S
C833 C831 1.388 . S
C833 C834 1.366 . S
C834 C833 1.366 . S
C834 C835 1.414 . S
C834 C837 1.499 . S
C835 H809 0.950 1_556 S
C835 C834 1.414 . S
C835 C836 1.374 1_556 S
C836 H810 0.950 . S
C836 C832 1.385 1_554 S
C836 C835 1.374 1_554 S
C837 C834 1.499 . S
C837 C838 1.373 . S
C837 C839 1.389 . S
C838 H811 0.950 1_556 S
C838 C824 1.377 . S
C838 C837 1.373 . S
C839 C823 1.377 . S
C839 C837 1.389 . S
C839 C840 1.524 . S
C840 C839 1.524 . S
C840 C841 1.397 . S
C840 C845 1.363 . S
C841 H812 0.950 . S
C841 C840 1.397 . S
C841 C842 1.334 . S
C842 H813 0.950 . S
C842 C841 1.334 . S
C842 C843 1.287 . S
C843 C842 1.287 . S
C843 C844 1.524 . S
C843 H846 0.999 . S
C844 H814 0.950 . S
C844 C843 1.524 . S
C844 C845 1.415 . S
C845 H815 0.950 . S
C845 C840 1.363 . S
C845 C844 1.415 . S
H846 C843 0.999 . S
H847 C828 0.913 . S
H848 C866 0.951 . S
H849 C868 0.951 . S
H850 C870 0.950 . S
H851 C871 0.950 . S
H852 C873 0.950 . S
H853 C876 0.950 . S
H854 C877 0.950 . S
H855 C879 0.950 . S
H856 C880 0.950 . S
H857 C881 0.951 . S
H858 C883 0.951 . S
H859 C885 0.950 . S
H860 C886 0.950 1_455 S
H861 C888 0.950 . S
H862 C891 0.943 1_455 S
H863 C892 0.950 1_455 S
H864 C894 0.950 . S
H865 C895 0.950 . S
C866 H848 0.951 . S
C866 C867 1.366 . S
C866 C868 1.388 . S
C867 C866 1.366 . S
C867 C871 1.385 . S
C868 H849 0.951 . S
C868 C866 1.388 . S
C868 C869 1.366 . S
C869 C868 1.366 . S
C869 C870 1.414 . S
C869 C872 1.499 . S
C870 H850 0.950 . S
C870 C869 1.414 . S
C870 C871 1.374 . S
C871 H851 0.950 . S
C871 C867 1.385 . S
C871 C870 1.374 . S
C872 C869 1.499 . S
C872 C873 1.373 . S
C872 C874 1.389 . S
C873 H852 0.950 . S
C873 C872 1.373 . S
C873 C889 1.377 . S
C874 C872 1.389 . S
C874 C875 1.524 . S
C874 C888 1.377 . S
C875 C874 1.524 . S
C875 C876 1.397 . S
C875 C880 1.363 . S
C876 H853 0.950 . S
C876 C875 1.397 . S
C876 C877 1.334 . S
C877 H854 0.950 . S
C877 C876 1.334 . S
C877 C878 1.287 . S
C878 C877 1.287 . S
C878 C879 1.524 . S
C878 H897 0.913 . S
C879 H855 0.950 . S
C879 C878 1.524 . S
C879 C880 1.415 . S
C880 H856 0.950 . S
C880 C875 1.363 . S
C880 C879 1.415 . S
C881 H857 0.951 . S
C881 C882 1.366 . S
C881 C883 1.388 . S
C882 C881 1.366 . S
C882 C886 1.385 . S
C883 H858 0.951 . S
C883 C881 1.388 . S
C883 C884 1.366 . S
C884 C883 1.366 . S
C884 C885 1.414 . S
C884 C887 1.499 . S
C885 H859 0.950 . S
C885 C884 1.414 . S
C885 C886 1.374 . S
C886 H860 0.950 1_655 S
C886 C882 1.385 . S
C886 C885 1.374 . S
C887 C884 1.499 . S
C887 C888 1.373 . S
C887 C889 1.389 . S
C888 H861 0.950 . S
C888 C874 1.377 . S
C888 C887 1.373 . S
C889 C873 1.377 . S
C889 C887 1.389 . S
C889 C890 1.524 . S
C890 C889 1.524 . S
C890 C891 1.397 . S
C890 C895 1.363 . S
C891 H862 0.943 1_655 S
C891 C890 1.397 . S
C891 C892 1.334 . S
C892 H863 0.950 1_655 S
C892 C891 1.334 . S
C892 C893 1.287 . S
C893 C892 1.287 . S
C893 C894 1.524 . S
C893 H896 0.999 . S
C894 H864 0.950 . S
C894 C893 1.524 . S
C894 C895 1.415 . S
C895 H865 0.950 . S
C895 C890 1.363 . S
C895 C894 1.415 . S
H896 C893 0.999 . S
H897 C878 0.913 . S
H898 C916 0.951 . S
H899 C918 0.951 . S
H900 C920 0.950 . S
H901 C921 0.950 . S
H902 C923 0.950 . S
H903 C926 0.950 . S
H904 C927 0.950 . S
H905 C929 0.950 . S
H906 C930 0.950 . S
H907 C931 0.951 . S
H908 C933 0.951 . S
H909 C935 0.950 . S
H910 C936 0.950 . S
H911 C938 0.950 . S
H912 C941 0.950 . S
H913 C942 0.950 . S
H914 C944 0.950 . S
H915 C945 0.950 . S
C916 H898 0.951 . S
C916 C917 1.366 . S
C916 C918 1.388 . S
C917 C916 1.366 . S
C917 C921 1.385 . S
C918 H899 0.951 . S
C918 C916 1.388 . S
C918 C919 1.366 . S
C919 C918 1.366 . S
C919 C920 1.414 . S
C919 C922 1.499 . S
C920 H900 0.950 . S
C920 C919 1.414 . S
C920 C921 1.374 . S
C921 H901 0.950 . S
C921 C917 1.385 . S
C921 C920 1.374 . S
C922 C919 1.499 . S
C922 C923 1.373 . S
C922 C924 1.389 . S
C923 H902 0.950 . S
C923 C922 1.373 . S
C923 C939 1.377 . S
C924 C922 1.389 . S
C924 C925 1.524 . S
C924 C938 1.377 . S
C925 C924 1.524 . S
C925 C926 1.397 . S
C925 C930 1.363 . S
C926 H903 0.950 . S
C926 C925 1.397 . S
C926 C927 1.334 . S
C927 H904 0.950 . S
C927 C926 1.334 . S
C927 C928 1.287 . S
C928 C927 1.287 . S
C928 C929 1.524 . S
C928 H947 0.913 . S
C929 H905 0.950 . S
C929 C928 1.524 . S
C929 C930 1.415 . S
C930 H906 0.950 . S
C930 C925 1.363 . S
C930 C929 1.415 . S
C931 H907 0.951 . S
C931 C932 1.366 . S
C931 C933 1.388 . S
C932 C931 1.366 . S
C932 C936 1.385 . S
C933 H908 0.951 . S
C933 C931 1.388 . S
C933 C934 1.366 . S
C934 C933 1.366 . S
C934 C935 1.414 . S
C934 C937 1.499 . S
C935 H909 0.950 . S
C935 C934 1.414 . S
C935 C936 1.374 . S
C936 H910 0.950 . S
C936 C932 1.385 . S
C936 C935 1.374 . S
C937 C934 1.499 . S
C937 C938 1.373 . S
C937 C939 1.389 . S
C938 H911 0.950 . S
C938 C924 1.377 . S
C938 C937 1.373 . S
C939 C923 1.377 . S
C939 C937 1.389 . S
C939 C940 1.524 . S
C940 C939 1.524 . S
C940 C941 1.397 . S
C940 C945 1.363 . S
C941 H912 0.950 . S
C941 C940 1.397 . S
C941 C942 1.334 . S
C942 H913 0.950 . S
C942 C941 1.334 . S
C942 C943 1.287 . S
C943 C942 1.287 . S
C943 C944 1.524 . S
C943 H946 0.999 . S
C944 H914 0.950 . S
C944 C943 1.524 . S
C944 C945 1.415 . S
C945 H915 0.950 . S
C945 C940 1.363 . S
C945 C944 1.415 . S
H946 C943 0.999 . S
H947 C928 0.913 . S
H948 C966 0.951 1_545 S
H949 C968 0.951 1_545 S
H950 C970 0.950 . S
H951 C971 0.950 . S
H952 C973 0.950 . S
H953 C976 0.950 1_565 S
H954 C977 0.950 . S
H955 C979 0.950 . S
H956 C980 0.950 . S
H957 C981 0.951 . S
H958 C983 0.951 . S
H959 C985 0.950 . S
H960 C986 0.950 . S
H961 C988 0.950 . S
H962 C991 0.950 . S
H963 C992 0.950 . S
H964 C994 0.950 . S
H965 C995 0.950 . S
C966 H948 0.951 1_565 S
C966 C967 1.366 . S
C966 C968 1.388 . S
C967 C966 1.366 . S
C967 C971 1.385 . S
C968 H949 0.951 1_565 S
C968 C966 1.388 . S
C968 C969 1.366 . S
C969 C968 1.366 . S
C969 C970 1.414 . S
C969 C972 1.499 . S
C970 H950 0.950 . S
C970 C969 1.414 . S
C970 C971 1.374 . S
C971 H951 0.950 . S
C971 C967 1.385 . S
C971 C970 1.374 . S
C972 C969 1.499 . S
C972 C973 1.373 . S
C972 C974 1.389 . S
C973 H952 0.950 . S
C973 C972 1.373 . S
C973 C989 1.377 . S
C974 C972 1.389 . S
C974 C975 1.524 1_565 S
C974 C988 1.377 1_565 S
C975 C974 1.524 1_545 S
C975 C976 1.397 . S
C975 C980 1.363 . S
C976 H953 0.950 1_545 S
C976 C975 1.397 . S
C976 C977 1.334 . S
C977 H954 0.950 . S
C977 C976 1.334 . S
C977 C978 1.287 . S
C978 C977 1.287 . S
C978 C979 1.524 . S
C978 H997 0.913 . S
C979 H955 0.950 . S
C979 C978 1.524 . S
C979 C980 1.415 . S
C980 H956 0.950 . S
C980 C975 1.363 . S
C980 C979 1.415 . S
C981 H957 0.951 . S
C981 C982 1.366 . S
C981 C983 1.388 . S
C982 C981 1.366 . S
C982 C986 1.385 1_565 S
C983 H958 0.951 . S
C983 C981 1.388 . S
C983 C984 1.366 . S
C984 C983 1.366 . S
C984 C985 1.414 1_565 S
C984 C987 1.499 . S
C985 H959 0.950 . S
C985 C984 1.414 1_545 S
C985 C986 1.374 . S
C986 H960 0.950 . S
C986 C982 1.385 1_545 S
C986 C985 1.374 . S
C987 C984 1.499 . S
C987 C988 1.373 1_565 S
C987 C989 1.389 . S
C988 H961 0.950 . S
C988 C974 1.377 1_545 S
C988 C987 1.373 1_545 S
C989 C973 1.377 . S
C989 C987 1.389 . S
C989 C990 1.524 . S
C990 C989 1.524 . S
C990 C991 1.397 1_655 S
C990 C995 1.363 . S
C991 H962 0.950 . S
C991 C990 1.397 1_455 S
C991 C992 1.334 . S
C992 H963 0.950 . S
C992 C991 1.334 . S
C992 C993 1.287 . S
C993 C992 1.287 . S
C993 C994 1.524 . S
C993 H996 0.999 . S
C994 H964 0.950 . S
C994 C993 1.524 . S
C994 C995 1.415 1_455 S
C995 H965 0.950 . S
C995 C990 1.363 . S
C995 C994 1.415 1_655 S
H996 C993 0.999 . S
H997 C978 0.913 . S
H998 C1016 0.951 . S
H999 C1018 0.951 . S
H1000 C1020 0.950 . S
H1001 C1021 0.950 . S
H1002 C1023 0.950 . S
H1003 C1026 0.950 . S
H1004 C1027 0.950 . S
H1005 C1029 0.950 . S
H1006 C1030 0.950 . S
H1007 C1031 0.951 . S
H1008 C1033 0.951 1_565 S
H1009 C1035 0.950 . S
H1010 C1036 0.950 . S
H1011 C1038 0.950 . S
H1012 C1041 0.950 1_545 S
H1013 C1042 0.950 . S
H1014 C1044 0.950 . S
H1015 C1045 0.950 . S
C1016 H998 0.951 . S
C1016 C1017 1.366 . S
C1016 C1018 1.388 . S
C1017 C1016 1.366 . S
C1017 C1021 1.385 . S
C1018 H999 0.951 . S
C1018 C1016 1.388 . S
C1018 C1019 1.366 . S
C1019 C1018 1.366 . S
C1019 C1020 1.414 . S
C1019 C1022 1.499 . S
C1020 H1000 0.950 . S
C1020 C1019 1.414 . S
C1020 C1021 1.374 . S
C1021 H1001 0.950 . S
C1021 C1017 1.385 . S
C1021 C1020 1.374 . S
C1022 C1019 1.499 . S
C1022 C1023 1.373 . S
C1022 C1024 1.389 . S
C1023 H1002 0.950 . S
C1023 C1022 1.373 . S
C1023 C1039 1.377 . S
C1024 C1022 1.389 . S
C1024 C1025 1.524 . S
C1024 C1038 1.377 . S
C1025 C1024 1.524 . S
C1025 C1026 1.397 . S
C1025 C1030 1.363 . S
C1026 H1003 0.950 . S
C1026 C1025 1.397 . S
C1026 C1027 1.334 . S
C1027 H1004 0.950 . S
C1027 C1026 1.334 . S
C1027 C1028 1.287 . S
C1028 C1027 1.287 . S
C1028 C1029 1.524 . S
C1028 H1047 0.913 . S
C1029 H1005 0.950 . S
C1029 C1028 1.524 . S
C1029 C1030 1.415 . S
C1030 H1006 0.950 . S
C1030 C1025 1.363 . S
C1030 C1029 1.415 . S
C1031 H1007 0.951 . S
C1031 C1032 1.366 1_565 S
C1031 C1033 1.388 1_565 S
C1032 C1031 1.366 1_545 S
C1032 C1036 1.385 . S
C1033 H1008 0.951 1_545 S
C1033 C1031 1.388 1_545 S
C1033 C1034 1.366 . S
C1034 C1033 1.366 . S
C1034 C1035 1.414 . S
C1034 C1037 1.499 . S
C1035 H1009 0.950 . S
C1035 C1034 1.414 . S
C1035 C1036 1.374 . S
C1036 H1010 0.950 . S
C1036 C1032 1.385 . S
C1036 C1035 1.374 . S
C1037 C1034 1.499 . S
C1037 C1038 1.373 . S
C1037 C1039 1.389 . S
C1038 H1011 0.950 . S
C1038 C1024 1.377 . S
C1038 C1037 1.373 . S
C1039 C1023 1.377 . S
C1039 C1037 1.389 . S
C1039 C1040 1.524 1_545 S
C1040 C1039 1.524 1_565 S
C1040 C1041 1.397 . S
C1040 C1045 1.363 . S
C1041 H1012 0.950 1_565 S
C1041 C1040 1.397 . S
C1041 C1042 1.334 . S
C1042 H1013 0.950 . S
C1042 C1041 1.334 . S
C1042 C1043 1.287 . S
C1043 C1042 1.287 . S
C1043 C1044 1.524 . S
C1043 H1046 0.999 . S
C1044 H1014 0.950 . S
C1044 C1043 1.524 . S
C1044 C1045 1.415 . S
C1045 H1015 0.950 . S
C1045 C1040 1.363 . S
C1045 C1044 1.415 . S
H1046 C1043 0.999 . S
H1047 C1028 0.913 . S
H1048 C1066 0.951 . S
H1049 C1068 0.951 . S
H1050 C1070 0.950 . S
H1051 C1071 0.950 . S
H1052 C1073 0.950 . S
H1053 C1076 0.950 . S
H1054 C1077 0.950 . S
H1055 C1079 0.950 . S
H1056 C1080 0.950 . S
H1057 C1081 0.951 . S
H1058 C1083 0.951 . S
H1059 C1085 0.950 . S
H1060 C1086 0.950 . S
H1061 C1088 0.950 . S
H1062 C1091 0.950 . S
H1063 C1092 0.950 . S
H1064 C1094 0.950 . S
H1065 C1095 0.950 . S
C1066 H1048 0.951 . S
C1066 C1067 1.366 . S
C1066 C1068 1.388 . S
C1067 C1066 1.366 . S
C1067 C1071 1.385 . S
C1068 H1049 0.951 . S
C1068 C1066 1.388 . S
C1068 C1069 1.366 . S
C1069 C1068 1.366 . S
C1069 C1070 1.414 . S
C1069 C1072 1.499 . S
C1070 H1050 0.950 . S
C1070 C1069 1.414 . S
C1070 C1071 1.374 . S
C1071 H1051 0.950 . S
C1071 C1067 1.385 . S
C1071 C1070 1.374 . S
C1072 C1069 1.499 . S
C1072 C1073 1.373 . S
C1072 C1074 1.389 . S
C1073 H1052 0.950 . S
C1073 C1072 1.373 . S
C1073 C1089 1.377 . S
C1074 C1072 1.389 . S
C1074 C1075 1.524 . S
C1074 C1088 1.377 . S
C1075 C1074 1.524 . S
C1075 C1076 1.397 . S
C1075 C1080 1.363 . S
C1076 H1053 0.950 . S
C1076 C1075 1.397 . S
C1076 C1077 1.334 . S
C1077 H1054 0.950 . S
C1077 C1076 1.334 . S
C1077 C1078 1.287 . S
C1078 C1077 1.287 . S
C1078 C1079 1.524 . S
C1078 H1097 0.913 . S
C1079 H1055 0.950 . S
C1079 C1078 1.524 . S
C1079 C1080 1.415 . S
C1080 H1056 0.950 . S
C1080 C1075 1.363 . S
C1080 C1079 1.415 . S
C1081 H1057 0.951 . S
C1081 C1082 1.366 . S
C1081 C1083 1.388 . S
C1082 C1081 1.366 . S
C1082 C1086 1.385 . S
C1083 H1058 0.951 . S
C1083 C1081 1.388 . S
C1083 C1084 1.366 . S
C1084 C1083 1.366 . S
C1084 C1085 1.414 . S
C1084 C1087 1.499 . S
C1085 H1059 0.950 . S
C1085 C1084 1.414 . S
C1085 C1086 1.374 . S
C1086 H1060 0.950 . S
C1086 C1082 1.385 . S
C1086 C1085 1.374 . S
C1087 C1084 1.499 . S
C1087 C1088 1.373 . S
C1087 C1089 1.389 . S
C1088 H1061 0.950 . S
C1088 C1074 1.377 . S
C1088 C1087 1.373 . S
C1089 C1073 1.377 . S
C1089 C1087 1.389 . S
C1089 C1090 1.524 . S
C1090 C1089 1.524 . S
C1090 C1091 1.397 . S
C1090 C1095 1.363 . S
C1091 H1062 0.950 . S
C1091 C1090 1.397 . S
C1091 C1092 1.334 . S
C1092 H1063 0.950 . S
C1092 C1091 1.334 . S
C1092 C1093 1.287 . S
C1093 C1092 1.287 . S
C1093 C1094 1.524 . S
C1093 H1096 0.999 . S
C1094 H1064 0.950 . S
C1094 C1093 1.524 . S
C1094 C1095 1.415 . S
C1095 H1065 0.950 . S
C1095 C1090 1.363 . S
C1095 C1094 1.415 . S
H1096 C1093 0.999 . S
H1097 C1078 0.913 . S
H1098 C1116 0.951 . S
H1099 C1118 0.951 . S
H1100 C1120 0.950 . S
H1101 C1121 0.950 . S
H1102 C1123 0.950 . S
H1103 C1126 0.950 . S
H1104 C1127 0.950 . S
H1105 C1129 0.950 . S
H1106 C1130 0.950 . S
H1107 C1131 0.951 . S
H1108 C1133 0.951 . S
H1109 C1135 0.950 . S
H1110 C1136 0.950 . S
H1111 C1138 0.950 . S
H1112 C1141 0.950 . S
H1113 C1142 0.950 . S
H1114 C1144 0.950 . S
H1115 C1145 0.950 . S
C1116 H1098 0.951 . S
C1116 C1117 1.366 . S
C1116 C1118 1.388 . S
C1117 C1116 1.366 . S
C1117 C1121 1.385 . S
C1118 H1099 0.951 . S
C1118 C1116 1.388 . S
C1118 C1119 1.366 . S
C1119 C1118 1.366 . S
C1119 C1120 1.414 . S
C1119 C1122 1.499 . S
C1120 H1100 0.950 . S
C1120 C1119 1.414 . S
C1120 C1121 1.374 . S
C1121 H1101 0.950 . S
C1121 C1117 1.385 . S
C1121 C1120 1.374 . S
C1122 C1119 1.499 . S
C1122 C1123 1.373 . S
C1122 C1124 1.389 . S
C1123 H1102 0.950 . S
C1123 C1122 1.373 . S
C1123 C1139 1.377 . S
C1124 C1122 1.389 . S
C1124 C1125 1.524 . S
C1124 C1138 1.377 . S
C1125 C1124 1.524 . S
C1125 C1126 1.397 . S
C1125 C1130 1.363 . S
C1126 H1103 0.950 . S
C1126 C1125 1.397 . S
C1126 C1127 1.334 1_455 S
C1127 H1104 0.950 . S
C1127 C1126 1.334 1_655 S
C1127 C1128 1.287 . S
C1128 C1127 1.287 . S
C1128 C1129 1.524 . S
C1128 H1147 0.913 . S
C1129 H1105 0.950 . S
C1129 C1128 1.524 . S
C1129 C1130 1.415 1_655 S
C1130 H1106 0.950 . S
C1130 C1125 1.363 . S
C1130 C1129 1.415 1_455 S
C1131 H1107 0.951 . S
C1131 C1132 1.366 . S
C1131 C1133 1.388 . S
C1132 C1131 1.366 . S
C1132 C1136 1.385 . S
C1133 H1108 0.951 . S
C1133 C1131 1.388 . S
C1133 C1134 1.366 . S
C1134 C1133 1.366 . S
C1134 C1135 1.414 . S
C1134 C1137 1.499 . S
C1135 H1109 0.950 . S
C1135 C1134 1.414 . S
C1135 C1136 1.374 . S
C1136 H1110 0.950 . S
C1136 C1132 1.385 . S
C1136 C1135 1.374 . S
C1137 C1134 1.499 . S
C1137 C1138 1.373 . S
C1137 C1139 1.389 . S
C1138 H1111 0.950 . S
C1138 C1124 1.377 . S
C1138 C1137 1.373 . S
C1139 C1123 1.377 . S
C1139 C1137 1.389 . S
C1139 C1140 1.524 . S
C1140 C1139 1.524 . S
C1140 C1141 1.397 . S
C1140 C1145 1.363 . S
C1141 H1112 0.950 . S
C1141 C1140 1.397 . S
C1141 C1142 1.334 . S
C1142 H1113 0.950 . S
C1142 C1141 1.334 . S
C1142 C1143 1.287 . S
C1143 C1142 1.287 . S
C1143 C1144 1.524 . S
C1143 H1146 0.999 . S
C1144 H1114 0.950 . S
C1144 C1143 1.524 . S
C1144 C1145 1.415 . S
C1145 H1115 0.950 . S
C1145 C1140 1.363 . S
C1145 C1144 1.415 . S
H1146 C1143 0.999 . S
H1147 C1128 0.913 . S
H1148 C1166 0.951 . S
H1149 C1168 0.951 . S
H1150 C1170 0.950 1_554 S
H1151 C1171 0.950 . S
H1152 C1173 0.938 1_554 S
H1153 C1176 0.950 . S
H1154 C1177 0.950 . S
H1155 C1179 0.950 . S
H1156 C1180 0.950 . S
H1157 C1181 0.951 . S
H1158 C1183 0.951 . S
H1159 C1185 0.950 . S
H1160 C1186 0.950 . S
H1161 C1188 0.950 1_545 S
H1162 C1191 0.950 1_556 S
H1163 C1192 0.950 . S
H1164 C1194 0.950 . S
H1165 C1195 0.950 . S
C1166 H1148 0.951 . S
C1166 C1167 1.366 . S
C1166 C1168 1.388 . S
C1167 C1166 1.366 . S
C1167 C1171 1.385 . S
C1168 H1149 0.951 . S
C1168 C1166 1.388 . S
C1168 C1169 1.366 . S
C1169 C1168 1.366 . S
C1169 C1170 1.414 . S
C1169 C1172 1.499 . S
C1170 H1150 0.950 1_556 S
C1170 C1169 1.414 . S
C1170 C1171 1.374 . S
C1171 H1151 0.950 . S
C1171 C1167 1.385 . S
C1171 C1170 1.374 . S
C1172 C1169 1.499 . S
C1172 C1173 1.373 . S
C1172 C1174 1.389 . S
C1173 H1152 0.938 1_556 S
C1173 C1172 1.373 . S
C1173 C1189 1.377 . S
C1174 C1172 1.389 . S
C1174 C1175 1.524 1_565 S
C1174 C1188 1.377 . S
C1175 C1174 1.524 1_545 S
C1175 C1176 1.397 . S
C1175 C1180 1.363 . S
C1176 H1153 0.950 . S
C1176 C1175 1.397 . S
C1176 C1177 1.334 . S
C1177 H1154 0.950 . S
C1177 C1176 1.334 . S
C1177 C1178 1.287 . S
C1178 C1177 1.287 . S
C1178 C1179 1.524 . S
C1178 H1197 0.913 . S
C1179 H1155 0.950 . S
C1179 C1178 1.524 . S
C1179 C1180 1.415 . S
C1180 H1156 0.950 . S
C1180 C1175 1.363 . S
C1180 C1179 1.415 . S
C1181 H1157 0.951 . S
C1181 C1182 1.366 1_554 S
C1181 C1183 1.388 . S
C1182 C1181 1.366 1_556 S
C1182 C1186 1.385 . S
C1183 H1158 0.951 . S
C1183 C1181 1.388 . S
C1183 C1184 1.366 1_554 S
C1184 C1183 1.366 1_556 S
C1184 C1185 1.414 . S
C1184 C1187 1.499 . S
C1185 H1159 0.950 . S
C1185 C1184 1.414 . S
C1185 C1186 1.374 . S
C1186 H1160 0.950 . S
C1186 C1182 1.385 . S
C1186 C1185 1.374 . S
C1187 C1184 1.499 . S
C1187 C1188 1.373 . S
C1187 C1189 1.389 . S
C1188 H1161 0.950 1_565 S
C1188 C1174 1.377 . S
C1188 C1187 1.373 . S
C1189 C1173 1.377 . S
C1189 C1187 1.389 . S
C1189 C1190 1.524 1_556 S
C1190 C1189 1.524 1_554 S
C1190 C1191 1.397 . S
C1190 C1195 1.363 . S
C1191 H1162 0.950 1_554 S
C1191 C1190 1.397 . S
C1191 C1192 1.334 . S
C1192 H1163 0.950 . S
C1192 C1191 1.334 . S
C1192 C1193 1.287 . S
C1193 C1192 1.287 . S
C1193 C1194 1.524 . S
C1193 H1196 0.999 . S
C1194 H1164 0.950 . S
C1194 C1193 1.524 . S
C1194 C1195 1.415 . S
C1195 H1165 0.950 . S
C1195 C1190 1.363 . S
C1195 C1194 1.415 . S
H1196 C1193 0.999 . S
H1197 C1178 0.913 . S
H1198 C1216 0.951 . S
H1199 C1218 0.951 . S
H1200 C1220 0.950 . S
H1201 C1221 0.950 . S
H1202 C1223 0.950 . S
H1203 C1226 0.950 . S
H1204 C1227 0.950 . S
H1205 C1229 0.950 . S
H1206 C1230 0.950 . S
H1207 C1231 0.951 . S
H1208 C1233 0.951 . S
H1209 C1235 0.950 . S
H1210 C1236 0.950 . S
H1211 C1238 0.950 . S
H1212 C1241 0.950 . S
H1213 C1242 0.950 . S
H1214 C1244 0.950 . S
H1215 C1245 0.950 . S
C1216 H1198 0.951 . S
C1216 C1217 1.366 . S
C1216 C1218 1.388 . S
C1217 C1216 1.366 . S
C1217 C1221 1.385 . S
C1218 H1199 0.951 . S
C1218 C1216 1.388 . S
C1218 C1219 1.366 . S
C1219 C1218 1.366 . S
C1219 C1220 1.414 . S
C1219 C1222 1.499 . S
C1220 H1200 0.950 . S
C1220 C1219 1.414 . S
C1220 C1221 1.374 . S
C1221 H1201 0.950 . S
C1221 C1217 1.385 . S
C1221 C1220 1.374 . S
C1222 C1219 1.499 . S
C1222 C1223 1.373 . S
C1222 C1224 1.389 . S
C1223 H1202 0.950 . S
C1223 C1222 1.373 . S
C1223 C1239 1.377 . S
C1224 C1222 1.389 . S
C1224 C1225 1.524 . S
C1224 C1238 1.377 . S
C1225 C1224 1.524 . S
C1225 C1226 1.397 1_545 S
C1225 C1230 1.363 . S
C1226 H1203 0.950 . S
C1226 C1225 1.397 1_565 S
C1226 C1227 1.334 . S
C1227 H1204 0.950 . S
C1227 C1226 1.334 . S
C1227 C1228 1.287 . S
C1228 C1227 1.287 . S
C1228 C1229 1.524 . S
C1228 H1247 0.913 . S
C1229 H1205 0.950 . S
C1229 C1228 1.524 . S
C1229 C1230 1.415 1_565 S
C1230 H1206 0.950 . S
C1230 C1225 1.363 . S
C1230 C1229 1.415 1_545 S
C1231 H1207 0.951 . S
C1231 C1232 1.366 . S
C1231 C1233 1.388 . S
C1232 C1231 1.366 . S
C1232 C1236 1.385 . S
C1233 H1208 0.951 . S
C1233 C1231 1.388 . S
C1233 C1234 1.366 . S
C1234 C1233 1.366 . S
C1234 C1235 1.414 . S
C1234 C1237 1.499 . S
C1235 H1209 0.950 . S
C1235 C1234 1.414 . S
C1235 C1236 1.374 . S
C1236 H1210 0.950 . S
C1236 C1232 1.385 . S
C1236 C1235 1.374 . S
C1237 C1234 1.499 . S
C1237 C1238 1.373 . S
C1237 C1239 1.389 . S
C1238 H1211 0.950 . S
C1238 C1224 1.377 . S
C1238 C1237 1.373 . S
C1239 C1223 1.377 . S
C1239 C1237 1.389 . S
C1239 C1240 1.524 . S
C1240 C1239 1.524 . S
C1240 C1241 1.397 . S
C1240 C1245 1.363 . S
C1241 H1212 0.950 . S
C1241 C1240 1.397 . S
C1241 C1242 1.334 . S
C1242 H1213 0.950 . S
C1242 C1241 1.334 . S
C1242 C1243 1.287 . S
C1243 C1242 1.287 . S
C1243 C1244 1.524 . S
C1243 H1246 0.999 . S
C1244 H1214 0.950 . S
C1244 C1243 1.524 . S
C1244 C1245 1.415 . S
C1245 H1215 0.950 . S
C1245 C1240 1.363 . S
C1245 C1244 1.415 . S
H1246 C1243 0.999 . S
H1247 C1228 0.913 . S
H1248 C1266 0.951 . S
H1249 C1268 0.951 . S
H1250 C1270 0.950 . S
H1251 C1271 0.950 . S
H1252 C1273 0.950 . S
H1253 C1276 0.950 . S
H1254 C1277 0.950 . S
H1255 C1279 0.950 . S
H1256 C1280 0.950 . S
H1257 C1281 0.951 . S
H1258 C1283 0.951 . S
H1259 C1285 0.950 1_556 S
H1260 C1286 0.985 . S
H1261 C1288 0.907 1_556 S
H1262 C1291 0.950 . S
H1263 C1292 0.950 . S
H1264 C1294 0.950 . S
H1265 C1295 0.950 . S
C1266 H1248 0.951 . S
C1266 C1267 1.366 . S
C1266 C1268 1.388 . S
C1267 C1266 1.366 . S
C1267 C1271 1.385 . S
C1268 H1249 0.951 . S
C1268 C1266 1.388 . S
C1268 C1269 1.366 . S
C1269 C1268 1.366 . S
C1269 C1270 1.414 . S
C1269 C1272 1.499 . S
C1270 H1250 0.950 . S
C1270 C1269 1.414 . S
C1270 C1271 1.374 . S
C1271 H1251 0.950 . S
C1271 C1267 1.385 . S
C1271 C1270 1.374 . S
C1272 C1269 1.499 . S
C1272 C1273 1.373 . S
C1272 C1274 1.389 . S
C1273 H1252 0.950 . S
C1273 C1272 1.373 . S
C1273 C1289 1.377 . S
C1274 C1272 1.389 . S
C1274 C1275 1.524 . S
C1274 C1288 1.377 . S
C1275 C1274 1.524 . S
C1275 C1276 1.397 . S
C1275 C1280 1.363 1_554 S
C1276 H1253 0.950 . S
C1276 C1275 1.397 . S
C1276 C1277 1.334 1_554 S
C1277 H1254 0.950 . S
C1277 C1276 1.334 1_556 S
C1277 C1278 1.287 . S
C1278 C1277 1.287 . S
C1278 C1279 1.524 . S
C1278 H1297 0.913 . S
C1279 H1255 0.950 . S
C1279 C1278 1.524 . S
C1279 C1280 1.415 . S
C1280 H1256 0.950 . S
C1280 C1275 1.363 1_556 S
C1280 C1279 1.415 . S
C1281 H1257 0.951 . S
C1281 C1282 1.366 . S
C1281 C1283 1.388 . S
C1282 C1281 1.366 . S
C1282 C1286 1.362 1_554 S
C1283 H1258 0.951 . S
C1283 C1281 1.388 . S
C1283 C1284 1.366 . S
C1284 C1283 1.366 . S
C1284 C1285 1.414 . S
C1284 C1287 1.499 . S
C1285 H1259 0.950 1_554 S
C1285 C1284 1.414 . S
C1285 C1286 1.363 1_554 S
C1286 H1260 0.985 . S
C1286 C1282 1.362 1_556 S
C1286 C1285 1.363 1_556 S
C1287 C1284 1.499 . S
C1287 C1288 1.373 . S
C1287 C1289 1.389 . S
C1288 H1261 0.907 1_554 S
C1288 C1274 1.377 . S
C1288 C1287 1.373 . S
C1289 C1273 1.377 . S
C1289 C1287 1.389 . S
C1289 C1290 1.524 . S
C1290 C1289 1.524 . S
C1290 C1291 1.397 . S
C1290 C1295 1.363 . S
C1291 H1262 0.950 . S
C1291 C1290 1.397 . S
C1291 C1292 1.334 . S
C1292 H1263 0.950 . S
C1292 C1291 1.334 . S
C1292 C1293 1.287 . S
C1293 C1292 1.287 . S
C1293 C1294 1.524 . S
C1293 H1296 0.999 . S
C1294 H1264 0.950 . S
C1294 C1293 1.524 . S
C1294 C1295 1.415 . S
C1295 H1265 0.950 . S
C1295 C1290 1.363 . S
C1295 C1294 1.415 . S
H1296 C1293 0.999 . S
H1297 C1278 0.913 . S
H1298 C1316 0.951 . S
H1299 C1318 0.951 . S
H1300 C1320 0.950 . S
H1301 C1321 0.950 . S
H1302 C1323 0.950 . S
H1303 C1326 0.950 . S
H1304 C1327 0.950 . S
H1305 C1329 0.950 . S
H1306 C1330 0.950 . S
H1307 C1331 0.951 . S
H1308 C1333 0.951 . S
H1309 C1335 0.950 . S
H1310 C1336 0.950 . S
H1311 C1338 0.950 . S
H1312 C1341 0.950 . S
H1313 C1342 0.950 . S
H1314 C1344 0.950 . S
H1315 C1345 0.950 . S
C1316 H1298 0.951 . S
C1316 C1317 1.366 . S
C1316 C1318 1.388 . S
C1317 C1316 1.366 . S
C1317 C1321 1.385 . S
C1318 H1299 0.951 . S
C1318 C1316 1.388 . S
C1318 C1319 1.366 . S
C1319 C1318 1.366 . S
C1319 C1320 1.414 . S
C1319 C1322 1.499 . S
C1320 H1300 0.950 . S
C1320 C1319 1.414 . S
C1320 C1321 1.374 . S
C1321 H1301 0.950 . S
C1321 C1317 1.385 . S
C1321 C1320 1.374 . S
C1322 C1319 1.499 . S
C1322 C1323 1.373 . S
C1322 C1324 1.389 . S
C1323 H1302 0.950 . S
C1323 C1322 1.373 . S
C1323 C1339 1.377 . S
C1324 C1322 1.389 . S
C1324 C1325 1.524 . S
C1324 C1338 1.377 . S
C1325 C1324 1.524 . S
C1325 C1326 1.397 . S
C1325 C1330 1.363 . S
C1326 H1303 0.950 . S
C1326 C1325 1.397 . S
C1326 C1327 1.334 . S
C1327 H1304 0.950 . S
C1327 C1326 1.334 . S
C1327 C1328 1.287 . S
C1328 C1327 1.287 . S
C1328 C1329 1.524 . S
C1328 H1347 0.913 . S
C1329 H1305 0.950 . S
C1329 C1328 1.524 . S
C1329 C1330 1.415 . S
C1330 H1306 0.950 . S
C1330 C1325 1.363 . S
C1330 C1329 1.415 . S
C1331 H1307 0.951 . S
C1331 C1332 1.366 . S
C1331 C1333 1.388 . S
C1332 C1331 1.366 . S
C1332 C1336 1.385 . S
C1333 H1308 0.951 . S
C1333 C1331 1.388 . S
C1333 C1334 1.366 . S
C1334 C1333 1.366 . S
C1334 C1335 1.414 . S
C1334 C1337 1.499 . S
C1335 H1309 0.950 . S
C1335 C1334 1.414 . S
C1335 C1336 1.374 . S
C1336 H1310 0.950 . S
C1336 C1332 1.385 . S
C1336 C1335 1.374 . S
C1337 C1334 1.499 . S
C1337 C1338 1.373 . S
C1337 C1339 1.389 . S
C1338 H1311 0.950 . S
C1338 C1324 1.377 . S
C1338 C1337 1.373 . S
C1339 C1323 1.377 . S
C1339 C1337 1.389 . S
C1339 C1340 1.524 . S
C1340 C1339 1.524 . S
C1340 C1341 1.397 . S
C1340 C1345 1.363 . S
C1341 H1312 0.950 . S
C1341 C1340 1.397 . S
C1341 C1342 1.334 . S
C1342 H1313 0.950 . S
C1342 C1341 1.334 . S
C1342 C1343 1.287 . S
C1343 C1342 1.287 . S
C1343 C1344 1.524 . S
C1343 H1346 0.999 . S
C1344 H1314 0.950 . S
C1344 C1343 1.524 . S
C1344 C1345 1.415 . S
C1345 H1315 0.950 . S
C1345 C1340 1.363 . S
C1345 C1344 1.415 . S
H1346 C1343 0.999 . S
H1347 C1328 0.913 . S
H1348 C1366 0.951 . S
H1349 C1368 0.951 . S
H1350 C1370 0.950 . S
H1351 C1371 0.950 . S
H1352 C1373 0.950 . S
H1353 C1376 0.950 . S
H1354 C1377 0.950 . S
H1355 C1379 0.950 . S
H1356 C1380 0.950 . S
H1357 C1381 0.951 1_454 S
H1358 C1383 0.936 1_454 S
H1359 C1385 0.950 . S
H1360 C1386 0.950 . S
H1361 C1388 0.950 . S
H1362 C1391 0.950 1_655 S
H1363 C1392 0.950 . S
H1364 C1394 0.950 . S
H1365 C1395 0.950 . S
C1366 H1348 0.951 . S
C1366 C1367 1.366 . S
C1366 C1368 1.388 . S
C1367 C1366 1.366 . S
C1367 C1371 1.385 . S
C1368 H1349 0.951 . S
C1368 C1366 1.388 . S
C1368 C1369 1.366 . S
C1369 C1368 1.366 . S
C1369 C1370 1.414 . S
C1369 C1372 1.499 . S
C1370 H1350 0.950 . S
C1370 C1369 1.414 . S
C1370 C1371 1.374 . S
C1371 H1351 0.950 . S
C1371 C1367 1.385 . S
C1371 C1370 1.374 . S
C1372 C1369 1.499 . S
C1372 C1373 1.373 . S
C1372 C1374 1.389 . S
C1373 H1352 0.950 . S
C1373 C1372 1.373 . S
C1373 C1389 1.377 . S
C1374 C1372 1.389 . S
C1374 C1375 1.524 . S
C1374 C1388 1.377 . S
C1375 C1374 1.524 . S
C1375 C1376 1.397 1_556 S
C1375 C1380 1.363 . S
C1376 H1353 0.950 . S
C1376 C1375 1.397 1_554 S
C1376 C1377 1.334 . S
C1377 H1354 0.950 . S
C1377 C1376 1.334 . S
C1377 C1378 1.287 . S
C1378 C1377 1.287 . S
C1378 C1379 1.524 1_554 S
C1378 H1397 0.913 . S
C1379 H1355 0.950 . S
C1379 C1378 1.524 1_556 S
C1379 C1380 1.415 . S
C1380 H1356 0.950 . S
C1380 C1375 1.363 . S
C1380 C1379 1.415 . S
C1381 H1357 0.951 1_656 S
C1381 C1382 1.366 . S
C1381 C1383 1.388 . S
C1382 C1381 1.366 . S
C1382 C1386 1.385 . S
C1383 H1358 0.936 1_656 S
C1383 C1381 1.388 . S
C1383 C1384 1.366 . S
C1384 C1383 1.366 . S
C1384 C1385 1.414 . S
C1384 C1387 1.499 . S
C1385 H1359 0.950 . S
C1385 C1384 1.414 . S
C1385 C1386 1.374 . S
C1386 H1360 0.950 . S
C1386 C1382 1.385 . S
C1386 C1385 1.374 . S
C1387 C1384 1.499 . S
C1387 C1388 1.373 . S
C1387 C1389 1.389 . S
C1388 H1361 0.950 . S
C1388 C1374 1.377 . S
C1388 C1387 1.373 . S
C1389 C1373 1.377 . S
C1389 C1387 1.389 . S
C1389 C1390 1.524 1_655 S
C1390 C1389 1.524 1_455 S
C1390 C1391 1.397 . S
C1390 C1395 1.363 . S
C1391 H1362 0.950 1_455 S
C1391 C1390 1.397 . S
C1391 C1392 1.334 . S
C1392 H1363 0.950 . S
C1392 C1391 1.334 . S
C1392 C1393 1.287 . S
C1393 C1392 1.287 . S
C1393 C1394 1.524 . S
C1393 H1396 0.999 . S
C1394 H1364 0.950 . S
C1394 C1393 1.524 . S
C1394 C1395 1.415 . S
C1395 H1365 0.950 . S
C1395 C1390 1.363 . S
C1395 C1394 1.415 . S
H1396 C1393 0.999 . S
H1397 C1378 0.913 . S
H1398 C1416 0.951 . S
H1399 C1418 0.951 . S
H1400 C1420 0.950 . S
H1401 C1421 0.950 . S
H1402 C1423 0.950 . S
H1403 C1426 0.950 . S
H1404 C1427 0.950 . S
H1405 C1429 0.950 . S
H1406 C1430 0.950 . S
H1407 C1431 0.951 . S
H1408 C1433 0.951 . S
H1409 C1435 0.950 . S
H1410 C1436 0.950 . S
H1411 C1438 0.950 . S
H1412 C1441 0.950 . S
H1413 C1442 0.950 . S
H1414 C1444 0.950 . S
H1415 C1445 0.950 . S
C1416 H1398 0.951 . S
C1416 C1417 1.366 . S
C1416 C1418 1.388 . S
C1417 C1416 1.366 . S
C1417 C1421 1.385 . S
C1418 H1399 0.951 . S
C1418 C1416 1.388 . S
C1418 C1419 1.366 . S
C1419 C1418 1.366 . S
C1419 C1420 1.414 . S
C1419 C1422 1.499 . S
C1420 H1400 0.950 . S
C1420 C1419 1.414 . S
C1420 C1421 1.374 . S
C1421 H1401 0.950 . S
C1421 C1417 1.385 . S
C1421 C1420 1.374 . S
C1422 C1419 1.499 . S
C1422 C1423 1.373 . S
C1422 C1424 1.389 . S
C1423 H1402 0.950 . S
C1423 C1422 1.373 . S
C1423 C1439 1.377 . S
C1424 C1422 1.389 . S
C1424 C1425 1.524 . S
C1424 C1438 1.377 . S
C1425 C1424 1.524 . S
C1425 C1426 1.397 . S
C1425 C1430 1.363 . S
C1426 H1403 0.950 . S
C1426 C1425 1.397 . S
C1426 C1427 1.334 . S
C1427 H1404 0.950 . S
C1427 C1426 1.334 . S
C1427 C1428 1.287 . S
C1428 C1427 1.287 . S
C1428 C1429 1.524 . S
C1428 H1447 0.913 . S
C1429 H1405 0.950 . S
C1429 C1428 1.524 . S
C1429 C1430 1.415 . S
C1430 H1406 0.950 . S
C1430 C1425 1.363 . S
C1430 C1429 1.415 . S
C1431 H1407 0.951 . S
C1431 C1432 1.366 . S
C1431 C1433 1.388 . S
C1432 C1431 1.366 . S
C1432 C1436 1.385 . S
C1433 H1408 0.951 . S
C1433 C1431 1.388 . S
C1433 C1434 1.366 . S
C1434 C1433 1.366 . S
C1434 C1435 1.414 . S
C1434 C1437 1.499 . S
C1435 H1409 0.950 . S
C1435 C1434 1.414 . S
C1435 C1436 1.374 . S
C1436 H1410 0.950 . S
C1436 C1432 1.385 . S
C1436 C1435 1.374 . S
C1437 C1434 1.499 . S
C1437 C1438 1.373 . S
C1437 C1439 1.389 . S
C1438 H1411 0.950 . S
C1438 C1424 1.377 . S
C1438 C1437 1.373 . S
C1439 C1423 1.377 . S
C1439 C1437 1.389 . S
C1439 C1440 1.524 . S
C1440 C1439 1.524 . S
C1440 C1441 1.397 . S
C1440 C1445 1.363 . S
C1441 H1412 0.950 . S
C1441 C1440 1.397 . S
C1441 C1442 1.334 1_554 S
C1442 H1413 0.950 . S
C1442 C1441 1.334 1_556 S
C1442 C1443 1.287 . S
C1443 C1442 1.287 . S
C1443 C1444 1.524 1_556 S
C1443 H1446 0.999 . S
C1444 H1414 0.950 . S
C1444 C1443 1.524 1_554 S
C1444 C1445 1.415 . S
C1445 H1415 0.950 . S
C1445 C1440 1.363 . S
C1445 C1444 1.415 . S
H1446 C1443 0.999 . S
H1447 C1428 0.913 . S
H1448 C1466 0.951 . S
H1449 C1468 0.951 . S
H1450 C1470 0.950 . S
H1451 C1471 0.950 . S
H1452 C1473 0.950 . S
H1453 C1476 0.950 . S
H1454 C1477 0.950 . S
H1455 C1479 0.950 . S
H1456 C1480 0.950 . S
H1457 C1481 0.951 1_655 S
H1458 C1483 0.943 1_655 S
H1459 C1485 0.950 . S
H1460 C1486 0.950 . S
H1461 C1488 0.950 . S
H1462 C1491 0.950 . S
H1463 C1492 0.950 . S
H1464 C1494 0.950 . S
H1465 C1495 0.950 . S
C1466 H1448 0.951 . S
C1466 C1467 1.366 . S
C1466 C1468 1.388 . S
C1467 C1466 1.366 . S
C1467 C1471 1.385 . S
C1468 H1449 0.951 . S
C1468 C1466 1.388 . S
C1468 C1469 1.366 . S
C1469 C1468 1.366 . S
C1469 C1470 1.414 . S
C1469 C1472 1.499 . S
C1470 H1450 0.950 . S
C1470 C1469 1.414 . S
C1470 C1471 1.374 . S
C1471 H1451 0.950 . S
C1471 C1467 1.385 . S
C1471 C1470 1.374 . S
C1472 C1469 1.499 . S
C1472 C1473 1.373 . S
C1472 C1474 1.389 . S
C1473 H1452 0.950 . S
C1473 C1472 1.373 . S
C1473 C1489 1.377 . S
C1474 C1472 1.389 . S
C1474 C1475 1.524 . S
C1474 C1488 1.377 . S
C1475 C1474 1.524 . S
C1475 C1476 1.397 . S
C1475 C1480 1.363 . S
C1476 H1453 0.950 . S
C1476 C1475 1.397 . S
C1476 C1477 1.334 . S
C1477 H1454 0.950 . S
C1477 C1476 1.334 . S
C1477 C1478 1.287 . S
C1478 C1477 1.287 . S
C1478 C1479 1.524 . S
C1478 H1497 0.913 . S
C1479 H1455 0.950 . S
C1479 C1478 1.524 . S
C1479 C1480 1.415 . S
C1480 H1456 0.950 . S
C1480 C1475 1.363 . S
C1480 C1479 1.415 . S
C1481 H1457 0.951 1_455 S
C1481 C1482 1.366 . S
C1481 C1483 1.388 . S
C1482 C1481 1.366 . S
C1482 C1486 1.385 . S
C1483 H1458 0.943 1_455 S
C1483 C1481 1.388 . S
C1483 C1484 1.366 . S
C1484 C1483 1.366 . S
C1484 C1485 1.414 . S
C1484 C1487 1.499 . S
C1485 H1459 0.950 . S
C1485 C1484 1.414 . S
C1485 C1486 1.374 . S
C1486 H1460 0.950 . S
C1486 C1482 1.385 . S
C1486 C1485 1.374 . S
C1487 C1484 1.499 . S
C1487 C1488 1.373 . S
C1487 C1489 1.389 . S
C1488 H1461 0.950 . S
C1488 C1474 1.377 . S
C1488 C1487 1.373 . S
C1489 C1473 1.377 . S
C1489 C1487 1.389 . S
C1489 C1490 1.524 . S
C1490 C1489 1.524 . S
C1490 C1491 1.397 . S
C1490 C1495 1.363 1_455 S
C1491 H1462 0.950 . S
C1491 C1490 1.397 . S
C1491 C1492 1.334 . S
C1492 H1463 0.950 . S
C1492 C1491 1.334 . S
C1492 C1493 1.287 1_455 S
C1493 C1492 1.287 1_655 S
C1493 C1494 1.524 . S
C1493 H1496 0.999 . S
C1494 H1464 0.950 . S
C1494 C1493 1.524 . S
C1494 C1495 1.415 . S
C1495 H1465 0.950 . S
C1495 C1490 1.363 1_655 S
C1495 C1494 1.415 . S
H1496 C1493 0.999 . S
H1497 C1478 0.913 . S
H1498 C1516 0.951 . S
H1499 C1518 0.951 . S
H1500 C1520 0.950 . S
H1501 C1521 0.950 . S
H1502 C1523 0.950 . S
H1503 C1526 0.950 . S
H1504 C1527 0.950 . S
H1505 C1529 0.950 . S
H1506 C1530 0.950 . S
H1507 C1531 0.951 . S
H1508 C1533 0.951 . S
H1509 C1535 0.950 . S
H1510 C1536 0.950 . S
H1511 C1538 0.950 . S
H1512 C1541 0.950 . S
H1513 C1542 0.950 . S
H1514 C1544 0.950 . S
H1515 C1545 0.950 . S
C1516 H1498 0.951 . S
C1516 C1517 1.366 . S
C1516 C1518 1.388 . S
C1517 C1516 1.366 . S
C1517 C1521 1.385 . S
C1518 H1499 0.951 . S
C1518 C1516 1.388 . S
C1518 C1519 1.366 . S
C1519 C1518 1.366 . S
C1519 C1520 1.414 . S
C1519 C1522 1.499 . S
C1520 H1500 0.950 . S
C1520 C1519 1.414 . S
C1520 C1521 1.374 . S
C1521 H1501 0.950 . S
C1521 C1517 1.385 . S
C1521 C1520 1.374 . S
C1522 C1519 1.499 . S
C1522 C1523 1.373 . S
C1522 C1524 1.389 . S
C1523 H1502 0.950 . S
C1523 C1522 1.373 . S
C1523 C1539 1.377 . S
C1524 C1522 1.389 . S
C1524 C1525 1.524 . S
C1524 C1538 1.377 . S
C1525 C1524 1.524 . S
C1525 C1526 1.397 . S
C1525 C1530 1.363 . S
C1526 H1503 0.950 . S
C1526 C1525 1.397 . S
C1526 C1527 1.334 . S
C1527 H1504 0.950 . S
C1527 C1526 1.334 . S
C1527 C1528 1.287 . S
C1528 C1527 1.287 . S
C1528 C1529 1.524 . S
C1528 H1547 0.913 . S
C1529 H1505 0.950 . S
C1529 C1528 1.524 . S
C1529 C1530 1.415 . S
C1530 H1506 0.950 . S
C1530 C1525 1.363 . S
C1530 C1529 1.415 . S
C1531 H1507 0.951 . S
C1531 C1532 1.366 . S
C1531 C1533 1.388 . S
C1532 C1531 1.366 . S
C1532 C1536 1.385 . S
C1533 H1508 0.951 . S
C1533 C1531 1.388 . S
C1533 C1534 1.366 . S
C1534 C1533 1.366 . S
C1534 C1535 1.414 . S
C1534 C1537 1.499 . S
C1535 H1509 0.950 . S
C1535 C1534 1.414 . S
C1535 C1536 1.374 . S
C1536 H1510 0.950 . S
C1536 C1532 1.385 . S
C1536 C1535 1.374 . S
C1537 C1534 1.499 . S
C1537 C1538 1.373 . S
C1537 C1539 1.389 . S
C1538 H1511 0.950 . S
C1538 C1524 1.377 . S
C1538 C1537 1.373 . S
C1539 C1523 1.377 . S
C1539 C1537 1.389 . S
C1539 C1540 1.524 . S
C1540 C1539 1.524 . S
C1540 C1541 1.397 . S
C1540 C1545 1.363 . S
C1541 H1512 0.950 . S
C1541 C1540 1.397 . S
C1541 C1542 1.334 . S
C1542 H1513 0.950 . S
C1542 C1541 1.334 . S
C1542 C1543 1.287 . S
C1543 C1542 1.287 . S
C1543 C1544 1.524 . S
C1543 H1546 0.999 . S
C1544 H1514 0.950 . S
C1544 C1543 1.524 . S
C1544 C1545 1.415 . S
C1545 H1515 0.950 . S
C1545 C1540 1.363 . S
C1545 C1544 1.415 . S
H1546 C1543 0.999 . S
H1547 C1528 0.913 . S
C367 C29 1.591 . S
C382 C274 1.630 . S
C417 C49 1.552 . S
C432 C298 1.526 . S
C482 C318 1.426 . S
C467 C93 1.349 . S
C517 C119 1.292 . S
C532 C341 1.358 . S
C582 C300 1.667 . S
C567 C17 1.655 . S
C632 C276 1.708 . S
C617 C61 1.738 . S
C682 C344 1.539 . S
C667 C81 1.510 . S
C732 C321 1.588 . S
C717 C125 1.543 . S
C767 C23 1.285 . S
C782 C346 1.300 . S
C832 C295 1.619 1_556 S
C817 C87 1.546 . S
C867 C113 1.604 . S
C882 C273 1.676 . S
C917 C55 1.332 . S
C932 C323 1.305 . S
C982 C277 1.622 . S
C967 C157 1.638 . S
C1017 C189 1.505 . S
C1032 C299 1.593 . S
C1067 C221 1.803 . S
C1082 C319 1.803 . S
C1117 C253 1.693 . S
C1132 C342 1.815 . S
C1167 C145 1.601 . S
C1182 C297 1.557 1_556 S
C1232 C275 1.501 . S
C1217 C183 1.404 . S
C1282 C345 1.467 . S
C1267 C209 1.506 . S
C1332 C322 1.465 . S
C1317 C247 1.418 . S
C1367 C151 1.932 . S
C1382 C343 1.878 . S
C1432 C296 1.528 . S
C1417 C215 1.536 . S
C1482 C272 1.573 . S
C1467 C241 1.479 . S
C1517 C177 1.825 . S
C1532 C320 1.892 . S
