# Generated by pormake.
# Topology ssc, (4,4)-cn, num edge types: 1
# Building blocks:
#     Node 0, Type 0, BuildingBlock: QUQFOY_clean_sbu_3, # of connection points: 4
#     Node 1, Type 0, BuildingBlock: QUQFOY_clean_sbu_3, # of connection points: 4
#     Node 2, Type 0, BuildingBlock: QUQFOY_clean_sbu_3, # of connection points: 4
#     Node 3, Type 0, BuildingBlock: QUQFOY_clean_sbu_3, # of connection points: 4
#     Node 4, Type 0, BuildingBlock: QUQFOY_clean_sbu_3, # of connection points: 4
#     Node 5, Type 0, BuildingBlock: QUQFOY_clean_sbu_3, # of connection points: 4
#     Node 6, Type 0, BuildingBlock: QUQFOY_clean_sbu_3, # of connection points: 4
#     Node 7, Type 0, BuildingBlock: QUQFOY_clean_sbu_3, # of connection points: 4
#     Node 8, Type 0, BuildingBlock: QUQFOY_clean_sbu_3, # of connection points: 4
#     Node 9, Type 0, BuildingBlock: QUQFOY_clean_sbu_3, # of connection points: 4
#     Node 10, Type 0, BuildingBlock: QUQFOY_clean_sbu_3, # of connection points: 4
#     Node 11, Type 0, BuildingBlock: QUQFOY_clean_sbu_3, # of connection points: 4
#     Node 12, Type 1, BuildingBlock: GIZVER_clean_linker_0, # of connection points: 4
#     Node 13, Type 1, BuildingBlock: GIZVER_clean_linker_0, # of connection points: 4
#     Node 14, Type 1, BuildingBlock: GIZVER_clean_linker_0, # of connection points: 4
#     Node 15, Type 1, BuildingBlock: GIZVER_clean_linker_0, # of connection points: 4
#     Node 16, Type 1, BuildingBlock: GIZVER_clean_linker_0, # of connection points: 4
#     Node 17, Type 1, BuildingBlock: GIZVER_clean_linker_0, # of connection points: 4
#     Node 18, Type 1, BuildingBlock: GIZVER_clean_linker_0, # of connection points: 4
#     Node 19, Type 1, BuildingBlock: GIZVER_clean_linker_0, # of connection points: 4
#     Node 20, Type 1, BuildingBlock: GIZVER_clean_linker_0, # of connection points: 4
#     Node 21, Type 1, BuildingBlock: GIZVER_clean_linker_0, # of connection points: 4
#     Node 22, Type 1, BuildingBlock: GIZVER_clean_linker_0, # of connection points: 4
#     Node 23, Type 1, BuildingBlock: GIZVER_clean_linker_0, # of connection points: 4
#     Edge 24, Type (0, 1), BuildingBlock: XIVTED_clean_linker_0, # of connection points: 2
#     Edge 25, Type (0, 1), BuildingBlock: XIVTED_clean_linker_0, # of connection points: 2
#     Edge 26, Type (0, 1), BuildingBlock: XIVTED_clean_linker_0, # of connection points: 2
#     Edge 27, Type (0, 1), BuildingBlock: XIVTED_clean_linker_0, # of connection points: 2
#     Edge 28, Type (0, 1), BuildingBlock: XIVTED_clean_linker_0, # of connection points: 2
#     Edge 29, Type (0, 1), BuildingBlock: XIVTED_clean_linker_0, # of connection points: 2
#     Edge 30, Type (0, 1), BuildingBlock: XIVTED_clean_linker_0, # of connection points: 2
#     Edge 31, Type (0, 1), BuildingBlock: XIVTED_clean_linker_0, # of connection points: 2
#     Edge 32, Type (0, 1), BuildingBlock: XIVTED_clean_linker_0, # of connection points: 2
#     Edge 33, Type (0, 1), BuildingBlock: XIVTED_clean_linker_0, # of connection points: 2
#     Edge 34, Type (0, 1), BuildingBlock: XIVTED_clean_linker_0, # of connection points: 2
#     Edge 35, Type (0, 1), BuildingBlock: XIVTED_clean_linker_0, # of connection points: 2
#     Edge 36, Type (0, 1), BuildingBlock: XIVTED_clean_linker_0, # of connection points: 2
#     Edge 37, Type (0, 1), BuildingBlock: XIVTED_clean_linker_0, # of connection points: 2
#     Edge 38, Type (0, 1), BuildingBlock: XIVTED_clean_linker_0, # of connection points: 2
#     Edge 39, Type (0, 1), BuildingBlock: XIVTED_clean_linker_0, # of connection points: 2
#     Edge 40, Type (0, 1), BuildingBlock: XIVTED_clean_linker_0, # of connection points: 2
#     Edge 41, Type (0, 1), BuildingBlock: XIVTED_clean_linker_0, # of connection points: 2
#     Edge 42, Type (0, 1), BuildingBlock: XIVTED_clean_linker_0, # of connection points: 2
#     Edge 43, Type (0, 1), BuildingBlock: XIVTED_clean_linker_0, # of connection points: 2
#     Edge 44, Type (0, 1), BuildingBlock: XIVTED_clean_linker_0, # of connection points: 2
#     Edge 45, Type (0, 1), BuildingBlock: XIVTED_clean_linker_0, # of connection points: 2
#     Edge 46, Type (0, 1), BuildingBlock: XIVTED_clean_linker_0, # of connection points: 2
#     Edge 47, Type (0, 1), BuildingBlock: XIVTED_clean_linker_0, # of connection points: 2
#     Edge 48, Type (0, 1), BuildingBlock: XIVTED_clean_linker_0, # of connection points: 2
#     Edge 49, Type (0, 1), BuildingBlock: XIVTED_clean_linker_0, # of connection points: 2
#     Edge 50, Type (0, 1), BuildingBlock: XIVTED_clean_linker_0, # of connection points: 2
#     Edge 51, Type (0, 1), BuildingBlock: XIVTED_clean_linker_0, # of connection points: 2
#     Edge 52, Type (0, 1), BuildingBlock: XIVTED_clean_linker_0, # of connection points: 2
#     Edge 53, Type (0, 1), BuildingBlock: XIVTED_clean_linker_0, # of connection points: 2
#     Edge 54, Type (0, 1), BuildingBlock: XIVTED_clean_linker_0, # of connection points: 2
#     Edge 55, Type (0, 1), BuildingBlock: XIVTED_clean_linker_0, # of connection points: 2
#     Edge 56, Type (0, 1), BuildingBlock: XIVTED_clean_linker_0, # of connection points: 2
#     Edge 57, Type (0, 1), BuildingBlock: XIVTED_clean_linker_0, # of connection points: 2
#     Edge 58, Type (0, 1), BuildingBlock: XIVTED_clean_linker_0, # of connection points: 2
#     Edge 59, Type (0, 1), BuildingBlock: XIVTED_clean_linker_0, # of connection points: 2
#     Edge 60, Type (0, 1), BuildingBlock: XIVTED_clean_linker_0, # of connection points: 2
#     Edge 61, Type (0, 1), BuildingBlock: XIVTED_clean_linker_0, # of connection points: 2
#     Edge 62, Type (0, 1), BuildingBlock: XIVTED_clean_linker_0, # of connection points: 2
#     Edge 63, Type (0, 1), BuildingBlock: XIVTED_clean_linker_0, # of connection points: 2
#     Edge 64, Type (0, 1), BuildingBlock: XIVTED_clean_linker_0, # of connection points: 2
#     Edge 65, Type (0, 1), BuildingBlock: XIVTED_clean_linker_0, # of connection points: 2
#     Edge 66, Type (0, 1), BuildingBlock: XIVTED_clean_linker_0, # of connection points: 2
#     Edge 67, Type (0, 1), BuildingBlock: XIVTED_clean_linker_0, # of connection points: 2
#     Edge 68, Type (0, 1), BuildingBlock: XIVTED_clean_linker_0, # of connection points: 2
#     Edge 69, Type (0, 1), BuildingBlock: XIVTED_clean_linker_0, # of connection points: 2
#     Edge 70, Type (0, 1), BuildingBlock: XIVTED_clean_linker_0, # of connection points: 2
#     Edge 71, Type (0, 1), BuildingBlock: XIVTED_clean_linker_0, # of connection points: 2
# Relax obj value: 0.121
# Max RMSD: 0.300
# Mean RMSD: 0.278
data_MOF--net-ssc--node1-QUQFOY_clean_sbu_3--node2-GIZVER_clean_linker_0--edge1-XIVTED_clean_linker_0
_symmetry_space_group_name_H-M    P1
_symmetry_Int_Tables_number       1
_symmetry_cell_setting            triclinic
loop_
_symmetry_equiv_pos_as_xyz
'x, y, z'
_cell_length_a     31.299848
_cell_length_b     31.456157
_cell_length_c     31.341888
_cell_angle_alpha  92.742161
_cell_angle_beta   90.123594
_cell_angle_gamma 91.45802
loop_
_atom_site_label
_atom_site_type_symbol
_atom_site_fract_x
_atom_site_fract_y
_atom_site_fract_z
_atom_type_partial_charge
C0 C 0.16871 0.28438 0.23259 0.0
O1 O 0.17614 0.24507 0.23427 0.0
Cd2 Cd 0.13603 0.19345 0.19141 0.0
O3 O 0.13976 0.2968 0.2077 0.0
Cd4 Cd 0.08782 0.26218 0.15556 0.0
C5 C 0.03508 0.20966 0.22944 0.0
O6 O 0.13527 0.21184 0.1177 0.0
O7 O 0.06774 0.19677 0.11406 0.0
O8 O 0.10112 0.31978 0.10743 0.0
C9 C 0.10486 0.19109 0.09908 0.0
O10 O 0.06582 0.18425 0.22435 0.0
C11 C 0.06235 0.32492 0.09748 0.0
O12 O 0.0357 0.24498 0.21127 0.0
O13 O 0.03467 0.3027 0.11666 0.0
C14 C 0.04636 0.77925 0.25987 0.0
O15 O 0.04821 0.81962 0.26023 0.0
Cd16 Cd 0.01945 0.86016 0.31964 0.0
O17 O 0.02466 0.7601 0.2879 0.0
Cd18 Cd 0.978 0.78095 0.34877 0.0
C19 C 0.91352 0.85022 0.30273 0.0
O20 O 0.03965 0.82083 0.38051 0.0
O21 O 0.98166 0.82135 0.41749 0.0
O22 O 0.98982 0.70919 0.37143 0.0
C23 C 0.0218 0.82729 0.41627 0.0
O24 O 0.94517 0.87612 0.30678 0.0
C25 C 0.95414 0.70511 0.39018 0.0
O26 O 0.91749 0.81152 0.31153 0.0
O27 O 0.92788 0.73468 0.38614 0.0
C28 C 0.55814 0.7724 0.76094 0.0
O29 O 0.57854 0.73806 0.75931 0.0
Cd30 Cd 0.55763 0.6807 0.70995 0.0
O31 O 0.52746 0.7773 0.73492 0.0
Cd32 Cd 0.49247 0.73426 0.67487 0.0
C33 C 0.45476 0.6615 0.74061 0.0
O34 O 0.55468 0.70322 0.63756 0.0
O35 O 0.49341 0.67187 0.6257 0.0
O36 O 0.49322 0.79692 0.63209 0.0
C37 C 0.53175 0.67783 0.61404 0.0
O38 O 0.49232 0.64725 0.73693 0.0
C39 C 0.45542 0.79165 0.6178 0.0
O40 O 0.44531 0.69628 0.7241 0.0
O41 O 0.43305 0.76189 0.63331 0.0
C42 C 0.52973 0.27453 0.79038 0.0
O43 O 0.53405 0.31304 0.80396 0.0
Cd44 Cd 0.50778 0.33752 0.87133 0.0
O45 O 0.51092 0.24702 0.81299 0.0
Cd46 Cd 0.47718 0.24741 0.88546 0.0
C47 C 0.40134 0.31568 0.85853 0.0
O48 O 0.53693 0.28826 0.91908 0.0
O49 O 0.48225 0.278 0.95918 0.0
O50 O 0.50154 0.17471 0.88916 0.0
C51 C 0.52137 0.28882 0.95626 0.0
O52 O 0.43038 0.34439 0.86434 0.0
C53 C 0.47034 0.16162 0.91104 0.0
O54 O 0.41007 0.27668 0.86137 0.0
O55 O 0.44038 0.18747 0.91792 0.0
C56 C 0.07706 0.06546 0.18588 0.0
O57 O 0.07683 0.0955 0.21429 0.0
Cd58 Cd 0.11266 0.09074 0.2809 0.0
O59 O 0.10077 0.03359 0.19032 0.0
Cd60 Cd 0.15655 0.0121 0.24161 0.0
C61 C 0.07781 0.99043 0.30863 0.0
O62 O 0.18695 0.0828 0.26596 0.0
O63 O 0.20474 0.02842 0.30101 0.0
O64 O 0.19996 0.99742 0.17924 0.0
C65 C 0.21042 0.06748 0.29413 0.0
O66 O 0.07608 0.03077 0.31306 0.0
C67 C 0.21329 0.96208 0.19108 0.0
O68 O 0.10453 0.97278 0.28352 0.0
O69 O 0.1985 0.94874 0.22581 0.0
C70 C 0.203 0.92656 0.4344 0.0
O71 O 0.23579 0.92626 0.41054 0.0
Cd72 Cd 0.2951 0.88 0.41546 0.0
O73 O 0.19922 0.90089 0.46468 0.0
Cd74 Cd 0.24242 0.84421 0.49549 0.0
C75 C 0.32759 0.91182 0.5166 0.0
O76 O 0.26155 0.8127 0.42556 0.0
O77 O 0.29123 0.78589 0.47979 0.0
O78 O 0.18322 0.7971 0.51538 0.0
C79 C 0.28479 0.78433 0.43985 0.0
O80 O 0.33647 0.90834 0.47698 0.0
C81 C 0.19395 0.79625 0.55446 0.0
O82 O 0.29397 0.89422 0.53114 0.0
O83 O 0.2251 0.82037 0.56685 0.0
C84 C 0.46992 0.91223 0.69028 0.0
O85 O 0.47685 0.88745 0.72014 0.0
Cd86 Cd 0.45012 0.90442 0.78957 0.0
O87 O 0.44311 0.94199 0.69546 0.0
Cd88 Cd 0.39213 0.9698 0.75102 0.0
C89 C 0.48298 0.01038 0.7951 0.0
O90 O 0.37329 0.90198 0.78348 0.0
O91 O 0.3542 0.95931 0.81807 0.0
O92 O 0.33309 0.97558 0.69999 0.0
C93 C 0.35134 0.91909 0.81324 0.0
O94 O 0.4897 0.97202 0.80386 0.0
C95 C 0.32602 0.01426 0.71072 0.0
O96 O 0.44844 0.01983 0.77696 0.0
O97 O 0.35069 0.03224 0.73862 0.0
C98 C 0.2228 0.08718 0.04146 0.0
O99 O 0.2502 0.08797 0.07133 0.0
Cd100 Cd 0.31966 0.11473 0.05731 0.0
O101 O 0.23075 0.10622 0.00703 0.0
Cd102 Cd 0.28853 0.15529 0.97813 0.0
C103 C 0.34313 0.06749 0.95813 0.0
O104 O 0.31134 0.18934 0.04671 0.0
O105 O 0.35321 0.20047 0.99366 0.0
O106 O 0.24118 0.21168 0.95945 0.0
C107 C 0.34248 0.21035 0.0318 0.0
O108 O 0.34333 0.06636 -0.00135 0.0
C109 C 0.25042 0.21045 0.92002 0.0
O110 O 0.32717 0.09863 0.94006 0.0
O111 O 0.27562 0.18182 0.9068 0.0
C112 C 0.70446 0.37398 0.95849 0.0
O113 O 0.72734 0.36213 0.9269 0.0
Cd114 Cd 0.77596 0.30569 0.92395 0.0
O115 O 0.70313 0.35289 0.99239 0.0
Cd116 Cd 0.73807 0.28781 0.01808 0.0
C117 C 0.8288 0.35013 0.01205 0.0
O118 O 0.73535 0.24813 0.9501 0.0
O119 O 0.7772 0.22313 0.99639 0.0
O120 O 0.67402 0.26174 0.05444 0.0
C121 C 0.75926 0.21847 0.96012 0.0
O122 O 0.82962 0.33908 0.97241 0.0
C123 C 0.69415 0.25017 0.08706 0.0
O124 O 0.79861 0.33715 0.03579 0.0
O125 O 0.73383 0.25965 0.08908 0.0
C126 C 0.89286 0.45952 0.17964 0.0
O127 O 0.87681 0.42478 0.19217 0.0
Cd128 Cd 0.81782 0.42512 0.24166 0.0
O129 O 0.87529 0.49482 0.18918 0.0
Cd130 Cd 0.81477 0.52932 0.22573 0.0
C131 C 0.86622 0.49846 0.31401 0.0
O132 O 0.76467 0.46983 0.21419 0.0
O133 O 0.74378 0.52059 0.25703 0.0
O134 O 0.81067 0.57382 0.1645 0.0
C135 C 0.7359 0.48438 0.23884 0.0
O136 O 0.85398 0.4604 0.30356 0.0
C137 C 0.80569 0.60848 0.18627 0.0
O138 O 0.85685 0.52928 0.29104 0.0
O139 O 0.80556 0.6065 0.22668 0.0
C140 C 0.68894 0.60574 0.61189 0.0
O141 O 0.71568 0.61252 0.6421 0.0
Cd142 Cd 0.77884 0.65596 0.63221 0.0
O143 O 0.69362 0.62403 0.57669 0.0
Cd144 Cd 0.74259 0.6729 0.53987 0.0
C145 C 0.81364 0.59511 0.54588 0.0
O146 O 0.76288 0.72194 0.60006 0.0
O147 O 0.80217 0.72352 0.54332 0.0
O148 O 0.68892 0.71486 0.50573 0.0
C149 C 0.79274 0.74 0.5797 0.0
O150 O 0.81756 0.60677 0.58519 0.0
C151 C 0.69998 0.70426 0.46778 0.0
O152 O 0.78788 0.61342 0.52181 0.0
O153 O 0.72967 0.67772 0.46329 0.0
C154 C 0.59354 0.54476 0.72149 0.0
O155 O 0.59522 0.57936 0.74409 0.0
Cd156 Cd 0.6394 0.58999 0.80609 0.0
O157 O 0.61919 0.51492 0.72829 0.0
Cd158 Cd 0.68079 0.50093 0.77538 0.0
C159 C 0.61105 0.49788 0.85666 0.0
O160 O 0.71012 0.57399 0.78422 0.0
O161 O 0.73522 0.52804 0.8263 0.0
O162 O 0.72902 0.47332 0.72048 0.0
C163 C 0.73672 0.56543 0.81288 0.0
O164 O 0.60966 0.53814 0.85417 0.0
C165 C 0.7302 0.43605 0.73427 0.0
O166 O 0.63409 0.47577 0.83121 0.0
O167 O 0.707 0.42819 0.76623 0.0
H168 H 0.09463 0.23136 0.60063 0.0
H169 H 0.03946 0.22264 0.4741 0.0
H170 H 0.09259 0.11257 0.52695 0.0
H171 H 0.06853 0.29384 0.57225 0.0
H172 H 0.07502 0.29363 0.51556 0.0
H173 H 0.99176 0.25623 0.59455 0.0
H174 H 0.89194 0.32315 0.53489 0.0
H175 H 0.01911 0.32967 0.48514 0.0
C176 C 0.08532 0.21244 0.57218 0.0
C177 C 0.09558 0.16919 0.56845 0.0
C178 C 0.06438 0.23176 0.53858 0.0
C179 C 0.05373 0.20762 0.50089 0.0
C180 C 0.06278 0.16434 0.49755 0.0
C181 C 0.08324 0.14546 0.53135 0.0
C182 C 0.05656 0.27881 0.54153 0.0
C183 C 0.00969 0.28777 0.5372 0.0
C184 C 0.98051 0.2739 0.56805 0.0
C185 C 0.93768 0.28601 0.56681 0.0
C186 C 0.92407 0.31092 0.53373 0.0
C187 C 0.95348 0.32812 0.50527 0.0
C188 C 0.99601 0.31531 0.50618 0.0
H189 H 0.1098 0.72198 0.97143 0.0
H190 H 0.03941 0.7925 0.06871 0.0
H191 H 0.10782 0.85832 0.97242 0.0
H192 H 0.08225 0.68627 0.03209 0.0
H193 H 0.06132 0.71666 0.07685 0.0
H194 H 0.99546 0.73863 0.98536 0.0
H195 H 0.90218 0.64041 0.00881 0.0
H196 H 0.02452 0.63855 0.06995 0.0
C197 C 0.09805 0.75185 0.98482 0.0
C198 C 0.11097 0.79018 0.9669 0.0
C199 C 0.07083 0.75227 0.02081 0.0
C200 C 0.05814 0.79164 0.03965 0.0
C201 C 0.07085 0.82984 0.02151 0.0
C202 C 0.0963 0.82855 0.98493 0.0
C203 C 0.05895 0.71109 0.0416 0.0
C204 C 0.01431 0.69302 0.03171 0.0
C205 C 0.98587 0.71118 0.00292 0.0
C206 C 0.94505 0.69261 0.99541 0.0
C207 C 0.9327 0.65613 0.0166 0.0
C208 C 0.96139 0.63588 0.04242 0.0
C209 C 0.00198 0.65459 0.05034 0.0
H210 H 0.54167 0.66734 0.96131 0.0
H211 H 0.58264 0.78115 0.03345 0.0
H212 H 0.67399 0.6887 0.99127 0.0
H213 H 0.49103 0.72199 0.97345 0.0
H214 H 0.49999 0.72468 0.02953 0.0
H215 H 0.52669 0.7938 0.93602 0.0
H216 H 0.47166 0.90376 -0.00182 0.0
H217 H 0.46447 0.78385 0.05745 0.0
C218 C 0.56715 0.68846 0.97374 0.0
C219 C 0.60919 0.67446 0.97281 0.0
C220 C 0.5573 0.72786 0.99382 0.0
C221 C 0.59023 0.75279 0.01426 0.0
C222 C 0.63275 0.73936 0.0124 0.0
C223 C 0.64192 0.70095 0.99004 0.0
C224 C 0.51074 0.73837 -0.00083 0.0
C225 C 0.502 0.78526 -0.00029 0.0
C226 C 0.51233 0.80909 0.96401 0.0
C227 C 0.50136 0.85197 0.96355 0.0
C228 C 0.48093 0.87081 -0.0009 0.0
C229 C 0.4645 0.84596 0.03135 0.0
C230 C 0.47699 0.80358 0.03273 0.0
H231 H 0.56408 0.25801 0.4177 0.0
H232 H 0.55341 0.29261 0.55194 0.0
H233 H 0.56638 0.3898 0.46116 0.0
H234 H 0.56735 0.20361 0.46889 0.0
H235 H 0.57494 0.2193 0.52423 0.0
H236 H 0.48546 0.22895 0.44315 0.0
H237 H 0.39511 0.1612 0.51819 0.0
H238 H 0.52431 0.18053 0.56302 0.0
C239 C 0.56201 0.28229 0.44328 0.0
C240 C 0.56489 0.32548 0.43393 0.0
C241 C 0.55713 0.27027 0.48574 0.0
C242 C 0.55578 0.3017 0.51907 0.0
C243 C 0.55816 0.34479 0.50997 0.0
C244 C 0.56214 0.35637 0.46754 0.0
C245 C 0.55469 0.22395 0.49574 0.0
C246 C 0.50915 0.20982 0.50408 0.0
C247 C 0.47745 0.21435 0.47282 0.0
C248 C 0.43595 0.19799 0.47863 0.0
C249 C 0.42629 0.17672 0.51576 0.0
C250 C 0.4582 0.16911 0.54587 0.0
C251 C 0.49931 0.18693 0.54043 0.0
H252 H 0.46516 0.92083 0.13945 0.0
H253 H 0.52736 0.98976 0.24493 0.0
H254 H 0.57275 0.00407 0.11754 0.0
H255 H 0.44688 0.96344 0.24221 0.0
H256 H 0.43335 0.91899 0.20659 0.0
H257 H 0.42113 0.92092 0.30054 0.0
H258 H 0.49992 0.82163 0.34249 0.0
H259 H 0.53045 0.88107 0.22562 0.0
C260 C 0.49166 0.94053 0.15173 0.0
C261 C 0.51915 0.96035 0.12293 0.0
C262 C 0.49511 0.94992 0.19602 0.0
C263 C 0.5268 0.97943 0.21143 0.0
C264 C 0.5556 -0.00203 0.183 0.0
C265 C 0.55266 0.98675 0.13931 0.0
C266 C 0.46004 0.93475 0.22533 0.0
C267 C 0.47375 0.9043 0.25848 0.0
C268 C 0.44802 0.9003 0.29512 0.0
C269 C 0.45711 0.87004 0.32499 0.0
C270 C 0.49173 0.84358 0.3182 0.0
C271 C 0.51866 0.84803 0.28309 0.0
C272 C 0.50947 0.87798 0.25278 0.0
H273 H 0.18928 0.46391 0.63816 0.0
H274 H 0.28681 0.53302 0.57102 0.0
H275 H 0.3209 0.43181 0.65071 0.0
H276 H 0.1736 0.53033 0.60562 0.0
H277 H 0.21466 0.56125 0.58085 0.0
H278 H 0.24234 0.48421 0.51544 0.0
H279 H 0.14182 0.49022 0.42334 0.0
H280 H 0.12229 0.54184 0.55057 0.0
C281 C 0.22235 0.4681 0.62867 0.0
C282 C 0.2538 0.44326 0.64635 0.0
C283 C 0.23404 0.49977 0.60027 0.0
C284 C 0.27755 0.50727 0.59114 0.0
C285 C 0.30906 0.48223 0.60845 0.0
C286 C 0.29665 0.44969 0.63512 0.0
C287 C 0.20086 0.5285 0.58295 0.0
C288 C 0.18431 0.51435 0.53889 0.0
C289 C 0.21041 0.49375 0.50778 0.0
C290 C 0.19519 0.48538 0.46602 0.0
C291 C 0.1542 0.49786 0.45525 0.0
C292 C 0.12783 0.51772 0.4855 0.0
C293 C 0.14276 0.52593 0.5273 0.0
H294 H 0.11172 0.01828 0.67029 0.0
H295 H 0.97552 0.02381 0.6898 0.0
H296 H 0.03234 0.90431 0.66168 0.0
H297 H 0.08208 0.08572 0.68992 0.0
H298 H 0.02842 0.09026 0.67088 0.0
H299 H 0.0963 0.07692 0.76714 0.0
H300 H 0.9924 0.09268 0.85523 0.0
H301 H 0.9679 0.09274 0.72062 0.0
C302 C 0.08091 0.00238 0.6738 0.0
C303 C 0.07684 0.95822 0.66491 0.0
C304 C 0.04467 0.0263 0.68449 0.0
C305 C 0.00416 0.00571 0.68497 0.0
C306 C 0.0003 0.96155 0.67866 0.0
C307 C 0.03667 0.93804 0.66988 0.0
C308 C 0.04864 0.07378 0.69383 0.0
C309 C 0.03387 0.08408 0.73873 0.0
C310 C 0.06265 0.0819 0.77311 0.0
C311 C 0.04759 0.08493 0.81514 0.0
C312 C 0.00387 0.08962 0.8226 0.0
C313 C 0.97493 0.09209 0.78886 0.0
C314 C 0.99019 0.09066 0.7469 0.0
H315 H 0.28188 0.58058 0.09733 0.0
H316 H 0.22087 0.45793 0.0694 0.0
H317 H 0.14617 0.57054 0.08001 0.0
H318 H 0.32279 0.51821 0.1005 0.0
H319 H 0.29475 0.46794 0.10342 0.0
H320 H 0.28712 0.53002 0.00395 0.0
H321 H 0.38103 0.45565 0.93742 0.0
H322 H 0.35871 0.43799 0.07005 0.0
C323 C 0.25356 0.56154 0.08866 0.0
C324 C 0.21379 0.58091 0.08766 0.0
C325 C 0.25644 0.51727 0.08072 0.0
C326 C 0.21906 0.49228 0.07312 0.0
C327 C 0.17923 0.51155 0.07218 0.0
C328 C 0.17718 0.5559 0.07799 0.0
C329 C 0.29899 0.49636 0.08387 0.0
C330 C 0.31735 0.48242 0.04099 0.0
C331 C 0.30924 0.50411 0.0034 0.0
C332 C 0.33132 0.49382 0.96537 0.0
C333 C 0.36136 0.46147 0.96544 0.0
C334 C 0.37185 0.44179 0.00312 0.0
C335 C 0.34919 0.45173 0.04049 0.0
H336 H 0.68327 0.00997 0.10851 0.0
H337 H 0.77217 0.0858 0.03709 0.0
H338 H 0.81595 0.97913 0.10402 0.0
H339 H 0.65703 0.06887 0.07169 0.0
H340 H 0.69563 0.11063 0.06265 0.0
H341 H 0.65988 0.00297 0.01277 0.0
H342 H 0.66452 0.04694 0.88583 0.0
H343 H 0.6958 0.13393 0.99185 0.0
C344 C 0.71521 0.01592 0.09654 0.0
C345 C 0.7486 0.99008 0.10841 0.0
C346 C 0.72336 0.0498 0.06966 0.0
C347 C 0.76546 0.05866 0.05629 0.0
C348 C 0.79884 0.03265 0.06791 0.0
C349 C 0.78986 -0.00204 0.09307 0.0
C350 C 0.68739 0.07649 0.05496 0.0
C351 C 0.68089 0.06874 0.0075 0.0
C352 C 0.66706 0.02808 0.99117 0.0
C353 C 0.66098 0.02048 0.94718 0.0
C354 C 0.67024 0.05311 0.91973 0.0
C355 C 0.68214 0.09435 0.93525 0.0
C356 C 0.68765 0.102 0.9794 0.0
H357 H 0.618 0.49083 0.19871 0.0
H358 H 0.48105 0.49982 0.19761 0.0
H359 H 0.53792 0.3778 0.18937 0.0
H360 H 0.5885 0.55904 0.20131 0.0
H361 H 0.53583 0.56128 0.1796 0.0
H362 H 0.59845 0.55683 0.28193 0.0
H363 H 0.49824 0.61271 0.35729 0.0
H364 H 0.47605 0.58061 0.22442 0.0
C365 C 0.58667 0.47555 0.20047 0.0
C366 C 0.58275 0.43109 0.19473 0.0
C367 C 0.55005 0.50055 0.20385 0.0
C368 C 0.50924 0.4807 0.19962 0.0
C369 C 0.50514 0.4362 0.19522 0.0
C370 C 0.54178 0.41187 0.19585 0.0
C371 C 0.55471 0.54846 0.20599 0.0
C372 C 0.5391 0.56669 0.24825 0.0
C373 C 0.56617 0.5683 0.28443 0.0
C374 C 0.55137 0.58541 0.32359 0.0
C375 C 0.50955 0.59953 0.32681 0.0
C376 C 0.48227 0.59768 0.2915 0.0
C377 C 0.49709 0.58167 0.25198 0.0
H378 H 0.7554 0.15623 0.56946 0.0
H379 H 0.75291 0.02064 0.54302 0.0
H380 H 0.63605 0.08546 0.56608 0.0
H381 H 0.82077 0.12161 0.56624 0.0
H382 H 0.81716 0.0681 0.58251 0.0
H383 H 0.81893 0.13474 0.48567 0.0
H384 H 0.87908 0.03729 0.40818 0.0
H385 H 0.84225 0.01204 0.53631 0.0
C386 C 0.73736 0.12666 0.5637 0.0
C387 C 0.69267 0.12597 0.56817 0.0
C388 C 0.75934 0.08887 0.55464 0.0
C389 C 0.73611 0.05013 0.54829 0.0
C390 C 0.69132 0.04924 0.5506 0.0
C391 C 0.67014 0.0872 0.56036 0.0
C392 C 0.80752 0.08931 0.55697 0.0
C393 C 0.82669 0.07445 0.51505 0.0
C394 C 0.82993 0.10242 0.48129 0.0
C395 C 0.84831 0.08889 0.44234 0.0
C396 C 0.86289 0.04725 0.43745 0.0
C397 C 0.86106 0.01957 0.47112 0.0
C398 C 0.84287 0.03313 0.50995 0.0
H399 H 0.95137 0.49139 0.65379 0.0
H400 H 0.06629 0.52182 0.72654 0.0
H401 H 0.00896 0.61621 0.65245 0.0
H402 H 0.97056 0.44621 0.71397 0.0
H403 H 0.01581 0.43634 0.68193 0.0
H404 H 0.97972 0.46826 0.79296 0.0
H405 H 0.09327 0.42327 0.85056 0.0
H406 H 0.08397 0.42326 0.714 0.0
C407 C 0.97486 0.51462 0.66648 0.0
C408 C 0.97589 0.55568 0.651 0.0
C409 C 0.00578 0.5025 0.69602 0.0
C410 C 0.03958 0.53158 0.70765 0.0
C411 C 0.04003 0.573 0.69267 0.0
C412 C 0.0069 0.58521 0.66629 0.0
C413 C 0.00437 0.45676 0.7093 0.0
C414 C 0.02979 0.44869 0.74897 0.0
C415 C 0.01188 0.45655 0.78983 0.0
C416 C 0.03529 0.44789 0.82647 0.0
C417 C 0.07631 0.43188 0.82209 0.0
C418 C 0.09403 0.42253 0.78194 0.0
C419 C 0.07075 0.43112 0.74524 0.0
H420 H 0.1158 0.37439 0.05114 0.0
H421 H 0.05838 0.50086 0.89376 0.0
H422 H 0.98279 0.33717 0.06295 0.0
H423 H 0.97551 0.39361 0.85815 0.0
H424 H 0.05896 0.47816 0.96719 0.0
H425 H 0.0977 0.41553 0.99 0.0
C426 C 0.08264 0.37542 0.04137 0.0
C427 C 0.05069 0.35277 0.06269 0.0
C428 C 0.03947 0.46039 0.94368 0.0
C429 C 0.02972 0.40029 0.99274 0.0
C430 C 0.03837 0.47387 0.90199 0.0
C431 C 0.01715 0.44884 0.86993 0.0
C432 C 0.01914 0.42173 0.95323 0.0
C433 C 0.99223 0.41372 0.88208 0.0
C434 C 0.07231 0.39918 0.0066 0.0
C435 C 0.00836 0.35466 0.04784 0.0
N436 N 0.99467 0.40051 0.92275 0.0
N437 N -0.00085 0.3776 0.01334 0.0
H438 H 0.88347 0.93082 0.30745 0.0
H439 H 0.75775 0.90405 0.10197 0.0
H440 H 0.85207 0.80383 0.25693 0.0
H441 H 0.73338 0.00811 0.19217 0.0
H442 H 0.7827 0.86218 0.16054 0.0
H443 H 0.82247 0.95734 0.26948 0.0
C444 C 0.8632 0.90835 0.28901 0.0
C445 C 0.87303 0.8651 0.28508 0.0
C446 C 0.77025 0.8935 0.16786 0.0
C447 C 0.80367 0.89551 0.24044 0.0
C448 C 0.75566 0.9172 0.13447 0.0
C449 C 0.74391 0.95956 0.14244 0.0
C450 C 0.77431 0.913 0.20898 0.0
C451 C 0.74231 0.97553 0.18488 0.0
C452 C 0.82817 0.92348 0.26746 0.0
C453 C 0.84565 0.83746 0.26064 0.0
N454 N 0.75879 0.95275 0.2165 0.0
N455 N 0.81282 0.85331 0.23824 0.0
H456 H 0.49805 0.60837 0.56974 0.0
H457 H 0.56451 0.52503 0.38079 0.0
H458 H 0.59997 0.70308 0.56543 0.0
H459 H 0.59199 0.65643 0.35668 0.0
H460 H 0.57234 0.54206 0.45762 0.0
H461 H 0.52048 0.57859 0.50062 0.0
C462 C 0.52574 0.62238 0.55465 0.0
C463 C 0.54764 0.65777 0.57377 0.0
C464 C 0.57796 0.56692 0.4354 0.0
C465 C 0.57368 0.62367 0.4943 0.0
C466 C 0.57449 0.55699 0.39162 0.0
C467 C 0.57751 0.5895 0.3627 0.0
C468 C 0.5839 0.60966 0.44992 0.0
C469 C 0.58974 0.6306 0.37824 0.0
C470 C 0.53877 0.60513 0.51524 0.0
C471 C 0.58267 0.67531 0.55207 0.0
N472 N 0.59147 0.63985 0.42102 0.0
N473 N 0.59421 0.65849 0.51301 0.0
H474 H 0.50684 0.20691 0.73609 0.0
H475 H 0.72295 0.18537 0.6292 0.0
H476 H 0.5981 0.31174 0.75199 0.0
H477 H 0.60974 0.15072 0.55476 0.0
H478 H 0.68013 0.23177 0.67514 0.0
H479 H 0.54478 0.18239 0.67136 0.0
C480 C 0.53455 0.22494 0.72571 0.0
C481 C 0.54954 0.26121 0.74942 0.0
C482 C 0.66496 0.21459 0.64816 0.0
C483 C 0.59318 0.23309 0.67638 0.0
C484 C 0.68947 0.18823 0.62149 0.0
C485 C 0.66992 0.16281 0.58844 0.0
C486 C 0.62054 0.21463 0.64253 0.0
C487 C 0.62605 0.16813 0.58086 0.0
C488 C 0.55592 0.21118 0.68873 0.0
C489 C 0.58553 0.28358 0.73456 0.0
N490 N 0.60255 0.19235 0.60857 0.0
N491 N 0.60675 0.26863 0.69945 0.0
H492 H 0.0109 0.64749 0.41579 0.0
H493 H 0.92083 0.62009 0.63811 0.0
H494 H 0.88215 0.68941 0.43783 0.0
H495 H 0.98535 0.51625 0.57341 0.0
H496 H 0.90598 0.64967 0.56849 0.0
H497 H 0.00495 0.60492 0.47858 0.0
C498 C 0.98076 0.6464 0.43267 0.0
C499 C 0.94687 0.67188 0.42131 0.0
C500 C 0.92207 0.61966 0.56963 0.0
C501 C 0.93968 0.62167 0.49206 0.0
C502 C 0.9302 0.60267 0.60913 0.0
C503 C 0.9537 0.5654 0.61124 0.0
C504 C 0.93854 0.59969 0.53246 0.0
C505 C 0.96644 0.54459 0.573 0.0
C506 C 0.97736 0.62172 0.46818 0.0
C507 C 0.90895 0.66996 0.4453 0.0
N508 N 0.95958 0.56257 0.53517 0.0
N509 N 0.90649 0.64561 0.48004 0.0
H510 H 0.5183 0.84769 0.77733 0.0
H511 H 0.68532 0.93762 0.95622 0.0
H512 H 0.62476 0.77527 0.81856 0.0
H513 H 0.59184 0.01289 0.89524 0.0
H514 H 0.65788 0.87422 0.91441 0.0
H515 H 0.54004 0.90553 0.82773 0.0
C516 C 0.54635 0.84401 0.79685 0.0
C517 C 0.57015 0.80688 0.79299 0.0
C518 C 0.64342 0.90467 0.91035 0.0
C519 C 0.59508 0.87296 0.85155 0.0
C520 C 0.65871 0.9406 0.93452 0.0
C521 C 0.64114 0.98047 0.92863 0.0
C522 C 0.61049 0.909 0.88032 0.0
C523 C 0.60684 0.98283 0.90003 0.0
C524 C 0.55871 0.87702 0.82583 0.0
C525 C 0.6057 0.80352 0.82007 0.0
N526 N 0.59316 0.94785 0.87654 0.0
N527 N 0.61722 0.83624 0.8481 0.0
H528 H 0.50173 0.27833 0.03998 0.0
H529 H 0.60967 0.34997 0.20943 0.0
H530 H 0.60154 0.32595 0.9588 0.0
H531 H 0.63194 0.45366 0.12685 0.0
H532 H 0.61044 0.30038 0.14731 0.0
H533 H 0.54449 0.30154 0.10247 0.0
C534 C 0.53282 0.29329 0.03531 0.0
C535 C 0.54778 0.3009 0.9942 0.0
C536 C 0.61713 0.33381 0.143 0.0
C537 C 0.59727 0.32674 0.06548 0.0
C538 C 0.61762 0.3622 0.17862 0.0
C539 C 0.61652 0.40617 0.17259 0.0
C540 C 0.61808 0.35008 0.10207 0.0
C541 C 0.62933 0.42002 0.13254 0.0
C542 C 0.55758 0.30582 0.07095 0.0
C543 C 0.58852 0.32003 0.98998 0.0
N544 N 0.62736 0.39217 0.09811 0.0
N545 N 0.6114 0.33331 0.02527 0.0
H546 H 0.00258 0.12991 0.23878 0.0
H547 H 0.83034 0.07738 0.35745 0.0
H548 H 0.98509 0.26058 0.28177 0.0
H549 H 0.89114 0.16604 0.44909 0.0
H550 H 0.8676 0.11281 0.29991 0.0
H551 H 0.94532 0.10792 0.28594 0.0
C552 C 0.98637 0.15406 0.25785 0.0
C553 C -0.00151 0.19714 0.25622 0.0
C554 C 0.87197 0.12509 0.33256 0.0
C555 C 0.9328 0.17212 0.31055 0.0
C556 C 0.85048 0.1052 0.36529 0.0
C557 C 0.85827 0.11842 0.40804 0.0
C558 C 0.90155 0.15833 0.34267 0.0
C559 C 0.88444 0.15481 0.41651 0.0
C560 C 0.95338 0.14152 0.28447 0.0
C561 C 0.97638 0.22706 0.28191 0.0
N562 N 0.90591 0.17313 0.38406 0.0
N563 N 0.94504 0.2139 0.30883 0.0
H564 H 0.09112 0.94086 0.37642 0.0
H565 H 0.84308 0.9504 0.4181 0.0
H566 H 0.99318 0.98369 0.29338 0.0
H567 H 0.93595 0.00165 0.50945 0.0
H568 H 0.9 0.91329 0.37965 0.0
H569 H 0.0355 0.92194 0.42843 0.0
C570 C 0.05785 0.94463 0.36856 0.0
C571 C 0.04641 0.96491 0.33158 0.0
C572 C 0.90758 0.93104 0.40921 0.0
C573 C 0.98329 0.93962 0.3881 0.0
C574 C 0.87504 0.95169 0.43153 0.0
C575 C 0.8853 0.98011 0.46604 0.0
C576 C 0.95019 0.93966 0.42133 0.0
C577 C 0.9271 0.98065 0.4823 0.0
C578 C 0.02632 0.93318 0.39774 0.0
C579 C 0.0031 0.96842 0.32189 0.0
N580 N 0.9586 0.96214 0.45875 0.0
N581 N 0.97305 0.95624 0.35019 0.0
H582 H 0.18856 0.80049 0.64211 0.0
H583 H 0.11279 0.55807 0.64975 0.0
H584 H 0.15822 0.71923 0.53082 0.0
H585 H 0.05215 0.65205 0.73184 0.0
H586 H 0.15797 0.61443 0.6208 0.0
H587 H 0.16172 0.74383 0.68772 0.0
C588 C 0.17622 0.77082 0.62736 0.0
C589 C 0.17502 0.76462 0.58267 0.0
C590 C 0.13599 0.62239 0.64644 0.0
C591 C 0.14681 0.69963 0.63428 0.0
C592 C 0.11087 0.59021 0.66355 0.0
C593 C 0.0789 0.60055 0.69323 0.0
C594 C 0.12953 0.66494 0.65976 0.0
C595 C 0.07674 0.64293 0.7092 0.0
C596 C 0.16127 0.73864 0.65331 0.0
C597 C 0.15908 0.72556 0.56507 0.0
N598 N 0.10124 0.6739 0.69169 0.0
N599 N 0.146 0.6944 0.59093 0.0
H600 H 0.47734 0.09816 0.80045 0.0
H601 H 0.6288 0.16154 0.94326 0.0
H602 H 0.56781 0.99712 0.80388 0.0
H603 H 0.7209 0.10716 0.85697 0.0
H604 H 0.57798 0.16231 0.88515 0.0
H605 H 0.5364 0.15033 0.81569 0.0
C606 C 0.5095 0.08696 0.80425 0.0
C607 C 0.51746 0.04309 0.80255 0.0
C608 C 0.6098 0.15198 0.87801 0.0
C609 C 0.58451 0.10226 0.81921 0.0
C610 C 0.6395 0.15222 0.91138 0.0
C611 C 0.67704 0.1293 0.90562 0.0
C612 C 0.61888 0.12929 0.83954 0.0
C613 C 0.69028 0.12142 0.86322 0.0
C614 C 0.54301 0.11671 0.8127 0.0
C615 C 0.55984 0.03043 0.80655 0.0
N616 N 0.65997 0.11778 0.83202 0.0
N617 N 0.59156 0.05977 0.81508 0.0
H618 H 0.39715 0.27261 0.00352 0.0
H619 H 0.45514 0.37524 0.23157 0.0
H620 H 0.33328 0.23146 0.11686 0.0
H621 H 0.47127 0.44399 0.11709 0.0
H622 H 0.40999 0.32211 0.19165 0.0
H623 H 0.42772 0.33389 0.04537 0.0
C624 C 0.38962 0.2764 0.03718 0.0
C625 C 0.36274 0.24675 0.05676 0.0
C626 C 0.42232 0.3495 0.17551 0.0
C627 C 0.39716 0.31706 0.10463 0.0
C628 C 0.44749 0.38009 0.19846 0.0
C629 C 0.46607 0.41442 0.17765 0.0
C630 C 0.41689 0.35269 0.13125 0.0
C631 C 0.45655 0.4185 0.13433 0.0
C632 C 0.40665 0.31165 0.06091 0.0
C633 C 0.35389 0.25347 0.10047 0.0
N634 N 0.4334 0.38752 0.11229 0.0
N635 N 0.3713 0.2877 0.123 0.0
H636 H 0.05646 0.00028 0.1279 0.0
H637 H 0.86093 0.98321 0.03188 0.0
H638 H 0.02514 0.12977 0.1638 0.0
H639 H 0.83982 0.10802 0.08925 0.0
H640 H 0.93746 0.99429 0.04252 0.0
H641 H 0.99597 0.99578 0.07953 0.0
C642 C 0.03741 0.0282 0.12475 0.0
C643 C 0.0456 0.06518 0.15052 0.0
C644 C 0.9166 0.01963 0.05266 0.0
C645 C 0.97489 0.06034 0.09536 0.0
C646 C 0.87276 0.01345 0.0458 0.0
C647 C 0.84415 0.04442 0.06049 0.0
C648 C 0.93168 0.05666 0.07548 0.0
C649 C 0.86087 0.08321 0.0778 0.0
C650 C 0.00239 0.02567 0.09698 0.0
C651 C 0.0195 0.1002 0.14541 0.0
N652 N 0.90346 0.08781 0.08578 0.0
N653 N 0.98501 0.09666 0.11901 0.0
H654 H 0.30032 0.78914 0.35435 0.0
H655 H 0.41962 0.56775 0.34209 0.0
H656 H 0.31632 0.70797 0.46007 0.0
H657 H 0.44969 0.6683 0.25764 0.0
H658 H 0.3616 0.60987 0.37264 0.0
H659 H 0.338 0.73734 0.30803 0.0
C660 C 0.31128 0.76017 0.36763 0.0
C661 C 0.3055 0.75278 0.41109 0.0
C662 C 0.38011 0.62227 0.34662 0.0
C663 C 0.34753 0.69344 0.35835 0.0
C664 C 0.41274 0.59804 0.32885 0.0
C665 C 0.43926 0.61482 0.29751 0.0
C666 C 0.37423 0.66357 0.33305 0.0
C667 C 0.42962 0.65435 0.28164 0.0
C668 C 0.33269 0.73075 0.34123 0.0
C669 C 0.32046 0.71498 0.42682 0.0
N670 N 0.39821 0.67791 0.30018 0.0
N671 N 0.34079 0.68669 0.40044 0.0
H672 H 0.54203 0.86542 0.67756 0.0
H673 H 0.70672 0.97967 0.59665 0.0
H674 H 0.46655 0.96038 0.62012 0.0
H675 H 0.61696 0.02821 0.5078 0.0
H676 H 0.65281 0.92803 0.61795 0.0
H677 H 0.59958 0.88013 0.62771 0.0
C678 C 0.53716 0.88883 0.65389 0.0
C679 C 0.49962 0.91245 0.6536 0.0
C680 C 0.64512 0.94851 0.59244 0.0
C681 C 0.56627 0.93072 0.59755 0.0
C682 C 0.67624 0.97807 0.58013 0.0
C683 C 0.66598 0.00877 0.55106 0.0
C684 C 0.60342 0.95001 0.57566 0.0
C685 C 0.62581 0.00551 0.53097 0.0
C686 C 0.57039 0.89762 0.62572 0.0
C687 C 0.49506 0.94189 0.62183 0.0
N688 N 0.59559 0.97757 0.54454 0.0
N689 N 0.52826 0.9507 0.59558 0.0
H690 H 0.23407 0.2924 0.94256 0.0
H691 H 0.10598 0.34448 0.74229 0.0
H692 H 0.23421 0.20323 0.83367 0.0
H693 H 0.16967 0.44205 0.82197 0.0
H694 H 0.15497 0.29211 0.76897 0.0
H695 H 0.20979 0.34739 0.8967 0.0
C696 C 0.22873 0.28441 0.90892 0.0
C697 C 0.23545 0.24319 0.8919 0.0
C698 C 0.15909 0.32525 0.7795 0.0
C699 C 0.20748 0.30589 0.83917 0.0
C700 C 0.13158 0.35526 0.7638 0.0
C701 C 0.13333 0.39739 0.78071 0.0
C702 C 0.1876 0.33771 0.8127 0.0
C703 C 0.16686 0.40964 0.80877 0.0
C704 C 0.21541 0.31591 0.88264 0.0
C705 C 0.22894 0.23467 0.84794 0.0
N706 N 0.19169 0.37967 0.8251 0.0
N707 N 0.21443 0.26564 0.82306 0.0
H708 H 0.33225 0.98311 0.96848 0.0
H709 H 0.54031 0.92633 0.94248 0.0
H710 H 0.39884 0.07246 0.89064 0.0
H711 H 0.44822 0.83087 0.89731 0.0
H712 H 0.49825 0.98054 0.91006 0.0
H713 H 0.37509 0.92604 0.93692 0.0
C714 C 0.35551 0.99051 0.94419 0.0
C715 C 0.36277 0.03251 0.93274 0.0
C716 C 0.48811 0.94756 0.90559 0.0
C717 C 0.41305 0.96785 0.89794 0.0
C718 C 0.51279 0.91642 0.92313 0.0
C719 C 0.49713 0.87433 0.92352 0.0
C720 C 0.44682 0.93646 0.8909 0.0
C721 C 0.46084 0.86329 0.89862 0.0
C722 C 0.37979 0.95799 0.92604 0.0
C723 C 0.39296 0.04044 0.90076 0.0
N724 N 0.43529 0.8945 0.88563 0.0
N725 N 0.4185 0.00863 0.88573 0.0
H726 H 0.90325 0.37758 0.97567 0.0
H727 H 0.89565 0.60635 0.09123 0.0
H728 H 0.82022 0.40417 0.08294 0.0
H729 H 0.00076 0.56503 0.01266 0.0
H730 H 0.86813 0.53241 0.09105 0.0
H731 H 0.94057 0.44554 0.99105 0.0
C732 C 0.89354 0.39716 0.00316 0.0
C733 C 0.85825 0.38516 0.02782 0.0
C734 C 0.89768 0.53937 0.07459 0.0
C735 C 0.90095 0.46341 0.04535 0.0
C736 C 0.91354 0.58138 0.07509 0.0
C737 C 0.95093 0.59143 0.05268 0.0
C738 C 0.91917 0.50739 0.051 0.0
C739 C 0.97244 0.55835 0.03123 0.0
C740 C 0.91494 0.43603 0.01191 0.0
C741 C 0.84723 0.41203 0.06304 0.0
N742 N 0.95594 0.51794 0.03042 0.0
N743 N 0.86801 0.45027 0.0703 0.0
H744 H 0.82176 0.62755 0.10383 0.0
H745 H 0.71524 0.7641 0.99475 0.0
H746 H 0.76668 0.67916 0.22056 0.0
H747 H 0.62664 0.75171 0.09866 0.0
H748 H 0.77424 0.75221 0.04369 0.0
H749 H 0.79268 0.68579 0.06578 0.0
C750 C 0.80457 0.65193 0.12169 0.0
C751 C 0.79612 0.6482 0.16524 0.0
C752 C 0.742 0.75327 0.05609 0.0
C753 C 0.76219 0.71527 0.12184 0.0
C754 C 0.70841 0.76094 0.02835 0.0
C755 C 0.66597 0.75709 0.0424 0.0
C756 C 0.73265 0.74134 0.09776 0.0
C757 C 0.65887 0.75377 0.08629 0.0
C758 C 0.78822 0.68563 0.10001 0.0
C759 C 0.7736 0.68069 0.18684 0.0
N760 N 0.69181 0.7444 0.11224 0.0
N761 N 0.75625 0.71217 0.16464 0.0
H762 H 0.61528 0.59716 0.56773 0.0
H763 H 0.50655 0.4121 0.52484 0.0
H764 H 0.69172 0.53346 0.65767 0.0
H765 H 0.6205 0.35492 0.57053 0.0
H766 H 0.52663 0.4782 0.5645 0.0
H767 H 0.57124 0.53332 0.55606 0.0
C768 C 0.62147 0.57014 0.58634 0.0
C769 C 0.65662 0.57093 0.61386 0.0
C770 C 0.5473 0.45129 0.56618 0.0
C771 C 0.60695 0.49644 0.60039 0.0
C772 C 0.53534 0.41335 0.54418 0.0
C773 C 0.56234 0.37856 0.54404 0.0
C774 C 0.58714 0.45464 0.58712 0.0
C775 C 0.59908 0.38136 0.56976 0.0
C776 C 0.59635 0.53338 0.57975 0.0
C777 C 0.66453 0.53438 0.63636 0.0
N778 N 0.61097 0.4192 0.58961 0.0
N779 N 0.64046 0.49818 0.62834 0.0
H780 H 0.26403 0.8987 0.21802 0.0
H781 H 0.39895 0.89189 0.00247 0.0
H782 H 0.24032 0.97555 0.11037 0.0
H783 H 0.44323 0.83378 0.11605 0.0
H784 H 0.33744 0.9173 0.04095 0.0
H785 H 0.32561 0.8683 0.18016 0.0
C786 C 0.27143 0.90871 0.18622 0.0
C787 C 0.24715 0.9397 0.16724 0.0
C788 C 0.36061 0.89929 0.05779 0.0
C789 C 0.31727 0.90541 0.1242 0.0
C790 C 0.39629 0.88511 0.03591 0.0
C791 C 0.42735 0.86174 0.05637 0.0
C792 C 0.35501 0.88961 0.10057 0.0
C793 C 0.42037 0.85202 0.09912 0.0
C794 C 0.3067 0.89162 0.16486 0.0
C795 C 0.25824 0.95186 0.12624 0.0
N796 N 0.38491 0.8662 0.11998 0.0
N797 N 0.29249 0.93472 0.10618 0.0
H798 H 0.13321 0.94302 0.48386 0.0
H799 H 0.00362 0.10151 0.47763 0.0
H800 H 0.19901 0.985 0.37224 0.0
H801 H 0.11467 0.16594 0.42861 0.0
H802 H 0.02723 0.03487 0.44312 0.0
H803 H 0.0822 -0.00122 0.47696 0.0
C804 C 0.13615 0.96307 0.45706 0.0
C805 C 0.17002 0.95862 0.42825 0.0
C806 C 0.04576 0.06389 0.43874 0.0
C807 C 0.11154 0.02345 0.41993 0.0
C808 C 0.03169 0.1021 0.45746 0.0
C809 C 0.05835 0.13858 0.45734 0.0
C810 C 0.08685 0.06276 0.42079 0.0
C811 C 0.09401 0.13794 0.43037 0.0
C812 C 0.10679 0.99503 0.45293 0.0
C813 C 0.17316 0.98706 0.39504 0.0
N814 N 0.10846 0.10002 0.41461 0.0
N815 N 0.14477 0.01887 0.39226 0.0
H816 H 0.66377 0.51029 0.27958 0.0
H817 H 0.62321 0.2905 0.37816 0.0
H818 H 0.72681 0.3974 0.23184 0.0
H819 H 0.53382 0.39248 0.39136 0.0
H820 H 0.65528 0.32474 0.31728 0.0
H821 H 0.61056 0.46562 0.31402 0.0
C822 C 0.66603 0.47601 0.2759 0.0
C823 C 0.69998 0.4575 0.25332 0.0
C824 C 0.62799 0.33914 0.33285 0.0
C825 C 0.63983 0.40606 0.29351 0.0
C826 C 0.60943 0.31941 0.3675 0.0
C827 C 0.57645 0.33921 0.39062 0.0
C828 C 0.61388 0.3792 0.32175 0.0
C829 C 0.56008 0.37678 0.37528 0.0
C830 C 0.63558 0.45046 0.29547 0.0
C831 C 0.70124 0.41294 0.24919 0.0
N832 N 0.57959 0.39607 0.34247 0.0
N833 N 0.67214 0.38869 0.26997 0.0
H834 H 0.72109 0.64558 0.84554 0.0
H835 H 0.96549 0.68401 0.91189 0.0
H836 H 0.82223 0.55757 0.82012 0.0
H837 H 0.86277 0.72005 0.99631 0.0
H838 H 0.91305 0.66448 0.85588 0.0
H839 H 0.77342 0.69574 0.88102 0.0
C840 C 0.75446 0.63734 0.84671 0.0
C841 C 0.76767 0.59751 0.83045 0.0
C842 C 0.90215 0.67842 0.88609 0.0
C843 C 0.82717 0.65468 0.86902 0.0
C844 C 0.93207 0.69024 0.9178 0.0
C845 C 0.91827 0.7032 0.95877 0.0
C846 C 0.8584 0.68013 0.89549 0.0
C847 C 0.8745 0.71002 0.96503 0.0
C848 C 0.7841 0.66583 0.86674 0.0
C849 C 0.81097 0.5879 0.83275 0.0
N850 N 0.84586 0.6974 0.93398 0.0
N851 N 0.83924 0.61632 0.8517 0.0
H852 H 0.38156 0.77817 0.57102 0.0
H853 H 0.40313 0.80856 0.35412 0.0
H854 H 0.49827 0.85418 0.57647 0.0
H855 H 0.46777 0.92695 0.3916 0.0
H856 H 0.39032 0.79548 0.42945 0.0
H857 H 0.36755 0.80384 0.49992 0.0
C858 C 0.40368 0.80105 0.55782 0.0
C859 C 0.4413 0.81395 0.57983 0.0
C860 C 0.40557 0.82524 0.42132 0.0
C861 C 0.42554 0.84279 0.49827 0.0
C862 C 0.41271 0.83273 0.37828 0.0
C863 C 0.43583 0.86921 0.36688 0.0
C864 C 0.42271 0.854 0.45298 0.0
C865 C 0.4491 0.89888 0.39924 0.0
C866 C 0.39579 0.8153 0.51702 0.0
C867 C 0.46876 0.8436 0.561 0.0
N868 N 0.44336 0.89007 0.44087 0.0
N869 N 0.4605 0.85677 0.52126 0.0
H870 H 0.36191 0.39195 0.86936 0.0
H871 H 0.25546 0.35672 0.64781 0.0
H872 H 0.34623 0.26704 0.80754 0.0
H873 H 0.2379 0.46998 0.72775 0.0
H874 H 0.27422 0.31837 0.71106 0.0
H875 H 0.3041 0.41694 0.82523 0.0
C876 C 0.34562 0.36956 0.84713 0.0
C877 C 0.35957 0.32769 0.84129 0.0
C878 C 0.26484 0.35121 0.71511 0.0
C879 C 0.29437 0.35636 0.78979 0.0
C880 C 0.25355 0.37287 0.67904 0.0
C881 C 0.24521 0.41644 0.68279 0.0
C882 C 0.26925 0.37386 0.75471 0.0
C883 C 0.24401 0.4363 0.72371 0.0
C884 C 0.31261 0.38382 0.82192 0.0
C885 C 0.3369 0.29979 0.8126 0.0
N886 N 0.25734 0.41525 0.75795 0.0
N887 N 0.30623 0.31494 0.78699 0.0
H888 H 0.16626 0.20048 0.03786 0.0
H889 H 0.04375 0.0319 0.88061 0.0
H890 H 0.05668 0.12281 0.07004 0.0
H891 H 0.11395 0.14043 0.83556 0.0
H892 H 0.06995 0.0496 0.95267 0.0
H893 H 0.16661 0.16447 0.96636 0.0
C894 C 0.14302 0.17511 0.03029 0.0
C895 C 0.11108 0.16469 0.05965 0.0
C896 C 0.08102 0.06866 0.92684 0.0
C897 C 0.11174 0.12354 0.97886 0.0
C898 C 0.06628 0.0584 0.88571 0.0
C899 C 0.07624 0.08522 0.85253 0.0
C900 C 0.10619 0.10576 0.9347 0.0
C901 C 0.10548 0.11918 0.86055 0.0
C902 C 0.14313 0.1549 0.98955 0.0
C903 C 0.08161 0.13188 0.04831 0.0
N904 N 0.11886 0.12912 0.90123 0.0
N905 N 0.08252 0.1126 0.00876 0.0
H906 H 0.08266 0.70428 0.27515 0.0
H907 H 0.17477 0.64744 0.05252 0.0
H908 H 0.0757 0.79889 0.1802 0.0
H909 H 0.21381 0.64951 0.17932 0.0
H910 H 0.13749 0.70332 0.09341 0.0
H911 H 0.13506 0.6665 0.23135 0.0
C912 C 0.0918 0.71683 0.24479 0.0
C913 C 0.07465 0.75457 0.23109 0.0
C914 C 0.16003 0.68404 0.10951 0.0
C915 C 0.13482 0.71162 0.18106 0.0
C916 C 0.18174 0.65252 0.08629 0.0
C917 C 0.20762 0.6239 0.10706 0.0
C918 C 0.16464 0.68722 0.15377 0.0
C919 C 0.21656 0.62938 0.15089 0.0
C920 C 0.12219 0.69564 0.22019 0.0
C921 C 0.08817 0.76976 0.19174 0.0
N922 N 0.19551 0.66203 0.17294 0.0
N923 N 0.11716 0.74783 0.16762 0.0
H924 H 0.41788 0.13455 0.97379 0.0
H925 H 0.56986 0.96171 0.05079 0.0
H926 H 0.52732 0.09697 0.89891 0.0
H927 H 0.43886 0.97226 0.09191 0.0
H928 H 0.55324 0.00271 0.98873 0.0
H929 H 0.42534 0.07158 0.0151 0.0
C930 C 0.44274 0.11243 0.96516 0.0
C931 C 0.47145 0.12066 0.93217 0.0
C932 C 0.52786 0.99487 0.01068 0.0
C933 C 0.47968 0.04787 0.97911 0.0
C934 C 0.53723 0.9712 0.04598 0.0
C935 C 0.5062 0.96512 0.0777 0.0
C936 C 0.48721 0.01227 0.00726 0.0
C937 C 0.46422 0.97701 0.06908 0.0
C938 C 0.4468 0.07627 0.98863 0.0
C939 C 0.50389 0.09143 0.9234 0.0
N940 N 0.45626 0.00112 0.03536 0.0
N941 N 0.5074 0.0565 0.94702 0.0
H942 H 0.17456 0.37098 0.22803 0.0
H943 H 0.22348 0.40457 0.47135 0.0
H944 H 0.21368 0.26853 0.30497 0.0
H945 H 0.21746 0.50769 0.38611 0.0
H946 H 0.23451 0.35512 0.40987 0.0
H947 H 0.2021 0.42213 0.28291 0.0
C948 C 0.18946 0.35925 0.25625 0.0
C949 C 0.19108 0.31546 0.26229 0.0
C950 C 0.23222 0.38876 0.40464 0.0
C951 C 0.22227 0.37384 0.32564 0.0
C952 C 0.22644 0.41703 0.43983 0.0
C953 C 0.21891 0.45999 0.43352 0.0
C954 C 0.2298 0.40375 0.36313 0.0
C955 C 0.22262 0.47457 0.39206 0.0
C956 C 0.20542 0.38848 0.28755 0.0
C957 C 0.21133 0.30205 0.29921 0.0
N958 N 0.22668 0.44635 0.3583 0.0
N959 N 0.22531 0.33113 0.32992 0.0
H960 H -0.00272 0.8183 0.4988 0.0
H961 H 0.10455 0.87645 0.67321 0.0
H962 H 0.10446 0.85775 0.42243 0.0
H963 H 0.12146 0.98505 0.59572 0.0
H964 H 0.1077 0.82982 0.60882 0.0
H965 H 0.03855 0.83811 0.56326 0.0
C966 C 0.02965 0.83074 0.49562 0.0
C967 C 0.04721 0.8372 0.45531 0.0
C968 C 0.1132 0.86373 0.60631 0.0
C969 C 0.0948 0.85911 0.52879 0.0
C970 C 0.11179 0.89046 0.64306 0.0
C971 C 0.10913 0.93467 0.63918 0.0
C972 C 0.11436 0.88184 0.56631 0.0
C973 C 0.12076 0.95106 0.59986 0.0
C974 C 0.05348 0.84121 0.53236 0.0
C975 C 0.0896 0.85271 0.453 0.0
N976 N 0.12101 0.92459 0.56436 0.0
N977 N 0.11162 0.86425 0.48936 0.0
H978 H 0.38763 0.69387 0.78711 0.0
H979 H 0.32902 0.5812 0.96499 0.0
H980 H 0.45064 0.57654 0.7538 0.0
H981 H 0.33304 0.46924 0.8802 0.0
H982 H 0.34701 0.62503 0.9051 0.0
H983 H 0.34292 0.65588 0.83804 0.0
C984 C 0.39161 0.66003 0.79008 0.0
C985 C 0.42332 0.63842 0.76676 0.0
C986 C 0.34254 0.59102 0.89922 0.0
C987 C 0.3727 0.59499 0.8249 0.0
C988 C 0.33207 0.56586 0.93351 0.0
C989 C 0.33001 0.52125 0.92784 0.0
C990 C 0.35145 0.57138 0.8591 0.0
C991 C 0.33512 0.50337 0.88625 0.0
C992 C 0.3664 0.6385 0.81941 0.0
C993 C 0.42707 0.59457 0.7717 0.0
N994 N 0.34669 0.52833 0.85378 0.0
N995 N 0.40217 0.57436 0.80027 0.0
H996 H 0.60379 0.41232 0.87263 0.0
H997 H 0.40293 0.37364 0.9558 0.0
H998 H 0.55823 0.53578 0.91487 0.0
H999 H 0.43814 0.47045 0.05213 0.0
H1000 H 0.47715 0.37256 0.93217 0.0
H1001 H 0.5567 0.37964 0.92546 0.0
C1002 C 0.58436 0.43255 0.8932 0.0
C1003 C 0.58477 0.47693 0.88914 0.0
C1004 C 0.46921 0.39227 0.95993 0.0
C1005 C 0.53254 0.43988 0.95001 0.0
C1006 C 0.4268 0.39274 0.97361 0.0
C1007 C 0.41443 0.42298 0.0052 0.0
C1008 C 0.49838 0.42313 0.97712 0.0
C1009 C 0.44643 0.44702 0.02728 0.0
C1010 C 0.55793 0.41385 0.92344 0.0
C1011 C 0.5591 0.50154 0.91672 0.0
N1012 N 0.48673 0.44801 0.0116 0.0
N1013 N 0.53425 0.4827 0.94599 0.0
H1014 H 0.60889 0.23258 0.09848 0.0
H1015 H 0.64231 0.01021 0.18045 0.0
H1016 H 0.73384 0.20028 0.14332 0.0
H1017 H 0.52507 0.07498 0.20702 0.0
H1018 H 0.67837 0.07916 0.17038 0.0
H1019 H 0.5775 0.17561 0.1397 0.0
C1020 C 0.62961 0.2142 0.1178 0.0
C1021 C 0.674 0.22137 0.11761 0.0
C1022 C 0.64515 0.07843 0.18002 0.0
C1023 C 0.63847 0.1552 0.16365 0.0
C1024 C 0.62476 0.03916 0.18619 0.0
C1025 C 0.58083 0.0371 0.1949 0.0
C1026 C 0.62102 0.11554 0.18136 0.0
C1027 C 0.55911 0.07538 0.20087 0.0
C1028 C 0.61169 0.18167 0.14133 0.0
C1029 C 0.69941 0.19604 0.14275 0.0
N1030 N 0.5791 0.11299 0.19278 0.0
N1031 N 0.68139 0.16343 0.16399 0.0
H1032 H 0.9009 0.4392 0.36412 0.0
H1033 H 0.10379 0.57008 0.42412 0.0
H1034 H 0.90297 0.57427 0.3442 0.0
H1035 H 0.05354 0.48267 0.51436 0.0
H1036 H 0.03395 0.56886 0.38841 0.0
H1037 H 0.96099 0.45032 0.41354 0.0
C1038 C 0.91322 0.47131 0.37082 0.0
C1039 C 0.89691 0.50585 0.34971 0.0
C1040 C 0.03798 0.55091 0.41673 0.0
C1041 C 0.96517 0.51847 0.40665 0.0
C1042 C 0.07751 0.55187 0.43723 0.0
C1043 C 0.08395 0.52685 0.4724 0.0
C1044 C 0.00493 0.52463 0.43148 0.0
C1045 C 0.0494 0.50292 0.48775 0.0
C1046 C 0.9473 0.47756 0.39925 0.0
C1047 C 0.91451 0.5467 0.35962 0.0
N1048 N 0.01137 0.50176 0.46664 0.0
N1049 N 0.94823 0.5518 0.38692 0.0
H1050 H 0.83495 0.80022 0.53551 0.0
H1051 H 0.96599 0.90026 0.72772 0.0
H1052 H 0.80311 0.76679 0.66372 0.0
H1053 H 0.94188 0.97088 0.61611 0.0
H1054 H 0.90672 0.85087 0.70696 0.0
H1055 H 0.87613 0.86199 0.56467 0.0
C1056 C 0.83654 0.80603 0.56984 0.0
C1057 C 0.81592 0.7783 0.59732 0.0
C1058 C 0.9136 0.87788 0.68769 0.0
C1059 C 0.86316 0.84864 0.63084 0.0
C1060 C 0.94715 0.90607 0.69964 0.0
C1061 C 0.95829 0.93965 0.67369 0.0
C1062 C 0.89218 0.88273 0.6489 0.0
C1063 C 0.93375 0.94557 0.63712 0.0
C1064 C 0.8597 0.84146 0.58642 0.0
C1065 C 0.81866 0.78745 0.64152 0.0
N1066 N 0.90235 0.91678 0.62526 0.0
N1067 N 0.84253 0.82154 0.65703 0.0
H1068 H 0.54606 0.60393 0.68309 0.0
H1069 H 0.37572 0.42884 0.59339 0.0
H1070 H 0.55986 0.46843 0.69058 0.0
H1071 H 0.34733 0.56126 0.61782 0.0
H1072 H 0.45108 0.44552 0.6089 0.0
H1073 H 0.47992 0.59059 0.6423 0.0
C1074 C 0.53552 0.57143 0.67556 0.0
C1075 C 0.55812 0.53728 0.6907 0.0
C1076 C 0.42847 0.47105 0.61004 0.0
C1077 C 0.4836 0.52188 0.64269 0.0
C1078 C 0.38555 0.4616 0.60102 0.0
C1079 C 0.35515 0.49358 0.60516 0.0
C1080 C 0.44098 0.51274 0.62341 0.0
C1081 C 0.36965 0.5356 0.61441 0.0
C1082 C 0.4981 0.56387 0.65191 0.0
C1083 C 0.54339 0.49573 0.67959 0.0
N1084 N 0.41147 0.54387 0.62402 0.0
N1085 N 0.50688 0.4892 0.65649 0.0
H1086 H 0.79477 0.1418 0.97245 0.0
H1087 H 0.92078 0.15169 0.76025 0.0
H1088 H 0.75985 0.22537 0.87364 0.0
H1089 H 0.92572 0.04498 0.8413 0.0
H1090 H 0.85311 0.17187 0.79365 0.0
H1091 H 0.83371 0.09848 0.91959 0.0
C1092 C 0.79484 0.15059 0.93944 0.0
C1093 C 0.77518 0.18769 0.92749 0.0
C1094 C 0.86836 0.14335 0.80334 0.0
C1095 C 0.82019 0.13901 0.86702 0.0
C1096 C 0.90687 0.13177 0.78411 0.0
C1097 C 0.92921 0.09737 0.79896 0.0
C1098 C 0.85275 0.12059 0.83788 0.0
C1099 C 0.90987 0.07246 0.82985 0.0
C1100 C 0.81687 0.12581 0.90918 0.0
C1101 C 0.77531 0.19732 0.88423 0.0
N1102 N 0.87325 0.08513 0.84904 0.0
N1103 N 0.7985 0.17373 0.85567 0.0
H1104 H 0.93977 0.52908 0.15799 0.0
H1105 H 0.10861 0.52021 0.02324 0.0
H1106 H 0.94124 0.39157 0.15101 0.0
H1107 H 0.15715 0.44882 0.12612 0.0
H1108 H 0.03603 0.49976 0.04373 0.0
H1109 H 0.00864 0.53088 0.12224 0.0
C1110 C 0.95426 0.49918 0.14859 0.0
C1111 C 0.93412 0.46006 0.15672 0.0
C1112 C 0.06261 0.48788 0.06109 0.0
C1113 C 0.01351 0.46225 0.11669 0.0
C1114 C 0.10395 0.49895 0.04913 0.0
C1115 C 0.13871 0.48659 0.07339 0.0
C1116 C 0.05602 0.46404 0.09716 0.0
C1117 C 0.13105 0.45896 0.10664 0.0
C1118 C 0.99355 0.50036 0.12824 0.0
C1119 C 0.95533 0.42242 0.14476 0.0
N1120 N 0.0902 0.44925 0.11828 0.0
N1121 N 0.99435 0.42441 0.12565 0.0
H1122 H 0.69012 0.67037 0.38595 0.0
H1123 H 0.59544 0.88398 0.30352 0.0
H1124 H 0.66813 0.78351 0.4653 0.0
H1125 H 0.5331 0.76304 0.27126 0.0
H1126 H 0.6511 0.84705 0.34115 0.0
H1127 H 0.65764 0.70493 0.32515 0.0
C1128 C 0.67884 0.70255 0.39041 0.0
C1129 C 0.6811 0.72402 0.43071 0.0
C1130 C 0.62623 0.82854 0.32416 0.0
C1131 C 0.64614 0.76383 0.36153 0.0
C1132 C 0.59492 0.84948 0.30214 0.0
C1133 C 0.55978 0.82639 0.28448 0.0
C1134 C 0.62246 0.78434 0.32784 0.0
C1135 C 0.55993 0.78177 0.28443 0.0
C1136 C 0.66063 0.72214 0.35582 0.0
C1137 C 0.66627 0.76564 0.43492 0.0
N1138 N 0.59041 0.76207 0.30669 0.0
N1139 N 0.64953 0.78426 0.40071 0.0
H1140 H 0.82056 0.56417 0.46244 0.0
H1141 H 0.88597 0.34535 0.45294 0.0
H1142 H 0.85837 0.53976 0.59149 0.0
H1143 H 0.99364 0.40394 0.52116 0.0
H1144 H 0.85283 0.41547 0.45192 0.0
H1145 H 0.85818 0.50002 0.43715 0.0
C1146 C 0.8371 0.54571 0.48532 0.0
C1147 C 0.83699 0.55777 0.52912 0.0
C1148 C 0.88445 0.41297 0.46555 0.0
C1149 C 0.88058 0.48589 0.50023 0.0
C1150 C 0.90351 0.37325 0.46575 0.0
C1151 C 0.94252 0.36897 0.48721 0.0
C1152 C 0.90431 0.4478 0.48782 0.0
C1153 C 0.96367 0.40586 0.5041 0.0
C1154 C 0.85854 0.50937 0.47079 0.0
C1155 C 0.85832 0.53233 0.55741 0.0
N1156 N 0.9435 0.44348 0.50554 0.0
N1157 N 0.87964 0.49788 0.54239 0.0
H1158 H 0.3024 0.96089 0.58633 0.0
H1159 H 0.51066 0.10307 0.55961 0.0
H1160 H 0.41225 0.93137 0.50887 0.0
H1161 H 0.38815 0.15268 0.59631 0.0
H1162 H 0.48498 0.03217 0.57599 0.0
H1163 H 0.34262 0.02208 0.6192 0.0
C1164 C 0.33549 0.96613 0.5775 0.0
C1165 C 0.35401 0.94122 0.54442 0.0
C1166 C 0.46416 0.05878 0.58195 0.0
C1167 C 0.40012 0.01009 0.58274 0.0
C1168 C 0.47898 0.09954 0.57306 0.0
C1169 C 0.45079 0.13359 0.57476 0.0
C1170 C 0.42092 0.05221 0.5922 0.0
C1171 C 0.41032 0.12687 0.59296 0.0
C1172 C 0.35835 0.00094 0.59639 0.0
C1173 C 0.39675 0.9497 0.53398 0.0
N1174 N 0.39594 0.0866 0.59955 0.0
N1175 N 0.41817 0.98365 0.55266 0.0
H1176 H 0.25771 0.98096 0.66442 0.0
H1177 H 0.16528 0.20523 0.61127 0.0
H1178 H 0.31229 0.09973 0.71658 0.0
H1179 H 0.09154 0.08749 0.59609 0.0
H1180 H 0.21936 0.16804 0.65034 0.0
H1181 H 0.19758 0.01973 0.63675 0.0
C1182 C 0.25708 0.01519 0.66995 0.0
C1183 C 0.29004 0.03719 0.69274 0.0
C1184 C 0.19107 0.1505 0.63886 0.0
C1185 C 0.2215 0.08173 0.66121 0.0
C1186 C 0.15987 0.17184 0.61693 0.0
C1187 C 0.12393 0.14943 0.59974 0.0
C1188 C 0.18661 0.10636 0.64313 0.0
C1189 C 0.11922 0.10593 0.60768 0.0
C1190 C 0.22264 0.03727 0.65442 0.0
C1191 C 0.28752 0.08154 0.69918 0.0
N1192 N 0.15052 0.08571 0.62812 0.0
N1193 N 0.25399 0.10239 0.68324 0.0
H1194 H 0.17269 0.05244 0.97685 0.0
H1195 H 0.02535 0.89532 0.99275 0.0
H1196 H 0.1868 0.05652 0.11392 0.0
H1197 H 0.10759 0.86148 0.09539 0.0
H1198 H 0.04925 0.96973 0.00402 0.0
H1199 H 0.1173 0.99714 0.98209 0.0
C1200 C 0.16301 0.04284 0.0082 0.0
C1201 C 0.18413 0.05947 0.04498 0.0
C1202 C 0.06114 0.9462 0.02488 0.0
C1203 C 0.12055 0.99594 0.05129 0.0
C1204 C 0.04673 0.90397 0.01917 0.0
C1205 C 0.06517 0.87226 0.04271 0.0
C1206 C 0.09427 0.95643 0.05415 0.0
C1207 C 0.09292 0.88503 0.07638 0.0
C1208 C 0.13112 0.0114 0.01123 0.0
C1209 C 0.17127 0.04459 0.08471 0.0
N1210 N 0.10766 0.9261 0.08038 0.0
N1211 N 0.14092 0.01299 0.08676 0.0
H1212 H 0.71816 0.34949 0.72202 0.0
H1213 H 0.95785 0.31944 0.64548 0.0
H1214 H 0.81066 0.45162 0.70702 0.0
H1215 H 0.85493 0.25596 0.57408 0.0
H1216 H 0.90584 0.34853 0.69623 0.0
H1217 H 0.77026 0.29872 0.69152 0.0
C1218 C 0.74948 0.36106 0.71261 0.0
C1219 C 0.76018 0.4047 0.71635 0.0
C1220 C 0.89488 0.32681 0.6704 0.0
C1221 C 0.81975 0.34723 0.68396 0.0
C1222 C 0.92454 0.30965 0.64178 0.0
C1223 C 0.91053 0.28561 0.60535 0.0
C1224 C 0.85112 0.31927 0.66278 0.0
C1225 C 0.86683 0.27457 0.60174 0.0
C1226 C 0.77901 0.33221 0.69552 0.0
C1227 C 0.80106 0.41829 0.70401 0.0
N1228 N 0.83837 0.29227 0.62968 0.0
N1229 N 0.82947 0.38962 0.68861 0.0
H1230 H 0.64809 0.41042 0.01577 0.0
H1231 H 0.66816 0.63988 0.91775 0.0
H1232 H 0.71774 0.4347 0.90034 0.0
H1233 H 0.57293 0.60703 0.01061 0.0
H1234 H 0.69054 0.5656 0.91374 0.0
H1235 H 0.62321 0.48354 0.01759 0.0
C1236 C 0.65775 0.43086 0.99061 0.0
C1237 C 0.68475 0.41616 0.95778 0.0
C1238 C 0.6645 0.57459 0.93473 0.0
C1239 C 0.65787 0.50027 0.96045 0.0
C1240 C 0.65152 0.61675 0.93662 0.0
C1241 C 0.61816 0.62912 0.96385 0.0
C1242 C 0.64448 0.54502 0.96092 0.0
C1243 C 0.59812 0.59838 0.98846 0.0
C1244 C 0.6439 0.47272 0.99185 0.0
C1245 C 0.69674 0.4444 0.92621 0.0
N1246 N 0.61188 0.55781 0.98676 0.0
N1247 N 0.6836 0.48516 0.92861 0.0
H1248 H 0.35103 0.83431 0.83077 0.0
H1249 H 0.10604 0.83144 0.89292 0.0
H1250 H 0.2764 0.94741 0.84612 0.0
H1251 H 0.1918 0.75814 0.96614 0.0
H1252 H 0.16704 0.85861 0.85286 0.0
H1253 H 0.29196 0.79307 0.86256 0.0
C1254 C 0.32234 0.85041 0.84096 0.0
C1255 C 0.31849 0.89431 0.83589 0.0
C1256 C 0.17233 0.83571 0.87696 0.0
C1257 C 0.25094 0.84735 0.87032 0.0
C1258 C 0.13758 0.8198 0.89941 0.0
C1259 C 0.14399 0.79287 0.93315 0.0
C1260 C 0.21375 0.82411 0.88776 0.0
C1261 C 0.18555 0.77879 0.9403 0.0
C1262 C 0.28884 0.82691 0.85891 0.0
C1263 C 0.28079 0.91372 0.84963 0.0
N1264 N 0.21917 0.79509 0.91815 0.0
N1265 N 0.24827 0.89002 0.86564 0.0
H1266 H 0.28694 0.03933 0.3196 0.0
H1267 H 0.35308 0.22398 0.47672 0.0
H1268 H 0.21234 0.15267 0.31781 0.0
H1269 H 0.44838 0.15929 0.40079 0.0
H1270 H 0.2982 0.19861 0.42448 0.0
H1271 H 0.34426 0.08055 0.35668 0.0
C1272 C 0.28271 0.07295 0.32706 0.0
C1273 C 0.24499 0.09274 0.31583 0.0
C1274 C 0.33134 0.19112 0.41874 0.0
C1275 C 0.31002 0.13975 0.35858 0.0
C1276 C 0.36254 0.20563 0.44832 0.0
C1277 C 0.40517 0.1938 0.44276 0.0
C1278 C 0.3429 0.16355 0.38443 0.0
C1279 C 0.4159 0.16941 0.40591 0.0
C1280 C 0.31549 0.09646 0.34781 0.0
C1281 C 0.24112 0.13643 0.32596 0.0
N1282 N 0.38478 0.15417 0.37865 0.0
N1283 N 0.27305 0.1585 0.34758 0.0
loop_
_geom_bond_atom_site_label_1
_geom_bond_atom_site_label_2
_geom_bond_distance
_geom_bond_site_symmetry_2
_ccdc_geom_bond_type
C0 O1 1.306 . S
C0 O3 1.160 . S
O1 C0 1.306 . S
O1 Cd2 2.228 . S
Cd2 O1 2.228 . S
Cd2 O6 2.273 . S
Cd2 O10 2.277 1_455 S
O3 C0 1.160 . S
O3 Cd4 2.203 1_455 S
Cd4 O3 2.203 1_655 S
Cd4 O6 2.411 1_655 S
Cd4 O7 2.333 . S
Cd4 O8 2.352 1_655 S
Cd4 O12 2.277 . S
Cd4 O13 2.356 . S
C5 O10 1.209 . S
C5 O12 1.226 . S
O6 Cd2 2.273 . S
O6 Cd4 2.411 1_455 S
O6 C9 1.334 . S
O7 Cd4 2.333 . S
O7 C9 1.198 1_655 S
O8 Cd4 2.352 1_455 S
O8 C11 1.258 1_455 S
C9 O6 1.334 . S
C9 O7 1.198 1_455 S
O10 Cd2 2.277 1_655 S
O10 C5 1.209 . S
C11 O8 1.258 1_655 S
C11 O13 1.282 . S
O12 Cd4 2.277 . S
O12 C5 1.226 . S
O13 Cd4 2.356 . S
O13 C11 1.282 . S
C14 O15 1.306 . S
C14 O17 1.160 . S
O15 C14 1.306 . S
O15 Cd16 2.228 . S
Cd16 O15 2.228 . S
Cd16 O20 2.273 . S
Cd16 O24 2.277 1_455 S
O17 C14 1.160 . S
O17 Cd18 2.203 1_455 S
Cd18 O17 2.203 1_655 S
Cd18 O20 2.411 1_655 S
Cd18 O21 2.333 . S
Cd18 O22 2.352 1_655 S
Cd18 O26 2.277 . S
Cd18 O27 2.356 . S
C19 O24 1.209 . S
C19 O26 1.226 . S
O20 Cd16 2.273 . S
O20 Cd18 2.411 1_455 S
O20 C23 1.320 . S
O21 Cd18 2.333 . S
O21 C23 1.214 1_655 S
O22 Cd18 2.352 1_455 S
O22 C25 1.258 1_455 S
C23 O20 1.320 . S
C23 O21 1.214 1_455 S
O24 Cd16 2.277 1_655 S
O24 C19 1.209 . S
C25 O22 1.258 1_655 S
C25 O27 1.282 . S
O26 Cd18 2.277 . S
O26 C19 1.226 . S
O27 Cd18 2.356 . S
O27 C25 1.282 . S
C28 O29 1.306 . S
C28 O31 1.160 . S
O29 C28 1.306 . S
O29 Cd30 2.228 . S
Cd30 O29 2.228 . S
Cd30 O34 2.273 . S
Cd30 O38 2.277 . S
O31 C28 1.160 . S
O31 Cd32 2.203 . S
Cd32 O31 2.203 . S
Cd32 O34 2.411 . S
Cd32 O35 2.333 . S
Cd32 O36 2.352 . S
Cd32 O40 2.277 . S
Cd32 O41 2.356 . S
C33 O38 1.209 . S
C33 O40 1.226 . S
O34 Cd30 2.273 . S
O34 Cd32 2.411 . S
O34 C37 1.320 . S
O35 Cd32 2.333 . S
O35 C37 1.214 . S
O36 Cd32 2.352 . S
O36 C39 1.258 . S
C37 O34 1.320 . S
C37 O35 1.214 . S
O38 Cd30 2.277 . S
O38 C33 1.209 . S
C39 O36 1.258 . S
C39 O41 1.282 . S
O40 Cd32 2.277 . S
O40 C33 1.226 . S
O41 Cd32 2.356 . S
O41 C39 1.282 . S
C42 O43 1.306 . S
C42 O45 1.160 . S
O43 C42 1.306 . S
O43 Cd44 2.228 . S
Cd44 O43 2.228 . S
Cd44 O48 2.273 . S
Cd44 O52 2.277 . S
O45 C42 1.160 . S
O45 Cd46 2.203 . S
Cd46 O45 2.203 . S
Cd46 O48 2.411 . S
Cd46 O49 2.333 . S
Cd46 O50 2.352 . S
Cd46 O54 2.277 . S
Cd46 O55 2.356 . S
C47 O52 1.209 . S
C47 O54 1.226 . S
O48 Cd44 2.273 . S
O48 Cd46 2.411 . S
O48 C51 1.320 . S
O49 Cd46 2.333 . S
O49 C51 1.214 . S
O50 Cd46 2.352 . S
O50 C53 1.258 . S
C51 O48 1.320 . S
C51 O49 1.214 . S
O52 Cd44 2.277 . S
O52 C47 1.209 . S
C53 O50 1.258 . S
C53 O55 1.282 . S
O54 Cd46 2.277 . S
O54 C47 1.226 . S
O55 Cd46 2.356 . S
O55 C53 1.282 . S
C56 O57 1.306 . S
C56 O59 1.160 1_545 S
O57 C56 1.306 . S
O57 Cd58 2.228 . S
Cd58 O57 2.228 . S
Cd58 O62 2.273 . S
Cd58 O66 2.277 . S
O59 C56 1.160 1_565 S
O59 Cd60 2.203 . S
Cd60 O59 2.203 . S
Cd60 O62 2.411 1_565 S
Cd60 O63 2.333 1_565 S
Cd60 O64 2.352 . S
Cd60 O68 2.277 . S
Cd60 O69 2.356 . S
C61 O66 1.209 . S
C61 O68 1.226 1_545 S
O62 Cd58 2.273 . S
O62 Cd60 2.411 1_545 S
O62 C65 1.320 . S
O63 Cd60 2.333 1_545 S
O63 C65 1.214 . S
O64 Cd60 2.352 . S
O64 C67 1.258 . S
C65 O62 1.320 . S
C65 O63 1.214 . S
O66 Cd58 2.277 . S
O66 C61 1.209 . S
C67 O64 1.258 . S
C67 O69 1.282 . S
O68 Cd60 2.277 . S
O68 C61 1.226 1_565 S
O69 Cd60 2.356 . S
O69 C67 1.282 . S
C70 O71 1.306 . S
C70 O73 1.160 . S
O71 C70 1.306 . S
O71 Cd72 2.228 . S
Cd72 O71 2.228 . S
Cd72 O76 2.273 . S
Cd72 O80 2.277 . S
O73 C70 1.160 . S
O73 Cd74 2.203 . S
Cd74 O73 2.203 . S
Cd74 O76 2.411 . S
Cd74 O77 2.333 . S
Cd74 O78 2.352 . S
Cd74 O82 2.277 . S
Cd74 O83 2.356 . S
C75 O80 1.209 . S
C75 O82 1.226 . S
O76 Cd72 2.273 . S
O76 Cd74 2.411 . S
O76 C79 1.320 . S
O77 Cd74 2.333 . S
O77 C79 1.214 . S
O78 Cd74 2.352 . S
O78 C81 1.258 . S
C79 O76 1.320 . S
C79 O77 1.214 . S
O80 Cd72 2.277 . S
O80 C75 1.209 . S
C81 O78 1.258 . S
C81 O83 1.282 . S
O82 Cd74 2.277 . S
O82 C75 1.226 . S
O83 Cd74 2.356 . S
O83 C81 1.282 . S
C84 O85 1.306 . S
C84 O87 1.160 1_565 S
O85 C84 1.306 . S
O85 Cd86 2.228 . S
Cd86 O85 2.228 . S
Cd86 O90 2.273 . S
Cd86 O94 2.277 . S
O87 C84 1.160 1_545 S
O87 Cd88 2.203 . S
Cd88 O87 2.203 . S
Cd88 O90 2.411 1_545 S
Cd88 O91 2.333 1_545 S
Cd88 O92 2.352 . S
Cd88 O96 2.277 . S
Cd88 O97 2.356 . S
C89 O94 1.209 1_545 S
C89 O96 1.226 . S
O90 Cd86 2.273 . S
O90 Cd88 2.411 1_565 S
O90 C93 1.320 . S
O91 Cd88 2.333 1_565 S
O91 C93 1.214 . S
O92 Cd88 2.352 . S
O92 C95 1.258 . S
C93 O90 1.320 . S
C93 O91 1.214 . S
O94 Cd86 2.277 . S
O94 C89 1.209 1_565 S
C95 O92 1.258 . S
C95 O97 1.282 . S
O96 Cd88 2.277 . S
O96 C89 1.226 . S
O97 Cd88 2.356 . S
O97 C95 1.282 . S
C98 O99 1.306 . S
C98 O101 1.160 1_554 S
O99 C98 1.306 . S
O99 Cd100 2.228 . S
Cd100 O99 2.228 . S
Cd100 O104 2.273 . S
Cd100 O108 2.277 . S
O101 C98 1.160 1_556 S
O101 Cd102 2.203 . S
Cd102 O101 2.203 . S
Cd102 O104 2.411 1_556 S
Cd102 O105 2.333 1_556 S
Cd102 O106 2.352 . S
Cd102 O110 2.277 . S
Cd102 O111 2.356 . S
C103 O108 1.209 1_556 S
C103 O110 1.226 . S
O104 Cd100 2.273 . S
O104 Cd102 2.411 1_554 S
O104 C107 1.320 . S
O105 Cd102 2.333 1_554 S
O105 C107 1.214 . S
O106 Cd102 2.352 . S
O106 C109 1.258 . S
C107 O104 1.320 . S
C107 O105 1.214 . S
O108 Cd100 2.277 . S
O108 C103 1.209 1_554 S
C109 O106 1.258 . S
C109 O111 1.282 . S
O110 Cd102 2.277 . S
O110 C103 1.226 . S
O111 Cd102 2.356 . S
O111 C109 1.282 . S
C112 O113 1.306 1_554 S
C112 O115 1.160 . S
O113 C112 1.306 1_556 S
O113 Cd114 2.228 . S
Cd114 O113 2.228 . S
Cd114 O118 2.273 . S
Cd114 O122 2.277 . S
O115 C112 1.160 . S
O115 Cd116 2.203 . S
Cd116 O115 2.203 . S
Cd116 O118 2.411 1_554 S
Cd116 O119 2.330 1_554 S
Cd116 O120 2.352 . S
Cd116 O124 2.277 . S
Cd116 O125 2.356 . S
C117 O122 1.209 1_554 S
C117 O124 1.226 . S
O118 Cd114 2.273 . S
O118 Cd116 2.411 1_556 S
O118 C121 1.320 . S
O119 Cd116 2.330 1_556 S
O119 C121 1.219 . S
O120 Cd116 2.352 . S
O120 C123 1.258 . S
C121 O118 1.320 . S
C121 O119 1.219 . S
O122 Cd114 2.277 . S
O122 C117 1.209 1_556 S
C123 O120 1.258 . S
C123 O125 1.282 . S
O124 Cd116 2.277 . S
O124 C117 1.226 . S
O125 Cd116 2.356 . S
O125 C123 1.282 . S
C126 O127 1.306 . S
C126 O129 1.160 . S
O127 C126 1.306 . S
O127 Cd128 2.228 . S
Cd128 O127 2.228 . S
Cd128 O132 2.273 . S
Cd128 O136 2.277 . S
O129 C126 1.160 . S
O129 Cd130 2.203 . S
Cd130 O129 2.203 . S
Cd130 O132 2.411 . S
Cd130 O133 2.333 . S
Cd130 O134 2.352 . S
Cd130 O138 2.277 . S
Cd130 O139 2.356 . S
C131 O136 1.209 . S
C131 O138 1.226 . S
O132 Cd128 2.273 . S
O132 Cd130 2.411 . S
O132 C135 1.320 . S
O133 Cd130 2.333 . S
O133 C135 1.214 . S
O134 Cd130 2.352 . S
O134 C137 1.258 . S
C135 O132 1.320 . S
C135 O133 1.214 . S
O136 Cd128 2.277 . S
O136 C131 1.209 . S
C137 O134 1.258 . S
C137 O139 1.282 . S
O138 Cd130 2.277 . S
O138 C131 1.226 . S
O139 Cd130 2.356 . S
O139 C137 1.282 . S
C140 O141 1.306 . S
C140 O143 1.160 . S
O141 C140 1.306 . S
O141 Cd142 2.228 . S
Cd142 O141 2.228 . S
Cd142 O146 2.273 . S
Cd142 O150 2.277 . S
O143 C140 1.160 . S
O143 Cd144 2.203 . S
Cd144 O143 2.203 . S
Cd144 O146 2.411 . S
Cd144 O147 2.333 . S
Cd144 O148 2.352 . S
Cd144 O152 2.277 . S
Cd144 O153 2.356 . S
C145 O150 1.209 . S
C145 O152 1.226 . S
O146 Cd142 2.273 . S
O146 Cd144 2.411 . S
O146 C149 1.320 . S
O147 Cd144 2.333 . S
O147 C149 1.214 . S
O148 Cd144 2.352 . S
O148 C151 1.258 . S
C149 O146 1.320 . S
C149 O147 1.214 . S
O150 Cd142 2.277 . S
O150 C145 1.209 . S
C151 O148 1.258 . S
C151 O153 1.282 . S
O152 Cd144 2.277 . S
O152 C145 1.226 . S
O153 Cd144 2.356 . S
O153 C151 1.282 . S
C154 O155 1.306 . S
C154 O157 1.160 . S
O155 C154 1.306 . S
O155 Cd156 2.228 . S
Cd156 O155 2.228 . S
Cd156 O160 2.273 . S
Cd156 O164 2.277 . S
O157 C154 1.160 . S
O157 Cd158 2.203 . S
Cd158 O157 2.203 . S
Cd158 O160 2.411 . S
Cd158 O161 2.333 . S
Cd158 O162 2.352 . S
Cd158 O166 2.277 . S
Cd158 O167 2.356 . S
C159 O164 1.209 . S
C159 O166 1.226 . S
O160 Cd156 2.273 . S
O160 Cd158 2.411 . S
O160 C163 1.320 . S
O161 Cd158 2.333 . S
O161 C163 1.214 . S
O162 Cd158 2.352 . S
O162 C165 1.258 . S
C163 O160 1.320 . S
C163 O161 1.214 . S
O164 Cd156 2.277 . S
O164 C159 1.209 . S
C165 O162 1.258 . S
C165 O167 1.282 . S
O166 Cd158 2.277 . S
O166 C159 1.226 . S
O167 Cd158 2.356 . S
O167 C165 1.282 . S
H168 C176 0.930 . S
H169 C179 0.930 . S
H170 C181 0.930 . S
H171 C182 0.970 . S
H172 C182 0.970 . S
H173 C184 0.930 1_455 S
H174 C186 0.930 . S
H175 C188 0.939 . S
C176 H168 0.930 . S
C176 C177 1.382 . S
C176 C178 1.426 . S
C177 C176 1.382 . S
C177 C181 1.389 . S
C178 C176 1.426 . S
C178 C179 1.375 . S
C178 C182 1.532 . S
C179 H169 0.930 . S
C179 C178 1.375 . S
C179 C180 1.416 . S
C180 C179 1.416 . S
C180 C181 1.371 . S
C181 H170 0.930 . S
C181 C177 1.389 . S
C181 C180 1.371 . S
C182 H171 0.970 . S
C182 H172 0.970 . S
C182 C178 1.532 . S
C182 C183 1.499 . S
C183 C182 1.499 . S
C183 C184 1.370 1_455 S
C183 C188 1.423 . S
C184 H173 0.930 1_655 S
C184 C183 1.370 1_655 S
C184 C185 1.407 . S
C185 C184 1.407 . S
C185 C186 1.365 . S
C186 H174 0.930 . S
C186 C185 1.365 . S
C186 C187 1.393 . S
C187 C186 1.393 . S
C187 C188 1.371 1_655 S
C188 H175 0.939 . S
C188 C183 1.423 . S
C188 C187 1.371 1_455 S
H189 C197 0.930 . S
H190 C200 0.930 1_554 S
H191 C202 0.930 . S
H192 C203 0.970 . S
H193 C203 0.970 . S
H194 C205 0.930 1_455 S
H195 C207 0.930 . S
H196 C209 0.930 1_554 S
C197 H189 0.930 . S
C197 C198 1.382 . S
C197 C199 1.426 . S
C198 C197 1.382 . S
C198 C202 1.389 . S
C199 C197 1.426 . S
C199 C200 1.375 . S
C199 C203 1.532 . S
C200 H190 0.930 1_556 S
C200 C199 1.375 . S
C200 C201 1.416 . S
C201 C200 1.416 . S
C201 C202 1.371 . S
C202 H191 0.930 . S
C202 C198 1.389 . S
C202 C201 1.371 . S
C203 H192 0.970 . S
C203 H193 0.970 . S
C203 C199 1.532 . S
C203 C204 1.499 . S
C204 C203 1.499 . S
C204 C205 1.370 1_455 S
C204 C209 1.415 . S
C205 H194 0.930 1_655 S
C205 C204 1.370 1_655 S
C205 C206 1.407 . S
C206 C205 1.407 . S
C206 C207 1.365 . S
C207 H195 0.930 . S
C207 C206 1.365 . S
C207 C208 1.393 . S
C208 C207 1.393 . S
C208 C209 1.387 1_655 S
C209 H196 0.930 1_556 S
C209 C204 1.415 . S
C209 C208 1.387 1_455 S
H210 C218 0.930 1_556 S
H211 C221 0.930 . S
H212 C223 0.930 . S
H213 C224 0.970 . S
H214 C224 0.970 . S
H215 C226 0.930 1_556 S
H216 C228 0.930 . S
H217 C230 0.930 . S
C218 H210 0.930 1_554 S
C218 C219 1.382 . S
C218 C220 1.426 . S
C219 C218 1.382 . S
C219 C223 1.389 . S
C220 C218 1.426 . S
C220 C221 1.375 . S
C220 C224 1.532 . S
C221 H211 0.930 . S
C221 C220 1.375 . S
C221 C222 1.416 . S
C222 C221 1.416 . S
C222 C223 1.371 . S
C223 H212 0.930 . S
C223 C219 1.389 . S
C223 C222 1.371 . S
C224 H213 0.970 . S
C224 H214 0.970 . S
C224 C220 1.532 . S
C224 C225 1.499 . S
C225 C224 1.499 . S
C225 C226 1.370 . S
C225 C230 1.415 . S
C226 H215 0.930 1_554 S
C226 C225 1.370 . S
C226 C227 1.407 . S
C227 C226 1.407 . S
C227 C228 1.365 . S
C228 H216 0.930 . S
C228 C227 1.365 . S
C228 C229 1.393 . S
C229 C228 1.393 . S
C229 C230 1.387 . S
C230 H217 0.930 . S
C230 C225 1.415 . S
C230 C229 1.387 . S
H231 C239 0.930 . S
H232 C242 0.930 . S
H233 C244 0.930 . S
H234 C245 0.970 . S
H235 C245 0.970 . S
H236 C247 0.930 . S
H237 C249 0.930 . S
H238 C251 0.930 . S
C239 H231 0.930 . S
C239 C240 1.382 . S
C239 C241 1.426 . S
C240 C239 1.382 . S
C240 C244 1.389 . S
C241 C239 1.426 . S
C241 C242 1.375 . S
C241 C245 1.532 . S
C242 H232 0.930 . S
C242 C241 1.375 . S
C242 C243 1.416 . S
C243 C242 1.416 . S
C243 C244 1.371 . S
C244 H233 0.930 . S
C244 C240 1.389 . S
C244 C243 1.371 . S
C245 H234 0.970 . S
C245 H235 0.970 . S
C245 C241 1.532 . S
C245 C246 1.499 . S
C246 C245 1.499 . S
C246 C247 1.370 . S
C246 C251 1.415 . S
C247 H236 0.930 . S
C247 C246 1.370 . S
C247 C248 1.407 . S
C248 C247 1.407 . S
C248 C249 1.365 . S
C249 H237 0.930 . S
C249 C248 1.365 . S
C249 C250 1.393 . S
C250 C249 1.393 . S
C250 C251 1.387 . S
C251 H238 0.930 . S
C251 C246 1.415 . S
C251 C250 1.387 . S
H252 C260 0.930 . S
H253 C263 0.930 . S
H254 C265 0.930 . S
H255 C266 0.970 . S
H256 C266 0.970 . S
H257 C268 0.930 . S
H258 C270 0.930 . S
H259 C272 0.930 . S
C260 H252 0.930 . S
C260 C261 1.382 . S
C260 C262 1.425 1_545 S
C261 C260 1.382 . S
C261 C265 1.389 . S
C262 C260 1.425 1_565 S
C262 C263 1.375 1_565 S
C262 C266 1.533 . S
C263 H253 0.930 . S
C263 C262 1.375 1_545 S
C263 C264 1.416 . S
C264 C263 1.416 . S
C264 C265 1.371 . S
C265 H254 0.930 . S
C265 C261 1.389 . S
C265 C264 1.371 . S
C266 H255 0.970 . S
C266 H256 0.970 . S
C266 C262 1.533 . S
C266 C267 1.499 . S
C267 C266 1.499 . S
C267 C268 1.370 . S
C267 C272 1.415 . S
C268 H257 0.930 . S
C268 C267 1.370 . S
C268 C269 1.407 . S
C269 C268 1.407 . S
C269 C270 1.365 . S
C270 H258 0.930 . S
C270 C269 1.365 . S
C270 C271 1.393 . S
C271 C270 1.393 . S
C271 C272 1.387 . S
C272 H259 0.930 . S
C272 C267 1.415 . S
C272 C271 1.387 . S
H273 C281 0.930 . S
H274 C284 0.930 . S
H275 C286 0.930 . S
H276 C287 0.970 . S
H277 C287 0.970 . S
H278 C289 0.930 . S
H279 C291 0.930 . S
H280 C293 0.930 . S
C281 H273 0.930 . S
C281 C282 1.382 . S
C281 C283 1.426 . S
C282 C281 1.382 . S
C282 C286 1.389 . S
C283 C281 1.426 . S
C283 C284 1.375 . S
C283 C287 1.532 . S
C284 H274 0.930 . S
C284 C283 1.375 . S
C284 C285 1.416 . S
C285 C284 1.416 . S
C285 C286 1.371 . S
C286 H275 0.930 . S
C286 C282 1.389 . S
C286 C285 1.371 . S
C287 H276 0.970 . S
C287 H277 0.970 . S
C287 C283 1.532 . S
C287 C288 1.499 . S
C288 C287 1.499 . S
C288 C289 1.370 . S
C288 C293 1.415 . S
C289 H278 0.930 . S
C289 C288 1.370 . S
C289 C290 1.407 . S
C290 C289 1.407 . S
C290 C291 1.365 . S
C291 H279 0.930 . S
C291 C290 1.365 . S
C291 C292 1.393 . S
C292 C291 1.393 . S
C292 C293 1.387 . S
C293 H280 0.930 . S
C293 C288 1.415 . S
C293 C292 1.387 . S
H294 C302 0.937 . S
H295 C305 0.930 . S
H296 C307 0.930 . S
H297 C308 0.970 . S
H298 C308 0.970 . S
H299 C310 0.930 . S
H300 C312 0.930 . S
H301 C314 0.930 . S
C302 H294 0.937 . S
C302 C303 1.382 . S
C302 C304 1.426 1_465 S
C303 C302 1.382 . S
C303 C307 1.389 1_455 S
C304 C302 1.426 1_645 S
C304 C305 1.375 1_545 S
C304 C308 1.532 . S
C305 H295 0.930 . S
C305 C304 1.375 1_565 S
C305 C306 1.416 . S
C306 C305 1.416 . S
C306 C307 1.371 . S
C307 H296 0.930 . S
C307 C303 1.389 1_655 S
C307 C306 1.371 . S
C308 H297 0.970 . S
C308 H298 0.970 . S
C308 C304 1.532 . S
C308 C309 1.499 . S
C309 C308 1.499 . S
C309 C310 1.370 1_655 S
C309 C314 1.415 . S
C310 H299 0.930 . S
C310 C309 1.370 1_455 S
C310 C311 1.407 . S
C311 C310 1.407 . S
C311 C312 1.365 1_455 S
C312 H300 0.930 . S
C312 C311 1.365 1_655 S
C312 C313 1.393 . S
C313 C312 1.393 . S
C313 C314 1.387 . S
C314 H301 0.930 . S
C314 C309 1.415 . S
C314 C313 1.387 . S
H315 C323 0.930 . S
H316 C326 0.930 . S
H317 C328 0.930 . S
H318 C329 0.970 . S
H319 C329 0.970 . S
H320 C331 0.930 1_554 S
H321 C333 0.930 . S
H322 C335 0.930 1_554 S
C323 H315 0.930 . S
C323 C324 1.382 . S
C323 C325 1.426 . S
C324 C323 1.382 . S
C324 C328 1.389 . S
C325 C323 1.426 . S
C325 C326 1.375 . S
C325 C329 1.532 . S
C326 H316 0.930 . S
C326 C325 1.375 . S
C326 C327 1.416 . S
C327 C326 1.416 . S
C327 C328 1.371 . S
C328 H317 0.930 . S
C328 C324 1.389 . S
C328 C327 1.371 . S
C329 H318 0.970 . S
C329 H319 0.970 . S
C329 C325 1.532 . S
C329 C330 1.499 . S
C330 C329 1.499 . S
C330 C331 1.370 1_554 S
C330 C335 1.415 1_554 S
C331 H320 0.930 1_556 S
C331 C330 1.370 1_556 S
C331 C332 1.407 . S
C332 C331 1.407 . S
C332 C333 1.365 . S
C333 H321 0.930 . S
C333 C332 1.365 . S
C333 C334 1.393 . S
C334 C333 1.393 . S
C334 C335 1.387 . S
C335 H322 0.930 1_556 S
C335 C330 1.415 1_556 S
C335 C334 1.387 . S
H336 C344 0.930 . S
H337 C347 0.930 1_545 S
H338 C349 0.930 . S
H339 C350 0.970 . S
H340 C350 0.970 . S
H341 C352 0.941 . S
H342 C354 0.930 . S
H343 C356 0.930 1_545 S
C344 H336 0.930 . S
C344 C345 1.382 . S
C344 C346 1.426 . S
C345 C344 1.382 . S
C345 C349 1.389 . S
C346 C344 1.426 . S
C346 C347 1.375 . S
C346 C350 1.532 . S
C347 H337 0.930 1_565 S
C347 C346 1.375 . S
C347 C348 1.416 . S
C348 C347 1.416 . S
C348 C349 1.371 . S
C349 H338 0.930 . S
C349 C345 1.389 . S
C349 C348 1.371 . S
C350 H339 0.970 . S
C350 H340 0.970 . S
C350 C346 1.532 . S
C350 C351 1.499 . S
C351 C350 1.499 . S
C351 C352 1.380 . S
C351 C356 1.415 . S
C352 H341 0.941 . S
C352 C351 1.380 . S
C352 C353 1.388 1_554 S
C353 C352 1.388 1_556 S
C353 C354 1.365 . S
C354 H342 0.930 . S
C354 C353 1.365 . S
C354 C355 1.393 . S
C355 C354 1.393 . S
C355 C356 1.387 1_556 S
C356 H343 0.930 1_565 S
C356 C351 1.415 . S
C356 C355 1.387 1_554 S
H357 C365 0.930 . S
H358 C368 0.930 . S
H359 C370 0.930 . S
H360 C371 0.970 . S
H361 C371 0.970 . S
H362 C373 0.930 . S
H363 C375 0.930 . S
H364 C377 0.930 . S
C365 H357 0.930 . S
C365 C366 1.382 . S
C365 C367 1.426 . S
C366 C365 1.382 . S
C366 C370 1.389 . S
C367 C365 1.426 . S
C367 C368 1.375 . S
C367 C371 1.532 . S
C368 H358 0.930 . S
C368 C367 1.375 . S
C368 C369 1.416 . S
C369 C368 1.416 . S
C369 C370 1.371 . S
C370 H359 0.930 . S
C370 C366 1.389 . S
C370 C369 1.371 . S
C371 H360 0.970 . S
C371 H361 0.970 . S
C371 C367 1.532 . S
C371 C372 1.499 . S
C372 C371 1.499 . S
C372 C373 1.370 . S
C372 C377 1.415 . S
C373 H362 0.930 . S
C373 C372 1.370 . S
C373 C374 1.407 . S
C374 C373 1.407 . S
C374 C375 1.365 . S
C375 H363 0.930 . S
C375 C374 1.365 . S
C375 C376 1.393 . S
C376 C375 1.393 . S
C376 C377 1.387 . S
C377 H364 0.930 . S
C377 C372 1.415 . S
C377 C376 1.387 . S
H378 C386 0.930 . S
H379 C389 0.930 . S
H380 C391 0.930 . S
H381 C392 0.970 . S
H382 C392 0.970 . S
H383 C394 0.930 . S
H384 C396 0.930 . S
H385 C398 0.930 . S
C386 H378 0.930 . S
C386 C387 1.382 . S
C386 C388 1.426 . S
C387 C386 1.382 . S
C387 C391 1.389 . S
C388 C386 1.426 . S
C388 C389 1.375 . S
C388 C392 1.532 . S
C389 H379 0.930 . S
C389 C388 1.375 . S
C389 C390 1.416 . S
C390 C389 1.416 . S
C390 C391 1.371 . S
C391 H380 0.930 . S
C391 C387 1.389 . S
C391 C390 1.371 . S
C392 H381 0.970 . S
C392 H382 0.970 . S
C392 C388 1.532 . S
C392 C393 1.499 . S
C393 C392 1.499 . S
C393 C394 1.370 . S
C393 C398 1.415 . S
C394 H383 0.930 . S
C394 C393 1.370 . S
C394 C395 1.407 . S
C395 C394 1.407 . S
C395 C396 1.365 . S
C396 H384 0.930 . S
C396 C395 1.365 . S
C396 C397 1.393 . S
C397 C396 1.393 . S
C397 C398 1.387 . S
C398 H385 0.930 . S
C398 C393 1.415 . S
C398 C397 1.387 . S
H399 C407 0.930 . S
H400 C410 0.930 . S
H401 C412 0.930 . S
H402 C413 0.970 . S
H403 C413 0.970 . S
H404 C415 0.930 . S
H405 C417 0.930 . S
H406 C419 0.930 . S
C407 H399 0.930 . S
C407 C408 1.382 . S
C407 C409 1.426 . S
C408 C407 1.382 . S
C408 C412 1.389 . S
C409 C407 1.426 . S
C409 C410 1.375 . S
C409 C413 1.532 . S
C410 H400 0.930 . S
C410 C409 1.375 . S
C410 C411 1.416 . S
C411 C410 1.416 . S
C411 C412 1.371 . S
C412 H401 0.930 . S
C412 C408 1.389 . S
C412 C411 1.371 . S
C413 H402 0.970 . S
C413 H403 0.970 . S
C413 C409 1.532 . S
C413 C414 1.499 . S
C414 C413 1.499 . S
C414 C415 1.370 . S
C414 C419 1.415 . S
C415 H404 0.930 . S
C415 C414 1.370 . S
C415 C416 1.407 . S
C416 C415 1.407 . S
C416 C417 1.365 . S
C417 H405 0.930 . S
C417 C416 1.365 . S
C417 C418 1.393 . S
C418 C417 1.393 . S
C418 C419 1.387 . S
C419 H406 0.930 . S
C419 C414 1.415 . S
C419 C418 1.387 . S
H420 C426 0.930 . S
H421 C430 0.930 . S
H422 C435 0.929 . S
H423 C433 0.929 . S
H424 C428 0.929 . S
H425 C434 0.929 . S
C426 H420 0.930 . S
C426 C427 1.354 1_455 S
C426 C434 1.378 1_554 S
C427 C426 1.354 1_655 S
C427 C435 1.445 . S
C428 H424 0.929 . S
C428 C430 1.378 . S
C428 C432 1.350 1_655 S
C429 C432 1.463 . S
C429 C434 1.350 . S
C429 N437 1.427 1_456 S
C430 H421 0.930 . S
C430 C428 1.378 . S
C430 C431 1.367 1_655 S
C431 C430 1.367 1_455 S
C431 C433 1.433 . S
C432 C428 1.350 1_455 S
C432 C429 1.463 . S
C432 N436 1.427 . S
C433 H423 0.929 . S
C433 C431 1.433 . S
C433 N436 1.384 . S
C434 H425 0.929 . S
C434 C426 1.378 1_556 S
C434 C429 1.350 . S
C435 H422 0.929 . S
C435 C427 1.445 . S
C435 N437 1.384 . S
N436 C432 1.427 . S
N436 C433 1.384 . S
N437 C429 1.427 1_654 S
N437 C435 1.384 . S
H438 C444 0.930 . S
H439 C448 0.930 . S
H440 C453 0.929 . S
H441 C451 0.929 . S
H442 C446 0.929 . S
H443 C452 0.929 . S
C444 H438 0.930 . S
C444 C445 1.367 . S
C444 C452 1.378 . S
C445 C444 1.367 . S
C445 C453 1.433 . S
C446 H442 0.929 . S
C446 C448 1.378 . S
C446 C450 1.350 . S
C447 C450 1.463 . S
C447 C452 1.350 . S
C447 N455 1.427 . S
C448 H439 0.930 . S
C448 C446 1.378 . S
C448 C449 1.367 . S
C449 C448 1.367 . S
C449 C451 1.433 . S
C450 C446 1.350 . S
C450 C447 1.463 . S
C450 N454 1.427 . S
C451 H441 0.929 . S
C451 C449 1.433 . S
C451 N454 1.384 . S
C452 H443 0.929 . S
C452 C444 1.378 . S
C452 C447 1.350 . S
C453 H440 0.929 . S
C453 C445 1.433 . S
C453 N455 1.384 . S
N454 C450 1.427 . S
N454 C451 1.384 . S
N455 C447 1.427 . S
N455 C453 1.384 . S
H456 C462 0.930 . S
H457 C466 0.930 . S
H458 C471 0.929 . S
H459 C469 0.929 . S
H460 C464 0.929 . S
H461 C470 0.929 . S
C462 H456 0.930 . S
C462 C463 1.367 . S
C462 C470 1.378 . S
C463 C462 1.367 . S
C463 C471 1.433 . S
C464 H460 0.929 . S
C464 C466 1.378 . S
C464 C468 1.350 . S
C465 C468 1.463 . S
C465 C470 1.350 . S
C465 N473 1.427 . S
C466 H457 0.930 . S
C466 C464 1.378 . S
C466 C467 1.367 . S
C467 C466 1.367 . S
C467 C469 1.433 . S
C468 C464 1.350 . S
C468 C465 1.463 . S
C468 N472 1.427 . S
C469 H459 0.929 . S
C469 C467 1.433 . S
C469 N472 1.384 . S
C470 H461 0.929 . S
C470 C462 1.378 . S
C470 C465 1.350 . S
C471 H458 0.929 . S
C471 C463 1.433 . S
C471 N473 1.384 . S
N472 C468 1.427 . S
N472 C469 1.384 . S
N473 C465 1.427 . S
N473 C471 1.384 . S
H474 C480 0.930 . S
H475 C484 0.930 . S
H476 C489 0.929 . S
H477 C487 0.929 . S
H478 C482 0.929 . S
H479 C488 0.929 . S
C480 H474 0.930 . S
C480 C481 1.367 . S
C480 C488 1.378 . S
C481 C480 1.367 . S
C481 C489 1.433 . S
C482 H478 0.929 . S
C482 C484 1.378 . S
C482 C486 1.350 . S
C483 C486 1.463 . S
C483 C488 1.350 . S
C483 N491 1.427 . S
C484 H475 0.930 . S
C484 C482 1.378 . S
C484 C485 1.367 . S
C485 C484 1.367 . S
C485 C487 1.433 . S
C486 C482 1.350 . S
C486 C483 1.463 . S
C486 N490 1.427 . S
C487 H477 0.929 . S
C487 C485 1.433 . S
C487 N490 1.384 . S
C488 H479 0.929 . S
C488 C480 1.378 . S
C488 C483 1.350 . S
C489 H476 0.929 . S
C489 C481 1.433 . S
C489 N491 1.384 . S
N490 C486 1.427 . S
N490 C487 1.384 . S
N491 C483 1.427 . S
N491 C489 1.384 . S
H492 C498 0.930 . S
H493 C502 0.930 . S
H494 C507 0.929 . S
H495 C505 0.929 . S
H496 C500 0.929 . S
H497 C506 0.929 . S
C498 H492 0.930 . S
C498 C499 1.380 . S
C498 C506 1.378 . S
C499 C498 1.380 . S
C499 C507 1.422 1_455 S
C500 H496 0.929 . S
C500 C502 1.378 . S
C500 C504 1.350 1_655 S
C501 C504 1.463 . S
C501 C506 1.350 . S
C501 N509 1.427 1_455 S
C502 H493 0.930 . S
C502 C500 1.378 . S
C502 C503 1.367 1_655 S
C503 C502 1.367 1_455 S
C503 C505 1.433 . S
C504 C500 1.350 1_455 S
C504 C501 1.463 . S
C504 N508 1.427 . S
C505 H495 0.929 . S
C505 C503 1.433 . S
C505 N508 1.384 . S
C506 H497 0.929 . S
C506 C498 1.378 . S
C506 C501 1.350 . S
C507 H494 0.929 . S
C507 C499 1.422 1_655 S
C507 N509 1.384 . S
N508 C504 1.427 . S
N508 C505 1.384 . S
N509 C501 1.427 1_655 S
N509 C507 1.384 . S
H510 C516 0.930 . S
H511 C520 0.930 . S
H512 C525 0.929 . S
H513 C523 0.929 . S
H514 C518 0.929 . S
H515 C524 0.929 . S
C516 H510 0.930 . S
C516 C517 1.367 . S
C516 C524 1.378 . S
C517 C516 1.367 . S
C517 C525 1.433 . S
C518 H514 0.929 . S
C518 C520 1.378 . S
C518 C522 1.350 . S
C519 C522 1.463 . S
C519 C524 1.350 . S
C519 N527 1.427 . S
C520 H511 0.930 . S
C520 C518 1.378 . S
C520 C521 1.367 . S
C521 C520 1.367 . S
C521 C523 1.433 . S
C522 C518 1.350 . S
C522 C519 1.463 . S
C522 N526 1.427 . S
C523 H513 0.929 . S
C523 C521 1.433 . S
C523 N526 1.384 . S
C524 H515 0.929 . S
C524 C516 1.378 . S
C524 C519 1.350 . S
C525 H512 0.929 . S
C525 C517 1.433 . S
C525 N527 1.384 . S
N526 C522 1.427 . S
N526 C523 1.384 . S
N527 C519 1.427 . S
N527 C525 1.384 . S
H528 C534 0.930 . S
H529 C538 0.930 . S
H530 C543 0.929 . S
H531 C541 0.929 . S
H532 C536 0.929 . S
H533 C542 0.929 . S
C534 H528 0.930 . S
C534 C535 1.367 . S
C534 C542 1.378 1_556 S
C535 C534 1.367 . S
C535 C543 1.433 . S
C536 H532 0.929 . S
C536 C538 1.378 . S
C536 C540 1.350 . S
C537 C540 1.463 . S
C537 C542 1.350 . S
C537 N545 1.427 . S
C538 H529 0.930 . S
C538 C536 1.378 . S
C538 C539 1.367 . S
C539 C538 1.367 . S
C539 C541 1.433 . S
C540 C536 1.350 . S
C540 C537 1.463 . S
C540 N544 1.427 . S
C541 H531 0.929 . S
C541 C539 1.433 . S
C541 N544 1.384 . S
C542 H533 0.929 . S
C542 C534 1.378 1_554 S
C542 C537 1.350 . S
C543 H530 0.929 . S
C543 C535 1.433 . S
C543 N545 1.384 1_556 S
N544 C540 1.427 . S
N544 C541 1.384 . S
N545 C537 1.427 . S
N545 C543 1.384 1_554 S
H546 C552 0.930 . S
H547 C556 0.930 . S
H548 C561 0.929 . S
H549 C559 0.929 . S
H550 C554 0.929 . S
H551 C560 0.929 . S
C552 H546 0.930 . S
C552 C553 1.367 . S
C552 C560 1.378 . S
C553 C552 1.367 . S
C553 C561 1.433 . S
C554 H550 0.929 . S
C554 C556 1.378 . S
C554 C558 1.350 . S
C555 C558 1.463 . S
C555 C560 1.350 . S
C555 N563 1.427 . S
C556 H547 0.930 . S
C556 C554 1.378 . S
C556 C557 1.367 . S
C557 C556 1.367 . S
C557 C559 1.433 . S
C558 C554 1.350 . S
C558 C555 1.463 . S
C558 N562 1.427 . S
C559 H549 0.929 . S
C559 C557 1.433 . S
C559 N562 1.384 . S
C560 H551 0.929 . S
C560 C552 1.378 . S
C560 C555 1.350 . S
C561 H548 0.929 . S
C561 C553 1.433 . S
C561 N563 1.384 . S
N562 C558 1.427 . S
N562 C559 1.384 . S
N563 C555 1.427 . S
N563 C561 1.384 . S
H564 C570 0.930 . S
H565 C574 0.930 . S
H566 C579 0.929 . S
H567 C577 0.929 . S
H568 C572 0.929 . S
H569 C578 0.929 . S
C570 H564 0.930 . S
C570 C571 1.367 . S
C570 C578 1.378 . S
C571 C570 1.367 . S
C571 C579 1.433 1_545 S
C572 H568 0.929 . S
C572 C574 1.378 . S
C572 C576 1.350 1_565 S
C573 C576 1.463 . S
C573 C578 1.350 1_655 S
C573 N581 1.427 1_545 S
C574 H565 0.930 . S
C574 C572 1.378 . S
C574 C575 1.367 1_565 S
C575 C574 1.367 1_545 S
C575 C577 1.433 . S
C576 C572 1.350 1_545 S
C576 C573 1.463 . S
C576 N580 1.427 . S
C577 H567 0.929 . S
C577 C575 1.433 . S
C577 N580 1.384 . S
C578 H569 0.929 . S
C578 C570 1.378 . S
C578 C573 1.350 1_455 S
C579 H566 0.929 . S
C579 C571 1.433 1_565 S
C579 N581 1.384 1_455 S
N580 C576 1.427 . S
N580 C577 1.384 . S
N581 C573 1.427 1_565 S
N581 C579 1.384 1_655 S
H582 C588 0.930 . S
H583 C592 0.930 . S
H584 C597 0.929 . S
H585 C595 0.929 . S
H586 C590 0.929 . S
H587 C596 0.929 . S
C588 H582 0.930 . S
C588 C589 1.367 . S
C588 C596 1.378 . S
C589 C588 1.367 . S
C589 C597 1.433 . S
C590 H586 0.929 . S
C590 C592 1.378 . S
C590 C594 1.350 . S
C591 C594 1.463 . S
C591 C596 1.350 . S
C591 N599 1.427 . S
C592 H583 0.930 . S
C592 C590 1.378 . S
C592 C593 1.367 . S
C593 C592 1.367 . S
C593 C595 1.433 . S
C594 C590 1.350 . S
C594 C591 1.463 . S
C594 N598 1.427 . S
C595 H585 0.929 . S
C595 C593 1.433 . S
C595 N598 1.384 . S
C596 H587 0.929 . S
C596 C588 1.378 . S
C596 C591 1.350 . S
C597 H584 0.929 . S
C597 C589 1.433 . S
C597 N599 1.384 . S
N598 C594 1.427 . S
N598 C595 1.384 . S
N599 C591 1.427 . S
N599 C597 1.384 . S
H600 C606 0.930 . S
H601 C610 0.930 . S
H602 C615 0.929 . S
H603 C613 0.929 . S
H604 C608 0.929 . S
H605 C614 0.929 . S
C606 H600 0.930 . S
C606 C607 1.367 . S
C606 C614 1.378 . S
C607 C606 1.367 . S
C607 C615 1.433 1_545 S
C608 H604 0.929 . S
C608 C610 1.378 . S
C608 C612 1.350 1_565 S
C609 C612 1.463 . S
C609 C614 1.350 . S
C609 N617 1.427 1_545 S
C610 H601 0.930 . S
C610 C608 1.378 . S
C610 C611 1.367 1_565 S
C611 C610 1.367 1_545 S
C611 C613 1.433 . S
C612 C608 1.350 1_545 S
C612 C609 1.463 . S
C612 N616 1.427 . S
C613 H603 0.929 . S
C613 C611 1.433 . S
C613 N616 1.384 . S
C614 H605 0.929 . S
C614 C606 1.378 . S
C614 C609 1.350 . S
C615 H602 0.929 . S
C615 C607 1.433 1_565 S
C615 N617 1.384 . S
N616 C612 1.427 . S
N616 C613 1.384 . S
N617 C609 1.427 1_565 S
N617 C615 1.384 . S
H618 C624 0.930 . S
H619 C628 0.930 . S
H620 C633 0.929 . S
H621 C631 0.929 . S
H622 C626 0.929 . S
H623 C632 0.929 . S
C624 H618 0.930 . S
C624 C625 1.367 . S
C624 C632 1.378 . S
C625 C624 1.367 . S
C625 C633 1.433 . S
C626 H622 0.929 . S
C626 C628 1.378 . S
C626 C630 1.350 . S
C627 C630 1.463 . S
C627 C632 1.350 . S
C627 N635 1.427 . S
C628 H619 0.930 . S
C628 C626 1.378 . S
C628 C629 1.367 . S
C629 C628 1.367 . S
C629 C631 1.433 . S
C630 C626 1.350 . S
C630 C627 1.463 . S
C630 N634 1.427 . S
C631 H621 0.929 . S
C631 C629 1.433 . S
C631 N634 1.384 . S
C632 H623 0.929 . S
C632 C624 1.378 . S
C632 C627 1.350 . S
C633 H620 0.929 . S
C633 C625 1.433 . S
C633 N635 1.384 . S
N634 C630 1.427 . S
N634 C631 1.384 . S
N635 C627 1.427 . S
N635 C633 1.384 . S
H636 C642 0.930 . S
H637 C646 0.930 . S
H638 C651 0.929 . S
H639 C649 0.929 . S
H640 C644 0.929 . S
H641 C650 0.931 . S
C642 H636 0.930 . S
C642 C643 1.367 1_565 S
C642 C650 1.373 1_455 S
C643 C642 1.367 1_545 S
C643 C651 1.433 . S
C644 H640 0.929 . S
C644 C646 1.378 . S
C644 C648 1.350 . S
C645 C648 1.463 . S
C645 C650 1.352 1_545 S
C645 N653 1.427 1_655 S
C646 H637 0.930 . S
C646 C644 1.378 . S
C646 C647 1.367 . S
C647 C646 1.367 . S
C647 C649 1.433 1_545 S
C648 C644 1.350 . S
C648 C645 1.463 . S
C648 N652 1.427 1_545 S
C649 H639 0.929 . S
C649 C647 1.433 1_565 S
C649 N652 1.384 . S
C650 H641 0.931 . S
C650 C642 1.373 1_655 S
C650 C645 1.352 1_565 S
C651 H638 0.929 . S
C651 C643 1.433 . S
C651 N653 1.384 . S
N652 C648 1.427 1_565 S
N652 C649 1.384 . S
N653 C645 1.427 1_455 S
N653 C651 1.384 . S
H654 C660 0.930 . S
H655 C664 0.930 . S
H656 C669 0.929 . S
H657 C667 0.929 . S
H658 C662 0.929 . S
H659 C668 0.929 . S
C660 H654 0.930 . S
C660 C661 1.367 . S
C660 C668 1.378 . S
C661 C660 1.367 . S
C661 C669 1.433 . S
C662 H658 0.929 . S
C662 C664 1.378 . S
C662 C666 1.350 . S
C663 C666 1.463 . S
C663 C668 1.350 . S
C663 N671 1.427 . S
C664 H655 0.930 . S
C664 C662 1.378 . S
C664 C665 1.367 . S
C665 C664 1.367 . S
C665 C667 1.433 . S
C666 C662 1.350 . S
C666 C663 1.463 . S
C666 N670 1.427 . S
C667 H657 0.929 . S
C667 C665 1.433 . S
C667 N670 1.384 . S
C668 H659 0.929 . S
C668 C660 1.378 . S
C668 C663 1.350 . S
C669 H656 0.929 . S
C669 C661 1.433 . S
C669 N671 1.384 . S
N670 C666 1.427 . S
N670 C667 1.384 . S
N671 C663 1.427 . S
N671 C669 1.384 . S
H672 C678 0.930 . S
H673 C682 0.930 . S
H674 C687 0.929 . S
H675 C685 0.929 . S
H676 C680 0.929 . S
H677 C686 0.929 . S
C678 H672 0.930 . S
C678 C679 1.367 . S
C678 C686 1.378 . S
C679 C678 1.367 . S
C679 C687 1.433 1_565 S
C680 H676 0.929 . S
C680 C682 1.378 . S
C680 C684 1.350 . S
C681 C684 1.463 1_565 S
C681 C686 1.350 . S
C681 N689 1.427 1_565 S
C682 H673 0.930 . S
C682 C680 1.378 . S
C682 C683 1.367 . S
C683 C682 1.367 . S
C683 C685 1.433 1_545 S
C684 C680 1.350 . S
C684 C681 1.463 1_545 S
C684 N688 1.427 1_545 S
C685 H675 0.929 . S
C685 C683 1.433 1_565 S
C685 N688 1.384 . S
C686 H677 0.929 . S
C686 C678 1.378 . S
C686 C681 1.350 . S
C687 H674 0.929 . S
C687 C679 1.433 1_545 S
C687 N689 1.384 . S
N688 C684 1.427 1_565 S
N688 C685 1.384 . S
N689 C681 1.427 1_545 S
N689 C687 1.384 . S
H690 C696 0.930 . S
H691 C700 0.930 . S
H692 C705 0.929 . S
H693 C703 0.929 . S
H694 C698 0.929 . S
H695 C704 0.929 . S
C696 H690 0.930 . S
C696 C697 1.367 . S
C696 C704 1.378 . S
C697 C696 1.367 . S
C697 C705 1.433 . S
C698 H694 0.929 . S
C698 C700 1.378 . S
C698 C702 1.350 . S
C699 C702 1.463 . S
C699 C704 1.350 . S
C699 N707 1.427 . S
C700 H691 0.930 . S
C700 C698 1.378 . S
C700 C701 1.367 . S
C701 C700 1.367 . S
C701 C703 1.433 . S
C702 C698 1.350 . S
C702 C699 1.463 . S
C702 N706 1.427 . S
C703 H693 0.929 . S
C703 C701 1.433 . S
C703 N706 1.384 . S
C704 H695 0.929 . S
C704 C696 1.378 . S
C704 C699 1.350 . S
C705 H692 0.929 . S
C705 C697 1.433 . S
C705 N707 1.384 . S
N706 C702 1.427 . S
N706 C703 1.384 . S
N707 C699 1.427 . S
N707 C705 1.384 . S
H708 C714 0.930 . S
H709 C718 0.930 . S
H710 C723 0.929 . S
H711 C721 0.929 . S
H712 C716 0.929 . S
H713 C722 0.929 . S
C714 H708 0.930 . S
C714 C715 1.367 1_554 S
C714 C722 1.378 1_545 S
C715 C714 1.367 1_556 S
C715 C723 1.433 . S
C716 H712 0.929 . S
C716 C718 1.378 . S
C716 C720 1.350 . S
C717 C720 1.463 . S
C717 C722 1.350 1_556 S
C717 N725 1.427 . S
C718 H709 0.930 . S
C718 C716 1.378 . S
C718 C719 1.367 . S
C719 C718 1.367 . S
C719 C721 1.433 1_556 S
C720 C716 1.350 . S
C720 C717 1.463 . S
C720 N724 1.427 1_556 S
C721 H711 0.929 . S
C721 C719 1.433 1_554 S
C721 N724 1.384 . S
C722 H713 0.929 . S
C722 C714 1.378 1_565 S
C722 C717 1.350 1_554 S
C723 H710 0.929 . S
C723 C715 1.433 . S
C723 N725 1.384 1_545 S
N724 C720 1.427 1_554 S
N724 C721 1.384 . S
N725 C717 1.427 . S
N725 C723 1.384 1_565 S
H726 C732 0.930 . S
H727 C736 0.930 . S
H728 C741 0.929 . S
H729 C739 0.929 . S
H730 C734 0.929 . S
H731 C740 0.929 . S
C732 H726 0.930 . S
C732 C733 1.367 1_556 S
C732 C740 1.378 . S
C733 C732 1.367 1_554 S
C733 C741 1.433 . S
C734 H730 0.929 . S
C734 C736 1.378 . S
C734 C738 1.350 . S
C735 C738 1.463 . S
C735 C740 1.350 1_554 S
C735 N743 1.427 . S
C736 H727 0.930 . S
C736 C734 1.378 . S
C736 C737 1.367 . S
C737 C736 1.367 . S
C737 C739 1.433 1_554 S
C738 C734 1.350 . S
C738 C735 1.463 . S
C738 N742 1.427 1_554 S
C739 H729 0.929 . S
C739 C737 1.433 1_556 S
C739 N742 1.384 . S
C740 H731 0.929 . S
C740 C732 1.378 . S
C740 C735 1.350 1_556 S
C741 H728 0.929 . S
C741 C733 1.433 . S
C741 N743 1.384 . S
N742 C738 1.427 1_556 S
N742 C739 1.384 . S
N743 C735 1.427 . S
N743 C741 1.384 . S
H744 C750 0.930 . S
H745 C754 0.930 . S
H746 C759 0.929 . S
H747 C757 0.929 . S
H748 C752 0.929 . S
H749 C758 0.929 . S
C750 H744 0.930 . S
C750 C751 1.367 . S
C750 C758 1.378 . S
C751 C750 1.367 . S
C751 C759 1.433 . S
C752 H748 0.929 . S
C752 C754 1.378 . S
C752 C756 1.350 . S
C753 C756 1.463 . S
C753 C758 1.350 . S
C753 N761 1.427 . S
C754 H745 0.930 . S
C754 C752 1.378 . S
C754 C755 1.367 . S
C755 C754 1.367 . S
C755 C757 1.433 . S
C756 C752 1.350 . S
C756 C753 1.463 . S
C756 N760 1.427 . S
C757 H747 0.929 . S
C757 C755 1.433 . S
C757 N760 1.384 . S
C758 H749 0.929 . S
C758 C750 1.378 . S
C758 C753 1.350 . S
C759 H746 0.929 . S
C759 C751 1.433 . S
C759 N761 1.384 . S
N760 C756 1.427 . S
N760 C757 1.384 . S
N761 C753 1.427 . S
N761 C759 1.384 . S
H762 C768 0.930 . S
H763 C772 0.930 . S
H764 C777 0.929 . S
H765 C775 0.929 . S
H766 C770 0.929 . S
H767 C776 0.929 . S
C768 H762 0.930 . S
C768 C769 1.367 . S
C768 C776 1.378 . S
C769 C768 1.367 . S
C769 C777 1.433 . S
C770 H766 0.929 . S
C770 C772 1.378 . S
C770 C774 1.350 . S
C771 C774 1.463 . S
C771 C776 1.350 . S
C771 N779 1.427 . S
C772 H763 0.930 . S
C772 C770 1.378 . S
C772 C773 1.367 . S
C773 C772 1.367 . S
C773 C775 1.433 . S
C774 C770 1.350 . S
C774 C771 1.463 . S
C774 N778 1.427 . S
C775 H765 0.929 . S
C775 C773 1.433 . S
C775 N778 1.384 . S
C776 H767 0.929 . S
C776 C768 1.378 . S
C776 C771 1.350 . S
C777 H764 0.929 . S
C777 C769 1.433 . S
C777 N779 1.384 . S
N778 C774 1.427 . S
N778 C775 1.384 . S
N779 C771 1.427 . S
N779 C777 1.384 . S
H780 C786 0.930 . S
H781 C790 0.930 . S
H782 C795 0.929 . S
H783 C793 0.929 . S
H784 C788 0.929 . S
H785 C794 0.929 . S
C786 H780 0.930 . S
C786 C787 1.367 . S
C786 C794 1.378 . S
C787 C786 1.367 . S
C787 C795 1.433 . S
C788 H784 0.929 . S
C788 C790 1.378 . S
C788 C792 1.350 . S
C789 C792 1.463 . S
C789 C794 1.350 . S
C789 N797 1.427 . S
C790 H781 0.930 . S
C790 C788 1.378 . S
C790 C791 1.367 . S
C791 C790 1.367 . S
C791 C793 1.433 . S
C792 C788 1.350 . S
C792 C789 1.463 . S
C792 N796 1.427 . S
C793 H783 0.929 . S
C793 C791 1.433 . S
C793 N796 1.384 . S
C794 H785 0.929 . S
C794 C786 1.378 . S
C794 C789 1.350 . S
C795 H782 0.929 . S
C795 C787 1.433 . S
C795 N797 1.384 . S
N796 C792 1.427 . S
N796 C793 1.384 . S
N797 C789 1.427 . S
N797 C795 1.384 . S
H798 C804 0.930 . S
H799 C808 0.930 . S
H800 C813 0.929 . S
H801 C811 0.929 . S
H802 C806 0.929 . S
H803 C812 0.929 . S
C804 H798 0.930 . S
C804 C805 1.367 . S
C804 C812 1.378 1_565 S
C805 C804 1.367 . S
C805 C813 1.433 . S
C806 H802 0.929 . S
C806 C808 1.378 . S
C806 C810 1.350 . S
C807 C810 1.463 . S
C807 C812 1.350 . S
C807 N815 1.427 . S
C808 H799 0.930 . S
C808 C806 1.378 . S
C808 C809 1.367 . S
C809 C808 1.367 . S
C809 C811 1.433 . S
C810 C806 1.350 . S
C810 C807 1.463 . S
C810 N814 1.427 . S
C811 H801 0.929 . S
C811 C809 1.433 . S
C811 N814 1.384 . S
C812 H803 0.929 . S
C812 C804 1.378 1_545 S
C812 C807 1.350 . S
C813 H800 0.929 . S
C813 C805 1.433 . S
C813 N815 1.384 1_565 S
N814 C810 1.427 . S
N814 C811 1.384 . S
N815 C807 1.427 . S
N815 C813 1.384 1_545 S
H816 C822 0.930 . S
H817 C826 0.930 . S
H818 C831 0.929 . S
H819 C829 0.929 . S
H820 C824 0.929 . S
H821 C830 0.929 . S
C822 H816 0.930 . S
C822 C823 1.367 . S
C822 C830 1.378 . S
C823 C822 1.367 . S
C823 C831 1.433 . S
C824 H820 0.929 . S
C824 C826 1.378 . S
C824 C828 1.350 . S
C825 C828 1.463 . S
C825 C830 1.350 . S
C825 N833 1.427 . S
C826 H817 0.930 . S
C826 C824 1.378 . S
C826 C827 1.367 . S
C827 C826 1.367 . S
C827 C829 1.433 . S
C828 C824 1.350 . S
C828 C825 1.463 . S
C828 N832 1.427 . S
C829 H819 0.929 . S
C829 C827 1.433 . S
C829 N832 1.384 . S
C830 H821 0.929 . S
C830 C822 1.378 . S
C830 C825 1.350 . S
C831 H818 0.929 . S
C831 C823 1.433 . S
C831 N833 1.384 . S
N832 C828 1.427 . S
N832 C829 1.384 . S
N833 C825 1.427 . S
N833 C831 1.384 . S
H834 C840 0.930 . S
H835 C844 0.930 . S
H836 C849 0.929 . S
H837 C847 0.929 . S
H838 C842 0.929 . S
H839 C848 0.929 . S
C840 H834 0.930 . S
C840 C841 1.367 . S
C840 C848 1.378 . S
C841 C840 1.367 . S
C841 C849 1.433 . S
C842 H838 0.929 . S
C842 C844 1.378 . S
C842 C846 1.350 . S
C843 C846 1.463 . S
C843 C848 1.350 . S
C843 N851 1.427 . S
C844 H835 0.930 . S
C844 C842 1.378 . S
C844 C845 1.367 . S
C845 C844 1.367 . S
C845 C847 1.433 . S
C846 C842 1.350 . S
C846 C843 1.463 . S
C846 N850 1.427 . S
C847 H837 0.929 . S
C847 C845 1.433 . S
C847 N850 1.384 . S
C848 H839 0.929 . S
C848 C840 1.378 . S
C848 C843 1.350 . S
C849 H836 0.929 . S
C849 C841 1.433 . S
C849 N851 1.384 . S
N850 C846 1.427 . S
N850 C847 1.384 . S
N851 C843 1.427 . S
N851 C849 1.384 . S
H852 C858 0.930 . S
H853 C862 0.930 . S
H854 C867 0.929 . S
H855 C865 0.929 . S
H856 C860 0.929 . S
H857 C866 0.929 . S
C858 H852 0.930 . S
C858 C859 1.367 . S
C858 C866 1.378 . S
C859 C858 1.367 . S
C859 C867 1.433 . S
C860 H856 0.929 . S
C860 C862 1.378 . S
C860 C864 1.350 . S
C861 C864 1.463 . S
C861 C866 1.350 . S
C861 N869 1.427 . S
C862 H853 0.930 . S
C862 C860 1.378 . S
C862 C863 1.367 . S
C863 C862 1.367 . S
C863 C865 1.433 . S
C864 C860 1.350 . S
C864 C861 1.463 . S
C864 N868 1.427 . S
C865 H855 0.929 . S
C865 C863 1.433 . S
C865 N868 1.384 . S
C866 H857 0.929 . S
C866 C858 1.378 . S
C866 C861 1.350 . S
C867 H854 0.929 . S
C867 C859 1.433 . S
C867 N869 1.384 . S
N868 C864 1.427 . S
N868 C865 1.384 . S
N869 C861 1.427 . S
N869 C867 1.384 . S
H870 C876 0.930 . S
H871 C880 0.930 . S
H872 C885 0.929 . S
H873 C883 0.929 . S
H874 C878 0.929 . S
H875 C884 0.929 . S
C876 H870 0.930 . S
C876 C877 1.367 . S
C876 C884 1.378 . S
C877 C876 1.367 . S
C877 C885 1.433 . S
C878 H874 0.929 . S
C878 C880 1.378 . S
C878 C882 1.350 . S
C879 C882 1.463 . S
C879 C884 1.350 . S
C879 N887 1.427 . S
C880 H871 0.930 . S
C880 C878 1.378 . S
C880 C881 1.367 . S
C881 C880 1.367 . S
C881 C883 1.433 . S
C882 C878 1.350 . S
C882 C879 1.463 . S
C882 N886 1.427 . S
C883 H873 0.929 . S
C883 C881 1.433 . S
C883 N886 1.384 . S
C884 H875 0.929 . S
C884 C876 1.378 . S
C884 C879 1.350 . S
C885 H872 0.929 . S
C885 C877 1.433 . S
C885 N887 1.384 . S
N886 C882 1.427 . S
N886 C883 1.384 . S
N887 C879 1.427 . S
N887 C885 1.384 . S
H888 C894 0.930 . S
H889 C898 0.930 . S
H890 C903 0.929 . S
H891 C901 0.929 . S
H892 C896 0.929 . S
H893 C902 0.929 . S
C894 H888 0.930 . S
C894 C895 1.367 . S
C894 C902 1.378 1_554 S
C895 C894 1.367 . S
C895 C903 1.433 1_455 S
C896 H892 0.929 . S
C896 C898 1.378 . S
C896 C900 1.350 1_655 S
C897 C900 1.463 . S
C897 C902 1.350 . S
C897 N905 1.427 1_456 S
C898 H889 0.930 . S
C898 C896 1.378 . S
C898 C899 1.367 1_655 S
C899 C898 1.367 1_455 S
C899 C901 1.433 . S
C900 C896 1.350 1_455 S
C900 C897 1.463 . S
C900 N904 1.427 . S
C901 H891 0.929 . S
C901 C899 1.433 . S
C901 N904 1.384 . S
C902 H893 0.929 . S
C902 C894 1.378 1_556 S
C902 C897 1.350 . S
C903 H890 0.929 . S
C903 C895 1.433 1_655 S
C903 N905 1.384 . S
N904 C900 1.427 . S
N904 C901 1.384 . S
N905 C897 1.427 1_654 S
N905 C903 1.384 . S
H906 C912 0.930 . S
H907 C916 0.930 . S
H908 C921 0.929 . S
H909 C919 0.929 . S
H910 C914 0.929 . S
H911 C920 0.929 . S
C912 H906 0.930 . S
C912 C913 1.367 . S
C912 C920 1.378 . S
C913 C912 1.367 . S
C913 C921 1.433 . S
C914 H910 0.929 . S
C914 C916 1.378 . S
C914 C918 1.350 . S
C915 C918 1.463 . S
C915 C920 1.350 . S
C915 N923 1.427 . S
C916 H907 0.930 . S
C916 C914 1.378 . S
C916 C917 1.367 . S
C917 C916 1.367 . S
C917 C919 1.433 . S
C918 C914 1.350 . S
C918 C915 1.463 . S
C918 N922 1.427 . S
C919 H909 0.929 . S
C919 C917 1.433 . S
C919 N922 1.384 . S
C920 H911 0.929 . S
C920 C912 1.378 . S
C920 C915 1.350 . S
C921 H908 0.929 . S
C921 C913 1.433 . S
C921 N923 1.384 . S
N922 C918 1.427 . S
N922 C919 1.384 . S
N923 C915 1.427 . S
N923 C921 1.384 . S
H924 C930 0.930 1_556 S
H925 C934 0.930 . S
H926 C939 0.929 . S
H927 C937 0.929 . S
H928 C932 0.929 . S
H929 C938 0.929 . S
C930 H924 0.930 1_554 S
C930 C931 1.367 1_554 S
C930 C938 1.378 . S
C931 C930 1.367 1_556 S
C931 C939 1.433 . S
C932 H928 0.929 . S
C932 C934 1.378 . S
C932 C936 1.350 . S
C933 C936 1.463 . S
C933 C938 1.350 . S
C933 N941 1.427 . S
C934 H925 0.930 . S
C934 C932 1.378 . S
C934 C935 1.367 . S
C935 C934 1.367 . S
C935 C937 1.433 . S
C936 C932 1.350 . S
C936 C933 1.463 . S
C936 N940 1.427 . S
C937 H927 0.929 . S
C937 C935 1.433 . S
C937 N940 1.384 . S
C938 H929 0.929 . S
C938 C930 1.378 . S
C938 C933 1.350 . S
C939 H926 0.929 . S
C939 C931 1.433 . S
C939 N941 1.384 1_556 S
N940 C936 1.427 . S
N940 C937 1.384 . S
N941 C933 1.427 . S
N941 C939 1.384 1_554 S
H942 C948 0.930 . S
H943 C952 0.930 . S
H944 C957 0.929 . S
H945 C955 0.929 . S
H946 C950 0.929 . S
H947 C956 0.929 . S
C948 H942 0.930 . S
C948 C949 1.367 . S
C948 C956 1.378 . S
C949 C948 1.367 . S
C949 C957 1.433 . S
C950 H946 0.929 . S
C950 C952 1.378 . S
C950 C954 1.350 . S
C951 C954 1.463 . S
C951 C956 1.350 . S
C951 N959 1.427 . S
C952 H943 0.930 . S
C952 C950 1.378 . S
C952 C953 1.367 . S
C953 C952 1.367 . S
C953 C955 1.433 . S
C954 C950 1.350 . S
C954 C951 1.463 . S
C954 N958 1.427 . S
C955 H945 0.929 . S
C955 C953 1.433 . S
C955 N958 1.384 . S
C956 H947 0.929 . S
C956 C948 1.378 . S
C956 C951 1.350 . S
C957 H944 0.929 . S
C957 C949 1.433 . S
C957 N959 1.384 . S
N958 C954 1.427 . S
N958 C955 1.384 . S
N959 C951 1.427 . S
N959 C957 1.384 . S
H960 C966 0.930 . S
H961 C970 0.930 . S
H962 C975 0.929 . S
H963 C973 0.929 1_655 S
H964 C968 0.929 . S
H965 C974 0.929 . S
C966 H960 0.930 . S
C966 C967 1.367 1_655 S
C966 C974 1.378 . S
C967 C966 1.367 1_455 S
C967 C975 1.433 . S
C968 H964 0.929 . S
C968 C970 1.378 . S
C968 C972 1.350 . S
C969 C972 1.463 . S
C969 C974 1.350 1_455 S
C969 N977 1.427 . S
C970 H961 0.930 . S
C970 C968 1.378 . S
C970 C971 1.367 . S
C971 C970 1.367 . S
C971 C973 1.433 . S
C972 C968 1.350 . S
C972 C969 1.463 . S
C972 N976 1.427 . S
C973 H963 0.929 1_455 S
C973 C971 1.433 . S
C973 N976 1.384 . S
C974 H965 0.929 . S
C974 C966 1.378 . S
C974 C969 1.350 1_655 S
C975 H962 0.929 . S
C975 C967 1.433 . S
C975 N977 1.384 . S
N976 C972 1.427 . S
N976 C973 1.384 . S
N977 C969 1.427 . S
N977 C975 1.384 . S
H978 C984 0.930 . S
H979 C988 0.930 . S
H980 C993 0.929 . S
H981 C991 0.929 . S
H982 C986 0.929 . S
H983 C992 0.929 . S
C984 H978 0.930 . S
C984 C985 1.367 . S
C984 C992 1.378 . S
C985 C984 1.367 . S
C985 C993 1.433 . S
C986 H982 0.929 . S
C986 C988 1.378 . S
C986 C990 1.350 . S
C987 C990 1.463 . S
C987 C992 1.350 . S
C987 N995 1.427 . S
C988 H979 0.930 . S
C988 C986 1.378 . S
C988 C989 1.367 . S
C989 C988 1.367 . S
C989 C991 1.433 . S
C990 C986 1.350 . S
C990 C987 1.463 . S
C990 N994 1.427 . S
C991 H981 0.929 . S
C991 C989 1.433 . S
C991 N994 1.384 . S
C992 H983 0.929 . S
C992 C984 1.378 . S
C992 C987 1.350 . S
C993 H980 0.929 . S
C993 C985 1.433 . S
C993 N995 1.384 . S
N994 C990 1.427 . S
N994 C991 1.384 . S
N995 C987 1.427 . S
N995 C993 1.384 . S
H996 C1002 0.930 . S
H997 C1006 0.930 . S
H998 C1011 0.929 . S
H999 C1009 0.929 . S
H1000 C1004 0.929 . S
H1001 C1010 0.929 . S
C1002 H996 0.930 . S
C1002 C1003 1.367 . S
C1002 C1010 1.378 . S
C1003 C1002 1.367 . S
C1003 C1011 1.433 . S
C1004 H1000 0.929 . S
C1004 C1006 1.378 . S
C1004 C1008 1.350 . S
C1005 C1008 1.463 . S
C1005 C1010 1.350 . S
C1005 N1013 1.427 . S
C1006 H997 0.930 . S
C1006 C1004 1.378 . S
C1006 C1007 1.367 . S
C1007 C1006 1.367 . S
C1007 C1009 1.433 . S
C1008 C1004 1.350 . S
C1008 C1005 1.463 . S
C1008 N1012 1.427 . S
C1009 H999 0.929 . S
C1009 C1007 1.433 . S
C1009 N1012 1.384 . S
C1010 H1001 0.929 . S
C1010 C1002 1.378 . S
C1010 C1005 1.350 . S
C1011 H998 0.929 . S
C1011 C1003 1.433 . S
C1011 N1013 1.384 . S
N1012 C1008 1.427 . S
N1012 C1009 1.384 . S
N1013 C1005 1.427 . S
N1013 C1011 1.384 . S
H1014 C1020 0.930 . S
H1015 C1024 0.930 . S
H1016 C1029 0.929 . S
H1017 C1027 0.929 . S
H1018 C1022 0.929 . S
H1019 C1028 0.929 . S
C1020 H1014 0.930 . S
C1020 C1021 1.367 . S
C1020 C1028 1.378 . S
C1021 C1020 1.367 . S
C1021 C1029 1.433 . S
C1022 H1018 0.929 . S
C1022 C1024 1.378 . S
C1022 C1026 1.350 . S
C1023 C1026 1.463 . S
C1023 C1028 1.350 . S
C1023 N1031 1.427 . S
C1024 H1015 0.930 . S
C1024 C1022 1.378 . S
C1024 C1025 1.367 . S
C1025 C1024 1.367 . S
C1025 C1027 1.433 . S
C1026 C1022 1.350 . S
C1026 C1023 1.463 . S
C1026 N1030 1.427 . S
C1027 H1017 0.929 . S
C1027 C1025 1.433 . S
C1027 N1030 1.384 . S
C1028 H1019 0.929 . S
C1028 C1020 1.378 . S
C1028 C1023 1.350 . S
C1029 H1016 0.929 . S
C1029 C1021 1.433 . S
C1029 N1031 1.384 . S
N1030 C1026 1.427 . S
N1030 C1027 1.384 . S
N1031 C1023 1.427 . S
N1031 C1029 1.384 . S
H1032 C1038 0.930 . S
H1033 C1042 0.930 . S
H1034 C1047 0.929 . S
H1035 C1045 0.929 . S
H1036 C1040 0.929 . S
H1037 C1046 0.929 . S
C1038 H1032 0.930 . S
C1038 C1039 1.367 . S
C1038 C1046 1.378 1_655 S
C1039 C1038 1.367 . S
C1039 C1047 1.433 1_655 S
C1040 H1036 0.929 . S
C1040 C1042 1.378 . S
C1040 C1044 1.350 . S
C1041 C1044 1.463 . S
C1041 C1046 1.350 . S
C1041 N1049 1.427 . S
C1042 H1033 0.930 . S
C1042 C1040 1.378 . S
C1042 C1043 1.367 . S
C1043 C1042 1.367 . S
C1043 C1045 1.433 . S
C1044 C1040 1.350 . S
C1044 C1041 1.463 . S
C1044 N1048 1.427 . S
C1045 H1035 0.929 . S
C1045 C1043 1.433 . S
C1045 N1048 1.384 . S
C1046 H1037 0.929 . S
C1046 C1038 1.378 1_455 S
C1046 C1041 1.350 . S
C1047 H1034 0.929 . S
C1047 C1039 1.433 1_455 S
C1047 N1049 1.384 . S
N1048 C1044 1.427 . S
N1048 C1045 1.384 . S
N1049 C1041 1.427 . S
N1049 C1047 1.384 . S
H1050 C1056 0.930 . S
H1051 C1060 0.930 . S
H1052 C1065 0.929 . S
H1053 C1063 0.929 . S
H1054 C1058 0.929 . S
H1055 C1064 0.929 . S
C1056 H1050 0.930 . S
C1056 C1057 1.367 . S
C1056 C1064 1.378 . S
C1057 C1056 1.367 . S
C1057 C1065 1.433 . S
C1058 H1054 0.929 . S
C1058 C1060 1.378 . S
C1058 C1062 1.350 . S
C1059 C1062 1.463 . S
C1059 C1064 1.350 . S
C1059 N1067 1.427 . S
C1060 H1051 0.930 . S
C1060 C1058 1.378 . S
C1060 C1061 1.367 . S
C1061 C1060 1.367 . S
C1061 C1063 1.433 . S
C1062 C1058 1.350 . S
C1062 C1059 1.463 . S
C1062 N1066 1.427 . S
C1063 H1053 0.929 . S
C1063 C1061 1.433 . S
C1063 N1066 1.384 . S
C1064 H1055 0.929 . S
C1064 C1056 1.378 . S
C1064 C1059 1.350 . S
C1065 H1052 0.929 . S
C1065 C1057 1.433 . S
C1065 N1067 1.384 . S
N1066 C1062 1.427 . S
N1066 C1063 1.384 . S
N1067 C1059 1.427 . S
N1067 C1065 1.384 . S
H1068 C1074 0.930 . S
H1069 C1078 0.930 . S
H1070 C1083 0.929 . S
H1071 C1081 0.929 . S
H1072 C1076 0.929 . S
H1073 C1082 0.929 . S
C1074 H1068 0.930 . S
C1074 C1075 1.367 . S
C1074 C1082 1.378 . S
C1075 C1074 1.367 . S
C1075 C1083 1.433 . S
C1076 H1072 0.929 . S
C1076 C1078 1.378 . S
C1076 C1080 1.350 . S
C1077 C1080 1.463 . S
C1077 C1082 1.350 . S
C1077 N1085 1.427 . S
C1078 H1069 0.930 . S
C1078 C1076 1.378 . S
C1078 C1079 1.367 . S
C1079 C1078 1.367 . S
C1079 C1081 1.433 . S
C1080 C1076 1.350 . S
C1080 C1077 1.463 . S
C1080 N1084 1.427 . S
C1081 H1071 0.929 . S
C1081 C1079 1.433 . S
C1081 N1084 1.384 . S
C1082 H1073 0.929 . S
C1082 C1074 1.378 . S
C1082 C1077 1.350 . S
C1083 H1070 0.929 . S
C1083 C1075 1.433 . S
C1083 N1085 1.384 . S
N1084 C1080 1.427 . S
N1084 C1081 1.384 . S
N1085 C1077 1.427 . S
N1085 C1083 1.384 . S
H1086 C1092 0.930 . S
H1087 C1096 0.930 . S
H1088 C1101 0.929 . S
H1089 C1099 0.929 . S
H1090 C1094 0.929 . S
H1091 C1100 0.929 . S
C1092 H1086 0.930 . S
C1092 C1093 1.367 . S
C1092 C1100 1.378 . S
C1093 C1092 1.367 . S
C1093 C1101 1.433 . S
C1094 H1090 0.929 . S
C1094 C1096 1.378 . S
C1094 C1098 1.350 . S
C1095 C1098 1.463 . S
C1095 C1100 1.350 . S
C1095 N1103 1.427 . S
C1096 H1087 0.930 . S
C1096 C1094 1.378 . S
C1096 C1097 1.367 . S
C1097 C1096 1.367 . S
C1097 C1099 1.433 . S
C1098 C1094 1.350 . S
C1098 C1095 1.463 . S
C1098 N1102 1.427 . S
C1099 H1089 0.929 . S
C1099 C1097 1.433 . S
C1099 N1102 1.384 . S
C1100 H1091 0.929 . S
C1100 C1092 1.378 . S
C1100 C1095 1.350 . S
C1101 H1088 0.929 . S
C1101 C1093 1.433 . S
C1101 N1103 1.384 . S
N1102 C1098 1.427 . S
N1102 C1099 1.384 . S
N1103 C1095 1.427 . S
N1103 C1101 1.384 . S
H1104 C1110 0.930 . S
H1105 C1114 0.930 . S
H1106 C1119 0.929 . S
H1107 C1117 0.929 . S
H1108 C1112 0.929 . S
H1109 C1118 0.929 . S
C1110 H1104 0.930 . S
C1110 C1111 1.367 . S
C1110 C1118 1.378 1_655 S
C1111 C1110 1.367 . S
C1111 C1119 1.433 . S
C1112 H1108 0.929 . S
C1112 C1114 1.378 . S
C1112 C1116 1.350 . S
C1113 C1116 1.463 . S
C1113 C1118 1.350 . S
C1113 N1121 1.427 . S
C1114 H1105 0.930 . S
C1114 C1112 1.378 . S
C1114 C1115 1.367 . S
C1115 C1114 1.367 . S
C1115 C1117 1.433 . S
C1116 C1112 1.350 . S
C1116 C1113 1.463 . S
C1116 N1120 1.427 . S
C1117 H1107 0.929 . S
C1117 C1115 1.433 . S
C1117 N1120 1.384 . S
C1118 H1109 0.929 . S
C1118 C1110 1.378 1_455 S
C1118 C1113 1.350 . S
C1119 H1106 0.929 . S
C1119 C1111 1.433 . S
C1119 N1121 1.384 1_655 S
N1120 C1116 1.427 . S
N1120 C1117 1.384 . S
N1121 C1113 1.427 . S
N1121 C1119 1.384 1_455 S
H1122 C1128 0.930 . S
H1123 C1132 0.930 . S
H1124 C1137 0.929 . S
H1125 C1135 0.929 . S
H1126 C1130 0.929 . S
H1127 C1136 0.929 . S
C1128 H1122 0.930 . S
C1128 C1129 1.367 . S
C1128 C1136 1.378 . S
C1129 C1128 1.367 . S
C1129 C1137 1.433 . S
C1130 H1126 0.929 . S
C1130 C1132 1.378 . S
C1130 C1134 1.350 . S
C1131 C1134 1.463 . S
C1131 C1136 1.350 . S
C1131 N1139 1.427 . S
C1132 H1123 0.930 . S
C1132 C1130 1.378 . S
C1132 C1133 1.367 . S
C1133 C1132 1.367 . S
C1133 C1135 1.433 . S
C1134 C1130 1.350 . S
C1134 C1131 1.463 . S
C1134 N1138 1.427 . S
C1135 H1125 0.929 . S
C1135 C1133 1.433 . S
C1135 N1138 1.384 . S
C1136 H1127 0.929 . S
C1136 C1128 1.378 . S
C1136 C1131 1.350 . S
C1137 H1124 0.929 . S
C1137 C1129 1.433 . S
C1137 N1139 1.384 . S
N1138 C1134 1.427 . S
N1138 C1135 1.384 . S
N1139 C1131 1.427 . S
N1139 C1137 1.384 . S
H1140 C1146 0.930 . S
H1141 C1150 0.930 . S
H1142 C1155 0.929 . S
H1143 C1153 0.929 . S
H1144 C1148 0.929 . S
H1145 C1154 0.929 . S
C1146 H1140 0.930 . S
C1146 C1147 1.367 . S
C1146 C1154 1.378 . S
C1147 C1146 1.367 . S
C1147 C1155 1.433 . S
C1148 H1144 0.929 . S
C1148 C1150 1.378 . S
C1148 C1152 1.350 . S
C1149 C1152 1.463 . S
C1149 C1154 1.350 . S
C1149 N1157 1.427 . S
C1150 H1141 0.930 . S
C1150 C1148 1.378 . S
C1150 C1151 1.367 . S
C1151 C1150 1.367 . S
C1151 C1153 1.433 . S
C1152 C1148 1.350 . S
C1152 C1149 1.463 . S
C1152 N1156 1.427 . S
C1153 H1143 0.929 . S
C1153 C1151 1.433 . S
C1153 N1156 1.384 . S
C1154 H1145 0.929 . S
C1154 C1146 1.378 . S
C1154 C1149 1.350 . S
C1155 H1142 0.929 . S
C1155 C1147 1.433 . S
C1155 N1157 1.384 . S
N1156 C1152 1.427 . S
N1156 C1153 1.384 . S
N1157 C1149 1.427 . S
N1157 C1155 1.384 . S
H1158 C1164 0.930 . S
H1159 C1168 0.930 . S
H1160 C1173 0.929 . S
H1161 C1171 0.929 . S
H1162 C1166 0.929 . S
H1163 C1172 0.929 . S
C1164 H1158 0.930 . S
C1164 C1165 1.367 . S
C1164 C1172 1.378 1_565 S
C1165 C1164 1.367 . S
C1165 C1173 1.433 . S
C1166 H1162 0.929 . S
C1166 C1168 1.378 . S
C1166 C1170 1.350 . S
C1167 C1170 1.463 . S
C1167 C1172 1.350 . S
C1167 N1175 1.427 . S
C1168 H1159 0.930 . S
C1168 C1166 1.378 . S
C1168 C1169 1.367 . S
C1169 C1168 1.367 . S
C1169 C1171 1.433 . S
C1170 C1166 1.350 . S
C1170 C1167 1.463 . S
C1170 N1174 1.427 . S
C1171 H1161 0.929 . S
C1171 C1169 1.433 . S
C1171 N1174 1.384 . S
C1172 H1163 0.929 . S
C1172 C1164 1.378 1_545 S
C1172 C1167 1.350 . S
C1173 H1160 0.929 . S
C1173 C1165 1.433 . S
C1173 N1175 1.384 1_565 S
N1174 C1170 1.427 . S
N1174 C1171 1.384 . S
N1175 C1167 1.427 . S
N1175 C1173 1.384 1_545 S
H1176 C1182 0.930 . S
H1177 C1186 0.930 . S
H1178 C1191 0.929 . S
H1179 C1189 0.929 . S
H1180 C1184 0.929 . S
H1181 C1190 0.929 . S
C1182 H1176 0.930 . S
C1182 C1183 1.367 . S
C1182 C1190 1.378 . S
C1183 C1182 1.367 . S
C1183 C1191 1.433 . S
C1184 H1180 0.929 . S
C1184 C1186 1.378 . S
C1184 C1188 1.350 . S
C1185 C1188 1.463 . S
C1185 C1190 1.350 . S
C1185 N1193 1.427 . S
C1186 H1177 0.930 . S
C1186 C1184 1.378 . S
C1186 C1187 1.367 . S
C1187 C1186 1.367 . S
C1187 C1189 1.433 . S
C1188 C1184 1.350 . S
C1188 C1185 1.463 . S
C1188 N1192 1.427 . S
C1189 H1179 0.929 . S
C1189 C1187 1.433 . S
C1189 N1192 1.384 . S
C1190 H1181 0.929 . S
C1190 C1182 1.378 . S
C1190 C1185 1.350 . S
C1191 H1178 0.929 . S
C1191 C1183 1.433 . S
C1191 N1193 1.384 . S
N1192 C1188 1.427 . S
N1192 C1189 1.384 . S
N1193 C1185 1.427 . S
N1193 C1191 1.384 . S
H1194 C1200 0.930 . S
H1195 C1204 0.930 . S
H1196 C1209 0.929 . S
H1197 C1207 0.929 . S
H1198 C1202 0.929 . S
H1199 C1208 0.929 . S
C1200 H1194 0.930 . S
C1200 C1201 1.367 1_556 S
C1200 C1208 1.378 1_545 S
C1201 C1200 1.367 1_554 S
C1201 C1209 1.433 . S
C1202 H1198 0.929 . S
C1202 C1204 1.378 . S
C1202 C1206 1.350 . S
C1203 C1206 1.463 . S
C1203 C1208 1.350 1_554 S
C1203 N1211 1.427 1_565 S
C1204 H1195 0.930 . S
C1204 C1202 1.378 . S
C1204 C1205 1.367 . S
C1205 C1204 1.367 . S
C1205 C1207 1.433 1_554 S
C1206 C1202 1.350 . S
C1206 C1203 1.463 . S
C1206 N1210 1.427 1_554 S
C1207 H1197 0.929 . S
C1207 C1205 1.433 1_556 S
C1207 N1210 1.384 . S
C1208 H1199 0.929 . S
C1208 C1200 1.378 1_565 S
C1208 C1203 1.350 1_556 S
C1209 H1196 0.929 . S
C1209 C1201 1.433 . S
C1209 N1211 1.384 . S
N1210 C1206 1.427 1_556 S
N1210 C1207 1.384 . S
N1211 C1203 1.427 1_545 S
N1211 C1209 1.384 . S
H1212 C1218 0.930 . S
H1213 C1222 0.930 . S
H1214 C1227 0.929 . S
H1215 C1225 0.929 . S
H1216 C1220 0.929 . S
H1217 C1226 0.929 . S
C1218 H1212 0.930 . S
C1218 C1219 1.367 . S
C1218 C1226 1.378 . S
C1219 C1218 1.367 . S
C1219 C1227 1.433 . S
C1220 H1216 0.929 . S
C1220 C1222 1.378 . S
C1220 C1224 1.350 . S
C1221 C1224 1.463 . S
C1221 C1226 1.350 . S
C1221 N1229 1.427 . S
C1222 H1213 0.930 . S
C1222 C1220 1.378 . S
C1222 C1223 1.367 . S
C1223 C1222 1.367 . S
C1223 C1225 1.433 . S
C1224 C1220 1.350 . S
C1224 C1221 1.463 . S
C1224 N1228 1.427 . S
C1225 H1215 0.929 . S
C1225 C1223 1.433 . S
C1225 N1228 1.384 . S
C1226 H1217 0.929 . S
C1226 C1218 1.378 . S
C1226 C1221 1.350 . S
C1227 H1214 0.929 . S
C1227 C1219 1.433 . S
C1227 N1229 1.384 . S
N1228 C1224 1.427 . S
N1228 C1225 1.384 . S
N1229 C1221 1.427 . S
N1229 C1227 1.384 . S
H1230 C1236 0.930 . S
H1231 C1240 0.930 . S
H1232 C1245 0.929 . S
H1233 C1243 0.929 . S
H1234 C1238 0.929 . S
H1235 C1244 0.929 . S
C1236 H1230 0.930 . S
C1236 C1237 1.367 1_556 S
C1236 C1244 1.378 . S
C1237 C1236 1.367 1_554 S
C1237 C1245 1.433 . S
C1238 H1234 0.929 . S
C1238 C1240 1.378 . S
C1238 C1242 1.350 . S
C1239 C1242 1.463 . S
C1239 C1244 1.350 1_554 S
C1239 N1247 1.427 . S
C1240 H1231 0.930 . S
C1240 C1238 1.378 . S
C1240 C1241 1.367 1_554 S
C1241 C1240 1.367 1_556 S
C1241 C1243 1.433 . S
C1242 C1238 1.350 . S
C1242 C1239 1.463 . S
C1242 N1246 1.427 1_554 S
C1243 H1233 0.929 . S
C1243 C1241 1.433 . S
C1243 N1246 1.384 . S
C1244 H1235 0.929 . S
C1244 C1236 1.378 . S
C1244 C1239 1.350 1_556 S
C1245 H1232 0.929 . S
C1245 C1237 1.433 . S
C1245 N1247 1.384 . S
N1246 C1242 1.427 1_556 S
N1246 C1243 1.384 . S
N1247 C1239 1.427 . S
N1247 C1245 1.384 . S
H1248 C1254 0.930 . S
H1249 C1258 0.930 . S
H1250 C1263 0.929 . S
H1251 C1261 0.929 . S
H1252 C1256 0.929 . S
H1253 C1262 0.929 . S
C1254 H1248 0.930 . S
C1254 C1255 1.367 . S
C1254 C1262 1.378 . S
C1255 C1254 1.367 . S
C1255 C1263 1.433 . S
C1256 H1252 0.929 . S
C1256 C1258 1.378 . S
C1256 C1260 1.350 . S
C1257 C1260 1.463 . S
C1257 C1262 1.350 . S
C1257 N1265 1.427 . S
C1258 H1249 0.930 . S
C1258 C1256 1.378 . S
C1258 C1259 1.367 . S
C1259 C1258 1.367 . S
C1259 C1261 1.433 . S
C1260 C1256 1.350 . S
C1260 C1257 1.463 . S
C1260 N1264 1.427 . S
C1261 H1251 0.929 . S
C1261 C1259 1.433 . S
C1261 N1264 1.384 . S
C1262 H1253 0.929 . S
C1262 C1254 1.378 . S
C1262 C1257 1.350 . S
C1263 H1250 0.929 . S
C1263 C1255 1.433 . S
C1263 N1265 1.384 . S
N1264 C1260 1.427 . S
N1264 C1261 1.384 . S
N1265 C1257 1.427 . S
N1265 C1263 1.384 . S
H1266 C1272 0.930 . S
H1267 C1276 0.930 . S
H1268 C1281 0.929 . S
H1269 C1279 0.929 . S
H1270 C1274 0.929 . S
H1271 C1280 0.929 . S
C1272 H1266 0.930 . S
C1272 C1273 1.367 . S
C1272 C1280 1.378 . S
C1273 C1272 1.367 . S
C1273 C1281 1.433 . S
C1274 H1270 0.929 . S
C1274 C1276 1.378 . S
C1274 C1278 1.350 . S
C1275 C1278 1.463 . S
C1275 C1280 1.350 . S
C1275 N1283 1.427 . S
C1276 H1267 0.930 . S
C1276 C1274 1.378 . S
C1276 C1277 1.367 . S
C1277 C1276 1.367 . S
C1277 C1279 1.433 . S
C1278 C1274 1.350 . S
C1278 C1275 1.463 . S
C1278 N1282 1.427 . S
C1279 H1269 0.929 . S
C1279 C1277 1.433 . S
C1279 N1282 1.384 . S
C1280 H1271 0.929 . S
C1280 C1272 1.378 . S
C1280 C1275 1.350 . S
C1281 H1268 0.929 . S
C1281 C1273 1.433 . S
C1281 N1283 1.384 . S
N1282 C1278 1.427 . S
N1282 C1279 1.384 . S
N1283 C1275 1.427 . S
N1283 C1281 1.384 . S
C431 C416 1.076 . S
C427 C11 1.155 . S
C445 C19 1.380 . S
C449 C345 1.275 . S
C463 C37 1.177 . S
C467 C374 1.059 . S
C485 C387 1.186 . S
C481 C42 1.310 . S
C499 C25 1.171 1_455 S
C503 C408 0.998 . S
C521 C353 1.245 . S
C517 C28 1.304 . S
C539 C366 0.989 . S
C535 C51 1.208 . S
C557 C395 1.330 . S
C553 C5 1.364 . S
C571 C61 1.172 . S
C575 C397 1.014 . S
C593 C411 1.289 . S
C589 C81 1.358 . S
C611 C355 1.000 1_545 S
C607 C89 1.216 . S
C629 C369 1.263 . S
C625 C107 1.296 . S
C643 C56 1.127 . S
C647 C348 1.064 1_545 S
C661 C79 1.331 . S
C665 C376 1.241 . S
C679 C84 1.189 . S
C683 C390 1.055 . S
C701 C418 1.270 . S
C697 C109 1.383 . S
C719 C227 1.142 1_556 S
C715 C103 1.267 . S
C737 C208 1.032 1_554 S
C733 C117 1.187 . S
C755 C222 1.268 . S
C751 C137 1.323 . S
C773 C243 1.004 . S
C769 C140 1.101 . S
C787 C67 1.271 . S
C791 C229 1.164 . S
C805 C70 1.197 . S
C809 C180 1.069 . S
C823 C135 1.379 . S
C827 C240 1.280 . S
C841 C163 1.351 . S
C845 C206 1.308 . S
C863 C269 1.036 . S
C859 C39 1.159 . S
C881 C282 1.275 . S
C877 C47 1.370 . S
C895 C9 1.181 . S
C899 C311 1.029 . S
C913 C14 1.318 . S
C917 C324 1.201 . S
C935 C261 0.973 . S
C931 C53 1.167 . S
C953 C290 1.242 . S
C949 C0 1.309 . S
C967 C23 1.215 . S
C971 C303 0.999 . S
C989 C332 1.308 . S
C985 C33 1.365 . S
C1003 C159 1.190 . S
C1007 C334 1.007 . S
C1021 C123 1.346 . S
C1025 C264 1.285 . S
C1043 C292 1.039 . S
C1039 C131 1.242 . S
C1057 C149 1.289 . S
C1061 C306 1.258 . S
C1079 C285 1.049 . S
C1075 C154 1.131 . S
C1093 C121 1.309 . S
C1097 C313 1.231 . S
C1115 C327 1.091 . S
C1111 C126 1.197 . S
C1133 C271 1.262 . S
C1129 C151 1.379 . S
C1151 C187 1.060 . S
C1147 C145 1.287 . S
C1169 C250 1.031 . S
C1165 C75 1.211 . S
C1183 C95 1.322 . S
C1187 C177 1.191 . S
C1205 C201 1.032 1_554 S
C1201 C98 1.132 . S
C1223 C185 1.223 . S
C1219 C165 1.288 . S
C1237 C112 1.211 . S
C1241 C219 0.992 1_556 S
C1255 C93 1.367 . S
C1259 C198 1.257 . S
C1273 C65 1.318 . S
C1277 C248 1.311 . S
