# Generated by pormake.
# Topology tsx, (6,3)-cn, num edge types: 1
# Building blocks:
#     Node 0, Type 0, BuildingBlock: LEVNOQ01_clean_sbu_1, # of connection points: 6
#     Node 1, Type 0, BuildingBlock: LEVNOQ01_clean_sbu_1, # of connection points: 6
#     Node 2, Type 1, BuildingBlock: INOVEN_clean_linker_0, # of connection points: 3
#     Node 3, Type 1, BuildingBlock: INOVEN_clean_linker_0, # of connection points: 3
#     Node 4, Type 1, BuildingBlock: INOVEN_clean_linker_0, # of connection points: 3
#     Node 5, Type 1, BuildingBlock: INOVEN_clean_linker_0, # of connection points: 3
#     Edge 6, Type (0, 1), BuildingBlock: XUDNAN_clean_linker_2, # of connection points: 2
#     Edge 7, Type (0, 1), BuildingBlock: XUDNAN_clean_linker_2, # of connection points: 2
#     Edge 8, Type (0, 1), BuildingBlock: XUDNAN_clean_linker_2, # of connection points: 2
#     Edge 9, Type (0, 1), BuildingBlock: XUDNAN_clean_linker_2, # of connection points: 2
#     Edge 10, Type (0, 1), BuildingBlock: XUDNAN_clean_linker_2, # of connection points: 2
#     Edge 11, Type (0, 1), BuildingBlock: XUDNAN_clean_linker_2, # of connection points: 2
#     Edge 12, Type (0, 1), BuildingBlock: XUDNAN_clean_linker_2, # of connection points: 2
#     Edge 13, Type (0, 1), BuildingBlock: XUDNAN_clean_linker_2, # of connection points: 2
#     Edge 14, Type (0, 1), BuildingBlock: XUDNAN_clean_linker_2, # of connection points: 2
#     Edge 15, Type (0, 1), BuildingBlock: XUDNAN_clean_linker_2, # of connection points: 2
#     Edge 16, Type (0, 1), BuildingBlock: XUDNAN_clean_linker_2, # of connection points: 2
#     Edge 17, Type (0, 1), BuildingBlock: XUDNAN_clean_linker_2, # of connection points: 2
# Relax obj value: 0.092
# Max RMSD: 0.140
# Mean RMSD: 0.105
data_MOF--net-tsx--node1-LEVNOQ01_clean_sbu_1--node2-INOVEN_clean_linker_0--edge1-XUDNAN_clean_linker_2
_symmetry_space_group_name_H-M    P1
_symmetry_Int_Tables_number       1
_symmetry_cell_setting            triclinic
loop_
_symmetry_equiv_pos_as_xyz
'x, y, z'
_cell_length_a     18.91913
_cell_length_b     22.991539
_cell_length_c     34.334785
_cell_angle_alpha  97.733204
_cell_angle_beta   99.769334
_cell_angle_gamma 91.185455
loop_
_atom_site_label
_atom_site_type_symbol
_atom_site_fract_x
_atom_site_fract_y
_atom_site_fract_z
_atom_type_partial_charge
O0 O 0.12391 0.05566 0.09877 0.0
Mg1 Mg 0.18674 0.03295 0.05498 0.0
O2 O 0.04052 -0.00331 0.06018 0.0
Mg3 Mg 0.04416 0.01057 -0.00527 0.0
O4 O 0.1451 0.07187 0.0075 0.0
O5 O 0.25372 0.09689 0.04374 0.0
O6 O 0.04614 0.02003 0.92913 0.0
O7 O 0.98218 0.0988 0.00226 0.0
Mg8 Mg 0.88695 0.00226 0.9448 0.0
O9 O 0.94257 0.94936 0.98102 0.0
O10 O 0.93563 0.0044 0.89412 0.0
O11 O 0.86697 0.0836 0.97597 0.0
O12 O 0.82919 0.929 0.95026 0.0
C13 C 0.16915 0.9097 0.00804 0.0
C14 C 0.0696 0.0212 0.09474 0.0
C15 C 0.20275 0.10568 0.01534 0.0
C16 C 0.00235 0.01465 0.89623 0.0
C17 C 0.91857 0.1173 -0.00478 0.0
C18 C 0.88543 0.9148 0.97334 0.0
O19 O 0.20525 0.94354 0.03717 0.0
O20 O 0.11159 0.92577 -0.0124 0.0
O21 O 0.65 0.53868 0.60251 0.0
Mg22 Mg 0.70791 0.53841 0.55486 0.0
O23 O 0.54701 0.50509 0.56363 0.0
Mg24 Mg 0.55263 0.50973 0.49773 0.0
O25 O 0.64738 0.57754 0.51187 0.0
O26 O 0.75502 0.61428 0.54237 0.0
O27 O 0.56579 0.51133 0.43197 0.0
O28 O 0.48713 0.59744 0.50234 0.0
Mg29 Mg 0.42156 0.50128 0.45214 0.0
O30 O 0.45579 0.4352 0.48488 0.0
O31 O 0.45597 0.50931 0.3984 0.0
O32 O 0.3744 0.57274 0.47811 0.0
O33 O 0.35056 0.43399 0.44247 0.0
C34 C 0.68928 0.41661 0.50801 0.0
C35 C 0.58562 0.51864 0.59801 0.0
C36 C 0.69694 0.619 0.51744 0.0
C37 C 0.52283 0.51185 0.39937 0.0
C38 C 0.42155 0.61095 0.49588 0.0
C39 C 0.39376 0.40944 0.4679 0.0
O40 O 0.7334 0.45434 0.53026 0.0
O41 O 0.62452 0.42844 0.49525 0.0
H42 H 0.06733 0.96505 0.47921 0.0
H43 H 0.17216 0.91462 0.37939 0.0
H44 H 0.01402 0.04445 0.37216 0.0
N45 N 0.98686 0.04553 0.44602 0.0
N46 N 0.94705 0.07852 0.42698 0.0
C47 C 0.07497 0.96897 0.44922 0.0
C48 C 0.12484 0.93416 0.43191 0.0
C49 C 0.03456 0.00862 0.42757 0.0
C50 C 0.04382 0.01298 0.38835 0.0
C51 C 0.09191 0.97779 0.37026 0.0
C52 C 0.13336 0.94028 0.39279 0.0
H53 H 0.96168 -0.00808 0.5025 0.0
H54 H 0.90237 0.96627 0.61456 0.0
H55 H 0.08651 0.07667 0.61317 0.0
N56 N 0.07513 0.06712 0.53364 0.0
N57 N 0.12429 0.10298 0.55176 0.0
C58 C 0.97187 0.00026 0.53465 0.0
C59 C 0.92403 0.97539 0.55577 0.0
C60 C 0.03035 0.0378 0.55504 0.0
C61 C 0.0417 0.04837 0.59681 0.0
C62 C 0.99602 0.0225 0.61801 0.0
C63 C 0.93741 0.9862 0.59765 0.0
H64 H 0.60711 0.48562 0.98447 0.0
H65 H 0.6485 0.39585 0.87248 0.0
H66 H 0.48426 0.521 0.87315 0.0
N67 N 0.50218 0.55159 0.95202 0.0
N68 N 0.46966 0.58993 0.93437 0.0
C69 C 0.59422 0.47687 0.95222 0.0
C70 C 0.63411 0.43645 0.93103 0.0
C71 C 0.54048 0.50839 0.93136 0.0
C72 C 0.52521 0.49707 0.88964 0.0
C73 C 0.56335 0.45632 0.8686 0.0
C74 C 0.61739 0.42592 0.88917 0.0
H75 H 0.47949 0.49582 0.00476 0.0
H76 H 0.43615 0.43876 0.1126 0.0
H77 H 0.5846 0.58405 0.1189 0.0
N78 N 0.57623 0.581 0.03963 0.0
N79 N 0.61558 0.62315 0.05874 0.0
C80 C 0.487 0.50152 0.0368 0.0
C81 C 0.44835 0.46416 0.05554 0.0
C82 C 0.53487 0.54592 0.05921 0.0
C83 C 0.54578 0.5516 0.10097 0.0
C84 C 0.51098 0.51248 0.11983 0.0
C85 C 0.46164 0.46951 0.09739 0.0
H86 H 0.16347 0.21114 0.04337 0.0
H87 H 0.26483 0.11862 0.95117 0.0
H88 H 0.31866 0.21247 0.93994 0.0
H89 H 0.14775 0.36229 0.00375 0.0
H90 H 0.17137 0.39892 0.05432 0.0
H91 H 0.11928 0.33028 0.04397 0.0
H92 H 0.21303 0.28734 0.09517 0.0
H93 H 0.26659 0.35455 0.10484 0.0
H94 H 0.30564 0.28661 0.08864 0.0
H95 H 0.3889 0.30658 0.95315 0.0
H96 H 0.46454 0.3933 0.9867 0.0
H97 H 0.31957 0.42681 0.07168 0.0
C98 C 0.19272 0.21173 0.01887 0.0
C99 C 0.20828 0.15878 -0.00297 0.0
C100 C 0.25046 0.15947 0.96697 0.0
C101 C 0.28147 0.21256 0.96066 0.0
C102 C 0.2698 0.26405 0.98492 0.0
C103 C 0.22522 0.26419 0.01306 0.0
C104 C 0.23328 0.32165 0.04104 0.0
C105 C 0.16379 0.3553 0.03541 0.0
C106 C 0.25601 0.31188 0.08496 0.0
C107 C 0.29291 0.35217 0.02616 0.0
C108 C 0.31207 0.31898 -0.00681 0.0
C109 C 0.37271 0.33405 0.97798 0.0
C110 C 0.4155 0.3835 -0.00269 0.0
C111 C 0.39778 0.4171 0.03176 0.0
C112 C 0.33437 0.40207 0.04536 0.0
H113 H 0.23867 0.87332 0.94641 0.0
H114 H 0.17057 0.81897 0.05068 0.0
H115 H 0.241 0.72968 0.04347 0.0
H116 H 0.24307 0.72672 0.88911 0.0
H117 H 0.32327 0.74526 0.87078 0.0
H118 H 0.26195 0.80144 0.88211 0.0
H119 H 0.36634 0.86261 0.92974 0.0
H120 H 0.42761 0.80613 0.91904 0.0
H121 H 0.41756 0.83013 0.96989 0.0
H122 H 0.3245 0.64945 0.02706 0.0
H123 H 0.40913 0.58131 0.00019 0.0
H124 H 0.42653 0.68895 0.90791 0.0
C125 C 0.23658 0.84132 0.96669 0.0
C126 C 0.19736 0.85146 -0.00177 0.0
C127 C 0.19861 0.81059 0.02561 0.0
C128 C 0.23894 0.7602 0.02195 0.0
C129 C 0.27849 0.75194 -0.00896 0.0
C130 C 0.27734 0.79114 0.96371 0.0
C131 C 0.32784 0.77371 0.93467 0.0
C132 C 0.28655 0.76101 0.89161 0.0
C133 C 0.3884 0.82097 0.93859 0.0
C134 C 0.35667 0.71822 0.94954 0.0
C135 C 0.32807 0.70671 0.9823 0.0
C136 C 0.34737 0.65819 0.00149 0.0
C137 C 0.39628 0.62 0.98637 0.0
C138 C 0.42547 0.6307 0.95253 0.0
C139 C 0.40533 0.6804 0.93406 0.0
H140 H 0.87203 0.89159 0.04786 0.0
H141 H 0.88383 0.81141 0.92778 0.0
H142 H 0.82378 0.72098 0.93929 0.0
H143 H 0.88876 0.73958 0.09181 0.0
H144 H 0.83012 0.76449 0.12624 0.0
H145 H 0.89226 0.81591 0.11303 0.0
H146 H 0.78636 0.88043 0.09231 0.0
H147 H 0.72303 0.82844 0.10334 0.0
H148 H 0.71224 0.85009 0.05419 0.0
H149 H 0.73265 0.65521 0.95529 0.0
H150 H 0.64273 0.60159 0.98275 0.0
H151 H 0.69403 0.71853 0.09461 0.0
C152 C 0.86646 0.85332 0.02523 0.0
C153 C 0.8831 0.85753 -0.01287 0.0
C154 C 0.8725 0.80804 0.95732 0.0
C155 C 0.83792 0.75676 0.96351 0.0
C156 C 0.81626 0.75536 0.00011 0.0
C157 C 0.83323 0.80094 0.03137 0.0
C158 C 0.79851 0.78929 0.06654 0.0
C159 C 0.85583 0.77657 0.10147 0.0
C160 C 0.75227 0.84009 0.0798 0.0
C161 C 0.75309 0.73415 0.04818 0.0
C162 C 0.76513 0.71492 0.0101 0.0
C163 C 0.72487 0.66819 0.98569 0.0
C164 C 0.67323 0.63846 0.00132 0.0
C165 C 0.66241 0.65585 0.04093 0.0
C166 C 0.70233 0.70444 0.06439 0.0
H167 H 0.80653 0.16823 0.02435 0.0
H168 H 0.99648 0.20684 0.97613 0.0
H169 H 0.95163 0.30445 0.96463 0.0
H170 H 0.68608 0.21993 0.95946 0.0
H171 H 0.6291 0.25346 -0.00756 0.0
H172 H 0.68369 0.19434 0.00665 0.0
H173 H 0.74363 0.25897 0.07207 0.0
H174 H 0.68781 0.31834 0.05859 0.0
H175 H 0.78405 0.32987 0.0699 0.0
H176 H 0.87246 0.38456 0.94297 0.0
H177 H 0.77217 0.4456 0.91967 0.0
H178 H 0.63511 0.35856 0.98504 0.0
C179 C 0.84031 0.1987 0.01345 0.0
C180 C 0.90533 0.18062 0.00172 0.0
C181 C 0.94745 0.22056 0.98631 0.0
C182 C 0.92204 0.27596 0.97942 0.0
C183 C 0.85552 0.29129 -0.01071 0.0
C184 C 0.81634 0.25453 0.00723 0.0
C185 C 0.74352 0.2786 0.01142 0.0
C186 C 0.68204 0.23393 -0.00874 0.0
C187 C 0.73951 0.29757 0.05562 0.0
C188 C 0.74478 0.33154 -0.01042 0.0
C189 C 0.81055 0.33889 0.97784 0.0
C190 C 0.82182 0.3805 0.95325 0.0
C191 C 0.76451 0.41483 0.94004 0.0
C192 C 0.69657 0.40744 0.95128 0.0
C193 C 0.68721 0.36625 0.97714 0.0
H194 H 0.77867 0.66307 0.47031 0.0
H195 H 0.60039 0.70084 0.53185 0.0
H196 H 0.6226 0.80689 0.53178 0.0
H197 H 0.89403 0.75289 0.5184 0.0
H198 H 0.93563 0.78064 0.48064 0.0
H199 H 0.8891 0.71034 0.46973 0.0
H200 H 0.80701 0.74274 0.40902 0.0
H201 H 0.85467 0.81345 0.41913 0.0
H202 H 0.75848 0.80899 0.41525 0.0
H203 H 0.68956 0.90268 0.54723 0.0
H204 H 0.78617 0.97937 0.57002 0.0
H205 H 0.92097 0.88259 0.4965 0.0
C206 C 0.74121 0.69379 0.4809 0.0
C207 C 0.68723 0.67425 0.50042 0.0
C208 C 0.64066 0.71505 0.51574 0.0
C209 C 0.6533 0.77551 0.51598 0.0
C210 C 0.71125 0.79407 0.49959 0.0
C211 C 0.75261 0.75419 0.48059 0.0
C212 C 0.81815 0.78484 0.47099 0.0
C213 C 0.88826 0.75545 0.48592 0.0
C214 C 0.80903 0.78767 0.42593 0.0
C215 C 0.81404 0.84554 0.4937 0.0
C216 C 0.75008 0.85092 0.50817 0.0
C217 C 0.73849 0.89969 0.53483 0.0
C218 C 0.79405 0.94281 0.54798 0.0
C219 C 0.86103 0.93675 0.53498 0.0
C220 C 0.86974 0.88881 0.50616 0.0
H221 H 0.69601 0.34828 0.4367 0.0
H222 H 0.73941 0.35215 0.56511 0.0
H223 H 0.79768 0.25748 0.55719 0.0
H224 H 0.67093 0.18258 0.41022 0.0
H225 H 0.71639 0.18229 0.36811 0.0
H226 H 0.66559 0.24448 0.38288 0.0
H227 H 0.77797 0.31333 0.38848 0.0
H228 H 0.82926 0.25151 0.37419 0.0
H229 H 0.86 0.29923 0.42038 0.0
H230 H 0.86637 0.17341 0.53738 0.0
H231 H 0.94006 0.10101 0.50596 0.0
H232 H 0.8551 0.14776 0.38978 0.0
C233 C 0.71553 0.32773 0.46283 0.0
C234 C 0.71262 0.35637 0.50148 0.0
C235 C 0.74081 0.33003 0.53533 0.0
C236 C 0.7737 0.27635 0.53111 0.0
C237 C 0.77806 0.24979 0.49279 0.0
C238 C 0.74949 0.27409 0.45911 0.0
C239 C 0.76892 0.23938 0.42187 0.0
C240 C 0.70142 0.21046 0.39413 0.0
C241 C 0.81159 0.27819 0.39997 0.0
C242 C 0.81538 0.19374 0.44027 0.0
C243 C 0.81869 0.20015 0.48113 0.0
C244 C 0.86258 0.16667 0.50527 0.0
C245 C 0.90425 0.12535 0.48718 0.0
C246 C 0.90168 0.11767 0.44539 0.0
C247 C 0.85644 0.15211 0.4217 0.0
H248 H 0.39445 0.36545 0.53968 0.0
H249 H 0.33611 0.3226 0.41108 0.0
H250 H 0.26977 0.23331 0.41896 0.0
H251 H 0.40732 0.20517 0.55898 0.0
H252 H 0.37027 0.22009 0.60413 0.0
H253 H 0.42416 0.27606 0.58929 0.0
H254 H 0.32099 0.34747 0.59226 0.0
H255 H 0.26648 0.29187 0.60671 0.0
H256 H 0.2333 0.32611 0.56335 0.0
H257 H 0.19431 0.15919 0.43908 0.0
H258 H 0.12085 0.0978 0.47173 0.0
H259 H 0.22671 0.18304 0.58764 0.0
C260 C 0.37035 0.33572 0.51336 0.0
C261 C 0.37111 0.35036 0.47469 0.0
C262 C 0.33671 0.31172 0.44088 0.0
C263 C 0.2988 0.2609 0.44503 0.0
C264 C 0.2962 0.24865 0.48327 0.0
C265 C 0.33196 0.28404 0.51701 0.0
C266 C 0.31545 0.26203 0.5545 0.0
C267 C 0.38334 0.2395 0.57812 0.0
C268 C 0.28204 0.30973 0.58071 0.0
C269 C 0.26158 0.21159 0.53623 0.0
C270 C 0.25242 0.20424 0.4951 0.0
C271 C 0.20225 0.16338 0.47131 0.0
C272 C 0.16044 0.12869 0.49004 0.0
C273 C 0.16885 0.13524 0.53211 0.0
C274 C 0.22039 0.17685 0.55539 0.0
H275 H 0.37358 0.66388 0.43351 0.0
H276 H 0.41655 0.69223 0.56253 0.0
H277 H 0.34794 0.7837 0.56219 0.0
H278 H 0.36591 0.82181 0.41621 0.0
H279 H 0.29378 0.80276 0.37453 0.0
H280 H 0.36153 0.7508 0.38615 0.0
H281 H 0.26106 0.67411 0.38943 0.0
H282 H 0.19329 0.72617 0.37944 0.0
H283 H 0.19964 0.69117 0.42378 0.0
H284 H 0.26411 0.8705 0.54482 0.0
H285 H 0.17807 0.93796 0.51351 0.0
H286 H 0.17146 0.82984 0.39885 0.0
C287 C 0.37096 0.69076 0.46167 0.0
C288 C 0.40096 0.67226 0.49799 0.0
C289 C 0.39512 0.70701 0.53442 0.0
C290 C 0.35587 0.7586 0.53439 0.0
C291 C 0.32287 0.77381 0.49769 0.0
C292 C 0.3308 0.74062 0.46204 0.0
C293 C 0.28337 0.76 0.42676 0.0
C294 C 0.32886 0.78534 0.39931 0.0
C295 C 0.23126 0.70989 0.40355 0.0
C296 C 0.2447 0.80757 0.44796 0.0
C297 C 0.26977 0.81733 0.48854 0.0
C298 C 0.24423 0.86284 0.51301 0.0
C299 C 0.19444 0.9005 0.49503 0.0
C300 C 0.16895 0.89088 0.4532 0.0
C301 C 0.19192 0.84135 0.43039 0.0
H302 H 0.96845 0.02739 0.14411 0.0
H303 H 0.16609 0.94799 0.12165 0.0
H304 H 0.18799 0.92033 0.18915 0.0
H305 H 0.02162 0.09071 0.23617 0.0
H306 H 0.94562 0.07413 0.25875 0.0
H307 H 0.9337 0.07631 0.20591 0.0
H308 H 0.8788 0.96989 0.19076 0.0
H309 H 0.88741 0.96806 0.2437 0.0
H310 H 0.92655 0.91217 0.21302 0.0
H311 H 0.20941 0.93531 0.26144 0.0
H312 H 0.20925 0.95462 0.33294 0.0
H313 H 0.98581 0.00232 0.30888 0.0
C314 C 0.01398 0.00141 0.15296 0.0
C315 C 0.0661 -0.01001 0.12849 0.0
C316 C 0.12601 0.95694 0.14056 0.0
C317 C 0.13894 0.94117 0.17871 0.0
C318 C 0.08982 0.95696 0.20357 0.0
C319 C 0.02648 0.98331 0.19081 0.0
C320 C 0.98537 -0.00227 0.22488 0.0
C321 C 0.97078 0.06363 0.23181 0.0
C322 C 0.91539 0.95968 0.21766 0.0
C323 C 0.03882 0.98036 0.25899 0.0
C324 C 0.09884 0.95766 0.2459 0.0
C325 C 0.16076 0.94867 0.2721 0.0
C326 C 0.1598 0.95961 0.31289 0.0
C327 C 0.0961 0.97657 0.32726 0.0
C328 C 0.03527 -0.01178 0.29959 0.0
H329 H 0.02976 0.93658 0.83483 0.0
H330 H 0.02405 0.12214 0.87717 0.0
H331 H 0.03813 0.14572 0.81066 0.0
H332 H 0.16038 0.95688 0.76156 0.0
H333 H 0.11525 0.89667 0.72653 0.0
H334 H 0.12194 0.89536 0.77943 0.0
H335 H 0.98368 0.88012 0.76964 0.0
H336 H 0.97623 0.88269 0.71708 0.0
H337 H 0.92735 0.93278 0.74652 0.0
H338 H 0.02896 0.14782 0.7383 0.0
H339 H 0.00588 0.12863 0.66449 0.0
H340 H 0.01823 0.94159 0.669 0.0
C341 C 0.03486 0.98208 0.83026 0.0
C342 C 0.02726 0.02786 0.86055 0.0
C343 C 0.03152 0.08699 0.85402 0.0
C344 C 0.03947 0.10064 0.81651 0.0
C345 C 0.04433 0.05447 0.78649 0.0
C346 C 0.04393 -0.00364 0.79312 0.0
C347 C 0.04284 0.95494 0.75485 0.0
C348 C 0.11435 0.92415 0.75565 0.0
C349 C 0.97867 0.91006 0.74657 0.0
C350 C 0.03519 -0.00156 0.72531 0.0
C351 C 0.03855 0.05571 0.74425 0.0
C352 C 0.0281 0.10334 0.72311 0.0
C353 C 0.01453 0.09212 0.68142 0.0
C354 C 0.01031 0.03377 0.6617 0.0
C355 C 0.02114 0.98649 0.68379 0.0
H356 H 0.60465 0.58294 0.67135 0.0
H357 H 0.51105 0.41861 0.60363 0.0
H358 H 0.48858 0.38423 0.66596 0.0
H359 H 0.69589 0.52868 0.75224 0.0
H360 H 0.678 0.58709 0.78939 0.0
H361 H 0.67889 0.60114 0.73922 0.0
H362 H 0.54978 0.63885 0.73429 0.0
H363 H 0.54879 0.62571 0.78478 0.0
H364 H 0.47911 0.59287 0.74494 0.0
H365 H 0.49479 0.36301 0.7374 0.0
H366 H 0.5126 0.36302 0.81098 0.0
H367 H 0.59433 0.54373 0.82939 0.0
C368 C 0.57753 0.54047 0.66965 0.0
C369 C 0.55913 0.50342 0.63312 0.0
C370 C 0.5244 0.44782 0.6316 0.0
C371 C 0.51192 0.42785 0.66677 0.0
C372 C 0.53296 0.46482 0.70274 0.0
C373 C 0.56319 0.52061 0.70418 0.0
C374 C 0.58278 0.55138 0.74641 0.0
C375 C 0.66368 0.568 0.75743 0.0
C376 C 0.53739 0.60539 0.75298 0.0
C377 C 0.56215 0.50334 0.76867 0.0
C378 C 0.53347 0.45359 0.74322 0.0
C379 C 0.51561 0.40217 0.75759 0.0
C380 C 0.52634 0.40229 0.79913 0.0
C381 C 0.55404 0.45359 0.82515 0.0
C382 C 0.57208 0.50437 0.80973 0.0
H383 H 0.47944 0.58505 0.34629 0.0
H384 H 0.62327 0.44467 0.36903 0.0
H385 H 0.64899 0.4385 0.30016 0.0
H386 H 0.39848 0.53011 0.25476 0.0
H387 H 0.39228 0.59755 0.23324 0.0
H388 H 0.39728 0.59954 0.28608 0.0
H389 H 0.50925 0.67102 0.29981 0.0
H390 H 0.50363 0.67036 0.24679 0.0
H391 H 0.58574 0.65177 0.2766 0.0
H392 H 0.63853 0.43428 0.2266 0.0
H393 H 0.60207 0.43843 0.1543 0.0
H394 H 0.46911 0.58471 0.18034 0.0
C395 C 0.51828 0.55453 0.33701 0.0
C396 C 0.54976 0.51548 0.36236 0.0
C397 C 0.59966 0.4754 0.34978 0.0
C398 C 0.61442 0.47167 0.31088 0.0
C399 C 0.58018 0.50948 0.28587 0.0
C400 C 0.53452 0.55119 0.29877 0.0
C401 C 0.49958 0.58306 0.26531 0.0
C402 C 0.41706 0.57713 0.25952 0.0
C403 C 0.52616 0.6479 0.27255 0.0
C404 C 0.52804 0.5495 0.2308 0.0
C405 C 0.57552 0.50797 0.24338 0.0
C406 C 0.60313 0.46762 0.21649 0.0
C407 C 0.58174 0.46983 0.17571 0.0
C408 C 0.53332 0.51189 0.16259 0.0
C409 C 0.5069 0.55272 0.19022 0.0
loop_
_geom_bond_atom_site_label_1
_geom_bond_atom_site_label_2
_geom_bond_distance
_geom_bond_site_symmetry_2
_ccdc_geom_bond_type
O0 Mg1 1.990 . S
O0 C14 1.253 . S
Mg1 O0 1.990 . S
Mg1 O4 2.180 . S
Mg1 O5 2.117 . S
Mg1 O19 2.030 1_545 S
O2 Mg3 2.072 . S
O2 C14 1.260 . S
Mg3 O2 2.072 . S
Mg3 O4 2.099 . S
Mg3 O6 2.079 1_554 S
Mg3 O7 2.072 . S
Mg3 O9 2.099 1_444 S
Mg3 O20 2.079 1_544 S
O4 Mg1 2.180 . S
O4 Mg3 2.099 . S
O4 C15 1.279 . S
O5 Mg1 2.117 . S
O5 C15 1.250 . S
O6 Mg3 2.079 1_556 S
O6 C16 1.264 . S
O7 Mg3 2.072 . S
O7 C17 1.260 1_454 S
Mg8 O9 2.180 . S
Mg8 O10 2.030 1_565 S
Mg8 O11 1.990 1_565 S
Mg8 O12 2.117 . S
O9 Mg3 2.099 1_666 S
O9 Mg8 2.180 . S
O9 C18 1.279 . S
O10 Mg8 2.030 1_545 S
O10 C16 1.248 1_655 S
O11 Mg8 1.990 1_545 S
O11 C17 1.253 . S
O12 Mg8 2.117 . S
O12 C18 1.250 . S
C13 O19 1.248 . S
C13 O20 1.264 1_554 S
C14 O0 1.253 . S
C14 O2 1.260 . S
C15 O4 1.279 . S
C15 O5 1.250 . S
C16 O6 1.264 . S
C16 O10 1.248 1_455 S
C17 O7 1.260 1_656 S
C17 O11 1.253 . S
C18 O9 1.279 . S
C18 O12 1.250 . S
O19 Mg1 2.030 1_565 S
O19 C13 1.248 . S
O20 Mg3 2.079 1_566 S
O20 C13 1.264 1_556 S
O21 Mg22 1.990 . S
O21 C35 1.253 . S
Mg22 O21 1.990 . S
Mg22 O25 2.180 . S
Mg22 O26 2.117 . S
Mg22 O40 2.030 . S
O23 Mg24 2.072 . S
O23 C35 1.260 . S
Mg24 O23 2.072 . S
Mg24 O25 2.099 . S
Mg24 O27 2.079 . S
Mg24 O28 2.072 . S
Mg24 O30 2.099 . S
Mg24 O41 2.079 . S
O25 Mg22 2.180 . S
O25 Mg24 2.099 . S
O25 C36 1.279 . S
O26 Mg22 2.117 . S
O26 C36 1.250 . S
O27 Mg24 2.079 . S
O27 C37 1.264 . S
O28 Mg24 2.072 . S
O28 C38 1.260 . S
Mg29 O30 2.180 . S
Mg29 O31 2.030 . S
Mg29 O32 1.990 . S
Mg29 O33 2.117 . S
O30 Mg24 2.099 . S
O30 Mg29 2.180 . S
O30 C39 1.279 . S
O31 Mg29 2.030 . S
O31 C37 1.248 . S
O32 Mg29 1.990 . S
O32 C38 1.253 . S
O33 Mg29 2.117 . S
O33 C39 1.250 . S
C34 O40 1.248 . S
C34 O41 1.264 . S
C35 O21 1.253 . S
C35 O23 1.260 . S
C36 O25 1.279 . S
C36 O26 1.250 . S
C37 O27 1.264 . S
C37 O31 1.248 . S
C38 O28 1.260 . S
C38 O32 1.253 . S
C39 O30 1.279 . S
C39 O33 1.250 . S
O40 Mg22 2.030 . S
O40 C34 1.248 . S
O41 Mg24 2.079 . S
O41 C34 1.264 . S
H42 C47 0.929 . S
H43 C52 0.931 . S
H44 C50 0.930 . S
N45 N46 1.234 1_455 S
N45 C49 1.453 . S
N46 N45 1.234 1_655 S
C47 H42 0.929 . S
C47 C48 1.373 . S
C47 C49 1.368 1_565 S
C48 C47 1.373 . S
C48 C52 1.397 . S
C49 N45 1.453 . S
C49 C47 1.368 1_545 S
C49 C50 1.373 . S
C50 H44 0.930 . S
C50 C49 1.373 . S
C50 C51 1.371 1_545 S
C51 C50 1.371 1_565 S
C51 C52 1.383 . S
C52 H43 0.931 . S
C52 C48 1.397 . S
C52 C51 1.383 . S
H53 C58 0.929 . S
H54 C63 0.931 1_565 S
H55 C61 0.930 . S
N56 N57 1.234 . S
N56 C60 1.453 . S
N57 N56 1.234 . S
C58 H53 0.929 . S
C58 C59 1.373 1_545 S
C58 C60 1.368 1_655 S
C59 C58 1.373 1_565 S
C59 C63 1.397 1_565 S
C60 N56 1.453 . S
C60 C58 1.368 1_455 S
C60 C61 1.373 . S
C61 H55 0.930 . S
C61 C60 1.373 . S
C61 C62 1.371 1_455 S
C62 C61 1.371 1_655 S
C62 C63 1.383 . S
C63 H54 0.931 1_545 S
C63 C59 1.397 1_545 S
C63 C62 1.383 . S
H64 C69 0.929 1_554 S
H65 C74 0.931 . S
H66 C72 0.930 . S
N67 N68 1.234 . S
N67 C71 1.453 . S
N68 N67 1.234 . S
C69 H64 0.929 1_556 S
C69 C70 1.373 . S
C69 C71 1.368 . S
C70 C69 1.373 . S
C70 C74 1.397 . S
C71 N67 1.453 . S
C71 C69 1.368 . S
C71 C72 1.373 . S
C72 H66 0.930 . S
C72 C71 1.373 . S
C72 C73 1.371 . S
C73 C72 1.371 . S
C73 C74 1.383 . S
C74 H65 0.931 . S
C74 C70 1.397 . S
C74 C73 1.383 . S
H75 C80 0.929 . S
H76 C85 0.931 . S
H77 C83 0.930 . S
N78 N79 1.234 . S
N78 C82 1.453 . S
N79 N78 1.234 . S
C80 H75 0.929 . S
C80 C81 1.373 . S
C80 C82 1.368 . S
C81 C80 1.373 . S
C81 C85 1.397 . S
C82 N78 1.453 . S
C82 C80 1.368 . S
C82 C83 1.373 . S
C83 H77 0.930 . S
C83 C82 1.373 . S
C83 C84 1.371 . S
C84 C83 1.371 . S
C84 C85 1.383 . S
C85 H76 0.931 . S
C85 C81 1.397 . S
C85 C84 1.383 . S
H86 C98 0.930 . S
H87 C100 0.930 . S
H88 C101 0.930 . S
H89 C105 0.959 . S
H90 C105 0.959 . S
H91 C105 0.961 . S
H92 C106 0.960 . S
H93 C106 0.961 . S
H94 C106 0.959 . S
H95 C109 0.929 . S
H96 C110 0.931 1_556 S
H97 C112 0.930 . S
C98 H86 0.930 . S
C98 C99 1.399 . S
C98 C103 1.399 . S
C99 C98 1.399 . S
C99 C100 1.376 1_554 S
C100 H87 0.930 . S
C100 C99 1.376 1_556 S
C100 C101 1.388 . S
C101 H88 0.930 . S
C101 C100 1.388 . S
C101 C102 1.390 1_556 S
C102 C101 1.390 1_554 S
C102 C103 1.394 . S
C102 C108 1.465 . S
C103 C98 1.399 . S
C103 C102 1.394 . S
C103 C104 1.516 . S
C104 C103 1.516 . S
C104 C105 1.502 . S
C104 C106 1.561 . S
C104 C107 1.526 . S
C105 H89 0.959 . S
C105 H90 0.959 . S
C105 H91 0.961 . S
C105 C104 1.502 . S
C106 H92 0.960 . S
C106 H93 0.961 . S
C106 H94 0.959 . S
C106 C104 1.561 . S
C107 C104 1.526 . S
C107 C108 1.396 . S
C107 C112 1.390 . S
C108 C102 1.465 . S
C108 C107 1.396 . S
C108 C109 1.399 1_554 S
C109 H95 0.929 . S
C109 C108 1.399 1_556 S
C109 C110 1.385 1_556 S
C110 H96 0.931 1_554 S
C110 C109 1.385 1_554 S
C110 C111 1.389 . S
C111 C110 1.389 . S
C111 C112 1.387 . S
C112 H97 0.930 . S
C112 C107 1.390 . S
C112 C111 1.387 . S
H113 C125 0.930 . S
H114 C127 0.930 . S
H115 C128 0.930 . S
H116 C132 0.959 . S
H117 C132 0.959 . S
H118 C132 0.961 . S
H119 C133 0.960 . S
H120 C133 0.961 . S
H121 C133 0.959 . S
H122 C136 0.929 . S
H123 C137 0.931 . S
H124 C139 0.930 . S
C125 H113 0.930 . S
C125 C126 1.399 1_556 S
C125 C130 1.399 . S
C126 C125 1.399 1_554 S
C126 C127 1.376 . S
C127 H114 0.930 . S
C127 C126 1.376 . S
C127 C128 1.388 . S
C128 H115 0.930 . S
C128 C127 1.388 . S
C128 C129 1.390 . S
C129 C128 1.390 . S
C129 C130 1.394 1_554 S
C129 C135 1.465 . S
C130 C125 1.399 . S
C130 C129 1.394 1_556 S
C130 C131 1.516 . S
C131 C130 1.516 . S
C131 C132 1.502 . S
C131 C133 1.561 . S
C131 C134 1.526 . S
C132 H116 0.959 . S
C132 H117 0.959 . S
C132 H118 0.961 . S
C132 C131 1.502 . S
C133 H119 0.960 . S
C133 H120 0.961 . S
C133 H121 0.959 . S
C133 C131 1.561 . S
C134 C131 1.526 . S
C134 C135 1.396 1_556 S
C134 C139 1.390 . S
C135 C129 1.465 . S
C135 C134 1.396 1_554 S
C135 C136 1.399 . S
C136 H122 0.929 . S
C136 C135 1.399 . S
C136 C137 1.385 . S
C137 H123 0.931 . S
C137 C136 1.385 . S
C137 C138 1.389 1_554 S
C138 C137 1.389 1_556 S
C138 C139 1.387 . S
C139 H124 0.930 . S
C139 C134 1.390 . S
C139 C138 1.387 . S
H140 C152 0.930 . S
H141 C154 0.930 . S
H142 C155 0.930 . S
H143 C159 0.959 . S
H144 C159 0.959 . S
H145 C159 0.961 . S
H146 C160 0.960 . S
H147 C160 0.961 . S
H148 C160 0.959 . S
H149 C163 0.929 . S
H150 C164 0.931 . S
H151 C166 0.930 . S
C152 H140 0.930 . S
C152 C153 1.399 . S
C152 C157 1.399 . S
C153 C152 1.399 . S
C153 C154 1.376 1_554 S
C154 H141 0.930 . S
C154 C153 1.376 1_556 S
C154 C155 1.388 . S
C155 H142 0.930 . S
C155 C154 1.388 . S
C155 C156 1.389 1_556 S
C156 C155 1.389 1_554 S
C156 C157 1.394 . S
C156 C162 1.465 . S
C157 C152 1.399 . S
C157 C156 1.394 . S
C157 C158 1.516 . S
C158 C157 1.516 . S
C158 C159 1.502 . S
C158 C160 1.561 . S
C158 C161 1.526 . S
C159 H143 0.959 . S
C159 H144 0.959 . S
C159 H145 0.961 . S
C159 C158 1.502 . S
C160 H146 0.960 . S
C160 H147 0.961 . S
C160 H148 0.959 . S
C160 C158 1.561 . S
C161 C158 1.526 . S
C161 C162 1.396 . S
C161 C166 1.390 . S
C162 C156 1.465 . S
C162 C161 1.396 . S
C162 C163 1.399 1_554 S
C163 H149 0.929 . S
C163 C162 1.399 1_556 S
C163 C164 1.385 . S
C164 H150 0.931 . S
C164 C163 1.385 . S
C164 C165 1.389 1_556 S
C165 C164 1.389 1_554 S
C165 C166 1.387 . S
C166 H151 0.930 . S
C166 C161 1.390 . S
C166 C165 1.387 . S
H167 C179 0.930 . S
H168 C181 0.930 . S
H169 C182 0.930 . S
H170 C186 0.959 1_556 S
H171 C186 0.959 . S
H172 C186 0.961 . S
H173 C187 0.960 . S
H174 C187 0.961 . S
H175 C187 0.959 . S
H176 C190 0.929 . S
H177 C191 0.931 . S
H178 C193 0.930 1_554 S
C179 H167 0.930 . S
C179 C180 1.399 1_554 S
C179 C184 1.404 . S
C180 C179 1.399 1_556 S
C180 C181 1.376 . S
C181 H168 0.930 . S
C181 C180 1.376 . S
C181 C182 1.388 . S
C182 H169 0.930 . S
C182 C181 1.388 . S
C182 C183 1.390 . S
C183 C182 1.390 . S
C183 C184 1.380 1_556 S
C183 C189 1.465 . S
C184 C179 1.404 . S
C184 C183 1.380 1_554 S
C184 C185 1.524 . S
C185 C184 1.524 . S
C185 C186 1.502 . S
C185 C187 1.561 . S
C185 C188 1.526 1_554 S
C186 H170 0.959 1_554 S
C186 H171 0.959 . S
C186 H172 0.961 . S
C186 C185 1.502 . S
C187 H173 0.960 . S
C187 H174 0.961 . S
C187 H175 0.959 . S
C187 C185 1.561 . S
C188 C185 1.526 1_556 S
C188 C189 1.396 . S
C188 C193 1.390 . S
C189 C183 1.465 . S
C189 C188 1.396 . S
C189 C190 1.399 . S
C190 H176 0.929 . S
C190 C189 1.399 . S
C190 C191 1.385 . S
C191 H177 0.931 . S
C191 C190 1.385 . S
C191 C192 1.389 . S
C192 C191 1.389 . S
C192 C193 1.387 . S
C193 H178 0.930 1_556 S
C193 C188 1.390 . S
C193 C192 1.387 . S
H194 C206 0.930 . S
H195 C208 0.930 . S
H196 C209 0.930 . S
H197 C213 0.959 . S
H198 C213 0.959 . S
H199 C213 0.961 . S
H200 C214 0.960 . S
H201 C214 0.961 . S
H202 C214 0.959 . S
H203 C217 0.929 . S
H204 C218 0.931 . S
H205 C220 0.930 . S
C206 H194 0.930 . S
C206 C207 1.399 . S
C206 C211 1.399 . S
C207 C206 1.399 . S
C207 C208 1.376 . S
C208 H195 0.930 . S
C208 C207 1.376 . S
C208 C209 1.388 . S
C209 H196 0.930 . S
C209 C208 1.388 . S
C209 C210 1.390 . S
C210 C209 1.390 . S
C210 C211 1.394 . S
C210 C216 1.465 . S
C211 C206 1.399 . S
C211 C210 1.394 . S
C211 C212 1.516 . S
C212 C211 1.516 . S
C212 C213 1.502 . S
C212 C214 1.561 . S
C212 C215 1.526 . S
C213 H197 0.959 . S
C213 H198 0.959 . S
C213 H199 0.961 . S
C213 C212 1.502 . S
C214 H200 0.960 . S
C214 H201 0.961 . S
C214 H202 0.959 . S
C214 C212 1.561 . S
C215 C212 1.526 . S
C215 C216 1.396 . S
C215 C220 1.390 . S
C216 C210 1.465 . S
C216 C215 1.396 . S
C216 C217 1.399 . S
C217 H203 0.929 . S
C217 C216 1.399 . S
C217 C218 1.385 . S
C218 H204 0.931 . S
C218 C217 1.385 . S
C218 C219 1.389 . S
C219 C218 1.389 . S
C219 C220 1.387 . S
C220 H205 0.930 . S
C220 C215 1.390 . S
C220 C219 1.387 . S
H221 C233 0.930 . S
H222 C235 0.930 . S
H223 C236 0.930 . S
H224 C240 0.959 . S
H225 C240 0.959 . S
H226 C240 0.961 . S
H227 C241 0.960 . S
H228 C241 0.961 . S
H229 C241 0.959 . S
H230 C244 0.929 . S
H231 C245 0.931 . S
H232 C247 0.930 . S
C233 H221 0.930 . S
C233 C234 1.399 . S
C233 C238 1.399 . S
C234 C233 1.399 . S
C234 C235 1.376 . S
C235 H222 0.930 . S
C235 C234 1.376 . S
C235 C236 1.388 . S
C236 H223 0.930 . S
C236 C235 1.388 . S
C236 C237 1.390 . S
C237 C236 1.390 . S
C237 C238 1.394 . S
C237 C243 1.465 . S
C238 C233 1.399 . S
C238 C237 1.394 . S
C238 C239 1.516 . S
C239 C238 1.516 . S
C239 C240 1.502 . S
C239 C241 1.561 . S
C239 C242 1.526 . S
C240 H224 0.959 . S
C240 H225 0.959 . S
C240 H226 0.961 . S
C240 C239 1.502 . S
C241 H227 0.960 . S
C241 H228 0.961 . S
C241 H229 0.959 . S
C241 C239 1.561 . S
C242 C239 1.526 . S
C242 C243 1.396 . S
C242 C247 1.390 . S
C243 C237 1.465 . S
C243 C242 1.396 . S
C243 C244 1.399 . S
C244 H230 0.929 . S
C244 C243 1.399 . S
C244 C245 1.385 . S
C245 H231 0.931 . S
C245 C244 1.385 . S
C245 C246 1.389 . S
C246 C245 1.389 . S
C246 C247 1.387 . S
C247 H232 0.930 . S
C247 C242 1.390 . S
C247 C246 1.387 . S
H248 C260 0.930 . S
H249 C262 0.930 . S
H250 C263 0.930 . S
H251 C267 0.959 . S
H252 C267 0.959 . S
H253 C267 0.961 . S
H254 C268 0.960 . S
H255 C268 0.961 . S
H256 C268 0.959 . S
H257 C271 0.929 . S
H258 C272 0.931 . S
H259 C274 0.930 . S
C260 H248 0.930 . S
C260 C261 1.399 . S
C260 C265 1.399 . S
C261 C260 1.399 . S
C261 C262 1.376 . S
C262 H249 0.930 . S
C262 C261 1.376 . S
C262 C263 1.388 . S
C263 H250 0.930 . S
C263 C262 1.388 . S
C263 C264 1.390 . S
C264 C263 1.390 . S
C264 C265 1.394 . S
C264 C270 1.465 . S
C265 C260 1.399 . S
C265 C264 1.394 . S
C265 C266 1.516 . S
C266 C265 1.516 . S
C266 C267 1.502 . S
C266 C268 1.561 . S
C266 C269 1.526 . S
C267 H251 0.959 . S
C267 H252 0.959 . S
C267 H253 0.961 . S
C267 C266 1.502 . S
C268 H254 0.960 . S
C268 H255 0.961 . S
C268 H256 0.959 . S
C268 C266 1.561 . S
C269 C266 1.526 . S
C269 C270 1.396 . S
C269 C274 1.390 . S
C270 C264 1.465 . S
C270 C269 1.396 . S
C270 C271 1.399 . S
C271 H257 0.929 . S
C271 C270 1.399 . S
C271 C272 1.385 . S
C272 H258 0.931 . S
C272 C271 1.385 . S
C272 C273 1.389 . S
C273 C272 1.389 . S
C273 C274 1.387 . S
C274 H259 0.930 . S
C274 C269 1.390 . S
C274 C273 1.387 . S
H275 C287 0.930 . S
H276 C289 0.930 . S
H277 C290 0.930 . S
H278 C294 0.959 . S
H279 C294 0.959 . S
H280 C294 0.961 . S
H281 C295 0.960 . S
H282 C295 0.961 . S
H283 C295 0.959 . S
H284 C298 0.929 . S
H285 C299 0.931 . S
H286 C301 0.930 . S
C287 H275 0.930 . S
C287 C288 1.399 . S
C287 C292 1.399 . S
C288 C287 1.399 . S
C288 C289 1.376 . S
C289 H276 0.930 . S
C289 C288 1.376 . S
C289 C290 1.388 . S
C290 H277 0.930 . S
C290 C289 1.388 . S
C290 C291 1.390 . S
C291 C290 1.390 . S
C291 C292 1.394 . S
C291 C297 1.465 . S
C292 C287 1.399 . S
C292 C291 1.394 . S
C292 C293 1.516 . S
C293 C292 1.516 . S
C293 C294 1.502 . S
C293 C295 1.561 . S
C293 C296 1.526 . S
C294 H278 0.959 . S
C294 H279 0.959 . S
C294 H280 0.961 . S
C294 C293 1.502 . S
C295 H281 0.960 . S
C295 H282 0.961 . S
C295 H283 0.959 . S
C295 C293 1.561 . S
C296 C293 1.526 . S
C296 C297 1.396 . S
C296 C301 1.390 . S
C297 C291 1.465 . S
C297 C296 1.396 . S
C297 C298 1.399 . S
C298 H284 0.929 . S
C298 C297 1.399 . S
C298 C299 1.385 . S
C299 H285 0.931 . S
C299 C298 1.385 . S
C299 C300 1.389 . S
C300 C299 1.389 . S
C300 C301 1.387 . S
C301 H286 0.930 . S
C301 C296 1.390 . S
C301 C300 1.387 . S
H302 C314 0.930 1_655 S
H303 C316 0.930 . S
H304 C317 0.930 . S
H305 C321 0.959 1_455 S
H306 C321 0.959 . S
H307 C321 0.961 . S
H308 C322 0.960 . S
H309 C322 0.961 . S
H310 C322 0.959 . S
H311 C325 0.929 . S
H312 C326 0.931 . S
H313 C328 0.930 1_655 S
C314 H302 0.930 1_455 S
C314 C315 1.399 1_545 S
C314 C319 1.399 . S
C315 C314 1.399 1_565 S
C315 C316 1.376 . S
C316 H303 0.930 . S
C316 C315 1.376 . S
C316 C317 1.388 . S
C317 H304 0.930 . S
C317 C316 1.388 . S
C317 C318 1.390 . S
C318 C317 1.390 . S
C318 C319 1.394 1_565 S
C318 C324 1.465 . S
C319 C314 1.399 . S
C319 C318 1.394 1_545 S
C319 C320 1.516 1_455 S
C320 C319 1.516 1_655 S
C320 C321 1.502 . S
C320 C322 1.561 1_545 S
C320 C323 1.526 1_655 S
C321 H305 0.959 1_655 S
C321 H306 0.959 . S
C321 H307 0.961 . S
C321 C320 1.502 . S
C322 H308 0.960 . S
C322 H309 0.961 . S
C322 H310 0.959 . S
C322 C320 1.561 1_565 S
C323 C320 1.526 1_455 S
C323 C324 1.396 1_545 S
C323 C328 1.390 . S
C324 C318 1.465 . S
C324 C323 1.396 1_565 S
C324 C325 1.399 . S
C325 H311 0.929 . S
C325 C324 1.399 . S
C325 C326 1.385 . S
C326 H312 0.931 . S
C326 C325 1.385 . S
C326 C327 1.389 . S
C327 C326 1.389 . S
C327 C328 1.387 1_565 S
C328 H313 0.930 1_455 S
C328 C323 1.390 . S
C328 C327 1.387 1_545 S
H329 C341 0.930 . S
H330 C343 0.930 . S
H331 C344 0.930 . S
H332 C348 0.959 . S
H333 C348 0.959 . S
H334 C348 0.961 . S
H335 C349 0.960 . S
H336 C349 0.961 . S
H337 C349 0.959 . S
H338 C352 0.929 . S
H339 C353 0.931 . S
H340 C355 0.930 1_565 S
C341 H329 0.930 . S
C341 C342 1.399 1_565 S
C341 C346 1.399 1_565 S
C342 C341 1.399 1_545 S
C342 C343 1.376 1_455 S
C343 H330 0.930 . S
C343 C342 1.376 1_655 S
C343 C344 1.388 . S
C344 H331 0.930 . S
C344 C343 1.388 . S
C344 C345 1.390 . S
C345 C344 1.390 . S
C345 C346 1.394 1_655 S
C345 C351 1.465 . S
C346 C341 1.399 1_545 S
C346 C345 1.394 1_455 S
C346 C347 1.516 1_545 S
C347 C346 1.516 1_565 S
C347 C348 1.502 . S
C347 C349 1.561 1_455 S
C347 C350 1.526 1_565 S
C348 H332 0.959 . S
C348 H333 0.959 . S
C348 H334 0.961 . S
C348 C347 1.502 . S
C349 H335 0.960 . S
C349 H336 0.961 . S
C349 H337 0.959 . S
C349 C347 1.561 1_655 S
C350 C347 1.526 1_545 S
C350 C351 1.396 1_455 S
C350 C355 1.390 . S
C351 C345 1.465 . S
C351 C350 1.396 1_655 S
C351 C352 1.399 . S
C352 H338 0.929 . S
C352 C351 1.399 . S
C352 C353 1.385 . S
C353 H339 0.931 . S
C353 C352 1.385 . S
C353 C354 1.389 . S
C354 C353 1.389 . S
C354 C355 1.387 1_655 S
C355 H340 0.930 1_545 S
C355 C350 1.390 . S
C355 C354 1.387 1_455 S
H356 C368 0.930 . S
H357 C370 0.930 . S
H358 C371 0.930 . S
H359 C375 0.959 . S
H360 C375 0.959 . S
H361 C375 0.961 . S
H362 C376 0.960 . S
H363 C376 0.961 . S
H364 C376 0.959 . S
H365 C379 0.929 . S
H366 C380 0.931 . S
H367 C382 0.930 . S
C368 H356 0.930 . S
C368 C369 1.399 . S
C368 C373 1.399 . S
C369 C368 1.399 . S
C369 C370 1.376 . S
C370 H357 0.930 . S
C370 C369 1.376 . S
C370 C371 1.388 . S
C371 H358 0.930 . S
C371 C370 1.388 . S
C371 C372 1.390 . S
C372 C371 1.390 . S
C372 C373 1.394 . S
C372 C378 1.465 . S
C373 C368 1.399 . S
C373 C372 1.394 . S
C373 C374 1.516 . S
C374 C373 1.516 . S
C374 C375 1.502 . S
C374 C376 1.561 . S
C374 C377 1.526 . S
C375 H359 0.959 . S
C375 H360 0.959 . S
C375 H361 0.961 . S
C375 C374 1.502 . S
C376 H362 0.960 . S
C376 H363 0.961 . S
C376 H364 0.959 . S
C376 C374 1.561 . S
C377 C374 1.526 . S
C377 C378 1.396 . S
C377 C382 1.390 . S
C378 C372 1.465 . S
C378 C377 1.396 . S
C378 C379 1.399 . S
C379 H365 0.929 . S
C379 C378 1.399 . S
C379 C380 1.385 . S
C380 H366 0.931 . S
C380 C379 1.385 . S
C380 C381 1.389 . S
C381 C380 1.389 . S
C381 C382 1.387 . S
C382 H367 0.930 . S
C382 C377 1.390 . S
C382 C381 1.387 . S
H383 C395 0.930 . S
H384 C397 0.930 . S
H385 C398 0.930 . S
H386 C402 0.959 . S
H387 C402 0.959 . S
H388 C402 0.961 . S
H389 C403 0.960 . S
H390 C403 0.961 . S
H391 C403 0.959 . S
H392 C406 0.929 . S
H393 C407 0.931 . S
H394 C409 0.930 . S
C395 H383 0.930 . S
C395 C396 1.399 . S
C395 C400 1.399 . S
C396 C395 1.399 . S
C396 C397 1.376 . S
C397 H384 0.930 . S
C397 C396 1.376 . S
C397 C398 1.388 . S
C398 H385 0.930 . S
C398 C397 1.388 . S
C398 C399 1.390 . S
C399 C398 1.390 . S
C399 C400 1.394 . S
C399 C405 1.465 . S
C400 C395 1.399 . S
C400 C399 1.394 . S
C400 C401 1.516 . S
C401 C400 1.516 . S
C401 C402 1.502 . S
C401 C403 1.561 . S
C401 C404 1.526 . S
C402 H386 0.959 . S
C402 H387 0.959 . S
C402 H388 0.961 . S
C402 C401 1.502 . S
C403 H389 0.960 . S
C403 H390 0.961 . S
C403 H391 0.959 . S
C403 C401 1.561 . S
C404 C401 1.526 . S
C404 C405 1.396 . S
C404 C409 1.390 . S
C405 C399 1.465 . S
C405 C404 1.396 . S
C405 C406 1.399 . S
C406 H392 0.929 . S
C406 C405 1.399 . S
C406 C407 1.385 . S
C407 H393 0.931 . S
C407 C406 1.385 . S
C407 C408 1.389 . S
C408 C407 1.389 . S
C408 C409 1.387 . S
C409 H394 0.930 . S
C409 C404 1.390 . S
C409 C408 1.387 . S
C111 C81 1.453 . S
C99 C15 1.294 . S
C126 C13 1.405 . S
C138 N68 1.431 . S
C153 C18 1.196 1_554 S
C165 N79 1.455 . S
C180 C17 1.441 . S
C192 C70 1.441 . S
C207 C36 1.311 . S
C219 C59 1.430 . S
C234 C34 1.389 . S
C246 N46 1.424 . S
C273 N57 1.451 . S
C261 C39 1.191 . S
C300 C48 1.474 . S
C288 C38 1.410 . S
C315 C14 1.561 1_565 S
C327 C51 1.600 . S
C342 C16 1.362 . S
C354 C62 1.429 . S
C381 C73 1.601 . S
C369 C35 1.593 . S
C396 C37 1.411 . S
C408 C84 1.394 . S
