# Generated by pormake.
# Topology nom, (4,4)-cn, num edge types: 1
# Building blocks:
#     Node 0, Type 0, BuildingBlock: MUDLON_clean_linker_0, # of connection points: 4
#     Node 1, Type 0, BuildingBlock: MUDLON_clean_linker_0, # of connection points: 4
#     Node 2, Type 0, BuildingBlock: MUDLON_clean_linker_0, # of connection points: 4
#     Node 3, Type 0, BuildingBlock: MUDLON_clean_linker_0, # of connection points: 4
#     Node 4, Type 0, BuildingBlock: MUDLON_clean_linker_0, # of connection points: 4
#     Node 5, Type 0, BuildingBlock: MUDLON_clean_linker_0, # of connection points: 4
#     Node 6, Type 1, BuildingBlock: GALJAG_clean_sbu_0, # of connection points: 4
#     Node 7, Type 1, BuildingBlock: GALJAG_clean_sbu_0, # of connection points: 4
#     Node 8, Type 1, BuildingBlock: GALJAG_clean_sbu_0, # of connection points: 4
#     Node 9, Type 1, BuildingBlock: GALJAG_clean_sbu_0, # of connection points: 4
#     Node 10, Type 1, BuildingBlock: GALJAG_clean_sbu_0, # of connection points: 4
#     Node 11, Type 1, BuildingBlock: GALJAG_clean_sbu_0, # of connection points: 4
#     Edge 12, Type (0, 1), BuildingBlock: KIFKEQ_clean_linker_1, # of connection points: 2
#     Edge 13, Type (0, 1), BuildingBlock: KIFKEQ_clean_linker_1, # of connection points: 2
#     Edge 14, Type (0, 1), BuildingBlock: KIFKEQ_clean_linker_1, # of connection points: 2
#     Edge 15, Type (0, 1), BuildingBlock: KIFKEQ_clean_linker_1, # of connection points: 2
#     Edge 16, Type (0, 1), BuildingBlock: KIFKEQ_clean_linker_1, # of connection points: 2
#     Edge 17, Type (0, 1), BuildingBlock: KIFKEQ_clean_linker_1, # of connection points: 2
#     Edge 18, Type (0, 1), BuildingBlock: KIFKEQ_clean_linker_1, # of connection points: 2
#     Edge 19, Type (0, 1), BuildingBlock: KIFKEQ_clean_linker_1, # of connection points: 2
#     Edge 20, Type (0, 1), BuildingBlock: KIFKEQ_clean_linker_1, # of connection points: 2
#     Edge 21, Type (0, 1), BuildingBlock: KIFKEQ_clean_linker_1, # of connection points: 2
#     Edge 22, Type (0, 1), BuildingBlock: KIFKEQ_clean_linker_1, # of connection points: 2
#     Edge 23, Type (0, 1), BuildingBlock: KIFKEQ_clean_linker_1, # of connection points: 2
#     Edge 24, Type (0, 1), BuildingBlock: KIFKEQ_clean_linker_1, # of connection points: 2
#     Edge 25, Type (0, 1), BuildingBlock: KIFKEQ_clean_linker_1, # of connection points: 2
#     Edge 26, Type (0, 1), BuildingBlock: KIFKEQ_clean_linker_1, # of connection points: 2
#     Edge 27, Type (0, 1), BuildingBlock: KIFKEQ_clean_linker_1, # of connection points: 2
#     Edge 28, Type (0, 1), BuildingBlock: KIFKEQ_clean_linker_1, # of connection points: 2
#     Edge 29, Type (0, 1), BuildingBlock: KIFKEQ_clean_linker_1, # of connection points: 2
#     Edge 30, Type (0, 1), BuildingBlock: KIFKEQ_clean_linker_1, # of connection points: 2
#     Edge 31, Type (0, 1), BuildingBlock: KIFKEQ_clean_linker_1, # of connection points: 2
#     Edge 32, Type (0, 1), BuildingBlock: KIFKEQ_clean_linker_1, # of connection points: 2
#     Edge 33, Type (0, 1), BuildingBlock: KIFKEQ_clean_linker_1, # of connection points: 2
#     Edge 34, Type (0, 1), BuildingBlock: KIFKEQ_clean_linker_1, # of connection points: 2
#     Edge 35, Type (0, 1), BuildingBlock: KIFKEQ_clean_linker_1, # of connection points: 2
# Relax obj value: 0.015
# Max RMSD: 0.120
# Mean RMSD: 0.084
data_MOF--net-nom--node1-GALJAG_clean_sbu_0--node2-MUDLON_clean_linker_0--edge1-KIFKEQ_clean_linker_1
_symmetry_space_group_name_H-M    P1
_symmetry_Int_Tables_number       1
_symmetry_cell_setting            triclinic
loop_
_symmetry_equiv_pos_as_xyz
'x, y, z'
_cell_length_a     60.713337
_cell_length_b     61.590316
_cell_length_c     63.361155
_cell_angle_alpha  90.483294
_cell_angle_beta   89.756131
_cell_angle_gamma 120.56414
loop_
_atom_site_label
_atom_site_type_symbol
_atom_site_fract_x
_atom_site_fract_y
_atom_site_fract_z
_atom_type_partial_charge
H0 H 0.13031 0.59972 0.33468 0.0
N1 N 0.10031 0.61958 0.34547 0.0
H2 H 0.16708 0.61859 0.3112 0.0
H3 H 0.11448 0.65867 0.32012 0.0
H4 H 0.1508 0.67726 0.29571 0.0
H5 H 0.12409 0.65622 0.37374 0.0
H6 H 0.14285 0.65453 0.40727 0.0
H7 H 0.09628 0.57721 0.36329 0.0
H8 H 0.11419 0.57505 0.3971 0.0
H9 H 0.08509 0.57594 0.32274 0.0
H10 H 0.05779 0.61965 0.35495 0.0
H11 H 0.04143 0.54461 0.31292 0.0
H12 H 0.01377 0.58776 0.34605 0.0
H13 H 0.89752 0.44242 0.28967 0.0
H14 H 0.88217 0.43071 0.25337 0.0
H15 H 0.91539 0.50952 0.23804 0.0
H16 H 0.93005 0.52094 0.27432 0.0
H17 H 0.89627 0.5148 0.30043 0.0
H18 H 0.85799 0.50857 0.31856 0.0
H19 H 0.85977 0.4532 0.35879 0.0
H20 H 0.89837 0.45974 0.3406 0.0
H21 H 0.9584 0.48058 0.31729 0.0
H22 H 1.00233 0.51214 0.3269 0.0
H23 H 0.98458 0.57108 0.31757 0.0
N24 N 0.92056 0.4881 0.30696 0.0
H25 H 0.94064 0.53938 0.30899 0.0
C26 C 0.11979 0.62804 0.32937 0.0
C27 C 0.13444 0.61648 0.3261 0.0
C28 C 0.15544 0.62724 0.31247 0.0
C29 C 0.16214 0.64964 0.30166 0.0
C30 C 0.14655 0.66031 0.30409 0.0
C31 C 0.12565 0.64963 0.31787 0.0
C32 C 0.10865 0.61693 0.36609 0.0
C33 C 0.12161 0.6384 0.37893 0.0
C34 C 0.13223 0.63733 0.39812 0.0
C35 C 0.13003 0.61463 0.40494 0.0
C36 C 0.11652 0.59291 0.39223 0.0
C37 C 0.106 0.59405 0.37296 0.0
C38 C 0.07476 0.60043 0.33939 0.0
C39 C 0.06973 0.57885 0.32772 0.0
C40 C 0.0446 0.56073 0.32229 0.0
C41 C 0.02395 0.5636 0.32862 0.0
C42 C 0.02914 0.5851 0.34051 0.0
C43 C 0.05426 0.60328 0.34575 0.0
C44 C 0.91497 0.48245 0.2848 0.0
C45 C 0.90183 0.45714 0.27834 0.0
C46 C 0.89315 0.45052 0.25758 0.0
C47 C 0.89744 0.46918 0.24279 0.0
C48 C 0.91144 0.49465 0.2491 0.0
C49 C 0.92007 0.50124 0.26989 0.0
C50 C 0.90014 0.48754 0.31912 0.0
C51 C 0.88879 0.50166 0.31338 0.0
C52 C 0.86677 0.49798 0.32369 0.0
C53 C 0.85572 0.48023 0.33998 0.0
C54 C 0.86791 0.46716 0.34643 0.0
C55 C 0.88989 0.47078 0.33603 0.0
C56 C 0.94624 0.50749 0.31238 0.0
C57 C 0.96409 0.50034 0.3174 0.0
C58 C 0.98922 0.51845 0.32272 0.0
C59 C 0.99714 0.54426 0.32296 0.0
C60 C 0.97915 0.5514 0.31786 0.0
C61 C 0.95394 0.53322 0.31274 0.0
H62 H 0.42755 0.89569 0.47221 0.0
N63 N 0.40629 0.92423 0.4618 0.0
H64 H 0.40928 0.85966 0.49569 0.0
H65 H 0.36637 0.90937 0.48737 0.0
H66 H 0.34841 0.87384 0.51184 0.0
H67 H 0.36969 0.90041 0.43328 0.0
H68 H 0.37246 0.88266 0.39941 0.0
H69 H 0.44997 0.92929 0.44397 0.0
H70 H 0.45317 0.91232 0.40987 0.0
H71 H 0.45081 0.94054 0.48412 0.0
H72 H 0.40444 0.96532 0.45317 0.0
H73 H 0.48158 0.98391 0.49413 0.0
H74 H 0.43573 0.00907 0.46231 0.0
H75 H 0.5797 0.11709 0.52018 0.0
H76 H 0.59147 0.13452 0.55609 0.0
H77 H 0.51559 0.12252 0.56517 0.0
H78 H 0.50371 0.10444 0.52974 0.0
H79 H 0.50771 0.12618 0.49913 0.0
H80 H 0.51812 0.164 0.47972 0.0
H81 H 0.5811 0.16193 0.44963 0.0
H82 H 0.57114 0.12449 0.4701 0.0
H83 H 0.54483 0.0664 0.48916 0.0
H84 H 0.51353 0.02274 0.47981 0.0
H85 H 0.45244 0.03818 0.49086 0.0
N86 N 0.5361 0.10291 0.50012 0.0
H87 H 0.48392 0.08191 0.49918 0.0
C88 C 0.39807 0.90507 0.4778 0.0
C89 C 0.41041 0.89124 0.48089 0.0
C90 C 0.4 0.87066 0.49454 0.0
C91 C 0.37717 0.86359 0.50559 0.0
C92 C 0.36569 0.87836 0.50329 0.0
C93 C 0.37602 0.89881 0.48948 0.0
C94 C 0.40952 0.9163 0.44109 0.0
C95 C 0.38801 0.9033 0.42809 0.0
C96 C 0.3897 0.89327 0.40872 0.0
C97 C 0.41308 0.89606 0.40186 0.0
C98 C 0.43481 0.90955 0.41476 0.0
C99 C 0.43306 0.91952 0.4342 0.0
C100 C 0.42506 0.94963 0.46805 0.0
C101 C 0.4472 0.95529 0.47946 0.0
C102 C 0.46498 0.98025 0.48501 0.0
C103 C 0.46121 1.00012 0.47907 0.0
C104 C 0.4391 0.99431 0.46752 0.0
C105 C 0.42126 0.96935 0.46214 0.0
C106 C 0.541 0.1097 0.52214 0.0
C107 C 0.56548 0.11774 0.53012 0.0
C108 C 0.57215 0.12767 0.55056 0.0
C109 C 0.55448 0.13006 0.56326 0.0
C110 C 0.52963 0.12113 0.55557 0.0
C111 C 0.52284 0.11078 0.53527 0.0
C112 C 0.53892 0.12261 0.48628 0.0
C113 C 0.52356 0.13356 0.48823 0.0
C114 C 0.52946 0.15525 0.47691 0.0
C115 C 0.55069 0.16632 0.46324 0.0
C116 C 0.56498 0.15432 0.46036 0.0
C117 C 0.5592 0.13278 0.47186 0.0
C118 C 0.51682 0.07738 0.49497 0.0
C119 C 0.52465 0.06026 0.48952 0.0
C120 C 0.5067 0.03527 0.48435 0.0
C121 C 0.48036 0.02678 0.48467 0.0
C122 C 0.47254 0.04406 0.49019 0.0
C123 C 0.49058 0.06913 0.49519 0.0
H124 H 0.42734 0.54974 0.67021 0.0
N125 N 0.40547 0.4997 0.68003 0.0
H126 H 0.40984 0.56805 0.6465 0.0
H127 H 0.36674 0.47512 0.65327 0.0
H128 H 0.34963 0.49322 0.62857 0.0
H129 H 0.36757 0.48921 0.70667 0.0
H130 H 0.36967 0.51067 0.74 0.0
H131 H 0.44933 0.53634 0.69974 0.0
H132 H 0.45152 0.55749 0.73306 0.0
H133 H 0.4523 0.52914 0.66136 0.0
H134 H 0.40071 0.45481 0.68534 0.0
H135 H 0.48319 0.51634 0.65218 0.0
H136 H 0.43166 0.4418 0.67625 0.0
H137 H 0.56576 0.48523 0.61516 0.0
H138 H 0.57498 0.47825 0.57878 0.0
H139 H 0.51899 0.39903 0.58431 0.0
H140 H 0.50946 0.40617 0.62031 0.0
H141 H 0.50066 0.40354 0.65788 0.0
H142 H 0.51149 0.3762 0.67735 0.0
H143 H 0.59053 0.43629 0.67973 0.0
H144 H 0.5796 0.46315 0.65952 0.0
H145 H 0.54288 0.49236 0.66185 0.0
H146 H 0.51135 0.50456 0.67089 0.0
H147 H 0.45145 0.43429 0.64453 0.0
N148 N 0.53482 0.45061 0.64262 0.0
H149 H 0.48313 0.42231 0.63558 0.0
C150 C 0.39805 0.51096 0.66374 0.0
C151 C 0.41055 0.53724 0.66103 0.0
C152 C 0.40057 0.54771 0.64728 0.0
C153 C 0.37808 0.53216 0.63573 0.0
C154 C 0.36661 0.50582 0.63754 0.0
C155 C 0.37647 0.4954 0.65148 0.0
C156 C 0.40817 0.51084 0.70073 0.0
C157 C 0.38599 0.50384 0.71252 0.0
C158 C 0.3872 0.51623 0.73143 0.0
C159 C 0.41075 0.5358 0.73904 0.0
C160 C 0.43314 0.54232 0.72762 0.0
C161 C 0.43188 0.53014 0.70854 0.0
C162 C 0.42412 0.49285 0.6741 0.0
C163 C 0.44758 0.51005 0.66465 0.0
C164 C 0.46531 0.50273 0.65949 0.0
C165 C 0.45989 0.47806 0.66353 0.0
C166 C 0.4363 0.46085 0.67276 0.0
C167 C 0.41868 0.46826 0.67805 0.0
C168 C 0.53724 0.44629 0.62056 0.0
C169 C 0.55515 0.46648 0.60833 0.0
C170 C 0.56035 0.46247 0.5876 0.0
C171 C 0.54786 0.43805 0.57886 0.0
C172 C 0.52908 0.41799 0.59079 0.0
C173 C 0.52362 0.42208 0.61139 0.0
C174 C 0.53947 0.43542 0.65706 0.0
C175 C 0.52024 0.41097 0.66281 0.0
C176 C 0.52646 0.39534 0.67407 0.0
C177 C 0.55196 0.40389 0.67985 0.0
C178 C 0.5708 0.42887 0.67512 0.0
C179 C 0.56459 0.44436 0.66378 0.0
C180 C 0.5154 0.45648 0.64818 0.0
C181 C 0.52292 0.4796 0.65813 0.0
C182 C 0.50492 0.48658 0.66313 0.0
C183 C 0.47892 0.47043 0.65835 0.0
C184 C 0.47132 0.44704 0.64858 0.0
C185 C 0.48941 0.44016 0.64344 0.0
H186 H 0.12555 0.55215 0.80736 0.0
N187 N 0.0979 0.5018 0.79741 0.0
H188 H 0.16297 0.5726 0.83024 0.0
H189 H 0.11547 0.47949 0.82232 0.0
H190 H 0.15336 0.49993 0.84509 0.0
H191 H 0.12145 0.48758 0.77015 0.0
H192 H 0.14052 0.50675 0.73629 0.0
H193 H 0.09315 0.53877 0.77741 0.0
H194 H 0.11126 0.55739 0.74336 0.0
H195 H 0.08125 0.53225 0.81432 0.0
H196 H 0.05684 0.45606 0.79485 0.0
H197 H 0.03735 0.51949 0.82385 0.0
H198 H 0.01267 0.44307 0.8045 0.0
H199 H 0.91634 0.48621 0.85768 0.0
H200 H 0.89874 0.48151 0.89337 0.0
H201 H 0.88349 0.40497 0.89494 0.0
H202 H 0.90084 0.40974 0.85945 0.0
H203 H 0.90688 0.4034 0.82285 0.0
H204 H 0.86995 0.3723 0.80265 0.0
H205 H 0.84685 0.42722 0.79289 0.0
H206 H 0.88394 0.45831 0.81323 0.0
H207 H 0.95134 0.49147 0.81304 0.0
H208 H 0.99583 0.50442 0.80472 0.0
H209 H 0.98672 0.43886 0.837 0.0
N210 N 0.91746 0.45103 0.83395 0.0
H211 H 0.9425 0.42621 0.84539 0.0
C212 C 0.11769 0.51417 0.8131 0.0
C213 C 0.13105 0.54051 0.81588 0.0
C214 C 0.15263 0.55223 0.82885 0.0
C215 C 0.1613 0.53791 0.83929 0.0
C216 C 0.14708 0.51148 0.83739 0.0
C217 C 0.1255 0.49978 0.82437 0.0
C218 C 0.10572 0.51147 0.77632 0.0
C219 C 0.11884 0.50255 0.76418 0.0
C220 C 0.12966 0.51352 0.74481 0.0
C221 C 0.12751 0.53371 0.73707 0.0
C222 C 0.11363 0.54214 0.74896 0.0
C223 C 0.10295 0.53124 0.76842 0.0
C224 C 0.07235 0.49504 0.80373 0.0
C225 C 0.06651 0.51277 0.81208 0.0
C226 C 0.04133 0.50547 0.81748 0.0
C227 C 0.02156 0.48029 0.81489 0.0
C228 C 0.02752 0.46255 0.80685 0.0
C229 C 0.05266 0.46994 0.80125 0.0
C230 C 0.90985 0.44842 0.85581 0.0
C231 C 0.90956 0.46859 0.86592 0.0
C232 C 0.89956 0.46587 0.88629 0.0
C233 C 0.88951 0.44278 0.89689 0.0
C234 C 0.89073 0.42287 0.88705 0.0
C235 C 0.90085 0.42565 0.86674 0.0
C236 C 0.89812 0.43328 0.81967 0.0
C237 C 0.89418 0.40897 0.81615 0.0
C238 C 0.87296 0.39111 0.80463 0.0
C239 C 0.85542 0.39727 0.79627 0.0
C240 C 0.86015 0.42196 0.79892 0.0
C241 C 0.88125 0.43972 0.81058 0.0
C242 C 0.94353 0.45789 0.82968 0.0
C243 C 0.95903 0.47997 0.81834 0.0
C244 C 0.98441 0.48737 0.8137 0.0
C245 C 0.99474 0.47263 0.8202 0.0
C246 C 0.97919 0.45045 0.8316 0.0
C247 C 0.95386 0.4432 0.83642 0.0
H248 H 0.59494 0.13431 0.97515 0.0
N249 N 0.61548 0.10558 0.96276 0.0
H250 H 0.61519 0.17146 0.998 0.0
H251 H 0.65814 0.12232 0.98503 0.0
H252 H 0.67844 0.15935 0.00837 0.0
H253 H 0.65023 0.1286 0.93285 0.0
H254 H 0.64509 0.14443 0.89915 0.0
H255 H 0.57051 0.09932 0.94681 0.0
H256 H 0.56481 0.11391 0.91277 0.0
H257 H 0.57169 0.0906 0.98587 0.0
H258 H 0.61743 0.06411 0.95554 0.0
H259 H 0.54052 0.04764 0.99618 0.0
H260 H 0.58637 0.02086 0.9661 0.0
H261 H 0.43852 0.91688 0.02506 0.0
H262 H 0.42902 0.89901 0.06072 0.0
H263 H 0.50362 0.90656 0.0635 0.0
H264 H 0.51344 0.92542 0.02831 0.0
H265 H 0.51185 0.91109 0.99438 0.0
H266 H 0.50021 0.87167 0.97618 0.0
H267 H 0.42697 0.86283 0.95988 0.0
H268 H 0.43833 0.90163 0.9793 0.0
H269 H 0.50082 0.97141 0.02754 0.0
H270 H 0.53485 0.01375 0.01922 0.0
H271 H 0.54233 0.98845 0.95733 0.0
N272 N 0.48015 0.92991 0.0021 0.0
H273 H 0.50867 0.94606 0.9655 0.0
C274 C 0.62516 0.12556 0.97832 0.0
C275 C 0.61294 0.13935 0.98259 0.0
C276 C 0.62453 0.1606 0.99576 0.0
C277 C 0.64855 0.16851 0.00491 0.0
C278 C 0.66013 0.154 0.00132 0.0
C279 C 0.64851 0.13276 0.98815 0.0
C280 C 0.61085 0.11256 0.94228 0.0
C281 C 0.6315 0.12516 0.92841 0.0
C282 C 0.62844 0.13406 0.9091 0.0
C283 C 0.60446 0.13038 0.9031 0.0
C284 C 0.58361 0.11738 0.91693 0.0
C285 C 0.58679 0.10871 0.93637 0.0
C286 C 0.59707 0.08061 0.96996 0.0
C287 C 0.57523 0.07562 0.98162 0.0
C288 C 0.55741 0.05097 0.9876 0.0
C289 C 0.56097 0.03079 0.98201 0.0
C290 C 0.58292 0.03592 0.97048 0.0
C291 C 0.60074 0.06058 0.96455 0.0
C292 C 0.47643 0.92212 0.02391 0.0
C293 C 0.45295 0.9151 0.03356 0.0
C294 C 0.44759 0.90495 0.05385 0.0
C295 C 0.46555 0.90127 0.06469 0.0
C296 C 0.4894 0.909 0.05532 0.0
C297 C 0.49495 0.91962 0.0352 0.0
C298 C 0.4757 0.90909 0.98849 0.0
C299 C 0.49329 0.90067 0.98691 0.0
C300 C 0.4867 0.87822 0.97621 0.0
C301 C 0.46248 0.8638 0.96674 0.0
C302 C 0.44554 0.87308 0.96738 0.0
C303 C 0.45207 0.89539 0.97826 0.0
C304 C 0.50262 0.95447 0.9978 0.0
C305 C 0.51021 0.9745 0.01238 0.0
C306 C 0.52952 0.99899 0.0075 0.0
C307 C 0.5415 0.00446 0.98768 0.0
C308 C 0.53395 0.98475 0.97296 0.0
C309 C 0.51459 0.96024 0.97779 0.0
H310 H 0.56034 0.44395 0.1539 0.0
N311 N 0.57094 0.48664 0.1731 0.0
H312 H 0.58968 0.43548 0.1336 0.0
H313 H 0.61944 0.52199 0.16027 0.0
H314 H 0.6489 0.51357 0.14041 0.0
H315 H 0.61488 0.51086 0.19684 0.0
H316 H 0.62036 0.5 0.23258 0.0
H317 H 0.5346 0.45468 0.19911 0.0
H318 H 0.53994 0.44412 0.23532 0.0
H319 H 0.5305 0.48005 0.15189 0.0
H320 H 0.59849 0.53701 0.18342 0.0
H321 H 0.51937 0.51178 0.14268 0.0
H322 H 0.58809 0.56905 0.17369 0.0
H323 H 0.48318 0.58827 0.12146 0.0
H324 H 0.46073 0.5847 0.08846 0.0
H325 H 0.53166 0.64222 0.06089 0.0
H326 H 0.55391 0.64574 0.09406 0.0
H327 H 0.55417 0.67071 0.13514 0.0
H328 H 0.53671 0.69244 0.15561 0.0
H329 H 0.47652 0.62082 0.17878 0.0
H330 H 0.49407 0.59918 0.15822 0.0
H331 H 0.52545 0.57891 0.10779 0.0
H332 H 0.53403 0.54686 0.11941 0.0
H333 H 0.55889 0.58404 0.17997 0.0
N334 N 0.53377 0.62136 0.1299 0.0
H335 H 0.55091 0.61694 0.16821 0.0
C336 C 0.58762 0.48345 0.15876 0.0
C337 C 0.57948 0.45932 0.15058 0.0
C338 C 0.59623 0.45455 0.13898 0.0
C339 C 0.62161 0.47385 0.13556 0.0
C340 C 0.62949 0.4983 0.14299 0.0
C341 C 0.6126 0.50313 0.15433 0.0
C342 C 0.57428 0.48323 0.19511 0.0
C343 C 0.59833 0.49641 0.20504 0.0
C344 C 0.60148 0.4902 0.22552 0.0
C345 C 0.58061 0.47109 0.23659 0.0
C346 C 0.55631 0.45898 0.22713 0.0
C347 C 0.55325 0.46494 0.20651 0.0
C348 C 0.5653 0.5061 0.16816 0.0
C349 C 0.54307 0.49947 0.15671 0.0
C350 C 0.53684 0.51766 0.1514 0.0
C351 C 0.55289 0.54305 0.15735 0.0
C352 C 0.57513 0.54965 0.16906 0.0
C353 C 0.58126 0.53135 0.17446 0.0
C354 C 0.52026 0.61748 0.11021 0.0
C355 C 0.49386 0.60013 0.10833 0.0
C356 C 0.48107 0.5981 0.08947 0.0
C357 C 0.49442 0.61323 0.0721 0.0
C358 C 0.5209 0.63011 0.07391 0.0
C359 C 0.53363 0.63224 0.09281 0.0
C360 C 0.52553 0.63342 0.14511 0.0
C361 C 0.53758 0.65978 0.14503 0.0
C362 C 0.52749 0.67211 0.15659 0.0
C363 C 0.50516 0.65828 0.16863 0.0
C364 C 0.49384 0.63194 0.16972 0.0
C365 C 0.50381 0.61956 0.15793 0.0
C366 C 0.53599 0.60022 0.13744 0.0
C367 C 0.53196 0.58018 0.12385 0.0
C368 C 0.53702 0.5616 0.13049 0.0
C369 C 0.54679 0.56257 0.15075 0.0
C370 C 0.55132 0.58265 0.16425 0.0
C371 C 0.54631 0.60134 0.1576 0.0
In372 In 0.62715 0.39284 0.40651 0.0
O373 O 0.66977 0.42313 0.409 0.0
O374 O 0.65875 0.39358 0.38661 0.0
C375 C 0.61137 0.40644 0.44149 0.0
C376 C 0.61111 0.4074 0.37269 0.0
C377 C 0.60976 0.34405 0.41633 0.0
O378 O 0.63361 0.40983 0.43963 0.0
O379 O 0.59716 0.3965 0.4256 0.0
O380 O 0.59821 0.3504 0.40352 0.0
O381 O 0.62986 0.3622 0.42406 0.0
C382 C 0.67667 0.41349 0.39467 0.0
O383 O 0.60816 0.38565 0.37424 0.0
O384 O 0.62171 0.42169 0.38839 0.0
In385 In 0.25883 0.63833 0.57125 0.0
O386 O 0.26825 0.60713 0.56576 0.0
O387 O 0.29321 0.63813 0.58531 0.0
C388 C 0.22916 0.62743 0.53657 0.0
C389 C 0.22908 0.61906 0.60585 0.0
C390 C 0.28754 0.68869 0.56523 0.0
O391 O 0.24963 0.62679 0.53646 0.0
O392 O 0.22369 0.63329 0.55412 0.0
O393 O 0.26748 0.67882 0.57632 0.0
O394 O 0.2933 0.67325 0.5576 0.0
C395 C 0.28801 0.61727 0.57722 0.0
O396 O 0.24918 0.64052 0.60596 0.0
O397 O 0.22402 0.60762 0.58836 0.0
In398 In 0.6256 0.25315 0.73722 0.0
O399 O 0.66813 0.26931 0.72921 0.0
O400 O 0.65847 0.27608 0.75982 0.0
C401 C 0.61246 0.22666 0.70054 0.0
C402 C 0.60975 0.22103 0.77 0.0
C403 C 0.60692 0.2846 0.73253 0.0
O404 O 0.63006 0.24947 0.70167 0.0
O405 O 0.60164 0.21724 0.71785 0.0
O406 O 0.59244 0.26112 0.73463 0.0
O407 O 0.6304 0.29199 0.73322 0.0
C408 C 0.67593 0.27934 0.74717 0.0
O409 O 0.60596 0.23939 0.76926 0.0
O410 O 0.6209 0.21865 0.75406 0.0
In411 In 0.3895 0.63792 0.90725 0.0
O412 O 0.34758 0.60592 0.90984 0.0
O413 O 0.35552 0.63934 0.89402 0.0
C414 C 0.41003 0.62727 0.94037 0.0
C415 C 0.40281 0.62186 0.87215 0.0
C416 C 0.40664 0.68638 0.91809 0.0
O417 O 0.38621 0.61823 0.93849 0.0
O418 O 0.42333 0.64136 0.92544 0.0
O419 O 0.41517 0.68048 0.90216 0.0
O420 O 0.38964 0.66791 0.92833 0.0
C421 C 0.33884 0.6176 0.89992 0.0
O422 O 0.40384 0.64283 0.87305 0.0
O423 O 0.39562 0.60938 0.88897 0.0
In424 In 0.76875 0.39516 0.07185 0.0
O425 O 0.78456 0.38816 0.10198 0.0
O426 O 0.80049 0.4261 0.09184 0.0
C427 C 0.74162 0.34463 0.06503 0.0
C428 C 0.73837 0.4137 0.08309 0.0
C429 C 0.79558 0.41147 0.03535 0.0
O430 O 0.76517 0.35637 0.06928 0.0
O431 O 0.73166 0.35826 0.06461 0.0
O432 O 0.77178 0.40264 0.03631 0.0
O433 O 0.80595 0.41262 0.05283 0.0
C434 C 0.80045 0.4112 0.10544 0.0
O435 O 0.75083 0.41966 0.06603 0.0
O436 O 0.74111 0.3984 0.09425 0.0
In437 In 0.39052 0.77165 0.23335 0.0
O438 O 0.42147 0.76117 0.23854 0.0
O439 O 0.39313 0.74107 0.21521 0.0
C440 C 0.40328 0.80125 0.2682 0.0
C441 C 0.40652 0.80063 0.19853 0.0
C442 C 0.33973 0.74253 0.24106 0.0
O443 O 0.40307 0.78062 0.26798 0.0
O444 O 0.39757 0.807 0.25085 0.0
O445 O 0.34918 0.76294 0.23106 0.0
O446 O 0.35579 0.73661 0.2469 0.0
C447 C 0.41296 0.74429 0.22438 0.0
O448 O 0.38556 0.77999 0.19927 0.0
O449 O 0.41936 0.80677 0.21539 0.0
H450 H 0.18338 0.62864 0.27624 0.0
H451 H 0.19603 0.7004 0.29922 0.0
H452 H 0.22518 0.65014 0.25903 0.0
H453 H 0.23736 0.72175 0.28165 0.0
H454 H 0.30281 0.75461 0.23461 0.0
H455 H 0.25829 0.73134 0.24635 0.0
H456 H 0.27035 0.67344 0.27197 0.0
H457 H 0.31479 0.69662 0.26017 0.0
C458 C 0.19496 0.64897 0.27755 0.0
C459 C 0.1863 0.66274 0.28923 0.0
C460 C 0.21887 0.66127 0.26765 0.0
C461 C 0.23457 0.68762 0.26903 0.0
C462 C 0.22556 0.70146 0.28005 0.0
C463 C 0.20178 0.68917 0.29008 0.0
C464 C 0.29586 0.73678 0.24255 0.0
C465 C 0.3123 0.72749 0.24658 0.0
C466 C 0.27042 0.72352 0.24934 0.0
C467 C 0.26085 0.70061 0.26014 0.0
C468 C 0.27708 0.69091 0.2635 0.0
C469 C 0.30257 0.70426 0.25686 0.0
H470 H 0.52082 0.18428 0.44741 0.0
H471 H 0.59966 0.2053 0.45725 0.0
H472 H 0.5348 0.22685 0.43535 0.0
H473 H 0.61359 0.24714 0.44397 0.0
H474 H 0.57018 0.30113 0.3988 0.0
H475 H 0.55594 0.25745 0.40802 0.0
H476 H 0.61421 0.28386 0.45634 0.0
H477 H 0.62885 0.3272 0.44664 0.0
C478 C 0.54112 0.19786 0.44682 0.0
C479 C 0.55906 0.19129 0.45348 0.0
C480 C 0.54917 0.22221 0.43964 0.0
C481 C 0.57534 0.24057 0.43887 0.0
C482 C 0.59326 0.23368 0.44474 0.0
C483 C 0.58524 0.20945 0.45205 0.0
C484 C 0.57993 0.29751 0.41135 0.0
C485 C 0.60068 0.31756 0.42195 0.0
C486 C 0.57171 0.2725 0.41671 0.0
C487 C 0.58401 0.26706 0.43285 0.0
C488 C 0.60462 0.28725 0.44352 0.0
C489 C 0.61292 0.31215 0.43807 0.0
H490 H 0.32683 0.51471 0.63157 0.0
H491 H 0.40095 0.57538 0.61188 0.0
H492 H 0.30644 0.53488 0.61406 0.0
H493 H 0.38037 0.59591 0.59485 0.0
H494 H 0.33371 0.63777 0.59775 0.0
H495 H 0.35645 0.61653 0.60867 0.0
H496 H 0.29874 0.54781 0.57865 0.0
H497 H 0.27594 0.56909 0.56769 0.0
C498 C 0.3388 0.53207 0.62315 0.0
C499 C 0.36562 0.5434 0.62324 0.0
C500 C 0.32706 0.54368 0.61315 0.0
C501 C 0.34181 0.56702 0.60315 0.0
C502 C 0.36854 0.57806 0.60266 0.0
C503 C 0.3803 0.56631 0.61249 0.0
C504 C 0.32605 0.61822 0.59325 0.0
C505 C 0.30298 0.60505 0.58197 0.0
C506 C 0.33915 0.6061 0.5994 0.0
C507 C 0.32933 0.58048 0.59457 0.0
C508 C 0.30664 0.56751 0.58274 0.0
C509 C 0.29366 0.57971 0.5764 0.0
H510 H 0.82329 0.34971 0.81058 0.0
H511 H 0.8324 0.40049 0.76023 0.0
H512 H 0.78097 0.31898 0.79716 0.0
H513 H 0.7898 0.36975 0.74695 0.0
H514 H 0.7178 0.29844 0.72114 0.0
H515 H 0.76287 0.32521 0.73131 0.0
H516 H 0.7403 0.32048 0.79661 0.0
H517 H 0.6956 0.29405 0.78653 0.0
C518 C 0.81646 0.35411 0.7964 0.0
C519 C 0.83113 0.37756 0.7865 0.0
C520 C 0.79215 0.3366 0.78884 0.0
C521 C 0.78204 0.34206 0.77111 0.0
C522 C 0.79717 0.36499 0.76058 0.0
C523 C 0.82144 0.38264 0.76827 0.0
C524 C 0.72257 0.303 0.73766 0.0
C525 C 0.70323 0.29424 0.75305 0.0
C526 C 0.74829 0.31837 0.74346 0.0
C527 C 0.75507 0.32483 0.76475 0.0
C528 C 0.7357 0.31555 0.78011 0.0
C529 C 0.71008 0.30055 0.77432 0.0
H530 H 0.41517 0.82126 0.96896 0.0
H531 H 0.4911 0.84856 0.94398 0.0
H532 H 0.40193 0.77933 0.95574 0.0
H533 H 0.47818 0.80601 0.93184 0.0
H534 H 0.43879 0.72965 0.89658 0.0
H535 H 0.45217 0.77302 0.9069 0.0
H536 H 0.40849 0.74568 0.96454 0.0
H537 H 0.39459 0.70261 0.95391 0.0
C538 C 0.42904 0.81843 0.96048 0.0
C539 C 0.45425 0.83843 0.95755 0.0
C540 C 0.42152 0.79419 0.95318 0.0
C541 C 0.43905 0.78915 0.94294 0.0
C542 C 0.46412 0.80922 0.93956 0.0
C543 C 0.47162 0.83357 0.94675 0.0
C544 C 0.43208 0.733 0.91143 0.0
C545 C 0.41553 0.71275 0.92438 0.0
C546 C 0.43983 0.75783 0.9174 0.0
C547 C 0.43126 0.76288 0.93649 0.0
C548 C 0.41502 0.74253 0.94952 0.0
C549 C 0.40718 0.7178 0.9435 0.0
H550 H 0.66885 0.48699 0.15029 0.0
H551 H 0.61621 0.44688 0.09939 0.0
H552 H 0.69806 0.47392 0.13656 0.0
H553 H 0.64563 0.43391 0.08555 0.0
H554 H 0.72003 0.43769 0.05887 0.0
H555 H 0.69252 0.45411 0.0703 0.0
H556 H 0.69291 0.42949 0.1338 0.0
H557 H 0.7199 0.41277 0.12241 0.0
C558 C 0.66375 0.47575 0.13595 0.0
C559 C 0.64027 0.46794 0.12589 0.0
C560 C 0.68036 0.46813 0.1282 0.0
C561 C 0.67402 0.45284 0.11007 0.0
C562 C 0.651 0.4458 0.09951 0.0
C563 C 0.63416 0.45309 0.10747 0.0
C564 C 0.71422 0.43583 0.07526 0.0
C565 C 0.72206 0.42394 0.08976 0.0
C566 C 0.69845 0.44513 0.08176 0.0
C567 C 0.69073 0.44315 0.10294 0.0
C568 C 0.6988 0.43148 0.11743 0.0
C569 C 0.71412 0.4218 0.11088 0.0
H570 H 0.3259 0.82931 0.50896 0.0
H571 H 0.39973 0.84391 0.53052 0.0
H572 H 0.3054 0.78881 0.52671 0.0
H573 H 0.37908 0.80293 0.54782 0.0
H574 H 0.33376 0.71445 0.54555 0.0
H575 H 0.35616 0.75834 0.53429 0.0
H576 H 0.29684 0.76829 0.56222 0.0
H577 H 0.27436 0.72426 0.57351 0.0
C578 C 0.33777 0.82418 0.51783 0.0
C579 C 0.36455 0.83995 0.51819 0.0
C580 C 0.32596 0.80087 0.52797 0.0
C581 C 0.34063 0.79263 0.53858 0.0
C582 C 0.36731 0.80865 0.53953 0.0
C583 C 0.37912 0.83209 0.52954 0.0
C584 C 0.32565 0.72608 0.54952 0.0
C585 C 0.30225 0.7159 0.56032 0.0
C586 C 0.33856 0.75127 0.54318 0.0
C587 C 0.32822 0.76674 0.54732 0.0
C588 C 0.30515 0.75674 0.55865 0.0
C589 C 0.29236 0.7316 0.5652 0.0
H590 H 0.52634 0.36751 0.71006 0.0
H591 H 0.59396 0.4003 0.67084 0.0
H592 H 0.53859 0.33855 0.72487 0.0
H593 H 0.60616 0.37174 0.68567 0.0
H594 H 0.63527 0.33561 0.72966 0.0
H595 H 0.6212 0.36446 0.71895 0.0
H596 H 0.54348 0.30218 0.71407 0.0
H597 H 0.5576 0.27318 0.72521 0.0
C598 C 0.54377 0.36854 0.70458 0.0
C599 C 0.55931 0.38646 0.68942 0.0
C600 C 0.55077 0.35196 0.71307 0.0
C601 C 0.57348 0.35301 0.70661 0.0
C602 C 0.58886 0.37081 0.69137 0.0
C603 C 0.58186 0.38725 0.68289 0.0
C604 C 0.61513 0.32806 0.72652 0.0
C605 C 0.59757 0.30209 0.7281 0.0
C606 C 0.60709 0.34459 0.72026 0.0
C607 C 0.58128 0.33558 0.71537 0.0
C608 C 0.56348 0.30973 0.71782 0.0
C609 C 0.57156 0.29311 0.72412 0.0
H610 H 0.17326 0.52552 0.87743 0.0
H611 H 0.20589 0.57856 0.82626 0.0
H612 H 0.21515 0.54533 0.89462 0.0
H613 H 0.24752 0.59802 0.84311 0.0
H614 H 0.31556 0.64182 0.88435 0.0
H615 H 0.27158 0.62335 0.8723 0.0
H616 H 0.25665 0.54949 0.89024 0.0
H617 H 0.30059 0.56826 0.90302 0.0
C618 C 0.18936 0.54142 0.86989 0.0
C619 C 0.18623 0.55059 0.85057 0.0
C620 C 0.21336 0.55273 0.87969 0.0
C621 C 0.23473 0.57336 0.87032 0.0
C622 C 0.23144 0.58256 0.85107 0.0
C623 C 0.20751 0.57138 0.84137 0.0
C624 C 0.3028 0.62167 0.88593 0.0
C625 C 0.31154 0.60644 0.89446 0.0
C626 C 0.27762 0.61104 0.8789 0.0
C627 C 0.26062 0.58486 0.88 0.0
C628 C 0.26913 0.56974 0.88929 0.0
C629 C 0.29434 0.58045 0.89653 0.0
H630 H 0.62883 0.18762 0.03378 0.0
H631 H 0.69919 0.20449 0.00269 0.0
H632 H 0.65089 0.22895 0.05105 0.0
H633 H 0.72114 0.24564 0.01981 0.0
H634 H 0.75912 0.31162 0.06475 0.0
H635 H 0.73631 0.26764 0.0531 0.0
H636 H 0.66906 0.27262 0.04082 0.0
H637 H 0.69168 0.31635 0.05292 0.0
C638 C 0.649 0.20011 0.03067 0.0
C639 C 0.66223 0.19274 0.01684 0.0
C640 C 0.66164 0.22379 0.04055 0.0
C641 C 0.68778 0.24066 0.03679 0.0
C642 C 0.70111 0.233 0.02337 0.0
C643 C 0.68851 0.20935 0.01353 0.0
C644 C 0.73937 0.30321 0.05978 0.0
C645 C 0.72722 0.31746 0.05964 0.0
C646 C 0.72635 0.27806 0.05299 0.0
C647 C 0.7009 0.26662 0.04588 0.0
C648 C 0.68853 0.2807 0.04641 0.0
C649 C 0.70155 0.30583 0.05323 0.0
H650 H 0.48668 0.65379 0.20901 0.0
H651 H 0.49462 0.6914 0.14986 0.0
H652 H 0.4642 0.67415 0.22402 0.0
H653 H 0.47216 0.71145 0.16472 0.0
H654 H 0.40284 0.71441 0.18976 0.0
H655 H 0.42543 0.69336 0.17755 0.0
H656 H 0.47459 0.72113 0.23221 0.0
H657 H 0.4521 0.74266 0.24442 0.0
C658 C 0.48369 0.66644 0.19929 0.0
C659 C 0.49248 0.67112 0.17832 0.0
C660 C 0.47098 0.67814 0.20788 0.0
C661 C 0.4664 0.69426 0.19547 0.0
C662 C 0.4753 0.69897 0.17457 0.0
C663 C 0.48832 0.68766 0.16613 0.0
C664 C 0.41835 0.71593 0.19928 0.0
C665 C 0.42579 0.73029 0.218 0.0
C666 C 0.43133 0.70396 0.19223 0.0
C667 C 0.45182 0.70576 0.20388 0.0
C668 C 0.45878 0.71941 0.22299 0.0
C669 C 0.446 0.73177 0.22991 0.0
H670 H 0.81359 0.47269 0.31852 0.0
H671 H 0.84051 0.47251 0.38148 0.0
H672 H 0.77092 0.45845 0.3324 0.0
H673 H 0.79748 0.45781 0.39536 0.0
H674 H 0.71991 0.45285 0.41232 0.0
H675 H 0.76408 0.47118 0.39972 0.0
H676 H 0.73766 0.41752 0.34815 0.0
H677 H 0.69383 0.39928 0.36065 0.0
C678 C 0.81049 0.46999 0.33538 0.0
C679 C 0.83043 0.47373 0.34891 0.0
C680 C 0.78598 0.46158 0.34329 0.0
C681 C 0.78083 0.45683 0.36493 0.0
C682 C 0.80093 0.46141 0.37862 0.0
C683 C 0.82548 0.46964 0.37066 0.0
C684 C 0.72362 0.44502 0.39831 0.0
C685 C 0.70344 0.42467 0.38745 0.0
C686 C 0.74886 0.45544 0.39116 0.0
C687 C 0.75427 0.44588 0.37288 0.0
C688 C 0.73404 0.42552 0.3621 0.0
C689 C 0.70895 0.41497 0.36935 0.0
H690 H 0.13343 0.63877 0.44236 0.0
H691 H 0.15534 0.58916 0.41262 0.0
H692 H 0.15674 0.64035 0.47397 0.0
H693 H 0.17746 0.58956 0.44475 0.0
H694 H 0.24047 0.6221 0.49573 0.0
H695 H 0.21531 0.61732 0.46424 0.0
H696 H 0.15634 0.61648 0.50332 0.0
H697 H 0.18192 0.62215 0.53461 0.0
C698 C 0.14309 0.62806 0.4426 0.0
C699 C 0.1426 0.61396 0.42486 0.0
C700 C 0.1562 0.62869 0.46087 0.0
C701 C 0.16902 0.61508 0.46196 0.0
C702 C 0.16808 0.60053 0.44438 0.0
C703 C 0.15507 0.60002 0.42604 0.0
C704 C 0.22206 0.62075 0.49755 0.0
C705 C 0.21323 0.62267 0.51759 0.0
C706 C 0.20755 0.61786 0.47952 0.0
C707 C 0.18381 0.61665 0.48119 0.0
C708 C 0.17473 0.61784 0.50137 0.0
C709 C 0.18932 0.62093 0.51934 0.0
H710 H 0.54906 0.16905 0.57688 0.0
H711 H 0.57821 0.12122 0.59584 0.0
H712 H 0.56382 0.19241 0.61023 0.0
H713 H 0.59266 0.14441 0.62942 0.0
H714 H 0.58386 0.17564 0.6955 0.0
H715 H 0.57003 0.15171 0.66234 0.0
H716 H 0.60923 0.22113 0.62735 0.0
H717 H 0.6235 0.24509 0.66048 0.0
C718 C 0.5584 0.16341 0.5883 0.0
C719 C 0.56244 0.14331 0.58388 0.0
C720 C 0.567 0.17688 0.60726 0.0
C721 C 0.57941 0.17022 0.62231 0.0
C722 C 0.58306 0.14984 0.61807 0.0
C723 C 0.5749 0.13666 0.59891 0.0
C724 C 0.58962 0.18576 0.68072 0.0
C725 C 0.60473 0.21221 0.68053 0.0
C726 C 0.5818 0.17207 0.66179 0.0
C727 C 0.58853 0.18462 0.64235 0.0
C728 C 0.60367 0.21105 0.64216 0.0
C729 C 0.6119 0.22472 0.66108 0.0
H730 H 0.44298 0.54807 0.77284 0.0
H731 H 0.38085 0.55568 0.74876 0.0
H732 H 0.44393 0.57102 0.80496 0.0
H733 H 0.38179 0.57854 0.78076 0.0
H734 H 0.40757 0.63949 0.83197 0.0
H735 H 0.41167 0.62017 0.7994 0.0
H736 H 0.4132 0.56199 0.83577 0.0
H737 H 0.40893 0.58115 0.86828 0.0
C738 C 0.42965 0.55478 0.77439 0.0
C739 C 0.41174 0.54999 0.7584 0.0
C740 C 0.43012 0.56778 0.79277 0.0
C741 C 0.41297 0.5766 0.79531 0.0
C742 C 0.39539 0.57218 0.77914 0.0
C743 C 0.39468 0.55888 0.76094 0.0
C744 C 0.40908 0.62275 0.833 0.0
C745 C 0.40783 0.61176 0.85264 0.0
C746 C 0.41129 0.61164 0.81438 0.0
C747 C 0.41265 0.58953 0.81507 0.0
C748 C 0.41237 0.57911 0.83477 0.0
C749 C 0.40982 0.59002 0.85336 0.0
H750 H 0.90512 0.47481 0.93108 0.0
H751 H 0.84427 0.40229 0.90934 0.0
H752 H 0.88263 0.46885 0.96462 0.0
H753 H 0.82214 0.39614 0.94289 0.0
H754 H 0.77636 0.40562 0.99553 0.0
H755 H 0.79957 0.41428 0.9622 0.0
H756 H 0.87032 0.44124 0.99634 0.0
H757 H 0.84711 0.43272 0.02972 0.0
C758 C 0.88698 0.45761 0.93348 0.0
C759 C 0.87651 0.43899 0.9176 0.0
C760 C 0.8742 0.45412 0.95272 0.0
C761 C 0.85057 0.43207 0.95636 0.0
C762 C 0.84016 0.41346 0.94047 0.0
C763 C 0.853 0.41685 0.92135 0.0
C764 C 0.79689 0.41359 0.99592 0.0
C765 C 0.80991 0.41843 0.01523 0.0
C766 C 0.81016 0.41839 0.97684 0.0
C767 C 0.83675 0.42828 0.97665 0.0
C768 C 0.84987 0.43378 0.99598 0.0
C769 C 0.83657 0.42881 0.01508 0.0
H770 H 0.44771 0.91269 0.10021 0.0
H771 H 0.46756 0.85959 0.07487 0.0
H772 H 0.43417 0.88893 0.13334 0.0
H773 H 0.4535 0.83557 0.10774 0.0
H774 H 0.39087 0.78553 0.15812 0.0
H775 H 0.40656 0.81086 0.12606 0.0
H776 H 0.45775 0.87606 0.16348 0.0
H777 H 0.44257 0.85058 0.1956 0.0
C778 C 0.44925 0.89601 0.10181 0.0
C779 C 0.45872 0.88795 0.08511 0.0
C780 C 0.44161 0.88252 0.1207 0.0
C781 C 0.44276 0.86046 0.12295 0.0
C782 C 0.45236 0.85249 0.1063 0.0
C783 C 0.46051 0.86627 0.08761 0.0
C784 C 0.40546 0.80526 0.1595 0.0
C785 C 0.41555 0.81611 0.1793 0.0
C786 C 0.41448 0.81968 0.14118 0.0
C787 C 0.43334 0.84533 0.1424 0.0
C788 C 0.44314 0.85632 0.16221 0.0
C789 C 0.43452 0.84175 0.1805 0.0
H790 H 0.55408 0.46447 0.27335 0.0
H791 H 0.61586 0.45804 0.24617 0.0
H792 H 0.56011 0.44876 0.30708 0.0
H793 H 0.62161 0.44208 0.27963 0.0
H794 H 0.60025 0.38511 0.33388 0.0
H795 H 0.59212 0.40086 0.3013 0.0
H796 H 0.59809 0.46461 0.33536 0.0
H797 H 0.60673 0.44913 0.36801 0.0
C798 C 0.56892 0.45973 0.27464 0.0
C799 C 0.58458 0.46254 0.25725 0.0
C800 C 0.57242 0.45086 0.29388 0.0
C801 C 0.59123 0.44414 0.29584 0.0
C802 C 0.60685 0.44697 0.27845 0.0
C803 C 0.6037 0.45627 0.2594 0.0
C804 C 0.59963 0.40238 0.33446 0.0
C805 C 0.6042 0.41595 0.35344 0.0
C806 C 0.5951 0.41142 0.31582 0.0
C807 C 0.59459 0.43396 0.31587 0.0
C808 C 0.5983 0.44712 0.33497 0.0
C809 C 0.60331 0.43832 0.35358 0.0
H810 H 0.38927 0.89309 0.36441 0.0
H811 H 0.4398 0.87198 0.39361 0.0
H812 H 0.38889 0.87107 0.33227 0.0
H813 H 0.44052 0.85106 0.361 0.0
H814 H 0.40858 0.78964 0.30874 0.0
H815 H 0.41293 0.81389 0.34073 0.0
H816 H 0.41425 0.87262 0.3029 0.0
H817 H 0.40908 0.848 0.27109 0.0
C818 C 0.40043 0.88387 0.36395 0.0
C819 C 0.41444 0.88422 0.38168 0.0
C820 C 0.40049 0.87151 0.34538 0.0
C821 C 0.41469 0.85926 0.34399 0.0
C822 C 0.42913 0.86003 0.36158 0.0
C823 C 0.42899 0.87233 0.3802 0.0
C824 C 0.41002 0.80783 0.30729 0.0
C825 C 0.40832 0.81684 0.28744 0.0
C826 C 0.41264 0.82181 0.32561 0.0
C827 C 0.41376 0.84518 0.32445 0.0
C828 C 0.41293 0.8545 0.30446 0.0
C829 C 0.41014 0.84046 0.2862 0.0
H830 H 0.55344 0.46276 0.5417 0.0
H831 H 0.56064 0.40279 0.56926 0.0
H832 H 0.56872 0.4558 0.50779 0.0
H833 H 0.57612 0.39607 0.53556 0.0
H834 H 0.6335 0.41631 0.48036 0.0
H835 H 0.61737 0.42411 0.51326 0.0
H836 H 0.55285 0.41844 0.4798 0.0
H837 H 0.56873 0.41017 0.44685 0.0
C838 C 0.55822 0.44808 0.54045 0.0
C839 C 0.55579 0.43324 0.55803 0.0
C840 C 0.56684 0.44405 0.5211 0.0
C841 C 0.57369 0.42549 0.51916 0.0
C842 C 0.57114 0.41061 0.53671 0.0
C843 C 0.56209 0.41432 0.5559 0.0
C844 C 0.61595 0.41686 0.48 0.0
C845 C 0.60232 0.41257 0.46108 0.0
C846 C 0.60668 0.42119 0.49882 0.0
C847 C 0.58385 0.42177 0.49902 0.0
C848 C 0.57055 0.41817 0.48002 0.0
C849 C 0.57959 0.41337 0.46123 0.0
H850 H 0.15259 0.58433 0.72851 0.0
H851 H 0.13254 0.51232 0.70058 0.0
H852 H 0.17545 0.6055 0.69648 0.0
H853 H 0.15665 0.53359 0.66908 0.0
H854 H 0.18254 0.57604 0.60774 0.0
H855 H 0.15661 0.55614 0.63889 0.0
H856 H 0.2139 0.61597 0.67796 0.0
H857 H 0.2394 0.63631 0.6466 0.0
C858 C 0.15289 0.57297 0.7155 0.0
C859 C 0.14066 0.54657 0.71717 0.0
C860 C 0.16635 0.58517 0.69723 0.0
C861 C 0.16805 0.57132 0.68018 0.0
C862 C 0.15554 0.5449 0.68176 0.0
C863 C 0.14196 0.53269 0.69997 0.0
C864 C 0.18951 0.58502 0.62298 0.0
C865 C 0.21302 0.6077 0.62475 0.0
C866 C 0.17472 0.57352 0.64087 0.0
C867 C 0.1832 0.58431 0.66101 0.0
C868 C 0.20659 0.60726 0.6627 0.0
C869 C 0.2213 0.61887 0.64475 0.0
H870 H 0.62752 0.13302 0.86513 0.0
H871 H 0.57489 0.15146 0.89498 0.0
H872 H 0.62589 0.15326 0.83302 0.0
H873 H 0.57173 0.17007 0.86225 0.0
H874 H 0.59972 0.23027 0.81006 0.0
H875 H 0.59578 0.2064 0.84175 0.0
H876 H 0.60158 0.15089 0.80368 0.0
H877 H 0.60681 0.17553 0.77224 0.0
C878 C 0.61543 0.14122 0.86483 0.0
C879 C 0.60156 0.14078 0.88281 0.0
C880 C 0.61414 0.15251 0.84621 0.0
C881 C 0.59865 0.16338 0.84492 0.0
C882 C 0.58416 0.16225 0.8627 0.0
C883 C 0.58568 0.1512 0.88143 0.0
C884 C 0.59984 0.21281 0.80849 0.0
C885 C 0.60379 0.20486 0.78874 0.0
C886 C 0.59746 0.19901 0.82666 0.0
C887 C 0.59863 0.17676 0.8254 0.0
C888 C 0.60125 0.16823 0.80539 0.0
C889 C 0.60403 0.18223 0.78731 0.0
H890 H 0.50899 0.61226 0.03136 0.0
H891 H 0.44899 0.61198 0.0684 0.0
H892 H 0.48772 0.61306 0.99904 0.0
H893 H 0.42792 0.61323 0.03617 0.0
H894 H 0.38561 0.59641 0.97383 0.0
H895 H 0.40504 0.59024 0.00516 0.0
H896 H 0.48015 0.64227 0.9804 0.0
H897 H 0.46074 0.6478 0.94894 0.0
C898 C 0.49126 0.61241 0.03257 0.0
C899 C 0.48071 0.61215 0.05241 0.0
C900 C 0.47909 0.61292 0.01407 0.0
C901 C 0.45616 0.61336 0.01497 0.0
C902 C 0.44533 0.61253 0.03484 0.0
C903 C 0.45743 0.61186 0.05333 0.0
C904 C 0.40627 0.60635 0.97505 0.0
C905 C 0.42165 0.62261 0.95895 0.0
C906 C 0.41741 0.60294 0.99305 0.0
C907 C 0.44418 0.6158 0.99536 0.0
C908 C 0.4595 0.63176 0.97905 0.0
C909 C 0.44837 0.63507 0.96104 0.0
H910 H 0.89419 0.43186 0.21667 0.0
H911 H 0.87438 0.48996 0.22044 0.0
H912 H 0.87272 0.41835 0.18253 0.0
H913 H 0.85309 0.47656 0.18638 0.0
H914 H 0.83488 0.45979 0.11671 0.0
H915 H 0.8607 0.47462 0.14878 0.0
H916 H 0.82882 0.39757 0.16914 0.0
H917 H 0.80334 0.38276 0.13692 0.0
C918 C 0.88529 0.44177 0.21022 0.0
C919 C 0.88601 0.46199 0.22132 0.0
C920 C 0.87298 0.43402 0.19066 0.0
C921 C 0.86115 0.44635 0.18174 0.0
C922 C 0.86235 0.4669 0.19264 0.0
C923 C 0.8746 0.47461 0.21218 0.0
C924 C 0.83354 0.44602 0.12798 0.0
C925 C 0.81702 0.42011 0.12435 0.0
C926 C 0.84823 0.45453 0.14639 0.0
C927 C 0.84676 0.43729 0.16156 0.0
C928 C 0.83064 0.41134 0.15767 0.0
C929 C 0.81591 0.40284 0.13927 0.0
loop_
_geom_bond_atom_site_label_1
_geom_bond_atom_site_label_2
_geom_bond_distance
_geom_bond_site_symmetry_2
_ccdc_geom_bond_type
H0 C27 0.929 . S
N1 C26 1.433 . S
N1 C32 1.435 . S
N1 C38 1.423 . S
H2 C28 0.930 . S
H3 C31 0.931 . S
H4 C30 0.929 . S
H5 C33 0.930 . S
H6 C34 0.932 . S
H7 C37 0.929 . S
H8 C36 0.931 . S
H9 C39 0.929 . S
H10 C43 0.932 . S
H11 C40 0.931 . S
H12 C42 0.929 . S
H13 C45 0.929 . S
H14 C46 0.930 . S
H15 C48 0.929 . S
H16 C49 0.931 . S
H17 C51 0.930 . S
H18 C52 0.932 . S
H19 C54 0.931 . S
H20 C55 0.929 . S
H21 C57 0.929 . S
H22 C58 0.931 . S
H23 C60 0.929 . S
N24 C44 1.433 . S
N24 C50 1.435 . S
N24 C56 1.423 . S
H25 C61 0.932 . S
C26 N1 1.433 . S
C26 C27 1.363 . S
C26 C31 1.370 . S
C27 H0 0.929 . S
C27 C26 1.363 . S
C27 C28 1.385 . S
C28 H2 0.930 . S
C28 C27 1.385 . S
C28 C29 1.357 . S
C29 C28 1.357 . S
C29 C30 1.406 . S
C30 H4 0.929 . S
C30 C29 1.406 . S
C30 C31 1.391 . S
C31 H3 0.931 . S
C31 C26 1.370 . S
C31 C30 1.391 . S
C32 N1 1.435 . S
C32 C33 1.358 . S
C32 C37 1.371 . S
C33 H5 0.930 . S
C33 C32 1.358 . S
C33 C34 1.405 . S
C34 H6 0.932 . S
C34 C33 1.405 . S
C34 C35 1.383 . S
C35 C34 1.383 . S
C35 C36 1.393 . S
C36 H8 0.931 . S
C36 C35 1.393 . S
C36 C37 1.382 . S
C37 H7 0.929 . S
C37 C32 1.371 . S
C37 C36 1.382 . S
C38 N1 1.423 . S
C38 C39 1.362 . S
C38 C43 1.388 . S
C39 H9 0.929 . S
C39 C38 1.362 . S
C39 C40 1.376 . S
C40 H11 0.931 . S
C40 C39 1.376 . S
C40 C41 1.396 . S
C41 C40 1.396 . S
C41 C42 1.348 . S
C41 C59 1.472 1_455 S
C42 H12 0.929 . S
C42 C41 1.348 . S
C42 C43 1.443 . S
C43 H10 0.932 . S
C43 C38 1.388 . S
C43 C42 1.443 . S
C44 N24 1.433 . S
C44 C45 1.363 . S
C44 C49 1.370 . S
C45 H13 0.929 . S
C45 C44 1.363 . S
C45 C46 1.385 . S
C46 H14 0.930 . S
C46 C45 1.385 . S
C46 C47 1.357 . S
C47 C46 1.357 . S
C47 C48 1.406 . S
C48 H15 0.929 . S
C48 C47 1.406 . S
C48 C49 1.391 . S
C49 H16 0.931 . S
C49 C44 1.370 . S
C49 C48 1.391 . S
C50 N24 1.435 . S
C50 C51 1.358 . S
C50 C55 1.371 . S
C51 H17 0.930 . S
C51 C50 1.358 . S
C51 C52 1.405 . S
C52 H18 0.932 . S
C52 C51 1.405 . S
C52 C53 1.383 . S
C53 C52 1.383 . S
C53 C54 1.393 . S
C54 H19 0.931 . S
C54 C53 1.393 . S
C54 C55 1.382 . S
C55 H20 0.929 . S
C55 C50 1.371 . S
C55 C54 1.382 . S
C56 N24 1.423 . S
C56 C57 1.362 . S
C56 C61 1.388 . S
C57 H21 0.929 . S
C57 C56 1.362 . S
C57 C58 1.376 . S
C58 H22 0.931 . S
C58 C57 1.376 . S
C58 C59 1.396 . S
C59 C41 1.472 1_655 S
C59 C58 1.396 . S
C59 C60 1.348 . S
C60 H23 0.929 . S
C60 C59 1.348 . S
C60 C61 1.443 . S
C61 H25 0.932 . S
C61 C56 1.388 . S
C61 C60 1.443 . S
H62 C89 0.929 . S
N63 C88 1.433 . S
N63 C94 1.435 . S
N63 C100 1.423 . S
H64 C90 0.930 . S
H65 C93 0.931 . S
H66 C92 0.929 . S
H67 C95 0.930 . S
H68 C96 0.932 . S
H69 C99 0.929 . S
H70 C98 0.931 . S
H71 C101 0.929 . S
H72 C105 0.932 . S
H73 C102 0.931 . S
H74 C104 0.929 1_545 S
H75 C107 0.929 . S
H76 C108 0.930 . S
H77 C110 0.929 . S
H78 C111 0.931 . S
H79 C113 0.930 . S
H80 C114 0.932 . S
H81 C116 0.931 . S
H82 C117 0.929 . S
H83 C119 0.929 . S
H84 C120 0.931 . S
H85 C122 0.929 . S
N86 C106 1.433 . S
N86 C112 1.435 . S
N86 C118 1.423 . S
H87 C123 0.932 . S
C88 N63 1.433 . S
C88 C89 1.363 . S
C88 C93 1.370 . S
C89 H62 0.929 . S
C89 C88 1.363 . S
C89 C90 1.385 . S
C90 H64 0.930 . S
C90 C89 1.385 . S
C90 C91 1.357 . S
C91 C90 1.357 . S
C91 C92 1.406 . S
C92 H66 0.929 . S
C92 C91 1.406 . S
C92 C93 1.391 . S
C93 H65 0.931 . S
C93 C88 1.370 . S
C93 C92 1.391 . S
C94 N63 1.435 . S
C94 C95 1.358 . S
C94 C99 1.371 . S
C95 H67 0.930 . S
C95 C94 1.358 . S
C95 C96 1.405 . S
C96 H68 0.932 . S
C96 C95 1.405 . S
C96 C97 1.383 . S
C97 C96 1.383 . S
C97 C98 1.393 . S
C98 H70 0.931 . S
C98 C97 1.393 . S
C98 C99 1.382 . S
C99 H69 0.929 . S
C99 C94 1.371 . S
C99 C98 1.382 . S
C100 N63 1.423 . S
C100 C101 1.362 . S
C100 C105 1.388 . S
C101 H71 0.929 . S
C101 C100 1.362 . S
C101 C102 1.376 . S
C102 H73 0.931 . S
C102 C101 1.376 . S
C102 C103 1.396 1_565 S
C103 C102 1.396 1_545 S
C103 C104 1.348 1_545 S
C103 C121 1.472 . S
C104 H74 0.929 1_565 S
C104 C103 1.348 1_565 S
C104 C105 1.443 . S
C105 H72 0.932 . S
C105 C100 1.388 . S
C105 C104 1.443 . S
C106 N86 1.433 . S
C106 C107 1.363 . S
C106 C111 1.370 . S
C107 H75 0.929 . S
C107 C106 1.363 . S
C107 C108 1.385 . S
C108 H76 0.930 . S
C108 C107 1.385 . S
C108 C109 1.357 . S
C109 C108 1.357 . S
C109 C110 1.406 . S
C110 H77 0.929 . S
C110 C109 1.406 . S
C110 C111 1.391 . S
C111 H78 0.931 . S
C111 C106 1.370 . S
C111 C110 1.391 . S
C112 N86 1.435 . S
C112 C113 1.358 . S
C112 C117 1.371 . S
C113 H79 0.930 . S
C113 C112 1.358 . S
C113 C114 1.405 . S
C114 H80 0.932 . S
C114 C113 1.405 . S
C114 C115 1.383 . S
C115 C114 1.383 . S
C115 C116 1.393 . S
C116 H81 0.931 . S
C116 C115 1.393 . S
C116 C117 1.382 . S
C117 H82 0.929 . S
C117 C112 1.371 . S
C117 C116 1.382 . S
C118 N86 1.423 . S
C118 C119 1.362 . S
C118 C123 1.388 . S
C119 H83 0.929 . S
C119 C118 1.362 . S
C119 C120 1.376 . S
C120 H84 0.931 . S
C120 C119 1.376 . S
C120 C121 1.396 . S
C121 C103 1.472 . S
C121 C120 1.396 . S
C121 C122 1.348 . S
C122 H85 0.929 . S
C122 C121 1.348 . S
C122 C123 1.443 . S
C123 H87 0.932 . S
C123 C118 1.388 . S
C123 C122 1.443 . S
H124 C151 0.929 . S
N125 C150 1.433 . S
N125 C156 1.435 . S
N125 C162 1.423 . S
H126 C152 0.930 . S
H127 C155 0.931 . S
H128 C154 0.929 . S
H129 C157 0.930 . S
H130 C158 0.932 . S
H131 C161 0.929 . S
H132 C160 0.931 . S
H133 C163 0.929 . S
H134 C167 0.932 . S
H135 C164 0.931 . S
H136 C166 0.929 . S
H137 C169 0.929 . S
H138 C170 0.930 . S
H139 C172 0.929 . S
H140 C173 0.931 . S
H141 C175 0.930 . S
H142 C176 0.932 . S
H143 C178 0.931 . S
H144 C179 0.929 . S
H145 C181 0.929 . S
H146 C182 0.931 . S
H147 C184 0.929 . S
N148 C168 1.433 . S
N148 C174 1.435 . S
N148 C180 1.423 . S
H149 C185 0.932 . S
C150 N125 1.433 . S
C150 C151 1.363 . S
C150 C155 1.370 . S
C151 H124 0.929 . S
C151 C150 1.363 . S
C151 C152 1.385 . S
C152 H126 0.930 . S
C152 C151 1.385 . S
C152 C153 1.357 . S
C153 C152 1.357 . S
C153 C154 1.406 . S
C154 H128 0.929 . S
C154 C153 1.406 . S
C154 C155 1.391 . S
C155 H127 0.931 . S
C155 C150 1.370 . S
C155 C154 1.391 . S
C156 N125 1.435 . S
C156 C157 1.358 . S
C156 C161 1.371 . S
C157 H129 0.930 . S
C157 C156 1.358 . S
C157 C158 1.405 . S
C158 H130 0.932 . S
C158 C157 1.405 . S
C158 C159 1.383 . S
C159 C158 1.383 . S
C159 C160 1.393 . S
C160 H132 0.931 . S
C160 C159 1.393 . S
C160 C161 1.382 . S
C161 H131 0.929 . S
C161 C156 1.371 . S
C161 C160 1.382 . S
C162 N125 1.423 . S
C162 C163 1.362 . S
C162 C167 1.388 . S
C163 H133 0.929 . S
C163 C162 1.362 . S
C163 C164 1.376 . S
C164 H135 0.931 . S
C164 C163 1.376 . S
C164 C165 1.396 . S
C165 C164 1.396 . S
C165 C166 1.348 . S
C165 C183 1.472 . S
C166 H136 0.929 . S
C166 C165 1.348 . S
C166 C167 1.443 . S
C167 H134 0.932 . S
C167 C162 1.388 . S
C167 C166 1.443 . S
C168 N148 1.433 . S
C168 C169 1.363 . S
C168 C173 1.370 . S
C169 H137 0.929 . S
C169 C168 1.363 . S
C169 C170 1.385 . S
C170 H138 0.930 . S
C170 C169 1.385 . S
C170 C171 1.357 . S
C171 C170 1.357 . S
C171 C172 1.406 . S
C172 H139 0.929 . S
C172 C171 1.406 . S
C172 C173 1.391 . S
C173 H140 0.931 . S
C173 C168 1.370 . S
C173 C172 1.391 . S
C174 N148 1.435 . S
C174 C175 1.358 . S
C174 C179 1.371 . S
C175 H141 0.930 . S
C175 C174 1.358 . S
C175 C176 1.405 . S
C176 H142 0.932 . S
C176 C175 1.405 . S
C176 C177 1.383 . S
C177 C176 1.383 . S
C177 C178 1.393 . S
C178 H143 0.931 . S
C178 C177 1.393 . S
C178 C179 1.382 . S
C179 H144 0.929 . S
C179 C174 1.371 . S
C179 C178 1.382 . S
C180 N148 1.423 . S
C180 C181 1.362 . S
C180 C185 1.388 . S
C181 H145 0.929 . S
C181 C180 1.362 . S
C181 C182 1.376 . S
C182 H146 0.931 . S
C182 C181 1.376 . S
C182 C183 1.396 . S
C183 C165 1.472 . S
C183 C182 1.396 . S
C183 C184 1.348 . S
C184 H147 0.929 . S
C184 C183 1.348 . S
C184 C185 1.443 . S
C185 H149 0.932 . S
C185 C180 1.388 . S
C185 C184 1.443 . S
H186 C213 0.929 . S
N187 C212 1.433 . S
N187 C218 1.435 . S
N187 C224 1.423 . S
H188 C214 0.930 . S
H189 C217 0.931 . S
H190 C216 0.929 . S
H191 C219 0.930 . S
H192 C220 0.932 . S
H193 C223 0.929 . S
H194 C222 0.931 . S
H195 C225 0.929 . S
H196 C229 0.932 . S
H197 C226 0.931 . S
H198 C228 0.929 . S
H199 C231 0.929 . S
H200 C232 0.930 . S
H201 C234 0.929 . S
H202 C235 0.931 . S
H203 C237 0.930 . S
H204 C238 0.932 . S
H205 C240 0.931 . S
H206 C241 0.929 . S
H207 C243 0.929 . S
H208 C244 0.931 . S
H209 C246 0.929 . S
N210 C230 1.433 . S
N210 C236 1.435 . S
N210 C242 1.423 . S
H211 C247 0.932 . S
C212 N187 1.433 . S
C212 C213 1.363 . S
C212 C217 1.370 . S
C213 H186 0.929 . S
C213 C212 1.363 . S
C213 C214 1.385 . S
C214 H188 0.930 . S
C214 C213 1.385 . S
C214 C215 1.357 . S
C215 C214 1.357 . S
C215 C216 1.406 . S
C216 H190 0.929 . S
C216 C215 1.406 . S
C216 C217 1.391 . S
C217 H189 0.931 . S
C217 C212 1.370 . S
C217 C216 1.391 . S
C218 N187 1.435 . S
C218 C219 1.358 . S
C218 C223 1.371 . S
C219 H191 0.930 . S
C219 C218 1.358 . S
C219 C220 1.405 . S
C220 H192 0.932 . S
C220 C219 1.405 . S
C220 C221 1.383 . S
C221 C220 1.383 . S
C221 C222 1.393 . S
C222 H194 0.931 . S
C222 C221 1.393 . S
C222 C223 1.382 . S
C223 H193 0.929 . S
C223 C218 1.371 . S
C223 C222 1.382 . S
C224 N187 1.423 . S
C224 C225 1.362 . S
C224 C229 1.388 . S
C225 H195 0.929 . S
C225 C224 1.362 . S
C225 C226 1.376 . S
C226 H197 0.931 . S
C226 C225 1.376 . S
C226 C227 1.396 . S
C227 C226 1.396 . S
C227 C228 1.348 . S
C227 C245 1.472 1_455 S
C228 H198 0.929 . S
C228 C227 1.348 . S
C228 C229 1.443 . S
C229 H196 0.932 . S
C229 C224 1.388 . S
C229 C228 1.443 . S
C230 N210 1.433 . S
C230 C231 1.363 . S
C230 C235 1.370 . S
C231 H199 0.929 . S
C231 C230 1.363 . S
C231 C232 1.385 . S
C232 H200 0.930 . S
C232 C231 1.385 . S
C232 C233 1.357 . S
C233 C232 1.357 . S
C233 C234 1.406 . S
C234 H201 0.929 . S
C234 C233 1.406 . S
C234 C235 1.391 . S
C235 H202 0.931 . S
C235 C230 1.370 . S
C235 C234 1.391 . S
C236 N210 1.435 . S
C236 C237 1.358 . S
C236 C241 1.371 . S
C237 H203 0.930 . S
C237 C236 1.358 . S
C237 C238 1.405 . S
C238 H204 0.932 . S
C238 C237 1.405 . S
C238 C239 1.383 . S
C239 C238 1.383 . S
C239 C240 1.393 . S
C240 H205 0.931 . S
C240 C239 1.393 . S
C240 C241 1.382 . S
C241 H206 0.929 . S
C241 C236 1.371 . S
C241 C240 1.382 . S
C242 N210 1.423 . S
C242 C243 1.362 . S
C242 C247 1.388 . S
C243 H207 0.929 . S
C243 C242 1.362 . S
C243 C244 1.376 . S
C244 H208 0.931 . S
C244 C243 1.376 . S
C244 C245 1.396 . S
C245 C227 1.472 1_655 S
C245 C244 1.396 . S
C245 C246 1.348 . S
C246 H209 0.929 . S
C246 C245 1.348 . S
C246 C247 1.443 . S
C247 H211 0.932 . S
C247 C242 1.388 . S
C247 C246 1.443 . S
H248 C275 0.929 . S
N249 C274 1.433 . S
N249 C280 1.435 . S
N249 C286 1.423 . S
H250 C276 0.930 . S
H251 C279 0.931 . S
H252 C278 0.929 . S
H253 C281 0.930 . S
H254 C282 0.932 . S
H255 C285 0.929 . S
H256 C284 0.931 . S
H257 C287 0.929 . S
H258 C291 0.932 . S
H259 C288 0.931 . S
H260 C290 0.929 . S
H261 C293 0.929 . S
H262 C294 0.930 . S
H263 C296 0.929 . S
H264 C297 0.931 . S
H265 C299 0.930 . S
H266 C300 0.932 . S
H267 C302 0.931 . S
H268 C303 0.929 . S
H269 C305 0.929 . S
H270 C306 0.980 . S
H271 C308 0.929 . S
N272 C292 1.433 . S
N272 C298 1.435 1_554 S
N272 C304 1.443 . S
H273 C309 0.932 . S
C274 N249 1.433 . S
C274 C275 1.363 . S
C274 C279 1.370 . S
C275 H248 0.929 . S
C275 C274 1.363 . S
C275 C276 1.385 . S
C276 H250 0.930 . S
C276 C275 1.385 . S
C276 C277 1.357 1_556 S
C277 C276 1.357 1_554 S
C277 C278 1.406 . S
C278 H252 0.929 . S
C278 C277 1.406 . S
C278 C279 1.391 1_554 S
C279 H251 0.931 . S
C279 C274 1.370 . S
C279 C278 1.391 1_556 S
C280 N249 1.435 . S
C280 C281 1.358 . S
C280 C285 1.371 . S
C281 H253 0.930 . S
C281 C280 1.358 . S
C281 C282 1.405 . S
C282 H254 0.932 . S
C282 C281 1.405 . S
C282 C283 1.383 . S
C283 C282 1.383 . S
C283 C284 1.393 . S
C284 H256 0.931 . S
C284 C283 1.393 . S
C284 C285 1.382 . S
C285 H255 0.929 . S
C285 C280 1.371 . S
C285 C284 1.382 . S
C286 N249 1.423 . S
C286 C287 1.362 . S
C286 C291 1.388 . S
C287 H257 0.929 . S
C287 C286 1.362 . S
C287 C288 1.376 . S
C288 H259 0.931 . S
C288 C287 1.376 . S
C288 C289 1.396 . S
C289 C288 1.396 . S
C289 C290 1.348 . S
C289 C307 1.472 1_545 S
C290 H260 0.929 . S
C290 C289 1.348 . S
C290 C291 1.443 . S
C291 H258 0.932 . S
C291 C286 1.388 . S
C291 C290 1.443 . S
C292 N272 1.433 . S
C292 C293 1.363 . S
C292 C297 1.370 . S
C293 H261 0.929 . S
C293 C292 1.363 . S
C293 C294 1.385 . S
C294 H262 0.930 . S
C294 C293 1.385 . S
C294 C295 1.357 . S
C295 C294 1.357 . S
C295 C296 1.406 . S
C296 H263 0.929 . S
C296 C295 1.406 . S
C296 C297 1.391 . S
C297 H264 0.931 . S
C297 C292 1.370 . S
C297 C296 1.391 . S
C298 N272 1.435 1_556 S
C298 C299 1.358 1_556 S
C298 C303 1.371 . S
C299 H265 0.930 . S
C299 C298 1.358 1_554 S
C299 C300 1.405 1_554 S
C300 H266 0.932 . S
C300 C299 1.405 1_556 S
C300 C301 1.383 . S
C301 C300 1.383 . S
C301 C302 1.393 . S
C302 H267 0.931 . S
C302 C301 1.393 . S
C302 C303 1.382 . S
C303 H268 0.929 . S
C303 C298 1.371 . S
C303 C302 1.382 . S
C304 N272 1.443 . S
C304 C305 1.381 . S
C304 C309 1.352 1_554 S
C305 H269 0.929 . S
C305 C304 1.381 . S
C305 C306 1.376 . S
C306 H270 0.980 . S
C306 C305 1.376 . S
C306 C307 1.396 1_554 S
C307 C289 1.472 1_565 S
C307 C306 1.396 1_556 S
C307 C308 1.348 . S
C308 H271 0.929 . S
C308 C307 1.348 . S
C308 C309 1.443 . S
C309 H273 0.932 . S
C309 C304 1.352 1_556 S
C309 C308 1.443 . S
H310 C337 0.929 . S
N311 C336 1.433 . S
N311 C342 1.435 . S
N311 C348 1.423 . S
H312 C338 0.930 . S
H313 C341 0.931 . S
H314 C340 0.929 . S
H315 C343 0.930 . S
H316 C344 0.932 . S
H317 C347 0.929 . S
H318 C346 0.931 . S
H319 C349 0.929 . S
H320 C353 0.932 . S
H321 C350 0.931 . S
H322 C352 0.929 . S
H323 C355 0.929 . S
H324 C356 0.930 . S
H325 C358 0.929 . S
H326 C359 0.931 . S
H327 C361 0.930 . S
H328 C362 0.932 . S
H329 C364 0.931 . S
H330 C365 0.929 . S
H331 C367 0.929 . S
H332 C368 0.931 . S
H333 C370 0.929 . S
N334 C354 1.433 . S
N334 C360 1.435 . S
N334 C366 1.423 . S
H335 C371 0.932 . S
C336 N311 1.433 . S
C336 C337 1.363 . S
C336 C341 1.370 . S
C337 H310 0.929 . S
C337 C336 1.363 . S
C337 C338 1.385 . S
C338 H312 0.930 . S
C338 C337 1.385 . S
C338 C339 1.357 . S
C339 C338 1.357 . S
C339 C340 1.406 . S
C340 H314 0.929 . S
C340 C339 1.406 . S
C340 C341 1.391 . S
C341 H313 0.931 . S
C341 C336 1.370 . S
C341 C340 1.391 . S
C342 N311 1.435 . S
C342 C343 1.358 . S
C342 C347 1.371 . S
C343 H315 0.930 . S
C343 C342 1.358 . S
C343 C344 1.405 . S
C344 H316 0.932 . S
C344 C343 1.405 . S
C344 C345 1.383 . S
C345 C344 1.383 . S
C345 C346 1.393 . S
C346 H318 0.931 . S
C346 C345 1.393 . S
C346 C347 1.382 . S
C347 H317 0.929 . S
C347 C342 1.371 . S
C347 C346 1.382 . S
C348 N311 1.423 . S
C348 C349 1.362 . S
C348 C353 1.388 . S
C349 H319 0.929 . S
C349 C348 1.362 . S
C349 C350 1.376 . S
C350 H321 0.931 . S
C350 C349 1.376 . S
C350 C351 1.396 . S
C351 C350 1.396 . S
C351 C352 1.348 . S
C351 C369 1.472 . S
C352 H322 0.929 . S
C352 C351 1.348 . S
C352 C353 1.443 . S
C353 H320 0.932 . S
C353 C348 1.388 . S
C353 C352 1.443 . S
C354 N334 1.433 . S
C354 C355 1.363 . S
C354 C359 1.370 . S
C355 H323 0.929 . S
C355 C354 1.363 . S
C355 C356 1.385 . S
C356 H324 0.930 . S
C356 C355 1.385 . S
C356 C357 1.357 . S
C357 C356 1.357 . S
C357 C358 1.406 . S
C358 H325 0.929 . S
C358 C357 1.406 . S
C358 C359 1.391 . S
C359 H326 0.931 . S
C359 C354 1.370 . S
C359 C358 1.391 . S
C360 N334 1.435 . S
C360 C361 1.358 . S
C360 C365 1.371 . S
C361 H327 0.930 . S
C361 C360 1.358 . S
C361 C362 1.405 . S
C362 H328 0.932 . S
C362 C361 1.405 . S
C362 C363 1.383 . S
C363 C362 1.383 . S
C363 C364 1.393 . S
C364 H329 0.931 . S
C364 C363 1.393 . S
C364 C365 1.382 . S
C365 H330 0.929 . S
C365 C360 1.371 . S
C365 C364 1.382 . S
C366 N334 1.423 . S
C366 C367 1.362 . S
C366 C371 1.388 . S
C367 H331 0.929 . S
C367 C366 1.362 . S
C367 C368 1.376 . S
C368 H332 0.931 . S
C368 C367 1.376 . S
C368 C369 1.396 . S
C369 C351 1.472 . S
C369 C368 1.396 . S
C369 C370 1.348 . S
C370 H333 0.929 . S
C370 C369 1.348 . S
C370 C371 1.443 . S
C371 H335 0.932 . S
C371 C366 1.388 . S
C371 C370 1.443 . S
In372 O373 2.294 . S
In372 O374 2.326 . S
In372 O378 2.266 . S
In372 O379 2.326 . S
In372 O380 2.266 . S
In372 O381 2.326 . S
In372 O383 2.294 . S
In372 O384 2.326 . S
O373 In372 2.294 . S
O373 C382 1.240 . S
O374 In372 2.326 . S
O374 C382 1.252 . S
C375 O378 1.252 . S
C375 O379 1.260 . S
C376 O383 1.240 . S
C376 O384 1.252 . S
C377 O380 1.252 . S
C377 O381 1.260 . S
O378 In372 2.266 . S
O378 C375 1.252 . S
O379 In372 2.326 . S
O379 C375 1.260 . S
O380 In372 2.266 . S
O380 C377 1.252 . S
O381 In372 2.326 . S
O381 C377 1.260 . S
C382 O373 1.240 . S
C382 O374 1.252 . S
O383 In372 2.294 . S
O383 C376 1.240 . S
O384 In372 2.326 . S
O384 C376 1.252 . S
In385 O386 2.294 . S
In385 O387 2.326 . S
In385 O391 2.266 . S
In385 O392 2.326 . S
In385 O393 2.266 . S
In385 O394 2.326 . S
In385 O396 2.294 . S
In385 O397 2.326 . S
O386 In385 2.294 . S
O386 C395 1.240 . S
O387 In385 2.326 . S
O387 C395 1.252 . S
C388 O391 1.252 . S
C388 O392 1.260 . S
C389 O396 1.240 . S
C389 O397 1.252 . S
C390 O393 1.252 . S
C390 O394 1.260 . S
O391 In385 2.266 . S
O391 C388 1.252 . S
O392 In385 2.326 . S
O392 C388 1.260 . S
O393 In385 2.266 . S
O393 C390 1.252 . S
O394 In385 2.326 . S
O394 C390 1.260 . S
C395 O386 1.240 . S
C395 O387 1.252 . S
O396 In385 2.294 . S
O396 C389 1.240 . S
O397 In385 2.326 . S
O397 C389 1.252 . S
In398 O399 2.294 . S
In398 O400 2.326 . S
In398 O404 2.266 . S
In398 O405 2.326 . S
In398 O406 2.266 . S
In398 O407 2.326 . S
In398 O409 2.294 . S
In398 O410 2.326 . S
O399 In398 2.294 . S
O399 C408 1.240 . S
O400 In398 2.326 . S
O400 C408 1.252 . S
C401 O404 1.252 . S
C401 O405 1.260 . S
C402 O409 1.240 . S
C402 O410 1.252 . S
C403 O406 1.252 . S
C403 O407 1.260 . S
O404 In398 2.266 . S
O404 C401 1.252 . S
O405 In398 2.326 . S
O405 C401 1.260 . S
O406 In398 2.266 . S
O406 C403 1.252 . S
O407 In398 2.326 . S
O407 C403 1.260 . S
C408 O399 1.240 . S
C408 O400 1.252 . S
O409 In398 2.294 . S
O409 C402 1.240 . S
O410 In398 2.326 . S
O410 C402 1.252 . S
In411 O412 2.294 . S
In411 O413 2.326 . S
In411 O417 2.266 . S
In411 O418 2.326 . S
In411 O419 2.266 . S
In411 O420 2.326 . S
In411 O422 2.294 . S
In411 O423 2.326 . S
O412 In411 2.294 . S
O412 C421 1.240 . S
O413 In411 2.326 . S
O413 C421 1.252 . S
C414 O417 1.252 . S
C414 O418 1.260 . S
C415 O422 1.240 . S
C415 O423 1.252 . S
C416 O419 1.252 . S
C416 O420 1.260 . S
O417 In411 2.266 . S
O417 C414 1.252 . S
O418 In411 2.326 . S
O418 C414 1.260 . S
O419 In411 2.266 . S
O419 C416 1.252 . S
O420 In411 2.326 . S
O420 C416 1.260 . S
C421 O412 1.240 . S
C421 O413 1.252 . S
O422 In411 2.294 . S
O422 C415 1.240 . S
O423 In411 2.326 . S
O423 C415 1.252 . S
In424 O425 2.294 . S
In424 O426 2.326 . S
In424 O430 2.266 . S
In424 O431 2.326 . S
In424 O432 2.266 . S
In424 O433 2.326 . S
In424 O435 2.294 . S
In424 O436 2.326 . S
O425 In424 2.294 . S
O425 C434 1.240 . S
O426 In424 2.326 . S
O426 C434 1.252 . S
C427 O430 1.252 . S
C427 O431 1.260 . S
C428 O435 1.240 . S
C428 O436 1.252 . S
C429 O432 1.252 . S
C429 O433 1.260 . S
O430 In424 2.266 . S
O430 C427 1.252 . S
O431 In424 2.326 . S
O431 C427 1.260 . S
O432 In424 2.266 . S
O432 C429 1.252 . S
O433 In424 2.326 . S
O433 C429 1.260 . S
C434 O425 1.240 . S
C434 O426 1.252 . S
O435 In424 2.294 . S
O435 C428 1.240 . S
O436 In424 2.326 . S
O436 C428 1.252 . S
In437 O438 2.294 . S
In437 O439 2.326 . S
In437 O443 2.266 . S
In437 O444 2.326 . S
In437 O445 2.266 . S
In437 O446 2.326 . S
In437 O448 2.294 . S
In437 O449 2.326 . S
O438 In437 2.294 . S
O438 C447 1.240 . S
O439 In437 2.326 . S
O439 C447 1.252 . S
C440 O443 1.252 . S
C440 O444 1.260 . S
C441 O448 1.240 . S
C441 O449 1.252 . S
C442 O445 1.252 . S
C442 O446 1.260 . S
O443 In437 2.266 . S
O443 C440 1.252 . S
O444 In437 2.326 . S
O444 C440 1.260 . S
O445 In437 2.266 . S
O445 C442 1.252 . S
O446 In437 2.326 . S
O446 C442 1.260 . S
C447 O438 1.240 . S
C447 O439 1.252 . S
O448 In437 2.294 . S
O448 C441 1.240 . S
O449 In437 2.326 . S
O449 C441 1.252 . S
H450 C458 0.950 . S
H451 C463 0.950 . S
H452 C460 0.950 . S
H453 C462 0.950 . S
H454 C464 0.950 . S
H455 C466 0.950 . S
H456 C468 0.950 . S
H457 C469 0.950 . S
C458 H450 0.950 . S
C458 C459 1.386 . S
C458 C460 1.391 . S
C459 C458 1.386 . S
C459 C463 1.393 . S
C460 H452 0.950 . S
C460 C458 1.391 . S
C460 C461 1.400 . S
C461 C460 1.400 . S
C461 C462 1.398 . S
C461 C467 1.491 . S
C462 H453 0.950 . S
C462 C461 1.398 . S
C462 C463 1.391 . S
C463 H451 0.950 . S
C463 C459 1.393 . S
C463 C462 1.391 . S
C464 H454 0.950 . S
C464 C465 1.386 . S
C464 C466 1.391 . S
C465 C464 1.386 . S
C465 C469 1.393 . S
C466 H455 0.950 . S
C466 C464 1.391 . S
C466 C467 1.400 . S
C467 C461 1.491 . S
C467 C466 1.400 . S
C467 C468 1.398 . S
C468 H456 0.950 . S
C468 C467 1.398 . S
C468 C469 1.391 . S
C469 H457 0.950 . S
C469 C465 1.393 . S
C469 C468 1.391 . S
H470 C478 0.950 . S
H471 C483 0.950 . S
H472 C480 0.950 . S
H473 C482 0.950 . S
H474 C484 0.950 . S
H475 C486 0.950 . S
H476 C488 0.950 . S
H477 C489 0.950 . S
C478 H470 0.950 . S
C478 C479 1.386 . S
C478 C480 1.391 . S
C479 C478 1.386 . S
C479 C483 1.393 . S
C480 H472 0.950 . S
C480 C478 1.391 . S
C480 C481 1.400 . S
C481 C480 1.400 . S
C481 C482 1.398 . S
C481 C487 1.491 . S
C482 H473 0.950 . S
C482 C481 1.398 . S
C482 C483 1.391 . S
C483 H471 0.950 . S
C483 C479 1.393 . S
C483 C482 1.391 . S
C484 H474 0.950 . S
C484 C485 1.386 . S
C484 C486 1.391 . S
C485 C484 1.386 . S
C485 C489 1.393 . S
C486 H475 0.950 . S
C486 C484 1.391 . S
C486 C487 1.400 . S
C487 C481 1.491 . S
C487 C486 1.400 . S
C487 C488 1.398 . S
C488 H476 0.950 . S
C488 C487 1.398 . S
C488 C489 1.391 . S
C489 H477 0.950 . S
C489 C485 1.393 . S
C489 C488 1.391 . S
H490 C498 0.950 . S
H491 C503 0.950 . S
H492 C500 0.950 . S
H493 C502 0.950 . S
H494 C504 0.950 . S
H495 C506 0.950 . S
H496 C508 0.950 . S
H497 C509 0.950 . S
C498 H490 0.950 . S
C498 C499 1.386 . S
C498 C500 1.391 . S
C499 C498 1.386 . S
C499 C503 1.393 . S
C500 H492 0.950 . S
C500 C498 1.391 . S
C500 C501 1.400 . S
C501 C500 1.400 . S
C501 C502 1.398 . S
C501 C507 1.491 . S
C502 H493 0.950 . S
C502 C501 1.398 . S
C502 C503 1.391 . S
C503 H491 0.950 . S
C503 C499 1.393 . S
C503 C502 1.391 . S
C504 H494 0.950 . S
C504 C505 1.386 . S
C504 C506 1.391 . S
C505 C504 1.386 . S
C505 C509 1.393 . S
C506 H495 0.950 . S
C506 C504 1.391 . S
C506 C507 1.400 . S
C507 C501 1.491 . S
C507 C506 1.400 . S
C507 C508 1.398 . S
C508 H496 0.950 . S
C508 C507 1.398 . S
C508 C509 1.391 . S
C509 H497 0.950 . S
C509 C505 1.393 . S
C509 C508 1.391 . S
H510 C518 0.950 . S
H511 C523 0.950 . S
H512 C520 0.950 . S
H513 C522 0.950 . S
H514 C524 0.950 . S
H515 C526 0.950 . S
H516 C528 0.950 . S
H517 C529 0.950 . S
C518 H510 0.950 . S
C518 C519 1.386 . S
C518 C520 1.391 . S
C519 C518 1.386 . S
C519 C523 1.393 . S
C520 H512 0.950 . S
C520 C518 1.391 . S
C520 C521 1.400 . S
C521 C520 1.400 . S
C521 C522 1.398 . S
C521 C527 1.491 . S
C522 H513 0.950 . S
C522 C521 1.398 . S
C522 C523 1.391 . S
C523 H511 0.950 . S
C523 C519 1.393 . S
C523 C522 1.391 . S
C524 H514 0.950 . S
C524 C525 1.386 . S
C524 C526 1.391 . S
C525 C524 1.386 . S
C525 C529 1.393 . S
C526 H515 0.950 . S
C526 C524 1.391 . S
C526 C527 1.400 . S
C527 C521 1.491 . S
C527 C526 1.400 . S
C527 C528 1.398 . S
C528 H516 0.950 . S
C528 C527 1.398 . S
C528 C529 1.391 . S
C529 H517 0.950 . S
C529 C525 1.393 . S
C529 C528 1.391 . S
H530 C538 0.950 . S
H531 C543 0.950 . S
H532 C540 0.950 . S
H533 C542 0.950 . S
H534 C544 0.950 . S
H535 C546 0.950 . S
H536 C548 0.950 . S
H537 C549 0.950 . S
C538 H530 0.950 . S
C538 C539 1.386 . S
C538 C540 1.391 . S
C539 C538 1.386 . S
C539 C543 1.393 . S
C540 H532 0.950 . S
C540 C538 1.391 . S
C540 C541 1.400 . S
C541 C540 1.400 . S
C541 C542 1.398 . S
C541 C547 1.491 . S
C542 H533 0.950 . S
C542 C541 1.398 . S
C542 C543 1.391 . S
C543 H531 0.950 . S
C543 C539 1.393 . S
C543 C542 1.391 . S
C544 H534 0.950 . S
C544 C545 1.386 . S
C544 C546 1.391 . S
C545 C544 1.386 . S
C545 C549 1.393 . S
C546 H535 0.950 . S
C546 C544 1.391 . S
C546 C547 1.400 . S
C547 C541 1.491 . S
C547 C546 1.400 . S
C547 C548 1.398 . S
C548 H536 0.950 . S
C548 C547 1.398 . S
C548 C549 1.391 . S
C549 H537 0.950 . S
C549 C545 1.393 . S
C549 C548 1.391 . S
H550 C558 0.950 . S
H551 C563 0.950 . S
H552 C560 0.950 . S
H553 C562 0.950 . S
H554 C564 0.950 . S
H555 C566 0.950 . S
H556 C568 0.950 . S
H557 C569 0.950 . S
C558 H550 0.950 . S
C558 C559 1.386 . S
C558 C560 1.391 . S
C559 C558 1.386 . S
C559 C563 1.393 . S
C560 H552 0.950 . S
C560 C558 1.391 . S
C560 C561 1.400 . S
C561 C560 1.400 . S
C561 C562 1.398 . S
C561 C567 1.491 . S
C562 H553 0.950 . S
C562 C561 1.398 . S
C562 C563 1.391 . S
C563 H551 0.950 . S
C563 C559 1.393 . S
C563 C562 1.391 . S
C564 H554 0.950 . S
C564 C565 1.386 . S
C564 C566 1.391 . S
C565 C564 1.386 . S
C565 C569 1.393 . S
C566 H555 0.950 . S
C566 C564 1.391 . S
C566 C567 1.400 . S
C567 C561 1.491 . S
C567 C566 1.400 . S
C567 C568 1.398 . S
C568 H556 0.950 . S
C568 C567 1.398 . S
C568 C569 1.391 . S
C569 H557 0.950 . S
C569 C565 1.393 . S
C569 C568 1.391 . S
H570 C578 0.950 . S
H571 C583 0.950 . S
H572 C580 0.950 . S
H573 C582 0.950 . S
H574 C584 0.950 . S
H575 C586 0.950 . S
H576 C588 0.950 . S
H577 C589 0.950 . S
C578 H570 0.950 . S
C578 C579 1.386 . S
C578 C580 1.391 . S
C579 C578 1.386 . S
C579 C583 1.393 . S
C580 H572 0.950 . S
C580 C578 1.391 . S
C580 C581 1.400 . S
C581 C580 1.400 . S
C581 C582 1.398 . S
C581 C587 1.491 . S
C582 H573 0.950 . S
C582 C581 1.398 . S
C582 C583 1.391 . S
C583 H571 0.950 . S
C583 C579 1.393 . S
C583 C582 1.391 . S
C584 H574 0.950 . S
C584 C585 1.386 . S
C584 C586 1.391 . S
C585 C584 1.386 . S
C585 C589 1.393 . S
C586 H575 0.950 . S
C586 C584 1.391 . S
C586 C587 1.400 . S
C587 C581 1.491 . S
C587 C586 1.400 . S
C587 C588 1.398 . S
C588 H576 0.950 . S
C588 C587 1.398 . S
C588 C589 1.391 . S
C589 H577 0.950 . S
C589 C585 1.393 . S
C589 C588 1.391 . S
H590 C598 0.950 . S
H591 C603 0.950 . S
H592 C600 0.950 . S
H593 C602 0.950 . S
H594 C604 0.950 . S
H595 C606 0.950 . S
H596 C608 0.950 . S
H597 C609 0.950 . S
C598 H590 0.950 . S
C598 C599 1.386 . S
C598 C600 1.391 . S
C599 C598 1.386 . S
C599 C603 1.393 . S
C600 H592 0.950 . S
C600 C598 1.391 . S
C600 C601 1.400 . S
C601 C600 1.400 . S
C601 C602 1.398 . S
C601 C607 1.491 . S
C602 H593 0.950 . S
C602 C601 1.398 . S
C602 C603 1.391 . S
C603 H591 0.950 . S
C603 C599 1.393 . S
C603 C602 1.391 . S
C604 H594 0.950 . S
C604 C605 1.386 . S
C604 C606 1.391 . S
C605 C604 1.386 . S
C605 C609 1.393 . S
C606 H595 0.950 . S
C606 C604 1.391 . S
C606 C607 1.400 . S
C607 C601 1.491 . S
C607 C606 1.400 . S
C607 C608 1.398 . S
C608 H596 0.950 . S
C608 C607 1.398 . S
C608 C609 1.391 . S
C609 H597 0.950 . S
C609 C605 1.393 . S
C609 C608 1.391 . S
H610 C618 0.950 . S
H611 C623 0.950 . S
H612 C620 0.950 . S
H613 C622 0.950 . S
H614 C624 0.950 . S
H615 C626 0.950 . S
H616 C628 0.950 . S
H617 C629 0.950 . S
C618 H610 0.950 . S
C618 C619 1.386 . S
C618 C620 1.391 . S
C619 C618 1.386 . S
C619 C623 1.393 . S
C620 H612 0.950 . S
C620 C618 1.391 . S
C620 C621 1.400 . S
C621 C620 1.400 . S
C621 C622 1.398 . S
C621 C627 1.491 . S
C622 H613 0.950 . S
C622 C621 1.398 . S
C622 C623 1.391 . S
C623 H611 0.950 . S
C623 C619 1.393 . S
C623 C622 1.391 . S
C624 H614 0.950 . S
C624 C625 1.386 . S
C624 C626 1.391 . S
C625 C624 1.386 . S
C625 C629 1.393 . S
C626 H615 0.950 . S
C626 C624 1.391 . S
C626 C627 1.400 . S
C627 C621 1.491 . S
C627 C626 1.400 . S
C627 C628 1.398 . S
C628 H616 0.950 . S
C628 C627 1.398 . S
C628 C629 1.391 . S
C629 H617 0.950 . S
C629 C625 1.393 . S
C629 C628 1.391 . S
H630 C638 0.950 . S
H631 C643 0.950 . S
H632 C640 0.950 . S
H633 C642 0.950 . S
H634 C644 0.950 . S
H635 C646 0.950 . S
H636 C648 0.950 . S
H637 C649 0.950 . S
C638 H630 0.950 . S
C638 C639 1.386 . S
C638 C640 1.391 . S
C639 C638 1.386 . S
C639 C643 1.393 . S
C640 H632 0.950 . S
C640 C638 1.391 . S
C640 C641 1.400 . S
C641 C640 1.400 . S
C641 C642 1.398 . S
C641 C647 1.491 . S
C642 H633 0.950 . S
C642 C641 1.398 . S
C642 C643 1.391 . S
C643 H631 0.950 . S
C643 C639 1.393 . S
C643 C642 1.391 . S
C644 H634 0.950 . S
C644 C645 1.386 . S
C644 C646 1.391 . S
C645 C644 1.386 . S
C645 C649 1.393 . S
C646 H635 0.950 . S
C646 C644 1.391 . S
C646 C647 1.400 . S
C647 C641 1.491 . S
C647 C646 1.400 . S
C647 C648 1.398 . S
C648 H636 0.950 . S
C648 C647 1.398 . S
C648 C649 1.391 . S
C649 H637 0.950 . S
C649 C645 1.393 . S
C649 C648 1.391 . S
H650 C658 0.950 . S
H651 C663 0.950 . S
H652 C660 0.950 . S
H653 C662 0.950 . S
H654 C664 0.950 . S
H655 C666 0.950 . S
H656 C668 0.950 . S
H657 C669 0.950 . S
C658 H650 0.950 . S
C658 C659 1.386 . S
C658 C660 1.391 . S
C659 C658 1.386 . S
C659 C663 1.393 . S
C660 H652 0.950 . S
C660 C658 1.391 . S
C660 C661 1.400 . S
C661 C660 1.400 . S
C661 C662 1.398 . S
C661 C667 1.491 . S
C662 H653 0.950 . S
C662 C661 1.398 . S
C662 C663 1.391 . S
C663 H651 0.950 . S
C663 C659 1.393 . S
C663 C662 1.391 . S
C664 H654 0.950 . S
C664 C665 1.386 . S
C664 C666 1.391 . S
C665 C664 1.386 . S
C665 C669 1.393 . S
C666 H655 0.950 . S
C666 C664 1.391 . S
C666 C667 1.400 . S
C667 C661 1.491 . S
C667 C666 1.400 . S
C667 C668 1.398 . S
C668 H656 0.950 . S
C668 C667 1.398 . S
C668 C669 1.391 . S
C669 H657 0.950 . S
C669 C665 1.393 . S
C669 C668 1.391 . S
H670 C678 0.950 . S
H671 C683 0.950 . S
H672 C680 0.950 . S
H673 C682 0.950 . S
H674 C684 0.950 . S
H675 C686 0.950 . S
H676 C688 0.950 . S
H677 C689 0.950 . S
C678 H670 0.950 . S
C678 C679 1.386 . S
C678 C680 1.391 . S
C679 C678 1.386 . S
C679 C683 1.393 . S
C680 H672 0.950 . S
C680 C678 1.391 . S
C680 C681 1.400 . S
C681 C680 1.400 . S
C681 C682 1.398 . S
C681 C687 1.491 . S
C682 H673 0.950 . S
C682 C681 1.398 . S
C682 C683 1.391 . S
C683 H671 0.950 . S
C683 C679 1.393 . S
C683 C682 1.391 . S
C684 H674 0.950 . S
C684 C685 1.386 . S
C684 C686 1.391 . S
C685 C684 1.386 . S
C685 C689 1.393 . S
C686 H675 0.950 . S
C686 C684 1.391 . S
C686 C687 1.400 . S
C687 C681 1.491 . S
C687 C686 1.400 . S
C687 C688 1.398 . S
C688 H676 0.950 . S
C688 C687 1.398 . S
C688 C689 1.391 . S
C689 H677 0.950 . S
C689 C685 1.393 . S
C689 C688 1.391 . S
H690 C698 0.950 . S
H691 C703 0.950 . S
H692 C700 0.950 . S
H693 C702 0.950 . S
H694 C704 0.950 . S
H695 C706 0.950 . S
H696 C708 0.950 . S
H697 C709 0.950 . S
C698 H690 0.950 . S
C698 C699 1.386 . S
C698 C700 1.391 . S
C699 C698 1.386 . S
C699 C703 1.393 . S
C700 H692 0.950 . S
C700 C698 1.391 . S
C700 C701 1.400 . S
C701 C700 1.400 . S
C701 C702 1.398 . S
C701 C707 1.491 . S
C702 H693 0.950 . S
C702 C701 1.398 . S
C702 C703 1.391 . S
C703 H691 0.950 . S
C703 C699 1.393 . S
C703 C702 1.391 . S
C704 H694 0.950 . S
C704 C705 1.386 . S
C704 C706 1.391 . S
C705 C704 1.386 . S
C705 C709 1.393 . S
C706 H695 0.950 . S
C706 C704 1.391 . S
C706 C707 1.400 . S
C707 C701 1.491 . S
C707 C706 1.400 . S
C707 C708 1.398 . S
C708 H696 0.950 . S
C708 C707 1.398 . S
C708 C709 1.391 . S
C709 H697 0.950 . S
C709 C705 1.393 . S
C709 C708 1.391 . S
H710 C718 0.950 . S
H711 C723 0.950 . S
H712 C720 0.950 . S
H713 C722 0.950 . S
H714 C724 0.950 . S
H715 C726 0.950 . S
H716 C728 0.950 . S
H717 C729 0.950 . S
C718 H710 0.950 . S
C718 C719 1.386 . S
C718 C720 1.391 . S
C719 C718 1.386 . S
C719 C723 1.393 . S
C720 H712 0.950 . S
C720 C718 1.391 . S
C720 C721 1.400 . S
C721 C720 1.400 . S
C721 C722 1.398 . S
C721 C727 1.491 . S
C722 H713 0.950 . S
C722 C721 1.398 . S
C722 C723 1.391 . S
C723 H711 0.950 . S
C723 C719 1.393 . S
C723 C722 1.391 . S
C724 H714 0.950 . S
C724 C725 1.386 . S
C724 C726 1.391 . S
C725 C724 1.386 . S
C725 C729 1.393 . S
C726 H715 0.950 . S
C726 C724 1.391 . S
C726 C727 1.400 . S
C727 C721 1.491 . S
C727 C726 1.400 . S
C727 C728 1.398 . S
C728 H716 0.950 . S
C728 C727 1.398 . S
C728 C729 1.391 . S
C729 H717 0.950 . S
C729 C725 1.393 . S
C729 C728 1.391 . S
H730 C738 0.950 . S
H731 C743 0.950 . S
H732 C740 0.950 . S
H733 C742 0.950 . S
H734 C744 0.950 . S
H735 C746 0.950 . S
H736 C748 0.950 . S
H737 C749 0.950 . S
C738 H730 0.950 . S
C738 C739 1.386 . S
C738 C740 1.391 . S
C739 C738 1.386 . S
C739 C743 1.393 . S
C740 H732 0.950 . S
C740 C738 1.391 . S
C740 C741 1.400 . S
C741 C740 1.400 . S
C741 C742 1.398 . S
C741 C747 1.491 . S
C742 H733 0.950 . S
C742 C741 1.398 . S
C742 C743 1.391 . S
C743 H731 0.950 . S
C743 C739 1.393 . S
C743 C742 1.391 . S
C744 H734 0.950 . S
C744 C745 1.386 . S
C744 C746 1.391 . S
C745 C744 1.386 . S
C745 C749 1.393 . S
C746 H735 0.950 . S
C746 C744 1.391 . S
C746 C747 1.400 . S
C747 C741 1.491 . S
C747 C746 1.400 . S
C747 C748 1.398 . S
C748 H736 0.950 . S
C748 C747 1.398 . S
C748 C749 1.391 . S
C749 H737 0.950 . S
C749 C745 1.393 . S
C749 C748 1.391 . S
H750 C758 0.950 . S
H751 C763 0.950 . S
H752 C760 0.950 . S
H753 C762 0.950 . S
H754 C764 0.950 . S
H755 C766 0.950 . S
H756 C768 0.951 . S
H757 C769 0.950 . S
C758 H750 0.950 . S
C758 C759 1.386 . S
C758 C760 1.391 . S
C759 C758 1.386 . S
C759 C763 1.393 . S
C760 H752 0.950 . S
C760 C758 1.391 . S
C760 C761 1.400 . S
C761 C760 1.400 . S
C761 C762 1.398 . S
C761 C767 1.491 . S
C762 H753 0.950 . S
C762 C761 1.398 . S
C762 C763 1.391 . S
C763 H751 0.950 . S
C763 C759 1.393 . S
C763 C762 1.391 . S
C764 H754 0.950 . S
C764 C765 1.386 1_556 S
C764 C766 1.391 . S
C765 C764 1.386 1_554 S
C765 C769 1.393 . S
C766 H755 0.950 . S
C766 C764 1.391 . S
C766 C767 1.400 . S
C767 C761 1.491 . S
C767 C766 1.400 . S
C767 C768 1.392 1_556 S
C768 H756 0.951 . S
C768 C767 1.392 1_554 S
C768 C769 1.396 . S
C769 H757 0.950 . S
C769 C765 1.393 . S
C769 C768 1.396 . S
H770 C778 0.950 . S
H771 C783 0.950 . S
H772 C780 0.950 . S
H773 C782 0.950 . S
H774 C784 0.950 . S
H775 C786 0.950 . S
H776 C788 0.950 . S
H777 C789 0.950 . S
C778 H770 0.950 . S
C778 C779 1.386 . S
C778 C780 1.391 . S
C779 C778 1.386 . S
C779 C783 1.393 . S
C780 H772 0.950 . S
C780 C778 1.391 . S
C780 C781 1.400 . S
C781 C780 1.400 . S
C781 C782 1.398 . S
C781 C787 1.491 . S
C782 H773 0.950 . S
C782 C781 1.398 . S
C782 C783 1.391 . S
C783 H771 0.950 . S
C783 C779 1.393 . S
C783 C782 1.391 . S
C784 H774 0.950 . S
C784 C785 1.386 . S
C784 C786 1.391 . S
C785 C784 1.386 . S
C785 C789 1.393 . S
C786 H775 0.950 . S
C786 C784 1.391 . S
C786 C787 1.400 . S
C787 C781 1.491 . S
C787 C786 1.400 . S
C787 C788 1.398 . S
C788 H776 0.950 . S
C788 C787 1.398 . S
C788 C789 1.391 . S
C789 H777 0.950 . S
C789 C785 1.393 . S
C789 C788 1.391 . S
H790 C798 0.950 . S
H791 C803 0.950 . S
H792 C800 0.950 . S
H793 C802 0.950 . S
H794 C804 0.950 . S
H795 C806 0.950 . S
H796 C808 0.950 . S
H797 C809 0.950 . S
C798 H790 0.950 . S
C798 C799 1.386 . S
C798 C800 1.391 . S
C799 C798 1.386 . S
C799 C803 1.393 . S
C800 H792 0.950 . S
C800 C798 1.391 . S
C800 C801 1.400 . S
C801 C800 1.400 . S
C801 C802 1.398 . S
C801 C807 1.491 . S
C802 H793 0.950 . S
C802 C801 1.398 . S
C802 C803 1.391 . S
C803 H791 0.950 . S
C803 C799 1.393 . S
C803 C802 1.391 . S
C804 H794 0.950 . S
C804 C805 1.386 . S
C804 C806 1.391 . S
C805 C804 1.386 . S
C805 C809 1.393 . S
C806 H795 0.950 . S
C806 C804 1.391 . S
C806 C807 1.400 . S
C807 C801 1.491 . S
C807 C806 1.400 . S
C807 C808 1.398 . S
C808 H796 0.950 . S
C808 C807 1.398 . S
C808 C809 1.391 . S
C809 H797 0.950 . S
C809 C805 1.393 . S
C809 C808 1.391 . S
H810 C818 0.950 . S
H811 C823 0.950 . S
H812 C820 0.950 . S
H813 C822 0.950 . S
H814 C824 0.950 . S
H815 C826 0.950 . S
H816 C828 0.950 . S
H817 C829 0.950 . S
C818 H810 0.950 . S
C818 C819 1.386 . S
C818 C820 1.391 . S
C819 C818 1.386 . S
C819 C823 1.393 . S
C820 H812 0.950 . S
C820 C818 1.391 . S
C820 C821 1.400 . S
C821 C820 1.400 . S
C821 C822 1.398 . S
C821 C827 1.491 . S
C822 H813 0.950 . S
C822 C821 1.398 . S
C822 C823 1.391 . S
C823 H811 0.950 . S
C823 C819 1.393 . S
C823 C822 1.391 . S
C824 H814 0.950 . S
C824 C825 1.386 . S
C824 C826 1.391 . S
C825 C824 1.386 . S
C825 C829 1.393 . S
C826 H815 0.950 . S
C826 C824 1.391 . S
C826 C827 1.400 . S
C827 C821 1.491 . S
C827 C826 1.400 . S
C827 C828 1.398 . S
C828 H816 0.950 . S
C828 C827 1.398 . S
C828 C829 1.391 . S
C829 H817 0.950 . S
C829 C825 1.393 . S
C829 C828 1.391 . S
H830 C838 0.950 . S
H831 C843 0.950 . S
H832 C840 0.950 . S
H833 C842 0.950 . S
H834 C844 0.950 . S
H835 C846 0.950 . S
H836 C848 0.950 . S
H837 C849 0.950 . S
C838 H830 0.950 . S
C838 C839 1.386 . S
C838 C840 1.391 . S
C839 C838 1.386 . S
C839 C843 1.393 . S
C840 H832 0.950 . S
C840 C838 1.391 . S
C840 C841 1.400 . S
C841 C840 1.400 . S
C841 C842 1.398 . S
C841 C847 1.491 . S
C842 H833 0.950 . S
C842 C841 1.398 . S
C842 C843 1.391 . S
C843 H831 0.950 . S
C843 C839 1.393 . S
C843 C842 1.391 . S
C844 H834 0.950 . S
C844 C845 1.386 . S
C844 C846 1.391 . S
C845 C844 1.386 . S
C845 C849 1.393 . S
C846 H835 0.950 . S
C846 C844 1.391 . S
C846 C847 1.400 . S
C847 C841 1.491 . S
C847 C846 1.400 . S
C847 C848 1.398 . S
C848 H836 0.950 . S
C848 C847 1.398 . S
C848 C849 1.391 . S
C849 H837 0.950 . S
C849 C845 1.393 . S
C849 C848 1.391 . S
H850 C858 0.950 . S
H851 C863 0.950 . S
H852 C860 0.950 . S
H853 C862 0.950 . S
H854 C864 0.950 . S
H855 C866 0.950 . S
H856 C868 0.950 . S
H857 C869 0.950 . S
C858 H850 0.950 . S
C858 C859 1.386 . S
C858 C860 1.391 . S
C859 C858 1.386 . S
C859 C863 1.393 . S
C860 H852 0.950 . S
C860 C858 1.391 . S
C860 C861 1.400 . S
C861 C860 1.400 . S
C861 C862 1.398 . S
C861 C867 1.491 . S
C862 H853 0.950 . S
C862 C861 1.398 . S
C862 C863 1.391 . S
C863 H851 0.950 . S
C863 C859 1.393 . S
C863 C862 1.391 . S
C864 H854 0.950 . S
C864 C865 1.386 . S
C864 C866 1.391 . S
C865 C864 1.386 . S
C865 C869 1.393 . S
C866 H855 0.950 . S
C866 C864 1.391 . S
C866 C867 1.400 . S
C867 C861 1.491 . S
C867 C866 1.400 . S
C867 C868 1.398 . S
C868 H856 0.950 . S
C868 C867 1.398 . S
C868 C869 1.391 . S
C869 H857 0.950 . S
C869 C865 1.393 . S
C869 C868 1.391 . S
H870 C878 0.950 . S
H871 C883 0.950 . S
H872 C880 0.950 . S
H873 C882 0.950 . S
H874 C884 0.950 . S
H875 C886 0.950 . S
H876 C888 0.950 . S
H877 C889 0.950 . S
C878 H870 0.950 . S
C878 C879 1.386 . S
C878 C880 1.391 . S
C879 C878 1.386 . S
C879 C883 1.393 . S
C880 H872 0.950 . S
C880 C878 1.391 . S
C880 C881 1.400 . S
C881 C880 1.400 . S
C881 C882 1.398 . S
C881 C887 1.491 . S
C882 H873 0.950 . S
C882 C881 1.398 . S
C882 C883 1.391 . S
C883 H871 0.950 . S
C883 C879 1.393 . S
C883 C882 1.391 . S
C884 H874 0.950 . S
C884 C885 1.386 . S
C884 C886 1.391 . S
C885 C884 1.386 . S
C885 C889 1.393 . S
C886 H875 0.950 . S
C886 C884 1.391 . S
C886 C887 1.400 . S
C887 C881 1.491 . S
C887 C886 1.400 . S
C887 C888 1.398 . S
C888 H876 0.950 . S
C888 C887 1.398 . S
C888 C889 1.391 . S
C889 H877 0.950 . S
C889 C885 1.393 . S
C889 C888 1.391 . S
H890 C898 0.950 . S
H891 C903 0.950 . S
H892 C900 0.950 1_556 S
H893 C902 0.950 . S
H894 C904 0.950 . S
H895 C906 0.950 1_554 S
H896 C908 0.950 . S
H897 C909 0.950 . S
C898 H890 0.950 . S
C898 C899 1.386 . S
C898 C900 1.391 . S
C899 C898 1.386 . S
C899 C903 1.393 . S
C900 H892 0.950 1_554 S
C900 C898 1.391 . S
C900 C901 1.400 . S
C901 C900 1.400 . S
C901 C902 1.398 . S
C901 C907 1.491 1_554 S
C902 H893 0.950 . S
C902 C901 1.398 . S
C902 C903 1.391 . S
C903 H891 0.950 . S
C903 C899 1.393 . S
C903 C902 1.391 . S
C904 H894 0.950 . S
C904 C905 1.386 . S
C904 C906 1.391 . S
C905 C904 1.386 . S
C905 C909 1.393 . S
C906 H895 0.950 1_556 S
C906 C904 1.391 . S
C906 C907 1.400 . S
C907 C901 1.491 1_556 S
C907 C906 1.400 . S
C907 C908 1.398 . S
C908 H896 0.950 . S
C908 C907 1.398 . S
C908 C909 1.391 . S
C909 H897 0.950 . S
C909 C905 1.393 . S
C909 C908 1.391 . S
H910 C918 0.950 . S
H911 C923 0.950 . S
H912 C920 0.950 . S
H913 C922 0.950 . S
H914 C924 0.950 . S
H915 C926 0.950 . S
H916 C928 0.950 . S
H917 C929 0.950 . S
C918 H910 0.950 . S
C918 C919 1.386 . S
C918 C920 1.391 . S
C919 C918 1.386 . S
C919 C923 1.393 . S
C920 H912 0.950 . S
C920 C918 1.391 . S
C920 C921 1.400 . S
C921 C920 1.400 . S
C921 C922 1.398 . S
C921 C927 1.491 . S
C922 H913 0.950 . S
C922 C921 1.398 . S
C922 C923 1.391 . S
C923 H911 0.950 . S
C923 C919 1.393 . S
C923 C922 1.391 . S
C924 H914 0.950 . S
C924 C925 1.386 . S
C924 C926 1.391 . S
C925 C924 1.386 . S
C925 C929 1.393 . S
C926 H915 0.950 . S
C926 C924 1.391 . S
C926 C927 1.400 . S
C927 C921 1.491 . S
C927 C926 1.400 . S
C927 C928 1.398 . S
C928 H916 0.950 . S
C928 C927 1.398 . S
C928 C929 1.391 . S
C929 H917 0.950 . S
C929 C925 1.393 . S
C929 C928 1.391 . S
C465 C442 1.642 . S
C459 C29 1.563 . S
C479 C115 1.535 . S
C485 C377 1.557 . S
C499 C153 1.561 . S
C505 C395 1.669 . S
C519 C239 1.529 . S
C525 C408 1.540 . S
C545 C416 1.598 . S
C539 C301 1.575 . S
C559 C339 1.776 . S
C565 C428 1.895 . S
C579 C91 1.564 . S
C585 C390 1.676 . S
C599 C177 1.531 . S
C605 C403 1.554 . S
C619 C215 1.544 . S
C625 C421 1.640 . S
C645 C427 1.905 . S
C639 C277 1.801 . S
C665 C447 1.586 . S
C659 C363 1.568 . S
C685 C382 1.548 . S
C679 C53 1.536 . S
C699 C35 1.692 . S
C705 C388 1.728 . S
C719 C109 1.534 . S
C725 C401 1.655 . S
C745 C415 1.586 . S
C739 C159 1.553 . S
C759 C233 1.702 . S
C765 C429 1.855 . S
C785 C441 1.684 . S
C779 C295 1.515 . S
C805 C376 1.570 . S
C799 C345 1.535 . S
C825 C440 1.595 . S
C819 C97 1.569 . S
C839 C171 1.500 . S
C845 C375 1.646 . S
C865 C389 1.724 . S
C859 C221 1.672 . S
C879 C283 1.548 . S
C885 C402 1.571 . S
C899 C357 1.530 . S
C905 C414 1.694 . S
C919 C47 1.696 . S
C925 C434 1.851 . S
