# Generated by pormake.
# Topology apo, (3,6)-cn, num edge types: 1
# Building blocks:
#     Node 0, Type 0, BuildingBlock: QEWDON_clean_linker_0, # of connection points: 3
#     Node 1, Type 0, BuildingBlock: QEWDON_clean_linker_0, # of connection points: 3
#     Node 2, Type 0, BuildingBlock: QEWDON_clean_linker_0, # of connection points: 3
#     Node 3, Type 0, BuildingBlock: QEWDON_clean_linker_0, # of connection points: 3
#     Node 4, Type 0, BuildingBlock: QEWDON_clean_linker_0, # of connection points: 3
#     Node 5, Type 0, BuildingBlock: QEWDON_clean_linker_0, # of connection points: 3
#     Node 6, Type 0, BuildingBlock: QEWDON_clean_linker_0, # of connection points: 3
#     Node 7, Type 0, BuildingBlock: QEWDON_clean_linker_0, # of connection points: 3
#     Node 8, Type 1, BuildingBlock: KUMJIN_clean_sbu_1, # of connection points: 6
#     Node 9, Type 1, BuildingBlock: KUMJIN_clean_sbu_1, # of connection points: 6
#     Node 10, Type 1, BuildingBlock: KUMJIN_clean_sbu_1, # of connection points: 6
#     Node 11, Type 1, BuildingBlock: KUMJIN_clean_sbu_1, # of connection points: 6
#     Edge 12, Type (0, 1), BuildingBlock: AJUNOK_clean_linker_0, # of connection points: 2
#     Edge 13, Type (0, 1), BuildingBlock: AJUNOK_clean_linker_0, # of connection points: 2
#     Edge 14, Type (0, 1), BuildingBlock: AJUNOK_clean_linker_0, # of connection points: 2
#     Edge 15, Type (0, 1), BuildingBlock: AJUNOK_clean_linker_0, # of connection points: 2
#     Edge 16, Type (0, 1), BuildingBlock: AJUNOK_clean_linker_0, # of connection points: 2
#     Edge 17, Type (0, 1), BuildingBlock: AJUNOK_clean_linker_0, # of connection points: 2
#     Edge 18, Type (0, 1), BuildingBlock: AJUNOK_clean_linker_0, # of connection points: 2
#     Edge 19, Type (0, 1), BuildingBlock: AJUNOK_clean_linker_0, # of connection points: 2
#     Edge 20, Type (0, 1), BuildingBlock: AJUNOK_clean_linker_0, # of connection points: 2
#     Edge 21, Type (0, 1), BuildingBlock: AJUNOK_clean_linker_0, # of connection points: 2
#     Edge 22, Type (0, 1), BuildingBlock: AJUNOK_clean_linker_0, # of connection points: 2
#     Edge 23, Type (0, 1), BuildingBlock: AJUNOK_clean_linker_0, # of connection points: 2
#     Edge 24, Type (0, 1), BuildingBlock: AJUNOK_clean_linker_0, # of connection points: 2
#     Edge 25, Type (0, 1), BuildingBlock: AJUNOK_clean_linker_0, # of connection points: 2
#     Edge 26, Type (0, 1), BuildingBlock: AJUNOK_clean_linker_0, # of connection points: 2
#     Edge 27, Type (0, 1), BuildingBlock: AJUNOK_clean_linker_0, # of connection points: 2
#     Edge 28, Type (0, 1), BuildingBlock: AJUNOK_clean_linker_0, # of connection points: 2
#     Edge 29, Type (0, 1), BuildingBlock: AJUNOK_clean_linker_0, # of connection points: 2
#     Edge 30, Type (0, 1), BuildingBlock: AJUNOK_clean_linker_0, # of connection points: 2
#     Edge 31, Type (0, 1), BuildingBlock: AJUNOK_clean_linker_0, # of connection points: 2
#     Edge 32, Type (0, 1), BuildingBlock: AJUNOK_clean_linker_0, # of connection points: 2
#     Edge 33, Type (0, 1), BuildingBlock: AJUNOK_clean_linker_0, # of connection points: 2
#     Edge 34, Type (0, 1), BuildingBlock: AJUNOK_clean_linker_0, # of connection points: 2
#     Edge 35, Type (0, 1), BuildingBlock: AJUNOK_clean_linker_0, # of connection points: 2
# Relax obj value: 0.076
# Max RMSD: 0.274
# Mean RMSD: 0.216
data_MOF--net-apo--node1-KUMJIN_clean_sbu_1--node2-QEWDON_clean_linker_0--edge1-AJUNOK_clean_linker_0
_symmetry_space_group_name_H-M    P1
_symmetry_Int_Tables_number       1
_symmetry_cell_setting            triclinic
loop_
_symmetry_equiv_pos_as_xyz
'x, y, z'
_cell_length_a     22.779297
_cell_length_b     31.686829
_cell_length_c     40.023278
_cell_angle_alpha  89.976513
_cell_angle_beta   89.919335
_cell_angle_gamma 90.102816
loop_
_atom_site_label
_atom_site_type_symbol
_atom_site_fract_x
_atom_site_fract_y
_atom_site_fract_z
_atom_type_partial_charge
H0 H 0.28738 0.39832 0.36715 0.0
C1 C 0.30772 0.39512 0.39149 0.0
C2 C 0.35822 0.41905 0.39938 0.0
C3 C 0.2808 0.36956 0.41574 0.0
H4 H 0.41999 0.43527 0.43852 0.0
C5 C 0.3825 0.41597 0.43176 0.0
C6 C 0.35664 0.38947 0.45591 0.0
C7 C 0.30624 0.36634 0.44748 0.0
C8 C 0.22034 0.35324 0.411 0.0
H9 H 0.2842 0.34776 0.46654 0.0
C10 C 0.20655 0.3212 0.38776 0.0
C11 C 0.1484 0.30574 0.38551 0.0
C12 C 0.1758 0.36963 0.43154 0.0
H13 H 0.18544 0.3943 0.44948 0.0
C14 C 0.11869 0.3543 0.42944 0.0
H15 H 0.24062 0.30827 0.37187 0.0
C16 C 0.1051 0.32244 0.40682 0.0
H17 H 0.06052 0.31046 0.40623 0.0
H18 H 0.0849 0.36693 0.44561 0.0
H19 H 0.2462 0.11255 0.86653 0.0
C20 C 0.22743 0.11222 0.89143 0.0
C21 C 0.17706 0.08768 0.89813 0.0
C22 C 0.25518 0.13462 0.91737 0.0
H23 H 0.11755 0.06574 0.93628 0.0
C24 C 0.15467 0.08611 0.93081 0.0
C25 C 0.18193 0.10807 0.95692 0.0
C26 C 0.23134 0.133 0.94981 0.0
C27 C 0.31363 0.15454 0.9125 0.0
H28 H 0.25264 0.15022 0.96983 0.0
C29 C 0.32388 0.18647 0.88849 0.0
C30 C 0.37987 0.2057 0.88605 0.0
C31 C 0.35988 0.14158 0.9333 0.0
H32 H 0.35324 0.1169 0.95169 0.0
C33 C 0.41502 0.16015 0.93075 0.0
H34 H 0.28858 0.19645 0.87221 0.0
C35 C 0.42493 0.19205 0.90752 0.0
H36 H 0.46803 0.20653 0.90668 0.0
H37 H 0.45016 0.15003 0.94706 0.0
H38 H 0.75026 0.10374 0.6821 0.0
C39 C 0.76939 0.10851 0.65756 0.0
C40 C 0.82157 0.08763 0.64879 0.0
C41 C 0.7412 0.13479 0.63445 0.0
H42 H 0.88533 0.0768 0.60975 0.0
C43 C 0.84556 0.09341 0.61666 0.0
C44 C 0.81693 0.11904 0.59301 0.0
C45 C 0.76519 0.14005 0.60244 0.0
C46 C 0.68373 0.1539 0.64223 0.0
H47 H 0.74313 0.16056 0.58479 0.0
C48 C 0.67901 0.18914 0.6635 0.0
C49 C 0.6243 0.20899 0.66795 0.0
C50 C 0.63342 0.13811 0.62631 0.0
H51 H 0.63643 0.11116 0.60974 0.0
C52 C 0.57902 0.15719 0.63138 0.0
H53 H 0.71785 0.20196 0.67542 0.0
C54 C 0.57446 0.1926 0.65189 0.0
H55 H 0.53202 0.20749 0.65508 0.0
H56 H 0.54042 0.14487 0.61899 0.0
H57 H 0.74665 0.40541 0.19336 0.0
C58 C 0.72872 0.40548 0.16828 0.0
C59 C 0.67868 0.42966 0.16117 0.0
C60 C 0.75911 0.3851 0.14237 0.0
H61 H 0.61971 0.45127 0.12277 0.0
C62 C 0.65788 0.43205 0.12811 0.0
C63 C 0.68804 0.41201 0.10183 0.0
C64 C 0.73823 0.38817 0.10943 0.0
C65 C 0.81818 0.3673 0.14826 0.0
H66 H 0.7635 0.37405 0.08937 0.0
C67 C 0.82689 0.33156 0.16861 0.0
C68 C 0.88361 0.31428 0.17207 0.0
C69 C 0.86653 0.38618 0.13232 0.0
H70 H 0.86072 0.41382 0.11672 0.0
C71 C 0.9227 0.3697 0.13633 0.0
H72 H 0.78965 0.31648 0.18058 0.0
C73 C 0.93124 0.3339 0.15591 0.0
H74 H 0.97526 0.32141 0.15844 0.0
H75 H 0.95968 0.38451 0.12399 0.0
H76 H 0.67224 0.64957 0.69478 0.0
C77 C 0.67289 0.64096 0.66855 0.0
C78 C 0.65623 0.60008 0.65891 0.0
C79 C 0.68747 0.67139 0.64436 0.0
H80 H 0.63952 0.5585 0.61756 0.0
C81 C 0.65474 0.5896 0.62488 0.0
C82 C 0.66829 0.61972 0.60023 0.0
C83 C 0.6844 0.66077 0.61022 0.0
C84 C 0.69559 0.71588 0.65466 0.0
H85 H 0.69315 0.68473 0.59151 0.0
C86 C 0.74967 0.73117 0.66701 0.0
C87 C 0.75485 0.77356 0.67786 0.0
C88 C 0.64708 0.74294 0.65317 0.0
H89 H 0.60522 0.73163 0.64391 0.0
C90 C 0.65173 0.7845 0.66414 0.0
H91 H 0.78735 0.71039 0.66764 0.0
C92 C 0.7049 0.79967 0.6765 0.0
H93 H 0.7068 0.83199 0.68527 0.0
H94 H 0.61384 0.80503 0.66323 0.0
H95 H 0.84153 0.8777 0.19316 0.0
C96 C 0.83822 0.88339 0.1665 0.0
C97 C 0.8555 0.92257 0.15332 0.0
C98 C 0.81869 0.85099 0.14538 0.0
H99 H 0.86919 0.9587 0.10835 0.0
C100 C 0.85344 0.92908 0.11857 0.0
C101 C 0.83455 0.89673 0.09693 0.0
C102 C 0.81704 0.85774 0.1107 0.0
C103 C 0.80952 0.80815 0.15906 0.0
H104 H 0.80346 0.83221 0.09441 0.0
C105 C 0.75356 0.79347 0.1689 0.0
C106 C 0.74696 0.75224 0.18189 0.0
C107 C 0.85846 0.78174 0.16246 0.0
H108 H 0.90172 0.79265 0.15513 0.0
C109 C 0.8521 0.74114 0.1753 0.0
H110 H 0.71564 0.81375 0.1661 0.0
C111 C 0.79691 0.72643 0.18488 0.0
H112 H 0.79331 0.69479 0.19499 0.0
H113 H 0.89013 0.72097 0.17788 0.0
H114 H 0.21105 0.88007 0.36823 0.0
C115 C 0.20828 0.89353 0.39304 0.0
C116 C 0.18392 0.93417 0.39745 0.0
C117 C 0.22748 0.87018 0.42107 0.0
H118 H 0.14965 0.97797 0.43361 0.0
C119 C 0.17492 0.94941 0.43005 0.0
C120 C 0.19668 0.92787 0.45789 0.0
C121 C 0.2254 0.88944 0.45281 0.0
C122 C 0.24517 0.82471 0.41912 0.0
H123 H 0.24435 0.87353 0.47418 0.0
C124 C 0.27679 0.80731 0.39188 0.0
C125 C 0.29449 0.76448 0.3927 0.0
C126 C 0.22996 0.79798 0.44604 0.0
H127 H 0.20284 0.809 0.46648 0.0
C128 C 0.24996 0.75674 0.44756 0.0
H129 H 0.28752 0.82665 0.3704 0.0
C130 C 0.28309 0.74043 0.42158 0.0
H131 H 0.29895 0.70835 0.42386 0.0
H132 H 0.23957 0.73725 0.469 0.0
H133 H 0.337 0.65075 0.85995 0.0
C134 C 0.32891 0.64293 0.88591 0.0
C135 C 0.34545 0.60296 0.89853 0.0
C136 C 0.30631 0.67405 0.90748 0.0
H137 H 0.34909 0.56401 0.94311 0.0
C138 C 0.33728 0.59449 0.93289 0.0
C139 C 0.31704 0.62594 0.95466 0.0
C140 C 0.29988 0.66492 0.94155 0.0
C141 C 0.29995 0.71866 0.89695 0.0
H142 H 0.28408 0.68928 0.95834 0.0
C143 C 0.256 0.73221 0.87449 0.0
C144 C 0.2482 0.77581 0.86831 0.0
C145 C 0.33605 0.74877 0.91255 0.0
H146 H 0.36995 0.73903 0.92989 0.0
C147 C 0.32782 0.79161 0.90687 0.0
H148 H 0.22787 0.70926 0.86239 0.0
C149 C 0.28384 0.80509 0.88534 0.0
H150 H 0.27756 0.83872 0.88206 0.0
H151 H 0.35518 0.81451 0.91955 0.0
Eu152 Eu 0.0787 0.10658 0.24379 0.0
C153 C 0.82505 0.05577 0.28301 0.0
N154 N 0.84758 0.09526 0.28674 0.0
C155 C 0.75988 0.12536 0.26404 0.0
C156 C 0.76913 0.04958 0.26876 0.0
C157 C 0.81581 0.12991 0.27793 0.0
C158 C 0.73653 0.08502 0.25926 0.0
C159 C 0.83718 0.98003 0.28853 0.0
C160 C 0.85902 0.02141 0.29253 0.0
C161 C 0.78182 0.97371 0.27392 0.0
C162 C 0.7479 1.00838 0.26408 0.0
Eu163 Eu 0.94358 0.10007 0.30848 0.0
N164 N 0.91328 0.02845 0.3057 0.0
C165 C 0.87133 0.94625 0.29977 0.0
C166 C 0.94418 0.99591 0.3193 0.0
C167 C 0.92451 0.95431 0.31585 0.0
H168 H 0.83347 0.16106 0.28181 0.0
H169 H 0.94994 0.92856 0.32609 0.0
H170 H 0.17579 0.03004 0.26173 0.0
H171 H 0.10758 0.27778 0.24087 0.0
H172 H 0.9829 1.00184 0.33383 0.0
H173 H 0.85614 0.91399 0.29719 0.0
H174 H 0.05554 0.21046 0.23195 0.0
H175 H 0.73489 0.15296 0.25695 0.0
H176 H 0.76462 0.94212 0.2704 0.0
H177 H 0.70521 1.00299 0.25293 0.0
H178 H 0.27693 0.02398 0.28333 0.0
H179 H 0.69338 0.08159 0.24822 0.0
H180 H 0.20893 0.27766 0.26305 0.0
N181 N 0.17626 0.09713 0.26201 0.0
C182 C 0.20806 0.13292 0.26713 0.0
C183 C 0.258 0.0548 0.279 0.0
C184 C 0.26613 0.13091 0.27914 0.0
C185 C 0.20057 0.05835 0.26704 0.0
C186 C 0.29082 0.09122 0.28527 0.0
N187 N 0.12545 0.17275 0.25009 0.0
C188 C 0.09927 0.21001 0.24198 0.0
C189 C 0.21377 0.2095 0.26603 0.0
C190 C 0.1822 0.17181 0.26066 0.0
C191 C 0.18622 0.248 0.25915 0.0
C192 C 0.12895 0.24821 0.24673 0.0
H193 H 0.33527 0.08835 0.29459 0.0
H194 H 0.3422 0.16749 0.29407 0.0
H195 H 0.29636 0.23623 0.28262 0.0
O196 O 0.07409 0.12821 0.19218 0.0
O197 O 0.09102 0.13627 0.2954 0.0
O198 O 0.99943 0.15917 0.31145 0.0
O199 O 0.13391 0.07803 0.20513 0.0
O200 O 0.994 0.14148 0.23087 0.0
O201 O 0.94545 0.16147 0.27932 0.0
O202 O 0.94193 0.08352 0.36149 0.0
O203 O 0.93025 0.07775 0.25477 0.0
O204 O 0.0194 0.04919 0.2417 0.0
O205 O 0.88157 0.13015 0.34282 0.0
O206 O 0.03252 0.07123 0.32189 0.0
O207 O 0.06987 0.0455 0.27246 0.0
C208 C 0.05685 0.16294 0.31122 0.0
C209 C 0.09256 0.0775 0.15095 0.0
C210 C 0.09441 0.06998 0.09033 0.0
C211 C 0.05147 0.03819 0.09273 0.0
C212 C 0.05038 0.04532 0.15293 0.0
C213 C 0.02983 0.02584 0.12392 0.0
C214 C 0.11463 0.08966 0.11964 0.0
C215 C 0.95791 0.16661 0.24735 0.0
C216 C 0.11122 0.10034 0.18106 0.0
C217 C 0.29759 0.16842 0.28473 0.0
C218 C 0.2715 0.20759 0.27819 0.0
C219 C 0.96223 0.05042 0.23826 0.0
C220 C 0.91538 0.13797 0.39842 0.0
C221 C 0.9078 0.15091 0.45861 0.0
C222 C 0.94234 0.18742 0.45452 0.0
C223 C 0.94949 0.17463 0.39499 0.0
C224 C 0.89512 0.12601 0.43028 0.0
C225 C 0.96303 0.19907 0.42295 0.0
C226 C 0.06631 0.04491 0.30515 0.0
C227 C 0.90215 0.11129 0.36921 0.0
H228 H 0.03527 0.02256 0.0705 0.0
H229 H 0.0331 0.03556 0.17683 0.0
H230 H 0.99697 1.0012 0.12563 0.0
H231 H 0.14673 0.11491 0.11804 0.0
H232 H 0.95262 0.20736 0.4757 0.0
H233 H 0.96573 0.18434 0.37076 0.0
H234 H 0.86997 0.09713 0.43296 0.0
H235 H 0.98941 0.22732 0.4201 0.0
Eu236 Eu 0.44202 0.41435 0.74704 0.0
C237 C 0.70696 0.43748 0.79191 0.0
N238 N 0.67409 0.40204 0.79637 0.0
C239 C 0.75586 0.35881 0.78072 0.0
C240 C 0.76585 0.43479 0.78122 0.0
C241 C 0.69767 0.36299 0.79133 0.0
C242 C 0.79004 0.39485 0.7755 0.0
C243 C 0.71454 0.51395 0.79341 0.0
C244 C 0.68158 0.47667 0.7979 0.0
C245 C 0.77308 0.51135 0.78258 0.0
C246 C 0.79865 0.4719 0.7765 0.0
Eu247 Eu 0.5757 0.41253 0.81281 0.0
N248 N 0.62426 0.47832 0.8076 0.0
C249 C 0.68764 0.55277 0.79991 0.0
C250 C 0.59843 0.51597 0.81493 0.0
C251 C 0.62947 0.55374 0.81094 0.0
H252 H 0.67185 0.33496 0.79594 0.0
H253 H 0.60846 0.58359 0.8163 0.0
H254 H 0.33679 0.48656 0.75758 0.0
H255 H 0.42106 0.24291 0.73491 0.0
H256 H 0.5537 0.51708 0.8233 0.0
H257 H 0.71146 0.58212 0.7967 0.0
H258 H 0.46963 0.31198 0.72915 0.0
H259 H 0.77436 0.32779 0.77667 0.0
H260 H 0.799 0.53967 0.77886 0.0
H261 H 0.84389 0.47043 0.76818 0.0
H262 H 0.23273 0.48949 0.77552 0.0
H263 H 0.83512 0.39149 0.76725 0.0
H264 H 0.31889 0.23893 0.75577 0.0
N265 N 0.34143 0.41996 0.7602 0.0
C266 C 0.31168 0.38313 0.7644 0.0
C267 C 0.25457 0.45937 0.77285 0.0
C268 C 0.25205 0.38308 0.77389 0.0
C269 C 0.31361 0.45776 0.76334 0.0
C270 C 0.22379 0.42185 0.77852 0.0
N271 N 0.39793 0.34659 0.74878 0.0
C272 C 0.42601 0.31064 0.73917 0.0
C273 C 0.31048 0.30662 0.76141 0.0
C274 C 0.34054 0.34535 0.75825 0.0
C275 C 0.34038 0.26934 0.75363 0.0
C276 C 0.39812 0.27144 0.74196 0.0
H277 H 0.17799 0.42316 0.78579 0.0
H278 H 0.17671 0.34382 0.78551 0.0
H279 H 0.22789 0.2769 0.77461 0.0
O280 O 0.46302 0.4036 0.69442 0.0
O281 O 0.42903 0.3794 0.79677 0.0
O282 O 0.52011 0.35356 0.81046 0.0
O283 O 0.38804 0.44168 0.70728 0.0
O284 O 0.52926 0.38329 0.73285 0.0
O285 O 0.56986 0.35437 0.78023 0.0
O286 O 0.55849 0.4225 0.86596 0.0
O287 O 0.5873 0.44699 0.76305 0.0
O288 O 0.49663 0.47368 0.7502 0.0
O289 O 0.63427 0.38676 0.85113 0.0
O290 O 0.49088 0.44621 0.82789 0.0
O291 O 0.442 0.47198 0.78137 0.0
C292 C 0.4626 0.35125 0.81149 0.0
C293 C 0.38266 0.40114 0.65754 0.0
C294 C 0.36615 0.38159 0.59913 0.0
C295 C 0.31993 0.35514 0.60948 0.0
C296 C 0.33628 0.37455 0.66711 0.0
C297 C 0.30516 0.35175 0.6432 0.0
C298 C 0.39728 0.4049 0.62337 0.0
C299 C 0.56253 0.35493 0.74763 0.0
C300 C 0.41717 0.42357 0.68321 0.0
C301 C 0.2224 0.3445 0.77798 0.0
C302 C 0.25155 0.30638 0.77176 0.0
C303 C 0.55384 0.47397 0.74702 0.0
C304 C 0.64161 0.4271 0.90081 0.0
C305 C 0.66704 0.44272 0.95899 0.0
C306 C 0.70819 0.47258 0.94752 0.0
C307 C 0.68267 0.4573 0.89022 0.0
C308 C 0.63396 0.41975 0.93532 0.0
C309 C 0.71569 0.47985 0.91343 0.0
C310 C 0.45521 0.47357 0.81358 0.0
C311 C 0.60616 0.40388 0.87599 0.0
H312 H 0.29465 0.33742 0.59135 0.0
H313 H 0.32405 0.37139 0.69305 0.0
H314 H 0.26937 0.33137 0.65083 0.0
H315 H 0.43313 0.42531 0.61575 0.0
H316 H 0.73549 0.48986 0.96496 0.0
H317 H 0.68959 0.46329 0.86401 0.0
H318 H 0.60222 0.3965 0.9437 0.0
H319 H 0.74757 0.50286 0.90494 0.0
Eu320 Eu 0.05992 0.93312 0.73208 0.0
C321 C 0.80878 0.94801 0.79409 0.0
N322 N 0.8628 0.96261 0.80292 0.0
C323 C 0.82561 0.03317 0.80608 0.0
C324 C 0.76121 0.9759 0.79003 0.0
C325 C 0.87151 1.00431 0.80984 0.0
C326 C 0.77036 0.01898 0.79585 0.0
C327 C 0.74558 0.88864 0.7808 0.0
C328 C 0.80128 0.9049 0.78926 0.0
C329 C 0.6984 0.91644 0.77585 0.0
C330 C 0.70618 0.95993 0.78048 0.0
Eu331 Eu 0.93835 0.91175 0.80677 0.0
N332 N 0.84757 0.87874 0.79466 0.0
C333 C 0.73854 0.84484 0.77856 0.0
C334 C 0.83993 0.83604 0.79472 0.0
C335 C 0.78566 0.81843 0.78616 0.0
H336 H 0.91411 0.01546 0.81766 0.0
H337 H 0.78013 0.78451 0.78559 0.0
H338 H 0.11547 0.84256 0.70287 0.0
H339 H 0.16862 0.08134 0.76392 0.0
H340 H 0.87588 0.81553 0.8014 0.0
H341 H 0.69651 0.8311 0.77203 0.0
H342 H 0.08435 0.0328 0.75664 0.0
H343 H 0.83288 0.06635 0.81101 0.0
H344 H 0.65543 0.90453 0.76906 0.0
H345 H 0.66919 0.98091 0.77698 0.0
H346 H 0.21214 0.81409 0.68571 0.0
H347 H 0.73495 0.04145 0.7929 0.0
H348 H 0.26911 0.05712 0.75045 0.0
N349 N 0.15023 0.90183 0.7179 0.0
C350 C 0.19832 0.92703 0.7203 0.0
C351 C 0.20887 0.84584 0.69547 0.0
C352 C 0.25409 0.91236 0.71034 0.0
C353 C 0.15444 0.86184 0.70545 0.0
C354 C 0.25891 0.87122 0.69787 0.0
N355 N 0.13744 0.98102 0.74165 0.0
C356 C 0.12834 0.02177 0.75155 0.0
C357 C 0.24098 0.99444 0.73588 0.0
C358 C 0.19189 0.96752 0.73299 0.0
C359 C 0.23245 0.03556 0.74773 0.0
C360 C 0.17581 0.04937 0.75539 0.0
H361 H 0.30102 0.85874 0.69009 0.0
H362 H 0.34643 0.92812 0.70617 0.0
H363 H 0.33494 0.99998 0.72848 0.0
O364 O 0.03961 0.98129 0.69495 0.0
O365 O 0.08781 0.95136 0.78471 0.0
O366 O 1.00078 0.96751 0.81212 0.0
O367 O 0.07134 0.92063 0.67849 0.0
O368 O 0.99375 0.981 0.74873 0.0
O369 O 0.91015 0.94475 0.75858 0.0
O370 O 0.93872 0.93502 0.85838 0.0
O371 O 0.95602 0.85732 0.77131 0.0
O372 O 0.97989 0.89127 0.72195 0.0
O373 O 0.91033 0.87153 0.84844 0.0
O374 O 0.02824 0.87949 0.81152 0.0
O375 O 0.07253 0.87064 0.75919 0.0
C376 C 0.05835 0.97015 0.80889 0.0
C377 C 0.10356 0.98055 0.64819 0.0
C378 C 0.15598 0.98545 0.59484 0.0
C379 C 0.19329 0.01603 0.609 0.0
C380 C 0.13886 0.0133 0.66069 0.0
C381 C 0.18401 0.03031 0.64146 0.0
C382 C 0.11166 0.96722 0.61499 0.0
C383 C 0.93818 0.97497 0.74281 0.0
C384 C 0.0598 0.9594 0.66989 0.0
C385 C 0.3032 0.93892 0.71353 0.0
C386 C 0.29669 0.97979 0.72634 0.0
C387 C 0.95307 0.86072 0.73854 0.0
C388 C 0.86619 0.90654 0.89444 0.0
C389 C 0.8274 0.9124 0.95149 0.0
C390 C 0.77098 0.91846 0.93815 0.0
C391 C 0.80933 0.91271 0.88204 0.0
C392 C 0.87509 0.90611 0.92937 0.0
C393 C 0.76216 0.91865 0.9037 0.0
C394 C 0.0692 0.86335 0.79172 0.0
C395 C 0.91596 0.90082 0.87102 0.0
H396 H 0.22995 0.02892 0.59509 0.0
H397 H 0.13207 0.02572 0.6854 0.0
H398 H 0.21211 0.05457 0.65183 0.0
H399 H 0.08324 0.94292 0.6049 0.0
H400 H 0.73336 0.92238 0.95444 0.0
H401 H 0.80116 0.91266 0.85561 0.0
H402 H 0.91883 0.90126 0.93926 0.0
H403 H 0.71847 0.92318 0.89374 0.0
Eu404 Eu 0.43884 0.60248 0.23923 0.0
C405 C 0.68703 0.6498 0.28699 0.0
N406 N 0.65877 0.61202 0.28945 0.0
C407 C 0.74396 0.57689 0.26758 0.0
C408 C 0.74398 0.65266 0.27318 0.0
C409 C 0.68823 0.57556 0.28224 0.0
C410 C 0.7714 0.6157 0.26226 0.0
C411 C 0.69163 0.72392 0.30218 0.0
C412 C 0.66099 0.68528 0.30079 0.0
C413 C 0.74702 0.72732 0.28699 0.0
C414 C 0.77291 0.69184 0.27224 0.0
Eu415 Eu 0.56219 0.61458 0.31241 0.0
N416 N 0.60646 0.68159 0.31419 0.0
C417 C 0.66618 0.7577 0.31947 0.0
C418 C 0.58189 0.71393 0.33178 0.0
C419 C 0.6112 0.75258 0.33453 0.0
H420 H 0.66967 0.5451 0.28811 0.0
H421 H 0.59143 0.77836 0.34821 0.0
H422 H 0.33121 0.67298 0.25337 0.0
H423 H 0.42934 0.43058 0.22897 0.0
H424 H 0.5397 0.7096 0.3437 0.0
H425 H 0.68867 0.78775 0.32146 0.0
H426 H 0.47577 0.5007 0.22566 0.0
H427 H 0.76614 0.5479 0.26093 0.0
H428 H 0.77073 0.75699 0.28714 0.0
H429 H 0.81636 0.69466 0.26141 0.0
H430 H 0.22498 0.67245 0.26524 0.0
H431 H 0.81495 0.61658 0.25136 0.0
H432 H 0.32412 0.42447 0.24358 0.0
N433 N 0.33872 0.60602 0.25328 0.0
C434 C 0.30991 0.56836 0.25417 0.0
C435 C 0.24843 0.64298 0.2625 0.0
C436 C 0.24899 0.56671 0.26051 0.0
C437 C 0.30883 0.64314 0.25625 0.0
C438 C 0.2185 0.60461 0.26503 0.0
N439 N 0.39949 0.53369 0.2409 0.0
C440 C 0.43075 0.49836 0.23333 0.0
C441 C 0.31215 0.4919 0.24911 0.0
C442 C 0.34104 0.53128 0.24794 0.0
C443 C 0.34469 0.45532 0.2428 0.0
C444 C 0.40415 0.45861 0.23466 0.0
H445 H 0.1717 0.60463 0.2699 0.0
H446 H 0.17359 0.52565 0.26668 0.0
H447 H 0.22895 0.46022 0.25722 0.0
O448 O 0.42433 0.58123 0.18803 0.0
O449 O 0.42152 0.57164 0.29047 0.0
O450 O 0.51273 0.55243 0.30994 0.0
O451 O 0.40102 0.64503 0.20171 0.0
O452 O 0.52664 0.5711 0.22902 0.0
O453 O 0.5682 0.55454 0.28047 0.0
O454 O 0.53959 0.62233 0.36522 0.0
O455 O 0.54913 0.6681 0.2748 0.0
O456 O 0.52813 0.63079 0.22785 0.0
O457 O 0.62464 0.59823 0.35188 0.0
O458 O 0.46979 0.63947 0.32137 0.0
O459 O 0.43413 0.6627 0.27032 0.0
C460 C 0.45536 0.54761 0.30932 0.0
C461 C 0.34943 0.61321 0.15612 0.0
C462 C 0.30861 0.60956 0.0996 0.0
C463 C 0.25236 0.60423 0.11344 0.0
C464 C 0.29274 0.60817 0.16922 0.0
C465 C 0.24461 0.60357 0.14801 0.0
C466 C 0.35716 0.61364 0.12123 0.0
C467 C 0.56385 0.54989 0.24774 0.0
C468 C 0.40134 0.61662 0.17807 0.0
C469 C 0.22027 0.52749 0.26165 0.0
C470 C 0.25181 0.49021 0.25621 0.0
C471 C 0.55153 0.66386 0.24224 0.0
C472 C 0.58801 0.58027 0.40538 0.0
C473 C 0.60746 0.56798 0.46473 0.0
C474 C 0.58429 0.52699 0.46129 0.0
C475 C 0.5659 0.53921 0.40248 0.0
C476 C 0.60859 0.59466 0.43654 0.0
C477 C 0.5638 0.51277 0.43037 0.0
C478 C 0.43784 0.6654 0.30318 0.0
C479 C 0.5897 0.60855 0.37624 0.0
H480 H 0.21417 0.60134 0.09749 0.0
H481 H 0.28528 0.60765 0.19567 0.0
H482 H 0.20106 0.5997 0.15844 0.0
H483 H 0.40102 0.61682 0.11096 0.0
H484 H 0.58134 0.50607 0.48264 0.0
H485 H 0.55027 0.52783 0.37868 0.0
H486 H 0.62597 0.62641 0.43873 0.0
H487 H 0.54608 0.48118 0.42803 0.0
C488 C 0.12657 0.94486 0.34418 0.0
C489 C 0.16412 0.96102 0.36903 0.0
C490 C 0.09768 0.97205 0.32176 0.0
C491 C 0.10439 0.01609 0.32419 0.0
H492 H 0.11679 0.91142 0.34329 0.0
H493 H 0.06713 0.95877 0.30388 0.0
S494 S 0.20657 0.07348 0.37981 0.0
N495 N 0.21429 0.0234 0.39034 0.0
N496 N 0.15697 0.07416 0.34978 0.0
C497 C 0.1449 0.03227 0.34709 0.0
C498 C 0.1756 1.00478 0.36908 0.0
C499 C 0.35487 0.56293 0.84411 0.0
C500 C 0.37528 0.57113 0.87665 0.0
C501 C 0.38154 0.53222 0.82372 0.0
C502 C 0.42889 0.5075 0.83513 0.0
H503 H 0.31749 0.58003 0.83438 0.0
H504 H 0.36441 0.52792 0.79891 0.0
S505 S 0.50519 0.52153 0.91665 0.0
N506 N 0.45128 0.55616 0.91757 0.0
N507 N 0.49858 0.49702 0.88054 0.0
C508 C 0.45091 0.51657 0.86735 0.0
C509 C 0.42482 0.54856 0.88771 0.0
C510 C 0.58094 0.57692 0.70056 0.0
C511 C 0.63414 0.56926 0.68379 0.0
C512 C 0.55524 0.546 0.72107 0.0
C513 C 0.58234 0.50658 0.7259 0.0
H514 H 0.55812 0.60654 0.69693 0.0
H515 H 0.5138 0.55299 0.73315 0.0
S516 S 0.72348 0.47191 0.68845 0.0
N517 N 0.71379 0.52015 0.67383 0.0
N518 N 0.66634 0.46217 0.71271 0.0
C519 C 0.63649 0.4991 0.70994 0.0
C520 C 0.66213 0.53038 0.68876 0.0
C521 C 0.93076 0.94647 0.19466 0.0
C522 C 0.88044 0.95542 0.17564 0.0
C523 C 0.9568 0.97739 0.21489 0.0
C524 C 0.93294 0.01821 0.21725 0.0
H525 H 0.95077 0.91552 0.19339 0.0
H526 H 0.99585 0.96922 0.22889 0.0
S527 S 0.8003 0.05704 0.17338 0.0
N528 N 0.80695 1.00757 0.16091 0.0
N529 N 0.85543 0.06566 0.19928 0.0
C530 C 0.88192 0.02729 0.19889 0.0
C531 C 0.85588 0.99594 0.17792 0.0
C532 C 0.90624 0.06789 0.68528 0.0
C533 C 0.85004 0.05868 0.67292 0.0
C534 C 0.93385 0.04096 0.70821 0.0
C535 C 0.90679 1.00332 0.71918 0.0
H536 H 0.92876 0.09635 0.67739 0.0
H537 H 0.97687 0.04982 0.71736 0.0
S538 S 0.76046 0.96406 0.69244 0.0
N539 N 0.76836 1.00942 0.67257 0.0
N540 N 0.82088 0.95786 0.71463 0.0
C541 C 0.85061 0.99367 0.70662 0.0
C542 C 0.82215 0.02153 0.68371 0.0
C543 C 0.61793 0.44557 0.21244 0.0
C544 C 0.65512 0.45924 0.18648 0.0
C545 C 0.59133 0.47491 0.23421 0.0
C546 C 0.60099 0.51856 0.23031 0.0
H547 H 0.60774 0.41234 0.21513 0.0
H548 H 0.56079 0.46361 0.25297 0.0
S549 S 0.70252 0.56909 0.16995 0.0
N550 N 0.7057 0.51835 0.1608 0.0
N551 N 0.65602 0.57298 0.20147 0.0
C552 C 0.64101 0.53193 0.20586 0.0
C553 C 0.66802 0.50238 0.18396 0.0
C554 C 0.44162 0.45124 0.3665 0.0
C555 C 0.38174 0.45057 0.37505 0.0
C556 C 0.46436 0.48177 0.34441 0.0
C557 C 0.42862 0.51375 0.33068 0.0
H558 H 0.47107 0.42783 0.37684 0.0
H559 H 0.51062 0.48037 0.33826 0.0
S560 S 0.26843 0.52556 0.34568 0.0
N561 N 0.28688 0.48388 0.36791 0.0
N562 N 0.3295 0.54189 0.32753 0.0
C563 C 0.36843 0.51295 0.33891 0.0
C564 C 0.34516 0.4814 0.36088 0.0
C565 C 0.0881 0.06163 0.868 0.0
C566 C 0.14935 0.06052 0.8723 0.0
C567 C 0.05928 0.0324 0.84749 0.0
C568 C 0.09048 1.00068 0.83044 0.0
H569 H 0.06205 0.08492 0.88114 0.0
H570 H 0.01205 0.03474 0.84516 0.0
S571 S 0.25175 0.9837 0.83384 0.0
N572 N 0.24046 0.02512 0.85802 0.0
N573 N 0.18652 0.96986 0.8196 0.0
C574 C 0.15201 0.99952 0.83424 0.0
C575 C 0.18138 0.02956 0.85503 0.0
C576 C 0.10066 0.10309 0.99916 0.0
C577 C 0.16113 0.10183 0.99186 0.0
C578 C 0.07949 0.09341 0.03119 0.0
C579 C 0.11801 0.08238 0.05718 0.0
H580 H 0.06936 0.11116 0.97984 0.0
H581 H 0.03258 0.09434 0.03563 0.0
S582 S 0.27982 0.07286 0.05104 0.0
N583 N 0.25902 0.08741 1.01326 0.0
N584 N 0.21914 0.07011 0.07356 0.0
C585 C 0.17852 0.08158 0.05044 0.0
C586 C 0.20011 0.09111 1.01778 0.0
C587 C 0.37198 0.4259 0.51093 0.0
C588 C 0.37606 0.38903 0.4914 0.0
C589 C 0.37369 0.42392 0.54609 0.0
C590 C 0.37941 0.38501 0.56278 0.0
H591 H 0.36292 0.45594 0.4991 0.0
H592 H 0.3662 0.45252 0.56027 0.0
S593 S 0.40218 0.28069 0.52292 0.0
N594 N 0.39383 0.31354 0.49123 0.0
N595 N 0.39726 0.30982 0.55702 0.0
C596 C 0.38868 0.34862 0.5434 0.0
C597 C 0.38696 0.35063 0.5078 0.0
C598 C 0.67296 0.38624 0.04287 0.0
C599 C 0.67246 0.41976 0.06605 0.0
C600 C 0.66749 0.39356 1.00834 0.0
C601 C 0.66162 0.43473 0.99562 0.0
H602 H 0.6796 0.35416 0.05141 0.0
H603 H 0.67095 0.367 0.99143 0.0
S604 S 0.6521 0.53315 0.04555 0.0
N605 N 0.66212 0.49561 0.07356 0.0
N606 N 0.64998 0.50903 1.00902 0.0
C607 C 0.65758 0.46823 1.01859 0.0
C608 C 0.66339 0.46086 0.05367 0.0
C609 C 0.89975 0.13376 0.55295 0.0
C610 C 0.84027 0.1238 0.55835 0.0
C611 C 0.92143 0.14163 0.52063 0.0
C612 C 0.8846 0.1396 0.49238 0.0
H613 H 0.92945 0.13667 0.57394 0.0
H614 H 0.96739 0.1497 0.51779 0.0
S615 S 0.72605 0.11227 0.49286 0.0
N616 N 0.74568 0.10975 0.53249 0.0
N617 N 0.78583 0.12586 0.47209 0.0
C618 C 0.82538 0.12854 0.4974 0.0
C619 C 0.80339 0.1204 0.53025 0.0
C620 C 0.86084 0.8718 0.03901 0.0
C621 C 0.8357 0.90276 0.05989 0.0
C622 C 0.86062 0.87605 1.00401 0.0
C623 C 0.83482 0.91126 0.9885 0.0
H624 H 0.88056 0.84387 0.0498 0.0
H625 H 0.87893 0.85088 0.98897 0.0
S626 S 0.7658 1.00225 0.03164 0.0
N627 N 0.78603 0.97053 0.06226 0.0
N628 N 0.78631 0.97872 0.99673 0.0
C629 C 0.81114 0.94301 1.00909 0.0
C630 C 0.81147 0.93875 0.04466 0.0
C631 C 0.62428 0.63429 0.54374 0.0
C632 C 0.65973 0.60881 0.56429 0.0
C633 C 0.60915 0.62161 0.51117 0.0
C634 C 0.6288 0.58294 0.49794 0.0
H635 H 0.60599 0.66338 0.55338 0.0
H636 H 0.57995 0.64146 0.49675 0.0
S637 S 0.72946 0.5077 0.53981 0.0
N638 N 0.71884 0.54522 0.56778 0.0
N639 N 0.69059 0.52147 0.50677 0.0
C640 C 0.66666 0.55826 0.51765 0.0
C641 C 0.68206 0.57116 0.55072 0.0
C642 C 0.28944 0.5862 1.00679 0.0
C643 C 0.31896 0.62006 0.99149 0.0
C644 C 0.28749 0.58242 0.04177 0.0
C645 C 0.31558 0.61207 0.06265 0.0
H646 H 0.26633 0.56322 0.99168 0.0
H647 H 0.26325 0.55632 0.05259 0.0
S648 S 0.40213 0.70486 0.03455 0.0
N649 N 0.37989 0.68227 0.99962 0.0
N650 N 0.37534 0.67563 0.06516 0.0
C651 C 0.34687 0.64523 0.0475 0.0
C652 C 0.34873 0.64912 1.012 0.0
C653 C 0.17087 0.91526 0.51813 0.0
C654 C 0.18633 0.94378 0.49252 0.0
C655 C 0.16076 0.92897 0.55091 0.0
C656 C 0.16458 0.97193 0.55947 0.0
H657 H 0.1662 0.8819 0.51287 0.0
H658 H 0.15067 0.9055 0.56975 0.0
S659 S 0.20063 0.06001 0.50152 0.0
N660 N 0.20539 0.01721 0.47823 0.0
N661 N 0.18126 0.04339 0.53903 0.0
C662 C 0.17835 1.00102 0.53393 0.0
C663 C 0.19028 0.9869 0.50071 0.0
C664 C 0.15981 0.23208 0.36261 0.0
C665 C 0.13124 0.27145 0.36204 0.0
C666 C 0.13659 0.19716 0.34526 0.0
C667 C 0.08364 0.20041 0.32731 0.0
H668 H 0.1987 0.22774 0.37775 0.0
H669 H 0.15895 0.16711 0.34697 0.0
S670 S 0.99895 0.29844 0.31264 0.0
N671 N 0.0526 0.31301 0.33781 0.0
N672 N 0.00827 0.24743 0.30624 0.0
C673 C 0.05697 0.24019 0.32491 0.0
C674 C 0.08102 0.27569 0.34196 0.0
C675 C 0.44653 0.23968 0.84428 0.0
C676 C 0.39325 0.24061 0.86215 0.0
C677 C 0.46744 0.27524 0.82724 0.0
C678 C 0.43566 0.31323 0.8269 0.0
H679 H 0.47363 0.21162 0.84459 0.0
H680 H 0.50957 0.2731 0.81476 0.0
S681 S 0.29044 0.33118 0.86638 0.0
N682 N 0.30681 0.28193 0.87621 0.0
N683 N 0.34569 0.3487 0.84344 0.0
C684 C 0.38035 0.31388 0.84259 0.0
C685 C 0.35917 0.27757 0.86032 0.0
C686 C 0.61989 0.24645 0.72299 0.0
C687 C 0.61828 0.248 0.68795 0.0
C688 C 0.60457 0.28187 0.74225 0.0
C689 C 0.58728 0.32007 0.72705 0.0
H690 H 0.63032 0.21712 0.73556 0.0
H691 H 0.60366 0.27859 0.76917 0.0
S692 S 0.58316 0.34107 0.63571 0.0
N693 N 0.60279 0.29108 0.63869 0.0
N694 N 0.57553 0.35796 0.67448 0.0
C695 C 0.58901 0.32244 0.69188 0.0
C696 C 0.60405 0.28632 0.67244 0.0
C697 C 0.92506 0.24175 0.17586 0.0
C698 C 0.8944 0.27492 0.19122 0.0
C699 C 0.94308 0.20639 0.19403 0.0
C700 C 0.93185 0.20271 0.22857 0.0
H701 H 0.93642 0.2436 0.1496 0.0
H702 H 0.96755 0.18231 0.18084 0.0
S703 S 0.8487 0.28006 0.27998 0.0
N704 N 0.85007 0.30117 0.24227 0.0
N705 N 0.88438 0.2349 0.2769 0.0
C706 C 0.89885 0.23502 0.24398 0.0
C707 C 0.88002 0.27103 0.2252 0.0
C708 C 0.82792 0.83283 0.68029 0.0
C709 C 0.81128 0.79189 0.69043 0.0
C710 C 0.87565 0.85382 0.69485 0.0
C711 C 0.90902 0.83488 0.72026 0.0
H712 H 0.80274 0.84943 0.66149 0.0
H713 H 0.88477 0.88593 0.68708 0.0
S714 S 0.88937 0.72627 0.75302 0.0
N715 N 0.83551 0.73194 0.72579 0.0
N716 N 0.92672 0.77101 0.75225 0.0
C717 C 0.8957 0.79295 0.72908 0.0
C718 C 0.84658 0.77154 0.71438 0.0
C719 C 0.67225 0.69434 0.18176 0.0
C720 C 0.68913 0.73479 0.19266 0.0
C721 C 0.62418 0.67334 0.19599 0.0
C722 C 0.59288 0.69085 0.22285 0.0
H723 H 0.69748 0.67827 0.16266 0.0
H724 H 0.61286 0.64248 0.18666 0.0
S725 S 0.60675 0.80115 0.25281 0.0
N726 N 0.66177 0.79557 0.22624 0.0
N727 N 0.57234 0.75517 0.25374 0.0
C728 C 0.60499 0.73303 0.23142 0.0
C729 C 0.6531 0.75511 0.21623 0.0
C730 C 0.37582 0.76012 0.34963 0.0
C731 C 0.3246 0.74317 0.36422 0.0
C732 C 0.41109 0.73555 0.32812 0.0
C733 C 0.39664 0.69323 0.32117 0.0
H734 H 0.39036 0.79157 0.35625 0.0
H735 H 0.45126 0.74902 0.31824 0.0
S736 S 0.26475 0.63573 0.35051 0.0
N737 N 0.25762 0.68344 0.36631 0.0
N738 N 0.32739 0.63616 0.32973 0.0
C739 C 0.34477 0.67668 0.33463 0.0
C740 C 0.3077 0.70204 0.35501 0.0
C741 C 0.14325 0.78253 0.84852 0.0
C742 C 0.20324 0.7923 0.84462 0.0
C743 C 0.09983 0.80461 0.83047 0.0
C744 C 0.11503 0.83676 0.80766 0.0
H745 H 0.12965 0.75931 0.86685 0.0
H746 H 0.05405 0.79725 0.83501 0.0
S747 S 0.26579 0.87431 0.78902 0.0
N748 N 0.27533 0.83517 0.81554 0.0
N749 N 0.19421 0.8777 0.78337 0.0
C750 C 0.17482 0.84586 0.80313 0.0
C751 C 0.21875 0.8233 0.82109 0.0
loop_
_geom_bond_atom_site_label_1
_geom_bond_atom_site_label_2
_geom_bond_distance
_geom_bond_site_symmetry_2
_ccdc_geom_bond_type
H0 C1 0.949 . S
C1 H0 0.949 . S
C1 C2 1.395 . S
C1 C3 1.391 . S
C2 C1 1.395 . S
C2 C5 1.390 . S
C3 C1 1.391 . S
C3 C7 1.387 . S
C3 C8 1.491 . S
H4 C5 0.950 . S
C5 C2 1.390 . S
C5 H4 0.950 . S
C5 C6 1.378 . S
C6 C5 1.378 . S
C6 C7 1.409 . S
C7 C3 1.387 . S
C7 C6 1.409 . S
C7 H9 0.951 . S
C8 C3 1.491 . S
C8 C10 1.382 . S
C8 C12 1.404 . S
H9 C7 0.951 . S
C10 C8 1.382 . S
C10 C11 1.390 . S
C10 H15 0.949 . S
C11 C10 1.390 . S
C11 C16 1.399 . S
C12 C8 1.404 . S
C12 H13 0.950 . S
C12 C14 1.375 . S
H13 C12 0.950 . S
C14 C12 1.375 . S
C14 C16 1.382 . S
C14 H18 0.950 . S
H15 C10 0.949 . S
C16 C11 1.399 . S
C16 C14 1.382 . S
C16 H17 0.952 . S
H17 C16 0.952 . S
H18 C14 0.950 . S
H19 C20 0.949 . S
C20 H19 0.949 . S
C20 C21 1.395 . S
C20 C22 1.391 . S
C21 C20 1.395 . S
C21 C24 1.390 . S
C22 C20 1.391 . S
C22 C26 1.387 . S
C22 C27 1.491 . S
H23 C24 0.950 . S
C24 C21 1.390 . S
C24 H23 0.950 . S
C24 C25 1.378 . S
C25 C24 1.378 . S
C25 C26 1.409 . S
C26 C22 1.387 . S
C26 C25 1.409 . S
C26 H28 0.951 . S
C27 C22 1.491 . S
C27 C29 1.382 . S
C27 C31 1.404 . S
H28 C26 0.951 . S
C29 C27 1.382 . S
C29 C30 1.390 . S
C29 H34 0.949 . S
C30 C29 1.390 . S
C30 C35 1.399 . S
C31 C27 1.404 . S
C31 H32 0.950 . S
C31 C33 1.375 . S
H32 C31 0.950 . S
C33 C31 1.375 . S
C33 C35 1.382 . S
C33 H37 0.950 . S
H34 C29 0.949 . S
C35 C30 1.399 . S
C35 C33 1.382 . S
C35 H36 0.952 . S
H36 C35 0.952 . S
H37 C33 0.950 . S
H38 C39 0.949 . S
C39 H38 0.949 . S
C39 C40 1.395 . S
C39 C41 1.391 . S
C40 C39 1.395 . S
C40 C43 1.390 . S
C41 C39 1.391 . S
C41 C45 1.387 . S
C41 C46 1.491 . S
H42 C43 0.950 . S
C43 C40 1.390 . S
C43 H42 0.950 . S
C43 C44 1.378 . S
C44 C43 1.378 . S
C44 C45 1.409 . S
C45 C41 1.387 . S
C45 C44 1.409 . S
C45 H47 0.951 . S
C46 C41 1.491 . S
C46 C48 1.382 . S
C46 C50 1.404 . S
H47 C45 0.951 . S
C48 C46 1.382 . S
C48 C49 1.390 . S
C48 H53 0.949 . S
C49 C48 1.390 . S
C49 C54 1.399 . S
C50 C46 1.404 . S
C50 H51 0.950 . S
C50 C52 1.375 . S
H51 C50 0.950 . S
C52 C50 1.375 . S
C52 C54 1.382 . S
C52 H56 0.950 . S
H53 C48 0.949 . S
C54 C49 1.399 . S
C54 C52 1.382 . S
C54 H55 0.952 . S
H55 C54 0.952 . S
H56 C52 0.950 . S
H57 C58 0.949 . S
C58 H57 0.949 . S
C58 C59 1.395 . S
C58 C60 1.391 . S
C59 C58 1.395 . S
C59 C62 1.390 . S
C60 C58 1.391 . S
C60 C64 1.387 . S
C60 C65 1.491 . S
H61 C62 0.950 . S
C62 C59 1.390 . S
C62 H61 0.950 . S
C62 C63 1.378 . S
C63 C62 1.378 . S
C63 C64 1.409 . S
C64 C60 1.387 . S
C64 C63 1.409 . S
C64 H66 0.951 . S
C65 C60 1.491 . S
C65 C67 1.382 . S
C65 C69 1.404 . S
H66 C64 0.951 . S
C67 C65 1.382 . S
C67 C68 1.390 . S
C67 H72 0.949 . S
C68 C67 1.390 . S
C68 C73 1.399 . S
C69 C65 1.404 . S
C69 H70 0.950 . S
C69 C71 1.375 . S
H70 C69 0.950 . S
C71 C69 1.375 . S
C71 C73 1.382 . S
C71 H75 0.950 . S
H72 C67 0.949 . S
C73 C68 1.399 . S
C73 C71 1.382 . S
C73 H74 0.952 . S
H74 C73 0.952 . S
H75 C71 0.950 . S
H76 C77 0.949 . S
C77 H76 0.949 . S
C77 C78 1.395 . S
C77 C79 1.391 . S
C78 C77 1.395 . S
C78 C81 1.390 . S
C79 C77 1.391 . S
C79 C83 1.387 . S
C79 C84 1.491 . S
H80 C81 0.950 . S
C81 C78 1.390 . S
C81 H80 0.950 . S
C81 C82 1.378 . S
C82 C81 1.378 . S
C82 C83 1.409 . S
C83 C79 1.387 . S
C83 C82 1.409 . S
C83 H85 0.951 . S
C84 C79 1.491 . S
C84 C86 1.382 . S
C84 C88 1.404 . S
H85 C83 0.951 . S
C86 C84 1.382 . S
C86 C87 1.390 . S
C86 H91 0.949 . S
C87 C86 1.390 . S
C87 C92 1.399 . S
C88 C84 1.404 . S
C88 H89 0.950 . S
C88 C90 1.375 . S
H89 C88 0.950 . S
C90 C88 1.375 . S
C90 C92 1.382 . S
C90 H94 0.950 . S
H91 C86 0.949 . S
C92 C87 1.399 . S
C92 C90 1.382 . S
C92 H93 0.952 . S
H93 C92 0.952 . S
H94 C90 0.950 . S
H95 C96 0.949 . S
C96 H95 0.949 . S
C96 C97 1.395 . S
C96 C98 1.391 . S
C97 C96 1.395 . S
C97 C100 1.390 . S
C98 C96 1.391 . S
C98 C102 1.387 . S
C98 C103 1.491 . S
H99 C100 0.950 . S
C100 C97 1.390 . S
C100 H99 0.950 . S
C100 C101 1.378 . S
C101 C100 1.378 . S
C101 C102 1.409 . S
C102 C98 1.387 . S
C102 C101 1.409 . S
C102 H104 0.951 . S
C103 C98 1.491 . S
C103 C105 1.382 . S
C103 C107 1.404 . S
H104 C102 0.951 . S
C105 C103 1.382 . S
C105 C106 1.390 . S
C105 H110 0.949 . S
C106 C105 1.390 . S
C106 C111 1.399 . S
C107 C103 1.404 . S
C107 H108 0.950 . S
C107 C109 1.375 . S
H108 C107 0.950 . S
C109 C107 1.375 . S
C109 C111 1.382 . S
C109 H113 0.950 . S
H110 C105 0.949 . S
C111 C106 1.399 . S
C111 C109 1.382 . S
C111 H112 0.952 . S
H112 C111 0.952 . S
H113 C109 0.950 . S
H114 C115 0.949 . S
C115 H114 0.949 . S
C115 C116 1.395 . S
C115 C117 1.391 . S
C116 C115 1.395 . S
C116 C119 1.390 . S
C117 C115 1.391 . S
C117 C121 1.387 . S
C117 C122 1.491 . S
H118 C119 0.950 . S
C119 C116 1.390 . S
C119 H118 0.950 . S
C119 C120 1.378 . S
C120 C119 1.378 . S
C120 C121 1.409 . S
C121 C117 1.387 . S
C121 C120 1.409 . S
C121 H123 0.951 . S
C122 C117 1.491 . S
C122 C124 1.382 . S
C122 C126 1.404 . S
H123 C121 0.951 . S
C124 C122 1.382 . S
C124 C125 1.390 . S
C124 H129 0.949 . S
C125 C124 1.390 . S
C125 C130 1.399 . S
C126 C122 1.404 . S
C126 H127 0.950 . S
C126 C128 1.375 . S
H127 C126 0.950 . S
C128 C126 1.375 . S
C128 C130 1.382 . S
C128 H132 0.950 . S
H129 C124 0.949 . S
C130 C125 1.399 . S
C130 C128 1.382 . S
C130 H131 0.952 . S
H131 C130 0.952 . S
H132 C128 0.950 . S
H133 C134 0.949 . S
C134 H133 0.949 . S
C134 C135 1.395 . S
C134 C136 1.391 . S
C135 C134 1.395 . S
C135 C138 1.390 . S
C136 C134 1.391 . S
C136 C140 1.387 . S
C136 C141 1.491 . S
H137 C138 0.950 . S
C138 C135 1.390 . S
C138 H137 0.950 . S
C138 C139 1.378 . S
C139 C138 1.378 . S
C139 C140 1.409 . S
C140 C136 1.387 . S
C140 C139 1.409 . S
C140 H142 0.951 . S
C141 C136 1.491 . S
C141 C143 1.382 . S
C141 C145 1.404 . S
H142 C140 0.951 . S
C143 C141 1.382 . S
C143 C144 1.390 . S
C143 H148 0.949 . S
C144 C143 1.390 . S
C144 C149 1.399 . S
C145 C141 1.404 . S
C145 H146 0.950 . S
C145 C147 1.375 . S
H146 C145 0.950 . S
C147 C145 1.375 . S
C147 C149 1.382 . S
C147 H151 0.950 . S
H148 C143 0.949 . S
C149 C144 1.399 . S
C149 C147 1.382 . S
C149 H150 0.952 . S
H150 C149 0.952 . S
H151 C147 0.950 . S
Eu152 N181 2.600 . S
Eu152 N187 2.562 . S
Eu152 O196 2.462 . S
Eu152 O197 2.373 . S
Eu152 O199 2.432 . S
Eu152 O200 2.291 1_455 S
Eu152 O204 2.335 1_455 S
Eu152 O207 2.372 . S
Eu152 C216 2.787 . S
C153 N154 1.365 . S
C153 C156 1.405 . S
C153 C160 1.448 . S
N154 C153 1.365 . S
N154 C157 1.319 . S
N154 Eu163 2.600 . S
C155 C157 1.397 . S
C155 C158 1.367 . S
C155 H175 0.931 . S
C156 C153 1.405 . S
C156 C158 1.403 . S
C156 C162 1.439 . S
C157 N154 1.319 . S
C157 C155 1.397 . S
C157 H168 0.930 . S
C158 C155 1.367 . S
C158 C156 1.403 . S
C158 H179 0.929 . S
C159 C160 1.430 1_565 S
C159 C161 1.387 . S
C159 C165 1.404 . S
C160 C153 1.448 . S
C160 C159 1.430 1_545 S
C160 N164 1.351 . S
C161 C159 1.387 . S
C161 C162 1.374 1_565 S
C161 H176 0.931 . S
C162 C156 1.439 . S
C162 C161 1.374 1_545 S
C162 H177 0.931 . S
Eu163 N154 2.600 . S
Eu163 N164 2.562 . S
Eu163 O198 2.335 1_655 S
Eu163 O201 2.372 . S
Eu163 O202 2.462 . S
Eu163 O203 2.373 . S
Eu163 O205 2.432 . S
Eu163 O206 2.291 1_655 S
Eu163 C227 2.787 . S
N164 C160 1.351 . S
N164 Eu163 2.562 . S
N164 C166 1.325 1_545 S
C165 C159 1.404 . S
C165 C167 1.366 . S
C165 H173 0.930 . S
C166 N164 1.325 1_565 S
C166 C167 1.416 . S
C166 H172 0.929 . S
C167 C165 1.366 . S
C167 C166 1.416 . S
C167 H169 0.930 . S
H168 C157 0.930 . S
H169 C167 0.930 . S
H170 C185 0.930 . S
H171 C192 0.930 . S
H172 C166 0.929 . S
H173 C165 0.930 . S
H174 C188 0.929 . S
H175 C155 0.931 . S
H176 C161 0.931 . S
H177 C162 0.931 . S
H178 C183 0.931 . S
H179 C158 0.929 . S
H180 C191 0.930 . S
N181 Eu152 2.600 . S
N181 C182 1.365 . S
N181 C185 1.319 . S
C182 N181 1.365 . S
C182 C184 1.405 . S
C182 C190 1.448 . S
C183 H178 0.931 . S
C183 C185 1.397 . S
C183 C186 1.367 . S
C184 C182 1.405 . S
C184 C186 1.403 . S
C184 C217 1.439 . S
C185 H170 0.930 . S
C185 N181 1.319 . S
C185 C183 1.397 . S
C186 C183 1.367 . S
C186 C184 1.403 . S
C186 H193 0.929 . S
N187 Eu152 2.562 . S
N187 C188 1.325 . S
N187 C190 1.351 . S
C188 H174 0.929 . S
C188 N187 1.325 . S
C188 C192 1.416 . S
C189 C190 1.430 . S
C189 C191 1.404 . S
C189 C218 1.387 . S
C190 C182 1.448 . S
C190 N187 1.351 . S
C190 C189 1.430 . S
C191 H180 0.930 . S
C191 C189 1.404 . S
C191 C192 1.366 . S
C192 H171 0.930 . S
C192 C188 1.416 . S
C192 C191 1.366 . S
H193 C186 0.929 . S
H194 C217 0.931 . S
H195 C218 0.931 . S
O196 Eu152 2.462 . S
O196 C216 1.252 . S
O197 Eu152 2.373 . S
O197 C208 1.249 . S
O198 Eu163 2.335 1_455 S
O198 C208 1.264 . S
O199 Eu152 2.432 . S
O199 C216 1.268 . S
O200 Eu152 2.291 1_655 S
O200 C215 1.255 . S
O201 Eu163 2.372 . S
O201 C215 1.257 . S
O202 Eu163 2.462 . S
O202 C227 1.252 . S
O203 Eu163 2.373 . S
O203 C219 1.249 . S
O204 Eu152 2.335 1_655 S
O204 C219 1.264 . S
O205 Eu163 2.432 . S
O205 C227 1.268 . S
O206 Eu163 2.291 1_455 S
O206 C226 1.255 . S
O207 Eu152 2.372 . S
O207 C226 1.257 . S
C208 O197 1.249 . S
C208 O198 1.264 . S
C209 C212 1.382 . S
C209 C214 1.390 . S
C209 C216 1.506 . S
C210 C211 1.398 . S
C210 C214 1.392 . S
C211 C210 1.398 . S
C211 C213 1.372 . S
C211 H228 0.931 . S
C212 C209 1.382 . S
C212 C213 1.390 . S
C212 H229 0.931 . S
C213 C211 1.372 . S
C213 C212 1.390 . S
C213 H230 0.929 1_545 S
C214 C209 1.390 . S
C214 C210 1.392 . S
C214 H231 0.930 . S
C215 O200 1.255 . S
C215 O201 1.257 . S
C216 Eu152 2.787 . S
C216 O196 1.252 . S
C216 O199 1.268 . S
C216 C209 1.506 . S
C217 C184 1.439 . S
C217 H194 0.931 . S
C217 C218 1.374 . S
C218 C189 1.387 . S
C218 H195 0.931 . S
C218 C217 1.374 . S
C219 O203 1.249 . S
C219 O204 1.264 . S
C220 C223 1.382 . S
C220 C224 1.390 . S
C220 C227 1.506 . S
C221 C222 1.398 . S
C221 C224 1.392 . S
C222 C221 1.398 . S
C222 C225 1.372 . S
C222 H232 0.931 . S
C223 C220 1.382 . S
C223 C225 1.390 . S
C223 H233 0.931 . S
C224 C220 1.390 . S
C224 C221 1.392 . S
C224 H234 0.930 . S
C225 C222 1.372 . S
C225 C223 1.390 . S
C225 H235 0.929 . S
C226 O206 1.255 . S
C226 O207 1.257 . S
C227 Eu163 2.787 . S
C227 O202 1.252 . S
C227 O205 1.268 . S
C227 C220 1.506 . S
H228 C211 0.931 . S
H229 C212 0.931 . S
H230 C213 0.929 1_565 S
H231 C214 0.930 . S
H232 C222 0.931 . S
H233 C223 0.931 . S
H234 C224 0.930 . S
H235 C225 0.929 . S
Eu236 N265 2.600 . S
Eu236 N271 2.562 . S
Eu236 O280 2.462 . S
Eu236 O281 2.373 . S
Eu236 O283 2.432 . S
Eu236 O284 2.291 . S
Eu236 O288 2.335 . S
Eu236 O291 2.372 . S
Eu236 C300 2.787 . S
C237 N238 1.365 . S
C237 C240 1.405 . S
C237 C244 1.448 . S
N238 C237 1.365 . S
N238 C241 1.319 . S
N238 Eu247 2.600 . S
C239 C241 1.397 . S
C239 C242 1.367 . S
C239 H259 0.931 . S
C240 C237 1.405 . S
C240 C242 1.403 . S
C240 C246 1.439 . S
C241 N238 1.319 . S
C241 C239 1.397 . S
C241 H252 0.930 . S
C242 C239 1.367 . S
C242 C240 1.403 . S
C242 H263 0.929 . S
C243 C244 1.430 . S
C243 C245 1.387 . S
C243 C249 1.404 . S
C244 C237 1.448 . S
C244 C243 1.430 . S
C244 N248 1.351 . S
C245 C243 1.387 . S
C245 C246 1.374 . S
C245 H260 0.931 . S
C246 C240 1.439 . S
C246 C245 1.374 . S
C246 H261 0.931 . S
Eu247 N238 2.600 . S
Eu247 N248 2.562 . S
Eu247 O282 2.335 . S
Eu247 O285 2.372 . S
Eu247 O286 2.462 . S
Eu247 O287 2.373 . S
Eu247 O289 2.432 . S
Eu247 O290 2.291 . S
Eu247 C311 2.787 . S
N248 C244 1.351 . S
N248 Eu247 2.562 . S
N248 C250 1.325 . S
C249 C243 1.404 . S
C249 C251 1.366 . S
C249 H257 0.930 . S
C250 N248 1.325 . S
C250 C251 1.416 . S
C250 H256 0.929 . S
C251 C249 1.366 . S
C251 C250 1.416 . S
C251 H253 0.930 . S
H252 C241 0.930 . S
H253 C251 0.930 . S
H254 C269 0.930 . S
H255 C276 0.930 . S
H256 C250 0.929 . S
H257 C249 0.930 . S
H258 C272 0.929 . S
H259 C239 0.931 . S
H260 C245 0.931 . S
H261 C246 0.931 . S
H262 C267 0.931 . S
H263 C242 0.929 . S
H264 C275 0.930 . S
N265 Eu236 2.600 . S
N265 C266 1.365 . S
N265 C269 1.319 . S
C266 N265 1.365 . S
C266 C268 1.405 . S
C266 C274 1.448 . S
C267 H262 0.931 . S
C267 C269 1.397 . S
C267 C270 1.367 . S
C268 C266 1.405 . S
C268 C270 1.403 . S
C268 C301 1.439 . S
C269 H254 0.930 . S
C269 N265 1.319 . S
C269 C267 1.397 . S
C270 C267 1.367 . S
C270 C268 1.403 . S
C270 H277 0.929 . S
N271 Eu236 2.562 . S
N271 C272 1.325 . S
N271 C274 1.351 . S
C272 H258 0.929 . S
C272 N271 1.325 . S
C272 C276 1.416 . S
C273 C274 1.430 . S
C273 C275 1.404 . S
C273 C302 1.387 . S
C274 C266 1.448 . S
C274 N271 1.351 . S
C274 C273 1.430 . S
C275 H264 0.930 . S
C275 C273 1.404 . S
C275 C276 1.366 . S
C276 H255 0.930 . S
C276 C272 1.416 . S
C276 C275 1.366 . S
H277 C270 0.929 . S
H278 C301 0.931 . S
H279 C302 0.931 . S
O280 Eu236 2.462 . S
O280 C300 1.252 . S
O281 Eu236 2.373 . S
O281 C292 1.249 . S
O282 Eu247 2.335 . S
O282 C292 1.264 . S
O283 Eu236 2.432 . S
O283 C300 1.268 . S
O284 Eu236 2.291 . S
O284 C299 1.255 . S
O285 Eu247 2.372 . S
O285 C299 1.257 . S
O286 Eu247 2.462 . S
O286 C311 1.252 . S
O287 Eu247 2.373 . S
O287 C303 1.249 . S
O288 Eu236 2.335 . S
O288 C303 1.264 . S
O289 Eu247 2.432 . S
O289 C311 1.268 . S
O290 Eu247 2.291 . S
O290 C310 1.255 . S
O291 Eu236 2.372 . S
O291 C310 1.257 . S
C292 O281 1.249 . S
C292 O282 1.264 . S
C293 C296 1.382 . S
C293 C298 1.390 . S
C293 C300 1.506 . S
C294 C295 1.398 . S
C294 C298 1.392 . S
C295 C294 1.398 . S
C295 C297 1.372 . S
C295 H312 0.931 . S
C296 C293 1.382 . S
C296 C297 1.390 . S
C296 H313 0.931 . S
C297 C295 1.372 . S
C297 C296 1.390 . S
C297 H314 0.929 . S
C298 C293 1.390 . S
C298 C294 1.392 . S
C298 H315 0.930 . S
C299 O284 1.255 . S
C299 O285 1.257 . S
C300 Eu236 2.787 . S
C300 O280 1.252 . S
C300 O283 1.268 . S
C300 C293 1.506 . S
C301 C268 1.439 . S
C301 H278 0.931 . S
C301 C302 1.374 . S
C302 C273 1.387 . S
C302 H279 0.931 . S
C302 C301 1.374 . S
C303 O287 1.249 . S
C303 O288 1.264 . S
C304 C307 1.382 . S
C304 C308 1.390 . S
C304 C311 1.506 . S
C305 C306 1.398 . S
C305 C308 1.392 . S
C306 C305 1.398 . S
C306 C309 1.372 . S
C306 H316 0.931 . S
C307 C304 1.382 . S
C307 C309 1.390 . S
C307 H317 0.931 . S
C308 C304 1.390 . S
C308 C305 1.392 . S
C308 H318 0.930 . S
C309 C306 1.372 . S
C309 C307 1.390 . S
C309 H319 0.929 . S
C310 O290 1.255 . S
C310 O291 1.257 . S
C311 Eu247 2.787 . S
C311 O286 1.252 . S
C311 O289 1.268 . S
C311 C304 1.506 . S
H312 C295 0.931 . S
H313 C296 0.931 . S
H314 C297 0.929 . S
H315 C298 0.930 . S
H316 C306 0.931 . S
H317 C307 0.931 . S
H318 C308 0.930 . S
H319 C309 0.929 . S
Eu320 N349 2.600 . S
Eu320 N355 2.562 . S
Eu320 O364 2.462 . S
Eu320 O365 2.373 . S
Eu320 O367 2.432 . S
Eu320 O368 2.282 1_455 S
Eu320 O372 2.330 1_455 S
Eu320 O375 2.372 . S
Eu320 C384 2.787 . S
C321 N322 1.365 . S
C321 C324 1.405 . S
C321 C328 1.448 . S
N322 C321 1.365 . S
N322 C325 1.319 . S
N322 Eu331 2.600 . S
C323 C325 1.397 . S
C323 C326 1.367 . S
C323 H343 0.931 . S
C324 C321 1.405 . S
C324 C326 1.403 . S
C324 C330 1.439 . S
C325 N322 1.319 . S
C325 C323 1.397 . S
C325 H336 0.930 . S
C326 C323 1.367 . S
C326 C324 1.403 . S
C326 H347 0.929 . S
C327 C328 1.430 . S
C327 C329 1.387 . S
C327 C333 1.404 . S
C328 C321 1.448 . S
C328 C327 1.430 . S
C328 N332 1.351 . S
C329 C327 1.387 . S
C329 C330 1.374 . S
C329 H344 0.931 . S
C330 C324 1.439 . S
C330 C329 1.374 . S
C330 H345 0.931 . S
Eu331 N322 2.600 . S
Eu331 N332 2.562 . S
Eu331 O366 2.335 1_655 S
Eu331 O369 2.372 . S
Eu331 O370 2.462 . S
Eu331 O371 2.373 . S
Eu331 O373 2.432 . S
Eu331 O374 2.291 1_655 S
Eu331 C395 2.787 . S
N332 C328 1.351 . S
N332 Eu331 2.562 . S
N332 C334 1.325 . S
C333 C327 1.404 . S
C333 C335 1.366 . S
C333 H341 0.930 . S
C334 N332 1.325 . S
C334 C335 1.416 . S
C334 H340 0.929 . S
C335 C333 1.366 . S
C335 C334 1.416 . S
C335 H337 0.930 . S
H336 C325 0.930 . S
H337 C335 0.930 . S
H338 C353 0.930 . S
H339 C360 0.930 . S
H340 C334 0.929 . S
H341 C333 0.930 . S
H342 C356 0.929 . S
H343 C323 0.931 . S
H344 C329 0.931 . S
H345 C330 0.931 . S
H346 C351 0.931 . S
H347 C326 0.929 . S
H348 C359 0.930 . S
N349 Eu320 2.600 . S
N349 C350 1.365 . S
N349 C353 1.319 . S
C350 N349 1.365 . S
C350 C352 1.405 . S
C350 C358 1.448 . S
C351 H346 0.931 . S
C351 C353 1.397 . S
C351 C354 1.367 . S
C352 C350 1.405 . S
C352 C354 1.403 . S
C352 C385 1.439 . S
C353 H338 0.930 . S
C353 N349 1.319 . S
C353 C351 1.397 . S
C354 C351 1.367 . S
C354 C352 1.403 . S
C354 H361 0.929 . S
N355 Eu320 2.562 . S
N355 C356 1.325 1_565 S
N355 C358 1.351 . S
C356 H342 0.929 . S
C356 N355 1.325 1_545 S
C356 C360 1.416 . S
C357 C358 1.430 1_545 S
C357 C359 1.404 . S
C357 C386 1.387 . S
C358 C350 1.448 . S
C358 N355 1.351 . S
C358 C357 1.430 1_565 S
C359 H348 0.930 . S
C359 C357 1.404 . S
C359 C360 1.366 . S
C360 H339 0.930 . S
C360 C356 1.416 . S
C360 C359 1.366 . S
H361 C354 0.929 . S
H362 C385 0.931 . S
H363 C386 0.931 . S
O364 Eu320 2.462 . S
O364 C384 1.252 . S
O365 Eu320 2.373 . S
O365 C376 1.249 . S
O366 Eu331 2.335 1_455 S
O366 C376 1.264 . S
O367 Eu320 2.432 . S
O367 C384 1.268 . S
O368 Eu320 2.282 1_655 S
O368 C383 1.266 . S
O369 Eu331 2.372 . S
O369 C383 1.257 . S
O370 Eu331 2.462 . S
O370 C395 1.252 . S
O371 Eu331 2.373 . S
O371 C387 1.249 . S
O372 Eu320 2.330 1_655 S
O372 C387 1.270 . S
O373 Eu331 2.432 . S
O373 C395 1.268 . S
O374 Eu331 2.291 1_455 S
O374 C394 1.255 . S
O375 Eu320 2.372 . S
O375 C394 1.257 . S
C376 O365 1.249 . S
C376 O366 1.264 . S
C377 C380 1.382 . S
C377 C382 1.390 . S
C377 C384 1.506 . S
C378 C379 1.398 . S
C378 C382 1.392 . S
C379 C378 1.398 . S
C379 C381 1.372 . S
C379 H396 0.931 . S
C380 C377 1.382 . S
C380 C381 1.390 . S
C380 H397 0.931 . S
C381 C379 1.372 . S
C381 C380 1.390 . S
C381 H398 0.929 . S
C382 C377 1.390 . S
C382 C378 1.392 . S
C382 H399 0.930 . S
C383 O368 1.266 . S
C383 O369 1.257 . S
C384 Eu320 2.787 . S
C384 O364 1.252 . S
C384 O367 1.268 . S
C384 C377 1.506 . S
C385 C352 1.439 . S
C385 H362 0.931 . S
C385 C386 1.374 1_565 S
C386 C357 1.387 . S
C386 H363 0.931 . S
C386 C385 1.374 1_545 S
C387 O371 1.249 . S
C387 O372 1.270 . S
C388 C391 1.382 . S
C388 C392 1.390 . S
C388 C395 1.506 . S
C389 C390 1.398 . S
C389 C392 1.392 . S
C390 C389 1.398 . S
C390 C393 1.372 . S
C390 H400 0.931 . S
C391 C388 1.382 . S
C391 C393 1.390 . S
C391 H401 0.931 . S
C392 C388 1.390 . S
C392 C389 1.392 . S
C392 H402 0.930 . S
C393 C390 1.372 . S
C393 C391 1.390 . S
C393 H403 0.929 1_565 S
C394 O374 1.255 . S
C394 O375 1.257 . S
C395 Eu331 2.787 . S
C395 O370 1.252 . S
C395 O373 1.268 . S
C395 C388 1.506 . S
H396 C379 0.931 . S
H397 C380 0.931 . S
H398 C381 0.929 . S
H399 C382 0.930 . S
H400 C390 0.931 . S
H401 C391 0.931 . S
H402 C392 0.930 . S
H403 C393 0.929 1_545 S
Eu404 N433 2.600 . S
Eu404 N439 2.562 . S
Eu404 O448 2.462 . S
Eu404 O449 2.373 . S
Eu404 O451 2.432 . S
Eu404 O452 2.291 . S
Eu404 O456 2.335 . S
Eu404 O459 2.372 . S
Eu404 C468 2.787 . S
C405 N406 1.365 . S
C405 C408 1.405 . S
C405 C412 1.448 . S
N406 C405 1.365 . S
N406 C409 1.319 . S
N406 Eu415 2.600 . S
C407 C409 1.397 . S
C407 C410 1.367 . S
C407 H427 0.931 . S
C408 C405 1.405 . S
C408 C410 1.403 . S
C408 C414 1.439 . S
C409 N406 1.319 . S
C409 C407 1.397 . S
C409 H420 0.930 . S
C410 C407 1.367 . S
C410 C408 1.403 . S
C410 H431 0.929 . S
C411 C412 1.430 . S
C411 C413 1.387 . S
C411 C417 1.404 . S
C412 C405 1.448 . S
C412 C411 1.430 . S
C412 N416 1.351 . S
C413 C411 1.387 . S
C413 C414 1.374 . S
C413 H428 0.931 . S
C414 C408 1.439 . S
C414 C413 1.374 . S
C414 H429 0.931 . S
Eu415 N406 2.600 . S
Eu415 N416 2.562 . S
Eu415 O450 2.335 . S
Eu415 O453 2.372 . S
Eu415 O454 2.462 . S
Eu415 O455 2.373 . S
Eu415 O457 2.432 . S
Eu415 O458 2.291 . S
Eu415 C479 2.787 . S
N416 C412 1.351 . S
N416 Eu415 2.562 . S
N416 C418 1.325 . S
C417 C411 1.404 . S
C417 C419 1.366 . S
C417 H425 0.930 . S
C418 N416 1.325 . S
C418 C419 1.416 . S
C418 H424 0.929 . S
C419 C417 1.366 . S
C419 C418 1.416 . S
C419 H421 0.930 . S
H420 C409 0.930 . S
H421 C419 0.930 . S
H422 C437 0.930 . S
H423 C444 0.930 . S
H424 C418 0.929 . S
H425 C417 0.930 . S
H426 C440 0.929 . S
H427 C407 0.931 . S
H428 C413 0.931 . S
H429 C414 0.931 . S
H430 C435 0.931 . S
H431 C410 0.929 . S
H432 C443 0.930 . S
N433 Eu404 2.600 . S
N433 C434 1.365 . S
N433 C437 1.319 . S
C434 N433 1.365 . S
C434 C436 1.405 . S
C434 C442 1.448 . S
C435 H430 0.931 . S
C435 C437 1.397 . S
C435 C438 1.367 . S
C436 C434 1.405 . S
C436 C438 1.403 . S
C436 C469 1.439 . S
C437 H422 0.930 . S
C437 N433 1.319 . S
C437 C435 1.397 . S
C438 C435 1.367 . S
C438 C436 1.403 . S
C438 H445 0.929 . S
N439 Eu404 2.562 . S
N439 C440 1.325 . S
N439 C442 1.351 . S
C440 H426 0.929 . S
C440 N439 1.325 . S
C440 C444 1.416 . S
C441 C442 1.430 . S
C441 C443 1.404 . S
C441 C470 1.387 . S
C442 C434 1.448 . S
C442 N439 1.351 . S
C442 C441 1.430 . S
C443 H432 0.930 . S
C443 C441 1.404 . S
C443 C444 1.366 . S
C444 H423 0.930 . S
C444 C440 1.416 . S
C444 C443 1.366 . S
H445 C438 0.929 . S
H446 C469 0.931 . S
H447 C470 0.931 . S
O448 Eu404 2.462 . S
O448 C468 1.252 . S
O449 Eu404 2.373 . S
O449 C460 1.249 . S
O450 Eu415 2.335 . S
O450 C460 1.264 . S
O451 Eu404 2.432 . S
O451 C468 1.268 . S
O452 Eu404 2.291 . S
O452 C467 1.255 . S
O453 Eu415 2.372 . S
O453 C467 1.257 . S
O454 Eu415 2.462 . S
O454 C479 1.252 . S
O455 Eu415 2.373 . S
O455 C471 1.249 . S
O456 Eu404 2.335 . S
O456 C471 1.264 . S
O457 Eu415 2.432 . S
O457 C479 1.268 . S
O458 Eu415 2.291 . S
O458 C478 1.255 . S
O459 Eu404 2.372 . S
O459 C478 1.257 . S
C460 O449 1.249 . S
C460 O450 1.264 . S
C461 C464 1.382 . S
C461 C466 1.390 . S
C461 C468 1.506 . S
C462 C463 1.398 . S
C462 C466 1.392 . S
C463 C462 1.398 . S
C463 C465 1.372 . S
C463 H480 0.931 . S
C464 C461 1.382 . S
C464 C465 1.390 . S
C464 H481 0.931 . S
C465 C463 1.372 . S
C465 C464 1.390 . S
C465 H482 0.929 . S
C466 C461 1.390 . S
C466 C462 1.392 . S
C466 H483 0.930 . S
C467 O452 1.255 . S
C467 O453 1.257 . S
C468 Eu404 2.787 . S
C468 O448 1.252 . S
C468 O451 1.268 . S
C468 C461 1.506 . S
C469 C436 1.439 . S
C469 H446 0.931 . S
C469 C470 1.374 . S
C470 C441 1.387 . S
C470 H447 0.931 . S
C470 C469 1.374 . S
C471 O455 1.249 . S
C471 O456 1.264 . S
C472 C475 1.382 . S
C472 C476 1.390 . S
C472 C479 1.506 . S
C473 C474 1.398 . S
C473 C476 1.392 . S
C474 C473 1.398 . S
C474 C477 1.372 . S
C474 H484 0.931 . S
C475 C472 1.382 . S
C475 C477 1.390 . S
C475 H485 0.931 . S
C476 C472 1.390 . S
C476 C473 1.392 . S
C476 H486 0.930 . S
C477 C474 1.372 . S
C477 C475 1.390 . S
C477 H487 0.929 . S
C478 O458 1.255 . S
C478 O459 1.257 . S
C479 Eu415 2.787 . S
C479 O454 1.252 . S
C479 O457 1.268 . S
C479 C472 1.506 . S
H480 C463 0.931 . S
H481 C464 0.931 . S
H482 C465 0.929 . S
H483 C466 0.930 . S
H484 C474 0.931 . S
H485 C475 0.931 . S
H486 C476 0.930 . S
H487 C477 0.929 . S
C488 C489 1.369 . S
C488 C490 1.419 . S
C488 H492 0.930 . S
C489 C488 1.369 . S
C489 C498 1.429 . S
C490 C488 1.419 . S
C490 C491 1.363 . S
C490 H493 0.929 . S
C491 C490 1.363 . S
C491 C497 1.427 1_565 S
H492 C488 0.930 . S
H493 C490 0.929 . S
S494 N495 1.613 1_545 S
S494 N496 1.610 . S
N495 S494 1.613 1_565 S
N495 C498 1.350 . S
N496 S494 1.610 . S
N496 C497 1.355 . S
C497 C491 1.427 1_545 S
C497 N496 1.355 . S
C497 C498 1.431 1_545 S
C498 C489 1.429 . S
C498 N495 1.350 . S
C498 C497 1.431 1_565 S
C499 C500 1.369 . S
C499 C501 1.419 . S
C499 H503 0.930 . S
C500 C499 1.369 . S
C500 C509 1.429 . S
C501 C499 1.419 . S
C501 C502 1.363 . S
C501 H504 0.929 . S
C502 C501 1.363 . S
C502 C508 1.428 . S
H503 C499 0.930 . S
H504 C501 0.929 . S
S505 N506 1.613 . S
S505 N507 1.610 . S
N506 S505 1.613 . S
N506 C509 1.350 . S
N507 S505 1.610 . S
N507 C508 1.351 . S
C508 C502 1.428 . S
C508 N507 1.351 . S
C508 C509 1.434 . S
C509 C500 1.429 . S
C509 N506 1.350 . S
C509 C508 1.434 . S
C510 C511 1.369 . S
C510 C512 1.419 . S
C510 H514 0.930 . S
C511 C510 1.369 . S
C511 C520 1.429 . S
C512 C510 1.419 . S
C512 C513 1.363 . S
C512 H515 0.929 . S
C513 C512 1.363 . S
C513 C519 1.428 . S
H514 C510 0.930 . S
H515 C512 0.929 . S
S516 N517 1.613 . S
S516 N518 1.610 . S
N517 S516 1.613 . S
N517 C520 1.350 . S
N518 S516 1.610 . S
N518 C519 1.351 . S
C519 C513 1.428 . S
C519 N518 1.351 . S
C519 C520 1.434 . S
C520 C511 1.429 . S
C520 N517 1.350 . S
C520 C519 1.434 . S
C521 C522 1.369 . S
C521 C523 1.419 . S
C521 H525 0.930 . S
C522 C521 1.369 . S
C522 C531 1.429 . S
C523 C521 1.419 . S
C523 C524 1.363 . S
C523 H526 0.929 . S
C524 C523 1.363 . S
C524 C530 1.428 1_565 S
H525 C521 0.930 . S
H526 C523 0.929 . S
S527 N528 1.585 1_545 S
S527 N529 1.610 . S
N528 S527 1.585 1_565 S
N528 C531 1.366 . S
N529 S527 1.610 . S
N529 C530 1.351 . S
C530 C524 1.428 1_545 S
C530 N529 1.351 . S
C530 C531 1.434 1_545 S
C531 C522 1.429 . S
C531 N528 1.366 . S
C531 C530 1.434 1_565 S
C532 C533 1.369 . S
C532 C534 1.419 . S
C532 H536 0.930 . S
C533 C532 1.369 . S
C533 C542 1.429 . S
C534 C532 1.419 . S
C534 C535 1.363 . S
C534 H537 0.929 . S
C535 C534 1.363 . S
C535 C541 1.428 . S
H536 C532 0.930 . S
H537 C534 0.929 . S
S538 N539 1.613 . S
S538 N540 1.610 . S
N539 S538 1.613 . S
N539 C542 1.350 . S
N540 S538 1.610 . S
N540 C541 1.351 . S
C541 C535 1.428 . S
C541 N540 1.351 . S
C541 C542 1.434 . S
C542 C533 1.429 . S
C542 N539 1.350 . S
C542 C541 1.434 . S
C543 C544 1.369 . S
C543 C545 1.419 . S
C543 H547 0.930 . S
C544 C543 1.369 . S
C544 C553 1.429 . S
C545 C543 1.419 . S
C545 C546 1.363 . S
C545 H548 0.929 . S
C546 C545 1.363 . S
C546 C552 1.428 . S
H547 C543 0.930 . S
H548 C545 0.929 . S
S549 N550 1.613 . S
S549 N551 1.610 . S
N550 S549 1.613 . S
N550 C553 1.350 . S
N551 S549 1.610 . S
N551 C552 1.351 . S
C552 C546 1.428 . S
C552 N551 1.351 . S
C552 C553 1.434 . S
C553 C544 1.429 . S
C553 N550 1.350 . S
C553 C552 1.434 . S
C554 C555 1.369 . S
C554 C556 1.419 . S
C554 H558 0.930 . S
C555 C554 1.369 . S
C555 C564 1.429 . S
C556 C554 1.419 . S
C556 C557 1.363 . S
C556 H559 0.929 . S
C557 C556 1.363 . S
C557 C563 1.428 . S
H558 C554 0.930 . S
H559 C556 0.929 . S
S560 N561 1.613 . S
S560 N562 1.610 . S
N561 S560 1.613 . S
N561 C564 1.350 . S
N562 S560 1.610 . S
N562 C563 1.351 . S
C563 C557 1.428 . S
C563 N562 1.351 . S
C563 C564 1.434 . S
C564 C555 1.429 . S
C564 N561 1.350 . S
C564 C563 1.434 . S
C565 C566 1.369 . S
C565 C567 1.419 . S
C565 H569 0.930 . S
C566 C565 1.369 . S
C566 C575 1.429 . S
C567 C565 1.419 . S
C567 C568 1.363 . S
C567 H570 0.929 . S
C568 C567 1.363 . S
C568 C574 1.424 1_545 S
H569 C565 0.930 . S
H570 C567 0.929 . S
S571 N572 1.613 1_565 S
S571 N573 1.610 . S
N572 S571 1.613 1_545 S
N572 C575 1.350 . S
N573 S571 1.610 . S
N573 C574 1.362 . S
C574 C568 1.424 1_565 S
C574 N573 1.362 . S
C574 C575 1.428 1_565 S
C575 C566 1.429 . S
C575 N572 1.350 . S
C575 C574 1.428 1_545 S
C576 C577 1.369 . S
C576 C578 1.419 1_556 S
C576 H580 0.930 . S
C577 C576 1.369 . S
C577 C586 1.418 1_556 S
C578 C576 1.419 1_554 S
C578 C579 1.363 . S
C578 H581 0.929 . S
C579 C578 1.363 . S
C579 C585 1.428 . S
H580 C576 0.930 . S
H581 C578 0.929 . S
S582 N583 1.628 . S
S582 N584 1.610 . S
N583 S582 1.628 . S
N583 C586 1.350 . S
N584 S582 1.610 . S
N584 C585 1.351 . S
C585 C579 1.428 . S
C585 N584 1.351 . S
C585 C586 1.446 . S
C586 C577 1.418 1_554 S
C586 N583 1.350 . S
C586 C585 1.446 . S
C587 C588 1.369 . S
C587 C589 1.419 . S
C587 H591 0.930 . S
C588 C587 1.369 . S
C588 C597 1.429 . S
C589 C587 1.419 . S
C589 C590 1.363 . S
C589 H592 0.929 . S
C590 C589 1.363 . S
C590 C596 1.428 . S
H591 C587 0.930 . S
H592 C589 0.929 . S
S593 N594 1.613 . S
S593 N595 1.610 . S
N594 S593 1.613 . S
N594 C597 1.350 . S
N595 S593 1.610 . S
N595 C596 1.351 . S
C596 C590 1.428 . S
C596 N595 1.351 . S
C596 C597 1.434 . S
C597 C588 1.429 . S
C597 N594 1.350 . S
C597 C596 1.434 . S
C598 C599 1.369 . S
C598 C600 1.419 1_554 S
C598 H602 0.930 . S
C599 C598 1.369 . S
C599 C608 1.429 . S
C600 C598 1.419 1_556 S
C600 C601 1.363 . S
C600 H603 0.929 . S
C601 C600 1.363 . S
C601 C607 1.428 . S
H602 C598 0.930 . S
H603 C600 0.929 . S
S604 N605 1.613 . S
S604 N606 1.610 1_554 S
N605 S604 1.613 . S
N605 C608 1.350 . S
N606 S604 1.610 1_556 S
N606 C607 1.351 . S
C607 C601 1.428 . S
C607 N606 1.351 . S
C607 C608 1.434 1_556 S
C608 C599 1.429 . S
C608 N605 1.350 . S
C608 C607 1.434 1_554 S
C609 C610 1.369 . S
C609 C611 1.419 . S
C609 H613 0.930 . S
C610 C609 1.369 . S
C610 C619 1.429 . S
C611 C609 1.419 . S
C611 C612 1.363 . S
C611 H614 0.929 . S
C612 C611 1.363 . S
C612 C618 1.428 . S
H613 C609 0.930 . S
H614 C611 0.929 . S
S615 N616 1.613 . S
S615 N617 1.610 . S
N616 S615 1.613 . S
N616 C619 1.350 . S
N617 S615 1.610 . S
N617 C618 1.351 . S
C618 C612 1.428 . S
C618 N617 1.351 . S
C618 C619 1.434 . S
C619 C610 1.429 . S
C619 N616 1.350 . S
C619 C618 1.434 . S
C620 C621 1.369 1_556 S
C620 C622 1.419 . S
C620 H624 0.930 . S
C621 C620 1.369 1_554 S
C621 C630 1.429 . S
C622 C620 1.419 . S
C622 C623 1.363 . S
C622 H625 0.929 . S
C623 C622 1.363 . S
C623 C629 1.428 . S
H624 C620 0.930 . S
H625 C622 0.929 . S
S626 N627 1.634 . S
S626 N628 1.620 1_554 S
N627 S626 1.634 . S
N627 C630 1.350 . S
N628 S626 1.620 1_556 S
N628 C629 1.351 . S
C629 C623 1.428 . S
C629 N628 1.351 . S
C629 C630 1.434 1_556 S
C630 C621 1.429 . S
C630 N627 1.350 . S
C630 C629 1.434 1_554 S
C631 C632 1.369 . S
C631 C633 1.419 . S
C631 H635 0.930 . S
C632 C631 1.369 . S
C632 C641 1.429 . S
C633 C631 1.419 . S
C633 C634 1.363 . S
C633 H636 0.929 . S
C634 C633 1.363 . S
C634 C640 1.428 . S
H635 C631 0.930 . S
H636 C633 0.929 . S
S637 N638 1.613 . S
S637 N639 1.610 . S
N638 S637 1.613 . S
N638 C641 1.350 . S
N639 S637 1.610 . S
N639 C640 1.351 . S
C640 C634 1.428 . S
C640 N639 1.351 . S
C640 C641 1.434 . S
C641 C632 1.429 . S
C641 N638 1.350 . S
C641 C640 1.434 . S
C642 C643 1.369 . S
C642 C644 1.419 1_556 S
C642 H646 0.930 . S
C643 C642 1.369 . S
C643 C652 1.429 . S
C644 C642 1.419 1_554 S
C644 C645 1.363 . S
C644 H647 0.929 . S
C645 C644 1.363 . S
C645 C651 1.428 . S
H646 C642 0.930 . S
H647 C644 0.929 . S
S648 N649 1.613 1_554 S
S648 N650 1.610 . S
N649 S648 1.613 1_556 S
N649 C652 1.350 . S
N650 S648 1.610 . S
N650 C651 1.351 . S
C651 C645 1.428 . S
C651 N650 1.351 . S
C651 C652 1.434 1_554 S
C652 C643 1.429 . S
C652 N649 1.350 . S
C652 C651 1.434 1_556 S
C653 C654 1.369 . S
C653 C655 1.419 . S
C653 H657 0.930 . S
C654 C653 1.369 . S
C654 C663 1.429 . S
C655 C653 1.419 . S
C655 C656 1.363 . S
C655 H658 0.929 . S
C656 C655 1.363 . S
C656 C662 1.428 . S
H657 C653 0.930 . S
H658 C655 0.929 . S
S659 N660 1.613 . S
S659 N661 1.610 . S
N660 S659 1.613 . S
N660 C663 1.350 . S
N661 S659 1.610 . S
N661 C662 1.351 . S
C662 C656 1.428 . S
C662 N661 1.351 . S
C662 C663 1.434 . S
C663 C654 1.429 . S
C663 N660 1.350 . S
C663 C662 1.434 . S
C664 C665 1.369 . S
C664 C666 1.419 . S
C664 H668 0.930 . S
C665 C664 1.369 . S
C665 C674 1.429 . S
C666 C664 1.419 . S
C666 C667 1.363 . S
C666 H669 0.929 . S
C667 C666 1.363 . S
C667 C673 1.428 . S
H668 C664 0.930 . S
H669 C666 0.929 . S
S670 N671 1.613 1_655 S
S670 N672 1.610 1_655 S
N671 S670 1.613 1_455 S
N671 C674 1.350 . S
N672 S670 1.610 1_455 S
N672 C673 1.351 . S
C673 C667 1.428 . S
C673 N672 1.351 . S
C673 C674 1.434 . S
C674 C665 1.429 . S
C674 N671 1.350 . S
C674 C673 1.434 . S
C675 C676 1.369 . S
C675 C677 1.419 . S
C675 H679 0.930 . S
C676 C675 1.369 . S
C676 C685 1.429 . S
C677 C675 1.419 . S
C677 C678 1.363 . S
C677 H680 0.929 . S
C678 C677 1.363 . S
C678 C684 1.428 . S
H679 C675 0.930 . S
H680 C677 0.929 . S
S681 N682 1.613 . S
S681 N683 1.610 . S
N682 S681 1.613 . S
N682 C685 1.350 . S
N683 S681 1.610 . S
N683 C684 1.351 . S
C684 C678 1.428 . S
C684 N683 1.351 . S
C684 C685 1.434 . S
C685 C676 1.429 . S
C685 N682 1.350 . S
C685 C684 1.434 . S
C686 C687 1.369 . S
C686 C688 1.419 . S
C686 H690 0.930 . S
C687 C686 1.369 . S
C687 C696 1.429 . S
C688 C686 1.419 . S
C688 C689 1.363 . S
C688 H691 0.929 . S
C689 C688 1.363 . S
C689 C695 1.428 . S
H690 C686 0.930 . S
H691 C688 0.929 . S
S692 N693 1.613 . S
S692 N694 1.610 . S
N693 S692 1.613 . S
N693 C696 1.350 . S
N694 S692 1.610 . S
N694 C695 1.351 . S
C695 C689 1.428 . S
C695 N694 1.351 . S
C695 C696 1.434 . S
C696 C687 1.429 . S
C696 N693 1.350 . S
C696 C695 1.434 . S
C697 C698 1.369 . S
C697 C699 1.419 . S
C697 H701 0.930 . S
C698 C697 1.369 . S
C698 C707 1.429 . S
C699 C697 1.419 . S
C699 C700 1.363 . S
C699 H702 0.929 . S
C700 C699 1.363 . S
C700 C706 1.428 . S
H701 C697 0.930 . S
H702 C699 0.929 . S
S703 N704 1.613 . S
S703 N705 1.610 . S
N704 S703 1.613 . S
N704 C707 1.350 . S
N705 S703 1.610 . S
N705 C706 1.351 . S
C706 C700 1.428 . S
C706 N705 1.351 . S
C706 C707 1.434 . S
C707 C698 1.429 . S
C707 N704 1.350 . S
C707 C706 1.434 . S
C708 C709 1.369 . S
C708 C710 1.419 . S
C708 H712 0.930 . S
C709 C708 1.369 . S
C709 C718 1.429 . S
C710 C708 1.419 . S
C710 C711 1.363 . S
C710 H713 0.929 . S
C711 C710 1.363 . S
C711 C717 1.428 . S
H712 C708 0.930 . S
H713 C710 0.929 . S
S714 N715 1.613 . S
S714 N716 1.610 . S
N715 S714 1.613 . S
N715 C718 1.350 . S
N716 S714 1.610 . S
N716 C717 1.351 . S
C717 C711 1.428 . S
C717 N716 1.351 . S
C717 C718 1.434 . S
C718 C709 1.429 . S
C718 N715 1.350 . S
C718 C717 1.434 . S
C719 C720 1.369 . S
C719 C721 1.419 . S
C719 H723 0.930 . S
C720 C719 1.369 . S
C720 C729 1.429 . S
C721 C719 1.419 . S
C721 C722 1.363 . S
C721 H724 0.929 . S
C722 C721 1.363 . S
C722 C728 1.428 . S
H723 C719 0.930 . S
H724 C721 0.929 . S
S725 N726 1.613 . S
S725 N727 1.610 . S
N726 S725 1.613 . S
N726 C729 1.350 . S
N727 S725 1.610 . S
N727 C728 1.351 . S
C728 C722 1.428 . S
C728 N727 1.351 . S
C728 C729 1.434 . S
C729 C720 1.429 . S
C729 N726 1.350 . S
C729 C728 1.434 . S
C730 C731 1.369 . S
C730 C732 1.419 . S
C730 H734 0.930 . S
C731 C730 1.369 . S
C731 C740 1.429 . S
C732 C730 1.419 . S
C732 C733 1.363 . S
C732 H735 0.929 . S
C733 C732 1.363 . S
C733 C739 1.428 . S
H734 C730 0.930 . S
H735 C732 0.929 . S
S736 N737 1.613 . S
S736 N738 1.610 . S
N737 S736 1.613 . S
N737 C740 1.350 . S
N738 S736 1.610 . S
N738 C739 1.351 . S
C739 C733 1.428 . S
C739 N738 1.351 . S
C739 C740 1.434 . S
C740 C731 1.429 . S
C740 N737 1.350 . S
C740 C739 1.434 . S
C741 C742 1.369 . S
C741 C743 1.419 . S
C741 H745 0.930 . S
C742 C741 1.369 . S
C742 C751 1.429 . S
C743 C741 1.419 . S
C743 C744 1.363 . S
C743 H746 0.929 . S
C744 C743 1.363 . S
C744 C750 1.428 . S
H745 C741 0.930 . S
H746 C743 0.929 . S
S747 N748 1.613 . S
S747 N749 1.610 . S
N748 S747 1.613 . S
N748 C751 1.350 . S
N749 S747 1.610 . S
N749 C750 1.351 . S
C750 C744 1.428 . S
C750 N749 1.351 . S
C750 C751 1.434 . S
C751 C742 1.429 . S
C751 N748 1.350 . S
C751 C750 1.434 . S
C489 C116 1.808 . S
C491 C226 1.809 1_565 S
C502 C310 1.809 . S
C500 C135 1.807 . S
C513 C303 1.798 . S
C511 C78 1.806 . S
C522 C97 1.807 . S
C524 C219 1.797 1_565 S
C535 C383 1.807 1_545 S
C533 C40 1.811 . S
C546 C467 1.810 . S
C544 C59 1.809 . S
C555 C2 1.811 . S
C557 C460 1.798 . S
C566 C21 1.810 . S
C568 C376 1.797 1_545 S
C579 C210 1.551 . S
C577 C25 1.728 . S
C590 C294 1.557 . S
C588 C6 1.729 . S
C601 C305 1.435 . S
C599 C63 1.721 . S
C612 C221 1.427 . S
C610 C44 1.723 . S
C623 C389 1.554 . S
C621 C101 1.725 . S
C632 C82 1.726 . S
C634 C473 1.551 . S
C645 C462 1.426 . S
C643 C139 1.721 . S
C654 C120 1.720 . S
C656 C378 1.433 . S
C667 C208 1.509 . S
C665 C11 1.435 . S
C678 C292 1.508 . S
C676 C30 1.443 . S
C687 C49 1.424 . S
C689 C299 1.474 . S
C700 C215 1.469 . S
C698 C68 1.431 . S
C711 C387 1.508 . S
C709 C87 1.379 . S
C720 C106 1.381 . S
C722 C471 1.509 . S
C731 C125 1.369 . S
C733 C478 1.473 . S
C742 C144 1.369 . S
C744 C394 1.473 . S
