# Generated by pormake.
# Topology pyr, (3,6)-cn, num edge types: 1
# Building blocks:
#     Node 0, Type 0, BuildingBlock: MIDCAF_clean_linker_0, # of connection points: 3
#     Node 1, Type 0, BuildingBlock: MIDCAF_clean_linker_0, # of connection points: 3
#     Node 2, Type 0, BuildingBlock: MIDCAF_clean_linker_0, # of connection points: 3
#     Node 3, Type 0, BuildingBlock: MIDCAF_clean_linker_0, # of connection points: 3
#     Node 4, Type 0, BuildingBlock: MIDCAF_clean_linker_0, # of connection points: 3
#     Node 5, Type 0, BuildingBlock: MIDCAF_clean_linker_0, # of connection points: 3
#     Node 6, Type 0, BuildingBlock: MIDCAF_clean_linker_0, # of connection points: 3
#     Node 7, Type 0, BuildingBlock: MIDCAF_clean_linker_0, # of connection points: 3
#     Node 8, Type 1, BuildingBlock: BETDEL_clean_sbu_0, # of connection points: 6
#     Node 9, Type 1, BuildingBlock: BETDEL_clean_sbu_0, # of connection points: 6
#     Node 10, Type 1, BuildingBlock: BETDEL_clean_sbu_0, # of connection points: 6
#     Node 11, Type 1, BuildingBlock: BETDEL_clean_sbu_0, # of connection points: 6
#     Edge 12, Type (0, 1), BuildingBlock: EZIPEK_clean_linker_0, # of connection points: 2
#     Edge 13, Type (0, 1), BuildingBlock: EZIPEK_clean_linker_0, # of connection points: 2
#     Edge 14, Type (0, 1), BuildingBlock: EZIPEK_clean_linker_0, # of connection points: 2
#     Edge 15, Type (0, 1), BuildingBlock: EZIPEK_clean_linker_0, # of connection points: 2
#     Edge 16, Type (0, 1), BuildingBlock: EZIPEK_clean_linker_0, # of connection points: 2
#     Edge 17, Type (0, 1), BuildingBlock: EZIPEK_clean_linker_0, # of connection points: 2
#     Edge 18, Type (0, 1), BuildingBlock: EZIPEK_clean_linker_0, # of connection points: 2
#     Edge 19, Type (0, 1), BuildingBlock: EZIPEK_clean_linker_0, # of connection points: 2
#     Edge 20, Type (0, 1), BuildingBlock: EZIPEK_clean_linker_0, # of connection points: 2
#     Edge 21, Type (0, 1), BuildingBlock: EZIPEK_clean_linker_0, # of connection points: 2
#     Edge 22, Type (0, 1), BuildingBlock: EZIPEK_clean_linker_0, # of connection points: 2
#     Edge 23, Type (0, 1), BuildingBlock: EZIPEK_clean_linker_0, # of connection points: 2
#     Edge 24, Type (0, 1), BuildingBlock: EZIPEK_clean_linker_0, # of connection points: 2
#     Edge 25, Type (0, 1), BuildingBlock: EZIPEK_clean_linker_0, # of connection points: 2
#     Edge 26, Type (0, 1), BuildingBlock: EZIPEK_clean_linker_0, # of connection points: 2
#     Edge 27, Type (0, 1), BuildingBlock: EZIPEK_clean_linker_0, # of connection points: 2
#     Edge 28, Type (0, 1), BuildingBlock: EZIPEK_clean_linker_0, # of connection points: 2
#     Edge 29, Type (0, 1), BuildingBlock: EZIPEK_clean_linker_0, # of connection points: 2
#     Edge 30, Type (0, 1), BuildingBlock: EZIPEK_clean_linker_0, # of connection points: 2
#     Edge 31, Type (0, 1), BuildingBlock: EZIPEK_clean_linker_0, # of connection points: 2
#     Edge 32, Type (0, 1), BuildingBlock: EZIPEK_clean_linker_0, # of connection points: 2
#     Edge 33, Type (0, 1), BuildingBlock: EZIPEK_clean_linker_0, # of connection points: 2
#     Edge 34, Type (0, 1), BuildingBlock: EZIPEK_clean_linker_0, # of connection points: 2
#     Edge 35, Type (0, 1), BuildingBlock: EZIPEK_clean_linker_0, # of connection points: 2
# Relax obj value: 0.032
# Max RMSD: 0.093
# Mean RMSD: 0.040
data_MOF--net-pyr--node1-BETDEL_clean_sbu_0--node2-MIDCAF_clean_linker_0--edge1-EZIPEK_clean_linker_0
_symmetry_space_group_name_H-M    P1
_symmetry_Int_Tables_number       1
_symmetry_cell_setting            triclinic
loop_
_symmetry_equiv_pos_as_xyz
'x, y, z'
_cell_length_a     34.93586
_cell_length_b     36.510312
_cell_length_c     33.796772
_cell_angle_alpha  91.444454
_cell_angle_beta   89.082617
_cell_angle_gamma 95.755456
loop_
_atom_site_label
_atom_site_type_symbol
_atom_site_fract_x
_atom_site_fract_y
_atom_site_fract_z
_atom_type_partial_charge
C0 C 0.12986 0.18353 0.27449 0.0
C1 C 0.14192 0.15357 0.2942 0.0
C2 C 0.1803 0.14579 0.2912 0.0
C3 C 0.20637 0.16728 0.2677 0.0
H4 H 0.32184 0.17812 0.21875 0.0
H5 H 0.36998 0.13971 0.19136 0.0
H6 H 0.3507 0.17838 0.07449 0.0
H7 H 0.30357 0.2176 0.1016 0.0
H8 H 0.24341 0.27511 0.09019 0.0
H9 H 0.20743 0.31374 0.0489 0.0
H10 H 0.1441 0.34723 0.15189 0.0
H11 H 0.17937 0.30863 0.19326 0.0
H12 H 0.14563 0.22776 0.23558 0.0
H13 H 0.10028 0.18992 0.27703 0.0
H14 H 0.18991 0.12285 0.30674 0.0
H15 H 0.2357 0.1602 0.26522 0.0
N16 N 0.25415 0.20372 0.20753 0.0
N17 N 0.26313 0.247 0.15725 0.0
N18 N 0.20879 0.24563 0.19888 0.0
C19 C 0.27567 0.21875 0.17716 0.0
C20 C 0.22999 0.26094 0.16852 0.0
C21 C 0.22057 0.21697 0.21847 0.0
C22 C 0.30889 0.20061 0.16222 0.0
C23 C 0.32849 0.17897 0.18735 0.0
C24 C 0.35586 0.15706 0.17184 0.0
C25 C 0.36324 0.15597 0.13096 0.0
C26 C 0.3451 0.17887 0.10612 0.0
C27 C 0.31837 0.20133 0.12169 0.0
C28 C 0.21393 0.28878 0.14485 0.0
C29 C 0.22244 0.29138 0.10413 0.0
C30 C 0.20188 0.31314 0.08051 0.0
C31 C 0.17318 0.33286 0.0976 0.0
C32 C 0.16619 0.33196 0.13846 0.0
C33 C 0.18632 0.30997 0.16194 0.0
C34 C 0.19436 0.19695 0.24701 0.0
C35 C 0.15594 0.2052 0.25115 0.0
C36 C 0.21174 0.91959 0.59843 0.0
C37 C 0.18771 0.90031 0.57058 0.0
C38 C 0.19064 0.86271 0.5631 0.0
C39 C 0.21631 0.84422 0.58469 0.0
H40 H 0.30985 0.7679 0.57936 0.0
H41 H 0.34665 0.71648 0.55957 0.0
H42 H 0.36343 0.69349 0.68221 0.0
H43 H 0.32707 0.74463 0.7024 0.0
H44 H 0.34591 0.82257 0.75317 0.0
H45 H 0.36722 0.85498 0.81408 0.0
H46 H 0.27675 0.9263 0.80529 0.0
H47 H 0.25535 0.89445 0.74356 0.0
H48 H 0.25418 0.91653 0.64258 0.0
H49 H 0.20976 0.94864 0.60449 0.0
H50 H 0.17206 0.84748 0.54176 0.0
H51 H 0.21719 0.81491 0.57956 0.0
N52 N 0.27631 0.81149 0.62955 0.0
N53 N 0.30408 0.80816 0.69195 0.0
N54 N 0.26866 0.85721 0.67839 0.0
C55 C 0.29755 0.79379 0.65499 0.0
C56 C 0.28965 0.83971 0.70393 0.0
C57 C 0.2618 0.8433 0.64126 0.0
C58 C 0.31578 0.76052 0.64243 0.0
C59 C 0.3209 0.7516 0.60211 0.0
C60 C 0.34197 0.72239 0.59075 0.0
C61 C 0.35783 0.70162 0.61955 0.0
C62 C 0.35149 0.70948 0.65971 0.0
C63 C 0.33075 0.73873 0.67108 0.0
C64 C 0.29923 0.85626 0.74326 0.0
C65 C 0.33006 0.84474 0.76437 0.0
C66 C 0.34228 0.86314 0.79919 0.0
C67 C 0.32359 0.89296 0.81374 0.0
C68 C 0.29137 0.90324 0.79424 0.0
C69 C 0.27942 0.88517 0.75897 0.0
C70 C 0.2387 0.8631 0.61438 0.0
C71 C 0.23688 0.90114 0.62029 0.0
C72 C 0.63067 0.20891 0.90841 0.0
C73 C 0.59379 0.19368 0.89761 0.0
C74 C 0.57301 0.2124 0.8706 0.0
C75 C 0.58895 0.24582 0.85466 0.0
H76 H 0.57925 0.32295 0.76181 0.0
H77 H 0.55235 0.35399 0.70656 0.0
H78 H 0.64187 0.44354 0.71813 0.0
H79 H 0.66909 0.413 0.77298 0.0
H80 H 0.74173 0.40506 0.8262 0.0
H81 H 0.80181 0.43215 0.85627 0.0
H82 H 0.78979 0.35054 0.94664 0.0
H83 H 0.73003 0.32302 0.91695 0.0
H84 H 0.67505 0.25301 0.902 0.0
H85 H 0.64731 0.19486 0.92895 0.0
H86 H 0.54452 0.20102 0.86173 0.0
H87 H 0.57224 0.25957 0.83394 0.0
N88 N 0.62701 0.31391 0.8195 0.0
N89 N 0.67755 0.36164 0.82133 0.0
N90 N 0.67692 0.31289 0.86503 0.0
C91 C 0.64396 0.3464 0.80519 0.0
C92 C 0.69421 0.3451 0.85129 0.0
C93 C 0.64348 0.29696 0.84953 0.0
C94 C 0.62653 0.36525 0.77206 0.0
C95 C 0.59322 0.34929 0.75277 0.0
C96 C 0.57773 0.36701 0.72115 0.0
C97 C 0.59508 0.40112 0.70821 0.0
C98 C 0.62799 0.41728 0.72759 0.0
C99 C 0.64353 0.39962 0.75903 0.0
C100 C 0.73084 0.36179 0.86907 0.0
C101 C 0.75181 0.39276 0.85242 0.0
C102 C 0.78622 0.40824 0.86945 0.0
C103 C 0.80017 0.39321 0.90354 0.0
C104 C 0.77949 0.3624 0.92025 0.0
C105 C 0.74528 0.34676 0.90315 0.0
C106 C 0.62593 0.26129 0.86564 0.0
C107 C 0.64647 0.24229 0.89281 0.0
C108 C 0.72098 0.63752 0.42135 0.0
C109 C 0.70651 0.60075 0.41416 0.0
C110 C 0.72575 0.57932 0.38674 0.0
C111 C 0.7587 0.59461 0.36647 0.0
H112 H 0.81596 0.59589 0.25009 0.0
H113 H 0.84095 0.56424 0.19189 0.0
H114 H 0.95487 0.61621 0.21537 0.0
H115 H 0.92977 0.64914 0.2728 0.0
H116 H 0.92059 0.73807 0.31216 0.0
H117 H 0.95092 0.7982 0.33514 0.0
H118 H 0.87036 0.79805 0.43295 0.0
H119 H 0.83966 0.73825 0.41035 0.0
H120 H 0.76436 0.68121 0.40778 0.0
H121 H 0.70654 0.65452 0.44237 0.0
H122 H 0.71501 0.55088 0.38076 0.0
H123 H 0.77275 0.57738 0.3454 0.0
N124 N 0.82316 0.63016 0.32046 0.0
N125 N 0.87305 0.67797 0.31398 0.0
N126 N 0.82642 0.68109 0.36443 0.0
C127 C 0.8554 0.64489 0.30115 0.0
C128 C 0.85865 0.6964 0.34556 0.0
C129 C 0.80853 0.64798 0.35227 0.0
C130 C 0.87084 0.62512 0.26618 0.0
C131 C 0.84636 0.60058 0.24296 0.0
C132 C 0.86061 0.5824 0.20964 0.0
C133 C 0.89989 0.58753 0.19929 0.0
C134 C 0.9245 0.61168 0.22274 0.0
C135 C 0.91008 0.63058 0.25552 0.0
C136 C 0.87755 0.73301 0.35932 0.0
C137 C 0.90922 0.75073 0.33856 0.0
C138 C 0.92661 0.78519 0.35159 0.0
C139 C 0.91288 0.80264 0.38573 0.0
C140 C 0.88138 0.78513 0.4065 0.0
C141 C 0.86389 0.75082 0.39346 0.0
C142 C 0.77338 0.63155 0.37358 0.0
C143 C 0.75411 0.65271 0.40148 0.0
C144 C 0.67482 0.88756 0.85413 0.0
C145 C 0.65128 0.87291 0.8849 0.0
C146 C 0.65519 0.83736 0.89799 0.0
C147 C 0.68423 0.81758 0.8822 0.0
H148 H 0.76908 0.75208 0.9269 0.0
H149 H 0.80069 0.70847 0.96658 0.0
H150 H 0.86758 0.67955 0.86424 0.0
H151 H 0.83653 0.72258 0.82463 0.0
H152 H 0.87678 0.80525 0.79057 0.0
H153 H 0.92284 0.83789 0.74534 0.0
H154 H 0.83461 0.90263 0.70629 0.0
H155 H 0.78818 0.87055 0.7516 0.0
H156 H 0.72231 0.88046 0.81539 0.0
H157 H 0.67203 0.91502 0.84381 0.0
H158 H 0.63703 0.82578 0.92176 0.0
H159 H 0.68775 0.79084 0.89402 0.0
N160 N 0.75402 0.78544 0.85995 0.0
N161 N 0.81078 0.78675 0.82192 0.0
N162 N 0.76777 0.83053 0.8121 0.0
C163 C 0.78734 0.77096 0.85033 0.0
C164 C 0.80128 0.8165 0.80272 0.0
C165 C 0.74386 0.81508 0.84048 0.0
C166 C 0.80066 0.74085 0.87283 0.0
C167 C 0.78994 0.73581 0.91277 0.0
C168 C 0.80805 0.71126 0.93547 0.0
C169 C 0.83665 0.69149 0.91818 0.0
C170 C 0.84577 0.695 0.87793 0.0
C171 C 0.82798 0.71952 0.85543 0.0
C172 C 0.82873 0.83523 0.77451 0.0
C173 C 0.86704 0.82636 0.77233 0.0
C174 C 0.89349 0.84506 0.74683 0.0
C175 C 0.88185 0.87253 0.72298 0.0
C176 C 0.84382 0.88149 0.72487 0.0
C177 C 0.81741 0.86306 0.7506 0.0
C178 C 0.70952 0.83309 0.85296 0.0
C179 C 0.7036 0.86773 0.83809 0.0
C180 C 0.70068 0.10664 0.24235 0.0
C181 C 0.68565 0.12647 0.2123 0.0
C182 C 0.68944 0.16505 0.21432 0.0
C183 C 0.70573 0.1836 0.24747 0.0
H184 H 0.69373 0.27791 0.31149 0.0
H185 H 0.65485 0.32764 0.33016 0.0
H186 H 0.68188 0.31562 0.45282 0.0
H187 H 0.72085 0.26542 0.43465 0.0
H188 H 0.74752 0.11147 0.39866 0.0
H189 H 0.79202 0.07553 0.43255 0.0
H190 H 0.86975 0.17369 0.451 0.0
H191 H 0.82446 0.21017 0.41814 0.0
H192 H 0.72742 0.10916 0.29889 0.0
H193 H 0.6978 0.07681 0.24114 0.0
H194 H 0.67791 0.18064 0.19122 0.0
H195 H 0.70685 0.21336 0.24912 0.0
N196 N 0.71928 0.21635 0.32536 0.0
N197 N 0.74856 0.21624 0.38739 0.0
N198 N 0.75114 0.16602 0.34286 0.0
C199 C 0.72767 0.23317 0.36089 0.0
C200 C 0.76034 0.18262 0.37824 0.0
C201 C 0.73102 0.18292 0.31608 0.0
C202 C 0.7101 0.26735 0.37167 0.0
C203 C 0.692 0.2861 0.34244 0.0
C204 C 0.6698 0.31458 0.35294 0.0
C205 C 0.66543 0.32492 0.39276 0.0
C206 C 0.68506 0.30781 0.4219 0.0
C207 C 0.70737 0.27925 0.41143 0.0
C208 C 0.78284 0.16341 0.40588 0.0
C209 C 0.77355 0.12552 0.4111 0.0
C210 C 0.7988 0.10503 0.4304 0.0
C211 C 0.83408 0.12204 0.44386 0.0
C212 C 0.84249 0.1603 0.44079 0.0
C213 C 0.81669 0.18102 0.42223 0.0
C214 C 0.71891 0.16378 0.27876 0.0
C215 C 0.71748 0.12519 0.27529 0.0
C216 C 0.22425 0.6021 0.13525 0.0
C217 C 0.21057 0.61907 0.10218 0.0
C218 C 0.23102 0.65119 0.08808 0.0
C219 C 0.26469 0.66617 0.10667 0.0
H220 H 0.35163 0.74358 0.0918 0.0
H221 H 0.38137 0.80058 0.06399 0.0
H222 H 0.45399 0.81896 0.16582 0.0
H223 H 0.42449 0.7612 0.19419 0.0
H224 H 0.43379 0.67823 0.24239 0.0
H225 H 0.45922 0.64664 0.298 0.0
H226 H 0.3521 0.57778 0.30814 0.0
H227 H 0.32659 0.60863 0.25238 0.0
H228 H 0.26783 0.60335 0.17937 0.0
H229 H 0.20876 0.57727 0.14655 0.0
H230 H 0.22087 0.66468 0.06264 0.0
H231 H 0.27968 0.69101 0.09485 0.0
N232 N 0.33347 0.69712 0.14538 0.0
N233 N 0.38079 0.69643 0.19377 0.0
N234 N 0.3293 0.6496 0.19088 0.0
C235 C 0.36634 0.71285 0.16217 0.0
C236 C 0.36237 0.66464 0.20831 0.0
C237 C 0.31468 0.66568 0.15934 0.0
C238 C 0.38558 0.74756 0.14544 0.0
C239 C 0.37389 0.75955 0.10857 0.0
C240 C 0.39084 0.79225 0.09247 0.0
C241 C 0.41975 0.81407 0.11283 0.0
C242 C 0.43162 0.80249 0.14968 0.0
C243 C 0.41484 0.76941 0.16576 0.0
C244 C 0.37806 0.64609 0.24264 0.0
C245 C 0.41556 0.65639 0.25638 0.0
C246 C 0.43023 0.63827 0.28815 0.0
C247 C 0.40765 0.60969 0.30721 0.0
C248 C 0.37015 0.59956 0.29381 0.0
C249 C 0.35562 0.61735 0.26184 0.0
C250 C 0.27872 0.64936 0.13988 0.0
C251 C 0.25803 0.61708 0.15394 0.0
C252 C 0.13449 0.22365 0.60052 0.0
C253 C 0.10088 0.20661 0.61809 0.0
C254 C 0.08432 0.22418 0.65061 0.0
C255 C 0.10099 0.25836 0.66516 0.0
H256 H 0.08782 0.33942 0.7505 0.0
H257 H 0.05765 0.37121 0.80552 0.0
H258 H 0.14695 0.46122 0.79886 0.0
H259 H 0.17756 0.42979 0.74374 0.0
H260 H 0.25035 0.42224 0.68178 0.0
H261 H 0.30901 0.44907 0.64802 0.0
H262 H 0.29042 0.36874 0.55301 0.0
H263 H 0.23226 0.34148 0.58638 0.0
H264 H 0.17702 0.27006 0.60049 0.0
H265 H 0.14771 0.21058 0.57538 0.0
H266 H 0.05836 0.21148 0.66459 0.0
H267 H 0.08737 0.27118 0.69018 0.0
N268 N 0.1369 0.32967 0.69412 0.0
N269 N 0.18535 0.37902 0.6894 0.0
N270 N 0.18445 0.32887 0.64446 0.0
C271 C 0.15309 0.36303 0.70786 0.0
C272 C 0.20121 0.36212 0.65757 0.0
C273 C 0.15242 0.31232 0.66248 0.0
C274 C 0.13524 0.38196 0.74229 0.0
C275 C 0.1013 0.36591 0.76068 0.0
C276 C 0.08392 0.38402 0.79226 0.0
C277 C 0.1 0.4186 0.8063 0.0
C278 C 0.13407 0.43455 0.78852 0.0
C279 C 0.15149 0.41648 0.7569 0.0
C280 C 0.23641 0.37952 0.637 0.0
C281 C 0.25859 0.41031 0.65364 0.0
C282 C 0.29216 0.42572 0.63441 0.0
C283 C 0.304 0.41094 0.59796 0.0
C284 C 0.28175 0.38062 0.58105 0.0
C285 C 0.24849 0.36501 0.60034 0.0
C286 C 0.13463 0.27574 0.64746 0.0
C287 C 0.15116 0.25777 0.61497 0.0
Dy288 Dy 0.02758 0.02126 0.46341 0.0
C289 C 0.96949 0.9549 0.60534 0.0
C290 C 0.04906 0.05612 0.39531 0.0
Dy291 Dy 0.98961 0.98868 0.53658 0.0
O292 O 0.06451 0.02816 0.40872 0.0
O293 O 0.02139 0.06454 0.41873 0.0
O294 O 0.08571 0.01658 0.48871 0.0
O295 O 0.04007 0.97699 0.50204 0.0
C296 C 0.07466 0.9878 0.50928 0.0
C297 C 0.94307 0.02335 0.49119 0.0
O298 O 0.02392 0.03902 0.56313 0.0
O299 O 0.03842 0.0698 0.50478 0.0
O300 O 0.95529 0.984 0.59312 0.0
O301 O 0.99503 0.94453 0.58041 0.0
O302 O 0.93156 0.99436 0.51131 0.0
O303 O 0.97774 0.03334 0.4986 0.0
O304 O 0.99286 0.97111 0.43675 0.0
O305 O 0.97725 0.94053 0.49513 0.0
C306 C 0.03795 0.06873 0.54385 0.0
C307 C 0.9781 0.9416 0.45607 0.0
Dy308 Dy 0.53616 0.01661 0.04387 0.0
C309 C 0.41068 0.96515 0.94018 0.0
C310 C 0.5893 0.04794 0.09518 0.0
Dy311 Dy 0.47032 0.99811 0.98236 0.0
O312 O 0.55639 0.03078 0.10524 0.0
O313 O 0.59361 0.04769 0.05694 0.0
O314 O 0.5302 0.95745 0.06156 0.0
O315 O 0.48182 0.9805 0.04207 0.0
C316 C 0.49428 0.95072 0.0519 0.0
C317 C 0.5183 0.05716 0.95834 0.0
O318 O 0.43955 0.02904 0.02838 0.0
O319 O 0.49372 0.05623 0.06129 0.0
O320 O 0.41466 0.99972 0.95081 0.0
O321 O 0.43905 0.94845 0.95289 0.0
O322 O 0.48865 0.04304 0.93852 0.0
O323 O 0.51953 0.03834 0.98887 0.0
O324 O 0.56825 0.99285 0.99372 0.0
O325 O 0.5148 0.96029 0.9649 0.0
C326 C 0.45644 0.05331 0.0539 0.0
C327 C 0.55254 0.96688 0.96929 0.0
Dy328 Dy 0.51439 0.47586 0.47996 0.0
C329 C 0.45476 0.5894 0.57049 0.0
C330 C 0.55998 0.42924 0.4431 0.0
Dy331 Dy 0.49468 0.53849 0.53256 0.0
O332 O 0.52279 0.42744 0.4393 0.0
O333 O 0.57205 0.45675 0.46615 0.0
O334 O 0.45271 0.45142 0.47788 0.0
O335 O 0.47338 0.48042 0.52878 0.0
C336 C 0.44351 0.46524 0.51223 0.0
C337 C 0.56539 0.54886 0.49926 0.0
O338 O 0.51987 0.50696 0.58022 0.0
O339 O 0.53852 0.46042 0.53836 0.0
O340 O 0.48475 0.59695 0.54797 0.0
O341 O 0.44745 0.55405 0.57365 0.0
O342 O 0.5569 0.56142 0.53436 0.0
O343 O 0.53515 0.53394 0.48317 0.0
O344 O 0.49553 0.51295 0.43352 0.0
O345 O 0.45984 0.54506 0.47776 0.0
C346 C 0.5367 0.47625 0.57408 0.0
C347 C 0.46962 0.53652 0.44087 0.0
Dy348 Dy 0.01802 0.47312 0.02161 0.0
C349 C 0.94124 0.596 0.97564 0.0
C350 C 0.06207 0.41849 0.03679 0.0
Dy351 Dy 0.99071 0.5446 0.98354 0.0
O352 O 0.04978 0.44099 0.06336 0.0
O353 O 0.04976 0.42528 1.00197 0.0
O354 O 0.97226 0.47514 0.06892 0.0
O355 O 0.99517 0.52357 0.04308 0.0
C356 C 0.96892 0.51033 0.06636 0.0
C357 C 0.02793 0.50453 0.92938 0.0
O358 O 0.04409 0.57034 0.01352 0.0
O359 O 0.06877 0.51556 0.03057 0.0
O360 O 0.97676 0.59952 0.96257 0.0
O361 O 0.93346 0.56528 0.99394 0.0
O362 O 0.01458 0.53553 0.92116 0.0
O363 O 0.02078 0.49891 0.9654 0.0
O364 O 0.96665 0.44675 0.98938 0.0
O365 O 0.94166 0.50114 0.97223 0.0
C366 C 0.07155 0.55198 0.02798 0.0
C367 C 0.93945 0.46475 0.97403 0.0
C368 C 0.09256 0.09955 0.30232 0.0
C369 C 0.11466 0.13065 0.31915 0.0
C370 C 0.09299 0.11303 0.38553 0.0
C371 C 0.06973 0.08263 0.36871 0.0
N372 N 0.04198 0.04968 0.31188 0.0
N373 N 0.13016 0.17164 0.3749 0.0
C374 C 0.06782 0.07671 0.32724 0.0
C375 C 0.11295 0.1389 0.36021 0.0
N376 N 0.09618 0.09135 0.26282 0.0
N377 N 0.09761 0.11617 0.42566 0.0
H378 H 0.14579 0.19102 0.35724 0.0
H379 H 0.12625 0.18105 0.40388 0.0
H380 H 0.08364 0.09784 0.44555 0.0
H381 H 0.11774 0.13521 0.43922 0.0
H382 H 0.08419 0.06696 0.24946 0.0
H383 H 0.11317 0.10816 0.24353 0.0
H384 H 0.03642 0.04612 0.28179 0.0
H385 H 0.02383 0.03233 0.32964 0.0
C386 C 0.36748 0.94596 0.83898 0.0
C387 C 0.34064 0.91528 0.84725 0.0
C388 C 0.35463 0.92217 0.918 0.0
C389 C 0.38464 0.94981 0.90892 0.0
N390 N 0.42333 0.98535 0.86076 0.0
N391 N 0.30844 0.873 0.89342 0.0
C392 C 0.39178 0.96141 0.86949 0.0
C393 C 0.33389 0.9032 0.88654 0.0
N394 N 0.36998 0.96013 0.80182 0.0
N395 N 0.34576 0.91458 0.95669 0.0
H396 H 0.29146 0.8597 0.87122 0.0
H397 H 0.30528 0.86008 0.92053 0.0
H398 H 0.36077 0.92793 0.98026 0.0
H399 H 0.32198 0.89716 0.96568 0.0
H400 H 0.38567 0.98503 0.79516 0.0
H401 H 0.35391 0.94863 0.77806 0.0
H402 H 0.43275 0.99124 0.83203 0.0
H403 H 0.44227 0.99725 0.88205 0.0
C404 C 0.60032 0.42134 0.63723 0.0
C405 C 0.57956 0.4197 0.67369 0.0
C406 C 0.52861 0.4511 0.64346 0.0
C407 C 0.55165 0.45704 0.60858 0.0
N408 N 0.61281 0.45214 0.57516 0.0
N409 N 0.52684 0.43845 0.7136 0.0
C410 C 0.58841 0.44324 0.60622 0.0
C411 C 0.54454 0.43618 0.6774 0.0
N412 N 0.63083 0.40099 0.6317 0.0
N413 N 0.49073 0.45755 0.64365 0.0
H414 H 0.53744 0.42775 0.73909 0.0
H415 H 0.50362 0.45379 0.71897 0.0
H416 H 0.47704 0.46657 0.61907 0.0
H417 H 0.4717 0.44998 0.66675 0.0
H418 H 0.64439 0.39769 0.60435 0.0
H419 H 0.64034 0.38449 0.65354 0.0
H420 H 0.64148 0.44658 0.57433 0.0
H421 H 0.60575 0.46803 0.55175 0.0
C422 C 0.91135 0.52949 0.15989 0.0
C423 C 0.91504 0.56844 0.16327 0.0
C424 C 0.95078 0.57137 0.09979 0.0
C425 C 0.94598 0.53195 0.09577 0.0
N426 N 0.90504 0.47739 0.11447 0.0
N427 N 0.92758 0.62609 0.13006 0.0
C428 C 0.92119 0.51215 0.1235 0.0
C429 C 0.93169 0.58928 0.13138 0.0
N430 N 0.89953 0.5087 0.19168 0.0
N431 N 0.97329 0.59236 0.074 0.0
H432 H 0.91279 0.64002 0.15181 0.0
H433 H 0.93513 0.64197 0.10541 0.0
H434 H 0.98266 0.58287 0.04686 0.0
H435 H 0.98311 0.61981 0.08005 0.0
H436 H 0.89992 0.48017 0.19155 0.0
H437 H 0.89324 0.52015 0.21932 0.0
H438 H 0.88467 0.46309 0.13273 0.0
H439 H 0.90729 0.46517 0.08646 0.0
C440 C 0.37639 0.09101 0.11435 0.0
C441 C 0.38826 0.12936 0.11346 0.0
C442 C 0.44216 0.11764 0.06983 0.0
C443 C 0.43288 0.07928 0.07443 0.0
N444 N 0.39607 0.02946 0.10782 0.0
N445 N 0.43693 0.17866 0.09753 0.0
C446 C 0.4014 0.06589 0.09869 0.0
C447 C 0.42264 0.14254 0.09348 0.0
N448 N 0.34066 0.0786 0.12843 0.0
N449 N 0.46793 0.1303 0.04129 0.0
H450 H 0.42359 0.19763 0.11521 0.0
H451 H 0.46384 0.18881 0.08652 0.0
H452 H 0.48054 0.11271 0.02137 0.0
H453 H 0.47328 0.15802 0.03443 0.0
H454 H 0.32927 0.05117 0.12586 0.0
H455 H 0.32088 0.09607 0.13925 0.0
H456 H 0.37571 0.01896 0.12853 0.0
H457 H 0.41453 0.01041 0.09773 0.0
C458 C 0.12577 0.92827 0.57782 0.0
C459 C 0.15661 0.91903 0.55303 0.0
C460 C 0.12907 0.9487 0.49757 0.0
C461 C 0.10193 0.96298 0.52404 0.0
N462 N 0.07753 0.97001 0.59071 0.0
N463 N 0.19031 0.9232 0.49025 0.0
C464 C 0.10091 0.95356 0.5645 0.0
C465 C 0.15898 0.92984 0.51304 0.0
N466 N 0.1198 0.91231 0.61387 0.0
N467 N 0.12544 0.9519 0.45762 0.0
H468 H 0.21251 0.90901 0.50049 0.0
H469 H 0.19565 0.93414 0.4623 0.0
H470 H 0.10309 0.96431 0.44505 0.0
H471 H 0.1422 0.93892 0.43687 0.0
H472 H 0.09544 0.91513 0.63143 0.0
H473 H 0.13723 0.89324 0.62449 0.0
H474 H 0.07893 0.96754 0.62128 0.0
H475 H 0.0588 0.98855 0.58207 0.0
C476 C 0.87221 0.39891 0.91071 0.0
C477 C 0.83601 0.41035 0.92252 0.0
C478 C 0.86754 0.45242 0.97257 0.0
C479 C 0.90408 0.44381 0.95806 0.0
N480 N 0.94155 0.41279 0.90942 0.0
N481 N 0.79901 0.45091 0.96125 0.0
C482 C 0.90657 0.41786 0.92627 0.0
C483 C 0.83363 0.43793 0.95253 0.0
N484 N 0.8737 0.36963 0.88491 0.0
N485 N 0.86518 0.47344 0.00643 0.0
H486 H 0.77333 0.44024 0.94811 0.0
H487 H 0.79609 0.47403 0.97929 0.0
H488 H 0.88927 0.48422 0.02225 0.0
H489 H 0.83937 0.47744 0.02095 0.0
H490 H 0.89874 0.35723 0.87861 0.0
H491 H 0.84925 0.35585 0.87197 0.0
H492 H 0.94484 0.3977 0.88325 0.0
H493 H 0.96741 0.42613 0.91964 0.0
C494 C 0.6346 0.58583 0.4168 0.0
C495 C 0.67073 0.58514 0.43509 0.0
C496 C 0.63816 0.55797 0.49421 0.0
C497 C 0.60175 0.56161 0.47719 0.0
N498 N 0.56627 0.58836 0.42624 0.0
N499 N 0.70743 0.57395 0.49247 0.0
C500 C 0.60016 0.57774 0.43936 0.0
C501 C 0.67263 0.57212 0.47418 0.0
N502 N 0.63308 0.59449 0.37777 0.0
N503 N 0.63992 0.54009 0.52908 0.0
H504 H 0.73337 0.58234 0.47812 0.0
H505 H 0.71053 0.56932 0.52246 0.0
H506 H 0.61559 0.53073 0.54551 0.0
H507 H 0.66528 0.53233 0.54058 0.0
H508 H 0.60781 0.59111 0.36155 0.0
H509 H 0.65752 0.60214 0.36062 0.0
H510 H 0.56405 0.60347 0.40079 0.0
H511 H 0.54115 0.58635 0.44321 0.0
C512 C 0.15877 0.39049 0.06564 0.0
C513 C 0.1482 0.35281 0.07294 0.0
C514 C 0.0845 0.35657 0.04508 0.0
C515 C 0.09302 0.3952 0.04383 0.0
N516 N 0.13824 0.44951 0.04818 0.0
N517 N 0.1028 0.29864 0.06867 0.0
C518 C 0.13039 0.41231 0.05227 0.0
C519 C 0.11175 0.33527 0.06169 0.0
N520 N 0.19589 0.40509 0.07166 0.0
N521 N 0.05034 0.34053 0.03059 0.0
H522 H 0.12277 0.2819 0.07909 0.0
H523 H 0.07539 0.28494 0.06565 0.0
H524 H 0.02964 0.35572 0.01888 0.0
H525 H 0.04352 0.31223 0.02739 0.0
H526 H 0.20663 0.43168 0.06432 0.0
H527 H 0.2171 0.38961 0.08181 0.0
H528 H 0.16323 0.46472 0.0579 0.0
H529 H 0.11906 0.46572 0.03541 0.0
C530 C 0.56768 0.15488 0.95479 0.0
C531 C 0.57758 0.15757 0.91398 0.0
C532 C 0.55533 0.09199 0.90396 0.0
C533 C 0.54527 0.08933 0.94492 0.0
N534 N 0.55566 0.11528 0.01079 0.0
N535 N 0.58991 0.1268 0.8519 0.0
C536 C 0.55587 0.11977 0.97086 0.0
C537 C 0.57401 0.12553 0.88916 0.0
N538 N 0.56789 0.1861 0.97801 0.0
N539 N 0.54738 0.0622 0.87912 0.0
H540 H 0.60408 0.15071 0.84021 0.0
H541 H 0.59206 0.10366 0.8337 0.0
H542 H 0.53908 0.0359 0.88939 0.0
H543 H 0.54832 0.06361 0.84839 0.0
H544 H 0.55673 0.18624 0.00678 0.0
H545 H 0.57587 0.21238 0.96736 0.0
H546 H 0.5666 0.13572 0.03079 0.0
H547 H 0.54862 0.08998 0.02366 0.0
C548 C 0.96694 0.84102 0.42098 0.0
C549 C 0.93164 0.83907 0.40029 0.0
C550 C 0.92806 0.90514 0.4136 0.0
C551 C 0.9636 0.9074 0.43377 0.0
N552 N 0.02076 0.87942 0.44988 0.0
N553 N 0.87986 0.87006 0.37429 0.0
C554 C 0.98418 0.87583 0.43544 0.0
C555 C 0.9129 0.87141 0.3956 0.0
N556 N 0.98303 0.80932 0.42852 0.0
N557 N 0.9073 0.93468 0.41161 0.0
H558 H 0.86784 0.8462 0.35978 0.0
H559 H 0.86513 0.89321 0.37041 0.0
H560 H 0.91557 0.96042 0.42446 0.0
H561 H 0.91557 0.96042 0.42446 0.0
H562 H 0.00613 0.80816 0.44737 0.0
H563 H 0.97153 0.78344 0.41823 0.0
H564 H 0.039 0.85855 0.44823 0.0
H565 H 0.0343 0.90445 0.46045 0.0
C566 C 0.3655 0.63867 0.59127 0.0
C567 C 0.38242 0.67237 0.60779 0.0
C568 C 0.44568 0.64897 0.60562 0.0
C569 C 0.42947 0.61699 0.58501 0.0
N570 N 0.37524 0.58501 0.55053 0.0
N571 N 0.43933 0.71243 0.62474 0.0
C572 C 0.38966 0.61261 0.57588 0.0
C573 C 0.42276 0.67835 0.61335 0.0
N574 N 0.32637 0.63127 0.59091 0.0
N575 N 0.48257 0.65076 0.61901 0.0
H576 H 0.42352 0.7348 0.63048 0.0
H577 H 0.46897 0.71941 0.6251 0.0
H578 H 0.49999 0.62938 0.61468 0.0
H579 H 0.49458 0.67182 0.63768 0.0
H580 H 0.31258 0.60551 0.58318 0.0
H581 H 0.30768 0.64985 0.60173 0.0
H582 H 0.34731 0.58301 0.53978 0.0
H583 H 0.39204 0.56625 0.53681 0.0
C584 C 0.93043 0.92478 0.70536 0.0
C585 C 0.90895 0.89112 0.69442 0.0
C586 C 0.92922 0.89828 0.62546 0.0
C587 C 0.95144 0.93157 0.63644 0.0
N588 N 0.97945 0.97343 0.68662 0.0
N589 N 0.89414 0.84153 0.64693 0.0
C590 C 0.954 0.9439 0.67643 0.0
C591 C 0.91055 0.8764 0.65537 0.0
N592 N 0.92732 0.93885 0.74303 0.0
N593 N 0.92385 0.88873 0.58636 0.0
H594 H 0.87921 0.825 0.66795 0.0
H595 H 0.89809 0.82776 0.62004 0.0
H596 H 0.93653 0.90408 0.56317 0.0
H597 H 0.90421 0.86719 0.5766 0.0
H598 H 0.93871 0.96519 0.75175 0.0
H599 H 0.91144 0.92478 0.76533 0.0
H600 H 0.98542 0.98179 0.71573 0.0
H601 H 0.99705 0.98792 0.66587 0.0
C602 C 0.67887 0.08608 0.151 0.0
C603 C 0.66175 0.10684 0.18126 0.0
C604 C 0.59905 0.09398 0.15038 0.0
C605 C 0.61505 0.06935 0.12321 0.0
N606 N 0.66917 0.03787 0.10048 0.0
N607 N 0.60429 0.12415 0.21465 0.0
C608 C 0.65479 0.06437 0.12404 0.0
C609 C 0.62145 0.10898 0.18239 0.0
N610 N 0.71803 0.08773 0.14757 0.0
N611 N 0.56307 0.10446 0.14467 0.0
H612 H 0.61949 0.13485 0.23935 0.0
H613 H 0.57453 0.12277 0.21858 0.0
H614 H 0.54636 0.09575 0.12026 0.0
H615 H 0.55167 0.12511 0.16161 0.0
H616 H 0.73219 0.0762 0.1237 0.0
H617 H 0.73646 0.1033 0.16696 0.0
H618 H 0.69701 0.03038 0.10291 0.0
H619 H 0.65235 0.02112 0.08069 0.0
C620 C 0.42922 0.55297 0.33866 0.0
C621 C 0.42294 0.59079 0.3417 0.0
C622 C 0.44976 0.59394 0.40868 0.0
C623 C 0.4525 0.55518 0.4072 0.0
N624 N 0.43499 0.4968 0.37372 0.0
N625 N 0.41888 0.64491 0.38333 0.0
C626 C 0.4395 0.53439 0.37296 0.0
C627 C 0.43073 0.61056 0.37783 0.0
N628 N 0.42649 0.53492 0.30276 0.0
N629 N 0.4669 0.61554 0.43833 0.0
H630 H 0.40444 0.65789 0.36176 0.0
H631 H 0.41992 0.65891 0.4106 0.0
H632 H 0.48216 0.60546 0.46114 0.0
H633 H 0.46938 0.64421 0.43809 0.0
H634 H 0.43469 0.50848 0.29804 0.0
H635 H 0.41956 0.5476 0.27688 0.0
H636 H 0.42213 0.48043 0.35095 0.0
H637 H 0.43993 0.48208 0.39886 0.0
C638 C 0.04665 0.45549 0.83098 0.0
C639 C 0.08051 0.43864 0.83888 0.0
C640 C 0.08005 0.46404 0.90709 0.0
C641 C 0.04496 0.47929 0.89976 0.0
N642 N 0.98971 0.48021 0.85792 0.0
N643 N 0.12499 0.42034 0.88656 0.0
C644 C 0.0268 0.47234 0.86258 0.0
C645 C 0.09583 0.44091 0.87764 0.0
N646 N 0.03399 0.45647 0.793 0.0
N647 N 0.09946 0.47303 0.94127 0.0
H648 H 0.1374 0.40341 0.86571 0.0
H649 H 0.13455 0.41753 0.91525 0.0
H650 H 0.08901 0.4896 0.96355 0.0
H651 H 0.12724 0.46639 0.94633 0.0
H652 H 0.01209 0.47201 0.7848 0.0
H653 H 0.04752 0.44436 0.76901 0.0
H654 H 0.97365 0.47231 0.83287 0.0
H655 H 0.97334 0.49067 0.88084 0.0
C656 C 0.63535 0.90967 0.94501 0.0
C657 C 0.6256 0.89654 0.90634 0.0
C658 C 0.57124 0.93371 0.90679 0.0
C659 C 0.57797 0.943 0.94743 0.0
N660 N 0.61174 0.93162 0.00752 0.0
N661 N 0.58084 0.89085 0.85251 0.0
C662 C 0.60876 0.9288 0.96725 0.0
C663 C 0.59245 0.90696 0.88783 0.0
N664 N 0.67051 0.90487 0.96021 0.0
N665 N 0.54611 0.95163 0.88564 0.0
H666 H 0.5958 0.87114 0.83777 0.0
H667 H 0.5546 0.89458 0.83973 0.0
H668 H 0.53107 0.97256 0.89765 0.0
H669 H 0.54322 0.94846 0.85508 0.0
H670 H 0.68051 0.91754 0.98657 0.0
H671 H 0.69126 0.89138 0.94475 0.0
H672 H 0.63132 0.91811 0.02325 0.0
H673 H 0.59214 0.94367 0.02584 0.0
C674 C 0.87036 0.09448 0.49726 0.0
C675 C 0.86392 0.09887 0.45642 0.0
C676 C 0.91215 0.05669 0.43859 0.0
C677 C 0.91641 0.04993 0.47931 0.0
N678 N 0.9019 0.06283 0.54805 0.0
N679 N 0.87708 0.0844 0.38777 0.0
C680 C 0.89622 0.06907 0.5089 0.0
C681 C 0.88455 0.08017 0.42696 0.0
N682 N 0.85197 0.11499 0.52466 0.0
N683 N 0.93522 0.04126 0.41112 0.0
H684 H 0.8593 0.10343 0.37779 0.0
H685 H 0.88699 0.06805 0.36494 0.0
H686 H 0.95488 0.02305 0.4185 0.0
H687 H 0.93702 0.04815 0.38143 0.0
H688 H 0.85735 0.11585 0.55483 0.0
H689 H 0.83199 0.13291 0.51702 0.0
H690 H 0.88558 0.07261 0.57124 0.0
H691 H 0.92288 0.04694 0.55784 0.0
C692 C 0.17683 0.58399 0.04546 0.0
C693 C 0.17463 0.60337 0.08227 0.0
C694 C 0.10434 0.58998 0.08299 0.0
C695 C 0.1064 0.57271 0.04501 0.0
N696 N 0.14335 0.55952 0.98663 0.0
N697 N 0.13622 0.63098 0.13253 0.0
C698 C 0.14234 0.57157 0.02521 0.0
C699 C 0.13831 0.60825 0.09996 0.0
N700 N 0.21183 0.57637 0.03052 0.0
N701 N 0.07027 0.58747 0.10369 0.0
H702 H 0.16049 0.64457 0.14599 0.0
H703 H 0.11043 0.63883 0.1442 0.0
H704 H 0.04482 0.57426 0.09233 0.0
H705 H 0.06781 0.59582 0.13323 0.0
H706 H 0.2151 0.5589 0.00614 0.0
H707 H 0.23771 0.5851 0.04443 0.0
H708 H 0.16831 0.56106 0.96926 0.0
H709 H 0.11845 0.55134 0.97077 0.0
C710 C 0.33978 0.45613 0.5517 0.0
C711 C 0.34036 0.42624 0.57772 0.0
C712 C 0.40919 0.42303 0.56238 0.0
C713 C 0.40795 0.45151 0.53457 0.0
N714 N 0.37131 0.49166 0.4984 0.0
N715 N 0.37419 0.37924 0.60628 0.0
C716 C 0.37301 0.46711 0.52807 0.0
C717 C 0.37478 0.40926 0.58275 0.0
N718 N 0.30754 0.47438 0.55005 0.0
N719 N 0.44331 0.40905 0.56921 0.0
H720 H 0.35018 0.36953 0.6231 0.0
H721 H 0.39662 0.36266 0.60786 0.0
H722 H 0.46827 0.41593 0.55262 0.0
H723 H 0.44768 0.39187 0.59246 0.0
H724 H 0.30647 0.49894 0.53534 0.0
H725 H 0.28236 0.4664 0.56592 0.0
H726 H 0.34596 0.50132 0.48919 0.0
H727 H 0.39501 0.50043 0.4807 0.0
C728 C 0.8494 0.62916 0.93816 0.0
C729 C 0.85868 0.66762 0.94163 0.0
C730 C 0.91815 0.65856 0.97568 0.0
C731 C 0.91194 0.62048 0.96599 0.0
N732 N 0.87396 0.56975 0.93307 0.0
N733 N 0.90205 0.71999 0.96209 0.0
C734 C 0.87789 0.6056 0.94647 0.0
C735 C 0.89292 0.6827 0.96041 0.0
N736 N 0.8135 0.61532 0.92632 0.0
N737 N 0.94756 0.67143 1.00011 0.0
H738 H 0.88353 0.73855 0.95251 0.0
H739 H 0.92877 0.73245 0.97095 0.0
H740 H 0.96635 0.65431 0.01208 0.0
H741 H 0.95124 0.69835 0.01135 0.0
H742 H 0.80374 0.58743 0.92685 0.0
H743 H 0.79217 0.63222 0.91974 0.0
H744 H 0.85152 0.55873 0.91512 0.0
H745 H 0.89495 0.55174 0.93627 0.0
C746 C 0.47454 0.8493 0.07611 0.0
C747 C 0.43775 0.8487 0.09466 0.0
C748 C 0.43244 0.91189 0.07296 0.0
C749 C 0.47129 0.91431 0.05929 0.0
N750 N 0.52275 0.88132 0.03345 0.0
N751 N 0.38299 0.88034 0.11451 0.0
C752 C 0.49059 0.8818 0.05696 0.0
C753 C 0.41695 0.88018 0.09386 0.0
N754 N 0.49442 0.81893 0.0774 0.0
N755 N 0.40937 0.93838 0.06366 0.0
H756 H 0.37066 0.85773 0.1301 0.0
H757 H 0.36878 0.90386 0.11919 0.0
H758 H 0.41784 0.95928 0.04417 0.0
H759 H 0.38003 0.93662 0.07018 0.0
H760 H 0.5232 0.81878 0.06909 0.0
H761 H 0.48275 0.79396 0.08893 0.0
H762 H 0.53708 0.85812 0.02754 0.0
H763 H 0.53252 0.90337 0.01579 0.0
C764 C 0.0998 0.13764 0.60921 0.0
C765 C 0.08289 0.17056 0.60181 0.0
C766 C 0.03255 0.13496 0.56284 0.0
C767 C 0.05207 0.10292 0.56632 0.0
N768 N 0.10686 0.07441 0.58878 0.0
N769 N 0.03581 0.2016 0.56773 0.0
C770 C 0.08627 0.10433 0.5887 0.0
C771 C 0.04984 0.16948 0.57771 0.0
N772 N 0.12837 0.13811 0.63644 0.0
N773 N 0.99689 0.13216 0.54624 0.0
H774 H 0.04739 0.22738 0.57826 0.0
H775 H 0.01466 0.20301 0.54662 0.0
H776 H 0.98318 0.10731 0.53542 0.0
H777 H 0.97937 0.15362 0.5465 0.0
H778 H 0.13915 0.11443 0.64629 0.0
H779 H 0.1391 0.162 0.6518 0.0
H780 H 0.1342 0.07496 0.60074 0.0
H781 H 0.09797 0.04966 0.57407 0.0
C782 C 0.64747 0.38973 0.39824 0.0
C783 C 0.63776 0.35162 0.40412 0.0
C784 C 0.57677 0.3642 0.4357 0.0
C785 C 0.58514 0.40206 0.42717 0.0
N786 N 0.62471 0.45004 0.39372 0.0
N787 N 0.59006 0.30159 0.42043 0.0
C788 C 0.61947 0.41463 0.40652 0.0
C789 C 0.6014 0.33854 0.42035 0.0
N790 N 0.68378 0.40221 0.38584 0.0
N791 N 0.54679 0.3529 0.46048 0.0
H792 H 0.60737 0.28178 0.40966 0.0
H793 H 0.56221 0.29077 0.42783 0.0
H794 H 0.52856 0.37074 0.47356 0.0
H795 H 0.54221 0.3263 0.47119 0.0
H796 H 0.6939 0.43001 0.38517 0.0
H797 H 0.70493 0.38468 0.37919 0.0
H798 H 0.64737 0.45982 0.37522 0.0
H799 H 0.60437 0.46882 0.39844 0.0
loop_
_geom_bond_atom_site_label_1
_geom_bond_atom_site_label_2
_geom_bond_distance
_geom_bond_site_symmetry_2
_ccdc_geom_bond_type
C0 C1 1.384 . S
C0 H13 0.947 . S
C0 C35 1.382 . S
C1 C0 1.384 . S
C1 C2 1.378 . S
C2 C1 1.378 . S
C2 C3 1.378 . S
C2 H14 0.952 . S
C3 C2 1.378 . S
C3 H15 0.950 . S
C3 C34 1.383 . S
H4 C23 0.947 . S
H5 C24 0.946 . S
H6 C26 0.953 . S
H7 C27 0.945 . S
H8 C29 0.952 . S
H9 C30 0.949 . S
H10 C32 0.950 . S
H11 C33 0.948 . S
H12 C35 0.951 . S
H13 C0 0.947 . S
H14 C2 0.952 . S
H15 C3 0.950 . S
N16 C19 1.382 . S
N16 C21 1.363 . S
N17 C19 1.371 . S
N17 C20 1.372 . S
N18 C20 1.361 . S
N18 C21 1.377 . S
C19 N16 1.382 . S
C19 N17 1.371 . S
C19 C22 1.480 . S
C20 N17 1.372 . S
C20 N18 1.361 . S
C20 C28 1.457 . S
C21 N16 1.363 . S
C21 N18 1.377 . S
C21 C34 1.479 . S
C22 C19 1.480 . S
C22 C23 1.383 . S
C22 C27 1.385 . S
C23 H4 0.947 . S
C23 C22 1.383 . S
C23 C24 1.388 . S
C24 H5 0.946 . S
C24 C23 1.388 . S
C24 C25 1.384 . S
C25 C24 1.384 . S
C25 C26 1.377 . S
C26 H6 0.953 . S
C26 C25 1.377 . S
C26 C27 1.369 . S
C27 H7 0.945 . S
C27 C22 1.385 . S
C27 C26 1.369 . S
C28 C20 1.457 . S
C28 C29 1.372 . S
C28 C33 1.364 . S
C29 H8 0.952 . S
C29 C28 1.372 . S
C29 C30 1.389 . S
C30 H9 0.949 . S
C30 C29 1.389 . S
C30 C31 1.387 . S
C31 C30 1.387 . S
C31 C32 1.372 . S
C32 H10 0.950 . S
C32 C31 1.372 . S
C32 C33 1.379 . S
C33 H11 0.948 . S
C33 C28 1.364 . S
C33 C32 1.379 . S
C34 C3 1.383 . S
C34 C21 1.479 . S
C34 C35 1.398 . S
C35 C0 1.382 . S
C35 H12 0.951 . S
C35 C34 1.398 . S
C36 C37 1.384 . S
C36 H49 0.947 . S
C36 C71 1.382 . S
C37 C36 1.384 . S
C37 C38 1.378 . S
C38 C37 1.378 . S
C38 C39 1.378 . S
C38 H50 0.952 . S
C39 C38 1.378 . S
C39 H51 0.950 . S
C39 C70 1.383 . S
H40 C59 0.947 . S
H41 C60 0.946 . S
H42 C62 0.953 . S
H43 C63 0.945 . S
H44 C65 0.952 . S
H45 C66 0.949 . S
H46 C68 0.950 . S
H47 C69 0.948 . S
H48 C71 0.951 . S
H49 C36 0.947 . S
H50 C38 0.952 . S
H51 C39 0.950 . S
N52 C55 1.382 . S
N52 C57 1.363 . S
N53 C55 1.371 . S
N53 C56 1.372 . S
N54 C56 1.361 . S
N54 C57 1.377 . S
C55 N52 1.382 . S
C55 N53 1.371 . S
C55 C58 1.480 . S
C56 N53 1.372 . S
C56 N54 1.361 . S
C56 C64 1.457 . S
C57 N52 1.363 . S
C57 N54 1.377 . S
C57 C70 1.479 . S
C58 C55 1.480 . S
C58 C59 1.383 . S
C58 C63 1.385 . S
C59 H40 0.947 . S
C59 C58 1.383 . S
C59 C60 1.388 . S
C60 H41 0.946 . S
C60 C59 1.388 . S
C60 C61 1.384 . S
C61 C60 1.384 . S
C61 C62 1.377 . S
C62 H42 0.953 . S
C62 C61 1.377 . S
C62 C63 1.369 . S
C63 H43 0.945 . S
C63 C58 1.385 . S
C63 C62 1.369 . S
C64 C56 1.457 . S
C64 C65 1.372 . S
C64 C69 1.364 . S
C65 H44 0.952 . S
C65 C64 1.372 . S
C65 C66 1.389 . S
C66 H45 0.949 . S
C66 C65 1.389 . S
C66 C67 1.387 . S
C67 C66 1.387 . S
C67 C68 1.372 . S
C68 H46 0.950 . S
C68 C67 1.372 . S
C68 C69 1.379 . S
C69 H47 0.948 . S
C69 C64 1.364 . S
C69 C68 1.379 . S
C70 C39 1.383 . S
C70 C57 1.479 . S
C70 C71 1.398 . S
C71 C36 1.382 . S
C71 H48 0.951 . S
C71 C70 1.398 . S
C72 C73 1.384 . S
C72 H85 0.947 . S
C72 C107 1.382 . S
C73 C72 1.384 . S
C73 C74 1.378 . S
C74 C73 1.378 . S
C74 C75 1.378 . S
C74 H86 0.952 . S
C75 C74 1.378 . S
C75 H87 0.950 . S
C75 C106 1.383 . S
H76 C95 0.947 . S
H77 C96 0.946 . S
H78 C98 0.953 . S
H79 C99 0.945 . S
H80 C101 0.952 . S
H81 C102 0.949 . S
H82 C104 0.950 . S
H83 C105 0.948 . S
H84 C107 0.951 . S
H85 C72 0.947 . S
H86 C74 0.952 . S
H87 C75 0.950 . S
N88 C91 1.382 . S
N88 C93 1.363 . S
N89 C91 1.371 . S
N89 C92 1.372 . S
N90 C92 1.361 . S
N90 C93 1.377 . S
C91 N88 1.382 . S
C91 N89 1.371 . S
C91 C94 1.480 . S
C92 N89 1.372 . S
C92 N90 1.361 . S
C92 C100 1.457 . S
C93 N88 1.363 . S
C93 N90 1.377 . S
C93 C106 1.479 . S
C94 C91 1.480 . S
C94 C95 1.383 . S
C94 C99 1.385 . S
C95 H76 0.947 . S
C95 C94 1.383 . S
C95 C96 1.388 . S
C96 H77 0.946 . S
C96 C95 1.388 . S
C96 C97 1.384 . S
C97 C96 1.384 . S
C97 C98 1.377 . S
C98 H78 0.953 . S
C98 C97 1.377 . S
C98 C99 1.369 . S
C99 H79 0.945 . S
C99 C94 1.385 . S
C99 C98 1.369 . S
C100 C92 1.457 . S
C100 C101 1.372 . S
C100 C105 1.364 . S
C101 H80 0.952 . S
C101 C100 1.372 . S
C101 C102 1.389 . S
C102 H81 0.949 . S
C102 C101 1.389 . S
C102 C103 1.387 . S
C103 C102 1.387 . S
C103 C104 1.372 . S
C104 H82 0.950 . S
C104 C103 1.372 . S
C104 C105 1.379 . S
C105 H83 0.948 . S
C105 C100 1.364 . S
C105 C104 1.379 . S
C106 C75 1.383 . S
C106 C93 1.479 . S
C106 C107 1.398 . S
C107 C72 1.382 . S
C107 H84 0.951 . S
C107 C106 1.398 . S
C108 C109 1.384 . S
C108 H121 0.947 . S
C108 C143 1.382 . S
C109 C108 1.384 . S
C109 C110 1.378 . S
C110 C109 1.378 . S
C110 C111 1.378 . S
C110 H122 0.952 . S
C111 C110 1.378 . S
C111 H123 0.950 . S
C111 C142 1.383 . S
H112 C131 0.947 . S
H113 C132 0.946 . S
H114 C134 0.953 . S
H115 C135 0.945 . S
H116 C137 0.952 . S
H117 C138 0.949 . S
H118 C140 0.950 . S
H119 C141 0.948 . S
H120 C143 0.951 . S
H121 C108 0.947 . S
H122 C110 0.952 . S
H123 C111 0.950 . S
N124 C127 1.382 . S
N124 C129 1.363 . S
N125 C127 1.371 . S
N125 C128 1.372 . S
N126 C128 1.361 . S
N126 C129 1.377 . S
C127 N124 1.382 . S
C127 N125 1.371 . S
C127 C130 1.480 . S
C128 N125 1.372 . S
C128 N126 1.361 . S
C128 C136 1.457 . S
C129 N124 1.363 . S
C129 N126 1.377 . S
C129 C142 1.479 . S
C130 C127 1.480 . S
C130 C131 1.383 . S
C130 C135 1.385 . S
C131 H112 0.947 . S
C131 C130 1.383 . S
C131 C132 1.388 . S
C132 H113 0.946 . S
C132 C131 1.388 . S
C132 C133 1.384 . S
C133 C132 1.384 . S
C133 C134 1.377 . S
C134 H114 0.953 . S
C134 C133 1.377 . S
C134 C135 1.369 . S
C135 H115 0.945 . S
C135 C130 1.385 . S
C135 C134 1.369 . S
C136 C128 1.457 . S
C136 C137 1.372 . S
C136 C141 1.364 . S
C137 H116 0.952 . S
C137 C136 1.372 . S
C137 C138 1.389 . S
C138 H117 0.949 . S
C138 C137 1.389 . S
C138 C139 1.387 . S
C139 C138 1.387 . S
C139 C140 1.372 . S
C140 H118 0.950 . S
C140 C139 1.372 . S
C140 C141 1.379 . S
C141 H119 0.948 . S
C141 C136 1.364 . S
C141 C140 1.379 . S
C142 C111 1.383 . S
C142 C129 1.479 . S
C142 C143 1.398 . S
C143 C108 1.382 . S
C143 H120 0.951 . S
C143 C142 1.398 . S
C144 C145 1.384 . S
C144 H157 0.947 . S
C144 C179 1.382 . S
C145 C144 1.384 . S
C145 C146 1.378 . S
C146 C145 1.378 . S
C146 C147 1.378 . S
C146 H158 0.952 . S
C147 C146 1.378 . S
C147 H159 0.950 . S
C147 C178 1.383 . S
H148 C167 0.947 . S
H149 C168 0.946 . S
H150 C170 0.953 . S
H151 C171 0.945 . S
H152 C173 0.952 . S
H153 C174 0.949 . S
H154 C176 0.950 . S
H155 C177 0.948 . S
H156 C179 0.951 . S
H157 C144 0.947 . S
H158 C146 0.952 . S
H159 C147 0.950 . S
N160 C163 1.382 . S
N160 C165 1.363 . S
N161 C163 1.371 . S
N161 C164 1.372 . S
N162 C164 1.361 . S
N162 C165 1.377 . S
C163 N160 1.382 . S
C163 N161 1.371 . S
C163 C166 1.480 . S
C164 N161 1.372 . S
C164 N162 1.361 . S
C164 C172 1.457 . S
C165 N160 1.363 . S
C165 N162 1.377 . S
C165 C178 1.479 . S
C166 C163 1.480 . S
C166 C167 1.383 . S
C166 C171 1.385 . S
C167 H148 0.947 . S
C167 C166 1.383 . S
C167 C168 1.388 . S
C168 H149 0.946 . S
C168 C167 1.388 . S
C168 C169 1.384 . S
C169 C168 1.384 . S
C169 C170 1.377 . S
C170 H150 0.953 . S
C170 C169 1.377 . S
C170 C171 1.369 . S
C171 H151 0.945 . S
C171 C166 1.385 . S
C171 C170 1.369 . S
C172 C164 1.457 . S
C172 C173 1.372 . S
C172 C177 1.364 . S
C173 H152 0.952 . S
C173 C172 1.372 . S
C173 C174 1.389 . S
C174 H153 0.949 . S
C174 C173 1.389 . S
C174 C175 1.387 . S
C175 C174 1.387 . S
C175 C176 1.372 . S
C176 H154 0.950 . S
C176 C175 1.372 . S
C176 C177 1.379 . S
C177 H155 0.948 . S
C177 C172 1.364 . S
C177 C176 1.379 . S
C178 C147 1.383 . S
C178 C165 1.479 . S
C178 C179 1.398 . S
C179 C144 1.382 . S
C179 H156 0.951 . S
C179 C178 1.398 . S
C180 C181 1.384 . S
C180 H193 0.947 . S
C180 C215 1.382 . S
C181 C180 1.384 . S
C181 C182 1.378 . S
C182 C181 1.378 . S
C182 C183 1.378 . S
C182 H194 0.952 . S
C183 C182 1.378 . S
C183 H195 0.950 . S
C183 C214 1.383 . S
H184 C203 0.947 . S
H185 C204 0.946 . S
H186 C206 0.953 . S
H187 C207 0.945 . S
H188 C209 0.952 . S
H189 C210 0.949 . S
H190 C212 0.950 . S
H191 C213 0.948 . S
H192 C215 0.951 . S
H193 C180 0.947 . S
H194 C182 0.952 . S
H195 C183 0.950 . S
N196 C199 1.382 . S
N196 C201 1.363 . S
N197 C199 1.371 . S
N197 C200 1.372 . S
N198 C200 1.361 . S
N198 C201 1.377 . S
C199 N196 1.382 . S
C199 N197 1.371 . S
C199 C202 1.480 . S
C200 N197 1.372 . S
C200 N198 1.361 . S
C200 C208 1.457 . S
C201 N196 1.363 . S
C201 N198 1.377 . S
C201 C214 1.479 . S
C202 C199 1.480 . S
C202 C203 1.383 . S
C202 C207 1.385 . S
C203 H184 0.947 . S
C203 C202 1.383 . S
C203 C204 1.388 . S
C204 H185 0.946 . S
C204 C203 1.388 . S
C204 C205 1.384 . S
C205 C204 1.384 . S
C205 C206 1.377 . S
C206 H186 0.953 . S
C206 C205 1.377 . S
C206 C207 1.369 . S
C207 H187 0.945 . S
C207 C202 1.385 . S
C207 C206 1.369 . S
C208 C200 1.457 . S
C208 C209 1.372 . S
C208 C213 1.364 . S
C209 H188 0.952 . S
C209 C208 1.372 . S
C209 C210 1.389 . S
C210 H189 0.949 . S
C210 C209 1.389 . S
C210 C211 1.387 . S
C211 C210 1.387 . S
C211 C212 1.372 . S
C212 H190 0.950 . S
C212 C211 1.372 . S
C212 C213 1.379 . S
C213 H191 0.948 . S
C213 C208 1.364 . S
C213 C212 1.379 . S
C214 C183 1.383 . S
C214 C201 1.479 . S
C214 C215 1.398 . S
C215 C180 1.382 . S
C215 H192 0.951 . S
C215 C214 1.398 . S
C216 C217 1.384 . S
C216 H229 0.947 . S
C216 C251 1.382 . S
C217 C216 1.384 . S
C217 C218 1.378 . S
C218 C217 1.378 . S
C218 C219 1.378 . S
C218 H230 0.952 . S
C219 C218 1.378 . S
C219 H231 0.950 . S
C219 C250 1.383 . S
H220 C239 0.947 . S
H221 C240 0.946 . S
H222 C242 0.953 . S
H223 C243 0.945 . S
H224 C245 0.952 . S
H225 C246 0.949 . S
H226 C248 0.950 . S
H227 C249 0.948 . S
H228 C251 0.951 . S
H229 C216 0.947 . S
H230 C218 0.952 . S
H231 C219 0.950 . S
N232 C235 1.382 . S
N232 C237 1.363 . S
N233 C235 1.371 . S
N233 C236 1.372 . S
N234 C236 1.361 . S
N234 C237 1.377 . S
C235 N232 1.382 . S
C235 N233 1.371 . S
C235 C238 1.480 . S
C236 N233 1.372 . S
C236 N234 1.361 . S
C236 C244 1.457 . S
C237 N232 1.363 . S
C237 N234 1.377 . S
C237 C250 1.479 . S
C238 C235 1.480 . S
C238 C239 1.383 . S
C238 C243 1.385 . S
C239 H220 0.947 . S
C239 C238 1.383 . S
C239 C240 1.388 . S
C240 H221 0.946 . S
C240 C239 1.388 . S
C240 C241 1.384 . S
C241 C240 1.384 . S
C241 C242 1.377 . S
C242 H222 0.953 . S
C242 C241 1.377 . S
C242 C243 1.369 . S
C243 H223 0.945 . S
C243 C238 1.385 . S
C243 C242 1.369 . S
C244 C236 1.457 . S
C244 C245 1.372 . S
C244 C249 1.364 . S
C245 H224 0.952 . S
C245 C244 1.372 . S
C245 C246 1.389 . S
C246 H225 0.949 . S
C246 C245 1.389 . S
C246 C247 1.387 . S
C247 C246 1.387 . S
C247 C248 1.372 . S
C248 H226 0.950 . S
C248 C247 1.372 . S
C248 C249 1.379 . S
C249 H227 0.948 . S
C249 C244 1.364 . S
C249 C248 1.379 . S
C250 C219 1.383 . S
C250 C237 1.479 . S
C250 C251 1.398 . S
C251 C216 1.382 . S
C251 H228 0.951 . S
C251 C250 1.398 . S
C252 C253 1.384 . S
C252 H265 0.947 . S
C252 C287 1.382 . S
C253 C252 1.384 . S
C253 C254 1.378 . S
C254 C253 1.378 . S
C254 C255 1.378 . S
C254 H266 0.952 . S
C255 C254 1.378 . S
C255 H267 0.950 . S
C255 C286 1.383 . S
H256 C275 0.947 . S
H257 C276 0.946 . S
H258 C278 0.953 . S
H259 C279 0.945 . S
H260 C281 0.952 . S
H261 C282 0.949 . S
H262 C284 0.950 . S
H263 C285 0.948 . S
H264 C287 0.951 . S
H265 C252 0.947 . S
H266 C254 0.952 . S
H267 C255 0.950 . S
N268 C271 1.382 . S
N268 C273 1.363 . S
N269 C271 1.371 . S
N269 C272 1.372 . S
N270 C272 1.361 . S
N270 C273 1.377 . S
C271 N268 1.382 . S
C271 N269 1.371 . S
C271 C274 1.480 . S
C272 N269 1.372 . S
C272 N270 1.361 . S
C272 C280 1.457 . S
C273 N268 1.363 . S
C273 N270 1.377 . S
C273 C286 1.479 . S
C274 C271 1.480 . S
C274 C275 1.383 . S
C274 C279 1.385 . S
C275 H256 0.947 . S
C275 C274 1.383 . S
C275 C276 1.388 . S
C276 H257 0.946 . S
C276 C275 1.388 . S
C276 C277 1.384 . S
C277 C276 1.384 . S
C277 C278 1.377 . S
C278 H258 0.953 . S
C278 C277 1.377 . S
C278 C279 1.369 . S
C279 H259 0.945 . S
C279 C274 1.385 . S
C279 C278 1.369 . S
C280 C272 1.457 . S
C280 C281 1.372 . S
C280 C285 1.364 . S
C281 H260 0.952 . S
C281 C280 1.372 . S
C281 C282 1.389 . S
C282 H261 0.949 . S
C282 C281 1.389 . S
C282 C283 1.387 . S
C283 C282 1.387 . S
C283 C284 1.372 . S
C284 H262 0.950 . S
C284 C283 1.372 . S
C284 C285 1.379 . S
C285 H263 0.948 . S
C285 C280 1.364 . S
C285 C284 1.379 . S
C286 C255 1.383 . S
C286 C273 1.479 . S
C286 C287 1.398 . S
C287 C252 1.382 . S
C287 H264 0.951 . S
C287 C286 1.398 . S
Dy288 O292 2.398 . S
Dy288 O293 2.491 . S
Dy288 O294 2.403 1_545 S
Dy288 O295 2.664 1_545 S
Dy288 O299 2.326 . S
Dy288 O303 2.310 1_455 S
Dy288 O304 2.351 1_445 S
C289 O300 1.185 . S
C289 O301 1.355 . S
C290 O292 1.185 . S
C290 O293 1.355 . S
Dy291 O295 2.310 1_655 S
Dy291 O298 2.351 1_665 S
Dy291 O300 2.398 . S
Dy291 O301 2.491 . S
Dy291 O302 2.403 1_565 S
Dy291 O303 2.664 1_565 S
Dy291 O305 2.326 . S
O292 Dy288 2.398 . S
O292 C290 1.185 . S
O293 Dy288 2.491 . S
O293 C290 1.355 . S
O294 Dy288 2.403 1_565 S
O294 C296 1.254 . S
O295 Dy288 2.664 1_565 S
O295 Dy291 2.310 1_455 S
O295 C296 1.268 . S
C296 O294 1.254 . S
C296 O295 1.268 . S
C297 O302 1.254 . S
C297 O303 1.268 . S
O298 Dy291 2.351 1_445 S
O298 C306 1.249 . S
O299 Dy288 2.326 . S
O299 C306 1.267 . S
O300 C289 1.185 . S
O300 Dy291 2.398 . S
O301 C289 1.355 . S
O301 Dy291 2.491 . S
O302 Dy291 2.403 1_545 S
O302 C297 1.254 . S
O303 Dy288 2.310 1_655 S
O303 Dy291 2.664 1_545 S
O303 C297 1.268 . S
O304 Dy288 2.351 1_665 S
O304 C307 1.249 . S
O305 Dy291 2.326 . S
O305 C307 1.267 . S
C306 O298 1.249 . S
C306 O299 1.267 . S
C307 O304 1.249 . S
C307 O305 1.267 . S
Dy308 O312 2.398 . S
Dy308 O313 2.491 . S
Dy308 O314 2.403 1_545 S
Dy308 O315 2.664 1_545 S
Dy308 O319 2.326 . S
Dy308 O323 2.310 1_554 S
Dy308 O324 2.351 1_544 S
C309 O320 1.185 . S
C309 O321 1.355 . S
C310 O312 1.185 . S
C310 O313 1.355 . S
Dy311 O315 2.310 1_546 S
Dy311 O318 2.351 1_556 S
Dy311 O320 2.398 1_545 S
Dy311 O321 2.491 1_545 S
Dy311 O322 2.403 . S
Dy311 O323 2.664 . S
Dy311 O325 2.326 1_545 S
O312 Dy308 2.398 . S
O312 C310 1.185 . S
O313 Dy308 2.491 . S
O313 C310 1.355 . S
O314 Dy308 2.403 1_565 S
O314 C316 1.254 . S
O315 Dy308 2.664 1_565 S
O315 Dy311 2.310 1_564 S
O315 C316 1.268 . S
C316 O314 1.254 . S
C316 O315 1.268 . S
C317 O322 1.254 . S
C317 O323 1.268 . S
O318 Dy311 2.351 1_554 S
O318 C326 1.249 . S
O319 Dy308 2.326 . S
O319 C326 1.267 . S
O320 C309 1.185 . S
O320 Dy311 2.398 1_565 S
O321 C309 1.355 . S
O321 Dy311 2.491 1_565 S
O322 Dy311 2.403 . S
O322 C317 1.254 . S
O323 Dy308 2.310 1_556 S
O323 Dy311 2.664 . S
O323 C317 1.268 . S
O324 Dy308 2.351 1_566 S
O324 C327 1.249 . S
O325 Dy311 2.326 1_565 S
O325 C327 1.267 . S
C326 O318 1.249 . S
C326 O319 1.267 . S
C327 O324 1.249 . S
C327 O325 1.267 . S
Dy328 O332 2.398 . S
Dy328 O333 2.491 . S
Dy328 O334 2.403 . S
Dy328 O335 2.664 . S
Dy328 O339 2.326 . S
Dy328 O343 2.310 . S
Dy328 O344 2.351 . S
C329 O340 1.185 . S
C329 O341 1.355 . S
C330 O332 1.185 . S
C330 O333 1.355 . S
Dy331 O335 2.310 . S
Dy331 O338 2.351 . S
Dy331 O340 2.398 . S
Dy331 O341 2.491 . S
Dy331 O342 2.403 . S
Dy331 O343 2.664 . S
Dy331 O345 2.326 . S
O332 Dy328 2.398 . S
O332 C330 1.185 . S
O333 Dy328 2.491 . S
O333 C330 1.355 . S
O334 Dy328 2.403 . S
O334 C336 1.254 . S
O335 Dy328 2.664 . S
O335 Dy331 2.310 . S
O335 C336 1.268 . S
C336 O334 1.254 . S
C336 O335 1.268 . S
C337 O342 1.254 . S
C337 O343 1.268 . S
O338 Dy331 2.351 . S
O338 C346 1.249 . S
O339 Dy328 2.326 . S
O339 C346 1.267 . S
O340 C329 1.185 . S
O340 Dy331 2.398 . S
O341 C329 1.355 . S
O341 Dy331 2.491 . S
O342 Dy331 2.403 . S
O342 C337 1.254 . S
O343 Dy328 2.310 . S
O343 Dy331 2.664 . S
O343 C337 1.268 . S
O344 Dy328 2.351 . S
O344 C347 1.249 . S
O345 Dy331 2.326 . S
O345 C347 1.267 . S
C346 O338 1.249 . S
C346 O339 1.267 . S
C347 O344 1.249 . S
C347 O345 1.267 . S
Dy348 O352 2.398 . S
Dy348 O353 2.491 . S
Dy348 O354 2.403 1_455 S
Dy348 O355 2.664 1_455 S
Dy348 O359 2.326 . S
Dy348 O363 2.310 1_554 S
Dy348 O364 2.351 1_454 S
C349 O360 1.185 . S
C349 O361 1.355 . S
C350 O352 1.185 . S
C350 O353 1.355 . S
Dy351 O355 2.310 1_556 S
Dy351 O358 2.351 1_656 S
Dy351 O360 2.398 . S
Dy351 O361 2.491 . S
Dy351 O362 2.403 1_655 S
Dy351 O363 2.664 1_655 S
Dy351 O365 2.326 . S
O352 Dy348 2.398 . S
O352 C350 1.185 . S
O353 Dy348 2.491 . S
O353 C350 1.355 . S
O354 Dy348 2.403 1_655 S
O354 C356 1.254 . S
O355 Dy348 2.664 1_655 S
O355 Dy351 2.310 1_554 S
O355 C356 1.268 . S
C356 O354 1.254 . S
C356 O355 1.268 . S
C357 O362 1.254 . S
C357 O363 1.268 . S
O358 Dy351 2.351 1_454 S
O358 C366 1.249 . S
O359 Dy348 2.326 . S
O359 C366 1.267 . S
O360 C349 1.185 . S
O360 Dy351 2.398 . S
O361 C349 1.355 . S
O361 Dy351 2.491 . S
O362 Dy351 2.403 1_455 S
O362 C357 1.254 . S
O363 Dy348 2.310 1_556 S
O363 Dy351 2.664 1_455 S
O363 C357 1.268 . S
O364 Dy348 2.351 1_656 S
O364 C367 1.249 . S
O365 Dy351 2.326 . S
O365 C367 1.267 . S
C366 O358 1.249 . S
C366 O359 1.267 . S
C367 O364 1.249 . S
C367 O365 1.267 . S
C368 C369 1.363 . S
C368 C374 1.379 . S
C368 N376 1.356 . S
C369 C368 1.363 . S
C369 C375 1.363 . S
C370 C371 1.363 . S
C370 C375 1.379 . S
C370 N377 1.356 . S
C371 C370 1.363 . S
C371 C374 1.363 . S
N372 C374 1.356 . S
N372 H384 0.984 . S
N372 H385 0.985 . S
N373 C375 1.356 . S
N373 H378 0.984 . S
N373 H379 0.985 . S
C374 C368 1.379 . S
C374 C371 1.363 . S
C374 N372 1.356 . S
C375 C369 1.363 . S
C375 C370 1.379 . S
C375 N373 1.356 . S
N376 C368 1.356 . S
N376 H382 0.984 . S
N376 H383 0.984 . S
N377 C370 1.356 . S
N377 H380 0.984 . S
N377 H381 0.985 . S
H378 N373 0.984 . S
H379 N373 0.985 . S
H380 N377 0.984 . S
H381 N377 0.985 . S
H382 N376 0.984 . S
H383 N376 0.984 . S
H384 N372 0.984 . S
H385 N372 0.985 . S
C386 C387 1.363 . S
C386 C392 1.379 . S
C386 N394 1.356 . S
C387 C386 1.363 . S
C387 C393 1.363 . S
C388 C389 1.363 . S
C388 C393 1.379 . S
C388 N395 1.356 . S
C389 C388 1.363 . S
C389 C392 1.363 . S
N390 C392 1.356 . S
N390 H402 0.984 1_565 S
N390 H403 0.985 . S
N391 C393 1.356 . S
N391 H396 0.984 . S
N391 H397 0.985 . S
C392 C386 1.379 . S
C392 C389 1.363 . S
C392 N390 1.356 . S
C393 C387 1.363 . S
C393 C388 1.379 . S
C393 N391 1.356 . S
N394 C386 1.356 . S
N394 H400 0.979 1_565 S
N394 H401 0.984 . S
N395 C388 1.356 . S
N395 H398 0.984 . S
N395 H399 0.985 . S
H396 N391 0.984 . S
H397 N391 0.985 . S
H398 N395 0.984 . S
H399 N395 0.985 . S
H400 N394 0.979 1_545 S
H401 N394 0.984 . S
H402 N390 0.984 1_545 S
H403 N390 0.985 . S
C404 C405 1.363 . S
C404 C410 1.379 . S
C404 N412 1.356 . S
C405 C404 1.363 . S
C405 C411 1.363 . S
C406 C407 1.363 . S
C406 C411 1.379 . S
C406 N413 1.356 . S
C407 C406 1.363 . S
C407 C410 1.363 . S
N408 C410 1.356 . S
N408 H420 0.984 . S
N408 H421 0.985 . S
N409 C411 1.356 . S
N409 H414 0.984 . S
N409 H415 0.985 . S
C410 C404 1.379 . S
C410 C407 1.363 . S
C410 N408 1.356 . S
C411 C405 1.363 . S
C411 C406 1.379 . S
C411 N409 1.356 . S
N412 C404 1.356 . S
N412 H418 0.984 . S
N412 H419 0.984 . S
N413 C406 1.356 . S
N413 H416 0.984 . S
N413 H417 0.985 . S
H414 N409 0.984 . S
H415 N409 0.985 . S
H416 N413 0.984 . S
H417 N413 0.985 . S
H418 N412 0.984 . S
H419 N412 0.984 . S
H420 N408 0.984 . S
H421 N408 0.985 . S
C422 C423 1.363 . S
C422 C428 1.379 . S
C422 N430 1.356 . S
C423 C422 1.363 . S
C423 C429 1.363 . S
C424 C425 1.363 . S
C424 C429 1.379 . S
C424 N431 1.356 . S
C425 C424 1.363 . S
C425 C428 1.363 . S
N426 C428 1.356 . S
N426 H438 0.984 . S
N426 H439 0.985 . S
N427 C429 1.356 . S
N427 H432 0.984 . S
N427 H433 0.985 . S
C428 C422 1.379 . S
C428 C425 1.363 . S
C428 N426 1.356 . S
C429 C423 1.363 . S
C429 C424 1.379 . S
C429 N427 1.356 . S
N430 C422 1.356 . S
N430 H436 0.984 . S
N430 H437 0.984 . S
N431 C424 1.356 . S
N431 H434 0.984 . S
N431 H435 0.985 1_655 S
H432 N427 0.984 . S
H433 N427 0.985 . S
H434 N431 0.984 . S
H435 N431 0.985 1_455 S
H436 N430 0.984 . S
H437 N430 0.984 . S
H438 N426 0.984 . S
H439 N426 0.985 . S
C440 C441 1.363 . S
C440 C446 1.379 . S
C440 N448 1.356 . S
C441 C440 1.363 . S
C441 C447 1.363 . S
C442 C443 1.363 . S
C442 C447 1.379 . S
C442 N449 1.356 . S
C443 C442 1.363 . S
C443 C446 1.363 . S
N444 C446 1.356 . S
N444 H456 0.984 . S
N444 H457 0.985 . S
N445 C447 1.356 . S
N445 H450 0.984 . S
N445 H451 0.985 . S
C446 C440 1.379 . S
C446 C443 1.363 . S
C446 N444 1.356 . S
C447 C441 1.363 . S
C447 C442 1.379 . S
C447 N445 1.356 . S
N448 C440 1.356 . S
N448 H454 0.984 . S
N448 H455 0.984 . S
N449 C442 1.356 . S
N449 H452 0.984 . S
N449 H453 0.985 . S
H450 N445 0.984 . S
H451 N445 0.985 . S
H452 N449 0.984 . S
H453 N449 0.985 . S
H454 N448 0.984 . S
H455 N448 0.984 . S
H456 N444 0.984 . S
H457 N444 0.985 . S
C458 C459 1.363 . S
C458 C464 1.379 . S
C458 N466 1.356 . S
C459 C458 1.363 . S
C459 C465 1.363 . S
C460 C461 1.363 . S
C460 C465 1.379 . S
C460 N467 1.356 . S
C461 C460 1.363 . S
C461 C464 1.363 . S
N462 C464 1.356 . S
N462 H474 0.984 . S
N462 H475 0.985 . S
N463 C465 1.356 . S
N463 H468 0.984 . S
N463 H469 0.985 . S
C464 C458 1.379 . S
C464 C461 1.363 . S
C464 N462 1.356 . S
C465 C459 1.363 . S
C465 C460 1.379 . S
C465 N463 1.356 . S
N466 C458 1.356 . S
N466 H472 0.984 . S
N466 H473 0.984 . S
N467 C460 1.356 . S
N467 H470 0.984 . S
N467 H471 0.985 . S
H468 N463 0.984 . S
H469 N463 0.985 . S
H470 N467 0.984 . S
H471 N467 0.985 . S
H472 N466 0.984 . S
H473 N466 0.984 . S
H474 N462 0.984 . S
H475 N462 0.985 . S
C476 C477 1.363 . S
C476 C482 1.379 . S
C476 N484 1.356 . S
C477 C476 1.363 . S
C477 C483 1.363 . S
C478 C479 1.363 . S
C478 C483 1.379 . S
C478 N485 1.356 . S
C479 C478 1.363 . S
C479 C482 1.363 . S
N480 C482 1.356 . S
N480 H492 0.984 . S
N480 H493 0.985 . S
N481 C483 1.356 . S
N481 H486 0.984 . S
N481 H487 0.985 . S
C482 C476 1.379 . S
C482 C479 1.363 . S
C482 N480 1.356 . S
C483 C477 1.363 . S
C483 C478 1.379 . S
C483 N481 1.356 . S
N484 C476 1.356 . S
N484 H490 0.984 . S
N484 H491 0.984 . S
N485 C478 1.356 . S
N485 H488 0.984 . S
N485 H489 0.985 . S
H486 N481 0.984 . S
H487 N481 0.985 . S
H488 N485 0.984 . S
H489 N485 0.985 . S
H490 N484 0.984 . S
H491 N484 0.984 . S
H492 N480 0.984 . S
H493 N480 0.985 . S
C494 C495 1.363 . S
C494 C500 1.379 . S
C494 N502 1.356 . S
C495 C494 1.363 . S
C495 C501 1.363 . S
C496 C497 1.363 . S
C496 C501 1.379 . S
C496 N503 1.356 . S
C497 C496 1.363 . S
C497 C500 1.363 . S
N498 C500 1.356 . S
N498 H510 0.984 . S
N498 H511 0.985 . S
N499 C501 1.356 . S
N499 H504 0.984 . S
N499 H505 0.985 . S
C500 C494 1.379 . S
C500 C497 1.363 . S
C500 N498 1.356 . S
C501 C495 1.363 . S
C501 C496 1.379 . S
C501 N499 1.356 . S
N502 C494 1.356 . S
N502 H508 0.984 . S
N502 H509 0.984 . S
N503 C496 1.356 . S
N503 H506 0.984 . S
N503 H507 0.985 . S
H504 N499 0.984 . S
H505 N499 0.985 . S
H506 N503 0.984 . S
H507 N503 0.985 . S
H508 N502 0.984 . S
H509 N502 0.984 . S
H510 N498 0.984 . S
H511 N498 0.985 . S
C512 C513 1.363 . S
C512 C518 1.379 . S
C512 N520 1.356 . S
C513 C512 1.363 . S
C513 C519 1.363 . S
C514 C515 1.363 . S
C514 C519 1.379 . S
C514 N521 1.356 . S
C515 C514 1.363 . S
C515 C518 1.363 . S
N516 C518 1.356 . S
N516 H528 0.984 . S
N516 H529 0.985 . S
N517 C519 1.356 . S
N517 H522 0.984 . S
N517 H523 0.985 . S
C518 C512 1.379 . S
C518 C515 1.363 . S
C518 N516 1.356 . S
C519 C513 1.363 . S
C519 C514 1.379 . S
C519 N517 1.356 . S
N520 C512 1.356 . S
N520 H526 0.984 . S
N520 H527 0.984 . S
N521 C514 1.356 . S
N521 H524 0.984 . S
N521 H525 0.985 . S
H522 N517 0.984 . S
H523 N517 0.985 . S
H524 N521 0.984 . S
H525 N521 0.985 . S
H526 N520 0.984 . S
H527 N520 0.984 . S
H528 N516 0.984 . S
H529 N516 0.985 . S
C530 C531 1.363 . S
C530 C536 1.379 . S
C530 N538 1.356 . S
C531 C530 1.363 . S
C531 C537 1.363 . S
C532 C533 1.363 . S
C532 C537 1.379 . S
C532 N539 1.356 . S
C533 C532 1.363 . S
C533 C536 1.363 . S
N534 C536 1.356 1_554 S
N534 H546 0.984 . S
N534 H547 0.985 . S
N535 C537 1.356 . S
N535 H540 0.984 . S
N535 H541 0.985 . S
C536 C530 1.379 . S
C536 C533 1.363 . S
C536 N534 1.356 1_556 S
C537 C531 1.363 . S
C537 C532 1.379 . S
C537 N535 1.356 . S
N538 C530 1.356 . S
N538 H544 0.983 . S
N538 H545 0.984 . S
N539 C532 1.356 . S
N539 H542 0.984 . S
N539 H543 0.985 . S
H540 N535 0.984 . S
H541 N535 0.985 . S
H542 N539 0.984 . S
H543 N539 0.985 . S
H544 N538 0.983 . S
H545 N538 0.984 . S
H546 N534 0.984 . S
H547 N534 0.985 . S
C548 C549 1.363 . S
C548 C554 1.379 . S
C548 N556 1.356 . S
C549 C548 1.363 . S
C549 C555 1.363 . S
C550 C551 1.363 . S
C550 C555 1.379 . S
C550 N557 1.356 . S
C551 C550 1.363 . S
C551 C554 1.363 . S
N552 C554 1.351 1_455 S
N552 H564 0.990 . S
N552 H565 0.985 . S
N553 C555 1.356 . S
N553 H558 0.984 . S
N553 H559 0.985 . S
C554 C548 1.379 . S
C554 C551 1.363 . S
C554 N552 1.351 1_655 S
C555 C549 1.363 . S
C555 C550 1.379 . S
C555 N553 1.356 . S
N556 C548 1.356 . S
N556 H562 0.984 . S
N556 H563 0.984 . S
N557 C550 1.356 . S
N557 H560 0.984 . S
N557 H561 0.985 . S
H558 N553 0.984 . S
H559 N553 0.985 . S
H560 N557 0.984 . S
H561 N557 0.985 . S
H562 N556 0.984 . S
H563 N556 0.984 . S
H564 N552 0.990 . S
H565 N552 0.985 . S
C566 C567 1.363 . S
C566 C572 1.379 . S
C566 N574 1.356 . S
C567 C566 1.363 . S
C567 C573 1.363 . S
C568 C569 1.363 . S
C568 C573 1.379 . S
C568 N575 1.356 . S
C569 C568 1.363 . S
C569 C572 1.363 . S
N570 C572 1.356 . S
N570 H582 0.984 . S
N570 H583 0.985 . S
N571 C573 1.356 . S
N571 H576 0.984 . S
N571 H577 0.985 . S
C572 C566 1.379 . S
C572 C569 1.363 . S
C572 N570 1.356 . S
C573 C567 1.363 . S
C573 C568 1.379 . S
C573 N571 1.356 . S
N574 C566 1.356 . S
N574 H580 0.984 . S
N574 H581 0.984 . S
N575 C568 1.356 . S
N575 H578 0.984 . S
N575 H579 0.985 . S
H576 N571 0.984 . S
H577 N571 0.985 . S
H578 N575 0.984 . S
H579 N575 0.985 . S
H580 N574 0.984 . S
H581 N574 0.984 . S
H582 N570 0.984 . S
H583 N570 0.985 . S
C584 C585 1.363 . S
C584 C590 1.379 . S
C584 N592 1.356 . S
C585 C584 1.363 . S
C585 C591 1.363 . S
C586 C587 1.363 . S
C586 C591 1.379 . S
C586 N593 1.356 . S
C587 C586 1.363 . S
C587 C590 1.363 . S
N588 C590 1.356 . S
N588 H600 0.984 . S
N588 H601 0.985 . S
N589 C591 1.356 . S
N589 H594 0.984 . S
N589 H595 0.985 . S
C590 C584 1.379 . S
C590 C587 1.363 . S
C590 N588 1.356 . S
C591 C585 1.363 . S
C591 C586 1.379 . S
C591 N589 1.356 . S
N592 C584 1.356 . S
N592 H598 0.984 . S
N592 H599 0.984 . S
N593 C586 1.356 . S
N593 H596 0.984 . S
N593 H597 0.985 . S
H594 N589 0.984 . S
H595 N589 0.985 . S
H596 N593 0.984 . S
H597 N593 0.985 . S
H598 N592 0.984 . S
H599 N592 0.984 . S
H600 N588 0.984 . S
H601 N588 0.985 . S
C602 C603 1.363 . S
C602 C608 1.379 . S
C602 N610 1.356 . S
C603 C602 1.363 . S
C603 C609 1.363 . S
C604 C605 1.363 . S
C604 C609 1.379 . S
C604 N611 1.356 . S
C605 C604 1.363 . S
C605 C608 1.363 . S
N606 C608 1.356 . S
N606 H618 0.984 1_545 S
N606 H619 0.985 . S
N607 C609 1.356 . S
N607 H612 0.984 . S
N607 H613 0.985 . S
C608 C602 1.379 . S
C608 C605 1.363 . S
C608 N606 1.356 . S
C609 C603 1.363 . S
C609 C604 1.379 . S
C609 N607 1.356 . S
N610 C602 1.356 . S
N610 H616 0.984 . S
N610 H617 0.984 . S
N611 C604 1.356 . S
N611 H614 0.984 . S
N611 H615 0.985 . S
H612 N607 0.984 . S
H613 N607 0.985 . S
H614 N611 0.984 . S
H615 N611 0.985 . S
H616 N610 0.984 . S
H617 N610 0.984 . S
H618 N606 0.984 1_565 S
H619 N606 0.985 . S
C620 C621 1.363 . S
C620 C626 1.379 . S
C620 N628 1.356 . S
C621 C620 1.363 . S
C621 C627 1.363 . S
C622 C623 1.363 . S
C622 C627 1.379 . S
C622 N629 1.356 . S
C623 C622 1.363 . S
C623 C626 1.363 . S
N624 C626 1.356 . S
N624 H636 0.984 . S
N624 H637 0.985 . S
N625 C627 1.356 . S
N625 H630 0.984 . S
N625 H631 0.985 . S
C626 C620 1.379 . S
C626 C623 1.363 . S
C626 N624 1.356 . S
C627 C621 1.363 . S
C627 C622 1.379 . S
C627 N625 1.356 . S
N628 C620 1.356 . S
N628 H634 0.984 . S
N628 H635 0.984 . S
N629 C622 1.356 . S
N629 H632 0.984 . S
N629 H633 0.985 . S
H630 N625 0.984 . S
H631 N625 0.985 . S
H632 N629 0.984 . S
H633 N629 0.985 . S
H634 N628 0.984 . S
H635 N628 0.984 . S
H636 N624 0.984 . S
H637 N624 0.985 . S
C638 C639 1.363 . S
C638 C644 1.379 . S
C638 N646 1.356 . S
C639 C638 1.363 . S
C639 C645 1.363 . S
C640 C641 1.363 . S
C640 C645 1.379 . S
C640 N647 1.356 . S
C641 C640 1.363 . S
C641 C644 1.363 . S
N642 C644 1.356 . S
N642 H654 0.984 1_455 S
N642 H655 0.985 . S
N643 C645 1.356 . S
N643 H648 0.984 . S
N643 H649 0.985 . S
C644 C638 1.379 . S
C644 C641 1.363 . S
C644 N642 1.356 . S
C645 C639 1.363 . S
C645 C640 1.379 . S
C645 N643 1.356 . S
N646 C638 1.356 . S
N646 H652 0.984 . S
N646 H653 0.984 . S
N647 C640 1.356 . S
N647 H650 0.984 . S
N647 H651 0.985 . S
H648 N643 0.984 . S
H649 N643 0.985 . S
H650 N647 0.984 . S
H651 N647 0.985 . S
H652 N646 0.984 . S
H653 N646 0.984 . S
H654 N642 0.984 1_655 S
H655 N642 0.985 . S
C656 C657 1.363 . S
C656 C662 1.379 . S
C656 N664 1.356 . S
C657 C656 1.363 . S
C657 C663 1.363 . S
C658 C659 1.363 . S
C658 C663 1.379 . S
C658 N665 1.356 . S
C659 C658 1.363 . S
C659 C662 1.363 . S
N660 C662 1.356 . S
N660 H672 0.984 1_556 S
N660 H673 0.985 . S
N661 C663 1.356 . S
N661 H666 0.984 . S
N661 H667 0.985 . S
C662 C656 1.379 . S
C662 C659 1.363 . S
C662 N660 1.356 . S
C663 C657 1.363 . S
C663 C658 1.379 . S
C663 N661 1.356 . S
N664 C656 1.356 . S
N664 H670 0.984 . S
N664 H671 0.984 . S
N665 C658 1.356 . S
N665 H668 0.984 . S
N665 H669 0.985 . S
H666 N661 0.984 . S
H667 N661 0.985 . S
H668 N665 0.984 . S
H669 N665 0.985 . S
H670 N664 0.984 . S
H671 N664 0.984 . S
H672 N660 0.984 1_554 S
H673 N660 0.985 . S
C674 C675 1.363 . S
C674 C680 1.379 . S
C674 N682 1.356 . S
C675 C674 1.363 . S
C675 C681 1.363 . S
C676 C677 1.363 . S
C676 C681 1.379 . S
C676 N683 1.356 . S
C677 C676 1.363 . S
C677 C680 1.363 . S
N678 C680 1.356 . S
N678 H690 0.984 . S
N678 H691 0.985 . S
N679 C681 1.356 . S
N679 H684 0.984 . S
N679 H685 0.985 . S
C680 C674 1.379 . S
C680 C677 1.363 . S
C680 N678 1.356 . S
C681 C675 1.363 . S
C681 C676 1.379 . S
C681 N679 1.356 . S
N682 C674 1.356 . S
N682 H688 0.984 . S
N682 H689 0.984 . S
N683 C676 1.356 . S
N683 H686 0.984 . S
N683 H687 0.985 . S
H684 N679 0.984 . S
H685 N679 0.985 . S
H686 N683 0.984 . S
H687 N683 0.985 . S
H688 N682 0.984 . S
H689 N682 0.984 . S
H690 N678 0.984 . S
H691 N678 0.985 . S
C692 C693 1.363 . S
C692 C698 1.379 . S
C692 N700 1.356 . S
C693 C692 1.363 . S
C693 C699 1.363 . S
C694 C695 1.363 . S
C694 C699 1.379 . S
C694 N701 1.356 . S
C695 C694 1.363 . S
C695 C698 1.363 . S
N696 C698 1.356 . S
N696 H708 0.984 . S
N696 H709 0.985 . S
N697 C699 1.356 . S
N697 H702 0.984 . S
N697 H703 0.985 . S
C698 C692 1.379 . S
C698 C695 1.363 . S
C698 N696 1.356 . S
C699 C693 1.363 . S
C699 C694 1.379 . S
C699 N697 1.356 . S
N700 C692 1.356 . S
N700 H706 0.984 . S
N700 H707 0.984 . S
N701 C694 1.356 . S
N701 H704 0.984 . S
N701 H705 0.985 . S
H702 N697 0.984 . S
H703 N697 0.985 . S
H704 N701 0.984 . S
H705 N701 0.985 . S
H706 N700 0.984 . S
H707 N700 0.984 . S
H708 N696 0.984 . S
H709 N696 0.985 . S
C710 C711 1.363 . S
C710 C716 1.379 . S
C710 N718 1.356 . S
C711 C710 1.363 . S
C711 C717 1.363 . S
C712 C713 1.363 . S
C712 C717 1.379 . S
C712 N719 1.356 . S
C713 C712 1.363 . S
C713 C716 1.363 . S
N714 C716 1.356 . S
N714 H726 0.984 . S
N714 H727 0.985 . S
N715 C717 1.356 . S
N715 H720 0.984 . S
N715 H721 0.985 . S
C716 C710 1.379 . S
C716 C713 1.363 . S
C716 N714 1.356 . S
C717 C711 1.363 . S
C717 C712 1.379 . S
C717 N715 1.356 . S
N718 C710 1.356 . S
N718 H724 0.984 . S
N718 H725 0.984 . S
N719 C712 1.356 . S
N719 H722 0.984 . S
N719 H723 0.985 . S
H720 N715 0.984 . S
H721 N715 0.985 . S
H722 N719 0.984 . S
H723 N719 0.985 . S
H724 N718 0.984 . S
H725 N718 0.984 . S
H726 N714 0.984 . S
H727 N714 0.985 . S
C728 C729 1.363 . S
C728 C734 1.379 . S
C728 N736 1.356 . S
C729 C728 1.363 . S
C729 C735 1.363 . S
C730 C731 1.363 . S
C730 C735 1.379 . S
C730 N737 1.356 . S
C731 C730 1.363 . S
C731 C734 1.363 . S
N732 C734 1.356 . S
N732 H744 0.984 . S
N732 H745 0.985 . S
N733 C735 1.356 . S
N733 H738 0.984 . S
N733 H739 0.985 . S
C734 C728 1.379 . S
C734 C731 1.363 . S
C734 N732 1.356 . S
C735 C729 1.363 . S
C735 C730 1.379 . S
C735 N733 1.356 . S
N736 C728 1.356 . S
N736 H742 0.984 . S
N736 H743 0.984 . S
N737 C730 1.356 . S
N737 H740 0.984 . S
N737 H741 0.985 . S
H738 N733 0.984 . S
H739 N733 0.985 . S
H740 N737 0.984 . S
H741 N737 0.985 . S
H742 N736 0.984 . S
H743 N736 0.984 . S
H744 N732 0.984 . S
H745 N732 0.985 . S
C746 C747 1.363 . S
C746 C752 1.379 . S
C746 N754 1.356 . S
C747 C746 1.363 . S
C747 C753 1.363 . S
C748 C749 1.363 . S
C748 C753 1.379 . S
C748 N755 1.356 . S
C749 C748 1.363 . S
C749 C752 1.363 . S
N750 C752 1.356 . S
N750 H762 0.984 . S
N750 H763 0.985 . S
N751 C753 1.356 . S
N751 H756 0.984 . S
N751 H757 0.985 . S
C752 C746 1.379 . S
C752 C749 1.363 . S
C752 N750 1.356 . S
C753 C747 1.363 . S
C753 C748 1.379 . S
C753 N751 1.356 . S
N754 C746 1.356 . S
N754 H760 0.984 . S
N754 H761 0.984 . S
N755 C748 1.356 . S
N755 H758 0.984 . S
N755 H759 0.985 . S
H756 N751 0.984 . S
H757 N751 0.985 . S
H758 N755 0.984 . S
H759 N755 0.985 . S
H760 N754 0.984 . S
H761 N754 0.984 . S
H762 N750 0.984 . S
H763 N750 0.985 . S
C764 C765 1.363 . S
C764 C770 1.379 . S
C764 N772 1.356 . S
C765 C764 1.363 . S
C765 C771 1.363 . S
C766 C767 1.363 . S
C766 C771 1.379 . S
C766 N773 1.356 . S
C767 C766 1.363 . S
C767 C770 1.363 . S
N768 C770 1.356 . S
N768 H780 0.984 . S
N768 H781 0.985 . S
N769 C771 1.356 . S
N769 H774 0.984 . S
N769 H775 0.985 . S
C770 C764 1.379 . S
C770 C767 1.363 . S
C770 N768 1.356 . S
C771 C765 1.363 . S
C771 C766 1.379 . S
C771 N769 1.356 . S
N772 C764 1.356 . S
N772 H778 0.984 . S
N772 H779 0.984 . S
N773 C766 1.356 . S
N773 H776 0.984 . S
N773 H777 0.985 . S
H774 N769 0.984 . S
H775 N769 0.985 . S
H776 N773 0.984 . S
H777 N773 0.985 . S
H778 N772 0.984 . S
H779 N772 0.984 . S
H780 N768 0.984 . S
H781 N768 0.985 . S
C782 C783 1.363 . S
C782 C788 1.379 . S
C782 N790 1.356 . S
C783 C782 1.363 . S
C783 C789 1.363 . S
C784 C785 1.363 . S
C784 C789 1.379 . S
C784 N791 1.356 . S
C785 C784 1.363 . S
C785 C788 1.363 . S
N786 C788 1.356 . S
N786 H798 0.984 . S
N786 H799 0.985 . S
N787 C789 1.356 . S
N787 H792 0.984 . S
N787 H793 0.985 . S
C788 C782 1.379 . S
C788 C785 1.363 . S
C788 N786 1.356 . S
C789 C783 1.363 . S
C789 C784 1.379 . S
C789 N787 1.356 . S
N790 C782 1.356 . S
N790 H796 0.984 . S
N790 H797 0.984 . S
N791 C784 1.356 . S
N791 H794 0.984 . S
N791 H795 0.985 . S
H792 N787 0.984 . S
H793 N787 0.985 . S
H794 N791 0.984 . S
H795 N791 0.985 . S
H796 N790 0.984 . S
H797 N790 0.984 . S
H798 N786 0.984 . S
H799 N786 0.985 . S
C369 C1 1.570 . S
C371 C290 1.603 . S
C387 C67 1.350 . S
C389 C309 1.325 . S
C407 C346 1.747 . S
C405 C97 1.767 . S
C423 C133 1.768 . S
C425 C356 1.699 . S
C443 C326 2.029 . S
C441 C25 1.976 . S
C461 C296 1.385 . S
C459 C37 1.461 . S
C479 C367 1.529 . S
C477 C103 1.560 . S
C497 C337 1.464 . S
C495 C109 1.489 . S
C513 C31 1.739 . S
C515 C350 1.789 . S
C533 C317 1.694 . S
C531 C73 1.751 . S
C549 C139 1.770 . S
C551 C307 1.768 . S
C567 C61 1.249 . S
C569 C329 1.287 . S
C587 C289 1.606 . S
C585 C175 1.509 . S
C603 C181 1.332 . S
C605 C310 1.314 . S
C621 C247 1.798 . S
C623 C347 1.763 . S
C639 C277 1.758 . S
C641 C357 1.689 . S
C657 C145 1.901 . S
C659 C327 2.020 . S
C677 C297 1.392 . S
C675 C211 1.452 . S
C695 C366 1.517 . S
C693 C217 1.543 . S
C713 C336 1.479 . S
C711 C283 1.502 . S
C729 C169 1.665 . S
C731 C349 1.784 . S
C749 C316 1.697 . S
C747 C241 1.761 . S
C767 C306 1.757 . S
C765 C253 1.757 . S
C783 C205 1.276 . S
C785 C330 1.300 . S
