# Generated by pormake.
# Topology wbl, (4,4)-cn, num edge types: 1
# Building blocks:
#     Node 0, Type 0, BuildingBlock: NAWXER_clean_linker_0, # of connection points: 4
#     Node 1, Type 0, BuildingBlock: NAWXER_clean_linker_0, # of connection points: 4
#     Node 2, Type 0, BuildingBlock: NAWXER_clean_linker_0, # of connection points: 4
#     Node 3, Type 0, BuildingBlock: NAWXER_clean_linker_0, # of connection points: 4
#     Node 4, Type 0, BuildingBlock: NAWXER_clean_linker_0, # of connection points: 4
#     Node 5, Type 0, BuildingBlock: NAWXER_clean_linker_0, # of connection points: 4
#     Node 6, Type 0, BuildingBlock: NAWXER_clean_linker_0, # of connection points: 4
#     Node 7, Type 0, BuildingBlock: NAWXER_clean_linker_0, # of connection points: 4
#     Node 8, Type 1, BuildingBlock: QUQFOY_clean_sbu_3, # of connection points: 4
#     Node 9, Type 1, BuildingBlock: QUQFOY_clean_sbu_3, # of connection points: 4
#     Node 10, Type 1, BuildingBlock: QUQFOY_clean_sbu_3, # of connection points: 4
#     Node 11, Type 1, BuildingBlock: QUQFOY_clean_sbu_3, # of connection points: 4
#     Node 12, Type 1, BuildingBlock: QUQFOY_clean_sbu_3, # of connection points: 4
#     Node 13, Type 1, BuildingBlock: QUQFOY_clean_sbu_3, # of connection points: 4
#     Node 14, Type 1, BuildingBlock: QUQFOY_clean_sbu_3, # of connection points: 4
#     Node 15, Type 1, BuildingBlock: QUQFOY_clean_sbu_3, # of connection points: 4
#     Edge 16, Type (0, 1), BuildingBlock: MIFKUJ_clean_linker_0, # of connection points: 2
#     Edge 17, Type (0, 1), BuildingBlock: MIFKUJ_clean_linker_0, # of connection points: 2
#     Edge 18, Type (0, 1), BuildingBlock: MIFKUJ_clean_linker_0, # of connection points: 2
#     Edge 19, Type (0, 1), BuildingBlock: MIFKUJ_clean_linker_0, # of connection points: 2
#     Edge 20, Type (0, 1), BuildingBlock: MIFKUJ_clean_linker_0, # of connection points: 2
#     Edge 21, Type (0, 1), BuildingBlock: MIFKUJ_clean_linker_0, # of connection points: 2
#     Edge 22, Type (0, 1), BuildingBlock: MIFKUJ_clean_linker_0, # of connection points: 2
#     Edge 23, Type (0, 1), BuildingBlock: MIFKUJ_clean_linker_0, # of connection points: 2
#     Edge 24, Type (0, 1), BuildingBlock: MIFKUJ_clean_linker_0, # of connection points: 2
#     Edge 25, Type (0, 1), BuildingBlock: MIFKUJ_clean_linker_0, # of connection points: 2
#     Edge 26, Type (0, 1), BuildingBlock: MIFKUJ_clean_linker_0, # of connection points: 2
#     Edge 27, Type (0, 1), BuildingBlock: MIFKUJ_clean_linker_0, # of connection points: 2
#     Edge 28, Type (0, 1), BuildingBlock: MIFKUJ_clean_linker_0, # of connection points: 2
#     Edge 29, Type (0, 1), BuildingBlock: MIFKUJ_clean_linker_0, # of connection points: 2
#     Edge 30, Type (0, 1), BuildingBlock: MIFKUJ_clean_linker_0, # of connection points: 2
#     Edge 31, Type (0, 1), BuildingBlock: MIFKUJ_clean_linker_0, # of connection points: 2
#     Edge 32, Type (0, 1), BuildingBlock: MIFKUJ_clean_linker_0, # of connection points: 2
#     Edge 33, Type (0, 1), BuildingBlock: MIFKUJ_clean_linker_0, # of connection points: 2
#     Edge 34, Type (0, 1), BuildingBlock: MIFKUJ_clean_linker_0, # of connection points: 2
#     Edge 35, Type (0, 1), BuildingBlock: MIFKUJ_clean_linker_0, # of connection points: 2
#     Edge 36, Type (0, 1), BuildingBlock: MIFKUJ_clean_linker_0, # of connection points: 2
#     Edge 37, Type (0, 1), BuildingBlock: MIFKUJ_clean_linker_0, # of connection points: 2
#     Edge 38, Type (0, 1), BuildingBlock: MIFKUJ_clean_linker_0, # of connection points: 2
#     Edge 39, Type (0, 1), BuildingBlock: MIFKUJ_clean_linker_0, # of connection points: 2
#     Edge 40, Type (0, 1), BuildingBlock: MIFKUJ_clean_linker_0, # of connection points: 2
#     Edge 41, Type (0, 1), BuildingBlock: MIFKUJ_clean_linker_0, # of connection points: 2
#     Edge 42, Type (0, 1), BuildingBlock: MIFKUJ_clean_linker_0, # of connection points: 2
#     Edge 43, Type (0, 1), BuildingBlock: MIFKUJ_clean_linker_0, # of connection points: 2
#     Edge 44, Type (0, 1), BuildingBlock: MIFKUJ_clean_linker_0, # of connection points: 2
#     Edge 45, Type (0, 1), BuildingBlock: MIFKUJ_clean_linker_0, # of connection points: 2
#     Edge 46, Type (0, 1), BuildingBlock: MIFKUJ_clean_linker_0, # of connection points: 2
#     Edge 47, Type (0, 1), BuildingBlock: MIFKUJ_clean_linker_0, # of connection points: 2
# Relax obj value: 0.172
# Max RMSD: 0.174
# Mean RMSD: 0.144
data_MOF--net-wbl--node1-QUQFOY_clean_sbu_3--node2-NAWXER_clean_linker_0--edge1-MIFKUJ_clean_linker_0
_symmetry_space_group_name_H-M    P1
_symmetry_Int_Tables_number       1
_symmetry_cell_setting            triclinic
loop_
_symmetry_equiv_pos_as_xyz
'x, y, z'
_cell_length_a     56.878659
_cell_length_b     57.443038
_cell_length_c     98.410129
_cell_angle_alpha  90.772179
_cell_angle_beta   90.25142
_cell_angle_gamma 89.959974
loop_
_atom_site_label
_atom_site_type_symbol
_atom_site_fract_x
_atom_site_fract_y
_atom_site_fract_z
_atom_type_partial_charge
C0 C 0.08987 0.97088 0.35256 0.0
C1 C 0.10464 0.98284 0.3618 0.0
C2 C 0.07692 0.98306 0.34286 0.0
C3 C 0.07847 0.00741 0.34221 0.0
C4 C 0.10678 0.00717 0.36073 0.0
C5 C 0.09361 0.01933 0.35115 0.0
C6 C 0.0626 0.02069 0.33325 0.0
C7 C 0.11462 0.98564 0.30611 0.0
C8 C 0.10509 0.96838 0.29744 0.0
C9 C 0.09997 0.00105 0.31316 0.0
C10 C 0.07545 -0.00052 0.31176 0.0
C11 C 0.08053 0.96717 0.29582 0.0
C12 C 0.06586 0.98267 0.30287 0.0
C13 C 0.05991 0.01583 0.31922 0.0
C14 C -0.00734 0.09118 0.30182 0.0
C15 C 0.97542 0.07801 0.29496 0.0
C16 C 0.01041 0.08008 0.30917 0.0
C17 C 0.01126 0.05567 0.30966 0.0
C18 C 0.97673 0.05358 0.29514 0.0
C19 C -0.00534 0.0425 0.30233 0.0
C20 C 0.02895 0.04376 0.31811 0.0
C21 C 0.97718 0.07489 0.34795 0.0
C22 C 0.98689 0.09154 0.35694 0.0
C23 C -0.00831 0.06151 0.3395 0.0
C24 C 0.01618 0.06464 0.33981 0.0
C25 C 0.01136 0.09502 0.357 0.0
C26 C 0.02587 0.08155 0.34859 0.0
C27 C 0.03186 0.04879 0.33209 0.0
H28 H 0.08751 0.95222 0.35319 0.0
H29 H 0.06495 0.97354 0.33624 0.0
H30 H 0.11835 0.01693 0.36746 0.0
H31 H 0.09502 0.03813 0.35082 0.0
H32 H 0.13346 0.98748 0.30733 0.0
H33 H 0.10785 0.01438 0.3196 0.0
H34 H 0.07263 0.95401 0.28928 0.0
H35 H 0.04699 0.9813 0.30155 0.0
H36 H -0.00801 0.11003 0.30184 0.0
H37 H 0.02328 0.09054 0.31462 0.0
H38 H 0.96377 0.04306 0.2898 0.0
H39 H -0.00488 0.02365 0.30252 0.0
H40 H 0.95839 0.07187 0.34766 0.0
H41 H 0.98382 0.04816 0.33307 0.0
H42 H 0.01938 0.10748 0.36396 0.0
H43 H 0.04474 0.08403 0.34912 0.0
N44 N 0.0486 0.03709 0.33911 0.0
N45 N 0.04303 0.02742 0.31218 0.0
C46 C 0.93365 0.49324 0.59133 0.0
C47 C 0.94278 0.48294 0.60312 0.0
C48 C 0.94768 0.50779 0.58347 0.0
C49 C 0.97121 0.51208 0.58715 0.0
C50 C 0.96628 0.48746 0.60681 0.0
C51 C 0.98029 0.50187 0.59892 0.0
C52 C 0.98623 0.5282 0.57937 0.0
C53 C 0.9707 0.46861 0.55122 0.0
C54 C 0.95447 0.47445 0.54102 0.0
C55 C 0.98171 0.48598 0.55896 0.0
C56 C 0.97673 0.50951 0.55661 0.0
C57 C 0.94973 0.49804 0.53855 0.0
C58 C 0.96102 0.51548 0.5462 0.0
C59 C 0.98797 0.52776 0.56507 0.0
C60 C 0.07013 0.5917 0.5555 0.0
C61 C 0.06186 0.60425 0.54427 0.0
C62 C 0.05522 0.5767 0.56244 0.0
C63 C 0.03155 0.57437 0.55852 0.0
C64 C 0.03845 0.60096 0.53997 0.0
C65 C 0.02348 0.58615 0.54702 0.0
C66 C 0.01528 0.55928 0.56612 0.0
C67 C 0.03882 0.61522 0.59617 0.0
C68 C 0.04909 0.60654 0.60809 0.0
C69 C 0.02735 0.60014 0.58702 0.0
C70 C 0.02655 0.57609 0.58949 0.0
C71 C 0.04827 0.58253 0.61051 0.0
C72 C 0.03712 0.56749 0.60132 0.0
C73 C 0.01353 0.55971 0.58046 0.0
H74 H 0.91564 0.49011 0.58819 0.0
H75 H 0.93998 0.51601 0.57467 0.0
H76 H 0.97377 0.48031 0.61599 0.0
H77 H -0.00173 0.50512 0.60209 0.0
H78 H 0.97452 0.45056 0.55341 0.0
H79 H -0.00597 0.48105 0.56685 0.0
H80 H 0.93739 0.50297 0.53068 0.0
H81 H 0.95712 0.53358 0.5442 0.0
H82 H 0.08799 0.59385 0.55917 0.0
H83 H 0.06215 0.56714 0.57099 0.0
H84 H 0.03162 0.6099 0.53117 0.0
H85 H 0.00542 0.58424 0.54363 0.0
H86 H 0.03902 0.63372 0.59417 0.0
H87 H 0.01873 0.60734 0.57819 0.0
H88 H 0.05623 0.57538 0.61956 0.0
H89 H 0.03667 0.54905 0.6035 0.0
N90 N -0.00085 0.54409 0.58647 0.0
N91 N 0.00227 0.5434 0.55897 0.0
C92 C 0.5438 0.44147 0.84907 0.0
C93 C 0.55706 0.45281 0.85929 0.0
C94 C 0.53036 0.45438 0.8399 0.0
C95 C 0.53003 0.47881 0.84077 0.0
C96 C 0.55738 0.4773 0.85973 0.0
C97 C 0.54384 0.49013 0.85066 0.0
C98 C 0.51372 0.4927 0.83239 0.0
C99 C 0.56815 0.4665 0.80326 0.0
C100 C 0.55971 0.44997 0.7938 0.0
C101 C 0.55257 0.47931 0.81132 0.0
C102 C 0.52823 0.47585 0.81005 0.0
C103 C 0.53535 0.44638 0.79259 0.0
C104 C 0.5197 0.45945 0.80055 0.0
C105 C 0.5118 0.49028 0.81813 0.0
C106 C 0.45261 0.5731 0.80443 0.0
C107 C 0.43397 0.56367 0.7967 0.0
C108 C 0.46849 0.55854 0.81103 0.0
C109 C 0.46612 0.53427 0.81 0.0
C110 C 0.43226 0.5393 0.79525 0.0
C111 C 0.44833 0.52472 0.80177 0.0
C112 C 0.48161 0.51904 0.81801 0.0
C113 C 0.42925 0.54929 0.84761 0.0
C114 C 0.43926 0.56509 0.857 0.0
C115 C 0.44358 0.53537 0.83935 0.0
C116 C 0.46817 0.53696 0.84037 0.0
C117 C 0.46387 0.56688 0.85786 0.0
C118 C 0.47819 0.55277 0.84971 0.0
C119 C 0.48348 0.52136 0.83226 0.0
H120 H 0.54299 0.42265 0.84854 0.0
H121 H 0.51948 0.44525 0.83251 0.0
H122 H 0.5678 0.48661 0.86726 0.0
H123 H 0.54388 0.50896 0.85149 0.0
H124 H 0.58685 0.46949 0.80446 0.0
H125 H 0.55953 0.4922 0.81839 0.0
H126 H 0.52842 0.43383 0.78529 0.0
H127 H 0.50096 0.45672 0.79934 0.0
H128 H 0.45482 0.59175 0.80551 0.0
H129 H 0.48242 0.56622 0.81714 0.0
H130 H 0.41801 0.53142 0.78949 0.0
H131 H 0.4463 0.50602 0.80084 0.0
H132 H 0.41033 0.54758 0.84675 0.0
H133 H 0.43546 0.52298 0.83239 0.0
H134 H 0.47204 0.57869 0.86514 0.0
H135 H 0.49712 0.55413 0.85071 0.0
N136 N 0.49953 0.5082 0.8389 0.0
N137 N 0.49574 0.5035 0.81143 0.0
C138 C 0.49559 0.92077 0.04978 0.0
C139 C 0.47631 0.92938 0.04242 0.0
C140 C 0.51067 0.936 0.05669 0.0
C141 C 0.50682 0.9601 0.05631 0.0
C142 C 0.4726 0.95354 0.04192 0.0
C143 C 0.48794 0.96883 0.0487 0.0
C144 C 0.52235 0.97606 0.06401 0.0
C145 C 0.47586 0.94475 0.09645 0.0
C146 C 0.48809 0.93004 0.10538 0.0
C147 C 0.48805 0.95831 0.08712 0.0
C148 C 0.51269 0.95749 0.08657 0.0
C149 C 0.51274 0.92856 0.10432 0.0
C150 C 0.5249 0.94238 0.09514 0.0
C151 C 0.52591 0.97395 0.07811 0.0
C152 C 0.57696 0.06057 0.09431 0.0
C153 C 0.59101 0.05135 0.10472 0.0
C154 C 0.56522 0.04572 0.08517 0.0
C155 C 0.56773 0.02145 0.08614 0.0
C156 C 0.59392 0.02712 0.10546 0.0
C157 C 0.58235 0.01233 0.09628 0.0
C158 C 0.55327 0.00533 0.07776 0.0
C159 C 0.59929 0.04455 0.04953 0.0
C160 C 0.58741 0.05727 0.03948 0.0
C161 C 0.58746 0.02782 0.05709 0.0
C162 C 0.56328 0.02396 0.0551 0.0
C163 C 0.56352 0.05232 0.03698 0.0
C164 C 0.55161 0.03591 0.04472 0.0
C165 C 0.55011 0.00721 0.06353 0.0
H166 H 0.49872 0.90221 0.05041 0.0
H167 H 0.52531 0.92895 0.0624 0.0
H168 H 0.45791 0.96057 0.03625 0.0
H169 H 0.48478 0.9874 0.04827 0.0
H170 H 0.45695 0.94663 0.09706 0.0
H171 H 0.47831 0.97018 0.08075 0.0
H172 H 0.52274 0.91705 0.11077 0.0
H173 H 0.54393 0.9415 0.09486 0.0
H174 H 0.57419 0.07917 0.09363 0.0
H175 H 0.5535 0.05319 0.0777 0.0
H176 H 0.60482 0.01956 0.11331 0.0
H177 H 0.58444 -0.00632 0.09729 0.0
H178 H 0.61762 0.04783 0.05184 0.0
H179 H 0.59723 0.01813 0.06459 0.0
H180 H 0.5539 0.0612 0.02907 0.0
H181 H 0.5331 0.03289 0.04275 0.0
N182 N 0.53454 -0.00741 0.05722 0.0
N183 N 0.54121 0.98862 0.08442 0.0
C184 C 0.04473 0.6006 0.90735 0.0
C185 C 0.05541 0.59084 0.89572 0.0
C186 C 0.02988 0.58718 0.91542 0.0
C187 C 0.02573 0.56364 0.91213 0.0
C188 C 0.05119 0.56727 0.89251 0.0
C189 C 0.03658 0.55388 0.90062 0.0
C190 C 0.00869 0.54938 0.91977 0.0
C191 C 0.06521 0.56798 0.94976 0.0
C192 C 0.05767 0.58386 0.95981 0.0
C193 C 0.04892 0.55651 0.94141 0.0
C194 C 0.02478 0.56071 0.94297 0.0
C195 C 0.03346 0.58788 0.96146 0.0
C196 C 0.01711 0.57617 0.95319 0.0
C197 C 0.00758 0.54867 0.93408 0.0
C198 C 0.94179 0.46778 0.94289 0.0
C199 C 0.92885 0.47633 0.95405 0.0
C200 C 0.95742 0.4822 0.93605 0.0
C201 C 0.95995 0.5057 0.93994 0.0
C202 C 0.93234 0.49957 0.95832 0.0
C203 C 0.9477 0.51407 0.95133 0.0
C204 C 0.97589 0.52144 0.93253 0.0
C205 C 0.922 0.49776 0.90107 0.0
C206 C 0.93173 0.48711 0.88945 0.0
C207 C 0.93653 0.50902 0.91062 0.0
C208 C 0.96105 0.50927 0.90884 0.0
C209 C 0.95622 0.4873 0.88775 0.0
C210 C 0.9707 0.49826 0.89733 0.0
C211 C 0.97688 0.52236 0.91818 0.0
H212 H 0.04763 0.61867 0.91015 0.0
H213 H 0.02118 0.59542 0.92398 0.0
H214 H 0.05857 0.55924 0.88347 0.0
H215 H 0.03346 0.53586 0.89775 0.0
H216 H 0.08377 0.56468 0.9482 0.0
H217 H 0.05517 0.54436 0.93372 0.0
H218 H 0.02719 0.5999 0.9692 0.0
H219 H -0.00148 0.57946 0.95461 0.0
H220 H 0.93956 0.45005 0.93924 0.0
H221 H 0.96738 0.47498 0.92764 0.0
H222 H 0.92321 0.50662 0.96709 0.0
H223 H 0.94976 0.53198 0.95473 0.0
H224 H 0.90313 0.49806 0.90252 0.0
H225 H 0.92855 0.51797 0.91919 0.0
H226 H 0.96419 0.47904 0.87894 0.0
H227 H 0.98952 0.4983 0.89568 0.0
N228 N -0.00668 0.53618 0.91244 0.0
N229 N -0.00884 0.53483 0.93992 0.0
C230 C 0.44534 0.54743 0.15418 0.0
C231 C 0.45782 0.56107 0.14487 0.0
C232 C 0.45737 0.5334 0.16344 0.0
C233 C 0.48205 0.53277 0.16353 0.0
C234 C 0.48254 0.56107 0.14544 0.0
C235 C 0.4945 0.54688 0.15456 0.0
C236 C 0.49508 0.51608 0.17203 0.0
C237 C 0.4687 0.57044 0.20107 0.0
C238 C 0.4499 0.56264 0.20901 0.0
C239 C 0.48216 0.55465 0.19356 0.0
C240 C 0.47715 0.53077 0.19392 0.0
C241 C 0.44477 0.53874 0.20931 0.0
C242 C 0.45854 0.52284 0.20194 0.0
C243 C 0.49188 0.51421 0.18618 0.0
C244 C 0.57512 0.45812 0.2025 0.0
C245 C 0.56598 0.43846 0.20904 0.0
C246 C 0.56029 0.47326 0.19555 0.0
C247 C 0.53599 0.46933 0.19519 0.0
C248 C 0.54141 0.43514 0.20905 0.0
C249 C 0.52654 0.45063 0.20232 0.0
C250 C 0.52072 0.48417 0.18682 0.0
C251 C 0.55354 0.43208 0.15778 0.0
C252 C 0.56632 0.4418 0.14709 0.0
C253 C 0.54011 0.44632 0.16638 0.0
C254 C 0.53972 0.47059 0.16464 0.0
C255 C 0.5663 0.46607 0.14552 0.0
C256 C 0.55313 0.4803 0.15421 0.0
C257 C 0.52366 0.48577 0.17263 0.0
H258 H 0.42632 0.5468 0.15394 0.0
H259 H 0.44739 0.52234 0.17012 0.0
H260 H 0.49274 0.57174 0.13866 0.0
H261 H 0.51355 0.54671 0.1545 0.0
H262 H 0.47287 0.58881 0.2006 0.0
H263 H 0.49665 0.56106 0.18756 0.0
H264 H 0.43039 0.53237 0.21541 0.0
H265 H 0.45455 0.50443 0.20237 0.0
H266 H 0.5938 0.46171 0.20258 0.0
H267 H 0.56783 0.48787 0.19025 0.0
H268 H 0.53366 0.4201 0.21379 0.0
H269 H 0.50777 0.44739 0.20214 0.0
H270 H 0.55296 0.41338 0.15905 0.0
H271 H 0.52925 0.4382 0.17397 0.0
H272 H 0.57612 0.47399 0.13739 0.0
H273 H 0.55304 0.49893 0.1526 0.0
N274 N 0.51082 0.50179 0.16581 0.0
N275 N 0.50485 0.49834 0.19311 0.0
C276 C 0.47953 0.95057 0.40396 0.0
C277 C 0.46505 0.96218 0.39461 0.0
C278 C 0.49485 0.96313 0.41245 0.0
C279 C 0.49582 0.98754 0.41181 0.0
C280 C 0.46564 0.98665 0.3943 0.0
C281 C 0.48099 -0.00084 0.40273 0.0
C282 C 0.51346 0.00102 0.41972 0.0
C283 C 0.46291 0.97425 0.45041 0.0
C284 C 0.4722 0.95585 0.458 0.0
C285 C 0.47758 0.98795 0.44251 0.0
C286 C 0.50183 0.98358 0.44214 0.0
C287 C 0.49649 0.95143 0.45762 0.0
C288 C 0.51127 0.96543 0.44986 0.0
C289 C 0.51721 -0.00177 0.4338 0.0
C290 C 0.57832 0.08022 0.44737 0.0
C291 C 0.5969 0.07036 0.45483 0.0
C292 C 0.56208 0.06604 0.44056 0.0
C293 C 0.56399 0.04172 0.44111 0.0
C294 C 0.5983 0.04593 0.45567 0.0
C295 C 0.58185 0.03175 0.44897 0.0
C296 C 0.54753 0.02679 0.43332 0.0
C297 C 0.59679 0.05668 0.40236 0.0
C298 C 0.58595 0.07137 0.39289 0.0
C299 C 0.58322 0.04343 0.41118 0.0
C300 C 0.55857 0.04469 0.41073 0.0
C301 C 0.56128 0.07287 0.3926 0.0
C302 C 0.54773 0.05952 0.40138 0.0
C303 C 0.54398 0.02935 0.41921 0.0
H304 H 0.47974 0.93173 0.40432 0.0
H305 H 0.50654 0.95371 0.41913 0.0
H306 H 0.45445 -0.00385 0.38737 0.0
H307 H 0.48145 0.01797 0.40207 0.0
H308 H 0.44421 0.97788 0.45047 0.0
H309 H 0.47002 0.00205 0.43674 0.0
H310 H 0.50402 0.93738 0.46344 0.0
H311 H 0.52998 0.96192 0.44972 0.0
H312 H 0.57632 0.09892 0.44675 0.0
H313 H 0.54808 0.07407 0.43477 0.0
H314 H 0.6125 0.03769 0.46118 0.0
H315 H 0.58353 0.013 0.44955 0.0
H316 H 0.61576 0.05521 0.40283 0.0
H317 H 0.59201 0.03169 0.41807 0.0
H318 H 0.55242 0.08374 0.38527 0.0
H319 H 0.52873 0.06058 0.40076 0.0
N320 N 0.52697 0.01649 0.41298 0.0
N321 N 0.53413 0.0112 0.44011 0.0
C322 C 0.10088 0.98726 0.66369 0.0
C323 C 0.09175 0.97581 0.65208 0.0
C324 C 0.08689 0.00269 0.67124 0.0
C325 C 0.06338 0.0067 0.66746 0.0
C326 C 0.06825 0.98001 0.64832 0.0
C327 C 0.05427 -0.00474 0.65591 0.0
C328 C 0.04843 0.02376 0.67484 0.0
C329 C 0.06505 0.96781 0.70452 0.0
C330 C 0.08139 0.97528 0.7144 0.0
C331 C 0.05349 0.98394 0.69639 0.0
C332 C 0.05801 0.00781 0.69804 0.0
C333 C 0.08563 -0.00077 0.71618 0.0
C334 C 0.07379 0.01541 0.70815 0.0
C335 C 0.0464 0.02476 0.68912 0.0
C336 C 0.96374 0.0898 0.69643 0.0
C337 C 0.97112 0.10238 0.70805 0.0
C338 C 0.97898 0.07429 0.68988 0.0
C339 C 0.00222 0.07159 0.6945 0.0
C340 C -0.00602 0.09855 0.71311 0.0
C341 C 0.00935 0.08338 0.70639 0.0
C342 C 0.01897 0.05605 0.6873 0.0
C343 C -0.00237 0.11037 0.65675 0.0
C344 C 0.98757 0.10121 0.64476 0.0
C345 C 0.00867 0.09563 0.66603 0.0
C346 C 0.00922 0.07144 0.66363 0.0
C347 C 0.98834 0.07708 0.64234 0.0
C348 C -0.00094 0.06237 0.65167 0.0
C349 C 0.02142 0.05539 0.67299 0.0
H350 H 0.11889 0.98443 0.66688 0.0
H351 H 0.09463 0.01183 0.67985 0.0
H352 H 0.06076 0.972 0.63927 0.0
H353 H 0.0363 -0.00172 0.65268 0.0
H354 H 0.0616 0.94944 0.70287 0.0
H355 H 0.04116 0.97778 0.68873 0.0
H356 H 0.09803 0.0054 0.72379 0.0
H357 H 0.07735 0.03381 0.7096 0.0
H358 H 0.94637 0.09228 0.69215 0.0
H359 H 0.97264 0.06464 0.68107 0.0
H360 H 0.00011 0.10737 0.72225 0.0
H361 H 0.027 0.08115 0.71036 0.0
H362 H -0.00249 0.12896 0.65875 0.0
H363 H 0.01703 0.10318 0.67496 0.0
H364 H 0.98056 0.06955 0.63323 0.0
H365 H -0.00062 0.04382 0.64953 0.0
N366 N 0.03586 0.03911 0.66737 0.0
N367 N 0.03182 0.04087 0.69482 0.0
C368 C 0.36279 0.65523 0.02348 0.0
O369 O 0.37825 0.65403 0.01424 0.0
Cd370 Cd 0.37349 0.66867 0.99189 0.0
O371 O 0.3425 0.66367 0.02095 0.0
Cd372 Cd 0.32168 0.67932 0.0005 0.0
C373 C 0.35829 0.72517 0.00021 0.0
O374 O 0.33753 0.65312 0.9832 0.0
O375 O 0.32222 0.68471 0.97564 0.0
O376 O 0.28743 0.65621 0.00611 0.0
C377 C 0.33068 0.66472 0.97308 0.0
O378 O 0.37293 0.71099 0.99487 0.0
C379 C 0.27262 0.67264 0.00517 0.0
O380 O 0.33824 0.71814 0.00414 0.0
O381 O 0.28073 0.6927 0.0026 0.0
C382 C 0.39274 0.84501 0.22861 0.0
O383 O 0.40892 0.84227 0.23737 0.0
Cd384 Cd 0.40294 0.83099 0.26031 0.0
O385 O 0.37122 0.84229 0.23187 0.0
Cd386 Cd 0.34939 0.83259 0.25314 0.0
C387 C 0.3742 0.77929 0.25468 0.0
O388 O 0.37282 0.85605 0.26886 0.0
O389 O 0.3497 0.83146 0.2783 0.0
O390 O 0.31983 0.86187 0.24796 0.0
C391 C 0.36353 0.84864 0.27963 0.0
O392 O 0.39237 0.78985 0.25918 0.0
C393 C 0.30226 0.84845 0.24911 0.0
O394 O 0.35618 0.79069 0.2509 0.0
O395 O 0.30662 0.82722 0.25155 0.0
C396 C 0.19393 0.89147 0.48561 0.0
O397 O 0.19709 0.90792 0.49417 0.0
Cd398 Cd 0.21059 0.90352 0.51689 0.0
O399 O 0.19729 0.87034 0.48899 0.0
Cd400 Cd 0.20871 0.8493 0.51024 0.0
C401 C 0.26235 0.87447 0.51018 0.0
O402 O 0.18639 0.87369 0.52578 0.0
O403 O 0.21115 0.85083 0.53543 0.0
O404 O 0.17868 0.82058 0.50463 0.0
C405 C 0.19442 0.86529 0.53667 0.0
O406 O 0.25185 0.89259 0.51465 0.0
C407 C 0.19154 0.80287 0.50658 0.0
O408 O 0.25078 0.85622 0.50696 0.0
O409 O 0.2129 0.80669 0.50972 0.0
C410 C 0.15881 0.6749 0.77591 0.0
O411 O 0.1602 0.65758 0.76779 0.0
Cd412 Cd 0.17194 0.65996 0.74449 0.0
O413 O 0.16428 0.69526 0.77202 0.0
Cd414 Cd 0.17979 0.71286 0.7509 0.0
C415 C 0.22796 0.678 0.75036 0.0
O416 O 0.1527 0.69334 0.7353 0.0
O417 O 0.18078 0.71227 0.72582 0.0
O418 O 0.15667 0.747 0.75695 0.0
C419 C 0.16166 0.70113 0.72451 0.0
O420 O 0.21462 0.66239 0.74524 0.0
C421 C 0.17299 0.76166 0.75512 0.0
O422 O 0.21959 0.6975 0.75433 0.0
O423 O 0.19296 0.75356 0.75176 0.0
C424 C 0.87556 0.16955 0.47775 0.0
O425 O 0.87393 0.15238 0.48569 0.0
Cd426 Cd 0.86245 0.15507 0.50903 0.0
O427 O 0.87057 0.19008 0.48191 0.0
Cd428 Cd 0.85605 0.20836 0.50341 0.0
C429 C 0.80683 0.17498 0.50387 0.0
O430 O 0.883 0.18793 0.51837 0.0
O431 O 0.85601 0.20784 0.52851 0.0
O432 O 0.87967 0.24215 0.49775 0.0
C433 C 0.87475 0.19601 0.52939 0.0
O434 O 0.81984 0.15884 0.50847 0.0
C435 C 0.86366 0.25708 0.50003 0.0
O436 O 0.81568 0.19429 0.50028 0.0
O437 O 0.84366 0.24928 0.50342 0.0
C438 C 0.85711 0.37629 0.72009 0.0
O439 O 0.87489 0.37644 0.72794 0.0
Cd440 Cd 0.87444 0.36675 0.75148 0.0
O441 O 0.83693 0.37037 0.72446 0.0
Cd442 Cd 0.82049 0.35647 0.74642 0.0
C443 C 0.8573 0.31001 0.74769 0.0
O444 O 0.84042 0.38495 0.76102 0.0
O445 O 0.82229 0.35759 0.77145 0.0
O446 O 0.7849 0.37807 0.74117 0.0
C447 C 0.83344 0.37666 0.77216 0.0
O448 O 0.87298 0.32453 0.75147 0.0
C449 C 0.77076 0.36155 0.74353 0.0
O450 O 0.83682 0.31694 0.74434 0.0
O451 O 0.77981 0.34214 0.74671 0.0
C452 C 0.6555 0.36201 0.98015 0.0
O453 O 0.6542 0.37798 0.98916 0.0
Cd454 Cd 0.66937 0.37574 0.01162 0.0
O455 O 0.66453 0.34228 0.98296 0.0
Cd456 Cd 0.68127 0.32307 0.00367 0.0
C457 C 0.72658 0.36114 0.00364 0.0
O458 O 0.65435 0.34018 0.01996 0.0
O459 O 0.68404 0.32291 0.02891 0.0
O460 O 0.65834 0.28895 -0.00259 0.0
C461 C 0.66453 0.33322 0.0306 0.0
O462 O 0.71177 0.37578 0.00833 0.0
C463 C 0.67485 0.27431 -0.00115 0.0
O464 O 0.72025 0.34049 0.00047 0.0
O465 O 0.69498 0.28244 0.00194 0.0
C466 C 0.69278 0.15007 0.27198 0.0
O467 O 0.69699 0.13244 0.26444 0.0
Cd468 Cd 0.70684 0.13395 0.24081 0.0
O469 O 0.69448 0.1706 0.26731 0.0
Cd470 Cd 0.70624 0.18815 0.24537 0.0
C471 C 0.75934 0.16146 0.24439 0.0
O472 O 0.68164 0.16271 0.23132 0.0
O473 O 0.70523 0.18482 0.22033 0.0
O474 O 0.67921 0.21953 0.25153 0.0
C475 C 0.68835 0.17044 0.22 0.0
O476 O 0.74839 0.14368 0.23983 0.0
C477 C 0.69245 0.23587 0.24759 0.0
O478 O 0.74823 0.17946 0.2485 0.0
O479 O 0.7126 0.23008 0.24317 0.0
H480 H 0.10152 0.95222 0.27111 0.0
H481 H 0.12859 0.92605 0.25906 0.0
H482 H 0.17188 0.92202 0.29507 0.0
H483 H 0.14448 0.94714 0.30729 0.0
H484 H 0.17247 0.9316 0.25243 0.0
H485 H 0.19888 0.87163 0.29767 0.0
H486 H 0.17976 0.85328 0.31725 0.0
H487 H 0.11285 0.85723 0.29704 0.0
H488 H 0.1316 0.87528 0.27725 0.0
H489 H 0.28872 0.89389 0.24956 0.0
H490 H 0.2494 0.90923 0.25329 0.0
H491 H 0.22126 0.83944 0.25214 0.0
H492 H 0.26098 0.82387 0.24899 0.0
H493 H 0.20497 0.85989 0.27286 0.0
H494 H 0.20776 0.8813 0.22693 0.0
H495 H 0.22406 0.89723 0.20583 0.0
H496 H 0.22721 0.96532 0.22428 0.0
H497 H 0.21125 0.94976 0.24557 0.0
C498 C 0.11657 0.94538 0.27652 0.0
C499 C 0.12087 0.95182 0.29016 0.0
C500 C 0.13211 0.93057 0.26959 0.0
C501 C 0.15214 0.92185 0.27619 0.0
C502 C 0.15633 0.92815 0.28982 0.0
C503 C 0.1408 0.9428 0.29675 0.0
C504 C 0.16951 0.9072 0.26876 0.0
C505 C 0.17945 0.91578 0.2568 0.0
C506 C 0.17801 0.88608 0.27417 0.0
C507 C 0.16666 0.87494 0.28599 0.0
C508 C 0.18012 0.86845 0.29735 0.0
C509 C 0.16933 0.85813 0.3085 0.0
C510 C 0.14511 0.85414 0.3084 0.0
C511 C 0.13161 0.8604 0.29713 0.0
C512 C 0.1423 0.8707 0.28595 0.0
C513 C 0.27413 0.8818 0.24983 0.0
C514 C 0.27797 0.85766 0.24905 0.0
C515 C 0.25154 0.89062 0.25186 0.0
C516 C 0.2322 0.87555 0.25286 0.0
C517 C 0.23587 0.85144 0.25142 0.0
C518 C 0.25857 0.84256 0.24957 0.0
C519 C 0.20884 0.88495 0.2569 0.0
C520 C 0.19773 0.8754 0.26826 0.0
C521 C 0.19884 0.90476 0.25068 0.0
C522 C 0.20837 0.91431 0.23788 0.0
C523 C 0.21205 0.89965 0.22652 0.0
C524 C 0.22122 0.90862 0.21452 0.0
C525 C 0.22668 0.93227 0.21372 0.0
C526 C 0.22295 0.94701 0.22491 0.0
C527 C 0.2138 0.93812 0.23694 0.0
H528 H 0.23379 0.93918 0.20442 0.0
H529 H 0.13679 0.84616 0.31704 0.0
H530 H 0.10918 0.60064 0.53893 0.0
H531 H 0.13489 0.63032 0.52938 0.0
H532 H 0.07535 0.6759 0.52423 0.0
H533 H 0.04966 0.64678 0.53416 0.0
H534 H 0.1062 0.67505 0.50176 0.0
H535 H 0.10868 0.68324 0.55097 0.0
H536 H 0.11543 0.6689 0.57418 0.0
H537 H 0.18704 0.65267 0.56413 0.0
H538 H 0.18058 0.6666 0.54079 0.0
H539 H 0.14595 0.79056 0.50191 0.0
H540 H 0.12813 0.75245 0.50479 0.0
H541 H 0.19624 0.72314 0.51377 0.0
H542 H 0.2142 0.76158 0.51123 0.0
H543 H 0.16609 0.71089 0.53228 0.0
H544 H 0.16572 0.70833 0.48413 0.0
H545 H 0.15931 0.72233 0.46083 0.0
H546 H 0.0851 0.72715 0.4682 0.0
H547 H 0.09109 0.7135 0.49161 0.0
C548 C 0.10153 0.617 0.53582 0.0
C549 C 0.07732 0.62134 0.53741 0.0
C550 C 0.11624 0.63385 0.53027 0.0
C551 C 0.107 0.6553 0.52616 0.0
C552 C 0.08277 0.65937 0.52727 0.0
C553 C 0.0681 0.64264 0.53291 0.0
C554 C 0.12261 0.67414 0.52148 0.0
C555 C 0.11928 0.68299 0.5084 0.0
C556 C 0.14015 0.6839 0.53004 0.0
C557 C 0.14407 0.67569 0.54409 0.0
C558 C 0.1258 0.67642 0.55368 0.0
C559 C 0.12958 0.66841 0.56686 0.0
C560 C 0.15163 0.65981 0.57061 0.0
C561 C 0.16996 0.65928 0.5612 0.0
C562 C 0.16625 0.66724 0.548 0.0
C563 C 0.15724 0.77596 0.50427 0.0
C564 C 0.18149 0.77912 0.5064 0.0
C565 C 0.14703 0.75409 0.50583 0.0
C566 C 0.16085 0.73482 0.50937 0.0
C567 C 0.18523 0.73774 0.51101 0.0
C568 C 0.19547 0.7597 0.50952 0.0
C569 C 0.14942 0.71232 0.51258 0.0
C570 C 0.15345 0.70275 0.52544 0.0
C571 C 0.13263 0.70182 0.50377 0.0
C572 C 0.12889 0.71001 0.48967 0.0
C573 C 0.14805 0.71253 0.48082 0.0
C574 C 0.14449 0.72038 0.46758 0.0
C575 C 0.12182 0.72566 0.46304 0.0
C576 C 0.10265 0.72305 0.47173 0.0
C577 C 0.10612 0.71522 0.48498 0.0
H578 H 0.1191 0.73173 0.45279 0.0
H579 H 0.15453 0.65361 0.58082 0.0
H580 H 0.41501 0.60315 0.80804 0.0
H581 H 0.38391 0.62764 0.7989 0.0
H582 H 0.37945 0.58328 0.76326 0.0
H583 H 0.41154 0.55932 0.77201 0.0
H584 H 0.37457 0.62765 0.75636 0.0
H585 H 0.34118 0.57764 0.78973 0.0
H586 H 0.33713 0.55953 0.81216 0.0
H587 H 0.32492 0.62668 0.83051 0.0
H588 H 0.32929 0.64524 0.80821 0.0
H589 H 0.25415 0.64413 0.738 0.0
H590 H 0.29326 0.63065 0.74462 0.0
H591 H 0.29706 0.68474 0.77537 0.0
H592 H 0.25796 0.69855 0.76869 0.0
H593 H 0.30386 0.63918 0.78504 0.0
H594 H 0.33329 0.68808 0.75006 0.0
H595 H 0.33552 0.70407 0.72698 0.0
H596 H 0.35288 0.63639 0.7109 0.0
H597 H 0.35041 0.6199 0.73386 0.0
C598 C 0.40782 0.59883 0.79812 0.0
C599 C 0.41576 0.57917 0.79078 0.0
C600 C 0.38983 0.61274 0.79298 0.0
C601 C 0.37909 0.60707 0.78051 0.0
C602 C 0.38743 0.58791 0.77294 0.0
C603 C 0.40559 0.57408 0.77803 0.0
C604 C 0.35849 0.6205 0.77565 0.0
C605 C 0.35903 0.63003 0.76258 0.0
C606 C 0.33838 0.62396 0.78387 0.0
C607 C 0.33585 0.61286 0.79732 0.0
C608 C 0.33786 0.58857 0.79857 0.0
C609 C 0.33547 0.57822 0.81126 0.0
C610 C 0.33085 0.59194 0.82277 0.0
C611 C 0.32857 0.61606 0.8216 0.0
C612 C 0.331 0.62651 0.80894 0.0
C613 C 0.2635 0.65346 0.74599 0.0
C614 C 0.25293 0.67231 0.75289 0.0
C615 C 0.28588 0.6458 0.74971 0.0
C616 C 0.298 0.65673 0.76047 0.0
C617 C 0.28795 0.67614 0.76701 0.0
C618 C 0.26568 0.68404 0.76316 0.0
C619 C 0.31991 0.64624 0.76576 0.0
C620 C 0.31955 0.63712 0.77889 0.0
C621 C 0.33996 0.64286 0.75752 0.0
C622 C 0.34147 0.65271 0.74368 0.0
C623 C 0.33737 0.67655 0.74159 0.0
C624 C 0.33873 0.68572 0.72853 0.0
C625 C 0.34428 0.67125 0.71748 0.0
C626 C 0.34855 0.64758 0.71947 0.0
C627 C 0.34721 0.63832 0.73251 0.0
H628 H 0.34533 0.67838 0.70737 0.0
H629 H 0.32895 0.58386 0.83257 0.0
H630 H 0.42841 0.9285 0.04404 0.0
H631 H 0.40184 0.89861 0.03467 0.0
H632 H 0.4609 0.86339 0.01625 0.0
H633 H 0.48745 0.89312 0.02559 0.0
H634 H 0.42048 0.86501 -0.00066 0.0
H635 H 0.44283 0.84583 0.04571 0.0
H636 H 0.44586 0.85408 0.07031 0.0
H637 H 0.37085 0.86152 0.07264 0.0
H638 H 0.36743 0.85365 0.04799 0.0
H639 H 0.39929 0.74579 0.99263 0.0
H640 H 0.41241 0.78525 -0.00231 0.0
H641 H 0.34664 0.80008 0.0177 0.0
H642 H 0.3334 0.76022 0.01286 0.0
H643 H 0.38272 0.81376 0.03307 0.0
H644 H 0.35967 0.82568 0.98742 0.0
H645 H 0.35646 0.81761 0.96282 0.0
H646 H 0.43126 0.82446 0.95877 0.0
H647 H 0.43499 0.83223 0.98339 0.0
C648 C 0.4356 0.91459 0.03778 0.0
C649 C 0.45995 0.91296 0.03559 0.0
C650 C 0.42046 0.89754 0.03249 0.0
C651 C 0.42947 0.87877 0.02485 0.0
C652 C 0.45363 0.87777 0.02211 0.0
C653 C 0.46877 0.89463 0.02751 0.0
C654 C 0.41424 0.85913 0.02056 0.0
C655 C 0.41219 0.85375 0.00667 0.0
C656 C 0.40286 0.84496 0.03016 0.0
C657 C 0.4049 0.84945 0.04499 0.0
C658 C 0.427 0.84942 0.05145 0.0
C659 C 0.42879 0.85399 0.06541 0.0
C660 C 0.40856 0.8584 0.07303 0.0
C661 C 0.3865 0.85816 0.06672 0.0
C662 C 0.38463 0.85364 0.05276 0.0
C663 C 0.38744 0.75745 -0.00201 0.0
C664 C 0.3653 0.74978 0.00238 0.0
C665 C 0.39493 0.78011 0.00079 0.0
C666 C 0.38039 0.79574 0.00792 0.0
C667 C 0.35809 0.78833 0.01213 0.0
C668 C 0.35056 0.76556 0.00933 0.0
C669 C 0.38943 0.81914 0.01179 0.0
C670 C 0.39041 0.82525 0.02564 0.0
C671 C 0.39972 0.83404 0.00213 0.0
C672 C 0.39761 0.82942 0.98729 0.0
C673 C 0.37547 0.8253 0.98131 0.0
C674 C 0.37355 0.82081 0.96735 0.0
C675 C 0.39364 0.82049 0.95924 0.0
C676 C 0.4157 0.82471 0.96506 0.0
C677 C 0.41772 0.8292 0.97902 0.0
H678 H 0.39212 0.81701 0.94843 0.0
H679 H 0.40998 0.86195 0.08383 0.0
H680 H 0.09539 0.56544 0.973 0.0
H681 H 0.12645 0.58635 0.98529 0.0
H682 H 0.09078 0.65139 0.97817 0.0
H683 H 0.05962 0.63046 0.96574 0.0
H684 H 0.13713 0.65224 0.97064 0.0
H685 H 0.09381 0.63197 0.00987 0.0
H686 H 0.07179 0.60632 0.02514 0.0
H687 H 0.13324 0.56399 0.03066 0.0
H688 H 0.15557 0.58917 0.01526 0.0
H689 H 0.23633 0.70373 0.00241 0.0
H690 H 0.19455 0.69453 -0.00053 0.0
H691 H 0.20966 0.62174 0.00541 0.0
H692 H 0.25112 0.63083 0.00871 0.0
H693 H 0.16834 0.63225 0.01618 0.0
H694 H 0.20784 0.64627 0.97331 0.0
H695 H 0.23033 0.66987 0.95713 0.0
H696 H 0.17617 0.722 0.95781 0.0
H697 H 0.1535 0.6988 0.97414 0.0
C698 C 0.09407 0.58417 0.97417 0.0
C699 C 0.07518 0.59636 0.96837 0.0
C700 C 0.11169 0.59608 0.98129 0.0
C701 C 0.1108 0.62041 0.98275 0.0
C702 C 0.09169 0.6326 0.97724 0.0
C703 C 0.0739 0.62064 0.9702 0.0
C704 C 0.13099 0.63301 0.98893 0.0
C705 C 0.14362 0.64837 0.98075 0.0
C706 C 0.13965 0.62761 0.00201 0.0
C707 C 0.12634 0.61243 0.01134 0.0
C708 C 0.1026 0.6171 0.01426 0.0
C709 C 0.09006 0.60265 0.02295 0.0
C710 C 0.1011 0.58352 0.02885 0.0
C711 C 0.12472 0.57882 0.02609 0.0
C712 C 0.13733 0.5932 0.01739 0.0
C713 C 0.23064 0.68584 0.00338 0.0
C714 C 0.24706 0.66796 0.00561 0.0
C715 C 0.20678 0.6806 0.00165 0.0
C716 C 0.19904 0.65738 0.00195 0.0
C717 C 0.2152 0.63977 0.0051 0.0
C718 C 0.23896 0.645 0.00692 0.0
C719 C 0.1748 0.65089 -0.00227 0.0
C720 C 0.16147 0.63663 0.00624 0.0
C721 C 0.16556 0.65708 0.98488 0.0
C722 C 0.17915 0.67098 0.97506 0.0
C723 C 0.20082 0.66285 0.97008 0.0
C724 C 0.21359 0.67613 0.96087 0.0
C725 C 0.20473 0.69746 0.95648 0.0
C726 C 0.18304 0.70551 0.96125 0.0
C727 C 0.17023 0.69231 0.97048 0.0
H728 H 0.21463 0.70771 0.94935 0.0
H729 H 0.09136 0.57235 0.03558 0.0
H730 H 0.40219 0.56828 0.20895 0.0
H731 H 0.37984 0.60004 0.21984 0.0
H732 H 0.44396 0.62703 0.23753 0.0
H733 H 0.46623 0.59554 0.22667 0.0
H734 H 0.40491 0.6295 0.25529 0.0
H735 H 0.42618 0.64755 0.20839 0.0
H736 H 0.4256 0.63972 0.18368 0.0
H737 H 0.35014 0.64238 0.18361 0.0
H738 H 0.3503 0.64989 0.20838 0.0
H739 H 0.40948 0.74985 0.26213 0.0
H740 H 0.41255 0.70833 0.25743 0.0
H741 H 0.34354 0.70861 0.23906 0.0
H742 H 0.34046 0.75057 0.24352 0.0
H743 H 0.37385 0.68756 0.22291 0.0
H744 H 0.3534 0.67951 0.26899 0.0
H745 H 0.35393 0.68742 0.29367 0.0
H746 H 0.42607 0.66569 0.29579 0.0
H747 H 0.42612 0.65797 0.27109 0.0
C748 C 0.41134 0.58076 0.2154 0.0
C749 C 0.4359 0.57969 0.21691 0.0
C750 C 0.39862 0.59885 0.22158 0.0
C751 C 0.41031 0.61589 0.22942 0.0
C752 C 0.43462 0.614 0.23155 0.0
C753 C 0.44734 0.59615 0.22527 0.0
C754 C 0.39801 0.63708 0.2343 0.0
C755 C 0.398 0.64222 0.24827 0.0
C756 C 0.3883 0.65323 0.22512 0.0
C757 C 0.38823 0.64897 0.21024 0.0
C758 C 0.40946 0.64628 0.20311 0.0
C759 C 0.40921 0.64193 0.1891 0.0
C760 C 0.38784 0.64048 0.18209 0.0
C761 C 0.36668 0.64345 0.18906 0.0
C762 C 0.36683 0.64775 0.20308 0.0
C763 C 0.39476 0.74111 0.25725 0.0
C764 C 0.37477 0.75361 0.25313 0.0
C765 C 0.39647 0.71725 0.25468 0.0
C766 C 0.37815 0.70525 0.24804 0.0
C767 C 0.35784 0.7175 0.24425 0.0
C768 C 0.35611 0.74147 0.24682 0.0
C769 C 0.38152 0.68052 0.24394 0.0
C770 C 0.37995 0.67467 0.23007 0.0
C771 C 0.38965 0.66369 0.25324 0.0
C772 C 0.38977 0.66823 0.26815 0.0
C773 C 0.36944 0.67655 0.2747 0.0
C774 C 0.36963 0.68098 0.2887 0.0
C775 C 0.39003 0.67707 0.29629 0.0
C776 C 0.41028 0.66869 0.2899 0.0
C777 C 0.41019 0.66424 0.27589 0.0
H778 H 0.39014 0.68052 0.30713 0.0
H779 H 0.38768 0.6371 0.17124 0.0
H780 H 0.46824 0.90843 0.45785 0.0
H781 H 0.43838 0.88519 0.46953 0.0
H782 H 0.41064 0.94776 0.48817 0.0
H783 H 0.44023 0.97092 0.47651 0.0
H784 H 0.4123 0.90916 0.50589 0.0
H785 H 0.38707 0.92885 0.45973 0.0
H786 H 0.39179 0.92815 0.43482 0.0
H787 H 0.39212 0.85339 0.43476 0.0
H788 H 0.38774 0.85369 0.45972 0.0
H789 H 0.29214 0.91 0.51685 0.0
H790 H 0.33323 0.91402 0.51078 0.0
H791 H 0.33239 0.84552 0.49225 0.0
H792 H 0.29075 0.84149 0.49809 0.0
H793 H 0.35074 0.87582 0.47551 0.0
H794 H 0.36568 0.85645 0.52112 0.0
H795 H 0.36097 0.85695 0.54601 0.0
H796 H 0.38055 0.92911 0.54762 0.0
H797 H 0.38505 0.92917 0.52272 0.0
C798 C 0.45602 0.91707 0.46465 0.0
C799 C 0.45631 0.94142 0.46623 0.0
C800 C 0.439 0.90384 0.47128 0.0
C801 C 0.42229 0.91481 0.47965 0.0
C802 C 0.42344 0.93897 0.48179 0.0
C803 C 0.44019 0.95219 0.47506 0.0
C804 C 0.40212 0.90182 0.48519 0.0
C805 C 0.39882 0.90174 0.4993 0.0
C806 C 0.38504 0.89144 0.47657 0.0
C807 C 0.3874 0.89129 0.46158 0.0
C808 C 0.38834 0.91228 0.45441 0.0
C809 C 0.39092 0.91195 0.44029 0.0
C810 C 0.39233 0.89074 0.43321 0.0
C811 C 0.39108 0.86981 0.44025 0.0
C812 C 0.38855 0.87004 0.45438 0.0
C813 C 0.30069 0.89559 0.51166 0.0
C814 C 0.28806 0.87546 0.50789 0.0
C815 C 0.32433 0.89784 0.50829 0.0
C816 C 0.33604 0.87995 0.5012 0.0
C817 C 0.32374 0.8595 0.49778 0.0
C818 C 0.29996 0.85722 0.50115 0.0
C819 C 0.36032 0.88395 0.49627 0.0
C820 C 0.36444 0.88243 0.48223 0.0
C821 C 0.37821 0.89271 0.50499 0.0
C822 C 0.37563 0.89282 0.52001 0.0
C823 C 0.36885 0.87248 0.52676 0.0
C824 C 0.36623 0.87265 0.54088 0.0
C825 C 0.37044 0.89305 0.54839 0.0
C826 C 0.37731 0.91331 0.54179 0.0
C827 C 0.37995 0.91324 0.52767 0.0
H828 H 0.3684 0.89315 0.55932 0.0
H829 H 0.39434 0.89052 0.42228 0.0
H830 H 0.06328 0.93834 0.72787 0.0
H831 H 0.08495 0.90728 0.73918 0.0
H832 H 0.15041 0.94169 0.73031 0.0
H833 H 0.12872 0.97288 0.71892 0.0
H834 H 0.14938 0.89558 0.72198 0.0
H835 H 0.13404 0.93894 0.76243 0.0
H836 H 0.11016 0.96126 0.77889 0.0
H837 H 0.06699 0.90122 0.78553 0.0
H838 H 0.09039 0.87862 0.76894 0.0
H839 H 0.20396 0.79741 0.75104 0.0
H840 H 0.19444 0.83873 0.74858 0.0
H841 H 0.12171 0.82415 0.75738 0.0
H842 H 0.13116 0.78311 0.76018 0.0
H843 H 0.13378 0.86521 0.76803 0.0
H844 H 0.14251 0.82551 0.72448 0.0
H845 H 0.16393 0.80269 0.70709 0.0
H846 H 0.21714 0.85559 0.70557 0.0
H847 H 0.19615 0.87858 0.72309 0.0
C848 C 0.08228 0.9394 0.72848 0.0
C849 C 0.09436 0.95792 0.7225 0.0
C850 C 0.09462 0.92178 0.73503 0.0
C851 C 0.11927 0.9223 0.73567 0.0
C852 C 0.13138 0.94108 0.73 0.0
C853 C 0.119 0.95888 0.72356 0.0
C854 C 0.13221 0.90207 0.74112 0.0
C855 C 0.14651 0.88925 0.73218 0.0
C856 C 0.12801 0.89363 0.75432 0.0
C857 C 0.11393 0.90711 0.76438 0.0
C858 C 0.11936 0.93053 0.76732 0.0
C859 C 0.10592 0.94323 0.77669 0.0
C860 C 0.08705 0.93268 0.78324 0.0
C861 C 0.08162 0.90938 0.78045 0.0
C862 C 0.09499 0.8966 0.77108 0.0
C863 C 0.18604 0.80311 0.75271 0.0
C864 C 0.16825 0.78697 0.75563 0.0
C865 C 0.18061 0.8267 0.75126 0.0
C866 C 0.15728 0.83445 0.75255 0.0
C867 C 0.13982 0.81858 0.75631 0.0
C868 C 0.14524 0.79507 0.75785 0.0
C869 C 0.15042 0.85843 0.74876 0.0
C870 C 0.1372 0.87189 0.75797 0.0
C871 C 0.15535 0.86738 0.73574 0.0
C872 C 0.16795 0.85359 0.72521 0.0
C873 C 0.15887 0.83218 0.72051 0.0
C874 C 0.17091 0.81923 0.71062 0.0
C875 C 0.19193 0.82764 0.70527 0.0
C876 C 0.2009 0.84906 0.70976 0.0
C877 C 0.18894 0.86205 0.71966 0.0
H878 H 0.20122 0.8176 0.69761 0.0
H879 H 0.07666 0.94254 0.79049 0.0
H880 H 0.59579 0.46745 0.77908 0.0
H881 H 0.62565 0.44579 0.76638 0.0
H882 H 0.5916 0.3812 0.77638 0.0
H883 H 0.56153 0.40293 0.78918 0.0
H884 H 0.63921 0.38174 0.78241 0.0
H885 H 0.59056 0.39748 0.74429 0.0
H886 H 0.56603 0.42129 0.72913 0.0
H887 H 0.62557 0.4642 0.72008 0.0
H888 H 0.6504 0.44086 0.73533 0.0
H889 H 0.73596 0.32992 0.74874 0.0
H890 H 0.69438 0.33829 0.75296 0.0
H891 H 0.7063 0.41068 0.74408 0.0
H892 H 0.74752 0.40235 0.73949 0.0
H893 H 0.66417 0.39811 0.73525 0.0
H894 H 0.70922 0.38926 0.77698 0.0
H895 H 0.73439 0.36793 0.79307 0.0
H896 H 0.68199 0.31447 0.79605 0.0
H897 H 0.65664 0.33538 0.77984 0.0
C898 C 0.59456 0.44864 0.77846 0.0
C899 C 0.57647 0.43682 0.78515 0.0
C900 C 0.61149 0.43631 0.77111 0.0
C901 C 0.61071 0.41191 0.77034 0.0
C902 C 0.59239 0.40004 0.77679 0.0
C903 C 0.57524 0.41243 0.78404 0.0
C904 C 0.63029 0.39903 0.76381 0.0
C905 C 0.64433 0.38477 0.77197 0.0
C906 C 0.63716 0.4034 0.75028 0.0
C907 C 0.62233 0.41745 0.74102 0.0
C908 C 0.5984 0.41208 0.73914 0.0
C909 C 0.58444 0.42549 0.73052 0.0
C910 C 0.59423 0.44426 0.72366 0.0
C911 C 0.61801 0.44964 0.72539 0.0
C912 C 0.63205 0.4363 0.73401 0.0
C913 C 0.72959 0.34752 0.74741 0.0
C914 C 0.74508 0.36554 0.74395 0.0
C915 C 0.70585 0.35229 0.74988 0.0
C916 C 0.69733 0.3752 0.74911 0.0
C917 C 0.71246 0.39288 0.74478 0.0
C918 C 0.73608 0.3881 0.7422 0.0
C919 C 0.67346 0.38145 0.754 0.0
C920 C 0.65867 0.39451 0.74555 0.0
C921 C 0.66599 0.37624 0.76733 0.0
C922 C 0.6812 0.36371 0.77708 0.0
C923 C 0.70316 0.37287 0.781 0.0
C924 C 0.71744 0.36087 0.79014 0.0
C925 C 0.70983 0.33981 0.79554 0.0
C926 C 0.68789 0.33075 0.79183 0.0
C927 C 0.67356 0.34266 0.78267 0.0
H928 H 0.72091 0.33055 0.80262 0.0
H929 H 0.58339 0.45462 0.71699 0.0
H930 H 0.56888 0.0987 0.03093 0.0
H931 H 0.58901 0.13047 0.01973 0.0
H932 H 0.65397 0.09187 0.02075 0.0
H933 H 0.63373 0.05923 0.03132 0.0
H934 H 0.65565 0.13904 0.03187 0.0
H935 H 0.63253 0.09801 0.99154 0.0
H936 H 0.60516 0.07704 0.97624 0.0
H937 H 0.56186 0.13807 0.97354 0.0
H938 H 0.58878 0.15932 0.98901 0.0
H939 H 0.70621 0.23834 0.00174 0.0
H940 H 0.69687 0.19702 0.00441 0.0
H941 H 0.62326 0.21212 -0.00169 0.0
H942 H 0.63252 0.25304 0.99517 0.0
H943 H 0.63274 0.17173 0.9873 0.0
H944 H 0.64942 0.20945 0.03067 0.0
H945 H 0.67391 0.23117 0.04725 0.0
H946 H 0.72626 0.17732 0.04546 0.0
H947 H 0.70217 0.15542 0.02873 0.0
C948 C 0.58729 0.09654 0.02847 0.0
C949 C 0.59959 0.07623 0.03205 0.0
C950 C 0.59881 0.11485 0.02213 0.0
C951 C 0.62292 0.11343 0.01937 0.0
C952 C 0.63532 0.09325 0.02281 0.0
C953 C 0.62372 0.0747 0.02896 0.0
C954 C 0.63518 0.13376 0.01365 0.0
C955 C 0.65115 0.14592 0.02197 0.0
C956 C 0.62883 0.14288 0.00088 0.0
C957 C 0.61262 0.13022 0.99151 0.0
C958 C 0.61708 0.10691 0.98778 0.0
C959 C 0.60166 0.09498 0.97905 0.0
C960 C 0.58177 0.1062 0.97394 0.0
C961 C 0.57728 0.1294 0.97751 0.0
C962 C 0.59263 0.14141 0.98624 0.0
C963 C 0.6881 0.23274 0.00069 0.0
C964 C 0.67007 0.24899 -0.0016 0.0
C965 C 0.68277 0.20914 0.00229 0.0
C966 C 0.65929 0.20152 0.00185 0.0
C967 C 0.6415 0.21754 -0.00127 0.0
C968 C 0.64682 0.241 -0.00301 0.0
C969 C 0.65276 0.17745 0.00569 0.0
C970 C 0.63778 0.16459 -0.00296 0.0
C971 C 0.65969 0.16784 0.01828 0.0
C972 C 0.67417 0.18097 0.02832 0.0
C973 C 0.66624 0.20234 0.03374 0.0
C974 C 0.68003 0.21466 0.04317 0.0
C975 C 0.70166 0.20567 0.04737 0.0
C976 C 0.70952 0.18429 0.04217 0.0
C977 C 0.69582 0.17192 0.03271 0.0
H978 H 0.71231 0.21523 0.05467 0.0
H979 H 0.56985 0.09694 0.96718 0.0
H980 H 0.92896 0.0689 0.29794 0.0
H981 H 0.89585 0.08748 0.28653 0.0
H982 H 0.94385 0.13164 0.26487 0.0
H983 H 0.97711 0.1135 0.27671 0.0
H984 H 0.90722 0.15604 0.27209 0.0
H985 H 0.91781 0.08398 0.24907 0.0
H986 H 0.92364 0.04161 0.24651 0.0
H987 H 0.85662 0.0293 0.265 0.0
H988 H 0.85054 0.0716 0.26785 0.0
H989 H 0.7904 0.13901 0.22791 0.0
H990 H 0.83171 0.13069 0.23271 0.0
H991 H 0.82675 0.17007 0.2703 0.0
H992 H 0.7859 0.17961 0.26503 0.0
H993 H 0.84648 0.10534 0.2508 0.0
H994 H 0.87879 0.18541 0.28321 0.0
H995 H 0.87556 0.22821 0.28297 0.0
H996 H 0.86117 0.22592 0.24011 0.0
H997 H 0.86463 0.18313 0.24004 0.0
C998 C 0.93242 0.08252 0.29071 0.0
C999 C 0.95554 0.0896 0.28806 0.0
C1000 C 0.91353 0.09311 0.28417 0.0
C1001 C 0.91737 0.11062 0.2746 0.0
C1002 C 0.94046 0.11811 0.27216 0.0
C1003 C 0.95942 0.10773 0.27889 0.0
C1004 C 0.89716 0.12078 0.26714 0.0
C1005 C 0.89397 0.14503 0.26734 0.0
C1006 C 0.88031 0.10647 0.26051 0.0
C1007 C 0.88379 0.08098 0.25874 0.0
C1008 C 0.90438 0.07223 0.25266 0.0
C1009 C 0.90772 0.04823 0.25116 0.0
C1010 C 0.89053 0.03277 0.25561 0.0
C1011 C 0.86993 0.0413 0.26156 0.0
C1012 C 0.86651 0.06529 0.2631 0.0
C1013 C 0.7984 0.14643 0.23699 0.0
C1014 C 0.78503 0.1599 0.24612 0.0
C1015 C 0.82197 0.14161 0.23977 0.0
C1016 C 0.8325 0.14968 0.25189 0.0
C1017 C 0.81936 0.16403 0.26073 0.0
C1018 C 0.79592 0.16939 0.25776 0.0
C1019 C 0.85597 0.14071 0.25607 0.0
C1020 C 0.8598 0.11656 0.25531 0.0
C1021 C 0.87373 0.15523 0.26171 0.0
C1022 C 0.8718 0.18101 0.26165 0.0
C1023 C 0.87506 0.19403 0.27372 0.0
C1024 C 0.87315 0.2183 0.27364 0.0
C1025 C 0.8681 0.22977 0.26154 0.0
C1026 C 0.865 0.217 0.24949 0.0
C1027 C 0.86689 0.19274 0.2495 0.0
H1028 H 0.86663 0.24856 0.26151 0.0
H1029 H 0.89315 0.01419 0.25443 0.0
H1030 H 0.90737 0.47036 0.53606 0.0
H1031 H 0.88689 0.43727 0.52532 0.0
H1032 H 0.95347 0.40343 0.51804 0.0
H1033 H 0.97398 0.4364 0.52872 0.0
H1034 H 0.92152 0.39909 0.49607 0.0
H1035 H 0.92407 0.38937 0.54509 0.0
H1036 H 0.9164 0.40159 0.56879 0.0
H1037 H 0.8424 0.40505 0.56022 0.0
H1038 H 0.84969 0.39311 0.53641 0.0
H1039 H 0.90558 0.27799 0.49481 0.0
H1040 H 0.91556 0.31893 0.4979 0.0
H1041 H 0.8435 0.33442 0.50819 0.0
H1042 H 0.83346 0.29318 0.50541 0.0
H1043 H 0.87182 0.35212 0.52662 0.0
H1044 H 0.86866 0.35491 0.47852 0.0
H1045 H 0.87632 0.34251 0.45487 0.0
H1046 H 0.95042 0.3523 0.46116 0.0
H1047 H 0.94326 0.36444 0.48491 0.0
C1048 C 0.91761 0.45603 0.53193 0.0
C1049 C 0.94222 0.4558 0.53328 0.0
C1050 C 0.90591 0.43715 0.52586 0.0
C1051 C 0.91869 0.41789 0.52098 0.0
C1052 C 0.94332 0.41816 0.52173 0.0
C1053 C 0.95498 0.43688 0.52791 0.0
C1054 C 0.90654 0.39664 0.51603 0.0
C1055 C 0.91066 0.38874 0.50271 0.0
C1056 C 0.89183 0.3836 0.52462 0.0
C1057 C 0.88745 0.39065 0.53894 0.0
C1058 C 0.90619 0.39293 0.54823 0.0
C1059 C 0.90191 0.39976 0.56169 0.0
C1060 C 0.87893 0.40418 0.56599 0.0
C1061 C 0.86019 0.40168 0.55686 0.0
C1062 C 0.86438 0.39487 0.54339 0.0
C1063 C 0.89173 0.29014 0.49749 0.0
C1064 C 0.86875 0.28232 0.49993 0.0
C1065 C 0.89744 0.31362 0.49917 0.0
C1066 C 0.88024 0.32984 0.50317 0.0
C1067 C 0.85705 0.32223 0.50509 0.0
C1068 C 0.85133 0.29867 0.50346 0.0
C1069 C 0.88715 0.35412 0.50666 0.0
C1070 C 0.88215 0.36262 0.51978 0.0
C1071 C 0.90098 0.36773 0.49785 0.0
C1072 C 0.90541 0.36047 0.48354 0.0
C1073 C 0.88661 0.35426 0.4749 0.0
C1074 C 0.89086 0.3473 0.46146 0.0
C1075 C 0.91384 0.34659 0.45652 0.0
C1076 C 0.93262 0.35287 0.465 0.0
C1077 C 0.92847 0.35983 0.47845 0.0
H1078 H 0.91709 0.34119 0.44612 0.0
H1079 H 0.87565 0.4095 0.57641 0.0
H1080 H 0.6196 0.06438 0.47924 0.0
H1081 H 0.65163 0.08764 0.48882 0.0
H1082 H 0.64691 0.13447 0.45499 0.0
H1083 H 0.61596 0.11048 0.4449 0.0
H1084 H 0.69014 0.12414 0.459 0.0
H1085 H 0.62857 0.1501 0.48802 0.0
H1086 H 0.59498 0.14669 0.50362 0.0
H1087 H 0.63873 0.11142 0.53245 0.0
H1088 H 0.67253 0.11433 0.51695 0.0
H1089 H 0.77603 0.19903 0.48783 0.0
H1090 H 0.73624 0.18716 0.48115 0.0
H1091 H 0.74086 0.12821 0.50771 0.0
H1092 H 0.7806 0.13984 0.51441 0.0
H1093 H 0.69562 0.14973 0.50728 0.0
H1094 H 0.75535 0.12018 0.47624 0.0
H1095 H 0.78866 0.12462 0.46053 0.0
H1096 H 0.74675 0.16882 0.43522 0.0
H1097 H 0.71329 0.16491 0.45092 0.0
C1098 C 0.62542 0.07956 0.47379 0.0
C1099 C 0.61518 0.08547 0.46127 0.0
C1100 C 0.64352 0.09308 0.4794 0.0
C1101 C 0.65149 0.11304 0.47273 0.0
C1102 C 0.641 0.11923 0.46037 0.0
C1103 C 0.6231 0.10557 0.45467 0.0
C1104 C 0.67189 0.12645 0.47814 0.0
C1105 C 0.69104 0.13018 0.46949 0.0
C1106 C 0.67332 0.13405 0.49188 0.0
C1107 C 0.65305 0.13228 0.50127 0.0
C1108 C 0.631 0.14146 0.49764 0.0
C1109 C 0.61192 0.13964 0.50648 0.0
C1110 C 0.61471 0.1288 0.51901 0.0
C1111 C 0.63659 0.1198 0.52274 0.0
C1112 C 0.65573 0.12156 0.51394 0.0
C1113 C 0.7684 0.18382 0.49247 0.0
C1114 C 0.78157 0.1702 0.50152 0.0
C1115 C 0.74569 0.17706 0.48863 0.0
C1116 C 0.73578 0.15669 0.49384 0.0
C1117 C 0.74823 0.14398 0.50358 0.0
C1118 C 0.77099 0.15059 0.50732 0.0
C1119 C 0.71363 0.14715 0.48814 0.0
C1120 C 0.69433 0.14405 0.49674 0.0
C1121 C 0.7119 0.1403 0.47432 0.0
C1122 C 0.73193 0.14248 0.46483 0.0
C1123 C 0.75331 0.131 0.46739 0.0
C1124 C 0.7722 0.13339 0.45848 0.0
C1125 C 0.76985 0.14705 0.44691 0.0
C1126 C 0.74857 0.15829 0.4442 0.0
C1127 C 0.72963 0.15599 0.4531 0.0
H1128 H 0.7845 0.14888 0.44002 0.0
H1129 H 0.59992 0.12741 0.52583 0.0
H1130 H 0.92291 0.10106 0.71088 0.0
H1131 H 0.8973 0.1318 0.71986 0.0
H1132 H 0.95795 0.17398 0.72937 0.0
H1133 H 0.98362 0.14413 0.7198 0.0
H1134 H 0.92212 0.1716 0.7506 0.0
H1135 H 0.93161 0.18521 0.70197 0.0
H1136 H 0.9286 0.17343 0.67783 0.0
H1137 H 0.85437 0.16248 0.68228 0.0
H1138 H 0.85704 0.17386 0.70653 0.0
H1139 H 0.89947 0.29009 0.75374 0.0
H1140 H 0.91167 0.25014 0.74969 0.0
H1141 H 0.84223 0.23298 0.73485 0.0
H1142 H 0.82989 0.27347 0.73859 0.0
H1143 H 0.87415 0.21678 0.71797 0.0
H1144 H 0.86278 0.21082 0.76525 0.0
H1145 H 0.86495 0.22195 0.7895 0.0
H1146 H 0.94025 0.21704 0.7884 0.0
H1147 H 0.93858 0.20621 0.76409 0.0
C1148 C 0.93086 0.11692 0.71478 0.0
C1149 C 0.95543 0.12006 0.71453 0.0
C1150 C 0.91617 0.13434 0.72003 0.0
C1151 C 0.9258 0.15506 0.72528 0.0
C1152 C 0.95025 0.15797 0.72547 0.0
C1153 C 0.9649 0.14078 0.72004 0.0
C1154 C 0.91057 0.17445 0.72986 0.0
C1155 C 0.91159 0.18154 0.74353 0.0
C1156 C 0.89618 0.18674 0.72067 0.0
C1157 C 0.89458 0.18007 0.70609 0.0
C1158 C 0.91469 0.18007 0.69783 0.0
C1159 C 0.91305 0.17351 0.68413 0.0
C1160 C 0.89133 0.16713 0.67854 0.0
C1161 C 0.8712 0.16737 0.68663 0.0
C1162 C 0.87276 0.17387 0.70035 0.0
C1163 C 0.88661 0.27785 0.74977 0.0
C1164 C 0.86369 0.28506 0.74645 0.0
C1165 C 0.8936 0.25487 0.74756 0.0
C1166 C 0.87779 0.23841 0.74215 0.0
C1167 C 0.8547 0.24536 0.7391 0.0
C1168 C 0.84767 0.26849 0.74126 0.0
C1169 C 0.88627 0.21462 0.73872 0.0
C1170 C 0.88407 0.20661 0.72523 0.0
C1171 C 0.89937 0.20133 0.74814 0.0
C1172 C 0.90053 0.20779 0.7628 0.0
C1173 C 0.87982 0.21226 0.77015 0.0
C1174 C 0.88096 0.2185 0.78391 0.0
C1175 C 0.90272 0.22022 0.79048 0.0
C1176 C 0.92339 0.21568 0.7833 0.0
C1177 C 0.92236 0.20945 0.76953 0.0
H1178 H 0.90357 0.22506 0.80114 0.0
H1179 H 0.89008 0.16206 0.66793 0.0
H1180 H 0.88619 0.48918 0.96459 0.0
H1181 H 0.85714 0.46463 0.97551 0.0
H1182 H 0.90167 0.40467 0.96947 0.0
H1183 H 0.93152 0.42929 0.95904 0.0
H1184 H 0.85339 0.39897 0.96079 0.0
H1185 H 0.8976 0.42281 -3e-05 0.0
H1186 H 0.91766 0.45086 0.01523 0.0
H1187 H 0.85232 0.48638 0.02232 0.0
H1188 H 0.83191 0.45875 0.00694 0.0
H1189 H 0.76468 0.33505 0.99537 0.0
H1190 H 0.80382 0.34938 0.98937 0.0
H1191 H 0.78207 0.41951 -0.00062 0.0
H1192 H 0.74353 0.40536 0.00579 0.0
H1193 H 0.82477 0.41379 0.00767 0.0
H1194 H 0.78236 0.39631 0.96586 0.0
H1195 H 0.76113 0.37088 0.94956 0.0
H1196 H 0.82147 0.32616 0.94649 0.0
H1197 H 0.84295 0.35121 0.96291 0.0
C1198 C 0.89016 0.47089 0.96582 0.0
C1199 C 0.91135 0.46131 0.96096 0.0
C1200 C 0.87342 0.45685 0.97199 0.0
C1201 C 0.87736 0.4329 0.97335 0.0
C1202 C 0.89835 0.42315 0.96849 0.0
C1203 C 0.9153 0.43725 0.96246 0.0
C1204 C 0.85902 0.41815 0.97946 0.0
C1205 C 0.84742 0.40177 0.97115 0.0
C1206 C 0.85107 0.42219 0.99287 0.0
C1207 C 0.86325 0.43876 0.00223 0.0
C1208 C 0.88753 0.4367 0.0047 0.0
C1209 C 0.89897 0.45251 0.01339 0.0
C1210 C 0.88628 0.47041 0.01973 0.0
C1211 C 0.86213 0.47251 0.01741 0.0
C1212 C 0.85061 0.45675 0.00872 0.0
C1213 C 0.76836 0.35348 -0.00357 0.0
C1214 C 0.7509 0.36906 0.00098 0.0
C1215 C 0.7907 0.36166 0.99294 0.0
C1216 C 0.79581 0.38559 0.99372 0.0
C1217 C 0.77862 0.40098 -0.0013 0.0
C1218 C 0.75649 0.39283 0.00232 0.0
C1219 C 0.8185 0.39511 0.98886 0.0
C1220 C 0.83098 0.41054 -0.00259 0.0
C1221 C 0.82703 0.39048 0.97558 0.0
C1222 C 0.81413 0.37544 0.96573 0.0
C1223 C 0.79102 0.38095 0.96178 0.0
C1224 C 0.77896 0.36663 0.95252 0.0
C1225 C 0.78991 0.34687 0.94703 0.0
C1226 C 0.81298 0.34144 0.95078 0.0
C1227 C 0.82511 0.35569 0.96006 0.0
H1228 H 0.78055 0.33581 0.93986 0.0
H1229 H 0.89517 0.48264 0.02645 0.0
H1230 H 0.60965 0.42501 0.20009 0.0
H1231 H 0.6349 0.39476 0.20908 0.0
H1232 H 0.58355 0.37998 0.23991 0.0
H1233 H 0.55894 0.4117 0.23171 0.0
H1234 H 0.62556 0.37514 0.25022 0.0
H1235 H 0.58743 0.34782 0.20938 0.0
H1236 H 0.57567 0.34944 0.18526 0.0
H1237 H 0.64819 0.34766 0.17334 0.0
H1238 H 0.6604 0.34633 0.19742 0.0
H1239 H 0.65273 0.25415 0.25903 0.0
H1240 H 0.63541 0.2924 0.25482 0.0
H1241 H 0.69476 0.31025 0.22992 0.0
H1242 H 0.71233 0.27213 0.23418 0.0
H1243 H 0.65101 0.31466 0.21693 0.0
H1244 H 0.68813 0.33838 0.25869 0.0
H1245 H 0.69817 0.33576 0.28301 0.0
H1246 H 0.62521 0.34217 0.29342 0.0
H1247 H 0.61467 0.3445 0.26914 0.0
C1248 C 0.60388 0.41587 0.20902 0.0
C1249 C 0.58203 0.42084 0.21509 0.0
C1250 C 0.61827 0.39825 0.21403 0.0
C1251 C 0.61087 0.38466 0.22495 0.0
C1252 C 0.58955 0.39009 0.23139 0.0
C1253 C 0.57533 0.40806 0.22655 0.0
C1254 C 0.6248 0.3641 0.2292 0.0
C1255 C 0.63093 0.3618 0.24296 0.0
C1256 C 0.63214 0.34684 0.2197 0.0
C1257 C 0.62483 0.34721 0.20521 0.0
C1258 C 0.60087 0.34789 0.20162 0.0
C1259 C 0.59413 0.34875 0.18796 0.0
C1260 C 0.61118 0.34873 0.17778 0.0
C1261 C 0.63501 0.34772 0.18124 0.0
C1262 C 0.64185 0.34689 0.19489 0.0
C1263 C 0.66233 0.2664 0.25289 0.0
C1264 C 0.68383 0.2601 0.24687 0.0
C1265 C 0.65244 0.28826 0.25053 0.0
C1266 C 0.66382 0.3041 0.24206 0.0
C1267 C 0.68574 0.29824 0.2365 0.0
C1268 C 0.69578 0.27649 0.23898 0.0
C1269 C 0.65174 0.32573 0.23792 0.0
C1270 C 0.64583 0.32813 0.22416 0.0
C1271 C 0.64431 0.3428 0.24745 0.0
C1272 C 0.65059 0.3414 0.26207 0.0
C1273 C 0.67419 0.33902 0.26615 0.0
C1274 C 0.67999 0.33763 0.27994 0.0
C1275 C 0.66234 0.33874 0.28975 0.0
C1276 C 0.63886 0.34129 0.28581 0.0
C1277 C 0.63297 0.34267 0.27203 0.0
H1278 H 0.66686 0.33767 0.30042 0.0
H1279 H 0.60592 0.34944 0.1672 0.0
H1280 H 0.11111 -0.0021 0.38802 0.0
H1281 H 0.13029 0.97764 0.40657 0.0
H1282 H 0.14332 0.91857 0.38019 0.0
H1283 H 0.12478 0.93913 0.36124 0.0
H1284 H 0.12407 0.90738 0.40637 0.0
H1285 H 0.18829 0.94932 0.38766 0.0
H1286 H 0.20853 0.98357 0.37845 0.0
H1287 H 0.1997 0.02003 0.41646 0.0
H1288 H 0.17907 0.98614 0.42585 0.0
H1289 H 0.19066 0.86247 0.46314 0.0
H1290 H 0.17901 0.87317 0.44 0.0
H1291 H 0.16807 0.9441 0.45354 0.0
H1292 H 0.18005 0.93378 0.4764 0.0
H1293 H 0.19176 0.94342 0.43065 0.0
H1294 H 0.12211 0.90488 0.44788 0.0
H1295 H 0.1002 0.87177 0.45728 0.0
H1296 H 0.11816 0.82983 0.42239 0.0
H1297 H 0.14043 0.86264 0.41287 0.0
C1298 C 0.11843 0.9808 0.386 0.0
C1299 C 0.11662 0.97031 0.37304 0.0
C1300 C 0.12924 0.96917 0.39668 0.0
C1301 C 0.13839 0.94672 0.3947 0.0
C1302 C 0.13636 0.93592 0.38188 0.0
C1303 C 0.1257 0.94768 0.3711 0.0
C1304 C 0.14986 0.9348 0.40622 0.0
C1305 C 0.13921 0.91489 0.41154 0.0
C1306 C 0.16942 0.94482 0.41299 0.0
C1307 C 0.18201 0.9652 0.40743 0.0
C1308 C 0.19052 0.9647 0.39403 0.0
C1309 C 0.20208 0.98404 0.38878 0.0
C1310 C 0.20537 0.00397 0.39686 0.0
C1311 C 0.19714 0.00458 0.41022 0.0
C1312 C 0.18554 0.98529 0.41551 0.0
C1313 C 0.18572 0.88033 0.46117 0.0
C1314 C 0.18634 0.89727 0.47163 0.0
C1315 C 0.17903 0.8864 0.44795 0.0
C1316 C 0.17261 0.90944 0.44504 0.0
C1317 C 0.17311 0.92625 0.45551 0.0
C1318 C 0.17991 0.92028 0.46861 0.0
C1319 C 0.1654 0.91652 0.43118 0.0
C1320 C 0.17693 0.93554 0.42537 0.0
C1321 C 0.14656 0.90576 0.42404 0.0
C1322 C 0.13318 0.88609 0.42975 0.0
C1323 C 0.12155 0.88853 0.44227 0.0
C1324 C 0.10903 0.86984 0.44761 0.0
C1325 C 0.10786 0.84869 0.44046 0.0
C1326 C 0.11913 0.84621 0.42793 0.0
C1327 C 0.13169 0.86484 0.42256 0.0
H1328 H 0.09816 0.83424 0.4446 0.0
H1329 H 0.21433 0.01894 0.39277 0.0
H1330 H 0.08183 0.64072 0.60404 0.0
H1331 H 0.10181 0.66454 0.62155 0.0
H1332 H 0.06068 0.63147 0.65256 0.0
H1333 H 0.04079 0.60783 0.6352 0.0
H1334 H 0.06487 0.67941 0.65656 0.0
H1335 H 0.11463 0.61218 0.64588 0.0
H1336 H 0.13799 0.5876 0.63024 0.0
H1337 H 0.1814 0.64623 0.62066 0.0
H1338 H 0.15808 0.67121 0.63614 0.0
H1339 H 0.12123 0.67732 0.71926 0.0
H1340 H 0.1032 0.66896 0.69724 0.0
H1341 H 0.15905 0.70584 0.67728 0.0
H1342 H 0.17749 0.7141 0.69942 0.0
H1343 H 0.14977 0.66483 0.66464 0.0
H1344 H 0.10517 0.73015 0.67885 0.0
H1345 H 0.08208 0.75503 0.69443 0.0
H1346 H 0.02914 0.70203 0.69692 0.0
H1347 H 0.05207 0.67666 0.68151 0.0
C1348 C 0.07691 0.63883 0.61459 0.0
C1349 C 0.05996 0.62233 0.61832 0.0
C1350 C 0.08835 0.65234 0.62455 0.0
C1351 C 0.08279 0.64964 0.63834 0.0
C1352 C 0.06521 0.63383 0.64198 0.0
C1353 C 0.05399 0.62022 0.63208 0.0
C1354 C 0.09597 0.66211 0.6492 0.0
C1355 C 0.08344 0.67629 0.65834 0.0
C1356 C 0.12036 0.65866 0.65122 0.0
C1357 C 0.13446 0.6436 0.64203 0.0
C1358 C 0.12905 0.61985 0.64036 0.0
C1359 C 0.1423 0.60585 0.63154 0.0
C1360 C 0.16112 0.61536 0.62442 0.0
C1361 C 0.16678 0.63889 0.62615 0.0
C1362 C 0.15357 0.65298 0.63495 0.0
C1363 C 0.12969 0.68375 0.71021 0.0
C1364 C 0.15078 0.6964 0.71108 0.0
C1365 C 0.11926 0.67908 0.69762 0.0
C1366 C 0.12957 0.6871 0.68563 0.0
C1367 C 0.15073 0.69962 0.68642 0.0
C1368 C 0.16122 0.70433 0.69907 0.0
C1369 C 0.11846 0.68145 0.67233 0.0
C1370 C 0.13136 0.66854 0.66271 0.0
C1371 C 0.09441 0.68622 0.66982 0.0
C1372 C 0.08043 0.70144 0.67906 0.0
C1373 C 0.08868 0.72372 0.68279 0.0
C1374 C 0.0756 0.73793 0.69158 0.0
C1375 C 0.05417 0.73011 0.69667 0.0
C1376 C 0.04574 0.70807 0.69296 0.0
C1377 C 0.05876 0.69378 0.68418 0.0
H1378 H 0.04407 0.74113 0.70348 0.0
H1379 H 0.17135 0.6045 0.6176 0.0
H1380 H 0.40315 0.54906 0.8723 0.0
H1381 H 0.38054 0.57043 0.88938 0.0
H1382 H 0.41856 0.63322 0.88008 0.0
H1383 H 0.4418 0.61157 0.86322 0.0
H1384 H 0.41723 0.62949 0.90574 0.0
H1385 H 0.35849 0.62601 0.87192 0.0
H1386 H 0.33309 0.60903 0.85406 0.0
H1387 H 0.30176 0.56365 0.88319 0.0
H1388 H 0.32718 0.58023 0.90124 0.0
H1389 H 0.33915 0.69182 0.95103 0.0
H1390 H 0.35342 0.67877 0.92867 0.0
H1391 H 0.34902 0.60735 0.94133 0.0
H1392 H 0.33555 0.62027 0.96382 0.0
H1393 H 0.3311 0.62153 0.91211 0.0
H1394 H 0.39744 0.62397 0.94469 0.0
H1395 H 0.42182 0.64482 0.96169 0.0
H1396 H 0.43711 0.69773 0.93261 0.0
H1397 H 0.41247 0.67733 0.9155 0.0
C1398 C 0.4064 0.56751 0.87374 0.0
C1399 C 0.42419 0.57868 0.86644 0.0
C1400 C 0.39339 0.57977 0.88347 0.0
C1401 C 0.39756 0.60357 0.88592 0.0
C1402 C 0.41499 0.61489 0.87839 0.0
C1403 C 0.42825 0.60253 0.86877 0.0
C1404 C 0.38497 0.61604 0.89706 0.0
C1405 C 0.39833 0.62811 0.90691 0.0
C1406 C 0.36028 0.61435 0.8987 0.0
C1407 C 0.34489 0.60425 0.88792 0.0
C1408 C 0.34631 0.61229 0.87451 0.0
C1409 C 0.33188 0.60275 0.86435 0.0
C1410 C 0.31586 0.58521 0.86747 0.0
C1411 C 0.31419 0.57723 0.88078 0.0
C1412 C 0.32858 0.58673 0.89099 0.0
C1413 C 0.34089 0.67334 0.94896 0.0
C1414 C 0.33641 0.65702 0.95914 0.0
C1415 C 0.349 0.66594 0.93621 0.0
C1416 C 0.35218 0.64214 0.93342 0.0
C1417 C 0.34652 0.62578 0.94332 0.0
C1418 C 0.33898 0.63318 0.95615 0.0
C1419 C 0.36352 0.63427 0.9207 0.0
C1420 C 0.34993 0.62311 0.91066 0.0
C1421 C 0.38787 0.63728 0.91868 0.0
C1422 C 0.4029 0.64931 0.92889 0.0
C1423 C 0.40582 0.64017 0.94197 0.0
C1424 C 0.41972 0.65187 0.95162 0.0
C1425 C 0.43094 0.67263 0.94825 0.0
C1426 C 0.42836 0.68168 0.93521 0.0
C1427 C 0.41444 0.67005 0.92554 0.0
H1428 H 0.44169 0.68167 0.95573 0.0
H1429 H 0.30472 0.57784 0.85957 0.0
H1430 H 0.50322 0.92255 0.13138 0.0
H1431 H 0.48259 0.90318 0.14961 0.0
H1432 H 0.42311 0.89112 0.12316 0.0
H1433 H 0.4441 0.90972 0.10448 0.0
H1434 H 0.4121 0.911 0.14959 0.0
H1435 H 0.45276 0.84611 0.13028 0.0
H1436 H 0.48677 0.82489 0.12082 0.0
H1437 H 0.52355 0.83274 0.15879 0.0
H1438 H 0.4899 0.85434 0.16843 0.0
H1439 H 0.36411 0.84817 0.20607 0.0
H1440 H 0.37575 0.85832 0.18292 0.0
H1441 H 0.44754 0.86675 0.19644 0.0
H1442 H 0.43627 0.85623 0.21934 0.0
H1443 H 0.44645 0.84326 0.17333 0.0
H1444 H 0.40977 0.91365 0.19109 0.0
H1445 H 0.37714 0.93665 0.20081 0.0
H1446 H 0.33409 0.91978 0.16611 0.0
H1447 H 0.36641 0.89643 0.15626 0.0
C1448 C 0.486 0.91534 0.12924 0.0
C1449 C 0.47549 0.91755 0.11635 0.0
C1450 C 0.47414 0.90441 0.13975 0.0
C1451 C 0.45142 0.8956 0.13769 0.0
C1452 C 0.44067 0.89784 0.12492 0.0
C1453 C 0.45267 0.90856 0.1143 0.0
C1454 C 0.439 0.88463 0.14914 0.0
C1455 C 0.41921 0.89584 0.15462 0.0
C1456 C 0.44857 0.86509 0.15577 0.0
C1457 C 0.46883 0.85197 0.15006 0.0
C1458 C 0.46816 0.84346 0.13659 0.0
C1459 C 0.48737 0.83134 0.13119 0.0
C1460 C 0.50732 0.82749 0.13919 0.0
C1461 C 0.50808 0.83573 0.15261 0.0
C1462 C 0.48893 0.84789 0.15805 0.0
C1463 C 0.38237 0.85219 0.20409 0.0
C1464 C 0.39924 0.85139 0.21457 0.0
C1465 C 0.38898 0.85803 0.19086 0.0
C1466 C 0.41252 0.86341 0.18795 0.0
C1467 C 0.42931 0.86255 0.19841 0.0
C1468 C 0.42278 0.8566 0.21154 0.0
C1469 C 0.42004 0.87015 0.17411 0.0
C1470 C 0.43894 0.8581 0.16816 0.0
C1471 C 0.40977 0.88904 0.16712 0.0
C1472 C 0.39038 0.90306 0.17303 0.0
C1473 C 0.39328 0.91469 0.18559 0.0
C1474 C 0.37485 0.92782 0.19111 0.0
C1475 C 0.35352 0.92961 0.18411 0.0
C1476 C 0.3506 0.91833 0.17154 0.0
C1477 C 0.36896 0.90516 0.16598 0.0
H1478 H 0.33928 0.93978 0.18839 0.0
H1479 H 0.52217 0.81811 0.135 0.0
H1480 H 0.04838 0.63641 0.88844 0.0
H1481 H 0.0693 0.65815 0.87111 0.0
H1482 H 0.1148 0.59915 0.86394 0.0
H1483 H 0.09517 0.578 0.88189 0.0
H1484 H 0.13904 0.63652 0.86096 0.0
H1485 H 0.06296 0.61018 0.84471 0.0
H1486 H 0.0197 0.60721 0.845 0.0
H1487 H 0.01396 0.68144 0.84146 0.0
H1488 H 0.05723 0.68485 0.84132 0.0
H1489 H 0.16027 0.63463 0.79015 0.0
H1490 H 0.14601 0.62798 0.81316 0.0
H1491 H 0.12451 0.69982 0.81648 0.0
H1492 H 0.13928 0.70681 0.79346 0.0
H1493 H 0.08906 0.66423 0.82301 0.0
H1494 H 0.16725 0.68758 0.83473 0.0
H1495 H 0.21047 0.68748 0.83299 0.0
H1496 H 0.21218 0.61521 0.84353 0.0
H1497 H 0.16892 0.61477 0.84514 0.0
C1498 C 0.06326 0.62827 0.88346 0.0
C1499 C 0.0698 0.60524 0.88642 0.0
C1500 C 0.07503 0.64066 0.87341 0.0
C1501 C 0.09323 0.63009 0.86594 0.0
C1502 C 0.10069 0.60766 0.86945 0.0
C1503 C 0.08921 0.59543 0.87962 0.0
C1504 C 0.1035 0.64147 0.85385 0.0
C1505 C 0.12808 0.64255 0.85267 0.0
C1506 C 0.08927 0.64983 0.8431 0.0
C1507 C 0.06329 0.6478 0.84318 0.0
C1508 C 0.05246 0.62588 0.84409 0.0
C1509 C 0.02795 0.62411 0.84422 0.0
C1510 C 0.01409 0.64413 0.8433 0.0
C1511 C 0.02472 0.66595 0.84221 0.0
C1512 C 0.04923 0.66781 0.8421 0.0
C1513 C 0.15264 0.64907 0.79579 0.0
C1514 C 0.15082 0.67123 0.78999 0.0
C1515 C 0.14463 0.64527 0.80895 0.0
C1516 C 0.13436 0.66345 0.8165 0.0
C1517 C 0.13251 0.68563 0.81079 0.0
C1518 C 0.14096 0.68958 0.79769 0.0
C1519 C 0.12445 0.65864 0.83004 0.0
C1520 C 0.09996 0.65872 0.83146 0.0
C1521 C 0.13875 0.65092 0.84086 0.0
C1522 C 0.1648 0.65112 0.83997 0.0
C1523 C 0.17682 0.67161 0.83657 0.0
C1524 C 0.20133 0.67166 0.83563 0.0
C1525 C 0.21406 0.65134 0.83812 0.0
C1526 C 0.20229 0.63094 0.8416 0.0
C1527 C 0.17777 0.63079 0.84254 0.0
H1528 H 0.23304 0.65141 0.83739 0.0
H1529 H -0.00488 0.64273 0.84339 0.0
H1530 H 0.41609 0.58546 0.14657 0.0
H1531 H 0.39548 0.60565 0.12819 0.0
H1532 H 0.45078 0.58629 0.1004 0.0
H1533 H 0.47102 0.56568 0.11842 0.0
H1534 H 0.43825 0.63282 0.09869 0.0
H1535 H 0.40036 0.55667 0.10048 0.0
H1536 H 0.3779 0.5259 0.11189 0.0
H1537 H 0.32116 0.57381 0.1191 0.0
H1538 H 0.34346 0.60495 0.10788 0.0
H1539 H 0.40323 0.63397 0.03151 0.0
H1540 H 0.41467 0.62261 0.0543 0.0
H1541 H 0.34827 0.64726 0.06987 0.0
H1542 H 0.3364 0.65856 0.04684 0.0
H1543 H 0.36117 0.60537 0.08091 0.0
H1544 H 0.39595 0.6796 0.07565 0.0
H1545 H 0.41802 0.71057 0.0642 0.0
H1546 H 0.48 0.66786 0.06407 0.0
H1547 H 0.45822 0.63648 0.07533 0.0
C1548 C 0.42378 0.5854 0.13652 0.0
C1549 C 0.44532 0.57405 0.13402 0.0
C1550 C 0.41202 0.59702 0.12606 0.0
C1551 C 0.42165 0.59748 0.11295 0.0
C1552 C 0.44317 0.58634 0.11048 0.0
C1553 C 0.45479 0.57466 0.12084 0.0
C1554 C 0.40946 0.60913 0.10158 0.0
C1555 C 0.4214 0.62685 0.09479 0.0
C1556 C 0.38707 0.60192 0.09683 0.0
C1557 C 0.37368 0.58319 0.10351 0.0
C1558 C 0.38318 0.56068 0.10461 0.0
C1559 C 0.37047 0.54317 0.11101 0.0
C1560 C 0.34815 0.54792 0.11626 0.0
C1561 C 0.33847 0.57017 0.11506 0.0
C1562 C 0.35113 0.58775 0.10867 0.0
C1563 C 0.39095 0.63699 0.03973 0.0
C1564 C 0.36894 0.64736 0.03734 0.0
C1565 C 0.39759 0.63056 0.05279 0.0
C1566 C 0.38252 0.63453 0.06382 0.0
C1567 C 0.36022 0.64423 0.06149 0.0
C1568 C 0.35349 0.65067 0.04834 0.0
C1569 C 0.39047 0.62838 0.07769 0.0
C1570 C 0.37775 0.61178 0.08497 0.0
C1571 C 0.41211 0.63673 0.08298 0.0
C1572 C 0.42539 0.65563 0.07629 0.0
C1573 C 0.41425 0.67675 0.0731 0.0
C1574 C 0.42671 0.69439 0.06666 0.0
C1575 C 0.45039 0.69118 0.0634 0.0
C1576 C 0.46166 0.67033 0.0666 0.0
C1577 C 0.44927 0.65262 0.07304 0.0
H1578 H 0.46 0.70485 0.0584 0.0
H1579 H 0.33833 0.53434 0.12121 0.0
H1580 H 0.45925 0.97119 0.36771 0.0
H1581 H 0.43603 0.94956 0.35101 0.0
H1582 H 0.4153 0.90097 0.38177 0.0
H1583 H 0.43851 0.92284 0.39873 0.0
H1584 H 0.42862 0.8789 0.35822 0.0
H1585 H 0.37542 0.93889 0.37049 0.0
H1586 H 0.36233 0.97891 0.37576 0.0
H1587 H 0.37851 -0.00051 0.33507 0.0
H1588 H 0.39204 0.95967 0.32961 0.0
H1589 H 0.35351 0.83161 0.3049 0.0
H1590 H 0.36528 0.84837 0.327 0.0
H1591 H 0.39956 0.90496 0.30663 0.0
H1592 H 0.38807 0.88838 0.28465 0.0
H1593 H 0.37179 0.91961 0.32838 0.0
H1594 H 0.43122 0.86081 0.31806 0.0
H1595 H 0.44449 0.82073 0.31304 0.0
H1596 H 0.41522 0.79769 0.35069 0.0
H1597 H 0.4015 0.83762 0.35584 0.0
C1598 C 0.44945 0.95616 0.37102 0.0
C1599 C 0.4505 0.94893 0.3846 0.0
C1600 C 0.43622 0.94375 0.36144 0.0
C1601 C 0.42361 0.92389 0.36519 0.0
C1602 C 0.42481 0.91634 0.37869 0.0
C1603 C 0.43811 0.92881 0.38834 0.0
C1604 C 0.40985 0.91089 0.35475 0.0
C1605 C 0.41575 0.88761 0.3519 0.0
C1606 C 0.39314 0.9223 0.34648 0.0
C1607 C 0.38486 0.94628 0.34966 0.0
C1608 C 0.37633 0.95198 0.36269 0.0
C1609 C 0.36881 0.97463 0.36571 0.0
C1610 C 0.36961 -0.00826 0.35576 0.0
C1611 C 0.37789 0.98621 0.34277 0.0
C1612 C 0.38546 0.96359 0.33969 0.0
C1613 C 0.3635 0.84765 0.30517 0.0
C1614 C 0.36995 0.85865 0.29305 0.0
C1615 C 0.37022 0.85716 0.31777 0.0
C1616 C 0.38332 0.87786 0.31842 0.0
C1617 C 0.3894 0.88901 0.30635 0.0
C1618 C 0.38291 0.87944 0.29379 0.0
C1619 C 0.39127 0.888 0.33157 0.0
C1620 C 0.38422 0.91075 0.33492 0.0
C1621 C 0.40677 0.87605 0.34033 0.0
C1622 C 0.41507 0.85211 0.33724 0.0
C1623 C 0.42743 0.84715 0.3252 0.0
C1624 C 0.43507 0.82448 0.32235 0.0
C1625 C 0.43062 0.80666 0.33151 0.0
C1626 C 0.41859 0.8115 0.34358 0.0
C1627 C 0.41089 0.83414 0.34647 0.0
H1628 H 0.43656 0.78912 0.32929 0.0
H1629 H 0.36379 0.00926 0.35812 0.0
H1630 H 0.13807 0.98211 0.6453 0.0
H1631 H 0.16094 0.9599 0.62866 0.0
H1632 H 0.10207 0.91379 0.62195 0.0
H1633 H 0.0796 0.93502 0.63914 0.0
H1634 H 0.14152 0.89002 0.61954 0.0
H1635 H 0.11095 0.96269 0.60225 0.0
H1636 H 0.10586 0.00534 0.60203 0.0
H1637 H 0.18046 0.01423 0.598 0.0
H1638 H 0.18599 0.97161 0.59837 0.0
H1639 H 0.15801 0.89475 0.54157 0.0
H1640 H 0.14501 0.91058 0.56334 0.0
H1641 H 0.19964 0.87227 0.58383 0.0
H1642 H 0.21256 0.85588 0.56194 0.0
H1643 H 0.16709 0.93792 0.58073 0.0
H1644 H 0.17928 0.86013 0.61638 0.0
H1645 H 0.17981 0.81717 0.61539 0.0
H1646 H 0.13451 0.81783 0.58038 0.0
H1647 H 0.13348 0.86075 0.58127 0.0
C1648 C 0.1302 0.96684 0.6406 0.0
C1649 C 0.10681 0.9606 0.6434 0.0
C1650 C 0.14325 0.95427 0.63098 0.0
C1651 C 0.13303 0.9355 0.62383 0.0
C1652 C 0.11029 0.9283 0.62726 0.0
C1653 C 0.09734 0.94067 0.63697 0.0
C1654 C 0.14489 0.92481 0.61187 0.0
C1655 C 0.14735 0.90049 0.61111 0.0
C1656 C 0.15222 0.93842 0.60077 0.0
C1657 C 0.14891 0.96401 0.6005 0.0
C1658 C 0.12627 0.97376 0.60141 0.0
C1659 C 0.12331 -0.00209 0.60125 0.0
C1660 C 0.14283 0.01249 0.60005 0.0
C1661 C 0.16536 0.00292 0.59896 0.0
C1662 C 0.16842 0.97878 0.59914 0.0
C1663 C 0.16724 0.88958 0.5507 0.0
C1664 C 0.18635 0.8741 0.55004 0.0
C1665 C 0.15983 0.89872 0.56314 0.0
C1666 C 0.17134 0.89264 0.57522 0.0
C1667 C 0.19036 0.87704 0.57465 0.0
C1668 C 0.19775 0.86774 0.56214 0.0
C1669 C 0.16336 0.90308 0.58828 0.0
C1670 C 0.16171 0.92742 0.58926 0.0
C1671 C 0.15622 0.88943 0.59939 0.0
C1672 C 0.15657 0.86363 0.59879 0.0
C1673 C 0.16941 0.85108 0.60849 0.0
C1674 C 0.16979 0.82675 0.60795 0.0
C1675 C 0.15728 0.81478 0.5978 0.0
C1676 C 0.14428 0.82712 0.5882 0.0
C1677 C 0.14382 0.85145 0.5887 0.0
H1678 H 0.15761 0.79594 0.59739 0.0
H1679 H 0.1405 0.03118 0.59992 0.0
H1680 H 0.55916 0.46298 0.88638 0.0
H1681 H 0.58023 0.44222 0.90404 0.0
H1682 H 0.60309 0.39086 0.87459 0.0
H1683 H 0.5823 0.41199 0.85659 0.0
H1684 H 0.58649 0.37213 0.90002 0.0
H1685 H 0.64244 0.42688 0.88416 0.0
H1686 H 0.65644 0.46522 0.87668 0.0
H1687 H 0.64088 0.49465 0.91596 0.0
H1688 H 0.62643 0.45657 0.92362 0.0
H1689 H 0.65943 0.33481 0.95695 0.0
H1690 H 0.64665 0.34481 0.93386 0.0
H1691 H 0.61926 0.41016 0.94903 0.0
H1692 H 0.63206 0.40058 0.97184 0.0
H1693 H 0.64591 0.41628 0.92694 0.0
H1694 H 0.58351 0.36362 0.94104 0.0
H1695 H 0.56809 0.3258 0.94855 0.0
H1696 H 0.59563 0.29262 0.91263 0.0
H1697 H 0.61146 0.33023 0.905 0.0
C1698 C 0.56889 0.44745 0.88356 0.0
C1699 C 0.56939 0.43941 0.87 0.0
C1700 C 0.58079 0.43551 0.8937 0.0
C1701 C 0.59345 0.4152 0.89058 0.0
C1702 C 0.59345 0.40656 0.87717 0.0
C1703 C 0.58156 0.41864 0.86693 0.0
C1704 C 0.6069 0.40364 0.90149 0.0
C1705 C 0.59992 0.38148 0.90574 0.0
C1706 C 0.62431 0.41594 0.90894 0.0
C1707 C 0.63326 0.43886 0.90445 0.0
C1708 C 0.64187 0.44156 0.89119 0.0
C1709 C 0.6499 0.46325 0.88691 0.0
C1710 C 0.64953 0.48237 0.89584 0.0
C1711 C 0.64117 0.47982 0.90906 0.0
C1712 C 0.63309 0.45817 0.91338 0.0
C1713 C 0.65057 0.35124 0.95535 0.0
C1714 C 0.64688 0.36694 0.96625 0.0
C1715 C 0.64327 0.3569 0.94216 0.0
C1716 C 0.63206 0.37827 0.93973 0.0
C1717 C 0.62806 0.39368 0.95064 0.0
C1718 C 0.63535 0.38811 0.96372 0.0
C1719 C 0.62469 0.38525 0.9259 0.0
C1720 C 0.63294 0.40659 0.92105 0.0
C1721 C 0.60847 0.37219 0.91795 0.0
C1722 C 0.59893 0.34965 0.92255 0.0
C1723 C 0.58645 0.34822 0.93481 0.0
C1724 C 0.5776 0.32684 0.93907 0.0
C1725 C 0.58096 0.30681 0.9311 0.0
C1726 C 0.5931 0.30814 0.91882 0.0
C1727 C 0.602 0.32948 0.91452 0.0
H1728 H 0.57409 0.29027 0.93441 0.0
H1729 H 0.65575 0.49915 0.89251 0.0
H1730 H 0.61531 0.09216 0.10156 0.0
H1731 H 0.63186 0.11735 0.1196 0.0
H1732 H 0.60592 0.07034 0.14987 0.0
H1733 H 0.58936 0.04531 0.13202 0.0
H1734 H 0.59617 0.11703 0.15571 0.0
H1735 H 0.662 0.06854 0.14147 0.0
H1736 H 0.69019 0.05285 0.12471 0.0
H1737 H 0.71431 0.12203 0.11646 0.0
H1738 H 0.68601 0.13816 0.13305 0.0
H1739 H 0.65654 0.13547 0.21664 0.0
H1740 H 0.63996 0.12034 0.19545 0.0
H1741 H 0.68004 0.17043 0.1729 0.0
H1742 H 0.69726 0.18536 0.19419 0.0
H1743 H 0.68217 0.1289 0.16087 0.0
H1744 H 0.62049 0.17731 0.17714 0.0
H1745 H 0.59243 0.19366 0.19374 0.0
H1746 H 0.56002 0.12663 0.19768 0.0
H1747 H 0.5881 0.10978 0.18125 0.0
C1748 C 0.61313 0.08731 0.11208 0.0
C1749 C 0.60124 0.06672 0.11541 0.0
C1750 C 0.62263 0.10162 0.12234 0.0
C1751 C 0.62015 0.09562 0.13604 0.0
C1752 C 0.60801 0.07525 0.13936 0.0
C1753 C 0.59875 0.06089 0.12915 0.0
C1754 C 0.63024 0.11027 0.14708 0.0
C1755 C 0.61497 0.1196 0.15689 0.0
C1756 C 0.65469 0.11427 0.1483 0.0
C1757 C 0.6717 0.10457 0.13836 0.0
C1758 C 0.67316 0.08042 0.13599 0.0
C1759 C 0.68919 0.07144 0.12654 0.0
C1760 C 0.70398 0.08644 0.11949 0.0
C1761 C 0.70281 0.11044 0.12191 0.0
C1762 C 0.68679 0.11951 0.13133 0.0
C1763 C 0.66179 0.14336 0.20719 0.0
C1764 C 0.67815 0.16166 0.20708 0.0
C1765 C 0.65219 0.13477 0.19507 0.0
C1766 C 0.65842 0.14453 0.18259 0.0
C1767 C 0.67489 0.16273 0.18242 0.0
C1768 C 0.68467 0.17125 0.19458 0.0
C1769 C 0.64814 0.13509 0.16978 0.0
C1770 C 0.66333 0.12678 0.15961 0.0
C1771 C 0.62356 0.13218 0.16816 0.0
C1772 C 0.60651 0.14225 0.17801 0.0
C1773 C 0.60748 0.16602 0.18161 0.0
C1774 C 0.59155 0.17538 0.19098 0.0
C1775 C 0.57447 0.16119 0.19678 0.0
C1776 C 0.57326 0.1376 0.19318 0.0
C1777 C 0.58915 0.12814 0.18382 0.0
H1778 H 0.56216 0.16847 0.20403 0.0
H1779 H 0.71638 0.07946 0.11219 0.0
H1780 H 0.95259 0.07295 0.37265 0.0
H1781 H 0.93017 0.09212 0.39062 0.0
H1782 H 0.96478 0.15715 0.38215 0.0
H1783 H 0.98768 0.1378 0.36421 0.0
H1784 H 0.96542 0.15023 0.40809 0.0
H1785 H 0.9052 0.14825 0.37479 0.0
H1786 H 0.8796 0.13169 0.35685 0.0
H1787 H 0.85101 0.08329 0.38524 0.0
H1788 H 0.87669 0.09932 0.40332 0.0
H1789 H 0.89231 0.2016 0.45979 0.0
H1790 H 0.90782 0.19402 0.43692 0.0
H1791 H 0.89228 0.12098 0.44098 0.0
H1792 H 0.877 0.1283 0.46378 0.0
H1793 H 0.87986 0.13936 0.41527 0.0
H1794 H 0.94582 0.13854 0.44711 0.0
H1795 H 0.97135 0.1561 0.46479 0.0
H1796 H 0.98825 0.21217 0.43812 0.0
H1797 H 0.96254 0.19508 0.42034 0.0
C1798 C 0.95509 0.09144 0.37441 0.0
C1799 C 0.97183 0.10389 0.36698 0.0
C1800 C 0.9422 0.10243 0.38468 0.0
C1801 C 0.94549 0.1262 0.38763 0.0
C1802 C 0.96189 0.13881 0.38004 0.0
C1803 C 0.97497 0.12775 0.36982 0.0
C1804 C 0.9331 0.13722 0.39932 0.0
C1805 C 0.9466 0.14835 0.40947 0.0
C1806 C 0.90856 0.13464 0.40124 0.0
C1807 C 0.893 0.12492 0.39041 0.0
C1808 C 0.89358 0.13397 0.3772 0.0
C1809 C 0.87903 0.12469 0.367 0.0
C1810 C 0.86371 0.10643 0.3699 0.0
C1811 C 0.86289 0.09744 0.38301 0.0
C1812 C 0.87741 0.10664 0.39325 0.0
C1813 C 0.89202 0.18396 0.45575 0.0
C1814 C 0.88361 0.16551 0.46363 0.0
C1815 C 0.90089 0.17968 0.44271 0.0
C1816 C 0.90125 0.15693 0.43732 0.0
C1817 C 0.8921 0.13866 0.44497 0.0
C1818 C 0.88352 0.14286 0.45803 0.0
C1819 C 0.91232 0.1517 0.42404 0.0
C1820 C 0.89856 0.14166 0.41365 0.0
C1821 C 0.93655 0.15551 0.42182 0.0
C1822 C 0.95205 0.1657 0.43248 0.0
C1823 C 0.95483 0.15472 0.44507 0.0
C1824 C 0.96935 0.16457 0.45509 0.0
C1825 C 0.98135 0.18528 0.4526 0.0
C1826 C 0.9789 0.19616 0.44005 0.0
C1827 C 0.96437 0.1864 0.43 0.0
H1828 H -0.0074 0.19288 0.46037 0.0
H1829 H 0.85246 0.09927 0.362 0.0
H1830 H 0.95524 0.44317 0.61633 0.0
H1831 H 0.93254 0.42204 0.63303 0.0
H1832 H 0.8733 0.46747 0.62624 0.0
H1833 H 0.89649 0.48963 0.61003 0.0
H1834 H 0.88006 0.464 0.65193 0.0
H1835 H 0.87225 0.40842 0.61663 0.0
H1836 H 0.88419 0.38288 0.59755 0.0
H1837 H 0.92913 0.34433 0.62424 0.0
H1838 H 0.91776 0.36984 0.64346 0.0
H1839 H 0.824 0.39424 0.7028 0.0
H1840 H 0.83048 0.40893 0.67977 0.0
H1841 H 0.90331 0.38845 0.68217 0.0
H1842 H 0.89715 0.37425 0.70516 0.0
H1843 H 0.87969 0.37804 0.65622 0.0
H1844 H 0.89207 0.44111 0.68971 0.0
H1845 H 0.87876 0.4669 0.70839 0.0
H1846 H 0.82152 0.49083 0.68363 0.0
H1847 H 0.83435 0.4649 0.66486 0.0
C1848 C 0.93737 0.44868 0.61835 0.0
C1849 C 0.9278 0.46827 0.61193 0.0
C1850 C 0.92423 0.43632 0.62777 0.0
C1851 C 0.90104 0.44294 0.6308 0.0
C1852 C 0.89111 0.46196 0.62403 0.0
C1853 C 0.90435 0.47451 0.61468 0.0
C1854 C 0.88824 0.4313 0.64197 0.0
C1855 C 0.8794 0.44518 0.65264 0.0
C1856 C 0.88737 0.40673 0.643 0.0
C1857 C 0.8942 0.39115 0.6315 0.0
C1858 C 0.88479 0.39459 0.61843 0.0
C1859 C 0.89146 0.38011 0.60758 0.0
C1860 C 0.90743 0.36202 0.60968 0.0
C1861 C 0.91675 0.35834 0.62264 0.0
C1862 C 0.91016 0.37279 0.63352 0.0
C1863 C 0.8413 0.39263 0.69833 0.0
C1864 C 0.86012 0.3833 0.70581 0.0
C1865 C 0.84496 0.401 0.68521 0.0
C1866 C 0.86737 0.39973 0.67932 0.0
C1867 C 0.88587 0.38946 0.68653 0.0
C1868 C 0.88236 0.38153 0.6997 0.0
C1869 C 0.87237 0.4108 0.66616 0.0
C1870 C 0.87976 0.39681 0.65519 0.0
C1871 C 0.87155 0.43523 0.66473 0.0
C1872 C 0.86397 0.45087 0.67597 0.0
C1873 C 0.87653 0.45172 0.6883 0.0
C1874 C 0.8691 0.46639 0.69889 0.0
C1875 C 0.84925 0.48044 0.69722 0.0
C1876 C 0.83685 0.4799 0.68492 0.0
C1877 C 0.84419 0.46523 0.67431 0.0
H1878 H 0.84353 0.49179 0.70542 0.0
H1879 H 0.91258 0.35083 0.60127 0.0
H1880 H 0.58123 0.11653 0.3847 0.0
H1881 H 0.60242 0.13578 0.36638 0.0
H1882 H 0.64344 0.0735 0.35961 0.0
H1883 H 0.62257 0.05434 0.37797 0.0
H1884 H 0.67038 0.11089 0.35702 0.0
H1885 H 0.59437 0.08589 0.34034 0.0
H1886 H 0.55106 0.08392 0.3403 0.0
H1887 H 0.54716 0.15802 0.33554 0.0
H1888 H 0.59049 0.16046 0.33574 0.0
H1889 H 0.69776 0.11087 0.28703 0.0
H1890 H 0.6829 0.10388 0.30984 0.0
H1891 H 0.65539 0.17381 0.31182 0.0
H1892 H 0.67046 0.18109 0.28894 0.0
H1893 H 0.62254 0.13911 0.31829 0.0
H1894 H 0.69998 0.16207 0.33133 0.0
H1895 H 0.74329 0.1622 0.33057 0.0
H1896 H 0.74465 0.08999 0.34127 0.0
H1897 H 0.70132 0.08932 0.3419 0.0
C1898 C 0.59489 0.10703 0.37935 0.0
C1899 C 0.60015 0.08389 0.38271 0.0
C1900 C 0.60698 0.11804 0.3689 0.0
C1901 C 0.62428 0.10596 0.36149 0.0
C1902 C 0.6302 0.08318 0.3652 0.0
C1903 C 0.61826 0.07225 0.37571 0.0
C1904 C 0.6353 0.11638 0.34936 0.0
C1905 C 0.65993 0.11699 0.34853 0.0
C1906 C 0.62167 0.12484 0.3384 0.0
C1907 C 0.59564 0.1234 0.33823 0.0
C1908 C 0.58427 0.10179 0.33939 0.0
C1909 C 0.55972 0.10058 0.33932 0.0
C1910 C 0.54636 0.12084 0.33796 0.0
C1911 C 0.55753 0.14235 0.33663 0.0
C1912 C 0.58208 0.14366 0.33671 0.0
C1913 C 0.68875 0.12486 0.29235 0.0
C1914 C 0.6852 0.14651 0.28616 0.0
C1915 C 0.68039 0.12087 0.30542 0.0
C1916 C 0.66819 0.13838 0.31253 0.0
C1917 C 0.66487 0.16013 0.30649 0.0
C1918 C 0.67352 0.16426 0.29346 0.0
C1919 C 0.65758 0.13318 0.32586 0.0
C1920 C 0.633 0.13348 0.32689 0.0
C1921 C 0.67127 0.1253 0.33691 0.0
C1922 C 0.69736 0.12561 0.33657 0.0
C1923 C 0.7095 0.14616 0.33341 0.0
C1924 C 0.73406 0.14634 0.33303 0.0
C1925 C 0.74672 0.12611 0.33584 0.0
C1926 C 0.73483 0.10565 0.33908 0.0
C1927 C 0.71026 0.10537 0.33947 0.0
H1928 H 0.76574 0.12629 0.33554 0.0
H1929 H 0.52736 0.11987 0.33791 0.0
H1930 H -0.0045 0.10103 0.61758 0.0
H1931 H 0.97601 0.12444 0.60033 0.0
H1932 H 0.93569 0.15954 0.63149 0.0
H1933 H 0.95523 0.13593 0.6489 0.0
H1934 H 0.90834 0.14311 0.6098 0.0
H1935 H 0.97646 0.18971 0.61614 0.0
H1936 H 0.01875 0.19814 0.61873 0.0
H1937 H 0.0315 0.1713 0.5785 0.0
H1938 H 0.98934 0.16236 0.57573 0.0
H1939 H 0.8607 0.20996 0.55487 0.0
H1940 H 0.87941 0.20061 0.57663 0.0
H1941 H 0.93246 0.16077 0.55541 0.0
H1942 H 0.91415 0.17024 0.53374 0.0
H1943 H 0.95175 0.18755 0.57506 0.0
H1944 H 0.88552 0.13459 0.57064 0.0
H1945 H 0.84353 0.1248 0.56798 0.0
H1946 H 0.82762 0.16293 0.60463 0.0
H1947 H 0.86953 0.1732 0.60741 0.0
C1948 C 0.98256 0.11381 0.62076 0.0
C1949 C 0.97677 0.11663 0.63454 0.0
C1950 C 0.97158 0.12729 0.61092 0.0
C1951 C 0.95456 0.14385 0.61465 0.0
C1952 C 0.94887 0.14692 0.62843 0.0
C1953 C 0.96008 0.13355 0.63834 0.0
C1954 C 0.94199 0.15682 0.60393 0.0
C1955 C 0.9177 0.15334 0.60239 0.0
C1956 C 0.9543 0.16986 0.59418 0.0
C1957 C 0.97972 0.17525 0.59576 0.0
C1958 C 0.9883 0.18544 0.60788 0.0
C1959 C 0.01225 0.19034 0.60937 0.0
C1960 C 0.0278 0.18523 0.59879 0.0
C1961 C 0.01943 0.17525 0.58669 0.0
C1962 C -0.00451 0.17029 0.58514 0.0
C1963 C 0.87638 0.19925 0.55486 0.0
C1964 C 0.8859 0.19074 0.5426 0.0
C1965 C 0.88702 0.19391 0.56729 0.0
C1966 C 0.90725 0.17989 0.56763 0.0
C1967 C 0.91691 0.17169 0.55538 0.0
C1968 C 0.90635 0.17702 0.543 0.0
C1969 C 0.91829 0.17312 0.58068 0.0
C1970 C 0.94229 0.17779 0.58265 0.0
C1971 C 0.90573 0.1611 0.59079 0.0
C1972 C 0.88058 0.15491 0.58913 0.0
C1973 C 0.87303 0.14105 0.57806 0.0
C1974 C 0.84926 0.13538 0.57655 0.0
C1975 C 0.8329 0.14331 0.5861 0.0
C1976 C 0.8403 0.15686 0.59722 0.0
C1977 C 0.86406 0.1626 0.59877 0.0
H1978 H 0.8145 0.1389 0.58491 0.0
H1979 H 0.04634 0.18904 0.59997 0.0
H1980 H 0.93377 0.4944 0.86229 0.0
H1981 H 0.91056 0.47557 0.84434 0.0
H1982 H 0.87233 0.43707 0.8744 0.0
H1983 H 0.8957 0.45599 0.89253 0.0
H1984 H 0.88946 0.40935 0.85284 0.0
H1985 H 0.84406 0.47828 0.85875 0.0
H1986 H 0.83696 0.52043 0.8614 0.0
H1987 H 0.8656 0.53203 0.82177 0.0
H1988 H 0.87321 0.48998 0.81896 0.0
H1989 H 0.82021 0.36348 0.79767 0.0
H1990 H 0.8309 0.3821 0.81937 0.0
H1991 H 0.87112 0.43361 0.79803 0.0
H1992 H 0.86019 0.41543 0.77637 0.0
H1993 H 0.8461 0.4536 0.81775 0.0
H1994 H 0.89724 0.38645 0.81344 0.0
H1995 H 0.90607 0.34461 0.81068 0.0
H1996 H 0.86794 0.33006 0.84716 0.0
H1997 H 0.85864 0.37181 0.85003 0.0
C1998 C 0.92036 0.48198 0.86508 0.0
C1999 C 0.91657 0.47655 0.87877 0.0
C2000 C 0.90701 0.47136 0.85484 0.0
C2001 C 0.88963 0.45506 0.85806 0.0
C2002 C 0.88562 0.44969 0.87174 0.0
C2003 C 0.89886 0.46054 0.88204 0.0
C2004 C 0.87659 0.44303 0.84697 0.0
C2005 C 0.87948 0.41891 0.84532 0.0
C2006 C 0.86396 0.45562 0.83707 0.0
C2007 C 0.85933 0.48095 0.83868 0.0
C2008 C 0.84901 0.48983 0.85064 0.0
C2009 C 0.84487 0.51371 0.85217 0.0
C2010 C 0.85086 0.5289 0.84177 0.0
C2011 C 0.86097 0.52024 0.82982 0.0
C2012 C 0.86517 0.49637 0.82824 0.0
C2013 C 0.83128 0.37881 0.79762 0.0
C2014 C 0.83946 0.38793 0.78532 0.0
C2015 C 0.83741 0.38939 0.81002 0.0
C2016 C 0.85198 0.40913 0.81033 0.0
C2017 C 0.85982 0.41843 0.79804 0.0
C2018 C 0.85363 0.40795 0.78566 0.0
C2019 C 0.85958 0.42002 0.82339 0.0
C2020 C 0.85566 0.44394 0.8254 0.0
C2021 C 0.87139 0.40727 0.83357 0.0
C2022 C 0.87699 0.38219 0.83186 0.0
C2023 C 0.89058 0.3743 0.82081 0.0
C2024 C 0.8957 0.35061 0.81924 0.0
C2025 C 0.8875 0.33468 0.82872 0.0
C2026 C 0.87423 0.34241 0.83981 0.0
C2027 C 0.86903 0.36608 0.84142 0.0
H2028 H 0.89149 0.31635 0.82749 0.0
H2029 H 0.84764 0.54739 0.84297 0.0
H2030 H 0.59634 0.40515 0.15138 0.0
H2031 H 0.61485 0.38001 0.13399 0.0
H2032 H 0.58022 0.41897 0.10253 0.0
H2033 H 0.56199 0.44409 0.11971 0.0
H2034 H 0.57638 0.36896 0.10002 0.0
H2035 H 0.63453 0.43042 0.10847 0.0
H2036 H 0.66179 0.45269 0.12323 0.0
H2037 H 0.69843 0.38971 0.13312 0.0
H2038 H 0.67115 0.36704 0.11854 0.0
H2039 H 0.62641 0.35998 0.03639 0.0
H2040 H 0.61147 0.37137 0.05859 0.0
H2041 H 0.66627 0.33161 0.07797 0.0
H2042 H 0.68183 0.3205 0.05554 0.0
H2043 H 0.66175 0.37291 0.09012 0.0
H2044 H 0.60914 0.3123 0.07841 0.0
H2045 H 0.58222 0.28902 0.064 0.0
H2046 H 0.53514 0.34722 0.0612 0.0
H2047 H 0.56193 0.37099 0.07543 0.0
C2048 C 0.59276 0.40828 0.14074 0.0
C2049 C 0.57793 0.42665 0.13685 0.0
C2050 C 0.60332 0.39398 0.13086 0.0
C2051 C 0.59884 0.3977 0.11702 0.0
C2052 C 0.58383 0.41584 0.11317 0.0
C2053 C 0.57361 0.43027 0.12298 0.0
C2054 C 0.60978 0.38304 0.10633 0.0
C2055 C 0.59504 0.36974 0.09783 0.0
C2056 C 0.63424 0.38336 0.10387 0.0
C2057 C 0.65064 0.39702 0.11257 0.0
C2058 C 0.64826 0.42131 0.11389 0.0
C2059 C 0.66375 0.434 0.1222 0.0
C2060 C 0.68178 0.42261 0.12915 0.0
C2061 C 0.68442 0.39851 0.12776 0.0
C2062 C 0.66896 0.38573 0.11947 0.0
C2063 C 0.63526 0.3535 0.04534 0.0
C2064 C 0.65527 0.33928 0.04421 0.0
C2065 C 0.62658 0.35992 0.05806 0.0
C2066 C 0.63745 0.35198 0.06996 0.0
C2067 C 0.65751 0.33779 0.06891 0.0
C2068 C 0.66634 0.33145 0.05611 0.0
C2069 C 0.62817 0.35955 0.08339 0.0
C2070 C 0.64318 0.3715 0.09245 0.0
C2071 C 0.60395 0.35772 0.08647 0.0
C2072 C 0.58763 0.34347 0.07796 0.0
C2073 C 0.59312 0.32019 0.07466 0.0
C2074 C 0.57787 0.3069 0.06653 0.0
C2075 C 0.55699 0.31664 0.06168 0.0
C2076 C 0.55131 0.33969 0.06497 0.0
C2077 C 0.5665 0.35308 0.07309 0.0
H2078 H 0.54521 0.30632 0.05538 0.0
H2079 H 0.69376 0.43247 0.13557 0.0
loop_
_geom_bond_atom_site_label_1
_geom_bond_atom_site_label_2
_geom_bond_distance
_geom_bond_site_symmetry_2
_ccdc_geom_bond_type
C0 C1 1.384 . S
C0 C2 1.384 . S
C0 H28 0.931 . S
C1 C0 1.384 . S
C1 C4 1.382 1_565 S
C2 C0 1.384 . S
C2 C3 1.381 1_565 S
C2 H29 0.930 . S
C3 C2 1.381 1_545 S
C3 C5 1.381 . S
C3 C6 1.487 . S
C4 C1 1.382 1_545 S
C4 C5 1.387 . S
C4 H30 0.930 . S
C5 C3 1.381 . S
C5 C4 1.387 . S
C5 H31 0.931 . S
C6 C3 1.487 . S
C6 C13 1.399 . S
C6 N44 1.343 . S
C7 C8 1.384 . S
C7 C9 1.384 1_565 S
C7 H32 0.933 . S
C8 C7 1.384 . S
C8 C11 1.382 . S
C9 C7 1.384 1_545 S
C9 C10 1.381 . S
C9 H33 0.930 . S
C10 C9 1.381 . S
C10 C12 1.381 1_545 S
C10 C13 1.487 . S
C11 C8 1.382 . S
C11 C12 1.387 . S
C11 H34 0.930 . S
C12 C10 1.381 1_565 S
C12 C11 1.387 . S
C12 H35 0.931 . S
C13 C6 1.399 . S
C13 C10 1.487 . S
C13 N45 1.343 . S
C14 C15 1.384 . S
C14 C16 1.384 1_655 S
C14 H36 0.931 . S
C15 C14 1.384 . S
C15 C18 1.382 . S
C16 C14 1.384 1_455 S
C16 C17 1.381 . S
C16 H37 0.930 . S
C17 C16 1.381 . S
C17 C19 1.381 1_455 S
C17 C20 1.487 . S
C18 C15 1.382 . S
C18 C19 1.387 . S
C18 H38 0.930 . S
C19 C17 1.381 1_655 S
C19 C18 1.387 . S
C19 H39 0.931 . S
C20 C17 1.487 . S
C20 C27 1.399 . S
C20 N45 1.343 . S
C21 C22 1.384 . S
C21 C23 1.384 . S
C21 H40 0.931 . S
C22 C21 1.384 . S
C22 C25 1.382 1_655 S
C23 C21 1.384 . S
C23 C24 1.381 1_655 S
C23 H41 0.930 . S
C24 C23 1.381 1_455 S
C24 C26 1.381 . S
C24 C27 1.487 . S
C25 C22 1.382 1_455 S
C25 C26 1.387 . S
C25 H42 0.930 . S
C26 C24 1.381 . S
C26 C25 1.387 . S
C26 H43 0.931 . S
C27 C20 1.399 . S
C27 C24 1.487 . S
C27 N44 1.343 . S
H28 C0 0.931 . S
H29 C2 0.930 . S
H30 C4 0.930 . S
H31 C5 0.931 . S
H32 C7 0.933 . S
H33 C9 0.930 . S
H34 C11 0.930 . S
H35 C12 0.931 . S
H36 C14 0.931 . S
H37 C16 0.930 . S
H38 C18 0.930 . S
H39 C19 0.931 . S
H40 C21 0.931 . S
H41 C23 0.930 . S
H42 C25 0.930 . S
H43 C26 0.931 . S
N44 C6 1.343 . S
N44 C27 1.343 . S
N45 C13 1.343 . S
N45 C20 1.343 . S
C46 C47 1.384 . S
C46 C48 1.384 . S
C46 H74 0.931 . S
C47 C46 1.384 . S
C47 C50 1.382 . S
C48 C46 1.384 . S
C48 C49 1.381 . S
C48 H75 0.930 . S
C49 C48 1.381 . S
C49 C51 1.381 . S
C49 C52 1.487 1_655 S
C50 C47 1.382 . S
C50 C51 1.387 . S
C50 H76 0.930 . S
C51 C49 1.381 . S
C51 C50 1.387 . S
C51 H77 0.931 1_655 S
C52 C49 1.487 1_455 S
C52 C59 1.399 . S
C52 N90 1.343 . S
C53 C54 1.384 . S
C53 C55 1.384 . S
C53 H78 0.931 . S
C54 C53 1.384 . S
C54 C57 1.382 . S
C55 C53 1.384 . S
C55 C56 1.381 . S
C55 H79 0.930 . S
C56 C55 1.381 . S
C56 C58 1.381 . S
C56 C59 1.487 1_655 S
C57 C54 1.382 . S
C57 C58 1.387 . S
C57 H80 0.930 . S
C58 C56 1.381 . S
C58 C57 1.387 . S
C58 H81 0.931 . S
C59 C52 1.399 . S
C59 C56 1.487 1_455 S
C59 N91 1.343 . S
C60 C61 1.384 . S
C60 C62 1.384 . S
C60 H82 0.931 . S
C61 C60 1.384 . S
C61 C64 1.382 . S
C62 C60 1.384 . S
C62 C63 1.381 . S
C62 H83 0.930 . S
C63 C62 1.381 . S
C63 C65 1.381 . S
C63 C66 1.487 . S
C64 C61 1.382 . S
C64 C65 1.387 . S
C64 H84 0.930 . S
C65 C63 1.381 . S
C65 C64 1.387 . S
C65 H85 0.931 . S
C66 C63 1.487 . S
C66 C73 1.399 . S
C66 N91 1.343 . S
C67 C68 1.384 . S
C67 C69 1.384 . S
C67 H86 0.931 . S
C68 C67 1.384 . S
C68 C71 1.382 . S
C69 C67 1.384 . S
C69 C70 1.381 . S
C69 H87 0.930 . S
C70 C69 1.381 . S
C70 C72 1.381 . S
C70 C73 1.487 . S
C71 C68 1.382 . S
C71 C72 1.387 . S
C71 H88 0.930 . S
C72 C70 1.381 . S
C72 C71 1.387 . S
C72 H89 0.931 . S
C73 C66 1.399 . S
C73 C70 1.487 . S
C73 N90 1.343 . S
H74 C46 0.931 . S
H75 C48 0.930 . S
H76 C50 0.930 . S
H77 C51 0.931 1_455 S
H78 C53 0.931 . S
H79 C55 0.930 . S
H80 C57 0.930 . S
H81 C58 0.931 . S
H82 C60 0.931 . S
H83 C62 0.930 . S
H84 C64 0.930 . S
H85 C65 0.931 . S
H86 C67 0.931 . S
H87 C69 0.930 . S
H88 C71 0.930 . S
H89 C72 0.931 . S
N90 C52 1.343 . S
N90 C73 1.343 . S
N91 C59 1.343 . S
N91 C66 1.343 . S
C92 C93 1.384 . S
C92 C94 1.384 . S
C92 H120 0.931 . S
C93 C92 1.384 . S
C93 C96 1.382 . S
C94 C92 1.384 . S
C94 C95 1.381 . S
C94 H121 0.930 . S
C95 C94 1.381 . S
C95 C97 1.381 . S
C95 C98 1.487 . S
C96 C93 1.382 . S
C96 C97 1.387 . S
C96 H122 0.930 . S
C97 C95 1.381 . S
C97 C96 1.387 . S
C97 H123 0.931 . S
C98 C95 1.487 . S
C98 C105 1.399 . S
C98 N136 1.343 . S
C99 C100 1.384 . S
C99 C101 1.384 . S
C99 H124 0.931 . S
C100 C99 1.384 . S
C100 C103 1.382 . S
C101 C99 1.384 . S
C101 C102 1.381 . S
C101 H125 0.930 . S
C102 C101 1.381 . S
C102 C104 1.381 . S
C102 C105 1.487 . S
C103 C100 1.382 . S
C103 C104 1.387 . S
C103 H126 0.930 . S
C104 C102 1.381 . S
C104 C103 1.387 . S
C104 H127 0.931 . S
C105 C98 1.399 . S
C105 C102 1.487 . S
C105 N137 1.343 . S
C106 C107 1.384 . S
C106 C108 1.384 . S
C106 H128 0.931 . S
C107 C106 1.384 . S
C107 C110 1.382 . S
C108 C106 1.384 . S
C108 C109 1.381 . S
C108 H129 0.930 . S
C109 C108 1.381 . S
C109 C111 1.381 . S
C109 C112 1.487 . S
C110 C107 1.382 . S
C110 C111 1.387 . S
C110 H130 0.930 . S
C111 C109 1.381 . S
C111 C110 1.387 . S
C111 H131 0.931 . S
C112 C109 1.487 . S
C112 C119 1.399 . S
C112 N137 1.343 . S
C113 C114 1.384 . S
C113 C115 1.384 . S
C113 H132 0.931 . S
C114 C113 1.384 . S
C114 C117 1.382 . S
C115 C113 1.384 . S
C115 C116 1.381 . S
C115 H133 0.930 . S
C116 C115 1.381 . S
C116 C118 1.381 . S
C116 C119 1.487 . S
C117 C114 1.382 . S
C117 C118 1.387 . S
C117 H134 0.930 . S
C118 C116 1.381 . S
C118 C117 1.387 . S
C118 H135 0.931 . S
C119 C112 1.399 . S
C119 C116 1.487 . S
C119 N136 1.343 . S
H120 C92 0.931 . S
H121 C94 0.930 . S
H122 C96 0.930 . S
H123 C97 0.931 . S
H124 C99 0.931 . S
H125 C101 0.930 . S
H126 C103 0.930 . S
H127 C104 0.931 . S
H128 C106 0.931 . S
H129 C108 0.930 . S
H130 C110 0.930 . S
H131 C111 0.931 . S
H132 C113 0.931 . S
H133 C115 0.930 . S
H134 C117 0.930 . S
H135 C118 0.931 . S
N136 C98 1.343 . S
N136 C119 1.343 . S
N137 C105 1.343 . S
N137 C112 1.343 . S
C138 C139 1.384 . S
C138 C140 1.384 . S
C138 H166 0.931 . S
C139 C138 1.384 . S
C139 C142 1.382 . S
C140 C138 1.384 . S
C140 C141 1.381 . S
C140 H167 0.930 . S
C141 C140 1.381 . S
C141 C143 1.381 . S
C141 C144 1.487 . S
C142 C139 1.382 . S
C142 C143 1.387 . S
C142 H168 0.930 . S
C143 C141 1.381 . S
C143 C142 1.387 . S
C143 H169 0.931 . S
C144 C141 1.487 . S
C144 C151 1.399 . S
C144 N182 1.343 1_565 S
C145 C146 1.384 . S
C145 C147 1.384 . S
C145 H170 0.931 . S
C146 C145 1.384 . S
C146 C149 1.382 . S
C147 C145 1.384 . S
C147 C148 1.381 . S
C147 H171 0.930 . S
C148 C147 1.381 . S
C148 C150 1.381 . S
C148 C151 1.487 . S
C149 C146 1.382 . S
C149 C150 1.387 . S
C149 H172 0.930 . S
C150 C148 1.381 . S
C150 C149 1.387 . S
C150 H173 0.931 . S
C151 C144 1.399 . S
C151 C148 1.487 . S
C151 N183 1.343 . S
C152 C153 1.384 . S
C152 C154 1.384 . S
C152 H174 0.931 . S
C153 C152 1.384 . S
C153 C156 1.382 . S
C154 C152 1.384 . S
C154 C155 1.381 . S
C154 H175 0.930 . S
C155 C154 1.381 . S
C155 C157 1.381 . S
C155 C158 1.487 . S
C156 C153 1.382 . S
C156 C157 1.387 . S
C156 H176 0.930 . S
C157 C155 1.381 . S
C157 C156 1.387 . S
C157 H177 0.931 . S
C158 C155 1.487 . S
C158 C165 1.399 . S
C158 N183 1.343 1_545 S
C159 C160 1.384 . S
C159 C161 1.384 . S
C159 H178 0.931 . S
C160 C159 1.384 . S
C160 C163 1.382 . S
C161 C159 1.384 . S
C161 C162 1.381 . S
C161 H179 0.930 . S
C162 C161 1.381 . S
C162 C164 1.381 . S
C162 C165 1.487 . S
C163 C160 1.382 . S
C163 C164 1.387 . S
C163 H180 0.930 . S
C164 C162 1.381 . S
C164 C163 1.387 . S
C164 H181 0.931 . S
C165 C158 1.399 . S
C165 C162 1.487 . S
C165 N182 1.343 . S
H166 C138 0.931 . S
H167 C140 0.930 . S
H168 C142 0.930 . S
H169 C143 0.931 . S
H170 C145 0.931 . S
H171 C147 0.930 . S
H172 C149 0.930 . S
H173 C150 0.931 . S
H174 C152 0.931 . S
H175 C154 0.930 . S
H176 C156 0.930 . S
H177 C157 0.931 . S
H178 C159 0.931 . S
H179 C161 0.930 . S
H180 C163 0.930 . S
H181 C164 0.931 . S
N182 C144 1.343 1_545 S
N182 C165 1.343 . S
N183 C151 1.343 . S
N183 C158 1.343 1_565 S
C184 C185 1.384 . S
C184 C186 1.384 . S
C184 H212 0.931 . S
C185 C184 1.384 . S
C185 C188 1.382 . S
C186 C184 1.384 . S
C186 C187 1.381 . S
C186 H213 0.930 . S
C187 C186 1.381 . S
C187 C189 1.381 . S
C187 C190 1.487 . S
C188 C185 1.382 . S
C188 C189 1.387 . S
C188 H214 0.930 . S
C189 C187 1.381 . S
C189 C188 1.387 . S
C189 H215 0.931 . S
C190 C187 1.487 . S
C190 C197 1.399 . S
C190 N228 1.343 . S
C191 C192 1.384 . S
C191 C193 1.384 . S
C191 H216 0.931 . S
C192 C191 1.384 . S
C192 C195 1.382 . S
C193 C191 1.384 . S
C193 C194 1.381 . S
C193 H217 0.930 . S
C194 C193 1.381 . S
C194 C196 1.381 . S
C194 C197 1.487 . S
C195 C192 1.382 . S
C195 C196 1.387 . S
C195 H218 0.930 . S
C196 C194 1.381 . S
C196 C195 1.387 . S
C196 H219 0.931 . S
C197 C190 1.399 . S
C197 C194 1.487 . S
C197 N229 1.324 1_455 S
C198 C199 1.384 . S
C198 C200 1.384 . S
C198 H220 0.931 . S
C199 C198 1.384 . S
C199 C202 1.382 . S
C200 C198 1.384 . S
C200 C201 1.381 . S
C200 H221 0.930 . S
C201 C200 1.381 . S
C201 C203 1.381 . S
C201 C204 1.487 . S
C202 C199 1.382 . S
C202 C203 1.387 . S
C202 H222 0.930 . S
C203 C201 1.381 . S
C203 C202 1.387 . S
C203 H223 0.931 . S
C204 C201 1.487 . S
C204 C211 1.399 . S
C204 N229 1.360 . S
C205 C206 1.384 . S
C205 C207 1.384 . S
C205 H224 0.931 . S
C206 C205 1.384 . S
C206 C209 1.382 . S
C207 C205 1.384 . S
C207 C208 1.381 . S
C207 H225 0.930 . S
C208 C207 1.381 . S
C208 C210 1.381 . S
C208 C211 1.487 . S
C209 C206 1.382 . S
C209 C210 1.387 . S
C209 H226 0.930 . S
C210 C208 1.381 . S
C210 C209 1.387 . S
C210 H227 0.931 . S
C211 C204 1.399 . S
C211 C208 1.487 . S
C211 N228 1.343 1_655 S
H212 C184 0.931 . S
H213 C186 0.930 . S
H214 C188 0.930 . S
H215 C189 0.931 . S
H216 C191 0.931 . S
H217 C193 0.930 . S
H218 C195 0.930 . S
H219 C196 0.931 . S
H220 C198 0.931 . S
H221 C200 0.930 . S
H222 C202 0.930 . S
H223 C203 0.931 . S
H224 C205 0.931 . S
H225 C207 0.930 . S
H226 C209 0.930 . S
H227 C210 0.931 . S
N228 C190 1.343 . S
N228 C211 1.343 1_455 S
N229 C197 1.324 1_655 S
N229 C204 1.360 . S
C230 C231 1.384 . S
C230 C232 1.384 . S
C230 H258 0.931 . S
C231 C230 1.384 . S
C231 C234 1.382 . S
C232 C230 1.384 . S
C232 C233 1.381 . S
C232 H259 0.930 . S
C233 C232 1.381 . S
C233 C235 1.381 . S
C233 C236 1.487 . S
C234 C231 1.382 . S
C234 C235 1.387 . S
C234 H260 0.930 . S
C235 C233 1.381 . S
C235 C234 1.387 . S
C235 H261 0.931 . S
C236 C233 1.487 . S
C236 C243 1.399 . S
C236 N274 1.343 . S
C237 C238 1.384 . S
C237 C239 1.384 . S
C237 H262 0.931 . S
C238 C237 1.384 . S
C238 C241 1.382 . S
C239 C237 1.384 . S
C239 C240 1.381 . S
C239 H263 0.930 . S
C240 C239 1.381 . S
C240 C242 1.381 . S
C240 C243 1.487 . S
C241 C238 1.382 . S
C241 C242 1.387 . S
C241 H264 0.930 . S
C242 C240 1.381 . S
C242 C241 1.387 . S
C242 H265 0.931 . S
C243 C236 1.399 . S
C243 C240 1.487 . S
C243 N275 1.343 . S
C244 C245 1.384 . S
C244 C246 1.384 . S
C244 H266 0.931 . S
C245 C244 1.384 . S
C245 C248 1.382 . S
C246 C244 1.384 . S
C246 C247 1.381 . S
C246 H267 0.930 . S
C247 C246 1.381 . S
C247 C249 1.381 . S
C247 C250 1.487 . S
C248 C245 1.382 . S
C248 C249 1.387 . S
C248 H268 0.930 . S
C249 C247 1.381 . S
C249 C248 1.387 . S
C249 H269 0.931 . S
C250 C247 1.487 . S
C250 C257 1.399 . S
C250 N275 1.343 . S
C251 C252 1.384 . S
C251 C253 1.384 . S
C251 H270 0.931 . S
C252 C251 1.384 . S
C252 C255 1.382 . S
C253 C251 1.384 . S
C253 C254 1.381 . S
C253 H271 0.930 . S
C254 C253 1.381 . S
C254 C256 1.381 . S
C254 C257 1.487 . S
C255 C252 1.382 . S
C255 C256 1.387 . S
C255 H272 0.930 . S
C256 C254 1.381 . S
C256 C255 1.387 . S
C256 H273 0.931 . S
C257 C250 1.399 . S
C257 C254 1.487 . S
C257 N274 1.343 . S
H258 C230 0.931 . S
H259 C232 0.930 . S
H260 C234 0.930 . S
H261 C235 0.931 . S
H262 C237 0.931 . S
H263 C239 0.930 . S
H264 C241 0.930 . S
H265 C242 0.931 . S
H266 C244 0.931 . S
H267 C246 0.930 . S
H268 C248 0.930 . S
H269 C249 0.931 . S
H270 C251 0.931 . S
H271 C253 0.930 . S
H272 C255 0.930 . S
H273 C256 0.931 . S
N274 C236 1.343 . S
N274 C257 1.343 . S
N275 C243 1.343 . S
N275 C250 1.343 . S
C276 C277 1.384 . S
C276 C278 1.384 . S
C276 H304 0.931 . S
C277 C276 1.384 . S
C277 C280 1.382 . S
C278 C276 1.384 . S
C278 C279 1.381 . S
C278 H305 0.930 . S
C279 C278 1.381 . S
C279 C281 1.381 . S
C279 C282 1.474 1_565 S
C280 C277 1.382 . S
C280 C281 1.387 . S
C280 H306 0.930 . S
C281 C279 1.381 . S
C281 C280 1.387 . S
C281 H307 0.931 1_565 S
C282 C279 1.474 1_545 S
C282 C289 1.398 . S
C282 N320 1.358 . S
C283 C284 1.384 . S
C283 C285 1.384 . S
C283 H308 0.931 . S
C284 C283 1.384 . S
C284 C287 1.382 . S
C285 C283 1.384 . S
C285 C286 1.381 . S
C285 H309 0.930 . S
C286 C285 1.381 . S
C286 C288 1.381 . S
C286 C289 1.486 1_565 S
C287 C284 1.382 . S
C287 C288 1.387 . S
C287 H310 0.930 . S
C288 C286 1.381 . S
C288 C287 1.387 . S
C288 H311 0.931 . S
C289 C282 1.398 . S
C289 C286 1.486 1_545 S
C289 N321 1.344 . S
C290 C291 1.384 . S
C290 C292 1.384 . S
C290 H312 0.931 . S
C291 C290 1.384 . S
C291 C294 1.382 . S
C292 C290 1.384 . S
C292 C293 1.381 . S
C292 H313 0.930 . S
C293 C292 1.381 . S
C293 C295 1.381 . S
C293 C296 1.487 . S
C294 C291 1.382 . S
C294 C295 1.387 . S
C294 H314 0.930 . S
C295 C293 1.381 . S
C295 C294 1.387 . S
C295 H315 0.931 . S
C296 C293 1.487 . S
C296 C303 1.399 . S
C296 N321 1.343 . S
C297 C298 1.384 . S
C297 C299 1.384 . S
C297 H316 0.931 . S
C298 C297 1.384 . S
C298 C301 1.382 . S
C299 C297 1.384 . S
C299 C300 1.381 . S
C299 H317 0.930 . S
C300 C299 1.381 . S
C300 C302 1.381 . S
C300 C303 1.487 . S
C301 C298 1.382 . S
C301 C302 1.387 . S
C301 H318 0.930 . S
C302 C300 1.381 . S
C302 C301 1.387 . S
C302 H319 0.931 . S
C303 C296 1.399 . S
C303 C300 1.487 . S
C303 N320 1.343 . S
H304 C276 0.931 . S
H305 C278 0.930 . S
H306 C280 0.930 . S
H307 C281 0.931 1_545 S
H308 C283 0.931 . S
H309 C285 0.930 . S
H310 C287 0.930 . S
H311 C288 0.931 . S
H312 C290 0.931 . S
H313 C292 0.930 . S
H314 C294 0.930 . S
H315 C295 0.931 . S
H316 C297 0.931 . S
H317 C299 0.930 . S
H318 C301 0.930 . S
H319 C302 0.931 . S
N320 C282 1.358 . S
N320 C303 1.343 . S
N321 C289 1.344 . S
N321 C296 1.343 . S
C322 C323 1.384 1_545 S
C322 C324 1.384 . S
C322 H350 0.935 . S
C323 C322 1.384 1_565 S
C323 C326 1.382 . S
C324 C322 1.384 . S
C324 C325 1.381 . S
C324 H351 0.930 . S
C325 C324 1.381 . S
C325 C327 1.381 . S
C325 C328 1.487 . S
C326 C323 1.382 . S
C326 C327 1.387 1_565 S
C326 H352 0.930 . S
C327 C325 1.381 . S
C327 C326 1.387 1_545 S
C327 H353 0.931 . S
C328 C325 1.487 . S
C328 C335 1.399 . S
C328 N366 1.343 . S
C329 C330 1.384 . S
C329 C331 1.384 . S
C329 H354 0.931 . S
C330 C329 1.384 . S
C330 C333 1.382 1_565 S
C331 C329 1.384 . S
C331 C332 1.382 1_565 S
C331 H355 0.930 . S
C332 C331 1.382 1_545 S
C332 C334 1.381 . S
C332 C335 1.487 . S
C333 C330 1.382 1_545 S
C333 C334 1.387 . S
C333 H356 0.930 . S
C334 C332 1.381 . S
C334 C333 1.387 . S
C334 H357 0.931 . S
C335 C328 1.399 . S
C335 C332 1.487 . S
C335 N367 1.343 . S
C336 C337 1.384 . S
C336 C338 1.384 . S
C336 H358 0.931 . S
C337 C336 1.384 . S
C337 C340 1.382 1_655 S
C338 C336 1.384 . S
C338 C339 1.381 1_655 S
C338 H359 0.930 . S
C339 C338 1.381 1_455 S
C339 C341 1.381 . S
C339 C342 1.487 . S
C340 C337 1.382 1_455 S
C340 C341 1.387 . S
C340 H360 0.930 . S
C341 C339 1.381 . S
C341 C340 1.387 . S
C341 H361 0.931 . S
C342 C339 1.487 . S
C342 C349 1.399 . S
C342 N367 1.343 . S
C343 C344 1.384 1_455 S
C343 C345 1.384 . S
C343 H362 0.931 . S
C344 C343 1.384 1_655 S
C344 C347 1.382 . S
C345 C343 1.384 . S
C345 C346 1.381 . S
C345 H363 0.930 . S
C346 C345 1.381 . S
C346 C348 1.381 . S
C346 C349 1.487 . S
C347 C344 1.382 . S
C347 C348 1.387 1_655 S
C347 H364 0.930 . S
C348 C346 1.381 . S
C348 C347 1.387 1_455 S
C348 H365 0.931 . S
C349 C342 1.399 . S
C349 C346 1.487 . S
C349 N366 1.343 . S
H350 C322 0.935 . S
H351 C324 0.930 . S
H352 C326 0.930 . S
H353 C327 0.931 . S
H354 C329 0.931 . S
H355 C331 0.930 . S
H356 C333 0.930 . S
H357 C334 0.931 . S
H358 C336 0.931 . S
H359 C338 0.930 . S
H360 C340 0.930 . S
H361 C341 0.931 . S
H362 C343 0.931 . S
H363 C345 0.930 . S
H364 C347 0.930 . S
H365 C348 0.931 . S
N366 C328 1.343 . S
N366 C349 1.343 . S
N367 C335 1.343 . S
N367 C342 1.343 . S
C368 O369 1.306 . S
C368 O371 1.160 . S
O369 C368 1.306 . S
O369 Cd370 2.228 . S
Cd370 O369 2.228 . S
Cd370 O374 2.273 1_554 S
Cd370 O378 2.277 . S
O371 C368 1.160 . S
O371 Cd372 2.203 . S
Cd372 O371 2.203 . S
Cd372 O374 2.411 1_554 S
Cd372 O375 2.333 1_554 S
Cd372 O376 2.352 . S
Cd372 O380 2.277 . S
Cd372 O381 2.356 . S
C373 O378 1.209 . S
C373 O380 1.226 . S
O374 Cd370 2.273 1_556 S
O374 Cd372 2.411 1_556 S
O374 C377 1.320 . S
O375 Cd372 2.333 1_556 S
O375 C377 1.214 . S
O376 Cd372 2.352 . S
O376 C379 1.258 . S
C377 O374 1.320 . S
C377 O375 1.214 . S
O378 Cd370 2.277 . S
O378 C373 1.209 . S
C379 O376 1.258 . S
C379 O381 1.282 . S
O380 Cd372 2.277 . S
O380 C373 1.226 . S
O381 Cd372 2.356 . S
O381 C379 1.282 . S
C382 O383 1.306 . S
C382 O385 1.160 . S
O383 C382 1.306 . S
O383 Cd384 2.228 . S
Cd384 O383 2.228 . S
Cd384 O388 2.273 . S
Cd384 O392 2.277 . S
O385 C382 1.160 . S
O385 Cd386 2.203 . S
Cd386 O385 2.203 . S
Cd386 O388 2.411 . S
Cd386 O389 2.333 . S
Cd386 O390 2.352 . S
Cd386 O394 2.277 . S
Cd386 O395 2.356 . S
C387 O392 1.209 . S
C387 O394 1.226 . S
O388 Cd384 2.273 . S
O388 Cd386 2.411 . S
O388 C391 1.320 . S
O389 Cd386 2.333 . S
O389 C391 1.214 . S
O390 Cd386 2.352 . S
O390 C393 1.258 . S
C391 O388 1.320 . S
C391 O389 1.214 . S
O392 Cd384 2.277 . S
O392 C387 1.209 . S
C393 O390 1.258 . S
C393 O395 1.282 . S
O394 Cd386 2.277 . S
O394 C387 1.226 . S
O395 Cd386 2.356 . S
O395 C393 1.282 . S
C396 O397 1.306 . S
C396 O399 1.160 . S
O397 C396 1.306 . S
O397 Cd398 2.228 . S
Cd398 O397 2.228 . S
Cd398 O402 2.273 . S
Cd398 O406 2.277 . S
O399 C396 1.160 . S
O399 Cd400 2.203 . S
Cd400 O399 2.203 . S
Cd400 O402 2.411 . S
Cd400 O403 2.333 . S
Cd400 O404 2.352 . S
Cd400 O408 2.277 . S
Cd400 O409 2.356 . S
C401 O406 1.209 . S
C401 O408 1.226 . S
O402 Cd398 2.273 . S
O402 Cd400 2.411 . S
O402 C405 1.320 . S
O403 Cd400 2.333 . S
O403 C405 1.214 . S
O404 Cd400 2.352 . S
O404 C407 1.258 . S
C405 O402 1.320 . S
C405 O403 1.214 . S
O406 Cd398 2.277 . S
O406 C401 1.209 . S
C407 O404 1.258 . S
C407 O409 1.282 . S
O408 Cd400 2.277 . S
O408 C401 1.226 . S
O409 Cd400 2.356 . S
O409 C407 1.282 . S
C410 O411 1.306 . S
C410 O413 1.160 . S
O411 C410 1.306 . S
O411 Cd412 2.228 . S
Cd412 O411 2.228 . S
Cd412 O416 2.273 . S
Cd412 O420 2.277 . S
O413 C410 1.160 . S
O413 Cd414 2.203 . S
Cd414 O413 2.203 . S
Cd414 O416 2.411 . S
Cd414 O417 2.333 . S
Cd414 O418 2.352 . S
Cd414 O422 2.277 . S
Cd414 O423 2.356 . S
C415 O420 1.209 . S
C415 O422 1.226 . S
O416 Cd412 2.273 . S
O416 Cd414 2.411 . S
O416 C419 1.320 . S
O417 Cd414 2.333 . S
O417 C419 1.214 . S
O418 Cd414 2.352 . S
O418 C421 1.258 . S
C419 O416 1.320 . S
C419 O417 1.214 . S
O420 Cd412 2.277 . S
O420 C415 1.209 . S
C421 O418 1.258 . S
C421 O423 1.282 . S
O422 Cd414 2.277 . S
O422 C415 1.226 . S
O423 Cd414 2.356 . S
O423 C421 1.282 . S
C424 O425 1.306 . S
C424 O427 1.160 . S
O425 C424 1.306 . S
O425 Cd426 2.228 . S
Cd426 O425 2.228 . S
Cd426 O430 2.273 . S
Cd426 O434 2.277 . S
O427 C424 1.160 . S
O427 Cd428 2.203 . S
Cd428 O427 2.203 . S
Cd428 O430 2.411 . S
Cd428 O431 2.333 . S
Cd428 O432 2.352 . S
Cd428 O436 2.277 . S
Cd428 O437 2.356 . S
C429 O434 1.209 . S
C429 O436 1.226 . S
O430 Cd426 2.273 . S
O430 Cd428 2.411 . S
O430 C433 1.320 . S
O431 Cd428 2.333 . S
O431 C433 1.214 . S
O432 Cd428 2.352 . S
O432 C435 1.258 . S
C433 O430 1.320 . S
C433 O431 1.214 . S
O434 Cd426 2.277 . S
O434 C429 1.209 . S
C435 O432 1.258 . S
C435 O437 1.282 . S
O436 Cd428 2.277 . S
O436 C429 1.226 . S
O437 Cd428 2.356 . S
O437 C435 1.282 . S
C438 O439 1.306 . S
C438 O441 1.160 . S
O439 C438 1.306 . S
O439 Cd440 2.228 . S
Cd440 O439 2.228 . S
Cd440 O444 2.273 . S
Cd440 O448 2.277 . S
O441 C438 1.160 . S
O441 Cd442 2.203 . S
Cd442 O441 2.203 . S
Cd442 O444 2.411 . S
Cd442 O445 2.333 . S
Cd442 O446 2.352 . S
Cd442 O450 2.277 . S
Cd442 O451 2.356 . S
C443 O448 1.209 . S
C443 O450 1.226 . S
O444 Cd440 2.273 . S
O444 Cd442 2.411 . S
O444 C447 1.320 . S
O445 Cd442 2.333 . S
O445 C447 1.214 . S
O446 Cd442 2.352 . S
O446 C449 1.258 . S
C447 O444 1.320 . S
C447 O445 1.214 . S
O448 Cd440 2.277 . S
O448 C443 1.209 . S
C449 O446 1.258 . S
C449 O451 1.282 . S
O450 Cd442 2.277 . S
O450 C443 1.226 . S
O451 Cd442 2.356 . S
O451 C449 1.282 . S
C452 O453 1.306 . S
C452 O455 1.160 . S
O453 C452 1.306 . S
O453 Cd454 2.278 . S
Cd454 O453 2.278 . S
Cd454 O458 2.231 1_556 S
Cd454 O462 2.285 . S
O455 C452 1.160 . S
O455 Cd456 2.203 1_556 S
Cd456 O455 2.203 1_554 S
Cd456 O458 2.411 . S
Cd456 O459 2.333 . S
Cd456 O460 2.352 . S
Cd456 O464 2.277 1_554 S
Cd456 O465 2.356 . S
C457 O462 1.209 . S
C457 O464 1.226 . S
O458 Cd454 2.231 1_554 S
O458 Cd456 2.411 . S
O458 C461 1.320 . S
O459 Cd456 2.333 . S
O459 C461 1.214 . S
O460 Cd456 2.352 . S
O460 C463 1.258 . S
C461 O458 1.320 . S
C461 O459 1.214 . S
O462 Cd454 2.285 . S
O462 C457 1.209 . S
C463 O460 1.258 . S
C463 O465 1.282 . S
O464 Cd456 2.277 1_556 S
O464 C457 1.226 . S
O465 Cd456 2.356 . S
O465 C463 1.282 . S
C466 O467 1.306 . S
C466 O469 1.160 . S
O467 C466 1.306 . S
O467 Cd468 2.228 . S
Cd468 O467 2.228 . S
Cd468 O472 2.273 . S
Cd468 O476 2.277 . S
O469 C466 1.160 . S
O469 Cd470 2.203 . S
Cd470 O469 2.203 . S
Cd470 O472 2.411 . S
Cd470 O473 2.333 . S
Cd470 O474 2.352 . S
Cd470 O478 2.277 . S
Cd470 O479 2.356 . S
C471 O476 1.209 . S
C471 O478 1.226 . S
O472 Cd468 2.273 . S
O472 Cd470 2.411 . S
O472 C475 1.320 . S
O473 Cd470 2.333 . S
O473 C475 1.214 . S
O474 Cd470 2.352 . S
O474 C477 1.258 . S
C475 O472 1.320 . S
C475 O473 1.214 . S
O476 Cd468 2.277 . S
O476 C471 1.209 . S
C477 O474 1.258 . S
C477 O479 1.282 . S
O478 Cd470 2.277 . S
O478 C471 1.226 . S
O479 Cd470 2.356 . S
O479 C477 1.282 . S
H480 C498 0.951 . S
H481 C500 0.951 . S
H482 C502 0.950 . S
H483 C503 0.950 . S
H484 C505 0.950 . S
H485 C508 0.950 . S
H486 C509 0.950 . S
H487 C511 0.950 . S
H488 C512 0.950 . S
H489 C513 0.951 . S
H490 C515 0.951 . S
H491 C517 0.950 . S
H492 C518 0.950 . S
H493 C520 0.950 . S
H494 C523 0.950 . S
H495 C524 0.950 . S
H496 C526 0.950 . S
H497 C527 0.950 . S
C498 H480 0.951 . S
C498 C499 1.366 . S
C498 C500 1.388 . S
C499 C498 1.366 . S
C499 C503 1.385 . S
C500 H481 0.951 . S
C500 C498 1.388 . S
C500 C501 1.366 . S
C501 C500 1.366 . S
C501 C502 1.414 . S
C501 C504 1.499 . S
C502 H482 0.950 . S
C502 C501 1.414 . S
C502 C503 1.374 . S
C503 H483 0.950 . S
C503 C499 1.385 . S
C503 C502 1.374 . S
C504 C501 1.499 . S
C504 C505 1.373 . S
C504 C506 1.389 . S
C505 H484 0.950 . S
C505 C504 1.373 . S
C505 C521 1.377 . S
C506 C504 1.389 . S
C506 C507 1.524 . S
C506 C520 1.377 . S
C507 C506 1.524 . S
C507 C508 1.397 . S
C507 C512 1.363 . S
C508 H485 0.950 . S
C508 C507 1.397 . S
C508 C509 1.334 . S
C509 H486 0.950 . S
C509 C508 1.334 . S
C509 C510 1.287 . S
C510 C509 1.287 . S
C510 C511 1.524 . S
C510 H529 0.913 . S
C511 H487 0.950 . S
C511 C510 1.524 . S
C511 C512 1.415 . S
C512 H488 0.950 . S
C512 C507 1.363 . S
C512 C511 1.415 . S
C513 H489 0.951 . S
C513 C514 1.366 . S
C513 C515 1.388 . S
C514 C513 1.366 . S
C514 C518 1.385 . S
C515 H490 0.951 . S
C515 C513 1.388 . S
C515 C516 1.366 . S
C516 C515 1.366 . S
C516 C517 1.414 . S
C516 C519 1.499 . S
C517 H491 0.950 . S
C517 C516 1.414 . S
C517 C518 1.374 . S
C518 H492 0.950 . S
C518 C514 1.385 . S
C518 C517 1.374 . S
C519 C516 1.499 . S
C519 C520 1.373 . S
C519 C521 1.389 . S
C520 H493 0.950 . S
C520 C506 1.377 . S
C520 C519 1.373 . S
C521 C505 1.377 . S
C521 C519 1.389 . S
C521 C522 1.524 . S
C522 C521 1.524 . S
C522 C523 1.397 . S
C522 C527 1.363 . S
C523 H494 0.950 . S
C523 C522 1.397 . S
C523 C524 1.334 . S
C524 H495 0.950 . S
C524 C523 1.334 . S
C524 C525 1.287 . S
C525 C524 1.287 . S
C525 C526 1.524 . S
C525 H528 0.999 . S
C526 H496 0.950 . S
C526 C525 1.524 . S
C526 C527 1.415 . S
C527 H497 0.950 . S
C527 C522 1.363 . S
C527 C526 1.415 . S
H528 C525 0.999 . S
H529 C510 0.913 . S
H530 C548 0.951 . S
H531 C550 0.951 . S
H532 C552 0.950 . S
H533 C553 0.950 . S
H534 C555 0.950 . S
H535 C558 0.950 . S
H536 C559 0.950 . S
H537 C561 0.950 . S
H538 C562 0.950 . S
H539 C563 0.951 . S
H540 C565 0.951 . S
H541 C567 0.950 . S
H542 C568 0.950 . S
H543 C570 0.950 . S
H544 C573 0.950 . S
H545 C574 0.950 . S
H546 C576 0.950 . S
H547 C577 0.950 . S
C548 H530 0.951 . S
C548 C549 1.366 . S
C548 C550 1.388 . S
C549 C548 1.366 . S
C549 C553 1.385 . S
C550 H531 0.951 . S
C550 C548 1.388 . S
C550 C551 1.366 . S
C551 C550 1.366 . S
C551 C552 1.414 . S
C551 C554 1.499 . S
C552 H532 0.950 . S
C552 C551 1.414 . S
C552 C553 1.374 . S
C553 H533 0.950 . S
C553 C549 1.385 . S
C553 C552 1.374 . S
C554 C551 1.499 . S
C554 C555 1.373 . S
C554 C556 1.389 . S
C555 H534 0.950 . S
C555 C554 1.373 . S
C555 C571 1.377 . S
C556 C554 1.389 . S
C556 C557 1.524 . S
C556 C570 1.377 . S
C557 C556 1.524 . S
C557 C558 1.397 . S
C557 C562 1.363 . S
C558 H535 0.950 . S
C558 C557 1.397 . S
C558 C559 1.334 . S
C559 H536 0.950 . S
C559 C558 1.334 . S
C559 C560 1.287 . S
C560 C559 1.287 . S
C560 C561 1.524 . S
C560 H579 0.913 . S
C561 H537 0.950 . S
C561 C560 1.524 . S
C561 C562 1.415 . S
C562 H538 0.950 . S
C562 C557 1.363 . S
C562 C561 1.415 . S
C563 H539 0.951 . S
C563 C564 1.366 . S
C563 C565 1.388 . S
C564 C563 1.366 . S
C564 C568 1.385 . S
C565 H540 0.951 . S
C565 C563 1.388 . S
C565 C566 1.366 . S
C566 C565 1.366 . S
C566 C567 1.414 . S
C566 C569 1.499 . S
C567 H541 0.950 . S
C567 C566 1.414 . S
C567 C568 1.374 . S
C568 H542 0.950 . S
C568 C564 1.385 . S
C568 C567 1.374 . S
C569 C566 1.499 . S
C569 C570 1.373 . S
C569 C571 1.389 . S
C570 H543 0.950 . S
C570 C556 1.377 . S
C570 C569 1.373 . S
C571 C555 1.377 . S
C571 C569 1.389 . S
C571 C572 1.524 . S
C572 C571 1.524 . S
C572 C573 1.397 . S
C572 C577 1.363 . S
C573 H544 0.950 . S
C573 C572 1.397 . S
C573 C574 1.334 . S
C574 H545 0.950 . S
C574 C573 1.334 . S
C574 C575 1.287 . S
C575 C574 1.287 . S
C575 C576 1.524 . S
C575 H578 0.999 . S
C576 H546 0.950 . S
C576 C575 1.524 . S
C576 C577 1.415 . S
C577 H547 0.950 . S
C577 C572 1.363 . S
C577 C576 1.415 . S
H578 C575 0.999 . S
H579 C560 0.913 . S
H580 C598 0.951 . S
H581 C600 0.951 . S
H582 C602 0.950 . S
H583 C603 0.950 . S
H584 C605 0.950 . S
H585 C608 0.950 . S
H586 C609 0.950 . S
H587 C611 0.950 . S
H588 C612 0.950 . S
H589 C613 0.951 . S
H590 C615 0.951 . S
H591 C617 0.950 . S
H592 C618 0.950 . S
H593 C620 0.950 . S
H594 C623 0.950 . S
H595 C624 0.950 . S
H596 C626 0.950 . S
H597 C627 0.950 . S
C598 H580 0.951 . S
C598 C599 1.366 . S
C598 C600 1.388 . S
C599 C598 1.366 . S
C599 C603 1.385 . S
C600 H581 0.951 . S
C600 C598 1.388 . S
C600 C601 1.366 . S
C601 C600 1.366 . S
C601 C602 1.414 . S
C601 C604 1.499 . S
C602 H582 0.950 . S
C602 C601 1.414 . S
C602 C603 1.374 . S
C603 H583 0.950 . S
C603 C599 1.385 . S
C603 C602 1.374 . S
C604 C601 1.499 . S
C604 C605 1.373 . S
C604 C606 1.389 . S
C605 H584 0.950 . S
C605 C604 1.373 . S
C605 C621 1.377 . S
C606 C604 1.389 . S
C606 C607 1.524 . S
C606 C620 1.377 . S
C607 C606 1.524 . S
C607 C608 1.397 . S
C607 C612 1.363 . S
C608 H585 0.950 . S
C608 C607 1.397 . S
C608 C609 1.334 . S
C609 H586 0.950 . S
C609 C608 1.334 . S
C609 C610 1.287 . S
C610 C609 1.287 . S
C610 C611 1.524 . S
C610 H629 0.913 . S
C611 H587 0.950 . S
C611 C610 1.524 . S
C611 C612 1.415 . S
C612 H588 0.950 . S
C612 C607 1.363 . S
C612 C611 1.415 . S
C613 H589 0.951 . S
C613 C614 1.366 . S
C613 C615 1.388 . S
C614 C613 1.366 . S
C614 C618 1.385 . S
C615 H590 0.951 . S
C615 C613 1.388 . S
C615 C616 1.366 . S
C616 C615 1.366 . S
C616 C617 1.414 . S
C616 C619 1.499 . S
C617 H591 0.950 . S
C617 C616 1.414 . S
C617 C618 1.374 . S
C618 H592 0.950 . S
C618 C614 1.385 . S
C618 C617 1.374 . S
C619 C616 1.499 . S
C619 C620 1.373 . S
C619 C621 1.389 . S
C620 H593 0.950 . S
C620 C606 1.377 . S
C620 C619 1.373 . S
C621 C605 1.377 . S
C621 C619 1.389 . S
C621 C622 1.524 . S
C622 C621 1.524 . S
C622 C623 1.397 . S
C622 C627 1.363 . S
C623 H594 0.950 . S
C623 C622 1.397 . S
C623 C624 1.334 . S
C624 H595 0.950 . S
C624 C623 1.334 . S
C624 C625 1.287 . S
C625 C624 1.287 . S
C625 C626 1.524 . S
C625 H628 0.999 . S
C626 H596 0.950 . S
C626 C625 1.524 . S
C626 C627 1.415 . S
C627 H597 0.950 . S
C627 C622 1.363 . S
C627 C626 1.415 . S
H628 C625 0.999 . S
H629 C610 0.913 . S
H630 C648 0.951 . S
H631 C650 0.951 . S
H632 C652 0.950 . S
H633 C653 0.950 . S
H634 C655 0.950 . S
H635 C658 0.950 . S
H636 C659 0.950 . S
H637 C661 0.950 . S
H638 C662 0.950 . S
H639 C663 0.956 . S
H640 C665 0.951 . S
H641 C667 0.950 . S
H642 C668 0.950 . S
H643 C670 0.950 . S
H644 C673 0.950 . S
H645 C674 0.950 . S
H646 C676 0.950 . S
H647 C677 0.950 . S
C648 H630 0.951 . S
C648 C649 1.366 . S
C648 C650 1.388 . S
C649 C648 1.366 . S
C649 C653 1.385 . S
C650 H631 0.951 . S
C650 C648 1.388 . S
C650 C651 1.366 . S
C651 C650 1.366 . S
C651 C652 1.414 . S
C651 C654 1.499 . S
C652 H632 0.950 . S
C652 C651 1.414 . S
C652 C653 1.374 . S
C653 H633 0.950 . S
C653 C649 1.385 . S
C653 C652 1.374 . S
C654 C651 1.499 . S
C654 C655 1.373 . S
C654 C656 1.389 . S
C655 H634 0.950 . S
C655 C654 1.373 . S
C655 C671 1.377 . S
C656 C654 1.389 . S
C656 C657 1.524 . S
C656 C670 1.377 . S
C657 C656 1.524 . S
C657 C658 1.397 . S
C657 C662 1.363 . S
C658 H635 0.950 . S
C658 C657 1.397 . S
C658 C659 1.334 . S
C659 H636 0.950 . S
C659 C658 1.334 . S
C659 C660 1.287 . S
C660 C659 1.287 . S
C660 C661 1.524 . S
C660 H679 0.913 . S
C661 H637 0.950 . S
C661 C660 1.524 . S
C661 C662 1.415 . S
C662 H638 0.950 . S
C662 C657 1.363 . S
C662 C661 1.415 . S
C663 H639 0.956 . S
C663 C664 1.366 . S
C663 C665 1.388 . S
C664 C663 1.366 . S
C664 C668 1.385 . S
C665 H640 0.951 . S
C665 C663 1.388 . S
C665 C666 1.366 . S
C666 C665 1.366 . S
C666 C667 1.414 . S
C666 C669 1.499 . S
C667 H641 0.950 . S
C667 C666 1.414 . S
C667 C668 1.374 . S
C668 H642 0.950 . S
C668 C664 1.385 . S
C668 C667 1.374 . S
C669 C666 1.499 . S
C669 C670 1.373 . S
C669 C671 1.389 . S
C670 H643 0.950 . S
C670 C656 1.377 . S
C670 C669 1.373 . S
C671 C655 1.377 . S
C671 C669 1.389 . S
C671 C672 1.524 . S
C672 C671 1.524 . S
C672 C673 1.397 . S
C672 C677 1.363 1_554 S
C673 H644 0.950 . S
C673 C672 1.397 . S
C673 C674 1.334 1_554 S
C674 H645 0.950 . S
C674 C673 1.334 1_556 S
C674 C675 1.287 . S
C675 C674 1.287 . S
C675 C676 1.524 . S
C675 H678 0.999 . S
C676 H646 0.950 . S
C676 C675 1.524 . S
C676 C677 1.415 . S
C677 H647 0.950 . S
C677 C672 1.363 1_556 S
C677 C676 1.415 . S
H678 C675 0.999 . S
H679 C660 0.913 . S
H680 C698 0.951 . S
H681 C700 0.951 . S
H682 C702 0.950 . S
H683 C703 0.950 . S
H684 C705 0.950 . S
H685 C708 0.950 . S
H686 C709 0.950 . S
H687 C711 0.947 . S
H688 C712 0.950 . S
H689 C713 0.951 . S
H690 C715 0.951 1_554 S
H691 C717 0.950 . S
H692 C718 0.950 . S
H693 C720 0.950 . S
H694 C723 0.950 . S
H695 C724 0.950 . S
H696 C726 0.950 . S
H697 C727 0.950 . S
C698 H680 0.951 . S
C698 C699 1.366 . S
C698 C700 1.388 . S
C699 C698 1.366 . S
C699 C703 1.385 . S
C700 H681 0.951 . S
C700 C698 1.388 . S
C700 C701 1.366 . S
C701 C700 1.366 . S
C701 C702 1.414 . S
C701 C704 1.499 . S
C702 H682 0.950 . S
C702 C701 1.414 . S
C702 C703 1.374 . S
C703 H683 0.950 . S
C703 C699 1.385 . S
C703 C702 1.374 . S
C704 C701 1.499 . S
C704 C705 1.373 . S
C704 C706 1.389 . S
C705 H684 0.950 . S
C705 C704 1.373 . S
C705 C721 1.377 . S
C706 C704 1.389 . S
C706 C707 1.524 . S
C706 C720 1.377 . S
C707 C706 1.524 . S
C707 C708 1.397 1_556 S
C707 C712 1.363 . S
C708 H685 0.950 . S
C708 C707 1.397 1_554 S
C708 C709 1.334 . S
C709 H686 0.950 . S
C709 C708 1.334 . S
C709 C710 1.287 . S
C710 C709 1.287 . S
C710 C711 1.562 . S
C710 H729 0.913 . S
C711 H687 0.947 . S
C711 C710 1.562 . S
C711 C712 1.385 1_554 S
C712 H688 0.950 . S
C712 C707 1.363 . S
C712 C711 1.385 1_556 S
C713 H689 0.951 . S
C713 C714 1.366 . S
C713 C715 1.388 1_554 S
C714 C713 1.366 . S
C714 C718 1.385 1_554 S
C715 H690 0.951 1_556 S
C715 C713 1.388 1_556 S
C715 C716 1.366 . S
C716 C715 1.366 . S
C716 C717 1.414 . S
C716 C719 1.499 . S
C717 H691 0.950 . S
C717 C716 1.414 . S
C717 C718 1.374 . S
C718 H692 0.950 . S
C718 C714 1.385 1_556 S
C718 C717 1.374 . S
C719 C716 1.499 . S
C719 C720 1.373 . S
C719 C721 1.389 . S
C720 H693 0.950 . S
C720 C706 1.377 . S
C720 C719 1.373 . S
C721 C705 1.377 . S
C721 C719 1.389 . S
C721 C722 1.524 . S
C722 C721 1.524 . S
C722 C723 1.397 . S
C722 C727 1.363 . S
C723 H694 0.950 . S
C723 C722 1.397 . S
C723 C724 1.334 . S
C724 H695 0.950 . S
C724 C723 1.334 . S
C724 C725 1.287 . S
C725 C724 1.287 . S
C725 C726 1.524 . S
C725 H728 0.999 . S
C726 H696 0.950 . S
C726 C725 1.524 . S
C726 C727 1.415 . S
C727 H697 0.950 . S
C727 C722 1.363 . S
C727 C726 1.415 . S
H728 C725 0.999 . S
H729 C710 0.913 . S
H730 C748 0.951 . S
H731 C750 0.951 . S
H732 C752 0.950 . S
H733 C753 0.950 . S
H734 C755 0.950 . S
H735 C758 0.950 . S
H736 C759 0.950 . S
H737 C761 0.950 . S
H738 C762 0.950 . S
H739 C763 0.951 . S
H740 C765 0.951 . S
H741 C767 0.950 . S
H742 C768 0.950 . S
H743 C770 0.950 . S
H744 C773 0.950 . S
H745 C774 0.950 . S
H746 C776 0.950 . S
H747 C777 0.950 . S
C748 H730 0.951 . S
C748 C749 1.366 . S
C748 C750 1.388 . S
C749 C748 1.366 . S
C749 C753 1.385 . S
C750 H731 0.951 . S
C750 C748 1.388 . S
C750 C751 1.366 . S
C751 C750 1.366 . S
C751 C752 1.414 . S
C751 C754 1.499 . S
C752 H732 0.950 . S
C752 C751 1.414 . S
C752 C753 1.374 . S
C753 H733 0.950 . S
C753 C749 1.385 . S
C753 C752 1.374 . S
C754 C751 1.499 . S
C754 C755 1.373 . S
C754 C756 1.389 . S
C755 H734 0.950 . S
C755 C754 1.373 . S
C755 C771 1.377 . S
C756 C754 1.389 . S
C756 C757 1.524 . S
C756 C770 1.377 . S
C757 C756 1.524 . S
C757 C758 1.397 . S
C757 C762 1.363 . S
C758 H735 0.950 . S
C758 C757 1.397 . S
C758 C759 1.334 . S
C759 H736 0.950 . S
C759 C758 1.334 . S
C759 C760 1.287 . S
C760 C759 1.287 . S
C760 C761 1.524 . S
C760 H779 0.913 . S
C761 H737 0.950 . S
C761 C760 1.524 . S
C761 C762 1.415 . S
C762 H738 0.950 . S
C762 C757 1.363 . S
C762 C761 1.415 . S
C763 H739 0.951 . S
C763 C764 1.366 . S
C763 C765 1.388 . S
C764 C763 1.366 . S
C764 C768 1.385 . S
C765 H740 0.951 . S
C765 C763 1.388 . S
C765 C766 1.366 . S
C766 C765 1.366 . S
C766 C767 1.414 . S
C766 C769 1.499 . S
C767 H741 0.950 . S
C767 C766 1.414 . S
C767 C768 1.374 . S
C768 H742 0.950 . S
C768 C764 1.385 . S
C768 C767 1.374 . S
C769 C766 1.499 . S
C769 C770 1.373 . S
C769 C771 1.389 . S
C770 H743 0.950 . S
C770 C756 1.377 . S
C770 C769 1.373 . S
C771 C755 1.377 . S
C771 C769 1.389 . S
C771 C772 1.524 . S
C772 C771 1.524 . S
C772 C773 1.397 . S
C772 C777 1.363 . S
C773 H744 0.950 . S
C773 C772 1.397 . S
C773 C774 1.334 . S
C774 H745 0.950 . S
C774 C773 1.334 . S
C774 C775 1.287 . S
C775 C774 1.287 . S
C775 C776 1.524 . S
C775 H778 0.999 . S
C776 H746 0.950 . S
C776 C775 1.524 . S
C776 C777 1.415 . S
C777 H747 0.950 . S
C777 C772 1.363 . S
C777 C776 1.415 . S
H778 C775 0.999 . S
H779 C760 0.913 . S
H780 C798 0.951 . S
H781 C800 0.951 . S
H782 C802 0.950 . S
H783 C803 0.950 . S
H784 C805 0.950 . S
H785 C808 0.950 . S
H786 C809 0.950 . S
H787 C811 0.950 . S
H788 C812 0.950 . S
H789 C813 0.951 . S
H790 C815 0.951 . S
H791 C817 0.950 . S
H792 C818 0.950 . S
H793 C820 0.950 . S
H794 C823 0.950 . S
H795 C824 0.950 . S
H796 C826 0.950 . S
H797 C827 0.950 . S
C798 H780 0.951 . S
C798 C799 1.366 . S
C798 C800 1.388 . S
C799 C798 1.366 . S
C799 C803 1.385 . S
C800 H781 0.951 . S
C800 C798 1.388 . S
C800 C801 1.366 . S
C801 C800 1.366 . S
C801 C802 1.414 . S
C801 C804 1.499 . S
C802 H782 0.950 . S
C802 C801 1.414 . S
C802 C803 1.374 . S
C803 H783 0.950 . S
C803 C799 1.385 . S
C803 C802 1.374 . S
C804 C801 1.499 . S
C804 C805 1.373 . S
C804 C806 1.389 . S
C805 H784 0.950 . S
C805 C804 1.373 . S
C805 C821 1.377 . S
C806 C804 1.389 . S
C806 C807 1.524 . S
C806 C820 1.377 . S
C807 C806 1.524 . S
C807 C808 1.397 . S
C807 C812 1.363 . S
C808 H785 0.950 . S
C808 C807 1.397 . S
C808 C809 1.334 . S
C809 H786 0.950 . S
C809 C808 1.334 . S
C809 C810 1.287 . S
C810 C809 1.287 . S
C810 C811 1.524 . S
C810 H829 0.913 . S
C811 H787 0.950 . S
C811 C810 1.524 . S
C811 C812 1.415 . S
C812 H788 0.950 . S
C812 C807 1.363 . S
C812 C811 1.415 . S
C813 H789 0.951 . S
C813 C814 1.366 . S
C813 C815 1.388 . S
C814 C813 1.366 . S
C814 C818 1.385 . S
C815 H790 0.951 . S
C815 C813 1.388 . S
C815 C816 1.366 . S
C816 C815 1.366 . S
C816 C817 1.414 . S
C816 C819 1.499 . S
C817 H791 0.950 . S
C817 C816 1.414 . S
C817 C818 1.374 . S
C818 H792 0.950 . S
C818 C814 1.385 . S
C818 C817 1.374 . S
C819 C816 1.499 . S
C819 C820 1.373 . S
C819 C821 1.389 . S
C820 H793 0.950 . S
C820 C806 1.377 . S
C820 C819 1.373 . S
C821 C805 1.377 . S
C821 C819 1.389 . S
C821 C822 1.524 . S
C822 C821 1.524 . S
C822 C823 1.397 . S
C822 C827 1.363 . S
C823 H794 0.950 . S
C823 C822 1.397 . S
C823 C824 1.334 . S
C824 H795 0.950 . S
C824 C823 1.334 . S
C824 C825 1.287 . S
C825 C824 1.287 . S
C825 C826 1.524 . S
C825 H828 0.999 . S
C826 H796 0.950 . S
C826 C825 1.524 . S
C826 C827 1.415 . S
C827 H797 0.950 . S
C827 C822 1.363 . S
C827 C826 1.415 . S
H828 C825 0.999 . S
H829 C810 0.913 . S
H830 C848 0.951 . S
H831 C850 0.951 . S
H832 C852 0.950 . S
H833 C853 0.950 . S
H834 C855 0.950 . S
H835 C858 0.950 . S
H836 C859 0.950 . S
H837 C861 0.950 . S
H838 C862 0.950 . S
H839 C863 0.951 . S
H840 C865 0.951 . S
H841 C867 0.950 . S
H842 C868 0.950 . S
H843 C870 0.950 . S
H844 C873 0.950 . S
H845 C874 0.950 . S
H846 C876 0.950 . S
H847 C877 0.950 . S
C848 H830 0.951 . S
C848 C849 1.366 . S
C848 C850 1.388 . S
C849 C848 1.366 . S
C849 C853 1.385 . S
C850 H831 0.951 . S
C850 C848 1.388 . S
C850 C851 1.366 . S
C851 C850 1.366 . S
C851 C852 1.414 . S
C851 C854 1.499 . S
C852 H832 0.950 . S
C852 C851 1.414 . S
C852 C853 1.374 . S
C853 H833 0.950 . S
C853 C849 1.385 . S
C853 C852 1.374 . S
C854 C851 1.499 . S
C854 C855 1.373 . S
C854 C856 1.389 . S
C855 H834 0.950 . S
C855 C854 1.373 . S
C855 C871 1.377 . S
C856 C854 1.389 . S
C856 C857 1.524 . S
C856 C870 1.377 . S
C857 C856 1.524 . S
C857 C858 1.397 . S
C857 C862 1.363 . S
C858 H835 0.950 . S
C858 C857 1.397 . S
C858 C859 1.334 . S
C859 H836 0.950 . S
C859 C858 1.334 . S
C859 C860 1.287 . S
C860 C859 1.287 . S
C860 C861 1.524 . S
C860 H879 0.913 . S
C861 H837 0.950 . S
C861 C860 1.524 . S
C861 C862 1.415 . S
C862 H838 0.950 . S
C862 C857 1.363 . S
C862 C861 1.415 . S
C863 H839 0.951 . S
C863 C864 1.366 . S
C863 C865 1.388 . S
C864 C863 1.366 . S
C864 C868 1.385 . S
C865 H840 0.951 . S
C865 C863 1.388 . S
C865 C866 1.366 . S
C866 C865 1.366 . S
C866 C867 1.414 . S
C866 C869 1.499 . S
C867 H841 0.950 . S
C867 C866 1.414 . S
C867 C868 1.374 . S
C868 H842 0.950 . S
C868 C864 1.385 . S
C868 C867 1.374 . S
C869 C866 1.499 . S
C869 C870 1.373 . S
C869 C871 1.389 . S
C870 H843 0.950 . S
C870 C856 1.377 . S
C870 C869 1.373 . S
C871 C855 1.377 . S
C871 C869 1.389 . S
C871 C872 1.524 . S
C872 C871 1.524 . S
C872 C873 1.397 . S
C872 C877 1.363 . S
C873 H844 0.950 . S
C873 C872 1.397 . S
C873 C874 1.334 . S
C874 H845 0.950 . S
C874 C873 1.334 . S
C874 C875 1.287 . S
C875 C874 1.287 . S
C875 C876 1.524 . S
C875 H878 0.999 . S
C876 H846 0.950 . S
C876 C875 1.524 . S
C876 C877 1.415 . S
C877 H847 0.950 . S
C877 C872 1.363 . S
C877 C876 1.415 . S
H878 C875 0.999 . S
H879 C860 0.913 . S
H880 C898 0.951 . S
H881 C900 0.951 . S
H882 C902 0.950 . S
H883 C903 0.950 . S
H884 C905 0.950 . S
H885 C908 0.950 . S
H886 C909 0.950 . S
H887 C911 0.950 . S
H888 C912 0.950 . S
H889 C913 0.951 . S
H890 C915 0.951 . S
H891 C917 0.950 . S
H892 C918 0.950 . S
H893 C920 0.950 . S
H894 C923 0.950 . S
H895 C924 0.950 . S
H896 C926 0.950 . S
H897 C927 0.950 . S
C898 H880 0.951 . S
C898 C899 1.366 . S
C898 C900 1.388 . S
C899 C898 1.366 . S
C899 C903 1.385 . S
C900 H881 0.951 . S
C900 C898 1.388 . S
C900 C901 1.366 . S
C901 C900 1.366 . S
C901 C902 1.414 . S
C901 C904 1.499 . S
C902 H882 0.950 . S
C902 C901 1.414 . S
C902 C903 1.374 . S
C903 H883 0.950 . S
C903 C899 1.385 . S
C903 C902 1.374 . S
C904 C901 1.499 . S
C904 C905 1.373 . S
C904 C906 1.389 . S
C905 H884 0.950 . S
C905 C904 1.373 . S
C905 C921 1.377 . S
C906 C904 1.389 . S
C906 C907 1.524 . S
C906 C920 1.377 . S
C907 C906 1.524 . S
C907 C908 1.397 . S
C907 C912 1.363 . S
C908 H885 0.950 . S
C908 C907 1.397 . S
C908 C909 1.334 . S
C909 H886 0.950 . S
C909 C908 1.334 . S
C909 C910 1.287 . S
C910 C909 1.287 . S
C910 C911 1.524 . S
C910 H929 0.913 . S
C911 H887 0.950 . S
C911 C910 1.524 . S
C911 C912 1.415 . S
C912 H888 0.950 . S
C912 C907 1.363 . S
C912 C911 1.415 . S
C913 H889 0.951 . S
C913 C914 1.366 . S
C913 C915 1.388 . S
C914 C913 1.366 . S
C914 C918 1.385 . S
C915 H890 0.951 . S
C915 C913 1.388 . S
C915 C916 1.366 . S
C916 C915 1.366 . S
C916 C917 1.414 . S
C916 C919 1.499 . S
C917 H891 0.950 . S
C917 C916 1.414 . S
C917 C918 1.374 . S
C918 H892 0.950 . S
C918 C914 1.385 . S
C918 C917 1.374 . S
C919 C916 1.499 . S
C919 C920 1.373 . S
C919 C921 1.389 . S
C920 H893 0.950 . S
C920 C906 1.377 . S
C920 C919 1.373 . S
C921 C905 1.377 . S
C921 C919 1.389 . S
C921 C922 1.524 . S
C922 C921 1.524 . S
C922 C923 1.397 . S
C922 C927 1.363 . S
C923 H894 0.950 . S
C923 C922 1.397 . S
C923 C924 1.334 . S
C924 H895 0.950 . S
C924 C923 1.334 . S
C924 C925 1.287 . S
C925 C924 1.287 . S
C925 C926 1.524 . S
C925 H928 0.999 . S
C926 H896 0.950 . S
C926 C925 1.524 . S
C926 C927 1.415 . S
C927 H897 0.950 . S
C927 C922 1.363 . S
C927 C926 1.415 . S
H928 C925 0.999 . S
H929 C910 0.913 . S
H930 C948 0.951 . S
H931 C950 0.951 . S
H932 C952 0.950 . S
H933 C953 0.950 . S
H934 C955 0.950 . S
H935 C958 0.950 . S
H936 C959 0.950 . S
H937 C961 0.950 . S
H938 C962 0.950 . S
H939 C963 0.951 . S
H940 C965 0.951 . S
H941 C967 0.950 . S
H942 C968 0.997 . S
H943 C970 0.950 . S
H944 C973 0.950 . S
H945 C974 0.950 . S
H946 C976 0.950 . S
H947 C977 0.950 . S
C948 H930 0.951 . S
C948 C949 1.366 . S
C948 C950 1.388 . S
C949 C948 1.366 . S
C949 C953 1.385 . S
C950 H931 0.951 . S
C950 C948 1.388 . S
C950 C951 1.366 . S
C951 C950 1.366 . S
C951 C952 1.414 . S
C951 C954 1.499 . S
C952 H932 0.950 . S
C952 C951 1.414 . S
C952 C953 1.374 . S
C953 H933 0.950 . S
C953 C949 1.385 . S
C953 C952 1.374 . S
C954 C951 1.499 . S
C954 C955 1.373 . S
C954 C956 1.389 . S
C955 H934 0.950 . S
C955 C954 1.373 . S
C955 C971 1.377 . S
C956 C954 1.389 . S
C956 C957 1.524 . S
C956 C970 1.377 . S
C957 C956 1.524 . S
C957 C958 1.397 . S
C957 C962 1.363 1_554 S
C958 H935 0.950 . S
C958 C957 1.397 . S
C958 C959 1.334 1_554 S
C959 H936 0.950 . S
C959 C958 1.334 1_556 S
C959 C960 1.287 . S
C960 C959 1.287 . S
C960 C961 1.524 . S
C960 H979 0.913 . S
C961 H937 0.950 . S
C961 C960 1.524 . S
C961 C962 1.415 . S
C962 H938 0.950 . S
C962 C957 1.363 1_556 S
C962 C961 1.415 . S
C963 H939 0.951 . S
C963 C964 1.366 . S
C963 C965 1.388 . S
C964 C963 1.366 . S
C964 C968 1.385 . S
C965 H940 0.951 . S
C965 C963 1.388 . S
C965 C966 1.366 . S
C966 C965 1.366 . S
C966 C967 1.414 . S
C966 C969 1.499 . S
C967 H941 0.950 . S
C967 C966 1.414 . S
C967 C968 1.374 . S
C968 H942 0.997 . S
C968 C964 1.385 . S
C968 C967 1.374 . S
C969 C966 1.499 . S
C969 C970 1.373 . S
C969 C971 1.389 . S
C970 H943 0.950 . S
C970 C956 1.377 . S
C970 C969 1.373 . S
C971 C955 1.377 . S
C971 C969 1.389 . S
C971 C972 1.524 . S
C972 C971 1.524 . S
C972 C973 1.397 . S
C972 C977 1.363 . S
C973 H944 0.950 . S
C973 C972 1.397 . S
C973 C974 1.334 . S
C974 H945 0.950 . S
C974 C973 1.334 . S
C974 C975 1.287 . S
C975 C974 1.287 . S
C975 C976 1.524 . S
C975 H978 0.999 . S
C976 H946 0.950 . S
C976 C975 1.524 . S
C976 C977 1.415 . S
C977 H947 0.950 . S
C977 C972 1.363 . S
C977 C976 1.415 . S
H978 C975 0.999 . S
H979 C960 0.913 . S
H980 C998 0.951 . S
H981 C1000 0.951 . S
H982 C1002 0.950 . S
H983 C1003 0.950 . S
H984 C1005 0.950 . S
H985 C1008 0.950 . S
H986 C1009 0.950 . S
H987 C1011 0.950 . S
H988 C1012 0.950 . S
H989 C1013 0.951 . S
H990 C1015 0.951 . S
H991 C1017 0.950 . S
H992 C1018 0.950 . S
H993 C1020 0.950 . S
H994 C1023 0.950 . S
H995 C1024 0.950 . S
H996 C1026 0.950 . S
H997 C1027 0.950 . S
C998 H980 0.951 . S
C998 C999 1.366 . S
C998 C1000 1.388 . S
C999 C998 1.366 . S
C999 C1003 1.385 . S
C1000 H981 0.951 . S
C1000 C998 1.388 . S
C1000 C1001 1.366 . S
C1001 C1000 1.366 . S
C1001 C1002 1.414 . S
C1001 C1004 1.499 . S
C1002 H982 0.950 . S
C1002 C1001 1.414 . S
C1002 C1003 1.374 . S
C1003 H983 0.950 . S
C1003 C999 1.385 . S
C1003 C1002 1.374 . S
C1004 C1001 1.499 . S
C1004 C1005 1.373 . S
C1004 C1006 1.389 . S
C1005 H984 0.950 . S
C1005 C1004 1.373 . S
C1005 C1021 1.377 . S
C1006 C1004 1.389 . S
C1006 C1007 1.524 . S
C1006 C1020 1.377 . S
C1007 C1006 1.524 . S
C1007 C1008 1.397 . S
C1007 C1012 1.363 . S
C1008 H985 0.950 . S
C1008 C1007 1.397 . S
C1008 C1009 1.334 . S
C1009 H986 0.950 . S
C1009 C1008 1.334 . S
C1009 C1010 1.287 . S
C1010 C1009 1.287 . S
C1010 C1011 1.524 . S
C1010 H1029 0.913 . S
C1011 H987 0.950 . S
C1011 C1010 1.524 . S
C1011 C1012 1.415 . S
C1012 H988 0.950 . S
C1012 C1007 1.363 . S
C1012 C1011 1.415 . S
C1013 H989 0.951 . S
C1013 C1014 1.366 . S
C1013 C1015 1.388 . S
C1014 C1013 1.366 . S
C1014 C1018 1.385 . S
C1015 H990 0.951 . S
C1015 C1013 1.388 . S
C1015 C1016 1.366 . S
C1016 C1015 1.366 . S
C1016 C1017 1.414 . S
C1016 C1019 1.499 . S
C1017 H991 0.950 . S
C1017 C1016 1.414 . S
C1017 C1018 1.374 . S
C1018 H992 0.950 . S
C1018 C1014 1.385 . S
C1018 C1017 1.374 . S
C1019 C1016 1.499 . S
C1019 C1020 1.373 . S
C1019 C1021 1.389 . S
C1020 H993 0.950 . S
C1020 C1006 1.377 . S
C1020 C1019 1.373 . S
C1021 C1005 1.377 . S
C1021 C1019 1.389 . S
C1021 C1022 1.524 . S
C1022 C1021 1.524 . S
C1022 C1023 1.397 . S
C1022 C1027 1.363 . S
C1023 H994 0.950 . S
C1023 C1022 1.397 . S
C1023 C1024 1.334 . S
C1024 H995 0.950 . S
C1024 C1023 1.334 . S
C1024 C1025 1.287 . S
C1025 C1024 1.287 . S
C1025 C1026 1.524 . S
C1025 H1028 0.999 . S
C1026 H996 0.950 . S
C1026 C1025 1.524 . S
C1026 C1027 1.415 . S
C1027 H997 0.950 . S
C1027 C1022 1.363 . S
C1027 C1026 1.415 . S
H1028 C1025 0.999 . S
H1029 C1010 0.913 . S
H1030 C1048 0.951 . S
H1031 C1050 0.951 . S
H1032 C1052 0.950 . S
H1033 C1053 0.950 . S
H1034 C1055 0.950 . S
H1035 C1058 0.950 . S
H1036 C1059 0.950 . S
H1037 C1061 0.950 . S
H1038 C1062 0.950 . S
H1039 C1063 0.951 . S
H1040 C1065 0.951 . S
H1041 C1067 0.950 . S
H1042 C1068 0.950 . S
H1043 C1070 0.950 . S
H1044 C1073 0.950 . S
H1045 C1074 0.950 . S
H1046 C1076 0.950 . S
H1047 C1077 0.950 . S
C1048 H1030 0.951 . S
C1048 C1049 1.366 . S
C1048 C1050 1.388 . S
C1049 C1048 1.366 . S
C1049 C1053 1.385 . S
C1050 H1031 0.951 . S
C1050 C1048 1.388 . S
C1050 C1051 1.366 . S
C1051 C1050 1.366 . S
C1051 C1052 1.414 . S
C1051 C1054 1.499 . S
C1052 H1032 0.950 . S
C1052 C1051 1.414 . S
C1052 C1053 1.374 . S
C1053 H1033 0.950 . S
C1053 C1049 1.385 . S
C1053 C1052 1.374 . S
C1054 C1051 1.499 . S
C1054 C1055 1.373 . S
C1054 C1056 1.389 . S
C1055 H1034 0.950 . S
C1055 C1054 1.373 . S
C1055 C1071 1.377 . S
C1056 C1054 1.389 . S
C1056 C1057 1.524 . S
C1056 C1070 1.377 . S
C1057 C1056 1.524 . S
C1057 C1058 1.397 . S
C1057 C1062 1.363 . S
C1058 H1035 0.950 . S
C1058 C1057 1.397 . S
C1058 C1059 1.334 . S
C1059 H1036 0.950 . S
C1059 C1058 1.334 . S
C1059 C1060 1.287 . S
C1060 C1059 1.287 . S
C1060 C1061 1.524 . S
C1060 H1079 0.913 . S
C1061 H1037 0.950 . S
C1061 C1060 1.524 . S
C1061 C1062 1.415 . S
C1062 H1038 0.950 . S
C1062 C1057 1.363 . S
C1062 C1061 1.415 . S
C1063 H1039 0.951 . S
C1063 C1064 1.366 . S
C1063 C1065 1.388 . S
C1064 C1063 1.366 . S
C1064 C1068 1.385 . S
C1065 H1040 0.951 . S
C1065 C1063 1.388 . S
C1065 C1066 1.366 . S
C1066 C1065 1.366 . S
C1066 C1067 1.414 . S
C1066 C1069 1.499 . S
C1067 H1041 0.950 . S
C1067 C1066 1.414 . S
C1067 C1068 1.374 . S
C1068 H1042 0.950 . S
C1068 C1064 1.385 . S
C1068 C1067 1.374 . S
C1069 C1066 1.499 . S
C1069 C1070 1.373 . S
C1069 C1071 1.389 . S
C1070 H1043 0.950 . S
C1070 C1056 1.377 . S
C1070 C1069 1.373 . S
C1071 C1055 1.377 . S
C1071 C1069 1.389 . S
C1071 C1072 1.524 . S
C1072 C1071 1.524 . S
C1072 C1073 1.397 . S
C1072 C1077 1.363 . S
C1073 H1044 0.950 . S
C1073 C1072 1.397 . S
C1073 C1074 1.334 . S
C1074 H1045 0.950 . S
C1074 C1073 1.334 . S
C1074 C1075 1.287 . S
C1075 C1074 1.287 . S
C1075 C1076 1.524 . S
C1075 H1078 0.999 . S
C1076 H1046 0.950 . S
C1076 C1075 1.524 . S
C1076 C1077 1.415 . S
C1077 H1047 0.950 . S
C1077 C1072 1.363 . S
C1077 C1076 1.415 . S
H1078 C1075 0.999 . S
H1079 C1060 0.913 . S
H1080 C1098 0.951 . S
H1081 C1100 0.951 . S
H1082 C1102 0.950 . S
H1083 C1103 0.950 . S
H1084 C1105 0.950 . S
H1085 C1108 0.950 . S
H1086 C1109 0.950 . S
H1087 C1111 0.950 . S
H1088 C1112 0.950 . S
H1089 C1113 0.951 . S
H1090 C1115 0.951 . S
H1091 C1117 0.950 . S
H1092 C1118 0.950 . S
H1093 C1120 0.950 . S
H1094 C1123 0.950 . S
H1095 C1124 0.950 . S
H1096 C1126 0.950 . S
H1097 C1127 0.950 . S
C1098 H1080 0.951 . S
C1098 C1099 1.366 . S
C1098 C1100 1.388 . S
C1099 C1098 1.366 . S
C1099 C1103 1.385 . S
C1100 H1081 0.951 . S
C1100 C1098 1.388 . S
C1100 C1101 1.366 . S
C1101 C1100 1.366 . S
C1101 C1102 1.414 . S
C1101 C1104 1.499 . S
C1102 H1082 0.950 . S
C1102 C1101 1.414 . S
C1102 C1103 1.374 . S
C1103 H1083 0.950 . S
C1103 C1099 1.385 . S
C1103 C1102 1.374 . S
C1104 C1101 1.499 . S
C1104 C1105 1.373 . S
C1104 C1106 1.389 . S
C1105 H1084 0.950 . S
C1105 C1104 1.373 . S
C1105 C1121 1.377 . S
C1106 C1104 1.389 . S
C1106 C1107 1.524 . S
C1106 C1120 1.377 . S
C1107 C1106 1.524 . S
C1107 C1108 1.397 . S
C1107 C1112 1.363 . S
C1108 H1085 0.950 . S
C1108 C1107 1.397 . S
C1108 C1109 1.334 . S
C1109 H1086 0.950 . S
C1109 C1108 1.334 . S
C1109 C1110 1.287 . S
C1110 C1109 1.287 . S
C1110 C1111 1.524 . S
C1110 H1129 0.913 . S
C1111 H1087 0.950 . S
C1111 C1110 1.524 . S
C1111 C1112 1.415 . S
C1112 H1088 0.950 . S
C1112 C1107 1.363 . S
C1112 C1111 1.415 . S
C1113 H1089 0.951 . S
C1113 C1114 1.366 . S
C1113 C1115 1.388 . S
C1114 C1113 1.366 . S
C1114 C1118 1.385 . S
C1115 H1090 0.951 . S
C1115 C1113 1.388 . S
C1115 C1116 1.366 . S
C1116 C1115 1.366 . S
C1116 C1117 1.414 . S
C1116 C1119 1.499 . S
C1117 H1091 0.950 . S
C1117 C1116 1.414 . S
C1117 C1118 1.374 . S
C1118 H1092 0.950 . S
C1118 C1114 1.385 . S
C1118 C1117 1.374 . S
C1119 C1116 1.499 . S
C1119 C1120 1.373 . S
C1119 C1121 1.389 . S
C1120 H1093 0.950 . S
C1120 C1106 1.377 . S
C1120 C1119 1.373 . S
C1121 C1105 1.377 . S
C1121 C1119 1.389 . S
C1121 C1122 1.524 . S
C1122 C1121 1.524 . S
C1122 C1123 1.397 . S
C1122 C1127 1.363 . S
C1123 H1094 0.950 . S
C1123 C1122 1.397 . S
C1123 C1124 1.334 . S
C1124 H1095 0.950 . S
C1124 C1123 1.334 . S
C1124 C1125 1.287 . S
C1125 C1124 1.287 . S
C1125 C1126 1.524 . S
C1125 H1128 0.999 . S
C1126 H1096 0.950 . S
C1126 C1125 1.524 . S
C1126 C1127 1.415 . S
C1127 H1097 0.950 . S
C1127 C1122 1.363 . S
C1127 C1126 1.415 . S
H1128 C1125 0.999 . S
H1129 C1110 0.913 . S
H1130 C1148 0.951 . S
H1131 C1150 0.951 . S
H1132 C1152 0.950 . S
H1133 C1153 0.950 1_455 S
H1134 C1155 0.950 . S
H1135 C1158 0.950 . S
H1136 C1159 0.950 . S
H1137 C1161 0.950 . S
H1138 C1162 0.950 . S
H1139 C1163 0.951 . S
H1140 C1165 0.951 . S
H1141 C1167 0.950 . S
H1142 C1168 0.950 . S
H1143 C1170 0.950 . S
H1144 C1173 0.950 . S
H1145 C1174 0.950 . S
H1146 C1176 0.950 . S
H1147 C1177 0.950 . S
C1148 H1130 0.951 . S
C1148 C1149 1.366 . S
C1148 C1150 1.388 . S
C1149 C1148 1.366 . S
C1149 C1153 1.385 . S
C1150 H1131 0.951 . S
C1150 C1148 1.388 . S
C1150 C1151 1.366 . S
C1151 C1150 1.366 . S
C1151 C1152 1.414 . S
C1151 C1154 1.499 . S
C1152 H1132 0.950 . S
C1152 C1151 1.414 . S
C1152 C1153 1.374 . S
C1153 H1133 0.950 1_655 S
C1153 C1149 1.385 . S
C1153 C1152 1.374 . S
C1154 C1151 1.499 . S
C1154 C1155 1.373 . S
C1154 C1156 1.389 . S
C1155 H1134 0.950 . S
C1155 C1154 1.373 . S
C1155 C1171 1.377 . S
C1156 C1154 1.389 . S
C1156 C1157 1.524 . S
C1156 C1170 1.377 . S
C1157 C1156 1.524 . S
C1157 C1158 1.397 . S
C1157 C1162 1.363 . S
C1158 H1135 0.950 . S
C1158 C1157 1.397 . S
C1158 C1159 1.334 . S
C1159 H1136 0.950 . S
C1159 C1158 1.334 . S
C1159 C1160 1.287 . S
C1160 C1159 1.287 . S
C1160 C1161 1.524 . S
C1160 H1179 0.913 . S
C1161 H1137 0.950 . S
C1161 C1160 1.524 . S
C1161 C1162 1.415 . S
C1162 H1138 0.950 . S
C1162 C1157 1.363 . S
C1162 C1161 1.415 . S
C1163 H1139 0.951 . S
C1163 C1164 1.366 . S
C1163 C1165 1.388 . S
C1164 C1163 1.366 . S
C1164 C1168 1.385 . S
C1165 H1140 0.951 . S
C1165 C1163 1.388 . S
C1165 C1166 1.366 . S
C1166 C1165 1.366 . S
C1166 C1167 1.414 . S
C1166 C1169 1.499 . S
C1167 H1141 0.950 . S
C1167 C1166 1.414 . S
C1167 C1168 1.374 . S
C1168 H1142 0.950 . S
C1168 C1164 1.385 . S
C1168 C1167 1.374 . S
C1169 C1166 1.499 . S
C1169 C1170 1.373 . S
C1169 C1171 1.389 . S
C1170 H1143 0.950 . S
C1170 C1156 1.377 . S
C1170 C1169 1.373 . S
C1171 C1155 1.377 . S
C1171 C1169 1.389 . S
C1171 C1172 1.524 . S
C1172 C1171 1.524 . S
C1172 C1173 1.397 . S
C1172 C1177 1.363 . S
C1173 H1144 0.950 . S
C1173 C1172 1.397 . S
C1173 C1174 1.334 . S
C1174 H1145 0.950 . S
C1174 C1173 1.334 . S
C1174 C1175 1.287 . S
C1175 C1174 1.287 . S
C1175 C1176 1.524 . S
C1175 H1178 0.999 . S
C1176 H1146 0.950 . S
C1176 C1175 1.524 . S
C1176 C1177 1.415 . S
C1177 H1147 0.950 . S
C1177 C1172 1.363 . S
C1177 C1176 1.415 . S
H1178 C1175 0.999 . S
H1179 C1160 0.913 . S
H1180 C1198 0.951 . S
H1181 C1200 0.951 . S
H1182 C1202 0.950 . S
H1183 C1203 0.950 . S
H1184 C1205 0.950 . S
H1185 C1208 0.950 . S
H1186 C1209 0.950 . S
H1187 C1211 0.949 . S
H1188 C1212 0.950 . S
H1189 C1213 0.951 . S
H1190 C1215 0.951 . S
H1191 C1217 0.950 . S
H1192 C1218 0.950 . S
H1193 C1220 0.950 . S
H1194 C1223 0.950 . S
H1195 C1224 0.950 . S
H1196 C1226 0.950 . S
H1197 C1227 0.950 . S
C1198 H1180 0.951 . S
C1198 C1199 1.366 . S
C1198 C1200 1.388 . S
C1199 C1198 1.366 . S
C1199 C1203 1.385 . S
C1200 H1181 0.951 . S
C1200 C1198 1.388 . S
C1200 C1201 1.366 . S
C1201 C1200 1.366 . S
C1201 C1202 1.414 . S
C1201 C1204 1.499 . S
C1202 H1182 0.950 . S
C1202 C1201 1.414 . S
C1202 C1203 1.374 . S
C1203 H1183 0.950 . S
C1203 C1199 1.385 . S
C1203 C1202 1.374 . S
C1204 C1201 1.499 . S
C1204 C1205 1.373 . S
C1204 C1206 1.389 . S
C1205 H1184 0.950 . S
C1205 C1204 1.373 . S
C1205 C1221 1.377 . S
C1206 C1204 1.389 . S
C1206 C1207 1.524 . S
C1206 C1220 1.377 . S
C1207 C1206 1.524 . S
C1207 C1208 1.369 1_556 S
C1207 C1212 1.363 . S
C1208 H1185 0.950 . S
C1208 C1207 1.369 1_554 S
C1208 C1209 1.363 . S
C1209 H1186 0.950 . S
C1209 C1208 1.363 . S
C1209 C1210 1.287 . S
C1210 C1209 1.287 . S
C1210 C1211 1.551 . S
C1210 H1229 0.913 . S
C1211 H1187 0.949 . S
C1211 C1210 1.551 . S
C1211 C1212 1.388 1_554 S
C1212 H1188 0.950 . S
C1212 C1207 1.363 . S
C1212 C1211 1.388 1_556 S
C1213 H1189 0.951 . S
C1213 C1214 1.366 . S
C1213 C1215 1.388 . S
C1214 C1213 1.366 . S
C1214 C1218 1.385 . S
C1215 H1190 0.951 . S
C1215 C1213 1.388 . S
C1215 C1216 1.366 . S
C1216 C1215 1.366 . S
C1216 C1217 1.414 . S
C1216 C1219 1.499 . S
C1217 H1191 0.950 . S
C1217 C1216 1.414 . S
C1217 C1218 1.374 . S
C1218 H1192 0.950 . S
C1218 C1214 1.385 . S
C1218 C1217 1.374 . S
C1219 C1216 1.499 . S
C1219 C1220 1.373 . S
C1219 C1221 1.389 . S
C1220 H1193 0.950 . S
C1220 C1206 1.377 . S
C1220 C1219 1.373 . S
C1221 C1205 1.377 . S
C1221 C1219 1.389 . S
C1221 C1222 1.524 . S
C1222 C1221 1.524 . S
C1222 C1223 1.397 . S
C1222 C1227 1.363 . S
C1223 H1194 0.950 . S
C1223 C1222 1.397 . S
C1223 C1224 1.334 . S
C1224 H1195 0.950 . S
C1224 C1223 1.334 . S
C1224 C1225 1.287 . S
C1225 C1224 1.287 . S
C1225 C1226 1.524 . S
C1225 H1228 0.999 . S
C1226 H1196 0.950 . S
C1226 C1225 1.524 . S
C1226 C1227 1.415 . S
C1227 H1197 0.950 . S
C1227 C1222 1.363 . S
C1227 C1226 1.415 . S
H1228 C1225 0.999 . S
H1229 C1210 0.913 . S
H1230 C1248 0.951 . S
H1231 C1250 0.951 . S
H1232 C1252 0.950 . S
H1233 C1253 0.950 . S
H1234 C1255 0.950 . S
H1235 C1258 0.950 . S
H1236 C1259 0.950 . S
H1237 C1261 0.950 . S
H1238 C1262 0.950 . S
H1239 C1263 0.951 . S
H1240 C1265 0.951 . S
H1241 C1267 0.950 . S
H1242 C1268 0.950 . S
H1243 C1270 0.950 . S
H1244 C1273 0.950 . S
H1245 C1274 0.950 . S
H1246 C1276 0.950 . S
H1247 C1277 0.950 . S
C1248 H1230 0.951 . S
C1248 C1249 1.366 . S
C1248 C1250 1.388 . S
C1249 C1248 1.366 . S
C1249 C1253 1.385 . S
C1250 H1231 0.951 . S
C1250 C1248 1.388 . S
C1250 C1251 1.366 . S
C1251 C1250 1.366 . S
C1251 C1252 1.414 . S
C1251 C1254 1.499 . S
C1252 H1232 0.950 . S
C1252 C1251 1.414 . S
C1252 C1253 1.374 . S
C1253 H1233 0.950 . S
C1253 C1249 1.385 . S
C1253 C1252 1.374 . S
C1254 C1251 1.499 . S
C1254 C1255 1.373 . S
C1254 C1256 1.389 . S
C1255 H1234 0.950 . S
C1255 C1254 1.373 . S
C1255 C1271 1.377 . S
C1256 C1254 1.389 . S
C1256 C1257 1.524 . S
C1256 C1270 1.377 . S
C1257 C1256 1.524 . S
C1257 C1258 1.397 . S
C1257 C1262 1.363 . S
C1258 H1235 0.950 . S
C1258 C1257 1.397 . S
C1258 C1259 1.334 . S
C1259 H1236 0.950 . S
C1259 C1258 1.334 . S
C1259 C1260 1.287 . S
C1260 C1259 1.287 . S
C1260 C1261 1.524 . S
C1260 H1279 0.913 . S
C1261 H1237 0.950 . S
C1261 C1260 1.524 . S
C1261 C1262 1.415 . S
C1262 H1238 0.950 . S
C1262 C1257 1.363 . S
C1262 C1261 1.415 . S
C1263 H1239 0.951 . S
C1263 C1264 1.366 . S
C1263 C1265 1.388 . S
C1264 C1263 1.366 . S
C1264 C1268 1.385 . S
C1265 H1240 0.951 . S
C1265 C1263 1.388 . S
C1265 C1266 1.366 . S
C1266 C1265 1.366 . S
C1266 C1267 1.414 . S
C1266 C1269 1.499 . S
C1267 H1241 0.950 . S
C1267 C1266 1.414 . S
C1267 C1268 1.374 . S
C1268 H1242 0.950 . S
C1268 C1264 1.385 . S
C1268 C1267 1.374 . S
C1269 C1266 1.499 . S
C1269 C1270 1.373 . S
C1269 C1271 1.389 . S
C1270 H1243 0.950 . S
C1270 C1256 1.377 . S
C1270 C1269 1.373 . S
C1271 C1255 1.377 . S
C1271 C1269 1.389 . S
C1271 C1272 1.524 . S
C1272 C1271 1.524 . S
C1272 C1273 1.397 . S
C1272 C1277 1.363 . S
C1273 H1244 0.950 . S
C1273 C1272 1.397 . S
C1273 C1274 1.334 . S
C1274 H1245 0.950 . S
C1274 C1273 1.334 . S
C1274 C1275 1.287 . S
C1275 C1274 1.287 . S
C1275 C1276 1.524 . S
C1275 H1278 0.999 . S
C1276 H1246 0.950 . S
C1276 C1275 1.524 . S
C1276 C1277 1.415 . S
C1277 H1247 0.950 . S
C1277 C1272 1.363 . S
C1277 C1276 1.415 . S
H1278 C1275 0.999 . S
H1279 C1260 0.913 . S
H1280 C1298 0.951 . S
H1281 C1300 0.951 . S
H1282 C1302 0.950 . S
H1283 C1303 0.950 . S
H1284 C1305 0.950 . S
H1285 C1308 0.950 . S
H1286 C1309 0.950 . S
H1287 C1311 0.950 . S
H1288 C1312 0.950 . S
H1289 C1313 0.951 . S
H1290 C1315 0.951 . S
H1291 C1317 0.950 . S
H1292 C1318 0.950 . S
H1293 C1320 0.950 . S
H1294 C1323 0.950 . S
H1295 C1324 0.950 . S
H1296 C1326 0.950 . S
H1297 C1327 0.950 . S
C1298 H1280 0.951 . S
C1298 C1299 1.366 . S
C1298 C1300 1.388 . S
C1299 C1298 1.366 . S
C1299 C1303 1.385 . S
C1300 H1281 0.951 . S
C1300 C1298 1.388 . S
C1300 C1301 1.366 . S
C1301 C1300 1.366 . S
C1301 C1302 1.414 . S
C1301 C1304 1.499 . S
C1302 H1282 0.950 . S
C1302 C1301 1.414 . S
C1302 C1303 1.374 . S
C1303 H1283 0.950 . S
C1303 C1299 1.385 . S
C1303 C1302 1.374 . S
C1304 C1301 1.499 . S
C1304 C1305 1.373 . S
C1304 C1306 1.389 . S
C1305 H1284 0.950 . S
C1305 C1304 1.373 . S
C1305 C1321 1.377 . S
C1306 C1304 1.389 . S
C1306 C1307 1.524 . S
C1306 C1320 1.377 . S
C1307 C1306 1.524 . S
C1307 C1308 1.397 . S
C1307 C1312 1.363 . S
C1308 H1285 0.950 . S
C1308 C1307 1.397 . S
C1308 C1309 1.334 . S
C1309 H1286 0.950 . S
C1309 C1308 1.334 . S
C1309 C1310 1.287 1_565 S
C1310 C1309 1.287 1_545 S
C1310 C1311 1.524 . S
C1310 H1329 0.913 . S
C1311 H1287 0.950 . S
C1311 C1310 1.524 . S
C1311 C1312 1.415 1_545 S
C1312 H1288 0.950 . S
C1312 C1307 1.363 . S
C1312 C1311 1.415 1_565 S
C1313 H1289 0.951 . S
C1313 C1314 1.366 . S
C1313 C1315 1.388 . S
C1314 C1313 1.366 . S
C1314 C1318 1.385 . S
C1315 H1290 0.951 . S
C1315 C1313 1.388 . S
C1315 C1316 1.366 . S
C1316 C1315 1.366 . S
C1316 C1317 1.414 . S
C1316 C1319 1.499 . S
C1317 H1291 0.950 . S
C1317 C1316 1.414 . S
C1317 C1318 1.374 . S
C1318 H1292 0.950 . S
C1318 C1314 1.385 . S
C1318 C1317 1.374 . S
C1319 C1316 1.499 . S
C1319 C1320 1.373 . S
C1319 C1321 1.389 . S
C1320 H1293 0.950 . S
C1320 C1306 1.377 . S
C1320 C1319 1.373 . S
C1321 C1305 1.377 . S
C1321 C1319 1.389 . S
C1321 C1322 1.524 . S
C1322 C1321 1.524 . S
C1322 C1323 1.397 . S
C1322 C1327 1.363 . S
C1323 H1294 0.950 . S
C1323 C1322 1.397 . S
C1323 C1324 1.334 . S
C1324 H1295 0.950 . S
C1324 C1323 1.334 . S
C1324 C1325 1.287 . S
C1325 C1324 1.287 . S
C1325 C1326 1.524 . S
C1325 H1328 0.999 . S
C1326 H1296 0.950 . S
C1326 C1325 1.524 . S
C1326 C1327 1.415 . S
C1327 H1297 0.950 . S
C1327 C1322 1.363 . S
C1327 C1326 1.415 . S
H1328 C1325 0.999 . S
H1329 C1310 0.913 . S
H1330 C1348 0.951 . S
H1331 C1350 0.951 . S
H1332 C1352 0.950 . S
H1333 C1353 0.950 . S
H1334 C1355 0.950 . S
H1335 C1358 0.950 . S
H1336 C1359 0.950 . S
H1337 C1361 0.950 . S
H1338 C1362 0.950 . S
H1339 C1363 0.951 . S
H1340 C1365 0.951 . S
H1341 C1367 0.950 . S
H1342 C1368 0.950 . S
H1343 C1370 0.950 . S
H1344 C1373 0.950 . S
H1345 C1374 0.950 . S
H1346 C1376 0.950 . S
H1347 C1377 0.950 . S
C1348 H1330 0.951 . S
C1348 C1349 1.366 . S
C1348 C1350 1.388 . S
C1349 C1348 1.366 . S
C1349 C1353 1.385 . S
C1350 H1331 0.951 . S
C1350 C1348 1.388 . S
C1350 C1351 1.366 . S
C1351 C1350 1.366 . S
C1351 C1352 1.414 . S
C1351 C1354 1.499 . S
C1352 H1332 0.950 . S
C1352 C1351 1.414 . S
C1352 C1353 1.374 . S
C1353 H1333 0.950 . S
C1353 C1349 1.385 . S
C1353 C1352 1.374 . S
C1354 C1351 1.499 . S
C1354 C1355 1.373 . S
C1354 C1356 1.389 . S
C1355 H1334 0.950 . S
C1355 C1354 1.373 . S
C1355 C1371 1.377 . S
C1356 C1354 1.389 . S
C1356 C1357 1.524 . S
C1356 C1370 1.377 . S
C1357 C1356 1.524 . S
C1357 C1358 1.397 . S
C1357 C1362 1.363 . S
C1358 H1335 0.950 . S
C1358 C1357 1.397 . S
C1358 C1359 1.334 . S
C1359 H1336 0.950 . S
C1359 C1358 1.334 . S
C1359 C1360 1.287 . S
C1360 C1359 1.287 . S
C1360 C1361 1.524 . S
C1360 H1379 0.913 . S
C1361 H1337 0.950 . S
C1361 C1360 1.524 . S
C1361 C1362 1.415 . S
C1362 H1338 0.950 . S
C1362 C1357 1.363 . S
C1362 C1361 1.415 . S
C1363 H1339 0.951 . S
C1363 C1364 1.366 . S
C1363 C1365 1.388 . S
C1364 C1363 1.366 . S
C1364 C1368 1.385 . S
C1365 H1340 0.951 . S
C1365 C1363 1.388 . S
C1365 C1366 1.366 . S
C1366 C1365 1.366 . S
C1366 C1367 1.414 . S
C1366 C1369 1.499 . S
C1367 H1341 0.950 . S
C1367 C1366 1.414 . S
C1367 C1368 1.374 . S
C1368 H1342 0.950 . S
C1368 C1364 1.385 . S
C1368 C1367 1.374 . S
C1369 C1366 1.499 . S
C1369 C1370 1.373 . S
C1369 C1371 1.389 . S
C1370 H1343 0.950 . S
C1370 C1356 1.377 . S
C1370 C1369 1.373 . S
C1371 C1355 1.377 . S
C1371 C1369 1.389 . S
C1371 C1372 1.524 . S
C1372 C1371 1.524 . S
C1372 C1373 1.397 . S
C1372 C1377 1.363 . S
C1373 H1344 0.950 . S
C1373 C1372 1.397 . S
C1373 C1374 1.334 . S
C1374 H1345 0.950 . S
C1374 C1373 1.334 . S
C1374 C1375 1.287 . S
C1375 C1374 1.287 . S
C1375 C1376 1.524 . S
C1375 H1378 0.999 . S
C1376 H1346 0.950 . S
C1376 C1375 1.524 . S
C1376 C1377 1.415 . S
C1377 H1347 0.950 . S
C1377 C1372 1.363 . S
C1377 C1376 1.415 . S
H1378 C1375 0.999 . S
H1379 C1360 0.913 . S
H1380 C1398 0.951 . S
H1381 C1400 0.951 . S
H1382 C1402 0.950 . S
H1383 C1403 0.950 . S
H1384 C1405 0.950 . S
H1385 C1408 0.950 . S
H1386 C1409 0.950 . S
H1387 C1411 0.950 . S
H1388 C1412 0.950 . S
H1389 C1413 0.951 . S
H1390 C1415 0.951 . S
H1391 C1417 0.950 . S
H1392 C1418 0.950 . S
H1393 C1420 0.950 . S
H1394 C1423 0.950 . S
H1395 C1424 0.950 . S
H1396 C1426 0.950 . S
H1397 C1427 0.950 . S
C1398 H1380 0.951 . S
C1398 C1399 1.366 . S
C1398 C1400 1.388 . S
C1399 C1398 1.366 . S
C1399 C1403 1.385 . S
C1400 H1381 0.951 . S
C1400 C1398 1.388 . S
C1400 C1401 1.366 . S
C1401 C1400 1.366 . S
C1401 C1402 1.414 . S
C1401 C1404 1.499 . S
C1402 H1382 0.950 . S
C1402 C1401 1.414 . S
C1402 C1403 1.374 . S
C1403 H1383 0.950 . S
C1403 C1399 1.385 . S
C1403 C1402 1.374 . S
C1404 C1401 1.499 . S
C1404 C1405 1.373 . S
C1404 C1406 1.389 . S
C1405 H1384 0.950 . S
C1405 C1404 1.373 . S
C1405 C1421 1.377 . S
C1406 C1404 1.389 . S
C1406 C1407 1.524 . S
C1406 C1420 1.377 . S
C1407 C1406 1.524 . S
C1407 C1408 1.397 . S
C1407 C1412 1.363 . S
C1408 H1385 0.950 . S
C1408 C1407 1.397 . S
C1408 C1409 1.334 . S
C1409 H1386 0.950 . S
C1409 C1408 1.334 . S
C1409 C1410 1.287 . S
C1410 C1409 1.287 . S
C1410 C1411 1.524 . S
C1410 H1429 0.913 . S
C1411 H1387 0.950 . S
C1411 C1410 1.524 . S
C1411 C1412 1.415 . S
C1412 H1388 0.950 . S
C1412 C1407 1.363 . S
C1412 C1411 1.415 . S
C1413 H1389 0.951 . S
C1413 C1414 1.366 . S
C1413 C1415 1.388 . S
C1414 C1413 1.366 . S
C1414 C1418 1.385 . S
C1415 H1390 0.951 . S
C1415 C1413 1.388 . S
C1415 C1416 1.366 . S
C1416 C1415 1.366 . S
C1416 C1417 1.414 . S
C1416 C1419 1.499 . S
C1417 H1391 0.950 . S
C1417 C1416 1.414 . S
C1417 C1418 1.374 . S
C1418 H1392 0.950 . S
C1418 C1414 1.385 . S
C1418 C1417 1.374 . S
C1419 C1416 1.499 . S
C1419 C1420 1.373 . S
C1419 C1421 1.389 . S
C1420 H1393 0.950 . S
C1420 C1406 1.377 . S
C1420 C1419 1.373 . S
C1421 C1405 1.377 . S
C1421 C1419 1.389 . S
C1421 C1422 1.524 . S
C1422 C1421 1.524 . S
C1422 C1423 1.397 . S
C1422 C1427 1.363 . S
C1423 H1394 0.950 . S
C1423 C1422 1.397 . S
C1423 C1424 1.334 . S
C1424 H1395 0.950 . S
C1424 C1423 1.334 . S
C1424 C1425 1.287 . S
C1425 C1424 1.287 . S
C1425 C1426 1.524 . S
C1425 H1428 0.999 . S
C1426 H1396 0.950 . S
C1426 C1425 1.524 . S
C1426 C1427 1.415 . S
C1427 H1397 0.950 . S
C1427 C1422 1.363 . S
C1427 C1426 1.415 . S
H1428 C1425 0.999 . S
H1429 C1410 0.913 . S
H1430 C1448 0.951 . S
H1431 C1450 0.951 . S
H1432 C1452 0.950 . S
H1433 C1453 0.950 . S
H1434 C1455 0.950 . S
H1435 C1458 0.950 . S
H1436 C1459 0.950 . S
H1437 C1461 0.950 . S
H1438 C1462 0.950 . S
H1439 C1463 0.951 . S
H1440 C1465 0.951 . S
H1441 C1467 0.950 . S
H1442 C1468 0.950 . S
H1443 C1470 0.950 . S
H1444 C1473 0.950 . S
H1445 C1474 0.950 . S
H1446 C1476 0.950 . S
H1447 C1477 0.950 . S
C1448 H1430 0.951 . S
C1448 C1449 1.366 . S
C1448 C1450 1.388 . S
C1449 C1448 1.366 . S
C1449 C1453 1.385 . S
C1450 H1431 0.951 . S
C1450 C1448 1.388 . S
C1450 C1451 1.366 . S
C1451 C1450 1.366 . S
C1451 C1452 1.414 . S
C1451 C1454 1.499 . S
C1452 H1432 0.950 . S
C1452 C1451 1.414 . S
C1452 C1453 1.374 . S
C1453 H1433 0.950 . S
C1453 C1449 1.385 . S
C1453 C1452 1.374 . S
C1454 C1451 1.499 . S
C1454 C1455 1.373 . S
C1454 C1456 1.389 . S
C1455 H1434 0.950 . S
C1455 C1454 1.373 . S
C1455 C1471 1.377 . S
C1456 C1454 1.389 . S
C1456 C1457 1.524 . S
C1456 C1470 1.377 . S
C1457 C1456 1.524 . S
C1457 C1458 1.397 . S
C1457 C1462 1.363 . S
C1458 H1435 0.950 . S
C1458 C1457 1.397 . S
C1458 C1459 1.334 . S
C1459 H1436 0.950 . S
C1459 C1458 1.334 . S
C1459 C1460 1.287 . S
C1460 C1459 1.287 . S
C1460 C1461 1.524 . S
C1460 H1479 0.913 . S
C1461 H1437 0.950 . S
C1461 C1460 1.524 . S
C1461 C1462 1.415 . S
C1462 H1438 0.950 . S
C1462 C1457 1.363 . S
C1462 C1461 1.415 . S
C1463 H1439 0.951 . S
C1463 C1464 1.366 . S
C1463 C1465 1.388 . S
C1464 C1463 1.366 . S
C1464 C1468 1.385 . S
C1465 H1440 0.951 . S
C1465 C1463 1.388 . S
C1465 C1466 1.366 . S
C1466 C1465 1.366 . S
C1466 C1467 1.414 . S
C1466 C1469 1.499 . S
C1467 H1441 0.950 . S
C1467 C1466 1.414 . S
C1467 C1468 1.374 . S
C1468 H1442 0.950 . S
C1468 C1464 1.385 . S
C1468 C1467 1.374 . S
C1469 C1466 1.499 . S
C1469 C1470 1.373 . S
C1469 C1471 1.389 . S
C1470 H1443 0.950 . S
C1470 C1456 1.377 . S
C1470 C1469 1.373 . S
C1471 C1455 1.377 . S
C1471 C1469 1.389 . S
C1471 C1472 1.524 . S
C1472 C1471 1.524 . S
C1472 C1473 1.397 . S
C1472 C1477 1.363 . S
C1473 H1444 0.950 . S
C1473 C1472 1.397 . S
C1473 C1474 1.334 . S
C1474 H1445 0.950 . S
C1474 C1473 1.334 . S
C1474 C1475 1.287 . S
C1475 C1474 1.287 . S
C1475 C1476 1.524 . S
C1475 H1478 0.999 . S
C1476 H1446 0.950 . S
C1476 C1475 1.524 . S
C1476 C1477 1.415 . S
C1477 H1447 0.950 . S
C1477 C1472 1.363 . S
C1477 C1476 1.415 . S
H1478 C1475 0.999 . S
H1479 C1460 0.913 . S
H1480 C1498 0.951 . S
H1481 C1500 0.951 . S
H1482 C1502 0.950 . S
H1483 C1503 0.950 . S
H1484 C1505 0.950 . S
H1485 C1508 0.950 . S
H1486 C1509 0.950 . S
H1487 C1511 0.950 . S
H1488 C1512 0.950 . S
H1489 C1513 0.951 . S
H1490 C1515 0.951 . S
H1491 C1517 0.950 . S
H1492 C1518 0.950 . S
H1493 C1520 0.950 . S
H1494 C1523 0.950 . S
H1495 C1524 0.950 . S
H1496 C1526 0.950 . S
H1497 C1527 0.950 . S
C1498 H1480 0.951 . S
C1498 C1499 1.366 . S
C1498 C1500 1.388 . S
C1499 C1498 1.366 . S
C1499 C1503 1.385 . S
C1500 H1481 0.951 . S
C1500 C1498 1.388 . S
C1500 C1501 1.366 . S
C1501 C1500 1.366 . S
C1501 C1502 1.414 . S
C1501 C1504 1.499 . S
C1502 H1482 0.950 . S
C1502 C1501 1.414 . S
C1502 C1503 1.374 . S
C1503 H1483 0.950 . S
C1503 C1499 1.385 . S
C1503 C1502 1.374 . S
C1504 C1501 1.499 . S
C1504 C1505 1.373 . S
C1504 C1506 1.389 . S
C1505 H1484 0.950 . S
C1505 C1504 1.373 . S
C1505 C1521 1.377 . S
C1506 C1504 1.389 . S
C1506 C1507 1.524 . S
C1506 C1520 1.377 . S
C1507 C1506 1.524 . S
C1507 C1508 1.397 . S
C1507 C1512 1.363 . S
C1508 H1485 0.950 . S
C1508 C1507 1.397 . S
C1508 C1509 1.334 . S
C1509 H1486 0.950 . S
C1509 C1508 1.334 . S
C1509 C1510 1.287 . S
C1510 C1509 1.287 . S
C1510 C1511 1.524 . S
C1510 H1529 0.913 . S
C1511 H1487 0.950 . S
C1511 C1510 1.524 . S
C1511 C1512 1.415 . S
C1512 H1488 0.950 . S
C1512 C1507 1.363 . S
C1512 C1511 1.415 . S
C1513 H1489 0.951 . S
C1513 C1514 1.366 . S
C1513 C1515 1.388 . S
C1514 C1513 1.366 . S
C1514 C1518 1.385 . S
C1515 H1490 0.951 . S
C1515 C1513 1.388 . S
C1515 C1516 1.366 . S
C1516 C1515 1.366 . S
C1516 C1517 1.414 . S
C1516 C1519 1.499 . S
C1517 H1491 0.950 . S
C1517 C1516 1.414 . S
C1517 C1518 1.374 . S
C1518 H1492 0.950 . S
C1518 C1514 1.385 . S
C1518 C1517 1.374 . S
C1519 C1516 1.499 . S
C1519 C1520 1.373 . S
C1519 C1521 1.389 . S
C1520 H1493 0.950 . S
C1520 C1506 1.377 . S
C1520 C1519 1.373 . S
C1521 C1505 1.377 . S
C1521 C1519 1.389 . S
C1521 C1522 1.524 . S
C1522 C1521 1.524 . S
C1522 C1523 1.397 . S
C1522 C1527 1.363 . S
C1523 H1494 0.950 . S
C1523 C1522 1.397 . S
C1523 C1524 1.334 . S
C1524 H1495 0.950 . S
C1524 C1523 1.334 . S
C1524 C1525 1.287 . S
C1525 C1524 1.287 . S
C1525 C1526 1.524 . S
C1525 H1528 0.999 . S
C1526 H1496 0.950 . S
C1526 C1525 1.524 . S
C1526 C1527 1.415 . S
C1527 H1497 0.950 . S
C1527 C1522 1.363 . S
C1527 C1526 1.415 . S
H1528 C1525 0.999 . S
H1529 C1510 0.913 . S
H1530 C1548 0.951 . S
H1531 C1550 0.951 . S
H1532 C1552 0.950 . S
H1533 C1553 0.950 . S
H1534 C1555 0.950 . S
H1535 C1558 0.950 . S
H1536 C1559 0.950 . S
H1537 C1561 0.950 . S
H1538 C1562 0.950 . S
H1539 C1563 0.951 . S
H1540 C1565 0.951 . S
H1541 C1567 0.950 . S
H1542 C1568 0.950 . S
H1543 C1570 0.950 . S
H1544 C1573 0.950 . S
H1545 C1574 0.950 . S
H1546 C1576 0.950 . S
H1547 C1577 0.950 . S
C1548 H1530 0.951 . S
C1548 C1549 1.366 . S
C1548 C1550 1.388 . S
C1549 C1548 1.366 . S
C1549 C1553 1.385 . S
C1550 H1531 0.951 . S
C1550 C1548 1.388 . S
C1550 C1551 1.366 . S
C1551 C1550 1.366 . S
C1551 C1552 1.414 . S
C1551 C1554 1.499 . S
C1552 H1532 0.950 . S
C1552 C1551 1.414 . S
C1552 C1553 1.374 . S
C1553 H1533 0.950 . S
C1553 C1549 1.385 . S
C1553 C1552 1.374 . S
C1554 C1551 1.499 . S
C1554 C1555 1.373 . S
C1554 C1556 1.389 . S
C1555 H1534 0.950 . S
C1555 C1554 1.373 . S
C1555 C1571 1.377 . S
C1556 C1554 1.389 . S
C1556 C1557 1.524 . S
C1556 C1570 1.377 . S
C1557 C1556 1.524 . S
C1557 C1558 1.397 . S
C1557 C1562 1.363 . S
C1558 H1535 0.950 . S
C1558 C1557 1.397 . S
C1558 C1559 1.334 . S
C1559 H1536 0.950 . S
C1559 C1558 1.334 . S
C1559 C1560 1.287 . S
C1560 C1559 1.287 . S
C1560 C1561 1.524 . S
C1560 H1579 0.913 . S
C1561 H1537 0.950 . S
C1561 C1560 1.524 . S
C1561 C1562 1.415 . S
C1562 H1538 0.950 . S
C1562 C1557 1.363 . S
C1562 C1561 1.415 . S
C1563 H1539 0.951 . S
C1563 C1564 1.366 . S
C1563 C1565 1.388 . S
C1564 C1563 1.366 . S
C1564 C1568 1.385 . S
C1565 H1540 0.951 . S
C1565 C1563 1.388 . S
C1565 C1566 1.366 . S
C1566 C1565 1.366 . S
C1566 C1567 1.414 . S
C1566 C1569 1.499 . S
C1567 H1541 0.950 . S
C1567 C1566 1.414 . S
C1567 C1568 1.374 . S
C1568 H1542 0.950 . S
C1568 C1564 1.385 . S
C1568 C1567 1.374 . S
C1569 C1566 1.499 . S
C1569 C1570 1.373 . S
C1569 C1571 1.389 . S
C1570 H1543 0.950 . S
C1570 C1556 1.377 . S
C1570 C1569 1.373 . S
C1571 C1555 1.377 . S
C1571 C1569 1.389 . S
C1571 C1572 1.524 . S
C1572 C1571 1.524 . S
C1572 C1573 1.397 . S
C1572 C1577 1.363 . S
C1573 H1544 0.950 . S
C1573 C1572 1.397 . S
C1573 C1574 1.334 . S
C1574 H1545 0.950 . S
C1574 C1573 1.334 . S
C1574 C1575 1.287 . S
C1575 C1574 1.287 . S
C1575 C1576 1.524 . S
C1575 H1578 0.999 . S
C1576 H1546 0.950 . S
C1576 C1575 1.524 . S
C1576 C1577 1.415 . S
C1577 H1547 0.950 . S
C1577 C1572 1.363 . S
C1577 C1576 1.415 . S
H1578 C1575 0.999 . S
H1579 C1560 0.913 . S
H1580 C1598 0.951 . S
H1581 C1600 0.951 . S
H1582 C1602 0.950 . S
H1583 C1603 0.950 . S
H1584 C1605 0.950 . S
H1585 C1608 0.950 . S
H1586 C1609 0.950 . S
H1587 C1611 0.950 . S
H1588 C1612 0.950 . S
H1589 C1613 0.951 . S
H1590 C1615 0.951 . S
H1591 C1617 0.950 . S
H1592 C1618 0.950 . S
H1593 C1620 0.950 . S
H1594 C1623 0.950 . S
H1595 C1624 0.950 . S
H1596 C1626 0.950 . S
H1597 C1627 0.950 . S
C1598 H1580 0.951 . S
C1598 C1599 1.366 . S
C1598 C1600 1.388 . S
C1599 C1598 1.366 . S
C1599 C1603 1.385 . S
C1600 H1581 0.951 . S
C1600 C1598 1.388 . S
C1600 C1601 1.366 . S
C1601 C1600 1.366 . S
C1601 C1602 1.414 . S
C1601 C1604 1.499 . S
C1602 H1582 0.950 . S
C1602 C1601 1.414 . S
C1602 C1603 1.374 . S
C1603 H1583 0.950 . S
C1603 C1599 1.385 . S
C1603 C1602 1.374 . S
C1604 C1601 1.499 . S
C1604 C1605 1.373 . S
C1604 C1606 1.389 . S
C1605 H1584 0.950 . S
C1605 C1604 1.373 . S
C1605 C1621 1.377 . S
C1606 C1604 1.389 . S
C1606 C1607 1.524 . S
C1606 C1620 1.377 . S
C1607 C1606 1.524 . S
C1607 C1608 1.397 . S
C1607 C1612 1.363 . S
C1608 H1585 0.950 . S
C1608 C1607 1.397 . S
C1608 C1609 1.334 . S
C1609 H1586 0.950 . S
C1609 C1608 1.334 . S
C1609 C1610 1.287 . S
C1610 C1609 1.287 . S
C1610 C1611 1.524 . S
C1610 H1629 0.913 . S
C1611 H1587 0.950 . S
C1611 C1610 1.524 . S
C1611 C1612 1.415 . S
C1612 H1588 0.950 . S
C1612 C1607 1.363 . S
C1612 C1611 1.415 . S
C1613 H1589 0.951 . S
C1613 C1614 1.366 . S
C1613 C1615 1.388 . S
C1614 C1613 1.366 . S
C1614 C1618 1.385 . S
C1615 H1590 0.951 . S
C1615 C1613 1.388 . S
C1615 C1616 1.366 . S
C1616 C1615 1.366 . S
C1616 C1617 1.414 . S
C1616 C1619 1.499 . S
C1617 H1591 0.950 . S
C1617 C1616 1.414 . S
C1617 C1618 1.374 . S
C1618 H1592 0.950 . S
C1618 C1614 1.385 . S
C1618 C1617 1.374 . S
C1619 C1616 1.499 . S
C1619 C1620 1.373 . S
C1619 C1621 1.389 . S
C1620 H1593 0.950 . S
C1620 C1606 1.377 . S
C1620 C1619 1.373 . S
C1621 C1605 1.377 . S
C1621 C1619 1.389 . S
C1621 C1622 1.524 . S
C1622 C1621 1.524 . S
C1622 C1623 1.397 . S
C1622 C1627 1.363 . S
C1623 H1594 0.950 . S
C1623 C1622 1.397 . S
C1623 C1624 1.334 . S
C1624 H1595 0.950 . S
C1624 C1623 1.334 . S
C1624 C1625 1.287 . S
C1625 C1624 1.287 . S
C1625 C1626 1.524 . S
C1625 H1628 0.999 . S
C1626 H1596 0.950 . S
C1626 C1625 1.524 . S
C1626 C1627 1.415 . S
C1627 H1597 0.950 . S
C1627 C1622 1.363 . S
C1627 C1626 1.415 . S
H1628 C1625 0.999 . S
H1629 C1610 0.913 . S
H1630 C1648 0.951 . S
H1631 C1650 0.951 . S
H1632 C1652 0.950 . S
H1633 C1653 0.950 . S
H1634 C1655 0.950 . S
H1635 C1658 0.950 . S
H1636 C1659 0.950 . S
H1637 C1661 0.950 . S
H1638 C1662 0.950 . S
H1639 C1663 0.951 . S
H1640 C1665 0.951 . S
H1641 C1667 0.950 . S
H1642 C1668 0.950 . S
H1643 C1670 0.950 . S
H1644 C1673 0.950 . S
H1645 C1674 0.950 . S
H1646 C1676 0.950 . S
H1647 C1677 0.950 . S
C1648 H1630 0.951 . S
C1648 C1649 1.366 . S
C1648 C1650 1.388 . S
C1649 C1648 1.366 . S
C1649 C1653 1.385 . S
C1650 H1631 0.951 . S
C1650 C1648 1.388 . S
C1650 C1651 1.366 . S
C1651 C1650 1.366 . S
C1651 C1652 1.414 . S
C1651 C1654 1.499 . S
C1652 H1632 0.950 . S
C1652 C1651 1.414 . S
C1652 C1653 1.374 . S
C1653 H1633 0.950 . S
C1653 C1649 1.385 . S
C1653 C1652 1.374 . S
C1654 C1651 1.499 . S
C1654 C1655 1.373 . S
C1654 C1656 1.389 . S
C1655 H1634 0.950 . S
C1655 C1654 1.373 . S
C1655 C1671 1.377 . S
C1656 C1654 1.389 . S
C1656 C1657 1.524 . S
C1656 C1670 1.377 . S
C1657 C1656 1.524 . S
C1657 C1658 1.397 . S
C1657 C1662 1.363 . S
C1658 H1635 0.950 . S
C1658 C1657 1.397 . S
C1658 C1659 1.334 1_565 S
C1659 H1636 0.950 . S
C1659 C1658 1.334 1_545 S
C1659 C1660 1.287 . S
C1660 C1659 1.287 . S
C1660 C1661 1.524 . S
C1660 H1679 0.913 . S
C1661 H1637 0.950 . S
C1661 C1660 1.524 . S
C1661 C1662 1.415 1_545 S
C1662 H1638 0.950 . S
C1662 C1657 1.363 . S
C1662 C1661 1.415 1_565 S
C1663 H1639 0.951 . S
C1663 C1664 1.366 . S
C1663 C1665 1.388 . S
C1664 C1663 1.366 . S
C1664 C1668 1.385 . S
C1665 H1640 0.951 . S
C1665 C1663 1.388 . S
C1665 C1666 1.366 . S
C1666 C1665 1.366 . S
C1666 C1667 1.414 . S
C1666 C1669 1.499 . S
C1667 H1641 0.950 . S
C1667 C1666 1.414 . S
C1667 C1668 1.374 . S
C1668 H1642 0.950 . S
C1668 C1664 1.385 . S
C1668 C1667 1.374 . S
C1669 C1666 1.499 . S
C1669 C1670 1.373 . S
C1669 C1671 1.389 . S
C1670 H1643 0.950 . S
C1670 C1656 1.377 . S
C1670 C1669 1.373 . S
C1671 C1655 1.377 . S
C1671 C1669 1.389 . S
C1671 C1672 1.524 . S
C1672 C1671 1.524 . S
C1672 C1673 1.397 . S
C1672 C1677 1.363 . S
C1673 H1644 0.950 . S
C1673 C1672 1.397 . S
C1673 C1674 1.334 . S
C1674 H1645 0.950 . S
C1674 C1673 1.334 . S
C1674 C1675 1.287 . S
C1675 C1674 1.287 . S
C1675 C1676 1.524 . S
C1675 H1678 0.999 . S
C1676 H1646 0.950 . S
C1676 C1675 1.524 . S
C1676 C1677 1.415 . S
C1677 H1647 0.950 . S
C1677 C1672 1.363 . S
C1677 C1676 1.415 . S
H1678 C1675 0.999 . S
H1679 C1660 0.913 . S
H1680 C1698 0.951 . S
H1681 C1700 0.951 . S
H1682 C1702 0.950 . S
H1683 C1703 0.950 . S
H1684 C1705 0.950 . S
H1685 C1708 0.950 . S
H1686 C1709 0.950 . S
H1687 C1711 0.950 . S
H1688 C1712 0.950 . S
H1689 C1713 0.951 . S
H1690 C1715 0.951 . S
H1691 C1717 0.950 . S
H1692 C1718 0.950 . S
H1693 C1720 0.950 . S
H1694 C1723 0.950 . S
H1695 C1724 0.950 . S
H1696 C1726 0.950 . S
H1697 C1727 0.950 . S
C1698 H1680 0.951 . S
C1698 C1699 1.366 . S
C1698 C1700 1.388 . S
C1699 C1698 1.366 . S
C1699 C1703 1.385 . S
C1700 H1681 0.951 . S
C1700 C1698 1.388 . S
C1700 C1701 1.366 . S
C1701 C1700 1.366 . S
C1701 C1702 1.414 . S
C1701 C1704 1.499 . S
C1702 H1682 0.950 . S
C1702 C1701 1.414 . S
C1702 C1703 1.374 . S
C1703 H1683 0.950 . S
C1703 C1699 1.385 . S
C1703 C1702 1.374 . S
C1704 C1701 1.499 . S
C1704 C1705 1.373 . S
C1704 C1706 1.389 . S
C1705 H1684 0.950 . S
C1705 C1704 1.373 . S
C1705 C1721 1.377 . S
C1706 C1704 1.389 . S
C1706 C1707 1.524 . S
C1706 C1720 1.377 . S
C1707 C1706 1.524 . S
C1707 C1708 1.397 . S
C1707 C1712 1.363 . S
C1708 H1685 0.950 . S
C1708 C1707 1.397 . S
C1708 C1709 1.334 . S
C1709 H1686 0.950 . S
C1709 C1708 1.334 . S
C1709 C1710 1.287 . S
C1710 C1709 1.287 . S
C1710 C1711 1.524 . S
C1710 H1729 0.913 . S
C1711 H1687 0.950 . S
C1711 C1710 1.524 . S
C1711 C1712 1.415 . S
C1712 H1688 0.950 . S
C1712 C1707 1.363 . S
C1712 C1711 1.415 . S
C1713 H1689 0.951 . S
C1713 C1714 1.366 . S
C1713 C1715 1.388 . S
C1714 C1713 1.366 . S
C1714 C1718 1.385 . S
C1715 H1690 0.951 . S
C1715 C1713 1.388 . S
C1715 C1716 1.366 . S
C1716 C1715 1.366 . S
C1716 C1717 1.414 . S
C1716 C1719 1.499 . S
C1717 H1691 0.950 . S
C1717 C1716 1.414 . S
C1717 C1718 1.374 . S
C1718 H1692 0.950 . S
C1718 C1714 1.385 . S
C1718 C1717 1.374 . S
C1719 C1716 1.499 . S
C1719 C1720 1.373 . S
C1719 C1721 1.389 . S
C1720 H1693 0.950 . S
C1720 C1706 1.377 . S
C1720 C1719 1.373 . S
C1721 C1705 1.377 . S
C1721 C1719 1.389 . S
C1721 C1722 1.524 . S
C1722 C1721 1.524 . S
C1722 C1723 1.397 . S
C1722 C1727 1.363 . S
C1723 H1694 0.950 . S
C1723 C1722 1.397 . S
C1723 C1724 1.334 . S
C1724 H1695 0.950 . S
C1724 C1723 1.334 . S
C1724 C1725 1.287 . S
C1725 C1724 1.287 . S
C1725 C1726 1.524 . S
C1725 H1728 0.999 . S
C1726 H1696 0.950 . S
C1726 C1725 1.524 . S
C1726 C1727 1.415 . S
C1727 H1697 0.950 . S
C1727 C1722 1.363 . S
C1727 C1726 1.415 . S
H1728 C1725 0.999 . S
H1729 C1710 0.913 . S
H1730 C1748 0.951 . S
H1731 C1750 0.951 . S
H1732 C1752 0.950 . S
H1733 C1753 0.950 . S
H1734 C1755 0.950 . S
H1735 C1758 0.950 . S
H1736 C1759 0.950 . S
H1737 C1761 0.950 . S
H1738 C1762 0.950 . S
H1739 C1763 0.951 . S
H1740 C1765 0.951 . S
H1741 C1767 0.950 . S
H1742 C1768 0.950 . S
H1743 C1770 0.950 . S
H1744 C1773 0.950 . S
H1745 C1774 0.950 . S
H1746 C1776 0.950 . S
H1747 C1777 0.950 . S
C1748 H1730 0.951 . S
C1748 C1749 1.366 . S
C1748 C1750 1.388 . S
C1749 C1748 1.366 . S
C1749 C1753 1.385 . S
C1750 H1731 0.951 . S
C1750 C1748 1.388 . S
C1750 C1751 1.366 . S
C1751 C1750 1.366 . S
C1751 C1752 1.414 . S
C1751 C1754 1.499 . S
C1752 H1732 0.950 . S
C1752 C1751 1.414 . S
C1752 C1753 1.374 . S
C1753 H1733 0.950 . S
C1753 C1749 1.385 . S
C1753 C1752 1.374 . S
C1754 C1751 1.499 . S
C1754 C1755 1.373 . S
C1754 C1756 1.389 . S
C1755 H1734 0.950 . S
C1755 C1754 1.373 . S
C1755 C1771 1.377 . S
C1756 C1754 1.389 . S
C1756 C1757 1.524 . S
C1756 C1770 1.377 . S
C1757 C1756 1.524 . S
C1757 C1758 1.397 . S
C1757 C1762 1.363 . S
C1758 H1735 0.950 . S
C1758 C1757 1.397 . S
C1758 C1759 1.334 . S
C1759 H1736 0.950 . S
C1759 C1758 1.334 . S
C1759 C1760 1.287 . S
C1760 C1759 1.287 . S
C1760 C1761 1.524 . S
C1760 H1779 0.913 . S
C1761 H1737 0.950 . S
C1761 C1760 1.524 . S
C1761 C1762 1.415 . S
C1762 H1738 0.950 . S
C1762 C1757 1.363 . S
C1762 C1761 1.415 . S
C1763 H1739 0.951 . S
C1763 C1764 1.366 . S
C1763 C1765 1.388 . S
C1764 C1763 1.366 . S
C1764 C1768 1.385 . S
C1765 H1740 0.951 . S
C1765 C1763 1.388 . S
C1765 C1766 1.366 . S
C1766 C1765 1.366 . S
C1766 C1767 1.414 . S
C1766 C1769 1.499 . S
C1767 H1741 0.950 . S
C1767 C1766 1.414 . S
C1767 C1768 1.374 . S
C1768 H1742 0.950 . S
C1768 C1764 1.385 . S
C1768 C1767 1.374 . S
C1769 C1766 1.499 . S
C1769 C1770 1.373 . S
C1769 C1771 1.389 . S
C1770 H1743 0.950 . S
C1770 C1756 1.377 . S
C1770 C1769 1.373 . S
C1771 C1755 1.377 . S
C1771 C1769 1.389 . S
C1771 C1772 1.524 . S
C1772 C1771 1.524 . S
C1772 C1773 1.397 . S
C1772 C1777 1.363 . S
C1773 H1744 0.950 . S
C1773 C1772 1.397 . S
C1773 C1774 1.334 . S
C1774 H1745 0.950 . S
C1774 C1773 1.334 . S
C1774 C1775 1.287 . S
C1775 C1774 1.287 . S
C1775 C1776 1.524 . S
C1775 H1778 0.999 . S
C1776 H1746 0.950 . S
C1776 C1775 1.524 . S
C1776 C1777 1.415 . S
C1777 H1747 0.950 . S
C1777 C1772 1.363 . S
C1777 C1776 1.415 . S
H1778 C1775 0.999 . S
H1779 C1760 0.913 . S
H1780 C1798 0.951 . S
H1781 C1800 0.951 . S
H1782 C1802 0.950 . S
H1783 C1803 0.950 . S
H1784 C1805 0.950 . S
H1785 C1808 0.950 . S
H1786 C1809 0.950 . S
H1787 C1811 0.950 . S
H1788 C1812 0.950 . S
H1789 C1813 0.951 . S
H1790 C1815 0.951 . S
H1791 C1817 0.950 . S
H1792 C1818 0.950 . S
H1793 C1820 0.950 . S
H1794 C1823 0.950 . S
H1795 C1824 0.950 . S
H1796 C1826 0.950 1_455 S
H1797 C1827 0.950 . S
C1798 H1780 0.951 . S
C1798 C1799 1.366 . S
C1798 C1800 1.388 . S
C1799 C1798 1.366 . S
C1799 C1803 1.385 . S
C1800 H1781 0.951 . S
C1800 C1798 1.388 . S
C1800 C1801 1.366 . S
C1801 C1800 1.366 . S
C1801 C1802 1.414 . S
C1801 C1804 1.499 . S
C1802 H1782 0.950 . S
C1802 C1801 1.414 . S
C1802 C1803 1.374 . S
C1803 H1783 0.950 . S
C1803 C1799 1.385 . S
C1803 C1802 1.374 . S
C1804 C1801 1.499 . S
C1804 C1805 1.373 . S
C1804 C1806 1.389 . S
C1805 H1784 0.950 . S
C1805 C1804 1.373 . S
C1805 C1821 1.377 . S
C1806 C1804 1.389 . S
C1806 C1807 1.524 . S
C1806 C1820 1.377 . S
C1807 C1806 1.524 . S
C1807 C1808 1.397 . S
C1807 C1812 1.363 . S
C1808 H1785 0.950 . S
C1808 C1807 1.397 . S
C1808 C1809 1.334 . S
C1809 H1786 0.950 . S
C1809 C1808 1.334 . S
C1809 C1810 1.287 . S
C1810 C1809 1.287 . S
C1810 C1811 1.524 . S
C1810 H1829 0.913 . S
C1811 H1787 0.950 . S
C1811 C1810 1.524 . S
C1811 C1812 1.415 . S
C1812 H1788 0.950 . S
C1812 C1807 1.363 . S
C1812 C1811 1.415 . S
C1813 H1789 0.951 . S
C1813 C1814 1.366 . S
C1813 C1815 1.388 . S
C1814 C1813 1.366 . S
C1814 C1818 1.385 . S
C1815 H1790 0.951 . S
C1815 C1813 1.388 . S
C1815 C1816 1.366 . S
C1816 C1815 1.366 . S
C1816 C1817 1.414 . S
C1816 C1819 1.499 . S
C1817 H1791 0.950 . S
C1817 C1816 1.414 . S
C1817 C1818 1.374 . S
C1818 H1792 0.950 . S
C1818 C1814 1.385 . S
C1818 C1817 1.374 . S
C1819 C1816 1.499 . S
C1819 C1820 1.373 . S
C1819 C1821 1.389 . S
C1820 H1793 0.950 . S
C1820 C1806 1.377 . S
C1820 C1819 1.373 . S
C1821 C1805 1.377 . S
C1821 C1819 1.389 . S
C1821 C1822 1.524 . S
C1822 C1821 1.524 . S
C1822 C1823 1.397 . S
C1822 C1827 1.363 . S
C1823 H1794 0.950 . S
C1823 C1822 1.397 . S
C1823 C1824 1.334 . S
C1824 H1795 0.950 . S
C1824 C1823 1.334 . S
C1824 C1825 1.287 . S
C1825 C1824 1.287 . S
C1825 C1826 1.524 . S
C1825 H1828 0.999 . S
C1826 H1796 0.950 1_655 S
C1826 C1825 1.524 . S
C1826 C1827 1.415 . S
C1827 H1797 0.950 . S
C1827 C1822 1.363 . S
C1827 C1826 1.415 . S
H1828 C1825 0.999 . S
H1829 C1810 0.913 . S
H1830 C1848 0.951 . S
H1831 C1850 0.951 . S
H1832 C1852 0.950 . S
H1833 C1853 0.950 . S
H1834 C1855 0.950 . S
H1835 C1858 0.950 . S
H1836 C1859 0.950 . S
H1837 C1861 0.950 . S
H1838 C1862 0.950 . S
H1839 C1863 0.951 . S
H1840 C1865 0.951 . S
H1841 C1867 0.950 . S
H1842 C1868 0.950 . S
H1843 C1870 0.950 . S
H1844 C1873 0.950 . S
H1845 C1874 0.950 . S
H1846 C1876 0.950 . S
H1847 C1877 0.950 . S
C1848 H1830 0.951 . S
C1848 C1849 1.366 . S
C1848 C1850 1.388 . S
C1849 C1848 1.366 . S
C1849 C1853 1.385 . S
C1850 H1831 0.951 . S
C1850 C1848 1.388 . S
C1850 C1851 1.366 . S
C1851 C1850 1.366 . S
C1851 C1852 1.414 . S
C1851 C1854 1.499 . S
C1852 H1832 0.950 . S
C1852 C1851 1.414 . S
C1852 C1853 1.374 . S
C1853 H1833 0.950 . S
C1853 C1849 1.385 . S
C1853 C1852 1.374 . S
C1854 C1851 1.499 . S
C1854 C1855 1.373 . S
C1854 C1856 1.389 . S
C1855 H1834 0.950 . S
C1855 C1854 1.373 . S
C1855 C1871 1.377 . S
C1856 C1854 1.389 . S
C1856 C1857 1.524 . S
C1856 C1870 1.377 . S
C1857 C1856 1.524 . S
C1857 C1858 1.397 . S
C1857 C1862 1.363 . S
C1858 H1835 0.950 . S
C1858 C1857 1.397 . S
C1858 C1859 1.334 . S
C1859 H1836 0.950 . S
C1859 C1858 1.334 . S
C1859 C1860 1.287 . S
C1860 C1859 1.287 . S
C1860 C1861 1.524 . S
C1860 H1879 0.913 . S
C1861 H1837 0.950 . S
C1861 C1860 1.524 . S
C1861 C1862 1.415 . S
C1862 H1838 0.950 . S
C1862 C1857 1.363 . S
C1862 C1861 1.415 . S
C1863 H1839 0.951 . S
C1863 C1864 1.366 . S
C1863 C1865 1.388 . S
C1864 C1863 1.366 . S
C1864 C1868 1.385 . S
C1865 H1840 0.951 . S
C1865 C1863 1.388 . S
C1865 C1866 1.366 . S
C1866 C1865 1.366 . S
C1866 C1867 1.414 . S
C1866 C1869 1.499 . S
C1867 H1841 0.950 . S
C1867 C1866 1.414 . S
C1867 C1868 1.374 . S
C1868 H1842 0.950 . S
C1868 C1864 1.385 . S
C1868 C1867 1.374 . S
C1869 C1866 1.499 . S
C1869 C1870 1.373 . S
C1869 C1871 1.389 . S
C1870 H1843 0.950 . S
C1870 C1856 1.377 . S
C1870 C1869 1.373 . S
C1871 C1855 1.377 . S
C1871 C1869 1.389 . S
C1871 C1872 1.524 . S
C1872 C1871 1.524 . S
C1872 C1873 1.397 . S
C1872 C1877 1.363 . S
C1873 H1844 0.950 . S
C1873 C1872 1.397 . S
C1873 C1874 1.334 . S
C1874 H1845 0.950 . S
C1874 C1873 1.334 . S
C1874 C1875 1.287 . S
C1875 C1874 1.287 . S
C1875 C1876 1.524 . S
C1875 H1878 0.999 . S
C1876 H1846 0.950 . S
C1876 C1875 1.524 . S
C1876 C1877 1.415 . S
C1877 H1847 0.950 . S
C1877 C1872 1.363 . S
C1877 C1876 1.415 . S
H1878 C1875 0.999 . S
H1879 C1860 0.913 . S
H1880 C1898 0.951 . S
H1881 C1900 0.951 . S
H1882 C1902 0.950 . S
H1883 C1903 0.950 . S
H1884 C1905 0.950 . S
H1885 C1908 0.950 . S
H1886 C1909 0.950 . S
H1887 C1911 0.950 . S
H1888 C1912 0.950 . S
H1889 C1913 0.951 . S
H1890 C1915 0.951 . S
H1891 C1917 0.950 . S
H1892 C1918 0.950 . S
H1893 C1920 0.950 . S
H1894 C1923 0.950 . S
H1895 C1924 0.950 . S
H1896 C1926 0.950 . S
H1897 C1927 0.950 . S
C1898 H1880 0.951 . S
C1898 C1899 1.366 . S
C1898 C1900 1.388 . S
C1899 C1898 1.366 . S
C1899 C1903 1.385 . S
C1900 H1881 0.951 . S
C1900 C1898 1.388 . S
C1900 C1901 1.366 . S
C1901 C1900 1.366 . S
C1901 C1902 1.414 . S
C1901 C1904 1.499 . S
C1902 H1882 0.950 . S
C1902 C1901 1.414 . S
C1902 C1903 1.374 . S
C1903 H1883 0.950 . S
C1903 C1899 1.385 . S
C1903 C1902 1.374 . S
C1904 C1901 1.499 . S
C1904 C1905 1.373 . S
C1904 C1906 1.389 . S
C1905 H1884 0.950 . S
C1905 C1904 1.373 . S
C1905 C1921 1.377 . S
C1906 C1904 1.389 . S
C1906 C1907 1.524 . S
C1906 C1920 1.377 . S
C1907 C1906 1.524 . S
C1907 C1908 1.397 . S
C1907 C1912 1.363 . S
C1908 H1885 0.950 . S
C1908 C1907 1.397 . S
C1908 C1909 1.334 . S
C1909 H1886 0.950 . S
C1909 C1908 1.334 . S
C1909 C1910 1.287 . S
C1910 C1909 1.287 . S
C1910 C1911 1.524 . S
C1910 H1929 0.913 . S
C1911 H1887 0.950 . S
C1911 C1910 1.524 . S
C1911 C1912 1.415 . S
C1912 H1888 0.950 . S
C1912 C1907 1.363 . S
C1912 C1911 1.415 . S
C1913 H1889 0.951 . S
C1913 C1914 1.366 . S
C1913 C1915 1.388 . S
C1914 C1913 1.366 . S
C1914 C1918 1.385 . S
C1915 H1890 0.951 . S
C1915 C1913 1.388 . S
C1915 C1916 1.366 . S
C1916 C1915 1.366 . S
C1916 C1917 1.414 . S
C1916 C1919 1.499 . S
C1917 H1891 0.950 . S
C1917 C1916 1.414 . S
C1917 C1918 1.374 . S
C1918 H1892 0.950 . S
C1918 C1914 1.385 . S
C1918 C1917 1.374 . S
C1919 C1916 1.499 . S
C1919 C1920 1.373 . S
C1919 C1921 1.389 . S
C1920 H1893 0.950 . S
C1920 C1906 1.377 . S
C1920 C1919 1.373 . S
C1921 C1905 1.377 . S
C1921 C1919 1.389 . S
C1921 C1922 1.524 . S
C1922 C1921 1.524 . S
C1922 C1923 1.397 . S
C1922 C1927 1.363 . S
C1923 H1894 0.950 . S
C1923 C1922 1.397 . S
C1923 C1924 1.334 . S
C1924 H1895 0.950 . S
C1924 C1923 1.334 . S
C1924 C1925 1.287 . S
C1925 C1924 1.287 . S
C1925 C1926 1.524 . S
C1925 H1928 0.999 . S
C1926 H1896 0.950 . S
C1926 C1925 1.524 . S
C1926 C1927 1.415 . S
C1927 H1897 0.950 . S
C1927 C1922 1.363 . S
C1927 C1926 1.415 . S
H1928 C1925 0.999 . S
H1929 C1910 0.913 . S
H1930 C1948 0.951 1_455 S
H1931 C1950 0.951 . S
H1932 C1952 0.950 . S
H1933 C1953 0.950 . S
H1934 C1955 0.950 . S
H1935 C1958 0.950 . S
H1936 C1959 0.944 1_455 S
H1937 C1961 0.950 . S
H1938 C1962 0.950 . S
H1939 C1963 0.951 . S
H1940 C1965 0.951 . S
H1941 C1967 0.950 . S
H1942 C1968 0.950 . S
H1943 C1970 0.950 . S
H1944 C1973 0.950 . S
H1945 C1974 0.950 . S
H1946 C1976 0.950 . S
H1947 C1977 0.950 . S
C1948 H1930 0.951 1_655 S
C1948 C1949 1.366 . S
C1948 C1950 1.388 . S
C1949 C1948 1.366 . S
C1949 C1953 1.385 . S
C1950 H1931 0.951 . S
C1950 C1948 1.388 . S
C1950 C1951 1.366 . S
C1951 C1950 1.366 . S
C1951 C1952 1.414 . S
C1951 C1954 1.499 . S
C1952 H1932 0.950 . S
C1952 C1951 1.414 . S
C1952 C1953 1.374 . S
C1953 H1933 0.950 . S
C1953 C1949 1.385 . S
C1953 C1952 1.374 . S
C1954 C1951 1.499 . S
C1954 C1955 1.373 . S
C1954 C1956 1.389 . S
C1955 H1934 0.950 . S
C1955 C1954 1.373 . S
C1955 C1971 1.377 . S
C1956 C1954 1.389 . S
C1956 C1957 1.524 . S
C1956 C1970 1.377 . S
C1957 C1956 1.524 . S
C1957 C1958 1.397 . S
C1957 C1962 1.363 . S
C1958 H1935 0.950 . S
C1958 C1957 1.397 . S
C1958 C1959 1.361 . S
C1959 H1936 0.944 1_655 S
C1959 C1958 1.361 . S
C1959 C1960 1.267 1_655 S
C1960 C1959 1.267 1_455 S
C1960 C1961 1.524 . S
C1960 H1979 0.913 . S
C1961 H1937 0.950 . S
C1961 C1960 1.524 . S
C1961 C1962 1.415 1_455 S
C1962 H1938 0.950 . S
C1962 C1957 1.363 . S
C1962 C1961 1.415 1_655 S
C1963 H1939 0.951 . S
C1963 C1964 1.366 . S
C1963 C1965 1.388 . S
C1964 C1963 1.366 . S
C1964 C1968 1.385 . S
C1965 H1940 0.951 . S
C1965 C1963 1.388 . S
C1965 C1966 1.366 . S
C1966 C1965 1.366 . S
C1966 C1967 1.414 . S
C1966 C1969 1.499 . S
C1967 H1941 0.950 . S
C1967 C1966 1.414 . S
C1967 C1968 1.374 . S
C1968 H1942 0.950 . S
C1968 C1964 1.385 . S
C1968 C1967 1.374 . S
C1969 C1966 1.499 . S
C1969 C1970 1.373 . S
C1969 C1971 1.389 . S
C1970 H1943 0.950 . S
C1970 C1956 1.377 . S
C1970 C1969 1.373 . S
C1971 C1955 1.377 . S
C1971 C1969 1.389 . S
C1971 C1972 1.524 . S
C1972 C1971 1.524 . S
C1972 C1973 1.397 . S
C1972 C1977 1.363 . S
C1973 H1944 0.950 . S
C1973 C1972 1.397 . S
C1973 C1974 1.334 . S
C1974 H1945 0.950 . S
C1974 C1973 1.334 . S
C1974 C1975 1.287 . S
C1975 C1974 1.287 . S
C1975 C1976 1.524 . S
C1975 H1978 0.999 . S
C1976 H1946 0.950 . S
C1976 C1975 1.524 . S
C1976 C1977 1.415 . S
C1977 H1947 0.950 . S
C1977 C1972 1.363 . S
C1977 C1976 1.415 . S
H1978 C1975 0.999 . S
H1979 C1960 0.913 . S
H1980 C1998 0.951 . S
H1981 C2000 0.951 . S
H1982 C2002 0.950 . S
H1983 C2003 0.950 . S
H1984 C2005 0.950 . S
H1985 C2008 0.950 . S
H1986 C2009 0.950 . S
H1987 C2011 0.950 . S
H1988 C2012 0.950 . S
H1989 C2013 0.951 . S
H1990 C2015 0.951 . S
H1991 C2017 0.950 . S
H1992 C2018 0.950 . S
H1993 C2020 0.950 . S
H1994 C2023 0.950 . S
H1995 C2024 0.950 . S
H1996 C2026 0.950 . S
H1997 C2027 0.950 . S
C1998 H1980 0.951 . S
C1998 C1999 1.366 . S
C1998 C2000 1.388 . S
C1999 C1998 1.366 . S
C1999 C2003 1.385 . S
C2000 H1981 0.951 . S
C2000 C1998 1.388 . S
C2000 C2001 1.366 . S
C2001 C2000 1.366 . S
C2001 C2002 1.414 . S
C2001 C2004 1.499 . S
C2002 H1982 0.950 . S
C2002 C2001 1.414 . S
C2002 C2003 1.374 . S
C2003 H1983 0.950 . S
C2003 C1999 1.385 . S
C2003 C2002 1.374 . S
C2004 C2001 1.499 . S
C2004 C2005 1.373 . S
C2004 C2006 1.389 . S
C2005 H1984 0.950 . S
C2005 C2004 1.373 . S
C2005 C2021 1.377 . S
C2006 C2004 1.389 . S
C2006 C2007 1.524 . S
C2006 C2020 1.377 . S
C2007 C2006 1.524 . S
C2007 C2008 1.397 . S
C2007 C2012 1.363 . S
C2008 H1985 0.950 . S
C2008 C2007 1.397 . S
C2008 C2009 1.334 . S
C2009 H1986 0.950 . S
C2009 C2008 1.334 . S
C2009 C2010 1.287 . S
C2010 C2009 1.287 . S
C2010 C2011 1.524 . S
C2010 H2029 0.913 . S
C2011 H1987 0.950 . S
C2011 C2010 1.524 . S
C2011 C2012 1.415 . S
C2012 H1988 0.950 . S
C2012 C2007 1.363 . S
C2012 C2011 1.415 . S
C2013 H1989 0.951 . S
C2013 C2014 1.366 . S
C2013 C2015 1.388 . S
C2014 C2013 1.366 . S
C2014 C2018 1.385 . S
C2015 H1990 0.951 . S
C2015 C2013 1.388 . S
C2015 C2016 1.366 . S
C2016 C2015 1.366 . S
C2016 C2017 1.414 . S
C2016 C2019 1.499 . S
C2017 H1991 0.950 . S
C2017 C2016 1.414 . S
C2017 C2018 1.374 . S
C2018 H1992 0.950 . S
C2018 C2014 1.385 . S
C2018 C2017 1.374 . S
C2019 C2016 1.499 . S
C2019 C2020 1.373 . S
C2019 C2021 1.389 . S
C2020 H1993 0.950 . S
C2020 C2006 1.377 . S
C2020 C2019 1.373 . S
C2021 C2005 1.377 . S
C2021 C2019 1.389 . S
C2021 C2022 1.524 . S
C2022 C2021 1.524 . S
C2022 C2023 1.397 . S
C2022 C2027 1.363 . S
C2023 H1994 0.950 . S
C2023 C2022 1.397 . S
C2023 C2024 1.334 . S
C2024 H1995 0.950 . S
C2024 C2023 1.334 . S
C2024 C2025 1.287 . S
C2025 C2024 1.287 . S
C2025 C2026 1.524 . S
C2025 H2028 0.999 . S
C2026 H1996 0.950 . S
C2026 C2025 1.524 . S
C2026 C2027 1.415 . S
C2027 H1997 0.950 . S
C2027 C2022 1.363 . S
C2027 C2026 1.415 . S
H2028 C2025 0.999 . S
H2029 C2010 0.913 . S
H2030 C2048 0.951 . S
H2031 C2050 0.951 . S
H2032 C2052 0.950 . S
H2033 C2053 0.950 . S
H2034 C2055 0.950 . S
H2035 C2058 0.950 . S
H2036 C2059 0.950 . S
H2037 C2061 0.950 . S
H2038 C2062 0.950 . S
H2039 C2063 0.951 . S
H2040 C2065 0.951 . S
H2041 C2067 0.950 . S
H2042 C2068 0.950 . S
H2043 C2070 0.950 . S
H2044 C2073 0.950 . S
H2045 C2074 0.950 . S
H2046 C2076 0.950 . S
H2047 C2077 0.950 . S
C2048 H2030 0.951 . S
C2048 C2049 1.366 . S
C2048 C2050 1.388 . S
C2049 C2048 1.366 . S
C2049 C2053 1.385 . S
C2050 H2031 0.951 . S
C2050 C2048 1.388 . S
C2050 C2051 1.366 . S
C2051 C2050 1.366 . S
C2051 C2052 1.414 . S
C2051 C2054 1.499 . S
C2052 H2032 0.950 . S
C2052 C2051 1.414 . S
C2052 C2053 1.374 . S
C2053 H2033 0.950 . S
C2053 C2049 1.385 . S
C2053 C2052 1.374 . S
C2054 C2051 1.499 . S
C2054 C2055 1.373 . S
C2054 C2056 1.389 . S
C2055 H2034 0.950 . S
C2055 C2054 1.373 . S
C2055 C2071 1.377 . S
C2056 C2054 1.389 . S
C2056 C2057 1.524 . S
C2056 C2070 1.377 . S
C2057 C2056 1.524 . S
C2057 C2058 1.397 . S
C2057 C2062 1.363 . S
C2058 H2035 0.950 . S
C2058 C2057 1.397 . S
C2058 C2059 1.334 . S
C2059 H2036 0.950 . S
C2059 C2058 1.334 . S
C2059 C2060 1.287 . S
C2060 C2059 1.287 . S
C2060 C2061 1.524 . S
C2060 H2079 0.913 . S
C2061 H2037 0.950 . S
C2061 C2060 1.524 . S
C2061 C2062 1.415 . S
C2062 H2038 0.950 . S
C2062 C2057 1.363 . S
C2062 C2061 1.415 . S
C2063 H2039 0.951 . S
C2063 C2064 1.366 . S
C2063 C2065 1.388 . S
C2064 C2063 1.366 . S
C2064 C2068 1.385 . S
C2065 H2040 0.951 . S
C2065 C2063 1.388 . S
C2065 C2066 1.366 . S
C2066 C2065 1.366 . S
C2066 C2067 1.414 . S
C2066 C2069 1.499 . S
C2067 H2041 0.950 . S
C2067 C2066 1.414 . S
C2067 C2068 1.374 . S
C2068 H2042 0.950 . S
C2068 C2064 1.385 . S
C2068 C2067 1.374 . S
C2069 C2066 1.499 . S
C2069 C2070 1.373 . S
C2069 C2071 1.389 . S
C2070 H2043 0.950 . S
C2070 C2056 1.377 . S
C2070 C2069 1.373 . S
C2071 C2055 1.377 . S
C2071 C2069 1.389 . S
C2071 C2072 1.524 . S
C2072 C2071 1.524 . S
C2072 C2073 1.397 . S
C2072 C2077 1.363 . S
C2073 H2044 0.950 . S
C2073 C2072 1.397 . S
C2073 C2074 1.334 . S
C2074 H2045 0.950 . S
C2074 C2073 1.334 . S
C2074 C2075 1.287 . S
C2075 C2074 1.287 . S
C2075 C2076 1.524 . S
C2075 H2078 0.999 . S
C2076 H2046 0.950 . S
C2076 C2075 1.524 . S
C2076 C2077 1.415 . S
C2077 H2047 0.950 . S
C2077 C2072 1.363 . S
C2077 C2076 1.415 . S
H2078 C2075 0.999 . S
H2079 C2060 0.913 . S
C514 C393 1.209 . S
C499 C8 1.186 . S
C564 C407 1.229 . S
C549 C61 1.208 . S
C614 C415 1.280 . S
C599 C107 1.263 . S
C649 C139 1.216 . S
C664 C373 1.233 . S
C699 C192 1.123 . S
C714 C379 1.144 . S
C749 C238 1.119 . S
C764 C387 1.136 . S
C814 C401 1.276 . S
C799 C284 1.253 . S
C864 C421 1.238 . S
C849 C330 1.216 . S
C899 C100 1.137 . S
C914 C449 1.158 . S
C964 C463 1.268 . S
C949 C160 1.235 . S
C999 C15 1.129 . S
C1014 C471 1.151 . S
C1064 C435 1.091 . S
C1049 C54 1.075 . S
C1099 C291 1.225 . S
C1114 C429 1.245 . S
C1149 C337 1.266 . S
C1164 C443 1.281 . S
C1214 C457 1.270 . S
C1199 C199 1.252 . S
C1249 C245 1.248 . S
C1264 C477 1.272 . S
C1314 C396 1.661 . S
C1299 C1 1.702 . S
C1364 C419 1.689 . S
C1349 C68 1.692 . S
C1399 C114 1.706 . S
C1414 C377 1.704 . S
C1449 C146 1.735 . S
C1464 C382 1.692 . S
C1499 C185 1.621 . S
C1514 C410 1.572 . S
C1564 C368 1.576 . S
C1549 C231 1.625 . S
C1614 C391 1.614 . S
C1599 C277 1.631 . S
C1664 C405 1.624 . S
C1649 C323 1.640 . S
C1714 C452 1.577 . S
C1699 C93 1.624 . S
C1764 C475 1.617 . S
C1749 C153 1.628 . S
C1799 C22 1.604 . S
C1814 C424 1.562 . S
C1864 C438 1.554 . S
C1849 C47 1.602 . S
C1914 C466 1.695 . S
C1899 C298 1.730 . S
C1949 C344 1.727 . S
C1964 C433 1.723 . S
C2014 C447 1.709 . S
C1999 C206 1.712 . S
C2064 C461 1.699 . S
C2049 C252 1.702 . S
