# Generated by pormake.
# Topology zzz, (3,6)-cn, num edge types: 1
# Building blocks:
#     Node 0, Type 0, BuildingBlock: BETDAH_clean_linker_0, # of connection points: 3
#     Node 1, Type 0, BuildingBlock: BETDAH_clean_linker_0, # of connection points: 3
#     Node 2, Type 0, BuildingBlock: BETDAH_clean_linker_0, # of connection points: 3
#     Node 3, Type 0, BuildingBlock: BETDAH_clean_linker_0, # of connection points: 3
#     Node 4, Type 0, BuildingBlock: BETDAH_clean_linker_0, # of connection points: 3
#     Node 5, Type 0, BuildingBlock: BETDAH_clean_linker_0, # of connection points: 3
#     Node 6, Type 0, BuildingBlock: BETDAH_clean_linker_0, # of connection points: 3
#     Node 7, Type 0, BuildingBlock: BETDAH_clean_linker_0, # of connection points: 3
#     Node 8, Type 1, BuildingBlock: BETGAK_clean_sbu_0, # of connection points: 6
#     Node 9, Type 1, BuildingBlock: BETGAK_clean_sbu_0, # of connection points: 6
#     Node 10, Type 1, BuildingBlock: BETGAK_clean_sbu_0, # of connection points: 6
#     Node 11, Type 1, BuildingBlock: BETGAK_clean_sbu_0, # of connection points: 6
#     Edge 12, Type (0, 1), BuildingBlock: XIVTED_clean_linker_0, # of connection points: 2
#     Edge 13, Type (0, 1), BuildingBlock: XIVTED_clean_linker_0, # of connection points: 2
#     Edge 14, Type (0, 1), BuildingBlock: XIVTED_clean_linker_0, # of connection points: 2
#     Edge 15, Type (0, 1), BuildingBlock: XIVTED_clean_linker_0, # of connection points: 2
#     Edge 16, Type (0, 1), BuildingBlock: XIVTED_clean_linker_0, # of connection points: 2
#     Edge 17, Type (0, 1), BuildingBlock: XIVTED_clean_linker_0, # of connection points: 2
#     Edge 18, Type (0, 1), BuildingBlock: XIVTED_clean_linker_0, # of connection points: 2
#     Edge 19, Type (0, 1), BuildingBlock: XIVTED_clean_linker_0, # of connection points: 2
#     Edge 20, Type (0, 1), BuildingBlock: XIVTED_clean_linker_0, # of connection points: 2
#     Edge 21, Type (0, 1), BuildingBlock: XIVTED_clean_linker_0, # of connection points: 2
#     Edge 22, Type (0, 1), BuildingBlock: XIVTED_clean_linker_0, # of connection points: 2
#     Edge 23, Type (0, 1), BuildingBlock: XIVTED_clean_linker_0, # of connection points: 2
#     Edge 24, Type (0, 1), BuildingBlock: XIVTED_clean_linker_0, # of connection points: 2
#     Edge 25, Type (0, 1), BuildingBlock: XIVTED_clean_linker_0, # of connection points: 2
#     Edge 26, Type (0, 1), BuildingBlock: XIVTED_clean_linker_0, # of connection points: 2
#     Edge 27, Type (0, 1), BuildingBlock: XIVTED_clean_linker_0, # of connection points: 2
#     Edge 28, Type (0, 1), BuildingBlock: XIVTED_clean_linker_0, # of connection points: 2
#     Edge 29, Type (0, 1), BuildingBlock: XIVTED_clean_linker_0, # of connection points: 2
#     Edge 30, Type (0, 1), BuildingBlock: XIVTED_clean_linker_0, # of connection points: 2
#     Edge 31, Type (0, 1), BuildingBlock: XIVTED_clean_linker_0, # of connection points: 2
#     Edge 32, Type (0, 1), BuildingBlock: XIVTED_clean_linker_0, # of connection points: 2
#     Edge 33, Type (0, 1), BuildingBlock: XIVTED_clean_linker_0, # of connection points: 2
#     Edge 34, Type (0, 1), BuildingBlock: XIVTED_clean_linker_0, # of connection points: 2
#     Edge 35, Type (0, 1), BuildingBlock: XIVTED_clean_linker_0, # of connection points: 2
# Relax obj value: 0.282
# Max RMSD: 0.194
# Mean RMSD: 0.162
data_MOF--net-zzz--node1-BETGAK_clean_sbu_0--node2-BETDAH_clean_linker_0--edge1-XIVTED_clean_linker_0
_symmetry_space_group_name_H-M    P1
_symmetry_Int_Tables_number       1
_symmetry_cell_setting            triclinic
loop_
_symmetry_equiv_pos_as_xyz
'x, y, z'
_cell_length_a     52.8435
_cell_length_b     52.906137
_cell_length_c     13.606594
_cell_angle_alpha  89.823121
_cell_angle_beta   89.964879
_cell_angle_gamma 90.078215
loop_
_atom_site_label
_atom_site_type_symbol
_atom_site_fract_x
_atom_site_fract_y
_atom_site_fract_z
_atom_type_partial_charge
H0 H 0.80551 0.47161 0.37511 0.0
H1 H 0.7311 0.48738 0.26428 0.0
H2 H 0.76497 0.53608 0.48185 0.0
C3 C 0.78814 0.4825 0.37798 0.0
C4 C 0.78746 0.5039 0.4379 0.0
C5 C 0.76812 0.47662 0.31408 0.0
C6 C 0.74632 0.49174 0.31465 0.0
C7 C 0.74476 0.51305 0.37619 0.0
C8 C 0.76565 0.51926 0.43675 0.0
N9 N 0.72298 0.52902 0.37556 0.0
C10 C 0.70186 0.5256 0.31481 0.0
H11 H 0.05725 0.8054 0.36954 0.0
H12 H 0.04165 0.73294 0.24119 0.0
H13 H 0.99269 0.76295 0.4668 0.0
C14 C 0.04623 0.78808 0.368 0.0
C15 C 0.02475 0.78631 0.42749 0.0
C16 C 0.0523 0.7691 0.30008 0.0
C17 C 0.03711 0.74737 0.29467 0.0
C18 C 0.01582 0.74468 0.35631 0.0
C19 C 1.00951 0.76448 0.42161 0.0
N20 N 1.00007 0.72276 0.35232 0.0
C21 C 1.00312 0.70281 0.28609 0.0
H22 H 0.72641 0.05497 0.36851 0.0
H23 H 0.80153 0.0387 0.26624 0.0
H24 H 0.76723 0.99258 0.49259 0.0
C25 C 0.74387 0.04433 0.375 0.0
C26 C 0.74453 0.02378 0.43975 0.0
C27 C 0.76414 0.04961 0.31124 0.0
C28 C 0.78609 0.03479 0.31645 0.0
C29 C 0.78761 0.01438 0.38288 0.0
C30 C 0.76655 1.00875 0.44361 0.0
N31 N 0.80959 0.99874 0.38724 0.0
C32 C 0.83028 1.00077 0.32329 0.0
H33 H 0.47341 0.72421 0.38966 0.0
H34 H 0.48731 0.79636 0.25508 0.0
H35 H 0.54043 0.76565 0.46519 0.0
C36 C 0.48459 0.74139 0.38477 0.0
C37 C 0.50731 0.74273 0.43705 0.0
C38 C 0.47741 0.76043 0.3185 0.0
C39 C 0.49272 0.78194 0.30765 0.0
C40 C 0.51525 0.78434 0.36241 0.0
C41 C 0.52268 0.76438 0.42568 0.0
N42 N 0.5311 0.80611 0.35321 0.0
C43 C 0.52673 0.82619 0.2882 0.0
H44 H 0.22521 0.55585 0.13445 0.0
H45 H 0.2979 0.54114 0.26261 0.0
H46 H 0.26735 0.49075 0.043 0.0
C47 C 0.24251 0.54483 0.13656 0.0
C48 C 0.24408 0.52301 0.0793 0.0
C49 C 0.26164 0.55127 0.20343 0.0
C50 C 0.28339 0.53621 0.20985 0.0
C51 C 0.28596 0.51458 0.15044 0.0
C52 C 0.26594 0.50781 0.08643 0.0
N53 N 0.30799 0.49899 0.15568 0.0
C54 C 0.3283 0.50304 0.21985 0.0
H55 H 0.97513 0.22062 0.147 0.0
H56 H 0.99084 0.29359 0.27053 0.0
H57 H 0.03905 0.26308 0.04339 0.0
C58 C 0.98608 0.23799 0.14688 0.0
C59 C 1.00734 0.23965 0.08616 0.0
C60 C 0.98017 0.25719 0.21398 0.0
C61 C 0.99524 0.27903 0.2174 0.0
C62 C 0.01622 0.28165 0.1541 0.0
C63 C 0.02242 0.26162 0.0897 0.0
N64 N 0.03179 0.30371 0.15543 0.0
C65 C 0.02864 0.32419 0.21913 0.0
H66 H 0.3062 0.97142 0.11917 0.0
H67 H 0.23404 0.9859 0.25295 0.0
H68 H 0.26452 0.0376 0.03644 0.0
C69 C 0.28897 0.98253 0.12315 0.0
C70 C 0.28751 1.00485 0.0686 0.0
C71 C 0.26997 0.97571 0.19027 0.0
C72 C 0.2484 0.99097 0.19958 0.0
C73 C 0.2459 1.01305 0.14205 0.0
C74 C 0.26581 0.02013 0.07787 0.0
N75 N 0.22412 0.02887 0.14922 0.0
C76 C 0.20407 0.02528 0.21509 0.0
H77 H 0.54223 0.31212 0.14052 0.0
H78 H 0.53264 0.23863 0.27053 0.0
H79 H 0.47804 0.26698 0.0609 0.0
C80 C 0.53199 0.29434 0.14494 0.0
C81 C 0.50951 0.29177 0.09237 0.0
C82 C 0.54039 0.27539 0.20922 0.0
C83 C 0.52636 0.25298 0.21914 0.0
C84 C 0.50407 0.24947 0.1636 0.0
C85 C 0.49559 0.26915 0.10111 0.0
N86 N 0.48948 0.22682 0.17048 0.0
C87 C 0.4944 0.20667 0.23446 0.0
La88 La 0.0316 1.00613 0.84085 0.0
La89 La 0.99934 0.01895 0.6822 0.0
C90 C 0.05347 0.98406 0.9812 0.0
C91 C 0.06385 0.95826 0.98963 0.0
C92 C 0.08989 0.9547 0.00497 0.0
C93 C 0.10024 0.93036 0.00529 0.0
C94 C 0.0847 0.90914 0.9901 0.0
C95 C 0.0586 0.91282 0.97565 0.0
C96 C 0.04831 0.93704 0.97532 0.0
C97 C 0.05698 0.02216 0.68455 0.0
C98 C 1.01362 0.96271 0.69078 0.0
C99 C 0.97739 0.04094 0.54171 0.0
C100 C 0.96779 0.06699 0.53147 0.0
C101 C 0.94203 0.0712 0.51193 0.0
C102 C 0.93232 0.0958 0.51001 0.0
C103 C 0.94823 0.11661 0.52803 0.0
C104 C 0.97403 0.11229 0.54657 0.0
C105 C 0.9837 0.0878 0.54828 0.0
C106 C 0.97418 1.00277 0.83903 0.0
C107 C 0.01745 0.06237 0.83158 0.0
O108 O 0.06512 0.99878 0.91877 0.0
O109 O 0.02885 0.98612 0.974 0.0
O110 O 0.06174 0.0284 0.77438 0.0
O111 O 0.03818 1.00732 0.68391 0.0
O112 O 0.02234 0.9685 0.77917 0.0
O113 O 1.00596 0.98072 0.6307 0.0
O114 O 0.96563 0.02705 0.60661 0.0
O115 O 1.00196 0.03816 0.54722 0.0
O116 O 0.96939 0.99643 0.74929 0.0
O117 O 0.9928 0.0178 0.83914 0.0
O118 O 1.00897 0.05656 0.7429 0.0
O119 O 0.0248 0.04436 0.89225 0.0
H120 H 0.10228 0.9708 0.01557 0.0
H121 H 0.12039 0.92817 0.01698 0.0
H122 H 0.04592 0.8969 0.96646 0.0
H123 H 0.02817 0.93907 0.9629 0.0
H124 H 0.92937 0.05541 0.49932 0.0
H125 H 0.91239 0.09853 0.49502 0.0
H126 H 0.98697 0.1279 0.55809 0.0
H127 H 1.00363 0.08525 0.56387 0.0
La128 La 0.52153 0.02725 0.82984 0.0
La129 La 0.50609 0.99934 0.64241 0.0
C130 C 0.54531 0.04154 0.97998 0.0
C131 C 0.57233 0.04748 0.99264 0.0
C132 C 0.57976 0.0685 0.04792 0.0
C133 C 0.60515 0.07608 0.04959 0.0
C134 C 0.62354 0.06326 0.99326 0.0
C135 C 0.61573 0.04209 0.93848 0.0
C136 C 0.59068 0.03396 0.94034 0.0
C137 C 0.50482 0.05616 0.68531 0.0
C138 C 0.56379 1.01187 0.66706 0.0
C139 C 0.48483 0.98902 0.48333 0.0
C140 C 0.46245 0.97293 0.4701 0.0
C141 C 0.45166 0.96098 0.55241 0.0
C142 C 0.42884 0.94791 0.54427 0.0
C143 C 0.41633 0.94657 0.45353 0.0
C144 C 0.42777 0.95762 0.37011 0.0
C145 C 0.45067 0.97078 0.37847 0.0
C146 C 0.51167 0.96594 0.78877 0.0
C147 C 0.46475 1.01307 0.80842 0.0
O148 O 0.53318 0.05694 0.92147 0.0
O149 O 0.53969 0.01786 0.96225 0.0
O150 O 0.50031 0.05984 0.77791 0.0
O151 O 0.51887 0.03692 0.67615 0.0
O152 O 0.55797 0.02171 0.7538 0.0
O153 O 0.54626 1.0029 0.60697 0.0
O154 O 0.50513 0.97726 0.51464 0.0
O155 O 0.48051 1.00994 0.53212 0.0
O156 O 0.50592 0.96028 0.69934 0.0
O157 O 0.51443 0.98956 0.79039 0.0
O158 O 0.4698 1.0081 0.71482 0.0
O159 O 0.48289 0.01814 0.87263 0.0
H160 H 0.56587 0.0792 0.089 0.0
H161 H 0.61017 0.09191 0.09575 0.0
H162 H 0.6287 0.03173 0.8923 0.0
H163 H 0.58567 0.01735 0.8986 0.0
H164 H 0.46042 0.96249 0.62399 0.0
H165 H 0.42061 0.93952 0.60961 0.0
H166 H 0.41839 0.95726 0.29939 0.0
H167 H 0.45867 0.97999 0.31436 0.0
La168 La 0.50094 0.5263 0.86435 0.0
La169 La 0.52932 0.507 0.68334 0.0
C170 C 0.49013 0.54639 0.02513 0.0
C171 C 0.47781 0.57115 0.04076 0.0
C172 C 0.45293 0.57245 0.077 0.0
C173 C 0.44009 0.5956 0.07977 0.0
C174 C 0.45191 0.61783 0.04597 0.0
C175 C 0.47697 0.61649 0.01172 0.0
C176 C 0.48974 0.59351 0.00909 0.0
C177 C 0.46835 0.52135 0.71529 0.0
C178 C 0.51816 0.56644 0.70527 0.0
C179 C 0.54893 0.49304 0.52455 0.0
C180 C 0.56379 0.47027 0.50191 0.0
C181 C 0.56164 0.45882 0.40964 0.0
C182 C 0.57245 0.43509 0.39305 0.0
C183 C 0.58537 0.42236 0.46895 0.0
C184 C 0.5886 0.43449 0.55963 0.0
C185 C 0.57798 0.45825 0.57583 0.0
C186 C 0.55508 0.50631 0.85132 0.0
C187 C 0.50529 0.46739 0.82722 0.0
O188 O 0.47594 0.52906 0.98418 0.0
O189 O 0.51291 0.54698 0.98703 0.0
O190 O 0.46268 0.52946 0.802 0.0
O191 O 0.49174 0.51678 0.71618 0.0
O192 O 0.50825 0.56247 0.79328 0.0
O193 O 0.52636 0.54766 0.64896 0.0
O194 O 0.55965 0.50926 0.58423 0.0
O195 O 0.52518 0.48879 0.54739 0.0
O196 O 0.55668 0.4895 0.78315 0.0
O197 O 0.53998 0.5232 0.82236 0.0
O198 O 0.51117 0.47235 0.73444 0.0
O199 O 0.50387 0.48555 0.89424 0.0
H200 H 0.44323 0.55548 0.10111 0.0
H201 H 0.42085 0.59602 0.10709 0.0
H202 H 0.48697 0.63332 0.98798 0.0
H203 H 0.50886 0.59331 0.9804 0.0
H204 H 0.55066 0.4677 0.35189 0.0
H205 H 0.56936 0.42607 0.32271 0.0
H206 H 0.5986 0.42522 0.61911 0.0
H207 H 0.58009 0.46673 0.64749 0.0
La208 La 1.01043 0.49987 0.82933 0.0
La209 La 0.02374 0.53003 0.66146 0.0
C210 C 0.98735 0.4827 0.97763 0.0
C211 C 0.96052 0.47595 0.99148 0.0
C212 C 0.95373 0.45427 0.04458 0.0
C213 C 0.92837 0.44654 0.04914 0.0
C214 C 0.90934 0.45986 0.99753 0.0
C215 C 0.91664 0.48158 0.94428 0.0
C216 C 0.94162 0.48988 0.94402 0.0
C217 C 0.02644 0.47237 0.67996 0.0
C218 C 0.9675 0.51577 0.6707 0.0
C219 C 0.04637 0.54967 0.51745 0.0
C220 C 0.07217 0.56018 0.50853 0.0
C221 C 0.07556 0.58591 0.48628 0.0
C222 C 0.09981 0.59658 0.48582 0.0
C223 C 0.12109 0.58169 0.50787 0.0
C224 C 0.1176 0.55589 0.52918 0.0
C225 C 0.09345 0.54526 0.52951 0.0
C226 C 1.00805 0.55708 0.81351 0.0
C227 C 0.06719 0.51303 0.81508 0.0
O228 O 0.99962 0.46855 0.91532 0.0
O229 O 0.99226 0.50672 0.96402 0.0
O230 O 0.03196 0.46829 0.77135 0.0
O231 O 1.01192 0.49136 0.67426 0.0
O232 O 0.97329 0.50783 0.76031 0.0
O233 O 0.98545 0.52316 0.60982 0.0
O234 O 0.03125 0.56219 0.57537 0.0
O235 O 0.04444 0.52522 0.53101 0.0
O236 O 1.00207 0.56131 0.72287 0.0
O237 O 0.02268 0.53824 0.81658 0.0
O238 O 0.06125 0.52161 0.72641 0.0
O239 O 0.04935 0.50545 0.87638 0.0
H240 H 0.96804 0.44325 0.08228 0.0
H241 H 0.92393 0.43024 0.09402 0.0
H242 H 0.90338 0.49239 0.901 0.0
H243 H 0.94606 0.50709 0.90474 0.0
H244 H 0.0594 0.59783 0.47045 0.0
H245 H 0.10189 0.61648 0.4687 0.0
H246 H 0.1336 0.54369 0.5439 0.0
H247 H 0.09154 0.52539 0.54734 0.0
H248 H 0.20023 0.04824 0.39121 0.0
H249 H 0.05926 0.99776 0.50486 0.0
H250 H 0.15941 1.00014 0.19168 0.0
H251 H 0.10044 0.04962 0.68915 0.0
H252 H 0.09493 0.99812 0.38798 0.0
H253 H 0.16359 0.04818 0.50179 0.0
C254 C 0.18352 0.03753 0.37118 0.0
C255 C 0.18279 0.02409 0.28286 0.0
C256 C 0.09607 1.0095 0.45381 0.0
C257 C 0.14055 0.02402 0.40841 0.0
C258 C 0.07566 1.00939 0.52027 0.0
C259 C 0.07687 0.02364 0.60712 0.0
C260 C 0.11785 0.02393 0.47451 0.0
C261 C 0.09866 0.03827 0.62344 0.0
C262 C 0.16254 0.03756 0.43403 0.0
C263 C 0.16067 1.01065 0.25968 0.0
N264 N 0.11821 0.03795 0.55836 0.0
N265 N 0.14041 1.01093 0.32205 0.0
H266 H 0.47613 0.20227 0.419 0.0
H267 H 0.52436 0.05921 0.49687 0.0
H268 H 0.51748 0.16172 0.19715 0.0
H269 H 0.47918 0.10031 0.70623 0.0
H270 H 0.52223 0.0958 0.38467 0.0
H271 H 0.47785 0.16486 0.52557 0.0
C272 C 0.48574 0.18546 0.39323 0.0
C273 C 0.49681 0.18501 0.29983 0.0
C274 C 0.51269 0.09673 0.455 0.0
C275 C 0.4987 0.14191 0.42063 0.0
C276 C 0.51381 0.0758 0.51881 0.0
C277 C 0.50198 0.07671 0.61123 0.0
C278 C 0.49969 0.11873 0.48396 0.0
C279 C 0.48865 0.09875 0.63595 0.0
C280 C 0.48664 0.16404 0.45377 0.0
C281 C 0.50886 0.16276 0.26923 0.0
N282 N 0.48798 0.1188 0.5732 0.0
N283 N 0.5095 0.14207 0.32943 0.0
H284 H 0.32629 0.52341 0.4014 0.0
H285 H 0.47413 0.50236 0.52494 0.0
H286 H 0.37779 0.49024 0.19329 0.0
H287 H 0.41929 0.53472 0.7225 0.0
H288 H 0.44048 0.49824 0.39949 0.0
H289 H 0.36126 0.52832 0.51765 0.0
C290 C 0.34506 0.51726 0.38024 0.0
C291 C 0.34925 0.50649 0.28796 0.0
C292 C 0.43593 0.50628 0.47039 0.0
C293 C 0.38959 0.51185 0.42079 0.0
C294 C 0.45514 0.50864 0.54179 0.0
C295 C 0.44954 0.51885 0.63446 0.0
C296 C 0.41106 0.51422 0.49217 0.0
C297 C 0.42456 0.52668 0.65234 0.0
C298 C 0.36509 0.52 0.44659 0.0
C299 C 0.37389 0.49869 0.26407 0.0
N300 N 0.40642 0.52419 0.58244 0.0
N301 N 0.39317 0.50148 0.33009 0.0
H302 H 1.00218 0.36775 0.19193 0.0
H303 H 0.05458 0.42955 0.69135 0.0
H304 H 0.05293 0.33028 0.39215 0.0
H305 H 1.00245 0.46831 0.49973 0.0
H306 H 0.05507 0.39386 0.57834 0.0
H307 H 1.00224 0.40508 0.29982 0.0
C308 C 1.01322 0.3674 0.259 0.0
C309 C 0.02747 0.34598 0.28385 0.0
C310 C 0.04357 0.41014 0.56036 0.0
C311 C 0.02789 0.38854 0.40695 0.0
C312 C 0.04334 0.43063 0.62491 0.0
C313 C 0.0284 0.45197 0.60527 0.0
C314 C 0.02868 0.41077 0.47484 0.0
C315 C 1.01427 0.45226 0.51776 0.0
C316 C 1.01333 0.3887 0.32035 0.0
C317 C 0.0416 0.34643 0.37083 0.0
N318 N 1.01466 0.43192 0.45602 0.0
N319 N 0.04146 0.36733 0.42911 0.0
H320 H 0.87385 0.02791 0.34161 0.0
H321 H 0.93192 0.97349 0.83842 0.0
H322 H 0.8356 0.97486 0.1537 0.0
H323 H 0.97141 0.02788 0.01715 0.0
H324 H 0.89747 0.97279 0.95779 0.0
H325 H 0.91027 0.02774 0.22828 0.0
C326 C 0.87316 0.01628 0.27626 0.0
C327 C 0.85178 1.00142 0.25643 0.0
C328 C 0.91365 0.98483 0.97159 0.0
C329 C 0.89326 1.00096 0.12694 0.0
C330 C 0.93343 0.98519 0.90336 0.0
C331 C 0.9546 1.00082 0.91748 0.0
C332 C 0.91482 1.00028 0.05531 0.0
C333 C 0.95547 0.01551 0.00333 0.0
C334 C 0.89393 0.01614 0.21174 0.0
C335 C 0.85176 0.98662 0.17131 0.0
N336 N 0.93581 0.01499 0.06872 0.0
N337 N 0.87213 0.98677 0.10984 0.0
H338 H 0.51202 0.82297 0.09874 0.0
H339 H 0.5216 0.97254 0.98889 0.0
H340 H 0.53426 0.87642 0.32056 0.0
H341 H 0.50698 0.91548 0.7707 0.0
H342 H 0.52486 0.9389 0.1145 0.0
H343 H 0.50811 0.85771 0.98027 0.0
C344 C 0.51598 0.84212 0.12235 0.0
C345 C 0.52344 0.84694 0.21905 0.0
C346 C 0.521 0.93383 0.03895 0.0
C347 C 0.51916 0.88697 0.08405 0.0
C348 C 0.51925 0.95304 0.96728 0.0
C349 C 0.51424 0.94687 0.86888 0.0
C350 C 0.51755 0.90834 0.0118 0.0
C351 C 0.51097 0.92123 0.84541 0.0
C352 C 0.51381 0.86199 0.0548 0.0
C353 C 0.52841 0.87204 0.24628 0.0
N354 N 0.51266 0.90307 0.91585 0.0
N355 N 0.52621 0.89116 0.17913 0.0
H356 H 0.66861 0.56232 0.26314 0.0
H357 H 0.58726 0.47011 0.91699 0.0
H358 H 0.6844 0.48312 0.22586 0.0
H359 H 0.56756 0.5482 0.96322 0.0
H360 H 0.62202 0.47454 0.03387 0.0
H361 H 0.63117 0.5578 0.15701 0.0
C362 C 0.66412 0.54398 0.23252 0.0
C363 C 0.67957 0.52307 0.25273 0.0
C364 C 0.61007 0.49073 0.01925 0.0
C365 C 0.63684 0.51768 0.13146 0.0
C366 C 0.59013 0.48819 0.95251 0.0
C367 C 0.57445 0.50881 0.9301 0.0
C368 C 0.61467 0.51418 0.0641 0.0
C369 C 0.5791 0.53177 0.97856 0.0
C370 C 0.64276 0.54138 0.17212 0.0
C371 C 0.673 0.49972 0.21166 0.0
N372 N 0.59889 0.53389 0.04271 0.0
N373 N 0.65221 0.49767 0.1529 0.0
H374 H 0.98155 0.69998 0.1066 0.0
H375 H 0.03028 0.5586 0.99725 0.0
H376 H 0.02698 0.65767 0.31156 0.0
H377 H 0.98205 0.60138 0.80308 0.0
H378 H 0.02934 0.59393 0.11464 0.0
H379 H 0.98201 0.66379 0.9944 0.0
C380 C 0.99173 0.68303 0.12755 0.0
C381 C 1.00432 0.68174 0.21785 0.0
C382 C 0.01888 0.59553 0.0465 0.0
C383 C 1.00485 0.64006 0.09044 0.0
C384 C 0.01935 0.57532 0.97968 0.0
C385 C 1.00628 0.57705 0.89004 0.0
C386 C 1.00528 0.61765 0.02343 0.0
C387 C 0.99247 0.5992 0.87105 0.0
C388 C 0.99194 0.66232 0.06375 0.0
C389 C 0.01712 0.65936 0.2421 0.0
N390 N 0.99242 0.61856 0.93668 0.0
N391 N 0.01708 0.63938 0.1788 0.0
H392 H 0.93114 0.24189 0.18946 0.0
H393 H 0.95945 0.15731 0.64501 0.0
H394 H 0.98672 0.25785 0.4123 0.0
H395 H 0.91569 0.13606 0.39062 0.0
H396 H 0.95395 0.20176 0.60054 0.0
H397 H 0.90956 0.21339 0.30361 0.0
C398 C 0.93809 0.2403 0.26413 0.0
C399 C 0.9612 0.25143 0.29069 0.0
C400 C 0.94493 0.1874 0.55605 0.0
C401 C 0.93725 0.21836 0.41995 0.0
C402 C 0.9482 0.16202 0.58099 0.0
C403 C 0.93888 0.14295 0.51914 0.0
C404 C 0.93247 0.19367 0.4682 0.0
C405 C 0.92365 0.1501 0.43939 0.0
C406 C 0.92591 0.22386 0.32904 0.0
C407 C 0.96924 0.24913 0.3884 0.0
N408 N 0.92147 0.17489 0.41477 0.0
N409 N 0.95777 0.23211 0.44873 0.0
H410 H 0.2841 0.92688 0.15422 0.0
H411 H 0.37747 0.95428 0.58297 0.0
H412 H 0.27159 0.97971 0.38934 0.0
H413 H 0.39531 0.91639 0.31123 0.0
H414 H 0.33263 0.94657 0.55314 0.0
H415 H 0.31582 0.90541 0.25463 0.0
C416 C 0.28705 0.93311 0.22915 0.0
C417 C 0.2761 0.95568 0.26232 0.0
C418 C 0.34639 0.93928 0.50146 0.0
C419 C 0.31271 0.93187 0.37574 0.0
C420 C 0.37205 0.94362 0.51845 0.0
C421 C 0.39012 0.93659 0.44788 0.0
C422 C 0.33876 0.92807 0.41292 0.0
C423 C 0.38192 0.92285 0.36588 0.0
C424 C 0.30538 0.92104 0.28604 0.0
C425 C 0.28018 0.96275 0.36017 0.0
N426 N 0.35679 0.9195 0.34959 0.0
N427 N 0.29893 0.95145 0.41245 0.0
H428 H 0.58863 0.28846 0.15937 0.0
H429 H 0.57716 0.38353 0.59798 0.0
H430 H 0.53907 0.27928 0.40825 0.0
H431 H 0.60907 0.39975 0.31273 0.0
H432 H 0.57948 0.33839 0.56195 0.0
H433 H 0.61295 0.31982 0.25107 0.0
C434 C 0.58373 0.29207 0.23538 0.0
C435 C 0.56146 0.28193 0.27564 0.0
C436 C 0.58666 0.35179 0.5084 0.0
C437 C 0.58848 0.31824 0.37921 0.0
C438 C 0.58541 0.37758 0.52894 0.0
C439 C 0.5924 0.39542 0.45715 0.0
C440 C 0.59487 0.34383 0.41541 0.0
C441 C 0.60288 0.38662 0.36901 0.0
C442 C 0.5974 0.31021 0.28726 0.0
C443 C 0.55592 0.28706 0.37424 0.0
N444 N 0.60337 0.36144 0.3499 0.0
N445 N 0.56883 0.30557 0.42183 0.0
H446 H 0.24589 0.59991 0.17257 0.0
H447 H 0.16175 0.57275 0.62877 0.0
H448 H 0.26283 0.54644 0.40259 0.0
H449 H 0.13994 0.61419 0.36871 0.0
H450 H 0.20619 0.57948 0.58607 0.0
H451 H 0.2173 0.62197 0.28417 0.0
C452 C 0.24448 0.59354 0.24814 0.0
C453 C 0.25586 0.5708 0.27756 0.0
C454 C 0.19168 0.58776 0.53994 0.0
C455 C 0.2227 0.59528 0.404 0.0
C456 C 0.16631 0.58377 0.56386 0.0
C457 C 0.14714 0.59201 0.49991 0.0
C458 C 0.19784 0.59982 0.451 0.0
C459 C 0.15407 0.60702 0.41909 0.0
C460 C 0.22801 0.606 0.31166 0.0
C461 C 0.25386 0.56357 0.37642 0.0
N462 N 0.17887 0.60987 0.39553 0.0
N463 N 0.23677 0.57525 0.43539 0.0
H464 H 0.04738 0.76643 0.10091 0.0
H465 H 0.11981 0.89085 0.12055 0.0
H466 H 0.10076 0.78616 0.32735 0.0
H467 H 0.07271 0.86773 0.87789 0.0
H468 H 0.12644 0.84666 0.16291 0.0
H469 H 0.06966 0.79426 0.9871 0.0
C470 C 0.06452 0.77572 0.12547 0.0
C471 C 0.07166 0.77491 0.22463 0.0
C472 C 0.11516 0.85114 0.09876 0.0
C473 C 0.09653 0.80762 0.09647 0.0
C474 C 0.11144 0.87649 0.07425 0.0
C475 C 0.09477 0.88303 0.99814 0.0
C476 C 0.10161 0.83231 0.04829 0.0
C477 C 0.08476 0.86352 0.94015 0.0
C478 C 0.07714 0.79189 0.06062 0.0
C479 C 0.09417 0.78707 0.25209 0.0
N480 N 0.08772 0.83905 0.96813 0.0
N481 N 0.10531 0.80368 0.18936 0.0
H482 H 0.77291 0.03997 0.11765 0.0
H483 H 0.6448 0.11035 0.0335 0.0
H484 H 0.74343 0.09735 0.31041 0.0
H485 H 0.66581 0.0337 0.95805 0.0
H486 H 0.68923 0.11919 0.06951 0.0
H487 H 0.74492 0.055 0.98832 0.0
C488 C 0.76155 0.05662 0.13141 0.0
C489 C 0.75937 0.06657 0.22645 0.0
C490 C 0.68394 0.10076 0.04173 0.0
C491 C 0.72681 0.0831 0.08031 0.0
C492 C 0.65847 0.09541 0.02309 0.0
C493 C 0.65086 0.07082 0.99621 0.0
C494 C 0.70202 0.08161 0.03102 0.0
C495 C 0.67003 0.05292 0.97878 0.0
C496 C 0.74536 0.06506 0.05755 0.0
C497 C 0.74469 0.08843 0.23906 0.0
N498 N 0.69452 0.05862 0.99766 0.0
N499 N 0.72806 0.09538 0.16795 0.0
H500 H 0.42901 0.74522 0.35997 0.0
H501 H 0.45307 0.65708 0.91327 0.0
H502 H 0.47954 0.76061 0.11855 0.0
H503 H 0.42202 0.63583 0.1951 0.0
H504 H 0.44359 0.70128 0.94944 0.0
H505 H 0.40669 0.71444 0.25835 0.0
C506 C 0.43455 0.74309 0.28375 0.0
C507 C 0.4568 0.75452 0.24872 0.0
C508 C 0.43811 0.68684 1.00194 0.0
C509 C 0.43193 0.71907 0.13362 0.0
C510 C 0.44371 0.66163 0.98183 0.0
C511 C 0.43936 0.64286 0.05324 0.0
C512 C 0.42821 0.69329 0.09421 0.0
C513 C 0.42624 0.64969 0.13877 0.0
C514 C 0.42196 0.72534 0.22604 0.0
C515 C 0.4629 0.75157 0.14919 0.0
N516 N 0.42172 0.67445 0.15799 0.0
N517 N 0.45112 0.73336 0.0959 0.0
H518 H 0.75946 0.48353 0.11831 0.0
H519 H 0.88806 0.41295 0.04551 0.0
H520 H 0.7892 0.42903 0.32401 0.0
H521 H 0.86662 0.48917 0.96261 0.0
H522 H 0.8438 0.40439 0.08514 0.0
H523 H 0.78772 0.46705 0.99296 0.0
C524 C 0.77095 0.4672 0.13602 0.0
C525 C 0.77312 0.45858 0.23322 0.0
C526 C 0.849 0.42264 0.05492 0.0
C527 C 0.806 0.44041 0.09135 0.0
C528 C 0.87442 0.42788 0.03422 0.0
C529 C 0.88197 0.4523 0.00383 0.0
C530 C 0.83085 0.44164 0.04228 0.0
C531 C 0.86265 0.47006 0.98562 0.0
C532 C 0.78729 0.45793 0.06435 0.0
C533 C 0.78796 0.43701 0.2508 0.0
N534 N 0.83824 0.46442 0.00605 0.0
N535 N 0.80477 0.42929 0.18159 0.0
H536 H 0.9832 0.22104 0.92458 0.0
H537 H 0.04283 0.08315 0.98846 0.0
H538 H 0.04485 0.20536 0.122 0.0
H539 H 0.99394 0.10335 0.7473 0.0
H540 H 0.04379 0.12761 0.0388 0.0
H541 H 0.98753 0.17847 0.85548 0.0
C542 C 0.99818 0.20885 0.95114 0.0
C543 C 1.01408 0.21692 0.0275 0.0
C544 C 0.03299 0.12236 0.9744 0.0
C545 C 0.01842 0.16763 0.95221 0.0
C546 C 0.03231 0.0969 0.94588 0.0
C547 C 0.01832 0.08938 0.86313 0.0
C548 C 0.01932 0.14054 0.92067 0.0
C549 C 1.00517 0.1082 0.81087 0.0
C550 C 1.00049 0.18444 0.91251 0.0
C551 C 0.03263 0.20007 0.06161 0.0
N552 N 1.00585 0.13277 0.84076 0.0
N553 N 0.0341 0.17617 0.02464 0.0
H554 H 0.32238 0.04098 0.11494 0.0
H555 H 0.42312 0.99437 0.71181 0.0
H556 H 0.30589 0.98373 0.90019 0.0
H557 H 0.44439 0.03324 0.97762 0.0
H558 H 0.37882 0.99583 0.76407 0.0
H559 H 0.36542 0.04481 0.04738 0.0
C560 C 0.32756 0.0299 0.0512 0.0
C561 C 0.31039 1.01242 0.01166 0.0
C562 C 0.39316 1.00409 0.8109 0.0
C563 C 0.35982 0.01607 0.93578 0.0
C564 C 0.41854 1.00327 0.78113 0.0
C565 C 0.43771 1.01359 0.84052 0.0
C566 C 0.38665 0.01565 0.90029 0.0
C567 C 0.4304 0.02486 0.92964 0.0
C568 C 0.35223 0.03177 0.01367 0.0
C569 C 0.31838 0.99781 0.93141 0.0
N570 N 0.40552 0.02565 0.95656 0.0
N571 N 0.34247 0.99991 0.89633 0.0
H572 H 0.47807 0.32875 0.15724 0.0
H573 H 0.51573 0.42445 0.72152 0.0
H574 H 0.52319 0.30716 0.90793 0.0
H575 H 0.48687 0.44865 1.00264 0.0
H576 H 0.51191 0.38046 0.77552 0.0
H577 H 0.47366 0.37134 0.08696 0.0
C578 C 0.48621 0.33274 0.08574 0.0
C579 C 0.50048 0.31427 0.03706 0.0
C580 C 0.50625 0.39538 0.82518 0.0
C581 C 0.49636 0.36322 0.95768 0.0
C582 C 0.50837 0.42058 0.79435 0.0
C583 C 0.5017 0.44047 0.85765 0.0
C584 C 0.49717 0.3898 0.9199 0.0
C585 C 0.49238 0.43406 0.95133 0.0
C586 C 0.48404 0.35715 0.04636 0.0
C587 C 0.51152 0.3207 0.9465 0.0
N588 N 0.49043 0.40937 0.97953 0.0
N589 N 0.50933 0.34463 0.90998 0.0
H590 H 0.21133 0.48351 0.10891 0.0
H591 H 0.10741 0.53826 0.73293 0.0
H592 H 0.22393 0.54823 0.92264 0.0
H593 H 0.08906 0.4867 0.96837 0.0
H594 H 0.15178 0.53737 0.78399 0.0
H595 H 0.16859 0.47908 0.03897 0.0
C596 C 0.2054 0.49624 0.05086 0.0
C597 C 0.22136 0.516 0.02027 0.0
C598 C 0.1381 0.52614 0.82435 0.0
C599 C 0.17224 0.51154 0.94172 0.0
C600 C 0.1127 0.52656 0.79486 0.0
C601 C 0.09433 0.5125 0.84604 0.0
C602 C 0.14545 0.51138 0.90555 0.0
C603 C 0.10245 0.49796 0.92684 0.0
C604 C 0.18088 0.49396 0.012 0.0
C605 C 0.21239 0.5325 0.9471 0.0
N606 N 0.12733 0.49775 0.95392 0.0
N607 N 0.1885 0.52996 0.91068 0.0
H608 H 0.0492 0.80471 0.58873 0.0
H609 H 0.98836 0.94217 0.53327 0.0
H610 H 0.98673 0.82034 0.39518 0.0
H611 H 0.03717 0.92157 0.77423 0.0
H612 H 0.98767 0.89788 0.48104 0.0
H613 H 0.0446 0.84698 0.66032 0.0
C614 C 0.034 0.81682 0.5635 0.0
C615 C 0.01797 0.80882 0.48745 0.0
C616 C 0.9984 0.903 0.54578 0.0
C617 C 1.01328 0.85778 0.56572 0.0
C618 C 0.99892 0.92837 0.57542 0.0
C619 C 1.01285 0.93575 0.65857 0.0
C620 C 1.01216 0.88475 0.59873 0.0
C621 C 0.02605 0.91685 0.71022 0.0
C622 C 0.03153 0.84106 0.60361 0.0
C623 C 0.99909 0.82556 0.45523 0.0
N624 N 0.02553 0.89236 0.67917 0.0
N625 N 0.99746 0.84931 0.49358 0.0
H626 H 0.72193 0.05146 0.58362 0.0
H627 H 0.58782 0.98121 0.53197 0.0
H628 H 0.71211 0.98384 0.41266 0.0
H629 H 0.60183 0.04287 0.73093 0.0
H630 H 0.63298 0.98124 0.48787 0.0
H631 H 0.67841 0.04724 0.64371 0.0
C632 C 0.71078 0.03529 0.56104 0.0
C633 C 0.72083 0.01769 0.49467 0.0
C634 C 0.6262 0.99464 0.54174 0.0
C635 C 0.67037 1.01327 0.55966 0.0
C636 C 0.60035 0.99474 0.56649 0.0
C637 C 0.59096 1.01188 0.63632 0.0
C638 C 0.64282 1.01199 0.58628 0.0
C639 C 0.60821 0.02894 0.6785 0.0
C640 C 0.6858 0.03302 0.59442 0.0
C641 C 0.70528 0.9975 0.46548 0.0
N642 N 0.63312 0.02861 0.65278 0.0
N643 N 0.68078 0.99598 0.49724 0.0
H644 H 0.54938 0.71296 0.41271 0.0
H645 H 0.54283 0.58479 0.54076 0.0
H646 H 0.48165 0.71965 0.58675 0.0
H647 H 0.4973 0.6092 0.78606 0.0
H648 H 0.54474 0.62853 0.48241 0.0
H649 H 0.55582 0.67027 0.47961 0.0
C650 C 0.53623 0.70566 0.46691 0.0
C651 C 0.51503 0.71994 0.49457 0.0
C652 C 0.53474 0.62448 0.55002 0.0
C653 C 0.52152 0.67057 0.56841 0.0
C654 C 0.53338 0.59933 0.58288 0.0
C655 C 0.51991 0.5931 0.66877 0.0
C656 C 0.52241 0.6437 0.60306 0.0
C657 C 0.50801 0.61292 0.71976 0.0
C658 C 0.53957 0.68103 0.50359 0.0
C659 C 0.49831 0.70933 0.56377 0.0
N660 N 0.50936 0.63715 0.68576 0.0
N661 N 0.50185 0.68536 0.59786 0.0
H662 H 0.80897 0.47787 0.58925 0.0
H663 H 0.94438 0.54522 0.52921 0.0
H664 H 0.82059 0.54296 0.40407 0.0
H665 H 0.92893 0.48595 0.73851 0.0
H666 H 0.89935 0.54542 0.48338 0.0
H667 H 0.85233 0.48212 0.6506 0.0
C668 C 0.82048 0.49353 0.56375 0.0
C669 C 0.81098 0.51039 0.49299 0.0
C670 C 0.90577 0.53251 0.53996 0.0
C671 C 0.86127 0.51479 0.55956 0.0
C672 C 0.93153 0.53227 0.5657 0.0
C673 C 0.94044 0.51578 0.63906 0.0
C674 C 0.88875 0.51592 0.58707 0.0
C675 C 0.92285 0.49944 0.68366 0.0
C676 C 0.84537 0.49581 0.59787 0.0
C677 C 0.82698 0.52991 0.46024 0.0
N678 N 0.89801 0.49988 0.65695 0.0
N679 N 0.85139 0.53142 0.4929 0.0
loop_
_geom_bond_atom_site_label_1
_geom_bond_atom_site_label_2
_geom_bond_distance
_geom_bond_site_symmetry_2
_ccdc_geom_bond_type
H0 C3 0.929 . S
H1 C6 0.929 . S
H2 C8 0.930 . S
C3 H0 0.929 . S
C3 C4 1.398 . S
C3 C5 1.396 . S
C4 C3 1.398 . S
C4 C8 1.407 . S
C5 C3 1.396 . S
C5 C6 1.394 . S
C6 H1 0.929 . S
C6 C5 1.394 . S
C6 C7 1.382 . S
C7 C6 1.382 . S
C7 C8 1.392 . S
C7 N9 1.420 . S
C8 H2 0.930 . S
C8 C4 1.407 . S
C8 C7 1.392 . S
N9 C7 1.420 . S
N9 C10 1.244 . S
C10 N9 1.244 . S
H11 C14 0.929 . S
H12 C17 0.929 . S
H13 C19 0.930 . S
C14 H11 0.929 . S
C14 C15 1.395 1_655 S
C14 C16 1.395 1_655 S
C15 C14 1.395 1_455 S
C15 C19 1.413 . S
C16 C14 1.395 1_455 S
C16 C17 1.397 . S
C17 H12 0.929 . S
C17 C16 1.397 . S
C17 C18 1.382 . S
C18 C17 1.382 . S
C18 C19 1.392 . S
C18 N20 1.420 . S
C19 H13 0.930 . S
C19 C15 1.413 . S
C19 C18 1.392 . S
N20 C18 1.420 . S
N20 C21 1.232 1_455 S
C21 N20 1.232 1_655 S
H22 C25 0.929 . S
H23 C28 0.929 . S
H24 C30 0.930 . S
C25 H22 0.929 . S
C25 C26 1.395 1_565 S
C25 C27 1.395 1_565 S
C26 C25 1.395 1_545 S
C26 C30 1.413 . S
C27 C25 1.395 1_545 S
C27 C28 1.397 . S
C28 H23 0.929 . S
C28 C27 1.397 . S
C28 C29 1.382 . S
C29 C28 1.382 . S
C29 C30 1.392 . S
C29 N31 1.420 . S
C30 H24 0.930 . S
C30 C26 1.413 . S
C30 C29 1.392 . S
N31 C29 1.420 . S
N31 C32 1.232 1_545 S
C32 N31 1.232 1_565 S
H33 C36 0.929 . S
H34 C39 0.929 . S
H35 C41 0.930 . S
C36 H33 0.929 . S
C36 C37 1.398 . S
C36 C38 1.396 . S
C37 C36 1.398 . S
C37 C41 1.407 . S
C38 C36 1.396 . S
C38 C39 1.394 . S
C39 H34 0.929 . S
C39 C38 1.394 . S
C39 C40 1.382 . S
C40 C39 1.382 . S
C40 C41 1.392 . S
C40 N42 1.420 . S
C41 H35 0.930 . S
C41 C37 1.407 . S
C41 C40 1.392 . S
N42 C40 1.420 . S
N42 C43 1.244 . S
C43 N42 1.244 . S
H44 C47 0.929 . S
H45 C50 0.929 . S
H46 C52 0.930 . S
C47 H44 0.929 . S
C47 C48 1.398 1_554 S
C47 C49 1.396 . S
C48 C47 1.398 1_556 S
C48 C52 1.407 . S
C49 C47 1.396 . S
C49 C50 1.394 . S
C50 H45 0.929 . S
C50 C49 1.394 . S
C50 C51 1.382 . S
C51 C50 1.382 . S
C51 C52 1.392 1_554 S
C51 N53 1.420 . S
C52 H46 0.930 . S
C52 C48 1.407 . S
C52 C51 1.392 1_556 S
N53 C51 1.420 . S
N53 C54 1.244 . S
C54 N53 1.244 . S
H55 C58 0.929 . S
H56 C61 0.929 . S
H57 C63 0.930 . S
C58 H55 0.929 . S
C58 C59 1.395 1_654 S
C58 C60 1.394 1_655 S
C59 C58 1.395 1_456 S
C59 C63 1.416 . S
C60 C58 1.394 1_455 S
C60 C61 1.398 . S
C61 H56 0.929 . S
C61 C60 1.398 . S
C61 C62 1.382 . S
C62 C61 1.382 . S
C62 C63 1.392 1_554 S
C62 N64 1.420 . S
C63 H57 0.930 . S
C63 C59 1.416 . S
C63 C62 1.392 1_556 S
N64 C62 1.420 . S
N64 C65 1.236 1_455 S
C65 N64 1.236 1_655 S
H66 C69 0.929 . S
H67 C72 0.929 . S
H68 C74 0.930 . S
C69 H66 0.929 . S
C69 C70 1.395 1_564 S
C69 C71 1.394 1_565 S
C70 C69 1.395 1_546 S
C70 C74 1.416 . S
C71 C69 1.394 1_545 S
C71 C72 1.398 . S
C72 H67 0.929 . S
C72 C71 1.398 . S
C72 C73 1.382 . S
C73 C72 1.382 . S
C73 C74 1.392 1_554 S
C73 N75 1.420 . S
C74 H68 0.930 . S
C74 C70 1.416 . S
C74 C73 1.392 1_556 S
N75 C73 1.420 . S
N75 C76 1.237 1_545 S
C76 N75 1.237 1_565 S
H77 C80 0.929 . S
H78 C83 0.929 . S
H79 C85 0.930 . S
C80 H77 0.929 . S
C80 C81 1.398 1_554 S
C80 C82 1.396 . S
C81 C80 1.398 1_556 S
C81 C85 1.407 . S
C82 C80 1.396 . S
C82 C83 1.394 . S
C83 H78 0.929 . S
C83 C82 1.394 . S
C83 C84 1.382 . S
C84 C83 1.382 . S
C84 C85 1.392 1_554 S
C84 N86 1.420 . S
C85 H79 0.930 . S
C85 C81 1.407 . S
C85 C84 1.392 1_556 S
N86 C84 1.420 . S
N86 C87 1.244 . S
C87 N86 1.244 . S
La88 C90 2.928 . S
La88 O108 2.521 . S
La88 O109 2.628 . S
La88 O110 2.554 . S
La88 O111 2.757 1_565 S
La88 O112 2.470 . S
La88 O117 2.482 1_455 S
La88 O119 2.503 1_565 S
La89 C99 2.928 . S
La89 O111 2.482 1_655 S
La89 O113 2.503 1_545 S
La89 O114 2.521 . S
La89 O115 2.628 . S
La89 O116 2.554 . S
La89 O117 2.757 1_545 S
La89 O118 2.470 . S
C90 La88 2.928 . S
C90 C91 1.503 1_556 S
C90 O108 1.261 . S
C90 O109 1.243 . S
C91 C90 1.503 1_554 S
C91 C92 1.394 . S
C91 C96 1.373 . S
C92 C91 1.394 . S
C92 C93 1.380 . S
C92 H120 0.930 . S
C93 C92 1.380 . S
C93 C94 1.376 . S
C93 H121 0.930 . S
C94 C93 1.376 . S
C94 C95 1.370 . S
C95 C94 1.370 . S
C95 C96 1.396 . S
C95 H122 0.929 1_455 S
C96 C91 1.373 . S
C96 C95 1.396 . S
C96 H123 0.929 1_455 S
C97 O110 1.240 . S
C97 O111 1.289 1_565 S
C98 O112 1.258 1_655 S
C98 O113 1.256 . S
C99 La89 2.928 . S
C99 C100 1.503 . S
C99 O114 1.261 . S
C99 O115 1.243 . S
C100 C99 1.503 . S
C100 C101 1.394 . S
C100 C105 1.373 . S
C101 C100 1.394 . S
C101 C102 1.380 . S
C101 H124 0.930 . S
C102 C101 1.380 . S
C102 C103 1.376 . S
C102 H125 0.930 . S
C103 C102 1.376 . S
C103 C104 1.370 . S
C104 C103 1.370 . S
C104 C105 1.396 . S
C104 H126 0.929 1_655 S
C105 C100 1.373 . S
C105 C104 1.396 . S
C105 H127 0.929 1_655 S
C106 O116 1.240 . S
C106 O117 1.289 1_545 S
C107 O118 1.258 1_455 S
C107 O119 1.256 . S
O108 La88 2.521 . S
O108 C90 1.261 . S
O109 La88 2.628 . S
O109 C90 1.243 . S
O110 La88 2.554 . S
O110 C97 1.240 . S
O111 La88 2.757 1_545 S
O111 La89 2.482 1_455 S
O111 C97 1.289 1_545 S
O112 La88 2.470 . S
O112 C98 1.258 1_455 S
O113 La89 2.503 1_565 S
O113 C98 1.256 . S
O114 La89 2.521 . S
O114 C99 1.261 . S
O115 La89 2.628 . S
O115 C99 1.243 . S
O116 La89 2.554 . S
O116 C106 1.240 . S
O117 La88 2.482 1_655 S
O117 La89 2.757 1_565 S
O117 C106 1.289 1_565 S
O118 La89 2.470 . S
O118 C107 1.258 1_655 S
O119 La88 2.503 1_545 S
O119 C107 1.256 . S
H120 C92 0.930 . S
H121 C93 0.930 . S
H122 C95 0.929 1_655 S
H123 C96 0.929 1_655 S
H124 C101 0.930 . S
H125 C102 0.930 . S
H126 C104 0.929 1_455 S
H127 C105 0.929 1_455 S
La128 C130 2.928 . S
La128 O148 2.521 . S
La128 O149 2.628 . S
La128 O150 2.554 . S
La128 O151 2.757 . S
La128 O152 2.470 . S
La128 O157 2.482 1_545 S
La128 O159 2.503 . S
La129 C139 2.928 . S
La129 O151 2.482 1_565 S
La129 O153 2.503 . S
La129 O154 2.521 . S
La129 O155 2.628 . S
La129 O156 2.554 . S
La129 O157 2.757 . S
La129 O158 2.470 . S
C130 La128 2.928 . S
C130 C131 1.503 1_556 S
C130 O148 1.261 . S
C130 O149 1.243 . S
C131 C130 1.503 1_554 S
C131 C132 1.394 . S
C131 C136 1.373 . S
C132 C131 1.394 . S
C132 C133 1.380 . S
C132 H160 0.930 . S
C133 C132 1.380 . S
C133 C134 1.376 . S
C133 H161 0.930 . S
C134 C133 1.376 . S
C134 C135 1.370 . S
C135 C134 1.370 . S
C135 C136 1.396 . S
C135 H162 0.929 1_545 S
C136 C131 1.373 . S
C136 C135 1.396 . S
C136 H163 0.929 1_545 S
C137 O150 1.240 . S
C137 O151 1.289 . S
C138 O152 1.258 1_565 S
C138 O153 1.256 . S
C139 La129 2.928 . S
C139 C140 1.503 . S
C139 O154 1.261 . S
C139 O155 1.243 . S
C140 C139 1.503 . S
C140 C141 1.394 . S
C140 C145 1.373 . S
C141 C140 1.394 . S
C141 C142 1.380 . S
C141 H164 0.930 . S
C142 C141 1.380 . S
C142 C143 1.376 . S
C142 H165 0.930 . S
C143 C142 1.376 . S
C143 C144 1.370 . S
C144 C143 1.370 . S
C144 C145 1.396 . S
C144 H166 0.929 1_565 S
C145 C140 1.373 . S
C145 C144 1.396 . S
C145 H167 0.929 1_565 S
C146 O156 1.240 . S
C146 O157 1.289 . S
C147 O158 1.258 1_545 S
C147 O159 1.256 . S
O148 La128 2.521 . S
O148 C130 1.261 . S
O149 La128 2.628 . S
O149 C130 1.243 . S
O150 La128 2.554 . S
O150 C137 1.240 . S
O151 La128 2.757 . S
O151 La129 2.482 1_545 S
O151 C137 1.289 . S
O152 La128 2.470 . S
O152 C138 1.258 1_545 S
O153 La129 2.503 . S
O153 C138 1.256 . S
O154 La129 2.521 . S
O154 C139 1.261 . S
O155 La129 2.628 . S
O155 C139 1.243 . S
O156 La129 2.554 . S
O156 C146 1.240 . S
O157 La128 2.482 1_565 S
O157 La129 2.757 . S
O157 C146 1.289 . S
O158 La129 2.470 . S
O158 C147 1.258 1_565 S
O159 La128 2.503 . S
O159 C147 1.256 . S
H160 C132 0.930 . S
H161 C133 0.930 . S
H162 C135 0.929 1_565 S
H163 C136 0.929 1_565 S
H164 C141 0.930 . S
H165 C142 0.930 . S
H166 C144 0.929 1_545 S
H167 C145 0.929 1_545 S
La168 C170 2.928 . S
La168 O188 2.521 . S
La168 O189 2.628 . S
La168 O190 2.554 . S
La168 O191 2.757 . S
La168 O192 2.470 . S
La168 O197 2.482 . S
La168 O199 2.503 . S
La169 C179 2.928 . S
La169 O191 2.482 . S
La169 O193 2.503 . S
La169 O194 2.521 . S
La169 O195 2.628 . S
La169 O196 2.554 . S
La169 O197 2.757 . S
La169 O198 2.470 . S
C170 La168 2.928 . S
C170 C171 1.503 1_556 S
C170 O188 1.261 . S
C170 O189 1.243 . S
C171 C170 1.503 1_554 S
C171 C172 1.394 . S
C171 C176 1.373 . S
C172 C171 1.394 . S
C172 C173 1.380 . S
C172 H200 0.930 . S
C173 C172 1.380 . S
C173 C174 1.376 . S
C173 H201 0.930 . S
C174 C173 1.376 . S
C174 C175 1.370 . S
C175 C174 1.370 . S
C175 C176 1.396 . S
C175 H202 0.929 . S
C176 C171 1.373 . S
C176 C175 1.396 . S
C176 H203 0.929 . S
C177 O190 1.240 . S
C177 O191 1.289 . S
C178 O192 1.258 . S
C178 O193 1.256 . S
C179 La169 2.928 . S
C179 C180 1.503 . S
C179 O194 1.261 . S
C179 O195 1.243 . S
C180 C179 1.503 . S
C180 C181 1.394 . S
C180 C185 1.373 . S
C181 C180 1.394 . S
C181 C182 1.380 . S
C181 H204 0.930 . S
C182 C181 1.380 . S
C182 C183 1.376 . S
C182 H205 0.930 . S
C183 C182 1.376 . S
C183 C184 1.370 . S
C184 C183 1.370 . S
C184 C185 1.396 . S
C184 H206 0.929 . S
C185 C180 1.373 . S
C185 C184 1.396 . S
C185 H207 0.929 . S
C186 O196 1.240 . S
C186 O197 1.289 . S
C187 O198 1.258 . S
C187 O199 1.256 . S
O188 La168 2.521 . S
O188 C170 1.261 . S
O189 La168 2.628 . S
O189 C170 1.243 . S
O190 La168 2.554 . S
O190 C177 1.240 . S
O191 La168 2.757 . S
O191 La169 2.482 . S
O191 C177 1.289 . S
O192 La168 2.470 . S
O192 C178 1.258 . S
O193 La169 2.503 . S
O193 C178 1.256 . S
O194 La169 2.521 . S
O194 C179 1.261 . S
O195 La169 2.628 . S
O195 C179 1.243 . S
O196 La169 2.554 . S
O196 C186 1.240 . S
O197 La168 2.482 . S
O197 La169 2.757 . S
O197 C186 1.289 . S
O198 La169 2.470 . S
O198 C187 1.258 . S
O199 La168 2.503 . S
O199 C187 1.256 . S
H200 C172 0.930 . S
H201 C173 0.930 . S
H202 C175 0.929 . S
H203 C176 0.929 . S
H204 C181 0.930 . S
H205 C182 0.930 . S
H206 C184 0.929 . S
H207 C185 0.929 . S
La208 C210 2.928 . S
La208 O228 2.521 . S
La208 O229 2.628 . S
La208 O230 2.554 . S
La208 O231 2.757 1_655 S
La208 O232 2.470 . S
La208 O237 2.482 . S
La208 O239 2.503 1_655 S
La209 C219 2.928 . S
La209 O231 2.482 . S
La209 O233 2.503 1_455 S
La209 O234 2.521 . S
La209 O235 2.628 . S
La209 O236 2.554 . S
La209 O237 2.757 1_455 S
La209 O238 2.470 . S
C210 La208 2.928 . S
C210 C211 1.503 1_556 S
C210 O228 1.261 . S
C210 O229 1.243 . S
C211 C210 1.503 1_554 S
C211 C212 1.394 . S
C211 C216 1.373 . S
C212 C211 1.394 . S
C212 C213 1.380 . S
C212 H240 0.930 . S
C213 C212 1.380 . S
C213 C214 1.376 . S
C213 H241 0.930 . S
C214 C213 1.376 . S
C214 C215 1.370 . S
C215 C214 1.370 . S
C215 C216 1.396 . S
C215 H242 0.929 . S
C216 C211 1.373 . S
C216 C215 1.396 . S
C216 H243 0.929 . S
C217 O230 1.257 . S
C217 O231 1.279 1_655 S
C218 O232 1.258 . S
C218 O233 1.256 . S
C219 La209 2.928 . S
C219 C220 1.503 . S
C219 O234 1.261 . S
C219 O235 1.243 . S
C220 C219 1.503 . S
C220 C221 1.394 . S
C220 C225 1.373 . S
C221 C220 1.394 . S
C221 C222 1.380 . S
C221 H244 0.930 . S
C222 C221 1.380 . S
C222 C223 1.376 . S
C222 H245 0.930 . S
C223 C222 1.376 . S
C223 C224 1.370 . S
C224 C223 1.370 . S
C224 C225 1.396 . S
C224 H246 0.929 . S
C225 C220 1.373 . S
C225 C224 1.396 . S
C225 H247 0.929 . S
C226 O236 1.263 . S
C226 O237 1.276 1_455 S
C227 O238 1.258 . S
C227 O239 1.256 . S
O228 La208 2.521 . S
O228 C210 1.261 . S
O229 La208 2.628 . S
O229 C210 1.243 . S
O230 La208 2.554 . S
O230 C217 1.257 . S
O231 La208 2.757 1_455 S
O231 La209 2.482 . S
O231 C217 1.279 1_455 S
O232 La208 2.470 . S
O232 C218 1.258 . S
O233 La209 2.503 1_655 S
O233 C218 1.256 . S
O234 La209 2.521 . S
O234 C219 1.261 . S
O235 La209 2.628 . S
O235 C219 1.243 . S
O236 La209 2.554 . S
O236 C226 1.263 . S
O237 La208 2.482 . S
O237 La209 2.757 1_655 S
O237 C226 1.276 1_655 S
O238 La209 2.470 . S
O238 C227 1.258 . S
O239 La208 2.503 1_455 S
O239 C227 1.256 . S
H240 C212 0.930 . S
H241 C213 0.930 . S
H242 C215 0.929 . S
H243 C216 0.929 . S
H244 C221 0.930 . S
H245 C222 0.930 . S
H246 C224 0.929 . S
H247 C225 0.929 . S
H248 C254 0.930 . S
H249 C258 0.930 . S
H250 C263 0.929 . S
H251 C261 0.929 . S
H252 C256 0.929 . S
H253 C262 0.929 . S
C254 H248 0.930 . S
C254 C255 1.393 . S
C254 C262 1.378 . S
C255 C254 1.393 . S
C255 C263 1.407 1_545 S
C256 H252 0.929 . S
C256 C258 1.378 . S
C256 C260 1.348 1_565 S
C257 C260 1.463 . S
C257 C262 1.350 . S
C257 N265 1.427 1_545 S
C258 H249 0.930 . S
C258 C256 1.378 . S
C258 C259 1.342 1_565 S
C259 C258 1.342 1_545 S
C259 C261 1.459 . S
C260 C256 1.348 1_545 S
C260 C257 1.463 . S
C260 N264 1.429 . S
C261 H251 0.929 . S
C261 C259 1.459 . S
C261 N264 1.384 . S
C262 H253 0.929 . S
C262 C254 1.378 . S
C262 C257 1.350 . S
C263 H250 0.929 . S
C263 C255 1.407 1_565 S
C263 N265 1.384 . S
N264 C260 1.429 . S
N264 C261 1.384 . S
N265 C257 1.427 1_565 S
N265 C263 1.384 . S
H266 C272 0.930 . S
H267 C276 0.930 . S
H268 C281 0.929 . S
H269 C279 0.929 . S
H270 C274 0.929 . S
H271 C280 0.929 . S
C272 H266 0.930 . S
C272 C273 1.367 . S
C272 C280 1.378 . S
C273 C272 1.367 . S
C273 C281 1.433 . S
C274 H270 0.929 . S
C274 C276 1.378 . S
C274 C278 1.350 . S
C275 C278 1.463 . S
C275 C280 1.350 . S
C275 N283 1.427 . S
C276 H267 0.930 . S
C276 C274 1.378 . S
C276 C277 1.367 . S
C277 C276 1.367 . S
C277 C279 1.433 . S
C278 C274 1.350 . S
C278 C275 1.463 . S
C278 N282 1.427 . S
C279 H269 0.929 . S
C279 C277 1.433 . S
C279 N282 1.384 . S
C280 H271 0.929 . S
C280 C272 1.378 . S
C280 C275 1.350 . S
C281 H268 0.929 . S
C281 C273 1.433 . S
C281 N283 1.384 . S
N282 C278 1.427 . S
N282 C279 1.384 . S
N283 C275 1.427 . S
N283 C281 1.384 . S
H284 C290 0.930 . S
H285 C294 0.930 . S
H286 C299 0.929 . S
H287 C297 0.929 . S
H288 C292 0.929 . S
H289 C298 0.929 . S
C290 H284 0.930 . S
C290 C291 1.367 . S
C290 C298 1.378 . S
C291 C290 1.367 . S
C291 C299 1.433 . S
C292 H288 0.929 . S
C292 C294 1.378 . S
C292 C296 1.350 . S
C293 C296 1.463 . S
C293 C298 1.350 . S
C293 N301 1.427 . S
C294 H285 0.930 . S
C294 C292 1.378 . S
C294 C295 1.367 . S
C295 C294 1.367 . S
C295 C297 1.433 . S
C296 C292 1.350 . S
C296 C293 1.463 . S
C296 N300 1.427 . S
C297 H287 0.929 . S
C297 C295 1.433 . S
C297 N300 1.384 . S
C298 H289 0.929 . S
C298 C290 1.378 . S
C298 C293 1.350 . S
C299 H286 0.929 . S
C299 C291 1.433 . S
C299 N301 1.384 . S
N300 C296 1.427 . S
N300 C297 1.384 . S
N301 C293 1.427 . S
N301 C299 1.384 . S
H302 C308 0.930 . S
H303 C312 0.930 . S
H304 C317 0.929 . S
H305 C315 0.929 . S
H306 C310 0.929 . S
H307 C316 0.929 . S
C308 H302 0.930 . S
C308 C309 1.368 1_655 S
C308 C316 1.378 . S
C309 C308 1.368 1_455 S
C309 C317 1.432 . S
C310 H306 0.929 . S
C310 C312 1.378 . S
C310 C314 1.350 . S
C311 C314 1.463 . S
C311 C316 1.342 1_455 S
C311 N319 1.436 . S
C312 H303 0.930 . S
C312 C310 1.378 . S
C312 C313 1.367 . S
C313 C312 1.367 . S
C313 C315 1.433 1_455 S
C314 C310 1.350 . S
C314 C311 1.463 . S
C314 N318 1.427 1_455 S
C315 H305 0.929 . S
C315 C313 1.433 1_655 S
C315 N318 1.384 . S
C316 H307 0.929 . S
C316 C308 1.378 . S
C316 C311 1.342 1_655 S
C317 H304 0.929 . S
C317 C309 1.432 . S
C317 N319 1.384 . S
N318 C314 1.427 1_655 S
N318 C315 1.384 . S
N319 C311 1.436 . S
N319 C317 1.384 . S
H320 C326 0.930 . S
H321 C330 0.930 1_545 S
H322 C335 0.931 . S
H323 C333 0.929 . S
H324 C328 0.928 . S
H325 C334 0.929 . S
C326 H320 0.930 . S
C326 C327 1.367 . S
C326 C334 1.378 . S
C327 C326 1.367 . S
C327 C335 1.433 1_565 S
C328 H324 0.928 . S
C328 C330 1.378 1_545 S
C328 C332 1.349 1_546 S
C329 C332 1.462 . S
C329 C334 1.351 . S
C329 N337 1.426 1_565 S
C330 H321 0.930 1_565 S
C330 C328 1.378 1_565 S
C330 C331 1.366 . S
C331 C330 1.366 . S
C331 C333 1.435 1_556 S
C332 C328 1.349 1_564 S
C332 C329 1.462 . S
C332 N336 1.428 . S
C333 H323 0.929 . S
C333 C331 1.435 1_554 S
C333 N336 1.384 . S
C334 H325 0.929 . S
C334 C326 1.378 . S
C334 C329 1.351 . S
C335 H322 0.931 . S
C335 C327 1.433 1_545 S
C335 N337 1.383 . S
N336 C332 1.428 . S
N336 C333 1.384 . S
N337 C329 1.426 1_545 S
N337 C335 1.383 . S
H338 C344 0.930 . S
H339 C348 0.930 1_556 S
H340 C353 0.929 . S
H341 C351 0.929 . S
H342 C346 0.929 . S
H343 C352 0.929 . S
C344 H338 0.930 . S
C344 C345 1.367 . S
C344 C352 1.378 . S
C345 C344 1.367 . S
C345 C353 1.433 . S
C346 H342 0.929 . S
C346 C348 1.378 . S
C346 C350 1.350 . S
C347 C350 1.463 . S
C347 C352 1.350 . S
C347 N355 1.427 . S
C348 H339 0.930 1_554 S
C348 C346 1.378 . S
C348 C349 1.367 1_554 S
C349 C348 1.367 1_556 S
C349 C351 1.433 . S
C350 C346 1.350 . S
C350 C347 1.463 . S
C350 N354 1.427 . S
C351 H341 0.929 . S
C351 C349 1.433 . S
C351 N354 1.384 1_556 S
C352 H343 0.929 . S
C352 C344 1.378 . S
C352 C347 1.350 . S
C353 H340 0.929 . S
C353 C345 1.433 . S
C353 N355 1.384 . S
N354 C350 1.427 . S
N354 C351 1.384 1_554 S
N355 C347 1.427 . S
N355 C353 1.384 . S
H356 C362 0.930 . S
H357 C366 0.930 . S
H358 C371 0.929 . S
H359 C369 0.929 . S
H360 C364 0.929 . S
H361 C370 0.929 . S
C362 H356 0.930 . S
C362 C363 1.367 . S
C362 C370 1.378 . S
C363 C362 1.367 . S
C363 C371 1.433 . S
C364 H360 0.929 . S
C364 C366 1.378 1_554 S
C364 C368 1.350 . S
C365 C368 1.463 . S
C365 C370 1.350 . S
C365 N373 1.427 . S
C366 H357 0.930 . S
C366 C364 1.378 1_556 S
C366 C367 1.367 . S
C367 C366 1.367 . S
C367 C369 1.433 . S
C368 C364 1.350 . S
C368 C365 1.463 . S
C368 N372 1.427 . S
C369 H359 0.929 . S
C369 C367 1.433 . S
C369 N372 1.384 1_556 S
C370 H361 0.929 . S
C370 C362 1.378 . S
C370 C365 1.350 . S
C371 H358 0.929 . S
C371 C363 1.433 . S
C371 N373 1.384 . S
N372 C368 1.427 . S
N372 C369 1.384 1_554 S
N373 C365 1.427 . S
N373 C371 1.384 . S
H374 C380 0.930 . S
H375 C384 0.930 . S
H376 C389 0.929 . S
H377 C387 0.929 . S
H378 C382 0.929 . S
H379 C388 0.929 . S
C380 H374 0.930 . S
C380 C381 1.371 . S
C380 C388 1.378 . S
C381 C380 1.371 . S
C381 C389 1.430 1_655 S
C382 H378 0.929 . S
C382 C384 1.378 . S
C382 C386 1.342 1_455 S
C383 C386 1.463 . S
C383 C388 1.350 . S
C383 N391 1.427 1_655 S
C384 H375 0.930 . S
C384 C382 1.378 . S
C384 C385 1.367 1_454 S
C385 C384 1.367 1_656 S
C385 C387 1.433 . S
C386 C382 1.342 1_655 S
C386 C383 1.463 . S
C386 N390 1.437 1_554 S
C387 H377 0.929 . S
C387 C385 1.433 . S
C387 N390 1.384 . S
C388 H379 0.929 . S
C388 C380 1.378 . S
C388 C383 1.350 . S
C389 H376 0.929 . S
C389 C381 1.430 1_455 S
C389 N391 1.384 . S
N390 C386 1.437 1_556 S
N390 C387 1.384 . S
N391 C383 1.427 1_455 S
N391 C389 1.384 . S
H392 C398 0.930 . S
H393 C402 0.930 . S
H394 C407 0.929 . S
H395 C405 0.929 . S
H396 C400 0.929 . S
H397 C406 0.929 . S
C398 H392 0.930 . S
C398 C399 1.367 1_655 S
C398 C406 1.378 . S
C399 C398 1.367 1_455 S
C399 C407 1.433 . S
C400 H396 0.929 . S
C400 C402 1.378 . S
C400 C404 1.350 . S
C401 C404 1.463 . S
C401 C406 1.350 . S
C401 N409 1.427 1_655 S
C402 H393 0.930 . S
C402 C400 1.378 . S
C402 C403 1.367 . S
C403 C402 1.367 . S
C403 C405 1.433 . S
C404 C400 1.350 . S
C404 C401 1.463 . S
C404 N408 1.427 . S
C405 H395 0.929 . S
C405 C403 1.433 . S
C405 N408 1.384 . S
C406 H397 0.929 . S
C406 C398 1.378 . S
C406 C401 1.350 . S
C407 H394 0.929 . S
C407 C399 1.433 . S
C407 N409 1.384 . S
N408 C404 1.427 . S
N408 C405 1.384 . S
N409 C401 1.427 1_455 S
N409 C407 1.384 . S
H410 C416 0.930 . S
H411 C420 0.930 . S
H412 C425 0.929 . S
H413 C423 0.929 . S
H414 C418 0.929 1_545 S
H415 C424 0.929 . S
C416 H410 0.930 . S
C416 C417 1.367 1_565 S
C416 C424 1.378 . S
C417 C416 1.367 1_545 S
C417 C425 1.433 . S
C418 H414 0.929 1_565 S
C418 C420 1.378 . S
C418 C422 1.350 . S
C419 C422 1.463 . S
C419 C424 1.350 . S
C419 N427 1.427 1_565 S
C420 H411 0.930 . S
C420 C418 1.378 . S
C420 C421 1.367 . S
C421 C420 1.367 . S
C421 C423 1.433 . S
C422 C418 1.350 . S
C422 C419 1.463 . S
C422 N426 1.427 . S
C423 H413 0.929 . S
C423 C421 1.433 . S
C423 N426 1.384 . S
C424 H415 0.929 . S
C424 C416 1.378 . S
C424 C419 1.350 . S
C425 H412 0.929 . S
C425 C417 1.433 . S
C425 N427 1.384 . S
N426 C422 1.427 . S
N426 C423 1.384 . S
N427 C419 1.427 1_545 S
N427 C425 1.384 . S
H428 C434 0.930 . S
H429 C438 0.930 . S
H430 C443 0.929 . S
H431 C441 0.929 . S
H432 C436 0.929 . S
H433 C442 0.929 . S
C434 H428 0.930 . S
C434 C435 1.367 . S
C434 C442 1.378 . S
C435 C434 1.367 . S
C435 C443 1.433 . S
C436 H432 0.929 . S
C436 C438 1.378 . S
C436 C440 1.350 . S
C437 C440 1.463 . S
C437 C442 1.350 . S
C437 N445 1.427 . S
C438 H429 0.930 . S
C438 C436 1.378 . S
C438 C439 1.367 . S
C439 C438 1.367 . S
C439 C441 1.433 . S
C440 C436 1.350 . S
C440 C437 1.463 . S
C440 N444 1.427 . S
C441 H431 0.929 . S
C441 C439 1.433 . S
C441 N444 1.384 . S
C442 H433 0.929 . S
C442 C434 1.378 . S
C442 C437 1.350 . S
C443 H430 0.929 . S
C443 C435 1.433 . S
C443 N445 1.384 . S
N444 C440 1.427 . S
N444 C441 1.384 . S
N445 C437 1.427 . S
N445 C443 1.384 . S
H446 C452 0.930 . S
H447 C456 0.930 . S
H448 C461 0.929 . S
H449 C459 0.929 . S
H450 C454 0.929 . S
H451 C460 0.929 . S
C452 H446 0.930 . S
C452 C453 1.367 . S
C452 C460 1.378 . S
C453 C452 1.367 . S
C453 C461 1.433 . S
C454 H450 0.929 . S
C454 C456 1.378 . S
C454 C458 1.350 . S
C455 C458 1.463 . S
C455 C460 1.350 . S
C455 N463 1.427 . S
C456 H447 0.930 . S
C456 C454 1.378 . S
C456 C457 1.367 . S
C457 C456 1.367 . S
C457 C459 1.433 . S
C458 C454 1.350 . S
C458 C455 1.463 . S
C458 N462 1.427 . S
C459 H449 0.929 . S
C459 C457 1.433 . S
C459 N462 1.384 . S
C460 H451 0.929 . S
C460 C452 1.378 . S
C460 C455 1.350 . S
C461 H448 0.929 . S
C461 C453 1.433 . S
C461 N463 1.384 . S
N462 C458 1.427 . S
N462 C459 1.384 . S
N463 C455 1.427 . S
N463 C461 1.384 . S
H464 C470 0.930 . S
H465 C474 0.930 . S
H466 C479 0.929 . S
H467 C477 0.929 . S
H468 C472 0.929 . S
H469 C478 0.930 1_655 S
C470 H464 0.930 . S
C470 C471 1.367 . S
C470 C478 1.379 1_655 S
C471 C470 1.367 . S
C471 C479 1.433 1_655 S
C472 H468 0.929 . S
C472 C474 1.378 . S
C472 C476 1.350 . S
C473 C476 1.463 . S
C473 C478 1.347 . S
C473 N481 1.427 . S
C474 H465 0.930 . S
C474 C472 1.378 . S
C474 C475 1.367 . S
C475 C474 1.367 . S
C475 C477 1.433 . S
C476 C472 1.350 . S
C476 C473 1.463 . S
C476 N480 1.427 . S
C477 H467 0.929 . S
C477 C475 1.433 . S
C477 N480 1.384 . S
C478 H469 0.930 1_455 S
C478 C470 1.379 1_455 S
C478 C473 1.347 . S
C479 H466 0.929 . S
C479 C471 1.433 1_455 S
C479 N481 1.384 . S
N480 C476 1.427 . S
N480 C477 1.384 . S
N481 C473 1.427 . S
N481 C479 1.384 . S
H482 C488 0.930 . S
H483 C492 0.930 . S
H484 C497 0.929 . S
H485 C495 0.929 . S
H486 C490 0.929 . S
H487 C496 0.929 . S
C488 H482 0.930 . S
C488 C489 1.367 . S
C488 C496 1.378 . S
C489 C488 1.367 . S
C489 C497 1.433 1_565 S
C490 H486 0.929 . S
C490 C492 1.378 . S
C490 C494 1.350 . S
C491 C494 1.463 . S
C491 C496 1.350 1_545 S
C491 N499 1.427 . S
C492 H483 0.930 . S
C492 C490 1.378 . S
C492 C493 1.367 . S
C493 C492 1.367 . S
C493 C495 1.433 . S
C494 C490 1.350 . S
C494 C491 1.463 . S
C494 N498 1.427 . S
C495 H485 0.929 . S
C495 C493 1.433 . S
C495 N498 1.384 . S
C496 H487 0.929 . S
C496 C488 1.378 . S
C496 C491 1.350 1_565 S
C497 H484 0.929 . S
C497 C489 1.433 1_545 S
C497 N499 1.384 . S
N498 C494 1.427 . S
N498 C495 1.384 . S
N499 C491 1.427 . S
N499 C497 1.384 . S
H500 C506 0.930 . S
H501 C510 0.930 . S
H502 C515 0.929 . S
H503 C513 0.929 . S
H504 C508 0.929 . S
H505 C514 0.929 . S
C506 H500 0.930 . S
C506 C507 1.367 . S
C506 C514 1.378 . S
C507 C506 1.367 . S
C507 C515 1.433 . S
C508 H504 0.929 . S
C508 C510 1.378 . S
C508 C512 1.350 . S
C509 C512 1.463 . S
C509 C514 1.350 . S
C509 N517 1.427 . S
C510 H501 0.930 . S
C510 C508 1.378 . S
C510 C511 1.367 . S
C511 C510 1.367 . S
C511 C513 1.433 . S
C512 C508 1.350 . S
C512 C509 1.463 . S
C512 N516 1.427 . S
C513 H503 0.929 . S
C513 C511 1.433 . S
C513 N516 1.384 . S
C514 H505 0.929 . S
C514 C506 1.378 . S
C514 C509 1.350 . S
C515 H502 0.929 . S
C515 C507 1.433 . S
C515 N517 1.384 . S
N516 C512 1.427 . S
N516 C513 1.384 . S
N517 C509 1.427 . S
N517 C515 1.384 . S
H518 C524 0.930 . S
H519 C528 0.930 . S
H520 C533 0.929 . S
H521 C531 0.929 . S
H522 C526 0.929 . S
H523 C532 0.929 . S
C524 H518 0.930 . S
C524 C525 1.367 . S
C524 C532 1.378 . S
C525 C524 1.367 . S
C525 C533 1.433 . S
C526 H522 0.929 . S
C526 C528 1.378 . S
C526 C530 1.350 . S
C527 C530 1.463 . S
C527 C532 1.350 . S
C527 N535 1.427 . S
C528 H519 0.930 . S
C528 C526 1.378 . S
C528 C529 1.367 . S
C529 C528 1.367 . S
C529 C531 1.433 . S
C530 C526 1.350 . S
C530 C527 1.463 . S
C530 N534 1.427 . S
C531 H521 0.929 . S
C531 C529 1.433 . S
C531 N534 1.384 . S
C532 H523 0.929 . S
C532 C524 1.378 . S
C532 C527 1.350 . S
C533 H520 0.929 . S
C533 C525 1.433 . S
C533 N535 1.384 . S
N534 C530 1.427 . S
N534 C531 1.384 . S
N535 C527 1.427 . S
N535 C533 1.384 . S
H536 C542 0.930 . S
H537 C546 0.930 1_655 S
H538 C551 0.929 1_554 S
H539 C549 0.929 . S
H540 C544 0.925 1_655 S
H541 C550 0.929 . S
C542 H536 0.930 . S
C542 C543 1.367 . S
C542 C550 1.378 . S
C543 C542 1.367 . S
C543 C551 1.433 1_455 S
C544 H540 0.925 1_455 S
C544 C546 1.378 . S
C544 C548 1.353 . S
C545 C548 1.463 . S
C545 C550 1.350 . S
C545 N553 1.427 1_455 S
C546 H537 0.930 1_455 S
C546 C544 1.378 . S
C546 C547 1.367 . S
C547 C546 1.367 . S
C547 C549 1.433 . S
C548 C544 1.353 . S
C548 C545 1.463 . S
C548 N552 1.427 . S
C549 H539 0.929 . S
C549 C547 1.433 . S
C549 N552 1.384 . S
C550 H541 0.929 . S
C550 C542 1.378 . S
C550 C545 1.350 . S
C551 H538 0.929 1_556 S
C551 C543 1.433 1_655 S
C551 N553 1.384 . S
N552 C548 1.427 . S
N552 C549 1.384 . S
N553 C545 1.427 1_655 S
N553 C551 1.384 . S
H554 C560 0.930 1_554 S
H555 C564 0.932 . S
H556 C569 0.929 . S
H557 C567 0.929 . S
H558 C562 0.929 1_565 S
H559 C568 0.929 . S
C560 H554 0.930 1_556 S
C560 C561 1.367 . S
C560 C568 1.378 . S
C561 C560 1.367 . S
C561 C569 1.433 1_545 S
C562 H558 0.929 1_545 S
C562 C564 1.378 . S
C562 C566 1.350 . S
C563 C566 1.463 . S
C563 C568 1.350 . S
C563 N571 1.427 1_545 S
C564 H555 0.932 . S
C564 C562 1.378 . S
C564 C565 1.367 . S
C565 C564 1.367 . S
C565 C567 1.433 . S
C566 C562 1.350 . S
C566 C563 1.463 . S
C566 N570 1.427 . S
C567 H557 0.929 . S
C567 C565 1.433 . S
C567 N570 1.384 . S
C568 H559 0.929 . S
C568 C560 1.378 . S
C568 C563 1.350 . S
C569 H556 0.929 . S
C569 C561 1.433 1_565 S
C569 N571 1.384 . S
N570 C566 1.427 . S
N570 C567 1.384 . S
N571 C563 1.427 1_565 S
N571 C569 1.384 . S
H572 C578 0.930 . S
H573 C582 0.930 . S
H574 C587 0.929 . S
H575 C585 0.929 . S
H576 C580 0.929 . S
H577 C586 0.929 . S
C578 H572 0.930 . S
C578 C579 1.367 . S
C578 C586 1.378 . S
C579 C578 1.367 . S
C579 C587 1.433 . S
C580 H576 0.929 . S
C580 C582 1.378 . S
C580 C584 1.350 . S
C581 C584 1.463 . S
C581 C586 1.350 . S
C581 N589 1.427 . S
C582 H573 0.930 . S
C582 C580 1.378 . S
C582 C583 1.367 . S
C583 C582 1.367 . S
C583 C585 1.433 . S
C584 C580 1.350 . S
C584 C581 1.463 . S
C584 N588 1.427 . S
C585 H575 0.929 . S
C585 C583 1.433 . S
C585 N588 1.384 . S
C586 H577 0.929 . S
C586 C578 1.378 . S
C586 C581 1.350 . S
C587 H574 0.929 . S
C587 C579 1.433 . S
C587 N589 1.384 . S
N588 C584 1.427 . S
N588 C585 1.384 . S
N589 C581 1.427 . S
N589 C587 1.384 . S
H590 C596 0.930 1_554 S
H591 C600 0.930 . S
H592 C605 0.929 . S
H593 C603 0.929 . S
H594 C598 0.929 . S
H595 C604 0.929 1_554 S
C596 H590 0.930 1_556 S
C596 C597 1.367 . S
C596 C604 1.378 . S
C597 C596 1.367 . S
C597 C605 1.433 . S
C598 H594 0.929 . S
C598 C600 1.378 . S
C598 C602 1.350 . S
C599 C602 1.463 . S
C599 C604 1.350 . S
C599 N607 1.427 . S
C600 H591 0.930 . S
C600 C598 1.378 . S
C600 C601 1.367 . S
C601 C600 1.367 . S
C601 C603 1.433 . S
C602 C598 1.350 . S
C602 C599 1.463 . S
C602 N606 1.427 . S
C603 H593 0.929 . S
C603 C601 1.433 . S
C603 N606 1.384 . S
C604 H595 0.929 1_556 S
C604 C596 1.378 . S
C604 C599 1.350 . S
C605 H592 0.929 . S
C605 C597 1.433 . S
C605 N607 1.384 . S
N606 C602 1.427 . S
N606 C603 1.384 . S
N607 C599 1.427 . S
N607 C605 1.384 . S
H608 C614 0.930 . S
H609 C618 0.930 . S
H610 C623 0.929 . S
H611 C621 0.944 . S
H612 C616 0.929 . S
H613 C622 0.929 . S
C614 H608 0.930 . S
C614 C615 1.367 1_455 S
C614 C622 1.378 . S
C615 C614 1.367 1_655 S
C615 C623 1.433 . S
C616 H612 0.929 . S
C616 C618 1.378 . S
C616 C620 1.350 . S
C617 C620 1.463 . S
C617 C622 1.350 1_655 S
C617 N625 1.427 . S
C618 H609 0.930 . S
C618 C616 1.378 . S
C618 C619 1.367 . S
C619 C618 1.367 . S
C619 C621 1.416 1_655 S
C620 C616 1.350 . S
C620 C617 1.463 . S
C620 N624 1.427 1_655 S
C621 H611 0.944 . S
C621 C619 1.416 1_455 S
C621 N624 1.387 . S
C622 H613 0.929 . S
C622 C614 1.378 . S
C622 C617 1.350 1_455 S
C623 H610 0.929 . S
C623 C615 1.433 . S
C623 N625 1.384 . S
N624 C620 1.427 1_455 S
N624 C621 1.387 . S
N625 C617 1.427 . S
N625 C623 1.384 . S
H626 C632 0.930 . S
H627 C636 0.930 . S
H628 C641 0.929 . S
H629 C639 0.929 . S
H630 C634 0.929 . S
H631 C640 0.929 . S
C632 H626 0.930 . S
C632 C633 1.367 1_545 S
C632 C640 1.378 . S
C633 C632 1.367 1_565 S
C633 C641 1.433 . S
C634 H630 0.929 . S
C634 C636 1.378 . S
C634 C638 1.350 . S
C635 C638 1.463 . S
C635 C640 1.350 1_565 S
C635 N643 1.427 . S
C636 H627 0.930 . S
C636 C634 1.378 . S
C636 C637 1.367 . S
C637 C636 1.367 . S
C637 C639 1.433 1_565 S
C638 C634 1.350 . S
C638 C635 1.463 . S
C638 N642 1.427 1_565 S
C639 H629 0.929 . S
C639 C637 1.433 1_545 S
C639 N642 1.384 . S
C640 H631 0.929 . S
C640 C632 1.378 . S
C640 C635 1.350 1_545 S
C641 H628 0.929 . S
C641 C633 1.433 . S
C641 N643 1.384 . S
N642 C638 1.427 1_545 S
N642 C639 1.384 . S
N643 C635 1.427 . S
N643 C641 1.384 . S
H644 C650 0.930 . S
H645 C654 0.930 . S
H646 C659 0.929 . S
H647 C657 0.929 . S
H648 C652 0.929 . S
H649 C658 0.929 . S
C650 H644 0.930 . S
C650 C651 1.367 . S
C650 C658 1.378 . S
C651 C650 1.367 . S
C651 C659 1.433 . S
C652 H648 0.929 . S
C652 C654 1.378 . S
C652 C656 1.350 . S
C653 C656 1.463 . S
C653 C658 1.350 . S
C653 N661 1.427 . S
C654 H645 0.930 . S
C654 C652 1.378 . S
C654 C655 1.367 . S
C655 C654 1.367 . S
C655 C657 1.433 . S
C656 C652 1.350 . S
C656 C653 1.463 . S
C656 N660 1.427 . S
C657 H647 0.929 . S
C657 C655 1.433 . S
C657 N660 1.384 . S
C658 H649 0.929 . S
C658 C650 1.378 . S
C658 C653 1.350 . S
C659 H646 0.929 . S
C659 C651 1.433 . S
C659 N661 1.384 . S
N660 C656 1.427 . S
N660 C657 1.384 . S
N661 C653 1.427 . S
N661 C659 1.384 . S
H662 C668 0.930 . S
H663 C672 0.930 . S
H664 C677 0.929 . S
H665 C675 0.929 . S
H666 C670 0.929 . S
H667 C676 0.929 . S
C668 H662 0.930 . S
C668 C669 1.367 . S
C668 C676 1.378 . S
C669 C668 1.367 . S
C669 C677 1.433 . S
C670 H666 0.929 . S
C670 C672 1.378 . S
C670 C674 1.350 . S
C671 C674 1.463 . S
C671 C676 1.350 . S
C671 N679 1.427 . S
C672 H663 0.930 . S
C672 C670 1.378 . S
C672 C673 1.367 . S
C673 C672 1.367 . S
C673 C675 1.433 . S
C674 C670 1.350 . S
C674 C671 1.463 . S
C674 N678 1.427 . S
C675 H665 0.929 . S
C675 C673 1.433 . S
C675 N678 1.384 . S
C676 H667 0.929 . S
C676 C668 1.378 . S
C676 C671 1.350 . S
C677 H664 0.929 . S
C677 C669 1.433 . S
C677 N679 1.384 . S
N678 C674 1.427 . S
N678 C675 1.384 . S
N679 C671 1.427 . S
N679 C677 1.384 . S
C255 C76 1.827 1_545 S
C259 C97 1.961 1_545 S
C277 C137 1.976 . S
C273 C87 1.830 . S
C295 C177 1.982 . S
C291 C54 1.839 . S
C313 C217 1.969 1_455 S
C309 C65 1.844 1_455 S
C331 C106 1.964 1_565 S
C327 C32 1.844 . S
C345 C43 1.837 . S
C349 C146 1.980 . S
C363 C10 1.846 . S
C367 C186 1.977 . S
C381 C21 1.830 . S
C385 C226 1.972 1_655 S
C403 C103 0.499 . S
C399 C60 0.527 . S
C421 C143 0.498 . S
C417 C71 0.505 . S
C439 C183 0.501 . S
C435 C82 0.526 . S
C453 C49 0.513 . S
C457 C223 0.488 . S
C471 C16 0.512 1_655 S
C475 C94 0.516 . S
C493 C134 0.532 . S
C489 C27 0.532 1_565 S
C511 C174 0.513 . S
C507 C38 0.513 . S
C525 C5 0.535 . S
C529 C214 0.533 . S
C543 C59 2.061 . S
C547 C107 2.280 . S
C561 C70 2.024 . S
C565 C147 2.266 . S
C583 C187 2.253 . S
C579 C81 2.026 . S
C601 C227 2.278 . S
C597 C48 2.026 . S
C615 C15 2.062 1_655 S
C619 C98 2.296 . S
C637 C138 2.268 . S
C633 C26 2.040 1_565 S
C655 C178 2.255 . S
C651 C37 2.035 . S
C669 C4 2.042 . S
C673 C218 2.286 . S
