# Generated by pormake.
# Topology eea, (3,6)-cn, num edge types: 1
# Building blocks:
#     Node 0, Type 0, BuildingBlock: VETTIZ_charged_linker_0, # of connection points: 3
#     Node 1, Type 0, BuildingBlock: VETTIZ_charged_linker_0, # of connection points: 3
#     Node 2, Type 0, BuildingBlock: VETTIZ_charged_linker_0, # of connection points: 3
#     Node 3, Type 0, BuildingBlock: VETTIZ_charged_linker_0, # of connection points: 3
#     Node 4, Type 0, BuildingBlock: VETTIZ_charged_linker_0, # of connection points: 3
#     Node 5, Type 0, BuildingBlock: VETTIZ_charged_linker_0, # of connection points: 3
#     Node 6, Type 0, BuildingBlock: VETTIZ_charged_linker_0, # of connection points: 3
#     Node 7, Type 0, BuildingBlock: VETTIZ_charged_linker_0, # of connection points: 3
#     Node 8, Type 0, BuildingBlock: VETTIZ_charged_linker_0, # of connection points: 3
#     Node 9, Type 0, BuildingBlock: VETTIZ_charged_linker_0, # of connection points: 3
#     Node 10, Type 0, BuildingBlock: VETTIZ_charged_linker_0, # of connection points: 3
#     Node 11, Type 0, BuildingBlock: VETTIZ_charged_linker_0, # of connection points: 3
#     Node 12, Type 0, BuildingBlock: VETTIZ_charged_linker_0, # of connection points: 3
#     Node 13, Type 0, BuildingBlock: VETTIZ_charged_linker_0, # of connection points: 3
#     Node 14, Type 0, BuildingBlock: VETTIZ_charged_linker_0, # of connection points: 3
#     Node 15, Type 0, BuildingBlock: VETTIZ_charged_linker_0, # of connection points: 3
#     Node 16, Type 0, BuildingBlock: VETTIZ_charged_linker_0, # of connection points: 3
#     Node 17, Type 0, BuildingBlock: VETTIZ_charged_linker_0, # of connection points: 3
#     Node 18, Type 1, BuildingBlock: CUKXOW_clean_sbu_0, # of connection points: 6
#     Node 19, Type 1, BuildingBlock: CUKXOW_clean_sbu_0, # of connection points: 6
#     Node 20, Type 1, BuildingBlock: CUKXOW_clean_sbu_0, # of connection points: 6
#     Node 21, Type 1, BuildingBlock: CUKXOW_clean_sbu_0, # of connection points: 6
#     Node 22, Type 1, BuildingBlock: CUKXOW_clean_sbu_0, # of connection points: 6
#     Node 23, Type 1, BuildingBlock: CUKXOW_clean_sbu_0, # of connection points: 6
#     Node 24, Type 1, BuildingBlock: CUKXOW_clean_sbu_0, # of connection points: 6
#     Node 25, Type 1, BuildingBlock: CUKXOW_clean_sbu_0, # of connection points: 6
#     Node 26, Type 1, BuildingBlock: CUKXOW_clean_sbu_0, # of connection points: 6
#     Edge 27, Type (0, 1), BuildingBlock: OJICUG_clean_linker_0, # of connection points: 2
#     Edge 28, Type (0, 1), BuildingBlock: OJICUG_clean_linker_0, # of connection points: 2
#     Edge 29, Type (0, 1), BuildingBlock: OJICUG_clean_linker_0, # of connection points: 2
#     Edge 30, Type (0, 1), BuildingBlock: OJICUG_clean_linker_0, # of connection points: 2
#     Edge 31, Type (0, 1), BuildingBlock: OJICUG_clean_linker_0, # of connection points: 2
#     Edge 32, Type (0, 1), BuildingBlock: OJICUG_clean_linker_0, # of connection points: 2
#     Edge 33, Type (0, 1), BuildingBlock: OJICUG_clean_linker_0, # of connection points: 2
#     Edge 34, Type (0, 1), BuildingBlock: OJICUG_clean_linker_0, # of connection points: 2
#     Edge 35, Type (0, 1), BuildingBlock: OJICUG_clean_linker_0, # of connection points: 2
#     Edge 36, Type (0, 1), BuildingBlock: OJICUG_clean_linker_0, # of connection points: 2
#     Edge 37, Type (0, 1), BuildingBlock: OJICUG_clean_linker_0, # of connection points: 2
#     Edge 38, Type (0, 1), BuildingBlock: OJICUG_clean_linker_0, # of connection points: 2
#     Edge 39, Type (0, 1), BuildingBlock: OJICUG_clean_linker_0, # of connection points: 2
#     Edge 40, Type (0, 1), BuildingBlock: OJICUG_clean_linker_0, # of connection points: 2
#     Edge 41, Type (0, 1), BuildingBlock: OJICUG_clean_linker_0, # of connection points: 2
#     Edge 42, Type (0, 1), BuildingBlock: OJICUG_clean_linker_0, # of connection points: 2
#     Edge 43, Type (0, 1), BuildingBlock: OJICUG_clean_linker_0, # of connection points: 2
#     Edge 44, Type (0, 1), BuildingBlock: OJICUG_clean_linker_0, # of connection points: 2
#     Edge 45, Type (0, 1), BuildingBlock: OJICUG_clean_linker_0, # of connection points: 2
#     Edge 46, Type (0, 1), BuildingBlock: OJICUG_clean_linker_0, # of connection points: 2
#     Edge 47, Type (0, 1), BuildingBlock: OJICUG_clean_linker_0, # of connection points: 2
#     Edge 48, Type (0, 1), BuildingBlock: OJICUG_clean_linker_0, # of connection points: 2
#     Edge 49, Type (0, 1), BuildingBlock: OJICUG_clean_linker_0, # of connection points: 2
#     Edge 50, Type (0, 1), BuildingBlock: OJICUG_clean_linker_0, # of connection points: 2
#     Edge 51, Type (0, 1), BuildingBlock: OJICUG_clean_linker_0, # of connection points: 2
#     Edge 52, Type (0, 1), BuildingBlock: OJICUG_clean_linker_0, # of connection points: 2
#     Edge 53, Type (0, 1), BuildingBlock: OJICUG_clean_linker_0, # of connection points: 2
#     Edge 54, Type (0, 1), BuildingBlock: OJICUG_clean_linker_0, # of connection points: 2
#     Edge 55, Type (0, 1), BuildingBlock: OJICUG_clean_linker_0, # of connection points: 2
#     Edge 56, Type (0, 1), BuildingBlock: OJICUG_clean_linker_0, # of connection points: 2
#     Edge 57, Type (0, 1), BuildingBlock: OJICUG_clean_linker_0, # of connection points: 2
#     Edge 58, Type (0, 1), BuildingBlock: OJICUG_clean_linker_0, # of connection points: 2
#     Edge 59, Type (0, 1), BuildingBlock: OJICUG_clean_linker_0, # of connection points: 2
#     Edge 60, Type (0, 1), BuildingBlock: OJICUG_clean_linker_0, # of connection points: 2
#     Edge 61, Type (0, 1), BuildingBlock: OJICUG_clean_linker_0, # of connection points: 2
#     Edge 62, Type (0, 1), BuildingBlock: OJICUG_clean_linker_0, # of connection points: 2
#     Edge 63, Type (0, 1), BuildingBlock: OJICUG_clean_linker_0, # of connection points: 2
#     Edge 64, Type (0, 1), BuildingBlock: OJICUG_clean_linker_0, # of connection points: 2
#     Edge 65, Type (0, 1), BuildingBlock: OJICUG_clean_linker_0, # of connection points: 2
#     Edge 66, Type (0, 1), BuildingBlock: OJICUG_clean_linker_0, # of connection points: 2
#     Edge 67, Type (0, 1), BuildingBlock: OJICUG_clean_linker_0, # of connection points: 2
#     Edge 68, Type (0, 1), BuildingBlock: OJICUG_clean_linker_0, # of connection points: 2
#     Edge 69, Type (0, 1), BuildingBlock: OJICUG_clean_linker_0, # of connection points: 2
#     Edge 70, Type (0, 1), BuildingBlock: OJICUG_clean_linker_0, # of connection points: 2
#     Edge 71, Type (0, 1), BuildingBlock: OJICUG_clean_linker_0, # of connection points: 2
#     Edge 72, Type (0, 1), BuildingBlock: OJICUG_clean_linker_0, # of connection points: 2
#     Edge 73, Type (0, 1), BuildingBlock: OJICUG_clean_linker_0, # of connection points: 2
#     Edge 74, Type (0, 1), BuildingBlock: OJICUG_clean_linker_0, # of connection points: 2
#     Edge 75, Type (0, 1), BuildingBlock: OJICUG_clean_linker_0, # of connection points: 2
#     Edge 76, Type (0, 1), BuildingBlock: OJICUG_clean_linker_0, # of connection points: 2
#     Edge 77, Type (0, 1), BuildingBlock: OJICUG_clean_linker_0, # of connection points: 2
#     Edge 78, Type (0, 1), BuildingBlock: OJICUG_clean_linker_0, # of connection points: 2
#     Edge 79, Type (0, 1), BuildingBlock: OJICUG_clean_linker_0, # of connection points: 2
#     Edge 80, Type (0, 1), BuildingBlock: OJICUG_clean_linker_0, # of connection points: 2
# Relax obj value: 0.018
# Max RMSD: 0.126
# Mean RMSD: 0.060
data_MOF--net-eea--node1-CUKXOW_clean_sbu_0--node2-VETTIZ_charged_linker_0--edge1-OJICUG_clean_linker_0
_symmetry_space_group_name_H-M    P1
_symmetry_Int_Tables_number       1
_symmetry_cell_setting            triclinic
loop_
_symmetry_equiv_pos_as_xyz
'x, y, z'
_cell_length_a     52.74457
_cell_length_b     49.497643
_cell_length_c     56.409376
_cell_angle_alpha  93.020506
_cell_angle_beta   93.020197
_cell_angle_gamma 120.03112
loop_
_atom_site_label
_atom_site_type_symbol
_atom_site_fract_x
_atom_site_fract_y
_atom_site_fract_z
_atom_type_partial_charge
C0 C 0.22695 0.19792 0.38991 0.0
C1 C 0.22751 0.22384 0.40176 0.0
C2 C 0.23765 0.23187 0.42613 0.0
C3 C 0.24618 0.18802 0.42652 0.0
C4 C 0.23591 0.18017 0.40264 0.0
C5 C 0.23372 0.1501 0.3932 0.0
H6 H 0.23689 0.01923 0.41486 0.0
C7 C 0.25269 0.16395 0.43457 0.0
C8 C 0.24508 0.14154 0.41511 0.0
H9 H 0.20915 0.04135 0.34893 0.0
H10 H 0.22439 0.09346 0.36656 0.0
H11 H 0.2963 0.08239 0.42339 0.0
H12 H 0.21366 0.05282 0.45228 0.0
H13 H 0.24248 0.06965 0.47553 0.0
H14 H 0.2366 0.03598 0.45718 0.0
H15 H 0.28818 0.06353 0.45046 0.0
H16 H 0.30525 0.1056 0.45057 0.0
C17 C 0.25438 0.15729 0.37298 0.0
C18 C 0.20083 0.12612 0.38546 0.0
C19 C 0.29606 0.17269 0.51965 0.0
C20 C 0.30605 0.15468 0.53106 0.0
C21 C 0.30385 0.12826 0.51835 0.0
C22 C 0.2914 0.11942 0.49472 0.0
C23 C 0.28125 0.13736 0.48352 0.0
C24 C 0.28422 0.1639 0.49574 0.0
C25 C 0.27376 0.18099 0.48025 0.0
C26 C 0.26428 0.16039 0.4568 0.0
C27 C 0.26809 0.13449 0.45911 0.0
C28 C 0.30017 0.21408 0.47806 0.0
C29 C 0.24746 0.18094 0.49127 0.0
C30 C 0.23417 0.03546 0.40435 0.0
C31 C 0.22139 0.02633 0.38073 0.0
C32 C 0.21881 0.04805 0.36722 0.0
C33 C 0.22752 0.07814 0.37755 0.0
C34 C 0.23904 0.08655 0.40158 0.0
C35 C 0.24311 0.06574 0.41433 0.0
C36 C 0.25735 0.07949 0.43916 0.0
C37 C 0.25906 0.1111 0.43976 0.0
C38 C 0.24808 0.11492 0.41778 0.0
C39 C 0.28829 0.08284 0.44118 0.0
C40 C 0.23661 0.05843 0.45713 0.0
H41 H 0.25463 0.2214 0.45708 0.0
H42 H 0.21855 0.19083 0.37134 0.0
H43 H 0.18613 0.13047 0.39649 0.0
H44 H 0.19475 0.10172 0.38801 0.0
H45 H 0.19498 0.12757 0.36655 0.0
H46 H 0.27496 0.18028 0.37728 0.0
H47 H 0.24367 0.15835 0.35584 0.0
H48 H 0.26176 0.1401 0.3704 0.0
H49 H 0.29774 0.19325 0.52906 0.0
H50 H 0.3113 0.11406 0.52692 0.0
H51 H 0.28992 0.0988 0.48613 0.0
H52 H 0.3204 0.21293 0.47553 0.0
H53 H 0.30462 0.22986 0.49442 0.0
H54 H 0.29708 0.22506 0.46251 0.0
H55 H 0.23381 0.15867 0.49942 0.0
H56 H 0.23218 0.18229 0.47789 0.0
H57 H 0.25514 0.20051 0.50545 0.0
H58 H 0.23807 0.25175 0.43557 0.0
C59 C 0.24722 0.21424 0.43854 0.0
C60 C 0.95328 0.18723 0.40218 0.0
C61 C 0.97817 0.21352 0.41396 0.0
C62 C 0.97706 0.22258 0.4379 0.0
C63 C 0.9273 0.1783 0.4379 0.0
C64 C 0.92855 0.17001 0.41437 0.0
C65 C 0.90157 0.14038 0.40429 0.0
H66 H 0.77413 0.01155 0.42082 0.0
C67 C 0.89836 0.15438 0.44524 0.0
C68 C 0.88349 0.13217 0.42545 0.0
H69 H 0.8193 0.03456 0.35682 0.0
H70 H 0.85553 0.0855 0.37593 0.0
H71 H 0.83096 0.04122 0.4596 0.0
H72 H 0.77668 0.07469 0.42967 0.0
H73 H 0.79178 0.09738 0.45713 0.0
H74 H 0.76838 0.05535 0.4565 0.0
H75 H 0.79289 0.02629 0.46407 0.0
H76 H 0.82153 0.05875 0.48294 0.0
C77 C 0.91082 0.1159 0.39755 0.0
C78 C 0.88685 0.14812 0.38325 0.0
C79 C 0.86748 0.15963 0.52947 0.0
C80 C 0.84113 0.14034 0.53988 0.0
C81 C 0.81781 0.11486 0.52557 0.0
C82 C 0.82084 0.1077 0.50205 0.0
C83 C 0.84734 0.12632 0.49219 0.0
C84 C 0.86998 0.15228 0.50549 0.0
C85 C 0.89578 0.17015 0.49096 0.0
C86 C 0.88464 0.1504 0.46697 0.0
C87 C 0.85641 0.12445 0.4682 0.0
C88 C 0.92276 0.16994 0.50282 0.0
C89 C 0.90044 0.20333 0.48914 0.0
C90 C 0.79195 0.0277 0.41106 0.0
C91 C 0.79441 0.01914 0.38755 0.0
C92 C 0.81723 0.04081 0.37502 0.0
C93 C 0.83825 0.07025 0.38621 0.0
C94 C 0.83627 0.07808 0.41013 0.0
C95 C 0.8129 0.05733 0.42189 0.0
C96 C 0.81339 0.07036 0.4467 0.0
C97 C 0.84204 0.10161 0.44844 0.0
C98 C 0.85535 0.10577 0.42708 0.0
C99 C 0.81461 0.04806 0.4644 0.0
C100 C 0.78616 0.07456 0.44774 0.0
H101 H 0.9523 0.21283 0.46819 0.0
H102 H 0.95299 0.17984 0.3837 0.0
H103 H 0.89004 0.17204 0.38652 0.0
H104 H 0.86273 0.13241 0.38077 0.0
H105 H 0.89636 0.14725 0.36632 0.0
H106 H 0.92951 0.11923 0.40992 0.0
H107 H 0.91792 0.11798 0.37922 0.0
H108 H 0.89338 0.09152 0.39902 0.0
H109 H 0.88579 0.17963 0.53974 0.0
H110 H 0.79683 0.1003 0.53247 0.0
H111 H 0.80232 0.08773 0.4925 0.0
H112 H 0.91633 0.14631 0.50847 0.0
H113 H 0.93247 0.18699 0.5189 0.0
H114 H 0.94001 0.17522 0.49063 0.0
H115 H 0.87897 0.20219 0.48544 0.0
H116 H 0.91357 0.21511 0.47443 0.0
H117 H 0.9113 0.21833 0.50609 0.0
H118 H 0.99598 0.24271 0.4475 0.0
C119 C 0.95175 0.2051 0.44993 0.0
C120 C 0.95852 0.76485 0.40833 0.0
C121 C 0.97985 0.75715 0.41566 0.0
C122 C 0.97547 0.74005 0.43587 0.0
C123 C 0.92912 0.7383 0.44038 0.0
C124 C 0.93344 0.75493 0.42061 0.0
C125 C 0.90825 0.75988 0.41395 0.0
H126 H 0.77598 0.74153 0.43511 0.0
C127 C 0.90027 0.731 0.44855 0.0
C128 C 0.88789 0.74331 0.43287 0.0
H129 H 0.82934 0.78619 0.37797 0.0
H130 H 0.8659 0.77436 0.39298 0.0
H131 H 0.7821 0.68343 0.43143 0.0
H132 H 0.83201 0.76819 0.478 0.0
H133 H 0.82083 0.73567 0.49485 0.0
H134 H 0.79347 0.74098 0.47893 0.0
H135 H 0.76916 0.68888 0.45903 0.0
H136 H 0.79286 0.67234 0.45741 0.0
C137 C 0.89466 0.74352 0.38855 0.0
C138 C 0.91995 0.79564 0.41651 0.0
C139 C 0.86563 0.67743 0.52478 0.0
C140 C 0.83936 0.66708 0.53578 0.0
C141 C 0.81628 0.66951 0.52442 0.0
C142 C 0.81969 0.68334 0.50293 0.0
C143 C 0.8464 0.69471 0.49254 0.0
C144 C 0.86849 0.69072 0.50297 0.0
C145 C 0.89443 0.70223 0.48823 0.0
C146 C 0.8848 0.71521 0.468 0.0
C147 C 0.85681 0.71113 0.47092 0.0
C148 C 0.89719 0.67375 0.47929 0.0
C149 C 0.92199 0.72824 0.50351 0.0
C150 C 0.79573 0.74894 0.42605 0.0
C151 C 0.79993 0.76484 0.40539 0.0
C152 C 0.82561 0.77371 0.39382 0.0
C153 C 0.84684 0.76686 0.40261 0.0
C154 C 0.84233 0.75072 0.42315 0.0
C155 C 0.81707 0.74189 0.43447 0.0
C156 C 0.81569 0.72394 0.45558 0.0
C157 C 0.84446 0.72381 0.45513 0.0
C158 C 0.85996 0.73975 0.43621 0.0
C159 C 0.78851 0.69046 0.45085 0.0
C160 C 0.81532 0.74293 0.47813 0.0
H161 H 0.94831 0.71787 0.46349 0.0
H162 H 0.96113 0.77844 0.39329 0.0
H163 H 0.93643 0.80727 0.43224 0.0
H164 H 0.9027 0.80148 0.41967 0.0
H165 H 0.93081 0.80669 0.40052 0.0
H166 H 0.89773 0.7231 0.38477 0.0
H167 H 0.90501 0.75985 0.37467 0.0
H168 H 0.87057 0.73352 0.38618 0.0
H169 H 0.88358 0.67555 0.53313 0.0
H170 H 0.79599 0.66187 0.53273 0.0
H171 H 0.80156 0.68519 0.49547 0.0
H172 H 0.87534 0.65187 0.47688 0.0
H173 H 0.9115 0.66989 0.49216 0.0
H174 H 0.90567 0.67613 0.46155 0.0
H175 H 0.9169 0.7451 0.51281 0.0
H176 H 0.94037 0.74224 0.49282 0.0
H177 H 0.92978 0.71814 0.51727 0.0
H178 H 0.99118 0.73333 0.4419 0.0
C179 C 0.95035 0.73075 0.44829 0.0
C180 C 0.18471 0.23743 0.60529 0.0
C181 C 0.21105 0.24194 0.59689 0.0
C182 C 0.21988 0.25672 0.57564 0.0
C183 C 0.17621 0.26141 0.57163 0.0
C184 C 0.16761 0.24681 0.59231 0.0
C185 C 0.1382 0.24153 0.59826 0.0
H186 H 0.01978 0.25688 0.57409 0.0
C187 C 0.15295 0.2676 0.56242 0.0
C188 C 0.13056 0.25568 0.57784 0.0
H189 H 0.03761 0.21188 0.6312 0.0
H190 H 0.08334 0.224 0.61647 0.0
H191 H 0.08718 0.31658 0.5744 0.0
H192 H 0.04196 0.22664 0.53309 0.0
H193 H 0.06342 0.25509 0.51423 0.0
H194 H 0.03393 0.25706 0.52751 0.0
H195 H 0.05679 0.30555 0.55258 0.0
H196 H 0.09378 0.32197 0.54422 0.0
C197 C 0.14263 0.26017 0.62259 0.0
C198 C 0.11679 0.20561 0.5976 0.0
C199 C 0.16463 0.32294 0.48703 0.0
C200 C 0.14575 0.32936 0.47315 0.0
C201 C 0.11844 0.32232 0.48113 0.0
C202 C 0.10988 0.30872 0.50267 0.0
C203 C 0.12861 0.30152 0.51609 0.0
C204 C 0.15554 0.30876 0.50822 0.0
C205 C 0.17168 0.29738 0.52374 0.0
C206 C 0.15027 0.28254 0.5424 0.0
C207 C 0.12505 0.28508 0.53794 0.0
C208 C 0.20089 0.32622 0.53459 0.0
C209 C 0.17553 0.27284 0.50853 0.0
C210 C 0.03354 0.24953 0.58328 0.0
C211 C 0.02522 0.23397 0.60423 0.0
C212 C 0.04374 0.22469 0.61551 0.0
C213 C 0.07034 0.23152 0.60677 0.0
C214 C 0.07871 0.24759 0.58627 0.0
C215 C 0.06041 0.25609 0.57464 0.0
C216 C 0.07311 0.27237 0.55268 0.0
C217 C 0.10216 0.27258 0.55348 0.0
C218 C 0.10508 0.258 0.57325 0.0
C219 C 0.07789 0.30587 0.5559 0.0
C220 C 0.05207 0.25203 0.53062 0.0
H221 H 0.21057 0.27759 0.54703 0.0
H222 H 0.17727 0.22668 0.62167 0.0
H223 H 0.12362 0.19223 0.58566 0.0
H224 H 0.09424 0.19841 0.59017 0.0
H225 H 0.11589 0.19728 0.6156 0.0
H226 H 0.16371 0.28294 0.62424 0.0
H227 H 0.14331 0.24687 0.63764 0.0
H228 H 0.12557 0.26654 0.62495 0.0
H229 H 0.18531 0.3272 0.48081 0.0
H230 H 0.10341 0.3266 0.47034 0.0
H231 H 0.0887 0.30358 0.50771 0.0
H232 H 0.19723 0.34563 0.54075 0.0
H233 H 0.21726 0.33502 0.52118 0.0
H234 H 0.21067 0.32144 0.55043 0.0
H235 H 0.15717 0.26002 0.49425 0.0
H236 H 0.17493 0.2543 0.519 0.0
H237 H 0.19636 0.28416 0.4998 0.0
H238 H 0.23978 0.26013 0.5684 0.0
C239 C 0.20272 0.26662 0.56308 0.0
C240 C 0.78713 0.81238 0.61343 0.0
C241 C 0.7798 0.78263 0.60328 0.0
C242 C 0.76459 0.77208 0.58034 0.0
C243 C 0.76466 0.82103 0.57809 0.0
C244 C 0.77914 0.83089 0.60075 0.0
C245 C 0.7845 0.86254 0.60968 0.0
H246 H 0.76763 0.98704 0.59418 0.0
C247 C 0.75917 0.8459 0.57017 0.0
C248 C 0.77043 0.86998 0.58887 0.0
H249 H 0.81446 0.97364 0.65324 0.0
H250 H 0.80225 0.92305 0.63449 0.0
H251 H 0.79486 0.96196 0.55424 0.0
H252 H 0.71308 0.91928 0.58632 0.0
H253 H 0.70456 0.9023 0.55678 0.0
H254 H 0.71934 0.94401 0.56257 0.0
H255 H 0.76686 0.97196 0.54873 0.0
H256 H 0.76676 0.94041 0.53129 0.0
C257 C 0.81822 0.88537 0.61351 0.0
C258 C 0.76808 0.85885 0.63237 0.0
C259 C 0.71475 0.83948 0.48566 0.0
C260 C 0.70638 0.85911 0.47448 0.0
C261 C 0.70771 0.88438 0.48849 0.0
C262 C 0.71887 0.89134 0.51238 0.0
C263 C 0.72865 0.87277 0.52286 0.0
C264 C 0.72556 0.84663 0.50993 0.0
C265 C 0.73462 0.82813 0.52522 0.0
C266 C 0.74563 0.84892 0.54871 0.0
C267 C 0.74224 0.87517 0.54697 0.0
C268 C 0.75953 0.82569 0.51389 0.0
C269 C 0.70698 0.79602 0.52773 0.0
C270 C 0.77492 0.97293 0.6031 0.0
C271 C 0.79173 0.98396 0.62526 0.0
C272 C 0.80146 0.96545 0.63616 0.0
C273 C 0.79432 0.93612 0.62522 0.0
C274 C 0.77759 0.92537 0.60297 0.0
C275 C 0.76846 0.94386 0.59218 0.0
C276 C 0.75259 0.92961 0.56789 0.0
C277 C 0.75325 0.89922 0.56605 0.0
C278 C 0.76765 0.8968 0.58671 0.0
C279 C 0.77091 0.95204 0.54943 0.0
C280 C 0.72078 0.92361 0.56817 0.0
H281 H 0.74597 0.78223 0.55009 0.0
H282 H 0.7985 0.82093 0.63114 0.0
H283 H 0.74636 0.8368 0.63033 0.0
H284 H 0.76302 0.87766 0.63609 0.0
H285 H 0.7809 0.85791 0.64826 0.0
H286 H 0.83012 0.87819 0.60128 0.0
H287 H 0.82693 0.88608 0.63203 0.0
H288 H 0.82462 0.90945 0.60939 0.0
H289 H 0.71342 0.81942 0.47576 0.0
H290 H 0.70004 0.899 0.48103 0.0
H291 H 0.71957 0.91114 0.52175 0.0
H292 H 0.77668 0.84907 0.50919 0.0
H293 H 0.75089 0.8095 0.49733 0.0
H294 H 0.77083 0.8175 0.52603 0.0
H295 H 0.6868 0.79789 0.52714 0.0
H296 H 0.70778 0.78692 0.54505 0.0
H297 H 0.70375 0.77838 0.51308 0.0
H298 H 0.75886 0.74921 0.57215 0.0
C299 C 0.75716 0.79123 0.5676 0.0
C300 C 0.043 0.81138 0.61083 0.0
C301 C 0.01868 0.78412 0.59945 0.0
C302 C 0.0207 0.77357 0.57622 0.0
C303 C 0.07056 0.81757 0.57634 0.0
C304 C 0.06831 0.82763 0.59905 0.0
C305 C 0.09525 0.85751 0.60886 0.0
H306 H 0.2307 0.97692 0.59573 0.0
C307 C 0.10031 0.84006 0.56957 0.0
C308 C 0.11469 0.86333 0.58872 0.0
H309 H 0.17632 0.96567 0.65333 0.0
H310 H 0.13918 0.91496 0.63497 0.0
H311 H 0.21979 0.90849 0.59063 0.0
H312 H 0.17731 0.95073 0.55342 0.0
H313 H 0.18594 0.92962 0.53241 0.0
H314 H 0.21501 0.96123 0.55161 0.0
H315 H 0.23452 0.92953 0.56519 0.0
H316 H 0.20781 0.88807 0.56215 0.0
C317 C 0.10812 0.85108 0.63181 0.0
C318 C 0.0866 0.88312 0.61252 0.0
C319 C 0.13325 0.82838 0.48784 0.0
C320 C 0.1605 0.84496 0.47818 0.0
C321 C 0.18482 0.869 0.49252 0.0
C322 C 0.18193 0.87743 0.51584 0.0
C323 C 0.15444 0.86156 0.52506 0.0
C324 C 0.13087 0.83672 0.51151 0.0
C325 C 0.10417 0.82099 0.52538 0.0
C326 C 0.11529 0.84155 0.54892 0.0
C327 C 0.14464 0.86562 0.54831 0.0
C328 C 0.09733 0.78719 0.52845 0.0
C329 C 0.0787 0.82278 0.51216 0.0
C330 C 0.21087 0.96323 0.60443 0.0
C331 C 0.20625 0.97513 0.62593 0.0
C332 C 0.18014 0.95696 0.63666 0.0
C333 C 0.15859 0.92757 0.62591 0.0
C334 C 0.16296 0.91637 0.60398 0.0
C335 C 0.18884 0.93399 0.59367 0.0
C336 C 0.18912 0.91873 0.56995 0.0
C337 C 0.15883 0.88936 0.56755 0.0
C338 C 0.14382 0.88818 0.58757 0.0
C339 C 0.21416 0.9109 0.57187 0.0
C340 C 0.19215 0.94113 0.55071 0.0
H341 H 0.04664 0.78127 0.54688 0.0
H342 H 0.04254 0.82002 0.62875 0.0
H343 H 0.06677 0.87765 0.60067 0.0
H344 H 0.10376 0.9063 0.60782 0.0
H345 H 0.08164 0.88539 0.63117 0.0
H346 H 0.10631 0.82768 0.62963 0.0
H347 H 0.09613 0.85137 0.64733 0.0
H348 H 0.13181 0.86787 0.63618 0.0
H349 H 0.11435 0.80947 0.47721 0.0
H350 H 0.20593 0.882 0.48535 0.0
H351 H 0.20115 0.89634 0.52568 0.0
H352 H 0.118 0.78647 0.53148 0.0
H353 H 0.0846 0.77124 0.51229 0.0
H354 H 0.08524 0.77761 0.54415 0.0
H355 H 0.08669 0.8466 0.50625 0.0
H356 H 0.06088 0.81849 0.52351 0.0
H357 H 0.06921 0.8057 0.49609 0.0
H358 H 0.00218 0.75278 0.56689 0.0
C359 C 0.04649 0.79018 0.5646 0.0
C360 C 0.88512 0.52727 0.73062 0.0
C361 C 0.88803 0.55448 0.74232 0.0
C362 C 0.89831 0.56213 0.76669 0.0
C363 C 0.90313 0.51583 0.76713 0.0
C364 C 0.89238 0.5082 0.74334 0.0
C365 C 0.88823 0.47724 0.73383 0.0
H366 H 0.90263 0.35128 0.75011 0.0
C367 C 0.90866 0.49093 0.77491 0.0
C368 C 0.89984 0.4683 0.75536 0.0
H369 H 0.85927 0.3664 0.68952 0.0
H370 H 0.87164 0.41719 0.70822 0.0
H371 H 0.95734 0.41853 0.75916 0.0
H372 H 0.87412 0.37534 0.78883 0.0
H373 H 0.9014 0.39608 0.81253 0.0
H374 H 0.90191 0.36514 0.79476 0.0
H375 H 0.95068 0.39475 0.78357 0.0
H376 H 0.96486 0.43646 0.78834 0.0
C377 C 0.9075 0.4828 0.7128 0.0
C378 C 0.85484 0.45433 0.72718 0.0
C379 C 0.95165 0.49588 0.85978 0.0
C380 C 0.96053 0.47648 0.87064 0.0
C381 C 0.9597 0.45167 0.85642 0.0
C382 C 0.94877 0.44505 0.83249 0.0
C383 C 0.93864 0.46347 0.82224 0.0
C384 C 0.94098 0.48904 0.83548 0.0
C385 C 0.9309 0.50704 0.8206 0.0
C386 C 0.92112 0.48719 0.79669 0.0
C387 C 0.92539 0.46147 0.79808 0.0
C388 C 0.95766 0.54005 0.81897 0.0
C389 C 0.90491 0.50721 0.83192 0.0
C390 C 0.89607 0.36577 0.74087 0.0
C391 C 0.8802 0.35522 0.71835 0.0
C392 C 0.8715 0.37425 0.70693 0.0
C393 C 0.87864 0.40361 0.71786 0.0
C394 C 0.89412 0.41371 0.74064 0.0
C395 C 0.9024 0.39476 0.75179 0.0
C396 C 0.91706 0.4083 0.77648 0.0
C397 C 0.91599 0.43843 0.77845 0.0
C398 C 0.90293 0.44164 0.75733 0.0
C399 C 0.94909 0.41472 0.77714 0.0
C400 C 0.89792 0.38511 0.79423 0.0
H401 H 0.91377 0.55 0.79765 0.0
H402 H 0.87643 0.52042 0.71209 0.0
H403 H 0.84111 0.46167 0.73685 0.0
H404 H 0.84763 0.43043 0.73233 0.0
H405 H 0.84888 0.45301 0.7078 0.0
H406 H 0.92977 0.50363 0.7174 0.0
H407 H 0.89754 0.48707 0.69663 0.0
H408 H 0.9111 0.4631 0.70823 0.0
H409 H 0.9524 0.51545 0.86998 0.0
H410 H 0.96755 0.43715 0.8638 0.0
H411 H 0.94845 0.42557 0.82296 0.0
H412 H 0.97779 0.53867 0.81653 0.0
H413 H 0.962 0.55548 0.83551 0.0
H414 H 0.95506 0.55152 0.80355 0.0
H415 H 0.8898 0.48388 0.83804 0.0
H416 H 0.89119 0.51184 0.81923 0.0
H417 H 0.91285 0.52485 0.84761 0.0
H418 H 0.90037 0.58291 0.77605 0.0
C419 C 0.9061 0.54306 0.77913 0.0
C420 C 0.62212 0.51981 0.73595 0.0
C421 C 0.64625 0.54691 0.74763 0.0
C422 C 0.64417 0.55652 0.77116 0.0
C423 C 0.59471 0.51153 0.77077 0.0
C424 C 0.59704 0.5026 0.74772 0.0
C425 C 0.57056 0.47266 0.7375 0.0
H426 H 0.43664 0.34972 0.74859 0.0
C427 C 0.56523 0.48793 0.77746 0.0
C428 C 0.55124 0.4653 0.75781 0.0
H429 H 0.4912 0.36575 0.69043 0.0
H430 H 0.52774 0.41587 0.7101 0.0
H431 H 0.49004 0.37445 0.79045 0.0
H432 H 0.44563 0.4166 0.7563 0.0
H433 H 0.45785 0.43638 0.78499 0.0
H434 H 0.43185 0.39473 0.78153 0.0
H435 H 0.45231 0.36324 0.7931 0.0
H436 H 0.48152 0.3942 0.81268 0.0
C437 C 0.58012 0.44795 0.73273 0.0
C438 C 0.55707 0.47955 0.71514 0.0
C439 C 0.5308 0.49399 0.86002 0.0
C440 C 0.50364 0.47547 0.86961 0.0
C441 C 0.48004 0.45146 0.85445 0.0
C442 C 0.48363 0.44465 0.83099 0.0
C443 C 0.51103 0.4621 0.8221 0.0
C444 C 0.53389 0.48703 0.83612 0.0
C445 C 0.56056 0.50442 0.82238 0.0
C446 C 0.55013 0.4848 0.79834 0.0
C447 C 0.52116 0.45976 0.79864 0.0
C448 C 0.58671 0.5035 0.83517 0.0
C449 C 0.56611 0.53792 0.82027 0.0
C450 C 0.45638 0.36432 0.74007 0.0
C451 C 0.46121 0.35395 0.71799 0.0
C452 C 0.48723 0.37326 0.70752 0.0
C453 C 0.50842 0.40232 0.71905 0.0
C454 C 0.5038 0.41202 0.7415 0.0
C455 C 0.47807 0.39323 0.75159 0.0
C456 C 0.47746 0.40694 0.77587 0.0
C457 C 0.5074 0.43681 0.77884 0.0
C458 C 0.52249 0.43961 0.75862 0.0
C459 C 0.47505 0.38359 0.79412 0.0
C460 C 0.45183 0.41391 0.77482 0.0
H461 H 0.61832 0.54705 0.80078 0.0
H462 H 0.6226 0.51192 0.71778 0.0
H463 H 0.55846 0.50268 0.71803 0.0
H464 H 0.53342 0.46251 0.71085 0.0
H465 H 0.56894 0.48012 0.69931 0.0
H466 H 0.60012 0.45347 0.74439 0.0
H467 H 0.58522 0.44685 0.71397 0.0
H468 H 0.56341 0.42423 0.73686 0.0
H469 H 0.54931 0.51302 0.87088 0.0
H470 H 0.45848 0.43773 0.86068 0.0
H471 H 0.46482 0.42581 0.82071 0.0
H472 H 0.5797 0.47947 0.84017 0.0
H473 H 0.59539 0.51971 0.85173 0.0
H474 H 0.60489 0.5096 0.82382 0.0
H475 H 0.54498 0.53747 0.81649 0.0
H476 H 0.57928 0.54916 0.80544 0.0
H477 H 0.57725 0.55303 0.83712 0.0
H478 H 0.66253 0.57727 0.78068 0.0
C479 C 0.61853 0.53892 0.78281 0.0
C480 C 0.63211 0.10685 0.74705 0.0
C481 C 0.65388 0.10067 0.75594 0.0
C482 C 0.64938 0.08469 0.77674 0.0
C483 C 0.60123 0.07969 0.77814 0.0
C484 C 0.60609 0.0959 0.75809 0.0
C485 C 0.58035 0.09895 0.74953 0.0
H486 H 0.44135 0.06674 0.75871 0.0
C487 C 0.57104 0.07016 0.78425 0.0
C488 C 0.55874 0.08113 0.76731 0.0
H489 H 0.50278 0.12335 0.70942 0.0
H490 H 0.53902 0.11301 0.72682 0.0
H491 H 0.45563 0.01218 0.75758 0.0
H492 H 0.49123 0.09624 0.80533 0.0
H493 H 0.48211 0.06424 0.82227 0.0
H494 H 0.45365 0.06505 0.80389 0.0
H495 H 0.43574 0.0155 0.78133 0.0
H496 H 0.46192 0.00244 0.78591 0.0
C497 C 0.56942 0.08248 0.72386 0.0
C498 C 0.59008 0.1343 0.75179 0.0
C499 C 0.53198 0.01472 0.85881 0.0
C500 C 0.50446 0.00231 0.86809 0.0
C501 C 0.48097 0.0018 0.85463 0.0
C502 C 0.48518 0.01503 0.8328 0.0
C503 C 0.51316 0.0288 0.82427 0.0
C504 C 0.53573 0.02744 0.83674 0.0
C505 C 0.56332 0.04126 0.82394 0.0
C506 C 0.55412 0.05296 0.80261 0.0
C507 C 0.52479 0.0459 0.8031 0.0
C508 C 0.56941 0.01464 0.81641 0.0
C509 C 0.58853 0.06851 0.84041 0.0
C510 C 0.46266 0.07702 0.75173 0.0
C511 C 0.46889 0.0956 0.73235 0.0
C512 C 0.49693 0.10831 0.72385 0.0
C513 C 0.51821 0.10255 0.7342 0.0
C514 C 0.51171 0.08407 0.75349 0.0
C515 C 0.48442 0.07178 0.76209 0.0
C516 C 0.48207 0.05369 0.78335 0.0
C517 C 0.51244 0.05709 0.78591 0.0
C518 C 0.52951 0.07482 0.76829 0.0
C519 C 0.45747 0.01916 0.77695 0.0
C520 C 0.47682 0.07037 0.80493 0.0
H521 H 0.62091 0.06204 0.80355 0.0
H522 H 0.63499 0.11972 0.7315 0.0
H523 H 0.60786 0.14749 0.76646 0.0
H524 H 0.57223 0.13859 0.75653 0.0
H525 H 0.59858 0.14516 0.7351 0.0
H526 H 0.57159 0.06126 0.72188 0.0
H527 H 0.5824 0.09831 0.71047 0.0
H528 H 0.54585 0.07375 0.71911 0.0
H529 H 0.55027 0.01504 0.86877 0.0
H530 H 0.45967 0.99246 0.86157 0.0
H531 H 0.46665 0.01465 0.82364 0.0
H532 H 0.5486 0.9917 0.81293 0.0
H533 H 0.58336 0.01212 0.83055 0.0
H534 H 0.57987 0.0181 0.7995 0.0
H535 H 0.58088 0.08377 0.84866 0.0
H536 H 0.60753 0.08393 0.83079 0.0
H537 H 0.59632 0.05949 0.85502 0.0
H538 H 0.66573 0.07952 0.78402 0.0
C539 C 0.62321 0.07425 0.78791 0.0
C540 C 0.84567 0.56245 0.9315 0.0
C541 C 0.8744 0.57254 0.92554 0.0
C542 C 0.8852 0.5924 0.90702 0.0
C543 C 0.83908 0.59199 0.90121 0.0
C544 C 0.82866 0.57258 0.91935 0.0
C545 C 0.79821 0.56478 0.92438 0.0
H546 H 0.68198 0.58521 0.90519 0.0
C547 C 0.81571 0.59827 0.89251 0.0
C548 C 0.79185 0.5825 0.90612 0.0
H549 H 0.69564 0.52995 0.95586 0.0
H550 H 0.7414 0.54271 0.9407 0.0
H551 H 0.75002 0.6442 0.90793 0.0
H552 H 0.70284 0.55863 0.86151 0.0
H553 H 0.72762 0.58759 0.84456 0.0
H554 H 0.69871 0.59183 0.85683 0.0
H555 H 0.71898 0.63499 0.88736 0.0
H556 H 0.75548 0.65251 0.8779 0.0
C557 C 0.79982 0.57809 0.95032 0.0
C558 C 0.77761 0.5288 0.91937 0.0
C559 C 0.82963 0.66111 0.82126 0.0
C560 C 0.8104 0.66693 0.80728 0.0
C561 C 0.78254 0.65843 0.81484 0.0
C562 C 0.77365 0.64356 0.83585 0.0
C563 C 0.79258 0.63647 0.84909 0.0
C564 C 0.82016 0.64548 0.84181 0.0
C565 C 0.83642 0.6338 0.85685 0.0
C566 C 0.81394 0.61591 0.87411 0.0
C567 C 0.78838 0.6178 0.8697 0.0
C568 C 0.86432 0.66259 0.86965 0.0
C569 C 0.84259 0.61188 0.84059 0.0
C570 C 0.69483 0.57579 0.9129 0.0
C571 C 0.68546 0.55727 0.93231 0.0
C572 C 0.7027 0.54514 0.94153 0.0
C573 C 0.72931 0.55244 0.93257 0.0
C574 C 0.73902 0.57197 0.91397 0.0
C575 C 0.72168 0.58279 0.90401 0.0
C576 C 0.73535 0.60201 0.88348 0.0
C577 C 0.76438 0.60225 0.88384 0.0
C578 C 0.76619 0.58457 0.90179 0.0
C579 C 0.74016 0.63522 0.88927 0.0
C580 C 0.71515 0.58441 0.86033 0.0
H581 H 0.8772 0.61736 0.88099 0.0
H582 H 0.83641 0.54682 0.94535 0.0
H583 H 0.78504 0.51911 0.90481 0.0
H584 H 0.75486 0.52211 0.91301 0.0
H585 H 0.77718 0.51657 0.93543 0.0
H586 H 0.82119 0.60006 0.95529 0.0
H587 H 0.79769 0.5611 0.96328 0.0
H588 H 0.78311 0.58492 0.95294 0.0
H589 H 0.85076 0.66654 0.81536 0.0
H590 H 0.76728 0.66229 0.80398 0.0
H591 H 0.75204 0.63721 0.84055 0.0
H592 H 0.85995 0.68182 0.8747 0.0
H593 H 0.88261 0.6719 0.85793 0.0
H594 H 0.87182 0.65749 0.88659 0.0
H595 H 0.82386 0.59777 0.82683 0.0
H596 H 0.84506 0.59444 0.85031 0.0
H597 H 0.86259 0.62554 0.83119 0.0
H598 H 0.90738 0.60085 0.9022 0.0
C599 C 0.86771 0.60217 0.89483 0.0
C600 C 0.44753 0.14274 0.95154 0.0
C601 C 0.4453 0.11544 0.94072 0.0
C602 C 0.4339 0.10582 0.91668 0.0
C603 C 0.4266 0.1504 0.9148 0.0
C604 C 0.43847 0.15998 0.93825 0.0
C605 C 0.44161 0.19082 0.9467 0.0
H606 H 0.42329 0.31316 0.92564 0.0
C607 C 0.41923 0.17369 0.90628 0.0
C608 C 0.42813 0.1974 0.92497 0.0
H609 H 0.46921 0.30241 0.98679 0.0
H610 H 0.45639 0.25077 0.97016 0.0
H611 H 0.44928 0.28487 0.8865 0.0
H612 H 0.36839 0.24491 0.91998 0.0
H613 H 0.35959 0.22467 0.89152 0.0
H614 H 0.37324 0.26637 0.89434 0.0
H615 H 0.42188 0.29596 0.88193 0.0
H616 H 0.41978 0.26345 0.8644 0.0
C617 C 0.47493 0.21513 0.95207 0.0
C618 C 0.42327 0.18585 0.96831 0.0
C619 C 0.37101 0.15993 0.82214 0.0
C620 C 0.3596 0.17669 0.81072 0.0
C621 C 0.36006 0.20214 0.82347 0.0
C622 C 0.37262 0.21159 0.84705 0.0
C623 C 0.38474 0.19531 0.85811 0.0
C624 C 0.38301 0.16933 0.846 0.0
C625 C 0.39506 0.15364 0.86149 0.0
C626 C 0.40523 0.17519 0.8845 0.0
C627 C 0.39958 0.19988 0.88213 0.0
C628 C 0.4211 0.15403 0.84978 0.0
C629 C 0.36954 0.12042 0.86483 0.0
C630 C 0.43031 0.29942 0.93543 0.0
C631 C 0.44723 0.3116 0.95749 0.0
C632 C 0.45633 0.29341 0.96968 0.0
C633 C 0.44892 0.26351 0.95994 0.0
C634 C 0.43269 0.25189 0.93755 0.0
C635 C 0.42363 0.26973 0.92566 0.0
C636 C 0.40769 0.25408 0.9016 0.0
C637 C 0.40928 0.22421 0.90084 0.0
C638 C 0.42368 0.22302 0.92202 0.0
C639 C 0.42532 0.27561 0.88246 0.0
C640 C 0.3756 0.24725 0.90164 0.0
H641 H 0.41581 0.11462 0.88546 0.0
H642 H 0.45697 0.15103 0.9698 0.0
H643 H 0.40158 0.16386 0.96493 0.0
H644 H 0.41818 0.20467 0.97196 0.0
H645 H 0.43478 0.18398 0.98466 0.0
H646 H 0.48883 0.20789 0.94255 0.0
H647 H 0.48194 0.21824 0.97141 0.0
H648 H 0.4809 0.23824 0.94581 0.0
H649 H 0.37053 0.14001 0.81273 0.0
H650 H 0.35135 0.21527 0.81492 0.0
H651 H 0.37273 0.23148 0.85567 0.0
H652 H 0.43472 0.17675 0.84219 0.0
H653 H 0.41314 0.13507 0.83504 0.0
H654 H 0.43634 0.15177 0.86259 0.0
H655 H 0.34884 0.12074 0.86702 0.0
H656 H 0.37337 0.11094 0.88102 0.0
H657 H 0.36541 0.1038 0.8491 0.0
H658 H 0.4323 0.08489 0.90801 0.0
C659 C 0.42432 0.12305 0.90369 0.0
C660 C 0.70488 0.14812 0.93932 0.0
C661 C 0.68438 0.1173 0.93006 0.0
C662 C 0.68895 0.10615 0.90797 0.0
C663 C 0.73448 0.15549 0.90603 0.0
C664 C 0.72973 0.16624 0.9275 0.0
C665 C 0.75449 0.19803 0.9368 0.0
H666 H 0.89048 0.31964 0.92859 0.0
C667 C 0.7635 0.18002 0.89929 0.0
C668 C 0.77534 0.2046 0.91767 0.0
H669 H 0.83133 0.30851 0.98226 0.0
H670 H 0.79452 0.25857 0.96216 0.0
H671 H 0.8781 0.25031 0.92289 0.0
H672 H 0.84114 0.2976 0.88546 0.0
H673 H 0.84459 0.27331 0.86375 0.0
H674 H 0.87702 0.30362 0.88126 0.0
H675 H 0.89679 0.27626 0.90073 0.0
H676 H 0.87159 0.23492 0.89302 0.0
C677 C 0.76753 0.19508 0.9612 0.0
C678 C 0.74258 0.22105 0.93768 0.0
C679 C 0.80154 0.17244 0.81874 0.0
C680 C 0.82837 0.19229 0.80916 0.0
C681 C 0.85098 0.21764 0.82408 0.0
C682 C 0.84658 0.22455 0.84723 0.0
C683 C 0.81934 0.20585 0.85604 0.0
C684 C 0.7976 0.17961 0.84234 0.0
C685 C 0.77113 0.16121 0.8561 0.0
C686 C 0.77981 0.18242 0.8793 0.0
C687 C 0.80814 0.20854 0.8789 0.0
C688 C 0.76877 0.12942 0.86025 0.0
C689 C 0.74361 0.15803 0.84221 0.0
C690 C 0.86969 0.30614 0.93611 0.0
C691 C 0.86379 0.31761 0.95714 0.0
C692 C 0.83627 0.29995 0.96609 0.0
C693 C 0.81499 0.27099 0.95438 0.0
C694 C 0.8212 0.25969 0.93336 0.0
C695 C 0.84803 0.27741 0.92442 0.0
C696 C 0.85002 0.26278 0.90107 0.0
C697 C 0.82018 0.23287 0.89778 0.0
C698 C 0.80363 0.23111 0.91684 0.0
C699 C 0.87553 0.25583 0.90435 0.0
C700 C 0.85359 0.28537 0.88178 0.0
H701 H 0.71603 0.11546 0.87918 0.0
H702 H 0.702 0.15822 0.95572 0.0
H703 H 0.72446 0.21403 0.92341 0.0
H704 H 0.75932 0.24513 0.93437 0.0
H705 H 0.73378 0.22167 0.95503 0.0
H706 H 0.7671 0.17237 0.96119 0.0
H707 H 0.75474 0.19616 0.97588 0.0
H708 H 0.79088 0.21305 0.96556 0.0
H709 H 0.78391 0.15232 0.80805 0.0
H710 H 0.87233 0.23246 0.81783 0.0
H711 H 0.86464 0.2445 0.85731 0.0
H712 H 0.79096 0.13202 0.86301 0.0
H713 H 0.75666 0.11196 0.84468 0.0
H714 H 0.75809 0.11976 0.8765 0.0
H715 H 0.74803 0.18125 0.83698 0.0
H716 H 0.72452 0.1492 0.85286 0.0
H717 H 0.73725 0.14195 0.82571 0.0
H718 H 0.67377 0.08253 0.90023 0.0
C719 C 0.71374 0.12516 0.89585 0.0
C720 C 0.55073 0.85691 0.06061 0.0
C721 C 0.55337 0.88426 0.07174 0.0
C722 C 0.56501 0.8935 0.09576 0.0
C723 C 0.57189 0.84855 0.09692 0.0
C724 C 0.5597 0.83932 0.07352 0.0
C725 C 0.55618 0.80846 0.06464 0.0
H726 H 0.57461 0.68556 0.08284 0.0
C727 C 0.57914 0.82493 0.10495 0.0
C728 C 0.56979 0.80141 0.08601 0.0
H729 H 0.52774 0.69727 0.02286 0.0
H730 H 0.54057 0.74858 0.04035 0.0
H731 H 0.62929 0.75361 0.08878 0.0
H732 H 0.54886 0.71243 0.12277 0.0
H733 H 0.57819 0.73406 0.14492 0.0
H734 H 0.57677 0.70204 0.12715 0.0
H735 H 0.62483 0.73167 0.11407 0.0
H736 H 0.63852 0.77336 0.11745 0.0
C737 C 0.57418 0.81355 0.04279 0.0
C738 C 0.52277 0.78442 0.05947 0.0
C739 C 0.62953 0.83727 0.18813 0.0
C740 C 0.64095 0.82003 0.19888 0.0
C741 C 0.63945 0.79432 0.18559 0.0
C742 C 0.62613 0.78525 0.16224 0.0
C743 C 0.61421 0.80211 0.15187 0.0
C744 C 0.6167 0.82818 0.16445 0.0
C745 C 0.60449 0.84433 0.14959 0.0
C746 C 0.59348 0.82299 0.12641 0.0
C747 C 0.59886 0.79802 0.12817 0.0
C748 C 0.63006 0.87745 0.14617 0.0
C749 C 0.57903 0.84423 0.16207 0.0
C750 C 0.56739 0.69943 0.07348 0.0
C751 C 0.55024 0.68764 0.0515 0.0
C752 C 0.54084 0.70598 0.03989 0.0
C753 C 0.54825 0.73569 0.05013 0.0
C754 C 0.5648 0.74695 0.07242 0.0
C755 C 0.57408 0.7289 0.08373 0.0
C756 C 0.5903 0.74408 0.10778 0.0
C757 C 0.58873 0.77395 0.1092 0.0
C758 C 0.57406 0.77557 0.08837 0.0
C759 C 0.62236 0.75093 0.10721 0.0
C760 C 0.5729 0.72211 0.12679 0.0
H761 H 0.58323 0.88405 0.1266 0.0
H762 H 0.5411 0.8489 0.04237 0.0
H763 H 0.50916 0.79164 0.06946 0.0
H764 H 0.51674 0.76112 0.06535 0.0
H765 H 0.51549 0.78174 0.04022 0.0
H766 H 0.59597 0.83541 0.04612 0.0
H767 H 0.56253 0.81574 0.02667 0.0
H768 H 0.57903 0.79464 0.03874 0.0
H769 H 0.63075 0.85739 0.19789 0.0
H770 H 0.64797 0.78067 0.19354 0.0
H771 H 0.62536 0.7652 0.15327 0.0
H772 H 0.65031 0.87671 0.14279 0.0
H773 H 0.63523 0.89376 0.16234 0.0
H774 H 0.62559 0.88753 0.13063 0.0
H775 H 0.5653 0.82136 0.16942 0.0
H776 H 0.56379 0.84717 0.14978 0.0
H777 H 0.5876 0.86289 0.17708 0.0
H778 H 0.56692 0.91445 0.10467 0.0
C779 C 0.5745 0.8759 0.10838 0.0
C780 C 0.29125 0.85521 0.0716 0.0
C781 C 0.31184 0.8865 0.07975 0.0
C782 C 0.30688 0.89963 0.10067 0.0
C783 C 0.26122 0.85109 0.10395 0.0
C784 C 0.26611 0.83842 0.0835 0.0
C785 C 0.24121 0.80613 0.07541 0.0
H786 H 0.10518 0.68655 0.08752 0.0
C787 C 0.23216 0.8276 0.11118 0.0
C788 C 0.22022 0.80156 0.09414 0.0
H789 H 0.16411 0.69298 0.03486 0.0
H790 H 0.20084 0.7442 0.05283 0.0
H791 H 0.15664 0.71463 0.13172 0.0
H792 H 0.11716 0.75573 0.089 0.0
H793 H 0.12383 0.77372 0.11811 0.0
H794 H 0.09888 0.732 0.11242 0.0
H795 H 0.1195 0.70604 0.13355 0.0
H796 H 0.1499 0.73887 0.15102 0.0
C797 C 0.25292 0.78301 0.07672 0.0
C798 C 0.22841 0.807 0.05023 0.0
C799 C 0.19634 0.84355 0.19017 0.0
C800 C 0.16971 0.82569 0.20039 0.0
C801 C 0.14634 0.7994 0.18701 0.0
C802 C 0.14978 0.78992 0.16418 0.0
C803 C 0.17689 0.80698 0.15456 0.0
C804 C 0.19928 0.83403 0.16704 0.0
C805 C 0.22553 0.85046 0.15278 0.0
C806 C 0.21607 0.82729 0.13076 0.0
C807 C 0.18763 0.80174 0.13212 0.0
C808 C 0.25292 0.85391 0.16715 0.0
C809 C 0.22862 0.88207 0.14667 0.0
C810 C 0.12595 0.69926 0.0798 0.0
C811 C 0.13182 0.68604 0.05966 0.0
C812 C 0.15924 0.70281 0.05039 0.0
C813 C 0.18046 0.73256 0.06083 0.0
C814 C 0.17431 0.74562 0.08092 0.0
C815 C 0.14759 0.72886 0.09027 0.0
C816 C 0.14571 0.74569 0.11252 0.0
C817 C 0.17543 0.77574 0.11457 0.0
C818 C 0.19189 0.77554 0.09593 0.0
C819 C 0.14258 0.72538 0.1334 0.0
C820 C 0.11998 0.75203 0.10802 0.0
H821 H 0.2793 0.89323 0.12865 0.0
H822 H 0.29431 0.84371 0.05609 0.0
H823 H 0.22924 0.82972 0.04855 0.0
H824 H 0.20496 0.78912 0.04625 0.0
H825 H 0.24109 0.8042 0.03616 0.0
H826 H 0.27085 0.79106 0.09134 0.0
H827 H 0.26192 0.78083 0.05982 0.0
H828 H 0.23603 0.75946 0.08095 0.0
H829 H 0.21445 0.86414 0.20008 0.0
H830 H 0.12571 0.78545 0.19464 0.0
H831 H 0.13135 0.76928 0.1551 0.0
H832 H 0.248 0.83114 0.17373 0.0
H833 H 0.2599 0.87139 0.18284 0.0
H834 H 0.2718 0.86115 0.15641 0.0
H835 H 0.20704 0.88108 0.14588 0.0
H836 H 0.23634 0.88827 0.12883 0.0
H837 H 0.24375 0.90143 0.16024 0.0
H838 H 0.32199 0.92371 0.10744 0.0
C839 C 0.28184 0.88203 0.11288 0.0
C840 C 0.29889 0.44455 0.08199 0.0
C841 C 0.31991 0.43646 0.08925 0.0
C842 C 0.3151 0.41856 0.10898 0.0
C843 C 0.26805 0.4155 0.11251 0.0
C844 C 0.27322 0.4336 0.09354 0.0
C845 C 0.24814 0.4386 0.08666 0.0
H846 H 0.11033 0.40835 0.0998 0.0
C847 C 0.23828 0.40643 0.11941 0.0
C848 C 0.22652 0.41968 0.10411 0.0
H849 H 0.17212 0.46939 0.05259 0.0
H850 H 0.20808 0.45719 0.06785 0.0
H851 H 0.12273 0.35357 0.09398 0.0
H852 H 0.16087 0.43319 0.14642 0.0
H853 H 0.15083 0.39918 0.16107 0.0
H854 H 0.12294 0.40274 0.14422 0.0
H855 H 0.10382 0.35475 0.11918 0.0
H856 H 0.12939 0.34054 0.12068 0.0
C857 C 0.23644 0.42453 0.0605 0.0
C858 C 0.25916 0.47415 0.09108 0.0
C859 C 0.19878 0.34489 0.19129 0.0
C860 C 0.17146 0.33248 0.20091 0.0
C861 C 0.14817 0.33339 0.18836 0.0
C862 C 0.15249 0.34824 0.16728 0.0
C863 C 0.18038 0.36224 0.15862 0.0
C864 C 0.20263 0.35927 0.16996 0.0
C865 C 0.23008 0.37362 0.15698 0.0
C866 C 0.22125 0.38767 0.13709 0.0
C867 C 0.19222 0.38127 0.1384 0.0
C868 C 0.23516 0.34699 0.14728 0.0
C869 C 0.25584 0.39918 0.17413 0.0
C870 C 0.13169 0.41927 0.09289 0.0
C871 C 0.13811 0.43952 0.07464 0.0
C872 C 0.16622 0.4531 0.06617 0.0
C873 C 0.18727 0.44618 0.07523 0.0
C874 C 0.18042 0.4256 0.09314 0.0
C875 C 0.15319 0.4128 0.10192 0.0
C876 C 0.15043 0.39236 0.12163 0.0
C877 C 0.18041 0.3948 0.12294 0.0
C878 C 0.19769 0.41419 0.10612 0.0
C879 C 0.12519 0.35853 0.11369 0.0
C880 C 0.14585 0.40733 0.14461 0.0
H881 H 0.28674 0.39439 0.13544 0.0
H882 H 0.30209 0.45888 0.06732 0.0
H883 H 0.27757 0.48573 0.10544 0.0
H884 H 0.2421 0.47882 0.09742 0.0
H885 H 0.26725 0.48631 0.07477 0.0
H886 H 0.23696 0.40248 0.05698 0.0
H887 H 0.25008 0.44109 0.04774 0.0
H888 H 0.21326 0.41777 0.05619 0.0
H889 H 0.21691 0.34413 0.20055 0.0
H890 H 0.12703 0.32408 0.19557 0.0
H891 H 0.13416 0.34899 0.15888 0.0
H892 H 0.21405 0.32438 0.14367 0.0
H893 H 0.24947 0.34328 0.16026 0.0
H894 H 0.24477 0.35135 0.12997 0.0
H895 H 0.2489 0.41427 0.18373 0.0
H896 H 0.27494 0.41508 0.1648 0.0
H897 H 0.26328 0.3885 0.18766 0.0
H898 H 0.33086 0.41187 0.11498 0.0
C899 C 0.28931 0.40811 0.12068 0.0
C900 C 0.5119 0.90085 0.26853 0.0
C901 C 0.54061 0.91032 0.2627 0.0
C902 C 0.55219 0.93112 0.2448 0.0
C903 C 0.50668 0.93181 0.23874 0.0
C904 C 0.49568 0.91219 0.25668 0.0
C905 C 0.46572 0.90592 0.26199 0.0
H906 H 0.35307 0.93259 0.24334 0.0
C907 C 0.48398 0.93901 0.22998 0.0
C908 C 0.46018 0.92433 0.2438 0.0
H909 H 0.36637 0.87932 0.29609 0.0
H910 H 0.41077 0.88886 0.28002 0.0
H911 H 0.42215 0.98977 0.24284 0.0
H912 H 0.37186 0.90109 0.20012 0.0
H913 H 0.39561 0.92895 0.18192 0.0
H914 H 0.3673 0.93387 0.19467 0.0
H915 H 0.39009 0.97971 0.22323 0.0
H916 H 0.42556 0.99499 0.2121 0.0
C917 C 0.46801 0.91944 0.28803 0.0
C918 C 0.44394 0.8702 0.25697 0.0
C919 C 0.49854 0.99739 0.15623 0.0
C920 C 0.4797 0.00296 0.14154 0.0
C921 C 0.45207 0.99578 0.14892 0.0
C922 C 0.4431 0.98259 0.17059 0.0
C923 C 0.46169 0.97578 0.18465 0.0
C924 C 0.48898 0.98339 0.17739 0.0
C925 C 0.50486 0.9721 0.19322 0.0
C926 C 0.48249 0.95596 0.21096 0.0
C927 C 0.45732 0.95848 0.20617 0.0
C928 C 0.53331 0.00107 0.20521 0.0
C929 C 0.51009 0.94864 0.17794 0.0
C930 C 0.36562 0.92304 0.25137 0.0
C931 C 0.35652 0.90602 0.27162 0.0
C932 C 0.37329 0.89353 0.28118 0.0
C933 C 0.39912 0.89892 0.27168 0.0
C934 C 0.40856 0.91689 0.2522 0.0
C935 C 0.39175 0.92818 0.24196 0.0
C936 C 0.40506 0.94547 0.22048 0.0
C937 C 0.43355 0.94452 0.22082 0.0
C938 C 0.43512 0.92749 0.23941 0.0
C939 C 0.41099 0.97932 0.2247 0.0
C940 C 0.38393 0.92667 0.19804 0.0
H941 H 0.54544 0.95742 0.2193 0.0
H942 H 0.50198 0.88481 0.282 0.0
H943 H 0.44922 0.86052 0.24094 0.0
H944 H 0.42094 0.86437 0.2529 0.0
H945 H 0.44504 0.8574 0.27222 0.0
H946 H 0.49078 0.93853 0.29409 0.0
H947 H 0.46175 0.90108 0.30064 0.0
H948 H 0.45445 0.93056 0.29007 0.0
H949 H 0.51947 0.00181 0.15051 0.0
H950 H 0.43705 0.99938 0.1375 0.0
H951 H 0.42172 0.97729 0.17523 0.0
H952 H 0.53033 0.02171 0.20794 0.0
H953 H 0.55198 0.00775 0.1941 0.0
H954 H 0.53956 0.99741 0.22327 0.0
H955 H 0.49058 0.93336 0.16513 0.0
H956 H 0.51338 0.93237 0.18852 0.0
H957 H 0.52932 0.96116 0.16748 0.0
H958 H 0.57446 0.9396 0.24023 0.0
C959 C 0.53538 0.94176 0.23276 0.0
C960 C 0.11598 0.47797 0.28273 0.0
C961 C 0.10878 0.44844 0.27218 0.0
C962 C 0.09353 0.43825 0.24924 0.0
C963 C 0.09338 0.48716 0.24775 0.0
C964 C 0.10788 0.49665 0.27042 0.0
C965 C 0.11321 0.52814 0.27975 0.0
H966 H 0.09689 0.65326 0.26589 0.0
C967 C 0.08785 0.51217 0.24024 0.0
C968 C 0.0991 0.53593 0.25919 0.0
H969 H 0.14326 0.6386 0.32461 0.0
H970 H 0.1308 0.58816 0.30536 0.0
H971 H 0.12381 0.62832 0.2255 0.0
H972 H 0.04209 0.58587 0.25767 0.0
H973 H 0.03345 0.569 0.2281 0.0
H974 H 0.04839 0.61072 0.23401 0.0
H975 H 0.09616 0.63894 0.22054 0.0
H976 H 0.09551 0.60747 0.20255 0.0
C977 C 0.14693 0.55097 0.28361 0.0
C978 C 0.09682 0.52401 0.30251 0.0
C979 C 0.04344 0.50723 0.15607 0.0
C980 C 0.03504 0.52703 0.14521 0.0
C981 C 0.03638 0.55208 0.15953 0.0
C982 C 0.04756 0.55867 0.18342 0.0
C983 C 0.05735 0.53992 0.19357 0.0
C984 C 0.05426 0.51398 0.18033 0.0
C985 C 0.06334 0.49521 0.19527 0.0
C986 C 0.07433 0.51558 0.21894 0.0
C987 C 0.07096 0.54189 0.21759 0.0
C988 C 0.08827 0.49304 0.18374 0.0
C989 C 0.03572 0.46298 0.19752 0.0
C990 C 0.104 0.6389 0.27466 0.0
C991 C 0.12077 0.64955 0.29685 0.0
C992 C 0.13029 0.63071 0.30751 0.0
C993 C 0.123 0.60147 0.29628 0.0
C994 C 0.10636 0.59115 0.27398 0.0
C995 C 0.09739 0.60992 0.26347 0.0
C996 C 0.08149 0.59609 0.23912 0.0
C997 C 0.082 0.56563 0.2369 0.0
C998 C 0.09634 0.56281 0.25743 0.0
C999 C 0.0999 0.61878 0.22083 0.0
C1000 C 0.04975 0.59024 0.23951 0.0
H1001 H 0.07478 0.44886 0.21935 0.0
H1002 H 0.1274 0.48624 0.30043 0.0
H1003 H 0.07517 0.50186 0.30039 0.0
H1004 H 0.09159 0.54265 0.30646 0.0
H1005 H 0.10974 0.52299 0.31828 0.0
H1006 H 0.15881 0.54415 0.27108 0.0
H1007 H 0.1557 0.55121 0.30201 0.0
H1008 H 0.15331 0.57519 0.27994 0.0
H1009 H 0.04217 0.48735 0.14593 0.0
H1010 H 0.02872 0.56684 0.15231 0.0
H1011 H 0.04828 0.57833 0.19303 0.0
H1012 H 0.10539 0.51654 0.17922 0.0
H1013 H 0.07965 0.47711 0.16703 0.0
H1014 H 0.09961 0.4847 0.19567 0.0
H1015 H 0.01553 0.46483 0.19714 0.0
H1016 H 0.03654 0.45354 0.21468 0.0
H1017 H 0.03249 0.44562 0.18265 0.0
H1018 H 0.08792 0.41556 0.24075 0.0
C1019 C 0.08597 0.45757 0.23689 0.0
C1020 C 0.37016 0.48225 0.27103 0.0
C1021 C 0.34659 0.45417 0.25991 0.0
C1022 C 0.34913 0.4438 0.23677 0.0
C1023 C 0.39799 0.48959 0.23655 0.0
C1024 C 0.39518 0.49944 0.25916 0.0
C1025 C 0.42121 0.53013 0.26884 0.0
H1026 H 0.55661 0.65094 0.25776 0.0
C1027 C 0.42741 0.51315 0.22972 0.0
C1028 C 0.44088 0.53677 0.24881 0.0
H1029 H 0.50032 0.63981 0.3138 0.0
H1030 H 0.46315 0.5894 0.29467 0.0
H1031 H 0.54559 0.58329 0.25234 0.0
H1032 H 0.50484 0.62713 0.21531 0.0
H1033 H 0.51131 0.60493 0.19374 0.0
H1034 H 0.54185 0.63581 0.21246 0.0
H1035 H 0.5612 0.60515 0.22744 0.0
H1036 H 0.5348 0.5636 0.22361 0.0
C1037 C 0.43476 0.52495 0.29201 0.0
C1038 C 0.41097 0.55448 0.2721 0.0
C1039 C 0.46381 0.50413 0.14853 0.0
C1040 C 0.49112 0.52272 0.13916 0.0
C1041 C 0.51436 0.54719 0.15424 0.0
C1042 C 0.51028 0.55448 0.17738 0.0
C1043 C 0.48269 0.53712 0.18601 0.0
C1044 C 0.46018 0.51167 0.17214 0.0
C1045 C 0.43323 0.49466 0.18569 0.0
C1046 C 0.443 0.51532 0.20926 0.0
C1047 C 0.47196 0.54033 0.20896 0.0
C1048 C 0.42813 0.46158 0.18906 0.0
C1049 C 0.40705 0.49449 0.17192 0.0
C1050 C 0.53632 0.63738 0.26594 0.0
C1051 C 0.53126 0.64904 0.2873 0.0
C1052 C 0.5045 0.63118 0.29728 0.0
C1053 C 0.48298 0.60198 0.28609 0.0
C1054 C 0.48808 0.59076 0.26447 0.0
C1055 C 0.51435 0.60847 0.25473 0.0
C1056 C 0.51536 0.59368 0.2311 0.0
C1057 C 0.48523 0.56415 0.2282 0.0
C1058 C 0.46959 0.56249 0.24786 0.0
C1059 C 0.5406 0.58615 0.23353 0.0
C1060 C 0.51869 0.61645 0.21203 0.0
H1061 H 0.37524 0.45261 0.20737 0.0
H1062 H 0.36937 0.49081 0.28889 0.0
H1063 H 0.39089 0.54787 0.26013 0.0
H1064 H 0.42741 0.57794 0.26725 0.0
H1065 H 0.40574 0.5566 0.29068 0.0
H1066 H 0.43464 0.5024 0.28996 0.0
H1067 H 0.42206 0.5241 0.30732 0.0
H1068 H 0.45801 0.54305 0.29667 0.0
H1069 H 0.44563 0.48473 0.13766 0.0
H1070 H 0.53598 0.561 0.14811 0.0
H1071 H 0.52885 0.57371 0.18757 0.0
H1072 H 0.44937 0.46259 0.19371 0.0
H1073 H 0.41759 0.44575 0.17242 0.0
H1074 H 0.41458 0.45083 0.20381 0.0
H1075 H 0.41378 0.51816 0.16623 0.0
H1076 H 0.3885 0.48843 0.18284 0.0
H1077 H 0.39897 0.4777 0.15569 0.0
H1078 H 0.3312 0.42237 0.22762 0.0
C1079 C 0.37468 0.46141 0.22502 0.0
Tb1080 Tb 0.53268 0.02324 1.00346 0.0
C1081 C 0.51264 0.95489 0.01979 0.0
Tb1082 Tb 0.46601 0.97659 0.0086 0.0
O1083 O 0.53784 0.04789 0.03898 0.0
O1084 O 0.50562 0.00156 0.03043 0.0
O1085 O 0.53322 0.98014 0.01056 0.0
C1086 C 0.41493 0.95175 0.02806 0.0
O1087 O 0.48585 0.95028 0.02266 0.0
C1088 C 0.48371 0.97606 0.96579 0.0
C1089 C 0.48627 0.04521 0.99272 0.0
O1090 O 0.42029 0.93894 0.00971 0.0
O1091 O 0.43801 0.97861 0.03502 0.0
O1092 O 0.4603 0.9525 0.97284 0.0
O1093 O 0.49293 0.99841 0.98161 0.0
O1094 O 0.46568 0.01992 1.00189 0.0
O1095 O 0.51297 0.04973 0.98967 0.0
C1096 C 0.58333 0.04824 0.98323 0.0
O1097 O 0.5786 0.06046 1.0023 0.0
O1098 O 0.55989 0.02176 0.97605 0.0
C1099 C 0.51447 0.02415 0.04594 0.0
Tb1100 Tb 0.97818 0.51449 1.00158 0.0
C1101 C 0.04371 0.5624 0.01911 0.0
Tb1102 Tb 0.019 0.48865 0.01361 0.0
O1103 O 0.9825 0.53206 0.03873 0.0
O1104 O 0.98575 0.49234 0.03008 0.0
O1105 O 0.01956 0.55841 0.00716 0.0
C1106 C 0.05563 0.47235 0.03368 0.0
O1107 O 0.04731 0.5387 0.02472 0.0
C1108 C 0.0082 0.49165 0.96828 0.0
C1109 C 0.95293 0.44055 0.99772 0.0
O1110 O 0.03454 0.47317 0.04396 0.0
O1111 O 0.05613 0.48086 0.01227 0.0
O1112 O 0.01337 0.47064 0.97637 0.0
O1113 O 0.01155 0.51099 0.98531 0.0
O1114 O 0.97748 0.44472 0.00913 0.0
O1115 O 0.9492 0.46414 0.99197 0.0
C1116 C 0.94444 0.53154 0.97752 0.0
O1117 O 0.96533 0.52847 0.9691 0.0
O1118 O 0.94235 0.52485 0.99956 0.0
C1119 C 0.98854 0.51166 0.04696 0.0
Tb1120 Tb 0.46714 0.48829 0.01072 0.0
C1121 C 0.483 0.43784 0.99348 0.0
Tb1122 Tb 0.53098 0.51096 0.99916 0.0
O1123 O 0.45133 0.47282 0.97315 0.0
O1124 O 0.49374 0.51033 0.98299 0.0
O1125 O 0.46425 0.44314 1.0048 0.0
C1126 C 0.57931 0.52573 0.97731 0.0
O1127 O 0.50919 0.46056 0.98847 0.0
C1128 C 0.52116 0.50639 0.04428 0.0
C1129 C 0.51484 0.56156 0.01539 0.0
O1130 O 0.57598 0.51979 0.99944 0.0
O1131 O 0.55534 0.5231 0.9674 0.0
O1132 O 0.54609 0.52661 0.03687 0.0
O1133 O 0.50427 0.48863 0.02667 0.0
O1134 O 0.53376 0.55612 1.00447 0.0
O1135 O 0.4886 0.53891 0.02037 0.0
C1136 C 0.42092 0.47377 0.03545 0.0
O1137 O 0.4217 0.47778 0.01284 0.0
O1138 O 0.44606 0.47807 0.04397 0.0
C1139 C 0.47643 0.49242 0.96558 0.0
Tb1140 Tb 0.19609 0.35737 0.33482 0.0
C1141 C 0.18124 0.29124 0.35217 0.0
Tb1142 Tb 0.13014 0.30648 0.34016 0.0
O1143 O 0.20121 0.38084 0.37096 0.0
O1144 O 0.16943 0.33495 0.36169 0.0
O1145 O 0.20027 0.31646 0.342 0.0
C1146 C 0.07953 0.278 0.36028 0.0
O1147 O 0.15413 0.28512 0.35576 0.0
C1148 C 0.14879 0.30596 0.29783 0.0
C1149 C 0.14512 0.37271 0.32222 0.0
O1150 O 0.08882 0.26424 0.34572 0.0
O1151 O 0.09833 0.30788 0.36288 0.0
O1152 O 0.12563 0.282 0.30484 0.0
O1153 O 0.15676 0.32864 0.3131 0.0
O1154 O 0.12543 0.34657 0.33109 0.0
O1155 O 0.17273 0.37971 0.31996 0.0
C1156 C 0.24676 0.38708 0.31477 0.0
O1157 O 0.23667 0.40032 0.32897 0.0
O1158 O 0.22882 0.35701 0.31258 0.0
C1159 C 0.17768 0.35695 0.37755 0.0
Tb1160 Tb 0.64332 0.84652 0.33284 0.0
C1161 C 0.71066 0.89361 0.34817 0.0
Tb1162 Tb 0.68712 0.82045 0.34266 0.0
O1163 O 0.64849 0.86195 0.37061 0.0
O1164 O 0.65384 0.82419 0.35971 0.0
O1165 O 0.686 0.88951 0.3369 0.0
C1166 C 0.71917 0.79945 0.36416 0.0
O1167 O 0.71487 0.87028 0.35376 0.0
C1168 C 0.68264 0.8327 0.29775 0.0
C1169 C 0.62018 0.77324 0.32585 0.0
O1170 O 0.71312 0.81966 0.37396 0.0
O1171 O 0.7072 0.79116 0.34236 0.0
O1172 O 0.69928 0.82184 0.30519 0.0
O1173 O 0.67231 0.83734 0.31587 0.0
O1174 O 0.64482 0.77726 0.33711 0.0
O1175 O 0.61573 0.79669 0.32094 0.0
C1176 C 0.61003 0.86597 0.3115 0.0
O1177 O 0.60355 0.85018 0.33018 0.0
O1178 O 0.63512 0.87086 0.30506 0.0
C1179 C 0.65639 0.84232 0.37743 0.0
Tb1180 Tb 0.13345 0.82545 0.34271 0.0
C1181 C 0.15378 0.77496 0.33273 0.0
Tb1182 Tb 0.1987 0.84771 0.33604 0.0
O1183 O 0.12609 0.83598 0.30639 0.0
O1184 O 0.15818 0.82449 0.31489 0.0
O1185 O 0.13326 0.78089 0.33996 0.0
C1186 C 0.24999 0.87237 0.31665 0.0
O1187 O 0.18019 0.79742 0.32791 0.0
C1188 C 0.18345 0.8386 0.37983 0.0
C1189 C 0.17859 0.89809 0.34598 0.0
O1190 O 0.22554 0.86817 0.30648 0.0
O1191 O 0.24567 0.86286 0.33789 0.0
O1192 O 0.20549 0.83668 0.37238 0.0
O1193 O 0.1739 0.84865 0.36376 0.0
O1194 O 0.19846 0.89207 0.33738 0.0
O1195 O 0.15283 0.87565 0.35199 0.0
C1196 C 0.08348 0.80026 0.36391 0.0
O1197 O 0.08708 0.8124 0.34358 0.0
O1198 O 0.10775 0.802 0.37196 0.0
C1199 C 0.14825 0.8343 0.29887 0.0
Tb1200 Tb 0.86457 0.69136 0.67048 0.0
C1201 C 0.84856 0.6258 0.68978 0.0
Tb1202 Tb 0.79827 0.64116 0.67454 0.0
O1203 O 0.86836 0.71601 0.70574 0.0
O1204 O 0.83676 0.66985 0.69692 0.0
O1205 O 0.86827 0.65069 0.67969 0.0
C1206 C 0.74683 0.61238 0.69342 0.0
O1207 O 0.82128 0.61997 0.69209 0.0
C1208 C 0.81837 0.63991 0.63283 0.0
C1209 C 0.81442 0.70714 0.65567 0.0
O1210 O 0.75713 0.59867 0.67991 0.0
O1211 O 0.76499 0.64242 0.69549 0.0
O1212 O 0.79483 0.61625 0.63967 0.0
O1213 O 0.826 0.66273 0.64789 0.0
O1214 O 0.79428 0.68135 0.66462 0.0
O1215 O 0.84205 0.71375 0.65409 0.0
C1216 C 0.91616 0.71992 0.65183 0.0
O1217 O 0.90611 0.73368 0.66556 0.0
O1218 O 0.89757 0.69 0.64928 0.0
C1219 C 0.84449 0.69241 0.71217 0.0
Tb1220 Tb 0.30993 0.174 0.66769 0.0
C1221 C 0.37736 0.22764 0.67988 0.0
Tb1222 Tb 0.35769 0.15609 0.67314 0.0
O1223 O 0.29621 0.16147 0.70352 0.0
O1224 O 0.33872 0.17521 0.69564 0.0
O1225 O 0.35007 0.22025 0.67251 0.0
C1226 C 0.39012 0.13299 0.69069 0.0
O1227 O 0.38488 0.20615 0.68357 0.0
C1228 C 0.34663 0.16773 0.63004 0.0
C1229 C 0.29079 0.10249 0.66113 0.0
O1230 O 0.36982 0.13488 0.70132 0.0
O1231 O 0.39223 0.14409 0.67007 0.0
O1232 O 0.37182 0.17112 0.63781 0.0
O1233 O 0.32874 0.15494 0.64529 0.0
O1234 O 0.31768 0.10987 0.6696 0.0
O1235 O 0.28385 0.12408 0.65612 0.0
C1236 C 0.27934 0.19798 0.64812 0.0
O1237 O 0.26987 0.17699 0.66338 0.0
O1238 O 0.30599 0.20561 0.64417 0.0
C1239 C 0.32092 0.16357 0.71117 0.0
Tb1240 Tb 0.80387 0.15616 0.68007 0.0
C1241 C 0.82297 0.1078 0.66417 0.0
Tb1242 Tb 0.86816 0.18163 0.66871 0.0
O1243 O 0.78841 0.1392 0.64264 0.0
O1244 O 0.82992 0.17839 0.65211 0.0
O1245 O 0.80344 0.11211 0.67519 0.0
C1246 C 0.91725 0.19861 0.64736 0.0
O1247 O 0.84867 0.13126 0.65902 0.0
C1248 C 0.85842 0.17779 0.71388 0.0
C1249 C 0.84874 0.23012 0.68308 0.0
O1250 O 0.8923 0.19256 0.63679 0.0
O1251 O 0.91444 0.19472 0.66985 0.0
O1252 O 0.88287 0.19874 0.70628 0.0
O1253 O 0.842 0.15904 0.69649 0.0
O1254 O 0.86823 0.22551 0.67233 0.0
O1255 O 0.82318 0.20682 0.68866 0.0
C1256 C 0.75681 0.13989 0.70416 0.0
O1257 O 0.7825 0.1464 0.71327 0.0
O1258 O 0.75757 0.14274 0.68139 0.0
C1259 C 0.8131 0.15953 0.63488 0.0
C1260 C 0.33648 0.89845 0.04136 0.0
C1261 C 0.33803 0.90495 0.06626 0.0
H1262 H 0.35969 0.90765 0.00993 0.0
C1263 C 0.36503 0.92847 0.07803 0.0
H1264 H 0.31602 0.88143 0.03133 0.0
C1265 C 0.38975 0.94444 0.06538 0.0
C1266 C 0.38824 0.93671 0.04084 0.0
H1267 H 0.36745 0.93403 0.09712 0.0
H1268 H 0.41033 0.96207 0.07499 0.0
C1269 C 0.36142 0.91372 0.02892 0.0
C1270 C 0.11387 0.44978 0.03968 0.0
C1271 C 0.11586 0.44662 0.06424 0.0
H1272 H 0.09341 0.46063 0.01093 0.0
C1273 C 0.09704 0.45111 0.07864 0.0
H1274 H 0.1275 0.44578 0.02794 0.0
C1275 C 0.07707 0.45911 0.06872 0.0
C1276 C 0.0758 0.463 0.0443 0.0
H1277 H 0.09819 0.44915 0.09765 0.0
H1278 H 0.06303 0.46281 0.08019 0.0
C1279 C 0.09422 0.4581 0.02987 0.0
C1280 C 0.56243 0.64711 0.03756 0.0
C1281 C 0.54127 0.65581 0.04112 0.0
H1282 H 0.57058 0.61045 0.02613 0.0
C1283 C 0.51138 0.63368 0.03536 0.0
H1284 H 0.58561 0.66386 0.04188 0.0
C1285 C 0.50271 0.60304 0.02672 0.0
C1286 C 0.52386 0.59426 0.0232 0.0
H1287 H 0.4947 0.6399 0.03814 0.0
H1288 H 0.47948 0.58622 0.02286 0.0
C1289 C 0.55382 0.61667 0.02843 0.0
C1290 C 0.87882 0.37164 0.97429 0.0
C1291 C 0.88603 0.34834 0.96928 0.0
H1292 H 0.8945 0.41934 0.98717 0.0
C1293 C 0.9149 0.35498 0.97504 0.0
H1294 H 0.85669 0.36705 0.96986 0.0
C1295 C 0.93638 0.38463 0.98531 0.0
C1296 C 0.92946 0.40833 0.98955 0.0
H1297 H 0.92089 0.33728 0.9714 0.0
H1298 H 0.95863 0.38929 0.98908 0.0
C1299 C 0.90043 0.4015 0.98412 0.0
C1300 C 0.658 0.55034 0.96849 0.0
C1301 C 0.65832 0.55078 0.94357 0.0
H1302 H 0.63273 0.54172 0.99851 0.0
C1303 C 0.63244 0.54396 0.92981 0.0
H1304 H 0.67769 0.55626 0.97972 0.0
C1305 C 0.60666 0.5361 0.94075 0.0
C1306 C 0.60637 0.53474 0.96557 0.0
H1307 H 0.63188 0.54392 0.91059 0.0
H1308 H 0.58688 0.53053 0.92978 0.0
C1309 C 0.63228 0.54216 0.97932 0.0
C1310 C 0.47902 0.09423 0.94667 0.0
C1311 C 0.45597 0.09785 0.95436 0.0
H1312 H 0.50724 0.0755 0.95324 0.0
C1313 C 0.44383 0.08547 0.97552 0.0
H1314 H 0.48885 0.10386 0.93052 0.0
C1315 C 0.45404 0.06885 0.98842 0.0
C1316 C 0.47714 0.06522 0.98073 0.0
H1317 H 0.42608 0.08816 0.98179 0.0
H1318 H 0.44381 0.05875 1.00432 0.0
C1319 C 0.48974 0.07837 0.95987 0.0
C1320 C 0.66126 0.10192 0.96888 0.0
C1321 C 0.65877 0.09739 0.94373 0.0
H1322 H 0.63931 0.0905 1.00094 0.0
C1323 C 0.63137 0.07469 0.93201 0.0
H1324 H 0.68209 0.11817 0.97881 0.0
C1325 C 0.60712 0.05782 0.94501 0.0
C1326 C 0.60955 0.0638 0.96991 0.0
H1327 H 0.62827 0.07059 0.91277 0.0
H1328 H 0.58615 0.041 0.93547 0.0
C1329 C 0.63683 0.0858 0.98173 0.0
C1330 C 0.9116 0.55486 0.92706 0.0
C1331 C 0.8929 0.56253 0.93887 0.0
H1332 H 0.94257 0.53892 0.93013 0.0
C1333 C 0.89152 0.55999 0.96357 0.0
H1334 H 0.9129 0.55614 0.90802 0.0
C1335 C 0.90807 0.5496 0.97609 0.0
C1336 C 0.92662 0.54194 0.96424 0.0
H1337 H 0.87781 0.56628 0.97334 0.0
H1338 H 0.90655 0.54788 0.99508 0.0
C1339 C 0.9284 0.54478 0.93966 0.0
C1340 C 0.4862 0.36567 0.97321 0.0
C1341 C 0.45629 0.34363 0.96741 0.0
H1342 H 0.51819 0.41305 0.98582 0.0
C1343 C 0.43521 0.35249 0.97078 0.0
H1344 H 0.50282 0.35931 0.97059 0.0
C1345 C 0.44391 0.38296 0.97991 0.0
C1346 C 0.47388 0.40522 0.98532 0.0
H1347 H 0.41202 0.3358 0.96643 0.0
H1348 H 0.42721 0.38928 0.98217 0.0
C1349 C 0.49496 0.39634 0.98184 0.0
C1350 C 0.11696 0.63139 0.04425 0.0
C1351 C 0.10956 0.65469 0.04847 0.0
H1352 H 0.10179 0.58369 0.0317 0.0
C1353 C 0.08074 0.64784 0.04212 0.0
H1354 H 0.13905 0.63615 0.04912 0.0
C1355 C 0.05959 0.6181 0.03178 0.0
C1356 C 0.06677 0.59452 0.02803 0.0
H1357 H 0.07461 0.66554 0.04511 0.0
H1358 H 0.03741 0.61335 0.02736 0.0
C1359 C 0.09567 0.60144 0.03433 0.0
C1360 C 0.34328 0.44563 0.0506 0.0
C1361 C 0.34604 0.44586 0.07561 0.0
H1362 H 0.36484 0.45462 0.01839 0.0
C1363 C 0.37384 0.45536 0.08724 0.0
H1364 H 0.32211 0.43779 0.04095 0.0
C1365 C 0.39825 0.46454 0.07416 0.0
C1366 C 0.39534 0.46458 0.04925 0.0
H1367 H 0.37686 0.45616 0.10646 0.0
H1368 H 0.41943 0.47179 0.08356 0.0
C1369 C 0.36769 0.4551 0.0376 0.0
C1370 C 0.55518 0.91477 0.0372 0.0
C1371 C 0.54299 0.9023 0.05832 0.0
H1372 H 0.55524 0.94149 0.00839 0.0
C1373 C 0.51995 0.90596 0.06601 0.0
H1374 H 0.5729 0.91203 0.03091 0.0
C1375 C 0.50925 0.92185 0.05279 0.0
C1376 C 0.52183 0.93499 0.03191 0.0
H1377 H 0.51005 0.89626 0.08212 0.0
H1378 H 0.49171 0.92469 0.05937 0.0
C1379 C 0.54499 0.9314 0.02429 0.0
C1380 C 0.01324 0.21358 0.38549 0.0
C1381 C 0.00503 0.2305 0.40107 0.0
H1382 H 0.04279 0.2153 0.36022 0.0
C1383 C 0.02192 0.26342 0.40327 0.0
H1384 H 0.00119 0.1882 0.38372 0.0
C1385 C 0.04604 0.27895 0.38984 0.0
C1386 C 0.05364 0.26187 0.37394 0.0
H1387 H 0.01615 0.27717 0.41497 0.0
H1388 H 0.05866 0.30432 0.39184 0.0
C1389 C 0.03713 0.22907 0.37202 0.0
C1390 C 0.76764 0.76411 0.37115 0.0
C1391 C 0.7776 0.7719 0.39546 0.0
H1392 H 0.74097 0.76642 0.34233 0.0
C1393 C 0.76711 0.78759 0.40979 0.0
H1394 H 0.77524 0.75178 0.3598 0.0
C1395 C 0.74774 0.79633 0.39973 0.0
C1396 C 0.73827 0.78901 0.3753 0.0
H1397 H 0.77459 0.79392 0.42858 0.0
H1398 H 0.74042 0.80906 0.41096 0.0
C1399 C 0.748 0.7724 0.3612 0.0
C1400 C 0.18681 0.96923 0.38143 0.0
C1401 C 0.20939 0.99372 0.37066 0.0
H1402 H 0.15883 0.91973 0.38161 0.0
C1403 C 0.22053 0.98681 0.35064 0.0
H1404 H 0.17784 0.97417 0.39682 0.0
C1405 C 0.20998 0.95562 0.34208 0.0
C1406 C 0.18765 0.93102 0.35309 0.0
H1407 H 0.23794 0.00548 0.34209 0.0
H1408 H 0.21953 0.95074 0.32708 0.0
C1409 C 0.17581 0.93817 0.37257 0.0
C1410 C 0.54603 0.70329 0.30366 0.0
C1411 C 0.55355 0.68023 0.29868 0.0
H1412 H 0.56138 0.75111 0.31602 0.0
C1413 C 0.58273 0.6875 0.30366 0.0
H1414 H 0.52364 0.69818 0.2998 0.0
C1415 C 0.60417 0.7175 0.31326 0.0
C1416 C 0.59691 0.74094 0.3176 0.0
H1417 H 0.58895 0.67 0.29998 0.0
H1418 H 0.62661 0.72257 0.31659 0.0
C1419 C 0.56761 0.73352 0.31282 0.0
C1420 C 0.32961 0.90076 0.30807 0.0
C1421 C 0.32976 0.9007 0.28308 0.0
H1422 H 0.30425 0.89155 0.33815 0.0
C1423 C 0.30373 0.89355 0.2694 0.0
H1424 H 0.34941 0.90699 0.31927 0.0
C1425 C 0.27792 0.88531 0.28041 0.0
C1426 C 0.27764 0.88384 0.30522 0.0
H1427 H 0.30298 0.89311 0.25015 0.0
H1428 H 0.25794 0.87901 0.26941 0.0
C1429 C 0.3038 0.89211 0.31897 0.0
C1430 C 0.09715 0.39767 0.28862 0.0
C1431 C 0.11771 0.42884 0.28519 0.0
H1432 H 0.08951 0.35561 0.3037 0.0
C1433 C 0.14692 0.44174 0.29494 0.0
H1434 H 0.07444 0.38731 0.28145 0.0
C1435 C 0.15558 0.42368 0.30749 0.0
C1436 C 0.13511 0.39248 0.31094 0.0
H1437 H 0.1632 0.46572 0.29253 0.0
H1438 H 0.1784 0.43412 0.31438 0.0
C1439 C 0.10571 0.37972 0.30159 0.0
C1440 C 0.30517 0.40347 0.27212 0.0
C1441 C 0.31986 0.43636 0.27283 0.0
H1442 H 0.27062 0.36204 0.28506 0.0
C1443 C 0.30983 0.45258 0.28725 0.0
H1444 H 0.31238 0.39024 0.26137 0.0
C1445 C 0.28649 0.43655 0.30115 0.0
C1446 C 0.27223 0.40384 0.30075 0.0
H1447 H 0.32008 0.47783 0.28786 0.0
H1448 H 0.27944 0.44981 0.31206 0.0
C1449 C 0.28151 0.38736 0.2859 0.0
C1450 C 0.57863 0.89371 0.26337 0.0
C1451 C 0.55836 0.89872 0.27532 0.0
H1452 H 0.611 0.87968 0.26564 0.0
C1453 C 0.5551 0.89234 0.2994 0.0
H1454 H 0.58134 0.89757 0.24474 0.0
C1455 C 0.57143 0.88102 0.31108 0.0
C1456 C 0.5919 0.87666 0.29914 0.0
H1457 H 0.54027 0.89651 0.30944 0.0
H1458 H 0.56856 0.87639 0.3296 0.0
C1459 C 0.59546 0.88317 0.27526 0.0
C1460 C 0.1075 0.68889 0.31166 0.0
C1461 C 0.12908 0.68073 0.30835 0.0
H1462 H 0.09836 0.72492 0.32254 0.0
C1463 C 0.15875 0.70307 0.31487 0.0
H1464 H 0.08447 0.67195 0.30685 0.0
C1465 C 0.16682 0.73356 0.32355 0.0
C1466 C 0.14528 0.742 0.32628 0.0
H1467 H 0.17577 0.69729 0.31236 0.0
H1468 H 0.18993 0.75067 0.32767 0.0
C1469 C 0.11549 0.71914 0.32077 0.0
C1470 C 0.7716 0.9614 0.38762 0.0
C1471 C 0.77395 0.98717 0.37656 0.0
H1472 H 0.75015 0.91153 0.38691 0.0
C1473 C 0.7565 0.98217 0.35532 0.0
H1474 H 0.78502 0.96484 0.40397 0.0
C1475 C 0.73618 0.95165 0.34571 0.0
C1476 C 0.73363 0.9258 0.3569 0.0
H1477 H 0.75805 0.00184 0.34656 0.0
H1478 H 0.72235 0.94828 0.32964 0.0
C1479 C 0.75185 0.93098 0.37774 0.0
C1480 C 0.00458 0.76901 0.37735 0.0
C1481 C 0.00633 0.76699 0.40219 0.0
H1482 H 0.02764 0.78153 0.34587 0.0
C1483 C 0.03375 0.77523 0.41401 0.0
H1484 H 0.98382 0.76212 0.3674 0.0
C1485 C 0.05865 0.78543 0.40141 0.0
C1486 C 0.05684 0.78819 0.37681 0.0
H1487 H 0.03625 0.77454 0.4331 0.0
H1488 H 0.07951 0.79192 0.41106 0.0
C1489 C 0.02963 0.77987 0.36488 0.0
C1490 C 0.22725 0.25437 0.36779 0.0
C1491 C 0.21589 0.24122 0.38895 0.0
H1492 H 0.22531 0.2809 0.33954 0.0
C1493 C 0.19254 0.2437 0.39741 0.0
H1494 H 0.24522 0.25261 0.36093 0.0
C1495 C 0.18066 0.25901 0.3849 0.0
C1496 C 0.19232 0.27272 0.36395 0.0
H1497 H 0.18327 0.23346 0.41356 0.0
H1498 H 0.16282 0.2608 0.39201 0.0
C1499 C 0.21583 0.2704 0.35556 0.0
C1500 C 0.68864 0.59722 0.73599 0.0
C1501 C 0.67318 0.56431 0.73492 0.0
H1502 H 0.72399 0.63833 0.72339 0.0
C1503 C 0.68254 0.54764 0.72028 0.0
H1504 H 0.68193 0.61075 0.74695 0.0
C1505 C 0.70606 0.5633 0.7065 0.0
C1506 C 0.7211 0.59606 0.70722 0.0
H1507 H 0.6716 0.52232 0.7194 0.0
H1508 H 0.71261 0.54971 0.69543 0.0
C1509 C 0.71245 0.61296 0.72228 0.0
C1510 C 0.42852 0.10835 0.73555 0.0
C1511 C 0.44692 0.10281 0.72138 0.0
H1512 H 0.39598 0.12212 0.73681 0.0
C1513 C 0.44522 0.10582 0.69673 0.0
H1514 H 0.42946 0.10668 0.7546 0.0
C1515 C 0.42654 0.11537 0.6867 0.0
C1516 C 0.40876 0.12151 0.701 0.0
H1517 H 0.45852 0.10105 0.68515 0.0
H1518 H 0.42611 0.11805 0.66777 0.0
C1519 C 0.40949 0.11742 0.72541 0.0
C1520 C 0.89393 0.31644 0.70338 0.0
C1521 C 0.87205 0.32394 0.7073 0.0
H1522 H 0.90362 0.28091 0.69216 0.0
C1523 C 0.84236 0.30086 0.70206 0.0
H1524 H 0.91696 0.33395 0.70737 0.0
C1525 C 0.83463 0.27033 0.69378 0.0
C1526 C 0.85653 0.26268 0.69012 0.0
H1527 H 0.82517 0.30618 0.70515 0.0
H1528 H 0.81157 0.25267 0.69046 0.0
C1529 C 0.88626 0.28617 0.6946 0.0
C1530 C 0.21848 0.02856 0.64217 0.0
C1531 C 0.22779 0.00713 0.63646 0.0
H1532 H 0.23122 0.07569 0.65441 0.0
C1533 C 0.25775 0.01678 0.64009 0.0
H1534 H 0.19547 0.02167 0.63936 0.0
C1535 C 0.27816 0.04753 0.64903 0.0
C1536 C 0.26897 0.06928 0.65403 0.0
H1537 H 0.26537 1.00057 0.63589 0.0
H1538 H 0.30121 0.05449 0.65129 0.0
C1539 C 0.23892 0.05944 0.65069 0.0
C1540 C 0.99743 0.22995 0.63975 0.0
C1541 C 0.99763 0.22725 0.6148 0.0
H1542 H 0.97184 0.2226 0.66945 0.0
C1543 C 0.97112 0.21644 0.60049 0.0
H1544 H 0.01753 0.23895 0.65133 0.0
C1545 C 0.94486 0.20752 0.611 0.0
C1546 C 0.94474 0.20906 0.63595 0.0
H1547 H 0.97048 0.21394 0.58124 0.0
H1548 H 0.9246 0.19874 0.59966 0.0
C1549 C 0.97127 0.2207 0.65018 0.0
C1550 C 0.7675 0.73215 0.62052 0.0
C1551 C 0.78836 0.76308 0.61676 0.0
H1552 H 0.75919 0.69038 0.63641 0.0
C1553 C 0.81748 0.77582 0.6267 0.0
H1554 H 0.74485 0.72193 0.61322 0.0
C1555 C 0.82574 0.75783 0.63978 0.0
C1556 C 0.80494 0.72688 0.6436 0.0
H1557 H 0.83399 0.79962 0.62405 0.0
H1558 H 0.84849 0.76813 0.64684 0.0
C1559 C 0.77565 0.7143 0.63403 0.0
C1560 C 0.97556 0.73433 0.61084 0.0
C1561 C 0.9916 0.76726 0.61208 0.0
H1562 H 0.93919 0.69351 0.62271 0.0
C1563 C 0.98237 0.78426 0.62649 0.0
H1564 H 0.98217 0.72052 0.60012 0.0
C1565 C 0.95822 0.76885 0.63972 0.0
C1566 C 0.94248 0.73606 0.63868 0.0
H1567 H 0.99376 0.80961 0.6275 0.0
H1568 H 0.95169 0.78265 0.65058 0.0
C1569 C 0.95118 0.71888 0.62399 0.0
C1570 C 0.21485 0.20349 0.62226 0.0
C1571 C 0.22877 0.23076 0.61012 0.0
H1572 H 0.22 0.17217 0.64418 0.0
C1573 C 0.25967 0.24726 0.61096 0.0
H1574 H 0.19112 0.1896 0.62158 0.0
C1575 C 0.2761 0.23663 0.62344 0.0
C1576 C 0.26205 0.20968 0.6357 0.0
H1577 H 0.27126 0.26858 0.60222 0.0
H1578 H 0.29985 0.24965 0.62364 0.0
C1579 C 0.23134 0.1933 0.63514 0.0
C1580 C 0.82933 0.03787 0.64273 0.0
C1581 C 0.7997 0.01508 0.63663 0.0
H1582 H 0.86002 0.08539 0.6561 0.0
C1583 C 0.77778 0.02248 0.64071 0.0
H1584 H 0.84658 0.03265 0.63959 0.0
C1585 C 0.78537 0.05233 0.65058 0.0
C1586 C 0.81505 0.07549 0.65604 0.0
H1587 H 0.75479 0.0052 0.63615 0.0
H1588 H 0.76802 0.05757 0.65316 0.0
C1589 C 0.83697 0.06796 0.6521 0.0
C1590 C 0.40986 0.31247 0.70333 0.0
C1591 C 0.43992 0.3224 0.70649 0.0
H1592 H 0.3665 0.27481 0.69187 0.0
C1593 C 0.4495 0.30159 0.69946 0.0
H1594 H 0.40202 0.3282 0.70852 0.0
C1595 C 0.42922 0.27096 0.6902 0.0
C1596 C 0.39906 0.26078 0.68742 0.0
H1597 H 0.47259 0.30871 0.70188 0.0
H1598 H 0.43713 0.25513 0.68554 0.0
C1599 C 0.38963 0.28202 0.69365 0.0
C1600 C 0.6781 0.10805 0.71778 0.0
C1601 C 0.6805 0.11012 0.74289 0.0
H1602 H 0.70035 0.11621 0.68596 0.0
C1603 C 0.70841 0.12174 0.75514 0.0
H1604 H 0.65692 0.0985 0.70767 0.0
C1605 C 0.7333 0.13139 0.74255 0.0
C1606 C 0.73073 0.12981 0.71751 0.0
H1607 H 0.71114 0.12392 0.77444 0.0
H1608 H 0.75457 0.1404 0.7524 0.0
C1609 C 0.70295 0.11802 0.70526 0.0
C1610 C 0.89135 0.58624 0.7082 0.0
C1611 C 0.87883 0.57373 0.72923 0.0
H1612 H 0.89183 0.61301 0.67927 0.0
C1613 C 0.85624 0.57817 0.73697 0.0
H1614 H 0.90875 0.58295 0.70187 0.0
C1615 C 0.84602 0.59445 0.72375 0.0
C1616 C 0.85863 0.60721 0.70279 0.0
H1617 H 0.84611 0.56849 0.75301 0.0
H1618 H 0.82855 0.59752 0.7302 0.0
C1619 C 0.88163 0.60327 0.69527 0.0
C1620 C 0.5088 0.04014 0.11169 0.0
C1621 C 0.48676 0.01034 0.11688 0.0
H1622 H 0.5346 0.0683 0.08476 0.0
C1623 C 0.47367 0.98584 0.0987 0.0
H1624 H 0.51958 0.05919 0.12568 0.0
C1625 C 0.48277 0.99071 0.0758 0.0
C1626 C 0.50461 0.02044 0.07028 0.0
H1627 H 0.4572 0.9625 0.10246 0.0
H1628 H 0.47311 0.97077 0.06258 0.0
C1629 C 0.51745 0.04527 0.08842 0.0
C1630 C 0.00849 0.4923 0.10688 0.0
C1631 C 0.025 0.52239 0.11922 0.0
H1632 H 0.98417 0.46525 0.07403 0.0
C1633 C 0.03103 0.54856 0.10668 0.0
H1634 H 0.00332 0.47156 0.11581 0.0
C1635 C 0.01928 0.5448 0.08322 0.0
C1636 C 0.00202 0.51485 0.07128 0.0
H1637 H 0.04466 0.5722 0.11504 0.0
H1638 H 0.02379 0.56547 0.07437 0.0
C1639 C 0.99734 0.48861 0.08301 0.0
C1640 C 0.48502 0.48748 0.10238 0.0
C1641 C 0.49624 0.5177 0.11393 0.0
H1642 H 0.48426 0.46013 0.07106 0.0
C1643 C 0.51431 0.54376 0.10163 0.0
H1644 H 0.47111 0.4669 0.11127 0.0
C1645 C 0.52234 0.53985 0.07912 0.0
C1646 C 0.51185 0.50979 0.06792 0.0
H1647 H 0.52264 0.56743 0.10953 0.0
H1648 H 0.53667 0.56044 0.07037 0.0
C1649 C 0.49271 0.48358 0.07949 0.0
C1650 C 0.98827 0.51136 0.90852 0.0
C1651 C 0.97058 0.48122 0.89656 0.0
H1652 H 0.01414 0.53839 0.94089 0.0
C1653 C 0.96374 0.45501 0.90927 0.0
H1654 H 0.99401 0.53207 0.89934 0.0
C1655 C 0.97579 0.45868 0.9326 0.0
C1656 C 0.99431 0.48865 0.94417 0.0
H1657 H 0.94936 0.43142 0.90105 0.0
H1658 H 0.97064 0.43796 0.94161 0.0
C1659 C 0.99993 0.51502 0.93222 0.0
C1660 C 0.51224 0.51053 0.9073 0.0
C1661 C 0.49907 0.48039 0.89509 0.0
H1662 H 0.51541 0.53803 0.93941 0.0
C1663 C 0.47996 0.45451 0.90711 0.0
H1664 H 0.52701 0.53104 0.89872 0.0
C1665 C 0.47272 0.45866 0.92991 0.0
C1666 C 0.48513 0.4887 0.94172 0.0
H1667 H 0.47021 0.43081 0.89883 0.0
H1668 H 0.4575 0.43823 0.93839 0.0
C1669 C 0.50545 0.5146 0.93051 0.0
C1670 C 0.51839 0.01639 0.91154 0.0
C1671 C 0.50105 0.99356 0.89288 0.0
H1672 H 0.52548 0.0292 0.9489 0.0
C1673 C 0.47884 0.96395 0.89827 0.0
H1674 H 0.53519 0.0396 0.90783 0.0
C1675 C 0.47396 0.95747 0.92207 0.0
C1676 C 0.49073 0.98079 0.94074 0.0
H1677 H 0.46501 0.9461 0.88407 0.0
H1678 H 0.45643 0.93469 0.92583 0.0
C1679 C 0.51295 0.01027 0.93514 0.0
C1680 C 0.17596 0.36802 0.44458 0.0
C1681 C 0.15255 0.3385 0.44877 0.0
H1682 H 0.20194 0.39759 0.41837 0.0
C1683 C 0.13695 0.31605 0.42951 0.0
H1684 H 0.18851 0.3855 0.45935 0.0
C1685 C 0.14508 0.32253 0.40649 0.0
C1686 C 0.1684 0.35196 0.40201 0.0
H1687 H 0.11924 0.29292 0.43241 0.0
H1688 H 0.13366 0.30393 0.39232 0.0
C1689 C 0.18362 0.37488 0.42125 0.0
C1690 C 0.70216 0.87997 0.43573 0.0
C1691 C 0.69619 0.85402 0.44851 0.0
H1692 H 0.69369 0.89638 0.40362 0.0
C1693 C 0.67925 0.82375 0.43651 0.0
H1694 H 0.71614 0.90371 0.44379 0.0
C1695 C 0.66731 0.8197 0.41283 0.0
C1696 C 0.67161 0.84577 0.40103 0.0
H1697 H 0.67419 0.80317 0.44563 0.0
H1698 H 0.6536 0.79623 0.40417 0.0
C1699 C 0.68955 0.87587 0.41254 0.0
C1700 C 0.14858 0.84588 0.43503 0.0
C1701 C 0.16368 0.8392 0.45281 0.0
H1702 H 0.14404 0.85237 0.39821 0.0
C1703 C 0.18446 0.83094 0.44638 0.0
H1704 H 0.13293 0.85296 0.43965 0.0
C1705 C 0.19024 0.82967 0.4225 0.0
C1706 C 0.17581 0.83735 0.40478 0.0
H1707 H 0.19662 0.82608 0.45991 0.0
H1708 H 0.20658 0.82356 0.41802 0.0
C1709 C 0.15492 0.84545 0.41131 0.0
C1710 C 0.68079 0.8305 0.23052 0.0
C1711 C 0.65326 0.82742 0.22417 0.0
H1712 H 0.71183 0.83512 0.25891 0.0
C1713 C 0.63614 0.82776 0.24227 0.0
H1714 H 0.69431 0.83004 0.21687 0.0
C1715 C 0.64589 0.82995 0.26624 0.0
C1716 C 0.67331 0.83286 0.2726 0.0
H1717 H 0.6145 0.82453 0.23785 0.0
H1718 H 0.63121 0.82751 0.27963 0.0
C1719 C 0.69076 0.83331 0.25451 0.0
C1720 C 0.14605 0.84043 0.23206 0.0
C1721 C 0.16678 0.83208 0.22567 0.0
H1722 H 0.12438 0.84845 0.26051 0.0
C1723 C 0.18211 0.82576 0.24349 0.0
H1724 H 0.13365 0.8449 0.21848 0.0
C1725 C 0.17614 0.82673 0.26725 0.0
C1726 C 0.15541 0.83503 0.2738 0.0
H1727 H 0.19766 0.81853 0.23886 0.0
H1728 H 0.18713 0.81995 0.28035 0.0
C1729 C 0.14066 0.84227 0.25601 0.0
C1730 C 0.14514 0.29372 0.23056 0.0
C1731 C 0.16826 0.32293 0.22545 0.0
H1732 H 0.12132 0.26485 0.25783 0.0
C1733 C 0.18624 0.34512 0.24427 0.0
H1734 H 0.13082 0.2764 0.21623 0.0
C1735 C 0.18027 0.33897 0.26777 0.0
C1736 C 0.15685 0.3101 0.27306 0.0
H1737 H 0.20376 0.36805 0.24076 0.0
H1738 H 0.19314 0.35754 0.28169 0.0
C1739 C 0.13973 0.28716 0.25427 0.0
C1740 C 0.84116 0.7052 0.77871 0.0
C1741 C 0.81725 0.67603 0.78293 0.0
H1742 H 0.86818 0.73389 0.75257 0.0
C1743 C 0.80168 0.65342 0.76375 0.0
H1744 H 0.85375 0.72276 0.79343 0.0
C1745 C 0.81045 0.65929 0.74085 0.0
C1746 C 0.83434 0.6883 0.73636 0.0
H1747 H 0.78367 0.63049 0.76668 0.0
H1748 H 0.79919 0.64044 0.72684 0.0
C1749 C 0.84941 0.7115 0.75545 0.0
C1750 C 0.36834 0.17481 0.76784 0.0
C1751 C 0.34863 0.16921 0.78521 0.0
H1752 H 0.3753 0.17868 0.73088 0.0
C1753 C 0.3193 0.15998 0.77806 0.0
H1754 H 0.39119 0.18254 0.77303 0.0
C1755 C 0.30992 0.15683 0.75385 0.0
C1756 C 0.32991 0.16359 0.73648 0.0
H1757 H 0.30383 0.15587 0.79125 0.0
H1758 H 0.28729 0.15015 0.74882 0.0
C1759 C 0.35917 0.17245 0.74372 0.0
C1760 C 0.8507 0.21397 0.77145 0.0
C1761 C 0.83355 0.18765 0.78385 0.0
H1762 H 0.87233 0.23132 0.74 0.0
C1763 C 0.82308 0.1576 0.77224 0.0
H1764 H 0.85835 0.23749 0.77935 0.0
C1765 C 0.83066 0.15416 0.74921 0.0
C1766 C 0.84899 0.18067 0.73757 0.0
H1767 H 0.80987 0.13681 0.78117 0.0
H1768 H 0.82283 0.13085 0.74075 0.0
C1769 C 0.85868 0.21052 0.74881 0.0
C1770 C 0.3465 0.16866 0.56297 0.0
C1771 C 0.31785 0.16232 0.55639 0.0
H1772 H 0.37841 0.17621 0.59161 0.0
C1773 C 0.29951 0.16007 0.57423 0.0
H1774 H 0.36093 0.17032 0.54944 0.0
C1775 C 0.30919 0.16262 0.59825 0.0
C1776 C 0.33762 0.16825 0.60488 0.0
H1777 H 0.27722 0.1548 0.56953 0.0
H1778 H 0.29406 0.15919 0.61157 0.0
C1779 C 0.35644 0.17199 0.58704 0.0
C1780 C 0.84842 0.17659 0.57641 0.0
C1781 C 0.83697 0.14608 0.5653 0.0
H1782 H 0.84988 0.20484 0.60741 0.0
C1783 C 0.81949 0.12047 0.57824 0.0
H1784 H 0.86192 0.19688 0.56708 0.0
C1785 C 0.81189 0.12508 0.60076 0.0
C1786 C 0.8224 0.15541 0.61141 0.0
H1787 H 0.81116 0.09661 0.57081 0.0
H1788 H 0.79779 0.1048 0.60991 0.0
C1789 C 0.84135 0.18119 0.59938 0.0
C1790 C 0.81339 0.62827 0.56544 0.0
C1791 C 0.83685 0.65722 0.56025 0.0
H1792 H 0.78963 0.59949 0.59274 0.0
C1793 C 0.85572 0.67884 0.57903 0.0
H1794 H 0.79839 0.61138 0.55116 0.0
C1795 C 0.85021 0.6725 0.60261 0.0
C1796 C 0.82631 0.64398 0.60797 0.0
H1797 H 0.87357 0.70155 0.57548 0.0
H1798 H 0.8638 0.69071 0.61658 0.0
C1799 C 0.8084 0.62151 0.58916 0.0
loop_
_geom_bond_atom_site_label_1
_geom_bond_atom_site_label_2
_geom_bond_distance
_geom_bond_site_symmetry_2
_ccdc_geom_bond_type
C0 C1 1.391 . S
C0 C4 1.391 . S
C0 H42 0.948 . S
C1 C0 1.391 . S
C1 C2 1.391 . S
C2 C1 1.391 . S
C2 H58 0.947 . S
C2 C59 1.392 . S
C3 C4 1.391 . S
C3 C7 1.397 . S
C3 C59 1.419 . S
C4 C0 1.391 . S
C4 C3 1.391 . S
C4 C5 1.399 . S
C5 C4 1.399 . S
C5 C8 1.396 . S
C5 C17 1.453 . S
C5 C18 1.684 . S
H6 C30 0.948 . S
C7 C3 1.397 . S
C7 C8 1.394 . S
C7 C26 1.723 . S
C8 C5 1.396 . S
C8 C7 1.394 . S
C8 C38 1.723 . S
H9 C32 0.947 . S
H10 C33 0.948 . S
H11 C39 0.982 . S
H12 C40 0.979 . S
H13 C40 0.980 . S
H14 C40 0.983 . S
H15 C39 0.979 . S
H16 C39 0.977 . S
C17 C5 1.453 . S
C17 H46 0.982 . S
C17 H47 0.979 . S
C17 H48 0.977 . S
C18 C5 1.684 . S
C18 H43 0.979 . S
C18 H44 0.980 . S
C18 H45 0.983 . S
C19 C20 1.391 . S
C19 C24 1.391 . S
C19 H49 0.948 . S
C20 C19 1.391 . S
C20 C21 1.391 . S
C21 C20 1.391 . S
C21 C22 1.392 . S
C21 H50 0.947 . S
C22 C21 1.392 . S
C22 C23 1.419 . S
C22 H51 0.948 . S
C23 C22 1.419 . S
C23 C24 1.391 . S
C23 C27 1.397 . S
C24 C19 1.391 . S
C24 C23 1.391 . S
C24 C25 1.399 . S
C25 C24 1.399 . S
C25 C26 1.396 . S
C25 C28 1.453 . S
C25 C29 1.684 . S
C26 C7 1.723 . S
C26 C25 1.396 . S
C26 C27 1.394 . S
C27 C23 1.397 . S
C27 C26 1.394 . S
C27 C37 1.723 . S
C28 C25 1.453 . S
C28 H52 0.982 . S
C28 H53 0.979 . S
C28 H54 0.977 . S
C29 C25 1.684 . S
C29 H55 0.979 . S
C29 H56 0.980 . S
C29 H57 0.983 . S
C30 H6 0.948 . S
C30 C31 1.391 . S
C30 C35 1.391 . S
C31 C30 1.391 . S
C31 C32 1.391 . S
C32 H9 0.947 . S
C32 C31 1.391 . S
C32 C33 1.392 . S
C33 H10 0.948 . S
C33 C32 1.392 . S
C33 C34 1.419 . S
C34 C33 1.419 . S
C34 C35 1.391 . S
C34 C38 1.397 . S
C35 C30 1.391 . S
C35 C34 1.391 . S
C35 C36 1.399 . S
C36 C35 1.399 . S
C36 C37 1.396 . S
C36 C39 1.453 . S
C36 C40 1.684 . S
C37 C27 1.723 . S
C37 C36 1.396 . S
C37 C38 1.394 . S
C38 C8 1.723 . S
C38 C34 1.397 . S
C38 C37 1.394 . S
C39 H11 0.982 . S
C39 H15 0.979 . S
C39 H16 0.977 . S
C39 C36 1.453 . S
C40 H12 0.979 . S
C40 H13 0.980 . S
C40 H14 0.983 . S
C40 C36 1.684 . S
H41 C59 0.948 . S
H42 C0 0.948 . S
H43 C18 0.979 . S
H44 C18 0.980 . S
H45 C18 0.983 . S
H46 C17 0.982 . S
H47 C17 0.979 . S
H48 C17 0.977 . S
H49 C19 0.948 . S
H50 C21 0.947 . S
H51 C22 0.948 . S
H52 C28 0.982 . S
H53 C28 0.979 . S
H54 C28 0.977 . S
H55 C29 0.979 . S
H56 C29 0.980 . S
H57 C29 0.983 . S
H58 C2 0.947 . S
C59 C2 1.392 . S
C59 C3 1.419 . S
C59 H41 0.948 . S
C60 C61 1.391 . S
C60 C64 1.391 . S
C60 H102 0.948 . S
C61 C60 1.391 . S
C61 C62 1.391 . S
C62 C61 1.391 . S
C62 H118 0.947 . S
C62 C119 1.392 . S
C63 C64 1.391 . S
C63 C67 1.397 . S
C63 C119 1.419 . S
C64 C60 1.391 . S
C64 C63 1.391 . S
C64 C65 1.399 . S
C65 C64 1.399 . S
C65 C68 1.396 . S
C65 C77 1.453 . S
C65 C78 1.684 . S
H66 C90 0.948 . S
C67 C63 1.397 . S
C67 C68 1.394 . S
C67 C86 1.723 . S
C68 C65 1.396 . S
C68 C67 1.394 . S
C68 C98 1.723 . S
H69 C92 0.947 . S
H70 C93 0.948 . S
H71 C99 0.982 . S
H72 C100 0.979 . S
H73 C100 0.980 . S
H74 C100 0.983 . S
H75 C99 0.979 . S
H76 C99 0.977 . S
C77 C65 1.453 . S
C77 H106 0.982 . S
C77 H107 0.979 . S
C77 H108 0.977 . S
C78 C65 1.684 . S
C78 H103 0.979 . S
C78 H104 0.980 . S
C78 H105 0.983 . S
C79 C80 1.391 . S
C79 C84 1.391 . S
C79 H109 0.948 . S
C80 C79 1.391 . S
C80 C81 1.391 . S
C81 C80 1.391 . S
C81 C82 1.392 . S
C81 H110 0.947 . S
C82 C81 1.392 . S
C82 C83 1.419 . S
C82 H111 0.948 . S
C83 C82 1.419 . S
C83 C84 1.391 . S
C83 C87 1.397 . S
C84 C79 1.391 . S
C84 C83 1.391 . S
C84 C85 1.399 . S
C85 C84 1.399 . S
C85 C86 1.396 . S
C85 C88 1.453 . S
C85 C89 1.684 . S
C86 C67 1.723 . S
C86 C85 1.396 . S
C86 C87 1.394 . S
C87 C83 1.397 . S
C87 C86 1.394 . S
C87 C97 1.723 . S
C88 C85 1.453 . S
C88 H112 0.982 . S
C88 H113 0.979 . S
C88 H114 0.977 . S
C89 C85 1.684 . S
C89 H115 0.979 . S
C89 H116 0.980 . S
C89 H117 0.983 . S
C90 H66 0.948 . S
C90 C91 1.391 . S
C90 C95 1.391 . S
C91 C90 1.391 . S
C91 C92 1.391 . S
C92 H69 0.947 . S
C92 C91 1.391 . S
C92 C93 1.392 . S
C93 H70 0.948 . S
C93 C92 1.392 . S
C93 C94 1.419 . S
C94 C93 1.419 . S
C94 C95 1.391 . S
C94 C98 1.397 . S
C95 C90 1.391 . S
C95 C94 1.391 . S
C95 C96 1.399 . S
C96 C95 1.399 . S
C96 C97 1.396 . S
C96 C99 1.453 . S
C96 C100 1.684 . S
C97 C87 1.723 . S
C97 C96 1.396 . S
C97 C98 1.394 . S
C98 C68 1.723 . S
C98 C94 1.397 . S
C98 C97 1.394 . S
C99 H71 0.982 . S
C99 H75 0.979 . S
C99 H76 0.977 . S
C99 C96 1.453 . S
C100 H72 0.979 . S
C100 H73 0.980 . S
C100 H74 0.983 . S
C100 C96 1.684 . S
H101 C119 0.948 . S
H102 C60 0.948 . S
H103 C78 0.979 . S
H104 C78 0.980 . S
H105 C78 0.983 . S
H106 C77 0.982 . S
H107 C77 0.979 . S
H108 C77 0.977 . S
H109 C79 0.948 . S
H110 C81 0.947 . S
H111 C82 0.948 . S
H112 C88 0.982 . S
H113 C88 0.979 . S
H114 C88 0.977 . S
H115 C89 0.979 . S
H116 C89 0.980 . S
H117 C89 0.983 . S
H118 C62 0.947 . S
C119 C62 1.392 . S
C119 C63 1.419 . S
C119 H101 0.948 . S
C120 C121 1.391 . S
C120 C124 1.391 . S
C120 H162 0.948 . S
C121 C120 1.391 . S
C121 C122 1.391 . S
C122 C121 1.391 . S
C122 H178 0.947 . S
C122 C179 1.392 . S
C123 C124 1.391 . S
C123 C127 1.397 . S
C123 C179 1.419 . S
C124 C120 1.391 . S
C124 C123 1.391 . S
C124 C125 1.399 . S
C125 C124 1.399 . S
C125 C128 1.396 . S
C125 C137 1.453 . S
C125 C138 1.684 . S
H126 C150 0.948 . S
C127 C123 1.397 . S
C127 C128 1.394 . S
C127 C146 1.723 . S
C128 C125 1.396 . S
C128 C127 1.394 . S
C128 C158 1.723 . S
H129 C152 0.947 . S
H130 C153 0.948 . S
H131 C159 0.982 . S
H132 C160 0.979 . S
H133 C160 0.980 . S
H134 C160 0.983 . S
H135 C159 0.979 . S
H136 C159 0.977 . S
C137 C125 1.453 . S
C137 H166 0.982 . S
C137 H167 0.979 . S
C137 H168 0.977 . S
C138 C125 1.684 . S
C138 H163 0.979 . S
C138 H164 0.980 . S
C138 H165 0.983 . S
C139 C140 1.391 . S
C139 C144 1.391 . S
C139 H169 0.948 . S
C140 C139 1.391 . S
C140 C141 1.391 . S
C141 C140 1.391 . S
C141 C142 1.392 . S
C141 H170 0.947 . S
C142 C141 1.392 . S
C142 C143 1.419 . S
C142 H171 0.948 . S
C143 C142 1.419 . S
C143 C144 1.391 . S
C143 C147 1.397 . S
C144 C139 1.391 . S
C144 C143 1.391 . S
C144 C145 1.399 . S
C145 C144 1.399 . S
C145 C146 1.396 . S
C145 C148 1.453 . S
C145 C149 1.684 . S
C146 C127 1.723 . S
C146 C145 1.396 . S
C146 C147 1.394 . S
C147 C143 1.397 . S
C147 C146 1.394 . S
C147 C157 1.723 . S
C148 C145 1.453 . S
C148 H172 0.982 . S
C148 H173 0.979 . S
C148 H174 0.977 . S
C149 C145 1.684 . S
C149 H175 0.979 . S
C149 H176 0.980 . S
C149 H177 0.983 . S
C150 H126 0.948 . S
C150 C151 1.391 . S
C150 C155 1.391 . S
C151 C150 1.391 . S
C151 C152 1.391 . S
C152 H129 0.947 . S
C152 C151 1.391 . S
C152 C153 1.392 . S
C153 H130 0.948 . S
C153 C152 1.392 . S
C153 C154 1.419 . S
C154 C153 1.419 . S
C154 C155 1.391 . S
C154 C158 1.397 . S
C155 C150 1.391 . S
C155 C154 1.391 . S
C155 C156 1.399 . S
C156 C155 1.399 . S
C156 C157 1.396 . S
C156 C159 1.453 . S
C156 C160 1.684 . S
C157 C147 1.723 . S
C157 C156 1.396 . S
C157 C158 1.394 . S
C158 C128 1.723 . S
C158 C154 1.397 . S
C158 C157 1.394 . S
C159 H131 0.982 . S
C159 H135 0.979 . S
C159 H136 0.977 . S
C159 C156 1.453 . S
C160 H132 0.979 . S
C160 H133 0.980 . S
C160 H134 0.983 . S
C160 C156 1.684 . S
H161 C179 0.948 . S
H162 C120 0.948 . S
H163 C138 0.979 . S
H164 C138 0.980 . S
H165 C138 0.983 . S
H166 C137 0.982 . S
H167 C137 0.979 . S
H168 C137 0.977 . S
H169 C139 0.948 . S
H170 C141 0.947 . S
H171 C142 0.948 . S
H172 C148 0.982 . S
H173 C148 0.979 . S
H174 C148 0.977 . S
H175 C149 0.979 . S
H176 C149 0.980 . S
H177 C149 0.983 . S
H178 C122 0.947 . S
C179 C122 1.392 . S
C179 C123 1.419 . S
C179 H161 0.948 . S
C180 C181 1.391 . S
C180 C184 1.391 . S
C180 H222 0.948 . S
C181 C180 1.391 . S
C181 C182 1.391 . S
C182 C181 1.391 . S
C182 H238 0.947 . S
C182 C239 1.392 . S
C183 C184 1.391 . S
C183 C187 1.397 . S
C183 C239 1.419 . S
C184 C180 1.391 . S
C184 C183 1.391 . S
C184 C185 1.399 . S
C185 C184 1.399 . S
C185 C188 1.396 . S
C185 C197 1.453 . S
C185 C198 1.684 . S
H186 C210 0.948 . S
C187 C183 1.397 . S
C187 C188 1.394 . S
C187 C206 1.723 . S
C188 C185 1.396 . S
C188 C187 1.394 . S
C188 C218 1.723 . S
H189 C212 0.947 . S
H190 C213 0.948 . S
H191 C219 0.982 . S
H192 C220 0.979 . S
H193 C220 0.980 . S
H194 C220 0.983 . S
H195 C219 0.979 . S
H196 C219 0.977 . S
C197 C185 1.453 . S
C197 H226 0.982 . S
C197 H227 0.979 . S
C197 H228 0.977 . S
C198 C185 1.684 . S
C198 H223 0.979 . S
C198 H224 0.980 . S
C198 H225 0.983 . S
C199 C200 1.391 . S
C199 C204 1.391 . S
C199 H229 0.948 . S
C200 C199 1.391 . S
C200 C201 1.391 . S
C201 C200 1.391 . S
C201 C202 1.392 . S
C201 H230 0.947 . S
C202 C201 1.392 . S
C202 C203 1.419 . S
C202 H231 0.948 . S
C203 C202 1.419 . S
C203 C204 1.391 . S
C203 C207 1.397 . S
C204 C199 1.391 . S
C204 C203 1.391 . S
C204 C205 1.399 . S
C205 C204 1.399 . S
C205 C206 1.396 . S
C205 C208 1.453 . S
C205 C209 1.684 . S
C206 C187 1.723 . S
C206 C205 1.396 . S
C206 C207 1.394 . S
C207 C203 1.397 . S
C207 C206 1.394 . S
C207 C217 1.723 . S
C208 C205 1.453 . S
C208 H232 0.982 . S
C208 H233 0.979 . S
C208 H234 0.977 . S
C209 C205 1.684 . S
C209 H235 0.979 . S
C209 H236 0.980 . S
C209 H237 0.983 . S
C210 H186 0.948 . S
C210 C211 1.391 . S
C210 C215 1.391 . S
C211 C210 1.391 . S
C211 C212 1.391 . S
C212 H189 0.947 . S
C212 C211 1.391 . S
C212 C213 1.392 . S
C213 H190 0.948 . S
C213 C212 1.392 . S
C213 C214 1.419 . S
C214 C213 1.419 . S
C214 C215 1.391 . S
C214 C218 1.397 . S
C215 C210 1.391 . S
C215 C214 1.391 . S
C215 C216 1.399 . S
C216 C215 1.399 . S
C216 C217 1.396 . S
C216 C219 1.453 . S
C216 C220 1.684 . S
C217 C207 1.723 . S
C217 C216 1.396 . S
C217 C218 1.394 . S
C218 C188 1.723 . S
C218 C214 1.397 . S
C218 C217 1.394 . S
C219 H191 0.982 . S
C219 H195 0.979 . S
C219 H196 0.977 . S
C219 C216 1.453 . S
C220 H192 0.979 . S
C220 H193 0.980 . S
C220 H194 0.983 . S
C220 C216 1.684 . S
H221 C239 0.948 . S
H222 C180 0.948 . S
H223 C198 0.979 . S
H224 C198 0.980 . S
H225 C198 0.983 . S
H226 C197 0.982 . S
H227 C197 0.979 . S
H228 C197 0.977 . S
H229 C199 0.948 . S
H230 C201 0.947 . S
H231 C202 0.948 . S
H232 C208 0.982 . S
H233 C208 0.979 . S
H234 C208 0.977 . S
H235 C209 0.979 . S
H236 C209 0.980 . S
H237 C209 0.983 . S
H238 C182 0.947 . S
C239 C182 1.392 . S
C239 C183 1.419 . S
C239 H221 0.948 . S
C240 C241 1.391 . S
C240 C244 1.391 . S
C240 H282 0.948 . S
C241 C240 1.391 . S
C241 C242 1.391 . S
C242 C241 1.391 . S
C242 H298 0.947 . S
C242 C299 1.392 . S
C243 C244 1.391 . S
C243 C247 1.397 . S
C243 C299 1.419 . S
C244 C240 1.391 . S
C244 C243 1.391 . S
C244 C245 1.399 . S
C245 C244 1.399 . S
C245 C248 1.396 . S
C245 C257 1.453 . S
C245 C258 1.684 . S
H246 C270 0.948 . S
C247 C243 1.397 . S
C247 C248 1.394 . S
C247 C266 1.723 . S
C248 C245 1.396 . S
C248 C247 1.394 . S
C248 C278 1.723 . S
H249 C272 0.947 . S
H250 C273 0.948 . S
H251 C279 0.982 . S
H252 C280 0.979 . S
H253 C280 0.980 . S
H254 C280 0.983 . S
H255 C279 0.979 . S
H256 C279 0.977 . S
C257 C245 1.453 . S
C257 H286 0.982 . S
C257 H287 0.979 . S
C257 H288 0.977 . S
C258 C245 1.684 . S
C258 H283 0.979 . S
C258 H284 0.980 . S
C258 H285 0.983 . S
C259 C260 1.391 . S
C259 C264 1.391 . S
C259 H289 0.948 . S
C260 C259 1.391 . S
C260 C261 1.391 . S
C261 C260 1.391 . S
C261 C262 1.392 . S
C261 H290 0.947 . S
C262 C261 1.392 . S
C262 C263 1.419 . S
C262 H291 0.948 . S
C263 C262 1.419 . S
C263 C264 1.391 . S
C263 C267 1.397 . S
C264 C259 1.391 . S
C264 C263 1.391 . S
C264 C265 1.399 . S
C265 C264 1.399 . S
C265 C266 1.396 . S
C265 C268 1.453 . S
C265 C269 1.684 . S
C266 C247 1.723 . S
C266 C265 1.396 . S
C266 C267 1.394 . S
C267 C263 1.397 . S
C267 C266 1.394 . S
C267 C277 1.723 . S
C268 C265 1.453 . S
C268 H292 0.982 . S
C268 H293 0.979 . S
C268 H294 0.977 . S
C269 C265 1.684 . S
C269 H295 0.979 . S
C269 H296 0.980 . S
C269 H297 0.983 . S
C270 H246 0.948 . S
C270 C271 1.391 . S
C270 C275 1.391 . S
C271 C270 1.391 . S
C271 C272 1.391 . S
C272 H249 0.947 . S
C272 C271 1.391 . S
C272 C273 1.392 . S
C273 H250 0.948 . S
C273 C272 1.392 . S
C273 C274 1.419 . S
C274 C273 1.419 . S
C274 C275 1.391 . S
C274 C278 1.397 . S
C275 C270 1.391 . S
C275 C274 1.391 . S
C275 C276 1.399 . S
C276 C275 1.399 . S
C276 C277 1.396 . S
C276 C279 1.453 . S
C276 C280 1.684 . S
C277 C267 1.723 . S
C277 C276 1.396 . S
C277 C278 1.394 . S
C278 C248 1.723 . S
C278 C274 1.397 . S
C278 C277 1.394 . S
C279 H251 0.982 . S
C279 H255 0.979 . S
C279 H256 0.977 . S
C279 C276 1.453 . S
C280 H252 0.979 . S
C280 H253 0.980 . S
C280 H254 0.983 . S
C280 C276 1.684 . S
H281 C299 0.948 . S
H282 C240 0.948 . S
H283 C258 0.979 . S
H284 C258 0.980 . S
H285 C258 0.983 . S
H286 C257 0.982 . S
H287 C257 0.979 . S
H288 C257 0.977 . S
H289 C259 0.948 . S
H290 C261 0.947 . S
H291 C262 0.948 . S
H292 C268 0.982 . S
H293 C268 0.979 . S
H294 C268 0.977 . S
H295 C269 0.979 . S
H296 C269 0.980 . S
H297 C269 0.983 . S
H298 C242 0.947 . S
C299 C242 1.392 . S
C299 C243 1.419 . S
C299 H281 0.948 . S
C300 C301 1.391 . S
C300 C304 1.391 . S
C300 H342 0.948 . S
C301 C300 1.391 . S
C301 C302 1.391 . S
C302 C301 1.391 . S
C302 H358 0.947 . S
C302 C359 1.392 . S
C303 C304 1.391 . S
C303 C307 1.397 . S
C303 C359 1.419 . S
C304 C300 1.391 . S
C304 C303 1.391 . S
C304 C305 1.399 . S
C305 C304 1.399 . S
C305 C308 1.396 . S
C305 C317 1.453 . S
C305 C318 1.684 . S
H306 C330 0.948 . S
C307 C303 1.397 . S
C307 C308 1.394 . S
C307 C326 1.723 . S
C308 C305 1.396 . S
C308 C307 1.394 . S
C308 C338 1.723 . S
H309 C332 0.947 . S
H310 C333 0.948 . S
H311 C339 0.982 . S
H312 C340 0.979 . S
H313 C340 0.980 . S
H314 C340 0.983 . S
H315 C339 0.979 . S
H316 C339 0.977 . S
C317 C305 1.453 . S
C317 H346 0.982 . S
C317 H347 0.979 . S
C317 H348 0.977 . S
C318 C305 1.684 . S
C318 H343 0.979 . S
C318 H344 0.980 . S
C318 H345 0.983 . S
C319 C320 1.391 . S
C319 C324 1.391 . S
C319 H349 0.948 . S
C320 C319 1.391 . S
C320 C321 1.391 . S
C321 C320 1.391 . S
C321 C322 1.392 . S
C321 H350 0.947 . S
C322 C321 1.392 . S
C322 C323 1.419 . S
C322 H351 0.948 . S
C323 C322 1.419 . S
C323 C324 1.391 . S
C323 C327 1.397 . S
C324 C319 1.391 . S
C324 C323 1.391 . S
C324 C325 1.399 . S
C325 C324 1.399 . S
C325 C326 1.396 . S
C325 C328 1.453 . S
C325 C329 1.684 . S
C326 C307 1.723 . S
C326 C325 1.396 . S
C326 C327 1.394 . S
C327 C323 1.397 . S
C327 C326 1.394 . S
C327 C337 1.723 . S
C328 C325 1.453 . S
C328 H352 0.982 . S
C328 H353 0.979 . S
C328 H354 0.977 . S
C329 C325 1.684 . S
C329 H355 0.979 . S
C329 H356 0.980 . S
C329 H357 0.983 . S
C330 H306 0.948 . S
C330 C331 1.391 . S
C330 C335 1.391 . S
C331 C330 1.391 . S
C331 C332 1.391 . S
C332 H309 0.947 . S
C332 C331 1.391 . S
C332 C333 1.392 . S
C333 H310 0.948 . S
C333 C332 1.392 . S
C333 C334 1.419 . S
C334 C333 1.419 . S
C334 C335 1.391 . S
C334 C338 1.397 . S
C335 C330 1.391 . S
C335 C334 1.391 . S
C335 C336 1.399 . S
C336 C335 1.399 . S
C336 C337 1.396 . S
C336 C339 1.453 . S
C336 C340 1.684 . S
C337 C327 1.723 . S
C337 C336 1.396 . S
C337 C338 1.394 . S
C338 C308 1.723 . S
C338 C334 1.397 . S
C338 C337 1.394 . S
C339 H311 0.982 . S
C339 H315 0.979 . S
C339 H316 0.977 . S
C339 C336 1.453 . S
C340 H312 0.979 . S
C340 H313 0.980 . S
C340 H314 0.983 . S
C340 C336 1.684 . S
H341 C359 0.948 . S
H342 C300 0.948 . S
H343 C318 0.979 . S
H344 C318 0.980 . S
H345 C318 0.983 . S
H346 C317 0.982 . S
H347 C317 0.979 . S
H348 C317 0.977 . S
H349 C319 0.948 . S
H350 C321 0.947 . S
H351 C322 0.948 . S
H352 C328 0.982 . S
H353 C328 0.979 . S
H354 C328 0.977 . S
H355 C329 0.979 . S
H356 C329 0.980 . S
H357 C329 0.983 . S
H358 C302 0.947 . S
C359 C302 1.392 . S
C359 C303 1.419 . S
C359 H341 0.948 . S
C360 C361 1.391 . S
C360 C364 1.391 . S
C360 H402 0.948 . S
C361 C360 1.391 . S
C361 C362 1.391 . S
C362 C361 1.391 . S
C362 H418 0.947 . S
C362 C419 1.392 . S
C363 C364 1.391 . S
C363 C367 1.397 . S
C363 C419 1.419 . S
C364 C360 1.391 . S
C364 C363 1.391 . S
C364 C365 1.399 . S
C365 C364 1.399 . S
C365 C368 1.396 . S
C365 C377 1.453 . S
C365 C378 1.684 . S
H366 C390 0.948 . S
C367 C363 1.397 . S
C367 C368 1.394 . S
C367 C386 1.723 . S
C368 C365 1.396 . S
C368 C367 1.394 . S
C368 C398 1.723 . S
H369 C392 0.947 . S
H370 C393 0.948 . S
H371 C399 0.982 . S
H372 C400 0.979 . S
H373 C400 0.980 . S
H374 C400 0.983 . S
H375 C399 0.979 . S
H376 C399 0.977 . S
C377 C365 1.453 . S
C377 H406 0.982 . S
C377 H407 0.979 . S
C377 H408 0.977 . S
C378 C365 1.684 . S
C378 H403 0.979 . S
C378 H404 0.980 . S
C378 H405 0.983 . S
C379 C380 1.391 . S
C379 C384 1.391 . S
C379 H409 0.948 . S
C380 C379 1.391 . S
C380 C381 1.391 . S
C381 C380 1.391 . S
C381 C382 1.392 . S
C381 H410 0.947 . S
C382 C381 1.392 . S
C382 C383 1.419 . S
C382 H411 0.948 . S
C383 C382 1.419 . S
C383 C384 1.391 . S
C383 C387 1.397 . S
C384 C379 1.391 . S
C384 C383 1.391 . S
C384 C385 1.399 . S
C385 C384 1.399 . S
C385 C386 1.396 . S
C385 C388 1.453 . S
C385 C389 1.684 . S
C386 C367 1.723 . S
C386 C385 1.396 . S
C386 C387 1.394 . S
C387 C383 1.397 . S
C387 C386 1.394 . S
C387 C397 1.723 . S
C388 C385 1.453 . S
C388 H412 0.982 . S
C388 H413 0.979 . S
C388 H414 0.977 . S
C389 C385 1.684 . S
C389 H415 0.979 . S
C389 H416 0.980 . S
C389 H417 0.983 . S
C390 H366 0.948 . S
C390 C391 1.391 . S
C390 C395 1.391 . S
C391 C390 1.391 . S
C391 C392 1.391 . S
C392 H369 0.947 . S
C392 C391 1.391 . S
C392 C393 1.392 . S
C393 H370 0.948 . S
C393 C392 1.392 . S
C393 C394 1.419 . S
C394 C393 1.419 . S
C394 C395 1.391 . S
C394 C398 1.397 . S
C395 C390 1.391 . S
C395 C394 1.391 . S
C395 C396 1.399 . S
C396 C395 1.399 . S
C396 C397 1.396 . S
C396 C399 1.453 . S
C396 C400 1.684 . S
C397 C387 1.723 . S
C397 C396 1.396 . S
C397 C398 1.394 . S
C398 C368 1.723 . S
C398 C394 1.397 . S
C398 C397 1.394 . S
C399 H371 0.982 . S
C399 H375 0.979 . S
C399 H376 0.977 . S
C399 C396 1.453 . S
C400 H372 0.979 . S
C400 H373 0.980 . S
C400 H374 0.983 . S
C400 C396 1.684 . S
H401 C419 0.948 . S
H402 C360 0.948 . S
H403 C378 0.979 . S
H404 C378 0.980 . S
H405 C378 0.983 . S
H406 C377 0.982 . S
H407 C377 0.979 . S
H408 C377 0.977 . S
H409 C379 0.948 . S
H410 C381 0.947 . S
H411 C382 0.948 . S
H412 C388 0.982 . S
H413 C388 0.979 . S
H414 C388 0.977 . S
H415 C389 0.979 . S
H416 C389 0.980 . S
H417 C389 0.983 . S
H418 C362 0.947 . S
C419 C362 1.392 . S
C419 C363 1.419 . S
C419 H401 0.948 . S
C420 C421 1.391 . S
C420 C424 1.391 . S
C420 H462 0.948 . S
C421 C420 1.391 . S
C421 C422 1.391 . S
C422 C421 1.391 . S
C422 H478 0.947 . S
C422 C479 1.392 . S
C423 C424 1.391 . S
C423 C427 1.397 . S
C423 C479 1.419 . S
C424 C420 1.391 . S
C424 C423 1.391 . S
C424 C425 1.399 . S
C425 C424 1.399 . S
C425 C428 1.396 . S
C425 C437 1.453 . S
C425 C438 1.684 . S
H426 C450 0.948 . S
C427 C423 1.397 . S
C427 C428 1.394 . S
C427 C446 1.723 . S
C428 C425 1.396 . S
C428 C427 1.394 . S
C428 C458 1.723 . S
H429 C452 0.947 . S
H430 C453 0.948 . S
H431 C459 0.982 . S
H432 C460 0.979 . S
H433 C460 0.980 . S
H434 C460 0.983 . S
H435 C459 0.979 . S
H436 C459 0.977 . S
C437 C425 1.453 . S
C437 H466 0.982 . S
C437 H467 0.979 . S
C437 H468 0.977 . S
C438 C425 1.684 . S
C438 H463 0.979 . S
C438 H464 0.980 . S
C438 H465 0.983 . S
C439 C440 1.391 . S
C439 C444 1.391 . S
C439 H469 0.948 . S
C440 C439 1.391 . S
C440 C441 1.391 . S
C441 C440 1.391 . S
C441 C442 1.392 . S
C441 H470 0.947 . S
C442 C441 1.392 . S
C442 C443 1.419 . S
C442 H471 0.948 . S
C443 C442 1.419 . S
C443 C444 1.391 . S
C443 C447 1.397 . S
C444 C439 1.391 . S
C444 C443 1.391 . S
C444 C445 1.399 . S
C445 C444 1.399 . S
C445 C446 1.396 . S
C445 C448 1.453 . S
C445 C449 1.684 . S
C446 C427 1.723 . S
C446 C445 1.396 . S
C446 C447 1.394 . S
C447 C443 1.397 . S
C447 C446 1.394 . S
C447 C457 1.723 . S
C448 C445 1.453 . S
C448 H472 0.982 . S
C448 H473 0.979 . S
C448 H474 0.977 . S
C449 C445 1.684 . S
C449 H475 0.979 . S
C449 H476 0.980 . S
C449 H477 0.983 . S
C450 H426 0.948 . S
C450 C451 1.391 . S
C450 C455 1.391 . S
C451 C450 1.391 . S
C451 C452 1.391 . S
C452 H429 0.947 . S
C452 C451 1.391 . S
C452 C453 1.392 . S
C453 H430 0.948 . S
C453 C452 1.392 . S
C453 C454 1.419 . S
C454 C453 1.419 . S
C454 C455 1.391 . S
C454 C458 1.397 . S
C455 C450 1.391 . S
C455 C454 1.391 . S
C455 C456 1.399 . S
C456 C455 1.399 . S
C456 C457 1.396 . S
C456 C459 1.453 . S
C456 C460 1.684 . S
C457 C447 1.723 . S
C457 C456 1.396 . S
C457 C458 1.394 . S
C458 C428 1.723 . S
C458 C454 1.397 . S
C458 C457 1.394 . S
C459 H431 0.982 . S
C459 H435 0.979 . S
C459 H436 0.977 . S
C459 C456 1.453 . S
C460 H432 0.979 . S
C460 H433 0.980 . S
C460 H434 0.983 . S
C460 C456 1.684 . S
H461 C479 0.948 . S
H462 C420 0.948 . S
H463 C438 0.979 . S
H464 C438 0.980 . S
H465 C438 0.983 . S
H466 C437 0.982 . S
H467 C437 0.979 . S
H468 C437 0.977 . S
H469 C439 0.948 . S
H470 C441 0.947 . S
H471 C442 0.948 . S
H472 C448 0.982 . S
H473 C448 0.979 . S
H474 C448 0.977 . S
H475 C449 0.979 . S
H476 C449 0.980 . S
H477 C449 0.983 . S
H478 C422 0.947 . S
C479 C422 1.392 . S
C479 C423 1.419 . S
C479 H461 0.948 . S
C480 C481 1.391 . S
C480 C484 1.391 . S
C480 H522 0.948 . S
C481 C480 1.391 . S
C481 C482 1.391 . S
C482 C481 1.391 . S
C482 H538 0.947 . S
C482 C539 1.392 . S
C483 C484 1.391 . S
C483 C487 1.397 . S
C483 C539 1.419 . S
C484 C480 1.391 . S
C484 C483 1.391 . S
C484 C485 1.399 . S
C485 C484 1.399 . S
C485 C488 1.396 . S
C485 C497 1.453 . S
C485 C498 1.684 . S
H486 C510 0.948 . S
C487 C483 1.397 . S
C487 C488 1.394 . S
C487 C506 1.723 . S
C488 C485 1.396 . S
C488 C487 1.394 . S
C488 C518 1.723 . S
H489 C512 0.947 . S
H490 C513 0.948 . S
H491 C519 0.982 . S
H492 C520 0.979 . S
H493 C520 0.980 . S
H494 C520 0.983 . S
H495 C519 0.979 . S
H496 C519 0.977 . S
C497 C485 1.453 . S
C497 H526 0.982 . S
C497 H527 0.979 . S
C497 H528 0.977 . S
C498 C485 1.684 . S
C498 H523 0.979 . S
C498 H524 0.980 . S
C498 H525 0.983 . S
C499 C500 1.391 . S
C499 C504 1.391 . S
C499 H529 0.948 . S
C500 C499 1.391 . S
C500 C501 1.391 . S
C501 C500 1.391 . S
C501 C502 1.392 . S
C501 H530 0.947 . S
C502 C501 1.392 . S
C502 C503 1.419 . S
C502 H531 0.948 . S
C503 C502 1.419 . S
C503 C504 1.391 . S
C503 C507 1.397 . S
C504 C499 1.391 . S
C504 C503 1.391 . S
C504 C505 1.399 . S
C505 C504 1.399 . S
C505 C506 1.396 . S
C505 C508 1.453 . S
C505 C509 1.684 . S
C506 C487 1.723 . S
C506 C505 1.396 . S
C506 C507 1.394 . S
C507 C503 1.397 . S
C507 C506 1.394 . S
C507 C517 1.723 . S
C508 C505 1.453 . S
C508 H532 0.982 . S
C508 H533 0.979 . S
C508 H534 0.977 . S
C509 C505 1.684 . S
C509 H535 0.979 . S
C509 H536 0.980 . S
C509 H537 0.983 . S
C510 H486 0.948 . S
C510 C511 1.391 . S
C510 C515 1.391 . S
C511 C510 1.391 . S
C511 C512 1.391 . S
C512 H489 0.947 . S
C512 C511 1.391 . S
C512 C513 1.392 . S
C513 H490 0.948 . S
C513 C512 1.392 . S
C513 C514 1.419 . S
C514 C513 1.419 . S
C514 C515 1.391 . S
C514 C518 1.397 . S
C515 C510 1.391 . S
C515 C514 1.391 . S
C515 C516 1.399 . S
C516 C515 1.399 . S
C516 C517 1.396 . S
C516 C519 1.453 . S
C516 C520 1.684 . S
C517 C507 1.723 . S
C517 C516 1.396 . S
C517 C518 1.394 . S
C518 C488 1.723 . S
C518 C514 1.397 . S
C518 C517 1.394 . S
C519 H491 0.982 . S
C519 H495 0.979 . S
C519 H496 0.977 . S
C519 C516 1.453 . S
C520 H492 0.979 . S
C520 H493 0.980 . S
C520 H494 0.983 . S
C520 C516 1.684 . S
H521 C539 0.948 . S
H522 C480 0.948 . S
H523 C498 0.979 . S
H524 C498 0.980 . S
H525 C498 0.983 . S
H526 C497 0.982 . S
H527 C497 0.979 . S
H528 C497 0.977 . S
H529 C499 0.948 . S
H530 C501 0.947 . S
H531 C502 0.948 . S
H532 C508 0.982 . S
H533 C508 0.979 . S
H534 C508 0.977 . S
H535 C509 0.979 . S
H536 C509 0.980 . S
H537 C509 0.983 . S
H538 C482 0.947 . S
C539 C482 1.392 . S
C539 C483 1.419 . S
C539 H521 0.948 . S
C540 C541 1.391 . S
C540 C544 1.391 . S
C540 H582 0.948 . S
C541 C540 1.391 . S
C541 C542 1.391 . S
C542 C541 1.391 . S
C542 H598 0.947 . S
C542 C599 1.392 . S
C543 C544 1.391 . S
C543 C547 1.397 . S
C543 C599 1.419 . S
C544 C540 1.391 . S
C544 C543 1.391 . S
C544 C545 1.399 . S
C545 C544 1.399 . S
C545 C548 1.396 . S
C545 C557 1.453 . S
C545 C558 1.684 . S
H546 C570 0.948 . S
C547 C543 1.397 . S
C547 C548 1.394 . S
C547 C566 1.723 . S
C548 C545 1.396 . S
C548 C547 1.394 . S
C548 C578 1.723 . S
H549 C572 0.947 . S
H550 C573 0.948 . S
H551 C579 0.982 . S
H552 C580 0.979 . S
H553 C580 0.980 . S
H554 C580 0.983 . S
H555 C579 0.979 . S
H556 C579 0.977 . S
C557 C545 1.453 . S
C557 H586 0.982 . S
C557 H587 0.979 . S
C557 H588 0.977 . S
C558 C545 1.684 . S
C558 H583 0.979 . S
C558 H584 0.980 . S
C558 H585 0.983 . S
C559 C560 1.391 . S
C559 C564 1.391 . S
C559 H589 0.948 . S
C560 C559 1.391 . S
C560 C561 1.391 . S
C561 C560 1.391 . S
C561 C562 1.392 . S
C561 H590 0.947 . S
C562 C561 1.392 . S
C562 C563 1.419 . S
C562 H591 0.948 . S
C563 C562 1.419 . S
C563 C564 1.391 . S
C563 C567 1.397 . S
C564 C559 1.391 . S
C564 C563 1.391 . S
C564 C565 1.399 . S
C565 C564 1.399 . S
C565 C566 1.396 . S
C565 C568 1.453 . S
C565 C569 1.684 . S
C566 C547 1.723 . S
C566 C565 1.396 . S
C566 C567 1.394 . S
C567 C563 1.397 . S
C567 C566 1.394 . S
C567 C577 1.723 . S
C568 C565 1.453 . S
C568 H592 0.982 . S
C568 H593 0.979 . S
C568 H594 0.977 . S
C569 C565 1.684 . S
C569 H595 0.979 . S
C569 H596 0.980 . S
C569 H597 0.983 . S
C570 H546 0.948 . S
C570 C571 1.391 . S
C570 C575 1.391 . S
C571 C570 1.391 . S
C571 C572 1.391 . S
C572 H549 0.947 . S
C572 C571 1.391 . S
C572 C573 1.392 . S
C573 H550 0.948 . S
C573 C572 1.392 . S
C573 C574 1.419 . S
C574 C573 1.419 . S
C574 C575 1.391 . S
C574 C578 1.397 . S
C575 C570 1.391 . S
C575 C574 1.391 . S
C575 C576 1.399 . S
C576 C575 1.399 . S
C576 C577 1.396 . S
C576 C579 1.453 . S
C576 C580 1.684 . S
C577 C567 1.723 . S
C577 C576 1.396 . S
C577 C578 1.394 . S
C578 C548 1.723 . S
C578 C574 1.397 . S
C578 C577 1.394 . S
C579 H551 0.982 . S
C579 H555 0.979 . S
C579 H556 0.977 . S
C579 C576 1.453 . S
C580 H552 0.979 . S
C580 H553 0.980 . S
C580 H554 0.983 . S
C580 C576 1.684 . S
H581 C599 0.948 . S
H582 C540 0.948 . S
H583 C558 0.979 . S
H584 C558 0.980 . S
H585 C558 0.983 . S
H586 C557 0.982 . S
H587 C557 0.979 . S
H588 C557 0.977 . S
H589 C559 0.948 . S
H590 C561 0.947 . S
H591 C562 0.948 . S
H592 C568 0.982 . S
H593 C568 0.979 . S
H594 C568 0.977 . S
H595 C569 0.979 . S
H596 C569 0.980 . S
H597 C569 0.983 . S
H598 C542 0.947 . S
C599 C542 1.392 . S
C599 C543 1.419 . S
C599 H581 0.948 . S
C600 C601 1.391 . S
C600 C604 1.391 . S
C600 H642 0.948 . S
C601 C600 1.391 . S
C601 C602 1.391 . S
C602 C601 1.391 . S
C602 H658 0.947 . S
C602 C659 1.392 . S
C603 C604 1.391 . S
C603 C607 1.397 . S
C603 C659 1.419 . S
C604 C600 1.391 . S
C604 C603 1.391 . S
C604 C605 1.399 . S
C605 C604 1.399 . S
C605 C608 1.396 . S
C605 C617 1.453 . S
C605 C618 1.684 . S
H606 C630 0.948 . S
C607 C603 1.397 . S
C607 C608 1.394 . S
C607 C626 1.723 . S
C608 C605 1.396 . S
C608 C607 1.394 . S
C608 C638 1.723 . S
H609 C632 0.947 . S
H610 C633 0.948 . S
H611 C639 0.982 . S
H612 C640 0.979 . S
H613 C640 0.980 . S
H614 C640 0.983 . S
H615 C639 0.979 . S
H616 C639 0.977 . S
C617 C605 1.453 . S
C617 H646 0.982 . S
C617 H647 0.979 . S
C617 H648 0.977 . S
C618 C605 1.684 . S
C618 H643 0.979 . S
C618 H644 0.980 . S
C618 H645 0.983 . S
C619 C620 1.391 . S
C619 C624 1.391 . S
C619 H649 0.948 . S
C620 C619 1.391 . S
C620 C621 1.391 . S
C621 C620 1.391 . S
C621 C622 1.392 . S
C621 H650 0.947 . S
C622 C621 1.392 . S
C622 C623 1.419 . S
C622 H651 0.948 . S
C623 C622 1.419 . S
C623 C624 1.391 . S
C623 C627 1.397 . S
C624 C619 1.391 . S
C624 C623 1.391 . S
C624 C625 1.399 . S
C625 C624 1.399 . S
C625 C626 1.396 . S
C625 C628 1.453 . S
C625 C629 1.684 . S
C626 C607 1.723 . S
C626 C625 1.396 . S
C626 C627 1.394 . S
C627 C623 1.397 . S
C627 C626 1.394 . S
C627 C637 1.723 . S
C628 C625 1.453 . S
C628 H652 0.982 . S
C628 H653 0.979 . S
C628 H654 0.977 . S
C629 C625 1.684 . S
C629 H655 0.979 . S
C629 H656 0.980 . S
C629 H657 0.983 . S
C630 H606 0.948 . S
C630 C631 1.391 . S
C630 C635 1.391 . S
C631 C630 1.391 . S
C631 C632 1.391 . S
C632 H609 0.947 . S
C632 C631 1.391 . S
C632 C633 1.392 . S
C633 H610 0.948 . S
C633 C632 1.392 . S
C633 C634 1.419 . S
C634 C633 1.419 . S
C634 C635 1.391 . S
C634 C638 1.397 . S
C635 C630 1.391 . S
C635 C634 1.391 . S
C635 C636 1.399 . S
C636 C635 1.399 . S
C636 C637 1.396 . S
C636 C639 1.453 . S
C636 C640 1.684 . S
C637 C627 1.723 . S
C637 C636 1.396 . S
C637 C638 1.394 . S
C638 C608 1.723 . S
C638 C634 1.397 . S
C638 C637 1.394 . S
C639 H611 0.982 . S
C639 H615 0.979 . S
C639 H616 0.977 . S
C639 C636 1.453 . S
C640 H612 0.979 . S
C640 H613 0.980 . S
C640 H614 0.983 . S
C640 C636 1.684 . S
H641 C659 0.948 . S
H642 C600 0.948 . S
H643 C618 0.979 . S
H644 C618 0.980 . S
H645 C618 0.983 . S
H646 C617 0.982 . S
H647 C617 0.979 . S
H648 C617 0.977 . S
H649 C619 0.948 . S
H650 C621 0.947 . S
H651 C622 0.948 . S
H652 C628 0.982 . S
H653 C628 0.979 . S
H654 C628 0.977 . S
H655 C629 0.979 . S
H656 C629 0.980 . S
H657 C629 0.983 . S
H658 C602 0.947 . S
C659 C602 1.392 . S
C659 C603 1.419 . S
C659 H641 0.948 . S
C660 C661 1.391 . S
C660 C664 1.391 . S
C660 H702 0.948 . S
C661 C660 1.391 . S
C661 C662 1.391 . S
C662 C661 1.391 . S
C662 H718 0.947 . S
C662 C719 1.392 . S
C663 C664 1.391 . S
C663 C667 1.397 . S
C663 C719 1.419 . S
C664 C660 1.391 . S
C664 C663 1.391 . S
C664 C665 1.399 . S
C665 C664 1.399 . S
C665 C668 1.396 . S
C665 C677 1.453 . S
C665 C678 1.684 . S
H666 C690 0.948 . S
C667 C663 1.397 . S
C667 C668 1.394 . S
C667 C686 1.723 . S
C668 C665 1.396 . S
C668 C667 1.394 . S
C668 C698 1.723 . S
H669 C692 0.947 . S
H670 C693 0.948 . S
H671 C699 0.982 . S
H672 C700 0.979 . S
H673 C700 0.980 . S
H674 C700 0.983 . S
H675 C699 0.979 . S
H676 C699 0.977 . S
C677 C665 1.453 . S
C677 H706 0.982 . S
C677 H707 0.979 . S
C677 H708 0.977 . S
C678 C665 1.684 . S
C678 H703 0.979 . S
C678 H704 0.980 . S
C678 H705 0.983 . S
C679 C680 1.391 . S
C679 C684 1.391 . S
C679 H709 0.948 . S
C680 C679 1.391 . S
C680 C681 1.391 . S
C681 C680 1.391 . S
C681 C682 1.392 . S
C681 H710 0.947 . S
C682 C681 1.392 . S
C682 C683 1.419 . S
C682 H711 0.948 . S
C683 C682 1.419 . S
C683 C684 1.391 . S
C683 C687 1.397 . S
C684 C679 1.391 . S
C684 C683 1.391 . S
C684 C685 1.399 . S
C685 C684 1.399 . S
C685 C686 1.396 . S
C685 C688 1.453 . S
C685 C689 1.684 . S
C686 C667 1.723 . S
C686 C685 1.396 . S
C686 C687 1.394 . S
C687 C683 1.397 . S
C687 C686 1.394 . S
C687 C697 1.723 . S
C688 C685 1.453 . S
C688 H712 0.982 . S
C688 H713 0.979 . S
C688 H714 0.977 . S
C689 C685 1.684 . S
C689 H715 0.979 . S
C689 H716 0.980 . S
C689 H717 0.983 . S
C690 H666 0.948 . S
C690 C691 1.391 . S
C690 C695 1.391 . S
C691 C690 1.391 . S
C691 C692 1.391 . S
C692 H669 0.947 . S
C692 C691 1.391 . S
C692 C693 1.392 . S
C693 H670 0.948 . S
C693 C692 1.392 . S
C693 C694 1.419 . S
C694 C693 1.419 . S
C694 C695 1.391 . S
C694 C698 1.397 . S
C695 C690 1.391 . S
C695 C694 1.391 . S
C695 C696 1.399 . S
C696 C695 1.399 . S
C696 C697 1.396 . S
C696 C699 1.453 . S
C696 C700 1.684 . S
C697 C687 1.723 . S
C697 C696 1.396 . S
C697 C698 1.394 . S
C698 C668 1.723 . S
C698 C694 1.397 . S
C698 C697 1.394 . S
C699 H671 0.982 . S
C699 H675 0.979 . S
C699 H676 0.977 . S
C699 C696 1.453 . S
C700 H672 0.979 . S
C700 H673 0.980 . S
C700 H674 0.983 . S
C700 C696 1.684 . S
H701 C719 0.948 . S
H702 C660 0.948 . S
H703 C678 0.979 . S
H704 C678 0.980 . S
H705 C678 0.983 . S
H706 C677 0.982 . S
H707 C677 0.979 . S
H708 C677 0.977 . S
H709 C679 0.948 . S
H710 C681 0.947 . S
H711 C682 0.948 . S
H712 C688 0.982 . S
H713 C688 0.979 . S
H714 C688 0.977 . S
H715 C689 0.979 . S
H716 C689 0.980 . S
H717 C689 0.983 . S
H718 C662 0.947 . S
C719 C662 1.392 . S
C719 C663 1.419 . S
C719 H701 0.948 . S
C720 C721 1.391 . S
C720 C724 1.391 . S
C720 H762 0.948 . S
C721 C720 1.391 . S
C721 C722 1.391 . S
C722 C721 1.391 . S
C722 H778 0.947 . S
C722 C779 1.392 . S
C723 C724 1.391 . S
C723 C727 1.397 . S
C723 C779 1.419 . S
C724 C720 1.391 . S
C724 C723 1.391 . S
C724 C725 1.399 . S
C725 C724 1.399 . S
C725 C728 1.396 . S
C725 C737 1.453 . S
C725 C738 1.684 . S
H726 C750 0.948 . S
C727 C723 1.397 . S
C727 C728 1.394 . S
C727 C746 1.723 . S
C728 C725 1.396 . S
C728 C727 1.394 . S
C728 C758 1.723 . S
H729 C752 0.947 . S
H730 C753 0.948 . S
H731 C759 0.982 . S
H732 C760 0.979 . S
H733 C760 0.980 . S
H734 C760 0.983 . S
H735 C759 0.979 . S
H736 C759 0.977 . S
C737 C725 1.453 . S
C737 H766 0.982 . S
C737 H767 0.979 . S
C737 H768 0.977 . S
C738 C725 1.684 . S
C738 H763 0.979 . S
C738 H764 0.980 . S
C738 H765 0.983 . S
C739 C740 1.391 . S
C739 C744 1.391 . S
C739 H769 0.948 . S
C740 C739 1.391 . S
C740 C741 1.391 . S
C741 C740 1.391 . S
C741 C742 1.392 . S
C741 H770 0.947 . S
C742 C741 1.392 . S
C742 C743 1.419 . S
C742 H771 0.948 . S
C743 C742 1.419 . S
C743 C744 1.391 . S
C743 C747 1.397 . S
C744 C739 1.391 . S
C744 C743 1.391 . S
C744 C745 1.399 . S
C745 C744 1.399 . S
C745 C746 1.396 . S
C745 C748 1.453 . S
C745 C749 1.684 . S
C746 C727 1.723 . S
C746 C745 1.396 . S
C746 C747 1.394 . S
C747 C743 1.397 . S
C747 C746 1.394 . S
C747 C757 1.723 . S
C748 C745 1.453 . S
C748 H772 0.982 . S
C748 H773 0.979 . S
C748 H774 0.977 . S
C749 C745 1.684 . S
C749 H775 0.979 . S
C749 H776 0.980 . S
C749 H777 0.983 . S
C750 H726 0.948 . S
C750 C751 1.391 . S
C750 C755 1.391 . S
C751 C750 1.391 . S
C751 C752 1.391 . S
C752 H729 0.947 . S
C752 C751 1.391 . S
C752 C753 1.392 . S
C753 H730 0.948 . S
C753 C752 1.392 . S
C753 C754 1.419 . S
C754 C753 1.419 . S
C754 C755 1.391 . S
C754 C758 1.397 . S
C755 C750 1.391 . S
C755 C754 1.391 . S
C755 C756 1.399 . S
C756 C755 1.399 . S
C756 C757 1.396 . S
C756 C759 1.453 . S
C756 C760 1.684 . S
C757 C747 1.723 . S
C757 C756 1.396 . S
C757 C758 1.394 . S
C758 C728 1.723 . S
C758 C754 1.397 . S
C758 C757 1.394 . S
C759 H731 0.982 . S
C759 H735 0.979 . S
C759 H736 0.977 . S
C759 C756 1.453 . S
C760 H732 0.979 . S
C760 H733 0.980 . S
C760 H734 0.983 . S
C760 C756 1.684 . S
H761 C779 0.948 . S
H762 C720 0.948 . S
H763 C738 0.979 . S
H764 C738 0.980 . S
H765 C738 0.983 . S
H766 C737 0.982 . S
H767 C737 0.979 . S
H768 C737 0.977 . S
H769 C739 0.948 . S
H770 C741 0.947 . S
H771 C742 0.948 . S
H772 C748 0.982 . S
H773 C748 0.979 . S
H774 C748 0.977 . S
H775 C749 0.979 . S
H776 C749 0.980 . S
H777 C749 0.983 . S
H778 C722 0.947 . S
C779 C722 1.392 . S
C779 C723 1.419 . S
C779 H761 0.948 . S
C780 C781 1.391 . S
C780 C784 1.391 . S
C780 H822 0.948 . S
C781 C780 1.391 . S
C781 C782 1.391 . S
C782 C781 1.391 . S
C782 H838 0.947 . S
C782 C839 1.392 . S
C783 C784 1.391 . S
C783 C787 1.397 . S
C783 C839 1.419 . S
C784 C780 1.391 . S
C784 C783 1.391 . S
C784 C785 1.399 . S
C785 C784 1.399 . S
C785 C788 1.396 . S
C785 C797 1.453 . S
C785 C798 1.684 . S
H786 C810 0.948 . S
C787 C783 1.397 . S
C787 C788 1.394 . S
C787 C806 1.723 . S
C788 C785 1.396 . S
C788 C787 1.394 . S
C788 C818 1.723 . S
H789 C812 0.947 . S
H790 C813 0.948 . S
H791 C819 0.982 . S
H792 C820 0.979 . S
H793 C820 0.980 . S
H794 C820 0.983 . S
H795 C819 0.979 . S
H796 C819 0.977 . S
C797 C785 1.453 . S
C797 H826 0.982 . S
C797 H827 0.979 . S
C797 H828 0.977 . S
C798 C785 1.684 . S
C798 H823 0.979 . S
C798 H824 0.980 . S
C798 H825 0.983 . S
C799 C800 1.391 . S
C799 C804 1.391 . S
C799 H829 0.948 . S
C800 C799 1.391 . S
C800 C801 1.391 . S
C801 C800 1.391 . S
C801 C802 1.392 . S
C801 H830 0.947 . S
C802 C801 1.392 . S
C802 C803 1.419 . S
C802 H831 0.948 . S
C803 C802 1.419 . S
C803 C804 1.391 . S
C803 C807 1.397 . S
C804 C799 1.391 . S
C804 C803 1.391 . S
C804 C805 1.399 . S
C805 C804 1.399 . S
C805 C806 1.396 . S
C805 C808 1.453 . S
C805 C809 1.684 . S
C806 C787 1.723 . S
C806 C805 1.396 . S
C806 C807 1.394 . S
C807 C803 1.397 . S
C807 C806 1.394 . S
C807 C817 1.723 . S
C808 C805 1.453 . S
C808 H832 0.982 . S
C808 H833 0.979 . S
C808 H834 0.977 . S
C809 C805 1.684 . S
C809 H835 0.979 . S
C809 H836 0.980 . S
C809 H837 0.983 . S
C810 H786 0.948 . S
C810 C811 1.391 . S
C810 C815 1.391 . S
C811 C810 1.391 . S
C811 C812 1.391 . S
C812 H789 0.947 . S
C812 C811 1.391 . S
C812 C813 1.392 . S
C813 H790 0.948 . S
C813 C812 1.392 . S
C813 C814 1.419 . S
C814 C813 1.419 . S
C814 C815 1.391 . S
C814 C818 1.397 . S
C815 C810 1.391 . S
C815 C814 1.391 . S
C815 C816 1.399 . S
C816 C815 1.399 . S
C816 C817 1.396 . S
C816 C819 1.453 . S
C816 C820 1.684 . S
C817 C807 1.723 . S
C817 C816 1.396 . S
C817 C818 1.394 . S
C818 C788 1.723 . S
C818 C814 1.397 . S
C818 C817 1.394 . S
C819 H791 0.982 . S
C819 H795 0.979 . S
C819 H796 0.977 . S
C819 C816 1.453 . S
C820 H792 0.979 . S
C820 H793 0.980 . S
C820 H794 0.983 . S
C820 C816 1.684 . S
H821 C839 0.948 . S
H822 C780 0.948 . S
H823 C798 0.979 . S
H824 C798 0.980 . S
H825 C798 0.983 . S
H826 C797 0.982 . S
H827 C797 0.979 . S
H828 C797 0.977 . S
H829 C799 0.948 . S
H830 C801 0.947 . S
H831 C802 0.948 . S
H832 C808 0.982 . S
H833 C808 0.979 . S
H834 C808 0.977 . S
H835 C809 0.979 . S
H836 C809 0.980 . S
H837 C809 0.983 . S
H838 C782 0.947 . S
C839 C782 1.392 . S
C839 C783 1.419 . S
C839 H821 0.948 . S
C840 C841 1.391 . S
C840 C844 1.391 . S
C840 H882 0.948 . S
C841 C840 1.391 . S
C841 C842 1.391 . S
C842 C841 1.391 . S
C842 H898 0.947 . S
C842 C899 1.392 . S
C843 C844 1.391 . S
C843 C847 1.397 . S
C843 C899 1.419 . S
C844 C840 1.391 . S
C844 C843 1.391 . S
C844 C845 1.399 . S
C845 C844 1.399 . S
C845 C848 1.396 . S
C845 C857 1.453 . S
C845 C858 1.684 . S
H846 C870 0.948 . S
C847 C843 1.397 . S
C847 C848 1.394 . S
C847 C866 1.723 . S
C848 C845 1.396 . S
C848 C847 1.394 . S
C848 C878 1.723 . S
H849 C872 0.947 . S
H850 C873 0.948 . S
H851 C879 0.982 . S
H852 C880 0.979 . S
H853 C880 0.980 . S
H854 C880 0.983 . S
H855 C879 0.979 . S
H856 C879 0.977 . S
C857 C845 1.453 . S
C857 H886 0.982 . S
C857 H887 0.979 . S
C857 H888 0.977 . S
C858 C845 1.684 . S
C858 H883 0.979 . S
C858 H884 0.980 . S
C858 H885 0.983 . S
C859 C860 1.391 . S
C859 C864 1.391 . S
C859 H889 0.948 . S
C860 C859 1.391 . S
C860 C861 1.391 . S
C861 C860 1.391 . S
C861 C862 1.392 . S
C861 H890 0.947 . S
C862 C861 1.392 . S
C862 C863 1.419 . S
C862 H891 0.948 . S
C863 C862 1.419 . S
C863 C864 1.391 . S
C863 C867 1.397 . S
C864 C859 1.391 . S
C864 C863 1.391 . S
C864 C865 1.399 . S
C865 C864 1.399 . S
C865 C866 1.396 . S
C865 C868 1.453 . S
C865 C869 1.684 . S
C866 C847 1.723 . S
C866 C865 1.396 . S
C866 C867 1.394 . S
C867 C863 1.397 . S
C867 C866 1.394 . S
C867 C877 1.723 . S
C868 C865 1.453 . S
C868 H892 0.982 . S
C868 H893 0.979 . S
C868 H894 0.977 . S
C869 C865 1.684 . S
C869 H895 0.979 . S
C869 H896 0.980 . S
C869 H897 0.983 . S
C870 H846 0.948 . S
C870 C871 1.391 . S
C870 C875 1.391 . S
C871 C870 1.391 . S
C871 C872 1.391 . S
C872 H849 0.947 . S
C872 C871 1.391 . S
C872 C873 1.392 . S
C873 H850 0.948 . S
C873 C872 1.392 . S
C873 C874 1.419 . S
C874 C873 1.419 . S
C874 C875 1.391 . S
C874 C878 1.397 . S
C875 C870 1.391 . S
C875 C874 1.391 . S
C875 C876 1.399 . S
C876 C875 1.399 . S
C876 C877 1.396 . S
C876 C879 1.453 . S
C876 C880 1.684 . S
C877 C867 1.723 . S
C877 C876 1.396 . S
C877 C878 1.394 . S
C878 C848 1.723 . S
C878 C874 1.397 . S
C878 C877 1.394 . S
C879 H851 0.982 . S
C879 H855 0.979 . S
C879 H856 0.977 . S
C879 C876 1.453 . S
C880 H852 0.979 . S
C880 H853 0.980 . S
C880 H854 0.983 . S
C880 C876 1.684 . S
H881 C899 0.948 . S
H882 C840 0.948 . S
H883 C858 0.979 . S
H884 C858 0.980 . S
H885 C858 0.983 . S
H886 C857 0.982 . S
H887 C857 0.979 . S
H888 C857 0.977 . S
H889 C859 0.948 . S
H890 C861 0.947 . S
H891 C862 0.948 . S
H892 C868 0.982 . S
H893 C868 0.979 . S
H894 C868 0.977 . S
H895 C869 0.979 . S
H896 C869 0.980 . S
H897 C869 0.983 . S
H898 C842 0.947 . S
C899 C842 1.392 . S
C899 C843 1.419 . S
C899 H881 0.948 . S
C900 C901 1.391 . S
C900 C904 1.391 . S
C900 H942 0.948 . S
C901 C900 1.391 . S
C901 C902 1.391 . S
C902 C901 1.391 . S
C902 H958 0.947 . S
C902 C959 1.392 . S
C903 C904 1.391 . S
C903 C907 1.397 . S
C903 C959 1.419 . S
C904 C900 1.391 . S
C904 C903 1.391 . S
C904 C905 1.399 . S
C905 C904 1.399 . S
C905 C908 1.396 . S
C905 C917 1.453 . S
C905 C918 1.684 . S
H906 C930 0.948 . S
C907 C903 1.397 . S
C907 C908 1.394 . S
C907 C926 1.723 . S
C908 C905 1.396 . S
C908 C907 1.394 . S
C908 C938 1.723 . S
H909 C932 0.947 . S
H910 C933 0.948 . S
H911 C939 0.982 . S
H912 C940 0.979 . S
H913 C940 0.980 . S
H914 C940 0.983 . S
H915 C939 0.979 . S
H916 C939 0.977 . S
C917 C905 1.453 . S
C917 H946 0.982 . S
C917 H947 0.979 . S
C917 H948 0.977 . S
C918 C905 1.684 . S
C918 H943 0.979 . S
C918 H944 0.980 . S
C918 H945 0.983 . S
C919 C920 1.391 . S
C919 C924 1.391 . S
C919 H949 0.948 . S
C920 C919 1.391 . S
C920 C921 1.391 . S
C921 C920 1.391 . S
C921 C922 1.392 . S
C921 H950 0.947 . S
C922 C921 1.392 . S
C922 C923 1.419 . S
C922 H951 0.948 . S
C923 C922 1.419 . S
C923 C924 1.391 . S
C923 C927 1.397 . S
C924 C919 1.391 . S
C924 C923 1.391 . S
C924 C925 1.399 . S
C925 C924 1.399 . S
C925 C926 1.396 . S
C925 C928 1.453 . S
C925 C929 1.684 . S
C926 C907 1.723 . S
C926 C925 1.396 . S
C926 C927 1.394 . S
C927 C923 1.397 . S
C927 C926 1.394 . S
C927 C937 1.723 . S
C928 C925 1.453 . S
C928 H952 0.982 . S
C928 H953 0.979 . S
C928 H954 0.977 . S
C929 C925 1.684 . S
C929 H955 0.979 . S
C929 H956 0.980 . S
C929 H957 0.983 . S
C930 H906 0.948 . S
C930 C931 1.391 . S
C930 C935 1.391 . S
C931 C930 1.391 . S
C931 C932 1.391 . S
C932 H909 0.947 . S
C932 C931 1.391 . S
C932 C933 1.392 . S
C933 H910 0.948 . S
C933 C932 1.392 . S
C933 C934 1.419 . S
C934 C933 1.419 . S
C934 C935 1.391 . S
C934 C938 1.397 . S
C935 C930 1.391 . S
C935 C934 1.391 . S
C935 C936 1.399 . S
C936 C935 1.399 . S
C936 C937 1.396 . S
C936 C939 1.453 . S
C936 C940 1.684 . S
C937 C927 1.723 . S
C937 C936 1.396 . S
C937 C938 1.394 . S
C938 C908 1.723 . S
C938 C934 1.397 . S
C938 C937 1.394 . S
C939 H911 0.982 . S
C939 H915 0.979 . S
C939 H916 0.977 . S
C939 C936 1.453 . S
C940 H912 0.979 . S
C940 H913 0.980 . S
C940 H914 0.983 . S
C940 C936 1.684 . S
H941 C959 0.948 . S
H942 C900 0.948 . S
H943 C918 0.979 . S
H944 C918 0.980 . S
H945 C918 0.983 . S
H946 C917 0.982 . S
H947 C917 0.979 . S
H948 C917 0.977 . S
H949 C919 0.948 . S
H950 C921 0.947 . S
H951 C922 0.948 . S
H952 C928 0.982 . S
H953 C928 0.979 . S
H954 C928 0.977 . S
H955 C929 0.979 . S
H956 C929 0.980 . S
H957 C929 0.983 . S
H958 C902 0.947 . S
C959 C902 1.392 . S
C959 C903 1.419 . S
C959 H941 0.948 . S
C960 C961 1.391 . S
C960 C964 1.391 . S
C960 H1002 0.948 . S
C961 C960 1.391 . S
C961 C962 1.391 . S
C962 C961 1.391 . S
C962 H1018 0.947 . S
C962 C1019 1.392 . S
C963 C964 1.391 . S
C963 C967 1.397 . S
C963 C1019 1.419 . S
C964 C960 1.391 . S
C964 C963 1.391 . S
C964 C965 1.399 . S
C965 C964 1.399 . S
C965 C968 1.396 . S
C965 C977 1.453 . S
C965 C978 1.684 . S
H966 C990 0.948 . S
C967 C963 1.397 . S
C967 C968 1.394 . S
C967 C986 1.723 . S
C968 C965 1.396 . S
C968 C967 1.394 . S
C968 C998 1.723 . S
H969 C992 0.947 . S
H970 C993 0.948 . S
H971 C999 0.982 . S
H972 C1000 0.979 . S
H973 C1000 0.980 . S
H974 C1000 0.983 . S
H975 C999 0.979 . S
H976 C999 0.977 . S
C977 C965 1.453 . S
C977 H1006 0.982 . S
C977 H1007 0.979 . S
C977 H1008 0.977 . S
C978 C965 1.684 . S
C978 H1003 0.979 . S
C978 H1004 0.980 . S
C978 H1005 0.983 . S
C979 C980 1.391 . S
C979 C984 1.391 . S
C979 H1009 0.948 . S
C980 C979 1.391 . S
C980 C981 1.391 . S
C981 C980 1.391 . S
C981 C982 1.392 . S
C981 H1010 0.947 . S
C982 C981 1.392 . S
C982 C983 1.419 . S
C982 H1011 0.948 . S
C983 C982 1.419 . S
C983 C984 1.391 . S
C983 C987 1.397 . S
C984 C979 1.391 . S
C984 C983 1.391 . S
C984 C985 1.399 . S
C985 C984 1.399 . S
C985 C986 1.396 . S
C985 C988 1.453 . S
C985 C989 1.684 . S
C986 C967 1.723 . S
C986 C985 1.396 . S
C986 C987 1.394 . S
C987 C983 1.397 . S
C987 C986 1.394 . S
C987 C997 1.723 . S
C988 C985 1.453 . S
C988 H1012 0.982 . S
C988 H1013 0.979 . S
C988 H1014 0.977 . S
C989 C985 1.684 . S
C989 H1015 0.979 . S
C989 H1016 0.980 . S
C989 H1017 0.983 . S
C990 H966 0.948 . S
C990 C991 1.391 . S
C990 C995 1.391 . S
C991 C990 1.391 . S
C991 C992 1.391 . S
C992 H969 0.947 . S
C992 C991 1.391 . S
C992 C993 1.392 . S
C993 H970 0.948 . S
C993 C992 1.392 . S
C993 C994 1.419 . S
C994 C993 1.419 . S
C994 C995 1.391 . S
C994 C998 1.397 . S
C995 C990 1.391 . S
C995 C994 1.391 . S
C995 C996 1.399 . S
C996 C995 1.399 . S
C996 C997 1.396 . S
C996 C999 1.453 . S
C996 C1000 1.684 . S
C997 C987 1.723 . S
C997 C996 1.396 . S
C997 C998 1.394 . S
C998 C968 1.723 . S
C998 C994 1.397 . S
C998 C997 1.394 . S
C999 H971 0.982 . S
C999 H975 0.979 . S
C999 H976 0.977 . S
C999 C996 1.453 . S
C1000 H972 0.979 . S
C1000 H973 0.980 . S
C1000 H974 0.983 . S
C1000 C996 1.684 . S
H1001 C1019 0.948 . S
H1002 C960 0.948 . S
H1003 C978 0.979 . S
H1004 C978 0.980 . S
H1005 C978 0.983 . S
H1006 C977 0.982 . S
H1007 C977 0.979 . S
H1008 C977 0.977 . S
H1009 C979 0.948 . S
H1010 C981 0.947 . S
H1011 C982 0.948 . S
H1012 C988 0.982 . S
H1013 C988 0.979 . S
H1014 C988 0.977 . S
H1015 C989 0.979 . S
H1016 C989 0.980 . S
H1017 C989 0.983 . S
H1018 C962 0.947 . S
C1019 C962 1.392 . S
C1019 C963 1.419 . S
C1019 H1001 0.948 . S
C1020 C1021 1.391 . S
C1020 C1024 1.391 . S
C1020 H1062 0.948 . S
C1021 C1020 1.391 . S
C1021 C1022 1.391 . S
C1022 C1021 1.391 . S
C1022 H1078 0.947 . S
C1022 C1079 1.392 . S
C1023 C1024 1.391 . S
C1023 C1027 1.397 . S
C1023 C1079 1.419 . S
C1024 C1020 1.391 . S
C1024 C1023 1.391 . S
C1024 C1025 1.399 . S
C1025 C1024 1.399 . S
C1025 C1028 1.396 . S
C1025 C1037 1.453 . S
C1025 C1038 1.684 . S
H1026 C1050 0.948 . S
C1027 C1023 1.397 . S
C1027 C1028 1.394 . S
C1027 C1046 1.723 . S
C1028 C1025 1.396 . S
C1028 C1027 1.394 . S
C1028 C1058 1.723 . S
H1029 C1052 0.947 . S
H1030 C1053 0.948 . S
H1031 C1059 0.982 . S
H1032 C1060 0.979 . S
H1033 C1060 0.980 . S
H1034 C1060 0.983 . S
H1035 C1059 0.979 . S
H1036 C1059 0.977 . S
C1037 C1025 1.453 . S
C1037 H1066 0.982 . S
C1037 H1067 0.979 . S
C1037 H1068 0.977 . S
C1038 C1025 1.684 . S
C1038 H1063 0.979 . S
C1038 H1064 0.980 . S
C1038 H1065 0.983 . S
C1039 C1040 1.391 . S
C1039 C1044 1.391 . S
C1039 H1069 0.948 . S
C1040 C1039 1.391 . S
C1040 C1041 1.391 . S
C1041 C1040 1.391 . S
C1041 C1042 1.392 . S
C1041 H1070 0.947 . S
C1042 C1041 1.392 . S
C1042 C1043 1.419 . S
C1042 H1071 0.948 . S
C1043 C1042 1.419 . S
C1043 C1044 1.391 . S
C1043 C1047 1.397 . S
C1044 C1039 1.391 . S
C1044 C1043 1.391 . S
C1044 C1045 1.399 . S
C1045 C1044 1.399 . S
C1045 C1046 1.396 . S
C1045 C1048 1.453 . S
C1045 C1049 1.684 . S
C1046 C1027 1.723 . S
C1046 C1045 1.396 . S
C1046 C1047 1.394 . S
C1047 C1043 1.397 . S
C1047 C1046 1.394 . S
C1047 C1057 1.723 . S
C1048 C1045 1.453 . S
C1048 H1072 0.982 . S
C1048 H1073 0.979 . S
C1048 H1074 0.977 . S
C1049 C1045 1.684 . S
C1049 H1075 0.979 . S
C1049 H1076 0.980 . S
C1049 H1077 0.983 . S
C1050 H1026 0.948 . S
C1050 C1051 1.391 . S
C1050 C1055 1.391 . S
C1051 C1050 1.391 . S
C1051 C1052 1.391 . S
C1052 H1029 0.947 . S
C1052 C1051 1.391 . S
C1052 C1053 1.392 . S
C1053 H1030 0.948 . S
C1053 C1052 1.392 . S
C1053 C1054 1.419 . S
C1054 C1053 1.419 . S
C1054 C1055 1.391 . S
C1054 C1058 1.397 . S
C1055 C1050 1.391 . S
C1055 C1054 1.391 . S
C1055 C1056 1.399 . S
C1056 C1055 1.399 . S
C1056 C1057 1.396 . S
C1056 C1059 1.453 . S
C1056 C1060 1.684 . S
C1057 C1047 1.723 . S
C1057 C1056 1.396 . S
C1057 C1058 1.394 . S
C1058 C1028 1.723 . S
C1058 C1054 1.397 . S
C1058 C1057 1.394 . S
C1059 H1031 0.982 . S
C1059 H1035 0.979 . S
C1059 H1036 0.977 . S
C1059 C1056 1.453 . S
C1060 H1032 0.979 . S
C1060 H1033 0.980 . S
C1060 H1034 0.983 . S
C1060 C1056 1.684 . S
H1061 C1079 0.948 . S
H1062 C1020 0.948 . S
H1063 C1038 0.979 . S
H1064 C1038 0.980 . S
H1065 C1038 0.983 . S
H1066 C1037 0.982 . S
H1067 C1037 0.979 . S
H1068 C1037 0.977 . S
H1069 C1039 0.948 . S
H1070 C1041 0.947 . S
H1071 C1042 0.948 . S
H1072 C1048 0.982 . S
H1073 C1048 0.979 . S
H1074 C1048 0.977 . S
H1075 C1049 0.979 . S
H1076 C1049 0.980 . S
H1077 C1049 0.983 . S
H1078 C1022 0.947 . S
C1079 C1022 1.392 . S
C1079 C1023 1.419 . S
C1079 H1061 0.948 . S
Tb1080 O1083 2.453 . S
Tb1080 O1084 2.596 1_545 S
Tb1080 O1085 2.374 1_545 S
Tb1080 O1093 2.343 1_554 S
Tb1080 O1095 2.353 . S
Tb1080 O1097 2.427 1_554 S
Tb1080 O1098 2.513 1_554 S
C1081 O1085 1.251 . S
C1081 O1087 1.263 1_554 S
Tb1082 O1084 2.343 1_556 S
Tb1082 O1087 2.353 . S
Tb1082 O1090 2.427 1_556 S
Tb1082 O1091 2.513 1_556 S
Tb1082 O1092 2.453 . S
Tb1082 O1093 2.596 1_565 S
Tb1082 O1094 2.374 1_565 S
O1083 Tb1080 2.453 . S
O1083 C1099 1.245 . S
O1084 Tb1080 2.596 1_565 S
O1084 Tb1082 2.343 1_554 S
O1084 C1099 1.259 1_565 S
O1085 Tb1080 2.374 1_565 S
O1085 C1081 1.251 . S
C1086 O1090 1.275 . S
C1086 O1091 1.246 . S
O1087 C1081 1.263 1_556 S
O1087 Tb1082 2.353 . S
C1088 O1092 1.245 . S
C1088 O1093 1.259 1_565 S
C1089 O1094 1.250 . S
C1089 O1095 1.263 1_556 S
O1090 Tb1082 2.427 1_554 S
O1090 C1086 1.275 . S
O1091 Tb1082 2.513 1_554 S
O1091 C1086 1.246 . S
O1092 Tb1082 2.453 . S
O1092 C1088 1.245 . S
O1093 Tb1080 2.343 1_556 S
O1093 Tb1082 2.596 1_545 S
O1093 C1088 1.259 1_545 S
O1094 Tb1082 2.374 1_545 S
O1094 C1089 1.250 . S
O1095 Tb1080 2.353 . S
O1095 C1089 1.263 1_554 S
C1096 O1097 1.275 . S
C1096 O1098 1.246 . S
O1097 Tb1080 2.427 1_556 S
O1097 C1096 1.275 . S
O1098 Tb1080 2.513 1_556 S
O1098 C1096 1.246 . S
C1099 O1083 1.245 . S
C1099 O1084 1.259 1_545 S
Tb1100 O1103 2.453 . S
Tb1100 O1104 2.596 1_655 S
Tb1100 O1105 2.374 1_655 S
Tb1100 O1113 2.343 1_554 S
Tb1100 O1115 2.353 1_554 S
Tb1100 O1117 2.427 1_554 S
Tb1100 O1118 2.513 1_554 S
C1101 O1105 1.251 . S
C1101 O1107 1.263 . S
Tb1102 O1104 2.343 1_556 S
Tb1102 O1107 2.353 1_556 S
Tb1102 O1110 2.427 1_556 S
Tb1102 O1111 2.513 1_556 S
Tb1102 O1112 2.453 . S
Tb1102 O1113 2.596 1_455 S
Tb1102 O1114 2.374 1_455 S
O1103 Tb1100 2.453 . S
O1103 C1119 1.245 1_655 S
O1104 Tb1100 2.596 1_455 S
O1104 Tb1102 2.343 1_554 S
O1104 C1119 1.259 . S
O1105 Tb1100 2.374 1_455 S
O1105 C1101 1.251 . S
C1106 O1110 1.275 . S
C1106 O1111 1.246 . S
O1107 C1101 1.263 . S
O1107 Tb1102 2.353 1_554 S
C1108 O1112 1.245 1_655 S
C1108 O1113 1.259 . S
C1109 O1114 1.250 . S
C1109 O1115 1.263 . S
O1110 Tb1102 2.427 1_554 S
O1110 C1106 1.275 . S
O1111 Tb1102 2.513 1_554 S
O1111 C1106 1.246 . S
O1112 Tb1102 2.453 . S
O1112 C1108 1.245 1_455 S
O1113 Tb1100 2.343 1_556 S
O1113 Tb1102 2.596 1_655 S
O1113 C1108 1.259 . S
O1114 Tb1102 2.374 1_655 S
O1114 C1109 1.250 . S
O1115 Tb1100 2.353 1_556 S
O1115 C1109 1.263 . S
C1116 O1117 1.275 . S
C1116 O1118 1.246 . S
O1117 Tb1100 2.427 1_556 S
O1117 C1116 1.275 . S
O1118 Tb1100 2.513 1_556 S
O1118 C1116 1.246 . S
C1119 O1103 1.245 1_455 S
C1119 O1104 1.259 . S
Tb1120 O1123 2.453 . S
Tb1120 O1124 2.596 . S
Tb1120 O1125 2.374 . S
Tb1120 O1133 2.343 1_556 S
Tb1120 O1135 2.350 1_556 S
Tb1120 O1137 2.427 1_556 S
Tb1120 O1138 2.513 1_556 S
C1121 O1125 1.251 . S
C1121 O1127 1.250 1_556 S
Tb1122 O1124 2.343 1_554 S
Tb1122 O1127 2.357 . S
Tb1122 O1130 2.427 1_554 S
Tb1122 O1131 2.513 1_554 S
Tb1122 O1132 2.453 . S
Tb1122 O1133 2.596 . S
Tb1122 O1134 2.374 . S
O1123 Tb1120 2.453 . S
O1123 C1139 1.245 . S
O1124 Tb1120 2.596 . S
O1124 Tb1122 2.343 1_556 S
O1124 C1139 1.259 . S
O1125 Tb1120 2.374 . S
O1125 C1121 1.251 . S
C1126 O1130 1.275 . S
C1126 O1131 1.246 . S
O1127 C1121 1.250 1_554 S
O1127 Tb1122 2.357 . S
C1128 O1132 1.245 . S
C1128 O1133 1.259 . S
C1129 O1134 1.250 . S
C1129 O1135 1.274 . S
O1130 Tb1122 2.427 1_556 S
O1130 C1126 1.275 . S
O1131 Tb1122 2.513 1_556 S
O1131 C1126 1.246 . S
O1132 Tb1122 2.453 . S
O1132 C1128 1.245 . S
O1133 Tb1120 2.343 1_554 S
O1133 Tb1122 2.596 . S
O1133 C1128 1.259 . S
O1134 Tb1122 2.374 . S
O1134 C1129 1.250 . S
O1135 Tb1120 2.350 1_554 S
O1135 C1129 1.274 . S
C1136 O1137 1.275 . S
C1136 O1138 1.246 . S
O1137 Tb1120 2.427 1_554 S
O1137 C1136 1.275 . S
O1138 Tb1120 2.513 1_554 S
O1138 C1136 1.246 . S
C1139 O1123 1.245 . S
C1139 O1124 1.259 . S
Tb1140 O1143 2.453 . S
Tb1140 O1144 2.596 . S
Tb1140 O1145 2.374 . S
Tb1140 O1153 2.343 . S
Tb1140 O1155 2.353 . S
Tb1140 O1157 2.427 . S
Tb1140 O1158 2.513 . S
C1141 O1145 1.251 . S
C1141 O1147 1.263 . S
Tb1142 O1144 2.343 . S
Tb1142 O1147 2.353 . S
Tb1142 O1150 2.427 . S
Tb1142 O1151 2.513 . S
Tb1142 O1152 2.453 . S
Tb1142 O1153 2.596 . S
Tb1142 O1154 2.374 . S
O1143 Tb1140 2.453 . S
O1143 C1159 1.245 . S
O1144 Tb1140 2.596 . S
O1144 Tb1142 2.343 . S
O1144 C1159 1.259 . S
O1145 Tb1140 2.374 . S
O1145 C1141 1.251 . S
C1146 O1150 1.275 . S
C1146 O1151 1.246 . S
O1147 C1141 1.263 . S
O1147 Tb1142 2.353 . S
C1148 O1152 1.245 . S
C1148 O1153 1.259 . S
C1149 O1154 1.250 . S
C1149 O1155 1.263 . S
O1150 Tb1142 2.427 . S
O1150 C1146 1.275 . S
O1151 Tb1142 2.513 . S
O1151 C1146 1.246 . S
O1152 Tb1142 2.453 . S
O1152 C1148 1.245 . S
O1153 Tb1140 2.343 . S
O1153 Tb1142 2.596 . S
O1153 C1148 1.259 . S
O1154 Tb1142 2.374 . S
O1154 C1149 1.250 . S
O1155 Tb1140 2.353 . S
O1155 C1149 1.263 . S
C1156 O1157 1.275 . S
C1156 O1158 1.246 . S
O1157 Tb1140 2.427 . S
O1157 C1156 1.275 . S
O1158 Tb1140 2.513 . S
O1158 C1156 1.246 . S
C1159 O1143 1.245 . S
C1159 O1144 1.259 . S
Tb1160 O1163 2.453 . S
Tb1160 O1164 2.596 . S
Tb1160 O1165 2.374 . S
Tb1160 O1173 2.343 . S
Tb1160 O1175 2.353 . S
Tb1160 O1177 2.427 . S
Tb1160 O1178 2.513 . S
C1161 O1165 1.251 . S
C1161 O1167 1.263 . S
Tb1162 O1164 2.343 . S
Tb1162 O1167 2.353 . S
Tb1162 O1170 2.427 . S
Tb1162 O1171 2.513 . S
Tb1162 O1172 2.453 . S
Tb1162 O1173 2.596 . S
Tb1162 O1174 2.374 . S
O1163 Tb1160 2.453 . S
O1163 C1179 1.245 . S
O1164 Tb1160 2.596 . S
O1164 Tb1162 2.343 . S
O1164 C1179 1.259 . S
O1165 Tb1160 2.374 . S
O1165 C1161 1.251 . S
C1166 O1170 1.275 . S
C1166 O1171 1.246 . S
O1167 C1161 1.263 . S
O1167 Tb1162 2.353 . S
C1168 O1172 1.245 . S
C1168 O1173 1.259 . S
C1169 O1174 1.250 . S
C1169 O1175 1.263 . S
O1170 Tb1162 2.427 . S
O1170 C1166 1.275 . S
O1171 Tb1162 2.513 . S
O1171 C1166 1.246 . S
O1172 Tb1162 2.453 . S
O1172 C1168 1.245 . S
O1173 Tb1160 2.343 . S
O1173 Tb1162 2.596 . S
O1173 C1168 1.259 . S
O1174 Tb1162 2.374 . S
O1174 C1169 1.250 . S
O1175 Tb1160 2.353 . S
O1175 C1169 1.263 . S
C1176 O1177 1.275 . S
C1176 O1178 1.246 . S
O1177 Tb1160 2.427 . S
O1177 C1176 1.275 . S
O1178 Tb1160 2.513 . S
O1178 C1176 1.246 . S
C1179 O1163 1.245 . S
C1179 O1164 1.259 . S
Tb1180 O1183 2.453 . S
Tb1180 O1184 2.596 . S
Tb1180 O1185 2.374 . S
Tb1180 O1193 2.343 . S
Tb1180 O1195 2.353 . S
Tb1180 O1197 2.427 . S
Tb1180 O1198 2.513 . S
C1181 O1185 1.251 . S
C1181 O1187 1.263 . S
Tb1182 O1184 2.343 . S
Tb1182 O1187 2.353 . S
Tb1182 O1190 2.427 . S
Tb1182 O1191 2.513 . S
Tb1182 O1192 2.453 . S
Tb1182 O1193 2.596 . S
Tb1182 O1194 2.374 . S
O1183 Tb1180 2.453 . S
O1183 C1199 1.245 . S
O1184 Tb1180 2.596 . S
O1184 Tb1182 2.343 . S
O1184 C1199 1.259 . S
O1185 Tb1180 2.374 . S
O1185 C1181 1.251 . S
C1186 O1190 1.275 . S
C1186 O1191 1.246 . S
O1187 C1181 1.263 . S
O1187 Tb1182 2.353 . S
C1188 O1192 1.245 . S
C1188 O1193 1.259 . S
C1189 O1194 1.250 . S
C1189 O1195 1.263 . S
O1190 Tb1182 2.427 . S
O1190 C1186 1.275 . S
O1191 Tb1182 2.513 . S
O1191 C1186 1.246 . S
O1192 Tb1182 2.453 . S
O1192 C1188 1.245 . S
O1193 Tb1180 2.343 . S
O1193 Tb1182 2.596 . S
O1193 C1188 1.259 . S
O1194 Tb1182 2.374 . S
O1194 C1189 1.250 . S
O1195 Tb1180 2.353 . S
O1195 C1189 1.263 . S
C1196 O1197 1.275 . S
C1196 O1198 1.246 . S
O1197 Tb1180 2.427 . S
O1197 C1196 1.275 . S
O1198 Tb1180 2.513 . S
O1198 C1196 1.246 . S
C1199 O1183 1.245 . S
C1199 O1184 1.259 . S
Tb1200 O1203 2.453 . S
Tb1200 O1204 2.596 . S
Tb1200 O1205 2.374 . S
Tb1200 O1213 2.343 . S
Tb1200 O1215 2.353 . S
Tb1200 O1217 2.427 . S
Tb1200 O1218 2.513 . S
C1201 O1205 1.251 . S
C1201 O1207 1.263 . S
Tb1202 O1204 2.343 . S
Tb1202 O1207 2.353 . S
Tb1202 O1210 2.427 . S
Tb1202 O1211 2.513 . S
Tb1202 O1212 2.453 . S
Tb1202 O1213 2.596 . S
Tb1202 O1214 2.374 . S
O1203 Tb1200 2.453 . S
O1203 C1219 1.245 . S
O1204 Tb1200 2.596 . S
O1204 Tb1202 2.343 . S
O1204 C1219 1.259 . S
O1205 Tb1200 2.374 . S
O1205 C1201 1.251 . S
C1206 O1210 1.275 . S
C1206 O1211 1.246 . S
O1207 C1201 1.263 . S
O1207 Tb1202 2.353 . S
C1208 O1212 1.245 . S
C1208 O1213 1.259 . S
C1209 O1214 1.250 . S
C1209 O1215 1.263 . S
O1210 Tb1202 2.427 . S
O1210 C1206 1.275 . S
O1211 Tb1202 2.513 . S
O1211 C1206 1.246 . S
O1212 Tb1202 2.453 . S
O1212 C1208 1.245 . S
O1213 Tb1200 2.343 . S
O1213 Tb1202 2.596 . S
O1213 C1208 1.259 . S
O1214 Tb1202 2.374 . S
O1214 C1209 1.250 . S
O1215 Tb1200 2.353 . S
O1215 C1209 1.263 . S
C1216 O1217 1.275 . S
C1216 O1218 1.246 . S
O1217 Tb1200 2.427 . S
O1217 C1216 1.275 . S
O1218 Tb1200 2.513 . S
O1218 C1216 1.246 . S
C1219 O1203 1.245 . S
C1219 O1204 1.259 . S
Tb1220 O1223 2.453 . S
Tb1220 O1224 2.596 . S
Tb1220 O1225 2.374 . S
Tb1220 O1233 2.343 . S
Tb1220 O1235 2.353 . S
Tb1220 O1237 2.427 . S
Tb1220 O1238 2.513 . S
C1221 O1225 1.251 . S
C1221 O1227 1.263 . S
Tb1222 O1224 2.343 . S
Tb1222 O1227 2.353 . S
Tb1222 O1230 2.427 . S
Tb1222 O1231 2.513 . S
Tb1222 O1232 2.453 . S
Tb1222 O1233 2.596 . S
Tb1222 O1234 2.374 . S
O1223 Tb1220 2.453 . S
O1223 C1239 1.245 . S
O1224 Tb1220 2.596 . S
O1224 Tb1222 2.343 . S
O1224 C1239 1.259 . S
O1225 Tb1220 2.374 . S
O1225 C1221 1.251 . S
C1226 O1230 1.275 . S
C1226 O1231 1.246 . S
O1227 C1221 1.263 . S
O1227 Tb1222 2.353 . S
C1228 O1232 1.245 . S
C1228 O1233 1.259 . S
C1229 O1234 1.250 . S
C1229 O1235 1.263 . S
O1230 Tb1222 2.427 . S
O1230 C1226 1.275 . S
O1231 Tb1222 2.513 . S
O1231 C1226 1.246 . S
O1232 Tb1222 2.453 . S
O1232 C1228 1.245 . S
O1233 Tb1220 2.343 . S
O1233 Tb1222 2.596 . S
O1233 C1228 1.259 . S
O1234 Tb1222 2.374 . S
O1234 C1229 1.250 . S
O1235 Tb1220 2.353 . S
O1235 C1229 1.263 . S
C1236 O1237 1.275 . S
C1236 O1238 1.246 . S
O1237 Tb1220 2.427 . S
O1237 C1236 1.275 . S
O1238 Tb1220 2.513 . S
O1238 C1236 1.246 . S
C1239 O1223 1.245 . S
C1239 O1224 1.259 . S
Tb1240 O1243 2.453 . S
Tb1240 O1244 2.596 . S
Tb1240 O1245 2.374 . S
Tb1240 O1253 2.343 . S
Tb1240 O1255 2.353 . S
Tb1240 O1257 2.427 . S
Tb1240 O1258 2.513 . S
C1241 O1245 1.251 . S
C1241 O1247 1.263 . S
Tb1242 O1244 2.343 . S
Tb1242 O1247 2.353 . S
Tb1242 O1250 2.427 . S
Tb1242 O1251 2.513 . S
Tb1242 O1252 2.453 . S
Tb1242 O1253 2.596 . S
Tb1242 O1254 2.374 . S
O1243 Tb1240 2.453 . S
O1243 C1259 1.245 . S
O1244 Tb1240 2.596 . S
O1244 Tb1242 2.343 . S
O1244 C1259 1.259 . S
O1245 Tb1240 2.374 . S
O1245 C1241 1.251 . S
C1246 O1250 1.275 . S
C1246 O1251 1.246 . S
O1247 C1241 1.263 . S
O1247 Tb1242 2.353 . S
C1248 O1252 1.245 . S
C1248 O1253 1.259 . S
C1249 O1254 1.250 . S
C1249 O1255 1.263 . S
O1250 Tb1242 2.427 . S
O1250 C1246 1.275 . S
O1251 Tb1242 2.513 . S
O1251 C1246 1.246 . S
O1252 Tb1242 2.453 . S
O1252 C1248 1.245 . S
O1253 Tb1240 2.343 . S
O1253 Tb1242 2.596 . S
O1253 C1248 1.259 . S
O1254 Tb1242 2.374 . S
O1254 C1249 1.250 . S
O1255 Tb1240 2.353 . S
O1255 C1249 1.263 . S
C1256 O1257 1.275 . S
C1256 O1258 1.246 . S
O1257 Tb1240 2.427 . S
O1257 C1256 1.275 . S
O1258 Tb1240 2.513 . S
O1258 C1256 1.246 . S
C1259 O1243 1.245 . S
C1259 O1244 1.259 . S
C1260 C1261 1.387 . S
C1260 H1264 0.950 . S
C1260 C1269 1.390 . S
C1261 C1260 1.387 . S
C1261 C1263 1.387 . S
H1262 C1269 0.950 . S
C1263 C1261 1.387 . S
C1263 C1265 1.390 . S
C1263 H1267 0.950 . S
H1264 C1260 0.950 . S
C1265 C1263 1.390 . S
C1265 C1266 1.387 . S
C1265 H1268 0.950 . S
C1266 C1265 1.387 . S
C1266 C1269 1.387 . S
H1267 C1263 0.950 . S
H1268 C1265 0.950 . S
C1269 C1260 1.390 . S
C1269 H1262 0.950 . S
C1269 C1266 1.387 . S
C1270 C1271 1.387 . S
C1270 H1274 0.950 . S
C1270 C1279 1.390 . S
C1271 C1270 1.387 . S
C1271 C1273 1.387 . S
H1272 C1279 0.950 . S
C1273 C1271 1.387 . S
C1273 C1275 1.390 . S
C1273 H1277 0.950 . S
H1274 C1270 0.950 . S
C1275 C1273 1.390 . S
C1275 C1276 1.387 . S
C1275 H1278 0.950 . S
C1276 C1275 1.387 . S
C1276 C1279 1.387 . S
H1277 C1273 0.950 . S
H1278 C1275 0.950 . S
C1279 C1270 1.390 . S
C1279 H1272 0.950 . S
C1279 C1276 1.387 . S
C1280 C1281 1.387 . S
C1280 H1284 0.950 . S
C1280 C1289 1.390 . S
C1281 C1280 1.387 . S
C1281 C1283 1.387 . S
H1282 C1289 0.950 . S
C1283 C1281 1.387 . S
C1283 C1285 1.390 . S
C1283 H1287 0.950 . S
H1284 C1280 0.950 . S
C1285 C1283 1.390 . S
C1285 C1286 1.387 . S
C1285 H1288 0.950 . S
C1286 C1285 1.387 . S
C1286 C1289 1.387 . S
H1287 C1283 0.950 . S
H1288 C1285 0.950 . S
C1289 C1280 1.390 . S
C1289 H1282 0.950 . S
C1289 C1286 1.387 . S
C1290 C1291 1.387 . S
C1290 H1294 0.950 . S
C1290 C1299 1.390 . S
C1291 C1290 1.387 . S
C1291 C1293 1.387 . S
H1292 C1299 0.950 . S
C1293 C1291 1.387 . S
C1293 C1295 1.390 . S
C1293 H1297 0.950 . S
H1294 C1290 0.950 . S
C1295 C1293 1.390 . S
C1295 C1296 1.387 . S
C1295 H1298 0.950 . S
C1296 C1295 1.387 . S
C1296 C1299 1.387 . S
H1297 C1293 0.950 . S
H1298 C1295 0.950 . S
C1299 C1290 1.390 . S
C1299 H1292 0.950 . S
C1299 C1296 1.387 . S
C1300 C1301 1.387 . S
C1300 H1304 0.950 . S
C1300 C1309 1.390 . S
C1301 C1300 1.387 . S
C1301 C1303 1.387 . S
H1302 C1309 0.950 . S
C1303 C1301 1.387 . S
C1303 C1305 1.390 . S
C1303 H1307 0.950 . S
H1304 C1300 0.950 . S
C1305 C1303 1.390 . S
C1305 C1306 1.387 . S
C1305 H1308 0.950 . S
C1306 C1305 1.387 . S
C1306 C1309 1.387 . S
H1307 C1303 0.950 . S
H1308 C1305 0.950 . S
C1309 C1300 1.390 . S
C1309 H1302 0.950 . S
C1309 C1306 1.387 . S
C1310 C1311 1.387 . S
C1310 H1314 0.950 . S
C1310 C1319 1.390 . S
C1311 C1310 1.387 . S
C1311 C1313 1.387 . S
H1312 C1319 0.950 . S
C1313 C1311 1.387 . S
C1313 C1315 1.390 . S
C1313 H1317 0.954 . S
H1314 C1310 0.950 . S
C1315 C1313 1.390 . S
C1315 C1316 1.387 . S
C1315 H1318 0.950 1_556 S
C1316 C1315 1.387 . S
C1316 C1319 1.387 . S
H1317 C1313 0.954 . S
H1318 C1315 0.950 1_554 S
C1319 C1310 1.390 . S
C1319 H1312 0.950 . S
C1319 C1316 1.387 . S
C1320 C1321 1.387 . S
C1320 H1324 0.950 . S
C1320 C1329 1.390 . S
C1321 C1320 1.387 . S
C1321 C1323 1.387 . S
H1322 C1329 0.950 . S
C1323 C1321 1.387 . S
C1323 C1325 1.390 . S
C1323 H1327 0.950 . S
H1324 C1320 0.950 . S
C1325 C1323 1.390 . S
C1325 C1326 1.387 . S
C1325 H1328 0.950 . S
C1326 C1325 1.387 . S
C1326 C1329 1.387 . S
H1327 C1323 0.950 . S
H1328 C1325 0.950 . S
C1329 C1320 1.390 . S
C1329 H1322 0.950 . S
C1329 C1326 1.387 . S
C1330 C1331 1.387 . S
C1330 H1334 0.950 . S
C1330 C1339 1.390 . S
C1331 C1330 1.387 . S
C1331 C1333 1.387 . S
H1332 C1339 0.950 . S
C1333 C1331 1.387 . S
C1333 C1335 1.390 . S
C1333 H1337 0.950 . S
H1334 C1330 0.950 . S
C1335 C1333 1.390 . S
C1335 C1336 1.387 . S
C1335 H1338 0.950 . S
C1336 C1335 1.387 . S
C1336 C1339 1.387 . S
H1337 C1333 0.950 . S
H1338 C1335 0.950 . S
C1339 C1330 1.390 . S
C1339 H1332 0.950 . S
C1339 C1336 1.387 . S
C1340 C1341 1.387 . S
C1340 H1344 0.950 . S
C1340 C1349 1.390 . S
C1341 C1340 1.387 . S
C1341 C1343 1.387 . S
H1342 C1349 0.950 . S
C1343 C1341 1.387 . S
C1343 C1345 1.390 . S
C1343 H1347 0.950 . S
H1344 C1340 0.950 . S
C1345 C1343 1.390 . S
C1345 C1346 1.387 . S
C1345 H1348 0.950 . S
C1346 C1345 1.387 . S
C1346 C1349 1.387 . S
H1347 C1343 0.950 . S
H1348 C1345 0.950 . S
C1349 C1340 1.390 . S
C1349 H1342 0.950 . S
C1349 C1346 1.387 . S
C1350 C1351 1.387 . S
C1350 H1354 0.950 . S
C1350 C1359 1.390 . S
C1351 C1350 1.387 . S
C1351 C1353 1.387 . S
H1352 C1359 0.950 . S
C1353 C1351 1.387 . S
C1353 C1355 1.390 . S
C1353 H1357 0.950 . S
H1354 C1350 0.950 . S
C1355 C1353 1.390 . S
C1355 C1356 1.387 . S
C1355 H1358 0.950 . S
C1356 C1355 1.387 . S
C1356 C1359 1.387 . S
H1357 C1353 0.950 . S
H1358 C1355 0.950 . S
C1359 C1350 1.390 . S
C1359 H1352 0.950 . S
C1359 C1356 1.387 . S
C1360 C1361 1.387 . S
C1360 H1364 0.950 . S
C1360 C1369 1.390 . S
C1361 C1360 1.387 . S
C1361 C1363 1.387 . S
H1362 C1369 0.950 . S
C1363 C1361 1.387 . S
C1363 C1365 1.390 . S
C1363 H1367 0.950 . S
H1364 C1360 0.950 . S
C1365 C1363 1.390 . S
C1365 C1366 1.387 . S
C1365 H1368 0.950 . S
C1366 C1365 1.387 . S
C1366 C1369 1.387 . S
H1367 C1363 0.950 . S
H1368 C1365 0.950 . S
C1369 C1360 1.390 . S
C1369 H1362 0.950 . S
C1369 C1366 1.387 . S
C1370 C1371 1.387 . S
C1370 H1374 0.950 . S
C1370 C1379 1.390 . S
C1371 C1370 1.387 . S
C1371 C1373 1.387 . S
H1372 C1379 0.950 1_556 S
C1373 C1371 1.387 . S
C1373 C1375 1.390 . S
C1373 H1377 0.950 . S
H1374 C1370 0.950 . S
C1375 C1373 1.390 . S
C1375 C1376 1.387 . S
C1375 H1378 0.950 . S
C1376 C1375 1.387 . S
C1376 C1379 1.387 . S
H1377 C1373 0.950 . S
H1378 C1375 0.950 . S
C1379 C1370 1.390 . S
C1379 H1372 0.950 1_554 S
C1379 C1376 1.387 . S
C1380 C1381 1.389 . S
C1380 H1384 0.950 1_455 S
C1380 C1389 1.390 . S
C1381 C1380 1.389 . S
C1381 C1383 1.389 . S
H1382 C1389 0.950 . S
C1383 C1381 1.389 . S
C1383 C1385 1.390 . S
C1383 H1387 0.950 . S
H1384 C1380 0.950 1_655 S
C1385 C1383 1.390 . S
C1385 C1386 1.387 . S
C1385 H1388 0.950 . S
C1386 C1385 1.387 . S
C1386 C1389 1.387 . S
H1387 C1383 0.950 . S
H1388 C1385 0.950 . S
C1389 C1380 1.390 . S
C1389 H1382 0.950 . S
C1389 C1386 1.387 . S
C1390 C1391 1.387 . S
C1390 H1394 0.950 . S
C1390 C1399 1.390 . S
C1391 C1390 1.387 . S
C1391 C1393 1.387 . S
H1392 C1399 0.950 . S
C1393 C1391 1.387 . S
C1393 C1395 1.390 . S
C1393 H1397 0.950 . S
H1394 C1390 0.950 . S
C1395 C1393 1.390 . S
C1395 C1396 1.387 . S
C1395 H1398 0.950 . S
C1396 C1395 1.387 . S
C1396 C1399 1.387 . S
H1397 C1393 0.950 . S
H1398 C1395 0.950 . S
C1399 C1390 1.390 . S
C1399 H1392 0.950 . S
C1399 C1396 1.387 . S
C1400 C1401 1.387 . S
C1400 H1404 0.950 . S
C1400 C1409 1.390 . S
C1401 C1400 1.387 . S
C1401 C1403 1.387 . S
H1402 C1409 0.950 . S
C1403 C1401 1.387 . S
C1403 C1405 1.390 . S
C1403 H1407 0.950 . S
H1404 C1400 0.950 . S
C1405 C1403 1.390 . S
C1405 C1406 1.387 . S
C1405 H1408 0.950 . S
C1406 C1405 1.387 . S
C1406 C1409 1.387 . S
H1407 C1403 0.950 . S
H1408 C1405 0.950 . S
C1409 C1400 1.390 . S
C1409 H1402 0.950 . S
C1409 C1406 1.387 . S
C1410 C1411 1.387 . S
C1410 H1414 0.950 . S
C1410 C1419 1.390 . S
C1411 C1410 1.387 . S
C1411 C1413 1.387 . S
H1412 C1419 0.950 . S
C1413 C1411 1.387 . S
C1413 C1415 1.390 . S
C1413 H1417 0.950 . S
H1414 C1410 0.950 . S
C1415 C1413 1.390 . S
C1415 C1416 1.387 . S
C1415 H1418 0.950 . S
C1416 C1415 1.387 . S
C1416 C1419 1.387 . S
H1417 C1413 0.950 . S
H1418 C1415 0.950 . S
C1419 C1410 1.390 . S
C1419 H1412 0.950 . S
C1419 C1416 1.387 . S
C1420 C1421 1.387 . S
C1420 H1424 0.950 . S
C1420 C1429 1.390 . S
C1421 C1420 1.387 . S
C1421 C1423 1.387 . S
H1422 C1429 0.950 . S
C1423 C1421 1.387 . S
C1423 C1425 1.390 . S
C1423 H1427 0.950 . S
H1424 C1420 0.950 . S
C1425 C1423 1.390 . S
C1425 C1426 1.387 . S
C1425 H1428 0.950 . S
C1426 C1425 1.387 . S
C1426 C1429 1.387 . S
H1427 C1423 0.950 . S
H1428 C1425 0.950 . S
C1429 C1420 1.390 . S
C1429 H1422 0.950 . S
C1429 C1426 1.387 . S
C1430 C1431 1.387 . S
C1430 H1434 0.950 . S
C1430 C1439 1.390 . S
C1431 C1430 1.387 . S
C1431 C1433 1.387 . S
H1432 C1439 0.950 . S
C1433 C1431 1.387 . S
C1433 C1435 1.390 . S
C1433 H1437 0.950 . S
H1434 C1430 0.950 . S
C1435 C1433 1.390 . S
C1435 C1436 1.387 . S
C1435 H1438 0.950 . S
C1436 C1435 1.387 . S
C1436 C1439 1.387 . S
H1437 C1433 0.950 . S
H1438 C1435 0.950 . S
C1439 C1430 1.390 . S
C1439 H1432 0.950 . S
C1439 C1436 1.387 . S
C1440 C1441 1.387 . S
C1440 H1444 0.950 . S
C1440 C1449 1.390 . S
C1441 C1440 1.387 . S
C1441 C1443 1.387 . S
H1442 C1449 0.950 . S
C1443 C1441 1.387 . S
C1443 C1445 1.390 . S
C1443 H1447 0.950 . S
H1444 C1440 0.950 . S
C1445 C1443 1.390 . S
C1445 C1446 1.387 . S
C1445 H1448 0.950 . S
C1446 C1445 1.387 . S
C1446 C1449 1.387 . S
H1447 C1443 0.950 . S
H1448 C1445 0.950 . S
C1449 C1440 1.390 . S
C1449 H1442 0.950 . S
C1449 C1446 1.387 . S
C1450 C1451 1.387 . S
C1450 H1454 0.950 . S
C1450 C1459 1.390 . S
C1451 C1450 1.387 . S
C1451 C1453 1.387 . S
H1452 C1459 0.950 . S
C1453 C1451 1.387 . S
C1453 C1455 1.390 . S
C1453 H1457 0.950 . S
H1454 C1450 0.950 . S
C1455 C1453 1.390 . S
C1455 C1456 1.387 . S
C1455 H1458 0.950 . S
C1456 C1455 1.387 . S
C1456 C1459 1.387 . S
H1457 C1453 0.950 . S
H1458 C1455 0.950 . S
C1459 C1450 1.390 . S
C1459 H1452 0.950 . S
C1459 C1456 1.387 . S
C1460 C1461 1.387 . S
C1460 H1464 0.950 . S
C1460 C1469 1.390 . S
C1461 C1460 1.387 . S
C1461 C1463 1.387 . S
H1462 C1469 0.950 . S
C1463 C1461 1.387 . S
C1463 C1465 1.390 . S
C1463 H1467 0.950 . S
H1464 C1460 0.950 . S
C1465 C1463 1.390 . S
C1465 C1466 1.387 . S
C1465 H1468 0.950 . S
C1466 C1465 1.387 . S
C1466 C1469 1.387 . S
H1467 C1463 0.950 . S
H1468 C1465 0.950 . S
C1469 C1460 1.390 . S
C1469 H1462 0.950 . S
C1469 C1466 1.387 . S
C1470 C1471 1.387 . S
C1470 H1474 0.950 . S
C1470 C1479 1.390 . S
C1471 C1470 1.387 . S
C1471 C1473 1.387 . S
H1472 C1479 0.950 . S
C1473 C1471 1.387 . S
C1473 C1475 1.390 . S
C1473 H1477 0.950 . S
H1474 C1470 0.950 . S
C1475 C1473 1.390 . S
C1475 C1476 1.387 . S
C1475 H1478 0.950 . S
C1476 C1475 1.387 . S
C1476 C1479 1.387 . S
H1477 C1473 0.950 . S
H1478 C1475 0.950 . S
C1479 C1470 1.390 . S
C1479 H1472 0.950 . S
C1479 C1476 1.387 . S
C1480 C1481 1.387 . S
C1480 H1484 0.950 1_455 S
C1480 C1489 1.390 . S
C1481 C1480 1.387 . S
C1481 C1483 1.387 . S
H1482 C1489 0.950 . S
C1483 C1481 1.387 . S
C1483 C1485 1.390 . S
C1483 H1487 0.950 . S
H1484 C1480 0.950 1_655 S
C1485 C1483 1.390 . S
C1485 C1486 1.387 . S
C1485 H1488 0.950 . S
C1486 C1485 1.387 . S
C1486 C1489 1.387 . S
H1487 C1483 0.950 . S
H1488 C1485 0.950 . S
C1489 C1480 1.390 . S
C1489 H1482 0.950 . S
C1489 C1486 1.387 . S
C1490 C1491 1.387 . S
C1490 H1494 0.950 . S
C1490 C1499 1.390 . S
C1491 C1490 1.387 . S
C1491 C1493 1.387 . S
H1492 C1499 0.950 . S
C1493 C1491 1.387 . S
C1493 C1495 1.390 . S
C1493 H1497 0.950 . S
H1494 C1490 0.950 . S
C1495 C1493 1.390 . S
C1495 C1496 1.387 . S
C1495 H1498 0.950 . S
C1496 C1495 1.387 . S
C1496 C1499 1.387 . S
H1497 C1493 0.950 . S
H1498 C1495 0.950 . S
C1499 C1490 1.390 . S
C1499 H1492 0.950 . S
C1499 C1496 1.387 . S
C1500 C1501 1.387 . S
C1500 H1504 0.950 . S
C1500 C1509 1.390 . S
C1501 C1500 1.387 . S
C1501 C1503 1.387 . S
H1502 C1509 0.950 . S
C1503 C1501 1.387 . S
C1503 C1505 1.390 . S
C1503 H1507 0.950 . S
H1504 C1500 0.950 . S
C1505 C1503 1.390 . S
C1505 C1506 1.387 . S
C1505 H1508 0.950 . S
C1506 C1505 1.387 . S
C1506 C1509 1.387 . S
H1507 C1503 0.950 . S
H1508 C1505 0.950 . S
C1509 C1500 1.390 . S
C1509 H1502 0.950 . S
C1509 C1506 1.387 . S
C1510 C1511 1.387 . S
C1510 H1514 0.950 . S
C1510 C1519 1.390 . S
C1511 C1510 1.387 . S
C1511 C1513 1.387 . S
H1512 C1519 0.950 . S
C1513 C1511 1.387 . S
C1513 C1515 1.390 . S
C1513 H1517 0.950 . S
H1514 C1510 0.950 . S
C1515 C1513 1.390 . S
C1515 C1516 1.387 . S
C1515 H1518 0.950 . S
C1516 C1515 1.387 . S
C1516 C1519 1.387 . S
H1517 C1513 0.950 . S
H1518 C1515 0.950 . S
C1519 C1510 1.390 . S
C1519 H1512 0.950 . S
C1519 C1516 1.387 . S
C1520 C1521 1.387 . S
C1520 H1524 0.950 . S
C1520 C1529 1.390 . S
C1521 C1520 1.387 . S
C1521 C1523 1.387 . S
H1522 C1529 0.950 . S
C1523 C1521 1.387 . S
C1523 C1525 1.390 . S
C1523 H1527 0.950 . S
H1524 C1520 0.950 . S
C1525 C1523 1.390 . S
C1525 C1526 1.387 . S
C1525 H1528 0.950 . S
C1526 C1525 1.387 . S
C1526 C1529 1.387 . S
H1527 C1523 0.950 . S
H1528 C1525 0.950 . S
C1529 C1520 1.390 . S
C1529 H1522 0.950 . S
C1529 C1526 1.387 . S
C1530 C1531 1.387 . S
C1530 H1534 0.950 . S
C1530 C1539 1.390 . S
C1531 C1530 1.387 . S
C1531 C1533 1.387 . S
H1532 C1539 0.950 . S
C1533 C1531 1.387 . S
C1533 C1535 1.390 . S
C1533 H1537 0.950 . S
H1534 C1530 0.950 . S
C1535 C1533 1.390 . S
C1535 C1536 1.387 . S
C1535 H1538 0.950 . S
C1536 C1535 1.387 . S
C1536 C1539 1.387 . S
H1537 C1533 0.950 . S
H1538 C1535 0.950 . S
C1539 C1530 1.390 . S
C1539 H1532 0.950 . S
C1539 C1536 1.387 . S
C1540 C1541 1.387 . S
C1540 H1544 0.950 1_655 S
C1540 C1549 1.390 . S
C1541 C1540 1.387 . S
C1541 C1543 1.387 . S
H1542 C1549 0.950 . S
C1543 C1541 1.387 . S
C1543 C1545 1.390 . S
C1543 H1547 0.950 . S
H1544 C1540 0.950 1_455 S
C1545 C1543 1.390 . S
C1545 C1546 1.387 . S
C1545 H1548 0.950 . S
C1546 C1545 1.387 . S
C1546 C1549 1.387 . S
H1547 C1543 0.950 . S
H1548 C1545 0.950 . S
C1549 C1540 1.390 . S
C1549 H1542 0.950 . S
C1549 C1546 1.387 . S
C1550 C1551 1.387 . S
C1550 H1554 0.950 . S
C1550 C1559 1.390 . S
C1551 C1550 1.387 . S
C1551 C1553 1.387 . S
H1552 C1559 0.950 . S
C1553 C1551 1.387 . S
C1553 C1555 1.390 . S
C1553 H1557 0.950 . S
H1554 C1550 0.950 . S
C1555 C1553 1.390 . S
C1555 C1556 1.387 . S
C1555 H1558 0.950 . S
C1556 C1555 1.387 . S
C1556 C1559 1.387 . S
H1557 C1553 0.950 . S
H1558 C1555 0.950 . S
C1559 C1550 1.390 . S
C1559 H1552 0.950 . S
C1559 C1556 1.387 . S
C1560 C1561 1.385 1_655 S
C1560 H1564 0.950 . S
C1560 C1569 1.390 . S
C1561 C1560 1.385 1_455 S
C1561 C1563 1.385 1_455 S
H1562 C1569 0.950 . S
C1563 C1561 1.385 1_655 S
C1563 C1565 1.390 . S
C1563 H1567 0.950 1_655 S
H1564 C1560 0.950 . S
C1565 C1563 1.390 . S
C1565 C1566 1.387 . S
C1565 H1568 0.950 . S
C1566 C1565 1.387 . S
C1566 C1569 1.387 . S
H1567 C1563 0.950 1_455 S
H1568 C1565 0.950 . S
C1569 C1560 1.390 . S
C1569 H1562 0.950 . S
C1569 C1566 1.387 . S
C1570 C1571 1.387 . S
C1570 H1574 0.950 . S
C1570 C1579 1.390 . S
C1571 C1570 1.387 . S
C1571 C1573 1.387 . S
H1572 C1579 0.950 . S
C1573 C1571 1.387 . S
C1573 C1575 1.390 . S
C1573 H1577 0.950 . S
H1574 C1570 0.950 . S
C1575 C1573 1.390 . S
C1575 C1576 1.387 . S
C1575 H1578 0.950 . S
C1576 C1575 1.387 . S
C1576 C1579 1.387 . S
H1577 C1573 0.950 . S
H1578 C1575 0.950 . S
C1579 C1570 1.390 . S
C1579 H1572 0.950 . S
C1579 C1576 1.387 . S
C1580 C1581 1.387 . S
C1580 H1584 0.950 . S
C1580 C1589 1.390 . S
C1581 C1580 1.387 . S
C1581 C1583 1.387 . S
H1582 C1589 0.950 . S
C1583 C1581 1.387 . S
C1583 C1585 1.390 . S
C1583 H1587 0.950 . S
H1584 C1580 0.950 . S
C1585 C1583 1.390 . S
C1585 C1586 1.387 . S
C1585 H1588 0.950 . S
C1586 C1585 1.387 . S
C1586 C1589 1.387 . S
H1587 C1583 0.950 . S
H1588 C1585 0.950 . S
C1589 C1580 1.390 . S
C1589 H1582 0.950 . S
C1589 C1586 1.387 . S
C1590 C1591 1.387 . S
C1590 H1594 0.950 . S
C1590 C1599 1.390 . S
C1591 C1590 1.387 . S
C1591 C1593 1.387 . S
H1592 C1599 0.950 . S
C1593 C1591 1.387 . S
C1593 C1595 1.390 . S
C1593 H1597 0.950 . S
H1594 C1590 0.950 . S
C1595 C1593 1.390 . S
C1595 C1596 1.387 . S
C1595 H1598 0.950 . S
C1596 C1595 1.387 . S
C1596 C1599 1.387 . S
H1597 C1593 0.950 . S
H1598 C1595 0.950 . S
C1599 C1590 1.390 . S
C1599 H1592 0.950 . S
C1599 C1596 1.387 . S
C1600 C1601 1.387 . S
C1600 H1604 0.950 . S
C1600 C1609 1.390 . S
C1601 C1600 1.387 . S
C1601 C1603 1.387 . S
H1602 C1609 0.950 . S
C1603 C1601 1.387 . S
C1603 C1605 1.390 . S
C1603 H1607 0.950 . S
H1604 C1600 0.950 . S
C1605 C1603 1.390 . S
C1605 C1606 1.387 . S
C1605 H1608 0.950 . S
C1606 C1605 1.387 . S
C1606 C1609 1.387 . S
H1607 C1603 0.950 . S
H1608 C1605 0.950 . S
C1609 C1600 1.390 . S
C1609 H1602 0.950 . S
C1609 C1606 1.387 . S
C1610 C1611 1.387 . S
C1610 H1614 0.950 . S
C1610 C1619 1.390 . S
C1611 C1610 1.387 . S
C1611 C1613 1.387 . S
H1612 C1619 0.950 . S
C1613 C1611 1.387 . S
C1613 C1615 1.390 . S
C1613 H1617 0.950 . S
H1614 C1610 0.950 . S
C1615 C1613 1.390 . S
C1615 C1616 1.387 . S
C1615 H1618 0.950 . S
C1616 C1615 1.387 . S
C1616 C1619 1.387 . S
H1617 C1613 0.950 . S
H1618 C1615 0.950 . S
C1619 C1610 1.390 . S
C1619 H1612 0.950 . S
C1619 C1616 1.387 . S
C1620 C1621 1.387 1_545 S
C1620 H1624 0.950 . S
C1620 C1629 1.390 . S
C1621 C1620 1.387 1_565 S
C1621 C1623 1.387 . S
H1622 C1629 0.950 . S
C1623 C1621 1.387 . S
C1623 C1625 1.390 . S
C1623 H1627 0.950 . S
H1624 C1620 0.950 . S
C1625 C1623 1.390 . S
C1625 C1626 1.387 . S
C1625 H1628 0.950 . S
C1626 C1625 1.387 . S
C1626 C1629 1.387 1_565 S
H1627 C1623 0.950 . S
H1628 C1625 0.950 . S
C1629 C1620 1.390 . S
C1629 H1622 0.950 . S
C1629 C1626 1.387 1_545 S
C1630 C1631 1.387 1_655 S
C1630 H1634 0.950 . S
C1630 C1639 1.390 . S
C1631 C1630 1.387 1_455 S
C1631 C1633 1.387 . S
H1632 C1639 0.950 . S
C1633 C1631 1.387 . S
C1633 C1635 1.390 . S
C1633 H1637 0.950 . S
H1634 C1630 0.950 . S
C1635 C1633 1.390 . S
C1635 C1636 1.387 . S
C1635 H1638 0.950 . S
C1636 C1635 1.387 . S
C1636 C1639 1.387 1_455 S
H1637 C1633 0.950 . S
H1638 C1635 0.950 . S
C1639 C1630 1.390 . S
C1639 H1632 0.950 . S
C1639 C1636 1.387 1_655 S
C1640 C1641 1.387 . S
C1640 H1644 0.950 . S
C1640 C1649 1.390 . S
C1641 C1640 1.387 . S
C1641 C1643 1.387 . S
H1642 C1649 0.950 . S
C1643 C1641 1.387 . S
C1643 C1645 1.390 . S
C1643 H1647 0.950 . S
H1644 C1640 0.950 . S
C1645 C1643 1.390 . S
C1645 C1646 1.387 . S
C1645 H1648 0.950 . S
C1646 C1645 1.387 . S
C1646 C1649 1.387 . S
H1647 C1643 0.950 . S
H1648 C1645 0.950 . S
C1649 C1640 1.390 . S
C1649 H1642 0.950 . S
C1649 C1646 1.387 . S
C1650 C1651 1.387 1_455 S
C1650 H1654 0.950 . S
C1650 C1659 1.390 . S
C1651 C1650 1.387 1_655 S
C1651 C1653 1.387 . S
H1652 C1659 0.950 . S
C1653 C1651 1.387 . S
C1653 C1655 1.390 . S
C1653 H1657 0.950 . S
H1654 C1650 0.950 . S
C1655 C1653 1.390 . S
C1655 C1656 1.387 . S
C1655 H1658 0.950 . S
C1656 C1655 1.387 . S
C1656 C1659 1.387 1_655 S
H1657 C1653 0.950 . S
H1658 C1655 0.950 . S
C1659 C1650 1.390 . S
C1659 H1652 0.950 . S
C1659 C1656 1.387 1_455 S
C1660 C1661 1.387 . S
C1660 H1664 0.950 . S
C1660 C1669 1.390 . S
C1661 C1660 1.387 . S
C1661 C1663 1.387 . S
H1662 C1669 0.950 . S
C1663 C1661 1.387 . S
C1663 C1665 1.390 . S
C1663 H1667 0.950 . S
H1664 C1660 0.950 . S
C1665 C1663 1.390 . S
C1665 C1666 1.387 . S
C1665 H1668 0.950 . S
C1666 C1665 1.387 . S
C1666 C1669 1.387 . S
H1667 C1663 0.950 . S
H1668 C1665 0.950 . S
C1669 C1660 1.390 . S
C1669 H1662 0.950 . S
C1669 C1666 1.387 . S
C1670 C1671 1.387 . S
C1670 H1674 0.950 . S
C1670 C1679 1.390 . S
C1671 C1670 1.387 . S
C1671 C1673 1.387 1_545 S
H1672 C1679 0.950 . S
C1673 C1671 1.387 1_565 S
C1673 C1675 1.390 . S
C1673 H1677 0.950 . S
H1674 C1670 0.950 . S
C1675 C1673 1.390 . S
C1675 C1676 1.387 1_565 S
C1675 H1678 0.950 . S
C1676 C1675 1.387 1_545 S
C1676 C1679 1.387 . S
H1677 C1673 0.950 . S
H1678 C1675 0.950 . S
C1679 C1670 1.390 . S
C1679 H1672 0.950 . S
C1679 C1676 1.387 . S
C1680 C1681 1.387 . S
C1680 H1684 0.950 . S
C1680 C1689 1.390 . S
C1681 C1680 1.387 . S
C1681 C1683 1.387 . S
H1682 C1689 0.950 . S
C1683 C1681 1.387 . S
C1683 C1685 1.390 . S
C1683 H1687 0.950 . S
H1684 C1680 0.950 . S
C1685 C1683 1.390 . S
C1685 C1686 1.387 . S
C1685 H1688 0.950 . S
C1686 C1685 1.387 . S
C1686 C1689 1.387 . S
H1687 C1683 0.950 . S
H1688 C1685 0.950 . S
C1689 C1680 1.390 . S
C1689 H1682 0.950 . S
C1689 C1686 1.387 . S
C1690 C1691 1.387 . S
C1690 H1694 0.950 . S
C1690 C1699 1.390 . S
C1691 C1690 1.387 . S
C1691 C1693 1.387 . S
H1692 C1699 0.950 . S
C1693 C1691 1.387 . S
C1693 C1695 1.390 . S
C1693 H1697 0.950 . S
H1694 C1690 0.950 . S
C1695 C1693 1.390 . S
C1695 C1696 1.387 . S
C1695 H1698 0.950 . S
C1696 C1695 1.387 . S
C1696 C1699 1.387 . S
H1697 C1693 0.950 . S
H1698 C1695 0.950 . S
C1699 C1690 1.390 . S
C1699 H1692 0.950 . S
C1699 C1696 1.387 . S
C1700 C1701 1.387 . S
C1700 H1704 0.950 . S
C1700 C1709 1.390 . S
C1701 C1700 1.387 . S
C1701 C1703 1.387 . S
H1702 C1709 0.950 . S
C1703 C1701 1.387 . S
C1703 C1705 1.390 . S
C1703 H1707 0.950 . S
H1704 C1700 0.950 . S
C1705 C1703 1.390 . S
C1705 C1706 1.387 . S
C1705 H1708 0.950 . S
C1706 C1705 1.387 . S
C1706 C1709 1.387 . S
H1707 C1703 0.950 . S
H1708 C1705 0.950 . S
C1709 C1700 1.390 . S
C1709 H1702 0.950 . S
C1709 C1706 1.387 . S
C1710 C1711 1.387 . S
C1710 H1714 0.950 . S
C1710 C1719 1.390 . S
C1711 C1710 1.387 . S
C1711 C1713 1.387 . S
H1712 C1719 0.950 . S
C1713 C1711 1.387 . S
C1713 C1715 1.390 . S
C1713 H1717 0.950 . S
H1714 C1710 0.950 . S
C1715 C1713 1.390 . S
C1715 C1716 1.387 . S
C1715 H1718 0.950 . S
C1716 C1715 1.387 . S
C1716 C1719 1.387 . S
H1717 C1713 0.950 . S
H1718 C1715 0.950 . S
C1719 C1710 1.390 . S
C1719 H1712 0.950 . S
C1719 C1716 1.387 . S
C1720 C1721 1.387 . S
C1720 H1724 0.950 . S
C1720 C1729 1.390 . S
C1721 C1720 1.387 . S
C1721 C1723 1.387 . S
H1722 C1729 0.950 . S
C1723 C1721 1.387 . S
C1723 C1725 1.390 . S
C1723 H1727 0.950 . S
H1724 C1720 0.950 . S
C1725 C1723 1.390 . S
C1725 C1726 1.387 . S
C1725 H1728 0.950 . S
C1726 C1725 1.387 . S
C1726 C1729 1.387 . S
H1727 C1723 0.950 . S
H1728 C1725 0.950 . S
C1729 C1720 1.390 . S
C1729 H1722 0.950 . S
C1729 C1726 1.387 . S
C1730 C1731 1.387 . S
C1730 H1734 0.950 . S
C1730 C1739 1.390 . S
C1731 C1730 1.387 . S
C1731 C1733 1.387 . S
H1732 C1739 0.950 . S
C1733 C1731 1.387 . S
C1733 C1735 1.390 . S
C1733 H1737 0.950 . S
H1734 C1730 0.950 . S
C1735 C1733 1.390 . S
C1735 C1736 1.387 . S
C1735 H1738 0.950 . S
C1736 C1735 1.387 . S
C1736 C1739 1.387 . S
H1737 C1733 0.950 . S
H1738 C1735 0.950 . S
C1739 C1730 1.390 . S
C1739 H1732 0.950 . S
C1739 C1736 1.387 . S
C1740 C1741 1.387 . S
C1740 H1744 0.950 . S
C1740 C1749 1.390 . S
C1741 C1740 1.387 . S
C1741 C1743 1.387 . S
H1742 C1749 0.950 . S
C1743 C1741 1.387 . S
C1743 C1745 1.390 . S
C1743 H1747 0.950 . S
H1744 C1740 0.950 . S
C1745 C1743 1.390 . S
C1745 C1746 1.387 . S
C1745 H1748 0.950 . S
C1746 C1745 1.387 . S
C1746 C1749 1.387 . S
H1747 C1743 0.950 . S
H1748 C1745 0.950 . S
C1749 C1740 1.390 . S
C1749 H1742 0.950 . S
C1749 C1746 1.387 . S
C1750 C1751 1.387 . S
C1750 H1754 0.950 . S
C1750 C1759 1.390 . S
C1751 C1750 1.387 . S
C1751 C1753 1.387 . S
H1752 C1759 0.950 . S
C1753 C1751 1.387 . S
C1753 C1755 1.390 . S
C1753 H1757 0.950 . S
H1754 C1750 0.950 . S
C1755 C1753 1.390 . S
C1755 C1756 1.387 . S
C1755 H1758 0.950 . S
C1756 C1755 1.387 . S
C1756 C1759 1.387 . S
H1757 C1753 0.950 . S
H1758 C1755 0.950 . S
C1759 C1750 1.390 . S
C1759 H1752 0.950 . S
C1759 C1756 1.387 . S
C1760 C1761 1.387 . S
C1760 H1764 0.950 . S
C1760 C1769 1.390 . S
C1761 C1760 1.387 . S
C1761 C1763 1.387 . S
H1762 C1769 0.950 . S
C1763 C1761 1.387 . S
C1763 C1765 1.390 . S
C1763 H1767 0.950 . S
H1764 C1760 0.950 . S
C1765 C1763 1.390 . S
C1765 C1766 1.387 . S
C1765 H1768 0.950 . S
C1766 C1765 1.387 . S
C1766 C1769 1.387 . S
H1767 C1763 0.950 . S
H1768 C1765 0.950 . S
C1769 C1760 1.390 . S
C1769 H1762 0.950 . S
C1769 C1766 1.387 . S
C1770 C1771 1.387 . S
C1770 H1774 0.950 . S
C1770 C1779 1.390 . S
C1771 C1770 1.387 . S
C1771 C1773 1.387 . S
H1772 C1779 0.950 . S
C1773 C1771 1.387 . S
C1773 C1775 1.390 . S
C1773 H1777 0.950 . S
H1774 C1770 0.950 . S
C1775 C1773 1.390 . S
C1775 C1776 1.387 . S
C1775 H1778 0.950 . S
C1776 C1775 1.387 . S
C1776 C1779 1.387 . S
H1777 C1773 0.950 . S
H1778 C1775 0.950 . S
C1779 C1770 1.390 . S
C1779 H1772 0.950 . S
C1779 C1776 1.387 . S
C1780 C1781 1.387 . S
C1780 H1784 0.950 . S
C1780 C1789 1.390 . S
C1781 C1780 1.387 . S
C1781 C1783 1.387 . S
H1782 C1789 0.950 . S
C1783 C1781 1.387 . S
C1783 C1785 1.390 . S
C1783 H1787 0.950 . S
H1784 C1780 0.950 . S
C1785 C1783 1.390 . S
C1785 C1786 1.387 . S
C1785 H1788 0.950 . S
C1786 C1785 1.387 . S
C1786 C1789 1.387 . S
H1787 C1783 0.950 . S
H1788 C1785 0.950 . S
C1789 C1780 1.390 . S
C1789 H1782 0.950 . S
C1789 C1786 1.387 . S
C1790 C1791 1.387 . S
C1790 H1794 0.950 . S
C1790 C1799 1.390 . S
C1791 C1790 1.387 . S
C1791 C1793 1.387 . S
H1792 C1799 0.950 . S
C1793 C1791 1.387 . S
C1793 C1795 1.390 . S
C1793 H1797 0.950 . S
H1794 C1790 0.950 . S
C1795 C1793 1.390 . S
C1795 C1796 1.387 . S
C1795 H1798 0.950 . S
C1796 C1795 1.387 . S
C1796 C1799 1.387 . S
H1797 C1793 0.950 . S
H1798 C1795 0.950 . S
C1799 C1790 1.390 . S
C1799 H1792 0.950 . S
C1799 C1796 1.387 . S
C1261 C781 1.610 . S
C1266 C1086 1.573 . S
C1271 C871 1.480 . S
C1276 C1106 1.486 . S
C1281 C751 1.548 . S
C1286 C1129 1.574 . S
C1291 C691 1.463 . S
C1296 C1109 1.493 . S
C1306 C1126 1.470 . S
C1301 C571 1.419 . S
C1311 C601 1.535 . S
C1316 C1089 1.523 . S
C1326 C1096 1.576 . S
C1321 C661 1.550 . S
C1336 C1116 1.487 . S
C1331 C541 1.469 . S
C1341 C631 1.605 . S
C1346 C1121 1.574 . S
C1351 C811 1.514 . S
C1356 C1101 1.496 . S
C1361 C841 1.459 . S
C1366 C1136 1.472 . S
C1376 C1081 1.523 . S
C1371 C721 1.478 . S
C1386 C1146 1.573 . S
C1381 C61 1.607 1_455 S
C1391 C151 1.480 . S
C1396 C1166 1.486 . S
C1401 C31 1.548 1_565 S
C1406 C1189 1.573 . S
C1411 C1051 1.463 . S
C1416 C1169 1.494 . S
C1421 C931 1.420 . S
C1426 C1186 1.471 . S
C1431 C961 1.536 . S
C1436 C1149 1.523 . S
C1441 C1021 1.548 . S
C1446 C1156 1.573 . S
C1451 C901 1.467 . S
C1456 C1176 1.485 . S
C1466 C1181 1.572 . S
C1461 C991 1.605 . S
C1471 C91 1.514 1_565 S
C1476 C1161 1.495 . S
C1486 C1196 1.472 . S
C1481 C121 1.460 1_455 S
C1491 C1 1.477 . S
C1496 C1141 1.523 . S
C1506 C1206 1.576 . S
C1501 C421 1.611 . S
C1511 C511 1.482 . S
C1516 C1226 1.485 . S
C1526 C1249 1.574 . S
C1521 C391 1.548 . S
C1536 C1229 1.493 . S
C1531 C331 1.462 1_545 S
C1546 C1246 1.471 . S
C1541 C211 1.420 1_655 S
C1551 C241 1.536 . S
C1556 C1209 1.522 . S
C1561 C301 1.552 . S
C1566 C1216 1.573 . S
C1571 C181 1.470 . S
C1576 C1236 1.487 . S
C1586 C1241 1.574 . S
C1581 C271 1.606 1_545 S
C1591 C451 1.515 . S
C1596 C1221 1.494 . S
C1601 C481 1.458 . S
C1606 C1256 1.471 . S
C1611 C361 1.478 . S
C1616 C1201 1.523 . S
C1621 C920 1.316 . S
C1626 C1099 1.303 1_565 S
C1636 C1119 1.590 . S
C1631 C980 1.644 . S
C1641 C1040 1.455 . S
C1646 C1128 1.475 . S
C1651 C380 1.589 . S
C1656 C1108 1.593 . S
C1661 C440 1.500 . S
C1666 C1139 1.471 . S
C1676 C1088 1.302 1_545 S
C1671 C500 1.289 . S
C1681 C200 1.315 . S
C1686 C1159 1.302 . S
C1691 C260 1.643 . S
C1696 C1179 1.593 . S
C1701 C320 1.456 . S
C1706 C1188 1.472 . S
C1711 C740 1.588 . S
C1716 C1168 1.590 . S
C1726 C1199 1.472 . S
C1721 C800 1.501 . S
C1731 C860 1.287 . S
C1736 C1148 1.304 . S
C1741 C560 1.315 . S
C1746 C1219 1.302 . S
C1751 C620 1.643 . S
C1756 C1239 1.593 . S
C1766 C1248 1.472 . S
C1761 C680 1.454 . S
C1771 C20 1.588 . S
C1776 C1228 1.592 . S
C1781 C80 1.500 . S
C1786 C1259 1.471 . S
C1791 C140 1.287 . S
C1796 C1208 1.303 . S
