# Generated by pormake.
# Topology zzz, (3,6)-cn, num edge types: 1
# Building blocks:
#     Node 0, Type 0, BuildingBlock: QEWDON_clean_linker_0, # of connection points: 3
#     Node 1, Type 0, BuildingBlock: QEWDON_clean_linker_0, # of connection points: 3
#     Node 2, Type 0, BuildingBlock: QEWDON_clean_linker_0, # of connection points: 3
#     Node 3, Type 0, BuildingBlock: QEWDON_clean_linker_0, # of connection points: 3
#     Node 4, Type 0, BuildingBlock: QEWDON_clean_linker_0, # of connection points: 3
#     Node 5, Type 0, BuildingBlock: QEWDON_clean_linker_0, # of connection points: 3
#     Node 6, Type 0, BuildingBlock: QEWDON_clean_linker_0, # of connection points: 3
#     Node 7, Type 0, BuildingBlock: QEWDON_clean_linker_0, # of connection points: 3
#     Node 8, Type 1, BuildingBlock: PAMTOO_clean_sbu_0, # of connection points: 6
#     Node 9, Type 1, BuildingBlock: PAMTOO_clean_sbu_0, # of connection points: 6
#     Node 10, Type 1, BuildingBlock: PAMTOO_clean_sbu_0, # of connection points: 6
#     Node 11, Type 1, BuildingBlock: PAMTOO_clean_sbu_0, # of connection points: 6
#     Edge 12, Type (0, 1), BuildingBlock: KIFKEQ_clean_linker_1, # of connection points: 2
#     Edge 13, Type (0, 1), BuildingBlock: KIFKEQ_clean_linker_1, # of connection points: 2
#     Edge 14, Type (0, 1), BuildingBlock: KIFKEQ_clean_linker_1, # of connection points: 2
#     Edge 15, Type (0, 1), BuildingBlock: KIFKEQ_clean_linker_1, # of connection points: 2
#     Edge 16, Type (0, 1), BuildingBlock: KIFKEQ_clean_linker_1, # of connection points: 2
#     Edge 17, Type (0, 1), BuildingBlock: KIFKEQ_clean_linker_1, # of connection points: 2
#     Edge 18, Type (0, 1), BuildingBlock: KIFKEQ_clean_linker_1, # of connection points: 2
#     Edge 19, Type (0, 1), BuildingBlock: KIFKEQ_clean_linker_1, # of connection points: 2
#     Edge 20, Type (0, 1), BuildingBlock: KIFKEQ_clean_linker_1, # of connection points: 2
#     Edge 21, Type (0, 1), BuildingBlock: KIFKEQ_clean_linker_1, # of connection points: 2
#     Edge 22, Type (0, 1), BuildingBlock: KIFKEQ_clean_linker_1, # of connection points: 2
#     Edge 23, Type (0, 1), BuildingBlock: KIFKEQ_clean_linker_1, # of connection points: 2
#     Edge 24, Type (0, 1), BuildingBlock: KIFKEQ_clean_linker_1, # of connection points: 2
#     Edge 25, Type (0, 1), BuildingBlock: KIFKEQ_clean_linker_1, # of connection points: 2
#     Edge 26, Type (0, 1), BuildingBlock: KIFKEQ_clean_linker_1, # of connection points: 2
#     Edge 27, Type (0, 1), BuildingBlock: KIFKEQ_clean_linker_1, # of connection points: 2
#     Edge 28, Type (0, 1), BuildingBlock: KIFKEQ_clean_linker_1, # of connection points: 2
#     Edge 29, Type (0, 1), BuildingBlock: KIFKEQ_clean_linker_1, # of connection points: 2
#     Edge 30, Type (0, 1), BuildingBlock: KIFKEQ_clean_linker_1, # of connection points: 2
#     Edge 31, Type (0, 1), BuildingBlock: KIFKEQ_clean_linker_1, # of connection points: 2
#     Edge 32, Type (0, 1), BuildingBlock: KIFKEQ_clean_linker_1, # of connection points: 2
#     Edge 33, Type (0, 1), BuildingBlock: KIFKEQ_clean_linker_1, # of connection points: 2
#     Edge 34, Type (0, 1), BuildingBlock: KIFKEQ_clean_linker_1, # of connection points: 2
#     Edge 35, Type (0, 1), BuildingBlock: KIFKEQ_clean_linker_1, # of connection points: 2
# Relax obj value: 0.152
# Max RMSD: 0.254
# Mean RMSD: 0.085
data_MOF--net-zzz--node1-PAMTOO_clean_sbu_0--node2-QEWDON_clean_linker_0--edge1-KIFKEQ_clean_linker_1
_symmetry_space_group_name_H-M    P1
_symmetry_Int_Tables_number       1
_symmetry_cell_setting            triclinic
loop_
_symmetry_equiv_pos_as_xyz
'x, y, z'
_cell_length_a     61.089363
_cell_length_b     53.572676
_cell_length_c     15.539316
_cell_angle_alpha  91.655972
_cell_angle_beta   79.964256
_cell_angle_gamma 86.911587
loop_
_atom_site_label
_atom_site_type_symbol
_atom_site_fract_x
_atom_site_fract_y
_atom_site_fract_z
_atom_type_partial_charge
H0 H 0.80809 0.49955 0.38531 0.0
C1 C 0.817 0.50027 0.43952 0.0
C2 C 0.83577 0.48387 0.43556 0.0
C3 C 0.8105 0.51786 0.50991 0.0
H4 H 0.86433 0.47371 0.49268 0.0
C5 C 0.84906 0.4855 0.49991 0.0
C6 C 0.84411 0.50367 0.56823 0.0
C7 C 0.82448 0.51936 0.57425 0.0
C8 C 0.79001 0.53526 0.51251 0.0
H9 H 0.82042 0.5326 0.62925 0.0
C10 C 0.77284 0.52957 0.46478 0.0
C11 C 0.75454 0.54675 0.46234 0.0
C12 C 0.78777 0.55835 0.56001 0.0
H13 H 0.80048 0.56433 0.59509 0.0
C14 C 0.76919 0.57475 0.56165 0.0
H15 H 0.77372 0.51205 0.42798 0.0
C16 C 0.75276 0.56908 0.51356 0.0
H17 H 0.73864 0.58238 0.51644 0.0
H18 H 0.7677 0.59225 0.59938 0.0
H19 H 0.04461 0.73865 0.34381 0.0
C20 C 0.04372 0.75122 0.4001 0.0
C21 C 0.0575 0.77149 0.39209 0.0
C22 C 0.02788 0.7484 0.47668 0.0
H23 H 0.06503 0.80568 0.45427 0.0
C24 C 0.05561 0.78905 0.46196 0.0
C25 C 0.03965 0.78745 0.53732 0.0
C26 C 1.02612 0.76691 0.54546 0.0
C27 C 1.01191 0.72773 0.48029 0.0
H28 H 1.0141 0.76591 0.60498 0.0
C29 C 1.01693 0.70563 0.4259 0.0
C30 C 1.00087 0.68781 0.42205 0.0
C31 C 0.9907 0.73066 0.53391 0.0
H32 H 0.98544 0.74734 0.57454 0.0
C33 C 0.97528 0.71239 0.53392 0.0
H34 H 0.03302 0.70242 0.38423 0.0
C35 C 0.98021 0.69126 0.47822 0.0
H36 H 0.96767 0.6777 0.47836 0.0
H37 H 0.95913 0.71499 0.57576 0.0
H38 H 0.78585 0.02037 0.2038 0.0
C39 C 0.77326 0.01938 0.26171 0.0
C40 C 0.75195 0.03033 0.26055 0.0
C41 C 0.77797 1.00675 0.33569 0.0
H42 H 0.71815 0.0355 0.32875 0.0
C43 C 0.73485 0.02799 0.33185 0.0
C44 C 0.73835 0.01468 0.40441 0.0
C45 C 0.76 1.00435 0.40712 0.0
C46 C 0.80123 0.99543 0.33619 0.0
H47 H 0.76261 0.99484 0.46522 0.0
C48 C 0.82056 1.00439 0.28339 0.0
C49 C 0.84207 0.99324 0.2845 0.0
C50 C 0.80433 0.97493 0.38863 0.0
H51 H 0.79038 0.96654 0.42729 0.0
C52 C 0.82557 0.9643 0.39088 0.0
H53 H 0.81919 0.02017 0.24241 0.0
C54 C 0.84427 0.97339 0.33971 0.0
H55 H 0.86053 0.96452 0.3418 0.0
H56 H 0.82753 0.94862 0.43188 0.0
H57 H 0.53433 0.74574 0.1007 0.0
C58 C 0.53415 0.73565 0.16021 0.0
C59 C 0.52364 0.71289 0.1693 0.0
C60 C 0.54522 0.7447 0.2264 0.0
H61 H 0.51715 0.68107 0.24885 0.0
C62 C 0.52429 0.69921 0.24427 0.0
C63 C 0.53555 0.70725 0.30986 0.0
C64 C 0.5459 0.7301 0.30107 0.0
C65 C 0.5576 0.76819 0.21508 0.0
H66 H 0.55449 0.73639 0.35235 0.0
C67 C 0.54924 0.7898 0.17736 0.0
C68 C 0.56122 0.81184 0.17047 0.0
C69 C 0.57836 0.7689 0.24236 0.0
H70 H 0.5857 0.75263 0.26878 0.0
C71 C 0.59023 0.79043 0.23477 0.0
H72 H 0.5333 0.78976 0.15593 0.0
C73 C 0.58175 0.8117 0.19967 0.0
H74 H 0.59149 0.82807 0.19416 0.0
H75 H 0.60618 0.79059 0.25604 0.0
H76 H 0.27177 0.48306 0.15263 0.0
C77 C 0.26073 0.48564 0.10596 0.0
C78 C 0.23806 0.48352 0.1363 0.0
C79 C 0.26871 0.49183 0.01887 0.0
H80 H 0.20538 0.48418 0.10229 0.0
C81 C 0.22307 0.48529 0.07809 0.0
C82 C 0.23016 0.49094 0.99097 0.0
C83 C 0.25293 0.49469 0.96146 0.0
C84 C 0.2932 0.4958 0.99036 0.0
H85 H 0.25796 0.50039 0.8951 0.0
C86 C 0.30716 0.50148 0.05197 0.0
C87 C 0.33038 0.50322 0.02631 0.0
C88 C 0.30313 0.49307 0.90153 0.0
H89 H 0.29361 0.48813 0.85176 0.0
C90 C 0.32583 0.49608 0.8751 0.0
H91 H 0.30024 0.50417 0.12052 0.0
C92 C 0.33935 0.50102 0.93653 0.0
H93 H 0.3569 0.50305 0.91332 0.0
H94 H 0.33312 0.49411 0.80639 0.0
H95 H 1.01429 0.29477 0.2645 0.0
C96 C 1.01923 0.28042 0.21321 0.0
C97 C 1.01131 0.25662 0.22674 0.0
C98 C 0.03273 0.28578 0.13324 0.0
H99 H 1.01068 0.2194 0.17253 0.0
C100 C 1.01667 0.23794 0.16087 0.0
C101 C 0.03026 0.24238 0.08156 0.0
C102 C 0.03854 0.26628 0.06777 0.0
C103 C 0.03934 0.31205 0.11753 0.0
H104 H 0.0492 0.26962 0.00637 0.0
C105 C 0.04282 0.32814 0.18721 0.0
C106 C 0.04568 0.35394 0.17564 0.0
C107 C 0.04023 0.32192 0.03425 0.0
H108 H 0.03729 0.31046 0.97938 0.0
C109 C 0.04385 0.34714 0.02136 0.0
H110 H 0.04314 0.32058 0.25082 0.0
C111 C 0.04622 0.36309 0.09131 0.0
H112 H 0.04782 0.38276 0.07929 0.0
H113 H 0.04411 0.35456 0.95715 0.0
H114 H 0.28541 0.98812 0.36929 0.0
C115 C 0.29808 0.99607 0.3222 0.0
C116 C 0.3206 0.99067 0.32701 0.0
C117 C 0.29215 0.01061 0.25427 0.0
H118 H 0.35465 0.99614 0.27003 0.0
C119 C 0.33728 1.00022 0.26556 0.0
C120 C 0.33216 0.0147 0.19803 0.0
C121 C 0.30961 0.02003 0.19245 0.0
C122 C 0.26804 0.01473 0.24453 0.0
H123 H 0.30584 0.0316 0.14038 0.0
C124 C 0.25007 0.01604 0.31717 0.0
C125 C 0.22768 0.02007 0.30454 0.0
C126 C 0.26282 0.01675 0.16007 0.0
H127 H 0.27565 0.01478 0.10237 0.0
C128 C 0.24088 0.02077 0.14782 0.0
H129 H 0.25335 0.01454 0.38312 0.0
C130 C 0.22352 0.02255 0.2191 0.0
H131 H 0.20662 0.02545 0.20721 0.0
H132 H 0.23729 0.0223 0.0823 0.0
H133 H 0.5545 0.28831 0.42833 0.0
C134 C 0.54615 0.29983 0.38624 0.0
C135 C 0.54574 0.32603 0.39621 0.0
C136 C 0.53721 0.28867 0.31761 0.0
H137 H 0.53596 0.36125 0.34722 0.0
C138 C 0.53568 0.34105 0.34013 0.0
C139 C 0.52691 0.3306 0.27106 0.0
C140 C 0.5277 0.30437 0.25996 0.0
C141 C 0.54012 0.26098 0.29893 0.0
H142 H 0.52124 0.29624 0.20554 0.0
C143 C 0.53598 0.24326 0.36537 0.0
C144 C 0.5384 0.21722 0.34359 0.0
C145 C 0.54746 0.25217 0.21197 0.0
H146 H 0.55137 0.26509 0.1599 0.0
C147 C 0.55028 0.22666 0.19081 0.0
H148 H 0.53027 0.24965 0.43274 0.0
C149 C 0.54574 0.20936 0.25564 0.0
H150 H 0.5482 0.18964 0.23686 0.0
H151 H 0.55605 0.22024 0.12357 0.0
Dy152 Dy 1.02351 0.02306 0.72555 0.0
Dy153 Dy 0.0473 1.00788 0.89053 0.0
C154 C 0.07669 0.01668 0.70316 0.0
O155 O 0.03178 0.98199 0.70107 0.0
O156 O 0.03554 0.97215 0.84085 0.0
O157 O 1.02364 0.03067 0.58944 0.0
O158 O 0.99287 0.03438 0.68296 0.0
O159 O 1.01144 0.01868 0.94751 0.0
O160 O 0.99694 1.0085 0.82662 0.0
O161 O 0.05165 0.04905 0.88213 0.0
O162 O 1.02398 0.05875 0.80367 0.0
O163 O 0.04522 1.00001 0.02725 0.0
O164 O 0.07703 0.99649 0.94098 0.0
C165 C 0.03334 0.96543 0.76088 0.0
O166 O 0.05975 0.03008 0.68296 0.0
O167 O 0.07391 1.00246 0.77116 0.0
C168 C 0.99825 0.06478 0.57928 0.0
C169 C 0.98658 0.11499 0.55016 0.0
C170 C 1.00612 0.10866 0.58297 0.0
C171 C 1.01185 0.0838 0.5977 0.0
C172 C 0.97878 0.0709 0.54647 0.0
C173 C 0.97299 0.09582 0.53185 0.0
C174 C 1.00285 0.03918 0.60478 0.0
C175 C 0.9943 0.01328 0.91117 0.0
C176 C 0.03862 0.06558 0.8512 0.0
C177 C 0.06872 0.96459 0.03852 0.0
C178 C 0.07554 0.91319 0.06609 0.0
C179 C 0.05744 0.92206 0.02856 0.0
C180 C 0.05394 0.94743 0.01601 0.0
C181 C 0.08708 0.95597 0.07463 0.0
C182 C 0.09041 0.93042 0.08891 0.0
C183 C 0.06576 0.99086 0.01614 0.0
H184 H 1.01717 0.12287 0.5963 0.0
H185 H 0.02675 0.07947 0.62467 0.0
H186 H 0.96785 0.05648 0.53384 0.0
H187 H 0.95774 0.10011 0.50723 0.0
H188 H 0.0459 0.90938 0.00838 0.0
H189 H 0.03969 0.95358 0.9877 0.0
H190 H 0.09882 0.96894 0.09145 0.0
H191 H 0.10438 0.92427 0.11894 0.0
Dy192 Dy 0.5266 1.00338 0.70976 0.0
Dy193 Dy 0.54026 0.03436 0.87316 0.0
C194 C 0.53076 0.06227 0.70522 0.0
O195 O 0.56421 0.99765 0.68464 0.0
O196 O 0.57152 0.02995 0.77365 0.0
O197 O 0.51137 1.00283 0.59455 0.0
O198 O 0.52369 0.96817 0.64193 0.0
O199 O 0.54985 0.99377 0.88756 0.0
O200 O 0.52238 0.97847 0.82401 0.0
O201 O 0.50416 0.0283 0.92017 0.0
O202 O 0.49431 0.02051 0.78651 0.0
O203 O 0.54592 0.0372 0.00659 0.0
O204 O 0.55251 0.06814 0.9214 0.0
C205 C 0.57834 0.01242 0.71258 0.0
O206 O 0.53625 0.04094 0.6607 0.0
O207 O 0.52601 0.06265 0.79104 0.0
C208 C 0.4893 0.96863 0.59303 0.0
C209 C 0.44495 0.95689 0.59255 0.0
C210 C 0.45115 0.96671 0.66892 0.0
C211 C 0.47319 0.97229 0.66935 0.0
C212 C 0.48343 0.95777 0.51783 0.0
C213 C 0.46141 0.95175 0.51777 0.0
C214 C 0.5114 0.97848 0.59039 0.0
C215 C 0.53701 0.97555 0.87586 0.0
C216 C 0.48884 0.02545 0.87129 0.0
C217 C 0.57938 0.05702 0.0046 0.0
C218 C 0.62536 0.05689 0.00781 0.0
C219 C 0.61671 0.03766 0.96287 0.0
C220 C 0.59398 0.03767 0.96167 0.0
C221 C 0.5878 0.07638 0.04918 0.0
C222 C 0.61065 0.07627 0.05116 0.0
C223 C 0.55601 0.05798 0.99329 0.0
H224 H 0.43879 0.97081 0.72736 0.0
H225 H 0.47747 0.98042 0.72833 0.0
H226 H 0.49564 0.95488 0.45833 0.0
H227 H 0.45698 0.94444 0.45778 0.0
H228 H 0.62755 0.02269 0.92755 0.0
H229 H 0.58785 0.02277 0.92549 0.0
H230 H 0.57679 0.09165 0.08153 0.0
H231 H 0.61675 0.09119 0.08734 0.0
Dy232 Dy 0.55473 0.52453 0.83675 0.0
Dy233 Dy 0.5104 0.51113 0.73955 0.0
C234 C 0.52442 0.47882 0.89714 0.0
O235 O 0.56835 0.49191 0.74601 0.0
O236 O 0.53741 0.48258 0.68518 0.0
O237 O 0.58905 0.53305 0.83999 0.0
O238 O 0.56413 0.53614 0.95849 0.0
O239 O 0.52956 0.5372 0.64894 0.0
O240 O 0.55293 0.55353 0.7359 0.0
O241 O 0.50465 0.55021 0.79552 0.0
O242 O 0.52256 0.54242 0.90893 0.0
O243 O 0.47457 0.51392 0.73979 0.0
O244 O 0.49695 0.49163 0.63967 0.0
C245 C 0.55821 0.47828 0.69476 0.0
O246 O 0.54434 0.48764 0.8853 0.0
O247 O 0.50789 0.48933 0.86349 0.0
C248 C 0.60212 0.5307 0.97854 0.0
C249 C 0.63547 0.52666 0.08532 0.0
C250 C 0.61278 0.5299 0.12291 0.0
C251 C 0.59638 0.53191 0.07037 0.0
C252 C 0.62475 0.52641 0.94076 0.0
C253 C 0.64121 0.52423 0.99354 0.0
C254 C 0.58505 0.53794 0.92442 0.0
C255 C 0.54328 0.55413 0.66624 0.0
C256 C 0.50967 0.55712 0.87071 0.0
C257 C 0.46268 0.50691 0.6004 0.0
C258 C 0.43365 0.51121 0.47615 0.0
C259 C 0.45583 0.50173 0.45079 0.0
C260 C 0.47013 0.49963 0.51185 0.0
C261 C 0.44073 0.51727 0.6253 0.0
C262 C 0.42644 0.51959 0.56376 0.0
C263 C 0.47649 0.50018 0.66764 0.0
H264 H 0.60771 0.53154 0.19329 0.0
H265 H 0.5792 0.53551 0.10204 0.0
H266 H 0.62986 0.5258 0.87037 0.0
H267 H 0.65853 0.52192 0.96233 0.0
H268 H 0.46205 0.49542 0.38369 0.0
H269 H 0.48681 0.49135 0.48992 0.0
H270 H 0.43432 0.52269 0.69308 0.0
H271 H 0.40942 0.52685 0.58565 0.0
Dy272 Dy 0.03794 0.53635 0.75354 0.0
Dy273 Dy 0.0272 0.49138 0.88686 0.0
C274 C 0.03836 0.48041 0.68293 0.0
O275 O 1.0031 0.52839 0.74031 0.0
O276 O 0.99333 0.50504 0.86194 0.0
O277 O 0.0427 0.55164 0.62486 0.0
O278 O 0.04643 0.57475 0.73732 0.0
O279 O 0.03246 0.52557 0.96617 0.0
O280 O 1.01843 0.55299 0.87854 0.0
O281 O 0.06453 0.48937 0.85339 0.0
O282 O 0.06909 0.52946 0.8099 0.0
O283 O 1.01227 0.47883 0.01294 0.0
O284 O 0.03114 0.45237 0.91584 0.0
C285 C 0.98811 0.51723 0.79493 0.0
O286 O 0.05007 0.50033 0.67797 0.0
O287 O 1.0242 0.47656 0.75416 0.0
C288 C 0.07408 0.57529 0.61128 0.0
C289 C 0.11809 0.56148 0.53226 0.0
C290 C 0.11287 0.56651 0.62278 0.0
C291 C 0.09103 0.57346 0.66201 0.0
C292 C 0.07989 0.57382 0.51994 0.0
C293 C 0.10182 0.56709 0.48057 0.0
C294 C 0.05092 0.57179 0.65232 0.0
C295 C 1.02368 0.54784 0.9545 0.0
C296 C 0.07724 0.50821 0.83484 0.0
C297 C 0.99898 0.43897 0.00533 0.0
C298 C 0.95711 0.41842 0.0452 0.0
C299 C 0.97036 0.42162 0.11016 0.0
C300 C 0.99111 0.43171 0.0902 0.0
C301 C 0.98687 0.43389 0.93857 0.0
C302 C 0.96621 0.42339 0.95817 0.0
C303 C 1.01764 0.45532 0.99082 0.0
H304 H 0.12505 0.56271 0.66438 0.0
H305 H 0.08714 0.57487 0.73274 0.0
H306 H 0.06715 0.57541 0.47948 0.0
H307 H 0.10559 0.56426 0.41012 0.0
H308 H 0.96406 0.41844 0.17819 0.0
H309 H 1.00024 0.4356 0.14249 0.0
H310 H 0.99271 0.43941 0.87236 0.0
H311 H 0.95681 0.42067 0.90602 0.0
H312 H 0.19566 0.05798 0.34507 0.0
H313 H 0.21469 0.98492 0.42596 0.0
H314 H 0.16021 0.05785 0.44504 0.0
H315 H 0.17873 0.98412 0.52427 0.0
H316 H 0.11652 0.9964 0.73702 0.0
H317 H 0.15369 0.99846 0.65074 0.0
H318 H 0.1258 0.04036 0.45797 0.0
H319 H 0.08881 0.03906 0.54603 0.0
C320 C 0.19232 0.04196 0.38532 0.0
C321 C 0.20808 0.02152 0.37779 0.0
C322 C 0.17178 0.04169 0.44196 0.0
C323 C 0.16608 0.02076 0.4923 0.0
C324 C 0.18233 1.00071 0.48749 0.0
C325 C 0.20307 1.00113 0.43122 0.0
C326 C 0.11829 1.00611 0.67623 0.0
C327 C 0.09948 0.01761 0.64893 0.0
C328 C 0.13973 1.00717 0.6262 0.0
C329 C 0.14312 0.01967 0.54678 0.0
C330 C 0.12421 0.03101 0.51936 0.0
C331 C 0.1028 0.0301 0.56973 0.0
H332 H 0.51341 0.17706 0.33293 0.0
H333 H 0.55243 0.21244 0.50246 0.0
H334 H 0.51033 0.14092 0.42466 0.0
H335 H 0.54943 0.17591 0.59514 0.0
H336 H 0.52499 0.11069 0.77405 0.0
H337 H 0.5248 0.14961 0.69513 0.0
H338 H 0.53586 0.10683 0.45014 0.0
H339 H 0.53585 0.06816 0.52847 0.0
C340 C 0.52118 0.17721 0.39051 0.0
C341 C 0.5334 0.19757 0.40966 0.0
C342 C 0.51953 0.15636 0.44292 0.0
C343 C 0.53002 0.15514 0.51651 0.0
C344 C 0.54114 0.17615 0.53899 0.0
C345 C 0.54281 0.19715 0.4861 0.0
C346 C 0.52729 0.10958 0.70332 0.0
C347 C 0.53033 0.08615 0.65785 0.0
C348 C 0.52732 0.13196 0.65803 0.0
C349 C 0.53017 0.1315 0.56609 0.0
C350 C 0.53322 0.10803 0.52092 0.0
C351 C 0.53335 0.08575 0.56599 0.0
H352 H 0.37294 0.48271 0.01849 0.0
H353 H 0.32228 0.52969 0.18628 0.0
H354 H 0.39738 0.48629 0.12436 0.0
H355 H 0.34624 0.53159 0.29602 0.0
H356 H 0.403 0.54821 0.44607 0.0
H357 H 0.37821 0.54745 0.33824 0.0
H358 H 0.40333 0.47187 0.25751 0.0
H359 H 0.42845 0.47314 0.36241 0.0
C360 C 0.36692 0.49393 0.07778 0.0
C361 C 0.34544 0.50595 0.09272 0.0
C362 C 0.38092 0.49559 0.13984 0.0
C363 C 0.37388 0.50898 0.22012 0.0
C364 C 0.35247 0.52124 0.23505 0.0
C365 C 0.3385 0.51982 0.17225 0.0
C366 C 0.40316 0.53147 0.40514 0.0
C367 C 0.41794 0.51086 0.41223 0.0
C368 C 0.38886 0.53095 0.34337 0.0
C369 C 0.38875 0.50968 0.28772 0.0
C370 C 0.40323 0.48891 0.29677 0.0
C371 C 0.41766 0.48956 0.35749 0.0
H372 H 0.0685 0.39715 0.17781 0.0
H373 H 1.02512 0.35114 0.34755 0.0
H374 H 0.06684 0.42774 0.29723 0.0
H375 H 1.02537 0.38037 0.46874 0.0
H376 H 1.00763 0.44853 0.64801 0.0
H377 H 1.01034 0.41842 0.52669 0.0
H378 H 0.07712 0.43972 0.42787 0.0
H379 H 0.07366 0.47113 0.54748 0.0
C380 C 0.05871 0.39335 0.24056 0.0
C381 C 0.04674 0.37154 0.2517 0.0
C382 C 0.05807 0.41084 0.31 0.0
C383 C 0.04578 0.40691 0.39346 0.0
C384 C 0.03457 0.38461 0.40538 0.0
C385 C 0.03483 0.36739 0.33563 0.0
C386 C 1.02291 0.44681 0.60032 0.0
C387 C 0.04045 0.4622 0.6076 0.0
C388 C 1.02458 0.42928 0.53074 0.0
C389 C 0.04409 0.42613 0.46706 0.0
C390 C 0.06168 0.44165 0.47445 0.0
C391 C 0.05979 0.45963 0.5434 0.0
H392 H 0.85395 0.98651 0.10724 0.0
H393 H 0.87706 0.01619 0.33338 0.0
H394 H 0.89022 0.99199 0.01759 0.0
H395 H 0.91298 0.02334 0.24382 0.0
H396 H 0.98312 1.00768 0.08863 0.0
H397 H 0.94622 1.00481 0.17597 0.0
H398 H 0.91684 0.01568 0.94488 0.0
H399 H 0.95386 0.01698 0.85751 0.0
C400 C 0.86663 0.99501 0.13706 0.0
C401 C 0.86256 1.00118 0.22708 0.0
C402 C 0.88759 0.99821 0.08565 0.0
C403 C 0.90507 1.00802 0.12253 0.0
C404 C 0.90045 0.01514 0.2124 0.0
C405 C 0.87965 0.01147 0.26393 0.0
C406 C 0.96876 1.00945 0.05656 0.0
C407 C 0.97159 0.01243 0.96576 0.0
C408 C 0.9474 1.00802 0.10695 0.0
C409 C 0.92805 1.01003 0.06858 0.0
C410 C 0.93103 0.01347 0.97764 0.0
C411 C 0.9524 0.01441 0.92711 0.0
H412 H 0.54607 0.81767 0.0147 0.0
H413 H 0.55859 0.85933 0.24091 0.0
H414 H 0.53914 0.85701 0.94428 0.0
H415 H 0.55133 0.89845 0.17214 0.0
H416 H 0.56586 0.96216 0.98618 0.0
H417 H 0.5694 0.92271 0.05818 0.0
H418 H 0.51593 0.89472 0.9413 0.0
H419 H 0.51274 0.93405 0.86764 0.0
C420 C 0.54683 0.83521 0.05018 0.0
C421 C 0.55307 0.83532 0.13311 0.0
C422 C 0.54292 0.85784 0.00979 0.0
C423 C 0.54507 0.88112 0.05158 0.0
C424 C 0.55013 0.88105 0.13654 0.0
C425 C 0.5541 0.85855 0.17647 0.0
C426 C 0.55482 0.94764 0.9758 0.0
C427 C 0.539 0.95145 0.92095 0.0
C428 C 0.55673 0.92496 0.01772 0.0
C429 C 0.54286 0.90535 0.00636 0.0
C430 C 0.52707 0.90916 0.95123 0.0
C431 C 0.52516 0.93187 0.90926 0.0
H432 H 0.73376 0.58116 0.3714 0.0
H433 H 0.73714 0.50207 0.41933 0.0
H434 H 0.70529 0.57494 0.28307 0.0
H435 H 0.70902 0.49584 0.32708 0.0
H436 H 0.6741 0.49667 0.07583 0.0
H437 H 0.70315 0.50005 0.16616 0.0
H438 H 0.66545 0.56279 0.31153 0.0
H439 H 0.63667 0.55952 0.22185 0.0
C440 C 0.72837 0.56242 0.36399 0.0
C441 C 0.73768 0.54222 0.40449 0.0
C442 C 0.71206 0.55887 0.31259 0.0
C443 C 0.7047 0.53494 0.29853 0.0
C444 C 0.71439 0.51452 0.33637 0.0
C445 C 0.73059 0.51812 0.38912 0.0
C446 C 0.67204 0.51114 0.12721 0.0
C447 C 0.65299 0.52777 0.14159 0.0
C448 C 0.68859 0.51296 0.17933 0.0
C449 C 0.68667 0.53175 0.2459 0.0
C450 C 0.66756 0.54822 0.26043 0.0
C451 C 0.65094 0.5462 0.2094 0.0
H452 H 0.03851 0.65619 0.3725 0.0
H453 H 0.97206 0.67149 0.32009 0.0
H454 H 0.04438 0.62194 0.26112 0.0
H455 H 0.97767 0.63716 0.21141 0.0
H456 H 1.00378 0.59468 0.95332 0.0
H457 H 0.99919 0.62783 0.06628 0.0
H458 H 0.03164 0.57962 0.22984 0.0
H459 H 0.0365 0.54627 0.11569 0.0
C460 C 1.02517 0.65225 0.3374 0.0
C461 C 1.00479 0.66658 0.35559 0.0
C462 C 0.02845 0.63248 0.27419 0.0
C463 C 1.01151 0.6268 0.22704 0.0
C464 C 0.99117 0.64113 0.24559 0.0
C465 C 0.98787 0.66069 0.3088 0.0
C466 C 1.00992 0.59102 0.01334 0.0
C467 C 1.02043 0.56769 0.02536 0.0
C468 C 1.00719 0.61007 0.07843 0.0
C469 C 1.01495 0.60642 0.15748 0.0
C470 C 1.02562 0.58314 0.1695 0.0
C471 C 0.02825 0.56396 0.10432 0.0
H472 H 0.96789 0.2459 0.26374 0.0
H473 H 0.02744 0.24968 0.37568 0.0
H474 H 0.95307 0.21697 0.37482 0.0
H475 H 1.01325 0.22014 0.48463 0.0
H476 H 0.99073 0.15773 0.64661 0.0
H477 H 0.98839 0.20078 0.59945 0.0
H478 H 0.96828 0.17434 0.36123 0.0
H479 H 0.9707 0.13179 0.40774 0.0
C480 C 0.97725 0.2415 0.31509 0.0
C481 C 0.99881 0.24966 0.31133 0.0
C482 C 0.96893 0.22475 0.37801 0.0
C483 C 0.98231 0.21559 0.43655 0.0
C484 C 1.00249 0.22671 0.44048 0.0
C485 C 1.01068 0.24371 0.37814 0.0
C486 C 0.98548 0.16125 0.58478 0.0
C487 C 0.98128 0.14131 0.53014 0.0
C488 C 0.984 0.1859 0.55814 0.0
C489 C 0.97825 0.19105 0.47649 0.0
C490 C 0.97237 0.17123 0.42528 0.0
C491 C 0.97388 0.14668 0.45176 0.0
H492 H 0.31392 1.00078 0.50323 0.0
H493 H 0.34512 0.94685 0.30217 0.0
H494 H 0.33873 0.98528 0.59992 0.0
H495 H 0.37078 0.93244 0.39434 0.0
H496 H 0.42441 0.9168 0.53658 0.0
H497 H 0.38665 0.91674 0.5047 0.0
H498 H 0.3751 0.99412 0.5978 0.0
H499 H 0.41199 0.99328 0.63463 0.0
C500 C 0.32548 0.9849 0.48124 0.0
C501 C 0.32792 0.97521 0.39513 0.0
C502 C 0.34005 0.9763 0.53578 0.0
C503 C 0.35757 0.95831 0.50409 0.0
C504 C 0.35777 0.94635 0.42201 0.0
C505 C 0.34298 0.95461 0.36851 0.0
C506 C 0.41344 0.93349 0.55215 0.0
C507 C 0.42113 0.95512 0.587 0.0
C508 C 0.39183 0.93359 0.5335 0.0
C509 C 0.37772 0.95561 0.54651 0.0
C510 C 0.38507 0.97663 0.58746 0.0
C511 C 0.40642 0.97629 0.60806 0.0
H512 H 0.5857 0.34582 0.357 0.0
H513 H 0.53127 0.33753 0.5694 0.0
H514 H 0.59795 0.38094 0.43684 0.0
H515 H 0.54366 0.37247 0.6503 0.0
H516 H 0.56726 0.46508 0.52249 0.0
H517 H 0.57266 0.42235 0.46052 0.0
H518 H 0.57537 0.39452 0.71664 0.0
H519 H 0.57081 0.43763 0.77787 0.0
C520 C 0.57713 0.35067 0.42295 0.0
C521 C 0.55767 0.33895 0.45761 0.0
C522 C 0.58401 0.37087 0.46824 0.0
C523 C 0.57165 0.37956 0.5493 0.0
C524 C 0.55364 0.36601 0.58827 0.0
C525 C 0.54658 0.34594 0.54233 0.0
C526 C 0.57022 0.44992 0.56451 0.0
C527 C 0.569 0.45457 0.65447 0.0
C528 C 0.57322 0.42544 0.5293 0.0
C529 C 0.57439 0.4051 0.58391 0.0
C530 C 0.57461 0.40986 0.67315 0.0
C531 C 0.57221 0.43449 0.70797 0.0
H532 H 0.20988 0.45281 0.23314 0.0
H533 H 0.24505 0.51998 0.24952 0.0
H534 H 0.18334 0.46698 0.36374 0.0
H535 H 0.21801 0.53494 0.3757 0.0
H536 H 0.16023 0.56493 0.57122 0.0
H537 H 0.19356 0.53837 0.51201 0.0
H538 H 0.15562 0.498 0.34913 0.0
H539 H 0.12253 0.52311 0.41172 0.0
C540 C 0.21245 0.47007 0.2671 0.0
C541 C 0.22905 0.48564 0.23063 0.0
C542 C 0.19715 0.47837 0.34111 0.0
C543 C 0.19791 0.50266 0.37726 0.0
C544 C 0.2167 0.51628 0.34914 0.0
C545 C 0.23229 0.5077 0.2765 0.0
C546 C 0.15906 0.55015 0.52348 0.0
C547 C 0.13885 0.54657 0.49447 0.0
C548 C 0.17812 0.53492 0.48972 0.0
C549 C 0.17732 0.51589 0.42619 0.0
C550 C 0.15691 0.51201 0.39934 0.0
C551 C 0.13796 0.527 0.43338 0.0
H552 H 0.04443 0.76819 0.23266 0.0
H553 H 0.09883 0.79048 0.35608 0.0
H554 H 0.05554 0.79614 0.11519 0.0
H555 H 0.10895 0.81982 0.24143 0.0
H556 H 0.11398 0.88263 0.05393 0.0
H557 H 0.11691 0.83894 0.0961 0.0
H558 H 0.04517 0.8398 0.16258 0.0
H559 H 0.04228 0.88281 0.12395 0.0
C560 C 0.05942 0.77808 0.23285 0.0
C561 C 0.07013 0.77805 0.30591 0.0
C562 C 0.06567 0.79435 0.16566 0.0
C563 C 0.08231 0.81112 0.17182 0.0
C564 C 0.09573 0.80753 0.2357 0.0
C565 C 0.08979 0.79083 0.30196 0.0
C566 C 0.09888 0.87334 0.07715 0.0
C567 C 0.07789 0.88627 0.08532 0.0
C568 C 0.10057 0.84828 0.10023 0.0
C569 C 0.08128 0.83572 0.13093 0.0
C570 C 0.06038 0.84852 0.13628 0.0
C571 C 0.05871 0.8734 0.11441 0.0
H572 H 0.73368 0.07704 0.24772 0.0
H573 H 0.75492 1.00815 0.09912 0.0
H574 H 0.70759 0.08711 0.15083 0.0
H575 H 0.72931 0.01854 0.99934 0.0
H576 H 0.65193 0.01586 0.02873 0.0
H577 H 0.69016 0.01416 0.05014 0.0
H578 H 0.69209 0.09403 0.02012 0.0
H579 H 0.65334 0.0957 0.99793 0.0
C580 C 0.73369 0.06481 0.19093 0.0
C581 C 0.7458 0.04157 0.18186 0.0
C582 C 0.71871 0.07055 0.13517 0.0
C583 C 0.71577 0.05313 0.06934 0.0
C584 C 0.73076 0.03196 0.05125 0.0
C585 C 0.74565 0.02614 0.10758 0.0
C586 C 0.6606 0.03301 0.02409 0.0
C587 C 0.64947 0.05595 0.01241 0.0
C588 C 0.68271 0.03202 0.03574 0.0
C589 C 0.69433 0.05396 0.03641 0.0
C590 C 0.68357 0.07681 0.0204 0.0
C591 C 0.66134 0.07779 0.00852 0.0
H592 H 0.48216 0.6963 0.17734 0.0
H593 H 0.54524 0.69968 0.00442 0.0
H594 H 0.47334 0.66053 0.0912 0.0
H595 H 0.53616 0.66421 0.9168 0.0
H596 H 0.50711 0.59882 0.77553 0.0
H597 H 0.50543 0.64256 0.82915 0.0
H598 H 0.49991 0.61801 0.09369 0.0
H599 H 0.50236 0.5744 0.04019 0.0
C600 C 0.49357 0.69027 0.11802 0.0
C601 C 0.51447 0.70056 0.09792 0.0
C602 C 0.4886 0.6697 0.06926 0.0
C603 C 0.50425 0.65943 0.99851 0.0
C604 C 0.52381 0.67185 0.97109 0.0
C605 C 0.52894 0.69229 0.02075 0.0
C606 C 0.50498 0.60284 0.84533 0.0
C607 C 0.50471 0.58327 0.90401 0.0
C608 C 0.50415 0.62782 0.87571 0.0
C609 C 0.50234 0.63358 0.96541 0.0
C610 C 0.50096 0.61404 0.02426 0.0
C611 C 0.50242 0.58912 0.99378 0.0
H612 H 0.8405 0.43292 0.42625 0.0
H613 H 0.84952 0.49815 0.27114 0.0
H614 H 0.86186 0.40697 0.30529 0.0
H615 H 0.87217 0.47323 0.15319 0.0
H616 H 0.93627 0.39122 0.18029 0.0
H617 H 0.89896 0.40075 0.25824 0.0
H618 H 0.88411 0.44442 0.04336 0.0
H619 H 0.9223 0.43753 0.97068 0.0
C620 C 0.84673 0.44151 0.36524 0.0
C621 C 0.84371 0.46742 0.35759 0.0
C622 C 0.85915 0.42677 0.29614 0.0
C623 C 0.8695 0.43791 0.21964 0.0
C624 C 0.86452 0.4636 0.2099 0.0
C625 C 0.85162 0.47813 0.27799 0.0
C626 C 0.92502 0.40273 0.14921 0.0
C627 C 0.93286 0.41488 0.07188 0.0
C628 C 0.90327 0.4079 0.19349 0.0
C629 C 0.88865 0.42467 0.15966 0.0
C630 C 0.89524 0.43264 0.07402 0.0
C631 C 0.91724 0.42822 0.0312 0.0
H632 H 1.00138 0.2206 0.99395 0.0
H633 H 0.06968 0.21487 0.03097 0.0
H634 H 1.00551 0.17864 0.92694 0.0
H635 H 0.07429 0.17277 0.96134 0.0
H636 H 0.0616 0.0879 0.96699 0.0
H637 H 0.06234 0.13242 0.00334 0.0
H638 H 1.02056 0.14958 0.81271 0.0
H639 H 1.01917 0.10517 0.77893 0.0
C640 C 1.01761 0.21068 0.984 0.0
C641 C 0.03529 0.22111 0.01646 0.0
C642 C 1.02001 0.1865 0.94584 0.0
C643 C 0.0402 0.17198 0.93932 0.0
C644 C 0.05838 0.18315 0.96652 0.0
C645 C 0.05593 0.20746 0.00486 0.0
C646 C 0.05264 0.10118 0.93258 0.0
C647 C 0.04011 0.09281 0.87074 0.0
C648 C 0.05324 0.12681 0.95283 0.0
C649 C 0.04145 0.14482 0.9113 0.0
C650 C 0.02953 0.1364 0.84737 0.0
C651 C 0.02878 0.11081 0.82772 0.0
H652 H 0.35979 0.05141 0.22179 0.0
H653 H 0.34887 0.99459 0.03492 0.0
H654 H 0.39673 0.05694 0.13712 0.0
H655 H 0.38612 0.99933 0.9509 0.0
H656 H 0.47065 0.03374 0.04503 0.0
H657 H 0.43168 0.03456 0.11396 0.0
H658 H 0.4129 0.02247 0.86123 0.0
H659 H 0.45206 0.02108 0.79241 0.0
C660 C 0.36507 0.04068 0.16084 0.0
C661 C 0.35124 0.02298 0.13396 0.0
C662 C 0.38646 0.04345 0.11299 0.0
C663 C 0.39482 0.02829 0.03744 0.0
C664 C 0.38038 0.01154 0.00801 0.0
C665 C 0.3589 1.0089 0.0558 0.0
C666 C 0.45826 0.03141 0.00384 0.0
C667 C 0.46471 0.02732 0.91287 0.0
C668 C 0.43574 0.03207 0.04349 0.0
C669 C 0.41883 0.02873 0.9936 0.0
C670 C 0.42529 0.02489 0.90235 0.0
C671 C 0.44786 0.02422 0.86265 0.0
H672 H 0.49671 0.37083 0.30098 0.0
H673 H 0.54239 0.33009 0.09532 0.0
H674 H 0.49281 0.4051 0.20271 0.0
H675 H 0.53864 0.36443 0.99714 0.0
H676 H 0.55689 0.4464 0.93502 0.0
H677 H 0.55319 0.40805 0.01375 0.0
H678 H 0.48163 0.41945 0.05462 0.0
H679 H 0.48527 0.4581 0.97242 0.0
C680 C 0.50534 0.36887 0.23382 0.0
C681 C 0.51985 0.34776 0.20581 0.0
C682 C 0.50309 0.3885 0.17756 0.0
C683 C 0.5156 0.38762 0.09248 0.0
C684 C 0.52891 0.36573 0.06261 0.0
C685 C 0.5309 0.34595 0.11848 0.0
C686 C 0.54027 0.44082 0.95987 0.0
C687 C 0.52136 0.4555 0.94704 0.0
C688 C 0.53819 0.41861 0.00461 0.0
C689 C 0.51713 0.4105 0.03966 0.0
C690 C 0.49809 0.42517 0.02793 0.0
C691 C 0.50018 0.44729 0.98101 0.0
H692 H 0.2062 0.53421 0.97572 0.0
H693 H 0.2128 0.45629 0.89445 0.0
H694 H 0.1702 0.53843 0.92822 0.0
H695 H 0.17707 0.46039 0.84367 0.0
H696 H 0.10877 0.54307 0.80344 0.0
H697 H 0.14772 0.53929 0.81962 0.0
H698 H 0.13904 0.46415 0.908 0.0
H699 H 0.10037 0.46762 0.88774 0.0
C700 C 0.20037 0.51826 0.94377 0.0
C701 C 0.21256 0.49508 0.93683 0.0
C702 C 0.17959 0.52057 0.9169 0.0
C703 C 0.17035 0.4997 0.88266 0.0
C704 C 0.18329 0.47682 0.87112 0.0
C705 C 0.20403 0.47452 0.89849 0.0
C706 C 0.11521 0.5256 0.82511 0.0
C707 C 0.10127 0.50565 0.8438 0.0
C708 C 0.13763 0.52349 0.83526 0.0
C709 C 0.14682 0.5014 0.86534 0.0
C710 C 0.13288 0.48134 0.88318 0.0
C711 C 0.11051 0.4834 0.87235 0.0
H712 H 1.00167 0.8176 0.57641 0.0
H713 H 0.06864 0.80874 0.62834 0.0
H714 H 0.99825 0.86037 0.63988 0.0
H715 H 0.06529 0.85132 0.69222 0.0
H716 H 0.04691 0.92542 0.84804 0.0
H717 H 0.04573 0.88096 0.8116 0.0
H718 H 1.01659 0.89936 0.58586 0.0
H719 H 1.01765 0.94392 0.62272 0.0
C720 C 1.01533 0.82448 0.60456 0.0
C721 C 0.03533 0.80976 0.59842 0.0
C722 C 1.01352 0.84909 0.63958 0.0
C723 C 0.03159 0.8594 0.67016 0.0
C724 C 0.05101 0.84398 0.66973 0.0
C725 C 0.05291 0.81953 0.63363 0.0
C726 C 0.04003 0.92003 0.79119 0.0
C727 C 0.03233 0.93832 0.73854 0.0
C728 C 0.03947 0.8945 0.77002 0.0
C729 C 0.03095 0.88654 0.69607 0.0
C730 C 1.02296 0.90482 0.64402 0.0
C731 C 1.02377 0.93038 0.66467 0.0
H732 H 0.71331 0.0507 0.50958 0.0
H733 H 0.71692 0.97171 0.44528 0.0
H734 H 0.6754 0.04829 0.588 0.0
H735 H 0.6788 0.96891 0.52563 0.0
H736 H 0.61167 0.037 0.76848 0.0
H737 H 0.65112 0.03468 0.70951 0.0
H738 H 0.64081 0.98078 0.51063 0.0
H739 H 0.60093 0.98243 0.57249 0.0
C740 C 0.70625 0.03257 0.51539 0.0
C741 C 0.71835 0.01132 0.47282 0.0
C742 C 0.68435 0.03114 0.56007 0.0
C743 C 0.67369 1.00839 0.56332 0.0
C744 C 0.68621 0.98684 0.52391 0.0
C745 C 0.70826 0.98829 0.4793 0.0
C746 C 0.61766 0.02445 0.7125 0.0
C747 C 0.60281 1.01 0.67527 0.0
C748 C 0.64048 0.02325 0.67807 0.0
C749 C 0.64944 1.00775 0.6043 0.0
C750 C 0.63472 0.9928 0.56793 0.0
C751 C 0.61174 0.99388 0.60302 0.0
H752 H 0.50223 0.68484 0.41329 0.0
H753 H 0.57358 0.68937 0.36531 0.0
H754 H 0.50581 0.6484 0.50132 0.0
H755 H 0.57722 0.65271 0.45442 0.0
H756 H 0.56865 0.59458 0.681 0.0
H757 H 0.56763 0.63401 0.60549 0.0
H758 H 0.52082 0.60483 0.45584 0.0
H759 H 0.52177 0.56562 0.53047 0.0
C760 C 0.51867 0.67839 0.42344 0.0
C761 C 0.53762 0.68992 0.38189 0.0
C762 C 0.52075 0.65733 0.47312 0.0
C763 C 0.54184 0.64724 0.48314 0.0
C764 C 0.56074 0.65995 0.44765 0.0
C765 C 0.55865 0.68107 0.39723 0.0
C766 C 0.55838 0.5964 0.63105 0.0
C767 C 0.54527 0.57676 0.61216 0.0
C768 C 0.55779 0.61907 0.58791 0.0
C769 C 0.54388 0.62275 0.52565 0.0
C770 C 0.53139 0.60283 0.50474 0.0
C771 C 0.53212 0.58017 0.54707 0.0
H772 H 0.86653 0.46802 0.64848 0.0
H773 H 0.86071 0.54764 0.61564 0.0
H774 H 0.89951 0.4729 0.71452 0.0
H775 H 0.89349 0.5527 0.68383 0.0
H776 H 0.95339 0.48996 0.87194 0.0
H777 H 0.91622 0.48844 0.83432 0.0
H778 H 0.93303 0.54309 0.63836 0.0
H779 H 0.96987 0.54489 0.67662 0.0
C780 C 0.87201 0.48668 0.65722 0.0
C781 C 0.86099 0.50742 0.62612 0.0
C782 C 0.89092 0.48951 0.69559 0.0
C783 C 0.89948 0.51318 0.70376 0.0
C784 C 0.88767 0.53412 0.67736 0.0
C785 C 0.86864 0.53129 0.63933 0.0
C786 C 0.94907 0.5019 0.82161 0.0
C787 C 0.96478 0.51752 0.77733 0.0
C788 C 0.92775 0.50091 0.79958 0.0
C789 C 0.92147 0.51563 0.73309 0.0
C790 C 0.93701 0.53173 0.69071 0.0
C791 C 0.95831 0.53261 0.7123 0.0
loop_
_geom_bond_atom_site_label_1
_geom_bond_atom_site_label_2
_geom_bond_distance
_geom_bond_site_symmetry_2
_ccdc_geom_bond_type
H0 C1 0.949 . S
C1 H0 0.949 . S
C1 C2 1.395 . S
C1 C3 1.391 . S
C2 C1 1.395 . S
C2 C5 1.390 . S
C3 C1 1.391 . S
C3 C7 1.387 . S
C3 C8 1.491 . S
H4 C5 0.950 . S
C5 C2 1.390 . S
C5 H4 0.950 . S
C5 C6 1.378 . S
C6 C5 1.378 . S
C6 C7 1.409 . S
C7 C3 1.387 . S
C7 C6 1.409 . S
C7 H9 0.951 . S
C8 C3 1.491 . S
C8 C10 1.382 . S
C8 C12 1.404 . S
H9 C7 0.951 . S
C10 C8 1.382 . S
C10 C11 1.390 . S
C10 H15 0.949 . S
C11 C10 1.390 . S
C11 C16 1.399 . S
C12 C8 1.404 . S
C12 H13 0.950 . S
C12 C14 1.375 . S
H13 C12 0.950 . S
C14 C12 1.375 . S
C14 C16 1.382 . S
C14 H18 0.950 . S
H15 C10 0.949 . S
C16 C11 1.399 . S
C16 C14 1.382 . S
C16 H17 0.952 . S
H17 C16 0.952 . S
H18 C14 0.950 . S
H19 C20 0.949 . S
C20 H19 0.949 . S
C20 C21 1.395 . S
C20 C22 1.391 . S
C21 C20 1.395 . S
C21 C24 1.390 . S
C22 C20 1.391 . S
C22 C26 1.387 . S
C22 C27 1.491 . S
H23 C24 0.940 1_455 S
C24 C21 1.390 . S
C24 H23 0.940 1_655 S
C24 C25 1.378 . S
C25 C24 1.378 . S
C25 C26 1.409 . S
C26 C22 1.387 . S
C26 C25 1.409 . S
C26 H28 0.951 . S
C27 C22 1.491 . S
C27 C29 1.382 . S
C27 C31 1.404 . S
H28 C26 0.951 . S
C29 C27 1.382 . S
C29 C30 1.390 . S
C29 H34 0.949 1_655 S
C30 C29 1.390 . S
C30 C35 1.399 . S
C31 C27 1.404 . S
C31 H32 0.950 . S
C31 C33 1.375 . S
H32 C31 0.950 . S
C33 C31 1.375 . S
C33 C35 1.382 . S
C33 H37 0.950 . S
H34 C29 0.949 1_455 S
C35 C30 1.399 . S
C35 C33 1.382 . S
C35 H36 0.952 . S
H36 C35 0.952 . S
H37 C33 0.950 . S
H38 C39 0.949 . S
C39 H38 0.949 . S
C39 C40 1.396 . S
C39 C41 1.391 . S
C40 C39 1.396 . S
C40 C43 1.390 1_565 S
C41 C39 1.391 . S
C41 C45 1.387 . S
C41 C46 1.491 . S
H42 C43 0.950 . S
C43 C40 1.390 1_545 S
C43 H42 0.950 . S
C43 C44 1.376 1_545 S
C44 C43 1.376 1_565 S
C44 C45 1.413 . S
C45 C41 1.387 . S
C45 C44 1.413 . S
C45 H47 0.951 . S
C46 C41 1.491 . S
C46 C48 1.382 . S
C46 C50 1.404 . S
H47 C45 0.951 . S
C48 C46 1.382 . S
C48 C49 1.390 . S
C48 H53 0.949 1_565 S
C49 C48 1.390 . S
C49 C54 1.399 . S
C50 C46 1.404 . S
C50 H51 0.950 . S
C50 C52 1.375 . S
H51 C50 0.950 . S
C52 C50 1.375 . S
C52 C54 1.382 . S
C52 H56 0.950 . S
H53 C48 0.949 1_545 S
C54 C49 1.399 . S
C54 C52 1.382 . S
C54 H55 0.952 . S
H55 C54 0.952 . S
H56 C52 0.950 . S
H57 C58 0.949 . S
C58 H57 0.949 . S
C58 C59 1.395 . S
C58 C60 1.391 . S
C59 C58 1.395 . S
C59 C62 1.390 . S
C60 C58 1.391 . S
C60 C64 1.387 . S
C60 C65 1.491 . S
H61 C62 0.950 . S
C62 C59 1.390 . S
C62 H61 0.950 . S
C62 C63 1.378 . S
C63 C62 1.378 . S
C63 C64 1.409 . S
C64 C60 1.387 . S
C64 C63 1.409 . S
C64 H66 0.951 . S
C65 C60 1.491 . S
C65 C67 1.382 . S
C65 C69 1.404 . S
H66 C64 0.951 . S
C67 C65 1.382 . S
C67 C68 1.390 . S
C67 H72 0.949 . S
C68 C67 1.390 . S
C68 C73 1.399 . S
C69 C65 1.404 . S
C69 H70 0.950 . S
C69 C71 1.375 . S
H70 C69 0.950 . S
C71 C69 1.375 . S
C71 C73 1.382 . S
C71 H75 0.950 . S
H72 C67 0.949 . S
C73 C68 1.399 . S
C73 C71 1.382 . S
C73 H74 0.952 . S
H74 C73 0.952 . S
H75 C71 0.950 . S
H76 C77 0.949 . S
C77 H76 0.949 . S
C77 C78 1.395 . S
C77 C79 1.391 1_554 S
C78 C77 1.395 . S
C78 C81 1.390 1_554 S
C79 C77 1.391 1_556 S
C79 C83 1.387 . S
C79 C84 1.491 . S
H80 C81 0.950 . S
C81 C78 1.390 1_556 S
C81 H80 0.950 . S
C81 C82 1.378 . S
C82 C81 1.378 . S
C82 C83 1.409 . S
C83 C79 1.387 . S
C83 C82 1.409 . S
C83 H85 0.951 . S
C84 C79 1.491 . S
C84 C86 1.382 1_556 S
C84 C88 1.404 . S
H85 C83 0.951 . S
C86 C84 1.382 1_554 S
C86 C87 1.390 . S
C86 H91 0.949 . S
C87 C86 1.390 . S
C87 C92 1.399 1_554 S
C88 C84 1.404 . S
C88 H89 0.950 . S
C88 C90 1.375 . S
H89 C88 0.950 . S
C90 C88 1.375 . S
C90 C92 1.382 . S
C90 H94 0.950 . S
H91 C86 0.949 . S
C92 C87 1.399 1_556 S
C92 C90 1.382 . S
C92 H93 0.952 . S
H93 C92 0.952 . S
H94 C90 0.950 . S
H95 C96 0.949 . S
C96 H95 0.949 . S
C96 C97 1.395 . S
C96 C98 1.391 . S
C97 C96 1.395 . S
C97 C100 1.390 . S
C98 C96 1.391 . S
C98 C102 1.387 . S
C98 C103 1.491 . S
H99 C100 0.950 . S
C100 C97 1.390 . S
C100 H99 0.950 . S
C100 C101 1.378 . S
C101 C100 1.378 . S
C101 C102 1.409 . S
C102 C98 1.387 . S
C102 C101 1.409 . S
C102 H104 0.951 1_554 S
C103 C98 1.491 . S
C103 C105 1.382 . S
C103 C107 1.404 1_455 S
H104 C102 0.951 1_556 S
C105 C103 1.382 . S
C105 C106 1.390 . S
C105 H110 0.949 . S
C106 C105 1.390 . S
C106 C111 1.396 . S
C107 C103 1.404 1_655 S
C107 H108 0.950 . S
C107 C109 1.375 . S
H108 C107 0.950 . S
C109 C107 1.375 . S
C109 C111 1.385 1_655 S
C109 H113 0.950 . S
H110 C105 0.949 . S
C111 C106 1.396 . S
C111 C109 1.385 1_455 S
C111 H112 0.952 1_455 S
H112 C111 0.952 1_655 S
H113 C109 0.950 . S
H114 C115 0.947 1_565 S
C115 H114 0.947 1_545 S
C115 C116 1.400 . S
C115 C117 1.389 1_545 S
C116 C115 1.400 . S
C116 C119 1.390 . S
C117 C115 1.389 1_565 S
C117 C121 1.387 . S
C117 C122 1.491 . S
H118 C119 0.950 . S
C119 C116 1.390 . S
C119 H118 0.950 . S
C119 C120 1.378 . S
C120 C119 1.378 . S
C120 C121 1.410 1_545 S
C121 C117 1.387 . S
C121 C120 1.410 1_565 S
C121 H123 0.951 . S
C122 C117 1.491 . S
C122 C124 1.382 1_565 S
C122 C126 1.404 . S
H123 C121 0.951 . S
C124 C122 1.382 1_545 S
C124 C125 1.390 1_545 S
C124 H129 0.949 . S
C125 C124 1.390 1_565 S
C125 C130 1.399 . S
C126 C122 1.404 . S
C126 H127 0.950 . S
C126 C128 1.375 . S
H127 C126 0.950 . S
C128 C126 1.375 . S
C128 C130 1.382 . S
C128 H132 0.950 . S
H129 C124 0.949 . S
C130 C125 1.399 . S
C130 C128 1.382 . S
C130 H131 0.952 . S
H131 C130 0.952 . S
H132 C128 0.950 . S
H133 C134 0.949 . S
C134 H133 0.949 . S
C134 C135 1.395 . S
C134 C136 1.391 . S
C135 C134 1.395 . S
C135 C138 1.390 . S
C136 C134 1.391 . S
C136 C140 1.387 . S
C136 C141 1.491 . S
H137 C138 0.950 . S
C138 C135 1.390 . S
C138 H137 0.950 . S
C138 C139 1.378 . S
C139 C138 1.378 . S
C139 C140 1.409 . S
C140 C136 1.387 . S
C140 C139 1.409 . S
C140 H142 0.951 . S
C141 C136 1.491 . S
C141 C143 1.382 . S
C141 C145 1.404 . S
H142 C140 0.951 . S
C143 C141 1.382 . S
C143 C144 1.390 . S
C143 H148 0.949 . S
C144 C143 1.390 . S
C144 C149 1.399 . S
C145 C141 1.404 . S
C145 H146 0.950 . S
C145 C147 1.375 . S
H146 C145 0.950 . S
C147 C145 1.375 . S
C147 C149 1.382 . S
C147 H151 0.950 . S
H148 C143 0.949 . S
C149 C144 1.399 . S
C149 C147 1.382 . S
C149 H150 0.952 . S
H150 C149 0.952 . S
H151 C147 0.950 . S
Dy152 O155 2.307 1_545 S
Dy152 O157 2.395 1_655 S
Dy152 O158 2.379 . S
Dy152 O160 2.339 . S
Dy152 O162 2.298 1_655 S
Dy152 O166 2.275 1_655 S
Dy152 C174 2.738 . S
Dy153 O156 2.298 . S
Dy153 O159 2.275 1_455 S
Dy153 O161 2.307 1_565 S
Dy153 O163 2.419 . S
Dy153 O164 2.379 . S
Dy153 O167 2.339 . S
Dy153 C183 2.738 . S
C154 O166 1.250 1_565 S
C154 O167 1.268 . S
O155 Dy152 2.307 1_565 S
O155 C165 1.266 1_655 S
O156 Dy153 2.298 . S
O156 C165 1.236 . S
O157 Dy152 2.395 1_455 S
O157 C174 1.227 1_455 S
O158 Dy152 2.379 . S
O158 C174 1.278 . S
O159 Dy153 2.275 1_655 S
O159 C175 1.254 1_565 S
O160 Dy152 2.339 . S
O160 C175 1.257 . S
O161 Dy153 2.307 1_545 S
O161 C176 1.266 . S
O162 Dy152 2.298 1_455 S
O162 C176 1.236 . S
O163 Dy153 2.419 . S
O163 C183 1.303 . S
O164 Dy153 2.379 . S
O164 C183 1.249 . S
C165 O155 1.266 1_455 S
C165 O156 1.236 . S
O166 Dy152 2.275 1_455 S
O166 C154 1.250 1_545 S
O167 Dy153 2.339 . S
O167 C154 1.268 . S
C168 C171 1.343 1_655 S
C168 C172 1.329 . S
C168 C174 1.516 . S
C169 C170 1.304 . S
C169 C173 1.323 1_455 S
C170 C169 1.304 . S
C170 C171 1.371 . S
C170 H184 0.930 . S
C171 C168 1.343 1_455 S
C171 C170 1.371 . S
C171 H185 0.931 . S
C172 C168 1.329 . S
C172 C173 1.433 . S
C172 H186 0.931 . S
C173 C169 1.323 1_655 S
C173 C172 1.433 . S
C173 H187 0.933 . S
C174 Dy152 2.738 . S
C174 O157 1.227 1_655 S
C174 O158 1.278 . S
C174 C168 1.516 . S
C175 O159 1.254 1_545 S
C175 O160 1.257 . S
C176 O161 1.266 . S
C176 O162 1.236 . S
C177 C180 1.333 1_455 S
C177 C181 1.328 . S
C177 C183 1.516 1_554 S
C178 C179 1.272 1_455 S
C178 C182 1.323 . S
C179 C178 1.272 1_655 S
C179 C180 1.372 . S
C179 H188 0.964 . S
C180 C177 1.333 1_655 S
C180 C179 1.372 . S
C180 H189 0.943 . S
C181 C177 1.328 . S
C181 C182 1.433 . S
C181 H190 0.931 . S
C182 C178 1.323 . S
C182 C181 1.433 . S
C182 H191 0.933 . S
C183 Dy153 2.738 . S
C183 O163 1.303 . S
C183 O164 1.249 . S
C183 C177 1.516 1_556 S
H184 C170 0.930 . S
H185 C171 0.931 . S
H186 C172 0.931 . S
H187 C173 0.933 . S
H188 C179 0.964 . S
H189 C180 0.943 . S
H190 C181 0.931 . S
H191 C182 0.933 . S
Dy192 O195 2.307 . S
Dy192 O197 2.395 1_565 S
Dy192 O198 2.379 . S
Dy192 O200 2.339 . S
Dy192 O202 2.298 . S
Dy192 O206 2.275 1_565 S
Dy192 C214 2.738 . S
Dy193 O196 2.298 . S
Dy193 O199 2.275 1_545 S
Dy193 O201 2.307 . S
Dy193 O203 2.395 1_545 S
Dy193 O204 2.379 . S
Dy193 O207 2.339 . S
Dy193 C223 2.738 . S
C194 O206 1.254 . S
C194 O207 1.257 . S
O195 Dy192 2.307 . S
O195 C205 1.266 . S
O196 Dy193 2.298 . S
O196 C205 1.236 1_545 S
O197 Dy192 2.395 1_545 S
O197 C214 1.255 1_545 S
O198 Dy192 2.379 . S
O198 C214 1.249 . S
O199 Dy193 2.275 1_565 S
O199 C215 1.254 . S
O200 Dy192 2.339 . S
O200 C215 1.257 . S
O201 Dy193 2.307 . S
O201 C216 1.266 . S
O202 Dy192 2.298 . S
O202 C216 1.236 1_565 S
O203 Dy193 2.395 1_565 S
O203 C223 1.255 1_565 S
O204 Dy193 2.379 . S
O204 C223 1.249 . S
C205 O195 1.266 . S
C205 O196 1.236 1_565 S
O206 Dy192 2.275 1_545 S
O206 C194 1.254 . S
O207 Dy193 2.339 . S
O207 C194 1.257 . S
C208 C211 1.344 1_565 S
C208 C212 1.328 . S
C208 C214 1.516 . S
C209 C210 1.304 1_565 S
C209 C213 1.323 . S
C210 C209 1.304 1_545 S
C210 C211 1.371 . S
C210 H224 0.930 . S
C211 C208 1.344 1_545 S
C211 C210 1.371 . S
C211 H225 0.931 . S
C212 C208 1.328 . S
C212 C213 1.433 . S
C212 H226 0.931 . S
C213 C209 1.323 . S
C213 C212 1.433 . S
C213 H227 0.933 . S
C214 Dy192 2.738 . S
C214 O197 1.255 1_565 S
C214 O198 1.249 . S
C214 C208 1.516 . S
C215 O199 1.254 . S
C215 O200 1.257 . S
C216 O201 1.266 . S
C216 O202 1.236 1_545 S
C217 C220 1.344 1_546 S
C217 C221 1.328 1_556 S
C217 C223 1.516 . S
C218 C219 1.304 1_545 S
C218 C222 1.323 . S
C219 C218 1.304 1_565 S
C219 C220 1.371 . S
C219 H228 0.930 . S
C220 C217 1.344 1_564 S
C220 C219 1.371 . S
C220 H229 0.931 1_554 S
C221 C217 1.328 1_554 S
C221 C222 1.433 . S
C221 H230 0.931 . S
C222 C218 1.323 . S
C222 C221 1.433 . S
C222 H231 0.933 . S
C223 Dy193 2.738 . S
C223 O203 1.255 1_545 S
C223 O204 1.249 . S
C223 C217 1.516 . S
H224 C210 0.930 . S
H225 C211 0.931 . S
H226 C212 0.931 . S
H227 C213 0.933 . S
H228 C219 0.930 . S
H229 C220 0.931 1_556 S
H230 C221 0.931 . S
H231 C222 0.933 . S
Dy232 O235 2.307 . S
Dy232 O237 2.395 . S
Dy232 O238 2.379 . S
Dy232 O240 2.339 . S
Dy232 O242 2.298 . S
Dy232 O246 2.275 . S
Dy232 C254 2.738 . S
Dy233 O236 2.298 . S
Dy233 O239 2.275 . S
Dy233 O241 2.307 . S
Dy233 O243 2.395 . S
Dy233 O244 2.379 . S
Dy233 O247 2.339 . S
Dy233 C263 2.738 . S
C234 O246 1.254 . S
C234 O247 1.257 . S
O235 Dy232 2.307 . S
O235 C245 1.266 . S
O236 Dy233 2.298 . S
O236 C245 1.236 . S
O237 Dy232 2.395 . S
O237 C254 1.255 . S
O238 Dy232 2.379 . S
O238 C254 1.249 . S
O239 Dy233 2.275 . S
O239 C255 1.254 . S
O240 Dy232 2.339 . S
O240 C255 1.257 . S
O241 Dy233 2.307 . S
O241 C256 1.266 . S
O242 Dy232 2.298 . S
O242 C256 1.236 . S
O243 Dy233 2.395 . S
O243 C263 1.255 . S
O244 Dy233 2.379 . S
O244 C263 1.249 . S
C245 O235 1.266 . S
C245 O236 1.236 . S
O246 Dy232 2.275 . S
O246 C234 1.254 . S
O247 Dy233 2.339 . S
O247 C234 1.257 . S
C248 C251 1.344 1_556 S
C248 C252 1.328 . S
C248 C254 1.516 . S
C249 C250 1.304 . S
C249 C253 1.323 1_554 S
C250 C249 1.304 . S
C250 C251 1.371 . S
C250 H264 0.930 . S
C251 C248 1.344 1_554 S
C251 C250 1.371 . S
C251 H265 0.931 . S
C252 C248 1.328 . S
C252 C253 1.433 . S
C252 H266 0.931 . S
C253 C249 1.323 1_556 S
C253 C252 1.433 . S
C253 H267 0.933 . S
C254 Dy232 2.738 . S
C254 O237 1.255 . S
C254 O238 1.249 . S
C254 C248 1.516 . S
C255 O239 1.254 . S
C255 O240 1.257 . S
C256 O241 1.266 . S
C256 O242 1.236 . S
C257 C260 1.344 . S
C257 C261 1.328 . S
C257 C263 1.516 . S
C258 C259 1.304 . S
C258 C262 1.323 . S
C259 C258 1.304 . S
C259 C260 1.371 . S
C259 H268 0.930 . S
C260 C257 1.344 . S
C260 C259 1.371 . S
C260 H269 0.931 . S
C261 C257 1.328 . S
C261 C262 1.433 . S
C261 H270 0.931 . S
C262 C258 1.323 . S
C262 C261 1.433 . S
C262 H271 0.933 . S
C263 Dy233 2.738 . S
C263 O243 1.255 . S
C263 O244 1.249 . S
C263 C257 1.516 . S
H264 C250 0.930 . S
H265 C251 0.931 . S
H266 C252 0.931 . S
H267 C253 0.933 . S
H268 C259 0.930 . S
H269 C260 0.931 . S
H270 C261 0.931 . S
H271 C262 0.933 . S
Dy272 O275 2.307 1_455 S
Dy272 O277 2.395 . S
Dy272 O278 2.379 . S
Dy272 O280 2.339 . S
Dy272 O282 2.298 . S
Dy272 O286 2.275 . S
Dy272 C294 2.738 . S
Dy273 O276 2.298 . S
Dy273 O279 2.275 1_655 S
Dy273 O281 2.307 1_655 S
Dy273 O283 2.395 . S
Dy273 O284 2.379 . S
Dy273 O287 2.339 . S
Dy273 C303 2.741 . S
C274 O286 1.254 . S
C274 O287 1.257 1_455 S
O275 Dy272 2.307 1_655 S
O275 C285 1.266 . S
O276 Dy273 2.298 . S
O276 C285 1.236 . S
O277 Dy272 2.395 . S
O277 C294 1.255 . S
O278 Dy272 2.379 . S
O278 C294 1.249 . S
O279 Dy273 2.275 1_455 S
O279 C295 1.254 . S
O280 Dy272 2.339 . S
O280 C295 1.257 . S
O281 Dy273 2.307 1_455 S
O281 C296 1.266 . S
O282 Dy272 2.298 . S
O282 C296 1.236 . S
O283 Dy273 2.395 . S
O283 C303 1.255 . S
O284 Dy273 2.379 . S
O284 C303 1.252 . S
C285 O275 1.266 . S
C285 O276 1.236 . S
O286 Dy272 2.275 . S
O286 C274 1.254 . S
O287 Dy273 2.339 . S
O287 C274 1.257 1_655 S
C288 C291 1.344 . S
C288 C292 1.328 . S
C288 C294 1.516 . S
C289 C290 1.304 . S
C289 C293 1.323 . S
C290 C289 1.304 . S
C290 C291 1.371 . S
C290 H304 0.930 . S
C291 C288 1.344 . S
C291 C290 1.371 . S
C291 H305 0.931 . S
C292 C288 1.328 . S
C292 C293 1.433 . S
C292 H306 0.931 . S
C293 C289 1.323 . S
C293 C292 1.433 . S
C293 H307 0.933 . S
C294 Dy272 2.738 . S
C294 O277 1.255 . S
C294 O278 1.249 . S
C294 C288 1.516 . S
C295 O279 1.254 . S
C295 O280 1.257 . S
C296 O281 1.266 . S
C296 O282 1.236 . S
C297 C300 1.344 . S
C297 C301 1.328 . S
C297 C303 1.513 1_554 S
C298 C299 1.304 . S
C298 C302 1.323 . S
C299 C298 1.304 . S
C299 C300 1.371 . S
C299 H308 0.930 . S
C300 C297 1.344 . S
C300 C299 1.371 . S
C300 H309 0.931 . S
C301 C297 1.328 . S
C301 C302 1.433 . S
C301 H310 0.931 . S
C302 C298 1.323 . S
C302 C301 1.433 . S
C302 H311 0.933 . S
C303 Dy273 2.741 . S
C303 O283 1.255 . S
C303 O284 1.252 . S
C303 C297 1.513 1_556 S
H304 C290 0.930 . S
H305 C291 0.931 . S
H306 C292 0.931 . S
H307 C293 0.933 . S
H308 C299 0.930 . S
H309 C300 0.931 . S
H310 C301 0.931 . S
H311 C302 0.933 . S
H312 C320 0.950 . S
H313 C325 0.950 . S
H314 C322 0.950 . S
H315 C324 0.950 . S
H316 C326 0.950 . S
H317 C328 0.950 . S
H318 C330 0.950 . S
H319 C331 0.950 . S
C320 H312 0.950 . S
C320 C321 1.386 . S
C320 C322 1.391 . S
C321 C320 1.386 . S
C321 C325 1.393 1_545 S
C322 H314 0.950 . S
C322 C320 1.391 . S
C322 C323 1.400 . S
C323 C322 1.400 . S
C323 C324 1.398 1_545 S
C323 C329 1.491 . S
C324 H315 0.950 . S
C324 C323 1.398 1_565 S
C324 C325 1.391 . S
C325 H313 0.950 . S
C325 C321 1.393 1_565 S
C325 C324 1.391 . S
C326 H316 0.950 . S
C326 C327 1.386 1_565 S
C326 C328 1.391 . S
C327 C326 1.386 1_545 S
C327 C331 1.393 . S
C328 H317 0.950 . S
C328 C326 1.391 . S
C328 C329 1.400 1_565 S
C329 C323 1.491 . S
C329 C328 1.400 1_545 S
C329 C330 1.398 . S
C330 H318 0.950 . S
C330 C329 1.398 . S
C330 C331 1.391 . S
C331 H319 0.950 . S
C331 C327 1.393 . S
C331 C330 1.391 . S
H332 C340 0.950 . S
H333 C345 0.950 . S
H334 C342 0.950 . S
H335 C344 0.950 . S
H336 C346 0.950 . S
H337 C348 0.950 . S
H338 C350 0.950 . S
H339 C351 0.950 . S
C340 H332 0.950 . S
C340 C341 1.386 . S
C340 C342 1.391 . S
C341 C340 1.386 . S
C341 C345 1.393 . S
C342 H334 0.950 . S
C342 C340 1.391 . S
C342 C343 1.400 . S
C343 C342 1.400 . S
C343 C344 1.398 . S
C343 C349 1.491 . S
C344 H335 0.950 . S
C344 C343 1.398 . S
C344 C345 1.391 . S
C345 H333 0.950 . S
C345 C341 1.393 . S
C345 C344 1.391 . S
C346 H336 0.950 . S
C346 C347 1.386 . S
C346 C348 1.391 . S
C347 C346 1.386 . S
C347 C351 1.393 . S
C348 H337 0.950 . S
C348 C346 1.391 . S
C348 C349 1.400 . S
C349 C343 1.491 . S
C349 C348 1.400 . S
C349 C350 1.398 . S
C350 H338 0.950 . S
C350 C349 1.398 . S
C350 C351 1.391 . S
C351 H339 0.950 . S
C351 C347 1.393 . S
C351 C350 1.391 . S
H352 C360 0.950 . S
H353 C365 0.950 . S
H354 C362 0.950 . S
H355 C364 0.950 . S
H356 C366 0.950 . S
H357 C368 0.950 . S
H358 C370 0.950 . S
H359 C371 0.950 . S
C360 H352 0.950 . S
C360 C361 1.386 . S
C360 C362 1.391 . S
C361 C360 1.386 . S
C361 C365 1.393 . S
C362 H354 0.950 . S
C362 C360 1.391 . S
C362 C363 1.400 . S
C363 C362 1.400 . S
C363 C364 1.398 . S
C363 C369 1.491 . S
C364 H355 0.950 . S
C364 C363 1.398 . S
C364 C365 1.391 . S
C365 H353 0.950 . S
C365 C361 1.393 . S
C365 C364 1.391 . S
C366 H356 0.950 . S
C366 C367 1.386 . S
C366 C368 1.391 . S
C367 C366 1.386 . S
C367 C371 1.393 . S
C368 H357 0.950 . S
C368 C366 1.391 . S
C368 C369 1.400 . S
C369 C363 1.491 . S
C369 C368 1.400 . S
C369 C370 1.398 . S
C370 H358 0.950 . S
C370 C369 1.398 . S
C370 C371 1.391 . S
C371 H359 0.950 . S
C371 C367 1.393 . S
C371 C370 1.391 . S
H372 C380 0.950 . S
H373 C385 0.950 . S
H374 C382 0.950 . S
H375 C384 0.950 . S
H376 C386 0.950 . S
H377 C388 0.950 . S
H378 C390 0.950 . S
H379 C391 0.950 . S
C380 H372 0.950 . S
C380 C381 1.386 . S
C380 C382 1.391 . S
C381 C380 1.386 . S
C381 C385 1.393 . S
C382 H374 0.950 . S
C382 C380 1.391 . S
C382 C383 1.400 . S
C383 C382 1.400 . S
C383 C384 1.398 . S
C383 C389 1.491 . S
C384 H375 0.950 . S
C384 C383 1.398 . S
C384 C385 1.391 . S
C385 H373 0.950 . S
C385 C381 1.393 . S
C385 C384 1.391 . S
C386 H376 0.950 . S
C386 C387 1.386 . S
C386 C388 1.391 . S
C387 C386 1.386 . S
C387 C391 1.393 . S
C388 H377 0.950 . S
C388 C386 1.391 . S
C388 C389 1.400 . S
C389 C383 1.491 . S
C389 C388 1.400 . S
C389 C390 1.398 . S
C390 H378 0.950 . S
C390 C389 1.398 . S
C390 C391 1.391 . S
C391 H379 0.950 . S
C391 C387 1.393 . S
C391 C390 1.391 . S
H392 C400 0.950 . S
H393 C405 0.950 . S
H394 C402 0.940 1_556 S
H395 C404 0.950 . S
H396 C406 0.950 . S
H397 C408 0.950 . S
H398 C410 0.950 . S
H399 C411 0.950 . S
C400 H392 0.950 . S
C400 C401 1.383 1_565 S
C400 C402 1.391 . S
C401 C400 1.383 1_545 S
C401 C405 1.399 . S
C402 H394 0.940 1_554 S
C402 C400 1.391 . S
C402 C403 1.396 1_565 S
C403 C402 1.396 1_545 S
C403 C404 1.402 . S
C403 C409 1.492 1_545 S
C404 H395 0.950 . S
C404 C403 1.402 . S
C404 C405 1.391 . S
C405 H393 0.950 . S
C405 C401 1.399 . S
C405 C404 1.391 . S
C406 H396 0.950 . S
C406 C407 1.385 1_544 S
C406 C408 1.391 . S
C407 C406 1.385 1_566 S
C407 C411 1.395 . S
C408 H397 0.950 . S
C408 C406 1.391 . S
C408 C409 1.399 1_545 S
C409 C403 1.492 1_565 S
C409 C408 1.399 1_565 S
C409 C410 1.399 1_554 S
C410 H398 0.950 . S
C410 C409 1.399 1_556 S
C410 C411 1.391 . S
C411 H399 0.950 . S
C411 C407 1.395 . S
C411 C410 1.391 . S
H412 C420 0.950 . S
H413 C425 0.950 . S
H414 C422 0.950 . S
H415 C424 0.950 . S
H416 C426 0.950 . S
H417 C428 0.950 1_554 S
H418 C430 0.950 . S
H419 C431 0.950 . S
C420 H412 0.950 . S
C420 C421 1.386 1_556 S
C420 C422 1.391 . S
C421 C420 1.386 1_554 S
C421 C425 1.393 . S
C422 H414 0.950 . S
C422 C420 1.391 . S
C422 C423 1.400 . S
C423 C422 1.400 . S
C423 C424 1.398 1_556 S
C423 C429 1.491 . S
C424 H415 0.950 . S
C424 C423 1.398 1_554 S
C424 C425 1.391 . S
C425 H413 0.950 . S
C425 C421 1.393 . S
C425 C424 1.391 . S
C426 H416 0.950 . S
C426 C427 1.386 . S
C426 C428 1.391 . S
C427 C426 1.386 . S
C427 C431 1.393 . S
C428 H417 0.950 1_556 S
C428 C426 1.391 . S
C428 C429 1.400 . S
C429 C423 1.491 . S
C429 C428 1.400 . S
C429 C430 1.398 . S
C430 H418 0.950 . S
C430 C429 1.398 . S
C430 C431 1.391 . S
C431 H419 0.950 . S
C431 C427 1.393 . S
C431 C430 1.391 . S
H432 C440 0.950 . S
H433 C445 0.950 . S
H434 C442 0.950 . S
H435 C444 0.950 . S
H436 C446 0.950 . S
H437 C448 0.950 . S
H438 C450 0.950 . S
H439 C451 0.950 . S
C440 H432 0.950 . S
C440 C441 1.386 . S
C440 C442 1.391 . S
C441 C440 1.386 . S
C441 C445 1.393 . S
C442 H434 0.950 . S
C442 C440 1.391 . S
C442 C443 1.400 . S
C443 C442 1.400 . S
C443 C444 1.398 . S
C443 C449 1.491 . S
C444 H435 0.950 . S
C444 C443 1.398 . S
C444 C445 1.391 . S
C445 H433 0.950 . S
C445 C441 1.393 . S
C445 C444 1.391 . S
C446 H436 0.950 . S
C446 C447 1.386 . S
C446 C448 1.391 . S
C447 C446 1.386 . S
C447 C451 1.393 . S
C448 H437 0.950 . S
C448 C446 1.391 . S
C448 C449 1.400 . S
C449 C443 1.491 . S
C449 C448 1.400 . S
C449 C450 1.398 . S
C450 H438 0.950 . S
C450 C449 1.398 . S
C450 C451 1.391 . S
C451 H439 0.950 . S
C451 C447 1.393 . S
C451 C450 1.391 . S
H452 C460 0.950 . S
H453 C465 0.950 . S
H454 C462 0.950 . S
H455 C464 0.950 . S
H456 C466 0.950 . S
H457 C468 0.950 . S
H458 C470 0.950 . S
H459 C471 0.950 . S
C460 H452 0.950 . S
C460 C461 1.386 1_455 S
C460 C462 1.391 . S
C461 C460 1.386 1_655 S
C461 C465 1.393 . S
C462 H454 0.950 . S
C462 C460 1.391 . S
C462 C463 1.425 . S
C463 C462 1.425 . S
C463 C464 1.377 1_455 S
C463 C469 1.488 . S
C464 H455 0.950 . S
C464 C463 1.377 1_655 S
C464 C465 1.391 . S
C465 H453 0.950 . S
C465 C461 1.393 . S
C465 C464 1.391 . S
C466 H456 0.950 . S
C466 C467 1.386 1_655 S
C466 C468 1.391 1_556 S
C467 C466 1.386 1_455 S
C467 C471 1.393 . S
C468 H457 0.950 . S
C468 C466 1.391 1_554 S
C468 C469 1.400 1_655 S
C469 C463 1.488 . S
C469 C468 1.400 1_455 S
C469 C470 1.398 . S
C470 H458 0.950 . S
C470 C469 1.398 . S
C470 C471 1.391 1_554 S
C471 H459 0.950 . S
C471 C467 1.393 . S
C471 C470 1.391 1_556 S
H472 C480 0.950 1_655 S
H473 C485 0.950 . S
H474 C482 0.950 . S
H475 C484 0.950 . S
H476 C486 0.950 . S
H477 C488 0.950 . S
H478 C490 0.950 . S
H479 C491 0.950 . S
C480 H472 0.950 1_455 S
C480 C481 1.386 . S
C480 C482 1.391 1_455 S
C481 C480 1.386 . S
C481 C485 1.393 . S
C482 H474 0.950 . S
C482 C480 1.391 1_655 S
C482 C483 1.400 1_655 S
C483 C482 1.400 1_455 S
C483 C484 1.398 . S
C483 C489 1.491 . S
C484 H475 0.950 . S
C484 C483 1.398 . S
C484 C485 1.391 . S
C485 H473 0.950 . S
C485 C481 1.393 . S
C485 C484 1.391 . S
C486 H476 0.950 . S
C486 C487 1.386 1_455 S
C486 C488 1.391 . S
C487 C486 1.386 1_655 S
C487 C491 1.393 . S
C488 H477 0.950 . S
C488 C486 1.391 . S
C488 C489 1.400 . S
C489 C483 1.491 . S
C489 C488 1.400 . S
C489 C490 1.398 1_455 S
C490 H478 0.950 . S
C490 C489 1.398 1_655 S
C490 C491 1.391 . S
C491 H479 0.950 . S
C491 C487 1.393 . S
C491 C490 1.391 . S
H492 C500 0.950 . S
H493 C505 0.950 . S
H494 C502 0.950 . S
H495 C504 0.950 . S
H496 C506 0.950 . S
H497 C508 0.950 . S
H498 C510 0.950 . S
H499 C511 0.950 . S
C500 H492 0.950 . S
C500 C501 1.386 . S
C500 C502 1.391 . S
C501 C500 1.386 . S
C501 C505 1.393 1_545 S
C502 H494 0.950 . S
C502 C500 1.391 . S
C502 C503 1.400 1_545 S
C503 C502 1.400 1_565 S
C503 C504 1.398 . S
C503 C509 1.491 . S
C504 H495 0.950 . S
C504 C503 1.398 . S
C504 C505 1.391 . S
C505 H493 0.950 . S
C505 C501 1.393 1_565 S
C505 C504 1.391 . S
C506 H496 0.950 . S
C506 C507 1.386 . S
C506 C508 1.391 . S
C507 C506 1.386 . S
C507 C511 1.393 1_565 S
C508 H497 0.950 . S
C508 C506 1.391 . S
C508 C509 1.400 . S
C509 C503 1.491 . S
C509 C508 1.400 . S
C509 C510 1.398 1_565 S
C510 H498 0.950 . S
C510 C509 1.398 1_545 S
C510 C511 1.391 . S
C511 H499 0.950 . S
C511 C507 1.393 1_545 S
C511 C510 1.391 . S
H512 C520 0.950 . S
H513 C525 0.950 . S
H514 C522 0.950 . S
H515 C524 0.950 . S
H516 C526 0.950 . S
H517 C528 0.950 . S
H518 C530 0.950 . S
H519 C531 0.950 . S
C520 H512 0.950 . S
C520 C521 1.386 . S
C520 C522 1.391 . S
C521 C520 1.386 . S
C521 C525 1.393 . S
C522 H514 0.950 . S
C522 C520 1.391 . S
C522 C523 1.400 . S
C523 C522 1.400 . S
C523 C524 1.398 . S
C523 C529 1.491 . S
C524 H515 0.950 . S
C524 C523 1.398 . S
C524 C525 1.391 . S
C525 H513 0.950 . S
C525 C521 1.393 . S
C525 C524 1.391 . S
C526 H516 0.950 . S
C526 C527 1.386 . S
C526 C528 1.391 . S
C527 C526 1.386 . S
C527 C531 1.393 . S
C528 H517 0.950 . S
C528 C526 1.391 . S
C528 C529 1.400 . S
C529 C523 1.491 . S
C529 C528 1.400 . S
C529 C530 1.398 . S
C530 H518 0.950 . S
C530 C529 1.398 . S
C530 C531 1.391 . S
C531 H519 0.950 . S
C531 C527 1.393 . S
C531 C530 1.391 . S
H532 C540 0.950 . S
H533 C545 0.950 . S
H534 C542 0.950 . S
H535 C544 0.950 . S
H536 C546 0.950 . S
H537 C548 0.950 . S
H538 C550 0.950 . S
H539 C551 0.950 . S
C540 H532 0.950 . S
C540 C541 1.386 . S
C540 C542 1.391 . S
C541 C540 1.386 . S
C541 C545 1.393 . S
C542 H534 0.950 . S
C542 C540 1.391 . S
C542 C543 1.400 . S
C543 C542 1.400 . S
C543 C544 1.398 . S
C543 C549 1.491 . S
C544 H535 0.950 . S
C544 C543 1.398 . S
C544 C545 1.391 . S
C545 H533 0.950 . S
C545 C541 1.393 . S
C545 C544 1.391 . S
C546 H536 0.950 . S
C546 C547 1.386 . S
C546 C548 1.391 . S
C547 C546 1.386 . S
C547 C551 1.393 . S
C548 H537 0.950 . S
C548 C546 1.391 . S
C548 C549 1.400 . S
C549 C543 1.491 . S
C549 C548 1.400 . S
C549 C550 1.398 . S
C550 H538 0.950 . S
C550 C549 1.398 . S
C550 C551 1.391 . S
C551 H539 0.950 . S
C551 C547 1.393 . S
C551 C550 1.391 . S
H552 C560 0.950 . S
H553 C565 0.950 . S
H554 C562 0.950 . S
H555 C564 0.950 . S
H556 C566 0.950 . S
H557 C568 0.950 . S
H558 C570 0.950 . S
H559 C571 0.946 1_655 S
C560 H552 0.950 . S
C560 C561 1.386 . S
C560 C562 1.391 . S
C561 C560 1.386 . S
C561 C565 1.393 1_655 S
C562 H554 0.950 . S
C562 C560 1.391 . S
C562 C563 1.400 1_655 S
C563 C562 1.400 1_455 S
C563 C564 1.398 . S
C563 C569 1.491 . S
C564 H555 0.950 . S
C564 C563 1.398 . S
C564 C565 1.391 . S
C565 H553 0.950 . S
C565 C561 1.393 1_455 S
C565 C564 1.391 . S
C566 H556 0.950 . S
C566 C567 1.386 . S
C566 C568 1.391 . S
C567 C566 1.386 . S
C567 C571 1.398 . S
C568 H557 0.950 . S
C568 C566 1.391 . S
C568 C569 1.400 . S
C569 C563 1.491 . S
C569 C568 1.400 . S
C569 C570 1.398 1_455 S
C570 H558 0.950 . S
C570 C569 1.398 1_655 S
C570 C571 1.389 1_655 S
C571 H559 0.946 1_455 S
C571 C567 1.398 . S
C571 C570 1.389 1_455 S
H572 C580 0.950 . S
H573 C585 0.950 . S
H574 C582 0.950 . S
H575 C584 0.950 . S
H576 C586 0.950 . S
H577 C588 0.950 . S
H578 C590 0.950 . S
H579 C591 0.950 . S
C580 H572 0.950 . S
C580 C581 1.358 1_545 S
C580 C582 1.391 . S
C581 C580 1.358 1_565 S
C581 C585 1.417 . S
C582 H574 0.950 . S
C582 C580 1.391 . S
C582 C583 1.400 . S
C583 C582 1.400 . S
C583 C584 1.398 1_545 S
C583 C589 1.491 . S
C584 H575 0.950 . S
C584 C583 1.398 1_565 S
C584 C585 1.391 . S
C585 H573 0.950 . S
C585 C581 1.417 . S
C585 C584 1.391 . S
C586 H576 0.950 . S
C586 C587 1.386 1_565 S
C586 C588 1.391 . S
C587 C586 1.386 1_545 S
C587 C591 1.393 . S
C588 H577 0.950 . S
C588 C586 1.391 . S
C588 C589 1.400 1_565 S
C589 C583 1.491 . S
C589 C588 1.400 1_545 S
C589 C590 1.398 . S
C590 H578 0.950 . S
C590 C589 1.398 . S
C590 C591 1.391 . S
C591 H579 0.950 . S
C591 C587 1.393 . S
C591 C590 1.391 . S
H592 C600 0.950 . S
H593 C605 0.950 . S
H594 C602 0.950 . S
H595 C604 0.950 . S
H596 C606 0.950 . S
H597 C608 0.950 . S
H598 C610 0.950 . S
H599 C611 0.950 . S
C600 H592 0.950 . S
C600 C601 1.386 . S
C600 C602 1.391 . S
C601 C600 1.386 . S
C601 C605 1.393 1_554 S
C602 H594 0.950 . S
C602 C600 1.391 . S
C602 C603 1.400 . S
C603 C602 1.400 . S
C603 C604 1.398 1_554 S
C603 C609 1.491 1_554 S
C604 H595 0.950 . S
C604 C603 1.398 1_556 S
C604 C605 1.391 . S
C605 H593 0.950 . S
C605 C601 1.393 1_556 S
C605 C604 1.391 . S
C606 H596 0.950 . S
C606 C607 1.386 . S
C606 C608 1.391 . S
C607 C606 1.386 . S
C607 C611 1.393 1_556 S
C608 H597 0.950 . S
C608 C606 1.391 . S
C608 C609 1.400 . S
C609 C603 1.491 1_556 S
C609 C608 1.400 . S
C609 C610 1.398 1_556 S
C610 H598 0.950 . S
C610 C609 1.398 1_554 S
C610 C611 1.391 . S
C611 H599 0.950 . S
C611 C607 1.393 1_554 S
C611 C610 1.391 . S
H612 C620 0.950 . S
H613 C625 0.950 . S
H614 C622 0.950 . S
H615 C624 0.950 . S
H616 C626 0.950 . S
H617 C628 0.950 . S
H618 C630 0.950 . S
H619 C631 0.950 . S
C620 H612 0.950 . S
C620 C621 1.386 . S
C620 C622 1.391 . S
C621 C620 1.386 . S
C621 C625 1.393 . S
C622 H614 0.950 . S
C622 C620 1.391 . S
C622 C623 1.400 . S
C623 C622 1.400 . S
C623 C624 1.398 . S
C623 C629 1.491 . S
C624 H615 0.950 . S
C624 C623 1.398 . S
C624 C625 1.391 . S
C625 H613 0.950 . S
C625 C621 1.393 . S
C625 C624 1.391 . S
C626 H616 0.950 . S
C626 C627 1.386 . S
C626 C628 1.391 . S
C627 C626 1.386 . S
C627 C631 1.393 . S
C628 H617 0.950 . S
C628 C626 1.391 . S
C628 C629 1.400 . S
C629 C623 1.491 . S
C629 C628 1.400 . S
C629 C630 1.398 . S
C630 H618 0.950 . S
C630 C629 1.398 . S
C630 C631 1.391 . S
C631 H619 0.950 . S
C631 C627 1.393 . S
C631 C630 1.391 . S
H632 C640 0.950 1_655 S
H633 C645 0.950 1_554 S
H634 C642 0.950 1_655 S
H635 C644 0.943 1_554 S
H636 C646 0.950 . S
H637 C648 0.950 . S
H638 C650 0.950 1_655 S
H639 C651 0.950 1_655 S
C640 H632 0.950 1_455 S
C640 C641 1.386 . S
C640 C642 1.391 . S
C641 C640 1.386 . S
C641 C645 1.393 . S
C642 H634 0.950 1_455 S
C642 C640 1.391 . S
C642 C643 1.400 . S
C643 C642 1.400 . S
C643 C644 1.398 . S
C643 C649 1.491 . S
C644 H635 0.943 1_556 S
C644 C643 1.398 . S
C644 C645 1.391 . S
C645 H633 0.950 1_556 S
C645 C641 1.393 . S
C645 C644 1.391 . S
C646 H636 0.950 . S
C646 C647 1.386 . S
C646 C648 1.391 . S
C647 C646 1.386 . S
C647 C651 1.393 . S
C648 H637 0.950 . S
C648 C646 1.391 . S
C648 C649 1.400 . S
C649 C643 1.491 . S
C649 C648 1.400 . S
C649 C650 1.398 . S
C650 H638 0.950 1_455 S
C650 C649 1.398 . S
C650 C651 1.391 . S
C651 H639 0.950 1_455 S
C651 C647 1.393 . S
C651 C650 1.391 . S
H652 C660 0.950 1_556 S
H653 C665 0.950 . S
H654 C662 0.950 . S
H655 C664 0.950 . S
H656 C666 0.950 . S
H657 C668 0.950 . S
H658 C670 0.950 . S
H659 C671 0.950 . S
C660 H652 0.950 1_554 S
C660 C661 1.386 . S
C660 C662 1.391 1_554 S
C661 C660 1.386 . S
C661 C665 1.393 1_545 S
C662 H654 0.950 . S
C662 C660 1.391 1_556 S
C662 C663 1.400 1_556 S
C663 C662 1.400 1_554 S
C663 C664 1.398 1_545 S
C663 C669 1.491 1_554 S
C664 H655 0.950 . S
C664 C663 1.398 1_565 S
C664 C665 1.391 . S
C665 H653 0.950 . S
C665 C661 1.393 1_565 S
C665 C664 1.391 . S
C666 H656 0.950 . S
C666 C667 1.386 1_565 S
C666 C668 1.391 1_556 S
C667 C666 1.386 1_545 S
C667 C671 1.393 . S
C668 H657 0.950 . S
C668 C666 1.391 1_554 S
C668 C669 1.400 1_564 S
C669 C663 1.491 1_556 S
C669 C668 1.400 1_546 S
C669 C670 1.398 . S
C670 H658 0.950 . S
C670 C669 1.398 . S
C670 C671 1.391 . S
C671 H659 0.950 . S
C671 C667 1.393 . S
C671 C670 1.391 . S
H672 C680 0.950 . S
H673 C685 0.950 . S
H674 C682 0.950 . S
H675 C684 0.950 . S
H676 C686 0.950 . S
H677 C688 0.950 . S
H678 C690 0.950 . S
H679 C691 0.950 . S
C680 H672 0.950 . S
C680 C681 1.386 . S
C680 C682 1.391 . S
C681 C680 1.386 . S
C681 C685 1.393 . S
C682 H674 0.950 . S
C682 C680 1.391 . S
C682 C683 1.400 . S
C683 C682 1.400 . S
C683 C684 1.398 . S
C683 C689 1.491 . S
C684 H675 0.950 . S
C684 C683 1.398 . S
C684 C685 1.391 . S
C685 H673 0.950 . S
C685 C681 1.393 . S
C685 C684 1.391 . S
C686 H676 0.950 . S
C686 C687 1.386 1_554 S
C686 C688 1.391 . S
C687 C686 1.386 1_556 S
C687 C691 1.393 . S
C688 H677 0.950 . S
C688 C686 1.391 . S
C688 C689 1.400 . S
C689 C683 1.491 . S
C689 C688 1.400 . S
C689 C690 1.398 . S
C690 H678 0.950 . S
C690 C689 1.398 . S
C690 C691 1.391 1_554 S
C691 H679 0.950 . S
C691 C687 1.393 . S
C691 C690 1.391 1_556 S
H692 C700 0.950 . S
H693 C705 0.950 . S
H694 C702 0.950 . S
H695 C704 0.950 . S
H696 C706 0.950 . S
H697 C708 0.950 . S
H698 C710 0.950 . S
H699 C711 0.950 . S
C700 H692 0.950 . S
C700 C701 1.386 . S
C700 C702 1.391 . S
C701 C700 1.386 . S
C701 C705 1.393 . S
C702 H694 0.950 . S
C702 C700 1.391 . S
C702 C703 1.400 . S
C703 C702 1.400 . S
C703 C704 1.398 . S
C703 C709 1.491 . S
C704 H695 0.950 . S
C704 C703 1.398 . S
C704 C705 1.391 . S
C705 H693 0.950 . S
C705 C701 1.393 . S
C705 C704 1.391 . S
C706 H696 0.950 . S
C706 C707 1.386 . S
C706 C708 1.391 . S
C707 C706 1.386 . S
C707 C711 1.393 . S
C708 H697 0.950 . S
C708 C706 1.391 . S
C708 C709 1.400 . S
C709 C703 1.491 . S
C709 C708 1.400 . S
C709 C710 1.398 . S
C710 H698 0.950 . S
C710 C709 1.398 . S
C710 C711 1.391 . S
C711 H699 0.950 . S
C711 C707 1.393 . S
C711 C710 1.391 . S
H712 C720 0.950 . S
H713 C725 0.950 . S
H714 C722 0.950 . S
H715 C724 0.950 . S
H716 C726 0.950 . S
H717 C728 0.950 . S
H718 C730 0.950 . S
H719 C731 0.950 . S
C720 H712 0.950 . S
C720 C721 1.386 . S
C720 C722 1.391 . S
C721 C720 1.386 . S
C721 C725 1.393 1_655 S
C722 H714 0.950 . S
C722 C720 1.391 . S
C722 C723 1.400 . S
C723 C722 1.400 . S
C723 C724 1.398 1_655 S
C723 C729 1.490 . S
C724 H715 0.950 . S
C724 C723 1.398 1_455 S
C724 C725 1.391 . S
C725 H713 0.950 . S
C725 C721 1.393 1_455 S
C725 C724 1.391 . S
C726 H716 0.950 . S
C726 C727 1.386 . S
C726 C728 1.391 . S
C727 C726 1.386 . S
C727 C731 1.393 1_455 S
C728 H717 0.950 . S
C728 C726 1.391 . S
C728 C729 1.402 1_455 S
C729 C723 1.490 . S
C729 C728 1.402 1_655 S
C729 C730 1.397 . S
C730 H718 0.950 . S
C730 C729 1.397 . S
C730 C731 1.391 . S
C731 H719 0.950 . S
C731 C727 1.393 1_655 S
C731 C730 1.391 . S
H732 C740 0.950 . S
H733 C745 0.950 . S
H734 C742 0.950 . S
H735 C744 0.950 . S
H736 C746 0.950 . S
H737 C748 0.950 . S
H738 C750 0.950 . S
H739 C751 0.950 . S
C740 H732 0.950 . S
C740 C741 1.386 1_545 S
C740 C742 1.391 . S
C741 C740 1.386 1_565 S
C741 C745 1.393 . S
C742 H734 0.950 . S
C742 C740 1.391 . S
C742 C743 1.400 1_545 S
C743 C742 1.400 1_565 S
C743 C744 1.398 . S
C743 C749 1.491 . S
C744 H735 0.950 . S
C744 C743 1.398 . S
C744 C745 1.391 . S
C745 H733 0.950 . S
C745 C741 1.393 . S
C745 C744 1.391 . S
C746 H736 0.950 . S
C746 C747 1.386 . S
C746 C748 1.391 . S
C747 C746 1.386 . S
C747 C751 1.393 1_565 S
C748 H737 0.950 . S
C748 C746 1.391 . S
C748 C749 1.400 . S
C749 C743 1.491 . S
C749 C748 1.400 . S
C749 C750 1.398 1_565 S
C750 H738 0.950 . S
C750 C749 1.398 1_545 S
C750 C751 1.391 . S
C751 H739 0.950 . S
C751 C747 1.393 1_545 S
C751 C750 1.391 . S
H752 C760 0.950 . S
H753 C765 0.950 . S
H754 C762 0.950 . S
H755 C764 0.950 . S
H756 C766 0.950 . S
H757 C768 0.950 . S
H758 C770 0.950 . S
H759 C771 0.950 . S
C760 H752 0.950 . S
C760 C761 1.386 . S
C760 C762 1.391 . S
C761 C760 1.386 . S
C761 C765 1.393 . S
C762 H754 0.950 . S
C762 C760 1.391 . S
C762 C763 1.400 . S
C763 C762 1.400 . S
C763 C764 1.398 . S
C763 C769 1.491 . S
C764 H755 0.950 . S
C764 C763 1.398 . S
C764 C765 1.391 . S
C765 H753 0.950 . S
C765 C761 1.393 . S
C765 C764 1.391 . S
C766 H756 0.950 . S
C766 C767 1.386 . S
C766 C768 1.391 . S
C767 C766 1.386 . S
C767 C771 1.393 . S
C768 H757 0.950 . S
C768 C766 1.391 . S
C768 C769 1.400 . S
C769 C763 1.491 . S
C769 C768 1.400 . S
C769 C770 1.398 . S
C770 H758 0.950 . S
C770 C769 1.398 . S
C770 C771 1.391 . S
C771 H759 0.950 . S
C771 C767 1.393 . S
C771 C770 1.391 . S
H772 C780 0.950 . S
H773 C785 0.950 . S
H774 C782 0.950 . S
H775 C784 0.950 . S
H776 C786 0.950 . S
H777 C788 0.950 . S
H778 C790 0.950 . S
H779 C791 0.950 . S
C780 H772 0.950 . S
C780 C781 1.386 . S
C780 C782 1.391 . S
C781 C780 1.386 . S
C781 C785 1.393 . S
C782 H774 0.950 . S
C782 C780 1.391 . S
C782 C783 1.400 . S
C783 C782 1.400 . S
C783 C784 1.398 . S
C783 C789 1.491 . S
C784 H775 0.950 . S
C784 C783 1.398 . S
C784 C785 1.391 . S
C785 H773 0.950 . S
C785 C781 1.393 . S
C785 C784 1.391 . S
C786 H776 0.950 . S
C786 C787 1.386 . S
C786 C788 1.391 . S
C787 C786 1.386 . S
C787 C791 1.393 . S
C788 H777 0.950 . S
C788 C786 1.391 . S
C788 C789 1.400 . S
C789 C783 1.491 . S
C789 C788 1.400 . S
C789 C790 1.398 . S
C790 H778 0.950 . S
C790 C789 1.398 . S
C790 C791 1.391 . S
C791 H779 0.950 . S
C791 C787 1.393 . S
C791 C790 1.391 . S
C321 C125 1.992 1_545 S
C327 C154 2.050 1_545 S
C347 C194 2.086 . S
C341 C144 1.954 . S
C367 C258 1.874 . S
C361 C87 1.855 . S
C387 C274 1.633 . S
C381 C106 1.576 . S
C407 C175 2.055 1_565 S
C401 C49 2.004 1_545 S
C421 C68 2.044 . S
C427 C215 2.085 . S
C441 C11 1.918 . S
C447 C249 1.865 . S
C461 C30 1.605 . S
C467 C295 1.625 . S
C487 C169 0.462 1_655 S
C481 C97 0.462 . S
C507 C209 0.816 . S
C501 C116 0.819 . S
C527 C245 0.806 . S
C521 C135 0.796 . S
C541 C78 0.604 . S
C547 C289 0.606 . S
C561 C21 0.452 . S
C567 C178 0.436 . S
C587 C218 0.816 . S
C581 C40 0.819 . S
C607 C256 0.823 . S
C601 C59 0.820 . S
C621 C2 0.602 . S
C627 C298 0.637 . S
C641 C101 1.850 1_556 S
C647 C176 2.021 . S
C661 C120 1.893 . S
C667 C216 2.037 . S
C687 C234 1.580 . S
C681 C139 1.578 . S
C707 C296 2.467 . S
C701 C82 2.236 . S
C721 C25 1.846 . S
C727 C165 2.019 . S
C747 C205 2.036 . S
C741 C44 1.902 . S
C767 C255 1.578 . S
C761 C63 1.579 . S
C781 C6 2.231 . S
C787 C285 2.458 . S
