# Generated by pormake.
# Topology eea, (3,6)-cn, num edge types: 1
# Building blocks:
#     Node 0, Type 0, BuildingBlock: QEWDON_clean_linker_0, # of connection points: 3
#     Node 1, Type 0, BuildingBlock: QEWDON_clean_linker_0, # of connection points: 3
#     Node 2, Type 0, BuildingBlock: QEWDON_clean_linker_0, # of connection points: 3
#     Node 3, Type 0, BuildingBlock: QEWDON_clean_linker_0, # of connection points: 3
#     Node 4, Type 0, BuildingBlock: QEWDON_clean_linker_0, # of connection points: 3
#     Node 5, Type 0, BuildingBlock: QEWDON_clean_linker_0, # of connection points: 3
#     Node 6, Type 0, BuildingBlock: QEWDON_clean_linker_0, # of connection points: 3
#     Node 7, Type 0, BuildingBlock: QEWDON_clean_linker_0, # of connection points: 3
#     Node 8, Type 0, BuildingBlock: QEWDON_clean_linker_0, # of connection points: 3
#     Node 9, Type 0, BuildingBlock: QEWDON_clean_linker_0, # of connection points: 3
#     Node 10, Type 0, BuildingBlock: QEWDON_clean_linker_0, # of connection points: 3
#     Node 11, Type 0, BuildingBlock: QEWDON_clean_linker_0, # of connection points: 3
#     Node 12, Type 0, BuildingBlock: QEWDON_clean_linker_0, # of connection points: 3
#     Node 13, Type 0, BuildingBlock: QEWDON_clean_linker_0, # of connection points: 3
#     Node 14, Type 0, BuildingBlock: QEWDON_clean_linker_0, # of connection points: 3
#     Node 15, Type 0, BuildingBlock: QEWDON_clean_linker_0, # of connection points: 3
#     Node 16, Type 0, BuildingBlock: QEWDON_clean_linker_0, # of connection points: 3
#     Node 17, Type 0, BuildingBlock: QEWDON_clean_linker_0, # of connection points: 3
#     Node 18, Type 1, BuildingBlock: CUKXOW_clean_sbu_0, # of connection points: 6
#     Node 19, Type 1, BuildingBlock: CUKXOW_clean_sbu_0, # of connection points: 6
#     Node 20, Type 1, BuildingBlock: CUKXOW_clean_sbu_0, # of connection points: 6
#     Node 21, Type 1, BuildingBlock: CUKXOW_clean_sbu_0, # of connection points: 6
#     Node 22, Type 1, BuildingBlock: CUKXOW_clean_sbu_0, # of connection points: 6
#     Node 23, Type 1, BuildingBlock: CUKXOW_clean_sbu_0, # of connection points: 6
#     Node 24, Type 1, BuildingBlock: CUKXOW_clean_sbu_0, # of connection points: 6
#     Node 25, Type 1, BuildingBlock: CUKXOW_clean_sbu_0, # of connection points: 6
#     Node 26, Type 1, BuildingBlock: CUKXOW_clean_sbu_0, # of connection points: 6
#     Edge 27, Type (0, 1), BuildingBlock: EZIPEK_clean_linker_0, # of connection points: 2
#     Edge 28, Type (0, 1), BuildingBlock: EZIPEK_clean_linker_0, # of connection points: 2
#     Edge 29, Type (0, 1), BuildingBlock: EZIPEK_clean_linker_0, # of connection points: 2
#     Edge 30, Type (0, 1), BuildingBlock: EZIPEK_clean_linker_0, # of connection points: 2
#     Edge 31, Type (0, 1), BuildingBlock: EZIPEK_clean_linker_0, # of connection points: 2
#     Edge 32, Type (0, 1), BuildingBlock: EZIPEK_clean_linker_0, # of connection points: 2
#     Edge 33, Type (0, 1), BuildingBlock: EZIPEK_clean_linker_0, # of connection points: 2
#     Edge 34, Type (0, 1), BuildingBlock: EZIPEK_clean_linker_0, # of connection points: 2
#     Edge 35, Type (0, 1), BuildingBlock: EZIPEK_clean_linker_0, # of connection points: 2
#     Edge 36, Type (0, 1), BuildingBlock: EZIPEK_clean_linker_0, # of connection points: 2
#     Edge 37, Type (0, 1), BuildingBlock: EZIPEK_clean_linker_0, # of connection points: 2
#     Edge 38, Type (0, 1), BuildingBlock: EZIPEK_clean_linker_0, # of connection points: 2
#     Edge 39, Type (0, 1), BuildingBlock: EZIPEK_clean_linker_0, # of connection points: 2
#     Edge 40, Type (0, 1), BuildingBlock: EZIPEK_clean_linker_0, # of connection points: 2
#     Edge 41, Type (0, 1), BuildingBlock: EZIPEK_clean_linker_0, # of connection points: 2
#     Edge 42, Type (0, 1), BuildingBlock: EZIPEK_clean_linker_0, # of connection points: 2
#     Edge 43, Type (0, 1), BuildingBlock: EZIPEK_clean_linker_0, # of connection points: 2
#     Edge 44, Type (0, 1), BuildingBlock: EZIPEK_clean_linker_0, # of connection points: 2
#     Edge 45, Type (0, 1), BuildingBlock: EZIPEK_clean_linker_0, # of connection points: 2
#     Edge 46, Type (0, 1), BuildingBlock: EZIPEK_clean_linker_0, # of connection points: 2
#     Edge 47, Type (0, 1), BuildingBlock: EZIPEK_clean_linker_0, # of connection points: 2
#     Edge 48, Type (0, 1), BuildingBlock: EZIPEK_clean_linker_0, # of connection points: 2
#     Edge 49, Type (0, 1), BuildingBlock: EZIPEK_clean_linker_0, # of connection points: 2
#     Edge 50, Type (0, 1), BuildingBlock: EZIPEK_clean_linker_0, # of connection points: 2
#     Edge 51, Type (0, 1), BuildingBlock: EZIPEK_clean_linker_0, # of connection points: 2
#     Edge 52, Type (0, 1), BuildingBlock: EZIPEK_clean_linker_0, # of connection points: 2
#     Edge 53, Type (0, 1), BuildingBlock: EZIPEK_clean_linker_0, # of connection points: 2
#     Edge 54, Type (0, 1), BuildingBlock: EZIPEK_clean_linker_0, # of connection points: 2
#     Edge 55, Type (0, 1), BuildingBlock: EZIPEK_clean_linker_0, # of connection points: 2
#     Edge 56, Type (0, 1), BuildingBlock: EZIPEK_clean_linker_0, # of connection points: 2
#     Edge 57, Type (0, 1), BuildingBlock: EZIPEK_clean_linker_0, # of connection points: 2
#     Edge 58, Type (0, 1), BuildingBlock: EZIPEK_clean_linker_0, # of connection points: 2
#     Edge 59, Type (0, 1), BuildingBlock: EZIPEK_clean_linker_0, # of connection points: 2
#     Edge 60, Type (0, 1), BuildingBlock: EZIPEK_clean_linker_0, # of connection points: 2
#     Edge 61, Type (0, 1), BuildingBlock: EZIPEK_clean_linker_0, # of connection points: 2
#     Edge 62, Type (0, 1), BuildingBlock: EZIPEK_clean_linker_0, # of connection points: 2
#     Edge 63, Type (0, 1), BuildingBlock: EZIPEK_clean_linker_0, # of connection points: 2
#     Edge 64, Type (0, 1), BuildingBlock: EZIPEK_clean_linker_0, # of connection points: 2
#     Edge 65, Type (0, 1), BuildingBlock: EZIPEK_clean_linker_0, # of connection points: 2
#     Edge 66, Type (0, 1), BuildingBlock: EZIPEK_clean_linker_0, # of connection points: 2
#     Edge 67, Type (0, 1), BuildingBlock: EZIPEK_clean_linker_0, # of connection points: 2
#     Edge 68, Type (0, 1), BuildingBlock: EZIPEK_clean_linker_0, # of connection points: 2
#     Edge 69, Type (0, 1), BuildingBlock: EZIPEK_clean_linker_0, # of connection points: 2
#     Edge 70, Type (0, 1), BuildingBlock: EZIPEK_clean_linker_0, # of connection points: 2
#     Edge 71, Type (0, 1), BuildingBlock: EZIPEK_clean_linker_0, # of connection points: 2
#     Edge 72, Type (0, 1), BuildingBlock: EZIPEK_clean_linker_0, # of connection points: 2
#     Edge 73, Type (0, 1), BuildingBlock: EZIPEK_clean_linker_0, # of connection points: 2
#     Edge 74, Type (0, 1), BuildingBlock: EZIPEK_clean_linker_0, # of connection points: 2
#     Edge 75, Type (0, 1), BuildingBlock: EZIPEK_clean_linker_0, # of connection points: 2
#     Edge 76, Type (0, 1), BuildingBlock: EZIPEK_clean_linker_0, # of connection points: 2
#     Edge 77, Type (0, 1), BuildingBlock: EZIPEK_clean_linker_0, # of connection points: 2
#     Edge 78, Type (0, 1), BuildingBlock: EZIPEK_clean_linker_0, # of connection points: 2
#     Edge 79, Type (0, 1), BuildingBlock: EZIPEK_clean_linker_0, # of connection points: 2
#     Edge 80, Type (0, 1), BuildingBlock: EZIPEK_clean_linker_0, # of connection points: 2
# Relax obj value: 0.053
# Max RMSD: 0.212
# Mean RMSD: 0.117
data_MOF--net-eea--node1-CUKXOW_clean_sbu_0--node2-QEWDON_clean_linker_0--edge1-EZIPEK_clean_linker_0
_symmetry_space_group_name_H-M    P1
_symmetry_Int_Tables_number       1
_symmetry_cell_setting            triclinic
loop_
_symmetry_equiv_pos_as_xyz
'x, y, z'
_cell_length_a     48.356484
_cell_length_b     44.362402
_cell_length_c     33.131964
_cell_angle_alpha  93.593024
_cell_angle_beta   93.754606
_cell_angle_gamma 120.23957
loop_
_atom_site_label
_atom_site_type_symbol
_atom_site_fract_x
_atom_site_fract_y
_atom_site_fract_z
_atom_type_partial_charge
H0 H 0.24672 0.1507 0.4461 0.0
C1 C 0.24821 0.12994 0.42918 0.0
C2 C 0.26881 0.11888 0.44536 0.0
C3 C 0.22751 0.11207 0.39326 0.0
H4 H 0.28353 0.08124 0.43972 0.0
C5 C 0.26955 0.09077 0.42438 0.0
C6 C 0.25128 0.07423 0.38601 0.0
C7 C 0.22934 0.0846 0.37233 0.0
C8 C 0.20172 0.11934 0.37872 0.0
H9 H 0.21211 0.07048 0.3461 0.0
C10 C 0.20744 0.15386 0.37789 0.0
C11 C 0.18262 0.15929 0.3621 0.0
C12 C 0.17068 0.09083 0.36479 0.0
H13 H 0.16496 0.06401 0.36635 0.0
C14 C 0.14644 0.09633 0.34884 0.0
H15 H 0.23084 0.17625 0.38922 0.0
C16 C 0.15237 0.13029 0.34726 0.0
H17 H 0.13301 0.13402 0.33537 0.0
H18 H 0.12282 0.07412 0.33805 0.0
H19 H 0.87556 0.09609 0.48312 0.0
C20 C 0.89499 0.11528 0.4678 0.0
C21 C 0.90601 0.15125 0.4768 0.0
C22 C 0.90907 0.10389 0.43948 0.0
H23 H 0.94006 0.20351 0.46313 0.0
C24 C 0.93138 0.17571 0.4568 0.0
C25 C 0.94723 0.16472 0.43099 0.0
C26 C 0.93574 0.12882 0.42191 0.0
C27 C 0.89632 0.06595 0.42898 0.0
H28 H 0.9477 0.1204 0.40133 0.0
C29 C 0.86332 0.04306 0.41626 0.0
C30 C 0.8512 1.007 0.40637 0.0
C31 C 0.91709 0.05248 0.43134 0.0
H32 H 0.94256 0.06963 0.44112 0.0
C33 C 0.90506 0.01664 0.42166 0.0
H34 H 0.84714 0.05325 0.41372 0.0
C35 C 0.87229 0.99397 0.40928 0.0
H36 H 0.86335 0.96624 0.40175 0.0
H37 H 0.92118 1.00641 0.42374 0.0
H38 H 0.91305 0.74659 0.46839 0.0
C39 C 0.89468 0.75236 0.45804 0.0
C40 C 0.8646 0.73631 0.47405 0.0
C41 C 0.90221 0.77873 0.43194 0.0
H42 H 0.81879 0.73421 0.47308 0.0
C43 C 0.8416 0.74509 0.46041 0.0
C44 C 0.84734 0.76738 0.43004 0.0
C45 C 0.87763 0.78414 0.41596 0.0
C46 C 0.93617 0.80534 0.42735 0.0
H47 H 0.88267 0.80318 0.39434 0.0
C48 C 0.95894 0.79635 0.41592 0.0
C49 C 0.99052 0.82314 0.41105 0.0
C50 C 0.94586 0.84109 0.43526 0.0
H51 H 0.92919 0.84886 0.44507 0.0
C52 C 0.97712 0.86733 0.43103 0.0
H53 H 0.95208 0.76904 0.40992 0.0
C54 C 0.99928 0.85846 0.41877 0.0
H55 H 0.02346 0.87924 0.41532 0.0
H56 H 0.98415 0.89466 0.43717 0.0
H57 H 0.15703 0.27247 0.58722 0.0
C58 C 0.13468 0.26968 0.59579 0.0
C59 C 0.11889 0.28323 0.57212 0.0
C60 C 0.11996 0.24904 0.62705 0.0
H61 H 0.0758 0.28693 0.56428 0.0
C62 C 0.08898 0.27791 0.58264 0.0
C63 C 0.07591 0.26048 0.61674 0.0
C64 C 0.09163 0.24653 0.63873 0.0
C65 C 0.13071 0.22542 0.6428 0.0
H66 H 0.08062 0.23187 0.66386 0.0
C67 C 0.16356 0.23582 0.64951 0.0
C68 C 0.17255 0.21142 0.66009 0.0
C69 C 0.10732 0.19063 0.64803 0.0
H70 H 0.08184 0.18124 0.642 0.0
C71 C 0.11636 0.1669 0.65962 0.0
H72 H 0.18205 0.26234 0.64566 0.0
C73 C 0.14878 0.17713 0.66539 0.0
H74 H 0.15539 0.15815 0.67366 0.0
H75 H 0.09813 0.14026 0.66332 0.0
H76 H 0.7916 0.90232 0.57158 0.0
C77 C 0.7902 0.88106 0.58752 0.0
C78 C 0.76676 0.84633 0.57315 0.0
C79 C 0.81174 0.88865 0.62207 0.0
H80 H 0.74782 0.79269 0.58036 0.0
C81 C 0.76512 0.81882 0.59388 0.0
C82 C 0.7859 0.82527 0.62987 0.0
C83 C 0.81035 0.86076 0.64174 0.0
C84 C 0.83571 0.92588 0.63762 0.0
H85 H 0.8289 0.86736 0.66631 0.0
C86 C 0.82659 0.95157 0.64068 0.0
C87 C 0.84949 0.98674 0.65506 0.0
C88 C 0.86794 0.93598 0.64941 0.0
H89 H 0.8758 0.91705 0.64695 0.0
C90 C 0.89057 0.97081 0.66382 0.0
H91 H 0.80184 0.94435 0.63208 0.0
C92 C 0.88147 0.99607 0.6666 0.0
H93 H 0.8994 0.023 0.67768 0.0
H94 H 0.91534 0.97831 0.67268 0.0
H95 H 0.10878 0.87063 0.56974 0.0
C96 C 0.13097 0.89195 0.58599 0.0
C97 C 0.16051 0.90169 0.57056 0.0
C98 C 0.13005 0.91205 0.62014 0.0
H99 H 0.21149 0.93924 0.57706 0.0
C100 C 0.18902 0.93073 0.59008 0.0
C101 C 0.18828 0.95157 0.62298 0.0
C102 C 0.15907 0.94145 0.63867 0.0
C103 C 0.09901 0.90596 0.63382 0.0
H104 H 0.15881 0.95785 0.66415 0.0
C105 C 0.07336 0.87206 0.63845 0.0
C106 C 0.04544 0.86801 0.65451 0.0
C107 C 0.09543 0.93514 0.64346 0.0
H108 H 0.11406 0.96138 0.63891 0.0
C109 C 0.06791 0.93105 0.65916 0.0
H110 H 0.07529 0.84917 0.63056 0.0
C111 C 0.04324 0.89782 0.66509 0.0
H112 H 0.02202 0.89523 0.67741 0.0
H113 H 0.0657 0.95378 0.66678 0.0
H114 H 0.92158 0.48742 0.77982 0.0
C115 C 0.91919 0.46298 0.76729 0.0
C116 C 0.93687 0.44997 0.78781 0.0
C117 C 0.89646 0.4428 0.73325 0.0
H118 H 0.94528 0.40671 0.78985 0.0
C119 C 0.93259 0.41733 0.77336 0.0
C120 C 0.91034 0.39714 0.73957 0.0
C121 C 0.89343 0.41053 0.71897 0.0
C122 C 0.87341 0.45282 0.71479 0.0
H123 H 0.87689 0.39471 0.6924 0.0
C124 C 0.88132 0.4882 0.7147 0.0
C125 C 0.85854 0.49614 0.69756 0.0
C126 C 0.84214 0.42611 0.69802 0.0
H127 H 0.83396 0.39862 0.6994 0.0
C128 C 0.82022 0.43418 0.67998 0.0
H129 H 0.90466 0.50946 0.72818 0.0
C130 C 0.82836 0.46894 0.67959 0.0
H131 H 0.81059 0.47467 0.66653 0.0
H132 H 0.7965 0.41331 0.66711 0.0
H133 H 0.54529 0.44665 0.80478 0.0
C134 C 0.56275 0.46617 0.78758 0.0
C135 C 0.57306 0.50174 0.79739 0.0
C136 C 0.57519 0.45563 0.75639 0.0
H137 H 0.60374 0.55375 0.78464 0.0
C138 C 0.596 0.52691 0.77497 0.0
C139 C 0.60932 0.51737 0.74305 0.0
C140 C 0.59914 0.48124 0.73572 0.0
C141 C 0.56361 0.41777 0.74572 0.0
H142 H 0.60998 0.47242 0.71398 0.0
C143 C 0.53034 0.39264 0.73931 0.0
C144 C 0.51974 0.357 0.72828 0.0
C145 C 0.58591 0.40663 0.74124 0.0
H146 H 0.61157 0.42526 0.74638 0.0
C147 C 0.57534 0.37127 0.73054 0.0
H148 H 0.51277 0.40073 0.7424 0.0
C149 C 0.54247 0.34657 0.72406 0.0
H150 H 0.53469 0.31922 0.71577 0.0
H151 H 0.59271 0.36296 0.72729 0.0
H152 H 0.57358 0.07905 0.78501 0.0
C153 C 0.5549 0.08421 0.77413 0.0
C154 C 0.52582 0.06977 0.79215 0.0
C155 C 0.56117 0.10813 0.74513 0.0
H156 H 0.47963 0.06687 0.79132 0.0
C157 C 0.502 0.07716 0.77769 0.0
C158 C 0.50678 0.09775 0.74558 0.0
C159 C 0.53643 0.11354 0.72989 0.0
C160 C 0.59439 0.1312 0.73482 0.0
H161 H 0.54052 0.13093 0.7065 0.0
C162 C 0.6147 0.11806 0.72583 0.0
C163 C 0.64658 0.14122 0.71825 0.0
C164 C 0.60642 0.16755 0.73582 0.0
H165 H 0.59164 0.17856 0.74347 0.0
C166 C 0.63789 0.19031 0.72801 0.0
H167 H 0.60593 0.09019 0.72487 0.0
C168 C 0.65792 0.17727 0.71934 0.0
H169 H 0.6824 0.19533 0.71351 0.0
H170 H 0.64687 0.21819 0.72902 0.0
H171 H 0.83252 0.60231 0.92411 0.0
C172 C 0.80945 0.59833 0.93129 0.0
C173 C 0.79459 0.61356 0.90884 0.0
C174 C 0.79275 0.57453 0.95925 0.0
H175 H 0.75162 0.61734 0.90038 0.0
C176 C 0.7641 0.60701 0.91786 0.0
C177 C 0.74944 0.58694 0.94929 0.0
C178 C 0.7638 0.571 0.96988 0.0
C179 C 0.80177 0.5487 0.97185 0.0
H180 H 0.75128 0.55404 0.99271 0.0
C181 C 0.83403 0.55808 0.98233 0.0
C182 C 0.84149 0.53204 0.99063 0.0
C183 C 0.77735 0.51316 0.97072 0.0
H184 H 0.75236 0.50473 0.9617 0.0
C185 C 0.7848 0.4877 0.97991 0.0
H186 H 0.85325 0.58514 0.98318 0.0
C187 C 0.8167 0.497 0.98961 0.0
H188 H 0.82216 0.47677 0.99595 0.0
H189 H 0.76579 0.46054 0.97877 0.0
H190 H 0.451 0.24061 0.90052 0.0
C191 C 0.45209 0.2203 0.91586 0.0
C192 C 0.43037 0.18481 0.90143 0.0
C193 C 0.47566 0.22973 0.94901 0.0
H194 H 0.41666 0.13114 0.90907 0.0
C195 C 0.43277 0.15853 0.92038 0.0
C196 C 0.45747 0.16753 0.95171 0.0
C197 C 0.47816 0.20295 0.96667 0.0
C198 C 0.49921 0.26752 0.96304 0.0
H199 H 0.49685 0.20953 0.99126 0.0
C200 C 0.48968 0.29293 0.96522 0.0
C201 C 0.51256 0.32856 0.97769 0.0
C202 C 0.53189 0.27857 0.97345 0.0
H203 H 0.54028 0.26011 0.9712 0.0
C204 C 0.55441 0.31378 0.98597 0.0
H205 H 0.46469 0.28519 0.95744 0.0
C206 C 0.54486 0.33864 0.98807 0.0
H207 H 0.56276 0.36591 0.99762 0.0
H208 H 0.57946 0.32189 0.99376 0.0
H209 H 0.78915 0.19686 0.91958 0.0
C210 C 0.81155 0.21913 0.93406 0.0
C211 C 0.84046 0.22837 0.91696 0.0
C212 C 0.81121 0.24074 0.96698 0.0
H213 H 0.89083 0.2673 0.91876 0.0
C214 C 0.86909 0.2589 0.93345 0.0
C215 C 0.8691 0.28061 0.96607 0.0
C216 C 0.8406 0.27067 0.98363 0.0
C217 C 0.78032 0.23576 0.98057 0.0
H218 H 0.84112 0.28789 0.00874 0.0
C219 C 0.75316 0.20221 0.98314 0.0
C220 C 0.72492 0.19926 0.99714 0.0
C221 C 0.77793 0.2657 0.99063 0.0
H222 H 0.7974 0.2918 0.98724 0.0
C223 C 0.75026 0.26268 1.00472 0.0
H224 H 0.75394 0.17867 0.97478 0.0
C225 C 0.72407 0.22979 0.00829 0.0
H226 H 0.70266 0.22805 0.01902 0.0
H227 H 0.74903 0.286 0.01256 0.0
H228 H 0.5868 0.81965 0.12674 0.0
C229 C 0.58566 0.79786 0.10839 0.0
C230 C 0.60466 0.78391 0.12159 0.0
C231 C 0.56278 0.78133 0.07414 0.0
H232 H 0.61595 0.74367 0.11082 0.0
C233 C 0.6024 0.75495 0.0984 0.0
C234 C 0.5818 0.73957 0.06136 0.0
C235 C 0.56059 0.75201 0.05165 0.0
C236 C 0.53842 0.79172 0.06414 0.0
H237 H 0.54107 0.7386 0.02767 0.0
C238 C 0.54729 0.82676 0.05895 0.0
C239 C 0.52337 0.83508 0.04794 0.0
C240 C 0.50555 0.76569 0.05916 0.0
H241 H 0.498 0.73873 0.06358 0.0
C242 C 0.48203 0.77406 0.0487 0.0
H243 H 0.57247 0.84719 0.06265 0.0
C244 C 0.49084 0.80846 0.04295 0.0
H245 H 0.4722 0.81442 0.03467 0.0
H246 H 0.45684 0.75375 0.04495 0.0
H247 H 0.20807 0.7834 0.11965 0.0
C248 C 0.22778 0.80433 0.10649 0.0
C249 C 0.24261 0.83899 0.12568 0.0
C250 C 0.24044 0.79636 0.07307 0.0
H251 H 0.28317 0.89186 0.12752 0.0
C252 C 0.27028 0.86572 0.11118 0.0
C253 C 0.28246 0.85809 0.07713 0.0
C254 C 0.26657 0.82389 0.05738 0.0
C255 C 0.23008 0.75942 0.05797 0.0
H256 H 0.27641 0.81834 0.03134 0.0
C257 C 0.19753 0.73229 0.05401 0.0
C258 C 0.18896 0.69768 0.04021 0.0
C259 C 0.25362 0.751 0.04846 0.0
H260 H 0.279 0.77077 0.05252 0.0
C261 C 0.24493 0.71682 0.03433 0.0
H262 H 0.17898 0.73788 0.06157 0.0
C263 C 0.21277 0.69026 0.03011 0.0
H264 H 0.20642 0.6637 0.01961 0.0
H265 H 0.26327 0.71083 0.02709 0.0
H266 H 0.24943 0.43053 0.16376 0.0
C267 C 0.23215 0.43149 0.1422 0.0
C268 C 0.19914 0.41202 0.1467 0.0
C269 C 0.24295 0.45421 0.1118 0.0
H270 H 0.15174 0.40148 0.12452 0.0
C271 C 0.17705 0.41515 0.12003 0.0
C272 C 0.18777 0.43803 0.08979 0.0
C273 C 0.22067 0.45672 0.08512 0.0
C274 C 0.27734 0.48049 0.11267 0.0
H275 H 0.22917 0.47536 0.06273 0.0
C276 C 0.299 0.47179 0.09687 0.0
C277 C 0.33116 0.49827 0.09532 0.0
C278 C 0.28812 0.51534 0.12783 0.0
H279 H 0.27162 0.52236 0.14005 0.0
C280 C 0.32014 0.54141 0.12703 0.0
H281 H 0.2908 0.44493 0.0851 0.0
C282 C 0.34155 0.533 0.11069 0.0
H283 H 0.36632 0.55362 0.10999 0.0
H284 H 0.3283 0.56823 0.13877 0.0
H285 H 0.48856 0.93466 0.2333 0.0
C286 C 0.47097 0.93669 0.25017 0.0
C287 C 0.4608 0.96015 0.23979 0.0
C288 C 0.45515 0.91236 0.27769 0.0
H289 H 0.42751 0.97794 0.25098 0.0
C290 C 0.43645 0.96104 0.25999 0.0
C291 C 0.42091 0.93697 0.28819 0.0
C292 C 0.43054 0.91296 0.29688 0.0
C293 C 0.46016 0.88247 0.28117 0.0
H294 H 0.41756 0.89331 0.31706 0.0
C295 C 0.4905 0.88787 0.29498 0.0
C296 C 0.49476 0.85899 0.29765 0.0
C297 C 0.43418 0.84809 0.2702 0.0
H298 H 0.4106 0.84346 0.25926 0.0
C299 C 0.43852 0.81945 0.27273 0.0
H300 H 0.51063 0.91427 0.30371 0.0
C301 C 0.46872 0.82482 0.28635 0.0
H302 H 0.47182 0.80239 0.28829 0.0
H303 H 0.41845 0.79306 0.26408 0.0
H304 H 0.12107 0.57659 0.25229 0.0
C305 C 0.121 0.55567 0.26759 0.0
C306 C 0.10306 0.52094 0.24855 0.0
C307 C 0.1403 0.56355 0.30488 0.0
H308 H 0.09291 0.46782 0.2505 0.0
C309 C 0.10515 0.49414 0.26636 0.0
C310 C 0.1241 0.50151 0.30367 0.0
C311 C 0.14015 0.5358 0.32355 0.0
C312 C 0.16358 0.60063 0.32228 0.0
H313 H 0.15428 0.54112 0.35265 0.0
C314 C 0.15595 0.62747 0.32129 0.0
C315 C 0.17888 0.66216 0.33786 0.0
C316 C 0.19461 0.60951 0.33935 0.0
H317 H 0.20189 0.59008 0.33943 0.0
C318 C 0.21704 0.64372 0.35587 0.0
H319 H 0.13243 0.62156 0.3081 0.0
C320 C 0.20924 0.66989 0.35527 0.0
H321 H 0.22709 0.69642 0.36798 0.0
H322 H 0.24071 0.65003 0.36888 0.0
H323 H 0.4438 0.53702 0.21945 0.0
C324 C 0.46422 0.55756 0.23932 0.0
C325 C 0.4957 0.56877 0.22981 0.0
C326 C 0.45916 0.57555 0.27198 0.0
H327 H 0.54613 0.6065 0.24586 0.0
C328 C 0.52199 0.59684 0.25429 0.0
C329 C 0.51734 0.61561 0.28603 0.0
C330 C 0.48597 0.6045 0.29523 0.0
C331 C 0.42629 0.56866 0.27756 0.0
H332 H 0.48234 0.61982 0.31882 0.0
C333 C 0.4009 0.53511 0.28379 0.0
C334 C 0.37053 0.53036 0.29101 0.0
C335 C 0.42051 0.59672 0.27718 0.0
H336 H 0.43942 0.6226 0.27184 0.0
C337 C 0.39038 0.5918 0.28349 0.0
H338 H 0.40492 0.5132 0.28413 0.0
C339 C 0.36559 0.55893 0.2906 0.0
H340 H 0.34243 0.55573 0.29593 0.0
H341 H 0.38628 0.61363 0.28314 0.0
Tb342 Tb 0.5376 0.0383 0.02313 0.0
C343 C 0.51932 0.95851 0.01738 0.0
Tb344 Tb 0.46744 0.98182 1.00367 0.0
O345 O 0.52993 0.04817 0.08665 0.0
O346 O 0.5018 1.00001 0.05494 0.0
O347 O 0.54268 0.99171 0.01778 0.0
C348 C 0.40571 0.94514 0.01826 0.0
O349 O 0.48842 0.94891 0.01534 0.0
C350 C 0.49784 0.99824 0.9382 0.0
C351 C 0.48768 0.0624 1.00003 0.0
O352 O 0.41837 0.93601 0.98996 0.0
O353 O 0.42766 0.9748 0.03787 0.0
O354 O 0.47302 0.96767 0.9419 0.0
O355 O 0.50289 0.01861 0.96999 0.0
O356 O 0.464 0.02958 1.00158 0.0
O357 O 0.51838 0.07095 1.00302 0.0
C358 C 0.60104 0.08284 0.02208 0.0
O359 O 0.58217 0.08861 0.04314 0.0
O360 O 0.58414 0.05218 1.00151 0.0
C361 C 0.50421 0.01772 0.08736 0.0
Tb362 Tb 1.00007 0.50596 0.02678 0.0
C363 C 0.07202 0.56485 0.02317 0.0
Tb364 Tb 0.04792 0.48339 1.00525 0.0
O365 O 0.02098 0.52402 0.09018 0.0
O366 O 0.02598 0.48569 0.05815 0.0
O367 O 0.04218 0.55772 0.02565 0.0
C368 C 0.09359 0.46678 0.01641 0.0
O369 O 0.07976 0.54045 0.01614 0.0
C370 C 0.0124 0.48378 0.94169 0.0
C371 C 0.97583 0.42403 1.00436 0.0
O372 O 0.09186 0.48502 0.98814 0.0
O373 O 0.06984 0.45805 0.03796 0.0
O374 O 0.02665 0.46546 0.94183 0.0
O375 O 0.02241 0.50432 0.9744 0.0
O376 O 1.00588 0.4312 1.00382 0.0
O377 O 0.96811 0.44862 0.01095 0.0
C378 C 0.95617 0.52582 0.01928 0.0
O379 O 0.95398 0.50088 0.04006 0.0
O380 O 0.98318 0.5397 1.00366 0.0
C381 C 0.03612 0.50672 0.09052 0.0
Tb382 Tb 0.49737 0.51906 0.00895 0.0
C383 C 0.51386 0.45792 1.00015 0.0
Tb384 Tb 0.56878 0.5389 0.01688 0.0
O385 O 0.4992 0.53386 0.94633 0.0
O386 O 0.53013 0.51869 0.97016 0.0
O387 O 0.49075 0.46615 0.9984 0.0
C388 C 0.62597 0.55277 0.99801 0.0
O389 O 0.54525 0.48168 0.00666 0.0
C390 C 0.54674 0.54544 0.0858 0.0
C391 C 0.5523 0.59847 0.01824 0.0
O392 O 0.61271 0.53652 0.02895 0.0
O393 O 0.60726 0.56103 0.97817 0.0
O394 O 0.57711 0.56258 0.08059 0.0
O395 O 0.53183 0.52372 0.05492 0.0
O396 O 0.57168 0.58804 1.00512 0.0
O397 O 0.5235 0.57575 0.02875 0.0
C398 C 0.43854 0.49827 0.03055 0.0
O399 O 0.45065 0.51618 1.00033 0.0
O400 O 0.4591 0.49103 0.04745 0.0
C401 C 0.52462 0.53189 0.94042 0.0
Tb402 Tb 0.19734 0.36513 0.35595 0.0
C403 C 0.17224 0.28362 0.35371 0.0
Tb404 Tb 0.12405 0.31346 0.3534 0.0
O405 O 0.20633 0.35822 0.41965 0.0
O406 O 0.16188 0.35056 0.39697 0.0
O407 O 0.19769 0.31586 0.35453 0.0
C408 C 0.06729 0.26691 0.37579 0.0
O409 O 0.14214 0.27713 0.35097 0.0
C410 C 0.14403 0.33277 0.2826 0.0
C411 C 0.1479 0.39259 0.35432 0.0
O412 O 0.09515 0.27293 0.39145 0.0
O413 O 0.07139 0.28718 0.34735 0.0
O414 O 0.11422 0.31969 0.28979 0.0
O415 O 0.15913 0.32895 0.31247 0.0
O416 O 0.12758 0.36377 0.37004 0.0
O417 O 0.17503 0.39644 0.34191 0.0
C418 C 0.25478 0.41191 0.33452 0.0
O419 O 0.24305 0.41537 0.36755 0.0
O420 O 0.23438 0.3819 0.31389 0.0
C421 C 0.1767 0.34652 0.42697 0.0
Tb422 Tb 0.65099 0.83444 0.36257 0.0
C423 C 0.72541 0.89009 0.36337 0.0
Tb424 Tb 0.70108 0.80876 0.35132 0.0
O425 O 0.66369 0.84673 0.42862 0.0
O426 O 0.67407 0.8132 0.3969 0.0
O427 O 0.69545 0.88394 0.35766 0.0
C428 C 0.74707 0.7947 0.37289 0.0
O429 O 0.7327 0.86508 0.36457 0.0
C430 C 0.67887 0.81958 0.28041 0.0
C431 C 0.62717 0.75275 0.34354 0.0
O432 O 0.74217 0.81757 0.39232 0.0
O433 O 0.7259 0.77951 0.34098 0.0
O434 O 0.69903 0.80826 0.28395 0.0
O435 O 0.67423 0.82489 0.31649 0.0
O436 O 0.6568 0.75846 0.3522 0.0
O437 O 0.62027 0.7782 0.34169 0.0
C438 C 0.6075 0.8539 0.34915 0.0
O439 O 0.60206 0.82511 0.36378 0.0
O440 O 0.63752 0.87203 0.34299 0.0
C441 C 0.67998 0.8308 0.43107 0.0
Tb442 Tb 0.16524 0.8525 0.34407 0.0
C443 C 0.1861 0.79522 0.35028 0.0
Tb444 Tb 0.23956 0.8767 0.36392 0.0
O445 O 0.1647 0.84925 0.27645 0.0
O446 O 0.20516 0.86336 0.31407 0.0
O447 O 0.16255 0.80247 0.35214 0.0
C448 C 0.30141 0.90227 0.35283 0.0
O449 O 0.21721 0.81951 0.35147 0.0
C450 C 0.20956 0.87954 0.42654 0.0
C451 C 0.21925 0.93229 0.3465 0.0
O452 O 0.28264 0.87141 0.36438 0.0
O453 O 0.28565 0.9185 0.34917 0.0
O454 O 0.24075 0.89613 0.42749 0.0
O455 O 0.19784 0.8587 0.3944 0.0
O456 O 0.24018 0.92197 0.34094 0.0
O457 O 0.18869 0.90996 0.35163 0.0
C458 C 0.10615 0.83558 0.36044 0.0
O459 O 0.13286 0.86168 0.37898 0.0
O460 O 0.11266 0.81916 0.33214 0.0
C461 C 0.19485 0.85779 0.27693 0.0
Tb462 Tb 0.86689 0.70045 0.69634 0.0
C463 C 0.84769 0.61902 0.68936 0.0
Tb464 Tb 0.79683 0.643 0.68085 0.0
O465 O 0.86197 0.71304 0.75958 0.0
O466 O 0.8334 0.66278 0.73083 0.0
O467 O 0.87104 0.65282 0.69345 0.0
C468 C 0.73489 0.60168 0.693 0.0
O469 O 0.81668 0.60898 0.68418 0.0
C470 C 0.82634 0.65958 0.61443 0.0
C471 C 0.81461 0.72196 0.68209 0.0
O472 O 0.75952 0.61324 0.72029 0.0
O473 O 0.74519 0.61289 0.65862 0.0
O474 O 0.80228 0.62862 0.61866 0.0
O475 O 0.8308 0.68007 0.64566 0.0
O476 O 0.79305 0.69011 0.69017 0.0
O477 O 0.84451 0.73034 0.67675 0.0
C478 C 0.92924 0.74726 0.69191 0.0
O479 O 0.91031 0.75214 0.71379 0.0
O480 O 0.91305 0.71598 0.67268 0.0
C481 C 0.8378 0.68214 0.76291 0.0
Tb482 Tb 0.32202 0.17341 0.68922 0.0
C483 C 0.39662 0.23114 0.69361 0.0
Tb484 Tb 0.36934 0.15059 0.67104 0.0
O485 O 0.31822 0.15737 0.75071 0.0
O486 O 0.36014 0.17265 0.72383 0.0
O487 O 0.36659 0.22486 0.68989 0.0
C488 C 0.40941 0.12574 0.6792 0.0
O489 O 0.40304 0.20544 0.69305 0.0
C490 C 0.34228 0.16276 0.60543 0.0
C491 C 0.29646 0.09213 0.67085 0.0
O492 O 0.41377 0.15135 0.65844 0.0
O493 O 0.38229 0.11378 0.69422 0.0
O494 O 0.3699 0.16418 0.60798 0.0
O495 O 0.33019 0.15024 0.63713 0.0
O496 O 0.32666 0.09919 0.67448 0.0
O497 O 0.28911 0.11722 0.66993 0.0
C498 C 0.2849 0.20202 0.6815 0.0
O499 O 0.28049 0.17752 0.70427 0.0
O500 O 0.3107 0.21103 0.6639 0.0
C501 C 0.34594 0.15918 0.7542 0.0
Tb502 Tb 0.82232 0.17009 0.6777 0.0
C503 C 0.84533 0.11378 0.67648 0.0
Tb504 Tb 0.89368 0.1948 0.69451 0.0
O505 O 0.82646 0.18389 0.61515 0.0
O506 O 0.85793 0.17093 0.64335 0.0
O507 O 0.82109 0.11964 0.67997 0.0
C508 C 0.95538 0.22301 0.68038 0.0
O509 O 0.87535 0.13961 0.67564 0.0
C510 C 0.86196 0.18292 0.76068 0.0
C511 C 0.87318 0.25196 0.6954 0.0
O512 O 0.94101 0.19871 0.70424 0.0
O513 O 0.93534 0.23181 0.66594 0.0
O514 O 0.88898 0.18329 0.75861 0.0
O515 O 0.85766 0.19424 0.72846 0.0
O516 O 0.89669 0.24536 0.69097 0.0
O517 O 0.84289 0.22654 0.697 0.0
C518 C 0.75927 0.14103 0.68514 0.0
O519 O 0.77604 0.16744 0.66506 0.0
O520 O 0.77784 0.13032 0.70014 0.0
C521 C 0.85275 0.18314 0.61231 0.0
C522 C 0.34001 0.87612 0.07282 0.0
C523 C 0.31485 0.88345 0.0656 0.0
C524 C 0.35017 0.93315 0.02932 0.0
C525 C 0.37357 0.92272 0.03199 0.0
N526 N 0.38854 0.88069 0.05095 0.0
N527 N 0.29442 0.91679 0.03393 0.0
C528 C 0.36781 0.8931 0.05208 0.0
C529 C 0.31954 0.91156 0.04321 0.0
N530 N 0.33765 0.85354 0.1005 0.0
N531 N 0.35721 0.96365 0.01353 0.0
H532 H 0.27199 0.90192 0.04436 0.0
H533 H 0.29513 0.93426 0.01389 0.0
H534 H 0.37864 0.97909 1.00111 0.0
H535 H 0.34269 0.97471 0.0149 0.0
H536 H 0.35659 0.84993 0.11026 0.0
H537 H 0.3179 0.84118 0.11698 0.0
H538 H 0.38367 0.85703 0.06143 0.0
H539 H 0.40931 0.89222 0.0363 0.0
C540 C 0.16944 0.48021 0.07286 0.0
C541 C 0.16516 0.44603 0.06674 0.0
C542 C 0.11494 0.42602 0.02268 0.0
C543 C 0.12039 0.46066 0.02716 0.0
N544 N 0.15694 0.52238 0.04725 0.0
N545 N 0.13765 0.38842 0.02913 0.0
C546 C 0.14915 0.48834 0.04895 0.0
C547 C 0.13903 0.41949 0.03953 0.0
N548 N 0.19134 0.50422 0.10345 0.0
N549 N 0.08649 0.3993 1.00296 0.0
H550 H 0.15512 0.38302 0.04058 0.0
H551 H 0.12087 0.36933 0.00655 0.0
H552 H 0.06919 0.40354 0.98826 0.0
H553 H 0.07939 0.37289 1.00291 0.0
H554 H 0.193 0.52815 0.11185 0.0
H555 H 0.20553 0.4989 0.1234 0.0
H556 H 0.17916 0.54374 0.05948 0.0
H557 H 0.14245 0.52932 0.03036 0.0
C558 C 0.55365 0.68475 0.00775 0.0
C559 C 0.57981 0.7078 0.03719 0.0
C560 C 0.59489 0.66277 0.04041 0.0
C561 C 0.56343 0.63688 0.02142 0.0
N562 N 0.51449 0.62496 0.98138 0.0
N563 N 0.6353 0.72479 0.05154 0.0
C564 C 0.54318 0.64834 1.0036 0.0
C565 C 0.60372 0.69876 0.04473 0.0
N566 N 0.54369 0.69824 0.9781 0.0
N567 N 0.61586 0.65339 0.05654 0.0
H568 H 0.64223 0.75111 0.05025 0.0
H569 H 0.65439 0.72012 0.0531 0.0
H570 H 0.6112 0.62777 0.05502 0.0
H571 H 0.63711 0.67102 0.07486 0.0
H572 H 0.52652 0.68279 0.95361 0.0
H573 H 0.55676 0.72495 0.97447 0.0
H574 H 0.49752 0.63178 0.9721 0.0
H575 H 0.50731 0.59878 0.97319 0.0
C576 C 0.91613 0.32741 0.01479 0.0
C577 C 0.89703 0.31702 0.9765 0.0
C578 C 0.93244 0.37487 0.95521 0.0
C579 C 0.94939 0.38678 0.99485 0.0
N580 N 0.95557 0.37559 0.06409 0.0
N581 N 0.88254 0.33391 0.91417 0.0
C582 C 0.94074 0.36334 0.02521 0.0
C583 C 0.90387 0.34165 0.94786 0.0
N584 N 0.91127 0.30279 0.04063 0.0
N585 N 0.94444 0.39451 0.92388 0.0
H586 H 0.86074 0.31023 0.90793 0.0
H587 H 0.8849 0.35242 0.89467 0.0
H588 H 0.96648 0.41771 0.92765 0.0
H589 H 0.93468 0.3857 0.89357 0.0
H590 H 0.92635 0.30789 0.06722 0.0
H591 H 0.89345 0.2764 0.03383 0.0
H592 H 0.94812 0.36084 0.08859 0.0
H593 H 0.97407 0.4015 0.0724 0.0
C594 C 0.7159 0.60149 0.9914 0.0
C595 C 0.71753 0.57994 0.95926 0.0
C596 C 0.65907 0.53997 0.95346 0.0
C597 C 0.65761 0.56102 0.98633 0.0
N598 N 0.68252 0.61381 0.03318 0.0
N599 N 0.69225 0.52797 0.91098 0.0
C600 C 0.68549 0.5923 1.00452 0.0
C601 C 0.68946 0.54911 0.94035 0.0
N602 N 0.74371 0.63003 0.01016 0.0
N603 N 0.63118 0.51181 0.93422 0.0
H604 H 0.71394 0.5346 0.89945 0.0
H605 H 0.67361 0.50316 0.89899 0.0
H606 H 0.60864 0.50346 0.94416 0.0
H607 H 0.62978 0.49758 0.90724 0.0
H608 H 0.74505 0.64478 0.03665 0.0
H609 H 0.76619 0.63841 1.00004 0.0
H610 H 0.70104 0.63883 0.04471 0.0
H611 H 0.66072 0.60738 0.0443 0.0
C612 C 0.48427 0.13217 0.94142 0.0
C613 C 0.46476 0.14036 0.96454 0.0
C614 C 0.46181 0.09901 0.01267 0.0
C615 C 0.47936 0.08898 0.98783 0.0
N616 N 0.50138 0.09083 0.92402 0.0
N617 N 0.43138 0.12883 0.01901 0.0
C618 C 0.48905 0.10422 0.95101 0.0
C619 C 0.45244 0.12292 0.99928 0.0
N620 N 0.49888 0.15164 0.91067 0.0
N621 N 0.45524 0.08679 0.0498 0.0
H622 H 0.42473 0.14675 0.01051 0.0
H623 H 0.41877 0.1143 0.04181 0.0
H624 H 0.46185 0.06946 0.06063 0.0
H625 H 0.44553 0.09582 0.07124 0.0
H626 H 0.51641 0.14973 0.89595 0.0
H627 H 0.49553 0.17186 0.9019 0.0
H628 H 0.50524 0.09788 0.89461 0.0
H629 H 0.50488 0.07012 0.92944 0.0
C630 C 0.69231 0.14358 0.03026 0.0
C631 C 0.69487 0.16483 0.99871 0.0
C632 C 0.63607 0.1323 0.98307 0.0
C633 C 0.63349 0.1102 0.01347 0.0
N634 N 0.65893 0.08998 0.06062 0.0
N635 N 0.67022 0.17323 0.93826 0.0
C636 C 0.6616 0.1142 0.03523 0.0
C637 C 0.66699 0.15707 0.97289 0.0
N638 N 0.71879 0.15252 0.05678 0.0
N639 N 0.60905 0.13064 0.96493 0.0
H640 H 0.69267 0.19107 0.92964 0.0
H641 H 0.65103 0.16629 0.9162 0.0
H642 H 0.58577 0.1121 0.97034 0.0
H643 H 0.60984 0.14923 0.94657 0.0
H644 H 0.71778 0.14059 0.08316 0.0
H645 H 0.74164 0.17348 0.05379 0.0
H646 H 0.67864 0.08937 0.07424 0.0
H647 H 0.63674 0.06876 0.06559 0.0
C648 C 0.88669 0.53926 0.0395 0.0
C649 C 0.87515 0.54017 0.9994 0.0
C650 C 0.9202 0.53803 0.97253 0.0
C651 C 0.93097 0.53537 0.01258 0.0
N652 N 0.93061 0.54434 0.08497 0.0
N653 N 0.88449 0.54918 0.92947 0.0
C654 C 0.91605 0.53932 0.04636 0.0
C655 C 0.89326 0.54269 0.96656 0.0
N656 N 0.86898 0.5373 0.0708 0.0
N657 N 0.93414 0.53382 0.9397 0.0
H658 H 0.86406 0.55109 0.92329 0.0
H659 H 0.89881 0.55561 0.90566 0.0
H660 H 0.95516 0.53285 0.94178 0.0
H661 H 0.92396 0.52949 0.9097 0.0
H662 H 0.87364 0.53191 0.09976 0.0
H663 H 0.84854 0.53962 0.06722 0.0
H664 H 0.92256 0.55052 0.11085 0.0
H665 H 0.95275 0.54585 0.09092 0.0
C666 C 0.5093 0.37684 0.94659 0.0
C667 C 0.50378 0.35634 0.97955 0.0
C668 C 0.49423 0.39752 0.021 0.0
C669 C 0.50512 0.42078 0.99057 0.0
N670 N 0.52262 0.43316 0.924 0.0
N671 N 0.49021 0.34582 0.04787 0.0
C672 C 0.5121 0.41036 0.95297 0.0
C673 C 0.49542 0.36599 0.01649 0.0
N674 N 0.51189 0.36409 0.90925 0.0
N675 N 0.48321 0.4059 0.05435 0.0
H676 H 0.48965 0.32196 0.04489 0.0
H677 H 0.48778 0.35322 0.07724 0.0
H678 H 0.48263 0.42907 0.05865 0.0
H679 H 0.47237 0.38894 0.07613 0.0
H680 H 0.51311 0.37608 0.88289 0.0
H681 H 0.51001 0.33966 0.90391 0.0
H682 H 0.53187 0.42923 0.898 0.0
H683 H 0.52349 0.45716 0.92692 0.0
C684 C 0.14405 0.6502 0.07233 0.0
C685 C 0.15531 0.66805 0.03759 0.0
C686 C 0.10924 0.62005 0.99382 0.0
C687 C 0.09834 0.60194 0.02847 0.0
N688 N 0.10041 0.60262 0.10141 0.0
N689 N 0.14589 0.6746 0.96737 0.0
C690 C 0.11413 0.61804 0.06802 0.0
C691 C 0.13686 0.65444 0.99895 0.0
N692 N 0.16278 0.66312 0.10901 0.0
N693 N 0.09379 0.60382 0.95597 0.0
H694 H 0.16605 0.69987 0.97053 0.0
H695 H 0.13217 0.66769 0.93922 0.0
H696 H 0.07273 0.57925 0.95141 0.0
H697 H 0.10252 0.61377 0.929 0.0
H698 H 0.15807 0.64919 0.13429 0.0
H699 H 0.18427 0.68727 0.1137 0.0
H700 H 0.10902 0.61448 0.13117 0.0
H701 H 0.07859 0.57903 0.09919 0.0
C702 C 0.38101 0.49517 0.10565 0.0
C703 C 0.35492 0.49046 0.0787 0.0
C704 C 0.38031 0.48154 0.02107 0.0
C705 C 0.4089 0.4929 0.04749 0.0
N706 N 0.43805 0.51781 0.1147 0.0
N707 N 0.33036 0.48174 0.00991 0.0
C708 C 0.40964 0.50118 0.08986 0.0
C709 C 0.3545 0.48394 0.0361 0.0
N710 N 0.37856 0.49442 0.14647 0.0
N711 N 0.37757 0.46781 0.98193 0.0
H712 H 0.31092 0.48307 0.01972 0.0
H713 H 0.33082 0.48107 0.97849 0.0
H714 H 0.39571 0.46488 0.97029 0.0
H715 H 0.35619 0.45611 0.96245 0.0
H716 H 0.39581 0.49451 0.16714 0.0
H717 H 0.35766 0.48984 0.15887 0.0
H718 H 0.43989 0.52766 0.14473 0.0
H719 H 0.46033 0.52583 0.10439 0.0
C720 C 0.53211 0.88068 1.00104 0.0
C721 C 0.53121 0.87141 0.04139 0.0
C722 C 0.53198 0.92519 0.06637 0.0
C723 C 0.52789 0.93147 0.02551 0.0
N724 N 0.52439 0.91628 0.95366 0.0
N725 N 0.53026 0.88412 0.11282 0.0
C726 C 0.52849 0.90976 0.99273 0.0
C727 C 0.53168 0.89381 0.07428 0.0
N728 N 0.53638 0.86147 0.97083 0.0
N729 N 0.53614 0.94932 0.09755 0.0
H730 H 0.5315 0.8622 0.11985 0.0
H731 H 0.5264 0.89668 0.13753 0.0
H732 H 0.53626 0.97238 0.09276 0.0
H733 H 0.54204 0.94807 0.12793 0.0
H734 H 0.53993 0.86821 0.94131 0.0
H735 H 0.53901 0.84007 0.97624 0.0
H736 H 0.52092 0.89941 0.92807 0.0
H737 H 0.52304 0.93818 0.9468 0.0
C738 C 0.9786 0.19696 0.37474 0.0
C739 C 0.97767 0.19104 0.41628 0.0
C740 C 0.03369 0.23856 0.43161 0.0
C741 C 0.03599 0.24153 0.3894 0.0
N742 N 0.01194 0.21796 0.31994 0.0
N743 N 1.00671 0.20021 0.48228 0.0
C744 C 1.00877 0.21934 0.3606 0.0
C745 C 1.00592 0.21009 0.44419 0.0
N746 N 0.95069 0.18162 0.34893 0.0
N747 N 0.05724 0.2637 0.45992 0.0
H748 H 0.98729 0.1784 0.49208 0.0
H749 H 0.02778 0.21124 0.50228 0.0
H750 H 0.07704 0.28639 0.45232 0.0
H751 H 0.05509 0.26412 0.491 0.0
H752 H 0.94958 0.18794 0.31934 0.0
H753 H 0.9282 0.16487 0.35825 0.0
H754 H 0.99352 0.19969 0.29819 0.0
H755 H 0.03383 0.23236 0.30819 0.0
C756 C 0.79265 0.7468 0.39319 0.0
C757 C 0.82187 0.77447 0.41443 0.0
C758 C 0.80391 0.81594 0.40169 0.0
C759 C 0.77299 0.78756 0.38565 0.0
N760 N 0.73599 0.72475 0.37531 0.0
N761 N 0.85219 0.8341 0.44692 0.0
C762 C 0.76675 0.75258 0.38376 0.0
C763 C 0.82663 0.80872 0.42107 0.0
N764 N 0.78983 0.71526 0.3811 0.0
N765 N 0.81228 0.84978 0.39687 0.0
H766 H 0.86889 0.8296 0.46275 0.0
H767 H 0.85483 0.85846 0.45582 0.0
H768 H 0.79728 0.85629 0.38041 0.0
H769 H 0.83554 0.87102 0.40496 0.0
H770 H 0.77008 0.6954 0.36218 0.0
H771 H 0.8086 0.71032 0.38642 0.0
H772 H 0.73006 0.69889 0.37756 0.0
H773 H 0.71592 0.72753 0.3706 0.0
C774 C 0.27174 0.0311 0.37929 0.0
C775 C 0.25126 0.04278 0.36408 0.0
C776 C 0.21668 0.98486 0.32524 0.0
C777 C 0.23168 0.97089 0.34999 0.0
N778 N 0.2752 0.98263 0.40174 0.0
N779 N 0.22461 0.03759 0.29803 0.0
C780 C 0.26012 0.99458 0.37673 0.0
C781 C 0.22902 0.02174 0.32976 0.0
N782 N 0.30342 0.05487 0.3914 0.0
N783 N 0.19108 0.96331 0.29707 0.0
H784 H 0.23845 0.06476 0.29766 0.0
H785 H 0.2111 0.02386 0.27041 0.0
H786 H 0.18286 0.93667 0.29043 0.0
H787 H 0.17728 0.9719 0.28165 0.0
H788 H 0.32034 0.04762 0.39912 0.0
H789 H 0.31315 0.08154 0.38834 0.0
H790 H 0.29384 0.99913 0.42435 0.0
H791 H 0.26741 0.95625 0.40292 0.0
C792 C 0.55915 0.65753 0.34384 0.0
C793 C 0.54477 0.65089 0.30303 0.0
C794 C 0.58841 0.70764 0.28846 0.0
C795 C 0.60063 0.71639 0.33007 0.0
N796 N 0.59613 0.70132 0.39887 0.0
N797 N 0.54103 0.67426 0.24034 0.0
C798 C 0.58561 0.69176 0.35833 0.0
C799 C 0.55804 0.67736 0.27647 0.0
N800 N 0.54809 0.63104 0.36826 0.0
N801 N 0.60645 0.72751 0.26005 0.0
H802 H 0.51745 0.65377 0.23214 0.0
H803 H 0.54876 0.69409 0.2212 0.0
H804 H 0.62985 0.74853 0.26774 0.0
H805 H 0.59977 0.72042 0.22882 0.0
H806 H 0.55955 0.63322 0.39692 0.0
H807 H 0.5286 0.60596 0.35859 0.0
H808 H 0.58418 0.68586 0.42142 0.0
H809 H 0.61579 0.72588 0.41008 0.0
C810 C 0.39069 0.93608 0.34748 0.0
C811 C 0.39134 0.93258 0.30467 0.0
C812 C 0.33472 0.91606 0.29428 0.0
C813 C 0.33272 0.91397 0.33676 0.0
N814 N 0.35829 0.91972 0.40398 0.0
N815 N 0.36145 0.91098 0.23759 0.0
C816 C 0.36058 0.92323 0.36347 0.0
C817 C 0.36274 0.92052 0.27805 0.0
N818 N 0.41895 0.95238 0.37269 0.0
N819 N 0.31016 0.91405 0.26912 0.0
H820 H 0.38088 0.91231 0.22425 0.0
H821 H 0.34004 0.89818 0.21807 0.0
H822 H 0.28904 0.91101 0.27904 0.0
H823 H 0.31213 0.91893 0.23876 0.0
H824 H 0.42036 0.9586 0.40387 0.0
H825 H 0.44138 0.9627 0.36177 0.0
H826 H 0.37702 0.92243 0.42422 0.0
H827 H 0.3369 0.91183 0.41693 0.0
C828 C 0.16122 0.48004 0.32759 0.0
C829 C 0.12951 0.47412 0.32042 0.0
C830 C 0.1081 0.41378 0.33727 0.0
C831 C 0.1402 0.42098 0.34822 0.0
N832 N 0.19564 0.46634 0.36854 0.0
N833 N 0.07353 0.43852 0.33047 0.0
C834 C 0.16624 0.45584 0.34809 0.0
C835 C 0.10319 0.44204 0.32928 0.0
N836 N 0.18651 0.50773 0.31326 0.0
N837 N 0.08237 0.38023 0.33128 0.0
H838 H 0.06919 0.45884 0.32548 0.0
H839 H 0.05429 0.41683 0.3407 0.0
H840 H 0.0839 0.35787 0.33331 0.0
H841 H 0.0595 0.37428 0.31925 0.0
H842 H 0.2095 0.51101 0.31498 0.0
H843 H 0.18382 0.52493 0.29562 0.0
H844 H 0.21466 0.49228 0.37136 0.0
H845 H 0.19955 0.45037 0.38707 0.0
C846 C 0.31536 0.47818 0.27071 0.0
C847 C 0.3432 0.49592 0.2995 0.0
C848 C 0.31466 0.45349 0.34765 0.0
C849 C 0.2856 0.4392 0.32121 0.0
N850 N 0.25729 0.44164 0.25978 0.0
N851 N 0.36866 0.50287 0.36728 0.0
C852 C 0.28569 0.45217 0.28304 0.0
C853 C 0.34281 0.48403 0.3384 0.0
N854 N 0.31736 0.4863 0.23149 0.0
N855 N 0.31557 0.43738 0.38113 0.0
H856 H 0.38985 0.52509 0.36167 0.0
H857 H 0.36828 0.49797 0.39763 0.0
H858 H 0.29556 0.41473 0.38853 0.0
H859 H 0.33677 0.44441 0.39931 0.0
H860 H 0.29875 0.47207 0.2081 0.0
H861 H 0.33876 0.50527 0.22157 0.0
H862 H 0.25569 0.45377 0.23455 0.0
H863 H 0.23487 0.42327 0.26783 0.0
C864 C 0.55001 0.87205 0.28554 0.0
C865 C 0.52643 0.86409 0.31275 0.0
C866 C 0.5612 0.86009 0.36663 0.0
C867 C 0.58237 0.86247 0.33773 0.0
N868 N 0.59723 0.87049 0.26904 0.0
N869 N 0.50868 0.85062 0.37902 0.0
C870 C 0.57729 0.86913 0.2972 0.0
C871 C 0.5319 0.85843 0.35341 0.0
N872 N 0.54621 0.88228 0.24846 0.0
N873 N 0.56976 0.8606 0.40696 0.0
H874 H 0.48773 0.85124 0.37115 0.0
H875 H 0.50931 0.84184 0.40728 0.0
H876 H 0.59159 0.8629 0.4177 0.0
H877 H 0.55692 0.86222 0.43018 0.0
H878 H 0.56422 0.89253 0.22918 0.0
H879 H 0.52581 0.88312 0.23803 0.0
H880 H 0.59189 0.86963 0.23789 0.0
H881 H 0.61855 0.87063 0.27603 0.0
C882 C 0.1625 0.70205 0.37156 0.0
C883 C 0.17242 0.69154 0.33669 0.0
C884 C 0.1816 0.74452 0.30665 0.0
C885 C 0.17721 0.75779 0.34424 0.0
N886 N 0.16178 0.74922 0.4121 0.0
N887 N 0.19143 0.70208 0.27069 0.0
C888 C 0.1666 0.7363 0.37641 0.0
C889 C 0.18156 0.71238 0.30385 0.0
N890 N 0.14923 0.67914 0.39991 0.0
N891 N 0.18487 0.76228 0.27337 0.0
H892 H 0.19023 0.67791 0.26678 0.0
H893 H 0.20227 0.71809 0.24808 0.0
H894 H 0.18357 0.78507 0.2743 0.0
H895 H 0.18556 0.75278 0.24414 0.0
H896 H 0.13895 0.68368 0.42446 0.0
H897 H 0.14614 0.65404 0.397 0.0
H898 H 0.15784 0.73686 0.43856 0.0
H899 H 0.16295 0.77334 0.41575 0.0
C900 C 0.80775 0.96621 0.35115 0.0
C901 C 0.81656 0.98255 0.39183 0.0
C902 C 0.76019 0.94813 0.40508 0.0
C903 C 0.75319 0.92661 0.36809 0.0
N904 N 0.76894 0.91615 0.30379 0.0
N905 N 0.80141 0.98802 0.45879 0.0
C906 C 0.77654 0.93627 0.34023 0.0
C907 C 0.79275 0.97372 0.41903 0.0
N908 N 0.82916 0.97962 0.32304 0.0
N909 N 0.73577 0.94413 0.4268 0.0
H910 H 0.82502 1.00657 0.47047 0.0
H911 H 0.7856 0.97942 0.48098 0.0
H912 H 0.71167 0.92649 0.41638 0.0
H913 H 0.73913 0.96094 0.45245 0.0
H914 H 0.82337 0.97077 0.29212 0.0
H915 H 0.85202 1.00187 0.33014 0.0
H916 H 0.7858 0.91887 0.28412 0.0
H917 H 0.74554 0.89575 0.29392 0.0
C918 C 0.01853 0.81308 0.35555 0.0
C919 C 0.01546 0.81572 0.39768 0.0
C920 C 0.06825 0.82144 0.41375 0.0
C921 C 0.07362 0.82504 0.3722 0.0
N922 N 0.05466 0.8263 0.30339 0.0
N923 N 0.03678 0.82235 0.46746 0.0
C924 C 0.04874 0.82066 0.34283 0.0
C925 C 0.04002 0.81943 0.42695 0.0
N926 N 0.99265 0.80394 0.3278 0.0
N927 N 0.08976 0.81903 0.44031 0.0
H928 H 0.01558 0.81885 0.47799 0.0
H929 H 0.05544 0.82981 0.49051 0.0
H930 H 0.11013 0.81919 0.43141 0.0
H931 H 0.08597 0.81347 0.47019 0.0
H932 H 0.9922 0.7982 0.29673 0.0
H933 H 0.97046 0.79891 0.33633 0.0
H934 H 0.03882 0.82757 0.28169 0.0
H935 H 0.07653 0.83251 0.29281 0.0
C936 C 0.16913 0.20229 0.39202 0.0
C937 C 0.1861 0.19471 0.364 0.0
C938 C 0.1977 0.24778 0.33168 0.0
C939 C 0.17736 0.25309 0.35703 0.0
N940 N 0.13852 0.22971 0.40649 0.0
N941 N 0.21479 0.20804 0.30501 0.0
C942 C 0.1616 0.22875 0.38572 0.0
C943 C 0.20032 0.21714 0.33354 0.0
N944 N 0.16064 0.18444 0.42555 0.0
N945 N 0.21362 0.27117 0.30473 0.0
H946 H 0.21789 0.18647 0.30633 0.0
H947 H 0.22216 0.22051 0.27891 0.0
H948 H 0.20923 0.29107 0.29796 0.0
H949 H 0.23204 0.27155 0.28978 0.0
H950 H 0.15116 0.19128 0.44944 0.0
H951 H 0.16618 0.16514 0.43149 0.0
H952 H 0.12217 0.20845 0.42064 0.0
H953 H 0.13451 0.25058 0.40874 0.0
C954 C 0.65618 0.57989 0.73583 0.0
C955 C 0.63626 0.54408 0.72031 0.0
C956 C 0.6779 0.5505 0.677 0.0
C957 C 0.70047 0.58254 0.70088 0.0
N958 N 0.71019 0.62939 0.75198 0.0
N959 N 0.62139 0.5083 0.65629 0.0
C960 C 0.68943 0.59763 0.73024 0.0
C961 C 0.64502 0.53304 0.68467 0.0
N962 N 0.64243 0.5989 0.74733 0.0
N963 N 0.688 0.53558 0.64866 0.0
H964 H 0.59704 0.49798 0.65983 0.0
H965 H 0.62577 0.50134 0.62782 0.0
H966 H 0.71189 0.54712 0.64248 0.0
H967 H 0.6731 0.5104 0.63369 0.0
H968 H 0.65562 0.62587 0.75613 0.0
H969 H 0.61778 0.58888 0.74032 0.0
H970 H 0.70363 0.63924 0.77665 0.0
H971 H 0.73413 0.64508 0.74667 0.0
C972 C 0.48016 0.13378 0.74613 0.0
C973 C 0.4812 0.10428 0.72913 0.0
C974 C 0.43441 0.08811 0.67988 0.0
C975 C 0.43498 0.11909 0.69479 0.0
N976 N 0.45937 0.17312 0.73982 0.0
N977 N 0.46192 0.05501 0.67783 0.0
C978 C 0.45823 0.14249 0.72719 0.0
C979 C 0.459 0.08184 0.69544 0.0
N980 N 0.49954 0.15282 0.78113 0.0
N981 N 0.40997 0.0644 0.65141 0.0
H982 H 0.47884 0.04882 0.68933 0.0
H983 H 0.449 0.04015 0.65047 0.0
H984 H 0.39232 0.06885 0.63827 0.0
H985 H 0.40593 0.03946 0.64253 0.0
H986 H 0.49746 0.17206 0.79792 0.0
H987 H 0.51638 0.14765 0.79532 0.0
H988 H 0.47789 0.19317 0.75994 0.0
H989 H 0.44263 0.17961 0.72855 0.0
C990 C 0.88823 0.33513 0.75664 0.0
C991 C 0.90169 0.36011 0.72827 0.0
C992 C 0.89212 0.31286 0.6764 0.0
C993 C 0.88238 0.28902 0.70624 0.0
N994 N 0.88039 0.28051 0.77742 0.0
N995 N 0.92219 0.37376 0.66325 0.0
C996 C 0.88306 0.301 0.74716 0.0
C997 C 0.90532 0.34927 0.68866 0.0
N998 N 0.87912 0.34334 0.79192 0.0
N999 N 0.88791 0.30063 0.6363 0.0
H1000 H 0.9329 0.40068 0.67165 0.0
H1001 H 0.92816 0.36756 0.63554 0.0
H1002 H 0.87735 0.27398 0.6264 0.0
H1003 H 0.89186 0.31638 0.61278 0.0
H1004 H 0.86647 0.32478 0.81155 0.0
H1005 H 0.88097 0.36751 0.79947 0.0
H1006 H 0.88364 0.28935 0.80823 0.0
H1007 H 0.87887 0.25635 0.77188 0.0
C1008 C 0.23275 0.99612 0.67626 0.0
C1009 C 0.21678 0.98717 0.63603 0.0
C1010 C 0.25715 0.04448 0.61793 0.0
C1011 C 0.27037 0.05526 0.65919 0.0
N1012 N 0.26926 0.0428 0.72895 0.0
N1013 N 0.20951 1.00659 0.57157 0.0
C1014 C 0.2578 0.03146 0.68883 0.0
C1015 C 0.22777 0.01241 0.60766 0.0
N1016 N 0.2246 0.97073 0.70195 0.0
N1017 N 0.27325 0.06424 0.58824 0.0
H1018 H 0.18683 0.98434 0.56359 0.0
H1019 H 0.21527 0.02564 0.55161 0.0
H1020 H 0.29582 0.08692 0.59453 0.0
H1021 H 0.26605 0.05591 0.55728 0.0
H1022 H 0.23741 0.97486 0.73026 0.0
H1023 H 0.20661 0.94463 0.69351 0.0
H1024 H 0.25886 0.02777 0.75248 0.0
H1025 H 0.28787 0.06833 0.73888 0.0
C1026 C 0.01704 0.21857 0.61812 0.0
C1027 C 0.04394 0.25298 0.62822 0.0
C1028 C 0.01197 0.26857 0.67017 0.0
C1029 C 0.98632 0.23308 0.66376 0.0
N1030 N 0.96392 0.17377 0.63198 0.0
N1031 N 0.06844 0.31037 0.66556 0.0
C1032 C 0.98876 0.20789 0.63792 0.0
C1033 C 0.0417 0.27802 0.65441 0.0
N1034 N 0.01844 0.19644 0.58874 0.0
N1035 N 1.00783 0.29329 0.69117 0.0
H1036 H 0.09019 0.31856 0.65344 0.0
H1037 H 0.06973 0.32842 0.68835 0.0
H1038 H 0.98714 0.28709 0.70509 0.0
H1039 H 0.02399 0.32017 0.69287 0.0
H1040 H 0.99877 0.17238 0.57644 0.0
H1041 H 0.0389 0.20342 0.57396 0.0
H1042 H 0.96558 0.15326 0.6177 0.0
H1043 H 0.94174 0.16529 0.64292 0.0
C1044 C 0.8049 0.8025 0.68929 0.0
C1045 C 0.78488 0.79558 0.65242 0.0
C1046 C 0.77813 0.73712 0.64196 0.0
C1047 C 0.8036 0.74695 0.6733 0.0
N1048 N 0.84004 0.78865 0.72932 0.0
N1049 N 0.73432 0.74606 0.62242 0.0
C1050 C 0.81658 0.77952 0.69791 0.0
C1051 C 0.76597 0.75985 0.63618 0.0
N1052 N 0.80846 0.8276 0.71858 0.0
N1053 N 0.76599 0.7067 0.61666 0.0
H1054 H 0.72289 0.76049 0.62667 0.0
H1055 H 0.71879 0.71934 0.61335 0.0
H1056 H 0.77476 0.68959 0.61852 0.0
H1057 H 0.74918 0.70041 0.59146 0.0
H1058 H 0.82018 0.83187 0.7477 0.0
H1059 H 0.79588 0.84089 0.71506 0.0
H1060 H 0.85284 0.81371 0.74519 0.0
H1061 H 0.8479 0.77177 0.73803 0.0
C1062 C 0.01863 0.8128 0.6902 0.0
C1063 C 0.01721 0.83298 0.65929 0.0
C1064 C 0.9583 0.79712 0.65062 0.0
C1065 C 0.95968 0.77586 0.67998 0.0
N1066 N 0.99089 0.75874 0.72188 0.0
N1067 N 0.98662 0.83788 0.60236 0.0
C1068 C 0.98983 0.78206 0.69772 0.0
C1069 C 0.98726 0.82297 0.63701 0.0
N1070 N 0.04698 0.82401 0.7139 0.0
N1071 N 0.92941 0.79342 0.63651 0.0
H1072 H 1.00757 0.85633 0.59105 0.0
H1073 H 0.9657 0.8293 0.58273 0.0
H1074 H 0.90734 0.77379 0.6441 0.0
H1075 H 0.92752 0.81111 0.61894 0.0
H1076 H 0.04871 0.81262 0.73977 0.0
H1077 H 0.06851 0.84632 0.70944 0.0
H1078 H 0.01221 0.7599 0.73242 0.0
H1079 H 0.97016 0.73655 0.72873 0.0
C1080 C 0.22185 0.22457 0.70495 0.0
C1081 C 0.2067 0.22054 0.66527 0.0
C1082 C 0.2487 0.21414 0.63518 0.0
C1083 C 0.26234 0.21522 0.67507 0.0
N1084 N 0.26868 0.23258 0.74687 0.0
N1085 N 0.20955 0.22089 0.59299 0.0
C1086 C 0.25103 0.22406 0.70967 0.0
C1087 C 0.22161 0.21872 0.63051 0.0
N1088 N 0.20754 0.22753 0.73801 0.0
N1089 N 0.26007 0.20638 0.60177 0.0
H1090 H 0.18906 0.22291 0.58827 0.0
H1091 H 0.22118 0.22359 0.56696 0.0
H1092 H 0.28119 0.20557 0.60301 0.0
H1093 H 0.24801 0.19952 0.5725 0.0
H1094 H 0.21489 0.22604 0.76769 0.0
H1095 H 0.18727 0.2302 0.73547 0.0
H1096 H 0.26334 0.24204 0.77296 0.0
H1097 H 0.29066 0.23341 0.7508 0.0
C1098 C 0.84315 0.03345 0.62418 0.0
C1099 C 0.84077 0.01457 0.65803 0.0
C1100 C 0.83169 0.05566 0.70059 0.0
C1101 C 0.83882 0.07725 0.66845 0.0
N1102 N 0.85073 0.08714 0.59934 0.0
N1103 N 0.83194 1.00617 0.7281 0.0
C1104 C 0.84398 0.06601 0.62997 0.0
C1105 C 0.83428 0.02497 0.69602 0.0
N1106 N 0.84457 0.02012 0.58652 0.0
N1107 N 0.82293 0.06484 0.7356 0.0
H1108 H 0.83219 0.98275 0.72517 0.0
H1109 H 0.83098 0.01418 0.7579 0.0
H1110 H 0.82184 0.08767 0.7403 0.0
H1111 H 0.81463 0.04893 0.75895 0.0
H1112 H 0.84322 0.03059 0.55973 0.0
H1113 H 0.84459 0.99669 0.58148 0.0
H1114 H 0.85879 0.0831 0.5723 0.0
H1115 H 0.84947 0.10992 0.6017 0.0
C1116 C 0.47 0.31006 0.75362 0.0
C1117 C 0.48485 0.32978 0.72139 0.0
C1118 C 0.43664 0.29016 0.6738 0.0
C1119 C 0.42414 0.26754 0.70458 0.0
N1120 N 0.42802 0.25542 0.77395 0.0
N1121 N 0.48302 0.33993 0.651 0.0
C1122 C 0.44041 0.2776 0.74471 0.0
C1123 C 0.46811 0.32053 0.6816 0.0
N1124 N 0.48429 0.32256 0.79274 0.0
N1125 N 0.41851 0.28227 0.63708 0.0
H1126 H 0.50546 0.36299 0.65609 0.0
H1127 H 0.47399 0.33262 0.62039 0.0
H1128 H 0.39573 0.25986 0.63039 0.0
H1129 H 0.42478 0.29898 0.61435 0.0
H1130 H 0.47349 0.3113 0.81822 0.0
H1131 H 0.50608 0.34616 0.80005 0.0
H1132 H 0.44038 0.25868 0.8023 0.0
H1133 H 0.40552 0.23258 0.76906 0.0
C1134 C 0.68773 0.12576 0.74117 0.0
C1135 C 0.66898 0.12877 0.70879 0.0
C1136 C 0.7032 0.12438 0.66026 0.0
C1137 C 0.72558 0.1289 0.6933 0.0
N1138 N 0.73851 0.13142 0.76582 0.0
N1139 N 0.65654 0.12832 0.63718 0.0
C1140 C 0.71732 0.12788 0.73391 0.0
C1141 C 0.67572 0.12663 0.66808 0.0
N1142 N 0.67736 0.12136 0.77894 0.0
N1143 N 0.70825 0.11753 0.6215 0.0
H1144 H 0.63525 0.12797 0.64184 0.0
H1145 H 0.66223 0.13138 0.60739 0.0
H1146 H 0.72784 0.11484 0.61527 0.0
H1147 H 0.69172 0.1112 0.59608 0.0
H1148 H 0.68803 0.1154 0.80304 0.0
H1149 H 0.65621 0.12061 0.78532 0.0
H1150 H 0.73625 0.13666 0.7961 0.0
H1151 H 0.75921 0.13035 0.76246 0.0
C1152 C 0.87969 0.55598 0.67335 0.0
C1153 C 0.86365 0.53221 0.70186 0.0
C1154 C 0.83943 0.56639 0.72397 0.0
C1155 C 0.85578 0.59106 0.69585 0.0
N1156 N 0.89657 0.61248 0.64922 0.0
N1157 N 0.83651 0.52025 0.7621 0.0
C1158 C 0.87786 0.58711 0.67263 0.0
C1159 C 0.8463 0.53936 0.72971 0.0
N1160 N 0.8952 0.54781 0.6455 0.0
N1161 N 0.81636 0.56765 0.7445 0.0
H1162 H 0.84147 0.50039 0.76731 0.0
H1163 H 0.82648 0.5264 0.78585 0.0
H1164 H 0.81282 0.58891 0.74675 0.0
H1165 H 0.79969 0.54652 0.75852 0.0
H1166 H 0.90381 0.56145 0.62043 0.0
H1167 H 0.89788 0.52594 0.64626 0.0
H1168 H 0.91554 0.61294 0.63554 0.0
H1169 H 0.89478 0.63449 0.64555 0.0
C1170 C 0.45685 0.9531 0.16403 0.0
C1171 C 0.46913 0.97588 0.20068 0.0
C1172 C 0.49453 0.02618 0.1609 0.0
C1173 C 0.48808 1.00308 0.12504 0.0
N1174 N 0.46073 0.94269 0.09388 0.0
N1175 N 0.50128 0.03445 0.23488 0.0
C1176 C 0.46857 0.96612 0.12707 0.0
C1177 C 0.48836 0.01259 0.1994 0.0
N1178 N 0.43245 0.91904 0.16391 0.0
N1179 N 0.50469 0.06072 0.15801 0.0
H1180 H 0.49681 0.02533 0.26338 0.0
H1181 H 0.51831 0.06108 0.23598 0.0
H1182 H 0.50597 0.07076 0.13014 0.0
H1183 H 0.50744 0.07813 0.18267 0.0
H1184 H 0.41996 0.90234 0.13734 0.0
H1185 H 0.42232 0.90826 0.18997 0.0
H1186 H 0.45466 0.91672 0.09583 0.0
H1187 H 0.45721 0.94843 0.06506 0.0
C1188 C 0.10121 0.51729 0.17248 0.0
C1189 C 0.08489 0.51326 0.20748 0.0
C1190 C 0.03456 0.49425 0.16372 0.0
C1191 C 0.05191 0.50335 0.12918 0.0
N1192 N 0.10244 0.52495 0.10129 0.0
N1193 N 0.03637 0.49929 0.23748 0.0
C1194 C 0.08532 0.51479 0.13371 0.0
C1195 C 0.05156 0.50188 0.20339 0.0
N1196 N 0.13182 0.52284 0.17613 0.0
N1197 N 1.00167 0.47732 0.15832 0.0
H1198 H 0.04787 0.50372 0.26684 0.0
H1199 H 0.01311 0.49502 0.23689 0.0
H1200 H 0.98862 0.47028 0.12956 0.0
H1201 H 0.98724 0.46711 0.18161 0.0
H1202 H 0.14355 0.52172 0.1513 0.0
H1203 H 0.14468 0.52576 0.20406 0.0
H1204 H 0.12749 0.5398 0.10383 0.0
H1205 H 0.09117 0.51938 0.07202 0.0
C1206 C 0.50308 0.52667 0.1822 0.0
C1207 C 0.50205 0.55788 0.18958 0.0
C1208 C 0.53301 0.58165 0.13276 0.0
C1209 C 0.53212 0.54963 0.12256 0.0
N1210 N 0.51222 0.4893 0.13479 0.0
N1211 N 0.50495 0.60817 0.16214 0.0
C1212 C 0.51552 0.52117 0.14617 0.0
C1213 C 0.51334 0.58305 0.16152 0.0
N1214 N 0.49328 0.50303 0.21018 0.0
N1215 N 0.55369 0.61138 0.11667 0.0
H1216 H 0.48869 0.60823 0.18133 0.0
H1217 H 0.51077 0.62576 0.14031 0.0
H1218 H 0.57081 0.61227 0.09882 0.0
H1219 H 0.5567 0.63591 0.12561 0.0
H1220 H 0.49662 0.48158 0.20894 0.0
H1221 H 0.48323 0.50606 0.23595 0.0
H1222 H 0.49749 0.46671 0.14812 0.0
H1223 H 0.52294 0.48499 0.11052 0.0
C1224 C 0.94266 0.46543 0.8635 0.0
C1225 C 0.95746 0.46792 0.82727 0.0
C1226 C 1.01037 0.49366 0.86788 0.0
C1227 C 0.99493 0.48623 0.90391 0.0
N1228 N 0.94747 0.46962 0.93696 0.0
N1229 N 1.00529 0.4864 0.79382 0.0
C1230 C 0.96149 0.47429 0.90189 0.0
C1231 C 0.99143 0.48313 0.82918 0.0
N1232 N 0.91044 0.45403 0.86125 0.0
N1233 N 0.04328 0.51148 0.87109 0.0
H1234 H 0.99234 0.48096 0.76522 0.0
H1235 H 0.02919 0.4934 0.79246 0.0
H1236 H 0.0574 0.52031 0.89922 0.0
H1237 H 0.05666 0.5202 0.84663 0.0
H1238 H 0.89875 0.4554 0.88594 0.0
H1239 H 0.89513 0.44449 0.83416 0.0
H1240 H 0.92282 0.45549 0.939 0.0
H1241 H 0.96146 0.48135 0.96447 0.0
C1242 C 0.52583 0.49529 0.83326 0.0
C1243 C 0.55973 0.51241 0.83164 0.0
C1244 C 0.56694 0.5507 0.89275 0.0
C1245 C 0.53463 0.52829 0.89966 0.0
N1246 N 0.48327 0.4759 0.87712 0.0
N1247 N 0.61301 0.5524 0.86693 0.0
C1248 C 0.51387 0.4997 0.86996 0.0
C1249 C 0.58054 0.53921 0.86325 0.0
N1250 N 0.505 0.47578 0.79954 0.0
N1251 N 0.58433 0.5835 0.91323 0.0
H1252 H 0.62395 0.54254 0.84848 0.0
H1253 H 0.62842 0.57021 0.89148 0.0
H1254 H 0.57373 0.59357 0.932 0.0
H1255 H 0.60756 0.60172 0.90729 0.0
H1256 H 0.48018 0.46517 0.79843 0.0
H1257 H 0.51277 0.47371 0.77142 0.0
H1258 H 0.46864 0.45261 0.85816 0.0
H1259 H 0.47348 0.47787 0.90354 0.0
C1260 C 0.48978 0.01725 0.82795 0.0
C1261 C 0.52022 0.04803 0.82714 0.0
C1262 C 0.53766 0.03593 0.89216 0.0
C1263 C 0.50537 0.01167 0.89765 0.0
N1264 N 0.44889 0.98565 0.87127 0.0
N1265 N 0.57161 0.09049 0.86545 0.0
C1266 C 0.48075 1.0037 0.86563 0.0
C1267 C 0.54402 0.05844 0.86105 0.0
N1268 N 0.46957 1.00064 0.79294 0.0
N1269 N 0.56218 0.03696 0.916 0.0
H1270 H 0.57541 0.11016 0.8471 0.0
H1271 H 0.58898 0.09891 0.8904 0.0
H1272 H 0.55766 0.01805 0.93588 0.0
H1273 H 0.58633 0.053 0.9117 0.0
H1274 H 0.44805 0.97676 0.79214 0.0
H1275 H 0.47622 1.00852 0.76438 0.0
H1276 H 0.43089 0.98206 0.84901 0.0
H1277 H 0.44048 0.97836 0.8992 0.0
C1278 C 0.1441 0.28339 0.50751 0.0
C1279 C 0.13264 0.29982 0.53433 0.0
C1280 C 0.1479 0.3463 0.48866 0.0
C1281 C 0.16293 0.33182 0.46517 0.0
N1282 N 0.18426 0.29271 0.46266 0.0
N1283 N 0.13168 0.35251 0.55494 0.0
C1284 C 0.16413 0.30254 0.47805 0.0
C1285 C 0.13652 0.33279 0.52607 0.0
N1286 N 0.1346 0.2488 0.50862 0.0
N1287 N 0.14548 0.37375 0.47629 0.0
H1288 H 0.12582 0.34499 0.5838 0.0
H1289 H 0.13705 0.37809 0.552 0.0
H1290 H 0.15625 0.38678 0.45162 0.0
H1291 H 0.13136 0.38238 0.48951 0.0
H1292 H 0.14172 0.23542 0.48894 0.0
H1293 H 0.11678 0.23251 0.52604 0.0
H1294 H 0.18812 0.2738 0.47473 0.0
H1295 H 0.19887 0.30494 0.4402 0.0
C1296 C 0.73687 0.81609 0.50278 0.0
C1297 C 0.74261 0.83951 0.53775 0.0
C1298 C 0.71032 0.85967 0.50166 0.0
C1299 C 0.70091 0.83302 0.46836 0.0
N1300 N 0.69674 0.77717 0.4481 0.0
N1301 N 0.7237 0.87315 0.57445 0.0
C1302 C 0.71159 0.80852 0.47199 0.0
C1303 C 0.72568 0.85783 0.53852 0.0
N1304 N 0.75585 0.8018 0.498 0.0
N1305 N 0.70661 0.888 0.49844 0.0
H1306 H 0.73314 0.87079 0.60252 0.0
H1307 H 0.70932 0.88439 0.57655 0.0
H1308 H 0.69868 0.89361 0.47175 0.0
H1309 H 0.71585 0.90886 0.52147 0.0
H1310 H 0.75373 0.78663 0.47134 0.0
H1311 H 0.7757 0.80813 0.51864 0.0
H1312 H 0.70287 0.758 0.45176 0.0
H1313 H 0.67566 0.76839 0.42889 0.0
C1314 C 0.17035 0.86064 0.52581 0.0
C1315 C 0.16232 0.88724 0.52963 0.0
C1316 C 0.18425 0.90779 0.46612 0.0
C1317 C 0.19163 0.88071 0.46102 0.0
N1318 N 0.18785 0.82815 0.48314 0.0
N1319 N 0.15177 0.92799 0.49729 0.0
C1320 C 0.183 0.85575 0.48973 0.0
C1321 C 0.16554 0.90764 0.49728 0.0
N1322 N 0.16731 0.84136 0.55752 0.0
N1323 N 0.19742 0.93545 0.44364 0.0
H1324 H 0.13807 0.92849 0.5201 0.0
H1325 H 0.15113 0.94126 0.47271 0.0
H1326 H 0.2143 0.93847 0.4241 0.0
H1327 H 0.1951 0.95747 0.44848 0.0
H1328 H 0.17608 0.82426 0.55905 0.0
H1329 H 0.15685 0.84362 0.58327 0.0
H1330 H 0.17924 0.80717 0.50062 0.0
H1331 H 0.19915 0.82534 0.45863 0.0
C1332 C 0.65852 0.81632 0.16537 0.0
C1333 C 0.62436 0.79702 0.16227 0.0
C1334 C 0.62711 0.80477 0.23651 0.0
C1335 C 0.66094 0.81835 0.24044 0.0
N1336 N 0.70953 0.83979 0.20757 0.0
N1337 N 0.57601 0.76781 0.19545 0.0
C1338 C 0.67683 0.82498 0.20443 0.0
C1339 C 0.60863 0.78994 0.198 0.0
N1340 N 0.6734 0.82714 0.13104 0.0
N1341 N 0.61249 0.80678 0.26927 0.0
H1342 H 0.56145 0.75579 0.16795 0.0
H1343 H 0.56381 0.75859 0.22079 0.0
H1344 H 0.62594 0.82131 0.2961 0.0
H1345 H 0.58828 0.79939 0.26794 0.0
H1346 H 0.69804 0.84421 0.13126 0.0
H1347 H 0.66066 0.82113 0.1022 0.0
H1348 H 0.72221 0.8408 0.18299 0.0
H1349 H 0.72411 0.85066 0.23522 0.0
C1350 C 0.21289 0.86185 0.16569 0.0
C1351 C 0.23228 0.84624 0.16486 0.0
C1352 C 0.23327 0.84512 0.23892 0.0
C1353 C 0.21184 0.85841 0.23983 0.0
N1354 N 0.18981 0.88946 0.20611 0.0
N1355 N 0.25932 0.82056 0.19956 0.0
C1356 C 0.20391 0.86944 0.20362 0.0
C1357 C 0.24195 0.83718 0.20119 0.0
N1358 N 0.20197 0.86809 0.12986 0.0
N1359 N 0.24736 0.84253 0.27435 0.0
H1360 H 0.26875 0.8171 0.17343 0.0
H1361 H 0.2628 0.80809 0.22328 0.0
H1362 H 0.24623 0.85409 0.30154 0.0
H1363 H 0.26448 0.83493 0.27666 0.0
H1364 H 0.18469 0.87546 0.12732 0.0
H1365 H 0.20858 0.86349 0.10181 0.0
H1366 H 0.18587 0.90118 0.18189 0.0
H1367 H 0.18524 0.89779 0.23369 0.0
C1368 C 0.18931 0.36212 0.18852 0.0
C1369 C 0.18783 0.39278 0.18307 0.0
C1370 C 0.15459 0.38157 0.23894 0.0
C1371 C 0.15852 0.35279 0.24757 0.0
N1372 N 0.18275 0.3178 0.23258 0.0
N1373 N 0.17826 0.43752 0.21191 0.0
C1374 C 0.17723 0.34401 0.22327 0.0
C1375 C 0.17336 0.40431 0.21108 0.0
N1376 N 0.20072 0.34929 0.15954 0.0
N1377 N 0.1323 0.38699 0.25596 0.0
H1378 H 0.19287 0.45553 0.19286 0.0
H1379 H 0.17091 0.44841 0.23462 0.0
H1380 H 0.1168 0.37071 0.27534 0.0
H1381 H 0.12675 0.40568 0.24721 0.0
H1382 H 0.19922 0.32503 0.15945 0.0
H1383 H 0.20948 0.36167 0.13368 0.0
H1384 H 0.19944 0.31323 0.21934 0.0
H1385 H 0.17179 0.30157 0.25501 0.0
C1386 C 0.82269 0.62167 0.84456 0.0
C1387 C 0.80924 0.63396 0.87372 0.0
C1388 C 0.8158 0.67984 0.83051 0.0
C1389 C 0.83073 0.66839 0.80309 0.0
N1390 N 0.86161 0.63978 0.79582 0.0
N1391 N 0.80455 0.68313 0.90025 0.0
C1392 C 0.83852 0.64298 0.81391 0.0
C1393 C 0.80923 0.66565 0.8685 0.0
N1394 N 0.81869 0.5889 0.84407 0.0
N1395 N 0.80743 0.70375 0.82023 0.0
H1396 H 0.8023 0.67511 0.92939 0.0
H1397 H 0.80679 0.70765 0.89882 0.0
H1398 H 0.81251 0.71515 0.79303 0.0
H1399 H 0.79349 0.71021 0.83745 0.0
H1400 H 0.82862 0.57937 0.82359 0.0
H1401 H 0.80247 0.56977 0.86073 0.0
H1402 H 0.86983 0.62339 0.80521 0.0
H1403 H 0.87501 0.65651 0.77495 0.0
C1404 C 0.38573 0.19 0.86433 0.0
C1405 C 0.40616 0.17556 0.86521 0.0
C1406 C 0.37861 0.14235 0.79899 0.0
C1407 C 0.36378 0.16259 0.79426 0.0
N1408 N 0.35743 0.21041 0.82182 0.0
N1409 N 0.42604 0.14305 0.82754 0.0
C1410 C 0.36826 0.18763 0.82685 0.0
C1411 C 0.40368 0.15297 0.83097 0.0
N1412 N 0.38221 0.20507 0.89935 0.0
N1413 N 0.36785 0.11213 0.77404 0.0
H1414 H 0.44669 0.15287 0.84805 0.0
H1415 H 0.42584 0.12818 0.80177 0.0
H1416 H 0.34783 0.10246 0.75241 0.0
H1417 H 0.37631 0.09495 0.77829 0.0
H1418 H 0.36549 0.21326 0.90072 0.0
H1419 H 0.39324 0.20564 0.92775 0.0
H1420 H 0.36314 0.2313 0.84356 0.0
H1421 H 0.34579 0.21096 0.79454 0.0
C1422 C 0.85459 0.18908 0.87526 0.0
C1423 C 0.84026 0.21029 0.87721 0.0
C1424 C 0.82953 0.20163 0.80291 0.0
C1425 C 0.84886 0.18589 0.8002 0.0
N1426 N 0.86811 0.15218 0.83331 0.0
N1427 N 0.81796 0.24077 0.84224 0.0
C1428 C 0.85811 0.176 0.8364 0.0
C1429 C 0.82847 0.21732 0.84091 0.0
N1430 N 0.86569 0.18249 0.91067 0.0
N1431 N 0.81064 0.20005 0.76964 0.0
H1432 H 0.81642 0.25299 0.86919 0.0
H1433 H 0.81351 0.25059 0.8164 0.0
H1434 H 0.80787 0.18532 0.74272 0.0
H1435 H 0.79398 0.20836 0.77055 0.0
H1436 H 0.87958 0.17068 0.91217 0.0
H1437 H 0.86192 0.19016 0.93923 0.0
H1438 H 0.87364 0.14201 0.85794 0.0
H1439 H 0.86748 0.13949 0.80539 0.0
C1440 C 0.3215 0.1575 0.49043 0.0
C1441 C 0.28754 0.13442 0.48654 0.0
C1442 C 0.28882 0.14034 0.56088 0.0
C1443 C 0.32314 0.15879 0.56528 0.0
N1444 N 0.37089 0.19676 0.53491 0.0
N1445 N 0.23927 0.10012 0.51829 0.0
C1446 C 0.33921 0.17073 0.5301 0.0
C1447 C 0.2713 0.12506 0.52182 0.0
N1448 N 0.33686 0.16596 0.4561 0.0
N1449 N 0.27274 0.13933 0.59348 0.0
H1450 H 0.22535 0.08809 0.49038 0.0
H1451 H 0.22714 0.08899 0.54309 0.0
H1452 H 0.28462 0.15424 0.62097 0.0
H1453 H 0.2479 0.12872 0.59157 0.0
H1454 H 0.36175 0.17904 0.45617 0.0
H1455 H 0.32451 0.15832 0.42687 0.0
H1456 H 0.38392 0.20869 0.5111 0.0
H1457 H 0.38332 0.20944 0.5634 0.0
C1458 C 0.91144 0.18994 0.54029 0.0
C1459 C 0.89158 0.16301 0.5083 0.0
C1460 C 0.84415 0.15102 0.54246 0.0
C1461 C 0.86418 0.17928 0.57292 0.0
N1462 N 0.91387 0.23418 0.589 0.0
N1463 N 0.83802 0.12743 0.47248 0.0
C1464 C 0.89687 0.2016 0.56794 0.0
C1465 C 0.85753 0.14653 0.50724 0.0
N1466 N 0.9438 0.20276 0.54655 0.0
N1467 N 0.81298 0.12741 0.54766 0.0
H1468 H 0.84707 0.12533 0.44538 0.0
H1469 H 0.81321 0.11727 0.4694 0.0
H1470 H 0.80216 0.12903 0.57322 0.0
H1471 H 0.79879 0.1044 0.52808 0.0
H1472 H 0.95853 0.22134 0.57087 0.0
H1473 H 0.9552 0.19189 0.53084 0.0
H1474 H 0.93724 0.25261 0.5838 0.0
H1475 H 0.9032 0.24362 0.60852 0.0
C1476 C 0.825 0.68191 0.50454 0.0
C1477 C 0.85665 0.71166 0.50645 0.0
C1478 C 0.86928 0.69408 0.57027 0.0
C1479 C 0.83619 0.67252 0.5742 0.0
N1480 N 0.78114 0.64855 0.54369 0.0
N1481 N 0.90816 0.74856 0.54778 0.0
C1482 C 0.81347 0.66673 0.54081 0.0
C1483 C 0.87891 0.71834 0.54091 0.0
N1484 N 0.80621 0.66766 0.46814 0.0
N1485 N 0.89141 0.69054 0.59358 0.0
H1486 H 0.91422 0.7703 0.53212 0.0
H1487 H 0.92484 0.75352 0.57253 0.0
H1488 H 0.88422 0.67097 0.613 0.0
H1489 H 0.91584 0.70377 0.58961 0.0
H1490 H 0.78381 0.64458 0.46511 0.0
H1491 H 0.81485 0.67655 0.44064 0.0
H1492 H 0.76435 0.64689 0.52088 0.0
H1493 H 0.7712 0.63811 0.56991 0.0
loop_
_geom_bond_atom_site_label_1
_geom_bond_atom_site_label_2
_geom_bond_distance
_geom_bond_site_symmetry_2
_ccdc_geom_bond_type
H0 C1 0.949 . S
C1 H0 0.949 . S
C1 C2 1.395 . S
C1 C3 1.391 . S
C2 C1 1.395 . S
C2 C5 1.390 . S
C3 C1 1.391 . S
C3 C7 1.387 . S
C3 C8 1.491 . S
H4 C5 0.950 . S
C5 C2 1.390 . S
C5 H4 0.950 . S
C5 C6 1.378 . S
C6 C5 1.378 . S
C6 C7 1.409 . S
C7 C3 1.387 . S
C7 C6 1.409 . S
C7 H9 0.951 . S
C8 C3 1.491 . S
C8 C10 1.382 . S
C8 C12 1.404 . S
H9 C7 0.951 . S
C10 C8 1.382 . S
C10 C11 1.390 . S
C10 H15 0.949 . S
C11 C10 1.390 . S
C11 C16 1.399 . S
C12 C8 1.404 . S
C12 H13 0.950 . S
C12 C14 1.375 . S
H13 C12 0.950 . S
C14 C12 1.375 . S
C14 C16 1.382 . S
C14 H18 0.950 . S
H15 C10 0.949 . S
C16 C11 1.399 . S
C16 C14 1.382 . S
C16 H17 0.952 . S
H17 C16 0.952 . S
H18 C14 0.950 . S
H19 C20 0.949 . S
C20 H19 0.949 . S
C20 C21 1.395 . S
C20 C22 1.391 . S
C21 C20 1.395 . S
C21 C24 1.390 . S
C22 C20 1.391 . S
C22 C26 1.387 . S
C22 C27 1.491 . S
H23 C24 0.950 . S
C24 C21 1.390 . S
C24 H23 0.950 . S
C24 C25 1.378 . S
C25 C24 1.378 . S
C25 C26 1.409 . S
C26 C22 1.387 . S
C26 C25 1.409 . S
C26 H28 0.951 . S
C27 C22 1.491 . S
C27 C29 1.382 . S
C27 C31 1.404 . S
H28 C26 0.951 . S
C29 C27 1.382 . S
C29 C30 1.390 . S
C29 H34 0.949 . S
C30 C29 1.390 . S
C30 C35 1.399 1_545 S
C31 C27 1.404 . S
C31 H32 0.950 . S
C31 C33 1.375 . S
H32 C31 0.950 . S
C33 C31 1.375 . S
C33 C35 1.382 1_545 S
C33 H37 0.950 . S
H34 C29 0.949 . S
C35 C30 1.399 1_565 S
C35 C33 1.382 1_565 S
C35 H36 0.952 . S
H36 C35 0.952 . S
H37 C33 0.950 . S
H38 C39 0.949 . S
C39 H38 0.949 . S
C39 C40 1.395 . S
C39 C41 1.391 . S
C40 C39 1.395 . S
C40 C43 1.390 . S
C41 C39 1.391 . S
C41 C45 1.387 . S
C41 C46 1.491 . S
H42 C43 0.950 . S
C43 C40 1.390 . S
C43 H42 0.950 . S
C43 C44 1.378 . S
C44 C43 1.378 . S
C44 C45 1.409 . S
C45 C41 1.387 . S
C45 C44 1.409 . S
C45 H47 0.951 . S
C46 C41 1.491 . S
C46 C48 1.382 . S
C46 C50 1.404 . S
H47 C45 0.951 . S
C48 C46 1.382 . S
C48 C49 1.390 . S
C48 H53 0.949 . S
C49 C48 1.390 . S
C49 C54 1.399 . S
C50 C46 1.404 . S
C50 H51 0.950 . S
C50 C52 1.375 . S
H51 C50 0.950 . S
C52 C50 1.375 . S
C52 C54 1.382 . S
C52 H56 0.950 . S
H53 C48 0.949 . S
C54 C49 1.399 . S
C54 C52 1.382 . S
C54 H55 0.952 1_655 S
H55 C54 0.952 1_455 S
H56 C52 0.950 . S
H57 C58 0.949 . S
C58 H57 0.949 . S
C58 C59 1.395 . S
C58 C60 1.391 . S
C59 C58 1.395 . S
C59 C62 1.390 . S
C60 C58 1.391 . S
C60 C64 1.387 . S
C60 C65 1.491 . S
H61 C62 0.950 . S
C62 C59 1.390 . S
C62 H61 0.950 . S
C62 C63 1.378 . S
C63 C62 1.378 . S
C63 C64 1.409 . S
C64 C60 1.387 . S
C64 C63 1.409 . S
C64 H66 0.951 . S
C65 C60 1.491 . S
C65 C67 1.382 . S
C65 C69 1.404 . S
H66 C64 0.951 . S
C67 C65 1.382 . S
C67 C68 1.390 . S
C67 H72 0.949 . S
C68 C67 1.390 . S
C68 C73 1.399 . S
C69 C65 1.404 . S
C69 H70 0.950 . S
C69 C71 1.375 . S
H70 C69 0.950 . S
C71 C69 1.375 . S
C71 C73 1.382 . S
C71 H75 0.950 . S
H72 C67 0.949 . S
C73 C68 1.399 . S
C73 C71 1.382 . S
C73 H74 0.952 . S
H74 C73 0.952 . S
H75 C71 0.950 . S
H76 C77 0.949 . S
C77 H76 0.949 . S
C77 C78 1.395 . S
C77 C79 1.391 . S
C78 C77 1.395 . S
C78 C81 1.390 . S
C79 C77 1.391 . S
C79 C83 1.387 . S
C79 C84 1.491 . S
H80 C81 0.950 . S
C81 C78 1.390 . S
C81 H80 0.950 . S
C81 C82 1.378 . S
C82 C81 1.378 . S
C82 C83 1.409 . S
C83 C79 1.387 . S
C83 C82 1.409 . S
C83 H85 0.951 . S
C84 C79 1.491 . S
C84 C86 1.382 . S
C84 C88 1.404 . S
H85 C83 0.951 . S
C86 C84 1.382 . S
C86 C87 1.390 . S
C86 H91 0.949 . S
C87 C86 1.390 . S
C87 C92 1.405 1_565 S
C88 C84 1.404 . S
C88 H89 0.950 . S
C88 C90 1.375 . S
H89 C88 0.950 . S
C90 C88 1.375 . S
C90 C92 1.351 1_565 S
C90 H94 0.950 . S
H91 C86 0.949 . S
C92 C87 1.405 1_545 S
C92 C90 1.351 1_545 S
C92 H93 0.977 . S
H93 C92 0.977 . S
H94 C90 0.950 . S
H95 C96 0.949 . S
C96 H95 0.949 . S
C96 C97 1.395 . S
C96 C98 1.391 . S
C97 C96 1.395 . S
C97 C100 1.390 . S
C98 C96 1.391 . S
C98 C102 1.387 . S
C98 C103 1.491 . S
H99 C100 0.950 . S
C100 C97 1.390 . S
C100 H99 0.950 . S
C100 C101 1.378 . S
C101 C100 1.378 . S
C101 C102 1.409 . S
C102 C98 1.387 . S
C102 C101 1.409 . S
C102 H104 0.951 . S
C103 C98 1.491 . S
C103 C105 1.382 . S
C103 C107 1.404 . S
H104 C102 0.951 . S
C105 C103 1.382 . S
C105 C106 1.390 . S
C105 H110 0.949 . S
C106 C105 1.390 . S
C106 C111 1.399 . S
C107 C103 1.404 . S
C107 H108 0.950 . S
C107 C109 1.375 . S
H108 C107 0.950 . S
C109 C107 1.375 . S
C109 C111 1.382 . S
C109 H113 0.950 . S
H110 C105 0.949 . S
C111 C106 1.399 . S
C111 C109 1.382 . S
C111 H112 0.952 . S
H112 C111 0.952 . S
H113 C109 0.950 . S
H114 C115 0.949 . S
C115 H114 0.949 . S
C115 C116 1.395 . S
C115 C117 1.391 . S
C116 C115 1.395 . S
C116 C119 1.390 . S
C117 C115 1.391 . S
C117 C121 1.387 . S
C117 C122 1.491 . S
H118 C119 0.950 . S
C119 C116 1.390 . S
C119 H118 0.950 . S
C119 C120 1.378 . S
C120 C119 1.378 . S
C120 C121 1.409 . S
C121 C117 1.387 . S
C121 C120 1.409 . S
C121 H123 0.951 . S
C122 C117 1.491 . S
C122 C124 1.382 . S
C122 C126 1.404 . S
H123 C121 0.951 . S
C124 C122 1.382 . S
C124 C125 1.390 . S
C124 H129 0.949 . S
C125 C124 1.390 . S
C125 C130 1.399 . S
C126 C122 1.404 . S
C126 H127 0.950 . S
C126 C128 1.375 . S
H127 C126 0.950 . S
C128 C126 1.375 . S
C128 C130 1.382 . S
C128 H132 0.950 . S
H129 C124 0.949 . S
C130 C125 1.399 . S
C130 C128 1.382 . S
C130 H131 0.952 . S
H131 C130 0.952 . S
H132 C128 0.950 . S
H133 C134 0.949 . S
C134 H133 0.949 . S
C134 C135 1.395 . S
C134 C136 1.391 . S
C135 C134 1.395 . S
C135 C138 1.390 . S
C136 C134 1.391 . S
C136 C140 1.387 . S
C136 C141 1.491 . S
H137 C138 0.950 . S
C138 C135 1.390 . S
C138 H137 0.950 . S
C138 C139 1.378 . S
C139 C138 1.378 . S
C139 C140 1.409 . S
C140 C136 1.387 . S
C140 C139 1.409 . S
C140 H142 0.951 . S
C141 C136 1.491 . S
C141 C143 1.382 . S
C141 C145 1.404 . S
H142 C140 0.951 . S
C143 C141 1.382 . S
C143 C144 1.390 . S
C143 H148 0.949 . S
C144 C143 1.390 . S
C144 C149 1.399 . S
C145 C141 1.404 . S
C145 H146 0.950 . S
C145 C147 1.375 . S
H146 C145 0.950 . S
C147 C145 1.375 . S
C147 C149 1.382 . S
C147 H151 0.950 . S
H148 C143 0.949 . S
C149 C144 1.399 . S
C149 C147 1.382 . S
C149 H150 0.952 . S
H150 C149 0.952 . S
H151 C147 0.950 . S
H152 C153 0.949 . S
C153 H152 0.949 . S
C153 C154 1.395 . S
C153 C155 1.391 . S
C154 C153 1.395 . S
C154 C157 1.390 . S
C155 C153 1.391 . S
C155 C159 1.387 . S
C155 C160 1.491 . S
H156 C157 0.950 . S
C157 C154 1.390 . S
C157 H156 0.950 . S
C157 C158 1.378 . S
C158 C157 1.378 . S
C158 C159 1.409 . S
C159 C155 1.387 . S
C159 C158 1.409 . S
C159 H161 0.951 . S
C160 C155 1.491 . S
C160 C162 1.382 . S
C160 C164 1.404 . S
H161 C159 0.951 . S
C162 C160 1.382 . S
C162 C163 1.390 . S
C162 H167 0.949 . S
C163 C162 1.390 . S
C163 C168 1.399 . S
C164 C160 1.404 . S
C164 H165 0.950 . S
C164 C166 1.375 . S
H165 C164 0.950 . S
C166 C164 1.375 . S
C166 C168 1.382 . S
C166 H170 0.950 . S
H167 C162 0.949 . S
C168 C163 1.399 . S
C168 C166 1.382 . S
C168 H169 0.952 . S
H169 C168 0.952 . S
H170 C166 0.950 . S
H171 C172 0.949 . S
C172 H171 0.949 . S
C172 C173 1.395 . S
C172 C174 1.391 . S
C173 C172 1.395 . S
C173 C176 1.390 . S
C174 C172 1.391 . S
C174 C178 1.387 . S
C174 C179 1.491 . S
H175 C176 0.950 . S
C176 C173 1.390 . S
C176 H175 0.950 . S
C176 C177 1.378 . S
C177 C176 1.378 . S
C177 C178 1.409 . S
C178 C174 1.387 . S
C178 C177 1.409 . S
C178 H180 0.951 . S
C179 C174 1.491 . S
C179 C181 1.382 . S
C179 C183 1.404 . S
H180 C178 0.951 . S
C181 C179 1.382 . S
C181 C182 1.390 . S
C181 H186 0.949 . S
C182 C181 1.390 . S
C182 C187 1.399 . S
C183 C179 1.404 . S
C183 H184 0.950 . S
C183 C185 1.375 . S
H184 C183 0.950 . S
C185 C183 1.375 . S
C185 C187 1.382 . S
C185 H189 0.950 . S
H186 C181 0.949 . S
C187 C182 1.399 . S
C187 C185 1.382 . S
C187 H188 0.952 . S
H188 C187 0.952 . S
H189 C185 0.950 . S
H190 C191 0.949 . S
C191 H190 0.949 . S
C191 C192 1.395 . S
C191 C193 1.391 . S
C192 C191 1.395 . S
C192 C195 1.390 . S
C193 C191 1.391 . S
C193 C197 1.387 . S
C193 C198 1.491 . S
H194 C195 0.950 . S
C195 C192 1.390 . S
C195 H194 0.950 . S
C195 C196 1.378 . S
C196 C195 1.378 . S
C196 C197 1.409 . S
C197 C193 1.387 . S
C197 C196 1.409 . S
C197 H199 0.951 1_556 S
C198 C193 1.491 . S
C198 C200 1.382 . S
C198 C202 1.404 1_556 S
H199 C197 0.951 1_554 S
C200 C198 1.382 . S
C200 C201 1.390 1_556 S
C200 H205 0.949 . S
C201 C200 1.390 1_554 S
C201 C206 1.399 . S
C202 C198 1.404 1_554 S
C202 H203 0.950 . S
C202 C204 1.375 . S
H203 C202 0.950 . S
C204 C202 1.375 . S
C204 C206 1.382 . S
C204 H208 0.950 . S
H205 C200 0.949 . S
C206 C201 1.399 . S
C206 C204 1.382 . S
C206 H207 0.952 . S
H207 C206 0.952 . S
H208 C204 0.950 . S
H209 C210 0.949 . S
C210 H209 0.949 . S
C210 C211 1.395 . S
C210 C212 1.391 . S
C211 C210 1.395 . S
C211 C214 1.390 . S
C212 C210 1.391 . S
C212 C216 1.387 . S
C212 C217 1.491 . S
H213 C214 0.950 . S
C214 C211 1.390 . S
C214 H213 0.950 . S
C214 C215 1.378 . S
C215 C214 1.378 . S
C215 C216 1.409 . S
C216 C212 1.387 . S
C216 C215 1.409 . S
C216 H218 0.951 1_556 S
C217 C212 1.491 . S
C217 C219 1.382 . S
C217 C221 1.404 . S
H218 C216 0.951 1_554 S
C219 C217 1.382 . S
C219 C220 1.390 . S
C219 H224 0.949 . S
C220 C219 1.390 . S
C220 C225 1.394 1_556 S
C221 C217 1.404 . S
C221 H222 0.950 . S
C221 C223 1.375 1_556 S
H222 C221 0.950 . S
C223 C221 1.375 1_554 S
C223 C225 1.381 . S
C223 H227 0.950 . S
H224 C219 0.949 . S
C225 C220 1.394 1_554 S
C225 C223 1.381 . S
C225 H226 0.959 . S
H226 C225 0.959 . S
H227 C223 0.950 . S
H228 C229 0.949 . S
C229 H228 0.949 . S
C229 C230 1.395 . S
C229 C231 1.391 . S
C230 C229 1.395 . S
C230 C233 1.390 . S
C231 C229 1.391 . S
C231 C235 1.387 . S
C231 C236 1.491 . S
H232 C233 0.950 . S
C233 C230 1.390 . S
C233 H232 0.950 . S
C233 C234 1.378 . S
C234 C233 1.378 . S
C234 C235 1.409 . S
C235 C231 1.387 . S
C235 C234 1.409 . S
C235 H237 0.951 . S
C236 C231 1.491 . S
C236 C238 1.382 . S
C236 C240 1.404 . S
H237 C235 0.951 . S
C238 C236 1.382 . S
C238 C239 1.390 . S
C238 H243 0.949 . S
C239 C238 1.390 . S
C239 C244 1.399 . S
C240 C236 1.404 . S
C240 H241 0.950 . S
C240 C242 1.376 . S
H241 C240 0.950 . S
C242 C240 1.376 . S
C242 C244 1.382 . S
C242 H246 0.949 1_554 S
H243 C238 0.949 . S
C244 C239 1.399 . S
C244 C242 1.382 . S
C244 H245 0.952 1_554 S
H245 C244 0.952 1_556 S
H246 C242 0.949 1_556 S
H247 C248 0.949 . S
C248 H247 0.949 . S
C248 C249 1.395 . S
C248 C250 1.391 . S
C249 C248 1.395 . S
C249 C252 1.390 . S
C250 C248 1.391 . S
C250 C254 1.387 . S
C250 C255 1.491 . S
H251 C252 0.950 . S
C252 C249 1.390 . S
C252 H251 0.950 . S
C252 C253 1.378 . S
C253 C252 1.378 . S
C253 C254 1.409 . S
C254 C250 1.387 . S
C254 C253 1.409 . S
C254 H256 0.951 . S
C255 C250 1.491 . S
C255 C257 1.382 . S
C255 C259 1.404 . S
H256 C254 0.951 . S
C257 C255 1.382 . S
C257 C258 1.390 . S
C257 H262 0.949 . S
C258 C257 1.390 . S
C258 C263 1.399 . S
C259 C255 1.404 . S
C259 H260 0.950 . S
C259 C261 1.375 . S
H260 C259 0.950 . S
C261 C259 1.375 . S
C261 C263 1.382 . S
C261 H265 0.950 . S
H262 C257 0.949 . S
C263 C258 1.399 . S
C263 C261 1.382 . S
C263 H264 0.952 1_554 S
H264 C263 0.952 1_556 S
H265 C261 0.950 . S
H266 C267 0.949 . S
C267 H266 0.949 . S
C267 C268 1.395 . S
C267 C269 1.391 . S
C268 C267 1.395 . S
C268 C271 1.390 . S
C269 C267 1.391 . S
C269 C273 1.387 . S
C269 C274 1.491 . S
H270 C271 0.950 . S
C271 C268 1.390 . S
C271 H270 0.950 . S
C271 C272 1.378 . S
C272 C271 1.378 . S
C272 C273 1.409 . S
C273 C269 1.387 . S
C273 C272 1.409 . S
C273 H275 0.951 . S
C274 C269 1.491 . S
C274 C276 1.382 . S
C274 C278 1.404 . S
H275 C273 0.951 . S
C276 C274 1.382 . S
C276 C277 1.390 . S
C276 H281 0.949 . S
C277 C276 1.390 . S
C277 C282 1.399 . S
C278 C274 1.404 . S
C278 H279 0.950 . S
C278 C280 1.375 . S
H279 C278 0.950 . S
C280 C278 1.375 . S
C280 C282 1.382 . S
C280 H284 0.950 . S
H281 C276 0.949 . S
C282 C277 1.399 . S
C282 C280 1.382 . S
C282 H283 0.952 . S
H283 C282 0.952 . S
H284 C280 0.950 . S
H285 C286 0.949 . S
C286 H285 0.949 . S
C286 C287 1.395 . S
C286 C288 1.391 . S
C287 C286 1.395 . S
C287 C290 1.390 . S
C288 C286 1.391 . S
C288 C292 1.387 . S
C288 C293 1.491 . S
H289 C290 0.950 . S
C290 C287 1.390 . S
C290 H289 0.950 . S
C290 C291 1.378 . S
C291 C290 1.378 . S
C291 C292 1.409 . S
C292 C288 1.387 . S
C292 C291 1.409 . S
C292 H294 0.951 . S
C293 C288 1.491 . S
C293 C295 1.382 . S
C293 C297 1.404 . S
H294 C292 0.951 . S
C295 C293 1.382 . S
C295 C296 1.390 . S
C295 H300 0.949 . S
C296 C295 1.390 . S
C296 C301 1.399 . S
C297 C293 1.404 . S
C297 H298 0.950 . S
C297 C299 1.375 . S
H298 C297 0.950 . S
C299 C297 1.375 . S
C299 C301 1.382 . S
C299 H303 0.950 . S
H300 C295 0.949 . S
C301 C296 1.399 . S
C301 C299 1.382 . S
C301 H302 0.952 . S
H302 C301 0.952 . S
H303 C299 0.950 . S
H304 C305 0.949 . S
C305 H304 0.949 . S
C305 C306 1.395 . S
C305 C307 1.391 . S
C306 C305 1.395 . S
C306 C309 1.390 . S
C307 C305 1.391 . S
C307 C311 1.387 . S
C307 C312 1.491 . S
H308 C309 0.950 . S
C309 C306 1.390 . S
C309 H308 0.950 . S
C309 C310 1.378 . S
C310 C309 1.378 . S
C310 C311 1.409 . S
C311 C307 1.387 . S
C311 C310 1.409 . S
C311 H313 0.951 . S
C312 C307 1.491 . S
C312 C314 1.382 . S
C312 C316 1.404 . S
H313 C311 0.951 . S
C314 C312 1.382 . S
C314 C315 1.390 . S
C314 H319 0.949 . S
C315 C314 1.390 . S
C315 C320 1.399 . S
C316 C312 1.404 . S
C316 H317 0.950 . S
C316 C318 1.375 . S
H317 C316 0.950 . S
C318 C316 1.375 . S
C318 C320 1.382 . S
C318 H322 0.950 . S
H319 C314 0.949 . S
C320 C315 1.399 . S
C320 C318 1.382 . S
C320 H321 0.952 . S
H321 C320 0.952 . S
H322 C318 0.950 . S
H323 C324 0.949 . S
C324 H323 0.949 . S
C324 C325 1.395 . S
C324 C326 1.391 . S
C325 C324 1.395 . S
C325 C328 1.390 . S
C326 C324 1.391 . S
C326 C330 1.387 . S
C326 C331 1.491 . S
H327 C328 0.950 . S
C328 C325 1.390 . S
C328 H327 0.950 . S
C328 C329 1.378 . S
C329 C328 1.378 . S
C329 C330 1.409 . S
C330 C326 1.387 . S
C330 C329 1.409 . S
C330 H332 0.951 . S
C331 C326 1.491 . S
C331 C333 1.382 . S
C331 C335 1.404 . S
H332 C330 0.951 . S
C333 C331 1.382 . S
C333 C334 1.390 . S
C333 H338 0.949 . S
C334 C333 1.390 . S
C334 C339 1.399 . S
C335 C331 1.404 . S
C335 H336 0.950 . S
C335 C337 1.375 . S
H336 C335 0.950 . S
C337 C335 1.375 . S
C337 C339 1.382 . S
C337 H341 0.950 . S
H338 C333 0.949 . S
C339 C334 1.399 . S
C339 C337 1.382 . S
C339 H340 0.952 . S
H340 C339 0.952 . S
H341 C337 0.950 . S
Tb342 O345 2.453 . S
Tb342 O346 2.596 1_545 S
Tb342 O347 2.374 1_545 S
Tb342 O355 2.343 1_554 S
Tb342 O357 2.353 . S
Tb342 O359 2.427 . S
Tb342 O360 2.513 . S
C343 O347 1.251 . S
C343 O349 1.263 1_554 S
Tb344 O346 2.343 1_556 S
Tb344 O349 2.353 . S
Tb344 O352 2.427 1_556 S
Tb344 O353 2.513 1_556 S
Tb344 O354 2.453 . S
Tb344 O355 2.596 1_565 S
Tb344 O356 2.374 1_565 S
O345 Tb342 2.453 . S
O345 C361 1.245 1_545 S
O346 Tb342 2.596 1_565 S
O346 Tb344 2.343 1_554 S
O346 C361 1.259 . S
O347 Tb342 2.374 1_565 S
O347 C343 1.251 . S
C348 O352 1.275 . S
C348 O353 1.246 . S
O349 C343 1.263 1_556 S
O349 Tb344 2.353 . S
C350 O354 1.245 1_545 S
C350 O355 1.259 . S
C351 O356 1.250 1_554 S
C351 O357 1.263 . S
O352 Tb344 2.427 1_554 S
O352 C348 1.275 . S
O353 Tb344 2.513 1_554 S
O353 C348 1.246 . S
O354 Tb344 2.453 . S
O354 C350 1.245 1_565 S
O355 Tb342 2.343 1_556 S
O355 Tb344 2.596 1_545 S
O355 C350 1.259 . S
O356 Tb344 2.374 1_545 S
O356 C351 1.250 1_556 S
O357 Tb342 2.353 . S
O357 C351 1.263 . S
C358 O359 1.268 1_556 S
C358 O360 1.244 1_556 S
O359 Tb342 2.427 . S
O359 C358 1.268 1_554 S
O360 Tb342 2.513 . S
O360 C358 1.244 1_554 S
C361 O345 1.245 1_565 S
C361 O346 1.259 . S
Tb362 O365 2.468 . S
Tb362 O366 2.596 1_655 S
Tb362 O367 2.374 1_655 S
Tb362 O375 2.343 1_554 S
Tb362 O377 2.353 . S
Tb362 O379 2.422 1_554 S
Tb362 O380 2.513 1_554 S
C363 O367 1.251 . S
C363 O369 1.263 1_554 S
Tb364 O366 2.343 1_556 S
Tb364 O369 2.353 . S
Tb364 O372 2.427 1_556 S
Tb364 O373 2.513 1_556 S
Tb364 O374 2.453 . S
Tb364 O375 2.596 1_455 S
Tb364 O376 2.374 1_455 S
O365 Tb362 2.468 . S
O365 C381 1.217 1_655 S
O366 Tb362 2.596 1_455 S
O366 Tb364 2.343 1_554 S
O366 C381 1.259 . S
O367 Tb362 2.374 1_455 S
O367 C363 1.251 . S
C368 O372 1.275 . S
C368 O373 1.246 . S
O369 C363 1.263 1_556 S
O369 Tb364 2.353 . S
C370 O374 1.245 1_655 S
C370 O375 1.259 . S
C371 O376 1.250 1_554 S
C371 O377 1.263 . S
O372 Tb364 2.427 1_554 S
O372 C368 1.275 . S
O373 Tb364 2.513 1_554 S
O373 C368 1.246 . S
O374 Tb364 2.453 . S
O374 C370 1.245 1_455 S
O375 Tb362 2.343 1_556 S
O375 Tb364 2.596 1_655 S
O375 C370 1.259 . S
O376 Tb364 2.374 1_655 S
O376 C371 1.250 1_556 S
O377 Tb362 2.353 . S
O377 C371 1.263 . S
C378 O379 1.280 . S
C378 O380 1.246 . S
O379 Tb362 2.422 1_556 S
O379 C378 1.280 . S
O380 Tb362 2.513 1_556 S
O380 C378 1.246 . S
C381 O365 1.217 1_455 S
C381 O366 1.259 . S
Tb382 O385 2.453 . S
Tb382 O386 2.596 . S
Tb382 O387 2.374 1_556 S
Tb382 O395 2.343 1_556 S
Tb382 O397 2.353 . S
Tb382 O399 2.427 1_556 S
Tb382 O400 2.513 1_556 S
C383 O387 1.251 . S
C383 O389 1.263 . S
Tb384 O386 2.343 1_554 S
Tb384 O389 2.353 . S
Tb384 O392 2.427 . S
Tb384 O393 2.513 1_554 S
Tb384 O394 2.453 . S
Tb384 O395 2.596 . S
Tb384 O396 2.374 . S
O385 Tb382 2.453 . S
O385 C401 1.245 . S
O386 Tb382 2.596 . S
O386 Tb384 2.343 1_556 S
O386 C401 1.259 . S
O387 Tb382 2.374 1_554 S
O387 C383 1.251 . S
C388 O392 1.275 1_556 S
C388 O393 1.246 . S
O389 C383 1.263 . S
O389 Tb384 2.353 . S
C390 O394 1.245 . S
C390 O395 1.259 . S
C391 O396 1.250 . S
C391 O397 1.263 1_554 S
O392 Tb384 2.427 . S
O392 C388 1.275 1_554 S
O393 Tb384 2.513 1_556 S
O393 C388 1.246 . S
O394 Tb384 2.453 . S
O394 C390 1.245 . S
O395 Tb382 2.343 1_554 S
O395 Tb384 2.596 . S
O395 C390 1.259 . S
O396 Tb384 2.374 . S
O396 C391 1.250 . S
O397 Tb382 2.353 . S
O397 C391 1.263 1_556 S
C398 O399 1.275 . S
C398 O400 1.246 . S
O399 Tb382 2.427 1_554 S
O399 C398 1.275 . S
O400 Tb382 2.513 1_554 S
O400 C398 1.246 . S
C401 O385 1.245 . S
C401 O386 1.259 . S
Tb402 O405 2.453 . S
Tb402 O406 2.596 . S
Tb402 O407 2.374 . S
Tb402 O415 2.343 . S
Tb402 O417 2.353 . S
Tb402 O419 2.427 . S
Tb402 O420 2.513 . S
C403 O407 1.251 . S
C403 O409 1.263 . S
Tb404 O406 2.343 . S
Tb404 O409 2.353 . S
Tb404 O412 2.427 . S
Tb404 O413 2.513 . S
Tb404 O414 2.453 . S
Tb404 O415 2.596 . S
Tb404 O416 2.374 . S
O405 Tb402 2.453 . S
O405 C421 1.245 . S
O406 Tb402 2.596 . S
O406 Tb404 2.343 . S
O406 C421 1.259 . S
O407 Tb402 2.374 . S
O407 C403 1.251 . S
C408 O412 1.275 . S
C408 O413 1.246 . S
O409 C403 1.263 . S
O409 Tb404 2.353 . S
C410 O414 1.245 . S
C410 O415 1.259 . S
C411 O416 1.250 . S
C411 O417 1.263 . S
O412 Tb404 2.427 . S
O412 C408 1.275 . S
O413 Tb404 2.513 . S
O413 C408 1.246 . S
O414 Tb404 2.453 . S
O414 C410 1.245 . S
O415 Tb402 2.343 . S
O415 Tb404 2.596 . S
O415 C410 1.259 . S
O416 Tb404 2.374 . S
O416 C411 1.250 . S
O417 Tb402 2.353 . S
O417 C411 1.263 . S
C418 O419 1.275 . S
C418 O420 1.246 . S
O419 Tb402 2.427 . S
O419 C418 1.275 . S
O420 Tb402 2.513 . S
O420 C418 1.246 . S
C421 O405 1.245 . S
C421 O406 1.259 . S
Tb422 O425 2.453 . S
Tb422 O426 2.596 . S
Tb422 O427 2.374 . S
Tb422 O435 2.343 . S
Tb422 O437 2.353 . S
Tb422 O439 2.427 . S
Tb422 O440 2.513 . S
C423 O427 1.251 . S
C423 O429 1.263 . S
Tb424 O426 2.343 . S
Tb424 O429 2.353 . S
Tb424 O432 2.427 . S
Tb424 O433 2.513 . S
Tb424 O434 2.453 . S
Tb424 O435 2.596 . S
Tb424 O436 2.374 . S
O425 Tb422 2.453 . S
O425 C441 1.245 . S
O426 Tb422 2.596 . S
O426 Tb424 2.343 . S
O426 C441 1.259 . S
O427 Tb422 2.374 . S
O427 C423 1.251 . S
C428 O432 1.275 . S
C428 O433 1.246 . S
O429 C423 1.263 . S
O429 Tb424 2.353 . S
C430 O434 1.245 . S
C430 O435 1.259 . S
C431 O436 1.250 . S
C431 O437 1.263 . S
O432 Tb424 2.427 . S
O432 C428 1.275 . S
O433 Tb424 2.513 . S
O433 C428 1.246 . S
O434 Tb424 2.453 . S
O434 C430 1.245 . S
O435 Tb422 2.343 . S
O435 Tb424 2.596 . S
O435 C430 1.259 . S
O436 Tb424 2.374 . S
O436 C431 1.250 . S
O437 Tb422 2.353 . S
O437 C431 1.263 . S
C438 O439 1.275 . S
C438 O440 1.246 . S
O439 Tb422 2.427 . S
O439 C438 1.275 . S
O440 Tb422 2.513 . S
O440 C438 1.246 . S
C441 O425 1.245 . S
C441 O426 1.259 . S
Tb442 O445 2.453 . S
Tb442 O446 2.596 . S
Tb442 O447 2.374 . S
Tb442 O455 2.343 . S
Tb442 O457 2.353 . S
Tb442 O459 2.427 . S
Tb442 O460 2.513 . S
C443 O447 1.251 . S
C443 O449 1.263 . S
Tb444 O446 2.343 . S
Tb444 O449 2.353 . S
Tb444 O452 2.427 . S
Tb444 O453 2.513 . S
Tb444 O454 2.453 . S
Tb444 O455 2.596 . S
Tb444 O456 2.374 . S
O445 Tb442 2.453 . S
O445 C461 1.245 . S
O446 Tb442 2.596 . S
O446 Tb444 2.343 . S
O446 C461 1.259 . S
O447 Tb442 2.374 . S
O447 C443 1.251 . S
C448 O452 1.275 . S
C448 O453 1.246 . S
O449 C443 1.263 . S
O449 Tb444 2.353 . S
C450 O454 1.245 . S
C450 O455 1.259 . S
C451 O456 1.250 . S
C451 O457 1.263 . S
O452 Tb444 2.427 . S
O452 C448 1.275 . S
O453 Tb444 2.513 . S
O453 C448 1.246 . S
O454 Tb444 2.453 . S
O454 C450 1.245 . S
O455 Tb442 2.343 . S
O455 Tb444 2.596 . S
O455 C450 1.259 . S
O456 Tb444 2.374 . S
O456 C451 1.250 . S
O457 Tb442 2.353 . S
O457 C451 1.263 . S
C458 O459 1.275 . S
C458 O460 1.246 . S
O459 Tb442 2.427 . S
O459 C458 1.275 . S
O460 Tb442 2.513 . S
O460 C458 1.246 . S
C461 O445 1.245 . S
C461 O446 1.259 . S
Tb462 O465 2.453 . S
Tb462 O466 2.596 . S
Tb462 O467 2.374 . S
Tb462 O475 2.343 . S
Tb462 O477 2.353 . S
Tb462 O479 2.427 . S
Tb462 O480 2.513 . S
C463 O467 1.251 . S
C463 O469 1.263 . S
Tb464 O466 2.343 . S
Tb464 O469 2.353 . S
Tb464 O472 2.427 . S
Tb464 O473 2.513 . S
Tb464 O474 2.453 . S
Tb464 O475 2.596 . S
Tb464 O476 2.374 . S
O465 Tb462 2.453 . S
O465 C481 1.245 . S
O466 Tb462 2.596 . S
O466 Tb464 2.343 . S
O466 C481 1.259 . S
O467 Tb462 2.374 . S
O467 C463 1.251 . S
C468 O472 1.275 . S
C468 O473 1.246 . S
O469 C463 1.263 . S
O469 Tb464 2.353 . S
C470 O474 1.245 . S
C470 O475 1.259 . S
C471 O476 1.250 . S
C471 O477 1.263 . S
O472 Tb464 2.427 . S
O472 C468 1.275 . S
O473 Tb464 2.513 . S
O473 C468 1.246 . S
O474 Tb464 2.453 . S
O474 C470 1.245 . S
O475 Tb462 2.343 . S
O475 Tb464 2.596 . S
O475 C470 1.259 . S
O476 Tb464 2.374 . S
O476 C471 1.250 . S
O477 Tb462 2.353 . S
O477 C471 1.263 . S
C478 O479 1.275 . S
C478 O480 1.246 . S
O479 Tb462 2.427 . S
O479 C478 1.275 . S
O480 Tb462 2.513 . S
O480 C478 1.246 . S
C481 O465 1.245 . S
C481 O466 1.259 . S
Tb482 O485 2.453 . S
Tb482 O486 2.596 . S
Tb482 O487 2.374 . S
Tb482 O495 2.343 . S
Tb482 O497 2.353 . S
Tb482 O499 2.427 . S
Tb482 O500 2.513 . S
C483 O487 1.251 . S
C483 O489 1.263 . S
Tb484 O486 2.343 . S
Tb484 O489 2.353 . S
Tb484 O492 2.427 . S
Tb484 O493 2.513 . S
Tb484 O494 2.453 . S
Tb484 O495 2.596 . S
Tb484 O496 2.374 . S
O485 Tb482 2.453 . S
O485 C501 1.245 . S
O486 Tb482 2.596 . S
O486 Tb484 2.343 . S
O486 C501 1.259 . S
O487 Tb482 2.374 . S
O487 C483 1.251 . S
C488 O492 1.275 . S
C488 O493 1.246 . S
O489 C483 1.263 . S
O489 Tb484 2.353 . S
C490 O494 1.245 . S
C490 O495 1.259 . S
C491 O496 1.250 . S
C491 O497 1.263 . S
O492 Tb484 2.427 . S
O492 C488 1.275 . S
O493 Tb484 2.513 . S
O493 C488 1.246 . S
O494 Tb484 2.453 . S
O494 C490 1.245 . S
O495 Tb482 2.343 . S
O495 Tb484 2.596 . S
O495 C490 1.259 . S
O496 Tb484 2.374 . S
O496 C491 1.250 . S
O497 Tb482 2.353 . S
O497 C491 1.263 . S
C498 O499 1.275 . S
C498 O500 1.246 . S
O499 Tb482 2.427 . S
O499 C498 1.275 . S
O500 Tb482 2.513 . S
O500 C498 1.246 . S
C501 O485 1.245 . S
C501 O486 1.259 . S
Tb502 O505 2.453 . S
Tb502 O506 2.596 . S
Tb502 O507 2.374 . S
Tb502 O515 2.343 . S
Tb502 O517 2.353 . S
Tb502 O519 2.427 . S
Tb502 O520 2.513 . S
C503 O507 1.251 . S
C503 O509 1.263 . S
Tb504 O506 2.343 . S
Tb504 O509 2.353 . S
Tb504 O512 2.427 . S
Tb504 O513 2.513 . S
Tb504 O514 2.453 . S
Tb504 O515 2.596 . S
Tb504 O516 2.374 . S
O505 Tb502 2.453 . S
O505 C521 1.245 . S
O506 Tb502 2.596 . S
O506 Tb504 2.343 . S
O506 C521 1.259 . S
O507 Tb502 2.374 . S
O507 C503 1.251 . S
C508 O512 1.275 . S
C508 O513 1.246 . S
O509 C503 1.263 . S
O509 Tb504 2.353 . S
C510 O514 1.245 . S
C510 O515 1.259 . S
C511 O516 1.250 . S
C511 O517 1.263 . S
O512 Tb504 2.427 . S
O512 C508 1.275 . S
O513 Tb504 2.513 . S
O513 C508 1.246 . S
O514 Tb504 2.453 . S
O514 C510 1.245 . S
O515 Tb502 2.343 . S
O515 Tb504 2.596 . S
O515 C510 1.259 . S
O516 Tb504 2.374 . S
O516 C511 1.250 . S
O517 Tb502 2.353 . S
O517 C511 1.263 . S
C518 O519 1.275 . S
C518 O520 1.246 . S
O519 Tb502 2.427 . S
O519 C518 1.275 . S
O520 Tb502 2.513 . S
O520 C518 1.246 . S
C521 O505 1.245 . S
C521 O506 1.259 . S
C522 C523 1.363 . S
C522 C528 1.379 . S
C522 N530 1.356 . S
C523 C522 1.363 . S
C523 C529 1.363 . S
C524 C525 1.363 . S
C524 C529 1.379 . S
C524 N531 1.356 . S
C525 C524 1.363 . S
C525 C528 1.363 . S
N526 C528 1.356 1_556 S
N526 H538 0.984 . S
N526 H539 0.985 . S
N527 C529 1.356 . S
N527 H532 0.984 . S
N527 H533 0.985 . S
C528 C522 1.379 . S
C528 C525 1.363 . S
C528 N526 1.356 1_554 S
C529 C523 1.363 . S
C529 C524 1.379 . S
C529 N527 1.356 . S
N530 C522 1.356 . S
N530 H536 0.984 1_554 S
N530 H537 0.984 . S
N531 C524 1.356 . S
N531 H534 0.984 . S
N531 H535 0.985 . S
H532 N527 0.984 . S
H533 N527 0.985 . S
H534 N531 0.984 . S
H535 N531 0.985 . S
H536 N530 0.984 1_556 S
H537 N530 0.984 . S
H538 N526 0.984 . S
H539 N526 0.985 . S
C540 C541 1.363 . S
C540 C546 1.379 . S
C540 N548 1.356 . S
C541 C540 1.363 . S
C541 C547 1.363 . S
C542 C543 1.363 . S
C542 C547 1.379 . S
C542 N549 1.356 . S
C543 C542 1.363 . S
C543 C546 1.363 . S
N544 C546 1.356 . S
N544 H556 0.984 . S
N544 H557 0.985 . S
N545 C547 1.356 . S
N545 H550 0.984 . S
N545 H551 0.985 . S
C546 C540 1.379 . S
C546 C543 1.363 . S
C546 N544 1.356 . S
C547 C541 1.363 . S
C547 C542 1.379 . S
C547 N545 1.356 . S
N548 C540 1.356 . S
N548 H554 0.984 . S
N548 H555 0.984 . S
N549 C542 1.356 . S
N549 H552 0.984 . S
N549 H553 0.985 . S
H550 N545 0.984 . S
H551 N545 0.985 . S
H552 N549 0.984 . S
H553 N549 0.985 . S
H554 N548 0.984 . S
H555 N548 0.984 . S
H556 N544 0.984 . S
H557 N544 0.985 . S
C558 C559 1.363 . S
C558 C564 1.379 1_554 S
C558 N566 1.356 1_554 S
C559 C558 1.363 . S
C559 C565 1.363 . S
C560 C561 1.363 . S
C560 C565 1.379 . S
C560 N567 1.356 . S
C561 C560 1.363 . S
C561 C564 1.358 1_554 S
N562 C564 1.360 . S
N562 H574 0.984 . S
N562 H575 0.985 . S
N563 C565 1.356 . S
N563 H568 0.984 . S
N563 H569 0.985 . S
C564 C558 1.379 1_556 S
C564 C561 1.358 1_556 S
C564 N562 1.360 . S
C565 C559 1.363 . S
C565 C560 1.379 . S
C565 N563 1.356 . S
N566 C558 1.356 1_556 S
N566 H572 0.984 . S
N566 H573 0.984 . S
N567 C560 1.356 . S
N567 H570 0.984 . S
N567 H571 0.985 . S
H568 N563 0.984 . S
H569 N563 0.985 . S
H570 N567 0.984 . S
H571 N567 0.985 . S
H572 N566 0.984 . S
H573 N566 0.984 . S
H574 N562 0.984 . S
H575 N562 0.985 . S
C576 C577 1.363 1_554 S
C576 C582 1.379 . S
C576 N584 1.356 . S
C577 C576 1.363 1_556 S
C577 C583 1.363 . S
C578 C579 1.363 . S
C578 C583 1.379 . S
C578 N585 1.356 . S
C579 C578 1.363 . S
C579 C582 1.363 1_556 S
N580 C582 1.356 . S
N580 H592 0.984 . S
N580 H593 0.985 . S
N581 C583 1.356 . S
N581 H586 0.984 . S
N581 H587 0.985 . S
C582 C576 1.379 . S
C582 C579 1.363 1_554 S
C582 N580 1.356 . S
C583 C577 1.363 . S
C583 C578 1.379 . S
C583 N581 1.356 . S
N584 C576 1.356 . S
N584 H590 0.984 . S
N584 H591 0.984 . S
N585 C578 1.356 . S
N585 H588 0.984 . S
N585 H589 0.985 . S
H586 N581 0.984 . S
H587 N581 0.985 . S
H588 N585 0.984 . S
H589 N585 0.985 . S
H590 N584 0.984 . S
H591 N584 0.984 . S
H592 N580 0.984 . S
H593 N580 0.985 . S
C594 C595 1.363 . S
C594 C600 1.379 . S
C594 N602 1.356 . S
C595 C594 1.363 . S
C595 C601 1.363 . S
C596 C597 1.363 . S
C596 C601 1.379 . S
C596 N603 1.356 . S
C597 C596 1.363 . S
C597 C600 1.363 . S
N598 C600 1.356 1_554 S
N598 H610 0.984 . S
N598 H611 0.985 . S
N599 C601 1.356 . S
N599 H604 0.984 . S
N599 H605 0.985 . S
C600 C594 1.379 . S
C600 C597 1.363 . S
C600 N598 1.356 1_556 S
C601 C595 1.363 . S
C601 C596 1.379 . S
C601 N599 1.356 . S
N602 C594 1.356 . S
N602 H608 0.984 1_556 S
N602 H609 0.984 . S
N603 C596 1.356 . S
N603 H606 0.984 . S
N603 H607 0.985 . S
H604 N599 0.984 . S
H605 N599 0.985 . S
H606 N603 0.984 . S
H607 N603 0.985 . S
H608 N602 0.984 1_554 S
H609 N602 0.984 . S
H610 N598 0.984 . S
H611 N598 0.985 . S
C612 C613 1.363 . S
C612 C618 1.379 . S
C612 N620 1.356 . S
C613 C612 1.363 . S
C613 C619 1.363 1_556 S
C614 C615 1.363 . S
C614 C619 1.379 . S
C614 N621 1.356 . S
C615 C614 1.363 . S
C615 C618 1.363 1_554 S
N616 C618 1.356 . S
N616 H628 0.984 . S
N616 H629 0.985 . S
N617 C619 1.356 . S
N617 H622 0.984 . S
N617 H623 0.985 . S
C618 C612 1.379 . S
C618 C615 1.363 1_556 S
C618 N616 1.356 . S
C619 C613 1.363 1_554 S
C619 C614 1.379 . S
C619 N617 1.356 . S
N620 C612 1.356 . S
N620 H626 0.984 . S
N620 H627 0.984 . S
N621 C614 1.356 . S
N621 H624 0.984 . S
N621 H625 0.985 . S
H622 N617 0.984 . S
H623 N617 0.985 . S
H624 N621 0.984 . S
H625 N621 0.985 . S
H626 N620 0.984 . S
H627 N620 0.984 . S
H628 N616 0.984 . S
H629 N616 0.985 . S
C630 C631 1.363 1_554 S
C630 C636 1.379 . S
C630 N638 1.356 . S
C631 C630 1.363 1_556 S
C631 C637 1.363 . S
C632 C633 1.363 . S
C632 C637 1.379 . S
C632 N639 1.356 . S
C633 C632 1.363 . S
C633 C636 1.363 1_556 S
N634 C636 1.356 . S
N634 H646 0.984 . S
N634 H647 0.985 . S
N635 C637 1.356 . S
N635 H640 0.984 . S
N635 H641 0.985 . S
C636 C630 1.379 . S
C636 C633 1.363 1_554 S
C636 N634 1.356 . S
C637 C631 1.363 . S
C637 C632 1.379 . S
C637 N635 1.356 . S
N638 C630 1.356 . S
N638 H644 0.984 . S
N638 H645 0.984 . S
N639 C632 1.356 . S
N639 H642 0.984 . S
N639 H643 0.985 . S
H640 N635 0.984 . S
H641 N635 0.985 . S
H642 N639 0.984 . S
H643 N639 0.985 . S
H644 N638 0.984 . S
H645 N638 0.984 . S
H646 N634 0.984 . S
H647 N634 0.985 . S
C648 C649 1.345 1_554 S
C648 C654 1.379 . S
C648 N656 1.371 . S
C649 C648 1.345 1_556 S
C649 C655 1.363 . S
C650 C651 1.363 . S
C650 C655 1.379 . S
C650 N657 1.356 . S
C651 C650 1.363 . S
C651 C654 1.363 1_556 S
N652 C654 1.356 . S
N652 H664 0.984 . S
N652 H665 0.985 . S
N653 C655 1.356 . S
N653 H658 0.984 . S
N653 H659 0.985 . S
C654 C648 1.379 . S
C654 C651 1.363 1_554 S
C654 N652 1.356 . S
C655 C649 1.363 . S
C655 C650 1.379 . S
C655 N653 1.356 . S
N656 C648 1.371 . S
N656 H662 0.984 . S
N656 H663 0.984 . S
N657 C650 1.356 . S
N657 H660 0.984 . S
N657 H661 0.985 . S
H658 N653 0.984 . S
H659 N653 0.985 . S
H660 N657 0.984 . S
H661 N657 0.985 . S
H662 N656 0.984 . S
H663 N656 0.984 . S
H664 N652 0.984 . S
H665 N652 0.985 . S
C666 C667 1.363 1_556 S
C666 C672 1.379 . S
C666 N674 1.356 . S
C667 C666 1.363 1_554 S
C667 C673 1.363 . S
C668 C669 1.363 . S
C668 C673 1.379 . S
C668 N675 1.356 . S
C669 C668 1.363 . S
C669 C672 1.363 1_554 S
N670 C672 1.356 . S
N670 H682 0.984 . S
N670 H683 0.985 . S
N671 C673 1.356 . S
N671 H676 0.984 . S
N671 H677 0.985 . S
C672 C666 1.379 . S
C672 C669 1.363 1_556 S
C672 N670 1.356 . S
C673 C667 1.363 . S
C673 C668 1.379 . S
C673 N671 1.356 . S
N674 C666 1.356 . S
N674 H680 0.984 . S
N674 H681 0.984 . S
N675 C668 1.356 . S
N675 H678 0.984 . S
N675 H679 0.985 . S
H676 N671 0.984 . S
H677 N671 0.985 . S
H678 N675 0.984 . S
H679 N675 0.985 . S
H680 N674 0.984 . S
H681 N674 0.984 . S
H682 N670 0.984 . S
H683 N670 0.985 . S
C684 C685 1.363 . S
C684 C690 1.379 . S
C684 N692 1.356 . S
C685 C684 1.363 . S
C685 C691 1.363 1_554 S
C686 C687 1.363 1_556 S
C686 C691 1.379 . S
C686 N693 1.356 . S
C687 C686 1.363 1_554 S
C687 C690 1.363 . S
N688 C690 1.356 . S
N688 H700 0.984 . S
N688 H701 0.985 . S
N689 C691 1.356 . S
N689 H694 0.984 . S
N689 H695 0.985 . S
C690 C684 1.379 . S
C690 C687 1.363 . S
C690 N688 1.356 . S
C691 C685 1.363 1_556 S
C691 C686 1.379 . S
C691 N689 1.356 . S
N692 C684 1.356 . S
N692 H698 0.984 . S
N692 H699 0.984 . S
N693 C686 1.356 . S
N693 H696 0.984 . S
N693 H697 0.985 . S
H694 N689 0.984 . S
H695 N689 0.985 . S
H696 N693 0.984 . S
H697 N693 0.985 . S
H698 N692 0.984 . S
H699 N692 0.984 . S
H700 N688 0.984 . S
H701 N688 0.985 . S
C702 C703 1.363 . S
C702 C708 1.379 . S
C702 N710 1.356 . S
C703 C702 1.363 . S
C703 C709 1.363 . S
C704 C705 1.363 . S
C704 C709 1.379 . S
C704 N711 1.356 1_554 S
C705 C704 1.363 . S
C705 C708 1.363 . S
N706 C708 1.356 . S
N706 H718 0.984 . S
N706 H719 0.985 . S
N707 C709 1.356 . S
N707 H712 0.984 . S
N707 H713 0.985 1_554 S
C708 C702 1.379 . S
C708 C705 1.363 . S
C708 N706 1.356 . S
C709 C703 1.363 . S
C709 C704 1.379 . S
C709 N707 1.356 . S
N710 C702 1.356 . S
N710 H716 0.984 . S
N710 H717 0.984 . S
N711 C704 1.356 1_556 S
N711 H714 0.984 . S
N711 H715 0.985 . S
H712 N707 0.984 . S
H713 N707 0.985 1_556 S
H714 N711 0.984 . S
H715 N711 0.985 . S
H716 N710 0.984 . S
H717 N710 0.984 . S
H718 N706 0.984 . S
H719 N706 0.985 . S
C720 C721 1.363 1_556 S
C720 C726 1.379 . S
C720 N728 1.356 . S
C721 C720 1.363 1_554 S
C721 C727 1.363 . S
C722 C723 1.363 . S
C722 C727 1.379 . S
C722 N729 1.356 . S
C723 C722 1.363 . S
C723 C726 1.363 1_554 S
N724 C726 1.356 . S
N724 H736 0.984 . S
N724 H737 0.985 . S
N725 C727 1.356 . S
N725 H730 0.984 . S
N725 H731 0.985 . S
C726 C720 1.379 . S
C726 C723 1.363 1_556 S
C726 N724 1.356 . S
C727 C721 1.363 . S
C727 C722 1.379 . S
C727 N725 1.356 . S
N728 C720 1.356 . S
N728 H734 0.984 . S
N728 H735 0.984 . S
N729 C722 1.356 . S
N729 H732 0.984 . S
N729 H733 0.985 . S
H730 N725 0.984 . S
H731 N725 0.985 . S
H732 N729 0.984 . S
H733 N729 0.985 . S
H734 N728 0.984 . S
H735 N728 0.984 . S
H736 N724 0.984 . S
H737 N724 0.985 . S
C738 C739 1.363 . S
C738 C744 1.379 1_655 S
C738 N746 1.356 . S
C739 C738 1.363 . S
C739 C745 1.363 . S
C740 C741 1.363 . S
C740 C745 1.379 1_455 S
C740 N747 1.356 . S
C741 C740 1.363 . S
C741 C744 1.363 . S
N742 C744 1.356 . S
N742 H754 0.984 . S
N742 H755 0.985 . S
N743 C745 1.356 . S
N743 H748 0.984 . S
N743 H749 0.985 . S
C744 C738 1.379 1_455 S
C744 C741 1.363 . S
C744 N742 1.356 . S
C745 C739 1.363 . S
C745 C740 1.379 1_655 S
C745 N743 1.356 . S
N746 C738 1.356 . S
N746 H752 0.984 . S
N746 H753 0.984 . S
N747 C740 1.356 . S
N747 H750 0.984 . S
N747 H751 0.985 . S
H748 N743 0.984 . S
H749 N743 0.985 . S
H750 N747 0.984 . S
H751 N747 0.985 . S
H752 N746 0.984 . S
H753 N746 0.984 . S
H754 N742 0.984 . S
H755 N742 0.985 . S
C756 C757 1.363 . S
C756 C762 1.379 . S
C756 N764 1.356 . S
C757 C756 1.363 . S
C757 C763 1.363 . S
C758 C759 1.363 . S
C758 C763 1.379 . S
C758 N765 1.356 . S
C759 C758 1.363 . S
C759 C762 1.363 . S
N760 C762 1.356 . S
N760 H772 0.984 . S
N760 H773 0.985 . S
N761 C763 1.356 . S
N761 H766 0.984 . S
N761 H767 0.985 . S
C762 C756 1.379 . S
C762 C759 1.363 . S
C762 N760 1.356 . S
C763 C757 1.363 . S
C763 C758 1.379 . S
C763 N761 1.356 . S
N764 C756 1.356 . S
N764 H770 0.984 . S
N764 H771 0.984 . S
N765 C758 1.356 . S
N765 H768 0.984 . S
N765 H769 0.985 . S
H766 N761 0.984 . S
H767 N761 0.985 . S
H768 N765 0.984 . S
H769 N765 0.985 . S
H770 N764 0.984 . S
H771 N764 0.984 . S
H772 N760 0.984 . S
H773 N760 0.985 . S
C774 C775 1.363 . S
C774 C780 1.379 1_545 S
C774 N782 1.356 . S
C775 C774 1.363 . S
C775 C781 1.363 . S
C776 C777 1.363 . S
C776 C781 1.379 1_565 S
C776 N783 1.356 . S
C777 C776 1.363 . S
C777 C780 1.363 . S
N778 C780 1.356 . S
N778 H790 0.984 . S
N778 H791 0.985 . S
N779 C781 1.356 . S
N779 H784 0.984 . S
N779 H785 0.985 . S
C780 C774 1.379 1_565 S
C780 C777 1.363 . S
C780 N778 1.356 . S
C781 C775 1.363 . S
C781 C776 1.379 1_545 S
C781 N779 1.356 . S
N782 C774 1.356 . S
N782 H788 0.984 . S
N782 H789 0.984 . S
N783 C776 1.356 . S
N783 H786 0.984 . S
N783 H787 0.985 . S
H784 N779 0.984 . S
H785 N779 0.985 . S
H786 N783 0.984 . S
H787 N783 0.985 . S
H788 N782 0.984 . S
H789 N782 0.984 . S
H790 N778 0.984 . S
H791 N778 0.985 . S
C792 C793 1.363 . S
C792 C798 1.379 . S
C792 N800 1.356 . S
C793 C792 1.363 . S
C793 C799 1.363 . S
C794 C795 1.363 . S
C794 C799 1.379 . S
C794 N801 1.356 . S
C795 C794 1.363 . S
C795 C798 1.363 . S
N796 C798 1.356 . S
N796 H808 0.984 . S
N796 H809 0.985 . S
N797 C799 1.356 . S
N797 H802 0.984 . S
N797 H803 0.985 . S
C798 C792 1.379 . S
C798 C795 1.363 . S
C798 N796 1.356 . S
C799 C793 1.363 . S
C799 C794 1.379 . S
C799 N797 1.356 . S
N800 C792 1.356 . S
N800 H806 0.984 . S
N800 H807 0.984 . S
N801 C794 1.356 . S
N801 H804 0.984 . S
N801 H805 0.985 . S
H802 N797 0.984 . S
H803 N797 0.985 . S
H804 N801 0.984 . S
H805 N801 0.985 . S
H806 N800 0.984 . S
H807 N800 0.984 . S
H808 N796 0.984 . S
H809 N796 0.985 . S
C810 C811 1.363 . S
C810 C816 1.379 . S
C810 N818 1.356 . S
C811 C810 1.363 . S
C811 C817 1.363 . S
C812 C813 1.363 . S
C812 C817 1.379 . S
C812 N819 1.356 . S
C813 C812 1.363 . S
C813 C816 1.363 . S
N814 C816 1.356 . S
N814 H826 0.984 . S
N814 H827 0.985 . S
N815 C817 1.356 . S
N815 H820 0.984 . S
N815 H821 0.985 . S
C816 C810 1.379 . S
C816 C813 1.363 . S
C816 N814 1.356 . S
C817 C811 1.363 . S
C817 C812 1.379 . S
C817 N815 1.356 . S
N818 C810 1.356 . S
N818 H824 0.984 . S
N818 H825 0.984 . S
N819 C812 1.356 . S
N819 H822 0.984 . S
N819 H823 0.985 . S
H820 N815 0.984 . S
H821 N815 0.985 . S
H822 N819 0.984 . S
H823 N819 0.985 . S
H824 N818 0.984 . S
H825 N818 0.984 . S
H826 N814 0.984 . S
H827 N814 0.985 . S
C828 C829 1.363 . S
C828 C834 1.379 . S
C828 N836 1.356 . S
C829 C828 1.363 . S
C829 C835 1.363 . S
C830 C831 1.363 . S
C830 C835 1.379 . S
C830 N837 1.356 . S
C831 C830 1.363 . S
C831 C834 1.363 . S
N832 C834 1.356 . S
N832 H844 0.984 . S
N832 H845 0.985 . S
N833 C835 1.356 . S
N833 H838 0.984 . S
N833 H839 0.985 . S
C834 C828 1.379 . S
C834 C831 1.363 . S
C834 N832 1.356 . S
C835 C829 1.363 . S
C835 C830 1.379 . S
C835 N833 1.356 . S
N836 C828 1.356 . S
N836 H842 0.984 . S
N836 H843 0.984 . S
N837 C830 1.356 . S
N837 H840 0.984 . S
N837 H841 0.985 . S
H838 N833 0.984 . S
H839 N833 0.985 . S
H840 N837 0.984 . S
H841 N837 0.985 . S
H842 N836 0.984 . S
H843 N836 0.984 . S
H844 N832 0.984 . S
H845 N832 0.985 . S
C846 C847 1.363 . S
C846 C852 1.379 . S
C846 N854 1.356 . S
C847 C846 1.363 . S
C847 C853 1.363 . S
C848 C849 1.363 . S
C848 C853 1.379 . S
C848 N855 1.356 . S
C849 C848 1.363 . S
C849 C852 1.363 . S
N850 C852 1.356 . S
N850 H862 0.984 . S
N850 H863 0.985 . S
N851 C853 1.356 . S
N851 H856 0.984 . S
N851 H857 0.985 . S
C852 C846 1.379 . S
C852 C849 1.363 . S
C852 N850 1.356 . S
C853 C847 1.363 . S
C853 C848 1.379 . S
C853 N851 1.356 . S
N854 C846 1.356 . S
N854 H860 0.984 . S
N854 H861 0.984 . S
N855 C848 1.356 . S
N855 H858 0.984 . S
N855 H859 0.985 . S
H856 N851 0.984 . S
H857 N851 0.985 . S
H858 N855 0.984 . S
H859 N855 0.985 . S
H860 N854 0.984 . S
H861 N854 0.984 . S
H862 N850 0.984 . S
H863 N850 0.985 . S
C864 C865 1.363 . S
C864 C870 1.379 . S
C864 N872 1.356 . S
C865 C864 1.363 . S
C865 C871 1.363 . S
C866 C867 1.363 . S
C866 C871 1.379 . S
C866 N873 1.356 . S
C867 C866 1.363 . S
C867 C870 1.363 . S
N868 C870 1.356 . S
N868 H880 0.984 . S
N868 H881 0.985 . S
N869 C871 1.356 . S
N869 H874 0.984 . S
N869 H875 0.985 . S
C870 C864 1.379 . S
C870 C867 1.363 . S
C870 N868 1.356 . S
C871 C865 1.363 . S
C871 C866 1.379 . S
C871 N869 1.356 . S
N872 C864 1.356 . S
N872 H878 0.984 . S
N872 H879 0.984 . S
N873 C866 1.356 . S
N873 H876 0.984 . S
N873 H877 0.985 . S
H874 N869 0.984 . S
H875 N869 0.985 . S
H876 N873 0.984 . S
H877 N873 0.985 . S
H878 N872 0.984 . S
H879 N872 0.984 . S
H880 N868 0.984 . S
H881 N868 0.985 . S
C882 C883 1.363 . S
C882 C888 1.379 . S
C882 N890 1.356 . S
C883 C882 1.363 . S
C883 C889 1.363 . S
C884 C885 1.363 . S
C884 C889 1.379 . S
C884 N891 1.356 . S
C885 C884 1.363 . S
C885 C888 1.363 . S
N886 C888 1.356 . S
N886 H898 0.984 . S
N886 H899 0.985 . S
N887 C889 1.356 . S
N887 H892 0.984 . S
N887 H893 0.985 . S
C888 C882 1.379 . S
C888 C885 1.363 . S
C888 N886 1.356 . S
C889 C883 1.363 . S
C889 C884 1.379 . S
C889 N887 1.356 . S
N890 C882 1.356 . S
N890 H896 0.984 . S
N890 H897 0.984 . S
N891 C884 1.356 . S
N891 H894 0.984 . S
N891 H895 0.985 . S
H892 N887 0.984 . S
H893 N887 0.985 . S
H894 N891 0.984 . S
H895 N891 0.985 . S
H896 N890 0.984 . S
H897 N890 0.984 . S
H898 N886 0.984 . S
H899 N886 0.985 . S
C900 C901 1.363 . S
C900 C906 1.379 . S
C900 N908 1.356 . S
C901 C900 1.363 . S
C901 C907 1.363 . S
C902 C903 1.363 . S
C902 C907 1.379 . S
C902 N909 1.356 . S
C903 C902 1.363 . S
C903 C906 1.363 . S
N904 C906 1.356 . S
N904 H916 0.984 . S
N904 H917 0.985 . S
N905 C907 1.356 . S
N905 H910 0.984 1_565 S
N905 H911 0.985 . S
C906 C900 1.379 . S
C906 C903 1.363 . S
C906 N904 1.356 . S
C907 C901 1.363 . S
C907 C902 1.379 . S
C907 N905 1.356 . S
N908 C900 1.356 . S
N908 H914 0.984 . S
N908 H915 0.984 . S
N909 C902 1.356 . S
N909 H912 0.984 . S
N909 H913 0.985 . S
H910 N905 0.984 1_545 S
H911 N905 0.985 . S
H912 N909 0.984 . S
H913 N909 0.985 . S
H914 N908 0.984 . S
H915 N908 0.984 . S
H916 N904 0.984 . S
H917 N904 0.985 . S
C918 C919 1.363 . S
C918 C924 1.379 . S
C918 N926 1.356 . S
C919 C918 1.363 . S
C919 C925 1.363 . S
C920 C921 1.363 . S
C920 C925 1.379 . S
C920 N927 1.356 . S
C921 C920 1.363 . S
C921 C924 1.363 . S
N922 C924 1.356 . S
N922 H934 0.984 . S
N922 H935 0.985 . S
N923 C925 1.356 . S
N923 H928 0.984 1_455 S
N923 H929 0.985 . S
C924 C918 1.379 . S
C924 C921 1.363 . S
C924 N922 1.356 . S
C925 C919 1.363 . S
C925 C920 1.379 . S
C925 N923 1.356 . S
N926 C918 1.356 . S
N926 H932 0.984 . S
N926 H933 0.984 1_455 S
N927 C920 1.356 . S
N927 H930 0.984 . S
N927 H931 0.985 . S
H928 N923 0.984 1_655 S
H929 N923 0.985 . S
H930 N927 0.984 . S
H931 N927 0.985 . S
H932 N926 0.984 . S
H933 N926 0.984 1_655 S
H934 N922 0.984 . S
H935 N922 0.985 . S
C936 C937 1.363 . S
C936 C942 1.379 . S
C936 N944 1.356 . S
C937 C936 1.363 . S
C937 C943 1.363 . S
C938 C939 1.363 . S
C938 C943 1.379 . S
C938 N945 1.356 . S
C939 C938 1.363 . S
C939 C942 1.363 . S
N940 C942 1.356 . S
N940 H952 0.984 . S
N940 H953 0.985 . S
N941 C943 1.356 . S
N941 H946 0.984 . S
N941 H947 0.985 . S
C942 C936 1.379 . S
C942 C939 1.363 . S
C942 N940 1.356 . S
C943 C937 1.363 . S
C943 C938 1.379 . S
C943 N941 1.356 . S
N944 C936 1.356 . S
N944 H950 0.984 . S
N944 H951 0.984 . S
N945 C938 1.356 . S
N945 H948 0.984 . S
N945 H949 0.985 . S
H946 N941 0.984 . S
H947 N941 0.985 . S
H948 N945 0.984 . S
H949 N945 0.985 . S
H950 N944 0.984 . S
H951 N944 0.984 . S
H952 N940 0.984 . S
H953 N940 0.985 . S
C954 C955 1.363 . S
C954 C960 1.379 . S
C954 N962 1.356 . S
C955 C954 1.363 . S
C955 C961 1.363 . S
C956 C957 1.363 . S
C956 C961 1.379 . S
C956 N963 1.356 . S
C957 C956 1.363 . S
C957 C960 1.363 . S
N958 C960 1.356 . S
N958 H970 0.984 . S
N958 H971 0.985 . S
N959 C961 1.356 . S
N959 H964 0.984 . S
N959 H965 0.985 . S
C960 C954 1.379 . S
C960 C957 1.363 . S
C960 N958 1.356 . S
C961 C955 1.363 . S
C961 C956 1.379 . S
C961 N959 1.356 . S
N962 C954 1.356 . S
N962 H968 0.984 . S
N962 H969 0.984 . S
N963 C956 1.356 . S
N963 H966 0.984 . S
N963 H967 0.985 . S
H964 N959 0.984 . S
H965 N959 0.985 . S
H966 N963 0.984 . S
H967 N963 0.985 . S
H968 N962 0.984 . S
H969 N962 0.984 . S
H970 N958 0.984 . S
H971 N958 0.985 . S
C972 C973 1.363 . S
C972 C978 1.379 . S
C972 N980 1.356 . S
C973 C972 1.363 . S
C973 C979 1.363 . S
C974 C975 1.363 . S
C974 C979 1.379 . S
C974 N981 1.356 . S
C975 C974 1.363 . S
C975 C978 1.363 . S
N976 C978 1.356 . S
N976 H988 0.984 . S
N976 H989 0.985 . S
N977 C979 1.356 . S
N977 H982 0.984 . S
N977 H983 0.985 . S
C978 C972 1.379 . S
C978 C975 1.363 . S
C978 N976 1.356 . S
C979 C973 1.363 . S
C979 C974 1.379 . S
C979 N977 1.356 . S
N980 C972 1.356 . S
N980 H986 0.984 . S
N980 H987 0.984 . S
N981 C974 1.356 . S
N981 H984 0.984 . S
N981 H985 0.985 . S
H982 N977 0.984 . S
H983 N977 0.985 . S
H984 N981 0.984 . S
H985 N981 0.985 . S
H986 N980 0.984 . S
H987 N980 0.984 . S
H988 N976 0.984 . S
H989 N976 0.985 . S
C990 C991 1.363 . S
C990 C996 1.379 . S
C990 N998 1.356 . S
C991 C990 1.363 . S
C991 C997 1.363 . S
C992 C993 1.363 . S
C992 C997 1.379 . S
C992 N999 1.356 . S
C993 C992 1.363 . S
C993 C996 1.363 . S
N994 C996 1.356 . S
N994 H1006 0.984 . S
N994 H1007 0.985 . S
N995 C997 1.356 . S
N995 H1000 0.984 . S
N995 H1001 0.985 . S
C996 C990 1.379 . S
C996 C993 1.363 . S
C996 N994 1.356 . S
C997 C991 1.363 . S
C997 C992 1.379 . S
C997 N995 1.356 . S
N998 C990 1.356 . S
N998 H1004 0.984 . S
N998 H1005 0.984 . S
N999 C992 1.356 . S
N999 H1002 0.984 . S
N999 H1003 0.985 . S
H1000 N995 0.984 . S
H1001 N995 0.985 . S
H1002 N999 0.984 . S
H1003 N999 0.985 . S
H1004 N998 0.984 . S
H1005 N998 0.984 . S
H1006 N994 0.984 . S
H1007 N994 0.985 . S
C1008 C1009 1.363 . S
C1008 C1014 1.379 1_565 S
C1008 N1016 1.356 . S
C1009 C1008 1.363 . S
C1009 C1015 1.363 . S
C1010 C1011 1.363 . S
C1010 C1015 1.379 1_545 S
C1010 N1017 1.356 . S
C1011 C1010 1.363 . S
C1011 C1014 1.363 . S
N1012 C1014 1.356 . S
N1012 H1024 0.984 . S
N1012 H1025 0.985 . S
N1013 C1015 1.356 . S
N1013 H1018 0.984 . S
N1013 H1019 0.985 . S
C1014 C1008 1.379 1_545 S
C1014 C1011 1.363 . S
C1014 N1012 1.356 . S
C1015 C1009 1.363 . S
C1015 C1010 1.379 1_565 S
C1015 N1013 1.356 . S
N1016 C1008 1.356 . S
N1016 H1022 0.984 . S
N1016 H1023 0.984 . S
N1017 C1010 1.356 . S
N1017 H1020 0.984 . S
N1017 H1021 0.985 . S
H1018 N1013 0.984 . S
H1019 N1013 0.985 . S
H1020 N1017 0.984 . S
H1021 N1017 0.985 . S
H1022 N1016 0.984 . S
H1023 N1016 0.984 . S
H1024 N1012 0.984 . S
H1025 N1012 0.985 . S
C1026 C1027 1.363 . S
C1026 C1032 1.379 1_455 S
C1026 N1034 1.356 . S
C1027 C1026 1.363 . S
C1027 C1033 1.363 . S
C1028 C1029 1.363 1_455 S
C1028 C1033 1.379 . S
C1028 N1035 1.356 . S
C1029 C1028 1.363 1_655 S
C1029 C1032 1.363 . S
N1030 C1032 1.356 . S
N1030 H1042 0.984 . S
N1030 H1043 0.985 . S
N1031 C1033 1.356 . S
N1031 H1036 0.984 . S
N1031 H1037 0.985 . S
C1032 C1026 1.379 1_655 S
C1032 C1029 1.363 . S
C1032 N1030 1.356 . S
C1033 C1027 1.363 . S
C1033 C1028 1.379 . S
C1033 N1031 1.356 . S
N1034 C1026 1.356 . S
N1034 H1040 0.984 . S
N1034 H1041 0.984 . S
N1035 C1028 1.356 . S
N1035 H1038 0.984 1_455 S
N1035 H1039 0.985 . S
H1036 N1031 0.984 . S
H1037 N1031 0.985 . S
H1038 N1035 0.984 1_655 S
H1039 N1035 0.985 . S
H1040 N1034 0.984 . S
H1041 N1034 0.984 . S
H1042 N1030 0.984 . S
H1043 N1030 0.985 . S
C1044 C1045 1.363 . S
C1044 C1050 1.379 . S
C1044 N1052 1.356 . S
C1045 C1044 1.363 . S
C1045 C1051 1.363 . S
C1046 C1047 1.363 . S
C1046 C1051 1.379 . S
C1046 N1053 1.356 . S
C1047 C1046 1.363 . S
C1047 C1050 1.363 . S
N1048 C1050 1.356 . S
N1048 H1060 0.984 . S
N1048 H1061 0.985 . S
N1049 C1051 1.356 . S
N1049 H1054 0.984 . S
N1049 H1055 0.985 . S
C1050 C1044 1.379 . S
C1050 C1047 1.363 . S
C1050 N1048 1.356 . S
C1051 C1045 1.363 . S
C1051 C1046 1.379 . S
C1051 N1049 1.356 . S
N1052 C1044 1.356 . S
N1052 H1058 0.984 . S
N1052 H1059 0.984 . S
N1053 C1046 1.356 . S
N1053 H1056 0.984 . S
N1053 H1057 0.985 . S
H1054 N1049 0.984 . S
H1055 N1049 0.985 . S
H1056 N1053 0.984 . S
H1057 N1053 0.985 . S
H1058 N1052 0.984 . S
H1059 N1052 0.984 . S
H1060 N1048 0.984 . S
H1061 N1048 0.985 . S
C1062 C1063 1.363 1_655 S
C1062 C1068 1.379 . S
C1062 N1070 1.356 1_655 S
C1063 C1062 1.363 1_455 S
C1063 C1069 1.363 1_455 S
C1064 C1065 1.363 . S
C1064 C1069 1.379 . S
C1064 N1071 1.356 . S
C1065 C1064 1.363 . S
C1065 C1068 1.363 . S
N1066 C1068 1.356 . S
N1066 H1078 0.984 . S
N1066 H1079 0.985 . S
N1067 C1069 1.356 1_455 S
N1067 H1072 0.984 . S
N1067 H1073 0.985 1_455 S
C1068 C1062 1.379 . S
C1068 C1065 1.363 . S
C1068 N1066 1.356 . S
C1069 C1063 1.363 1_655 S
C1069 C1064 1.379 . S
C1069 N1067 1.356 1_655 S
N1070 C1062 1.356 1_455 S
N1070 H1076 0.984 . S
N1070 H1077 0.984 . S
N1071 C1064 1.356 . S
N1071 H1074 0.984 . S
N1071 H1075 0.985 . S
H1072 N1067 0.984 . S
H1073 N1067 0.985 1_655 S
H1074 N1071 0.984 . S
H1075 N1071 0.985 . S
H1076 N1070 0.984 . S
H1077 N1070 0.984 . S
H1078 N1066 0.984 . S
H1079 N1066 0.985 . S
C1080 C1081 1.363 . S
C1080 C1086 1.379 . S
C1080 N1088 1.356 . S
C1081 C1080 1.363 . S
C1081 C1087 1.363 . S
C1082 C1083 1.363 . S
C1082 C1087 1.379 . S
C1082 N1089 1.356 . S
C1083 C1082 1.363 . S
C1083 C1086 1.363 . S
N1084 C1086 1.356 . S
N1084 H1096 0.984 . S
N1084 H1097 0.985 . S
N1085 C1087 1.356 . S
N1085 H1090 0.984 . S
N1085 H1091 0.985 . S
C1086 C1080 1.379 . S
C1086 C1083 1.363 . S
C1086 N1084 1.356 . S
C1087 C1081 1.363 . S
C1087 C1082 1.379 . S
C1087 N1085 1.356 . S
N1088 C1080 1.356 . S
N1088 H1094 0.984 . S
N1088 H1095 0.984 . S
N1089 C1082 1.356 . S
N1089 H1092 0.984 . S
N1089 H1093 0.985 . S
H1090 N1085 0.984 . S
H1091 N1085 0.985 . S
H1092 N1089 0.984 . S
H1093 N1089 0.985 . S
H1094 N1088 0.984 . S
H1095 N1088 0.984 . S
H1096 N1084 0.984 . S
H1097 N1084 0.985 . S
C1098 C1099 1.363 . S
C1098 C1104 1.379 . S
C1098 N1106 1.356 . S
C1099 C1098 1.363 . S
C1099 C1105 1.363 . S
C1100 C1101 1.363 . S
C1100 C1105 1.379 . S
C1100 N1107 1.356 . S
C1101 C1100 1.363 . S
C1101 C1104 1.363 . S
N1102 C1104 1.356 . S
N1102 H1114 0.984 . S
N1102 H1115 0.985 . S
N1103 C1105 1.356 . S
N1103 H1108 0.984 1_545 S
N1103 H1109 0.985 . S
C1104 C1098 1.379 . S
C1104 C1101 1.363 . S
C1104 N1102 1.356 . S
C1105 C1099 1.363 . S
C1105 C1100 1.379 . S
C1105 N1103 1.356 . S
N1106 C1098 1.356 . S
N1106 H1112 0.984 . S
N1106 H1113 0.984 1_545 S
N1107 C1100 1.356 . S
N1107 H1110 0.984 . S
N1107 H1111 0.985 . S
H1108 N1103 0.984 1_565 S
H1109 N1103 0.985 . S
H1110 N1107 0.984 . S
H1111 N1107 0.985 . S
H1112 N1106 0.984 . S
H1113 N1106 0.984 1_565 S
H1114 N1102 0.984 . S
H1115 N1102 0.985 . S
C1116 C1117 1.363 . S
C1116 C1122 1.379 . S
C1116 N1124 1.356 . S
C1117 C1116 1.363 . S
C1117 C1123 1.363 . S
C1118 C1119 1.363 . S
C1118 C1123 1.379 . S
C1118 N1125 1.356 . S
C1119 C1118 1.363 . S
C1119 C1122 1.363 . S
N1120 C1122 1.356 . S
N1120 H1132 0.984 . S
N1120 H1133 0.985 . S
N1121 C1123 1.356 . S
N1121 H1126 0.984 . S
N1121 H1127 0.985 . S
C1122 C1116 1.379 . S
C1122 C1119 1.363 . S
C1122 N1120 1.356 . S
C1123 C1117 1.363 . S
C1123 C1118 1.379 . S
C1123 N1121 1.356 . S
N1124 C1116 1.356 . S
N1124 H1130 0.984 . S
N1124 H1131 0.984 . S
N1125 C1118 1.356 . S
N1125 H1128 0.984 . S
N1125 H1129 0.985 . S
H1126 N1121 0.984 . S
H1127 N1121 0.985 . S
H1128 N1125 0.984 . S
H1129 N1125 0.985 . S
H1130 N1124 0.984 . S
H1131 N1124 0.984 . S
H1132 N1120 0.984 . S
H1133 N1120 0.985 . S
C1134 C1135 1.363 . S
C1134 C1140 1.379 . S
C1134 N1142 1.356 . S
C1135 C1134 1.363 . S
C1135 C1141 1.363 . S
C1136 C1137 1.363 . S
C1136 C1141 1.379 . S
C1136 N1143 1.356 . S
C1137 C1136 1.363 . S
C1137 C1140 1.363 . S
N1138 C1140 1.356 . S
N1138 H1150 0.984 . S
N1138 H1151 0.985 . S
N1139 C1141 1.356 . S
N1139 H1144 0.984 . S
N1139 H1145 0.985 . S
C1140 C1134 1.379 . S
C1140 C1137 1.363 . S
C1140 N1138 1.356 . S
C1141 C1135 1.363 . S
C1141 C1136 1.379 . S
C1141 N1139 1.356 . S
N1142 C1134 1.356 . S
N1142 H1148 0.984 . S
N1142 H1149 0.984 . S
N1143 C1136 1.356 . S
N1143 H1146 0.984 . S
N1143 H1147 0.985 . S
H1144 N1139 0.984 . S
H1145 N1139 0.985 . S
H1146 N1143 0.984 . S
H1147 N1143 0.985 . S
H1148 N1142 0.984 . S
H1149 N1142 0.984 . S
H1150 N1138 0.984 . S
H1151 N1138 0.985 . S
C1152 C1153 1.363 . S
C1152 C1158 1.379 . S
C1152 N1160 1.356 . S
C1153 C1152 1.363 . S
C1153 C1159 1.363 . S
C1154 C1155 1.363 . S
C1154 C1159 1.379 . S
C1154 N1161 1.356 . S
C1155 C1154 1.363 . S
C1155 C1158 1.363 . S
N1156 C1158 1.356 . S
N1156 H1168 0.984 . S
N1156 H1169 0.985 . S
N1157 C1159 1.356 . S
N1157 H1162 0.984 . S
N1157 H1163 0.985 . S
C1158 C1152 1.379 . S
C1158 C1155 1.363 . S
C1158 N1156 1.356 . S
C1159 C1153 1.363 . S
C1159 C1154 1.379 . S
C1159 N1157 1.356 . S
N1160 C1152 1.356 . S
N1160 H1166 0.984 . S
N1160 H1167 0.984 . S
N1161 C1154 1.356 . S
N1161 H1164 0.984 . S
N1161 H1165 0.985 . S
H1162 N1157 0.984 . S
H1163 N1157 0.985 . S
H1164 N1161 0.984 . S
H1165 N1161 0.985 . S
H1166 N1160 0.984 . S
H1167 N1160 0.984 . S
H1168 N1156 0.984 . S
H1169 N1156 0.985 . S
C1170 C1171 1.363 . S
C1170 C1176 1.379 . S
C1170 N1178 1.356 . S
C1171 C1170 1.363 . S
C1171 C1177 1.363 . S
C1172 C1173 1.363 . S
C1172 C1177 1.379 . S
C1172 N1179 1.356 1_565 S
C1173 C1172 1.363 . S
C1173 C1176 1.363 . S
N1174 C1176 1.356 . S
N1174 H1186 0.984 . S
N1174 H1187 0.985 . S
N1175 C1177 1.356 . S
N1175 H1180 0.984 . S
N1175 H1181 1.022 . S
C1176 C1170 1.379 . S
C1176 C1173 1.363 . S
C1176 N1174 1.356 . S
C1177 C1171 1.363 . S
C1177 C1172 1.379 . S
C1177 N1175 1.356 . S
N1178 C1170 1.356 . S
N1178 H1184 0.984 . S
N1178 H1185 0.984 . S
N1179 C1172 1.356 1_545 S
N1179 H1182 0.984 . S
N1179 H1183 0.985 . S
H1180 N1175 0.984 . S
H1181 N1175 1.022 . S
H1182 N1179 0.984 . S
H1183 N1179 0.985 . S
H1184 N1178 0.984 . S
H1185 N1178 0.984 . S
H1186 N1174 0.984 . S
H1187 N1174 0.985 . S
C1188 C1189 1.363 . S
C1188 C1194 1.379 . S
C1188 N1196 1.356 . S
C1189 C1188 1.363 . S
C1189 C1195 1.363 . S
C1190 C1191 1.363 . S
C1190 C1195 1.379 . S
C1190 N1197 1.356 1_455 S
C1191 C1190 1.363 . S
C1191 C1194 1.363 . S
N1192 C1194 1.356 . S
N1192 H1204 0.984 . S
N1192 H1205 0.985 . S
N1193 C1195 1.356 . S
N1193 H1198 0.984 . S
N1193 H1199 0.985 . S
C1194 C1188 1.379 . S
C1194 C1191 1.363 . S
C1194 N1192 1.356 . S
C1195 C1189 1.363 . S
C1195 C1190 1.379 . S
C1195 N1193 1.356 . S
N1196 C1188 1.356 . S
N1196 H1202 0.984 . S
N1196 H1203 0.984 . S
N1197 C1190 1.356 1_655 S
N1197 H1200 0.984 . S
N1197 H1201 0.985 . S
H1198 N1193 0.984 . S
H1199 N1193 0.985 . S
H1200 N1197 0.984 . S
H1201 N1197 0.985 . S
H1202 N1196 0.984 . S
H1203 N1196 0.984 . S
H1204 N1192 0.984 . S
H1205 N1192 0.985 . S
C1206 C1207 1.363 . S
C1206 C1212 1.379 . S
C1206 N1214 1.356 . S
C1207 C1206 1.363 . S
C1207 C1213 1.363 . S
C1208 C1209 1.363 . S
C1208 C1213 1.379 . S
C1208 N1215 1.356 . S
C1209 C1208 1.363 . S
C1209 C1212 1.363 . S
N1210 C1212 1.356 . S
N1210 H1222 0.984 . S
N1210 H1223 0.985 . S
N1211 C1213 1.356 . S
N1211 H1216 0.984 . S
N1211 H1217 0.985 . S
C1212 C1206 1.379 . S
C1212 C1209 1.363 . S
C1212 N1210 1.356 . S
C1213 C1207 1.363 . S
C1213 C1208 1.379 . S
C1213 N1211 1.356 . S
N1214 C1206 1.356 . S
N1214 H1220 0.984 . S
N1214 H1221 0.984 . S
N1215 C1208 1.356 . S
N1215 H1218 0.984 . S
N1215 H1219 0.985 . S
H1216 N1211 0.984 . S
H1217 N1211 0.985 . S
H1218 N1215 0.984 . S
H1219 N1215 0.985 . S
H1220 N1214 0.984 . S
H1221 N1214 0.984 . S
H1222 N1210 0.984 . S
H1223 N1210 0.985 . S
C1224 C1225 1.363 . S
C1224 C1230 1.379 . S
C1224 N1232 1.356 . S
C1225 C1224 1.363 . S
C1225 C1231 1.363 . S
C1226 C1227 1.363 . S
C1226 C1231 1.379 . S
C1226 N1233 1.356 1_655 S
C1227 C1226 1.363 . S
C1227 C1230 1.363 . S
N1228 C1230 1.356 . S
N1228 H1240 0.984 . S
N1228 H1241 0.985 . S
N1229 C1231 1.356 . S
N1229 H1234 0.984 . S
N1229 H1235 0.985 1_655 S
C1230 C1224 1.379 . S
C1230 C1227 1.363 . S
C1230 N1228 1.356 . S
C1231 C1225 1.363 . S
C1231 C1226 1.379 . S
C1231 N1229 1.356 . S
N1232 C1224 1.356 . S
N1232 H1238 0.984 . S
N1232 H1239 0.984 . S
N1233 C1226 1.356 1_455 S
N1233 H1236 0.984 . S
N1233 H1237 0.985 . S
H1234 N1229 0.984 . S
H1235 N1229 0.985 1_455 S
H1236 N1233 0.984 . S
H1237 N1233 0.985 . S
H1238 N1232 0.984 . S
H1239 N1232 0.984 . S
H1240 N1228 0.984 . S
H1241 N1228 0.985 . S
C1242 C1243 1.363 . S
C1242 C1248 1.379 . S
C1242 N1250 1.356 . S
C1243 C1242 1.363 . S
C1243 C1249 1.363 . S
C1244 C1245 1.363 . S
C1244 C1249 1.379 . S
C1244 N1251 1.356 . S
C1245 C1244 1.363 . S
C1245 C1248 1.363 . S
N1246 C1248 1.356 . S
N1246 H1258 0.984 . S
N1246 H1259 0.985 . S
N1247 C1249 1.356 . S
N1247 H1252 0.984 . S
N1247 H1253 0.985 . S
C1248 C1242 1.379 . S
C1248 C1245 1.363 . S
C1248 N1246 1.356 . S
C1249 C1243 1.363 . S
C1249 C1244 1.379 . S
C1249 N1247 1.356 . S
N1250 C1242 1.356 . S
N1250 H1256 0.984 . S
N1250 H1257 0.984 . S
N1251 C1244 1.356 . S
N1251 H1254 0.984 . S
N1251 H1255 0.985 . S
H1252 N1247 0.984 . S
H1253 N1247 0.985 . S
H1254 N1251 0.984 . S
H1255 N1251 0.985 . S
H1256 N1250 0.984 . S
H1257 N1250 0.984 . S
H1258 N1246 0.984 . S
H1259 N1246 0.985 . S
C1260 C1261 1.363 . S
C1260 C1266 1.379 . S
C1260 N1268 1.356 . S
C1261 C1260 1.363 . S
C1261 C1267 1.363 . S
C1262 C1263 1.363 . S
C1262 C1267 1.379 . S
C1262 N1269 1.356 . S
C1263 C1262 1.363 . S
C1263 C1266 1.363 . S
N1264 C1266 1.356 . S
N1264 H1276 0.984 1_545 S
N1264 H1277 0.990 . S
N1265 C1267 1.356 . S
N1265 H1270 0.984 . S
N1265 H1271 0.985 . S
C1266 C1260 1.379 . S
C1266 C1263 1.363 . S
C1266 N1264 1.356 . S
C1267 C1261 1.363 . S
C1267 C1262 1.379 . S
C1267 N1265 1.356 . S
N1268 C1260 1.356 . S
N1268 H1274 0.984 . S
N1268 H1275 0.984 . S
N1269 C1262 1.356 . S
N1269 H1272 0.984 . S
N1269 H1273 0.985 . S
H1270 N1265 0.984 . S
H1271 N1265 0.985 . S
H1272 N1269 0.984 . S
H1273 N1269 0.985 . S
H1274 N1268 0.984 . S
H1275 N1268 0.984 . S
H1276 N1264 0.984 1_565 S
H1277 N1264 0.990 . S
C1278 C1279 1.363 . S
C1278 C1284 1.379 . S
C1278 N1286 1.356 . S
C1279 C1278 1.363 . S
C1279 C1285 1.363 . S
C1280 C1281 1.363 . S
C1280 C1285 1.379 . S
C1280 N1287 1.356 . S
C1281 C1280 1.363 . S
C1281 C1284 1.363 . S
N1282 C1284 1.356 . S
N1282 H1294 0.984 . S
N1282 H1295 0.985 . S
N1283 C1285 1.356 . S
N1283 H1288 0.984 . S
N1283 H1289 0.985 . S
C1284 C1278 1.379 . S
C1284 C1281 1.363 . S
C1284 N1282 1.356 . S
C1285 C1279 1.363 . S
C1285 C1280 1.379 . S
C1285 N1283 1.356 . S
N1286 C1278 1.356 . S
N1286 H1292 0.984 . S
N1286 H1293 0.984 . S
N1287 C1280 1.356 . S
N1287 H1290 0.984 . S
N1287 H1291 0.985 . S
H1288 N1283 0.984 . S
H1289 N1283 0.985 . S
H1290 N1287 0.984 . S
H1291 N1287 0.985 . S
H1292 N1286 0.984 . S
H1293 N1286 0.984 . S
H1294 N1282 0.984 . S
H1295 N1282 0.985 . S
C1296 C1297 1.363 . S
C1296 C1302 1.379 . S
C1296 N1304 1.356 . S
C1297 C1296 1.363 . S
C1297 C1303 1.363 . S
C1298 C1299 1.363 . S
C1298 C1303 1.379 . S
C1298 N1305 1.356 . S
C1299 C1298 1.363 . S
C1299 C1302 1.363 . S
N1300 C1302 1.356 . S
N1300 H1312 0.984 . S
N1300 H1313 0.985 . S
N1301 C1303 1.356 . S
N1301 H1306 0.984 . S
N1301 H1307 0.985 . S
C1302 C1296 1.379 . S
C1302 C1299 1.363 . S
C1302 N1300 1.356 . S
C1303 C1297 1.363 . S
C1303 C1298 1.379 . S
C1303 N1301 1.356 . S
N1304 C1296 1.356 . S
N1304 H1310 0.984 . S
N1304 H1311 0.984 . S
N1305 C1298 1.356 . S
N1305 H1308 0.984 . S
N1305 H1309 0.985 . S
H1306 N1301 0.984 . S
H1307 N1301 0.985 . S
H1308 N1305 0.984 . S
H1309 N1305 0.985 . S
H1310 N1304 0.984 . S
H1311 N1304 0.984 . S
H1312 N1300 0.984 . S
H1313 N1300 0.985 . S
C1314 C1315 1.363 . S
C1314 C1320 1.379 . S
C1314 N1322 1.356 . S
C1315 C1314 1.363 . S
C1315 C1321 1.363 . S
C1316 C1317 1.363 . S
C1316 C1321 1.379 . S
C1316 N1323 1.356 . S
C1317 C1316 1.363 . S
C1317 C1320 1.363 . S
N1318 C1320 1.356 . S
N1318 H1330 0.984 . S
N1318 H1331 0.985 . S
N1319 C1321 1.356 . S
N1319 H1324 0.984 . S
N1319 H1325 0.985 . S
C1320 C1314 1.379 . S
C1320 C1317 1.363 . S
C1320 N1318 1.356 . S
C1321 C1315 1.363 . S
C1321 C1316 1.379 . S
C1321 N1319 1.356 . S
N1322 C1314 1.356 . S
N1322 H1328 0.984 . S
N1322 H1329 0.984 . S
N1323 C1316 1.356 . S
N1323 H1326 0.984 . S
N1323 H1327 0.985 . S
H1324 N1319 0.984 . S
H1325 N1319 0.985 . S
H1326 N1323 0.984 . S
H1327 N1323 0.985 . S
H1328 N1322 0.984 . S
H1329 N1322 0.984 . S
H1330 N1318 0.984 . S
H1331 N1318 0.985 . S
C1332 C1333 1.363 . S
C1332 C1338 1.379 . S
C1332 N1340 1.356 . S
C1333 C1332 1.363 . S
C1333 C1339 1.363 . S
C1334 C1335 1.363 . S
C1334 C1339 1.379 . S
C1334 N1341 1.356 . S
C1335 C1334 1.363 . S
C1335 C1338 1.363 . S
N1336 C1338 1.356 . S
N1336 H1348 0.984 . S
N1336 H1349 0.985 . S
N1337 C1339 1.356 . S
N1337 H1342 0.984 . S
N1337 H1343 0.985 . S
C1338 C1332 1.379 . S
C1338 C1335 1.363 . S
C1338 N1336 1.356 . S
C1339 C1333 1.363 . S
C1339 C1334 1.379 . S
C1339 N1337 1.356 . S
N1340 C1332 1.356 . S
N1340 H1346 0.984 . S
N1340 H1347 0.984 . S
N1341 C1334 1.356 . S
N1341 H1344 0.984 . S
N1341 H1345 0.985 . S
H1342 N1337 0.984 . S
H1343 N1337 0.985 . S
H1344 N1341 0.984 . S
H1345 N1341 0.985 . S
H1346 N1340 0.984 . S
H1347 N1340 0.984 . S
H1348 N1336 0.984 . S
H1349 N1336 0.985 . S
C1350 C1351 1.363 . S
C1350 C1356 1.379 . S
C1350 N1358 1.356 . S
C1351 C1350 1.363 . S
C1351 C1357 1.363 . S
C1352 C1353 1.363 . S
C1352 C1357 1.379 . S
C1352 N1359 1.356 . S
C1353 C1352 1.363 . S
C1353 C1356 1.363 . S
N1354 C1356 1.356 . S
N1354 H1366 0.984 . S
N1354 H1367 0.985 . S
N1355 C1357 1.356 . S
N1355 H1360 0.984 . S
N1355 H1361 0.985 . S
C1356 C1350 1.379 . S
C1356 C1353 1.363 . S
C1356 N1354 1.356 . S
C1357 C1351 1.363 . S
C1357 C1352 1.379 . S
C1357 N1355 1.356 . S
N1358 C1350 1.356 . S
N1358 H1364 0.984 . S
N1358 H1365 0.984 . S
N1359 C1352 1.356 . S
N1359 H1362 0.984 . S
N1359 H1363 0.985 . S
H1360 N1355 0.984 . S
H1361 N1355 0.985 . S
H1362 N1359 0.984 . S
H1363 N1359 0.985 . S
H1364 N1358 0.984 . S
H1365 N1358 0.984 . S
H1366 N1354 0.984 . S
H1367 N1354 0.985 . S
C1368 C1369 1.363 . S
C1368 C1374 1.379 . S
C1368 N1376 1.356 . S
C1369 C1368 1.363 . S
C1369 C1375 1.363 . S
C1370 C1371 1.363 . S
C1370 C1375 1.379 . S
C1370 N1377 1.356 . S
C1371 C1370 1.363 . S
C1371 C1374 1.363 . S
N1372 C1374 1.356 . S
N1372 H1384 0.984 . S
N1372 H1385 0.985 . S
N1373 C1375 1.356 . S
N1373 H1378 0.984 . S
N1373 H1379 0.985 . S
C1374 C1368 1.379 . S
C1374 C1371 1.363 . S
C1374 N1372 1.356 . S
C1375 C1369 1.363 . S
C1375 C1370 1.379 . S
C1375 N1373 1.356 . S
N1376 C1368 1.356 . S
N1376 H1382 0.984 . S
N1376 H1383 0.984 . S
N1377 C1370 1.356 . S
N1377 H1380 0.984 . S
N1377 H1381 0.985 . S
H1378 N1373 0.984 . S
H1379 N1373 0.985 . S
H1380 N1377 0.984 . S
H1381 N1377 0.985 . S
H1382 N1376 0.984 . S
H1383 N1376 0.984 . S
H1384 N1372 0.984 . S
H1385 N1372 0.985 . S
C1386 C1387 1.363 . S
C1386 C1392 1.379 . S
C1386 N1394 1.356 . S
C1387 C1386 1.363 . S
C1387 C1393 1.363 . S
C1388 C1389 1.363 . S
C1388 C1393 1.379 . S
C1388 N1395 1.356 . S
C1389 C1388 1.363 . S
C1389 C1392 1.363 . S
N1390 C1392 1.356 . S
N1390 H1402 0.984 . S
N1390 H1403 0.985 . S
N1391 C1393 1.356 . S
N1391 H1396 0.984 . S
N1391 H1397 0.985 . S
C1392 C1386 1.379 . S
C1392 C1389 1.363 . S
C1392 N1390 1.356 . S
C1393 C1387 1.363 . S
C1393 C1388 1.379 . S
C1393 N1391 1.356 . S
N1394 C1386 1.356 . S
N1394 H1400 0.984 . S
N1394 H1401 0.984 . S
N1395 C1388 1.356 . S
N1395 H1398 0.984 . S
N1395 H1399 0.985 . S
H1396 N1391 0.984 . S
H1397 N1391 0.985 . S
H1398 N1395 0.984 . S
H1399 N1395 0.985 . S
H1400 N1394 0.984 . S
H1401 N1394 0.984 . S
H1402 N1390 0.984 . S
H1403 N1390 0.985 . S
C1404 C1405 1.363 . S
C1404 C1410 1.379 . S
C1404 N1412 1.356 . S
C1405 C1404 1.363 . S
C1405 C1411 1.363 . S
C1406 C1407 1.363 . S
C1406 C1411 1.379 . S
C1406 N1413 1.356 . S
C1407 C1406 1.363 . S
C1407 C1410 1.363 . S
N1408 C1410 1.356 . S
N1408 H1420 0.984 . S
N1408 H1421 0.985 . S
N1409 C1411 1.356 . S
N1409 H1414 0.984 . S
N1409 H1415 0.985 . S
C1410 C1404 1.379 . S
C1410 C1407 1.363 . S
C1410 N1408 1.356 . S
C1411 C1405 1.363 . S
C1411 C1406 1.379 . S
C1411 N1409 1.356 . S
N1412 C1404 1.356 . S
N1412 H1418 0.984 . S
N1412 H1419 0.984 . S
N1413 C1406 1.356 . S
N1413 H1416 0.984 . S
N1413 H1417 0.985 . S
H1414 N1409 0.984 . S
H1415 N1409 0.985 . S
H1416 N1413 0.984 . S
H1417 N1413 0.985 . S
H1418 N1412 0.984 . S
H1419 N1412 0.984 . S
H1420 N1408 0.984 . S
H1421 N1408 0.985 . S
C1422 C1423 1.363 . S
C1422 C1428 1.379 . S
C1422 N1430 1.356 . S
C1423 C1422 1.363 . S
C1423 C1429 1.363 . S
C1424 C1425 1.363 . S
C1424 C1429 1.379 . S
C1424 N1431 1.356 . S
C1425 C1424 1.363 . S
C1425 C1428 1.363 . S
N1426 C1428 1.356 . S
N1426 H1438 0.984 . S
N1426 H1439 0.985 . S
N1427 C1429 1.356 . S
N1427 H1432 0.984 . S
N1427 H1433 0.985 . S
C1428 C1422 1.379 . S
C1428 C1425 1.363 . S
C1428 N1426 1.356 . S
C1429 C1423 1.363 . S
C1429 C1424 1.379 . S
C1429 N1427 1.356 . S
N1430 C1422 1.356 . S
N1430 H1436 0.984 . S
N1430 H1437 0.984 . S
N1431 C1424 1.356 . S
N1431 H1434 0.984 . S
N1431 H1435 0.985 . S
H1432 N1427 0.984 . S
H1433 N1427 0.985 . S
H1434 N1431 0.984 . S
H1435 N1431 0.985 . S
H1436 N1430 0.984 . S
H1437 N1430 0.984 . S
H1438 N1426 0.984 . S
H1439 N1426 0.985 . S
C1440 C1441 1.363 . S
C1440 C1446 1.379 . S
C1440 N1448 1.356 . S
C1441 C1440 1.363 . S
C1441 C1447 1.363 . S
C1442 C1443 1.363 . S
C1442 C1447 1.379 . S
C1442 N1449 1.356 . S
C1443 C1442 1.363 . S
C1443 C1446 1.363 . S
N1444 C1446 1.356 . S
N1444 H1456 0.984 . S
N1444 H1457 0.985 . S
N1445 C1447 1.356 . S
N1445 H1450 0.984 . S
N1445 H1451 0.985 . S
C1446 C1440 1.379 . S
C1446 C1443 1.363 . S
C1446 N1444 1.356 . S
C1447 C1441 1.363 . S
C1447 C1442 1.379 . S
C1447 N1445 1.356 . S
N1448 C1440 1.356 . S
N1448 H1454 0.984 . S
N1448 H1455 0.984 . S
N1449 C1442 1.356 . S
N1449 H1452 0.984 . S
N1449 H1453 0.985 . S
H1450 N1445 0.984 . S
H1451 N1445 0.985 . S
H1452 N1449 0.984 . S
H1453 N1449 0.985 . S
H1454 N1448 0.984 . S
H1455 N1448 0.984 . S
H1456 N1444 0.984 . S
H1457 N1444 0.985 . S
C1458 C1459 1.363 . S
C1458 C1464 1.379 . S
C1458 N1466 1.356 . S
C1459 C1458 1.363 . S
C1459 C1465 1.363 . S
C1460 C1461 1.363 . S
C1460 C1465 1.379 . S
C1460 N1467 1.356 . S
C1461 C1460 1.363 . S
C1461 C1464 1.363 . S
N1462 C1464 1.356 . S
N1462 H1474 0.984 . S
N1462 H1475 0.985 . S
N1463 C1465 1.356 . S
N1463 H1468 0.984 . S
N1463 H1469 0.985 . S
C1464 C1458 1.379 . S
C1464 C1461 1.363 . S
C1464 N1462 1.356 . S
C1465 C1459 1.363 . S
C1465 C1460 1.379 . S
C1465 N1463 1.356 . S
N1466 C1458 1.356 . S
N1466 H1472 0.984 . S
N1466 H1473 0.984 . S
N1467 C1460 1.356 . S
N1467 H1470 0.984 . S
N1467 H1471 0.985 . S
H1468 N1463 0.984 . S
H1469 N1463 0.985 . S
H1470 N1467 0.984 . S
H1471 N1467 0.985 . S
H1472 N1466 0.984 . S
H1473 N1466 0.984 . S
H1474 N1462 0.984 . S
H1475 N1462 0.985 . S
C1476 C1477 1.363 . S
C1476 C1482 1.379 . S
C1476 N1484 1.356 . S
C1477 C1476 1.363 . S
C1477 C1483 1.363 . S
C1478 C1479 1.363 . S
C1478 C1483 1.379 . S
C1478 N1485 1.356 . S
C1479 C1478 1.363 . S
C1479 C1482 1.363 . S
N1480 C1482 1.356 . S
N1480 H1492 0.984 . S
N1480 H1493 0.985 . S
N1481 C1483 1.356 . S
N1481 H1486 0.984 . S
N1481 H1487 0.985 . S
C1482 C1476 1.379 . S
C1482 C1479 1.363 . S
C1482 N1480 1.356 . S
C1483 C1477 1.363 . S
C1483 C1478 1.379 . S
C1483 N1481 1.356 . S
N1484 C1476 1.356 . S
N1484 H1490 0.984 . S
N1484 H1491 0.984 . S
N1485 C1478 1.356 . S
N1485 H1488 0.984 . S
N1485 H1489 0.985 . S
H1486 N1481 0.984 . S
H1487 N1481 0.985 . S
H1488 N1485 0.984 . S
H1489 N1485 0.985 . S
H1490 N1484 0.984 . S
H1491 N1484 0.984 . S
H1492 N1480 0.984 . S
H1493 N1480 0.985 . S
C523 C253 1.573 . S
C525 C348 1.558 . S
C541 C272 1.510 . S
C543 C368 1.492 . S
C559 C234 1.515 . S
C561 C391 1.531 . S
C577 C215 1.437 . S
C579 C371 1.446 1_556 S
C597 C388 1.470 . S
C595 C177 1.483 . S
C613 C196 1.515 . S
C615 C351 1.522 . S
C633 C358 1.565 . S
C631 C220 1.459 . S
C651 C378 1.426 . S
C649 C182 1.384 . S
C667 C201 1.528 . S
C669 C383 1.605 . S
C685 C258 1.438 . S
C687 C363 1.516 . S
C703 C277 1.357 . S
C705 C398 1.445 . S
C723 C343 1.605 . S
C721 C239 1.501 . S
C741 C408 1.558 . S
C739 C25 1.572 . S
C757 C44 1.511 . S
C759 C428 1.492 . S
C775 C6 1.515 . S
C777 C451 1.531 . S
C793 C329 1.437 . S
C795 C431 1.447 . S
C811 C291 1.483 . S
C813 C448 1.470 . S
C829 C310 1.515 . S
C831 C411 1.522 . S
C847 C334 1.459 . S
C849 C418 1.560 . S
C865 C296 1.384 . S
C867 C438 1.426 . S
C885 C443 1.605 . S
C883 C315 1.528 . S
C901 C30 1.438 1_565 S
C903 C423 1.516 . S
C921 C458 1.445 . S
C919 C49 1.357 1_455 S
C937 C11 1.501 . S
C939 C403 1.605 . S
C957 C468 1.558 . S
C955 C139 1.572 . S
C973 C158 1.510 . S
C975 C488 1.492 . S
C993 C511 1.531 . S
C991 C120 1.514 . S
C1011 C491 1.447 . S
C1009 C101 1.437 . S
C1029 C508 1.470 . S
C1027 C63 1.483 . S
C1045 C82 1.515 . S
C1047 C471 1.522 . S
C1063 C106 1.459 . S
C1065 C478 1.560 . S
C1081 C68 1.384 . S
C1083 C498 1.426 . S
C1101 C503 1.604 . S
C1099 C87 1.528 1_545 S
C1117 C144 1.438 . S
C1119 C483 1.516 . S
C1135 C163 1.357 . S
C1137 C518 1.445 . S
C1153 C125 1.501 . S
C1155 C463 1.604 . S
C1171 C287 1.438 . S
C1173 C361 1.380 . S
C1191 C381 1.649 . S
C1189 C306 1.740 . S
C1207 C325 1.540 . S
C1209 C390 1.517 . S
C1225 C116 1.673 . S
C1227 C370 1.635 . S
C1243 C135 1.645 . S
C1245 C401 1.568 . S
C1263 C350 1.374 . S
C1261 C154 1.385 . S
C1279 C59 1.439 . S
C1281 C421 1.380 . S
C1297 C78 1.740 . S
C1299 C441 1.649 . S
C1315 C97 1.540 . S
C1317 C450 1.517 . S
C1333 C230 1.673 . S
C1335 C430 1.635 . S
C1353 C461 1.568 . S
C1351 C249 1.645 . S
C1369 C268 1.385 . S
C1371 C410 1.374 . S
C1387 C173 1.438 . S
C1389 C481 1.380 . S
C1405 C192 1.740 . S
C1407 C501 1.649 . S
C1425 C510 1.517 . S
C1423 C211 1.540 . S
C1441 C2 1.673 . S
C1443 C490 1.635 . S
C1459 C21 1.645 . S
C1461 C521 1.568 . S
C1477 C40 1.385 . S
C1479 C470 1.374 . S
