# Generated by pormake.
# Topology anh, (6,3)-cn, num edge types: 1
# Building blocks:
#     Node 0, Type 0, BuildingBlock: BETGAK_clean_sbu_0, # of connection points: 6
#     Node 1, Type 0, BuildingBlock: BETGAK_clean_sbu_0, # of connection points: 6
#     Node 2, Type 0, BuildingBlock: BETGAK_clean_sbu_0, # of connection points: 6
#     Node 3, Type 1, BuildingBlock: BETDAH_clean_linker_0, # of connection points: 3
#     Node 4, Type 1, BuildingBlock: BETDAH_clean_linker_0, # of connection points: 3
#     Node 5, Type 1, BuildingBlock: BETDAH_clean_linker_0, # of connection points: 3
#     Node 6, Type 1, BuildingBlock: BETDAH_clean_linker_0, # of connection points: 3
#     Node 7, Type 1, BuildingBlock: BETDAH_clean_linker_0, # of connection points: 3
#     Node 8, Type 1, BuildingBlock: BETDAH_clean_linker_0, # of connection points: 3
#     Edge 9, Type (0, 1), BuildingBlock: AJUNOK_clean_linker_0, # of connection points: 2
#     Edge 10, Type (0, 1), BuildingBlock: AJUNOK_clean_linker_0, # of connection points: 2
#     Edge 11, Type (0, 1), BuildingBlock: AJUNOK_clean_linker_0, # of connection points: 2
#     Edge 12, Type (0, 1), BuildingBlock: AJUNOK_clean_linker_0, # of connection points: 2
#     Edge 13, Type (0, 1), BuildingBlock: AJUNOK_clean_linker_0, # of connection points: 2
#     Edge 14, Type (0, 1), BuildingBlock: AJUNOK_clean_linker_0, # of connection points: 2
#     Edge 15, Type (0, 1), BuildingBlock: AJUNOK_clean_linker_0, # of connection points: 2
#     Edge 16, Type (0, 1), BuildingBlock: AJUNOK_clean_linker_0, # of connection points: 2
#     Edge 17, Type (0, 1), BuildingBlock: AJUNOK_clean_linker_0, # of connection points: 2
#     Edge 18, Type (0, 1), BuildingBlock: AJUNOK_clean_linker_0, # of connection points: 2
#     Edge 19, Type (0, 1), BuildingBlock: AJUNOK_clean_linker_0, # of connection points: 2
#     Edge 20, Type (0, 1), BuildingBlock: AJUNOK_clean_linker_0, # of connection points: 2
#     Edge 21, Type (0, 1), BuildingBlock: AJUNOK_clean_linker_0, # of connection points: 2
#     Edge 22, Type (0, 1), BuildingBlock: AJUNOK_clean_linker_0, # of connection points: 2
#     Edge 23, Type (0, 1), BuildingBlock: AJUNOK_clean_linker_0, # of connection points: 2
#     Edge 24, Type (0, 1), BuildingBlock: AJUNOK_clean_linker_0, # of connection points: 2
#     Edge 25, Type (0, 1), BuildingBlock: AJUNOK_clean_linker_0, # of connection points: 2
#     Edge 26, Type (0, 1), BuildingBlock: AJUNOK_clean_linker_0, # of connection points: 2
# Relax obj value: 0.215
# Max RMSD: 0.211
# Mean RMSD: 0.121
data_MOF--net-anh--node1-BETGAK_clean_sbu_0--node2-BETDAH_clean_linker_0--edge1-AJUNOK_clean_linker_0
_symmetry_space_group_name_H-M    P1
_symmetry_Int_Tables_number       1
_symmetry_cell_setting            triclinic
loop_
_symmetry_equiv_pos_as_xyz
'x, y, z'
_cell_length_a     22.74907
_cell_length_b     29.560276
_cell_length_c     36.168397
_cell_angle_alpha  93.361587
_cell_angle_beta   90.247894
_cell_angle_gamma 132.52142
loop_
_atom_site_label
_atom_site_type_symbol
_atom_site_fract_x
_atom_site_fract_y
_atom_site_fract_z
_atom_type_partial_charge
La0 La 0.23425 0.58819 0.16221 0.0
La1 La 1.13193 0.61168 0.17375 0.0
C2 C 0.32331 0.57583 0.13687 0.0
C3 C 0.37556 0.56858 0.12197 0.0
C4 C 0.40144 0.5479 0.14494 0.0
C5 C 0.41949 0.51486 0.12919 0.0
C6 C 0.41267 0.50329 0.09047 0.0
C7 C 0.39928 0.53273 0.06769 0.0
C8 C 0.37979 0.56484 0.08345 0.0
C9 C 0.18932 0.5759 0.23075 0.0
C10 C 0.31428 0.72682 0.16765 0.0
C11 C 1.06141 0.64177 0.20164 0.0
C12 C 0.97672 0.60003 0.20847 0.0
C13 C 0.9299 0.60748 0.19013 0.0
C14 C 0.84949 0.55652 0.18138 0.0
C15 C 0.81563 0.49816 0.19132 0.0
C16 C 0.85962 0.49273 0.21444 0.0
C17 C 0.94004 0.54359 0.22303 0.0
C18 C 1.1312 0.57886 0.10382 0.0
C19 C 1.05141 0.47391 0.16767 0.0
O20 O 0.33518 0.60021 0.17069 0.0
O21 O 0.26176 0.55897 0.11724 0.0
O22 O 0.19927 0.54206 0.21361 0.0
O23 O 0.21014 0.61713 0.21028 0.0
O24 O 0.32643 0.68894 0.16722 0.0
O25 O 0.24167 0.70595 0.16776 0.0
O26 O 1.07585 0.64485 0.1664 0.0
O27 O 1.10301 0.6351 0.22147 0.0
O28 O 1.06788 0.5602 0.11994 0.0
O29 O 0.19089 0.6155 0.12647 0.0
O30 O 1.04713 0.51331 0.18303 0.0
O31 O 1.11701 0.49453 0.15179 0.0
H32 H 0.39785 0.55022 0.17477 0.0
H33 H 0.43006 0.49283 0.14734 0.0
H34 H 0.39627 0.5259 0.03774 0.0
H35 H 0.36014 0.58105 0.06548 0.0
H36 H 0.95739 0.65046 0.17844 0.0
H37 H 0.81654 0.56151 0.16316 0.0
H38 H 0.83417 0.4481 0.22247 0.0
H39 H 0.97488 0.53656 0.23724 0.0
La40 La 0.74106 0.0821 0.47935 0.0
La41 La 0.62815 0.09658 0.47333 0.0
C42 C 0.81203 0.04841 0.49774 0.0
C43 C 0.78583 0.99012 0.50835 0.0
C44 C 0.78735 0.95378 0.48244 0.0
C45 C 0.76694 0.90013 0.49237 0.0
C46 C 0.74451 0.88173 0.52842 0.0
C47 C 0.74088 0.91706 0.55416 0.0
C48 C 0.76115 0.97085 0.54418 0.0
C49 C 0.71847 0.09816 0.41154 0.0
C50 C 0.55443 0.96321 0.46908 0.0
C51 C 0.56008 0.13385 0.45841 0.0
C52 C 0.5773 0.18894 0.47427 0.0
C53 C 0.59162 0.20448 0.51278 0.0
C54 C 0.61161 0.25819 0.52765 0.0
C55 C 0.61888 0.29784 0.50433 0.0
C56 C 0.60622 0.28304 0.46577 0.0
C57 C 0.58555 0.22887 0.45085 0.0
C58 C 0.65363 0.08359 0.54164 0.0
C59 C 0.81724 0.21693 0.48032 0.0
O60 O 0.79444 0.04846 0.46329 0.0
O61 O 0.80021 0.0769 0.52097 0.0
O62 O 0.78586 0.11922 0.4259 0.0
O63 O 0.665 0.0651 0.43401 0.0
O64 O 0.62444 0.98793 0.4845 0.0
O65 O 0.54596 0.99907 0.45541 0.0
O66 O 0.5323 0.09107 0.481 0.0
O67 O 0.61595 0.14474 0.43868 0.0
O68 O 0.58562 0.06157 0.52766 0.0
O69 O 0.70556 0.11523 0.5184 0.0
O70 O 0.74313 0.19281 0.47421 0.0
O71 O 0.83222 0.18192 0.48634 0.0
H72 H 0.80628 0.96762 0.45468 0.0
H73 H 0.77215 0.87452 0.47227 0.0
H74 H 0.72398 0.90371 0.58215 0.0
H75 H 0.75898 0.99779 0.56474 0.0
H76 H 0.58818 0.17551 0.53146 0.0
H77 H 0.62262 0.26927 0.55742 0.0
H78 H 0.61159 0.31303 0.44726 0.0
H79 H 0.57657 0.21835 0.42104 0.0
La80 La 0.76269 0.63838 0.85705 0.0
La81 La 0.64097 0.50353 0.85453 0.0
C82 C 0.84266 0.74776 0.84249 0.0
C83 C 0.82414 0.78436 0.83208 0.0
C84 C 0.86855 0.84353 0.84956 0.0
C85 C 0.85363 0.87993 0.83968 0.0
C86 C 0.79401 0.85772 0.81208 0.0
C87 C 0.74866 0.79806 0.79486 0.0
C88 C 0.76343 0.76145 0.80487 0.0
C89 C 0.72982 0.59237 0.92139 0.0
C90 C 0.57346 0.56785 0.86088 0.0
C91 C 0.56724 0.39319 0.86331 0.0
C92 C 0.58311 0.3546 0.84905 0.0
C93 C 0.57615 0.33923 0.81072 0.0
C94 C 0.59559 0.3059 0.79718 0.0
C95 C 0.62281 0.28741 0.82154 0.0
C96 C 0.63047 0.30305 0.85983 0.0
C97 C 0.61046 0.33618 0.87347 0.0
C98 C 0.67033 0.54735 0.78914 0.0
C99 C 0.83123 0.57454 0.85796 0.0
O100 O 0.82739 0.73048 0.87629 0.0
O101 O 0.82094 0.70378 0.81797 0.0
O102 O 0.80204 0.63903 0.91299 0.0
O103 O 0.68165 0.57483 0.8948 0.0
O104 O 0.64685 0.61762 0.8518 0.0
O105 O 0.5602 0.51825 0.8687 0.0
O106 O 0.54462 0.4101 0.83855 0.0
O107 O 0.62051 0.43862 0.88793 0.0
O108 O 0.60108 0.49862 0.79854 0.0
O109 O 0.7214 0.56725 0.8152 0.0
O110 O 0.75488 0.52273 0.85979 0.0
O111 O 0.84924 0.62707 0.85408 0.0
H112 H 0.91516 0.86173 0.87075 0.0
H113 H 0.88936 0.92584 0.85337 0.0
H114 H 0.70136 0.77956 0.77404 0.0
H115 H 0.72753 0.71544 0.79132 0.0
H116 H 0.55633 0.35332 0.79097 0.0
H117 H 0.58889 0.29427 0.76756 0.0
H118 H 0.65299 0.29049 0.87914 0.0
H119 H 0.61755 0.34825 0.90305 0.0
H120 H 0.56621 0.9673 0.25501 0.0
H121 H 0.7431 0.16106 0.24004 0.0
H122 H 0.59921 0.02859 0.14602 0.0
C123 C 0.5978 1.0045 0.23686 0.0
C124 C 0.57672 0.99054 0.19883 0.0
C125 C 0.65794 0.06548 0.25195 0.0
C126 C 0.69672 0.11386 0.22847 0.0
C127 C 0.67561 0.10074 0.19003 0.0
C128 C 0.61525 0.03892 0.17554 0.0
N129 N 0.71282 0.1478 0.16499 0.0
C130 C 0.77991 0.21042 0.17301 0.0
H131 H 0.68404 0.48664 0.63159 0.0
H132 H 0.76029 0.66449 0.62578 0.0
H133 H 0.73169 0.56356 0.52631 0.0
C134 C 0.70191 0.52335 0.61519 0.0
C135 C 0.70686 0.51863 0.57668 0.0
C136 C 0.72053 0.57555 0.63292 0.0
C137 C 0.7451 0.62384 0.61214 0.0
C138 C 0.75071 0.61942 0.57366 0.0
C139 C 0.7305 0.56689 0.55623 0.0
N140 N 0.77897 0.6677 0.55156 0.0
C141 C 0.76047 0.70346 0.55663 0.0
H142 H 1.05142 0.56649 0.94241 0.0
H143 H 0.24086 0.56695 0.93486 0.0
H144 H 1.14156 0.57588 0.83612 0.0
C145 C 1.0913 0.5672 0.92552 0.0
C146 C 1.0878 0.57077 0.88725 0.0
C147 C 0.1452 0.5654 0.94286 0.0
C148 C 0.19945 0.56825 0.92141 0.0
C149 C 0.19923 0.57174 0.88263 0.0
C150 C 0.14297 0.57342 0.86582 0.0
N151 N 0.25302 0.57313 0.85979 0.0
C152 C 0.31268 0.57135 0.86915 0.0
H153 H 0.30109 0.71534 0.38555 0.0
H154 H 1.12659 0.52367 0.4064 0.0
H155 H 0.25947 0.66425 0.49755 0.0
C156 C 0.26891 0.67985 0.40487 0.0
C157 C 0.28717 0.69729 0.44293 0.0
C158 C 0.21215 0.6176 0.39124 0.0
C159 C 0.16982 0.57182 0.41659 0.0
C160 C 0.18622 0.5885 0.45515 0.0
C161 C 0.2458 0.6513 0.46799 0.0
N162 N 0.14624 0.54397 0.48191 0.0
C163 C 1.0823 0.48048 0.47478 0.0
H164 H 0.65723 0.14497 0.70009 0.0
H165 H 0.74763 0.05653 0.71021 0.0
H166 H 0.73972 0.14383 0.80679 0.0
C167 C 0.6813 0.13118 0.71719 0.0
C168 C 0.69392 0.14659 0.75557 0.0
C169 C 0.7007 0.09889 0.7006 0.0
C170 C 0.7318 0.08096 0.72284 0.0
C171 C 0.74513 0.09714 0.76136 0.0
C172 C 0.72708 0.13027 0.77724 0.0
N173 N 0.78179 0.08495 0.78496 0.0
C174 C 0.77061 0.03275 0.7811 0.0
H175 H 0.69697 0.44526 0.05495 0.0
H176 H 0.48442 0.34011 0.98322 0.0
H177 H 0.47926 0.27257 0.08595 0.0
C178 C 0.63596 0.40268 0.04748 0.0
C179 C 0.5939 0.3569 0.07243 0.0
C180 C 0.59684 0.39715 0.01531 0.0
C181 C 0.51654 0.3434 0.00706 0.0
C182 C 0.47374 0.29802 0.03241 0.0
C183 C 0.51327 0.3045 0.06483 0.0
N184 N 0.39058 0.26135 0.03246 0.0
C185 C 0.36886 0.29378 0.04308 0.0
C186 C 0.45788 0.44675 0.08765 0.0
C187 C 0.40455 0.4521 0.07499 0.0
C188 C 0.44415 0.3938 0.07773 0.0
C189 C 0.37696 0.34494 0.05487 0.0
H190 H 0.50984 0.48337 0.10568 0.0
H191 H 0.48689 0.39142 0.08763 0.0
S192 S 0.22082 0.33641 0.01358 0.0
N193 N 0.28173 0.40366 0.03828 0.0
N194 N 0.2589 0.30527 0.01855 0.0
C195 C 0.32447 0.35005 0.04125 0.0
C196 C 0.33764 0.40356 0.05155 0.0
C197 C 0.96009 0.30885 0.46817 0.0
C198 C 0.88476 0.28469 0.47917 0.0
C199 C 1.02376 0.37257 0.46558 0.0
C200 C 1.01444 0.41435 0.4741 0.0
H201 H 0.9698 0.27828 0.46116 0.0
H202 H 1.08085 0.38926 0.45734 0.0
S203 S 0.83304 0.37612 0.50765 0.0
N204 N 0.80672 0.30872 0.50045 0.0
N205 N 0.92643 0.42804 0.49592 0.0
C206 C 0.94024 0.39114 0.48555 0.0
C207 C 0.87535 0.32643 0.48797 0.0
C208 C 0.77071 0.92645 0.83086 0.0
C209 C 0.77894 0.89704 0.80228 0.0
C210 C 0.7644 0.96877 0.82313 0.0
C211 C 0.76604 0.98291 0.78667 0.0
H212 H 0.77085 0.91765 0.85951 0.0
H213 H 0.76074 0.99202 0.84602 0.0
S214 S 0.783 0.91731 0.70173 0.0
N215 N 0.78579 0.88375 0.73579 0.0
N216 N 0.77316 0.96359 0.72149 0.0
C217 C 0.77132 0.95265 0.75761 0.0
C218 C 0.77778 0.90937 0.76539 0.0
C219 C 0.67741 0.4379 0.16644 0.0
C220 C 0.74367 0.44368 0.17006 0.0
C221 C 0.62175 0.4024 0.1364 0.0
C222 C 0.63112 0.37178 0.10947 0.0
H223 H 0.67315 0.46582 0.18478 0.0
H224 H 0.57607 0.40402 0.13226 0.0
S225 S 0.78717 0.36491 0.10907 0.0
N226 N 0.81044 0.4102 0.14651 0.0
N227 N 0.70416 0.34274 0.09018 0.0
C228 C 0.69181 0.37173 0.11485 0.0
C229 C 0.74867 0.40786 0.14534 0.0
C230 C 0.41147 0.86981 0.44943 0.0
C231 C 0.48528 0.89487 0.46609 0.0
C232 C 0.34648 0.80592 0.44394 0.0
C233 C 0.35181 0.76403 0.45524 0.0
H234 H 0.40403 0.89968 0.43961 0.0
H235 H 0.29204 0.78902 0.42977 0.0
S236 S 0.52925 0.80421 0.50155 0.0
N237 N 0.55826 0.8715 0.49502 0.0
N238 N 0.43551 0.75154 0.4848 0.0
C239 C 0.42382 0.78796 0.47316 0.0
C240 C 0.49062 0.85324 0.47853 0.0
C241 C 0.68999 0.27149 0.77548 0.0
C242 C 0.64309 0.25203 0.80647 0.0
C243 C 0.70576 0.23691 0.75902 0.0
C244 C 0.6755 0.18181 0.77309 0.0
H245 H 0.71466 0.31384 0.76382 0.0
H246 H 0.74249 0.25366 0.73533 0.0
S247 S 0.54855 0.11002 0.85321 0.0
N248 N 0.56583 0.17365 0.8503 0.0
N249 N 0.59616 0.1088 0.81943 0.0
C250 C 0.62928 0.16204 0.80426 0.0
C251 C 0.61302 0.19718 0.82099 0.0
C252 C 0.78005 0.83908 0.57082 0.0
C253 C 0.73414 0.82979 0.5399 0.0
C254 C 0.78464 0.79543 0.57784 0.0
C255 C 0.74284 0.74141 0.55431 0.0
H256 H 0.81675 0.88203 0.58822 0.0
H257 H 0.82425 0.8055 0.60049 0.0
S258 S 0.60745 0.69191 0.47259 0.0
N259 N 0.64045 0.75985 0.4878 0.0
N260 N 0.64959 0.67795 0.50111 0.0
C261 C 0.69283 0.7296 0.52491 0.0
C262 C 0.68826 0.77389 0.51765 0.0
C263 C 0.88091 0.52013 0.8716 0.0
C264 C 0.89771 0.57321 0.86121 0.0
C265 C 0.94169 0.51873 0.87721 0.0
C266 C 1.02348 0.56977 0.8722 0.0
H267 H 0.82013 0.47942 0.87669 0.0
H268 H 0.92461 0.47745 0.88692 0.0
S269 S 1.10177 0.72024 0.84423 0.0
N270 N 1.00463 0.67853 0.84549 0.0
N271 N 1.1169 0.67533 0.85563 0.0
C272 C 1.04108 0.62261 0.86084 0.0
C273 C 0.9792 0.62441 0.85549 0.0
C274 C 0.45768 0.81911 0.18594 0.0
C275 C 0.38354 0.79452 0.17032 0.0
C276 C 0.52125 0.88288 0.19324 0.0
C277 C 0.51375 0.9247 0.18466 0.0
H278 H 0.46569 0.78886 0.19423 0.0
H279 H 0.57603 0.89961 0.20689 0.0
S280 S 0.33481 0.88478 0.14073 0.0
N281 N 0.30797 0.8176 0.14452 0.0
N282 N 0.42821 0.93745 0.15791 0.0
C283 C 0.44154 0.9011 0.16735 0.0
C284 C 0.37622 0.83604 0.16035 0.0
C285 C 0.59704 0.35097 0.55006 0.0
C286 C 0.64001 0.35452 0.52073 0.0
C287 C 0.61882 0.40413 0.56787 0.0
C288 C 0.68565 0.46298 0.55761 0.0
H289 H 0.54584 0.30661 0.55918 0.0
H290 H 0.58259 0.39892 0.58967 0.0
S291 S 0.81997 0.49696 0.48326 0.0
N292 N 0.75093 0.42107 0.48149 0.0
N293 N 0.79703 0.52144 0.51728 0.0
C294 C 0.72972 0.46706 0.52852 0.0
C295 C 0.70554 0.41274 0.50947 0.0
C296 C 0.51912 0.62161 0.85845 0.0
C297 C 0.50628 0.56847 0.86416 0.0
C298 C 0.45724 0.62258 0.86112 0.0
C299 C 0.37848 0.57063 0.86979 0.0
H300 H 0.57771 0.66315 0.85156 0.0
H301 H 0.47125 0.66457 0.85581 0.0
S302 S 0.31067 0.41927 0.88742 0.0
N303 N 0.40588 0.46193 0.87922 0.0
N304 N 0.29193 0.46403 0.88387 0.0
C305 C 0.36472 0.51736 0.87572 0.0
C306 C 0.42757 0.51627 0.87306 0.0
C307 C 0.9151 0.38347 0.18879 0.0
C308 C 0.98299 0.40582 0.16942 0.0
C309 C 0.84985 0.31984 0.19083 0.0
C310 C 0.85027 0.27606 0.17397 0.0
H311 H 0.91186 0.41532 0.20233 0.0
H312 H 0.79832 0.30489 0.20526 0.0
S313 S 1.01195 0.30808 0.1207 0.0
N314 N 1.04534 0.37694 0.13339 0.0
N315 N 0.9232 0.25825 0.13779 0.0
C316 C 0.91748 0.29714 0.15508 0.0
C317 C 0.98374 0.36173 0.15271 0.0
C318 C 0.20879 0.61088 0.04613 0.0
C319 C 1.13552 0.56984 0.06317 0.0
C320 C 0.21279 0.60713 0.00728 0.0
C321 C 0.14376 0.56182 0.98401 0.0
H322 H 0.26306 0.64782 0.06278 0.0
H323 H 0.26956 0.64172 0.99529 0.0
S324 S 0.93995 0.43679 0.01507 0.0
N325 N 0.9942 0.47813 0.05385 0.0
N326 N 1.00187 0.47041 0.98132 0.0
C327 C 1.07128 0.518 0.00097 0.0
C328 C 1.0671 0.52217 0.04036 0.0
C329 C 0.68766 0.12227 0.35353 0.0
C330 C 0.7023 0.08934 0.37115 0.0
C331 C 0.67623 0.11628 0.31467 0.0
C332 C 0.67866 0.07688 0.29246 0.0
H333 H 0.68545 0.15298 0.36983 0.0
H334 H 0.66356 0.14142 0.30201 0.0
S335 S 0.71609 0.98142 0.32584 0.0
N336 N 0.71924 1.0167 0.364 0.0
N337 N 0.69848 1.00556 0.29119 0.0
C338 C 0.69399 0.04423 0.31004 0.0
C339 C 0.70561 0.05042 0.34937 0.0
C340 C 0.62239 0.53227 0.72393 0.0
C341 C 0.68725 0.56272 0.75019 0.0
C342 C 0.6342 0.53919 0.68604 0.0
C343 C 0.71131 0.57749 0.67309 0.0
H344 H 0.56159 0.50106 0.73255 0.0
H345 H 0.58253 0.51289 0.66659 0.0
S346 S 0.9016 0.67031 0.72998 0.0
N347 N 0.8319 0.63456 0.76044 0.0
N348 N 0.85382 0.64851 0.6889 0.0
C349 C 0.77703 0.61049 0.69891 0.0
C350 C 0.76508 0.60296 0.73762 0.0
C351 C 0.60337 0.04539 0.60373 0.0
C352 C 0.66892 0.08303 0.58145 0.0
C353 C 0.61428 0.04786 0.6422 0.0
C354 C 0.69115 0.08738 0.65976 0.0
H355 H 0.54286 1.01517 0.59155 0.0
H356 H 0.5622 1.02038 0.65854 0.0
S357 S 0.88279 0.19339 0.61445 0.0
N358 N 0.81386 0.15976 0.57999 0.0
N359 N 0.83392 0.16337 0.6524 0.0
C360 C 0.75731 0.12322 0.63785 0.0
C361 C 0.74634 0.12126 0.59862 0.0
C362 C 0.74573 0.53278 0.95863 0.0
C363 C 0.70661 0.55328 0.95151 0.0
C364 C 0.71049 0.48255 0.97991 0.0
C365 C 0.63534 0.45167 0.99433 0.0
H366 H 0.8009 0.55292 0.94576 0.0
H367 H 0.74053 0.46623 0.9839 0.0
S368 S 0.51608 0.49501 0.98785 0.0
N369 N 0.59411 0.54403 0.96333 0.0
N370 N 0.52851 0.45059 0.0038 0.0
C371 C 0.59873 0.47479 0.98928 0.0
C372 C 0.63436 0.52548 0.96771 0.0
C373 C 0.26668 0.62415 0.29133 0.0
C374 C 0.19235 0.58333 0.27146 0.0
C375 C 0.27184 0.63313 0.33005 0.0
C376 C 0.20283 0.60223 0.3504 0.0
H377 H 0.32128 0.64949 0.27679 0.0
H378 H 0.33068 0.66507 0.34419 0.0
S379 S 0.99358 0.48928 0.31063 0.0
N380 N 1.04824 0.50979 0.27427 0.0
N381 N 1.05745 0.52849 0.34722 0.0
C382 C 1.12786 0.5604 0.33068 0.0
C383 C 1.12279 0.55068 0.29113 0.0
loop_
_geom_bond_atom_site_label_1
_geom_bond_atom_site_label_2
_geom_bond_distance
_geom_bond_site_symmetry_2
_ccdc_geom_bond_type
La0 C2 2.928 . S
La0 O20 2.521 . S
La0 O21 2.628 . S
La0 O22 2.554 . S
La0 O23 2.757 . S
La0 O24 2.470 . S
La0 O29 2.482 . S
La0 O31 2.503 1_455 S
La1 C11 2.928 . S
La1 O23 2.482 1_655 S
La1 O25 2.503 1_655 S
La1 O26 2.521 . S
La1 O27 2.628 . S
La1 O28 2.557 . S
La1 O29 2.757 1_655 S
La1 O30 2.470 . S
C2 La0 2.928 . S
C2 C3 1.503 . S
C2 O20 1.261 . S
C2 O21 1.243 . S
C3 C2 1.503 . S
C3 C4 1.394 . S
C3 C8 1.373 . S
C4 C3 1.394 . S
C4 C5 1.380 . S
C4 H32 0.930 . S
C5 C4 1.380 . S
C5 C6 1.376 . S
C5 H33 0.930 . S
C6 C5 1.376 . S
C6 C7 1.370 . S
C7 C6 1.370 . S
C7 C8 1.396 . S
C7 H34 0.929 . S
C8 C3 1.373 . S
C8 C7 1.396 . S
C8 H35 0.929 . S
C9 O22 1.240 . S
C9 O23 1.289 . S
C10 O24 1.258 . S
C10 O25 1.256 . S
C11 La1 2.928 . S
C11 C12 1.503 . S
C11 O26 1.261 . S
C11 O27 1.243 . S
C12 C11 1.503 . S
C12 C13 1.394 . S
C12 C17 1.373 . S
C13 C12 1.394 . S
C13 C14 1.380 . S
C13 H36 0.930 . S
C14 C13 1.380 . S
C14 C15 1.376 . S
C14 H37 0.930 . S
C15 C14 1.376 . S
C15 C16 1.370 . S
C16 C15 1.370 . S
C16 C17 1.396 . S
C16 H38 0.929 . S
C17 C12 1.373 . S
C17 C16 1.396 . S
C17 H39 0.929 . S
C18 O28 1.227 1_455 S
C18 O29 1.289 . S
C19 O30 1.258 . S
C19 O31 1.256 . S
O20 La0 2.521 . S
O20 C2 1.261 . S
O21 La0 2.628 . S
O21 C2 1.243 . S
O22 La0 2.554 . S
O22 C9 1.240 . S
O23 La0 2.757 . S
O23 La1 2.482 1_455 S
O23 C9 1.289 . S
O24 La0 2.470 . S
O24 C10 1.258 . S
O25 La1 2.503 1_455 S
O25 C10 1.256 . S
O26 La1 2.521 . S
O26 C11 1.261 . S
O27 La1 2.628 . S
O27 C11 1.243 . S
O28 La1 2.557 . S
O28 C18 1.227 1_655 S
O29 La0 2.482 . S
O29 La1 2.757 1_455 S
O29 C18 1.289 . S
O30 La1 2.470 . S
O30 C19 1.258 . S
O31 La0 2.503 1_655 S
O31 C19 1.256 . S
H32 C4 0.930 . S
H33 C5 0.930 . S
H34 C7 0.929 . S
H35 C8 0.929 . S
H36 C13 0.930 . S
H37 C14 0.930 . S
H38 C16 0.929 . S
H39 C17 0.929 . S
La40 C42 2.928 1_545 S
La40 O60 2.521 1_545 S
La40 O61 2.628 1_545 S
La40 O62 2.554 . S
La40 O63 2.757 . S
La40 O64 2.470 1_545 S
La40 O69 2.482 . S
La40 O71 2.503 . S
La41 C51 2.928 . S
La41 O63 2.482 . S
La41 O65 2.503 1_545 S
La41 O66 2.521 . S
La41 O67 2.628 . S
La41 O68 2.554 . S
La41 O69 2.757 . S
La41 O70 2.470 . S
C42 La40 2.928 1_565 S
C42 C43 1.503 . S
C42 O60 1.261 . S
C42 O61 1.243 . S
C43 C42 1.503 . S
C43 C44 1.394 . S
C43 C48 1.373 . S
C44 C43 1.394 . S
C44 C45 1.380 . S
C44 H72 0.930 . S
C45 C44 1.380 . S
C45 C46 1.376 . S
C45 H73 0.930 . S
C46 C45 1.376 . S
C46 C47 1.370 . S
C47 C46 1.370 . S
C47 C48 1.396 . S
C47 H74 0.929 . S
C48 C43 1.373 . S
C48 C47 1.396 . S
C48 H75 0.929 . S
C49 O62 1.240 . S
C49 O63 1.289 . S
C50 O64 1.258 . S
C50 O65 1.256 . S
C51 La41 2.928 . S
C51 C52 1.503 . S
C51 O66 1.261 . S
C51 O67 1.243 . S
C52 C51 1.503 . S
C52 C53 1.394 . S
C52 C57 1.373 . S
C53 C52 1.394 . S
C53 C54 1.380 . S
C53 H76 0.930 . S
C54 C53 1.380 . S
C54 C55 1.376 . S
C54 H77 0.930 . S
C55 C54 1.376 . S
C55 C56 1.370 . S
C56 C55 1.370 . S
C56 C57 1.396 . S
C56 H78 0.929 . S
C57 C52 1.373 . S
C57 C56 1.396 . S
C57 H79 0.929 . S
C58 O68 1.240 . S
C58 O69 1.289 . S
C59 O70 1.258 . S
C59 O71 1.256 . S
O60 La40 2.521 1_565 S
O60 C42 1.261 . S
O61 La40 2.628 1_565 S
O61 C42 1.243 . S
O62 La40 2.554 . S
O62 C49 1.240 . S
O63 La40 2.757 . S
O63 La41 2.482 . S
O63 C49 1.289 . S
O64 La40 2.470 1_565 S
O64 C50 1.258 . S
O65 La41 2.503 1_565 S
O65 C50 1.256 . S
O66 La41 2.521 . S
O66 C51 1.261 . S
O67 La41 2.628 . S
O67 C51 1.243 . S
O68 La41 2.554 . S
O68 C58 1.240 . S
O69 La40 2.482 . S
O69 La41 2.757 . S
O69 C58 1.289 . S
O70 La41 2.470 . S
O70 C59 1.258 . S
O71 La40 2.503 . S
O71 C59 1.256 . S
H72 C44 0.930 . S
H73 C45 0.930 . S
H74 C47 0.929 . S
H75 C48 0.929 . S
H76 C53 0.930 . S
H77 C54 0.930 . S
H78 C56 0.929 . S
H79 C57 0.929 . S
La80 C82 2.928 . S
La80 O100 2.521 . S
La80 O101 2.628 . S
La80 O102 2.554 . S
La80 O103 2.757 . S
La80 O104 2.470 . S
La80 O109 2.482 . S
La80 O111 2.503 . S
La81 C91 2.928 . S
La81 O103 2.482 . S
La81 O105 2.503 . S
La81 O106 2.521 . S
La81 O107 2.628 . S
La81 O108 2.554 . S
La81 O109 2.757 . S
La81 O110 2.470 . S
C82 La80 2.928 . S
C82 C83 1.503 . S
C82 O100 1.261 . S
C82 O101 1.243 . S
C83 C82 1.503 . S
C83 C84 1.394 . S
C83 C88 1.373 . S
C84 C83 1.394 . S
C84 C85 1.380 . S
C84 H112 0.930 . S
C85 C84 1.380 . S
C85 C86 1.376 . S
C85 H113 0.930 . S
C86 C85 1.376 . S
C86 C87 1.370 . S
C87 C86 1.370 . S
C87 C88 1.396 . S
C87 H114 0.929 . S
C88 C83 1.373 . S
C88 C87 1.396 . S
C88 H115 0.929 . S
C89 O102 1.240 . S
C89 O103 1.289 . S
C90 O104 1.258 . S
C90 O105 1.256 . S
C91 La81 2.928 . S
C91 C92 1.503 . S
C91 O106 1.261 . S
C91 O107 1.243 . S
C92 C91 1.503 . S
C92 C93 1.394 . S
C92 C97 1.373 . S
C93 C92 1.394 . S
C93 C94 1.380 . S
C93 H116 0.930 . S
C94 C93 1.380 . S
C94 C95 1.376 . S
C94 H117 0.930 . S
C95 C94 1.376 . S
C95 C96 1.370 . S
C96 C95 1.370 . S
C96 C97 1.396 . S
C96 H118 0.929 . S
C97 C92 1.373 . S
C97 C96 1.396 . S
C97 H119 0.929 . S
C98 O108 1.240 . S
C98 O109 1.289 . S
C99 O110 1.258 . S
C99 O111 1.256 . S
O100 La80 2.521 . S
O100 C82 1.261 . S
O101 La80 2.628 . S
O101 C82 1.243 . S
O102 La80 2.554 . S
O102 C89 1.240 . S
O103 La80 2.757 . S
O103 La81 2.482 . S
O103 C89 1.289 . S
O104 La80 2.470 . S
O104 C90 1.258 . S
O105 La81 2.503 . S
O105 C90 1.256 . S
O106 La81 2.521 . S
O106 C91 1.261 . S
O107 La81 2.628 . S
O107 C91 1.243 . S
O108 La81 2.554 . S
O108 C98 1.240 . S
O109 La80 2.482 . S
O109 La81 2.757 . S
O109 C98 1.289 . S
O110 La81 2.470 . S
O110 C99 1.258 . S
O111 La80 2.503 . S
O111 C99 1.256 . S
H112 C84 0.930 . S
H113 C85 0.930 . S
H114 C87 0.929 . S
H115 C88 0.929 . S
H116 C93 0.930 . S
H117 C94 0.930 . S
H118 C96 0.929 . S
H119 C97 0.929 . S
H120 C123 0.929 . S
H121 C126 0.929 . S
H122 C128 0.926 1_565 S
C123 H120 0.929 . S
C123 C124 1.398 . S
C123 C125 1.396 1_565 S
C124 C123 1.398 . S
C124 C128 1.407 1_565 S
C125 C123 1.396 1_545 S
C125 C126 1.394 . S
C126 H121 0.929 . S
C126 C125 1.394 . S
C126 C127 1.382 . S
C127 C126 1.382 . S
C127 C128 1.392 . S
C127 N129 1.420 . S
C128 H122 0.926 1_545 S
C128 C124 1.407 1_545 S
C128 C127 1.392 . S
N129 C127 1.420 . S
N129 C130 1.244 . S
C130 N129 1.244 . S
H131 C134 0.929 . S
H132 C137 0.929 . S
H133 C139 0.930 . S
C134 H131 0.929 . S
C134 C135 1.398 . S
C134 C136 1.396 . S
C135 C134 1.398 . S
C135 C139 1.407 . S
C136 C134 1.396 . S
C136 C137 1.394 . S
C137 H132 0.929 . S
C137 C136 1.394 . S
C137 C138 1.382 . S
C138 C137 1.382 . S
C138 C139 1.392 . S
C138 N140 1.420 . S
C139 H133 0.930 . S
C139 C135 1.407 . S
C139 C138 1.392 . S
N140 C138 1.420 . S
N140 C141 1.244 . S
C141 N140 1.244 . S
H142 C145 0.929 1_655 S
H143 C148 0.929 . S
H144 C150 0.930 . S
C145 H142 0.929 1_455 S
C145 C146 1.398 1_455 S
C145 C147 1.396 . S
C146 C145 1.398 1_655 S
C146 C150 1.407 1_655 S
C147 C145 1.396 . S
C147 C148 1.394 . S
C148 H143 0.929 . S
C148 C147 1.394 . S
C148 C149 1.382 . S
C149 C148 1.382 . S
C149 C150 1.392 . S
C149 N151 1.420 . S
C150 H144 0.930 . S
C150 C146 1.407 1_455 S
C150 C149 1.392 . S
N151 C149 1.420 . S
N151 C152 1.244 . S
C152 N151 1.244 . S
H153 C156 0.929 . S
H154 C159 0.929 . S
H155 C161 0.930 . S
C156 H153 0.929 . S
C156 C157 1.398 . S
C156 C158 1.396 . S
C157 C156 1.398 . S
C157 C161 1.407 . S
C158 C156 1.396 . S
C158 C159 1.394 1_455 S
C159 H154 0.929 . S
C159 C158 1.394 1_655 S
C159 C160 1.382 . S
C160 C159 1.382 . S
C160 C161 1.392 1_655 S
C160 N162 1.420 . S
C161 H155 0.930 . S
C161 C157 1.407 . S
C161 C160 1.392 1_455 S
N162 C160 1.420 . S
N162 C163 1.244 . S
C163 N162 1.244 . S
H164 C167 0.929 . S
H165 C170 0.929 1_565 S
H166 C172 0.930 . S
C167 H164 0.929 . S
C167 C168 1.398 . S
C167 C169 1.396 . S
C168 C167 1.398 . S
C168 C172 1.407 . S
C169 C167 1.396 . S
C169 C170 1.394 . S
C170 H165 0.929 1_545 S
C170 C169 1.394 . S
C170 C171 1.382 . S
C171 C170 1.382 . S
C171 C172 1.392 . S
C171 N173 1.420 . S
C172 H166 0.930 . S
C172 C168 1.407 . S
C172 C171 1.392 . S
N173 C171 1.420 . S
N173 C174 1.244 1_545 S
C174 N173 1.244 1_565 S
H175 C178 0.929 . S
H176 C181 0.929 . S
H177 C183 0.930 . S
C178 H175 0.929 . S
C178 C179 1.398 . S
C178 C180 1.396 . S
C179 C178 1.398 . S
C179 C183 1.407 . S
C180 C178 1.396 . S
C180 C181 1.394 . S
C181 H176 0.929 . S
C181 C180 1.394 . S
C181 C182 1.382 . S
C182 C181 1.382 . S
C182 C183 1.392 . S
C182 N184 1.420 . S
C183 H177 0.930 . S
C183 C179 1.407 . S
C183 C182 1.392 . S
N184 C182 1.420 . S
N184 C185 1.244 . S
C185 N184 1.244 . S
C186 C187 1.369 . S
C186 C188 1.419 . S
C186 H190 0.930 . S
C187 C186 1.369 . S
C187 C196 1.429 . S
C188 C186 1.419 . S
C188 C189 1.363 . S
C188 H191 0.929 . S
C189 C188 1.363 . S
C189 C195 1.428 . S
H190 C186 0.930 . S
H191 C188 0.929 . S
S192 N193 1.613 . S
S192 N194 1.610 . S
N193 S192 1.613 . S
N193 C196 1.350 . S
N194 S192 1.610 . S
N194 C195 1.351 . S
C195 C189 1.428 . S
C195 N194 1.351 . S
C195 C196 1.434 . S
C196 C187 1.429 . S
C196 N193 1.350 . S
C196 C195 1.434 . S
C197 C198 1.369 . S
C197 C199 1.419 . S
C197 H201 0.930 . S
C198 C197 1.369 . S
C198 C207 1.429 . S
C199 C197 1.419 . S
C199 C200 1.363 . S
C199 H202 0.929 . S
C200 C199 1.363 . S
C200 C206 1.428 . S
H201 C197 0.930 . S
H202 C199 0.929 . S
S203 N204 1.613 . S
S203 N205 1.610 . S
N204 S203 1.613 . S
N204 C207 1.350 . S
N205 S203 1.610 . S
N205 C206 1.351 . S
C206 C200 1.428 . S
C206 N205 1.351 . S
C206 C207 1.434 . S
C207 C198 1.429 . S
C207 N204 1.350 . S
C207 C206 1.434 . S
C208 C209 1.369 . S
C208 C210 1.419 . S
C208 H212 0.930 . S
C209 C208 1.369 . S
C209 C218 1.429 . S
C210 C208 1.419 . S
C210 C211 1.363 . S
C210 H213 0.929 . S
C211 C210 1.363 . S
C211 C217 1.428 . S
H212 C208 0.930 . S
H213 C210 0.929 . S
S214 N215 1.613 . S
S214 N216 1.610 . S
N215 S214 1.613 . S
N215 C218 1.350 . S
N216 S214 1.610 . S
N216 C217 1.351 . S
C217 C211 1.428 . S
C217 N216 1.351 . S
C217 C218 1.434 . S
C218 C209 1.429 . S
C218 N215 1.350 . S
C218 C217 1.434 . S
C219 C220 1.369 . S
C219 C221 1.419 . S
C219 H223 0.930 . S
C220 C219 1.369 . S
C220 C229 1.429 . S
C221 C219 1.419 . S
C221 C222 1.363 . S
C221 H224 0.929 . S
C222 C221 1.363 . S
C222 C228 1.428 . S
H223 C219 0.930 . S
H224 C221 0.929 . S
S225 N226 1.613 . S
S225 N227 1.610 . S
N226 S225 1.613 . S
N226 C229 1.350 . S
N227 S225 1.610 . S
N227 C228 1.351 . S
C228 C222 1.428 . S
C228 N227 1.351 . S
C228 C229 1.434 . S
C229 C220 1.429 . S
C229 N226 1.350 . S
C229 C228 1.434 . S
C230 C231 1.369 . S
C230 C232 1.419 . S
C230 H234 0.930 . S
C231 C230 1.369 . S
C231 C240 1.429 . S
C232 C230 1.419 . S
C232 C233 1.363 . S
C232 H235 0.929 . S
C233 C232 1.363 . S
C233 C239 1.428 . S
H234 C230 0.930 . S
H235 C232 0.929 . S
S236 N237 1.613 . S
S236 N238 1.610 . S
N237 S236 1.613 . S
N237 C240 1.350 . S
N238 S236 1.610 . S
N238 C239 1.351 . S
C239 C233 1.428 . S
C239 N238 1.351 . S
C239 C240 1.434 . S
C240 C231 1.429 . S
C240 N237 1.350 . S
C240 C239 1.434 . S
C241 C242 1.369 . S
C241 C243 1.419 . S
C241 H245 0.930 . S
C242 C241 1.369 . S
C242 C251 1.429 . S
C243 C241 1.419 . S
C243 C244 1.363 . S
C243 H246 0.929 . S
C244 C243 1.363 . S
C244 C250 1.428 . S
H245 C241 0.930 . S
H246 C243 0.929 . S
S247 N248 1.613 . S
S247 N249 1.610 . S
N248 S247 1.613 . S
N248 C251 1.350 . S
N249 S247 1.610 . S
N249 C250 1.351 . S
C250 C244 1.428 . S
C250 N249 1.351 . S
C250 C251 1.434 . S
C251 C242 1.429 . S
C251 N248 1.350 . S
C251 C250 1.434 . S
C252 C253 1.369 . S
C252 C254 1.419 . S
C252 H256 0.930 . S
C253 C252 1.369 . S
C253 C262 1.429 . S
C254 C252 1.419 . S
C254 C255 1.363 . S
C254 H257 0.929 . S
C255 C254 1.363 . S
C255 C261 1.428 . S
H256 C252 0.930 . S
H257 C254 0.929 . S
S258 N259 1.613 . S
S258 N260 1.610 . S
N259 S258 1.613 . S
N259 C262 1.350 . S
N260 S258 1.610 . S
N260 C261 1.351 . S
C261 C255 1.428 . S
C261 N260 1.351 . S
C261 C262 1.434 . S
C262 C253 1.429 . S
C262 N259 1.350 . S
C262 C261 1.434 . S
C263 C264 1.369 . S
C263 C265 1.419 . S
C263 H267 0.930 . S
C264 C263 1.369 . S
C264 C273 1.429 . S
C265 C263 1.419 . S
C265 C266 1.363 . S
C265 H268 0.929 . S
C266 C265 1.363 . S
C266 C272 1.428 . S
H267 C263 0.930 . S
H268 C265 0.929 . S
S269 N270 1.613 . S
S269 N271 1.610 . S
N270 S269 1.613 . S
N270 C273 1.350 . S
N271 S269 1.610 . S
N271 C272 1.351 . S
C272 C266 1.428 . S
C272 N271 1.351 . S
C272 C273 1.434 . S
C273 C264 1.429 . S
C273 N270 1.350 . S
C273 C272 1.434 . S
C274 C275 1.369 . S
C274 C276 1.419 . S
C274 H278 0.930 . S
C275 C274 1.369 . S
C275 C284 1.429 . S
C276 C274 1.419 . S
C276 C277 1.363 . S
C276 H279 0.929 . S
C277 C276 1.363 . S
C277 C283 1.428 . S
H278 C274 0.930 . S
H279 C276 0.929 . S
S280 N281 1.613 . S
S280 N282 1.610 . S
N281 S280 1.613 . S
N281 C284 1.350 . S
N282 S280 1.610 . S
N282 C283 1.351 . S
C283 C277 1.428 . S
C283 N282 1.351 . S
C283 C284 1.434 . S
C284 C275 1.429 . S
C284 N281 1.350 . S
C284 C283 1.434 . S
C285 C286 1.369 . S
C285 C287 1.419 . S
C285 H289 0.930 . S
C286 C285 1.369 . S
C286 C295 1.429 . S
C287 C285 1.419 . S
C287 C288 1.363 . S
C287 H290 0.929 . S
C288 C287 1.363 . S
C288 C294 1.428 . S
H289 C285 0.930 . S
H290 C287 0.929 . S
S291 N292 1.613 . S
S291 N293 1.610 . S
N292 S291 1.613 . S
N292 C295 1.350 . S
N293 S291 1.610 . S
N293 C294 1.351 . S
C294 C288 1.428 . S
C294 N293 1.351 . S
C294 C295 1.434 . S
C295 C286 1.429 . S
C295 N292 1.350 . S
C295 C294 1.434 . S
C296 C297 1.369 . S
C296 C298 1.419 . S
C296 H300 0.930 . S
C297 C296 1.369 . S
C297 C306 1.429 . S
C298 C296 1.419 . S
C298 C299 1.363 . S
C298 H301 0.929 . S
C299 C298 1.363 . S
C299 C305 1.428 . S
H300 C296 0.930 . S
H301 C298 0.929 . S
S302 N303 1.613 . S
S302 N304 1.610 . S
N303 S302 1.613 . S
N303 C306 1.350 . S
N304 S302 1.610 . S
N304 C305 1.351 . S
C305 C299 1.428 . S
C305 N304 1.351 . S
C305 C306 1.434 . S
C306 C297 1.429 . S
C306 N303 1.350 . S
C306 C305 1.434 . S
C307 C308 1.369 . S
C307 C309 1.419 . S
C307 H311 0.930 . S
C308 C307 1.369 . S
C308 C317 1.429 . S
C309 C307 1.419 . S
C309 C310 1.363 . S
C309 H312 0.929 . S
C310 C309 1.363 . S
C310 C316 1.428 . S
H311 C307 0.930 . S
H312 C309 0.929 . S
S313 N314 1.613 . S
S313 N315 1.610 . S
N314 S313 1.613 . S
N314 C317 1.350 . S
N315 S313 1.610 . S
N315 C316 1.351 . S
C316 C310 1.428 . S
C316 N315 1.351 . S
C316 C317 1.434 . S
C317 C308 1.429 . S
C317 N314 1.350 . S
C317 C316 1.434 . S
C318 C319 1.369 . S
C318 C320 1.419 . S
C318 H322 0.930 . S
C319 C318 1.369 . S
C319 C328 1.429 1_455 S
C320 C318 1.419 . S
C320 C321 1.363 1_554 S
C320 H323 0.929 1_554 S
C321 C320 1.363 1_556 S
C321 C327 1.428 1_455 S
H322 C318 0.930 . S
H323 C320 0.929 1_556 S
S324 N325 1.613 . S
S324 N326 1.610 1_554 S
N325 S324 1.613 . S
N325 C328 1.350 . S
N326 S324 1.610 1_556 S
N326 C327 1.351 . S
C327 C321 1.428 1_655 S
C327 N326 1.351 . S
C327 C328 1.434 1_556 S
C328 C319 1.429 1_655 S
C328 N325 1.350 . S
C328 C327 1.434 1_554 S
C329 C330 1.369 . S
C329 C331 1.419 . S
C329 H333 0.930 . S
C330 C329 1.369 . S
C330 C339 1.429 1_545 S
C331 C329 1.419 . S
C331 C332 1.363 . S
C331 H334 0.929 . S
C332 C331 1.363 . S
C332 C338 1.428 1_545 S
H333 C329 0.930 . S
H334 C331 0.929 . S
S335 N336 1.613 . S
S335 N337 1.610 . S
N336 S335 1.613 . S
N336 C339 1.350 . S
N337 S335 1.610 . S
N337 C338 1.351 . S
C338 C332 1.428 1_565 S
C338 N337 1.351 . S
C338 C339 1.434 . S
C339 C330 1.429 1_565 S
C339 N336 1.350 . S
C339 C338 1.434 . S
C340 C341 1.369 . S
C340 C342 1.419 . S
C340 H344 0.930 . S
C341 C340 1.369 . S
C341 C350 1.429 . S
C342 C340 1.419 . S
C342 C343 1.363 . S
C342 H345 0.929 . S
C343 C342 1.363 . S
C343 C349 1.428 . S
H344 C340 0.930 . S
H345 C342 0.929 . S
S346 N347 1.613 . S
S346 N348 1.610 . S
N347 S346 1.613 . S
N347 C350 1.350 . S
N348 S346 1.610 . S
N348 C349 1.351 . S
C349 C343 1.428 . S
C349 N348 1.351 . S
C349 C350 1.434 . S
C350 C341 1.429 . S
C350 N347 1.350 . S
C350 C349 1.434 . S
C351 C352 1.369 1_565 S
C351 C353 1.419 . S
C351 H355 0.930 . S
C352 C351 1.369 1_545 S
C352 C361 1.429 . S
C353 C351 1.419 . S
C353 C354 1.363 1_565 S
C353 H356 0.929 . S
C354 C353 1.363 1_545 S
C354 C360 1.428 . S
H355 C351 0.930 . S
H356 C353 0.929 . S
S357 N358 1.613 . S
S357 N359 1.610 . S
N358 S357 1.613 . S
N358 C361 1.350 . S
N359 S357 1.610 . S
N359 C360 1.351 . S
C360 C354 1.428 . S
C360 N359 1.351 . S
C360 C361 1.434 . S
C361 C352 1.429 . S
C361 N358 1.350 . S
C361 C360 1.434 . S
C362 C363 1.369 . S
C362 C364 1.419 1_556 S
C362 H366 0.930 . S
C363 C362 1.369 . S
C363 C372 1.429 . S
C364 C362 1.419 1_554 S
C364 C365 1.363 . S
C364 H367 0.929 . S
C365 C364 1.363 . S
C365 C371 1.428 1_554 S
H366 C362 0.930 . S
H367 C364 0.929 . S
S368 N369 1.613 . S
S368 N370 1.610 1_556 S
N369 S368 1.613 . S
N369 C372 1.350 . S
N370 S368 1.610 1_554 S
N370 C371 1.351 1_554 S
C371 C365 1.428 1_556 S
C371 N370 1.351 1_556 S
C371 C372 1.434 . S
C372 C363 1.429 . S
C372 N369 1.350 . S
C372 C371 1.434 . S
C373 C374 1.369 . S
C373 C375 1.419 . S
C373 H377 0.930 . S
C374 C373 1.369 . S
C374 C383 1.429 1_455 S
C375 C373 1.419 . S
C375 C376 1.363 . S
C375 H378 0.929 . S
C376 C375 1.363 . S
C376 C382 1.428 1_455 S
H377 C373 0.930 . S
H378 C375 0.929 . S
S379 N380 1.613 . S
S379 N381 1.610 . S
N380 S379 1.613 . S
N380 C383 1.350 . S
N381 S379 1.610 . S
N381 C382 1.351 . S
C382 C376 1.428 1_655 S
C382 N381 1.351 . S
C382 C383 1.434 . S
C383 C374 1.429 1_655 S
C383 N380 1.350 . S
C383 C382 1.434 . S
C187 C6 1.100 . S
C189 C185 1.235 . S
C198 C59 1.962 . S
C200 C163 1.909 . S
C209 C86 1.416 . S
C211 C174 1.476 . S
C220 C15 0.662 . S
C222 C179 0.618 . S
C233 C157 1.868 . S
C231 C50 1.911 . S
C244 C168 1.272 . S
C242 C95 1.251 . S
C253 C46 1.374 . S
C255 C141 1.402 . S
C264 C99 3.098 . S
C266 C146 3.062 . S
C275 C10 1.934 . S
C277 C124 1.922 . S
C288 C135 1.280 . S
C286 C55 1.240 . S
C299 C152 3.067 . S
C297 C90 3.103 . S
C308 C19 1.970 . S
C310 C130 1.946 . S
C321 C147 1.760 . S
C319 C18 1.719 . S
C330 C49 1.377 . S
C332 C125 1.449 . S
C341 C98 1.498 . S
C343 C136 1.537 . S
C354 C169 1.498 . S
C352 C58 1.488 . S
C365 C180 1.190 . S
C363 C89 1.186 . S
C374 C9 1.356 . S
C376 C158 1.409 . S
