# Generated by pormake.
# Topology the, (3,8)-cn, num edge types: 1
# Building blocks:
#     Node 0, Type 0, BuildingBlock: KAKCAD_clean_linker_0, # of connection points: 3
#     Node 1, Type 0, BuildingBlock: KAKCAD_clean_linker_0, # of connection points: 3
#     Node 2, Type 0, BuildingBlock: KAKCAD_clean_linker_0, # of connection points: 3
#     Node 3, Type 0, BuildingBlock: KAKCAD_clean_linker_0, # of connection points: 3
#     Node 4, Type 0, BuildingBlock: KAKCAD_clean_linker_0, # of connection points: 3
#     Node 5, Type 0, BuildingBlock: KAKCAD_clean_linker_0, # of connection points: 3
#     Node 6, Type 0, BuildingBlock: KAKCAD_clean_linker_0, # of connection points: 3
#     Node 7, Type 0, BuildingBlock: KAKCAD_clean_linker_0, # of connection points: 3
#     Node 8, Type 1, BuildingBlock: GIZVER_clean_sbu_0, # of connection points: 8
#     Node 9, Type 1, BuildingBlock: GIZVER_clean_sbu_0, # of connection points: 8
#     Node 10, Type 1, BuildingBlock: GIZVER_clean_sbu_0, # of connection points: 8
#     Edge 11, Type (0, 1), BuildingBlock: MIFKUJ_clean_linker_0, # of connection points: 2
#     Edge 12, Type (0, 1), BuildingBlock: MIFKUJ_clean_linker_0, # of connection points: 2
#     Edge 13, Type (0, 1), BuildingBlock: MIFKUJ_clean_linker_0, # of connection points: 2
#     Edge 14, Type (0, 1), BuildingBlock: MIFKUJ_clean_linker_0, # of connection points: 2
#     Edge 15, Type (0, 1), BuildingBlock: MIFKUJ_clean_linker_0, # of connection points: 2
#     Edge 16, Type (0, 1), BuildingBlock: MIFKUJ_clean_linker_0, # of connection points: 2
#     Edge 17, Type (0, 1), BuildingBlock: MIFKUJ_clean_linker_0, # of connection points: 2
#     Edge 18, Type (0, 1), BuildingBlock: MIFKUJ_clean_linker_0, # of connection points: 2
#     Edge 19, Type (0, 1), BuildingBlock: MIFKUJ_clean_linker_0, # of connection points: 2
#     Edge 20, Type (0, 1), BuildingBlock: MIFKUJ_clean_linker_0, # of connection points: 2
#     Edge 21, Type (0, 1), BuildingBlock: MIFKUJ_clean_linker_0, # of connection points: 2
#     Edge 22, Type (0, 1), BuildingBlock: MIFKUJ_clean_linker_0, # of connection points: 2
#     Edge 23, Type (0, 1), BuildingBlock: MIFKUJ_clean_linker_0, # of connection points: 2
#     Edge 24, Type (0, 1), BuildingBlock: MIFKUJ_clean_linker_0, # of connection points: 2
#     Edge 25, Type (0, 1), BuildingBlock: MIFKUJ_clean_linker_0, # of connection points: 2
#     Edge 26, Type (0, 1), BuildingBlock: MIFKUJ_clean_linker_0, # of connection points: 2
#     Edge 27, Type (0, 1), BuildingBlock: MIFKUJ_clean_linker_0, # of connection points: 2
#     Edge 28, Type (0, 1), BuildingBlock: MIFKUJ_clean_linker_0, # of connection points: 2
#     Edge 29, Type (0, 1), BuildingBlock: MIFKUJ_clean_linker_0, # of connection points: 2
#     Edge 30, Type (0, 1), BuildingBlock: MIFKUJ_clean_linker_0, # of connection points: 2
#     Edge 31, Type (0, 1), BuildingBlock: MIFKUJ_clean_linker_0, # of connection points: 2
#     Edge 32, Type (0, 1), BuildingBlock: MIFKUJ_clean_linker_0, # of connection points: 2
#     Edge 33, Type (0, 1), BuildingBlock: MIFKUJ_clean_linker_0, # of connection points: 2
#     Edge 34, Type (0, 1), BuildingBlock: MIFKUJ_clean_linker_0, # of connection points: 2
# Relax obj value: 0.043
# Max RMSD: 0.140
# Mean RMSD: 0.063
data_MOF--net-the--node1-GIZVER_clean_sbu_0--node2-KAKCAD_clean_linker_0--edge1-MIFKUJ_clean_linker_0
_symmetry_space_group_name_H-M    P1
_symmetry_Int_Tables_number       1
_symmetry_cell_setting            triclinic
loop_
_symmetry_equiv_pos_as_xyz
'x, y, z'
_cell_length_a     61.832346
_cell_length_b     58.454902
_cell_length_c     54.183048
_cell_angle_alpha  87.136719
_cell_angle_beta   93.037369
_cell_angle_gamma 99.846128
loop_
_atom_site_label
_atom_site_type_symbol
_atom_site_fract_x
_atom_site_fract_y
_atom_site_fract_z
_atom_type_partial_charge
C0 C 0.33438 0.35063 0.29713 0.0
C1 C 0.33986 0.37494 0.29482 0.0
C2 C 0.32639 0.33982 0.31916 0.0
C3 C 0.32361 0.35311 0.33932 0.0
C4 C 0.32871 0.37744 0.33689 0.0
C5 C 0.33683 0.38825 0.31488 0.0
C6 C 0.3158 0.34148 0.36294 0.0
C7 C 0.32439 0.32196 0.37257 0.0
C8 C 0.31693 0.31052 0.39469 0.0
C9 C 0.3005 0.31852 0.407 0.0
C10 C 0.29189 0.338 0.3977 0.0
C11 C 0.29971 0.34965 0.37585 0.0
C12 C 0.27416 0.34552 0.41061 0.0
C13 C 0.25396 0.33066 0.41257 0.0
C14 C 0.27761 0.36695 0.42192 0.0
C15 C 0.26108 0.3733 0.43541 0.0
C16 C 0.24066 0.35849 0.4374 0.0
C17 C 0.32633 0.29028 0.40505 0.0
C18 C 0.32936 0.27252 0.38974 0.0
C19 C 0.33237 0.28866 0.43037 0.0
C20 C 0.34146 0.26971 0.44015 0.0
C21 C 0.34455 0.25198 0.42482 0.0
C22 C 0.33832 0.2535 0.39955 0.0
C23 C 0.23728 0.33717 0.42559 0.0
H24 H 0.3367 0.3399 0.28207 0.0
H25 H 0.32235 0.32104 0.32041 0.0
H26 H 0.32685 0.38811 0.35216 0.0
H27 H 0.3407 0.40705 0.31353 0.0
H28 H 0.33728 0.31597 0.36314 0.0
H29 H 0.29272 0.36452 0.36853 0.0
H30 H 0.29429 0.30952 0.42384 0.0
H31 H 0.25103 0.31406 0.40384 0.0
H32 H 0.29326 0.37849 0.42078 0.0
H33 H 0.26443 0.38969 0.44451 0.0
H34 H 0.32467 0.27327 0.3702 0.0
H35 H 0.33035 0.30222 0.44254 0.0
H36 H 0.22166 0.32555 0.42606 0.0
H37 H 0.34075 0.24018 0.38728 0.0
H38 H 0.34602 0.26889 0.45972 0.0
C39 C 0.75806 0.38821 0.3477 0.0
C40 C 0.77435 0.37501 0.35559 0.0
C41 C 0.73791 0.37756 0.3372 0.0
C42 C 0.73348 0.3534 0.33429 0.0
C43 C 0.74977 0.34019 0.34216 0.0
C44 C 0.76995 0.35085 0.35264 0.0
C45 C 0.712 0.34205 0.32302 0.0
C46 C 0.70209 0.35277 0.30257 0.0
C47 C 0.68204 0.34207 0.29165 0.0
C48 C 0.67171 0.32052 0.30148 0.0
C49 C 0.68099 0.30969 0.32223 0.0
C50 C 0.70125 0.32053 0.33274 0.0
C51 C 0.66924 0.28733 0.33314 0.0
C52 C 0.6463 0.28373 0.33516 0.0
C53 C 0.68072 0.26941 0.34153 0.0
C54 C 0.6695 0.24835 0.35141 0.0
C55 C 0.64652 0.24468 0.35314 0.0
C56 C 0.6716 0.35347 0.27014 0.0
C57 C 0.66811 0.37654 0.2711 0.0
C58 C 0.66439 0.34109 0.24882 0.0
C59 C 0.65374 0.35149 0.22895 0.0
C60 C 0.64973 0.37435 0.23016 0.0
C61 C 0.65708 0.3868 0.25141 0.0
C62 C 0.63511 0.26271 0.345 0.0
H63 H 0.76093 0.40687 0.34942 0.0
H64 H 0.72569 0.38826 0.33159 0.0
H65 H 0.74704 0.32159 0.33998 0.0
H66 H 0.782 0.3401 0.35873 0.0
H67 H 0.71024 0.36919 0.29469 0.0
H68 H 0.70833 0.31255 0.349 0.0
H69 H 0.65624 0.31227 0.29301 0.0
H70 H 0.63696 0.29729 0.32939 0.0
H71 H 0.69835 0.27149 0.34003 0.0
H72 H 0.6788 0.23477 0.35724 0.0
H73 H 0.6734 0.38642 0.28737 0.0
H74 H 0.66695 0.32332 0.24757 0.0
H75 H 0.61749 0.26071 0.34652 0.0
H76 H 0.65425 0.40447 0.25279 0.0
H77 H 0.64809 0.34143 0.21289 0.0
C78 C 0.66066 0.6512 0.26316 0.0
C79 C 0.65331 0.66289 0.24187 0.0
C80 C 0.67247 0.66359 0.28235 0.0
C81 C 0.67713 0.688 0.28081 0.0
C82 C 0.66967 0.69974 0.2596 0.0
C83 C 0.658 0.68731 0.24026 0.0
C84 C 0.68988 0.70102 0.30127 0.0
C85 C 0.70872 0.69348 0.3121 0.0
C86 C 0.72057 0.70492 0.33209 0.0
C87 C 0.71356 0.72464 0.34076 0.0
C88 C 0.69475 0.73266 0.33015 0.0
C89 C 0.68302 0.72057 0.3104 0.0
C90 C 0.68707 0.75326 0.34003 0.0
C91 C 0.68983 0.75787 0.36541 0.0
C92 C 0.67666 0.7684 0.32425 0.0
C93 C 0.66894 0.78725 0.33363 0.0
C94 C 0.67187 0.79176 0.35889 0.0
C95 C 0.73989 0.69584 0.34421 0.0
C96 C 0.73994 0.67177 0.34672 0.0
C97 C 0.75833 0.711 0.35361 0.0
C98 C 0.77615 0.70232 0.36536 0.0
C99 C 0.7762 0.67823 0.36779 0.0
C100 C 0.75787 0.66312 0.35811 0.0
C101 C 0.68254 0.77701 0.37465 0.0
H102 H 0.65749 0.63239 0.26488 0.0
H103 H 0.67781 0.65403 0.29853 0.0
H104 H 0.67313 0.71854 0.25782 0.0
H105 H 0.65243 0.69682 0.22416 0.0
H106 H 0.71429 0.67876 0.30464 0.0
H107 H 0.66806 0.72583 0.30257 0.0
H108 H 0.72268 0.73364 0.356 0.0
H109 H 0.69721 0.74644 0.37837 0.0
H110 H 0.67458 0.76586 0.30457 0.0
H111 H 0.66086 0.79846 0.32107 0.0
H112 H 0.72598 0.65944 0.34013 0.0
H113 H 0.75911 0.72965 0.35178 0.0
H114 H 0.68472 0.77995 0.39428 0.0
H115 H 0.75734 0.64449 0.35914 0.0
H116 H 0.78977 0.71458 0.3728 0.0
C117 C 0.31784 0.66325 0.23635 0.0
C118 C 0.34056 0.66296 0.23698 0.0
C119 C 0.30853 0.67348 0.25508 0.0
C120 C 0.32168 0.68357 0.27501 0.0
C121 C 0.34444 0.68337 0.27552 0.0
C122 C 0.35375 0.67326 0.25672 0.0
C123 C 0.31171 0.69394 0.29535 0.0
C124 C 0.2913 0.6833 0.30427 0.0
C125 C 0.28197 0.69264 0.32379 0.0
C126 C 0.29346 0.71284 0.33459 0.0
C127 C 0.31392 0.72381 0.32601 0.0
C128 C 0.32276 0.71429 0.30625 0.0
C129 C 0.32619 0.74503 0.33779 0.0
C130 C 0.31511 0.76239 0.34543 0.0
C131 C 0.34919 0.74806 0.34156 0.0
C132 C 0.36078 0.76792 0.35255 0.0
C133 C 0.34969 0.78524 0.3602 0.0
C134 C 0.26041 0.68098 0.33314 0.0
C135 C 0.24304 0.67212 0.31658 0.0
C136 C 0.25711 0.67833 0.35867 0.0
C137 C 0.23705 0.66689 0.36743 0.0
C138 C 0.21975 0.65783 0.35089 0.0
C139 C 0.22296 0.66072 0.32535 0.0
C140 C 0.32671 0.78222 0.35656 0.0
H141 H 0.30726 0.65574 0.22123 0.0
H142 H 0.29102 0.67365 0.25381 0.0
H143 H 0.35505 0.69058 0.29076 0.0
H144 H 0.37125 0.67302 0.25797 0.0
H145 H 0.28292 0.66726 0.29651 0.0
H146 H 0.33816 0.723 0.29901 0.0
H147 H 0.28649 0.71998 0.34981 0.0
H148 H 0.29747 0.76085 0.34251 0.0
H149 H 0.35826 0.73488 0.33637 0.0
H150 H 0.37843 0.7695 0.35548 0.0
H151 H 0.24495 0.67406 0.29679 0.0
H152 H 0.27017 0.68475 0.37195 0.0
H153 H 0.3177 0.79536 0.36198 0.0
H154 H 0.21007 0.6538 0.31209 0.0
H155 H 0.23507 0.66521 0.38722 0.0
C156 C 0.24577 0.64517 0.68897 0.0
C157 C 0.24233 0.64538 0.66308 0.0
C158 C 0.26569 0.65611 0.69986 0.0
C159 C 0.28261 0.6677 0.68513 0.0
C160 C 0.2791 0.66797 0.65926 0.0
C161 C 0.25926 0.65695 0.6484 0.0
C162 C 0.30388 0.67942 0.69656 0.0
C163 C 0.31428 0.66869 0.71665 0.0
C164 C 0.33476 0.67928 0.7268 0.0
C165 C 0.34464 0.70101 0.71684 0.0
C166 C 0.33447 0.71224 0.69703 0.0
C167 C 0.31408 0.70125 0.68702 0.0
C168 C 0.34534 0.73531 0.68675 0.0
C169 C 0.35678 0.75216 0.70252 0.0
C170 C 0.34486 0.74051 0.6611 0.0
C171 C 0.35581 0.7618 0.65148 0.0
C172 C 0.36762 0.77839 0.66726 0.0
C173 C 0.34618 0.66772 0.74759 0.0
C174 C 0.33471 0.65725 0.76809 0.0
C175 C 0.36892 0.66776 0.74739 0.0
C176 C 0.38001 0.65813 0.76739 0.0
C177 C 0.36872 0.64823 0.78825 0.0
C178 C 0.34585 0.64765 0.7882 0.0
C179 C 0.36783 0.77336 0.69291 0.0
H180 H 0.23316 0.63627 0.70084 0.0
H181 H 0.26776 0.65571 0.71984 0.0
H182 H 0.29182 0.6765 0.64733 0.0
H183 H 0.25711 0.65771 0.62842 0.0
H184 H 0.30681 0.65171 0.72384 0.0
H185 H 0.3059 0.70991 0.67205 0.0
H186 H 0.36044 0.70918 0.72454 0.0
H187 H 0.35714 0.74903 0.7224 0.0
H188 H 0.33648 0.72789 0.64834 0.0
H189 H 0.35551 0.76502 0.63162 0.0
H190 H 0.31721 0.65707 0.76891 0.0
H191 H 0.37819 0.67524 0.73167 0.0
H192 H 0.37644 0.7859 0.70561 0.0
H193 H 0.33662 0.64035 0.804 0.0
H194 H 0.3975 0.65839 0.76642 0.0
C195 C 0.3423 0.3384 0.77743 0.0
C196 C 0.36268 0.35335 0.77541 0.0
C197 C 0.3315 0.32749 0.75669 0.0
C198 C 0.34105 0.33082 0.73362 0.0
C199 C 0.36143 0.34534 0.73147 0.0
C200 C 0.372 0.3567 0.75202 0.0
C201 C 0.32962 0.31961 0.71159 0.0
C202 C 0.31048 0.32687 0.70137 0.0
C203 C 0.30034 0.31754 0.67942 0.0
C204 C 0.30926 0.30029 0.66817 0.0
C205 C 0.32811 0.29228 0.67857 0.0
C206 C 0.33832 0.30235 0.70022 0.0
C207 C 0.33707 0.2735 0.66681 0.0
C208 C 0.32286 0.2549 0.65596 0.0
C209 C 0.35987 0.27392 0.66633 0.0
C210 C 0.3682 0.25627 0.65533 0.0
C211 C 0.35398 0.23777 0.6443 0.0
C212 C 0.28093 0.32644 0.66775 0.0
C213 C 0.26323 0.32923 0.68192 0.0
C214 C 0.28023 0.3327 0.64237 0.0
C215 C 0.2624 0.34191 0.63148 0.0
C216 C 0.24473 0.3448 0.64565 0.0
C217 C 0.24523 0.33816 0.67094 0.0
C218 C 0.33119 0.23738 0.64477 0.0
H219 H 0.33468 0.33487 0.79505 0.0
H220 H 0.31578 0.31626 0.7587 0.0
H221 H 0.36895 0.3483 0.71372 0.0
H222 H 0.38731 0.36844 0.74932 0.0
H223 H 0.30401 0.34047 0.70999 0.0
H224 H 0.35286 0.29655 0.70861 0.0
H225 H 0.3015 0.29321 0.65116 0.0
H226 H 0.30521 0.25373 0.65625 0.0
H227 H 0.37138 0.28804 0.67421 0.0
H228 H 0.38584 0.25708 0.65569 0.0
H229 H 0.26328 0.32445 0.7015 0.0
H230 H 0.2937 0.33094 0.63102 0.0
H231 H 0.31968 0.22365 0.63622 0.0
H232 H 0.23192 0.34034 0.68235 0.0
H233 H 0.2624 0.34675 0.61192 0.0
C234 C 0.68763 0.24116 0.66289 0.0
C235 C 0.6646 0.23743 0.65934 0.0
C236 C 0.69878 0.26126 0.67397 0.0
C237 C 0.68718 0.27813 0.6818 0.0
C238 C 0.66414 0.27423 0.67844 0.0
C239 C 0.65303 0.25416 0.66746 0.0
C240 C 0.69889 0.30004 0.6928 0.0
C241 C 0.71865 0.31181 0.68327 0.0
C242 C 0.72889 0.33329 0.69237 0.0
C243 C 0.71885 0.34323 0.71094 0.0
C244 C 0.69926 0.33162 0.72124 0.0
C245 C 0.68978 0.30975 0.71225 0.0
C246 C 0.68848 0.34243 0.74091 0.0
C247 C 0.70081 0.35829 0.75718 0.0
C248 C 0.66558 0.33723 0.74344 0.0
C249 C 0.65546 0.34722 0.76168 0.0
C250 C 0.66767 0.36361 0.77749 0.0
C251 C 0.75002 0.34544 0.68233 0.0
C252 C 0.76695 0.333 0.67808 0.0
C253 C 0.75355 0.36958 0.67717 0.0
C254 C 0.77349 0.38098 0.66805 0.0
C255 C 0.79046 0.36856 0.6639 0.0
C256 C 0.78693 0.34442 0.66904 0.0
C257 C 0.69057 0.36899 0.77481 0.0
H258 H 0.69711 0.22875 0.65671 0.0
H259 H 0.7165 0.26355 0.67645 0.0
H260 H 0.65463 0.28692 0.68389 0.0
H261 H 0.63528 0.25176 0.66543 0.0
H262 H 0.72571 0.30468 0.66811 0.0
H263 H 0.67528 0.29998 0.72047 0.0
H264 H 0.72644 0.3601 0.71726 0.0
H265 H 0.7185 0.36257 0.75652 0.0
H266 H 0.65515 0.3256 0.73117 0.0
H267 H 0.63795 0.34186 0.76322 0.0
H268 H 0.76485 0.31443 0.68205 0.0
H269 H 0.7408 0.37967 0.67996 0.0
H270 H 0.7008 0.38171 0.78607 0.0
H271 H 0.79953 0.33426 0.66582 0.0
H272 H 0.77569 0.39961 0.66453 0.0
C273 C 0.66049 0.64572 0.72527 0.0
C274 C 0.67489 0.63794 0.74348 0.0
C275 C 0.66855 0.6574 0.70372 0.0
C276 C 0.6912 0.66159 0.69987 0.0
C277 C 0.70562 0.65359 0.71795 0.0
C278 C 0.69754 0.64186 0.73955 0.0
C279 C 0.69959 0.67426 0.677 0.0
C280 C 0.69092 0.69384 0.66774 0.0
C281 C 0.69804 0.70547 0.64556 0.0
C282 C 0.71416 0.69734 0.63274 0.0
C283 C 0.72335 0.67815 0.642 0.0
C284 C 0.71599 0.66665 0.66413 0.0
C285 C 0.7409 0.67044 0.62864 0.0
C286 C 0.73905 0.66871 0.6028 0.0
C287 C 0.75998 0.66557 0.64156 0.0
C288 C 0.77703 0.65943 0.62885 0.0
C289 C 0.77529 0.65793 0.60299 0.0
C290 C 0.68873 0.72608 0.63576 0.0
C291 C 0.66629 0.72694 0.63762 0.0
C292 C 0.70217 0.74495 0.62415 0.0
C293 C 0.69335 0.76402 0.61426 0.0
C294 C 0.67091 0.76489 0.6161 0.0
C295 C 0.65752 0.74618 0.62806 0.0
C296 C 0.75606 0.66244 0.5901 0.0
H297 H 0.64292 0.64256 0.72754 0.0
H298 H 0.65698 0.66294 0.68992 0.0
H299 H 0.72318 0.65676 0.71559 0.0
H300 H 0.70904 0.63625 0.75337 0.0
H301 H 0.67888 0.70029 0.67812 0.0
H302 H 0.72262 0.65141 0.67096 0.0
H303 H 0.71971 0.70604 0.61552 0.0
H304 H 0.72442 0.67218 0.59242 0.0
H305 H 0.7619 0.66696 0.66145 0.0
H306 H 0.79155 0.65571 0.63929 0.0
H307 H 0.65539 0.71261 0.64619 0.0
H308 H 0.7196 0.74508 0.62273 0.0
H309 H 0.75432 0.66147 0.57017 0.0
H310 H 0.64024 0.7464 0.63016 0.0
H311 H 0.70412 0.77793 0.6049 0.0
Co312 Co 0.05261 0.48342 0.52248 0.0
Co313 Co 0.02863 0.4735 0.48098 0.0
Co314 Co 0.00839 0.51017 0.50852 0.0
O315 O 0.02181 0.48121 0.51266 0.0
H316 H 0.01249 0.46842 0.52085 0.0
O317 O 0.99508 0.53925 0.50443 0.0
Co318 Co 0.965 0.53723 0.49229 0.0
Co319 Co 0.98621 0.54695 0.53508 0.0
H320 H 1.00479 0.55215 0.49695 0.0
O321 O 0.0348 0.44401 0.47522 0.0
O322 O 0.05821 0.47492 0.48899 0.0
O323 O 0.02835 0.49664 0.45428 0.0
O324 O 0.02757 0.52447 0.48048 0.0
O325 O 0.98592 0.49373 0.48418 0.0
O326 O 0.93796 0.53761 0.48019 0.0
O327 O 0.96643 0.56724 0.4805 0.0
O328 O 0.95952 0.5059 0.50233 0.0
O329 O 0.98885 0.49584 0.53636 0.0
O330 O 0.98557 0.52373 0.56164 0.0
O331 O 0.9569 0.5454 0.52489 0.0
O332 O 0.97898 0.57612 0.5408 0.0
C333 C 0.07313 0.46172 0.53784 0.0
C334 C 0.05155 0.52767 0.52901 0.0
C335 C 0.03225 0.51791 0.45951 0.0
C336 C 0.05459 0.4537 0.48179 0.0
C337 C 0.94579 0.55922 0.47473 0.0
C338 C 0.96547 0.49245 0.4874 0.0
C339 C 0.98253 0.50242 0.55659 0.0
C340 C 0.95959 0.56623 0.533 0.0
O341 O 0.08032 0.48336 0.53186 0.0
O342 O 0.05223 0.45339 0.53412 0.0
O343 O 0.03113 0.52641 0.53274 0.0
O344 O 0.05714 0.51493 0.51301 0.0
Co345 Co 0.53806 0.96564 0.49294 0.0
Co346 Co 0.54653 0.98177 0.53724 0.0
Co347 Co 0.51134 0.00866 0.50932 0.0
O348 O 0.53881 0.9953 0.507 0.0
H349 H 0.55091 0.00674 0.50138 0.0
O350 O 0.48392 0.02223 0.51141 0.0
Co351 Co 0.48523 0.05315 0.52273 0.0
Co352 Co 0.47635 0.03345 0.47959 0.0
H353 H 0.47189 0.01125 0.51796 0.0
O354 O 0.57502 0.97651 0.54441 0.0
O355 O 0.54731 0.95279 0.5254 0.0
O356 O 0.52488 0.9765 0.56209 0.0
O357 O 0.49827 0.98536 0.53596 0.0
O358 O 0.52721 0.03015 0.53475 0.0
O359 O 0.48416 0.08092 0.53374 0.0
O360 O 0.45669 0.05033 0.5313 0.0
O361 O 0.51521 0.06024 0.5163 0.0
O362 O 0.52429 0.03198 0.48277 0.0
O363 O 0.49776 0.03581 0.45449 0.0
O364 O 0.47744 0.06372 0.4888 0.0
O365 O 0.44858 0.04066 0.47113 0.0
C366 C 0.5595 0.94942 0.47519 0.0
C367 C 0.4944 0.9653 0.48622 0.0
C368 C 0.50464 0.97576 0.5562 0.0
C369 C 0.56726 0.95662 0.53498 0.0
C370 C 0.46378 0.07186 0.53716 0.0
C371 C 0.52851 0.05213 0.53161 0.0
C372 C 0.51791 0.03931 0.46145 0.0
C373 C 0.45761 0.06086 0.47892 0.0
O374 O 0.53953 0.93921 0.47907 0.0
O375 O 0.5663 0.97031 0.48316 0.0
O376 O 0.49538 0.98729 0.48389 0.0
O377 O 0.50838 0.95691 0.50035 0.0
Co378 Co 0.47406 0.521 0.06128 0.0
Co379 Co 0.46371 0.47922 0.04793 0.0
Co380 Co 0.50236 0.50607 0.01414 0.0
O381 O 0.4741 0.50621 0.0306 0.0
H382 H 0.46276 0.51009 0.01896 0.0
O383 O 0.53067 0.50595 0.99775 0.0
Co384 Co 0.5304 0.49301 0.96597 0.0
Co385 Co 0.54076 0.53418 0.98211 0.0
H386 H 0.54192 0.5014 0.00908 0.0
O387 O 0.4344 0.47037 0.05394 0.0
O388 O 0.46055 0.49137 0.07819 0.0
O389 O 0.48356 0.45771 0.05372 0.0
O390 O 0.51207 0.48037 0.03654 0.0
O391 O 0.48588 0.4829 0.99074 0.0
O392 O 0.53161 0.47978 0.93756 0.0
O393 O 0.55684 0.48306 0.96927 0.0
O394 O 0.50257 0.50081 0.95856 0.0
O395 O 0.49242 0.53156 0.99163 0.0
O396 O 0.52078 0.55595 0.97667 0.0
O397 O 0.54486 0.52342 0.95144 0.0
O398 O 0.5701 0.54342 0.97765 0.0
C399 C 0.45361 0.53941 0.07746 0.0
C400 C 0.51877 0.52641 0.0607 0.0
C401 C 0.50386 0.46243 0.04964 0.0
C402 C 0.44084 0.47937 0.07509 0.0
C403 C 0.55014 0.4754 0.9474 0.0
C404 C 0.48672 0.48654 0.96734 0.0
C405 C 0.50031 0.55014 0.9794 0.0
C406 C 0.56469 0.53464 0.95618 0.0
O407 O 0.47217 0.53629 0.08839 0.0
O408 O 0.44736 0.52984 0.05639 0.0
O409 O 0.51917 0.52942 0.03722 0.0
O410 O 0.50216 0.51417 0.07037 0.0
H411 H 0.23068 0.40222 0.44064 0.0
H412 H 0.19911 0.41292 0.45948 0.0
H413 H 0.17725 0.34138 0.48227 0.0
H414 H 0.20957 0.33054 0.4649 0.0
H415 H 0.14711 0.36464 0.45001 0.0
H416 H 0.19108 0.37328 0.52372 0.0
H417 H 0.22297 0.38659 0.55161 0.0
H418 H 0.21222 0.45704 0.54022 0.0
H419 H 0.18078 0.44434 0.51149 0.0
H420 H 0.0522 0.40661 0.48627 0.0
H421 H 0.0829 0.38492 0.48866 0.0
H422 H 0.12853 0.44935 0.48131 0.0
H423 H 0.09807 0.47103 0.47974 0.0
H424 H 0.14415 0.42117 0.51442 0.0
H425 H 0.11038 0.4144 0.43134 0.0
H426 H 0.07968 0.40334 0.40095 0.0
H427 H 0.0727 0.33242 0.42854 0.0
H428 H 0.10322 0.34315 0.45929 0.0
C429 C 0.21965 0.3888 0.45034 0.0
C430 C 0.22264 0.36543 0.45095 0.0
C431 C 0.20155 0.39497 0.46104 0.0
C432 C 0.18597 0.37791 0.47223 0.0
C433 C 0.18918 0.35474 0.47367 0.0
C434 C 0.20752 0.34859 0.46344 0.0
C435 C 0.16512 0.38406 0.47947 0.0
C436 C 0.14629 0.37658 0.46451 0.0
C437 C 0.16434 0.39993 0.49813 0.0
C438 C 0.18359 0.40779 0.51513 0.0
C439 C 0.19568 0.39166 0.52679 0.0
C440 C 0.21371 0.39911 0.54279 0.0
C441 C 0.21967 0.42266 0.5476 0.0
C442 C 0.20763 0.4388 0.53641 0.0
C443 C 0.18972 0.43147 0.52021 0.0
C444 C 0.0688 0.41607 0.48507 0.0
C445 C 0.07281 0.44044 0.48249 0.0
C446 C 0.08629 0.4037 0.48655 0.0
C447 C 0.10796 0.41552 0.48491 0.0
C448 C 0.11194 0.43988 0.48267 0.0
C449 C 0.09453 0.45223 0.48155 0.0
C450 C 0.1266 0.40277 0.48411 0.0
C451 C 0.14491 0.40887 0.50033 0.0
C452 C 0.12716 0.38606 0.46626 0.0
C453 C 0.10885 0.37962 0.44779 0.0
C454 C 0.10218 0.39649 0.43103 0.0
C455 C 0.08484 0.39028 0.41373 0.0
C456 C 0.0742 0.36721 0.41287 0.0
C457 C 0.08092 0.35029 0.42927 0.0
C458 C 0.09824 0.35642 0.44663 0.0
H459 H 0.06078 0.36243 0.39946 0.0
H460 H 0.23359 0.42838 0.56007 0.0
H461 H 0.60708 0.22041 0.33621 0.0
H462 H 0.58667 0.18418 0.35342 0.0
H463 H 0.638 0.18142 0.41003 0.0
H464 H 0.65853 0.21779 0.39293 0.0
H465 H 0.62441 0.13934 0.39216 0.0
H466 H 0.58961 0.19858 0.42271 0.0
H467 H 0.57114 0.23285 0.42069 0.0
H468 H 0.51852 0.19675 0.37519 0.0
H469 H 0.53683 0.16235 0.37666 0.0
H470 H 0.56082 0.05727 0.47391 0.0
H471 H 0.584 0.09019 0.45382 0.0
H472 H 0.53354 0.0935 0.3963 0.0
H473 H 0.51008 0.06077 0.41644 0.0
H474 H 0.54713 0.13514 0.4149 0.0
H475 H 0.58246 0.0754 0.38515 0.0
H476 H 0.60078 0.041 0.3892 0.0
H477 H 0.65233 0.07812 0.43528 0.0
H478 H 0.63418 0.11267 0.43176 0.0
C479 C 0.61398 0.21223 0.35246 0.0
C480 C 0.6344 0.22218 0.36329 0.0
C481 C 0.60228 0.19146 0.36226 0.0
C482 C 0.61062 0.18019 0.38326 0.0
C483 C 0.63121 0.18978 0.39383 0.0
C484 C 0.64296 0.21056 0.38398 0.0
C485 C 0.59777 0.15849 0.39421 0.0
C486 C 0.6076 0.1385 0.3974 0.0
C487 C 0.57568 0.15721 0.4007 0.0
C488 C 0.56473 0.17797 0.39956 0.0
C489 C 0.57421 0.19802 0.41206 0.0
C490 C 0.56374 0.21746 0.41106 0.0
C491 C 0.5437 0.21701 0.39776 0.0
C492 C 0.53408 0.19711 0.38543 0.0
C493 C 0.54448 0.17762 0.38636 0.0
C494 C 0.55479 0.06462 0.45671 0.0
C495 C 0.5335 0.0563 0.44687 0.0
C496 C 0.56811 0.08351 0.4452 0.0
C497 C 0.56056 0.09436 0.42349 0.0
C498 C 0.53971 0.08548 0.41307 0.0
C499 C 0.52637 0.06664 0.42457 0.0
C500 C 0.57367 0.11591 0.41257 0.0
C501 C 0.56391 0.13593 0.40952 0.0
C502 C 0.59582 0.11723 0.40638 0.0
C503 C 0.60686 0.09655 0.40835 0.0
C504 C 0.59763 0.07617 0.39628 0.0
C505 C 0.60799 0.05666 0.39845 0.0
C506 C 0.62768 0.05736 0.41253 0.0
C507 C 0.63708 0.0776 0.4244 0.0
C508 C 0.62677 0.09716 0.42229 0.0
H509 H 0.63567 0.04223 0.4142 0.0
H510 H 0.5356 0.23205 0.39704 0.0
H511 H 0.77536 0.638 0.39665 0.0
H512 H 0.80625 0.622 0.41585 0.0
H513 H 0.851 0.68163 0.3886 0.0
H514 H 0.82028 0.69694 0.36759 0.0
H515 H 0.86768 0.64509 0.38278 0.0
H516 H 0.83443 0.67256 0.45007 0.0
H517 H 0.80387 0.67662 0.47599 0.0
H518 H 0.79612 0.60412 0.49758 0.0
H519 H 0.82594 0.59933 0.47092 0.0
H520 H 0.95503 0.60551 0.45942 0.0
H521 H 0.92863 0.63029 0.44326 0.0
H522 H 0.87566 0.57231 0.45072 0.0
H523 H 0.90162 0.54757 0.4663 0.0
H524 H 0.8667 0.61394 0.46965 0.0
H525 H 0.89234 0.58603 0.39509 0.0
H526 H 0.92141 0.5802 0.36767 0.0
H527 H 0.94329 0.65399 0.36154 0.0
H528 H 0.91455 0.6601 0.38931 0.0
C529 C 0.79175 0.64765 0.39435 0.0
C530 C 0.79516 0.66885 0.38041 0.0
C531 C 0.80946 0.63861 0.40577 0.0
C532 C 0.83102 0.6508 0.4042 0.0
C533 C 0.83453 0.67194 0.39031 0.0
C534 C 0.81685 0.68083 0.3785 0.0
C535 C 0.84989 0.64107 0.41636 0.0
C536 C 0.8676 0.63878 0.40195 0.0
C537 C 0.84984 0.63252 0.44137 0.0
C538 C 0.83232 0.63553 0.45814 0.0
C539 C 0.82605 0.65739 0.46008 0.0
C540 C 0.80875 0.6598 0.4748 0.0
C541 C 0.79793 0.64059 0.48826 0.0
C542 C 0.80442 0.61895 0.48704 0.0
C543 C 0.82148 0.61637 0.47203 0.0
C544 C 0.93778 0.59806 0.45747 0.0
C545 C 0.93051 0.57453 0.46405 0.0
C546 C 0.92272 0.61223 0.44832 0.0
C547 C 0.90017 0.60314 0.44591 0.0
C548 C 0.89294 0.57974 0.4526 0.0
C549 C 0.90791 0.56557 0.46136 0.0
C550 C 0.88389 0.61757 0.43582 0.0
C551 C 0.86679 0.62075 0.45065 0.0
C552 C 0.88444 0.627 0.4113 0.0
C553 C 0.90159 0.62345 0.39452 0.0
C554 C 0.90355 0.60094 0.38809 0.0
C555 C 0.9199 0.5976 0.37246 0.0
C556 C 0.93425 0.61672 0.36294 0.0
C557 C 0.9322 0.6392 0.36899 0.0
C558 C 0.91589 0.6426 0.38467 0.0
H559 H 0.94691 0.61412 0.35083 0.0
H560 H 0.78468 0.64254 0.49984 0.0
H561 H 0.33882 0.80643 0.40069 0.0
H562 H 0.35985 0.84021 0.42104 0.0
H563 H 0.4099 0.84486 0.36765 0.0
H564 H 0.38873 0.81146 0.34689 0.0
H565 H 0.39965 0.84478 0.44341 0.0
H566 H 0.43381 0.90148 0.35847 0.0
H567 H 0.42221 0.91023 0.31526 0.0
H568 H 0.3545 0.89251 0.33354 0.0
H569 H 0.36567 0.88397 0.37692 0.0
H570 H 0.49491 0.91981 0.4786 0.0
H571 H 0.46783 0.89253 0.45613 0.0
H572 H 0.42853 0.94612 0.4396 0.0
H573 H 0.45634 0.9741 0.46148 0.0
H574 H 0.42828 0.91997 0.40041 0.0
H575 H 0.41605 0.90447 0.4864 0.0
H576 H 0.42798 0.89747 0.52968 0.0
H577 H 0.44814 0.834 0.51083 0.0
H578 H 0.43685 0.84101 0.46714 0.0
C579 C 0.35414 0.81487 0.39306 0.0
C580 C 0.36209 0.80624 0.37215 0.0
C581 C 0.36621 0.83409 0.4048 0.0
C582 C 0.38636 0.84522 0.39577 0.0
C583 C 0.39425 0.83678 0.37477 0.0
C584 C 0.38224 0.81752 0.36307 0.0
C585 C 0.39972 0.86488 0.40901 0.0
C586 C 0.40579 0.86125 0.43402 0.0
C587 C 0.40749 0.88655 0.39691 0.0
C588 C 0.4006 0.8919 0.37091 0.0
C589 C 0.41645 0.89955 0.3533 0.0
C590 C 0.40995 0.90446 0.32877 0.0
C591 C 0.38764 0.90186 0.32164 0.0
C592 C 0.37178 0.89443 0.33906 0.0
C593 C 0.37819 0.88952 0.36361 0.0
C594 C 0.48057 0.92593 0.47019 0.0
C595 C 0.47771 0.94914 0.47207 0.0
C596 C 0.46501 0.91022 0.45737 0.0
C597 C 0.44585 0.91707 0.44663 0.0
C598 C 0.44312 0.94038 0.44788 0.0
C599 C 0.45896 0.95633 0.46045 0.0
C600 C 0.42869 0.89959 0.43459 0.0
C601 C 0.42194 0.90359 0.40984 0.0
C602 C 0.42003 0.87831 0.447 0.0
C603 C 0.42578 0.8734 0.47345 0.0
C604 C 0.4231 0.88906 0.49146 0.0
C605 C 0.42983 0.88511 0.51608 0.0
C606 C 0.439 0.86536 0.52302 0.0
C607 C 0.44117 0.84936 0.50539 0.0
C608 C 0.4346 0.85332 0.48069 0.0
H609 H 0.44436 0.86234 0.54205 0.0
H610 H 0.38264 0.90566 0.30264 0.0
H611 H 0.2367 0.61874 0.62234 0.0
H612 H 0.2023 0.6006 0.60202 0.0
H613 H 0.1657 0.62685 0.65669 0.0
H614 H 0.2002 0.64503 0.67725 0.0
H615 H 0.14756 0.58301 0.64661 0.0
H616 H 0.17093 0.6529 0.59855 0.0
H617 H 0.19638 0.68162 0.57457 0.0
H618 H 0.20123 0.63024 0.52213 0.0
H619 H 0.17605 0.6011 0.54599 0.0
H620 H 0.04766 0.55615 0.56744 0.0
H621 H 0.07782 0.57772 0.59303 0.0
H622 H 0.12504 0.5508 0.55191 0.0
H623 H 0.09553 0.52944 0.52673 0.0
H624 H 0.13501 0.59884 0.55671 0.0
H625 H 0.11507 0.52836 0.60687 0.0
H626 H 0.08941 0.4993 0.63024 0.0
H627 H 0.07759 0.55202 0.67782 0.0
H628 H 0.10292 0.58149 0.65444 0.0
C629 C 0.22135 0.62081 0.62999 0.0
C630 C 0.22125 0.63357 0.6513 0.0
C631 C 0.20166 0.61039 0.61835 0.0
C632 C 0.18133 0.61268 0.62753 0.0
C633 C 0.18115 0.62487 0.64919 0.0
C634 C 0.2009 0.63523 0.66095 0.0
C635 C 0.1604 0.60256 0.61424 0.0
C636 C 0.14463 0.58683 0.62704 0.0
C637 C 0.15658 0.60726 0.58862 0.0
C638 C 0.17175 0.62475 0.57421 0.0
C639 C 0.17756 0.64767 0.58202 0.0
C640 C 0.19192 0.66403 0.56843 0.0
C641 C 0.20046 0.65774 0.54688 0.0
C642 C 0.19462 0.63508 0.53884 0.0
C643 C 0.18029 0.61863 0.55239 0.0
C644 C 0.06448 0.5549 0.56389 0.0
C645 C 0.06912 0.5412 0.54483 0.0
C646 C 0.08167 0.56715 0.57855 0.0
C647 C 0.1037 0.56592 0.57429 0.0
C648 C 0.10822 0.55214 0.55546 0.0
C649 C 0.09122 0.53991 0.54103 0.0
C650 C 0.12237 0.57907 0.58892 0.0
C651 C 0.13775 0.59534 0.57634 0.0
C652 C 0.12579 0.57486 0.61464 0.0
C653 C 0.11064 0.55717 0.62872 0.0
C654 C 0.10683 0.5338 0.62216 0.0
C655 C 0.09239 0.51724 0.63544 0.0
C656 C 0.08184 0.52382 0.65546 0.0
C657 C 0.08574 0.54696 0.66228 0.0
C658 C 0.10013 0.5636 0.64902 0.0
H659 H 0.07067 0.51097 0.66573 0.0
H660 H 0.21157 0.67044 0.53637 0.0
H661 H 0.39108 0.24204 0.61743 0.0
H662 H 0.40557 0.21161 0.59779 0.0
H663 H 0.35111 0.16091 0.62261 0.0
H664 H 0.33718 0.19102 0.64367 0.0
H665 H 0.38718 0.14332 0.62839 0.0
H666 H 0.3545 0.18488 0.56322 0.0
H667 H 0.34773 0.21958 0.53833 0.0
H668 H 0.41422 0.23124 0.51529 0.0
H669 H 0.4217 0.19715 0.54079 0.0
H670 H 0.42114 0.05932 0.55201 0.0
H671 H 0.39761 0.08499 0.5674 0.0
H672 H 0.44926 0.14385 0.55705 0.0
H673 H 0.4727 0.11862 0.54209 0.0
H674 H 0.40852 0.15378 0.54103 0.0
H675 H 0.44224 0.11808 0.61304 0.0
H676 H 0.45005 0.08474 0.6397 0.0
H677 H 0.38097 0.06234 0.64872 0.0
H678 H 0.37275 0.09542 0.62183 0.0
C679 C 0.38229 0.22439 0.61907 0.0
C680 C 0.36286 0.21913 0.63216 0.0
C681 C 0.39047 0.20701 0.60749 0.0
C682 C 0.37922 0.18397 0.60824 0.0
C683 C 0.36001 0.17856 0.62156 0.0
C684 C 0.35193 0.1959 0.63339 0.0
C685 C 0.3877 0.16556 0.59539 0.0
C686 C 0.39143 0.14546 0.60914 0.0
C687 C 0.39341 0.16832 0.57026 0.0
C688 C 0.38875 0.18851 0.55423 0.0
C689 C 0.36779 0.19499 0.55313 0.0
C690 C 0.36384 0.21463 0.53896 0.0
C691 C 0.38055 0.22766 0.5253 0.0
C692 C 0.40128 0.22113 0.52589 0.0
C693 C 0.4054 0.20168 0.54026 0.0
C694 C 0.42742 0.07773 0.55302 0.0
C695 C 0.4489 0.08682 0.5461 0.0
C696 C 0.41397 0.09238 0.56176 0.0
C697 C 0.42172 0.11635 0.56345 0.0
C698 C 0.44289 0.12546 0.55587 0.0
C699 C 0.45636 0.11089 0.5475 0.0
C700 C 0.40854 0.13208 0.57431 0.0
C701 C 0.40388 0.15159 0.56015 0.0
C702 C 0.40193 0.12884 0.59901 0.0
C703 C 0.40687 0.10902 0.61518 0.0
C704 C 0.42871 0.10593 0.62054 0.0
C705 C 0.43321 0.08711 0.63572 0.0
C706 C 0.41601 0.07138 0.64582 0.0
C707 C 0.39427 0.0745 0.64083 0.0
C708 C 0.38969 0.09328 0.62563 0.0
H709 H 0.41952 0.05682 0.65757 0.0
H710 H 0.3774 0.24273 0.51415 0.0
H711 H 0.83232 0.36169 0.67796 0.0
H712 H 0.86701 0.38175 0.66161 0.0
H713 H 0.8314 0.42338 0.6118 0.0
H714 H 0.79669 0.403 0.62753 0.0
H715 H 0.86254 0.40808 0.58833 0.0
H716 H 0.85812 0.44544 0.66458 0.0
H717 H 0.8545 0.44691 0.70956 0.0
H718 H 0.91315 0.41725 0.72319 0.0
H719 H 0.91694 0.41532 0.67826 0.0
H720 H 0.95899 0.51189 0.59516 0.0
H721 H 0.9286 0.48654 0.61439 0.0
H722 H 0.94014 0.4296 0.57199 0.0
H723 H 0.97014 0.45525 0.55178 0.0
H724 H 0.92201 0.45006 0.64233 0.0
H725 H 0.89472 0.39344 0.55985 0.0
H726 H 0.89355 0.39453 0.51419 0.0
H727 H 0.89321 0.46801 0.51243 0.0
H728 H 0.89488 0.46739 0.55802 0.0
C729 C 0.83186 0.37499 0.66338 0.0
C730 C 0.81168 0.38076 0.65411 0.0
C731 C 0.85173 0.38659 0.6542 0.0
C732 C 0.85187 0.40423 0.6356 0.0
C733 C 0.83175 0.40986 0.62618 0.0
C734 C 0.8119 0.39832 0.63535 0.0
C735 C 0.87286 0.41681 0.62573 0.0
C736 C 0.8756 0.41715 0.60018 0.0
C737 C 0.88989 0.42878 0.64109 0.0
C738 C 0.88768 0.43 0.66808 0.0
C739 C 0.87014 0.43906 0.67718 0.0
C740 C 0.86808 0.44001 0.70266 0.0
C741 C 0.88355 0.43211 0.71923 0.0
C742 C 0.90115 0.42332 0.71034 0.0
C743 C 0.90328 0.4223 0.68487 0.0
C744 C 0.95536 0.49388 0.5901 0.0
C745 C 0.96706 0.48572 0.57172 0.0
C746 C 0.93786 0.47935 0.60117 0.0
C747 C 0.93163 0.45619 0.59436 0.0
C748 C 0.94414 0.44755 0.57714 0.0
C749 C 0.96153 0.46219 0.56579 0.0
C750 C 0.91165 0.44161 0.60477 0.0
C751 C 0.9091 0.44077 0.63047 0.0
C752 C 0.89456 0.4295 0.58951 0.0
C753 C 0.89518 0.4304 0.56224 0.0
C754 C 0.89466 0.40986 0.54966 0.0
C755 C 0.89396 0.4104 0.52382 0.0
C756 C 0.89349 0.43134 0.5104 0.0
C757 C 0.89392 0.45185 0.5228 0.0
C758 C 0.89486 0.45144 0.54865 0.0
H759 H 0.89256 0.43156 0.49041 0.0
H760 H 0.88193 0.43287 0.73895 0.0
H761 H 0.63041 0.76507 0.59284 0.0
H762 H 0.61512 0.7985 0.57559 0.0
H763 H 0.67528 0.84387 0.59639 0.0
H764 H 0.69011 0.8108 0.61532 0.0
H765 H 0.64124 0.86186 0.60729 0.0
H766 H 0.66132 0.82429 0.5373 0.0
H767 H 0.66037 0.79025 0.51203 0.0
H768 H 0.59158 0.78853 0.49478 0.0
H769 H 0.59172 0.82161 0.52127 0.0
H770 H 0.61128 0.96035 0.54601 0.0
H771 H 0.63218 0.92862 0.55376 0.0
H772 H 0.57414 0.87893 0.5357 0.0
H773 H 0.55333 0.91059 0.5271 0.0
H774 H 0.6099 0.8644 0.52115 0.0
H775 H 0.58754 0.89417 0.59569 0.0
H776 H 0.58508 0.92472 0.62472 0.0
H777 H 0.65546 0.93927 0.63354 0.0
H778 H 0.65832 0.90898 0.6043 0.0
C779 C 0.6403 0.78218 0.59411 0.0
C780 C 0.66156 0.78518 0.60543 0.0
C781 C 0.63164 0.80125 0.5839 0.0
C782 C 0.64424 0.82361 0.58424 0.0
C783 C 0.66535 0.82672 0.59571 0.0
C784 C 0.67389 0.80773 0.6063 0.0
C785 C 0.63528 0.84391 0.57318 0.0
C786 C 0.63477 0.86256 0.5883 0.0
C787 C 0.62632 0.84454 0.54856 0.0
C788 C 0.62649 0.82534 0.5316 0.0
C789 C 0.64591 0.81652 0.52839 0.0
C790 C 0.64548 0.79727 0.51397 0.0
C791 C 0.62593 0.78723 0.50182 0.0
C792 C 0.60671 0.79631 0.50423 0.0
C793 C 0.60692 0.81521 0.51911 0.0
C794 C 0.60305 0.94268 0.54336 0.0
C795 C 0.58055 0.93788 0.53655 0.0
C796 C 0.61502 0.92459 0.54775 0.0
C797 C 0.60455 0.90142 0.54593 0.0
C798 C 0.58249 0.89669 0.53739 0.0
C799 C 0.57059 0.9148 0.53264 0.0
C800 C 0.6158 0.88212 0.55536 0.0
C801 C 0.6167 0.86372 0.53999 0.0
C802 C 0.62486 0.88145 0.57988 0.0
C803 C 0.62315 0.89951 0.59762 0.0
C804 C 0.60249 0.90399 0.60371 0.0
C805 C 0.60102 0.92124 0.62021 0.0
C806 C 0.6201 0.93397 0.63092 0.0
C807 C 0.64069 0.92942 0.6252 0.0
C808 C 0.64225 0.91222 0.60868 0.0
H809 H 0.61893 0.94732 0.64368 0.0
H810 H 0.6257 0.77247 0.49046 0.0
H811 H 0.33143 0.2059 0.41658 0.0
H812 H 0.35011 0.17368 0.43093 0.0
H813 H 0.39955 0.22139 0.47007 0.0
H814 H 0.38106 0.25371 0.45565 0.0
H815 H 0.41712 0.19362 0.44098 0.0
H816 H 0.36191 0.18468 0.50016 0.0
H817 H 0.32462 0.1799 0.51594 0.0
H818 H 0.30711 0.11503 0.4801 0.0
H819 H 0.34422 0.11963 0.46397 0.0
H820 H 0.47227 0.10547 0.49225 0.0
H821 H 0.45225 0.13799 0.48886 0.0
H822 H 0.39631 0.09407 0.45524 0.0
H823 H 0.41572 0.06097 0.46019 0.0
H824 H 0.38283 0.12134 0.48545 0.0
H825 H 0.43475 0.13217 0.42083 0.0
H826 H 0.47161 0.1359 0.40416 0.0
H827 H 0.49398 0.19598 0.44694 0.0
H828 H 0.45731 0.19241 0.46416 0.0
C829 C 0.34622 0.20947 0.42836 0.0
C830 C 0.35485 0.23227 0.43495 0.0
C831 C 0.35675 0.19106 0.43671 0.0
C832 C 0.37607 0.19518 0.45175 0.0
C833 C 0.38454 0.21788 0.45865 0.0
C834 C 0.37393 0.23627 0.45048 0.0
C835 C 0.38823 0.17604 0.45886 0.0
C836 C 0.40976 0.17796 0.45106 0.0
C837 C 0.37832 0.1554 0.47139 0.0
C838 C 0.35585 0.15263 0.4808 0.0
C839 C 0.35005 0.1695 0.49558 0.0
C840 C 0.32896 0.1668 0.50459 0.0
C841 C 0.31349 0.14718 0.49901 0.0
C842 C 0.3191 0.13023 0.48442 0.0
C843 C 0.34019 0.13288 0.47537 0.0
C844 C 0.4556 0.10261 0.48443 0.0
C845 C 0.44554 0.08061 0.47657 0.0
C846 C 0.44425 0.1213 0.48232 0.0
C847 C 0.42295 0.11856 0.47139 0.0
C848 C 0.41276 0.09656 0.46374 0.0
C849 C 0.42393 0.07771 0.4664 0.0
C850 C 0.41151 0.13874 0.46709 0.0
C851 C 0.39018 0.13705 0.47545 0.0
C852 C 0.42141 0.15945 0.45463 0.0
C853 C 0.44336 0.16186 0.44398 0.0
C854 C 0.44757 0.1461 0.42679 0.0
C855 C 0.46841 0.14819 0.41724 0.0
C856 C 0.48514 0.1661 0.42457 0.0
C857 C 0.48101 0.18207 0.44134 0.0
C858 C 0.4602 0.18003 0.45099 0.0
H859 H 0.50129 0.16762 0.41724 0.0
H860 H 0.29716 0.1451 0.506 0.0
H861 H 0.81573 0.36602 0.34848 0.0
H862 H 0.85069 0.38473 0.36742 0.0
H863 H 0.81642 0.42847 0.40738 0.0
H864 H 0.78148 0.40984 0.38861 0.0
H865 H 0.85205 0.45351 0.38844 0.0
H866 H 0.83567 0.38086 0.43537 0.0
H867 H 0.82706 0.33822 0.44132 0.0
H868 H 0.88756 0.3317 0.40908 0.0
H869 H 0.89639 0.37431 0.40264 0.0
H870 H 0.92159 0.49206 0.4873 0.0
H871 H 0.89278 0.47125 0.46106 0.0
H872 H 0.94043 0.43972 0.42555 0.0
H873 H 0.97002 0.46103 0.45212 0.0
H874 H 0.90185 0.40827 0.43706 0.0
H875 H 0.91963 0.48242 0.39454 0.0
H876 H 0.92864 0.52521 0.39337 0.0
H877 H 0.86533 0.52902 0.42021 0.0
H878 H 0.85597 0.4862 0.42177 0.0
C879 C 0.81561 0.37949 0.36146 0.0
C880 C 0.79574 0.38638 0.36702 0.0
C881 C 0.83563 0.39021 0.37225 0.0
C882 C 0.83623 0.40793 0.389 0.0
C883 C 0.81644 0.41494 0.39443 0.0
C884 C 0.79644 0.40428 0.38362 0.0
C885 C 0.85735 0.41923 0.40096 0.0
C886 C 0.86287 0.44357 0.39909 0.0
C887 C 0.87186 0.40633 0.41441 0.0
C888 C 0.86655 0.38073 0.41823 0.0
C889 C 0.84704 0.37031 0.42935 0.0
C890 C 0.84214 0.34616 0.43285 0.0
C891 C 0.85672 0.33226 0.4255 0.0
C892 C 0.87626 0.34249 0.4147 0.0
C893 C 0.88123 0.36663 0.41113 0.0
C894 C 0.92618 0.48078 0.47396 0.0
C895 C 0.94824 0.4784 0.47174 0.0
C896 C 0.90957 0.46893 0.45882 0.0
C897 C 0.91444 0.4542 0.44106 0.0
C898 C 0.93634 0.45112 0.4391 0.0
C899 C 0.9532 0.46329 0.45424 0.0
C900 C 0.89628 0.44243 0.42473 0.0
C901 C 0.89126 0.41809 0.42587 0.0
C902 C 0.88215 0.45531 0.41069 0.0
C903 C 0.88712 0.48108 0.4083 0.0
C904 C 0.9076 0.49238 0.40014 0.0
C905 C 0.91278 0.51663 0.39944 0.0
C906 C 0.89757 0.52979 0.40673 0.0
C907 C 0.87706 0.51877 0.41452 0.0
C908 C 0.87178 0.4945 0.41524 0.0
H909 H 0.90174 0.54853 0.40642 0.0
H910 H 0.8529 0.31356 0.42824 0.0
H911 H 0.69409 0.82676 0.3867 0.0
H912 H 0.67925 0.85818 0.40468 0.0
H913 H 0.61495 0.83135 0.37289 0.0
H914 H 0.63008 0.80079 0.35385 0.0
H915 H 0.62066 0.87595 0.36932 0.0
H916 H 0.63492 0.82054 0.43504 0.0
H917 H 0.6596 0.79833 0.45956 0.0
H918 H 0.69743 0.86178 0.48567 0.0
H919 H 0.67365 0.88446 0.46026 0.0
H920 H 0.54711 0.91215 0.44676 0.0
H921 H 0.57032 0.88985 0.42641 0.0
H922 H 0.62818 0.93464 0.45454 0.0
H923 H 0.6048 0.95735 0.47515 0.0
H924 H 0.63035 0.88609 0.45985 0.0
H925 H 0.61506 0.94131 0.39624 0.0
H926 H 0.59178 0.96386 0.36998 0.0
H927 H 0.55555 0.90077 0.34113 0.0
H928 H 0.57841 0.87781 0.3675 0.0
C929 C 0.67683 0.82775 0.38346 0.0
C930 C 0.66318 0.81133 0.36901 0.0
C931 C 0.66832 0.84564 0.39382 0.0
C932 C 0.64582 0.84695 0.39065 0.0
C933 C 0.63234 0.83079 0.3757 0.0
C934 C 0.64095 0.81328 0.36486 0.0
C935 C 0.63601 0.8646 0.40331 0.0
C936 C 0.6227 0.87799 0.38914 0.0
C937 C 0.63916 0.86794 0.42914 0.0
C938 C 0.6527 0.85422 0.44541 0.0
C939 C 0.64861 0.82978 0.44583 0.0
C940 C 0.66253 0.81712 0.45975 0.0
C941 C 0.68014 0.82865 0.47406 0.0
C942 C 0.68385 0.85288 0.47447 0.0
C943 C 0.67024 0.86565 0.46018 0.0
C944 C 0.56477 0.91739 0.44862 0.0
C945 C 0.57411 0.93666 0.46243 0.0
C946 C 0.57802 0.90462 0.4369 0.0
C947 C 0.60097 0.91069 0.43874 0.0
C948 C 0.61048 0.92973 0.45279 0.0
C949 C 0.59713 0.94277 0.46439 0.0
C950 C 0.61466 0.89685 0.42587 0.0
C951 C 0.6286 0.88418 0.43999 0.0
C952 C 0.61207 0.89408 0.40003 0.0
C953 C 0.59837 0.90783 0.38399 0.0
C954 C 0.60203 0.93223 0.38443 0.0
C955 C 0.58892 0.94509 0.3695 0.0
C956 C 0.57217 0.93375 0.35393 0.0
C957 C 0.56853 0.90953 0.35321 0.0
C958 C 0.58158 0.89659 0.36812 0.0
H959 H 0.56204 0.94374 0.34238 0.0
H960 H 0.69082 0.81879 0.48495 0.0
H961 H 0.21391 0.6262 0.38994 0.0
H962 H 0.17943 0.60496 0.40528 0.0
H963 H 0.14318 0.63903 0.3486 0.0
H964 H 0.17772 0.66037 0.33309 0.0
H965 H 0.14605 0.6185 0.42457 0.0
H966 H 0.09546 0.60177 0.33269 0.0
H967 H 0.10139 0.59717 0.28865 0.0
H968 H 0.16206 0.57309 0.30852 0.0
H969 H 0.15634 0.57726 0.35266 0.0
H970 H 0.04059 0.56555 0.46035 0.0
H971 H 0.0688 0.59215 0.43839 0.0
H972 H 0.08608 0.53443 0.40166 0.0
H973 H 0.05728 0.50802 0.42254 0.0
H974 H 0.09115 0.56937 0.37113 0.0
H975 H 0.1191 0.55914 0.45643 0.0
H976 H 0.11733 0.55934 0.50166 0.0
H977 H 0.10637 0.63006 0.49621 0.0
H978 H 0.10894 0.63048 0.45081 0.0
C979 C 0.19861 0.62935 0.38084 0.0
C980 C 0.19862 0.64502 0.36028 0.0
C981 C 0.17888 0.61713 0.3896 0.0
C982 C 0.15865 0.62023 0.37803 0.0
C983 C 0.15856 0.63602 0.35761 0.0
C984 C 0.17833 0.64821 0.34876 0.0
C985 C 0.1378 0.60696 0.38758 0.0
C986 C 0.134 0.60791 0.41277 0.0
C987 C 0.12208 0.59291 0.37239 0.0
C988 C 0.12558 0.59011 0.34593 0.0
C989 C 0.11003 0.59544 0.32764 0.0
C990 C 0.11336 0.59291 0.30267 0.0
C991 C 0.13213 0.58493 0.29578 0.0
C992 C 0.14758 0.57937 0.31387 0.0
C993 C 0.14431 0.58184 0.33886 0.0
C994 C 0.05009 0.5586 0.44721 0.0
C995 C 0.04668 0.5346 0.44334 0.0
C996 C 0.06643 0.57381 0.43484 0.0
C997 C 0.0801 0.5653 0.41881 0.0
C998 C 0.07589 0.54153 0.41394 0.0
C999 C 0.05933 0.52639 0.42594 0.0
C1000 C 0.09953 0.5807 0.4082 0.0
C1001 C 0.10304 0.58025 0.3828 0.0
C1002 C 0.11535 0.59477 0.42327 0.0
C1003 C 0.11388 0.59471 0.45037 0.0
C1004 C 0.11624 0.57468 0.46492 0.0
C1005 C 0.11512 0.57471 0.49058 0.0
C1006 C 0.11131 0.59457 0.50183 0.0
C1007 C 0.10916 0.61464 0.48746 0.0
C1008 C 0.11063 0.61483 0.46179 0.0
H1009 H 0.11006 0.59445 0.52166 0.0
H1010 H 0.13469 0.583 0.27644 0.0
H1011 H 0.35434 0.80737 0.63023 0.0
H1012 H 0.37506 0.84366 0.61323 0.0
H1013 H 0.42979 0.83595 0.66393 0.0
H1014 H 0.40903 0.79988 0.68121 0.0
H1015 H 0.42434 0.87967 0.66141 0.0
H1016 H 0.42928 0.82304 0.60045 0.0
H1017 H 0.41522 0.79299 0.57048 0.0
H1018 H 0.3786 0.84013 0.53045 0.0
H1019 H 0.39229 0.87037 0.56034 0.0
H1020 H 0.51174 0.95141 0.59969 0.0
H1021 H 0.48586 0.92132 0.62044 0.0
H1022 H 0.43434 0.93418 0.56741 0.0
H1023 H 0.46023 0.96407 0.54623 0.0
H1024 H 0.43581 0.88972 0.57151 0.0
H1025 H 0.43442 0.94801 0.62947 0.0
H1026 H 0.44985 0.97852 0.65836 0.0
H1027 H 0.47987 0.92902 0.70346 0.0
H1028 H 0.46487 0.89827 0.67466 0.0
C1029 C 0.37083 0.81336 0.63767 0.0
C1030 C 0.38004 0.80067 0.65703 0.0
C1031 C 0.38268 0.83412 0.62793 0.0
C1032 C 0.40416 0.84247 0.63704 0.0
C1033 C 0.41326 0.82997 0.65659 0.0
C1034 C 0.40135 0.80933 0.66648 0.0
C1035 C 0.41729 0.86403 0.62608 0.0
C1036 C 0.42699 0.88178 0.64174 0.0
C1037 C 0.42031 0.86719 0.60034 0.0
C1038 C 0.41162 0.84885 0.58275 0.0
C1039 C 0.41806 0.8269 0.58539 0.0
C1040 C 0.4102 0.80986 0.56839 0.0
C1041 C 0.39597 0.81463 0.54862 0.0
C1042 C 0.38954 0.83643 0.54583 0.0
C1043 C 0.39734 0.85351 0.56279 0.0
C1044 C 0.49479 0.9482 0.59265 0.0
C1045 C 0.48814 0.96024 0.57119 0.0
C1046 C 0.47996 0.93099 0.60467 0.0
C1047 C 0.45804 0.9255 0.59566 0.0
C1048 C 0.45114 0.93808 0.57478 0.0
C1049 C 0.46597 0.9553 0.56273 0.0
C1050 C 0.44293 0.90535 0.60667 0.0
C1051 C 0.4329 0.88779 0.59105 0.0
C1052 C 0.43963 0.90244 0.63239 0.0
C1053 C 0.44866 0.92087 0.64978 0.0
C1054 C 0.44446 0.94367 0.64544 0.0
C1055 C 0.4531 0.961 0.66182 0.0
C1056 C 0.46587 0.95572 0.6827 0.0
C1057 C 0.46999 0.93309 0.68727 0.0
C1058 C 0.46139 0.91569 0.67094 0.0
H1059 H 0.47255 0.96917 0.69536 0.0
H1060 H 0.38997 0.80145 0.53542 0.0
H1061 H 0.20053 0.32964 0.64983 0.0
H1062 H 0.17016 0.34739 0.63072 0.0
H1063 H 0.21686 0.40179 0.59717 0.0
H1064 H 0.24712 0.38404 0.61588 0.0
H1065 H 0.18556 0.41936 0.6168 0.0
H1066 H 0.18871 0.35538 0.56615 0.0
H1067 H 0.18745 0.31475 0.55552 0.0
H1068 H 0.12111 0.2976 0.57877 0.0
H1069 H 0.122 0.33821 0.58966 0.0
H1070 H 0.11729 0.47147 0.53414 0.0
H1071 H 0.1448 0.44919 0.5507 0.0
H1072 H 0.09393 0.39635 0.57963 0.0
H1073 H 0.06584 0.41845 0.56197 0.0
H1074 H 0.12628 0.37693 0.56284 0.0
H1075 H 0.12392 0.43914 0.61717 0.0
H1076 H 0.12412 0.48001 0.62667 0.0
H1077 H 0.18825 0.49939 0.59762 0.0
H1078 H 0.18834 0.45865 0.58769 0.0
C1079 C 0.20426 0.34536 0.63829 0.0
C1080 C 0.22619 0.35535 0.63416 0.0
C1081 C 0.18691 0.35539 0.62725 0.0
C1082 C 0.1912 0.37568 0.61203 0.0
C1083 C 0.21311 0.38591 0.60839 0.0
C1084 C 0.23041 0.37573 0.61908 0.0
C1085 C 0.17299 0.3867 0.6003 0.0
C1086 C 0.17273 0.41007 0.60485 0.0
C1087 C 0.15589 0.37447 0.58512 0.0
C1088 C 0.15547 0.34994 0.57882 0.0
C1089 C 0.17386 0.343 0.56907 0.0
C1090 C 0.17321 0.31994 0.56299 0.0
C1091 C 0.15422 0.30358 0.56649 0.0
C1092 C 0.13582 0.31029 0.57606 0.0
C1093 C 0.13639 0.33335 0.58215 0.0
C1094 C 0.11181 0.45511 0.54402 0.0
C1095 C 0.08932 0.44697 0.5472 0.0
C1096 C 0.12765 0.44237 0.55354 0.0
C1097 C 0.12156 0.4214 0.56709 0.0
C1098 C 0.09906 0.41261 0.56943 0.0
C1099 C 0.08303 0.42527 0.55946 0.0
C1100 C 0.13885 0.40943 0.57957 0.0
C1101 C 0.13902 0.38603 0.57503 0.0
C1102 C 0.15583 0.42149 0.59499 0.0
C1103 C 0.15609 0.44588 0.60159 0.0
C1104 C 0.13804 0.45214 0.61276 0.0
C1105 C 0.13809 0.47528 0.6182 0.0
C1106 C 0.15616 0.4923 0.6127 0.0
C1107 C 0.17427 0.48619 0.60186 0.0
C1108 C 0.1743 0.46307 0.59637 0.0
H1109 H 0.15613 0.51022 0.61686 0.0
H1110 H 0.15375 0.28572 0.56178 0.0
H1111 H 0.62945 0.23472 0.62604 0.0
H1112 H 0.60857 0.20021 0.6073 0.0
H1113 H 0.65169 0.15789 0.64506 0.0
H1114 H 0.67259 0.19243 0.66434 0.0
H1115 H 0.64193 0.14597 0.59623 0.0
H1116 H 0.6024 0.15695 0.66687 0.0
H1117 H 0.58428 0.17877 0.69506 0.0
H1118 H 0.53842 0.19299 0.63635 0.0
H1119 H 0.55647 0.17154 0.60769 0.0
H1120 H 0.56288 0.04323 0.56339 0.0
H1121 H 0.58841 0.07161 0.58761 0.0
H1122 H 0.55555 0.12661 0.55675 0.0
H1123 H 0.53043 0.09885 0.53264 0.0
H1124 H 0.56159 0.12781 0.60736 0.0
H1125 H 0.60333 0.12068 0.53598 0.0
H1126 H 0.62126 0.09924 0.50722 0.0
H1127 H 0.66254 0.07772 0.56711 0.0
H1128 H 0.64461 0.09878 0.59631 0.0
C1129 C 0.63444 0.21808 0.6306 0.0
C1130 C 0.65258 0.21638 0.647 0.0
C1131 C 0.62251 0.19835 0.61976 0.0
C1132 C 0.62836 0.17639 0.62504 0.0
C1133 C 0.64686 0.17465 0.64075 0.0
C1134 C 0.65881 0.19443 0.65171 0.0
C1135 C 0.61476 0.15538 0.61443 0.0
C1136 C 0.62444 0.14171 0.59904 0.0
C1137 C 0.59189 0.14993 0.61788 0.0
C1138 C 0.5809 0.16277 0.63509 0.0
C1139 C 0.58855 0.16487 0.65992 0.0
C1140 C 0.57827 0.17715 0.67599 0.0
C1141 C 0.56024 0.18729 0.66749 0.0
C1142 C 0.55241 0.18513 0.6429 0.0
C1143 C 0.56264 0.17289 0.62675 0.0
C1144 C 0.56119 0.06138 0.56176 0.0
C1145 C 0.54457 0.0687 0.5461 0.0
C1146 C 0.57578 0.07757 0.57555 0.0
C1147 C 0.57383 0.10123 0.574 0.0
C1148 C 0.5573 0.10846 0.55835 0.0
C1149 C 0.54297 0.09247 0.54449 0.0
C1150 C 0.58863 0.11879 0.58868 0.0
C1151 C 0.57915 0.13182 0.60487 0.0
C1152 C 0.61161 0.12362 0.5859 0.0
C1153 C 0.62244 0.11105 0.56837 0.0
C1154 C 0.61609 0.1112 0.54306 0.0
C1155 C 0.62628 0.09915 0.52667 0.0
C1156 C 0.64298 0.08706 0.53535 0.0
C1157 C 0.64957 0.08705 0.56043 0.0
C1158 C 0.63941 0.09904 0.5769 0.0
H1159 H 0.65086 0.07775 0.52264 0.0
H1160 H 0.5523 0.19679 0.67996 0.0
H1161 H 0.81916 0.67418 0.60959 0.0
H1162 H 0.84933 0.66105 0.59 0.0
H1163 H 0.80264 0.61417 0.54651 0.0
H1164 H 0.77235 0.62695 0.56635 0.0
H1165 H 0.83365 0.59286 0.57174 0.0
H1166 H 0.83159 0.66098 0.52093 0.0
H1167 H 0.83186 0.70243 0.50996 0.0
H1168 H 0.89679 0.71933 0.5434 0.0
H1169 H 0.89678 0.67796 0.55469 0.0
H1170 H 0.91732 0.55042 0.51709 0.0
H1171 H 0.88542 0.56907 0.51996 0.0
H1172 H 0.92566 0.6259 0.55733 0.0
H1173 H 0.95823 0.60837 0.55223 0.0
H1174 H 0.89564 0.64194 0.52973 0.0
H1175 H 0.89521 0.57729 0.58894 0.0
H1176 H 0.89641 0.53637 0.60158 0.0
H1177 H 0.83778 0.51448 0.55688 0.0
H1178 H 0.8364 0.55527 0.54371 0.0
C1179 C 0.81534 0.66115 0.59577 0.0
C1180 C 0.79344 0.65143 0.58963 0.0
C1181 C 0.83256 0.65387 0.58441 0.0
C1182 C 0.82816 0.63678 0.56671 0.0
C1183 C 0.80631 0.62748 0.56005 0.0
C1184 C 0.78906 0.63484 0.57132 0.0
C1185 C 0.8464 0.62712 0.55696 0.0
C1186 C 0.84701 0.6035 0.56212 0.0
C1187 C 0.86409 0.64125 0.54513 0.0
C1188 C 0.8641 0.66628 0.53866 0.0
C1189 C 0.84587 0.67352 0.52599 0.0
C1190 C 0.84599 0.69702 0.51971 0.0
C1191 C 0.86434 0.71352 0.52598 0.0
C1192 C 0.88259 0.70653 0.53853 0.0
C1193 C 0.88253 0.68303 0.54482 0.0
C1194 C 0.91958 0.5672 0.52531 0.0
C1195 C 0.94039 0.57798 0.5343 0.0
C1196 C 0.90122 0.57772 0.5272 0.0
C1197 C 0.90304 0.59858 0.53943 0.0
C1198 C 0.92386 0.60975 0.54786 0.0
C1199 C 0.94243 0.59961 0.54514 0.0
C1200 C 0.88311 0.60786 0.54508 0.0
C1201 C 0.88216 0.63132 0.53915 0.0
C1202 C 0.8653 0.59378 0.55682 0.0
C1203 C 0.86583 0.56929 0.56516 0.0
C1204 C 0.88263 0.56373 0.58174 0.0
C1205 C 0.88334 0.54057 0.58899 0.0
C1206 C 0.86722 0.52283 0.57999 0.0
C1207 C 0.85028 0.52823 0.56381 0.0
C1208 C 0.84951 0.55137 0.55646 0.0
H1209 H 0.86783 0.5049 0.58558 0.0
H1210 H 0.86442 0.73172 0.52111 0.0
H1211 H 0.37477 0.41018 0.2905 0.0
H1212 H 0.39042 0.42867 0.25253 0.0
H1213 H 0.3418 0.38388 0.20907 0.0
H1214 H 0.32613 0.36514 0.24707 0.0
H1215 H 0.38283 0.38755 0.1912 0.0
H1216 H 0.33558 0.44274 0.21178 0.0
H1217 H 0.32159 0.46732 0.24092 0.0
H1218 H 0.38736 0.50218 0.25737 0.0
H1219 H 0.40168 0.47752 0.22862 0.0
H1220 H 0.40203 0.44893 0.07692 0.0
H1221 H 0.38315 0.43244 0.1138 0.0
H1222 H 0.43038 0.47656 0.15948 0.0
H1223 H 0.44928 0.49342 0.12263 0.0
H1224 H 0.38875 0.4726 0.17543 0.0
H1225 H 0.43633 0.42119 0.15205 0.0
H1226 H 0.45113 0.39681 0.1235 0.0
H1227 H 0.3876 0.35416 0.11475 0.0
H1228 H 0.37235 0.37852 0.143 0.0
C1229 C 0.36727 0.40444 0.27286 0.0
C1230 C 0.34913 0.38633 0.27175 0.0
C1231 C 0.37623 0.41499 0.25118 0.0
C1232 C 0.36707 0.40787 0.22799 0.0
C1233 C 0.3491 0.38964 0.22679 0.0
C1234 C 0.3402 0.37896 0.24849 0.0
C1235 C 0.37627 0.41949 0.20501 0.0
C1236 C 0.38395 0.40614 0.18763 0.0
C1237 C 0.37818 0.44376 0.20064 0.0
C1238 C 0.36964 0.45853 0.21791 0.0
C1239 C 0.34701 0.45567 0.22163 0.0
C1240 C 0.33904 0.46956 0.2381 0.0
C1241 C 0.35357 0.48635 0.25093 0.0
C1242 C 0.37611 0.48923 0.24737 0.0
C1243 C 0.38416 0.47534 0.23096 0.0
C1244 C 0.40825 0.45543 0.09475 0.0
C1245 C 0.42739 0.47225 0.09685 0.0
C1246 C 0.39749 0.44586 0.11583 0.0
C1247 C 0.40567 0.45288 0.13939 0.0
C1248 C 0.42391 0.47075 0.14146 0.0
C1249 C 0.43471 0.48034 0.12038 0.0
C1250 C 0.3958 0.44092 0.16191 0.0
C1251 C 0.38786 0.45414 0.17915 0.0
C1252 C 0.39399 0.41659 0.16629 0.0
C1253 C 0.40315 0.40182 0.14944 0.0
C1254 C 0.42548 0.40672 0.1439 0.0
C1255 C 0.43396 0.39289 0.12779 0.0
C1256 C 0.4203 0.37398 0.11727 0.0
C1257 C 0.39815 0.36883 0.12289 0.0
C1258 C 0.38959 0.38263 0.13896 0.0
H1259 H 0.42689 0.36329 0.1048 0.0
H1260 H 0.34737 0.4971 0.26366 0.0
H1261 H 0.40926 0.66651 0.80829 0.0
H1262 H 0.42998 0.65067 0.84267 0.0
H1263 H 0.37669 0.59339 0.85251 0.0
H1264 H 0.35586 0.60899 0.81777 0.0
H1265 H 0.39376 0.61057 0.89697 0.0
H1266 H 0.42153 0.58558 0.82381 0.0
H1267 H 0.43718 0.5902 0.78259 0.0
H1268 H 0.49413 0.63507 0.81174 0.0
H1269 H 0.47866 0.631 0.85309 0.0
H1270 H 0.45595 0.53721 0.9704 0.0
H1271 H 0.43229 0.55505 0.9405 0.0
H1272 H 0.48626 0.6101 0.9244 0.0
H1273 H 0.5102 0.59204 0.95383 0.0
H1274 H 0.46795 0.59351 0.88316 0.0
H1275 H 0.44024 0.61841 0.95662 0.0
H1276 H 0.42463 0.61342 0.99787 0.0
H1277 H 0.36779 0.56855 0.96851 0.0
H1278 H 0.3832 0.57301 0.92712 0.0
C1279 C 0.40196 0.65042 0.81756 0.0
C1280 C 0.38093 0.63891 0.80997 0.0
C1281 C 0.41383 0.64143 0.83733 0.0
C1282 C 0.40504 0.62066 0.85001 0.0
C1283 C 0.38382 0.60944 0.843 0.0
C1284 C 0.37191 0.61842 0.82315 0.0
C1285 C 0.41826 0.61052 0.8702 0.0
C1286 C 0.40988 0.60657 0.89391 0.0
C1287 C 0.43947 0.60569 0.86635 0.0
C1288 C 0.44882 0.60817 0.8415 0.0
C1289 C 0.4373 0.5966 0.82139 0.0
C1290 C 0.44616 0.59909 0.79801 0.0
C1291 C 0.46661 0.61297 0.79453 0.0
C1292 C 0.47827 0.62435 0.81445 0.0
C1293 C 0.46947 0.62195 0.83787 0.0
C1294 C 0.4627 0.55337 0.96093 0.0
C1295 C 0.48504 0.56314 0.9646 0.0
C1296 C 0.4491 0.56362 0.94377 0.0
C1297 C 0.4574 0.58404 0.93016 0.0
C1298 C 0.47945 0.59432 0.93455 0.0
C1299 C 0.49309 0.584 0.95153 0.0
C1300 C 0.44366 0.59383 0.91016 0.0
C1301 C 0.45189 0.5976 0.88636 0.0
C1302 C 0.42234 0.59847 0.91398 0.0
C1303 C 0.41298 0.59588 0.93881 0.0
C1304 C 0.42449 0.60734 0.95899 0.0
C1305 C 0.41566 0.60463 0.98239 0.0
C1306 C 0.39526 0.59063 0.98582 0.0
C1307 C 0.38361 0.57936 0.96583 0.0
C1308 C 0.39237 0.582 0.94239 0.0
H1309 H 0.38846 0.58855 1.00396 0.0
H1310 H 0.47345 0.61487 0.77641 0.0
H1311 H 0.34417 0.36844 0.81566 0.0
H1312 H 0.36278 0.38823 0.85119 0.0
H1313 H 0.42546 0.38817 0.81979 0.0
H1314 H 0.4072 0.36608 0.78561 0.0
H1315 H 0.43158 0.38181 0.86467 0.0
H1316 H 0.39686 0.43775 0.81814 0.0
H1317 H 0.36688 0.45465 0.79638 0.0
H1318 H 0.33313 0.4512 0.86406 0.0
H1319 H 0.3628 0.43399 0.88618 0.0
H1320 H 0.48952 0.48539 0.91747 0.0
H1321 H 0.46567 0.46095 0.88862 0.0
H1322 H 0.42448 0.43175 0.94794 0.0
H1323 H 0.44877 0.45596 0.97751 0.0
H1324 H 0.40599 0.45173 0.89282 0.0
H1325 H 0.44716 0.39571 0.9376 0.0
H1326 H 0.48249 0.3863 0.95484 0.0
H1327 H 0.50973 0.39858 0.88316 0.0
H1328 H 0.47458 0.40821 0.86555 0.0
C1329 C 0.36194 0.37209 0.81644 0.0
C1330 C 0.37403 0.36561 0.79738 0.0
C1331 C 0.3726 0.3839 0.8367 0.0
C1332 C 0.39559 0.39032 0.83806 0.0
C1333 C 0.40772 0.38361 0.81928 0.0
C1334 C 0.39713 0.37124 0.79938 0.0
C1335 C 0.40705 0.40404 0.85891 0.0
C1336 C 0.42585 0.39707 0.87067 0.0
C1337 C 0.39987 0.42414 0.867 0.0
C1338 C 0.38191 0.4343 0.85374 0.0
C1339 C 0.38295 0.44041 0.82834 0.0
C1340 C 0.36603 0.45007 0.81595 0.0
C1341 C 0.34807 0.45392 0.82881 0.0
C1342 C 0.34703 0.44815 0.85411 0.0
C1343 C 0.36389 0.43845 0.86659 0.0
C1344 C 0.47539 0.47387 0.92456 0.0
C1345 C 0.47116 0.47253 0.94992 0.0
C1346 C 0.46176 0.45995 0.90795 0.0
C1347 C 0.44343 0.4446 0.9162 0.0
C1348 C 0.43863 0.44358 0.94131 0.0
C1349 C 0.45251 0.45734 0.95814 0.0
C1350 C 0.42998 0.42917 0.89836 0.0
C1351 C 0.41113 0.43606 0.88702 0.0
C1352 C 0.43755 0.4096 0.88997 0.0
C1353 C 0.4583 0.40273 0.9003 0.0
C1354 C 0.4607 0.39642 0.92554 0.0
C1355 C 0.48068 0.39104 0.93537 0.0
C1356 C 0.49835 0.39185 0.9201 0.0
C1357 C 0.49602 0.3979 0.89494 0.0
C1358 C 0.47606 0.40326 0.88502 0.0
H1359 H 0.51384 0.38779 0.92777 0.0
H1360 H 0.335 0.46142 0.81919 0.0
H1361 H 0.68507 0.38256 0.82184 0.0
H1362 H 0.66734 0.40262 0.85091 0.0
H1363 H 0.60642 0.38849 0.80739 0.0
H1364 H 0.6247 0.37156 0.77641 0.0
H1365 H 0.60766 0.42699 0.82159 0.0
H1366 H 0.62094 0.35807 0.86713 0.0
H1367 H 0.64271 0.32928 0.88532 0.0
H1368 H 0.68197 0.38192 0.92866 0.0
H1369 H 0.66059 0.41109 0.9105 0.0
H1370 H 0.53516 0.44499 0.91174 0.0
H1371 H 0.55643 0.42606 0.88488 0.0
H1372 H 0.61644 0.45817 0.92234 0.0
H1373 H 0.59498 0.47681 0.94998 0.0
H1374 H 0.61735 0.41287 0.91216 0.0
H1375 H 0.59681 0.48038 0.86505 0.0
H1376 H 0.56996 0.50383 0.84649 0.0
H1377 H 0.53745 0.44558 0.80613 0.0
H1378 H 0.56385 0.42164 0.82445 0.0
C1379 C 0.66804 0.3841 0.81793 0.0
C1380 C 0.65655 0.37509 0.79635 0.0
C1381 C 0.65769 0.3952 0.83512 0.0
C1382 C 0.63525 0.39671 0.83194 0.0
C1383 C 0.62371 0.38763 0.81057 0.0
C1384 C 0.63423 0.37739 0.79291 0.0
C1385 C 0.6238 0.40824 0.85029 0.0
C1386 C 0.60964 0.42352 0.84135 0.0
C1387 C 0.62646 0.4043 0.87627 0.0
C1388 C 0.63932 0.3868 0.88725 0.0
C1389 C 0.63431 0.36353 0.88041 0.0
C1390 C 0.64657 0.34714 0.89074 0.0
C1391 C 0.66376 0.35378 0.90808 0.0
C1392 C 0.66868 0.37681 0.91519 0.0
C1393 C 0.65649 0.39328 0.90491 0.0
C1394 C 0.5529 0.44797 0.9144 0.0
C1395 C 0.56343 0.46254 0.93288 0.0
C1396 C 0.56505 0.4372 0.8989 0.0
C1397 C 0.5881 0.44114 0.9011 0.0
C1398 C 0.59868 0.45502 0.92015 0.0
C1399 C 0.58643 0.46561 0.93597 0.0
C1400 C 0.60098 0.43098 0.88327 0.0
C1401 C 0.6155 0.41618 0.89235 0.0
C1402 C 0.59793 0.43454 0.85735 0.0
C1403 C 0.58227 0.44919 0.84623 0.0
C1404 C 0.58389 0.47254 0.8523 0.0
C1405 C 0.56877 0.48592 0.84183 0.0
C1406 C 0.55205 0.47623 0.82525 0.0
C1407 C 0.55041 0.45309 0.81899 0.0
C1408 C 0.56546 0.43962 0.82936 0.0
H1409 H 0.54039 0.48666 0.81722 0.0
H1410 H 0.67322 0.34107 0.91605 0.0
H1411 H 0.64354 0.64968 0.77162 0.0
H1412 H 0.62782 0.62905 0.80848 0.0
H1413 H 0.67071 0.5785 0.80444 0.0
H1414 H 0.68651 0.59908 0.76734 0.0
H1415 H 0.60551 0.58612 0.81334 0.0
H1416 H 0.68214 0.55899 0.8646 0.0
H1417 H 0.72211 0.57273 0.86914 0.0
H1418 H 0.71226 0.64286 0.85219 0.0
H1419 H 0.67224 0.62959 0.84789 0.0
H1420 H 0.56442 0.513 0.91243 0.0
H1421 H 0.58741 0.526 0.87742 0.0
H1422 H 0.62124 0.58378 0.91843 0.0
H1423 H 0.5995 0.57007 0.9541 0.0
H1424 H 0.64877 0.57002 0.89008 0.0
H1425 H 0.57499 0.5874 0.87897 0.0
H1426 H 0.53453 0.57772 0.87604 0.0
H1427 H 0.53786 0.53468 0.81487 0.0
H1428 H 0.57835 0.54394 0.81759 0.0
C1429 C 0.64958 0.63412 0.77851 0.0
C1430 C 0.66616 0.62591 0.76651 0.0
C1431 C 0.64062 0.62238 0.79959 0.0
C1432 C 0.6481 0.60226 0.80918 0.0
C1433 C 0.66487 0.59414 0.79747 0.0
C1434 C 0.6739 0.60593 0.77634 0.0
C1435 C 0.63784 0.58961 0.8311 0.0
C1436 C 0.61499 0.58248 0.83008 0.0
C1437 C 0.6502 0.58504 0.85296 0.0
C1438 C 0.67423 0.59323 0.85562 0.0
C1439 C 0.68851 0.57735 0.86189 0.0
C1440 C 0.71118 0.58506 0.86442 0.0
C1441 C 0.71973 0.60864 0.86085 0.0
C1442 C 0.70563 0.62459 0.85483 0.0
C1443 C 0.68296 0.61697 0.85231 0.0
C1444 C 0.57708 0.52815 0.9142 0.0
C1445 C 0.58001 0.54062 0.93596 0.0
C1446 C 0.59008 0.53564 0.8941 0.0
C1447 C 0.60556 0.5562 0.89502 0.0
C1448 C 0.60934 0.56791 0.91721 0.0
C1449 C 0.5968 0.56009 0.93757 0.0
C1450 C 0.61639 0.56672 0.87241 0.0
C1451 C 0.63933 0.57337 0.87323 0.0
C1452 C 0.60405 0.57144 0.85052 0.0
C1453 C 0.5797 0.56612 0.84869 0.0
C1454 C 0.56709 0.57576 0.86499 0.0
C1455 C 0.54415 0.57038 0.86335 0.0
C1456 C 0.53363 0.55554 0.84533 0.0
C1457 C 0.54603 0.54615 0.82883 0.0
C1458 C 0.56896 0.55149 0.83039 0.0
H1459 H 0.51588 0.55137 0.84411 0.0
H1460 H 0.73728 0.61457 0.86281 0.0
H1461 H 0.65863 0.66937 0.19191 0.0
H1462 H 0.63897 0.64612 0.15875 0.0
H1463 H 0.59996 0.60314 0.21272 0.0
H1464 H 0.61977 0.62606 0.24585 0.0
H1465 H 0.61377 0.57684 0.18161 0.0
H1466 H 0.57985 0.64555 0.1734 0.0
H1467 H 0.57941 0.68759 0.1675 0.0
H1468 H 0.60876 0.68822 0.09733 0.0
H1469 H 0.60962 0.64623 0.10297 0.0
H1470 H 0.52158 0.5233 0.11106 0.0
H1471 H 0.54846 0.54526 0.13889 0.0
H1472 H 0.58374 0.5785 0.07663 0.0
H1473 H 0.5563 0.55677 0.04825 0.0
H1474 H 0.57588 0.60972 0.1087 0.0
H1475 H 0.62093 0.5451 0.12575 0.0
H1476 H 0.62568 0.5044 0.13512 0.0
H1477 H 0.57517 0.49665 0.18779 0.0
H1478 H 0.57096 0.53766 0.17958 0.0
C1479 C 0.6457 0.65511 0.19665 0.0
C1480 C 0.64079 0.64952 0.22151 0.0
C1481 C 0.63445 0.64183 0.17767 0.0
C1482 C 0.61782 0.62294 0.18316 0.0
C1483 C 0.61277 0.61754 0.20798 0.0
C1484 C 0.62412 0.63065 0.22692 0.0
C1485 C 0.60605 0.60823 0.16332 0.0
C1486 C 0.60535 0.5841 0.1658 0.0
C1487 C 0.59563 0.6176 0.14217 0.0
C1488 C 0.59502 0.64281 0.13874 0.0
C1489 C 0.58636 0.65469 0.1568 0.0
C1490 C 0.58601 0.6785 0.15349 0.0
C1491 C 0.59411 0.69058 0.13209 0.0
C1492 C 0.60252 0.67886 0.11392 0.0
C1493 C 0.60293 0.65505 0.11716 0.0
C1494 C 0.53518 0.53502 0.10313 0.0
C1495 C 0.53666 0.53832 0.07731 0.0
C1496 C 0.55079 0.54738 0.1192 0.0
C1497 C 0.56848 0.5632 0.10998 0.0
C1498 C 0.57036 0.56621 0.08421 0.0
C1499 C 0.55464 0.55381 0.068 0.0
C1500 C 0.58328 0.57834 0.12732 0.0
C1501 C 0.58455 0.60256 0.12438 0.0
C1502 C 0.5942 0.56914 0.14813 0.0
C1503 C 0.59527 0.54414 0.15162 0.0
C1504 C 0.61072 0.53461 0.13916 0.0
C1505 C 0.61354 0.51162 0.14452 0.0
C1506 C 0.60061 0.49788 0.16188 0.0
C1507 C 0.58508 0.50724 0.17423 0.0
C1508 C 0.58261 0.5304 0.1694 0.0
H1509 H 0.60264 0.48001 0.16577 0.0
H1510 H 0.59383 0.70901 0.12956 0.0
H1511 H 0.37893 0.67853 0.21363 0.0
H1512 H 0.39585 0.65871 0.18294 0.0
H1513 H 0.3414 0.60177 0.18533 0.0
H1514 H 0.32459 0.62129 0.21634 0.0
H1515 H 0.38048 0.58675 0.18938 0.0
H1516 H 0.347 0.6397 0.13573 0.0
H1517 H 0.33883 0.67798 0.12082 0.0
H1518 H 0.40724 0.70198 0.10904 0.0
H1519 H 0.41588 0.66393 0.12423 0.0
H1520 H 0.40927 0.53015 0.08379 0.0
H1521 H 0.38795 0.55241 0.10793 0.0
H1522 H 0.44613 0.60321 0.12161 0.0
H1523 H 0.46756 0.58058 0.09855 0.0
H1524 H 0.40375 0.62133 0.1075 0.0
H1525 H 0.43773 0.57054 0.16354 0.0
H1526 H 0.44706 0.53338 0.18046 0.0
H1527 H 0.37864 0.50703 0.19001 0.0
H1528 H 0.36891 0.5436 0.17225 0.0
C1529 C 0.37056 0.66179 0.20761 0.0
C1530 C 0.3504 0.65149 0.21745 0.0
C1531 C 0.38014 0.65058 0.18989 0.0
C1532 C 0.36979 0.62884 0.18163 0.0
C1533 C 0.34963 0.61858 0.19132 0.0
C1534 C 0.33998 0.62983 0.20894 0.0
C1535 C 0.38053 0.61622 0.1639 0.0
C1536 C 0.38515 0.59416 0.17128 0.0
C1537 C 0.38726 0.62615 0.14057 0.0
C1538 C 0.38211 0.64902 0.13133 0.0
C1539 C 0.36033 0.6532 0.13015 0.0
C1540 C 0.35561 0.67485 0.12162 0.0
C1541 C 0.37251 0.69242 0.11405 0.0
C1542 C 0.39417 0.68836 0.11494 0.0
C1543 C 0.39898 0.66675 0.12348 0.0
C1544 C 0.41735 0.54624 0.09169 0.0
C1545 C 0.43999 0.55372 0.08937 0.0
C1546 C 0.40523 0.55889 0.10546 0.0
C1547 C 0.4155 0.57948 0.11647 0.0
C1548 C 0.43789 0.58746 0.11315 0.0
C1549 C 0.45011 0.57448 0.10009 0.0
C1550 C 0.40339 0.59184 0.13298 0.0
C1551 C 0.39871 0.61386 0.12545 0.0
C1552 C 0.39673 0.58201 0.15629 0.0
C1553 C 0.40255 0.55964 0.16608 0.0
C1554 C 0.42465 0.55661 0.16872 0.0
C1555 C 0.43004 0.53566 0.17855 0.0
C1556 C 0.4135 0.51777 0.18622 0.0
C1557 C 0.39151 0.52076 0.18396 0.0
C1558 C 0.38602 0.54157 0.1739 0.0
H1559 H 0.4178 0.50166 0.19398 0.0
H1560 H 0.36883 0.70917 0.10744 0.0
H1561 H 0.61407 0.39556 0.23369 0.0
H1562 H 0.59133 0.40987 0.19981 0.0
H1563 H 0.63406 0.39107 0.14674 0.0
H1564 H 0.65665 0.37623 0.18057 0.0
H1565 H 0.61701 0.44035 0.14146 0.0
H1566 H 0.59572 0.35554 0.14782 0.0
H1567 H 0.5847 0.3188 0.17183 0.0
H1568 H 0.52914 0.34455 0.19725 0.0
H1569 H 0.54006 0.3816 0.17368 0.0
H1570 H 0.54533 0.4565 0.03845 0.0
H1571 H 0.57157 0.43865 0.06531 0.0
H1572 H 0.52302 0.42215 0.12076 0.0
H1573 H 0.49652 0.4384 0.09349 0.0
H1574 H 0.54543 0.38988 0.12306 0.0
H1575 H 0.56364 0.473 0.11761 0.0
H1576 H 0.57248 0.51064 0.09475 0.0
H1577 H 0.63209 0.49175 0.0715 0.0
H1578 H 0.62326 0.45357 0.09354 0.0
C1579 C 0.61879 0.39478 0.21482 0.0
C1580 C 0.63708 0.38474 0.20974 0.0
C1581 C 0.6058 0.40294 0.19552 0.0
C1582 C 0.61109 0.40158 0.17083 0.0
C1583 C 0.62982 0.39239 0.1657 0.0
C1584 C 0.64258 0.38379 0.18498 0.0
C1585 C 0.59601 0.40801 0.15046 0.0
C1586 C 0.6015 0.42922 0.13709 0.0
C1587 C 0.57556 0.39377 0.14534 0.0
C1588 C 0.56883 0.3714 0.15921 0.0
C1589 C 0.58127 0.35344 0.15871 0.0
C1590 C 0.57502 0.33255 0.1722 0.0
C1591 C 0.55627 0.32936 0.18611 0.0
C1592 C 0.54368 0.34704 0.1865 0.0
C1593 C 0.54989 0.36798 0.17306 0.0
C1594 C 0.54017 0.44857 0.05616 0.0
C1595 C 0.51889 0.44894 0.06387 0.0
C1596 C 0.55521 0.43852 0.07159 0.0
C1597 C 0.54954 0.42959 0.09544 0.0
C1598 C 0.52793 0.42894 0.10255 0.0
C1599 C 0.51274 0.4383 0.08689 0.0
C1600 C 0.56624 0.42236 0.11375 0.0
C1601 C 0.56102 0.40102 0.12702 0.0
C1602 C 0.58671 0.43681 0.1191 0.0
C1603 C 0.59264 0.46025 0.10697 0.0
C1604 C 0.57854 0.47675 0.10743 0.0
C1605 C 0.58348 0.49815 0.0945 0.0
C1606 C 0.60274 0.50353 0.08153 0.0
C1607 C 0.61713 0.48752 0.08149 0.0
C1608 C 0.61214 0.46596 0.09415 0.0
H1609 H 0.60659 0.52018 0.07167 0.0
H1610 H 0.55145 0.31318 0.19655 0.0
loop_
_geom_bond_atom_site_label_1
_geom_bond_atom_site_label_2
_geom_bond_distance
_geom_bond_site_symmetry_2
_ccdc_geom_bond_type
C0 C1 1.386 . S
C0 C2 1.397 . S
C0 H24 0.931 . S
C1 C0 1.386 . S
C1 C5 1.397 . S
C2 C0 1.397 . S
C2 C3 1.384 . S
C2 H25 0.930 . S
C3 C2 1.384 . S
C3 C4 1.377 . S
C3 C6 1.481 . S
C4 C3 1.377 . S
C4 C5 1.389 . S
C4 H26 0.929 . S
C5 C1 1.397 . S
C5 C4 1.389 . S
C5 H27 0.931 . S
C6 C3 1.481 . S
C6 C7 1.387 . S
C6 C11 1.390 . S
C7 C6 1.387 . S
C7 C8 1.401 . S
C7 H28 0.930 . S
C8 C7 1.401 . S
C8 C9 1.376 . S
C8 C17 1.511 . S
C9 C8 1.376 . S
C9 C10 1.392 . S
C9 H30 0.931 . S
C10 C9 1.392 . S
C10 C11 1.361 . S
C10 C12 1.500 . S
C11 C6 1.390 . S
C11 C10 1.361 . S
C11 H29 0.931 . S
C12 C10 1.500 . S
C12 C13 1.371 . S
C12 C14 1.365 . S
C13 C12 1.371 . S
C13 C23 1.386 . S
C13 H31 0.931 . S
C14 C12 1.365 . S
C14 C15 1.409 . S
C14 H32 0.929 . S
C15 C14 1.409 . S
C15 C16 1.380 . S
C15 H33 0.930 . S
C16 C15 1.380 . S
C16 C23 1.357 . S
C17 C8 1.511 . S
C17 C18 1.341 . S
C17 C19 1.371 . S
C18 C17 1.341 . S
C18 C22 1.394 . S
C18 H34 0.930 . S
C19 C17 1.371 . S
C19 C20 1.392 . S
C19 H35 0.931 . S
C20 C19 1.392 . S
C20 C21 1.331 . S
C20 H38 0.932 . S
C21 C20 1.331 . S
C21 C22 1.336 . S
C22 C18 1.394 . S
C22 C21 1.336 . S
C22 H37 0.929 . S
C23 C13 1.386 . S
C23 C16 1.357 . S
C23 H36 0.928 . S
H24 C0 0.931 . S
H25 C2 0.930 . S
H26 C4 0.929 . S
H27 C5 0.931 . S
H28 C7 0.930 . S
H29 C11 0.931 . S
H30 C9 0.931 . S
H31 C13 0.931 . S
H32 C14 0.929 . S
H33 C15 0.930 . S
H34 C18 0.930 . S
H35 C19 0.931 . S
H36 C23 0.928 . S
H37 C22 0.929 . S
H38 C20 0.932 . S
C39 C40 1.386 . S
C39 C41 1.397 . S
C39 H63 0.931 . S
C40 C39 1.386 . S
C40 C44 1.397 . S
C41 C39 1.397 . S
C41 C42 1.384 . S
C41 H64 0.930 . S
C42 C41 1.384 . S
C42 C43 1.377 . S
C42 C45 1.481 . S
C43 C42 1.377 . S
C43 C44 1.389 . S
C43 H65 0.929 . S
C44 C40 1.397 . S
C44 C43 1.389 . S
C44 H66 0.931 . S
C45 C42 1.481 . S
C45 C46 1.387 . S
C45 C50 1.390 . S
C46 C45 1.387 . S
C46 C47 1.401 . S
C46 H67 0.930 . S
C47 C46 1.401 . S
C47 C48 1.376 . S
C47 C56 1.511 . S
C48 C47 1.376 . S
C48 C49 1.392 . S
C48 H69 0.931 . S
C49 C48 1.392 . S
C49 C50 1.361 . S
C49 C51 1.500 . S
C50 C45 1.390 . S
C50 C49 1.361 . S
C50 H68 0.931 . S
C51 C49 1.500 . S
C51 C52 1.371 . S
C51 C53 1.365 . S
C52 C51 1.371 . S
C52 C62 1.386 . S
C52 H70 0.931 . S
C53 C51 1.365 . S
C53 C54 1.409 . S
C53 H71 0.929 . S
C54 C53 1.409 . S
C54 C55 1.380 . S
C54 H72 0.930 . S
C55 C54 1.380 . S
C55 C62 1.357 . S
C56 C47 1.511 . S
C56 C57 1.341 . S
C56 C58 1.371 . S
C57 C56 1.341 . S
C57 C61 1.394 . S
C57 H73 0.930 . S
C58 C56 1.371 . S
C58 C59 1.392 . S
C58 H74 0.931 . S
C59 C58 1.392 . S
C59 C60 1.331 . S
C59 H77 0.932 . S
C60 C59 1.331 . S
C60 C61 1.336 . S
C61 C57 1.394 . S
C61 C60 1.336 . S
C61 H76 0.929 . S
C62 C52 1.386 . S
C62 C55 1.357 . S
C62 H75 0.928 . S
H63 C39 0.931 . S
H64 C41 0.930 . S
H65 C43 0.929 . S
H66 C44 0.931 . S
H67 C46 0.930 . S
H68 C50 0.931 . S
H69 C48 0.931 . S
H70 C52 0.931 . S
H71 C53 0.929 . S
H72 C54 0.930 . S
H73 C57 0.930 . S
H74 C58 0.931 . S
H75 C62 0.928 . S
H76 C61 0.929 . S
H77 C59 0.932 . S
C78 C79 1.386 . S
C78 C80 1.397 . S
C78 H102 0.931 . S
C79 C78 1.386 . S
C79 C83 1.397 . S
C80 C78 1.397 . S
C80 C81 1.384 . S
C80 H103 0.930 . S
C81 C80 1.384 . S
C81 C82 1.377 . S
C81 C84 1.481 . S
C82 C81 1.377 . S
C82 C83 1.389 . S
C82 H104 0.929 . S
C83 C79 1.397 . S
C83 C82 1.389 . S
C83 H105 0.931 . S
C84 C81 1.481 . S
C84 C85 1.387 . S
C84 C89 1.390 . S
C85 C84 1.387 . S
C85 C86 1.401 . S
C85 H106 0.930 . S
C86 C85 1.401 . S
C86 C87 1.376 . S
C86 C95 1.511 . S
C87 C86 1.376 . S
C87 C88 1.392 . S
C87 H108 0.931 . S
C88 C87 1.392 . S
C88 C89 1.361 . S
C88 C90 1.500 . S
C89 C84 1.390 . S
C89 C88 1.361 . S
C89 H107 0.931 . S
C90 C88 1.500 . S
C90 C91 1.371 . S
C90 C92 1.365 . S
C91 C90 1.371 . S
C91 C101 1.386 . S
C91 H109 0.931 . S
C92 C90 1.365 . S
C92 C93 1.409 . S
C92 H110 0.929 . S
C93 C92 1.409 . S
C93 C94 1.380 . S
C93 H111 0.930 . S
C94 C93 1.380 . S
C94 C101 1.357 . S
C95 C86 1.511 . S
C95 C96 1.341 . S
C95 C97 1.371 . S
C96 C95 1.341 . S
C96 C100 1.394 . S
C96 H112 0.930 . S
C97 C95 1.371 . S
C97 C98 1.392 . S
C97 H113 0.931 . S
C98 C97 1.392 . S
C98 C99 1.331 . S
C98 H116 0.932 . S
C99 C98 1.331 . S
C99 C100 1.336 . S
C100 C96 1.394 . S
C100 C99 1.336 . S
C100 H115 0.929 . S
C101 C91 1.386 . S
C101 C94 1.357 . S
C101 H114 0.928 . S
H102 C78 0.931 . S
H103 C80 0.930 . S
H104 C82 0.929 . S
H105 C83 0.931 . S
H106 C85 0.930 . S
H107 C89 0.931 . S
H108 C87 0.931 . S
H109 C91 0.931 . S
H110 C92 0.929 . S
H111 C93 0.930 . S
H112 C96 0.930 . S
H113 C97 0.931 . S
H114 C101 0.928 . S
H115 C100 0.929 . S
H116 C98 0.932 . S
C117 C118 1.386 . S
C117 C119 1.397 . S
C117 H141 0.931 . S
C118 C117 1.386 . S
C118 C122 1.397 . S
C119 C117 1.397 . S
C119 C120 1.384 . S
C119 H142 0.930 . S
C120 C119 1.384 . S
C120 C121 1.377 . S
C120 C123 1.481 . S
C121 C120 1.377 . S
C121 C122 1.389 . S
C121 H143 0.929 . S
C122 C118 1.397 . S
C122 C121 1.389 . S
C122 H144 0.931 . S
C123 C120 1.481 . S
C123 C124 1.387 . S
C123 C128 1.390 . S
C124 C123 1.387 . S
C124 C125 1.401 . S
C124 H145 0.930 . S
C125 C124 1.401 . S
C125 C126 1.376 . S
C125 C134 1.511 . S
C126 C125 1.376 . S
C126 C127 1.392 . S
C126 H147 0.931 . S
C127 C126 1.392 . S
C127 C128 1.361 . S
C127 C129 1.500 . S
C128 C123 1.390 . S
C128 C127 1.361 . S
C128 H146 0.931 . S
C129 C127 1.500 . S
C129 C130 1.371 . S
C129 C131 1.365 . S
C130 C129 1.371 . S
C130 C140 1.386 . S
C130 H148 0.931 . S
C131 C129 1.365 . S
C131 C132 1.409 . S
C131 H149 0.929 . S
C132 C131 1.409 . S
C132 C133 1.380 . S
C132 H150 0.930 . S
C133 C132 1.380 . S
C133 C140 1.357 . S
C134 C125 1.511 . S
C134 C135 1.341 . S
C134 C136 1.371 . S
C135 C134 1.341 . S
C135 C139 1.394 . S
C135 H151 0.930 . S
C136 C134 1.371 . S
C136 C137 1.392 . S
C136 H152 0.931 . S
C137 C136 1.392 . S
C137 C138 1.331 . S
C137 H155 0.932 . S
C138 C137 1.331 . S
C138 C139 1.336 . S
C139 C135 1.394 . S
C139 C138 1.336 . S
C139 H154 0.929 . S
C140 C130 1.386 . S
C140 C133 1.357 . S
C140 H153 0.928 . S
H141 C117 0.931 . S
H142 C119 0.930 . S
H143 C121 0.929 . S
H144 C122 0.931 . S
H145 C124 0.930 . S
H146 C128 0.931 . S
H147 C126 0.931 . S
H148 C130 0.931 . S
H149 C131 0.929 . S
H150 C132 0.930 . S
H151 C135 0.930 . S
H152 C136 0.931 . S
H153 C140 0.928 . S
H154 C139 0.929 . S
H155 C137 0.932 . S
C156 C157 1.386 . S
C156 C158 1.397 . S
C156 H180 0.931 . S
C157 C156 1.386 . S
C157 C161 1.397 . S
C158 C156 1.397 . S
C158 C159 1.384 . S
C158 H181 0.930 . S
C159 C158 1.384 . S
C159 C160 1.377 . S
C159 C162 1.481 . S
C160 C159 1.377 . S
C160 C161 1.389 . S
C160 H182 0.929 . S
C161 C157 1.397 . S
C161 C160 1.389 . S
C161 H183 0.931 . S
C162 C159 1.481 . S
C162 C163 1.387 . S
C162 C167 1.390 . S
C163 C162 1.387 . S
C163 C164 1.401 . S
C163 H184 0.930 . S
C164 C163 1.401 . S
C164 C165 1.376 . S
C164 C173 1.511 . S
C165 C164 1.376 . S
C165 C166 1.392 . S
C165 H186 0.931 . S
C166 C165 1.392 . S
C166 C167 1.361 . S
C166 C168 1.500 . S
C167 C162 1.390 . S
C167 C166 1.361 . S
C167 H185 0.931 . S
C168 C166 1.500 . S
C168 C169 1.371 . S
C168 C170 1.365 . S
C169 C168 1.371 . S
C169 C179 1.386 . S
C169 H187 0.931 . S
C170 C168 1.365 . S
C170 C171 1.409 . S
C170 H188 0.929 . S
C171 C170 1.409 . S
C171 C172 1.380 . S
C171 H189 0.930 . S
C172 C171 1.380 . S
C172 C179 1.357 . S
C173 C164 1.511 . S
C173 C174 1.341 . S
C173 C175 1.371 . S
C174 C173 1.341 . S
C174 C178 1.394 . S
C174 H190 0.930 . S
C175 C173 1.371 . S
C175 C176 1.392 . S
C175 H191 0.931 . S
C176 C175 1.392 . S
C176 C177 1.331 . S
C176 H194 0.932 . S
C177 C176 1.331 . S
C177 C178 1.336 . S
C178 C174 1.394 . S
C178 C177 1.336 . S
C178 H193 0.929 . S
C179 C169 1.386 . S
C179 C172 1.357 . S
C179 H192 0.928 . S
H180 C156 0.931 . S
H181 C158 0.930 . S
H182 C160 0.929 . S
H183 C161 0.931 . S
H184 C163 0.930 . S
H185 C167 0.931 . S
H186 C165 0.931 . S
H187 C169 0.931 . S
H188 C170 0.929 . S
H189 C171 0.930 . S
H190 C174 0.930 . S
H191 C175 0.931 . S
H192 C179 0.928 . S
H193 C178 0.929 . S
H194 C176 0.932 . S
C195 C196 1.386 . S
C195 C197 1.397 . S
C195 H219 0.931 . S
C196 C195 1.386 . S
C196 C200 1.397 . S
C197 C195 1.397 . S
C197 C198 1.384 . S
C197 H220 0.930 . S
C198 C197 1.384 . S
C198 C199 1.377 . S
C198 C201 1.481 . S
C199 C198 1.377 . S
C199 C200 1.389 . S
C199 H221 0.929 . S
C200 C196 1.397 . S
C200 C199 1.389 . S
C200 H222 0.931 . S
C201 C198 1.481 . S
C201 C202 1.387 . S
C201 C206 1.390 . S
C202 C201 1.387 . S
C202 C203 1.401 . S
C202 H223 0.930 . S
C203 C202 1.401 . S
C203 C204 1.376 . S
C203 C212 1.511 . S
C204 C203 1.376 . S
C204 C205 1.392 . S
C204 H225 0.931 . S
C205 C204 1.392 . S
C205 C206 1.361 . S
C205 C207 1.500 . S
C206 C201 1.390 . S
C206 C205 1.361 . S
C206 H224 0.931 . S
C207 C205 1.500 . S
C207 C208 1.371 . S
C207 C209 1.365 . S
C208 C207 1.371 . S
C208 C218 1.386 . S
C208 H226 0.931 . S
C209 C207 1.365 . S
C209 C210 1.409 . S
C209 H227 0.929 . S
C210 C209 1.409 . S
C210 C211 1.380 . S
C210 H228 0.930 . S
C211 C210 1.380 . S
C211 C218 1.357 . S
C212 C203 1.511 . S
C212 C213 1.341 . S
C212 C214 1.371 . S
C213 C212 1.341 . S
C213 C217 1.394 . S
C213 H229 0.930 . S
C214 C212 1.371 . S
C214 C215 1.392 . S
C214 H230 0.931 . S
C215 C214 1.392 . S
C215 C216 1.331 . S
C215 H233 0.932 . S
C216 C215 1.331 . S
C216 C217 1.336 . S
C217 C213 1.394 . S
C217 C216 1.336 . S
C217 H232 0.929 . S
C218 C208 1.386 . S
C218 C211 1.357 . S
C218 H231 0.928 . S
H219 C195 0.931 . S
H220 C197 0.930 . S
H221 C199 0.929 . S
H222 C200 0.931 . S
H223 C202 0.930 . S
H224 C206 0.931 . S
H225 C204 0.931 . S
H226 C208 0.931 . S
H227 C209 0.929 . S
H228 C210 0.930 . S
H229 C213 0.930 . S
H230 C214 0.931 . S
H231 C218 0.928 . S
H232 C217 0.929 . S
H233 C215 0.932 . S
C234 C235 1.386 . S
C234 C236 1.397 . S
C234 H258 0.931 . S
C235 C234 1.386 . S
C235 C239 1.397 . S
C236 C234 1.397 . S
C236 C237 1.384 . S
C236 H259 0.930 . S
C237 C236 1.384 . S
C237 C238 1.377 . S
C237 C240 1.481 . S
C238 C237 1.377 . S
C238 C239 1.389 . S
C238 H260 0.929 . S
C239 C235 1.397 . S
C239 C238 1.389 . S
C239 H261 0.931 . S
C240 C237 1.481 . S
C240 C241 1.387 . S
C240 C245 1.390 . S
C241 C240 1.387 . S
C241 C242 1.401 . S
C241 H262 0.930 . S
C242 C241 1.401 . S
C242 C243 1.376 . S
C242 C251 1.511 . S
C243 C242 1.376 . S
C243 C244 1.392 . S
C243 H264 0.931 . S
C244 C243 1.392 . S
C244 C245 1.361 . S
C244 C246 1.500 . S
C245 C240 1.390 . S
C245 C244 1.361 . S
C245 H263 0.931 . S
C246 C244 1.500 . S
C246 C247 1.371 . S
C246 C248 1.365 . S
C247 C246 1.371 . S
C247 C257 1.386 . S
C247 H265 0.931 . S
C248 C246 1.365 . S
C248 C249 1.409 . S
C248 H266 0.929 . S
C249 C248 1.409 . S
C249 C250 1.380 . S
C249 H267 0.930 . S
C250 C249 1.380 . S
C250 C257 1.357 . S
C251 C242 1.511 . S
C251 C252 1.341 . S
C251 C253 1.371 . S
C252 C251 1.341 . S
C252 C256 1.394 . S
C252 H268 0.930 . S
C253 C251 1.371 . S
C253 C254 1.392 . S
C253 H269 0.931 . S
C254 C253 1.392 . S
C254 C255 1.331 . S
C254 H272 0.932 . S
C255 C254 1.331 . S
C255 C256 1.336 . S
C256 C252 1.394 . S
C256 C255 1.336 . S
C256 H271 0.929 . S
C257 C247 1.386 . S
C257 C250 1.357 . S
C257 H270 0.928 . S
H258 C234 0.931 . S
H259 C236 0.930 . S
H260 C238 0.929 . S
H261 C239 0.931 . S
H262 C241 0.930 . S
H263 C245 0.931 . S
H264 C243 0.931 . S
H265 C247 0.931 . S
H266 C248 0.929 . S
H267 C249 0.930 . S
H268 C252 0.930 . S
H269 C253 0.931 . S
H270 C257 0.928 . S
H271 C256 0.929 . S
H272 C254 0.932 . S
C273 C274 1.386 . S
C273 C275 1.397 . S
C273 H297 0.931 . S
C274 C273 1.386 . S
C274 C278 1.397 . S
C275 C273 1.397 . S
C275 C276 1.384 . S
C275 H298 0.930 . S
C276 C275 1.384 . S
C276 C277 1.377 . S
C276 C279 1.481 . S
C277 C276 1.377 . S
C277 C278 1.389 . S
C277 H299 0.929 . S
C278 C274 1.397 . S
C278 C277 1.389 . S
C278 H300 0.931 . S
C279 C276 1.481 . S
C279 C280 1.387 . S
C279 C284 1.390 . S
C280 C279 1.387 . S
C280 C281 1.401 . S
C280 H301 0.930 . S
C281 C280 1.401 . S
C281 C282 1.376 . S
C281 C290 1.511 . S
C282 C281 1.376 . S
C282 C283 1.392 . S
C282 H303 0.931 . S
C283 C282 1.392 . S
C283 C284 1.361 . S
C283 C285 1.500 . S
C284 C279 1.390 . S
C284 C283 1.361 . S
C284 H302 0.931 . S
C285 C283 1.500 . S
C285 C286 1.371 . S
C285 C287 1.365 . S
C286 C285 1.371 . S
C286 C296 1.386 . S
C286 H304 0.931 . S
C287 C285 1.365 . S
C287 C288 1.409 . S
C287 H305 0.929 . S
C288 C287 1.409 . S
C288 C289 1.380 . S
C288 H306 0.930 . S
C289 C288 1.380 . S
C289 C296 1.357 . S
C290 C281 1.511 . S
C290 C291 1.341 . S
C290 C292 1.371 . S
C291 C290 1.341 . S
C291 C295 1.394 . S
C291 H307 0.930 . S
C292 C290 1.371 . S
C292 C293 1.392 . S
C292 H308 0.931 . S
C293 C292 1.392 . S
C293 C294 1.331 . S
C293 H311 0.932 . S
C294 C293 1.331 . S
C294 C295 1.336 . S
C295 C291 1.394 . S
C295 C294 1.336 . S
C295 H310 0.929 . S
C296 C286 1.386 . S
C296 C289 1.357 . S
C296 H309 0.928 . S
H297 C273 0.931 . S
H298 C275 0.930 . S
H299 C277 0.929 . S
H300 C278 0.931 . S
H301 C280 0.930 . S
H302 C284 0.931 . S
H303 C282 0.931 . S
H304 C286 0.931 . S
H305 C287 0.929 . S
H306 C288 0.930 . S
H307 C291 0.930 . S
H308 C292 0.931 . S
H309 C296 0.928 . S
H310 C295 0.929 . S
H311 C293 0.932 . S
Co312 O315 2.042 . S
Co312 O322 2.264 . S
Co312 O341 2.286 . S
Co312 O342 2.069 . S
Co312 O344 2.015 . S
Co313 O315 2.122 . S
Co313 O321 2.073 . S
Co313 O322 2.327 . S
Co313 O323 1.976 . S
Co314 O315 2.087 . S
Co314 O317 2.087 1_455 S
Co314 O324 2.111 . S
Co314 O325 2.143 1_455 S
Co314 O329 2.111 1_455 S
Co314 O343 2.143 . S
O315 Co312 2.042 . S
O315 Co313 2.122 . S
O315 Co314 2.087 . S
O315 H316 0.980 . S
H316 O315 0.980 . S
O317 Co314 2.087 1_655 S
O317 Co318 2.042 . S
O317 Co319 2.122 . S
O317 H320 0.980 . S
Co318 O317 2.042 . S
Co318 O326 2.286 . S
Co318 O327 2.069 . S
Co318 O328 2.015 . S
Co318 O331 2.264 . S
Co319 O317 2.122 . S
Co319 O330 1.976 . S
Co319 O331 2.327 . S
Co319 O332 2.073 . S
H320 O317 0.980 . S
O321 Co313 2.073 . S
O321 C336 1.245 . S
O322 Co312 2.264 . S
O322 Co313 2.327 . S
O322 C336 1.257 . S
O323 Co313 1.976 . S
O323 C335 1.251 . S
O324 Co314 2.111 . S
O324 C335 1.274 . S
O325 Co314 2.143 1_655 S
O325 C338 1.246 . S
O326 Co318 2.286 . S
O326 C337 1.259 . S
O327 Co318 2.069 . S
O327 C337 1.289 . S
O328 Co318 2.015 . S
O328 C338 1.257 . S
O329 Co314 2.111 1_655 S
O329 C339 1.274 . S
O330 Co319 1.976 . S
O330 C339 1.251 . S
O331 Co318 2.264 . S
O331 Co319 2.327 . S
O331 C340 1.257 . S
O332 Co319 2.073 . S
O332 C340 1.245 . S
C333 O341 1.259 . S
C333 O342 1.289 . S
C334 O343 1.246 . S
C334 O344 1.257 . S
C335 O323 1.251 . S
C335 O324 1.274 . S
C336 O321 1.245 . S
C336 O322 1.257 . S
C337 O326 1.259 . S
C337 O327 1.289 . S
C338 O325 1.246 . S
C338 O328 1.257 . S
C339 O329 1.274 . S
C339 O330 1.251 . S
C340 O331 1.257 . S
C340 O332 1.245 . S
O341 Co312 2.286 . S
O341 C333 1.259 . S
O342 Co312 2.069 . S
O342 C333 1.289 . S
O343 Co314 2.143 . S
O343 C334 1.246 . S
O344 Co312 2.015 . S
O344 C334 1.257 . S
Co345 O348 2.042 . S
Co345 O355 2.264 . S
Co345 O374 2.286 . S
Co345 O375 2.069 . S
Co345 O377 2.015 . S
Co346 O348 2.122 . S
Co346 O354 2.073 . S
Co346 O355 2.327 . S
Co346 O356 1.976 . S
Co347 O348 2.087 1_545 S
Co347 O350 2.087 . S
Co347 O357 2.111 1_545 S
Co347 O358 2.143 . S
Co347 O362 2.111 . S
Co347 O376 2.143 1_545 S
O348 Co345 2.042 . S
O348 Co346 2.122 . S
O348 Co347 2.087 1_565 S
O348 H349 0.980 . S
H349 O348 0.980 . S
O350 Co347 2.087 . S
O350 Co351 2.042 . S
O350 Co352 2.122 . S
O350 H353 0.980 . S
Co351 O350 2.042 . S
Co351 O359 2.286 . S
Co351 O360 2.069 . S
Co351 O361 2.015 . S
Co351 O364 2.264 . S
Co352 O350 2.122 . S
Co352 O363 1.976 . S
Co352 O364 2.327 . S
Co352 O365 2.073 . S
H353 O350 0.980 . S
O354 Co346 2.073 . S
O354 C369 1.245 . S
O355 Co345 2.264 . S
O355 Co346 2.327 . S
O355 C369 1.257 . S
O356 Co346 1.976 . S
O356 C368 1.251 . S
O357 Co347 2.111 1_565 S
O357 C368 1.274 . S
O358 Co347 2.143 . S
O358 C371 1.246 . S
O359 Co351 2.286 . S
O359 C370 1.259 . S
O360 Co351 2.069 . S
O360 C370 1.289 . S
O361 Co351 2.015 . S
O361 C371 1.257 . S
O362 Co347 2.111 . S
O362 C372 1.274 . S
O363 Co352 1.976 . S
O363 C372 1.251 . S
O364 Co351 2.264 . S
O364 Co352 2.327 . S
O364 C373 1.257 . S
O365 Co352 2.073 . S
O365 C373 1.245 . S
C366 O374 1.259 . S
C366 O375 1.289 . S
C367 O376 1.246 . S
C367 O377 1.257 . S
C368 O356 1.251 . S
C368 O357 1.274 . S
C369 O354 1.245 . S
C369 O355 1.257 . S
C370 O359 1.259 . S
C370 O360 1.289 . S
C371 O358 1.246 . S
C371 O361 1.257 . S
C372 O362 1.274 . S
C372 O363 1.251 . S
C373 O364 1.257 . S
C373 O365 1.245 . S
O374 Co345 2.286 . S
O374 C366 1.259 . S
O375 Co345 2.069 . S
O375 C366 1.289 . S
O376 Co347 2.143 1_565 S
O376 C367 1.246 . S
O377 Co345 2.015 . S
O377 C367 1.257 . S
Co378 O381 2.042 . S
Co378 O388 2.264 . S
Co378 O407 2.286 . S
Co378 O408 2.069 . S
Co378 O410 2.015 . S
Co379 O381 2.122 . S
Co379 O387 2.073 . S
Co379 O388 2.327 . S
Co379 O389 1.976 . S
Co380 O381 2.087 . S
Co380 O383 2.087 1_554 S
Co380 O390 2.111 . S
Co380 O391 2.143 1_554 S
Co380 O395 2.111 1_554 S
Co380 O409 2.143 . S
O381 Co378 2.042 . S
O381 Co379 2.122 . S
O381 Co380 2.087 . S
O381 H382 0.980 . S
H382 O381 0.980 . S
O383 Co380 2.087 1_556 S
O383 Co384 2.042 . S
O383 Co385 2.122 . S
O383 H386 0.980 . S
Co384 O383 2.042 . S
Co384 O392 2.286 . S
Co384 O393 2.069 . S
Co384 O394 2.015 . S
Co384 O397 2.264 . S
Co385 O383 2.122 . S
Co385 O396 1.976 . S
Co385 O397 2.327 . S
Co385 O398 2.073 . S
H386 O383 0.980 . S
O387 Co379 2.073 . S
O387 C402 1.245 . S
O388 Co378 2.264 . S
O388 Co379 2.327 . S
O388 C402 1.257 . S
O389 Co379 1.976 . S
O389 C401 1.251 . S
O390 Co380 2.111 . S
O390 C401 1.274 . S
O391 Co380 2.143 1_556 S
O391 C404 1.246 . S
O392 Co384 2.286 . S
O392 C403 1.259 . S
O393 Co384 2.069 . S
O393 C403 1.289 . S
O394 Co384 2.015 . S
O394 C404 1.257 . S
O395 Co380 2.111 1_556 S
O395 C405 1.274 . S
O396 Co385 1.976 . S
O396 C405 1.251 . S
O397 Co384 2.264 . S
O397 Co385 2.327 . S
O397 C406 1.257 . S
O398 Co385 2.073 . S
O398 C406 1.245 . S
C399 O407 1.259 . S
C399 O408 1.289 . S
C400 O409 1.246 . S
C400 O410 1.257 . S
C401 O389 1.251 . S
C401 O390 1.274 . S
C402 O387 1.245 . S
C402 O388 1.257 . S
C403 O392 1.259 . S
C403 O393 1.289 . S
C404 O391 1.246 . S
C404 O394 1.257 . S
C405 O395 1.274 . S
C405 O396 1.251 . S
C406 O397 1.257 . S
C406 O398 1.245 . S
O407 Co378 2.286 . S
O407 C399 1.259 . S
O408 Co378 2.069 . S
O408 C399 1.289 . S
O409 Co380 2.143 . S
O409 C400 1.246 . S
O410 Co378 2.015 . S
O410 C400 1.257 . S
H411 C429 0.951 . S
H412 C431 0.951 . S
H413 C433 0.950 . S
H414 C434 0.950 . S
H415 C436 0.950 . S
H416 C439 0.950 . S
H417 C440 0.950 . S
H418 C442 0.950 . S
H419 C443 0.950 . S
H420 C444 0.951 . S
H421 C446 0.951 . S
H422 C448 0.950 . S
H423 C449 0.950 . S
H424 C451 0.950 . S
H425 C454 0.950 . S
H426 C455 0.950 . S
H427 C457 0.950 . S
H428 C458 0.950 . S
C429 H411 0.951 . S
C429 C430 1.366 . S
C429 C431 1.388 . S
C430 C429 1.366 . S
C430 C434 1.385 . S
C431 H412 0.951 . S
C431 C429 1.388 . S
C431 C432 1.366 . S
C432 C431 1.366 . S
C432 C433 1.414 . S
C432 C435 1.499 . S
C433 H413 0.950 . S
C433 C432 1.414 . S
C433 C434 1.374 . S
C434 H414 0.950 . S
C434 C430 1.385 . S
C434 C433 1.374 . S
C435 C432 1.499 . S
C435 C436 1.373 . S
C435 C437 1.389 . S
C436 H415 0.950 . S
C436 C435 1.373 . S
C436 C452 1.377 . S
C437 C435 1.389 . S
C437 C438 1.524 . S
C437 C451 1.377 . S
C438 C437 1.524 . S
C438 C439 1.397 . S
C438 C443 1.363 . S
C439 H416 0.950 . S
C439 C438 1.397 . S
C439 C440 1.334 . S
C440 H417 0.950 . S
C440 C439 1.334 . S
C440 C441 1.287 . S
C441 C440 1.287 . S
C441 C442 1.524 . S
C441 H460 0.913 . S
C442 H418 0.950 . S
C442 C441 1.524 . S
C442 C443 1.415 . S
C443 H419 0.950 . S
C443 C438 1.363 . S
C443 C442 1.415 . S
C444 H420 0.951 . S
C444 C445 1.366 . S
C444 C446 1.388 . S
C445 C444 1.366 . S
C445 C449 1.385 . S
C446 H421 0.951 . S
C446 C444 1.388 . S
C446 C447 1.366 . S
C447 C446 1.366 . S
C447 C448 1.414 . S
C447 C450 1.499 . S
C448 H422 0.950 . S
C448 C447 1.414 . S
C448 C449 1.374 . S
C449 H423 0.950 . S
C449 C445 1.385 . S
C449 C448 1.374 . S
C450 C447 1.499 . S
C450 C451 1.373 . S
C450 C452 1.389 . S
C451 H424 0.950 . S
C451 C437 1.377 . S
C451 C450 1.373 . S
C452 C436 1.377 . S
C452 C450 1.389 . S
C452 C453 1.524 . S
C453 C452 1.524 . S
C453 C454 1.397 . S
C453 C458 1.363 . S
C454 H425 0.950 . S
C454 C453 1.397 . S
C454 C455 1.334 . S
C455 H426 0.950 . S
C455 C454 1.334 . S
C455 C456 1.287 . S
C456 C455 1.287 . S
C456 C457 1.524 . S
C456 H459 0.999 . S
C457 H427 0.950 . S
C457 C456 1.524 . S
C457 C458 1.415 . S
C458 H428 0.950 . S
C458 C453 1.363 . S
C458 C457 1.415 . S
H459 C456 0.999 . S
H460 C441 0.913 . S
H461 C479 0.951 . S
H462 C481 0.951 . S
H463 C483 0.950 . S
H464 C484 0.950 . S
H465 C486 0.950 . S
H466 C489 0.950 . S
H467 C490 0.950 . S
H468 C492 0.950 . S
H469 C493 0.950 . S
H470 C494 0.951 . S
H471 C496 0.951 . S
H472 C498 0.950 . S
H473 C499 0.950 . S
H474 C501 0.950 . S
H475 C504 0.950 . S
H476 C505 0.950 . S
H477 C507 0.950 . S
H478 C508 0.950 . S
C479 H461 0.951 . S
C479 C480 1.366 . S
C479 C481 1.388 . S
C480 C479 1.366 . S
C480 C484 1.385 . S
C481 H462 0.951 . S
C481 C479 1.388 . S
C481 C482 1.366 . S
C482 C481 1.366 . S
C482 C483 1.414 . S
C482 C485 1.499 . S
C483 H463 0.950 . S
C483 C482 1.414 . S
C483 C484 1.374 . S
C484 H464 0.950 . S
C484 C480 1.385 . S
C484 C483 1.374 . S
C485 C482 1.499 . S
C485 C486 1.373 . S
C485 C487 1.389 . S
C486 H465 0.950 . S
C486 C485 1.373 . S
C486 C502 1.377 . S
C487 C485 1.389 . S
C487 C488 1.524 . S
C487 C501 1.377 . S
C488 C487 1.524 . S
C488 C489 1.397 . S
C488 C493 1.363 . S
C489 H466 0.950 . S
C489 C488 1.397 . S
C489 C490 1.334 . S
C490 H467 0.950 . S
C490 C489 1.334 . S
C490 C491 1.287 . S
C491 C490 1.287 . S
C491 C492 1.524 . S
C491 H510 0.913 . S
C492 H468 0.950 . S
C492 C491 1.524 . S
C492 C493 1.415 . S
C493 H469 0.950 . S
C493 C488 1.363 . S
C493 C492 1.415 . S
C494 H470 0.951 . S
C494 C495 1.366 . S
C494 C496 1.388 . S
C495 C494 1.366 . S
C495 C499 1.385 . S
C496 H471 0.951 . S
C496 C494 1.388 . S
C496 C497 1.366 . S
C497 C496 1.366 . S
C497 C498 1.414 . S
C497 C500 1.499 . S
C498 H472 0.950 . S
C498 C497 1.414 . S
C498 C499 1.374 . S
C499 H473 0.950 . S
C499 C495 1.385 . S
C499 C498 1.374 . S
C500 C497 1.499 . S
C500 C501 1.373 . S
C500 C502 1.389 . S
C501 H474 0.950 . S
C501 C487 1.377 . S
C501 C500 1.373 . S
C502 C486 1.377 . S
C502 C500 1.389 . S
C502 C503 1.524 . S
C503 C502 1.524 . S
C503 C504 1.397 . S
C503 C508 1.363 . S
C504 H475 0.950 . S
C504 C503 1.397 . S
C504 C505 1.334 . S
C505 H476 0.950 . S
C505 C504 1.334 . S
C505 C506 1.287 . S
C506 C505 1.287 . S
C506 C507 1.524 . S
C506 H509 0.999 . S
C507 H477 0.950 . S
C507 C506 1.524 . S
C507 C508 1.415 . S
C508 H478 0.950 . S
C508 C503 1.363 . S
C508 C507 1.415 . S
H509 C506 0.999 . S
H510 C491 0.913 . S
H511 C529 0.951 . S
H512 C531 0.951 . S
H513 C533 0.950 . S
H514 C534 0.950 . S
H515 C536 0.950 . S
H516 C539 0.950 . S
H517 C540 0.950 . S
H518 C542 0.950 . S
H519 C543 0.950 . S
H520 C544 0.951 . S
H521 C546 0.951 . S
H522 C548 0.950 . S
H523 C549 0.950 . S
H524 C551 0.950 . S
H525 C554 0.950 . S
H526 C555 0.950 . S
H527 C557 0.950 . S
H528 C558 0.950 . S
C529 H511 0.951 . S
C529 C530 1.366 . S
C529 C531 1.388 . S
C530 C529 1.366 . S
C530 C534 1.385 . S
C531 H512 0.951 . S
C531 C529 1.388 . S
C531 C532 1.366 . S
C532 C531 1.366 . S
C532 C533 1.414 . S
C532 C535 1.499 . S
C533 H513 0.950 . S
C533 C532 1.414 . S
C533 C534 1.374 . S
C534 H514 0.950 . S
C534 C530 1.385 . S
C534 C533 1.374 . S
C535 C532 1.499 . S
C535 C536 1.373 . S
C535 C537 1.389 . S
C536 H515 0.950 . S
C536 C535 1.373 . S
C536 C552 1.377 . S
C537 C535 1.389 . S
C537 C538 1.524 . S
C537 C551 1.377 . S
C538 C537 1.524 . S
C538 C539 1.397 . S
C538 C543 1.363 . S
C539 H516 0.950 . S
C539 C538 1.397 . S
C539 C540 1.334 . S
C540 H517 0.950 . S
C540 C539 1.334 . S
C540 C541 1.287 . S
C541 C540 1.287 . S
C541 C542 1.524 . S
C541 H560 0.913 . S
C542 H518 0.950 . S
C542 C541 1.524 . S
C542 C543 1.415 . S
C543 H519 0.950 . S
C543 C538 1.363 . S
C543 C542 1.415 . S
C544 H520 0.951 . S
C544 C545 1.366 . S
C544 C546 1.388 . S
C545 C544 1.366 . S
C545 C549 1.385 . S
C546 H521 0.951 . S
C546 C544 1.388 . S
C546 C547 1.366 . S
C547 C546 1.366 . S
C547 C548 1.414 . S
C547 C550 1.499 . S
C548 H522 0.950 . S
C548 C547 1.414 . S
C548 C549 1.374 . S
C549 H523 0.950 . S
C549 C545 1.385 . S
C549 C548 1.374 . S
C550 C547 1.499 . S
C550 C551 1.373 . S
C550 C552 1.389 . S
C551 H524 0.950 . S
C551 C537 1.377 . S
C551 C550 1.373 . S
C552 C536 1.377 . S
C552 C550 1.389 . S
C552 C553 1.524 . S
C553 C552 1.524 . S
C553 C554 1.397 . S
C553 C558 1.363 . S
C554 H525 0.950 . S
C554 C553 1.397 . S
C554 C555 1.334 . S
C555 H526 0.950 . S
C555 C554 1.334 . S
C555 C556 1.287 . S
C556 C555 1.287 . S
C556 C557 1.524 . S
C556 H559 0.999 . S
C557 H527 0.950 . S
C557 C556 1.524 . S
C557 C558 1.415 . S
C558 H528 0.950 . S
C558 C553 1.363 . S
C558 C557 1.415 . S
H559 C556 0.999 . S
H560 C541 0.913 . S
H561 C579 0.951 . S
H562 C581 0.951 . S
H563 C583 0.950 . S
H564 C584 0.950 . S
H565 C586 0.950 . S
H566 C589 0.950 . S
H567 C590 0.950 . S
H568 C592 0.950 . S
H569 C593 0.950 . S
H570 C594 0.951 . S
H571 C596 0.951 . S
H572 C598 0.950 . S
H573 C599 0.950 . S
H574 C601 0.950 . S
H575 C604 0.950 . S
H576 C605 0.950 . S
H577 C607 0.950 . S
H578 C608 0.950 . S
C579 H561 0.951 . S
C579 C580 1.366 . S
C579 C581 1.388 . S
C580 C579 1.366 . S
C580 C584 1.385 . S
C581 H562 0.951 . S
C581 C579 1.388 . S
C581 C582 1.366 . S
C582 C581 1.366 . S
C582 C583 1.414 . S
C582 C585 1.499 . S
C583 H563 0.950 . S
C583 C582 1.414 . S
C583 C584 1.374 . S
C584 H564 0.950 . S
C584 C580 1.385 . S
C584 C583 1.374 . S
C585 C582 1.499 . S
C585 C586 1.373 . S
C585 C587 1.389 . S
C586 H565 0.950 . S
C586 C585 1.373 . S
C586 C602 1.377 . S
C587 C585 1.389 . S
C587 C588 1.524 . S
C587 C601 1.377 . S
C588 C587 1.524 . S
C588 C589 1.397 . S
C588 C593 1.363 . S
C589 H566 0.950 . S
C589 C588 1.397 . S
C589 C590 1.334 . S
C590 H567 0.950 . S
C590 C589 1.334 . S
C590 C591 1.287 . S
C591 C590 1.287 . S
C591 C592 1.524 . S
C591 H610 0.913 . S
C592 H568 0.950 . S
C592 C591 1.524 . S
C592 C593 1.415 . S
C593 H569 0.950 . S
C593 C588 1.363 . S
C593 C592 1.415 . S
C594 H570 0.951 . S
C594 C595 1.366 . S
C594 C596 1.388 . S
C595 C594 1.366 . S
C595 C599 1.385 . S
C596 H571 0.951 . S
C596 C594 1.388 . S
C596 C597 1.366 . S
C597 C596 1.366 . S
C597 C598 1.414 . S
C597 C600 1.499 . S
C598 H572 0.950 . S
C598 C597 1.414 . S
C598 C599 1.374 . S
C599 H573 0.950 . S
C599 C595 1.385 . S
C599 C598 1.374 . S
C600 C597 1.499 . S
C600 C601 1.373 . S
C600 C602 1.389 . S
C601 H574 0.950 . S
C601 C587 1.377 . S
C601 C600 1.373 . S
C602 C586 1.377 . S
C602 C600 1.389 . S
C602 C603 1.524 . S
C603 C602 1.524 . S
C603 C604 1.397 . S
C603 C608 1.363 . S
C604 H575 0.950 . S
C604 C603 1.397 . S
C604 C605 1.334 . S
C605 H576 0.950 . S
C605 C604 1.334 . S
C605 C606 1.287 . S
C606 C605 1.287 . S
C606 C607 1.524 . S
C606 H609 0.999 . S
C607 H577 0.950 . S
C607 C606 1.524 . S
C607 C608 1.415 . S
C608 H578 0.950 . S
C608 C603 1.363 . S
C608 C607 1.415 . S
H609 C606 0.999 . S
H610 C591 0.913 . S
H611 C629 0.951 . S
H612 C631 0.951 . S
H613 C633 0.950 . S
H614 C634 0.950 . S
H615 C636 0.950 . S
H616 C639 0.950 . S
H617 C640 0.950 . S
H618 C642 0.950 . S
H619 C643 0.950 . S
H620 C644 0.951 . S
H621 C646 0.951 . S
H622 C648 0.950 . S
H623 C649 0.950 . S
H624 C651 0.950 . S
H625 C654 0.950 . S
H626 C655 0.950 . S
H627 C657 0.950 . S
H628 C658 0.950 . S
C629 H611 0.951 . S
C629 C630 1.366 . S
C629 C631 1.388 . S
C630 C629 1.366 . S
C630 C634 1.385 . S
C631 H612 0.951 . S
C631 C629 1.388 . S
C631 C632 1.366 . S
C632 C631 1.366 . S
C632 C633 1.414 . S
C632 C635 1.499 . S
C633 H613 0.950 . S
C633 C632 1.414 . S
C633 C634 1.374 . S
C634 H614 0.950 . S
C634 C630 1.385 . S
C634 C633 1.374 . S
C635 C632 1.499 . S
C635 C636 1.373 . S
C635 C637 1.389 . S
C636 H615 0.950 . S
C636 C635 1.373 . S
C636 C652 1.377 . S
C637 C635 1.389 . S
C637 C638 1.524 . S
C637 C651 1.377 . S
C638 C637 1.524 . S
C638 C639 1.397 . S
C638 C643 1.363 . S
C639 H616 0.950 . S
C639 C638 1.397 . S
C639 C640 1.334 . S
C640 H617 0.950 . S
C640 C639 1.334 . S
C640 C641 1.287 . S
C641 C640 1.287 . S
C641 C642 1.524 . S
C641 H660 0.913 . S
C642 H618 0.950 . S
C642 C641 1.524 . S
C642 C643 1.415 . S
C643 H619 0.950 . S
C643 C638 1.363 . S
C643 C642 1.415 . S
C644 H620 0.951 . S
C644 C645 1.366 . S
C644 C646 1.388 . S
C645 C644 1.366 . S
C645 C649 1.385 . S
C646 H621 0.951 . S
C646 C644 1.388 . S
C646 C647 1.366 . S
C647 C646 1.366 . S
C647 C648 1.414 . S
C647 C650 1.499 . S
C648 H622 0.950 . S
C648 C647 1.414 . S
C648 C649 1.374 . S
C649 H623 0.950 . S
C649 C645 1.385 . S
C649 C648 1.374 . S
C650 C647 1.499 . S
C650 C651 1.373 . S
C650 C652 1.389 . S
C651 H624 0.950 . S
C651 C637 1.377 . S
C651 C650 1.373 . S
C652 C636 1.377 . S
C652 C650 1.389 . S
C652 C653 1.524 . S
C653 C652 1.524 . S
C653 C654 1.397 . S
C653 C658 1.363 . S
C654 H625 0.950 . S
C654 C653 1.397 . S
C654 C655 1.334 . S
C655 H626 0.950 . S
C655 C654 1.334 . S
C655 C656 1.287 . S
C656 C655 1.287 . S
C656 C657 1.524 . S
C656 H659 0.999 . S
C657 H627 0.950 . S
C657 C656 1.524 . S
C657 C658 1.415 . S
C658 H628 0.950 . S
C658 C653 1.363 . S
C658 C657 1.415 . S
H659 C656 0.999 . S
H660 C641 0.913 . S
H661 C679 0.951 . S
H662 C681 0.951 . S
H663 C683 0.950 . S
H664 C684 0.950 . S
H665 C686 0.950 . S
H666 C689 0.950 . S
H667 C690 0.950 . S
H668 C692 0.950 . S
H669 C693 0.950 . S
H670 C694 0.951 . S
H671 C696 0.951 . S
H672 C698 0.950 . S
H673 C699 0.950 . S
H674 C701 0.950 . S
H675 C704 0.950 . S
H676 C705 0.950 . S
H677 C707 0.950 . S
H678 C708 0.950 . S
C679 H661 0.951 . S
C679 C680 1.366 . S
C679 C681 1.388 . S
C680 C679 1.366 . S
C680 C684 1.385 . S
C681 H662 0.951 . S
C681 C679 1.388 . S
C681 C682 1.366 . S
C682 C681 1.366 . S
C682 C683 1.414 . S
C682 C685 1.499 . S
C683 H663 0.950 . S
C683 C682 1.414 . S
C683 C684 1.374 . S
C684 H664 0.950 . S
C684 C680 1.385 . S
C684 C683 1.374 . S
C685 C682 1.499 . S
C685 C686 1.373 . S
C685 C687 1.389 . S
C686 H665 0.950 . S
C686 C685 1.373 . S
C686 C702 1.377 . S
C687 C685 1.389 . S
C687 C688 1.524 . S
C687 C701 1.377 . S
C688 C687 1.524 . S
C688 C689 1.397 . S
C688 C693 1.363 . S
C689 H666 0.950 . S
C689 C688 1.397 . S
C689 C690 1.334 . S
C690 H667 0.950 . S
C690 C689 1.334 . S
C690 C691 1.287 . S
C691 C690 1.287 . S
C691 C692 1.524 . S
C691 H710 0.913 . S
C692 H668 0.950 . S
C692 C691 1.524 . S
C692 C693 1.415 . S
C693 H669 0.950 . S
C693 C688 1.363 . S
C693 C692 1.415 . S
C694 H670 0.951 . S
C694 C695 1.366 . S
C694 C696 1.388 . S
C695 C694 1.366 . S
C695 C699 1.385 . S
C696 H671 0.951 . S
C696 C694 1.388 . S
C696 C697 1.366 . S
C697 C696 1.366 . S
C697 C698 1.414 . S
C697 C700 1.499 . S
C698 H672 0.950 . S
C698 C697 1.414 . S
C698 C699 1.374 . S
C699 H673 0.950 . S
C699 C695 1.385 . S
C699 C698 1.374 . S
C700 C697 1.499 . S
C700 C701 1.373 . S
C700 C702 1.389 . S
C701 H674 0.950 . S
C701 C687 1.377 . S
C701 C700 1.373 . S
C702 C686 1.377 . S
C702 C700 1.389 . S
C702 C703 1.524 . S
C703 C702 1.524 . S
C703 C704 1.397 . S
C703 C708 1.363 . S
C704 H675 0.950 . S
C704 C703 1.397 . S
C704 C705 1.334 . S
C705 H676 0.950 . S
C705 C704 1.334 . S
C705 C706 1.287 . S
C706 C705 1.287 . S
C706 C707 1.524 . S
C706 H709 0.999 . S
C707 H677 0.950 . S
C707 C706 1.524 . S
C707 C708 1.415 . S
C708 H678 0.950 . S
C708 C703 1.363 . S
C708 C707 1.415 . S
H709 C706 0.999 . S
H710 C691 0.913 . S
H711 C729 0.951 . S
H712 C731 0.951 . S
H713 C733 0.950 . S
H714 C734 0.950 . S
H715 C736 0.950 . S
H716 C739 0.950 . S
H717 C740 0.950 . S
H718 C742 0.950 . S
H719 C743 0.950 . S
H720 C744 0.951 . S
H721 C746 0.951 . S
H722 C748 0.950 . S
H723 C749 0.950 . S
H724 C751 0.950 . S
H725 C754 0.950 . S
H726 C755 0.950 . S
H727 C757 0.950 . S
H728 C758 0.950 . S
C729 H711 0.951 . S
C729 C730 1.366 . S
C729 C731 1.388 . S
C730 C729 1.366 . S
C730 C734 1.385 . S
C731 H712 0.951 . S
C731 C729 1.388 . S
C731 C732 1.366 . S
C732 C731 1.366 . S
C732 C733 1.414 . S
C732 C735 1.499 . S
C733 H713 0.950 . S
C733 C732 1.414 . S
C733 C734 1.374 . S
C734 H714 0.950 . S
C734 C730 1.385 . S
C734 C733 1.374 . S
C735 C732 1.499 . S
C735 C736 1.373 . S
C735 C737 1.389 . S
C736 H715 0.950 . S
C736 C735 1.373 . S
C736 C752 1.377 . S
C737 C735 1.389 . S
C737 C738 1.524 . S
C737 C751 1.377 . S
C738 C737 1.524 . S
C738 C739 1.397 . S
C738 C743 1.363 . S
C739 H716 0.950 . S
C739 C738 1.397 . S
C739 C740 1.334 . S
C740 H717 0.950 . S
C740 C739 1.334 . S
C740 C741 1.287 . S
C741 C740 1.287 . S
C741 C742 1.524 . S
C741 H760 0.913 . S
C742 H718 0.950 . S
C742 C741 1.524 . S
C742 C743 1.415 . S
C743 H719 0.950 . S
C743 C738 1.363 . S
C743 C742 1.415 . S
C744 H720 0.951 . S
C744 C745 1.366 . S
C744 C746 1.388 . S
C745 C744 1.366 . S
C745 C749 1.385 . S
C746 H721 0.951 . S
C746 C744 1.388 . S
C746 C747 1.366 . S
C747 C746 1.366 . S
C747 C748 1.414 . S
C747 C750 1.499 . S
C748 H722 0.950 . S
C748 C747 1.414 . S
C748 C749 1.374 . S
C749 H723 0.950 . S
C749 C745 1.385 . S
C749 C748 1.374 . S
C750 C747 1.499 . S
C750 C751 1.373 . S
C750 C752 1.389 . S
C751 H724 0.950 . S
C751 C737 1.377 . S
C751 C750 1.373 . S
C752 C736 1.377 . S
C752 C750 1.389 . S
C752 C753 1.524 . S
C753 C752 1.524 . S
C753 C754 1.397 . S
C753 C758 1.363 . S
C754 H725 0.950 . S
C754 C753 1.397 . S
C754 C755 1.334 . S
C755 H726 0.950 . S
C755 C754 1.334 . S
C755 C756 1.287 . S
C756 C755 1.287 . S
C756 C757 1.524 . S
C756 H759 0.999 . S
C757 H727 0.950 . S
C757 C756 1.524 . S
C757 C758 1.415 . S
C758 H728 0.950 . S
C758 C753 1.363 . S
C758 C757 1.415 . S
H759 C756 0.999 . S
H760 C741 0.913 . S
H761 C779 0.951 . S
H762 C781 0.951 . S
H763 C783 0.950 . S
H764 C784 0.950 . S
H765 C786 0.950 . S
H766 C789 0.950 . S
H767 C790 0.950 . S
H768 C792 0.950 . S
H769 C793 0.950 . S
H770 C794 0.951 . S
H771 C796 0.951 . S
H772 C798 0.950 . S
H773 C799 0.950 . S
H774 C801 0.950 . S
H775 C804 0.950 . S
H776 C805 0.950 . S
H777 C807 0.950 . S
H778 C808 0.950 . S
C779 H761 0.951 . S
C779 C780 1.366 . S
C779 C781 1.388 . S
C780 C779 1.366 . S
C780 C784 1.385 . S
C781 H762 0.951 . S
C781 C779 1.388 . S
C781 C782 1.366 . S
C782 C781 1.366 . S
C782 C783 1.414 . S
C782 C785 1.499 . S
C783 H763 0.950 . S
C783 C782 1.414 . S
C783 C784 1.374 . S
C784 H764 0.950 . S
C784 C780 1.385 . S
C784 C783 1.374 . S
C785 C782 1.499 . S
C785 C786 1.373 . S
C785 C787 1.389 . S
C786 H765 0.950 . S
C786 C785 1.373 . S
C786 C802 1.377 . S
C787 C785 1.389 . S
C787 C788 1.524 . S
C787 C801 1.377 . S
C788 C787 1.524 . S
C788 C789 1.397 . S
C788 C793 1.363 . S
C789 H766 0.950 . S
C789 C788 1.397 . S
C789 C790 1.334 . S
C790 H767 0.950 . S
C790 C789 1.334 . S
C790 C791 1.287 . S
C791 C790 1.287 . S
C791 C792 1.524 . S
C791 H810 0.913 . S
C792 H768 0.950 . S
C792 C791 1.524 . S
C792 C793 1.415 . S
C793 H769 0.950 . S
C793 C788 1.363 . S
C793 C792 1.415 . S
C794 H770 0.951 . S
C794 C795 1.366 . S
C794 C796 1.388 . S
C795 C794 1.366 . S
C795 C799 1.385 . S
C796 H771 0.951 . S
C796 C794 1.388 . S
C796 C797 1.366 . S
C797 C796 1.366 . S
C797 C798 1.414 . S
C797 C800 1.499 . S
C798 H772 0.950 . S
C798 C797 1.414 . S
C798 C799 1.374 . S
C799 H773 0.950 . S
C799 C795 1.385 . S
C799 C798 1.374 . S
C800 C797 1.499 . S
C800 C801 1.373 . S
C800 C802 1.389 . S
C801 H774 0.950 . S
C801 C787 1.377 . S
C801 C800 1.373 . S
C802 C786 1.377 . S
C802 C800 1.389 . S
C802 C803 1.524 . S
C803 C802 1.524 . S
C803 C804 1.397 . S
C803 C808 1.363 . S
C804 H775 0.950 . S
C804 C803 1.397 . S
C804 C805 1.334 . S
C805 H776 0.950 . S
C805 C804 1.334 . S
C805 C806 1.287 . S
C806 C805 1.287 . S
C806 C807 1.524 . S
C806 H809 0.999 . S
C807 H777 0.950 . S
C807 C806 1.524 . S
C807 C808 1.415 . S
C808 H778 0.950 . S
C808 C803 1.363 . S
C808 C807 1.415 . S
H809 C806 0.999 . S
H810 C791 0.913 . S
H811 C829 0.951 . S
H812 C831 0.951 . S
H813 C833 0.950 . S
H814 C834 0.950 . S
H815 C836 0.950 . S
H816 C839 0.950 . S
H817 C840 0.950 . S
H818 C842 0.950 . S
H819 C843 0.950 . S
H820 C844 0.951 . S
H821 C846 0.951 . S
H822 C848 0.950 . S
H823 C849 0.950 . S
H824 C851 0.950 . S
H825 C854 0.950 . S
H826 C855 0.950 . S
H827 C857 0.950 . S
H828 C858 0.950 . S
C829 H811 0.951 . S
C829 C830 1.366 . S
C829 C831 1.388 . S
C830 C829 1.366 . S
C830 C834 1.385 . S
C831 H812 0.951 . S
C831 C829 1.388 . S
C831 C832 1.366 . S
C832 C831 1.366 . S
C832 C833 1.414 . S
C832 C835 1.499 . S
C833 H813 0.950 . S
C833 C832 1.414 . S
C833 C834 1.374 . S
C834 H814 0.950 . S
C834 C830 1.385 . S
C834 C833 1.374 . S
C835 C832 1.499 . S
C835 C836 1.373 . S
C835 C837 1.389 . S
C836 H815 0.950 . S
C836 C835 1.373 . S
C836 C852 1.377 . S
C837 C835 1.389 . S
C837 C838 1.524 . S
C837 C851 1.377 . S
C838 C837 1.524 . S
C838 C839 1.397 . S
C838 C843 1.363 . S
C839 H816 0.950 . S
C839 C838 1.397 . S
C839 C840 1.334 . S
C840 H817 0.950 . S
C840 C839 1.334 . S
C840 C841 1.287 . S
C841 C840 1.287 . S
C841 C842 1.524 . S
C841 H860 0.913 . S
C842 H818 0.950 . S
C842 C841 1.524 . S
C842 C843 1.415 . S
C843 H819 0.950 . S
C843 C838 1.363 . S
C843 C842 1.415 . S
C844 H820 0.951 . S
C844 C845 1.366 . S
C844 C846 1.388 . S
C845 C844 1.366 . S
C845 C849 1.385 . S
C846 H821 0.951 . S
C846 C844 1.388 . S
C846 C847 1.366 . S
C847 C846 1.366 . S
C847 C848 1.414 . S
C847 C850 1.499 . S
C848 H822 0.950 . S
C848 C847 1.414 . S
C848 C849 1.374 . S
C849 H823 0.950 . S
C849 C845 1.385 . S
C849 C848 1.374 . S
C850 C847 1.499 . S
C850 C851 1.373 . S
C850 C852 1.389 . S
C851 H824 0.950 . S
C851 C837 1.377 . S
C851 C850 1.373 . S
C852 C836 1.377 . S
C852 C850 1.389 . S
C852 C853 1.524 . S
C853 C852 1.524 . S
C853 C854 1.397 . S
C853 C858 1.363 . S
C854 H825 0.950 . S
C854 C853 1.397 . S
C854 C855 1.334 . S
C855 H826 0.950 . S
C855 C854 1.334 . S
C855 C856 1.287 . S
C856 C855 1.287 . S
C856 C857 1.524 . S
C856 H859 0.999 . S
C857 H827 0.950 . S
C857 C856 1.524 . S
C857 C858 1.415 . S
C858 H828 0.950 . S
C858 C853 1.363 . S
C858 C857 1.415 . S
H859 C856 0.999 . S
H860 C841 0.913 . S
H861 C879 0.951 . S
H862 C881 0.951 . S
H863 C883 0.950 . S
H864 C884 0.950 . S
H865 C886 0.950 . S
H866 C889 0.950 . S
H867 C890 0.950 . S
H868 C892 0.950 . S
H869 C893 0.950 . S
H870 C894 0.951 . S
H871 C896 0.951 . S
H872 C898 0.950 . S
H873 C899 0.950 . S
H874 C901 0.950 . S
H875 C904 0.950 . S
H876 C905 0.950 . S
H877 C907 0.950 . S
H878 C908 0.950 . S
C879 H861 0.951 . S
C879 C880 1.366 . S
C879 C881 1.388 . S
C880 C879 1.366 . S
C880 C884 1.385 . S
C881 H862 0.951 . S
C881 C879 1.388 . S
C881 C882 1.366 . S
C882 C881 1.366 . S
C882 C883 1.414 . S
C882 C885 1.499 . S
C883 H863 0.950 . S
C883 C882 1.414 . S
C883 C884 1.374 . S
C884 H864 0.950 . S
C884 C880 1.385 . S
C884 C883 1.374 . S
C885 C882 1.499 . S
C885 C886 1.373 . S
C885 C887 1.389 . S
C886 H865 0.950 . S
C886 C885 1.373 . S
C886 C902 1.377 . S
C887 C885 1.389 . S
C887 C888 1.524 . S
C887 C901 1.377 . S
C888 C887 1.524 . S
C888 C889 1.397 . S
C888 C893 1.363 . S
C889 H866 0.950 . S
C889 C888 1.397 . S
C889 C890 1.334 . S
C890 H867 0.950 . S
C890 C889 1.334 . S
C890 C891 1.287 . S
C891 C890 1.287 . S
C891 C892 1.524 . S
C891 H910 0.913 . S
C892 H868 0.950 . S
C892 C891 1.524 . S
C892 C893 1.415 . S
C893 H869 0.950 . S
C893 C888 1.363 . S
C893 C892 1.415 . S
C894 H870 0.951 . S
C894 C895 1.366 . S
C894 C896 1.388 . S
C895 C894 1.366 . S
C895 C899 1.385 . S
C896 H871 0.951 . S
C896 C894 1.388 . S
C896 C897 1.366 . S
C897 C896 1.366 . S
C897 C898 1.414 . S
C897 C900 1.499 . S
C898 H872 0.950 . S
C898 C897 1.414 . S
C898 C899 1.374 . S
C899 H873 0.950 . S
C899 C895 1.385 . S
C899 C898 1.374 . S
C900 C897 1.499 . S
C900 C901 1.373 . S
C900 C902 1.389 . S
C901 H874 0.950 . S
C901 C887 1.377 . S
C901 C900 1.373 . S
C902 C886 1.377 . S
C902 C900 1.389 . S
C902 C903 1.524 . S
C903 C902 1.524 . S
C903 C904 1.397 . S
C903 C908 1.363 . S
C904 H875 0.950 . S
C904 C903 1.397 . S
C904 C905 1.334 . S
C905 H876 0.950 . S
C905 C904 1.334 . S
C905 C906 1.287 . S
C906 C905 1.287 . S
C906 C907 1.524 . S
C906 H909 0.999 . S
C907 H877 0.950 . S
C907 C906 1.524 . S
C907 C908 1.415 . S
C908 H878 0.950 . S
C908 C903 1.363 . S
C908 C907 1.415 . S
H909 C906 0.999 . S
H910 C891 0.913 . S
H911 C929 0.951 . S
H912 C931 0.951 . S
H913 C933 0.950 . S
H914 C934 0.950 . S
H915 C936 0.950 . S
H916 C939 0.950 . S
H917 C940 0.950 . S
H918 C942 0.950 . S
H919 C943 0.950 . S
H920 C944 0.951 . S
H921 C946 0.951 . S
H922 C948 0.950 . S
H923 C949 0.950 . S
H924 C951 0.950 . S
H925 C954 0.950 . S
H926 C955 0.950 . S
H927 C957 0.950 . S
H928 C958 0.950 . S
C929 H911 0.951 . S
C929 C930 1.366 . S
C929 C931 1.388 . S
C930 C929 1.366 . S
C930 C934 1.385 . S
C931 H912 0.951 . S
C931 C929 1.388 . S
C931 C932 1.366 . S
C932 C931 1.366 . S
C932 C933 1.414 . S
C932 C935 1.499 . S
C933 H913 0.950 . S
C933 C932 1.414 . S
C933 C934 1.374 . S
C934 H914 0.950 . S
C934 C930 1.385 . S
C934 C933 1.374 . S
C935 C932 1.499 . S
C935 C936 1.373 . S
C935 C937 1.389 . S
C936 H915 0.950 . S
C936 C935 1.373 . S
C936 C952 1.377 . S
C937 C935 1.389 . S
C937 C938 1.524 . S
C937 C951 1.377 . S
C938 C937 1.524 . S
C938 C939 1.397 . S
C938 C943 1.363 . S
C939 H916 0.950 . S
C939 C938 1.397 . S
C939 C940 1.334 . S
C940 H917 0.950 . S
C940 C939 1.334 . S
C940 C941 1.287 . S
C941 C940 1.287 . S
C941 C942 1.524 . S
C941 H960 0.913 . S
C942 H918 0.950 . S
C942 C941 1.524 . S
C942 C943 1.415 . S
C943 H919 0.950 . S
C943 C938 1.363 . S
C943 C942 1.415 . S
C944 H920 0.951 . S
C944 C945 1.366 . S
C944 C946 1.388 . S
C945 C944 1.366 . S
C945 C949 1.385 . S
C946 H921 0.951 . S
C946 C944 1.388 . S
C946 C947 1.366 . S
C947 C946 1.366 . S
C947 C948 1.414 . S
C947 C950 1.499 . S
C948 H922 0.950 . S
C948 C947 1.414 . S
C948 C949 1.374 . S
C949 H923 0.950 . S
C949 C945 1.385 . S
C949 C948 1.374 . S
C950 C947 1.499 . S
C950 C951 1.373 . S
C950 C952 1.389 . S
C951 H924 0.950 . S
C951 C937 1.377 . S
C951 C950 1.373 . S
C952 C936 1.377 . S
C952 C950 1.389 . S
C952 C953 1.524 . S
C953 C952 1.524 . S
C953 C954 1.397 . S
C953 C958 1.363 . S
C954 H925 0.950 . S
C954 C953 1.397 . S
C954 C955 1.334 . S
C955 H926 0.950 . S
C955 C954 1.334 . S
C955 C956 1.287 . S
C956 C955 1.287 . S
C956 C957 1.524 . S
C956 H959 0.999 . S
C957 H927 0.950 . S
C957 C956 1.524 . S
C957 C958 1.415 . S
C958 H928 0.950 . S
C958 C953 1.363 . S
C958 C957 1.415 . S
H959 C956 0.999 . S
H960 C941 0.913 . S
H961 C979 0.951 . S
H962 C981 0.951 . S
H963 C983 0.950 . S
H964 C984 0.950 . S
H965 C986 0.950 . S
H966 C989 0.950 . S
H967 C990 0.950 . S
H968 C992 0.950 . S
H969 C993 0.950 . S
H970 C994 0.951 . S
H971 C996 0.951 . S
H972 C998 0.950 . S
H973 C999 0.950 . S
H974 C1001 0.950 . S
H975 C1004 0.950 . S
H976 C1005 0.950 . S
H977 C1007 0.950 . S
H978 C1008 0.950 . S
C979 H961 0.951 . S
C979 C980 1.366 . S
C979 C981 1.388 . S
C980 C979 1.366 . S
C980 C984 1.385 . S
C981 H962 0.951 . S
C981 C979 1.388 . S
C981 C982 1.366 . S
C982 C981 1.366 . S
C982 C983 1.414 . S
C982 C985 1.499 . S
C983 H963 0.950 . S
C983 C982 1.414 . S
C983 C984 1.374 . S
C984 H964 0.950 . S
C984 C980 1.385 . S
C984 C983 1.374 . S
C985 C982 1.499 . S
C985 C986 1.373 . S
C985 C987 1.389 . S
C986 H965 0.950 . S
C986 C985 1.373 . S
C986 C1002 1.377 . S
C987 C985 1.389 . S
C987 C988 1.524 . S
C987 C1001 1.377 . S
C988 C987 1.524 . S
C988 C989 1.397 . S
C988 C993 1.363 . S
C989 H966 0.950 . S
C989 C988 1.397 . S
C989 C990 1.334 . S
C990 H967 0.950 . S
C990 C989 1.334 . S
C990 C991 1.287 . S
C991 C990 1.287 . S
C991 C992 1.524 . S
C991 H1010 0.913 . S
C992 H968 0.950 . S
C992 C991 1.524 . S
C992 C993 1.415 . S
C993 H969 0.950 . S
C993 C988 1.363 . S
C993 C992 1.415 . S
C994 H970 0.951 . S
C994 C995 1.366 . S
C994 C996 1.388 . S
C995 C994 1.366 . S
C995 C999 1.385 . S
C996 H971 0.951 . S
C996 C994 1.388 . S
C996 C997 1.366 . S
C997 C996 1.366 . S
C997 C998 1.414 . S
C997 C1000 1.499 . S
C998 H972 0.950 . S
C998 C997 1.414 . S
C998 C999 1.374 . S
C999 H973 0.950 . S
C999 C995 1.385 . S
C999 C998 1.374 . S
C1000 C997 1.499 . S
C1000 C1001 1.373 . S
C1000 C1002 1.389 . S
C1001 H974 0.950 . S
C1001 C987 1.377 . S
C1001 C1000 1.373 . S
C1002 C986 1.377 . S
C1002 C1000 1.389 . S
C1002 C1003 1.524 . S
C1003 C1002 1.524 . S
C1003 C1004 1.397 . S
C1003 C1008 1.363 . S
C1004 H975 0.950 . S
C1004 C1003 1.397 . S
C1004 C1005 1.334 . S
C1005 H976 0.950 . S
C1005 C1004 1.334 . S
C1005 C1006 1.287 . S
C1006 C1005 1.287 . S
C1006 C1007 1.524 . S
C1006 H1009 0.999 . S
C1007 H977 0.950 . S
C1007 C1006 1.524 . S
C1007 C1008 1.415 . S
C1008 H978 0.950 . S
C1008 C1003 1.363 . S
C1008 C1007 1.415 . S
H1009 C1006 0.999 . S
H1010 C991 0.913 . S
H1011 C1029 0.951 . S
H1012 C1031 0.951 . S
H1013 C1033 0.950 . S
H1014 C1034 0.950 . S
H1015 C1036 0.950 . S
H1016 C1039 0.950 . S
H1017 C1040 0.950 . S
H1018 C1042 0.950 . S
H1019 C1043 0.950 . S
H1020 C1044 0.951 . S
H1021 C1046 0.951 . S
H1022 C1048 0.950 . S
H1023 C1049 0.950 . S
H1024 C1051 0.950 . S
H1025 C1054 0.950 . S
H1026 C1055 0.950 . S
H1027 C1057 0.950 . S
H1028 C1058 0.950 . S
C1029 H1011 0.951 . S
C1029 C1030 1.366 . S
C1029 C1031 1.388 . S
C1030 C1029 1.366 . S
C1030 C1034 1.385 . S
C1031 H1012 0.951 . S
C1031 C1029 1.388 . S
C1031 C1032 1.366 . S
C1032 C1031 1.366 . S
C1032 C1033 1.414 . S
C1032 C1035 1.499 . S
C1033 H1013 0.950 . S
C1033 C1032 1.414 . S
C1033 C1034 1.374 . S
C1034 H1014 0.950 . S
C1034 C1030 1.385 . S
C1034 C1033 1.374 . S
C1035 C1032 1.499 . S
C1035 C1036 1.373 . S
C1035 C1037 1.389 . S
C1036 H1015 0.950 . S
C1036 C1035 1.373 . S
C1036 C1052 1.377 . S
C1037 C1035 1.389 . S
C1037 C1038 1.524 . S
C1037 C1051 1.377 . S
C1038 C1037 1.524 . S
C1038 C1039 1.397 . S
C1038 C1043 1.363 . S
C1039 H1016 0.950 . S
C1039 C1038 1.397 . S
C1039 C1040 1.334 . S
C1040 H1017 0.950 . S
C1040 C1039 1.334 . S
C1040 C1041 1.287 . S
C1041 C1040 1.287 . S
C1041 C1042 1.524 . S
C1041 H1060 0.913 . S
C1042 H1018 0.950 . S
C1042 C1041 1.524 . S
C1042 C1043 1.415 . S
C1043 H1019 0.950 . S
C1043 C1038 1.363 . S
C1043 C1042 1.415 . S
C1044 H1020 0.951 . S
C1044 C1045 1.366 . S
C1044 C1046 1.388 . S
C1045 C1044 1.366 . S
C1045 C1049 1.385 . S
C1046 H1021 0.951 . S
C1046 C1044 1.388 . S
C1046 C1047 1.366 . S
C1047 C1046 1.366 . S
C1047 C1048 1.414 . S
C1047 C1050 1.499 . S
C1048 H1022 0.950 . S
C1048 C1047 1.414 . S
C1048 C1049 1.374 . S
C1049 H1023 0.950 . S
C1049 C1045 1.385 . S
C1049 C1048 1.374 . S
C1050 C1047 1.499 . S
C1050 C1051 1.373 . S
C1050 C1052 1.389 . S
C1051 H1024 0.950 . S
C1051 C1037 1.377 . S
C1051 C1050 1.373 . S
C1052 C1036 1.377 . S
C1052 C1050 1.389 . S
C1052 C1053 1.524 . S
C1053 C1052 1.524 . S
C1053 C1054 1.397 . S
C1053 C1058 1.363 . S
C1054 H1025 0.950 . S
C1054 C1053 1.397 . S
C1054 C1055 1.334 . S
C1055 H1026 0.950 . S
C1055 C1054 1.334 . S
C1055 C1056 1.287 . S
C1056 C1055 1.287 . S
C1056 C1057 1.524 . S
C1056 H1059 0.999 . S
C1057 H1027 0.950 . S
C1057 C1056 1.524 . S
C1057 C1058 1.415 . S
C1058 H1028 0.950 . S
C1058 C1053 1.363 . S
C1058 C1057 1.415 . S
H1059 C1056 0.999 . S
H1060 C1041 0.913 . S
H1061 C1079 0.951 . S
H1062 C1081 0.951 . S
H1063 C1083 0.950 . S
H1064 C1084 0.950 . S
H1065 C1086 0.950 . S
H1066 C1089 0.950 . S
H1067 C1090 0.950 . S
H1068 C1092 0.950 . S
H1069 C1093 0.950 . S
H1070 C1094 0.951 . S
H1071 C1096 0.951 . S
H1072 C1098 0.950 . S
H1073 C1099 0.950 . S
H1074 C1101 0.950 . S
H1075 C1104 0.950 . S
H1076 C1105 0.950 . S
H1077 C1107 0.950 . S
H1078 C1108 0.950 . S
C1079 H1061 0.951 . S
C1079 C1080 1.366 . S
C1079 C1081 1.388 . S
C1080 C1079 1.366 . S
C1080 C1084 1.385 . S
C1081 H1062 0.951 . S
C1081 C1079 1.388 . S
C1081 C1082 1.366 . S
C1082 C1081 1.366 . S
C1082 C1083 1.414 . S
C1082 C1085 1.499 . S
C1083 H1063 0.950 . S
C1083 C1082 1.414 . S
C1083 C1084 1.374 . S
C1084 H1064 0.950 . S
C1084 C1080 1.385 . S
C1084 C1083 1.374 . S
C1085 C1082 1.499 . S
C1085 C1086 1.373 . S
C1085 C1087 1.389 . S
C1086 H1065 0.950 . S
C1086 C1085 1.373 . S
C1086 C1102 1.377 . S
C1087 C1085 1.389 . S
C1087 C1088 1.524 . S
C1087 C1101 1.377 . S
C1088 C1087 1.524 . S
C1088 C1089 1.397 . S
C1088 C1093 1.363 . S
C1089 H1066 0.950 . S
C1089 C1088 1.397 . S
C1089 C1090 1.334 . S
C1090 H1067 0.950 . S
C1090 C1089 1.334 . S
C1090 C1091 1.287 . S
C1091 C1090 1.287 . S
C1091 C1092 1.524 . S
C1091 H1110 0.913 . S
C1092 H1068 0.950 . S
C1092 C1091 1.524 . S
C1092 C1093 1.415 . S
C1093 H1069 0.950 . S
C1093 C1088 1.363 . S
C1093 C1092 1.415 . S
C1094 H1070 0.951 . S
C1094 C1095 1.366 . S
C1094 C1096 1.388 . S
C1095 C1094 1.366 . S
C1095 C1099 1.385 . S
C1096 H1071 0.951 . S
C1096 C1094 1.388 . S
C1096 C1097 1.366 . S
C1097 C1096 1.366 . S
C1097 C1098 1.414 . S
C1097 C1100 1.499 . S
C1098 H1072 0.950 . S
C1098 C1097 1.414 . S
C1098 C1099 1.374 . S
C1099 H1073 0.950 . S
C1099 C1095 1.385 . S
C1099 C1098 1.374 . S
C1100 C1097 1.499 . S
C1100 C1101 1.373 . S
C1100 C1102 1.389 . S
C1101 H1074 0.950 . S
C1101 C1087 1.377 . S
C1101 C1100 1.373 . S
C1102 C1086 1.377 . S
C1102 C1100 1.389 . S
C1102 C1103 1.524 . S
C1103 C1102 1.524 . S
C1103 C1104 1.397 . S
C1103 C1108 1.363 . S
C1104 H1075 0.950 . S
C1104 C1103 1.397 . S
C1104 C1105 1.334 . S
C1105 H1076 0.950 . S
C1105 C1104 1.334 . S
C1105 C1106 1.287 . S
C1106 C1105 1.287 . S
C1106 C1107 1.524 . S
C1106 H1109 0.999 . S
C1107 H1077 0.950 . S
C1107 C1106 1.524 . S
C1107 C1108 1.415 . S
C1108 H1078 0.950 . S
C1108 C1103 1.363 . S
C1108 C1107 1.415 . S
H1109 C1106 0.999 . S
H1110 C1091 0.913 . S
H1111 C1129 0.951 . S
H1112 C1131 0.951 . S
H1113 C1133 0.950 . S
H1114 C1134 0.950 . S
H1115 C1136 0.950 . S
H1116 C1139 0.950 . S
H1117 C1140 0.950 . S
H1118 C1142 0.950 . S
H1119 C1143 0.950 . S
H1120 C1144 0.951 . S
H1121 C1146 0.951 . S
H1122 C1148 0.950 . S
H1123 C1149 0.950 . S
H1124 C1151 0.950 . S
H1125 C1154 0.950 . S
H1126 C1155 0.950 . S
H1127 C1157 0.950 . S
H1128 C1158 0.950 . S
C1129 H1111 0.951 . S
C1129 C1130 1.366 . S
C1129 C1131 1.388 . S
C1130 C1129 1.366 . S
C1130 C1134 1.385 . S
C1131 H1112 0.951 . S
C1131 C1129 1.388 . S
C1131 C1132 1.366 . S
C1132 C1131 1.366 . S
C1132 C1133 1.414 . S
C1132 C1135 1.499 . S
C1133 H1113 0.950 . S
C1133 C1132 1.414 . S
C1133 C1134 1.374 . S
C1134 H1114 0.950 . S
C1134 C1130 1.385 . S
C1134 C1133 1.374 . S
C1135 C1132 1.499 . S
C1135 C1136 1.373 . S
C1135 C1137 1.389 . S
C1136 H1115 0.950 . S
C1136 C1135 1.373 . S
C1136 C1152 1.377 . S
C1137 C1135 1.389 . S
C1137 C1138 1.524 . S
C1137 C1151 1.377 . S
C1138 C1137 1.524 . S
C1138 C1139 1.397 . S
C1138 C1143 1.363 . S
C1139 H1116 0.950 . S
C1139 C1138 1.397 . S
C1139 C1140 1.334 . S
C1140 H1117 0.950 . S
C1140 C1139 1.334 . S
C1140 C1141 1.287 . S
C1141 C1140 1.287 . S
C1141 C1142 1.524 . S
C1141 H1160 0.913 . S
C1142 H1118 0.950 . S
C1142 C1141 1.524 . S
C1142 C1143 1.415 . S
C1143 H1119 0.950 . S
C1143 C1138 1.363 . S
C1143 C1142 1.415 . S
C1144 H1120 0.951 . S
C1144 C1145 1.366 . S
C1144 C1146 1.388 . S
C1145 C1144 1.366 . S
C1145 C1149 1.385 . S
C1146 H1121 0.951 . S
C1146 C1144 1.388 . S
C1146 C1147 1.366 . S
C1147 C1146 1.366 . S
C1147 C1148 1.414 . S
C1147 C1150 1.499 . S
C1148 H1122 0.950 . S
C1148 C1147 1.414 . S
C1148 C1149 1.374 . S
C1149 H1123 0.950 . S
C1149 C1145 1.385 . S
C1149 C1148 1.374 . S
C1150 C1147 1.499 . S
C1150 C1151 1.373 . S
C1150 C1152 1.389 . S
C1151 H1124 0.950 . S
C1151 C1137 1.377 . S
C1151 C1150 1.373 . S
C1152 C1136 1.377 . S
C1152 C1150 1.389 . S
C1152 C1153 1.524 . S
C1153 C1152 1.524 . S
C1153 C1154 1.397 . S
C1153 C1158 1.363 . S
C1154 H1125 0.950 . S
C1154 C1153 1.397 . S
C1154 C1155 1.334 . S
C1155 H1126 0.950 . S
C1155 C1154 1.334 . S
C1155 C1156 1.287 . S
C1156 C1155 1.287 . S
C1156 C1157 1.524 . S
C1156 H1159 0.999 . S
C1157 H1127 0.950 . S
C1157 C1156 1.524 . S
C1157 C1158 1.415 . S
C1158 H1128 0.950 . S
C1158 C1153 1.363 . S
C1158 C1157 1.415 . S
H1159 C1156 0.999 . S
H1160 C1141 0.913 . S
H1161 C1179 0.951 . S
H1162 C1181 0.951 . S
H1163 C1183 0.950 . S
H1164 C1184 0.950 . S
H1165 C1186 0.950 . S
H1166 C1189 0.950 . S
H1167 C1190 0.950 . S
H1168 C1192 0.950 . S
H1169 C1193 0.950 . S
H1170 C1194 0.951 . S
H1171 C1196 0.951 . S
H1172 C1198 0.950 . S
H1173 C1199 0.950 . S
H1174 C1201 0.950 . S
H1175 C1204 0.950 . S
H1176 C1205 0.950 . S
H1177 C1207 0.950 . S
H1178 C1208 0.950 . S
C1179 H1161 0.951 . S
C1179 C1180 1.366 . S
C1179 C1181 1.388 . S
C1180 C1179 1.366 . S
C1180 C1184 1.385 . S
C1181 H1162 0.951 . S
C1181 C1179 1.388 . S
C1181 C1182 1.366 . S
C1182 C1181 1.366 . S
C1182 C1183 1.414 . S
C1182 C1185 1.499 . S
C1183 H1163 0.950 . S
C1183 C1182 1.414 . S
C1183 C1184 1.374 . S
C1184 H1164 0.950 . S
C1184 C1180 1.385 . S
C1184 C1183 1.374 . S
C1185 C1182 1.499 . S
C1185 C1186 1.373 . S
C1185 C1187 1.389 . S
C1186 H1165 0.950 . S
C1186 C1185 1.373 . S
C1186 C1202 1.377 . S
C1187 C1185 1.389 . S
C1187 C1188 1.524 . S
C1187 C1201 1.377 . S
C1188 C1187 1.524 . S
C1188 C1189 1.397 . S
C1188 C1193 1.363 . S
C1189 H1166 0.950 . S
C1189 C1188 1.397 . S
C1189 C1190 1.334 . S
C1190 H1167 0.950 . S
C1190 C1189 1.334 . S
C1190 C1191 1.287 . S
C1191 C1190 1.287 . S
C1191 C1192 1.524 . S
C1191 H1210 0.913 . S
C1192 H1168 0.950 . S
C1192 C1191 1.524 . S
C1192 C1193 1.415 . S
C1193 H1169 0.950 . S
C1193 C1188 1.363 . S
C1193 C1192 1.415 . S
C1194 H1170 0.951 . S
C1194 C1195 1.366 . S
C1194 C1196 1.388 . S
C1195 C1194 1.366 . S
C1195 C1199 1.385 . S
C1196 H1171 0.951 . S
C1196 C1194 1.388 . S
C1196 C1197 1.366 . S
C1197 C1196 1.366 . S
C1197 C1198 1.414 . S
C1197 C1200 1.499 . S
C1198 H1172 0.950 . S
C1198 C1197 1.414 . S
C1198 C1199 1.374 . S
C1199 H1173 0.950 . S
C1199 C1195 1.385 . S
C1199 C1198 1.374 . S
C1200 C1197 1.499 . S
C1200 C1201 1.373 . S
C1200 C1202 1.389 . S
C1201 H1174 0.950 . S
C1201 C1187 1.377 . S
C1201 C1200 1.373 . S
C1202 C1186 1.377 . S
C1202 C1200 1.389 . S
C1202 C1203 1.524 . S
C1203 C1202 1.524 . S
C1203 C1204 1.397 . S
C1203 C1208 1.363 . S
C1204 H1175 0.950 . S
C1204 C1203 1.397 . S
C1204 C1205 1.334 . S
C1205 H1176 0.950 . S
C1205 C1204 1.334 . S
C1205 C1206 1.287 . S
C1206 C1205 1.287 . S
C1206 C1207 1.524 . S
C1206 H1209 0.999 . S
C1207 H1177 0.950 . S
C1207 C1206 1.524 . S
C1207 C1208 1.415 . S
C1208 H1178 0.950 . S
C1208 C1203 1.363 . S
C1208 C1207 1.415 . S
H1209 C1206 0.999 . S
H1210 C1191 0.913 . S
H1211 C1229 0.951 . S
H1212 C1231 0.951 . S
H1213 C1233 0.950 . S
H1214 C1234 0.950 . S
H1215 C1236 0.950 . S
H1216 C1239 0.950 . S
H1217 C1240 0.950 . S
H1218 C1242 0.950 . S
H1219 C1243 0.950 . S
H1220 C1244 0.951 . S
H1221 C1246 0.951 . S
H1222 C1248 0.950 . S
H1223 C1249 0.950 . S
H1224 C1251 0.950 . S
H1225 C1254 0.950 . S
H1226 C1255 0.950 . S
H1227 C1257 0.950 . S
H1228 C1258 0.950 . S
C1229 H1211 0.951 . S
C1229 C1230 1.366 . S
C1229 C1231 1.388 . S
C1230 C1229 1.366 . S
C1230 C1234 1.385 . S
C1231 H1212 0.951 . S
C1231 C1229 1.388 . S
C1231 C1232 1.366 . S
C1232 C1231 1.366 . S
C1232 C1233 1.414 . S
C1232 C1235 1.499 . S
C1233 H1213 0.950 . S
C1233 C1232 1.414 . S
C1233 C1234 1.374 . S
C1234 H1214 0.950 . S
C1234 C1230 1.385 . S
C1234 C1233 1.374 . S
C1235 C1232 1.499 . S
C1235 C1236 1.373 . S
C1235 C1237 1.389 . S
C1236 H1215 0.950 . S
C1236 C1235 1.373 . S
C1236 C1252 1.377 . S
C1237 C1235 1.389 . S
C1237 C1238 1.524 . S
C1237 C1251 1.377 . S
C1238 C1237 1.524 . S
C1238 C1239 1.397 . S
C1238 C1243 1.363 . S
C1239 H1216 0.950 . S
C1239 C1238 1.397 . S
C1239 C1240 1.334 . S
C1240 H1217 0.950 . S
C1240 C1239 1.334 . S
C1240 C1241 1.287 . S
C1241 C1240 1.287 . S
C1241 C1242 1.524 . S
C1241 H1260 0.913 . S
C1242 H1218 0.950 . S
C1242 C1241 1.524 . S
C1242 C1243 1.415 . S
C1243 H1219 0.950 . S
C1243 C1238 1.363 . S
C1243 C1242 1.415 . S
C1244 H1220 0.951 . S
C1244 C1245 1.366 . S
C1244 C1246 1.388 . S
C1245 C1244 1.366 . S
C1245 C1249 1.385 . S
C1246 H1221 0.951 . S
C1246 C1244 1.388 . S
C1246 C1247 1.366 . S
C1247 C1246 1.366 . S
C1247 C1248 1.414 . S
C1247 C1250 1.499 . S
C1248 H1222 0.950 . S
C1248 C1247 1.414 . S
C1248 C1249 1.374 . S
C1249 H1223 0.950 . S
C1249 C1245 1.385 . S
C1249 C1248 1.374 . S
C1250 C1247 1.499 . S
C1250 C1251 1.373 . S
C1250 C1252 1.389 . S
C1251 H1224 0.950 . S
C1251 C1237 1.377 . S
C1251 C1250 1.373 . S
C1252 C1236 1.377 . S
C1252 C1250 1.389 . S
C1252 C1253 1.524 . S
C1253 C1252 1.524 . S
C1253 C1254 1.397 . S
C1253 C1258 1.363 . S
C1254 H1225 0.950 . S
C1254 C1253 1.397 . S
C1254 C1255 1.334 . S
C1255 H1226 0.950 . S
C1255 C1254 1.334 . S
C1255 C1256 1.287 . S
C1256 C1255 1.287 . S
C1256 C1257 1.524 . S
C1256 H1259 0.999 . S
C1257 H1227 0.950 . S
C1257 C1256 1.524 . S
C1257 C1258 1.415 . S
C1258 H1228 0.950 . S
C1258 C1253 1.363 . S
C1258 C1257 1.415 . S
H1259 C1256 0.999 . S
H1260 C1241 0.913 . S
H1261 C1279 0.951 . S
H1262 C1281 0.951 . S
H1263 C1283 0.950 . S
H1264 C1284 0.950 . S
H1265 C1286 0.950 . S
H1266 C1289 0.950 . S
H1267 C1290 0.950 . S
H1268 C1292 0.950 . S
H1269 C1293 0.950 . S
H1270 C1294 0.951 . S
H1271 C1296 0.951 . S
H1272 C1298 0.950 . S
H1273 C1299 0.950 . S
H1274 C1301 0.950 . S
H1275 C1304 0.950 . S
H1276 C1305 0.950 . S
H1277 C1307 0.950 . S
H1278 C1308 0.950 . S
C1279 H1261 0.951 . S
C1279 C1280 1.366 . S
C1279 C1281 1.388 . S
C1280 C1279 1.366 . S
C1280 C1284 1.385 . S
C1281 H1262 0.951 . S
C1281 C1279 1.388 . S
C1281 C1282 1.366 . S
C1282 C1281 1.366 . S
C1282 C1283 1.414 . S
C1282 C1285 1.499 . S
C1283 H1263 0.950 . S
C1283 C1282 1.414 . S
C1283 C1284 1.374 . S
C1284 H1264 0.950 . S
C1284 C1280 1.385 . S
C1284 C1283 1.374 . S
C1285 C1282 1.499 . S
C1285 C1286 1.373 . S
C1285 C1287 1.389 . S
C1286 H1265 0.950 . S
C1286 C1285 1.373 . S
C1286 C1302 1.377 . S
C1287 C1285 1.389 . S
C1287 C1288 1.524 . S
C1287 C1301 1.377 . S
C1288 C1287 1.524 . S
C1288 C1289 1.397 . S
C1288 C1293 1.363 . S
C1289 H1266 0.950 . S
C1289 C1288 1.397 . S
C1289 C1290 1.334 . S
C1290 H1267 0.950 . S
C1290 C1289 1.334 . S
C1290 C1291 1.287 . S
C1291 C1290 1.287 . S
C1291 C1292 1.524 . S
C1291 H1310 0.913 . S
C1292 H1268 0.950 . S
C1292 C1291 1.524 . S
C1292 C1293 1.415 . S
C1293 H1269 0.950 . S
C1293 C1288 1.363 . S
C1293 C1292 1.415 . S
C1294 H1270 0.951 . S
C1294 C1295 1.366 . S
C1294 C1296 1.388 . S
C1295 C1294 1.366 . S
C1295 C1299 1.385 . S
C1296 H1271 0.951 . S
C1296 C1294 1.388 . S
C1296 C1297 1.366 . S
C1297 C1296 1.366 . S
C1297 C1298 1.414 . S
C1297 C1300 1.499 . S
C1298 H1272 0.950 . S
C1298 C1297 1.414 . S
C1298 C1299 1.374 . S
C1299 H1273 0.950 . S
C1299 C1295 1.385 . S
C1299 C1298 1.374 . S
C1300 C1297 1.499 . S
C1300 C1301 1.373 . S
C1300 C1302 1.389 . S
C1301 H1274 0.950 . S
C1301 C1287 1.377 . S
C1301 C1300 1.373 . S
C1302 C1286 1.377 . S
C1302 C1300 1.389 . S
C1302 C1303 1.524 . S
C1303 C1302 1.524 . S
C1303 C1304 1.397 . S
C1303 C1308 1.363 . S
C1304 H1275 0.950 . S
C1304 C1303 1.397 . S
C1304 C1305 1.334 . S
C1305 H1276 0.950 . S
C1305 C1304 1.334 . S
C1305 C1306 1.287 . S
C1306 C1305 1.287 . S
C1306 C1307 1.524 . S
C1306 H1309 0.999 . S
C1307 H1277 0.950 . S
C1307 C1306 1.524 . S
C1307 C1308 1.415 . S
C1308 H1278 0.950 . S
C1308 C1303 1.363 . S
C1308 C1307 1.415 . S
H1309 C1306 0.999 . S
H1310 C1291 0.913 . S
H1311 C1329 0.951 . S
H1312 C1331 0.951 . S
H1313 C1333 0.950 . S
H1314 C1334 0.950 . S
H1315 C1336 0.950 . S
H1316 C1339 0.950 . S
H1317 C1340 0.950 . S
H1318 C1342 0.950 . S
H1319 C1343 0.950 . S
H1320 C1344 0.951 . S
H1321 C1346 0.951 . S
H1322 C1348 0.950 . S
H1323 C1349 0.950 . S
H1324 C1351 0.950 . S
H1325 C1354 0.950 . S
H1326 C1355 0.950 . S
H1327 C1357 0.950 . S
H1328 C1358 0.950 . S
C1329 H1311 0.951 . S
C1329 C1330 1.366 . S
C1329 C1331 1.388 . S
C1330 C1329 1.366 . S
C1330 C1334 1.385 . S
C1331 H1312 0.951 . S
C1331 C1329 1.388 . S
C1331 C1332 1.366 . S
C1332 C1331 1.366 . S
C1332 C1333 1.414 . S
C1332 C1335 1.499 . S
C1333 H1313 0.950 . S
C1333 C1332 1.414 . S
C1333 C1334 1.374 . S
C1334 H1314 0.950 . S
C1334 C1330 1.385 . S
C1334 C1333 1.374 . S
C1335 C1332 1.499 . S
C1335 C1336 1.373 . S
C1335 C1337 1.389 . S
C1336 H1315 0.950 . S
C1336 C1335 1.373 . S
C1336 C1352 1.377 . S
C1337 C1335 1.389 . S
C1337 C1338 1.524 . S
C1337 C1351 1.377 . S
C1338 C1337 1.524 . S
C1338 C1339 1.397 . S
C1338 C1343 1.363 . S
C1339 H1316 0.950 . S
C1339 C1338 1.397 . S
C1339 C1340 1.334 . S
C1340 H1317 0.950 . S
C1340 C1339 1.334 . S
C1340 C1341 1.287 . S
C1341 C1340 1.287 . S
C1341 C1342 1.524 . S
C1341 H1360 0.913 . S
C1342 H1318 0.950 . S
C1342 C1341 1.524 . S
C1342 C1343 1.415 . S
C1343 H1319 0.950 . S
C1343 C1338 1.363 . S
C1343 C1342 1.415 . S
C1344 H1320 0.951 . S
C1344 C1345 1.366 . S
C1344 C1346 1.388 . S
C1345 C1344 1.366 . S
C1345 C1349 1.385 . S
C1346 H1321 0.951 . S
C1346 C1344 1.388 . S
C1346 C1347 1.366 . S
C1347 C1346 1.366 . S
C1347 C1348 1.414 . S
C1347 C1350 1.499 . S
C1348 H1322 0.950 . S
C1348 C1347 1.414 . S
C1348 C1349 1.374 . S
C1349 H1323 0.950 . S
C1349 C1345 1.385 . S
C1349 C1348 1.374 . S
C1350 C1347 1.499 . S
C1350 C1351 1.373 . S
C1350 C1352 1.389 . S
C1351 H1324 0.950 . S
C1351 C1337 1.377 . S
C1351 C1350 1.373 . S
C1352 C1336 1.377 . S
C1352 C1350 1.389 . S
C1352 C1353 1.524 . S
C1353 C1352 1.524 . S
C1353 C1354 1.397 . S
C1353 C1358 1.363 . S
C1354 H1325 0.950 . S
C1354 C1353 1.397 . S
C1354 C1355 1.334 . S
C1355 H1326 0.950 . S
C1355 C1354 1.334 . S
C1355 C1356 1.287 . S
C1356 C1355 1.287 . S
C1356 C1357 1.524 . S
C1356 H1359 0.999 . S
C1357 H1327 0.950 . S
C1357 C1356 1.524 . S
C1357 C1358 1.415 . S
C1358 H1328 0.950 . S
C1358 C1353 1.363 . S
C1358 C1357 1.415 . S
H1359 C1356 0.999 . S
H1360 C1341 0.913 . S
H1361 C1379 0.951 . S
H1362 C1381 0.951 . S
H1363 C1383 0.950 . S
H1364 C1384 0.950 . S
H1365 C1386 0.950 . S
H1366 C1389 0.950 . S
H1367 C1390 0.950 . S
H1368 C1392 0.950 . S
H1369 C1393 0.950 . S
H1370 C1394 0.951 . S
H1371 C1396 0.951 . S
H1372 C1398 0.950 . S
H1373 C1399 0.950 . S
H1374 C1401 0.950 . S
H1375 C1404 0.950 . S
H1376 C1405 0.950 . S
H1377 C1407 0.950 . S
H1378 C1408 0.950 . S
C1379 H1361 0.951 . S
C1379 C1380 1.366 . S
C1379 C1381 1.388 . S
C1380 C1379 1.366 . S
C1380 C1384 1.385 . S
C1381 H1362 0.951 . S
C1381 C1379 1.388 . S
C1381 C1382 1.366 . S
C1382 C1381 1.366 . S
C1382 C1383 1.414 . S
C1382 C1385 1.499 . S
C1383 H1363 0.950 . S
C1383 C1382 1.414 . S
C1383 C1384 1.374 . S
C1384 H1364 0.950 . S
C1384 C1380 1.385 . S
C1384 C1383 1.374 . S
C1385 C1382 1.499 . S
C1385 C1386 1.373 . S
C1385 C1387 1.389 . S
C1386 H1365 0.950 . S
C1386 C1385 1.373 . S
C1386 C1402 1.377 . S
C1387 C1385 1.389 . S
C1387 C1388 1.524 . S
C1387 C1401 1.377 . S
C1388 C1387 1.524 . S
C1388 C1389 1.397 . S
C1388 C1393 1.363 . S
C1389 H1366 0.950 . S
C1389 C1388 1.397 . S
C1389 C1390 1.334 . S
C1390 H1367 0.950 . S
C1390 C1389 1.334 . S
C1390 C1391 1.287 . S
C1391 C1390 1.287 . S
C1391 C1392 1.524 . S
C1391 H1410 0.913 . S
C1392 H1368 0.950 . S
C1392 C1391 1.524 . S
C1392 C1393 1.415 . S
C1393 H1369 0.950 . S
C1393 C1388 1.363 . S
C1393 C1392 1.415 . S
C1394 H1370 0.951 . S
C1394 C1395 1.366 . S
C1394 C1396 1.388 . S
C1395 C1394 1.366 . S
C1395 C1399 1.385 . S
C1396 H1371 0.951 . S
C1396 C1394 1.388 . S
C1396 C1397 1.366 . S
C1397 C1396 1.366 . S
C1397 C1398 1.414 . S
C1397 C1400 1.499 . S
C1398 H1372 0.950 . S
C1398 C1397 1.414 . S
C1398 C1399 1.374 . S
C1399 H1373 0.950 . S
C1399 C1395 1.385 . S
C1399 C1398 1.374 . S
C1400 C1397 1.499 . S
C1400 C1401 1.373 . S
C1400 C1402 1.389 . S
C1401 H1374 0.950 . S
C1401 C1387 1.377 . S
C1401 C1400 1.373 . S
C1402 C1386 1.377 . S
C1402 C1400 1.389 . S
C1402 C1403 1.524 . S
C1403 C1402 1.524 . S
C1403 C1404 1.397 . S
C1403 C1408 1.363 . S
C1404 H1375 0.950 . S
C1404 C1403 1.397 . S
C1404 C1405 1.334 . S
C1405 H1376 0.950 . S
C1405 C1404 1.334 . S
C1405 C1406 1.287 . S
C1406 C1405 1.287 . S
C1406 C1407 1.524 . S
C1406 H1409 0.999 . S
C1407 H1377 0.950 . S
C1407 C1406 1.524 . S
C1407 C1408 1.415 . S
C1408 H1378 0.950 . S
C1408 C1403 1.363 . S
C1408 C1407 1.415 . S
H1409 C1406 0.999 . S
H1410 C1391 0.913 . S
H1411 C1429 0.951 . S
H1412 C1431 0.951 . S
H1413 C1433 0.950 . S
H1414 C1434 0.950 . S
H1415 C1436 0.950 . S
H1416 C1439 0.950 . S
H1417 C1440 0.950 . S
H1418 C1442 0.950 . S
H1419 C1443 0.950 . S
H1420 C1444 0.951 . S
H1421 C1446 0.951 . S
H1422 C1448 0.950 . S
H1423 C1449 0.950 . S
H1424 C1451 0.950 . S
H1425 C1454 0.950 . S
H1426 C1455 0.950 . S
H1427 C1457 0.950 . S
H1428 C1458 0.950 . S
C1429 H1411 0.951 . S
C1429 C1430 1.366 . S
C1429 C1431 1.388 . S
C1430 C1429 1.366 . S
C1430 C1434 1.385 . S
C1431 H1412 0.951 . S
C1431 C1429 1.388 . S
C1431 C1432 1.366 . S
C1432 C1431 1.366 . S
C1432 C1433 1.414 . S
C1432 C1435 1.499 . S
C1433 H1413 0.950 . S
C1433 C1432 1.414 . S
C1433 C1434 1.374 . S
C1434 H1414 0.950 . S
C1434 C1430 1.385 . S
C1434 C1433 1.374 . S
C1435 C1432 1.499 . S
C1435 C1436 1.373 . S
C1435 C1437 1.389 . S
C1436 H1415 0.950 . S
C1436 C1435 1.373 . S
C1436 C1452 1.377 . S
C1437 C1435 1.389 . S
C1437 C1438 1.524 . S
C1437 C1451 1.377 . S
C1438 C1437 1.524 . S
C1438 C1439 1.397 . S
C1438 C1443 1.363 . S
C1439 H1416 0.950 . S
C1439 C1438 1.397 . S
C1439 C1440 1.334 . S
C1440 H1417 0.950 . S
C1440 C1439 1.334 . S
C1440 C1441 1.287 . S
C1441 C1440 1.287 . S
C1441 C1442 1.524 . S
C1441 H1460 0.913 . S
C1442 H1418 0.950 . S
C1442 C1441 1.524 . S
C1442 C1443 1.415 . S
C1443 H1419 0.950 . S
C1443 C1438 1.363 . S
C1443 C1442 1.415 . S
C1444 H1420 0.951 . S
C1444 C1445 1.366 . S
C1444 C1446 1.388 . S
C1445 C1444 1.366 . S
C1445 C1449 1.385 . S
C1446 H1421 0.951 . S
C1446 C1444 1.388 . S
C1446 C1447 1.366 . S
C1447 C1446 1.366 . S
C1447 C1448 1.414 . S
C1447 C1450 1.499 . S
C1448 H1422 0.950 . S
C1448 C1447 1.414 . S
C1448 C1449 1.374 . S
C1449 H1423 0.950 . S
C1449 C1445 1.385 . S
C1449 C1448 1.374 . S
C1450 C1447 1.499 . S
C1450 C1451 1.373 . S
C1450 C1452 1.389 . S
C1451 H1424 0.950 . S
C1451 C1437 1.377 . S
C1451 C1450 1.373 . S
C1452 C1436 1.377 . S
C1452 C1450 1.389 . S
C1452 C1453 1.524 . S
C1453 C1452 1.524 . S
C1453 C1454 1.397 . S
C1453 C1458 1.363 . S
C1454 H1425 0.950 . S
C1454 C1453 1.397 . S
C1454 C1455 1.334 . S
C1455 H1426 0.950 . S
C1455 C1454 1.334 . S
C1455 C1456 1.287 . S
C1456 C1455 1.287 . S
C1456 C1457 1.524 . S
C1456 H1459 0.999 . S
C1457 H1427 0.950 . S
C1457 C1456 1.524 . S
C1457 C1458 1.415 . S
C1458 H1428 0.950 . S
C1458 C1453 1.363 . S
C1458 C1457 1.415 . S
H1459 C1456 0.999 . S
H1460 C1441 0.913 . S
H1461 C1479 0.951 . S
H1462 C1481 0.951 . S
H1463 C1483 0.950 . S
H1464 C1484 0.950 . S
H1465 C1486 0.950 . S
H1466 C1489 0.950 . S
H1467 C1490 0.950 . S
H1468 C1492 0.950 . S
H1469 C1493 0.950 . S
H1470 C1494 0.951 . S
H1471 C1496 0.951 . S
H1472 C1498 0.950 . S
H1473 C1499 0.950 . S
H1474 C1501 0.950 . S
H1475 C1504 0.950 . S
H1476 C1505 0.950 . S
H1477 C1507 0.950 . S
H1478 C1508 0.950 . S
C1479 H1461 0.951 . S
C1479 C1480 1.366 . S
C1479 C1481 1.388 . S
C1480 C1479 1.366 . S
C1480 C1484 1.385 . S
C1481 H1462 0.951 . S
C1481 C1479 1.388 . S
C1481 C1482 1.366 . S
C1482 C1481 1.366 . S
C1482 C1483 1.414 . S
C1482 C1485 1.499 . S
C1483 H1463 0.950 . S
C1483 C1482 1.414 . S
C1483 C1484 1.374 . S
C1484 H1464 0.950 . S
C1484 C1480 1.385 . S
C1484 C1483 1.374 . S
C1485 C1482 1.499 . S
C1485 C1486 1.373 . S
C1485 C1487 1.389 . S
C1486 H1465 0.950 . S
C1486 C1485 1.373 . S
C1486 C1502 1.377 . S
C1487 C1485 1.389 . S
C1487 C1488 1.524 . S
C1487 C1501 1.377 . S
C1488 C1487 1.524 . S
C1488 C1489 1.397 . S
C1488 C1493 1.363 . S
C1489 H1466 0.950 . S
C1489 C1488 1.397 . S
C1489 C1490 1.334 . S
C1490 H1467 0.950 . S
C1490 C1489 1.334 . S
C1490 C1491 1.287 . S
C1491 C1490 1.287 . S
C1491 C1492 1.524 . S
C1491 H1510 0.913 . S
C1492 H1468 0.950 . S
C1492 C1491 1.524 . S
C1492 C1493 1.415 . S
C1493 H1469 0.950 . S
C1493 C1488 1.363 . S
C1493 C1492 1.415 . S
C1494 H1470 0.951 . S
C1494 C1495 1.366 . S
C1494 C1496 1.388 . S
C1495 C1494 1.366 . S
C1495 C1499 1.385 . S
C1496 H1471 0.951 . S
C1496 C1494 1.388 . S
C1496 C1497 1.366 . S
C1497 C1496 1.366 . S
C1497 C1498 1.414 . S
C1497 C1500 1.499 . S
C1498 H1472 0.950 . S
C1498 C1497 1.414 . S
C1498 C1499 1.374 . S
C1499 H1473 0.950 . S
C1499 C1495 1.385 . S
C1499 C1498 1.374 . S
C1500 C1497 1.499 . S
C1500 C1501 1.373 . S
C1500 C1502 1.389 . S
C1501 H1474 0.950 . S
C1501 C1487 1.377 . S
C1501 C1500 1.373 . S
C1502 C1486 1.377 . S
C1502 C1500 1.389 . S
C1502 C1503 1.524 . S
C1503 C1502 1.524 . S
C1503 C1504 1.397 . S
C1503 C1508 1.363 . S
C1504 H1475 0.950 . S
C1504 C1503 1.397 . S
C1504 C1505 1.334 . S
C1505 H1476 0.950 . S
C1505 C1504 1.334 . S
C1505 C1506 1.287 . S
C1506 C1505 1.287 . S
C1506 C1507 1.524 . S
C1506 H1509 0.999 . S
C1507 H1477 0.950 . S
C1507 C1506 1.524 . S
C1507 C1508 1.415 . S
C1508 H1478 0.950 . S
C1508 C1503 1.363 . S
C1508 C1507 1.415 . S
H1509 C1506 0.999 . S
H1510 C1491 0.913 . S
H1511 C1529 0.951 . S
H1512 C1531 0.951 . S
H1513 C1533 0.950 . S
H1514 C1534 0.950 . S
H1515 C1536 0.950 . S
H1516 C1539 0.950 . S
H1517 C1540 0.950 . S
H1518 C1542 0.950 . S
H1519 C1543 0.950 . S
H1520 C1544 0.951 . S
H1521 C1546 0.951 . S
H1522 C1548 0.950 . S
H1523 C1549 0.950 . S
H1524 C1551 0.950 . S
H1525 C1554 0.950 . S
H1526 C1555 0.950 . S
H1527 C1557 0.950 . S
H1528 C1558 0.950 . S
C1529 H1511 0.951 . S
C1529 C1530 1.366 . S
C1529 C1531 1.388 . S
C1530 C1529 1.366 . S
C1530 C1534 1.385 . S
C1531 H1512 0.951 . S
C1531 C1529 1.388 . S
C1531 C1532 1.366 . S
C1532 C1531 1.366 . S
C1532 C1533 1.414 . S
C1532 C1535 1.499 . S
C1533 H1513 0.950 . S
C1533 C1532 1.414 . S
C1533 C1534 1.374 . S
C1534 H1514 0.950 . S
C1534 C1530 1.385 . S
C1534 C1533 1.374 . S
C1535 C1532 1.499 . S
C1535 C1536 1.373 . S
C1535 C1537 1.389 . S
C1536 H1515 0.950 . S
C1536 C1535 1.373 . S
C1536 C1552 1.377 . S
C1537 C1535 1.389 . S
C1537 C1538 1.524 . S
C1537 C1551 1.377 . S
C1538 C1537 1.524 . S
C1538 C1539 1.397 . S
C1538 C1543 1.363 . S
C1539 H1516 0.950 . S
C1539 C1538 1.397 . S
C1539 C1540 1.334 . S
C1540 H1517 0.950 . S
C1540 C1539 1.334 . S
C1540 C1541 1.287 . S
C1541 C1540 1.287 . S
C1541 C1542 1.524 . S
C1541 H1560 0.913 . S
C1542 H1518 0.950 . S
C1542 C1541 1.524 . S
C1542 C1543 1.415 . S
C1543 H1519 0.950 . S
C1543 C1538 1.363 . S
C1543 C1542 1.415 . S
C1544 H1520 0.951 . S
C1544 C1545 1.366 . S
C1544 C1546 1.388 . S
C1545 C1544 1.366 . S
C1545 C1549 1.385 . S
C1546 H1521 0.951 . S
C1546 C1544 1.388 . S
C1546 C1547 1.366 . S
C1547 C1546 1.366 . S
C1547 C1548 1.414 . S
C1547 C1550 1.499 . S
C1548 H1522 0.950 . S
C1548 C1547 1.414 . S
C1548 C1549 1.374 . S
C1549 H1523 0.950 . S
C1549 C1545 1.385 . S
C1549 C1548 1.374 . S
C1550 C1547 1.499 . S
C1550 C1551 1.373 . S
C1550 C1552 1.389 . S
C1551 H1524 0.950 . S
C1551 C1537 1.377 . S
C1551 C1550 1.373 . S
C1552 C1536 1.377 . S
C1552 C1550 1.389 . S
C1552 C1553 1.524 . S
C1553 C1552 1.524 . S
C1553 C1554 1.397 . S
C1553 C1558 1.363 . S
C1554 H1525 0.950 . S
C1554 C1553 1.397 . S
C1554 C1555 1.334 . S
C1555 H1526 0.950 . S
C1555 C1554 1.334 . S
C1555 C1556 1.287 . S
C1556 C1555 1.287 . S
C1556 C1557 1.524 . S
C1556 H1559 0.999 . S
C1557 H1527 0.950 . S
C1557 C1556 1.524 . S
C1557 C1558 1.415 . S
C1558 H1528 0.950 . S
C1558 C1553 1.363 . S
C1558 C1557 1.415 . S
H1559 C1556 0.999 . S
H1560 C1541 0.913 . S
H1561 C1579 0.951 . S
H1562 C1581 0.951 . S
H1563 C1583 0.950 . S
H1564 C1584 0.950 . S
H1565 C1586 0.950 . S
H1566 C1589 0.950 . S
H1567 C1590 0.950 . S
H1568 C1592 0.950 . S
H1569 C1593 0.950 . S
H1570 C1594 0.951 . S
H1571 C1596 0.951 . S
H1572 C1598 0.950 . S
H1573 C1599 0.950 . S
H1574 C1601 0.950 . S
H1575 C1604 0.950 . S
H1576 C1605 0.950 . S
H1577 C1607 0.950 . S
H1578 C1608 0.950 . S
C1579 H1561 0.951 . S
C1579 C1580 1.366 . S
C1579 C1581 1.388 . S
C1580 C1579 1.366 . S
C1580 C1584 1.385 . S
C1581 H1562 0.951 . S
C1581 C1579 1.388 . S
C1581 C1582 1.366 . S
C1582 C1581 1.366 . S
C1582 C1583 1.414 . S
C1582 C1585 1.499 . S
C1583 H1563 0.950 . S
C1583 C1582 1.414 . S
C1583 C1584 1.374 . S
C1584 H1564 0.950 . S
C1584 C1580 1.385 . S
C1584 C1583 1.374 . S
C1585 C1582 1.499 . S
C1585 C1586 1.373 . S
C1585 C1587 1.389 . S
C1586 H1565 0.950 . S
C1586 C1585 1.373 . S
C1586 C1602 1.377 . S
C1587 C1585 1.389 . S
C1587 C1588 1.524 . S
C1587 C1601 1.377 . S
C1588 C1587 1.524 . S
C1588 C1589 1.397 . S
C1588 C1593 1.363 . S
C1589 H1566 0.950 . S
C1589 C1588 1.397 . S
C1589 C1590 1.334 . S
C1590 H1567 0.950 . S
C1590 C1589 1.334 . S
C1590 C1591 1.287 . S
C1591 C1590 1.287 . S
C1591 C1592 1.524 . S
C1591 H1610 0.913 . S
C1592 H1568 0.950 . S
C1592 C1591 1.524 . S
C1592 C1593 1.415 . S
C1593 H1569 0.950 . S
C1593 C1588 1.363 . S
C1593 C1592 1.415 . S
C1594 H1570 0.951 . S
C1594 C1595 1.366 . S
C1594 C1596 1.388 . S
C1595 C1594 1.366 . S
C1595 C1599 1.385 . S
C1596 H1571 0.951 . S
C1596 C1594 1.388 . S
C1596 C1597 1.366 . S
C1597 C1596 1.366 . S
C1597 C1598 1.414 . S
C1597 C1600 1.499 . S
C1598 H1572 0.950 . S
C1598 C1597 1.414 . S
C1598 C1599 1.374 . S
C1599 H1573 0.950 . S
C1599 C1595 1.385 . S
C1599 C1598 1.374 . S
C1600 C1597 1.499 . S
C1600 C1601 1.373 . S
C1600 C1602 1.389 . S
C1601 H1574 0.950 . S
C1601 C1587 1.377 . S
C1601 C1600 1.373 . S
C1602 C1586 1.377 . S
C1602 C1600 1.389 . S
C1602 C1603 1.524 . S
C1603 C1602 1.524 . S
C1603 C1604 1.397 . S
C1603 C1608 1.363 . S
C1604 H1575 0.950 . S
C1604 C1603 1.397 . S
C1604 C1605 1.334 . S
C1605 H1576 0.950 . S
C1605 C1604 1.334 . S
C1605 C1606 1.287 . S
C1606 C1605 1.287 . S
C1606 C1607 1.524 . S
C1606 H1609 0.999 . S
C1607 H1577 0.950 . S
C1607 C1606 1.524 . S
C1607 C1608 1.415 . S
C1608 H1578 0.950 . S
C1608 C1603 1.363 . S
C1608 C1607 1.415 . S
H1609 C1606 0.999 . S
H1610 C1591 0.913 . S
C445 C336 0.971 . S
C430 C16 1.008 . S
C495 C372 1.671 . S
C480 C55 1.771 . S
C545 C337 1.384 . S
C530 C99 1.386 . S
C595 C367 1.502 . S
C580 C133 1.547 . S
C645 C334 1.472 . S
C630 C157 1.529 . S
C680 C211 1.707 . S
C695 C370 1.714 . S
C730 C255 1.075 . S
C745 C339 0.997 . S
C795 C369 1.411 . S
C780 C294 1.442 . S
C845 C373 1.411 . S
C830 C21 1.445 . S
C895 C338 1.467 . S
C880 C40 1.519 . S
C945 C366 1.713 . S
C930 C94 1.709 . S
C995 C335 0.997 . S
C980 C138 1.074 . S
C1045 C368 1.676 . S
C1030 C172 1.773 . S
C1080 C216 1.393 . S
C1095 C333 1.384 . S
C1130 C235 1.557 . S
C1145 C371 1.508 . S
C1195 C340 0.978 . S
C1180 C289 1.014 . S
C1245 C402 1.761 . S
C1230 C1 1.863 . S
C1280 C177 2.041 . S
C1295 C405 1.918 . S
C1345 C404 1.705 . S
C1330 C196 1.766 . S
C1380 C250 2.147 . S
C1395 C403 2.138 . S
C1445 C406 1.765 . S
C1430 C274 1.865 . S
C1480 C79 1.762 . S
C1495 C400 1.706 . S
C1545 C399 2.144 . S
C1530 C118 2.157 . S
C1580 C60 2.030 . S
C1595 C401 1.917 . S
