# Generated by pormake.
# Topology eea, (3,6)-cn, num edge types: 1
# Building blocks:
#     Node 0, Type 0, BuildingBlock: KAKCAD_clean_linker_0, # of connection points: 3
#     Node 1, Type 0, BuildingBlock: KAKCAD_clean_linker_0, # of connection points: 3
#     Node 2, Type 0, BuildingBlock: KAKCAD_clean_linker_0, # of connection points: 3
#     Node 3, Type 0, BuildingBlock: KAKCAD_clean_linker_0, # of connection points: 3
#     Node 4, Type 0, BuildingBlock: KAKCAD_clean_linker_0, # of connection points: 3
#     Node 5, Type 0, BuildingBlock: KAKCAD_clean_linker_0, # of connection points: 3
#     Node 6, Type 0, BuildingBlock: KAKCAD_clean_linker_0, # of connection points: 3
#     Node 7, Type 0, BuildingBlock: KAKCAD_clean_linker_0, # of connection points: 3
#     Node 8, Type 0, BuildingBlock: KAKCAD_clean_linker_0, # of connection points: 3
#     Node 9, Type 0, BuildingBlock: KAKCAD_clean_linker_0, # of connection points: 3
#     Node 10, Type 0, BuildingBlock: KAKCAD_clean_linker_0, # of connection points: 3
#     Node 11, Type 0, BuildingBlock: KAKCAD_clean_linker_0, # of connection points: 3
#     Node 12, Type 0, BuildingBlock: KAKCAD_clean_linker_0, # of connection points: 3
#     Node 13, Type 0, BuildingBlock: KAKCAD_clean_linker_0, # of connection points: 3
#     Node 14, Type 0, BuildingBlock: KAKCAD_clean_linker_0, # of connection points: 3
#     Node 15, Type 0, BuildingBlock: KAKCAD_clean_linker_0, # of connection points: 3
#     Node 16, Type 0, BuildingBlock: KAKCAD_clean_linker_0, # of connection points: 3
#     Node 17, Type 0, BuildingBlock: KAKCAD_clean_linker_0, # of connection points: 3
#     Node 18, Type 1, BuildingBlock: KUMJIN_clean_sbu_0, # of connection points: 6
#     Node 19, Type 1, BuildingBlock: KUMJIN_clean_sbu_0, # of connection points: 6
#     Node 20, Type 1, BuildingBlock: KUMJIN_clean_sbu_0, # of connection points: 6
#     Node 21, Type 1, BuildingBlock: KUMJIN_clean_sbu_0, # of connection points: 6
#     Node 22, Type 1, BuildingBlock: KUMJIN_clean_sbu_0, # of connection points: 6
#     Node 23, Type 1, BuildingBlock: KUMJIN_clean_sbu_0, # of connection points: 6
#     Node 24, Type 1, BuildingBlock: KUMJIN_clean_sbu_0, # of connection points: 6
#     Node 25, Type 1, BuildingBlock: KUMJIN_clean_sbu_0, # of connection points: 6
#     Node 26, Type 1, BuildingBlock: KUMJIN_clean_sbu_0, # of connection points: 6
#     Edge 27, Type (0, 1), BuildingBlock: ZUJKAS_clean_linker_0, # of connection points: 2
#     Edge 28, Type (0, 1), BuildingBlock: ZUJKAS_clean_linker_0, # of connection points: 2
#     Edge 29, Type (0, 1), BuildingBlock: ZUJKAS_clean_linker_0, # of connection points: 2
#     Edge 30, Type (0, 1), BuildingBlock: ZUJKAS_clean_linker_0, # of connection points: 2
#     Edge 31, Type (0, 1), BuildingBlock: ZUJKAS_clean_linker_0, # of connection points: 2
#     Edge 32, Type (0, 1), BuildingBlock: ZUJKAS_clean_linker_0, # of connection points: 2
#     Edge 33, Type (0, 1), BuildingBlock: ZUJKAS_clean_linker_0, # of connection points: 2
#     Edge 34, Type (0, 1), BuildingBlock: ZUJKAS_clean_linker_0, # of connection points: 2
#     Edge 35, Type (0, 1), BuildingBlock: ZUJKAS_clean_linker_0, # of connection points: 2
#     Edge 36, Type (0, 1), BuildingBlock: ZUJKAS_clean_linker_0, # of connection points: 2
#     Edge 37, Type (0, 1), BuildingBlock: ZUJKAS_clean_linker_0, # of connection points: 2
#     Edge 38, Type (0, 1), BuildingBlock: ZUJKAS_clean_linker_0, # of connection points: 2
#     Edge 39, Type (0, 1), BuildingBlock: ZUJKAS_clean_linker_0, # of connection points: 2
#     Edge 40, Type (0, 1), BuildingBlock: ZUJKAS_clean_linker_0, # of connection points: 2
#     Edge 41, Type (0, 1), BuildingBlock: ZUJKAS_clean_linker_0, # of connection points: 2
#     Edge 42, Type (0, 1), BuildingBlock: ZUJKAS_clean_linker_0, # of connection points: 2
#     Edge 43, Type (0, 1), BuildingBlock: ZUJKAS_clean_linker_0, # of connection points: 2
#     Edge 44, Type (0, 1), BuildingBlock: ZUJKAS_clean_linker_0, # of connection points: 2
#     Edge 45, Type (0, 1), BuildingBlock: ZUJKAS_clean_linker_0, # of connection points: 2
#     Edge 46, Type (0, 1), BuildingBlock: ZUJKAS_clean_linker_0, # of connection points: 2
#     Edge 47, Type (0, 1), BuildingBlock: ZUJKAS_clean_linker_0, # of connection points: 2
#     Edge 48, Type (0, 1), BuildingBlock: ZUJKAS_clean_linker_0, # of connection points: 2
#     Edge 49, Type (0, 1), BuildingBlock: ZUJKAS_clean_linker_0, # of connection points: 2
#     Edge 50, Type (0, 1), BuildingBlock: ZUJKAS_clean_linker_0, # of connection points: 2
#     Edge 51, Type (0, 1), BuildingBlock: ZUJKAS_clean_linker_0, # of connection points: 2
#     Edge 52, Type (0, 1), BuildingBlock: ZUJKAS_clean_linker_0, # of connection points: 2
#     Edge 53, Type (0, 1), BuildingBlock: ZUJKAS_clean_linker_0, # of connection points: 2
#     Edge 54, Type (0, 1), BuildingBlock: ZUJKAS_clean_linker_0, # of connection points: 2
#     Edge 55, Type (0, 1), BuildingBlock: ZUJKAS_clean_linker_0, # of connection points: 2
#     Edge 56, Type (0, 1), BuildingBlock: ZUJKAS_clean_linker_0, # of connection points: 2
#     Edge 57, Type (0, 1), BuildingBlock: ZUJKAS_clean_linker_0, # of connection points: 2
#     Edge 58, Type (0, 1), BuildingBlock: ZUJKAS_clean_linker_0, # of connection points: 2
#     Edge 59, Type (0, 1), BuildingBlock: ZUJKAS_clean_linker_0, # of connection points: 2
#     Edge 60, Type (0, 1), BuildingBlock: ZUJKAS_clean_linker_0, # of connection points: 2
#     Edge 61, Type (0, 1), BuildingBlock: ZUJKAS_clean_linker_0, # of connection points: 2
#     Edge 62, Type (0, 1), BuildingBlock: ZUJKAS_clean_linker_0, # of connection points: 2
#     Edge 63, Type (0, 1), BuildingBlock: ZUJKAS_clean_linker_0, # of connection points: 2
#     Edge 64, Type (0, 1), BuildingBlock: ZUJKAS_clean_linker_0, # of connection points: 2
#     Edge 65, Type (0, 1), BuildingBlock: ZUJKAS_clean_linker_0, # of connection points: 2
#     Edge 66, Type (0, 1), BuildingBlock: ZUJKAS_clean_linker_0, # of connection points: 2
#     Edge 67, Type (0, 1), BuildingBlock: ZUJKAS_clean_linker_0, # of connection points: 2
#     Edge 68, Type (0, 1), BuildingBlock: ZUJKAS_clean_linker_0, # of connection points: 2
#     Edge 69, Type (0, 1), BuildingBlock: ZUJKAS_clean_linker_0, # of connection points: 2
#     Edge 70, Type (0, 1), BuildingBlock: ZUJKAS_clean_linker_0, # of connection points: 2
#     Edge 71, Type (0, 1), BuildingBlock: ZUJKAS_clean_linker_0, # of connection points: 2
#     Edge 72, Type (0, 1), BuildingBlock: ZUJKAS_clean_linker_0, # of connection points: 2
#     Edge 73, Type (0, 1), BuildingBlock: ZUJKAS_clean_linker_0, # of connection points: 2
#     Edge 74, Type (0, 1), BuildingBlock: ZUJKAS_clean_linker_0, # of connection points: 2
#     Edge 75, Type (0, 1), BuildingBlock: ZUJKAS_clean_linker_0, # of connection points: 2
#     Edge 76, Type (0, 1), BuildingBlock: ZUJKAS_clean_linker_0, # of connection points: 2
#     Edge 77, Type (0, 1), BuildingBlock: ZUJKAS_clean_linker_0, # of connection points: 2
#     Edge 78, Type (0, 1), BuildingBlock: ZUJKAS_clean_linker_0, # of connection points: 2
#     Edge 79, Type (0, 1), BuildingBlock: ZUJKAS_clean_linker_0, # of connection points: 2
#     Edge 80, Type (0, 1), BuildingBlock: ZUJKAS_clean_linker_0, # of connection points: 2
# Relax obj value: 0.010
# Max RMSD: 0.099
# Mean RMSD: 0.055
data_MOF--net-eea--node1-KUMJIN_clean_sbu_0--node2-KAKCAD_clean_linker_0--edge1-ZUJKAS_clean_linker_0
_symmetry_space_group_name_H-M    P1
_symmetry_Int_Tables_number       1
_symmetry_cell_setting            triclinic
loop_
_symmetry_equiv_pos_as_xyz
'x, y, z'
_cell_length_a     78.504451
_cell_length_b     79.795449
_cell_length_c     107.1679
_cell_angle_alpha  90.441168
_cell_angle_beta   90.237774
_cell_angle_gamma 120.01259
loop_
_atom_site_label
_atom_site_type_symbol
_atom_site_fract_x
_atom_site_fract_y
_atom_site_fract_z
_atom_type_partial_charge
C0 C 0.26498 0.14407 0.47641 0.0
C1 C 0.27963 0.1396 0.47965 0.0
C2 C 0.25678 0.14006 0.46441 0.0
C3 C 0.26306 0.13156 0.45534 0.0
C4 C 0.27777 0.12718 0.45857 0.0
C5 C 0.28591 0.1311 0.47058 0.0
C6 C 0.25429 0.12716 0.44258 0.0
C7 C 0.24998 0.14016 0.4365 0.0
C8 C 0.24178 0.1361 0.42442 0.0
C9 C 0.23802 0.1189 0.41838 0.0
C10 C 0.24211 0.10567 0.42431 0.0
C11 C 0.25018 0.1099 0.43643 0.0
C12 C 0.23779 0.08736 0.41791 0.0
C13 C 0.22047 0.0768 0.41078 0.0
C14 C 0.25095 0.08029 0.41887 0.0
C15 C 0.24684 0.06305 0.41287 0.0
C16 C 0.22955 0.05255 0.40574 0.0
C17 C 0.23685 0.14967 0.41815 0.0
C18 C 0.2272 0.15778 0.42469 0.0
C19 C 0.24132 0.15421 0.4055 0.0
C20 C 0.23608 0.16646 0.39949 0.0
C21 C 0.2262 0.17438 0.40599 0.0
C22 C 0.22189 0.16997 0.41867 0.0
C23 C 0.21643 0.05962 0.40473 0.0
H24 H 0.25995 0.15081 0.48313 0.0
H25 H 0.24533 0.14343 0.46228 0.0
H26 H 0.28314 0.12084 0.45177 0.0
H27 H 0.29697 0.12723 0.47278 0.0
H28 H 0.2534 0.15368 0.44104 0.0
H29 H 0.25281 0.09948 0.44121 0.0
H30 H 0.23177 0.11576 0.40904 0.0
H31 H 0.20985 0.08164 0.41003 0.0
H32 H 0.26456 0.08823 0.42412 0.0
H33 H 0.25733 0.05805 0.41369 0.0
H34 H 0.22342 0.15442 0.43441 0.0
H35 H 0.24892 0.14831 0.40025 0.0
H36 H 0.20284 0.05168 0.39944 0.0
H37 H 0.21449 0.17604 0.42396 0.0
H38 H 0.23949 0.16949 0.38969 0.0
C39 C 0.88721 0.1518 0.47409 0.0
C40 C 0.8783 0.1365 0.48259 0.0
C41 C 0.89135 0.14849 0.46192 0.0
C42 C 0.88678 0.12982 0.45799 0.0
C43 C 0.87837 0.11465 0.46663 0.0
C44 C 0.87411 0.11794 0.47875 0.0
C45 C 0.89015 0.12596 0.44485 0.0
C46 C 0.90706 0.13929 0.43838 0.0
C47 C 0.91011 0.13572 0.42593 0.0
C48 C 0.89597 0.11851 0.41999 0.0
C49 C 0.87909 0.10495 0.42633 0.0
C50 C 0.87627 0.10886 0.4387 0.0
C51 C 0.86437 0.0866 0.42009 0.0
C52 C 0.85802 0.08655 0.4078 0.0
C53 C 0.85647 0.06898 0.42647 0.0
C54 C 0.84249 0.05171 0.42072 0.0
C55 C 0.83596 0.05162 0.40846 0.0
C56 C 0.92807 0.1499 0.41913 0.0
C57 C 0.93543 0.16991 0.4205 0.0
C58 C 0.93789 0.14353 0.41112 0.0
C59 C 0.95455 0.15682 0.40459 0.0
C60 C 0.96188 0.17683 0.40592 0.0
C61 C 0.95213 0.18319 0.414 0.0
C62 C 0.84394 0.06926 0.40206 0.0
H63 H 0.89046 0.16624 0.47675 0.0
H64 H 0.89762 0.16047 0.45549 0.0
H65 H 0.87505 0.10018 0.46404 0.0
H66 H 0.86757 0.10592 0.48514 0.0
H67 H 0.91811 0.15225 0.44315 0.0
H68 H 0.86293 0.09872 0.44345 0.0
H69 H 0.89809 0.1156 0.4104 0.0
H70 H 0.86367 0.09993 0.4027 0.0
H71 H 0.8613 0.06851 0.43588 0.0
H72 H 0.83697 0.03837 0.42585 0.0
H73 H 0.92815 0.17534 0.42649 0.0
H74 H 0.9328 0.12825 0.40995 0.0
H75 H 0.83907 0.06979 0.39268 0.0
H76 H 0.95749 0.19849 0.4154 0.0
H77 H 0.96154 0.15136 0.39837 0.0
C78 C 0.89289 0.76011 0.47729 0.0
C79 C 0.8741 0.7448 0.48038 0.0
C80 C 0.89699 0.76735 0.46513 0.0
C81 C 0.88238 0.75957 0.45576 0.0
C82 C 0.86367 0.74421 0.4588 0.0
C83 C 0.85961 0.73688 0.47092 0.0
C84 C 0.8865 0.7675 0.44287 0.0
C85 C 0.90406 0.77168 0.43684 0.0
C86 C 0.90779 0.77874 0.42456 0.0
C87 C 0.89371 0.78178 0.41837 0.0
C88 C 0.87611 0.77786 0.42426 0.0
C89 C 0.87269 0.7707 0.43651 0.0
C90 C 0.86129 0.78126 0.4177 0.0
C91 C 0.86722 0.79765 0.41021 0.0
C92 C 0.84102 0.76823 0.41899 0.0
C93 C 0.82709 0.7716 0.4131 0.0
C94 C 0.83302 0.78806 0.4057 0.0
C95 C 0.92628 0.7827 0.41814 0.0
C96 C 0.94443 0.79177 0.42455 0.0
C97 C 0.92592 0.77738 0.40555 0.0
C98 C 0.94322 0.78099 0.39955 0.0
C99 C 0.96139 0.79005 0.40596 0.0
C100 C 0.96174 0.79542 0.41854 0.0
C101 C 0.85328 0.80099 0.40427 0.0
H102 H 0.90437 0.76677 0.48433 0.0
H103 H 0.91151 0.77932 0.46312 0.0
H104 H 0.85218 0.73767 0.45176 0.0
H105 H 0.84511 0.72482 0.47281 0.0
H106 H 0.91456 0.76885 0.44158 0.0
H107 H 0.85942 0.76804 0.44125 0.0
H108 H 0.89646 0.78721 0.40893 0.0
H109 H 0.88267 0.80816 0.40913 0.0
H110 H 0.83587 0.75526 0.42448 0.0
H111 H 0.81163 0.76116 0.41423 0.0
H112 H 0.9453 0.79631 0.4342 0.0
H113 H 0.91217 0.77009 0.40037 0.0
H114 H 0.85837 0.81394 0.39877 0.0
H115 H 0.97547 0.80271 0.42374 0.0
H116 H 0.94228 0.77634 0.38993 0.0
C117 C 0.13478 0.24077 0.5391 0.0
C118 C 0.13087 0.25547 0.53553 0.0
C119 C 0.13075 0.23337 0.55121 0.0
C120 C 0.12267 0.24043 0.5601 0.0
C121 C 0.11861 0.25501 0.55651 0.0
C122 C 0.12267 0.26244 0.5444 0.0
C123 C 0.11867 0.23271 0.57307 0.0
C124 C 0.13216 0.22891 0.57932 0.0
C125 C 0.12857 0.22149 0.59151 0.0
C126 C 0.11117 0.21803 0.59748 0.0
C127 C 0.09747 0.22181 0.59147 0.0
C128 C 0.10138 0.22912 0.57924 0.0
C129 C 0.07906 0.2181 0.59793 0.0
C130 C 0.06866 0.20177 0.60552 0.0
C131 C 0.07175 0.23091 0.59661 0.0
C132 C 0.05454 0.22747 0.60268 0.0
C133 C 0.0442 0.21118 0.61029 0.0
C134 C 0.14302 0.2174 0.59797 0.0
C135 C 0.15296 0.20964 0.59132 0.0
C136 C 0.14706 0.22123 0.61082 0.0
C137 C 0.16063 0.21741 0.61682 0.0
C138 C 0.17065 0.20975 0.61015 0.0
C139 C 0.16661 0.20594 0.59731 0.0
C140 C 0.05151 0.19839 0.61164 0.0
H141 H 0.14076 0.23479 0.53249 0.0
H142 H 0.13376 0.22192 0.55357 0.0
H143 H 0.11264 0.26098 0.56314 0.0
H144 H 0.11973 0.27394 0.54207 0.0
H145 H 0.14577 0.23221 0.57477 0.0
H146 H 0.09069 0.23154 0.57438 0.0
H147 H 0.10827 0.21236 0.60686 0.0
H148 H 0.0736 0.19139 0.6066 0.0
H149 H 0.07949 0.2438 0.59103 0.0
H150 H 0.04951 0.23778 0.60157 0.0
H151 H 0.15011 0.20626 0.58146 0.0
H152 H 0.13991 0.22741 0.61624 0.0
H153 H 0.04378 0.18555 0.61727 0.0
H154 H 0.17418 0.2003 0.59178 0.0
H155 H 0.16313 0.22035 0.62674 0.0
C156 C 0.72284 0.84819 0.54588 0.0
C157 C 0.72956 0.86291 0.53694 0.0
C158 C 0.73077 0.85215 0.55796 0.0
C159 C 0.74556 0.87093 0.56137 0.0
C160 C 0.75245 0.88559 0.5524 0.0
C161 C 0.74456 0.88162 0.54032 0.0
C162 C 0.75353 0.87531 0.57431 0.0
C163 C 0.75803 0.86259 0.5806 0.0
C164 C 0.76549 0.86664 0.59288 0.0
C165 C 0.76822 0.88353 0.59888 0.0
C166 C 0.76394 0.89645 0.59271 0.0
C167 C 0.75662 0.89225 0.58043 0.0
C168 C 0.76744 0.91449 0.59905 0.0
C169 C 0.76149 0.91414 0.61143 0.0
C170 C 0.77717 0.93224 0.59283 0.0
C171 C 0.78112 0.94936 0.59893 0.0
C172 C 0.77529 0.94909 0.61136 0.0
C173 C 0.77074 0.85344 0.59939 0.0
C174 C 0.75871 0.83325 0.59825 0.0
C175 C 0.78785 0.86098 0.60684 0.0
C176 C 0.79272 0.84864 0.61308 0.0
C177 C 0.78068 0.82848 0.61195 0.0
C178 C 0.76365 0.8209 0.60444 0.0
C179 C 0.76532 0.93125 0.61751 0.0
H180 H 0.71111 0.83368 0.54364 0.0
H181 H 0.72499 0.84061 0.56471 0.0
H182 H 0.76406 0.90013 0.55469 0.0
H183 H 0.75032 0.89321 0.53359 0.0
H184 H 0.75625 0.84981 0.57578 0.0
H185 H 0.7529 0.902 0.57574 0.0
H186 H 0.77386 0.88675 0.60837 0.0
H187 H 0.75374 0.90061 0.6164 0.0
H188 H 0.78215 0.93296 0.58334 0.0
H189 H 0.78912 0.96287 0.59397 0.0
H190 H 0.74529 0.82697 0.59272 0.0
H191 H 0.79765 0.87646 0.60772 0.0
H192 H 0.76032 0.93046 0.62701 0.0
H193 H 0.75398 0.8054 0.60352 0.0
H194 H 0.8061 0.8549 0.61865 0.0
C195 C 0.11129 0.85569 0.53924 0.0
C196 C 0.13029 0.85952 0.53614 0.0
C197 C 0.10723 0.8596 0.55128 0.0
C198 C 0.12213 0.86755 0.56047 0.0
C199 C 0.14105 0.87114 0.5574 0.0
C200 C 0.14508 0.86716 0.5454 0.0
C201 C 0.11816 0.87265 0.5731 0.0
C202 C 0.10081 0.86004 0.57947 0.0
C203 C 0.09709 0.86489 0.59142 0.0
C204 C 0.11085 0.88274 0.59686 0.0
C205 C 0.12826 0.89545 0.59065 0.0
C206 C 0.13182 0.89028 0.57881 0.0
C207 C 0.14278 0.91415 0.59656 0.0
C208 C 0.13665 0.92629 0.60202 0.0
C209 C 0.16289 0.91995 0.59678 0.0
C210 C 0.17657 0.93747 0.60243 0.0
C211 C 0.17045 0.94966 0.60785 0.0
C212 C 0.07901 0.85128 0.59833 0.0
C213 C 0.06074 0.84097 0.59214 0.0
C214 C 0.07991 0.84857 0.61122 0.0
C215 C 0.06297 0.83597 0.61777 0.0
C216 C 0.04468 0.82571 0.61161 0.0
C217 C 0.04378 0.82835 0.5987 0.0
C218 C 0.15036 0.94392 0.60755 0.0
H219 H 0.09952 0.84963 0.53236 0.0
H220 H 0.09254 0.85679 0.55332 0.0
H221 H 0.1528 0.87707 0.5643 0.0
H222 H 0.15992 0.87047 0.54331 0.0
H223 H 0.09049 0.84619 0.57527 0.0
H224 H 0.14505 0.90028 0.5739 0.0
H225 H 0.10808 0.88675 0.60599 0.0
H226 H 0.12126 0.92224 0.60191 0.0
H227 H 0.16801 0.91081 0.5927 0.0
H228 H 0.19197 0.94159 0.60245 0.0
H229 H 0.05948 0.84282 0.58224 0.0
H230 H 0.09378 0.85607 0.61626 0.0
H231 H 0.14521 0.95297 0.61173 0.0
H232 H 0.02999 0.8205 0.59362 0.0
H233 H 0.06419 0.83444 0.62772 0.0
C234 C 0.93322 0.47681 0.81112 0.0
C235 C 0.94751 0.47184 0.81431 0.0
C236 C 0.92547 0.47361 0.79899 0.0
C237 C 0.93191 0.46543 0.78979 0.0
C238 C 0.94642 0.46075 0.79295 0.0
C239 C 0.9541 0.46388 0.80507 0.0
C240 C 0.92341 0.46155 0.77696 0.0
C241 C 0.9196 0.47496 0.77096 0.0
C242 C 0.91187 0.47139 0.75876 0.0
C243 C 0.90791 0.45424 0.75257 0.0
C244 C 0.91132 0.44053 0.75847 0.0
C245 C 0.91908 0.44432 0.77066 0.0
C246 C 0.90653 0.42216 0.75194 0.0
C247 C 0.88933 0.41224 0.74462 0.0
C248 C 0.91908 0.41439 0.75298 0.0
C249 C 0.91451 0.39709 0.74686 0.0
C250 C 0.89736 0.38726 0.73951 0.0
C251 C 0.90757 0.48535 0.75246 0.0
C252 C 0.89717 0.49296 0.75868 0.0
C253 C 0.91308 0.49049 0.74001 0.0
C254 C 0.90796 0.50268 0.7338 0.0
C255 C 0.89708 0.50991 0.73989 0.0
C256 C 0.89192 0.50505 0.75244 0.0
C257 C 0.88484 0.39502 0.73844 0.0
H258 H 0.92771 0.48278 0.81807 0.0
H259 H 0.91415 0.47716 0.7969 0.0
H260 H 0.95198 0.45478 0.78603 0.0
H261 H 0.96535 0.46023 0.80717 0.0
H262 H 0.92307 0.48839 0.77565 0.0
H263 H 0.92128 0.43359 0.7754 0.0
H264 H 0.902 0.4515 0.74315 0.0
H265 H 0.87915 0.41761 0.7438 0.0
H266 H 0.93259 0.42181 0.75839 0.0
H267 H 0.92454 0.39155 0.74774 0.0
H268 H 0.89256 0.48906 0.76824 0.0
H269 H 0.92135 0.48505 0.73505 0.0
H270 H 0.87136 0.38759 0.73299 0.0
H271 H 0.88334 0.51016 0.75737 0.0
H272 H 0.91255 0.50645 0.72423 0.0
C273 C 0.55252 0.48536 0.8058 0.0
C274 C 0.54505 0.47059 0.81474 0.0
C275 C 0.55667 0.4818 0.7937 0.0
C276 C 0.55338 0.46337 0.79025 0.0
C277 C 0.54628 0.44873 0.79925 0.0
C278 C 0.54219 0.4523 0.81134 0.0
C279 C 0.55681 0.45924 0.77723 0.0
C280 C 0.57365 0.47256 0.77072 0.0
C281 C 0.57685 0.4687 0.75838 0.0
C282 C 0.56283 0.45133 0.75254 0.0
C283 C 0.54595 0.43783 0.75891 0.0
C284 C 0.54308 0.44191 0.77124 0.0
C285 C 0.53127 0.41945 0.75271 0.0
C286 C 0.52508 0.41934 0.74037 0.0
C287 C 0.5233 0.40186 0.75913 0.0
C288 C 0.50943 0.38455 0.75335 0.0
C289 C 0.50313 0.38442 0.74102 0.0
C290 C 0.5949 0.48268 0.75161 0.0
C291 C 0.60218 0.50271 0.75263 0.0
C292 C 0.60499 0.47607 0.74404 0.0
C293 C 0.62189 0.48915 0.73764 0.0
C294 C 0.62917 0.50919 0.73865 0.0
C295 C 0.6191 0.5158 0.74624 0.0
C296 C 0.51114 0.40204 0.7346 0.0
H297 H 0.55467 0.49955 0.80805 0.0
H298 H 0.56193 0.49333 0.78695 0.0
H299 H 0.54392 0.43447 0.79695 0.0
H300 H 0.53683 0.4407 0.81804 0.0
H301 H 0.58454 0.48571 0.7754 0.0
H302 H 0.52983 0.43177 0.77608 0.0
H303 H 0.56507 0.44825 0.74302 0.0
H304 H 0.53077 0.43271 0.73524 0.0
H305 H 0.52798 0.40143 0.76858 0.0
H306 H 0.50386 0.37122 0.7585 0.0
H307 H 0.59468 0.5083 0.75828 0.0
H308 H 0.59994 0.46076 0.74316 0.0
H309 H 0.50642 0.40253 0.72517 0.0
H310 H 0.62442 0.53114 0.74735 0.0
H311 H 0.62913 0.48353 0.73178 0.0
C312 C 0.56098 0.09259 0.81065 0.0
C313 C 0.54171 0.07916 0.81429 0.0
C314 C 0.5648 0.09991 0.7985 0.0
C315 C 0.54947 0.09389 0.78965 0.0
C316 C 0.53024 0.08026 0.7933 0.0
C317 C 0.52641 0.07306 0.80545 0.0
C318 C 0.55339 0.10185 0.77672 0.0
C319 C 0.57055 0.10547 0.77037 0.0
C320 C 0.57423 0.11283 0.75816 0.0
C321 C 0.56029 0.11638 0.75225 0.0
C322 C 0.54298 0.11281 0.75839 0.0
C323 C 0.53982 0.10573 0.77065 0.0
C324 C 0.52808 0.11632 0.75204 0.0
C325 C 0.53386 0.13264 0.7445 0.0
C326 C 0.50784 0.10335 0.75353 0.0
C327 C 0.49379 0.10665 0.74775 0.0
C328 C 0.49954 0.12299 0.74024 0.0
C329 C 0.59256 0.11665 0.75155 0.0
C330 C 0.61069 0.12486 0.75798 0.0
C331 C 0.59213 0.11213 0.73879 0.0
C332 C 0.60932 0.11567 0.73264 0.0
C333 C 0.62742 0.1238 0.73909 0.0
C334 C 0.62786 0.12837 0.75184 0.0
C335 C 0.51979 0.13593 0.73869 0.0
H336 H 0.57308 0.09773 0.81726 0.0
H337 H 0.57975 0.11057 0.79612 0.0
H338 H 0.51809 0.07493 0.78671 0.0
H339 H 0.51145 0.06248 0.80787 0.0
H340 H 0.58085 0.10206 0.77482 0.0
H341 H 0.52689 0.10361 0.77559 0.0
H342 H 0.5629 0.12192 0.74284 0.0
H343 H 0.54929 0.14304 0.74322 0.0
H344 H 0.5028 0.0905 0.75913 0.0
H345 H 0.47838 0.09647 0.7493 0.0
H346 H 0.61168 0.12884 0.76775 0.0
H347 H 0.57841 0.10552 0.73357 0.0
H348 H 0.5248 0.14855 0.73287 0.0
H349 H 0.64157 0.13494 0.75707 0.0
H350 H 0.60834 0.11169 0.72287 0.0
C351 C 0.80216 0.57468 0.87333 0.0
C352 C 0.79663 0.58804 0.86934 0.0
C353 C 0.79809 0.56737 0.88545 0.0
C354 C 0.78854 0.57335 0.89399 0.0
C355 C 0.78286 0.58662 0.88994 0.0
C356 C 0.78679 0.5938 0.87776 0.0
C357 C 0.78481 0.566 0.90709 0.0
C358 C 0.79873 0.56294 0.91345 0.0
C359 C 0.79545 0.55586 0.92572 0.0
C360 C 0.77805 0.55224 0.93175 0.0
C361 C 0.76393 0.55534 0.92567 0.0
C362 C 0.76743 0.56207 0.9133 0.0
C363 C 0.74559 0.55163 0.93225 0.0
C364 C 0.73583 0.53589 0.94038 0.0
C365 C 0.73778 0.56395 0.93056 0.0
C366 C 0.72077 0.56067 0.93681 0.0
C367 C 0.7111 0.54502 0.94502 0.0
C368 C 0.81021 0.55222 0.93216 0.0
C369 C 0.82003 0.54429 0.92555 0.0
C370 C 0.81463 0.55658 0.94493 0.0
C371 C 0.82847 0.55311 0.95091 0.0
C372 C 0.83833 0.54524 0.94428 0.0
C373 C 0.83391 0.54091 0.93151 0.0
C374 C 0.71888 0.53267 0.94669 0.0
H375 H 0.80948 0.5697 0.86702 0.0
H376 H 0.80232 0.55687 0.88809 0.0
H377 H 0.77575 0.59182 0.89626 0.0
H378 H 0.78252 0.60423 0.87503 0.0
H379 H 0.81244 0.5665 0.90894 0.0
H380 H 0.75636 0.56384 0.90838 0.0
H381 H 0.7755 0.54697 0.94123 0.0
H382 H 0.74119 0.5259 0.94181 0.0
H383 H 0.74495 0.57635 0.9245 0.0
H384 H 0.71512 0.57035 0.9351 0.0
H385 H 0.81687 0.54051 0.91576 0.0
H386 H 0.80756 0.56289 0.95031 0.0
H387 H 0.71202 0.52058 0.95301 0.0
H388 H 0.84135 0.53509 0.92602 0.0
H389 H 0.83129 0.55645 0.96077 0.0
C390 C 0.38809 0.18033 0.87775 0.0
C391 C 0.39517 0.19488 0.86869 0.0
C392 C 0.39587 0.18443 0.88987 0.0
C393 C 0.4108 0.20319 0.8932 0.0
C394 C 0.41799 0.21769 0.88411 0.0
C395 C 0.41029 0.21357 0.87199 0.0
C396 C 0.4187 0.20774 0.90615 0.0
C397 C 0.42319 0.19512 0.91257 0.0
C398 C 0.43094 0.19954 0.92477 0.0
C399 C 0.43386 0.21661 0.9306 0.0
C400 C 0.42945 0.22936 0.92433 0.0
C401 C 0.42192 0.22485 0.9121 0.0
C402 C 0.43307 0.24755 0.9305 0.0
C403 C 0.42727 0.24748 0.94289 0.0
C404 C 0.44276 0.26516 0.92412 0.0
C405 C 0.44686 0.28243 0.93008 0.0
C406 C 0.44123 0.28244 0.94252 0.0
C407 C 0.43647 0.18663 0.93134 0.0
C408 C 0.42407 0.16644 0.93094 0.0
C409 C 0.45427 0.19448 0.93809 0.0
C410 C 0.45954 0.18243 0.94432 0.0
C411 C 0.44713 0.16224 0.94395 0.0
C412 C 0.42933 0.15437 0.93721 0.0
C413 C 0.43124 0.26473 0.94882 0.0
H414 H 0.37657 0.16575 0.87546 0.0
H415 H 0.38996 0.17299 0.8967 0.0
H416 H 0.42963 0.23224 0.88636 0.0
H417 H 0.41592 0.22514 0.86525 0.0
H418 H 0.42126 0.18217 0.90792 0.0
H419 H 0.41819 0.23452 0.90731 0.0
H420 H 0.43977 0.2201 0.94003 0.0
H421 H 0.41955 0.23406 0.94797 0.0
H422 H 0.44761 0.26566 0.91461 0.0
H423 H 0.45486 0.29583 0.925 0.0
H424 H 0.41021 0.15999 0.92589 0.0
H425 H 0.46425 0.20997 0.93845 0.0
H426 H 0.42638 0.26416 0.95833 0.0
H427 H 0.41955 0.13886 0.93665 0.0
H428 H 0.47327 0.18894 0.94952 0.0
C429 C 0.77865 0.19208 0.87301 0.0
C430 C 0.79756 0.19547 0.87002 0.0
C431 C 0.77433 0.19527 0.88517 0.0
C432 C 0.78887 0.20206 0.89458 0.0
C433 C 0.80763 0.20513 0.89165 0.0
C434 C 0.8119 0.2018 0.87956 0.0
C435 C 0.78476 0.20647 0.90734 0.0
C436 C 0.76745 0.19345 0.91357 0.0
C437 C 0.7638 0.19753 0.92575 0.0
C438 C 0.77763 0.21499 0.93159 0.0
C439 C 0.79494 0.22826 0.92547 0.0
C440 C 0.79835 0.22383 0.91336 0.0
C441 C 0.80943 0.24676 0.9317 0.0
C442 C 0.80307 0.25739 0.93889 0.0
C443 C 0.82976 0.254 0.93046 0.0
C444 C 0.84337 0.27149 0.93617 0.0
C445 C 0.83699 0.2821 0.94333 0.0
C446 C 0.74567 0.18357 0.93246 0.0
C447 C 0.72738 0.17393 0.92623 0.0
C448 C 0.74647 0.18 0.94522 0.0
C449 C 0.72942 0.16725 0.95162 0.0
C450 C 0.7111 0.1577 0.94543 0.0
C451 C 0.71031 0.16115 0.93264 0.0
C452 C 0.81669 0.27482 0.94466 0.0
H453 H 0.76729 0.1874 0.8659 0.0
H454 H 0.75978 0.19293 0.88714 0.0
H455 H 0.81904 0.21004 0.89876 0.0
H456 H 0.82647 0.20411 0.8777 0.0
H457 H 0.75711 0.17988 0.90905 0.0
H458 H 0.81142 0.23414 0.90844 0.0
H459 H 0.77491 0.21827 0.94095 0.0
H460 H 0.78754 0.25242 0.93988 0.0
H461 H 0.83519 0.24604 0.92517 0.0
H462 H 0.85892 0.27658 0.93512 0.0
H463 H 0.7262 0.17646 0.91643 0.0
H464 H 0.76034 0.18697 0.95028 0.0
H465 H 0.81131 0.2828 0.94998 0.0
H466 H 0.69651 0.15385 0.92752 0.0
H467 H 0.73056 0.16509 0.96149 0.0
C468 C 0.59978 0.8122 0.14403 0.0
C469 C 0.61431 0.8076 0.14726 0.0
C470 C 0.59173 0.8084 0.13198 0.0
C471 C 0.59813 0.80002 0.12289 0.0
C472 C 0.61295 0.79577 0.12609 0.0
C473 C 0.62089 0.79946 0.13815 0.0
C474 C 0.58909 0.7953 0.1102 0.0
C475 C 0.58424 0.80793 0.10411 0.0
C476 C 0.5754 0.80331 0.0922 0.0
C477 C 0.57135 0.78584 0.08641 0.0
C478 C 0.5761 0.7731 0.09235 0.0
C479 C 0.58499 0.77792 0.10421 0.0
C480 C 0.57149 0.7546 0.08621 0.0
C481 C 0.55285 0.74263 0.08082 0.0
C482 C 0.58569 0.74882 0.08567 0.0
C483 C 0.58139 0.73146 0.07974 0.0
C484 C 0.56272 0.71947 0.07438 0.0
C485 C 0.57017 0.81656 0.08581 0.0
C486 C 0.56072 0.82492 0.09232 0.0
C487 C 0.57413 0.82052 0.07306 0.0
C488 C 0.56856 0.83242 0.06691 0.0
C489 C 0.55884 0.84054 0.07337 0.0
C490 C 0.55506 0.83675 0.08615 0.0
C491 C 0.54848 0.72519 0.07502 0.0
H492 H 0.59429 0.8183 0.15091 0.0
H493 H 0.58016 0.8116 0.12989 0.0
H494 H 0.61849 0.78966 0.11926 0.0
H495 H 0.63231 0.79605 0.14032 0.0
H496 H 0.58772 0.82156 0.10851 0.0
H497 H 0.58815 0.7678 0.10892 0.0
H498 H 0.56438 0.7821 0.07727 0.0
H499 H 0.54159 0.74668 0.0812 0.0
H500 H 0.60021 0.75785 0.08969 0.0
H501 H 0.59258 0.72732 0.07945 0.0
H502 H 0.55736 0.82201 0.10213 0.0
H503 H 0.58156 0.81442 0.06784 0.0
H504 H 0.53402 0.71627 0.07088 0.0
H505 H 0.54779 0.84299 0.0914 0.0
H506 H 0.57155 0.83497 0.05704 0.0
C507 C 0.2187 0.81942 0.13947 0.0
C508 C 0.20963 0.80423 0.14803 0.0
C509 C 0.22282 0.8159 0.12735 0.0
C510 C 0.21811 0.79713 0.12354 0.0
C511 C 0.20949 0.78207 0.13224 0.0
C512 C 0.20523 0.78556 0.14431 0.0
C513 C 0.22169 0.79309 0.1105 0.0
C514 C 0.23875 0.8063 0.1041 0.0
C515 C 0.24213 0.80241 0.09181 0.0
C516 C 0.22824 0.78503 0.08594 0.0
C517 C 0.21111 0.77165 0.09215 0.0
C518 C 0.20793 0.77589 0.10438 0.0
C519 C 0.19653 0.75321 0.08592 0.0
C520 C 0.19134 0.75286 0.07331 0.0
C521 C 0.18766 0.73579 0.09258 0.0
C522 C 0.1739 0.71846 0.08678 0.0
C523 C 0.16868 0.71809 0.07417 0.0
C524 C 0.26016 0.81646 0.08508 0.0
C525 C 0.26685 0.83641 0.08573 0.0
C526 C 0.27067 0.81001 0.0778 0.0
C527 C 0.2874 0.82317 0.07128 0.0
C528 C 0.29405 0.84312 0.07188 0.0
C529 C 0.28357 0.84957 0.0792 0.0
C530 C 0.17758 0.7355 0.0675 0.0
H531 H 0.22211 0.83394 0.14204 0.0
H532 H 0.22925 0.82781 0.12087 0.0
H533 H 0.20606 0.76752 0.12976 0.0
H534 H 0.19856 0.77363 0.15076 0.0
H535 H 0.24967 0.81941 0.1088 0.0
H536 H 0.19442 0.76591 0.10904 0.0
H537 H 0.23078 0.78189 0.0765 0.0
H538 H 0.19775 0.76604 0.06794 0.0
H539 H 0.19147 0.73551 0.10227 0.0
H540 H 0.16718 0.70536 0.09224 0.0
H541 H 0.25893 0.84182 0.09111 0.0
H542 H 0.26609 0.79477 0.07725 0.0
H543 H 0.17405 0.73571 0.05774 0.0
H544 H 0.2881 0.8648 0.07973 0.0
H545 H 0.2953 0.81772 0.06592 0.0
C546 C 0.22648 0.4283 0.14415 0.0
C547 C 0.20734 0.41413 0.14755 0.0
C548 C 0.23044 0.4356 0.132 0.0
C549 C 0.21537 0.42887 0.12291 0.0
C550 C 0.19627 0.4146 0.12632 0.0
C551 C 0.19231 0.40736 0.13846 0.0
C552 C 0.21946 0.43659 0.10993 0.0
C553 C 0.23691 0.44045 0.10386 0.0
C554 C 0.24055 0.44716 0.09151 0.0
C555 C 0.22645 0.45001 0.0852 0.0
C556 C 0.20898 0.44647 0.09111 0.0
C557 C 0.20573 0.43985 0.10349 0.0
C558 C 0.19407 0.4496 0.08438 0.0
C559 C 0.19991 0.46536 0.07632 0.0
C560 C 0.17382 0.43686 0.08602 0.0
C561 C 0.15982 0.43988 0.07989 0.0
C562 C 0.16563 0.45565 0.07184 0.0
C563 C 0.259 0.451 0.08514 0.0
C564 C 0.27728 0.4611 0.09136 0.0
C565 C 0.25848 0.44458 0.07281 0.0
C566 C 0.2758 0.44806 0.06687 0.0
C567 C 0.29409 0.45822 0.07307 0.0
C568 C 0.29462 0.46476 0.08537 0.0
C569 C 0.18589 0.46832 0.07012 0.0
H570 H 0.23837 0.43401 0.15094 0.0
H571 H 0.24526 0.44675 0.12978 0.0
H572 H 0.18436 0.40876 0.11953 0.0
H573 H 0.17747 0.39621 0.14066 0.0
H574 H 0.24743 0.43765 0.10861 0.0
H575 H 0.19261 0.4376 0.10825 0.0
H576 H 0.22911 0.455 0.07566 0.0
H577 H 0.21534 0.47561 0.0749 0.0
H578 H 0.16871 0.42441 0.09201 0.0
H579 H 0.14441 0.42993 0.08162 0.0
H580 H 0.2782 0.46637 0.10082 0.0
H581 H 0.24464 0.43661 0.0678 0.0
H582 H 0.19098 0.4805 0.0639 0.0
H583 H 0.30843 0.47247 0.09045 0.0
H584 H 0.27488 0.44295 0.05737 0.0
C585 C 0.46908 0.90747 0.20573 0.0
C586 C 0.46354 0.92089 0.20188 0.0
C587 C 0.46503 0.89998 0.21781 0.0
C588 C 0.45548 0.90584 0.22644 0.0
C589 C 0.4498 0.91916 0.22253 0.0
C590 C 0.4537 0.92652 0.21039 0.0
C591 C 0.4518 0.89831 0.23949 0.0
C592 C 0.46578 0.89524 0.24576 0.0
C593 C 0.46257 0.88808 0.258 0.0
C594 C 0.44517 0.88434 0.26409 0.0
C595 C 0.43099 0.88745 0.25809 0.0
C596 C 0.43443 0.89428 0.24574 0.0
C597 C 0.41268 0.88368 0.26473 0.0
C598 C 0.40299 0.86791 0.27285 0.0
C599 C 0.40481 0.89596 0.26309 0.0
C600 C 0.38779 0.89259 0.26937 0.0
C601 C 0.37818 0.87692 0.27756 0.0
C602 C 0.47745 0.88454 0.26437 0.0
C603 C 0.48735 0.87675 0.2577 0.0
C604 C 0.48196 0.88894 0.27712 0.0
C605 C 0.49602 0.88572 0.28302 0.0
C606 C 0.50601 0.87804 0.27632 0.0
C607 C 0.50145 0.8736 0.26358 0.0
C608 C 0.38603 0.86461 0.27919 0.0
H609 H 0.4764 0.90259 0.19934 0.0
H610 H 0.46927 0.88946 0.22034 0.0
H611 H 0.4427 0.92426 0.22892 0.0
H612 H 0.44943 0.93699 0.20777 0.0
H613 H 0.47948 0.89891 0.24122 0.0
H614 H 0.42332 0.89605 0.24088 0.0
H615 H 0.44269 0.87902 0.27356 0.0
H616 H 0.4084 0.85796 0.27425 0.0
H617 H 0.41192 0.90838 0.25705 0.0
H618 H 0.38209 0.90224 0.26768 0.0
H619 H 0.48412 0.87294 0.24792 0.0
H620 H 0.47483 0.89514 0.28255 0.0
H621 H 0.37922 0.85251 0.2855 0.0
H622 H 0.50896 0.8679 0.25805 0.0
H623 H 0.49892 0.88911 0.29287 0.0
C624 C 0.05152 0.51223 0.21096 0.0
C625 C 0.05678 0.52709 0.20225 0.0
C626 C 0.05971 0.51641 0.22298 0.0
C627 C 0.07335 0.53555 0.22656 0.0
C628 C 0.07866 0.55038 0.21783 0.0
C629 C 0.07046 0.54621 0.20583 0.0
C630 C 0.08207 0.5401 0.23933 0.0
C631 C 0.08802 0.52807 0.24508 0.0
C632 C 0.09674 0.5326 0.25702 0.0
C633 C 0.09948 0.54936 0.2632 0.0
C634 C 0.09354 0.56152 0.25765 0.0
C635 C 0.08475 0.5567 0.24573 0.0
C636 C 0.09687 0.57941 0.26421 0.0
C637 C 0.09417 0.57951 0.27717 0.0
C638 C 0.10325 0.59667 0.25759 0.0
C639 C 0.10704 0.61366 0.26381 0.0
C640 C 0.10467 0.6138 0.27679 0.0
C641 C 0.10311 0.51993 0.26305 0.0
C642 C 0.09094 0.49971 0.2627 0.0
C643 C 0.12125 0.528 0.26941 0.0
C644 C 0.12701 0.51613 0.27541 0.0
C645 C 0.11474 0.49592 0.2752 0.0
C646 C 0.09667 0.48783 0.26873 0.0
C647 C 0.09812 0.59654 0.2834 0.0
H648 H 0.04117 0.49732 0.20847 0.0
H649 H 0.05518 0.50467 0.22951 0.0
H650 H 0.08931 0.56524 0.22022 0.0
H651 H 0.07467 0.55804 0.19942 0.0
H652 H 0.08642 0.51547 0.24012 0.0
H653 H 0.07967 0.56573 0.24151 0.0
H654 H 0.10634 0.55298 0.27237 0.0
H655 H 0.08893 0.56641 0.28252 0.0
H656 H 0.10578 0.5972 0.24764 0.0
H657 H 0.1123 0.62681 0.2585 0.0
H658 H 0.07681 0.49307 0.25795 0.0
H659 H 0.13106 0.54352 0.26972 0.0
H660 H 0.09592 0.59619 0.29339 0.0
H661 H 0.087 0.47229 0.26827 0.0
H662 H 0.14094 0.52282 0.2804 0.0
C663 C 0.44424 0.52407 0.20633 0.0
C664 C 0.46349 0.52912 0.20291 0.0
C665 C 0.44021 0.52761 0.21849 0.0
C666 C 0.45535 0.53626 0.22749 0.0
C667 C 0.47451 0.54095 0.2241 0.0
C668 C 0.47853 0.53745 0.21198 0.0
C669 C 0.45138 0.54079 0.2403 0.0
C670 C 0.43435 0.52763 0.24674 0.0
C671 C 0.43078 0.53185 0.25891 0.0
C672 C 0.44452 0.54949 0.2646 0.0
C673 C 0.4616 0.56285 0.25832 0.0
C674 C 0.46481 0.55839 0.24616 0.0
C675 C 0.47615 0.58145 0.26445 0.0
C676 C 0.46989 0.59201 0.27181 0.0
C677 C 0.49646 0.58882 0.26296 0.0
C678 C 0.51015 0.60633 0.26861 0.0
C679 C 0.50388 0.61687 0.27595 0.0
C680 C 0.41276 0.51786 0.26573 0.0
C681 C 0.39446 0.50788 0.25955 0.0
C682 C 0.41368 0.51459 0.27853 0.0
C683 C 0.39671 0.50184 0.28502 0.0
C684 C 0.37837 0.49197 0.27886 0.0
C685 C 0.37748 0.4951 0.26603 0.0
C686 C 0.4836 0.60948 0.27752 0.0
H687 H 0.43235 0.51779 0.19954 0.0
H688 H 0.42533 0.524 0.22074 0.0
H689 H 0.48645 0.54726 0.23086 0.0
H690 H 0.49344 0.54114 0.20974 0.0
H691 H 0.42414 0.51386 0.2424 0.0
H692 H 0.47763 0.56886 0.24111 0.0
H693 H 0.44191 0.55284 0.27396 0.0
H694 H 0.45437 0.58694 0.273 0.0
H695 H 0.50183 0.58092 0.25755 0.0
H696 H 0.52568 0.6115 0.26737 0.0
H697 H 0.39317 0.51017 0.24972 0.0
H698 H 0.42756 0.52182 0.28356 0.0
H699 H 0.4783 0.61738 0.28299 0.0
H700 H 0.36367 0.48755 0.26094 0.0
H701 H 0.39794 0.49993 0.29491 0.0
Eu702 Eu 0.49186 0.98654 0.99314 0.0
C703 C 0.53997 0.05991 0.02768 0.0
C704 C 0.57387 0.06777 0.02563 0.0
C705 C 0.56632 0.09332 0.02989 0.0
C706 C 0.55357 0.05411 0.02545 0.0
C707 C 0.54618 0.07951 0.0302 0.0
C708 C 0.58015 0.08746 0.02759 0.0
C709 C 0.51226 0.07013 0.03408 0.0
N710 N 0.52068 0.0462 0.02798 0.0
C711 C 0.50686 0.05087 0.03155 0.0
C712 C 0.532 0.08456 0.03326 0.0
Eu713 Eu 0.51238 0.01404 0.02297 0.0
N714 N 0.54698 0.03497 0.02367 0.0
C715 C 0.55999 0.02836 0.02297 0.0
C716 C 0.58724 0.06118 0.02416 0.0
C717 C 0.58026 0.04135 0.02301 0.0
H718 H 0.49157 0.03976 0.03209 0.0
H719 H 0.59048 0.03606 0.0221 0.0
H720 H 0.59567 0.09819 0.02764 0.0
H721 H 0.50122 0.07383 0.03663 0.0
H722 H 0.55486 0.01312 0.022 0.0
H723 H 0.41361 0.9638 0.9939 0.0
H724 H 0.60295 0.07121 0.02418 0.0
H725 H 0.51317 0.96112 0.98422 0.0
H726 H 0.4492 0.98702 0.99403 0.0
H727 H 0.50386 0.9271 0.97985 0.0
H728 H 0.57139 0.10848 0.03168 0.0
H729 H 0.40149 0.9287 0.99187 0.0
H730 H 0.40914 0.90194 0.98854 0.0
H731 H 0.53616 0.09947 0.03525 0.0
H732 H 0.43368 0.89194 0.98468 0.0
N733 N 0.45735 0.96535 0.99243 0.0
C734 C 0.44419 0.97178 0.99309 0.0
C735 C 0.41717 0.93885 0.99191 0.0
C736 C 0.4307 0.93243 0.99051 0.0
C737 C 0.42395 0.95864 0.99303 0.0
C738 C 0.45096 0.94624 0.99071 0.0
H739 H 0.46901 0.90124 0.98124 0.0
N740 N 0.48397 0.95444 0.9883 0.0
C741 C 0.49271 0.93069 0.98235 0.0
C742 C 0.46471 0.9406 0.98859 0.0
C743 C 0.49792 0.94992 0.98479 0.0
C744 C 0.47303 0.91613 0.98317 0.0
C745 C 0.4587 0.92102 0.98614 0.0
O746 O 0.50568 0.99158 0.97484 0.0
O747 O 0.51718 0.01135 1.00277 0.0
O748 O 0.50808 0.03343 0.00959 0.0
O749 O 0.48411 0.01031 0.99622 0.0
O750 O 0.52406 0.99613 0.99007 0.0
O751 O 0.48068 0.99563 0.9774 0.0
O752 O 0.49964 0.01035 0.04157 0.0
O753 O 0.48704 0.98948 0.01328 0.0
O754 O 0.49587 0.96707 0.00658 0.0
O755 O 0.52009 0.99026 0.01978 0.0
O756 O 0.48014 0.00436 0.02618 0.0
O757 O 0.52235 0.00308 0.03829 0.0
C758 C 0.53127 0.0108 0.99761 0.0
C759 C 0.48532 0.9862 0.95729 0.0
C760 C 0.48483 0.98818 0.93449 0.0
C761 C 0.49193 0.99706 0.94629 0.0
C762 C 0.47106 0.96821 0.934 0.0
C763 C 0.4715 0.9664 0.95653 0.0
C764 C 0.46444 0.95748 0.94494 0.0
C765 C 0.49422 0.02814 1.0009 0.0
C766 C 0.49323 0.99558 0.96948 0.0
C767 C 0.43859 0.90709 0.98642 0.0
C768 C 0.42462 0.91278 0.98862 0.0
C769 C 0.47291 0.98987 0.01851 0.0
C770 C 0.52014 0.01332 0.05865 0.0
C771 C 0.51282 0.00262 0.06966 0.0
C772 C 0.52184 0.01055 0.0813 0.0
C773 C 0.53815 0.02944 0.08171 0.0
C774 C 0.53635 0.03213 0.0593 0.0
C775 C 0.54527 0.04013 0.07079 0.0
C776 C 0.50979 0.97237 0.01522 0.0
C777 C 0.51099 0.00458 0.04653 0.0
H778 H 0.50245 0.01241 0.94695 0.0
H779 H 0.46556 0.96074 0.92515 0.0
H780 H 0.46627 0.95783 0.96489 0.0
H781 H 0.45387 0.94214 0.94441 0.0
H782 H 0.50037 0.98801 0.06913 0.0
H783 H 0.54527 0.03604 0.09051 0.0
H784 H 0.54215 0.04058 0.05094 0.0
H785 H 0.55778 0.05467 0.07124 0.0
Eu786 Eu 0.0185 0.50485 0.99525 0.0
C787 C 0.93788 0.4768 0.02216 0.0
C788 C 0.92993 0.50214 0.01905 0.0
C789 C 0.90368 0.46883 0.02132 0.0
C790 C 0.94392 0.49606 0.02017 0.0
C791 C 0.9177 0.463 0.023 0.0
C792 C 0.90978 0.48838 0.01935 0.0
C793 C 0.9268 0.43907 0.02817 0.0
N794 N 0.9518 0.4717 0.0239 0.0
C795 C 0.94663 0.45331 0.02734 0.0
C796 C 0.91225 0.44388 0.02585 0.0
Eu797 Eu 0.98504 0.49636 0.02189 0.0
N798 N 0.9635 0.50899 0.01998 0.0
C799 C 0.97009 0.52838 0.01952 0.0
C800 C 0.93662 0.52194 0.018 0.0
C801 C 0.95679 0.53512 0.01836 0.0
H802 H 0.95785 0.44953 0.02908 0.0
H803 H 0.96211 0.55049 0.01773 0.0
H804 H 0.89882 0.49276 0.01836 0.0
H805 H 0.92276 0.4244 0.0306 0.0
H806 H 0.98561 0.53876 0.01976 0.0
H807 H 0.04242 0.45149 0.99954 0.0
H808 H 0.92636 0.52722 0.01718 0.0
H809 H 0.04529 0.55164 0.98776 0.0
H810 H 0.01859 0.46277 0.99712 0.0
H811 H 0.08028 0.5771 0.98643 0.0
H812 H 0.88809 0.45842 0.02182 0.0
H813 H 0.07805 0.47517 1.00076 0.0
H814 H 0.10527 0.50981 0.99975 0.0
H815 H 0.8969 0.43284 0.02656 0.0
H816 H 0.1156 0.54402 0.99614 0.0
N817 N 0.04038 0.49264 0.99724 0.0
C818 C 0.03406 0.47329 0.99758 0.0
C819 C 0.06764 0.48023 0.99969 0.0
C820 C 0.07408 0.49998 0.99864 0.0
C821 C 0.04755 0.46682 0.99897 0.0
C822 C 0.05991 0.50579 0.99728 0.0
H823 H 0.1064 0.5692 0.99095 0.0
N824 N 0.05164 0.52979 0.99327 0.0
C825 C 0.07639 0.56251 0.98896 0.0
C826 C 0.06572 0.52498 0.99524 0.0
C827 C 0.05662 0.54808 0.98969 0.0
C828 C 0.09109 0.55801 0.99156 0.0
C829 C 0.08586 0.53898 0.99455 0.0
O830 O 0.01774 0.51405 0.97623 0.0
O831 O 0.99144 0.50427 1.00194 0.0
O832 O 0.96824 0.47337 0.00721 0.0
O833 O 0.99411 0.47311 0.99671 0.0
O834 O 0.0087 0.52641 0.99004 0.0
O835 O 0.01261 0.48512 0.9795 0.0
O836 O 0.98525 0.48684 0.04091 0.0
O837 O 0.01197 0.4968 0.01516 0.0
O838 O 0.03537 0.52781 0.00993 0.0
O839 O 0.00952 0.52804 0.02045 0.0
O840 O 0.99474 0.4747 0.02709 0.0
O841 O 0.99162 0.5162 0.03764 0.0
C842 C 0.99256 0.51853 0.99624 0.0
C843 C 0.02715 0.4998 0.96043 0.0
C844 C 0.03068 0.49941 0.93784 0.0
C845 C 0.01916 0.49726 0.94838 0.0
C846 C 0.05038 0.50417 0.93957 0.0
C847 C 0.04679 0.50447 0.96199 0.0
C848 C 0.05833 0.50664 0.95159 0.0
C849 C 0.97522 0.46509 0.99964 0.0
C850 C 0.01486 0.49791 0.97119 0.0
C851 C 0.10005 0.53344 0.99651 0.0
C852 C 0.09417 0.51397 0.99856 0.0
C853 C 0.01083 0.48252 0.02083 0.0
C854 C 0.97661 0.50184 0.05669 0.0
C855 C 0.98412 0.50314 0.06876 0.0
C856 C 0.97286 0.50185 0.07928 0.0
C857 C 0.95385 0.49909 0.07748 0.0
C858 C 0.95766 0.49911 0.05506 0.0
C859 C 0.94634 0.49773 0.06543 0.0
C860 C 0.02842 0.53605 0.01754 0.0
C861 C 0.98876 0.5032 0.04595 0.0
H862 H 0.00405 0.49392 0.94723 0.0
H863 H 0.05956 0.50574 0.93164 0.0
H864 H 0.05318 0.50647 0.97121 0.0
H865 H 0.07348 0.51024 0.95284 0.0
H866 H 0.99867 0.50495 0.06994 0.0
H867 H 0.94489 0.49827 0.08536 0.0
H868 H 0.95164 0.49808 0.04582 0.0
H869 H 0.93174 0.49568 0.06413 0.0
Eu870 Eu 0.5118 0.49587 0.02233 0.0
C871 C 0.4643 0.52488 0.99023 0.0
C872 C 0.43042 0.49955 0.99243 0.0
C873 C 0.43804 0.53252 0.98848 0.0
C874 C 0.45071 0.5058 0.99254 0.0
C875 C 0.45811 0.53836 0.98779 0.0
C876 C 0.4242 0.51312 0.99077 0.0
C877 C 0.49163 0.56156 0.98243 0.0
N878 N 0.48345 0.52985 0.98926 0.0
C879 C 0.49697 0.54758 0.98484 0.0
C880 C 0.47216 0.55704 0.98413 0.0
Eu881 Eu 0.49187 0.50588 0.99362 0.0
N882 N 0.45724 0.49305 0.99382 0.0
C883 C 0.44412 0.47362 0.99414 0.0
C884 C 0.41698 0.47976 0.99342 0.0
C885 C 0.42387 0.46672 0.99414 0.0
H886 H 0.51204 0.55112 0.98354 0.0
H887 H 0.41359 0.45134 0.99467 0.0
H888 H 0.4087 0.50864 0.99081 0.0
H889 H 0.50251 0.57578 0.97927 0.0
H890 H 0.44908 0.46328 0.99468 0.0
H891 H 0.59047 0.54885 0.02177 0.0
H892 H 0.40128 0.47434 0.99327 0.0
H893 H 0.4897 0.44897 0.0297 0.0
H894 H 0.55505 0.53786 0.02238 0.0
H895 H 0.49829 0.42328 0.03234 0.0
H896 H 0.43301 0.54271 0.98677 0.0
H897 H 0.60173 0.52492 0.02176 0.0
H898 H 0.59326 0.49018 0.02327 0.0
H899 H 0.46801 0.56782 0.98216 0.0
H900 H 0.56819 0.456 0.02625 0.0
N901 N 0.54618 0.50791 0.0224 0.0
C902 C 0.5597 0.52723 0.02245 0.0
C903 C 0.58613 0.51999 0.02205 0.0
C904 C 0.57225 0.50027 0.02279 0.0
C905 C 0.57983 0.53354 0.02209 0.0
C906 C 0.55212 0.49462 0.02307 0.0
H907 H 0.53278 0.43097 0.02986 0.0
N908 N 0.51895 0.47071 0.02553 0.0
C909 C 0.5096 0.43786 0.03014 0.0
C910 C 0.53806 0.47542 0.02469 0.0
C911 C 0.5048 0.45242 0.02868 0.0
C912 C 0.52909 0.44226 0.0287 0.0
C913 C 0.54366 0.46128 0.02613 0.0
O914 O 0.49848 0.48573 0.0406 0.0
O915 O 0.48703 0.49796 0.01371 0.0
O916 O 0.49916 0.53075 0.00699 0.0
O917 O 0.52018 0.52764 0.02127 0.0
O918 O 0.47931 0.47455 0.02512 0.0
O919 O 0.52393 0.51436 0.03887 0.0
O920 O 0.50518 0.51509 0.97524 0.0
O921 O 0.51687 0.50458 1.00243 0.0
O922 O 0.50721 0.4732 0.00795 0.0
O923 O 0.48333 0.47406 0.99543 0.0
O924 O 0.52427 0.52746 0.99065 0.0
O925 O 0.48039 0.48629 0.97751 0.0
C926 C 0.4726 0.48345 0.01851 0.0
C927 C 0.51961 0.49845 0.05808 0.0
C928 C 0.51996 0.4979 0.08088 0.0
C929 C 0.51258 0.50084 0.0696 0.0
C930 C 0.53452 0.49253 0.08039 0.0
C931 C 0.53412 0.49313 0.0578 0.0
C932 C 0.54152 0.49018 0.06892 0.0
C933 C 0.51211 0.53729 0.01634 0.0
C934 C 0.51146 0.50135 0.04646 0.0
C935 C 0.56361 0.46668 0.0253 0.0
C936 C 0.57788 0.48614 0.02361 0.0
C937 C 0.53121 0.51913 0.99761 0.0
C938 C 0.48392 0.5011 0.95798 0.0
C939 C 0.49135 0.49907 0.94653 0.0
C940 C 0.48358 0.50127 0.93519 0.0
C941 C 0.46825 0.50558 0.93554 0.0
C942 C 0.4686 0.50533 0.95812 0.0
C943 C 0.46084 0.50757 0.94694 0.0
C944 C 0.49307 0.46549 0.99942 0.0
C945 C 0.4925 0.49906 0.96967 0.0
H946 H 0.50119 0.50474 0.06976 0.0
H947 H 0.54072 0.49042 0.08887 0.0
H948 H 0.53973 0.49127 0.04901 0.0
H949 H 0.55277 0.48613 0.06865 0.0
H950 H 0.50334 0.49601 0.94648 0.0
H951 H 0.46178 0.50713 0.92699 0.0
H952 H 0.46265 0.50687 0.96685 0.0
H953 H 0.44899 0.5108 0.9471 0.0
Eu954 Eu 0.15961 0.32101 0.32656 0.0
C955 C 0.2055 0.39463 0.36106 0.0
C956 C 0.23962 0.40303 0.35954 0.0
C957 C 0.2314 0.42822 0.36333 0.0
C958 C 0.2194 0.38912 0.35916 0.0
C959 C 0.21132 0.41418 0.36344 0.0
C960 C 0.24553 0.42265 0.36136 0.0
C961 C 0.17716 0.40428 0.36683 0.0
N962 N 0.18627 0.38069 0.36118 0.0
C963 C 0.17213 0.38509 0.36444 0.0
C964 C 0.19682 0.41894 0.36618 0.0
Eu965 Eu 0.1787 0.34866 0.35643 0.0
N966 N 0.21317 0.37003 0.35753 0.0
C967 C 0.22644 0.36371 0.35717 0.0
C968 C 0.25329 0.39673 0.35841 0.0
C969 C 0.24666 0.37696 0.35741 0.0
H970 H 0.1569 0.37381 0.36486 0.0
H971 H 0.2571 0.37189 0.35677 0.0
H972 H 0.26099 0.43357 0.36156 0.0
H973 H 0.16587 0.40777 0.36914 0.0
H974 H 0.22156 0.3485 0.35631 0.0
H975 H 0.08185 0.30011 0.32465 0.0
H976 H 0.26895 0.40696 0.3586 0.0
H977 H 0.18041 0.29467 0.31888 0.0
H978 H 0.11748 0.32258 0.32612 0.0
H979 H 0.17057 0.26041 0.31489 0.0
H980 H 0.23617 0.44334 0.36502 0.0
H981 H 0.06905 0.26493 0.32251 0.0
H982 H 0.07598 0.23751 0.32046 0.0
H983 H 0.20069 0.43379 0.36806 0.0
H984 H 0.10012 0.22666 0.31789 0.0
N985 N 0.12503 0.30042 0.32524 0.0
C986 C 0.11222 0.3073 0.32524 0.0
C987 C 0.08477 0.27473 0.32327 0.0
C988 C 0.09798 0.26781 0.32276 0.0
C989 C 0.09194 0.29458 0.32442 0.0
C990 C 0.11831 0.28122 0.32364 0.0
H991 H 0.13542 0.23512 0.31561 0.0
N992 N 0.15121 0.28865 0.32217 0.0
C993 C 0.15953 0.26434 0.31695 0.0
C994 C 0.13183 0.27513 0.32211 0.0
C995 C 0.16505 0.2837 0.31918 0.0
C996 C 0.13968 0.2501 0.31741 0.0
C997 C 0.1255 0.25545 0.31979 0.0
O998 O 0.17367 0.32469 0.30843 0.0
O999 O 0.18454 0.34588 0.33641 0.0
O1000 O 0.17521 0.36813 0.34273 0.0
O1001 O 0.15206 0.34506 0.32895 0.0
O1002 O 0.19191 0.33047 0.32419 0.0
O1003 O 0.15006 0.33099 0.31047 0.0
O1004 O 0.16462 0.34407 0.37464 0.0
O1005 O 0.15383 0.32387 0.34651 0.0
O1006 O 0.16309 0.30171 0.34045 0.0
O1007 O 0.18676 0.32503 0.35383 0.0
O1008 O 0.14627 0.33892 0.35883 0.0
O1009 O 0.18908 0.33911 0.37234 0.0
C1010 C 0.19885 0.34526 0.33162 0.0
C1011 C 0.15408 0.3204 0.29062 0.0
C1012 C 0.15387 0.32215 0.26781 0.0
C1013 C 0.16129 0.33101 0.27956 0.0
C1014 C 0.13904 0.30253 0.26739 0.0
C1015 C 0.13933 0.3009 0.28993 0.0
C1016 C 0.13185 0.29204 0.27837 0.0
C1017 C 0.1619 0.36288 0.33369 0.0
C1018 C 0.16222 0.32974 0.30278 0.0
C1019 C 0.10528 0.24188 0.31955 0.0
C1020 C 0.09154 0.24805 0.32101 0.0
C1021 C 0.13943 0.32434 0.35124 0.0
C1022 C 0.18468 0.34904 0.39232 0.0
C1023 C 0.17749 0.33846 0.4034 0.0
C1024 C 0.18485 0.34739 0.41514 0.0
C1025 C 0.19962 0.36703 0.41554 0.0
C1026 C 0.19936 0.36858 0.39299 0.0
C1027 C 0.20678 0.37749 0.40455 0.0
C1028 C 0.17679 0.30714 0.34924 0.0
C1029 C 0.17666 0.33965 0.38014 0.0
H1030 H 0.17284 0.34605 0.28011 0.0
H1031 H 0.13278 0.29533 0.25856 0.0
H1032 H 0.1336 0.29253 0.29833 0.0
H1033 H 0.12041 0.27699 0.27791 0.0
H1034 H 0.166 0.3234 0.40286 0.0
H1035 H 0.20586 0.37429 0.42436 0.0
H1036 H 0.20508 0.37692 0.38459 0.0
H1037 H 0.21816 0.39256 0.40499 0.0
Eu1038 Eu 0.68552 0.83963 0.32881 0.0
C1039 C 0.60604 0.80783 0.35787 0.0
C1040 C 0.59713 0.8328 0.35732 0.0
C1041 C 0.57165 0.79909 0.35915 0.0
C1042 C 0.61147 0.82712 0.35675 0.0
C1043 C 0.58608 0.79361 0.35926 0.0
C1044 C 0.57717 0.81867 0.35826 0.0
C1045 C 0.59632 0.76992 0.3621 0.0
N1046 N 0.62038 0.8031 0.35838 0.0
C1047 C 0.61591 0.78458 0.36091 0.0
C1048 C 0.58131 0.77441 0.36115 0.0
Eu1049 Eu 0.65319 0.82864 0.35622 0.0
N1050 N 0.63089 0.84044 0.35596 0.0
C1051 C 0.63702 0.85976 0.35618 0.0
C1052 C 0.60333 0.85256 0.3574 0.0
C1053 C 0.62335 0.8661 0.35678 0.0
H1054 H 0.62748 0.78105 0.36169 0.0
H1055 H 0.62829 0.88142 0.3569 0.0
H1056 H 0.56594 0.82277 0.35857 0.0
H1057 H 0.59282 0.75518 0.36381 0.0
H1058 H 0.65245 0.8704 0.35586 0.0
H1059 H 0.71181 0.7879 0.32941 0.0
H1060 H 0.59281 0.85751 0.35821 0.0
H1061 H 0.71076 0.8871 0.32272 0.0
H1062 H 0.6871 0.7983 0.32894 0.0
H1063 H 0.74532 0.91337 0.32107 0.0
H1064 H 0.55623 0.78837 0.36013 0.0
H1065 H 0.74729 0.81234 0.32976 0.0
H1066 H 0.77368 0.8473 0.32922 0.0
H1067 H 0.56615 0.76306 0.36221 0.0
H1068 H 0.78282 0.88147 0.32701 0.0
N1069 N 0.70826 0.82836 0.32935 0.0
C1070 C 0.7025 0.80913 0.3291 0.0
C1071 C 0.73648 0.81699 0.32962 0.0
C1072 C 0.7423 0.83666 0.32931 0.0
C1073 C 0.71648 0.80316 0.32938 0.0
C1074 C 0.72764 0.84195 0.32905 0.0
H1075 H 0.77235 0.90621 0.32379 0.0
N1076 N 0.71822 0.86548 0.3267 0.0
C1077 C 0.74201 0.89875 0.32299 0.0
C1078 C 0.73279 0.86113 0.32774 0.0
C1079 C 0.72246 0.88385 0.3239 0.0
C1080 C 0.75722 0.89466 0.32457 0.0
C1081 C 0.75271 0.87561 0.32676 0.0
O1082 O 0.68383 0.84974 0.31022 0.0
O1083 O 0.65837 0.83797 0.33645 0.0
O1084 O 0.63599 0.80676 0.34104 0.0
O1085 O 0.66169 0.80759 0.32971 0.0
O1086 O 0.67504 0.86112 0.32513 0.0
O1087 O 0.67951 0.82091 0.31247 0.0
O1088 O 0.65453 0.81812 0.37474 0.0
O1089 O 0.6802 0.83019 0.34855 0.0
O1090 O 0.70277 0.86158 0.34392 0.0
O1091 O 0.67712 0.86065 0.35537 0.0
O1092 O 0.66355 0.80705 0.35989 0.0
O1093 O 0.65987 0.84735 0.37263 0.0
C1094 C 0.65909 0.85258 0.3315 0.0
C1095 C 0.69345 0.83692 0.29363 0.0
C1096 C 0.69648 0.8371 0.27096 0.0
C1097 C 0.68502 0.83406 0.28169 0.0
C1098 C 0.71655 0.84301 0.27244 0.0
C1099 C 0.71343 0.84273 0.2949 0.0
C1100 C 0.7249 0.84575 0.28434 0.0
C1101 C 0.64287 0.79913 0.33289 0.0
C1102 C 0.68123 0.83406 0.30462 0.0
C1103 C 0.76742 0.87053 0.32763 0.0
C1104 C 0.76222 0.85108 0.32889 0.0
C1105 C 0.67949 0.81559 0.35351 0.0
C1106 C 0.64592 0.83151 0.39153 0.0
C1107 C 0.65439 0.83357 0.40339 0.0
C1108 C 0.64327 0.83093 0.41422 0.0
C1109 C 0.6235 0.82619 0.41297 0.0
C1110 C 0.62622 0.82685 0.39047 0.0
C1111 C 0.61508 0.8242 0.40116 0.0
C1112 C 0.69591 0.86916 0.35212 0.0
C1113 C 0.65778 0.83397 0.38042 0.0
H1114 H 0.66949 0.82929 0.28079 0.0
H1115 H 0.72586 0.84577 0.2644 0.0
H1116 H 0.72016 0.84497 0.30401 0.0
H1117 H 0.74035 0.85034 0.28538 0.0
H1118 H 0.66956 0.83695 0.40417 0.0
H1119 H 0.61463 0.82428 0.42113 0.0
H1120 H 0.61946 0.82525 0.38144 0.0
H1121 H 0.59989 0.82063 0.40028 0.0
Eu1122 Eu 0.18055 0.82942 0.35574 0.0
C1123 C 0.13322 0.85912 0.32433 0.0
C1124 C 0.09889 0.83472 0.32628 0.0
C1125 C 0.10802 0.86828 0.32303 0.0
C1126 C 0.11896 0.8401 0.32626 0.0
C1127 C 0.12791 0.8734 0.32247 0.0
C1128 C 0.09353 0.84897 0.32491 0.0
C1129 C 0.16214 0.89639 0.31868 0.0
N1130 N 0.15225 0.86352 0.3237 0.0
C1131 C 0.16664 0.88169 0.32048 0.0
C1132 C 0.14271 0.89228 0.3198 0.0
Eu1133 Eu 0.15892 0.83813 0.32733 0.0
N1134 N 0.12464 0.82668 0.32749 0.0
C1135 C 0.11092 0.80745 0.32795 0.0
C1136 C 0.08481 0.81512 0.32733 0.0
C1137 C 0.09085 0.80141 0.32804 0.0
H1138 H 0.1817 0.88496 0.31966 0.0
H1139 H 0.08006 0.78617 0.32866 0.0
H1140 H 0.0782 0.84513 0.32502 0.0
H1141 H 0.17365 0.91086 0.31641 0.0
H1142 H 0.11534 0.79668 0.32852 0.0
H1143 H 0.25938 0.88118 0.35315 0.0
H1144 H 0.06925 0.8104 0.32733 0.0
H1145 H 0.15825 0.78313 0.36453 0.0
H1146 H 0.22417 0.87083 0.35437 0.0
H1147 H 0.16638 0.75727 0.36781 0.0
H1148 H 0.10365 0.87907 0.32172 0.0
H1149 H 0.27009 0.85683 0.35359 0.0
H1150 H 0.26112 0.82206 0.35605 0.0
H1151 H 0.13924 0.90367 0.31834 0.0
H1152 H 0.23581 0.78832 0.36016 0.0
N1153 N 0.21481 0.84081 0.35516 0.0
C1154 C 0.22857 0.86002 0.35463 0.0
C1155 C 0.25458 0.85218 0.35415 0.0
C1156 C 0.2405 0.83262 0.35549 0.0
C1157 C 0.24859 0.86597 0.35393 0.0
C1158 C 0.22048 0.82735 0.35609 0.0
H1159 H 0.2005 0.7641 0.36481 0.0
N1160 N 0.18738 0.80417 0.35952 0.0
C1161 C 0.17774 0.77158 0.36511 0.0
C1162 C 0.20631 0.80842 0.35837 0.0
C1163 C 0.1732 0.78625 0.36328 0.0
C1164 C 0.19701 0.77547 0.36337 0.0
C1165 C 0.21164 0.79416 0.36013 0.0
O1166 O 0.1686 0.82112 0.37451 0.0
O1167 O 0.15505 0.83047 0.34744 0.0
O1168 O 0.1645 0.86138 0.34154 0.0
O1169 O 0.18945 0.86125 0.35336 0.0
O1170 O 0.14829 0.80836 0.35976 0.0
O1171 O 0.19355 0.84966 0.37141 0.0
O1172 O 0.17067 0.8469 0.30856 0.0
O1173 O 0.18437 0.83701 0.33562 0.0
O1174 O 0.17435 0.80562 0.34179 0.0
O1175 O 0.14993 0.80629 0.32966 0.0
O1176 O 0.19116 0.85928 0.32343 0.0
O1177 O 0.1466 0.81782 0.31166 0.0
C1178 C 0.141 0.81637 0.35281 0.0
C1179 C 0.191 0.83576 0.3912 0.0
C1180 C 0.19237 0.83641 0.414 0.0
C1181 C 0.18389 0.83791 0.40276 0.0
C1182 C 0.20807 0.83265 0.41345 0.0
C1183 C 0.20662 0.83199 0.39085 0.0
C1184 C 0.21509 0.83045 0.40194 0.0
C1185 C 0.17932 0.86956 0.34961 0.0
C1186 C 0.18183 0.83736 0.37963 0.0
C1187 C 0.23144 0.79912 0.35897 0.0
C1188 C 0.24584 0.81833 0.35663 0.0
C1189 C 0.19843 0.85118 0.3303 0.0
C1190 C 0.14844 0.83138 0.29186 0.0
C1191 C 0.15582 0.82954 0.28033 0.0
C1192 C 0.14672 0.82996 0.26909 0.0
C1193 C 0.13019 0.8324 0.26957 0.0
C1194 C 0.13202 0.83391 0.29215 0.0
C1195 C 0.12296 0.83444 0.28104 0.0
C1196 C 0.15974 0.79773 0.33355 0.0
C1197 C 0.15795 0.83041 0.30344 0.0
H1198 H 0.17192 0.841 0.40296 0.0
H1199 H 0.21476 0.83115 0.42191 0.0
H1200 H 0.21224 0.83026 0.38204 0.0
H1201 H 0.22712 0.8275 0.40163 0.0
H1202 H 0.16843 0.82742 0.28014 0.0
H1203 H 0.12298 0.83296 0.26107 0.0
H1204 H 0.12616 0.83539 0.30094 0.0
H1205 H 0.11028 0.83639 0.28131 0.0
Eu1206 Eu 0.82693 0.65373 0.66005 0.0
C1207 C 0.87399 0.72636 0.69517 0.0
C1208 C 0.90803 0.73471 0.69312 0.0
C1209 C 0.90001 0.75988 0.69755 0.0
C1210 C 0.88779 0.72084 0.69287 0.0
C1211 C 0.87993 0.74587 0.69779 0.0
C1212 C 0.91404 0.75431 0.6952 0.0
C1213 C 0.84587 0.736 0.7016 0.0
N1214 N 0.85476 0.71246 0.69539 0.0
C1215 C 0.84074 0.71684 0.69897 0.0
C1216 C 0.86553 0.75063 0.70087 0.0
Eu1217 Eu 0.84694 0.6805 0.69013 0.0
N1218 N 0.88146 0.70178 0.69096 0.0
C1219 C 0.89468 0.69544 0.69018 0.0
C1220 C 0.92162 0.7284 0.69156 0.0
C1221 C 0.91491 0.70864 0.69027 0.0
H1222 H 0.8255 0.70558 0.69945 0.0
H1223 H 0.92529 0.70356 0.6893 0.0
H1224 H 0.92951 0.7652 0.6953 0.0
H1225 H 0.83466 0.73948 0.70416 0.0
H1226 H 0.88975 0.68025 0.68909 0.0
H1227 H 0.74899 0.63228 0.65906 0.0
H1228 H 0.93729 0.7386 0.69163 0.0
H1229 H 0.84798 0.62795 0.65154 0.0
H1230 H 0.78457 0.65485 0.66071 0.0
H1231 H 0.83835 0.59396 0.64674 0.0
H1232 H 0.90486 0.77498 0.69943 0.0
H1233 H 0.73645 0.59734 0.65575 0.0
H1234 H 0.74359 0.5702 0.6528 0.0
H1235 H 0.86948 0.76546 0.70293 0.0
H1236 H 0.7679 0.55972 0.64957 0.0
N1237 N 0.79236 0.63294 0.65889 0.0
C1238 C 0.77943 0.63966 0.65939 0.0
C1239 C 0.75213 0.60715 0.65671 0.0
C1240 C 0.76545 0.6004 0.65578 0.0
C1241 C 0.75917 0.62688 0.65847 0.0
C1242 C 0.78575 0.61386 0.65677 0.0
H1243 H 0.80325 0.5685 0.64714 0.0
N1244 N 0.81871 0.6216 0.65501 0.0
C1245 C 0.82724 0.59769 0.64904 0.0
C1246 C 0.79937 0.608 0.65483 0.0
C1247 C 0.83264 0.61691 0.65173 0.0
C1248 C 0.80742 0.58336 0.64932 0.0
C1249 C 0.79316 0.58846 0.65202 0.0
O1250 O 0.83998 0.65747 0.64155 0.0
O1251 O 0.85212 0.67834 0.66991 0.0
O1252 O 0.84286 0.70022 0.67695 0.0
O1253 O 0.81908 0.67741 0.66335 0.0
O1254 O 0.85918 0.66346 0.65708 0.0
O1255 O 0.8174 0.66497 0.64466 0.0
O1256 O 0.83387 0.67616 0.70867 0.0
O1257 O 0.8218 0.656 0.68021 0.0
O1258 O 0.83083 0.63408 0.67342 0.0
O1259 O 0.85503 0.65704 0.68672 0.0
O1260 O 0.81458 0.67052 0.69318 0.0
O1261 O 0.85715 0.6697 0.70541 0.0
C1262 C 0.8663 0.67796 0.66474 0.0
C1263 C 0.8197 0.65456 0.62437 0.0
C1264 C 0.81787 0.65724 0.60172 0.0
C1265 C 0.82685 0.6653 0.61335 0.0
C1266 C 0.8018 0.6382 0.60132 0.0
C1267 C 0.80371 0.63562 0.62372 0.0
C1268 C 0.79485 0.6275 0.61224 0.0
C1269 C 0.82903 0.6951 0.66827 0.0
C1270 C 0.82879 0.66335 0.63649 0.0
C1271 C 0.77296 0.57482 0.65163 0.0
C1272 C 0.75913 0.58078 0.65347 0.0
C1273 C 0.80754 0.65622 0.68536 0.0
C1274 C 0.85439 0.67946 0.72582 0.0
C1275 C 0.84689 0.66872 0.7368 0.0
C1276 C 0.85567 0.67667 0.7485 0.0
C1277 C 0.87189 0.6956 0.74899 0.0
C1278 C 0.87051 0.69832 0.72656 0.0
C1279 C 0.87917 0.70633 0.7381 0.0
C1280 C 0.84489 0.63927 0.68195 0.0
C1281 C 0.8455 0.67074 0.71364 0.0
H1282 H 0.83912 0.68 0.61387 0.0
H1283 H 0.79473 0.63149 0.59253 0.0
H1284 H 0.79804 0.62716 0.63207 0.0
H1285 H 0.78252 0.61286 0.61181 0.0
H1286 H 0.83451 0.65408 0.73621 0.0
H1287 H 0.87883 0.70221 0.75783 0.0
H1288 H 0.87643 0.7068 0.71822 0.0
H1289 H 0.89161 0.7209 0.73861 0.0
Eu1290 Eu 0.35249 0.17282 0.6606 0.0
C1291 C 0.27319 0.14368 0.68934 0.0
C1292 C 0.26517 0.16881 0.68561 0.0
C1293 C 0.23899 0.13577 0.68896 0.0
C1294 C 0.27916 0.16274 0.6868 0.0
C1295 C 0.25308 0.13009 0.69089 0.0
C1296 C 0.24503 0.15512 0.6863 0.0
C1297 C 0.26255 0.1071 0.69774 0.0
N1298 N 0.2872 0.13882 0.69137 0.0
C1299 C 0.2823 0.12115 0.69612 0.0
C1300 C 0.24783 0.11147 0.69488 0.0
Eu1301 Eu 0.32034 0.16288 0.6881 0.0
N1302 N 0.29874 0.17559 0.6864 0.0
C1303 C 0.30531 0.19499 0.68589 0.0
C1304 C 0.27186 0.18856 0.68424 0.0
C1305 C 0.29202 0.20173 0.6846 0.0
H1306 H 0.29367 0.11771 0.69826 0.0
H1307 H 0.29736 0.21708 0.68384 0.0
H1308 H 0.23405 0.15946 0.68523 0.0
H1309 H 0.25869 0.09292 0.70116 0.0
H1310 H 0.32082 0.2054 0.68609 0.0
H1311 H 0.37425 0.11765 0.66119 0.0
H1312 H 0.2616 0.19382 0.6833 0.0
H1313 H 0.37986 0.22006 0.65465 0.0
H1314 H 0.35114 0.12998 0.6613 0.0
H1315 H 0.41502 0.24492 0.65276 0.0
H1316 H 0.22345 0.12549 0.68994 0.0
H1317 H 0.41006 0.14045 0.66071 0.0
H1318 H 0.43792 0.1748 0.65991 0.0
H1319 H 0.23255 0.10061 0.6962 0.0
H1320 H 0.44905 0.20946 0.65799 0.0
N1321 N 0.37359 0.15964 0.66139 0.0
C1322 C 0.36671 0.14017 0.66123 0.0
C1323 C 0.39998 0.14601 0.66093 0.0
C1324 C 0.40695 0.16594 0.66072 0.0
C1325 C 0.37978 0.13309 0.66115 0.0
C1326 C 0.3932 0.17241 0.66088 0.0
H1327 H 0.44063 0.23573 0.6552 0.0
N1328 N 0.38573 0.19739 0.65871 0.0
C1329 C 0.41086 0.23009 0.65474 0.0
C1330 C 0.39947 0.1919 0.65962 0.0
C1331 C 0.39101 0.21602 0.6558 0.0
C1332 C 0.42527 0.22485 0.65617 0.0
C1333 C 0.41965 0.20549 0.65837 0.0
O1334 O 0.35217 0.18406 0.64215 0.0
O1335 O 0.32509 0.17089 0.66799 0.0
O1336 O 0.30314 0.13789 0.67464 0.0
O1337 O 0.32779 0.1412 0.66084 0.0
O1338 O 0.34224 0.19437 0.65686 0.0
O1339 O 0.34659 0.15469 0.64399 0.0
O1340 O 0.32269 0.15382 0.70692 0.0
O1341 O 0.34716 0.16405 0.68041 0.0
O1342 O 0.36998 0.19499 0.67555 0.0
O1343 O 0.34448 0.19471 0.68674 0.0
O1344 O 0.33085 0.14149 0.69222 0.0
O1345 O 0.32711 0.18251 0.70402 0.0
C1346 C 0.32592 0.18544 0.66285 0.0
C1347 C 0.36127 0.17106 0.62536 0.0
C1348 C 0.36427 0.17108 0.60273 0.0
C1349 C 0.35284 0.16819 0.61343 0.0
C1350 C 0.3843 0.17688 0.60416 0.0
C1351 C 0.38122 0.1767 0.62663 0.0
C1352 C 0.39266 0.17961 0.61606 0.0
C1353 C 0.30976 0.13146 0.66548 0.0
C1354 C 0.34906 0.16835 0.63633 0.0
C1355 C 0.43347 0.19923 0.65886 0.0
C1356 C 0.42713 0.17949 0.65995 0.0
C1357 C 0.34658 0.14966 0.68559 0.0
C1358 C 0.31335 0.16748 0.72313 0.0
C1359 C 0.32136 0.16923 0.73511 0.0
C1360 C 0.30998 0.16682 0.74578 0.0
C1361 C 0.2904 0.16258 0.74423 0.0
C1362 C 0.29386 0.16337 0.72178 0.0
C1363 C 0.28245 0.1609 0.73229 0.0
C1364 C 0.36327 0.20292 0.68358 0.0
C1365 C 0.32546 0.16976 0.71218 0.0
H1366 H 0.33745 0.16399 0.61248 0.0
H1367 H 0.3934 0.17905 0.59609 0.0
H1368 H 0.38793 0.17887 0.63573 0.0
H1369 H 0.40806 0.18398 0.61709 0.0
H1370 H 0.33654 0.17272 0.73608 0.0
H1371 H 0.28114 0.16035 0.75223 0.0
H1372 H 0.28749 0.16208 0.71263 0.0
H1373 H 0.26738 0.15763 0.73118 0.0
Eu1374 Eu 0.84764 0.1645 0.68985 0.0
C1375 C 0.79949 0.1925 0.65797 0.0
C1376 C 0.76535 0.168 0.66066 0.0
C1377 C 0.77404 0.20134 0.65692 0.0
C1378 C 0.78544 0.17352 0.66027 0.0
C1379 C 0.79393 0.20658 0.65603 0.0
C1380 C 0.75976 0.18209 0.65924 0.0
C1381 C 0.82792 0.22958 0.65154 0.0
N1382 N 0.81853 0.19703 0.6571 0.0
C1383 C 0.83267 0.21508 0.6535 0.0
C1384 C 0.8085 0.22537 0.65295 0.0
Eu1385 Eu 0.82571 0.17208 0.66116 0.0
N1386 N 0.79135 0.16029 0.66153 0.0
C1387 C 0.77777 0.14104 0.66231 0.0
C1388 C 0.75144 0.14843 0.66218 0.0
C1389 C 0.75768 0.13486 0.66282 0.0
H1390 H 0.84773 0.21842 0.65249 0.0
H1391 H 0.74703 0.11964 0.66378 0.0
H1392 H 0.74442 0.17816 0.65964 0.0
H1393 H 0.83924 0.24398 0.64897 0.0
H1394 H 0.78233 0.13038 0.66289 0.0
H1395 H 0.9265 0.21616 0.68783 0.0
H1396 H 0.73587 0.1436 0.66259 0.0
H1397 H 0.82487 0.11807 0.69844 0.0
H1398 H 0.89123 0.20576 0.68806 0.0
H1399 H 0.83286 0.09226 0.70227 0.0
H1400 H 0.76949 0.21198 0.65556 0.0
H1401 H 0.93722 0.19191 0.68962 0.0
H1402 H 0.9282 0.15727 0.69254 0.0
H1403 H 0.80484 0.23661 0.6514 0.0
H1404 H 0.90273 0.12354 0.69646 0.0
N1405 N 0.88187 0.17581 0.68956 0.0
C1406 C 0.89563 0.195 0.68882 0.0
C1407 C 0.92168 0.18725 0.68964 0.0
C1408 C 0.90756 0.16771 0.691 0.0
C1409 C 0.91568 0.20097 0.68868 0.0
C1410 C 0.88751 0.1624 0.69104 0.0
H1411 H 0.86718 0.09922 0.70027 0.0
N1412 N 0.85425 0.13921 0.69401 0.0
C1413 C 0.84436 0.10659 0.69972 0.0
C1414 C 0.87325 0.1435 0.69333 0.0
C1415 C 0.83989 0.12124 0.69758 0.0
C1416 C 0.86374 0.11056 0.69855 0.0
C1417 C 0.87853 0.12927 0.6955 0.0
O1418 O 0.83613 0.15661 0.70874 0.0
O1419 O 0.82207 0.16522 0.68139 0.0
O1420 O 0.83157 0.19598 0.67491 0.0
O1421 O 0.85654 0.19624 0.68696 0.0
O1422 O 0.81542 0.14357 0.69406 0.0
O1423 O 0.86035 0.18542 0.70518 0.0
O1424 O 0.83737 0.18026 0.64233 0.0
O1425 O 0.85134 0.17146 0.66962 0.0
O1426 O 0.84191 0.14065 0.67608 0.0
O1427 O 0.81695 0.1404 0.66404 0.0
O1428 O 0.85791 0.19318 0.65702 0.0
O1429 O 0.81328 0.15131 0.64573 0.0
C1430 C 0.80807 0.15132 0.68693 0.0
C1431 C 0.8588 0.17249 0.72518 0.0
C1432 C 0.86057 0.17375 0.74795 0.0
C1433 C 0.85132 0.17406 0.73674 0.0
C1434 C 0.87733 0.17168 0.74739 0.0
C1435 C 0.87547 0.17037 0.72482 0.0
C1436 C 0.88466 0.16995 0.73589 0.0
C1437 C 0.84642 0.20443 0.68295 0.0
C1438 C 0.84909 0.17322 0.7136 0.0
C1439 C 0.89839 0.13429 0.69491 0.0
C1440 C 0.91289 0.15349 0.69267 0.0
C1441 C 0.86533 0.18544 0.6641 0.0
C1442 C 0.81511 0.16433 0.62572 0.0
C1443 C 0.82271 0.16254 0.61427 0.0
C1444 C 0.81372 0.16282 0.60294 0.0
C1445 C 0.79704 0.16505 0.60327 0.0
C1446 C 0.79855 0.16665 0.62586 0.0
C1447 C 0.78958 0.16701 0.61467 0.0
C1448 C 0.82708 0.13222 0.66803 0.0
C1449 C 0.82461 0.16364 0.63739 0.0
H1450 H 0.83851 0.17585 0.73698 0.0
H1451 H 0.88464 0.17117 0.75585 0.0
H1452 H 0.88142 0.16911 0.71601 0.0
H1453 H 0.89752 0.1683 0.73556 0.0
H1454 H 0.83543 0.1606 0.6142 0.0
H1455 H 0.78991 0.1655 0.59471 0.0
H1456 H 0.79253 0.1681 0.6346 0.0
H1457 H 0.7768 0.1688 0.61482 0.0
H1458 H 0.32344 0.87867 0.07986 0.0
H1459 H 0.35267 0.90174 0.06849 0.0
H1460 H 0.33487 0.86221 0.03712 0.0
H1461 H 0.30519 0.83929 0.04826 0.0
H1462 H 0.38265 0.89642 0.05946 0.0
H1463 H 0.34596 0.91299 0.02093 0.0
H1464 H 0.33327 0.9009 0.03497 0.0
H1465 H 0.3377 0.88774 0.02297 0.0
C1466 C 0.32556 0.87497 0.07047 0.0
C1467 C 0.31189 0.85715 0.06496 0.0
C1468 C 0.34236 0.88813 0.06402 0.0
C1469 C 0.34583 0.8838 0.0519 0.0
C1470 C 0.33232 0.86599 0.04638 0.0
H1471 H 0.46235 0.95154 0.01827 0.0
H1472 H 0.43079 0.92419 0.02465 0.0
C1473 C 0.31548 0.85281 0.05282 0.0
C1474 C 0.36392 0.89779 0.04527 0.0
H1475 H 0.38055 0.92717 0.01986 0.0
C1476 C 0.38221 0.90308 0.05077 0.0
C1477 C 0.36326 0.90652 0.03397 0.0
C1478 C 0.34402 0.90192 0.02788 0.0
C1479 C 0.39986 0.91706 0.04538 0.0
C1480 C 0.39923 0.92575 0.03406 0.0
C1481 C 0.38096 0.92032 0.02847 0.0
C1482 C 0.41732 0.94161 0.02848 0.0
C1483 C 0.41901 0.92293 0.0521 0.0
C1484 C 0.41989 0.96031 0.02799 0.0
C1485 C 0.43779 0.97588 0.02418 0.0
C1486 C 0.45331 0.97297 0.02063 0.0
C1487 C 0.45051 0.95415 0.02071 0.0
C1488 C 0.43256 0.93855 0.02448 0.0
H1489 H 0.41665 0.91784 0.0619 0.0
H1490 H 0.42684 0.91651 0.04719 0.0
H1491 H 0.42867 0.93891 0.05216 0.0
H1492 H 0.40832 0.96298 0.03105 0.0
H1493 H 0.43971 0.9903 0.02433 0.0
H1494 H 0.12979 0.42846 0.06201 0.0
H1495 H 0.10461 0.43378 0.05242 0.0
H1496 H 0.1421 0.49539 0.05714 0.0
H1497 H 0.16721 0.49027 0.0671 0.0
H1498 H 0.08683 0.45434 0.06422 0.0
H1499 H 0.12394 0.48772 0.01967 0.0
H1500 H 0.13093 0.47339 0.02908 0.0
H1501 H 0.13822 0.49774 0.03373 0.0
C1502 C 0.13271 0.44317 0.0611 0.0
C1503 C 0.15061 0.45892 0.0654 0.0
C1504 C 0.11832 0.44617 0.05551 0.0
C1505 C 0.12156 0.46498 0.05394 0.0
C1506 C 0.13943 0.48076 0.05806 0.0
H1507 H 0.0493 0.51064 0.02445 0.0
H1508 H 0.07628 0.50643 0.0323 0.0
C1509 C 0.1538 0.47778 0.06373 0.0
C1510 C 0.10578 0.46796 0.04861 0.0
H1511 H 0.09382 0.48664 0.02366 0.0
C1512 C 0.08831 0.46132 0.05533 0.0
C1513 C 0.10783 0.47727 0.03707 0.0
C1514 C 0.12616 0.48436 0.02938 0.0
C1515 C 0.0729 0.46389 0.05091 0.0
C1516 C 0.07475 0.47285 0.03924 0.0
C1517 C 0.09232 0.47965 0.03255 0.0
C1518 C 0.0586 0.47529 0.03386 0.0
C1519 C 0.05501 0.45743 0.05899 0.0
C1520 C 0.03978 0.45918 0.03185 0.0
C1521 C 0.02436 0.46159 0.02742 0.0
C1522 C 0.0276 0.48008 0.02453 0.0
C1523 C 0.0465 0.49618 0.02632 0.0
C1524 C 0.06189 0.49379 0.03087 0.0
H1525 H 0.05836 0.45641 0.06894 0.0
H1526 H 0.04918 0.46752 0.05831 0.0
H1527 H 0.04333 0.44285 0.05586 0.0
H1528 H 0.03695 0.44472 0.03381 0.0
H1529 H 0.00988 0.44898 0.0262 0.0
H1530 H 0.58499 0.71337 0.05744 0.0
H1531 H 0.5769 0.68298 0.04677 0.0
H1532 H 0.52224 0.65363 0.06682 0.0
H1533 H 0.53007 0.68403 0.0773 0.0
H1534 H 0.57071 0.64918 0.05567 0.0
H1535 H 0.50332 0.63791 0.03142 0.0
H1536 H 0.52025 0.66045 0.03909 0.0
H1537 H 0.50213 0.64045 0.04798 0.0
C1538 C 0.57126 0.70041 0.05956 0.0
C1539 C 0.55808 0.70105 0.06812 0.0
C1540 C 0.56664 0.6831 0.05345 0.0
C1541 C 0.54879 0.66613 0.05581 0.0
C1542 C 0.53582 0.66666 0.06457 0.0
H1543 H 0.52242 0.5488 0.04048 0.0
H1544 H 0.53184 0.58032 0.04981 0.0
C1545 C 0.54033 0.684 0.07059 0.0
C1546 C 0.54394 0.64778 0.04934 0.0
H1547 H 0.5085 0.61087 0.03175 0.0
C1548 C 0.55717 0.64086 0.05036 0.0
C1549 C 0.52646 0.63712 0.04223 0.0
C1550 C 0.51233 0.64446 0.03999 0.0
C1551 C 0.55318 0.62333 0.04471 0.0
C1552 C 0.53518 0.61216 0.03818 0.0
C1553 C 0.52218 0.61931 0.03691 0.0
C1554 C 0.52952 0.59302 0.03256 0.0
C1555 C 0.56845 0.61716 0.04564 0.0
C1556 C 0.52441 0.58944 0.01986 0.0
C1557 C 0.51866 0.57131 0.01457 0.0
C1558 C 0.51798 0.55646 0.02185 0.0
C1559 C 0.52305 0.56005 0.03458 0.0
C1560 C 0.52855 0.57809 0.03991 0.0
H1561 H 0.58338 0.62976 0.04735 0.0
H1562 H 0.56489 0.60717 0.0536 0.0
H1563 H 0.56879 0.60956 0.037 0.0
H1564 H 0.52501 0.60073 0.014 0.0
H1565 H 0.51518 0.56913 0.00475 0.0
H1566 H 0.83632 0.29483 0.96701 0.0
H1567 H 0.85994 0.32589 0.9767 0.0
H1568 H 0.89406 0.34246 0.94299 0.0
H1569 H 0.87039 0.31156 0.93317 0.0
H1570 H 0.90236 0.34199 0.9799 0.0
H1571 H 0.8828 0.38749 0.95086 0.0
H1572 H 0.86679 0.36168 0.95235 0.0
H1573 H 0.88792 0.37093 0.94246 0.0
C1574 C 0.84878 0.30515 0.96163 0.0
C1575 C 0.85146 0.30078 0.94931 0.0
C1576 C 0.8623 0.32281 0.9672 0.0
C1577 C 0.87861 0.3365 0.96051 0.0
C1578 C 0.88144 0.33214 0.94826 0.0
H1579 H 0.98352 0.43979 0.98736 0.0
H1580 H 0.9601 0.40831 0.97815 0.0
C1581 C 0.868 0.31444 0.9427 0.0
C1582 C 0.8927 0.35532 0.96637 0.0
H1583 H 0.91021 0.40393 0.96449 0.0
C1584 C 0.9041 0.35555 0.97655 0.0
C1585 C 0.89474 0.37291 0.96203 0.0
C1586 C 0.88234 0.37336 0.95139 0.0
C1587 C 0.91775 0.37301 0.98242 0.0
C1588 C 0.92007 0.39064 0.97792 0.0
C1589 C 0.90847 0.39038 0.96785 0.0
C1590 C 0.93426 0.40952 0.98366 0.0
C1591 C 0.92938 0.37249 0.9935 0.0
C1592 C 0.92747 0.42072 0.98964 0.0
C1593 C 0.94078 0.43871 0.9949 0.0
C1594 C 0.96117 0.44589 0.9942 0.0
C1595 C 0.96793 0.43467 0.98811 0.0
C1596 C 0.95458 0.41663 0.98289 0.0
H1597 H 0.92302 0.3577 0.99738 0.0
H1598 H 0.94468 0.37729 0.99058 0.0
H1599 H 0.93002 0.38249 1.00099 0.0
H1600 H 0.91184 0.41552 0.99026 0.0
H1601 H 0.93504 0.44706 0.99936 0.0
H1602 H 0.70285 0.57211 0.95484 0.0
H1603 H 0.67279 0.56661 0.96514 0.0
H1604 H 0.64835 0.50499 0.96122 0.0
H1605 H 0.67812 0.51028 0.95055 0.0
H1606 H 0.63331 0.54497 0.95424 0.0
H1607 H 0.6404 0.51388 0.99894 0.0
H1608 H 0.66121 0.5282 0.98903 0.0
H1609 H 0.64383 0.50362 0.98482 0.0
C1610 C 0.69107 0.55736 0.95607 0.0
C1611 C 0.693 0.54165 0.95178 0.0
C1612 C 0.67394 0.55425 0.96207 0.0
C1613 C 0.65842 0.5354 0.96409 0.0
C1614 C 0.6603 0.51966 0.95997 0.0
H1615 H 0.54079 0.49054 0.99509 0.0
H1616 H 0.57199 0.49427 0.98759 0.0
C1617 C 0.67738 0.52274 0.95388 0.0
C1618 C 0.63988 0.5323 0.96985 0.0
H1619 H 0.61101 0.51473 0.9957 0.0
C1620 C 0.62846 0.53841 0.96332 0.0
C1621 C 0.63347 0.52354 0.98163 0.0
C1622 C 0.64537 0.51701 0.98911 0.0
C1623 C 0.61076 0.5359 0.96819 0.0
C1624 C 0.60453 0.52756 0.98012 0.0
C1625 C 0.61584 0.52123 0.98661 0.0
C1626 C 0.58636 0.52542 0.98594 0.0
C1627 C 0.59866 0.54182 0.96035 0.0
C1628 C 0.58428 0.54172 0.98794 0.0
C1629 C 0.5665 0.5396 0.99219 0.0
C1630 C 0.55061 0.52121 0.99486 0.0
C1631 C 0.55292 0.50493 0.99335 0.0
C1632 C 0.57071 0.50705 0.989 0.0
H1633 H 0.60234 0.54254 0.95029 0.0
H1634 H 0.58268 0.53159 0.96143 0.0
H1635 H 0.60178 0.55643 0.96336 0.0
H1636 H 0.59628 0.55608 0.98592 0.0
H1637 H 0.56505 0.55235 0.99322 0.0
H1638 H 0.42379 0.13044 0.958 0.0
H1639 H 0.43319 0.10917 0.96859 0.0
H1640 H 0.49268 0.14404 0.95563 0.0
H1641 H 0.48331 0.1651 0.94474 0.0
H1642 H 0.47688 0.10423 0.95168 0.0
H1643 H 0.46667 0.12064 1.00059 0.0
H1644 H 0.44576 0.11384 0.99057 0.0
H1645 H 0.46842 0.13585 0.9877 0.0
C1646 C 0.43886 0.13354 0.95737 0.0
C1647 C 0.45282 0.14947 0.95055 0.0
C1648 C 0.44425 0.12151 0.96354 0.0
C1649 C 0.46369 0.12524 0.96305 0.0
C1650 C 0.47764 0.14105 0.95621 0.0
H1651 H 0.51416 0.0673 0.00549 0.0
H1652 H 0.50733 0.09153 0.99661 0.0
C1653 C 0.47228 0.15311 0.95006 0.0
C1654 C 0.46928 0.11212 0.96918 0.0
H1655 H 0.47133 0.0936 0.9974 0.0
C1656 C 0.47579 0.10199 0.96168 0.0
C1657 C 0.46805 0.10943 0.98224 0.0
C1658 C 0.46202 0.12064 0.99078 0.0
C1659 C 0.4806 0.08879 0.96687 0.0
C1660 C 0.4786 0.08552 0.97986 0.0
C1661 C 0.47265 0.09605 0.98742 0.0
C1662 C 0.48222 0.07085 0.98569 0.0
C1663 C 0.4878 0.07847 0.95842 0.0
C1664 C 0.47009 0.05122 0.98266 0.0
C1665 C 0.47382 0.03734 0.98776 0.0
C1666 C 0.48975 0.04284 0.99604 0.0
C1667 C 0.50166 0.06253 0.99925 0.0
C1668 C 0.49785 0.07641 0.99416 0.0
H1669 H 0.49305 0.08595 0.94936 0.0
H1670 H 0.49994 0.07733 0.96294 0.0
H1671 H 0.47554 0.06358 0.95646 0.0
H1672 H 0.45777 0.04664 0.97628 0.0
H1673 H 0.46428 0.02232 0.98512 0.0
H1674 H 0.67434 0.15349 0.94317 0.0
H1675 H 0.64433 0.13068 0.95404 0.0
H1676 H 0.6766 0.10867 0.9741 0.0
H1677 H 0.70662 0.13121 0.96316 0.0
H1678 H 0.62663 0.09033 0.95342 0.0
H1679 H 0.64661 0.11876 1.00192 0.0
H1680 H 0.65969 0.13277 0.98849 0.0
H1681 H 0.66444 0.11444 0.99434 0.0
C1682 C 0.67507 0.14376 0.94987 0.0
C1683 C 0.69292 0.1442 0.95228 0.0
C1684 C 0.65793 0.13084 0.95614 0.0
C1685 C 0.65831 0.1182 0.96502 0.0
C1686 C 0.67608 0.11863 0.96751 0.0
H1687 H 0.56416 0.01 0.99148 0.0
H1688 H 0.59558 0.03715 0.98459 0.0
C1689 C 0.69323 0.13151 0.96122 0.0
C1690 C 0.63985 0.1037 0.97106 0.0
H1691 H 0.61772 0.08781 0.99934 0.0
C1692 C 0.62465 0.08988 0.96345 0.0
C1693 C 0.63725 0.1032 0.98415 0.0
C1694 C 0.65278 0.11818 0.99272 0.0
C1695 C 0.60712 0.07527 0.96858 0.0
C1696 C 0.60479 0.07442 0.98167 0.0
C1697 C 0.61972 0.08847 0.98931 0.0
C1698 C 0.58691 0.05869 0.98743 0.0
C1699 C 0.59119 0.06073 0.96 0.0
C1700 C 0.5719 0.062 0.99155 0.0
C1701 C 0.55393 0.04651 0.99542 0.0
C1702 C 0.55092 0.0276 0.99543 0.0
C1703 C 0.56624 0.02448 0.99169 0.0
C1704 C 0.58413 0.03993 0.98778 0.0
H1705 H 0.59403 0.06508 0.95007 0.0
H1706 H 0.59034 0.04648 0.96095 0.0
H1707 H 0.57667 0.05885 0.96263 0.0
H1708 H 0.57379 0.0764 0.99127 0.0
H1709 H 0.54221 0.04925 0.99796 0.0
H1710 H 0.84499 0.51485 0.94057 0.0
H1711 H 0.87016 0.50967 0.95033 0.0
H1712 H 0.89041 0.56186 0.97222 0.0
H1713 H 0.86563 0.5675 0.96229 0.0
H1714 H 0.91205 0.53597 0.95004 0.0
H1715 H 0.88227 0.51972 0.99815 0.0
H1716 H 0.86744 0.5182 0.98478 0.0
H1717 H 0.88463 0.54136 0.99144 0.0
C1718 C 0.85485 0.52534 0.94739 0.0
C1719 C 0.85322 0.54164 0.95059 0.0
C1720 C 0.86916 0.52226 0.95303 0.0
C1721 C 0.88202 0.53525 0.9621 0.0
C1722 C 0.8804 0.55145 0.9654 0.0
H1723 H 0.99371 0.55164 0.9893 0.0
H1724 H 0.96652 0.55547 0.98127 0.0
C1725 C 0.86617 0.55462 0.95972 0.0
C1726 C 0.89766 0.53227 0.96769 0.0
H1727 H 0.91382 0.52329 0.99515 0.0
C1728 C 0.91243 0.53319 0.9599 0.0
C1729 C 0.89804 0.52847 0.98054 0.0
C1730 C 0.88219 0.5267 0.98924 0.0
C1731 C 0.92778 0.53079 0.96466 0.0
C1732 C 0.92839 0.52742 0.97754 0.0
C1733 C 0.91342 0.52609 0.9853 0.0
C1734 C 0.94455 0.52525 0.98305 0.0
C1735 C 0.9432 0.53173 0.95589 0.0
C1736 C 0.94113 0.50702 0.98681 0.0
C1737 C 0.95664 0.5048 0.99133 0.0
C1738 C 0.97573 0.52086 0.99244 0.0
C1739 C 0.97907 0.53909 0.98872 0.0
C1740 C 0.9636 0.54129 0.98412 0.0
H1741 H 0.9389 0.53124 0.94595 0.0
H1742 H 0.95723 0.54542 0.95759 0.0
H1743 H 0.94592 0.51955 0.95762 0.0
H1744 H 0.92655 0.49445 0.98599 0.0
H1745 H 0.95373 0.49049 0.99377 0.0
H1746 H 0.44 0.31355 0.93287 0.0
H1747 H 0.44922 0.34436 0.94329 0.0
H1748 H 0.46204 0.32383 0.97715 0.0
H1749 H 0.45344 0.29317 0.96675 0.0
H1750 H 0.43688 0.34252 0.97897 0.0
H1751 H 0.5079 0.3855 0.95429 0.0
H1752 H 0.48674 0.37012 0.94474 0.0
H1753 H 0.49589 0.3595 0.95565 0.0
C1754 C 0.44497 0.31563 0.9425 0.0
C1755 C 0.44607 0.3009 0.94895 0.0
C1756 C 0.45014 0.3332 0.94843 0.0
C1757 C 0.45643 0.33633 0.96092 0.0
C1758 C 0.45721 0.32161 0.96749 0.0
H1759 H 0.51324 0.44589 1.00158 0.0
H1760 H 0.50402 0.41396 0.99298 0.0
C1761 C 0.45217 0.30407 0.96154 0.0
C1762 C 0.46226 0.35504 0.96712 0.0
H1763 H 0.4974 0.40286 0.96709 0.0
C1764 C 0.45013 0.35573 0.97643 0.0
C1765 C 0.47966 0.37211 0.96382 0.0
C1766 C 0.49344 0.37189 0.95415 0.0
C1767 C 0.45476 0.37325 0.98238 0.0
C1768 C 0.47187 0.39043 0.97883 0.0
C1769 C 0.48423 0.38964 0.96972 0.0
C1770 C 0.47708 0.40945 0.98434 0.0
C1771 C 0.4414 0.37325 0.99246 0.0
C1772 C 0.46504 0.4175 0.98221 0.0
C1773 C 0.47022 0.43571 0.98712 0.0
C1774 C 0.48754 0.44618 0.99426 0.0
C1775 C 0.49964 0.43809 0.9963 0.0
C1776 C 0.49447 0.4199 0.99135 0.0
H1777 H 0.4316 0.35848 0.99609 0.0
H1778 H 0.45009 0.38291 1.00035 0.0
H1779 H 0.43201 0.37874 0.98857 0.0
H1780 H 0.45174 0.40978 0.97662 0.0
H1781 H 0.46062 0.44153 0.98531 0.0
H1782 H 0.13926 0.7121 0.05771 0.0
H1783 H 0.11487 0.68156 0.04787 0.0
H1784 H 0.14026 0.65175 0.06694 0.0
H1785 H 0.16485 0.68222 0.07669 0.0
H1786 H 0.12093 0.65596 0.03246 0.0
H1787 H 0.08138 0.62062 0.0759 0.0
H1788 H 0.09812 0.64637 0.07495 0.0
H1789 H 0.10748 0.63004 0.07661 0.0
C1790 C 0.13977 0.69908 0.05974 0.0
C1791 C 0.15397 0.69961 0.06805 0.0
C1792 C 0.12576 0.68164 0.05415 0.0
C1793 C 0.12559 0.66437 0.05683 0.0
C1794 C 0.13988 0.66486 0.06496 0.0
H1795 H 0.06864 0.55477 0.01709 0.0
H1796 H 0.09177 0.58631 0.02616 0.0
C1797 C 0.15391 0.68228 0.07053 0.0
C1798 C 0.11062 0.64587 0.05099 0.0
H1799 H 0.0729 0.60071 0.05772 0.0
C1800 C 0.11036 0.64389 0.03796 0.0
C1801 C 0.09672 0.63027 0.0582 0.0
C1802 C 0.09574 0.63191 0.07218 0.0
C1803 C 0.09683 0.62652 0.03195 0.0
C1804 C 0.08337 0.61069 0.0392 0.0
C1805 C 0.08334 0.61283 0.0522 0.0
C1806 C 0.06929 0.59172 0.03347 0.0
C1807 C 0.09691 0.6253 0.01789 0.0
C1808 C 0.04896 0.5841 0.03479 0.0
C1809 C 0.03565 0.56605 0.02958 0.0
C1810 C 0.04245 0.55525 0.023 0.0
C1811 C 0.06286 0.56285 0.02185 0.0
C1812 C 0.07613 0.58091 0.02703 0.0
H1813 H 0.10444 0.63989 0.01363 0.0
H1814 H 0.10487 0.61768 0.01505 0.0
H1815 H 0.08169 0.61704 0.01408 0.0
H1816 H 0.0434 0.59218 0.03981 0.0
H1817 H 0.02005 0.56062 0.03071 0.0
H1818 H 0.29999 0.43278 0.05902 0.0
H1819 H 0.33037 0.43852 0.04892 0.0
H1820 H 0.36024 0.49732 0.06275 0.0
H1821 H 0.32987 0.49174 0.07287 0.0
H1822 H 0.36425 0.48891 0.03467 0.0
H1823 H 0.38207 0.44871 0.06969 0.0
H1824 H 0.35705 0.43751 0.06408 0.0
H1825 H 0.36694 0.45925 0.07333 0.0
C1826 C 0.31297 0.44698 0.05984 0.0
C1827 C 0.3125 0.46179 0.06678 0.0
C1828 C 0.33034 0.4502 0.05412 0.0
C1829 C 0.34755 0.46831 0.05514 0.0
C1830 C 0.34711 0.48322 0.06189 0.0
H1831 H 0.46429 0.51279 0.02155 0.0
H1832 H 0.43405 0.51013 0.0299 0.0
C1833 C 0.32979 0.47997 0.06772 0.0
C1834 C 0.36603 0.47152 0.04927 0.0
H1835 H 0.40214 0.45984 0.05197 0.0
C1836 C 0.37263 0.48263 0.03843 0.0
C1837 C 0.37684 0.4633 0.05422 0.0
C1838 C 0.37054 0.4516 0.06602 0.0
C1839 C 0.38952 0.48526 0.03216 0.0
C1840 C 0.40039 0.47693 0.03706 0.0
C1841 C 0.39384 0.46611 0.04808 0.0
C1842 C 0.41835 0.47881 0.03094 0.0
C1843 C 0.39503 0.49635 0.02013 0.0
C1844 C 0.41994 0.46221 0.02887 0.0
C1845 C 0.4374 0.46379 0.02442 0.0
C1846 C 0.45355 0.48195 0.02164 0.0
C1847 C 0.4519 0.49856 0.02335 0.0
C1848 C 0.43453 0.49702 0.02806 0.0
H1849 H 0.38218 0.4963 0.0157 0.0
H1850 H 0.40634 0.51164 0.02207 0.0
H1851 H 0.40112 0.49016 0.01342 0.0
H1852 H 0.40777 0.44798 0.03098 0.0
H1853 H 0.43838 0.4508 0.02329 0.0
H1854 H 0.52369 0.83966 0.07525 0.0
H1855 H 0.51331 0.85996 0.06437 0.0
H1856 H 0.56925 0.8894 0.04576 0.0
H1857 H 0.5797 0.86913 0.05657 0.0
H1858 H 0.52996 0.89922 0.06544 0.0
H1859 H 0.53053 0.8753 0.01683 0.0
H1860 H 0.53147 0.86216 0.03021 0.0
H1861 H 0.55339 0.88327 0.02497 0.0
C1862 C 0.53378 0.85049 0.06886 0.0
C1863 C 0.5525 0.85278 0.06674 0.0
C1864 C 0.52779 0.86198 0.0626 0.0
C1865 C 0.54037 0.87594 0.05409 0.0
C1866 C 0.55911 0.87836 0.05203 0.0
H1867 H 0.5405 0.97832 0.0303 0.0
H1868 H 0.54677 0.95401 0.03939 0.0
C1869 C 0.56508 0.86682 0.05824 0.0
C1870 C 0.53429 0.88864 0.04787 0.0
H1871 H 0.52875 0.90421 0.01935 0.0
C1872 C 0.52953 0.90019 0.05536 0.0
C1873 C 0.53346 0.88967 0.03472 0.0
C1874 C 0.53729 0.8768 0.0262 0.0
C1875 C 0.5246 0.91322 0.05007 0.0
C1876 C 0.52478 0.91498 0.03694 0.0
C1877 C 0.52886 0.90297 0.02942 0.0
C1878 C 0.5213 0.92962 0.0309 0.0
C1879 C 0.51918 0.92497 0.05858 0.0
C1880 C 0.50525 0.92395 0.02276 0.0
C1881 C 0.50163 0.93785 0.01747 0.0
C1882 C 0.51412 0.95764 0.02018 0.0
C1883 C 0.53048 0.96322 0.02808 0.0
C1884 C 0.53407 0.94935 0.03334 0.0
H1885 H 0.51441 0.91816 0.06787 0.0
H1886 H 0.53223 0.93956 0.06001 0.0
H1887 H 0.5072 0.92675 0.05443 0.0
H1888 H 0.4953 0.90877 0.02073 0.0
H1889 H 0.48883 0.93303 0.01149 0.0
H1890 H 0.9955 0.17543 0.4011 0.0
H1891 H 0.02474 0.1991 0.38991 0.0
H1892 H 0.99787 0.23409 0.38389 0.0
H1893 H 0.9684 0.21035 0.39479 0.0
H1894 H 0.02785 0.21432 0.36449 0.0
H1895 H 0.05157 0.27042 0.40188 0.0
H1896 H 0.03418 0.24519 0.40455 0.0
H1897 H 0.02645 0.26012 0.39673 0.0
C1898 C 0.99568 0.18803 0.39727 0.0
C1899 C 0.9796 0.19101 0.39893 0.0
C1900 C 0.01244 0.20157 0.39092 0.0
C1901 C 0.01353 0.21842 0.3862 0.0
C1902 C 0.99742 0.22131 0.38763 0.0
H1903 H 0.10564 0.32464 0.35509 0.0
H1904 H 0.07409 0.29771 0.36187 0.0
C1905 C 0.98063 0.20776 0.39393 0.0
C1906 C 0.03163 0.2332 0.37999 0.0
H1907 H 0.06929 0.27973 0.38308 0.0
C1908 C 0.03698 0.22863 0.36853 0.0
C1909 C 0.04348 0.2518 0.38532 0.0
C1910 C 0.0388 0.25722 0.39785 0.0
C1911 C 0.05366 0.2424 0.36207 0.0
C1912 C 0.06548 0.2611 0.36736 0.0
C1913 C 0.06016 0.2655 0.37893 0.0
C1914 C 0.08353 0.27645 0.36128 0.0
C1915 C 0.05808 0.23692 0.3495 0.0
C1916 C 0.09924 0.27342 0.35836 0.0
C1917 C 0.11717 0.28876 0.35427 0.0
C1918 C 0.11974 0.30742 0.35316 0.0
C1919 C 0.10391 0.31033 0.35575 0.0
C1920 C 0.08593 0.29497 0.35966 0.0
H1921 H 0.04479 0.22458 0.34517 0.0
H1922 H 0.06389 0.24933 0.34306 0.0
H1923 H 0.06932 0.23249 0.35063 0.0
H1924 H 0.09803 0.25946 0.35985 0.0
H1925 H 0.12929 0.28622 0.35265 0.0
H1926 H 0.8335 0.80118 0.38201 0.0
H1927 H 0.80895 0.80729 0.37209 0.0
H1928 H 0.77408 0.78901 0.40546 0.0
H1929 H 0.7987 0.78327 0.41553 0.0
H1930 H 0.7686 0.78089 0.36767 0.0
H1931 H 0.77915 0.8419 0.39815 0.0
H1932 H 0.79677 0.83366 0.39746 0.0
H1933 H 0.77474 0.82065 0.40646 0.0
C1934 C 0.82072 0.79867 0.38729 0.0
C1935 C 0.81812 0.79178 0.39959 0.0
C1936 C 0.80665 0.80206 0.38158 0.0
C1937 C 0.7898 0.79884 0.38808 0.0
C1938 C 0.78711 0.79189 0.40033 0.0
H1939 H 0.67894 0.78238 0.3593 0.0
H1940 H 0.70626 0.77854 0.36683 0.0
C1941 C 0.80111 0.78842 0.40603 0.0
C1942 C 0.77478 0.80229 0.38198 0.0
H1943 H 0.75111 0.82822 0.38473 0.0
C1944 C 0.76486 0.79134 0.37133 0.0
C1945 C 0.77006 0.81607 0.38668 0.0
C1946 C 0.78084 0.82889 0.39775 0.0
C1947 C 0.74998 0.79342 0.36544 0.0
C1948 C 0.7447 0.80669 0.37042 0.0
C1949 C 0.75503 0.81799 0.3809 0.0
C1950 C 0.72826 0.80883 0.36516 0.0
C1951 C 0.7402 0.78135 0.35392 0.0
C1952 C 0.73129 0.8272 0.36202 0.0
C1953 C 0.71558 0.82944 0.35791 0.0
C1954 C 0.69658 0.81331 0.35668 0.0
C1955 C 0.69354 0.79498 0.35988 0.0
C1956 C 0.70919 0.79276 0.36409 0.0
H1957 H 0.75023 0.77764 0.34888 0.0
H1958 H 0.7271 0.76759 0.35672 0.0
H1959 H 0.73535 0.78891 0.34743 0.0
H1960 H 0.74579 0.83988 0.36288 0.0
H1961 H 0.71827 0.84383 0.35594 0.0
H1962 H 0.23294 0.02279 0.41542 0.0
H1963 H 0.22507 0.9922 0.40513 0.0
H1964 H 0.20791 0.01004 0.37175 0.0
H1965 H 0.21595 0.04078 0.38192 0.0
H1966 H 0.18662 0.96448 0.39406 0.0
H1967 H 0.24842 0.99308 0.36036 0.0
H1968 H 0.24902 0.00619 0.37433 0.0
H1969 H 0.23452 0.00541 0.36112 0.0
C1970 C 0.2277 0.02028 0.40584 0.0
C1971 C 0.22509 0.03417 0.39946 0.0
C1972 C 0.22312 0.00279 0.40002 0.0
C1973 C 0.21609 0.99901 0.38768 0.0
C1974 C 0.21352 0.01283 0.38125 0.0
H1975 H 0.15864 0.88871 0.34796 0.0
H1976 H 0.16759 0.9204 0.35686 0.0
C1977 C 0.21796 0.03028 0.3871 0.0
C1978 C 0.2109 0.98033 0.38166 0.0
H1979 H 0.22446 0.95988 0.35851 0.0
C1980 C 0.19485 0.96343 0.38628 0.0
C1981 C 0.22181 0.97911 0.37159 0.0
C1982 C 0.23951 0.99686 0.36657 0.0
C1983 C 0.18929 0.94526 0.38099 0.0
C1984 C 0.20004 0.94407 0.37081 0.0
C1985 C 0.2162 0.96094 0.36626 0.0
C1986 C 0.19499 0.92529 0.365 0.0
C1987 C 0.17217 0.92742 0.38642 0.0
C1988 C 0.20765 0.91781 0.36647 0.0
C1989 C 0.20263 0.89973 0.36139 0.0
C1990 C 0.18492 0.88893 0.35466 0.0
C1991 C 0.17244 0.89668 0.35303 0.0
C1992 C 0.17745 0.91473 0.35816 0.0
H1993 H 0.16769 0.93045 0.3956 0.0
H1994 H 0.1594 0.9219 0.37993 0.0
H1995 H 0.17592 0.91581 0.38759 0.0
H1996 H 0.22127 0.92583 0.37171 0.0
H1997 H 0.2126 0.89423 0.36279 0.0
H1998 H 0.53692 0.64646 0.26556 0.0
H1999 H 0.56104 0.67716 0.2754 0.0
H2000 H 0.52783 0.66038 0.30947 0.0
H2001 H 0.50376 0.62952 0.29976 0.0
H2002 H 0.5532 0.70591 0.28659 0.0
H2003 H 0.58536 0.67616 0.32005 0.0
H2004 H 0.57137 0.66283 0.30643 0.0
H2005 H 0.55897 0.66471 0.31994 0.0
C2006 C 0.53485 0.64923 0.27519 0.0
C2007 C 0.51847 0.63553 0.2819 0.0
C2008 C 0.54858 0.6668 0.28076 0.0
C2009 C 0.5463 0.67092 0.29319 0.0
C2010 C 0.52995 0.65735 0.29991 0.0
H2011 H 0.60267 0.78061 0.33316 0.0
H2012 H 0.57949 0.74952 0.32349 0.0
C2013 C 0.51614 0.63982 0.29432 0.0
C2014 C 0.56085 0.6896 0.29903 0.0
H2015 H 0.59574 0.70952 0.3221 0.0
C2016 C 0.56253 0.70673 0.29434 0.0
C2017 C 0.57309 0.69058 0.30905 0.0
C2018 C 0.57231 0.67264 0.31414 0.0
C2019 C 0.57594 0.72484 0.29957 0.0
C2020 C 0.58788 0.72579 0.30977 0.0
C2021 C 0.58645 0.70869 0.31432 0.0
C2022 C 0.60197 0.74444 0.31581 0.0
C2023 C 0.5774 0.74287 0.29409 0.0
C2024 C 0.62229 0.75171 0.31487 0.0
C2025 C 0.63562 0.76949 0.3204 0.0
C2026 C 0.62884 0.7802 0.32711 0.0
C2027 C 0.60843 0.77271 0.32815 0.0
C2028 C 0.59513 0.755 0.32256 0.0
H2029 H 0.57014 0.74003 0.28478 0.0
H2030 H 0.57014 0.74842 0.30041 0.0
H2031 H 0.59304 0.75437 0.29318 0.0
H2032 H 0.62782 0.74371 0.30972 0.0
H2033 H 0.65123 0.7748 0.31945 0.0
H2034 H 0.36974 0.90388 0.28739 0.0
H2035 H 0.33959 0.89823 0.29762 0.0
H2036 H 0.31547 0.83665 0.29374 0.0
H2037 H 0.34531 0.84208 0.28311 0.0
H2038 H 0.29985 0.87577 0.2864 0.0
H2039 H 0.3076 0.84622 0.3316 0.0
H2040 H 0.3284 0.86085 0.32176 0.0
H2041 H 0.31154 0.83612 0.31757 0.0
C2042 C 0.35802 0.8891 0.2886 0.0
C2043 C 0.36006 0.87345 0.28433 0.0
C2044 C 0.34084 0.88592 0.29457 0.0
C2045 C 0.32537 0.86703 0.29657 0.0
C2046 C 0.32736 0.85135 0.29249 0.0
H2047 H 0.20806 0.82259 0.32825 0.0
H2048 H 0.2391 0.82607 0.32058 0.0
C2049 C 0.3445 0.85451 0.28642 0.0
C2050 C 0.30676 0.86385 0.30227 0.0
H2051 H 0.27821 0.847 0.32829 0.0
C2052 C 0.29513 0.86952 0.29557 0.0
C2053 C 0.30053 0.85547 0.31416 0.0
C2054 C 0.31266 0.84938 0.32178 0.0
C2055 C 0.2774 0.86698 0.3004 0.0
C2056 C 0.27138 0.85909 0.31245 0.0
C2057 C 0.28288 0.85316 0.3191 0.0
C2058 C 0.25327 0.85711 0.31827 0.0
C2059 C 0.26508 0.87242 0.29239 0.0
C2060 C 0.25113 0.87344 0.31993 0.0
C2061 C 0.23344 0.87145 0.32426 0.0
C2062 C 0.21772 0.85317 0.32735 0.0
C2063 C 0.22007 0.83689 0.32615 0.0
C2064 C 0.23777 0.83887 0.32172 0.0
H2065 H 0.26857 0.87266 0.28233 0.0
H2066 H 0.24913 0.86218 0.29364 0.0
H2067 H 0.26817 0.88714 0.29509 0.0
H2068 H 0.26301 0.88771 0.31762 0.0
H2069 H 0.23195 0.8842 0.32505 0.0
H2070 H 0.09185 0.46431 0.28949 0.0
H2071 H 0.10163 0.44344 0.30018 0.0
H2072 H 0.16087 0.4784 0.28681 0.0
H2073 H 0.15108 0.49905 0.27579 0.0
H2074 H 0.1457 0.43876 0.28335 0.0
H2075 H 0.13524 0.45574 0.33204 0.0
H2076 H 0.11414 0.44841 0.32212 0.0
H2077 H 0.13656 0.47053 0.319 0.0
C2078 C 0.10693 0.46751 0.28877 0.0
C2079 C 0.1207 0.48335 0.2818 0.0
C2080 C 0.11255 0.45571 0.29501 0.0
C2081 C 0.13204 0.45959 0.29445 0.0
C2082 C 0.1458 0.4753 0.28745 0.0
H2083 H 0.18159 0.40202 0.33833 0.0
H2084 H 0.1752 0.42627 0.32903 0.0
C2085 C 0.1402 0.48712 0.28122 0.0
C2086 C 0.13786 0.44674 0.30073 0.0
H2087 H 0.13973 0.42851 0.3291 0.0
C2088 C 0.14454 0.43662 0.29336 0.0
C2089 C 0.13656 0.44419 0.31381 0.0
C2090 C 0.13042 0.45542 0.32224 0.0
C2091 C 0.14938 0.42353 0.29868 0.0
C2092 C 0.14722 0.42032 0.31168 0.0
C2093 C 0.14116 0.43089 0.31912 0.0
C2094 C 0.1507 0.40565 0.31764 0.0
C2095 C 0.15677 0.41323 0.29035 0.0
C2096 C 0.13877 0.38603 0.31449 0.0
C2097 C 0.14227 0.37214 0.31983 0.0
C2098 C 0.15773 0.3776 0.32849 0.0
C2099 C 0.16945 0.39727 0.3318 0.0
C2100 C 0.16588 0.41117 0.32646 0.0
H2101 H 0.16237 0.42085 0.28137 0.0
H2102 H 0.1687 0.41194 0.29504 0.0
H2103 H 0.1445 0.39842 0.28822 0.0
H2104 H 0.12677 0.38147 0.30786 0.0
H2105 H 0.13289 0.35714 0.31709 0.0
H2106 H 0.34137 0.48715 0.27643 0.0
H2107 H 0.31149 0.46432 0.28739 0.0
H2108 H 0.34436 0.44355 0.30803 0.0
H2109 H 0.37425 0.46609 0.29698 0.0
H2110 H 0.29431 0.42396 0.28724 0.0
H2111 H 0.31388 0.45386 0.33546 0.0
H2112 H 0.32682 0.46759 0.3219 0.0
H2113 H 0.33194 0.44967 0.32806 0.0
C2114 C 0.34226 0.47769 0.28326 0.0
C2115 C 0.36026 0.47847 0.2858 0.0
C2116 C 0.32519 0.46476 0.28959 0.0
C2117 C 0.32576 0.45245 0.29866 0.0
C2118 C 0.34367 0.45323 0.30128 0.0
H2119 H 0.232 0.34458 0.32608 0.0
H2120 H 0.26341 0.37166 0.31912 0.0
C2121 C 0.36076 0.46613 0.29493 0.0
C2122 C 0.30737 0.43794 0.30478 0.0
H2123 H 0.28517 0.42275 0.3331 0.0
C2124 C 0.29228 0.42378 0.29726 0.0
C2125 C 0.3047 0.4378 0.31785 0.0
C2126 C 0.3201 0.45313 0.32631 0.0
C2127 C 0.2748 0.40922 0.30247 0.0
C2128 C 0.27238 0.40875 0.31555 0.0
C2129 C 0.28721 0.42312 0.32309 0.0
C2130 C 0.25452 0.39313 0.3214 0.0
C2131 C 0.25899 0.39432 0.29399 0.0
C2132 C 0.23937 0.39641 0.32525 0.0
C2133 C 0.22139 0.38096 0.32916 0.0
C2134 C 0.2185 0.3621 0.32947 0.0
C2135 C 0.23397 0.35903 0.32604 0.0
C2136 C 0.25187 0.37443 0.32209 0.0
H2137 H 0.26188 0.39833 0.284 0.0
H2138 H 0.25825 0.38017 0.29522 0.0
H2139 H 0.24441 0.39241 0.29647 0.0
H2140 H 0.24114 0.41075 0.3247 0.0
H2141 H 0.20957 0.38367 0.33146 0.0
H2142 H 0.53336 0.90077 0.29415 0.0
H2143 H 0.55831 0.89552 0.3042 0.0
H2144 H 0.5385 0.84313 0.28261 0.0
H2145 H 0.51318 0.84795 0.2727 0.0
H2146 H 0.55282 0.8625 0.31821 0.0
H2147 H 0.59876 0.87518 0.27615 0.0
H2148 H 0.58067 0.8828 0.2772 0.0
H2149 H 0.57302 0.85782 0.27428 0.0
C2150 C 0.53412 0.888 0.2916 0.0
C2151 C 0.52121 0.87482 0.28255 0.0
C2152 C 0.5485 0.8851 0.29732 0.0
C2153 C 0.55043 0.86908 0.29404 0.0
C2154 C 0.53751 0.85579 0.28511 0.0
H2155 H 0.62001 0.82449 0.32969 0.0
H2156 H 0.59285 0.82825 0.32161 0.0
C2157 C 0.52306 0.85862 0.27943 0.0
C2158 C 0.56584 0.86618 0.30009 0.0
H2159 H 0.60807 0.86505 0.29435 0.0
C2160 C 0.56485 0.86297 0.31299 0.0
C2161 C 0.58164 0.867 0.29328 0.0
C2162 C 0.58378 0.87104 0.27947 0.0
C2163 C 0.57916 0.8604 0.31924 0.0
C2164 C 0.59488 0.8611 0.31244 0.0
C2165 C 0.59593 0.86441 0.29954 0.0
C2166 C 0.61075 0.85904 0.31857 0.0
C2167 C 0.57784 0.85765 0.33314 0.0
C2168 C 0.62976 0.87512 0.3197 0.0
C2169 C 0.64521 0.87305 0.32449 0.0
C2170 C 0.64199 0.85486 0.32824 0.0
C2171 C 0.62287 0.83878 0.32724 0.0
C2172 C 0.60736 0.84089 0.32254 0.0
H2173 H 0.56516 0.85826 0.33719 0.0
H2174 H 0.57636 0.84343 0.33537 0.0
H2175 H 0.5916 0.86913 0.33757 0.0
H2176 H 0.63272 0.88922 0.31663 0.0
H2177 H 0.65984 0.88562 0.32498 0.0
H2178 H 0.12607 0.62829 0.29829 0.0
H2179 H 0.13492 0.65898 0.30888 0.0
H2180 H 0.10318 0.67114 0.28084 0.0
H2181 H 0.09423 0.64047 0.27019 0.0
H2182 H 0.15472 0.69892 0.29424 0.0
H2183 H 0.08384 0.6765 0.31832 0.0
H2184 H 0.09187 0.65945 0.31447 0.0
H2185 H 0.08313 0.66873 0.30239 0.0
C2186 C 0.1208 0.63741 0.29447 0.0
C2187 C 0.10945 0.63201 0.28343 0.0
C2188 C 0.12594 0.65492 0.30048 0.0
C2189 C 0.1196 0.66716 0.29564 0.0
C2190 C 0.1081 0.66176 0.28471 0.0
H2191 H 0.12878 0.77532 0.31791 0.0
H2192 H 0.11972 0.74371 0.30898 0.0
C2193 C 0.10311 0.64434 0.27863 0.0
C2194 C 0.12554 0.68592 0.30175 0.0
H2195 H 0.10841 0.70937 0.32002 0.0
C2196 C 0.14469 0.70126 0.29994 0.0
C2197 C 0.11228 0.68878 0.30906 0.0
C2198 C 0.09161 0.67253 0.31128 0.0
C2199 C 0.15089 0.71968 0.30507 0.0
C2200 C 0.13767 0.72257 0.3125 0.0
C2201 C 0.11852 0.7071 0.31436 0.0
C2202 C 0.14323 0.74167 0.31812 0.0
C2203 C 0.17128 0.73596 0.30215 0.0
C2204 C 0.15934 0.75093 0.32635 0.0
C2205 C 0.16475 0.76915 0.33136 0.0
C2206 C 0.15388 0.77828 0.32844 0.0
C2207 C 0.13751 0.76876 0.32038 0.0
C2208 C 0.13225 0.75064 0.31528 0.0
H2209 H 0.17731 0.73271 0.2937 0.0
H2210 H 0.17131 0.74973 0.30068 0.0
H2211 H 0.18128 0.73806 0.3101 0.0
H2212 H 0.16778 0.74409 0.32889 0.0
H2213 H 0.17756 0.77612 0.33741 0.0
H2214 H 0.83438 0.03973 0.38416 0.0
H2215 H 0.80977 0.0092 0.37444 0.0
H2216 H 0.77909 0.99104 0.40937 0.0
H2217 H 0.80334 0.02165 0.41912 0.0
H2218 H 0.78674 0.96321 0.39734 0.0
H2219 H 0.75155 0.99193 0.3655 0.0
H2220 H 0.77794 0.00379 0.36478 0.0
H2221 H 0.76641 0.0055 0.3788 0.0
C2222 C 0.82224 0.02939 0.38974 0.0
C2223 C 0.82086 0.03319 0.40243 0.0
C2224 C 0.80821 0.01193 0.38417 0.0
C2225 C 0.79253 0.99796 0.39116 0.0
C2226 C 0.79109 0.00166 0.40381 0.0
H2227 H 0.68755 0.8934 0.36568 0.0
H2228 H 0.71096 0.92462 0.37524 0.0
C2229 C 0.80505 0.01912 0.40938 0.0
C2230 C 0.77796 0.9792 0.38542 0.0
H2231 H 0.74194 0.95878 0.36305 0.0
C2232 C 0.77692 0.96222 0.38986 0.0
C2233 C 0.76505 0.97797 0.37575 0.0
C2234 C 0.76509 0.99572 0.37096 0.0
C2235 C 0.7635 0.94403 0.38474 0.0
C2236 C 0.75092 0.94284 0.37487 0.0
C2237 C 0.75172 0.95978 0.37056 0.0
C2238 C 0.73681 0.92409 0.36892 0.0
C2239 C 0.76273 0.92618 0.39001 0.0
C2240 C 0.74364 0.91359 0.36211 0.0
C2241 C 0.73034 0.89577 0.35664 0.0
C2242 C 0.70994 0.88815 0.35783 0.0
C2243 C 0.70315 0.89881 0.3646 0.0
C2244 C 0.71649 0.91668 0.37004 0.0
H2245 H 0.77017 0.92909 0.39926 0.0
H2246 H 0.74726 0.91432 0.39097 0.0
H2247 H 0.77024 0.9211 0.38354 0.0
H2248 H 0.75928 0.91918 0.36102 0.0
H2249 H 0.7361 0.88791 0.35158 0.0
H2250 H 0.99199 0.78658 0.41552 0.0
H2251 H 0.02212 0.79263 0.40505 0.0
H2252 H 0.00275 0.80759 0.3714 0.0
H2253 H 0.97265 0.80183 0.38184 0.0
H2254 H 0.01693 0.78206 0.36728 0.0
H2255 H 0.06953 0.84514 0.39601 0.0
H2256 H 0.05339 0.8243 0.405 0.0
H2257 H 0.04339 0.83629 0.39593 0.0
C2258 C 0.99422 0.79143 0.40595 0.0
C2259 C 0.97985 0.7938 0.39957 0.0
C2260 C 0.01148 0.79487 0.39996 0.0
C2261 C 0.01485 0.80084 0.38749 0.0
C2262 C 1.0005 0.80305 0.38104 0.0
H2263 H 0.13065 0.84454 0.35351 0.0
H2264 H 0.09926 0.84102 0.36029 0.0
C2265 C 0.98324 0.79965 0.38702 0.0
C2266 C 0.0331 0.80426 0.38109 0.0
H2267 H 0.08326 0.83086 0.38283 0.0
C2268 C 0.03144 0.79284 0.37062 0.0
C2269 C 0.05203 0.8185 0.38532 0.0
C2270 C 0.05477 0.83191 0.39611 0.0
C2271 C 0.04818 0.79482 0.36452 0.0
C2272 C 0.06715 0.80848 0.36909 0.0
C2273 C 0.06877 0.82032 0.37933 0.0
C2274 C 0.08551 0.81027 0.36376 0.0
C2275 C 0.04526 0.78224 0.35322 0.0
C2276 C 0.08831 0.79421 0.36337 0.0
C2277 C 0.10612 0.79616 0.3593 0.0
C2278 C 0.12155 0.81422 0.35555 0.0
C2279 C 0.11883 0.83033 0.35597 0.0
C2280 C 0.10094 0.82835 0.35996 0.0
H2281 H 0.03109 0.77801 0.3484 0.0
H2282 H 0.05737 0.78965 0.34647 0.0
H2283 H 0.04486 0.76878 0.35624 0.0
H2284 H 0.07693 0.78023 0.36659 0.0
H2285 H 0.108 0.78361 0.35934 0.0
H2286 H 0.24785 0.20359 0.38973 0.0
H2287 H 0.23826 0.22494 0.37943 0.0
H2288 H 0.18174 0.19527 0.39732 0.0
H2289 H 0.1912 0.17385 0.40764 0.0
H2290 H 0.20648 0.21618 0.36331 0.0
H2291 H 0.20291 0.25215 0.40702 0.0
H2292 H 0.21442 0.23745 0.40635 0.0
H2293 H 0.18808 0.22623 0.40698 0.0
C2294 C 0.23333 0.20153 0.3914 0.0
C2295 C 0.22032 0.18714 0.39957 0.0
C2296 C 0.2279 0.21375 0.38553 0.0
C2297 C 0.20941 0.21183 0.38776 0.0
C2298 C 0.19623 0.19723 0.39569 0.0
H2299 H 0.15612 0.26775 0.34583 0.0
H2300 H 0.16367 0.24396 0.35462 0.0
C2301 C 0.20167 0.18504 0.40158 0.0
C2302 C 0.20403 0.22527 0.38186 0.0
H2303 H 0.19221 0.26009 0.38848 0.0
C2304 C 0.20334 0.22579 0.36879 0.0
C2305 C 0.20016 0.23789 0.38907 0.0
C2306 C 0.20158 0.2386 0.40313 0.0
C2307 C 0.1988 0.2386 0.3627 0.0
C2308 C 0.19459 0.25098 0.36992 0.0
C2309 C 0.19531 0.25046 0.38299 0.0
C2310 C 0.19023 0.26522 0.36415 0.0
C2311 C 0.19902 0.23914 0.34863 0.0
C2312 C 0.2025 0.28499 0.36675 0.0
C2313 C 0.19821 0.29859 0.36179 0.0
C2314 C 0.18153 0.29266 0.35414 0.0
C2315 C 0.16925 0.27282 0.35152 0.0
C2316 C 0.17355 0.2592 0.35652 0.0
H2317 H 0.20693 0.23209 0.34462 0.0
H2318 H 0.18367 0.23132 0.34503 0.0
H2319 H 0.20609 0.25428 0.34529 0.0
H2320 H 0.21541 0.28992 0.37265 0.0
H2321 H 0.20799 0.31373 0.36402 0.0
H2322 H 0.66302 0.50771 0.73529 0.0
H2323 H 0.69266 0.5307 0.72421 0.0
H2324 H 0.66621 0.56546 0.71589 0.0
H2325 H 0.6362 0.54217 0.72655 0.0
H2326 H 0.68518 0.56015 0.69544 0.0
H2327 H 0.73341 0.58408 0.7376 0.0
H2328 H 0.72071 0.55844 0.73471 0.0
H2329 H 0.70694 0.57021 0.73853 0.0
C2330 C 0.6634 0.52014 0.731 0.0
C2331 C 0.64723 0.52313 0.73187 0.0
C2332 C 0.68046 0.53337 0.72479 0.0
C2333 C 0.68176 0.54995 0.71941 0.0
C2334 C 0.66555 0.55283 0.72006 0.0
H2335 H 0.77411 0.65658 0.69059 0.0
H2336 H 0.74258 0.62921 0.69716 0.0
C2337 C 0.64848 0.53958 0.72625 0.0
C2338 C 0.70002 0.56435 0.71312 0.0
H2339 H 0.74881 0.5964 0.71823 0.0
C2340 C 0.69908 0.56813 0.70043 0.0
C2341 C 0.71816 0.57466 0.71964 0.0
C2342 C 0.71992 0.57182 0.7334 0.0
C2343 C 0.71582 0.58197 0.69411 0.0
C2344 C 0.73388 0.59223 0.70063 0.0
C2345 C 0.7349 0.58834 0.71326 0.0
C2346 C 0.7517 0.60792 0.69478 0.0
C2347 C 0.71434 0.58526 0.68042 0.0
C2348 C 0.76708 0.60487 0.69111 0.0
C2349 C 0.78504 0.62045 0.68731 0.0
C2350 C 0.78782 0.63928 0.68714 0.0
C2351 C 0.7722 0.64216 0.69049 0.0
C2352 C 0.75424 0.62658 0.69422 0.0
H2353 H 0.69897 0.57703 0.67685 0.0
H2354 H 0.72027 0.60089 0.67864 0.0
H2355 H 0.72341 0.58058 0.67515 0.0
H2356 H 0.76542 0.59057 0.69163 0.0
H2357 H 0.79697 0.61789 0.68506 0.0
H2358 H 0.50042 0.15761 0.73709 0.0
H2359 H 0.4754 0.16307 0.7273 0.0
H2360 H 0.43943 0.10189 0.71985 0.0
H2361 H 0.46443 0.09629 0.72941 0.0
H2362 H 0.45963 0.15377 0.70273 0.0
H2363 H 0.40181 0.11556 0.73812 0.0
H2364 H 0.42732 0.12295 0.74091 0.0
H2365 H 0.41194 0.10153 0.73181 0.0
C2366 C 0.48728 0.1453 0.73329 0.0
C2367 C 0.48446 0.12647 0.73413 0.0
C2368 C 0.47293 0.14846 0.72775 0.0
C2369 C 0.45539 0.13286 0.72304 0.0
C2370 C 0.45263 0.1141 0.72369 0.0
H2371 H 0.34711 0.1166 0.69012 0.0
H2372 H 0.3745 0.11327 0.69818 0.0
C2373 C 0.46697 0.11093 0.72918 0.0
C2374 C 0.44012 0.13619 0.7172 0.0
H2375 H 0.39208 0.12459 0.71957 0.0
C2376 C 0.44486 0.14749 0.70643 0.0
C2377 C 0.42089 0.12802 0.72205 0.0
C2378 C 0.41517 0.11648 0.73392 0.0
C2379 C 0.43075 0.1503 0.70012 0.0
C2380 C 0.41135 0.14188 0.70484 0.0
C2381 C 0.40679 0.13088 0.71579 0.0
C2382 C 0.39544 0.14404 0.69866 0.0
C2383 C 0.43666 0.16163 0.6882 0.0
C2384 C 0.39798 0.1624 0.69601 0.0
C2385 C 0.38241 0.16426 0.69112 0.0
C2386 C 0.36388 0.14781 0.68894 0.0
C2387 C 0.36133 0.12949 0.69155 0.0
C2388 C 0.37696 0.1276 0.69622 0.0
H2389 H 0.44958 0.16179 0.68388 0.0
H2390 H 0.42436 0.15541 0.68139 0.0
H2391 H 0.4407 0.17684 0.69021 0.0
H2392 H 0.41177 0.17539 0.69816 0.0
H2393 H 0.38467 0.17861 0.68959 0.0
H2394 H 0.88438 0.37648 0.7155 0.0
H2395 H 0.87542 0.34568 0.70505 0.0
H2396 H 0.89038 0.32584 0.73842 0.0
H2397 H 0.89918 0.3565 0.74898 0.0
H2398 H 0.90061 0.328 0.70201 0.0
H2399 H 0.83222 0.28341 0.72886 0.0
H2400 H 0.84361 0.30941 0.72778 0.0
H2401 H 0.8539 0.29892 0.73795 0.0
C2402 C 0.88565 0.36551 0.72062 0.0
C2403 C 0.8924 0.36885 0.73307 0.0
C2404 C 0.88064 0.34801 0.71463 0.0
C2405 C 0.88209 0.33351 0.72103 0.0
C2406 C 0.889 0.33684 0.73339 0.0
H2407 H 0.87979 0.2296 0.69588 0.0
H2408 H 0.88845 0.26146 0.70431 0.0
C2409 C 0.89415 0.35438 0.73937 0.0
C2410 C 0.87639 0.31486 0.71477 0.0
H2411 H 0.84275 0.26661 0.71553 0.0
C2412 C 0.88794 0.31457 0.70491 0.0
C2413 C 0.85972 0.29747 0.71853 0.0
C2414 C 0.8465 0.29721 0.72879 0.0
C2415 C 0.88348 0.29715 0.69888 0.0
C2416 C 0.86714 0.27969 0.70288 0.0
C2417 C 0.85533 0.28006 0.71254 0.0
C2418 C 0.86223 0.26078 0.69732 0.0
C2419 C 0.89618 0.29753 0.68824 0.0
C2420 C 0.84451 0.24982 0.69073 0.0
C2421 C 0.83948 0.2316 0.68589 0.0
C2422 C 0.85204 0.22398 0.68768 0.0
C2423 C 0.8698 0.23504 0.69431 0.0
C2424 C 0.87484 0.2533 0.69908 0.0
H2425 H 0.90539 0.31235 0.68453 0.0
H2426 H 0.90612 0.29234 0.69159 0.0
H2427 H 0.887 0.28777 0.68052 0.0
H2428 H 0.83453 0.25535 0.68937 0.0
H2429 H 0.82559 0.22338 0.68096 0.0
H2430 H 0.20003 0.95619 0.62418 0.0
H2431 H 0.22372 0.98684 0.63424 0.0
H2432 H 0.19776 0.01584 0.61479 0.0
H2433 H 0.17376 0.98515 0.60494 0.0
H2434 H 0.25146 0.02016 0.62482 0.0
H2435 H 0.19763 0.03314 0.65004 0.0
H2436 H 0.19083 0.01033 0.6425 0.0
H2437 H 0.19305 0.03031 0.63354 0.0
C2438 C 0.19939 0.96912 0.62206 0.0
C2439 C 0.18497 0.96827 0.61384 0.0
C2440 C 0.2129 0.98661 0.62783 0.0
C2441 C 0.2123 0.00359 0.62546 0.0
C2442 C 0.19816 0.00284 0.61705 0.0
H2443 H 0.3082 0.12059 0.64116 0.0
H2444 H 0.28492 0.08955 0.6314 0.0
C2445 C 0.1845 0.98532 0.61139 0.0
C2446 C 0.22673 0.02213 0.63161 0.0
H2447 H 0.23056 0.05949 0.64949 0.0
C2448 C 0.24689 0.02872 0.63026 0.0
C2449 C 0.22078 0.03316 0.63889 0.0
C2450 C 0.1994 0.02629 0.64145 0.0
C2451 C 0.26125 0.04613 0.63584 0.0
C2452 C 0.2553 0.05757 0.64265 0.0
C2453 C 0.23514 0.05085 0.64414 0.0
C2454 C 0.26967 0.0764 0.64852 0.0
C2455 C 0.28262 0.05182 0.6346 0.0
C2456 C 0.26856 0.07958 0.66132 0.0
C2457 C 0.28165 0.09742 0.66685 0.0
C2458 C 0.29613 0.11243 0.65973 0.0
C2459 C 0.29732 0.10921 0.64693 0.0
C2460 C 0.28408 0.09144 0.64135 0.0
H2461 H 0.28431 0.03906 0.63254 0.0
H2462 H 0.28914 0.06205 0.62675 0.0
H2463 H 0.29107 0.05902 0.64324 0.0
H2464 H 0.25761 0.06821 0.66706 0.0
H2465 H 0.28061 0.09927 0.67673 0.0
H2466 H 0.03298 0.19888 0.63427 0.0
H2467 H 0.00284 0.19291 0.64484 0.0
H2468 H 0.98406 0.20971 0.61172 0.0
H2469 H 0.01393 0.21537 0.60102 0.0
H2470 H 0.98924 0.2194 0.64931 0.0
H2471 H 0.93622 0.15667 0.62041 0.0
H2472 H 0.96229 0.16513 0.62064 0.0
H2473 H 0.95279 0.17757 0.6116 0.0
C2474 C 0.02233 0.2011 0.62918 0.0
C2475 C 0.02587 0.20754 0.61676 0.0
C2476 C 0.00517 0.19778 0.63526 0.0
C2477 C 0.99107 0.20062 0.62902 0.0
C2478 C 0.99458 0.20713 0.61666 0.0
H2479 H 0.89822 0.21807 0.65731 0.0
H2480 H 0.92923 0.22135 0.65001 0.0
C2481 C 0.01178 0.21055 0.6106 0.0
C2482 C 0.97291 0.19724 0.63551 0.0
H2483 H 0.92273 0.17075 0.63393 0.0
C2484 C 0.97469 0.20866 0.64601 0.0
C2485 C 0.95393 0.18306 0.63131 0.0
C2486 C 0.9511 0.16976 0.62044 0.0
C2487 C 0.95802 0.20672 0.65217 0.0
C2488 C 0.93899 0.19309 0.64766 0.0
C2489 C 0.93725 0.18125 0.63739 0.0
C2490 C 0.9207 0.19137 0.65305 0.0
C2491 C 0.96104 0.21935 0.66346 0.0
C2492 C 0.90535 0.17337 0.65703 0.0
C2493 C 0.88751 0.17145 0.66108 0.0
C2494 C 0.88476 0.18755 0.66135 0.0
C2495 C 0.90013 0.20553 0.65744 0.0
C2496 C 0.9179 0.20743 0.65334 0.0
H2497 H 0.97528 0.22366 0.66821 0.0
H2498 H 0.96133 0.23276 0.66045 0.0
H2499 H 0.94903 0.21194 0.67027 0.0
H2500 H 0.90705 0.16071 0.65678 0.0
H2501 H 0.87574 0.15729 0.66368 0.0
H2502 H 0.77996 0.79613 0.60272 0.0
H2503 H 0.78878 0.77465 0.61366 0.0
H2504 H 0.80238 0.80998 0.64691 0.0
H2505 H 0.79338 0.83143 0.63609 0.0
H2506 H 0.82701 0.78658 0.62619 0.0
H2507 H 0.76225 0.75269 0.65761 0.0
H2508 H 0.76228 0.76465 0.64336 0.0
H2509 H 0.77549 0.7787 0.65683 0.0
C2510 C 0.78466 0.79922 0.61239 0.0
C2511 C 0.78593 0.81542 0.61857 0.0
C2512 C 0.78979 0.78702 0.61859 0.0
C2513 C 0.79608 0.79071 0.63108 0.0
C2514 C 0.7974 0.80685 0.63729 0.0
H2515 H 0.84995 0.73436 0.6722 0.0
H2516 H 0.84251 0.75858 0.66398 0.0
C2517 C 0.79239 0.81914 0.63107 0.0
C2518 C 0.80142 0.7777 0.63756 0.0
H2519 H 0.78612 0.74321 0.66006 0.0
C2520 C 0.81817 0.77717 0.63365 0.0
C2521 C 0.78974 0.76542 0.64722 0.0
C2522 C 0.77134 0.76519 0.6515 0.0
C2523 C 0.82351 0.76453 0.63913 0.0
C2524 C 0.81181 0.75223 0.64877 0.0
C2525 C 0.79511 0.75282 0.65273 0.0
C2526 C 0.81597 0.73773 0.65428 0.0
C2527 C 0.84129 0.76398 0.63435 0.0
C2528 C 0.80329 0.71804 0.6517 0.0
C2529 C 0.80745 0.70419 0.65636 0.0
C2530 C 0.8243 0.70979 0.66379 0.0
C2531 C 0.83678 0.72955 0.66657 0.0
C2532 C 0.83264 0.74342 0.66184 0.0
H2533 H 0.84704 0.77234 0.62563 0.0
H2534 H 0.85314 0.77024 0.64154 0.0
H2535 H 0.83762 0.7488 0.63256 0.0
H2536 H 0.79033 0.71342 0.64589 0.0
H2537 H 0.79748 0.68912 0.65406 0.0
H2538 H 0.00746 0.82029 0.60898 0.0
H2539 H 0.97772 0.79742 0.62006 0.0
H2540 H 0.0112 0.77784 0.64116 0.0
H2541 H 0.04097 0.80045 0.63004 0.0
H2542 H 0.96102 0.75736 0.62023 0.0
H2543 H 0.98028 0.78774 0.66832 0.0
H2544 H 0.99324 0.80137 0.65474 0.0
H2545 H 0.99853 0.78367 0.6611 0.0
C2546 C 0.00852 0.81109 0.61596 0.0
C2547 C 0.02664 0.81222 0.6186 0.0
C2548 C 0.99152 0.79814 0.62235 0.0
C2549 C 0.9923 0.78616 0.63158 0.0
C2550 C 0.01035 0.78729 0.6343 0.0
H2551 H 0.89935 0.67754 0.65852 0.0
H2552 H 0.93055 0.70487 0.65153 0.0
C2553 C 0.02736 0.80021 0.6279 0.0
C2554 C 0.97401 0.77154 0.63773 0.0
H2555 H 0.95201 0.75624 0.6661 0.0
C2556 C 0.95902 0.75721 0.63024 0.0
C2557 C 0.97135 0.77145 0.6508 0.0
C2558 C 0.98661 0.78697 0.65923 0.0
C2559 C 0.94167 0.74249 0.63549 0.0
C2560 C 0.93931 0.74202 0.64858 0.0
C2561 C 0.95402 0.7566 0.65608 0.0
C2562 C 0.92164 0.72621 0.65448 0.0
C2563 C 0.92596 0.72745 0.62703 0.0
C2564 C 0.90658 0.72934 0.65876 0.0
C2565 C 0.88873 0.71375 0.66269 0.0
C2566 C 0.88589 0.6949 0.66261 0.0
C2567 C 0.90129 0.69197 0.65878 0.0
C2568 C 0.91906 0.70752 0.6548 0.0
H2569 H 0.92854 0.73169 0.61707 0.0
H2570 H 0.92578 0.71353 0.62803 0.0
H2571 H 0.91122 0.72499 0.62969 0.0
H2572 H 0.90831 0.74368 0.6585 0.0
H2573 H 0.87696 0.71635 0.66531 0.0
H2574 H 0.17764 0.17965 0.60596 0.0
H2575 H 0.20256 0.17414 0.61578 0.0
H2576 H 0.22165 0.22511 0.63875 0.0
H2577 H 0.19719 0.23113 0.62875 0.0
H2578 H 0.24446 0.20091 0.6162 0.0
H2579 H 0.21307 0.18163 0.66379 0.0
H2580 H 0.19859 0.18053 0.65033 0.0
H2581 H 0.21519 0.20344 0.65753 0.0
C2582 C 0.18719 0.18981 0.61304 0.0
C2583 C 0.18534 0.20589 0.61651 0.0
C2584 C 0.20135 0.18653 0.61871 0.0
C2585 C 0.21381 0.19907 0.6281 0.0
C2586 C 0.21194 0.21503 0.63169 0.0
H2587 H 0.32581 0.21781 0.6556 0.0
H2588 H 0.29806 0.22047 0.64737 0.0
C2589 C 0.19788 0.21841 0.62596 0.0
C2590 C 0.2294 0.19601 0.63369 0.0
H2591 H 0.24516 0.1863 0.66106 0.0
C2592 C 0.24457 0.19766 0.62599 0.0
C2593 C 0.22944 0.1916 0.64645 0.0
C2594 C 0.21314 0.18902 0.65503 0.0
C2595 C 0.26003 0.19547 0.63078 0.0
C2596 C 0.26036 0.19159 0.64361 0.0
C2597 C 0.24495 0.18945 0.65126 0.0
C2598 C 0.27684 0.19002 0.6492 0.0
C2599 C 0.27593 0.19728 0.6221 0.0
C2600 C 0.27402 0.17205 0.65309 0.0
C2601 C 0.28989 0.1705 0.65773 0.0
C2602 C 0.3087 0.18698 0.65882 0.0
C2603 C 0.31141 0.20494 0.65499 0.0
C2604 C 0.29561 0.20647 0.65029 0.0
H2605 H 0.27161 0.19657 0.61214 0.0
H2606 H 0.2895 0.21139 0.62382 0.0
H2607 H 0.27947 0.18566 0.62386 0.0
H2608 H 0.25966 0.15918 0.65229 0.0
H2609 H 0.28748 0.1564 0.66033 0.0
H2610 H 0.78729 0.95952 0.63565 0.0
H2611 H 0.79543 0.98992 0.64625 0.0
H2612 H 0.78258 0.0107 0.61251 0.0
H2613 H 0.77384 0.98017 0.6019 0.0
H2614 H 0.82116 0.03635 0.62536 0.0
H2615 H 0.75549 0.00924 0.65584 0.0
H2616 H 0.7679 0.99541 0.6553 0.0
H2617 H 0.75544 0.99685 0.64164 0.0
C2618 C 0.78587 0.9704 0.63052 0.0
C2619 C 0.77988 0.96738 0.61791 0.0
C2620 C 0.79061 0.98778 0.63659 0.0
C2621 C 0.78949 0.00243 0.63016 0.0
C2622 C 0.78353 0.99951 0.61761 0.0
H2623 H 0.79441 0.10775 0.65429 0.0
H2624 H 0.7858 0.07606 0.64564 0.0
C2625 C 0.77867 0.98211 0.61155 0.0
C2626 C 0.79506 0.02104 0.6364 0.0
H2627 H 0.78017 0.04197 0.65843 0.0
C2628 C 0.81227 0.03763 0.63262 0.0
C2629 C 0.78329 0.02254 0.64579 0.0
C2630 C 0.76441 0.00513 0.64989 0.0
C2631 C 0.81808 0.05579 0.63801 0.0
C2632 C 0.8064 0.05729 0.64748 0.0
C2633 C 0.78914 0.04069 0.65123 0.0
C2634 C 0.81143 0.07614 0.65319 0.0
C2635 C 0.83641 0.07331 0.63336 0.0
C2636 C 0.82857 0.08651 0.66044 0.0
C2637 C 0.83359 0.10467 0.66539 0.0
C2638 C 0.82146 0.1127 0.66322 0.0
C2639 C 0.80411 0.10205 0.65612 0.0
C2640 C 0.79911 0.08391 0.6512 0.0
H2641 H 0.8415 0.07032 0.6244 0.0
H2642 H 0.83381 0.08565 0.63205 0.0
H2643 H 0.84838 0.07776 0.64039 0.0
H2644 H 0.83813 0.08062 0.66219 0.0
H2645 H 0.84711 0.11252 0.67073 0.0
H2646 H 0.50226 0.37263 0.71679 0.0
H2647 H 0.47787 0.3422 0.70686 0.0
H2648 H 0.44626 0.32381 0.74147 0.0
H2649 H 0.47031 0.35433 0.75143 0.0
H2650 H 0.45389 0.29591 0.72949 0.0
H2651 H 0.42004 0.32563 0.69736 0.0
H2652 H 0.44643 0.33728 0.6969 0.0
H2653 H 0.43464 0.33892 0.71081 0.0
C2654 C 0.48997 0.36225 0.72225 0.0
C2655 C 0.48825 0.36598 0.73491 0.0
C2656 C 0.47607 0.34486 0.71657 0.0
C2657 C 0.46018 0.33087 0.72341 0.0
C2658 C 0.45843 0.33445 0.73603 0.0
H2659 H 0.3552 0.22755 0.69688 0.0
H2660 H 0.37877 0.25856 0.70658 0.0
C2661 C 0.47227 0.35186 0.74172 0.0
C2662 C 0.44564 0.31225 0.7175 0.0
H2663 H 0.41022 0.29245 0.69474 0.0
C2664 C 0.44431 0.29512 0.72191 0.0
C2665 C 0.43307 0.31131 0.7077 0.0
C2666 C 0.43342 0.32922 0.70294 0.0
C2667 C 0.43092 0.27705 0.71662 0.0
C2668 C 0.41867 0.27616 0.70663 0.0
C2669 C 0.41977 0.29324 0.70235 0.0
C2670 C 0.4045 0.25755 0.70056 0.0
C2671 C 0.42978 0.25903 0.72187 0.0
C2672 C 0.41121 0.24685 0.69384 0.0
C2673 C 0.39781 0.22916 0.68828 0.0
C2674 C 0.37743 0.22186 0.68928 0.0
C2675 C 0.37078 0.23272 0.69594 0.0
C2676 C 0.38421 0.25046 0.70146 0.0
H2677 H 0.43698 0.26175 0.7312 0.0
H2678 H 0.41424 0.24728 0.72268 0.0
H2679 H 0.43735 0.25391 0.71548 0.0
H2680 H 0.42683 0.2522 0.69292 0.0
H2681 H 0.40347 0.22111 0.68333 0.0
H2682 H 0.63968 0.13789 0.7155 0.0
H2683 H 0.66976 0.14371 0.70498 0.0
H2684 H 0.68679 0.12375 0.73741 0.0
H2685 H 0.65678 0.11784 0.74798 0.0
H2686 H 0.71719 0.15769 0.7283 0.0
H2687 H 0.68176 0.10367 0.68995 0.0
H2688 H 0.67357 0.12098 0.69127 0.0
H2689 H 0.6685 0.104 0.70359 0.0
C2690 C 0.64971 0.13452 0.72035 0.0
C2691 C 0.64573 0.12734 0.7326 0.0
C2692 C 0.66691 0.13785 0.7143 0.0
C2693 C 0.68045 0.13392 0.72032 0.0
C2694 C 0.67658 0.12688 0.73256 0.0
H2695 H 0.77481 0.11866 0.69324 0.0
H2696 H 0.74371 0.11553 0.70033 0.0
C2697 C 0.65943 0.12359 0.73862 0.0
C2698 C 0.69885 0.13748 0.71404 0.0
H2699 H 0.71635 0.12373 0.68913 0.0
C2700 C 0.717 0.15031 0.71971 0.0
C2701 C 0.69861 0.12775 0.70287 0.0
C2702 C 0.67959 0.11319 0.69659 0.0
C2703 C 0.73487 0.15356 0.71462 0.0
C2704 C 0.73464 0.14395 0.7034 0.0
C2705 C 0.71651 0.13123 0.69766 0.0
C2706 C 0.75297 0.14582 0.69804 0.0
C2707 C 0.7538 0.16675 0.72152 0.0
C2708 C 0.76839 0.1638 0.69412 0.0
C2709 C 0.78619 0.1656 0.69009 0.0
C2710 C 0.78872 0.14937 0.68968 0.0
C2711 C 0.77313 0.13134 0.69333 0.0
C2712 C 0.75537 0.12954 0.69736 0.0
H2713 H 0.75112 0.16966 0.73127 0.0
H2714 H 0.76355 0.16039 0.72175 0.0
H2715 H 0.76167 0.1808 0.71664 0.0
H2716 H 0.76679 0.17651 0.6944 0.0
H2717 H 0.79808 0.17975 0.68759 0.0
H2718 H 0.89597 0.54173 0.74865 0.0
H2719 H 0.88521 0.56146 0.73746 0.0
H2720 H 0.8738 0.52595 0.70451 0.0
H2721 H 0.88402 0.50579 0.71569 0.0
H2722 H 0.89699 0.56775 0.70096 0.0
H2723 H 0.82734 0.54442 0.72653 0.0
H2724 H 0.84874 0.55169 0.73619 0.0
H2725 H 0.83978 0.53053 0.7264 0.0
C2726 C 0.89093 0.53794 0.73907 0.0
C2727 C 0.89083 0.52214 0.73308 0.0
C2728 C 0.88483 0.54925 0.73269 0.0
C2729 C 0.87854 0.545 0.72022 0.0
C2730 C 0.87859 0.52941 0.71415 0.0
H2731 H 0.82348 0.59989 0.67871 0.0
H2732 H 0.83127 0.57583 0.6868 0.0
C2733 C 0.88457 0.518 0.72054 0.0
C2734 C 0.87238 0.55716 0.71343 0.0
H2735 H 0.83819 0.57165 0.7133 0.0
C2736 C 0.88405 0.56851 0.70357 0.0
C2737 C 0.85537 0.55788 0.71679 0.0
C2738 C 0.84194 0.54537 0.72699 0.0
C2739 C 0.87953 0.58116 0.69728 0.0
C2740 C 0.863 0.58249 0.70099 0.0
C2741 C 0.85091 0.57062 0.71053 0.0
C2742 C 0.85865 0.59693 0.69559 0.0
C2743 C 0.89254 0.59315 0.68677 0.0
C2744 C 0.87144 0.61667 0.69792 0.0
C2745 C 0.86704 0.63041 0.69337 0.0
C2746 C 0.84975 0.62465 0.68637 0.0
C2747 C 0.83701 0.60482 0.68396 0.0
C2748 C 0.84138 0.59105 0.68861 0.0
H2749 H 0.90168 0.58719 0.68312 0.0
H2750 H 0.88362 0.59398 0.67898 0.0
H2751 H 0.90257 0.6081 0.69024 0.0
H2752 H 0.88469 0.62144 0.70345 0.0
H2753 H 0.87717 0.64554 0.69543 0.0
H2754 H 0.4981 0.93416 0.18924 0.0
H2755 H 0.50609 0.94808 0.16837 0.0
H2756 H 0.44766 0.93985 0.16455 0.0
H2757 H 0.43972 0.92625 0.18554 0.0
H2758 H 0.49073 0.93314 0.14588 0.0
H2759 H 0.48017 0.99579 0.15532 0.0
H2760 H 0.48089 0.98084 0.16761 0.0
H2761 H 0.45879 0.9729 0.15851 0.0
C2762 C 0.48693 0.93528 0.18395 0.0
C2763 C 0.4683 0.92918 0.1891 0.0
C2764 C 0.49154 0.94329 0.17202 0.0
C2765 C 0.47762 0.94537 0.16492 0.0
C2766 C 0.45887 0.93895 0.16994 0.0
H2767 H 0.48364 0.98912 0.08915 0.0
H2768 H 0.47189 0.97205 0.10901 0.0
C2769 C 0.45431 0.9311 0.18194 0.0
C2770 C 0.48275 0.95396 0.15222 0.0
H2771 H 0.48585 0.99067 0.13428 0.0
C2772 C 0.48967 0.94573 0.14337 0.0
C2773 C 0.48138 0.97042 0.14889 0.0
C2774 C 0.47509 0.98063 0.15811 0.0
C2775 C 0.49523 0.95347 0.13135 0.0
C2776 C 0.49391 0.96991 0.12807 0.0
C2777 C 0.48672 0.97798 0.13681 0.0
C2778 C 0.50084 0.9795 0.11583 0.0
C2779 C 0.50244 0.94399 0.1222 0.0
C2780 C 0.52098 0.98936 0.1131 0.0
C2781 C 0.52772 0.99918 0.10183 0.0
C2782 C 0.51445 0.9993 0.09302 0.0
C2783 C 0.49422 0.98916 0.0957 0.0
C2784 C 0.4875 0.97949 0.10705 0.0
H2785 H 0.49875 0.92926 0.12519 0.0
H2786 H 0.496 0.94297 0.11279 0.0
H2787 H 0.51867 0.95294 0.12145 0.0
H2788 H 0.53154 0.9897 0.11978 0.0
H2789 H 0.54337 0.00671 0.10001 0.0
H2790 H 0.01847 0.50199 0.19555 0.0
H2791 H 0.00383 0.49557 0.17462 0.0
H2792 H 0.06011 0.53663 0.15934 0.0
H2793 H 0.07502 0.54257 0.18013 0.0
H2794 H 1.00173 0.52158 0.15896 0.0
H2795 H 0.0429 0.49002 0.13643 0.0
H2796 H 0.04251 0.49284 0.15314 0.0
H2797 H 0.05856 0.51315 0.14367 0.0
C2798 C 0.02782 0.50938 0.18771 0.0
C2799 C 0.04794 0.52276 0.18951 0.0
C2800 C 0.0194 0.50579 0.17577 0.0
C2801 C 0.03094 0.51542 0.16541 0.0
C2802 C 0.05101 0.52875 0.16717 0.0
H2803 H 0.01031 0.52668 0.08765 0.0
H2804 H 0.02373 0.52915 0.10865 0.0
C2805 C 0.05945 0.53231 0.17909 0.0
C2806 C 0.0218 0.51226 0.15285 0.0
H2807 H 0.02473 0.49908 0.12289 0.0
C2808 C 0.00661 0.51649 0.15109 0.0
C2809 C 0.02823 0.50563 0.14261 0.0
C2810 C 0.04381 0.49996 0.14405 0.0
C2811 C 0.99805 0.51476 0.13929 0.0
C2812 C 0.0047 0.50842 0.12903 0.0
C2813 C 0.01973 0.504 0.13079 0.0
C2814 C 0.99647 0.50662 0.11632 0.0
C2815 C 0.98234 0.52024 0.1378 0.0
C2816 C 0.97675 0.49298 0.11368 0.0
C2817 C 0.96906 0.49142 0.10167 0.0
C2818 C 0.98098 0.50346 0.09207 0.0
C2819 C 1.00079 0.51702 0.09477 0.0
C2820 C 0.00847 0.51853 0.10677 0.0
H2821 H 0.98186 0.52867 0.14596 0.0
H2822 H 0.9848 0.5289 0.12925 0.0
H2823 H 0.96777 0.50689 0.13688 0.0
H2824 H 0.96736 0.48343 0.12089 0.0
H2825 H 0.95385 0.4806 0.09986 0.0
H2826 H 0.49517 0.55352 0.18883 0.0
H2827 H 0.50327 0.548 0.16776 0.0
H2828 H 0.45038 0.49215 0.16646 0.0
H2829 H 0.44217 0.49755 0.18758 0.0
H2830 H 0.50995 0.51907 0.1597 0.0
H2831 H 0.44731 0.51621 0.13362 0.0
H2832 H 0.45356 0.5254 0.14942 0.0
H2833 H 0.44018 0.49975 0.14644 0.0
C2834 C 0.48526 0.54003 0.18408 0.0
C2835 C 0.46803 0.52595 0.18991 0.0
C2836 C 0.48987 0.53694 0.17201 0.0
C2837 C 0.47733 0.51977 0.16547 0.0
C2838 C 0.46006 0.5057 0.17122 0.0
H2839 H 0.51119 0.47525 0.10161 0.0
H2840 H 0.5005 0.48034 0.12199 0.0
C2841 C 0.45541 0.50879 0.1833 0.0
C2842 C 0.48284 0.51634 0.15285 0.0
H2843 H 0.46774 0.50742 0.12235 0.0
C2844 C 0.50073 0.51655 0.15153 0.0
C2845 C 0.47091 0.51328 0.14218 0.0
C2846 C 0.452 0.51381 0.14291 0.0
C2847 C 0.50693 0.51359 0.13986 0.0
C2848 C 0.49475 0.50997 0.12925 0.0
C2849 C 0.47697 0.51 0.13052 0.0
C2850 C 0.5004 0.50641 0.11672 0.0
C2851 C 0.52667 0.51473 0.13898 0.0
C2852 C 0.50332 0.51905 0.10687 0.0
C2853 C 0.50943 0.51617 0.09519 0.0
C2854 C 0.51267 0.50055 0.09313 0.0
C2855 C 0.50923 0.48765 0.10295 0.0
C2856 C 0.5031 0.49052 0.1146 0.0
H2857 H 0.53625 0.52244 0.14715 0.0
H2858 H 0.52445 0.49987 0.13868 0.0
H2859 H 0.53443 0.52225 0.13035 0.0
H2860 H 0.50128 0.53138 0.1083 0.0
H2861 H 0.51207 0.52646 0.08788 0.0
H2862 H 0.95417 0.44699 0.82809 0.0
H2863 H 0.9678 0.45196 0.84923 0.0
H2864 H 0.97257 0.50818 0.85087 0.0
H2865 H 0.95887 0.50329 0.82971 0.0
H2866 H 0.0039 0.48037 0.85784 0.0
H2867 H 0.94387 0.48335 0.8831 0.0
H2868 H 0.94114 0.47465 0.86721 0.0
H2869 H 0.95403 0.50021 0.87053 0.0
C2870 C 0.95816 0.46044 0.83294 0.0
C2871 C 0.95544 0.47475 0.82724 0.0
C2872 C 0.96587 0.46322 0.84503 0.0
C2873 C 0.97096 0.48033 0.85168 0.0
C2874 C 0.96833 0.49469 0.84601 0.0
H2875 H 0.04745 0.52171 0.91729 0.0
H2876 H 0.03318 0.51727 0.89634 0.0
C2877 C 0.96053 0.49188 0.83392 0.0
C2878 C 0.97961 0.48331 0.86438 0.0
H2879 H 0.97282 0.49149 0.89478 0.0
C2880 C 0.9971 0.48278 0.86592 0.0
C2881 C 0.97057 0.48622 0.87492 0.0
C2882 C 0.95127 0.48597 0.87393 0.0
C2883 C 0.0059 0.48522 0.87772 0.0
C2884 C 0.99716 0.48867 0.88822 0.0
C2885 C 0.97957 0.48902 0.8867 0.0
C2886 C 0.00581 0.49152 0.90091 0.0
C2887 C 0.02423 0.48369 0.87888 0.0
C2888 C 0.99499 0.47878 0.91049 0.0
C2889 C 0.00307 0.48133 0.92246 0.0
C2890 C 0.02213 0.4967 0.92509 0.0
C2891 C 0.03287 0.50954 0.9155 0.0
C2892 C 0.02474 0.50702 0.90353 0.0
H2893 H 0.02606 0.47609 0.87071 0.0
H2894 H 0.03729 0.49844 0.87942 0.0
H2895 H 0.02394 0.47586 0.88748 0.0
H2896 H 0.98034 0.46674 0.90865 0.0
H2897 H 0.99449 0.47109 0.92962 0.0
H2898 H 0.56501 0.50293 0.82969 0.0
H2899 H 0.55561 0.50874 0.85033 0.0
H2900 H 0.50406 0.45188 0.8493 0.0
H2901 H 0.51293 0.44622 0.82852 0.0
H2902 H 0.49592 0.48016 0.85669 0.0
H2903 H 0.55931 0.48613 0.88362 0.0
H2904 H 0.56606 0.50219 0.8706 0.0
H2905 H 0.55354 0.47647 0.86791 0.0
C2906 C 0.55163 0.49169 0.83383 0.0
C2907 C 0.53978 0.47407 0.82745 0.0
C2908 C 0.5464 0.49495 0.8457 0.0
C2909 C 0.5293 0.48062 0.85144 0.0
C2910 C 0.51741 0.46308 0.84509 0.0
H2911 H 0.49315 0.47379 0.92855 0.0
H2912 H 0.50466 0.46929 0.90827 0.0
C2913 C 0.52259 0.45981 0.83324 0.0
C2914 C 0.52334 0.48409 0.86389 0.0
H2915 H 0.53786 0.49401 0.89445 0.0
C2916 C 0.50508 0.48317 0.86495 0.0
C2917 C 0.53522 0.48779 0.87468 0.0
C2918 C 0.55455 0.48804 0.87422 0.0
C2919 C 0.49842 0.48602 0.87648 0.0
C2920 C 0.51052 0.49024 0.88721 0.0
C2921 C 0.5287 0.49096 0.88618 0.0
C2922 C 0.50434 0.49354 0.89962 0.0
C2923 C 0.47831 0.48406 0.87711 0.0
C2924 C 0.50073 0.5089 0.90155 0.0
C2925 C 0.49418 0.51152 0.91312 0.0
C2926 C 0.49126 0.49891 0.92303 0.0
C2927 C 0.49539 0.48384 0.92115 0.0
C2928 C 0.5019 0.48121 0.90956 0.0
H2929 H 0.46901 0.47602 0.86891 0.0
H2930 H 0.47055 0.4765 0.88573 0.0
H2931 H 0.47992 0.4987 0.87724 0.0
H2932 H 0.50295 0.51886 0.89409 0.0
H2933 H 0.4915 0.52349 0.91432 0.0
H2934 H 0.51133 0.07389 0.82935 0.0
H2935 H 0.50382 0.06035 0.85036 0.0
H2936 H 0.55496 0.05359 0.84965 0.0
H2937 H 0.56247 0.06693 0.82855 0.0
H2938 H 0.51912 0.01991 0.85726 0.0
H2939 H 0.53339 0.08595 0.88361 0.0
H2940 H 0.51756 0.08027 0.87018 0.0
H2941 H 0.54283 0.08682 0.86813 0.0
C2942 C 0.52099 0.06951 0.83365 0.0
C2943 C 0.53751 0.0715 0.82725 0.0
C2944 C 0.51678 0.06195 0.84572 0.0
C2945 C 0.52896 0.05617 0.85164 0.0
C2946 C 0.54544 0.0581 0.84529 0.0
H2947 H 0.52212 0.01757 0.92882 0.0
H2948 H 0.53356 0.03475 0.90903 0.0
C2949 C 0.54977 0.06581 0.83326 0.0
C2950 C 0.52396 0.04733 0.86422 0.0
H2951 H 0.51747 0.05621 0.8946 0.0
C2952 C 0.51888 0.02788 0.86543 0.0
C2953 C 0.52381 0.05779 0.87491 0.0
C2954 C 0.52984 0.07892 0.87423 0.0
C2955 C 0.5131 0.01845 0.87697 0.0
C2956 C 0.51232 0.02872 0.88756 0.0
C2957 C 0.51794 0.04833 0.88644 0.0
C2958 C 0.50522 0.01911 0.89978 0.0
C2959 C 0.50783 0.99754 0.87776 0.0
C2960 C 0.48542 0.00495 0.90122 0.0
C2961 C 0.47877 0.99528 0.91254 0.0
C2962 C 0.49181 0.99946 0.92269 0.0
C2963 C 0.5116 0.01404 0.92129 0.0
C2964 C 0.51821 0.02382 0.90995 0.0
H2965 H 0.51298 0.99287 0.8695 0.0
H2966 H 0.51428 0.99508 0.88632 0.0
H2967 H 0.4916 0.98827 0.87827 0.0
H2968 H 0.47509 0.00131 0.89355 0.0
H2969 H 0.46335 0.9845 0.91332 0.0
H2970 H 0.10946 0.26622 0.52057 0.0
H2971 H 0.11772 0.28039 0.49978 0.0
H2972 H 0.17082 0.27699 0.50035 0.0
H2973 H 0.16306 0.26348 0.52132 0.0
H2974 H 0.17747 0.31215 0.49255 0.0
H2975 H 0.11404 0.25393 0.46648 0.0
H2976 H 0.10703 0.26331 0.47954 0.0
H2977 H 0.12041 0.25077 0.48215 0.0
C2978 C 0.12295 0.26855 0.51632 0.0
C2979 C 0.13555 0.26363 0.52267 0.0
C2980 C 0.12752 0.27643 0.50433 0.0
C2981 C 0.14473 0.27946 0.49838 0.0
C2982 C 0.15737 0.27464 0.50469 0.0
H2983 H 0.17631 0.31023 0.42021 0.0
H2984 H 0.16627 0.29333 0.44019 0.0
C2985 C 0.15282 0.26677 0.51667 0.0
C2986 C 0.15002 0.28843 0.4858 0.0
H2987 H 0.13375 0.28332 0.45559 0.0
C2988 C 0.16793 0.30579 0.48447 0.0
C2989 C 0.13772 0.28003 0.47519 0.0
C2990 C 0.11882 0.26088 0.47584 0.0
C2991 C 0.17369 0.31515 0.47292 0.0
C2992 C 0.16105 0.30716 0.46241 0.0
C2993 C 0.14334 0.28957 0.46366 0.0
C2994 C 0.16601 0.31694 0.45009 0.0
C2995 C 0.19342 0.33342 0.47204 0.0
C2996 C 0.16867 0.3356 0.4489 0.0
C2997 C 0.17435 0.34525 0.43752 0.0
C2998 C 0.17741 0.33644 0.427 0.0
C2999 C 0.17401 0.31743 0.42809 0.0
C3000 C 0.16834 0.30778 0.43952 0.0
H3001 H 0.20343 0.33468 0.47981 0.0
H3002 H 0.20066 0.33396 0.46305 0.0
H3003 H 0.19129 0.34615 0.47257 0.0
H3004 H 0.16646 0.34278 0.45683 0.0
H3005 H 0.17639 0.35969 0.43696 0.0
H3006 H 0.72009 0.88569 0.52296 0.0
H3007 H 0.70543 0.87901 0.50207 0.0
H3008 H 0.70368 0.82413 0.50135 0.0
H3009 H 0.71903 0.831 0.52209 0.0
H3010 H 0.71765 0.84464 0.4794 0.0
H3011 H 0.64792 0.8408 0.49353 0.0
H3012 H 0.66948 0.86286 0.49829 0.0
H3013 H 0.66493 0.84021 0.50466 0.0
C3014 C 0.71677 0.87227 0.51832 0.0
C3015 C 0.7207 0.85885 0.52421 0.0
C3016 C 0.70816 0.86838 0.50644 0.0
C3017 C 0.70315 0.85093 0.50027 0.0
C3018 C 0.70729 0.83761 0.50602 0.0
H3019 H 0.62727 0.80777 0.4345 0.0
H3020 H 0.64202 0.81174 0.45526 0.0
C3021 C 0.71593 0.84151 0.5179 0.0
C3022 C 0.69386 0.84673 0.48772 0.0
H3023 H 0.654 0.84202 0.47171 0.0
C3024 C 0.70368 0.84395 0.47771 0.0
C3025 C 0.67549 0.84556 0.4856 0.0
C3026 C 0.66372 0.84732 0.4961 0.0
C3027 C 0.69586 0.84051 0.46555 0.0
C3028 C 0.67791 0.84018 0.46334 0.0
C3029 C 0.66786 0.84248 0.47341 0.0
C3030 C 0.6693 0.83755 0.45065 0.0
C3031 C 0.70677 0.83704 0.45521 0.0
C3032 C 0.67968 0.85085 0.44123 0.0
C3033 C 0.67129 0.84862 0.42937 0.0
C3034 C 0.65228 0.83315 0.42676 0.0
C3035 C 0.64187 0.81993 0.43626 0.0
C3036 C 0.6503 0.82213 0.4481 0.0
H3037 H 0.71691 0.83231 0.45893 0.0
H3038 H 0.6964 0.82591 0.44849 0.0
H3039 H 0.7157 0.85071 0.45009 0.0
H3040 H 0.69415 0.86313 0.44309 0.0
H3041 H 0.67954 0.85922 0.42231 0.0
H3042 H 0.15276 0.84368 0.5291 0.0
H3043 H 0.16181 0.83958 0.50794 0.0
H3044 H 0.12699 0.86277 0.49283 0.0
H3045 H 0.11824 0.86738 0.51399 0.0
H3046 H 0.13756 0.81816 0.4874 0.0
H3047 H 0.18182 0.89679 0.47745 0.0
H3048 H 0.17448 0.88765 0.49304 0.0
H3049 H 0.15709 0.88851 0.4825 0.0
C3050 C 0.14711 0.84802 0.52128 0.0
C3051 C 0.13489 0.856 0.52325 0.0
C3052 C 0.1522 0.84555 0.50919 0.0
C3053 C 0.14529 0.85111 0.49883 0.0
C3054 C 0.13272 0.85865 0.50072 0.0
H3055 H 0.15402 0.82203 0.42106 0.0
H3056 H 0.14188 0.82559 0.44136 0.0
C3057 C 0.12758 0.86109 0.51281 0.0
C3058 C 0.15143 0.84914 0.48608 0.0
H3059 H 0.17758 0.87522 0.46092 0.0
C3060 C 0.14625 0.83061 0.48158 0.0
C3061 C 0.16295 0.86545 0.47858 0.0
C3062 C 0.16959 0.88576 0.48313 0.0
C3063 C 0.15226 0.82793 0.46976 0.0
C3064 C 0.16357 0.84422 0.46219 0.0
C3065 C 0.16878 0.86275 0.4667 0.0
C3066 C 0.1708 0.8424 0.44976 0.0
C3067 C 0.14689 0.80776 0.46559 0.0
C3068 C 0.19108 0.85108 0.44765 0.0
C3069 C 0.19807 0.84921 0.43605 0.0
C3070 C 0.18489 0.83871 0.42627 0.0
C3071 C 0.16456 0.83031 0.42836 0.0
C3072 C 0.15759 0.83216 0.43999 0.0
H3073 H 0.14201 0.79752 0.4735 0.0
H3074 H 0.13464 0.80236 0.45869 0.0
H3075 H 0.15956 0.80776 0.46102 0.0
H3076 H 0.20153 0.85917 0.45505 0.0
H3077 H 0.21381 0.85612 0.4347 0.0
H3078 H 0.62615 0.83973 0.16205 0.0
H3079 H 0.63972 0.84523 0.18332 0.0
H3080 H 0.6343 0.78873 0.18279 0.0
H3081 H 0.62058 0.78304 0.16159 0.0
H3082 H 0.61913 0.79943 0.20514 0.0
H3083 H 0.69601 0.85333 0.19229 0.0
H3084 H 0.67678 0.85712 0.18625 0.0
H3085 H 0.67837 0.83652 0.18108 0.0
C3086 C 0.62776 0.82845 0.1665 0.0
C3087 C 0.62241 0.81099 0.16015 0.0
C3088 C 0.63561 0.83166 0.17859 0.0
C3089 C 0.63812 0.81743 0.18452 0.0
C3090 C 0.63253 0.79989 0.1783 0.0
H3091 H 0.70336 0.82079 0.2504 0.0
H3092 H 0.68888 0.81629 0.22953 0.0
C3093 C 0.62483 0.79673 0.16619 0.0
C3094 C 0.6466 0.82078 0.19724 0.0
H3095 H 0.68942 0.84688 0.21373 0.0
C3096 C 0.63447 0.80983 0.20706 0.0
C3097 C 0.66665 0.83424 0.19962 0.0
C3098 C 0.68033 0.84594 0.18928 0.0
C3099 C 0.64188 0.81211 0.21927 0.0
C3100 C 0.6619 0.82569 0.22166 0.0
C3101 C 0.67405 0.83655 0.21183 0.0
C3102 C 0.6706 0.82854 0.23429 0.0
C3103 C 0.62841 0.79976 0.22951 0.0
C3104 C 0.66522 0.83709 0.2438 0.0
C3105 C 0.67362 0.8399 0.2557 0.0
C3106 C 0.68755 0.83416 0.2583 0.0
C3107 C 0.6929 0.82562 0.24869 0.0
C3108 C 0.68457 0.82293 0.23678 0.0
H3109 H 0.61438 0.78766 0.22575 0.0
H3110 H 0.63574 0.79368 0.23531 0.0
H3111 H 0.62491 0.80885 0.23567 0.0
H3112 H 0.65465 0.84176 0.24198 0.0
H3113 H 0.66942 0.84683 0.26281 0.0
H3114 H 0.17508 0.78245 0.16026 0.0
H3115 H 0.16614 0.78802 0.18107 0.0
H3116 H 0.22331 0.83905 0.1854 0.0
H3117 H 0.2322 0.83373 0.16444 0.0
H3118 H 0.1821 0.78908 0.20352 0.0
H3119 H 0.18787 0.86016 0.19457 0.0
H3120 H 0.1882 0.8449 0.18217 0.0
H3121 H 0.21002 0.85967 0.19133 0.0
C3122 C 0.18576 0.79485 0.16565 0.0
C3123 C 0.20433 0.80769 0.1607 0.0
C3124 C 0.18061 0.79804 0.17753 0.0
C3125 C 0.19392 0.81412 0.18474 0.0
C3126 C 0.21259 0.82684 0.1799 0.0
H3127 H 0.18497 0.84763 0.26134 0.0
H3128 H 0.19731 0.84386 0.2411 0.0
C3129 C 0.21769 0.82375 0.16794 0.0
C3130 C 0.18826 0.81722 0.19741 0.0
H3131 H 0.1822 0.84932 0.21549 0.0
C3132 C 0.18212 0.80225 0.20612 0.0
C3133 C 0.18827 0.83442 0.20081 0.0
C3134 C 0.19376 0.85064 0.1917 0.0
C3135 C 0.17596 0.80401 0.2181 0.0
C3136 C 0.17593 0.82114 0.22145 0.0
C3137 C 0.18234 0.83623 0.21286 0.0
C3138 C 0.16856 0.82332 0.23369 0.0
C3139 C 0.16953 0.78757 0.22714 0.0
C3140 C 0.14834 0.81309 0.23613 0.0
C3141 C 0.14125 0.81528 0.24762 0.0
C3142 C 0.1543 0.82766 0.25689 0.0
C3143 C 0.17459 0.83785 0.25441 0.0
C3144 C 0.18165 0.83579 0.24287 0.0
H3145 H 0.17345 0.77668 0.22389 0.0
H3146 H 0.17634 0.79315 0.23646 0.0
H3147 H 0.15332 0.78023 0.22823 0.0
H3148 H 0.13803 0.80347 0.22912 0.0
H3149 H 0.12558 0.80711 0.24929 0.0
H3150 H 0.17532 0.40614 0.16186 0.0
H3151 H 0.16766 0.39243 0.18279 0.0
H3152 H 0.22162 0.39057 0.18348 0.0
H3153 H 0.22941 0.40433 0.16255 0.0
H3154 H 0.16172 0.35769 0.19048 0.0
H3155 H 0.22441 0.41624 0.21686 0.0
H3156 H 0.21815 0.41938 0.20116 0.0
H3157 H 0.23182 0.40716 0.20384 0.0
C3158 C 0.18558 0.40281 0.16645 0.0
C3159 C 0.203 0.40636 0.16049 0.0
C3160 C 0.18121 0.39505 0.17846 0.0
C3161 C 0.19418 0.39071 0.18482 0.0
C3162 C 0.2116 0.39424 0.17892 0.0
H3163 H 0.1625 0.30998 0.24601 0.0
H3164 H 0.1726 0.32703 0.22619 0.0
C3165 C 0.21602 0.40208 0.16692 0.0
C3166 C 0.18893 0.3816 0.19736 0.0
H3167 H 0.20498 0.38664 0.22762 0.0
C3168 C 0.17116 0.36408 0.1986 0.0
C3169 C 0.2011 0.39003 0.20802 0.0
C3170 C 0.21984 0.40933 0.20747 0.0
C3171 C 0.16539 0.3546 0.21012 0.0
C3172 C 0.1779 0.36264 0.22067 0.0
C3173 C 0.19549 0.38036 0.21951 0.0
C3174 C 0.1729 0.35279 0.23296 0.0
C3175 C 0.14575 0.33619 0.2109 0.0
C3176 C 0.17045 0.36187 0.24354 0.0
C3177 C 0.16471 0.35214 0.25494 0.0
C3178 C 0.16135 0.33315 0.25599 0.0
C3179 C 0.16452 0.32441 0.24547 0.0
C3180 C 0.1703 0.33414 0.23412 0.0
H3181 H 0.13576 0.33491 0.20311 0.0
H3182 H 0.14806 0.32358 0.2103 0.0
H3183 H 0.1384 0.33546 0.21987 0.0
H3184 H 0.17248 0.3763 0.24289 0.0
H3185 H 0.16233 0.35928 0.26282 0.0
H3186 H 0.8312 0.60111 0.85673 0.0
H3187 H 0.83923 0.61474 0.83579 0.0
H3188 H 0.78082 0.60649 0.83178 0.0
H3189 H 0.77284 0.59319 0.85284 0.0
H3190 H 0.82399 0.5996 0.81334 0.0
H3191 H 0.81328 0.66227 0.82226 0.0
H3192 H 0.81396 0.64747 0.83467 0.0
H3193 H 0.7919 0.63941 0.8255 0.0
C3194 C 0.82004 0.60216 0.85138 0.0
C3195 C 0.8014 0.59615 0.8565 0.0
C3196 C 0.82467 0.61001 0.83941 0.0
C3197 C 0.81077 0.612 0.83223 0.0
C3198 C 0.79201 0.60565 0.83722 0.0
H3199 H 0.81737 0.65511 0.75615 0.0
H3200 H 0.8054 0.63811 0.77602 0.0
C3201 C 0.78743 0.59797 0.84926 0.0
C3202 C 0.81593 0.62045 0.81949 0.0
H3203 H 0.81909 0.65695 0.8013 0.0
C3204 C 0.82292 0.61215 0.81074 0.0
C3205 C 0.81456 0.63686 0.81603 0.0
C3206 C 0.8082 0.64715 0.82513 0.0
C3207 C 0.82855 0.61977 0.79869 0.0
C3208 C 0.82723 0.63616 0.79529 0.0
C3209 C 0.81996 0.6443 0.80392 0.0
C3210 C 0.83427 0.64568 0.78302 0.0
C3211 C 0.83584 0.61023 0.78966 0.0
C3212 C 0.85445 0.65556 0.78039 0.0
C3213 C 0.86132 0.66534 0.76912 0.0
C3214 C 0.84813 0.66539 0.7602 0.0
C3215 C 0.82787 0.6552 0.76277 0.0
C3216 C 0.82102 0.64557 0.77414 0.0
H3217 H 0.83216 0.59554 0.79272 0.0
H3218 H 0.82946 0.60912 0.78021 0.0
H3219 H 0.85208 0.6192 0.78894 0.0
H3220 H 0.86495 0.65597 0.78716 0.0
H3221 H 0.87699 0.67292 0.76739 0.0
H3222 H 0.41456 0.20639 0.84649 0.0
H3223 H 0.40017 0.20082 0.82551 0.0
H3224 H 0.34203 0.16857 0.84102 0.0
H3225 H 0.35629 0.17404 0.86203 0.0
H3226 H 0.34706 0.15083 0.82012 0.0
H3227 H 0.37233 0.22824 0.81134 0.0
H3228 H 0.39171 0.22355 0.81553 0.0
H3229 H 0.37292 0.21931 0.82666 0.0
C3230 C 0.3987 0.19819 0.84543 0.0
C3231 C 0.38655 0.19077 0.85592 0.0
C3232 C 0.39052 0.19504 0.83345 0.0
C3233 C 0.37003 0.18458 0.83174 0.0
C3234 C 0.35788 0.17674 0.84215 0.0
H3235 H 0.305 0.1845 0.76631 0.0
H3236 H 0.31903 0.18779 0.78719 0.0
C3237 C 0.36605 0.17981 0.85413 0.0
C3238 C 0.36123 0.18188 0.81911 0.0
H3239 H 0.35781 0.20653 0.79424 0.0
C3240 C 0.34937 0.16299 0.81445 0.0
C3241 C 0.36407 0.19778 0.81183 0.0
C3242 C 0.37579 0.21836 0.81662 0.0
C3243 C 0.34043 0.15956 0.80262 0.0
C3244 C 0.34374 0.17548 0.79519 0.0
C3245 C 0.35544 0.19436 0.79991 0.0
C3246 C 0.33489 0.17291 0.78258 0.0
C3247 C 0.3272 0.13893 0.79829 0.0
C3248 C 0.33926 0.16356 0.77304 0.0
C3249 C 0.33109 0.16146 0.76112 0.0
C3250 C 0.31853 0.16885 0.75848 0.0
C3251 C 0.31434 0.17836 0.76806 0.0
C3252 C 0.32246 0.18038 0.77998 0.0
H3253 H 0.32207 0.12872 0.80623 0.0
H3254 H 0.31415 0.13737 0.79318 0.0
H3255 H 0.33548 0.13466 0.79188 0.0
H3256 H 0.34913 0.15801 0.77477 0.0
H3257 H 0.33451 0.15392 0.75399 0.0
H3258 H 0.83199 0.21769 0.85753 0.0
H3259 H 0.84059 0.21258 0.83652 0.0
H3260 H 0.78297 0.16247 0.83175 0.0
H3261 H 0.77434 0.16704 0.85296 0.0
H3262 H 0.83732 0.17473 0.82753 0.0
H3263 H 0.79335 0.19939 0.80038 0.0
H3264 H 0.80124 0.20732 0.81627 0.0
H3265 H 0.78172 0.18313 0.81317 0.0
C3266 C 0.82116 0.20545 0.8521 0.0
C3267 C 0.80249 0.1927 0.85702 0.0
C3268 C 0.82607 0.20266 0.84005 0.0
C3269 C 0.81238 0.18724 0.83259 0.0
C3270 C 0.79366 0.17459 0.83734 0.0
H3271 H 0.82225 0.1557 0.75568 0.0
H3272 H 0.80989 0.15813 0.7762 0.0
C3273 C 0.78875 0.17728 0.84945 0.0
C3274 C 0.81805 0.1841 0.82001 0.0
H3275 H 0.81177 0.18873 0.78893 0.0
C3276 C 0.83172 0.17773 0.81907 0.0
C3277 C 0.81054 0.18786 0.80904 0.0
C3278 C 0.79595 0.19489 0.80965 0.0
C3279 C 0.83818 0.17508 0.80742 0.0
C3280 C 0.8312 0.17947 0.79641 0.0
C3281 C 0.8172 0.18547 0.79736 0.0
C3282 C 0.8386 0.17833 0.78388 0.0
C3283 C 0.8522 0.16732 0.80702 0.0
C3284 C 0.85878 0.18919 0.78128 0.0
C3285 C 0.86586 0.18776 0.76961 0.0
C3286 C 0.85288 0.17564 0.76022 0.0
C3287 C 0.8326 0.16521 0.76271 0.0
C3288 C 0.82553 0.16654 0.77443 0.0
H3289 H 0.85122 0.15916 0.8156 0.0
H3290 H 0.84922 0.15766 0.7988 0.0
H3291 H 0.86749 0.1796 0.8064 0.0
H3292 H 0.86908 0.19883 0.78828 0.0
H3293 H 0.88151 0.19627 0.7679 0.0
H3294 H 0.2607 0.13493 0.50191 0.0
H3295 H 0.27497 0.14117 0.52294 0.0
H3296 H 0.33207 0.15903 0.50749 0.0
H3297 H 0.31812 0.15336 0.48641 0.0
H3298 H 0.31857 0.13007 0.52754 0.0
H3299 H 0.31376 0.19567 0.53921 0.0
H3300 H 0.29189 0.17523 0.53288 0.0
H3301 H 0.31329 0.18767 0.52333 0.0
C3302 C 0.27635 0.14048 0.50295 0.0
C3303 C 0.28826 0.14366 0.49245 0.0
C3304 C 0.28445 0.14397 0.51498 0.0
C3305 C 0.30456 0.15066 0.51672 0.0
C3306 C 0.3165 0.15385 0.5063 0.0
H3307 H 0.37918 0.19434 0.58241 0.0
H3308 H 0.36443 0.1891 0.56151 0.0
C3309 C 0.30846 0.15048 0.49427 0.0
C3310 C 0.31309 0.15383 0.52941 0.0
H3311 H 0.32444 0.18282 0.55529 0.0
C3312 C 0.31987 0.14158 0.53362 0.0
C3313 C 0.31482 0.16895 0.53724 0.0
C3314 C 0.30821 0.18277 0.53297 0.0
C3315 C 0.3282 0.14395 0.54557 0.0
C3316 C 0.32972 0.15892 0.55345 0.0
C3317 C 0.32313 0.1713 0.5492 0.0
C3318 C 0.33841 0.1621 0.5661 0.0
C3319 C 0.33558 0.13063 0.54964 0.0
C3320 C 0.32853 0.14871 0.57556 0.0
C3321 C 0.33689 0.15166 0.58748 0.0
C3322 C 0.35531 0.16804 0.59011 0.0
C3323 C 0.3651 0.18148 0.58061 0.0
C3324 C 0.35665 0.17858 0.56871 0.0
H3325 H 0.33648 0.12207 0.5417 0.0
H3326 H 0.35034 0.13903 0.55409 0.0
H3327 H 0.32539 0.1204 0.55665 0.0
H3328 H 0.31435 0.13598 0.57371 0.0
H3329 H 0.32907 0.141 0.5946 0.0
H3330 H 0.90036 0.16621 0.49903 0.0
H3331 H 0.89124 0.17112 0.52004 0.0
H3332 H 0.83473 0.1193 0.51565 0.0
H3333 H 0.84385 0.11417 0.4948 0.0
H3334 H 0.86181 0.17677 0.52775 0.0
H3335 H 0.85243 0.10951 0.54871 0.0
H3336 H 0.86402 0.11813 0.5338 0.0
H3337 H 0.8376 0.10475 0.53493 0.0
C3338 C 0.88601 0.15586 0.50257 0.0
C3339 C 0.8729 0.13969 0.49531 0.0
C3340 C 0.88083 0.15865 0.51458 0.0
C3341 C 0.86246 0.14535 0.51955 0.0
C3342 C 0.84922 0.12943 0.5122 0.0
H3343 H 0.79306 0.14007 0.58296 0.0
H3344 H 0.806 0.13662 0.56293 0.0
C3345 C 0.85443 0.12654 0.50026 0.0
C3346 C 0.85683 0.14839 0.53223 0.0
H3347 H 0.8391 0.12614 0.56016 0.0
C3348 C 0.85707 0.16579 0.53488 0.0
C3349 C 0.85072 0.1341 0.54158 0.0
C3350 C 0.85136 0.11567 0.53967 0.0
C3351 C 0.85074 0.16897 0.54645 0.0
C3352 C 0.84403 0.15442 0.55558 0.0
C3353 C 0.84412 0.1372 0.55306 0.0
C3354 C 0.8364 0.15664 0.56772 0.0
C3355 C 0.85076 0.18765 0.54877 0.0
C3356 C 0.84927 0.16893 0.57704 0.0
C3357 C 0.84194 0.17088 0.58851 0.0
C3358 C 0.82159 0.16065 0.59081 0.0
C3359 C 0.80878 0.14831 0.58142 0.0
C3360 C 0.81614 0.14625 0.57001 0.0
H3361 H 0.85441 0.19661 0.54025 0.0
H3362 H 0.83614 0.18457 0.55216 0.0
H3363 H 0.86177 0.19617 0.55614 0.0
H3364 H 0.86498 0.17698 0.57544 0.0
H3365 H 0.85216 0.1806 0.59553 0.0
H3366 H 0.89812 0.73997 0.49704 0.0
H3367 H 0.89015 0.72671 0.51813 0.0
H3368 H 0.83182 0.71851 0.51419 0.0
H3369 H 0.83974 0.73225 0.49331 0.0
H3370 H 0.8742 0.73956 0.53965 0.0
H3371 H 0.82511 0.66388 0.52322 0.0
H3372 H 0.84353 0.68222 0.51338 0.0
H3373 H 0.82097 0.68205 0.51635 0.0
C3374 C 0.88367 0.7356 0.50069 0.0
C3375 C 0.86954 0.7371 0.49336 0.0
C3376 C 0.87913 0.72794 0.51274 0.0
C3377 C 0.86034 0.72145 0.51766 0.0
C3378 C 0.84633 0.72319 0.5105 0.0
H3379 H 0.79591 0.66037 0.58302 0.0
H3380 H 0.80726 0.67702 0.56314 0.0
C3381 C 0.85087 0.73096 0.49851 0.0
C3382 C 0.85518 0.71257 0.53021 0.0
H3383 H 0.82585 0.66985 0.54488 0.0
C3384 C 0.86372 0.7243 0.54083 0.0
C3385 C 0.84149 0.69269 0.5317 0.0
C3386 C 0.83229 0.67936 0.52058 0.0
C3387 C 0.85846 0.71676 0.55294 0.0
C3388 C 0.84465 0.69684 0.55445 0.0
C3389 C 0.83638 0.68511 0.54377 0.0
C3390 C 0.83815 0.68781 0.56694 0.0
C3391 C 0.86724 0.73036 0.56398 0.0
C3392 C 0.8517 0.68836 0.57579 0.0
C3393 C 0.84522 0.67892 0.58724 0.0
C3394 C 0.82503 0.66847 0.58998 0.0
C3395 C 0.81154 0.66811 0.58115 0.0
C3396 C 0.81802 0.67767 0.56978 0.0
H3397 H 0.87298 0.74567 0.56129 0.0
H3398 H 0.85623 0.7267 0.57147 0.0
H3399 H 0.87971 0.72913 0.56782 0.0
H3400 H 0.86726 0.69566 0.57373 0.0
H3401 H 0.85595 0.67926 0.59378 0.0
loop_
_geom_bond_atom_site_label_1
_geom_bond_atom_site_label_2
_geom_bond_distance
_geom_bond_site_symmetry_2
_ccdc_geom_bond_type
C0 C1 1.386 . S
C0 C2 1.397 . S
C0 H24 0.931 . S
C1 C0 1.386 . S
C1 C5 1.397 . S
C2 C0 1.397 . S
C2 C3 1.384 . S
C2 H25 0.930 . S
C3 C2 1.384 . S
C3 C4 1.377 . S
C3 C6 1.481 . S
C4 C3 1.377 . S
C4 C5 1.389 . S
C4 H26 0.929 . S
C5 C1 1.397 . S
C5 C4 1.389 . S
C5 H27 0.931 . S
C6 C3 1.481 . S
C6 C7 1.387 . S
C6 C11 1.390 . S
C7 C6 1.387 . S
C7 C8 1.401 . S
C7 H28 0.930 . S
C8 C7 1.401 . S
C8 C9 1.376 . S
C8 C17 1.511 . S
C9 C8 1.376 . S
C9 C10 1.392 . S
C9 H30 0.931 . S
C10 C9 1.392 . S
C10 C11 1.361 . S
C10 C12 1.500 . S
C11 C6 1.390 . S
C11 C10 1.361 . S
C11 H29 0.931 . S
C12 C10 1.500 . S
C12 C13 1.371 . S
C12 C14 1.365 . S
C13 C12 1.371 . S
C13 C23 1.386 . S
C13 H31 0.931 . S
C14 C12 1.365 . S
C14 C15 1.409 . S
C14 H32 0.929 . S
C15 C14 1.409 . S
C15 C16 1.380 . S
C15 H33 0.930 . S
C16 C15 1.380 . S
C16 C23 1.357 . S
C17 C8 1.511 . S
C17 C18 1.341 . S
C17 C19 1.371 . S
C18 C17 1.341 . S
C18 C22 1.394 . S
C18 H34 0.930 . S
C19 C17 1.371 . S
C19 C20 1.392 . S
C19 H35 0.931 . S
C20 C19 1.392 . S
C20 C21 1.331 . S
C20 H38 0.932 . S
C21 C20 1.331 . S
C21 C22 1.336 . S
C22 C18 1.394 . S
C22 C21 1.336 . S
C22 H37 0.929 . S
C23 C13 1.386 . S
C23 C16 1.357 . S
C23 H36 0.928 . S
H24 C0 0.931 . S
H25 C2 0.930 . S
H26 C4 0.929 . S
H27 C5 0.931 . S
H28 C7 0.930 . S
H29 C11 0.931 . S
H30 C9 0.931 . S
H31 C13 0.931 . S
H32 C14 0.929 . S
H33 C15 0.930 . S
H34 C18 0.930 . S
H35 C19 0.931 . S
H36 C23 0.928 . S
H37 C22 0.929 . S
H38 C20 0.932 . S
C39 C40 1.386 . S
C39 C41 1.397 . S
C39 H63 0.931 . S
C40 C39 1.386 . S
C40 C44 1.397 . S
C41 C39 1.397 . S
C41 C42 1.384 . S
C41 H64 0.930 . S
C42 C41 1.384 . S
C42 C43 1.377 . S
C42 C45 1.481 . S
C43 C42 1.377 . S
C43 C44 1.389 . S
C43 H65 0.929 . S
C44 C40 1.397 . S
C44 C43 1.389 . S
C44 H66 0.931 . S
C45 C42 1.481 . S
C45 C46 1.387 . S
C45 C50 1.390 . S
C46 C45 1.387 . S
C46 C47 1.401 . S
C46 H67 0.930 . S
C47 C46 1.401 . S
C47 C48 1.376 . S
C47 C56 1.511 . S
C48 C47 1.376 . S
C48 C49 1.392 . S
C48 H69 0.931 . S
C49 C48 1.392 . S
C49 C50 1.361 . S
C49 C51 1.500 . S
C50 C45 1.390 . S
C50 C49 1.361 . S
C50 H68 0.931 . S
C51 C49 1.500 . S
C51 C52 1.371 . S
C51 C53 1.365 . S
C52 C51 1.371 . S
C52 C62 1.386 . S
C52 H70 0.931 . S
C53 C51 1.365 . S
C53 C54 1.409 . S
C53 H71 0.929 . S
C54 C53 1.409 . S
C54 C55 1.380 . S
C54 H72 0.930 . S
C55 C54 1.380 . S
C55 C62 1.357 . S
C56 C47 1.511 . S
C56 C57 1.341 . S
C56 C58 1.371 . S
C57 C56 1.341 . S
C57 C61 1.394 . S
C57 H73 0.930 . S
C58 C56 1.371 . S
C58 C59 1.392 . S
C58 H74 0.931 . S
C59 C58 1.392 . S
C59 C60 1.331 . S
C59 H77 0.932 . S
C60 C59 1.331 . S
C60 C61 1.336 . S
C61 C57 1.394 . S
C61 C60 1.336 . S
C61 H76 0.929 . S
C62 C52 1.386 . S
C62 C55 1.357 . S
C62 H75 0.928 . S
H63 C39 0.931 . S
H64 C41 0.930 . S
H65 C43 0.929 . S
H66 C44 0.931 . S
H67 C46 0.930 . S
H68 C50 0.931 . S
H69 C48 0.931 . S
H70 C52 0.931 . S
H71 C53 0.929 . S
H72 C54 0.930 . S
H73 C57 0.930 . S
H74 C58 0.931 . S
H75 C62 0.928 . S
H76 C61 0.929 . S
H77 C59 0.932 . S
C78 C79 1.386 . S
C78 C80 1.397 . S
C78 H102 0.931 . S
C79 C78 1.386 . S
C79 C83 1.397 . S
C80 C78 1.397 . S
C80 C81 1.384 . S
C80 H103 0.930 . S
C81 C80 1.384 . S
C81 C82 1.377 . S
C81 C84 1.481 . S
C82 C81 1.377 . S
C82 C83 1.389 . S
C82 H104 0.929 . S
C83 C79 1.397 . S
C83 C82 1.389 . S
C83 H105 0.931 . S
C84 C81 1.481 . S
C84 C85 1.387 . S
C84 C89 1.390 . S
C85 C84 1.387 . S
C85 C86 1.401 . S
C85 H106 0.930 . S
C86 C85 1.401 . S
C86 C87 1.376 . S
C86 C95 1.511 . S
C87 C86 1.376 . S
C87 C88 1.392 . S
C87 H108 0.931 . S
C88 C87 1.392 . S
C88 C89 1.361 . S
C88 C90 1.500 . S
C89 C84 1.390 . S
C89 C88 1.361 . S
C89 H107 0.931 . S
C90 C88 1.500 . S
C90 C91 1.371 . S
C90 C92 1.365 . S
C91 C90 1.371 . S
C91 C101 1.386 . S
C91 H109 0.931 . S
C92 C90 1.365 . S
C92 C93 1.409 . S
C92 H110 0.929 . S
C93 C92 1.409 . S
C93 C94 1.380 . S
C93 H111 0.930 . S
C94 C93 1.380 . S
C94 C101 1.357 . S
C95 C86 1.511 . S
C95 C96 1.341 . S
C95 C97 1.371 . S
C96 C95 1.341 . S
C96 C100 1.394 . S
C96 H112 0.930 . S
C97 C95 1.371 . S
C97 C98 1.392 . S
C97 H113 0.931 . S
C98 C97 1.392 . S
C98 C99 1.331 . S
C98 H116 0.932 . S
C99 C98 1.331 . S
C99 C100 1.336 . S
C100 C96 1.394 . S
C100 C99 1.336 . S
C100 H115 0.929 . S
C101 C91 1.386 . S
C101 C94 1.357 . S
C101 H114 0.928 . S
H102 C78 0.931 . S
H103 C80 0.930 . S
H104 C82 0.929 . S
H105 C83 0.931 . S
H106 C85 0.930 . S
H107 C89 0.931 . S
H108 C87 0.931 . S
H109 C91 0.931 . S
H110 C92 0.929 . S
H111 C93 0.930 . S
H112 C96 0.930 . S
H113 C97 0.931 . S
H114 C101 0.928 . S
H115 C100 0.929 . S
H116 C98 0.932 . S
C117 C118 1.386 . S
C117 C119 1.397 . S
C117 H141 0.931 . S
C118 C117 1.386 . S
C118 C122 1.397 . S
C119 C117 1.397 . S
C119 C120 1.384 . S
C119 H142 0.930 . S
C120 C119 1.384 . S
C120 C121 1.377 . S
C120 C123 1.481 . S
C121 C120 1.377 . S
C121 C122 1.389 . S
C121 H143 0.929 . S
C122 C118 1.397 . S
C122 C121 1.389 . S
C122 H144 0.931 . S
C123 C120 1.481 . S
C123 C124 1.387 . S
C123 C128 1.390 . S
C124 C123 1.387 . S
C124 C125 1.401 . S
C124 H145 0.930 . S
C125 C124 1.401 . S
C125 C126 1.376 . S
C125 C134 1.511 . S
C126 C125 1.376 . S
C126 C127 1.392 . S
C126 H147 0.931 . S
C127 C126 1.392 . S
C127 C128 1.361 . S
C127 C129 1.500 . S
C128 C123 1.390 . S
C128 C127 1.361 . S
C128 H146 0.931 . S
C129 C127 1.500 . S
C129 C130 1.371 . S
C129 C131 1.365 . S
C130 C129 1.371 . S
C130 C140 1.386 . S
C130 H148 0.931 . S
C131 C129 1.365 . S
C131 C132 1.409 . S
C131 H149 0.929 . S
C132 C131 1.409 . S
C132 C133 1.380 . S
C132 H150 0.930 . S
C133 C132 1.380 . S
C133 C140 1.357 . S
C134 C125 1.511 . S
C134 C135 1.341 . S
C134 C136 1.371 . S
C135 C134 1.341 . S
C135 C139 1.394 . S
C135 H151 0.930 . S
C136 C134 1.371 . S
C136 C137 1.392 . S
C136 H152 0.931 . S
C137 C136 1.392 . S
C137 C138 1.331 . S
C137 H155 0.932 . S
C138 C137 1.331 . S
C138 C139 1.336 . S
C139 C135 1.394 . S
C139 C138 1.336 . S
C139 H154 0.929 . S
C140 C130 1.386 . S
C140 C133 1.357 . S
C140 H153 0.928 . S
H141 C117 0.931 . S
H142 C119 0.930 . S
H143 C121 0.929 . S
H144 C122 0.931 . S
H145 C124 0.930 . S
H146 C128 0.931 . S
H147 C126 0.931 . S
H148 C130 0.931 . S
H149 C131 0.929 . S
H150 C132 0.930 . S
H151 C135 0.930 . S
H152 C136 0.931 . S
H153 C140 0.928 . S
H154 C139 0.929 . S
H155 C137 0.932 . S
C156 C157 1.386 . S
C156 C158 1.397 . S
C156 H180 0.931 . S
C157 C156 1.386 . S
C157 C161 1.397 . S
C158 C156 1.397 . S
C158 C159 1.384 . S
C158 H181 0.930 . S
C159 C158 1.384 . S
C159 C160 1.377 . S
C159 C162 1.481 . S
C160 C159 1.377 . S
C160 C161 1.389 . S
C160 H182 0.929 . S
C161 C157 1.397 . S
C161 C160 1.389 . S
C161 H183 0.931 . S
C162 C159 1.481 . S
C162 C163 1.387 . S
C162 C167 1.390 . S
C163 C162 1.387 . S
C163 C164 1.401 . S
C163 H184 0.930 . S
C164 C163 1.401 . S
C164 C165 1.376 . S
C164 C173 1.511 . S
C165 C164 1.376 . S
C165 C166 1.392 . S
C165 H186 0.931 . S
C166 C165 1.392 . S
C166 C167 1.361 . S
C166 C168 1.500 . S
C167 C162 1.390 . S
C167 C166 1.361 . S
C167 H185 0.931 . S
C168 C166 1.500 . S
C168 C169 1.371 . S
C168 C170 1.365 . S
C169 C168 1.371 . S
C169 C179 1.386 . S
C169 H187 0.931 . S
C170 C168 1.365 . S
C170 C171 1.409 . S
C170 H188 0.929 . S
C171 C170 1.409 . S
C171 C172 1.380 . S
C171 H189 0.930 . S
C172 C171 1.380 . S
C172 C179 1.357 . S
C173 C164 1.511 . S
C173 C174 1.341 . S
C173 C175 1.371 . S
C174 C173 1.341 . S
C174 C178 1.394 . S
C174 H190 0.930 . S
C175 C173 1.371 . S
C175 C176 1.392 . S
C175 H191 0.931 . S
C176 C175 1.392 . S
C176 C177 1.331 . S
C176 H194 0.932 . S
C177 C176 1.331 . S
C177 C178 1.336 . S
C178 C174 1.394 . S
C178 C177 1.336 . S
C178 H193 0.929 . S
C179 C169 1.386 . S
C179 C172 1.357 . S
C179 H192 0.928 . S
H180 C156 0.931 . S
H181 C158 0.930 . S
H182 C160 0.929 . S
H183 C161 0.931 . S
H184 C163 0.930 . S
H185 C167 0.931 . S
H186 C165 0.931 . S
H187 C169 0.931 . S
H188 C170 0.929 . S
H189 C171 0.930 . S
H190 C174 0.930 . S
H191 C175 0.931 . S
H192 C179 0.928 . S
H193 C178 0.929 . S
H194 C176 0.932 . S
C195 C196 1.386 . S
C195 C197 1.397 . S
C195 H219 0.931 . S
C196 C195 1.386 . S
C196 C200 1.397 . S
C197 C195 1.397 . S
C197 C198 1.384 . S
C197 H220 0.930 . S
C198 C197 1.384 . S
C198 C199 1.377 . S
C198 C201 1.481 . S
C199 C198 1.377 . S
C199 C200 1.389 . S
C199 H221 0.929 . S
C200 C196 1.397 . S
C200 C199 1.389 . S
C200 H222 0.931 . S
C201 C198 1.481 . S
C201 C202 1.387 . S
C201 C206 1.390 . S
C202 C201 1.387 . S
C202 C203 1.401 . S
C202 H223 0.930 . S
C203 C202 1.401 . S
C203 C204 1.376 . S
C203 C212 1.511 . S
C204 C203 1.376 . S
C204 C205 1.392 . S
C204 H225 0.931 . S
C205 C204 1.392 . S
C205 C206 1.361 . S
C205 C207 1.500 . S
C206 C201 1.390 . S
C206 C205 1.361 . S
C206 H224 0.931 . S
C207 C205 1.500 . S
C207 C208 1.371 . S
C207 C209 1.365 . S
C208 C207 1.371 . S
C208 C218 1.386 . S
C208 H226 0.931 . S
C209 C207 1.365 . S
C209 C210 1.409 . S
C209 H227 0.929 . S
C210 C209 1.409 . S
C210 C211 1.380 . S
C210 H228 0.930 . S
C211 C210 1.380 . S
C211 C218 1.357 . S
C212 C203 1.511 . S
C212 C213 1.341 . S
C212 C214 1.371 . S
C213 C212 1.341 . S
C213 C217 1.394 . S
C213 H229 0.930 . S
C214 C212 1.371 . S
C214 C215 1.392 . S
C214 H230 0.931 . S
C215 C214 1.392 . S
C215 C216 1.331 . S
C215 H233 0.932 . S
C216 C215 1.331 . S
C216 C217 1.336 . S
C217 C213 1.394 . S
C217 C216 1.336 . S
C217 H232 0.929 . S
C218 C208 1.386 . S
C218 C211 1.357 . S
C218 H231 0.928 . S
H219 C195 0.931 . S
H220 C197 0.930 . S
H221 C199 0.929 . S
H222 C200 0.931 . S
H223 C202 0.930 . S
H224 C206 0.931 . S
H225 C204 0.931 . S
H226 C208 0.931 . S
H227 C209 0.929 . S
H228 C210 0.930 . S
H229 C213 0.930 . S
H230 C214 0.931 . S
H231 C218 0.928 . S
H232 C217 0.929 . S
H233 C215 0.932 . S
C234 C235 1.386 . S
C234 C236 1.397 . S
C234 H258 0.931 . S
C235 C234 1.386 . S
C235 C239 1.397 . S
C236 C234 1.397 . S
C236 C237 1.384 . S
C236 H259 0.930 . S
C237 C236 1.384 . S
C237 C238 1.377 . S
C237 C240 1.481 . S
C238 C237 1.377 . S
C238 C239 1.389 . S
C238 H260 0.929 . S
C239 C235 1.397 . S
C239 C238 1.389 . S
C239 H261 0.931 . S
C240 C237 1.481 . S
C240 C241 1.387 . S
C240 C245 1.390 . S
C241 C240 1.387 . S
C241 C242 1.401 . S
C241 H262 0.930 . S
C242 C241 1.401 . S
C242 C243 1.376 . S
C242 C251 1.511 . S
C243 C242 1.376 . S
C243 C244 1.392 . S
C243 H264 0.931 . S
C244 C243 1.392 . S
C244 C245 1.361 . S
C244 C246 1.500 . S
C245 C240 1.390 . S
C245 C244 1.361 . S
C245 H263 0.931 . S
C246 C244 1.500 . S
C246 C247 1.371 . S
C246 C248 1.365 . S
C247 C246 1.371 . S
C247 C257 1.386 . S
C247 H265 0.931 . S
C248 C246 1.365 . S
C248 C249 1.409 . S
C248 H266 0.929 . S
C249 C248 1.409 . S
C249 C250 1.380 . S
C249 H267 0.930 . S
C250 C249 1.380 . S
C250 C257 1.357 . S
C251 C242 1.511 . S
C251 C252 1.341 . S
C251 C253 1.371 . S
C252 C251 1.341 . S
C252 C256 1.394 . S
C252 H268 0.930 . S
C253 C251 1.371 . S
C253 C254 1.392 . S
C253 H269 0.931 . S
C254 C253 1.392 . S
C254 C255 1.331 . S
C254 H272 0.932 . S
C255 C254 1.331 . S
C255 C256 1.336 . S
C256 C252 1.394 . S
C256 C255 1.336 . S
C256 H271 0.929 . S
C257 C247 1.386 . S
C257 C250 1.357 . S
C257 H270 0.928 . S
H258 C234 0.931 . S
H259 C236 0.930 . S
H260 C238 0.929 . S
H261 C239 0.931 . S
H262 C241 0.930 . S
H263 C245 0.931 . S
H264 C243 0.931 . S
H265 C247 0.931 . S
H266 C248 0.929 . S
H267 C249 0.930 . S
H268 C252 0.930 . S
H269 C253 0.931 . S
H270 C257 0.928 . S
H271 C256 0.929 . S
H272 C254 0.932 . S
C273 C274 1.386 . S
C273 C275 1.397 . S
C273 H297 0.931 . S
C274 C273 1.386 . S
C274 C278 1.397 . S
C275 C273 1.397 . S
C275 C276 1.384 . S
C275 H298 0.930 . S
C276 C275 1.384 . S
C276 C277 1.377 . S
C276 C279 1.481 . S
C277 C276 1.377 . S
C277 C278 1.389 . S
C277 H299 0.929 . S
C278 C274 1.397 . S
C278 C277 1.389 . S
C278 H300 0.931 . S
C279 C276 1.481 . S
C279 C280 1.387 . S
C279 C284 1.390 . S
C280 C279 1.387 . S
C280 C281 1.401 . S
C280 H301 0.930 . S
C281 C280 1.401 . S
C281 C282 1.376 . S
C281 C290 1.511 . S
C282 C281 1.376 . S
C282 C283 1.392 . S
C282 H303 0.931 . S
C283 C282 1.392 . S
C283 C284 1.361 . S
C283 C285 1.500 . S
C284 C279 1.390 . S
C284 C283 1.361 . S
C284 H302 0.931 . S
C285 C283 1.500 . S
C285 C286 1.371 . S
C285 C287 1.365 . S
C286 C285 1.371 . S
C286 C296 1.386 . S
C286 H304 0.931 . S
C287 C285 1.365 . S
C287 C288 1.409 . S
C287 H305 0.929 . S
C288 C287 1.409 . S
C288 C289 1.380 . S
C288 H306 0.930 . S
C289 C288 1.380 . S
C289 C296 1.357 . S
C290 C281 1.511 . S
C290 C291 1.341 . S
C290 C292 1.371 . S
C291 C290 1.341 . S
C291 C295 1.394 . S
C291 H307 0.930 . S
C292 C290 1.371 . S
C292 C293 1.392 . S
C292 H308 0.931 . S
C293 C292 1.392 . S
C293 C294 1.331 . S
C293 H311 0.932 . S
C294 C293 1.331 . S
C294 C295 1.336 . S
C295 C291 1.394 . S
C295 C294 1.336 . S
C295 H310 0.929 . S
C296 C286 1.386 . S
C296 C289 1.357 . S
C296 H309 0.928 . S
H297 C273 0.931 . S
H298 C275 0.930 . S
H299 C277 0.929 . S
H300 C278 0.931 . S
H301 C280 0.930 . S
H302 C284 0.931 . S
H303 C282 0.931 . S
H304 C286 0.931 . S
H305 C287 0.929 . S
H306 C288 0.930 . S
H307 C291 0.930 . S
H308 C292 0.931 . S
H309 C296 0.928 . S
H310 C295 0.929 . S
H311 C293 0.932 . S
C312 C313 1.386 . S
C312 C314 1.397 . S
C312 H336 0.931 . S
C313 C312 1.386 . S
C313 C317 1.397 . S
C314 C312 1.397 . S
C314 C315 1.384 . S
C314 H337 0.930 . S
C315 C314 1.384 . S
C315 C316 1.377 . S
C315 C318 1.481 . S
C316 C315 1.377 . S
C316 C317 1.389 . S
C316 H338 0.929 . S
C317 C313 1.397 . S
C317 C316 1.389 . S
C317 H339 0.931 . S
C318 C315 1.481 . S
C318 C319 1.387 . S
C318 C323 1.390 . S
C319 C318 1.387 . S
C319 C320 1.401 . S
C319 H340 0.930 . S
C320 C319 1.401 . S
C320 C321 1.376 . S
C320 C329 1.511 . S
C321 C320 1.376 . S
C321 C322 1.392 . S
C321 H342 0.931 . S
C322 C321 1.392 . S
C322 C323 1.361 . S
C322 C324 1.500 . S
C323 C318 1.390 . S
C323 C322 1.361 . S
C323 H341 0.931 . S
C324 C322 1.500 . S
C324 C325 1.371 . S
C324 C326 1.365 . S
C325 C324 1.371 . S
C325 C335 1.386 . S
C325 H343 0.931 . S
C326 C324 1.365 . S
C326 C327 1.409 . S
C326 H344 0.929 . S
C327 C326 1.409 . S
C327 C328 1.380 . S
C327 H345 0.930 . S
C328 C327 1.380 . S
C328 C335 1.357 . S
C329 C320 1.511 . S
C329 C330 1.341 . S
C329 C331 1.371 . S
C330 C329 1.341 . S
C330 C334 1.394 . S
C330 H346 0.930 . S
C331 C329 1.371 . S
C331 C332 1.392 . S
C331 H347 0.931 . S
C332 C331 1.392 . S
C332 C333 1.331 . S
C332 H350 0.932 . S
C333 C332 1.331 . S
C333 C334 1.336 . S
C334 C330 1.394 . S
C334 C333 1.336 . S
C334 H349 0.929 . S
C335 C325 1.386 . S
C335 C328 1.357 . S
C335 H348 0.928 . S
H336 C312 0.931 . S
H337 C314 0.930 . S
H338 C316 0.929 . S
H339 C317 0.931 . S
H340 C319 0.930 . S
H341 C323 0.931 . S
H342 C321 0.931 . S
H343 C325 0.931 . S
H344 C326 0.929 . S
H345 C327 0.930 . S
H346 C330 0.930 . S
H347 C331 0.931 . S
H348 C335 0.928 . S
H349 C334 0.929 . S
H350 C332 0.932 . S
C351 C352 1.386 . S
C351 C353 1.397 . S
C351 H375 0.931 . S
C352 C351 1.386 . S
C352 C356 1.397 . S
C353 C351 1.397 . S
C353 C354 1.384 . S
C353 H376 0.930 . S
C354 C353 1.384 . S
C354 C355 1.377 . S
C354 C357 1.481 . S
C355 C354 1.377 . S
C355 C356 1.389 . S
C355 H377 0.929 . S
C356 C352 1.397 . S
C356 C355 1.389 . S
C356 H378 0.931 . S
C357 C354 1.481 . S
C357 C358 1.387 . S
C357 C362 1.390 . S
C358 C357 1.387 . S
C358 C359 1.401 . S
C358 H379 0.930 . S
C359 C358 1.401 . S
C359 C360 1.376 . S
C359 C368 1.511 . S
C360 C359 1.376 . S
C360 C361 1.392 . S
C360 H381 0.931 . S
C361 C360 1.392 . S
C361 C362 1.361 . S
C361 C363 1.500 . S
C362 C357 1.390 . S
C362 C361 1.361 . S
C362 H380 0.931 . S
C363 C361 1.500 . S
C363 C364 1.371 . S
C363 C365 1.365 . S
C364 C363 1.371 . S
C364 C374 1.386 . S
C364 H382 0.931 . S
C365 C363 1.365 . S
C365 C366 1.409 . S
C365 H383 0.929 . S
C366 C365 1.409 . S
C366 C367 1.380 . S
C366 H384 0.930 . S
C367 C366 1.380 . S
C367 C374 1.357 . S
C368 C359 1.511 . S
C368 C369 1.341 . S
C368 C370 1.371 . S
C369 C368 1.341 . S
C369 C373 1.394 . S
C369 H385 0.930 . S
C370 C368 1.371 . S
C370 C371 1.392 . S
C370 H386 0.931 . S
C371 C370 1.392 . S
C371 C372 1.331 . S
C371 H389 0.932 . S
C372 C371 1.331 . S
C372 C373 1.336 . S
C373 C369 1.394 . S
C373 C372 1.336 . S
C373 H388 0.929 . S
C374 C364 1.386 . S
C374 C367 1.357 . S
C374 H387 0.928 . S
H375 C351 0.931 . S
H376 C353 0.930 . S
H377 C355 0.929 . S
H378 C356 0.931 . S
H379 C358 0.930 . S
H380 C362 0.931 . S
H381 C360 0.931 . S
H382 C364 0.931 . S
H383 C365 0.929 . S
H384 C366 0.930 . S
H385 C369 0.930 . S
H386 C370 0.931 . S
H387 C374 0.928 . S
H388 C373 0.929 . S
H389 C371 0.932 . S
C390 C391 1.386 . S
C390 C392 1.397 . S
C390 H414 0.931 . S
C391 C390 1.386 . S
C391 C395 1.397 . S
C392 C390 1.397 . S
C392 C393 1.384 . S
C392 H415 0.930 . S
C393 C392 1.384 . S
C393 C394 1.377 . S
C393 C396 1.481 . S
C394 C393 1.377 . S
C394 C395 1.389 . S
C394 H416 0.929 . S
C395 C391 1.397 . S
C395 C394 1.389 . S
C395 H417 0.931 . S
C396 C393 1.481 . S
C396 C397 1.387 . S
C396 C401 1.390 . S
C397 C396 1.387 . S
C397 C398 1.401 . S
C397 H418 0.930 . S
C398 C397 1.401 . S
C398 C399 1.376 . S
C398 C407 1.511 . S
C399 C398 1.376 . S
C399 C400 1.392 . S
C399 H420 0.931 . S
C400 C399 1.392 . S
C400 C401 1.361 . S
C400 C402 1.500 . S
C401 C396 1.390 . S
C401 C400 1.361 . S
C401 H419 0.931 . S
C402 C400 1.500 . S
C402 C403 1.371 . S
C402 C404 1.365 . S
C403 C402 1.371 . S
C403 C413 1.386 . S
C403 H421 0.931 . S
C404 C402 1.365 . S
C404 C405 1.409 . S
C404 H422 0.929 . S
C405 C404 1.409 . S
C405 C406 1.380 . S
C405 H423 0.930 . S
C406 C405 1.380 . S
C406 C413 1.357 . S
C407 C398 1.511 . S
C407 C408 1.341 . S
C407 C409 1.371 . S
C408 C407 1.341 . S
C408 C412 1.394 . S
C408 H424 0.930 . S
C409 C407 1.371 . S
C409 C410 1.392 . S
C409 H425 0.931 . S
C410 C409 1.392 . S
C410 C411 1.331 . S
C410 H428 0.932 . S
C411 C410 1.331 . S
C411 C412 1.336 . S
C412 C408 1.394 . S
C412 C411 1.336 . S
C412 H427 0.929 . S
C413 C403 1.386 . S
C413 C406 1.357 . S
C413 H426 0.928 . S
H414 C390 0.931 . S
H415 C392 0.930 . S
H416 C394 0.929 . S
H417 C395 0.931 . S
H418 C397 0.930 . S
H419 C401 0.931 . S
H420 C399 0.931 . S
H421 C403 0.931 . S
H422 C404 0.929 . S
H423 C405 0.930 . S
H424 C408 0.930 . S
H425 C409 0.931 . S
H426 C413 0.928 . S
H427 C412 0.929 . S
H428 C410 0.932 . S
C429 C430 1.386 . S
C429 C431 1.397 . S
C429 H453 0.931 . S
C430 C429 1.386 . S
C430 C434 1.397 . S
C431 C429 1.397 . S
C431 C432 1.384 . S
C431 H454 0.930 . S
C432 C431 1.384 . S
C432 C433 1.377 . S
C432 C435 1.481 . S
C433 C432 1.377 . S
C433 C434 1.389 . S
C433 H455 0.929 . S
C434 C430 1.397 . S
C434 C433 1.389 . S
C434 H456 0.931 . S
C435 C432 1.481 . S
C435 C436 1.387 . S
C435 C440 1.390 . S
C436 C435 1.387 . S
C436 C437 1.401 . S
C436 H457 0.930 . S
C437 C436 1.401 . S
C437 C438 1.376 . S
C437 C446 1.511 . S
C438 C437 1.376 . S
C438 C439 1.392 . S
C438 H459 0.931 . S
C439 C438 1.392 . S
C439 C440 1.361 . S
C439 C441 1.500 . S
C440 C435 1.390 . S
C440 C439 1.361 . S
C440 H458 0.931 . S
C441 C439 1.500 . S
C441 C442 1.371 . S
C441 C443 1.365 . S
C442 C441 1.371 . S
C442 C452 1.386 . S
C442 H460 0.931 . S
C443 C441 1.365 . S
C443 C444 1.409 . S
C443 H461 0.929 . S
C444 C443 1.409 . S
C444 C445 1.380 . S
C444 H462 0.930 . S
C445 C444 1.380 . S
C445 C452 1.357 . S
C446 C437 1.511 . S
C446 C447 1.341 . S
C446 C448 1.371 . S
C447 C446 1.341 . S
C447 C451 1.394 . S
C447 H463 0.930 . S
C448 C446 1.371 . S
C448 C449 1.392 . S
C448 H464 0.931 . S
C449 C448 1.392 . S
C449 C450 1.331 . S
C449 H467 0.932 . S
C450 C449 1.331 . S
C450 C451 1.336 . S
C451 C447 1.394 . S
C451 C450 1.336 . S
C451 H466 0.929 . S
C452 C442 1.386 . S
C452 C445 1.357 . S
C452 H465 0.928 . S
H453 C429 0.931 . S
H454 C431 0.930 . S
H455 C433 0.929 . S
H456 C434 0.931 . S
H457 C436 0.930 . S
H458 C440 0.931 . S
H459 C438 0.931 . S
H460 C442 0.931 . S
H461 C443 0.929 . S
H462 C444 0.930 . S
H463 C447 0.930 . S
H464 C448 0.931 . S
H465 C452 0.928 . S
H466 C451 0.929 . S
H467 C449 0.932 . S
C468 C469 1.386 . S
C468 C470 1.397 . S
C468 H492 0.931 . S
C469 C468 1.386 . S
C469 C473 1.397 . S
C470 C468 1.397 . S
C470 C471 1.384 . S
C470 H493 0.930 . S
C471 C470 1.384 . S
C471 C472 1.377 . S
C471 C474 1.481 . S
C472 C471 1.377 . S
C472 C473 1.389 . S
C472 H494 0.929 . S
C473 C469 1.397 . S
C473 C472 1.389 . S
C473 H495 0.931 . S
C474 C471 1.481 . S
C474 C475 1.387 . S
C474 C479 1.390 . S
C475 C474 1.387 . S
C475 C476 1.401 . S
C475 H496 0.930 . S
C476 C475 1.401 . S
C476 C477 1.376 . S
C476 C485 1.511 . S
C477 C476 1.376 . S
C477 C478 1.392 . S
C477 H498 0.931 . S
C478 C477 1.392 . S
C478 C479 1.361 . S
C478 C480 1.500 . S
C479 C474 1.390 . S
C479 C478 1.361 . S
C479 H497 0.931 . S
C480 C478 1.500 . S
C480 C481 1.371 . S
C480 C482 1.365 . S
C481 C480 1.371 . S
C481 C491 1.386 . S
C481 H499 0.931 . S
C482 C480 1.365 . S
C482 C483 1.409 . S
C482 H500 0.929 . S
C483 C482 1.409 . S
C483 C484 1.380 . S
C483 H501 0.930 . S
C484 C483 1.380 . S
C484 C491 1.357 . S
C485 C476 1.511 . S
C485 C486 1.341 . S
C485 C487 1.371 . S
C486 C485 1.341 . S
C486 C490 1.394 . S
C486 H502 0.930 . S
C487 C485 1.371 . S
C487 C488 1.392 . S
C487 H503 0.931 . S
C488 C487 1.392 . S
C488 C489 1.331 . S
C488 H506 0.932 . S
C489 C488 1.331 . S
C489 C490 1.336 . S
C490 C486 1.394 . S
C490 C489 1.336 . S
C490 H505 0.929 . S
C491 C481 1.386 . S
C491 C484 1.357 . S
C491 H504 0.928 . S
H492 C468 0.931 . S
H493 C470 0.930 . S
H494 C472 0.929 . S
H495 C473 0.931 . S
H496 C475 0.930 . S
H497 C479 0.931 . S
H498 C477 0.931 . S
H499 C481 0.931 . S
H500 C482 0.929 . S
H501 C483 0.930 . S
H502 C486 0.930 . S
H503 C487 0.931 . S
H504 C491 0.928 . S
H505 C490 0.929 . S
H506 C488 0.932 . S
C507 C508 1.386 . S
C507 C509 1.397 . S
C507 H531 0.931 . S
C508 C507 1.386 . S
C508 C512 1.397 . S
C509 C507 1.397 . S
C509 C510 1.384 . S
C509 H532 0.930 . S
C510 C509 1.384 . S
C510 C511 1.377 . S
C510 C513 1.481 . S
C511 C510 1.377 . S
C511 C512 1.389 . S
C511 H533 0.929 . S
C512 C508 1.397 . S
C512 C511 1.389 . S
C512 H534 0.931 . S
C513 C510 1.481 . S
C513 C514 1.387 . S
C513 C518 1.390 . S
C514 C513 1.387 . S
C514 C515 1.401 . S
C514 H535 0.930 . S
C515 C514 1.401 . S
C515 C516 1.376 . S
C515 C524 1.511 . S
C516 C515 1.376 . S
C516 C517 1.392 . S
C516 H537 0.931 . S
C517 C516 1.392 . S
C517 C518 1.361 . S
C517 C519 1.500 . S
C518 C513 1.390 . S
C518 C517 1.361 . S
C518 H536 0.931 . S
C519 C517 1.500 . S
C519 C520 1.371 . S
C519 C521 1.365 . S
C520 C519 1.371 . S
C520 C530 1.386 . S
C520 H538 0.931 . S
C521 C519 1.365 . S
C521 C522 1.409 . S
C521 H539 0.929 . S
C522 C521 1.409 . S
C522 C523 1.380 . S
C522 H540 0.930 . S
C523 C522 1.380 . S
C523 C530 1.357 . S
C524 C515 1.511 . S
C524 C525 1.341 . S
C524 C526 1.371 . S
C525 C524 1.341 . S
C525 C529 1.394 . S
C525 H541 0.930 . S
C526 C524 1.371 . S
C526 C527 1.392 . S
C526 H542 0.931 . S
C527 C526 1.392 . S
C527 C528 1.331 . S
C527 H545 0.932 . S
C528 C527 1.331 . S
C528 C529 1.336 . S
C529 C525 1.394 . S
C529 C528 1.336 . S
C529 H544 0.929 . S
C530 C520 1.386 . S
C530 C523 1.357 . S
C530 H543 0.928 . S
H531 C507 0.931 . S
H532 C509 0.930 . S
H533 C511 0.929 . S
H534 C512 0.931 . S
H535 C514 0.930 . S
H536 C518 0.931 . S
H537 C516 0.931 . S
H538 C520 0.931 . S
H539 C521 0.929 . S
H540 C522 0.930 . S
H541 C525 0.930 . S
H542 C526 0.931 . S
H543 C530 0.928 . S
H544 C529 0.929 . S
H545 C527 0.932 . S
C546 C547 1.386 . S
C546 C548 1.397 . S
C546 H570 0.931 . S
C547 C546 1.386 . S
C547 C551 1.397 . S
C548 C546 1.397 . S
C548 C549 1.384 . S
C548 H571 0.930 . S
C549 C548 1.384 . S
C549 C550 1.377 . S
C549 C552 1.481 . S
C550 C549 1.377 . S
C550 C551 1.389 . S
C550 H572 0.929 . S
C551 C547 1.397 . S
C551 C550 1.389 . S
C551 H573 0.931 . S
C552 C549 1.481 . S
C552 C553 1.387 . S
C552 C557 1.390 . S
C553 C552 1.387 . S
C553 C554 1.401 . S
C553 H574 0.930 . S
C554 C553 1.401 . S
C554 C555 1.376 . S
C554 C563 1.511 . S
C555 C554 1.376 . S
C555 C556 1.392 . S
C555 H576 0.931 . S
C556 C555 1.392 . S
C556 C557 1.361 . S
C556 C558 1.500 . S
C557 C552 1.390 . S
C557 C556 1.361 . S
C557 H575 0.931 . S
C558 C556 1.500 . S
C558 C559 1.371 . S
C558 C560 1.365 . S
C559 C558 1.371 . S
C559 C569 1.386 . S
C559 H577 0.931 . S
C560 C558 1.365 . S
C560 C561 1.409 . S
C560 H578 0.929 . S
C561 C560 1.409 . S
C561 C562 1.380 . S
C561 H579 0.930 . S
C562 C561 1.380 . S
C562 C569 1.357 . S
C563 C554 1.511 . S
C563 C564 1.341 . S
C563 C565 1.371 . S
C564 C563 1.341 . S
C564 C568 1.394 . S
C564 H580 0.930 . S
C565 C563 1.371 . S
C565 C566 1.392 . S
C565 H581 0.931 . S
C566 C565 1.392 . S
C566 C567 1.331 . S
C566 H584 0.932 . S
C567 C566 1.331 . S
C567 C568 1.336 . S
C568 C564 1.394 . S
C568 C567 1.336 . S
C568 H583 0.929 . S
C569 C559 1.386 . S
C569 C562 1.357 . S
C569 H582 0.928 . S
H570 C546 0.931 . S
H571 C548 0.930 . S
H572 C550 0.929 . S
H573 C551 0.931 . S
H574 C553 0.930 . S
H575 C557 0.931 . S
H576 C555 0.931 . S
H577 C559 0.931 . S
H578 C560 0.929 . S
H579 C561 0.930 . S
H580 C564 0.930 . S
H581 C565 0.931 . S
H582 C569 0.928 . S
H583 C568 0.929 . S
H584 C566 0.932 . S
C585 C586 1.386 . S
C585 C587 1.397 . S
C585 H609 0.931 . S
C586 C585 1.386 . S
C586 C590 1.397 . S
C587 C585 1.397 . S
C587 C588 1.384 . S
C587 H610 0.930 . S
C588 C587 1.384 . S
C588 C589 1.377 . S
C588 C591 1.481 . S
C589 C588 1.377 . S
C589 C590 1.389 . S
C589 H611 0.929 . S
C590 C586 1.397 . S
C590 C589 1.389 . S
C590 H612 0.931 . S
C591 C588 1.481 . S
C591 C592 1.387 . S
C591 C596 1.390 . S
C592 C591 1.387 . S
C592 C593 1.401 . S
C592 H613 0.930 . S
C593 C592 1.401 . S
C593 C594 1.376 . S
C593 C602 1.511 . S
C594 C593 1.376 . S
C594 C595 1.392 . S
C594 H615 0.931 . S
C595 C594 1.392 . S
C595 C596 1.361 . S
C595 C597 1.500 . S
C596 C591 1.390 . S
C596 C595 1.361 . S
C596 H614 0.931 . S
C597 C595 1.500 . S
C597 C598 1.371 . S
C597 C599 1.365 . S
C598 C597 1.371 . S
C598 C608 1.386 . S
C598 H616 0.931 . S
C599 C597 1.365 . S
C599 C600 1.409 . S
C599 H617 0.929 . S
C600 C599 1.409 . S
C600 C601 1.380 . S
C600 H618 0.930 . S
C601 C600 1.380 . S
C601 C608 1.357 . S
C602 C593 1.511 . S
C602 C603 1.341 . S
C602 C604 1.371 . S
C603 C602 1.341 . S
C603 C607 1.394 . S
C603 H619 0.930 . S
C604 C602 1.371 . S
C604 C605 1.392 . S
C604 H620 0.931 . S
C605 C604 1.392 . S
C605 C606 1.331 . S
C605 H623 0.932 . S
C606 C605 1.331 . S
C606 C607 1.336 . S
C607 C603 1.394 . S
C607 C606 1.336 . S
C607 H622 0.929 . S
C608 C598 1.386 . S
C608 C601 1.357 . S
C608 H621 0.928 . S
H609 C585 0.931 . S
H610 C587 0.930 . S
H611 C589 0.929 . S
H612 C590 0.931 . S
H613 C592 0.930 . S
H614 C596 0.931 . S
H615 C594 0.931 . S
H616 C598 0.931 . S
H617 C599 0.929 . S
H618 C600 0.930 . S
H619 C603 0.930 . S
H620 C604 0.931 . S
H621 C608 0.928 . S
H622 C607 0.929 . S
H623 C605 0.932 . S
C624 C625 1.386 . S
C624 C626 1.397 . S
C624 H648 0.931 . S
C625 C624 1.386 . S
C625 C629 1.397 . S
C626 C624 1.397 . S
C626 C627 1.384 . S
C626 H649 0.930 . S
C627 C626 1.384 . S
C627 C628 1.377 . S
C627 C630 1.481 . S
C628 C627 1.377 . S
C628 C629 1.389 . S
C628 H650 0.929 . S
C629 C625 1.397 . S
C629 C628 1.389 . S
C629 H651 0.931 . S
C630 C627 1.481 . S
C630 C631 1.387 . S
C630 C635 1.390 . S
C631 C630 1.387 . S
C631 C632 1.401 . S
C631 H652 0.930 . S
C632 C631 1.401 . S
C632 C633 1.376 . S
C632 C641 1.511 . S
C633 C632 1.376 . S
C633 C634 1.392 . S
C633 H654 0.931 . S
C634 C633 1.392 . S
C634 C635 1.361 . S
C634 C636 1.500 . S
C635 C630 1.390 . S
C635 C634 1.361 . S
C635 H653 0.931 . S
C636 C634 1.500 . S
C636 C637 1.371 . S
C636 C638 1.365 . S
C637 C636 1.371 . S
C637 C647 1.386 . S
C637 H655 0.931 . S
C638 C636 1.365 . S
C638 C639 1.409 . S
C638 H656 0.929 . S
C639 C638 1.409 . S
C639 C640 1.380 . S
C639 H657 0.930 . S
C640 C639 1.380 . S
C640 C647 1.357 . S
C641 C632 1.511 . S
C641 C642 1.341 . S
C641 C643 1.371 . S
C642 C641 1.341 . S
C642 C646 1.394 . S
C642 H658 0.930 . S
C643 C641 1.371 . S
C643 C644 1.392 . S
C643 H659 0.931 . S
C644 C643 1.392 . S
C644 C645 1.331 . S
C644 H662 0.932 . S
C645 C644 1.331 . S
C645 C646 1.336 . S
C646 C642 1.394 . S
C646 C645 1.336 . S
C646 H661 0.929 . S
C647 C637 1.386 . S
C647 C640 1.357 . S
C647 H660 0.928 . S
H648 C624 0.931 . S
H649 C626 0.930 . S
H650 C628 0.929 . S
H651 C629 0.931 . S
H652 C631 0.930 . S
H653 C635 0.931 . S
H654 C633 0.931 . S
H655 C637 0.931 . S
H656 C638 0.929 . S
H657 C639 0.930 . S
H658 C642 0.930 . S
H659 C643 0.931 . S
H660 C647 0.928 . S
H661 C646 0.929 . S
H662 C644 0.932 . S
C663 C664 1.386 . S
C663 C665 1.397 . S
C663 H687 0.931 . S
C664 C663 1.386 . S
C664 C668 1.397 . S
C665 C663 1.397 . S
C665 C666 1.384 . S
C665 H688 0.930 . S
C666 C665 1.384 . S
C666 C667 1.377 . S
C666 C669 1.481 . S
C667 C666 1.377 . S
C667 C668 1.389 . S
C667 H689 0.929 . S
C668 C664 1.397 . S
C668 C667 1.389 . S
C668 H690 0.931 . S
C669 C666 1.481 . S
C669 C670 1.387 . S
C669 C674 1.390 . S
C670 C669 1.387 . S
C670 C671 1.401 . S
C670 H691 0.930 . S
C671 C670 1.401 . S
C671 C672 1.376 . S
C671 C680 1.511 . S
C672 C671 1.376 . S
C672 C673 1.392 . S
C672 H693 0.931 . S
C673 C672 1.392 . S
C673 C674 1.361 . S
C673 C675 1.500 . S
C674 C669 1.390 . S
C674 C673 1.361 . S
C674 H692 0.931 . S
C675 C673 1.500 . S
C675 C676 1.371 . S
C675 C677 1.365 . S
C676 C675 1.371 . S
C676 C686 1.386 . S
C676 H694 0.931 . S
C677 C675 1.365 . S
C677 C678 1.409 . S
C677 H695 0.929 . S
C678 C677 1.409 . S
C678 C679 1.380 . S
C678 H696 0.930 . S
C679 C678 1.380 . S
C679 C686 1.357 . S
C680 C671 1.511 . S
C680 C681 1.341 . S
C680 C682 1.371 . S
C681 C680 1.341 . S
C681 C685 1.394 . S
C681 H697 0.930 . S
C682 C680 1.371 . S
C682 C683 1.392 . S
C682 H698 0.931 . S
C683 C682 1.392 . S
C683 C684 1.331 . S
C683 H701 0.932 . S
C684 C683 1.331 . S
C684 C685 1.336 . S
C685 C681 1.394 . S
C685 C684 1.336 . S
C685 H700 0.929 . S
C686 C676 1.386 . S
C686 C679 1.357 . S
C686 H699 0.928 . S
H687 C663 0.931 . S
H688 C665 0.930 . S
H689 C667 0.929 . S
H690 C668 0.931 . S
H691 C670 0.930 . S
H692 C674 0.931 . S
H693 C672 0.931 . S
H694 C676 0.931 . S
H695 C677 0.929 . S
H696 C678 0.930 . S
H697 C681 0.930 . S
H698 C682 0.931 . S
H699 C686 0.928 . S
H700 C685 0.929 . S
H701 C683 0.932 . S
Eu702 N733 2.657 . S
Eu702 N740 2.609 . S
Eu702 O746 2.558 . S
Eu702 O747 2.612 1_566 S
Eu702 O749 2.339 1_565 S
Eu702 O750 2.563 1_565 S
Eu702 O751 2.419 . S
Eu702 O753 2.380 1_556 S
Eu702 O754 2.385 1_556 S
Eu702 C766 2.848 . S
C703 C706 1.429 . S
C703 C707 1.411 . S
C703 N710 1.377 . S
C704 C706 1.420 . S
C704 C708 1.423 . S
C704 C716 1.392 . S
C705 C707 1.420 . S
C705 C708 1.351 . S
C705 H728 0.931 . S
C706 C703 1.429 . S
C706 C704 1.420 . S
C706 N714 1.362 . S
C707 C703 1.411 . S
C707 C705 1.420 . S
C707 C712 1.395 . S
C708 C704 1.423 . S
C708 C705 1.351 . S
C708 H720 0.930 . S
C709 C711 1.400 . S
C709 C712 1.386 . S
C709 H721 0.930 . S
N710 C703 1.377 . S
N710 C711 1.321 . S
N710 Eu713 2.609 . S
C711 C709 1.400 . S
C711 N710 1.321 . S
C711 H718 0.930 . S
C712 C707 1.395 . S
C712 C709 1.386 . S
C712 H731 0.930 . S
Eu713 N710 2.609 . S
Eu713 N714 2.657 . S
Eu713 O747 2.380 . S
Eu713 O748 2.432 . S
Eu713 O752 2.558 . S
Eu713 O753 2.612 1_545 S
Eu713 O755 2.339 1_545 S
Eu713 O756 2.563 1_545 S
Eu713 O757 2.419 . S
Eu713 C777 2.848 . S
N714 C706 1.362 . S
N714 Eu713 2.657 . S
N714 C715 1.334 . S
C715 N714 1.334 . S
C715 C717 1.413 . S
C715 H722 0.929 . S
C716 C704 1.392 . S
C716 C717 1.367 . S
C716 H724 0.930 . S
C717 C715 1.413 . S
C717 C716 1.367 . S
C717 H719 0.930 . S
H718 C711 0.930 . S
H719 C717 0.930 . S
H720 C708 0.930 . S
H721 C709 0.930 . S
H722 C715 0.929 . S
H723 C737 0.930 . S
H724 C716 0.930 . S
H725 C743 0.930 . S
H726 C734 0.929 . S
H727 C741 0.930 . S
H728 C705 0.931 . S
H729 C735 0.930 . S
H730 C768 0.930 . S
H731 C712 0.930 . S
H732 C767 0.931 . S
N733 Eu702 2.657 . S
N733 C734 1.334 . S
N733 C738 1.362 . S
C734 H726 0.929 . S
C734 N733 1.334 . S
C734 C737 1.413 . S
C735 H729 0.930 . S
C735 C736 1.392 . S
C735 C737 1.367 . S
C736 C735 1.392 . S
C736 C738 1.420 . S
C736 C768 1.423 . S
C737 H723 0.930 . S
C737 C734 1.413 . S
C737 C735 1.367 . S
C738 N733 1.362 . S
C738 C736 1.420 . S
C738 C742 1.429 . S
H739 C744 0.930 . S
N740 Eu702 2.609 . S
N740 C742 1.377 . S
N740 C743 1.321 . S
C741 H727 0.930 . S
C741 C743 1.400 . S
C741 C744 1.386 . S
C742 C738 1.429 . S
C742 N740 1.377 . S
C742 C745 1.411 . S
C743 H725 0.930 . S
C743 N740 1.321 . S
C743 C741 1.400 . S
C744 H739 0.930 . S
C744 C741 1.386 . S
C744 C745 1.395 . S
C745 C742 1.411 . S
C745 C744 1.395 . S
C745 C767 1.420 . S
O746 Eu702 2.558 . S
O746 C766 1.257 . S
O747 Eu702 2.612 1_544 S
O747 Eu713 2.380 . S
O747 C758 1.276 1_554 S
O748 Eu713 2.432 . S
O748 C765 1.264 1_554 S
O749 Eu702 2.339 1_545 S
O749 C765 1.254 . S
O750 Eu702 2.563 1_545 S
O750 C758 1.235 . S
O751 Eu702 2.419 . S
O751 C766 1.249 . S
O752 Eu713 2.558 . S
O752 C777 1.257 . S
O753 Eu702 2.380 1_554 S
O753 Eu713 2.612 1_565 S
O753 C769 1.276 . S
O754 Eu702 2.385 1_554 S
O754 C776 1.349 . S
O755 Eu713 2.339 1_565 S
O755 C776 1.254 . S
O756 Eu713 2.563 1_565 S
O756 C769 1.235 . S
O757 Eu713 2.419 . S
O757 C777 1.249 . S
C758 O747 1.276 1_556 S
C758 O750 1.235 . S
C759 C761 1.393 1_565 S
C759 C763 1.395 . S
C759 C766 1.492 . S
C760 C761 1.392 . S
C760 C762 1.386 1_545 S
C761 C759 1.393 1_545 S
C761 C760 1.392 . S
C761 H778 0.930 . S
C762 C760 1.386 1_565 S
C762 C764 1.395 . S
C762 H779 0.930 . S
C763 C759 1.395 . S
C763 C764 1.379 . S
C763 H780 0.930 . S
C764 C762 1.395 . S
C764 C763 1.379 . S
C764 H781 0.930 . S
C765 O748 1.264 1_556 S
C765 O749 1.254 . S
C766 Eu702 2.848 . S
C766 O746 1.257 . S
C766 O751 1.249 . S
C766 C759 1.492 . S
C767 H732 0.931 . S
C767 C745 1.420 . S
C767 C768 1.351 . S
C768 H730 0.930 . S
C768 C736 1.423 . S
C768 C767 1.351 . S
C769 O753 1.276 . S
C769 O756 1.235 . S
C770 C771 1.393 1_545 S
C770 C774 1.395 . S
C770 C777 1.492 . S
C771 C770 1.393 1_565 S
C771 C772 1.392 . S
C771 H782 0.930 . S
C772 C771 1.392 . S
C772 C773 1.386 1_565 S
C773 C772 1.386 1_545 S
C773 C775 1.395 . S
C773 H783 0.930 . S
C774 C770 1.395 . S
C774 C775 1.379 . S
C774 H784 0.930 . S
C775 C773 1.395 . S
C775 C774 1.379 . S
C775 H785 0.930 . S
C776 O754 1.349 . S
C776 O755 1.254 . S
C777 Eu713 2.848 . S
C777 O752 1.257 . S
C777 O757 1.249 . S
C777 C770 1.492 . S
H778 C761 0.930 . S
H779 C762 0.930 . S
H780 C763 0.930 . S
H781 C764 0.930 . S
H782 C771 0.930 . S
H783 C773 0.930 . S
H784 C774 0.930 . S
H785 C775 0.930 . S
Eu786 N817 2.657 . S
Eu786 N824 2.609 . S
Eu786 O830 2.558 . S
Eu786 O831 2.612 1_456 S
Eu786 O833 2.339 1_455 S
Eu786 O834 2.563 1_455 S
Eu786 O835 2.419 . S
Eu786 O837 2.380 1_556 S
Eu786 O838 2.432 1_556 S
Eu786 C850 2.848 . S
C787 C790 1.429 . S
C787 C791 1.411 . S
C787 N794 1.377 . S
C788 C790 1.420 . S
C788 C792 1.423 . S
C788 C800 1.392 . S
C789 C791 1.420 . S
C789 C792 1.351 . S
C789 H812 0.931 . S
C790 C787 1.429 . S
C790 C788 1.420 . S
C790 N798 1.362 . S
C791 C787 1.411 . S
C791 C789 1.420 . S
C791 C796 1.395 . S
C792 C788 1.423 . S
C792 C789 1.351 . S
C792 H804 0.930 . S
C793 C795 1.400 . S
C793 C796 1.386 . S
C793 H805 0.930 . S
N794 C787 1.377 . S
N794 C795 1.321 . S
N794 Eu797 2.609 . S
C795 C793 1.400 . S
C795 N794 1.321 . S
C795 H802 0.930 . S
C796 C791 1.395 . S
C796 C793 1.386 . S
C796 H815 0.930 . S
Eu797 N794 2.609 . S
Eu797 N798 2.657 . S
Eu797 O831 2.380 . S
Eu797 O832 2.432 . S
Eu797 O836 2.558 . S
Eu797 O837 2.612 1_655 S
Eu797 O839 2.339 1_655 S
Eu797 O840 2.563 1_655 S
Eu797 O841 2.419 . S
Eu797 C861 2.848 . S
N798 C790 1.362 . S
N798 Eu797 2.657 . S
N798 C799 1.334 . S
C799 N798 1.334 . S
C799 C801 1.413 . S
C799 H806 0.929 . S
C800 C788 1.392 . S
C800 C801 1.367 . S
C800 H808 0.930 . S
C801 C799 1.413 . S
C801 C800 1.367 . S
C801 H803 0.930 . S
H802 C795 0.930 . S
H803 C801 0.930 . S
H804 C792 0.930 . S
H805 C793 0.930 . S
H806 C799 0.929 . S
H807 C821 0.930 . S
H808 C800 0.930 . S
H809 C827 0.930 . S
H810 C818 0.929 . S
H811 C825 0.930 . S
H812 C789 0.931 . S
H813 C819 0.930 . S
H814 C852 0.930 . S
H815 C796 0.930 . S
H816 C851 0.931 . S
N817 Eu786 2.657 . S
N817 C818 1.334 . S
N817 C822 1.362 . S
C818 H810 0.929 . S
C818 N817 1.334 . S
C818 C821 1.413 . S
C819 H813 0.930 . S
C819 C820 1.392 . S
C819 C821 1.367 . S
C820 C819 1.392 . S
C820 C822 1.420 . S
C820 C852 1.423 . S
C821 H807 0.930 . S
C821 C818 1.413 . S
C821 C819 1.367 . S
C822 N817 1.362 . S
C822 C820 1.420 . S
C822 C826 1.429 . S
H823 C828 0.930 . S
N824 Eu786 2.609 . S
N824 C826 1.377 . S
N824 C827 1.321 . S
C825 H811 0.930 . S
C825 C827 1.400 . S
C825 C828 1.386 . S
C826 C822 1.429 . S
C826 N824 1.377 . S
C826 C829 1.411 . S
C827 H809 0.930 . S
C827 N824 1.321 . S
C827 C825 1.400 . S
C828 H823 0.930 . S
C828 C825 1.386 . S
C828 C829 1.395 . S
C829 C826 1.411 . S
C829 C828 1.395 . S
C829 C851 1.420 . S
O830 Eu786 2.558 . S
O830 C850 1.257 . S
O831 Eu786 2.612 1_654 S
O831 Eu797 2.380 . S
O831 C842 1.276 1_554 S
O832 Eu797 2.432 . S
O832 C849 1.264 1_554 S
O833 Eu786 2.339 1_655 S
O833 C849 1.254 . S
O834 Eu786 2.563 1_655 S
O834 C842 1.235 . S
O835 Eu786 2.419 . S
O835 C850 1.249 . S
O836 Eu797 2.558 . S
O836 C861 1.257 . S
O837 Eu786 2.380 1_554 S
O837 Eu797 2.612 1_455 S
O837 C853 1.276 . S
O838 Eu786 2.432 1_554 S
O838 C860 1.264 . S
O839 Eu797 2.339 1_455 S
O839 C860 1.254 . S
O840 Eu797 2.563 1_455 S
O840 C853 1.235 . S
O841 Eu797 2.419 . S
O841 C861 1.249 . S
C842 O831 1.276 1_556 S
C842 O834 1.235 . S
C843 C845 1.393 1_455 S
C843 C847 1.395 . S
C843 C850 1.492 . S
C844 C845 1.392 . S
C844 C846 1.386 1_655 S
C845 C843 1.393 1_655 S
C845 C844 1.392 . S
C845 H862 0.930 . S
C846 C844 1.386 1_455 S
C846 C848 1.395 . S
C846 H863 0.930 . S
C847 C843 1.395 . S
C847 C848 1.379 . S
C847 H864 0.930 . S
C848 C846 1.395 . S
C848 C847 1.379 . S
C848 H865 0.930 . S
C849 O832 1.264 1_556 S
C849 O833 1.254 . S
C850 Eu786 2.848 . S
C850 O830 1.257 . S
C850 O835 1.249 . S
C850 C843 1.492 . S
C851 H816 0.931 . S
C851 C829 1.420 . S
C851 C852 1.351 . S
C852 H814 0.930 . S
C852 C820 1.423 . S
C852 C851 1.351 . S
C853 O837 1.276 . S
C853 O840 1.235 . S
C854 C855 1.393 1_655 S
C854 C858 1.395 . S
C854 C861 1.492 . S
C855 C854 1.393 1_455 S
C855 C856 1.392 . S
C855 H866 0.930 . S
C856 C855 1.392 . S
C856 C857 1.386 1_455 S
C857 C856 1.386 1_655 S
C857 C859 1.395 . S
C857 H867 0.930 . S
C858 C854 1.395 . S
C858 C859 1.379 . S
C858 H868 0.930 . S
C859 C857 1.395 . S
C859 C858 1.379 . S
C859 H869 0.930 . S
C860 O838 1.264 . S
C860 O839 1.254 . S
C861 Eu797 2.848 . S
C861 O836 1.257 . S
C861 O841 1.249 . S
C861 C854 1.492 . S
H862 C845 0.930 . S
H863 C846 0.930 . S
H864 C847 0.930 . S
H865 C848 0.930 . S
H866 C855 0.930 . S
H867 C857 0.930 . S
H868 C858 0.930 . S
H869 C859 0.930 . S
Eu870 N901 2.657 . S
Eu870 N908 2.609 . S
Eu870 O914 2.558 . S
Eu870 O915 2.612 . S
Eu870 O917 2.339 . S
Eu870 O918 2.563 . S
Eu870 O919 2.419 . S
Eu870 O921 2.380 . S
Eu870 O922 2.432 . S
Eu870 C934 2.848 . S
C871 C874 1.429 . S
C871 C875 1.411 . S
C871 N878 1.377 . S
C872 C874 1.420 . S
C872 C876 1.423 . S
C872 C884 1.392 . S
C873 C875 1.420 . S
C873 C876 1.351 . S
C873 H896 0.931 . S
C874 C871 1.429 . S
C874 C872 1.420 . S
C874 N882 1.362 . S
C875 C871 1.411 . S
C875 C873 1.420 . S
C875 C880 1.395 . S
C876 C872 1.423 . S
C876 C873 1.351 . S
C876 H888 0.930 . S
C877 C879 1.400 . S
C877 C880 1.386 . S
C877 H889 0.930 . S
N878 C871 1.377 . S
N878 C879 1.321 . S
N878 Eu881 2.609 . S
C879 C877 1.400 . S
C879 N878 1.321 . S
C879 H886 0.930 . S
C880 C875 1.395 . S
C880 C877 1.386 . S
C880 H899 0.930 . S
Eu881 N878 2.609 . S
Eu881 N882 2.657 . S
Eu881 O915 2.380 1_556 S
Eu881 O916 2.432 1_556 S
Eu881 O920 2.558 . S
Eu881 O921 2.612 1_556 S
Eu881 O923 2.339 . S
Eu881 O924 2.563 . S
Eu881 O925 2.419 . S
Eu881 C945 2.848 . S
N882 C874 1.362 . S
N882 Eu881 2.657 . S
N882 C883 1.334 . S
C883 N882 1.334 . S
C883 C885 1.413 . S
C883 H890 0.929 . S
C884 C872 1.392 . S
C884 C885 1.367 . S
C884 H892 0.930 . S
C885 C883 1.413 . S
C885 C884 1.367 . S
C885 H887 0.930 . S
H886 C879 0.930 . S
H887 C885 0.930 . S
H888 C876 0.930 . S
H889 C877 0.930 . S
H890 C883 0.929 . S
H891 C905 0.930 . S
H892 C884 0.930 . S
H893 C911 0.930 . S
H894 C902 0.929 . S
H895 C909 0.930 . S
H896 C873 0.931 . S
H897 C903 0.930 . S
H898 C936 0.930 . S
H899 C880 0.930 . S
H900 C935 0.931 . S
N901 Eu870 2.657 . S
N901 C902 1.334 . S
N901 C906 1.362 . S
C902 H894 0.929 . S
C902 N901 1.334 . S
C902 C905 1.413 . S
C903 H897 0.930 . S
C903 C904 1.392 . S
C903 C905 1.367 . S
C904 C903 1.392 . S
C904 C906 1.420 . S
C904 C936 1.423 . S
C905 H891 0.930 . S
C905 C902 1.413 . S
C905 C903 1.367 . S
C906 N901 1.362 . S
C906 C904 1.420 . S
C906 C910 1.429 . S
H907 C912 0.930 . S
N908 Eu870 2.609 . S
N908 C910 1.377 . S
N908 C911 1.321 . S
C909 H895 0.930 . S
C909 C911 1.400 . S
C909 C912 1.386 . S
C910 C906 1.429 . S
C910 N908 1.377 . S
C910 C913 1.411 . S
C911 H893 0.930 . S
C911 N908 1.321 . S
C911 C909 1.400 . S
C912 H907 0.930 . S
C912 C909 1.386 . S
C912 C913 1.395 . S
C913 C910 1.411 . S
C913 C912 1.395 . S
C913 C935 1.420 . S
O914 Eu870 2.558 . S
O914 C934 1.257 . S
O915 Eu870 2.612 . S
O915 Eu881 2.380 1_554 S
O915 C926 1.276 . S
O916 Eu881 2.432 1_554 S
O916 C933 1.264 . S
O917 Eu870 2.339 . S
O917 C933 1.254 . S
O918 Eu870 2.563 . S
O918 C926 1.235 . S
O919 Eu870 2.419 . S
O919 C934 1.249 . S
O920 Eu881 2.558 . S
O920 C945 1.257 . S
O921 Eu870 2.380 . S
O921 Eu881 2.612 1_554 S
O921 C937 1.276 1_554 S
O922 Eu870 2.432 . S
O922 C944 1.264 1_554 S
O923 Eu881 2.339 . S
O923 C944 1.254 . S
O924 Eu881 2.563 . S
O924 C937 1.235 . S
O925 Eu881 2.419 . S
O925 C945 1.249 . S
C926 O915 1.276 . S
C926 O918 1.235 . S
C927 C929 1.393 . S
C927 C931 1.395 . S
C927 C934 1.492 . S
C928 C929 1.392 . S
C928 C930 1.386 . S
C929 C927 1.393 . S
C929 C928 1.392 . S
C929 H946 0.930 . S
C930 C928 1.386 . S
C930 C932 1.395 . S
C930 H947 0.930 . S
C931 C927 1.395 . S
C931 C932 1.379 . S
C931 H948 0.930 . S
C932 C930 1.395 . S
C932 C931 1.379 . S
C932 H949 0.930 . S
C933 O916 1.264 . S
C933 O917 1.254 . S
C934 Eu870 2.848 . S
C934 O914 1.257 . S
C934 O919 1.249 . S
C934 C927 1.492 . S
C935 H900 0.931 . S
C935 C913 1.420 . S
C935 C936 1.351 . S
C936 H898 0.930 . S
C936 C904 1.423 . S
C936 C935 1.351 . S
C937 O921 1.276 1_556 S
C937 O924 1.235 . S
C938 C939 1.393 . S
C938 C942 1.395 . S
C938 C945 1.492 . S
C939 C938 1.393 . S
C939 C940 1.392 . S
C939 H950 0.930 . S
C940 C939 1.392 . S
C940 C941 1.386 . S
C941 C940 1.386 . S
C941 C943 1.395 . S
C941 H951 0.930 . S
C942 C938 1.395 . S
C942 C943 1.379 . S
C942 H952 0.930 . S
C943 C941 1.395 . S
C943 C942 1.379 . S
C943 H953 0.930 . S
C944 O922 1.264 1_556 S
C944 O923 1.254 . S
C945 Eu881 2.848 . S
C945 O920 1.257 . S
C945 O925 1.249 . S
C945 C938 1.492 . S
H946 C929 0.930 . S
H947 C930 0.930 . S
H948 C931 0.930 . S
H949 C932 0.930 . S
H950 C939 0.930 . S
H951 C941 0.930 . S
H952 C942 0.930 . S
H953 C943 0.930 . S
Eu954 N985 2.657 . S
Eu954 N992 2.609 . S
Eu954 O998 2.558 . S
Eu954 O999 2.612 . S
Eu954 O1001 2.339 . S
Eu954 O1002 2.563 . S
Eu954 O1003 2.419 . S
Eu954 O1005 2.380 . S
Eu954 O1006 2.432 . S
Eu954 C1018 2.848 . S
C955 C958 1.429 . S
C955 C959 1.411 . S
C955 N962 1.377 . S
C956 C958 1.420 . S
C956 C960 1.423 . S
C956 C968 1.392 . S
C957 C959 1.420 . S
C957 C960 1.351 . S
C957 H980 0.931 . S
C958 C955 1.429 . S
C958 C956 1.420 . S
C958 N966 1.362 . S
C959 C955 1.411 . S
C959 C957 1.420 . S
C959 C964 1.395 . S
C960 C956 1.423 . S
C960 C957 1.351 . S
C960 H972 0.930 . S
C961 C963 1.400 . S
C961 C964 1.386 . S
C961 H973 0.930 . S
N962 C955 1.377 . S
N962 C963 1.321 . S
N962 Eu965 2.609 . S
C963 C961 1.400 . S
C963 N962 1.321 . S
C963 H970 0.930 . S
C964 C959 1.395 . S
C964 C961 1.386 . S
C964 H983 0.930 . S
Eu965 N962 2.609 . S
Eu965 N966 2.657 . S
Eu965 O999 2.380 . S
Eu965 O1000 2.432 . S
Eu965 O1004 2.558 . S
Eu965 O1005 2.612 . S
Eu965 O1007 2.339 . S
Eu965 O1008 2.563 . S
Eu965 O1009 2.419 . S
Eu965 C1029 2.848 . S
N966 C958 1.362 . S
N966 Eu965 2.657 . S
N966 C967 1.334 . S
C967 N966 1.334 . S
C967 C969 1.413 . S
C967 H974 0.929 . S
C968 C956 1.392 . S
C968 C969 1.367 . S
C968 H976 0.930 . S
C969 C967 1.413 . S
C969 C968 1.367 . S
C969 H971 0.930 . S
H970 C963 0.930 . S
H971 C969 0.930 . S
H972 C960 0.930 . S
H973 C961 0.930 . S
H974 C967 0.929 . S
H975 C989 0.930 . S
H976 C968 0.930 . S
H977 C995 0.930 . S
H978 C986 0.929 . S
H979 C993 0.930 . S
H980 C957 0.931 . S
H981 C987 0.930 . S
H982 C1020 0.930 . S
H983 C964 0.930 . S
H984 C1019 0.931 . S
N985 Eu954 2.657 . S
N985 C986 1.334 . S
N985 C990 1.362 . S
C986 H978 0.929 . S
C986 N985 1.334 . S
C986 C989 1.413 . S
C987 H981 0.930 . S
C987 C988 1.392 . S
C987 C989 1.367 . S
C988 C987 1.392 . S
C988 C990 1.420 . S
C988 C1020 1.423 . S
C989 H975 0.930 . S
C989 C986 1.413 . S
C989 C987 1.367 . S
C990 N985 1.362 . S
C990 C988 1.420 . S
C990 C994 1.429 . S
H991 C996 0.930 . S
N992 Eu954 2.609 . S
N992 C994 1.377 . S
N992 C995 1.321 . S
C993 H979 0.930 . S
C993 C995 1.400 . S
C993 C996 1.386 . S
C994 C990 1.429 . S
C994 N992 1.377 . S
C994 C997 1.411 . S
C995 H977 0.930 . S
C995 N992 1.321 . S
C995 C993 1.400 . S
C996 H991 0.930 . S
C996 C993 1.386 . S
C996 C997 1.395 . S
C997 C994 1.411 . S
C997 C996 1.395 . S
C997 C1019 1.420 . S
O998 Eu954 2.558 . S
O998 C1018 1.257 . S
O999 Eu954 2.612 . S
O999 Eu965 2.380 . S
O999 C1010 1.276 . S
O1000 Eu965 2.432 . S
O1000 C1017 1.264 . S
O1001 Eu954 2.339 . S
O1001 C1017 1.254 . S
O1002 Eu954 2.563 . S
O1002 C1010 1.235 . S
O1003 Eu954 2.419 . S
O1003 C1018 1.249 . S
O1004 Eu965 2.558 . S
O1004 C1029 1.257 . S
O1005 Eu954 2.380 . S
O1005 Eu965 2.612 . S
O1005 C1021 1.276 . S
O1006 Eu954 2.432 . S
O1006 C1028 1.264 . S
O1007 Eu965 2.339 . S
O1007 C1028 1.254 . S
O1008 Eu965 2.563 . S
O1008 C1021 1.235 . S
O1009 Eu965 2.419 . S
O1009 C1029 1.249 . S
C1010 O999 1.276 . S
C1010 O1002 1.235 . S
C1011 C1013 1.393 . S
C1011 C1015 1.395 . S
C1011 C1018 1.492 . S
C1012 C1013 1.392 . S
C1012 C1014 1.386 . S
C1013 C1011 1.393 . S
C1013 C1012 1.392 . S
C1013 H1030 0.930 . S
C1014 C1012 1.386 . S
C1014 C1016 1.395 . S
C1014 H1031 0.930 . S
C1015 C1011 1.395 . S
C1015 C1016 1.379 . S
C1015 H1032 0.930 . S
C1016 C1014 1.395 . S
C1016 C1015 1.379 . S
C1016 H1033 0.930 . S
C1017 O1000 1.264 . S
C1017 O1001 1.254 . S
C1018 Eu954 2.848 . S
C1018 O998 1.257 . S
C1018 O1003 1.249 . S
C1018 C1011 1.492 . S
C1019 H984 0.931 . S
C1019 C997 1.420 . S
C1019 C1020 1.351 . S
C1020 H982 0.930 . S
C1020 C988 1.423 . S
C1020 C1019 1.351 . S
C1021 O1005 1.276 . S
C1021 O1008 1.235 . S
C1022 C1023 1.393 . S
C1022 C1026 1.395 . S
C1022 C1029 1.492 . S
C1023 C1022 1.393 . S
C1023 C1024 1.392 . S
C1023 H1034 0.930 . S
C1024 C1023 1.392 . S
C1024 C1025 1.386 . S
C1025 C1024 1.386 . S
C1025 C1027 1.395 . S
C1025 H1035 0.930 . S
C1026 C1022 1.395 . S
C1026 C1027 1.379 . S
C1026 H1036 0.930 . S
C1027 C1025 1.395 . S
C1027 C1026 1.379 . S
C1027 H1037 0.930 . S
C1028 O1006 1.264 . S
C1028 O1007 1.254 . S
C1029 Eu965 2.848 . S
C1029 O1004 1.257 . S
C1029 O1009 1.249 . S
C1029 C1022 1.492 . S
H1030 C1013 0.930 . S
H1031 C1014 0.930 . S
H1032 C1015 0.930 . S
H1033 C1016 0.930 . S
H1034 C1023 0.930 . S
H1035 C1025 0.930 . S
H1036 C1026 0.930 . S
H1037 C1027 0.930 . S
Eu1038 N1069 2.657 . S
Eu1038 N1076 2.609 . S
Eu1038 O1082 2.558 . S
Eu1038 O1083 2.612 . S
Eu1038 O1085 2.339 . S
Eu1038 O1086 2.563 . S
Eu1038 O1087 2.419 . S
Eu1038 O1089 2.380 . S
Eu1038 O1090 2.432 . S
Eu1038 C1102 2.848 . S
C1039 C1042 1.429 . S
C1039 C1043 1.411 . S
C1039 N1046 1.377 . S
C1040 C1042 1.420 . S
C1040 C1044 1.423 . S
C1040 C1052 1.392 . S
C1041 C1043 1.420 . S
C1041 C1044 1.351 . S
C1041 H1064 0.931 . S
C1042 C1039 1.429 . S
C1042 C1040 1.420 . S
C1042 N1050 1.362 . S
C1043 C1039 1.411 . S
C1043 C1041 1.420 . S
C1043 C1048 1.395 . S
C1044 C1040 1.423 . S
C1044 C1041 1.351 . S
C1044 H1056 0.930 . S
C1045 C1047 1.400 . S
C1045 C1048 1.386 . S
C1045 H1057 0.930 . S
N1046 C1039 1.377 . S
N1046 C1047 1.321 . S
N1046 Eu1049 2.609 . S
C1047 C1045 1.400 . S
C1047 N1046 1.321 . S
C1047 H1054 0.930 . S
C1048 C1043 1.395 . S
C1048 C1045 1.386 . S
C1048 H1067 0.930 . S
Eu1049 N1046 2.609 . S
Eu1049 N1050 2.657 . S
Eu1049 O1083 2.380 . S
Eu1049 O1084 2.432 . S
Eu1049 O1088 2.558 . S
Eu1049 O1089 2.612 . S
Eu1049 O1091 2.339 . S
Eu1049 O1092 2.563 . S
Eu1049 O1093 2.419 . S
Eu1049 C1113 2.848 . S
N1050 C1042 1.362 . S
N1050 Eu1049 2.657 . S
N1050 C1051 1.334 . S
C1051 N1050 1.334 . S
C1051 C1053 1.413 . S
C1051 H1058 0.929 . S
C1052 C1040 1.392 . S
C1052 C1053 1.367 . S
C1052 H1060 0.930 . S
C1053 C1051 1.413 . S
C1053 C1052 1.367 . S
C1053 H1055 0.930 . S
H1054 C1047 0.930 . S
H1055 C1053 0.930 . S
H1056 C1044 0.930 . S
H1057 C1045 0.930 . S
H1058 C1051 0.929 . S
H1059 C1073 0.930 . S
H1060 C1052 0.930 . S
H1061 C1079 0.930 . S
H1062 C1070 0.929 . S
H1063 C1077 0.930 . S
H1064 C1041 0.931 . S
H1065 C1071 0.930 . S
H1066 C1104 0.930 . S
H1067 C1048 0.930 . S
H1068 C1103 0.931 . S
N1069 Eu1038 2.657 . S
N1069 C1070 1.334 . S
N1069 C1074 1.362 . S
C1070 H1062 0.929 . S
C1070 N1069 1.334 . S
C1070 C1073 1.413 . S
C1071 H1065 0.930 . S
C1071 C1072 1.392 . S
C1071 C1073 1.367 . S
C1072 C1071 1.392 . S
C1072 C1074 1.420 . S
C1072 C1104 1.423 . S
C1073 H1059 0.930 . S
C1073 C1070 1.413 . S
C1073 C1071 1.367 . S
C1074 N1069 1.362 . S
C1074 C1072 1.420 . S
C1074 C1078 1.429 . S
H1075 C1080 0.930 . S
N1076 Eu1038 2.609 . S
N1076 C1078 1.377 . S
N1076 C1079 1.321 . S
C1077 H1063 0.930 . S
C1077 C1079 1.400 . S
C1077 C1080 1.386 . S
C1078 C1074 1.429 . S
C1078 N1076 1.377 . S
C1078 C1081 1.411 . S
C1079 H1061 0.930 . S
C1079 N1076 1.321 . S
C1079 C1077 1.400 . S
C1080 H1075 0.930 . S
C1080 C1077 1.386 . S
C1080 C1081 1.395 . S
C1081 C1078 1.411 . S
C1081 C1080 1.395 . S
C1081 C1103 1.420 . S
O1082 Eu1038 2.558 . S
O1082 C1102 1.257 . S
O1083 Eu1038 2.612 . S
O1083 Eu1049 2.380 . S
O1083 C1094 1.276 . S
O1084 Eu1049 2.432 . S
O1084 C1101 1.264 . S
O1085 Eu1038 2.339 . S
O1085 C1101 1.254 . S
O1086 Eu1038 2.563 . S
O1086 C1094 1.235 . S
O1087 Eu1038 2.419 . S
O1087 C1102 1.249 . S
O1088 Eu1049 2.558 . S
O1088 C1113 1.257 . S
O1089 Eu1038 2.380 . S
O1089 Eu1049 2.612 . S
O1089 C1105 1.276 . S
O1090 Eu1038 2.432 . S
O1090 C1112 1.264 . S
O1091 Eu1049 2.339 . S
O1091 C1112 1.254 . S
O1092 Eu1049 2.563 . S
O1092 C1105 1.235 . S
O1093 Eu1049 2.419 . S
O1093 C1113 1.249 . S
C1094 O1083 1.276 . S
C1094 O1086 1.235 . S
C1095 C1097 1.393 . S
C1095 C1099 1.395 . S
C1095 C1102 1.492 . S
C1096 C1097 1.392 . S
C1096 C1098 1.386 . S
C1097 C1095 1.393 . S
C1097 C1096 1.392 . S
C1097 H1114 0.930 . S
C1098 C1096 1.386 . S
C1098 C1100 1.395 . S
C1098 H1115 0.930 . S
C1099 C1095 1.395 . S
C1099 C1100 1.379 . S
C1099 H1116 0.930 . S
C1100 C1098 1.395 . S
C1100 C1099 1.379 . S
C1100 H1117 0.930 . S
C1101 O1084 1.264 . S
C1101 O1085 1.254 . S
C1102 Eu1038 2.848 . S
C1102 O1082 1.257 . S
C1102 O1087 1.249 . S
C1102 C1095 1.492 . S
C1103 H1068 0.931 . S
C1103 C1081 1.420 . S
C1103 C1104 1.351 . S
C1104 H1066 0.930 . S
C1104 C1072 1.423 . S
C1104 C1103 1.351 . S
C1105 O1089 1.276 . S
C1105 O1092 1.235 . S
C1106 C1107 1.393 . S
C1106 C1110 1.395 . S
C1106 C1113 1.492 . S
C1107 C1106 1.393 . S
C1107 C1108 1.392 . S
C1107 H1118 0.930 . S
C1108 C1107 1.392 . S
C1108 C1109 1.386 . S
C1109 C1108 1.386 . S
C1109 C1111 1.395 . S
C1109 H1119 0.930 . S
C1110 C1106 1.395 . S
C1110 C1111 1.379 . S
C1110 H1120 0.930 . S
C1111 C1109 1.395 . S
C1111 C1110 1.379 . S
C1111 H1121 0.930 . S
C1112 O1090 1.264 . S
C1112 O1091 1.254 . S
C1113 Eu1049 2.848 . S
C1113 O1088 1.257 . S
C1113 O1093 1.249 . S
C1113 C1106 1.492 . S
H1114 C1097 0.930 . S
H1115 C1098 0.930 . S
H1116 C1099 0.930 . S
H1117 C1100 0.930 . S
H1118 C1107 0.930 . S
H1119 C1109 0.930 . S
H1120 C1110 0.930 . S
H1121 C1111 0.930 . S
Eu1122 N1153 2.657 . S
Eu1122 N1160 2.609 . S
Eu1122 O1166 2.558 . S
Eu1122 O1167 2.612 . S
Eu1122 O1169 2.339 . S
Eu1122 O1170 2.563 . S
Eu1122 O1171 2.419 . S
Eu1122 O1173 2.380 . S
Eu1122 O1174 2.432 . S
Eu1122 C1186 2.848 . S
C1123 C1126 1.429 . S
C1123 C1127 1.411 . S
C1123 N1130 1.377 . S
C1124 C1126 1.420 . S
C1124 C1128 1.423 . S
C1124 C1136 1.392 . S
C1125 C1127 1.420 . S
C1125 C1128 1.351 . S
C1125 H1148 0.931 . S
C1126 C1123 1.429 . S
C1126 C1124 1.420 . S
C1126 N1134 1.362 . S
C1127 C1123 1.411 . S
C1127 C1125 1.420 . S
C1127 C1132 1.395 . S
C1128 C1124 1.423 . S
C1128 C1125 1.351 . S
C1128 H1140 0.930 . S
C1129 C1131 1.400 . S
C1129 C1132 1.386 . S
C1129 H1141 0.930 . S
N1130 C1123 1.377 . S
N1130 C1131 1.321 . S
N1130 Eu1133 2.609 . S
C1131 C1129 1.400 . S
C1131 N1130 1.321 . S
C1131 H1138 0.930 . S
C1132 C1127 1.395 . S
C1132 C1129 1.386 . S
C1132 H1151 0.930 . S
Eu1133 N1130 2.609 . S
Eu1133 N1134 2.657 . S
Eu1133 O1167 2.380 . S
Eu1133 O1168 2.432 . S
Eu1133 O1172 2.558 . S
Eu1133 O1173 2.612 . S
Eu1133 O1175 2.339 . S
Eu1133 O1176 2.563 . S
Eu1133 O1177 2.419 . S
Eu1133 C1197 2.848 . S
N1134 C1126 1.362 . S
N1134 Eu1133 2.657 . S
N1134 C1135 1.334 . S
C1135 N1134 1.334 . S
C1135 C1137 1.413 . S
C1135 H1142 0.929 . S
C1136 C1124 1.392 . S
C1136 C1137 1.367 . S
C1136 H1144 0.930 . S
C1137 C1135 1.413 . S
C1137 C1136 1.367 . S
C1137 H1139 0.930 . S
H1138 C1131 0.930 . S
H1139 C1137 0.930 . S
H1140 C1128 0.930 . S
H1141 C1129 0.930 . S
H1142 C1135 0.929 . S
H1143 C1157 0.930 . S
H1144 C1136 0.930 . S
H1145 C1163 0.930 . S
H1146 C1154 0.929 . S
H1147 C1161 0.930 . S
H1148 C1125 0.931 . S
H1149 C1155 0.930 . S
H1150 C1188 0.930 . S
H1151 C1132 0.930 . S
H1152 C1187 0.931 . S
N1153 Eu1122 2.657 . S
N1153 C1154 1.334 . S
N1153 C1158 1.362 . S
C1154 H1146 0.929 . S
C1154 N1153 1.334 . S
C1154 C1157 1.413 . S
C1155 H1149 0.930 . S
C1155 C1156 1.392 . S
C1155 C1157 1.367 . S
C1156 C1155 1.392 . S
C1156 C1158 1.420 . S
C1156 C1188 1.423 . S
C1157 H1143 0.930 . S
C1157 C1154 1.413 . S
C1157 C1155 1.367 . S
C1158 N1153 1.362 . S
C1158 C1156 1.420 . S
C1158 C1162 1.429 . S
H1159 C1164 0.930 . S
N1160 Eu1122 2.609 . S
N1160 C1162 1.377 . S
N1160 C1163 1.321 . S
C1161 H1147 0.930 . S
C1161 C1163 1.400 . S
C1161 C1164 1.386 . S
C1162 C1158 1.429 . S
C1162 N1160 1.377 . S
C1162 C1165 1.411 . S
C1163 H1145 0.930 . S
C1163 N1160 1.321 . S
C1163 C1161 1.400 . S
C1164 H1159 0.930 . S
C1164 C1161 1.386 . S
C1164 C1165 1.395 . S
C1165 C1162 1.411 . S
C1165 C1164 1.395 . S
C1165 C1187 1.420 . S
O1166 Eu1122 2.558 . S
O1166 C1186 1.257 . S
O1167 Eu1122 2.612 . S
O1167 Eu1133 2.380 . S
O1167 C1178 1.276 . S
O1168 Eu1133 2.432 . S
O1168 C1185 1.264 . S
O1169 Eu1122 2.339 . S
O1169 C1185 1.254 . S
O1170 Eu1122 2.563 . S
O1170 C1178 1.235 . S
O1171 Eu1122 2.419 . S
O1171 C1186 1.249 . S
O1172 Eu1133 2.558 . S
O1172 C1197 1.257 . S
O1173 Eu1122 2.380 . S
O1173 Eu1133 2.612 . S
O1173 C1189 1.276 . S
O1174 Eu1122 2.432 . S
O1174 C1196 1.264 . S
O1175 Eu1133 2.339 . S
O1175 C1196 1.254 . S
O1176 Eu1133 2.563 . S
O1176 C1189 1.235 . S
O1177 Eu1133 2.419 . S
O1177 C1197 1.249 . S
C1178 O1167 1.276 . S
C1178 O1170 1.235 . S
C1179 C1181 1.393 . S
C1179 C1183 1.395 . S
C1179 C1186 1.492 . S
C1180 C1181 1.392 . S
C1180 C1182 1.386 . S
C1181 C1179 1.393 . S
C1181 C1180 1.392 . S
C1181 H1198 0.930 . S
C1182 C1180 1.386 . S
C1182 C1184 1.395 . S
C1182 H1199 0.930 . S
C1183 C1179 1.395 . S
C1183 C1184 1.379 . S
C1183 H1200 0.930 . S
C1184 C1182 1.395 . S
C1184 C1183 1.379 . S
C1184 H1201 0.930 . S
C1185 O1168 1.264 . S
C1185 O1169 1.254 . S
C1186 Eu1122 2.848 . S
C1186 O1166 1.257 . S
C1186 O1171 1.249 . S
C1186 C1179 1.492 . S
C1187 H1152 0.931 . S
C1187 C1165 1.420 . S
C1187 C1188 1.351 . S
C1188 H1150 0.930 . S
C1188 C1156 1.423 . S
C1188 C1187 1.351 . S
C1189 O1173 1.276 . S
C1189 O1176 1.235 . S
C1190 C1191 1.393 . S
C1190 C1194 1.395 . S
C1190 C1197 1.492 . S
C1191 C1190 1.393 . S
C1191 C1192 1.392 . S
C1191 H1202 0.930 . S
C1192 C1191 1.392 . S
C1192 C1193 1.386 . S
C1193 C1192 1.386 . S
C1193 C1195 1.395 . S
C1193 H1203 0.930 . S
C1194 C1190 1.395 . S
C1194 C1195 1.379 . S
C1194 H1204 0.930 . S
C1195 C1193 1.395 . S
C1195 C1194 1.379 . S
C1195 H1205 0.930 . S
C1196 O1174 1.264 . S
C1196 O1175 1.254 . S
C1197 Eu1133 2.848 . S
C1197 O1172 1.257 . S
C1197 O1177 1.249 . S
C1197 C1190 1.492 . S
H1198 C1181 0.930 . S
H1199 C1182 0.930 . S
H1200 C1183 0.930 . S
H1201 C1184 0.930 . S
H1202 C1191 0.930 . S
H1203 C1193 0.930 . S
H1204 C1194 0.930 . S
H1205 C1195 0.930 . S
Eu1206 N1237 2.657 . S
Eu1206 N1244 2.609 . S
Eu1206 O1250 2.558 . S
Eu1206 O1251 2.612 . S
Eu1206 O1253 2.339 . S
Eu1206 O1254 2.563 . S
Eu1206 O1255 2.419 . S
Eu1206 O1257 2.380 . S
Eu1206 O1258 2.432 . S
Eu1206 C1270 2.848 . S
C1207 C1210 1.429 . S
C1207 C1211 1.411 . S
C1207 N1214 1.377 . S
C1208 C1210 1.420 . S
C1208 C1212 1.423 . S
C1208 C1220 1.392 . S
C1209 C1211 1.420 . S
C1209 C1212 1.351 . S
C1209 H1232 0.931 . S
C1210 C1207 1.429 . S
C1210 C1208 1.420 . S
C1210 N1218 1.362 . S
C1211 C1207 1.411 . S
C1211 C1209 1.420 . S
C1211 C1216 1.395 . S
C1212 C1208 1.423 . S
C1212 C1209 1.351 . S
C1212 H1224 0.930 . S
C1213 C1215 1.400 . S
C1213 C1216 1.386 . S
C1213 H1225 0.930 . S
N1214 C1207 1.377 . S
N1214 C1215 1.321 . S
N1214 Eu1217 2.609 . S
C1215 C1213 1.400 . S
C1215 N1214 1.321 . S
C1215 H1222 0.930 . S
C1216 C1211 1.395 . S
C1216 C1213 1.386 . S
C1216 H1235 0.930 . S
Eu1217 N1214 2.609 . S
Eu1217 N1218 2.657 . S
Eu1217 O1251 2.380 . S
Eu1217 O1252 2.432 . S
Eu1217 O1256 2.558 . S
Eu1217 O1257 2.612 . S
Eu1217 O1259 2.339 . S
Eu1217 O1260 2.563 . S
Eu1217 O1261 2.419 . S
Eu1217 C1281 2.848 . S
N1218 C1210 1.362 . S
N1218 Eu1217 2.657 . S
N1218 C1219 1.334 . S
C1219 N1218 1.334 . S
C1219 C1221 1.413 . S
C1219 H1226 0.929 . S
C1220 C1208 1.392 . S
C1220 C1221 1.367 . S
C1220 H1228 0.930 . S
C1221 C1219 1.413 . S
C1221 C1220 1.367 . S
C1221 H1223 0.930 . S
H1222 C1215 0.930 . S
H1223 C1221 0.930 . S
H1224 C1212 0.930 . S
H1225 C1213 0.930 . S
H1226 C1219 0.929 . S
H1227 C1241 0.930 . S
H1228 C1220 0.930 . S
H1229 C1247 0.930 . S
H1230 C1238 0.929 . S
H1231 C1245 0.930 . S
H1232 C1209 0.931 . S
H1233 C1239 0.930 . S
H1234 C1272 0.930 . S
H1235 C1216 0.930 . S
H1236 C1271 0.931 . S
N1237 Eu1206 2.657 . S
N1237 C1238 1.334 . S
N1237 C1242 1.362 . S
C1238 H1230 0.929 . S
C1238 N1237 1.334 . S
C1238 C1241 1.413 . S
C1239 H1233 0.930 . S
C1239 C1240 1.392 . S
C1239 C1241 1.367 . S
C1240 C1239 1.392 . S
C1240 C1242 1.420 . S
C1240 C1272 1.423 . S
C1241 H1227 0.930 . S
C1241 C1238 1.413 . S
C1241 C1239 1.367 . S
C1242 N1237 1.362 . S
C1242 C1240 1.420 . S
C1242 C1246 1.429 . S
H1243 C1248 0.930 . S
N1244 Eu1206 2.609 . S
N1244 C1246 1.377 . S
N1244 C1247 1.321 . S
C1245 H1231 0.930 . S
C1245 C1247 1.400 . S
C1245 C1248 1.386 . S
C1246 C1242 1.429 . S
C1246 N1244 1.377 . S
C1246 C1249 1.411 . S
C1247 H1229 0.930 . S
C1247 N1244 1.321 . S
C1247 C1245 1.400 . S
C1248 H1243 0.930 . S
C1248 C1245 1.386 . S
C1248 C1249 1.395 . S
C1249 C1246 1.411 . S
C1249 C1248 1.395 . S
C1249 C1271 1.420 . S
O1250 Eu1206 2.558 . S
O1250 C1270 1.257 . S
O1251 Eu1206 2.612 . S
O1251 Eu1217 2.380 . S
O1251 C1262 1.276 . S
O1252 Eu1217 2.432 . S
O1252 C1269 1.264 . S
O1253 Eu1206 2.339 . S
O1253 C1269 1.254 . S
O1254 Eu1206 2.563 . S
O1254 C1262 1.235 . S
O1255 Eu1206 2.419 . S
O1255 C1270 1.249 . S
O1256 Eu1217 2.558 . S
O1256 C1281 1.257 . S
O1257 Eu1206 2.380 . S
O1257 Eu1217 2.612 . S
O1257 C1273 1.276 . S
O1258 Eu1206 2.432 . S
O1258 C1280 1.264 . S
O1259 Eu1217 2.339 . S
O1259 C1280 1.254 . S
O1260 Eu1217 2.563 . S
O1260 C1273 1.235 . S
O1261 Eu1217 2.419 . S
O1261 C1281 1.249 . S
C1262 O1251 1.276 . S
C1262 O1254 1.235 . S
C1263 C1265 1.393 . S
C1263 C1267 1.395 . S
C1263 C1270 1.492 . S
C1264 C1265 1.392 . S
C1264 C1266 1.386 . S
C1265 C1263 1.393 . S
C1265 C1264 1.392 . S
C1265 H1282 0.930 . S
C1266 C1264 1.386 . S
C1266 C1268 1.395 . S
C1266 H1283 0.930 . S
C1267 C1263 1.395 . S
C1267 C1268 1.379 . S
C1267 H1284 0.930 . S
C1268 C1266 1.395 . S
C1268 C1267 1.379 . S
C1268 H1285 0.930 . S
C1269 O1252 1.264 . S
C1269 O1253 1.254 . S
C1270 Eu1206 2.848 . S
C1270 O1250 1.257 . S
C1270 O1255 1.249 . S
C1270 C1263 1.492 . S
C1271 H1236 0.931 . S
C1271 C1249 1.420 . S
C1271 C1272 1.351 . S
C1272 H1234 0.930 . S
C1272 C1240 1.423 . S
C1272 C1271 1.351 . S
C1273 O1257 1.276 . S
C1273 O1260 1.235 . S
C1274 C1275 1.393 . S
C1274 C1278 1.395 . S
C1274 C1281 1.492 . S
C1275 C1274 1.393 . S
C1275 C1276 1.392 . S
C1275 H1286 0.930 . S
C1276 C1275 1.392 . S
C1276 C1277 1.386 . S
C1277 C1276 1.386 . S
C1277 C1279 1.395 . S
C1277 H1287 0.930 . S
C1278 C1274 1.395 . S
C1278 C1279 1.379 . S
C1278 H1288 0.930 . S
C1279 C1277 1.395 . S
C1279 C1278 1.379 . S
C1279 H1289 0.930 . S
C1280 O1258 1.264 . S
C1280 O1259 1.254 . S
C1281 Eu1217 2.848 . S
C1281 O1256 1.257 . S
C1281 O1261 1.249 . S
C1281 C1274 1.492 . S
H1282 C1265 0.930 . S
H1283 C1266 0.930 . S
H1284 C1267 0.930 . S
H1285 C1268 0.930 . S
H1286 C1275 0.930 . S
H1287 C1277 0.930 . S
H1288 C1278 0.930 . S
H1289 C1279 0.930 . S
Eu1290 N1321 2.657 . S
Eu1290 N1328 2.609 . S
Eu1290 O1334 2.558 . S
Eu1290 O1335 2.612 . S
Eu1290 O1337 2.339 . S
Eu1290 O1338 2.563 . S
Eu1290 O1339 2.419 . S
Eu1290 O1341 2.380 . S
Eu1290 O1342 2.432 . S
Eu1290 C1354 2.848 . S
C1291 C1294 1.429 . S
C1291 C1295 1.411 . S
C1291 N1298 1.377 . S
C1292 C1294 1.420 . S
C1292 C1296 1.423 . S
C1292 C1304 1.392 . S
C1293 C1295 1.420 . S
C1293 C1296 1.351 . S
C1293 H1316 0.931 . S
C1294 C1291 1.429 . S
C1294 C1292 1.420 . S
C1294 N1302 1.362 . S
C1295 C1291 1.411 . S
C1295 C1293 1.420 . S
C1295 C1300 1.395 . S
C1296 C1292 1.423 . S
C1296 C1293 1.351 . S
C1296 H1308 0.930 . S
C1297 C1299 1.400 . S
C1297 C1300 1.386 . S
C1297 H1309 0.930 . S
N1298 C1291 1.377 . S
N1298 C1299 1.321 . S
N1298 Eu1301 2.609 . S
C1299 C1297 1.400 . S
C1299 N1298 1.321 . S
C1299 H1306 0.930 . S
C1300 C1295 1.395 . S
C1300 C1297 1.386 . S
C1300 H1319 0.930 . S
Eu1301 N1298 2.609 . S
Eu1301 N1302 2.657 . S
Eu1301 O1335 2.380 . S
Eu1301 O1336 2.432 . S
Eu1301 O1340 2.558 . S
Eu1301 O1341 2.612 . S
Eu1301 O1343 2.339 . S
Eu1301 O1344 2.563 . S
Eu1301 O1345 2.419 . S
Eu1301 C1365 2.848 . S
N1302 C1294 1.362 . S
N1302 Eu1301 2.657 . S
N1302 C1303 1.334 . S
C1303 N1302 1.334 . S
C1303 C1305 1.413 . S
C1303 H1310 0.929 . S
C1304 C1292 1.392 . S
C1304 C1305 1.367 . S
C1304 H1312 0.930 . S
C1305 C1303 1.413 . S
C1305 C1304 1.367 . S
C1305 H1307 0.930 . S
H1306 C1299 0.930 . S
H1307 C1305 0.930 . S
H1308 C1296 0.930 . S
H1309 C1297 0.930 . S
H1310 C1303 0.929 . S
H1311 C1325 0.930 . S
H1312 C1304 0.930 . S
H1313 C1331 0.930 . S
H1314 C1322 0.929 . S
H1315 C1329 0.930 . S
H1316 C1293 0.931 . S
H1317 C1323 0.930 . S
H1318 C1356 0.930 . S
H1319 C1300 0.930 . S
H1320 C1355 0.931 . S
N1321 Eu1290 2.657 . S
N1321 C1322 1.334 . S
N1321 C1326 1.362 . S
C1322 H1314 0.929 . S
C1322 N1321 1.334 . S
C1322 C1325 1.413 . S
C1323 H1317 0.930 . S
C1323 C1324 1.392 . S
C1323 C1325 1.367 . S
C1324 C1323 1.392 . S
C1324 C1326 1.420 . S
C1324 C1356 1.423 . S
C1325 H1311 0.930 . S
C1325 C1322 1.413 . S
C1325 C1323 1.367 . S
C1326 N1321 1.362 . S
C1326 C1324 1.420 . S
C1326 C1330 1.429 . S
H1327 C1332 0.930 . S
N1328 Eu1290 2.609 . S
N1328 C1330 1.377 . S
N1328 C1331 1.321 . S
C1329 H1315 0.930 . S
C1329 C1331 1.400 . S
C1329 C1332 1.386 . S
C1330 C1326 1.429 . S
C1330 N1328 1.377 . S
C1330 C1333 1.411 . S
C1331 H1313 0.930 . S
C1331 N1328 1.321 . S
C1331 C1329 1.400 . S
C1332 H1327 0.930 . S
C1332 C1329 1.386 . S
C1332 C1333 1.395 . S
C1333 C1330 1.411 . S
C1333 C1332 1.395 . S
C1333 C1355 1.420 . S
O1334 Eu1290 2.558 . S
O1334 C1354 1.257 . S
O1335 Eu1290 2.612 . S
O1335 Eu1301 2.380 . S
O1335 C1346 1.276 . S
O1336 Eu1301 2.432 . S
O1336 C1353 1.264 . S
O1337 Eu1290 2.339 . S
O1337 C1353 1.254 . S
O1338 Eu1290 2.563 . S
O1338 C1346 1.235 . S
O1339 Eu1290 2.419 . S
O1339 C1354 1.249 . S
O1340 Eu1301 2.558 . S
O1340 C1365 1.257 . S
O1341 Eu1290 2.380 . S
O1341 Eu1301 2.612 . S
O1341 C1357 1.276 . S
O1342 Eu1290 2.432 . S
O1342 C1364 1.264 . S
O1343 Eu1301 2.339 . S
O1343 C1364 1.254 . S
O1344 Eu1301 2.563 . S
O1344 C1357 1.235 . S
O1345 Eu1301 2.419 . S
O1345 C1365 1.249 . S
C1346 O1335 1.276 . S
C1346 O1338 1.235 . S
C1347 C1349 1.393 . S
C1347 C1351 1.395 . S
C1347 C1354 1.492 . S
C1348 C1349 1.392 . S
C1348 C1350 1.386 . S
C1349 C1347 1.393 . S
C1349 C1348 1.392 . S
C1349 H1366 0.930 . S
C1350 C1348 1.386 . S
C1350 C1352 1.395 . S
C1350 H1367 0.930 . S
C1351 C1347 1.395 . S
C1351 C1352 1.379 . S
C1351 H1368 0.930 . S
C1352 C1350 1.395 . S
C1352 C1351 1.379 . S
C1352 H1369 0.930 . S
C1353 O1336 1.264 . S
C1353 O1337 1.254 . S
C1354 Eu1290 2.848 . S
C1354 O1334 1.257 . S
C1354 O1339 1.249 . S
C1354 C1347 1.492 . S
C1355 H1320 0.931 . S
C1355 C1333 1.420 . S
C1355 C1356 1.351 . S
C1356 H1318 0.930 . S
C1356 C1324 1.423 . S
C1356 C1355 1.351 . S
C1357 O1341 1.276 . S
C1357 O1344 1.235 . S
C1358 C1359 1.393 . S
C1358 C1362 1.395 . S
C1358 C1365 1.492 . S
C1359 C1358 1.393 . S
C1359 C1360 1.392 . S
C1359 H1370 0.930 . S
C1360 C1359 1.392 . S
C1360 C1361 1.386 . S
C1361 C1360 1.386 . S
C1361 C1363 1.395 . S
C1361 H1371 0.930 . S
C1362 C1358 1.395 . S
C1362 C1363 1.379 . S
C1362 H1372 0.930 . S
C1363 C1361 1.395 . S
C1363 C1362 1.379 . S
C1363 H1373 0.930 . S
C1364 O1342 1.264 . S
C1364 O1343 1.254 . S
C1365 Eu1301 2.848 . S
C1365 O1340 1.257 . S
C1365 O1345 1.249 . S
C1365 C1358 1.492 . S
H1366 C1349 0.930 . S
H1367 C1350 0.930 . S
H1368 C1351 0.930 . S
H1369 C1352 0.930 . S
H1370 C1359 0.930 . S
H1371 C1361 0.930 . S
H1372 C1362 0.930 . S
H1373 C1363 0.930 . S
Eu1374 N1405 2.657 . S
Eu1374 N1412 2.609 . S
Eu1374 O1418 2.558 . S
Eu1374 O1419 2.612 . S
Eu1374 O1421 2.339 . S
Eu1374 O1422 2.563 . S
Eu1374 O1423 2.419 . S
Eu1374 O1425 2.380 . S
Eu1374 O1426 2.432 . S
Eu1374 C1438 2.848 . S
C1375 C1378 1.429 . S
C1375 C1379 1.411 . S
C1375 N1382 1.377 . S
C1376 C1378 1.420 . S
C1376 C1380 1.423 . S
C1376 C1388 1.392 . S
C1377 C1379 1.420 . S
C1377 C1380 1.351 . S
C1377 H1400 0.931 . S
C1378 C1375 1.429 . S
C1378 C1376 1.420 . S
C1378 N1386 1.362 . S
C1379 C1375 1.411 . S
C1379 C1377 1.420 . S
C1379 C1384 1.395 . S
C1380 C1376 1.423 . S
C1380 C1377 1.351 . S
C1380 H1392 0.930 . S
C1381 C1383 1.400 . S
C1381 C1384 1.386 . S
C1381 H1393 0.930 . S
N1382 C1375 1.377 . S
N1382 C1383 1.321 . S
N1382 Eu1385 2.609 . S
C1383 C1381 1.400 . S
C1383 N1382 1.321 . S
C1383 H1390 0.930 . S
C1384 C1379 1.395 . S
C1384 C1381 1.386 . S
C1384 H1403 0.930 . S
Eu1385 N1382 2.609 . S
Eu1385 N1386 2.657 . S
Eu1385 O1419 2.380 . S
Eu1385 O1420 2.432 . S
Eu1385 O1424 2.558 . S
Eu1385 O1425 2.612 . S
Eu1385 O1427 2.339 . S
Eu1385 O1428 2.563 . S
Eu1385 O1429 2.419 . S
Eu1385 C1449 2.848 . S
N1386 C1378 1.362 . S
N1386 Eu1385 2.657 . S
N1386 C1387 1.334 . S
C1387 N1386 1.334 . S
C1387 C1389 1.413 . S
C1387 H1394 0.929 . S
C1388 C1376 1.392 . S
C1388 C1389 1.367 . S
C1388 H1396 0.930 . S
C1389 C1387 1.413 . S
C1389 C1388 1.367 . S
C1389 H1391 0.930 . S
H1390 C1383 0.930 . S
H1391 C1389 0.930 . S
H1392 C1380 0.930 . S
H1393 C1381 0.930 . S
H1394 C1387 0.929 . S
H1395 C1409 0.930 . S
H1396 C1388 0.930 . S
H1397 C1415 0.930 . S
H1398 C1406 0.929 . S
H1399 C1413 0.930 . S
H1400 C1377 0.931 . S
H1401 C1407 0.930 . S
H1402 C1440 0.930 . S
H1403 C1384 0.930 . S
H1404 C1439 0.931 . S
N1405 Eu1374 2.657 . S
N1405 C1406 1.334 . S
N1405 C1410 1.362 . S
C1406 H1398 0.929 . S
C1406 N1405 1.334 . S
C1406 C1409 1.413 . S
C1407 H1401 0.930 . S
C1407 C1408 1.392 . S
C1407 C1409 1.367 . S
C1408 C1407 1.392 . S
C1408 C1410 1.420 . S
C1408 C1440 1.423 . S
C1409 H1395 0.930 . S
C1409 C1406 1.413 . S
C1409 C1407 1.367 . S
C1410 N1405 1.362 . S
C1410 C1408 1.420 . S
C1410 C1414 1.429 . S
H1411 C1416 0.930 . S
N1412 Eu1374 2.609 . S
N1412 C1414 1.377 . S
N1412 C1415 1.321 . S
C1413 H1399 0.930 . S
C1413 C1415 1.400 . S
C1413 C1416 1.386 . S
C1414 C1410 1.429 . S
C1414 N1412 1.377 . S
C1414 C1417 1.411 . S
C1415 H1397 0.930 . S
C1415 N1412 1.321 . S
C1415 C1413 1.400 . S
C1416 H1411 0.930 . S
C1416 C1413 1.386 . S
C1416 C1417 1.395 . S
C1417 C1414 1.411 . S
C1417 C1416 1.395 . S
C1417 C1439 1.420 . S
O1418 Eu1374 2.558 . S
O1418 C1438 1.257 . S
O1419 Eu1374 2.612 . S
O1419 Eu1385 2.380 . S
O1419 C1430 1.276 . S
O1420 Eu1385 2.432 . S
O1420 C1437 1.264 . S
O1421 Eu1374 2.339 . S
O1421 C1437 1.254 . S
O1422 Eu1374 2.563 . S
O1422 C1430 1.235 . S
O1423 Eu1374 2.419 . S
O1423 C1438 1.249 . S
O1424 Eu1385 2.558 . S
O1424 C1449 1.257 . S
O1425 Eu1374 2.380 . S
O1425 Eu1385 2.612 . S
O1425 C1441 1.276 . S
O1426 Eu1374 2.432 . S
O1426 C1448 1.264 . S
O1427 Eu1385 2.339 . S
O1427 C1448 1.254 . S
O1428 Eu1385 2.563 . S
O1428 C1441 1.235 . S
O1429 Eu1385 2.419 . S
O1429 C1449 1.249 . S
C1430 O1419 1.276 . S
C1430 O1422 1.235 . S
C1431 C1433 1.393 . S
C1431 C1435 1.395 . S
C1431 C1438 1.492 . S
C1432 C1433 1.392 . S
C1432 C1434 1.386 . S
C1433 C1431 1.393 . S
C1433 C1432 1.392 . S
C1433 H1450 0.930 . S
C1434 C1432 1.386 . S
C1434 C1436 1.395 . S
C1434 H1451 0.930 . S
C1435 C1431 1.395 . S
C1435 C1436 1.379 . S
C1435 H1452 0.930 . S
C1436 C1434 1.395 . S
C1436 C1435 1.379 . S
C1436 H1453 0.930 . S
C1437 O1420 1.264 . S
C1437 O1421 1.254 . S
C1438 Eu1374 2.848 . S
C1438 O1418 1.257 . S
C1438 O1423 1.249 . S
C1438 C1431 1.492 . S
C1439 H1404 0.931 . S
C1439 C1417 1.420 . S
C1439 C1440 1.351 . S
C1440 H1402 0.930 . S
C1440 C1408 1.423 . S
C1440 C1439 1.351 . S
C1441 O1425 1.276 . S
C1441 O1428 1.235 . S
C1442 C1443 1.393 . S
C1442 C1446 1.395 . S
C1442 C1449 1.492 . S
C1443 C1442 1.393 . S
C1443 C1444 1.392 . S
C1443 H1454 0.930 . S
C1444 C1443 1.392 . S
C1444 C1445 1.386 . S
C1445 C1444 1.386 . S
C1445 C1447 1.395 . S
C1445 H1455 0.930 . S
C1446 C1442 1.395 . S
C1446 C1447 1.379 . S
C1446 H1456 0.930 . S
C1447 C1445 1.395 . S
C1447 C1446 1.379 . S
C1447 H1457 0.930 . S
C1448 O1426 1.264 . S
C1448 O1427 1.254 . S
C1449 Eu1385 2.848 . S
C1449 O1424 1.257 . S
C1449 O1429 1.249 . S
C1449 C1442 1.492 . S
H1450 C1433 0.930 . S
H1451 C1434 0.930 . S
H1452 C1435 0.930 . S
H1453 C1436 0.930 . S
H1454 C1443 0.930 . S
H1455 C1445 0.930 . S
H1456 C1446 0.930 . S
H1457 C1447 0.930 . S
H1458 C1466 0.929 . S
H1459 C1468 0.930 . S
H1460 C1470 0.930 . S
H1461 C1473 0.929 . S
H1462 C1476 0.930 . S
H1463 C1478 0.960 . S
H1464 C1478 0.960 . S
H1465 C1478 0.960 . S
C1466 H1458 0.929 . S
C1466 C1467 1.377 . S
C1466 C1468 1.384 . S
C1467 C1466 1.377 . S
C1467 C1473 1.390 . S
C1468 H1459 0.930 . S
C1468 C1466 1.384 . S
C1468 C1469 1.372 . S
C1469 C1468 1.372 . S
C1469 C1470 1.400 . S
C1469 C1474 1.490 . S
C1470 H1460 0.930 . S
C1470 C1469 1.400 . S
C1470 C1473 1.386 . S
H1471 C1487 0.930 . S
H1472 C1488 0.931 . S
C1473 H1461 0.929 . S
C1473 C1467 1.390 . S
C1473 C1470 1.386 . S
C1474 C1469 1.490 . S
C1474 C1476 1.395 . S
C1474 C1477 1.403 . S
H1475 C1481 0.930 . S
C1476 H1462 0.930 . S
C1476 C1474 1.395 . S
C1476 C1479 1.403 . S
C1477 C1474 1.403 . S
C1477 C1478 1.524 . S
C1477 C1481 1.400 . S
C1478 H1463 0.960 . S
C1478 H1464 0.960 . S
C1478 H1465 0.960 . S
C1478 C1477 1.524 . S
C1479 C1476 1.403 . S
C1479 C1480 1.392 . S
C1479 C1483 1.495 . S
C1480 C1479 1.392 . S
C1480 C1481 1.385 . S
C1480 C1482 1.478 . S
C1481 H1475 0.930 . S
C1481 C1477 1.400 . S
C1481 C1480 1.385 . S
C1482 C1480 1.478 . S
C1482 C1484 1.381 . S
C1482 C1488 1.383 . S
C1483 C1479 1.495 . S
C1483 H1489 0.959 . S
C1483 H1490 0.961 . S
C1483 H1491 0.960 . S
C1484 C1482 1.381 . S
C1484 C1485 1.394 . S
C1484 H1492 0.930 . S
C1485 C1484 1.394 . S
C1485 C1486 1.383 . S
C1485 H1493 0.929 . S
C1486 C1485 1.383 . S
C1486 C1487 1.377 . S
C1487 H1471 0.930 . S
C1487 C1486 1.377 . S
C1487 C1488 1.379 . S
C1488 H1472 0.931 . S
C1488 C1482 1.383 . S
C1488 C1487 1.379 . S
H1489 C1483 0.959 . S
H1490 C1483 0.961 . S
H1491 C1483 0.960 . S
H1492 C1484 0.930 . S
H1493 C1485 0.929 . S
H1494 C1502 0.929 . S
H1495 C1504 0.930 . S
H1496 C1506 0.930 . S
H1497 C1509 0.929 . S
H1498 C1512 0.930 . S
H1499 C1514 0.960 . S
H1500 C1514 0.960 . S
H1501 C1514 0.960 . S
C1502 H1494 0.929 . S
C1502 C1503 1.377 . S
C1502 C1504 1.384 . S
C1503 C1502 1.377 . S
C1503 C1509 1.390 . S
C1504 H1495 0.930 . S
C1504 C1502 1.384 . S
C1504 C1505 1.372 . S
C1505 C1504 1.372 . S
C1505 C1506 1.400 . S
C1505 C1510 1.490 . S
C1506 H1496 0.930 . S
C1506 C1505 1.400 . S
C1506 C1509 1.386 . S
H1507 C1523 0.930 . S
H1508 C1524 0.931 . S
C1509 H1497 0.929 . S
C1509 C1503 1.390 . S
C1509 C1506 1.386 . S
C1510 C1505 1.490 . S
C1510 C1512 1.395 . S
C1510 C1513 1.403 . S
H1511 C1517 0.930 . S
C1512 H1498 0.930 . S
C1512 C1510 1.395 . S
C1512 C1515 1.403 . S
C1513 C1510 1.403 . S
C1513 C1514 1.524 . S
C1513 C1517 1.400 . S
C1514 H1499 0.960 . S
C1514 H1500 0.960 . S
C1514 H1501 0.960 . S
C1514 C1513 1.524 . S
C1515 C1512 1.403 . S
C1515 C1516 1.392 . S
C1515 C1519 1.495 . S
C1516 C1515 1.392 . S
C1516 C1517 1.385 . S
C1516 C1518 1.478 . S
C1517 H1511 0.930 . S
C1517 C1513 1.400 . S
C1517 C1516 1.385 . S
C1518 C1516 1.478 . S
C1518 C1520 1.381 . S
C1518 C1524 1.383 . S
C1519 C1515 1.495 . S
C1519 H1525 0.959 . S
C1519 H1526 0.961 . S
C1519 H1527 0.960 . S
C1520 C1518 1.381 . S
C1520 C1521 1.394 . S
C1520 H1528 0.930 . S
C1521 C1520 1.394 . S
C1521 C1522 1.383 . S
C1521 H1529 0.929 . S
C1522 C1521 1.383 . S
C1522 C1523 1.377 . S
C1523 H1507 0.930 . S
C1523 C1522 1.377 . S
C1523 C1524 1.379 . S
C1524 H1508 0.931 . S
C1524 C1518 1.383 . S
C1524 C1523 1.379 . S
H1525 C1519 0.959 . S
H1526 C1519 0.961 . S
H1527 C1519 0.960 . S
H1528 C1520 0.930 . S
H1529 C1521 0.929 . S
H1530 C1538 0.929 . S
H1531 C1540 0.930 . S
H1532 C1542 0.930 . S
H1533 C1545 0.929 . S
H1534 C1548 0.930 . S
H1535 C1550 0.960 . S
H1536 C1550 0.960 . S
H1537 C1550 0.960 . S
C1538 H1530 0.929 . S
C1538 C1539 1.377 . S
C1538 C1540 1.384 . S
C1539 C1538 1.377 . S
C1539 C1545 1.390 . S
C1540 H1531 0.930 . S
C1540 C1538 1.384 . S
C1540 C1541 1.372 . S
C1541 C1540 1.372 . S
C1541 C1542 1.400 . S
C1541 C1546 1.490 . S
C1542 H1532 0.930 . S
C1542 C1541 1.400 . S
C1542 C1545 1.386 . S
H1543 C1559 0.930 . S
H1544 C1560 0.931 . S
C1545 H1533 0.929 . S
C1545 C1539 1.390 . S
C1545 C1542 1.386 . S
C1546 C1541 1.490 . S
C1546 C1548 1.395 . S
C1546 C1549 1.403 . S
H1547 C1553 0.930 . S
C1548 H1534 0.930 . S
C1548 C1546 1.395 . S
C1548 C1551 1.403 . S
C1549 C1546 1.403 . S
C1549 C1550 1.524 . S
C1549 C1553 1.400 . S
C1550 H1535 0.960 . S
C1550 H1536 0.960 . S
C1550 H1537 0.960 . S
C1550 C1549 1.524 . S
C1551 C1548 1.403 . S
C1551 C1552 1.392 . S
C1551 C1555 1.495 . S
C1552 C1551 1.392 . S
C1552 C1553 1.385 . S
C1552 C1554 1.478 . S
C1553 H1547 0.930 . S
C1553 C1549 1.400 . S
C1553 C1552 1.385 . S
C1554 C1552 1.478 . S
C1554 C1556 1.381 . S
C1554 C1560 1.383 . S
C1555 C1551 1.495 . S
C1555 H1561 0.959 . S
C1555 H1562 0.961 . S
C1555 H1563 0.960 . S
C1556 C1554 1.381 . S
C1556 C1557 1.394 . S
C1556 H1564 0.930 . S
C1557 C1556 1.394 . S
C1557 C1558 1.383 . S
C1557 H1565 0.929 . S
C1558 C1557 1.383 . S
C1558 C1559 1.377 . S
C1559 H1543 0.930 . S
C1559 C1558 1.377 . S
C1559 C1560 1.379 . S
C1560 H1544 0.931 . S
C1560 C1554 1.383 . S
C1560 C1559 1.379 . S
H1561 C1555 0.959 . S
H1562 C1555 0.961 . S
H1563 C1555 0.960 . S
H1564 C1556 0.930 . S
H1565 C1557 0.929 . S
H1566 C1574 0.929 . S
H1567 C1576 0.930 . S
H1568 C1578 0.930 . S
H1569 C1581 0.929 . S
H1570 C1584 0.930 . S
H1571 C1586 0.960 . S
H1572 C1586 0.960 . S
H1573 C1586 0.960 . S
C1574 H1566 0.929 . S
C1574 C1575 1.377 . S
C1574 C1576 1.384 . S
C1575 C1574 1.377 . S
C1575 C1581 1.390 . S
C1576 H1567 0.930 . S
C1576 C1574 1.384 . S
C1576 C1577 1.372 . S
C1577 C1576 1.372 . S
C1577 C1578 1.400 . S
C1577 C1582 1.490 . S
C1578 H1568 0.930 . S
C1578 C1577 1.400 . S
C1578 C1581 1.386 . S
H1579 C1595 0.930 . S
H1580 C1596 0.931 . S
C1581 H1569 0.929 . S
C1581 C1575 1.390 . S
C1581 C1578 1.386 . S
C1582 C1577 1.490 . S
C1582 C1584 1.395 . S
C1582 C1585 1.403 . S
H1583 C1589 0.930 . S
C1584 H1570 0.930 . S
C1584 C1582 1.395 . S
C1584 C1587 1.403 . S
C1585 C1582 1.403 . S
C1585 C1586 1.524 . S
C1585 C1589 1.400 . S
C1586 H1571 0.960 . S
C1586 H1572 0.960 . S
C1586 H1573 0.960 . S
C1586 C1585 1.524 . S
C1587 C1584 1.403 . S
C1587 C1588 1.392 . S
C1587 C1591 1.495 . S
C1588 C1587 1.392 . S
C1588 C1589 1.385 . S
C1588 C1590 1.478 . S
C1589 H1583 0.930 . S
C1589 C1585 1.400 . S
C1589 C1588 1.385 . S
C1590 C1588 1.478 . S
C1590 C1592 1.381 . S
C1590 C1596 1.383 . S
C1591 C1587 1.495 . S
C1591 H1597 0.959 . S
C1591 H1598 0.961 . S
C1591 H1599 0.960 . S
C1592 C1590 1.381 . S
C1592 C1593 1.402 . S
C1592 H1600 0.914 1_556 S
C1593 C1592 1.402 . S
C1593 C1594 1.398 . S
C1593 H1601 0.907 1_556 S
C1594 C1593 1.398 . S
C1594 C1595 1.377 . S
C1595 H1579 0.930 . S
C1595 C1594 1.377 . S
C1595 C1596 1.379 . S
C1596 H1580 0.931 . S
C1596 C1590 1.383 . S
C1596 C1595 1.379 . S
H1597 C1591 0.959 . S
H1598 C1591 0.961 . S
H1599 C1591 0.960 . S
H1600 C1592 0.914 1_554 S
H1601 C1593 0.907 1_554 S
H1602 C1610 0.929 . S
H1603 C1612 0.930 . S
H1604 C1614 0.930 . S
H1605 C1617 0.929 . S
H1606 C1620 0.930 . S
H1607 C1622 0.960 . S
H1608 C1622 0.960 . S
H1609 C1622 0.960 . S
C1610 H1602 0.929 . S
C1610 C1611 1.377 . S
C1610 C1612 1.384 . S
C1611 C1610 1.377 . S
C1611 C1617 1.390 . S
C1612 H1603 0.930 . S
C1612 C1610 1.384 . S
C1612 C1613 1.372 . S
C1613 C1612 1.372 . S
C1613 C1614 1.400 . S
C1613 C1618 1.490 . S
C1614 H1604 0.930 . S
C1614 C1613 1.400 . S
C1614 C1617 1.386 . S
H1615 C1631 0.930 . S
H1616 C1632 0.931 . S
C1617 H1605 0.929 . S
C1617 C1611 1.390 . S
C1617 C1614 1.386 . S
C1618 C1613 1.490 . S
C1618 C1620 1.395 . S
C1618 C1621 1.403 . S
H1619 C1625 0.930 . S
C1620 H1606 0.930 . S
C1620 C1618 1.395 . S
C1620 C1623 1.403 . S
C1621 C1618 1.403 . S
C1621 C1622 1.524 . S
C1621 C1625 1.400 . S
C1622 H1607 0.960 . S
C1622 H1608 0.960 . S
C1622 H1609 0.960 . S
C1622 C1621 1.524 . S
C1623 C1620 1.403 . S
C1623 C1624 1.392 . S
C1623 C1627 1.495 . S
C1624 C1623 1.392 . S
C1624 C1625 1.385 . S
C1624 C1626 1.478 . S
C1625 H1619 0.930 . S
C1625 C1621 1.400 . S
C1625 C1624 1.385 . S
C1626 C1624 1.478 . S
C1626 C1628 1.381 . S
C1626 C1632 1.383 . S
C1627 C1623 1.495 . S
C1627 H1633 0.959 . S
C1627 H1634 0.961 . S
C1627 H1635 0.960 . S
C1628 C1626 1.381 . S
C1628 C1629 1.394 . S
C1628 H1636 0.930 . S
C1629 C1628 1.394 . S
C1629 C1630 1.383 . S
C1629 H1637 0.929 . S
C1630 C1629 1.383 . S
C1630 C1631 1.377 . S
C1631 H1615 0.930 . S
C1631 C1630 1.377 . S
C1631 C1632 1.379 . S
C1632 H1616 0.931 . S
C1632 C1626 1.383 . S
C1632 C1631 1.379 . S
H1633 C1627 0.959 . S
H1634 C1627 0.961 . S
H1635 C1627 0.960 . S
H1636 C1628 0.930 . S
H1637 C1629 0.929 . S
H1638 C1646 0.929 . S
H1639 C1648 0.930 . S
H1640 C1650 0.930 . S
H1641 C1653 0.929 . S
H1642 C1656 0.930 . S
H1643 C1658 0.960 . S
H1644 C1658 0.960 . S
H1645 C1658 0.960 . S
C1646 H1638 0.929 . S
C1646 C1647 1.377 . S
C1646 C1648 1.384 . S
C1647 C1646 1.377 . S
C1647 C1653 1.390 . S
C1648 H1639 0.930 . S
C1648 C1646 1.384 . S
C1648 C1649 1.372 . S
C1649 C1648 1.372 . S
C1649 C1650 1.400 . S
C1649 C1654 1.490 . S
C1650 H1640 0.930 . S
C1650 C1649 1.400 . S
C1650 C1653 1.386 . S
H1651 C1667 0.930 . S
H1652 C1668 0.931 . S
C1653 H1641 0.929 . S
C1653 C1647 1.390 . S
C1653 C1650 1.386 . S
C1654 C1649 1.490 . S
C1654 C1656 1.395 . S
C1654 C1657 1.403 . S
H1655 C1661 0.930 . S
C1656 H1642 0.930 . S
C1656 C1654 1.395 . S
C1656 C1659 1.403 . S
C1657 C1654 1.403 . S
C1657 C1658 1.524 . S
C1657 C1661 1.400 . S
C1658 H1643 0.960 . S
C1658 H1644 0.960 . S
C1658 H1645 0.960 . S
C1658 C1657 1.524 . S
C1659 C1656 1.403 . S
C1659 C1660 1.392 . S
C1659 C1663 1.495 . S
C1660 C1659 1.392 . S
C1660 C1661 1.385 . S
C1660 C1662 1.478 . S
C1661 H1655 0.930 . S
C1661 C1657 1.400 . S
C1661 C1660 1.385 . S
C1662 C1660 1.478 . S
C1662 C1664 1.381 . S
C1662 C1668 1.383 . S
C1663 C1659 1.495 . S
C1663 H1669 0.959 . S
C1663 H1670 0.961 . S
C1663 H1671 0.960 . S
C1664 C1662 1.381 . S
C1664 C1665 1.394 . S
C1664 H1672 0.930 . S
C1665 C1664 1.394 . S
C1665 C1666 1.383 . S
C1665 H1673 0.929 . S
C1666 C1665 1.383 . S
C1666 C1667 1.377 . S
C1667 H1651 0.930 . S
C1667 C1666 1.377 . S
C1667 C1668 1.379 . S
C1668 H1652 0.931 . S
C1668 C1662 1.383 . S
C1668 C1667 1.379 . S
H1669 C1663 0.959 . S
H1670 C1663 0.961 . S
H1671 C1663 0.960 . S
H1672 C1664 0.930 . S
H1673 C1665 0.929 . S
H1674 C1682 0.929 . S
H1675 C1684 0.930 . S
H1676 C1686 0.930 . S
H1677 C1689 0.929 . S
H1678 C1692 0.930 . S
H1679 C1694 0.960 . S
H1680 C1694 0.960 . S
H1681 C1694 0.960 . S
C1682 H1674 0.929 . S
C1682 C1683 1.377 . S
C1682 C1684 1.384 . S
C1683 C1682 1.377 . S
C1683 C1689 1.390 . S
C1684 H1675 0.930 . S
C1684 C1682 1.384 . S
C1684 C1685 1.372 . S
C1685 C1684 1.372 . S
C1685 C1686 1.400 . S
C1685 C1690 1.490 . S
C1686 H1676 0.930 . S
C1686 C1685 1.400 . S
C1686 C1689 1.386 . S
H1687 C1703 0.930 1_554 S
H1688 C1704 0.931 . S
C1689 H1677 0.929 . S
C1689 C1683 1.390 . S
C1689 C1686 1.386 . S
C1690 C1685 1.490 . S
C1690 C1692 1.395 . S
C1690 C1693 1.403 . S
H1691 C1697 0.930 . S
C1692 H1678 0.930 . S
C1692 C1690 1.395 . S
C1692 C1695 1.403 . S
C1693 C1690 1.403 . S
C1693 C1694 1.524 . S
C1693 C1697 1.400 . S
C1694 H1679 0.960 . S
C1694 H1680 0.960 . S
C1694 H1681 0.960 . S
C1694 C1693 1.524 . S
C1695 C1692 1.403 . S
C1695 C1696 1.392 . S
C1695 C1699 1.495 . S
C1696 C1695 1.392 . S
C1696 C1697 1.385 . S
C1696 C1698 1.478 . S
C1697 H1691 0.930 . S
C1697 C1693 1.400 . S
C1697 C1696 1.385 . S
C1698 C1696 1.478 . S
C1698 C1700 1.381 . S
C1698 C1704 1.383 . S
C1699 C1695 1.495 . S
C1699 H1705 0.959 . S
C1699 H1706 0.961 . S
C1699 H1707 0.960 . S
C1700 C1698 1.381 . S
C1700 C1701 1.394 . S
C1700 H1708 0.930 . S
C1701 C1700 1.394 . S
C1701 C1702 1.383 . S
C1701 H1709 0.929 . S
C1702 C1701 1.383 . S
C1702 C1703 1.377 . S
C1703 H1687 0.930 1_556 S
C1703 C1702 1.377 . S
C1703 C1704 1.379 . S
C1704 H1688 0.931 . S
C1704 C1698 1.383 . S
C1704 C1703 1.379 . S
H1705 C1699 0.959 . S
H1706 C1699 0.961 . S
H1707 C1699 0.960 . S
H1708 C1700 0.930 . S
H1709 C1701 0.929 . S
H1710 C1718 0.929 . S
H1711 C1720 0.930 . S
H1712 C1722 0.930 . S
H1713 C1725 0.929 . S
H1714 C1728 0.930 . S
H1715 C1730 0.960 . S
H1716 C1730 0.960 . S
H1717 C1730 0.960 . S
C1718 H1710 0.929 . S
C1718 C1719 1.377 . S
C1718 C1720 1.384 . S
C1719 C1718 1.377 . S
C1719 C1725 1.390 . S
C1720 H1711 0.930 . S
C1720 C1718 1.384 . S
C1720 C1721 1.372 . S
C1721 C1720 1.372 . S
C1721 C1722 1.400 . S
C1721 C1726 1.490 . S
C1722 H1712 0.930 . S
C1722 C1721 1.400 . S
C1722 C1725 1.386 . S
H1723 C1739 0.930 . S
H1724 C1740 0.931 . S
C1725 H1713 0.929 . S
C1725 C1719 1.390 . S
C1725 C1722 1.386 . S
C1726 C1721 1.490 . S
C1726 C1728 1.395 . S
C1726 C1729 1.403 . S
H1727 C1733 0.930 . S
C1728 H1714 0.930 . S
C1728 C1726 1.395 . S
C1728 C1731 1.403 . S
C1729 C1726 1.403 . S
C1729 C1730 1.524 . S
C1729 C1733 1.400 . S
C1730 H1715 0.960 . S
C1730 H1716 0.960 . S
C1730 H1717 0.960 . S
C1730 C1729 1.524 . S
C1731 C1728 1.403 . S
C1731 C1732 1.392 . S
C1731 C1735 1.495 . S
C1732 C1731 1.392 . S
C1732 C1733 1.385 . S
C1732 C1734 1.478 . S
C1733 H1727 0.930 . S
C1733 C1729 1.400 . S
C1733 C1732 1.385 . S
C1734 C1732 1.478 . S
C1734 C1736 1.381 . S
C1734 C1740 1.383 . S
C1735 C1731 1.495 . S
C1735 H1741 0.959 . S
C1735 H1742 0.961 . S
C1735 H1743 0.960 . S
C1736 C1734 1.381 . S
C1736 C1737 1.394 . S
C1736 H1744 0.930 . S
C1737 C1736 1.394 . S
C1737 C1738 1.383 . S
C1737 H1745 0.929 . S
C1738 C1737 1.383 . S
C1738 C1739 1.377 . S
C1739 H1723 0.930 . S
C1739 C1738 1.377 . S
C1739 C1740 1.379 . S
C1740 H1724 0.931 . S
C1740 C1734 1.383 . S
C1740 C1739 1.379 . S
H1741 C1735 0.959 . S
H1742 C1735 0.961 . S
H1743 C1735 0.960 . S
H1744 C1736 0.930 . S
H1745 C1737 0.929 . S
H1746 C1754 0.929 . S
H1747 C1756 0.930 . S
H1748 C1758 0.930 . S
H1749 C1761 0.929 . S
H1750 C1764 0.930 . S
H1751 C1766 0.960 . S
H1752 C1766 0.960 . S
H1753 C1766 0.960 . S
C1754 H1746 0.929 . S
C1754 C1755 1.377 . S
C1754 C1756 1.384 . S
C1755 C1754 1.377 . S
C1755 C1761 1.390 . S
C1756 H1747 0.930 . S
C1756 C1754 1.384 . S
C1756 C1757 1.372 . S
C1757 C1756 1.372 . S
C1757 C1758 1.400 . S
C1757 C1762 1.490 . S
C1758 H1748 0.930 . S
C1758 C1757 1.400 . S
C1758 C1761 1.386 . S
H1759 C1775 0.930 1_554 S
H1760 C1776 0.973 . S
C1761 H1749 0.929 . S
C1761 C1755 1.390 . S
C1761 C1758 1.386 . S
C1762 C1757 1.490 . S
C1762 C1764 1.395 . S
C1762 C1765 1.403 . S
H1763 C1769 0.930 . S
C1764 H1750 0.930 . S
C1764 C1762 1.395 . S
C1764 C1767 1.403 . S
C1765 C1762 1.403 . S
C1765 C1766 1.524 . S
C1765 C1769 1.400 . S
C1766 H1751 0.960 . S
C1766 H1752 0.960 . S
C1766 H1753 0.960 . S
C1766 C1765 1.524 . S
C1767 C1764 1.403 . S
C1767 C1768 1.392 . S
C1767 C1771 1.495 . S
C1768 C1767 1.392 . S
C1768 C1769 1.385 . S
C1768 C1770 1.478 . S
C1769 H1763 0.930 . S
C1769 C1765 1.400 . S
C1769 C1768 1.385 . S
C1770 C1768 1.478 . S
C1770 C1772 1.381 . S
C1770 C1776 1.383 . S
C1771 C1767 1.495 . S
C1771 H1777 0.959 . S
C1771 H1778 0.961 . S
C1771 H1779 0.960 . S
C1772 C1770 1.381 . S
C1772 C1773 1.394 . S
C1772 H1780 0.930 . S
C1773 C1772 1.394 . S
C1773 C1774 1.383 . S
C1773 H1781 0.929 . S
C1774 C1773 1.383 . S
C1774 C1775 1.377 . S
C1775 H1759 0.930 1_556 S
C1775 C1774 1.377 . S
C1775 C1776 1.379 . S
C1776 H1760 0.973 . S
C1776 C1770 1.383 . S
C1776 C1775 1.379 . S
H1777 C1771 0.959 . S
H1778 C1771 0.961 . S
H1779 C1771 0.960 . S
H1780 C1772 0.930 . S
H1781 C1773 0.929 . S
H1782 C1790 0.929 . S
H1783 C1792 0.930 . S
H1784 C1794 0.930 . S
H1785 C1797 0.929 . S
H1786 C1800 0.930 . S
H1787 C1802 0.960 . S
H1788 C1802 0.960 . S
H1789 C1802 0.960 . S
C1790 H1782 0.929 . S
C1790 C1791 1.377 . S
C1790 C1792 1.384 . S
C1791 C1790 1.377 . S
C1791 C1797 1.390 . S
C1792 H1783 0.930 . S
C1792 C1790 1.384 . S
C1792 C1793 1.372 . S
C1793 C1792 1.372 . S
C1793 C1794 1.400 . S
C1793 C1798 1.490 . S
C1794 H1784 0.930 . S
C1794 C1793 1.400 . S
C1794 C1797 1.386 . S
H1795 C1811 0.930 . S
H1796 C1812 0.931 . S
C1797 H1785 0.929 . S
C1797 C1791 1.390 . S
C1797 C1794 1.386 . S
C1798 C1793 1.490 . S
C1798 C1800 1.395 . S
C1798 C1801 1.403 . S
H1799 C1805 0.930 . S
C1800 H1786 0.930 . S
C1800 C1798 1.395 . S
C1800 C1803 1.403 . S
C1801 C1798 1.403 . S
C1801 C1802 1.524 . S
C1801 C1805 1.400 . S
C1802 H1787 0.960 . S
C1802 H1788 0.960 . S
C1802 H1789 0.960 . S
C1802 C1801 1.524 . S
C1803 C1800 1.403 . S
C1803 C1804 1.392 . S
C1803 C1807 1.495 . S
C1804 C1803 1.392 . S
C1804 C1805 1.385 . S
C1804 C1806 1.478 . S
C1805 H1799 0.930 . S
C1805 C1801 1.400 . S
C1805 C1804 1.385 . S
C1806 C1804 1.478 . S
C1806 C1808 1.381 . S
C1806 C1812 1.383 . S
C1807 C1803 1.495 . S
C1807 H1813 0.959 . S
C1807 H1814 0.961 . S
C1807 H1815 0.960 . S
C1808 C1806 1.381 . S
C1808 C1809 1.394 . S
C1808 H1816 0.930 . S
C1809 C1808 1.394 . S
C1809 C1810 1.383 . S
C1809 H1817 0.929 . S
C1810 C1809 1.383 . S
C1810 C1811 1.377 . S
C1811 H1795 0.930 . S
C1811 C1810 1.377 . S
C1811 C1812 1.379 . S
C1812 H1796 0.931 . S
C1812 C1806 1.383 . S
C1812 C1811 1.379 . S
H1813 C1807 0.959 . S
H1814 C1807 0.961 . S
H1815 C1807 0.960 . S
H1816 C1808 0.930 . S
H1817 C1809 0.929 . S
H1818 C1826 0.929 . S
H1819 C1828 0.930 . S
H1820 C1830 0.930 . S
H1821 C1833 0.929 . S
H1822 C1836 0.930 . S
H1823 C1838 0.960 . S
H1824 C1838 0.960 . S
H1825 C1838 0.960 . S
C1826 H1818 0.929 . S
C1826 C1827 1.377 . S
C1826 C1828 1.384 . S
C1827 C1826 1.377 . S
C1827 C1833 1.390 . S
C1828 H1819 0.930 . S
C1828 C1826 1.384 . S
C1828 C1829 1.372 . S
C1829 C1828 1.372 . S
C1829 C1830 1.400 . S
C1829 C1834 1.490 . S
C1830 H1820 0.930 . S
C1830 C1829 1.400 . S
C1830 C1833 1.386 . S
H1831 C1847 0.930 . S
H1832 C1848 0.931 . S
C1833 H1821 0.929 . S
C1833 C1827 1.390 . S
C1833 C1830 1.386 . S
C1834 C1829 1.490 . S
C1834 C1836 1.395 . S
C1834 C1837 1.403 . S
H1835 C1841 0.930 . S
C1836 H1822 0.930 . S
C1836 C1834 1.395 . S
C1836 C1839 1.403 . S
C1837 C1834 1.403 . S
C1837 C1838 1.524 . S
C1837 C1841 1.400 . S
C1838 H1823 0.960 . S
C1838 H1824 0.960 . S
C1838 H1825 0.960 . S
C1838 C1837 1.524 . S
C1839 C1836 1.403 . S
C1839 C1840 1.392 . S
C1839 C1843 1.495 . S
C1840 C1839 1.392 . S
C1840 C1841 1.385 . S
C1840 C1842 1.478 . S
C1841 H1835 0.930 . S
C1841 C1837 1.400 . S
C1841 C1840 1.385 . S
C1842 C1840 1.478 . S
C1842 C1844 1.381 . S
C1842 C1848 1.383 . S
C1843 C1839 1.495 . S
C1843 H1849 0.959 . S
C1843 H1850 0.961 . S
C1843 H1851 0.960 . S
C1844 C1842 1.381 . S
C1844 C1845 1.394 . S
C1844 H1852 0.930 . S
C1845 C1844 1.394 . S
C1845 C1846 1.383 . S
C1845 H1853 0.929 . S
C1846 C1845 1.383 . S
C1846 C1847 1.377 . S
C1847 H1831 0.930 . S
C1847 C1846 1.377 . S
C1847 C1848 1.379 . S
C1848 H1832 0.931 . S
C1848 C1842 1.383 . S
C1848 C1847 1.379 . S
H1849 C1843 0.959 . S
H1850 C1843 0.961 . S
H1851 C1843 0.960 . S
H1852 C1844 0.930 . S
H1853 C1845 0.929 . S
H1854 C1862 0.929 . S
H1855 C1864 0.930 . S
H1856 C1866 0.930 . S
H1857 C1869 0.929 . S
H1858 C1872 0.930 . S
H1859 C1874 0.960 . S
H1860 C1874 0.960 . S
H1861 C1874 0.960 . S
C1862 H1854 0.929 . S
C1862 C1863 1.377 . S
C1862 C1864 1.384 . S
C1863 C1862 1.377 . S
C1863 C1869 1.390 . S
C1864 H1855 0.930 . S
C1864 C1862 1.384 . S
C1864 C1865 1.372 . S
C1865 C1864 1.372 . S
C1865 C1866 1.400 . S
C1865 C1870 1.490 . S
C1866 H1856 0.930 . S
C1866 C1865 1.400 . S
C1866 C1869 1.386 . S
H1867 C1883 0.930 . S
H1868 C1884 0.931 . S
C1869 H1857 0.929 . S
C1869 C1863 1.390 . S
C1869 C1866 1.386 . S
C1870 C1865 1.490 . S
C1870 C1872 1.395 . S
C1870 C1873 1.403 . S
H1871 C1877 0.930 . S
C1872 H1858 0.930 . S
C1872 C1870 1.395 . S
C1872 C1875 1.403 . S
C1873 C1870 1.403 . S
C1873 C1874 1.524 . S
C1873 C1877 1.400 . S
C1874 H1859 0.960 . S
C1874 H1860 0.960 . S
C1874 H1861 0.960 . S
C1874 C1873 1.524 . S
C1875 C1872 1.403 . S
C1875 C1876 1.392 . S
C1875 C1879 1.495 . S
C1876 C1875 1.392 . S
C1876 C1877 1.385 . S
C1876 C1878 1.478 . S
C1877 H1871 0.930 . S
C1877 C1873 1.400 . S
C1877 C1876 1.385 . S
C1878 C1876 1.478 . S
C1878 C1880 1.381 . S
C1878 C1884 1.383 . S
C1879 C1875 1.495 . S
C1879 H1885 0.959 . S
C1879 H1886 0.961 . S
C1879 H1887 0.960 . S
C1880 C1878 1.381 . S
C1880 C1881 1.394 . S
C1880 H1888 0.930 . S
C1881 C1880 1.394 . S
C1881 C1882 1.383 . S
C1881 H1889 0.929 . S
C1882 C1881 1.383 . S
C1882 C1883 1.377 . S
C1883 H1867 0.930 . S
C1883 C1882 1.377 . S
C1883 C1884 1.379 . S
C1884 H1868 0.931 . S
C1884 C1878 1.383 . S
C1884 C1883 1.379 . S
H1885 C1879 0.959 . S
H1886 C1879 0.961 . S
H1887 C1879 0.960 . S
H1888 C1880 0.930 . S
H1889 C1881 0.929 . S
H1890 C1898 0.929 . S
H1891 C1900 0.930 . S
H1892 C1902 0.930 . S
H1893 C1905 0.929 . S
H1894 C1908 0.930 . S
H1895 C1910 0.960 . S
H1896 C1910 0.960 . S
H1897 C1910 0.960 . S
C1898 H1890 0.929 . S
C1898 C1899 1.377 . S
C1898 C1900 1.384 1_655 S
C1899 C1898 1.377 . S
C1899 C1905 1.390 . S
C1900 H1891 0.930 . S
C1900 C1898 1.384 1_455 S
C1900 C1901 1.372 . S
C1901 C1900 1.372 . S
C1901 C1902 1.400 1_455 S
C1901 C1906 1.490 . S
C1902 H1892 0.930 . S
C1902 C1901 1.400 1_655 S
C1902 C1905 1.386 . S
H1903 C1919 0.930 . S
H1904 C1920 0.931 . S
C1905 H1893 0.929 . S
C1905 C1899 1.390 . S
C1905 C1902 1.386 . S
C1906 C1901 1.490 . S
C1906 C1908 1.395 . S
C1906 C1909 1.403 . S
H1907 C1913 0.930 . S
C1908 H1894 0.930 . S
C1908 C1906 1.395 . S
C1908 C1911 1.403 . S
C1909 C1906 1.403 . S
C1909 C1910 1.524 . S
C1909 C1913 1.400 . S
C1910 H1895 0.960 . S
C1910 H1896 0.960 . S
C1910 H1897 0.960 . S
C1910 C1909 1.524 . S
C1911 C1908 1.403 . S
C1911 C1912 1.392 . S
C1911 C1915 1.495 . S
C1912 C1911 1.392 . S
C1912 C1913 1.385 . S
C1912 C1914 1.478 . S
C1913 H1907 0.930 . S
C1913 C1909 1.400 . S
C1913 C1912 1.385 . S
C1914 C1912 1.478 . S
C1914 C1916 1.381 . S
C1914 C1920 1.383 . S
C1915 C1911 1.495 . S
C1915 H1921 0.959 . S
C1915 H1922 0.961 . S
C1915 H1923 0.960 . S
C1916 C1914 1.381 . S
C1916 C1917 1.394 . S
C1916 H1924 0.930 . S
C1917 C1916 1.394 . S
C1917 C1918 1.383 . S
C1917 H1925 0.929 . S
C1918 C1917 1.383 . S
C1918 C1919 1.377 . S
C1919 H1903 0.930 . S
C1919 C1918 1.377 . S
C1919 C1920 1.379 . S
C1920 H1904 0.931 . S
C1920 C1914 1.383 . S
C1920 C1919 1.379 . S
H1921 C1915 0.959 . S
H1922 C1915 0.961 . S
H1923 C1915 0.960 . S
H1924 C1916 0.930 . S
H1925 C1917 0.929 . S
H1926 C1934 0.929 . S
H1927 C1936 0.930 . S
H1928 C1938 0.930 . S
H1929 C1941 0.929 . S
H1930 C1944 0.930 . S
H1931 C1946 0.960 . S
H1932 C1946 0.960 . S
H1933 C1946 0.960 . S
C1934 H1926 0.929 . S
C1934 C1935 1.377 . S
C1934 C1936 1.384 . S
C1935 C1934 1.377 . S
C1935 C1941 1.390 . S
C1936 H1927 0.930 . S
C1936 C1934 1.384 . S
C1936 C1937 1.372 . S
C1937 C1936 1.372 . S
C1937 C1938 1.400 . S
C1937 C1942 1.490 . S
C1938 H1928 0.930 . S
C1938 C1937 1.400 . S
C1938 C1941 1.386 . S
H1939 C1955 0.930 . S
H1940 C1956 0.931 . S
C1941 H1929 0.929 . S
C1941 C1935 1.390 . S
C1941 C1938 1.386 . S
C1942 C1937 1.490 . S
C1942 C1944 1.395 . S
C1942 C1945 1.403 . S
H1943 C1949 0.930 . S
C1944 H1930 0.930 . S
C1944 C1942 1.395 . S
C1944 C1947 1.403 . S
C1945 C1942 1.403 . S
C1945 C1946 1.524 . S
C1945 C1949 1.400 . S
C1946 H1931 0.960 . S
C1946 H1932 0.960 . S
C1946 H1933 0.960 . S
C1946 C1945 1.524 . S
C1947 C1944 1.403 . S
C1947 C1948 1.392 . S
C1947 C1951 1.495 . S
C1948 C1947 1.392 . S
C1948 C1949 1.385 . S
C1948 C1950 1.478 . S
C1949 H1943 0.930 . S
C1949 C1945 1.400 . S
C1949 C1948 1.385 . S
C1950 C1948 1.478 . S
C1950 C1952 1.381 . S
C1950 C1956 1.383 . S
C1951 C1947 1.495 . S
C1951 H1957 0.959 . S
C1951 H1958 0.961 . S
C1951 H1959 0.960 . S
C1952 C1950 1.381 . S
C1952 C1953 1.394 . S
C1952 H1960 0.930 . S
C1953 C1952 1.394 . S
C1953 C1954 1.383 . S
C1953 H1961 0.929 . S
C1954 C1953 1.383 . S
C1954 C1955 1.377 . S
C1955 H1939 0.930 . S
C1955 C1954 1.377 . S
C1955 C1956 1.379 . S
C1956 H1940 0.931 . S
C1956 C1950 1.383 . S
C1956 C1955 1.379 . S
H1957 C1951 0.959 . S
H1958 C1951 0.961 . S
H1959 C1951 0.960 . S
H1960 C1952 0.930 . S
H1961 C1953 0.929 . S
H1962 C1970 0.929 . S
H1963 C1972 0.930 1_565 S
H1964 C1974 0.930 . S
H1965 C1977 0.929 . S
H1966 C1980 0.930 . S
H1967 C1982 0.960 . S
H1968 C1982 0.960 . S
H1969 C1982 0.938 1_545 S
C1970 H1962 0.929 . S
C1970 C1971 1.377 . S
C1970 C1972 1.384 . S
C1971 C1970 1.377 . S
C1971 C1977 1.390 . S
C1972 H1963 0.930 1_545 S
C1972 C1970 1.384 . S
C1972 C1973 1.372 . S
C1973 C1972 1.372 . S
C1973 C1974 1.400 . S
C1973 C1978 1.490 1_545 S
C1974 H1964 0.930 . S
C1974 C1973 1.400 . S
C1974 C1977 1.386 . S
H1975 C1991 0.930 . S
H1976 C1992 0.931 . S
C1977 H1965 0.929 . S
C1977 C1971 1.390 . S
C1977 C1974 1.386 . S
C1978 C1973 1.490 1_565 S
C1978 C1980 1.395 . S
C1978 C1981 1.403 . S
H1979 C1985 0.930 . S
C1980 H1966 0.930 . S
C1980 C1978 1.395 . S
C1980 C1983 1.403 . S
C1981 C1978 1.403 . S
C1981 C1982 1.524 . S
C1981 C1985 1.400 . S
C1982 H1967 0.960 . S
C1982 H1968 0.960 . S
C1982 H1969 0.938 1_565 S
C1982 C1981 1.524 . S
C1983 C1980 1.403 . S
C1983 C1984 1.392 . S
C1983 C1987 1.495 . S
C1984 C1983 1.392 . S
C1984 C1985 1.385 . S
C1984 C1986 1.478 . S
C1985 H1979 0.930 . S
C1985 C1981 1.400 . S
C1985 C1984 1.385 . S
C1986 C1984 1.478 . S
C1986 C1988 1.381 . S
C1986 C1992 1.383 . S
C1987 C1983 1.495 . S
C1987 H1993 0.959 . S
C1987 H1994 0.961 . S
C1987 H1995 0.960 . S
C1988 C1986 1.381 . S
C1988 C1989 1.394 . S
C1988 H1996 0.930 . S
C1989 C1988 1.394 . S
C1989 C1990 1.383 . S
C1989 H1997 0.929 . S
C1990 C1989 1.383 . S
C1990 C1991 1.377 . S
C1991 H1975 0.930 . S
C1991 C1990 1.377 . S
C1991 C1992 1.379 . S
C1992 H1976 0.931 . S
C1992 C1986 1.383 . S
C1992 C1991 1.379 . S
H1993 C1987 0.959 . S
H1994 C1987 0.961 . S
H1995 C1987 0.960 . S
H1996 C1988 0.930 . S
H1997 C1989 0.929 . S
H1998 C2006 0.929 . S
H1999 C2008 0.930 . S
H2000 C2010 0.930 . S
H2001 C2013 0.929 . S
H2002 C2016 0.930 . S
H2003 C2018 0.960 . S
H2004 C2018 0.960 . S
H2005 C2018 0.960 . S
C2006 H1998 0.929 . S
C2006 C2007 1.377 . S
C2006 C2008 1.384 . S
C2007 C2006 1.377 . S
C2007 C2013 1.390 . S
C2008 H1999 0.930 . S
C2008 C2006 1.384 . S
C2008 C2009 1.372 . S
C2009 C2008 1.372 . S
C2009 C2010 1.400 . S
C2009 C2014 1.490 . S
C2010 H2000 0.930 . S
C2010 C2009 1.400 . S
C2010 C2013 1.386 . S
H2011 C2027 0.930 . S
H2012 C2028 0.931 . S
C2013 H2001 0.929 . S
C2013 C2007 1.390 . S
C2013 C2010 1.386 . S
C2014 C2009 1.490 . S
C2014 C2016 1.395 . S
C2014 C2017 1.403 . S
H2015 C2021 0.930 . S
C2016 H2002 0.930 . S
C2016 C2014 1.395 . S
C2016 C2019 1.403 . S
C2017 C2014 1.403 . S
C2017 C2018 1.524 . S
C2017 C2021 1.400 . S
C2018 H2003 0.960 . S
C2018 H2004 0.960 . S
C2018 H2005 0.960 . S
C2018 C2017 1.524 . S
C2019 C2016 1.403 . S
C2019 C2020 1.392 . S
C2019 C2023 1.495 . S
C2020 C2019 1.392 . S
C2020 C2021 1.385 . S
C2020 C2022 1.478 . S
C2021 H2015 0.930 . S
C2021 C2017 1.400 . S
C2021 C2020 1.385 . S
C2022 C2020 1.478 . S
C2022 C2024 1.381 . S
C2022 C2028 1.383 . S
C2023 C2019 1.495 . S
C2023 H2029 0.959 . S
C2023 H2030 0.961 . S
C2023 H2031 0.960 . S
C2024 C2022 1.381 . S
C2024 C2025 1.394 . S
C2024 H2032 0.930 . S
C2025 C2024 1.394 . S
C2025 C2026 1.383 . S
C2025 H2033 0.929 . S
C2026 C2025 1.383 . S
C2026 C2027 1.377 . S
C2027 H2011 0.930 . S
C2027 C2026 1.377 . S
C2027 C2028 1.379 . S
C2028 H2012 0.931 . S
C2028 C2022 1.383 . S
C2028 C2027 1.379 . S
H2029 C2023 0.959 . S
H2030 C2023 0.961 . S
H2031 C2023 0.960 . S
H2032 C2024 0.930 . S
H2033 C2025 0.929 . S
H2034 C2042 0.929 . S
H2035 C2044 0.930 . S
H2036 C2046 0.930 . S
H2037 C2049 0.929 . S
H2038 C2052 0.930 . S
H2039 C2054 0.960 . S
H2040 C2054 0.960 . S
H2041 C2054 0.960 . S
C2042 H2034 0.929 . S
C2042 C2043 1.377 . S
C2042 C2044 1.384 . S
C2043 C2042 1.377 . S
C2043 C2049 1.390 . S
C2044 H2035 0.930 . S
C2044 C2042 1.384 . S
C2044 C2045 1.372 . S
C2045 C2044 1.372 . S
C2045 C2046 1.400 . S
C2045 C2050 1.490 . S
C2046 H2036 0.930 . S
C2046 C2045 1.400 . S
C2046 C2049 1.386 . S
H2047 C2063 0.930 . S
H2048 C2064 0.931 . S
C2049 H2037 0.929 . S
C2049 C2043 1.390 . S
C2049 C2046 1.386 . S
C2050 C2045 1.490 . S
C2050 C2052 1.395 . S
C2050 C2053 1.403 . S
H2051 C2057 0.930 . S
C2052 H2038 0.930 . S
C2052 C2050 1.395 . S
C2052 C2055 1.403 . S
C2053 C2050 1.403 . S
C2053 C2054 1.524 . S
C2053 C2057 1.400 . S
C2054 H2039 0.960 . S
C2054 H2040 0.960 . S
C2054 H2041 0.960 . S
C2054 C2053 1.524 . S
C2055 C2052 1.403 . S
C2055 C2056 1.392 . S
C2055 C2059 1.495 . S
C2056 C2055 1.392 . S
C2056 C2057 1.385 . S
C2056 C2058 1.478 . S
C2057 H2051 0.930 . S
C2057 C2053 1.400 . S
C2057 C2056 1.385 . S
C2058 C2056 1.478 . S
C2058 C2060 1.381 . S
C2058 C2064 1.383 . S
C2059 C2055 1.495 . S
C2059 H2065 0.959 . S
C2059 H2066 0.961 . S
C2059 H2067 0.960 . S
C2060 C2058 1.381 . S
C2060 C2061 1.394 . S
C2060 H2068 0.930 . S
C2061 C2060 1.394 . S
C2061 C2062 1.383 . S
C2061 H2069 0.929 . S
C2062 C2061 1.383 . S
C2062 C2063 1.377 . S
C2063 H2047 0.930 . S
C2063 C2062 1.377 . S
C2063 C2064 1.379 . S
C2064 H2048 0.931 . S
C2064 C2058 1.383 . S
C2064 C2063 1.379 . S
H2065 C2059 0.959 . S
H2066 C2059 0.961 . S
H2067 C2059 0.960 . S
H2068 C2060 0.930 . S
H2069 C2061 0.929 . S
H2070 C2078 0.929 . S
H2071 C2080 0.930 . S
H2072 C2082 0.930 . S
H2073 C2085 0.929 . S
H2074 C2088 0.930 . S
H2075 C2090 0.960 . S
H2076 C2090 0.960 . S
H2077 C2090 0.960 . S
C2078 H2070 0.929 . S
C2078 C2079 1.377 . S
C2078 C2080 1.384 . S
C2079 C2078 1.377 . S
C2079 C2085 1.390 . S
C2080 H2071 0.930 . S
C2080 C2078 1.384 . S
C2080 C2081 1.372 . S
C2081 C2080 1.372 . S
C2081 C2082 1.400 . S
C2081 C2086 1.490 . S
C2082 H2072 0.930 . S
C2082 C2081 1.400 . S
C2082 C2085 1.386 . S
H2083 C2099 0.930 . S
H2084 C2100 0.931 . S
C2085 H2073 0.929 . S
C2085 C2079 1.390 . S
C2085 C2082 1.386 . S
C2086 C2081 1.490 . S
C2086 C2088 1.395 . S
C2086 C2089 1.403 . S
H2087 C2093 0.930 . S
C2088 H2074 0.930 . S
C2088 C2086 1.395 . S
C2088 C2091 1.403 . S
C2089 C2086 1.403 . S
C2089 C2090 1.524 . S
C2089 C2093 1.400 . S
C2090 H2075 0.960 . S
C2090 H2076 0.960 . S
C2090 H2077 0.960 . S
C2090 C2089 1.524 . S
C2091 C2088 1.403 . S
C2091 C2092 1.392 . S
C2091 C2095 1.495 . S
C2092 C2091 1.392 . S
C2092 C2093 1.385 . S
C2092 C2094 1.478 . S
C2093 H2087 0.930 . S
C2093 C2089 1.400 . S
C2093 C2092 1.385 . S
C2094 C2092 1.478 . S
C2094 C2096 1.381 . S
C2094 C2100 1.383 . S
C2095 C2091 1.495 . S
C2095 H2101 0.959 . S
C2095 H2102 0.961 . S
C2095 H2103 0.960 . S
C2096 C2094 1.381 . S
C2096 C2097 1.394 . S
C2096 H2104 0.930 . S
C2097 C2096 1.394 . S
C2097 C2098 1.383 . S
C2097 H2105 0.929 . S
C2098 C2097 1.383 . S
C2098 C2099 1.377 . S
C2099 H2083 0.930 . S
C2099 C2098 1.377 . S
C2099 C2100 1.379 . S
C2100 H2084 0.931 . S
C2100 C2094 1.383 . S
C2100 C2099 1.379 . S
H2101 C2095 0.959 . S
H2102 C2095 0.961 . S
H2103 C2095 0.960 . S
H2104 C2096 0.930 . S
H2105 C2097 0.929 . S
H2106 C2114 0.929 . S
H2107 C2116 0.930 . S
H2108 C2118 0.930 . S
H2109 C2121 0.929 . S
H2110 C2124 0.930 . S
H2111 C2126 0.960 . S
H2112 C2126 0.960 . S
H2113 C2126 0.960 . S
C2114 H2106 0.929 . S
C2114 C2115 1.377 . S
C2114 C2116 1.384 . S
C2115 C2114 1.377 . S
C2115 C2121 1.390 . S
C2116 H2107 0.930 . S
C2116 C2114 1.384 . S
C2116 C2117 1.372 . S
C2117 C2116 1.372 . S
C2117 C2118 1.400 . S
C2117 C2122 1.490 . S
C2118 H2108 0.930 . S
C2118 C2117 1.400 . S
C2118 C2121 1.386 . S
H2119 C2135 0.930 . S
H2120 C2136 0.931 . S
C2121 H2109 0.929 . S
C2121 C2115 1.390 . S
C2121 C2118 1.386 . S
C2122 C2117 1.490 . S
C2122 C2124 1.395 . S
C2122 C2125 1.403 . S
H2123 C2129 0.930 . S
C2124 H2110 0.930 . S
C2124 C2122 1.395 . S
C2124 C2127 1.403 . S
C2125 C2122 1.403 . S
C2125 C2126 1.524 . S
C2125 C2129 1.400 . S
C2126 H2111 0.960 . S
C2126 H2112 0.960 . S
C2126 H2113 0.960 . S
C2126 C2125 1.524 . S
C2127 C2124 1.403 . S
C2127 C2128 1.392 . S
C2127 C2131 1.495 . S
C2128 C2127 1.392 . S
C2128 C2129 1.385 . S
C2128 C2130 1.478 . S
C2129 H2123 0.930 . S
C2129 C2125 1.400 . S
C2129 C2128 1.385 . S
C2130 C2128 1.478 . S
C2130 C2132 1.381 . S
C2130 C2136 1.383 . S
C2131 C2127 1.495 . S
C2131 H2137 0.959 . S
C2131 H2138 0.961 . S
C2131 H2139 0.960 . S
C2132 C2130 1.381 . S
C2132 C2133 1.394 . S
C2132 H2140 0.930 . S
C2133 C2132 1.394 . S
C2133 C2134 1.383 . S
C2133 H2141 0.929 . S
C2134 C2133 1.383 . S
C2134 C2135 1.377 . S
C2135 H2119 0.930 . S
C2135 C2134 1.377 . S
C2135 C2136 1.379 . S
C2136 H2120 0.931 . S
C2136 C2130 1.383 . S
C2136 C2135 1.379 . S
H2137 C2131 0.959 . S
H2138 C2131 0.961 . S
H2139 C2131 0.960 . S
H2140 C2132 0.930 . S
H2141 C2133 0.929 . S
H2142 C2150 0.929 . S
H2143 C2152 0.930 . S
H2144 C2154 0.930 . S
H2145 C2157 0.929 . S
H2146 C2160 0.930 . S
H2147 C2162 0.960 . S
H2148 C2162 0.960 . S
H2149 C2162 0.960 . S
C2150 H2142 0.929 . S
C2150 C2151 1.377 . S
C2150 C2152 1.384 . S
C2151 C2150 1.377 . S
C2151 C2157 1.390 . S
C2152 H2143 0.930 . S
C2152 C2150 1.384 . S
C2152 C2153 1.372 . S
C2153 C2152 1.372 . S
C2153 C2154 1.400 . S
C2153 C2158 1.490 . S
C2154 H2144 0.930 . S
C2154 C2153 1.400 . S
C2154 C2157 1.386 . S
H2155 C2171 0.930 . S
H2156 C2172 0.931 . S
C2157 H2145 0.929 . S
C2157 C2151 1.390 . S
C2157 C2154 1.386 . S
C2158 C2153 1.490 . S
C2158 C2160 1.395 . S
C2158 C2161 1.403 . S
H2159 C2165 0.930 . S
C2160 H2146 0.930 . S
C2160 C2158 1.395 . S
C2160 C2163 1.403 . S
C2161 C2158 1.403 . S
C2161 C2162 1.524 . S
C2161 C2165 1.400 . S
C2162 H2147 0.960 . S
C2162 H2148 0.960 . S
C2162 H2149 0.960 . S
C2162 C2161 1.524 . S
C2163 C2160 1.403 . S
C2163 C2164 1.392 . S
C2163 C2167 1.495 . S
C2164 C2163 1.392 . S
C2164 C2165 1.385 . S
C2164 C2166 1.478 . S
C2165 H2159 0.930 . S
C2165 C2161 1.400 . S
C2165 C2164 1.385 . S
C2166 C2164 1.478 . S
C2166 C2168 1.381 . S
C2166 C2172 1.383 . S
C2167 C2163 1.495 . S
C2167 H2173 0.959 . S
C2167 H2174 0.961 . S
C2167 H2175 0.960 . S
C2168 C2166 1.381 . S
C2168 C2169 1.394 . S
C2168 H2176 0.930 . S
C2169 C2168 1.394 . S
C2169 C2170 1.383 . S
C2169 H2177 0.929 . S
C2170 C2169 1.383 . S
C2170 C2171 1.377 . S
C2171 H2155 0.930 . S
C2171 C2170 1.377 . S
C2171 C2172 1.379 . S
C2172 H2156 0.931 . S
C2172 C2166 1.383 . S
C2172 C2171 1.379 . S
H2173 C2167 0.959 . S
H2174 C2167 0.961 . S
H2175 C2167 0.960 . S
H2176 C2168 0.930 . S
H2177 C2169 0.929 . S
H2178 C2186 0.929 . S
H2179 C2188 0.930 . S
H2180 C2190 0.930 . S
H2181 C2193 0.929 . S
H2182 C2196 0.930 . S
H2183 C2198 0.960 . S
H2184 C2198 0.960 . S
H2185 C2198 0.960 . S
C2186 H2178 0.929 . S
C2186 C2187 1.377 . S
C2186 C2188 1.384 . S
C2187 C2186 1.377 . S
C2187 C2193 1.390 . S
C2188 H2179 0.930 . S
C2188 C2186 1.384 . S
C2188 C2189 1.372 . S
C2189 C2188 1.372 . S
C2189 C2190 1.400 . S
C2189 C2194 1.490 . S
C2190 H2180 0.930 . S
C2190 C2189 1.400 . S
C2190 C2193 1.386 . S
H2191 C2207 0.930 . S
H2192 C2208 0.931 . S
C2193 H2181 0.929 . S
C2193 C2187 1.390 . S
C2193 C2190 1.386 . S
C2194 C2189 1.490 . S
C2194 C2196 1.395 . S
C2194 C2197 1.403 . S
H2195 C2201 0.930 . S
C2196 H2182 0.930 . S
C2196 C2194 1.395 . S
C2196 C2199 1.403 . S
C2197 C2194 1.403 . S
C2197 C2198 1.524 . S
C2197 C2201 1.400 . S
C2198 H2183 0.960 . S
C2198 H2184 0.960 . S
C2198 H2185 0.960 . S
C2198 C2197 1.524 . S
C2199 C2196 1.403 . S
C2199 C2200 1.392 . S
C2199 C2203 1.495 . S
C2200 C2199 1.392 . S
C2200 C2201 1.385 . S
C2200 C2202 1.478 . S
C2201 H2195 0.930 . S
C2201 C2197 1.400 . S
C2201 C2200 1.385 . S
C2202 C2200 1.478 . S
C2202 C2204 1.381 . S
C2202 C2208 1.383 . S
C2203 C2199 1.495 . S
C2203 H2209 0.959 . S
C2203 H2210 0.961 . S
C2203 H2211 0.960 . S
C2204 C2202 1.381 . S
C2204 C2205 1.394 . S
C2204 H2212 0.930 . S
C2205 C2204 1.394 . S
C2205 C2206 1.383 . S
C2205 H2213 0.929 . S
C2206 C2205 1.383 . S
C2206 C2207 1.377 . S
C2207 H2191 0.930 . S
C2207 C2206 1.377 . S
C2207 C2208 1.379 . S
C2208 H2192 0.931 . S
C2208 C2202 1.383 . S
C2208 C2207 1.379 . S
H2209 C2203 0.959 . S
H2210 C2203 0.961 . S
H2211 C2203 0.960 . S
H2212 C2204 0.930 . S
H2213 C2205 0.929 . S
H2214 C2222 0.929 . S
H2215 C2224 0.930 . S
H2216 C2226 0.930 1_565 S
H2217 C2229 0.929 . S
H2218 C2232 0.930 . S
H2219 C2234 0.960 . S
H2220 C2234 0.960 . S
H2221 C2234 0.960 . S
C2222 H2214 0.929 . S
C2222 C2223 1.377 . S
C2222 C2224 1.384 . S
C2223 C2222 1.377 . S
C2223 C2229 1.390 . S
C2224 H2215 0.930 . S
C2224 C2222 1.384 . S
C2224 C2225 1.352 1_545 S
C2225 C2224 1.352 1_565 S
C2225 C2226 1.381 1_565 S
C2225 C2230 1.531 . S
C2226 H2216 0.930 1_545 S
C2226 C2225 1.381 1_545 S
C2226 C2229 1.386 . S
H2227 C2243 0.930 . S
H2228 C2244 0.931 . S
C2229 H2217 0.929 . S
C2229 C2223 1.390 . S
C2229 C2226 1.386 . S
C2230 C2225 1.531 . S
C2230 C2232 1.395 . S
C2230 C2233 1.403 . S
H2231 C2237 0.930 . S
C2232 H2218 0.930 . S
C2232 C2230 1.395 . S
C2232 C2235 1.403 . S
C2233 C2230 1.403 . S
C2233 C2234 1.524 . S
C2233 C2237 1.400 . S
C2234 H2219 0.960 . S
C2234 H2220 0.960 . S
C2234 H2221 0.960 . S
C2234 C2233 1.524 . S
C2235 C2232 1.403 . S
C2235 C2236 1.392 . S
C2235 C2239 1.495 . S
C2236 C2235 1.392 . S
C2236 C2237 1.385 . S
C2236 C2238 1.478 . S
C2237 H2231 0.930 . S
C2237 C2233 1.400 . S
C2237 C2236 1.385 . S
C2238 C2236 1.478 . S
C2238 C2240 1.381 . S
C2238 C2244 1.383 . S
C2239 C2235 1.495 . S
C2239 H2245 0.959 . S
C2239 H2246 0.961 . S
C2239 H2247 0.960 . S
C2240 C2238 1.381 . S
C2240 C2241 1.394 . S
C2240 H2248 0.930 . S
C2241 C2240 1.394 . S
C2241 C2242 1.383 . S
C2241 H2249 0.929 . S
C2242 C2241 1.383 . S
C2242 C2243 1.377 . S
C2243 H2227 0.930 . S
C2243 C2242 1.377 . S
C2243 C2244 1.379 . S
C2244 H2228 0.931 . S
C2244 C2238 1.383 . S
C2244 C2243 1.379 . S
H2245 C2239 0.959 . S
H2246 C2239 0.961 . S
H2247 C2239 0.960 . S
H2248 C2240 0.930 . S
H2249 C2241 0.929 . S
H2250 C2258 0.929 . S
H2251 C2260 0.898 1_455 S
H2252 C2262 0.930 . S
H2253 C2265 0.929 . S
H2254 C2268 0.930 . S
H2255 C2270 0.960 . S
H2256 C2270 0.960 . S
H2257 C2270 0.960 . S
C2258 H2250 0.929 . S
C2258 C2259 1.377 . S
C2258 C2260 1.384 . S
C2259 C2258 1.377 . S
C2259 C2265 1.390 . S
C2260 H2251 0.898 1_655 S
C2260 C2258 1.384 . S
C2260 C2261 1.372 1_655 S
C2261 C2260 1.372 1_455 S
C2261 C2262 1.400 . S
C2261 C2266 1.490 . S
C2262 H2252 0.930 . S
C2262 C2261 1.400 . S
C2262 C2265 1.386 1_455 S
H2263 C2279 0.930 . S
H2264 C2280 0.931 . S
C2265 H2253 0.929 . S
C2265 C2259 1.390 . S
C2265 C2262 1.386 1_655 S
C2266 C2261 1.490 . S
C2266 C2268 1.395 . S
C2266 C2269 1.403 . S
H2267 C2273 0.930 . S
C2268 H2254 0.930 . S
C2268 C2266 1.395 . S
C2268 C2271 1.403 . S
C2269 C2266 1.403 . S
C2269 C2270 1.524 . S
C2269 C2273 1.400 . S
C2270 H2255 0.960 . S
C2270 H2256 0.960 . S
C2270 H2257 0.960 . S
C2270 C2269 1.524 . S
C2271 C2268 1.403 . S
C2271 C2272 1.392 . S
C2271 C2275 1.495 . S
C2272 C2271 1.392 . S
C2272 C2273 1.385 . S
C2272 C2274 1.478 . S
C2273 H2267 0.930 . S
C2273 C2269 1.400 . S
C2273 C2272 1.385 . S
C2274 C2272 1.478 . S
C2274 C2276 1.381 . S
C2274 C2280 1.383 . S
C2275 C2271 1.495 . S
C2275 H2281 0.959 . S
C2275 H2282 0.961 . S
C2275 H2283 0.960 . S
C2276 C2274 1.381 . S
C2276 C2277 1.394 . S
C2276 H2284 0.930 . S
C2277 C2276 1.394 . S
C2277 C2278 1.383 . S
C2277 H2285 0.929 . S
C2278 C2277 1.383 . S
C2278 C2279 1.377 . S
C2279 H2263 0.930 . S
C2279 C2278 1.377 . S
C2279 C2280 1.379 . S
C2280 H2264 0.931 . S
C2280 C2274 1.383 . S
C2280 C2279 1.379 . S
H2281 C2275 0.959 . S
H2282 C2275 0.961 . S
H2283 C2275 0.960 . S
H2284 C2276 0.930 . S
H2285 C2277 0.929 . S
H2286 C2294 0.929 . S
H2287 C2296 0.930 . S
H2288 C2298 0.930 . S
H2289 C2301 0.929 . S
H2290 C2304 0.930 . S
H2291 C2306 0.960 . S
H2292 C2306 0.960 . S
H2293 C2306 0.960 . S
C2294 H2286 0.929 . S
C2294 C2295 1.377 . S
C2294 C2296 1.384 . S
C2295 C2294 1.377 . S
C2295 C2301 1.390 . S
C2296 H2287 0.930 . S
C2296 C2294 1.384 . S
C2296 C2297 1.372 . S
C2297 C2296 1.372 . S
C2297 C2298 1.400 . S
C2297 C2302 1.490 . S
C2298 H2288 0.930 . S
C2298 C2297 1.400 . S
C2298 C2301 1.386 . S
H2299 C2315 0.930 . S
H2300 C2316 0.931 . S
C2301 H2289 0.929 . S
C2301 C2295 1.390 . S
C2301 C2298 1.386 . S
C2302 C2297 1.490 . S
C2302 C2304 1.395 . S
C2302 C2305 1.403 . S
H2303 C2309 0.930 . S
C2304 H2290 0.930 . S
C2304 C2302 1.395 . S
C2304 C2307 1.403 . S
C2305 C2302 1.403 . S
C2305 C2306 1.524 . S
C2305 C2309 1.400 . S
C2306 H2291 0.960 . S
C2306 H2292 0.960 . S
C2306 H2293 0.960 . S
C2306 C2305 1.524 . S
C2307 C2304 1.403 . S
C2307 C2308 1.392 . S
C2307 C2311 1.495 . S
C2308 C2307 1.392 . S
C2308 C2309 1.385 . S
C2308 C2310 1.478 . S
C2309 H2303 0.930 . S
C2309 C2305 1.400 . S
C2309 C2308 1.385 . S
C2310 C2308 1.478 . S
C2310 C2312 1.381 . S
C2310 C2316 1.383 . S
C2311 C2307 1.495 . S
C2311 H2317 0.959 . S
C2311 H2318 0.961 . S
C2311 H2319 0.960 . S
C2312 C2310 1.381 . S
C2312 C2313 1.394 . S
C2312 H2320 0.930 . S
C2313 C2312 1.394 . S
C2313 C2314 1.383 . S
C2313 H2321 0.929 . S
C2314 C2313 1.383 . S
C2314 C2315 1.377 . S
C2315 H2299 0.930 . S
C2315 C2314 1.377 . S
C2315 C2316 1.379 . S
C2316 H2300 0.931 . S
C2316 C2310 1.383 . S
C2316 C2315 1.379 . S
H2317 C2311 0.959 . S
H2318 C2311 0.961 . S
H2319 C2311 0.960 . S
H2320 C2312 0.930 . S
H2321 C2313 0.929 . S
H2322 C2330 0.929 . S
H2323 C2332 0.930 . S
H2324 C2334 0.930 . S
H2325 C2337 0.929 . S
H2326 C2340 0.930 . S
H2327 C2342 0.960 . S
H2328 C2342 0.960 . S
H2329 C2342 0.960 . S
C2330 H2322 0.929 . S
C2330 C2331 1.377 . S
C2330 C2332 1.384 . S
C2331 C2330 1.377 . S
C2331 C2337 1.390 . S
C2332 H2323 0.930 . S
C2332 C2330 1.384 . S
C2332 C2333 1.372 . S
C2333 C2332 1.372 . S
C2333 C2334 1.400 . S
C2333 C2338 1.490 . S
C2334 H2324 0.930 . S
C2334 C2333 1.400 . S
C2334 C2337 1.386 . S
H2335 C2351 0.930 . S
H2336 C2352 0.931 . S
C2337 H2325 0.929 . S
C2337 C2331 1.390 . S
C2337 C2334 1.386 . S
C2338 C2333 1.490 . S
C2338 C2340 1.395 . S
C2338 C2341 1.403 . S
H2339 C2345 0.930 . S
C2340 H2326 0.930 . S
C2340 C2338 1.395 . S
C2340 C2343 1.403 . S
C2341 C2338 1.403 . S
C2341 C2342 1.524 . S
C2341 C2345 1.400 . S
C2342 H2327 0.960 . S
C2342 H2328 0.960 . S
C2342 H2329 0.960 . S
C2342 C2341 1.524 . S
C2343 C2340 1.403 . S
C2343 C2344 1.392 . S
C2343 C2347 1.495 . S
C2344 C2343 1.392 . S
C2344 C2345 1.385 . S
C2344 C2346 1.478 . S
C2345 H2339 0.930 . S
C2345 C2341 1.400 . S
C2345 C2344 1.385 . S
C2346 C2344 1.478 . S
C2346 C2348 1.381 . S
C2346 C2352 1.383 . S
C2347 C2343 1.495 . S
C2347 H2353 0.959 . S
C2347 H2354 0.961 . S
C2347 H2355 0.960 . S
C2348 C2346 1.381 . S
C2348 C2349 1.394 . S
C2348 H2356 0.930 . S
C2349 C2348 1.394 . S
C2349 C2350 1.383 . S
C2349 H2357 0.929 . S
C2350 C2349 1.383 . S
C2350 C2351 1.377 . S
C2351 H2335 0.930 . S
C2351 C2350 1.377 . S
C2351 C2352 1.379 . S
C2352 H2336 0.931 . S
C2352 C2346 1.383 . S
C2352 C2351 1.379 . S
H2353 C2347 0.959 . S
H2354 C2347 0.961 . S
H2355 C2347 0.960 . S
H2356 C2348 0.930 . S
H2357 C2349 0.929 . S
H2358 C2366 0.929 . S
H2359 C2368 0.930 . S
H2360 C2370 0.930 . S
H2361 C2373 0.929 . S
H2362 C2376 0.930 . S
H2363 C2378 0.960 . S
H2364 C2378 0.960 . S
H2365 C2378 0.960 . S
C2366 H2358 0.929 . S
C2366 C2367 1.377 . S
C2366 C2368 1.384 . S
C2367 C2366 1.377 . S
C2367 C2373 1.390 . S
C2368 H2359 0.930 . S
C2368 C2366 1.384 . S
C2368 C2369 1.372 . S
C2369 C2368 1.372 . S
C2369 C2370 1.400 . S
C2369 C2374 1.490 . S
C2370 H2360 0.930 . S
C2370 C2369 1.400 . S
C2370 C2373 1.386 . S
H2371 C2387 0.930 . S
H2372 C2388 0.931 . S
C2373 H2361 0.929 . S
C2373 C2367 1.390 . S
C2373 C2370 1.386 . S
C2374 C2369 1.490 . S
C2374 C2376 1.395 . S
C2374 C2377 1.403 . S
H2375 C2381 0.930 . S
C2376 H2362 0.930 . S
C2376 C2374 1.395 . S
C2376 C2379 1.403 . S
C2377 C2374 1.403 . S
C2377 C2378 1.524 . S
C2377 C2381 1.400 . S
C2378 H2363 0.960 . S
C2378 H2364 0.960 . S
C2378 H2365 0.960 . S
C2378 C2377 1.524 . S
C2379 C2376 1.403 . S
C2379 C2380 1.392 . S
C2379 C2383 1.495 . S
C2380 C2379 1.392 . S
C2380 C2381 1.385 . S
C2380 C2382 1.478 . S
C2381 H2375 0.930 . S
C2381 C2377 1.400 . S
C2381 C2380 1.385 . S
C2382 C2380 1.478 . S
C2382 C2384 1.381 . S
C2382 C2388 1.383 . S
C2383 C2379 1.495 . S
C2383 H2389 0.959 . S
C2383 H2390 0.961 . S
C2383 H2391 0.960 . S
C2384 C2382 1.381 . S
C2384 C2385 1.394 . S
C2384 H2392 0.930 . S
C2385 C2384 1.394 . S
C2385 C2386 1.383 . S
C2385 H2393 0.929 . S
C2386 C2385 1.383 . S
C2386 C2387 1.377 . S
C2387 H2371 0.930 . S
C2387 C2386 1.377 . S
C2387 C2388 1.379 . S
C2388 H2372 0.931 . S
C2388 C2382 1.383 . S
C2388 C2387 1.379 . S
H2389 C2383 0.959 . S
H2390 C2383 0.961 . S
H2391 C2383 0.960 . S
H2392 C2384 0.930 . S
H2393 C2385 0.929 . S
H2394 C2402 0.929 . S
H2395 C2404 0.930 . S
H2396 C2406 0.930 . S
H2397 C2409 0.929 . S
H2398 C2412 0.930 . S
H2399 C2414 0.960 . S
H2400 C2414 0.960 . S
H2401 C2414 0.960 . S
C2402 H2394 0.929 . S
C2402 C2403 1.377 . S
C2402 C2404 1.384 . S
C2403 C2402 1.377 . S
C2403 C2409 1.390 . S
C2404 H2395 0.930 . S
C2404 C2402 1.384 . S
C2404 C2405 1.372 . S
C2405 C2404 1.372 . S
C2405 C2406 1.400 . S
C2405 C2410 1.490 . S
C2406 H2396 0.930 . S
C2406 C2405 1.400 . S
C2406 C2409 1.386 . S
H2407 C2423 0.930 . S
H2408 C2424 0.931 . S
C2409 H2397 0.929 . S
C2409 C2403 1.390 . S
C2409 C2406 1.386 . S
C2410 C2405 1.490 . S
C2410 C2412 1.395 . S
C2410 C2413 1.403 . S
H2411 C2417 0.930 . S
C2412 H2398 0.930 . S
C2412 C2410 1.395 . S
C2412 C2415 1.403 . S
C2413 C2410 1.403 . S
C2413 C2414 1.524 . S
C2413 C2417 1.400 . S
C2414 H2399 0.960 . S
C2414 H2400 0.960 . S
C2414 H2401 0.960 . S
C2414 C2413 1.524 . S
C2415 C2412 1.403 . S
C2415 C2416 1.392 . S
C2415 C2419 1.495 . S
C2416 C2415 1.392 . S
C2416 C2417 1.385 . S
C2416 C2418 1.478 . S
C2417 H2411 0.930 . S
C2417 C2413 1.400 . S
C2417 C2416 1.385 . S
C2418 C2416 1.478 . S
C2418 C2420 1.381 . S
C2418 C2424 1.383 . S
C2419 C2415 1.495 . S
C2419 H2425 0.959 . S
C2419 H2426 0.961 . S
C2419 H2427 0.960 . S
C2420 C2418 1.381 . S
C2420 C2421 1.394 . S
C2420 H2428 0.930 . S
C2421 C2420 1.394 . S
C2421 C2422 1.383 . S
C2421 H2429 0.929 . S
C2422 C2421 1.383 . S
C2422 C2423 1.377 . S
C2423 H2407 0.930 . S
C2423 C2422 1.377 . S
C2423 C2424 1.379 . S
C2424 H2408 0.931 . S
C2424 C2418 1.383 . S
C2424 C2423 1.379 . S
H2425 C2419 0.959 . S
H2426 C2419 0.961 . S
H2427 C2419 0.960 . S
H2428 C2420 0.930 . S
H2429 C2421 0.929 . S
H2430 C2438 0.929 . S
H2431 C2440 0.930 . S
H2432 C2442 0.902 1_545 S
H2433 C2445 0.929 . S
H2434 C2448 0.930 . S
H2435 C2450 0.960 . S
H2436 C2450 0.960 . S
H2437 C2450 0.960 . S
C2438 H2430 0.929 . S
C2438 C2439 1.377 . S
C2438 C2440 1.384 . S
C2439 C2438 1.377 . S
C2439 C2445 1.390 . S
C2440 H2431 0.930 . S
C2440 C2438 1.384 . S
C2440 C2441 1.372 1_565 S
C2441 C2440 1.372 1_545 S
C2441 C2442 1.408 1_545 S
C2441 C2446 1.490 . S
C2442 H2432 0.902 1_565 S
C2442 C2441 1.408 1_565 S
C2442 C2445 1.405 . S
H2443 C2459 0.930 . S
H2444 C2460 0.931 . S
C2445 H2433 0.929 . S
C2445 C2439 1.390 . S
C2445 C2442 1.405 . S
C2446 C2441 1.490 . S
C2446 C2448 1.395 . S
C2446 C2449 1.403 . S
H2447 C2453 0.930 . S
C2448 H2434 0.930 . S
C2448 C2446 1.395 . S
C2448 C2451 1.403 . S
C2449 C2446 1.403 . S
C2449 C2450 1.524 . S
C2449 C2453 1.400 . S
C2450 H2435 0.960 . S
C2450 H2436 0.960 . S
C2450 H2437 0.960 . S
C2450 C2449 1.524 . S
C2451 C2448 1.403 . S
C2451 C2452 1.392 . S
C2451 C2455 1.495 . S
C2452 C2451 1.392 . S
C2452 C2453 1.385 . S
C2452 C2454 1.478 . S
C2453 H2447 0.930 . S
C2453 C2449 1.400 . S
C2453 C2452 1.385 . S
C2454 C2452 1.478 . S
C2454 C2456 1.381 . S
C2454 C2460 1.383 . S
C2455 C2451 1.495 . S
C2455 H2461 0.959 . S
C2455 H2462 0.961 . S
C2455 H2463 0.960 . S
C2456 C2454 1.381 . S
C2456 C2457 1.394 . S
C2456 H2464 0.930 . S
C2457 C2456 1.394 . S
C2457 C2458 1.383 . S
C2457 H2465 0.929 . S
C2458 C2457 1.383 . S
C2458 C2459 1.377 . S
C2459 H2443 0.930 . S
C2459 C2458 1.377 . S
C2459 C2460 1.379 . S
C2460 H2444 0.931 . S
C2460 C2454 1.383 . S
C2460 C2459 1.379 . S
H2461 C2455 0.959 . S
H2462 C2455 0.961 . S
H2463 C2455 0.960 . S
H2464 C2456 0.930 . S
H2465 C2457 0.929 . S
H2466 C2474 0.929 . S
H2467 C2476 0.930 . S
H2468 C2478 0.930 . S
H2469 C2481 0.929 . S
H2470 C2484 0.930 . S
H2471 C2486 0.960 . S
H2472 C2486 0.960 . S
H2473 C2486 0.960 . S
C2474 H2466 0.929 . S
C2474 C2475 1.377 . S
C2474 C2476 1.384 . S
C2475 C2474 1.377 . S
C2475 C2481 1.390 . S
C2476 H2467 0.930 . S
C2476 C2474 1.384 . S
C2476 C2477 1.372 1_455 S
C2477 C2476 1.372 1_655 S
C2477 C2478 1.400 . S
C2477 C2482 1.490 . S
C2478 H2468 0.930 . S
C2478 C2477 1.400 . S
C2478 C2481 1.386 1_655 S
H2479 C2495 0.930 . S
H2480 C2496 0.931 . S
C2481 H2469 0.929 . S
C2481 C2475 1.390 . S
C2481 C2478 1.386 1_455 S
C2482 C2477 1.490 . S
C2482 C2484 1.395 . S
C2482 C2485 1.403 . S
H2483 C2489 0.930 . S
C2484 H2470 0.930 . S
C2484 C2482 1.395 . S
C2484 C2487 1.403 . S
C2485 C2482 1.403 . S
C2485 C2486 1.524 . S
C2485 C2489 1.400 . S
C2486 H2471 0.960 . S
C2486 H2472 0.960 . S
C2486 H2473 0.960 . S
C2486 C2485 1.524 . S
C2487 C2484 1.403 . S
C2487 C2488 1.392 . S
C2487 C2491 1.495 . S
C2488 C2487 1.392 . S
C2488 C2489 1.385 . S
C2488 C2490 1.478 . S
C2489 H2483 0.930 . S
C2489 C2485 1.400 . S
C2489 C2488 1.385 . S
C2490 C2488 1.478 . S
C2490 C2492 1.381 . S
C2490 C2496 1.383 . S
C2491 C2487 1.495 . S
C2491 H2497 0.959 . S
C2491 H2498 0.961 . S
C2491 H2499 0.960 . S
C2492 C2490 1.381 . S
C2492 C2493 1.394 . S
C2492 H2500 0.930 . S
C2493 C2492 1.394 . S
C2493 C2494 1.383 . S
C2493 H2501 0.929 . S
C2494 C2493 1.383 . S
C2494 C2495 1.377 . S
C2495 H2479 0.930 . S
C2495 C2494 1.377 . S
C2495 C2496 1.379 . S
C2496 H2480 0.931 . S
C2496 C2490 1.383 . S
C2496 C2495 1.379 . S
H2497 C2491 0.959 . S
H2498 C2491 0.961 . S
H2499 C2491 0.960 . S
H2500 C2492 0.930 . S
H2501 C2493 0.929 . S
H2502 C2510 0.929 . S
H2503 C2512 0.930 . S
H2504 C2514 0.930 . S
H2505 C2517 0.929 . S
H2506 C2520 0.930 . S
H2507 C2522 0.960 . S
H2508 C2522 0.960 . S
H2509 C2522 0.960 . S
C2510 H2502 0.929 . S
C2510 C2511 1.377 . S
C2510 C2512 1.384 . S
C2511 C2510 1.377 . S
C2511 C2517 1.390 . S
C2512 H2503 0.930 . S
C2512 C2510 1.384 . S
C2512 C2513 1.372 . S
C2513 C2512 1.372 . S
C2513 C2514 1.400 . S
C2513 C2518 1.490 . S
C2514 H2504 0.930 . S
C2514 C2513 1.400 . S
C2514 C2517 1.386 . S
H2515 C2531 0.930 . S
H2516 C2532 0.931 . S
C2517 H2505 0.929 . S
C2517 C2511 1.390 . S
C2517 C2514 1.386 . S
C2518 C2513 1.490 . S
C2518 C2520 1.395 . S
C2518 C2521 1.403 . S
H2519 C2525 0.930 . S
C2520 H2506 0.930 . S
C2520 C2518 1.395 . S
C2520 C2523 1.403 . S
C2521 C2518 1.403 . S
C2521 C2522 1.524 . S
C2521 C2525 1.400 . S
C2522 H2507 0.960 . S
C2522 H2508 0.960 . S
C2522 H2509 0.960 . S
C2522 C2521 1.524 . S
C2523 C2520 1.403 . S
C2523 C2524 1.392 . S
C2523 C2527 1.495 . S
C2524 C2523 1.392 . S
C2524 C2525 1.385 . S
C2524 C2526 1.478 . S
C2525 H2519 0.930 . S
C2525 C2521 1.400 . S
C2525 C2524 1.385 . S
C2526 C2524 1.478 . S
C2526 C2528 1.381 . S
C2526 C2532 1.383 . S
C2527 C2523 1.495 . S
C2527 H2533 0.959 . S
C2527 H2534 0.961 . S
C2527 H2535 0.960 . S
C2528 C2526 1.381 . S
C2528 C2529 1.394 . S
C2528 H2536 0.930 . S
C2529 C2528 1.394 . S
C2529 C2530 1.383 . S
C2529 H2537 0.929 . S
C2530 C2529 1.383 . S
C2530 C2531 1.377 . S
C2531 H2515 0.930 . S
C2531 C2530 1.377 . S
C2531 C2532 1.379 . S
C2532 H2516 0.931 . S
C2532 C2526 1.383 . S
C2532 C2531 1.379 . S
H2533 C2527 0.959 . S
H2534 C2527 0.961 . S
H2535 C2527 0.960 . S
H2536 C2528 0.930 . S
H2537 C2529 0.929 . S
H2538 C2546 0.929 . S
H2539 C2548 0.930 . S
H2540 C2550 0.930 . S
H2541 C2553 0.929 . S
H2542 C2556 0.930 . S
H2543 C2558 0.960 . S
H2544 C2558 0.960 . S
H2545 C2558 0.960 . S
C2546 H2538 0.929 . S
C2546 C2547 1.377 . S
C2546 C2548 1.384 1_455 S
C2547 C2546 1.377 . S
C2547 C2553 1.390 . S
C2548 H2539 0.930 . S
C2548 C2546 1.384 1_655 S
C2548 C2549 1.372 . S
C2549 C2548 1.372 . S
C2549 C2550 1.400 1_655 S
C2549 C2554 1.490 . S
C2550 H2540 0.930 . S
C2550 C2549 1.400 1_455 S
C2550 C2553 1.386 . S
H2551 C2567 0.930 . S
H2552 C2568 0.931 . S
C2553 H2541 0.929 . S
C2553 C2547 1.390 . S
C2553 C2550 1.386 . S
C2554 C2549 1.490 . S
C2554 C2556 1.395 . S
C2554 C2557 1.403 . S
H2555 C2561 0.930 . S
C2556 H2542 0.930 . S
C2556 C2554 1.395 . S
C2556 C2559 1.403 . S
C2557 C2554 1.403 . S
C2557 C2558 1.524 . S
C2557 C2561 1.400 . S
C2558 H2543 0.960 . S
C2558 H2544 0.960 . S
C2558 H2545 0.960 . S
C2558 C2557 1.524 . S
C2559 C2556 1.403 . S
C2559 C2560 1.392 . S
C2559 C2563 1.495 . S
C2560 C2559 1.392 . S
C2560 C2561 1.385 . S
C2560 C2562 1.478 . S
C2561 H2555 0.930 . S
C2561 C2557 1.400 . S
C2561 C2560 1.385 . S
C2562 C2560 1.478 . S
C2562 C2564 1.381 . S
C2562 C2568 1.383 . S
C2563 C2559 1.495 . S
C2563 H2569 0.959 . S
C2563 H2570 0.961 . S
C2563 H2571 0.960 . S
C2564 C2562 1.381 . S
C2564 C2565 1.394 . S
C2564 H2572 0.930 . S
C2565 C2564 1.394 . S
C2565 C2566 1.383 . S
C2565 H2573 0.929 . S
C2566 C2565 1.383 . S
C2566 C2567 1.377 . S
C2567 H2551 0.930 . S
C2567 C2566 1.377 . S
C2567 C2568 1.379 . S
C2568 H2552 0.931 . S
C2568 C2562 1.383 . S
C2568 C2567 1.379 . S
H2569 C2563 0.959 . S
H2570 C2563 0.961 . S
H2571 C2563 0.960 . S
H2572 C2564 0.930 . S
H2573 C2565 0.929 . S
H2574 C2582 0.929 . S
H2575 C2584 0.930 . S
H2576 C2586 0.930 . S
H2577 C2589 0.929 . S
H2578 C2592 0.930 . S
H2579 C2594 0.960 . S
H2580 C2594 0.960 . S
H2581 C2594 0.960 . S
C2582 H2574 0.929 . S
C2582 C2583 1.377 . S
C2582 C2584 1.384 . S
C2583 C2582 1.377 . S
C2583 C2589 1.390 . S
C2584 H2575 0.930 . S
C2584 C2582 1.384 . S
C2584 C2585 1.372 . S
C2585 C2584 1.372 . S
C2585 C2586 1.400 . S
C2585 C2590 1.490 . S
C2586 H2576 0.930 . S
C2586 C2585 1.400 . S
C2586 C2589 1.386 . S
H2587 C2603 0.930 . S
H2588 C2604 0.931 . S
C2589 H2577 0.929 . S
C2589 C2583 1.390 . S
C2589 C2586 1.386 . S
C2590 C2585 1.490 . S
C2590 C2592 1.395 . S
C2590 C2593 1.403 . S
H2591 C2597 0.930 . S
C2592 H2578 0.930 . S
C2592 C2590 1.395 . S
C2592 C2595 1.403 . S
C2593 C2590 1.403 . S
C2593 C2594 1.524 . S
C2593 C2597 1.400 . S
C2594 H2579 0.960 . S
C2594 H2580 0.960 . S
C2594 H2581 0.960 . S
C2594 C2593 1.524 . S
C2595 C2592 1.403 . S
C2595 C2596 1.392 . S
C2595 C2599 1.495 . S
C2596 C2595 1.392 . S
C2596 C2597 1.385 . S
C2596 C2598 1.478 . S
C2597 H2591 0.930 . S
C2597 C2593 1.400 . S
C2597 C2596 1.385 . S
C2598 C2596 1.478 . S
C2598 C2600 1.381 . S
C2598 C2604 1.383 . S
C2599 C2595 1.495 . S
C2599 H2605 0.959 . S
C2599 H2606 0.961 . S
C2599 H2607 0.960 . S
C2600 C2598 1.381 . S
C2600 C2601 1.394 . S
C2600 H2608 0.930 . S
C2601 C2600 1.394 . S
C2601 C2602 1.383 . S
C2601 H2609 0.929 . S
C2602 C2601 1.383 . S
C2602 C2603 1.377 . S
C2603 H2587 0.930 . S
C2603 C2602 1.377 . S
C2603 C2604 1.379 . S
C2604 H2588 0.931 . S
C2604 C2598 1.383 . S
C2604 C2603 1.379 . S
H2605 C2599 0.959 . S
H2606 C2599 0.961 . S
H2607 C2599 0.960 . S
H2608 C2600 0.930 . S
H2609 C2601 0.929 . S
H2610 C2618 0.929 . S
H2611 C2620 0.930 . S
H2612 C2622 0.930 1_545 S
H2613 C2625 0.929 . S
H2614 C2628 0.930 . S
H2615 C2630 0.960 . S
H2616 C2630 0.960 . S
H2617 C2630 0.960 . S
C2618 H2610 0.929 . S
C2618 C2619 1.377 . S
C2618 C2620 1.384 . S
C2619 C2618 1.377 . S
C2619 C2625 1.390 . S
C2620 H2611 0.930 . S
C2620 C2618 1.384 . S
C2620 C2621 1.354 1_565 S
C2621 C2620 1.354 1_545 S
C2621 C2622 1.397 1_545 S
C2621 C2626 1.510 . S
C2622 H2612 0.930 1_565 S
C2622 C2621 1.397 1_565 S
C2622 C2625 1.386 . S
H2623 C2639 0.930 . S
H2624 C2640 0.931 . S
C2625 H2613 0.929 . S
C2625 C2619 1.390 . S
C2625 C2622 1.386 . S
C2626 C2621 1.510 . S
C2626 C2628 1.395 . S
C2626 C2629 1.403 . S
H2627 C2633 0.930 . S
C2628 H2614 0.930 . S
C2628 C2626 1.395 . S
C2628 C2631 1.403 . S
C2629 C2626 1.403 . S
C2629 C2630 1.524 . S
C2629 C2633 1.400 . S
C2630 H2615 0.960 . S
C2630 H2616 0.960 . S
C2630 H2617 0.960 . S
C2630 C2629 1.524 . S
C2631 C2628 1.403 . S
C2631 C2632 1.392 . S
C2631 C2635 1.495 . S
C2632 C2631 1.392 . S
C2632 C2633 1.385 . S
C2632 C2634 1.478 . S
C2633 H2627 0.930 . S
C2633 C2629 1.400 . S
C2633 C2632 1.385 . S
C2634 C2632 1.478 . S
C2634 C2636 1.381 . S
C2634 C2640 1.383 . S
C2635 C2631 1.495 . S
C2635 H2641 0.959 . S
C2635 H2642 0.961 . S
C2635 H2643 0.960 . S
C2636 C2634 1.381 . S
C2636 C2637 1.394 . S
C2636 H2644 0.930 . S
C2637 C2636 1.394 . S
C2637 C2638 1.383 . S
C2637 H2645 0.929 . S
C2638 C2637 1.383 . S
C2638 C2639 1.377 . S
C2639 H2623 0.930 . S
C2639 C2638 1.377 . S
C2639 C2640 1.379 . S
C2640 H2624 0.931 . S
C2640 C2634 1.383 . S
C2640 C2639 1.379 . S
H2641 C2635 0.959 . S
H2642 C2635 0.961 . S
H2643 C2635 0.960 . S
H2644 C2636 0.930 . S
H2645 C2637 0.929 . S
H2646 C2654 0.929 . S
H2647 C2656 0.930 . S
H2648 C2658 0.930 . S
H2649 C2661 0.929 . S
H2650 C2664 0.930 . S
H2651 C2666 0.960 . S
H2652 C2666 0.960 . S
H2653 C2666 0.960 . S
C2654 H2646 0.929 . S
C2654 C2655 1.377 . S
C2654 C2656 1.384 . S
C2655 C2654 1.377 . S
C2655 C2661 1.390 . S
C2656 H2647 0.930 . S
C2656 C2654 1.384 . S
C2656 C2657 1.372 . S
C2657 C2656 1.372 . S
C2657 C2658 1.400 . S
C2657 C2662 1.490 . S
C2658 H2648 0.930 . S
C2658 C2657 1.400 . S
C2658 C2661 1.386 . S
H2659 C2675 0.930 . S
H2660 C2676 0.931 . S
C2661 H2649 0.929 . S
C2661 C2655 1.390 . S
C2661 C2658 1.386 . S
C2662 C2657 1.490 . S
C2662 C2664 1.395 . S
C2662 C2665 1.403 . S
H2663 C2669 0.930 . S
C2664 H2650 0.930 . S
C2664 C2662 1.395 . S
C2664 C2667 1.403 . S
C2665 C2662 1.403 . S
C2665 C2666 1.524 . S
C2665 C2669 1.400 . S
C2666 H2651 0.960 . S
C2666 H2652 0.960 . S
C2666 H2653 0.960 . S
C2666 C2665 1.524 . S
C2667 C2664 1.403 . S
C2667 C2668 1.392 . S
C2667 C2671 1.495 . S
C2668 C2667 1.392 . S
C2668 C2669 1.385 . S
C2668 C2670 1.478 . S
C2669 H2663 0.930 . S
C2669 C2665 1.400 . S
C2669 C2668 1.385 . S
C2670 C2668 1.478 . S
C2670 C2672 1.381 . S
C2670 C2676 1.383 . S
C2671 C2667 1.495 . S
C2671 H2677 0.959 . S
C2671 H2678 0.961 . S
C2671 H2679 0.960 . S
C2672 C2670 1.381 . S
C2672 C2673 1.394 . S
C2672 H2680 0.930 . S
C2673 C2672 1.394 . S
C2673 C2674 1.383 . S
C2673 H2681 0.929 . S
C2674 C2673 1.383 . S
C2674 C2675 1.377 . S
C2675 H2659 0.930 . S
C2675 C2674 1.377 . S
C2675 C2676 1.379 . S
C2676 H2660 0.931 . S
C2676 C2670 1.383 . S
C2676 C2675 1.379 . S
H2677 C2671 0.959 . S
H2678 C2671 0.961 . S
H2679 C2671 0.960 . S
H2680 C2672 0.930 . S
H2681 C2673 0.929 . S
H2682 C2690 0.929 . S
H2683 C2692 0.930 . S
H2684 C2694 0.930 . S
H2685 C2697 0.929 . S
H2686 C2700 0.930 . S
H2687 C2702 0.960 . S
H2688 C2702 0.960 . S
H2689 C2702 0.960 . S
C2690 H2682 0.929 . S
C2690 C2691 1.377 . S
C2690 C2692 1.384 . S
C2691 C2690 1.377 . S
C2691 C2697 1.390 . S
C2692 H2683 0.930 . S
C2692 C2690 1.384 . S
C2692 C2693 1.372 . S
C2693 C2692 1.372 . S
C2693 C2694 1.400 . S
C2693 C2698 1.490 . S
C2694 H2684 0.930 . S
C2694 C2693 1.400 . S
C2694 C2697 1.386 . S
H2695 C2711 0.930 . S
H2696 C2712 0.931 . S
C2697 H2685 0.929 . S
C2697 C2691 1.390 . S
C2697 C2694 1.386 . S
C2698 C2693 1.490 . S
C2698 C2700 1.395 . S
C2698 C2701 1.403 . S
H2699 C2705 0.930 . S
C2700 H2686 0.930 . S
C2700 C2698 1.395 . S
C2700 C2703 1.403 . S
C2701 C2698 1.403 . S
C2701 C2702 1.524 . S
C2701 C2705 1.400 . S
C2702 H2687 0.960 . S
C2702 H2688 0.960 . S
C2702 H2689 0.960 . S
C2702 C2701 1.524 . S
C2703 C2700 1.403 . S
C2703 C2704 1.392 . S
C2703 C2707 1.495 . S
C2704 C2703 1.392 . S
C2704 C2705 1.385 . S
C2704 C2706 1.478 . S
C2705 H2699 0.930 . S
C2705 C2701 1.400 . S
C2705 C2704 1.385 . S
C2706 C2704 1.478 . S
C2706 C2708 1.381 . S
C2706 C2712 1.383 . S
C2707 C2703 1.495 . S
C2707 H2713 0.959 . S
C2707 H2714 0.961 . S
C2707 H2715 0.960 . S
C2708 C2706 1.381 . S
C2708 C2709 1.394 . S
C2708 H2716 0.930 . S
C2709 C2708 1.394 . S
C2709 C2710 1.383 . S
C2709 H2717 0.929 . S
C2710 C2709 1.383 . S
C2710 C2711 1.377 . S
C2711 H2695 0.930 . S
C2711 C2710 1.377 . S
C2711 C2712 1.379 . S
C2712 H2696 0.931 . S
C2712 C2706 1.383 . S
C2712 C2711 1.379 . S
H2713 C2707 0.959 . S
H2714 C2707 0.961 . S
H2715 C2707 0.960 . S
H2716 C2708 0.930 . S
H2717 C2709 0.929 . S
H2718 C2726 0.929 . S
H2719 C2728 0.930 . S
H2720 C2730 0.930 . S
H2721 C2733 0.929 . S
H2722 C2736 0.930 . S
H2723 C2738 0.960 . S
H2724 C2738 0.960 . S
H2725 C2738 0.960 . S
C2726 H2718 0.929 . S
C2726 C2727 1.377 . S
C2726 C2728 1.384 . S
C2727 C2726 1.377 . S
C2727 C2733 1.390 . S
C2728 H2719 0.930 . S
C2728 C2726 1.384 . S
C2728 C2729 1.372 . S
C2729 C2728 1.372 . S
C2729 C2730 1.400 . S
C2729 C2734 1.490 . S
C2730 H2720 0.930 . S
C2730 C2729 1.400 . S
C2730 C2733 1.386 . S
H2731 C2747 0.930 . S
H2732 C2748 0.931 . S
C2733 H2721 0.929 . S
C2733 C2727 1.390 . S
C2733 C2730 1.386 . S
C2734 C2729 1.490 . S
C2734 C2736 1.395 . S
C2734 C2737 1.403 . S
H2735 C2741 0.930 . S
C2736 H2722 0.930 . S
C2736 C2734 1.395 . S
C2736 C2739 1.403 . S
C2737 C2734 1.403 . S
C2737 C2738 1.524 . S
C2737 C2741 1.400 . S
C2738 H2723 0.960 . S
C2738 H2724 0.960 . S
C2738 H2725 0.960 . S
C2738 C2737 1.524 . S
C2739 C2736 1.403 . S
C2739 C2740 1.392 . S
C2739 C2743 1.495 . S
C2740 C2739 1.392 . S
C2740 C2741 1.385 . S
C2740 C2742 1.478 . S
C2741 H2735 0.930 . S
C2741 C2737 1.400 . S
C2741 C2740 1.385 . S
C2742 C2740 1.478 . S
C2742 C2744 1.381 . S
C2742 C2748 1.383 . S
C2743 C2739 1.495 . S
C2743 H2749 0.959 . S
C2743 H2750 0.961 . S
C2743 H2751 0.960 . S
C2744 C2742 1.381 . S
C2744 C2745 1.394 . S
C2744 H2752 0.930 . S
C2745 C2744 1.394 . S
C2745 C2746 1.383 . S
C2745 H2753 0.929 . S
C2746 C2745 1.383 . S
C2746 C2747 1.377 . S
C2747 H2731 0.930 . S
C2747 C2746 1.377 . S
C2747 C2748 1.379 . S
C2748 H2732 0.931 . S
C2748 C2742 1.383 . S
C2748 C2747 1.379 . S
H2749 C2743 0.959 . S
H2750 C2743 0.961 . S
H2751 C2743 0.960 . S
H2752 C2744 0.930 . S
H2753 C2745 0.929 . S
H2754 C2762 0.929 . S
H2755 C2764 0.930 . S
H2756 C2766 0.930 . S
H2757 C2769 0.929 . S
H2758 C2772 0.930 . S
H2759 C2774 0.960 . S
H2760 C2774 0.960 . S
H2761 C2774 0.960 . S
C2762 H2754 0.929 . S
C2762 C2763 1.377 . S
C2762 C2764 1.384 . S
C2763 C2762 1.377 . S
C2763 C2769 1.390 . S
C2764 H2755 0.930 . S
C2764 C2762 1.384 . S
C2764 C2765 1.372 . S
C2765 C2764 1.372 . S
C2765 C2766 1.400 . S
C2765 C2770 1.490 . S
C2766 H2756 0.930 . S
C2766 C2765 1.400 . S
C2766 C2769 1.386 . S
H2767 C2783 0.930 . S
H2768 C2784 0.931 . S
C2769 H2757 0.929 . S
C2769 C2763 1.390 . S
C2769 C2766 1.386 . S
C2770 C2765 1.490 . S
C2770 C2772 1.395 . S
C2770 C2773 1.403 . S
H2771 C2777 0.930 . S
C2772 H2758 0.930 . S
C2772 C2770 1.395 . S
C2772 C2775 1.403 . S
C2773 C2770 1.403 . S
C2773 C2774 1.524 . S
C2773 C2777 1.400 . S
C2774 H2759 0.960 . S
C2774 H2760 0.960 . S
C2774 H2761 0.960 . S
C2774 C2773 1.524 . S
C2775 C2772 1.403 . S
C2775 C2776 1.392 . S
C2775 C2779 1.495 . S
C2776 C2775 1.392 . S
C2776 C2777 1.385 . S
C2776 C2778 1.478 . S
C2777 H2771 0.930 . S
C2777 C2773 1.400 . S
C2777 C2776 1.385 . S
C2778 C2776 1.478 . S
C2778 C2780 1.381 . S
C2778 C2784 1.383 . S
C2779 C2775 1.495 . S
C2779 H2785 0.959 . S
C2779 H2786 0.961 . S
C2779 H2787 0.960 . S
C2780 C2778 1.381 . S
C2780 C2781 1.394 . S
C2780 H2788 0.930 . S
C2781 C2780 1.394 . S
C2781 C2782 1.383 . S
C2781 H2789 0.904 1_565 S
C2782 C2781 1.383 . S
C2782 C2783 1.377 . S
C2783 H2767 0.930 . S
C2783 C2782 1.377 . S
C2783 C2784 1.379 . S
C2784 H2768 0.931 . S
C2784 C2778 1.383 . S
C2784 C2783 1.379 . S
H2785 C2779 0.959 . S
H2786 C2779 0.961 . S
H2787 C2779 0.960 . S
H2788 C2780 0.930 . S
H2789 C2781 0.904 1_545 S
H2790 C2798 0.929 . S
H2791 C2800 0.930 . S
H2792 C2802 0.930 . S
H2793 C2805 0.929 . S
H2794 C2808 0.930 . S
H2795 C2810 0.960 . S
H2796 C2810 0.960 . S
H2797 C2810 0.960 . S
C2798 H2790 0.929 . S
C2798 C2799 1.377 . S
C2798 C2800 1.384 . S
C2799 C2798 1.377 . S
C2799 C2805 1.390 . S
C2800 H2791 0.930 . S
C2800 C2798 1.384 . S
C2800 C2801 1.372 . S
C2801 C2800 1.372 . S
C2801 C2802 1.400 . S
C2801 C2806 1.490 . S
C2802 H2792 0.930 . S
C2802 C2801 1.400 . S
C2802 C2805 1.386 . S
H2803 C2819 0.930 . S
H2804 C2820 0.931 . S
C2805 H2793 0.929 . S
C2805 C2799 1.390 . S
C2805 C2802 1.386 . S
C2806 C2801 1.490 . S
C2806 C2808 1.395 . S
C2806 C2809 1.403 . S
H2807 C2813 0.930 . S
C2808 H2794 0.930 . S
C2808 C2806 1.395 . S
C2808 C2811 1.403 . S
C2809 C2806 1.403 . S
C2809 C2810 1.524 . S
C2809 C2813 1.400 . S
C2810 H2795 0.960 . S
C2810 H2796 0.960 . S
C2810 H2797 0.960 . S
C2810 C2809 1.524 . S
C2811 C2808 1.403 . S
C2811 C2812 1.392 . S
C2811 C2815 1.495 1_455 S
C2812 C2811 1.392 . S
C2812 C2813 1.385 . S
C2812 C2814 1.478 . S
C2813 H2807 0.930 . S
C2813 C2809 1.400 . S
C2813 C2812 1.385 . S
C2814 C2812 1.478 . S
C2814 C2816 1.381 . S
C2814 C2820 1.383 . S
C2815 C2811 1.495 1_655 S
C2815 H2821 0.959 . S
C2815 H2822 0.970 1_655 S
C2815 H2823 0.960 . S
C2816 C2814 1.381 . S
C2816 C2817 1.394 . S
C2816 H2824 0.930 . S
C2817 C2816 1.394 . S
C2817 C2818 1.383 . S
C2817 H2825 0.929 1_455 S
C2818 C2817 1.383 . S
C2818 C2819 1.377 . S
C2819 H2803 0.930 . S
C2819 C2818 1.377 . S
C2819 C2820 1.379 . S
C2820 H2804 0.931 . S
C2820 C2814 1.383 . S
C2820 C2819 1.379 . S
H2821 C2815 0.959 . S
H2822 C2815 0.970 1_455 S
H2823 C2815 0.960 . S
H2824 C2816 0.930 . S
H2825 C2817 0.929 1_655 S
H2826 C2834 0.929 . S
H2827 C2836 0.930 . S
H2828 C2838 0.930 . S
H2829 C2841 0.929 . S
H2830 C2844 0.930 . S
H2831 C2846 0.960 . S
H2832 C2846 0.960 . S
H2833 C2846 0.960 . S
C2834 H2826 0.929 . S
C2834 C2835 1.377 . S
C2834 C2836 1.384 . S
C2835 C2834 1.377 . S
C2835 C2841 1.390 . S
C2836 H2827 0.930 . S
C2836 C2834 1.384 . S
C2836 C2837 1.372 . S
C2837 C2836 1.372 . S
C2837 C2838 1.400 . S
C2837 C2842 1.490 . S
C2838 H2828 0.930 . S
C2838 C2837 1.400 . S
C2838 C2841 1.386 . S
H2839 C2855 0.930 . S
H2840 C2856 0.931 . S
C2841 H2829 0.929 . S
C2841 C2835 1.390 . S
C2841 C2838 1.386 . S
C2842 C2837 1.490 . S
C2842 C2844 1.395 . S
C2842 C2845 1.403 . S
H2843 C2849 0.930 . S
C2844 H2830 0.930 . S
C2844 C2842 1.395 . S
C2844 C2847 1.403 . S
C2845 C2842 1.403 . S
C2845 C2846 1.524 . S
C2845 C2849 1.400 . S
C2846 H2831 0.960 . S
C2846 H2832 0.960 . S
C2846 H2833 0.960 . S
C2846 C2845 1.524 . S
C2847 C2844 1.403 . S
C2847 C2848 1.392 . S
C2847 C2851 1.495 . S
C2848 C2847 1.392 . S
C2848 C2849 1.385 . S
C2848 C2850 1.478 . S
C2849 H2843 0.930 . S
C2849 C2845 1.400 . S
C2849 C2848 1.385 . S
C2850 C2848 1.478 . S
C2850 C2852 1.381 . S
C2850 C2856 1.383 . S
C2851 C2847 1.495 . S
C2851 H2857 0.959 . S
C2851 H2858 0.961 . S
C2851 H2859 0.960 . S
C2852 C2850 1.381 . S
C2852 C2853 1.394 . S
C2852 H2860 0.930 . S
C2853 C2852 1.394 . S
C2853 C2854 1.383 . S
C2853 H2861 0.929 . S
C2854 C2853 1.383 . S
C2854 C2855 1.377 . S
C2855 H2839 0.930 . S
C2855 C2854 1.377 . S
C2855 C2856 1.379 . S
C2856 H2840 0.931 . S
C2856 C2850 1.383 . S
C2856 C2855 1.379 . S
H2857 C2851 0.959 . S
H2858 C2851 0.961 . S
H2859 C2851 0.960 . S
H2860 C2852 0.930 . S
H2861 C2853 0.929 . S
H2862 C2870 0.929 . S
H2863 C2872 0.930 . S
H2864 C2874 0.930 . S
H2865 C2877 0.929 . S
H2866 C2880 0.930 . S
H2867 C2882 0.960 . S
H2868 C2882 0.960 . S
H2869 C2882 0.960 . S
C2870 H2862 0.929 . S
C2870 C2871 1.377 . S
C2870 C2872 1.384 . S
C2871 C2870 1.377 . S
C2871 C2877 1.390 . S
C2872 H2863 0.930 . S
C2872 C2870 1.384 . S
C2872 C2873 1.372 . S
C2873 C2872 1.372 . S
C2873 C2874 1.400 . S
C2873 C2878 1.490 . S
C2874 H2864 0.930 . S
C2874 C2873 1.400 . S
C2874 C2877 1.386 . S
H2875 C2891 0.930 . S
H2876 C2892 0.931 . S
C2877 H2865 0.929 . S
C2877 C2871 1.390 . S
C2877 C2874 1.386 . S
C2878 C2873 1.490 . S
C2878 C2880 1.395 . S
C2878 C2881 1.403 . S
H2879 C2885 0.930 . S
C2880 H2866 0.930 . S
C2880 C2878 1.395 . S
C2880 C2883 1.403 . S
C2881 C2878 1.403 . S
C2881 C2882 1.524 . S
C2881 C2885 1.400 . S
C2882 H2867 0.960 . S
C2882 H2868 0.960 . S
C2882 H2869 0.960 . S
C2882 C2881 1.524 . S
C2883 C2880 1.403 . S
C2883 C2884 1.392 . S
C2883 C2887 1.495 1_655 S
C2884 C2883 1.392 . S
C2884 C2885 1.385 . S
C2884 C2886 1.478 . S
C2885 H2879 0.930 . S
C2885 C2881 1.400 . S
C2885 C2884 1.385 . S
C2886 C2884 1.478 . S
C2886 C2888 1.381 . S
C2886 C2892 1.383 . S
C2887 C2883 1.495 1_455 S
C2887 H2893 0.959 . S
C2887 H2894 0.961 . S
C2887 H2895 0.960 . S
C2888 C2886 1.381 . S
C2888 C2889 1.394 . S
C2888 H2896 0.930 . S
C2889 C2888 1.394 . S
C2889 C2890 1.383 . S
C2889 H2897 0.929 . S
C2890 C2889 1.383 . S
C2890 C2891 1.377 . S
C2891 H2875 0.930 . S
C2891 C2890 1.377 . S
C2891 C2892 1.379 . S
C2892 H2876 0.931 . S
C2892 C2886 1.383 . S
C2892 C2891 1.379 . S
H2893 C2887 0.959 . S
H2894 C2887 0.961 . S
H2895 C2887 0.960 . S
H2896 C2888 0.930 . S
H2897 C2889 0.929 . S
H2898 C2906 0.929 . S
H2899 C2908 0.930 . S
H2900 C2910 0.930 . S
H2901 C2913 0.929 . S
H2902 C2916 0.930 . S
H2903 C2918 0.960 . S
H2904 C2918 0.960 . S
H2905 C2918 0.960 . S
C2906 H2898 0.929 . S
C2906 C2907 1.377 . S
C2906 C2908 1.384 . S
C2907 C2906 1.377 . S
C2907 C2913 1.390 . S
C2908 H2899 0.930 . S
C2908 C2906 1.384 . S
C2908 C2909 1.372 . S
C2909 C2908 1.372 . S
C2909 C2910 1.400 . S
C2909 C2914 1.490 . S
C2910 H2900 0.930 . S
C2910 C2909 1.400 . S
C2910 C2913 1.386 . S
H2911 C2927 0.930 . S
H2912 C2928 0.931 . S
C2913 H2901 0.929 . S
C2913 C2907 1.390 . S
C2913 C2910 1.386 . S
C2914 C2909 1.490 . S
C2914 C2916 1.395 . S
C2914 C2917 1.403 . S
H2915 C2921 0.930 . S
C2916 H2902 0.930 . S
C2916 C2914 1.395 . S
C2916 C2919 1.403 . S
C2917 C2914 1.403 . S
C2917 C2918 1.524 . S
C2917 C2921 1.400 . S
C2918 H2903 0.960 . S
C2918 H2904 0.960 . S
C2918 H2905 0.960 . S
C2918 C2917 1.524 . S
C2919 C2916 1.403 . S
C2919 C2920 1.392 . S
C2919 C2923 1.495 . S
C2920 C2919 1.392 . S
C2920 C2921 1.385 . S
C2920 C2922 1.478 . S
C2921 H2915 0.930 . S
C2921 C2917 1.400 . S
C2921 C2920 1.385 . S
C2922 C2920 1.478 . S
C2922 C2924 1.381 . S
C2922 C2928 1.383 . S
C2923 C2919 1.495 . S
C2923 H2929 0.959 . S
C2923 H2930 0.961 . S
C2923 H2931 0.960 . S
C2924 C2922 1.381 . S
C2924 C2925 1.394 . S
C2924 H2932 0.930 . S
C2925 C2924 1.394 . S
C2925 C2926 1.383 . S
C2925 H2933 0.929 . S
C2926 C2925 1.383 . S
C2926 C2927 1.377 . S
C2927 H2911 0.930 . S
C2927 C2926 1.377 . S
C2927 C2928 1.379 . S
C2928 H2912 0.931 . S
C2928 C2922 1.383 . S
C2928 C2927 1.379 . S
H2929 C2923 0.959 . S
H2930 C2923 0.961 . S
H2931 C2923 0.960 . S
H2932 C2924 0.930 . S
H2933 C2925 0.929 . S
H2934 C2942 0.929 . S
H2935 C2944 0.930 . S
H2936 C2946 0.930 . S
H2937 C2949 0.929 . S
H2938 C2952 0.930 . S
H2939 C2954 0.960 . S
H2940 C2954 0.960 . S
H2941 C2954 0.960 . S
C2942 H2934 0.929 . S
C2942 C2943 1.377 . S
C2942 C2944 1.384 . S
C2943 C2942 1.377 . S
C2943 C2949 1.390 . S
C2944 H2935 0.930 . S
C2944 C2942 1.384 . S
C2944 C2945 1.372 . S
C2945 C2944 1.372 . S
C2945 C2946 1.400 . S
C2945 C2950 1.490 . S
C2946 H2936 0.930 . S
C2946 C2945 1.400 . S
C2946 C2949 1.386 . S
H2947 C2963 0.930 . S
H2948 C2964 0.931 . S
C2949 H2937 0.929 . S
C2949 C2943 1.390 . S
C2949 C2946 1.386 . S
C2950 C2945 1.490 . S
C2950 C2952 1.395 . S
C2950 C2953 1.403 . S
H2951 C2957 0.930 . S
C2952 H2938 0.930 . S
C2952 C2950 1.395 . S
C2952 C2955 1.403 . S
C2953 C2950 1.403 . S
C2953 C2954 1.524 . S
C2953 C2957 1.400 . S
C2954 H2939 0.960 . S
C2954 H2940 0.960 . S
C2954 H2941 0.960 . S
C2954 C2953 1.524 . S
C2955 C2952 1.403 . S
C2955 C2956 1.392 . S
C2955 C2959 1.495 . S
C2956 C2955 1.392 . S
C2956 C2957 1.385 . S
C2956 C2958 1.478 . S
C2957 H2951 0.930 . S
C2957 C2953 1.400 . S
C2957 C2956 1.385 . S
C2958 C2956 1.478 . S
C2958 C2960 1.381 . S
C2958 C2964 1.383 . S
C2959 C2955 1.495 . S
C2959 H2965 0.959 1_545 S
C2959 H2966 0.996 . S
C2959 H2967 0.960 1_545 S
C2960 C2958 1.381 . S
C2960 C2961 1.394 . S
C2960 H2968 0.930 . S
C2961 C2960 1.394 . S
C2961 C2962 1.383 . S
C2961 H2969 0.929 . S
C2962 C2961 1.383 . S
C2962 C2963 1.377 . S
C2963 H2947 0.930 . S
C2963 C2962 1.377 . S
C2963 C2964 1.379 . S
C2964 H2948 0.931 . S
C2964 C2958 1.383 . S
C2964 C2963 1.379 . S
H2965 C2959 0.959 1_565 S
H2966 C2959 0.996 . S
H2967 C2959 0.960 1_565 S
H2968 C2960 0.930 . S
H2969 C2961 0.929 . S
H2970 C2978 0.929 . S
H2971 C2980 0.930 . S
H2972 C2982 0.930 . S
H2973 C2985 0.929 . S
H2974 C2988 0.930 . S
H2975 C2990 0.960 . S
H2976 C2990 0.960 . S
H2977 C2990 0.960 . S
C2978 H2970 0.929 . S
C2978 C2979 1.377 . S
C2978 C2980 1.384 . S
C2979 C2978 1.377 . S
C2979 C2985 1.390 . S
C2980 H2971 0.930 . S
C2980 C2978 1.384 . S
C2980 C2981 1.372 . S
C2981 C2980 1.372 . S
C2981 C2982 1.400 . S
C2981 C2986 1.490 . S
C2982 H2972 0.930 . S
C2982 C2981 1.400 . S
C2982 C2985 1.386 . S
H2983 C2999 0.930 . S
H2984 C3000 0.931 . S
C2985 H2973 0.929 . S
C2985 C2979 1.390 . S
C2985 C2982 1.386 . S
C2986 C2981 1.490 . S
C2986 C2988 1.395 . S
C2986 C2989 1.403 . S
H2987 C2993 0.930 . S
C2988 H2974 0.930 . S
C2988 C2986 1.395 . S
C2988 C2991 1.403 . S
C2989 C2986 1.403 . S
C2989 C2990 1.524 . S
C2989 C2993 1.400 . S
C2990 H2975 0.960 . S
C2990 H2976 0.960 . S
C2990 H2977 0.960 . S
C2990 C2989 1.524 . S
C2991 C2988 1.403 . S
C2991 C2992 1.392 . S
C2991 C2995 1.495 . S
C2992 C2991 1.392 . S
C2992 C2993 1.385 . S
C2992 C2994 1.478 . S
C2993 H2987 0.930 . S
C2993 C2989 1.400 . S
C2993 C2992 1.385 . S
C2994 C2992 1.478 . S
C2994 C2996 1.381 . S
C2994 C3000 1.383 . S
C2995 C2991 1.495 . S
C2995 H3001 0.959 . S
C2995 H3002 0.961 . S
C2995 H3003 0.960 . S
C2996 C2994 1.381 . S
C2996 C2997 1.394 . S
C2996 H3004 0.930 . S
C2997 C2996 1.394 . S
C2997 C2998 1.383 . S
C2997 H3005 0.929 . S
C2998 C2997 1.383 . S
C2998 C2999 1.377 . S
C2999 H2983 0.930 . S
C2999 C2998 1.377 . S
C2999 C3000 1.379 . S
C3000 H2984 0.931 . S
C3000 C2994 1.383 . S
C3000 C2999 1.379 . S
H3001 C2995 0.959 . S
H3002 C2995 0.961 . S
H3003 C2995 0.960 . S
H3004 C2996 0.930 . S
H3005 C2997 0.929 . S
H3006 C3014 0.929 . S
H3007 C3016 0.930 . S
H3008 C3018 0.930 . S
H3009 C3021 0.929 . S
H3010 C3024 0.930 . S
H3011 C3026 0.960 . S
H3012 C3026 0.960 . S
H3013 C3026 0.960 . S
C3014 H3006 0.929 . S
C3014 C3015 1.377 . S
C3014 C3016 1.384 . S
C3015 C3014 1.377 . S
C3015 C3021 1.390 . S
C3016 H3007 0.930 . S
C3016 C3014 1.384 . S
C3016 C3017 1.372 . S
C3017 C3016 1.372 . S
C3017 C3018 1.400 . S
C3017 C3022 1.490 . S
C3018 H3008 0.930 . S
C3018 C3017 1.400 . S
C3018 C3021 1.386 . S
H3019 C3035 0.930 . S
H3020 C3036 0.931 . S
C3021 H3009 0.929 . S
C3021 C3015 1.390 . S
C3021 C3018 1.386 . S
C3022 C3017 1.490 . S
C3022 C3024 1.395 . S
C3022 C3025 1.403 . S
H3023 C3029 0.930 . S
C3024 H3010 0.930 . S
C3024 C3022 1.395 . S
C3024 C3027 1.403 . S
C3025 C3022 1.403 . S
C3025 C3026 1.524 . S
C3025 C3029 1.400 . S
C3026 H3011 0.960 . S
C3026 H3012 0.960 . S
C3026 H3013 0.960 . S
C3026 C3025 1.524 . S
C3027 C3024 1.403 . S
C3027 C3028 1.392 . S
C3027 C3031 1.495 . S
C3028 C3027 1.392 . S
C3028 C3029 1.385 . S
C3028 C3030 1.478 . S
C3029 H3023 0.930 . S
C3029 C3025 1.400 . S
C3029 C3028 1.385 . S
C3030 C3028 1.478 . S
C3030 C3032 1.381 . S
C3030 C3036 1.383 . S
C3031 C3027 1.495 . S
C3031 H3037 0.959 . S
C3031 H3038 0.961 . S
C3031 H3039 0.960 . S
C3032 C3030 1.381 . S
C3032 C3033 1.394 . S
C3032 H3040 0.930 . S
C3033 C3032 1.394 . S
C3033 C3034 1.383 . S
C3033 H3041 0.929 . S
C3034 C3033 1.383 . S
C3034 C3035 1.377 . S
C3035 H3019 0.930 . S
C3035 C3034 1.377 . S
C3035 C3036 1.379 . S
C3036 H3020 0.931 . S
C3036 C3030 1.383 . S
C3036 C3035 1.379 . S
H3037 C3031 0.959 . S
H3038 C3031 0.961 . S
H3039 C3031 0.960 . S
H3040 C3032 0.930 . S
H3041 C3033 0.929 . S
H3042 C3050 0.929 . S
H3043 C3052 0.930 . S
H3044 C3054 0.930 . S
H3045 C3057 0.929 . S
H3046 C3060 0.930 . S
H3047 C3062 0.960 . S
H3048 C3062 0.960 . S
H3049 C3062 0.960 . S
C3050 H3042 0.929 . S
C3050 C3051 1.377 . S
C3050 C3052 1.384 . S
C3051 C3050 1.377 . S
C3051 C3057 1.390 . S
C3052 H3043 0.930 . S
C3052 C3050 1.384 . S
C3052 C3053 1.372 . S
C3053 C3052 1.372 . S
C3053 C3054 1.400 . S
C3053 C3058 1.490 . S
C3054 H3044 0.930 . S
C3054 C3053 1.400 . S
C3054 C3057 1.386 . S
H3055 C3071 0.930 . S
H3056 C3072 0.931 . S
C3057 H3045 0.929 . S
C3057 C3051 1.390 . S
C3057 C3054 1.386 . S
C3058 C3053 1.490 . S
C3058 C3060 1.395 . S
C3058 C3061 1.403 . S
H3059 C3065 0.930 . S
C3060 H3046 0.930 . S
C3060 C3058 1.395 . S
C3060 C3063 1.403 . S
C3061 C3058 1.403 . S
C3061 C3062 1.524 . S
C3061 C3065 1.400 . S
C3062 H3047 0.960 . S
C3062 H3048 0.960 . S
C3062 H3049 0.960 . S
C3062 C3061 1.524 . S
C3063 C3060 1.403 . S
C3063 C3064 1.392 . S
C3063 C3067 1.495 . S
C3064 C3063 1.392 . S
C3064 C3065 1.385 . S
C3064 C3066 1.478 . S
C3065 H3059 0.930 . S
C3065 C3061 1.400 . S
C3065 C3064 1.385 . S
C3066 C3064 1.478 . S
C3066 C3068 1.381 . S
C3066 C3072 1.383 . S
C3067 C3063 1.495 . S
C3067 H3073 0.959 . S
C3067 H3074 0.961 . S
C3067 H3075 0.960 . S
C3068 C3066 1.381 . S
C3068 C3069 1.394 . S
C3068 H3076 0.930 . S
C3069 C3068 1.394 . S
C3069 C3070 1.383 . S
C3069 H3077 0.929 . S
C3070 C3069 1.383 . S
C3070 C3071 1.377 . S
C3071 H3055 0.930 . S
C3071 C3070 1.377 . S
C3071 C3072 1.379 . S
C3072 H3056 0.931 . S
C3072 C3066 1.383 . S
C3072 C3071 1.379 . S
H3073 C3067 0.959 . S
H3074 C3067 0.961 . S
H3075 C3067 0.960 . S
H3076 C3068 0.930 . S
H3077 C3069 0.929 . S
H3078 C3086 0.929 . S
H3079 C3088 0.930 . S
H3080 C3090 0.930 . S
H3081 C3093 0.929 . S
H3082 C3096 0.930 . S
H3083 C3098 0.960 . S
H3084 C3098 0.960 . S
H3085 C3098 0.960 . S
C3086 H3078 0.929 . S
C3086 C3087 1.377 . S
C3086 C3088 1.384 . S
C3087 C3086 1.377 . S
C3087 C3093 1.390 . S
C3088 H3079 0.930 . S
C3088 C3086 1.384 . S
C3088 C3089 1.372 . S
C3089 C3088 1.372 . S
C3089 C3090 1.400 . S
C3089 C3094 1.490 . S
C3090 H3080 0.930 . S
C3090 C3089 1.400 . S
C3090 C3093 1.386 . S
H3091 C3107 0.930 . S
H3092 C3108 0.931 . S
C3093 H3081 0.929 . S
C3093 C3087 1.390 . S
C3093 C3090 1.386 . S
C3094 C3089 1.490 . S
C3094 C3096 1.395 . S
C3094 C3097 1.403 . S
H3095 C3101 0.930 . S
C3096 H3082 0.930 . S
C3096 C3094 1.395 . S
C3096 C3099 1.403 . S
C3097 C3094 1.403 . S
C3097 C3098 1.524 . S
C3097 C3101 1.400 . S
C3098 H3083 0.960 . S
C3098 H3084 0.960 . S
C3098 H3085 0.960 . S
C3098 C3097 1.524 . S
C3099 C3096 1.403 . S
C3099 C3100 1.392 . S
C3099 C3103 1.495 . S
C3100 C3099 1.392 . S
C3100 C3101 1.385 . S
C3100 C3102 1.478 . S
C3101 H3095 0.930 . S
C3101 C3097 1.400 . S
C3101 C3100 1.385 . S
C3102 C3100 1.478 . S
C3102 C3104 1.381 . S
C3102 C3108 1.383 . S
C3103 C3099 1.495 . S
C3103 H3109 0.959 . S
C3103 H3110 0.961 . S
C3103 H3111 0.960 . S
C3104 C3102 1.381 . S
C3104 C3105 1.394 . S
C3104 H3112 0.930 . S
C3105 C3104 1.394 . S
C3105 C3106 1.383 . S
C3105 H3113 0.929 . S
C3106 C3105 1.383 . S
C3106 C3107 1.377 . S
C3107 H3091 0.930 . S
C3107 C3106 1.377 . S
C3107 C3108 1.379 . S
C3108 H3092 0.931 . S
C3108 C3102 1.383 . S
C3108 C3107 1.379 . S
H3109 C3103 0.959 . S
H3110 C3103 0.961 . S
H3111 C3103 0.960 . S
H3112 C3104 0.930 . S
H3113 C3105 0.929 . S
H3114 C3122 0.929 . S
H3115 C3124 0.930 . S
H3116 C3126 0.930 . S
H3117 C3129 0.929 . S
H3118 C3132 0.930 . S
H3119 C3134 0.960 . S
H3120 C3134 0.960 . S
H3121 C3134 0.960 . S
C3122 H3114 0.929 . S
C3122 C3123 1.377 . S
C3122 C3124 1.384 . S
C3123 C3122 1.377 . S
C3123 C3129 1.390 . S
C3124 H3115 0.930 . S
C3124 C3122 1.384 . S
C3124 C3125 1.372 . S
C3125 C3124 1.372 . S
C3125 C3126 1.400 . S
C3125 C3130 1.490 . S
C3126 H3116 0.930 . S
C3126 C3125 1.400 . S
C3126 C3129 1.386 . S
H3127 C3143 0.930 . S
H3128 C3144 0.931 . S
C3129 H3117 0.929 . S
C3129 C3123 1.390 . S
C3129 C3126 1.386 . S
C3130 C3125 1.490 . S
C3130 C3132 1.395 . S
C3130 C3133 1.403 . S
H3131 C3137 0.930 . S
C3132 H3118 0.930 . S
C3132 C3130 1.395 . S
C3132 C3135 1.403 . S
C3133 C3130 1.403 . S
C3133 C3134 1.524 . S
C3133 C3137 1.400 . S
C3134 H3119 0.960 . S
C3134 H3120 0.960 . S
C3134 H3121 0.960 . S
C3134 C3133 1.524 . S
C3135 C3132 1.403 . S
C3135 C3136 1.392 . S
C3135 C3139 1.495 . S
C3136 C3135 1.392 . S
C3136 C3137 1.385 . S
C3136 C3138 1.478 . S
C3137 H3131 0.930 . S
C3137 C3133 1.400 . S
C3137 C3136 1.385 . S
C3138 C3136 1.478 . S
C3138 C3140 1.381 . S
C3138 C3144 1.383 . S
C3139 C3135 1.495 . S
C3139 H3145 0.959 . S
C3139 H3146 0.961 . S
C3139 H3147 0.960 . S
C3140 C3138 1.381 . S
C3140 C3141 1.394 . S
C3140 H3148 0.930 . S
C3141 C3140 1.394 . S
C3141 C3142 1.383 . S
C3141 H3149 0.929 . S
C3142 C3141 1.383 . S
C3142 C3143 1.377 . S
C3143 H3127 0.930 . S
C3143 C3142 1.377 . S
C3143 C3144 1.379 . S
C3144 H3128 0.931 . S
C3144 C3138 1.383 . S
C3144 C3143 1.379 . S
H3145 C3139 0.959 . S
H3146 C3139 0.961 . S
H3147 C3139 0.960 . S
H3148 C3140 0.930 . S
H3149 C3141 0.929 . S
H3150 C3158 0.929 . S
H3151 C3160 0.930 . S
H3152 C3162 0.930 . S
H3153 C3165 0.929 . S
H3154 C3168 0.930 . S
H3155 C3170 0.960 . S
H3156 C3170 0.960 . S
H3157 C3170 0.960 . S
C3158 H3150 0.929 . S
C3158 C3159 1.377 . S
C3158 C3160 1.384 . S
C3159 C3158 1.377 . S
C3159 C3165 1.390 . S
C3160 H3151 0.930 . S
C3160 C3158 1.384 . S
C3160 C3161 1.372 . S
C3161 C3160 1.372 . S
C3161 C3162 1.400 . S
C3161 C3166 1.490 . S
C3162 H3152 0.930 . S
C3162 C3161 1.400 . S
C3162 C3165 1.386 . S
H3163 C3179 0.930 . S
H3164 C3180 0.931 . S
C3165 H3153 0.929 . S
C3165 C3159 1.390 . S
C3165 C3162 1.386 . S
C3166 C3161 1.490 . S
C3166 C3168 1.395 . S
C3166 C3169 1.403 . S
H3167 C3173 0.930 . S
C3168 H3154 0.930 . S
C3168 C3166 1.395 . S
C3168 C3171 1.403 . S
C3169 C3166 1.403 . S
C3169 C3170 1.524 . S
C3169 C3173 1.400 . S
C3170 H3155 0.960 . S
C3170 H3156 0.960 . S
C3170 H3157 0.960 . S
C3170 C3169 1.524 . S
C3171 C3168 1.403 . S
C3171 C3172 1.392 . S
C3171 C3175 1.495 . S
C3172 C3171 1.392 . S
C3172 C3173 1.385 . S
C3172 C3174 1.478 . S
C3173 H3167 0.930 . S
C3173 C3169 1.400 . S
C3173 C3172 1.385 . S
C3174 C3172 1.478 . S
C3174 C3176 1.381 . S
C3174 C3180 1.383 . S
C3175 C3171 1.495 . S
C3175 H3181 0.959 . S
C3175 H3182 0.961 . S
C3175 H3183 0.960 . S
C3176 C3174 1.381 . S
C3176 C3177 1.394 . S
C3176 H3184 0.930 . S
C3177 C3176 1.394 . S
C3177 C3178 1.383 . S
C3177 H3185 0.929 . S
C3178 C3177 1.383 . S
C3178 C3179 1.377 . S
C3179 H3163 0.930 . S
C3179 C3178 1.377 . S
C3179 C3180 1.379 . S
C3180 H3164 0.931 . S
C3180 C3174 1.383 . S
C3180 C3179 1.379 . S
H3181 C3175 0.959 . S
H3182 C3175 0.961 . S
H3183 C3175 0.960 . S
H3184 C3176 0.930 . S
H3185 C3177 0.929 . S
H3186 C3194 0.929 . S
H3187 C3196 0.930 . S
H3188 C3198 0.930 . S
H3189 C3201 0.929 . S
H3190 C3204 0.930 . S
H3191 C3206 0.960 . S
H3192 C3206 0.960 . S
H3193 C3206 0.960 . S
C3194 H3186 0.929 . S
C3194 C3195 1.377 . S
C3194 C3196 1.384 . S
C3195 C3194 1.377 . S
C3195 C3201 1.390 . S
C3196 H3187 0.930 . S
C3196 C3194 1.384 . S
C3196 C3197 1.372 . S
C3197 C3196 1.372 . S
C3197 C3198 1.400 . S
C3197 C3202 1.490 . S
C3198 H3188 0.930 . S
C3198 C3197 1.400 . S
C3198 C3201 1.386 . S
H3199 C3215 0.930 . S
H3200 C3216 0.931 . S
C3201 H3189 0.929 . S
C3201 C3195 1.390 . S
C3201 C3198 1.386 . S
C3202 C3197 1.490 . S
C3202 C3204 1.395 . S
C3202 C3205 1.403 . S
H3203 C3209 0.930 . S
C3204 H3190 0.930 . S
C3204 C3202 1.395 . S
C3204 C3207 1.403 . S
C3205 C3202 1.403 . S
C3205 C3206 1.524 . S
C3205 C3209 1.400 . S
C3206 H3191 0.960 . S
C3206 H3192 0.960 . S
C3206 H3193 0.960 . S
C3206 C3205 1.524 . S
C3207 C3204 1.403 . S
C3207 C3208 1.392 . S
C3207 C3211 1.495 . S
C3208 C3207 1.392 . S
C3208 C3209 1.385 . S
C3208 C3210 1.478 . S
C3209 H3203 0.930 . S
C3209 C3205 1.400 . S
C3209 C3208 1.385 . S
C3210 C3208 1.478 . S
C3210 C3212 1.381 . S
C3210 C3216 1.383 . S
C3211 C3207 1.495 . S
C3211 H3217 0.959 . S
C3211 H3218 0.961 . S
C3211 H3219 0.960 . S
C3212 C3210 1.381 . S
C3212 C3213 1.394 . S
C3212 H3220 0.930 . S
C3213 C3212 1.394 . S
C3213 C3214 1.383 . S
C3213 H3221 0.929 . S
C3214 C3213 1.383 . S
C3214 C3215 1.377 . S
C3215 H3199 0.930 . S
C3215 C3214 1.377 . S
C3215 C3216 1.379 . S
C3216 H3200 0.931 . S
C3216 C3210 1.383 . S
C3216 C3215 1.379 . S
H3217 C3211 0.959 . S
H3218 C3211 0.961 . S
H3219 C3211 0.960 . S
H3220 C3212 0.930 . S
H3221 C3213 0.929 . S
H3222 C3230 0.929 . S
H3223 C3232 0.930 . S
H3224 C3234 0.930 . S
H3225 C3237 0.929 . S
H3226 C3240 0.930 . S
H3227 C3242 0.960 . S
H3228 C3242 0.960 . S
H3229 C3242 0.960 . S
C3230 H3222 0.929 . S
C3230 C3231 1.377 . S
C3230 C3232 1.384 . S
C3231 C3230 1.377 . S
C3231 C3237 1.390 . S
C3232 H3223 0.930 . S
C3232 C3230 1.384 . S
C3232 C3233 1.372 . S
C3233 C3232 1.372 . S
C3233 C3234 1.400 . S
C3233 C3238 1.490 . S
C3234 H3224 0.930 . S
C3234 C3233 1.400 . S
C3234 C3237 1.386 . S
H3235 C3251 0.930 . S
H3236 C3252 0.931 . S
C3237 H3225 0.929 . S
C3237 C3231 1.390 . S
C3237 C3234 1.386 . S
C3238 C3233 1.490 . S
C3238 C3240 1.395 . S
C3238 C3241 1.403 . S
H3239 C3245 0.930 . S
C3240 H3226 0.930 . S
C3240 C3238 1.395 . S
C3240 C3243 1.403 . S
C3241 C3238 1.403 . S
C3241 C3242 1.524 . S
C3241 C3245 1.400 . S
C3242 H3227 0.960 . S
C3242 H3228 0.960 . S
C3242 H3229 0.960 . S
C3242 C3241 1.524 . S
C3243 C3240 1.403 . S
C3243 C3244 1.392 . S
C3243 C3247 1.495 . S
C3244 C3243 1.392 . S
C3244 C3245 1.385 . S
C3244 C3246 1.478 . S
C3245 H3239 0.930 . S
C3245 C3241 1.400 . S
C3245 C3244 1.385 . S
C3246 C3244 1.478 . S
C3246 C3248 1.381 . S
C3246 C3252 1.383 . S
C3247 C3243 1.495 . S
C3247 H3253 0.959 . S
C3247 H3254 0.961 . S
C3247 H3255 0.960 . S
C3248 C3246 1.381 . S
C3248 C3249 1.394 . S
C3248 H3256 0.930 . S
C3249 C3248 1.394 . S
C3249 C3250 1.383 . S
C3249 H3257 0.929 . S
C3250 C3249 1.383 . S
C3250 C3251 1.377 . S
C3251 H3235 0.930 . S
C3251 C3250 1.377 . S
C3251 C3252 1.379 . S
C3252 H3236 0.931 . S
C3252 C3246 1.383 . S
C3252 C3251 1.379 . S
H3253 C3247 0.959 . S
H3254 C3247 0.961 . S
H3255 C3247 0.960 . S
H3256 C3248 0.930 . S
H3257 C3249 0.929 . S
H3258 C3266 0.929 . S
H3259 C3268 0.930 . S
H3260 C3270 0.930 . S
H3261 C3273 0.929 . S
H3262 C3276 0.930 . S
H3263 C3278 0.960 . S
H3264 C3278 0.960 . S
H3265 C3278 0.960 . S
C3266 H3258 0.929 . S
C3266 C3267 1.377 . S
C3266 C3268 1.384 . S
C3267 C3266 1.377 . S
C3267 C3273 1.390 . S
C3268 H3259 0.930 . S
C3268 C3266 1.384 . S
C3268 C3269 1.372 . S
C3269 C3268 1.372 . S
C3269 C3270 1.400 . S
C3269 C3274 1.490 . S
C3270 H3260 0.930 . S
C3270 C3269 1.400 . S
C3270 C3273 1.386 . S
H3271 C3287 0.930 . S
H3272 C3288 0.931 . S
C3273 H3261 0.929 . S
C3273 C3267 1.390 . S
C3273 C3270 1.386 . S
C3274 C3269 1.490 . S
C3274 C3276 1.395 . S
C3274 C3277 1.403 . S
H3275 C3281 0.930 . S
C3276 H3262 0.930 . S
C3276 C3274 1.395 . S
C3276 C3279 1.403 . S
C3277 C3274 1.403 . S
C3277 C3278 1.524 . S
C3277 C3281 1.400 . S
C3278 H3263 0.960 . S
C3278 H3264 0.960 . S
C3278 H3265 0.960 . S
C3278 C3277 1.524 . S
C3279 C3276 1.403 . S
C3279 C3280 1.392 . S
C3279 C3283 1.495 . S
C3280 C3279 1.392 . S
C3280 C3281 1.385 . S
C3280 C3282 1.478 . S
C3281 H3275 0.930 . S
C3281 C3277 1.400 . S
C3281 C3280 1.385 . S
C3282 C3280 1.478 . S
C3282 C3284 1.381 . S
C3282 C3288 1.383 . S
C3283 C3279 1.495 . S
C3283 H3289 0.959 . S
C3283 H3290 0.961 . S
C3283 H3291 0.960 . S
C3284 C3282 1.381 . S
C3284 C3285 1.394 . S
C3284 H3292 0.930 . S
C3285 C3284 1.394 . S
C3285 C3286 1.383 . S
C3285 H3293 0.929 . S
C3286 C3285 1.383 . S
C3286 C3287 1.377 . S
C3287 H3271 0.930 . S
C3287 C3286 1.377 . S
C3287 C3288 1.379 . S
C3288 H3272 0.931 . S
C3288 C3282 1.383 . S
C3288 C3287 1.379 . S
H3289 C3283 0.959 . S
H3290 C3283 0.961 . S
H3291 C3283 0.960 . S
H3292 C3284 0.930 . S
H3293 C3285 0.929 . S
H3294 C3302 0.929 . S
H3295 C3304 0.930 . S
H3296 C3306 0.930 . S
H3297 C3309 0.929 . S
H3298 C3312 0.930 . S
H3299 C3314 0.960 . S
H3300 C3314 0.960 . S
H3301 C3314 0.960 . S
C3302 H3294 0.929 . S
C3302 C3303 1.377 . S
C3302 C3304 1.384 . S
C3303 C3302 1.377 . S
C3303 C3309 1.390 . S
C3304 H3295 0.930 . S
C3304 C3302 1.384 . S
C3304 C3305 1.372 . S
C3305 C3304 1.372 . S
C3305 C3306 1.400 . S
C3305 C3310 1.490 . S
C3306 H3296 0.930 . S
C3306 C3305 1.400 . S
C3306 C3309 1.386 . S
H3307 C3323 0.930 . S
H3308 C3324 0.931 . S
C3309 H3297 0.929 . S
C3309 C3303 1.390 . S
C3309 C3306 1.386 . S
C3310 C3305 1.490 . S
C3310 C3312 1.395 . S
C3310 C3313 1.403 . S
H3311 C3317 0.930 . S
C3312 H3298 0.930 . S
C3312 C3310 1.395 . S
C3312 C3315 1.403 . S
C3313 C3310 1.403 . S
C3313 C3314 1.524 . S
C3313 C3317 1.400 . S
C3314 H3299 0.960 . S
C3314 H3300 0.960 . S
C3314 H3301 0.960 . S
C3314 C3313 1.524 . S
C3315 C3312 1.403 . S
C3315 C3316 1.392 . S
C3315 C3319 1.495 . S
C3316 C3315 1.392 . S
C3316 C3317 1.385 . S
C3316 C3318 1.478 . S
C3317 H3311 0.930 . S
C3317 C3313 1.400 . S
C3317 C3316 1.385 . S
C3318 C3316 1.478 . S
C3318 C3320 1.381 . S
C3318 C3324 1.383 . S
C3319 C3315 1.495 . S
C3319 H3325 0.959 . S
C3319 H3326 0.961 . S
C3319 H3327 0.960 . S
C3320 C3318 1.381 . S
C3320 C3321 1.394 . S
C3320 H3328 0.930 . S
C3321 C3320 1.394 . S
C3321 C3322 1.383 . S
C3321 H3329 0.929 . S
C3322 C3321 1.383 . S
C3322 C3323 1.377 . S
C3323 H3307 0.930 . S
C3323 C3322 1.377 . S
C3323 C3324 1.379 . S
C3324 H3308 0.931 . S
C3324 C3318 1.383 . S
C3324 C3323 1.379 . S
H3325 C3319 0.959 . S
H3326 C3319 0.961 . S
H3327 C3319 0.960 . S
H3328 C3320 0.930 . S
H3329 C3321 0.929 . S
H3330 C3338 0.929 . S
H3331 C3340 0.930 . S
H3332 C3342 0.930 . S
H3333 C3345 0.929 . S
H3334 C3348 0.930 . S
H3335 C3350 0.960 . S
H3336 C3350 0.960 . S
H3337 C3350 0.960 . S
C3338 H3330 0.929 . S
C3338 C3339 1.377 . S
C3338 C3340 1.384 . S
C3339 C3338 1.377 . S
C3339 C3345 1.390 . S
C3340 H3331 0.930 . S
C3340 C3338 1.384 . S
C3340 C3341 1.372 . S
C3341 C3340 1.372 . S
C3341 C3342 1.400 . S
C3341 C3346 1.490 . S
C3342 H3332 0.930 . S
C3342 C3341 1.400 . S
C3342 C3345 1.386 . S
H3343 C3359 0.930 . S
H3344 C3360 0.931 . S
C3345 H3333 0.929 . S
C3345 C3339 1.390 . S
C3345 C3342 1.386 . S
C3346 C3341 1.490 . S
C3346 C3348 1.395 . S
C3346 C3349 1.403 . S
H3347 C3353 0.930 . S
C3348 H3334 0.930 . S
C3348 C3346 1.395 . S
C3348 C3351 1.403 . S
C3349 C3346 1.403 . S
C3349 C3350 1.524 . S
C3349 C3353 1.400 . S
C3350 H3335 0.960 . S
C3350 H3336 0.960 . S
C3350 H3337 0.960 . S
C3350 C3349 1.524 . S
C3351 C3348 1.403 . S
C3351 C3352 1.392 . S
C3351 C3355 1.495 . S
C3352 C3351 1.392 . S
C3352 C3353 1.385 . S
C3352 C3354 1.478 . S
C3353 H3347 0.930 . S
C3353 C3349 1.400 . S
C3353 C3352 1.385 . S
C3354 C3352 1.478 . S
C3354 C3356 1.381 . S
C3354 C3360 1.383 . S
C3355 C3351 1.495 . S
C3355 H3361 0.959 . S
C3355 H3362 0.961 . S
C3355 H3363 0.960 . S
C3356 C3354 1.381 . S
C3356 C3357 1.394 . S
C3356 H3364 0.930 . S
C3357 C3356 1.394 . S
C3357 C3358 1.383 . S
C3357 H3365 0.929 . S
C3358 C3357 1.383 . S
C3358 C3359 1.377 . S
C3359 H3343 0.930 . S
C3359 C3358 1.377 . S
C3359 C3360 1.379 . S
C3360 H3344 0.931 . S
C3360 C3354 1.383 . S
C3360 C3359 1.379 . S
H3361 C3355 0.959 . S
H3362 C3355 0.961 . S
H3363 C3355 0.960 . S
H3364 C3356 0.930 . S
H3365 C3357 0.929 . S
H3366 C3374 0.929 . S
H3367 C3376 0.930 . S
H3368 C3378 0.930 . S
H3369 C3381 0.929 . S
H3370 C3384 0.930 . S
H3371 C3386 0.960 . S
H3372 C3386 0.960 . S
H3373 C3386 0.960 . S
C3374 H3366 0.929 . S
C3374 C3375 1.377 . S
C3374 C3376 1.384 . S
C3375 C3374 1.377 . S
C3375 C3381 1.390 . S
C3376 H3367 0.930 . S
C3376 C3374 1.384 . S
C3376 C3377 1.372 . S
C3377 C3376 1.372 . S
C3377 C3378 1.400 . S
C3377 C3382 1.490 . S
C3378 H3368 0.930 . S
C3378 C3377 1.400 . S
C3378 C3381 1.386 . S
H3379 C3395 0.930 . S
H3380 C3396 0.931 . S
C3381 H3369 0.929 . S
C3381 C3375 1.390 . S
C3381 C3378 1.386 . S
C3382 C3377 1.490 . S
C3382 C3384 1.395 . S
C3382 C3385 1.403 . S
H3383 C3389 0.930 . S
C3384 H3370 0.930 . S
C3384 C3382 1.395 . S
C3384 C3387 1.403 . S
C3385 C3382 1.403 . S
C3385 C3386 1.524 . S
C3385 C3389 1.400 . S
C3386 H3371 0.960 . S
C3386 H3372 0.960 . S
C3386 H3373 0.960 . S
C3386 C3385 1.524 . S
C3387 C3384 1.403 . S
C3387 C3388 1.392 . S
C3387 C3391 1.495 . S
C3388 C3387 1.392 . S
C3388 C3389 1.385 . S
C3388 C3390 1.478 . S
C3389 H3383 0.930 . S
C3389 C3385 1.400 . S
C3389 C3388 1.385 . S
C3390 C3388 1.478 . S
C3390 C3392 1.381 . S
C3390 C3396 1.383 . S
C3391 C3387 1.495 . S
C3391 H3397 0.959 . S
C3391 H3398 0.961 . S
C3391 H3399 0.960 . S
C3392 C3390 1.381 . S
C3392 C3393 1.394 . S
C3392 H3400 0.930 . S
C3393 C3392 1.394 . S
C3393 C3394 1.383 . S
C3393 H3401 0.929 . S
C3394 C3393 1.383 . S
C3394 C3395 1.377 . S
C3395 H3379 0.930 . S
C3395 C3394 1.377 . S
C3395 C3396 1.379 . S
C3396 H3380 0.931 . S
C3396 C3390 1.383 . S
C3396 C3395 1.379 . S
H3397 C3391 0.959 . S
H3398 C3391 0.961 . S
H3399 C3391 0.960 . S
H3400 C3392 0.930 . S
H3401 C3393 0.929 . S
C1467 C528 1.390 . S
C1486 C769 1.323 . S
C1503 C562 1.471 . S
C1522 C853 1.364 . S
C1539 C484 1.448 . S
C1558 C933 1.393 . S
C1575 C445 1.400 . S
C1594 C849 1.336 . S
C1630 C937 1.287 . S
C1611 C367 1.398 . S
C1647 C411 1.354 . S
C1666 C765 1.311 . S
C1702 C758 1.298 . S
C1683 C450 1.404 . S
C1738 C842 1.355 . S
C1719 C372 1.449 . S
C1755 C406 1.442 . S
C1774 C944 1.385 . S
C1791 C523 1.399 . S
C1810 C860 1.354 . S
C1827 C567 1.378 . S
C1846 C926 1.335 . S
C1882 C776 1.350 . S
C1863 C489 1.370 . S
C1918 C1021 1.348 . S
C1899 C60 1.388 . S
C1935 C94 1.470 . S
C1954 C1105 1.401 . S
C1971 C16 1.447 . S
C1990 C1185 1.430 . S
C2007 C679 1.401 . S
C2026 C1101 1.380 . S
C2043 C601 1.398 . S
C2062 C1189 1.289 . S
C2079 C645 1.354 . S
C2098 C1017 1.324 . S
C2115 C684 1.404 . S
C2134 C1010 1.298 . S
C2151 C606 1.450 . S
C2170 C1094 1.410 . S
C2206 C1196 1.423 . S
C2187 C640 1.447 . S
C2223 C55 1.400 . S
C2242 C1112 1.383 . S
C2278 C1178 1.315 . S
C2259 C99 1.376 . S
C2295 C21 1.372 . S
C2314 C1028 1.321 . S
C2350 C1273 1.335 . S
C2331 C294 1.388 . S
C2367 C328 1.469 . S
C2386 C1357 1.427 . S
C2422 C1437 1.380 . S
C2403 C250 1.447 . S
C2458 C1353 1.348 . S
C2439 C211 1.401 . S
C2494 C1441 1.332 . S
C2475 C133 1.396 . S
C2511 C177 1.353 . S
C2530 C1269 1.340 . S
C2547 C216 1.405 . S
C2566 C1262 1.300 . S
C2583 C138 1.448 . S
C2602 C1346 1.347 . S
C2638 C1448 1.424 . S
C2619 C172 1.447 . S
C2655 C289 1.399 . S
C2674 C1364 1.385 . S
C2691 C333 1.376 . S
C2710 C1430 1.307 . S
C2727 C255 1.369 . S
C2746 C1280 1.307 . S
C2763 C586 1.433 . S
C2782 C772 1.341 . S
C2818 C856 1.312 . S
C2799 C625 1.483 . S
C2835 C664 1.456 . S
C2854 C928 1.295 . S
C2871 C235 1.498 . S
C2890 C844 1.321 . S
C2907 C274 1.440 . S
C2926 C940 1.273 . S
C2962 C760 1.270 . S
C2943 C313 1.432 . S
C2979 C118 1.433 . S
C2998 C1024 1.282 . S
C3015 C157 1.484 . S
C3034 C1108 1.379 . S
C3051 C196 1.457 . S
C3070 C1180 1.285 . S
C3087 C469 1.499 . S
C3106 C1096 1.396 . S
C3142 C1192 1.351 . S
C3123 C508 1.440 . S
C3159 C547 1.432 . S
C3178 C1012 1.302 . S
C3195 C352 1.433 . S
C3214 C1276 1.348 . S
C3231 C391 1.483 . S
C3250 C1360 1.311 . S
C3286 C1432 1.286 . S
C3267 C430 1.456 . S
C3303 C1 1.498 . S
C3322 C1348 1.357 . S
C3339 C40 1.440 . S
C3358 C1444 1.269 . S
C3375 C79 1.432 . S
C3394 C1264 1.353 . S
