# Generated by pormake.
# Topology dag, (6,3)-cn, num edge types: 1
# Building blocks:
#     Node 0, Type 0, BuildingBlock: OJICUG_clean_sbu_0, # of connection points: 6
#     Node 1, Type 0, BuildingBlock: OJICUG_clean_sbu_0, # of connection points: 6
#     Node 2, Type 0, BuildingBlock: OJICUG_clean_sbu_0, # of connection points: 6
#     Node 3, Type 0, BuildingBlock: OJICUG_clean_sbu_0, # of connection points: 6
#     Node 4, Type 1, BuildingBlock: ESEHIV_clean_linker_0, # of connection points: 3
#     Node 5, Type 1, BuildingBlock: ESEHIV_clean_linker_0, # of connection points: 3
#     Node 6, Type 1, BuildingBlock: ESEHIV_clean_linker_0, # of connection points: 3
#     Node 7, Type 1, BuildingBlock: ESEHIV_clean_linker_0, # of connection points: 3
#     Node 8, Type 1, BuildingBlock: ESEHIV_clean_linker_0, # of connection points: 3
#     Node 9, Type 1, BuildingBlock: ESEHIV_clean_linker_0, # of connection points: 3
#     Node 10, Type 1, BuildingBlock: ESEHIV_clean_linker_0, # of connection points: 3
#     Node 11, Type 1, BuildingBlock: ESEHIV_clean_linker_0, # of connection points: 3
#     Edge 12, Type (0, 1), BuildingBlock: XIVTED_clean_linker_0, # of connection points: 2
#     Edge 13, Type (0, 1), BuildingBlock: XIVTED_clean_linker_0, # of connection points: 2
#     Edge 14, Type (0, 1), BuildingBlock: XIVTED_clean_linker_0, # of connection points: 2
#     Edge 15, Type (0, 1), BuildingBlock: XIVTED_clean_linker_0, # of connection points: 2
#     Edge 16, Type (0, 1), BuildingBlock: XIVTED_clean_linker_0, # of connection points: 2
#     Edge 17, Type (0, 1), BuildingBlock: XIVTED_clean_linker_0, # of connection points: 2
#     Edge 18, Type (0, 1), BuildingBlock: XIVTED_clean_linker_0, # of connection points: 2
#     Edge 19, Type (0, 1), BuildingBlock: XIVTED_clean_linker_0, # of connection points: 2
#     Edge 20, Type (0, 1), BuildingBlock: XIVTED_clean_linker_0, # of connection points: 2
#     Edge 21, Type (0, 1), BuildingBlock: XIVTED_clean_linker_0, # of connection points: 2
#     Edge 22, Type (0, 1), BuildingBlock: XIVTED_clean_linker_0, # of connection points: 2
#     Edge 23, Type (0, 1), BuildingBlock: XIVTED_clean_linker_0, # of connection points: 2
#     Edge 24, Type (0, 1), BuildingBlock: XIVTED_clean_linker_0, # of connection points: 2
#     Edge 25, Type (0, 1), BuildingBlock: XIVTED_clean_linker_0, # of connection points: 2
#     Edge 26, Type (0, 1), BuildingBlock: XIVTED_clean_linker_0, # of connection points: 2
#     Edge 27, Type (0, 1), BuildingBlock: XIVTED_clean_linker_0, # of connection points: 2
#     Edge 28, Type (0, 1), BuildingBlock: XIVTED_clean_linker_0, # of connection points: 2
#     Edge 29, Type (0, 1), BuildingBlock: XIVTED_clean_linker_0, # of connection points: 2
#     Edge 30, Type (0, 1), BuildingBlock: XIVTED_clean_linker_0, # of connection points: 2
#     Edge 31, Type (0, 1), BuildingBlock: XIVTED_clean_linker_0, # of connection points: 2
#     Edge 32, Type (0, 1), BuildingBlock: XIVTED_clean_linker_0, # of connection points: 2
#     Edge 33, Type (0, 1), BuildingBlock: XIVTED_clean_linker_0, # of connection points: 2
#     Edge 34, Type (0, 1), BuildingBlock: XIVTED_clean_linker_0, # of connection points: 2
#     Edge 35, Type (0, 1), BuildingBlock: XIVTED_clean_linker_0, # of connection points: 2
# Relax obj value: 0.253
# Max RMSD: 0.198
# Mean RMSD: 0.163
data_MOF--net-dag--node1-OJICUG_clean_sbu_0--node2-ESEHIV_clean_linker_0--edge1-XIVTED_clean_linker_0
_symmetry_space_group_name_H-M    P1
_symmetry_Int_Tables_number       1
_symmetry_cell_setting            triclinic
loop_
_symmetry_equiv_pos_as_xyz
'x, y, z'
_cell_length_a     34.012005
_cell_length_b     35.832976
_cell_length_c     35.001539
_cell_angle_alpha  95.308156
_cell_angle_beta   89.98385
_cell_angle_gamma 90.009248
loop_
_atom_site_label
_atom_site_type_symbol
_atom_site_fract_x
_atom_site_fract_y
_atom_site_fract_z
_atom_type_partial_charge
Sc0 Sc 0.1261 0.85439 0.02539 0.0
Sc1 Sc 0.14727 0.76052 0.03991 0.0
Sc2 Sc 0.20559 0.83456 0.08359 0.0
O3 O 0.1597 0.81639 0.04964 0.0
C4 C 0.21103 0.89243 0.02091 0.0
C5 C 0.13443 0.79072 0.95723 0.0
C6 C 0.24096 0.76298 0.03397 0.0
C7 C 0.06147 0.79431 0.04675 0.0
C8 C 0.13709 0.89231 0.11045 0.0
C9 C 0.17197 0.76784 0.1282 0.0
O10 O 0.17514 0.88876 0.01133 0.0
O11 O 0.13665 0.76403 0.97884 0.0
O12 O 0.24475 0.79403 0.05446 0.0
O13 O 0.072 0.82531 0.03501 0.0
O14 O 0.17017 0.87676 0.1153 0.0
O15 O 0.15566 0.74992 0.09939 0.0
O16 O 0.11711 0.88652 0.07973 0.0
O17 O 0.08564 0.76847 0.05281 0.0
O18 O 0.19048 0.79824 0.1261 0.0
O19 O 0.13282 0.82502 0.96997 0.0
O20 O 0.2267 0.87407 0.0461 0.0
O21 O 0.20784 0.74743 0.0264 0.0
Sc22 Sc 0.71119 0.65546 0.46215 0.0
Sc23 Sc 0.6497 0.7271 0.50579 0.0
Sc24 Sc 0.63193 0.63241 0.51922 0.0
O25 O 0.66432 0.67175 0.49573 0.0
C26 C 0.64571 0.59504 0.43428 0.0
C27 C 0.6753 0.72119 0.41769 0.0
C28 C 0.56532 0.69028 0.49729 0.0
C29 C 0.74331 0.72802 0.5126 0.0
C30 C 0.71843 0.5979 0.5249 0.0
C31 C 0.63648 0.69589 0.58799 0.0
O32 O 0.67823 0.61175 0.42996 0.0
O33 O 0.65848 0.73845 0.4466 0.0
O34 O 0.57686 0.65953 0.50889 0.0
O35 O 0.7483 0.69748 0.49157 0.0
O36 O 0.68226 0.60005 0.53385 0.0
O37 O 0.63825 0.72276 0.56657 0.0
O38 O 0.73367 0.61687 0.49995 0.0
O39 O 0.7096 0.74221 0.5204 0.0
O40 O 0.63648 0.66162 0.57499 0.0
O41 O 0.69469 0.69124 0.41958 0.0
O42 O 0.62499 0.60023 0.46459 0.0
O43 O 0.58858 0.71706 0.49187 0.0
Sc44 Sc 0.85418 0.2304 0.00256 0.0
Sc45 Sc 0.78987 0.15823 0.96376 0.0
Sc46 Sc 0.87043 0.13605 0.01884 0.0
O47 O 0.83822 0.17505 0.99494 0.0
C48 C 0.93717 0.19037 0.99045 0.0
C49 C 0.82177 0.22472 0.91716 0.0
C50 C 0.85319 0.09716 0.9344 0.0
C51 C 0.76039 0.23092 0.01461 0.0
C52 C 0.87021 0.20263 0.08538 0.0
C53 C 0.78544 0.102 0.02877 0.0
O54 O 0.91562 0.2192 0.98851 0.0
O55 O 0.80051 0.19649 0.92184 0.0
O56 O 0.87231 0.10049 0.9658 0.0
O57 O 0.79416 0.24653 0.01755 0.0
O58 O 0.87132 0.16815 0.07336 0.0
O59 O 0.77075 0.11719 0.0008 0.0
O60 O 0.86608 0.22873 0.06339 0.0
O61 O 0.75451 0.19873 0.99695 0.0
O62 O 0.8207 0.10729 0.03953 0.0
O63 O 0.84463 0.23958 0.94296 0.0
O64 O 0.92431 0.15995 0.00158 0.0
O65 O 0.82264 0.1164 0.92857 0.0
Sc66 Sc 0.36986 0.35799 0.52845 0.0
Sc67 Sc 0.29058 0.33086 0.58301 0.0
Sc68 Sc 0.35734 0.26254 0.54078 0.0
O69 O 0.33935 0.31701 0.55094 0.0
C70 C 0.36925 0.29449 0.45909 0.0
C71 C 0.28346 0.39032 0.52163 0.0
C72 C 0.26332 0.25901 0.52987 0.0
C73 C 0.35309 0.39219 0.61466 0.0
C74 C 0.43962 0.30386 0.55104 0.0
C75 C 0.3257 0.26318 0.62596 0.0
O76 O 0.36943 0.3286 0.47257 0.0
O77 O 0.26927 0.37311 0.54844 0.0
O78 O 0.29786 0.24519 0.52639 0.0
O79 O 0.37225 0.39049 0.58327 0.0
O80 O 0.41869 0.27475 0.55358 0.0
O81 O 0.30296 0.29065 0.6225 0.0
O82 O 0.42536 0.33449 0.54181 0.0
O83 O 0.32267 0.37236 0.61958 0.0
O84 O 0.34954 0.25059 0.59993 0.0
O85 O 0.31889 0.38685 0.51088 0.0
O86 O 0.36726 0.26728 0.47999 0.0
O87 O 0.25591 0.29045 0.5485 0.0
H88 H 0.99458 0.10452 0.26588 0.0
H89 H 0.08368 0.0889 0.3497 0.0
H90 H 0.02235 0.19426 0.35124 0.0
C91 C 0.01049 0.11438 0.29168 0.0
C92 C 0.00309 0.1507 0.30881 0.0
C93 C 0.04048 0.0923 0.30536 0.0
C94 C 0.06154 0.10634 0.33798 0.0
C95 C 0.05607 0.14332 0.35432 0.0
C96 C 0.02641 0.1654 0.33969 0.0
H97 H 0.49722 0.60241 0.76599 0.0
H98 H 0.40488 0.59739 0.84896 0.0
H99 H 0.48539 0.69095 0.85629 0.0
C100 C 0.48271 0.61371 0.79213 0.0
C101 C 0.49539 0.64816 0.81014 0.0
C102 C 0.45 0.59518 0.80582 0.0
C103 C 0.43051 0.61131 0.83863 0.0
C104 C 0.44295 0.64582 0.85737 0.0
C105 C 0.47547 0.66424 0.84264 0.0
H106 H 0.77999 0.85961 0.08181 0.0
H107 H 0.77296 0.7738 0.15968 0.0
H108 H 0.68771 0.86305 0.16537 0.0
C109 C 0.76452 0.84626 0.10396 0.0
C110 C 0.7313 0.864 0.12098 0.0
C111 C 0.78014 0.81382 0.11781 0.0
C112 C 0.76093 0.79849 0.14831 0.0
C113 C 0.72754 0.81606 0.16568 0.0
C114 C 0.71292 0.84884 0.15178 0.0
H115 H 0.74256 0.36181 0.56777 0.0
H116 H 0.72294 0.28406 0.65193 0.0
H117 H 0.81953 0.36177 0.66475 0.0
C118 C 0.75205 0.34902 0.59308 0.0
C119 C 0.78441 0.36425 0.61394 0.0
C120 C 0.72851 0.3213 0.60742 0.0
C121 C 0.7409 0.30538 0.64052 0.0
C122 C 0.77417 0.31933 0.66117 0.0
C123 C 0.79578 0.34883 0.64763 0.0
H124 H 0.4954 0.39027 0.27738 0.0
H125 H 0.59001 0.39688 0.19726 0.0
H126 H 0.51108 0.30213 0.18733 0.0
C127 C 0.51051 0.37942 0.25141 0.0
C128 C 0.49891 0.34475 0.23305 0.0
C129 C 0.54341 0.3984 0.23881 0.0
C130 C 0.5641 0.38267 0.20656 0.0
C131 C 0.5529 0.34792 0.18756 0.0
C132 C 0.52004 0.32911 0.20111 0.0
H133 H 0.23507 0.1312 0.97358 0.0
H134 H 0.22392 0.20843 0.88766 0.0
H135 H 0.31852 0.12837 0.88142 0.0
C136 C 0.247 0.14367 0.94899 0.0
C137 C 0.28014 0.12743 0.93025 0.0
C138 C 0.22563 0.17194 0.93309 0.0
C139 C 0.24058 0.18706 0.90053 0.0
C140 C 0.27453 0.1719 0.88195 0.0
C141 C 0.29426 0.14214 0.8971 0.0
H142 H 0.28165 0.62896 0.46314 0.0
H143 H 0.2767 0.71162 0.38169 0.0
H144 H 0.18711 0.6267 0.38213 0.0
C145 C 0.26626 0.64212 0.44083 0.0
C146 C 0.23174 0.62539 0.42549 0.0
C147 C 0.28307 0.67312 0.42518 0.0
C148 C 0.26385 0.68804 0.39443 0.0
C149 C 0.22925 0.67141 0.37865 0.0
C150 C 0.21336 0.64012 0.39444 0.0
H151 H 0.99966 0.88676 0.78153 0.0
H152 H 0.98782 0.8008 0.68873 0.0
H153 H 0.90675 0.89387 0.69957 0.0
C154 C 0.9851 0.87622 0.75516 0.0
C155 C 0.95217 0.89504 0.74232 0.0
C156 C 0.99784 0.84231 0.736 0.0
C157 C 0.97782 0.82712 0.70321 0.0
C158 C 0.94502 0.84578 0.68939 0.0
C159 C 0.93256 0.87976 0.70921 0.0
H160 H 0.06208 0.92005 0.11869 0.0
H161 H 0.11583 0.06649 0.29398 0.0
H162 H 0.17548 0.92338 0.17446 0.0
H163 H 0.99551 0.03891 0.26323 0.0
H164 H 0.13793 0.01406 0.25054 0.0
H165 H 0.03696 0.96421 0.17036 0.0
C166 C 0.08172 0.93001 0.14178 0.0
C167 C 0.1211 0.91823 0.14202 0.0
C168 C 0.10666 0.01915 0.25363 0.0
C169 C 0.09244 0.96871 0.20119 0.0
C170 C 0.09385 0.04899 0.27882 0.0
C171 C 0.05356 0.05738 0.28249 0.0
C172 C 0.07917 -0.00225 0.23125 0.0
C173 C 0.02686 0.03403 0.26095 0.0
C174 C 0.06724 0.95502 0.17139 0.0
C175 C 0.14499 0.93177 0.17294 0.0
N176 N 0.04017 0.00554 0.2359 0.0
N177 N 0.13038 0.95655 0.20108 0.0
H178 H 0.59125 0.75108 0.6256 0.0
H179 H 0.57077 0.625 0.79812 0.0
H180 H 0.66572 0.65724 0.64466 0.0
H181 H 0.49159 0.71531 0.77945 0.0
H182 H 0.61724 0.64893 0.75309 0.0
H183 H 0.56625 0.75089 0.69139 0.0
C184 C 0.60331 0.73131 0.64408 0.0
C185 C 0.62998 0.70368 0.62962 0.0
C186 C 0.59015 0.66415 0.75939 0.0
C187 C 0.60131 0.7029 0.70433 0.0
C188 C 0.56379 0.65056 0.78525 0.0
C189 C 0.52738 0.66811 0.79207 0.0
C190 C 0.5795 0.69493 0.73943 0.0
C191 C 0.51948 0.70106 0.77476 0.0
C192 C 0.58885 0.73101 0.68152 0.0
C193 C 0.64459 0.67859 0.65459 0.0
N194 N 0.54497 0.71298 0.74847 0.0
N195 N 0.62961 0.67841 0.69047 0.0
H196 H 0.79086 0.08389 0.10252 0.0
H197 H 0.71416 0.88388 0.04944 0.0
H198 H 0.72769 0.05625 0.99679 0.0
H199 H 0.72511 0.92877 0.16752 0.0
H200 H 0.71243 0.94781 0.03015 0.0
H201 H 0.76151 0.02949 0.12869 0.0
C202 C 0.77022 0.0667 0.08511 0.0
C203 C 0.76213 0.0741 0.04728 0.0
C204 C 0.71405 0.94374 0.06038 0.0
C205 C 0.72907 0.01159 0.07667 0.0
C206 C 0.71508 0.90732 0.07131 0.0
C207 C 0.72013 0.90131 0.10999 0.0
C208 C 0.71924 0.97411 0.08829 0.0
C209 C 0.72122 0.9324 0.13738 0.0
C210 C 0.75331 0.03579 0.10009 0.0
C211 C 0.73487 0.05129 0.02603 0.0
N212 N 0.72178 0.96757 0.12592 0.0
N213 N 0.72002 0.02043 0.04069 0.0
H214 H 0.4865 0.24435 0.56883 0.0
H215 H 0.67828 0.37376 0.58364 0.0
H216 H 0.49126 0.36152 0.54893 0.0
H217 H 0.68392 0.25591 0.6005 0.0
H218 H 0.60988 0.36681 0.56719 0.0
H219 H 0.55824 0.24548 0.57881 0.0
C220 C 0.50245 0.27022 0.56659 0.0
C221 C 0.48261 0.30289 0.55811 0.0
C222 C 0.62592 0.3422 0.5741 0.0
C223 C 0.56428 0.30423 0.56914 0.0
C224 C 0.66552 0.34603 0.58299 0.0
C225 C 0.68752 0.31525 0.59302 0.0
C226 C 0.60732 0.30744 0.57572 0.0
C227 C 0.66819 0.28049 0.59312 0.0
C228 C 0.54334 0.27078 0.57215 0.0
C229 C 0.50488 0.33555 0.55543 0.0
N230 N 0.62906 0.27753 0.58483 0.0
N231 N 0.54422 0.33529 0.56092 0.0
H232 H 0.68742 0.56112 0.37367 0.0
H233 H 0.50083 0.45626 0.27556 0.0
H234 H 0.57055 0.56944 0.422 0.0
H235 H 0.62006 0.41763 0.25577 0.0
H236 H 0.52563 0.50693 0.32072 0.0
H237 H 0.66249 0.51697 0.32177 0.0
C238 C 0.65651 0.5538 0.37331 0.0
C239 C 0.63109 0.56874 0.40242 0.0
C240 C 0.54631 0.4875 0.30617 0.0
C241 C 0.60243 0.51869 0.34296 0.0
C242 C 0.53221 0.45854 0.28045 0.0
C243 C 0.55831 0.43232 0.26203 0.0
C244 C 0.58682 0.49055 0.31327 0.0
C245 C 0.59878 0.43728 0.2689 0.0
C246 C 0.64237 0.52859 0.34373 0.0
C247 C 0.5913 0.55828 0.40043 0.0
N248 N 0.61177 0.46569 0.29412 0.0
N249 N 0.57818 0.53393 0.37117 0.0
H250 H 0.98223 0.13021 0.96804 0.0
H251 H 0.18407 0.23898 0.94159 0.0
H252 H 0.98771 0.25093 0.98664 0.0
H253 H 0.17142 0.1199 0.94867 0.0
H254 H 0.11292 0.24641 0.95404 0.0
H255 H 0.05183 0.12836 0.95488 0.0
C256 C 0.99815 0.1565 0.96943 0.0
C257 C 0.97909 0.19078 0.9791 0.0
C258 C 0.12607 0.21884 0.95327 0.0
C259 C 0.05986 0.18881 0.96403 0.0
C260 C 0.16655 0.21457 0.94623 0.0
C261 C 0.18398 0.17885 0.9447 0.0
C262 C 0.10306 0.18705 0.95818 0.0
C263 C 0.15984 0.14815 0.95061 0.0
C264 C 0.03814 0.15541 0.96191 0.0
C265 C 0.00134 0.22389 0.97948 0.0
N266 N 0.12088 0.153 0.9569 0.0
N267 N 0.04081 0.22212 0.9723 0.0
H268 H 0.28364 0.40571 0.44711 0.0
H269 H 0.21753 0.60863 0.49881 0.0
H270 H 0.22891 0.43802 0.55633 0.0
H271 H 0.2189 0.55995 0.38148 0.0
H272 H 0.21392 0.54564 0.52035 0.0
H273 H 0.25346 0.45974 0.42111 0.0
C274 C 0.26458 0.42388 0.46535 0.0
C275 C 0.25911 0.41791 0.50397 0.0
C276 C 0.21379 0.54874 0.48987 0.0
C277 C 0.22528 0.48009 0.47483 0.0
C278 C 0.21593 0.58463 0.47764 0.0
C279 C 0.21901 0.58924 0.43843 0.0
C280 C 0.21584 0.51745 0.46265 0.0
C281 C 0.21669 0.55745 0.412 0.0
C282 C 0.2472 0.45459 0.4505 0.0
C283 C 0.23393 0.44192 0.52641 0.0
N284 N 0.21625 0.52276 0.42462 0.0
N285 N 0.2187 0.47265 0.51178 0.0
H286 H 0.08966 0.73587 0.9186 0.0
H287 H 0.07332 0.86488 0.74891 0.0
H288 H 0.16658 0.82844 0.90136 0.0
H289 H 0.99364 0.77403 0.7642 0.0
H290 H 0.11942 0.83932 0.7932 0.0
H291 H 0.0663 0.73661 0.85232 0.0
C292 C 0.10266 0.7554 0.90039 0.0
C293 C 0.12947 0.7826 0.91548 0.0
C294 C 0.09232 0.82433 0.78628 0.0
C295 C 0.10262 0.7841 0.84028 0.0
C296 C 0.06617 0.83888 0.76086 0.0
C297 C 0.02971 0.82163 0.75337 0.0
C298 C 0.08135 0.79295 0.80519 0.0
C299 C 0.02158 0.78807 0.76946 0.0
C300 C 0.08913 0.75604 0.86268 0.0
C301 C 0.14531 0.80743 0.89089 0.0
N302 N 0.04681 0.77525 0.79542 0.0
N303 N 0.13116 0.80801 0.85475 0.0
H304 H 0.92779 0.07012 0.92469 0.0
H305 H 0.87502 0.91441 0.75737 0.0
H306 H 0.81245 0.06291 0.87304 0.0
H307 H 0.99386 0.95258 0.78064 0.0
H308 H 0.85069 0.96675 0.80055 0.0
H309 H 0.95185 0.02437 0.87416 0.0
C310 C 0.90748 0.05885 0.90272 0.0
C311 C 0.86795 0.07013 0.90323 0.0
C312 C 0.88206 0.96384 0.79584 0.0
C313 C 0.89538 0.01766 0.8453 0.0
C314 C 0.89604 0.93408 0.77097 0.0
C315 C 0.93668 0.92882 0.76542 0.0
C316 C 0.90886 0.9882 0.81576 0.0
C317 C 0.96236 0.95497 0.78457 0.0
C318 C 0.92133 0.03294 0.87373 0.0
C319 C 0.84312 0.05495 0.87373 0.0
N320 N 0.94806 0.98324 0.80918 0.0
N321 N 0.85716 0.02914 0.84613 0.0
H322 H 0.33336 0.33096 0.40448 0.0
H323 H 0.50448 0.27525 0.25849 0.0
H324 H 0.41647 0.2426 0.41903 0.0
H325 H 0.42399 0.36702 0.25044 0.0
H326 H 0.46084 0.24998 0.30558 0.0
H327 H 0.35338 0.33082 0.33762 0.0
C328 C 0.35526 0.31089 0.39319 0.0
C329 C 0.37385 0.28721 0.41727 0.0
C330 C 0.45212 0.27503 0.29268 0.0
C331 C 0.39792 0.2877 0.34114 0.0
C332 C 0.47685 0.28926 0.2656 0.0
C333 C 0.46791 0.32348 0.25115 0.0
C334 C 0.41846 0.29535 0.30528 0.0
C335 C 0.43204 0.34078 0.26139 0.0
C336 C 0.36677 0.31085 0.35504 0.0
C337 C 0.40168 0.26146 0.40131 0.0
N338 N 0.40895 0.32688 0.28833 0.0
N339 N 0.41367 0.26302 0.36437 0.0
H340 H 0.27287 0.93257 0.0532 0.0
H341 H 0.28303 0.06388 0.8818 0.0
H342 H 0.20308 0.91752 0.94997 0.0
H343 H 0.30102 0.10486 0.00025 0.0
H344 H 0.27887 5e-05 0.90076 0.0
H345 H 0.30592 0.98589 0.02775 0.0
C346 C 0.26509 0.93999 0.02487 0.0
C347 C 0.2348 0.92105 0.00383 0.0
C348 C 0.28498 0.02291 0.92241 0.0
C349 C 0.27288 0.98124 0.97454 0.0
C350 C 0.28787 0.05928 0.9116 0.0
C351 C 0.29203 0.08964 0.93963 0.0
C352 C 0.28655 0.01698 0.96141 0.0
C353 C 0.29751 0.08213 0.9779 0.0
C354 C 0.28392 0.97036 0.01047 0.0
C355 C 0.22584 0.9318 0.96733 0.0
N356 N 0.29396 0.0465 0.98783 0.0
N357 N 0.24467 0.96134 0.9539 0.0
H358 H 0.50444 0.65932 0.53365 0.0
H359 H 0.34406 0.6968 0.38149 0.0
H360 H 0.52975 0.73091 0.44417 0.0
H361 H 0.31354 0.67918 0.4983 0.0
H362 H 0.41202 0.7084 0.40176 0.0
H363 H 0.43443 0.66334 0.519 0.0
C364 C 0.49519 0.676 0.51098 0.0
C365 C 0.52288 0.69465 0.48993 0.0
C366 C 0.39024 0.70257 0.42299 0.0
C367 C 0.44287 0.69904 0.47278 0.0
C368 C 0.35128 0.69617 0.41155 0.0
C369 C 0.32285 0.68646 0.43811 0.0
C370 C 0.40104 0.69856 0.46107 0.0
C371 C 0.33449 0.68555 0.47655 0.0
C372 C 0.45524 0.6785 0.50283 0.0
C373 C 0.50928 0.71616 0.46109 0.0
N374 N 0.37277 0.69081 0.48672 0.0
N375 N 0.47018 0.71731 0.4529 0.0
H376 H 0.42777 0.41807 0.62636 0.0
H377 H 0.37297 0.57494 0.79136 0.0
H378 H 0.31155 0.42553 0.67607 0.0
H379 H 0.49203 0.53673 0.7697 0.0
H380 H 0.34904 0.52157 0.74927 0.0
H381 H 0.45125 0.46334 0.67752 0.0
C382 C 0.40717 0.42924 0.6481 0.0
C383 C 0.36755 0.41826 0.64678 0.0
C384 C 0.38036 0.52467 0.75414 0.0
C385 C 0.39429 0.47029 0.70544 0.0
C386 C 0.3941 0.55504 0.77837 0.0
C387 C 0.4347 0.56064 0.7839 0.0
C388 C 0.40738 0.50003 0.73488 0.0
C389 C 0.46057 0.53411 0.76566 0.0
C390 C 0.42067 0.45489 0.67746 0.0
C391 C 0.34231 0.43329 0.67601 0.0
N392 N 0.44651 0.50526 0.74164 0.0
N393 N 0.35601 0.45895 0.70395 0.0
H394 H 0.02718 0.75238 0.09952 0.0
H395 H 0.80846 0.80853 0.04393 0.0
H396 H 0.99959 0.82358 0.01029 0.0
H397 H 0.8411 0.78677 0.15904 0.0
H398 H 0.87641 0.79667 0.02355 0.0
H399 H 0.95661 0.74832 0.11401 0.0
C400 C 0.00626 0.76671 0.08268 0.0
C401 C 0.01917 0.78868 0.05395 0.0
C402 C 0.86844 0.794 0.05314 0.0
C403 C 0.93891 0.78363 0.06989 0.0
C404 C 0.82972 0.80084 0.06485 0.0
C405 C 0.81903 0.79938 0.10347 0.0
C406 C 0.89669 0.78514 0.08005 0.0
C407 C 0.84776 0.78818 0.12898 0.0
C408 C 0.96615 0.76446 0.09102 0.0
C409 C 0.9909 0.80674 0.03301 0.0
N410 N 0.88538 0.78184 0.1169 0.0
N411 N 0.95212 0.80382 0.04139 0.0
H412 H 0.78169 0.55934 0.49338 0.0
H413 H 0.78808 0.42693 0.66366 0.0
H414 H 0.71102 0.57349 0.59611 0.0
H415 H 0.80932 0.38739 0.54532 0.0
H416 H 0.78633 0.49116 0.64575 0.0
H417 H 0.81557 0.50669 0.51926 0.0
C418 C 0.77394 0.55191 0.52173 0.0
C419 C 0.74308 0.57027 0.54244 0.0
C420 C 0.79267 0.4685 0.62393 0.0
C421 C 0.78205 0.51089 0.57221 0.0
C422 C 0.79417 0.43187 0.63417 0.0
C423 C 0.7983 0.40183 0.60576 0.0
C424 C 0.79551 0.475 0.58514 0.0
C425 C 0.80558 0.40986 0.56792 0.0
C426 C 0.79324 0.52194 0.53637 0.0
C427 C 0.73418 0.55959 0.57898 0.0
N428 N 0.80318 0.44574 0.5585 0.0
N429 N 0.75341 0.5304 0.59262 0.0
H430 H 0.83334 0.17188 0.14323 0.0
H431 H 0.01561 0.21702 0.27802 0.0
H432 H 0.92249 0.25247 0.1209 0.0
H433 H 0.92561 0.13595 0.29628 0.0
H434 H 0.97272 0.24422 0.23152 0.0
H435 H 0.85617 0.1731 0.20934 0.0
C436 C 0.85713 0.19063 0.15272 0.0
C437 C 0.87644 0.21177 0.12673 0.0
C438 C 0.96187 0.2212 0.24652 0.0
C439 C 0.9039 0.21222 0.20182 0.0
C440 C 0.98622 0.20588 0.27323 0.0
C441 C 0.97412 0.17399 0.29045 0.0
C442 C 0.92542 0.20425 0.23706 0.0
C443 C 0.93604 0.16032 0.28316 0.0
C444 C 0.87031 0.19124 0.19041 0.0
C445 C 0.90697 0.23571 0.14025 0.0
N446 N 0.9133 0.17511 0.25655 0.0
N447 N 0.92052 0.23458 0.17673 0.0
H448 H 0.1765 0.80816 0.1975 0.0
H449 H 0.20323 0.62935 0.31426 0.0
H450 H 0.16359 0.69478 0.14564 0.0
H451 H 0.21606 0.74377 0.3631 0.0
H452 H 0.18028 0.65215 0.25444 0.0
H453 H 0.18221 0.78455 0.26008 0.0
C454 C 0.17464 0.77819 0.19934 0.0
C455 C 0.17026 0.7533 0.16624 0.0
C456 C 0.1877 0.67225 0.27838 0.0
C457 C 0.17711 0.72596 0.23808 0.0
C458 C 0.2006 0.65928 0.31261 0.0
C459 C 0.21181 0.68477 0.34361 0.0
C460 C 0.18608 0.71096 0.27515 0.0
C461 C 0.20831 0.72319 0.33971 0.0
C462 C 0.17784 0.76472 0.23517 0.0
C463 C 0.16722 0.71486 0.17045 0.0
N464 N 0.196 0.73509 0.30602 0.0
N465 N 0.17128 0.70226 0.20576 0.0
H466 H 0.81335 0.69568 0.52862 0.0
H467 H 0.90742 0.88144 0.63331 0.0
H468 H 0.75234 0.8018 0.53945 0.0
H469 H 0.92914 0.7712 0.66954 0.0
H470 H 0.86192 0.85356 0.58468 0.0
H471 H 0.86791 0.72479 0.56599 0.0
C472 C 0.8117 0.72525 0.5383 0.0
C473 C 0.77813 0.74634 0.53121 0.0
C474 C 0.87708 0.83559 0.60311 0.0
C475 C 0.84045 0.77963 0.57355 0.0
C476 C 0.90288 0.85141 0.63103 0.0
C477 C 0.92177 0.82879 0.6562 0.0
C478 C 0.8707 0.79681 0.59976 0.0
C479 C 0.9156 0.78986 0.65081 0.0
C480 C 0.84273 0.74171 0.55973 0.0
C481 C 0.77751 0.78447 0.54462 0.0
N482 N 0.89045 0.77513 0.62329 0.0
N483 N 0.80823 0.79994 0.56523 0.0
H484 H 0.75209 0.3055 0.03972 0.0
H485 H 0.57087 0.27325 0.1721 0.0
H486 H 0.69176 0.19911 0.03552 0.0
H487 H 0.59287 0.38163 0.13144 0.0
H488 H 0.61752 0.24546 0.12498 0.0
H489 H 0.69716 0.33453 0.07695 0.0
C490 C 0.72725 0.28833 0.04639 0.0
C491 C 0.72658 0.24982 0.03461 0.0
C492 C 0.61176 0.27528 0.12616 0.0
C493 C 0.66419 0.28265 0.07737 0.0
C494 C 0.58485 0.29121 0.15289 0.0
C495 C 0.57791 0.33002 0.1561 0.0
C496 C 0.63255 0.29832 0.10291 0.0
C497 C 0.59788 0.35176 0.13077 0.0
C498 C 0.69589 0.30492 0.06742 0.0
C499 C 0.69354 0.22891 0.04391 0.0
N500 N 0.62472 0.3357 0.10562 0.0
N501 N 0.66391 0.2455 0.06515 0.0
H502 H 0.25705 0.24747 0.65838 0.0
H503 H 0.34791 0.1855 0.85259 0.0
H504 H 0.38219 0.23506 0.67247 0.0
H505 H 0.2248 0.18055 0.82271 0.0
H506 H 0.36299 0.20271 0.78765 0.0
H507 H 0.24626 0.22169 0.71905 0.0
C508 C 0.28233 0.23904 0.67437 0.0
C509 C 0.32055 0.24364 0.66073 0.0
C510 C 0.33275 0.19777 0.79546 0.0
C511 C 0.30852 0.21435 0.73086 0.0
C512 C 0.32414 0.18809 0.83242 0.0
C513 C 0.28496 0.18253 0.84332 0.0
C514 C 0.3019 0.20169 0.76944 0.0
C515 C 0.25529 0.18579 0.81607 0.0
C516 C 0.27619 0.22423 0.70905 0.0
C517 C 0.35227 0.23187 0.68222 0.0
N518 N 0.26438 0.19529 0.78061 0.0
N519 N 0.34559 0.21812 0.71672 0.0
H520 H 0.66177 0.79378 0.40104 0.0
H521 H 0.71135 0.74354 0.17864 0.0
H522 H 0.68362 0.68209 0.34799 0.0
H523 H 0.70508 0.85684 0.23214 0.0
H524 H 0.68982 0.72062 0.23878 0.0
H525 H 0.66604 0.81751 0.33752 0.0
C526 C 0.66695 0.77425 0.37604 0.0
C527 C 0.67306 0.73606 0.37982 0.0
C528 C 0.69278 0.75054 0.2373 0.0
C529 C 0.67788 0.76279 0.30749 0.0
C530 C 0.70519 0.76357 0.20301 0.0
C531 C 0.71036 0.80206 0.20053 0.0
C532 C 0.68576 0.77615 0.26947 0.0
C533 C 0.70129 0.8269 0.23277 0.0
C534 C 0.6695 0.78777 0.33987 0.0
C535 C 0.67952 0.7119 0.34651 0.0
N536 N 0.68982 0.8135 0.26607 0.0
N537 N 0.68202 0.7257 0.31187 0.0
H538 H 0.87537 0.26642 0.87949 0.0
H539 H 0.72125 0.30559 0.71677 0.0
H540 H 0.75762 0.22126 0.87153 0.0
H541 H 0.8461 0.30706 0.69427 0.0
H542 H 0.73453 0.28513 0.77963 0.0
H543 H 0.86554 0.29174 0.81693 0.0
C544 C 0.84754 0.26201 0.86473 0.0
C545 C 0.81736 0.24154 0.88051 0.0
C546 C 0.75907 0.28973 0.7609 0.0
C547 C 0.80593 0.27049 0.81 0.0
C548 C 0.75151 0.30107 0.72478 0.0
C549 C 0.78257 0.30706 0.69969 0.0
C550 C 0.79801 0.2847 0.77251 0.0
C551 C 0.82128 0.30246 0.71262 0.0
C552 C 0.84206 0.27623 0.82912 0.0
C553 C 0.78187 0.2365 0.86029 0.0
N554 N 0.82798 0.29141 0.74824 0.0
N555 N 0.77714 0.25097 0.82627 0.0
H556 H 0.26738 0.19329 0.48358 0.0
H557 H 0.04195 0.19248 0.4185 0.0
H558 H 0.18501 0.27825 0.52828 0.0
H559 H 0.13528 0.13192 0.3562 0.0
H560 H 0.09078 0.21883 0.46529 0.0
H561 H 0.21525 0.16355 0.44423 0.0
C562 C 0.23828 0.2056 0.48542 0.0
C563 C 0.23079 0.23864 0.50903 0.0
C564 C 0.10029 0.19954 0.44144 0.0
C565 C 0.17082 0.20466 0.46364 0.0
C566 C 0.07255 0.18465 0.41469 0.0
C567 C 0.08438 0.15954 0.38362 0.0
C568 C 0.13996 0.18906 0.43703 0.0
C569 C 0.12444 0.15029 0.38018 0.0
C570 C 0.2085 0.18863 0.46277 0.0
C571 C 0.19226 0.25299 0.51027 0.0
N572 N 0.15064 0.16494 0.40654 0.0
N573 N 0.16371 0.23603 0.48766 0.0
H574 H 0.3092 0.79734 0.01544 0.0
H575 H 0.4075 0.61127 0.91534 0.0
H576 H 0.253 0.68896 0.01033 0.0
H577 H 0.42601 0.72049 0.87543 0.0
H578 H 0.36253 0.63956 0.9642 0.0
H579 H 0.36429 0.76895 0.97811 0.0
C580 C 0.30877 0.76747 0.00706 0.0
C581 C 0.27637 0.74547 0.0157 0.0
C582 C 0.37685 0.65726 0.94493 0.0
C583 C 0.33921 0.71302 0.97342 0.0
C584 C 0.40234 0.64119 0.91687 0.0
C585 C 0.42011 0.66336 0.8906 0.0
C586 C 0.36956 0.69588 0.94724 0.0
C587 C 0.41324 0.70221 0.89501 0.0
C588 C 0.34006 0.75141 0.98563 0.0
C589 C 0.27723 0.70697 0.00393 0.0
N590 N 0.38831 0.71721 0.92264 0.0
N591 N 0.30815 0.69194 0.98331 0.0
loop_
_geom_bond_atom_site_label_1
_geom_bond_atom_site_label_2
_geom_bond_distance
_geom_bond_site_symmetry_2
_ccdc_geom_bond_type
Sc0 O3 2.025 . S
Sc0 O10 2.105 . S
Sc0 O13 2.105 . S
Sc0 O16 2.105 . S
Sc0 O19 2.105 1_554 S
Sc1 O3 2.025 . S
Sc1 O11 2.105 1_554 S
Sc1 O15 2.105 . S
Sc1 O17 2.105 . S
Sc1 O21 2.105 . S
Sc2 O3 2.025 . S
Sc2 O12 2.105 . S
Sc2 O14 2.105 . S
Sc2 O18 2.105 . S
Sc2 O20 2.105 . S
O3 Sc0 2.025 . S
O3 Sc1 2.025 . S
O3 Sc2 2.025 . S
C4 O10 1.268 . S
C4 O20 1.268 . S
C5 O11 1.268 . S
C5 O19 1.268 . S
C6 O12 1.268 . S
C6 O21 1.268 . S
C7 O13 1.268 . S
C7 O17 1.268 . S
C8 O14 1.268 . S
C8 O16 1.268 . S
C9 O15 1.268 . S
C9 O18 1.268 . S
O10 Sc0 2.105 . S
O10 C4 1.268 . S
O11 Sc1 2.105 1_556 S
O11 C5 1.268 . S
O12 Sc2 2.105 . S
O12 C6 1.268 . S
O13 Sc0 2.105 . S
O13 C7 1.268 . S
O14 Sc2 2.105 . S
O14 C8 1.268 . S
O15 Sc1 2.105 . S
O15 C9 1.268 . S
O16 Sc0 2.105 . S
O16 C8 1.268 . S
O17 Sc1 2.105 . S
O17 C7 1.268 . S
O18 Sc2 2.105 . S
O18 C9 1.268 . S
O19 Sc0 2.105 1_556 S
O19 C5 1.268 . S
O20 Sc2 2.105 . S
O20 C4 1.268 . S
O21 Sc1 2.105 . S
O21 C6 1.268 . S
Sc22 O25 2.025 . S
Sc22 O32 2.105 . S
Sc22 O35 2.105 . S
Sc22 O38 2.105 . S
Sc22 O41 2.105 . S
Sc23 O25 2.025 . S
Sc23 O33 2.105 . S
Sc23 O37 2.105 . S
Sc23 O39 2.105 . S
Sc23 O43 2.105 . S
Sc24 O25 2.025 . S
Sc24 O34 2.105 . S
Sc24 O36 2.105 . S
Sc24 O40 2.105 . S
Sc24 O42 2.105 . S
O25 Sc22 2.025 . S
O25 Sc23 2.025 . S
O25 Sc24 2.025 . S
C26 O32 1.268 . S
C26 O42 1.268 . S
C27 O33 1.268 . S
C27 O41 1.268 . S
C28 O34 1.268 . S
C28 O43 1.268 . S
C29 O35 1.268 . S
C29 O39 1.268 . S
C30 O36 1.268 . S
C30 O38 1.268 . S
C31 O37 1.268 . S
C31 O40 1.268 . S
O32 Sc22 2.105 . S
O32 C26 1.268 . S
O33 Sc23 2.105 . S
O33 C27 1.268 . S
O34 Sc24 2.105 . S
O34 C28 1.268 . S
O35 Sc22 2.105 . S
O35 C29 1.268 . S
O36 Sc24 2.105 . S
O36 C30 1.268 . S
O37 Sc23 2.105 . S
O37 C31 1.268 . S
O38 Sc22 2.105 . S
O38 C30 1.268 . S
O39 Sc23 2.105 . S
O39 C29 1.268 . S
O40 Sc24 2.105 . S
O40 C31 1.268 . S
O41 Sc22 2.105 . S
O41 C27 1.268 . S
O42 Sc24 2.105 . S
O42 C26 1.268 . S
O43 Sc23 2.105 . S
O43 C28 1.268 . S
Sc44 O47 2.025 . S
Sc44 O54 2.105 1_554 S
Sc44 O57 2.105 . S
Sc44 O60 2.105 . S
Sc44 O63 2.105 1_554 S
Sc45 O47 2.025 1_556 S
Sc45 O55 2.105 . S
Sc45 O59 2.105 1_556 S
Sc45 O61 2.105 1_556 S
Sc45 O65 2.105 . S
Sc46 O47 2.025 . S
Sc46 O56 2.105 1_554 S
Sc46 O58 2.105 . S
Sc46 O62 2.105 . S
Sc46 O64 2.105 1_554 S
O47 Sc44 2.025 . S
O47 Sc45 2.025 1_554 S
O47 Sc46 2.025 . S
C48 O54 1.268 . S
C48 O64 1.268 . S
C49 O55 1.268 . S
C49 O63 1.268 . S
C50 O56 1.268 . S
C50 O65 1.268 . S
C51 O57 1.268 . S
C51 O61 1.268 . S
C52 O58 1.268 . S
C52 O60 1.268 . S
C53 O59 1.268 . S
C53 O62 1.268 . S
O54 Sc44 2.105 1_556 S
O54 C48 1.268 . S
O55 Sc45 2.105 . S
O55 C49 1.268 . S
O56 Sc46 2.105 1_556 S
O56 C50 1.268 . S
O57 Sc44 2.105 . S
O57 C51 1.268 . S
O58 Sc46 2.105 . S
O58 C52 1.268 . S
O59 Sc45 2.105 1_554 S
O59 C53 1.268 . S
O60 Sc44 2.105 . S
O60 C52 1.268 . S
O61 Sc45 2.105 1_554 S
O61 C51 1.268 . S
O62 Sc46 2.105 . S
O62 C53 1.268 . S
O63 Sc44 2.105 1_556 S
O63 C49 1.268 . S
O64 Sc46 2.105 1_556 S
O64 C48 1.268 . S
O65 Sc45 2.105 . S
O65 C50 1.268 . S
Sc66 O69 2.025 . S
Sc66 O76 2.105 . S
Sc66 O79 2.105 . S
Sc66 O82 2.105 . S
Sc66 O85 2.105 . S
Sc67 O69 2.025 . S
Sc67 O77 2.105 . S
Sc67 O81 2.105 . S
Sc67 O83 2.105 . S
Sc67 O87 2.105 . S
Sc68 O69 2.025 . S
Sc68 O78 2.105 . S
Sc68 O80 2.105 . S
Sc68 O84 2.105 . S
Sc68 O86 2.105 . S
O69 Sc66 2.025 . S
O69 Sc67 2.025 . S
O69 Sc68 2.025 . S
C70 O76 1.268 . S
C70 O86 1.268 . S
C71 O77 1.268 . S
C71 O85 1.268 . S
C72 O78 1.268 . S
C72 O87 1.268 . S
C73 O79 1.268 . S
C73 O83 1.268 . S
C74 O80 1.268 . S
C74 O82 1.268 . S
C75 O81 1.268 . S
C75 O84 1.268 . S
O76 Sc66 2.105 . S
O76 C70 1.268 . S
O77 Sc67 2.105 . S
O77 C71 1.268 . S
O78 Sc68 2.105 . S
O78 C72 1.268 . S
O79 Sc66 2.105 . S
O79 C73 1.268 . S
O80 Sc68 2.105 . S
O80 C74 1.268 . S
O81 Sc67 2.105 . S
O81 C75 1.268 . S
O82 Sc66 2.105 . S
O82 C74 1.268 . S
O83 Sc67 2.105 . S
O83 C73 1.268 . S
O84 Sc68 2.105 . S
O84 C75 1.268 . S
O85 Sc66 2.105 . S
O85 C71 1.268 . S
O86 Sc68 2.105 . S
O86 C70 1.268 . S
O87 Sc67 2.105 . S
O87 C72 1.268 . S
H88 C91 0.931 . S
H89 C94 0.928 . S
H90 C96 0.930 . S
C91 H88 0.931 . S
C91 C92 1.413 . S
C91 C93 1.360 . S
C92 C91 1.413 . S
C92 C96 1.429 . S
C93 C91 1.360 . S
C93 C94 1.372 . S
C94 H89 0.928 . S
C94 C93 1.372 . S
C94 C95 1.404 . S
C95 C94 1.404 . S
C95 C96 1.391 . S
C96 H90 0.930 . S
C96 C92 1.429 . S
C96 C95 1.391 . S
H97 C100 0.931 . S
H98 C103 0.928 . S
H99 C105 0.930 . S
C100 H97 0.931 . S
C100 C101 1.413 . S
C100 C102 1.360 . S
C101 C100 1.413 . S
C101 C105 1.429 . S
C102 C100 1.360 . S
C102 C103 1.372 . S
C103 H98 0.928 . S
C103 C102 1.372 . S
C103 C104 1.404 . S
C104 C103 1.404 . S
C104 C105 1.391 . S
C105 H99 0.930 . S
C105 C101 1.429 . S
C105 C104 1.391 . S
H106 C109 0.931 . S
H107 C112 0.928 . S
H108 C114 0.930 . S
C109 H106 0.931 . S
C109 C110 1.413 . S
C109 C111 1.360 . S
C110 C109 1.413 . S
C110 C114 1.429 . S
C111 C109 1.360 . S
C111 C112 1.372 . S
C112 H107 0.928 . S
C112 C111 1.372 . S
C112 C113 1.404 . S
C113 C112 1.404 . S
C113 C114 1.391 . S
C114 H108 0.930 . S
C114 C110 1.429 . S
C114 C113 1.391 . S
H115 C118 0.931 . S
H116 C121 0.928 . S
H117 C123 0.930 . S
C118 H115 0.931 . S
C118 C119 1.413 . S
C118 C120 1.360 . S
C119 C118 1.413 . S
C119 C123 1.429 . S
C120 C118 1.360 . S
C120 C121 1.372 . S
C121 H116 0.928 . S
C121 C120 1.372 . S
C121 C122 1.404 . S
C122 C121 1.404 . S
C122 C123 1.391 . S
C123 H117 0.930 . S
C123 C119 1.429 . S
C123 C122 1.391 . S
H124 C127 0.931 . S
H125 C130 0.928 . S
H126 C132 0.930 . S
C127 H124 0.931 . S
C127 C128 1.413 . S
C127 C129 1.360 . S
C128 C127 1.413 . S
C128 C132 1.429 . S
C129 C127 1.360 . S
C129 C130 1.372 . S
C130 H125 0.928 . S
C130 C129 1.372 . S
C130 C131 1.404 . S
C131 C130 1.404 . S
C131 C132 1.391 . S
C132 H126 0.930 . S
C132 C128 1.429 . S
C132 C131 1.391 . S
H133 C136 0.931 . S
H134 C139 0.928 . S
H135 C141 0.930 . S
C136 H133 0.931 . S
C136 C137 1.413 . S
C136 C138 1.360 . S
C137 C136 1.413 . S
C137 C141 1.429 . S
C138 C136 1.360 . S
C138 C139 1.372 . S
C139 H134 0.928 . S
C139 C138 1.372 . S
C139 C140 1.404 . S
C140 C139 1.404 . S
C140 C141 1.391 . S
C141 H135 0.930 . S
C141 C137 1.429 . S
C141 C140 1.391 . S
H142 C145 0.931 . S
H143 C148 0.928 . S
H144 C150 0.930 . S
C145 H142 0.931 . S
C145 C146 1.413 . S
C145 C147 1.360 . S
C146 C145 1.413 . S
C146 C150 1.429 . S
C147 C145 1.360 . S
C147 C148 1.372 . S
C148 H143 0.928 . S
C148 C147 1.372 . S
C148 C149 1.404 . S
C149 C148 1.404 . S
C149 C150 1.391 . S
C150 H144 0.930 . S
C150 C146 1.429 . S
C150 C149 1.391 . S
H151 C154 0.931 . S
H152 C157 0.928 . S
H153 C159 0.930 . S
C154 H151 0.931 . S
C154 C155 1.413 . S
C154 C156 1.360 . S
C155 C154 1.413 . S
C155 C159 1.429 . S
C156 C154 1.360 . S
C156 C157 1.372 . S
C157 H152 0.928 . S
C157 C156 1.372 . S
C157 C158 1.404 . S
C158 C157 1.404 . S
C158 C159 1.391 . S
C159 H153 0.930 . S
C159 C155 1.429 . S
C159 C158 1.391 . S
H160 C166 0.930 . S
H161 C170 0.930 . S
H162 C175 0.929 . S
H163 C173 0.929 . S
H164 C168 0.929 . S
H165 C174 0.929 . S
C166 H160 0.930 . S
C166 C167 1.367 . S
C166 C174 1.378 . S
C167 C166 1.367 . S
C167 C175 1.433 . S
C168 H164 0.929 . S
C168 C170 1.378 . S
C168 C172 1.343 1_545 S
C169 C172 1.476 . S
C169 C174 1.350 . S
C169 N177 1.427 . S
C170 H161 0.930 . S
C170 C168 1.378 . S
C170 C171 1.367 . S
C171 C170 1.367 . S
C171 C173 1.433 . S
C172 C168 1.343 1_565 S
C172 C169 1.476 . S
C172 N176 1.421 1_565 S
C173 H163 0.929 . S
C173 C171 1.433 . S
C173 N176 1.384 . S
C174 H165 0.929 . S
C174 C166 1.378 . S
C174 C169 1.350 . S
C175 H162 0.929 . S
C175 C167 1.433 . S
C175 N177 1.384 . S
N176 C172 1.421 1_545 S
N176 C173 1.384 . S
N177 C169 1.427 . S
N177 C175 1.384 . S
H178 C184 0.930 . S
H179 C188 0.930 . S
H180 C193 0.929 . S
H181 C191 0.929 . S
H182 C186 0.929 . S
H183 C192 0.929 . S
C184 H178 0.930 . S
C184 C185 1.367 . S
C184 C192 1.378 . S
C185 C184 1.367 . S
C185 C193 1.433 . S
C186 H182 0.929 . S
C186 C188 1.378 . S
C186 C190 1.350 . S
C187 C190 1.463 . S
C187 C192 1.350 . S
C187 N195 1.427 . S
C188 H179 0.930 . S
C188 C186 1.378 . S
C188 C189 1.367 . S
C189 C188 1.367 . S
C189 C191 1.433 . S
C190 C186 1.350 . S
C190 C187 1.463 . S
C190 N194 1.427 . S
C191 H181 0.929 . S
C191 C189 1.433 . S
C191 N194 1.384 . S
C192 H183 0.929 . S
C192 C184 1.378 . S
C192 C187 1.350 . S
C193 H180 0.929 . S
C193 C185 1.433 . S
C193 N195 1.384 . S
N194 C190 1.427 . S
N194 C191 1.384 . S
N195 C187 1.427 . S
N195 C193 1.384 . S
H196 C202 0.930 . S
H197 C206 0.930 . S
H198 C211 0.929 . S
H199 C209 0.929 . S
H200 C204 0.929 . S
H201 C210 0.929 . S
C202 H196 0.930 . S
C202 C203 1.367 . S
C202 C210 1.378 . S
C203 C202 1.367 . S
C203 C211 1.433 . S
C204 H200 0.929 . S
C204 C206 1.378 . S
C204 C208 1.350 . S
C205 C208 1.463 1_545 S
C205 C210 1.350 . S
C205 N213 1.427 . S
C206 H197 0.930 . S
C206 C204 1.378 . S
C206 C207 1.367 . S
C207 C206 1.367 . S
C207 C209 1.433 . S
C208 C204 1.350 . S
C208 C205 1.463 1_565 S
C208 N212 1.427 . S
C209 H199 0.929 . S
C209 C207 1.433 . S
C209 N212 1.384 . S
C210 H201 0.929 . S
C210 C202 1.378 . S
C210 C205 1.350 . S
C211 H198 0.929 . S
C211 C203 1.433 . S
C211 N213 1.384 . S
N212 C208 1.427 . S
N212 C209 1.384 . S
N213 C205 1.427 . S
N213 C211 1.384 . S
H214 C220 0.930 . S
H215 C224 0.930 . S
H216 C229 0.929 . S
H217 C227 0.929 . S
H218 C222 0.929 . S
H219 C228 0.929 . S
C220 H214 0.930 . S
C220 C221 1.367 . S
C220 C228 1.378 . S
C221 C220 1.367 . S
C221 C229 1.433 . S
C222 H218 0.929 . S
C222 C224 1.378 . S
C222 C226 1.350 . S
C223 C226 1.463 . S
C223 C228 1.350 . S
C223 N231 1.427 . S
C224 H215 0.930 . S
C224 C222 1.378 . S
C224 C225 1.367 . S
C225 C224 1.367 . S
C225 C227 1.433 . S
C226 C222 1.350 . S
C226 C223 1.463 . S
C226 N230 1.427 . S
C227 H217 0.929 . S
C227 C225 1.433 . S
C227 N230 1.384 . S
C228 H219 0.929 . S
C228 C220 1.378 . S
C228 C223 1.350 . S
C229 H216 0.929 . S
C229 C221 1.433 . S
C229 N231 1.384 . S
N230 C226 1.427 . S
N230 C227 1.384 . S
N231 C223 1.427 . S
N231 C229 1.384 . S
H232 C238 0.930 . S
H233 C242 0.930 . S
H234 C247 0.929 . S
H235 C245 0.929 . S
H236 C240 0.929 . S
H237 C246 0.929 . S
C238 H232 0.930 . S
C238 C239 1.367 . S
C238 C246 1.378 . S
C239 C238 1.367 . S
C239 C247 1.433 . S
C240 H236 0.929 . S
C240 C242 1.378 . S
C240 C244 1.350 . S
C241 C244 1.463 . S
C241 C246 1.350 . S
C241 N249 1.427 . S
C242 H233 0.930 . S
C242 C240 1.378 . S
C242 C243 1.367 . S
C243 C242 1.367 . S
C243 C245 1.433 . S
C244 C240 1.350 . S
C244 C241 1.463 . S
C244 N248 1.427 . S
C245 H235 0.929 . S
C245 C243 1.433 . S
C245 N248 1.384 . S
C246 H237 0.929 . S
C246 C238 1.378 . S
C246 C241 1.350 . S
C247 H234 0.929 . S
C247 C239 1.433 . S
C247 N249 1.384 . S
N248 C244 1.427 . S
N248 C245 1.384 . S
N249 C241 1.427 . S
N249 C247 1.384 . S
H250 C256 0.930 . S
H251 C260 0.930 . S
H252 C265 0.929 . S
H253 C263 0.929 . S
H254 C258 0.929 . S
H255 C264 0.929 . S
C256 H250 0.930 . S
C256 C257 1.367 . S
C256 C264 1.378 1_655 S
C257 C256 1.367 . S
C257 C265 1.433 . S
C258 H254 0.929 . S
C258 C260 1.378 . S
C258 C262 1.350 . S
C259 C262 1.463 . S
C259 C264 1.350 . S
C259 N267 1.427 . S
C260 H251 0.930 . S
C260 C258 1.378 . S
C260 C261 1.367 . S
C261 C260 1.367 . S
C261 C263 1.433 . S
C262 C258 1.350 . S
C262 C259 1.463 . S
C262 N266 1.427 . S
C263 H253 0.929 . S
C263 C261 1.433 . S
C263 N266 1.384 . S
C264 H255 0.929 . S
C264 C256 1.378 1_455 S
C264 C259 1.350 . S
C265 H252 0.929 . S
C265 C257 1.433 . S
C265 N267 1.384 1_655 S
N266 C262 1.427 . S
N266 C263 1.384 . S
N267 C259 1.427 . S
N267 C265 1.384 1_455 S
H268 C274 0.930 . S
H269 C278 0.930 . S
H270 C283 0.929 . S
H271 C281 0.929 . S
H272 C276 0.929 . S
H273 C282 0.929 . S
C274 H268 0.930 . S
C274 C275 1.367 . S
C274 C282 1.378 . S
C275 C274 1.367 . S
C275 C283 1.433 . S
C276 H272 0.929 . S
C276 C278 1.378 . S
C276 C280 1.350 . S
C277 C280 1.463 . S
C277 C282 1.350 . S
C277 N285 1.427 . S
C278 H269 0.930 . S
C278 C276 1.378 . S
C278 C279 1.367 . S
C279 C278 1.367 . S
C279 C281 1.433 . S
C280 C276 1.350 . S
C280 C277 1.463 . S
C280 N284 1.427 . S
C281 H271 0.929 . S
C281 C279 1.433 . S
C281 N284 1.384 . S
C282 H273 0.929 . S
C282 C274 1.378 . S
C282 C277 1.350 . S
C283 H270 0.929 . S
C283 C275 1.433 . S
C283 N285 1.384 . S
N284 C280 1.427 . S
N284 C281 1.384 . S
N285 C277 1.427 . S
N285 C283 1.384 . S
H286 C292 0.930 . S
H287 C296 0.930 . S
H288 C301 0.929 . S
H289 C299 0.929 . S
H290 C294 0.929 . S
H291 C300 0.929 . S
C292 H286 0.930 . S
C292 C293 1.367 . S
C292 C300 1.378 . S
C293 C292 1.367 . S
C293 C301 1.433 . S
C294 H290 0.929 . S
C294 C296 1.378 . S
C294 C298 1.350 . S
C295 C298 1.463 . S
C295 C300 1.350 . S
C295 N303 1.427 . S
C296 H287 0.930 . S
C296 C294 1.378 . S
C296 C297 1.367 1_455 S
C297 C296 1.367 1_655 S
C297 C299 1.433 . S
C298 C294 1.350 . S
C298 C295 1.463 . S
C298 N302 1.427 . S
C299 H289 0.929 . S
C299 C297 1.433 . S
C299 N302 1.384 1_655 S
C300 H291 0.929 . S
C300 C292 1.378 . S
C300 C295 1.350 . S
C301 H288 0.929 . S
C301 C293 1.433 . S
C301 N303 1.384 . S
N302 C298 1.427 . S
N302 C299 1.384 1_455 S
N303 C295 1.427 . S
N303 C301 1.384 . S
H304 C310 0.930 . S
H305 C314 0.930 . S
H306 C319 0.929 . S
H307 C317 0.929 . S
H308 C312 0.929 1_545 S
H309 C318 0.929 . S
C310 H304 0.930 . S
C310 C311 1.367 . S
C310 C318 1.378 . S
C311 C310 1.367 . S
C311 C319 1.433 . S
C312 H308 0.929 1_565 S
C312 C314 1.378 . S
C312 C316 1.344 1_565 S
C313 C316 1.483 . S
C313 C318 1.350 . S
C313 N321 1.427 . S
C314 H305 0.930 . S
C314 C312 1.378 . S
C314 C315 1.367 . S
C315 C314 1.367 . S
C315 C317 1.433 . S
C316 C312 1.344 1_545 S
C316 C313 1.483 . S
C316 N320 1.414 1_545 S
C317 H307 0.929 . S
C317 C315 1.433 . S
C317 N320 1.384 . S
C318 H309 0.929 . S
C318 C310 1.378 . S
C318 C313 1.350 . S
C319 H306 0.929 . S
C319 C311 1.433 . S
C319 N321 1.384 . S
N320 C316 1.414 1_565 S
N320 C317 1.384 . S
N321 C313 1.427 . S
N321 C319 1.384 . S
H322 C328 0.930 . S
H323 C332 0.930 . S
H324 C337 0.929 . S
H325 C335 0.929 . S
H326 C330 0.929 . S
H327 C336 0.929 . S
C328 H322 0.930 . S
C328 C329 1.367 . S
C328 C336 1.378 . S
C329 C328 1.367 . S
C329 C337 1.433 . S
C330 H326 0.929 . S
C330 C332 1.378 . S
C330 C334 1.350 . S
C331 C334 1.463 . S
C331 C336 1.350 . S
C331 N339 1.427 . S
C332 H323 0.930 . S
C332 C330 1.378 . S
C332 C333 1.367 . S
C333 C332 1.367 . S
C333 C335 1.433 . S
C334 C330 1.350 . S
C334 C331 1.463 . S
C334 N338 1.427 . S
C335 H325 0.929 . S
C335 C333 1.433 . S
C335 N338 1.384 . S
C336 H327 0.929 . S
C336 C328 1.378 . S
C336 C331 1.350 . S
C337 H324 0.929 . S
C337 C329 1.433 . S
C337 N339 1.384 . S
N338 C334 1.427 . S
N338 C335 1.384 . S
N339 C331 1.427 . S
N339 C337 1.384 . S
H340 C346 0.930 . S
H341 C350 0.930 . S
H342 C355 0.929 . S
H343 C353 0.929 . S
H344 C348 0.929 . S
H345 C354 0.922 1_544 S
C346 H340 0.930 . S
C346 C347 1.367 1_554 S
C346 C354 1.373 1_554 S
C347 C346 1.367 1_556 S
C347 C355 1.433 . S
C348 H344 0.929 . S
C348 C350 1.378 . S
C348 C352 1.350 . S
C349 C352 1.463 1_565 S
C349 C354 1.361 . S
C349 N357 1.427 . S
C350 H341 0.930 . S
C350 C348 1.378 . S
C350 C351 1.367 . S
C351 C350 1.367 . S
C351 C353 1.433 . S
C352 C348 1.350 . S
C352 C349 1.463 1_545 S
C352 N356 1.427 . S
C353 H343 0.929 . S
C353 C351 1.433 . S
C353 N356 1.384 . S
C354 H345 0.922 1_566 S
C354 C346 1.373 1_556 S
C354 C349 1.361 . S
C355 H342 0.929 . S
C355 C347 1.433 . S
C355 N357 1.384 . S
N356 C352 1.427 . S
N356 C353 1.384 . S
N357 C349 1.427 . S
N357 C355 1.384 . S
H358 C364 0.930 . S
H359 C368 0.930 . S
H360 C373 0.929 . S
H361 C371 0.929 . S
H362 C366 0.929 . S
H363 C372 0.929 . S
C364 H358 0.930 . S
C364 C365 1.367 . S
C364 C372 1.378 . S
C365 C364 1.367 . S
C365 C373 1.433 . S
C366 H362 0.929 . S
C366 C368 1.378 . S
C366 C370 1.350 . S
C367 C370 1.463 . S
C367 C372 1.350 . S
C367 N375 1.427 . S
C368 H359 0.930 . S
C368 C366 1.378 . S
C368 C369 1.367 . S
C369 C368 1.367 . S
C369 C371 1.433 . S
C370 C366 1.350 . S
C370 C367 1.463 . S
C370 N374 1.427 . S
C371 H361 0.929 . S
C371 C369 1.433 . S
C371 N374 1.384 . S
C372 H363 0.929 . S
C372 C364 1.378 . S
C372 C367 1.350 . S
C373 H360 0.929 . S
C373 C365 1.433 . S
C373 N375 1.384 . S
N374 C370 1.427 . S
N374 C371 1.384 . S
N375 C367 1.427 . S
N375 C373 1.384 . S
H376 C382 0.930 . S
H377 C386 0.930 . S
H378 C391 0.929 . S
H379 C389 0.929 . S
H380 C384 0.929 . S
H381 C390 0.929 . S
C382 H376 0.930 . S
C382 C383 1.367 . S
C382 C390 1.378 . S
C383 C382 1.367 . S
C383 C391 1.433 . S
C384 H380 0.929 . S
C384 C386 1.378 . S
C384 C388 1.350 . S
C385 C388 1.463 . S
C385 C390 1.350 . S
C385 N393 1.427 . S
C386 H377 0.930 . S
C386 C384 1.378 . S
C386 C387 1.367 . S
C387 C386 1.367 . S
C387 C389 1.433 . S
C388 C384 1.350 . S
C388 C385 1.463 . S
C388 N392 1.427 . S
C389 H379 0.929 . S
C389 C387 1.433 . S
C389 N392 1.384 . S
C390 H381 0.929 . S
C390 C382 1.378 . S
C390 C385 1.350 . S
C391 H378 0.929 . S
C391 C383 1.433 . S
C391 N393 1.384 . S
N392 C388 1.427 . S
N392 C389 1.384 . S
N393 C385 1.427 . S
N393 C391 1.384 . S
H394 C400 0.930 . S
H395 C404 0.930 . S
H396 C409 0.939 . S
H397 C407 0.929 . S
H398 C402 0.929 . S
H399 C408 0.929 . S
C400 H394 0.930 . S
C400 C401 1.367 . S
C400 C408 1.378 1_455 S
C401 C400 1.367 . S
C401 C409 1.451 . S
C402 H398 0.929 . S
C402 C404 1.378 . S
C402 C406 1.350 . S
C403 C406 1.463 . S
C403 C408 1.350 . S
C403 N411 1.427 . S
C404 H395 0.930 . S
C404 C402 1.378 . S
C404 C405 1.367 . S
C405 C404 1.367 . S
C405 C407 1.433 . S
C406 C402 1.350 . S
C406 C403 1.463 . S
C406 N410 1.427 . S
C407 H397 0.929 . S
C407 C405 1.433 . S
C407 N410 1.384 . S
C408 H399 0.929 . S
C408 C400 1.378 1_655 S
C408 C403 1.350 . S
C409 H396 0.939 . S
C409 C401 1.451 . S
C409 N411 1.356 1_455 S
N410 C406 1.427 . S
N410 C407 1.384 . S
N411 C403 1.427 . S
N411 C409 1.356 1_655 S
H412 C418 0.930 . S
H413 C422 0.930 . S
H414 C427 0.929 . S
H415 C425 0.929 . S
H416 C420 0.929 . S
H417 C426 0.929 . S
C418 H412 0.930 . S
C418 C419 1.367 . S
C418 C426 1.378 . S
C419 C418 1.367 . S
C419 C427 1.433 . S
C420 H416 0.929 . S
C420 C422 1.378 . S
C420 C424 1.350 . S
C421 C424 1.463 . S
C421 C426 1.350 . S
C421 N429 1.427 . S
C422 H413 0.930 . S
C422 C420 1.378 . S
C422 C423 1.367 . S
C423 C422 1.367 . S
C423 C425 1.433 . S
C424 C420 1.350 . S
C424 C421 1.463 . S
C424 N428 1.427 . S
C425 H415 0.929 . S
C425 C423 1.433 . S
C425 N428 1.384 . S
C426 H417 0.929 . S
C426 C418 1.378 . S
C426 C421 1.350 . S
C427 H414 0.929 . S
C427 C419 1.433 . S
C427 N429 1.384 . S
N428 C424 1.427 . S
N428 C425 1.384 . S
N429 C421 1.427 . S
N429 C427 1.384 . S
H430 C436 0.930 . S
H431 C440 0.930 . S
H432 C445 0.929 . S
H433 C443 0.929 . S
H434 C438 0.929 . S
H435 C444 0.929 . S
C436 H430 0.930 . S
C436 C437 1.367 . S
C436 C444 1.378 . S
C437 C436 1.367 . S
C437 C445 1.433 . S
C438 H434 0.929 . S
C438 C440 1.378 1_655 S
C438 C442 1.350 . S
C439 C442 1.463 . S
C439 C444 1.350 . S
C439 N447 1.427 . S
C440 H431 0.930 . S
C440 C438 1.378 1_455 S
C440 C441 1.367 . S
C441 C440 1.367 . S
C441 C443 1.433 1_455 S
C442 C438 1.350 . S
C442 C439 1.463 . S
C442 N446 1.427 . S
C443 H433 0.929 . S
C443 C441 1.433 1_655 S
C443 N446 1.384 . S
C444 H435 0.929 . S
C444 C436 1.378 . S
C444 C439 1.350 . S
C445 H432 0.929 . S
C445 C437 1.433 . S
C445 N447 1.384 . S
N446 C442 1.427 . S
N446 C443 1.384 . S
N447 C439 1.427 . S
N447 C445 1.384 . S
H448 C454 0.930 . S
H449 C458 0.930 . S
H450 C463 0.929 . S
H451 C461 0.929 . S
H452 C456 0.929 . S
H453 C462 0.929 . S
C454 H448 0.930 . S
C454 C455 1.367 . S
C454 C462 1.378 . S
C455 C454 1.367 . S
C455 C463 1.433 . S
C456 H452 0.929 . S
C456 C458 1.378 . S
C456 C460 1.350 . S
C457 C460 1.463 . S
C457 C462 1.350 . S
C457 N465 1.427 . S
C458 H449 0.930 . S
C458 C456 1.378 . S
C458 C459 1.367 . S
C459 C458 1.367 . S
C459 C461 1.433 . S
C460 C456 1.350 . S
C460 C457 1.463 . S
C460 N464 1.427 . S
C461 H451 0.929 . S
C461 C459 1.433 . S
C461 N464 1.384 . S
C462 H453 0.929 . S
C462 C454 1.378 . S
C462 C457 1.350 . S
C463 H450 0.929 . S
C463 C455 1.433 . S
C463 N465 1.384 . S
N464 C460 1.427 . S
N464 C461 1.384 . S
N465 C457 1.427 . S
N465 C463 1.384 . S
H466 C472 0.930 . S
H467 C476 0.930 . S
H468 C481 0.929 . S
H469 C479 0.929 . S
H470 C474 0.929 . S
H471 C480 0.929 . S
C472 H466 0.930 . S
C472 C473 1.367 . S
C472 C480 1.378 . S
C473 C472 1.367 . S
C473 C481 1.433 . S
C474 H470 0.929 . S
C474 C476 1.378 . S
C474 C478 1.350 . S
C475 C478 1.463 . S
C475 C480 1.350 . S
C475 N483 1.427 . S
C476 H467 0.930 . S
C476 C474 1.378 . S
C476 C477 1.367 . S
C477 C476 1.367 . S
C477 C479 1.433 . S
C478 C474 1.350 . S
C478 C475 1.463 . S
C478 N482 1.427 . S
C479 H469 0.929 . S
C479 C477 1.433 . S
C479 N482 1.384 . S
C480 H471 0.929 . S
C480 C472 1.378 . S
C480 C475 1.350 . S
C481 H468 0.929 . S
C481 C473 1.433 . S
C481 N483 1.384 . S
N482 C478 1.427 . S
N482 C479 1.384 . S
N483 C475 1.427 . S
N483 C481 1.384 . S
H484 C490 0.930 . S
H485 C494 0.930 . S
H486 C499 0.929 . S
H487 C497 0.929 . S
H488 C492 0.929 . S
H489 C498 0.929 . S
C490 H484 0.930 . S
C490 C491 1.367 . S
C490 C498 1.378 . S
C491 C490 1.367 . S
C491 C499 1.433 . S
C492 H488 0.929 . S
C492 C494 1.378 . S
C492 C496 1.350 . S
C493 C496 1.463 . S
C493 C498 1.350 . S
C493 N501 1.427 . S
C494 H485 0.930 . S
C494 C492 1.378 . S
C494 C495 1.367 . S
C495 C494 1.367 . S
C495 C497 1.433 . S
C496 C492 1.350 . S
C496 C493 1.463 . S
C496 N500 1.427 . S
C497 H487 0.929 . S
C497 C495 1.433 . S
C497 N500 1.384 . S
C498 H489 0.929 . S
C498 C490 1.378 . S
C498 C493 1.350 . S
C499 H486 0.929 . S
C499 C491 1.433 . S
C499 N501 1.384 . S
N500 C496 1.427 . S
N500 C497 1.384 . S
N501 C493 1.427 . S
N501 C499 1.384 . S
H502 C508 0.930 . S
H503 C512 0.930 . S
H504 C517 0.929 . S
H505 C515 0.929 . S
H506 C510 0.929 . S
H507 C516 0.929 . S
C508 H502 0.930 . S
C508 C509 1.367 . S
C508 C516 1.378 . S
C509 C508 1.367 . S
C509 C517 1.433 . S
C510 H506 0.929 . S
C510 C512 1.378 . S
C510 C514 1.350 . S
C511 C514 1.463 . S
C511 C516 1.350 . S
C511 N519 1.427 . S
C512 H503 0.930 . S
C512 C510 1.378 . S
C512 C513 1.367 . S
C513 C512 1.367 . S
C513 C515 1.433 . S
C514 C510 1.350 . S
C514 C511 1.463 . S
C514 N518 1.427 . S
C515 H505 0.929 . S
C515 C513 1.433 . S
C515 N518 1.384 . S
C516 H507 0.929 . S
C516 C508 1.378 . S
C516 C511 1.350 . S
C517 H504 0.929 . S
C517 C509 1.433 . S
C517 N519 1.384 . S
N518 C514 1.427 . S
N518 C515 1.384 . S
N519 C511 1.427 . S
N519 C517 1.384 . S
H520 C526 0.930 . S
H521 C530 0.930 . S
H522 C535 0.929 . S
H523 C533 0.929 . S
H524 C528 0.929 . S
H525 C534 0.929 . S
C526 H520 0.930 . S
C526 C527 1.367 . S
C526 C534 1.378 . S
C527 C526 1.367 . S
C527 C535 1.433 . S
C528 H524 0.929 . S
C528 C530 1.378 . S
C528 C532 1.350 . S
C529 C532 1.463 . S
C529 C534 1.350 . S
C529 N537 1.427 . S
C530 H521 0.930 . S
C530 C528 1.378 . S
C530 C531 1.367 . S
C531 C530 1.367 . S
C531 C533 1.433 . S
C532 C528 1.350 . S
C532 C529 1.463 . S
C532 N536 1.427 . S
C533 H523 0.929 . S
C533 C531 1.433 . S
C533 N536 1.384 . S
C534 H525 0.929 . S
C534 C526 1.378 . S
C534 C529 1.350 . S
C535 H522 0.929 . S
C535 C527 1.433 . S
C535 N537 1.384 . S
N536 C532 1.427 . S
N536 C533 1.384 . S
N537 C529 1.427 . S
N537 C535 1.384 . S
H538 C544 0.930 . S
H539 C548 0.930 . S
H540 C553 0.929 . S
H541 C551 0.929 . S
H542 C546 0.929 . S
H543 C552 0.929 . S
C544 H538 0.930 . S
C544 C545 1.367 . S
C544 C552 1.378 . S
C545 C544 1.367 . S
C545 C553 1.433 . S
C546 H542 0.929 . S
C546 C548 1.378 . S
C546 C550 1.350 . S
C547 C550 1.463 . S
C547 C552 1.350 . S
C547 N555 1.427 . S
C548 H539 0.930 . S
C548 C546 1.378 . S
C548 C549 1.367 . S
C549 C548 1.367 . S
C549 C551 1.433 . S
C550 C546 1.350 . S
C550 C547 1.463 . S
C550 N554 1.427 . S
C551 H541 0.929 . S
C551 C549 1.433 . S
C551 N554 1.384 . S
C552 H543 0.929 . S
C552 C544 1.378 . S
C552 C547 1.350 . S
C553 H540 0.929 . S
C553 C545 1.433 . S
C553 N555 1.384 . S
N554 C550 1.427 . S
N554 C551 1.384 . S
N555 C547 1.427 . S
N555 C553 1.384 . S
H556 C562 0.930 . S
H557 C566 0.930 . S
H558 C571 0.929 . S
H559 C569 0.929 . S
H560 C564 0.929 . S
H561 C570 0.929 . S
C562 H556 0.930 . S
C562 C563 1.367 . S
C562 C570 1.378 . S
C563 C562 1.367 . S
C563 C571 1.433 . S
C564 H560 0.929 . S
C564 C566 1.378 . S
C564 C568 1.350 . S
C565 C568 1.463 . S
C565 C570 1.350 . S
C565 N573 1.427 . S
C566 H557 0.930 . S
C566 C564 1.378 . S
C566 C567 1.367 . S
C567 C566 1.367 . S
C567 C569 1.433 . S
C568 C564 1.350 . S
C568 C565 1.463 . S
C568 N572 1.427 . S
C569 H559 0.929 . S
C569 C567 1.433 . S
C569 N572 1.384 . S
C570 H561 0.929 . S
C570 C562 1.378 . S
C570 C565 1.350 . S
C571 H558 0.929 . S
C571 C563 1.433 . S
C571 N573 1.384 . S
N572 C568 1.427 . S
N572 C569 1.384 . S
N573 C565 1.427 . S
N573 C571 1.384 . S
H574 C580 0.930 . S
H575 C584 0.930 . S
H576 C589 0.929 . S
H577 C587 0.929 . S
H578 C582 0.929 . S
H579 C588 0.929 . S
C580 H574 0.930 . S
C580 C581 1.367 . S
C580 C588 1.378 . S
C581 C580 1.367 . S
C581 C589 1.433 . S
C582 H578 0.929 . S
C582 C584 1.378 . S
C582 C586 1.350 . S
C583 C586 1.463 . S
C583 C588 1.350 . S
C583 N591 1.427 . S
C584 H575 0.930 . S
C584 C582 1.378 . S
C584 C585 1.367 . S
C585 C584 1.367 . S
C585 C587 1.433 . S
C586 C582 1.350 . S
C586 C583 1.463 . S
C586 N590 1.427 . S
C587 H577 0.929 . S
C587 C585 1.433 . S
C587 N590 1.384 . S
C588 H579 0.929 . S
C588 C580 1.378 . S
C588 C583 1.350 . S
C589 H576 0.929 . S
C589 C581 1.433 . S
C589 N591 1.384 . S
N590 C586 1.427 . S
N590 C587 1.384 . S
N591 C583 1.427 . S
N591 C589 1.384 . S
C167 C8 1.379 . S
C171 C93 1.383 . S
C185 C31 1.233 . S
C189 C101 1.228 . S
C203 C53 1.397 . S
C207 C110 1.378 . S
C225 C120 1.352 . S
C221 C74 1.335 . S
C243 C129 1.376 . S
C239 C26 1.383 . S
C257 C48 1.335 . S
C261 C138 1.364 . S
C275 C71 1.394 . S
C279 C146 1.371 . S
C293 C5 1.238 . S
C297 C156 1.232 . S
C311 C50 1.375 . S
C315 C155 1.380 . S
C333 C128 1.232 . S
C329 C70 1.230 . S
C351 C137 1.373 . S
C347 C4 1.385 1_556 S
C365 C28 1.326 . S
C369 C147 1.364 . S
C387 C102 1.368 . S
C383 C73 1.383 . S
C401 C7 1.342 . S
C405 C111 1.362 . S
C423 C119 1.366 . S
C419 C30 1.387 . S
C441 C92 1.230 . S
C437 C52 1.230 . S
C459 C149 1.364 . S
C455 C9 1.393 . S
C477 C158 1.298 . S
C473 C29 1.305 . S
C491 C51 1.297 . S
C495 C131 1.295 . S
C513 C140 1.371 . S
C509 C75 1.393 . S
C531 C113 1.373 . S
C527 C27 1.397 . S
C545 C49 1.395 . S
C549 C122 1.356 . S
C567 C95 1.301 . S
C563 C72 1.306 . S
C585 C104 1.292 . S
C581 C6 1.305 1_556 S
