# Generated by pormake.
# Topology pyr, (3,6)-cn, num edge types: 1
# Building blocks:
#     Node 0, Type 0, BuildingBlock: MIDCAF_clean_linker_0, # of connection points: 3
#     Node 1, Type 0, BuildingBlock: MIDCAF_clean_linker_0, # of connection points: 3
#     Node 2, Type 0, BuildingBlock: MIDCAF_clean_linker_0, # of connection points: 3
#     Node 3, Type 0, BuildingBlock: MIDCAF_clean_linker_0, # of connection points: 3
#     Node 4, Type 0, BuildingBlock: MIDCAF_clean_linker_0, # of connection points: 3
#     Node 5, Type 0, BuildingBlock: MIDCAF_clean_linker_0, # of connection points: 3
#     Node 6, Type 0, BuildingBlock: MIDCAF_clean_linker_0, # of connection points: 3
#     Node 7, Type 0, BuildingBlock: MIDCAF_clean_linker_0, # of connection points: 3
#     Node 8, Type 1, BuildingBlock: FUNLAD_clean_sbu_0, # of connection points: 6
#     Node 9, Type 1, BuildingBlock: FUNLAD_clean_sbu_0, # of connection points: 6
#     Node 10, Type 1, BuildingBlock: FUNLAD_clean_sbu_0, # of connection points: 6
#     Node 11, Type 1, BuildingBlock: FUNLAD_clean_sbu_0, # of connection points: 6
#     Edge 12, Type (0, 1), BuildingBlock: XUDNAN_clean_linker_2, # of connection points: 2
#     Edge 13, Type (0, 1), BuildingBlock: XUDNAN_clean_linker_2, # of connection points: 2
#     Edge 14, Type (0, 1), BuildingBlock: XUDNAN_clean_linker_2, # of connection points: 2
#     Edge 15, Type (0, 1), BuildingBlock: XUDNAN_clean_linker_2, # of connection points: 2
#     Edge 16, Type (0, 1), BuildingBlock: XUDNAN_clean_linker_2, # of connection points: 2
#     Edge 17, Type (0, 1), BuildingBlock: XUDNAN_clean_linker_2, # of connection points: 2
#     Edge 18, Type (0, 1), BuildingBlock: XUDNAN_clean_linker_2, # of connection points: 2
#     Edge 19, Type (0, 1), BuildingBlock: XUDNAN_clean_linker_2, # of connection points: 2
#     Edge 20, Type (0, 1), BuildingBlock: XUDNAN_clean_linker_2, # of connection points: 2
#     Edge 21, Type (0, 1), BuildingBlock: XUDNAN_clean_linker_2, # of connection points: 2
#     Edge 22, Type (0, 1), BuildingBlock: XUDNAN_clean_linker_2, # of connection points: 2
#     Edge 23, Type (0, 1), BuildingBlock: XUDNAN_clean_linker_2, # of connection points: 2
#     Edge 24, Type (0, 1), BuildingBlock: XUDNAN_clean_linker_2, # of connection points: 2
#     Edge 25, Type (0, 1), BuildingBlock: XUDNAN_clean_linker_2, # of connection points: 2
#     Edge 26, Type (0, 1), BuildingBlock: XUDNAN_clean_linker_2, # of connection points: 2
#     Edge 27, Type (0, 1), BuildingBlock: XUDNAN_clean_linker_2, # of connection points: 2
#     Edge 28, Type (0, 1), BuildingBlock: XUDNAN_clean_linker_2, # of connection points: 2
#     Edge 29, Type (0, 1), BuildingBlock: XUDNAN_clean_linker_2, # of connection points: 2
#     Edge 30, Type (0, 1), BuildingBlock: XUDNAN_clean_linker_2, # of connection points: 2
#     Edge 31, Type (0, 1), BuildingBlock: XUDNAN_clean_linker_2, # of connection points: 2
#     Edge 32, Type (0, 1), BuildingBlock: XUDNAN_clean_linker_2, # of connection points: 2
#     Edge 33, Type (0, 1), BuildingBlock: XUDNAN_clean_linker_2, # of connection points: 2
#     Edge 34, Type (0, 1), BuildingBlock: XUDNAN_clean_linker_2, # of connection points: 2
#     Edge 35, Type (0, 1), BuildingBlock: XUDNAN_clean_linker_2, # of connection points: 2
# Relax obj value: 0.056
# Max RMSD: 0.064
# Mean RMSD: 0.028
data_MOF--net-pry--node1-FUNLAD_clean_sbu_0--node2-MIDCAF_clean_linker_0--edge1-XUDNAN_clean_linker_2
_symmetry_space_group_name_H-M    P1
_symmetry_Int_Tables_number       1
_symmetry_cell_setting            triclinic
loop_
_symmetry_equiv_pos_as_xyz
'x, y, z'
_cell_length_a     43.75035
_cell_length_b     46.308793
_cell_length_c     46.43503
_cell_angle_alpha  90.231977
_cell_angle_beta   90.39855
_cell_angle_gamma 85.052204
loop_
_atom_site_label
_atom_site_type_symbol
_atom_site_fract_x
_atom_site_fract_y
_atom_site_fract_z
_atom_type_partial_charge
C0 C 0.10279 0.16031 0.28222 0.0
C1 C 0.11262 0.13254 0.29278 0.0
C2 C 0.13341 0.11478 0.27612 0.0
C3 C 0.14489 0.12491 0.25017 0.0
H4 H 0.21402 0.10445 0.18436 0.0
H5 H 0.25765 0.08059 0.15755 0.0
H6 H 0.2703 0.16149 0.11533 0.0
H7 H 0.2273 0.18496 0.14134 0.0
H8 H 0.17723 0.23071 0.1356 0.0
H9 H 0.15611 0.27163 0.10765 0.0
H10 H 0.0717 0.27364 0.15536 0.0
H11 H 0.09313 0.23195 0.18407 0.0
H12 H 0.10611 0.19196 0.24908 0.0
H13 H 0.08654 0.1745 0.2943 0.0
H14 H 0.14163 0.09338 0.28362 0.0
H15 H 0.16138 0.11078 0.23832 0.0
N16 N 0.175 0.15029 0.20151 0.0
N17 N 0.17557 0.18604 0.1661 0.0
N18 N 0.13669 0.18953 0.20065 0.0
C19 C 0.18839 0.16115 0.17798 0.0
C20 C 0.14984 0.20043 0.17692 0.0
C21 C 0.14921 0.16442 0.21317 0.0
C22 C 0.21664 0.14654 0.16466 0.0
C23 C 0.22637 0.11714 0.16956 0.0
C24 C 0.25139 0.10348 0.15427 0.0
C25 C 0.26707 0.119 0.13386 0.0
C26 C 0.25829 0.14867 0.1303 0.0
C27 C 0.23351 0.16217 0.14534 0.0
C28 C 0.1368 0.22744 0.162 0.0
C29 C 0.15414 0.23965 0.14044 0.0
C30 C 0.14197 0.26326 0.1242 0.0
C31 C 0.11197 0.27569 0.12879 0.0
C32 C 0.09489 0.26454 0.15121 0.0
C33 C 0.10715 0.2406 0.16761 0.0
C34 C 0.13559 0.15297 0.23992 0.0
C35 C 0.11395 0.1703 0.25614 0.0
C36 C 0.27589 0.9231 0.64165 0.0
C37 C 0.25876 0.90367 0.62618 0.0
C38 C 0.26839 0.87392 0.62744 0.0
C39 C 0.29515 0.864 0.64218 0.0
H40 H 0.35769 0.7902 0.64899 0.0
H41 H 0.38103 0.74821 0.62263 0.0
H42 H 0.46995 0.78082 0.63232 0.0
H43 H 0.44663 0.82264 0.65964 0.0
H44 H 0.43054 0.85376 0.73851 0.0
H45 H 0.44822 0.87399 0.78357 0.0
H46 H 0.38495 0.94976 0.77211 0.0
H47 H 0.36673 0.92942 0.72688 0.0
H48 H 0.31591 0.92858 0.6677 0.0
H49 H 0.26925 0.94617 0.6412 0.0
H50 H 0.2554 0.85812 0.61669 0.0
H51 H 0.302 0.84096 0.64198 0.0
N52 N 0.35758 0.84753 0.65896 0.0
N53 N 0.39822 0.85084 0.69161 0.0
N54 N 0.35626 0.88644 0.69157 0.0
C55 C 0.38515 0.8367 0.66952 0.0
C56 C 0.38377 0.87565 0.70302 0.0
C57 C 0.34302 0.87237 0.66952 0.0
C58 C 0.40031 0.80978 0.65644 0.0
C59 C 0.38231 0.78821 0.64593 0.0
C60 C 0.39567 0.76409 0.63089 0.0
C61 C 0.42729 0.76124 0.62531 0.0
C62 C 0.44548 0.78249 0.63625 0.0
C63 C 0.43219 0.80632 0.65202 0.0
C64 C 0.39689 0.88971 0.72895 0.0
C65 C 0.42056 0.87491 0.74521 0.0
C66 C 0.43074 0.88651 0.77115 0.0
C67 C 0.41796 0.91347 0.7815 0.0
C68 C 0.39542 0.92905 0.76464 0.0
C69 C 0.38485 0.91723 0.73879 0.0
C70 C 0.31302 0.88341 0.6566 0.0
C71 C 0.30268 0.91305 0.65681 0.0
C72 C 0.59441 0.34987 0.99936 0.0
C73 C 0.56516 0.34219 0.99125 0.0
C74 C 0.54647 0.36114 0.97381 0.0
C75 C 0.55736 0.38652 0.96344 0.0
H76 H 0.54596 0.43342 0.89182 0.0
H77 H 0.52151 0.45095 0.84722 0.0
H78 H 0.58416 0.51779 0.84228 0.0
H79 H 0.60903 0.50022 0.88693 0.0
H80 H 0.67736 0.47742 0.91212 0.0
H81 H 0.73198 0.48269 0.91685 0.0
H82 H 0.73556 0.43156 0.99449 0.0
H83 H 0.68065 0.42611 0.98991 0.0
H84 H 0.62849 0.37995 0.99462 0.0
H85 H 0.60942 0.33556 1.01265 0.0
H86 H 0.52363 0.356 0.96762 0.0
H87 H 0.54256 0.40015 0.94934 0.0
N88 N 0.58415 0.43193 0.93389 0.0
N89 N 0.62542 0.45926 0.92428 0.0
N90 N 0.62925 0.42483 0.96138 0.0
C91 C 0.59644 0.45261 0.91823 0.0
C92 C 0.64196 0.44557 0.94591 0.0
C93 C 0.60021 0.41802 0.95556 0.0
C94 C 0.57964 0.46531 0.89288 0.0
C95 C 0.55437 0.45209 0.88152 0.0
C96 C 0.5404 0.462 0.8559 0.0
C97 C 0.55107 0.48558 0.84134 0.0
C98 C 0.57542 0.49964 0.85324 0.0
C99 C 0.58972 0.48948 0.8787 0.0
C100 C 0.67454 0.45111 0.95051 0.0
C101 C 0.68958 0.46748 0.9304 0.0
C102 C 0.72096 0.47039 0.93298 0.0
C103 C 0.73802 0.45727 0.95585 0.0
C104 C 0.72289 0.44193 0.97667 0.0
C105 C 0.69148 0.43874 0.97395 0.0
C106 C 0.58729 0.39346 0.97016 0.0
C107 C 0.60538 0.37527 0.98892 0.0
C108 C 0.79737 0.586 0.50243 0.0
C109 C 0.78132 0.56546 0.48763 0.0
C110 C 0.79477 0.55148 0.46338 0.0
C111 C 0.82341 0.55829 0.45375 0.0
H112 H 0.89084 0.53325 0.39518 0.0
H113 H 0.90727 0.51396 0.3483 0.0
H114 H 0.96814 0.58196 0.33981 0.0
H115 H 0.95184 0.60143 0.38651 0.0
H116 H 0.9604 0.64258 0.43883 0.0
H117 H 0.97857 0.68909 0.45179 0.0
H118 H 0.90037 0.70684 0.5074 0.0
H119 H 0.88245 0.66007 0.49499 0.0
H120 H 0.83747 0.60934 0.50426 0.0
H121 H 0.78745 0.59725 0.52109 0.0
H122 H 0.78308 0.53526 0.45179 0.0
H123 H 0.83284 0.54731 0.43475 0.0
N124 N 0.88158 0.57398 0.43334 0.0
N125 N 0.91985 0.60628 0.43242 0.0
N126 N 0.88134 0.6116 0.46732 0.0
C127 C 0.90731 0.58286 0.42127 0.0
C128 C 0.90715 0.62071 0.45548 0.0
C129 C 0.86849 0.58813 0.45643 0.0
C130 C 0.91976 0.56908 0.39453 0.0
C131 C 0.90798 0.54393 0.38351 0.0
C132 C 0.91748 0.53277 0.35673 0.0
C133 C 0.93874 0.54666 0.3404 0.0
C134 C 0.9514 0.57109 0.35186 0.0
C135 C 0.94214 0.58211 0.37869 0.0
C136 C 0.91978 0.64762 0.46568 0.0
C137 C 0.94719 0.65622 0.45406 0.0
C138 C 0.95756 0.68298 0.46136 0.0
C139 C 0.94079 0.70177 0.48041 0.0
C140 C 0.91401 0.69274 0.49287 0.0
C141 C 0.90365 0.66593 0.48564 0.0
C142 C 0.83919 0.57943 0.46804 0.0
C143 C 0.82597 0.593 0.49268 0.0
C144 C 0.76863 0.92514 0.86792 0.0
C145 C 0.756 0.9151 0.89348 0.0
C146 C 0.76893 0.88882 0.90516 0.0
C147 C 0.79405 0.87334 0.892 0.0
H148 H 0.84377 0.79755 0.89589 0.0
H149 H 0.86368 0.75526 0.92255 0.0
H150 H 0.94631 0.74988 0.87191 0.0
H151 H 0.92603 0.7928 0.84447 0.0
H152 H 0.91571 0.83506 0.7811 0.0
H153 H 0.93602 0.8533 0.73646 0.0
H154 H 0.88226 0.93492 0.74878 0.0
H155 H 0.86196 0.91683 0.79342 0.0
H156 H 0.80291 0.91828 0.83526 0.0
H157 H 0.75902 0.94502 0.85796 0.0
H158 H 0.76016 0.88051 0.92494 0.0
H159 H 0.80349 0.8534 0.90196 0.0
N160 N 0.84625 0.84205 0.86505 0.0
N161 N 0.88456 0.83715 0.82978 0.0
N162 N 0.84791 0.87758 0.82956 0.0
C163 C 0.8712 0.82669 0.85367 0.0
C164 C 0.87296 0.86269 0.81753 0.0
C165 C 0.83437 0.86739 0.85332 0.0
C166 C 0.88339 0.79914 0.86812 0.0
C167 C 0.8662 0.78756 0.89016 0.0
C168 C 0.8777 0.76318 0.90565 0.0
C169 C 0.90688 0.74936 0.89983 0.0
C170 C 0.92374 0.76 0.877 0.0
C171 C 0.91214 0.78467 0.86133 0.0
C172 C 0.88692 0.87426 0.79099 0.0
C173 C 0.90833 0.85697 0.77449 0.0
C174 C 0.9199 0.86743 0.74874 0.0
C175 C 0.9107 0.89561 0.73881 0.0
C176 C 0.89007 0.91323 0.75576 0.0
C177 C 0.87824 0.90268 0.78135 0.0
C178 C 0.80705 0.88366 0.86673 0.0
C179 C 0.7938 0.90969 0.85477 0.0
C180 C 0.64639 0.11815 0.25745 0.0
C181 C 0.61827 0.12714 0.24402 0.0
C182 C 0.60119 0.1519 0.25498 0.0
C183 C 0.61138 0.1664 0.27957 0.0
H184 H 0.59429 0.24298 0.3388 0.0
H185 H 0.56742 0.28387 0.36519 0.0
H186 H 0.62416 0.26274 0.43982 0.0
H187 H 0.65033 0.22261 0.41429 0.0
H188 H 0.69923 0.17627 0.41681 0.0
H189 H 0.74504 0.15809 0.44259 0.0
H190 H 0.77973 0.11432 0.36569 0.0
H191 H 0.7328 0.13208 0.33968 0.0
H192 H 0.67816 0.1244 0.29149 0.0
H193 H 0.66043 0.0995 0.24938 0.0
H194 H 0.57939 0.15938 0.24523 0.0
H195 H 0.59723 0.18484 0.28791 0.0
N196 N 0.63272 0.19329 0.33354 0.0
N197 N 0.66768 0.19184 0.37217 0.0
N198 N 0.67527 0.15825 0.33472 0.0
C199 C 0.64196 0.20432 0.35924 0.0
C200 C 0.68452 0.16897 0.36032 0.0
C201 C 0.64936 0.1701 0.32111 0.0
C202 C 0.62452 0.22921 0.37426 0.0
C203 C 0.60087 0.24705 0.36087 0.0
C204 C 0.58561 0.27059 0.37593 0.0
C205 C 0.5934 0.27646 0.40477 0.0
C206 C 0.61709 0.25867 0.41787 0.0
C207 C 0.63232 0.23558 0.40296 0.0
C208 C 0.71234 0.15605 0.37593 0.0
C209 C 0.71649 0.16277 0.40519 0.0
C210 C 0.74299 0.15239 0.42006 0.0
C211 C 0.76655 0.13516 0.40618 0.0
C212 C 0.76209 0.1275 0.37713 0.0
C213 C 0.73523 0.13779 0.36217 0.0
C214 C 0.63903 0.1566 0.29364 0.0
C215 C 0.6566 0.1326 0.28174 0.0
C216 C 0.29518 0.55346 0.06898 0.0
C217 C 0.2749 0.57794 0.06315 0.0
C218 C 0.28651 0.60511 0.06055 0.0
C219 C 0.31785 0.60787 0.06407 0.0
H220 H 0.38423 0.66606 0.05514 0.0
H221 H 0.40643 0.71249 0.05165 0.0
H222 H 0.49628 0.67002 0.06973 0.0
H223 H 0.47419 0.6238 0.07363 0.0
H224 H 0.47428 0.57843 0.12311 0.0
H225 H 0.49686 0.55887 0.16759 0.0
H226 H 0.4191 0.50912 0.17995 0.0
H227 H 0.39577 0.52906 0.13543 0.0
H228 H 0.34154 0.53718 0.07826 0.0
H229 H 0.28665 0.53231 0.0712 0.0
H230 H 0.27125 0.62426 0.05596 0.0
H231 H 0.32604 0.62921 0.06234 0.0
N232 N 0.38407 0.61036 0.06656 0.0
N233 N 0.4294 0.5957 0.09141 0.0
N234 N 0.38705 0.56842 0.09522 0.0
C235 C 0.41359 0.61455 0.07342 0.0
C236 C 0.41647 0.57269 0.10253 0.0
C237 C 0.37082 0.58704 0.07699 0.0
C238 C 0.42736 0.64134 0.06516 0.0
C239 C 0.40881 0.66652 0.05769 0.0
C240 C 0.42154 0.69313 0.05569 0.0
C241 C 0.45301 0.69494 0.061 0.0
C242 C 0.47184 0.66939 0.06624 0.0
C243 C 0.45916 0.64289 0.06833 0.0
C244 C 0.43281 0.5558 0.1259 0.0
C245 C 0.46204 0.56296 0.1349 0.0
C246 C 0.47508 0.55182 0.16041 0.0
C247 C 0.45949 0.53288 0.17725 0.0
C248 C 0.43152 0.52374 0.16722 0.0
C249 C 0.41819 0.5352 0.14177 0.0
C250 C 0.3381 0.58357 0.07089 0.0
C251 C 0.32648 0.5563 0.07313 0.0
C252 C 0.11751 0.33156 0.56793 0.0
C253 C 0.08994 0.32331 0.57935 0.0
C254 C 0.06672 0.34482 0.58673 0.0
C255 C 0.07174 0.37411 0.58444 0.0
H256 H 0.0391 0.46882 0.61189 0.0
H257 H 0.0166 0.48504 0.65767 0.0
H258 H 0.10756 0.49624 0.69105 0.0
H259 H 0.12916 0.48271 0.64456 0.0
H260 H 0.1575 0.5037 0.55982 0.0
H261 H 0.20642 0.51804 0.54188 0.0
H262 H 0.23985 0.42804 0.53318 0.0
H263 H 0.19088 0.41354 0.55058 0.0
H264 H 0.1444 0.3664 0.55747 0.0
H265 H 0.1356 0.31534 0.56167 0.0
H266 H 0.04525 0.33901 0.59558 0.0
H267 H 0.05388 0.3902 0.59146 0.0
N268 N 0.091 0.43124 0.59493 0.0
N269 N 0.12547 0.46659 0.58792 0.0
N270 N 0.13272 0.42179 0.56399 0.0
C271 C 0.09995 0.458 0.60064 0.0
C272 C 0.14164 0.44875 0.56911 0.0
C273 C 0.10725 0.41296 0.57667 0.0
C274 C 0.08576 0.47448 0.62489 0.0
C275 C 0.05395 0.47588 0.62882 0.0
C276 C 0.04121 0.48474 0.65524 0.0
C277 C 0.06022 0.4911 0.67866 0.0
C278 C 0.09191 0.49181 0.67377 0.0
C279 C 0.10446 0.48394 0.64702 0.0
C280 C 0.17038 0.45751 0.55663 0.0
C281 C 0.1752 0.48698 0.55386 0.0
C282 C 0.20307 0.4952 0.5435 0.0
C283 C 0.22676 0.4741 0.5363 0.0
C284 C 0.22189 0.44466 0.53875 0.0
C285 C 0.19383 0.43642 0.54855 0.0
C286 C 0.09996 0.38241 0.57442 0.0
C287 C 0.12242 0.36082 0.5653 0.0
C288 C 0.03853 0.04143 0.46963 0.0
N289 N 0.0259 0.07032 0.55524 0.0
C290 C 0.05541 0.07724 0.55342 0.0
C291 C 0.06408 0.10284 0.56548 0.0
C292 C 0.0421 0.12187 0.57919 0.0
C293 C 0.01188 0.1141 0.5813 0.0
C294 C 1.00425 0.08789 0.56926 0.0
Zn295 Zn 0.01516 0.03471 0.53258 0.0
C296 C 0.95566 0.04639 0.50007 0.0
N297 N 0.99658 0.96283 0.48038 0.0
C298 C 0.01893 0.94306 0.47042 0.0
C299 C 0.96748 0.95549 0.48459 0.0
C300 C 0.96084 0.92676 0.48219 0.0
C301 C 0.98432 0.90546 0.47531 0.0
C302 C 0.01319 0.91389 0.46766 0.0
Zn303 Zn 0.00729 0.99939 0.5017 0.0
O304 O 0.03639 0.05202 0.49503 0.0
C305 C 0.06716 0.98834 0.53397 0.0
O306 O 0.02797 0.01708 0.46471 0.0
H307 H 0.95015 0.97119 0.49311 0.0
H308 H 0.07214 0.06343 0.5416 0.0
H309 H 0.04197 0.94925 0.46743 0.0
O310 O 0.05771 0.01222 0.54572 0.0
O311 O 0.05077 0.97795 0.51441 0.0
H312 H 0.98088 0.08204 0.57029 0.0
O313 O 0.9869 0.98183 0.53926 0.0
O314 O 0.99373 0.01696 0.56959 0.0
O315 O 0.9642 0.02186 0.48903 0.0
O316 O 0.97252 0.05678 0.51928 0.0
C317 C 0.98407 0.99227 0.56459 0.0
H318 H 0.08747 0.10834 0.56285 0.0
H319 H 0.99431 0.12833 0.59168 0.0
H320 H 0.93831 0.92089 0.4882 0.0
H321 H 0.03182 0.89785 0.46237 0.0
C322 C 0.57042 0.99942 0.99436 0.0
N323 N 0.51839 0.07981 0.99264 0.0
C324 C 0.54592 0.08979 0.99942 0.0
C325 C 0.54919 0.11934 0.99999 0.0
C326 C 0.52395 0.13891 0.99352 0.0
C327 C 0.49653 0.12823 0.98406 0.0
C328 C 0.49415 0.09823 0.98393 0.0
Zn329 Zn 0.51357 0.0385 1.00621 0.0
C330 C 0.48613 0.99883 0.96541 0.0
N331 N 0.50744 0.95536 0.04222 0.0
C332 C 0.53217 0.93901 0.05302 0.0
C333 C 0.47978 0.94436 0.039 0.0
C334 C 0.4764 0.9156 0.04597 0.0
C335 C 0.5018 0.89783 0.0561 0.0
C336 C 0.52986 0.91 0.0601 0.0
Zn337 Zn 0.51183 0.99592 0.02716 0.0
O338 O 0.55794 0.02496 0.99097 0.0
C339 C 0.5388 0.03377 0.06894 0.0
O340 O 0.55621 0.98141 1.00863 0.0
H341 H 0.46045 0.95769 0.03023 0.0
H342 H 0.56476 0.07507 1.00691 0.0
H343 H 0.55396 0.94821 0.0553 0.0
O344 O 0.53261 0.05125 0.04816 0.0
O345 O 0.53317 1.0075 0.06577 0.0
H346 H 0.47235 0.08991 0.979 0.0
O347 O 0.46741 1.01118 0.0453 0.0
O348 O 0.46902 0.05148 0.02098 0.0
O349 O 0.49055 0.98427 0.98843 0.0
O350 O 0.49417 0.02471 0.9649 0.0
C351 C 0.45481 0.03586 0.03783 0.0
H352 H 0.57076 0.1269 1.00713 0.0
H353 H 0.47661 0.14288 0.97893 0.0
H354 H 0.45419 0.90729 0.04308 0.0
H355 H 0.55011 0.89704 0.06762 0.0
C356 C 0.51819 0.46109 0.49799 0.0
N357 N 0.50663 0.50733 0.5766 0.0
C358 C 0.4922 0.48675 0.59076 0.0
C359 C 0.49196 0.4864 0.62094 0.0
C360 C 0.50643 0.50762 0.63639 0.0
C361 C 0.52191 0.52788 0.62113 0.0
C362 C 0.5217 0.52736 0.59122 0.0
Zn363 Zn 0.50381 0.51302 0.53305 0.0
C364 C 0.56525 0.52804 0.51027 0.0
N365 N 0.50005 0.53149 0.44339 0.0
C366 C 0.48227 0.51256 0.43023 0.0
C367 C 0.51713 0.5489 0.42769 0.0
C368 C 0.5174 0.5468 0.39752 0.0
C369 C 0.50019 0.52642 0.38372 0.0
C370 C 0.48186 0.50983 0.40048 0.0
Zn371 Zn 0.50337 0.52652 0.48718 0.0
O372 O 0.51583 0.46798 0.52452 0.0
C373 C 0.44181 0.5121 0.51048 0.0
O374 O 0.51366 0.48089 0.47918 0.0
H375 H 0.53146 0.5635 0.43854 0.0
H376 H 0.48018 0.47115 0.5787 0.0
H377 H 0.46935 0.49837 0.44282 0.0
O378 O 0.45705 0.5055 0.53322 0.0
O379 O 0.45541 0.52164 0.48888 0.0
H380 H 0.53292 0.54366 0.57969 0.0
O381 O 0.49378 0.57211 0.49591 0.0
O382 O 0.49125 0.55816 0.54087 0.0
O383 O 0.55083 0.53184 0.48655 0.0
O384 O 0.55096 0.52054 0.53237 0.0
C385 C 0.48904 0.57841 0.52236 0.0
H386 H 0.4798 0.47038 0.63201 0.0
H387 H 0.5339 0.54422 0.63221 0.0
H388 H 0.53182 0.56005 0.38526 0.0
H389 H 0.46774 0.4943 0.39073 0.0
C390 C 0.9854 0.56643 0.99528 0.0
N391 N 0.98391 0.52088 0.07415 0.0
C392 C 0.99249 0.54315 0.09068 0.0
C393 C 0.98679 0.54363 0.12027 0.0
C394 C 0.97204 0.52102 0.1328 0.0
C395 C 0.96193 0.49928 0.11486 0.0
C396 C 0.96832 0.49951 0.08556 0.0
Zn397 Zn 0.99889 0.51499 0.03295 0.0
C398 C 0.95297 0.49038 0.99514 0.0
N399 N 0.03189 0.49871 0.94797 0.0
C400 C 0.04084 0.52114 0.93215 0.0
C401 C 0.02737 0.47279 0.9355 0.0
C402 C 0.02994 0.46927 0.90577 0.0
C403 C 0.03653 0.49283 0.88856 0.0
C404 C 0.0431 0.51873 0.90225 0.0
Zn405 Zn 0.01777 0.50581 0.98934 0.0
O406 O 0.98155 0.55794 0.02097 0.0
C407 C 0.06361 0.53078 0.02652 0.0
O408 O 0.99963 0.5491 0.97764 0.0
H409 H 0.02007 0.45529 0.94839 0.0
H410 H 1.00499 0.55984 0.08118 0.0
H411 H 0.04442 0.54154 0.94249 0.0
O412 O 0.04159 0.53063 0.04424 0.0
O413 O 0.06026 0.52128 1.00106 0.0
H414 H 0.96199 0.4818 0.07218 0.0
O415 O 0.03537 0.46278 1.00192 0.0
O416 O 0.01666 0.47195 0.04489 0.0
O417 O 0.9753 0.49036 0.97784 0.0
O418 O 0.9562 0.49965 0.02065 0.0
C419 C 0.03123 0.45451 0.02763 0.0
H420 H 0.99513 0.56076 0.13332 0.0
H421 H 0.94991 0.48178 0.12347 0.0
H422 H 0.02557 0.4486 0.89632 0.0
H423 H 0.04816 0.53755 0.88999 0.0
H424 H 0.09312 0.07931 0.30904 0.0
H425 H 0.10967 0.16422 0.34256 0.0
H426 H 0.0938 0.14955 0.3908 0.0
H427 H 0.02541 0.07086 0.35149 0.0
H428 H 0.03415 0.03256 0.3573 0.0
H429 H 0.04749 0.04928 0.32531 0.0
H430 H 0.10325 0.02975 0.33764 0.0
H431 H 0.09008 0.01303 0.36971 0.0
H432 H 0.11937 0.03803 0.37224 0.0
H433 H 0.0769 0.12597 0.43558 0.0
H434 H 0.05731 0.09597 0.4737 0.0
H435 H 0.04968 0.02598 0.4122 0.0
C436 C 0.09353 0.09474 0.32658 0.0
C437 C 0.10261 0.12305 0.32184 0.0
C438 C 0.10249 0.14261 0.34541 0.0
C439 C 0.09368 0.1344 0.37301 0.0
C440 C 0.08479 0.1065 0.37693 0.0
C441 C 0.08441 0.08697 0.35439 0.0
C442 C 0.073 0.05857 0.36455 0.0
C443 C 0.04324 0.05247 0.34872 0.0
C444 C 0.09791 0.03335 0.36081 0.0
C445 C 0.06711 0.06524 0.39628 0.0
C446 C 0.07433 0.09298 0.40287 0.0
C447 C 0.0711 0.10423 0.43064 0.0
C448 C 0.05995 0.0869 0.45224 0.0
C449 C 0.05182 0.05848 0.44618 0.0
C450 C 0.05564 0.04755 0.41768 0.0
H451 H 0.43717 0.96675 0.79967 0.0
H452 H 0.41645 0.88236 0.83058 0.0
H453 H 0.42937 0.89654 0.88004 0.0
H454 H 0.50265 0.97295 0.84673 0.0
H455 H 0.4951 1.01132 0.85304 0.0
H456 H 0.48276 0.99557 0.81984 0.0
H457 H 0.42708 0.01682 0.82934 0.0
H458 H 0.43925 0.0326 0.8626 0.0
H459 H 0.40882 1.00872 0.86268 0.0
H460 H 0.4442 0.91859 0.92554 0.0
H461 H 0.46348 0.94623 0.96558 0.0
H462 H 0.47781 0.01734 0.90767 0.0
C463 C 0.4352 0.95143 0.81696 0.0
C464 C 0.4258 0.92332 0.81119 0.0
C465 C 0.42381 0.90381 0.83435 0.0
C466 C 0.43095 0.91175 0.86259 0.0
C467 C 0.44035 0.93932 0.86757 0.0
C468 C 0.44278 0.95891 0.84554 0.0
C469 C 0.45482 0.98671 0.85724 0.0
C470 C 0.48567 0.99194 0.84338 0.0
C471 C 0.43107 0.01276 0.85269 0.0
C472 C 0.45882 0.9795 0.88918 0.0
C473 C 0.44993 0.95208 0.89437 0.0
C474 C 0.45131 0.94006 0.92174 0.0
C475 C 0.46242 0.95613 0.94447 0.0
C476 C 0.47247 0.98416 0.94011 0.0
C477 C 0.47031 0.99611 0.91191 0.0
H478 H 0.54283 0.45057 0.79516 0.0
H479 H 0.53139 0.54023 0.82325 0.0
H480 H 0.513 0.5549 0.77448 0.0
H481 H 0.57315 0.46439 0.72793 0.0
H482 H 0.5549 0.4364 0.709 0.0
H483 H 0.56326 0.4326 0.74683 0.0
H484 H 0.50607 0.42599 0.75682 0.0
H485 H 0.49751 0.42978 0.71893 0.0
H486 H 0.47688 0.45314 0.74466 0.0
H487 H 0.49966 0.56008 0.72232 0.0
H488 H 0.4949 0.55606 0.66953 0.0
H489 H 0.51653 0.46302 0.675 0.0
C490 C 0.5357 0.47319 0.79118 0.0
C491 C 0.53811 0.4943 0.8129 0.0
C492 C 0.52957 0.52381 0.8068 0.0
C493 C 0.51895 0.53226 0.77929 0.0
C494 C 0.51715 0.51092 0.75822 0.0
C495 C 0.52537 0.482 0.7638 0.0
C496 C 0.524 0.46372 0.73677 0.0
C497 C 0.55571 0.44839 0.72972 0.0
C498 C 0.49966 0.44187 0.73947 0.0
C499 C 0.5144 0.48698 0.71494 0.0
C500 C 0.51012 0.51398 0.72787 0.0
C501 C 0.50273 0.53905 0.71198 0.0
C502 C 0.50026 0.53656 0.68203 0.0
C503 C 0.50548 0.50923 0.66823 0.0
C504 C 0.51198 0.48409 0.68502 0.0
H505 H 0.93976 0.58008 0.2923 0.0
H506 H 0.95392 0.49111 0.32173 0.0
H507 H 0.96472 0.47486 0.27167 0.0
H508 H 0.90131 0.56484 0.2269 0.0
H509 H 0.91832 0.59223 0.20644 0.0
H510 H 0.91293 0.59686 0.24463 0.0
H511 H 0.97086 0.6032 0.25124 0.0
H512 H 0.97643 0.59867 0.21304 0.0
H513 H 0.99882 0.57559 0.2379 0.0
H514 H 0.97381 0.46858 0.21866 0.0
H515 H 0.97958 0.47222 0.1661 0.0
H516 H 0.95753 0.56536 0.17129 0.0
C517 C 0.94558 0.55722 0.28825 0.0
C518 C 0.94629 0.53681 0.31079 0.0
C519 C 0.95324 0.50702 0.30465 0.0
C520 C 0.95948 0.49765 0.27638 0.0
C521 C 0.95846 0.51837 0.25462 0.0
C522 C 0.95161 0.54752 0.26021 0.0
C523 C 0.95106 0.56527 0.2329 0.0
C524 C 0.919 0.5807 0.2274 0.0
C525 C 0.97577 0.58696 0.23384 0.0
C526 C 0.9587 0.54154 0.21101 0.0
C527 C 0.96299 0.51468 0.224 0.0
C528 C 0.97032 0.48946 0.20822 0.0
C529 C 0.97328 0.49176 0.17834 0.0
C530 C 0.96869 0.51906 0.16448 0.0
C531 C 0.96139 0.54422 0.18119 0.0
H532 H 0.31705 0.07994 0.14797 0.0
H533 H 0.27157 0.12569 0.07602 0.0
H534 H 0.31297 0.10671 0.04385 0.0
H535 H 0.39291 0.09193 0.12848 0.0
H536 H 0.41008 0.05669 0.13886 0.0
H537 H 0.37576 0.07186 0.1564 0.0
H538 H 0.34827 0.02636 0.14279 0.0
H539 H 0.38259 1.01098 0.12527 0.0
H540 H 0.34682 0.01514 0.10561 0.0
H541 H 0.36077 0.08757 0.02033 0.0
H542 H 0.41192 0.06644 1.00569 0.0
H543 H 0.42727 0.03004 0.09105 0.0
C544 C 0.31559 0.08546 0.12534 0.0
C545 C 0.29112 0.10462 0.11463 0.0
C546 C 0.29024 0.11152 0.08489 0.0
C547 C 0.3136 0.10068 0.06635 0.0
C548 C 0.33773 0.08259 0.07763 0.0
C549 C 0.33889 0.07467 0.10631 0.0
C550 C 0.36831 0.05564 0.11272 0.0
C551 C 0.38792 0.06989 0.13546 0.0
C552 C 0.36105 0.02522 0.12216 0.0
C553 C 0.38363 0.05475 0.08334 0.0
C554 C 0.36539 0.07051 0.06352 0.0
C555 C 0.37506 0.07475 0.03548 0.0
C556 C 0.40421 0.06275 0.02739 0.0
C557 C 0.4234 0.04633 0.04708 0.0
C558 C 0.41279 0.04197 0.07538 0.0
H559 H 0.21344 0.94848 0.6365 0.0
H560 H 0.24307 0.88257 0.57341 0.0
H561 H 0.19777 0.89703 0.54356 0.0
H562 H 0.13286 0.9416 0.63028 0.0
H563 H 0.12175 0.97987 0.6334 0.0
H564 H 0.15672 0.96465 0.65016 0.0
H565 H 0.18751 1.00094 0.62259 0.0
H566 H 0.1526 0.01635 0.60583 0.0
H567 H 0.18457 1.00285 0.58389 0.0
H568 H 0.14832 0.91697 0.52111 0.0
H569 H 0.09919 0.94315 0.50638 0.0
H570 H 0.10217 0.99806 0.58219 0.0
C571 C 0.21061 0.93728 0.61628 0.0
C572 C 0.2318 0.91397 0.60771 0.0
C573 C 0.22693 0.89992 0.58103 0.0
C574 C 0.20131 0.90813 0.5637 0.0
C575 C 0.1807 0.93074 0.573 0.0
C576 C 0.18513 0.94535 0.59849 0.0
C577 C 0.15934 0.969 0.60328 0.0
C578 C 0.14162 0.96344 0.63092 0.0
C579 C 0.17175 0.99907 0.60393 0.0
C580 C 0.13973 0.96519 0.5766 0.0
C581 C 0.15247 0.9429 0.55952 0.0
C582 C 0.13823 0.93464 0.53419 0.0
C583 C 0.11026 0.94961 0.52603 0.0
C584 C 0.09683 0.97278 0.54298 0.0
C585 C 0.11194 0.98064 0.56859 0.0
H586 H 0.77337 0.47083 1.00239 0.0
H587 H 0.77857 0.44681 0.91203 0.0
H588 H 0.83459 0.45007 0.91316 0.0
H589 H 0.82815 0.52309 0.99964 0.0
H590 H 0.8446 0.51453 0.03459 0.0
H591 H 0.80518 0.50855 0.02726 0.0
H592 H 0.81596 0.45472 0.04209 0.0
H593 H 0.85546 0.46055 0.04945 0.0
H594 H 0.8463 0.43248 0.02464 0.0
H595 H 0.88931 0.45735 0.92343 0.0
H596 H 0.93945 0.46997 0.9417 0.0
H597 H 0.89914 0.48994 0.02546 0.0
C598 C 0.78642 0.46592 0.98298 0.0
C599 C 0.77172 0.45859 0.9571 0.0
C600 C 0.78941 0.45273 0.93199 0.0
C601 C 0.82122 0.45433 0.93247 0.0
C602 C 0.835 0.46185 0.95823 0.0
C603 C 0.81823 0.46763 0.98303 0.0
C604 C 0.83859 0.47658 1.00747 0.0
C605 C 0.82853 0.50753 0.01784 0.0
C606 C 0.8391 0.45478 0.03238 0.0
C607 C 0.8693 0.47523 0.99241 0.0
C608 C 0.8667 0.46643 0.9641 0.0
C609 C 0.8917 0.46415 0.9456 0.0
C610 C 0.9201 0.47139 0.95621 0.0
C611 C 0.92326 0.48095 0.98503 0.0
C612 C 0.89751 0.48258 1.00338 0.0
H613 H 0.73055 0.56084 0.45373 0.0
H614 H 0.76207 0.55601 0.54254 0.0
H615 H 0.71014 0.54567 0.55797 0.0
H616 H 0.65597 0.59592 0.46812 0.0
H617 H 0.63704 0.57637 0.44055 0.0
H618 H 0.67674 0.58304 0.43653 0.0
H619 H 0.69131 0.52794 0.43015 0.0
H620 H 0.65165 0.52111 0.43412 0.0
H621 H 0.68046 0.50317 0.45735 0.0
H622 H 0.65513 0.53539 0.56351 0.0
H623 H 0.60034 0.52723 0.55921 0.0
H624 H 0.60464 0.53927 0.46664 0.0
C625 C 0.72659 0.55734 0.4764 0.0
C626 C 0.75031 0.5591 0.49697 0.0
C627 C 0.74412 0.55494 0.52648 0.0
C628 C 0.71478 0.54893 0.53541 0.0
C629 C 0.69193 0.54731 0.51454 0.0
C630 C 0.69745 0.55149 0.48567 0.0
C631 C 0.6688 0.54906 0.46765 0.0
C632 C 0.65907 0.57781 0.45232 0.0
C633 C 0.67334 0.52382 0.44605 0.0
C634 C 0.64628 0.54277 0.49091 0.0
C635 C 0.66012 0.54176 0.51778 0.0
C636 C 0.64402 0.53615 0.5426 0.0
C637 C 0.61292 0.53151 0.5399 0.0
C638 C 0.59819 0.53261 0.51258 0.0
C639 C 0.61521 0.53833 0.48782 0.0
H640 H 0.07818 0.32775 0.14224 0.0
H641 H 0.116 0.27671 0.07027 0.0
H642 H 0.09854 0.31604 0.03695 0.0
H643 H 0.01033 0.36089 0.10343 0.0
H644 H 0.01155 0.39551 0.12109 0.0
H645 H 0.02572 0.36278 0.13943 0.0
H646 H 0.07806 0.38384 0.14754 0.0
H647 H 0.06407 0.41654 0.1291 0.0
H648 H 0.09859 0.39614 0.11703 0.0
H649 H 0.07948 0.36164 1.01133 0.0
H650 H 0.0585 0.41009 0.99506 0.0
H651 H 0.03195 0.43226 0.08287 0.0
C652 C 0.08235 0.32472 0.11943 0.0
C653 C 0.09874 0.29908 0.10899 0.0
C654 C 0.10395 0.2962 0.07894 0.0
C655 C 0.09398 0.31842 0.05975 0.0
C656 C 0.07856 0.34359 0.07073 0.0
C657 C 0.07254 0.34688 0.09982 0.0
C658 C 0.05615 0.37659 0.10585 0.0
C659 C 0.02403 0.37376 0.11818 0.0
C660 C 0.07537 0.39432 0.12608 0.0
C661 C 0.05422 0.38944 0.0757 0.0
C662 C 0.06727 0.36997 0.0558 0.0
C663 C 0.06899 0.37702 0.0267 0.0
C664 C 0.05705 0.40467 0.01765 0.0
C665 C 0.04344 0.4251 0.03755 0.0
C666 C 0.042 0.41717 0.067 0.0
H667 H 0.5381 0.30432 0.95602 0.0
H668 H 0.57079 0.31487 0.04355 0.0
H669 H 0.55859 0.26503 0.0548 0.0
H670 H 0.47512 0.25845 0.97354 0.0
H671 H 0.48174 0.23661 0.94161 0.0
H672 H 0.48958 0.27419 0.94148 0.0
H673 H 0.54532 0.25936 0.9253 0.0
H674 H 0.53774 0.2218 0.92552 0.0
H675 H 0.56912 0.2337 0.94655 0.0
H676 H 0.548 0.21312 0.05508 0.0
H677 H 0.53975 0.16208 0.04451 0.0
H678 H 0.5131 0.18518 0.95693 0.0
C679 C 0.54184 0.29645 0.9778 0.0
C680 C 0.55516 0.31349 0.99902 0.0
C681 C 0.56066 0.30211 0.027 0.0
C682 C 0.55362 0.27395 0.03361 0.0
C683 C 0.54098 0.25757 1.01203 0.0
C684 C 0.53499 0.26841 0.98472 0.0
C685 C 0.52361 0.24558 0.96482 0.0
C686 C 0.49054 0.25423 0.95478 0.0
C687 C 0.54524 0.23977 0.93904 0.0
C688 C 0.52498 0.21991 0.98498 0.0
C689 C 0.53477 0.22743 1.01219 0.0
C690 C 0.5399 0.20706 0.03402 0.0
C691 C 0.53531 0.17818 0.02778 0.0
C692 C 0.52575 0.16994 0.99996 0.0
C693 C 0.51995 0.19113 0.97845 0.0
H694 H 0.96235 0.73958 0.44164 0.0
H695 H 0.94003 0.73084 0.53199 0.0
H696 H 0.95157 0.78139 0.54062 0.0
H697 H 0.02596 0.78599 0.45304 0.0
H698 H 0.01629 0.80711 0.42123 0.0
H699 H 0.00837 0.76959 0.42255 0.0
H700 H 0.95129 0.7843 0.41035 0.0
H701 H 0.95894 0.82184 0.40919 0.0
H702 H 0.92971 0.8105 0.43276 0.0
H703 H 0.96116 0.8334 0.53873 0.0
H704 H 0.97028 0.88384 0.52688 0.0
H705 H 0.98857 0.85878 0.43817 0.0
C706 C 0.96061 0.74804 0.4634 0.0
C707 C 0.95028 0.73125 0.48617 0.0
C708 C 0.94758 0.74339 0.51417 0.0
C709 C 0.95428 0.772 0.51932 0.0
C710 C 0.9639 0.78806 0.49629 0.0
C711 C 0.96736 0.7765 0.46894 0.0
C712 C 0.97682 0.79885 0.44774 0.0
C713 C 0.00877 0.78984 0.43542 0.0
C714 C 0.95275 0.80418 0.42359 0.0
C715 C 0.97747 0.82498 0.46735 0.0
C716 C 0.97001 0.81817 0.49529 0.0
C717 C 0.96739 0.83893 0.51706 0.0
C718 C 0.97243 0.86746 0.5101 0.0
C719 C 0.98007 0.87493 0.48167 0.0
C720 C 0.98301 0.8534 0.46009 0.0
H721 H 0.42234 0.70265 0.63134 0.0
H722 H 0.46204 0.76526 0.577 0.0
H723 H 0.48114 0.72577 0.54387 0.0
H724 H 0.48497 0.64613 0.62324 0.0
H725 H 0.46002 0.61714 0.62366 0.0
H726 H 0.44935 0.65041 0.64271 0.0
H727 H 0.39795 0.65603 0.61441 0.0
H728 H 0.40857 0.6229 0.59513 0.0
H729 H 0.39843 0.65593 0.57559 0.0
H730 H 0.49333 0.67907 0.51498 0.0
H731 H 0.50288 0.62889 0.4962 0.0
H732 H 0.45837 0.59666 0.57126 0.0
C733 C 0.43518 0.70798 0.61252 0.0
C734 C 0.44068 0.73706 0.6067 0.0
C735 C 0.45776 0.74314 0.58197 0.0
C736 C 0.46853 0.72086 0.56295 0.0
C737 C 0.46246 0.69244 0.56912 0.0
C738 C 0.44664 0.68591 0.59362 0.0
C739 C 0.44402 0.65353 0.59583 0.0
C740 C 0.46058 0.64107 0.62297 0.0
C741 C 0.41023 0.64671 0.5952 0.0
C742 C 0.46054 0.64288 0.56867 0.0
C743 C 0.47069 0.66565 0.55331 0.0
C744 C 0.48571 0.66109 0.52701 0.0
C745 C 0.49091 0.63253 0.5164 0.0
C746 C 0.48156 0.60881 0.53228 0.0
C747 C 0.46606 0.61428 0.55869 0.0
H748 H 0.92977 0.94949 0.72405 0.0
H749 H 0.91499 0.86503 0.6883 0.0
H750 H 0.93107 0.88111 0.64064 0.0
H751 H 0.90309 0.99178 0.66179 0.0
H752 H 0.93174 0.01736 0.66509 0.0
H753 H 0.91887 0.99956 0.69666 0.0
H754 H 0.97491 0.98082 0.70883 0.0
H755 H 0.98795 0.99863 0.67734 0.0
H756 H 0.99752 0.96031 0.68225 0.0
H757 H 0.94768 0.90611 0.59662 0.0
H758 H 0.96656 0.93742 0.55933 0.0
H759 H 0.97245 1.0063 0.62243 0.0
C760 C 0.92983 0.93442 0.70616 0.0
C761 C 0.92116 0.90582 0.71014 0.0
C762 C 0.92188 0.88681 0.6861 0.0
C763 C 0.9308 0.89584 0.65881 0.0
C764 C 0.93918 0.92402 0.65565 0.0
C765 C 0.93901 0.94304 0.67864 0.0
C766 C 0.9498 0.97197 0.66923 0.0
C767 C 0.92435 0.99663 0.67345 0.0
C768 C 0.9793 0.9783 0.68537 0.0
C769 C 0.95595 0.96621 0.63737 0.0
C770 C 0.94941 0.93842 0.63011 0.0
C771 C 0.95295 0.92788 0.6021 0.0
C772 C 0.96369 0.94599 0.58098 0.0
C773 C 0.97113 0.97451 0.58771 0.0
C774 C 0.96701 0.98471 0.61644 0.0
H775 H 0.5919 0.14478 0.19121 0.0
H776 H 0.61745 0.06851 0.24292 0.0
H777 H 0.60027 0.03738 0.20402 0.0
H778 H 0.52352 0.118 0.15834 0.0
H779 H 0.52956 0.13363 0.12357 0.0
H780 H 0.54325 0.15049 0.15566 0.0
H781 H 0.59802 0.14745 0.13452 0.0
H782 H 0.58447 0.13048 0.10243 0.0
H783 H 0.61586 0.11285 0.12289 0.0
H784 H 0.58099 0.01404 0.16018 0.0
H785 H 0.56032 0.99954 0.11347 0.0
H786 H 0.54707 0.08993 0.08794 0.0
C787 C 0.59363 0.12155 0.19436 0.0
C788 C 0.60632 0.10914 0.22021 0.0
C789 C 0.60831 0.07858 0.2233 0.0
C790 C 0.59847 0.06067 0.20133 0.0
C791 C 0.58658 0.07342 0.17608 0.0
C792 C 0.58403 0.10313 0.17234 0.0
C793 C 0.57072 0.11087 0.14263 0.0
C794 C 0.53993 0.12934 0.14521 0.0
C795 C 0.59364 0.12633 0.12455 0.0
C796 C 0.56625 0.08088 0.13043 0.0
C797 C 0.57554 0.05972 0.15028 0.0
C798 C 0.57363 0.03041 0.14445 0.0
C799 C 0.56181 0.02239 0.11773 0.0
C800 C 0.552 0.04347 0.0968 0.0
C801 C 0.55444 0.07321 0.10333 0.0
H802 H 0.47333 0.57023 0.2196 0.0
H803 H 0.4697 0.4788 0.20098 0.0
H804 H 0.486 0.46701 0.25113 0.0
H805 H 0.53877 0.56377 0.27042 0.0
H806 H 0.52181 0.59206 0.29352 0.0
H807 H 0.51378 0.59295 0.25539 0.0
H808 H 0.45545 0.59563 0.26572 0.0
H809 H 0.46329 0.59482 0.30379 0.0
H810 H 0.44057 0.56822 0.28781 0.0
H811 H 0.49962 0.46562 0.30354 0.0
H812 H 0.50519 0.47439 0.35562 0.0
H813 H 0.49732 0.56719 0.34064 0.0
C814 C 0.47671 0.5477 0.22596 0.0
C815 C 0.47084 0.5253 0.2065 0.0
C816 C 0.47439 0.49613 0.21566 0.0
C817 C 0.48378 0.4893 0.24396 0.0
C818 C 0.48923 0.51195 0.26272 0.0
C819 C 0.48562 0.54058 0.25416 0.0
C820 C 0.4899 0.56099 0.27916 0.0
C821 C 0.51773 0.57847 0.27433 0.0
C822 C 0.46056 0.58108 0.28443 0.0
C823 C 0.49589 0.5394 0.30334 0.0
C824 C 0.49594 0.51123 0.29326 0.0
C825 C 0.4997 0.48755 0.31165 0.0
C826 C 0.50267 0.49279 0.3412 0.0
C827 C 0.50139 0.5215 0.35216 0.0
C828 C 0.49874 0.54504 0.33284 0.0
H829 H 0.08067 0.52217 0.72522 0.0
H830 H 0.01275 0.46303 0.70086 0.0
H831 H 0.99679 0.46078 0.75113 0.0
H832 H 0.10547 0.48329 0.7866 0.0
H833 H 0.11244 0.51456 0.80814 0.0
H834 H 0.11517 0.51616 0.76954 0.0
H835 H 0.07527 0.56089 0.76858 0.0
H836 H 0.07259 0.55958 0.80726 0.0
H837 H 0.0385 0.55877 0.78536 0.0
H838 H 0.99087 0.46113 0.80418 0.0
H839 H 0.99547 0.46418 0.85684 0.0
H840 H 0.07134 0.51816 0.84773 0.0
C841 C 0.06225 0.50891 0.73023 0.0
C842 C 0.04787 0.4931 0.70857 0.0
C843 C 0.02367 0.47621 0.7165 0.0
C844 C 0.01455 0.47448 0.74521 0.0
C845 C 0.02998 0.48947 0.76596 0.0
C846 C 0.0533 0.50637 0.75891 0.0
C847 C 0.06805 0.51803 0.78569 0.0
C848 C 0.10231 0.50736 0.78759 0.0
C849 C 0.06331 0.5513 0.78678 0.0
C850 C 0.04975 0.50449 0.80884 0.0
C851 C 0.02762 0.48847 0.79692 0.0
C852 C 0.00814 0.47358 0.81382 0.0
C853 C 0.01126 0.47514 0.84377 0.0
C854 C 0.03408 0.49108 0.85664 0.0
C855 C 0.05349 0.50598 0.83874 0.0
H856 H 0.70587 0.89564 0.92172 0.0
H857 H 0.74792 0.97416 0.89959 0.0
H858 H 0.70603 1.00337 0.92397 0.0
H859 H 0.62761 0.92455 0.91243 0.0
H860 H 0.61336 0.90541 0.94256 0.0
H861 H 0.64677 0.89032 0.92351 0.0
H862 H 0.67774 0.88742 0.97129 0.0
H863 H 0.64442 0.90257 0.99048 0.0
H864 H 0.67985 0.91965 0.99286 0.0
H865 H 0.6596 0.02439 0.9498 0.0
H866 H 0.61091 0.0362 0.97516 0.0
H867 H 0.59849 0.94449 0.98249 0.0
C868 C 0.70644 0.91896 0.92219 0.0
C869 C 0.7303 0.93251 0.90842 0.0
C870 C 0.72978 0.96316 0.90937 0.0
C871 C 0.70616 0.97999 0.92343 0.0
C872 C 0.68311 0.96598 0.93667 0.0
C873 C 0.68297 0.93618 0.93624 0.0
C874 C 0.65509 0.92676 0.95194 0.0
C875 C 0.63449 0.91082 0.93138 0.0
C876 C 0.66487 0.90799 0.9782 0.0
C877 C 0.63955 0.95595 0.96112 0.0
C878 C 0.65624 0.97821 0.95204 0.0
C879 C 0.6464 1.00715 0.95712 0.0
C880 C 0.61862 0.01362 0.97156 0.0
C881 C 0.6008 0.99132 0.98097 0.0
C882 C 0.61169 0.96203 0.97589 0.0
H883 H 0.80296 0.08274 0.40432 0.0
H884 H 0.79708 0.16821 0.44382 0.0
H885 H 0.8434 0.15418 0.47244 0.0
H886 H 0.82974 0.04262 0.4669 0.0
H887 H 0.85598 0.01751 0.44759 0.0
H888 H 0.82214 0.03392 0.42979 0.0
H889 H 0.85574 0.05331 0.38973 0.0
H890 H 0.88966 0.03678 0.4073 0.0
H891 H 0.88654 0.07501 0.39945 0.0
H892 H 0.88944 0.13112 0.49787 0.0
H893 H 0.93449 0.10119 0.51644 0.0
H894 H 0.91282 0.03071 0.45991 0.0
C895 C 0.81156 0.09859 0.41878 0.0
C896 C 0.79584 0.12651 0.42204 0.0
C897 C 0.80803 0.14648 0.44135 0.0
C898 C 0.83453 0.13879 0.45765 0.0
C899 C 0.84904 0.11105 0.45436 0.0
C900 C 0.83826 0.09129 0.43525 0.0
C901 C 0.85865 0.06297 0.43585 0.0
C902 C 0.84054 0.03777 0.44562 0.0
C903 C 0.87353 0.05665 0.40633 0.0
C904 C 0.88239 0.06997 0.45833 0.0
C905 C 0.87624 0.09781 0.46875 0.0
C906 C 0.89458 0.1093 0.4898 0.0
C907 C 0.92013 0.09204 0.50029 0.0
C908 C 0.92736 0.06353 0.48971 0.0
C909 C 0.908 0.05238 0.46849 0.0
H910 H 0.24478 0.54246 0.02747 0.0
H911 H 0.2301 0.60776 0.09426 0.0
H912 H 0.17422 0.60293 0.09209 0.0
H913 H 0.17688 0.56603 0.98567 0.0
H914 H 0.16923 0.52979 0.97531 0.0
H915 H 0.20804 0.53811 0.98244 0.0
H916 H 0.2141 0.49702 0.02031 0.0
H917 H 0.17531 0.48859 1.01332 0.0
H918 H 0.18711 0.49689 0.04947 0.0
H919 H 0.12058 0.58912 0.08442 0.0
H920 H 0.07192 0.5702 0.06899 0.0
H921 H 0.12099 0.51632 1.00476 0.0
C922 C 0.2297 0.55567 0.04159 0.0
C923 C 0.24152 0.5754 0.06111 0.0
C924 C 0.22128 0.59262 0.07911 0.0
C925 C 0.18962 0.58996 0.07808 0.0
C926 C 0.17863 0.57026 0.05864 0.0
C927 C 0.19797 0.55367 0.04046 0.0
C928 C 0.18013 0.53467 0.02107 0.0
C929 C 0.18379 0.54264 0.98924 0.0
C930 C 0.18974 0.50238 0.02637 0.0
C931 C 0.14779 0.54295 0.03142 0.0
C932 C 0.14748 0.56331 0.05328 0.0
C933 C 0.12047 0.57341 0.06711 0.0
C934 C 0.093 0.56248 0.05828 0.0
C935 C 0.09273 0.54202 0.03555 0.0
C936 C 0.1205 0.53226 0.02192 0.0
H937 H 0.28261 0.45685 0.55966 0.0
H938 H 0.23848 0.51118 0.49297 0.0
H939 H 0.28914 0.52601 0.47817 0.0
H940 H 0.33773 0.50611 0.57998 0.0
H941 H 0.36797 0.47804 0.58707 0.0
H942 H 0.3285 0.47074 0.59137 0.0
H943 H 0.33656 0.42728 0.55607 0.0
H944 H 0.37608 0.43444 0.55168 0.0
H945 H 0.35136 0.43294 0.52058 0.0
H946 H 0.34456 0.53411 0.47039 0.0
H947 H 0.40052 0.53776 0.4721 0.0
H948 H 0.40796 0.48008 0.54577 0.0
C949 C 0.28375 0.47165 0.54177 0.0
C950 C 0.25689 0.48274 0.52719 0.0
C951 C 0.25896 0.50251 0.50428 0.0
C952 C 0.28755 0.51093 0.49573 0.0
C953 C 0.31366 0.49961 0.51058 0.0
C954 C 0.31199 0.48061 0.53328 0.0
C955 C 0.34329 0.47258 0.54646 0.0
C956 C 0.34443 0.48247 0.57809 0.0
C957 C 0.35235 0.43987 0.54351 0.0
C958 C 0.36288 0.48999 0.5276 0.0
C959 C 0.3454 0.50519 0.50685 0.0
C960 C 0.35847 0.52242 0.48661 0.0
C961 C 0.39026 0.52429 0.48773 0.0
C962 C 0.4085 0.50931 0.50916 0.0
C963 C 0.39454 0.49195 0.52929 0.0
H964 H 0.93847 0.69673 0.88437 0.0
H965 H 0.90416 0.74673 0.95842 0.0
H966 H 0.92116 0.70609 0.99031 0.0
H967 H 0.91674 0.62824 0.90838 0.0
H968 H 0.95046 0.60741 0.8951 0.0
H969 H 0.93682 0.64082 0.87773 0.0
H970 H 0.98999 0.66043 0.88517 0.0
H971 H 1.00381 0.627 0.90245 0.0
H972 H 1.00639 0.66105 0.92087 0.0
H973 H 0.93951 0.65957 0.01436 0.0
H974 H 0.9598 0.61049 0.02915 0.0
H975 H 0.98362 0.5898 0.94035 0.0
C976 C 0.93493 0.69924 0.90733 0.0
C977 C 0.91962 0.72499 0.91876 0.0
C978 C 0.91527 0.72717 0.94897 0.0
C979 C 0.92502 0.70421 0.96736 0.0
C980 C 0.93936 0.67899 0.95543 0.0
C981 C 0.94455 0.67634 0.92616 0.0
C982 C 0.96004 0.64647 0.91909 0.0
C983 C 0.9398 0.62975 0.89888 0.0
C984 C 0.99195 0.64889 0.90613 0.0
C985 C 0.96243 0.63282 0.94888 0.0
C986 C 0.95035 0.65205 0.96948 0.0
C987 C 0.94922 0.64437 0.99844 0.0
C988 C 0.96077 0.61635 1.00664 0.0
C989 C 0.97343 0.59615 0.98604 0.0
C990 C 0.97428 0.60469 0.95673 0.0
H991 H 0.44161 0.74264 0.0262 0.0
H992 H 0.49248 0.7119 0.10229 0.0
H993 H 0.51178 0.76 0.1086 0.0
H994 H 0.49824 0.78919 1.00004 0.0
H995 H 0.46969 0.81683 0.98765 0.0
H996 H 0.46108 0.77949 0.98834 0.0
H997 H 0.41345 0.7937 0.0199 0.0
H998 H 0.42202 0.83103 0.01944 0.0
H999 H 0.41812 0.81286 0.05331 0.0
H1000 H 0.52345 0.81205 0.10815 0.0
H1001 H 0.52773 0.86423 0.10002 0.0
H1002 H 0.47003 0.86061 0.02381 0.0
C1003 C 0.4569 0.74602 0.04411 0.0
C1004 C 0.46573 0.72348 0.06361 0.0
C1005 C 0.48586 0.72871 0.08675 0.0
C1006 C 0.49679 0.756 0.09065 0.0
C1007 C 0.48746 0.77781 0.07118 0.0
C1008 C 0.46812 0.77311 0.04828 0.0
C1009 C 0.46118 0.80038 0.03076 0.0
C1010 C 0.47328 0.79622 0.99987 0.0
C1011 C 0.42664 0.81006 0.03088 0.0
C1012 C 0.4793 0.8212 0.04764 0.0
C1013 C 0.49433 0.80777 0.07085 0.0
C1014 C 0.512 0.82278 0.0899 0.0
C1015 C 0.5144 0.85236 0.08504 0.0
C1016 C 0.49921 0.86655 0.06131 0.0
C1017 C 0.48157 0.85057 0.04239 0.0
H1018 H 0.04094 0.29261 0.56549 0.0
H1019 H 0.13068 0.28455 0.60643 0.0
H1020 H 0.12514 0.23289 0.61618 0.0
H1021 H 1.0044 0.24218 0.61292 0.0
H1022 H 0.98304 0.22748 0.5838 0.0
H1023 H 0.99266 0.26453 0.58242 0.0
H1024 H 0.01911 0.25459 0.53315 0.0
H1025 H 0.00933 0.21768 0.53429 0.0
H1026 H 0.04877 0.22523 0.52995 0.0
H1027 H 0.11162 0.18188 0.61866 0.0
H1028 H 0.09252 0.13383 0.61057 0.0
H1029 H 0.0117 0.17465 0.56773 0.0
C1030 C 0.05917 0.28001 0.57688 0.0
C1031 C 0.08622 0.29245 0.58524 0.0
C1032 C 0.10989 0.27527 0.59964 0.0
C1033 C 0.10682 0.24604 0.60553 0.0
C1034 C 0.07993 0.23436 0.59691 0.0
C1035 C 0.05656 0.25071 0.58276 0.0
C1036 C 0.03114 0.23229 0.57378 0.0
C1037 C 1.00103 0.24222 0.58916 0.0
C1038 C 0.02686 0.23245 0.54084 0.0
C1039 C 0.04422 0.2029 0.58449 0.0
C1040 C 0.07216 0.20469 0.59816 0.0
C1041 C 0.08961 0.18021 0.60829 0.0
C1042 C 0.07863 0.15305 0.60357 0.0
C1043 C 0.05059 0.15064 0.58873 0.0
C1044 C 0.03284 0.17596 0.57975 0.0
H1045 H 0.57744 0.33355 0.38861 0.0
H1046 H 0.57312 0.27405 0.46011 0.0
H1047 H 0.55212 0.31421 0.49106 0.0
H1048 H 0.60093 0.39263 0.4291 0.0
H1049 H 0.57817 0.42033 0.40941 0.0
H1050 H 0.59089 0.38668 0.39195 0.0
H1051 H 0.53472 0.37845 0.3786 0.0
H1052 H 0.52188 0.41223 0.39584 0.0
H1053 H 0.50625 0.37917 0.40653 0.0
H1054 H 0.53532 0.36134 0.51563 0.0
H1055 H 0.52103 0.41184 0.53106 0.0
H1056 H 0.53456 0.44116 0.44375 0.0
C1057 C 0.57145 0.3289 0.41059 0.0
C1058 C 0.57717 0.30054 0.4219 0.0
C1059 C 0.56938 0.29555 0.45098 0.0
C1060 C 0.5573 0.31824 0.46875 0.0
C1061 C 0.55278 0.34601 0.45725 0.0
C1062 C 0.55926 0.35144 0.42875 0.0
C1063 C 0.55305 0.38355 0.42216 0.0
C1064 C 0.58252 0.39656 0.4126 0.0
C1065 C 0.52745 0.38865 0.39944 0.0
C1066 C 0.54256 0.39525 0.45145 0.0
C1067 C 0.54257 0.37321 0.47137 0.0
C1068 C 0.5349 0.37876 0.50012 0.0
C1069 C 0.5269 0.40756 0.50874 0.0
C1070 C 0.52647 0.43056 0.4887 0.0
C1071 C 0.53435 0.42411 0.45963 0.0
loop_
_geom_bond_atom_site_label_1
_geom_bond_atom_site_label_2
_geom_bond_distance
_geom_bond_site_symmetry_2
_ccdc_geom_bond_type
C0 C1 1.384 . S
C0 H13 0.947 . S
C0 C35 1.382 . S
C1 C0 1.384 . S
C1 C2 1.378 . S
C2 C1 1.378 . S
C2 C3 1.378 . S
C2 H14 0.952 . S
C3 C2 1.378 . S
C3 H15 0.950 . S
C3 C34 1.383 . S
H4 C23 0.947 . S
H5 C24 0.946 . S
H6 C26 0.953 . S
H7 C27 0.945 . S
H8 C29 0.952 . S
H9 C30 0.949 . S
H10 C32 0.950 . S
H11 C33 0.948 . S
H12 C35 0.951 . S
H13 C0 0.947 . S
H14 C2 0.952 . S
H15 C3 0.950 . S
N16 C19 1.382 . S
N16 C21 1.363 . S
N17 C19 1.371 . S
N17 C20 1.372 . S
N18 C20 1.361 . S
N18 C21 1.377 . S
C19 N16 1.382 . S
C19 N17 1.371 . S
C19 C22 1.480 . S
C20 N17 1.372 . S
C20 N18 1.361 . S
C20 C28 1.457 . S
C21 N16 1.363 . S
C21 N18 1.377 . S
C21 C34 1.479 . S
C22 C19 1.480 . S
C22 C23 1.383 . S
C22 C27 1.385 . S
C23 H4 0.947 . S
C23 C22 1.383 . S
C23 C24 1.388 . S
C24 H5 0.946 . S
C24 C23 1.388 . S
C24 C25 1.384 . S
C25 C24 1.384 . S
C25 C26 1.377 . S
C26 H6 0.953 . S
C26 C25 1.377 . S
C26 C27 1.369 . S
C27 H7 0.945 . S
C27 C22 1.385 . S
C27 C26 1.369 . S
C28 C20 1.457 . S
C28 C29 1.372 . S
C28 C33 1.364 . S
C29 H8 0.952 . S
C29 C28 1.372 . S
C29 C30 1.389 . S
C30 H9 0.949 . S
C30 C29 1.389 . S
C30 C31 1.387 . S
C31 C30 1.387 . S
C31 C32 1.372 . S
C32 H10 0.950 . S
C32 C31 1.372 . S
C32 C33 1.379 . S
C33 H11 0.948 . S
C33 C28 1.364 . S
C33 C32 1.379 . S
C34 C3 1.383 . S
C34 C21 1.479 . S
C34 C35 1.398 . S
C35 C0 1.382 . S
C35 H12 0.951 . S
C35 C34 1.398 . S
C36 C37 1.384 . S
C36 H49 0.947 . S
C36 C71 1.382 . S
C37 C36 1.384 . S
C37 C38 1.378 . S
C38 C37 1.378 . S
C38 C39 1.378 . S
C38 H50 0.952 . S
C39 C38 1.378 . S
C39 H51 0.950 . S
C39 C70 1.383 . S
H40 C59 0.947 . S
H41 C60 0.946 . S
H42 C62 0.953 . S
H43 C63 0.945 . S
H44 C65 0.952 . S
H45 C66 0.949 . S
H46 C68 0.950 . S
H47 C69 0.948 . S
H48 C71 0.951 . S
H49 C36 0.947 . S
H50 C38 0.952 . S
H51 C39 0.950 . S
N52 C55 1.382 . S
N52 C57 1.363 . S
N53 C55 1.371 . S
N53 C56 1.372 . S
N54 C56 1.361 . S
N54 C57 1.377 . S
C55 N52 1.382 . S
C55 N53 1.371 . S
C55 C58 1.480 . S
C56 N53 1.372 . S
C56 N54 1.361 . S
C56 C64 1.457 . S
C57 N52 1.363 . S
C57 N54 1.377 . S
C57 C70 1.479 . S
C58 C55 1.480 . S
C58 C59 1.383 . S
C58 C63 1.385 . S
C59 H40 0.947 . S
C59 C58 1.383 . S
C59 C60 1.388 . S
C60 H41 0.946 . S
C60 C59 1.388 . S
C60 C61 1.384 . S
C61 C60 1.384 . S
C61 C62 1.377 . S
C62 H42 0.953 . S
C62 C61 1.377 . S
C62 C63 1.369 . S
C63 H43 0.945 . S
C63 C58 1.385 . S
C63 C62 1.369 . S
C64 C56 1.457 . S
C64 C65 1.372 . S
C64 C69 1.364 . S
C65 H44 0.952 . S
C65 C64 1.372 . S
C65 C66 1.389 . S
C66 H45 0.949 . S
C66 C65 1.389 . S
C66 C67 1.387 . S
C67 C66 1.387 . S
C67 C68 1.372 . S
C68 H46 0.950 . S
C68 C67 1.372 . S
C68 C69 1.379 . S
C69 H47 0.948 . S
C69 C64 1.364 . S
C69 C68 1.379 . S
C70 C39 1.383 . S
C70 C57 1.479 . S
C70 C71 1.398 . S
C71 C36 1.382 . S
C71 H48 0.951 . S
C71 C70 1.398 . S
C72 C73 1.384 . S
C72 H85 0.947 . S
C72 C107 1.382 . S
C73 C72 1.384 . S
C73 C74 1.378 . S
C74 C73 1.378 . S
C74 C75 1.378 . S
C74 H86 0.952 . S
C75 C74 1.378 . S
C75 H87 0.950 . S
C75 C106 1.383 . S
H76 C95 0.947 . S
H77 C96 0.946 . S
H78 C98 0.953 . S
H79 C99 0.945 . S
H80 C101 0.952 . S
H81 C102 0.949 . S
H82 C104 0.950 . S
H83 C105 0.948 . S
H84 C107 0.951 . S
H85 C72 0.947 . S
H86 C74 0.952 . S
H87 C75 0.950 . S
N88 C91 1.382 . S
N88 C93 1.363 . S
N89 C91 1.371 . S
N89 C92 1.372 . S
N90 C92 1.361 . S
N90 C93 1.377 . S
C91 N88 1.382 . S
C91 N89 1.371 . S
C91 C94 1.480 . S
C92 N89 1.372 . S
C92 N90 1.361 . S
C92 C100 1.457 . S
C93 N88 1.363 . S
C93 N90 1.377 . S
C93 C106 1.479 . S
C94 C91 1.480 . S
C94 C95 1.383 . S
C94 C99 1.385 . S
C95 H76 0.947 . S
C95 C94 1.383 . S
C95 C96 1.388 . S
C96 H77 0.946 . S
C96 C95 1.388 . S
C96 C97 1.384 . S
C97 C96 1.384 . S
C97 C98 1.377 . S
C98 H78 0.953 . S
C98 C97 1.377 . S
C98 C99 1.369 . S
C99 H79 0.945 . S
C99 C94 1.385 . S
C99 C98 1.369 . S
C100 C92 1.457 . S
C100 C101 1.372 . S
C100 C105 1.364 . S
C101 H80 0.952 . S
C101 C100 1.372 . S
C101 C102 1.389 . S
C102 H81 0.949 . S
C102 C101 1.389 . S
C102 C103 1.387 . S
C103 C102 1.387 . S
C103 C104 1.372 . S
C104 H82 0.950 . S
C104 C103 1.372 . S
C104 C105 1.379 . S
C105 H83 0.948 . S
C105 C100 1.364 . S
C105 C104 1.379 . S
C106 C75 1.383 . S
C106 C93 1.479 . S
C106 C107 1.398 . S
C107 C72 1.382 . S
C107 H84 0.951 . S
C107 C106 1.398 . S
C108 C109 1.384 . S
C108 H121 0.947 . S
C108 C143 1.382 . S
C109 C108 1.384 . S
C109 C110 1.378 . S
C110 C109 1.378 . S
C110 C111 1.378 . S
C110 H122 0.952 . S
C111 C110 1.378 . S
C111 H123 0.950 . S
C111 C142 1.383 . S
H112 C131 0.947 . S
H113 C132 0.946 . S
H114 C134 0.953 . S
H115 C135 0.945 . S
H116 C137 0.952 . S
H117 C138 0.949 . S
H118 C140 0.950 . S
H119 C141 0.948 . S
H120 C143 0.951 . S
H121 C108 0.947 . S
H122 C110 0.952 . S
H123 C111 0.950 . S
N124 C127 1.382 . S
N124 C129 1.363 . S
N125 C127 1.371 . S
N125 C128 1.372 . S
N126 C128 1.361 . S
N126 C129 1.377 . S
C127 N124 1.382 . S
C127 N125 1.371 . S
C127 C130 1.480 . S
C128 N125 1.372 . S
C128 N126 1.361 . S
C128 C136 1.457 . S
C129 N124 1.363 . S
C129 N126 1.377 . S
C129 C142 1.479 . S
C130 C127 1.480 . S
C130 C131 1.383 . S
C130 C135 1.385 . S
C131 H112 0.947 . S
C131 C130 1.383 . S
C131 C132 1.388 . S
C132 H113 0.946 . S
C132 C131 1.388 . S
C132 C133 1.384 . S
C133 C132 1.384 . S
C133 C134 1.377 . S
C134 H114 0.953 . S
C134 C133 1.377 . S
C134 C135 1.369 . S
C135 H115 0.945 . S
C135 C130 1.385 . S
C135 C134 1.369 . S
C136 C128 1.457 . S
C136 C137 1.372 . S
C136 C141 1.364 . S
C137 H116 0.952 . S
C137 C136 1.372 . S
C137 C138 1.389 . S
C138 H117 0.949 . S
C138 C137 1.389 . S
C138 C139 1.387 . S
C139 C138 1.387 . S
C139 C140 1.372 . S
C140 H118 0.950 . S
C140 C139 1.372 . S
C140 C141 1.379 . S
C141 H119 0.948 . S
C141 C136 1.364 . S
C141 C140 1.379 . S
C142 C111 1.383 . S
C142 C129 1.479 . S
C142 C143 1.398 . S
C143 C108 1.382 . S
C143 H120 0.951 . S
C143 C142 1.398 . S
C144 C145 1.384 . S
C144 H157 0.947 . S
C144 C179 1.382 . S
C145 C144 1.384 . S
C145 C146 1.378 . S
C146 C145 1.378 . S
C146 C147 1.378 . S
C146 H158 0.952 . S
C147 C146 1.378 . S
C147 H159 0.950 . S
C147 C178 1.383 . S
H148 C167 0.947 . S
H149 C168 0.946 . S
H150 C170 0.953 . S
H151 C171 0.945 . S
H152 C173 0.952 . S
H153 C174 0.949 . S
H154 C176 0.950 . S
H155 C177 0.948 . S
H156 C179 0.951 . S
H157 C144 0.947 . S
H158 C146 0.952 . S
H159 C147 0.950 . S
N160 C163 1.382 . S
N160 C165 1.363 . S
N161 C163 1.371 . S
N161 C164 1.372 . S
N162 C164 1.361 . S
N162 C165 1.377 . S
C163 N160 1.382 . S
C163 N161 1.371 . S
C163 C166 1.480 . S
C164 N161 1.372 . S
C164 N162 1.361 . S
C164 C172 1.457 . S
C165 N160 1.363 . S
C165 N162 1.377 . S
C165 C178 1.479 . S
C166 C163 1.480 . S
C166 C167 1.383 . S
C166 C171 1.385 . S
C167 H148 0.947 . S
C167 C166 1.383 . S
C167 C168 1.388 . S
C168 H149 0.946 . S
C168 C167 1.388 . S
C168 C169 1.384 . S
C169 C168 1.384 . S
C169 C170 1.377 . S
C170 H150 0.953 . S
C170 C169 1.377 . S
C170 C171 1.369 . S
C171 H151 0.945 . S
C171 C166 1.385 . S
C171 C170 1.369 . S
C172 C164 1.457 . S
C172 C173 1.372 . S
C172 C177 1.364 . S
C173 H152 0.952 . S
C173 C172 1.372 . S
C173 C174 1.389 . S
C174 H153 0.949 . S
C174 C173 1.389 . S
C174 C175 1.387 . S
C175 C174 1.387 . S
C175 C176 1.372 . S
C176 H154 0.950 . S
C176 C175 1.372 . S
C176 C177 1.379 . S
C177 H155 0.948 . S
C177 C172 1.364 . S
C177 C176 1.379 . S
C178 C147 1.383 . S
C178 C165 1.479 . S
C178 C179 1.398 . S
C179 C144 1.382 . S
C179 H156 0.951 . S
C179 C178 1.398 . S
C180 C181 1.384 . S
C180 H193 0.947 . S
C180 C215 1.382 . S
C181 C180 1.384 . S
C181 C182 1.378 . S
C182 C181 1.378 . S
C182 C183 1.378 . S
C182 H194 0.952 . S
C183 C182 1.378 . S
C183 H195 0.950 . S
C183 C214 1.383 . S
H184 C203 0.947 . S
H185 C204 0.946 . S
H186 C206 0.953 . S
H187 C207 0.945 . S
H188 C209 0.952 . S
H189 C210 0.949 . S
H190 C212 0.950 . S
H191 C213 0.948 . S
H192 C215 0.951 . S
H193 C180 0.947 . S
H194 C182 0.952 . S
H195 C183 0.950 . S
N196 C199 1.382 . S
N196 C201 1.363 . S
N197 C199 1.371 . S
N197 C200 1.372 . S
N198 C200 1.361 . S
N198 C201 1.377 . S
C199 N196 1.382 . S
C199 N197 1.371 . S
C199 C202 1.480 . S
C200 N197 1.372 . S
C200 N198 1.361 . S
C200 C208 1.457 . S
C201 N196 1.363 . S
C201 N198 1.377 . S
C201 C214 1.479 . S
C202 C199 1.480 . S
C202 C203 1.383 . S
C202 C207 1.385 . S
C203 H184 0.947 . S
C203 C202 1.383 . S
C203 C204 1.388 . S
C204 H185 0.946 . S
C204 C203 1.388 . S
C204 C205 1.384 . S
C205 C204 1.384 . S
C205 C206 1.377 . S
C206 H186 0.953 . S
C206 C205 1.377 . S
C206 C207 1.369 . S
C207 H187 0.945 . S
C207 C202 1.385 . S
C207 C206 1.369 . S
C208 C200 1.457 . S
C208 C209 1.372 . S
C208 C213 1.364 . S
C209 H188 0.952 . S
C209 C208 1.372 . S
C209 C210 1.389 . S
C210 H189 0.949 . S
C210 C209 1.389 . S
C210 C211 1.387 . S
C211 C210 1.387 . S
C211 C212 1.372 . S
C212 H190 0.950 . S
C212 C211 1.372 . S
C212 C213 1.379 . S
C213 H191 0.948 . S
C213 C208 1.364 . S
C213 C212 1.379 . S
C214 C183 1.383 . S
C214 C201 1.479 . S
C214 C215 1.398 . S
C215 C180 1.382 . S
C215 H192 0.951 . S
C215 C214 1.398 . S
C216 C217 1.384 . S
C216 H229 0.947 . S
C216 C251 1.382 . S
C217 C216 1.384 . S
C217 C218 1.378 . S
C218 C217 1.378 . S
C218 C219 1.378 . S
C218 H230 0.952 . S
C219 C218 1.378 . S
C219 H231 0.950 . S
C219 C250 1.383 . S
H220 C239 0.947 . S
H221 C240 0.946 . S
H222 C242 0.953 . S
H223 C243 0.945 . S
H224 C245 0.952 . S
H225 C246 0.949 . S
H226 C248 0.950 . S
H227 C249 0.948 . S
H228 C251 0.951 . S
H229 C216 0.947 . S
H230 C218 0.952 . S
H231 C219 0.950 . S
N232 C235 1.382 . S
N232 C237 1.363 . S
N233 C235 1.371 . S
N233 C236 1.372 . S
N234 C236 1.361 . S
N234 C237 1.377 . S
C235 N232 1.382 . S
C235 N233 1.371 . S
C235 C238 1.480 . S
C236 N233 1.372 . S
C236 N234 1.361 . S
C236 C244 1.457 . S
C237 N232 1.363 . S
C237 N234 1.377 . S
C237 C250 1.479 . S
C238 C235 1.480 . S
C238 C239 1.383 . S
C238 C243 1.385 . S
C239 H220 0.947 . S
C239 C238 1.383 . S
C239 C240 1.388 . S
C240 H221 0.946 . S
C240 C239 1.388 . S
C240 C241 1.384 . S
C241 C240 1.384 . S
C241 C242 1.377 . S
C242 H222 0.953 . S
C242 C241 1.377 . S
C242 C243 1.369 . S
C243 H223 0.945 . S
C243 C238 1.385 . S
C243 C242 1.369 . S
C244 C236 1.457 . S
C244 C245 1.372 . S
C244 C249 1.364 . S
C245 H224 0.952 . S
C245 C244 1.372 . S
C245 C246 1.389 . S
C246 H225 0.949 . S
C246 C245 1.389 . S
C246 C247 1.387 . S
C247 C246 1.387 . S
C247 C248 1.372 . S
C248 H226 0.950 . S
C248 C247 1.372 . S
C248 C249 1.379 . S
C249 H227 0.948 . S
C249 C244 1.364 . S
C249 C248 1.379 . S
C250 C219 1.383 . S
C250 C237 1.479 . S
C250 C251 1.398 . S
C251 C216 1.382 . S
C251 H228 0.951 . S
C251 C250 1.398 . S
C252 C253 1.384 . S
C252 H265 0.947 . S
C252 C287 1.382 . S
C253 C252 1.384 . S
C253 C254 1.378 . S
C254 C253 1.378 . S
C254 C255 1.378 . S
C254 H266 0.952 . S
C255 C254 1.378 . S
C255 H267 0.950 . S
C255 C286 1.383 . S
H256 C275 0.947 . S
H257 C276 0.946 . S
H258 C278 0.953 . S
H259 C279 0.945 . S
H260 C281 0.952 . S
H261 C282 0.949 . S
H262 C284 0.950 . S
H263 C285 0.948 . S
H264 C287 0.951 . S
H265 C252 0.947 . S
H266 C254 0.952 . S
H267 C255 0.950 . S
N268 C271 1.382 . S
N268 C273 1.363 . S
N269 C271 1.371 . S
N269 C272 1.372 . S
N270 C272 1.361 . S
N270 C273 1.377 . S
C271 N268 1.382 . S
C271 N269 1.371 . S
C271 C274 1.480 . S
C272 N269 1.372 . S
C272 N270 1.361 . S
C272 C280 1.457 . S
C273 N268 1.363 . S
C273 N270 1.377 . S
C273 C286 1.479 . S
C274 C271 1.480 . S
C274 C275 1.383 . S
C274 C279 1.385 . S
C275 H256 0.947 . S
C275 C274 1.383 . S
C275 C276 1.388 . S
C276 H257 0.946 . S
C276 C275 1.388 . S
C276 C277 1.384 . S
C277 C276 1.384 . S
C277 C278 1.377 . S
C278 H258 0.953 . S
C278 C277 1.377 . S
C278 C279 1.369 . S
C279 H259 0.945 . S
C279 C274 1.385 . S
C279 C278 1.369 . S
C280 C272 1.457 . S
C280 C281 1.372 . S
C280 C285 1.364 . S
C281 H260 0.952 . S
C281 C280 1.372 . S
C281 C282 1.389 . S
C282 H261 0.949 . S
C282 C281 1.389 . S
C282 C283 1.387 . S
C283 C282 1.387 . S
C283 C284 1.372 . S
C284 H262 0.950 . S
C284 C283 1.372 . S
C284 C285 1.379 . S
C285 H263 0.948 . S
C285 C280 1.364 . S
C285 C284 1.379 . S
C286 C255 1.383 . S
C286 C273 1.479 . S
C286 C287 1.398 . S
C287 C252 1.382 . S
C287 H264 0.951 . S
C287 C286 1.398 . S
C288 O304 1.251 . S
C288 O306 1.254 1_545 S
N289 C290 1.333 . S
N289 C294 1.307 . S
N289 Zn295 2.020 . S
C290 N289 1.333 . S
C290 C291 1.379 . S
C290 H308 0.952 . S
C291 C290 1.379 . S
C291 C292 1.390 . S
C291 H318 0.949 . S
C292 C291 1.390 . S
C292 C293 1.357 . S
C293 C292 1.357 . S
C293 C294 1.370 . S
C293 H319 0.950 . S
C294 N289 1.307 . S
C294 C293 1.370 . S
C294 H312 0.948 1_455 S
Zn295 N289 2.020 . S
Zn295 O304 2.039 . S
Zn295 O310 2.034 . S
Zn295 O314 2.025 1_455 S
Zn295 O316 2.024 1_455 S
C296 O315 1.246 1_545 S
C296 O316 1.249 . S
N297 C298 1.307 . S
N297 C299 1.333 . S
N297 Zn303 2.020 . S
C298 N297 1.307 . S
C298 C302 1.370 . S
C298 H309 0.948 1_655 S
C299 N297 1.333 . S
C299 C300 1.379 . S
C299 H307 0.952 . S
C300 C299 1.379 . S
C300 C301 1.390 . S
C300 H320 0.949 . S
C301 C300 1.390 . S
C301 C302 1.357 . S
C302 C298 1.370 . S
C302 C301 1.357 . S
C302 H321 0.968 . S
Zn303 N297 2.020 . S
Zn303 O306 2.025 1_655 S
Zn303 O311 2.024 1_655 S
Zn303 O313 2.039 . S
Zn303 O315 2.034 . S
O304 C288 1.251 . S
O304 Zn295 2.039 . S
C305 O310 1.246 1_565 S
C305 O311 1.249 . S
O306 C288 1.254 1_565 S
O306 Zn303 2.025 1_455 S
H307 C299 0.952 . S
H308 C290 0.952 . S
H309 C298 0.948 1_455 S
O310 Zn295 2.034 . S
O310 C305 1.246 1_545 S
O311 Zn303 2.024 1_455 S
O311 C305 1.249 . S
H312 C294 0.948 1_655 S
O313 Zn303 2.039 . S
O313 C317 1.251 . S
O314 Zn295 2.025 1_655 S
O314 C317 1.254 1_545 S
O315 C296 1.246 1_565 S
O315 Zn303 2.034 . S
O316 Zn295 2.024 1_655 S
O316 C296 1.249 . S
C317 O313 1.251 . S
C317 O314 1.254 1_565 S
H318 C291 0.949 . S
H319 C293 0.950 . S
H320 C300 0.949 . S
H321 C302 0.968 . S
C322 O338 1.251 1_565 S
C322 O340 1.254 . S
N323 C324 1.333 . S
N323 C328 1.307 . S
N323 Zn329 2.020 . S
C324 N323 1.333 . S
C324 C325 1.379 . S
C324 H342 0.952 . S
C325 C324 1.379 . S
C325 C326 1.390 . S
C325 H352 0.949 . S
C326 C325 1.390 . S
C326 C327 1.357 . S
C327 C326 1.357 . S
C327 C328 1.370 . S
C327 H353 0.950 . S
C328 N323 1.307 . S
C328 C327 1.370 . S
C328 H346 0.948 . S
Zn329 N323 2.020 . S
Zn329 O338 2.039 . S
Zn329 O344 2.034 1_556 S
Zn329 O348 2.025 1_556 S
Zn329 O350 2.024 . S
C330 O349 1.246 . S
C330 O350 1.249 1_565 S
N331 C332 1.307 . S
N331 C333 1.333 . S
N331 Zn337 2.020 . S
C332 N331 1.307 . S
C332 C336 1.370 . S
C332 H343 0.948 . S
C333 N331 1.333 . S
C333 C334 1.379 . S
C333 H341 0.952 . S
C334 C333 1.379 . S
C334 C335 1.390 . S
C334 H354 0.949 . S
C335 C334 1.390 . S
C335 C336 1.357 . S
C336 C332 1.370 . S
C336 C335 1.357 . S
C336 H355 0.950 . S
Zn337 N331 2.020 . S
Zn337 O340 2.025 1_554 S
Zn337 O345 2.024 . S
Zn337 O347 2.039 . S
Zn337 O349 2.034 1_554 S
O338 C322 1.251 1_545 S
O338 Zn329 2.039 . S
C339 O344 1.246 . S
C339 O345 1.249 1_545 S
O340 C322 1.254 . S
O340 Zn337 2.025 1_556 S
H341 C333 0.952 . S
H342 C324 0.952 . S
H343 C332 0.948 . S
O344 Zn329 2.034 1_554 S
O344 C339 1.246 . S
O345 Zn337 2.024 . S
O345 C339 1.249 1_565 S
H346 C328 0.948 . S
O347 Zn337 2.039 . S
O347 C351 1.251 1_565 S
O348 Zn329 2.025 1_554 S
O348 C351 1.254 . S
O349 C330 1.246 . S
O349 Zn337 2.034 1_556 S
O350 Zn329 2.024 . S
O350 C330 1.249 1_545 S
C351 O347 1.251 1_545 S
C351 O348 1.254 . S
H352 C325 0.949 . S
H353 C327 0.950 . S
H354 C334 0.949 . S
H355 C336 0.950 . S
C356 O372 1.251 . S
C356 O374 1.254 . S
N357 C358 1.333 . S
N357 C362 1.307 . S
N357 Zn363 2.020 . S
C358 N357 1.333 . S
C358 C359 1.379 . S
C358 H376 0.952 . S
C359 C358 1.379 . S
C359 C360 1.390 . S
C359 H386 0.949 . S
C360 C359 1.390 . S
C360 C361 1.357 . S
C361 C360 1.357 . S
C361 C362 1.370 . S
C361 H387 0.950 . S
C362 N357 1.307 . S
C362 C361 1.370 . S
C362 H380 0.948 . S
Zn363 N357 2.020 . S
Zn363 O372 2.039 . S
Zn363 O378 2.034 . S
Zn363 O382 2.025 . S
Zn363 O384 2.024 . S
C364 O383 1.246 . S
C364 O384 1.249 . S
N365 C366 1.307 . S
N365 C367 1.333 . S
N365 Zn371 2.020 . S
C366 N365 1.307 . S
C366 C370 1.370 . S
C366 H377 0.948 . S
C367 N365 1.333 . S
C367 C368 1.379 . S
C367 H375 0.952 . S
C368 C367 1.379 . S
C368 C369 1.390 . S
C368 H388 0.949 . S
C369 C368 1.390 . S
C369 C370 1.357 . S
C370 C366 1.370 . S
C370 C369 1.357 . S
C370 H389 0.950 . S
Zn371 N365 2.020 . S
Zn371 O374 2.025 . S
Zn371 O379 2.024 . S
Zn371 O381 2.039 . S
Zn371 O383 2.034 . S
O372 C356 1.251 . S
O372 Zn363 2.039 . S
C373 O378 1.246 . S
C373 O379 1.249 . S
O374 C356 1.254 . S
O374 Zn371 2.025 . S
H375 C367 0.952 . S
H376 C358 0.952 . S
H377 C366 0.948 . S
O378 Zn363 2.034 . S
O378 C373 1.246 . S
O379 Zn371 2.024 . S
O379 C373 1.249 . S
H380 C362 0.948 . S
O381 Zn371 2.039 . S
O381 C385 1.251 . S
O382 Zn363 2.025 . S
O382 C385 1.254 . S
O383 C364 1.246 . S
O383 Zn371 2.034 . S
O384 Zn363 2.024 . S
O384 C364 1.249 . S
C385 O381 1.251 . S
C385 O382 1.254 . S
H386 C359 0.949 . S
H387 C361 0.950 . S
H388 C368 0.949 . S
H389 C370 0.950 . S
C390 O406 1.251 1_556 S
C390 O408 1.254 . S
N391 C392 1.333 . S
N391 C396 1.307 . S
N391 Zn397 2.020 . S
C392 N391 1.333 . S
C392 C393 1.379 . S
C392 H410 0.952 . S
C393 C392 1.379 . S
C393 C394 1.390 . S
C393 H420 0.949 . S
C394 C393 1.390 . S
C394 C395 1.357 . S
C395 C394 1.357 . S
C395 C396 1.370 . S
C395 H421 0.950 . S
C396 N391 1.307 . S
C396 C395 1.370 . S
C396 H414 0.948 . S
Zn397 N391 2.020 . S
Zn397 O406 2.039 . S
Zn397 O412 2.034 1_655 S
Zn397 O416 2.025 1_655 S
Zn397 O418 2.024 . S
C398 O417 1.246 . S
C398 O418 1.249 1_556 S
N399 C400 1.307 . S
N399 C401 1.333 . S
N399 Zn405 2.020 . S
C400 N399 1.307 . S
C400 C404 1.370 . S
C400 H411 0.948 . S
C401 N399 1.333 . S
C401 C402 1.379 . S
C401 H409 0.952 . S
C402 C401 1.379 . S
C402 C403 1.390 . S
C402 H422 0.949 . S
C403 C402 1.390 . S
C403 C404 1.357 . S
C404 C400 1.370 . S
C404 C403 1.357 . S
C404 H423 0.950 . S
Zn405 N399 2.020 . S
Zn405 O408 2.025 1_455 S
Zn405 O413 2.024 . S
Zn405 O415 2.039 . S
Zn405 O417 2.034 1_455 S
O406 C390 1.251 1_554 S
O406 Zn397 2.039 . S
C407 O412 1.246 . S
C407 O413 1.249 1_554 S
O408 C390 1.254 . S
O408 Zn405 2.025 1_655 S
H409 C401 0.952 . S
H410 C392 0.952 . S
H411 C400 0.948 . S
O412 Zn397 2.034 1_455 S
O412 C407 1.246 . S
O413 Zn405 2.024 . S
O413 C407 1.249 1_556 S
H414 C396 0.948 . S
O415 Zn405 2.039 . S
O415 C419 1.251 1_556 S
O416 Zn397 2.025 1_455 S
O416 C419 1.254 . S
O417 C398 1.246 . S
O417 Zn405 2.034 1_655 S
O418 Zn397 2.024 . S
O418 C398 1.249 1_554 S
C419 O415 1.251 1_554 S
C419 O416 1.254 . S
H420 C393 0.949 . S
H421 C395 0.950 . S
H422 C402 0.949 . S
H423 C404 0.950 . S
H424 C436 0.930 . S
H425 C438 0.930 . S
H426 C439 0.930 . S
H427 C443 0.959 1_655 S
H428 C443 0.959 1_565 S
H429 C443 0.965 . S
H430 C444 0.960 . S
H431 C444 0.961 . S
H432 C444 0.959 1_545 S
H433 C447 0.929 . S
H434 C448 0.931 . S
H435 C450 0.927 1_565 S
C436 H424 0.930 . S
C436 C437 1.399 . S
C436 C441 1.399 . S
C437 C436 1.399 . S
C437 C438 1.376 . S
C438 H425 0.930 . S
C438 C437 1.376 . S
C438 C439 1.388 . S
C439 H426 0.930 . S
C439 C438 1.388 . S
C439 C440 1.390 . S
C440 C439 1.390 . S
C440 C441 1.394 . S
C440 C446 1.465 . S
C441 C436 1.399 . S
C441 C440 1.394 . S
C441 C442 1.516 . S
C442 C441 1.516 . S
C442 C443 1.502 . S
C442 C444 1.561 1_545 S
C442 C445 1.526 . S
C443 H427 0.959 1_455 S
C443 H428 0.959 1_545 S
C443 H429 0.965 . S
C443 C442 1.502 . S
C444 H430 0.960 . S
C444 H431 0.961 . S
C444 H432 0.959 1_565 S
C444 C442 1.561 1_565 S
C445 C442 1.526 . S
C445 C446 1.396 . S
C445 C450 1.390 . S
C446 C440 1.465 . S
C446 C445 1.396 . S
C446 C447 1.399 . S
C447 H433 0.929 . S
C447 C446 1.399 . S
C447 C448 1.385 . S
C448 H434 0.931 . S
C448 C447 1.385 . S
C448 C449 1.389 . S
C449 C448 1.389 . S
C449 C450 1.387 . S
C450 H435 0.927 1_545 S
C450 C445 1.390 . S
C450 C449 1.387 . S
H451 C463 0.930 . S
H452 C465 0.930 . S
H453 C466 0.930 . S
H454 C470 0.959 1_565 S
H455 C470 0.959 . S
H456 C470 0.961 . S
H457 C471 0.960 . S
H458 C471 0.961 . S
H459 C471 0.959 . S
H460 C474 0.929 . S
H461 C475 0.931 . S
H462 C477 0.930 1_545 S
C463 H451 0.930 . S
C463 C464 1.399 . S
C463 C468 1.399 . S
C464 C463 1.399 . S
C464 C465 1.376 . S
C465 H452 0.930 . S
C465 C464 1.376 . S
C465 C466 1.388 . S
C466 H453 0.930 . S
C466 C465 1.388 . S
C466 C467 1.390 . S
C467 C466 1.390 . S
C467 C468 1.394 . S
C467 C473 1.465 . S
C468 C463 1.399 . S
C468 C467 1.394 . S
C468 C469 1.516 . S
C469 C468 1.516 . S
C469 C470 1.502 1_565 S
C469 C471 1.561 1_565 S
C469 C472 1.526 . S
C470 H454 0.959 1_545 S
C470 H455 0.959 . S
C470 H456 0.961 . S
C470 C469 1.502 1_545 S
C471 H457 0.960 . S
C471 H458 0.961 . S
C471 H459 0.959 . S
C471 C469 1.561 1_545 S
C472 C469 1.526 . S
C472 C473 1.396 . S
C472 C477 1.390 . S
C473 C467 1.465 . S
C473 C472 1.396 . S
C473 C474 1.399 . S
C474 H460 0.929 . S
C474 C473 1.399 . S
C474 C475 1.385 . S
C475 H461 0.931 . S
C475 C474 1.385 . S
C475 C476 1.389 . S
C476 C475 1.389 . S
C476 C477 1.387 . S
C477 H462 0.930 1_565 S
C477 C472 1.390 . S
C477 C476 1.387 . S
H478 C490 0.930 . S
H479 C492 0.930 . S
H480 C493 0.930 . S
H481 C497 0.959 . S
H482 C497 0.959 . S
H483 C497 0.961 . S
H484 C498 0.960 . S
H485 C498 0.961 . S
H486 C498 0.959 . S
H487 C501 0.929 . S
H488 C502 0.931 . S
H489 C504 0.930 . S
C490 H478 0.930 . S
C490 C491 1.399 . S
C490 C495 1.399 . S
C491 C490 1.399 . S
C491 C492 1.376 . S
C492 H479 0.930 . S
C492 C491 1.376 . S
C492 C493 1.388 . S
C493 H480 0.930 . S
C493 C492 1.388 . S
C493 C494 1.390 . S
C494 C493 1.390 . S
C494 C495 1.394 . S
C494 C500 1.465 . S
C495 C490 1.399 . S
C495 C494 1.394 . S
C495 C496 1.516 . S
C496 C495 1.516 . S
C496 C497 1.502 . S
C496 C498 1.561 . S
C496 C499 1.526 . S
C497 H481 0.959 . S
C497 H482 0.959 . S
C497 H483 0.961 . S
C497 C496 1.502 . S
C498 H484 0.960 . S
C498 H485 0.961 . S
C498 H486 0.959 . S
C498 C496 1.561 . S
C499 C496 1.526 . S
C499 C500 1.396 . S
C499 C504 1.390 . S
C500 C494 1.465 . S
C500 C499 1.396 . S
C500 C501 1.399 . S
C501 H487 0.929 . S
C501 C500 1.399 . S
C501 C502 1.385 . S
C502 H488 0.931 . S
C502 C501 1.385 . S
C502 C503 1.389 . S
C503 C502 1.389 . S
C503 C504 1.387 . S
C504 H489 0.930 . S
C504 C499 1.390 . S
C504 C503 1.387 . S
H505 C517 0.930 . S
H506 C519 0.930 . S
H507 C520 0.930 . S
H508 C524 0.959 . S
H509 C524 0.959 . S
H510 C524 0.961 . S
H511 C525 0.960 . S
H512 C525 0.961 . S
H513 C525 0.959 . S
H514 C528 0.929 . S
H515 C529 0.931 . S
H516 C531 0.930 . S
C517 H505 0.930 . S
C517 C518 1.399 . S
C517 C522 1.399 . S
C518 C517 1.399 . S
C518 C519 1.376 . S
C519 H506 0.930 . S
C519 C518 1.376 . S
C519 C520 1.388 . S
C520 H507 0.930 . S
C520 C519 1.388 . S
C520 C521 1.390 . S
C521 C520 1.390 . S
C521 C522 1.394 . S
C521 C527 1.465 . S
C522 C517 1.399 . S
C522 C521 1.394 . S
C522 C523 1.516 . S
C523 C522 1.516 . S
C523 C524 1.502 . S
C523 C525 1.561 . S
C523 C526 1.526 . S
C524 H508 0.959 . S
C524 H509 0.959 . S
C524 H510 0.961 . S
C524 C523 1.502 . S
C525 H511 0.960 . S
C525 H512 0.961 . S
C525 H513 0.959 . S
C525 C523 1.561 . S
C526 C523 1.526 . S
C526 C527 1.396 . S
C526 C531 1.390 . S
C527 C521 1.465 . S
C527 C526 1.396 . S
C527 C528 1.399 . S
C528 H514 0.929 . S
C528 C527 1.399 . S
C528 C529 1.385 . S
C529 H515 0.931 . S
C529 C528 1.385 . S
C529 C530 1.389 . S
C530 C529 1.389 . S
C530 C531 1.387 . S
C531 H516 0.930 . S
C531 C526 1.390 . S
C531 C530 1.387 . S
H532 C544 0.930 . S
H533 C546 0.930 . S
H534 C547 0.930 . S
H535 C551 0.959 . S
H536 C551 0.959 . S
H537 C551 0.961 . S
H538 C552 0.960 . S
H539 C552 0.961 . S
H540 C552 0.959 . S
H541 C555 0.929 1_556 S
H542 C556 0.931 1_556 S
H543 C558 0.930 . S
C544 H532 0.930 . S
C544 C545 1.399 . S
C544 C549 1.399 . S
C545 C544 1.399 . S
C545 C546 1.376 . S
C546 H533 0.930 . S
C546 C545 1.376 . S
C546 C547 1.388 . S
C547 H534 0.930 . S
C547 C546 1.388 . S
C547 C548 1.390 . S
C548 C547 1.390 . S
C548 C549 1.394 . S
C548 C554 1.465 . S
C549 C544 1.399 . S
C549 C548 1.394 . S
C549 C550 1.516 . S
C550 C549 1.516 . S
C550 C551 1.502 . S
C550 C552 1.561 . S
C550 C553 1.526 . S
C551 H535 0.959 . S
C551 H536 0.959 . S
C551 H537 0.961 . S
C551 C550 1.502 . S
C552 H538 0.960 . S
C552 H539 0.961 . S
C552 H540 0.959 . S
C552 C550 1.561 . S
C553 C550 1.526 . S
C553 C554 1.396 . S
C553 C558 1.390 . S
C554 C548 1.465 . S
C554 C553 1.396 . S
C554 C555 1.399 . S
C555 H541 0.929 1_554 S
C555 C554 1.399 . S
C555 C556 1.385 . S
C556 H542 0.931 1_554 S
C556 C555 1.385 . S
C556 C557 1.389 . S
C557 C556 1.389 . S
C557 C558 1.387 . S
C558 H543 0.930 . S
C558 C553 1.390 . S
C558 C557 1.387 . S
H559 C571 0.930 . S
H560 C573 0.930 . S
H561 C574 0.930 . S
H562 C578 0.959 . S
H563 C578 0.959 . S
H564 C578 0.961 . S
H565 C579 0.960 . S
H566 C579 0.961 . S
H567 C579 0.959 . S
H568 C582 0.929 . S
H569 C583 0.931 . S
H570 C585 0.930 . S
C571 H559 0.930 . S
C571 C572 1.399 . S
C571 C576 1.399 . S
C572 C571 1.399 . S
C572 C573 1.376 . S
C573 H560 0.930 . S
C573 C572 1.376 . S
C573 C574 1.388 . S
C574 H561 0.930 . S
C574 C573 1.388 . S
C574 C575 1.390 . S
C575 C574 1.390 . S
C575 C576 1.394 . S
C575 C581 1.465 . S
C576 C571 1.399 . S
C576 C575 1.394 . S
C576 C577 1.516 . S
C577 C576 1.516 . S
C577 C578 1.502 . S
C577 C579 1.561 . S
C577 C580 1.526 . S
C578 H562 0.959 . S
C578 H563 0.959 . S
C578 H564 0.961 . S
C578 C577 1.502 . S
C579 H565 0.960 . S
C579 H566 0.961 . S
C579 H567 0.959 . S
C579 C577 1.561 . S
C580 C577 1.526 . S
C580 C581 1.396 . S
C580 C585 1.390 . S
C581 C575 1.465 . S
C581 C580 1.396 . S
C581 C582 1.399 . S
C582 H568 0.929 . S
C582 C581 1.399 . S
C582 C583 1.385 . S
C583 H569 0.931 . S
C583 C582 1.385 . S
C583 C584 1.389 . S
C584 C583 1.389 . S
C584 C585 1.387 . S
C585 H570 0.930 . S
C585 C580 1.390 . S
C585 C584 1.387 . S
H586 C598 0.930 . S
H587 C600 0.930 . S
H588 C601 0.930 . S
H589 C605 0.959 . S
H590 C605 0.959 . S
H591 C605 0.961 . S
H592 C606 0.960 . S
H593 C606 0.961 . S
H594 C606 0.959 1_556 S
H595 C609 0.929 . S
H596 C610 0.931 . S
H597 C612 0.930 1_554 S
C598 H586 0.930 . S
C598 C599 1.399 . S
C598 C603 1.399 . S
C599 C598 1.399 . S
C599 C600 1.376 . S
C600 H587 0.930 . S
C600 C599 1.376 . S
C600 C601 1.388 . S
C601 H588 0.930 . S
C601 C600 1.388 . S
C601 C602 1.390 . S
C602 C601 1.390 . S
C602 C603 1.394 . S
C602 C608 1.465 . S
C603 C598 1.399 . S
C603 C602 1.394 . S
C603 C604 1.516 . S
C604 C603 1.516 . S
C604 C605 1.502 1_556 S
C604 C606 1.561 1_556 S
C604 C607 1.526 . S
C605 H589 0.959 . S
C605 H590 0.959 . S
C605 H591 0.961 . S
C605 C604 1.502 1_554 S
C606 H592 0.960 . S
C606 H593 0.961 . S
C606 H594 0.959 1_554 S
C606 C604 1.561 1_554 S
C607 C604 1.526 . S
C607 C608 1.396 . S
C607 C612 1.390 . S
C608 C602 1.465 . S
C608 C607 1.396 . S
C608 C609 1.399 . S
C609 H595 0.929 . S
C609 C608 1.399 . S
C609 C610 1.385 . S
C610 H596 0.931 . S
C610 C609 1.385 . S
C610 C611 1.389 . S
C611 C610 1.389 . S
C611 C612 1.387 . S
C612 H597 0.930 1_556 S
C612 C607 1.390 . S
C612 C611 1.387 . S
H613 C625 0.930 . S
H614 C627 0.930 . S
H615 C628 0.930 . S
H616 C632 0.959 . S
H617 C632 0.959 . S
H618 C632 0.961 . S
H619 C633 0.960 . S
H620 C633 0.961 . S
H621 C633 0.959 . S
H622 C636 0.929 . S
H623 C637 0.931 . S
H624 C639 0.930 . S
C625 H613 0.930 . S
C625 C626 1.399 . S
C625 C630 1.399 . S
C626 C625 1.399 . S
C626 C627 1.376 . S
C627 H614 0.930 . S
C627 C626 1.376 . S
C627 C628 1.388 . S
C628 H615 0.930 . S
C628 C627 1.388 . S
C628 C629 1.390 . S
C629 C628 1.390 . S
C629 C630 1.394 . S
C629 C635 1.465 . S
C630 C625 1.399 . S
C630 C629 1.394 . S
C630 C631 1.516 . S
C631 C630 1.516 . S
C631 C632 1.502 . S
C631 C633 1.561 . S
C631 C634 1.526 . S
C632 H616 0.959 . S
C632 H617 0.959 . S
C632 H618 0.961 . S
C632 C631 1.502 . S
C633 H619 0.960 . S
C633 H620 0.961 . S
C633 H621 0.959 . S
C633 C631 1.561 . S
C634 C631 1.526 . S
C634 C635 1.396 . S
C634 C639 1.390 . S
C635 C629 1.465 . S
C635 C634 1.396 . S
C635 C636 1.399 . S
C636 H622 0.929 . S
C636 C635 1.399 . S
C636 C637 1.385 . S
C637 H623 0.931 . S
C637 C636 1.385 . S
C637 C638 1.389 . S
C638 C637 1.389 . S
C638 C639 1.387 . S
C639 H624 0.930 . S
C639 C634 1.390 . S
C639 C638 1.387 . S
H640 C652 0.930 . S
H641 C654 0.930 . S
H642 C655 0.930 . S
H643 C659 0.959 . S
H644 C659 0.959 . S
H645 C659 0.961 . S
H646 C660 0.960 . S
H647 C660 0.961 . S
H648 C660 0.959 . S
H649 C663 0.929 1_556 S
H650 C664 0.931 1_556 S
H651 C666 0.930 . S
C652 H640 0.930 . S
C652 C653 1.399 . S
C652 C657 1.399 . S
C653 C652 1.399 . S
C653 C654 1.376 . S
C654 H641 0.930 . S
C654 C653 1.376 . S
C654 C655 1.388 . S
C655 H642 0.930 . S
C655 C654 1.388 . S
C655 C656 1.390 . S
C656 C655 1.390 . S
C656 C657 1.394 . S
C656 C662 1.465 . S
C657 C652 1.399 . S
C657 C656 1.394 . S
C657 C658 1.516 . S
C658 C657 1.516 . S
C658 C659 1.502 . S
C658 C660 1.561 . S
C658 C661 1.526 . S
C659 H643 0.959 . S
C659 H644 0.959 . S
C659 H645 0.961 . S
C659 C658 1.502 . S
C660 H646 0.960 . S
C660 H647 0.961 . S
C660 H648 0.959 . S
C660 C658 1.561 . S
C661 C658 1.526 . S
C661 C662 1.396 . S
C661 C666 1.390 . S
C662 C656 1.465 . S
C662 C661 1.396 . S
C662 C663 1.399 . S
C663 H649 0.929 1_554 S
C663 C662 1.399 . S
C663 C664 1.385 . S
C664 H650 0.931 1_554 S
C664 C663 1.385 . S
C664 C665 1.389 . S
C665 C664 1.389 . S
C665 C666 1.387 . S
C666 H651 0.930 . S
C666 C661 1.390 . S
C666 C665 1.387 . S
H667 C679 0.930 . S
H668 C681 0.930 . S
H669 C682 0.930 1_554 S
H670 C686 0.959 . S
H671 C686 0.959 . S
H672 C686 0.961 . S
H673 C687 0.960 . S
H674 C687 0.961 . S
H675 C687 0.959 . S
H676 C690 0.929 1_554 S
H677 C691 0.931 . S
H678 C693 0.930 . S
C679 H667 0.930 . S
C679 C680 1.399 . S
C679 C684 1.399 . S
C680 C679 1.399 . S
C680 C681 1.376 . S
C681 H668 0.930 . S
C681 C680 1.376 . S
C681 C682 1.388 . S
C682 H669 0.930 1_556 S
C682 C681 1.388 . S
C682 C683 1.390 . S
C683 C682 1.390 . S
C683 C684 1.394 . S
C683 C689 1.465 . S
C684 C679 1.399 . S
C684 C683 1.394 . S
C684 C685 1.516 . S
C685 C684 1.516 . S
C685 C686 1.502 . S
C685 C687 1.561 . S
C685 C688 1.526 . S
C686 H670 0.959 . S
C686 H671 0.959 . S
C686 H672 0.961 . S
C686 C685 1.502 . S
C687 H673 0.960 . S
C687 H674 0.961 . S
C687 H675 0.959 . S
C687 C685 1.561 . S
C688 C685 1.526 . S
C688 C689 1.396 . S
C688 C693 1.390 . S
C689 C683 1.465 . S
C689 C688 1.396 . S
C689 C690 1.399 . S
C690 H676 0.929 1_556 S
C690 C689 1.399 . S
C690 C691 1.385 . S
C691 H677 0.931 . S
C691 C690 1.385 . S
C691 C692 1.389 . S
C692 C691 1.389 . S
C692 C693 1.387 . S
C693 H678 0.930 . S
C693 C688 1.390 . S
C693 C692 1.387 . S
H694 C706 0.930 . S
H695 C708 0.930 . S
H696 C709 0.930 . S
H697 C713 0.959 . S
H698 C713 0.959 . S
H699 C713 0.961 . S
H700 C714 0.960 . S
H701 C714 0.961 . S
H702 C714 0.959 . S
H703 C717 0.929 . S
H704 C718 0.931 . S
H705 C720 0.930 . S
C706 H694 0.930 . S
C706 C707 1.399 . S
C706 C711 1.399 . S
C707 C706 1.399 . S
C707 C708 1.376 . S
C708 H695 0.930 . S
C708 C707 1.376 . S
C708 C709 1.388 . S
C709 H696 0.930 . S
C709 C708 1.388 . S
C709 C710 1.390 . S
C710 C709 1.390 . S
C710 C711 1.394 . S
C710 C716 1.465 . S
C711 C706 1.399 . S
C711 C710 1.394 . S
C711 C712 1.516 . S
C712 C711 1.516 . S
C712 C713 1.502 . S
C712 C714 1.561 . S
C712 C715 1.526 . S
C713 H697 0.959 . S
C713 H698 0.959 . S
C713 H699 0.961 . S
C713 C712 1.502 . S
C714 H700 0.960 . S
C714 H701 0.961 . S
C714 H702 0.959 . S
C714 C712 1.561 . S
C715 C712 1.526 . S
C715 C716 1.396 . S
C715 C720 1.390 . S
C716 C710 1.465 . S
C716 C715 1.396 . S
C716 C717 1.399 . S
C717 H703 0.929 . S
C717 C716 1.399 . S
C717 C718 1.385 . S
C718 H704 0.931 . S
C718 C717 1.385 . S
C718 C719 1.389 . S
C719 C718 1.389 . S
C719 C720 1.387 . S
C720 H705 0.930 . S
C720 C715 1.390 . S
C720 C719 1.387 . S
H721 C733 0.930 . S
H722 C735 0.930 . S
H723 C736 0.930 . S
H724 C740 0.959 . S
H725 C740 0.959 . S
H726 C740 0.961 . S
H727 C741 0.960 . S
H728 C741 0.961 . S
H729 C741 0.959 . S
H730 C744 0.929 . S
H731 C745 0.931 . S
H732 C747 0.930 . S
C733 H721 0.930 . S
C733 C734 1.399 . S
C733 C738 1.399 . S
C734 C733 1.399 . S
C734 C735 1.376 . S
C735 H722 0.930 . S
C735 C734 1.376 . S
C735 C736 1.388 . S
C736 H723 0.930 . S
C736 C735 1.388 . S
C736 C737 1.390 . S
C737 C736 1.390 . S
C737 C738 1.394 . S
C737 C743 1.465 . S
C738 C733 1.399 . S
C738 C737 1.394 . S
C738 C739 1.516 . S
C739 C738 1.516 . S
C739 C740 1.502 . S
C739 C741 1.561 . S
C739 C742 1.526 . S
C740 H724 0.959 . S
C740 H725 0.959 . S
C740 H726 0.961 . S
C740 C739 1.502 . S
C741 H727 0.960 . S
C741 H728 0.961 . S
C741 H729 0.959 . S
C741 C739 1.561 . S
C742 C739 1.526 . S
C742 C743 1.396 . S
C742 C747 1.390 . S
C743 C737 1.465 . S
C743 C742 1.396 . S
C743 C744 1.399 . S
C744 H730 0.929 . S
C744 C743 1.399 . S
C744 C745 1.385 . S
C745 H731 0.931 . S
C745 C744 1.385 . S
C745 C746 1.389 . S
C746 C745 1.389 . S
C746 C747 1.387 . S
C747 H732 0.930 . S
C747 C742 1.390 . S
C747 C746 1.387 . S
H748 C760 0.930 . S
H749 C762 0.930 . S
H750 C763 0.930 . S
H751 C767 0.959 . S
H752 C767 0.959 . S
H753 C767 0.961 . S
H754 C768 0.960 . S
H755 C768 0.961 . S
H756 C768 0.959 1_465 S
H757 C771 0.929 . S
H758 C772 0.931 . S
H759 C774 0.930 1_545 S
C760 H748 0.930 . S
C760 C761 1.399 . S
C760 C765 1.399 . S
C761 C760 1.399 . S
C761 C762 1.376 . S
C762 H749 0.930 . S
C762 C761 1.376 . S
C762 C763 1.388 . S
C763 H750 0.930 . S
C763 C762 1.388 . S
C763 C764 1.390 . S
C764 C763 1.390 . S
C764 C765 1.394 . S
C764 C770 1.465 . S
C765 C760 1.399 . S
C765 C764 1.394 . S
C765 C766 1.516 . S
C766 C765 1.516 . S
C766 C767 1.502 1_565 S
C766 C768 1.561 1_565 S
C766 C769 1.526 . S
C767 H751 0.959 . S
C767 H752 0.959 . S
C767 H753 0.961 . S
C767 C766 1.502 1_545 S
C768 H754 0.960 . S
C768 H755 0.961 . S
C768 H756 0.959 1_645 S
C768 C766 1.561 1_545 S
C769 C766 1.526 . S
C769 C770 1.396 . S
C769 C774 1.390 . S
C770 C764 1.465 . S
C770 C769 1.396 . S
C770 C771 1.399 . S
C771 H757 0.929 . S
C771 C770 1.399 . S
C771 C772 1.385 . S
C772 H758 0.931 . S
C772 C771 1.385 . S
C772 C773 1.389 . S
C773 C772 1.389 . S
C773 C774 1.387 . S
C774 H759 0.930 1_565 S
C774 C769 1.390 . S
C774 C773 1.387 . S
H775 C787 0.930 . S
H776 C789 0.930 . S
H777 C790 0.930 . S
H778 C794 0.959 . S
H779 C794 0.959 . S
H780 C794 0.961 . S
H781 C795 0.960 . S
H782 C795 0.961 . S
H783 C795 0.959 . S
H784 C798 0.929 1_565 S
H785 C799 0.931 1_565 S
H786 C801 0.930 . S
C787 H775 0.930 . S
C787 C788 1.399 . S
C787 C792 1.399 . S
C788 C787 1.399 . S
C788 C789 1.376 . S
C789 H776 0.930 . S
C789 C788 1.376 . S
C789 C790 1.388 . S
C790 H777 0.930 . S
C790 C789 1.388 . S
C790 C791 1.390 . S
C791 C790 1.390 . S
C791 C792 1.394 . S
C791 C797 1.465 . S
C792 C787 1.399 . S
C792 C791 1.394 . S
C792 C793 1.516 . S
C793 C792 1.516 . S
C793 C794 1.502 . S
C793 C795 1.561 . S
C793 C796 1.526 . S
C794 H778 0.959 . S
C794 H779 0.959 . S
C794 H780 0.961 . S
C794 C793 1.502 . S
C795 H781 0.960 . S
C795 H782 0.961 . S
C795 H783 0.959 . S
C795 C793 1.561 . S
C796 C793 1.526 . S
C796 C797 1.396 . S
C796 C801 1.390 . S
C797 C791 1.465 . S
C797 C796 1.396 . S
C797 C798 1.399 . S
C798 H784 0.929 1_545 S
C798 C797 1.399 . S
C798 C799 1.385 . S
C799 H785 0.931 1_545 S
C799 C798 1.385 . S
C799 C800 1.389 . S
C800 C799 1.389 . S
C800 C801 1.387 . S
C801 H786 0.930 . S
C801 C796 1.390 . S
C801 C800 1.387 . S
H802 C814 0.930 . S
H803 C816 0.930 . S
H804 C817 0.930 . S
H805 C821 0.959 . S
H806 C821 0.959 . S
H807 C821 0.961 . S
H808 C822 0.960 . S
H809 C822 0.961 . S
H810 C822 0.959 . S
H811 C825 0.929 . S
H812 C826 0.931 . S
H813 C828 0.930 . S
C814 H802 0.930 . S
C814 C815 1.399 . S
C814 C819 1.399 . S
C815 C814 1.399 . S
C815 C816 1.376 . S
C816 H803 0.930 . S
C816 C815 1.376 . S
C816 C817 1.388 . S
C817 H804 0.930 . S
C817 C816 1.388 . S
C817 C818 1.390 . S
C818 C817 1.390 . S
C818 C819 1.394 . S
C818 C824 1.465 . S
C819 C814 1.399 . S
C819 C818 1.394 . S
C819 C820 1.516 . S
C820 C819 1.516 . S
C820 C821 1.502 . S
C820 C822 1.561 . S
C820 C823 1.526 . S
C821 H805 0.959 . S
C821 H806 0.959 . S
C821 H807 0.961 . S
C821 C820 1.502 . S
C822 H808 0.960 . S
C822 H809 0.961 . S
C822 H810 0.959 . S
C822 C820 1.561 . S
C823 C820 1.526 . S
C823 C824 1.396 . S
C823 C828 1.390 . S
C824 C818 1.465 . S
C824 C823 1.396 . S
C824 C825 1.399 . S
C825 H811 0.929 . S
C825 C824 1.399 . S
C825 C826 1.385 . S
C826 H812 0.931 . S
C826 C825 1.385 . S
C826 C827 1.389 . S
C827 C826 1.389 . S
C827 C828 1.387 . S
C828 H813 0.930 . S
C828 C823 1.390 . S
C828 C827 1.387 . S
H829 C841 0.930 . S
H830 C843 0.930 . S
H831 C844 0.930 . S
H832 C848 0.959 . S
H833 C848 0.959 . S
H834 C848 0.961 . S
H835 C849 0.960 . S
H836 C849 0.961 . S
H837 C849 0.959 . S
H838 C852 0.929 . S
H839 C853 0.931 . S
H840 C855 0.930 . S
C841 H829 0.930 . S
C841 C842 1.399 . S
C841 C846 1.399 . S
C842 C841 1.399 . S
C842 C843 1.376 . S
C843 H830 0.930 . S
C843 C842 1.376 . S
C843 C844 1.388 . S
C844 H831 0.930 . S
C844 C843 1.388 . S
C844 C845 1.390 . S
C845 C844 1.390 . S
C845 C846 1.394 . S
C845 C851 1.465 . S
C846 C841 1.399 . S
C846 C845 1.394 . S
C846 C847 1.516 . S
C847 C846 1.516 . S
C847 C848 1.502 . S
C847 C849 1.561 . S
C847 C850 1.526 . S
C848 H832 0.959 . S
C848 H833 0.959 . S
C848 H834 0.961 . S
C848 C847 1.502 . S
C849 H835 0.960 . S
C849 H836 0.961 . S
C849 H837 0.959 . S
C849 C847 1.561 . S
C850 C847 1.526 . S
C850 C851 1.396 . S
C850 C855 1.390 . S
C851 C845 1.465 . S
C851 C850 1.396 . S
C851 C852 1.399 . S
C852 H838 0.929 . S
C852 C851 1.399 . S
C852 C853 1.385 . S
C853 H839 0.931 . S
C853 C852 1.385 . S
C853 C854 1.389 . S
C854 C853 1.389 . S
C854 C855 1.387 . S
C855 H840 0.930 . S
C855 C850 1.390 . S
C855 C854 1.387 . S
H856 C868 0.930 . S
H857 C870 0.930 . S
H858 C871 0.930 1_545 S
H859 C875 0.959 . S
H860 C875 0.959 . S
H861 C875 0.961 . S
H862 C876 0.960 . S
H863 C876 0.961 . S
H864 C876 0.959 . S
H865 C879 0.929 . S
H866 C880 0.931 . S
H867 C882 0.930 . S
C868 H856 0.930 . S
C868 C869 1.399 . S
C868 C873 1.399 . S
C869 C868 1.399 . S
C869 C870 1.376 . S
C870 H857 0.930 . S
C870 C869 1.376 . S
C870 C871 1.388 . S
C871 H858 0.930 1_565 S
C871 C870 1.388 . S
C871 C872 1.390 . S
C872 C871 1.390 . S
C872 C873 1.394 . S
C872 C878 1.465 . S
C873 C868 1.399 . S
C873 C872 1.394 . S
C873 C874 1.516 . S
C874 C873 1.516 . S
C874 C875 1.502 . S
C874 C876 1.561 . S
C874 C877 1.526 . S
C875 H859 0.959 . S
C875 H860 0.959 . S
C875 H861 0.961 . S
C875 C874 1.502 . S
C876 H862 0.960 . S
C876 H863 0.961 . S
C876 H864 0.959 . S
C876 C874 1.561 . S
C877 C874 1.526 . S
C877 C878 1.396 . S
C877 C882 1.390 . S
C878 C872 1.465 . S
C878 C877 1.396 . S
C878 C879 1.399 1_565 S
C879 H865 0.929 . S
C879 C878 1.399 1_545 S
C879 C880 1.385 . S
C880 H866 0.931 . S
C880 C879 1.385 . S
C880 C881 1.389 1_545 S
C881 C880 1.389 1_565 S
C881 C882 1.387 . S
C882 H867 0.930 . S
C882 C877 1.390 . S
C882 C881 1.387 . S
H883 C895 0.930 . S
H884 C897 0.930 . S
H885 C898 0.930 . S
H886 C902 0.959 . S
H887 C902 0.959 . S
H888 C902 0.961 . S
H889 C903 0.960 . S
H890 C903 0.961 . S
H891 C903 0.959 . S
H892 C906 0.929 . S
H893 C907 0.931 . S
H894 C909 0.930 . S
C895 H883 0.930 . S
C895 C896 1.399 . S
C895 C900 1.399 . S
C896 C895 1.399 . S
C896 C897 1.376 . S
C897 H884 0.930 . S
C897 C896 1.376 . S
C897 C898 1.388 . S
C898 H885 0.930 . S
C898 C897 1.388 . S
C898 C899 1.390 . S
C899 C898 1.390 . S
C899 C900 1.394 . S
C899 C905 1.465 . S
C900 C895 1.399 . S
C900 C899 1.394 . S
C900 C901 1.516 . S
C901 C900 1.516 . S
C901 C902 1.502 1_545 S
C901 C903 1.561 . S
C901 C904 1.526 . S
C902 H886 0.959 . S
C902 H887 0.959 . S
C902 H888 0.961 . S
C902 C901 1.502 1_565 S
C903 H889 0.960 . S
C903 H890 0.961 . S
C903 H891 0.959 . S
C903 C901 1.561 . S
C904 C901 1.526 . S
C904 C905 1.396 . S
C904 C909 1.390 . S
C905 C899 1.465 . S
C905 C904 1.396 . S
C905 C906 1.399 . S
C906 H892 0.929 . S
C906 C905 1.399 . S
C906 C907 1.385 . S
C907 H893 0.931 . S
C907 C906 1.385 . S
C907 C908 1.389 . S
C908 C907 1.389 . S
C908 C909 1.387 . S
C909 H894 0.930 . S
C909 C904 1.390 . S
C909 C908 1.387 . S
H910 C922 0.930 . S
H911 C924 0.930 . S
H912 C925 0.930 . S
H913 C929 0.959 . S
H914 C929 0.959 . S
H915 C929 0.961 . S
H916 C930 0.960 . S
H917 C930 0.961 . S
H918 C930 0.959 . S
H919 C933 0.929 . S
H920 C934 0.931 . S
H921 C936 0.930 . S
C922 H910 0.930 . S
C922 C923 1.399 . S
C922 C927 1.399 . S
C923 C922 1.399 . S
C923 C924 1.376 . S
C924 H911 0.930 . S
C924 C923 1.376 . S
C924 C925 1.388 . S
C925 H912 0.930 . S
C925 C924 1.388 . S
C925 C926 1.390 . S
C926 C925 1.390 . S
C926 C927 1.394 . S
C926 C932 1.465 . S
C927 C922 1.399 . S
C927 C926 1.394 . S
C927 C928 1.516 . S
C928 C927 1.516 . S
C928 C929 1.502 . S
C928 C930 1.561 . S
C928 C931 1.526 . S
C929 H913 0.959 . S
C929 H914 0.959 . S
C929 H915 0.961 . S
C929 C928 1.502 . S
C930 H916 0.960 . S
C930 H917 0.961 . S
C930 H918 0.959 . S
C930 C928 1.561 . S
C931 C928 1.526 . S
C931 C932 1.396 . S
C931 C936 1.390 . S
C932 C926 1.465 . S
C932 C931 1.396 . S
C932 C933 1.399 . S
C933 H919 0.929 . S
C933 C932 1.399 . S
C933 C934 1.385 . S
C934 H920 0.931 . S
C934 C933 1.385 . S
C934 C935 1.389 . S
C935 C934 1.389 . S
C935 C936 1.387 . S
C936 H921 0.930 . S
C936 C931 1.390 . S
C936 C935 1.387 . S
H937 C949 0.930 . S
H938 C951 0.930 . S
H939 C952 0.930 . S
H940 C956 0.959 . S
H941 C956 0.959 . S
H942 C956 0.961 . S
H943 C957 0.960 . S
H944 C957 0.961 . S
H945 C957 0.959 . S
H946 C960 0.929 . S
H947 C961 0.931 . S
H948 C963 0.930 . S
C949 H937 0.930 . S
C949 C950 1.399 . S
C949 C954 1.399 . S
C950 C949 1.399 . S
C950 C951 1.376 . S
C951 H938 0.930 . S
C951 C950 1.376 . S
C951 C952 1.388 . S
C952 H939 0.930 . S
C952 C951 1.388 . S
C952 C953 1.390 . S
C953 C952 1.390 . S
C953 C954 1.394 . S
C953 C959 1.465 . S
C954 C949 1.399 . S
C954 C953 1.394 . S
C954 C955 1.516 . S
C955 C954 1.516 . S
C955 C956 1.502 . S
C955 C957 1.561 . S
C955 C958 1.526 . S
C956 H940 0.959 . S
C956 H941 0.959 . S
C956 H942 0.961 . S
C956 C955 1.502 . S
C957 H943 0.960 . S
C957 H944 0.961 . S
C957 H945 0.959 . S
C957 C955 1.561 . S
C958 C955 1.526 . S
C958 C959 1.396 . S
C958 C963 1.390 . S
C959 C953 1.465 . S
C959 C958 1.396 . S
C959 C960 1.399 . S
C960 H946 0.929 . S
C960 C959 1.399 . S
C960 C961 1.385 . S
C961 H947 0.931 . S
C961 C960 1.385 . S
C961 C962 1.389 . S
C962 C961 1.389 . S
C962 C963 1.387 . S
C963 H948 0.930 . S
C963 C958 1.390 . S
C963 C962 1.387 . S
H964 C976 0.930 . S
H965 C978 0.930 . S
H966 C979 0.930 . S
H967 C983 0.959 . S
H968 C983 0.959 . S
H969 C983 0.961 . S
H970 C984 0.960 . S
H971 C984 0.961 . S
H972 C984 0.959 . S
H973 C987 0.929 1_554 S
H974 C988 0.906 1_554 S
H975 C990 0.930 . S
C976 H964 0.930 . S
C976 C977 1.399 . S
C976 C981 1.399 . S
C977 C976 1.399 . S
C977 C978 1.376 . S
C978 H965 0.930 . S
C978 C977 1.376 . S
C978 C979 1.388 . S
C979 H966 0.930 . S
C979 C978 1.388 . S
C979 C980 1.390 . S
C980 C979 1.390 . S
C980 C981 1.394 . S
C980 C986 1.465 . S
C981 C976 1.399 . S
C981 C980 1.394 . S
C981 C982 1.516 . S
C982 C981 1.516 . S
C982 C983 1.502 . S
C982 C984 1.561 1_655 S
C982 C985 1.526 . S
C983 H967 0.959 . S
C983 H968 0.959 . S
C983 H969 0.961 . S
C983 C982 1.502 . S
C984 H970 0.960 . S
C984 H971 0.961 . S
C984 H972 0.959 . S
C984 C982 1.561 1_455 S
C985 C982 1.526 . S
C985 C986 1.396 . S
C985 C990 1.390 . S
C986 C980 1.465 . S
C986 C985 1.396 . S
C986 C987 1.399 . S
C987 H973 0.929 1_556 S
C987 C986 1.399 . S
C987 C988 1.387 . S
C988 H974 0.906 1_556 S
C988 C987 1.387 . S
C988 C989 1.412 . S
C989 C988 1.412 . S
C989 C990 1.387 . S
C990 H975 0.930 . S
C990 C985 1.390 . S
C990 C989 1.387 . S
H991 C1003 0.930 . S
H992 C1005 0.930 . S
H993 C1006 0.930 . S
H994 C1010 0.959 . S
H995 C1010 0.959 1_556 S
H996 C1010 0.961 1_556 S
H997 C1011 0.960 . S
H998 C1011 0.961 . S
H999 C1011 0.959 1_554 S
H1000 C1014 0.929 . S
H1001 C1015 0.931 . S
H1002 C1017 0.930 . S
C1003 H991 0.930 . S
C1003 C1004 1.399 . S
C1003 C1008 1.399 . S
C1004 C1003 1.399 . S
C1004 C1005 1.376 . S
C1005 H992 0.930 . S
C1005 C1004 1.376 . S
C1005 C1006 1.388 . S
C1006 H993 0.930 . S
C1006 C1005 1.388 . S
C1006 C1007 1.390 . S
C1007 C1006 1.390 . S
C1007 C1008 1.394 . S
C1007 C1013 1.465 . S
C1008 C1003 1.399 . S
C1008 C1007 1.394 . S
C1008 C1009 1.516 . S
C1009 C1008 1.516 . S
C1009 C1010 1.502 . S
C1009 C1011 1.561 1_554 S
C1009 C1012 1.526 . S
C1010 H994 0.959 . S
C1010 H995 0.959 1_554 S
C1010 H996 0.961 1_554 S
C1010 C1009 1.502 . S
C1011 H997 0.960 . S
C1011 H998 0.961 . S
C1011 H999 0.959 1_556 S
C1011 C1009 1.561 1_556 S
C1012 C1009 1.526 . S
C1012 C1013 1.396 . S
C1012 C1017 1.390 . S
C1013 C1007 1.465 . S
C1013 C1012 1.396 . S
C1013 C1014 1.399 . S
C1014 H1000 0.929 . S
C1014 C1013 1.399 . S
C1014 C1015 1.385 . S
C1015 H1001 0.931 . S
C1015 C1014 1.385 . S
C1015 C1016 1.389 . S
C1016 C1015 1.389 . S
C1016 C1017 1.387 . S
C1017 H1002 0.930 . S
C1017 C1012 1.390 . S
C1017 C1016 1.387 . S
H1018 C1030 0.930 . S
H1019 C1032 0.930 . S
H1020 C1033 0.930 . S
H1021 C1037 0.959 . S
H1022 C1037 0.959 1_655 S
H1023 C1037 0.961 1_655 S
H1024 C1038 0.960 . S
H1025 C1038 0.961 . S
H1026 C1038 0.959 . S
H1027 C1041 0.929 . S
H1028 C1042 0.931 . S
H1029 C1044 0.930 . S
C1030 H1018 0.930 . S
C1030 C1031 1.399 . S
C1030 C1035 1.399 . S
C1031 C1030 1.399 . S
C1031 C1032 1.376 . S
C1032 H1019 0.930 . S
C1032 C1031 1.376 . S
C1032 C1033 1.388 . S
C1033 H1020 0.930 . S
C1033 C1032 1.388 . S
C1033 C1034 1.390 . S
C1034 C1033 1.390 . S
C1034 C1035 1.394 . S
C1034 C1040 1.465 . S
C1035 C1030 1.399 . S
C1035 C1034 1.394 . S
C1035 C1036 1.516 . S
C1036 C1035 1.516 . S
C1036 C1037 1.502 . S
C1036 C1038 1.561 . S
C1036 C1039 1.526 . S
C1037 H1021 0.959 . S
C1037 H1022 0.959 1_455 S
C1037 H1023 0.961 1_455 S
C1037 C1036 1.502 . S
C1038 H1024 0.960 . S
C1038 H1025 0.961 . S
C1038 H1026 0.959 . S
C1038 C1036 1.561 . S
C1039 C1036 1.526 . S
C1039 C1040 1.396 . S
C1039 C1044 1.390 . S
C1040 C1034 1.465 . S
C1040 C1039 1.396 . S
C1040 C1041 1.399 . S
C1041 H1027 0.929 . S
C1041 C1040 1.399 . S
C1041 C1042 1.385 . S
C1042 H1028 0.931 . S
C1042 C1041 1.385 . S
C1042 C1043 1.389 . S
C1043 C1042 1.389 . S
C1043 C1044 1.387 . S
C1044 H1029 0.930 . S
C1044 C1039 1.390 . S
C1044 C1043 1.387 . S
H1045 C1057 0.930 . S
H1046 C1059 0.930 . S
H1047 C1060 0.930 . S
H1048 C1064 0.959 . S
H1049 C1064 0.959 . S
H1050 C1064 0.961 . S
H1051 C1065 0.960 . S
H1052 C1065 0.961 . S
H1053 C1065 0.959 . S
H1054 C1068 0.929 . S
H1055 C1069 0.931 . S
H1056 C1071 0.930 . S
C1057 H1045 0.930 . S
C1057 C1058 1.399 . S
C1057 C1062 1.399 . S
C1058 C1057 1.399 . S
C1058 C1059 1.376 . S
C1059 H1046 0.930 . S
C1059 C1058 1.376 . S
C1059 C1060 1.388 . S
C1060 H1047 0.930 . S
C1060 C1059 1.388 . S
C1060 C1061 1.390 . S
C1061 C1060 1.390 . S
C1061 C1062 1.394 . S
C1061 C1067 1.465 . S
C1062 C1057 1.399 . S
C1062 C1061 1.394 . S
C1062 C1063 1.516 . S
C1063 C1062 1.516 . S
C1063 C1064 1.502 . S
C1063 C1065 1.561 . S
C1063 C1066 1.526 . S
C1064 H1048 0.959 . S
C1064 H1049 0.959 . S
C1064 H1050 0.961 . S
C1064 C1063 1.502 . S
C1065 H1051 0.960 . S
C1065 H1052 0.961 . S
C1065 H1053 0.959 . S
C1065 C1063 1.561 . S
C1066 C1063 1.526 . S
C1066 C1067 1.396 . S
C1066 C1071 1.390 . S
C1067 C1061 1.465 . S
C1067 C1066 1.396 . S
C1067 C1068 1.399 . S
C1068 H1054 0.929 . S
C1068 C1067 1.399 . S
C1068 C1069 1.385 . S
C1069 H1055 0.931 . S
C1069 C1068 1.385 . S
C1069 C1070 1.389 . S
C1070 C1069 1.389 . S
C1070 C1071 1.387 . S
C1071 H1056 0.930 . S
C1071 C1066 1.390 . S
C1071 C1070 1.387 . S
C437 C1 2.272 . S
C449 C288 2.325 . S
C464 C67 2.242 . S
C476 C330 2.302 . S
C503 C360 0.966 . S
C491 C97 1.042 . S
C518 C133 1.102 . S
C530 C394 1.037 . S
C557 C351 1.862 . S
C545 C25 1.851 . S
C584 C305 1.852 . S
C572 C37 1.855 . S
C611 C398 1.392 . S
C599 C103 1.305 . S
C638 C364 1.418 . S
C626 C109 1.430 . S
C653 C31 2.201 . S
C665 C419 2.222 . S
C692 C326 1.128 . S
C680 C73 1.142 . S
C707 C139 1.174 . S
C719 C301 1.160 . S
C734 C61 2.170 . S
C746 C385 2.180 . S
C773 C317 2.335 . S
C761 C175 2.333 . S
C788 C181 2.249 . S
C800 C339 2.283 . S
C815 C247 1.037 . S
C827 C369 0.987 . S
C842 C277 1.073 . S
C854 C403 1.093 . S
C869 C145 1.868 . S
C881 C322 1.857 . S
C908 C296 1.870 . S
C896 C211 1.815 . S
C935 C407 1.357 . S
C923 C217 1.329 . S
C962 C373 1.443 . S
C950 C283 1.459 . S
C977 C169 2.223 . S
C989 C390 2.218 . S
C1016 C335 1.173 . S
C1004 C241 1.119 . S
C1043 C292 1.166 . S
C1031 C253 1.151 . S
C1058 C205 2.173 . S
C1070 C356 2.191 . S
