# Generated by pormake.
# Topology tsx, (6,3)-cn, num edge types: 1
# Building blocks:
#     Node 0, Type 0, BuildingBlock: JUFBIX_clean_sbu_0, # of connection points: 6
#     Node 1, Type 0, BuildingBlock: JUFBIX_clean_sbu_0, # of connection points: 6
#     Node 2, Type 1, BuildingBlock: KAKCAD_clean_linker_0, # of connection points: 3
#     Node 3, Type 1, BuildingBlock: KAKCAD_clean_linker_0, # of connection points: 3
#     Node 4, Type 1, BuildingBlock: KAKCAD_clean_linker_0, # of connection points: 3
#     Node 5, Type 1, BuildingBlock: KAKCAD_clean_linker_0, # of connection points: 3
#     Edge 6, Type (0, 1), BuildingBlock: FUNLAD_clean_linker_0, # of connection points: 2
#     Edge 7, Type (0, 1), BuildingBlock: FUNLAD_clean_linker_0, # of connection points: 2
#     Edge 8, Type (0, 1), BuildingBlock: FUNLAD_clean_linker_0, # of connection points: 2
#     Edge 9, Type (0, 1), BuildingBlock: FUNLAD_clean_linker_0, # of connection points: 2
#     Edge 10, Type (0, 1), BuildingBlock: FUNLAD_clean_linker_0, # of connection points: 2
#     Edge 11, Type (0, 1), BuildingBlock: FUNLAD_clean_linker_0, # of connection points: 2
#     Edge 12, Type (0, 1), BuildingBlock: FUNLAD_clean_linker_0, # of connection points: 2
#     Edge 13, Type (0, 1), BuildingBlock: FUNLAD_clean_linker_0, # of connection points: 2
#     Edge 14, Type (0, 1), BuildingBlock: FUNLAD_clean_linker_0, # of connection points: 2
#     Edge 15, Type (0, 1), BuildingBlock: FUNLAD_clean_linker_0, # of connection points: 2
#     Edge 16, Type (0, 1), BuildingBlock: FUNLAD_clean_linker_0, # of connection points: 2
#     Edge 17, Type (0, 1), BuildingBlock: FUNLAD_clean_linker_0, # of connection points: 2
# Relax obj value: 0.158
# Max RMSD: 0.166
# Mean RMSD: 0.133
data_MOF--net-tsx--node1-JUFBIX_clean_sbu_0--node2-KAKCAD_clean_linker_0--edge1-FUNLAD_clean_linker_0
_symmetry_space_group_name_H-M    P1
_symmetry_Int_Tables_number       1
_symmetry_cell_setting            triclinic
loop_
_symmetry_equiv_pos_as_xyz
'x, y, z'
_cell_length_a     26.983863
_cell_length_b     32.240122
_cell_length_c     49.344197
_cell_angle_alpha  92.882995
_cell_angle_beta   89.145188
_cell_angle_gamma 96.871763
loop_
_atom_site_label
_atom_site_type_symbol
_atom_site_fract_x
_atom_site_fract_y
_atom_site_fract_z
_atom_type_partial_charge
Co0 Co 0.03902 0.98615 0.00934 0.0
C1 C 0.99646 0.00547 0.96028 0.0
Co2 Co 0.97284 0.02049 0.01347 0.0
C3 C 0.11198 0.92585 0.0125 0.0
C4 C 0.1341 0.97607 0.98643 0.0
N5 N 0.09683 0.96092 0.00304 0.0
N6 N 0.15756 0.9191 0.00263 0.0
C7 C 0.17132 0.95067 0.98622 0.0
H8 H 0.09023 0.90589 0.02642 0.0
H9 H 0.13401 0.00373 0.97491 0.0
C10 C 0.01489 0.00141 0.0626 0.0
N11 N 0.91538 0.04597 0.01989 0.0
C12 C 0.90053 0.08032 0.00936 0.0
C13 C 0.88013 0.03423 0.03858 0.0
N14 N 0.8578 0.09063 0.02109 0.0
C15 C 0.8449 0.06166 0.03944 0.0
C16 C 0.95256 0.93274 0.01037 0.0
O17 O 0.04685 0.98475 0.04777 0.0
O18 O 0.98061 0.01798 0.05136 0.0
O19 O 0.93387 0.96717 0.01234 0.0
O20 O 0.99972 0.93329 0.00896 0.0
O21 O 0.96571 0.02289 0.97546 0.0
H22 H 0.8805 0.00774 0.05116 0.0
H23 H 0.92137 0.09808 0.994 0.0
O24 O 0.03044 0.98778 0.97107 0.0
O25 O 0.07772 0.03945 0.00974 0.0
O26 O 0.01229 0.07348 0.01447 0.0
C27 C 0.0593 0.07391 0.01208 0.0
H28 H 0.20544 0.95457 0.97432 0.0
H29 H 0.81219 0.06034 0.05248 0.0
Co30 Co 0.53906 0.48325 0.50972 0.0
C31 C 0.49881 0.50871 0.46159 0.0
Co32 Co 0.47821 0.52327 0.51519 0.0
C33 C 0.60432 0.4174 0.51287 0.0
C34 C 0.63061 0.46475 0.48544 0.0
N35 N 0.59272 0.45313 0.50262 0.0
N36 N 0.64828 0.40669 0.5029 0.0
C37 C 0.66471 0.43645 0.48561 0.0
H38 H 0.58145 0.40003 0.52766 0.0
H39 H 0.63334 0.49224 0.47355 0.0
C40 C 0.51796 0.49839 0.56345 0.0
N41 N 0.42488 0.55344 0.52281 0.0
C42 C 0.41484 0.59062 0.51411 0.0
C43 C 0.3883 0.54247 0.54093 0.0
N44 N 0.37375 0.60331 0.52642 0.0
C45 C 0.35698 0.57298 0.54321 0.0
C46 C 0.44741 0.43692 0.51063 0.0
O47 O 0.54646 0.4789 0.54798 0.0
O48 O 0.48668 0.51909 0.55291 0.0
O49 O 0.43379 0.47322 0.51396 0.0
O50 O 0.49368 0.43314 0.50829 0.0
O51 O 0.47012 0.52726 0.47747 0.0
H52 H 0.38516 0.51434 0.5522 0.0
H53 H 0.43803 0.60857 0.49973 0.0
O54 O 0.53103 0.48813 0.47157 0.0
O55 O 0.58369 0.5336 0.51116 0.0
O56 O 0.52322 0.57316 0.51611 0.0
C57 C 0.56953 0.5698 0.51374 0.0
H58 H 0.69869 0.4374 0.4736 0.0
H59 H 0.3243 0.57285 0.55622 0.0
C60 C 0.00574 0.96344 0.32745 0.0
C61 C 0.02327 0.00013 0.31431 0.0
C62 C 1.0003 0.96401 0.35565 0.0
C63 C 0.01204 0.0013 0.37145 0.0
C64 C 0.02835 0.03825 0.35835 0.0
C65 C 0.03403 0.03766 0.33009 0.0
C66 C 0.00974 0.00097 0.40156 0.0
C67 C 0.02935 0.96923 0.4148 0.0
C68 C 0.02869 0.96843 0.44321 0.0
C69 C 0.00777 -9e-05 0.45864 0.0
C70 C 0.98757 0.03196 0.44571 0.0
C71 C 0.98901 0.03233 0.41715 0.0
C72 C 0.96425 0.06488 0.46173 0.0
C73 C 0.92996 0.05441 0.48276 0.0
C74 C 0.97415 0.10691 0.45503 0.0
C75 C 0.94901 0.13758 0.46829 0.0
C76 C 0.91312 0.12696 0.48851 0.0
C77 C 0.05225 0.93532 0.45615 0.0
C78 C 0.04218 0.89359 0.44627 0.0
C79 C 0.08936 0.94565 0.47583 0.0
C80 C 0.11841 0.91532 0.48392 0.0
C81 C 0.11064 0.8742 0.4725 0.0
C82 C 0.07097 0.86336 0.45438 0.0
C83 C 0.90438 0.08513 0.49591 0.0
H84 H 0.996 0.93419 0.31592 0.0
H85 H 0.98691 0.93515 0.36514 0.0
H86 H 0.03821 0.06736 0.37001 0.0
H87 H 0.04808 0.06642 0.3207 0.0
H88 H 0.04687 0.94569 0.40292 0.0
H89 H 0.97289 0.0565 0.40699 0.0
H90 H 0.00742 -0.00046 0.4806 0.0
H91 H 0.92152 0.02225 0.48836 0.0
H92 H 1.00085 0.11602 0.43916 0.0
H93 H 0.95637 0.16944 0.46196 0.0
H94 H 0.01323 0.8847 0.43138 0.0
H95 H 0.09797 0.97766 0.48367 0.0
H96 H 0.87729 0.07608 0.51159 0.0
H97 H 0.06317 0.83171 0.44578 0.0
H98 H 0.1487 0.92464 0.49792 0.0
C99 C 0.9678 0.06232 0.69597 0.0
C100 C 0.98082 0.02908 0.71077 0.0
C101 C 0.97038 0.0605 0.6676 0.0
C102 C 0.98565 0.02529 0.65338 0.0
C103 C 0.99881 0.99215 0.66812 0.0
C104 C 0.99662 0.99408 0.69645 0.0
C105 C 0.98764 0.02289 0.62325 0.0
C106 C 0.0091 0.05713 0.60888 0.0
C107 C 0.01248 0.05437 0.58039 0.0
C108 C 0.99281 0.01746 0.56613 0.0
C109 C 0.97079 0.98329 0.58029 0.0
C110 C 0.96876 0.98598 0.60874 0.0
C111 C 0.94856 0.9447 0.56573 0.0
C112 C 0.90613 0.94515 0.54977 0.0
C113 C 0.96627 0.90656 0.57025 0.0
C114 C 0.94046 0.86906 0.56007 0.0
C115 C 0.89564 0.86894 0.54579 0.0
C116 C 0.03977 0.08927 0.56602 0.0
C117 C 0.02748 0.13007 0.57068 0.0
C118 C 0.0816 0.08259 0.54989 0.0
C119 C 0.1128 0.11653 0.54022 0.0
C120 C 0.10229 0.15774 0.54623 0.0
C121 C 0.05809 0.16393 0.56061 0.0
C122 C 0.87963 0.90757 0.54004 0.0
H123 H 0.95478 0.0895 0.70625 0.0
H124 H 0.95952 0.08633 0.65676 0.0
H125 H 0.01149 0.96489 0.65773 0.0
H126 H 0.00795 0.96829 0.70712 0.0
H127 H 0.02512 0.08539 0.61991 0.0
H128 H 0.95129 0.95953 0.61956 0.0
H129 H 0.99501 0.01522 0.54414 0.0
H130 H 0.89184 0.97439 0.5462 0.0
H131 H 0.99927 0.90573 0.58237 0.0
H132 H 0.95485 0.8401 0.56419 0.0
H133 H 0.99496 0.13581 0.5828 0.0
H134 H 0.09185 0.0513 0.54615 0.0
H135 H 0.84517 0.90886 0.52933 0.0
H136 H 0.04792 0.1951 0.56491 0.0
H137 H 0.14657 0.11045 0.52939 0.0
C138 C 0.5259 0.45695 0.82776 0.0
C139 C 0.53831 0.49457 0.81467 0.0
C140 C 0.51836 0.45715 0.85583 0.0
C141 C 0.52314 0.49498 0.8716 0.0
C142 C 0.5356 0.53265 0.85855 0.0
C143 C 0.54311 0.53244 0.83041 0.0
C144 C 0.51506 0.49482 0.90152 0.0
C145 C 0.53331 0.46422 0.91654 0.0
C146 C 0.52404 0.46201 0.9446 0.0
C147 C 0.49669 0.49173 0.95784 0.0
C148 C 0.47925 0.52333 0.94322 0.0
C149 C 0.48849 0.52456 0.91511 0.0
C150 C 0.45074 0.5551 0.95685 0.0
C151 C 0.40821 0.54319 0.9727 0.0
C152 C 0.46424 0.59764 0.9525 0.0
C153 C 0.43476 0.62759 0.96281 0.0
C154 C 0.3905 0.61571 0.97737 0.0
C155 C 0.54426 0.42892 0.95964 0.0
C156 C 0.54503 0.38874 0.94732 0.0
C157 C 0.56643 0.43781 0.98522 0.0
C158 C 0.5914 0.40793 0.99734 0.0
C159 C 0.59502 0.36865 0.98406 0.0
C160 C 0.57044 0.35924 0.95917 0.0
C161 C 0.37819 0.5732 0.98276 0.0
H162 H 0.52097 0.42729 0.81622 0.0
H163 H 0.50794 0.42762 0.86515 0.0
H164 H 0.54021 0.56228 0.87013 0.0
H165 H 0.55322 0.56195 0.82102 0.0
H166 H 0.55582 0.44244 0.9063 0.0
H167 H 0.47365 0.54809 0.9037 0.0
H168 H 0.48914 0.49047 0.97944 0.0
H169 H 0.39697 0.51051 0.97627 0.0
H170 H 0.49734 0.60768 0.94073 0.0
H171 H 0.44634 0.6601 0.95895 0.0
H172 H 0.52727 0.38042 0.92794 0.0
H173 H 0.56638 0.46839 0.99536 0.0
H174 H 0.34434 0.56282 0.99377 0.0
H175 H 0.57254 0.32969 0.94806 0.0
H176 H 0.60881 0.41603 0.01682 0.0
C177 C 0.51493 0.55611 0.19657 0.0
C178 C 0.50935 0.51917 0.2108 0.0
C179 C 0.51377 0.55441 0.16821 0.0
C180 C 0.50762 0.51569 0.1534 0.0
C181 C 0.5022 0.47875 0.16776 0.0
C182 C 0.50276 0.48049 0.19611 0.0
C183 C 0.50711 0.51376 0.12314 0.0
C184 C 0.53873 0.54255 0.10845 0.0
C185 C 0.53868 0.54075 0.07992 0.0
C186 C 0.50737 0.50914 0.06591 0.0
C187 C 0.47502 0.48049 0.08024 0.0
C188 C 0.47503 0.48308 0.10876 0.0
C189 C 0.44049 0.44801 0.06567 0.0
C190 C 0.3901 0.4414 0.0736 0.0
C191 C 0.45797 0.42216 0.04476 0.0
C192 C 0.42602 0.38903 0.03289 0.0
C193 C 0.37593 0.38164 0.04149 0.0
C194 C 0.57043 0.57287 0.06499 0.0
C195 C 0.57136 0.61529 0.07319 0.0
C196 C 0.60059 0.56159 0.04301 0.0
C197 C 0.63232 0.5922 0.03005 0.0
C198 C 0.63374 0.6346 0.0386 0.0
C199 C 0.60252 0.64581 0.06009 0.0
C200 C 0.35812 0.40868 0.06158 0.0
H201 H 0.51953 0.58637 0.2074 0.0
H202 H 0.51715 0.58352 0.15792 0.0
H203 H 0.49835 0.44836 0.15711 0.0
H204 H 0.49906 0.4515 0.20655 0.0
H205 H 0.56422 0.56607 0.11917 0.0
H206 H 0.44981 0.46105 0.11976 0.0
H207 H 0.50678 0.5078 0.04391 0.0
H208 H 0.37558 0.46121 0.08946 0.0
H209 H 0.49671 0.42662 0.0383 0.0
H210 H 0.44063 0.36884 0.01729 0.0
H211 H 0.54804 0.62489 0.08986 0.0
H212 H 0.60057 0.52906 0.03632 0.0
H213 H 0.31986 0.40357 0.06878 0.0
H214 H 0.60316 0.67817 0.0673 0.0
H215 H 0.65584 0.58276 0.01343 0.0
C216 C 0.14263 0.1137 0.00332 0.0
C217 C 0.09277 0.11369 0.01192 0.0
C218 C 0.17518 0.15078 0.0037 0.0
C219 C 0.15887 0.18886 0.0132 0.0
C220 C 0.10859 0.18886 0.0212 0.0
C221 C 0.07582 0.15174 0.0205 0.0
C222 C 0.1927 0.22903 0.01551 0.0
C223 C 0.24291 0.23202 0.01293 0.0
C224 C 0.27685 0.27156 0.01784 0.0
C225 C 0.32735 0.26888 0.02317 0.0
C226 C 0.36005 0.3048 0.02976 0.0
C227 C 0.34293 0.3443 0.03113 0.0
H228 H 0.22243 0.31527 0.01273 0.0
C229 C 0.29305 0.34732 0.02457 0.0
C230 C 0.26038 0.31141 0.0178 0.0
H231 H 0.27913 0.3775 0.02497 0.0
H232 H 0.15666 0.08495 0.99617 0.0
H233 H 0.21283 0.14891 0.99646 0.0
H234 H 0.09467 0.21764 0.02839 0.0
H235 H 0.03752 0.15276 0.02713 0.0
H236 H 0.17526 0.25684 0.02118 0.0
H237 H 0.26094 0.20406 0.00895 0.0
H238 H 0.34131 0.23872 0.02309 0.0
H239 H 0.39821 0.30144 0.03489 0.0
C240 C 0.16221 0.84402 0.00977 0.0
C241 C 0.18588 0.8849 0.00704 0.0
C242 C 0.19046 0.81014 0.00972 0.0
C243 C 0.24288 0.81681 0.00713 0.0
C244 C 0.2663 0.85795 0.00601 0.0
C245 C 0.23824 0.89152 0.00605 0.0
C246 C 0.27435 0.78225 0.00241 0.0
C247 C 0.26118 0.74214 0.00851 0.0
C248 C 0.29344 0.70919 1.00044 0.0
C249 C 0.29816 0.67636 0.01751 0.0
C250 C 0.32965 0.64593 0.01023 0.0
C251 C 0.35641 0.64744 0.98549 0.0
H252 H 0.31482 0.73397 0.96131 0.0
C253 C 0.35 0.67956 0.96806 0.0
C254 C 0.31909 0.71002 0.97544 0.0
H255 H 0.36844 0.681 0.94843 0.0
H256 H 0.12188 0.83802 0.0104 0.0
H257 H 0.17096 0.77885 0.01024 0.0
H258 H 0.30654 0.86411 0.00413 0.0
H259 H 0.25756 0.92273 0.00445 0.0
H260 H 0.31079 0.79051 0.99315 0.0
H261 H 0.22731 0.73339 0.02005 0.0
H262 H 0.27833 0.67478 0.03675 0.0
H263 H 0.33365 0.62169 0.02417 0.0
C264 C 0.8673 0.89278 0.01009 0.0
C265 C 0.91937 0.8927 0.00981 0.0
C266 C 0.83552 0.85531 0.01015 0.0
C267 C 0.85507 0.81672 0.00977 0.0
C268 C 0.90712 0.81663 0.00956 0.0
C269 C 0.93901 0.85421 0.0094 0.0
C270 C 0.82226 0.77648 0.01173 0.0
C271 C 0.77441 0.77094 0.00348 0.0
C272 C 0.73879 0.73365 0.00951 0.0
C273 C 0.6878 0.7383 0.01157 0.0
C274 C 0.65337 0.70558 0.02001 0.0
C275 C 0.66914 0.66723 0.02623 0.0
H276 H 0.79296 0.68917 0.01203 0.0
C277 C 0.71967 0.66158 0.02256 0.0
C278 C 0.75426 0.69448 0.01429 0.0
H279 H 0.73283 0.63229 0.02714 0.0
H280 H 0.85089 0.92188 0.01061 0.0
H281 H 0.79576 0.857 0.01136 0.0
H282 H 0.92318 0.7874 0.00964 0.0
H283 H 0.97897 0.85309 0.00929 0.0
H284 H 0.83789 0.75142 0.02127 0.0
H285 H 0.75928 0.79604 0.9937 0.0
H286 H 0.67473 0.76793 0.00767 0.0
H287 H 0.6145 0.71058 0.02226 0.0
C288 C 0.80715 0.1459 0.03705 0.0
C289 C 0.83115 0.12538 0.01575 0.0
C290 C 0.77815 0.17766 0.03184 0.0
C291 C 0.77218 0.18929 0.00512 0.0
C292 C 0.79665 0.1691 0.98385 0.0
C293 C 0.82642 0.13778 0.98914 0.0
C294 C 0.73777 0.22002 0.99874 0.0
C295 C 0.72918 0.25249 0.01571 0.0
C296 C 0.69318 0.28173 0.00913 0.0
C297 C 0.70467 0.3247 0.01531 0.0
C298 C 0.67222 0.3529 0.00793 0.0
C299 C 0.62691 0.33854 0.99482 0.0
H300 H 0.63662 0.23393 0.99288 0.0
C301 C 0.61429 0.29511 0.9902 0.0
C302 C 0.64722 0.26709 0.99703 0.0
H303 H 0.57913 0.28262 0.98099 0.0
H304 H 0.81044 0.13704 0.05776 0.0
H305 H 0.75903 0.19192 0.04866 0.0
H306 H 0.7923 0.17729 0.96306 0.0
H307 H 0.84421 0.12216 0.97237 0.0
H308 H 0.71979 0.21632 0.97904 0.0
H309 H 0.75075 0.25911 0.03417 0.0
H310 H 0.73969 0.33662 0.02493 0.0
H311 H 0.68368 0.38601 0.01162 0.0
C312 C 0.65802 0.60282 0.51169 0.0
C313 C 0.60688 0.60728 0.51358 0.0
C314 C 0.69366 0.63792 0.51163 0.0
C315 C 0.67896 0.67838 0.51358 0.0
C316 C 0.62785 0.68289 0.51472 0.0
C317 C 0.5921 0.64769 0.51489 0.0
C318 C 0.7161 0.71629 0.51458 0.0
C319 C 0.76131 0.71681 0.52587 0.0
C320 C 0.79691 0.75531 0.52955 0.0
C321 C 0.82782 0.75978 0.55231 0.0
C322 C 0.86032 0.79627 0.55726 0.0
C323 C 0.86359 0.82891 0.53917 0.0
H324 H 0.77837 0.78422 0.49283 0.0
C325 C 0.8339 0.82367 0.51574 0.0
C326 C 0.80071 0.7873 0.51102 0.0
H327 H 0.83612 0.84769 0.50106 0.0
H328 H 0.67068 0.57213 0.51027 0.0
H329 H 0.73263 0.6332 0.50981 0.0
H330 H 0.61557 0.71372 0.51599 0.0
H331 H 0.55296 0.65217 0.5161 0.0
H332 H 0.70437 0.7452 0.50794 0.0
H333 H 0.77094 0.68897 0.53508 0.0
H334 H 0.8257 0.73547 0.56682 0.0
H335 H 0.88166 0.79927 0.57581 0.0
C336 C 0.72543 0.37385 0.5076 0.0
C337 C 0.67309 0.371 0.50874 0.0
C338 C 0.74992 0.33861 0.51052 0.0
C339 C 0.72262 0.29943 0.51479 0.0
C340 C 0.67028 0.29676 0.51659 0.0
C341 C 0.64573 0.33227 0.51385 0.0
C342 C 0.74738 0.26048 0.51462 0.0
C343 C 0.79575 0.26026 0.52121 0.0
C344 C 0.82455 0.2239 0.51598 0.0
C345 C 0.87692 0.2316 0.51515 0.0
C346 C 0.9058 0.19977 0.50734 0.0
C347 C 0.88302 0.15923 0.50039 0.0
H348 H 0.76182 0.1749 0.51167 0.0
C349 C 0.83084 0.15076 0.50279 0.0
C350 C 0.80184 0.18271 0.5105 0.0
H351 H 0.81218 0.11981 0.49759 0.0
H352 H 0.74756 0.40333 0.50391 0.0
H353 H 0.79009 0.34206 0.50816 0.0
H354 H 0.64824 0.26695 0.51957 0.0
H355 H 0.60534 0.32906 0.51459 0.0
H356 H 0.72531 0.23182 0.50746 0.0
H357 H 0.8167 0.28912 0.52903 0.0
H358 H 0.89562 0.26281 0.51957 0.0
H359 H 0.94598 0.20712 0.50615 0.0
C360 C 0.35827 0.40591 0.51001 0.0
C361 C 0.40907 0.40005 0.50965 0.0
C362 C 0.32138 0.37179 0.51014 0.0
C363 C 0.33432 0.33085 0.51023 0.0
C364 C 0.38502 0.32477 0.5088 0.0
C365 C 0.42216 0.35909 0.50861 0.0
C366 C 0.29554 0.29429 0.51219 0.0
C367 C 0.25243 0.29707 0.52593 0.0
C368 C 0.21392 0.26107 0.53001 0.0
C369 C 0.18358 0.26202 0.55327 0.0
C370 C 0.14711 0.22881 0.55825 0.0
C371 C 0.1393 0.19405 0.53976 0.0
H372 H 0.22778 0.22558 0.49266 0.0
C373 C 0.16891 0.19358 0.51603 0.0
C374 C 0.20598 0.22672 0.51122 0.0
H375 H 0.1634 0.16768 0.50112 0.0
H376 H 0.34678 0.43701 0.51032 0.0
H377 H 0.28273 0.3777 0.51014 0.0
H378 H 0.39593 0.29348 0.50852 0.0
H379 H 0.46098 0.35356 0.50809 0.0
H380 H 0.30426 0.2641 0.50396 0.0
H381 H 0.24641 0.32647 0.53648 0.0
H382 H 0.18881 0.2882 0.56802 0.0
H383 H 0.12597 0.23005 0.57703 0.0
C384 C 0.35238 0.65919 0.4977 0.0
C385 C 0.35206 0.64139 0.5231 0.0
C386 C 0.32736 0.69414 0.49417 0.0
C387 C 0.30184 0.71201 0.51609 0.0
C388 C 0.30382 0.69544 0.54172 0.0
C389 C 0.32827 0.66032 0.54515 0.0
C390 C 0.27214 0.74741 0.51301 0.0
C391 C 0.24764 0.75248 0.49004 0.0
C392 C 0.21359 0.785 0.48664 0.0
C393 C 0.19535 0.78932 0.46056 0.0
C394 C 0.16205 0.81814 0.45612 0.0
C395 C 0.14582 0.84344 0.47769 0.0
H396 H 0.20956 0.80806 0.52888 0.0
C397 C 0.16413 0.83951 0.50382 0.0
C398 C 0.19749 0.81051 0.50832 0.0
H399 H 0.15201 0.85837 0.52088 0.0
H400 H 0.37063 0.64531 0.48041 0.0
H401 H 0.32798 0.70694 0.47429 0.0
H402 H 0.2851 0.70893 0.55901 0.0
H403 H 0.3283 0.64777 0.56509 0.0
H404 H 0.26802 0.76774 0.53085 0.0
H405 H 0.25141 0.73077 0.47277 0.0
H406 H 0.20692 0.77026 0.44344 0.0
H407 H 0.14945 0.82092 0.43562 0.0
C408 C 0.05577 0.98768 0.10645 0.0
C409 C 0.01664 0.00236 0.09265 0.0
C410 C 0.05689 0.98996 0.13493 0.0
C411 C 0.01859 0.00675 0.15011 0.0
C412 C 0.97967 0.02123 0.13614 0.0
C413 C 0.97861 0.01903 0.10789 0.0
C414 C 0.01753 0.01099 0.18033 0.0
C415 C 0.04584 0.99177 0.19689 0.0
C416 C 0.04127 0.99551 0.22704 0.0
C417 C 0.05508 0.9633 0.24238 0.0
C418 C 0.04961 0.96494 0.27063 0.0
C419 C 0.03045 -0.00097 0.28429 0.0
H420 H 0.01424 0.05658 0.22992 0.0
C421 C 0.01801 0.03188 0.26902 0.0
C422 C 0.0236 0.0303 0.24078 0.0
H423 H 1.00316 0.05862 0.27882 0.0
H424 H 0.08577 0.97489 0.09527 0.0
H425 H 0.08818 0.97916 0.14475 0.0
H426 H 0.94971 0.03442 0.14714 0.0
H427 H 0.94778 0.03065 0.09803 0.0
H428 H 0.98988 0.02948 0.1893 0.0
H429 H 0.07083 0.97049 0.18836 0.0
H430 H 0.06947 0.93642 0.23245 0.0
H431 H 0.06066 0.9395 0.28178 0.0
C432 C 0.96183 0.03062 0.91791 0.0
C433 C 0.99296 0.00534 0.93036 0.0
C434 C 0.95908 0.03045 0.88958 0.0
C435 C 0.98723 0.00476 0.87319 0.0
C436 C 0.01765 0.97911 0.88569 0.0
C437 C 0.02088 0.97964 0.91392 0.0
C438 C 0.98467 0.00279 0.84309 0.0
C439 C 0.97529 0.03522 0.82857 0.0
C440 C 0.97536 0.03314 0.7984 0.0
C441 C 0.98989 0.06963 0.78453 0.0
C442 C 0.99159 0.06844 0.75615 0.0
C443 C 0.97802 0.03075 0.74098 0.0
H444 H 0.94767 0.96717 0.79328 0.0
C445 C 0.96205 0.99447 0.75495 0.0
C446 C 0.96076 0.99562 0.7833 0.0
H447 H 0.95002 0.96515 0.74398 0.0
H448 H 0.93969 0.05063 0.93002 0.0
H449 H 0.93423 0.04984 0.88065 0.0
H450 H 0.03941 0.95878 0.87356 0.0
H451 H 0.04501 0.9596 0.92286 0.0
H452 H 0.99413 0.97436 0.83253 0.0
H453 H 0.97085 0.0651 0.83892 0.0
H454 H 1.001 0.09901 0.79568 0.0
H455 H 0.00448 0.09693 0.74615 0.0
C456 C 0.55597 0.4775 0.60644 0.0
C457 C 0.5203 0.49776 0.59343 0.0
C458 C 0.55754 0.47792 0.6349 0.0
C459 C 0.5233 0.49865 0.65085 0.0
C460 C 0.48761 0.51848 0.63764 0.0
C461 C 0.48614 0.51815 0.60943 0.0
C462 C 0.52224 0.50055 0.68112 0.0
C463 C 0.55692 0.48776 0.69715 0.0
C464 C 0.55328 0.49103 0.72733 0.0
C465 C 0.57433 0.46205 0.74255 0.0
C466 C 0.57 0.46342 0.77087 0.0
C467 C 0.545 0.49419 0.78466 0.0
H468 H 0.51454 0.54654 0.73032 0.0
C469 C 0.52541 0.52407 0.76947 0.0
C470 C 0.52964 0.52264 0.74118 0.0
H471 H 0.50589 0.54816 0.7794 0.0
H472 H 0.5827 0.46142 0.59468 0.0
H473 H 0.58535 0.46172 0.64403 0.0
H474 H 0.46063 0.53461 0.64922 0.0
H475 H 0.45798 0.53401 0.60019 0.0
H476 H 0.49048 0.5133 0.6907 0.0
H477 H 0.58799 0.47326 0.68831 0.0
H478 H 0.5934 0.43778 0.73247 0.0
H479 H 0.58634 0.44039 0.78198 0.0
C480 C 0.53286 0.49814 0.4146 0.0
C481 C 0.49498 0.51091 0.43182 0.0
C482 C 0.52933 0.50003 0.38647 0.0
C483 C 0.48764 0.51452 0.37493 0.0
C484 C 0.44951 0.52675 0.39211 0.0
C485 C 0.45334 0.52541 0.42029 0.0
C486 C 0.482 0.51543 0.34508 0.0
C487 C 0.5212 0.52254 0.32802 0.0
C488 C 0.516 0.52253 0.29809 0.0
C489 C 0.55172 0.54726 0.28304 0.0
C490 C 0.54902 0.54679 0.25475 0.0
C491 C 0.51106 0.52088 0.24088 0.0
H492 H 0.45031 0.47652 0.29511 0.0
C493 C 0.47545 0.4959 0.25591 0.0
C494 C 0.47775 0.49679 0.28423 0.0
H495 H 0.44574 0.47568 0.24573 0.0
H496 H 0.56534 0.48668 0.42284 0.0
H497 H 0.55879 0.48926 0.37381 0.0
H498 H 0.4168 0.53765 0.38372 0.0
H499 H 0.42339 0.53524 0.43301 0.0
H500 H 0.44432 0.5119 0.33712 0.0
H501 H 0.55846 0.53033 0.33626 0.0
H502 H 0.58184 0.56702 0.29321 0.0
H503 H 0.5773 0.566 0.24367 0.0
loop_
_geom_bond_atom_site_label_1
_geom_bond_atom_site_label_2
_geom_bond_distance
_geom_bond_site_symmetry_2
_ccdc_geom_bond_type
Co0 N5 2.057 . S
Co0 O17 2.021 . S
Co0 O20 2.062 1_455 S
Co0 O24 2.117 1_554 S
Co0 O25 2.020 1_565 S
C1 O21 1.259 1_455 S
C1 O24 1.258 1_545 S
Co2 N11 2.057 . S
Co2 O18 2.117 . S
Co2 O19 2.020 1_545 S
Co2 O21 2.021 1_554 S
Co2 O26 2.062 1_655 S
C3 N5 1.316 . S
C3 N6 1.347 . S
C3 H8 0.931 . S
C4 N5 1.375 1_556 S
C4 C7 1.350 . S
C4 H9 0.930 . S
N5 Co0 2.057 . S
N5 C3 1.316 . S
N5 C4 1.375 1_554 S
N6 C3 1.347 . S
N6 C7 1.373 1_554 S
C7 C4 1.350 . S
C7 N6 1.373 1_556 S
C7 H28 0.931 . S
H8 C3 0.931 . S
H9 C4 0.930 . S
C10 O17 1.259 1_545 S
C10 O18 1.258 1_455 S
N11 Co2 2.057 . S
N11 C12 1.316 . S
N11 C13 1.375 . S
C12 N11 1.316 . S
C12 N14 1.347 . S
C12 H23 0.931 1_554 S
C13 N11 1.375 . S
C13 C15 1.350 . S
C13 H22 0.930 . S
N14 C12 1.347 . S
N14 C15 1.373 . S
C15 C13 1.350 . S
C15 N14 1.373 . S
C15 H29 0.931 . S
C16 O19 1.256 . S
C16 O20 1.255 . S
O17 Co0 2.021 . S
O17 C10 1.259 1_565 S
O18 Co2 2.117 . S
O18 C10 1.258 1_655 S
O19 Co2 2.020 1_565 S
O19 C16 1.256 . S
O20 Co0 2.062 1_655 S
O20 C16 1.255 . S
O21 C1 1.259 1_655 S
O21 Co2 2.021 1_556 S
H22 C13 0.930 . S
H23 C12 0.931 1_556 S
O24 Co0 2.117 1_556 S
O24 C1 1.258 1_565 S
O25 Co0 2.020 1_545 S
O25 C27 1.256 . S
O26 Co2 2.062 1_455 S
O26 C27 1.255 . S
C27 O25 1.256 . S
C27 O26 1.255 . S
H28 C7 0.931 . S
H29 C15 0.931 . S
Co30 N35 2.057 . S
Co30 O47 2.021 . S
Co30 O50 2.062 . S
Co30 O54 2.117 . S
Co30 O55 2.020 . S
C31 O51 1.259 . S
C31 O54 1.258 . S
Co32 N41 2.057 . S
Co32 O48 2.117 . S
Co32 O49 2.020 . S
Co32 O51 2.021 . S
Co32 O56 2.062 . S
C33 N35 1.316 . S
C33 N36 1.347 . S
C33 H38 0.931 . S
C34 N35 1.375 . S
C34 C37 1.350 . S
C34 H39 0.930 . S
N35 Co30 2.057 . S
N35 C33 1.316 . S
N35 C34 1.375 . S
N36 C33 1.347 . S
N36 C37 1.373 . S
C37 C34 1.350 . S
C37 N36 1.373 . S
C37 H58 0.931 . S
H38 C33 0.931 . S
H39 C34 0.930 . S
C40 O47 1.259 . S
C40 O48 1.258 . S
N41 Co32 2.057 . S
N41 C42 1.316 . S
N41 C43 1.375 . S
C42 N41 1.316 . S
C42 N44 1.347 . S
C42 H53 0.931 . S
C43 N41 1.375 . S
C43 C45 1.350 . S
C43 H52 0.930 . S
N44 C42 1.347 . S
N44 C45 1.373 . S
C45 C43 1.350 . S
C45 N44 1.373 . S
C45 H59 0.931 . S
C46 O49 1.256 . S
C46 O50 1.255 . S
O47 Co30 2.021 . S
O47 C40 1.259 . S
O48 Co32 2.117 . S
O48 C40 1.258 . S
O49 Co32 2.020 . S
O49 C46 1.256 . S
O50 Co30 2.062 . S
O50 C46 1.255 . S
O51 C31 1.259 . S
O51 Co32 2.021 . S
H52 C43 0.930 . S
H53 C42 0.931 . S
O54 Co30 2.117 . S
O54 C31 1.258 . S
O55 Co30 2.020 . S
O55 C57 1.256 . S
O56 Co32 2.062 . S
O56 C57 1.255 . S
C57 O55 1.256 . S
C57 O56 1.255 . S
H58 C37 0.931 . S
H59 C45 0.931 . S
C60 C61 1.405 1_655 S
C60 C62 1.397 . S
C60 H84 0.931 . S
C61 C60 1.405 1_455 S
C61 C65 1.380 1_565 S
C62 C60 1.397 . S
C62 C63 1.408 1_655 S
C62 H85 0.930 . S
C63 C62 1.408 1_455 S
C63 C64 1.352 1_565 S
C63 C66 1.482 . S
C64 C63 1.352 1_545 S
C64 C65 1.389 . S
C64 H86 0.929 . S
C65 C61 1.380 1_545 S
C65 C64 1.389 . S
C65 H87 0.931 . S
C66 C63 1.482 . S
C66 C67 1.396 . S
C66 C71 1.381 1_465 S
C67 C66 1.396 . S
C67 C68 1.401 . S
C67 H88 0.930 . S
C68 C67 1.401 . S
C68 C69 1.371 1_465 S
C68 C77 1.511 . S
C69 C68 1.371 1_645 S
C69 C70 1.398 . S
C69 H90 0.931 . S
C70 C69 1.398 . S
C70 C71 1.361 . S
C70 C72 1.500 . S
C71 C66 1.381 1_645 S
C71 C70 1.361 . S
C71 H89 0.931 . S
C72 C70 1.500 . S
C72 C73 1.371 . S
C72 C74 1.365 . S
C73 C72 1.371 . S
C73 C83 1.386 . S
C73 H91 0.931 . S
C74 C72 1.365 . S
C74 C75 1.409 . S
C74 H92 0.929 . S
C75 C74 1.409 . S
C75 C76 1.380 . S
C75 H93 0.930 . S
C76 C75 1.380 . S
C76 C83 1.357 . S
C77 C68 1.511 . S
C77 C78 1.341 . S
C77 C79 1.371 . S
C78 C77 1.341 . S
C78 C82 1.394 . S
C78 H94 0.930 . S
C79 C77 1.371 . S
C79 C80 1.392 . S
C79 H95 0.931 . S
C80 C79 1.392 . S
C80 C81 1.331 . S
C80 H98 0.932 . S
C81 C80 1.331 . S
C81 C82 1.336 . S
C82 C78 1.394 . S
C82 C81 1.336 . S
C82 H97 0.929 . S
C83 C73 1.386 . S
C83 C76 1.357 . S
C83 H96 0.928 . S
H84 C60 0.931 . S
H85 C62 0.930 . S
H86 C64 0.929 . S
H87 C65 0.931 . S
H88 C67 0.930 . S
H89 C71 0.931 . S
H90 C69 0.931 . S
H91 C73 0.931 . S
H92 C74 0.929 . S
H93 C75 0.930 . S
H94 C78 0.930 . S
H95 C79 0.931 . S
H96 C83 0.928 . S
H97 C82 0.929 . S
H98 C80 0.932 . S
C99 C100 1.386 . S
C99 C101 1.397 . S
C99 H123 0.931 . S
C100 C99 1.386 . S
C100 C104 1.397 1_545 S
C101 C99 1.397 . S
C101 C102 1.384 . S
C101 H124 0.930 . S
C102 C101 1.384 . S
C102 C103 1.377 1_545 S
C102 C105 1.481 . S
C103 C102 1.377 1_565 S
C103 C104 1.389 . S
C103 H125 0.929 . S
C104 C100 1.397 1_565 S
C104 C103 1.389 . S
C104 H126 0.931 . S
C105 C102 1.481 . S
C105 C106 1.387 . S
C105 C110 1.390 1_445 S
C106 C105 1.387 . S
C106 C107 1.401 . S
C106 H127 0.930 . S
C107 C106 1.401 . S
C107 C108 1.389 . S
C107 C116 1.511 . S
C108 C107 1.389 . S
C108 C109 1.381 1_445 S
C108 H129 0.930 1_455 S
C109 C108 1.381 1_665 S
C109 C110 1.361 . S
C109 C111 1.500 . S
C110 C105 1.390 1_665 S
C110 C109 1.361 . S
C110 H128 0.931 . S
C111 C109 1.500 . S
C111 C112 1.371 . S
C111 C113 1.365 . S
C112 C111 1.371 . S
C112 C122 1.386 . S
C112 H130 0.931 . S
C113 C111 1.365 . S
C113 C114 1.409 . S
C113 H131 0.929 . S
C114 C113 1.409 . S
C114 C115 1.380 . S
C114 H132 0.930 . S
C115 C114 1.380 . S
C115 C122 1.357 . S
C116 C107 1.511 . S
C116 C117 1.341 . S
C116 C118 1.371 . S
C117 C116 1.341 . S
C117 C121 1.394 . S
C117 H133 0.930 . S
C118 C116 1.371 . S
C118 C119 1.392 . S
C118 H134 0.931 . S
C119 C118 1.392 . S
C119 C120 1.331 . S
C119 H137 0.932 . S
C120 C119 1.331 . S
C120 C121 1.336 . S
C121 C117 1.394 . S
C121 C120 1.336 . S
C121 H136 0.929 . S
C122 C112 1.386 . S
C122 C115 1.357 . S
C122 H135 0.928 . S
H123 C99 0.931 . S
H124 C101 0.930 . S
H125 C103 0.929 . S
H126 C104 0.931 . S
H127 C106 0.930 . S
H128 C110 0.931 . S
H129 C108 0.930 1_655 S
H130 C112 0.931 . S
H131 C113 0.929 . S
H132 C114 0.930 . S
H133 C117 0.930 . S
H134 C118 0.931 . S
H135 C122 0.928 . S
H136 C121 0.929 . S
H137 C119 0.932 . S
C138 C139 1.386 . S
C138 C140 1.397 . S
C138 H162 0.931 . S
C139 C138 1.386 . S
C139 C143 1.397 . S
C140 C138 1.397 . S
C140 C141 1.384 . S
C140 H163 0.930 . S
C141 C140 1.384 . S
C141 C142 1.377 . S
C141 C144 1.481 . S
C142 C141 1.377 . S
C142 C143 1.389 . S
C142 H164 0.929 . S
C143 C139 1.397 . S
C143 C142 1.389 . S
C143 H165 0.931 . S
C144 C141 1.481 . S
C144 C145 1.387 . S
C144 C149 1.390 . S
C145 C144 1.387 . S
C145 C146 1.401 . S
C145 H166 0.930 . S
C146 C145 1.401 . S
C146 C147 1.376 . S
C146 C155 1.511 . S
C147 C146 1.376 . S
C147 C148 1.392 . S
C147 H168 0.931 . S
C148 C147 1.392 . S
C148 C149 1.361 . S
C148 C150 1.500 . S
C149 C144 1.390 . S
C149 C148 1.361 . S
C149 H167 0.931 . S
C150 C148 1.500 . S
C150 C151 1.371 . S
C150 C152 1.365 . S
C151 C150 1.371 . S
C151 C161 1.386 . S
C151 H169 0.931 . S
C152 C150 1.365 . S
C152 C153 1.409 . S
C152 H170 0.929 . S
C153 C152 1.409 . S
C153 C154 1.380 . S
C153 H171 0.930 . S
C154 C153 1.380 . S
C154 C161 1.357 . S
C155 C146 1.511 . S
C155 C156 1.341 . S
C155 C157 1.371 . S
C156 C155 1.341 . S
C156 C160 1.394 . S
C156 H172 0.930 . S
C157 C155 1.371 . S
C157 C158 1.392 . S
C157 H173 0.931 . S
C158 C157 1.392 . S
C158 C159 1.331 . S
C158 H176 0.932 1_556 S
C159 C158 1.331 . S
C159 C160 1.336 . S
C160 C156 1.394 . S
C160 C159 1.336 . S
C160 H175 0.929 . S
C161 C151 1.386 . S
C161 C154 1.357 . S
C161 H174 0.928 1_556 S
H162 C138 0.931 . S
H163 C140 0.930 . S
H164 C142 0.929 . S
H165 C143 0.931 . S
H166 C145 0.930 . S
H167 C149 0.931 . S
H168 C147 0.931 . S
H169 C151 0.931 . S
H170 C152 0.929 . S
H171 C153 0.930 . S
H172 C156 0.930 . S
H173 C157 0.931 . S
H174 C161 0.928 1_554 S
H175 C160 0.929 . S
H176 C158 0.932 1_554 S
C177 C178 1.386 . S
C177 C179 1.397 . S
C177 H201 0.931 . S
C178 C177 1.386 . S
C178 C182 1.397 . S
C179 C177 1.397 . S
C179 C180 1.384 . S
C179 H202 0.930 . S
C180 C179 1.384 . S
C180 C181 1.377 . S
C180 C183 1.481 . S
C181 C180 1.377 . S
C181 C182 1.389 . S
C181 H203 0.929 . S
C182 C178 1.397 . S
C182 C181 1.389 . S
C182 H204 0.931 . S
C183 C180 1.481 . S
C183 C184 1.387 . S
C183 C188 1.390 . S
C184 C183 1.387 . S
C184 C185 1.401 . S
C184 H205 0.930 . S
C185 C184 1.401 . S
C185 C186 1.376 . S
C185 C194 1.511 . S
C186 C185 1.376 . S
C186 C187 1.392 . S
C186 H207 0.931 . S
C187 C186 1.392 . S
C187 C188 1.361 . S
C187 C189 1.500 . S
C188 C183 1.390 . S
C188 C187 1.361 . S
C188 H206 0.931 . S
C189 C187 1.500 . S
C189 C190 1.371 . S
C189 C191 1.365 . S
C190 C189 1.371 . S
C190 C200 1.386 . S
C190 H208 0.931 . S
C191 C189 1.365 . S
C191 C192 1.409 . S
C191 H209 0.929 . S
C192 C191 1.409 . S
C192 C193 1.380 . S
C192 H210 0.930 . S
C193 C192 1.380 . S
C193 C200 1.357 . S
C194 C185 1.511 . S
C194 C195 1.341 . S
C194 C196 1.371 . S
C195 C194 1.341 . S
C195 C199 1.394 . S
C195 H211 0.930 . S
C196 C194 1.371 . S
C196 C197 1.392 . S
C196 H212 0.931 . S
C197 C196 1.392 . S
C197 C198 1.331 . S
C197 H215 0.932 . S
C198 C197 1.331 . S
C198 C199 1.336 . S
C199 C195 1.394 . S
C199 C198 1.336 . S
C199 H214 0.929 . S
C200 C190 1.386 . S
C200 C193 1.357 . S
C200 H213 0.928 . S
H201 C177 0.931 . S
H202 C179 0.930 . S
H203 C181 0.929 . S
H204 C182 0.931 . S
H205 C184 0.930 . S
H206 C188 0.931 . S
H207 C186 0.931 . S
H208 C190 0.931 . S
H209 C191 0.929 . S
H210 C192 0.930 . S
H211 C195 0.930 . S
H212 C196 0.931 . S
H213 C200 0.928 . S
H214 C199 0.929 . S
H215 C197 0.932 . S
C216 C217 1.386 . S
C216 C218 1.383 . S
C216 H232 0.951 . S
C217 C216 1.386 . S
C217 C221 1.383 1_554 S
C218 C216 1.383 . S
C218 C219 1.402 . S
C218 H233 0.951 . S
C219 C218 1.402 . S
C219 C220 1.375 1_554 S
C219 C222 1.481 . S
C220 C219 1.375 1_556 S
C220 C221 1.367 . S
C220 H234 0.951 . S
C221 C217 1.383 1_556 S
C221 C220 1.367 . S
C221 H235 0.950 . S
C222 C219 1.481 . S
C222 C223 1.297 . S
C222 H236 0.950 1_554 S
C223 C222 1.297 . S
C223 C224 1.479 . S
C223 H237 0.950 . S
C224 C223 1.479 . S
C224 C225 1.375 . S
C224 C230 1.404 . S
C225 C224 1.375 . S
C225 C226 1.369 . S
C225 H238 0.950 . S
C226 C225 1.369 . S
C226 C227 1.392 . S
C226 H239 0.951 . S
C227 C226 1.392 . S
C227 C229 1.384 . S
H228 C230 0.949 1_556 S
C229 C227 1.384 . S
C229 C230 1.385 . S
C229 H231 0.950 1_554 S
C230 C224 1.404 . S
C230 H228 0.949 1_554 S
C230 C229 1.385 . S
H231 C229 0.950 1_556 S
H232 C216 0.951 . S
H233 C218 0.951 . S
H234 C220 0.951 . S
H235 C221 0.950 . S
H236 C222 0.950 1_556 S
H237 C223 0.950 . S
H238 C225 0.950 . S
H239 C226 0.951 . S
C240 C241 1.386 . S
C240 C242 1.383 . S
C240 H256 0.951 . S
C241 C240 1.386 . S
C241 C245 1.383 1_554 S
C242 C240 1.383 . S
C242 C243 1.402 1_554 S
C242 H257 0.951 . S
C243 C242 1.402 1_556 S
C243 C244 1.375 . S
C243 C246 1.481 . S
C244 C243 1.375 . S
C244 C245 1.367 . S
C244 H258 0.951 . S
C245 C241 1.383 1_556 S
C245 C244 1.367 . S
C245 H259 0.950 . S
C246 C243 1.481 . S
C246 C247 1.299 1_556 S
C246 H260 0.950 . S
C247 C246 1.299 1_554 S
C247 C248 1.480 1_554 S
C247 H261 0.948 . S
C248 C247 1.480 1_556 S
C248 C249 1.375 1_556 S
C248 C254 1.404 . S
C249 C248 1.375 1_554 S
C249 C250 1.369 . S
C249 H262 0.950 . S
C250 C249 1.369 . S
C250 C251 1.392 1_554 S
C250 H263 0.951 . S
C251 C250 1.392 1_556 S
C251 C253 1.384 . S
H252 C254 0.949 . S
C253 C251 1.384 . S
C253 C254 1.385 . S
C253 H255 0.950 . S
C254 C248 1.404 . S
C254 H252 0.949 . S
C254 C253 1.385 . S
H255 C253 0.950 . S
H256 C240 0.951 . S
H257 C242 0.951 . S
H258 C244 0.951 . S
H259 C245 0.950 . S
H260 C246 0.950 . S
H261 C247 0.948 . S
H262 C249 0.950 . S
H263 C250 0.951 . S
C264 C265 1.386 . S
C264 C266 1.383 . S
C264 H280 0.951 . S
C265 C264 1.386 . S
C265 C269 1.383 . S
C266 C264 1.383 . S
C266 C267 1.402 . S
C266 H281 0.951 . S
C267 C266 1.402 . S
C267 C268 1.375 . S
C267 C270 1.481 . S
C268 C267 1.375 . S
C268 C269 1.367 . S
C268 H282 0.951 . S
C269 C265 1.383 . S
C269 C268 1.367 . S
C269 H283 0.950 . S
C270 C267 1.481 . S
C270 C271 1.297 . S
C270 H284 0.950 . S
C271 C270 1.297 . S
C271 C272 1.479 . S
C271 H285 0.950 . S
C272 C271 1.479 . S
C272 C273 1.375 . S
C272 C278 1.404 . S
C273 C272 1.375 . S
C273 C274 1.369 . S
C273 H286 0.950 . S
C274 C273 1.369 . S
C274 C275 1.392 . S
C274 H287 0.951 . S
C275 C274 1.392 . S
C275 C277 1.384 . S
H276 C278 0.949 . S
C277 C275 1.384 . S
C277 C278 1.385 . S
C277 H279 0.950 . S
C278 C272 1.404 . S
C278 H276 0.949 . S
C278 C277 1.385 . S
H279 C277 0.950 . S
H280 C264 0.951 . S
H281 C266 0.951 . S
H282 C268 0.951 . S
H283 C269 0.950 . S
H284 C270 0.950 . S
H285 C271 0.950 . S
H286 C273 0.950 . S
H287 C274 0.951 . S
C288 C289 1.386 . S
C288 C290 1.383 . S
C288 H304 0.951 . S
C289 C288 1.386 . S
C289 C293 1.383 1_554 S
C290 C288 1.383 . S
C290 C291 1.402 1_554 S
C290 H305 0.951 . S
C291 C290 1.402 1_556 S
C291 C292 1.375 . S
C291 C294 1.481 . S
C292 C291 1.375 . S
C292 C293 1.367 . S
C292 H306 0.951 . S
C293 C289 1.383 1_556 S
C293 C292 1.367 . S
C293 H307 0.950 . S
C294 C291 1.481 . S
C294 C295 1.297 . S
C294 H308 0.950 . S
C295 C294 1.297 . S
C295 C296 1.479 . S
C295 H309 0.950 1_556 S
C296 C295 1.479 . S
C296 C297 1.375 1_556 S
C296 C302 1.404 . S
C297 C296 1.375 1_554 S
C297 C298 1.369 . S
C297 H310 0.950 . S
C298 C297 1.369 . S
C298 C299 1.392 1_554 S
C298 H311 0.951 . S
C299 C298 1.392 1_556 S
C299 C301 1.384 . S
H300 C302 0.949 . S
C301 C299 1.384 . S
C301 C302 1.385 . S
C301 H303 0.950 . S
C302 C296 1.404 . S
C302 H300 0.949 . S
C302 C301 1.385 . S
H303 C301 0.950 . S
H304 C288 0.951 . S
H305 C290 0.951 . S
H306 C292 0.951 . S
H307 C293 0.950 . S
H308 C294 0.950 . S
H309 C295 0.950 1_554 S
H310 C297 0.950 . S
H311 C298 0.951 . S
C312 C313 1.386 . S
C312 C314 1.383 . S
C312 H328 0.951 . S
C313 C312 1.386 . S
C313 C317 1.383 . S
C314 C312 1.383 . S
C314 C315 1.402 . S
C314 H329 0.951 . S
C315 C314 1.402 . S
C315 C316 1.375 . S
C315 C318 1.481 . S
C316 C315 1.375 . S
C316 C317 1.367 . S
C316 H330 0.951 . S
C317 C313 1.383 . S
C317 C316 1.367 . S
C317 H331 0.950 . S
C318 C315 1.481 . S
C318 C319 1.297 . S
C318 H332 0.950 . S
C319 C318 1.297 . S
C319 C320 1.479 . S
C319 H333 0.950 . S
C320 C319 1.479 . S
C320 C321 1.375 . S
C320 C326 1.404 . S
C321 C320 1.375 . S
C321 C322 1.369 . S
C321 H334 0.950 . S
C322 C321 1.369 . S
C322 C323 1.392 . S
C322 H335 0.951 . S
C323 C322 1.392 . S
C323 C325 1.384 . S
H324 C326 0.949 . S
C325 C323 1.384 . S
C325 C326 1.385 . S
C325 H327 0.950 . S
C326 C320 1.404 . S
C326 H324 0.949 . S
C326 C325 1.385 . S
H327 C325 0.950 . S
H328 C312 0.951 . S
H329 C314 0.951 . S
H330 C316 0.951 . S
H331 C317 0.950 . S
H332 C318 0.950 . S
H333 C319 0.950 . S
H334 C321 0.950 . S
H335 C322 0.951 . S
C336 C337 1.386 . S
C336 C338 1.383 . S
C336 H352 0.951 . S
C337 C336 1.386 . S
C337 C341 1.383 . S
C338 C336 1.383 . S
C338 C339 1.402 . S
C338 H353 0.951 . S
C339 C338 1.402 . S
C339 C340 1.375 . S
C339 C342 1.481 . S
C340 C339 1.375 . S
C340 C341 1.367 . S
C340 H354 0.951 . S
C341 C337 1.383 . S
C341 C340 1.367 . S
C341 H355 0.950 . S
C342 C339 1.481 . S
C342 C343 1.297 . S
C342 H356 0.950 . S
C343 C342 1.297 . S
C343 C344 1.479 . S
C343 H357 0.950 . S
C344 C343 1.479 . S
C344 C345 1.375 . S
C344 C350 1.404 . S
C345 C344 1.375 . S
C345 C346 1.369 . S
C345 H358 0.950 . S
C346 C345 1.369 . S
C346 C347 1.392 . S
C346 H359 0.951 . S
C347 C346 1.392 . S
C347 C349 1.384 . S
H348 C350 0.949 . S
C349 C347 1.384 . S
C349 C350 1.385 . S
C349 H351 0.950 . S
C350 C344 1.404 . S
C350 H348 0.949 . S
C350 C349 1.385 . S
H351 C349 0.950 . S
H352 C336 0.951 . S
H353 C338 0.951 . S
H354 C340 0.951 . S
H355 C341 0.950 . S
H356 C342 0.950 . S
H357 C343 0.950 . S
H358 C345 0.950 . S
H359 C346 0.951 . S
C360 C361 1.386 . S
C360 C362 1.383 . S
C360 H376 0.951 . S
C361 C360 1.386 . S
C361 C365 1.383 . S
C362 C360 1.383 . S
C362 C363 1.402 . S
C362 H377 0.951 . S
C363 C362 1.402 . S
C363 C364 1.375 . S
C363 C366 1.481 . S
C364 C363 1.375 . S
C364 C365 1.367 . S
C364 H378 0.951 . S
C365 C361 1.383 . S
C365 C364 1.367 . S
C365 H379 0.950 . S
C366 C363 1.481 . S
C366 C367 1.297 . S
C366 H380 0.950 . S
C367 C366 1.297 . S
C367 C368 1.479 . S
C367 H381 0.950 . S
C368 C367 1.479 . S
C368 C369 1.375 . S
C368 C374 1.404 . S
C369 C368 1.375 . S
C369 C370 1.369 . S
C369 H382 0.950 . S
C370 C369 1.369 . S
C370 C371 1.392 . S
C370 H383 0.951 . S
C371 C370 1.392 . S
C371 C373 1.384 . S
H372 C374 0.949 . S
C373 C371 1.384 . S
C373 C374 1.385 . S
C373 H375 0.950 . S
C374 C368 1.404 . S
C374 H372 0.949 . S
C374 C373 1.385 . S
H375 C373 0.950 . S
H376 C360 0.951 . S
H377 C362 0.951 . S
H378 C364 0.951 . S
H379 C365 0.950 . S
H380 C366 0.950 . S
H381 C367 0.950 . S
H382 C369 0.950 . S
H383 C370 0.951 . S
C384 C385 1.386 . S
C384 C386 1.383 . S
C384 H400 0.951 . S
C385 C384 1.386 . S
C385 C389 1.383 . S
C386 C384 1.383 . S
C386 C387 1.402 . S
C386 H401 0.951 . S
C387 C386 1.402 . S
C387 C388 1.375 . S
C387 C390 1.481 . S
C388 C387 1.375 . S
C388 C389 1.367 . S
C388 H402 0.951 . S
C389 C385 1.383 . S
C389 C388 1.367 . S
C389 H403 0.950 . S
C390 C387 1.481 . S
C390 C391 1.297 . S
C390 H404 0.950 . S
C391 C390 1.297 . S
C391 C392 1.479 . S
C391 H405 0.950 . S
C392 C391 1.479 . S
C392 C393 1.375 . S
C392 C398 1.404 . S
C393 C392 1.375 . S
C393 C394 1.369 . S
C393 H406 0.950 . S
C394 C393 1.369 . S
C394 C395 1.392 . S
C394 H407 0.951 . S
C395 C394 1.392 . S
C395 C397 1.384 . S
H396 C398 0.949 . S
C397 C395 1.384 . S
C397 C398 1.385 . S
C397 H399 0.950 . S
C398 C392 1.404 . S
C398 H396 0.949 . S
C398 C397 1.385 . S
H399 C397 0.950 . S
H400 C384 0.951 . S
H401 C386 0.951 . S
H402 C388 0.951 . S
H403 C389 0.950 . S
H404 C390 0.950 . S
H405 C391 0.950 . S
H406 C393 0.950 . S
H407 C394 0.951 . S
C408 C409 1.386 1_565 S
C408 C410 1.383 . S
C408 H424 0.951 . S
C409 C408 1.386 1_545 S
C409 C413 1.383 1_455 S
C410 C408 1.383 . S
C410 C411 1.387 1_465 S
C410 H425 0.952 . S
C411 C410 1.387 1_645 S
C411 C412 1.388 . S
C411 C414 1.483 . S
C412 C411 1.388 . S
C412 C413 1.367 . S
C412 H426 0.951 . S
C413 C409 1.383 1_655 S
C413 C412 1.367 . S
C413 H427 0.950 . S
C414 C411 1.483 . S
C414 C415 1.297 1_655 S
C414 H428 0.950 . S
C415 C414 1.297 1_455 S
C415 C416 1.479 . S
C415 H429 0.950 . S
C416 C415 1.479 . S
C416 C417 1.375 1_545 S
C416 C422 1.404 1_455 S
C417 C416 1.375 1_565 S
C417 C418 1.369 . S
C417 H430 0.950 . S
C418 C417 1.369 . S
C418 C419 1.392 1_565 S
C418 H431 0.951 . S
C419 C418 1.392 1_545 S
C419 C421 1.384 1_455 S
H420 C422 0.949 . S
C421 C419 1.384 1_655 S
C421 C422 1.385 . S
C421 H423 0.950 . S
C422 C416 1.404 1_655 S
C422 H420 0.949 . S
C422 C421 1.385 . S
H423 C421 0.950 . S
H424 C408 0.951 . S
H425 C410 0.952 . S
H426 C412 0.951 . S
H427 C413 0.950 . S
H428 C414 0.950 . S
H429 C415 0.950 . S
H430 C417 0.950 . S
H431 C418 0.951 . S
C432 C433 1.386 . S
C432 C434 1.383 . S
C432 H448 0.951 . S
C433 C432 1.386 . S
C433 C437 1.383 1_445 S
C434 C432 1.383 . S
C434 C435 1.402 1_545 S
C434 H449 0.951 . S
C435 C434 1.402 1_565 S
C435 C436 1.375 1_455 S
C435 C438 1.481 . S
C436 C435 1.375 1_655 S
C436 C437 1.367 . S
C436 H450 0.951 . S
C437 C433 1.383 1_665 S
C437 C436 1.367 . S
C437 H451 0.950 . S
C438 C435 1.481 . S
C438 C439 1.297 1_565 S
C438 H452 0.950 1_455 S
C439 C438 1.297 1_545 S
C439 C440 1.479 . S
C439 H453 0.950 . S
C440 C439 1.479 . S
C440 C441 1.375 . S
C440 C446 1.404 1_445 S
C441 C440 1.375 . S
C441 C442 1.369 . S
C441 H454 0.950 . S
C442 C441 1.369 . S
C442 C443 1.392 . S
C442 H455 0.951 . S
C443 C442 1.392 . S
C443 C445 1.384 1_445 S
H444 C446 0.949 . S
C445 C443 1.384 1_665 S
C445 C446 1.385 . S
C445 H447 0.950 . S
C446 C440 1.404 1_665 S
C446 H444 0.949 . S
C446 C445 1.385 . S
H447 C445 0.950 . S
H448 C432 0.951 . S
H449 C434 0.951 . S
H450 C436 0.951 . S
H451 C437 0.950 . S
H452 C438 0.950 1_655 S
H453 C439 0.950 . S
H454 C441 0.950 . S
H455 C442 0.951 . S
C456 C457 1.386 . S
C456 C458 1.383 . S
C456 H472 0.951 . S
C457 C456 1.386 . S
C457 C461 1.383 . S
C458 C456 1.383 . S
C458 C459 1.402 . S
C458 H473 0.951 . S
C459 C458 1.402 . S
C459 C460 1.375 . S
C459 C462 1.481 . S
C460 C459 1.375 . S
C460 C461 1.367 . S
C460 H474 0.951 . S
C461 C457 1.383 . S
C461 C460 1.367 . S
C461 H475 0.950 . S
C462 C459 1.481 . S
C462 C463 1.297 . S
C462 H476 0.950 . S
C463 C462 1.297 . S
C463 C464 1.479 . S
C463 H477 0.950 . S
C464 C463 1.479 . S
C464 C465 1.375 . S
C464 C470 1.404 . S
C465 C464 1.375 . S
C465 C466 1.369 . S
C465 H478 0.950 . S
C466 C465 1.369 . S
C466 C467 1.392 . S
C466 H479 0.951 . S
C467 C466 1.392 . S
C467 C469 1.384 . S
H468 C470 0.949 . S
C469 C467 1.384 . S
C469 C470 1.385 . S
C469 H471 0.950 . S
C470 C464 1.404 . S
C470 H468 0.949 . S
C470 C469 1.385 . S
H471 C469 0.950 . S
H472 C456 0.951 . S
H473 C458 0.951 . S
H474 C460 0.951 . S
H475 C461 0.950 . S
H476 C462 0.950 . S
H477 C463 0.950 . S
H478 C465 0.950 . S
H479 C466 0.951 . S
C480 C481 1.386 . S
C480 C482 1.383 . S
C480 H496 0.951 . S
C481 C480 1.386 . S
C481 C485 1.383 . S
C482 C480 1.383 . S
C482 C483 1.402 . S
C482 H497 0.951 . S
C483 C482 1.402 . S
C483 C484 1.375 . S
C483 C486 1.481 . S
C484 C483 1.375 . S
C484 C485 1.367 . S
C484 H498 0.951 . S
C485 C481 1.383 . S
C485 C484 1.367 . S
C485 H499 0.950 . S
C486 C483 1.481 . S
C486 C487 1.297 . S
C486 H500 0.950 . S
C487 C486 1.297 . S
C487 C488 1.479 . S
C487 H501 0.950 . S
C488 C487 1.479 . S
C488 C489 1.375 . S
C488 C494 1.404 . S
C489 C488 1.375 . S
C489 C490 1.369 . S
C489 H502 0.950 . S
C490 C489 1.369 . S
C490 C491 1.392 . S
C490 H503 0.951 . S
C491 C490 1.392 . S
C491 C493 1.384 . S
H492 C494 0.949 . S
C493 C491 1.384 . S
C493 C494 1.385 . S
C493 H495 0.950 . S
C494 C488 1.404 . S
C494 H492 0.949 . S
C494 C493 1.385 . S
H495 C493 0.950 . S
H496 C480 0.951 . S
H497 C482 0.951 . S
H498 C484 0.951 . S
H499 C485 0.950 . S
H500 C486 0.950 . S
H501 C487 0.950 . S
H502 C489 0.950 . S
H503 C490 0.951 . S
C227 C193 1.419 . S
C217 C27 1.450 . S
C241 N6 1.325 . S
C251 C154 1.353 . S
C265 C16 1.436 . S
C275 C198 1.433 . S
C289 N14 1.382 . S
C299 C159 1.338 . S
C313 C57 1.450 . S
C323 C115 1.417 . S
C337 N36 1.366 . S
C347 C76 1.401 . S
C371 C120 1.397 . S
C361 C46 1.435 . S
C395 C81 1.356 . S
C385 N44 1.348 . S
C409 C10 1.389 . S
C419 C61 1.376 1_545 S
C433 C1 1.525 . S
C443 C100 1.519 . S
C467 C139 1.380 . S
C457 C40 1.384 . S
C481 C31 1.522 . S
C491 C178 1.519 . S
