# Generated by pormake.
# Topology nom, (4,4)-cn, num edge types: 1
# Building blocks:
#     Node 0, Type 0, BuildingBlock: MUDLON_clean_linker_0, # of connection points: 4
#     Node 1, Type 0, BuildingBlock: MUDLON_clean_linker_0, # of connection points: 4
#     Node 2, Type 0, BuildingBlock: MUDLON_clean_linker_0, # of connection points: 4
#     Node 3, Type 0, BuildingBlock: MUDLON_clean_linker_0, # of connection points: 4
#     Node 4, Type 0, BuildingBlock: MUDLON_clean_linker_0, # of connection points: 4
#     Node 5, Type 0, BuildingBlock: MUDLON_clean_linker_0, # of connection points: 4
#     Node 6, Type 1, BuildingBlock: KUFVIS_clean_sbu_0, # of connection points: 4
#     Node 7, Type 1, BuildingBlock: KUFVIS_clean_sbu_0, # of connection points: 4
#     Node 8, Type 1, BuildingBlock: KUFVIS_clean_sbu_0, # of connection points: 4
#     Node 9, Type 1, BuildingBlock: KUFVIS_clean_sbu_0, # of connection points: 4
#     Node 10, Type 1, BuildingBlock: KUFVIS_clean_sbu_0, # of connection points: 4
#     Node 11, Type 1, BuildingBlock: KUFVIS_clean_sbu_0, # of connection points: 4
#     Edge 12, Type (0, 1), BuildingBlock: XUDNAN_clean_linker_2, # of connection points: 2
#     Edge 13, Type (0, 1), BuildingBlock: XUDNAN_clean_linker_2, # of connection points: 2
#     Edge 14, Type (0, 1), BuildingBlock: XUDNAN_clean_linker_2, # of connection points: 2
#     Edge 15, Type (0, 1), BuildingBlock: XUDNAN_clean_linker_2, # of connection points: 2
#     Edge 16, Type (0, 1), BuildingBlock: XUDNAN_clean_linker_2, # of connection points: 2
#     Edge 17, Type (0, 1), BuildingBlock: XUDNAN_clean_linker_2, # of connection points: 2
#     Edge 18, Type (0, 1), BuildingBlock: XUDNAN_clean_linker_2, # of connection points: 2
#     Edge 19, Type (0, 1), BuildingBlock: XUDNAN_clean_linker_2, # of connection points: 2
#     Edge 20, Type (0, 1), BuildingBlock: XUDNAN_clean_linker_2, # of connection points: 2
#     Edge 21, Type (0, 1), BuildingBlock: XUDNAN_clean_linker_2, # of connection points: 2
#     Edge 22, Type (0, 1), BuildingBlock: XUDNAN_clean_linker_2, # of connection points: 2
#     Edge 23, Type (0, 1), BuildingBlock: XUDNAN_clean_linker_2, # of connection points: 2
#     Edge 24, Type (0, 1), BuildingBlock: XUDNAN_clean_linker_2, # of connection points: 2
#     Edge 25, Type (0, 1), BuildingBlock: XUDNAN_clean_linker_2, # of connection points: 2
#     Edge 26, Type (0, 1), BuildingBlock: XUDNAN_clean_linker_2, # of connection points: 2
#     Edge 27, Type (0, 1), BuildingBlock: XUDNAN_clean_linker_2, # of connection points: 2
#     Edge 28, Type (0, 1), BuildingBlock: XUDNAN_clean_linker_2, # of connection points: 2
#     Edge 29, Type (0, 1), BuildingBlock: XUDNAN_clean_linker_2, # of connection points: 2
#     Edge 30, Type (0, 1), BuildingBlock: XUDNAN_clean_linker_2, # of connection points: 2
#     Edge 31, Type (0, 1), BuildingBlock: XUDNAN_clean_linker_2, # of connection points: 2
#     Edge 32, Type (0, 1), BuildingBlock: XUDNAN_clean_linker_2, # of connection points: 2
#     Edge 33, Type (0, 1), BuildingBlock: XUDNAN_clean_linker_2, # of connection points: 2
#     Edge 34, Type (0, 1), BuildingBlock: XUDNAN_clean_linker_2, # of connection points: 2
#     Edge 35, Type (0, 1), BuildingBlock: XUDNAN_clean_linker_2, # of connection points: 2
# Relax obj value: 0.008
# Max RMSD: 0.106
# Mean RMSD: 0.064
data_MOF--net-nom--node1-KUFVIS_clean_sbu_0--node2-MUDLON_clean_linker_0--edge1-XUDNAN_clean_linker_2
_symmetry_space_group_name_H-M    P1
_symmetry_Int_Tables_number       1
_symmetry_cell_setting            triclinic
loop_
_symmetry_equiv_pos_as_xyz
'x, y, z'
_cell_length_a     59.747356
_cell_length_b     61.258086
_cell_length_c     60.781012
_cell_angle_alpha  91.118769
_cell_angle_beta   90.388142
_cell_angle_gamma 120.52437
loop_
_atom_site_label
_atom_site_type_symbol
_atom_site_fract_x
_atom_site_fract_y
_atom_site_fract_z
_atom_type_partial_charge
H0 H 0.11073 0.57667 0.302 0.0
N1 N 0.09942 0.59996 0.33556 0.0
H2 H 0.14836 0.59707 0.27785 0.0
H3 H 0.13368 0.64912 0.33294 0.0
H4 H 0.17146 0.66954 0.30911 0.0
H5 H 0.10933 0.62427 0.37428 0.0
H6 H 0.13168 0.61992 0.40621 0.0
H7 H 0.11332 0.56407 0.34022 0.0
H8 H 0.13474 0.55874 0.37234 0.0
H9 H 0.06489 0.55341 0.35354 0.0
H10 H 0.07345 0.60327 0.30069 0.0
H11 H 0.02087 0.5243 0.34149 0.0
H12 H 0.02898 0.57342 0.28838 0.0
H13 H 0.90229 0.50893 0.26816 0.0
H14 H 0.88652 0.50478 0.23005 0.0
H15 H 0.89178 0.43756 0.22047 0.0
H16 H 0.90867 0.44246 0.25831 0.0
H17 H 0.90259 0.50857 0.31129 0.0
H18 H 0.86549 0.49573 0.33513 0.0
H19 H 0.84199 0.41708 0.32268 0.0
H20 H 0.88006 0.43036 0.30006 0.0
H21 H 0.94943 0.46529 0.30227 0.0
H22 H 0.99505 0.49434 0.31258 0.0
H23 H 0.98495 0.55803 0.29993 0.0
N24 N 0.91462 0.47686 0.28852 0.0
H25 H 0.93976 0.52891 0.28918 0.0
C26 C 0.11929 0.6115 0.31917 0.0
C27 C 0.12362 0.597 0.30336 0.0
C28 C 0.14512 0.60865 0.2896 0.0
C29 C 0.16291 0.63485 0.29175 0.0
C30 C 0.15822 0.64929 0.30725 0.0
C31 C 0.13657 0.63773 0.32071 0.0
C32 C 0.10965 0.59456 0.35498 0.0
C33 C 0.11453 0.60971 0.37396 0.0
C34 C 0.12718 0.60705 0.39222 0.0
C35 C 0.1351 0.58897 0.39191 0.0
C36 C 0.12934 0.57314 0.37306 0.0
C37 C 0.11697 0.57605 0.3547 0.0
C38 C 0.07364 0.58061 0.32753 0.0
C39 C 0.05795 0.55804 0.33892 0.0
C40 C 0.03234 0.54113 0.33204 0.0
C41 C 0.02135 0.54632 0.31383 0.0
C42 C 0.03675 0.56883 0.30253 0.0
C43 C 0.0624 0.58579 0.30941 0.0
C44 C 0.90722 0.47626 0.26586 0.0
C45 C 0.90087 0.4938 0.25769 0.0
C46 C 0.89165 0.4913 0.23601 0.0
C47 C 0.88797 0.47085 0.22247 0.0
C48 C 0.89443 0.45344 0.23066 0.0
C49 C 0.90416 0.45628 0.25212 0.0
C50 C 0.89432 0.47035 0.30416 0.0
C51 C 0.88981 0.48862 0.31411 0.0
C52 C 0.86827 0.48117 0.32755 0.0
C53 C 0.85051 0.45528 0.33094 0.0
C54 C 0.85538 0.43717 0.32101 0.0
C55 C 0.87708 0.44468 0.30793 0.0
C56 C 0.94111 0.49479 0.29506 0.0
C57 C 0.95713 0.48554 0.30179 0.0
C58 C 0.98315 0.50218 0.30773 0.0
C59 C 0.99373 0.52858 0.30709 0.0
C60 C 0.97758 0.53784 0.30032 0.0
C61 C 0.95155 0.52113 0.29434 0.0
H62 H 0.4798 0.90855 0.48182 0.0
N63 N 0.47065 0.93192 0.44957 0.0
H64 H 0.44769 0.86879 0.49863 0.0
H65 H 0.41807 0.91222 0.44826 0.0
H66 H 0.38611 0.87218 0.46441 0.0
H67 H 0.44601 0.94537 0.41925 0.0
H68 H 0.43497 0.92944 0.38098 0.0
H69 H 0.48421 0.90243 0.42812 0.0
H70 H 0.47316 0.88631 0.39004 0.0
H71 H 0.5198 0.96759 0.44537 0.0
H72 H 0.44588 0.95609 0.46624 0.0
H73 H 0.54022 0.01265 0.45461 0.0
H74 H 0.46641 1.00097 0.47691 0.0
H75 H 0.6013 0.14789 0.51639 0.0
H76 H 0.60485 0.16167 0.555 0.0
H77 H 0.52251 0.11028 0.56218 0.0
H78 H 0.51911 0.0967 0.52344 0.0
H79 H 0.52058 0.12877 0.49597 0.0
H80 H 0.52498 0.1683 0.4831 0.0
H81 H 0.59573 0.18541 0.45037 0.0
H82 H 0.59152 0.14598 0.46373 0.0
H83 H 0.5763 0.08478 0.49534 0.0
H84 H 0.55394 0.03989 0.48511 0.0
H85 H 0.48615 0.04336 0.46531 0.0
N86 N 0.55842 0.11623 0.49371 0.0
H87 H 0.50833 0.08804 0.47691 0.0
C88 C 0.45141 0.91316 0.46362 0.0
C89 C 0.4593 0.90129 0.47876 0.0
C90 C 0.44099 0.87864 0.48833 0.0
C91 C 0.41455 0.86747 0.48264 0.0
C92 C 0.40643 0.88051 0.46902 0.0
C93 C 0.42469 0.90336 0.45977 0.0
C94 C 0.46616 0.92519 0.42643 0.0
C95 C 0.45237 0.93285 0.41284 0.0
C96 C 0.44603 0.9237 0.39103 0.0
C97 C 0.45303 0.90648 0.38262 0.0
C98 C 0.46723 0.8993 0.39616 0.0
C99 C 0.47376 0.90863 0.4178 0.0
C100 C 0.48152 0.95837 0.45544 0.0
C101 C 0.50806 0.97483 0.45222 0.0
C102 C 0.51971 1.00058 0.4577 0.0
C103 C 0.50514 0.01056 0.46695 0.0
C104 C 0.47828 0.99408 0.46975 0.0
C105 C 0.46651 0.96826 0.46387 0.0
C106 C 0.56009 0.12122 0.51712 0.0
C107 C 0.58413 0.13935 0.52643 0.0
C108 C 0.58605 0.14734 0.54836 0.0
C109 C 0.5639 0.1372 0.56149 0.0
C110 C 0.5399 0.11832 0.55243 0.0
C111 C 0.53795 0.11051 0.53034 0.0
C112 C 0.55596 0.13456 0.48097 0.0
C113 C 0.53655 0.14052 0.4854 0.0
C114 C 0.53913 0.16318 0.47812 0.0
C115 C 0.56087 0.18 0.466 0.0
C116 C 0.57874 0.17272 0.45962 0.0
C117 C 0.57634 0.15021 0.46717 0.0
C118 C 0.5443 0.08993 0.48661 0.0
C119 C 0.55663 0.07581 0.48874 0.0
C120 C 0.54381 0.05015 0.4827 0.0
C121 C 0.51827 0.03789 0.47399 0.0
C122 C 0.50572 0.05203 0.47206 0.0
C123 C 0.51853 0.07776 0.47848 0.0
H124 H 0.49199 0.62116 0.66683 0.0
N125 N 0.47361 0.57417 0.68003 0.0
H126 H 0.46945 0.63698 0.64447 0.0
H127 H 0.42839 0.54477 0.65659 0.0
H128 H 0.40439 0.56036 0.63605 0.0
H129 H 0.42554 0.53773 0.69365 0.0
H130 H 0.40665 0.5363 0.72912 0.0
H131 H 0.49729 0.60375 0.71531 0.0
H132 H 0.47858 0.60212 0.7515 0.0
H133 H 0.52084 0.5913 0.66473 0.0
H134 H 0.44996 0.5221 0.67841 0.0
H135 H 0.54115 0.56699 0.65369 0.0
H136 H 0.4705 0.49758 0.66877 0.0
H137 H 0.58021 0.44796 0.62213 0.0
H138 H 0.58436 0.43962 0.58399 0.0
H139 H 0.55712 0.48981 0.56478 0.0
H140 H 0.55124 0.497 0.60305 0.0
H141 H 0.52386 0.42722 0.63793 0.0
H142 H 0.52364 0.39345 0.6594 0.0
H143 H 0.59077 0.44964 0.69664 0.0
H144 H 0.59162 0.48316 0.67453 0.0
H145 H 0.58114 0.522 0.65979 0.0
H146 H 0.5585 0.54446 0.66953 0.0
H147 H 0.48733 0.48255 0.64105 0.0
N148 N 0.56203 0.47727 0.63948 0.0
H149 H 0.51021 0.45971 0.63243 0.0
C150 C 0.46165 0.58197 0.66378 0.0
C151 C 0.47315 0.60781 0.65961 0.0
C152 C 0.45997 0.61681 0.64711 0.0
C153 C 0.43459 0.60014 0.63893 0.0
C154 C 0.42381 0.57392 0.64199 0.0
C155 C 0.43739 0.5649 0.65404 0.0
C156 C 0.46306 0.5708 0.7018 0.0
C157 C 0.43752 0.55164 0.70616 0.0
C158 C 0.42667 0.55082 0.72662 0.0
C159 C 0.44106 0.5691 0.74324 0.0
C160 C 0.46683 0.58792 0.73901 0.0
C161 C 0.47767 0.58872 0.71847 0.0
C162 C 0.48413 0.55871 0.67278 0.0
C163 C 0.50973 0.57082 0.66547 0.0
C164 C 0.52137 0.55683 0.65939 0.0
C165 C 0.50774 0.53022 0.66076 0.0
C166 C 0.48166 0.51799 0.66743 0.0
C167 C 0.4699 0.53207 0.67321 0.0
C168 C 0.56351 0.47176 0.61619 0.0
C169 C 0.57408 0.45658 0.60993 0.0
C170 C 0.57708 0.4522 0.58785 0.0
C171 C 0.57091 0.46385 0.5711 0.0
C172 C 0.56134 0.47985 0.57714 0.0
C173 C 0.55789 0.48392 0.59931 0.0
C174 C 0.55806 0.45767 0.6545 0.0
C175 C 0.53817 0.43227 0.65102 0.0
C176 C 0.53813 0.41305 0.66317 0.0
C177 C 0.55729 0.41907 0.67951 0.0
C178 C 0.57579 0.44459 0.68415 0.0
C179 C 0.57627 0.46369 0.67161 0.0
C180 C 0.54749 0.48944 0.64523 0.0
C181 C 0.56063 0.5133 0.65577 0.0
C182 C 0.54763 0.52619 0.6611 0.0
C183 C 0.52107 0.51563 0.65575 0.0
C184 C 0.5077 0.49129 0.64557 0.0
C185 C 0.52074 0.4782 0.64052 0.0
H186 H 0.13005 0.58726 0.79008 0.0
N187 N 0.09702 0.53805 0.77569 0.0
H188 H 0.16532 0.6015 0.81731 0.0
H189 H 0.1085 0.50954 0.80017 0.0
H190 H 0.14328 0.52375 0.82816 0.0
H191 H 0.10697 0.51472 0.74339 0.0
H192 H 0.12599 0.53161 0.70789 0.0
H193 H 0.10571 0.58289 0.75911 0.0
H194 H 0.12722 0.60123 0.7248 0.0
H195 H 0.08174 0.56932 0.79421 0.0
H196 H 0.05452 0.49276 0.77137 0.0
H197 H 0.03792 0.55687 0.80635 0.0
H198 H 0.01048 0.48014 0.7829 0.0
H199 H 0.91516 0.52093 0.85206 0.0
H200 H 0.8972 0.51321 0.88909 0.0
H201 H 0.88817 0.43859 0.88638 0.0
H202 H 0.90665 0.44672 0.84991 0.0
H203 H 0.89943 0.43839 0.81185 0.0
H204 H 0.8569 0.40985 0.79501 0.0
H205 H 0.84408 0.47284 0.78832 0.0
H206 H 0.88615 0.50091 0.80636 0.0
H207 H 0.95086 0.53046 0.80578 0.0
H208 H 0.9946 0.54353 0.79301 0.0
H209 H 0.98603 0.47333 0.81583 0.0
N210 N 0.91767 0.48777 0.82497 0.0
H211 H 0.94228 0.46029 0.82795 0.0
C212 C 0.11676 0.54719 0.79282 0.0
C213 C 0.13279 0.5732 0.79809 0.0
C214 C 0.153 0.58139 0.81368 0.0
C215 C 0.15703 0.56372 0.82469 0.0
C216 C 0.14051 0.53774 0.8199 0.0
C217 C 0.12068 0.52961 0.804 0.0
C218 C 0.1055 0.5477 0.75405 0.0
C219 C 0.11095 0.53343 0.73913 0.0
C220 C 0.12223 0.54337 0.71897 0.0
C221 C 0.129 0.56822 0.71349 0.0
C222 C 0.12235 0.58205 0.72819 0.0
C223 C 0.11033 0.57172 0.74809 0.0
C224 C 0.0713 0.53186 0.78192 0.0
C225 C 0.06625 0.54989 0.7916 0.0
C226 C 0.04113 0.54271 0.79847 0.0
C227 C 0.02061 0.51742 0.79572 0.0
C228 C 0.02582 0.49964 0.78566 0.0
C229 C 0.05088 0.50682 0.77887 0.0
C230 C 0.91229 0.48454 0.84814 0.0
C231 C 0.91002 0.50324 0.85979 0.0
C232 C 0.89947 0.49865 0.88082 0.0
C233 C 0.89084 0.47511 0.89059 0.0
C234 C 0.89476 0.457 0.87947 0.0
C235 C 0.90538 0.46165 0.85846 0.0
C236 C 0.89581 0.47179 0.81065 0.0
C237 C 0.88766 0.44614 0.80652 0.0
C238 C 0.86329 0.42981 0.79672 0.0
C239 C 0.84673 0.43889 0.79066 0.0
C240 C 0.85594 0.465 0.79331 0.0
C241 C 0.88012 0.48118 0.80332 0.0
C242 C 0.94328 0.4945 0.81781 0.0
C243 C 0.9585 0.51794 0.80796 0.0
C244 C 0.98354 0.52543 0.80082 0.0
C245 C 0.99394 0.50952 0.8034 0.0
C246 C 0.97856 0.48593 0.8133 0.0
C247 C 0.95347 0.47846 0.8204 0.0
H248 H 0.54589 0.15163 0.96249 0.0
N249 N 0.54199 0.10728 0.95329 0.0
H250 H 0.58199 0.18838 0.98117 0.0
H251 H 0.58029 0.10659 0.97807 0.0
H252 H 0.61572 0.14276 0.99787 0.0
H253 H 0.58806 0.11692 0.93558 0.0
H254 H 0.60332 0.13222 0.89898 0.0
H255 H 0.51489 0.11171 0.9204 0.0
H256 H 0.52992 0.12666 0.8832 0.0
H257 H 0.50153 0.0822 0.97921 0.0
H258 H 0.5573 0.07294 0.94172 0.0
H259 H 0.48044 0.03782 0.98952 0.0
H260 H 0.53555 0.02851 0.95066 0.0
H261 H 0.4105 0.8888 0.01307 0.0
H262 H 0.40979 0.87087 0.04877 0.0
H263 H 0.49135 0.92616 0.05854 0.0
H264 H 0.49215 0.94299 0.02259 0.0
H265 H 0.49127 0.91244 0.99068 0.0
H266 H 0.48814 0.87442 0.97436 0.0
H267 H 0.41303 0.85308 0.94616 0.0
H268 H 0.41664 0.89184 0.96216 0.0
H269 H 0.43138 0.95192 0.98538 0.0
H270 H 0.45353 0.99663 0.97602 0.0
H271 H 0.52702 0.99879 0.97727 0.0
N272 N 0.45192 0.92303 0.99191 0.0
H273 H 0.50451 0.95396 0.98523 0.0
C274 C 0.56025 0.12635 0.9688 0.0
C275 C 0.56078 0.14946 0.97067 0.0
C276 C 0.58148 0.17047 0.98143 0.0
C277 C 0.60212 0.16878 0.99082 0.0
C278 C 0.60055 0.14502 0.99036 0.0
C279 C 0.58001 0.12409 0.9793 0.0
C280 C 0.55015 0.11299 0.93075 0.0
C281 C 0.57501 0.11853 0.9242 0.0
C282 C 0.58373 0.12726 0.90315 0.0
C283 C 0.56787 0.13072 0.88812 0.0
C284 C 0.54273 0.12448 0.89447 0.0
C285 C 0.534 0.11569 0.91559 0.0
C286 C 0.53076 0.08107 0.95945 0.0
C287 C 0.50911 0.07056 0.97307 0.0
C288 C 0.49693 0.04505 0.97876 0.0
C289 C 0.50597 0.02922 0.97073 0.0
C290 C 0.52806 0.03997 0.9574 0.0
C291 C 0.54046 0.06558 0.95201 0.0
C292 C 0.45124 0.91724 0.01495 0.0
C293 C 0.42806 0.89742 0.02319 0.0
C294 C 0.42771 0.88719 0.04366 0.0
C295 C 0.45063 0.89676 0.05649 0.0
C296 C 0.47346 0.91784 0.04889 0.0
C297 C 0.47386 0.9278 0.0283 0.0
C298 C 0.45415 0.90515 0.97758 0.0
C299 C 0.47471 0.90041 0.98009 0.0
C300 C 0.47274 0.87838 0.97095 0.0
C301 C 0.45014 0.86054 0.95929 0.0
C302 C 0.43074 0.8665 0.95497 0.0
C303 C 0.43277 0.88863 0.96409 0.0
C304 C 0.46607 0.94944 0.98612 0.0
C305 C 0.45226 0.96209 0.98349 0.0
C306 C 0.46507 0.98778 0.97836 0.0
C307 C 0.49225 1.00165 0.97601 0.0
C308 C 0.50609 0.98884 0.9786 0.0
C309 C 0.49316 0.96302 0.98339 0.0
H310 H 0.55584 0.44602 0.15877 0.0
N311 N 0.58698 0.49723 0.167 0.0
H312 H 0.56833 0.41908 0.13896 0.0
H313 H 0.62777 0.51227 0.14133 0.0
H314 H 0.6408 0.48528 0.12184 0.0
H315 H 0.62743 0.51339 0.19431 0.0
H316 H 0.62829 0.49719 0.23056 0.0
H317 H 0.54434 0.46385 0.19013 0.0
H318 H 0.54492 0.4477 0.22648 0.0
H319 H 0.53755 0.46999 0.14879 0.0
H320 H 0.59681 0.54437 0.17197 0.0
H321 H 0.50883 0.48614 0.1405 0.0
H322 H 0.56775 0.56064 0.16443 0.0
H323 H 0.43073 0.52763 0.10172 0.0
H324 H 0.42031 0.53937 0.06637 0.0
H325 H 0.48477 0.61562 0.07612 0.0
H326 H 0.49485 0.60397 0.11165 0.0
H327 H 0.4973 0.60335 0.15452 0.0
H328 H 0.48414 0.62926 0.17567 0.0
H329 H 0.40347 0.57264 0.1627 0.0
H330 H 0.417 0.54655 0.14296 0.0
H331 H 0.45356 0.51572 0.14986 0.0
H332 H 0.48339 0.50067 0.15859 0.0
H333 H 0.5475 0.57092 0.13565 0.0
N334 N 0.46464 0.55902 0.13189 0.0
H335 H 0.51759 0.58605 0.12782 0.0
C336 C 0.59089 0.48137 0.15148 0.0
C337 C 0.57399 0.45493 0.15014 0.0
C338 C 0.58133 0.43943 0.13899 0.0
C339 C 0.60573 0.44996 0.12907 0.0
C340 C 0.62178 0.47651 0.12913 0.0
C341 C 0.61438 0.492 0.14025 0.0
C342 C 0.58595 0.48993 0.18954 0.0
C343 C 0.60932 0.49943 0.20148 0.0
C344 C 0.60973 0.49016 0.22219 0.0
C345 C 0.58666 0.47105 0.23136 0.0
C346 C 0.56305 0.46218 0.21972 0.0
C347 C 0.56267 0.47155 0.199 0.0
C348 C 0.56961 0.50608 0.16085 0.0
C349 C 0.54452 0.48982 0.15206 0.0
C350 C 0.52791 0.4991 0.14752 0.0
C351 C 0.53586 0.52473 0.15187 0.0
C352 C 0.56104 0.54091 0.16056 0.0
C353 C 0.57765 0.53164 0.16496 0.0
C354 C 0.46352 0.5648 0.10923 0.0
C355 C 0.44322 0.54657 0.09581 0.0
C356 C 0.43732 0.55327 0.07571 0.0
C357 C 0.45191 0.5783 0.06864 0.0
C358 C 0.4736 0.59611 0.08116 0.0
C359 C 0.47935 0.58944 0.10142 0.0
C360 C 0.45804 0.57282 0.14743 0.0
C361 C 0.47683 0.59626 0.15688 0.0
C362 C 0.4692 0.61123 0.16869 0.0
C363 C 0.44264 0.60327 0.17092 0.0
C364 C 0.42406 0.57938 0.16192 0.0
C365 C 0.43171 0.56435 0.15051 0.0
C366 C 0.48325 0.55186 0.13815 0.0
C367 C 0.47411 0.52791 0.14697 0.0
C368 C 0.49117 0.51927 0.15169 0.0
C369 C 0.51787 0.53443 0.14757 0.0
C370 C 0.52712 0.55878 0.13919 0.0
C371 C 0.50999 0.56745 0.13458 0.0
Mn372 Mn 0.63114 0.39455 0.41101 0.0
Mn373 Mn 0.66659 0.45845 0.4113 0.0
C374 C 0.6176 0.41821 0.43081 0.0
C375 C 0.62116 0.35561 0.4252 0.0
C376 C 0.63093 0.42715 0.37338 0.0
O377 O 0.66612 0.40133 0.40007 0.0
O378 O 0.68808 0.44407 0.4007 0.0
C379 C 0.70494 0.46646 0.44628 0.0
N380 N 0.686 0.47047 0.43835 0.0
C381 C 0.69221 0.49886 0.46875 0.0
C382 C 0.71185 0.4951 0.47722 0.0
C383 C 0.71812 0.47869 0.46601 0.0
C384 C 0.67946 0.48582 0.44923 0.0
H385 H 0.71006 0.45413 0.43756 0.0
C386 C 0.68659 0.42268 0.39701 0.0
O387 O 0.6152 0.35739 0.405 0.0
O388 O 0.63359 0.37649 0.43688 0.0
N389 N 0.64848 0.47496 0.42131 0.0
C390 C 0.62883 0.47627 0.41109 0.0
C391 C 0.61947 0.49105 0.4207 0.0
C392 C 0.63077 0.50474 0.44044 0.0
C393 C 0.65134 0.50353 0.45038 0.0
C394 C 0.65958 0.48818 0.44022 0.0
H395 H 0.62026 0.46599 0.39579 0.0
O396 O 0.60111 0.39502 0.4246 0.0
O397 O 0.64165 0.42688 0.42541 0.0
O398 O 0.62346 0.40555 0.3816 0.0
O399 O 0.64697 0.44807 0.38314 0.0
C400 C 0.66417 0.51714 0.46986 0.0
C401 C 0.68474 0.51498 0.47892 0.0
H402 H 0.72218 0.50464 0.49235 0.0
H403 H 0.73322 0.47565 0.47246 0.0
H404 H 0.60369 0.492 0.41285 0.0
H405 H 0.6236 0.51624 0.44774 0.0
H406 H 0.65834 0.52929 0.47803 0.0
H407 H 0.69437 0.52544 0.49397 0.0
Mn408 Mn 0.27675 0.65446 0.54809 0.0
Mn409 Mn 0.24961 0.59094 0.54839 0.0
C410 C 0.24316 0.62914 0.52373 0.0
C411 C 0.30808 0.69355 0.53473 0.0
C412 C 0.23891 0.62099 0.58279 0.0
O413 O 0.30325 0.64962 0.56531 0.0
O414 O 0.28519 0.60716 0.56173 0.0
C415 C 0.28396 0.5848 0.51717 0.0
N416 N 0.25974 0.57944 0.52297 0.0
C417 C 0.24061 0.55297 0.49051 0.0
C418 C 0.26533 0.55805 0.48428 0.0
C419 C 0.2871 0.57406 0.49767 0.0
C420 C 0.23865 0.564 0.51025 0.0
H421 H 0.30078 0.59726 0.52732 0.0
C422 C 0.30364 0.62917 0.5681 0.0
O423 O 0.29697 0.69213 0.55339 0.0
O424 O 0.30198 0.67237 0.52465 0.0
N425 N 0.21534 0.57323 0.53554 0.0
C426 C 0.19319 0.57176 0.54305 0.0
C427 C 0.16979 0.55725 0.53107 0.0
C428 C 0.16941 0.54437 0.51158 0.0
C429 C 0.19244 0.54614 0.50419 0.0
C430 C 0.21513 0.56068 0.51692 0.0
H431 H 0.19338 0.58172 0.55796 0.0
O432 O 0.24845 0.65201 0.52861 0.0
O433 O 0.25777 0.62191 0.53323 0.0
O434 O 0.25226 0.64268 0.57424 0.0
O435 O 0.23748 0.6008 0.57494 0.0
C436 C 0.19389 0.53451 0.48446 0.0
C437 C 0.21795 0.53791 0.47762 0.0
H438 H 0.26786 0.54998 0.46915 0.0
H439 H 0.30626 0.57819 0.49291 0.0
H440 H 0.15212 0.55611 0.5368 0.0
H441 H 0.15137 0.53335 0.50231 0.0
H442 H 0.17668 0.52322 0.47424 0.0
H443 H 0.21888 0.52918 0.46225 0.0
Mn444 Mn 0.62012 0.26648 0.72708 0.0
Mn445 Mn 0.66261 0.2479 0.71266 0.0
C446 C 0.60812 0.23447 0.70083 0.0
C447 C 0.60429 0.29418 0.72355 0.0
C448 C 0.63104 0.23111 0.75426 0.0
O449 O 0.65459 0.29501 0.73943 0.0
O450 O 0.6815 0.28192 0.72759 0.0
C451 C 0.69181 0.2865 0.67943 0.0
N452 N 0.67723 0.26172 0.68492 0.0
C453 C 0.68386 0.24773 0.64963 0.0
C454 C 0.69897 0.27309 0.64356 0.0
C455 C 0.70277 0.29255 0.65847 0.0
C456 C 0.67283 0.24284 0.67049 0.0
H457 H 0.69521 0.30152 0.691 0.0
C458 C 0.67723 0.29809 0.73743 0.0
O459 O 0.60139 0.28193 0.7415 0.0
O460 O 0.61646 0.2904 0.70767 0.0
N461 N 0.64782 0.2155 0.69791 0.0
C462 C 0.63329 0.19203 0.70647 0.0
C463 C 0.62708 0.17045 0.69341 0.0
C464 C 0.63662 0.17323 0.67197 0.0
C465 C 0.65233 0.19758 0.66381 0.0
C466 C 0.65733 0.21837 0.67738 0.0
H467 H 0.6263 0.18977 0.72308 0.0
O468 O 0.59065 0.23719 0.71105 0.0
O469 O 0.63227 0.25115 0.70564 0.0
O470 O 0.61883 0.24294 0.75131 0.0
O471 O 0.64812 0.23221 0.74106 0.0
C472 C 0.66374 0.20205 0.64295 0.0
C473 C 0.67957 0.22712 0.63589 0.0
H474 H 0.70779 0.27783 0.62753 0.0
H475 H 0.71443 0.31217 0.65393 0.0
H476 H 0.6152 0.15173 0.69994 0.0
H477 H 0.63204 0.15655 0.66204 0.0
H478 H 0.66039 0.18635 0.63215 0.0
H479 H 0.68807 0.2303 0.61974 0.0
Mn480 Mn 0.37566 0.64009 0.91053 0.0
Mn481 Mn 0.3416 0.57829 0.92284 0.0
C482 C 0.39203 0.62351 0.93603 0.0
C483 C 0.38614 0.6816 0.91925 0.0
C484 C 0.37027 0.59774 0.87984 0.0
O485 O 0.33881 0.62896 0.89918 0.0
O486 O 0.31745 0.58931 0.9124 0.0
C487 C 0.31274 0.58123 0.96114 0.0
N488 N 0.329 0.57415 0.9522 0.0
C489 C 0.33237 0.5568 0.98642 0.0
C490 C 0.31525 0.56347 0.99586 0.0
C491 C 0.30551 0.57587 0.98319 0.0
C492 C 0.3388 0.56256 0.96434 0.0
H493 H 0.30564 0.5912 0.9516 0.0
C494 C 0.3179 0.60807 0.90298 0.0
O495 O 0.39047 0.67565 0.89973 0.0
O496 O 0.37434 0.66332 0.9328 0.0
N497 N 0.36298 0.56564 0.93348 0.0
C498 C 0.38078 0.56223 0.92242 0.0
C499 C 0.39282 0.55055 0.93289 0.0
C500 C 0.38644 0.54251 0.95461 0.0
C501 C 0.36848 0.54668 0.96582 0.0
C502 C 0.35674 0.558 0.9544 0.0
H503 H 0.3856 0.56815 0.90566 0.0
O504 O 0.40763 0.64437 0.92626 0.0
O505 O 0.36784 0.6131 0.93014 0.0
O506 O 0.38096 0.62146 0.88438 0.0
O507 O 0.35444 0.5806 0.89263 0.0
C508 C 0.36189 0.54022 0.98791 0.0
C509 C 0.34393 0.54538 0.99824 0.0
H510 H 0.3098 0.55955 0.01292 0.0
H511 H 0.29259 0.58142 0.99045 0.0
H512 H 0.40686 0.5476 0.92421 0.0
H513 H 0.39554 0.53322 0.96253 0.0
H514 H 0.3708 0.53162 0.99721 0.0
H515 H 0.33941 0.54078 0.01536 0.0
Mn516 Mn 0.75265 0.38803 0.06089 0.0
Mn517 Mn 0.79799 0.37066 0.06249 0.0
C518 C 0.78904 0.40984 0.08361 0.0
C519 C 0.71455 0.38585 0.07274 0.0
C520 C 0.79419 0.40139 0.02587 0.0
O521 O 0.73318 0.35238 0.04703 0.0
O522 O 0.76492 0.34288 0.04926 0.0
C523 C 0.77308 0.32953 0.09449 0.0
N524 N 0.79382 0.35197 0.08846 0.0
C525 C 0.81936 0.35239 0.11939 0.0
C526 C 0.79831 0.32926 0.12593 0.0
C527 C 0.77499 0.31789 0.11352 0.0
C528 C 0.8161 0.36339 0.10059 0.0
H529 H 0.75529 0.3205 0.08478 0.0
C530 C 0.74174 0.33724 0.04401 0.0
O531 O 0.72387 0.39418 0.05349 0.0
O532 O 0.72677 0.37779 0.08479 0.0
N533 N 0.83094 0.39542 0.07506 0.0
C534 C 0.8494 0.41775 0.06656 0.0
C535 C 0.87351 0.43206 0.07756 0.0
C536 C 0.87865 0.42292 0.09682 0.0
C537 C 0.85962 0.39954 0.10489 0.0
C538 C 0.83575 0.38639 0.0935 0.0
H539 H 0.84571 0.42467 0.05156 0.0
O540 O 0.77602 0.42038 0.07737 0.0
O541 O 0.78022 0.3866 0.07669 0.0
O542 O 0.77457 0.40189 0.03335 0.0
O543 O 0.80447 0.39016 0.03543 0.0
C544 C 0.86354 0.38858 0.12359 0.0
C545 C 0.84348 0.36492 0.13073 0.0
H546 H 0.79982 0.32008 0.14045 0.0
H547 H 0.75865 0.30005 0.11846 0.0
H548 H 0.88818 0.44998 0.07111 0.0
H549 H 0.89736 0.43389 0.10514 0.0
H550 H 0.88186 0.3982 0.13265 0.0
H551 H 0.84667 0.35676 0.14523 0.0
Mn552 Mn 0.38064 0.76735 0.22364 0.0
Mn553 Mn 0.44483 0.79345 0.23482 0.0
C554 C 0.40191 0.80318 0.24623 0.0
C555 C 0.33726 0.73786 0.23087 0.0
C556 C 0.42374 0.80072 0.19184 0.0
O557 O 0.38771 0.73919 0.21477 0.0
O558 O 0.43026 0.75785 0.22386 0.0
C559 C 0.44188 0.76192 0.27222 0.0
N560 N 0.44971 0.78516 0.2639 0.0
C561 C 0.47324 0.80615 0.29733 0.0
C562 C 0.4655 0.78247 0.30626 0.0
C563 C 0.44956 0.76025 0.29371 0.0
C564 C 0.46445 0.80661 0.27604 0.0
H565 H 0.43002 0.74482 0.26248 0.0
C566 C 0.40888 0.73897 0.21652 0.0
O567 O 0.34444 0.74729 0.2115 0.0
O568 O 0.3553 0.74536 0.24599 0.0
N569 N 0.46178 0.82779 0.24568 0.0
C570 C 0.46774 0.84915 0.23459 0.0
C571 C 0.48272 0.87297 0.24517 0.0
C572 C 0.49201 0.87462 0.26679 0.0
C573 C 0.48628 0.85241 0.27762 0.0
C574 C 0.47084 0.82919 0.26641 0.0
H575 H 0.46101 0.84803 0.21785 0.0
O576 O 0.38009 0.7973 0.23647 0.0
O577 O 0.41043 0.78762 0.24287 0.0
O578 O 0.39971 0.78782 0.19654 0.0
O579 O 0.44196 0.80352 0.20481 0.0
C580 C 0.49571 0.85244 0.29892 0.0
C581 C 0.48943 0.82933 0.30867 0.0
H582 H 0.47165 0.78112 0.32274 0.0
H583 H 0.44348 0.74189 0.30049 0.0
H584 H 0.48727 0.89003 0.23662 0.0
H585 H 0.50375 0.89304 0.27482 0.0
H586 H 0.50785 0.87011 0.30795 0.0
H587 H 0.49675 0.82959 0.32509 0.0
H588 H 0.21282 0.66661 0.30643 0.0
H589 H 0.16684 0.63065 0.24713 0.0
H590 H 0.20664 0.65237 0.22494 0.0
H591 H 0.25651 0.72649 0.28381 0.0
H592 H 0.28448 0.73084 0.29915 0.0
H593 H 0.25248 0.71212 0.3102 0.0
H594 H 0.25986 0.67416 0.31398 0.0
H595 H 0.29191 0.69278 0.30295 0.0
H596 H 0.269 0.66262 0.2902 0.0
H597 H 0.25135 0.68019 0.20917 0.0
H598 H 0.29766 0.70966 0.20126 0.0
H599 H 0.31448 0.72567 0.2712 0.0
C600 C 0.21115 0.66334 0.28876 0.0
C601 C 0.18677 0.6471 0.27842 0.0
C602 C 0.18537 0.64297 0.25533 0.0
C603 C 0.20784 0.65527 0.24263 0.0
C604 C 0.23157 0.67135 0.25333 0.0
C605 C 0.23338 0.67517 0.27591 0.0
C606 C 0.26118 0.6932 0.28346 0.0
C607 C 0.2638 0.71708 0.29482 0.0
C608 C 0.27107 0.67989 0.29854 0.0
C609 C 0.27473 0.69925 0.26157 0.0
C610 C 0.25732 0.68657 0.24437 0.0
C611 C 0.26518 0.69 0.22254 0.0
C612 C 0.29149 0.70682 0.2182 0.0
C613 C 0.30967 0.71978 0.23561 0.0
C614 C 0.3011 0.71577 0.25756 0.0
H615 H 0.57387 0.20754 0.428 0.0
H616 H 0.56295 0.21234 0.49804 0.0
H617 H 0.57754 0.25774 0.49511 0.0
H618 H 0.63078 0.26821 0.42336 0.0
H619 H 0.62174 0.27509 0.39717 0.0
H620 H 0.6099 0.2427 0.40444 0.0
H621 H 0.56247 0.23208 0.39794 0.0
H622 H 0.57417 0.26438 0.39043 0.0
H623 H 0.55103 0.25056 0.41214 0.0
H624 H 0.59646 0.30293 0.48538 0.0
H625 H 0.61338 0.34462 0.46854 0.0
H626 H 0.60934 0.31066 0.4042 0.0
C627 C 0.5743 0.21817 0.44261 0.0
C628 C 0.56714 0.20648 0.46323 0.0
C629 C 0.56799 0.22089 0.48205 0.0
C630 C 0.57644 0.24671 0.48058 0.0
C631 C 0.58365 0.25777 0.46011 0.0
C632 C 0.58224 0.24395 0.44136 0.0
C633 C 0.59074 0.26055 0.42135 0.0
C634 C 0.61471 0.2617 0.41098 0.0
C635 C 0.56826 0.25134 0.40447 0.0
C636 C 0.59746 0.28587 0.43188 0.0
C637 C 0.59351 0.28383 0.4543 0.0
C638 C 0.59934 0.30475 0.46781 0.0
C639 C 0.60909 0.32836 0.45811 0.0
C640 C 0.61253 0.3308 0.43509 0.0
C641 C 0.60667 0.30926 0.42183 0.0
H642 H 0.3964 0.57796 0.60614 0.0
H643 H 0.43623 0.64493 0.64916 0.0
H644 H 0.40934 0.66091 0.63381 0.0
H645 H 0.38559 0.6077 0.55934 0.0
H646 H 0.35349 0.58118 0.55346 0.0
H647 H 0.37779 0.57609 0.56606 0.0
H648 H 0.34694 0.55347 0.5983 0.0
H649 H 0.32256 0.55847 0.58579 0.0
H650 H 0.33367 0.56965 0.61363 0.0
H651 H 0.37694 0.66917 0.61481 0.0
H652 H 0.33995 0.66771 0.59493 0.0
H653 H 0.31906 0.59396 0.56667 0.0
C654 C 0.39959 0.59599 0.61241 0.0
C655 C 0.41893 0.61024 0.62872 0.0
C656 C 0.42228 0.63386 0.63622 0.0
C657 C 0.40688 0.64308 0.62773 0.0
C658 C 0.38791 0.62843 0.61189 0.0
C659 C 0.38409 0.60532 0.6044 0.0
C660 C 0.36125 0.59252 0.58834 0.0
C661 C 0.37007 0.58918 0.56544 0.0
C662 C 0.33984 0.56702 0.59704 0.0
C663 C 0.35267 0.61193 0.5882 0.0
C664 C 0.36852 0.63267 0.60165 0.0
C665 C 0.36439 0.65302 0.60421 0.0
C666 C 0.34336 0.65205 0.59282 0.0
C667 C 0.32651 0.6307 0.57932 0.0
C668 C 0.33145 0.61049 0.57697 0.0
H669 H 0.82768 0.39565 0.7641 0.0
H670 H 0.80342 0.44117 0.80122 0.0
H671 H 0.75787 0.41105 0.79066 0.0
H672 H 0.78005 0.37599 0.71962 0.0
H673 H 0.77491 0.34437 0.7175 0.0
H674 H 0.80593 0.37032 0.72691 0.0
H675 H 0.80272 0.34634 0.7625 0.0
H676 H 0.77169 0.32035 0.75321 0.0
H677 H 0.77467 0.33569 0.77957 0.0
H678 H 0.71465 0.37527 0.77717 0.0
H679 H 0.67691 0.33631 0.76164 0.0
H680 H 0.72906 0.31334 0.73426 0.0
C681 C 0.81284 0.39934 0.77001 0.0
C682 C 0.81935 0.42106 0.78331 0.0
C683 C 0.79917 0.4251 0.79057 0.0
C684 C 0.77313 0.40795 0.78481 0.0
C685 C 0.76743 0.38672 0.77184 0.0
C686 C 0.78668 0.38233 0.76451 0.0
C687 C 0.7752 0.35764 0.75128 0.0
C688 C 0.78458 0.36237 0.72741 0.0
C689 C 0.78144 0.3389 0.7623 0.0
C690 C 0.74651 0.34879 0.75246 0.0
C691 C 0.74246 0.36589 0.76432 0.0
C692 C 0.71758 0.36175 0.7678 0.0
C693 C 0.69624 0.33952 0.75891 0.0
C694 C 0.69989 0.32163 0.74673 0.0
C695 C 0.72547 0.32651 0.74351 0.0
H696 H 0.42991 0.82963 0.92167 0.0
H697 H 0.45736 0.83174 0.98846 0.0
H698 H 0.44525 0.78709 0.9844 0.0
H699 H 0.37504 0.76745 0.9225 0.0
H700 H 0.37805 0.75846 0.89474 0.0
H701 H 0.39019 0.7913 0.90199 0.0
H702 H 0.43571 0.80304 0.88803 0.0
H703 H 0.42367 0.77025 0.88058 0.0
H704 H 0.45159 0.78702 0.89877 0.0
H705 H 0.4266 0.74205 0.97523 0.0
H706 H 0.40616 0.69865 0.9598 0.0
H707 H 0.39259 0.72414 0.89763 0.0
C708 C 0.43367 0.82071 0.93527 0.0
C709 C 0.44491 0.83431 0.95531 0.0
C710 C 0.44935 0.82195 0.97281 0.0
C711 C 0.44234 0.7965 0.97073 0.0
C712 C 0.43112 0.78358 0.95096 0.0
C713 C 0.42712 0.7952 0.93336 0.0
C714 C 0.41442 0.77648 0.91406 0.0
C715 C 0.38785 0.77324 0.90797 0.0
C716 C 0.43243 0.78469 0.89418 0.0
C717 C 0.41143 0.75249 0.92385 0.0
C718 C 0.42109 0.75722 0.94523 0.0
C719 C 0.41931 0.73813 0.9584 0.0
C720 C 0.40749 0.7135 0.94952 0.0
C721 C 0.39788 0.70807 0.92753 0.0
C722 C 0.40005 0.72787 0.91441 0.0
H723 H 0.63429 0.45529 0.09196 0.0
H724 H 0.60062 0.40779 0.14845 0.0
H725 H 0.621 0.383 0.13772 0.0
H726 H 0.6299 0.40483 0.05407 0.0
H727 H 0.66063 0.42605 0.0418 0.0
H728 H 0.64071 0.43808 0.05231 0.0
H729 H 0.67919 0.47072 0.07708 0.0
H730 H 0.69916 0.45879 0.0667 0.0
H731 H 0.69457 0.45973 0.09591 0.0
H732 H 0.6497 0.36711 0.12392 0.0
H733 H 0.68317 0.36019 0.1069 0.0
H734 H 0.69733 0.417 0.05881 0.0
C735 C 0.63085 0.43941 0.10186 0.0
C736 C 0.61562 0.43338 0.12094 0.0
C737 C 0.61171 0.41249 0.1335 0.0
C738 C 0.62333 0.39834 0.1276 0.0
C739 C 0.63865 0.40511 0.10897 0.0
C740 C 0.64221 0.42498 0.09613 0.0
C741 C 0.66091 0.42933 0.07773 0.0
C742 C 0.64721 0.42426 0.05514 0.0
C743 C 0.68487 0.45623 0.07947 0.0
C744 C 0.66795 0.40937 0.08267 0.0
C745 C 0.65479 0.3955 0.1007 0.0
C746 C 0.65972 0.37746 0.10951 0.0
C747 C 0.67878 0.3737 0.09979 0.0
C748 C 0.69254 0.38778 0.08138 0.0
C749 C 0.68667 0.40551 0.07254 0.0
H750 H 0.39935 0.84436 0.52284 0.0
H751 H 0.39001 0.8298 0.45229 0.0
H752 H 0.36294 0.7839 0.45833 0.0
H753 H 0.40235 0.78955 0.5376 0.0
H754 H 0.3833 0.78324 0.56203 0.0
H755 H 0.40215 0.81518 0.5525 0.0
H756 H 0.36085 0.81887 0.55119 0.0
H757 H 0.34192 0.78703 0.56092 0.0
H758 H 0.33268 0.79554 0.53565 0.0
H759 H 0.33986 0.74012 0.47147 0.0
H760 H 0.3161 0.7001 0.49105 0.0
H761 H 0.33641 0.74188 0.55356 0.0
C762 C 0.39133 0.83141 0.50877 0.0
C763 C 0.39656 0.84045 0.48709 0.0
C764 C 0.3859 0.82313 0.46899 0.0
C765 C 0.37069 0.79708 0.47225 0.0
C766 C 0.36602 0.78867 0.49375 0.0
C767 C 0.37551 0.80522 0.51175 0.0
C768 C 0.36664 0.79091 0.53307 0.0
C769 C 0.39001 0.79497 0.54712 0.0
C770 C 0.3495 0.79854 0.54596 0.0
C771 C 0.35095 0.76379 0.52415 0.0
C772 C 0.35129 0.76308 0.50143 0.0
C773 C 0.33917 0.74039 0.48926 0.0
C774 C 0.32587 0.71774 0.50056 0.0
C775 C 0.32436 0.71788 0.52381 0.0
C776 C 0.33715 0.74125 0.53577 0.0
H777 H 0.56687 0.38444 0.65989 0.0
H778 H 0.55477 0.4096 0.72344 0.0
H779 H 0.56302 0.37841 0.7417 0.0
H780 H 0.53942 0.31716 0.672 0.0
H781 H 0.56385 0.31475 0.65671 0.0
H782 H 0.55416 0.33697 0.64872 0.0
H783 H 0.60214 0.37346 0.65169 0.0
H784 H 0.61195 0.35141 0.65982 0.0
H785 H 0.62012 0.37879 0.67712 0.0
H786 H 0.57406 0.34537 0.7529 0.0
H787 H 0.58928 0.31482 0.75647 0.0
H788 H 0.59702 0.31345 0.68561 0.0
C789 C 0.56536 0.38288 0.67761 0.0
C790 C 0.55968 0.39892 0.69033 0.0
C791 C 0.55875 0.39713 0.7135 0.0
C792 C 0.5634 0.37952 0.72395 0.0
C793 C 0.56931 0.36414 0.71096 0.0
C794 C 0.57045 0.36577 0.68829 0.0
C795 C 0.57921 0.34858 0.67824 0.0
C796 C 0.55788 0.32815 0.66302 0.0
C797 C 0.60488 0.36398 0.666 0.0
C798 C 0.58302 0.33714 0.69878 0.0
C799 C 0.57687 0.34609 0.71746 0.0
C800 C 0.5789 0.33823 0.73838 0.0
C801 C 0.58755 0.32087 0.74024 0.0
C802 C 0.59442 0.31185 0.72134 0.0
C803 C 0.59203 0.32011 0.70037 0.0
H804 H 0.20902 0.59754 0.8195 0.0
H805 H 0.15296 0.54809 0.86672 0.0
H806 H 0.18851 0.55902 0.89361 0.0
H807 H 0.25527 0.58044 0.83074 0.0
H808 H 0.28342 0.61146 0.82752 0.0
H809 H 0.25357 0.6029 0.81309 0.0
H810 H 0.25396 0.64202 0.8305 0.0
H811 H 0.28389 0.65073 0.84501 0.0
H812 H 0.25607 0.64643 0.86001 0.0
H813 H 0.22919 0.57091 0.91343 0.0
H814 H 0.27317 0.58228 0.92531 0.0
H815 H 0.30452 0.62475 0.86588 0.0
C816 C 0.20431 0.5896 0.83573 0.0
C817 C 0.17831 0.57215 0.84122 0.0
C818 C 0.17278 0.5615 0.86232 0.0
C819 C 0.19281 0.56773 0.87769 0.0
C820 C 0.21827 0.58461 0.87169 0.0
C821 C 0.22419 0.59545 0.85126 0.0
C822 C 0.25343 0.61108 0.84836 0.0
C823 C 0.26191 0.60085 0.82877 0.0
C824 C 0.26236 0.63924 0.84583 0.0
C825 C 0.26295 0.60664 0.87011 0.0
C826 C 0.24223 0.59159 0.88335 0.0
C827 C 0.24561 0.58308 0.90343 0.0
C828 C 0.27074 0.58964 0.91002 0.0
C829 C 0.29235 0.60468 0.89668 0.0
C830 C 0.28844 0.61377 0.87665 0.0
H831 H 0.60656 0.21114 0.01259 0.0
H832 H 0.65252 0.17991 0.98698 0.0
H833 H 0.69251 0.21913 0.99821 0.0
H834 H 0.64838 0.27403 0.99375 0.0
H835 H 0.64405 0.28957 0.01745 0.0
H836 H 0.61859 0.25832 0.00883 0.0
H837 H 0.61882 0.24168 0.04764 0.0
H838 H 0.64418 0.27292 0.05642 0.0
H839 H 0.64882 0.24623 0.05919 0.0
H840 H 0.72759 0.26174 0.01109 0.0
H841 H 0.75591 0.30532 0.02539 0.0
H842 H 0.68795 0.31057 0.04119 0.0
C843 C 0.62499 0.21247 0.00933 0.0
C844 C 0.62616 0.19208 0.99908 0.0
C845 C 0.65085 0.19478 0.99531 0.0
C846 C 0.67379 0.21716 0.00143 0.0
C847 C 0.67189 0.23688 0.01119 0.0
C848 C 0.64819 0.23483 0.01516 0.0
C849 C 0.65177 0.25925 0.0254 0.0
C850 C 0.64 0.27098 0.01046 0.0
C851 C 0.64021 0.25474 0.04854 0.0
C852 C 0.6812 0.27533 0.02643 0.0
C853 C 0.69233 0.26193 0.01821 0.0
C854 C 0.71913 0.27245 0.01758 0.0
C855 C 0.73505 0.29726 0.02577 0.0
C856 C 0.72422 0.31149 0.0344 0.0
C857 C 0.69686 0.30033 0.03454 0.0
H858 H 0.46728 0.65567 0.17054 0.0
H859 H 0.39854 0.5895 0.19493 0.0
H860 H 0.38194 0.61677 0.20802 0.0
H861 H 0.47383 0.69728 0.21733 0.0
H862 H 0.48546 0.72473 0.20049 0.0
H863 H 0.49183 0.69985 0.19287 0.0
H864 H 0.47046 0.69558 0.15457 0.0
H865 H 0.46368 0.72017 0.16217 0.0
H866 H 0.43764 0.68951 0.15284 0.0
H867 H 0.37111 0.65093 0.21594 0.0
H868 H 0.37 0.69032 0.22301 0.0
H869 H 0.44761 0.73446 0.19717 0.0
C870 C 0.449 0.64682 0.17904 0.0
C871 C 0.43412 0.62018 0.18127 0.0
C872 C 0.41009 0.60967 0.19233 0.0
C873 C 0.4005 0.62505 0.19999 0.0
C874 C 0.41536 0.65105 0.19696 0.0
C875 C 0.43936 0.66194 0.18722 0.0
C876 C 0.45174 0.69049 0.18647 0.0
C877 C 0.47722 0.70387 0.20011 0.0
C878 C 0.45613 0.69945 0.16259 0.0
C879 C 0.43082 0.6939 0.19711 0.0
C880 C 0.40981 0.67088 0.20276 0.0
C881 C 0.38759 0.6691 0.21186 0.0
C882 C 0.38704 0.69151 0.21567 0.0
C883 C 0.40875 0.71536 0.21075 0.0
C884 C 0.43085 0.71647 0.2013 0.0
H885 H 0.82051 0.47775 0.33393 0.0
H886 H 0.82574 0.41395 0.35759 0.0
H887 H 0.78419 0.39835 0.37647 0.0
H888 H 0.79428 0.48789 0.38465 0.0
H889 H 0.7739 0.49697 0.37025 0.0
H890 H 0.80405 0.50299 0.35847 0.0
H891 H 0.77917 0.47817 0.32294 0.0
H892 H 0.74893 0.47185 0.33468 0.0
H893 H 0.75266 0.44596 0.3248 0.0
H894 H 0.74056 0.38826 0.39102 0.0
H895 H 0.70047 0.38693 0.40326 0.0
H896 H 0.72577 0.4591 0.37278 0.0
C897 C 0.81331 0.46077 0.3434 0.0
C898 C 0.82649 0.44701 0.34395 0.0
C899 C 0.81587 0.42461 0.35635 0.0
C900 C 0.79231 0.41563 0.36731 0.0
C901 C 0.7797 0.42945 0.36607 0.0
C902 C 0.79005 0.45175 0.35474 0.0
C903 C 0.77281 0.46322 0.35623 0.0
C904 C 0.78712 0.48931 0.36811 0.0
C905 C 0.76281 0.46489 0.3333 0.0
C906 C 0.75104 0.44374 0.36999 0.0
C907 C 0.75523 0.42426 0.37532 0.0
C908 C 0.73722 0.40355 0.38716 0.0
C909 C 0.71446 0.40289 0.39394 0.0
C910 C 0.71011 0.42298 0.38911 0.0
C911 C 0.72871 0.44362 0.37696 0.0
H912 H 0.13062 0.59577 0.43636 0.0
H913 H 0.1763 0.58107 0.38949 0.0
H914 H 0.20549 0.58396 0.41957 0.0
H915 H 0.18305 0.64308 0.46598 0.0
H916 H 0.16823 0.63483 0.49257 0.0
H917 H 0.1482 0.62721 0.46816 0.0
H918 H 0.12275 0.58026 0.47901 0.0
H919 H 0.14298 0.58725 0.50332 0.0
H920 H 0.13982 0.56349 0.48354 0.0
H921 H 0.23344 0.59484 0.45316 0.0
H922 H 0.25754 0.61199 0.48841 0.0
H923 H 0.19452 0.62008 0.51378 0.0
C924 C 0.14654 0.5928 0.43242 0.0
C925 C 0.15094 0.58798 0.41048 0.0
C926 C 0.17204 0.5842 0.40615 0.0
C927 C 0.18887 0.58592 0.42315 0.0
C928 C 0.18435 0.59135 0.44444 0.0
C929 C 0.16363 0.59461 0.44918 0.0
C930 C 0.16452 0.60262 0.47308 0.0
C931 C 0.16611 0.62847 0.47505 0.0
C932 C 0.14113 0.58219 0.48548 0.0
C933 C 0.18957 0.60441 0.48076 0.0
C934 C 0.20047 0.59743 0.46406 0.0
C935 C 0.22473 0.59961 0.46656 0.0
C936 C 0.2382 0.60922 0.48663 0.0
C937 C 0.22724 0.61615 0.50399 0.0
C938 C 0.20275 0.61392 0.50096 0.0
H939 H 0.58836 0.1867 0.57573 0.0
H940 H 0.54418 0.10976 0.59876 0.0
H941 H 0.55027 0.12635 0.63717 0.0
H942 H 0.63436 0.21032 0.61319 0.0
H943 H 0.63831 0.2409 0.62048 0.0
H944 H 0.62677 0.22694 0.59342 0.0
H945 H 0.58378 0.2252 0.59437 0.0
H946 H 0.59491 0.24357 0.61976 0.0
H947 H 0.56405 0.21435 0.61849 0.0
H948 H 0.56063 0.15167 0.67293 0.0
H949 H 0.57714 0.18357 0.70362 0.0
H950 H 0.61869 0.24337 0.65737 0.0
C951 C 0.57981 0.17335 0.58886 0.0
C952 C 0.56592 0.14695 0.58436 0.0
C953 C 0.55477 0.13006 0.6019 0.0
C954 C 0.55814 0.13931 0.62373 0.0
C955 C 0.57241 0.16547 0.62762 0.0
C956 C 0.58276 0.18225 0.61064 0.0
C957 C 0.59797 0.20942 0.61923 0.0
C958 C 0.62607 0.22275 0.61119 0.0
C959 C 0.58436 0.22399 0.61257 0.0
C960 C 0.59623 0.20523 0.64379 0.0
C961 C 0.58039 0.17982 0.64826 0.0
C962 C 0.57347 0.17152 0.66967 0.0
C963 C 0.58293 0.18967 0.68695 0.0
C964 C 0.60007 0.21555 0.68278 0.0
C965 C 0.60665 0.22346 0.66095 0.0
H966 H 0.446 0.60973 0.76793 0.0
H967 H 0.40833 0.52759 0.76696 0.0
H968 H 0.38559 0.52637 0.80097 0.0
H969 H 0.45572 0.61815 0.82742 0.0
H970 H 0.44969 0.64413 0.82886 0.0
H971 H 0.46313 0.63865 0.80436 0.0
H972 H 0.4255 0.6364 0.78108 0.0
H973 H 0.41181 0.64164 0.80553 0.0
H974 H 0.39236 0.61411 0.78802 0.0
H975 H 0.36615 0.53362 0.83419 0.0
H976 H 0.35289 0.54881 0.86633 0.0
H977 H 0.40402 0.6267 0.84715 0.0
C978 C 0.43326 0.5915 0.77502 0.0
C979 C 0.42883 0.56871 0.76461 0.0
C980 C 0.41171 0.54526 0.77435 0.0
C981 C 0.39879 0.54438 0.79374 0.0
C982 C 0.40326 0.5671 0.80334 0.0
C983 C 0.42024 0.59026 0.79449 0.0
C984 C 0.42157 0.61184 0.8083 0.0
C985 C 0.44917 0.62921 0.8178 0.0
C986 C 0.41225 0.62688 0.79493 0.0
C987 C 0.40262 0.59712 0.82625 0.0
C988 C 0.39225 0.57135 0.82292 0.0
C989 C 0.37419 0.55375 0.83705 0.0
C990 C 0.36674 0.56267 0.85528 0.0
C991 C 0.37737 0.58905 0.85943 0.0
C992 C 0.39546 0.60645 0.84452 0.0
H993 H 0.89278 0.44801 0.92563 0.0
H994 H 0.85354 0.48647 0.90169 0.0
H995 H 0.8256 0.47292 0.93414 0.0
H996 H 0.83648 0.39409 0.94534 0.0
H997 H 0.85241 0.39076 0.96924 0.0
H998 H 0.87074 0.40495 0.94494 0.0
H999 H 0.90289 0.4451 0.96791 0.0
H1000 H 0.88473 0.43095 0.99232 0.0
H1001 H 0.8906 0.46153 0.98416 0.0
H1002 H 0.80012 0.45317 0.96793 0.0
H1003 H 0.78 0.42995 0.00163 0.0
H1004 H 0.83541 0.4039 0.00358 0.0
C1005 C 0.87842 0.45372 0.92727 0.0
C1006 C 0.87557 0.46853 0.91114 0.0
C1007 C 0.85655 0.47562 0.914 0.0
C1008 C 0.84041 0.46784 0.93231 0.0
C1009 C 0.8435 0.45299 0.94769 0.0
C1010 C 0.86213 0.44613 0.94548 0.0
C1011 C 0.86094 0.42953 0.96414 0.0
C1012 C 0.85477 0.40328 0.95539 0.0
C1013 C 0.8863 0.44256 0.97795 0.0
C1014 C 0.83849 0.42785 0.97698 0.0
C1015 C 0.82875 0.44156 0.96723 0.0
C1016 C 0.80767 0.44248 0.97581 0.0
C1017 C 0.79632 0.42914 0.99495 0.0
C1018 C 0.80605 0.41503 0.00536 0.0
C1019 C 0.82746 0.41448 0.99613 0.0
H1020 H 0.41262 0.87341 0.08786 0.0
H1021 H 0.48984 0.88927 0.07053 0.0
H1022 H 0.49087 0.86628 0.10284 0.0
H1023 H 0.42245 0.87851 0.14675 0.0
H1024 H 0.39031 0.85263 0.15224 0.0
H1025 H 0.39582 0.87113 0.12807 0.0
H1026 H 0.37623 0.83019 0.10364 0.0
H1027 H 0.37079 0.81158 0.12774 0.0
H1028 H 0.38959 0.80968 0.1055 0.0
H1029 H 0.48394 0.84174 0.13678 0.0
H1030 H 0.46942 0.81716 0.1706 0.0
H1031 H 0.39575 0.81496 0.16542 0.0
C1032 C 0.42974 0.87201 0.09078 0.0
C1033 C 0.45129 0.88355 0.07665 0.0
C1034 C 0.47333 0.88129 0.0813 0.0
C1035 C 0.47402 0.86799 0.09953 0.0
C1036 C 0.45246 0.8568 0.11297 0.0
C1037 C 0.4307 0.8586 0.10887 0.0
C1038 C 0.41007 0.84452 0.12588 0.0
C1039 C 0.40434 0.86279 0.13901 0.0
C1040 C 0.3852 0.8227 0.11503 0.0
C1041 C 0.4237 0.83457 0.14016 0.0
C1042 C 0.44816 0.84198 0.13239 0.0
C1043 C 0.46479 0.83573 0.143 0.0
C1044 C 0.45634 0.82176 0.16222 0.0
C1045 C 0.43139 0.81398 0.17064 0.0
C1046 C 0.41479 0.82031 0.15926 0.0
H1047 H 0.61553 0.49524 0.26871 0.0
H1048 H 0.56049 0.42066 0.24126 0.0
H1049 H 0.56468 0.40115 0.27505 0.0
H1050 H 0.65797 0.47811 0.29343 0.0
H1051 H 0.66518 0.4985 0.31744 0.0
H1052 H 0.65642 0.50667 0.29179 0.0
H1053 H 0.61892 0.50895 0.3108 0.0
H1054 H 0.62765 0.50092 0.33655 0.0
H1055 H 0.59499 0.48206 0.3256 0.0
H1056 H 0.57697 0.38968 0.3111 0.0
H1057 H 0.59507 0.38735 0.34706 0.0
H1058 H 0.64233 0.46956 0.35038 0.0
C1059 C 0.60426 0.47481 0.26983 0.0
C1060 C 0.58761 0.45949 0.25236 0.0
C1061 C 0.57305 0.43282 0.25456 0.0
C1062 C 0.57543 0.42154 0.27363 0.0
C1063 C 0.59237 0.4372 0.29038 0.0
C1064 C 0.60638 0.46327 0.28871 0.0
C1065 C 0.62372 0.47582 0.30877 0.0
C1066 C 0.65252 0.49064 0.30247 0.0
C1067 C 0.61584 0.49295 0.32116 0.0
C1068 C 0.61758 0.45273 0.32185 0.0
C1069 C 0.59941 0.43062 0.31103 0.0
C1070 C 0.5911 0.40689 0.31979 0.0
C1071 C 0.60156 0.40577 0.34021 0.0
C1072 C 0.62016 0.42825 0.35163 0.0
C1073 C 0.62816 0.45197 0.34218 0.0
H1074 H 0.43123 0.85669 0.36977 0.0
H1075 H 0.45727 0.9314 0.34446 0.0
H1076 H 0.44692 0.91313 0.30648 0.0
H1077 H 0.45685 0.83675 0.33274 0.0
H1078 H 0.43139 0.80439 0.32675 0.0
H1079 H 0.4337 0.81904 0.35329 0.0
H1080 H 0.38924 0.81432 0.35228 0.0
H1081 H 0.38265 0.79531 0.32745 0.0
H1082 H 0.37772 0.822 0.32783 0.0
H1083 H 0.43281 0.88615 0.27132 0.0
H1084 H 0.41845 0.85314 0.24165 0.0
H1085 H 0.40646 0.79732 0.2899 0.0
C1086 C 0.43459 0.86918 0.35623 0.0
C1087 C 0.44518 0.89548 0.35998 0.0
C1088 C 0.44904 0.91118 0.34191 0.0
C1089 C 0.44325 0.90097 0.32032 0.0
C1090 C 0.43335 0.87501 0.31718 0.0
C1091 C 0.42871 0.85929 0.33468 0.0
C1092 C 0.41863 0.83219 0.32692 0.0
C1093 C 0.43618 0.82246 0.33535 0.0
C1094 C 0.39039 0.81494 0.33404 0.0
C1095 C 0.41996 0.83538 0.30222 0.0
C1096 C 0.42746 0.86001 0.29694 0.0
C1097 C 0.42741 0.86695 0.27523 0.0
C1098 C 0.41934 0.84819 0.25851 0.0
C1099 C 0.41258 0.82318 0.26354 0.0
C1100 C 0.4128 0.81668 0.28565 0.0
H1101 H 0.61 0.45772 0.55395 0.0
H1102 H 0.5413 0.46041 0.53469 0.0
H1103 H 0.54825 0.45311 0.49588 0.0
H1104 H 0.64819 0.48744 0.50954 0.0
H1105 H 0.66169 0.46708 0.5055 0.0
H1106 H 0.65218 0.4716 0.53246 0.0
H1107 H 0.62069 0.42441 0.53735 0.0
H1108 H 0.63117 0.41822 0.51147 0.0
H1109 H 0.5971 0.40609 0.51596 0.0
H1110 H 0.56035 0.44125 0.45962 0.0
H1111 H 0.57741 0.42706 0.42888 0.0
H1112 H 0.63898 0.43397 0.47171 0.0
C1113 C 0.59617 0.45656 0.54171 0.0
C1114 C 0.57509 0.45974 0.54755 0.0
C1115 C 0.55788 0.45851 0.53072 0.0
C1116 C 0.56156 0.45419 0.50861 0.0
C1117 C 0.58248 0.45103 0.50355 0.0
C1118 C 0.59934 0.45195 0.51968 0.0
C1119 C 0.61969 0.44695 0.51016 0.0
C1120 C 0.64711 0.46964 0.51462 0.0
C1121 C 0.61699 0.42246 0.51927 0.0
C1122 C 0.6121 0.44366 0.48598 0.0
C1123 C 0.59027 0.44563 0.48254 0.0
C1124 C 0.57778 0.44029 0.46199 0.0
C1125 C 0.58757 0.43229 0.44466 0.0
C1126 C 0.61001 0.43048 0.44783 0.0
C1127 C 0.62252 0.43644 0.46868 0.0
H1128 H 0.16469 0.5591 0.69298 0.0
H1129 H 0.12739 0.60403 0.68739 0.0
H1130 H 0.1536 0.62445 0.65488 0.0
H1131 H 0.22762 0.60491 0.67511 0.0
H1132 H 0.23235 0.58231 0.65949 0.0
H1133 H 0.21187 0.57231 0.68319 0.0
H1134 H 0.17364 0.53777 0.65934 0.0
H1135 H 0.19408 0.54747 0.63563 0.0
H1136 H 0.16354 0.54672 0.63478 0.0
H1137 H 0.18484 0.64065 0.62306 0.0
H1138 H 0.21453 0.64753 0.5923 0.0
H1139 H 0.22737 0.58868 0.6168 0.0
C1140 C 0.16152 0.57289 0.68487 0.0
C1141 C 0.14389 0.57993 0.69312 0.0
C1142 C 0.14111 0.59858 0.68193 0.0
C1143 C 0.15583 0.61024 0.6633 0.0
C1144 C 0.17301 0.60282 0.65577 0.0
C1145 C 0.17556 0.58427 0.66602 0.0
C1146 C 0.19433 0.57869 0.65406 0.0
C1147 C 0.21794 0.58494 0.66885 0.0
C1148 C 0.18057 0.55103 0.64544 0.0
C1149 C 0.20193 0.59699 0.63541 0.0
C1150 C 0.1898 0.61108 0.63687 0.0
C1151 C 0.19431 0.62961 0.6217 0.0
C1152 C 0.21129 0.63349 0.60438 0.0
C1153 C 0.22313 0.61857 0.60219 0.0
C1154 C 0.21844 0.60023 0.61802 0.0
H1155 H 0.56156 0.16639 0.86647 0.0
H1156 H 0.59768 0.12042 0.86056 0.0
H1157 H 0.6178 0.14133 0.82597 0.0
H1158 H 0.54752 0.16565 0.80772 0.0
H1159 H 0.55423 0.19786 0.80849 0.0
H1160 H 0.54212 0.17879 0.83253 0.0
H1161 H 0.58162 0.21309 0.85535 0.0
H1162 H 0.59399 0.23215 0.83134 0.0
H1163 H 0.61404 0.22312 0.84632 0.0
H1164 H 0.63556 0.16836 0.79312 0.0
H1165 H 0.64781 0.19794 0.76268 0.0
H1166 H 0.59908 0.22567 0.78899 0.0
C1167 C 0.5733 0.16037 0.85771 0.0
C1168 C 0.57811 0.14179 0.86632 0.0
C1169 C 0.59399 0.13483 0.85449 0.0
C1170 C 0.60543 0.14652 0.83477 0.0
C1171 C 0.60068 0.16505 0.82698 0.0
C1172 C 0.58481 0.17178 0.83793 0.0
C1173 C 0.58312 0.19247 0.82605 0.0
C1174 C 0.55508 0.18313 0.81823 0.0
C1175 C 0.59384 0.21664 0.84064 0.0
C1176 C 0.60067 0.1964 0.8068 0.0
C1177 C 0.61064 0.18043 0.80774 0.0
C1178 C 0.62774 0.18085 0.79211 0.0
C1179 C 0.63465 0.19784 0.7749 0.0
C1180 C 0.62439 0.21419 0.7733 0.0
C1181 C 0.60722 0.21342 0.78961 0.0
H1182 H 0.47031 0.59312 0.02672 0.0
H1183 H 0.40926 0.58208 0.07129 0.0
H1184 H 0.38945 0.59522 0.04257 0.0
H1185 H 0.47429 0.64826 0.9978 0.0
H1186 H 0.47954 0.63778 0.97143 0.0
H1187 H 0.49079 0.63051 0.9963 0.0
H1188 H 0.46606 0.58413 0.98405 0.0
H1189 H 0.4512 0.58896 0.96017 0.0
H1190 H 0.43133 0.56754 0.98116 0.0
H1191 H 0.37688 0.61014 0.01036 0.0
H1192 H 0.36766 0.6202 0.97364 0.0
H1193 H 0.4338 0.61786 0.94755 0.0
C1194 C 0.45299 0.59387 0.03036 0.0
C1195 C 0.44122 0.58678 0.05109 0.0
C1196 C 0.4184 0.58751 0.05541 0.0
C1197 C 0.40717 0.59508 0.03931 0.0
C1198 C 0.41902 0.60182 0.01898 0.0
C1199 C 0.44131 0.60121 0.01429 0.0
C1200 C 0.44872 0.60764 0.99041 0.0
C1201 C 0.47489 0.63253 0.9889 0.0
C1202 C 0.44935 0.58578 0.97817 0.0
C1203 C 0.42651 0.61094 0.98233 0.0
C1204 C 0.41024 0.60834 0.99942 0.0
C1205 C 0.38914 0.61176 0.99672 0.0
C1206 C 0.38394 0.61724 0.9758 0.0
C1207 C 0.39924 0.61848 0.95771 0.0
C1208 C 0.42134 0.61613 0.96107 0.0
H1209 H 0.8441 0.4293 0.20638 0.0
H1210 H 0.90614 0.50364 0.18843 0.0
H1211 H 0.88827 0.49571 0.15024 0.0
H1212 H 0.84135 0.39657 0.16124 0.0
H1213 H 0.80665 0.37678 0.15627 0.0
H1214 H 0.81946 0.38761 0.18375 0.0
H1215 H 0.79471 0.41034 0.19111 0.0
H1216 H 0.77772 0.3973 0.16524 0.0
H1217 H 0.79382 0.43098 0.17084 0.0
H1218 H 0.86284 0.47968 0.11433 0.0
H1219 H 0.83216 0.45667 0.08322 0.0
H1220 H 0.78871 0.39171 0.12415 0.0
C1221 C 0.85377 0.44393 0.19438 0.0
C1222 C 0.87653 0.46698 0.20011 0.0
C1223 C 0.88863 0.48587 0.18421 0.0
C1224 C 0.87864 0.48151 0.16255 0.0
C1225 C 0.85635 0.45833 0.1573 0.0
C1226 C 0.8438 0.44007 0.17288 0.0
C1227 C 0.82013 0.41683 0.16312 0.0
C1228 C 0.82198 0.39298 0.1662 0.0
C1229 C 0.79512 0.41369 0.17317 0.0
C1230 C 0.82221 0.42416 0.13923 0.0
C1231 C 0.84274 0.44852 0.13637 0.0
C1232 C 0.847 0.46046 0.11626 0.0
C1233 C 0.82961 0.4473 0.09871 0.0
C1234 C 0.8089 0.4222 0.10118 0.0
C1235 C 0.80519 0.41049 0.12166 0.0
loop_
_geom_bond_atom_site_label_1
_geom_bond_atom_site_label_2
_geom_bond_distance
_geom_bond_site_symmetry_2
_ccdc_geom_bond_type
H0 C27 0.929 . S
N1 C26 1.433 . S
N1 C32 1.435 . S
N1 C38 1.423 . S
H2 C28 0.930 . S
H3 C31 0.931 . S
H4 C30 0.929 . S
H5 C33 0.930 . S
H6 C34 0.932 . S
H7 C37 0.929 . S
H8 C36 0.931 . S
H9 C39 0.929 . S
H10 C43 0.932 . S
H11 C40 0.931 . S
H12 C42 0.929 . S
H13 C45 0.929 . S
H14 C46 0.930 . S
H15 C48 0.929 . S
H16 C49 0.931 . S
H17 C51 0.930 . S
H18 C52 0.932 . S
H19 C54 0.931 . S
H20 C55 0.929 . S
H21 C57 0.929 . S
H22 C58 0.931 . S
H23 C60 0.929 . S
N24 C44 1.433 . S
N24 C50 1.435 . S
N24 C56 1.423 . S
H25 C61 0.932 . S
C26 N1 1.433 . S
C26 C27 1.363 . S
C26 C31 1.370 . S
C27 H0 0.929 . S
C27 C26 1.363 . S
C27 C28 1.385 . S
C28 H2 0.930 . S
C28 C27 1.385 . S
C28 C29 1.357 . S
C29 C28 1.357 . S
C29 C30 1.406 . S
C30 H4 0.929 . S
C30 C29 1.406 . S
C30 C31 1.391 . S
C31 H3 0.931 . S
C31 C26 1.370 . S
C31 C30 1.391 . S
C32 N1 1.435 . S
C32 C33 1.358 . S
C32 C37 1.371 . S
C33 H5 0.930 . S
C33 C32 1.358 . S
C33 C34 1.405 . S
C34 H6 0.932 . S
C34 C33 1.405 . S
C34 C35 1.383 . S
C35 C34 1.383 . S
C35 C36 1.393 . S
C36 H8 0.931 . S
C36 C35 1.393 . S
C36 C37 1.382 . S
C37 H7 0.929 . S
C37 C32 1.371 . S
C37 C36 1.382 . S
C38 N1 1.423 . S
C38 C39 1.362 . S
C38 C43 1.388 . S
C39 H9 0.929 . S
C39 C38 1.362 . S
C39 C40 1.376 . S
C40 H11 0.931 . S
C40 C39 1.376 . S
C40 C41 1.396 . S
C41 C40 1.396 . S
C41 C42 1.348 . S
C41 C59 1.472 1_455 S
C42 H12 0.929 . S
C42 C41 1.348 . S
C42 C43 1.443 . S
C43 H10 0.932 . S
C43 C38 1.388 . S
C43 C42 1.443 . S
C44 N24 1.433 . S
C44 C45 1.363 . S
C44 C49 1.370 . S
C45 H13 0.929 . S
C45 C44 1.363 . S
C45 C46 1.385 . S
C46 H14 0.930 . S
C46 C45 1.385 . S
C46 C47 1.357 . S
C47 C46 1.357 . S
C47 C48 1.406 . S
C48 H15 0.929 . S
C48 C47 1.406 . S
C48 C49 1.391 . S
C49 H16 0.931 . S
C49 C44 1.370 . S
C49 C48 1.391 . S
C50 N24 1.435 . S
C50 C51 1.358 . S
C50 C55 1.371 . S
C51 H17 0.930 . S
C51 C50 1.358 . S
C51 C52 1.405 . S
C52 H18 0.932 . S
C52 C51 1.405 . S
C52 C53 1.383 . S
C53 C52 1.383 . S
C53 C54 1.393 . S
C54 H19 0.931 . S
C54 C53 1.393 . S
C54 C55 1.382 . S
C55 H20 0.929 . S
C55 C50 1.371 . S
C55 C54 1.382 . S
C56 N24 1.423 . S
C56 C57 1.362 . S
C56 C61 1.388 . S
C57 H21 0.929 . S
C57 C56 1.362 . S
C57 C58 1.376 . S
C58 H22 0.931 . S
C58 C57 1.376 . S
C58 C59 1.396 . S
C59 C41 1.472 1_655 S
C59 C58 1.396 . S
C59 C60 1.348 . S
C60 H23 0.929 . S
C60 C59 1.348 . S
C60 C61 1.443 . S
C61 H25 0.932 . S
C61 C56 1.388 . S
C61 C60 1.443 . S
H62 C89 0.929 . S
N63 C88 1.433 . S
N63 C94 1.435 . S
N63 C100 1.423 . S
H64 C90 0.930 . S
H65 C93 0.931 . S
H66 C92 0.929 . S
H67 C95 0.930 . S
H68 C96 0.932 . S
H69 C99 0.929 . S
H70 C98 0.931 . S
H71 C101 0.929 . S
H72 C105 0.932 . S
H73 C102 0.931 . S
H74 C104 0.929 1_545 S
H75 C107 0.929 . S
H76 C108 0.930 . S
H77 C110 0.929 . S
H78 C111 0.931 . S
H79 C113 0.930 . S
H80 C114 0.932 . S
H81 C116 0.931 . S
H82 C117 0.929 . S
H83 C119 0.929 . S
H84 C120 0.931 . S
H85 C122 0.929 . S
N86 C106 1.433 . S
N86 C112 1.435 . S
N86 C118 1.423 . S
H87 C123 0.932 . S
C88 N63 1.433 . S
C88 C89 1.363 . S
C88 C93 1.370 . S
C89 H62 0.929 . S
C89 C88 1.363 . S
C89 C90 1.385 . S
C90 H64 0.930 . S
C90 C89 1.385 . S
C90 C91 1.357 . S
C91 C90 1.357 . S
C91 C92 1.406 . S
C92 H66 0.929 . S
C92 C91 1.406 . S
C92 C93 1.391 . S
C93 H65 0.931 . S
C93 C88 1.370 . S
C93 C92 1.391 . S
C94 N63 1.435 . S
C94 C95 1.358 . S
C94 C99 1.371 . S
C95 H67 0.930 . S
C95 C94 1.358 . S
C95 C96 1.405 . S
C96 H68 0.932 . S
C96 C95 1.405 . S
C96 C97 1.383 . S
C97 C96 1.383 . S
C97 C98 1.393 . S
C98 H70 0.931 . S
C98 C97 1.393 . S
C98 C99 1.382 . S
C99 H69 0.929 . S
C99 C94 1.371 . S
C99 C98 1.382 . S
C100 N63 1.423 . S
C100 C101 1.362 . S
C100 C105 1.388 . S
C101 H71 0.929 . S
C101 C100 1.362 . S
C101 C102 1.376 . S
C102 H73 0.931 . S
C102 C101 1.376 . S
C102 C103 1.396 1_565 S
C103 C102 1.396 1_545 S
C103 C104 1.348 1_545 S
C103 C121 1.472 . S
C104 H74 0.929 1_565 S
C104 C103 1.348 1_565 S
C104 C105 1.443 . S
C105 H72 0.932 . S
C105 C100 1.388 . S
C105 C104 1.443 . S
C106 N86 1.433 . S
C106 C107 1.363 . S
C106 C111 1.370 . S
C107 H75 0.929 . S
C107 C106 1.363 . S
C107 C108 1.385 . S
C108 H76 0.930 . S
C108 C107 1.385 . S
C108 C109 1.357 . S
C109 C108 1.357 . S
C109 C110 1.406 . S
C110 H77 0.929 . S
C110 C109 1.406 . S
C110 C111 1.391 . S
C111 H78 0.931 . S
C111 C106 1.370 . S
C111 C110 1.391 . S
C112 N86 1.435 . S
C112 C113 1.358 . S
C112 C117 1.371 . S
C113 H79 0.930 . S
C113 C112 1.358 . S
C113 C114 1.405 . S
C114 H80 0.932 . S
C114 C113 1.405 . S
C114 C115 1.383 . S
C115 C114 1.383 . S
C115 C116 1.393 . S
C116 H81 0.931 . S
C116 C115 1.393 . S
C116 C117 1.382 . S
C117 H82 0.929 . S
C117 C112 1.371 . S
C117 C116 1.382 . S
C118 N86 1.423 . S
C118 C119 1.362 . S
C118 C123 1.388 . S
C119 H83 0.929 . S
C119 C118 1.362 . S
C119 C120 1.376 . S
C120 H84 0.931 . S
C120 C119 1.376 . S
C120 C121 1.396 . S
C121 C103 1.472 . S
C121 C120 1.396 . S
C121 C122 1.348 . S
C122 H85 0.929 . S
C122 C121 1.348 . S
C122 C123 1.443 . S
C123 H87 0.932 . S
C123 C118 1.388 . S
C123 C122 1.443 . S
H124 C151 0.929 . S
N125 C150 1.433 . S
N125 C156 1.435 . S
N125 C162 1.423 . S
H126 C152 0.930 . S
H127 C155 0.931 . S
H128 C154 0.929 . S
H129 C157 0.930 . S
H130 C158 0.932 . S
H131 C161 0.929 . S
H132 C160 0.931 . S
H133 C163 0.929 . S
H134 C167 0.932 . S
H135 C164 0.931 . S
H136 C166 0.929 . S
H137 C169 0.929 . S
H138 C170 0.930 . S
H139 C172 0.929 . S
H140 C173 0.931 . S
H141 C175 0.930 . S
H142 C176 0.932 . S
H143 C178 0.931 . S
H144 C179 0.929 . S
H145 C181 0.929 . S
H146 C182 0.931 . S
H147 C184 0.929 . S
N148 C168 1.433 . S
N148 C174 1.435 . S
N148 C180 1.423 . S
H149 C185 0.932 . S
C150 N125 1.433 . S
C150 C151 1.363 . S
C150 C155 1.370 . S
C151 H124 0.929 . S
C151 C150 1.363 . S
C151 C152 1.385 . S
C152 H126 0.930 . S
C152 C151 1.385 . S
C152 C153 1.357 . S
C153 C152 1.357 . S
C153 C154 1.406 . S
C154 H128 0.929 . S
C154 C153 1.406 . S
C154 C155 1.391 . S
C155 H127 0.931 . S
C155 C150 1.370 . S
C155 C154 1.391 . S
C156 N125 1.435 . S
C156 C157 1.358 . S
C156 C161 1.371 . S
C157 H129 0.930 . S
C157 C156 1.358 . S
C157 C158 1.405 . S
C158 H130 0.932 . S
C158 C157 1.405 . S
C158 C159 1.383 . S
C159 C158 1.383 . S
C159 C160 1.393 . S
C160 H132 0.931 . S
C160 C159 1.393 . S
C160 C161 1.382 . S
C161 H131 0.929 . S
C161 C156 1.371 . S
C161 C160 1.382 . S
C162 N125 1.423 . S
C162 C163 1.362 . S
C162 C167 1.388 . S
C163 H133 0.929 . S
C163 C162 1.362 . S
C163 C164 1.376 . S
C164 H135 0.931 . S
C164 C163 1.376 . S
C164 C165 1.396 . S
C165 C164 1.396 . S
C165 C166 1.348 . S
C165 C183 1.472 . S
C166 H136 0.929 . S
C166 C165 1.348 . S
C166 C167 1.443 . S
C167 H134 0.932 . S
C167 C162 1.388 . S
C167 C166 1.443 . S
C168 N148 1.433 . S
C168 C169 1.363 . S
C168 C173 1.370 . S
C169 H137 0.929 . S
C169 C168 1.363 . S
C169 C170 1.385 . S
C170 H138 0.930 . S
C170 C169 1.385 . S
C170 C171 1.357 . S
C171 C170 1.357 . S
C171 C172 1.406 . S
C172 H139 0.929 . S
C172 C171 1.406 . S
C172 C173 1.391 . S
C173 H140 0.931 . S
C173 C168 1.370 . S
C173 C172 1.391 . S
C174 N148 1.435 . S
C174 C175 1.358 . S
C174 C179 1.371 . S
C175 H141 0.930 . S
C175 C174 1.358 . S
C175 C176 1.405 . S
C176 H142 0.932 . S
C176 C175 1.405 . S
C176 C177 1.383 . S
C177 C176 1.383 . S
C177 C178 1.393 . S
C178 H143 0.931 . S
C178 C177 1.393 . S
C178 C179 1.382 . S
C179 H144 0.929 . S
C179 C174 1.371 . S
C179 C178 1.382 . S
C180 N148 1.423 . S
C180 C181 1.362 . S
C180 C185 1.388 . S
C181 H145 0.929 . S
C181 C180 1.362 . S
C181 C182 1.376 . S
C182 H146 0.931 . S
C182 C181 1.376 . S
C182 C183 1.396 . S
C183 C165 1.472 . S
C183 C182 1.396 . S
C183 C184 1.348 . S
C184 H147 0.929 . S
C184 C183 1.348 . S
C184 C185 1.443 . S
C185 H149 0.932 . S
C185 C180 1.388 . S
C185 C184 1.443 . S
H186 C213 0.929 . S
N187 C212 1.433 . S
N187 C218 1.435 . S
N187 C224 1.423 . S
H188 C214 0.930 . S
H189 C217 0.931 . S
H190 C216 0.929 . S
H191 C219 0.930 . S
H192 C220 0.932 . S
H193 C223 0.929 . S
H194 C222 0.931 . S
H195 C225 0.929 . S
H196 C229 0.932 . S
H197 C226 0.931 . S
H198 C228 0.929 . S
H199 C231 0.929 . S
H200 C232 0.930 . S
H201 C234 0.929 . S
H202 C235 0.931 . S
H203 C237 0.930 . S
H204 C238 0.932 . S
H205 C240 0.931 . S
H206 C241 0.929 . S
H207 C243 0.929 . S
H208 C244 0.931 . S
H209 C246 0.929 . S
N210 C230 1.433 . S
N210 C236 1.435 . S
N210 C242 1.423 . S
H211 C247 0.932 . S
C212 N187 1.433 . S
C212 C213 1.363 . S
C212 C217 1.370 . S
C213 H186 0.929 . S
C213 C212 1.363 . S
C213 C214 1.385 . S
C214 H188 0.930 . S
C214 C213 1.385 . S
C214 C215 1.357 . S
C215 C214 1.357 . S
C215 C216 1.406 . S
C216 H190 0.929 . S
C216 C215 1.406 . S
C216 C217 1.391 . S
C217 H189 0.931 . S
C217 C212 1.370 . S
C217 C216 1.391 . S
C218 N187 1.435 . S
C218 C219 1.358 . S
C218 C223 1.371 . S
C219 H191 0.930 . S
C219 C218 1.358 . S
C219 C220 1.405 . S
C220 H192 0.932 . S
C220 C219 1.405 . S
C220 C221 1.383 . S
C221 C220 1.383 . S
C221 C222 1.393 . S
C222 H194 0.931 . S
C222 C221 1.393 . S
C222 C223 1.382 . S
C223 H193 0.929 . S
C223 C218 1.371 . S
C223 C222 1.382 . S
C224 N187 1.423 . S
C224 C225 1.362 . S
C224 C229 1.388 . S
C225 H195 0.929 . S
C225 C224 1.362 . S
C225 C226 1.376 . S
C226 H197 0.931 . S
C226 C225 1.376 . S
C226 C227 1.396 . S
C227 C226 1.396 . S
C227 C228 1.348 . S
C227 C245 1.472 1_455 S
C228 H198 0.929 . S
C228 C227 1.348 . S
C228 C229 1.443 . S
C229 H196 0.932 . S
C229 C224 1.388 . S
C229 C228 1.443 . S
C230 N210 1.433 . S
C230 C231 1.363 . S
C230 C235 1.370 . S
C231 H199 0.929 . S
C231 C230 1.363 . S
C231 C232 1.385 . S
C232 H200 0.930 . S
C232 C231 1.385 . S
C232 C233 1.357 . S
C233 C232 1.357 . S
C233 C234 1.406 . S
C234 H201 0.929 . S
C234 C233 1.406 . S
C234 C235 1.391 . S
C235 H202 0.931 . S
C235 C230 1.370 . S
C235 C234 1.391 . S
C236 N210 1.435 . S
C236 C237 1.358 . S
C236 C241 1.371 . S
C237 H203 0.930 . S
C237 C236 1.358 . S
C237 C238 1.405 . S
C238 H204 0.932 . S
C238 C237 1.405 . S
C238 C239 1.383 . S
C239 C238 1.383 . S
C239 C240 1.393 . S
C240 H205 0.931 . S
C240 C239 1.393 . S
C240 C241 1.382 . S
C241 H206 0.929 . S
C241 C236 1.371 . S
C241 C240 1.382 . S
C242 N210 1.423 . S
C242 C243 1.362 . S
C242 C247 1.388 . S
C243 H207 0.929 . S
C243 C242 1.362 . S
C243 C244 1.376 . S
C244 H208 0.931 . S
C244 C243 1.376 . S
C244 C245 1.396 . S
C245 C227 1.472 1_655 S
C245 C244 1.396 . S
C245 C246 1.348 . S
C246 H209 0.929 . S
C246 C245 1.348 . S
C246 C247 1.443 . S
C247 H211 0.932 . S
C247 C242 1.388 . S
C247 C246 1.443 . S
H248 C275 0.929 . S
N249 C274 1.433 . S
N249 C280 1.435 . S
N249 C286 1.423 . S
H250 C276 0.930 . S
H251 C279 0.931 . S
H252 C278 0.929 . S
H253 C281 0.930 . S
H254 C282 0.932 . S
H255 C285 0.929 . S
H256 C284 0.931 . S
H257 C287 0.929 . S
H258 C291 0.932 . S
H259 C288 0.931 . S
H260 C290 0.929 . S
H261 C293 0.929 . S
H262 C294 0.930 . S
H263 C296 0.929 . S
H264 C297 0.931 . S
H265 C299 0.930 1_554 S
H266 C300 0.932 . S
H267 C302 0.931 . S
H268 C303 0.929 . S
H269 C305 0.929 . S
H270 C306 0.931 1_544 S
H271 C308 0.929 . S
N272 C292 1.433 . S
N272 C298 1.435 1_554 S
N272 C304 1.423 1_554 S
H273 C309 0.932 . S
C274 N249 1.433 . S
C274 C275 1.363 . S
C274 C279 1.370 . S
C275 H248 0.929 . S
C275 C274 1.363 . S
C275 C276 1.385 . S
C276 H250 0.930 . S
C276 C275 1.385 . S
C276 C277 1.357 1_556 S
C277 C276 1.357 1_554 S
C277 C278 1.406 . S
C278 H252 0.929 . S
C278 C277 1.406 . S
C278 C279 1.391 1_554 S
C279 H251 0.931 . S
C279 C274 1.370 . S
C279 C278 1.391 1_556 S
C280 N249 1.435 . S
C280 C281 1.358 . S
C280 C285 1.371 . S
C281 H253 0.930 . S
C281 C280 1.358 . S
C281 C282 1.405 . S
C282 H254 0.932 . S
C282 C281 1.405 . S
C282 C283 1.383 . S
C283 C282 1.383 . S
C283 C284 1.393 . S
C284 H256 0.931 . S
C284 C283 1.393 . S
C284 C285 1.382 . S
C285 H255 0.929 . S
C285 C280 1.371 . S
C285 C284 1.382 . S
C286 N249 1.423 . S
C286 C287 1.362 . S
C286 C291 1.388 . S
C287 H257 0.929 . S
C287 C286 1.362 . S
C287 C288 1.376 . S
C288 H259 0.931 . S
C288 C287 1.376 . S
C288 C289 1.396 . S
C289 C288 1.396 . S
C289 C290 1.348 . S
C289 C307 1.517 . S
C290 H260 0.929 . S
C290 C289 1.348 . S
C290 C291 1.443 . S
C291 H258 0.932 . S
C291 C286 1.388 . S
C291 C290 1.443 . S
C292 N272 1.433 . S
C292 C293 1.363 . S
C292 C297 1.370 . S
C293 H261 0.929 . S
C293 C292 1.363 . S
C293 C294 1.385 . S
C294 H262 0.930 . S
C294 C293 1.385 . S
C294 C295 1.357 . S
C295 C294 1.357 . S
C295 C296 1.406 . S
C296 H263 0.929 . S
C296 C295 1.406 . S
C296 C297 1.391 . S
C297 H264 0.931 . S
C297 C292 1.370 . S
C297 C296 1.391 . S
C298 N272 1.435 1_556 S
C298 C299 1.358 . S
C298 C303 1.371 . S
C299 H265 0.930 1_556 S
C299 C298 1.358 . S
C299 C300 1.405 . S
C300 H266 0.932 . S
C300 C299 1.405 . S
C300 C301 1.383 . S
C301 C300 1.383 . S
C301 C302 1.393 . S
C302 H267 0.931 . S
C302 C301 1.393 . S
C302 C303 1.382 . S
C303 H268 0.929 . S
C303 C298 1.371 . S
C303 C302 1.382 . S
C304 N272 1.423 1_556 S
C304 C305 1.362 1_556 S
C304 C309 1.388 . S
C305 H269 0.929 . S
C305 C304 1.362 1_554 S
C305 C306 1.376 1_554 S
C306 H270 0.931 1_566 S
C306 C305 1.376 1_556 S
C306 C307 1.396 1_565 S
C307 C289 1.517 . S
C307 C306 1.396 1_545 S
C307 C308 1.301 1_545 S
C308 H271 0.929 . S
C308 C307 1.301 1_565 S
C308 C309 1.443 . S
C309 H273 0.932 . S
C309 C304 1.388 . S
C309 C308 1.443 . S
H310 C337 0.929 . S
N311 C336 1.433 . S
N311 C342 1.435 . S
N311 C348 1.423 . S
H312 C338 0.930 . S
H313 C341 0.931 . S
H314 C340 0.929 . S
H315 C343 0.930 . S
H316 C344 0.932 . S
H317 C347 0.929 . S
H318 C346 0.931 . S
H319 C349 0.929 . S
H320 C353 0.932 . S
H321 C350 0.931 . S
H322 C352 0.929 . S
H323 C355 0.929 . S
H324 C356 0.930 . S
H325 C358 0.929 . S
H326 C359 0.931 . S
H327 C361 0.930 . S
H328 C362 0.932 . S
H329 C364 0.931 . S
H330 C365 0.929 . S
H331 C367 0.929 . S
H332 C368 0.931 . S
H333 C370 0.929 . S
N334 C354 1.433 . S
N334 C360 1.435 . S
N334 C366 1.423 . S
H335 C371 0.932 . S
C336 N311 1.433 . S
C336 C337 1.363 . S
C336 C341 1.370 . S
C337 H310 0.929 . S
C337 C336 1.363 . S
C337 C338 1.385 . S
C338 H312 0.930 . S
C338 C337 1.385 . S
C338 C339 1.357 . S
C339 C338 1.357 . S
C339 C340 1.406 . S
C340 H314 0.929 . S
C340 C339 1.406 . S
C340 C341 1.391 . S
C341 H313 0.931 . S
C341 C336 1.370 . S
C341 C340 1.391 . S
C342 N311 1.435 . S
C342 C343 1.358 . S
C342 C347 1.371 . S
C343 H315 0.930 . S
C343 C342 1.358 . S
C343 C344 1.405 . S
C344 H316 0.932 . S
C344 C343 1.405 . S
C344 C345 1.383 . S
C345 C344 1.383 . S
C345 C346 1.393 . S
C346 H318 0.931 . S
C346 C345 1.393 . S
C346 C347 1.382 . S
C347 H317 0.929 . S
C347 C342 1.371 . S
C347 C346 1.382 . S
C348 N311 1.423 . S
C348 C349 1.362 . S
C348 C353 1.388 . S
C349 H319 0.929 . S
C349 C348 1.362 . S
C349 C350 1.376 . S
C350 H321 0.931 . S
C350 C349 1.376 . S
C350 C351 1.396 . S
C351 C350 1.396 . S
C351 C352 1.348 . S
C351 C369 1.472 . S
C352 H322 0.929 . S
C352 C351 1.348 . S
C352 C353 1.443 . S
C353 H320 0.932 . S
C353 C348 1.388 . S
C353 C352 1.443 . S
C354 N334 1.433 . S
C354 C355 1.363 . S
C354 C359 1.370 . S
C355 H323 0.929 . S
C355 C354 1.363 . S
C355 C356 1.385 . S
C356 H324 0.930 . S
C356 C355 1.385 . S
C356 C357 1.357 . S
C357 C356 1.357 . S
C357 C358 1.406 . S
C358 H325 0.929 . S
C358 C357 1.406 . S
C358 C359 1.391 . S
C359 H326 0.931 . S
C359 C354 1.370 . S
C359 C358 1.391 . S
C360 N334 1.435 . S
C360 C361 1.358 . S
C360 C365 1.371 . S
C361 H327 0.930 . S
C361 C360 1.358 . S
C361 C362 1.405 . S
C362 H328 0.932 . S
C362 C361 1.405 . S
C362 C363 1.383 . S
C363 C362 1.383 . S
C363 C364 1.393 . S
C364 H329 0.931 . S
C364 C363 1.393 . S
C364 C365 1.382 . S
C365 H330 0.929 . S
C365 C360 1.371 . S
C365 C364 1.382 . S
C366 N334 1.423 . S
C366 C367 1.362 . S
C366 C371 1.388 . S
C367 H331 0.929 . S
C367 C366 1.362 . S
C367 C368 1.376 . S
C368 H332 0.931 . S
C368 C367 1.376 . S
C368 C369 1.396 . S
C369 C351 1.472 . S
C369 C368 1.396 . S
C369 C370 1.348 . S
C370 H333 0.929 . S
C370 C369 1.348 . S
C370 C371 1.443 . S
C371 H335 0.932 . S
C371 C366 1.388 . S
C371 C370 1.443 . S
Mn372 O377 2.095 . S
Mn372 O387 2.162 . S
Mn372 O388 2.297 . S
Mn372 O396 2.385 . S
Mn372 O397 2.209 . S
Mn372 O398 2.094 . S
Mn373 O378 2.121 . S
Mn373 N380 2.257 . S
Mn373 N389 2.282 . S
Mn373 O397 2.215 . S
Mn373 O399 2.117 . S
C374 O396 1.234 . S
C374 O397 1.283 . S
C375 O387 1.281 . S
C375 O388 1.236 . S
C376 O398 1.240 . S
C376 O399 1.264 . S
O377 Mn372 2.095 . S
O377 C386 1.250 . S
O378 Mn373 2.121 . S
O378 C386 1.258 . S
C379 N380 1.326 . S
C379 C383 1.460 . S
C379 H385 0.929 . S
N380 Mn373 2.257 . S
N380 C379 1.326 . S
N380 C384 1.362 . S
C381 C382 1.258 . S
C381 C384 1.431 . S
C381 C401 1.449 . S
C382 C381 1.258 . S
C382 C383 1.477 . S
C382 H402 0.931 . S
C383 C379 1.460 . S
C383 C382 1.477 . S
C383 H403 0.930 . S
C384 N380 1.362 . S
C384 C381 1.431 . S
C384 C394 1.476 . S
H385 C379 0.929 . S
C386 O377 1.250 . S
C386 O378 1.258 . S
O387 Mn372 2.162 . S
O387 C375 1.281 . S
O388 Mn372 2.297 . S
O388 C375 1.236 . S
N389 Mn373 2.282 . S
N389 C390 1.328 . S
N389 C394 1.318 . S
C390 N389 1.328 . S
C390 C391 1.457 . S
C390 H395 0.929 . S
C391 C390 1.457 . S
C391 C392 1.291 . S
C391 H404 0.931 . S
C392 C391 1.291 . S
C392 C393 1.373 . S
C392 H405 0.929 . S
C393 C392 1.373 . S
C393 C394 1.396 . S
C393 C400 1.403 . S
C394 C384 1.476 . S
C394 N389 1.318 . S
C394 C393 1.396 . S
H395 C390 0.929 . S
O396 Mn372 2.385 . S
O396 C374 1.234 . S
O397 Mn372 2.209 . S
O397 Mn373 2.215 . S
O397 C374 1.283 . S
O398 Mn372 2.094 . S
O398 C376 1.240 . S
O399 Mn373 2.117 . S
O399 C376 1.264 . S
C400 C393 1.403 . S
C400 C401 1.399 . S
C400 H406 0.929 . S
C401 C381 1.449 . S
C401 C400 1.399 . S
C401 H407 0.930 . S
H402 C382 0.931 . S
H403 C383 0.930 . S
H404 C391 0.931 . S
H405 C392 0.929 . S
H406 C400 0.929 . S
H407 C401 0.930 . S
Mn408 O413 2.095 . S
Mn408 O423 2.162 . S
Mn408 O424 2.297 . S
Mn408 O432 2.385 . S
Mn408 O433 2.209 . S
Mn408 O434 2.094 . S
Mn409 O414 2.121 . S
Mn409 N416 2.257 . S
Mn409 N425 2.282 . S
Mn409 O433 2.215 . S
Mn409 O435 2.117 . S
C410 O432 1.234 . S
C410 O433 1.283 . S
C411 O423 1.281 . S
C411 O424 1.236 . S
C412 O434 1.240 . S
C412 O435 1.264 . S
O413 Mn408 2.095 . S
O413 C422 1.250 . S
O414 Mn409 2.121 . S
O414 C422 1.258 . S
C415 N416 1.326 . S
C415 C419 1.460 . S
C415 H421 0.929 . S
N416 Mn409 2.257 . S
N416 C415 1.326 . S
N416 C420 1.362 . S
C417 C418 1.258 . S
C417 C420 1.431 . S
C417 C437 1.449 . S
C418 C417 1.258 . S
C418 C419 1.477 . S
C418 H438 0.931 . S
C419 C415 1.460 . S
C419 C418 1.477 . S
C419 H439 0.930 . S
C420 N416 1.362 . S
C420 C417 1.431 . S
C420 C430 1.476 . S
H421 C415 0.929 . S
C422 O413 1.250 . S
C422 O414 1.258 . S
O423 Mn408 2.162 . S
O423 C411 1.281 . S
O424 Mn408 2.297 . S
O424 C411 1.236 . S
N425 Mn409 2.282 . S
N425 C426 1.328 . S
N425 C430 1.318 . S
C426 N425 1.328 . S
C426 C427 1.457 . S
C426 H431 0.929 . S
C427 C426 1.457 . S
C427 C428 1.291 . S
C427 H440 0.931 . S
C428 C427 1.291 . S
C428 C429 1.373 . S
C428 H441 0.929 . S
C429 C428 1.373 . S
C429 C430 1.396 . S
C429 C436 1.403 . S
C430 C420 1.476 . S
C430 N425 1.318 . S
C430 C429 1.396 . S
H431 C426 0.929 . S
O432 Mn408 2.385 . S
O432 C410 1.234 . S
O433 Mn408 2.209 . S
O433 Mn409 2.215 . S
O433 C410 1.283 . S
O434 Mn408 2.094 . S
O434 C412 1.240 . S
O435 Mn409 2.117 . S
O435 C412 1.264 . S
C436 C429 1.403 . S
C436 C437 1.399 . S
C436 H442 0.929 . S
C437 C417 1.449 . S
C437 C436 1.399 . S
C437 H443 0.930 . S
H438 C418 0.931 . S
H439 C419 0.930 . S
H440 C427 0.931 . S
H441 C428 0.929 . S
H442 C436 0.929 . S
H443 C437 0.930 . S
Mn444 O449 2.095 . S
Mn444 O459 2.162 . S
Mn444 O460 2.297 . S
Mn444 O468 2.385 . S
Mn444 O469 2.209 . S
Mn444 O470 2.094 . S
Mn445 O450 2.121 . S
Mn445 N452 2.257 . S
Mn445 N461 2.282 . S
Mn445 O469 2.215 . S
Mn445 O471 2.117 . S
C446 O468 1.234 . S
C446 O469 1.283 . S
C447 O459 1.281 . S
C447 O460 1.236 . S
C448 O470 1.240 . S
C448 O471 1.264 . S
O449 Mn444 2.095 . S
O449 C458 1.250 . S
O450 Mn445 2.121 . S
O450 C458 1.258 . S
C451 N452 1.326 . S
C451 C455 1.460 . S
C451 H457 0.929 . S
N452 Mn445 2.257 . S
N452 C451 1.326 . S
N452 C456 1.362 . S
C453 C454 1.258 . S
C453 C456 1.431 . S
C453 C473 1.449 . S
C454 C453 1.258 . S
C454 C455 1.477 . S
C454 H474 0.931 . S
C455 C451 1.460 . S
C455 C454 1.477 . S
C455 H475 0.930 . S
C456 N452 1.362 . S
C456 C453 1.431 . S
C456 C466 1.476 . S
H457 C451 0.929 . S
C458 O449 1.250 . S
C458 O450 1.258 . S
O459 Mn444 2.162 . S
O459 C447 1.281 . S
O460 Mn444 2.297 . S
O460 C447 1.236 . S
N461 Mn445 2.282 . S
N461 C462 1.328 . S
N461 C466 1.318 . S
C462 N461 1.328 . S
C462 C463 1.457 . S
C462 H467 0.929 . S
C463 C462 1.457 . S
C463 C464 1.291 . S
C463 H476 0.931 . S
C464 C463 1.291 . S
C464 C465 1.373 . S
C464 H477 0.929 . S
C465 C464 1.373 . S
C465 C466 1.396 . S
C465 C472 1.403 . S
C466 C456 1.476 . S
C466 N461 1.318 . S
C466 C465 1.396 . S
H467 C462 0.929 . S
O468 Mn444 2.385 . S
O468 C446 1.234 . S
O469 Mn444 2.209 . S
O469 Mn445 2.215 . S
O469 C446 1.283 . S
O470 Mn444 2.094 . S
O470 C448 1.240 . S
O471 Mn445 2.117 . S
O471 C448 1.264 . S
C472 C465 1.403 . S
C472 C473 1.399 . S
C472 H478 0.929 . S
C473 C453 1.449 . S
C473 C472 1.399 . S
C473 H479 0.930 . S
H474 C454 0.931 . S
H475 C455 0.930 . S
H476 C463 0.931 . S
H477 C464 0.929 . S
H478 C472 0.929 . S
H479 C473 0.930 . S
Mn480 O485 2.095 . S
Mn480 O495 2.162 . S
Mn480 O496 2.297 . S
Mn480 O504 2.385 . S
Mn480 O505 2.209 . S
Mn480 O506 2.094 . S
Mn481 O486 2.121 . S
Mn481 N488 2.257 . S
Mn481 N497 2.282 . S
Mn481 O505 2.215 . S
Mn481 O507 2.117 . S
C482 O504 1.234 . S
C482 O505 1.283 . S
C483 O495 1.281 . S
C483 O496 1.236 . S
C484 O506 1.240 . S
C484 O507 1.264 . S
O485 Mn480 2.095 . S
O485 C494 1.250 . S
O486 Mn481 2.121 . S
O486 C494 1.258 . S
C487 N488 1.326 . S
C487 C491 1.460 . S
C487 H493 0.929 . S
N488 Mn481 2.257 . S
N488 C487 1.326 . S
N488 C492 1.362 . S
C489 C490 1.258 . S
C489 C492 1.431 . S
C489 C509 1.449 . S
C490 C489 1.258 . S
C490 C491 1.477 . S
C490 H510 0.931 . S
C491 C487 1.460 . S
C491 C490 1.477 . S
C491 H511 0.930 . S
C492 N488 1.362 . S
C492 C489 1.431 . S
C492 C502 1.476 . S
H493 C487 0.929 . S
C494 O485 1.250 . S
C494 O486 1.258 . S
O495 Mn480 2.162 . S
O495 C483 1.281 . S
O496 Mn480 2.297 . S
O496 C483 1.236 . S
N497 Mn481 2.282 . S
N497 C498 1.328 . S
N497 C502 1.318 . S
C498 N497 1.328 . S
C498 C499 1.457 . S
C498 H503 0.929 . S
C499 C498 1.457 . S
C499 C500 1.291 . S
C499 H512 0.931 . S
C500 C499 1.291 . S
C500 C501 1.373 . S
C500 H513 0.929 . S
C501 C500 1.373 . S
C501 C502 1.396 . S
C501 C508 1.403 . S
C502 C492 1.476 . S
C502 N497 1.318 . S
C502 C501 1.396 . S
H503 C498 0.929 . S
O504 Mn480 2.385 . S
O504 C482 1.234 . S
O505 Mn480 2.209 . S
O505 Mn481 2.215 . S
O505 C482 1.283 . S
O506 Mn480 2.094 . S
O506 C484 1.240 . S
O507 Mn481 2.117 . S
O507 C484 1.264 . S
C508 C501 1.403 . S
C508 C509 1.399 . S
C508 H514 0.929 . S
C509 C489 1.449 . S
C509 C508 1.399 . S
C509 H515 0.930 . S
H510 C490 0.931 . S
H511 C491 0.930 . S
H512 C499 0.931 . S
H513 C500 0.929 . S
H514 C508 0.929 . S
H515 C509 0.930 . S
Mn516 O521 2.095 . S
Mn516 O531 2.162 . S
Mn516 O532 2.297 . S
Mn516 O540 2.385 . S
Mn516 O541 2.209 . S
Mn516 O542 2.094 . S
Mn517 O522 2.121 . S
Mn517 N524 2.257 . S
Mn517 N533 2.282 . S
Mn517 O541 2.215 . S
Mn517 O543 2.117 . S
C518 O540 1.234 . S
C518 O541 1.283 . S
C519 O531 1.281 . S
C519 O532 1.236 . S
C520 O542 1.240 . S
C520 O543 1.264 . S
O521 Mn516 2.095 . S
O521 C530 1.250 . S
O522 Mn517 2.121 . S
O522 C530 1.258 . S
C523 N524 1.326 . S
C523 C527 1.460 . S
C523 H529 0.929 . S
N524 Mn517 2.257 . S
N524 C523 1.326 . S
N524 C528 1.362 . S
C525 C526 1.258 . S
C525 C528 1.431 . S
C525 C545 1.449 . S
C526 C525 1.258 . S
C526 C527 1.477 . S
C526 H546 0.931 . S
C527 C523 1.460 . S
C527 C526 1.477 . S
C527 H547 0.930 . S
C528 N524 1.362 . S
C528 C525 1.431 . S
C528 C538 1.476 . S
H529 C523 0.929 . S
C530 O521 1.250 . S
C530 O522 1.258 . S
O531 Mn516 2.162 . S
O531 C519 1.281 . S
O532 Mn516 2.297 . S
O532 C519 1.236 . S
N533 Mn517 2.282 . S
N533 C534 1.328 . S
N533 C538 1.318 . S
C534 N533 1.328 . S
C534 C535 1.457 . S
C534 H539 0.929 . S
C535 C534 1.457 . S
C535 C536 1.291 . S
C535 H548 0.931 . S
C536 C535 1.291 . S
C536 C537 1.373 . S
C536 H549 0.929 . S
C537 C536 1.373 . S
C537 C538 1.396 . S
C537 C544 1.403 . S
C538 C528 1.476 . S
C538 N533 1.318 . S
C538 C537 1.396 . S
H539 C534 0.929 . S
O540 Mn516 2.385 . S
O540 C518 1.234 . S
O541 Mn516 2.209 . S
O541 Mn517 2.215 . S
O541 C518 1.283 . S
O542 Mn516 2.094 . S
O542 C520 1.240 . S
O543 Mn517 2.117 . S
O543 C520 1.264 . S
C544 C537 1.403 . S
C544 C545 1.399 . S
C544 H550 0.929 . S
C545 C525 1.449 . S
C545 C544 1.399 . S
C545 H551 0.930 . S
H546 C526 0.931 . S
H547 C527 0.930 . S
H548 C535 0.931 . S
H549 C536 0.929 . S
H550 C544 0.929 . S
H551 C545 0.930 . S
Mn552 O557 2.095 . S
Mn552 O567 2.162 . S
Mn552 O568 2.297 . S
Mn552 O576 2.385 . S
Mn552 O577 2.209 . S
Mn552 O578 2.094 . S
Mn553 O558 2.121 . S
Mn553 N560 2.257 . S
Mn553 N569 2.282 . S
Mn553 O577 2.215 . S
Mn553 O579 2.117 . S
C554 O576 1.234 . S
C554 O577 1.283 . S
C555 O567 1.281 . S
C555 O568 1.236 . S
C556 O578 1.240 . S
C556 O579 1.264 . S
O557 Mn552 2.095 . S
O557 C566 1.250 . S
O558 Mn553 2.121 . S
O558 C566 1.258 . S
C559 N560 1.326 . S
C559 C563 1.460 . S
C559 H565 0.929 . S
N560 Mn553 2.257 . S
N560 C559 1.326 . S
N560 C564 1.362 . S
C561 C562 1.258 . S
C561 C564 1.431 . S
C561 C581 1.449 . S
C562 C561 1.258 . S
C562 C563 1.477 . S
C562 H582 0.931 . S
C563 C559 1.460 . S
C563 C562 1.477 . S
C563 H583 0.930 . S
C564 N560 1.362 . S
C564 C561 1.431 . S
C564 C574 1.476 . S
H565 C559 0.929 . S
C566 O557 1.250 . S
C566 O558 1.258 . S
O567 Mn552 2.162 . S
O567 C555 1.281 . S
O568 Mn552 2.297 . S
O568 C555 1.236 . S
N569 Mn553 2.282 . S
N569 C570 1.328 . S
N569 C574 1.318 . S
C570 N569 1.328 . S
C570 C571 1.457 . S
C570 H575 0.929 . S
C571 C570 1.457 . S
C571 C572 1.291 . S
C571 H584 0.931 . S
C572 C571 1.291 . S
C572 C573 1.373 . S
C572 H585 0.929 . S
C573 C572 1.373 . S
C573 C574 1.396 . S
C573 C580 1.403 . S
C574 C564 1.476 . S
C574 N569 1.318 . S
C574 C573 1.396 . S
H575 C570 0.929 . S
O576 Mn552 2.385 . S
O576 C554 1.234 . S
O577 Mn552 2.209 . S
O577 Mn553 2.215 . S
O577 C554 1.283 . S
O578 Mn552 2.094 . S
O578 C556 1.240 . S
O579 Mn553 2.117 . S
O579 C556 1.264 . S
C580 C573 1.403 . S
C580 C581 1.399 . S
C580 H586 0.929 . S
C581 C561 1.449 . S
C581 C580 1.399 . S
C581 H587 0.930 . S
H582 C562 0.931 . S
H583 C563 0.930 . S
H584 C571 0.931 . S
H585 C572 0.929 . S
H586 C580 0.929 . S
H587 C581 0.930 . S
H588 C600 0.930 . S
H589 C602 0.930 . S
H590 C603 0.930 . S
H591 C607 0.959 . S
H592 C607 0.959 . S
H593 C607 0.961 . S
H594 C608 0.960 . S
H595 C608 0.961 . S
H596 C608 0.959 . S
H597 C611 0.929 . S
H598 C612 0.931 . S
H599 C614 0.930 . S
C600 H588 0.930 . S
C600 C601 1.399 . S
C600 C605 1.399 . S
C601 C600 1.399 . S
C601 C602 1.376 . S
C602 H589 0.930 . S
C602 C601 1.376 . S
C602 C603 1.388 . S
C603 H590 0.930 . S
C603 C602 1.388 . S
C603 C604 1.390 . S
C604 C603 1.390 . S
C604 C605 1.394 . S
C604 C610 1.465 . S
C605 C600 1.399 . S
C605 C604 1.394 . S
C605 C606 1.516 . S
C606 C605 1.516 . S
C606 C607 1.502 . S
C606 C608 1.561 . S
C606 C609 1.526 . S
C607 H591 0.959 . S
C607 H592 0.959 . S
C607 H593 0.961 . S
C607 C606 1.502 . S
C608 H594 0.960 . S
C608 H595 0.961 . S
C608 H596 0.959 . S
C608 C606 1.561 . S
C609 C606 1.526 . S
C609 C610 1.396 . S
C609 C614 1.390 . S
C610 C604 1.465 . S
C610 C609 1.396 . S
C610 C611 1.399 . S
C611 H597 0.929 . S
C611 C610 1.399 . S
C611 C612 1.385 . S
C612 H598 0.931 . S
C612 C611 1.385 . S
C612 C613 1.389 . S
C613 C612 1.389 . S
C613 C614 1.387 . S
C614 H599 0.930 . S
C614 C609 1.390 . S
C614 C613 1.387 . S
H615 C627 0.930 . S
H616 C629 0.930 . S
H617 C630 0.930 . S
H618 C634 0.959 . S
H619 C634 0.959 . S
H620 C634 0.961 . S
H621 C635 0.960 . S
H622 C635 0.961 . S
H623 C635 0.959 . S
H624 C638 0.929 . S
H625 C639 0.931 . S
H626 C641 0.930 . S
C627 H615 0.930 . S
C627 C628 1.399 . S
C627 C632 1.399 . S
C628 C627 1.399 . S
C628 C629 1.376 . S
C629 H616 0.930 . S
C629 C628 1.376 . S
C629 C630 1.388 . S
C630 H617 0.930 . S
C630 C629 1.388 . S
C630 C631 1.390 . S
C631 C630 1.390 . S
C631 C632 1.394 . S
C631 C637 1.465 . S
C632 C627 1.399 . S
C632 C631 1.394 . S
C632 C633 1.516 . S
C633 C632 1.516 . S
C633 C634 1.502 . S
C633 C635 1.561 . S
C633 C636 1.526 . S
C634 H618 0.959 . S
C634 H619 0.959 . S
C634 H620 0.961 . S
C634 C633 1.502 . S
C635 H621 0.960 . S
C635 H622 0.961 . S
C635 H623 0.959 . S
C635 C633 1.561 . S
C636 C633 1.526 . S
C636 C637 1.396 . S
C636 C641 1.390 . S
C637 C631 1.465 . S
C637 C636 1.396 . S
C637 C638 1.399 . S
C638 H624 0.929 . S
C638 C637 1.399 . S
C638 C639 1.385 . S
C639 H625 0.931 . S
C639 C638 1.385 . S
C639 C640 1.389 . S
C640 C639 1.389 . S
C640 C641 1.387 . S
C641 H626 0.930 . S
C641 C636 1.390 . S
C641 C640 1.387 . S
H642 C654 0.930 . S
H643 C656 0.930 . S
H644 C657 0.930 . S
H645 C661 0.959 . S
H646 C661 0.959 . S
H647 C661 0.961 . S
H648 C662 0.960 . S
H649 C662 0.961 . S
H650 C662 0.959 . S
H651 C665 0.929 . S
H652 C666 0.931 . S
H653 C668 0.930 . S
C654 H642 0.930 . S
C654 C655 1.399 . S
C654 C659 1.399 . S
C655 C654 1.399 . S
C655 C656 1.376 . S
C656 H643 0.930 . S
C656 C655 1.376 . S
C656 C657 1.388 . S
C657 H644 0.930 . S
C657 C656 1.388 . S
C657 C658 1.390 . S
C658 C657 1.390 . S
C658 C659 1.394 . S
C658 C664 1.465 . S
C659 C654 1.399 . S
C659 C658 1.394 . S
C659 C660 1.516 . S
C660 C659 1.516 . S
C660 C661 1.502 . S
C660 C662 1.561 . S
C660 C663 1.526 . S
C661 H645 0.959 . S
C661 H646 0.959 . S
C661 H647 0.961 . S
C661 C660 1.502 . S
C662 H648 0.960 . S
C662 H649 0.961 . S
C662 H650 0.959 . S
C662 C660 1.561 . S
C663 C660 1.526 . S
C663 C664 1.396 . S
C663 C668 1.390 . S
C664 C658 1.465 . S
C664 C663 1.396 . S
C664 C665 1.399 . S
C665 H651 0.929 . S
C665 C664 1.399 . S
C665 C666 1.385 . S
C666 H652 0.931 . S
C666 C665 1.385 . S
C666 C667 1.389 . S
C667 C666 1.389 . S
C667 C668 1.387 . S
C668 H653 0.930 . S
C668 C663 1.390 . S
C668 C667 1.387 . S
H669 C681 0.930 . S
H670 C683 0.930 . S
H671 C684 0.930 . S
H672 C688 0.959 . S
H673 C688 0.959 . S
H674 C688 0.961 . S
H675 C689 0.960 . S
H676 C689 0.961 . S
H677 C689 0.959 . S
H678 C692 0.929 . S
H679 C693 0.931 . S
H680 C695 0.930 . S
C681 H669 0.930 . S
C681 C682 1.399 . S
C681 C686 1.399 . S
C682 C681 1.399 . S
C682 C683 1.376 . S
C683 H670 0.930 . S
C683 C682 1.376 . S
C683 C684 1.388 . S
C684 H671 0.930 . S
C684 C683 1.388 . S
C684 C685 1.390 . S
C685 C684 1.390 . S
C685 C686 1.394 . S
C685 C691 1.465 . S
C686 C681 1.399 . S
C686 C685 1.394 . S
C686 C687 1.516 . S
C687 C686 1.516 . S
C687 C688 1.502 . S
C687 C689 1.561 . S
C687 C690 1.526 . S
C688 H672 0.959 . S
C688 H673 0.959 . S
C688 H674 0.961 . S
C688 C687 1.502 . S
C689 H675 0.960 . S
C689 H676 0.961 . S
C689 H677 0.959 . S
C689 C687 1.561 . S
C690 C687 1.526 . S
C690 C691 1.396 . S
C690 C695 1.390 . S
C691 C685 1.465 . S
C691 C690 1.396 . S
C691 C692 1.399 . S
C692 H678 0.929 . S
C692 C691 1.399 . S
C692 C693 1.385 . S
C693 H679 0.931 . S
C693 C692 1.385 . S
C693 C694 1.389 . S
C694 C693 1.389 . S
C694 C695 1.387 . S
C695 H680 0.930 . S
C695 C690 1.390 . S
C695 C694 1.387 . S
H696 C708 0.930 . S
H697 C710 0.930 . S
H698 C711 0.930 . S
H699 C715 0.959 . S
H700 C715 0.959 . S
H701 C715 0.961 . S
H702 C716 0.960 . S
H703 C716 0.961 . S
H704 C716 0.959 . S
H705 C719 0.929 . S
H706 C720 0.931 . S
H707 C722 0.930 . S
C708 H696 0.930 . S
C708 C709 1.399 . S
C708 C713 1.399 . S
C709 C708 1.399 . S
C709 C710 1.376 . S
C710 H697 0.930 . S
C710 C709 1.376 . S
C710 C711 1.388 . S
C711 H698 0.930 . S
C711 C710 1.388 . S
C711 C712 1.390 . S
C712 C711 1.390 . S
C712 C713 1.394 . S
C712 C718 1.465 . S
C713 C708 1.399 . S
C713 C712 1.394 . S
C713 C714 1.516 . S
C714 C713 1.516 . S
C714 C715 1.502 . S
C714 C716 1.561 . S
C714 C717 1.526 . S
C715 H699 0.959 . S
C715 H700 0.959 . S
C715 H701 0.961 . S
C715 C714 1.502 . S
C716 H702 0.960 . S
C716 H703 0.961 . S
C716 H704 0.959 . S
C716 C714 1.561 . S
C717 C714 1.526 . S
C717 C718 1.396 . S
C717 C722 1.390 . S
C718 C712 1.465 . S
C718 C717 1.396 . S
C718 C719 1.399 . S
C719 H705 0.929 . S
C719 C718 1.399 . S
C719 C720 1.385 . S
C720 H706 0.931 . S
C720 C719 1.385 . S
C720 C721 1.389 . S
C721 C720 1.389 . S
C721 C722 1.387 . S
C722 H707 0.930 . S
C722 C717 1.390 . S
C722 C721 1.387 . S
H723 C735 0.930 . S
H724 C737 0.930 . S
H725 C738 0.930 . S
H726 C742 0.959 . S
H727 C742 0.959 . S
H728 C742 0.961 . S
H729 C743 0.960 . S
H730 C743 0.961 . S
H731 C743 0.959 . S
H732 C746 0.929 . S
H733 C747 0.931 . S
H734 C749 0.930 . S
C735 H723 0.930 . S
C735 C736 1.399 . S
C735 C740 1.399 . S
C736 C735 1.399 . S
C736 C737 1.376 . S
C737 H724 0.930 . S
C737 C736 1.376 . S
C737 C738 1.388 . S
C738 H725 0.930 . S
C738 C737 1.388 . S
C738 C739 1.390 . S
C739 C738 1.390 . S
C739 C740 1.394 . S
C739 C745 1.465 . S
C740 C735 1.399 . S
C740 C739 1.394 . S
C740 C741 1.516 . S
C741 C740 1.516 . S
C741 C742 1.502 . S
C741 C743 1.561 . S
C741 C744 1.526 . S
C742 H726 0.959 . S
C742 H727 0.959 . S
C742 H728 0.961 . S
C742 C741 1.502 . S
C743 H729 0.960 . S
C743 H730 0.961 . S
C743 H731 0.959 . S
C743 C741 1.561 . S
C744 C741 1.526 . S
C744 C745 1.396 . S
C744 C749 1.390 . S
C745 C739 1.465 . S
C745 C744 1.396 . S
C745 C746 1.399 . S
C746 H732 0.929 . S
C746 C745 1.399 . S
C746 C747 1.385 . S
C747 H733 0.931 . S
C747 C746 1.385 . S
C747 C748 1.389 . S
C748 C747 1.389 . S
C748 C749 1.387 . S
C749 H734 0.930 . S
C749 C744 1.390 . S
C749 C748 1.387 . S
H750 C762 0.930 . S
H751 C764 0.930 . S
H752 C765 0.930 . S
H753 C769 0.959 . S
H754 C769 0.959 . S
H755 C769 0.961 . S
H756 C770 0.960 . S
H757 C770 0.961 . S
H758 C770 0.959 . S
H759 C773 0.929 . S
H760 C774 0.931 . S
H761 C776 0.930 . S
C762 H750 0.930 . S
C762 C763 1.399 . S
C762 C767 1.399 . S
C763 C762 1.399 . S
C763 C764 1.376 . S
C764 H751 0.930 . S
C764 C763 1.376 . S
C764 C765 1.388 . S
C765 H752 0.930 . S
C765 C764 1.388 . S
C765 C766 1.390 . S
C766 C765 1.390 . S
C766 C767 1.394 . S
C766 C772 1.465 . S
C767 C762 1.399 . S
C767 C766 1.394 . S
C767 C768 1.516 . S
C768 C767 1.516 . S
C768 C769 1.502 . S
C768 C770 1.561 . S
C768 C771 1.526 . S
C769 H753 0.959 . S
C769 H754 0.959 . S
C769 H755 0.961 . S
C769 C768 1.502 . S
C770 H756 0.960 . S
C770 H757 0.961 . S
C770 H758 0.959 . S
C770 C768 1.561 . S
C771 C768 1.526 . S
C771 C772 1.396 . S
C771 C776 1.390 . S
C772 C766 1.465 . S
C772 C771 1.396 . S
C772 C773 1.399 . S
C773 H759 0.929 . S
C773 C772 1.399 . S
C773 C774 1.385 . S
C774 H760 0.931 . S
C774 C773 1.385 . S
C774 C775 1.389 . S
C775 C774 1.389 . S
C775 C776 1.387 . S
C776 H761 0.930 . S
C776 C771 1.390 . S
C776 C775 1.387 . S
H777 C789 0.930 . S
H778 C791 0.930 . S
H779 C792 0.930 . S
H780 C796 0.959 . S
H781 C796 0.959 . S
H782 C796 0.961 . S
H783 C797 0.960 . S
H784 C797 0.961 . S
H785 C797 0.959 . S
H786 C800 0.929 . S
H787 C801 0.931 . S
H788 C803 0.930 . S
C789 H777 0.930 . S
C789 C790 1.399 . S
C789 C794 1.399 . S
C790 C789 1.399 . S
C790 C791 1.376 . S
C791 H778 0.930 . S
C791 C790 1.376 . S
C791 C792 1.388 . S
C792 H779 0.930 . S
C792 C791 1.388 . S
C792 C793 1.390 . S
C793 C792 1.390 . S
C793 C794 1.394 . S
C793 C799 1.465 . S
C794 C789 1.399 . S
C794 C793 1.394 . S
C794 C795 1.516 . S
C795 C794 1.516 . S
C795 C796 1.502 . S
C795 C797 1.561 . S
C795 C798 1.526 . S
C796 H780 0.959 . S
C796 H781 0.959 . S
C796 H782 0.961 . S
C796 C795 1.502 . S
C797 H783 0.960 . S
C797 H784 0.961 . S
C797 H785 0.959 . S
C797 C795 1.561 . S
C798 C795 1.526 . S
C798 C799 1.396 . S
C798 C803 1.390 . S
C799 C793 1.465 . S
C799 C798 1.396 . S
C799 C800 1.399 . S
C800 H786 0.929 . S
C800 C799 1.399 . S
C800 C801 1.385 . S
C801 H787 0.931 . S
C801 C800 1.385 . S
C801 C802 1.389 . S
C802 C801 1.389 . S
C802 C803 1.387 . S
C803 H788 0.930 . S
C803 C798 1.390 . S
C803 C802 1.387 . S
H804 C816 0.930 . S
H805 C818 0.930 . S
H806 C819 0.930 . S
H807 C823 0.959 . S
H808 C823 0.959 . S
H809 C823 0.961 . S
H810 C824 0.960 . S
H811 C824 0.961 . S
H812 C824 0.959 . S
H813 C827 0.929 . S
H814 C828 0.931 . S
H815 C830 0.930 . S
C816 H804 0.930 . S
C816 C817 1.399 . S
C816 C821 1.399 . S
C817 C816 1.399 . S
C817 C818 1.376 . S
C818 H805 0.930 . S
C818 C817 1.376 . S
C818 C819 1.388 . S
C819 H806 0.930 . S
C819 C818 1.388 . S
C819 C820 1.390 . S
C820 C819 1.390 . S
C820 C821 1.394 . S
C820 C826 1.465 . S
C821 C816 1.399 . S
C821 C820 1.394 . S
C821 C822 1.516 . S
C822 C821 1.516 . S
C822 C823 1.502 . S
C822 C824 1.561 . S
C822 C825 1.526 . S
C823 H807 0.959 . S
C823 H808 0.959 . S
C823 H809 0.961 . S
C823 C822 1.502 . S
C824 H810 0.960 . S
C824 H811 0.961 . S
C824 H812 0.959 . S
C824 C822 1.561 . S
C825 C822 1.526 . S
C825 C826 1.396 . S
C825 C830 1.390 . S
C826 C820 1.465 . S
C826 C825 1.396 . S
C826 C827 1.399 . S
C827 H813 0.929 . S
C827 C826 1.399 . S
C827 C828 1.385 . S
C828 H814 0.931 . S
C828 C827 1.385 . S
C828 C829 1.389 . S
C829 C828 1.389 . S
C829 C830 1.387 . S
C830 H815 0.930 . S
C830 C825 1.390 . S
C830 C829 1.387 . S
H831 C843 0.930 . S
H832 C845 0.930 1_556 S
H833 C846 0.930 1_556 S
H834 C850 0.959 . S
H835 C850 0.959 . S
H836 C850 0.961 . S
H837 C851 0.960 . S
H838 C851 0.961 . S
H839 C851 0.959 . S
H840 C854 0.932 . S
H841 C855 0.931 . S
H842 C857 0.930 . S
C843 H831 0.930 . S
C843 C844 1.399 . S
C843 C848 1.399 . S
C844 C843 1.399 . S
C844 C845 1.376 . S
C845 H832 0.930 1_554 S
C845 C844 1.376 . S
C845 C846 1.388 . S
C846 H833 0.930 1_554 S
C846 C845 1.388 . S
C846 C847 1.390 . S
C847 C846 1.390 . S
C847 C848 1.394 . S
C847 C853 1.465 . S
C848 C843 1.399 . S
C848 C847 1.394 . S
C848 C849 1.516 . S
C849 C848 1.516 . S
C849 C850 1.502 . S
C849 C851 1.561 . S
C849 C852 1.526 . S
C850 H834 0.959 . S
C850 H835 0.959 . S
C850 H836 0.961 . S
C850 C849 1.502 . S
C851 H837 0.960 . S
C851 H838 0.961 . S
C851 H839 0.959 . S
C851 C849 1.561 . S
C852 C849 1.526 . S
C852 C853 1.396 . S
C852 C857 1.390 . S
C853 C847 1.465 . S
C853 C852 1.396 . S
C853 C854 1.399 . S
C854 H840 0.932 . S
C854 C853 1.399 . S
C854 C855 1.385 . S
C855 H841 0.931 . S
C855 C854 1.385 . S
C855 C856 1.389 . S
C856 C855 1.389 . S
C856 C857 1.387 . S
C857 H842 0.930 . S
C857 C852 1.390 . S
C857 C856 1.387 . S
H858 C870 0.930 . S
H859 C872 0.930 . S
H860 C873 0.930 . S
H861 C877 0.959 . S
H862 C877 0.959 . S
H863 C877 0.961 . S
H864 C878 0.960 . S
H865 C878 0.961 . S
H866 C878 0.959 . S
H867 C881 0.929 . S
H868 C882 0.931 . S
H869 C884 0.930 . S
C870 H858 0.930 . S
C870 C871 1.399 . S
C870 C875 1.399 . S
C871 C870 1.399 . S
C871 C872 1.376 . S
C872 H859 0.930 . S
C872 C871 1.376 . S
C872 C873 1.388 . S
C873 H860 0.930 . S
C873 C872 1.388 . S
C873 C874 1.390 . S
C874 C873 1.390 . S
C874 C875 1.394 . S
C874 C880 1.465 . S
C875 C870 1.399 . S
C875 C874 1.394 . S
C875 C876 1.516 . S
C876 C875 1.516 . S
C876 C877 1.502 . S
C876 C878 1.561 . S
C876 C879 1.526 . S
C877 H861 0.959 . S
C877 H862 0.959 . S
C877 H863 0.961 . S
C877 C876 1.502 . S
C878 H864 0.960 . S
C878 H865 0.961 . S
C878 H866 0.959 . S
C878 C876 1.561 . S
C879 C876 1.526 . S
C879 C880 1.396 . S
C879 C884 1.390 . S
C880 C874 1.465 . S
C880 C879 1.396 . S
C880 C881 1.399 . S
C881 H867 0.929 . S
C881 C880 1.399 . S
C881 C882 1.385 . S
C882 H868 0.931 . S
C882 C881 1.385 . S
C882 C883 1.389 . S
C883 C882 1.389 . S
C883 C884 1.387 . S
C884 H869 0.930 . S
C884 C879 1.390 . S
C884 C883 1.387 . S
H885 C897 0.930 . S
H886 C899 0.930 . S
H887 C900 0.930 . S
H888 C904 0.959 . S
H889 C904 0.959 . S
H890 C904 0.961 . S
H891 C905 0.960 . S
H892 C905 0.961 . S
H893 C905 0.959 . S
H894 C908 0.929 . S
H895 C909 0.931 . S
H896 C911 0.930 . S
C897 H885 0.930 . S
C897 C898 1.399 . S
C897 C902 1.399 . S
C898 C897 1.399 . S
C898 C899 1.376 . S
C899 H886 0.930 . S
C899 C898 1.376 . S
C899 C900 1.388 . S
C900 H887 0.930 . S
C900 C899 1.388 . S
C900 C901 1.390 . S
C901 C900 1.390 . S
C901 C902 1.394 . S
C901 C907 1.465 . S
C902 C897 1.399 . S
C902 C901 1.394 . S
C902 C903 1.516 . S
C903 C902 1.516 . S
C903 C904 1.502 . S
C903 C905 1.561 . S
C903 C906 1.526 . S
C904 H888 0.959 . S
C904 H889 0.959 . S
C904 H890 0.961 . S
C904 C903 1.502 . S
C905 H891 0.960 . S
C905 H892 0.961 . S
C905 H893 0.959 . S
C905 C903 1.561 . S
C906 C903 1.526 . S
C906 C907 1.396 . S
C906 C911 1.390 . S
C907 C901 1.465 . S
C907 C906 1.396 . S
C907 C908 1.399 . S
C908 H894 0.929 . S
C908 C907 1.399 . S
C908 C909 1.385 . S
C909 H895 0.931 . S
C909 C908 1.385 . S
C909 C910 1.389 . S
C910 C909 1.389 . S
C910 C911 1.387 . S
C911 H896 0.930 . S
C911 C906 1.390 . S
C911 C910 1.387 . S
H912 C924 0.930 . S
H913 C926 0.930 . S
H914 C927 0.930 . S
H915 C931 0.959 . S
H916 C931 0.959 . S
H917 C931 0.961 . S
H918 C932 0.960 . S
H919 C932 0.961 . S
H920 C932 0.959 . S
H921 C935 0.929 . S
H922 C936 0.931 . S
H923 C938 0.930 . S
C924 H912 0.930 . S
C924 C925 1.399 . S
C924 C929 1.399 . S
C925 C924 1.399 . S
C925 C926 1.376 . S
C926 H913 0.930 . S
C926 C925 1.376 . S
C926 C927 1.388 . S
C927 H914 0.930 . S
C927 C926 1.388 . S
C927 C928 1.390 . S
C928 C927 1.390 . S
C928 C929 1.394 . S
C928 C934 1.465 . S
C929 C924 1.399 . S
C929 C928 1.394 . S
C929 C930 1.516 . S
C930 C929 1.516 . S
C930 C931 1.502 . S
C930 C932 1.561 . S
C930 C933 1.526 . S
C931 H915 0.959 . S
C931 H916 0.959 . S
C931 H917 0.961 . S
C931 C930 1.502 . S
C932 H918 0.960 . S
C932 H919 0.961 . S
C932 H920 0.959 . S
C932 C930 1.561 . S
C933 C930 1.526 . S
C933 C934 1.396 . S
C933 C938 1.390 . S
C934 C928 1.465 . S
C934 C933 1.396 . S
C934 C935 1.399 . S
C935 H921 0.929 . S
C935 C934 1.399 . S
C935 C936 1.385 . S
C936 H922 0.931 . S
C936 C935 1.385 . S
C936 C937 1.389 . S
C937 C936 1.389 . S
C937 C938 1.387 . S
C938 H923 0.930 . S
C938 C933 1.390 . S
C938 C937 1.387 . S
H939 C951 0.930 . S
H940 C953 0.930 . S
H941 C954 0.930 . S
H942 C958 0.959 . S
H943 C958 0.959 . S
H944 C958 0.961 . S
H945 C959 0.960 . S
H946 C959 0.961 . S
H947 C959 0.959 . S
H948 C962 0.929 . S
H949 C963 0.931 . S
H950 C965 0.930 . S
C951 H939 0.930 . S
C951 C952 1.399 . S
C951 C956 1.399 . S
C952 C951 1.399 . S
C952 C953 1.376 . S
C953 H940 0.930 . S
C953 C952 1.376 . S
C953 C954 1.388 . S
C954 H941 0.930 . S
C954 C953 1.388 . S
C954 C955 1.390 . S
C955 C954 1.390 . S
C955 C956 1.394 . S
C955 C961 1.465 . S
C956 C951 1.399 . S
C956 C955 1.394 . S
C956 C957 1.516 . S
C957 C956 1.516 . S
C957 C958 1.502 . S
C957 C959 1.561 . S
C957 C960 1.526 . S
C958 H942 0.959 . S
C958 H943 0.959 . S
C958 H944 0.961 . S
C958 C957 1.502 . S
C959 H945 0.960 . S
C959 H946 0.961 . S
C959 H947 0.959 . S
C959 C957 1.561 . S
C960 C957 1.526 . S
C960 C961 1.396 . S
C960 C965 1.390 . S
C961 C955 1.465 . S
C961 C960 1.396 . S
C961 C962 1.399 . S
C962 H948 0.929 . S
C962 C961 1.399 . S
C962 C963 1.385 . S
C963 H949 0.931 . S
C963 C962 1.385 . S
C963 C964 1.389 . S
C964 C963 1.389 . S
C964 C965 1.387 . S
C965 H950 0.930 . S
C965 C960 1.390 . S
C965 C964 1.387 . S
H966 C978 0.930 . S
H967 C980 0.930 . S
H968 C981 0.930 . S
H969 C985 0.959 . S
H970 C985 0.959 . S
H971 C985 0.961 . S
H972 C986 0.960 . S
H973 C986 0.961 . S
H974 C986 0.959 . S
H975 C989 0.929 . S
H976 C990 0.931 . S
H977 C992 0.930 . S
C978 H966 0.930 . S
C978 C979 1.399 . S
C978 C983 1.399 . S
C979 C978 1.399 . S
C979 C980 1.376 . S
C980 H967 0.930 . S
C980 C979 1.376 . S
C980 C981 1.388 . S
C981 H968 0.930 . S
C981 C980 1.388 . S
C981 C982 1.390 . S
C982 C981 1.390 . S
C982 C983 1.394 . S
C982 C988 1.465 . S
C983 C978 1.399 . S
C983 C982 1.394 . S
C983 C984 1.516 . S
C984 C983 1.516 . S
C984 C985 1.502 . S
C984 C986 1.561 . S
C984 C987 1.526 . S
C985 H969 0.959 . S
C985 H970 0.959 . S
C985 H971 0.961 . S
C985 C984 1.502 . S
C986 H972 0.960 . S
C986 H973 0.961 . S
C986 H974 0.959 . S
C986 C984 1.561 . S
C987 C984 1.526 . S
C987 C988 1.396 . S
C987 C992 1.390 . S
C988 C982 1.465 . S
C988 C987 1.396 . S
C988 C989 1.399 . S
C989 H975 0.929 . S
C989 C988 1.399 . S
C989 C990 1.385 . S
C990 H976 0.931 . S
C990 C989 1.385 . S
C990 C991 1.389 . S
C991 C990 1.389 . S
C991 C992 1.387 . S
C992 H977 0.930 . S
C992 C987 1.390 . S
C992 C991 1.387 . S
H993 C1005 0.930 . S
H994 C1007 0.930 . S
H995 C1008 0.930 . S
H996 C1012 0.959 . S
H997 C1012 0.959 1_554 S
H998 C1012 0.961 . S
H999 C1013 0.960 . S
H1000 C1013 0.955 1_554 S
H1001 C1013 0.959 . S
H1002 C1016 0.929 . S
H1003 C1017 0.931 . S
H1004 C1019 0.930 . S
C1005 H993 0.930 . S
C1005 C1006 1.399 . S
C1005 C1010 1.399 . S
C1006 C1005 1.399 . S
C1006 C1007 1.376 . S
C1007 H994 0.930 . S
C1007 C1006 1.376 . S
C1007 C1008 1.388 . S
C1008 H995 0.930 . S
C1008 C1007 1.388 . S
C1008 C1009 1.390 . S
C1009 C1008 1.390 . S
C1009 C1010 1.394 . S
C1009 C1015 1.465 . S
C1010 C1005 1.399 . S
C1010 C1009 1.394 . S
C1010 C1011 1.516 . S
C1011 C1010 1.516 . S
C1011 C1012 1.502 . S
C1011 C1013 1.561 . S
C1011 C1014 1.526 . S
C1012 H996 0.959 . S
C1012 H997 0.959 1_556 S
C1012 H998 0.961 . S
C1012 C1011 1.502 . S
C1013 H999 0.960 . S
C1013 H1000 0.955 1_556 S
C1013 H1001 0.959 . S
C1013 C1011 1.561 . S
C1014 C1011 1.526 . S
C1014 C1015 1.396 . S
C1014 C1019 1.390 1_556 S
C1015 C1009 1.465 . S
C1015 C1014 1.396 . S
C1015 C1016 1.399 . S
C1016 H1002 0.929 . S
C1016 C1015 1.399 . S
C1016 C1017 1.385 . S
C1017 H1003 0.931 . S
C1017 C1016 1.385 . S
C1017 C1018 1.389 1_556 S
C1018 C1017 1.389 1_554 S
C1018 C1019 1.387 . S
C1019 H1004 0.930 . S
C1019 C1014 1.390 1_554 S
C1019 C1018 1.387 . S
H1020 C1032 0.930 . S
H1021 C1034 0.930 . S
H1022 C1035 0.930 . S
H1023 C1039 0.959 . S
H1024 C1039 0.959 . S
H1025 C1039 0.961 . S
H1026 C1040 0.960 . S
H1027 C1040 0.961 . S
H1028 C1040 0.959 . S
H1029 C1043 0.929 . S
H1030 C1044 0.931 . S
H1031 C1046 0.930 . S
C1032 H1020 0.930 . S
C1032 C1033 1.399 . S
C1032 C1037 1.399 . S
C1033 C1032 1.399 . S
C1033 C1034 1.376 . S
C1034 H1021 0.930 . S
C1034 C1033 1.376 . S
C1034 C1035 1.388 . S
C1035 H1022 0.930 . S
C1035 C1034 1.388 . S
C1035 C1036 1.390 . S
C1036 C1035 1.390 . S
C1036 C1037 1.394 . S
C1036 C1042 1.465 . S
C1037 C1032 1.399 . S
C1037 C1036 1.394 . S
C1037 C1038 1.516 . S
C1038 C1037 1.516 . S
C1038 C1039 1.502 . S
C1038 C1040 1.561 . S
C1038 C1041 1.526 . S
C1039 H1023 0.959 . S
C1039 H1024 0.959 . S
C1039 H1025 0.961 . S
C1039 C1038 1.502 . S
C1040 H1026 0.960 . S
C1040 H1027 0.961 . S
C1040 H1028 0.959 . S
C1040 C1038 1.561 . S
C1041 C1038 1.526 . S
C1041 C1042 1.396 . S
C1041 C1046 1.390 . S
C1042 C1036 1.465 . S
C1042 C1041 1.396 . S
C1042 C1043 1.399 . S
C1043 H1029 0.929 . S
C1043 C1042 1.399 . S
C1043 C1044 1.385 . S
C1044 H1030 0.931 . S
C1044 C1043 1.385 . S
C1044 C1045 1.389 . S
C1045 C1044 1.389 . S
C1045 C1046 1.387 . S
C1046 H1031 0.930 . S
C1046 C1041 1.390 . S
C1046 C1045 1.387 . S
H1047 C1059 0.930 . S
H1048 C1061 0.930 . S
H1049 C1062 0.930 . S
H1050 C1066 0.959 . S
H1051 C1066 0.959 . S
H1052 C1066 0.961 . S
H1053 C1067 0.960 . S
H1054 C1067 0.961 . S
H1055 C1067 0.959 . S
H1056 C1070 0.929 . S
H1057 C1071 0.931 . S
H1058 C1073 0.930 . S
C1059 H1047 0.930 . S
C1059 C1060 1.399 . S
C1059 C1064 1.399 . S
C1060 C1059 1.399 . S
C1060 C1061 1.376 . S
C1061 H1048 0.930 . S
C1061 C1060 1.376 . S
C1061 C1062 1.388 . S
C1062 H1049 0.930 . S
C1062 C1061 1.388 . S
C1062 C1063 1.390 . S
C1063 C1062 1.390 . S
C1063 C1064 1.394 . S
C1063 C1069 1.465 . S
C1064 C1059 1.399 . S
C1064 C1063 1.394 . S
C1064 C1065 1.516 . S
C1065 C1064 1.516 . S
C1065 C1066 1.502 . S
C1065 C1067 1.561 . S
C1065 C1068 1.526 . S
C1066 H1050 0.959 . S
C1066 H1051 0.959 . S
C1066 H1052 0.961 . S
C1066 C1065 1.502 . S
C1067 H1053 0.960 . S
C1067 H1054 0.961 . S
C1067 H1055 0.959 . S
C1067 C1065 1.561 . S
C1068 C1065 1.526 . S
C1068 C1069 1.396 . S
C1068 C1073 1.390 . S
C1069 C1063 1.465 . S
C1069 C1068 1.396 . S
C1069 C1070 1.399 . S
C1070 H1056 0.929 . S
C1070 C1069 1.399 . S
C1070 C1071 1.385 . S
C1071 H1057 0.931 . S
C1071 C1070 1.385 . S
C1071 C1072 1.389 . S
C1072 C1071 1.389 . S
C1072 C1073 1.387 . S
C1073 H1058 0.930 . S
C1073 C1068 1.390 . S
C1073 C1072 1.387 . S
H1074 C1086 0.930 . S
H1075 C1088 0.930 . S
H1076 C1089 0.930 . S
H1077 C1093 0.959 . S
H1078 C1093 0.959 . S
H1079 C1093 0.961 . S
H1080 C1094 0.960 . S
H1081 C1094 0.961 . S
H1082 C1094 0.959 . S
H1083 C1097 0.929 . S
H1084 C1098 0.931 . S
H1085 C1100 0.930 . S
C1086 H1074 0.930 . S
C1086 C1087 1.399 . S
C1086 C1091 1.399 . S
C1087 C1086 1.399 . S
C1087 C1088 1.376 . S
C1088 H1075 0.930 . S
C1088 C1087 1.376 . S
C1088 C1089 1.388 . S
C1089 H1076 0.930 . S
C1089 C1088 1.388 . S
C1089 C1090 1.390 . S
C1090 C1089 1.390 . S
C1090 C1091 1.394 . S
C1090 C1096 1.465 . S
C1091 C1086 1.399 . S
C1091 C1090 1.394 . S
C1091 C1092 1.516 . S
C1092 C1091 1.516 . S
C1092 C1093 1.502 . S
C1092 C1094 1.561 . S
C1092 C1095 1.526 . S
C1093 H1077 0.959 . S
C1093 H1078 0.959 . S
C1093 H1079 0.961 . S
C1093 C1092 1.502 . S
C1094 H1080 0.960 . S
C1094 H1081 0.961 . S
C1094 H1082 0.959 . S
C1094 C1092 1.561 . S
C1095 C1092 1.526 . S
C1095 C1096 1.396 . S
C1095 C1100 1.390 . S
C1096 C1090 1.465 . S
C1096 C1095 1.396 . S
C1096 C1097 1.399 . S
C1097 H1083 0.929 . S
C1097 C1096 1.399 . S
C1097 C1098 1.385 . S
C1098 H1084 0.931 . S
C1098 C1097 1.385 . S
C1098 C1099 1.389 . S
C1099 C1098 1.389 . S
C1099 C1100 1.387 . S
C1100 H1085 0.930 . S
C1100 C1095 1.390 . S
C1100 C1099 1.387 . S
H1101 C1113 0.930 . S
H1102 C1115 0.930 . S
H1103 C1116 0.930 . S
H1104 C1120 0.959 . S
H1105 C1120 0.959 . S
H1106 C1120 0.961 . S
H1107 C1121 0.960 . S
H1108 C1121 0.961 . S
H1109 C1121 0.959 . S
H1110 C1124 0.929 . S
H1111 C1125 0.931 . S
H1112 C1127 0.930 . S
C1113 H1101 0.930 . S
C1113 C1114 1.399 . S
C1113 C1118 1.399 . S
C1114 C1113 1.399 . S
C1114 C1115 1.376 . S
C1115 H1102 0.930 . S
C1115 C1114 1.376 . S
C1115 C1116 1.388 . S
C1116 H1103 0.930 . S
C1116 C1115 1.388 . S
C1116 C1117 1.390 . S
C1117 C1116 1.390 . S
C1117 C1118 1.394 . S
C1117 C1123 1.465 . S
C1118 C1113 1.399 . S
C1118 C1117 1.394 . S
C1118 C1119 1.516 . S
C1119 C1118 1.516 . S
C1119 C1120 1.502 . S
C1119 C1121 1.561 . S
C1119 C1122 1.526 . S
C1120 H1104 0.959 . S
C1120 H1105 0.959 . S
C1120 H1106 0.961 . S
C1120 C1119 1.502 . S
C1121 H1107 0.960 . S
C1121 H1108 0.961 . S
C1121 H1109 0.959 . S
C1121 C1119 1.561 . S
C1122 C1119 1.526 . S
C1122 C1123 1.396 . S
C1122 C1127 1.390 . S
C1123 C1117 1.465 . S
C1123 C1122 1.396 . S
C1123 C1124 1.399 . S
C1124 H1110 0.929 . S
C1124 C1123 1.399 . S
C1124 C1125 1.385 . S
C1125 H1111 0.931 . S
C1125 C1124 1.385 . S
C1125 C1126 1.389 . S
C1126 C1125 1.389 . S
C1126 C1127 1.387 . S
C1127 H1112 0.930 . S
C1127 C1122 1.390 . S
C1127 C1126 1.387 . S
H1128 C1140 0.930 . S
H1129 C1142 0.930 . S
H1130 C1143 0.930 . S
H1131 C1147 0.959 . S
H1132 C1147 0.959 . S
H1133 C1147 0.961 . S
H1134 C1148 0.960 . S
H1135 C1148 0.961 . S
H1136 C1148 0.959 . S
H1137 C1151 0.929 . S
H1138 C1152 0.931 . S
H1139 C1154 0.930 . S
C1140 H1128 0.930 . S
C1140 C1141 1.399 . S
C1140 C1145 1.399 . S
C1141 C1140 1.399 . S
C1141 C1142 1.376 . S
C1142 H1129 0.930 . S
C1142 C1141 1.376 . S
C1142 C1143 1.388 . S
C1143 H1130 0.930 . S
C1143 C1142 1.388 . S
C1143 C1144 1.390 . S
C1144 C1143 1.390 . S
C1144 C1145 1.394 . S
C1144 C1150 1.465 . S
C1145 C1140 1.399 . S
C1145 C1144 1.394 . S
C1145 C1146 1.516 . S
C1146 C1145 1.516 . S
C1146 C1147 1.502 . S
C1146 C1148 1.561 . S
C1146 C1149 1.526 . S
C1147 H1131 0.959 . S
C1147 H1132 0.959 . S
C1147 H1133 0.961 . S
C1147 C1146 1.502 . S
C1148 H1134 0.960 . S
C1148 H1135 0.961 . S
C1148 H1136 0.959 . S
C1148 C1146 1.561 . S
C1149 C1146 1.526 . S
C1149 C1150 1.396 . S
C1149 C1154 1.390 . S
C1150 C1144 1.465 . S
C1150 C1149 1.396 . S
C1150 C1151 1.399 . S
C1151 H1137 0.929 . S
C1151 C1150 1.399 . S
C1151 C1152 1.385 . S
C1152 H1138 0.931 . S
C1152 C1151 1.385 . S
C1152 C1153 1.389 . S
C1153 C1152 1.389 . S
C1153 C1154 1.387 . S
C1154 H1139 0.930 . S
C1154 C1149 1.390 . S
C1154 C1153 1.387 . S
H1155 C1167 0.930 . S
H1156 C1169 0.930 . S
H1157 C1170 0.930 . S
H1158 C1174 0.959 . S
H1159 C1174 0.959 . S
H1160 C1174 0.961 . S
H1161 C1175 0.960 . S
H1162 C1175 0.961 . S
H1163 C1175 0.959 . S
H1164 C1178 0.929 . S
H1165 C1179 0.931 . S
H1166 C1181 0.930 . S
C1167 H1155 0.930 . S
C1167 C1168 1.399 . S
C1167 C1172 1.399 . S
C1168 C1167 1.399 . S
C1168 C1169 1.376 . S
C1169 H1156 0.930 . S
C1169 C1168 1.376 . S
C1169 C1170 1.388 . S
C1170 H1157 0.930 . S
C1170 C1169 1.388 . S
C1170 C1171 1.390 . S
C1171 C1170 1.390 . S
C1171 C1172 1.394 . S
C1171 C1177 1.465 . S
C1172 C1167 1.399 . S
C1172 C1171 1.394 . S
C1172 C1173 1.516 . S
C1173 C1172 1.516 . S
C1173 C1174 1.502 . S
C1173 C1175 1.561 . S
C1173 C1176 1.526 . S
C1174 H1158 0.959 . S
C1174 H1159 0.959 . S
C1174 H1160 0.961 . S
C1174 C1173 1.502 . S
C1175 H1161 0.960 . S
C1175 H1162 0.961 . S
C1175 H1163 0.959 . S
C1175 C1173 1.561 . S
C1176 C1173 1.526 . S
C1176 C1177 1.396 . S
C1176 C1181 1.390 . S
C1177 C1171 1.465 . S
C1177 C1176 1.396 . S
C1177 C1178 1.399 . S
C1178 H1164 0.929 . S
C1178 C1177 1.399 . S
C1178 C1179 1.385 . S
C1179 H1165 0.931 . S
C1179 C1178 1.385 . S
C1179 C1180 1.389 . S
C1180 C1179 1.389 . S
C1180 C1181 1.387 . S
C1181 H1166 0.930 . S
C1181 C1176 1.390 . S
C1181 C1180 1.387 . S
H1182 C1194 0.930 . S
H1183 C1196 0.930 . S
H1184 C1197 0.930 . S
H1185 C1201 0.959 . S
H1186 C1201 0.959 . S
H1187 C1201 0.961 . S
H1188 C1202 0.960 . S
H1189 C1202 0.961 . S
H1190 C1202 0.959 . S
H1191 C1205 0.929 1_554 S
H1192 C1206 0.931 . S
H1193 C1208 0.930 . S
C1194 H1182 0.930 . S
C1194 C1195 1.399 . S
C1194 C1199 1.399 1_554 S
C1195 C1194 1.399 . S
C1195 C1196 1.376 . S
C1196 H1183 0.930 . S
C1196 C1195 1.376 . S
C1196 C1197 1.388 . S
C1197 H1184 0.930 . S
C1197 C1196 1.388 . S
C1197 C1198 1.390 . S
C1198 C1197 1.390 . S
C1198 C1199 1.394 1_554 S
C1198 C1204 1.465 1_554 S
C1199 C1194 1.399 1_556 S
C1199 C1198 1.394 1_556 S
C1199 C1200 1.516 . S
C1200 C1199 1.516 . S
C1200 C1201 1.502 . S
C1200 C1202 1.561 . S
C1200 C1203 1.526 . S
C1201 H1185 0.959 . S
C1201 H1186 0.959 . S
C1201 H1187 0.961 . S
C1201 C1200 1.502 . S
C1202 H1188 0.960 . S
C1202 H1189 0.961 . S
C1202 H1190 0.959 . S
C1202 C1200 1.561 . S
C1203 C1200 1.526 . S
C1203 C1204 1.396 . S
C1203 C1208 1.390 . S
C1204 C1198 1.465 1_556 S
C1204 C1203 1.396 . S
C1204 C1205 1.399 . S
C1205 H1191 0.929 1_556 S
C1205 C1204 1.399 . S
C1205 C1206 1.385 . S
C1206 H1192 0.931 . S
C1206 C1205 1.385 . S
C1206 C1207 1.389 . S
C1207 C1206 1.389 . S
C1207 C1208 1.387 . S
C1208 H1193 0.930 . S
C1208 C1203 1.390 . S
C1208 C1207 1.387 . S
H1209 C1221 0.930 . S
H1210 C1223 0.930 . S
H1211 C1224 0.930 . S
H1212 C1228 0.959 . S
H1213 C1228 0.959 . S
H1214 C1228 0.961 . S
H1215 C1229 0.960 . S
H1216 C1229 0.961 . S
H1217 C1229 0.959 . S
H1218 C1232 0.929 . S
H1219 C1233 0.931 . S
H1220 C1235 0.930 . S
C1221 H1209 0.930 . S
C1221 C1222 1.399 . S
C1221 C1226 1.399 . S
C1222 C1221 1.399 . S
C1222 C1223 1.376 . S
C1223 H1210 0.930 . S
C1223 C1222 1.376 . S
C1223 C1224 1.388 . S
C1224 H1211 0.930 . S
C1224 C1223 1.388 . S
C1224 C1225 1.390 . S
C1225 C1224 1.390 . S
C1225 C1226 1.394 . S
C1225 C1231 1.465 . S
C1226 C1221 1.399 . S
C1226 C1225 1.394 . S
C1226 C1227 1.516 . S
C1227 C1226 1.516 . S
C1227 C1228 1.502 . S
C1227 C1229 1.561 . S
C1227 C1230 1.526 . S
C1228 H1212 0.959 . S
C1228 H1213 0.959 . S
C1228 H1214 0.961 . S
C1228 C1227 1.502 . S
C1229 H1215 0.960 . S
C1229 H1216 0.961 . S
C1229 H1217 0.959 . S
C1229 C1227 1.561 . S
C1230 C1227 1.526 . S
C1230 C1231 1.396 . S
C1230 C1235 1.390 . S
C1231 C1225 1.465 . S
C1231 C1230 1.396 . S
C1231 C1232 1.399 . S
C1232 H1218 0.929 . S
C1232 C1231 1.399 . S
C1232 C1233 1.385 . S
C1233 H1219 0.931 . S
C1233 C1232 1.385 . S
C1233 C1234 1.389 . S
C1234 C1233 1.389 . S
C1234 C1235 1.387 . S
C1235 H1220 0.930 . S
C1235 C1230 1.390 . S
C1235 C1234 1.387 . S
C613 C555 1.662 . S
C601 C29 1.610 . S
C628 C115 1.573 . S
C640 C375 1.624 . S
C655 C153 1.532 . S
C667 C422 1.645 . S
C682 C239 1.471 . S
C694 C458 1.482 . S
C721 C483 1.600 . S
C709 C301 1.542 . S
C736 C339 1.759 . S
C748 C519 1.922 . S
C763 C91 1.588 . S
C775 C411 1.721 . S
C790 C177 1.558 . S
C802 C447 1.551 . S
C817 C215 1.557 . S
C829 C494 1.578 . S
C856 C530 1.878 . S
C844 C277 1.763 . S
C883 C566 1.590 . S
C871 C363 1.602 . S
C910 C386 1.566 . S
C898 C53 1.573 . S
C925 C35 1.503 . S
C937 C410 1.546 . S
C952 C109 1.453 . S
C964 C446 1.489 . S
C991 C484 1.457 . S
C979 C159 1.437 . S
C1006 C233 1.544 . S
C1018 C520 1.721 . S
C1045 C556 1.489 . S
C1033 C295 1.408 . S
C1072 C376 1.360 . S
C1060 C345 1.337 . S
C1099 C554 1.430 . S
C1087 C97 1.425 . S
C1114 C171 1.338 . S
C1126 C374 1.482 . S
C1153 C412 1.539 . S
C1141 C221 1.541 . S
C1168 C283 1.404 . S
C1180 C448 1.385 . S
C1195 C357 1.381 . S
C1207 C482 1.562 . S
C1222 C47 1.611 . S
C1234 C518 1.698 . S
