# Generated by pormake.
# Topology zzz, (3,6)-cn, num edge types: 1
# Building blocks:
#     Node 0, Type 0, BuildingBlock: BELTOD_clean_linker_0, # of connection points: 3
#     Node 1, Type 0, BuildingBlock: BELTOD_clean_linker_0, # of connection points: 3
#     Node 2, Type 0, BuildingBlock: BELTOD_clean_linker_0, # of connection points: 3
#     Node 3, Type 0, BuildingBlock: BELTOD_clean_linker_0, # of connection points: 3
#     Node 4, Type 0, BuildingBlock: BELTOD_clean_linker_0, # of connection points: 3
#     Node 5, Type 0, BuildingBlock: BELTOD_clean_linker_0, # of connection points: 3
#     Node 6, Type 0, BuildingBlock: BELTOD_clean_linker_0, # of connection points: 3
#     Node 7, Type 0, BuildingBlock: BELTOD_clean_linker_0, # of connection points: 3
#     Node 8, Type 1, BuildingBlock: FUNLAD_clean_sbu_0, # of connection points: 6
#     Node 9, Type 1, BuildingBlock: FUNLAD_clean_sbu_0, # of connection points: 6
#     Node 10, Type 1, BuildingBlock: FUNLAD_clean_sbu_0, # of connection points: 6
#     Node 11, Type 1, BuildingBlock: FUNLAD_clean_sbu_0, # of connection points: 6
#     Edge 12, Type (0, 1), BuildingBlock: TEMPAE_clean_linker_10, # of connection points: 2
#     Edge 13, Type (0, 1), BuildingBlock: TEMPAE_clean_linker_10, # of connection points: 2
#     Edge 14, Type (0, 1), BuildingBlock: TEMPAE_clean_linker_10, # of connection points: 2
#     Edge 15, Type (0, 1), BuildingBlock: TEMPAE_clean_linker_10, # of connection points: 2
#     Edge 16, Type (0, 1), BuildingBlock: TEMPAE_clean_linker_10, # of connection points: 2
#     Edge 17, Type (0, 1), BuildingBlock: TEMPAE_clean_linker_10, # of connection points: 2
#     Edge 18, Type (0, 1), BuildingBlock: TEMPAE_clean_linker_10, # of connection points: 2
#     Edge 19, Type (0, 1), BuildingBlock: TEMPAE_clean_linker_10, # of connection points: 2
#     Edge 20, Type (0, 1), BuildingBlock: TEMPAE_clean_linker_10, # of connection points: 2
#     Edge 21, Type (0, 1), BuildingBlock: TEMPAE_clean_linker_10, # of connection points: 2
#     Edge 22, Type (0, 1), BuildingBlock: TEMPAE_clean_linker_10, # of connection points: 2
#     Edge 23, Type (0, 1), BuildingBlock: TEMPAE_clean_linker_10, # of connection points: 2
#     Edge 24, Type (0, 1), BuildingBlock: TEMPAE_clean_linker_10, # of connection points: 2
#     Edge 25, Type (0, 1), BuildingBlock: TEMPAE_clean_linker_10, # of connection points: 2
#     Edge 26, Type (0, 1), BuildingBlock: TEMPAE_clean_linker_10, # of connection points: 2
#     Edge 27, Type (0, 1), BuildingBlock: TEMPAE_clean_linker_10, # of connection points: 2
#     Edge 28, Type (0, 1), BuildingBlock: TEMPAE_clean_linker_10, # of connection points: 2
#     Edge 29, Type (0, 1), BuildingBlock: TEMPAE_clean_linker_10, # of connection points: 2
#     Edge 30, Type (0, 1), BuildingBlock: TEMPAE_clean_linker_10, # of connection points: 2
#     Edge 31, Type (0, 1), BuildingBlock: TEMPAE_clean_linker_10, # of connection points: 2
#     Edge 32, Type (0, 1), BuildingBlock: TEMPAE_clean_linker_10, # of connection points: 2
#     Edge 33, Type (0, 1), BuildingBlock: TEMPAE_clean_linker_10, # of connection points: 2
#     Edge 34, Type (0, 1), BuildingBlock: TEMPAE_clean_linker_10, # of connection points: 2
#     Edge 35, Type (0, 1), BuildingBlock: TEMPAE_clean_linker_10, # of connection points: 2
# Relax obj value: 0.252
# Max RMSD: 0.215
# Mean RMSD: 0.181
data_MOF--net-zzz--node1-FUNLAD_clean_sbu_0--node2-BELTOD_clean_linker_0--edge1-TEMPAE_clean_linker_10
_symmetry_space_group_name_H-M    P1
_symmetry_Int_Tables_number       1
_symmetry_cell_setting            triclinic
loop_
_symmetry_equiv_pos_as_xyz
'x, y, z'
_cell_length_a     55.008919
_cell_length_b     59.577013
_cell_length_c     21.171116
_cell_angle_alpha  86.620263
_cell_angle_beta   87.078905
_cell_angle_gamma 92.129171
loop_
_atom_site_label
_atom_site_type_symbol
_atom_site_fract_x
_atom_site_fract_y
_atom_site_fract_z
_atom_type_partial_charge
P0 P 0.79238 0.3824 0.24561 0.0
H1 H 0.80252 0.37647 0.38028 0.0
H2 H 0.82336 0.4009 0.45061 0.0
H3 H 0.8264 0.45498 0.30454 0.0
H4 H 0.80682 0.43004 0.23357 0.0
H5 H 0.76113 0.3605 0.15932 0.0
H6 H 0.72749 0.37403 0.09735 0.0
H7 H 0.7294 0.43598 0.19304 0.0
H8 H 0.76209 0.42221 0.25648 0.0
H9 H 0.83949 0.36148 0.23537 0.0
H10 H 0.79833 0.40752 0.12242 0.0
O11 O 0.78891 0.35627 0.27862 0.0
H12 H 0.87455 0.36793 0.15923 0.0
H13 H 0.83301 0.41419 0.04733 0.0
C14 C 0.80299 0.40149 0.3019 0.0
C15 C 0.80729 0.39369 0.36384 0.0
C16 C 0.81907 0.40778 0.4042 0.0
C17 C 0.82667 0.42993 0.38319 0.0
C18 C 0.82116 0.43795 0.32199 0.0
C19 C 0.80974 0.42376 0.28152 0.0
C20 C 0.76433 0.39039 0.21205 0.0
C21 C 0.75383 0.37673 0.1682 0.0
C22 C 0.73474 0.38446 0.13275 0.0
C23 C 0.72623 0.40611 0.14014 0.0
C24 C 0.73595 0.41932 0.18615 0.0
C25 C 0.75472 0.41143 0.2223 0.0
C26 C 0.8161 0.38353 0.18375 0.0
C27 C 0.83779 0.37249 0.1934 0.0
C28 C 0.85785 0.37637 0.15026 0.0
C29 C 0.85652 0.39148 0.09704 0.0
C30 C 0.8345 0.40206 0.08696 0.0
C31 C 0.81457 0.39822 0.13005 0.0
P32 P 0.9735 0.76167 0.18932 0.0
H33 H 0.95949 0.75698 0.32503 0.0
H34 H 0.94015 0.78325 0.39409 0.0
H35 H 0.92167 0.8242 0.22919 0.0
H36 H 0.9395 0.79704 0.16102 0.0
H37 H 0.97649 0.71289 0.20247 0.0
H38 H 0.96318 0.68303 0.13699 0.0
H39 H 0.92627 0.73132 0.01973 0.0
H40 H 0.93961 0.76136 0.08643 0.0
H41 H 0.99264 0.80666 0.20858 0.0
H42 H 0.98903 0.76343 0.05248 0.0
O43 O 0.99459 0.75105 0.23519 0.0
H44 H 0.00751 0.83796 0.13553 0.0
H45 H 0.00373 0.79486 0.97906 0.0
C46 C 0.95165 0.77554 0.23807 0.0
C47 C 0.95044 0.77117 0.30385 0.0
C48 C 0.93956 0.78636 0.34329 0.0
C49 C 0.9302 0.80639 0.31741 0.0
C50 C 0.92877 0.80912 0.25118 0.0
C51 C 0.93914 0.79361 0.21188 0.0
C52 C 0.95945 0.73938 0.14845 0.0
C53 C 0.96514 0.71706 0.16351 0.0
C54 C 0.95736 0.69994 0.12622 0.0
C55 C 0.94381 0.70486 0.07295 0.0
C56 C 0.93687 0.72709 0.0602 0.0
C57 C 0.94441 0.74421 0.09826 0.0
C58 C 0.98862 0.783 0.13566 0.0
C59 C 0.99515 0.80386 0.15862 0.0
C60 C 0.00363 0.82174 0.11691 0.0
C61 C 0.00622 0.81893 0.05155 0.0
C62 C 0.00168 0.7975 0.02921 0.0
C63 C 0.99301 0.7796 0.07111 0.0
P64 P 0.75627 0.05243 0.1782 0.0
H65 H 0.74877 0.05643 0.31467 0.0
H66 H 0.71998 0.03734 0.3924 0.0
H67 H 0.70229 0.98837 0.2573 0.0
H68 H 0.73053 0.0083 0.17856 0.0
H69 H 0.7986 0.07714 0.11959 0.0
H70 H 0.8342 0.06621 0.05774 0.0
H71 H 0.8098 0.99638 0.08677 0.0
H72 H 0.77451 0.00752 0.1513 0.0
H73 H 0.71585 0.08251 0.16914 0.0
H74 H 0.74626 0.02988 0.0622 0.0
O75 O 0.76246 0.0773 0.20744 0.0
H76 H 0.68205 0.08466 0.09856 0.0
H77 H 0.71239 0.03147 0.99281 0.0
C78 C 0.74179 0.03389 0.24058 0.0
C79 C 0.73925 0.04124 0.30214 0.0
C80 C 0.72273 0.03017 0.3469 0.0
C81 C 0.70846 0.0114 0.33109 0.0
C82 C 0.71259 0.00301 0.27082 0.0
C83 C 0.72902 0.01422 0.2259 0.0
C84 C 0.78403 0.04316 0.14089 0.0
C85 C 0.80111 0.05942 0.11388 0.0
C86 C 0.82135 0.05315 0.07764 0.0
C87 C 0.82476 0.03042 0.06641 0.0
C88 C 0.80786 0.01402 0.09482 0.0
C89 C 0.78763 0.02036 0.13173 0.0
C90 C 0.73385 0.0564 0.1201 0.0
C91 C 0.71552 0.07174 0.12971 0.0
C92 C 0.69608 0.07279 0.08975 0.0
C93 C 0.69453 0.05827 0.03993 0.0
C94 C 0.71325 0.04322 0.02985 0.0
C95 C 0.73268 0.04225 0.06969 0.0
P96 P 0.51312 0.70985 0.24571 0.0
H97 H 0.53218 0.7209 0.36688 0.0
H98 H 0.55664 0.69951 0.44092 0.0
H99 H 0.56946 0.65106 0.29983 0.0
H100 H 0.54625 0.67279 0.22633 0.0
H101 H 0.48268 0.74543 0.20285 0.0
H102 H 0.49103 0.78046 0.1392 0.0
H103 H 0.56821 0.76912 0.1386 0.0
H104 H 0.55951 0.73355 0.20182 0.0
H105 H 0.47571 0.67386 0.24027 0.0
H106 H 0.53495 0.70412 0.1194 0.0
O107 O 0.48858 0.7118 0.29451 0.0
H108 H 0.46832 0.64601 0.16247 0.0
H109 H 0.52848 0.67589 0.04282 0.0
C110 C 0.53685 0.69821 0.29165 0.0
C111 C 0.54098 0.70606 0.3514 0.0
C112 C 0.55485 0.69373 0.39378 0.0
C113 C 0.56462 0.67323 0.37706 0.0
C114 C 0.56241 0.66675 0.31468 0.0
C115 C 0.54875 0.67916 0.27239 0.0
C116 C 0.5205 0.73722 0.2082 0.0
C117 C 0.50145 0.75072 0.19028 0.0
C118 C 0.50627 0.77078 0.15387 0.0
C119 C 0.53032 0.77771 0.13421 0.0
C120 C 0.54949 0.76421 0.15285 0.0
C121 C 0.54459 0.74403 0.1895 0.0
C122 C 0.5056 0.69127 0.18506 0.0
C123 C 0.4869 0.6747 0.19656 0.0
C124 C 0.48288 0.65864 0.1523 0.0
C125 C 0.49781 0.65865 0.09628 0.0
C126 C 0.51627 0.67561 0.08466 0.0
C127 C 0.52007 0.69178 0.12858 0.0
P128 P 0.22989 0.5089 0.1788 0.0
H129 H 0.22903 0.48342 0.06498 0.0
H130 H 0.20658 0.4901 0.96953 0.0
H131 H 0.19454 0.55805 0.0202 0.0
H132 H 0.21761 0.55152 0.115 0.0
H133 H 0.27163 0.48311 0.21325 0.0
H134 H 0.30912 0.49337 0.26197 0.0
H135 H 0.29203 0.56359 0.24142 0.0
H136 H 0.25396 0.553 0.19297 0.0
H137 H 0.17812 0.51429 0.16419 0.0
H138 H 0.23003 0.52821 0.30441 0.0
O139 O 0.2262 0.48099 0.19008 0.0
H140 H 0.14584 0.52893 0.23104 0.0
H141 H 0.19769 0.54314 0.37143 0.0
C142 C 0.22434 0.5168 0.09775 0.0
C143 C 0.2226 0.5001 0.0541 0.0
C144 C 0.20983 0.50394 0.99942 0.0
C145 C 0.19854 0.52445 0.98843 0.0
C146 C 0.20302 0.54207 0.02804 0.0
C147 C 0.21622 0.53835 0.08206 0.0
C148 C 0.25991 0.51729 0.20028 0.0
C149 C 0.2761 0.50076 0.2179 0.0
C150 C 0.29769 0.50669 0.2455 0.0
C151 C 0.3035 0.5293 0.25596 0.0
C152 C 0.2879 0.54601 0.2346 0.0
C153 C 0.26628 0.54002 0.20654 0.0
C154 C 0.20669 0.52081 0.22822 0.0
C155 C 0.18272 0.521 0.2087 0.0
C156 C 0.16427 0.52951 0.24682 0.0
C157 C 0.16931 0.53759 0.30597 0.0
C158 C 0.19332 0.53721 0.3258 0.0
C159 C 0.21185 0.52876 0.28734 0.0
P160 P 0.14711 0.21844 0.28816 0.0
H161 H 0.18371 0.19825 0.20673 0.0
H162 H 0.17894 0.17526 0.11614 0.0
H163 H 0.10443 0.19507 0.10584 0.0
H164 H 0.10946 0.21824 0.19534 0.0
H165 H 0.16931 0.26261 0.31008 0.0
H166 H 0.1517 0.29706 0.34626 0.0
H167 H 0.07949 0.26826 0.32666 0.0
H168 H 0.0971 0.23393 0.29061 0.0
H169 H 0.13851 0.16997 0.2764 0.0
H170 H 0.11701 0.21943 0.40738 0.0
O171 O 0.17549 0.21859 0.31255 0.0
H172 H 0.1107 0.14209 0.33315 0.0
H173 H 0.08876 0.19151 0.46358 0.0
C174 C 0.14697 0.21011 0.20778 0.0
C175 C 0.1667 0.19849 0.18321 0.0
C176 C 0.16386 0.1851 0.13184 0.0
C177 C 0.14119 0.18304 0.10447 0.0
C178 C 0.12219 0.19639 0.12545 0.0
C179 C 0.12507 0.20977 0.17679 0.0
C180 C 0.13453 0.24559 0.29831 0.0
C181 C 0.14971 0.2639 0.31203 0.0
C182 C 0.13965 0.2836 0.33262 0.0
C183 C 0.11425 0.28514 0.34012 0.0
C184 C 0.09914 0.26737 0.32201 0.0
C185 C 0.10921 0.24784 0.30076 0.0
C186 C 0.1291 0.19716 0.33576 0.0
C187 C 0.1278 0.17495 0.31712 0.0
C188 C 0.11195 0.15894 0.34974 0.0
C189 C 0.09722 0.16484 0.40177 0.0
C190 C 0.09949 0.18674 0.42254 0.0
C191 C 0.11562 0.20268 0.39037 0.0
P192 P 0.28552 0.04157 0.2554 0.0
H193 H 0.29109 0.06035 0.12428 0.0
H194 H 0.31938 0.05152 0.037 0.0
H195 H 0.33737 0.9906 0.14179 0.0
H196 H 0.30872 0.99913 0.22813 0.0
H197 H 0.24476 0.06991 0.2837 0.0
H198 H 0.20401 0.06182 0.32946 0.0
H199 H 0.21552 0.99047 0.32349 0.0
H200 H 0.25538 0.99903 0.26972 0.0
H201 H 0.32983 0.06082 0.3032 0.0
H202 H 0.28388 0.00087 0.34404 0.0
O203 O 0.28923 0.06955 0.24693 0.0
H204 H 0.35931 0.0459 0.37544 0.0
H205 H 0.31348 0.98585 0.41511 0.0
C206 C 0.2982 0.03071 0.18354 0.0
C207 C 0.30044 0.04468 0.12763 0.0
C208 C 0.31666 0.03965 0.07775 0.0
C209 C 0.33096 0.02065 0.08339 0.0
C210 C 0.32688 0.00557 0.1368 0.0
C211 C 0.31041 0.01044 0.18615 0.0
C212 C 0.25357 0.03505 0.27512 0.0
C213 C 0.23838 0.05249 0.29066 0.0
C214 C 0.21503 0.04778 0.31819 0.0
C215 C 0.20654 0.02542 0.33337 0.0
C216 C 0.22121 0.00794 0.31338 0.0
C217 C 0.24431 0.01277 0.28334 0.0
C218 C 0.30429 0.03225 0.31864 0.0
C219 C 0.32569 0.04475 0.32879 0.0
C220 C 0.34259 0.03618 0.36995 0.0
C221 C 0.33861 0.01473 0.40073 0.0
C222 C 0.31696 0.00242 0.39179 0.0
C223 C 0.29989 0.01116 0.35135 0.0
P224 P 0.42015 0.29829 0.2713 0.0
H225 H 0.38691 0.31354 0.1754 0.0
H226 H 0.39355 0.33786 0.07843 0.0
H227 H 0.47126 0.33615 0.09687 0.0
H228 H 0.46459 0.31228 0.19443 0.0
H229 H 0.39806 0.26033 0.34874 0.0
H230 H 0.41301 0.22358 0.38125 0.0
H231 H 0.47666 0.2364 0.2549 0.0
H232 H 0.46116 0.27289 0.22015 0.0
H233 H 0.40886 0.33883 0.33539 0.0
H234 H 0.46989 0.29581 0.31696 0.0
O235 O 0.39064 0.29965 0.29283 0.0
H236 H 0.43283 0.3637 0.39818 0.0
H237 H 0.49376 0.32038 0.38024 0.0
C238 C 0.42526 0.31099 0.19218 0.0
C239 C 0.40541 0.31793 0.15791 0.0
C240 C 0.40919 0.3319 0.10259 0.0
C241 C 0.4329 0.33892 0.08033 0.0
C242 C 0.4528 0.33077 0.11255 0.0
C243 C 0.44899 0.31705 0.1683 0.0
C244 C 0.42841 0.26938 0.28172 0.0
C245 C 0.4148 0.25499 0.32617 0.0
C246 C 0.42336 0.234 0.34492 0.0
C247 C 0.44597 0.22731 0.32065 0.0
C248 C 0.45915 0.24128 0.27417 0.0
C249 C 0.45025 0.26207 0.2542 0.0
C250 C 0.4373 0.31515 0.32263 0.0
C251 C 0.42723 0.33447 0.34584 0.0
C252 C 0.44095 0.34866 0.3818 0.0
C253 C 0.46514 0.34388 0.39457 0.0
C254 C 0.47521 0.32452 0.37106 0.0
C255 C 0.46142 0.31032 0.33526 0.0
C256 C 0.0239 0.95973 0.76781 0.0
N257 N 0.98429 0.97446 0.60728 0.0
C258 C 0.99634 0.95789 0.57897 0.0
C259 C 0.98427 0.9435 0.54044 0.0
C260 C 0.95937 0.94576 0.53196 0.0
C261 C 0.94723 0.96298 0.56127 0.0
C262 C 0.96021 0.97744 0.59848 0.0
Zn263 Zn 0.00324 0.99253 0.66956 0.0
C264 C 0.97276 0.00255 0.78352 0.0
N265 N 0.04476 0.02619 0.80306 0.0
C266 C 0.06841 0.02232 0.81468 0.0
C267 C 0.03344 0.04407 0.82663 0.0
C268 C 0.04597 0.05912 0.86232 0.0
C269 C 0.07056 0.05598 0.8735 0.0
C270 C 0.08178 0.03719 0.84975 0.0
Zn271 Zn 0.02584 0.00779 0.74163 0.0
O272 O 0.01141 0.96162 0.71891 0.0
C273 C 0.0562 0.99862 0.62713 0.0
O274 O 0.03308 0.97731 0.78999 0.0
H275 H 0.01483 0.04722 0.8158 0.0
H276 H 0.01523 0.95528 0.58781 0.0
H277 H 0.07713 0.0081 0.79519 0.0
O278 O 0.03553 0.992 0.6096 0.0
O279 O 0.05797 0.00561 0.6823 0.0
H280 H 0.9509 0.99062 0.62165 0.0
O281 O 0.01857 0.03804 0.69182 0.0
O282 O 0.99583 0.02349 0.62122 0.0
O283 O 0.99343 0.00969 0.79988 0.0
O284 O 0.97124 0.99408 0.73006 0.0
C285 C 0.00616 0.0406 0.64316 0.0
H286 H 0.9941 0.93011 0.51952 0.0
H287 H 0.92795 0.96508 0.55591 0.0
H288 H 0.03676 0.0736 0.87888 0.0
H289 H 0.10071 0.03417 0.85765 0.0
C290 C 0.48649 0.98581 0.6242 0.0
N291 N 0.51266 0.05184 0.63731 0.0
C292 C 0.5119 0.05197 0.57316 0.0
C293 C 0.50716 0.07161 0.53778 0.0
C294 C 0.50365 0.09166 0.56821 0.0
C295 C 0.50526 0.09121 0.63448 0.0
C296 C 0.50962 0.07098 0.6683 0.0
Zn297 Zn 0.51721 0.02143 0.68446 0.0
C298 C 0.47974 0.01009 0.78749 0.0
N299 N 0.52538 0.95572 0.7695 0.0
C300 C 0.52806 0.93663 0.73798 0.0
C301 C 0.52634 0.95543 0.83364 0.0
C302 C 0.53046 0.93553 0.86861 0.0
C303 C 0.53335 0.91559 0.83752 0.0
C304 C 0.53192 0.91619 0.77138 0.0
Zn305 Zn 0.52062 0.98617 0.72304 0.0
O306 O 0.4932 0.00643 0.62362 0.0
C307 C 0.55789 0.99752 0.61948 0.0
O308 O 0.49513 0.97172 0.66357 0.0
H309 H 0.52396 0.97072 0.85793 0.0
H310 H 0.51451 0.03665 0.54917 0.0
H311 H 0.52731 0.93727 0.68696 0.0
O312 O 0.54724 0.01605 0.62164 0.0
O313 O 0.55018 0.98092 0.65664 0.0
H314 H 0.51034 0.07052 0.71932 0.0
O315 O 0.5459 0.0013 0.78235 0.0
O316 O 0.54128 0.03601 0.74585 0.0
O317 O 0.49094 0.9918 0.78773 0.0
O318 O 0.48705 0.02637 0.74873 0.0
C319 C 0.55141 0.02219 0.78312 0.0
H320 H 0.50565 0.07084 0.48718 0.0
H321 H 0.50309 0.10627 0.66009 0.0
H322 H 0.531 0.93567 0.91966 0.0
H323 H 0.53407 0.90111 0.74581 0.0
C324 C 0.52796 0.47006 0.62576 0.0
N325 N 0.47236 0.51512 0.63953 0.0
C326 C 0.47662 0.51916 0.57591 0.0
C327 C 0.45785 0.52538 0.53773 0.0
C328 C 0.43431 0.52725 0.56496 0.0
C329 C 0.43028 0.52296 0.63073 0.0
C330 C 0.44975 0.517 0.66747 0.0
Zn331 Zn 0.5014 0.50604 0.69022 0.0
C332 C 0.49135 0.46946 0.78572 0.0
N333 N 0.56514 0.48858 0.78424 0.0
C334 C 0.58722 0.48518 0.75525 0.0
C335 C 0.56122 0.48502 0.84804 0.0
C336 C 0.57962 0.47714 0.88515 0.0
C337 C 0.60259 0.47321 0.85677 0.0
C338 C 0.60635 0.47758 0.79086 0.0
Zn339 Zn 0.53606 0.49764 0.73393 0.0
O340 O 0.50978 0.48253 0.62396 0.0
C341 C 0.54607 0.53419 0.63854 0.0
O342 O 0.54306 0.47226 0.66872 0.0
H343 H 0.54356 0.48785 0.87027 0.0
H344 H 0.49462 0.51734 0.55437 0.0
H345 H 0.58991 0.48812 0.70443 0.0
O346 O 0.5232 0.53087 0.63665 0.0
O347 O 0.55786 0.522 0.67653 0.0
H348 H 0.44679 0.51374 0.71814 0.0
O349 O 0.52834 0.52278 0.79809 0.0
O350 O 0.49321 0.52968 0.75773 0.0
O351 O 0.51393 0.4737 0.79082 0.0
O352 O 0.48001 0.4807 0.74454 0.0
C353 C 0.50887 0.53364 0.79816 0.0
H354 H 0.4616 0.52809 0.48707 0.0
H355 H 0.41232 0.52423 0.65336 0.0
H356 H 0.5756 0.47363 0.93543 0.0
H357 H 0.62383 0.47512 0.76697 0.0
C358 C 0.02628 0.51788 0.59139 0.0
N359 N 0.02515 0.44877 0.6369 0.0
C360 C 0.02319 0.44792 0.57326 0.0
C361 C 0.03256 0.43014 0.54118 0.0
C362 C 0.04379 0.4127 0.57478 0.0
C363 C 0.04527 0.41382 0.64073 0.0
C364 C 0.03587 0.43215 0.67094 0.0
Zn365 Zn 0.0122 0.47649 0.67815 0.0
C366 C 0.04768 0.49885 0.75393 0.0
N367 N 0.98497 0.53667 0.74942 0.0
C368 C 0.97331 0.55274 0.71552 0.0
C369 C 0.98878 0.53862 0.81186 0.0
C370 C 0.98126 0.55744 0.84235 0.0
C371 C 0.96958 0.57449 0.80848 0.0
C372 C 0.9653 0.57188 0.74442 0.0
Zn373 Zn 0.99782 0.5088 0.70908 0.0
O374 O 0.02772 0.49675 0.60092 0.0
C375 C 0.96268 0.48628 0.63192 0.0
O376 O 0.01403 0.52881 0.63079 0.0
H377 H 0.99788 0.52559 0.83813 0.0
H378 H 0.01458 0.46125 0.54692 0.0
H379 H 0.97044 0.55082 0.66593 0.0
O380 O 0.9797 0.47245 0.63177 0.0
O381 O 0.96511 0.50424 0.66099 0.0
H382 H 0.03723 0.43315 0.7215 0.0
O383 O 0.98182 0.48815 0.78753 0.0
O384 O 0.99648 0.45672 0.75572 0.0
O385 O 0.03097 0.51301 0.75506 0.0
O386 O 0.04464 0.48083 0.72561 0.0
C387 C 0.98374 0.46696 0.7957 0.0
H388 H 0.03134 0.43032 0.49027 0.0
H389 H 0.05346 0.40063 0.66881 0.0
H390 H 0.98457 0.55865 0.89207 0.0
H391 H 0.95643 0.58473 0.71668 0.0
C392 C 0.17601 0.0356 0.41887 0.0
C393 C 0.18337 0.02061 0.37325 0.0
C394 C 0.15467 0.03144 0.45757 0.0
C395 C 0.14069 0.01126 0.453 0.0
C396 C 0.14799 0.99586 0.40791 0.0
C397 C 0.16897 0.00087 0.36794 0.0
C398 C 0.14726 0.04861 0.50393 0.0
C399 C 0.1338 0.97394 0.40249 0.0
C400 C 0.10039 0.99383 0.60048 0.0
C401 C 0.07748 0.00018 0.58165 0.0
C402 C 0.12092 0.99632 0.55797 0.0
C403 C 0.11862 0.0063 0.49619 0.0
C404 C 0.09544 0.01282 0.47722 0.0
C405 C 0.07507 0.00927 0.51985 0.0
C406 C 0.14516 0.98861 0.57951 0.0
C407 C 0.09234 0.0245 0.41304 0.0
H408 H 0.18712 0.05057 0.42553 0.0
H409 H 0.17402 0.98924 0.33259 0.0
H410 H 0.12787 0.05263 0.49921 0.0
H411 H 0.14906 0.04161 0.55309 0.0
H412 H 0.15856 0.06448 0.49683 0.0
H413 H 0.14221 0.96347 0.36624 0.0
H414 H 0.13264 0.96416 0.44889 0.0
H415 H 0.11489 0.97729 0.38992 0.0
H416 H 0.10218 0.98679 0.64835 0.0
H417 H 0.05737 0.01453 0.50576 0.0
H418 H 0.15783 0.00337 0.58265 0.0
H419 H 0.15351 0.97765 0.54449 0.0
H420 H 0.14342 0.97922 0.62655 0.0
H421 H 0.10279 0.04086 0.40927 0.0
H422 H 0.07296 0.02768 0.40466 0.0
H423 H 0.09974 0.01428 0.37495 0.0
C424 C 0.44408 0.18614 0.35131 0.0
C425 C 0.45674 0.20702 0.34914 0.0
C426 C 0.45297 0.16729 0.38423 0.0
C427 C 0.47464 0.16962 0.41714 0.0
C428 C 0.48766 0.19064 0.41415 0.0
C429 C 0.47867 0.20905 0.37953 0.0
C430 C 0.4389 0.14502 0.38501 0.0
C431 C 0.51051 0.19392 0.44973 0.0
C432 C 0.48097 0.12744 0.55636 0.0
C433 C 0.49748 0.11252 0.53092 0.0
C434 C 0.4739 0.1464 0.52036 0.0
C435 C 0.48308 0.1503 0.4568 0.0
C436 C 0.49992 0.13552 0.43094 0.0
C437 C 0.50719 0.11703 0.46855 0.0
C438 C 0.45626 0.16206 0.55003 0.0
C439 C 0.50986 0.13895 0.36308 0.0
H440 H 0.42709 0.18468 0.32778 0.0
H441 H 0.48821 0.22534 0.37852 0.0
H442 H 0.45115 0.13165 0.37041 0.0
H443 H 0.43154 0.14013 0.43384 0.0
H444 H 0.42349 0.14563 0.35309 0.0
H445 H 0.51899 0.21109 0.44047 0.0
H446 H 0.5061 0.19107 0.50139 0.0
H447 H 0.52405 0.18147 0.43642 0.0
H448 H 0.47303 0.12405 0.604 0.0
H449 H 0.52038 0.106 0.44869 0.0
H450 H 0.43896 0.16162 0.52531 0.0
H451 H 0.46384 0.17964 0.54473 0.0
H452 H 0.45209 0.15752 0.60118 0.0
H453 H 0.49464 0.13852 0.33067 0.0
H454 H 0.52282 0.12591 0.35011 0.0
H455 H 0.51929 0.15573 0.3551 0.0
C456 C 0.32158 0.54927 0.34434 0.0
C457 C 0.3244 0.53481 0.29472 0.0
C458 C 0.3396 0.5515 0.38845 0.0
C459 C 0.36077 0.53882 0.38298 0.0
C460 C 0.36436 0.52528 0.33081 0.0
C461 C 0.34619 0.52354 0.28713 0.0
C462 C 0.3353 0.56637 0.44291 0.0
C463 C 0.38676 0.51157 0.32312 0.0
C464 C 0.41694 0.54945 0.47518 0.0
C465 C 0.41403 0.53234 0.5237 0.0
C466 C 0.39916 0.55255 0.43061 0.0
C467 C 0.37816 0.538 0.4344 0.0
C468 C 0.37464 0.52134 0.48497 0.0
C469 C 0.3926 0.51878 0.52923 0.0
C470 C 0.40334 0.57073 0.37803 0.0
C471 C 0.35251 0.50542 0.49046 0.0
H472 H 0.30472 0.5579 0.35086 0.0
H473 H 0.34863 0.51266 0.24822 0.0
H474 H 0.33136 0.55575 0.48732 0.0
H475 H 0.35183 0.57703 0.44959 0.0
H476 H 0.31974 0.57744 0.43557 0.0
H477 H 0.38759 0.50316 0.27764 0.0
H478 H 0.40349 0.52241 0.32534 0.0
H479 H 0.38681 0.49846 0.36261 0.0
H480 H 0.43342 0.56013 0.47132 0.0
H481 H 0.39041 0.50542 0.56635 0.0
H482 H 0.38689 0.58081 0.37353 0.0
H483 H 0.40679 0.56293 0.33229 0.0
H484 H 0.41913 0.58221 0.38595 0.0
H485 H 0.33562 0.51501 0.48944 0.0
H486 H 0.35179 0.49435 0.53466 0.0
H487 H 0.35272 0.49467 0.44938 0.0
C488 C 0.11101 0.32645 0.35421 0.0
C489 C 0.10357 0.30416 0.37239 0.0
C490 C 0.10143 0.34442 0.38626 0.0
C491 C 0.08439 0.33988 0.43836 0.0
C492 C 0.07698 0.31736 0.45708 0.0
C493 C 0.08654 0.2998 0.42359 0.0
C494 C 0.10945 0.36824 0.36433 0.0
C495 C 0.05917 0.3118 0.51298 0.0
C496 C 0.07599 0.38441 0.55819 0.0
C497 C 0.05405 0.39371 0.54071 0.0
C498 C 0.08607 0.36686 0.52535 0.0
C499 C 0.07413 0.35863 0.4732 0.0
C500 C 0.05207 0.36796 0.45515 0.0
C501 C 0.04218 0.3852 0.48946 0.0
C502 C 0.10949 0.35712 0.54649 0.0
C503 C 0.03887 0.35972 0.39957 0.0
H504 H 0.12415 0.32982 0.31455 0.0
H505 H 0.0811 0.28253 0.43841 0.0
H506 H 0.09338 0.37797 0.35185 0.0
H507 H 0.11813 0.37669 0.40322 0.0
H508 H 0.12257 0.36892 0.32251 0.0
H509 H 0.05551 0.29339 0.52184 0.0
H510 H 0.06639 0.31861 0.55628 0.0
H511 H 0.04166 0.31987 0.50483 0.0
H512 H 0.08552 0.39105 0.59702 0.0
H513 H 0.025 0.39192 0.47622 0.0
H514 H 0.12374 0.35927 0.50739 0.0
H515 H 0.10666 0.33879 0.55835 0.0
H516 H 0.11632 0.36518 0.58851 0.0
H517 H 0.05121 0.36112 0.35628 0.0
H518 H 0.02238 0.36934 0.39016 0.0
H519 H 0.0333 0.34168 0.40862 0.0
C520 C 0.85227 0.03776 0.96861 0.0
C521 C 0.8455 0.02419 0.02366 0.0
C522 C 0.8725 0.03301 0.92931 0.0
C523 C 0.88622 0.01402 0.94474 0.0
C524 C 0.87909 -0.0002 0.99904 0.0
C525 C 0.85886 0.00509 0.03799 0.0
C526 C 0.87948 0.04864 0.87194 0.0
C527 C 0.89315 0.97928 0.01674 0.0
C528 C 0.92828 0.99456 0.81213 0.0
C529 C 0.95075 0.00453 0.82603 0.0
C530 C 0.90724 0.99692 0.85137 0.0
C531 C 0.90864 0.00975 0.90541 0.0
C532 C 0.93133 0.01958 0.92012 0.0
C533 C 0.9521 0.01677 0.88047 0.0
C534 C 0.88342 0.98602 0.83441 0.0
C535 C 0.93358 0.03356 0.97694 0.0
H536 H 0.84174 0.05223 0.95618 0.0
H537 H 0.85388 0.99456 0.08051 0.0
H538 H 0.89797 0.05626 0.87649 0.0
H539 H 0.88012 0.03908 0.82853 0.0
H540 H 0.86656 0.06239 0.86568 0.0
H541 H 0.88432 0.96912 0.05791 0.0
H542 H 0.89492 0.96848 0.97596 0.0
H543 H 0.91184 0.98452 0.02868 0.0
H544 H 0.92709 0.98497 0.77037 0.0
H545 H 0.96935 0.02456 0.89163 0.0
H546 H 0.87029 0.99917 0.82308 0.0
H547 H 0.8753 0.97535 0.87538 0.0
H548 H 0.88566 0.97548 0.79309 0.0
H549 H 0.92225 0.04852 0.97168 0.0
H550 H 0.95269 0.03939 0.9831 0.0
H551 H 0.92667 0.02369 0.02065 0.0
C552 C 0.55136 0.7986 0.03899 0.0
C553 C 0.5349 0.79841 0.09192 0.0
C554 C 0.55387 0.81731 0.99519 0.0
C555 C 0.53945 0.83615 0.00439 0.0
C556 C 0.52342 0.83635 0.05881 0.0
C557 C 0.52146 0.81755 0.10203 0.0
C558 C 0.57137 0.81663 0.93811 0.0
C559 C 0.50776 0.85615 0.07046 0.0
C560 C 0.55396 0.89374 0.92242 0.0
C561 C 0.53709 0.8943 0.87492 0.0
C562 C 0.55584 0.87447 0.96298 0.0
C563 C 0.54026 0.85542 0.95627 0.0
C564 C 0.5239 0.85557 0.90667 0.0
C565 C 0.52261 0.87499 0.86631 0.0
C566 C 0.57378 0.87484 0.01459 0.0
C567 C 0.50686 0.83563 0.89827 0.0
H568 H 0.56165 0.78381 0.03051 0.0
H569 H 0.50905 0.81769 0.14344 0.0
H570 H 0.56104 0.81636 0.89449 0.0
H571 H 0.58355 0.83197 0.93358 0.0
H572 H 0.58274 0.80161 0.94065 0.0
H573 H 0.49666 0.85385 0.11588 0.0
H574 H 0.51933 0.87177 0.07121 0.0
H575 H 0.49528 0.8586 0.03128 0.0
H576 H 0.5654 0.90859 0.92857 0.0
H577 H 0.50945 0.87544 0.82987 0.0
H578 H 0.58476 0.8596 0.01456 0.0
H579 H 0.56377 0.8747 0.06146 0.0
H580 H 0.58631 0.88997 0.00923 0.0
H581 H 0.51719 0.82003 0.89602 0.0
H582 H 0.49655 0.83778 0.8547 0.0
H583 H 0.49365 0.83326 0.93974 0.0
C584 C 0.7146 0.43561 0.06067 0.0
C585 C 0.70851 0.4156 0.09699 0.0
C586 C 0.69821 0.44494 0.01895 0.0
C587 C 0.67501 0.43422 0.01468 0.0
C588 C 0.66879 0.41396 0.05134 0.0
C589 C 0.6858 0.40471 0.09162 0.0
C590 C 0.70569 0.46628 0.9796 0.0
C591 C 0.64404 0.40231 0.04891 0.0
C592 C 0.62436 0.47053 0.95809 0.0
C593 C 0.62208 0.46403 0.8959 0.0
C594 C 0.64137 0.46082 0.99732 0.0
C595 C 0.65698 0.44463 0.97336 0.0
C596 C 0.65536 0.43846 0.91013 0.0
C597 C 0.63777 0.44806 0.87234 0.0
C598 C 0.64241 0.46769 0.06472 0.0
C599 C 0.67206 0.42155 0.88263 0.0
H600 H 0.73236 0.4438 0.06444 0.0
H601 H 0.6812 0.38923 0.11994 0.0
H602 H 0.7037 0.46368 0.92862 0.0
H603 H 0.69358 0.47997 0.99238 0.0
H604 H 0.72482 0.47189 0.98634 0.0
H605 H 0.64214 0.38662 0.08013 0.0
H606 H 0.62966 0.4138 0.06366 0.0
H607 H 0.64073 0.39807 -0.00032 0.0
H608 H 0.61274 0.4832 0.97639 0.0
H609 H 0.63599 0.44266 0.82476 0.0
H610 H 0.66073 0.47511 0.07253 0.0
H611 H 0.63939 0.45267 0.09815 0.0
H612 H 0.62859 0.48014 0.07649 0.0
H613 H 0.69135 0.42695 0.88762 0.0
H614 H 0.66922 0.41936 0.83175 0.0
H615 H 0.66895 0.40499 0.90915 0.0
C616 C 0.94604 0.69169 0.96301 0.0
C617 C 0.93962 0.68723 0.02761 0.0
C618 C 0.94738 0.67417 0.92159 0.0
C619 C 0.9421 0.65172 0.94545 0.0
C620 C 0.93357 0.64739 0.00941 0.0
C621 C 0.9325 0.66521 0.0498 0.0
C622 C 0.95648 0.67951 0.85371 0.0
C623 C 0.92744 0.62374 0.03654 0.0
C624 C 0.93939 0.60367 0.83463 0.0
C625 C 0.96263 0.59505 0.84012 0.0
C626 C 0.93241 0.62237 0.86788 0.0
C627 C 0.94916 0.63267 0.90696 0.0
C628 C 0.97286 0.62437 0.91112 0.0
C629 C 0.97926 0.60567 0.87776 0.0
C630 C 0.907 0.63073 0.86248 0.0
C631 C 0.99139 0.63499 0.95171 0.0
H632 H 0.9517 0.70866 0.94565 0.0
H633 H 0.9272 0.66176 0.09956 0.0
H634 H 0.9756 0.67436 0.84751 0.0
H635 H 0.94553 0.67001 0.8209 0.0
H636 H 0.95595 0.69777 0.83998 0.0
H637 H 0.91772 0.62353 0.08389 0.0
H638 H 0.91598 0.61446 0.00432 0.0
H639 H 0.94449 0.61455 0.04143 0.0
H640 H 0.92646 0.59541 0.80578 0.0
H641 H 0.99737 0.59928 0.88123 0.0
H642 H 0.90772 0.64903 0.8491 0.0
H643 H 0.89682 0.62825 0.90913 0.0
H644 H 0.89672 0.62183 0.82697 0.0
H645 H 0.99425 0.65316 0.93742 0.0
H646 H 0.00925 0.62692 0.94818 0.0
H647 H 0.98454 0.63366 0.00206 0.0
C648 C 0.05515 0.15365 0.44556 0.0
C649 C 0.07948 0.14816 0.43401 0.0
C650 C 0.03813 0.13787 0.47576 0.0
C651 C 0.04584 0.11633 0.4958 0.0
C652 C 0.07037 0.11066 0.48357 0.0
C653 C 0.08684 0.12662 0.45241 0.0
C654 C 0.01203 0.14428 0.48668 0.0
C655 C 0.0794 0.0879 0.50474 0.0
C656 C 0.01776 0.08127 0.63623 0.0
C657 C 0.00844 0.06255 0.6068 0.0
C658 C 0.02824 0.09996 0.60036 0.0
C659 C 0.02899 0.10004 0.53347 0.0
C660 C 0.01686 0.08247 0.50371 0.0
C661 C 0.00673 0.06379 0.54087 0.0
C662 C 0.04095 0.11831 0.63415 0.0
C663 C 0.01669 0.08227 0.4325 0.0
H664 H 0.0494 0.17023 0.43036 0.0
H665 H 0.10568 0.12243 0.44362 0.0
H666 H 0.99955 0.13158 0.46762 0.0
H667 H 0.0074 0.14449 0.53824 0.0
H668 H 0.0086 0.16109 0.4641 0.0
H669 H 0.09897 0.08617 0.49105 0.0
H670 H 0.07684 0.08523 0.55702 0.0
H671 H 0.06871 0.07435 0.48368 0.0
H672 H 0.0188 0.08052 0.68734 0.0
H673 H 0.99946 0.04941 0.51783 0.0
H674 H 0.03672 0.13517 0.61359 0.0
H675 H 0.06096 0.11666 0.62818 0.0
H676 H 0.03577 0.11738 0.68568 0.0
H677 H 0.00226 0.07049 0.4175 0.0
H678 H 0.03455 0.0768 0.41358 0.0
H679 H 0.01389 0.09935 0.41095 0.0
C680 C 0.3689 0.01721 0.48401 0.0
C681 C 0.35784 0.00476 0.43854 0.0
C682 C 0.38899 0.00912 0.51505 0.0
C683 C 0.39847 0.98823 0.49943 0.0
C684 C 0.38668 0.9751 0.45561 0.0
C685 C 0.36637 0.98351 0.4258 0.0
C686 C 0.40081 0.02349 0.56232 0.0
C687 C 0.39632 0.95286 0.43742 0.0
C688 C 0.46575 0.9899 0.52387 0.0
C689 C 0.46628 0.97975 0.58505 0.0
C690 C 0.44398 0.99074 0.49256 0.0
C691 C 0.42217 0.98166 0.52404 0.0
C692 C 0.42305 0.96954 0.58347 0.0
C693 C 0.44528 0.96857 0.61324 0.0
C694 C 0.44398 0.00336 0.42856 0.0
C695 C 0.40021 0.95967 0.6186 0.0
H696 H 0.36211 0.03353 0.49427 0.0
H697 H 0.3579 0.97394 0.39024 0.0
H698 H 0.4034 0.01336 0.60697 0.0
H699 H 0.41908 0.02981 0.54294 0.0
H700 H 0.38986 0.03818 0.57359 0.0
H701 H 0.38316 0.94326 0.41018 0.0
H702 H 0.41348 0.9559 0.40777 0.0
H703 H 0.40065 0.94238 0.48014 0.0
H704 H 0.48207 0.99858 0.50232 0.0
H705 H 0.44568 0.96099 0.66101 0.0
H706 H 0.43585 0.01996 0.43403 0.0
H707 H 0.43277 0.99403 0.39591 0.0
H708 H 0.46268 0.00626 0.40653 0.0
H709 H 0.39013 0.97337 0.64004 0.0
H710 H 0.40442 0.94717 0.65715 0.0
H711 H 0.38799 0.95148 0.58595 0.0
C712 C 0.46963 0.36886 0.48436 0.0
C713 C 0.47993 0.35955 0.43049 0.0
C714 C 0.48238 0.38542 0.51516 0.0
C715 C 0.50606 0.39286 0.4915 0.0
C716 C 0.51711 0.38264 0.43926 0.0
C717 C 0.50388 0.36611 0.40922 0.0
C718 C 0.46998 0.39577 0.57112 0.0
C719 C 0.54236 0.39 0.41301 0.0
C720 C 0.51727 0.45354 0.52582 0.0
C721 C 0.52892 0.45143 0.58305 0.0
C722 C 0.51159 0.43464 0.4924 0.0
C723 C 0.51765 0.41309 0.51708 0.0
C724 C 0.53156 0.41111 0.57151 0.0
C725 C 0.53713 0.43042 0.60397 0.0
C726 C 0.49705 0.43758 0.43405 0.0
C727 C 0.53863 0.38846 0.59874 0.0
H728 H 0.45133 0.3635 0.50171 0.0
H729 H 0.51191 0.35902 0.36741 0.0
H730 H 0.48197 0.39548 0.61171 0.0
H731 H 0.46643 0.41364 0.55833 0.0
H732 H 0.45238 0.38688 0.58663 0.0
H733 H 0.54984 0.37803 0.37947 0.0
H734 H 0.54175 0.40677 0.38751 0.0
H735 H 0.55499 0.39168 0.45182 0.0
H736 H 0.51114 0.46985 0.50926 0.0
H737 H 0.5461 0.42874 0.64834 0.0
H738 H 0.47805 0.43109 0.44529 0.0
H739 H 0.50477 0.42782 0.39534 0.0
H740 H 0.49655 0.45551 0.41663 0.0
H741 H 0.52252 0.3798 0.62445 0.0
H742 H 0.55332 0.39007 0.63251 0.0
H743 H 0.54478 0.37764 0.56061 0.0
C744 C 0.14715 0.53515 0.41198 0.0
C745 C 0.14897 0.54399 0.34906 0.0
C746 C 0.12575 0.53694 0.44978 0.0
C747 C 0.10574 0.54788 0.42397 0.0
C748 C 0.10835 0.55877 0.36268 0.0
C749 C 0.12994 0.55657 0.32567 0.0
C750 C 0.12381 0.52521 0.5152 0.0
C751 C 0.08771 0.57115 0.33424 0.0
C752 C 0.04791 0.51703 0.48659 0.0
C753 C 0.04154 0.52923 0.53905 0.0
C754 C 0.06761 0.52415 0.44506 0.0
C755 C 0.08126 0.54399 0.45643 0.0
C756 C 0.07327 0.55767 0.5053 0.0
C757 C 0.05338 0.55008 0.54636 0.0
C758 C 0.07524 0.50916 0.39302 0.0
C759 C 0.08699 0.57919 0.51796 0.0
H760 H 0.16176 0.52537 0.43028 0.0
H761 H 0.13149 0.56384 0.2774 0.0
H762 H 0.11598 0.53641 0.55028 0.0
H763 H 0.11139 0.51009 0.51513 0.0
H764 H 0.14176 0.5198 0.53094 0.0
H765 H 0.09428 0.58285 0.29364 0.0
H766 H 0.07439 0.55882 0.31687 0.0
H767 H 0.07797 0.58083 0.37018 0.0
H768 H 0.03851 0.50103 0.48053 0.0
H769 H 0.04846 0.55954 0.587 0.0
H770 H 0.09246 0.50114 0.4048 0.0
H771 H 0.07869 0.51917 0.3474 0.0
H772 H 0.06127 0.49566 0.3865 0.0
H773 H 0.10286 0.57514 0.54624 0.0
H774 H 0.07534 0.59047 0.54518 0.0
H775 H 0.09398 0.58832 0.47313 0.0
C776 C 0.02946 0.83828 0.95722 0.0
C777 C 0.01165 0.83875 0.00683 0.0
C778 C 0.03419 0.85707 0.91443 0.0
C779 C 0.02049 0.87654 0.92107 0.0
C780 C 0.00239 0.87698 0.97092 0.0
C781 C 0.99829 0.85813 0.01331 0.0
C782 C 0.0538 0.85613 0.86223 0.0
C783 C 0.98711 0.89728 0.97909 0.0
C784 C 0.04064 0.93492 0.85333 0.0
C785 C 0.02589 0.93744 0.80147 0.0
C786 C 0.04026 0.91459 0.89047 0.0
C787 C 0.02456 0.89649 0.87575 0.0
C788 C 0.01061 0.89854 0.82148 0.0
C789 C 0.01155 0.91896 0.78479 0.0
C790 C 0.05565 0.91292 0.94746 0.0
C791 C 0.99351 0.87968 0.80443 0.0
H792 H 0.03983 0.8233 0.95234 0.0
H793 H 0.98421 0.85838 0.051 0.0
H794 H 0.04579 0.85849 0.81538 0.0
H795 H 0.06757 0.87005 0.86546 0.0
H796 H 0.06314 0.83991 0.86432 0.0
H797 H 0.97371 0.89484 0.02022 0.0
H798 H 0.99901 0.91229 0.98587 0.0
H799 H 0.97708 0.90092 0.93574 0.0
H800 H 0.05196 0.94905 0.86615 0.0
H801 H 0.00016 0.92072 0.74463 0.0
H802 H 0.06552 0.89701 0.94876 0.0
H803 H 0.04372 0.9127 0.99138 0.0
H804 H 0.06913 0.92727 0.94772 0.0
H805 H 0.98598 0.88303 0.75724 0.0
H806 H 0.97812 0.87751 0.84051 0.0
H807 H 0.00296 0.86356 0.80441 0.0
C808 C 0.67517 0.05449 0.93619 0.0
C809 C 0.67272 0.05757 0.00135 0.0
C810 C 0.65466 0.05102 0.90074 0.0
C811 C 0.63111 0.05079 0.9311 0.0
C812 C 0.62844 0.05508 0.99606 0.0
C813 C 0.64929 0.05832 0.0305 0.0
C814 C 0.65825 0.04652 0.8315 0.0
C815 C 0.60363 0.0551 0.02998 0.0
C816 C 0.5773 0.05286 0.82537 0.0
C817 C 0.57052 0.02995 0.82447 0.0
C818 C 0.59664 0.06004 0.86114 0.0
C819 C 0.60954 0.04389 0.89635 0.0
C820 C 0.60239 0.02082 0.89678 0.0
C821 C 0.58294 0.01415 0.86106 0.0
C822 C 0.60362 0.08481 0.86019 0.0
C823 C 0.61571 0.00306 0.93364 0.0
H824 H 0.69321 0.05429 0.91314 0.0
H825 H 0.64719 0.06045 0.08095 0.0
H826 H 0.65219 0.02892 0.82427 0.0
H827 H 0.64697 0.05771 0.80239 0.0
H828 H 0.67759 0.04902 0.81388 0.0
H829 H 0.60453 0.06132 0.0783 0.0
H830 H 0.59127 0.06574 0.00254 0.0
H831 H 0.59542 0.03775 0.03419 0.0
H832 H 0.56776 0.06518 0.79737 0.0
H833 H 0.57782 0.9964 0.86078 0.0
H834 H 0.62222 0.08791 0.83787 0.0
H835 H 0.60402 0.09033 0.90929 0.0
H836 H 0.59084 0.09532 0.83364 0.0
H837 H 0.63499 0.00311 0.91542 0.0
H838 H 0.60742 0.9859 0.93039 0.0
H839 H 0.61575 0.00685 0.9843 0.0
C840 C 0.49064 0.61795 0.07558 0.0
C841 C 0.49531 0.64031 0.05201 0.0
C842 C 0.4905 0.60022 0.03486 0.0
C843 C 0.49555 0.60489 0.96911 0.0
C844 C 0.49948 0.62743 0.94469 0.0
C845 C 0.49911 0.64488 0.98637 0.0
C846 C 0.48594 0.5764 0.06254 0.0
C847 C 0.50508 0.63307 0.87485 0.0
C848 C 0.52463 0.55944 0.87657 0.0
C849 C 0.50505 0.55131 0.84342 0.0
C850 C 0.52172 0.57685 0.91763 0.0
C851 C 0.49857 0.58614 0.92652 0.0
C852 C 0.4786 0.57773 0.89417 0.0
C853 C 0.48212 0.5605 0.85254 0.0
C854 C 0.54354 0.58556 0.95074 0.0
C855 C 0.45357 0.587 0.90335 0.0
H856 H 0.488 0.61416 0.1262 0.0
H857 H 0.50225 0.66211 0.96757 0.0
H858 H 0.47198 0.56751 0.03613 0.0
H859 H 0.50293 0.56703 0.05793 0.0
H860 H 0.47977 0.5758 0.11343 0.0
H861 H 0.50638 0.6515 0.86303 0.0
H862 H 0.52262 0.62583 0.86007 0.0
H863 H 0.49081 0.62548 0.84666 0.0
H864 H 0.54243 0.55249 0.8695 0.0
H865 H 0.46689 0.5542 0.82725 0.0
H866 H 0.53987 0.58379 0.00283 0.0
H867 H 0.54701 0.60374 0.93754 0.0
H868 H 0.56028 0.57651 0.9386 0.0
H869 H 0.44759 0.58553 0.95433 0.0
H870 H 0.43979 0.57812 0.87623 0.0
H871 H 0.45415 0.60515 0.88804 0.0
C872 C 0.8761 0.4011 0.98908 0.0
C873 C 0.87834 0.39778 0.05461 0.0
C874 C 0.89553 0.41041 0.94943 0.0
C875 C 0.91782 0.41635 0.97588 0.0
C876 C 0.92073 0.41172 0.04133 0.0
C877 C 0.9009 0.40255 0.08004 0.0
C878 C 0.89171 0.41502 0.87978 0.0
C879 C 0.94432 0.41758 0.0711 0.0
C880 C 0.97057 0.4307 0.8559 0.0
C881 C 0.96933 0.45418 0.8478 0.0
C882 C 0.95468 0.41815 0.89979 0.0
C883 C 0.93707 0.42936 0.9359 0.0
C884 C 0.93654 0.45313 0.9301 0.0
C885 C 0.95274 0.46525 0.88633 0.0
C886 C 0.95603 0.39286 0.90542 0.0
C887 C 0.91801 0.46572 0.9678 0.0
H888 H 0.85885 0.39706 0.96903 0.0
H889 H 0.90273 0.40019 0.1307 0.0
H890 H 0.89238 0.43346 0.8683 0.0
H891 H 0.90649 0.40785 0.85063 0.0
H892 H 0.87394 0.40792 0.86592 0.0
H893 H 0.94477 0.41011 0.12034 0.0
H894 H 0.96006 0.4117 0.04259 0.0
H895 H 0.94663 0.43613 0.07219 0.0
H896 H 0.98345 0.42201 0.8266 0.0
H897 H 0.95171 0.48339 0.88063 0.0
H898 H 0.93972 0.38508 0.88539 0.0
H899 H 0.95606 0.38673 0.95592 0.0
H900 H 0.97253 0.38698 0.87989 0.0
H901 H 0.89943 0.46119 0.9534 0.0
H902 H 0.92102 0.48427 0.96074 0.0
H903 H 0.91863 0.46087 0.01906 0.0
C904 C 0.14373 0.14296 0.07664 0.0
C905 C 0.13614 0.16477 0.06148 0.0
C906 C 0.13582 0.12464 0.04325 0.0
C907 C 0.11991 0.12819 0.99353 0.0
C908 C 0.11328 0.15033 0.97563 0.0
C909 C 0.12144 0.16836 0.00992 0.0
C910 C 0.14328 0.1013 0.06388 0.0
C911 C 0.09649 0.15483 0.92248 0.0
C912 C 0.10707 0.08186 0.88204 0.0
C913 C 0.08441 0.07299 0.90721 0.0
C914 C 0.1191 0.09965 0.91007 0.0
C915 C 0.10823 0.10863 0.96465 0.0
C916 C 0.08573 0.09922 0.99136 0.0
C917 C 0.07409 0.08156 0.96223 0.0
C918 C 0.14305 0.10928 0.88027 0.0
C919 C 0.07367 0.10812 0.05 0.0
H920 H 0.15477 0.13995 0.11703 0.0
H921 H 0.11571 0.18521 0.99762 0.0
H922 H 0.12729 0.09153 0.08666 0.0
H923 H 0.14972 0.09221 0.02236 0.0
H924 H 0.15791 0.10166 0.09814 0.0
H925 H 0.09507 0.17311 0.91027 0.0
H926 H 0.10298 0.14657 0.87948 0.0
H927 H 0.07801 0.14757 0.93659 0.0
H928 H 0.11498 0.07544 0.8391 0.0
H929 H 0.05669 0.07457 0.98214 0.0
H930 H 0.1571 0.1094 0.91603 0.0
H931 H 0.14093 0.12699 0.86283 0.0
H932 H 0.14971 0.09963 0.83997 0.0
H933 H 0.08629 0.10749 0.08925 0.0
H934 H 0.05659 0.09843 0.06596 0.0
H935 H 0.06931 0.12599 0.04046 0.0
C936 C 0.37529 0.0155 0.06105 0.0
C937 C 0.35203 0.01808 0.03806 0.0
C938 C 0.39589 0.01455 0.01956 0.0
C939 C 0.39317 0.01579 0.95332 0.0
C940 C 0.36965 0.01806 0.92977 0.0
C941 C 0.34937 0.01948 0.97247 0.0
C942 C 0.42065 0.01255 0.04668 0.0
C943 C 0.36593 0.01893 0.85954 0.0
C944 C 0.44912 0.03279 0.84504 0.0
C945 C 0.45763 0.01179 0.82974 0.0
C946 C 0.42811 0.03438 0.88503 0.0
C947 C 0.41498 0.0145 0.90902 0.0
C948 C 0.42325 0.99328 0.89259 0.0
C949 C 0.44459 0.99218 0.85381 0.0
C950 C 0.42019 0.0573 0.9025 0.0
C951 C 0.40955 0.9717 0.91605 0.0
H952 H 0.37744 0.01483 0.11174 0.0
H953 H 0.3314 0.0215 0.95468 0.0
H954 H 0.42905 0.99692 0.03198 0.0
H955 H 0.43289 0.02689 0.02784 0.0
H956 H 0.41971 0.0123 0.09926 0.0
H957 H 0.34643 0.02014 0.84896 0.0
H958 H 0.37629 0.03364 0.83562 0.0
H959 H 0.37305 0.00365 0.83883 0.0
H960 H 0.45913 0.048 0.82659 0.0
H961 H 0.45088 0.97588 0.8415 0.0
H962 H 0.42014 0.0584 0.95465 0.0
H963 H 0.40131 0.0599 0.88835 0.0
H964 H 0.43229 0.07111 0.87964 0.0
H965 H 0.40949 0.96975 0.96848 0.0
H966 H 0.41765 0.95665 0.89624 0.0
H967 H 0.39028 0.97229 0.9031 0.0
C968 C 0.45467 0.35445 0.9794 0.0
C969 C 0.43693 0.35664 0.02828 0.0
C970 C 0.46084 0.3724 0.93482 0.0
C971 C 0.44935 0.39315 0.94018 0.0
C972 C 0.43065 0.39509 0.98776 0.0
C973 C 0.42455 0.37675 0.03101 0.0
C974 C 0.48057 0.36954 0.88403 0.0
C975 C 0.41821 0.417 0.99574 0.0
C976 C 0.4886 0.44488 0.88494 0.0
C977 C 0.47907 0.45106 0.82659 0.0
C978 C 0.47865 0.42641 0.92284 0.0
C979 C 0.45896 0.41348 0.90131 0.0
C980 C 0.449 0.4198 0.84275 0.0
C981 C 0.45904 0.43872 0.80626 0.0
C982 C 0.48951 0.42054 0.98556 0.0
C983 C 0.42829 0.40619 0.81784 0.0
H984 H 0.46411 0.33884 0.97699 0.0
H985 H 0.41102 0.37858 0.06922 0.0
H986 H 0.47472 0.37591 0.83712 0.0
H987 H 0.49717 0.37953 0.89428 0.0
H988 H 0.48541 0.35167 0.88115 0.0
H989 H 0.4023 0.41505 0.03037 0.0
H990 H 0.43138 0.42958 0.01261 0.0
H991 H 0.412 0.42386 0.94973 0.0
H992 H 0.504 0.45447 0.90096 0.0
H993 H 0.45181 0.44335 0.76084 0.0
H994 H 0.49749 0.40372 0.98475 0.0
H995 H 0.4751 0.41967 0.02435 0.0
H996 H 0.50398 0.43298 0.99674 0.0
H997 H 0.4342 0.38894 0.80967 0.0
H998 H 0.42198 0.41383 0.77272 0.0
H999 H 0.41267 0.40453 0.85329 0.0
C1000 C 0.1809 0.51999 0.88282 0.0
C1001 C 0.17803 0.52537 0.94617 0.0
C1002 C 0.16053 0.51742 0.84603 0.0
C1003 C 0.13686 0.51946 0.87428 0.0
C1004 C 0.13401 0.52546 0.93784 0.0
C1005 C 0.15467 0.52861 0.97273 0.0
C1006 C 0.16428 0.51176 0.77776 0.0
C1007 C 0.1091 0.52726 0.97025 0.0
C1008 C 0.08035 0.52611 0.78069 0.0
C1009 C 0.07086 0.50391 0.78287 0.0
C1010 C 0.1025 0.53129 0.80754 0.0
C1011 C 0.11492 0.51395 0.83923 0.0
C1012 C 0.10542 0.49146 0.84125 0.0
C1013 C 0.08368 0.48665 0.81196 0.0
C1014 C 0.11246 0.55533 0.80261 0.0
C1015 C 0.11777 0.4726 0.87616 0.0
H1016 H 0.19901 0.51736 0.86261 0.0
H1017 H 0.15246 0.53232 0.02221 0.0
H1018 H 0.15781 0.49416 0.77244 0.0
H1019 H 0.15346 0.5228 0.74688 0.0
H1020 H 0.18374 0.51359 0.76084 0.0
H1021 H 0.1101 0.5327 0.01938 0.0
H1022 H 0.09827 0.53941 0.94302 0.0
H1023 H 0.09912 0.51068 0.97201 0.0
H1024 H 0.07058 0.5394 0.75716 0.0
H1025 H 0.07628 0.46948 0.81352 0.0
H1026 H 0.13175 0.55606 0.78422 0.0
H1027 H 0.11207 0.56214 0.85028 0.0
H1028 H 0.10186 0.56637 0.7711 0.0
H1029 H 0.13681 0.47153 0.857 0.0
H1030 H 0.10816 0.45602 0.87267 0.0
H1031 H 0.11854 0.47607 0.92697 0.0
C1032 C 0.90865 0.84169 0.34352 0.0
C1033 C 0.92623 0.82585 0.35746 0.0
C1034 C 0.90835 0.8623 0.37272 0.0
C1035 C 0.92596 0.8671 0.41701 0.0
C1036 C 0.94249 0.85051 0.43479 0.0
C1037 C 0.94251 0.83022 0.40465 0.0
C1038 C 0.89027 0.87946 0.35301 0.0
C1039 C 0.96147 0.85481 0.48231 0.0
C1040 C 0.95532 0.92434 0.43547 0.0
C1041 C 0.94631 0.92895 0.49615 0.0
C1042 C 0.947 0.9052 0.40635 0.0
C1043 C 0.92952 0.89016 0.43928 0.0
C1044 C 0.91886 0.89578 0.4983 0.0
C1045 C 0.92737 0.91524 0.52607 0.0
C1046 C 0.95855 0.90009 0.34283 0.0
C1047 C 0.90012 0.88028 0.53477 0.0
H1048 H 0.8957 0.83837 0.30798 0.0
H1049 H 0.95648 0.81845 0.41535 0.0
H1050 H 0.8826 0.88777 0.39469 0.0
H1051 H 0.89967 0.89272 0.32063 0.0
H1052 H 0.87508 0.87178 0.32796 0.0
H1053 H 0.97123 0.8394 0.49582 0.0
H1054 H 0.97507 0.86781 0.46184 0.0
H1055 H 0.95294 0.86129 0.52584 0.0
H1056 H 0.96986 0.9351 0.41225 0.0
H1057 H 0.92048 0.91879 0.5732 0.0
H1058 H 0.94445 0.89473 0.31061 0.0
H1059 H 0.97102 0.886 0.34928 0.0
H1060 H 0.96918 0.91483 0.31975 0.0
H1061 H 0.88676 0.87337 0.50277 0.0
H1062 H 0.89019 0.88898 0.57262 0.0
H1063 H 0.90936 0.86587 0.55727 0.0
C1064 C 0.66499 0.99709 0.34965 0.0
C1065 C 0.68753 0.00262 0.37436 0.0
C1066 C 0.64398 0.9926 0.38955 0.0
C1067 C 0.64538 0.99398 0.45578 0.0
C1068 C 0.6683 0.99808 0.48138 0.0
C1069 C 0.6891 0.00219 0.44042 0.0
C1070 C 0.61996 0.988 0.36031 0.0
C1071 C 0.67061 0.99972 0.55172 0.0
C1072 C 0.59007 0.01561 0.54385 0.0
C1073 C 0.57976 0.99601 0.57613 0.0
C1074 C 0.61136 0.01506 0.50481 0.0
C1075 C 0.6226 0.99434 0.49698 0.0
C1076 C 0.61214 0.97439 0.52853 0.0
C1077 C 0.59089 0.97547 0.56811 0.0
C1078 C 0.62197 0.03679 0.47246 0.0
C1079 C 0.62342 0.95195 0.52059 0.0
H1080 H 0.66337 0.99756 0.29881 0.0
H1081 H 0.70648 0.00595 0.46015 0.0
H1082 H 0.60959 0.97383 0.38687 0.0
H1083 H 0.60876 0.00306 0.36272 0.0
H1084 H 0.62246 0.98397 0.30987 0.0
H1085 H 0.68992 0.00027 0.56476 0.0
H1086 H 0.66207 0.01525 0.56688 0.0
H1087 H 0.66086 0.98525 0.57854 0.0
H1088 H 0.58171 0.03159 0.54982 0.0
H1089 H 0.58303 0.96024 0.59278 0.0
H1090 H 0.6229 0.03555 0.42032 0.0
H1091 H 0.64085 0.0399 0.48694 0.0
H1092 H 0.61111 0.05151 0.48392 0.0
H1093 H 0.62486 0.94844 0.46967 0.0
H1094 H 0.61272 0.93791 0.54702 0.0
H1095 H 0.64218 0.9524 0.53751 0.0
C1096 C 0.55963 0.65347 0.48471 0.0
C1097 C 0.57288 0.65665 0.4262 0.0
C1098 C 0.56197 0.63403 0.52417 0.0
C1099 C 0.57773 0.61725 0.50439 0.0
C1100 C 0.59334 0.62161 0.4495 0.0
C1101 C 0.5908 0.64135 0.41109 0.0
C1102 C 0.54537 0.63031 0.5832 0.0
C1103 C 0.61087 0.60443 0.42766 0.0
C1104 C 0.57762 0.56571 0.61949 0.0
C1105 C 0.55793 0.55303 0.59866 0.0
C1106 C 0.58558 0.58619 0.58702 0.0
C1107 C 0.57359 0.59387 0.53261 0.0
C1108 C 0.55502 0.58011 0.50885 0.0
C1109 C 0.54737 0.55995 0.54234 0.0
C1110 C 0.60556 0.60023 0.61359 0.0
C1111 C 0.54198 0.58737 0.45036 0.0
H1112 H 0.54573 0.66506 0.49729 0.0
H1113 H 0.60169 0.64398 0.36696 0.0
H1114 H 0.53026 0.61824 0.57421 0.0
H1115 H 0.55536 0.62297 0.62314 0.0
H1116 H 0.53736 0.6462 0.59763 0.0
H1117 H 0.62535 0.61218 0.39389 0.0
H1118 H 0.61951 0.59601 0.46843 0.0
H1119 H 0.60076 0.59129 0.40334 0.0
H1120 H 0.58579 0.56037 0.66314 0.0
H1121 H 0.53236 0.54998 0.52569 0.0
H1122 H 0.59728 0.61323 0.64233 0.0
H1123 H 0.61742 0.60903 0.57523 0.0
H1124 H 0.61697 0.58982 0.64465 0.0
H1125 H 0.53111 0.60223 0.46003 0.0
H1126 H 0.5295 0.57385 0.43519 0.0
H1127 H 0.55531 0.59237 0.4105 0.0
C1128 C 0.839 0.44278 0.48842 0.0
C1129 C 0.84255 0.44365 0.42219 0.0
C1130 C 0.8562 0.45275 0.52598 0.0
C1131 C 0.87733 0.46394 0.49649 0.0
C1132 C 0.88006 0.46635 0.42962 0.0
C1133 C 0.86274 0.45606 0.39332 0.0
C1134 C 0.85262 0.44988 0.5972 0.0
C1135 C 0.90228 0.47823 0.39629 0.0
C1136 C 0.92235 0.49673 0.59027 0.0
C1137 C 0.94025 0.48085 0.59933 0.0
C1138 C 0.90139 0.49142 0.55787 0.0
C1139 C 0.89832 0.46975 0.53462 0.0
C1140 C 0.9161 0.45356 0.54496 0.0
C1141 C 0.93683 0.45933 0.57691 0.0
C1142 C 0.88282 0.5091 0.54733 0.0
C1143 C 0.91348 0.43019 0.52125 0.0
H1144 H 0.8232 0.43362 0.51107 0.0
H1145 H 0.86589 0.45666 0.34229 0.0
H1146 H 0.86534 0.43733 0.61554 0.0
H1147 H 0.85683 0.46593 0.61913 0.0
H1148 H 0.83373 0.44397 0.61256 0.0
H1149 H 0.89993 0.48162 0.34484 0.0
H1150 H 0.90643 0.49441 0.41759 0.0
H1151 H 0.91828 0.46761 0.40189 0.0
H1152 H 0.92489 0.51337 0.6076 0.0
H1153 H 0.95044 0.44687 0.58417 0.0
H1154 H 0.8644 0.50239 0.56423 0.0
H1155 H 0.88215 0.51362 0.49587 0.0
H1156 H 0.88708 0.52461 0.57194 0.0
H1157 H 0.89592 0.42195 0.53974 0.0
H1158 H 0.92848 0.41932 0.53558 0.0
H1159 H 0.91335 0.43124 0.46877 0.0
loop_
_geom_bond_atom_site_label_1
_geom_bond_atom_site_label_2
_geom_bond_distance
_geom_bond_site_symmetry_2
_ccdc_geom_bond_type
P0 O11 1.490 . S
P0 C14 1.812 . S
P0 C20 1.803 . S
P0 C26 1.819 . S
H1 C15 0.941 . S
H2 C16 0.939 . S
H3 C18 0.940 . S
H4 C19 0.940 . S
H5 C21 0.939 . S
H6 C22 0.942 . S
H7 C24 0.940 . S
H8 C25 0.939 . S
H9 C27 0.941 . S
H10 C31 0.939 . S
O11 P0 1.490 . S
H12 C28 0.939 . S
H13 C30 0.940 1_556 S
C14 P0 1.812 . S
C14 C15 1.389 . S
C14 C19 1.391 . S
C15 H1 0.941 . S
C15 C14 1.389 . S
C15 C16 1.397 . S
C16 H2 0.939 . S
C16 C15 1.397 . S
C16 C17 1.378 . S
C17 C16 1.378 . S
C17 C18 1.378 . S
C18 H3 0.940 . S
C18 C17 1.378 . S
C18 C19 1.396 . S
C19 H4 0.940 . S
C19 C14 1.391 . S
C19 C18 1.396 . S
C20 P0 1.803 . S
C20 C21 1.378 . S
C20 C25 1.400 . S
C21 H5 0.939 . S
C21 C20 1.378 . S
C21 C22 1.361 . S
C22 H6 0.942 . S
C22 C21 1.361 . S
C22 C23 1.369 . S
C23 C22 1.369 . S
C23 C24 1.404 . S
C24 H7 0.940 . S
C24 C23 1.404 . S
C24 C25 1.389 . S
C25 H8 0.939 . S
C25 C20 1.400 . S
C25 C24 1.389 . S
C26 P0 1.819 . S
C26 C27 1.391 . S
C26 C31 1.391 . S
C27 H9 0.941 . S
C27 C26 1.391 . S
C27 C28 1.396 . S
C28 H12 0.939 . S
C28 C27 1.396 . S
C28 C29 1.397 . S
C29 C28 1.397 . S
C29 C30 1.385 . S
C30 H13 0.940 1_554 S
C30 C29 1.385 . S
C30 C31 1.388 . S
C31 H10 0.939 . S
C31 C26 1.391 . S
C31 C30 1.388 . S
P32 O43 1.491 1_554 S
P32 C46 1.820 . S
P32 C52 1.801 1_554 S
P32 C58 1.812 1_554 S
H33 C47 0.941 . S
H34 C48 0.939 . S
H35 C50 0.940 . S
H36 C51 0.940 . S
H37 C53 0.939 . S
H38 C54 0.942 . S
H39 C56 0.940 1_554 S
H40 C57 0.939 . S
H41 C59 0.941 . S
H42 C63 0.939 . S
O43 P32 1.491 1_556 S
H44 C60 0.939 . S
H45 C62 0.940 . S
C46 P32 1.820 . S
C46 C47 1.389 . S
C46 C51 1.391 . S
C47 H33 0.941 . S
C47 C46 1.389 . S
C47 C48 1.397 . S
C48 H34 0.939 . S
C48 C47 1.397 . S
C48 C49 1.378 . S
C49 C48 1.378 . S
C49 C50 1.378 . S
C50 H35 0.940 . S
C50 C49 1.378 . S
C50 C51 1.396 . S
C51 H36 0.940 . S
C51 C46 1.391 . S
C51 C50 1.396 . S
C52 P32 1.801 1_556 S
C52 C53 1.378 . S
C52 C57 1.400 1_556 S
C53 H37 0.939 . S
C53 C52 1.378 . S
C53 C54 1.361 . S
C54 H38 0.942 . S
C54 C53 1.361 . S
C54 C55 1.369 . S
C55 C54 1.369 . S
C55 C56 1.404 . S
C56 H39 0.940 1_556 S
C56 C55 1.404 . S
C56 C57 1.389 1_556 S
C57 H40 0.939 . S
C57 C52 1.400 1_554 S
C57 C56 1.389 1_554 S
C58 P32 1.812 1_556 S
C58 C59 1.391 . S
C58 C63 1.391 . S
C59 H41 0.941 . S
C59 C58 1.391 . S
C59 C60 1.396 . S
C60 H44 0.939 . S
C60 C59 1.396 . S
C60 C61 1.397 . S
C61 C60 1.397 . S
C61 C62 1.385 . S
C62 H45 0.940 . S
C62 C61 1.385 . S
C62 C63 1.388 . S
C63 H42 0.939 . S
C63 C58 1.391 . S
C63 C62 1.388 . S
P64 O75 1.490 . S
P64 C78 1.812 . S
P64 C84 1.803 . S
P64 C90 1.819 . S
H65 C79 0.941 . S
H66 C80 0.939 . S
H67 C82 0.940 . S
H68 C83 0.951 . S
H69 C85 0.939 . S
H70 C86 0.942 1_556 S
H71 C88 0.940 . S
H72 C89 0.957 . S
H73 C91 0.941 . S
H74 C95 0.928 1_565 S
O75 P64 1.490 . S
H76 C92 0.939 . S
H77 C94 0.940 . S
C78 P64 1.812 . S
C78 C79 1.389 . S
C78 C83 1.375 1_545 S
C79 H65 0.941 . S
C79 C78 1.389 . S
C79 C80 1.397 . S
C80 H66 0.939 . S
C80 C79 1.397 . S
C80 C81 1.378 . S
C81 C80 1.378 . S
C81 C82 1.378 1_545 S
C82 H67 0.940 . S
C82 C81 1.378 1_565 S
C82 C83 1.401 . S
C83 H68 0.951 . S
C83 C78 1.375 1_565 S
C83 C82 1.401 . S
C84 P64 1.803 . S
C84 C85 1.378 . S
C84 C89 1.369 1_545 S
C85 H69 0.939 . S
C85 C84 1.378 . S
C85 C86 1.361 . S
C86 H70 0.942 1_554 S
C86 C85 1.361 . S
C86 C87 1.369 . S
C87 C86 1.369 . S
C87 C88 1.404 1_545 S
C88 H71 0.940 . S
C88 C87 1.404 1_565 S
C88 C89 1.404 . S
C89 H72 0.957 . S
C89 C84 1.369 1_565 S
C89 C88 1.404 . S
C90 P64 1.819 . S
C90 C91 1.391 . S
C90 C95 1.391 1_554 S
C91 H73 0.941 . S
C91 C90 1.391 . S
C91 C92 1.396 1_554 S
C92 H76 0.939 . S
C92 C91 1.396 1_556 S
C92 C93 1.397 . S
C93 C92 1.397 . S
C93 C94 1.385 1_545 S
C94 H77 0.940 . S
C94 C93 1.385 1_565 S
C94 C95 1.388 1_565 S
C95 H74 0.928 1_545 S
C95 C90 1.391 1_556 S
C95 C94 1.388 1_545 S
P96 O107 1.490 . S
P96 C110 1.812 . S
P96 C116 1.803 . S
P96 C122 1.819 . S
H97 C111 0.941 . S
H98 C112 0.939 . S
H99 C114 0.940 . S
H100 C115 0.940 . S
H101 C117 0.939 . S
H102 C118 0.942 . S
H103 C120 0.940 . S
H104 C121 0.939 . S
H105 C123 0.941 . S
H106 C127 0.939 . S
O107 P96 1.490 . S
H108 C124 0.939 . S
H109 C126 0.940 . S
C110 P96 1.812 . S
C110 C111 1.389 . S
C110 C115 1.391 . S
C111 H97 0.941 . S
C111 C110 1.389 . S
C111 C112 1.397 . S
C112 H98 0.939 . S
C112 C111 1.397 . S
C112 C113 1.378 . S
C113 C112 1.378 . S
C113 C114 1.378 . S
C114 H99 0.940 . S
C114 C113 1.378 . S
C114 C115 1.396 . S
C115 H100 0.940 . S
C115 C110 1.391 . S
C115 C114 1.396 . S
C116 P96 1.803 . S
C116 C117 1.378 . S
C116 C121 1.400 . S
C117 H101 0.939 . S
C117 C116 1.378 . S
C117 C118 1.361 . S
C118 H102 0.942 . S
C118 C117 1.361 . S
C118 C119 1.369 . S
C119 C118 1.369 . S
C119 C120 1.404 . S
C120 H103 0.940 . S
C120 C119 1.404 . S
C120 C121 1.389 . S
C121 H104 0.939 . S
C121 C116 1.400 . S
C121 C120 1.389 . S
C122 P96 1.819 . S
C122 C123 1.391 . S
C122 C127 1.391 1_554 S
C123 H105 0.941 . S
C123 C122 1.391 . S
C123 C124 1.396 . S
C124 H108 0.939 . S
C124 C123 1.396 . S
C124 C125 1.397 1_554 S
C125 C124 1.397 1_556 S
C125 C126 1.385 . S
C126 H109 0.940 . S
C126 C125 1.385 . S
C126 C127 1.388 . S
C127 H106 0.939 . S
C127 C122 1.391 1_556 S
C127 C126 1.388 . S
P128 O139 1.490 . S
P128 C142 1.812 . S
P128 C148 1.803 . S
P128 C154 1.819 . S
H129 C143 0.941 . S
H130 C144 0.939 . S
H131 C146 0.940 . S
H132 C147 0.940 . S
H133 C149 0.939 . S
H134 C150 0.942 . S
H135 C152 0.940 . S
H136 C153 0.939 . S
H137 C155 0.941 . S
H138 C159 0.939 . S
O139 P128 1.490 . S
H140 C156 0.939 . S
H141 C158 0.940 . S
C142 P128 1.812 . S
C142 C143 1.389 . S
C142 C147 1.391 . S
C143 H129 0.941 . S
C143 C142 1.389 . S
C143 C144 1.397 . S
C144 H130 0.939 . S
C144 C143 1.397 . S
C144 C145 1.378 . S
C145 C144 1.378 . S
C145 C146 1.378 . S
C146 H131 0.940 . S
C146 C145 1.378 . S
C146 C147 1.396 . S
C147 H132 0.940 . S
C147 C142 1.391 . S
C147 C146 1.396 . S
C148 P128 1.803 . S
C148 C149 1.378 . S
C148 C153 1.400 . S
C149 H133 0.939 . S
C149 C148 1.378 . S
C149 C150 1.361 . S
C150 H134 0.942 . S
C150 C149 1.361 . S
C150 C151 1.369 . S
C151 C150 1.369 . S
C151 C152 1.404 . S
C152 H135 0.940 . S
C152 C151 1.404 . S
C152 C153 1.389 . S
C153 H136 0.939 . S
C153 C148 1.400 . S
C153 C152 1.389 . S
C154 P128 1.819 . S
C154 C155 1.391 . S
C154 C159 1.391 . S
C155 H137 0.941 . S
C155 C154 1.391 . S
C155 C156 1.396 . S
C156 H140 0.939 . S
C156 C155 1.396 . S
C156 C157 1.397 . S
C157 C156 1.397 . S
C157 C158 1.385 . S
C158 H141 0.940 . S
C158 C157 1.385 . S
C158 C159 1.388 . S
C159 H138 0.939 . S
C159 C154 1.391 . S
C159 C158 1.388 . S
P160 O171 1.490 . S
P160 C174 1.812 . S
P160 C180 1.803 . S
P160 C186 1.819 . S
H161 C175 0.941 . S
H162 C176 0.939 . S
H163 C178 0.940 . S
H164 C179 0.940 . S
H165 C181 0.939 . S
H166 C182 0.942 . S
H167 C184 0.940 . S
H168 C185 0.939 . S
H169 C187 0.941 . S
H170 C191 0.939 . S
O171 P160 1.490 . S
H172 C188 0.939 . S
H173 C190 0.940 . S
C174 P160 1.812 . S
C174 C175 1.389 . S
C174 C179 1.391 . S
C175 H161 0.941 . S
C175 C174 1.389 . S
C175 C176 1.397 . S
C176 H162 0.939 . S
C176 C175 1.397 . S
C176 C177 1.378 . S
C177 C176 1.378 . S
C177 C178 1.378 . S
C178 H163 0.940 . S
C178 C177 1.378 . S
C178 C179 1.396 . S
C179 H164 0.940 . S
C179 C174 1.391 . S
C179 C178 1.396 . S
C180 P160 1.803 . S
C180 C181 1.378 . S
C180 C185 1.400 . S
C181 H165 0.939 . S
C181 C180 1.378 . S
C181 C182 1.361 . S
C182 H166 0.942 . S
C182 C181 1.361 . S
C182 C183 1.369 . S
C183 C182 1.369 . S
C183 C184 1.404 . S
C184 H167 0.940 . S
C184 C183 1.404 . S
C184 C185 1.389 . S
C185 H168 0.939 . S
C185 C180 1.400 . S
C185 C184 1.389 . S
C186 P160 1.819 . S
C186 C187 1.391 . S
C186 C191 1.391 . S
C187 H169 0.941 . S
C187 C186 1.391 . S
C187 C188 1.396 . S
C188 H172 0.939 . S
C188 C187 1.396 . S
C188 C189 1.397 . S
C189 C188 1.397 . S
C189 C190 1.385 . S
C190 H173 0.940 . S
C190 C189 1.385 . S
C190 C191 1.388 . S
C191 H170 0.939 . S
C191 C186 1.391 . S
C191 C190 1.388 . S
P192 O203 1.490 . S
P192 C206 1.812 . S
P192 C212 1.803 . S
P192 C218 1.819 . S
H193 C207 0.941 . S
H194 C208 0.939 . S
H195 C210 0.940 . S
H196 C211 0.943 . S
H197 C213 0.939 . S
H198 C214 0.942 . S
H199 C216 0.940 . S
H200 C217 0.953 . S
H201 C219 0.941 . S
H202 C223 0.934 1_565 S
O203 P192 1.490 . S
H204 C220 0.939 . S
H205 C222 0.940 . S
C206 P192 1.812 . S
C206 C207 1.389 . S
C206 C211 1.386 1_545 S
C207 H193 0.941 . S
C207 C206 1.389 . S
C207 C208 1.397 . S
C208 H194 0.939 . S
C208 C207 1.397 . S
C208 C209 1.378 . S
C209 C208 1.378 . S
C209 C210 1.378 1_545 S
C210 H195 0.940 . S
C210 C209 1.378 1_565 S
C210 C211 1.399 . S
C211 H196 0.943 . S
C211 C206 1.386 1_565 S
C211 C210 1.399 . S
C212 P192 1.803 . S
C212 C213 1.378 . S
C212 C217 1.379 1_545 S
C213 H197 0.939 . S
C213 C212 1.378 . S
C213 C214 1.361 . S
C214 H198 0.942 . S
C214 C213 1.361 . S
C214 C215 1.369 . S
C215 C214 1.369 . S
C215 C216 1.404 1_545 S
C216 H199 0.940 . S
C216 C215 1.404 1_565 S
C216 C217 1.396 . S
C217 H200 0.953 . S
C217 C212 1.379 1_565 S
C217 C216 1.396 . S
C218 P192 1.819 . S
C218 C219 1.391 . S
C218 C223 1.391 . S
C219 H201 0.941 . S
C219 C218 1.391 . S
C219 C220 1.396 . S
C220 H204 0.939 . S
C220 C219 1.396 . S
C220 C221 1.397 . S
C221 C220 1.397 . S
C221 C222 1.385 1_545 S
C222 H205 0.940 . S
C222 C221 1.385 1_565 S
C222 C223 1.388 1_565 S
C223 H202 0.934 1_545 S
C223 C218 1.391 . S
C223 C222 1.388 1_545 S
P224 O235 1.490 . S
P224 C238 1.812 . S
P224 C244 1.803 . S
P224 C250 1.819 . S
H225 C239 0.941 . S
H226 C240 0.939 . S
H227 C242 0.940 . S
H228 C243 0.940 . S
H229 C245 0.939 . S
H230 C246 0.942 . S
H231 C248 0.940 . S
H232 C249 0.939 . S
H233 C251 0.941 . S
H234 C255 0.939 . S
O235 P224 1.490 . S
H236 C252 0.939 . S
H237 C254 0.940 . S
C238 P224 1.812 . S
C238 C239 1.389 . S
C238 C243 1.391 . S
C239 H225 0.941 . S
C239 C238 1.389 . S
C239 C240 1.397 . S
C240 H226 0.939 . S
C240 C239 1.397 . S
C240 C241 1.378 . S
C241 C240 1.378 . S
C241 C242 1.378 . S
C242 H227 0.940 . S
C242 C241 1.378 . S
C242 C243 1.396 . S
C243 H228 0.940 . S
C243 C238 1.391 . S
C243 C242 1.396 . S
C244 P224 1.803 . S
C244 C245 1.378 . S
C244 C249 1.400 . S
C245 H229 0.939 . S
C245 C244 1.378 . S
C245 C246 1.361 . S
C246 H230 0.942 . S
C246 C245 1.361 . S
C246 C247 1.369 . S
C247 C246 1.369 . S
C247 C248 1.404 . S
C248 H231 0.940 . S
C248 C247 1.404 . S
C248 C249 1.389 . S
C249 H232 0.939 . S
C249 C244 1.400 . S
C249 C248 1.389 . S
C250 P224 1.819 . S
C250 C251 1.391 . S
C250 C255 1.391 . S
C251 H233 0.941 . S
C251 C250 1.391 . S
C251 C252 1.396 . S
C252 H236 0.939 . S
C252 C251 1.396 . S
C252 C253 1.397 . S
C253 C252 1.397 . S
C253 C254 1.385 . S
C254 H237 0.940 . S
C254 C253 1.385 . S
C254 C255 1.388 . S
C255 H234 0.939 . S
C255 C250 1.391 . S
C255 C254 1.388 . S
C256 O272 1.251 . S
C256 O274 1.254 . S
N257 C258 1.333 . S
N257 C262 1.307 . S
N257 Zn263 2.020 1_655 S
C258 N257 1.333 . S
C258 C259 1.379 . S
C258 H276 0.952 1_655 S
C259 C258 1.379 . S
C259 C260 1.390 . S
C259 H286 0.949 . S
C260 C259 1.390 . S
C260 C261 1.357 . S
C261 C260 1.357 . S
C261 C262 1.370 . S
C261 H287 0.950 . S
C262 N257 1.307 . S
C262 C261 1.370 . S
C262 H280 0.943 . S
Zn263 N257 2.020 1_455 S
Zn263 O272 2.039 . S
Zn263 O278 2.034 . S
Zn263 O282 2.025 1_565 S
Zn263 O284 2.041 1_455 S
C264 O283 1.246 . S
C264 O284 1.226 1_545 S
N265 C266 1.307 . S
N265 C267 1.333 . S
N265 Zn271 2.020 . S
C266 N265 1.307 . S
C266 C270 1.370 . S
C266 H277 0.955 . S
C267 N265 1.333 . S
C267 C268 1.379 . S
C267 H275 0.952 . S
C268 C267 1.379 . S
C268 C269 1.390 . S
C268 H288 0.949 . S
C269 C268 1.390 . S
C269 C270 1.357 . S
C270 C266 1.370 . S
C270 C269 1.357 . S
C270 H289 0.950 . S
Zn271 N265 2.020 . S
Zn271 O274 2.025 1_545 S
Zn271 O279 2.024 . S
Zn271 O281 2.039 . S
Zn271 O283 2.034 1_455 S
O272 C256 1.251 . S
O272 Zn263 2.039 . S
C273 O278 1.246 . S
C273 O279 1.249 1_565 S
O274 C256 1.254 . S
O274 Zn271 2.025 1_565 S
H275 C267 0.952 . S
H276 C258 0.952 1_455 S
H277 C266 0.955 . S
O278 Zn263 2.034 . S
O278 C273 1.246 . S
O279 Zn271 2.024 . S
O279 C273 1.249 1_545 S
H280 C262 0.943 . S
O281 Zn271 2.039 . S
O281 C285 1.251 . S
O282 Zn263 2.025 1_545 S
O282 C285 1.254 . S
O283 C264 1.246 . S
O283 Zn271 2.034 1_655 S
O284 Zn263 2.041 1_655 S
O284 C264 1.226 1_565 S
C285 O281 1.251 . S
C285 O282 1.254 . S
H286 C259 0.949 . S
H287 C261 0.950 . S
H288 C268 0.949 . S
H289 C270 0.950 . S
C290 O306 1.251 1_565 S
C290 O308 1.254 . S
N291 C292 1.333 . S
N291 C296 1.307 . S
N291 Zn297 2.020 . S
C292 N291 1.333 . S
C292 C293 1.379 . S
C292 H310 0.952 . S
C293 C292 1.379 . S
C293 C294 1.390 . S
C293 H320 0.949 . S
C294 C293 1.390 . S
C294 C295 1.357 . S
C295 C294 1.357 . S
C295 C296 1.370 . S
C295 H321 0.950 . S
C296 N291 1.307 . S
C296 C295 1.370 . S
C296 H314 0.948 . S
Zn297 N291 2.020 . S
Zn297 O306 2.039 . S
Zn297 O312 2.034 . S
Zn297 O316 2.025 . S
Zn297 O318 2.024 . S
C298 O317 1.246 1_545 S
C298 O318 1.249 . S
N299 C300 1.307 . S
N299 C301 1.333 . S
N299 Zn305 2.020 . S
C300 N299 1.307 . S
C300 C304 1.370 . S
C300 H311 0.948 . S
C301 N299 1.333 . S
C301 C302 1.379 . S
C301 H309 0.952 . S
C302 C301 1.379 . S
C302 C303 1.390 . S
C302 H322 0.949 . S
C303 C302 1.390 . S
C303 C304 1.357 . S
C304 C300 1.370 . S
C304 C303 1.357 . S
C304 H323 0.950 . S
Zn305 N299 2.020 . S
Zn305 O308 2.025 . S
Zn305 O313 2.024 . S
Zn305 O315 2.039 . S
Zn305 O317 2.034 . S
O306 C290 1.251 1_545 S
O306 Zn297 2.039 . S
C307 O312 1.246 1_565 S
C307 O313 1.249 . S
O308 C290 1.254 . S
O308 Zn305 2.025 . S
H309 C301 0.952 . S
H310 C292 0.952 . S
H311 C300 0.948 . S
O312 Zn297 2.034 . S
O312 C307 1.246 1_545 S
O313 Zn305 2.024 . S
O313 C307 1.249 . S
H314 C296 0.948 . S
O315 Zn305 2.039 . S
O315 C319 1.251 1_565 S
O316 Zn297 2.025 . S
O316 C319 1.254 . S
O317 C298 1.246 1_565 S
O317 Zn305 2.034 . S
O318 Zn297 2.024 . S
O318 C298 1.249 . S
C319 O315 1.251 1_545 S
C319 O316 1.254 . S
H320 C293 0.949 . S
H321 C295 0.950 . S
H322 C302 0.949 . S
H323 C304 0.950 . S
C324 O340 1.251 . S
C324 O342 1.254 . S
N325 C326 1.333 . S
N325 C330 1.307 . S
N325 Zn331 2.020 . S
C326 N325 1.333 . S
C326 C327 1.379 . S
C326 H344 0.952 . S
C327 C326 1.379 . S
C327 C328 1.390 . S
C327 H354 0.949 . S
C328 C327 1.390 . S
C328 C329 1.357 . S
C329 C328 1.357 . S
C329 C330 1.370 . S
C329 H355 0.950 . S
C330 N325 1.307 . S
C330 C329 1.370 . S
C330 H348 0.948 . S
Zn331 N325 2.020 . S
Zn331 O340 2.039 . S
Zn331 O346 2.034 . S
Zn331 O350 2.025 . S
Zn331 O352 2.024 . S
C332 O351 1.246 . S
C332 O352 1.249 . S
N333 C334 1.307 . S
N333 C335 1.333 . S
N333 Zn339 2.020 . S
C334 N333 1.307 . S
C334 C338 1.370 . S
C334 H345 0.948 . S
C335 N333 1.333 . S
C335 C336 1.379 . S
C335 H343 0.952 . S
C336 C335 1.379 . S
C336 C337 1.390 . S
C336 H356 0.949 . S
C337 C336 1.390 . S
C337 C338 1.357 . S
C338 C334 1.370 . S
C338 C337 1.357 . S
C338 H357 0.950 . S
Zn339 N333 2.020 . S
Zn339 O342 2.025 . S
Zn339 O347 2.024 . S
Zn339 O349 2.039 . S
Zn339 O351 2.034 . S
O340 C324 1.251 . S
O340 Zn331 2.039 . S
C341 O346 1.246 . S
C341 O347 1.249 . S
O342 C324 1.254 . S
O342 Zn339 2.025 . S
H343 C335 0.952 . S
H344 C326 0.952 . S
H345 C334 0.948 . S
O346 Zn331 2.034 . S
O346 C341 1.246 . S
O347 Zn339 2.024 . S
O347 C341 1.249 . S
H348 C330 0.948 . S
O349 Zn339 2.039 . S
O349 C353 1.251 . S
O350 Zn331 2.025 . S
O350 C353 1.254 . S
O351 C332 1.246 . S
O351 Zn339 2.034 . S
O352 Zn331 2.024 . S
O352 C332 1.249 . S
C353 O349 1.251 . S
C353 O350 1.254 . S
H354 C327 0.949 . S
H355 C329 0.950 . S
H356 C336 0.949 . S
H357 C338 0.950 . S
C358 O374 1.251 . S
C358 O376 1.254 . S
N359 C360 1.333 . S
N359 C364 1.307 . S
N359 Zn365 2.020 . S
C360 N359 1.333 . S
C360 C361 1.379 . S
C360 H378 0.952 . S
C361 C360 1.379 . S
C361 C362 1.390 . S
C361 H388 0.949 . S
C362 C361 1.390 . S
C362 C363 1.357 . S
C363 C362 1.357 . S
C363 C364 1.370 . S
C363 H389 0.950 . S
C364 N359 1.307 . S
C364 C363 1.370 . S
C364 H382 0.948 . S
Zn365 N359 2.020 . S
Zn365 O374 2.039 . S
Zn365 O380 2.034 1_455 S
Zn365 O384 2.025 1_455 S
Zn365 O386 2.024 . S
C366 O385 1.246 . S
C366 O386 1.249 . S
N367 C368 1.307 . S
N367 C369 1.333 1_455 S
N367 Zn373 2.020 . S
C368 N367 1.307 . S
C368 C372 1.370 1_455 S
C368 H379 0.948 . S
C369 N367 1.333 1_655 S
C369 C370 1.379 . S
C369 H377 0.952 . S
C370 C369 1.379 . S
C370 C371 1.390 . S
C370 H390 0.949 . S
C371 C370 1.390 . S
C371 C372 1.357 . S
C372 C368 1.370 1_655 S
C372 C371 1.357 . S
C372 H391 0.951 . S
Zn373 N367 2.020 . S
Zn373 O376 2.025 . S
Zn373 O381 2.024 1_455 S
Zn373 O383 2.039 1_455 S
Zn373 O385 2.034 . S
O374 C358 1.251 . S
O374 Zn365 2.039 . S
C375 O380 1.246 . S
C375 O381 1.249 . S
O376 C358 1.254 . S
O376 Zn373 2.025 . S
H377 C369 0.952 . S
H378 C360 0.952 . S
H379 C368 0.948 . S
O380 Zn365 2.034 1_655 S
O380 C375 1.246 . S
O381 Zn373 2.024 1_655 S
O381 C375 1.249 . S
H382 C364 0.948 . S
O383 Zn373 2.039 1_655 S
O383 C387 1.251 . S
O384 Zn365 2.025 1_655 S
O384 C387 1.254 . S
O385 C366 1.246 . S
O385 Zn373 2.034 . S
O386 Zn365 2.024 . S
O386 C366 1.249 . S
C387 O383 1.251 . S
C387 O384 1.254 . S
H388 C361 0.949 . S
H389 C363 0.950 . S
H390 C370 0.949 . S
H391 C372 0.951 . S
C392 C393 1.407 . S
C392 C394 1.394 . S
C392 H408 0.931 . S
C393 C392 1.407 . S
C393 C397 1.362 1_545 S
C394 C392 1.394 . S
C394 C395 1.386 . S
C394 C398 1.531 . S
C395 C394 1.386 . S
C395 C396 1.391 1_545 S
C395 C403 1.503 1_545 S
C396 C395 1.391 1_565 S
C396 C397 1.392 . S
C396 C399 1.511 . S
C397 C393 1.362 1_565 S
C397 C396 1.392 . S
C397 H409 0.929 . S
C398 C394 1.531 . S
C398 H410 0.960 . S
C398 H411 0.962 . S
C398 H412 0.960 . S
C399 C396 1.511 . S
C399 H413 0.961 . S
C399 H414 0.961 . S
C399 H415 0.961 . S
C400 C401 1.370 . S
C400 C402 1.363 . S
C400 H416 0.931 . S
C401 C400 1.370 . S
C401 C405 1.408 1_565 S
C402 C400 1.363 . S
C402 C403 1.370 . S
C402 C406 1.524 . S
C403 C395 1.503 1_565 S
C403 C402 1.370 . S
C403 C404 1.403 1_565 S
C404 C403 1.403 1_545 S
C404 C405 1.404 . S
C404 C407 1.539 . S
C405 C401 1.408 1_545 S
C405 C404 1.404 . S
C405 H417 0.930 . S
C406 C402 1.524 . S
C406 H418 0.956 . S
C406 H419 0.961 . S
C406 H420 0.961 . S
C407 C404 1.539 . S
C407 H421 0.958 . S
C407 H422 0.961 . S
C407 H423 0.960 . S
H408 C392 0.931 . S
H409 C397 0.929 . S
H410 C398 0.960 . S
H411 C398 0.962 . S
H412 C398 0.960 . S
H413 C399 0.961 . S
H414 C399 0.961 . S
H415 C399 0.961 . S
H416 C400 0.931 . S
H417 C405 0.930 . S
H418 C406 0.956 . S
H419 C406 0.961 . S
H420 C406 0.961 . S
H421 C407 0.958 . S
H422 C407 0.961 . S
H423 C407 0.960 . S
C424 C425 1.391 . S
C424 C426 1.394 . S
C424 H440 0.931 . S
C425 C424 1.391 . S
C425 C429 1.376 . S
C426 C424 1.394 . S
C426 C427 1.369 . S
C426 C430 1.531 . S
C427 C426 1.369 . S
C427 C428 1.410 . S
C427 C435 1.503 . S
C428 C427 1.410 . S
C428 C429 1.392 . S
C428 C431 1.511 . S
C429 C425 1.376 . S
C429 C428 1.392 . S
C429 H441 0.929 . S
C430 C426 1.531 . S
C430 H442 0.960 . S
C430 H443 0.962 . S
C430 H444 0.960 . S
C431 C428 1.511 . S
C431 H445 0.961 . S
C431 H446 0.961 . S
C431 H447 0.961 . S
C432 C433 1.370 . S
C432 C434 1.363 . S
C432 H448 0.931 . S
C433 C432 1.370 . S
C433 C437 1.408 . S
C434 C432 1.363 . S
C434 C435 1.370 . S
C434 C438 1.524 . S
C435 C427 1.503 . S
C435 C434 1.370 . S
C435 C436 1.403 . S
C436 C435 1.403 . S
C436 C437 1.404 . S
C436 C439 1.539 . S
C437 C433 1.408 . S
C437 C436 1.404 . S
C437 H449 0.930 . S
C438 C434 1.524 . S
C438 H450 0.956 . S
C438 H451 0.961 . S
C438 H452 0.961 . S
C439 C436 1.539 . S
C439 H453 0.958 . S
C439 H454 0.961 . S
C439 H455 0.960 . S
H440 C424 0.931 . S
H441 C429 0.929 . S
H442 C430 0.960 . S
H443 C430 0.962 . S
H444 C430 0.960 . S
H445 C431 0.961 . S
H446 C431 0.961 . S
H447 C431 0.961 . S
H448 C432 0.931 . S
H449 C437 0.930 . S
H450 C438 0.956 . S
H451 C438 0.961 . S
H452 C438 0.961 . S
H453 C439 0.958 . S
H454 C439 0.961 . S
H455 C439 0.960 . S
C456 C457 1.391 . S
C456 C458 1.394 . S
C456 H472 0.931 . S
C457 C456 1.391 . S
C457 C461 1.376 . S
C458 C456 1.394 . S
C458 C459 1.369 . S
C458 C462 1.531 . S
C459 C458 1.369 . S
C459 C460 1.410 . S
C459 C467 1.503 . S
C460 C459 1.410 . S
C460 C461 1.392 . S
C460 C463 1.511 . S
C461 C457 1.376 . S
C461 C460 1.392 . S
C461 H473 0.929 . S
C462 C458 1.531 . S
C462 H474 0.960 . S
C462 H475 0.962 . S
C462 H476 0.960 . S
C463 C460 1.511 . S
C463 H477 0.961 . S
C463 H478 0.961 . S
C463 H479 0.961 . S
C464 C465 1.370 . S
C464 C466 1.363 . S
C464 H480 0.931 . S
C465 C464 1.370 . S
C465 C469 1.408 . S
C466 C464 1.363 . S
C466 C467 1.370 . S
C466 C470 1.524 . S
C467 C459 1.503 . S
C467 C466 1.370 . S
C467 C468 1.403 . S
C468 C467 1.403 . S
C468 C469 1.404 . S
C468 C471 1.539 . S
C469 C465 1.408 . S
C469 C468 1.404 . S
C469 H481 0.930 . S
C470 C466 1.524 . S
C470 H482 0.956 . S
C470 H483 0.961 . S
C470 H484 0.961 . S
C471 C468 1.539 . S
C471 H485 0.958 . S
C471 H486 0.961 . S
C471 H487 0.960 . S
H472 C456 0.931 . S
H473 C461 0.929 . S
H474 C462 0.960 . S
H475 C462 0.962 . S
H476 C462 0.960 . S
H477 C463 0.961 . S
H478 C463 0.961 . S
H479 C463 0.961 . S
H480 C464 0.931 . S
H481 C469 0.930 . S
H482 C470 0.956 . S
H483 C470 0.961 . S
H484 C470 0.961 . S
H485 C471 0.958 . S
H486 C471 0.961 . S
H487 C471 0.960 . S
C488 C489 1.391 . S
C488 C490 1.394 . S
C488 H504 0.931 . S
C489 C488 1.391 . S
C489 C493 1.376 . S
C490 C488 1.394 . S
C490 C491 1.369 . S
C490 C494 1.531 . S
C491 C490 1.369 . S
C491 C492 1.410 . S
C491 C499 1.503 . S
C492 C491 1.410 . S
C492 C493 1.392 . S
C492 C495 1.511 . S
C493 C489 1.376 . S
C493 C492 1.392 . S
C493 H505 0.929 . S
C494 C490 1.531 . S
C494 H506 0.960 . S
C494 H507 0.962 . S
C494 H508 0.960 . S
C495 C492 1.511 . S
C495 H509 0.961 . S
C495 H510 0.961 . S
C495 H511 0.961 . S
C496 C497 1.370 . S
C496 C498 1.363 . S
C496 H512 0.931 . S
C497 C496 1.370 . S
C497 C501 1.408 . S
C498 C496 1.363 . S
C498 C499 1.370 . S
C498 C502 1.524 . S
C499 C491 1.503 . S
C499 C498 1.370 . S
C499 C500 1.403 . S
C500 C499 1.403 . S
C500 C501 1.404 . S
C500 C503 1.539 . S
C501 C497 1.408 . S
C501 C500 1.404 . S
C501 H513 0.930 . S
C502 C498 1.524 . S
C502 H514 0.956 . S
C502 H515 0.961 . S
C502 H516 0.961 . S
C503 C500 1.539 . S
C503 H517 0.958 . S
C503 H518 0.961 . S
C503 H519 0.960 . S
H504 C488 0.931 . S
H505 C493 0.929 . S
H506 C494 0.960 . S
H507 C494 0.962 . S
H508 C494 0.960 . S
H509 C495 0.961 . S
H510 C495 0.961 . S
H511 C495 0.961 . S
H512 C496 0.931 . S
H513 C501 0.930 . S
H514 C502 0.956 . S
H515 C502 0.961 . S
H516 C502 0.961 . S
H517 C503 0.958 . S
H518 C503 0.961 . S
H519 C503 0.960 . S
C520 C521 1.391 . S
C520 C522 1.394 . S
C520 H536 0.931 . S
C521 C520 1.391 . S
C521 C525 1.376 1_546 S
C522 C520 1.394 . S
C522 C523 1.369 . S
C522 C526 1.531 . S
C523 C522 1.369 . S
C523 C524 1.410 1_545 S
C523 C531 1.503 . S
C524 C523 1.410 1_565 S
C524 C525 1.392 1_556 S
C524 C527 1.511 . S
C525 C521 1.376 1_564 S
C525 C524 1.392 1_554 S
C525 H537 0.929 . S
C526 C522 1.531 . S
C526 H538 0.960 . S
C526 H539 0.962 . S
C526 H540 0.960 . S
C527 C524 1.511 . S
C527 H541 0.961 . S
C527 H542 0.961 . S
C527 H543 0.961 1_556 S
C528 C529 1.370 1_565 S
C528 C530 1.363 . S
C528 H544 0.931 . S
C529 C528 1.370 1_545 S
C529 C533 1.408 . S
C530 C528 1.363 . S
C530 C531 1.370 1_565 S
C530 C534 1.524 . S
C531 C523 1.503 . S
C531 C530 1.370 1_545 S
C531 C532 1.403 . S
C532 C531 1.403 . S
C532 C533 1.404 . S
C532 C535 1.539 . S
C533 C529 1.408 . S
C533 C532 1.404 . S
C533 H545 0.930 . S
C534 C530 1.524 . S
C534 H546 0.956 . S
C534 H547 0.961 . S
C534 H548 0.961 . S
C535 C532 1.539 . S
C535 H549 0.958 . S
C535 H550 0.961 . S
C535 H551 0.960 . S
H536 C520 0.931 . S
H537 C525 0.929 . S
H538 C526 0.960 . S
H539 C526 0.962 . S
H540 C526 0.960 . S
H541 C527 0.961 . S
H542 C527 0.961 . S
H543 C527 0.961 1_554 S
H544 C528 0.931 . S
H545 C533 0.930 . S
H546 C534 0.956 . S
H547 C534 0.961 . S
H548 C534 0.961 . S
H549 C535 0.958 . S
H550 C535 0.961 . S
H551 C535 0.960 . S
C552 C553 1.391 1_556 S
C552 C554 1.394 . S
C552 H568 0.931 . S
C553 C552 1.391 1_554 S
C553 C557 1.376 . S
C554 C552 1.394 . S
C554 C555 1.369 . S
C554 C558 1.531 . S
C555 C554 1.369 . S
C555 C556 1.410 . S
C555 C563 1.503 . S
C556 C555 1.410 . S
C556 C557 1.392 1_556 S
C556 C559 1.511 1_556 S
C557 C553 1.376 . S
C557 C556 1.392 1_554 S
C557 H569 0.929 . S
C558 C554 1.531 . S
C558 H570 0.960 . S
C558 H571 0.962 . S
C558 H572 0.960 . S
C559 C556 1.511 1_554 S
C559 H573 0.961 . S
C559 H574 0.961 1_554 S
C559 H575 0.961 1_554 S
C560 C561 1.370 . S
C560 C562 1.363 . S
C560 H576 0.931 . S
C561 C560 1.370 . S
C561 C565 1.408 . S
C562 C560 1.363 . S
C562 C563 1.370 . S
C562 C566 1.524 . S
C563 C555 1.503 . S
C563 C562 1.370 . S
C563 C564 1.403 . S
C564 C563 1.403 . S
C564 C565 1.404 . S
C564 C567 1.539 . S
C565 C561 1.408 . S
C565 C564 1.404 . S
C565 H577 0.930 . S
C566 C562 1.524 . S
C566 H578 0.956 . S
C566 H579 0.961 . S
C566 H580 0.961 . S
C567 C564 1.539 . S
C567 H581 0.958 . S
C567 H582 0.961 . S
C567 H583 0.960 . S
H568 C552 0.931 . S
H569 C557 0.929 . S
H570 C558 0.960 . S
H571 C558 0.962 . S
H572 C558 0.960 . S
H573 C559 0.961 . S
H574 C559 0.961 1_556 S
H575 C559 0.961 1_556 S
H576 C560 0.931 . S
H577 C565 0.930 . S
H578 C566 0.956 . S
H579 C566 0.961 . S
H580 C566 0.961 . S
H581 C567 0.958 . S
H582 C567 0.961 . S
H583 C567 0.960 . S
C584 C585 1.391 . S
C584 C586 1.394 1_554 S
C584 H600 0.931 . S
C585 C584 1.391 . S
C585 C589 1.376 . S
C586 C584 1.394 1_556 S
C586 C587 1.369 . S
C586 C590 1.531 . S
C587 C586 1.369 . S
C587 C588 1.410 1_556 S
C587 C595 1.503 . S
C588 C587 1.410 1_554 S
C588 C589 1.392 . S
C588 C591 1.511 . S
C589 C585 1.376 . S
C589 C588 1.392 . S
C589 H601 0.929 . S
C590 C586 1.531 . S
C590 H602 0.960 . S
C590 H603 0.962 . S
C590 H604 0.960 . S
C591 C588 1.511 . S
C591 H605 0.961 . S
C591 H606 0.961 . S
C591 H607 0.961 . S
C592 C593 1.370 . S
C592 C594 1.363 . S
C592 H608 0.931 . S
C593 C592 1.370 . S
C593 C597 1.408 . S
C594 C592 1.363 . S
C594 C595 1.370 . S
C594 C598 1.524 . S
C595 C587 1.503 . S
C595 C594 1.370 . S
C595 C596 1.403 . S
C596 C595 1.403 . S
C596 C597 1.404 . S
C596 C599 1.539 . S
C597 C593 1.408 . S
C597 C596 1.404 . S
C597 H609 0.930 . S
C598 C594 1.524 . S
C598 H610 0.956 . S
C598 H611 0.961 1_556 S
C598 H612 0.961 . S
C599 C596 1.539 . S
C599 H613 0.958 . S
C599 H614 0.961 . S
C599 H615 0.960 . S
H600 C584 0.931 . S
H601 C589 0.929 . S
H602 C590 0.960 . S
H603 C590 0.962 . S
H604 C590 0.960 . S
H605 C591 0.961 . S
H606 C591 0.961 . S
H607 C591 0.961 . S
H608 C592 0.931 . S
H609 C597 0.930 . S
H610 C598 0.956 . S
H611 C598 0.961 1_554 S
H612 C598 0.961 . S
H613 C599 0.958 . S
H614 C599 0.961 . S
H615 C599 0.960 . S
C616 C617 1.391 . S
C616 C618 1.394 . S
C616 H632 0.931 . S
C617 C616 1.391 . S
C617 C621 1.376 . S
C618 C616 1.394 . S
C618 C619 1.369 . S
C618 C622 1.531 . S
C619 C618 1.369 . S
C619 C620 1.410 . S
C619 C627 1.503 . S
C620 C619 1.410 . S
C620 C621 1.392 . S
C620 C623 1.511 . S
C621 C617 1.376 . S
C621 C620 1.392 . S
C621 H633 0.929 . S
C622 C618 1.531 . S
C622 H634 0.960 . S
C622 H635 0.962 . S
C622 H636 0.960 . S
C623 C620 1.511 . S
C623 H637 0.961 . S
C623 H638 0.961 . S
C623 H639 0.961 1_655 S
C624 C625 1.370 . S
C624 C626 1.363 . S
C624 H640 0.931 . S
C625 C624 1.370 . S
C625 C629 1.408 . S
C626 C624 1.363 . S
C626 C627 1.370 . S
C626 C630 1.524 . S
C627 C619 1.503 . S
C627 C626 1.370 . S
C627 C628 1.403 . S
C628 C627 1.403 . S
C628 C629 1.404 . S
C628 C631 1.539 . S
C629 C625 1.408 . S
C629 C628 1.404 . S
C629 H641 0.912 1_655 S
C630 C626 1.524 . S
C630 H642 0.956 . S
C630 H643 0.961 . S
C630 H644 0.961 . S
C631 C628 1.539 . S
C631 H645 0.958 . S
C631 H646 0.961 1_655 S
C631 H647 0.960 . S
H632 C616 0.931 . S
H633 C621 0.929 . S
H634 C622 0.960 . S
H635 C622 0.962 . S
H636 C622 0.960 . S
H637 C623 0.961 . S
H638 C623 0.961 . S
H639 C623 0.961 1_455 S
H640 C624 0.931 . S
H641 C629 0.912 1_455 S
H642 C630 0.956 . S
H643 C630 0.961 . S
H644 C630 0.961 . S
H645 C631 0.958 . S
H646 C631 0.961 1_455 S
H647 C631 0.960 . S
C648 C649 1.391 . S
C648 C650 1.394 . S
C648 H664 0.931 . S
C649 C648 1.391 . S
C649 C653 1.376 . S
C650 C648 1.394 . S
C650 C651 1.369 . S
C650 C654 1.531 . S
C651 C650 1.369 . S
C651 C652 1.410 . S
C651 C659 1.503 . S
C652 C651 1.410 . S
C652 C653 1.392 . S
C652 C655 1.511 . S
C653 C649 1.376 . S
C653 C652 1.392 . S
C653 H665 0.929 . S
C654 C650 1.531 . S
C654 H666 0.960 . S
C654 H667 0.962 . S
C654 H668 0.960 . S
C655 C652 1.511 . S
C655 H669 0.961 . S
C655 H670 0.961 . S
C655 H671 0.961 . S
C656 C657 1.370 . S
C656 C658 1.363 . S
C656 H672 0.892 1_455 S
C657 C656 1.370 . S
C657 C661 1.408 . S
C658 C656 1.363 . S
C658 C659 1.370 . S
C658 C662 1.524 . S
C659 C651 1.503 . S
C659 C658 1.370 . S
C659 C660 1.403 . S
C660 C659 1.403 . S
C660 C661 1.404 . S
C660 C663 1.539 . S
C661 C657 1.408 . S
C661 C660 1.404 . S
C661 H673 0.930 . S
C662 C658 1.524 . S
C662 H674 0.956 . S
C662 H675 0.961 . S
C662 H676 0.961 . S
C663 C660 1.539 . S
C663 H677 0.958 . S
C663 H678 0.961 . S
C663 H679 0.960 . S
H664 C648 0.931 . S
H665 C653 0.929 . S
H666 C654 0.960 . S
H667 C654 0.962 . S
H668 C654 0.960 . S
H669 C655 0.961 . S
H670 C655 0.961 . S
H671 C655 0.961 . S
H672 C656 0.892 1_655 S
H673 C661 0.930 . S
H674 C662 0.956 . S
H675 C662 0.961 . S
H676 C662 0.961 . S
H677 C663 0.958 . S
H678 C663 0.961 . S
H679 C663 0.960 . S
C680 C681 1.383 1_545 S
C680 C682 1.394 . S
C680 H696 0.931 . S
C681 C680 1.383 1_565 S
C681 C685 1.385 . S
C682 C680 1.394 . S
C682 C683 1.369 1_545 S
C682 C686 1.531 . S
C683 C682 1.369 1_565 S
C683 C684 1.410 . S
C683 C691 1.503 . S
C684 C683 1.410 . S
C684 C685 1.392 . S
C684 C687 1.511 . S
C685 C681 1.385 . S
C685 C684 1.392 . S
C685 H697 0.929 . S
C686 C682 1.531 . S
C686 H698 0.960 . S
C686 H699 0.962 . S
C686 H700 0.960 . S
C687 C684 1.511 . S
C687 H701 0.961 . S
C687 H702 0.961 . S
C687 H703 0.961 . S
C688 C689 1.370 . S
C688 C690 1.366 . S
C688 H704 0.931 1_565 S
C689 C688 1.370 . S
C689 C693 1.408 . S
C690 C688 1.366 . S
C690 C691 1.377 . S
C690 C694 1.516 1_565 S
C691 C683 1.503 . S
C691 C690 1.377 . S
C691 C692 1.403 . S
C692 C691 1.403 . S
C692 C693 1.404 . S
C692 C695 1.539 . S
C693 C689 1.408 . S
C693 C692 1.404 . S
C693 H705 0.930 . S
C694 C690 1.516 1_545 S
C694 H706 0.956 . S
C694 H707 0.961 1_545 S
C694 H708 0.961 . S
C695 C692 1.539 . S
C695 H709 0.958 . S
C695 H710 0.961 . S
C695 H711 0.960 . S
H696 C680 0.931 . S
H697 C685 0.929 . S
H698 C686 0.960 . S
H699 C686 0.962 . S
H700 C686 0.960 . S
H701 C687 0.961 . S
H702 C687 0.961 . S
H703 C687 0.961 . S
H704 C688 0.931 1_545 S
H705 C693 0.930 . S
H706 C694 0.956 . S
H707 C694 0.961 1_565 S
H708 C694 0.961 . S
H709 C695 0.958 . S
H710 C695 0.961 . S
H711 C695 0.960 . S
C712 C713 1.391 . S
C712 C714 1.394 . S
C712 H728 0.931 . S
C713 C712 1.391 . S
C713 C717 1.376 . S
C714 C712 1.394 . S
C714 C715 1.369 . S
C714 C718 1.531 . S
C715 C714 1.369 . S
C715 C716 1.410 . S
C715 C723 1.503 . S
C716 C715 1.410 . S
C716 C717 1.392 . S
C716 C719 1.511 . S
C717 C713 1.376 . S
C717 C716 1.392 . S
C717 H729 0.929 . S
C718 C714 1.531 . S
C718 H730 0.960 . S
C718 H731 0.962 . S
C718 H732 0.960 . S
C719 C716 1.511 . S
C719 H733 0.961 . S
C719 H734 0.961 . S
C719 H735 0.961 . S
C720 C721 1.370 . S
C720 C722 1.363 . S
C720 H736 0.931 . S
C721 C720 1.370 . S
C721 C725 1.408 . S
C722 C720 1.363 . S
C722 C723 1.370 . S
C722 C726 1.524 . S
C723 C715 1.503 . S
C723 C722 1.370 . S
C723 C724 1.403 . S
C724 C723 1.403 . S
C724 C725 1.404 . S
C724 C727 1.539 . S
C725 C721 1.408 . S
C725 C724 1.404 . S
C725 H737 0.930 . S
C726 C722 1.524 . S
C726 H738 0.956 . S
C726 H739 0.961 . S
C726 H740 0.961 . S
C727 C724 1.539 . S
C727 H741 0.958 . S
C727 H742 0.961 . S
C727 H743 0.960 . S
H728 C712 0.931 . S
H729 C717 0.929 . S
H730 C718 0.960 . S
H731 C718 0.962 . S
H732 C718 0.960 . S
H733 C719 0.961 . S
H734 C719 0.961 . S
H735 C719 0.961 . S
H736 C720 0.931 . S
H737 C725 0.930 . S
H738 C726 0.956 . S
H739 C726 0.961 . S
H740 C726 0.961 . S
H741 C727 0.958 . S
H742 C727 0.961 . S
H743 C727 0.960 . S
C744 C745 1.391 . S
C744 C746 1.394 . S
C744 H760 0.931 . S
C745 C744 1.391 . S
C745 C749 1.376 . S
C746 C744 1.394 . S
C746 C747 1.369 . S
C746 C750 1.531 . S
C747 C746 1.369 . S
C747 C748 1.410 . S
C747 C755 1.503 . S
C748 C747 1.410 . S
C748 C749 1.392 . S
C748 C751 1.511 . S
C749 C745 1.376 . S
C749 C748 1.392 . S
C749 H761 0.929 . S
C750 C746 1.531 . S
C750 H762 0.960 . S
C750 H763 0.962 . S
C750 H764 0.960 . S
C751 C748 1.511 . S
C751 H765 0.961 . S
C751 H766 0.961 . S
C751 H767 0.961 . S
C752 C753 1.370 . S
C752 C754 1.363 . S
C752 H768 0.931 . S
C753 C752 1.370 . S
C753 C757 1.408 . S
C754 C752 1.363 . S
C754 C755 1.370 . S
C754 C758 1.524 . S
C755 C747 1.503 . S
C755 C754 1.370 . S
C755 C756 1.403 . S
C756 C755 1.403 . S
C756 C757 1.404 . S
C756 C759 1.539 . S
C757 C753 1.408 . S
C757 C756 1.404 . S
C757 H769 0.930 . S
C758 C754 1.524 . S
C758 H770 0.956 . S
C758 H771 0.961 . S
C758 H772 0.961 . S
C759 C756 1.539 . S
C759 H773 0.958 . S
C759 H774 0.961 . S
C759 H775 0.960 . S
H760 C744 0.931 . S
H761 C749 0.929 . S
H762 C750 0.960 . S
H763 C750 0.962 . S
H764 C750 0.960 . S
H765 C751 0.961 . S
H766 C751 0.961 . S
H767 C751 0.961 . S
H768 C752 0.931 . S
H769 C757 0.930 . S
H770 C758 0.956 . S
H771 C758 0.961 . S
H772 C758 0.961 . S
H773 C759 0.958 . S
H774 C759 0.961 . S
H775 C759 0.960 . S
C776 C777 1.391 . S
C776 C778 1.394 . S
C776 H792 0.931 . S
C777 C776 1.391 . S
C777 C781 1.376 . S
C778 C776 1.394 . S
C778 C779 1.369 . S
C778 C782 1.531 . S
C779 C778 1.369 . S
C779 C780 1.410 . S
C779 C787 1.503 . S
C780 C779 1.410 . S
C780 C781 1.392 . S
C780 C783 1.511 . S
C781 C777 1.376 . S
C781 C780 1.392 . S
C781 H793 0.929 . S
C782 C778 1.531 . S
C782 H794 0.960 1_655 S
C782 H795 0.962 . S
C782 H796 0.960 . S
C783 C780 1.511 . S
C783 H797 0.961 . S
C783 H798 0.961 . S
C783 H799 0.961 . S
C784 C785 1.370 1_655 S
C784 C786 1.363 . S
C784 H800 0.931 1_655 S
C785 C784 1.370 1_455 S
C785 C789 1.408 . S
C786 C784 1.363 . S
C786 C787 1.370 . S
C786 C790 1.524 . S
C787 C779 1.503 . S
C787 C786 1.370 . S
C787 C788 1.403 . S
C788 C787 1.403 . S
C788 C789 1.404 1_655 S
C788 C791 1.539 . S
C789 C785 1.408 . S
C789 C788 1.404 1_455 S
C789 H801 0.930 . S
C790 C786 1.524 . S
C790 H802 0.956 . S
C790 H803 0.961 . S
C790 H804 0.961 . S
C791 C788 1.539 . S
C791 H805 0.958 . S
C791 H806 0.961 . S
C791 H807 0.960 . S
H792 C776 0.931 . S
H793 C781 0.929 . S
H794 C782 0.960 1_455 S
H795 C782 0.962 . S
H796 C782 0.960 . S
H797 C783 0.961 . S
H798 C783 0.961 . S
H799 C783 0.961 . S
H800 C784 0.931 1_455 S
H801 C789 0.930 . S
H802 C790 0.956 . S
H803 C790 0.961 . S
H804 C790 0.961 . S
H805 C791 0.958 . S
H806 C791 0.961 . S
H807 C791 0.960 . S
C808 C809 1.351 1_545 S
C808 C810 1.394 . S
C808 H824 0.931 . S
C809 C808 1.351 1_565 S
C809 C813 1.414 . S
C810 C808 1.394 . S
C810 C811 1.369 . S
C810 C814 1.531 . S
C811 C810 1.369 . S
C811 C812 1.410 1_545 S
C811 C819 1.503 . S
C812 C811 1.410 1_565 S
C812 C813 1.392 . S
C812 C815 1.511 . S
C813 C809 1.414 . S
C813 C812 1.392 . S
C813 H825 0.929 . S
C814 C810 1.531 . S
C814 H826 0.960 . S
C814 H827 0.962 . S
C814 H828 0.960 . S
C815 C812 1.511 . S
C815 H829 0.961 . S
C815 H830 0.961 . S
C815 H831 0.961 . S
C816 C817 1.370 . S
C816 C818 1.363 . S
C816 H832 0.931 . S
C817 C816 1.370 . S
C817 C821 1.426 . S
C818 C816 1.363 . S
C818 C819 1.370 . S
C818 C822 1.524 . S
C819 C811 1.503 . S
C819 C818 1.370 . S
C819 C820 1.403 1_545 S
C820 C819 1.403 1_565 S
C820 C821 1.400 1_565 S
C820 C823 1.539 . S
C821 C817 1.426 . S
C821 C820 1.400 1_545 S
C821 H833 0.918 1_545 S
C822 C818 1.524 . S
C822 H834 0.956 . S
C822 H835 0.961 . S
C822 H836 0.961 . S
C823 C820 1.539 . S
C823 H837 0.961 1_565 S
C823 H838 0.961 . S
C823 H839 0.960 . S
H824 C808 0.931 . S
H825 C813 0.929 . S
H826 C814 0.960 . S
H827 C814 0.962 . S
H828 C814 0.960 . S
H829 C815 0.961 . S
H830 C815 0.961 . S
H831 C815 0.961 . S
H832 C816 0.931 . S
H833 C821 0.918 1_565 S
H834 C822 0.956 . S
H835 C822 0.961 . S
H836 C822 0.961 . S
H837 C823 0.961 1_545 S
H838 C823 0.961 . S
H839 C823 0.960 . S
C840 C841 1.391 . S
C840 C842 1.394 . S
C840 H856 0.931 . S
C841 C840 1.391 . S
C841 C845 1.376 . S
C842 C840 1.394 . S
C842 C843 1.369 . S
C842 C846 1.531 . S
C843 C842 1.369 . S
C843 C844 1.410 . S
C843 C851 1.503 . S
C844 C843 1.410 . S
C844 C845 1.392 . S
C844 C847 1.511 . S
C845 C841 1.376 . S
C845 C844 1.392 . S
C845 H857 0.929 . S
C846 C842 1.531 . S
C846 H858 0.960 . S
C846 H859 0.962 . S
C846 H860 0.960 1_556 S
C847 C844 1.511 . S
C847 H861 0.961 . S
C847 H862 0.961 . S
C847 H863 0.961 . S
C848 C849 1.370 . S
C848 C850 1.363 . S
C848 H864 0.931 . S
C849 C848 1.370 . S
C849 C853 1.408 . S
C850 C848 1.363 . S
C850 C851 1.370 . S
C850 C854 1.524 . S
C851 C843 1.503 . S
C851 C850 1.370 . S
C851 C852 1.403 . S
C852 C851 1.403 . S
C852 C853 1.404 . S
C852 C855 1.539 . S
C853 C849 1.408 . S
C853 C852 1.404 . S
C853 H865 0.930 . S
C854 C850 1.524 . S
C854 H866 0.956 . S
C854 H867 0.961 . S
C854 H868 0.961 . S
C855 C852 1.539 . S
C855 H869 0.958 . S
C855 H870 0.961 . S
C855 H871 0.960 . S
H856 C840 0.931 . S
H857 C845 0.929 . S
H858 C846 0.960 . S
H859 C846 0.962 . S
H860 C846 0.960 1_554 S
H861 C847 0.961 . S
H862 C847 0.961 . S
H863 C847 0.961 . S
H864 C848 0.931 . S
H865 C853 0.930 . S
H866 C854 0.956 . S
H867 C854 0.961 . S
H868 C854 0.961 . S
H869 C855 0.958 . S
H870 C855 0.961 . S
H871 C855 0.960 . S
C872 C873 1.391 . S
C872 C874 1.394 . S
C872 H888 0.931 . S
C873 C872 1.391 . S
C873 C877 1.376 1_556 S
C874 C872 1.394 . S
C874 C875 1.369 . S
C874 C878 1.531 . S
C875 C874 1.369 . S
C875 C876 1.410 . S
C875 C883 1.503 . S
C876 C875 1.410 . S
C876 C877 1.392 1_556 S
C876 C879 1.511 1_556 S
C877 C873 1.376 1_554 S
C877 C876 1.392 1_554 S
C877 H889 0.929 . S
C878 C874 1.531 . S
C878 H890 0.960 . S
C878 H891 0.962 . S
C878 H892 0.960 . S
C879 C876 1.511 1_554 S
C879 H893 0.961 . S
C879 H894 0.961 1_554 S
C879 H895 0.961 . S
C880 C881 1.370 . S
C880 C882 1.363 . S
C880 H896 0.931 . S
C881 C880 1.370 . S
C881 C885 1.408 . S
C882 C880 1.363 . S
C882 C883 1.370 . S
C882 C886 1.524 . S
C883 C875 1.503 . S
C883 C882 1.370 . S
C883 C884 1.403 . S
C884 C883 1.403 . S
C884 C885 1.404 . S
C884 C887 1.539 . S
C885 C881 1.408 . S
C885 C884 1.404 . S
C885 H897 0.930 . S
C886 C882 1.524 . S
C886 H898 0.956 . S
C886 H899 0.961 . S
C886 H900 0.961 . S
C887 C884 1.539 . S
C887 H901 0.958 . S
C887 H902 0.961 . S
C887 H903 0.960 . S
H888 C872 0.931 . S
H889 C877 0.929 . S
H890 C878 0.960 . S
H891 C878 0.962 . S
H892 C878 0.960 . S
H893 C879 0.961 . S
H894 C879 0.961 1_556 S
H895 C879 0.961 . S
H896 C880 0.931 . S
H897 C885 0.930 . S
H898 C886 0.956 . S
H899 C886 0.961 . S
H900 C886 0.961 . S
H901 C887 0.958 . S
H902 C887 0.961 . S
H903 C887 0.960 . S
C904 C905 1.391 . S
C904 C906 1.394 . S
C904 H920 0.931 . S
C905 C904 1.391 . S
C905 C909 1.376 . S
C906 C904 1.394 . S
C906 C907 1.369 . S
C906 C910 1.531 . S
C907 C906 1.369 . S
C907 C908 1.410 . S
C907 C915 1.503 . S
C908 C907 1.410 . S
C908 C909 1.392 . S
C908 C911 1.511 . S
C909 C905 1.376 . S
C909 C908 1.392 . S
C909 H921 0.929 . S
C910 C906 1.531 . S
C910 H922 0.960 . S
C910 H923 0.962 . S
C910 H924 0.960 . S
C911 C908 1.511 . S
C911 H925 0.961 . S
C911 H926 0.961 . S
C911 H927 0.961 . S
C912 C913 1.370 . S
C912 C914 1.363 1_556 S
C912 H928 0.931 . S
C913 C912 1.370 . S
C913 C917 1.408 1_556 S
C914 C912 1.363 1_554 S
C914 C915 1.370 . S
C914 C918 1.524 1_554 S
C915 C907 1.503 . S
C915 C914 1.370 . S
C915 C916 1.403 . S
C916 C915 1.403 . S
C916 C917 1.404 . S
C916 C919 1.539 . S
C917 C913 1.408 1_554 S
C917 C916 1.404 . S
C917 H929 0.930 . S
C918 C914 1.524 1_556 S
C918 H930 0.950 1_556 S
C918 H931 0.961 . S
C918 H932 0.961 . S
C919 C916 1.539 . S
C919 H933 0.958 . S
C919 H934 0.961 . S
C919 H935 0.960 . S
H920 C904 0.931 . S
H921 C909 0.929 . S
H922 C910 0.960 . S
H923 C910 0.962 . S
H924 C910 0.960 . S
H925 C911 0.961 . S
H926 C911 0.961 . S
H927 C911 0.961 . S
H928 C912 0.931 . S
H929 C917 0.930 . S
H930 C918 0.950 1_554 S
H931 C918 0.961 . S
H932 C918 0.961 . S
H933 C919 0.958 . S
H934 C919 0.961 . S
H935 C919 0.960 . S
C936 C937 1.391 1_545 S
C936 C938 1.394 . S
C936 H952 0.931 . S
C937 C936 1.391 1_565 S
C937 C941 1.376 . S
C938 C936 1.394 . S
C938 C939 1.369 1_544 S
C938 C942 1.531 . S
C939 C938 1.369 1_566 S
C939 C940 1.410 . S
C939 C947 1.504 . S
C940 C939 1.410 . S
C940 C941 1.392 1_556 S
C940 C943 1.511 . S
C941 C937 1.376 . S
C941 C940 1.392 1_554 S
C941 H953 0.929 . S
C942 C938 1.531 . S
C942 H954 0.960 . S
C942 H955 0.962 . S
C942 H956 0.960 . S
C943 C940 1.511 . S
C943 H957 0.961 . S
C943 H958 0.961 . S
C943 H959 0.961 . S
C944 C945 1.370 . S
C944 C946 1.363 . S
C944 H960 0.931 . S
C945 C944 1.370 . S
C945 C949 1.408 1_545 S
C946 C944 1.363 . S
C946 C947 1.337 1_545 S
C946 C950 1.524 . S
C947 C939 1.504 . S
C947 C946 1.337 1_565 S
C947 C948 1.436 . S
C948 C947 1.436 . S
C948 C949 1.404 . S
C948 C951 1.539 1_556 S
C949 C945 1.408 1_565 S
C949 C948 1.404 . S
C949 H961 0.930 . S
C950 C946 1.524 . S
C950 H962 0.956 . S
C950 H963 0.961 . S
C950 H964 0.961 . S
C951 C948 1.539 1_554 S
C951 H965 0.958 . S
C951 H966 0.961 1_554 S
C951 H967 0.960 . S
H952 C936 0.931 . S
H953 C941 0.929 . S
H954 C942 0.960 . S
H955 C942 0.962 . S
H956 C942 0.960 . S
H957 C943 0.961 . S
H958 C943 0.961 . S
H959 C943 0.961 . S
H960 C944 0.931 . S
H961 C949 0.930 . S
H962 C950 0.956 . S
H963 C950 0.961 . S
H964 C950 0.961 . S
H965 C951 0.958 . S
H966 C951 0.961 1_556 S
H967 C951 0.960 . S
C968 C969 1.391 . S
C968 C970 1.394 . S
C968 H984 0.931 . S
C969 C968 1.391 . S
C969 C973 1.376 . S
C970 C968 1.394 . S
C970 C971 1.369 1_554 S
C970 C974 1.531 . S
C971 C970 1.369 1_556 S
C971 C972 1.410 . S
C971 C979 1.503 . S
C972 C971 1.410 . S
C972 C973 1.392 1_556 S
C972 C975 1.511 . S
C973 C969 1.376 . S
C973 C972 1.392 1_554 S
C973 H985 0.929 . S
C974 C970 1.531 . S
C974 H986 0.960 1_554 S
C974 H987 0.962 . S
C974 H988 0.960 . S
C975 C972 1.511 . S
C975 H989 0.961 . S
C975 H990 0.961 . S
C975 H991 0.961 . S
C976 C977 1.370 . S
C976 C978 1.363 . S
C976 H992 0.931 . S
C977 C976 1.370 . S
C977 C981 1.408 . S
C978 C976 1.363 . S
C978 C979 1.370 . S
C978 C982 1.524 1_556 S
C979 C971 1.503 . S
C979 C978 1.370 . S
C979 C980 1.403 . S
C980 C979 1.403 . S
C980 C981 1.404 . S
C980 C983 1.539 . S
C981 C977 1.408 . S
C981 C980 1.404 . S
C981 H993 0.930 . S
C982 C978 1.524 1_554 S
C982 H994 0.956 . S
C982 H995 0.961 . S
C982 H996 0.961 . S
C983 C980 1.539 . S
C983 H997 0.958 . S
C983 H998 0.961 . S
C983 H999 0.960 . S
H984 C968 0.931 . S
H985 C973 0.929 . S
H986 C974 0.960 1_556 S
H987 C974 0.962 . S
H988 C974 0.960 . S
H989 C975 0.961 . S
H990 C975 0.961 . S
H991 C975 0.961 . S
H992 C976 0.931 . S
H993 C981 0.930 . S
H994 C982 0.956 . S
H995 C982 0.961 . S
H996 C982 0.961 . S
H997 C983 0.958 . S
H998 C983 0.961 . S
H999 C983 0.960 . S
C1000 C1001 1.391 1_556 S
C1000 C1002 1.394 . S
C1000 H1016 0.931 . S
C1001 C1000 1.391 1_554 S
C1001 C1005 1.376 . S
C1002 C1000 1.394 . S
C1002 C1003 1.369 . S
C1002 C1006 1.531 . S
C1003 C1002 1.369 . S
C1003 C1004 1.410 1_556 S
C1003 C1011 1.503 . S
C1004 C1003 1.410 1_554 S
C1004 C1005 1.392 . S
C1004 C1007 1.511 . S
C1005 C1001 1.376 . S
C1005 C1004 1.392 . S
C1005 H1017 0.929 . S
C1006 C1002 1.531 . S
C1006 H1018 0.960 . S
C1006 H1019 0.962 . S
C1006 H1020 0.960 . S
C1007 C1004 1.511 . S
C1007 H1021 0.961 . S
C1007 H1022 0.961 1_554 S
C1007 H1023 0.961 . S
C1008 C1009 1.370 . S
C1008 C1010 1.363 . S
C1008 H1024 0.931 . S
C1009 C1008 1.370 . S
C1009 C1013 1.408 . S
C1010 C1008 1.363 . S
C1010 C1011 1.370 . S
C1010 C1014 1.524 . S
C1011 C1003 1.503 . S
C1011 C1010 1.370 . S
C1011 C1012 1.403 . S
C1012 C1011 1.403 . S
C1012 C1013 1.404 . S
C1012 C1015 1.539 . S
C1013 C1009 1.408 . S
C1013 C1012 1.404 . S
C1013 H1025 0.930 . S
C1014 C1010 1.524 . S
C1014 H1026 0.956 . S
C1014 H1027 0.961 . S
C1014 H1028 0.961 . S
C1015 C1012 1.539 . S
C1015 H1029 0.958 . S
C1015 H1030 0.961 1_556 S
C1015 H1031 0.960 1_556 S
H1016 C1000 0.931 . S
H1017 C1005 0.929 . S
H1018 C1006 0.960 . S
H1019 C1006 0.962 . S
H1020 C1006 0.960 . S
H1021 C1007 0.961 . S
H1022 C1007 0.961 1_556 S
H1023 C1007 0.961 . S
H1024 C1008 0.931 . S
H1025 C1013 0.930 . S
H1026 C1014 0.956 . S
H1027 C1014 0.961 . S
H1028 C1014 0.961 . S
H1029 C1015 0.958 . S
H1030 C1015 0.961 1_554 S
H1031 C1015 0.960 1_554 S
C1032 C1033 1.391 . S
C1032 C1034 1.394 . S
C1032 H1048 0.931 . S
C1033 C1032 1.391 . S
C1033 C1037 1.376 . S
C1034 C1032 1.394 . S
C1034 C1035 1.369 . S
C1034 C1038 1.531 . S
C1035 C1034 1.369 . S
C1035 C1036 1.410 . S
C1035 C1043 1.503 . S
C1036 C1035 1.410 . S
C1036 C1037 1.392 . S
C1036 C1039 1.511 . S
C1037 C1033 1.376 . S
C1037 C1036 1.392 . S
C1037 H1049 0.929 . S
C1038 C1034 1.531 . S
C1038 H1050 0.960 . S
C1038 H1051 0.962 . S
C1038 H1052 0.960 . S
C1039 C1036 1.511 . S
C1039 H1053 0.961 . S
C1039 H1054 0.961 . S
C1039 H1055 1.000 . S
C1040 C1041 1.370 . S
C1040 C1042 1.363 . S
C1040 H1056 0.931 . S
C1041 C1040 1.370 . S
C1041 C1045 1.408 . S
C1042 C1040 1.363 . S
C1042 C1043 1.370 . S
C1042 C1046 1.524 . S
C1043 C1035 1.503 . S
C1043 C1042 1.370 . S
C1043 C1044 1.403 . S
C1044 C1043 1.403 . S
C1044 C1045 1.404 . S
C1044 C1047 1.539 . S
C1045 C1041 1.408 . S
C1045 C1044 1.404 . S
C1045 H1057 0.930 . S
C1046 C1042 1.524 . S
C1046 H1058 0.956 . S
C1046 H1059 0.961 . S
C1046 H1060 0.961 . S
C1047 C1044 1.539 . S
C1047 H1061 0.958 . S
C1047 H1062 0.961 1_655 S
C1047 H1063 0.960 . S
H1048 C1032 0.931 . S
H1049 C1037 0.929 . S
H1050 C1038 0.960 . S
H1051 C1038 0.962 . S
H1052 C1038 0.960 . S
H1053 C1039 0.961 . S
H1054 C1039 0.961 . S
H1055 C1039 1.000 . S
H1056 C1040 0.931 . S
H1057 C1045 0.930 . S
H1058 C1046 0.956 . S
H1059 C1046 0.961 . S
H1060 C1046 0.961 . S
H1061 C1047 0.958 . S
H1062 C1047 0.961 1_455 S
H1063 C1047 0.960 . S
C1064 C1065 1.391 . S
C1064 C1066 1.394 . S
C1064 H1080 0.931 . S
C1065 C1064 1.391 . S
C1065 C1069 1.376 . S
C1066 C1064 1.394 . S
C1066 C1067 1.369 . S
C1066 C1070 1.531 . S
C1067 C1066 1.369 . S
C1067 C1068 1.410 . S
C1067 C1075 1.503 . S
C1068 C1067 1.410 . S
C1068 C1069 1.392 . S
C1068 C1071 1.511 . S
C1069 C1065 1.376 . S
C1069 C1068 1.392 . S
C1069 H1081 0.924 1_565 S
C1070 C1066 1.531 . S
C1070 H1082 0.960 . S
C1070 H1083 0.962 1_565 S
C1070 H1084 0.960 . S
C1071 C1068 1.511 . S
C1071 H1085 0.961 1_565 S
C1071 H1086 0.961 1_565 S
C1071 H1087 0.961 . S
C1072 C1073 1.370 1_545 S
C1072 C1074 1.363 . S
C1072 H1088 0.931 . S
C1073 C1072 1.370 1_565 S
C1073 C1077 1.408 . S
C1074 C1072 1.363 . S
C1074 C1075 1.370 1_545 S
C1074 C1078 1.524 . S
C1075 C1067 1.503 . S
C1075 C1074 1.370 1_565 S
C1075 C1076 1.403 . S
C1076 C1075 1.403 . S
C1076 C1077 1.404 . S
C1076 C1079 1.539 . S
C1077 C1073 1.408 . S
C1077 C1076 1.404 . S
C1077 H1089 0.930 . S
C1078 C1074 1.524 . S
C1078 H1090 0.956 . S
C1078 H1091 0.961 . S
C1078 H1092 0.961 . S
C1079 C1076 1.539 . S
C1079 H1093 0.958 . S
C1079 H1094 0.961 . S
C1079 H1095 0.960 . S
H1080 C1064 0.931 . S
H1081 C1069 0.924 1_545 S
H1082 C1070 0.960 . S
H1083 C1070 0.962 1_545 S
H1084 C1070 0.960 . S
H1085 C1071 0.961 1_545 S
H1086 C1071 0.961 1_545 S
H1087 C1071 0.961 . S
H1088 C1072 0.931 . S
H1089 C1077 0.930 . S
H1090 C1078 0.956 . S
H1091 C1078 0.961 . S
H1092 C1078 0.961 . S
H1093 C1079 0.958 . S
H1094 C1079 0.961 . S
H1095 C1079 0.960 . S
C1096 C1097 1.391 . S
C1096 C1098 1.394 . S
C1096 H1112 0.931 . S
C1097 C1096 1.391 . S
C1097 C1101 1.376 . S
C1098 C1096 1.394 . S
C1098 C1099 1.369 . S
C1098 C1102 1.531 . S
C1099 C1098 1.369 . S
C1099 C1100 1.410 . S
C1099 C1107 1.503 . S
C1100 C1099 1.410 . S
C1100 C1101 1.392 . S
C1100 C1103 1.511 . S
C1101 C1097 1.376 . S
C1101 C1100 1.392 . S
C1101 H1113 0.929 . S
C1102 C1098 1.531 . S
C1102 H1114 0.960 . S
C1102 H1115 0.962 . S
C1102 H1116 0.960 . S
C1103 C1100 1.511 . S
C1103 H1117 0.961 . S
C1103 H1118 0.961 . S
C1103 H1119 0.961 . S
C1104 C1105 1.370 . S
C1104 C1106 1.363 . S
C1104 H1120 0.931 . S
C1105 C1104 1.370 . S
C1105 C1109 1.408 . S
C1106 C1104 1.363 . S
C1106 C1107 1.370 . S
C1106 C1110 1.524 . S
C1107 C1099 1.503 . S
C1107 C1106 1.370 . S
C1107 C1108 1.403 . S
C1108 C1107 1.403 . S
C1108 C1109 1.404 . S
C1108 C1111 1.539 . S
C1109 C1105 1.408 . S
C1109 C1108 1.404 . S
C1109 H1121 0.930 . S
C1110 C1106 1.524 . S
C1110 H1122 0.956 . S
C1110 H1123 0.961 . S
C1110 H1124 0.961 . S
C1111 C1108 1.539 . S
C1111 H1125 0.958 . S
C1111 H1126 0.961 . S
C1111 H1127 0.960 . S
H1112 C1096 0.931 . S
H1113 C1101 0.929 . S
H1114 C1102 0.960 . S
H1115 C1102 0.962 . S
H1116 C1102 0.960 . S
H1117 C1103 0.961 . S
H1118 C1103 0.961 . S
H1119 C1103 0.961 . S
H1120 C1104 0.931 . S
H1121 C1109 0.930 . S
H1122 C1110 0.956 . S
H1123 C1110 0.961 . S
H1124 C1110 0.961 . S
H1125 C1111 0.958 . S
H1126 C1111 0.961 . S
H1127 C1111 0.960 . S
C1128 C1129 1.391 . S
C1128 C1130 1.394 . S
C1128 H1144 0.931 . S
C1129 C1128 1.391 . S
C1129 C1133 1.376 . S
C1130 C1128 1.394 . S
C1130 C1131 1.369 . S
C1130 C1134 1.531 . S
C1131 C1130 1.369 . S
C1131 C1132 1.410 . S
C1131 C1139 1.503 . S
C1132 C1131 1.410 . S
C1132 C1133 1.392 . S
C1132 C1135 1.511 . S
C1133 C1129 1.376 . S
C1133 C1132 1.392 . S
C1133 H1145 0.929 . S
C1134 C1130 1.531 . S
C1134 H1146 0.960 . S
C1134 H1147 0.962 . S
C1134 H1148 0.960 . S
C1135 C1132 1.511 . S
C1135 H1149 0.961 . S
C1135 H1150 0.961 . S
C1135 H1151 0.961 . S
C1136 C1137 1.370 . S
C1136 C1138 1.363 . S
C1136 H1152 0.931 . S
C1137 C1136 1.370 . S
C1137 C1141 1.408 . S
C1138 C1136 1.363 . S
C1138 C1139 1.370 . S
C1138 C1142 1.524 . S
C1139 C1131 1.503 . S
C1139 C1138 1.370 . S
C1139 C1140 1.403 . S
C1140 C1139 1.403 . S
C1140 C1141 1.404 . S
C1140 C1143 1.539 . S
C1141 C1137 1.408 . S
C1141 C1140 1.404 . S
C1141 H1153 0.930 . S
C1142 C1138 1.524 . S
C1142 H1154 0.956 . S
C1142 H1155 0.961 . S
C1142 H1156 0.961 . S
C1143 C1140 1.539 . S
C1143 H1157 0.958 . S
C1143 H1158 0.961 . S
C1143 H1159 0.960 . S
H1144 C1128 0.931 . S
H1145 C1133 0.929 . S
H1146 C1134 0.960 . S
H1147 C1134 0.962 . S
H1148 C1134 0.960 . S
H1149 C1135 0.961 . S
H1150 C1135 0.961 . S
H1151 C1135 0.961 . S
H1152 C1136 0.931 . S
H1153 C1141 0.930 . S
H1154 C1142 0.956 . S
H1155 C1142 0.961 . S
H1156 C1142 0.961 . S
H1157 C1143 0.958 . S
H1158 C1143 0.961 . S
H1159 C1143 0.960 . S
C393 C215 1.821 . S
C401 C273 1.847 . S
C433 C294 1.645 . S
C425 C247 1.656 . S
C465 C328 1.479 . S
C457 C151 1.372 . S
C497 C362 1.634 . S
C489 C183 1.644 . S
C529 C264 1.849 . S
C521 C87 1.802 1_556 S
C553 C119 1.515 . S
C561 C303 1.658 . S
C585 C23 1.431 . S
C593 C337 1.470 . S
C617 C55 1.496 . S
C625 C371 1.640 . S
C657 C285 0.504 . S
C649 C189 0.540 . S
C689 C290 0.546 . S
C681 C221 0.608 1_565 S
C721 C324 0.647 . S
C713 C253 0.646 . S
C745 C157 0.568 . S
C753 C358 0.169 . S
C777 C61 0.783 . S
C785 C256 0.514 . S
C817 C319 0.531 . S
C809 C93 0.605 1_565 S
C849 C353 0.658 . S
C841 C125 0.580 . S
C873 C29 0.252 1_556 S
C881 C387 0.182 . S
C905 C177 1.523 . S
C913 C269 1.579 . S
C937 C209 1.889 1_565 S
C945 C298 1.981 . S
C977 C332 1.718 . S
C969 C241 1.696 . S
C1009 C366 1.762 . S
C1001 C145 1.579 . S
C1033 C49 1.454 . S
C1041 C260 1.577 . S
C1073 C307 1.981 . S
C1065 C81 1.911 1_565 S
C1105 C341 1.723 . S
C1097 C113 1.568 . S
C1129 C17 1.688 . S
C1137 C375 1.757 . S
