# Generated by pormake.
# Topology ptr, (4,4)-cn, num edge types: 1
# Building blocks:
#     Node 0, Type 0, BuildingBlock: CEKHIL_clean_sbu_0, # of connection points: 4
#     Node 1, Type 0, BuildingBlock: CEKHIL_clean_sbu_0, # of connection points: 4
#     Node 2, Type 0, BuildingBlock: CEKHIL_clean_sbu_0, # of connection points: 4
#     Node 3, Type 0, BuildingBlock: CEKHIL_clean_sbu_0, # of connection points: 4
#     Node 4, Type 0, BuildingBlock: CEKHIL_clean_sbu_0, # of connection points: 4
#     Node 5, Type 0, BuildingBlock: CEKHIL_clean_sbu_0, # of connection points: 4
#     Node 6, Type 0, BuildingBlock: CEKHIL_clean_sbu_0, # of connection points: 4
#     Node 7, Type 0, BuildingBlock: CEKHIL_clean_sbu_0, # of connection points: 4
#     Node 8, Type 0, BuildingBlock: CEKHIL_clean_sbu_0, # of connection points: 4
#     Node 9, Type 0, BuildingBlock: CEKHIL_clean_sbu_0, # of connection points: 4
#     Node 10, Type 0, BuildingBlock: CEKHIL_clean_sbu_0, # of connection points: 4
#     Node 11, Type 0, BuildingBlock: CEKHIL_clean_sbu_0, # of connection points: 4
#     Node 12, Type 0, BuildingBlock: CEKHIL_clean_sbu_0, # of connection points: 4
#     Node 13, Type 0, BuildingBlock: CEKHIL_clean_sbu_0, # of connection points: 4
#     Node 14, Type 0, BuildingBlock: CEKHIL_clean_sbu_0, # of connection points: 4
#     Node 15, Type 0, BuildingBlock: CEKHIL_clean_sbu_0, # of connection points: 4
#     Node 16, Type 0, BuildingBlock: CEKHIL_clean_sbu_0, # of connection points: 4
#     Node 17, Type 0, BuildingBlock: CEKHIL_clean_sbu_0, # of connection points: 4
#     Node 18, Type 1, BuildingBlock: GIZVER_clean_linker_0, # of connection points: 4
#     Node 19, Type 1, BuildingBlock: GIZVER_clean_linker_0, # of connection points: 4
#     Node 20, Type 1, BuildingBlock: GIZVER_clean_linker_0, # of connection points: 4
#     Node 21, Type 1, BuildingBlock: GIZVER_clean_linker_0, # of connection points: 4
#     Node 22, Type 1, BuildingBlock: GIZVER_clean_linker_0, # of connection points: 4
#     Node 23, Type 1, BuildingBlock: GIZVER_clean_linker_0, # of connection points: 4
#     Node 24, Type 1, BuildingBlock: GIZVER_clean_linker_0, # of connection points: 4
#     Node 25, Type 1, BuildingBlock: GIZVER_clean_linker_0, # of connection points: 4
#     Node 26, Type 1, BuildingBlock: GIZVER_clean_linker_0, # of connection points: 4
#     Node 27, Type 1, BuildingBlock: GIZVER_clean_linker_0, # of connection points: 4
#     Node 28, Type 1, BuildingBlock: GIZVER_clean_linker_0, # of connection points: 4
#     Node 29, Type 1, BuildingBlock: GIZVER_clean_linker_0, # of connection points: 4
#     Node 30, Type 1, BuildingBlock: GIZVER_clean_linker_0, # of connection points: 4
#     Node 31, Type 1, BuildingBlock: GIZVER_clean_linker_0, # of connection points: 4
#     Node 32, Type 1, BuildingBlock: GIZVER_clean_linker_0, # of connection points: 4
#     Node 33, Type 1, BuildingBlock: GIZVER_clean_linker_0, # of connection points: 4
#     Node 34, Type 1, BuildingBlock: GIZVER_clean_linker_0, # of connection points: 4
#     Node 35, Type 1, BuildingBlock: GIZVER_clean_linker_0, # of connection points: 4
#     Edge 36, Type (0, 1), BuildingBlock: KIFKEQ_clean_linker_1, # of connection points: 2
#     Edge 37, Type (0, 1), BuildingBlock: KIFKEQ_clean_linker_1, # of connection points: 2
#     Edge 38, Type (0, 1), BuildingBlock: KIFKEQ_clean_linker_1, # of connection points: 2
#     Edge 39, Type (0, 1), BuildingBlock: KIFKEQ_clean_linker_1, # of connection points: 2
#     Edge 40, Type (0, 1), BuildingBlock: KIFKEQ_clean_linker_1, # of connection points: 2
#     Edge 41, Type (0, 1), BuildingBlock: KIFKEQ_clean_linker_1, # of connection points: 2
#     Edge 42, Type (0, 1), BuildingBlock: KIFKEQ_clean_linker_1, # of connection points: 2
#     Edge 43, Type (0, 1), BuildingBlock: KIFKEQ_clean_linker_1, # of connection points: 2
#     Edge 44, Type (0, 1), BuildingBlock: KIFKEQ_clean_linker_1, # of connection points: 2
#     Edge 45, Type (0, 1), BuildingBlock: KIFKEQ_clean_linker_1, # of connection points: 2
#     Edge 46, Type (0, 1), BuildingBlock: KIFKEQ_clean_linker_1, # of connection points: 2
#     Edge 47, Type (0, 1), BuildingBlock: KIFKEQ_clean_linker_1, # of connection points: 2
#     Edge 48, Type (0, 1), BuildingBlock: KIFKEQ_clean_linker_1, # of connection points: 2
#     Edge 49, Type (0, 1), BuildingBlock: KIFKEQ_clean_linker_1, # of connection points: 2
#     Edge 50, Type (0, 1), BuildingBlock: KIFKEQ_clean_linker_1, # of connection points: 2
#     Edge 51, Type (0, 1), BuildingBlock: KIFKEQ_clean_linker_1, # of connection points: 2
#     Edge 52, Type (0, 1), BuildingBlock: KIFKEQ_clean_linker_1, # of connection points: 2
#     Edge 53, Type (0, 1), BuildingBlock: KIFKEQ_clean_linker_1, # of connection points: 2
#     Edge 54, Type (0, 1), BuildingBlock: KIFKEQ_clean_linker_1, # of connection points: 2
#     Edge 55, Type (0, 1), BuildingBlock: KIFKEQ_clean_linker_1, # of connection points: 2
#     Edge 56, Type (0, 1), BuildingBlock: KIFKEQ_clean_linker_1, # of connection points: 2
#     Edge 57, Type (0, 1), BuildingBlock: KIFKEQ_clean_linker_1, # of connection points: 2
#     Edge 58, Type (0, 1), BuildingBlock: KIFKEQ_clean_linker_1, # of connection points: 2
#     Edge 59, Type (0, 1), BuildingBlock: KIFKEQ_clean_linker_1, # of connection points: 2
#     Edge 60, Type (0, 1), BuildingBlock: KIFKEQ_clean_linker_1, # of connection points: 2
#     Edge 61, Type (0, 1), BuildingBlock: KIFKEQ_clean_linker_1, # of connection points: 2
#     Edge 62, Type (0, 1), BuildingBlock: KIFKEQ_clean_linker_1, # of connection points: 2
#     Edge 63, Type (0, 1), BuildingBlock: KIFKEQ_clean_linker_1, # of connection points: 2
#     Edge 64, Type (0, 1), BuildingBlock: KIFKEQ_clean_linker_1, # of connection points: 2
#     Edge 65, Type (0, 1), BuildingBlock: KIFKEQ_clean_linker_1, # of connection points: 2
#     Edge 66, Type (0, 1), BuildingBlock: KIFKEQ_clean_linker_1, # of connection points: 2
#     Edge 67, Type (0, 1), BuildingBlock: KIFKEQ_clean_linker_1, # of connection points: 2
#     Edge 68, Type (0, 1), BuildingBlock: KIFKEQ_clean_linker_1, # of connection points: 2
#     Edge 69, Type (0, 1), BuildingBlock: KIFKEQ_clean_linker_1, # of connection points: 2
#     Edge 70, Type (0, 1), BuildingBlock: KIFKEQ_clean_linker_1, # of connection points: 2
#     Edge 71, Type (0, 1), BuildingBlock: KIFKEQ_clean_linker_1, # of connection points: 2
#     Edge 72, Type (0, 1), BuildingBlock: KIFKEQ_clean_linker_1, # of connection points: 2
#     Edge 73, Type (0, 1), BuildingBlock: KIFKEQ_clean_linker_1, # of connection points: 2
#     Edge 74, Type (0, 1), BuildingBlock: KIFKEQ_clean_linker_1, # of connection points: 2
#     Edge 75, Type (0, 1), BuildingBlock: KIFKEQ_clean_linker_1, # of connection points: 2
#     Edge 76, Type (0, 1), BuildingBlock: KIFKEQ_clean_linker_1, # of connection points: 2
#     Edge 77, Type (0, 1), BuildingBlock: KIFKEQ_clean_linker_1, # of connection points: 2
#     Edge 78, Type (0, 1), BuildingBlock: KIFKEQ_clean_linker_1, # of connection points: 2
#     Edge 79, Type (0, 1), BuildingBlock: KIFKEQ_clean_linker_1, # of connection points: 2
#     Edge 80, Type (0, 1), BuildingBlock: KIFKEQ_clean_linker_1, # of connection points: 2
#     Edge 81, Type (0, 1), BuildingBlock: KIFKEQ_clean_linker_1, # of connection points: 2
#     Edge 82, Type (0, 1), BuildingBlock: KIFKEQ_clean_linker_1, # of connection points: 2
#     Edge 83, Type (0, 1), BuildingBlock: KIFKEQ_clean_linker_1, # of connection points: 2
#     Edge 84, Type (0, 1), BuildingBlock: KIFKEQ_clean_linker_1, # of connection points: 2
#     Edge 85, Type (0, 1), BuildingBlock: KIFKEQ_clean_linker_1, # of connection points: 2
#     Edge 86, Type (0, 1), BuildingBlock: KIFKEQ_clean_linker_1, # of connection points: 2
#     Edge 87, Type (0, 1), BuildingBlock: KIFKEQ_clean_linker_1, # of connection points: 2
#     Edge 88, Type (0, 1), BuildingBlock: KIFKEQ_clean_linker_1, # of connection points: 2
#     Edge 89, Type (0, 1), BuildingBlock: KIFKEQ_clean_linker_1, # of connection points: 2
#     Edge 90, Type (0, 1), BuildingBlock: KIFKEQ_clean_linker_1, # of connection points: 2
#     Edge 91, Type (0, 1), BuildingBlock: KIFKEQ_clean_linker_1, # of connection points: 2
#     Edge 92, Type (0, 1), BuildingBlock: KIFKEQ_clean_linker_1, # of connection points: 2
#     Edge 93, Type (0, 1), BuildingBlock: KIFKEQ_clean_linker_1, # of connection points: 2
#     Edge 94, Type (0, 1), BuildingBlock: KIFKEQ_clean_linker_1, # of connection points: 2
#     Edge 95, Type (0, 1), BuildingBlock: KIFKEQ_clean_linker_1, # of connection points: 2
#     Edge 96, Type (0, 1), BuildingBlock: KIFKEQ_clean_linker_1, # of connection points: 2
#     Edge 97, Type (0, 1), BuildingBlock: KIFKEQ_clean_linker_1, # of connection points: 2
#     Edge 98, Type (0, 1), BuildingBlock: KIFKEQ_clean_linker_1, # of connection points: 2
#     Edge 99, Type (0, 1), BuildingBlock: KIFKEQ_clean_linker_1, # of connection points: 2
#     Edge 100, Type (0, 1), BuildingBlock: KIFKEQ_clean_linker_1, # of connection points: 2
#     Edge 101, Type (0, 1), BuildingBlock: KIFKEQ_clean_linker_1, # of connection points: 2
#     Edge 102, Type (0, 1), BuildingBlock: KIFKEQ_clean_linker_1, # of connection points: 2
#     Edge 103, Type (0, 1), BuildingBlock: KIFKEQ_clean_linker_1, # of connection points: 2
#     Edge 104, Type (0, 1), BuildingBlock: KIFKEQ_clean_linker_1, # of connection points: 2
#     Edge 105, Type (0, 1), BuildingBlock: KIFKEQ_clean_linker_1, # of connection points: 2
#     Edge 106, Type (0, 1), BuildingBlock: KIFKEQ_clean_linker_1, # of connection points: 2
#     Edge 107, Type (0, 1), BuildingBlock: KIFKEQ_clean_linker_1, # of connection points: 2
# Relax obj value: 0.048
# Max RMSD: 0.106
# Mean RMSD: 0.077
data_MOF--net-ptr--node1-CEKHIL_clean_sbu_0--node2-GIZVER_clean_linker_0--edge1-KIFKEQ_clean_linker_1
_symmetry_space_group_name_H-M    P1
_symmetry_Int_Tables_number       1
_symmetry_cell_setting            triclinic
loop_
_symmetry_equiv_pos_as_xyz
'x, y, z'
_cell_length_a     81.242155
_cell_length_b     80.35525
_cell_length_c     50.309847
_cell_angle_alpha  91.062697
_cell_angle_beta   89.862504
_cell_angle_gamma 120.92453
loop_
_atom_site_label
_atom_site_type_symbol
_atom_site_fract_x
_atom_site_fract_y
_atom_site_fract_z
_atom_type_partial_charge
Co0 Co 0.01695 0.3727 -0.00082 0.0
O1 O 0.02852 0.36252 0.02218 0.0
O2 O 0.04433 0.38527 0.99259 0.0
C3 C 0.99151 0.3433 0.98747 0.0
O4 O 0.01017 0.38655 0.97141 0.0
Co5 Co 0.9762 0.36606 0.00942 0.0
O6 O 0.9792 0.37805 0.97437 0.0
C7 C 0.0097 0.39633 0.04029 0.0
C8 C 0.04469 0.37413 0.01072 0.0
C9 C 0.9955 0.38724 0.96318 0.0
O10 O 0.02133 0.39328 0.02652 0.0
O11 O 0.99143 0.38611 0.03764 0.0
O12 O 0.00784 0.34995 0.97546 0.0
O13 O 0.99142 0.35395 0.00687 0.0
Co14 Co 0.64841 0.64495 0.00662 0.0
O15 O 0.66938 0.65506 0.98185 0.0
O16 O 0.66364 0.63303 0.01197 0.0
C17 C 0.65244 0.6741 0.01869 0.0
O18 O 0.62887 0.63119 0.03586 0.0
Co19 Co 0.61326 0.65011 -0.00031 0.0
O20 O 0.60523 0.63788 0.03486 0.0
C21 C 0.6156 0.61974 0.96838 0.0
C22 C 0.67446 0.64388 0.99293 0.0
C23 C 0.61336 0.62957 0.04523 0.0
O24 O 0.63114 0.62368 0.98062 0.0
O25 O 0.60729 0.62951 0.97188 0.0
O26 O 0.66287 0.66801 0.02947 0.0
O27 O 0.64095 0.66313 -5e-05 0.0
Co28 Co 0.36215 0.00332 0.00517 0.0
O29 O 0.35277 0.01531 0.98157 0.0
O30 O 0.37557 0.03123 0.01174 0.0
C31 C 0.33275 0.97856 0.01673 0.0
O32 O 0.37529 0.99608 0.03364 0.0
Co33 Co 0.35368 0.9613 0.99494 0.0
O34 O 0.36396 0.964 0.03138 0.0
C35 C 0.38546 0.99417 0.96645 0.0
C36 C 0.36479 0.03176 0.99309 0.0
C37 C 0.37418 0.98059 0.04261 0.0
O38 O 0.38212 0.00643 0.97843 0.0
O39 O 0.37534 0.9758 0.96956 0.0
O40 O 0.34008 0.99547 0.02847 0.0
O41 O 0.34266 0.97758 -0.00265 0.0
Co42 Co 0.99839 0.63807 0.0083 0.0
O43 O 0.98623 0.64713 0.98462 0.0
O44 O 0.97098 0.62526 0.01541 0.0
C45 C 0.0234 0.66813 0.01826 0.0
O46 O 0.00624 0.6255 0.03688 0.0
Co47 Co 0.03923 0.64545 -0.00264 0.0
O48 O 0.03789 0.63677 0.03422 0.0
C49 C 1.00554 0.61323 0.96918 0.0
C50 C 0.97023 0.6357 -0.00351 0.0
C51 C 0.02181 0.62688 0.04575 0.0
O52 O 0.99404 0.61695 0.98201 0.0
O53 O 0.02383 0.62337 0.97163 0.0
O54 O 0.00726 0.66129 0.03082 0.0
O55 O 0.02359 0.65714 -0.00061 0.0
Co56 Co 0.36122 0.35702 0.00974 0.0
O57 O 0.33903 0.34777 0.03202 0.0
O58 O 0.34846 0.37143 0.00328 0.0
C59 C 0.35475 0.32704 -0.00298 0.0
O60 O 0.38282 0.37012 0.98269 0.0
Co61 Co 0.3927 0.34687 0.02093 0.0
O62 O 0.40454 0.36098 0.98784 0.0
C63 C 0.39112 0.37713 0.05344 0.0
C64 C 0.336 0.36038 0.02083 0.0
C65 C 0.39836 0.37058 0.97591 0.0
O66 O 0.37813 0.37648 0.03808 0.0
O67 O 0.39723 0.36531 0.05121 0.0
O68 O 0.34653 0.33509 0.98498 0.0
O69 O 0.36554 0.33675 0.01699 0.0
Co70 Co 0.64833 0.0093 0.01312 0.0
O71 O 0.65911 0.9974 0.03429 0.0
O72 O 0.63467 0.9814 0.00633 0.0
C73 C 0.67699 0.03417 -0.00055 0.0
O74 O 0.63396 0.01672 0.98699 0.0
Co75 Co 0.65698 0.05089 0.02709 0.0
O76 O 0.64356 0.04825 0.99307 0.0
C77 C 0.62761 0.01774 0.05747 0.0
C78 C 0.64663 0.98103 0.02312 0.0
C79 C 0.63372 0.03208 0.9806 0.0
O80 O 0.62956 0.00585 0.04211 0.0
O81 O 0.63824 0.03621 0.05595 0.0
O82 O 0.66917 0.01728 0.98759 0.0
O83 O 0.66812 0.03503 0.02028 0.0
Co84 Co 0.67689 0.70003 0.33888 0.0
O85 O 0.68749 0.69005 0.36396 0.0
O86 O 0.70465 0.71363 0.33602 0.0
C87 C 0.65305 0.67038 0.3247 0.0
O88 O 0.67145 0.71394 0.30953 0.0
Co89 Co 0.6348 0.69122 0.34207 0.0
O90 O 0.64013 0.7042 0.30744 0.0
C91 C 0.6651 0.7214 0.37749 0.0
C92 C 0.70423 0.70227 0.35443 0.0
C93 C 0.6572 0.71422 0.29878 0.0
O94 O 0.67834 0.71959 0.36603 0.0
O95 O 0.64721 0.71053 0.37197 0.0
O96 O 0.67017 0.67784 0.31484 0.0
O97 O 0.65121 0.68048 0.34333 0.0
Co98 Co 0.30963 0.97758 0.33386 0.0
O99 O 0.33171 0.98781 0.31109 0.0
O100 O 0.32348 0.96415 0.33945 0.0
C101 C 0.31464 0.00678 0.34778 0.0
O102 O 0.28837 0.96352 0.36103 0.0
Co103 Co 0.27669 0.98595 0.32376 0.0
O104 O 0.26609 0.97206 0.35738 0.0
C105 C 0.27933 0.95655 0.29076 0.0
C106 C 0.33552 0.97557 0.32178 0.0
C107 C 0.27275 0.96261 0.36857 0.0
O108 O 0.29295 0.958 0.30555 0.0
O109 O 0.27238 0.96763 0.29341 0.0
O110 O 0.32385 0.99944 0.35887 0.0
O111 O 0.30401 0.9971 0.32767 0.0
Co112 Co 0.02965 0.33513 0.33499 0.0
O113 O 0.01834 0.34669 0.31409 0.0
O114 O 0.04281 0.36294 0.34191 0.0
C115 C 1.00152 0.30966 0.34894 0.0
O116 O 0.04462 0.32844 0.36097 0.0
Co117 Co 0.02236 0.29389 0.32188 0.0
O118 O 0.03703 0.29746 0.35496 0.0
C119 C 0.05186 0.32751 0.29219 0.0
C120 C 0.03075 0.36317 0.32518 0.0
C121 C 0.0461 0.31377 0.36725 0.0
O122 O 0.04847 0.33915 0.30581 0.0
O123 O 0.0424 0.30908 0.29478 0.0
O124 O 0.00895 0.32653 0.36083 0.0
O125 O 0.01036 0.30911 0.32789 0.0
Co126 Co 0.66613 0.9752 0.34184 0.0
O127 O 0.6543 0.98464 0.31812 0.0
O128 O 0.63857 0.96188 0.34767 0.0
C129 C 0.69072 0.00502 0.35403 0.0
O130 O 0.6734 0.96203 0.37025 0.0
Co131 Co 0.70758 0.98352 0.33284 0.0
O132 O 0.70519 0.97382 0.36932 0.0
C133 C 0.6748 0.95126 0.30315 0.0
C134 C 0.63807 0.97271 0.32914 0.0
C135 C 0.68879 0.96341 0.37982 0.0
O136 O 0.66275 0.95481 0.31473 0.0
O137 O 0.69297 0.96134 0.30701 0.0
O138 O 0.67415 0.99774 0.36554 0.0
O139 O 0.69153 0.99473 0.33467 0.0
Co140 Co 0.03295 0.69854 0.34031 0.0
O141 O 0.01129 0.68776 0.36378 0.0
O142 O 0.01752 0.71021 0.33403 0.0
C143 C 0.02944 0.66964 0.32853 0.0
O144 O 0.05323 0.7125 0.31172 0.0
Co145 Co 0.06808 0.69373 0.35034 0.0
O146 O 0.07734 0.7066 0.31592 0.0
C147 C 0.06485 0.7242 0.37972 0.0
C148 C 0.00619 0.69874 0.35222 0.0
C149 C 0.06926 0.7144 0.30403 0.0
O150 O 0.04925 0.71968 0.36718 0.0
O151 O 0.07377 0.715 0.37676 0.0
O152 O 0.01918 0.67564 0.31706 0.0
O153 O 0.04042 0.68046 0.34777 0.0
Co154 Co 0.31186 0.34089 0.34441 0.0
O155 O 0.3223 0.32925 0.36671 0.0
O156 O 0.2985 0.31292 0.33804 0.0
C157 C 0.34069 0.36564 0.33104 0.0
O158 O 0.2978 0.34809 0.31733 0.0
Co159 Co 0.32034 0.38254 0.35743 0.0
O160 O 0.30738 0.37966 0.32294 0.0
C161 C 0.29054 0.34957 0.38761 0.0
C162 C 0.31015 0.31271 0.35558 0.0
C163 C 0.29766 0.36344 0.31054 0.0
O164 O 0.29271 0.33762 0.3727 0.0
O165 O 0.30116 0.36803 0.38592 0.0
O166 O 0.33301 0.34864 0.31953 0.0
O167 O 0.33159 0.36669 0.35147 0.0
Co168 Co 0.3469 0.03368 0.66874 0.0
O169 O 0.3578 0.02379 0.69336 0.0
O170 O 0.37472 0.04813 0.66637 0.0
C171 C 0.32397 0.0041 0.65322 0.0
O172 O 0.3409 0.04761 0.64005 0.0
Co173 Co 0.3047 0.02382 0.67358 0.0
O174 O 0.30938 0.03713 0.63927 0.0
C175 C 0.33466 0.05396 0.70894 0.0
C176 C 0.3745 0.03661 0.68439 0.0
C177 C 0.32624 0.04754 0.63009 0.0
O178 O 0.34774 0.05249 0.6965 0.0
O179 O 0.3167 0.04289 0.70404 0.0
O180 O 0.34128 0.01239 0.64389 0.0
O181 O 0.32136 0.01327 0.67254 0.0
Co182 Co 0.98049 0.31472 0.67273 0.0
O183 O 1.00174 0.32477 0.64834 0.0
O184 O 0.99541 0.30248 0.67828 0.0
C185 C 0.98482 0.34397 0.68499 0.0
O186 O 0.96072 0.30102 0.70171 0.0
Co187 Co 0.94575 0.32055 0.66561 0.0
O188 O 0.93732 0.30805 0.70059 0.0
C189 C 0.94815 0.29063 0.63333 0.0
C190 C 0.00658 0.31346 0.65959 0.0
C191 C 0.94527 0.29957 0.711 0.0
O192 O 0.96317 0.29375 0.64632 0.0
O193 O 0.9403 0.30084 0.63666 0.0
O194 O 0.99501 0.33763 0.69588 0.0
O195 O 0.97341 0.33317 0.66609 0.0
Co196 Co 0.69312 0.66724 0.6719 0.0
O197 O 0.68376 0.6794 0.64854 0.0
O198 O 0.70707 0.69517 0.67809 0.0
C199 C 0.66378 0.64293 0.68443 0.0
O200 O 0.70635 0.65981 0.69991 0.0
Co201 Co 0.68381 0.62492 0.66105 0.0
O202 O 0.69556 0.62785 0.69659 0.0
C203 C 0.71396 0.65719 0.62998 0.0
C204 C 0.69615 0.69583 0.65977 0.0
C205 C 0.70568 0.64436 0.70811 0.0
O206 O 0.71252 0.66972 0.6446 0.0
O207 O 0.70276 0.63883 0.63206 0.0
O208 O 0.67138 0.66001 0.69571 0.0
O209 O 0.67328 0.64155 0.6648 0.0
Co210 Co 0.3312 0.30918 0.67455 0.0
O211 O 0.31891 0.31897 0.65244 0.0
O212 O 0.30356 0.29458 0.67986 0.0
C213 C 0.35489 0.33876 0.68916 0.0
O214 O 0.33915 0.29546 0.70105 0.0
Co215 Co 0.37324 0.31989 0.66336 0.0
O216 O 0.37018 0.30463 0.69539 0.0
C217 C 0.34147 0.29045 0.6296 0.0
C218 C 0.30275 0.30603 0.66261 0.0
C219 C 0.35421 0.29481 0.70727 0.0
O220 O 0.32895 0.29053 0.64527 0.0
O221 O 0.35954 0.30237 0.63212 0.0
O222 O 0.3382 0.33034 0.70048 0.0
O223 O 0.35624 0.32976 0.66858 0.0
Co224 Co 0.6979 0.02801 0.6794 0.0
O225 O 0.67607 0.01873 0.70241 0.0
O226 O 0.68502 0.04235 0.67368 0.0
C227 C 0.69142 0.99813 0.66631 0.0
O228 O 0.71894 0.04113 0.65173 0.0
Co229 Co 0.72983 0.01815 0.68817 0.0
O230 O 0.73901 0.02968 0.65277 0.0
C231 C 0.72905 0.04867 0.72138 0.0
C232 C 0.67284 0.03129 0.69148 0.0
C233 C 0.73323 0.04016 0.64247 0.0
O234 O 0.71526 0.04752 0.70731 0.0
O235 O 0.73554 0.03723 0.71811 0.0
O236 O 0.68287 0.00606 0.65486 0.0
O237 O 0.70256 0.00789 0.68599 0.0
Co238 Co 0.98119 0.67817 0.67866 0.0
O239 O 0.99031 0.66561 0.70164 0.0
O240 O 0.96694 0.65027 0.67207 0.0
C241 C 0.01076 0.70203 0.66639 0.0
O242 O 0.96823 0.68605 0.65074 0.0
Co243 Co 0.99135 0.72069 0.68971 0.0
O244 O 0.97873 0.7179 0.655 0.0
C245 C 0.96031 0.68861 0.72013 0.0
C246 C 0.97796 0.64936 0.68999 0.0
C247 C 0.96864 0.70152 0.64316 0.0
O248 O 0.96195 0.67592 0.70619 0.0
O249 O 0.97152 0.70694 0.71772 0.0
O250 O 1.00277 0.68503 0.65483 0.0
O251 O 1.00144 0.70367 0.68604 0.0
H252 H 0.15839 0.34593 0.15954 0.0
H253 H 0.16388 0.35582 0.07545 0.0
H254 H 0.13713 0.37958 0.12392 0.0
H255 H 0.16529 0.32618 0.12907 0.0
H256 H 0.16928 0.33152 0.0947 0.0
H257 H 0.19122 0.34713 0.16302 0.0
H258 H 0.24838 0.37046 0.13322 0.0
H259 H 0.20131 0.35122 0.07848 0.0
C260 C 0.15702 0.35325 0.14257 0.0
C261 C 0.14669 0.36291 0.14488 0.0
C262 C 0.16405 0.35133 0.11775 0.0
C263 C 0.16011 0.35873 0.09496 0.0
C264 C 0.1502 0.36879 0.09715 0.0
C265 C 0.14477 0.37184 0.12236 0.0
C266 C 0.17244 0.33834 0.11493 0.0
C267 C 0.19388 0.34894 0.12017 0.0
C268 C 0.20105 0.35175 0.14644 0.0
C269 C 0.2208 0.35981 0.15124 0.0
C270 C 0.2333 0.36519 0.12962 0.0
C271 C 0.22646 0.36207 0.10339 0.0
C272 C 0.20673 0.35411 0.09873 0.0
H273 H 0.68182 0.82979 0.15972 0.0
H274 H 0.66931 0.81588 0.07604 0.0
H275 H 0.66006 0.7716 0.13074 0.0
H276 H 0.69658 0.85529 0.12422 0.0
H277 H 0.68872 0.84918 0.09055 0.0
H278 H 0.66924 0.85004 0.15877 0.0
H279 H 0.64381 0.88213 0.13163 0.0
H280 H 0.67088 0.86302 0.07579 0.0
C281 C 0.67596 0.81925 0.1435 0.0
C282 C 0.67045 0.79988 0.14826 0.0
C283 C 0.67513 0.82516 0.11745 0.0
C284 C 0.66901 0.81141 0.09631 0.0
C285 C 0.66345 0.79207 0.10118 0.0
C286 C 0.66387 0.78644 0.12714 0.0
C287 C 0.68366 0.84649 0.11147 0.0
C288 C 0.67006 0.85391 0.11634 0.0
C289 C 0.66474 0.85544 0.1425 0.0
C290 C 0.65523 0.86555 0.14818 0.0
C291 C 0.65021 0.87341 0.12726 0.0
C292 C 0.6558 0.87257 0.10118 0.0
C293 C 0.66566 0.86276 0.09572 0.0
H294 H 0.16693 0.79903 0.15444 0.0
H295 H 0.16094 0.7981 0.06937 0.0
H296 H 0.11117 0.77548 0.11869 0.0
H297 H 0.19278 0.80275 0.12292 0.0
H298 H 0.19121 0.80661 0.08849 0.0
H299 H 0.19682 0.82876 0.15706 0.0
H300 H 0.23277 0.8867 0.12975 0.0
H301 H 0.20672 0.83932 0.07298 0.0
C302 C 0.15803 0.79649 0.13709 0.0
C303 C 0.13794 0.78672 0.13973 0.0
C304 C 0.16657 0.80152 0.11176 0.0
C305 C 0.15469 0.79591 0.08898 0.0
C306 C 0.13465 0.78625 0.09148 0.0
C307 C 0.12664 0.78296 0.11687 0.0
C308 C 0.18796 0.80989 0.10875 0.0
C309 C 0.19947 0.83154 0.11425 0.0
C310 C 0.20279 0.83867 0.14069 0.0
C311 C 0.21469 0.85854 0.14608 0.0
C312 C 0.22307 0.8714 0.12521 0.0
C313 C 0.22039 0.86468 0.09883 0.0
C314 C 0.2085 0.84467 0.09332 0.0
H315 H 0.37478 0.2081 0.84667 0.0
H316 H 0.36685 0.20424 0.93146 0.0
H317 H 0.33839 0.2258 0.88386 0.0
H318 H 0.39667 0.20433 0.87622 0.0
H319 H 0.39336 0.20306 0.91126 0.0
H320 H 0.37439 0.17478 0.8471 0.0
H321 H 0.36114 0.12122 0.88285 0.0
H322 H 0.37934 0.17197 0.9322 0.0
C323 C 0.36746 0.20911 0.8641 0.0
C324 C 0.35606 0.21763 0.86217 0.0
C325 C 0.37084 0.20351 0.88904 0.0
C326 C 0.36299 0.20691 0.91205 0.0
C327 C 0.35154 0.21526 0.91026 0.0
C328 C 0.34717 0.21926 0.88516 0.0
C329 C 0.38562 0.19749 0.89193 0.0
C330 C 0.37699 0.17574 0.88998 0.0
C331 C 0.37254 0.16648 0.86476 0.0
C332 C 0.36718 0.14693 0.86217 0.0
C333 C 0.36527 0.13635 0.88491 0.0
C334 C 0.36947 0.14515 0.91016 0.0
C335 C 0.37544 0.16493 0.91276 0.0
H336 H 0.86042 0.1855 0.85463 0.0
H337 H 0.86518 0.1981 0.93908 0.0
H338 H 0.89606 0.24385 0.88382 0.0
H339 H 0.85301 0.16001 0.88981 0.0
H340 H 0.85073 0.16515 0.92371 0.0
H341 H 0.8293 0.16067 0.85552 0.0
H342 H 0.77174 0.12861 0.88489 0.0
H343 H 0.8191 0.15276 0.93966 0.0
C344 C 0.86531 0.19582 0.87112 0.0
C345 C 0.87827 0.21549 0.86629 0.0
C346 C 0.85994 0.18937 0.89741 0.0
C347 C 0.86817 0.20293 0.91873 0.0
C348 C 0.88107 0.22261 0.91376 0.0
C349 C 0.88561 0.22874 0.88759 0.0
C350 C 0.84811 0.16786 0.90297 0.0
C351 C 0.82676 0.15912 0.89823 0.0
C352 C 0.81949 0.15583 0.87205 0.0
C353 C 0.79963 0.14488 0.86696 0.0
C354 C 0.78702 0.13799 0.88851 0.0
C355 C 0.79387 0.14072 0.91468 0.0
C356 C 0.81377 0.15135 0.91952 0.0
H357 H 0.83414 0.63478 0.84589 0.0
H358 H 0.83306 0.61966 0.92806 0.0
H359 H 0.88674 0.65232 0.88777 0.0
H360 H 0.80486 0.60534 0.86823 0.0
H361 H 0.80354 0.60547 0.90351 0.0
H362 H 0.80187 0.62946 0.84164 0.0
H363 H 0.77094 0.65332 0.87971 0.0
H364 H 0.79432 0.62628 0.92667 0.0
C365 C 0.8416 0.63569 0.86417 0.0
C366 C 0.86172 0.64512 0.86436 0.0
C367 C 0.83106 0.62691 0.8873 0.0
C368 C 0.84097 0.62715 0.91052 0.0
C369 C 0.86111 0.63656 0.91077 0.0
C370 C 0.87126 0.64573 0.88783 0.0
C371 C 0.80933 0.61511 0.88609 0.0
C372 C 0.8002 0.62747 0.8845 0.0
C373 C 0.79701 0.63321 0.85959 0.0
C374 C 0.78662 0.64279 0.85767 0.0
C375 C 0.77987 0.64695 0.88102 0.0
C376 C 0.78248 0.64103 0.90585 0.0
C377 C 0.79278 0.6314 0.90759 0.0
H378 H 0.82853 0.6781 0.49946 0.0
H379 H 0.8257 0.68674 0.41574 0.0
H380 H 0.79687 0.70377 0.47156 0.0
H381 H 0.83263 0.65788 0.4642 0.0
H382 H 0.83563 0.66496 0.43046 0.0
H383 H 0.8591 0.68281 0.49875 0.0
H384 H 0.91495 0.70095 0.4678 0.0
H385 H 0.86709 0.67968 0.41426 0.0
C386 C 0.82451 0.68414 0.48343 0.0
C387 C 0.81279 0.69193 0.4889 0.0
C388 C 0.82977 0.68266 0.45716 0.0
C389 C 0.82289 0.68897 0.43617 0.0
C390 C 0.81131 0.69697 0.44143 0.0
C391 C 0.80683 0.69881 0.4678 0.0
C392 C 0.83909 0.67077 0.45124 0.0
C393 C 0.86068 0.68158 0.45574 0.0
C394 C 0.86842 0.68593 0.48183 0.0
C395 C 0.88812 0.69337 0.48621 0.0
C396 C 0.89996 0.69622 0.46445 0.0
C397 C 0.89249 0.69112 0.43865 0.0
C398 C 0.87295 0.68425 0.43418 0.0
H399 H 0.34455 0.16223 0.49279 0.0
H400 H 0.33103 0.14731 0.40951 0.0
H401 H 0.32368 0.10397 0.46467 0.0
H402 H 0.35832 0.18736 0.45685 0.0
H403 H 0.35032 0.18078 0.42331 0.0
H404 H 0.33144 0.18235 0.4915 0.0
H405 H 0.30503 0.21331 0.4635 0.0
H406 H 0.33083 0.19262 0.40792 0.0
C407 C 0.33867 0.1515 0.47679 0.0
C408 C 0.33367 0.1323 0.48179 0.0
C409 C 0.33728 0.15703 0.45071 0.0
C410 C 0.33112 0.1431 0.42982 0.0
C411 C 0.3261 0.12396 0.43495 0.0
C412 C 0.32705 0.11866 0.46091 0.0
C413 C 0.34537 0.17822 0.44429 0.0
C414 C 0.33146 0.18526 0.449 0.0
C415 C 0.32657 0.18735 0.47518 0.0
C416 C 0.31706 0.1975 0.48066 0.0
C417 C 0.31138 0.20453 0.4594 0.0
C418 C 0.31618 0.20283 0.43313 0.0
C419 C 0.32625 0.19315 0.42801 0.0
H420 H 0.83904 0.13409 0.50017 0.0
H421 H 0.82935 0.12961 0.4155 0.0
H422 H 0.78173 0.10566 0.46885 0.0
H423 H 0.86309 0.13514 0.46608 0.0
H424 H 0.8603 0.13881 0.43205 0.0
H425 H 0.86656 0.16251 0.5005 0.0
H426 H 0.90998 0.21799 0.47319 0.0
H427 H 0.88066 0.17075 0.41695 0.0
C428 C 0.82943 0.13044 0.48338 0.0
C429 C 0.80952 0.12048 0.48776 0.0
C430 C 0.83687 0.13454 0.45736 0.0
C431 C 0.82395 0.12782 0.43561 0.0
C432 C 0.80403 0.11753 0.43977 0.0
C433 C 0.79708 0.11453 0.46578 0.0
C434 C 0.8581 0.14253 0.45265 0.0
C435 C 0.87082 0.16424 0.45776 0.0
C436 C 0.87403 0.1718 0.48404 0.0
C437 C 0.88815 0.19115 0.48945 0.0
C438 C 0.89891 0.20307 0.46872 0.0
C439 C 0.89656 0.19587 0.44266 0.0
C440 C 0.88216 0.17653 0.43701 0.0
H441 H 0.04348 0.53756 0.18545 0.0
H442 H 0.04013 0.54442 0.27017 0.0
H443 H 0.01457 0.5656 0.2162 0.0
H444 H 0.0694 0.54115 0.221 0.0
H445 H 0.06173 0.53541 0.25437 0.0
H446 H 0.05384 0.51575 0.18447 0.0
H447 H 0.03583 0.45828 0.20948 0.0
H448 H 0.04383 0.50171 0.2677 0.0
C449 C 0.03792 0.54162 0.2023 0.0
C450 C 0.02724 0.55065 0.19785 0.0
C451 C 0.0423 0.53887 0.22846 0.0
C452 C 0.03611 0.54565 0.2501 0.0
C453 C 0.02598 0.55525 0.24587 0.0
C454 C 0.02132 0.5572 0.21976 0.0
C455 C 0.05652 0.5323 0.2334 0.0
C456 C 0.04891 0.51108 0.22674 0.0
C457 C 0.04916 0.5053 0.2002 0.0
C458 C 0.04458 0.48632 0.19408 0.0
C459 C 0.03926 0.47293 0.21441 0.0
C460 C 0.03874 0.47814 0.24097 0.0
C461 C 0.04367 0.49736 0.24715 0.0
H462 H 0.52543 0.51254 0.18454 0.0
H463 H 0.52967 0.52487 0.26908 0.0
H464 H 0.56237 0.57052 0.21441 0.0
H465 H 0.51654 0.48661 0.21929 0.0
H466 H 0.51474 0.49186 0.25334 0.0
H467 H 0.49341 0.48853 0.18552 0.0
H468 H 0.43594 0.45875 0.21551 0.0
H469 H 0.48353 0.4812 0.26976 0.0
C470 C 0.53057 0.52279 0.20112 0.0
C471 C 0.54409 0.54236 0.19654 0.0
C472 C 0.5248 0.51633 0.22733 0.0
C473 C 0.5331 0.52975 0.24878 0.0
C474 C 0.54653 0.54931 0.24402 0.0
C475 C 0.55157 0.55548 0.21797 0.0
C476 C 0.51225 0.49488 0.2327 0.0
C477 C 0.49105 0.48713 0.22824 0.0
C478 C 0.48369 0.48412 0.20215 0.0
C479 C 0.46379 0.4739 0.19729 0.0
C480 C 0.45128 0.4676 0.21899 0.0
C481 C 0.45823 0.47013 0.2451 0.0
C482 C 0.47815 0.47998 0.24969 0.0
H483 H 0.49756 0.96385 0.17926 0.0
H484 H 0.49984 0.95712 0.26398 0.0
H485 H 0.55126 0.98138 0.21766 0.0
H486 H 0.46877 0.93882 0.20584 0.0
H487 H 0.4694 0.94049 0.24111 0.0
H488 H 0.46881 0.96539 0.17879 0.0
H489 H 0.43596 0.98743 0.21591 0.0
H490 H 0.45788 0.95912 0.26305 0.0
C491 C 0.5057 0.96623 0.19739 0.0
C492 C 0.52554 0.97371 0.1959 0.0
C493 C 0.49621 0.96048 0.22203 0.0
C494 C 0.507 0.96232 0.24513 0.0
C495 C 0.52693 0.97012 0.24362 0.0
C496 C 0.53599 0.97597 0.21905 0.0
C497 C 0.47444 0.94935 0.22288 0.0
C498 C 0.46565 0.96204 0.2214 0.0
C499 C 0.46329 0.96854 0.19658 0.0
C500 C 0.45273 0.97793 0.19443 0.0
C501 C 0.445 0.98118 0.21749 0.0
C502 C 0.44669 0.97442 0.24216 0.0
C503 C 0.45714 0.96496 0.24414 0.0
H504 H 0.49694 0.0125 0.83322 0.0
H505 H 0.49556 0.02304 0.74987 0.0
H506 H 0.46681 0.03996 0.80633 0.0
H507 H 0.50184 0.9932 0.79737 0.0
H508 H 0.50559 1.00113 0.76396 0.0
H509 H 0.52716 0.01482 0.83328 0.0
H510 H 0.58454 0.04022 0.80378 0.0
H511 H 0.53752 0.02049 0.74884 0.0
C512 C 0.49338 0.01906 0.81734 0.0
C513 C 0.48202 0.02721 0.82295 0.0
C514 C 0.4989 0.01802 0.79112 0.0
C515 C 0.4925 0.02493 0.77032 0.0
C516 C 0.48108 0.03311 0.77574 0.0
C517 C 0.47651 0.03473 0.80219 0.0
C518 C 0.50845 0.0064 0.78501 0.0
C519 C 0.52989 0.01753 0.79049 0.0
C520 C 0.537 0.02007 0.81676 0.0
C521 C 0.5568 0.02865 0.82166 0.0
C522 C 0.56941 0.03463 0.80013 0.0
C523 C 0.56263 0.0316 0.77388 0.0
C524 C 0.54286 0.02327 0.76914 0.0
H525 H 0.01235 0.50044 0.82433 0.0
H526 H 1.00069 0.48567 0.7407 0.0
H527 H 0.99269 0.44236 0.79638 0.0
H528 H 0.02607 0.52584 0.78935 0.0
H529 H 0.01978 0.51938 0.75523 0.0
H530 H 0.99928 0.52174 0.82125 0.0
H531 H 0.96478 0.54246 0.78721 0.0
H532 H 0.99898 0.52867 0.73689 0.0
C533 C 0.00702 0.48975 0.80825 0.0
C534 C 1.00218 0.47062 0.81337 0.0
C535 C 0.00615 0.4953 0.782 0.0
C536 C 1.0005 0.48143 0.76108 0.0
C537 C 0.99544 0.46229 0.76638 0.0
C538 C 0.99601 0.45702 0.79248 0.0
C539 C 0.01387 0.51642 0.77572 0.0
C540 C 0.99896 0.52232 0.77856 0.0
C541 C 0.99318 0.52461 0.80409 0.0
C542 C 0.98128 0.53245 0.80753 0.0
C543 C 0.97417 0.53669 0.78485 0.0
C544 C 0.98111 0.53628 0.75947 0.0
C545 C 0.99323 0.52868 0.75634 0.0
H546 H 0.50463 0.46733 0.83357 0.0
H547 H 0.49107 0.46427 0.75021 0.0
H548 H 0.44608 0.4404 0.80798 0.0
H549 H 0.5267 0.46826 0.79539 0.0
H550 H 0.52276 0.47374 0.7628 0.0
H551 H 0.53543 0.49337 0.83312 0.0
H552 H 0.57316 0.55138 0.80781 0.0
H553 H 0.53772 0.50716 0.75004 0.0
C554 C 0.49433 0.46416 0.81781 0.0
C555 C 0.47469 0.4545 0.82392 0.0
C556 C 0.50052 0.46855 0.79125 0.0
C557 C 0.48662 0.46229 0.77081 0.0
C558 C 0.46693 0.45207 0.77672 0.0
C559 C 0.46123 0.44905 0.80334 0.0
C560 C 0.52139 0.47644 0.78424 0.0
C561 C 0.5344 0.49783 0.79091 0.0
C562 C 0.54064 0.50382 0.81735 0.0
C563 C 0.55462 0.52311 0.82326 0.0
C564 C 0.56206 0.53656 0.80292 0.0
C565 C 0.55603 0.53119 0.77648 0.0
C566 C 0.54214 0.51167 0.7705 0.0
H567 H 0.70763 0.87064 0.51548 0.0
H568 H 0.70478 0.87588 0.60058 0.0
H569 H 0.678 0.89727 0.54932 0.0
H570 H 0.7313 0.86944 0.54679 0.0
H571 H 0.72766 0.86866 0.58182 0.0
H572 H 0.70543 0.84038 0.51804 0.0
H573 H 0.68775 0.78566 0.55351 0.0
H574 H 0.71418 0.83759 0.6021 0.0
C575 C 0.70208 0.87435 0.53274 0.0
C576 C 0.69129 0.88339 0.52925 0.0
C577 C 0.70653 0.87099 0.55851 0.0
C578 C 0.7005 0.87732 0.58077 0.0
C579 C 0.69006 0.88667 0.57746 0.0
C580 C 0.6851 0.88907 0.55179 0.0
C581 C 0.72005 0.86342 0.56236 0.0
C582 C 0.70998 0.8415 0.56054 0.0
C583 C 0.70359 0.83205 0.53562 0.0
C584 C 0.69536 0.81192 0.53312 0.0
C585 C 0.6935 0.80116 0.55564 0.0
C586 C 0.70032 0.81023 0.58048 0.0
C587 C 0.70856 0.83046 0.58299 0.0
H588 H 0.18547 0.84819 0.51134 0.0
H589 H 0.20537 0.85856 0.59295 0.0
H590 H 0.22793 0.90536 0.53804 0.0
H591 H 0.18331 0.82142 0.54245 0.0
H592 H 0.18531 0.82597 0.57738 0.0
H593 H 0.15638 0.821 0.51666 0.0
H594 H 0.10387 0.79866 0.56037 0.0
H595 H 0.15652 0.81588 0.60139 0.0
C596 C 0.19375 0.85803 0.52748 0.0
C597 C 0.20607 0.87775 0.52216 0.0
C598 C 0.1927 0.85101 0.55337 0.0
C599 C 0.20506 0.86392 0.57346 0.0
C600 C 0.21809 0.88344 0.56768 0.0
C601 C 0.21783 0.89027 0.54245 0.0
C602 C 0.18067 0.82943 0.55854 0.0
C603 C 0.15929 0.82189 0.55926 0.0
C604 C 0.14892 0.81839 0.53533 0.0
C605 C 0.1288 0.80959 0.53531 0.0
C606 C 0.11934 0.80533 0.55981 0.0
C607 C 0.12903 0.80664 0.58338 0.0
C608 C 0.14908 0.81535 0.58326 0.0
H609 H 0.16248 0.29658 0.51202 0.0
H610 H 0.16383 0.28901 0.59668 0.0
H611 H 0.21544 0.31169 0.55111 0.0
H612 H 0.13309 0.27212 0.53791 0.0
H613 H 0.13351 0.27321 0.57322 0.0
H614 H 0.13032 0.29613 0.51163 0.0
H615 H 0.10662 0.32647 0.55249 0.0
H616 H 0.12703 0.29564 0.59708 0.0
C617 C 0.17043 0.29839 0.53017 0.0
C618 C 0.19014 0.30502 0.52887 0.0
C619 C 0.16074 0.29269 0.55468 0.0
C620 C 0.17117 0.29403 0.57791 0.0
C621 C 0.19097 0.30114 0.57663 0.0
C622 C 0.20025 0.30673 0.55219 0.0
C623 C 0.13902 0.28234 0.55528 0.0
C624 C 0.13131 0.29597 0.55452 0.0
C625 C 0.12729 0.30136 0.5299 0.0
C626 C 0.11776 0.31186 0.52893 0.0
C627 C 0.11369 0.31813 0.55293 0.0
C628 C 0.11633 0.31185 0.57744 0.0
C629 C 0.12542 0.30099 0.57823 0.0
H630 H 0.04746 0.4214 0.05455 0.0
H631 H 0.98977 0.40893 0.06956 0.0
H632 H 0.05985 0.44837 0.08686 0.0
H633 H 1.00208 0.43541 0.10176 0.0
H634 H 0.02636 0.48866 0.15009 0.0
H635 H 0.02098 0.47058 0.1081 0.0
H636 H 0.05818 0.45057 0.13525 0.0
H637 H 0.06384 0.46896 0.17665 0.0
C638 C 0.03743 0.4244 0.06462 0.0
C639 C 0.0176 0.41284 0.0596 0.0
C640 C 0.04454 0.43987 0.08306 0.0
C641 C 0.03196 0.44413 0.09669 0.0
C642 C 0.01221 0.43282 0.09121 0.0
C643 C 1.00513 0.4174 0.07295 0.0
C644 C 0.03388 0.48094 0.14656 0.0
C645 C 0.04525 0.4799 0.16661 0.0
C646 C 0.03069 0.47046 0.12271 0.0
C647 C 0.03886 0.45884 0.11861 0.0
C648 C 0.05171 0.45938 0.13771 0.0
C649 C 0.05486 0.46981 0.16149 0.0
H650 H 0.62077 0.60247 0.06463 0.0
H651 H 0.58296 0.62507 0.07465 0.0
H652 H 0.60249 0.57781 0.09729 0.0
H653 H 0.56504 0.60078 0.10796 0.0
H654 H 0.5268 0.54701 0.15313 0.0
H655 H 0.54322 0.56664 0.11429 0.0
H656 H 0.59699 0.575 0.14372 0.0
H657 H 0.58044 0.55504 0.18169 0.0
C658 C 0.60873 0.60238 0.07407 0.0
C659 C 0.60342 0.61586 0.06707 0.0
C660 C 0.59819 0.58817 0.09278 0.0
C661 C 0.58217 0.58716 0.10515 0.0
C662 C 0.57702 0.60081 0.0984 0.0
C663 C 0.58747 0.61493 0.07954 0.0
C664 C 0.54198 0.55251 0.1506 0.0
C665 C 0.5524 0.5495 0.17013 0.0
C666 C 0.55146 0.564 0.12868 0.0
C667 C 0.5715 0.57268 0.12607 0.0
C668 C 0.58157 0.56848 0.14486 0.0
C669 C 0.57211 0.55702 0.16663 0.0
H670 H 0.37023 0.9513 0.07359 0.0
H671 H 0.40653 0.01301 0.06246 0.0
H672 H 0.39213 0.95258 0.10737 0.0
H673 H 0.42889 0.01422 0.09597 0.0
H674 H 0.451 0.00968 0.17967 0.0
H675 H 0.43297 0.01149 0.14238 0.0
H676 H 0.42297 0.95633 0.11219 0.0
H677 H 0.44009 0.95405 0.15029 0.0
C678 C 0.38291 0.96518 0.07836 0.0
C679 C 0.3866 0.98205 0.06524 0.0
C680 C 0.39564 0.96588 0.09756 0.0
C681 C 0.41255 0.98343 0.1041 0.0
C682 C 0.41601 1.00045 0.09151 0.0
C683 C 0.40315 0.99977 0.07234 0.0
C684 C 0.4452 0.99808 0.16483 0.0
C685 C 0.44674 0.98157 0.16823 0.0
C686 C 0.43491 0.99916 0.14333 0.0
C687 C 0.42605 0.98383 0.12456 0.0
C688 C 0.4291 0.96815 0.12669 0.0
C689 C 0.43927 0.967 0.1483 0.0
H690 H 0.4002 0.02497 0.93281 0.0
H691 H 0.40892 0.97974 0.96133 0.0
H692 H 0.42644 0.03459 0.90139 0.0
H693 H 0.43583 0.99 0.93148 0.0
H694 H 0.46197 0.99373 0.84978 0.0
H695 H 0.44064 0.98741 0.88693 0.0
H696 H 0.45913 0.04839 0.8923 0.0
H697 H 0.47988 0.0544 0.85395 0.0
C698 C 0.40799 0.01734 0.93264 0.0
C699 C 0.40233 1.00139 0.94905 0.0
C700 C 0.42315 0.02293 0.91482 0.0
C701 C 0.43323 0.01293 0.91354 0.0
C702 C 0.42812 0.99768 0.93119 0.0
C703 C 0.41273 0.99183 0.94843 0.0
C704 C 0.46187 0.00586 0.85938 0.0
C705 C 0.47263 0.02456 0.84908 0.0
C706 C 0.4496 1.00227 0.88077 0.0
C707 C 0.44797 0.01736 0.89271 0.0
C708 C 0.45965 0.03632 0.88332 0.0
C709 C 0.47173 0.03985 0.86159 0.0
H710 H 0.96743 0.38899 0.93572 0.0
H711 H 0.02906 0.41632 0.94218 0.0
H712 H 0.97123 0.41249 0.90289 0.0
H713 H 0.03287 0.44023 0.90977 0.0
H714 H 0.02892 0.46172 0.82599 0.0
H715 H 0.02851 0.4429 0.86362 0.0
H716 H 0.98096 0.44586 0.89699 0.0
H717 H 0.98118 0.46432 0.85856 0.0
C718 C 0.98182 0.40002 0.93015 0.0
C719 C 0.99794 0.40065 0.94155 0.0
C720 C 0.984 0.4137 0.91154 0.0
C721 C 1.00236 0.42848 0.90386 0.0
C722 C 0.0185 0.429 0.91505 0.0
C723 C 0.01632 0.41523 0.9336 0.0
C724 C 0.01881 0.45885 0.84186 0.0
C725 C 1.00516 0.46452 0.83957 0.0
C726 C 0.01852 0.44802 0.86343 0.0
C727 C 1.00452 0.44256 0.88323 0.0
C728 C 0.9917 0.44946 0.88182 0.0
C729 C 0.99199 0.46031 0.86012 0.0
H730 H 0.62686 0.5935 0.95652 0.0
H731 H 0.58269 0.60673 0.93944 0.0
H732 H 0.61068 0.56494 0.92707 0.0
H733 H 0.5669 0.57862 0.90994 0.0
H734 H 0.53494 0.52319 0.86711 0.0
H735 H 0.54909 0.54333 0.9073 0.0
H736 H 0.60569 0.55967 0.87929 0.0
H737 H 0.59147 0.53927 0.83974 0.0
C738 C 0.61375 0.59037 0.94652 0.0
C739 C 0.60619 0.60255 0.95023 0.0
C740 C 0.60445 0.57397 0.92974 0.0
C741 C 0.5874 0.56939 0.91638 0.0
C742 C 0.57975 0.58143 0.92039 0.0
C743 C 0.58901 0.59777 0.93708 0.0
C744 C 0.55032 0.53048 0.87023 0.0
C745 C 0.56218 0.5299 0.85043 0.0
C746 C 0.55845 0.54217 0.89299 0.0
C747 C 0.57854 0.55342 0.89618 0.0
C748 C 0.5902 0.55119 0.87754 0.0
C749 C 0.58208 0.53954 0.85486 0.0
H750 H 0.97139 0.5969 0.94212 0.0
H751 H 0.02145 0.59202 0.95347 0.0
H752 H 0.96043 0.57243 0.90621 0.0
H753 H 0.01032 0.56746 0.91794 0.0
H754 H 0.97955 0.51724 0.85728 0.0
H755 H 0.98142 0.53269 0.90057 0.0
H756 H 0.97976 0.5791 0.86144 0.0
H757 H 0.97945 0.56499 0.81879 0.0
C758 C 0.97979 0.59029 0.93739 0.0
C759 C 0.99744 0.59661 0.95021 0.0
C760 C 0.9735 0.57627 0.91695 0.0
C761 C 0.98455 0.5681 0.90944 0.0
C762 C 1.00145 0.57339 0.92357 0.0
C763 C 0.00792 0.58763 0.94364 0.0
C764 C 0.97947 0.53067 0.85787 0.0
C765 C 0.97919 0.53965 0.83421 0.0
C766 C 0.98036 0.53938 0.88267 0.0
C767 C 0.98047 0.55691 0.88422 0.0
C768 C 0.97921 0.56533 0.86081 0.0
C769 C 0.97886 0.55701 0.8362 0.0
H770 H 0.38776 0.38664 0.93672 0.0
H771 H 0.43648 0.385 0.96746 0.0
H772 H 0.40802 0.40898 0.9026 0.0
H773 H 0.45693 0.40802 0.93442 0.0
H774 H 0.48228 0.43065 0.85198 0.0
H775 H 0.46438 0.41106 0.88961 0.0
H776 H 0.43245 0.44061 0.89344 0.0
H777 H 0.44985 0.45946 0.85481 0.0
C778 C 0.40282 0.39114 0.93629 0.0
C779 C 0.41042 0.38386 0.95466 0.0
C780 C 0.41454 0.40416 0.91689 0.0
C781 C 0.43425 0.41048 0.91565 0.0
C782 C 0.44182 0.40329 0.93429 0.0
C783 C 0.43005 0.39006 0.95335 0.0
C784 C 0.47182 0.43332 0.86141 0.0
C785 C 0.46751 0.44662 0.85064 0.0
C786 C 0.46145 0.42203 0.88298 0.0
C787 C 0.44668 0.42397 0.89452 0.0
C788 C 0.44331 0.43828 0.88472 0.0
C789 C 0.45349 0.44934 0.86288 0.0
H790 H 0.61251 1.00202 0.94483 0.0
H791 H 0.62545 0.05975 0.96715 0.0
H792 H 0.59173 1.00105 0.90895 0.0
H793 H 0.60443 0.05852 0.93212 0.0
H794 H 0.58738 0.05972 0.8456 0.0
H795 H 0.60471 0.05991 0.88502 0.0
H796 H 0.56182 0.99986 0.89811 0.0
H797 H 0.54474 0.99962 0.85786 0.0
C798 C 0.61087 0.01444 0.94221 0.0
C799 C 0.62089 0.03104 0.95874 0.0
C800 C 0.59881 0.01382 0.9218 0.0
C801 C 0.59643 0.02975 0.91753 0.0
C802 C 0.60615 0.04612 0.93445 0.0
C803 C 0.61824 0.0468 0.95465 0.0
C804 C 0.58147 0.04667 0.85718 0.0
C805 C 0.56471 0.02967 0.84865 0.0
C806 C 0.59137 0.04675 0.87986 0.0
C807 C 0.58477 0.02984 0.89472 0.0
C808 C 0.56747 0.01306 0.88691 0.0
C809 C 0.5575 0.01299 0.86413 0.0
H810 H 0.59746 0.98023 0.06164 0.0
H811 H 0.62096 0.0377 0.09644 0.0
H812 H 0.56983 0.96826 0.09098 0.0
H813 H 0.59366 0.02567 0.12596 0.0
H814 H 0.53628 0.00408 0.16277 0.0
H815 H 0.5596 0.01382 0.12663 0.0
H816 H 0.56213 0.96192 0.13741 0.0
H817 H 0.53864 0.95221 0.17292 0.0
C818 C 0.59686 0.99028 0.07569 0.0
C819 C 0.6115 0.00994 0.07664 0.0
C820 C 0.58098 0.98342 0.09247 0.0
C821 C 0.57938 0.99605 0.11064 0.0
C822 C 0.59415 0.01563 0.11179 0.0
C823 C 0.60996 0.02248 0.09502 0.0
C824 C 0.5414 0.99453 0.15667 0.0
C825 C 0.53565 0.97737 0.17031 0.0
C826 C 0.55493 1.00019 0.1363 0.0
C827 C 0.56295 0.98878 0.12935 0.0
C828 C 0.55619 0.97099 0.14203 0.0
C829 C 0.54273 0.9654 0.16234 0.0
H830 H 0.05081 0.6339 0.07978 0.0
H831 H 0.99129 0.59239 0.06209 0.0
H832 H 0.05099 0.61266 0.11335 0.0
H833 H 0.99161 0.57057 0.09493 0.0
H834 H 0.99466 0.54751 0.1773 0.0
H835 H 0.99252 0.56514 0.14008 0.0
H836 H 0.0512 0.58398 0.11956 0.0
H837 H 0.05362 0.56729 0.15803 0.0
C838 C 0.03772 0.6202 0.08312 0.0
C839 C 0.02101 0.61489 0.06834 0.0
C840 C 0.03789 0.60783 0.10214 0.0
C841 C 0.02142 0.58961 0.10667 0.0
C842 C 1.00455 0.58449 0.09223 0.0
C843 C 1.00432 0.59703 0.07342 0.0
C844 C 0.00701 0.55516 0.16454 0.0
C845 C 0.02441 0.55625 0.17091 0.0
C846 C 1.00577 0.56525 0.14305 0.0
C847 C 0.02183 0.57648 0.12704 0.0
C848 C 0.0387 0.57603 0.13194 0.0
C849 C 0.04 0.56611 0.15369 0.0
H850 H 0.41356 0.37905 0.09472 0.0
H851 H 0.39071 0.41119 0.05772 0.0
H852 H 0.43242 0.4061 0.12492 0.0
H853 H 0.41002 0.43867 0.08827 0.0
H854 H 0.43122 0.46977 0.17395 0.0
H855 H 0.41338 0.44794 0.13669 0.0
H856 H 0.46053 0.43876 0.12189 0.0
H857 H 0.47783 0.45954 0.15974 0.0
C858 C 0.41254 0.39191 0.093 0.0
C859 C 0.40073 0.39298 0.07359 0.0
C860 C 0.42354 0.40753 0.1102 0.0
C861 C 0.42312 0.42473 0.10851 0.0
C862 C 0.41074 0.42564 0.08987 0.0
C863 C 0.39964 0.40989 0.0725 0.0
C864 C 0.43792 0.46337 0.16241 0.0
C865 C 0.45579 0.46608 0.17027 0.0
C866 C 0.42773 0.45096 0.14096 0.0
C867 C 0.43533 0.44121 0.1269 0.0
C868 C 0.45409 0.44568 0.13286 0.0
C869 C 0.46417 0.45789 0.15437 0.0
H870 H 0.69981 0.7442 0.40318 0.0
H871 H 0.64232 0.73427 0.39711 0.0
H872 H 0.70722 0.7687 0.4382 0.0
H873 H 0.64984 0.75875 0.43136 0.0
H874 H 0.66176 0.77966 0.51897 0.0
H875 H 0.65518 0.75957 0.47905 0.0
H876 H 0.71097 0.80115 0.4484 0.0
H877 H 0.71765 0.82117 0.48887 0.0
C878 C 0.68885 0.74734 0.40909 0.0
C879 C 0.67039 0.73701 0.39767 0.0
C880 C 0.69312 0.76146 0.42897 0.0
C881 C 0.67903 0.7655 0.43764 0.0
C882 C 0.66088 0.75571 0.42545 0.0
C883 C 0.65659 0.74163 0.40579 0.0
C884 C 0.67245 0.78465 0.50346 0.0
C885 C 0.69017 0.80191 0.5069 0.0
C886 C 0.6687 0.77321 0.48058 0.0
C887 C 0.68262 0.77875 0.46065 0.0
C888 C 0.70008 0.79644 0.46358 0.0
C889 C 0.70379 0.808 0.4865 0.0
H890 H 0.2813 0.93957 0.39815 0.0
H891 H 0.23754 0.95423 0.38664 0.0
H892 H 0.26147 0.91627 0.43165 0.0
H893 H 0.21761 0.93063 0.41951 0.0
H894 H 0.20285 0.90791 0.50592 0.0
H895 H 0.21747 0.92724 0.4667 0.0
H896 H 0.23201 0.88529 0.43848 0.0
H897 H 0.21765 0.86617 0.47834 0.0
C898 C 0.26747 0.93783 0.40269 0.0
C899 C 0.26115 0.94896 0.3898 0.0
C900 C 0.25597 0.92427 0.42167 0.0
C901 C 0.23786 0.92146 0.42816 0.0
C902 C 0.23154 0.93252 0.41518 0.0
C903 C 0.24303 0.94611 0.39631 0.0
C904 C 0.20858 0.90252 0.49084 0.0
C905 C 0.20911 0.88557 0.49505 0.0
C906 C 0.21702 0.9136 0.46837 0.0
C907 C 0.22621 0.90799 0.44962 0.0
C908 C 0.22538 0.8902 0.45282 0.0
C909 C 0.21686 0.87906 0.47535 0.0
H910 H 0.06381 0.29309 0.37425 0.0
H911 H 0.05807 0.3392 0.40978 0.0
H912 H 0.08392 0.29505 0.41166 0.0
H913 H 0.07795 0.34085 0.44748 0.0
H914 H 0.08303 0.30909 0.52228 0.0
H915 H 0.06894 0.31276 0.48226 0.0
H916 H 0.11751 0.32069 0.43698 0.0
H917 H 0.13262 0.31825 0.47788 0.0
C918 C 0.06692 0.30371 0.38999 0.0
C919 C 0.05916 0.31585 0.38924 0.0
C920 C 0.0786 0.30495 0.41121 0.0
C921 C 0.08248 0.31811 0.43235 0.0
C922 C 0.07516 0.3306 0.43134 0.0
C923 C 0.06378 0.32963 0.40983 0.0
C924 C 0.09122 0.3123 0.50413 0.0
C925 C 0.10937 0.31395 0.50367 0.0
C926 C 0.08296 0.31425 0.48109 0.0
C927 C 0.09226 0.31731 0.45667 0.0
C928 C 0.11014 0.31848 0.45572 0.0
C929 C 0.11871 0.31697 0.47907 0.0
H930 H 0.06665 0.361 0.26381 0.0
H931 H 0.07391 0.31235 0.2786 0.0
H932 H 0.09234 0.37281 0.23072 0.0
H933 H 0.09969 0.32436 0.24614 0.0
H934 H 0.15535 0.36157 0.19784 0.0
H935 H 0.13453 0.35559 0.23634 0.0
H936 H 0.09147 0.35455 0.18527 0.0
H937 H 0.11115 0.35903 0.14699 0.0
C938 C 0.07388 0.35301 0.26026 0.0
C939 C 0.06808 0.33561 0.27343 0.0
C940 C 0.08857 0.35977 0.24145 0.0
C941 C 0.09801 0.34951 0.23608 0.0
C942 C 0.0928 0.33264 0.25015 0.0
C943 C 0.07788 0.32566 0.26845 0.0
C944 C 0.14147 0.36009 0.1948 0.0
C945 C 0.13523 0.36114 0.16912 0.0
C946 C 0.12965 0.35683 0.21686 0.0
C947 C 0.11157 0.35495 0.21371 0.0
C948 C 0.10554 0.35645 0.18832 0.0
C949 C 0.11704 0.35921 0.16633 0.0
H950 H 0.69188 0.74241 0.27893 0.0
H951 H 0.6307 0.71778 0.26992 0.0
H952 H 0.69753 0.76679 0.2461 0.0
H953 H 0.63637 0.74183 0.237 0.0
H954 H 0.65001 0.79523 0.19352 0.0
H955 H 0.64839 0.77623 0.23212 0.0
H956 H 0.69354 0.76908 0.19888 0.0
H957 H 0.69527 0.78829 0.16086 0.0
C958 C 0.67963 0.74204 0.2698 0.0
C959 C 0.66083 0.72804 0.27712 0.0
C960 C 0.68288 0.75607 0.25103 0.0
C961 C 0.66741 0.75647 0.23914 0.0
C962 C 0.64864 0.7423 0.24621 0.0
C963 C 0.6454 0.72831 0.26491 0.0
C964 C 0.66001 0.79015 0.19508 0.0
C965 C 0.67283 0.79326 0.17443 0.0
C966 C 0.65892 0.77903 0.21691 0.0
C967 C 0.67063 0.77084 0.2184 0.0
C968 C 0.68438 0.77521 0.19854 0.0
C969 C 0.68542 0.78624 0.17677 0.0
H970 H 0.28079 0.92317 0.28752 0.0
H971 H 0.25649 0.95351 0.24924 0.0
H972 H 0.26258 0.89545 0.2571 0.0
H973 H 0.2388 0.92623 0.21877 0.0
H974 H 0.19721 0.87164 0.17912 0.0
H975 H 0.21207 0.89337 0.21768 0.0
H976 H 0.26138 0.8866 0.21044 0.0
H977 H 0.24609 0.86445 0.17252 0.0
C978 C 0.27177 0.92403 0.27245 0.0
C979 C 0.27005 0.94052 0.27086 0.0
C980 C 0.26128 0.90813 0.25513 0.0
C981 C 0.24893 0.90847 0.23586 0.0
C982 C 0.24767 0.9252 0.23391 0.0
C983 C 0.25803 0.94097 0.25121 0.0
C984 C 0.21083 0.87421 0.18662 0.0
C985 C 0.2205 0.86635 0.17328 0.0
C986 C 0.2195 0.88685 0.20835 0.0
C987 C 0.2381 0.89203 0.21676 0.0
C988 C 0.24704 0.88286 0.2046 0.0
C989 C 0.2383 0.87014 0.18297 0.0
H990 H 0.68575 0.92477 0.30198 0.0
H991 H 0.64776 0.93971 0.26372 0.0
H992 H 0.67709 0.89882 0.26932 0.0
H993 H 0.63994 0.91455 0.22967 0.0
H994 H 0.62498 0.86528 0.17309 0.0
H995 H 0.62621 0.88206 0.21479 0.0
H996 H 0.68546 0.89817 0.2256 0.0
H997 H 0.68389 0.88098 0.18491 0.0
C998 C 0.67549 0.92241 0.28648 0.0
C999 C 0.66761 0.93433 0.28501 0.0
C1000 C 0.67059 0.90762 0.26765 0.0
C1001 C 0.65814 0.90479 0.24639 0.0
C1002 C 0.64946 0.91613 0.24581 0.0
C1003 C 0.65401 0.93066 0.26516 0.0
C1004 C 0.63804 0.87199 0.1849 0.0
C1005 C 0.6543 0.87176 0.17581 0.0
C1006 C 0.63884 0.88176 0.20864 0.0
C1007 C 0.65598 0.89169 0.22357 0.0
C1008 C 0.67186 0.89045 0.21508 0.0
C1009 C 0.67098 0.88053 0.19162 0.0
H1010 H 0.10757 0.73311 0.29393 0.0
H1011 H 0.05402 0.72422 0.26285 0.0
H1012 H 0.12451 0.75293 0.25581 0.0
H1013 H 0.07108 0.74389 0.22439 0.0
H1014 H 0.10589 0.75108 0.14633 0.0
H1015 H 0.08919 0.73628 0.18694 0.0
H1016 H 0.13187 0.78574 0.23246 0.0
H1017 H 0.14837 0.80144 0.19116 0.0
C1018 C 0.09941 0.73541 0.27897 0.0
C1019 C 0.07939 0.72689 0.28122 0.0
C1020 C 0.10918 0.74694 0.25734 0.0
C1021 C 0.0991 0.74994 0.23727 0.0
C1022 C 0.07915 0.74176 0.23967 0.0
C1023 C 0.06941 0.7305 0.26161 0.0
C1024 C 0.11154 0.75924 0.16478 0.0
C1025 C 0.12828 0.77781 0.16526 0.0
C1026 C 0.10195 0.75061 0.18811 0.0
C1027 C 0.10906 0.75999 0.21272 0.0
C1028 C 0.12605 0.77829 0.21359 0.0
C1029 C 0.13552 0.7872 0.19002 0.0
H1030 H 0.28995 0.39132 0.29614 0.0
H1031 H 0.2762 0.33312 0.27511 0.0
H1032 H 0.26904 0.39005 0.261 0.0
H1033 H 0.25549 0.33211 0.23904 0.0
H1034 H 0.2085 0.33107 0.18792 0.0
H1035 H 0.22572 0.33132 0.22806 0.0
H1036 H 0.26918 0.39099 0.21393 0.0
H1037 H 0.25174 0.3908 0.17463 0.0
C1038 C 0.2826 0.37825 0.28388 0.0
C1039 C 0.28499 0.36237 0.2884 0.0
C1040 C 0.27057 0.37756 0.26361 0.0
C1041 C 0.26063 0.36104 0.24699 0.0
C1042 C 0.26276 0.345 0.25164 0.0
C1043 C 0.27478 0.34564 0.27216 0.0
C1044 C 0.22143 0.34437 0.19395 0.0
C1045 C 0.22876 0.36095 0.17823 0.0
C1046 C 0.23147 0.34443 0.21666 0.0
C1047 C 0.24896 0.36111 0.22415 0.0
C1048 C 0.2557 0.37793 0.20903 0.0
C1049 C 0.24572 0.37784 0.18643 0.0
H1050 H 0.26232 0.31156 0.39504 0.0
H1051 H 0.28178 0.37002 0.42317 0.0
H1052 H 0.23505 0.29925 0.42508 0.0
H1053 H 0.25481 0.35767 0.45337 0.0
H1054 H 0.19732 0.33279 0.49237 0.0
H1055 H 0.21998 0.34256 0.45531 0.0
H1056 H 0.22951 0.29564 0.47246 0.0
H1057 H 0.20678 0.28588 0.50887 0.0
C1058 C 0.26089 0.32179 0.40769 0.0
C1059 C 0.27436 0.3418 0.4067 0.0
C1060 C 0.24522 0.31473 0.42489 0.0
C1061 C 0.24264 0.32749 0.44151 0.0
C1062 C 0.2561 0.34746 0.44048 0.0
C1063 C 0.27174 0.35452 0.42333 0.0
C1064 C 0.20389 0.32432 0.48759 0.0
C1065 C 0.20039 0.30863 0.50334 0.0
C1066 C 0.21702 0.33 0.46665 0.0
C1067 C 0.22675 0.32001 0.46111 0.0
C1068 C 0.22222 0.30358 0.47596 0.0
C1069 C 0.20923 0.298 0.49687 0.0
H1070 H 0.6577 0.92884 0.39497 0.0
H1071 H 0.71718 0.96938 0.41436 0.0
H1072 H 0.65718 0.90633 0.42741 0.0
H1073 H 0.71653 0.9474 0.44738 0.0
H1074 H 0.71785 0.90047 0.48976 0.0
H1075 H 0.71602 0.91809 0.45208 0.0
H1076 H 0.65767 0.90039 0.47285 0.0
H1077 H 0.65916 0.88181 0.50936 0.0
C1078 C 0.67054 0.93311 0.40655 0.0
C1079 C 0.68748 0.9509 0.40206 0.0
C1080 C 0.67029 0.92017 0.42511 0.0
C1081 C 0.68691 0.92481 0.43983 0.0
C1082 C 0.70361 0.94296 0.43591 0.0
C1083 C 0.70392 0.95573 0.41719 0.0
C1084 C 0.70441 0.89975 0.48569 0.0
C1085 C 0.68874 0.88991 0.50281 0.0
C1086 C 0.70346 0.91021 0.46437 0.0
C1087 C 0.68688 0.91122 0.45979 0.0
C1088 C 0.67071 0.90007 0.47566 0.0
C1089 C 0.6716 0.88946 0.49675 0.0
H1090 H 0.04624 0.73778 0.41057 0.0
H1091 H 0.10261 0.7485 0.39084 0.0
H1092 H 0.06051 0.76299 0.44566 0.0
H1093 H 0.11677 0.77375 0.42538 0.0
H1094 H 0.13769 0.82404 0.48431 0.0
H1095 H 0.12123 0.8071 0.44296 0.0
H1096 H 0.07743 0.76 0.48814 0.0
H1097 H 0.09412 0.77574 0.52882 0.0
C1098 C 0.06167 0.74581 0.41333 0.0
C1099 C 0.0733 0.74098 0.39839 0.0
C1100 C 0.06981 0.76022 0.43329 0.0
C1101 C 0.08972 0.7703 0.4381 0.0
C1102 C 0.10143 0.76637 0.42187 0.0
C1103 C 0.09328 0.75174 0.40236 0.0
C1104 C 0.12448 0.81015 0.48548 0.0
C1105 C 0.11737 0.80143 0.51021 0.0
C1106 C 0.11499 0.80058 0.46181 0.0
C1107 C 0.09799 0.78236 0.46248 0.0
C1108 C 0.09027 0.77423 0.48708 0.0
C1109 C 0.09992 0.78347 0.51056 0.0
H1110 H 0.31152 0.0616 0.74001 0.0
H1111 H 0.37119 0.08208 0.72369 0.0
H1112 H 0.32112 0.08718 0.77351 0.0
H1113 H 0.38073 0.10794 0.75695 0.0
H1114 H 0.38625 0.12959 0.84468 0.0
H1115 H 0.37948 0.1092 0.80509 0.0
H1116 H 0.33656 0.12248 0.78074 0.0
H1117 H 0.34324 0.14277 0.82104 0.0
C1118 C 0.32669 0.07161 0.74342 0.0
C1119 C 0.34058 0.06962 0.72929 0.0
C1120 C 0.33218 0.08643 0.76244 0.0
C1121 C 0.35168 0.09963 0.76781 0.0
C1122 C 0.36558 0.09788 0.7534 0.0
C1123 C 0.3601 0.08304 0.73437 0.0
C1124 C 0.37557 0.12837 0.83062 0.0
C1125 C 0.36509 0.13751 0.83591 0.0
C1126 C 0.37178 0.11681 0.80785 0.0
C1127 C 0.35738 0.11411 0.78988 0.0
C1128 C 0.34758 0.12412 0.79446 0.0
C1129 C 0.35148 0.13583 0.8173 0.0
H1130 H 0.91445 0.29488 0.73964 0.0
H1131 H 0.95321 0.27324 0.73192 0.0
H1132 H 0.89708 0.27142 0.77412 0.0
H1133 H 0.9355 0.24943 0.7658 0.0
H1134 H 0.91485 0.22945 0.85147 0.0
H1135 H 0.93065 0.24848 0.81249 0.0
H1136 H 0.87594 0.23727 0.78258 0.0
H1137 H 0.86024 0.21852 0.82239 0.0
C1138 C 0.91927 0.28512 0.74525 0.0
C1139 C 0.93536 0.2861 0.73312 0.0
C1140 C 0.90914 0.27148 0.76481 0.0
C1141 C 0.91477 0.2584 0.77263 0.0
C1142 C 0.93085 0.25939 0.76047 0.0
C1143 C 0.94106 0.2731 0.74105 0.0
C1144 C 0.90618 0.23065 0.83616 0.0
C1145 C 0.88639 0.22255 0.83975 0.0
C1146 C 0.9152 0.24155 0.8138 0.0
C1147 C 0.90462 0.24461 0.79448 0.0
C1148 C 0.88455 0.23546 0.79733 0.0
C1149 C 0.8755 0.22451 0.81984 0.0
H1150 H 0.73834 0.67672 0.72715 0.0
H1151 H 0.7021 0.61508 0.73879 0.0
H1152 H 0.76113 0.67799 0.75991 0.0
H1153 H 0.72438 0.61642 0.77201 0.0
H1154 H 0.77265 0.61803 0.81443 0.0
H1155 H 0.75492 0.61989 0.77679 0.0
H1156 H 0.76615 0.67579 0.80572 0.0
H1157 H 0.78485 0.67441 0.84239 0.0
C1158 C 0.73507 0.66351 0.73702 0.0
C1159 C 0.7184 0.64579 0.73029 0.0
C1160 C 0.74818 0.66421 0.75578 0.0
C1161 C 0.74483 0.64725 0.76839 0.0
C1162 C 0.72782 0.62969 0.76219 0.0
C1163 C 0.71487 0.62895 0.74333 0.0
C1164 C 0.77194 0.63103 0.81225 0.0
C1165 C 0.77998 0.64595 0.83166 0.0
C1166 C 0.76142 0.63194 0.79091 0.0
C1167 C 0.75856 0.64774 0.78856 0.0
C1168 C 0.76792 0.66336 0.80681 0.0
C1169 C 0.77858 0.66252 0.82799 0.0
H1170 H 0.71767 0.63633 0.58956 0.0
H1171 H 0.74651 0.69334 0.62696 0.0
H1172 H 0.74443 0.64637 0.55968 0.0
H1173 H 0.77376 0.70331 0.59726 0.0
H1174 H 0.80572 0.71775 0.5155 0.0
H1175 H 0.78309 0.71042 0.5516 0.0
H1176 H 0.77683 0.65395 0.55882 0.0
H1177 H 0.79843 0.66079 0.52172 0.0
C1178 C 0.72978 0.65103 0.59151 0.0
C1179 C 0.72991 0.66401 0.61073 0.0
C1180 C 0.74528 0.65673 0.57451 0.0
C1181 C 0.76147 0.67556 0.57634 0.0
C1182 C 0.76152 0.68871 0.59527 0.0
C1183 C 0.74588 0.68301 0.61225 0.0
C1184 C 0.7997 0.70387 0.52506 0.0
C1185 C 0.80363 0.68974 0.51532 0.0
C1186 C 0.78681 0.69971 0.54591 0.0
C1187 C 0.77773 0.68139 0.55768 0.0
C1188 C 0.78313 0.668 0.54966 0.0
C1189 C 0.79584 0.67207 0.52865 0.0
H1190 H 0.36018 0.07728 0.61053 0.0
H1191 H 0.29863 0.04939 0.60161 0.0
H1192 H 0.36434 0.10154 0.57834 0.0
H1193 H 0.30281 0.0733 0.56931 0.0
H1194 H 0.31285 0.12582 0.5271 0.0
H1195 H 0.31264 0.10709 0.56519 0.0
H1196 H 0.3602 0.10437 0.53144 0.0
H1197 H 0.36052 0.12336 0.49396 0.0
C1198 C 0.34754 0.07617 0.60154 0.0
C1199 C 0.32907 0.06131 0.60872 0.0
C1200 C 0.34993 0.09013 0.58314 0.0
C1201 C 0.3339 0.08957 0.57148 0.0
C1202 C 0.31548 0.07453 0.57837 0.0
C1203 C 0.31309 0.06063 0.59671 0.0
C1204 C 0.32367 0.12181 0.52848 0.0
C1205 C 0.3368 0.12612 0.50785 0.0
C1206 C 0.32339 0.11083 0.55 0.0
C1207 C 0.3362 0.10392 0.55117 0.0
C1208 C 0.35021 0.1095 0.53136 0.0
C1209 C 0.35045 0.12042 0.50991 0.0
H1210 H 0.95342 0.25958 0.62868 0.0
H1211 H 0.92093 0.28341 0.59592 0.0
H1212 H 0.93614 0.23111 0.59933 0.0
H1213 H 0.90416 0.25541 0.56631 0.0
H1214 H 0.86774 0.19969 0.5245 0.0
H1215 H 0.88093 0.22128 0.56367 0.0
H1216 H 0.93485 0.22348 0.55293 0.0
H1217 H 0.92139 0.20159 0.51459 0.0
C1218 C 0.94273 0.25883 0.61509 0.0
C1219 C 0.93863 0.27383 0.61459 0.0
C1220 C 0.93277 0.24249 0.59836 0.0
C1221 C 0.91859 0.24085 0.58065 0.0
C1222 C 0.91459 0.2559 0.58016 0.0
C1223 C 0.92442 0.27212 0.59694 0.0
C1224 C 0.88212 0.20423 0.53132 0.0
C1225 C 0.89361 0.19909 0.51675 0.0
C1226 C 0.88979 0.21679 0.55343 0.0
C1227 C 0.90909 0.22443 0.56112 0.0
C1228 C 0.91994 0.21784 0.54775 0.0
C1229 C 0.91226 0.2053 0.52578 0.0
H1230 H 0.30641 0.25664 0.62367 0.0
H1231 H 0.36254 0.28945 0.58823 0.0
H1232 H 0.29803 0.22999 0.59166 0.0
H1233 H 0.35414 0.26323 0.55656 0.0
H1234 H 0.34518 0.2106 0.51868 0.0
H1235 H 0.34867 0.23038 0.55763 0.0
H1236 H 0.2926 0.22214 0.5429 0.0
H1237 H 0.28855 0.20128 0.50449 0.0
C1238 C 0.31686 0.25827 0.60894 0.0
C1239 C 0.33521 0.27511 0.60869 0.0
C1240 C 0.31208 0.24299 0.59073 0.0
C1241 C 0.3256 0.24432 0.57207 0.0
C1242 C 0.34362 0.26147 0.57126 0.0
C1243 C 0.34836 0.27662 0.5893 0.0
C1244 C 0.33319 0.21221 0.52426 0.0
C1245 C 0.3167 0.20459 0.50808 0.0
C1246 C 0.33535 0.22387 0.54641 0.0
C1247 C 0.32118 0.22834 0.55276 0.0
C1248 C 0.30385 0.21911 0.53834 0.0
C1249 C 0.30159 0.20726 0.51625 0.0
H1250 H 0.73525 0.07363 0.62714 0.0
H1251 H 0.757 0.03583 0.60829 0.0
H1252 H 0.75581 0.09604 0.59336 0.0
H1253 H 0.77684 0.05766 0.57364 0.0
H1254 H 0.8217 0.10517 0.52596 0.0
H1255 H 0.8043 0.08768 0.56521 0.0
H1256 H 0.75991 0.10049 0.54775 0.0
H1257 H 0.77803 0.11915 0.50977 0.0
C1258 C 0.7442 0.06995 0.61546 0.0
C1259 C 0.74446 0.05292 0.62037 0.0
C1260 C 0.75602 0.08282 0.59605 0.0
C1261 C 0.76819 0.07884 0.58076 0.0
C1262 C 0.76812 0.06157 0.58541 0.0
C1263 C 0.75653 0.04887 0.60509 0.0
C1264 C 0.80858 0.10485 0.53103 0.0
C1265 C 0.80118 0.11341 0.5145 0.0
C1266 C 0.79836 0.09445 0.55329 0.0
C1267 C 0.78038 0.09217 0.55939 0.0
C1268 C 0.77366 0.10187 0.54385 0.0
C1269 C 0.78401 0.11248 0.52186 0.0
H1270 H 0.94525 0.67017 0.61034 0.0
H1271 H 0.96264 0.73009 0.62627 0.0
H1272 H 0.92374 0.66855 0.57511 0.0
H1273 H 0.94088 0.72825 0.59199 0.0
H1274 H 0.92 0.72512 0.50628 0.0
H1275 H 0.93859 0.72675 0.54507 0.0
H1276 H 0.89439 0.66867 0.56565 0.0
H1277 H 0.87602 0.66693 0.52602 0.0
C1278 C 0.9445 0.68297 0.60641 0.0
C1279 C 0.95589 0.7003 0.62104 0.0
C1280 C 0.93199 0.68198 0.5864 0.0
C1281 C 0.93054 0.69828 0.58065 0.0
C1282 C 0.9418 0.7155 0.59551 0.0
C1283 C 0.95433 0.71652 0.61528 0.0
C1284 C 0.91405 0.71289 0.51947 0.0
C1285 C 0.89655 0.69594 0.5132 0.0
C1286 C 0.9247 0.71379 0.54175 0.0
C1287 C 0.91811 0.69776 0.55845 0.0
C1288 C 0.90005 0.68116 0.55299 0.0
C1289 C 0.88935 0.68027 0.53059 0.0
H1290 H 0.94821 0.71073 0.7453 0.0
H1291 H 0.93578 0.65166 0.73798 0.0
H1292 H 0.92224 0.70063 0.77664 0.0
H1293 H 0.90992 0.64161 0.77021 0.0
H1294 H 0.85582 0.62688 0.81582 0.0
H1295 H 0.87826 0.63731 0.77857 0.0
H1296 H 0.91653 0.69055 0.82165 0.0
H1297 H 0.89395 0.68037 0.85818 0.0
C1298 C 0.94003 0.69557 0.7505 0.0
C1299 C 0.9443 0.68205 0.73929 0.0
C1300 C 0.92509 0.68978 0.76855 0.0
C1301 C 0.91405 0.67034 0.77614 0.0
C1302 C 0.91801 0.65668 0.76458 0.0
C1303 C 0.93295 0.66247 0.74629 0.0
C1304 C 0.86878 0.64104 0.81687 0.0
C1305 C 0.87317 0.65283 0.83985 0.0
C1306 C 0.88177 0.64689 0.79576 0.0
C1307 C 0.8993 0.66468 0.79721 0.0
C1308 C 0.90313 0.67684 0.81968 0.0
C1309 C 0.89022 0.671 0.8407 0.0
H1310 H 0.32917 0.28077 0.74905 0.0
H1311 H 0.37653 0.27881 0.71315 0.0
H1312 H 0.32862 0.26024 0.78491 0.0
H1313 H 0.37568 0.25807 0.74868 0.0
H1314 H 0.35356 0.20611 0.80922 0.0
H1315 H 0.35186 0.22311 0.77 0.0
H1316 H 0.35556 0.26864 0.82104 0.0
H1317 H 0.35831 0.25262 0.85956 0.0
C1318 C 0.3393 0.27581 0.74865 0.0
C1319 C 0.35304 0.28164 0.72845 0.0
C1320 C 0.33898 0.26406 0.76912 0.0
C1321 C 0.35209 0.25755 0.76947 0.0
C1322 C 0.36532 0.26274 0.74876 0.0
C1323 C 0.36591 0.27479 0.7286 0.0
C1324 C 0.35413 0.21979 0.81199 0.0
C1325 C 0.35552 0.22764 0.8377 0.0
C1326 C 0.35305 0.22945 0.78961 0.0
C1327 C 0.35312 0.24694 0.79263 0.0
C1328 C 0.35491 0.25491 0.81818 0.0
C1329 C 0.35637 0.24558 0.8403 0.0
H1330 H 0.72714 0.08179 0.72752 0.0
H1331 H 0.7535 0.05166 0.76051 0.0
H1332 H 0.74607 0.10916 0.7583 0.0
H1333 H 0.7719 0.07853 0.79116 0.0
H1334 H 0.8149 0.13201 0.82906 0.0
H1335 H 0.79844 0.11153 0.7906 0.0
H1336 H 0.74956 0.11782 0.80591 0.0
H1337 H 0.76657 0.13945 0.84362 0.0
C1338 C 0.7368 0.08091 0.74145 0.0
C1339 C 0.7389 0.06458 0.74141 0.0
C1340 C 0.74767 0.0966 0.759 0.0
C1341 C 0.76082 0.09621 0.77676 0.0
C1342 C 0.7624 0.07962 0.77716 0.0
C1343 C 0.75166 0.06407 0.75972 0.0
C1344 C 0.801 0.12979 0.82368 0.0
C1345 C 0.79193 0.13712 0.83981 0.0
C1346 C 0.7914 0.11772 0.80182 0.0
C1347 C 0.77243 0.1125 0.79577 0.0
C1348 C 0.76409 0.1214 0.81018 0.0
C1349 C 0.7738 0.13369 0.83191 0.0
H1350 H 0.08211 0.40131 -0.00097 0.0
H1351 H 0.04731 0.34685 0.0384 0.0
H1352 H 0.11118 0.40129 0.01242 0.0
H1353 H 0.07607 0.34675 0.05142 0.0
H1354 H 0.12736 0.34248 0.05932 0.0
H1355 H 0.10343 0.34436 0.03235 0.0
H1356 H 0.12749 0.40423 0.057 0.0
H1357 H 0.15149 0.40233 0.08388 0.0
C1358 C 0.08066 0.38928 0.01032 0.0
C1359 C 0.06242 0.37414 0.01779 0.0
C1360 C 0.09728 0.38928 0.01796 0.0
C1361 C 0.09593 0.37393 0.03274 0.0
C1362 C 0.07763 0.35862 0.03963 0.0
C1363 C 0.06113 0.35878 0.0324 0.0
C1364 C 0.12813 0.3563 0.05796 0.0
C1365 C 0.14126 0.37224 0.07378 0.0
C1366 C 0.11424 0.35731 0.04282 0.0
C1367 C 0.11331 0.37432 0.04301 0.0
C1368 C 0.1278 0.39091 0.05644 0.0
C1369 C 0.1416 0.38986 0.07176 0.0
H1370 H 0.62774 0.68634 0.00612 0.0
H1371 H 0.67995 0.70336 0.04978 0.0
H1372 H 0.62973 0.7167 0.01982 0.0
H1373 H 0.68202 0.73378 0.0632 0.0
H1374 H 0.68941 0.79296 0.0666 0.0
H1375 H 0.68666 0.7649 0.04232 0.0
H1376 H 0.62722 0.73058 0.06512 0.0
H1377 H 0.63014 0.75858 0.08963 0.0
C1378 C 0.63967 0.69659 0.01855 0.0
C1379 C 0.65364 0.69244 0.02702 0.0
C1380 C 0.64081 0.71396 0.02633 0.0
C1381 C 0.65611 0.72765 0.04234 0.0
C1382 C 0.67022 0.72361 0.05049 0.0
C1383 C 0.66893 0.70612 0.04305 0.0
C1384 C 0.67557 0.77964 0.06538 0.0
C1385 C 0.65991 0.7779 0.07962 0.0
C1386 C 0.67406 0.76354 0.05186 0.0
C1387 C 0.65679 0.74552 0.05215 0.0
C1388 C 0.64067 0.7443 0.06446 0.0
C1389 C 0.64227 0.76032 0.0783 0.0
H1390 H 0.31034 0.97594 0.05896 0.0
H1391 H 0.31414 0.94225 0.99396 0.0
H1392 H 0.28092 0.94741 0.07368 0.0
H1393 H 0.2844 0.91378 0.00821 0.0
H1394 H 0.22205 0.89838 0.08684 0.0
H1395 H 0.24778 0.92567 0.06328 0.0
H1396 H 0.27268 0.89076 0.04333 0.0
H1397 H 0.24656 0.86336 0.06632 0.0
C1398 C 0.3048 0.96247 0.04768 0.0
C1399 C 0.31462 0.96135 0.02539 0.0
C1400 C 0.2878 0.94612 0.05595 0.0
C1401 C 0.28015 0.92823 0.04205 0.0
C1402 C 0.28993 0.92722 0.01955 0.0
C1403 C 0.30696 0.94357 0.01134 0.0
C1404 C 0.23269 0.8964 0.07659 0.0
C1405 C 0.23232 0.87878 0.07831 0.0
C1406 C 0.2476 0.9121 0.06343 0.0
C1407 C 0.2626 0.91061 0.05191 0.0
C1408 C 0.26137 0.89247 0.05187 0.0
C1409 C 0.24634 0.87669 0.0649 0.0
H1410 H 0.38947 0.06911 0.01146 0.0
H1411 H 0.34205 0.03566 0.95722 0.0
H1412 H 0.39049 0.09885 -0.0019 0.0
H1413 H 0.3432 0.06508 0.94376 0.0
H1414 H 0.39984 0.1462 0.93446 0.0
H1415 H 0.39878 0.11964 0.959 0.0
H1416 H 0.33685 0.08983 0.95903 0.0
H1417 H 0.33809 0.11618 0.93392 0.0
C1418 C 0.37926 0.06809 -0.00325 0.0
C1419 C 0.36569 0.04999 0.9854 0.0
C1420 C 0.37986 0.08513 0.98907 0.0
C1421 C 0.36679 0.08439 0.97006 0.0
C1422 C 0.35321 0.06623 0.9589 0.0
C1423 C 0.35268 0.04932 0.96644 0.0
C1424 C 0.38608 0.13435 0.94081 0.0
C1425 C 0.36905 0.1333 0.93263 0.0
C1426 C 0.38543 0.11904 0.9547 0.0
C1427 C 0.36771 0.10237 0.96054 0.0
C1428 C 0.35074 0.10223 0.95436 0.0
C1429 C 0.35141 0.11746 0.94039 0.0
H1430 H 0.95498 0.3295 0.00468 0.0
H1431 H 0.98884 0.31472 0.95415 0.0
H1432 H 0.92628 0.29839 0.99347 0.0
H1433 H 0.9601 0.28352 0.94306 0.0
H1434 H 0.88041 0.2548 0.92915 0.0
H1435 H 0.90677 0.28354 0.95118 0.0
H1436 H 0.93569 0.25196 0.96512 0.0
H1437 H 0.90913 0.22318 0.94326 0.0
C1438 C 0.9563 0.3196 0.9912 0.0
C1439 C 0.97415 0.32459 0.98015 0.0
C1440 C 0.93987 0.30178 0.98484 0.0
C1441 C 0.94098 0.28847 0.96761 0.0
C1442 C 0.95887 0.29338 0.95676 0.0
C1443 C 0.97528 0.31131 0.96286 0.0
C1444 C 0.89198 0.25379 0.93811 0.0
C1445 C 0.89269 0.23678 0.93492 0.0
C1446 C 0.90714 0.27025 0.9505 0.0
C1447 C 0.92341 0.27005 0.95948 0.0
C1448 C 0.92341 0.25256 0.95809 0.0
C1449 C 0.9081 0.23602 0.94603 0.0
H1450 H 0.69959 0.66563 0.95444 0.0
H1451 H 0.68901 0.62228 0.01235 0.0
H1452 H 0.72816 0.66573 0.93991 0.0
H1453 H 0.71802 0.62262 -0.00193 0.0
H1454 H 0.75447 0.61144 0.93405 0.0
H1455 H 0.72948 0.61265 0.95963 0.0
H1456 H 0.76026 0.67504 0.95301 0.0
H1457 H 0.78486 0.67363 0.92681 0.0
C1458 C 0.70345 0.6562 0.96422 0.0
C1459 C 0.69197 0.6439 0.98448 0.0
C1460 C 0.71999 0.6564 0.95609 0.0
C1461 C 0.72557 0.64433 0.96801 0.0
C1462 C 0.71412 0.63205 0.9884 0.0
C1463 C 0.69752 0.63187 -0.0034 0.0
C1464 C 0.75623 0.62545 0.93904 0.0
C1465 C 0.77154 0.64244 0.92848 0.0
C1466 C 0.74186 0.62616 0.95358 0.0
C1467 C 0.74261 0.64391 0.95783 0.0
C1468 C 0.75897 0.66108 0.94949 0.0
C1469 C 0.77322 0.66034 0.93484 0.0
H1470 H 0.93305 0.61064 0.01266 0.0
H1471 H 0.967 0.65983 0.96279 0.0
H1472 H 0.90391 0.61037 -0.00132 0.0
H1473 H 0.9383 0.65951 0.94894 0.0
H1474 H 0.85907 0.60427 0.93093 0.0
H1475 H 0.88424 0.60361 0.95685 0.0
H1476 H 0.91397 0.66599 0.96609 0.0
H1477 H 0.88907 0.66656 0.93976 0.0
C1478 C 0.93431 0.62141 -0.00115 0.0
C1479 C 0.95235 0.63523 0.98882 0.0
C1480 C 0.91765 0.62124 0.99083 0.0
C1481 C 0.91878 0.63507 0.97295 0.0
C1482 C 0.93688 0.64891 0.96319 0.0
C1483 C 0.95338 0.64896 0.97095 0.0
C1484 C 0.87059 0.61771 0.93949 0.0
C1485 C 0.87217 0.63547 0.93339 0.0
C1486 C 0.88507 0.61737 0.95422 0.0
C1487 C 0.90134 0.63479 0.96303 0.0
C1488 C 0.90185 0.65235 0.95909 0.0
C1489 C 0.88749 0.65269 0.94431 0.0
H1490 H 0.36865 0.30683 0.02163 0.0
H1491 H 0.33415 0.30396 0.95453 0.0
H1492 H 0.36454 0.2756 0.0083 0.0
H1493 H 0.33042 0.27291 0.94076 0.0
H1494 H 0.31829 0.21385 0.92481 0.0
H1495 H 0.31668 0.23885 0.95107 0.0
H1496 H 0.37638 0.26422 0.97289 0.0
H1497 H 0.37786 0.23924 0.94701 0.0
C1498 C 0.36018 0.29951 0.004 0.0
C1499 C 0.35187 0.30793 0.98895 0.0
C1500 C 0.35781 0.2816 -0.00361 0.0
C1501 C 0.34713 0.27169 0.9735 0.0
C1502 C 0.33846 0.27995 0.95879 0.0
C1503 C 0.34077 0.29786 0.96647 0.0
C1504 C 0.33082 0.22432 0.93615 0.0
C1505 C 0.34826 0.22472 0.93362 0.0
C1506 C 0.32998 0.23879 0.95088 0.0
C1507 C 0.34655 0.25386 0.96345 0.0
C1508 C 0.36334 0.25286 0.96348 0.0
C1509 C 0.36416 0.2384 0.94876 0.0
H1510 H 0.70247 0.03421 0.96404 0.0
H1511 H 0.69262 0.07231 0.01439 0.0
H1512 H 0.73264 0.06197 0.94928 0.0
H1513 H 0.72277 0.10017 -0.0007 0.0
H1514 H 0.76234 0.14197 0.93004 0.0
H1515 H 0.73482 0.11699 0.95438 0.0
H1516 H 0.76562 0.08735 0.96849 0.0
H1517 H 0.79321 0.1125 0.94437 0.0
C1518 C 0.70674 0.04852 0.97194 0.0
C1519 C 0.69514 0.05109 0.9903 0.0
C1520 C 0.72411 0.06439 0.96369 0.0
C1521 C 0.73014 0.08322 0.97332 0.0
C1522 C 0.71849 0.08582 0.99159 0.0
C1523 C 0.70125 0.06988 0.00019 0.0
C1524 C 0.76345 0.1305 0.93926 0.0
C1525 C 0.77992 0.12923 0.93557 0.0
C1526 C 0.7477 0.11617 0.95308 0.0
C1527 C 0.74799 0.1001 0.96304 0.0
C1528 C 0.76494 0.09948 0.96079 0.0
C1529 C 0.78081 0.11399 0.94733 0.0
H1530 H 0.67717 0.97641 0.01952 0.0
H1531 H 0.61712 0.94581 0.039 0.0
H1532 H 0.67925 0.94836 0.03132 0.0
H1533 H 0.6193 0.91812 0.05335 0.0
H1534 H 0.62493 0.86693 0.07182 0.0
H1535 H 0.62225 0.89155 0.04748 0.0
H1536 H 0.68163 0.93338 0.06697 0.0
H1537 H 0.68432 0.90837 0.08914 0.0
C1538 C 0.6644 0.96358 0.0265 0.0
C1539 C 0.64702 0.96323 0.02847 0.0
C1540 C 0.66559 0.94749 0.03362 0.0
C1541 C 0.64957 0.93083 0.04399 0.0
C1542 C 0.63197 0.9304 0.0452 0.0
C1543 C 0.63067 0.94634 0.03717 0.0
C1544 C 0.63751 0.88126 0.06985 0.0
C1545 C 0.65494 0.88571 0.08175 0.0
C1546 C 0.63595 0.89554 0.05636 0.0
C1547 C 0.65165 0.91477 0.05521 0.0
C1548 C 0.66924 0.91883 0.06659 0.0
C1549 C 0.67087 0.90447 0.07944 0.0
H1550 H 0.02719 0.69399 0.0573 0.0
H1551 H 0.05762 0.68627 0.9923 0.0
H1552 H 0.05511 0.72584 0.06722 0.0
H1553 H 0.08542 0.71837 0.00174 0.0
H1554 H 0.13683 0.76044 0.05848 0.0
H1555 H 0.10976 0.73325 0.03568 0.0
H1556 H 0.07506 0.7587 0.05225 0.0
H1557 H 0.10223 0.78579 0.0756 0.0
C1558 C 0.0398 0.69917 0.04501 0.0
C1559 C 0.04026 0.68755 0.0242 0.0
C1560 C 0.05575 0.71755 0.05045 0.0
C1561 C 0.07252 0.72478 0.03514 0.0
C1562 C 0.07282 0.71323 0.01404 0.0
C1563 C 0.05688 0.69482 0.00865 0.0
C1564 C 0.12372 0.76071 0.05612 0.0
C1565 C 0.12157 0.77513 0.06902 0.0
C1566 C 0.10809 0.74501 0.04321 0.0
C1567 C 0.09005 0.7435 0.04282 0.0
C1568 C 0.08861 0.75915 0.05289 0.0
C1569 C 0.10423 0.77482 0.06589 0.0
H1570 H 0.32876 0.38946 0.00986 0.0
H1571 H 0.30428 0.33363 0.0468 0.0
H1572 H 0.30047 0.39117 0.0228 0.0
H1573 H 0.27625 0.33527 0.0594 0.0
H1574 H 0.22221 0.33512 0.0661 0.0
H1575 H 0.24784 0.33544 0.04011 0.0
H1576 H 0.28719 0.39415 0.06739 0.0
H1577 H 0.26151 0.39383 0.09321 0.0
C1578 C 0.3173 0.37751 0.02051 0.0
C1579 C 0.3188 0.36148 0.02749 0.0
C1580 C 0.30113 0.37849 0.02789 0.0
C1581 C 0.28605 0.36328 0.0419 0.0
C1582 C 0.28743 0.34708 0.04822 0.0
C1583 C 0.30363 0.34624 0.04124 0.0
C1584 C 0.23612 0.34835 0.06565 0.0
C1585 C 0.23991 0.36442 0.08176 0.0
C1586 C 0.25085 0.34846 0.05104 0.0
C1587 C 0.26961 0.36471 0.05208 0.0
C1588 C 0.27291 0.38144 0.06612 0.0
C1589 C 0.25821 0.38126 0.08092 0.0
H1590 H 0.742 0.73001 0.34597 0.0
H1591 H 0.70602 0.67484 0.38309 0.0
H1592 H 0.77063 0.7299 0.36125 0.0
H1593 H 0.73444 0.67465 0.39796 0.0
H1594 H 0.78709 0.67076 0.40434 0.0
H1595 H 0.76242 0.67267 0.37907 0.0
H1596 H 0.78571 0.7318 0.40684 0.0
H1597 H 0.81028 0.72979 0.4322 0.0
C1598 C 0.7402 0.71785 0.35727 0.0
C1599 C 0.72174 0.70248 0.36344 0.0
C1600 C 0.75658 0.71779 0.36599 0.0
C1601 C 0.7548 0.70218 0.38058 0.0
C1602 C 0.73632 0.68673 0.38639 0.0
C1603 C 0.72002 0.68695 0.37809 0.0
C1604 C 0.78739 0.6844 0.40417 0.0
C1605 C 0.80065 0.70016 0.42012 0.0
C1606 C 0.77312 0.68542 0.39001 0.0
C1607 C 0.77196 0.7023 0.39127 0.0
C1608 C 0.78624 0.71862 0.40538 0.0
C1609 C 0.80036 0.7175 0.41983 0.0
H1610 H 0.34125 0.03419 0.38191 0.0
H1611 H 0.2911 0.02039 0.33519 0.0
H1612 H 0.34358 0.06442 0.39724 0.0
H1613 H 0.29329 0.05045 0.35089 0.0
H1614 H 0.29279 0.09062 0.42283 0.0
H1615 H 0.28982 0.06274 0.39781 0.0
H1616 H 0.34962 0.09673 0.37668 0.0
H1617 H 0.35241 0.12468 0.40132 0.0
C1618 C 0.33074 0.0376 0.37496 0.0
C1619 C 0.31597 0.02491 0.35745 0.0
C1620 C 0.33217 0.05496 0.38352 0.0
C1621 C 0.31869 0.0598 0.37504 0.0
C1622 C 0.30386 0.04706 0.35765 0.0
C1623 C 0.30263 0.02987 0.34873 0.0
C1624 C 0.30501 0.09231 0.41178 0.0
C1625 C 0.32272 0.10978 0.41352 0.0
C1626 C 0.30338 0.07637 0.39768 0.0
C1627 C 0.31957 0.07757 0.38562 0.0
C1628 C 0.33699 0.09543 0.38599 0.0
C1629 C 0.33851 0.11146 0.3997 0.0
H1630 H 0.97871 0.27475 0.32341 0.0
H1631 H 0.98678 0.30464 0.39885 0.0
H1632 H 0.95194 0.24508 0.34209 0.0
H1633 H 0.96043 0.27493 0.4175 0.0
H1634 H 0.93492 0.21244 0.44695 0.0
H1635 H 0.95941 0.23942 0.42159 0.0
H1636 H 0.91579 0.23548 0.3687 0.0
H1637 H 0.8909 0.20849 0.3948 0.0
C1638 C 0.97473 0.275 0.34391 0.0
C1639 C 0.98488 0.29198 0.35974 0.0
C1640 C 0.95938 0.25808 0.35448 0.0
C1641 C 0.95422 0.2578 0.38116 0.0
C1642 C 0.9642 0.27483 0.39684 0.0
C1643 C 0.97925 0.2918 0.38618 0.0
C1644 C 0.93056 0.21705 0.42956 0.0
C1645 C 0.91101 0.20852 0.42293 0.0
C1646 C 0.94456 0.23251 0.41518 0.0
C1647 C 0.9394 0.23963 0.39352 0.0
C1648 C 0.92004 0.23019 0.38542 0.0
C1649 C 0.90586 0.21473 0.40017 0.0
H1650 H 1.00007 0.36661 0.31361 0.0
H1651 H 0.06155 0.40027 0.32312 0.0
H1652 H 0.99981 0.39553 0.30107 0.0
H1653 H 0.06172 0.42913 0.30839 0.0
H1654 H 0.05909 0.48121 0.28629 0.0
H1655 H 0.05586 0.45434 0.31254 0.0
H1656 H 0.00603 0.41433 0.26538 0.0
H1657 H 0.0086 0.44114 0.241 0.0
C1658 C 0.01358 0.38026 0.3128 0.0
C1659 C 0.03084 0.38117 0.31903 0.0
C1660 C 0.0135 0.39691 0.3054 0.0
C1661 C 0.03078 0.41486 0.30305 0.0
C1662 C 0.04804 0.41579 0.31019 0.0
C1663 C 0.04803 0.39918 0.31841 0.0
C1664 C 0.04704 0.46672 0.2824 0.0
C1665 C 0.03419 0.46326 0.26145 0.0
C1666 C 0.04536 0.4512 0.29707 0.0
C1667 C 0.03091 0.43188 0.29092 0.0
C1668 C 0.01728 0.4288 0.2712 0.0
C1669 C 0.0188 0.44425 0.25695 0.0
H1670 H 0.6529 0.64327 0.29055 0.0
H1671 H 0.6158 0.65475 0.33921 0.0
H1672 H 0.62523 0.61185 0.27698 0.0
H1673 H 0.58833 0.6235 0.32574 0.0
H1674 H 0.57507 0.55052 0.2731 0.0
H1675 H 0.60086 0.57935 0.296 0.0
H1676 H 0.57027 0.6094 0.28315 0.0
H1677 H 0.54468 0.58063 0.26021 0.0
C1678 C 0.63888 0.6391 0.29832 0.0
C1679 C 0.63651 0.65153 0.31578 0.0
C1680 C 0.62308 0.62105 0.29081 0.0
C1681 C 0.60464 0.61519 0.30046 0.0
C1682 C 0.60234 0.62764 0.31793 0.0
C1683 C 0.6181 0.64556 0.32559 0.0
C1684 C 0.57354 0.56303 0.27631 0.0
C1685 C 0.55783 0.56335 0.26541 0.0
C1686 C 0.58841 0.57961 0.28894 0.0
C1687 C 0.58769 0.5967 0.29102 0.0
C1688 C 0.57119 0.59643 0.28199 0.0
C1689 C 0.55645 0.57994 0.26909 0.0
H1690 H 0.348 0.95191 0.34053 0.0
H1691 H 0.36286 0.99864 0.28651 0.0
H1692 H 0.37731 0.95206 0.32824 0.0
H1693 H 0.39167 0.99859 0.27399 0.0
H1694 H 0.44845 0.00607 0.2655 0.0
H1695 H 0.42273 0.00655 0.29003 0.0
H1696 H 0.3908 0.94387 0.29011 0.0
H1697 H 0.41692 0.94356 0.26626 0.0
C1698 C 0.35749 0.96219 0.32605 0.0
C1699 C 0.35307 0.97524 0.31448 0.0
C1700 C 0.37427 0.96227 0.319 0.0
C1701 C 0.38702 0.97549 0.30034 0.0
C1702 C 0.3825 0.98851 0.2889 0.0
C1703 C 0.36581 0.9884 0.29587 0.0
C1704 C 0.43627 0.99246 0.27178 0.0
C1705 C 0.43466 0.9748 0.2641 0.0
C1706 C 0.42139 0.99268 0.28546 0.0
C1707 C 0.40444 0.97523 0.29143 0.0
C1708 C 0.40362 0.95758 0.28589 0.0
C1709 C 0.41863 0.95738 0.27235 0.0
H1710 H 0.60115 0.94861 0.34679 0.0
H1711 H 0.63447 0.99541 0.29307 0.0
H1712 H 0.57198 0.94815 0.3328 0.0
H1713 H 0.60566 0.99481 0.27902 0.0
H1714 H 0.5563 1.00169 0.26831 0.0
H1715 H 0.58203 1.00238 0.29419 0.0
H1716 H 0.55106 0.93971 0.2931 0.0
H1717 H 0.52508 0.93918 0.26779 0.0
C1718 C 0.60227 0.9588 0.33206 0.0
C1719 C 0.62016 0.97204 0.32105 0.0
C1720 C 0.58556 0.95852 0.32403 0.0
C1721 C 0.58646 0.97161 0.30502 0.0
C1722 C 0.60441 0.98482 0.29416 0.0
C1723 C 0.62098 0.98503 0.30205 0.0
C1724 C 0.55466 0.9881 0.27464 0.0
C1725 C 0.53868 0.9704 0.26628 0.0
C1726 C 0.56952 0.98846 0.28909 0.0
C1727 C 0.56886 0.97109 0.29518 0.0
C1728 C 0.55205 0.95335 0.28883 0.0
C1729 C 0.53709 0.95302 0.27448 0.0
H1730 H 0.99673 0.63501 0.3206 0.0
H1731 H 0.0583 0.66242 0.32108 0.0
H1732 H 0.99359 0.60389 0.30973 0.0
H1733 H 0.05559 0.63194 0.3074 0.0
H1734 H 0.05039 0.57664 0.28705 0.0
H1735 H 0.04948 0.6017 0.3135 0.0
H1736 H 0.99497 0.58584 0.27698 0.0
H1737 H 0.99492 0.55948 0.2534 0.0
C1738 C 0.0096 0.63432 0.31789 0.0
C1739 C 0.02774 0.65101 0.32133 0.0
C1740 C 0.00788 0.61648 0.31148 0.0
C1741 C 0.02431 0.61508 0.30723 0.0
C1742 C 0.0425 0.63201 0.311 0.0
C1743 C 0.04415 0.64966 0.31846 0.0
C1744 C 0.03781 0.57795 0.28563 0.0
C1745 C 0.02298 0.56636 0.26747 0.0
C1746 C 0.03749 0.59274 0.30034 0.0
C1747 C 0.0226 0.59666 0.29669 0.0
C1748 C 0.00684 0.58367 0.28056 0.0
C1749 C 0.00688 0.56853 0.26662 0.0
H1750 H 0.36637 0.36507 0.29671 0.0
H1751 H 0.35647 0.404 0.34507 0.0
H1752 H 0.39671 0.39247 0.28185 0.0
H1753 H 0.38686 0.43155 0.32987 0.0
H1754 H 0.42692 0.47207 0.2598 0.0
H1755 H 0.39931 0.44775 0.2847 0.0
H1756 H 0.42958 0.41786 0.30086 0.0
H1757 H 0.45723 0.4423 0.27611 0.0
C1758 C 0.37068 0.37949 0.30417 0.0
C1759 C 0.35901 0.38239 0.32198 0.0
C1760 C 0.38816 0.39516 0.29587 0.0
C1761 C 0.39424 0.41414 0.30489 0.0
C1762 C 0.38254 0.41708 0.32263 0.0
C1763 C 0.36516 0.40133 0.3313 0.0
C1764 C 0.42789 0.46069 0.26955 0.0
C1765 C 0.44422 0.4591 0.26619 0.0
C1766 C 0.41209 0.44674 0.28372 0.0
C1767 C 0.41221 0.43077 0.29442 0.0
C1768 C 0.42904 0.42992 0.29258 0.0
C1769 C 0.44495 0.44403 0.27874 0.0
H1770 H 0.3375 0.31044 0.38348 0.0
H1771 H 0.28336 0.27462 0.34272 0.0
H1772 H 0.33817 0.28166 0.39557 0.0
H1773 H 0.28401 0.24551 0.35504 0.0
H1774 H 0.28355 0.20316 0.42118 0.0
H1775 H 0.28158 0.22841 0.39759 0.0
H1776 H 0.34126 0.25474 0.37634 0.0
H1777 H 0.34322 0.22957 0.40018 0.0
C1778 C 0.32573 0.29639 0.37699 0.0
C1779 C 0.31031 0.29485 0.36224 0.0
C1780 C 0.32623 0.27986 0.3837 0.0
C1781 C 0.31123 0.26125 0.37609 0.0
C1782 C 0.29579 0.25964 0.36121 0.0
C1783 C 0.29542 0.27629 0.35415 0.0
C1784 C 0.29607 0.214 0.41072 0.0
C1785 C 0.31356 0.21441 0.41261 0.0
C1786 C 0.29495 0.22848 0.39719 0.0
C1787 C 0.31134 0.24379 0.38545 0.0
C1788 C 0.32843 0.24331 0.38553 0.0
C1789 C 0.32951 0.22874 0.39888 0.0
H1790 H 0.69393 0.0282 0.39658 0.0
H1791 H 0.72595 0.02398 0.33085 0.0
H1792 H 0.7223 0.05832 0.41147 0.0
H1793 H 0.75421 0.05441 0.34522 0.0
H1794 H 0.80481 0.0917 0.40496 0.0
H1795 H 0.77744 0.066 0.38041 0.0
H1796 H 0.74386 0.09185 0.40214 0.0
H1797 H 0.77122 0.11728 0.42729 0.0
C1798 C 0.70698 0.03381 0.38517 0.0
C1799 C 0.70774 0.02363 0.36269 0.0
C1800 C 0.72323 0.05121 0.39351 0.0
C1801 C 0.7406 0.05891 0.37948 0.0
C1802 C 0.74118 0.04885 0.35667 0.0
C1803 C 0.72496 0.03141 0.34841 0.0
C1804 C 0.79182 0.09231 0.40357 0.0
C1805 C 0.7901 0.10643 0.41808 0.0
C1806 C 0.77604 0.07749 0.38962 0.0
C1807 C 0.75826 0.07657 0.38979 0.0
C1808 C 0.75717 0.09181 0.4022 0.0
C1809 C 0.7729 0.10654 0.41626 0.0
H1810 H 0.99822 0.72788 0.35802 0.0
H1811 H 0.97248 0.66579 0.36036 0.0
H1812 H 0.96817 0.72473 0.3735 0.0
H1813 H 0.9421 0.6623 0.37353 0.0
H1814 H 0.90345 0.66494 0.43682 0.0
H1815 H 0.92951 0.66637 0.4117 0.0
H1816 H 0.93588 0.71568 0.36917 0.0
H1817 H 0.91008 0.71466 0.39603 0.0
C1818 C 0.98596 0.71354 0.36131 0.0
C1819 C 0.98769 0.69711 0.3586 0.0
C1820 C 0.96864 0.71167 0.36995 0.0
C1821 C 0.95261 0.69324 0.37533 0.0
C1822 C 0.9542 0.67678 0.37063 0.0
C1823 C 0.97159 0.67873 0.3629 0.0
C1824 C 0.91011 0.67575 0.42157 0.0
C1825 C 0.90474 0.68959 0.41818 0.0
C1826 C 0.92509 0.67658 0.40698 0.0
C1827 C 0.93504 0.69119 0.38821 0.0
C1828 C 0.92883 0.70441 0.38369 0.0
C1829 C 0.91386 0.70368 0.39869 0.0
H1830 H 0.41208 0.06589 0.67871 0.0
H1831 H 0.37681 0.00885 0.71121 0.0
H1832 H 0.44093 0.0667 0.69527 0.0
H1833 H 0.40541 0.00958 0.7273 0.0
H1834 H 0.45906 0.00814 0.73597 0.0
H1835 H 0.43491 0.01001 0.7094 0.0
H1836 H 0.45439 0.06729 0.74201 0.0
H1837 H 0.47854 0.06538 0.76861 0.0
C1838 C 0.4105 0.05351 0.68921 0.0
C1839 C 0.39217 0.03735 0.69377 0.0
C1840 C 0.42699 0.05398 0.69867 0.0
C1841 C 0.42545 0.03812 0.71235 0.0
C1842 C 0.40711 0.02189 0.71646 0.0
C1843 C 0.3907 0.02156 0.70746 0.0
C1844 C 0.45868 0.02142 0.73668 0.0
C1845 C 0.47068 0.03662 0.75437 0.0
C1846 C 0.4447 0.0224 0.72172 0.0
C1847 C 0.44258 0.03869 0.72391 0.0
C1848 C 0.45569 0.05458 0.73983 0.0
C1849 C 0.46952 0.0535 0.75504 0.0
H1850 H 0.96058 0.35661 0.67178 0.0
H1851 H 0.01197 0.37282 0.71704 0.0
H1852 H 0.96264 0.38697 0.68551 0.0
H1853 H 0.0141 0.40327 0.73053 0.0
H1854 H 0.96225 0.42888 0.75428 0.0
H1855 H 0.95953 0.40073 0.73045 0.0
H1856 H 0.01941 0.43464 0.70966 0.0
H1857 H 0.02196 0.46284 0.73326 0.0
C1858 C 0.97235 0.36668 0.68459 0.0
C1859 C 0.98607 0.3623 0.69346 0.0
C1860 C 0.97351 0.38405 0.6924 0.0
C1861 C 0.98861 0.39754 0.70886 0.0
C1862 C 1.00247 0.39327 0.71747 0.0
C1863 C 1.00115 0.37576 0.70998 0.0
C1864 C 0.97454 0.43049 0.74353 0.0
C1865 C 0.99222 0.44801 0.74515 0.0
C1866 C 0.97306 0.41439 0.73008 0.0
C1867 C 0.98933 0.41546 0.71851 0.0
C1868 C 0.0067 0.43339 0.71862 0.0
C1869 C 0.0081 0.44958 0.73173 0.0
H1870 H 0.63253 0.6428 0.70423 0.0
H1871 H 0.65416 0.60509 0.68495 0.0
H1872 H 0.60261 0.61515 0.7192 0.0
H1873 H 0.62517 0.5776 0.70221 0.0
H1874 H 0.57054 0.52773 0.72853 0.0
H1875 H 0.59376 0.55423 0.70121 0.0
H1876 H 0.58893 0.59519 0.75292 0.0
H1877 H 0.56457 0.5687 0.77799 0.0
C1878 C 0.63092 0.62855 0.70358 0.0
C1879 C 0.64569 0.62609 0.69369 0.0
C1880 C 0.61377 0.6126 0.71234 0.0
C1881 C 0.61122 0.59384 0.71243 0.0
C1882 C 0.62611 0.59152 0.70212 0.0
C1883 C 0.64297 0.60739 0.69249 0.0
C1884 C 0.57392 0.54236 0.73328 0.0
C1885 C 0.566 0.54612 0.75578 0.0
C1886 C 0.58762 0.55771 0.71798 0.0
C1887 C 0.59398 0.5772 0.72515 0.0
C1888 C 0.58468 0.58063 0.74634 0.0
C1889 C 0.57071 0.56533 0.76109 0.0
H1890 H 0.72122 0.73304 0.67824 0.0
H1891 H 0.67342 0.70014 0.62436 0.0
H1892 H 0.72232 0.76296 0.66564 0.0
H1893 H 0.67465 0.72974 0.61165 0.0
H1894 H 0.66928 0.78087 0.60438 0.0
H1895 H 0.66838 0.75429 0.62837 0.0
H1896 H 0.7303 0.7842 0.62693 0.0
H1897 H 0.73105 0.81102 0.60347 0.0
C1898 C 0.71096 0.73218 0.66374 0.0
C1899 C 0.69723 0.71418 0.6523 0.0
C1900 C 0.71161 0.74932 0.65651 0.0
C1901 C 0.69843 0.74879 0.63786 0.0
C1902 C 0.68475 0.73073 0.62653 0.0
C1903 C 0.68416 0.71371 0.63363 0.0
C1904 C 0.68269 0.7821 0.61024 0.0
C1905 C 0.70022 0.79803 0.6023 0.0
C1906 C 0.68221 0.76675 0.62359 0.0
C1907 C 0.69926 0.76686 0.62902 0.0
C1908 C 0.7169 0.78362 0.62313 0.0
C1909 C 0.71736 0.79907 0.60986 0.0
H1910 H 0.2853 0.98881 0.65613 0.0
H1911 H 0.32801 0.97559 0.63008 0.0
H1912 H 0.25993 0.95708 0.63995 0.0
H1913 H 0.30282 0.94336 0.6156 0.0
H1914 H 0.25589 0.90144 0.55783 0.0
H1915 H 0.28149 0.92914 0.58128 0.0
H1916 H 0.24177 0.92328 0.64307 0.0
H1917 H 0.21567 0.89589 0.61812 0.0
C1918 C 0.28922 0.97898 0.64719 0.0
C1919 C 0.30859 0.98476 0.64386 0.0
C1920 C 0.27467 0.96064 0.63822 0.0
C1921 C 0.27918 0.9475 0.62625 0.0
C1922 C 0.29867 0.95315 0.624 0.0
C1923 C 0.31318 0.97165 0.63234 0.0
C1924 C 0.25272 0.90586 0.57671 0.0
C1925 C 0.23381 0.89672 0.58605 0.0
C1926 C 0.26747 0.92174 0.59036 0.0
C1927 C 0.26382 0.92878 0.61408 0.0
C1928 C 0.24508 0.91861 0.62454 0.0
C1929 C 0.23016 0.90272 0.61057 0.0
H1930 H 0.03267 0.33567 0.62224 0.0
H1931 H 0.02084 0.29187 0.68002 0.0
H1932 H 0.06185 0.33627 0.60956 0.0
H1933 H 0.0504 0.29271 0.66761 0.0
H1934 H 0.08845 0.28227 0.60565 0.0
H1935 H 0.06303 0.28324 0.63024 0.0
H1936 H 0.09372 0.34566 0.62423 0.0
H1937 H 0.11888 0.34452 0.59907 0.0
C1938 C 0.03636 0.32623 0.63237 0.0
C1939 C 0.02435 0.31365 0.65204 0.0
C1940 C 0.05326 0.32674 0.62531 0.0
C1941 C 0.05866 0.31469 0.63776 0.0
C1942 C 0.04667 0.30214 0.65756 0.0
C1943 C 0.02973 0.30166 0.66466 0.0
C1944 C 0.09017 0.29626 0.61066 0.0
C1945 C 0.1056 0.31332 0.60039 0.0
C1946 C 0.07551 0.29682 0.6246 0.0
C1947 C 0.07605 0.31448 0.6286 0.0
C1948 C 0.09257 0.33175 0.62085 0.0
C1949 C 0.10715 0.33116 0.60681 0.0
H1950 H 0.29858 0.32983 0.62931 0.0
H1951 H 0.2658 0.27982 0.67831 0.0
H1952 H 0.26935 0.32837 0.61543 0.0
H1953 H 0.23616 0.27849 0.66453 0.0
H1954 H 0.2185 0.33238 0.60416 0.0
H1955 H 0.24419 0.33346 0.63067 0.0
H1956 H 0.21618 0.27102 0.62423 0.0
H1957 H 0.1902 0.27007 0.5984 0.0
C1958 C 0.28511 0.31856 0.63732 0.0
C1959 C 0.28457 0.3049 0.65489 0.0
C1960 C 0.26828 0.31785 0.62955 0.0
C1961 C 0.25034 0.30346 0.6391 0.0
C1962 C 0.24973 0.28977 0.65678 0.0
C1963 C 0.2667 0.29053 0.66469 0.0
C1964 C 0.21745 0.31887 0.6095 0.0
C1965 C 0.20233 0.30114 0.59955 0.0
C1966 C 0.23229 0.31946 0.62431 0.0
C1967 C 0.23251 0.30235 0.62907 0.0
C1968 C 0.21648 0.28446 0.62105 0.0
C1969 C 0.20152 0.28387 0.60638 0.0
H1970 H 0.7065 0.9784 0.68919 0.0
H1971 H 0.67108 0.97556 0.62332 0.0
H1972 H 0.70355 0.94799 0.67414 0.0
H1973 H 0.6685 0.94534 0.60782 0.0
H1974 H 0.6573 0.88627 0.59115 0.0
H1975 H 0.65562 0.91135 0.6171 0.0
H1976 H 0.71563 0.93757 0.63778 0.0
H1977 H 0.71713 0.91238 0.61223 0.0
C1978 C 0.69807 0.97127 0.67147 0.0
C1979 C 0.68913 0.97944 0.65729 0.0
C1980 C 0.6964 0.95384 0.66285 0.0
C1981 C 0.68579 0.94419 0.6398 0.0
C1982 C 0.67652 0.9522 0.62593 0.0
C1983 C 0.67814 0.96962 0.63462 0.0
C1984 C 0.66992 0.89704 0.60205 0.0
C1985 C 0.68737 0.89746 0.59958 0.0
C1986 C 0.66904 0.91153 0.61662 0.0
C1987 C 0.6856 0.92673 0.62899 0.0
C1988 C 0.70258 0.92607 0.62859 0.0
C1989 C 0.70344 0.91154 0.61406 0.0
H1990 H 0.02141 0.73968 0.6588 0.0
H1991 H 0.04286 0.70056 0.65724 0.0
H1992 H 0.05238 0.76592 0.64419 0.0
H1993 H 0.07451 0.72702 0.6455 0.0
H1994 H 0.11995 0.76998 0.58952 0.0
H1995 H 0.09246 0.74506 0.61255 0.0
H1996 H 0.08337 0.78903 0.64883 0.0
H1997 H 0.1101 0.81372 0.62315 0.0
C1998 C 0.03297 0.73686 0.65572 0.0
C1999 C 0.02975 0.71811 0.6586 0.0
C2000 C 0.05093 0.752 0.6477 0.0
C2001 C 0.06635 0.74891 0.64334 0.0
C2002 C 0.06311 0.73013 0.6476 0.0
C2003 C 0.04494 0.71487 0.65455 0.0
C2004 C 0.11241 0.77431 0.60318 0.0
C2005 C 0.11724 0.79373 0.60488 0.0
C2006 C 0.09648 0.75995 0.61651 0.0
C2007 C 0.08513 0.76467 0.63255 0.0
C2008 C 0.09116 0.78452 0.63607 0.0
C2009 C 0.10681 0.79884 0.62192 0.0
H2010 H 1.00301 0.64521 0.72084 0.0
H2011 H 0.95201 0.61214 0.67244 0.0
H2012 H 1.00314 0.61575 0.73036 0.0
H2013 H 0.95214 0.58236 0.68207 0.0
H2014 H 0.00953 0.56484 0.73033 0.0
H2015 H 0.00828 0.59102 0.7085 0.0
H2016 H 0.9472 0.56173 0.7216 0.0
H2017 H 0.94842 0.53532 0.743 0.0
C2018 C 0.9918 0.63163 0.71218 0.0
C2019 C 0.97745 0.63106 0.69595 0.0
C2020 C 0.99201 0.61472 0.7174 0.0
C2021 C 0.97779 0.59669 0.7067 0.0
C2022 C 0.96332 0.59602 0.69058 0.0
C2023 C 0.96323 0.61307 0.68509 0.0
C2024 C 0.9957 0.56353 0.7275 0.0
C2025 C 0.97909 0.54805 0.73858 0.0
C2026 C 0.99502 0.57871 0.71537 0.0
C2027 C 0.97772 0.57871 0.71392 0.0
C2028 C 0.96077 0.56224 0.72246 0.0
C2029 C 0.96146 0.54708 0.73469 0.0
H2030 H 0.3893 0.36081 0.66492 0.0
H2031 H 0.35746 0.35915 0.73467 0.0
H2032 H 0.41658 0.39154 0.68046 0.0
H2033 H 0.38498 0.38958 0.75076 0.0
H2034 H 0.43225 0.44938 0.76943 0.0
H2035 H 0.40481 0.42384 0.74449 0.0
H2036 H 0.44057 0.40256 0.71411 0.0
H2037 H 0.46788 0.42826 0.73849 0.0
C2038 C 0.38816 0.367 0.68365 0.0
C2039 C 0.37129 0.35749 0.6987 0.0
C2040 C 0.40382 0.38461 0.69257 0.0
C2041 C 0.40305 0.3931 0.71688 0.0
C2042 C 0.38601 0.3837 0.73172 0.0
C2043 C 0.37028 0.36613 0.72267 0.0
C2044 C 0.43431 0.43959 0.7567 0.0
C2045 C 0.45218 0.44077 0.75597 0.0
C2046 C 0.41857 0.42481 0.74268 0.0
C2047 C 0.42034 0.41085 0.72774 0.0
C2048 C 0.43863 0.41308 0.72526 0.0
C2049 C 0.45438 0.42791 0.73915 0.0
H2050 H 0.66523 0.06008 0.6805 0.0
H2051 H 0.64149 0.00458 0.71817 0.0
H2052 H 0.6368 0.06151 0.69345 0.0
H2053 H 0.61328 0.00593 0.73077 0.0
H2054 H 0.55877 0.00493 0.73646 0.0
H2055 H 0.58467 0.00563 0.7107 0.0
H2056 H 0.62343 0.06441 0.73828 0.0
H2057 H 0.59749 0.0637 0.76393 0.0
C2058 C 0.65391 0.04816 0.69135 0.0
C2059 C 0.65565 0.03229 0.69849 0.0
C2060 C 0.63767 0.04897 0.69872 0.0
C2061 C 0.62273 0.03374 0.71287 0.0
C2062 C 0.62437 0.01773 0.71946 0.0
C2063 C 0.64065 0.01707 0.71249 0.0
C2064 C 0.5726 0.01826 0.73612 0.0
C2065 C 0.57617 0.03423 0.75228 0.0
C2066 C 0.58749 0.01859 0.72164 0.0
C2067 C 0.60614 0.03496 0.72286 0.0
C2068 C 0.60921 0.05161 0.7369 0.0
C2069 C 0.59438 0.05121 0.75159 0.0
loop_
_geom_bond_atom_site_label_1
_geom_bond_atom_site_label_2
_geom_bond_distance
_geom_bond_site_symmetry_2
_ccdc_geom_bond_type
Co0 O1 2.216 . S
Co0 O2 2.091 . S
Co0 O4 2.004 1_554 S
Co0 O10 2.021 . S
Co0 O12 2.137 1_454 S
Co0 O13 2.244 1_455 S
O1 Co0 2.216 . S
O1 C8 1.247 . S
O2 Co0 2.091 . S
O2 C8 1.261 . S
C3 O12 1.247 . S
C3 O13 1.272 1_556 S
O4 Co0 2.004 1_556 S
O4 C9 1.259 1_455 S
Co5 O6 2.061 1_554 S
Co5 O11 2.052 . S
Co5 O13 2.135 . S
O6 Co5 2.061 1_556 S
O6 C9 1.235 . S
C7 O10 1.238 1_655 S
C7 O11 1.241 . S
C8 O1 1.247 . S
C8 O2 1.261 . S
C9 O4 1.259 1_655 S
C9 O6 1.235 . S
O10 Co0 2.021 . S
O10 C7 1.238 1_455 S
O11 Co5 2.052 . S
O11 C7 1.241 . S
O12 Co0 2.137 1_656 S
O12 C3 1.247 . S
O13 Co0 2.244 1_655 S
O13 C3 1.272 1_554 S
O13 Co5 2.135 . S
Co14 O15 2.216 1_554 S
Co14 O16 2.091 . S
Co14 O18 2.004 . S
Co14 O24 2.021 1_554 S
Co14 O26 2.137 . S
Co14 O27 2.244 . S
O15 Co14 2.216 1_556 S
O15 C22 1.247 . S
O16 Co14 2.091 . S
O16 C22 1.261 1_554 S
C17 O26 1.247 . S
C17 O27 1.272 . S
O18 Co14 2.004 . S
O18 C23 1.259 . S
Co19 O20 2.061 . S
Co19 O25 2.052 1_554 S
Co19 O27 2.135 . S
O20 Co19 2.061 . S
O20 C23 1.235 . S
C21 O24 1.238 . S
C21 O25 1.241 . S
C22 O15 1.247 . S
C22 O16 1.261 1_556 S
C23 O18 1.259 . S
C23 O20 1.235 . S
O24 Co14 2.021 1_556 S
O24 C21 1.238 . S
O25 Co19 2.052 1_556 S
O25 C21 1.241 . S
O26 Co14 2.137 . S
O26 C17 1.247 . S
O27 Co14 2.244 . S
O27 C17 1.272 . S
O27 Co19 2.135 . S
Co28 O29 2.216 1_554 S
Co28 O30 2.091 . S
Co28 O32 2.004 . S
Co28 O38 2.021 1_554 S
Co28 O40 2.137 1_545 S
Co28 O41 2.244 1_545 S
O29 Co28 2.216 1_556 S
O29 C36 1.247 . S
O30 Co28 2.091 . S
O30 C36 1.261 1_554 S
C31 O40 1.247 . S
C31 O41 1.272 . S
O32 Co28 2.004 . S
O32 C37 1.259 . S
Co33 O34 2.061 . S
Co33 O39 2.052 1_554 S
Co33 O41 2.135 . S
O34 Co33 2.061 . S
O34 C37 1.235 1_565 S
C35 O38 1.238 1_565 S
C35 O39 1.241 . S
C36 O29 1.247 . S
C36 O30 1.261 1_556 S
C37 O32 1.259 . S
C37 O34 1.235 1_545 S
O38 Co28 2.021 1_556 S
O38 C35 1.238 1_545 S
O39 Co33 2.052 1_556 S
O39 C35 1.241 . S
O40 Co28 2.137 1_565 S
O40 C31 1.247 . S
O41 Co28 2.244 1_565 S
O41 C31 1.272 . S
O41 Co33 2.135 . S
Co42 O43 2.216 1_554 S
Co42 O44 2.091 . S
Co42 O46 2.004 . S
Co42 O52 2.021 1_554 S
Co42 O54 2.137 1_655 S
Co42 O55 2.244 1_655 S
O43 Co42 2.216 1_556 S
O43 C50 1.247 . S
O44 Co42 2.091 . S
O44 C50 1.261 1_554 S
C45 O54 1.247 . S
C45 O55 1.272 . S
O46 Co42 2.004 . S
O46 C51 1.259 1_655 S
Co47 O48 2.061 . S
Co47 O53 2.052 1_554 S
Co47 O55 2.135 . S
O48 Co47 2.061 . S
O48 C51 1.235 . S
C49 O52 1.238 1_455 S
C49 O53 1.241 . S
C50 O43 1.247 . S
C50 O44 1.261 1_556 S
C51 O46 1.259 1_455 S
C51 O48 1.235 . S
O52 Co42 2.021 1_556 S
O52 C49 1.238 1_655 S
O53 Co47 2.052 1_556 S
O53 C49 1.241 . S
O54 Co42 2.137 1_455 S
O54 C45 1.247 . S
O55 Co42 2.244 1_455 S
O55 C45 1.272 . S
O55 Co47 2.135 . S
Co56 O57 2.216 . S
Co56 O58 2.091 . S
Co56 O60 2.004 1_554 S
Co56 O66 2.021 . S
Co56 O68 2.137 1_554 S
Co56 O69 2.244 . S
O57 Co56 2.216 . S
O57 C64 1.247 . S
O58 Co56 2.091 . S
O58 C64 1.261 . S
C59 O68 1.247 . S
C59 O69 1.272 1_556 S
O60 Co56 2.004 1_556 S
O60 C65 1.259 . S
Co61 O62 2.061 1_554 S
Co61 O67 2.052 . S
Co61 O69 2.135 . S
O62 Co61 2.061 1_556 S
O62 C65 1.235 . S
C63 O66 1.238 . S
C63 O67 1.241 . S
C64 O57 1.247 . S
C64 O58 1.261 . S
C65 O60 1.259 . S
C65 O62 1.235 . S
O66 Co56 2.021 . S
O66 C63 1.238 . S
O67 Co61 2.052 . S
O67 C63 1.241 . S
O68 Co56 2.137 1_556 S
O68 C59 1.247 . S
O69 Co56 2.244 . S
O69 C59 1.272 1_554 S
O69 Co61 2.135 . S
Co70 O71 2.216 . S
Co70 O72 2.091 . S
Co70 O74 2.004 1_554 S
Co70 O80 2.021 . S
Co70 O82 2.137 1_564 S
Co70 O83 2.244 1_565 S
O71 Co70 2.216 . S
O71 C78 1.247 . S
O72 Co70 2.091 . S
O72 C78 1.261 . S
C73 O82 1.247 . S
C73 O83 1.272 1_556 S
O74 Co70 2.004 1_556 S
O74 C79 1.259 1_565 S
Co75 O76 2.061 1_554 S
Co75 O81 2.052 . S
Co75 O83 2.135 . S
O76 Co75 2.061 1_556 S
O76 C79 1.235 . S
C77 O80 1.238 1_545 S
C77 O81 1.241 . S
C78 O71 1.247 . S
C78 O72 1.261 . S
C79 O74 1.259 1_545 S
C79 O76 1.235 . S
O80 Co70 2.021 . S
O80 C77 1.238 1_565 S
O81 Co75 2.052 . S
O81 C77 1.241 . S
O82 Co70 2.137 1_546 S
O82 C73 1.247 . S
O83 Co70 2.244 1_545 S
O83 C73 1.272 1_554 S
O83 Co75 2.135 . S
Co84 O85 2.216 . S
Co84 O86 2.091 . S
Co84 O88 2.004 . S
Co84 O94 2.021 . S
Co84 O96 2.137 . S
Co84 O97 2.244 . S
O85 Co84 2.216 . S
O85 C92 1.247 . S
O86 Co84 2.091 . S
O86 C92 1.261 . S
C87 O96 1.247 . S
C87 O97 1.272 . S
O88 Co84 2.004 . S
O88 C93 1.259 . S
Co89 O90 2.061 . S
Co89 O95 2.052 . S
Co89 O97 2.135 . S
O90 Co89 2.061 . S
O90 C93 1.235 . S
C91 O94 1.238 . S
C91 O95 1.241 . S
C92 O85 1.247 . S
C92 O86 1.261 . S
C93 O88 1.259 . S
C93 O90 1.235 . S
O94 Co84 2.021 . S
O94 C91 1.238 . S
O95 Co89 2.052 . S
O95 C91 1.241 . S
O96 Co84 2.137 . S
O96 C87 1.247 . S
O97 Co84 2.244 . S
O97 C87 1.272 . S
O97 Co89 2.135 . S
Co98 O99 2.222 . S
Co98 O100 2.091 . S
Co98 O102 2.004 . S
Co98 O108 2.021 . S
Co98 O110 2.137 1_565 S
Co98 O111 2.244 1_565 S
O99 Co98 2.222 . S
O99 C106 1.274 . S
O100 Co98 2.091 . S
O100 C106 1.261 . S
C101 O110 1.247 . S
C101 O111 1.272 . S
O102 Co98 2.004 . S
O102 C107 1.259 . S
Co103 O104 2.061 . S
Co103 O109 2.052 . S
Co103 O111 2.135 1_565 S
O104 Co103 2.061 . S
O104 C107 1.235 . S
C105 O108 1.238 . S
C105 O109 1.241 . S
C106 O99 1.274 . S
C106 O100 1.261 . S
C107 O102 1.259 . S
C107 O104 1.235 . S
O108 Co98 2.021 . S
O108 C105 1.238 . S
O109 Co103 2.052 . S
O109 C105 1.241 . S
O110 Co98 2.137 1_545 S
O110 C101 1.247 . S
O111 Co98 2.244 1_545 S
O111 C101 1.272 . S
O111 Co103 2.135 1_545 S
Co112 O113 2.216 . S
Co112 O114 2.091 . S
Co112 O116 2.004 . S
Co112 O122 2.021 . S
Co112 O124 2.137 1_455 S
Co112 O125 2.245 1_455 S
O113 Co112 2.216 . S
O113 C120 1.247 . S
O114 Co112 2.091 . S
O114 C120 1.261 . S
C115 O124 1.247 . S
C115 O125 1.265 . S
O116 Co112 2.004 . S
O116 C121 1.259 . S
Co117 O118 2.061 . S
Co117 O123 2.052 . S
Co117 O125 2.142 1_455 S
O118 Co117 2.061 . S
O118 C121 1.235 . S
C119 O122 1.238 . S
C119 O123 1.241 . S
C120 O113 1.247 . S
C120 O114 1.261 . S
C121 O116 1.259 . S
C121 O118 1.235 . S
O122 Co112 2.021 . S
O122 C119 1.238 . S
O123 Co117 2.052 . S
O123 C119 1.241 . S
O124 Co112 2.137 1_655 S
O124 C115 1.247 . S
O125 Co112 2.245 1_655 S
O125 C115 1.265 . S
O125 Co117 2.142 1_655 S
Co126 O127 2.230 . S
Co126 O128 2.091 . S
Co126 O130 2.004 . S
Co126 O136 2.021 . S
Co126 O138 2.137 1_565 S
Co126 O139 2.244 1_565 S
O127 Co126 2.230 . S
O127 C134 1.247 . S
O128 Co126 2.091 . S
O128 C134 1.261 . S
C129 O138 1.247 . S
C129 O139 1.272 . S
O130 Co126 2.004 . S
O130 C135 1.259 . S
Co131 O132 2.061 . S
Co131 O137 2.052 . S
Co131 O139 2.135 1_565 S
O132 Co131 2.061 . S
O132 C135 1.235 . S
C133 O136 1.238 . S
C133 O137 1.241 . S
C134 O127 1.247 . S
C134 O128 1.261 . S
C135 O130 1.259 . S
C135 O132 1.235 . S
O136 Co126 2.021 . S
O136 C133 1.238 . S
O137 Co131 2.052 . S
O137 C133 1.241 . S
O138 Co126 2.137 1_545 S
O138 C129 1.247 . S
O139 Co126 2.244 1_545 S
O139 C129 1.272 . S
O139 Co131 2.135 1_545 S
Co140 O141 2.216 1_455 S
Co140 O142 2.091 1_455 S
Co140 O144 2.004 . S
Co140 O150 2.021 . S
Co140 O152 2.137 1_455 S
Co140 O153 2.244 . S
O141 Co140 2.216 1_655 S
O141 C148 1.247 . S
O142 Co140 2.091 1_655 S
O142 C148 1.261 . S
C143 O152 1.247 1_455 S
C143 O153 1.272 . S
O144 Co140 2.004 . S
O144 C149 1.259 . S
Co145 O146 2.061 . S
Co145 O151 2.052 . S
Co145 O153 2.135 . S
O146 Co145 2.061 . S
O146 C149 1.235 . S
C147 O150 1.238 . S
C147 O151 1.241 . S
C148 O141 1.247 . S
C148 O142 1.261 . S
C149 O144 1.259 . S
C149 O146 1.235 . S
O150 Co140 2.021 . S
O150 C147 1.238 . S
O151 Co145 2.052 . S
O151 C147 1.241 . S
O152 Co140 2.137 1_655 S
O152 C143 1.247 1_655 S
O153 Co140 2.244 . S
O153 C143 1.272 . S
O153 Co145 2.135 . S
Co154 O155 2.216 . S
Co154 O156 2.091 . S
Co154 O158 2.004 . S
Co154 O164 2.021 . S
Co154 O166 2.137 . S
Co154 O167 2.244 . S
O155 Co154 2.216 . S
O155 C162 1.247 . S
O156 Co154 2.091 . S
O156 C162 1.261 . S
C157 O166 1.247 . S
C157 O167 1.272 . S
O158 Co154 2.004 . S
O158 C163 1.259 . S
Co159 O160 2.061 . S
Co159 O165 2.052 . S
Co159 O167 2.135 . S
O160 Co159 2.061 . S
O160 C163 1.235 . S
C161 O164 1.238 . S
C161 O165 1.241 . S
C162 O155 1.247 . S
C162 O156 1.261 . S
C163 O158 1.259 . S
C163 O160 1.235 . S
O164 Co154 2.021 . S
O164 C161 1.238 . S
O165 Co159 2.052 . S
O165 C161 1.241 . S
O166 Co154 2.137 . S
O166 C157 1.247 . S
O167 Co154 2.244 . S
O167 C157 1.272 . S
O167 Co159 2.135 . S
Co168 O169 2.216 . S
Co168 O170 2.091 . S
Co168 O172 2.004 . S
Co168 O178 2.021 . S
Co168 O180 2.137 1_545 S
Co168 O181 2.244 1_545 S
O169 Co168 2.216 . S
O169 C176 1.247 . S
O170 Co168 2.091 . S
O170 C176 1.261 . S
C171 O180 1.247 . S
C171 O181 1.272 . S
O172 Co168 2.004 . S
O172 C177 1.259 . S
Co173 O174 2.061 . S
Co173 O179 2.052 . S
Co173 O181 2.135 1_545 S
O174 Co173 2.061 . S
O174 C177 1.235 . S
C175 O178 1.238 . S
C175 O179 1.241 . S
C176 O169 1.247 . S
C176 O170 1.261 . S
C177 O172 1.259 . S
C177 O174 1.235 . S
O178 Co168 2.021 . S
O178 C175 1.238 . S
O179 Co173 2.052 . S
O179 C175 1.241 . S
O180 Co168 2.137 1_565 S
O180 C171 1.247 . S
O181 Co168 2.244 1_565 S
O181 C171 1.272 . S
O181 Co173 2.135 1_565 S
Co182 O183 2.216 1_655 S
Co182 O184 2.091 1_655 S
Co182 O186 2.004 . S
Co182 O192 2.021 . S
Co182 O194 2.137 1_655 S
Co182 O195 2.244 . S
O183 Co182 2.216 1_455 S
O183 C190 1.247 . S
O184 Co182 2.091 1_455 S
O184 C190 1.261 . S
C185 O194 1.247 1_655 S
C185 O195 1.272 . S
O186 Co182 2.004 . S
O186 C191 1.259 . S
Co187 O188 2.061 . S
Co187 O193 2.052 . S
Co187 O195 2.135 . S
O188 Co187 2.061 . S
O188 C191 1.235 . S
C189 O192 1.238 . S
C189 O193 1.241 . S
C190 O183 1.247 . S
C190 O184 1.261 . S
C191 O186 1.259 . S
C191 O188 1.235 . S
O192 Co182 2.021 . S
O192 C189 1.238 . S
O193 Co187 2.052 . S
O193 C189 1.241 . S
O194 Co182 2.137 1_455 S
O194 C185 1.247 1_455 S
O195 Co182 2.244 . S
O195 C185 1.272 . S
O195 Co187 2.135 . S
Co196 O197 2.216 . S
Co196 O198 2.091 . S
Co196 O200 2.004 . S
Co196 O206 2.021 . S
Co196 O208 2.137 . S
Co196 O209 2.244 . S
O197 Co196 2.216 . S
O197 C204 1.247 . S
O198 Co196 2.091 . S
O198 C204 1.261 . S
C199 O208 1.247 . S
C199 O209 1.272 . S
O200 Co196 2.004 . S
O200 C205 1.259 . S
Co201 O202 2.061 . S
Co201 O207 2.052 . S
Co201 O209 2.135 . S
O202 Co201 2.061 . S
O202 C205 1.235 . S
C203 O206 1.238 . S
C203 O207 1.241 . S
C204 O197 1.247 . S
C204 O198 1.261 . S
C205 O200 1.259 . S
C205 O202 1.235 . S
O206 Co196 2.021 . S
O206 C203 1.238 . S
O207 Co201 2.052 . S
O207 C203 1.241 . S
O208 Co196 2.137 . S
O208 C199 1.247 . S
O209 Co196 2.244 . S
O209 C199 1.272 . S
O209 Co201 2.135 . S
Co210 O211 2.216 . S
Co210 O212 2.091 . S
Co210 O214 2.004 . S
Co210 O220 2.021 . S
Co210 O222 2.137 . S
Co210 O223 2.244 . S
O211 Co210 2.216 . S
O211 C218 1.247 . S
O212 Co210 2.091 . S
O212 C218 1.261 . S
C213 O222 1.247 . S
C213 O223 1.272 . S
O214 Co210 2.004 . S
O214 C219 1.259 . S
Co215 O216 2.061 . S
Co215 O221 2.052 . S
Co215 O223 2.135 . S
O216 Co215 2.061 . S
O216 C219 1.235 . S
C217 O220 1.238 . S
C217 O221 1.241 . S
C218 O211 1.247 . S
C218 O212 1.261 . S
C219 O214 1.259 . S
C219 O216 1.235 . S
O220 Co210 2.021 . S
O220 C217 1.238 . S
O221 Co215 2.052 . S
O221 C217 1.241 . S
O222 Co210 2.137 . S
O222 C213 1.247 . S
O223 Co210 2.244 . S
O223 C213 1.272 . S
O223 Co215 2.135 . S
Co224 O225 2.216 . S
Co224 O226 2.091 . S
Co224 O228 2.004 . S
Co224 O234 2.021 . S
Co224 O236 2.137 1_545 S
Co224 O237 2.179 1_545 S
O225 Co224 2.216 . S
O225 C232 1.247 . S
O226 Co224 2.091 . S
O226 C232 1.261 . S
C227 O236 1.247 . S
C227 O237 1.289 . S
O228 Co224 2.004 . S
O228 C233 1.259 . S
Co229 O230 2.061 . S
Co229 O235 2.052 . S
Co229 O237 2.128 1_545 S
O230 Co229 2.061 . S
O230 C233 1.235 . S
C231 O234 1.238 . S
C231 O235 1.241 . S
C232 O225 1.247 . S
C232 O226 1.261 . S
C233 O228 1.259 . S
C233 O230 1.235 . S
O234 Co224 2.021 . S
O234 C231 1.238 . S
O235 Co229 2.052 . S
O235 C231 1.241 . S
O236 Co224 2.137 1_565 S
O236 C227 1.247 . S
O237 Co224 2.179 1_565 S
O237 C227 1.289 . S
O237 Co229 2.128 1_565 S
Co238 O239 2.216 . S
Co238 O240 2.091 . S
Co238 O242 2.004 . S
Co238 O248 2.021 . S
Co238 O250 2.137 1_655 S
Co238 O251 2.246 . S
O239 Co238 2.216 . S
O239 C246 1.247 . S
O240 Co238 2.091 . S
O240 C246 1.261 . S
C241 O250 1.247 . S
C241 O251 1.257 1_455 S
O242 Co238 2.004 . S
O242 C247 1.259 . S
Co243 O244 2.061 . S
Co243 O249 2.052 . S
Co243 O251 2.151 . S
O244 Co243 2.061 . S
O244 C247 1.235 . S
C245 O248 1.238 . S
C245 O249 1.241 . S
C246 O239 1.247 . S
C246 O240 1.261 . S
C247 O242 1.259 . S
C247 O244 1.235 . S
O248 Co238 2.021 . S
O248 C245 1.238 . S
O249 Co243 2.052 . S
O249 C245 1.241 . S
O250 Co238 2.137 1_455 S
O250 C241 1.247 . S
O251 Co238 2.246 . S
O251 C241 1.257 1_655 S
O251 Co243 2.151 . S
H252 C260 0.930 . S
H253 C263 0.930 . S
H254 C265 0.930 . S
H255 C266 0.970 . S
H256 C266 0.970 . S
H257 C268 0.930 . S
H258 C270 0.930 . S
H259 C272 0.930 . S
C260 H252 0.930 . S
C260 C261 1.382 . S
C260 C262 1.426 . S
C261 C260 1.382 . S
C261 C265 1.389 . S
C262 C260 1.426 . S
C262 C263 1.375 . S
C262 C266 1.532 . S
C263 H253 0.930 . S
C263 C262 1.375 . S
C263 C264 1.416 . S
C264 C263 1.416 . S
C264 C265 1.371 . S
C265 H254 0.930 . S
C265 C261 1.389 . S
C265 C264 1.371 . S
C266 H255 0.970 . S
C266 H256 0.970 . S
C266 C262 1.532 . S
C266 C267 1.499 . S
C267 C266 1.499 . S
C267 C268 1.370 . S
C267 C272 1.415 . S
C268 H257 0.930 . S
C268 C267 1.370 . S
C268 C269 1.407 . S
C269 C268 1.407 . S
C269 C270 1.365 . S
C270 H258 0.930 . S
C270 C269 1.365 . S
C270 C271 1.393 . S
C271 C270 1.393 . S
C271 C272 1.387 . S
C272 H259 0.930 . S
C272 C267 1.415 . S
C272 C271 1.387 . S
H273 C281 0.930 . S
H274 C284 0.930 . S
H275 C286 0.930 . S
H276 C287 0.970 . S
H277 C287 0.970 . S
H278 C289 0.930 . S
H279 C291 0.930 . S
H280 C293 0.930 . S
C281 H273 0.930 . S
C281 C282 1.382 . S
C281 C283 1.426 . S
C282 C281 1.382 . S
C282 C286 1.389 . S
C283 C281 1.426 . S
C283 C284 1.375 . S
C283 C287 1.532 . S
C284 H274 0.930 . S
C284 C283 1.375 . S
C284 C285 1.416 . S
C285 C284 1.416 . S
C285 C286 1.371 . S
C286 H275 0.930 . S
C286 C282 1.389 . S
C286 C285 1.371 . S
C287 H276 0.970 . S
C287 H277 0.970 . S
C287 C283 1.532 . S
C287 C288 1.499 . S
C288 C287 1.499 . S
C288 C289 1.370 . S
C288 C293 1.415 . S
C289 H278 0.930 . S
C289 C288 1.370 . S
C289 C290 1.407 . S
C290 C289 1.407 . S
C290 C291 1.365 . S
C291 H279 0.930 . S
C291 C290 1.365 . S
C291 C292 1.393 . S
C292 C291 1.393 . S
C292 C293 1.387 . S
C293 H280 0.930 . S
C293 C288 1.415 . S
C293 C292 1.387 . S
H294 C302 0.930 . S
H295 C305 0.930 . S
H296 C307 0.930 . S
H297 C308 0.970 . S
H298 C308 0.970 . S
H299 C310 0.930 . S
H300 C312 0.930 . S
H301 C314 0.930 . S
C302 H294 0.930 . S
C302 C303 1.382 . S
C302 C304 1.426 . S
C303 C302 1.382 . S
C303 C307 1.389 . S
C304 C302 1.426 . S
C304 C305 1.375 . S
C304 C308 1.532 . S
C305 H295 0.930 . S
C305 C304 1.375 . S
C305 C306 1.416 . S
C306 C305 1.416 . S
C306 C307 1.371 . S
C307 H296 0.930 . S
C307 C303 1.389 . S
C307 C306 1.371 . S
C308 H297 0.970 . S
C308 H298 0.970 . S
C308 C304 1.532 . S
C308 C309 1.499 . S
C309 C308 1.499 . S
C309 C310 1.370 . S
C309 C314 1.415 . S
C310 H299 0.930 . S
C310 C309 1.370 . S
C310 C311 1.407 . S
C311 C310 1.407 . S
C311 C312 1.365 . S
C312 H300 0.930 . S
C312 C311 1.365 . S
C312 C313 1.393 . S
C313 C312 1.393 . S
C313 C314 1.387 . S
C314 H301 0.930 . S
C314 C309 1.415 . S
C314 C313 1.387 . S
H315 C323 0.930 . S
H316 C326 0.930 . S
H317 C328 0.930 . S
H318 C329 0.970 . S
H319 C329 0.970 . S
H320 C331 0.930 . S
H321 C333 0.930 . S
H322 C335 0.930 . S
C323 H315 0.930 . S
C323 C324 1.382 . S
C323 C325 1.426 . S
C324 C323 1.382 . S
C324 C328 1.389 . S
C325 C323 1.426 . S
C325 C326 1.375 . S
C325 C329 1.532 . S
C326 H316 0.930 . S
C326 C325 1.375 . S
C326 C327 1.416 . S
C327 C326 1.416 . S
C327 C328 1.371 . S
C328 H317 0.930 . S
C328 C324 1.389 . S
C328 C327 1.371 . S
C329 H318 0.970 . S
C329 H319 0.970 . S
C329 C325 1.532 . S
C329 C330 1.499 . S
C330 C329 1.499 . S
C330 C331 1.370 . S
C330 C335 1.415 . S
C331 H320 0.930 . S
C331 C330 1.370 . S
C331 C332 1.407 . S
C332 C331 1.407 . S
C332 C333 1.365 . S
C333 H321 0.930 . S
C333 C332 1.365 . S
C333 C334 1.393 . S
C334 C333 1.393 . S
C334 C335 1.387 . S
C335 H322 0.930 . S
C335 C330 1.415 . S
C335 C334 1.387 . S
H336 C344 0.930 . S
H337 C347 0.930 . S
H338 C349 0.930 . S
H339 C350 0.970 . S
H340 C350 0.970 . S
H341 C352 0.930 . S
H342 C354 0.930 . S
H343 C356 0.930 . S
C344 H336 0.930 . S
C344 C345 1.382 . S
C344 C346 1.426 . S
C345 C344 1.382 . S
C345 C349 1.389 . S
C346 C344 1.426 . S
C346 C347 1.375 . S
C346 C350 1.532 . S
C347 H337 0.930 . S
C347 C346 1.375 . S
C347 C348 1.416 . S
C348 C347 1.416 . S
C348 C349 1.371 . S
C349 H338 0.930 . S
C349 C345 1.389 . S
C349 C348 1.371 . S
C350 H339 0.970 . S
C350 H340 0.970 . S
C350 C346 1.532 . S
C350 C351 1.499 . S
C351 C350 1.499 . S
C351 C352 1.370 . S
C351 C356 1.415 . S
C352 H341 0.930 . S
C352 C351 1.370 . S
C352 C353 1.407 . S
C353 C352 1.407 . S
C353 C354 1.365 . S
C354 H342 0.930 . S
C354 C353 1.365 . S
C354 C355 1.393 . S
C355 C354 1.393 . S
C355 C356 1.387 . S
C356 H343 0.930 . S
C356 C351 1.415 . S
C356 C355 1.387 . S
H357 C365 0.930 . S
H358 C368 0.930 . S
H359 C370 0.930 . S
H360 C371 0.970 . S
H361 C371 0.970 . S
H362 C373 0.930 . S
H363 C375 0.930 . S
H364 C377 0.930 . S
C365 H357 0.930 . S
C365 C366 1.382 . S
C365 C367 1.426 . S
C366 C365 1.382 . S
C366 C370 1.389 . S
C367 C365 1.426 . S
C367 C368 1.375 . S
C367 C371 1.532 . S
C368 H358 0.930 . S
C368 C367 1.375 . S
C368 C369 1.416 . S
C369 C368 1.416 . S
C369 C370 1.371 . S
C370 H359 0.930 . S
C370 C366 1.389 . S
C370 C369 1.371 . S
C371 H360 0.970 . S
C371 H361 0.970 . S
C371 C367 1.532 . S
C371 C372 1.499 . S
C372 C371 1.499 . S
C372 C373 1.370 . S
C372 C377 1.415 . S
C373 H362 0.930 . S
C373 C372 1.370 . S
C373 C374 1.407 . S
C374 C373 1.407 . S
C374 C375 1.365 . S
C375 H363 0.930 . S
C375 C374 1.365 . S
C375 C376 1.393 . S
C376 C375 1.393 . S
C376 C377 1.387 . S
C377 H364 0.930 . S
C377 C372 1.415 . S
C377 C376 1.387 . S
H378 C386 0.930 . S
H379 C389 0.930 . S
H380 C391 0.930 . S
H381 C392 0.970 . S
H382 C392 0.970 . S
H383 C394 0.930 . S
H384 C396 0.930 . S
H385 C398 0.930 . S
C386 H378 0.930 . S
C386 C387 1.382 . S
C386 C388 1.426 . S
C387 C386 1.382 . S
C387 C391 1.389 . S
C388 C386 1.426 . S
C388 C389 1.375 . S
C388 C392 1.532 . S
C389 H379 0.930 . S
C389 C388 1.375 . S
C389 C390 1.416 . S
C390 C389 1.416 . S
C390 C391 1.371 . S
C391 H380 0.930 . S
C391 C387 1.389 . S
C391 C390 1.371 . S
C392 H381 0.970 . S
C392 H382 0.970 . S
C392 C388 1.532 . S
C392 C393 1.499 . S
C393 C392 1.499 . S
C393 C394 1.370 . S
C393 C398 1.415 . S
C394 H383 0.930 . S
C394 C393 1.370 . S
C394 C395 1.407 . S
C395 C394 1.407 . S
C395 C396 1.365 . S
C396 H384 0.930 . S
C396 C395 1.365 . S
C396 C397 1.393 . S
C397 C396 1.393 . S
C397 C398 1.387 . S
C398 H385 0.930 . S
C398 C393 1.415 . S
C398 C397 1.387 . S
H399 C407 0.930 . S
H400 C410 0.930 . S
H401 C412 0.930 . S
H402 C413 0.970 . S
H403 C413 0.970 . S
H404 C415 0.930 . S
H405 C417 0.930 . S
H406 C419 0.930 . S
C407 H399 0.930 . S
C407 C408 1.382 . S
C407 C409 1.426 . S
C408 C407 1.382 . S
C408 C412 1.389 . S
C409 C407 1.426 . S
C409 C410 1.375 . S
C409 C413 1.532 . S
C410 H400 0.930 . S
C410 C409 1.375 . S
C410 C411 1.416 . S
C411 C410 1.416 . S
C411 C412 1.371 . S
C412 H401 0.930 . S
C412 C408 1.389 . S
C412 C411 1.371 . S
C413 H402 0.970 . S
C413 H403 0.970 . S
C413 C409 1.532 . S
C413 C414 1.499 . S
C414 C413 1.499 . S
C414 C415 1.370 . S
C414 C419 1.415 . S
C415 H404 0.930 . S
C415 C414 1.370 . S
C415 C416 1.407 . S
C416 C415 1.407 . S
C416 C417 1.365 . S
C417 H405 0.930 . S
C417 C416 1.365 . S
C417 C418 1.393 . S
C418 C417 1.393 . S
C418 C419 1.387 . S
C419 H406 0.930 . S
C419 C414 1.415 . S
C419 C418 1.387 . S
H420 C428 0.930 . S
H421 C431 0.930 . S
H422 C433 0.930 . S
H423 C434 0.970 . S
H424 C434 0.970 . S
H425 C436 0.930 . S
H426 C438 0.930 . S
H427 C440 0.930 . S
C428 H420 0.930 . S
C428 C429 1.382 . S
C428 C430 1.426 . S
C429 C428 1.382 . S
C429 C433 1.389 . S
C430 C428 1.426 . S
C430 C431 1.375 . S
C430 C434 1.532 . S
C431 H421 0.930 . S
C431 C430 1.375 . S
C431 C432 1.416 . S
C432 C431 1.416 . S
C432 C433 1.371 . S
C433 H422 0.930 . S
C433 C429 1.389 . S
C433 C432 1.371 . S
C434 H423 0.970 . S
C434 H424 0.970 . S
C434 C430 1.532 . S
C434 C435 1.499 . S
C435 C434 1.499 . S
C435 C436 1.370 . S
C435 C440 1.415 . S
C436 H425 0.930 . S
C436 C435 1.370 . S
C436 C437 1.407 . S
C437 C436 1.407 . S
C437 C438 1.365 . S
C438 H426 0.930 . S
C438 C437 1.365 . S
C438 C439 1.393 . S
C439 C438 1.393 . S
C439 C440 1.387 . S
C440 H427 0.930 . S
C440 C435 1.415 . S
C440 C439 1.387 . S
H441 C449 0.930 . S
H442 C452 0.930 . S
H443 C454 0.930 . S
H444 C455 0.970 . S
H445 C455 0.970 . S
H446 C457 0.930 . S
H447 C459 0.930 . S
H448 C461 0.930 . S
C449 H441 0.930 . S
C449 C450 1.382 . S
C449 C451 1.426 . S
C450 C449 1.382 . S
C450 C454 1.389 1_455 S
C451 C449 1.426 . S
C451 C452 1.375 . S
C451 C455 1.532 . S
C452 H442 0.930 . S
C452 C451 1.375 . S
C452 C453 1.416 . S
C453 C452 1.416 . S
C453 C454 1.371 1_455 S
C454 H443 0.930 . S
C454 C450 1.389 1_655 S
C454 C453 1.371 1_655 S
C455 H444 0.970 . S
C455 H445 0.970 . S
C455 C451 1.532 . S
C455 C456 1.499 . S
C456 C455 1.499 . S
C456 C457 1.370 . S
C456 C461 1.415 . S
C457 H446 0.930 . S
C457 C456 1.370 . S
C457 C458 1.411 . S
C458 C457 1.411 . S
C458 C459 1.372 1_455 S
C459 H447 0.930 . S
C459 C458 1.372 1_655 S
C459 C460 1.393 1_655 S
C460 C459 1.393 1_455 S
C460 C461 1.387 . S
C461 H448 0.930 . S
C461 C456 1.415 . S
C461 C460 1.387 . S
H462 C470 0.930 . S
H463 C473 0.930 . S
H464 C475 0.930 . S
H465 C476 0.970 . S
H466 C476 0.970 . S
H467 C478 0.930 . S
H468 C480 0.930 . S
H469 C482 0.930 . S
C470 H462 0.930 . S
C470 C471 1.382 . S
C470 C472 1.426 . S
C471 C470 1.382 . S
C471 C475 1.389 . S
C472 C470 1.426 . S
C472 C473 1.375 . S
C472 C476 1.532 . S
C473 H463 0.930 . S
C473 C472 1.375 . S
C473 C474 1.416 . S
C474 C473 1.416 . S
C474 C475 1.371 . S
C475 H464 0.930 . S
C475 C471 1.389 . S
C475 C474 1.371 . S
C476 H465 0.970 . S
C476 H466 0.970 . S
C476 C472 1.532 . S
C476 C477 1.499 . S
C477 C476 1.499 . S
C477 C478 1.370 . S
C477 C482 1.415 . S
C478 H467 0.930 . S
C478 C477 1.370 . S
C478 C479 1.407 . S
C479 C478 1.407 . S
C479 C480 1.365 . S
C480 H468 0.930 . S
C480 C479 1.365 . S
C480 C481 1.393 . S
C481 C480 1.393 . S
C481 C482 1.387 . S
C482 H469 0.930 . S
C482 C477 1.415 . S
C482 C481 1.387 . S
H483 C491 0.930 . S
H484 C494 0.930 . S
H485 C496 0.930 . S
H486 C497 0.970 . S
H487 C497 0.970 . S
H488 C499 0.930 . S
H489 C501 0.930 . S
H490 C503 0.930 . S
C491 H483 0.930 . S
C491 C492 1.382 . S
C491 C493 1.426 . S
C492 C491 1.382 . S
C492 C496 1.389 1_565 S
C493 C491 1.426 . S
C493 C494 1.375 . S
C493 C497 1.532 . S
C494 H484 0.930 . S
C494 C493 1.375 . S
C494 C495 1.416 . S
C495 C494 1.416 . S
C495 C496 1.371 1_565 S
C496 H485 0.930 . S
C496 C492 1.389 1_545 S
C496 C495 1.371 1_545 S
C497 H486 0.970 . S
C497 H487 0.970 . S
C497 C493 1.532 . S
C497 C498 1.499 . S
C498 C497 1.499 . S
C498 C499 1.370 . S
C498 C503 1.415 . S
C499 H488 0.930 . S
C499 C498 1.370 . S
C499 C500 1.435 . S
C500 C499 1.435 . S
C500 C501 1.354 1_565 S
C501 H489 0.930 . S
C501 C500 1.354 1_545 S
C501 C502 1.393 1_545 S
C502 C501 1.393 1_565 S
C502 C503 1.387 . S
C503 H490 0.930 . S
C503 C498 1.415 . S
C503 C502 1.387 . S
H504 C512 0.930 . S
H505 C515 0.930 . S
H506 C517 0.930 . S
H507 C518 0.970 . S
H508 C518 0.970 . S
H509 C520 0.930 . S
H510 C522 0.930 . S
H511 C524 0.930 . S
C512 H504 0.930 . S
C512 C513 1.382 . S
C512 C514 1.426 . S
C513 C512 1.382 . S
C513 C517 1.389 1_565 S
C514 C512 1.426 . S
C514 C515 1.375 . S
C514 C518 1.532 . S
C515 H505 0.930 . S
C515 C514 1.375 . S
C515 C516 1.416 . S
C516 C515 1.416 . S
C516 C517 1.371 1_565 S
C517 H506 0.930 . S
C517 C513 1.389 1_545 S
C517 C516 1.371 1_545 S
C518 H507 0.970 . S
C518 H508 0.970 . S
C518 C514 1.532 . S
C518 C519 1.499 . S
C519 C518 1.499 . S
C519 C520 1.370 . S
C519 C524 1.415 . S
C520 H509 0.930 . S
C520 C519 1.370 . S
C520 C521 1.407 . S
C521 C520 1.407 . S
C521 C522 1.365 1_565 S
C522 H510 0.930 . S
C522 C521 1.365 1_545 S
C522 C523 1.393 1_545 S
C523 C522 1.393 1_565 S
C523 C524 1.387 . S
C524 H511 0.930 . S
C524 C519 1.415 . S
C524 C523 1.387 . S
H525 C533 0.930 . S
H526 C536 0.930 . S
H527 C538 0.930 . S
H528 C539 0.970 . S
H529 C539 0.970 . S
H530 C541 0.930 . S
H531 C543 0.930 . S
H532 C545 0.930 . S
C533 H525 0.930 . S
C533 C534 1.382 . S
C533 C535 1.426 . S
C534 C533 1.382 . S
C534 C538 1.389 1_455 S
C535 C533 1.426 . S
C535 C536 1.375 . S
C535 C539 1.532 . S
C536 H526 0.930 . S
C536 C535 1.375 . S
C536 C537 1.416 . S
C537 C536 1.416 . S
C537 C538 1.371 1_455 S
C538 H527 0.930 . S
C538 C534 1.389 1_655 S
C538 C537 1.371 1_655 S
C539 H528 0.970 . S
C539 H529 0.970 . S
C539 C535 1.532 . S
C539 C540 1.499 . S
C540 C539 1.499 . S
C540 C541 1.370 . S
C540 C545 1.415 . S
C541 H530 0.930 . S
C541 C540 1.370 . S
C541 C542 1.407 . S
C542 C541 1.407 . S
C542 C543 1.365 1_455 S
C543 H531 0.930 . S
C543 C542 1.365 1_655 S
C543 C544 1.393 1_655 S
C544 C543 1.393 1_455 S
C544 C545 1.387 . S
C545 H532 0.930 . S
C545 C540 1.415 . S
C545 C544 1.387 . S
H546 C554 0.930 . S
H547 C557 0.930 . S
H548 C559 0.930 . S
H549 C560 0.970 . S
H550 C560 0.970 . S
H551 C562 0.930 . S
H552 C564 0.930 . S
H553 C566 0.930 . S
C554 H546 0.930 . S
C554 C555 1.382 . S
C554 C556 1.426 . S
C555 C554 1.382 . S
C555 C559 1.389 . S
C556 C554 1.426 . S
C556 C557 1.375 . S
C556 C560 1.532 . S
C557 H547 0.930 . S
C557 C556 1.375 . S
C557 C558 1.416 . S
C558 C557 1.416 . S
C558 C559 1.371 . S
C559 H548 0.930 . S
C559 C555 1.389 . S
C559 C558 1.371 . S
C560 H549 0.970 . S
C560 H550 0.970 . S
C560 C556 1.532 . S
C560 C561 1.499 . S
C561 C560 1.499 . S
C561 C562 1.370 . S
C561 C566 1.415 . S
C562 H551 0.930 . S
C562 C561 1.370 . S
C562 C563 1.407 . S
C563 C562 1.407 . S
C563 C564 1.365 . S
C564 H552 0.930 . S
C564 C563 1.365 . S
C564 C565 1.393 . S
C565 C564 1.393 . S
C565 C566 1.387 . S
C566 H553 0.930 . S
C566 C561 1.415 . S
C566 C565 1.387 . S
H567 C575 0.930 . S
H568 C578 0.930 . S
H569 C580 0.930 . S
H570 C581 0.970 . S
H571 C581 0.970 . S
H572 C583 0.930 . S
H573 C585 0.930 . S
H574 C587 0.930 . S
C575 H567 0.930 . S
C575 C576 1.382 . S
C575 C577 1.426 . S
C576 C575 1.382 . S
C576 C580 1.389 . S
C577 C575 1.426 . S
C577 C578 1.375 . S
C577 C581 1.532 . S
C578 H568 0.930 . S
C578 C577 1.375 . S
C578 C579 1.416 . S
C579 C578 1.416 . S
C579 C580 1.371 . S
C580 H569 0.930 . S
C580 C576 1.389 . S
C580 C579 1.371 . S
C581 H570 0.970 . S
C581 H571 0.970 . S
C581 C577 1.532 . S
C581 C582 1.499 . S
C582 C581 1.499 . S
C582 C583 1.370 . S
C582 C587 1.415 . S
C583 H572 0.930 . S
C583 C582 1.370 . S
C583 C584 1.407 . S
C584 C583 1.407 . S
C584 C585 1.365 . S
C585 H573 0.930 . S
C585 C584 1.365 . S
C585 C586 1.393 . S
C586 C585 1.393 . S
C586 C587 1.387 . S
C587 H574 0.930 . S
C587 C582 1.415 . S
C587 C586 1.387 . S
H588 C596 0.930 . S
H589 C599 0.930 . S
H590 C601 0.930 . S
H591 C602 0.970 . S
H592 C602 0.970 . S
H593 C604 0.930 . S
H594 C606 0.930 . S
H595 C608 0.930 . S
C596 H588 0.930 . S
C596 C597 1.382 . S
C596 C598 1.426 . S
C597 C596 1.382 . S
C597 C601 1.389 . S
C598 C596 1.426 . S
C598 C599 1.375 . S
C598 C602 1.532 . S
C599 H589 0.930 . S
C599 C598 1.375 . S
C599 C600 1.416 . S
C600 C599 1.416 . S
C600 C601 1.371 . S
C601 H590 0.930 . S
C601 C597 1.389 . S
C601 C600 1.371 . S
C602 H591 0.970 . S
C602 H592 0.970 . S
C602 C598 1.532 . S
C602 C603 1.499 . S
C603 C602 1.499 . S
C603 C604 1.370 . S
C603 C608 1.415 . S
C604 H593 0.930 . S
C604 C603 1.370 . S
C604 C605 1.407 . S
C605 C604 1.407 . S
C605 C606 1.365 . S
C606 H594 0.930 . S
C606 C605 1.365 . S
C606 C607 1.393 . S
C607 C606 1.393 . S
C607 C608 1.387 . S
C608 H595 0.930 . S
C608 C603 1.415 . S
C608 C607 1.387 . S
H609 C617 0.930 . S
H610 C620 0.930 . S
H611 C622 0.930 . S
H612 C623 0.970 . S
H613 C623 0.970 . S
H614 C625 0.930 . S
H615 C627 0.930 . S
H616 C629 0.930 . S
C617 H609 0.930 . S
C617 C618 1.382 . S
C617 C619 1.426 . S
C618 C617 1.382 . S
C618 C622 1.389 . S
C619 C617 1.426 . S
C619 C620 1.375 . S
C619 C623 1.532 . S
C620 H610 0.930 . S
C620 C619 1.375 . S
C620 C621 1.416 . S
C621 C620 1.416 . S
C621 C622 1.371 . S
C622 H611 0.930 . S
C622 C618 1.389 . S
C622 C621 1.371 . S
C623 H612 0.970 . S
C623 H613 0.970 . S
C623 C619 1.532 . S
C623 C624 1.499 . S
C624 C623 1.499 . S
C624 C625 1.370 . S
C624 C629 1.415 . S
C625 H614 0.930 . S
C625 C624 1.370 . S
C625 C626 1.407 . S
C626 C625 1.407 . S
C626 C627 1.365 . S
C627 H615 0.930 . S
C627 C626 1.365 . S
C627 C628 1.393 . S
C628 C627 1.393 . S
C628 C629 1.387 . S
C629 H616 0.930 . S
C629 C624 1.415 . S
C629 C628 1.387 . S
H630 C638 0.950 . S
H631 C643 0.950 . S
H632 C640 0.950 . S
H633 C642 0.950 . S
H634 C644 0.950 . S
H635 C646 0.950 . S
H636 C648 0.950 . S
H637 C649 0.950 . S
C638 H630 0.950 . S
C638 C639 1.386 1_455 S
C638 C640 1.391 . S
C639 C638 1.386 1_655 S
C639 C643 1.393 . S
C640 H632 0.950 . S
C640 C638 1.391 . S
C640 C641 1.400 1_455 S
C641 C640 1.400 1_655 S
C641 C642 1.398 . S
C641 C647 1.491 . S
C642 H633 0.950 . S
C642 C641 1.398 . S
C642 C643 1.391 . S
C643 H631 0.950 . S
C643 C639 1.393 . S
C643 C642 1.391 . S
C644 H634 0.950 . S
C644 C645 1.386 . S
C644 C646 1.391 . S
C645 C644 1.386 . S
C645 C649 1.393 1_655 S
C646 H635 0.950 . S
C646 C644 1.391 . S
C646 C647 1.400 . S
C647 C641 1.491 . S
C647 C646 1.400 . S
C647 C648 1.398 1_655 S
C648 H636 0.950 . S
C648 C647 1.398 1_455 S
C648 C649 1.391 . S
C649 H637 0.950 . S
C649 C645 1.393 1_455 S
C649 C648 1.391 . S
H650 C658 0.950 . S
H651 C663 0.950 . S
H652 C660 0.950 . S
H653 C662 0.950 . S
H654 C664 0.950 . S
H655 C666 0.950 . S
H656 C668 0.950 . S
H657 C669 0.950 . S
C658 H650 0.950 . S
C658 C659 1.386 . S
C658 C660 1.391 . S
C659 C658 1.386 . S
C659 C663 1.393 . S
C660 H652 0.950 . S
C660 C658 1.391 . S
C660 C661 1.400 . S
C661 C660 1.400 . S
C661 C662 1.398 . S
C661 C667 1.491 . S
C662 H653 0.950 . S
C662 C661 1.398 . S
C662 C663 1.391 . S
C663 H651 0.950 . S
C663 C659 1.393 . S
C663 C662 1.391 . S
C664 H654 0.950 . S
C664 C665 1.386 . S
C664 C666 1.391 . S
C665 C664 1.386 . S
C665 C669 1.393 . S
C666 H655 0.950 . S
C666 C664 1.391 . S
C666 C667 1.400 . S
C667 C661 1.491 . S
C667 C666 1.400 . S
C667 C668 1.398 . S
C668 H656 0.950 . S
C668 C667 1.398 . S
C668 C669 1.391 . S
C669 H657 0.950 . S
C669 C665 1.393 . S
C669 C668 1.391 . S
H670 C678 0.950 . S
H671 C683 0.950 . S
H672 C680 0.950 . S
H673 C682 0.950 . S
H674 C684 0.950 . S
H675 C686 0.950 . S
H676 C688 0.950 . S
H677 C689 0.950 . S
C678 H670 0.950 . S
C678 C679 1.386 1_565 S
C678 C680 1.391 . S
C679 C678 1.386 1_545 S
C679 C683 1.393 . S
C680 H672 0.950 . S
C680 C678 1.391 . S
C680 C681 1.400 1_565 S
C681 C680 1.400 1_545 S
C681 C682 1.398 . S
C681 C687 1.491 . S
C682 H673 0.950 . S
C682 C681 1.398 . S
C682 C683 1.391 . S
C683 H671 0.950 . S
C683 C679 1.393 . S
C683 C682 1.391 . S
C684 H674 0.950 . S
C684 C685 1.386 . S
C684 C686 1.391 . S
C685 C684 1.386 . S
C685 C689 1.393 1_545 S
C686 H675 0.950 . S
C686 C684 1.391 . S
C686 C687 1.400 . S
C687 C681 1.491 . S
C687 C686 1.400 . S
C687 C688 1.398 1_545 S
C688 H676 0.950 . S
C688 C687 1.398 1_565 S
C688 C689 1.391 . S
C689 H677 0.950 . S
C689 C685 1.393 1_565 S
C689 C688 1.391 . S
H690 C698 0.950 . S
H691 C703 0.950 . S
H692 C700 0.950 . S
H693 C702 0.950 . S
H694 C704 0.950 . S
H695 C706 0.950 . S
H696 C708 0.950 . S
H697 C709 0.950 . S
C698 H690 0.950 . S
C698 C699 1.406 . S
C698 C700 1.391 . S
C699 C698 1.406 . S
C699 C703 1.357 1_545 S
C700 H692 0.950 . S
C700 C698 1.391 . S
C700 C701 1.342 1_545 S
C701 C700 1.342 1_565 S
C701 C702 1.431 . S
C701 C707 1.517 . S
C702 H693 0.950 . S
C702 C701 1.431 . S
C702 C703 1.391 . S
C703 H691 0.950 . S
C703 C699 1.357 1_565 S
C703 C702 1.391 . S
C704 H694 0.950 . S
C704 C705 1.386 . S
C704 C706 1.391 . S
C705 C704 1.386 . S
C705 C709 1.393 1_565 S
C706 H695 0.950 . S
C706 C704 1.391 . S
C706 C707 1.400 . S
C707 C701 1.517 . S
C707 C706 1.400 . S
C707 C708 1.398 1_565 S
C708 H696 0.950 . S
C708 C707 1.398 1_545 S
C708 C709 1.391 . S
C709 H697 0.950 . S
C709 C705 1.393 1_545 S
C709 C708 1.391 . S
H710 C718 0.950 . S
H711 C723 0.950 . S
H712 C720 0.950 . S
H713 C722 0.950 . S
H714 C724 0.950 . S
H715 C726 0.950 . S
H716 C728 0.950 . S
H717 C729 0.950 . S
C718 H710 0.950 . S
C718 C719 1.386 1_655 S
C718 C720 1.391 . S
C719 C718 1.386 1_455 S
C719 C723 1.393 . S
C720 H712 0.950 . S
C720 C718 1.391 . S
C720 C721 1.400 1_655 S
C721 C720 1.400 1_455 S
C721 C722 1.398 . S
C721 C727 1.491 . S
C722 H713 0.950 . S
C722 C721 1.398 . S
C722 C723 1.391 . S
C723 H711 0.950 . S
C723 C719 1.393 . S
C723 C722 1.391 . S
C724 H714 0.950 . S
C724 C725 1.386 . S
C724 C726 1.391 . S
C725 C724 1.386 . S
C725 C729 1.393 1_455 S
C726 H715 0.950 . S
C726 C724 1.391 . S
C726 C727 1.400 . S
C727 C721 1.491 . S
C727 C726 1.400 . S
C727 C728 1.398 1_455 S
C728 H716 0.950 . S
C728 C727 1.398 1_655 S
C728 C729 1.391 . S
C729 H717 0.950 . S
C729 C725 1.393 1_655 S
C729 C728 1.391 . S
H730 C738 0.950 . S
H731 C743 0.950 . S
H732 C740 0.950 . S
H733 C742 0.950 . S
H734 C744 0.950 . S
H735 C746 0.950 . S
H736 C748 0.950 . S
H737 C749 0.950 . S
C738 H730 0.950 . S
C738 C739 1.386 . S
C738 C740 1.391 . S
C739 C738 1.386 . S
C739 C743 1.393 . S
C740 H732 0.950 . S
C740 C738 1.391 . S
C740 C741 1.400 . S
C741 C740 1.400 . S
C741 C742 1.398 . S
C741 C747 1.491 . S
C742 H733 0.950 . S
C742 C741 1.398 . S
C742 C743 1.391 . S
C743 H731 0.950 . S
C743 C739 1.393 . S
C743 C742 1.391 . S
C744 H734 0.950 . S
C744 C745 1.386 . S
C744 C746 1.391 . S
C745 C744 1.386 . S
C745 C749 1.393 . S
C746 H735 0.950 . S
C746 C744 1.391 . S
C746 C747 1.400 . S
C747 C741 1.491 . S
C747 C746 1.400 . S
C747 C748 1.398 . S
C748 H736 0.950 . S
C748 C747 1.398 . S
C748 C749 1.391 . S
C749 H737 0.950 . S
C749 C745 1.393 . S
C749 C748 1.391 . S
H750 C758 0.961 . S
H751 C763 0.950 . S
H752 C760 0.941 1_655 S
H753 C762 0.950 . S
H754 C764 0.950 . S
H755 C766 0.950 . S
H756 C768 0.950 . S
H757 C769 0.950 . S
C758 H750 0.961 . S
C758 C759 1.386 . S
C758 C760 1.378 . S
C759 C758 1.386 . S
C759 C763 1.393 . S
C760 H752 0.941 1_455 S
C760 C758 1.378 . S
C760 C761 1.420 . S
C761 C760 1.420 . S
C761 C762 1.398 . S
C761 C767 1.473 . S
C762 H753 0.950 . S
C762 C761 1.398 . S
C762 C763 1.391 . S
C763 H751 0.950 . S
C763 C759 1.393 . S
C763 C762 1.391 . S
C764 H754 0.950 . S
C764 C765 1.385 1_455 S
C764 C766 1.391 . S
C765 C764 1.385 1_655 S
C765 C769 1.397 . S
C766 H755 0.950 . S
C766 C764 1.391 . S
C766 C767 1.427 . S
C767 C761 1.473 . S
C767 C766 1.427 . S
C767 C768 1.391 1_455 S
C768 H756 0.950 . S
C768 C767 1.391 1_655 S
C768 C769 1.391 . S
C769 H757 0.950 . S
C769 C765 1.397 . S
C769 C768 1.391 . S
H770 C778 0.950 . S
H771 C783 0.950 . S
H772 C780 0.950 . S
H773 C782 0.950 . S
H774 C784 0.950 . S
H775 C786 0.950 . S
H776 C788 0.950 . S
H777 C789 0.950 . S
C778 H770 0.950 . S
C778 C779 1.386 . S
C778 C780 1.391 . S
C779 C778 1.386 . S
C779 C783 1.393 . S
C780 H772 0.950 . S
C780 C778 1.391 . S
C780 C781 1.400 . S
C781 C780 1.400 . S
C781 C782 1.398 . S
C781 C787 1.491 . S
C782 H773 0.950 . S
C782 C781 1.398 . S
C782 C783 1.391 . S
C783 H771 0.950 . S
C783 C779 1.393 . S
C783 C782 1.391 . S
C784 H774 0.950 . S
C784 C785 1.386 . S
C784 C786 1.391 . S
C785 C784 1.386 . S
C785 C789 1.393 . S
C786 H775 0.950 . S
C786 C784 1.391 . S
C786 C787 1.400 . S
C787 C781 1.491 . S
C787 C786 1.400 . S
C787 C788 1.398 . S
C788 H776 0.950 . S
C788 C787 1.398 . S
C788 C789 1.391 . S
C789 H777 0.950 . S
C789 C785 1.393 . S
C789 C788 1.391 . S
H790 C798 0.950 . S
H791 C803 0.950 . S
H792 C800 0.950 . S
H793 C802 0.950 . S
H794 C804 0.950 . S
H795 C806 0.950 . S
H796 C808 0.950 . S
H797 C809 0.950 . S
C798 H790 0.950 . S
C798 C799 1.386 . S
C798 C800 1.391 . S
C799 C798 1.386 . S
C799 C803 1.393 1_565 S
C800 H792 0.950 . S
C800 C798 1.391 . S
C800 C801 1.400 . S
C801 C800 1.400 . S
C801 C802 1.398 1_565 S
C801 C807 1.513 . S
C802 H793 0.950 . S
C802 C801 1.398 1_545 S
C802 C803 1.391 . S
C803 H791 0.950 . S
C803 C799 1.393 1_545 S
C803 C802 1.391 . S
C804 H794 0.950 . S
C804 C805 1.381 1_545 S
C804 C806 1.391 . S
C805 C804 1.381 1_565 S
C805 C809 1.402 . S
C806 H795 0.950 . S
C806 C804 1.391 . S
C806 C807 1.353 1_545 S
C807 C801 1.513 . S
C807 C806 1.353 1_565 S
C807 C808 1.424 . S
C808 H796 0.950 . S
C808 C807 1.424 . S
C808 C809 1.391 . S
C809 H797 0.950 . S
C809 C805 1.402 . S
C809 C808 1.391 . S
H810 C818 0.950 . S
H811 C823 0.950 . S
H812 C820 0.950 . S
H813 C822 0.950 . S
H814 C824 0.950 . S
H815 C826 0.950 . S
H816 C828 0.950 . S
H817 C829 0.950 . S
C818 H810 0.950 . S
C818 C819 1.386 1_565 S
C818 C820 1.391 . S
C819 C818 1.386 1_545 S
C819 C823 1.393 . S
C820 H812 0.950 . S
C820 C818 1.391 . S
C820 C821 1.400 1_565 S
C821 C820 1.400 1_545 S
C821 C822 1.398 . S
C821 C827 1.491 . S
C822 H813 0.950 . S
C822 C821 1.398 . S
C822 C823 1.391 . S
C823 H811 0.950 . S
C823 C819 1.393 . S
C823 C822 1.391 . S
C824 H814 0.950 . S
C824 C825 1.386 . S
C824 C826 1.391 . S
C825 C824 1.386 . S
C825 C829 1.393 1_545 S
C826 H815 0.950 . S
C826 C824 1.391 . S
C826 C827 1.400 . S
C827 C821 1.491 . S
C827 C826 1.400 . S
C827 C828 1.398 1_545 S
C828 H816 0.950 . S
C828 C827 1.398 1_565 S
C828 C829 1.391 . S
C829 H817 0.950 . S
C829 C825 1.393 1_565 S
C829 C828 1.391 . S
H830 C838 0.950 . S
H831 C843 0.950 . S
H832 C840 0.950 . S
H833 C842 0.950 . S
H834 C844 0.950 . S
H835 C846 0.950 . S
H836 C848 0.950 . S
H837 C849 0.950 . S
C838 H830 0.950 . S
C838 C839 1.386 1_455 S
C838 C840 1.391 . S
C839 C838 1.386 1_655 S
C839 C843 1.393 . S
C840 H832 0.950 . S
C840 C838 1.391 . S
C840 C841 1.400 1_455 S
C841 C840 1.400 1_655 S
C841 C842 1.398 . S
C841 C847 1.511 . S
C842 H833 0.950 . S
C842 C841 1.398 . S
C842 C843 1.391 . S
C843 H831 0.950 . S
C843 C839 1.393 . S
C843 C842 1.391 . S
C844 H834 0.950 . S
C844 C845 1.396 . S
C844 C846 1.391 . S
C845 C844 1.396 . S
C845 C849 1.389 1_655 S
C846 H835 0.950 . S
C846 C844 1.391 . S
C846 C847 1.413 . S
C847 C841 1.511 . S
C847 C846 1.413 . S
C847 C848 1.366 1_655 S
C848 H836 0.950 . S
C848 C847 1.366 1_455 S
C848 C849 1.391 . S
C849 H837 0.950 . S
C849 C845 1.389 1_455 S
C849 C848 1.391 . S
H850 C858 0.950 . S
H851 C863 0.950 . S
H852 C860 0.950 . S
H853 C862 0.950 . S
H854 C864 0.950 . S
H855 C866 0.950 . S
H856 C868 0.950 . S
H857 C869 0.950 . S
C858 H850 0.950 . S
C858 C859 1.386 . S
C858 C860 1.391 . S
C859 C858 1.386 . S
C859 C863 1.393 . S
C860 H852 0.950 . S
C860 C858 1.391 . S
C860 C861 1.400 . S
C861 C860 1.400 . S
C861 C862 1.398 . S
C861 C867 1.491 . S
C862 H853 0.950 . S
C862 C861 1.398 . S
C862 C863 1.391 . S
C863 H851 0.950 . S
C863 C859 1.393 . S
C863 C862 1.391 . S
C864 H854 0.950 . S
C864 C865 1.386 . S
C864 C866 1.391 . S
C865 C864 1.386 . S
C865 C869 1.393 . S
C866 H855 0.950 . S
C866 C864 1.391 . S
C866 C867 1.400 . S
C867 C861 1.491 . S
C867 C866 1.400 . S
C867 C868 1.398 . S
C868 H856 0.950 . S
C868 C867 1.398 . S
C868 C869 1.391 . S
C869 H857 0.950 . S
C869 C865 1.393 . S
C869 C868 1.391 . S
H870 C878 0.950 . S
H871 C883 0.950 . S
H872 C880 0.950 . S
H873 C882 0.950 . S
H874 C884 0.950 . S
H875 C886 0.950 . S
H876 C888 0.950 . S
H877 C889 0.950 . S
C878 H870 0.950 . S
C878 C879 1.386 . S
C878 C880 1.391 . S
C879 C878 1.386 . S
C879 C883 1.393 . S
C880 H872 0.950 . S
C880 C878 1.391 . S
C880 C881 1.400 . S
C881 C880 1.400 . S
C881 C882 1.398 . S
C881 C887 1.491 . S
C882 H873 0.950 . S
C882 C881 1.398 . S
C882 C883 1.391 . S
C883 H871 0.950 . S
C883 C879 1.393 . S
C883 C882 1.391 . S
C884 H874 0.950 . S
C884 C885 1.386 . S
C884 C886 1.391 . S
C885 C884 1.386 . S
C885 C889 1.393 . S
C886 H875 0.950 . S
C886 C884 1.391 . S
C886 C887 1.400 . S
C887 C881 1.491 . S
C887 C886 1.400 . S
C887 C888 1.398 . S
C888 H876 0.950 . S
C888 C887 1.398 . S
C888 C889 1.391 . S
C889 H877 0.950 . S
C889 C885 1.393 . S
C889 C888 1.391 . S
H890 C898 0.950 . S
H891 C903 0.950 . S
H892 C900 0.950 . S
H893 C902 0.950 . S
H894 C904 0.950 . S
H895 C906 0.950 . S
H896 C908 0.950 . S
H897 C909 0.950 . S
C898 H890 0.950 . S
C898 C899 1.386 . S
C898 C900 1.391 . S
C899 C898 1.386 . S
C899 C903 1.393 . S
C900 H892 0.950 . S
C900 C898 1.391 . S
C900 C901 1.400 . S
C901 C900 1.400 . S
C901 C902 1.398 . S
C901 C907 1.491 . S
C902 H893 0.950 . S
C902 C901 1.398 . S
C902 C903 1.391 . S
C903 H891 0.950 . S
C903 C899 1.393 . S
C903 C902 1.391 . S
C904 H894 0.950 . S
C904 C905 1.386 . S
C904 C906 1.391 . S
C905 C904 1.386 . S
C905 C909 1.393 . S
C906 H895 0.950 . S
C906 C904 1.391 . S
C906 C907 1.400 . S
C907 C901 1.491 . S
C907 C906 1.400 . S
C907 C908 1.398 . S
C908 H896 0.950 . S
C908 C907 1.398 . S
C908 C909 1.391 . S
C909 H897 0.950 . S
C909 C905 1.393 . S
C909 C908 1.391 . S
H910 C918 0.950 . S
H911 C923 0.950 . S
H912 C920 0.950 . S
H913 C922 0.950 . S
H914 C924 0.950 . S
H915 C926 0.950 . S
H916 C928 0.950 . S
H917 C929 0.950 . S
C918 H910 0.950 . S
C918 C919 1.386 . S
C918 C920 1.391 . S
C919 C918 1.386 . S
C919 C923 1.393 . S
C920 H912 0.950 . S
C920 C918 1.391 . S
C920 C921 1.400 . S
C921 C920 1.400 . S
C921 C922 1.398 . S
C921 C927 1.491 . S
C922 H913 0.950 . S
C922 C921 1.398 . S
C922 C923 1.391 . S
C923 H911 0.950 . S
C923 C919 1.393 . S
C923 C922 1.391 . S
C924 H914 0.950 . S
C924 C925 1.386 . S
C924 C926 1.391 . S
C925 C924 1.386 . S
C925 C929 1.393 . S
C926 H915 0.950 . S
C926 C924 1.391 . S
C926 C927 1.400 . S
C927 C921 1.491 . S
C927 C926 1.400 . S
C927 C928 1.398 . S
C928 H916 0.950 . S
C928 C927 1.398 . S
C928 C929 1.391 . S
C929 H917 0.950 . S
C929 C925 1.393 . S
C929 C928 1.391 . S
H930 C938 0.950 . S
H931 C943 0.950 . S
H932 C940 0.950 . S
H933 C942 0.950 . S
H934 C944 0.950 . S
H935 C946 0.950 . S
H936 C948 0.950 . S
H937 C949 0.950 . S
C938 H930 0.950 . S
C938 C939 1.386 . S
C938 C940 1.391 . S
C939 C938 1.386 . S
C939 C943 1.393 . S
C940 H932 0.950 . S
C940 C938 1.391 . S
C940 C941 1.400 . S
C941 C940 1.400 . S
C941 C942 1.398 . S
C941 C947 1.491 . S
C942 H933 0.950 . S
C942 C941 1.398 . S
C942 C943 1.391 . S
C943 H931 0.950 . S
C943 C939 1.393 . S
C943 C942 1.391 . S
C944 H934 0.950 . S
C944 C945 1.386 . S
C944 C946 1.391 . S
C945 C944 1.386 . S
C945 C949 1.393 . S
C946 H935 0.950 . S
C946 C944 1.391 . S
C946 C947 1.400 . S
C947 C941 1.491 . S
C947 C946 1.400 . S
C947 C948 1.398 . S
C948 H936 0.950 . S
C948 C947 1.398 . S
C948 C949 1.391 . S
C949 H937 0.950 . S
C949 C945 1.393 . S
C949 C948 1.391 . S
H950 C958 0.950 . S
H951 C963 0.950 . S
H952 C960 0.950 . S
H953 C962 0.950 . S
H954 C964 0.950 . S
H955 C966 0.950 . S
H956 C968 0.950 . S
H957 C969 0.950 . S
C958 H950 0.950 . S
C958 C959 1.386 . S
C958 C960 1.391 . S
C959 C958 1.386 . S
C959 C963 1.393 . S
C960 H952 0.950 . S
C960 C958 1.391 . S
C960 C961 1.400 . S
C961 C960 1.400 . S
C961 C962 1.398 . S
C961 C967 1.491 . S
C962 H953 0.950 . S
C962 C961 1.398 . S
C962 C963 1.391 . S
C963 H951 0.950 . S
C963 C959 1.393 . S
C963 C962 1.391 . S
C964 H954 0.950 . S
C964 C965 1.386 . S
C964 C966 1.391 . S
C965 C964 1.386 . S
C965 C969 1.393 . S
C966 H955 0.950 . S
C966 C964 1.391 . S
C966 C967 1.400 . S
C967 C961 1.491 . S
C967 C966 1.400 . S
C967 C968 1.398 . S
C968 H956 0.950 . S
C968 C967 1.398 . S
C968 C969 1.391 . S
C969 H957 0.950 . S
C969 C965 1.393 . S
C969 C968 1.391 . S
H970 C978 0.950 . S
H971 C983 0.950 . S
H972 C980 0.950 . S
H973 C982 0.950 . S
H974 C984 0.950 . S
H975 C986 0.950 . S
H976 C988 0.950 . S
H977 C989 0.950 . S
C978 H970 0.950 . S
C978 C979 1.386 . S
C978 C980 1.391 . S
C979 C978 1.386 . S
C979 C983 1.393 . S
C980 H972 0.950 . S
C980 C978 1.391 . S
C980 C981 1.400 . S
C981 C980 1.400 . S
C981 C982 1.398 . S
C981 C987 1.491 . S
C982 H973 0.950 . S
C982 C981 1.398 . S
C982 C983 1.391 . S
C983 H971 0.950 . S
C983 C979 1.393 . S
C983 C982 1.391 . S
C984 H974 0.950 . S
C984 C985 1.386 . S
C984 C986 1.391 . S
C985 C984 1.386 . S
C985 C989 1.393 . S
C986 H975 0.950 . S
C986 C984 1.391 . S
C986 C987 1.400 . S
C987 C981 1.491 . S
C987 C986 1.400 . S
C987 C988 1.398 . S
C988 H976 0.950 . S
C988 C987 1.398 . S
C988 C989 1.391 . S
C989 H977 0.950 . S
C989 C985 1.393 . S
C989 C988 1.391 . S
H990 C998 0.950 . S
H991 C1003 0.950 . S
H992 C1000 0.950 . S
H993 C1002 0.950 . S
H994 C1004 0.950 . S
H995 C1006 0.950 . S
H996 C1008 0.950 . S
H997 C1009 0.950 . S
C998 H990 0.950 . S
C998 C999 1.386 . S
C998 C1000 1.391 . S
C999 C998 1.386 . S
C999 C1003 1.393 . S
C1000 H992 0.950 . S
C1000 C998 1.391 . S
C1000 C1001 1.400 . S
C1001 C1000 1.400 . S
C1001 C1002 1.398 . S
C1001 C1007 1.491 . S
C1002 H993 0.950 . S
C1002 C1001 1.398 . S
C1002 C1003 1.391 . S
C1003 H991 0.950 . S
C1003 C999 1.393 . S
C1003 C1002 1.391 . S
C1004 H994 0.950 . S
C1004 C1005 1.386 . S
C1004 C1006 1.391 . S
C1005 C1004 1.386 . S
C1005 C1009 1.393 . S
C1006 H995 0.950 . S
C1006 C1004 1.391 . S
C1006 C1007 1.400 . S
C1007 C1001 1.491 . S
C1007 C1006 1.400 . S
C1007 C1008 1.398 . S
C1008 H996 0.950 . S
C1008 C1007 1.398 . S
C1008 C1009 1.391 . S
C1009 H997 0.950 . S
C1009 C1005 1.393 . S
C1009 C1008 1.391 . S
H1010 C1018 0.950 . S
H1011 C1023 0.950 . S
H1012 C1020 0.950 . S
H1013 C1022 0.950 . S
H1014 C1024 0.950 . S
H1015 C1026 0.950 . S
H1016 C1028 0.950 . S
H1017 C1029 0.950 . S
C1018 H1010 0.950 . S
C1018 C1019 1.386 . S
C1018 C1020 1.391 . S
C1019 C1018 1.386 . S
C1019 C1023 1.393 . S
C1020 H1012 0.950 . S
C1020 C1018 1.391 . S
C1020 C1021 1.400 . S
C1021 C1020 1.400 . S
C1021 C1022 1.398 . S
C1021 C1027 1.491 . S
C1022 H1013 0.950 . S
C1022 C1021 1.398 . S
C1022 C1023 1.391 . S
C1023 H1011 0.950 . S
C1023 C1019 1.393 . S
C1023 C1022 1.391 . S
C1024 H1014 0.950 . S
C1024 C1025 1.386 . S
C1024 C1026 1.391 . S
C1025 C1024 1.386 . S
C1025 C1029 1.393 . S
C1026 H1015 0.950 . S
C1026 C1024 1.391 . S
C1026 C1027 1.400 . S
C1027 C1021 1.491 . S
C1027 C1026 1.400 . S
C1027 C1028 1.398 . S
C1028 H1016 0.950 . S
C1028 C1027 1.398 . S
C1028 C1029 1.391 . S
C1029 H1017 0.950 . S
C1029 C1025 1.393 . S
C1029 C1028 1.391 . S
H1030 C1038 0.950 . S
H1031 C1043 0.950 . S
H1032 C1040 0.950 . S
H1033 C1042 0.950 . S
H1034 C1044 0.950 . S
H1035 C1046 0.950 . S
H1036 C1048 0.950 . S
H1037 C1049 0.950 . S
C1038 H1030 0.950 . S
C1038 C1039 1.386 . S
C1038 C1040 1.391 . S
C1039 C1038 1.386 . S
C1039 C1043 1.393 . S
C1040 H1032 0.950 . S
C1040 C1038 1.391 . S
C1040 C1041 1.400 . S
C1041 C1040 1.400 . S
C1041 C1042 1.398 . S
C1041 C1047 1.491 . S
C1042 H1033 0.950 . S
C1042 C1041 1.398 . S
C1042 C1043 1.391 . S
C1043 H1031 0.950 . S
C1043 C1039 1.393 . S
C1043 C1042 1.391 . S
C1044 H1034 0.950 . S
C1044 C1045 1.386 . S
C1044 C1046 1.391 . S
C1045 C1044 1.386 . S
C1045 C1049 1.393 . S
C1046 H1035 0.950 . S
C1046 C1044 1.391 . S
C1046 C1047 1.400 . S
C1047 C1041 1.491 . S
C1047 C1046 1.400 . S
C1047 C1048 1.398 . S
C1048 H1036 0.950 . S
C1048 C1047 1.398 . S
C1048 C1049 1.391 . S
C1049 H1037 0.950 . S
C1049 C1045 1.393 . S
C1049 C1048 1.391 . S
H1050 C1058 0.950 . S
H1051 C1063 0.950 . S
H1052 C1060 0.950 . S
H1053 C1062 0.950 . S
H1054 C1064 0.950 . S
H1055 C1066 0.950 . S
H1056 C1068 0.950 . S
H1057 C1069 0.950 . S
C1058 H1050 0.950 . S
C1058 C1059 1.386 . S
C1058 C1060 1.391 . S
C1059 C1058 1.386 . S
C1059 C1063 1.393 . S
C1060 H1052 0.950 . S
C1060 C1058 1.391 . S
C1060 C1061 1.400 . S
C1061 C1060 1.400 . S
C1061 C1062 1.398 . S
C1061 C1067 1.491 . S
C1062 H1053 0.950 . S
C1062 C1061 1.398 . S
C1062 C1063 1.391 . S
C1063 H1051 0.950 . S
C1063 C1059 1.393 . S
C1063 C1062 1.391 . S
C1064 H1054 0.950 . S
C1064 C1065 1.386 . S
C1064 C1066 1.391 . S
C1065 C1064 1.386 . S
C1065 C1069 1.393 . S
C1066 H1055 0.950 . S
C1066 C1064 1.391 . S
C1066 C1067 1.400 . S
C1067 C1061 1.491 . S
C1067 C1066 1.400 . S
C1067 C1068 1.398 . S
C1068 H1056 0.950 . S
C1068 C1067 1.398 . S
C1068 C1069 1.391 . S
C1069 H1057 0.950 . S
C1069 C1065 1.393 . S
C1069 C1068 1.391 . S
H1070 C1078 0.950 . S
H1071 C1083 0.950 . S
H1072 C1080 0.950 . S
H1073 C1082 0.950 . S
H1074 C1084 0.950 . S
H1075 C1086 0.950 . S
H1076 C1088 0.950 . S
H1077 C1089 0.950 . S
C1078 H1070 0.950 . S
C1078 C1079 1.386 . S
C1078 C1080 1.391 . S
C1079 C1078 1.386 . S
C1079 C1083 1.393 . S
C1080 H1072 0.950 . S
C1080 C1078 1.391 . S
C1080 C1081 1.400 . S
C1081 C1080 1.400 . S
C1081 C1082 1.398 . S
C1081 C1087 1.491 . S
C1082 H1073 0.950 . S
C1082 C1081 1.398 . S
C1082 C1083 1.391 . S
C1083 H1071 0.950 . S
C1083 C1079 1.393 . S
C1083 C1082 1.391 . S
C1084 H1074 0.950 . S
C1084 C1085 1.386 . S
C1084 C1086 1.391 . S
C1085 C1084 1.386 . S
C1085 C1089 1.393 . S
C1086 H1075 0.950 . S
C1086 C1084 1.391 . S
C1086 C1087 1.400 . S
C1087 C1081 1.491 . S
C1087 C1086 1.400 . S
C1087 C1088 1.398 . S
C1088 H1076 0.950 . S
C1088 C1087 1.398 . S
C1088 C1089 1.391 . S
C1089 H1077 0.950 . S
C1089 C1085 1.393 . S
C1089 C1088 1.391 . S
H1090 C1098 0.950 . S
H1091 C1103 0.950 . S
H1092 C1100 0.950 . S
H1093 C1102 0.950 . S
H1094 C1104 0.950 . S
H1095 C1106 0.950 . S
H1096 C1108 0.950 . S
H1097 C1109 0.950 . S
C1098 H1090 0.950 . S
C1098 C1099 1.386 . S
C1098 C1100 1.391 . S
C1099 C1098 1.386 . S
C1099 C1103 1.393 . S
C1100 H1092 0.950 . S
C1100 C1098 1.391 . S
C1100 C1101 1.400 . S
C1101 C1100 1.400 . S
C1101 C1102 1.398 . S
C1101 C1107 1.491 . S
C1102 H1093 0.950 . S
C1102 C1101 1.398 . S
C1102 C1103 1.391 . S
C1103 H1091 0.950 . S
C1103 C1099 1.393 . S
C1103 C1102 1.391 . S
C1104 H1094 0.950 . S
C1104 C1105 1.386 . S
C1104 C1106 1.391 . S
C1105 C1104 1.386 . S
C1105 C1109 1.393 . S
C1106 H1095 0.950 . S
C1106 C1104 1.391 . S
C1106 C1107 1.400 . S
C1107 C1101 1.491 . S
C1107 C1106 1.400 . S
C1107 C1108 1.398 . S
C1108 H1096 0.950 . S
C1108 C1107 1.398 . S
C1108 C1109 1.391 . S
C1109 H1097 0.950 . S
C1109 C1105 1.393 . S
C1109 C1108 1.391 . S
H1110 C1118 0.950 . S
H1111 C1123 0.950 . S
H1112 C1120 0.950 . S
H1113 C1122 0.950 . S
H1114 C1124 0.950 . S
H1115 C1126 0.950 . S
H1116 C1128 0.950 . S
H1117 C1129 0.950 . S
C1118 H1110 0.950 . S
C1118 C1119 1.386 . S
C1118 C1120 1.391 . S
C1119 C1118 1.386 . S
C1119 C1123 1.393 . S
C1120 H1112 0.950 . S
C1120 C1118 1.391 . S
C1120 C1121 1.400 . S
C1121 C1120 1.400 . S
C1121 C1122 1.398 . S
C1121 C1127 1.491 . S
C1122 H1113 0.950 . S
C1122 C1121 1.398 . S
C1122 C1123 1.391 . S
C1123 H1111 0.950 . S
C1123 C1119 1.393 . S
C1123 C1122 1.391 . S
C1124 H1114 0.950 . S
C1124 C1125 1.386 . S
C1124 C1126 1.391 . S
C1125 C1124 1.386 . S
C1125 C1129 1.393 . S
C1126 H1115 0.950 . S
C1126 C1124 1.391 . S
C1126 C1127 1.400 . S
C1127 C1121 1.491 . S
C1127 C1126 1.400 . S
C1127 C1128 1.398 . S
C1128 H1116 0.950 . S
C1128 C1127 1.398 . S
C1128 C1129 1.391 . S
C1129 H1117 0.950 . S
C1129 C1125 1.393 . S
C1129 C1128 1.391 . S
H1130 C1138 0.950 . S
H1131 C1143 0.950 . S
H1132 C1140 0.950 . S
H1133 C1142 0.950 . S
H1134 C1144 0.950 . S
H1135 C1146 0.950 . S
H1136 C1148 0.950 . S
H1137 C1149 0.950 . S
C1138 H1130 0.950 . S
C1138 C1139 1.386 . S
C1138 C1140 1.391 . S
C1139 C1138 1.386 . S
C1139 C1143 1.393 . S
C1140 H1132 0.950 . S
C1140 C1138 1.391 . S
C1140 C1141 1.400 . S
C1141 C1140 1.400 . S
C1141 C1142 1.398 . S
C1141 C1147 1.491 . S
C1142 H1133 0.950 . S
C1142 C1141 1.398 . S
C1142 C1143 1.391 . S
C1143 H1131 0.950 . S
C1143 C1139 1.393 . S
C1143 C1142 1.391 . S
C1144 H1134 0.950 . S
C1144 C1145 1.386 . S
C1144 C1146 1.391 . S
C1145 C1144 1.386 . S
C1145 C1149 1.393 . S
C1146 H1135 0.950 . S
C1146 C1144 1.391 . S
C1146 C1147 1.400 . S
C1147 C1141 1.491 . S
C1147 C1146 1.400 . S
C1147 C1148 1.398 . S
C1148 H1136 0.950 . S
C1148 C1147 1.398 . S
C1148 C1149 1.391 . S
C1149 H1137 0.950 . S
C1149 C1145 1.393 . S
C1149 C1148 1.391 . S
H1150 C1158 0.950 . S
H1151 C1163 0.950 . S
H1152 C1160 0.950 . S
H1153 C1162 0.950 . S
H1154 C1164 0.950 . S
H1155 C1166 0.950 . S
H1156 C1168 0.950 . S
H1157 C1169 0.950 . S
C1158 H1150 0.950 . S
C1158 C1159 1.386 . S
C1158 C1160 1.391 . S
C1159 C1158 1.386 . S
C1159 C1163 1.393 . S
C1160 H1152 0.950 . S
C1160 C1158 1.391 . S
C1160 C1161 1.400 . S
C1161 C1160 1.400 . S
C1161 C1162 1.398 . S
C1161 C1167 1.491 . S
C1162 H1153 0.950 . S
C1162 C1161 1.398 . S
C1162 C1163 1.391 . S
C1163 H1151 0.950 . S
C1163 C1159 1.393 . S
C1163 C1162 1.391 . S
C1164 H1154 0.950 . S
C1164 C1165 1.386 . S
C1164 C1166 1.391 . S
C1165 C1164 1.386 . S
C1165 C1169 1.393 . S
C1166 H1155 0.950 . S
C1166 C1164 1.391 . S
C1166 C1167 1.400 . S
C1167 C1161 1.491 . S
C1167 C1166 1.400 . S
C1167 C1168 1.398 . S
C1168 H1156 0.950 . S
C1168 C1167 1.398 . S
C1168 C1169 1.391 . S
C1169 H1157 0.950 . S
C1169 C1165 1.393 . S
C1169 C1168 1.391 . S
H1170 C1178 0.950 . S
H1171 C1183 0.950 . S
H1172 C1180 0.950 . S
H1173 C1182 0.950 . S
H1174 C1184 0.950 . S
H1175 C1186 0.950 . S
H1176 C1188 0.950 . S
H1177 C1189 0.950 . S
C1178 H1170 0.950 . S
C1178 C1179 1.386 . S
C1178 C1180 1.391 . S
C1179 C1178 1.386 . S
C1179 C1183 1.393 . S
C1180 H1172 0.950 . S
C1180 C1178 1.391 . S
C1180 C1181 1.400 . S
C1181 C1180 1.400 . S
C1181 C1182 1.398 . S
C1181 C1187 1.491 . S
C1182 H1173 0.950 . S
C1182 C1181 1.398 . S
C1182 C1183 1.391 . S
C1183 H1171 0.950 . S
C1183 C1179 1.393 . S
C1183 C1182 1.391 . S
C1184 H1174 0.950 . S
C1184 C1185 1.386 . S
C1184 C1186 1.391 . S
C1185 C1184 1.386 . S
C1185 C1189 1.393 . S
C1186 H1175 0.950 . S
C1186 C1184 1.391 . S
C1186 C1187 1.400 . S
C1187 C1181 1.491 . S
C1187 C1186 1.400 . S
C1187 C1188 1.398 . S
C1188 H1176 0.950 . S
C1188 C1187 1.398 . S
C1188 C1189 1.391 . S
C1189 H1177 0.950 . S
C1189 C1185 1.393 . S
C1189 C1188 1.391 . S
H1190 C1198 0.950 . S
H1191 C1203 0.950 . S
H1192 C1200 0.950 . S
H1193 C1202 0.950 . S
H1194 C1204 0.950 . S
H1195 C1206 0.950 . S
H1196 C1208 0.950 . S
H1197 C1209 0.950 . S
C1198 H1190 0.950 . S
C1198 C1199 1.386 . S
C1198 C1200 1.391 . S
C1199 C1198 1.386 . S
C1199 C1203 1.393 . S
C1200 H1192 0.950 . S
C1200 C1198 1.391 . S
C1200 C1201 1.400 . S
C1201 C1200 1.400 . S
C1201 C1202 1.398 . S
C1201 C1207 1.491 . S
C1202 H1193 0.950 . S
C1202 C1201 1.398 . S
C1202 C1203 1.391 . S
C1203 H1191 0.950 . S
C1203 C1199 1.393 . S
C1203 C1202 1.391 . S
C1204 H1194 0.950 . S
C1204 C1205 1.386 . S
C1204 C1206 1.391 . S
C1205 C1204 1.386 . S
C1205 C1209 1.393 . S
C1206 H1195 0.950 . S
C1206 C1204 1.391 . S
C1206 C1207 1.400 . S
C1207 C1201 1.491 . S
C1207 C1206 1.400 . S
C1207 C1208 1.398 . S
C1208 H1196 0.950 . S
C1208 C1207 1.398 . S
C1208 C1209 1.391 . S
C1209 H1197 0.950 . S
C1209 C1205 1.393 . S
C1209 C1208 1.391 . S
H1210 C1218 0.950 . S
H1211 C1223 0.950 . S
H1212 C1220 0.950 . S
H1213 C1222 0.950 . S
H1214 C1224 0.950 . S
H1215 C1226 0.950 . S
H1216 C1228 0.950 . S
H1217 C1229 0.950 . S
C1218 H1210 0.950 . S
C1218 C1219 1.386 . S
C1218 C1220 1.391 . S
C1219 C1218 1.386 . S
C1219 C1223 1.393 . S
C1220 H1212 0.950 . S
C1220 C1218 1.391 . S
C1220 C1221 1.400 . S
C1221 C1220 1.400 . S
C1221 C1222 1.398 . S
C1221 C1227 1.491 . S
C1222 H1213 0.950 . S
C1222 C1221 1.398 . S
C1222 C1223 1.391 . S
C1223 H1211 0.950 . S
C1223 C1219 1.393 . S
C1223 C1222 1.391 . S
C1224 H1214 0.950 . S
C1224 C1225 1.386 . S
C1224 C1226 1.391 . S
C1225 C1224 1.386 . S
C1225 C1229 1.393 . S
C1226 H1215 0.950 . S
C1226 C1224 1.391 . S
C1226 C1227 1.400 . S
C1227 C1221 1.491 . S
C1227 C1226 1.400 . S
C1227 C1228 1.398 . S
C1228 H1216 0.950 . S
C1228 C1227 1.398 . S
C1228 C1229 1.391 . S
C1229 H1217 0.950 . S
C1229 C1225 1.393 . S
C1229 C1228 1.391 . S
H1230 C1238 0.950 . S
H1231 C1243 0.950 . S
H1232 C1240 0.950 . S
H1233 C1242 0.950 . S
H1234 C1244 0.950 . S
H1235 C1246 0.950 . S
H1236 C1248 0.950 . S
H1237 C1249 0.950 . S
C1238 H1230 0.950 . S
C1238 C1239 1.386 . S
C1238 C1240 1.391 . S
C1239 C1238 1.386 . S
C1239 C1243 1.393 . S
C1240 H1232 0.950 . S
C1240 C1238 1.391 . S
C1240 C1241 1.400 . S
C1241 C1240 1.400 . S
C1241 C1242 1.398 . S
C1241 C1247 1.491 . S
C1242 H1233 0.950 . S
C1242 C1241 1.398 . S
C1242 C1243 1.391 . S
C1243 H1231 0.950 . S
C1243 C1239 1.393 . S
C1243 C1242 1.391 . S
C1244 H1234 0.950 . S
C1244 C1245 1.386 . S
C1244 C1246 1.391 . S
C1245 C1244 1.386 . S
C1245 C1249 1.393 . S
C1246 H1235 0.950 . S
C1246 C1244 1.391 . S
C1246 C1247 1.400 . S
C1247 C1241 1.491 . S
C1247 C1246 1.400 . S
C1247 C1248 1.398 . S
C1248 H1236 0.950 . S
C1248 C1247 1.398 . S
C1248 C1249 1.391 . S
C1249 H1237 0.950 . S
C1249 C1245 1.393 . S
C1249 C1248 1.391 . S
H1250 C1258 0.950 . S
H1251 C1263 0.950 . S
H1252 C1260 0.950 . S
H1253 C1262 0.950 . S
H1254 C1264 0.950 . S
H1255 C1266 0.950 . S
H1256 C1268 0.950 . S
H1257 C1269 0.950 . S
C1258 H1250 0.950 . S
C1258 C1259 1.386 . S
C1258 C1260 1.391 . S
C1259 C1258 1.386 . S
C1259 C1263 1.393 . S
C1260 H1252 0.950 . S
C1260 C1258 1.391 . S
C1260 C1261 1.400 . S
C1261 C1260 1.400 . S
C1261 C1262 1.398 . S
C1261 C1267 1.491 . S
C1262 H1253 0.950 . S
C1262 C1261 1.398 . S
C1262 C1263 1.391 . S
C1263 H1251 0.950 . S
C1263 C1259 1.393 . S
C1263 C1262 1.391 . S
C1264 H1254 0.950 . S
C1264 C1265 1.386 . S
C1264 C1266 1.391 . S
C1265 C1264 1.386 . S
C1265 C1269 1.393 . S
C1266 H1255 0.950 . S
C1266 C1264 1.391 . S
C1266 C1267 1.400 . S
C1267 C1261 1.491 . S
C1267 C1266 1.400 . S
C1267 C1268 1.398 . S
C1268 H1256 0.950 . S
C1268 C1267 1.398 . S
C1268 C1269 1.391 . S
C1269 H1257 0.950 . S
C1269 C1265 1.393 . S
C1269 C1268 1.391 . S
H1270 C1278 0.950 . S
H1271 C1283 0.950 . S
H1272 C1280 0.950 . S
H1273 C1282 0.950 . S
H1274 C1284 0.950 . S
H1275 C1286 0.950 . S
H1276 C1288 0.950 . S
H1277 C1289 0.950 . S
C1278 H1270 0.950 . S
C1278 C1279 1.386 . S
C1278 C1280 1.391 . S
C1279 C1278 1.386 . S
C1279 C1283 1.393 . S
C1280 H1272 0.950 . S
C1280 C1278 1.391 . S
C1280 C1281 1.400 . S
C1281 C1280 1.400 . S
C1281 C1282 1.398 . S
C1281 C1287 1.491 . S
C1282 H1273 0.950 . S
C1282 C1281 1.398 . S
C1282 C1283 1.391 . S
C1283 H1271 0.950 . S
C1283 C1279 1.393 . S
C1283 C1282 1.391 . S
C1284 H1274 0.950 . S
C1284 C1285 1.386 . S
C1284 C1286 1.391 . S
C1285 C1284 1.386 . S
C1285 C1289 1.393 . S
C1286 H1275 0.950 . S
C1286 C1284 1.391 . S
C1286 C1287 1.400 . S
C1287 C1281 1.491 . S
C1287 C1286 1.400 . S
C1287 C1288 1.398 . S
C1288 H1276 0.950 . S
C1288 C1287 1.398 . S
C1288 C1289 1.391 . S
C1289 H1277 0.950 . S
C1289 C1285 1.393 . S
C1289 C1288 1.391 . S
H1290 C1298 0.950 . S
H1291 C1303 0.950 . S
H1292 C1300 0.950 . S
H1293 C1302 0.950 . S
H1294 C1304 0.950 . S
H1295 C1306 0.950 . S
H1296 C1308 0.950 . S
H1297 C1309 0.950 . S
C1298 H1290 0.950 . S
C1298 C1299 1.386 . S
C1298 C1300 1.391 . S
C1299 C1298 1.386 . S
C1299 C1303 1.393 . S
C1300 H1292 0.950 . S
C1300 C1298 1.391 . S
C1300 C1301 1.400 . S
C1301 C1300 1.400 . S
C1301 C1302 1.398 . S
C1301 C1307 1.491 . S
C1302 H1293 0.950 . S
C1302 C1301 1.398 . S
C1302 C1303 1.391 . S
C1303 H1291 0.950 . S
C1303 C1299 1.393 . S
C1303 C1302 1.391 . S
C1304 H1294 0.950 . S
C1304 C1305 1.386 . S
C1304 C1306 1.391 . S
C1305 C1304 1.386 . S
C1305 C1309 1.393 . S
C1306 H1295 0.950 . S
C1306 C1304 1.391 . S
C1306 C1307 1.400 . S
C1307 C1301 1.491 . S
C1307 C1306 1.400 . S
C1307 C1308 1.398 . S
C1308 H1296 0.950 . S
C1308 C1307 1.398 . S
C1308 C1309 1.391 . S
C1309 H1297 0.950 . S
C1309 C1305 1.393 . S
C1309 C1308 1.391 . S
H1310 C1318 0.950 . S
H1311 C1323 0.950 . S
H1312 C1320 0.950 . S
H1313 C1322 0.950 . S
H1314 C1324 0.950 . S
H1315 C1326 0.950 . S
H1316 C1328 0.950 . S
H1317 C1329 0.950 . S
C1318 H1310 0.950 . S
C1318 C1319 1.386 . S
C1318 C1320 1.391 . S
C1319 C1318 1.386 . S
C1319 C1323 1.393 . S
C1320 H1312 0.950 . S
C1320 C1318 1.391 . S
C1320 C1321 1.400 . S
C1321 C1320 1.400 . S
C1321 C1322 1.398 . S
C1321 C1327 1.491 . S
C1322 H1313 0.950 . S
C1322 C1321 1.398 . S
C1322 C1323 1.391 . S
C1323 H1311 0.950 . S
C1323 C1319 1.393 . S
C1323 C1322 1.391 . S
C1324 H1314 0.950 . S
C1324 C1325 1.386 . S
C1324 C1326 1.391 . S
C1325 C1324 1.386 . S
C1325 C1329 1.393 . S
C1326 H1315 0.950 . S
C1326 C1324 1.391 . S
C1326 C1327 1.400 . S
C1327 C1321 1.491 . S
C1327 C1326 1.400 . S
C1327 C1328 1.398 . S
C1328 H1316 0.950 . S
C1328 C1327 1.398 . S
C1328 C1329 1.391 . S
C1329 H1317 0.950 . S
C1329 C1325 1.393 . S
C1329 C1328 1.391 . S
H1330 C1338 0.950 . S
H1331 C1343 0.950 . S
H1332 C1340 0.950 . S
H1333 C1342 0.950 . S
H1334 C1344 0.950 . S
H1335 C1346 0.950 . S
H1336 C1348 0.950 . S
H1337 C1349 0.950 . S
C1338 H1330 0.950 . S
C1338 C1339 1.386 . S
C1338 C1340 1.391 . S
C1339 C1338 1.386 . S
C1339 C1343 1.393 . S
C1340 H1332 0.950 . S
C1340 C1338 1.391 . S
C1340 C1341 1.400 . S
C1341 C1340 1.400 . S
C1341 C1342 1.398 . S
C1341 C1347 1.491 . S
C1342 H1333 0.950 . S
C1342 C1341 1.398 . S
C1342 C1343 1.391 . S
C1343 H1331 0.950 . S
C1343 C1339 1.393 . S
C1343 C1342 1.391 . S
C1344 H1334 0.950 . S
C1344 C1345 1.386 . S
C1344 C1346 1.391 . S
C1345 C1344 1.386 . S
C1345 C1349 1.393 . S
C1346 H1335 0.950 . S
C1346 C1344 1.391 . S
C1346 C1347 1.400 . S
C1347 C1341 1.491 . S
C1347 C1346 1.400 . S
C1347 C1348 1.398 . S
C1348 H1336 0.950 . S
C1348 C1347 1.398 . S
C1348 C1349 1.391 . S
C1349 H1337 0.950 . S
C1349 C1345 1.393 . S
C1349 C1348 1.391 . S
H1350 C1358 0.950 . S
H1351 C1363 0.950 . S
H1352 C1360 0.950 . S
H1353 C1362 0.950 . S
H1354 C1364 0.950 . S
H1355 C1366 0.950 . S
H1356 C1368 0.950 . S
H1357 C1369 0.950 . S
C1358 H1350 0.950 . S
C1358 C1359 1.386 . S
C1358 C1360 1.391 . S
C1359 C1358 1.386 . S
C1359 C1363 1.393 . S
C1360 H1352 0.950 . S
C1360 C1358 1.391 . S
C1360 C1361 1.400 . S
C1361 C1360 1.400 . S
C1361 C1362 1.398 . S
C1361 C1367 1.491 . S
C1362 H1353 0.950 . S
C1362 C1361 1.398 . S
C1362 C1363 1.391 . S
C1363 H1351 0.950 . S
C1363 C1359 1.393 . S
C1363 C1362 1.391 . S
C1364 H1354 0.950 . S
C1364 C1365 1.386 . S
C1364 C1366 1.391 . S
C1365 C1364 1.386 . S
C1365 C1369 1.393 . S
C1366 H1355 0.950 . S
C1366 C1364 1.391 . S
C1366 C1367 1.400 . S
C1367 C1361 1.491 . S
C1367 C1366 1.400 . S
C1367 C1368 1.398 . S
C1368 H1356 0.950 . S
C1368 C1367 1.398 . S
C1368 C1369 1.391 . S
C1369 H1357 0.950 . S
C1369 C1365 1.393 . S
C1369 C1368 1.391 . S
H1370 C1378 0.950 . S
H1371 C1383 0.950 . S
H1372 C1380 0.950 . S
H1373 C1382 0.950 . S
H1374 C1384 0.950 . S
H1375 C1386 0.950 . S
H1376 C1388 0.950 . S
H1377 C1389 0.950 . S
C1378 H1370 0.950 . S
C1378 C1379 1.386 . S
C1378 C1380 1.391 . S
C1379 C1378 1.386 . S
C1379 C1383 1.393 . S
C1380 H1372 0.950 . S
C1380 C1378 1.391 . S
C1380 C1381 1.400 . S
C1381 C1380 1.400 . S
C1381 C1382 1.398 . S
C1381 C1387 1.491 . S
C1382 H1373 0.950 . S
C1382 C1381 1.398 . S
C1382 C1383 1.391 . S
C1383 H1371 0.950 . S
C1383 C1379 1.393 . S
C1383 C1382 1.391 . S
C1384 H1374 0.950 . S
C1384 C1385 1.386 . S
C1384 C1386 1.391 . S
C1385 C1384 1.386 . S
C1385 C1389 1.393 . S
C1386 H1375 0.950 . S
C1386 C1384 1.391 . S
C1386 C1387 1.400 . S
C1387 C1381 1.491 . S
C1387 C1386 1.400 . S
C1387 C1388 1.398 . S
C1388 H1376 0.950 . S
C1388 C1387 1.398 . S
C1388 C1389 1.391 . S
C1389 H1377 0.950 . S
C1389 C1385 1.393 . S
C1389 C1388 1.391 . S
H1390 C1398 0.950 . S
H1391 C1403 0.950 . S
H1392 C1400 0.950 . S
H1393 C1402 0.950 . S
H1394 C1404 0.950 . S
H1395 C1406 0.950 . S
H1396 C1408 0.950 . S
H1397 C1409 0.950 . S
C1398 H1390 0.950 . S
C1398 C1399 1.386 . S
C1398 C1400 1.391 . S
C1399 C1398 1.386 . S
C1399 C1403 1.393 . S
C1400 H1392 0.950 . S
C1400 C1398 1.391 . S
C1400 C1401 1.400 . S
C1401 C1400 1.400 . S
C1401 C1402 1.398 . S
C1401 C1407 1.491 . S
C1402 H1393 0.950 . S
C1402 C1401 1.398 . S
C1402 C1403 1.391 . S
C1403 H1391 0.950 . S
C1403 C1399 1.393 . S
C1403 C1402 1.391 . S
C1404 H1394 0.950 . S
C1404 C1405 1.386 . S
C1404 C1406 1.391 . S
C1405 C1404 1.386 . S
C1405 C1409 1.393 . S
C1406 H1395 0.950 . S
C1406 C1404 1.391 . S
C1406 C1407 1.400 . S
C1407 C1401 1.491 . S
C1407 C1406 1.400 . S
C1407 C1408 1.398 . S
C1408 H1396 0.950 . S
C1408 C1407 1.398 . S
C1408 C1409 1.391 . S
C1409 H1397 0.950 . S
C1409 C1405 1.393 . S
C1409 C1408 1.391 . S
H1410 C1418 0.950 1_554 S
H1411 C1423 0.950 . S
H1412 C1420 0.950 . S
H1413 C1422 0.950 . S
H1414 C1424 0.950 . S
H1415 C1426 0.950 . S
H1416 C1428 0.950 . S
H1417 C1429 0.950 . S
C1418 H1410 0.950 1_556 S
C1418 C1419 1.386 . S
C1418 C1420 1.391 . S
C1419 C1418 1.386 . S
C1419 C1423 1.393 . S
C1420 H1412 0.950 . S
C1420 C1418 1.391 . S
C1420 C1421 1.400 . S
C1421 C1420 1.400 . S
C1421 C1422 1.398 . S
C1421 C1427 1.491 . S
C1422 H1413 0.950 . S
C1422 C1421 1.398 . S
C1422 C1423 1.391 . S
C1423 H1411 0.950 . S
C1423 C1419 1.393 . S
C1423 C1422 1.391 . S
C1424 H1414 0.950 . S
C1424 C1425 1.386 . S
C1424 C1426 1.391 . S
C1425 C1424 1.386 . S
C1425 C1429 1.393 . S
C1426 H1415 0.950 . S
C1426 C1424 1.391 . S
C1426 C1427 1.400 . S
C1427 C1421 1.491 . S
C1427 C1426 1.400 . S
C1427 C1428 1.398 . S
C1428 H1416 0.950 . S
C1428 C1427 1.398 . S
C1428 C1429 1.391 . S
C1429 H1417 0.950 . S
C1429 C1425 1.393 . S
C1429 C1428 1.391 . S
H1430 C1438 0.950 1_554 S
H1431 C1443 0.950 . S
H1432 C1440 0.950 . S
H1433 C1442 0.950 . S
H1434 C1444 0.950 . S
H1435 C1446 0.950 . S
H1436 C1448 0.950 . S
H1437 C1449 0.950 . S
C1438 H1430 0.950 1_556 S
C1438 C1439 1.386 . S
C1438 C1440 1.391 . S
C1439 C1438 1.386 . S
C1439 C1443 1.393 . S
C1440 H1432 0.950 . S
C1440 C1438 1.391 . S
C1440 C1441 1.400 . S
C1441 C1440 1.400 . S
C1441 C1442 1.398 . S
C1441 C1447 1.491 . S
C1442 H1433 0.950 . S
C1442 C1441 1.398 . S
C1442 C1443 1.391 . S
C1443 H1431 0.950 . S
C1443 C1439 1.393 . S
C1443 C1442 1.391 . S
C1444 H1434 0.950 . S
C1444 C1445 1.386 . S
C1444 C1446 1.391 . S
C1445 C1444 1.386 . S
C1445 C1449 1.393 . S
C1446 H1435 0.950 . S
C1446 C1444 1.391 . S
C1446 C1447 1.400 . S
C1447 C1441 1.491 . S
C1447 C1446 1.400 . S
C1447 C1448 1.398 . S
C1448 H1436 0.950 . S
C1448 C1447 1.398 . S
C1448 C1449 1.391 . S
C1449 H1437 0.950 . S
C1449 C1445 1.393 . S
C1449 C1448 1.391 . S
H1450 C1458 0.950 . S
H1451 C1463 0.950 . S
H1452 C1460 0.950 . S
H1453 C1462 0.950 . S
H1454 C1464 0.950 . S
H1455 C1466 0.950 . S
H1456 C1468 0.950 . S
H1457 C1469 0.950 . S
C1458 H1450 0.950 . S
C1458 C1459 1.386 . S
C1458 C1460 1.391 . S
C1459 C1458 1.386 . S
C1459 C1463 1.393 . S
C1460 H1452 0.950 . S
C1460 C1458 1.391 . S
C1460 C1461 1.400 . S
C1461 C1460 1.400 . S
C1461 C1462 1.398 . S
C1461 C1467 1.491 . S
C1462 H1453 0.950 . S
C1462 C1461 1.398 . S
C1462 C1463 1.391 . S
C1463 H1451 0.950 . S
C1463 C1459 1.393 . S
C1463 C1462 1.391 . S
C1464 H1454 0.950 . S
C1464 C1465 1.386 . S
C1464 C1466 1.391 . S
C1465 C1464 1.386 . S
C1465 C1469 1.393 . S
C1466 H1455 0.950 . S
C1466 C1464 1.391 . S
C1466 C1467 1.400 . S
C1467 C1461 1.491 . S
C1467 C1466 1.400 . S
C1467 C1468 1.398 . S
C1468 H1456 0.950 . S
C1468 C1467 1.398 . S
C1468 C1469 1.391 . S
C1469 H1457 0.950 . S
C1469 C1465 1.393 . S
C1469 C1468 1.391 . S
H1470 C1478 0.950 1_554 S
H1471 C1483 0.950 . S
H1472 C1480 0.950 . S
H1473 C1482 0.950 . S
H1474 C1484 0.950 . S
H1475 C1486 0.950 . S
H1476 C1488 0.950 . S
H1477 C1489 0.950 . S
C1478 H1470 0.950 1_556 S
C1478 C1479 1.386 . S
C1478 C1480 1.391 . S
C1479 C1478 1.386 . S
C1479 C1483 1.393 . S
C1480 H1472 0.950 . S
C1480 C1478 1.391 . S
C1480 C1481 1.400 . S
C1481 C1480 1.400 . S
C1481 C1482 1.398 . S
C1481 C1487 1.491 . S
C1482 H1473 0.950 . S
C1482 C1481 1.398 . S
C1482 C1483 1.391 . S
C1483 H1471 0.950 . S
C1483 C1479 1.393 . S
C1483 C1482 1.391 . S
C1484 H1474 0.950 . S
C1484 C1485 1.386 . S
C1484 C1486 1.391 . S
C1485 C1484 1.386 . S
C1485 C1489 1.393 . S
C1486 H1475 0.950 . S
C1486 C1484 1.391 . S
C1486 C1487 1.400 . S
C1487 C1481 1.491 . S
C1487 C1486 1.400 . S
C1487 C1488 1.398 . S
C1488 H1476 0.950 . S
C1488 C1487 1.398 . S
C1488 C1489 1.391 . S
C1489 H1477 0.950 . S
C1489 C1485 1.393 . S
C1489 C1488 1.391 . S
H1490 C1498 0.950 1_554 S
H1491 C1503 0.950 . S
H1492 C1500 0.950 . S
H1493 C1502 0.950 . S
H1494 C1504 0.950 . S
H1495 C1506 0.950 . S
H1496 C1508 0.950 . S
H1497 C1509 0.950 . S
C1498 H1490 0.950 1_556 S
C1498 C1499 1.386 . S
C1498 C1500 1.391 . S
C1499 C1498 1.386 . S
C1499 C1503 1.393 . S
C1500 H1492 0.950 . S
C1500 C1498 1.391 . S
C1500 C1501 1.400 . S
C1501 C1500 1.400 . S
C1501 C1502 1.398 . S
C1501 C1507 1.491 . S
C1502 H1493 0.950 . S
C1502 C1501 1.398 . S
C1502 C1503 1.391 . S
C1503 H1491 0.950 . S
C1503 C1499 1.393 . S
C1503 C1502 1.391 . S
C1504 H1494 0.950 . S
C1504 C1505 1.386 . S
C1504 C1506 1.391 . S
C1505 C1504 1.386 . S
C1505 C1509 1.393 . S
C1506 H1495 0.950 . S
C1506 C1504 1.391 . S
C1506 C1507 1.400 . S
C1507 C1501 1.491 . S
C1507 C1506 1.400 . S
C1507 C1508 1.398 . S
C1508 H1496 0.950 . S
C1508 C1507 1.398 . S
C1508 C1509 1.391 . S
C1509 H1497 0.950 . S
C1509 C1505 1.393 . S
C1509 C1508 1.391 . S
H1510 C1518 0.950 . S
H1511 C1523 0.950 1_554 S
H1512 C1520 0.950 . S
H1513 C1522 0.950 . S
H1514 C1524 0.950 . S
H1515 C1526 0.950 . S
H1516 C1528 0.950 . S
H1517 C1529 0.950 . S
C1518 H1510 0.950 . S
C1518 C1519 1.386 . S
C1518 C1520 1.391 . S
C1519 C1518 1.386 . S
C1519 C1523 1.393 . S
C1520 H1512 0.950 . S
C1520 C1518 1.391 . S
C1520 C1521 1.400 . S
C1521 C1520 1.400 . S
C1521 C1522 1.398 . S
C1521 C1527 1.491 . S
C1522 H1513 0.950 . S
C1522 C1521 1.398 . S
C1522 C1523 1.391 . S
C1523 H1511 0.950 1_556 S
C1523 C1519 1.393 . S
C1523 C1522 1.391 . S
C1524 H1514 0.950 . S
C1524 C1525 1.386 . S
C1524 C1526 1.391 . S
C1525 C1524 1.386 . S
C1525 C1529 1.393 . S
C1526 H1515 0.950 . S
C1526 C1524 1.391 . S
C1526 C1527 1.400 . S
C1527 C1521 1.491 . S
C1527 C1526 1.400 . S
C1527 C1528 1.398 . S
C1528 H1516 0.950 . S
C1528 C1527 1.398 . S
C1528 C1529 1.391 . S
C1529 H1517 0.950 . S
C1529 C1525 1.393 . S
C1529 C1528 1.391 . S
H1530 C1538 0.950 . S
H1531 C1543 0.950 . S
H1532 C1540 0.950 . S
H1533 C1542 0.950 . S
H1534 C1544 0.950 . S
H1535 C1546 0.950 . S
H1536 C1548 0.950 . S
H1537 C1549 0.950 . S
C1538 H1530 0.950 . S
C1538 C1539 1.386 . S
C1538 C1540 1.391 . S
C1539 C1538 1.386 . S
C1539 C1543 1.393 . S
C1540 H1532 0.950 . S
C1540 C1538 1.391 . S
C1540 C1541 1.400 . S
C1541 C1540 1.400 . S
C1541 C1542 1.398 . S
C1541 C1547 1.491 . S
C1542 H1533 0.950 . S
C1542 C1541 1.398 . S
C1542 C1543 1.391 . S
C1543 H1531 0.950 . S
C1543 C1539 1.393 . S
C1543 C1542 1.391 . S
C1544 H1534 0.950 . S
C1544 C1545 1.386 . S
C1544 C1546 1.391 . S
C1545 C1544 1.386 . S
C1545 C1549 1.393 . S
C1546 H1535 0.950 . S
C1546 C1544 1.391 . S
C1546 C1547 1.400 . S
C1547 C1541 1.491 . S
C1547 C1546 1.400 . S
C1547 C1548 1.398 . S
C1548 H1536 0.950 . S
C1548 C1547 1.398 . S
C1548 C1549 1.391 . S
C1549 H1537 0.950 . S
C1549 C1545 1.393 . S
C1549 C1548 1.391 . S
H1550 C1558 0.950 . S
H1551 C1563 0.950 . S
H1552 C1560 0.950 . S
H1553 C1562 0.950 . S
H1554 C1564 0.950 . S
H1555 C1566 0.950 . S
H1556 C1568 0.950 . S
H1557 C1569 0.950 . S
C1558 H1550 0.950 . S
C1558 C1559 1.386 . S
C1558 C1560 1.391 . S
C1559 C1558 1.386 . S
C1559 C1563 1.393 . S
C1560 H1552 0.950 . S
C1560 C1558 1.391 . S
C1560 C1561 1.400 . S
C1561 C1560 1.400 . S
C1561 C1562 1.398 . S
C1561 C1567 1.491 . S
C1562 H1553 0.950 . S
C1562 C1561 1.398 . S
C1562 C1563 1.391 . S
C1563 H1551 0.950 . S
C1563 C1559 1.393 . S
C1563 C1562 1.391 . S
C1564 H1554 0.950 . S
C1564 C1565 1.386 . S
C1564 C1566 1.391 . S
C1565 C1564 1.386 . S
C1565 C1569 1.393 . S
C1566 H1555 0.950 . S
C1566 C1564 1.391 . S
C1566 C1567 1.400 . S
C1567 C1561 1.491 . S
C1567 C1566 1.400 . S
C1567 C1568 1.398 . S
C1568 H1556 0.950 . S
C1568 C1567 1.398 . S
C1568 C1569 1.391 . S
C1569 H1557 0.950 . S
C1569 C1565 1.393 . S
C1569 C1568 1.391 . S
H1570 C1578 0.950 . S
H1571 C1583 0.950 . S
H1572 C1580 0.950 . S
H1573 C1582 0.950 . S
H1574 C1584 0.950 . S
H1575 C1586 0.950 . S
H1576 C1588 0.950 . S
H1577 C1589 0.950 . S
C1578 H1570 0.950 . S
C1578 C1579 1.386 . S
C1578 C1580 1.391 . S
C1579 C1578 1.386 . S
C1579 C1583 1.393 . S
C1580 H1572 0.950 . S
C1580 C1578 1.391 . S
C1580 C1581 1.400 . S
C1581 C1580 1.400 . S
C1581 C1582 1.398 . S
C1581 C1587 1.491 . S
C1582 H1573 0.950 . S
C1582 C1581 1.398 . S
C1582 C1583 1.391 . S
C1583 H1571 0.950 . S
C1583 C1579 1.393 . S
C1583 C1582 1.391 . S
C1584 H1574 0.950 . S
C1584 C1585 1.386 . S
C1584 C1586 1.391 . S
C1585 C1584 1.386 . S
C1585 C1589 1.393 . S
C1586 H1575 0.950 . S
C1586 C1584 1.391 . S
C1586 C1587 1.400 . S
C1587 C1581 1.491 . S
C1587 C1586 1.400 . S
C1587 C1588 1.398 . S
C1588 H1576 0.950 . S
C1588 C1587 1.398 . S
C1588 C1589 1.391 . S
C1589 H1577 0.950 . S
C1589 C1585 1.393 . S
C1589 C1588 1.391 . S
H1590 C1598 0.950 . S
H1591 C1603 0.950 . S
H1592 C1600 0.950 . S
H1593 C1602 0.950 . S
H1594 C1604 0.950 . S
H1595 C1606 0.950 . S
H1596 C1608 0.950 . S
H1597 C1609 0.950 . S
C1598 H1590 0.950 . S
C1598 C1599 1.386 . S
C1598 C1600 1.391 . S
C1599 C1598 1.386 . S
C1599 C1603 1.393 . S
C1600 H1592 0.950 . S
C1600 C1598 1.391 . S
C1600 C1601 1.400 . S
C1601 C1600 1.400 . S
C1601 C1602 1.398 . S
C1601 C1607 1.491 . S
C1602 H1593 0.950 . S
C1602 C1601 1.398 . S
C1602 C1603 1.391 . S
C1603 H1591 0.950 . S
C1603 C1599 1.393 . S
C1603 C1602 1.391 . S
C1604 H1594 0.950 . S
C1604 C1605 1.386 . S
C1604 C1606 1.391 . S
C1605 C1604 1.386 . S
C1605 C1609 1.393 . S
C1606 H1595 0.950 . S
C1606 C1604 1.391 . S
C1606 C1607 1.400 . S
C1607 C1601 1.491 . S
C1607 C1606 1.400 . S
C1607 C1608 1.398 . S
C1608 H1596 0.950 . S
C1608 C1607 1.398 . S
C1608 C1609 1.391 . S
C1609 H1597 0.950 . S
C1609 C1605 1.393 . S
C1609 C1608 1.391 . S
H1610 C1618 0.950 . S
H1611 C1623 0.950 . S
H1612 C1620 0.950 . S
H1613 C1622 0.950 . S
H1614 C1624 0.950 . S
H1615 C1626 0.950 . S
H1616 C1628 0.950 . S
H1617 C1629 0.950 . S
C1618 H1610 0.950 . S
C1618 C1619 1.386 . S
C1618 C1620 1.391 . S
C1619 C1618 1.386 . S
C1619 C1623 1.393 . S
C1620 H1612 0.950 . S
C1620 C1618 1.391 . S
C1620 C1621 1.400 . S
C1621 C1620 1.400 . S
C1621 C1622 1.398 . S
C1621 C1627 1.491 . S
C1622 H1613 0.950 . S
C1622 C1621 1.398 . S
C1622 C1623 1.391 . S
C1623 H1611 0.950 . S
C1623 C1619 1.393 . S
C1623 C1622 1.391 . S
C1624 H1614 0.950 . S
C1624 C1625 1.386 . S
C1624 C1626 1.391 . S
C1625 C1624 1.386 . S
C1625 C1629 1.393 . S
C1626 H1615 0.950 . S
C1626 C1624 1.391 . S
C1626 C1627 1.400 . S
C1627 C1621 1.491 . S
C1627 C1626 1.400 . S
C1627 C1628 1.398 . S
C1628 H1616 0.950 . S
C1628 C1627 1.398 . S
C1628 C1629 1.391 . S
C1629 H1617 0.950 . S
C1629 C1625 1.393 . S
C1629 C1628 1.391 . S
H1630 C1638 0.950 . S
H1631 C1643 0.950 . S
H1632 C1640 0.950 . S
H1633 C1642 0.950 . S
H1634 C1644 0.950 . S
H1635 C1646 0.950 . S
H1636 C1648 0.950 . S
H1637 C1649 0.950 . S
C1638 H1630 0.950 . S
C1638 C1639 1.386 . S
C1638 C1640 1.391 . S
C1639 C1638 1.386 . S
C1639 C1643 1.393 . S
C1640 H1632 0.950 . S
C1640 C1638 1.391 . S
C1640 C1641 1.400 . S
C1641 C1640 1.400 . S
C1641 C1642 1.398 . S
C1641 C1647 1.491 . S
C1642 H1633 0.950 . S
C1642 C1641 1.398 . S
C1642 C1643 1.391 . S
C1643 H1631 0.950 . S
C1643 C1639 1.393 . S
C1643 C1642 1.391 . S
C1644 H1634 0.950 . S
C1644 C1645 1.386 . S
C1644 C1646 1.391 . S
C1645 C1644 1.386 . S
C1645 C1649 1.393 . S
C1646 H1635 0.950 . S
C1646 C1644 1.391 . S
C1646 C1647 1.400 . S
C1647 C1641 1.491 . S
C1647 C1646 1.400 . S
C1647 C1648 1.398 . S
C1648 H1636 0.950 . S
C1648 C1647 1.398 . S
C1648 C1649 1.391 . S
C1649 H1637 0.950 . S
C1649 C1645 1.393 . S
C1649 C1648 1.391 . S
H1650 C1658 0.950 . S
H1651 C1663 0.950 . S
H1652 C1660 0.950 . S
H1653 C1662 0.950 . S
H1654 C1664 0.950 . S
H1655 C1666 0.950 . S
H1656 C1668 0.950 . S
H1657 C1669 0.950 . S
C1658 H1650 0.950 . S
C1658 C1659 1.386 1_655 S
C1658 C1660 1.391 . S
C1659 C1658 1.386 1_455 S
C1659 C1663 1.393 . S
C1660 H1652 0.950 . S
C1660 C1658 1.391 . S
C1660 C1661 1.400 1_655 S
C1661 C1660 1.400 1_455 S
C1661 C1662 1.398 . S
C1661 C1667 1.491 . S
C1662 H1653 0.950 . S
C1662 C1661 1.398 . S
C1662 C1663 1.391 . S
C1663 H1651 0.950 . S
C1663 C1659 1.393 . S
C1663 C1662 1.391 . S
C1664 H1654 0.950 . S
C1664 C1665 1.386 . S
C1664 C1666 1.391 . S
C1665 C1664 1.386 . S
C1665 C1669 1.393 1_455 S
C1666 H1655 0.950 . S
C1666 C1664 1.391 . S
C1666 C1667 1.400 . S
C1667 C1661 1.491 . S
C1667 C1666 1.400 . S
C1667 C1668 1.398 1_455 S
C1668 H1656 0.950 . S
C1668 C1667 1.398 1_655 S
C1668 C1669 1.391 . S
C1669 H1657 0.950 . S
C1669 C1665 1.393 1_655 S
C1669 C1668 1.391 . S
H1670 C1678 0.950 . S
H1671 C1683 0.950 . S
H1672 C1680 0.950 . S
H1673 C1682 0.950 . S
H1674 C1684 0.950 . S
H1675 C1686 0.950 . S
H1676 C1688 0.950 . S
H1677 C1689 0.950 . S
C1678 H1670 0.950 . S
C1678 C1679 1.386 . S
C1678 C1680 1.391 . S
C1679 C1678 1.386 . S
C1679 C1683 1.393 . S
C1680 H1672 0.950 . S
C1680 C1678 1.391 . S
C1680 C1681 1.400 . S
C1681 C1680 1.400 . S
C1681 C1682 1.398 . S
C1681 C1687 1.491 . S
C1682 H1673 0.950 . S
C1682 C1681 1.398 . S
C1682 C1683 1.391 . S
C1683 H1671 0.950 . S
C1683 C1679 1.393 . S
C1683 C1682 1.391 . S
C1684 H1674 0.950 . S
C1684 C1685 1.386 . S
C1684 C1686 1.391 . S
C1685 C1684 1.386 . S
C1685 C1689 1.393 . S
C1686 H1675 0.950 . S
C1686 C1684 1.391 . S
C1686 C1687 1.400 . S
C1687 C1681 1.491 . S
C1687 C1686 1.400 . S
C1687 C1688 1.398 . S
C1688 H1676 0.950 . S
C1688 C1687 1.398 . S
C1688 C1689 1.391 . S
C1689 H1677 0.950 . S
C1689 C1685 1.393 . S
C1689 C1688 1.391 . S
H1690 C1698 0.950 . S
H1691 C1703 0.950 . S
H1692 C1700 0.950 . S
H1693 C1702 0.950 . S
H1694 C1704 0.950 . S
H1695 C1706 0.950 . S
H1696 C1708 0.950 . S
H1697 C1709 0.950 . S
C1698 H1690 0.950 . S
C1698 C1699 1.386 . S
C1698 C1700 1.391 . S
C1699 C1698 1.386 . S
C1699 C1703 1.393 1_565 S
C1700 H1692 0.950 . S
C1700 C1698 1.391 . S
C1700 C1701 1.400 . S
C1701 C1700 1.400 . S
C1701 C1702 1.398 1_565 S
C1701 C1707 1.491 . S
C1702 H1693 0.950 . S
C1702 C1701 1.398 1_545 S
C1702 C1703 1.391 . S
C1703 H1691 0.950 . S
C1703 C1699 1.393 1_545 S
C1703 C1702 1.391 . S
C1704 H1694 0.950 . S
C1704 C1705 1.386 1_545 S
C1704 C1706 1.391 . S
C1705 C1704 1.386 1_565 S
C1705 C1709 1.393 . S
C1706 H1695 0.950 . S
C1706 C1704 1.391 . S
C1706 C1707 1.400 1_545 S
C1707 C1701 1.491 . S
C1707 C1706 1.400 1_565 S
C1707 C1708 1.398 . S
C1708 H1696 0.950 . S
C1708 C1707 1.398 . S
C1708 C1709 1.391 . S
C1709 H1697 0.950 . S
C1709 C1705 1.393 . S
C1709 C1708 1.391 . S
H1710 C1718 0.950 . S
H1711 C1723 0.950 . S
H1712 C1720 0.950 . S
H1713 C1722 0.950 . S
H1714 C1724 0.950 . S
H1715 C1726 0.950 . S
H1716 C1728 0.950 . S
H1717 C1729 0.950 . S
C1718 H1710 0.950 . S
C1718 C1719 1.386 . S
C1718 C1720 1.391 . S
C1719 C1718 1.386 . S
C1719 C1723 1.393 1_565 S
C1720 H1712 0.950 . S
C1720 C1718 1.391 . S
C1720 C1721 1.400 . S
C1721 C1720 1.400 . S
C1721 C1722 1.398 1_565 S
C1721 C1727 1.491 . S
C1722 H1713 0.950 . S
C1722 C1721 1.398 1_545 S
C1722 C1723 1.391 . S
C1723 H1711 0.950 . S
C1723 C1719 1.393 1_545 S
C1723 C1722 1.391 . S
C1724 H1714 0.950 . S
C1724 C1725 1.386 1_545 S
C1724 C1726 1.391 . S
C1725 C1724 1.386 1_565 S
C1725 C1729 1.393 . S
C1726 H1715 0.950 . S
C1726 C1724 1.391 . S
C1726 C1727 1.400 1_545 S
C1727 C1721 1.491 . S
C1727 C1726 1.400 1_565 S
C1727 C1728 1.398 . S
C1728 H1716 0.950 . S
C1728 C1727 1.398 . S
C1728 C1729 1.391 . S
C1729 H1717 0.950 . S
C1729 C1725 1.393 . S
C1729 C1728 1.391 . S
H1730 C1738 0.950 . S
H1731 C1743 0.950 . S
H1732 C1740 0.950 . S
H1733 C1742 0.950 . S
H1734 C1744 0.950 . S
H1735 C1746 0.950 . S
H1736 C1748 0.950 . S
H1737 C1749 0.950 . S
C1738 H1730 0.950 . S
C1738 C1739 1.386 1_655 S
C1738 C1740 1.391 . S
C1739 C1738 1.386 1_455 S
C1739 C1743 1.393 . S
C1740 H1732 0.950 . S
C1740 C1738 1.391 . S
C1740 C1741 1.400 1_655 S
C1741 C1740 1.400 1_455 S
C1741 C1742 1.398 . S
C1741 C1747 1.491 . S
C1742 H1733 0.950 . S
C1742 C1741 1.398 . S
C1742 C1743 1.391 . S
C1743 H1731 0.950 . S
C1743 C1739 1.393 . S
C1743 C1742 1.391 . S
C1744 H1734 0.950 . S
C1744 C1745 1.421 . S
C1744 C1746 1.391 . S
C1745 C1744 1.421 . S
C1745 C1749 1.330 1_455 S
C1746 H1735 0.950 . S
C1746 C1744 1.391 . S
C1746 C1747 1.400 . S
C1747 C1741 1.491 . S
C1747 C1746 1.400 . S
C1747 C1748 1.398 1_455 S
C1748 H1736 0.950 . S
C1748 C1747 1.398 1_655 S
C1748 C1749 1.391 . S
C1749 H1737 0.950 . S
C1749 C1745 1.330 1_655 S
C1749 C1748 1.391 . S
H1750 C1758 0.950 . S
H1751 C1763 0.950 . S
H1752 C1760 0.950 . S
H1753 C1762 0.950 . S
H1754 C1764 0.950 . S
H1755 C1766 0.950 . S
H1756 C1768 0.950 . S
H1757 C1769 0.950 . S
C1758 H1750 0.950 . S
C1758 C1759 1.386 . S
C1758 C1760 1.391 . S
C1759 C1758 1.386 . S
C1759 C1763 1.393 . S
C1760 H1752 0.950 . S
C1760 C1758 1.391 . S
C1760 C1761 1.400 . S
C1761 C1760 1.400 . S
C1761 C1762 1.398 . S
C1761 C1767 1.491 . S
C1762 H1753 0.950 . S
C1762 C1761 1.398 . S
C1762 C1763 1.391 . S
C1763 H1751 0.950 . S
C1763 C1759 1.393 . S
C1763 C1762 1.391 . S
C1764 H1754 0.950 . S
C1764 C1765 1.386 . S
C1764 C1766 1.391 . S
C1765 C1764 1.386 . S
C1765 C1769 1.393 . S
C1766 H1755 0.950 . S
C1766 C1764 1.391 . S
C1766 C1767 1.400 . S
C1767 C1761 1.491 . S
C1767 C1766 1.400 . S
C1767 C1768 1.398 . S
C1768 H1756 0.950 . S
C1768 C1767 1.398 . S
C1768 C1769 1.391 . S
C1769 H1757 0.950 . S
C1769 C1765 1.393 . S
C1769 C1768 1.391 . S
H1770 C1778 0.950 . S
H1771 C1783 0.950 . S
H1772 C1780 0.950 . S
H1773 C1782 0.950 . S
H1774 C1784 0.950 . S
H1775 C1786 0.950 . S
H1776 C1788 0.950 . S
H1777 C1789 0.950 . S
C1778 H1770 0.950 . S
C1778 C1779 1.386 . S
C1778 C1780 1.391 . S
C1779 C1778 1.386 . S
C1779 C1783 1.393 . S
C1780 H1772 0.950 . S
C1780 C1778 1.391 . S
C1780 C1781 1.400 . S
C1781 C1780 1.400 . S
C1781 C1782 1.398 . S
C1781 C1787 1.491 . S
C1782 H1773 0.950 . S
C1782 C1781 1.398 . S
C1782 C1783 1.391 . S
C1783 H1771 0.950 . S
C1783 C1779 1.393 . S
C1783 C1782 1.391 . S
C1784 H1774 0.950 . S
C1784 C1785 1.386 . S
C1784 C1786 1.391 . S
C1785 C1784 1.386 . S
C1785 C1789 1.393 . S
C1786 H1775 0.950 . S
C1786 C1784 1.391 . S
C1786 C1787 1.400 . S
C1787 C1781 1.491 . S
C1787 C1786 1.400 . S
C1787 C1788 1.398 . S
C1788 H1776 0.950 . S
C1788 C1787 1.398 . S
C1788 C1789 1.391 . S
C1789 H1777 0.950 . S
C1789 C1785 1.393 . S
C1789 C1788 1.391 . S
H1790 C1798 0.950 . S
H1791 C1803 0.950 . S
H1792 C1800 0.950 . S
H1793 C1802 0.950 . S
H1794 C1804 0.950 . S
H1795 C1806 0.950 . S
H1796 C1808 0.950 . S
H1797 C1809 0.950 . S
C1798 H1790 0.950 . S
C1798 C1799 1.386 . S
C1798 C1800 1.391 . S
C1799 C1798 1.386 . S
C1799 C1803 1.393 . S
C1800 H1792 0.950 . S
C1800 C1798 1.391 . S
C1800 C1801 1.400 . S
C1801 C1800 1.400 . S
C1801 C1802 1.398 . S
C1801 C1807 1.491 . S
C1802 H1793 0.950 . S
C1802 C1801 1.398 . S
C1802 C1803 1.391 . S
C1803 H1791 0.950 . S
C1803 C1799 1.393 . S
C1803 C1802 1.391 . S
C1804 H1794 0.950 . S
C1804 C1805 1.386 . S
C1804 C1806 1.391 . S
C1805 C1804 1.386 . S
C1805 C1809 1.393 . S
C1806 H1795 0.950 . S
C1806 C1804 1.391 . S
C1806 C1807 1.400 . S
C1807 C1801 1.491 . S
C1807 C1806 1.400 . S
C1807 C1808 1.398 . S
C1808 H1796 0.950 . S
C1808 C1807 1.398 . S
C1808 C1809 1.391 . S
C1809 H1797 0.950 . S
C1809 C1805 1.393 . S
C1809 C1808 1.391 . S
H1810 C1818 0.950 . S
H1811 C1823 0.950 . S
H1812 C1820 0.950 . S
H1813 C1822 0.950 . S
H1814 C1824 0.950 . S
H1815 C1826 0.950 . S
H1816 C1828 0.950 . S
H1817 C1829 0.950 . S
C1818 H1810 0.950 . S
C1818 C1819 1.386 . S
C1818 C1820 1.391 . S
C1819 C1818 1.386 . S
C1819 C1823 1.393 . S
C1820 H1812 0.950 . S
C1820 C1818 1.391 . S
C1820 C1821 1.400 . S
C1821 C1820 1.400 . S
C1821 C1822 1.398 . S
C1821 C1827 1.491 . S
C1822 H1813 0.950 . S
C1822 C1821 1.398 . S
C1822 C1823 1.391 . S
C1823 H1811 0.950 . S
C1823 C1819 1.393 . S
C1823 C1822 1.391 . S
C1824 H1814 0.950 . S
C1824 C1825 1.386 . S
C1824 C1826 1.391 . S
C1825 C1824 1.386 . S
C1825 C1829 1.393 . S
C1826 H1815 0.950 . S
C1826 C1824 1.391 . S
C1826 C1827 1.400 . S
C1827 C1821 1.491 . S
C1827 C1826 1.400 . S
C1827 C1828 1.398 . S
C1828 H1816 0.950 . S
C1828 C1827 1.398 . S
C1828 C1829 1.391 . S
C1829 H1817 0.950 . S
C1829 C1825 1.393 . S
C1829 C1828 1.391 . S
H1830 C1838 0.950 . S
H1831 C1843 0.950 . S
H1832 C1840 0.950 . S
H1833 C1842 0.950 . S
H1834 C1844 0.950 . S
H1835 C1846 0.950 . S
H1836 C1848 0.950 . S
H1837 C1849 0.950 . S
C1838 H1830 0.950 . S
C1838 C1839 1.386 . S
C1838 C1840 1.391 . S
C1839 C1838 1.386 . S
C1839 C1843 1.393 . S
C1840 H1832 0.950 . S
C1840 C1838 1.391 . S
C1840 C1841 1.400 . S
C1841 C1840 1.400 . S
C1841 C1842 1.398 . S
C1841 C1847 1.491 . S
C1842 H1833 0.950 . S
C1842 C1841 1.398 . S
C1842 C1843 1.391 . S
C1843 H1831 0.950 . S
C1843 C1839 1.393 . S
C1843 C1842 1.391 . S
C1844 H1834 0.950 . S
C1844 C1845 1.386 . S
C1844 C1846 1.391 . S
C1845 C1844 1.386 . S
C1845 C1849 1.393 . S
C1846 H1835 0.950 . S
C1846 C1844 1.391 . S
C1846 C1847 1.400 . S
C1847 C1841 1.491 . S
C1847 C1846 1.400 . S
C1847 C1848 1.398 . S
C1848 H1836 0.950 . S
C1848 C1847 1.398 . S
C1848 C1849 1.391 . S
C1849 H1837 0.950 . S
C1849 C1845 1.393 . S
C1849 C1848 1.391 . S
H1850 C1858 0.950 . S
H1851 C1863 0.950 . S
H1852 C1860 0.950 . S
H1853 C1862 0.950 . S
H1854 C1864 0.950 . S
H1855 C1866 0.950 . S
H1856 C1868 0.950 . S
H1857 C1869 0.950 . S
C1858 H1850 0.950 . S
C1858 C1859 1.386 1_455 S
C1858 C1860 1.391 . S
C1859 C1858 1.386 1_655 S
C1859 C1863 1.393 . S
C1860 H1852 0.950 . S
C1860 C1858 1.391 . S
C1860 C1861 1.400 1_455 S
C1861 C1860 1.400 1_655 S
C1861 C1862 1.398 . S
C1861 C1867 1.491 . S
C1862 H1853 0.950 . S
C1862 C1861 1.398 . S
C1862 C1863 1.391 . S
C1863 H1851 0.950 . S
C1863 C1859 1.393 . S
C1863 C1862 1.391 . S
C1864 H1854 0.950 . S
C1864 C1865 1.386 . S
C1864 C1866 1.391 . S
C1865 C1864 1.386 . S
C1865 C1869 1.393 1_655 S
C1866 H1855 0.950 . S
C1866 C1864 1.391 . S
C1866 C1867 1.400 . S
C1867 C1861 1.491 . S
C1867 C1866 1.400 . S
C1867 C1868 1.398 1_655 S
C1868 H1856 0.950 . S
C1868 C1867 1.398 1_455 S
C1868 C1869 1.391 . S
C1869 H1857 0.950 . S
C1869 C1865 1.393 1_455 S
C1869 C1868 1.391 . S
H1870 C1878 0.950 . S
H1871 C1883 0.950 . S
H1872 C1880 0.950 . S
H1873 C1882 0.950 . S
H1874 C1884 0.950 . S
H1875 C1886 0.950 . S
H1876 C1888 0.950 . S
H1877 C1889 0.950 . S
C1878 H1870 0.950 . S
C1878 C1879 1.386 . S
C1878 C1880 1.391 . S
C1879 C1878 1.386 . S
C1879 C1883 1.393 . S
C1880 H1872 0.950 . S
C1880 C1878 1.391 . S
C1880 C1881 1.400 . S
C1881 C1880 1.400 . S
C1881 C1882 1.398 . S
C1881 C1887 1.491 . S
C1882 H1873 0.950 . S
C1882 C1881 1.398 . S
C1882 C1883 1.391 . S
C1883 H1871 0.950 . S
C1883 C1879 1.393 . S
C1883 C1882 1.391 . S
C1884 H1874 0.950 . S
C1884 C1885 1.386 . S
C1884 C1886 1.391 . S
C1885 C1884 1.386 . S
C1885 C1889 1.393 . S
C1886 H1875 0.950 . S
C1886 C1884 1.391 . S
C1886 C1887 1.400 . S
C1887 C1881 1.491 . S
C1887 C1886 1.400 . S
C1887 C1888 1.398 . S
C1888 H1876 0.950 . S
C1888 C1887 1.398 . S
C1888 C1889 1.391 . S
C1889 H1877 0.950 . S
C1889 C1885 1.393 . S
C1889 C1888 1.391 . S
H1890 C1898 0.950 . S
H1891 C1903 0.950 . S
H1892 C1900 0.950 . S
H1893 C1902 0.950 . S
H1894 C1904 0.950 . S
H1895 C1906 0.950 . S
H1896 C1908 0.950 . S
H1897 C1909 0.950 . S
C1898 H1890 0.950 . S
C1898 C1899 1.386 . S
C1898 C1900 1.391 . S
C1899 C1898 1.386 . S
C1899 C1903 1.393 . S
C1900 H1892 0.950 . S
C1900 C1898 1.391 . S
C1900 C1901 1.400 . S
C1901 C1900 1.400 . S
C1901 C1902 1.398 . S
C1901 C1907 1.491 . S
C1902 H1893 0.950 . S
C1902 C1901 1.398 . S
C1902 C1903 1.391 . S
C1903 H1891 0.950 . S
C1903 C1899 1.393 . S
C1903 C1902 1.391 . S
C1904 H1894 0.950 . S
C1904 C1905 1.386 . S
C1904 C1906 1.391 . S
C1905 C1904 1.386 . S
C1905 C1909 1.393 . S
C1906 H1895 0.950 . S
C1906 C1904 1.391 . S
C1906 C1907 1.400 . S
C1907 C1901 1.491 . S
C1907 C1906 1.400 . S
C1907 C1908 1.398 . S
C1908 H1896 0.950 . S
C1908 C1907 1.398 . S
C1908 C1909 1.391 . S
C1909 H1897 0.950 . S
C1909 C1905 1.393 . S
C1909 C1908 1.391 . S
H1910 C1918 0.950 . S
H1911 C1923 0.950 . S
H1912 C1920 0.950 . S
H1913 C1922 0.950 . S
H1914 C1924 0.950 . S
H1915 C1926 0.950 . S
H1916 C1928 0.950 . S
H1917 C1929 0.950 . S
C1918 H1910 0.950 . S
C1918 C1919 1.386 . S
C1918 C1920 1.391 . S
C1919 C1918 1.386 . S
C1919 C1923 1.393 . S
C1920 H1912 0.950 . S
C1920 C1918 1.391 . S
C1920 C1921 1.400 . S
C1921 C1920 1.400 . S
C1921 C1922 1.398 . S
C1921 C1927 1.491 . S
C1922 H1913 0.950 . S
C1922 C1921 1.398 . S
C1922 C1923 1.391 . S
C1923 H1911 0.950 . S
C1923 C1919 1.393 . S
C1923 C1922 1.391 . S
C1924 H1914 0.950 . S
C1924 C1925 1.386 . S
C1924 C1926 1.391 . S
C1925 C1924 1.386 . S
C1925 C1929 1.393 . S
C1926 H1915 0.950 . S
C1926 C1924 1.391 . S
C1926 C1927 1.400 . S
C1927 C1921 1.491 . S
C1927 C1926 1.400 . S
C1927 C1928 1.398 . S
C1928 H1916 0.950 . S
C1928 C1927 1.398 . S
C1928 C1929 1.391 . S
C1929 H1917 0.950 . S
C1929 C1925 1.393 . S
C1929 C1928 1.391 . S
H1930 C1938 0.950 . S
H1931 C1943 0.950 . S
H1932 C1940 0.950 . S
H1933 C1942 0.950 . S
H1934 C1944 0.950 . S
H1935 C1946 0.950 . S
H1936 C1948 0.950 . S
H1937 C1949 0.950 . S
C1938 H1930 0.950 . S
C1938 C1939 1.386 . S
C1938 C1940 1.391 . S
C1939 C1938 1.386 . S
C1939 C1943 1.393 . S
C1940 H1932 0.950 . S
C1940 C1938 1.391 . S
C1940 C1941 1.400 . S
C1941 C1940 1.400 . S
C1941 C1942 1.398 . S
C1941 C1947 1.491 . S
C1942 H1933 0.950 . S
C1942 C1941 1.398 . S
C1942 C1943 1.391 . S
C1943 H1931 0.950 . S
C1943 C1939 1.393 . S
C1943 C1942 1.391 . S
C1944 H1934 0.950 . S
C1944 C1945 1.386 . S
C1944 C1946 1.391 . S
C1945 C1944 1.386 . S
C1945 C1949 1.393 . S
C1946 H1935 0.950 . S
C1946 C1944 1.391 . S
C1946 C1947 1.400 . S
C1947 C1941 1.491 . S
C1947 C1946 1.400 . S
C1947 C1948 1.398 . S
C1948 H1936 0.950 . S
C1948 C1947 1.398 . S
C1948 C1949 1.391 . S
C1949 H1937 0.950 . S
C1949 C1945 1.393 . S
C1949 C1948 1.391 . S
H1950 C1958 0.950 . S
H1951 C1963 0.950 . S
H1952 C1960 0.950 . S
H1953 C1962 0.950 . S
H1954 C1964 0.950 . S
H1955 C1966 0.950 . S
H1956 C1968 0.950 . S
H1957 C1969 0.950 . S
C1958 H1950 0.950 . S
C1958 C1959 1.386 . S
C1958 C1960 1.391 . S
C1959 C1958 1.386 . S
C1959 C1963 1.393 . S
C1960 H1952 0.950 . S
C1960 C1958 1.391 . S
C1960 C1961 1.400 . S
C1961 C1960 1.400 . S
C1961 C1962 1.398 . S
C1961 C1967 1.491 . S
C1962 H1953 0.950 . S
C1962 C1961 1.398 . S
C1962 C1963 1.391 . S
C1963 H1951 0.950 . S
C1963 C1959 1.393 . S
C1963 C1962 1.391 . S
C1964 H1954 0.950 . S
C1964 C1965 1.386 . S
C1964 C1966 1.391 . S
C1965 C1964 1.386 . S
C1965 C1969 1.393 . S
C1966 H1955 0.950 . S
C1966 C1964 1.391 . S
C1966 C1967 1.400 . S
C1967 C1961 1.491 . S
C1967 C1966 1.400 . S
C1967 C1968 1.398 . S
C1968 H1956 0.950 . S
C1968 C1967 1.398 . S
C1968 C1969 1.391 . S
C1969 H1957 0.950 . S
C1969 C1965 1.393 . S
C1969 C1968 1.391 . S
H1970 C1978 0.950 . S
H1971 C1983 0.950 . S
H1972 C1980 0.950 . S
H1973 C1982 0.950 . S
H1974 C1984 0.950 . S
H1975 C1986 0.950 . S
H1976 C1988 0.950 . S
H1977 C1989 0.950 . S
C1978 H1970 0.950 . S
C1978 C1979 1.386 . S
C1978 C1980 1.391 . S
C1979 C1978 1.386 . S
C1979 C1983 1.393 . S
C1980 H1972 0.950 . S
C1980 C1978 1.391 . S
C1980 C1981 1.400 . S
C1981 C1980 1.400 . S
C1981 C1982 1.398 . S
C1981 C1987 1.491 . S
C1982 H1973 0.950 . S
C1982 C1981 1.398 . S
C1982 C1983 1.391 . S
C1983 H1971 0.950 . S
C1983 C1979 1.393 . S
C1983 C1982 1.391 . S
C1984 H1974 0.950 . S
C1984 C1985 1.386 . S
C1984 C1986 1.391 . S
C1985 C1984 1.386 . S
C1985 C1989 1.393 . S
C1986 H1975 0.950 . S
C1986 C1984 1.391 . S
C1986 C1987 1.400 . S
C1987 C1981 1.491 . S
C1987 C1986 1.400 . S
C1987 C1988 1.398 . S
C1988 H1976 0.950 . S
C1988 C1987 1.398 . S
C1988 C1989 1.391 . S
C1989 H1977 0.950 . S
C1989 C1985 1.393 . S
C1989 C1988 1.391 . S
H1990 C1998 0.950 . S
H1991 C2003 0.950 . S
H1992 C2000 0.950 . S
H1993 C2002 0.950 . S
H1994 C2004 0.950 . S
H1995 C2006 0.950 . S
H1996 C2008 0.950 . S
H1997 C2009 0.950 . S
C1998 H1990 0.950 . S
C1998 C1999 1.386 . S
C1998 C2000 1.391 . S
C1999 C1998 1.386 . S
C1999 C2003 1.393 . S
C2000 H1992 0.950 . S
C2000 C1998 1.391 . S
C2000 C2001 1.400 . S
C2001 C2000 1.400 . S
C2001 C2002 1.398 . S
C2001 C2007 1.491 . S
C2002 H1993 0.950 . S
C2002 C2001 1.398 . S
C2002 C2003 1.391 . S
C2003 H1991 0.950 . S
C2003 C1999 1.393 . S
C2003 C2002 1.391 . S
C2004 H1994 0.950 . S
C2004 C2005 1.386 . S
C2004 C2006 1.391 . S
C2005 C2004 1.386 . S
C2005 C2009 1.393 . S
C2006 H1995 0.950 . S
C2006 C2004 1.391 . S
C2006 C2007 1.400 . S
C2007 C2001 1.491 . S
C2007 C2006 1.400 . S
C2007 C2008 1.398 . S
C2008 H1996 0.950 . S
C2008 C2007 1.398 . S
C2008 C2009 1.391 . S
C2009 H1997 0.950 . S
C2009 C2005 1.393 . S
C2009 C2008 1.391 . S
H2010 C2018 0.950 . S
H2011 C2023 0.950 1_455 S
H2012 C2020 0.950 . S
H2013 C2022 0.953 . S
H2014 C2024 0.950 . S
H2015 C2026 0.950 . S
H2016 C2028 0.950 . S
H2017 C2029 0.950 . S
C2018 H2010 0.950 . S
C2018 C2019 1.386 . S
C2018 C2020 1.391 . S
C2019 C2018 1.386 . S
C2019 C2023 1.393 . S
C2020 H2012 0.950 . S
C2020 C2018 1.391 . S
C2020 C2021 1.400 . S
C2021 C2020 1.400 . S
C2021 C2022 1.398 1_655 S
C2021 C2027 1.491 . S
C2022 H2013 0.953 . S
C2022 C2021 1.398 1_455 S
C2022 C2023 1.389 1_455 S
C2023 H2011 0.950 1_655 S
C2023 C2019 1.393 . S
C2023 C2022 1.389 1_655 S
C2024 H2014 0.950 . S
C2024 C2025 1.386 1_455 S
C2024 C2026 1.391 . S
C2025 C2024 1.386 1_655 S
C2025 C2029 1.393 . S
C2026 H2015 0.950 . S
C2026 C2024 1.391 . S
C2026 C2027 1.400 1_455 S
C2027 C2021 1.491 . S
C2027 C2026 1.400 1_655 S
C2027 C2028 1.398 . S
C2028 H2016 0.950 . S
C2028 C2027 1.398 . S
C2028 C2029 1.391 . S
C2029 H2017 0.950 . S
C2029 C2025 1.393 . S
C2029 C2028 1.391 . S
H2030 C2038 0.950 . S
H2031 C2043 0.950 . S
H2032 C2040 0.950 . S
H2033 C2042 0.950 . S
H2034 C2044 0.950 . S
H2035 C2046 0.950 . S
H2036 C2048 0.950 . S
H2037 C2049 0.950 . S
C2038 H2030 0.950 . S
C2038 C2039 1.386 . S
C2038 C2040 1.391 . S
C2039 C2038 1.386 . S
C2039 C2043 1.393 . S
C2040 H2032 0.950 . S
C2040 C2038 1.391 . S
C2040 C2041 1.400 . S
C2041 C2040 1.400 . S
C2041 C2042 1.398 . S
C2041 C2047 1.491 . S
C2042 H2033 0.950 . S
C2042 C2041 1.398 . S
C2042 C2043 1.391 . S
C2043 H2031 0.950 . S
C2043 C2039 1.393 . S
C2043 C2042 1.391 . S
C2044 H2034 0.950 . S
C2044 C2045 1.386 . S
C2044 C2046 1.391 . S
C2045 C2044 1.386 . S
C2045 C2049 1.393 . S
C2046 H2035 0.950 . S
C2046 C2044 1.391 . S
C2046 C2047 1.400 . S
C2047 C2041 1.491 . S
C2047 C2046 1.400 . S
C2047 C2048 1.398 . S
C2048 H2036 0.950 . S
C2048 C2047 1.398 . S
C2048 C2049 1.391 . S
C2049 H2037 0.950 . S
C2049 C2045 1.393 . S
C2049 C2048 1.391 . S
H2050 C2058 0.950 . S
H2051 C2063 0.950 . S
H2052 C2060 0.950 . S
H2053 C2062 0.950 . S
H2054 C2064 0.950 . S
H2055 C2066 0.950 . S
H2056 C2068 0.950 . S
H2057 C2069 0.950 . S
C2058 H2050 0.950 . S
C2058 C2059 1.386 . S
C2058 C2060 1.391 . S
C2059 C2058 1.386 . S
C2059 C2063 1.393 1_545 S
C2060 H2052 0.950 . S
C2060 C2058 1.391 . S
C2060 C2061 1.400 . S
C2061 C2060 1.400 . S
C2061 C2062 1.398 1_545 S
C2061 C2067 1.491 . S
C2062 H2053 0.950 . S
C2062 C2061 1.398 1_565 S
C2062 C2063 1.391 . S
C2063 H2051 0.950 . S
C2063 C2059 1.393 1_565 S
C2063 C2062 1.391 . S
C2064 H2054 0.950 . S
C2064 C2065 1.386 1_565 S
C2064 C2066 1.391 . S
C2065 C2064 1.386 1_545 S
C2065 C2069 1.393 . S
C2066 H2055 0.950 . S
C2066 C2064 1.391 . S
C2066 C2067 1.400 1_565 S
C2067 C2061 1.491 . S
C2067 C2066 1.400 1_545 S
C2067 C2068 1.398 . S
C2068 H2056 0.950 . S
C2068 C2067 1.398 . S
C2068 C2069 1.391 . S
C2069 H2057 0.950 . S
C2069 C2065 1.393 . S
C2069 C2068 1.391 . S
C639 C7 1.504 . S
C645 C458 1.488 1_655 S
C659 C23 1.574 . S
C665 C471 1.558 . S
C685 C500 1.464 1_545 S
C679 C37 1.523 . S
C699 C35 1.513 1_545 S
C705 C513 1.492 . S
C719 C9 1.536 1_455 S
C725 C534 1.514 . S
C739 C21 1.532 . S
C745 C563 1.492 . S
C759 C49 1.506 . S
C765 C542 1.491 1_655 S
C785 C555 1.493 . S
C779 C65 1.553 . S
C805 C521 1.494 . S
C799 C79 1.533 1_565 S
C819 C77 1.508 . S
C825 C492 1.491 1_545 S
C845 C450 1.501 1_655 S
C839 C51 1.547 1_655 S
C859 C63 1.518 . S
C865 C479 1.528 . S
C879 C91 1.589 . S
C885 C584 1.554 . S
C899 C107 1.606 . S
C905 C597 1.587 . S
C925 C626 1.520 . S
C919 C121 1.621 . S
C939 C119 1.567 . S
C945 C261 1.574 . S
C959 C93 1.624 . S
C965 C282 1.609 . S
C979 C105 1.556 . S
C985 C311 1.510 . S
C999 C133 1.535 . S
C1005 C290 1.526 . S
C1019 C149 1.574 . S
C1025 C303 1.537 . S
C1045 C269 1.569 . S
C1039 C163 1.592 . S
C1065 C618 1.564 . S
C1059 C161 1.592 . S
C1085 C576 1.519 . S
C1079 C135 1.590 . S
C1105 C605 1.578 . S
C1099 C147 1.558 . S
C1119 C175 1.562 . S
C1125 C332 1.525 . S
C1139 C191 1.587 . S
C1145 C345 1.564 . S
C1159 C205 1.617 . S
C1165 C374 1.524 . S
C1179 C203 1.607 . S
C1185 C387 1.626 . S
C1205 C408 1.608 . S
C1199 C177 1.628 . S
C1225 C437 1.536 . S
C1219 C189 1.573 . S
C1245 C416 1.586 . S
C1239 C217 1.587 . S
C1265 C429 1.531 . S
C1259 C233 1.589 . S
C1279 C247 1.596 . S
C1285 C395 1.561 . S
C1305 C366 1.515 . S
C1299 C245 1.546 . S
C1319 C219 1.600 . S
C1325 C324 1.523 . S
C1345 C353 1.563 . S
C1339 C231 1.565 . S
C1365 C264 1.438 . S
C1359 C8 1.534 . S
C1379 C17 1.475 . S
C1385 C285 1.385 . S
C1405 C313 1.409 . S
C1399 C31 1.523 . S
C1425 C334 1.430 . S
C1419 C36 1.528 . S
C1445 C348 1.385 . S
C1439 C3 1.512 . S
C1465 C376 1.351 . S
C1459 C22 1.477 . S
C1479 C50 1.552 . S
C1485 C369 1.394 . S
C1499 C59 1.488 . S
C1505 C327 1.313 . S
C1519 C73 1.526 . S
C1525 C355 1.452 . S
C1539 C78 1.558 . S
C1545 C292 1.495 . S
C1565 C306 1.384 . S
C1559 C45 1.520 . S
C1579 C64 1.498 . S
C1585 C271 1.404 . S
C1605 C390 1.433 . S
C1599 C92 1.530 . S
C1619 C101 1.553 . S
C1625 C411 1.443 . S
C1639 C115 1.570 . S
C1645 C439 1.464 . S
C1665 C460 1.372 . S
C1659 C120 1.465 . S
C1679 C87 1.516 . S
C1685 C474 1.420 . S
C1699 C106 1.452 . S
C1705 C502 1.385 . S
C1719 C134 1.480 . S
C1725 C495 1.333 . S
C1739 C143 1.469 . S
C1745 C453 1.392 . S
C1765 C481 1.467 . S
C1759 C157 1.541 . S
C1779 C162 1.539 . S
C1785 C418 1.462 . S
C1799 C129 1.581 . S
C1805 C432 1.432 . S
C1825 C397 1.464 . S
C1819 C148 1.561 . S
C1845 C516 1.352 1_545 S
C1839 C176 1.474 . S
C1859 C185 1.466 . S
C1865 C537 1.325 1_655 S
C1879 C199 1.528 . S
C1885 C565 1.410 . S
C1905 C586 1.418 . S
C1899 C204 1.514 . S
C1925 C600 1.462 . S
C1919 C171 1.564 . S
C1939 C190 1.547 . S
C1945 C628 1.412 . S
C1959 C218 1.547 . S
C1965 C621 1.390 . S
C1979 C227 1.567 . S
C1985 C579 1.380 . S
C2005 C607 1.468 . S
C1999 C241 1.577 . S
C2025 C544 1.371 1_655 S
C2019 C246 1.464 . S
C2045 C558 1.356 . S
C2039 C213 1.532 . S
C2059 C232 1.460 . S
C2065 C523 1.371 1_545 S
