# Generated by pormake.
# Topology zzz, (3,6)-cn, num edge types: 1
# Building blocks:
#     Node 0, Type 0, BuildingBlock: MIDCAF_clean_linker_0, # of connection points: 3
#     Node 1, Type 0, BuildingBlock: MIDCAF_clean_linker_0, # of connection points: 3
#     Node 2, Type 0, BuildingBlock: MIDCAF_clean_linker_0, # of connection points: 3
#     Node 3, Type 0, BuildingBlock: MIDCAF_clean_linker_0, # of connection points: 3
#     Node 4, Type 0, BuildingBlock: MIDCAF_clean_linker_0, # of connection points: 3
#     Node 5, Type 0, BuildingBlock: MIDCAF_clean_linker_0, # of connection points: 3
#     Node 6, Type 0, BuildingBlock: MIDCAF_clean_linker_0, # of connection points: 3
#     Node 7, Type 0, BuildingBlock: MIDCAF_clean_linker_0, # of connection points: 3
#     Node 8, Type 1, BuildingBlock: PAMTOO_clean_sbu_0, # of connection points: 6
#     Node 9, Type 1, BuildingBlock: PAMTOO_clean_sbu_0, # of connection points: 6
#     Node 10, Type 1, BuildingBlock: PAMTOO_clean_sbu_0, # of connection points: 6
#     Node 11, Type 1, BuildingBlock: PAMTOO_clean_sbu_0, # of connection points: 6
#     Edge 12, Type (0, 1), BuildingBlock: AJUNOK_clean_linker_0, # of connection points: 2
#     Edge 13, Type (0, 1), BuildingBlock: AJUNOK_clean_linker_0, # of connection points: 2
#     Edge 14, Type (0, 1), BuildingBlock: AJUNOK_clean_linker_0, # of connection points: 2
#     Edge 15, Type (0, 1), BuildingBlock: AJUNOK_clean_linker_0, # of connection points: 2
#     Edge 16, Type (0, 1), BuildingBlock: AJUNOK_clean_linker_0, # of connection points: 2
#     Edge 17, Type (0, 1), BuildingBlock: AJUNOK_clean_linker_0, # of connection points: 2
#     Edge 18, Type (0, 1), BuildingBlock: AJUNOK_clean_linker_0, # of connection points: 2
#     Edge 19, Type (0, 1), BuildingBlock: AJUNOK_clean_linker_0, # of connection points: 2
#     Edge 20, Type (0, 1), BuildingBlock: AJUNOK_clean_linker_0, # of connection points: 2
#     Edge 21, Type (0, 1), BuildingBlock: AJUNOK_clean_linker_0, # of connection points: 2
#     Edge 22, Type (0, 1), BuildingBlock: AJUNOK_clean_linker_0, # of connection points: 2
#     Edge 23, Type (0, 1), BuildingBlock: AJUNOK_clean_linker_0, # of connection points: 2
#     Edge 24, Type (0, 1), BuildingBlock: AJUNOK_clean_linker_0, # of connection points: 2
#     Edge 25, Type (0, 1), BuildingBlock: AJUNOK_clean_linker_0, # of connection points: 2
#     Edge 26, Type (0, 1), BuildingBlock: AJUNOK_clean_linker_0, # of connection points: 2
#     Edge 27, Type (0, 1), BuildingBlock: AJUNOK_clean_linker_0, # of connection points: 2
#     Edge 28, Type (0, 1), BuildingBlock: AJUNOK_clean_linker_0, # of connection points: 2
#     Edge 29, Type (0, 1), BuildingBlock: AJUNOK_clean_linker_0, # of connection points: 2
#     Edge 30, Type (0, 1), BuildingBlock: AJUNOK_clean_linker_0, # of connection points: 2
#     Edge 31, Type (0, 1), BuildingBlock: AJUNOK_clean_linker_0, # of connection points: 2
#     Edge 32, Type (0, 1), BuildingBlock: AJUNOK_clean_linker_0, # of connection points: 2
#     Edge 33, Type (0, 1), BuildingBlock: AJUNOK_clean_linker_0, # of connection points: 2
#     Edge 34, Type (0, 1), BuildingBlock: AJUNOK_clean_linker_0, # of connection points: 2
#     Edge 35, Type (0, 1), BuildingBlock: AJUNOK_clean_linker_0, # of connection points: 2
# Relax obj value: 0.388
# Max RMSD: 0.288
# Mean RMSD: 0.224
data_MOF--net-zzz--node1-PAMTOO_clean_sbu_0--node2-MIDCAF_clean_linker_0--edge1-AJUNOK_clean_linker_0
_symmetry_space_group_name_H-M    P1
_symmetry_Int_Tables_number       1
_symmetry_cell_setting            triclinic
loop_
_symmetry_equiv_pos_as_xyz
'x, y, z'
_cell_length_a     51.084814
_cell_length_b     42.990104
_cell_length_c     16.416395
_cell_angle_alpha  91.711202
_cell_angle_beta   79.634927
_cell_angle_gamma 84.384024
loop_
_atom_site_label
_atom_site_type_symbol
_atom_site_fract_x
_atom_site_fract_y
_atom_site_fract_z
_atom_type_partial_charge
C0 C 0.85232 0.57538 0.65678 0.0
C1 C 0.85602 0.54558 0.68851 0.0
C2 C 0.83604 0.52522 0.68547 0.0
C3 C 0.81431 0.53353 0.64533 0.0
H4 H 0.71034 0.60086 0.49984 0.0
H5 H 0.67399 0.59087 0.42707 0.0
H6 H 0.70979 0.49604 0.36642 0.0
H7 H 0.74598 0.50609 0.44027 0.0
H8 H 0.78481 0.56604 0.25571 0.0
H9 H 0.81987 0.54023 0.1494 0.0
H10 H 0.87934 0.58068 0.26312 0.0
H11 H 0.84425 0.60605 0.37144 0.0
H12 H 0.82959 0.60621 0.58988 0.0
H13 H 0.86707 0.5918 0.65736 0.0
H14 H 0.83763 0.50244 0.71156 0.0
H15 H 0.80046 0.51653 0.63845 0.0
N16 N 0.77005 0.55925 0.54802 0.0
N17 N 0.77009 0.57599 0.41237 0.0
N18 N 0.80732 0.58054 0.47323 0.0
C19 C 0.75719 0.56417 0.48218 0.0
C20 C 0.79518 0.58408 0.40696 0.0
C21 C 0.79523 0.56845 0.54384 0.0
C22 C 0.73068 0.55406 0.47753 0.0
C23 C 0.70958 0.57737 0.47521 0.0
C24 C 0.68909 0.57183 0.43185 0.0
C25 C 0.68941 0.54292 0.38908 0.0
C26 C 0.709 0.51859 0.39857 0.0
C27 C 0.72952 0.52416 0.44206 0.0
C28 C 0.81201 0.58635 0.32478 0.0
C29 C 0.80519 0.57099 0.25585 0.0
C30 C 0.82534 0.55612 0.19446 0.0
C31 C 0.85223 0.55744 0.20074 0.0
C32 C 0.85864 0.57867 0.25886 0.0
C33 C 0.83852 0.5933 0.32062 0.0
C34 C 0.81201 0.5625 0.60829 0.0
C35 C 0.83068 0.5837 0.61781 0.0
C36 C 0.03036 0.79225 0.61971 0.0
C37 C 1.00543 0.80975 0.62353 0.0
C38 C 0.98616 0.79677 0.58493 0.0
C39 C 0.99254 0.7682 0.538 0.0
H40 H 0.0399 0.62264 0.38557 0.0
H41 H 0.0308 0.58101 0.29295 0.0
H42 H 0.97379 0.64559 0.2026 0.0
H43 H 0.98262 0.68708 0.29665 0.0
H44 H 0.07902 0.69078 0.18059 0.0
H45 H 0.10117 0.71971 0.06715 0.0
H46 H 0.11371 0.79071 0.24371 0.0
H47 H 0.09287 0.76145 0.35653 0.0
H48 H 0.05682 0.75229 0.5664 0.0
H49 H 0.04569 0.80142 0.64845 0.0
H50 H 0.96654 0.80934 0.5881 0.0
H51 H 0.97806 0.75993 0.504 0.0
N52 N 0.01476 0.70418 0.44194 0.0
N53 N 0.04837 0.68986 0.32458 0.0
N54 N 0.05169 0.73317 0.40937 0.0
C55 C 0.02531 0.68428 0.3748 0.0
C56 C 0.06166 0.71433 0.34115 0.0
C57 C 0.02855 0.72844 0.46021 0.0
C58 C 1.01168 0.65794 0.34903 0.0
C59 C 0.02434 0.62744 0.34929 0.0
C60 C 0.01938 0.60374 0.29546 0.0
C61 C 1.00202 0.61023 0.23923 0.0
C62 C 0.98724 0.63986 0.24529 0.0
C63 C 0.99211 0.66358 0.29962 0.0
C64 C 0.08306 0.72459 0.27744 0.0
C65 C 0.08749 0.71191 0.19547 0.0
C66 C 0.10006 0.72855 0.13029 0.0
C67 C 0.10804 0.75816 0.14631 0.0
C68 C 0.10744 0.76818 0.22896 0.0
C69 C 0.09519 0.75147 0.29395 0.0
C70 C 0.01831 0.75221 0.52883 0.0
C71 C 0.03673 0.76399 0.57275 0.0
C72 C 0.67694 0.97812 0.48056 0.0
C73 C 0.67233 0.99124 0.56218 0.0
C74 C 0.69213 0.00843 0.58591 0.0
C75 C 0.71514 0.0136 0.52852 0.0
H76 H 0.82101 0.04968 0.31308 0.0
H77 H 0.86654 0.0416 0.23222 0.0
H78 H 0.84666 0.95889 0.11139 0.0
H79 H 0.80103 0.96717 0.19285 0.0
H80 H 0.75705 0.06482 0.10977 0.0
H81 H 0.72907 0.09091 0.0203 0.0
H82 H 0.66524 0.11162 0.23176 0.0
H83 H 0.69307 0.08641 0.32076 0.0
H84 H 0.70177 0.97474 0.35972 0.0
H85 H 0.66197 0.96554 0.45883 0.0
H86 H 0.68931 0.01895 0.64806 0.0
H87 H 0.72901 0.02875 0.547 0.0
N88 N 0.76394 0.00537 0.35659 0.0
N89 N 0.76708 0.04105 0.24945 0.0
N90 N 0.72606 0.038 0.33704 0.0
C91 C 0.77894 0.0186 0.29136 0.0
C92 C 0.74069 0.05095 0.2722 0.0
C93 C 0.73727 0.0155 0.37977 0.0
C94 C 0.80773 0.00853 0.26107 0.0
C95 C 0.82676 0.02905 0.27179 0.0
C96 C 0.85282 0.02446 0.22511 0.0
C97 C 0.86039 0.99949 0.1654 0.0
C98 C 0.84155 0.97831 0.15691 0.0
C99 C 0.81554 0.98275 0.20433 0.0
C100 C 0.72697 0.07287 0.22192 0.0
C101 C 0.73735 0.07586 0.13747 0.0
C102 C 0.72134 0.09067 0.08617 0.0
C103 C 0.69481 0.10272 0.11878 0.0
C104 C 0.68559 0.1026 0.20469 0.0
C105 C 0.70147 0.0878 0.25566 0.0
C106 C 0.71899 1.00156 0.44621 0.0
C107 C 0.69988 0.98327 0.42352 0.0
C108 C 0.44954 0.64951 0.21538 0.0
C109 C 0.45741 0.64551 0.12895 0.0
C110 C 0.47208 0.66797 0.08606 0.0
C111 C 0.48051 0.69247 0.1294 0.0
H112 H 0.54155 0.76321 0.11695 0.0
H113 H 0.54712 0.81058 0.0403 0.0
H114 H 0.50808 0.86653 0.25938 0.0
H115 H 0.50385 0.81885 0.33707 0.0
H116 H 0.47452 0.70537 0.50777 0.0
H117 H 0.48435 0.66769 0.60809 0.0
H118 H 0.56903 0.67116 0.5223 0.0
H119 H 0.55885 0.7087 0.41924 0.0
H120 H 0.45321 0.67505 0.32582 0.0
H121 H 0.43812 0.63269 0.24996 0.0
H122 H 0.47898 0.66522 0.01965 0.0
H123 H 0.49328 0.70814 0.0951 0.0
N124 N 0.49884 0.74108 0.2298 0.0
N125 N 0.51902 0.74957 0.34605 0.0
N126 N 0.49415 0.70673 0.33758 0.0
C127 C 0.51345 0.75865 0.27121 0.0
C128 C 0.50926 0.72328 0.37911 0.0
C129 C 0.48888 0.71529 0.2632 0.0
C130 C 0.5225 0.78742 0.23302 0.0
C131 C 0.53506 0.78574 0.14941 0.0
C132 C 0.53797 0.81289 0.10535 0.0
C133 C 0.52781 0.84247 0.14316 0.0
C134 C 0.51656 0.84428 0.2284 0.0
C135 C 0.51411 0.81698 0.27308 0.0
C136 C 0.51589 0.71012 0.45606 0.0
C137 C 0.49525 0.699 0.51238 0.0
C138 C 0.50094 0.67724 0.56983 0.0
C139 C 0.52751 0.66577 0.57244 0.0
C140 C 0.54832 0.67891 0.52073 0.0
C141 C 0.54255 0.70091 0.46288 0.0
C142 C 0.4748 0.69459 0.21641 0.0
C143 C 0.45826 0.67371 0.25873 0.0
C144 C 0.18096 0.51307 0.93903 0.0
C145 C 0.17516 0.49035 0.88313 0.0
C146 C 0.19262 0.46259 0.86596 0.0
C147 C 0.21365 0.45637 0.90939 0.0
H148 H 0.25813 0.51251 0.25096 0.0
H149 H 0.29316 0.5214 0.33069 0.0
H150 H 0.3452 0.44668 0.1858 0.0
H151 H 0.31027 0.43853 0.10515 0.0
H152 H 0.2112 0.4448 0.32967 0.0
H153 H 0.16602 0.45418 0.40716 0.0
H154 H 0.13629 0.41047 0.20685 0.0
H155 H 0.1818 0.40171 0.12773 0.0
H156 H 0.20425 0.52331 0.03145 0.0
H157 H 0.16771 0.53448 0.95482 0.0
H158 H 0.18883 0.44465 0.82309 0.0
H159 H 0.22491 0.43344 0.90077 0.0
N160 N 0.25155 0.47547 0.066 0.0
N161 N 0.24291 0.44634 0.18595 0.0
N162 N 0.21487 0.44583 0.0886 0.0
C163 C 0.25866 0.46504 0.13799 0.0
C164 C 0.22106 0.43643 0.1612 0.0
C165 C 0.22961 0.46519 0.0408 0.0
C166 C 0.2818 0.47549 0.17026 0.0
C167 C 0.27747 0.49889 0.23418 0.0
C168 C 0.29741 0.50364 0.28057 0.0
C169 C 0.32214 0.48485 0.26479 0.0
C170 C 0.32673 0.46211 0.19869 0.0
C171 C 0.30676 0.45745 0.15215 0.0
C172 C 0.19975 0.42422 0.22084 0.0
C173 C 0.19535 0.43548 0.30378 0.0
C174 C 0.16926 0.44095 0.34837 0.0
C175 C 0.14756 0.43472 0.31059 0.0
C176 C 0.15266 0.41674 0.23564 0.0
C177 C 0.17876 0.41151 0.19072 0.0
C178 C 0.21793 0.47779 0.97077 0.0
C179 C 0.20214 0.50684 0.98239 0.0
C180 C 0.01568 0.20528 0.0311 0.0
C181 C 0.03458 0.1858 0.97364 0.0
C182 C 0.06052 0.19492 0.95148 0.0
C183 C 0.06801 0.2212 0.99046 0.0
H184 H 1.01424 0.33465 0.24962 0.0
H185 H 1.00528 0.38102 0.34543 0.0
H186 H 0.08936 0.39339 0.29851 0.0
H187 H 0.09821 0.3472 0.2036 0.0
H188 H 0.087 0.27366 0.38158 0.0
H189 H 0.07871 0.23859 0.49455 0.0
H190 H 0.09709 0.15925 0.31919 0.0
H191 H 0.10529 0.19408 0.20612 0.0
H192 H 1.00896 0.24465 0.1193 0.0
H193 H 0.99564 0.19877 0.05063 0.0
H194 H 0.07552 0.18069 0.90708 0.0
H195 H 0.08875 0.22597 0.97685 0.0
N196 N 0.05352 0.28938 0.1311 0.0
N197 N 0.0797 0.28709 0.23574 0.0
N198 N 0.07642 0.24174 0.15887 0.0
C199 C 0.06404 0.30411 0.1912 0.0
C200 C 0.08582 0.25593 0.22072 0.0
C201 C 0.06058 0.25796 0.11342 0.0
C202 C 0.05688 0.3375 0.21842 0.0
C203 C 0.03052 0.34832 0.25628 0.0
C204 C 0.02546 0.37472 0.31177 0.0
C205 C 0.0467 0.39063 0.33022 0.0
C206 C 0.07264 0.38149 0.2861 0.0
C207 C 0.07765 0.35526 0.23094 0.0
C208 C 0.09532 0.23659 0.28462 0.0
C209 C 0.09076 0.24869 0.36716 0.0
C210 C 0.08601 0.22863 0.43224 0.0
C211 C 0.08632 0.19642 0.41511 0.0
C212 C 0.09643 0.18406 0.33414 0.0
C213 C 0.10097 0.2041 0.26904 0.0
C214 C 0.04975 0.23935 0.05211 0.0
C215 C 0.02322 0.23179 0.07001 0.0
C216 C 0.32827 0.98441 0.0728 0.0
C217 C 0.34098 0.01128 0.0489 0.0
C218 C 0.32626 0.04068 0.06953 0.0
C219 C 0.30043 0.04332 0.11765 0.0
H220 H 0.20918 0.95898 0.35058 0.0
H221 H 0.16543 0.95111 0.43267 0.0
H222 H 0.13912 0.04882 0.41593 0.0
H223 H 0.18231 0.05613 0.33203 0.0
H224 H 0.24773 0.02221 0.53015 0.0
H225 H 0.27895 0.01763 0.62678 0.0
H226 H 0.33572 0.06317 0.4543 0.0
H227 H 0.30393 0.07026 0.36362 0.0
H228 H 0.29428 0.96618 0.14619 0.0
H229 H 0.33908 0.96137 0.05879 0.0
H230 H 0.33529 0.06184 0.05187 0.0
H231 H 0.2907 0.06649 0.13804 0.0
N232 N 0.2431 0.01145 0.23681 0.0
N233 N 0.23664 0.028 0.37849 0.0
N234 N 0.27704 0.03345 0.29111 0.0
C235 C 0.227 0.01576 0.31405 0.0
C236 C 0.26156 0.03704 0.36725 0.0
C237 C 0.26843 0.0208 0.2258 0.0
C238 C 0.19897 0.00799 0.33285 0.0
C239 C 0.19352 0.97834 0.36108 0.0
C240 C 0.16863 0.9741 0.41017 0.0
C241 C 0.1488 0.9996 0.43378 0.0
C242 C 0.1537 0.02862 0.39979 0.0
C243 C 0.17844 0.03278 0.35054 0.0
C244 C 0.27405 0.04528 0.4378 0.0
C245 C 0.2664 0.03256 0.51527 0.0
C246 C 0.28453 0.02933 0.56975 0.0
C247 C 0.31055 0.03809 0.54595 0.0
C248 C 0.31615 0.05548 0.47474 0.0
C249 C 0.29791 0.05939 0.42182 0.0
C250 C 0.28846 0.01669 0.14727 0.0
C251 C 0.30235 0.9871 0.12187 0.0
C252 C 0.55841 0.34757 0.39816 0.0
C253 C 0.55485 0.34881 0.48501 0.0
C254 C 0.54417 0.32388 0.52859 0.0
C255 C 0.53573 0.29912 0.48646 0.0
H256 H 0.47102 0.2266 0.50431 0.0
H257 H 0.46768 0.18116 0.59004 0.0
H258 H 0.5192 0.12437 0.39167 0.0
H259 H 0.52114 0.16971 0.30477 0.0
H260 H 0.4566 0.30274 0.24194 0.0
H261 H 0.45257 0.34182 0.13864 0.0
H262 H 0.52456 0.29721 0.98398 0.0
H263 H 0.52879 0.25864 0.08867 0.0
H264 H 0.55168 0.32345 0.28937 0.0
H265 H 0.56675 0.36638 0.36307 0.0
H266 H 0.54064 0.32449 0.59571 0.0
H267 H 0.52628 0.28113 0.52216 0.0
N268 N 0.51677 0.24985 0.39252 0.0
N269 N 0.49497 0.23803 0.28196 0.0
N270 N 0.51626 0.28408 0.28502 0.0
C271 C 0.50272 0.23027 0.3551 0.0
C272 C 0.50185 0.2653 0.24716 0.0
C273 C 0.52388 0.2766 0.35724 0.0
C274 C 0.49581 0.20146 0.39734 0.0
C275 C 0.48074 0.20406 0.47814 0.0
C276 C 0.47918 0.17809 0.52762 0.0
C277 C 0.49316 0.1489 0.49829 0.0
C278 C 0.50756 0.14613 0.41604 0.0
C279 C 0.50871 0.1721 0.36594 0.0
C280 C 0.4927 0.27724 0.17257 0.0
C281 C 0.4706 0.30016 0.18353 0.0
C282 C 0.46841 0.32274 0.12441 0.0
C283 C 0.48836 0.32284 0.05316 0.0
C284 C 0.50892 0.29789 0.03838 0.0
C285 C 0.51114 0.27545 0.09768 0.0
C286 C 0.53744 0.29913 0.40014 0.0
C287 C 0.54974 0.32301 0.35613 0.0
Dy288 Dy 0.98946 0.01378 0.74753 0.0
Dy289 Dy 0.0255 0.98556 0.8761 0.0
C290 C 0.05237 0.99754 0.69181 0.0
O291 O 0.99445 0.96236 0.71424 0.0
O292 O 1.01141 0.94258 0.82484 0.0
O293 O 0.98221 0.01661 0.62237 0.0
O294 O 0.95639 0.04497 0.72169 0.0
O295 O 0.98452 1.00164 0.95042 0.0
O296 O 0.96046 0.99515 0.84812 0.0
O297 O 0.03124 0.03656 0.87676 0.0
O298 O 0.99395 0.05538 0.82819 0.0
O299 O 0.02962 0.96051 0.98572 0.0
O300 O 0.06345 0.98108 0.91723 0.0
C301 C 1.00171 0.93856 0.75667 0.0
O302 O 0.03229 0.01913 0.69246 0.0
O303 O 0.0509 0.97693 0.74941 0.0
C304 C 0.97455 0.07019 0.60154 0.0
C305 C 1.0087 0.11624 0.55239 0.0
C306 C 0.98895 0.12157 0.62393 0.0
C307 C 0.97191 0.09872 0.64831 0.0
C308 C 0.99206 0.06683 0.52456 0.0
C309 C 1.00917 0.08957 0.50054 0.0
C310 C 0.96554 0.04185 0.64194 0.0
C311 C 0.96162 0.99774 0.92724 0.0
C312 C 1.01424 0.06009 0.86432 0.0
C313 C 0.07196 0.93313 0.97713 0.0
C314 C 0.09749 0.87302 0.98916 0.0
C315 C 0.08914 0.88152 0.91513 0.0
C316 C 0.07634 0.91141 0.90926 0.0
C317 C 0.0818 0.92543 0.04891 0.0
C318 C 0.09454 0.89559 0.05488 0.0
C319 C 0.05526 0.96272 0.97612 0.0
H320 H 0.98789 0.14239 0.66373 0.0
H321 H 0.9583 0.10235 0.70727 0.0
H322 H 0.99432 0.04534 0.48658 0.0
H323 H 0.02369 0.08561 0.44341 0.0
H324 H 0.09136 0.86461 0.86345 0.0
H325 H 0.06887 0.91713 0.8532 0.0
H326 H 0.07853 0.94199 0.10173 0.0
H327 H 0.10051 0.88955 0.11297 0.0
Dy328 Dy 0.50506 0.97394 0.75805 0.0
Dy329 Dy 0.51469 0.02431 0.89896 0.0
C330 C 0.50238 0.04683 0.72501 0.0
O331 O 0.54954 0.96807 0.74632 0.0
O332 O 0.553 0.01639 0.80387 0.0
O333 O 0.50847 0.95909 0.62888 0.0
O334 O 0.48432 0.93535 0.72428 0.0
O335 O 0.51958 0.97813 0.9584 0.0
O336 O 0.51361 0.94257 0.8573 0.0
O337 O 0.47269 0.01402 0.94797 0.0
O338 O 0.46439 0.99512 0.82479 0.0
O339 O 0.53381 0.03563 1.00109 0.0
O340 O 0.50978 0.07184 0.95115 0.0
C341 C 0.56391 0.99093 0.75872 0.0
O342 O 0.51144 0.01858 0.6945 0.0
O343 O 0.49716 0.05281 0.80546 0.0
C344 C 0.46373 0.95574 0.62042 0.0
C345 C 0.41178 0.98134 0.60808 0.0
C346 C 0.42884 0.9991 0.64329 0.0
C347 C 0.45457 0.9868 0.64681 0.0
C348 C 0.44724 0.93764 0.58387 0.0
C349 C 0.4216 0.9507 0.57559 0.0
C350 C 0.48824 0.94258 0.64678 0.0
C351 C 0.51837 0.94923 0.93152 0.0
C352 C 0.45592 1.00479 0.90255 0.0
C353 C 0.54862 0.0851 0.997 0.0
C354 C 0.59775 0.10911 0.99783 0.0
C355 C 0.59094 0.09935 0.92257 0.0
C356 C 0.56655 0.0872 0.92224 0.0
C357 C 0.55424 0.09757 0.07082 0.0
C358 C 0.57861 0.10958 0.07127 0.0
C359 C 0.5266 0.0655 1.00078 0.0
H360 H 0.42225 0.02241 0.6706 0.0
H361 H 0.46689 1.00131 0.67484 0.0
H362 H 0.45391 0.91353 0.56337 0.0
H363 H 0.40958 0.93668 0.54443 0.0
H364 H 0.60518 0.09913 0.86498 0.0
H365 H 0.56246 0.07763 0.86458 0.0
H366 H 0.54065 0.09598 0.12903 0.0
H367 H 0.58335 0.11674 0.13031 0.0
Dy368 Dy 0.54075 0.49602 0.86818 0.0
Dy369 Dy 0.48884 0.49469 0.76023 0.0
C370 C 0.50036 0.44071 0.88794 0.0
O371 O 0.55101 0.45755 0.77105 0.0
O372 O 0.52909 0.48311 0.68055 0.0
O373 O 0.55373 0.48764 0.98336 0.0
O374 O 0.58217 0.50154 0.87952 0.0
O375 O 0.5037 0.54167 0.74368 0.0
O376 O 0.54604 0.53439 0.7776 0.0
O377 O 0.47022 0.51597 0.88571 0.0
O378 O 0.50811 0.53164 0.92817 0.0
O379 O 0.47472 0.47181 0.6592 0.0
O380 O 0.45199 0.51422 0.72264 0.0
C381 C 0.54581 0.45994 0.69627 0.0
O382 O 0.51777 0.4568 0.91597 0.0
O383 O 0.48811 0.44979 0.82719 0.0
C384 C 0.59205 0.50877 0.01856 0.0
C385 C 0.62248 0.52453 0.14 0.0
C386 C 0.5957 0.51849 0.16347 0.0
C387 C 0.58067 0.51082 0.10368 0.0
C388 C 0.61862 0.51566 0.99494 0.0
C389 C 0.63362 0.52361 0.05489 0.0
C390 C 0.57813 0.4941 0.9572 0.0
C391 C 0.52745 0.55078 0.74557 0.0
C392 C 0.48202 0.53275 0.93405 0.0
C393 C 0.43434 0.49105 0.60701 0.0
C394 C 0.39829 0.48998 0.49345 0.0
C395 C 0.39326 0.51172 0.56179 0.0
C396 C 0.41111 0.51234 0.61759 0.0
C397 C 0.43913 0.46897 0.53955 0.0
C398 C 0.42136 0.46844 0.4836 0.0
C399 C 0.45409 0.49264 0.66349 0.0
H400 H 0.58652 0.51912 0.22843 0.0
H401 H 0.56041 0.50522 0.12472 0.0
H402 H 0.62822 0.51361 0.93027 0.0
H403 H 0.65433 0.5277 0.03476 0.0
H404 H 0.3757 0.52864 0.57133 0.0
H405 H 0.40682 0.52972 0.66866 0.0
H406 H 0.45681 0.45222 0.5294 0.0
H407 H 0.42559 0.45094 0.43285 0.0
Dy408 Dy 0.01876 0.53808 0.73382 0.0
Dy409 Dy 1.01102 0.47303 0.82495 0.0
C410 C 0.02894 0.47167 0.6319 0.0
O411 O 0.97515 0.53976 0.78702 0.0
O412 O 0.974 0.48738 0.7727 0.0
O413 O 1.0023 0.57243 0.65789 0.0
O414 O 0.04029 0.57747 0.69356 0.0
O415 O 0.9955 0.51098 0.92467 0.0
O416 O 0.01843 0.55072 0.86651 0.0
O417 O 0.05195 0.4831 0.83973 0.0
O418 O 0.06093 0.51777 0.73725 0.0
O419 O 0.01874 0.44009 0.91678 0.0
O420 O 0.99238 0.42989 0.83309 0.0
C421 C 0.96181 0.51587 0.77682 0.0
O422 O 0.01778 0.50062 0.63599 0.0
O423 O 0.0343 0.45855 0.69887 0.0
C424 C 0.03867 0.57911 0.55141 0.0
C425 C 0.06926 0.53672 0.43096 0.0
C426 C 0.04153 0.54119 0.43636 0.0
C427 C 0.02621 0.56271 0.49579 0.0
C428 C 0.06661 0.57919 0.53329 0.0
C429 C 0.08188 0.55756 0.47433 0.0
C430 C 0.02509 0.58416 0.63909 0.0
C431 C 1.00554 0.53783 0.93126 0.0
C432 C 0.06869 0.49949 0.79336 0.0
C433 C 0.97716 0.42334 0.97463 0.0
C434 C 0.93048 0.45284 0.07314 0.0
C435 C 0.95528 0.45447 0.09775 0.0
C436 C 0.97846 0.43935 0.04954 0.0
C437 C 0.95204 0.41659 0.95951 0.0
C438 C 0.92872 0.43128 1.00885 0.0
C439 C 0.9995 0.42384 0.90389 0.0
H440 H 0.0316 0.52577 0.40148 0.0
H441 H 1.00464 0.56293 0.50585 0.0
H442 H 0.07681 0.59219 0.57337 0.0
H443 H 0.10344 0.55474 0.46933 0.0
H444 H 0.95729 0.47025 0.14842 0.0
H445 H 0.9975 0.44401 0.06497 0.0
H446 H 0.95042 0.40338 0.90369 0.0
H447 H 0.90962 0.42821 0.99157 0.0
C448 C 0.09907 0.01228 0.48934 0.0
C449 C 0.12408 0.99698 0.49814 0.0
C450 C 0.07613 0.01226 0.5517 0.0
C451 C 0.07697 0.99668 0.62574 0.0
H452 H 0.09717 0.02458 0.43374 0.0
H453 H 0.05755 0.02458 0.54153 0.0
S454 S 0.13753 0.95416 0.68234 0.0
N455 N 0.14823 0.96683 0.58953 0.0
N456 N 0.10522 0.96596 0.70469 0.0
C457 C 0.10174 0.98105 0.63522 0.0
C458 C 0.12518 0.98136 0.57212 0.0
C459 C 0.49763 0.12819 0.6381 0.0
C460 C 0.49429 0.1224 0.55564 0.0
C461 C 0.49969 0.10382 0.69269 0.0
C462 C 0.49889 0.07245 0.66711 0.0
H463 H 0.49926 0.15175 0.66045 0.0
H464 H 0.5026 0.1096 0.75491 0.0
S465 S 0.48814 0.04464 0.46027 0.0
N466 N 0.48823 0.08288 0.45357 0.0
N467 N 0.4932 0.03711 0.55453 0.0
C468 C 0.49518 0.06631 0.58528 0.0
C469 C 0.49265 0.0912 0.53006 0.0
C470 C 0.33339 0.48914 0.40806 0.0
C471 C 0.34204 0.48732 0.32128 0.0
C472 C 0.35158 0.49027 0.46286 0.0
C473 C 0.37931 0.48951 0.43354 0.0
H474 H 0.31236 0.48903 0.43414 0.0
H475 H 0.34386 0.49112 0.52891 0.0
S476 S 0.4123 0.4879 0.21229 0.0
N477 N 0.38026 0.48693 0.20895 0.0
N478 N 0.41434 0.48889 0.31159 0.0
C479 C 0.38822 0.48832 0.34697 0.0
C480 C 0.36968 0.48725 0.2911 0.0
C481 C 0.05821 0.40791 0.46542 0.0
C482 C 0.04271 0.41323 0.40337 0.0
C483 C 0.05379 0.42708 0.53838 0.0
C484 C 0.034 0.45278 0.55193 0.0
H485 H 0.07346 0.38817 0.4586 0.0
H486 H 0.06601 0.42164 0.58462 0.0
S487 S 0.98849 0.47754 0.4075 0.0
N488 N 1.00713 0.44648 0.35947 0.0
N489 N 0.99895 0.48283 0.49595 0.0
C490 C 0.01876 0.45887 0.48943 0.0
C491 C 0.02303 0.43901 0.41552 0.0
C492 C 0.88776 0.99408 0.02085 0.0
C493 C 0.8868 0.99735 0.10698 0.0
C494 C 0.91192 0.99405 0.96396 0.0
C495 C 0.93641 0.99715 0.99029 0.0
H496 H 0.86952 0.99229 0.99688 0.0
H497 H 0.91123 0.99188 0.89851 0.0
S498 S 0.94515 1.00415 0.20989 0.0
N499 N 0.91272 1.00223 0.21616 0.0
N500 N 0.95807 1.00216 0.10992 0.0
C501 C 0.93582 0.99975 0.07657 0.0
C502 C 0.91111 0.9999 0.13453 0.0
C503 C 0.51796 0.86737 0.01424 0.0
C504 C 0.52636 0.87039 0.09098 0.0
C505 C 0.51576 0.89281 0.96363 0.0
C506 C 0.52169 0.92275 0.9872 0.0
H507 H 0.51253 0.84516 0.99335 0.0
H508 H 0.50896 0.88887 0.90575 0.0
S509 S 0.54547 0.94319 0.18117 0.0
N510 N 0.54145 0.90562 0.18721 0.0
N511 N 0.53693 0.9537 0.09279 0.0
C512 C 0.53022 0.9262 0.06383 0.0
C513 C 0.53259 0.90006 0.11547 0.0
C514 C 0.65631 0.51359 0.32848 0.0
C515 C 0.67146 0.53927 0.32751 0.0
C516 C 0.6402 0.50933 0.26864 0.0
C517 C 0.639 0.53023 0.20445 0.0
H518 H 0.65689 0.49669 0.3759 0.0
H519 H 0.62901 0.48913 0.27167 0.0
S520 S 0.67515 0.60089 0.17317 0.0
N521 N 0.68439 0.58572 0.25613 0.0
N522 N 0.65424 0.57766 0.14428 0.0
C523 C 0.65408 0.55593 0.20277 0.0
C524 C 0.67022 0.56047 0.26409 0.0
C525 C 0.97936 0.57935 0.14315 0.0
C526 C 1.00295 0.58856 0.16573 0.0
C527 C 0.98019 0.5615 0.06893 0.0
C528 C 1.00455 0.55315 0.01395 0.0
H529 H 0.96016 0.58637 0.18249 0.0
H530 H 0.96162 0.55534 0.0529 0.0
S531 S 0.07187 0.57044 0.04475 0.0
N532 N 0.05138 0.58682 0.12755 0.0
N533 N 0.05273 0.55409 0.98849 0.0
C534 C 0.02819 0.56159 0.03668 0.0
C535 C 0.02745 0.5791 0.11241 0.0
C536 C 0.04134 0.18942 0.49399 0.0
C537 C 0.06859 0.17797 0.47116 0.0
C538 C 0.02207 0.16963 0.52447 0.0
C539 C 0.02946 0.13778 0.53279 0.0
H540 H 0.03452 0.21323 0.48209 0.0
H541 H 1.00116 0.17886 0.53666 0.0
S542 S 0.0985 0.09801 0.49922 0.0
N543 N 0.10231 0.13409 0.47097 0.0
N544 N 0.066 0.09675 0.52931 0.0
C545 C 0.05679 0.12669 0.51748 0.0
C546 C 0.07641 0.14685 0.48642 0.0
C547 C 0.35505 0.04233 0.58458 0.0
C548 C 0.33335 0.02473 0.58333 0.0
C549 C 0.38009 0.02804 0.59217 0.0
C550 C 0.38432 0.99575 0.60436 0.0
H551 H 0.35321 0.06711 0.57365 0.0
H552 H 0.39646 0.04252 0.58479 0.0
S553 S 0.33243 0.94032 0.62639 0.0
N554 N 0.31688 0.97364 0.60454 0.0
N555 N 0.36329 0.9477 0.63016 0.0
C556 C 0.36206 0.97846 0.6128 0.0
C557 C 0.33669 0.99277 0.60073 0.0
C558 C 0.54614 0.40667 0.50902 0.0
C559 C 0.55819 0.37801 0.53058 0.0
C560 C 0.5441 0.43376 0.55999 0.0
C561 C 0.55391 0.43322 0.6348 0.0
H562 H 0.53664 0.40783 0.4551 0.0
H563 H 0.53331 0.45477 0.54277 0.0
S564 S 0.59159 0.36518 0.71112 0.0
N565 N 0.58341 0.35155 0.62505 0.0
N566 N 0.57944 0.4024 0.72189 0.0
C567 C 0.56803 0.40528 0.65346 0.0
C568 C 0.57011 0.37767 0.60125 0.0
C569 C 0.11112 0.45936 0.42221 0.0
C570 C 0.12176 0.45442 0.33722 0.0
C571 C 0.09278 0.48532 0.45139 0.0
C572 C 0.0843 0.50694 0.39652 0.0
H573 H 0.11851 0.44438 0.46683 0.0
H574 H 0.08626 0.48946 0.51774 0.0
S575 S 0.10286 0.50265 0.16814 0.0
N576 N 0.12016 0.47192 0.19783 0.0
N577 N 0.08504 0.52025 0.25399 0.0
C578 C 0.09264 0.50087 0.31134 0.0
C579 C 0.1115 0.47457 0.28127 0.0
C580 C 0.12997 0.80309 0.08043 0.0
C581 C 0.11073 0.7817 0.08168 0.0
C582 C 0.1271 0.83177 0.04282 0.0
C583 C 0.10506 0.83985 1.00444 0.0
H584 H 0.14611 0.79878 0.11471 0.0
H585 H 0.14112 0.84865 0.04905 0.0
S586 S 0.05118 0.79036 0.98016 0.0
N587 N 0.07048 0.76929 0.03291 0.0
N588 N 0.06542 0.82287 0.96148 0.0
C589 C 0.08731 0.81734 0.99746 0.0
C590 C 0.0901 0.78827 0.03615 0.0
C591 C 0.65563 0.13592 0.08461 0.0
C592 C 0.67494 0.10987 0.06445 0.0
C593 C 0.63148 0.13742 0.05504 0.0
C594 C 0.62587 0.11296 1.00414 0.0
H595 H 0.65825 0.15395 0.12911 0.0
H596 H 0.61623 0.15658 0.07753 0.0
S597 S 0.67156 0.04198 0.92304 0.0
N598 N 0.68823 0.06104 0.9821 0.0
N599 N 0.64297 0.06389 0.92641 0.0
C600 C 0.64624 0.08855 0.97612 0.0
C601 C 0.67079 0.087 1.00631 0.0
C602 C 0.46464 0.58734 0.12022 0.0
C603 C 0.45534 0.61513 0.08634 0.0
C604 C 0.47026 0.55914 0.07278 0.0
C605 C 0.46634 0.5576 0.99045 0.0
H606 H 0.47003 0.58788 0.18109 0.0
H607 H 0.47986 0.53905 0.09831 0.0
S608 S 0.43829 0.62212 0.87698 0.0
N609 N 0.43918 0.6383 0.96891 0.0
N610 N 0.44978 0.58495 0.8797 0.0
C611 C 0.45453 0.58427 0.95849 0.0
C612 C 0.44906 0.61318 1.00647 0.0
C613 C 0.88551 0.51345 0.21865 0.0
C614 C 0.87218 0.53123 0.16494 0.0
C615 C 0.90314 0.48701 0.18928 0.0
C616 C 0.90827 0.47741 0.1049 0.0
H617 H 0.882 0.51977 0.2844 0.0
H618 H 0.91313 0.47424 0.23286 0.0
S619 S 0.87753 0.51555 0.93956 0.0
N620 N 0.86421 0.53695 0.02474 0.0
N621 N 0.89822 0.48774 0.96783 0.0
C622 C 0.89462 0.4947 0.05064 0.0
C623 C 0.87639 0.52151 0.08106 0.0
C624 C 0.04659 0.12771 0.94875 0.0
C625 C 0.02858 0.15433 0.94407 0.0
C626 C 0.04167 0.09768 0.92327 0.0
C627 C 0.0185 0.09263 0.89137 0.0
H628 H 0.06461 0.13001 0.97356 0.0
H629 H 0.05632 0.07824 0.92872 0.0
S630 S 0.96505 0.15463 0.86436 0.0
N631 N 0.98674 0.17375 0.90384 0.0
N632 N 0.9773 0.11743 0.85621 0.0
C633 C 1.00028 0.11911 0.88607 0.0
C634 C 1.00531 0.14981 0.91246 0.0
C635 C 0.38775 0.0266 0.04468 0.0
C636 C 0.37015 0.00915 1.00966 0.0
C637 C 0.41528 0.02491 0.01037 0.0
C638 C 0.42652 0.00607 0.93844 0.0
H639 H 0.38022 0.04147 0.10002 0.0
H640 H 0.42778 0.03876 0.04025 0.0
S641 S 0.38908 0.95586 0.82188 0.0
N642 N 0.36607 0.97244 0.89866 0.0
N643 N 0.41742 0.96933 0.8337 0.0
C644 C 0.40906 0.98858 0.90255 0.0
C645 C 0.38108 0.99004 0.93823 0.0
C646 C 0.5152 0.36465 0.99063 0.0
C647 C 0.49071 0.35148 1.00374 0.0
C648 C 0.5179 0.39314 0.9524 0.0
C649 C 0.49633 0.40984 0.92459 0.0
H650 H 0.53234 0.35336 0.01264 0.0
H651 H 0.53719 0.40224 0.945 0.0
S652 S 0.42813 0.3851 0.94024 0.0
N653 N 0.44452 0.35699 0.98346 0.0
N654 N 0.44975 0.41056 0.91036 0.0
C655 C 0.47187 0.39663 0.9349 0.0
C656 C 0.469 0.36759 0.97506 0.0
C657 C 0.13284 0.46825 0.8644 0.0
C658 C 0.14901 0.49306 0.85311 0.0
C659 C 0.10738 0.47038 0.8428 0.0
C660 C 0.09688 0.49729 0.80781 0.0
H661 H 0.13958 0.4472 0.89268 0.0
H662 H 0.09567 0.45076 0.85466 0.0
S663 S 0.13127 0.56873 0.7632 0.0
N664 N 0.15279 0.54538 0.80322 0.0
N665 N 0.105 0.54929 0.76171 0.0
C666 C 0.11303 0.5221 0.79435 0.0
C667 C 0.13896 0.52006 0.81749 0.0
C668 C 1.00887 0.84909 0.73728 0.0
C669 C 1.00102 0.84246 0.66115 0.0
C670 C 1.00831 0.88003 0.76854 0.0
C671 C 0.99997 0.90587 0.72498 0.0
H672 H 0.01604 0.83017 0.77239 0.0
H673 H 0.01509 0.8836 0.82663 0.0
S674 S 0.977 0.90123 0.52279 0.0
N675 N 0.98439 0.8644 0.54324 0.0
N676 N 0.98292 0.9223 0.6019 0.0
C677 C 0.99135 0.89949 0.64971 0.0
C678 C 0.99194 0.86794 0.61796 0.0
C679 C 0.63205 0.0167 0.66317 0.0
C680 C 0.64589 0.98957 0.619 0.0
C681 C 0.60605 0.01663 0.70994 0.0
C682 C 0.59252 0.98945 0.71469 0.0
H683 H 0.64096 0.03857 0.65927 0.0
H684 H 0.59622 0.03845 0.74057 0.0
S685 S 0.62114 0.91115 0.61926 0.0
N686 N 0.64494 0.93398 0.5899 0.0
N687 N 0.59619 0.93388 0.67622 0.0
C688 C 0.60658 0.96183 0.67359 0.0
C689 C 0.63312 0.96189 0.62624 0.0
C690 C 0.51693 0.63643 0.70269 0.0
C691 C 0.5326 0.63816 0.6232 0.0
C692 C 0.51679 0.60841 0.74448 0.0
C693 C 0.53274 0.58114 0.70948 0.0
H694 H 0.50363 0.65652 0.73121 0.0
H695 H 0.50325 0.60772 0.80321 0.0
S696 S 0.57862 0.57301 0.50621 0.0
N697 N 0.5654 0.60985 0.51301 0.0
N698 N 0.56563 0.55764 0.59348 0.0
C699 C 0.54977 0.58283 0.63289 0.0
C700 C 0.54967 0.61126 0.58943 0.0
C701 C 0.89327 0.5576 0.76355 0.0
C702 C 0.88159 0.53583 0.7189 0.0
C703 C 0.91878 0.55068 0.78363 0.0
C704 C 0.93379 0.52148 0.76114 0.0
H705 H 0.88274 0.5805 0.78246 0.0
H706 H 0.92687 0.56857 0.81663 0.0
S707 S 0.91296 0.45611 0.64287 0.0
N708 N 0.88766 0.48375 0.65168 0.0
N709 N 0.93498 0.47043 0.6919 0.0
C710 C 0.92215 0.4991 0.71857 0.0
C711 C 0.89627 0.50631 0.69704 0.0
loop_
_geom_bond_atom_site_label_1
_geom_bond_atom_site_label_2
_geom_bond_distance
_geom_bond_site_symmetry_2
_ccdc_geom_bond_type
C0 C1 1.384 . S
C0 H13 0.947 . S
C0 C35 1.382 . S
C1 C0 1.384 . S
C1 C2 1.378 . S
C2 C1 1.378 . S
C2 C3 1.378 . S
C2 H14 0.952 . S
C3 C2 1.378 . S
C3 H15 0.950 . S
C3 C34 1.383 . S
H4 C23 0.947 . S
H5 C24 0.946 . S
H6 C26 0.953 . S
H7 C27 0.945 . S
H8 C29 0.952 . S
H9 C30 0.949 . S
H10 C32 0.950 . S
H11 C33 0.948 . S
H12 C35 0.951 . S
H13 C0 0.947 . S
H14 C2 0.952 . S
H15 C3 0.950 . S
N16 C19 1.382 . S
N16 C21 1.363 . S
N17 C19 1.371 . S
N17 C20 1.372 . S
N18 C20 1.361 . S
N18 C21 1.377 . S
C19 N16 1.382 . S
C19 N17 1.371 . S
C19 C22 1.480 . S
C20 N17 1.372 . S
C20 N18 1.361 . S
C20 C28 1.457 . S
C21 N16 1.363 . S
C21 N18 1.377 . S
C21 C34 1.479 . S
C22 C19 1.480 . S
C22 C23 1.383 . S
C22 C27 1.385 . S
C23 H4 0.947 . S
C23 C22 1.383 . S
C23 C24 1.388 . S
C24 H5 0.946 . S
C24 C23 1.388 . S
C24 C25 1.384 . S
C25 C24 1.384 . S
C25 C26 1.377 . S
C26 H6 0.953 . S
C26 C25 1.377 . S
C26 C27 1.369 . S
C27 H7 0.945 . S
C27 C22 1.385 . S
C27 C26 1.369 . S
C28 C20 1.457 . S
C28 C29 1.372 . S
C28 C33 1.364 . S
C29 H8 0.952 . S
C29 C28 1.372 . S
C29 C30 1.389 . S
C30 H9 0.949 . S
C30 C29 1.389 . S
C30 C31 1.387 . S
C31 C30 1.387 . S
C31 C32 1.372 . S
C32 H10 0.950 . S
C32 C31 1.372 . S
C32 C33 1.379 . S
C33 H11 0.948 . S
C33 C28 1.364 . S
C33 C32 1.379 . S
C34 C3 1.383 . S
C34 C21 1.479 . S
C34 C35 1.398 . S
C35 C0 1.382 . S
C35 H12 0.951 . S
C35 C34 1.398 . S
C36 C37 1.383 1_655 S
C36 H49 0.947 . S
C36 C71 1.383 1_655 S
C37 C36 1.383 1_455 S
C37 C38 1.378 . S
C38 C37 1.378 . S
C38 C39 1.378 . S
C38 H50 0.952 . S
C39 C38 1.378 . S
C39 H51 0.950 . S
C39 C70 1.383 . S
H40 C59 0.947 . S
H41 C60 0.951 . S
H42 C62 0.953 . S
H43 C63 0.945 . S
H44 C65 0.946 1_655 S
H45 C66 0.964 . S
H46 C68 0.950 . S
H47 C69 0.948 . S
H48 C71 0.951 1_655 S
H49 C36 0.947 . S
H50 C38 0.952 . S
H51 C39 0.950 . S
N52 C55 1.382 . S
N52 C57 1.363 . S
N53 C55 1.371 . S
N53 C56 1.372 . S
N54 C56 1.361 . S
N54 C57 1.377 . S
C55 N52 1.382 . S
C55 N53 1.371 . S
C55 C58 1.480 . S
C56 N53 1.372 . S
C56 N54 1.361 . S
C56 C64 1.457 . S
C57 N52 1.363 . S
C57 N54 1.377 . S
C57 C70 1.479 . S
C58 C55 1.480 . S
C58 C59 1.383 . S
C58 C63 1.385 . S
C59 H40 0.947 . S
C59 C58 1.383 . S
C59 C60 1.381 1_455 S
C60 H41 0.951 . S
C60 C59 1.381 1_655 S
C60 C61 1.387 1_655 S
C61 C60 1.387 1_455 S
C61 C62 1.377 . S
C62 H42 0.953 . S
C62 C61 1.377 . S
C62 C63 1.369 . S
C63 H43 0.945 . S
C63 C58 1.385 . S
C63 C62 1.369 . S
C64 C56 1.457 . S
C64 C65 1.381 . S
C64 C69 1.364 . S
C65 H44 0.946 1_455 S
C65 C64 1.381 . S
C65 C66 1.384 1_455 S
C66 H45 0.964 . S
C66 C65 1.384 1_655 S
C66 C67 1.376 1_655 S
C67 C66 1.376 1_455 S
C67 C68 1.372 . S
C68 H46 0.950 . S
C68 C67 1.372 . S
C68 C69 1.379 . S
C69 H47 0.948 . S
C69 C64 1.364 . S
C69 C68 1.379 . S
C70 C39 1.383 . S
C70 C57 1.479 . S
C70 C71 1.398 . S
C71 C36 1.383 1_455 S
C71 H48 0.951 1_455 S
C71 C70 1.398 . S
C72 C73 1.383 1_565 S
C72 H85 0.948 . S
C72 C107 1.381 1_565 S
C73 C72 1.383 1_545 S
C73 C74 1.378 . S
C74 C73 1.378 . S
C74 C75 1.378 . S
C74 H86 0.952 . S
C75 C74 1.378 . S
C75 H87 0.950 . S
C75 C106 1.383 . S
H76 C95 0.947 . S
H77 C96 0.951 . S
H78 C98 0.953 . S
H79 C99 0.945 . S
H80 C101 0.951 1_565 S
H81 C102 0.949 . S
H82 C104 0.950 . S
H83 C105 0.948 . S
H84 C107 0.951 1_565 S
H85 C72 0.948 . S
H86 C74 0.952 . S
H87 C75 0.950 . S
N88 C91 1.382 . S
N88 C93 1.363 . S
N89 C91 1.371 . S
N89 C92 1.372 . S
N90 C92 1.361 . S
N90 C93 1.377 . S
C91 N88 1.382 . S
C91 N89 1.371 . S
C91 C94 1.480 . S
C92 N89 1.372 . S
C92 N90 1.361 . S
C92 C100 1.457 . S
C93 N88 1.363 . S
C93 N90 1.377 . S
C93 C106 1.479 . S
C94 C91 1.480 . S
C94 C95 1.383 . S
C94 C99 1.385 . S
C95 H76 0.947 . S
C95 C94 1.383 . S
C95 C96 1.389 1_545 S
C96 H77 0.951 . S
C96 C95 1.389 1_565 S
C96 C97 1.379 1_565 S
C97 C96 1.379 1_545 S
C97 C98 1.377 . S
C98 H78 0.953 . S
C98 C97 1.377 . S
C98 C99 1.369 . S
C99 H79 0.945 . S
C99 C94 1.385 . S
C99 C98 1.369 . S
C100 C92 1.457 . S
C100 C101 1.375 . S
C100 C105 1.364 . S
C101 H80 0.951 1_545 S
C101 C100 1.375 . S
C101 C102 1.387 1_545 S
C102 H81 0.949 . S
C102 C101 1.387 1_565 S
C102 C103 1.387 1_565 S
C103 C102 1.387 1_545 S
C103 C104 1.372 . S
C104 H82 0.950 . S
C104 C103 1.372 . S
C104 C105 1.379 . S
C105 H83 0.948 . S
C105 C100 1.364 . S
C105 C104 1.379 . S
C106 C75 1.383 . S
C106 C93 1.479 . S
C106 C107 1.398 . S
C107 C72 1.381 1_545 S
C107 H84 0.951 1_545 S
C107 C106 1.398 . S
C108 C109 1.384 1_554 S
C108 H121 0.947 . S
C108 C143 1.382 . S
C109 C108 1.384 1_556 S
C109 C110 1.378 . S
C110 C109 1.378 . S
C110 C111 1.378 . S
C110 H122 0.952 . S
C111 C110 1.378 . S
C111 H123 0.950 . S
C111 C142 1.383 1_556 S
H112 C131 0.947 . S
H113 C132 0.946 . S
H114 C134 0.953 . S
H115 C135 0.945 . S
H116 C137 0.952 . S
H117 C138 0.949 . S
H118 C140 0.950 . S
H119 C141 0.948 . S
H120 C143 0.951 . S
H121 C108 0.947 . S
H122 C110 0.952 . S
H123 C111 0.950 . S
N124 C127 1.382 . S
N124 C129 1.363 . S
N125 C127 1.371 . S
N125 C128 1.372 . S
N126 C128 1.361 . S
N126 C129 1.377 . S
C127 N124 1.382 . S
C127 N125 1.371 . S
C127 C130 1.480 . S
C128 N125 1.372 . S
C128 N126 1.361 . S
C128 C136 1.457 . S
C129 N124 1.363 . S
C129 N126 1.377 . S
C129 C142 1.479 . S
C130 C127 1.480 . S
C130 C131 1.383 . S
C130 C135 1.385 . S
C131 H112 0.947 . S
C131 C130 1.383 . S
C131 C132 1.388 . S
C132 H113 0.946 . S
C132 C131 1.388 . S
C132 C133 1.384 . S
C133 C132 1.384 . S
C133 C134 1.377 . S
C134 H114 0.953 . S
C134 C133 1.377 . S
C134 C135 1.369 . S
C135 H115 0.945 . S
C135 C130 1.385 . S
C135 C134 1.369 . S
C136 C128 1.457 . S
C136 C137 1.372 . S
C136 C141 1.364 . S
C137 H116 0.952 . S
C137 C136 1.372 . S
C137 C138 1.389 . S
C138 H117 0.949 . S
C138 C137 1.389 . S
C138 C139 1.387 . S
C139 C138 1.387 . S
C139 C140 1.372 . S
C140 H118 0.950 . S
C140 C139 1.372 . S
C140 C141 1.379 . S
C141 H119 0.948 . S
C141 C136 1.364 . S
C141 C140 1.379 . S
C142 C111 1.383 1_554 S
C142 C129 1.479 . S
C142 C143 1.398 . S
C143 C108 1.382 . S
C143 H120 0.951 . S
C143 C142 1.398 . S
C144 C145 1.384 . S
C144 H157 0.947 . S
C144 C179 1.382 . S
C145 C144 1.384 . S
C145 C146 1.378 . S
C146 C145 1.378 . S
C146 C147 1.378 . S
C146 H158 0.952 . S
C147 C146 1.378 . S
C147 H159 0.950 . S
C147 C178 1.383 . S
H148 C167 0.947 . S
H149 C168 0.946 . S
H150 C170 0.953 . S
H151 C171 0.945 . S
H152 C173 0.952 . S
H153 C174 0.949 . S
H154 C176 0.950 . S
H155 C177 0.948 . S
H156 C179 0.951 . S
H157 C144 0.947 . S
H158 C146 0.952 . S
H159 C147 0.950 . S
N160 C163 1.382 1_556 S
N160 C165 1.363 . S
N161 C163 1.371 . S
N161 C164 1.372 . S
N162 C164 1.361 1_556 S
N162 C165 1.377 . S
C163 N160 1.382 1_554 S
C163 N161 1.371 . S
C163 C166 1.480 . S
C164 N161 1.372 . S
C164 N162 1.361 1_554 S
C164 C172 1.457 . S
C165 N160 1.363 . S
C165 N162 1.377 . S
C165 C178 1.479 . S
C166 C163 1.480 . S
C166 C167 1.383 1_554 S
C166 C171 1.385 . S
C167 H148 0.947 . S
C167 C166 1.383 1_556 S
C167 C168 1.388 . S
C168 H149 0.946 . S
C168 C167 1.388 . S
C168 C169 1.384 1_556 S
C169 C168 1.384 1_554 S
C169 C170 1.377 . S
C170 H150 0.953 . S
C170 C169 1.377 . S
C170 C171 1.369 . S
C171 H151 0.945 . S
C171 C166 1.385 . S
C171 C170 1.369 . S
C172 C164 1.457 . S
C172 C173 1.372 . S
C172 C177 1.364 . S
C173 H152 0.952 . S
C173 C172 1.372 . S
C173 C174 1.389 . S
C174 H153 0.949 . S
C174 C173 1.389 . S
C174 C175 1.387 . S
C175 C174 1.387 . S
C175 C176 1.372 . S
C176 H154 0.950 . S
C176 C175 1.372 . S
C176 C177 1.379 . S
C177 H155 0.948 . S
C177 C172 1.364 . S
C177 C176 1.379 . S
C178 C147 1.383 . S
C178 C165 1.479 . S
C178 C179 1.398 . S
C179 C144 1.382 . S
C179 H156 0.951 . S
C179 C178 1.398 . S
C180 C181 1.384 . S
C180 H193 0.948 1_455 S
C180 C215 1.379 . S
C181 C180 1.384 . S
C181 C182 1.378 . S
C182 C181 1.378 . S
C182 C183 1.378 . S
C182 H194 0.952 . S
C183 C182 1.378 . S
C183 H195 0.950 . S
C183 C214 1.383 . S
H184 C203 0.947 . S
H185 C204 0.950 . S
H186 C206 0.953 . S
H187 C207 0.945 . S
H188 C209 0.952 1_655 S
H189 C210 0.948 . S
H190 C212 0.950 . S
H191 C213 0.948 . S
H192 C215 0.951 1_654 S
H193 C180 0.948 1_655 S
H194 C182 0.952 . S
H195 C183 0.950 . S
N196 C199 1.382 . S
N196 C201 1.363 . S
N197 C199 1.371 . S
N197 C200 1.372 . S
N198 C200 1.361 . S
N198 C201 1.377 . S
C199 N196 1.382 . S
C199 N197 1.371 . S
C199 C202 1.480 . S
C200 N197 1.372 . S
C200 N198 1.361 . S
C200 C208 1.457 . S
C201 N196 1.363 . S
C201 N198 1.377 . S
C201 C214 1.479 1_554 S
C202 C199 1.480 . S
C202 C203 1.383 . S
C202 C207 1.385 . S
C203 H184 0.947 . S
C203 C202 1.383 . S
C203 C204 1.389 1_455 S
C204 H185 0.950 . S
C204 C203 1.389 1_655 S
C204 C205 1.379 1_655 S
C205 C204 1.379 1_455 S
C205 C206 1.377 . S
C206 H186 0.953 . S
C206 C205 1.377 . S
C206 C207 1.369 . S
C207 H187 0.945 . S
C207 C202 1.385 . S
C207 C206 1.369 . S
C208 C200 1.457 . S
C208 C209 1.373 . S
C208 C213 1.364 . S
C209 H188 0.952 1_455 S
C209 C208 1.373 . S
C209 C210 1.390 1_455 S
C210 H189 0.948 . S
C210 C209 1.390 1_655 S
C210 C211 1.388 1_655 S
C211 C210 1.388 1_455 S
C211 C212 1.372 . S
C212 H190 0.950 . S
C212 C211 1.372 . S
C212 C213 1.379 . S
C213 H191 0.948 . S
C213 C208 1.364 . S
C213 C212 1.379 . S
C214 C183 1.383 . S
C214 C201 1.479 1_556 S
C214 C215 1.401 . S
C215 C180 1.379 . S
C215 H192 0.951 1_456 S
C215 C214 1.401 . S
C216 C217 1.384 1_565 S
C216 H229 0.947 . S
C216 C251 1.382 1_566 S
C217 C216 1.384 1_545 S
C217 C218 1.378 . S
C218 C217 1.378 . S
C218 C219 1.378 . S
C218 H230 0.952 . S
C219 C218 1.378 . S
C219 H231 0.950 1_556 S
C219 C250 1.383 1_556 S
H220 C239 0.947 . S
H221 C240 0.950 . S
H222 C242 0.953 . S
H223 C243 0.945 . S
H224 C245 0.944 1_565 S
H225 C246 0.958 . S
H226 C248 0.950 . S
H227 C249 0.948 . S
H228 C251 0.951 1_565 S
H229 C216 0.947 . S
H230 C218 0.952 . S
H231 C219 0.950 1_554 S
N232 C235 1.382 . S
N232 C237 1.363 . S
N233 C235 1.371 . S
N233 C236 1.372 . S
N234 C236 1.361 . S
N234 C237 1.377 . S
C235 N232 1.382 . S
C235 N233 1.371 . S
C235 C238 1.480 . S
C236 N233 1.372 . S
C236 N234 1.361 . S
C236 C244 1.457 . S
C237 N232 1.363 . S
C237 N234 1.377 . S
C237 C250 1.479 . S
C238 C235 1.480 . S
C238 C239 1.383 . S
C238 C243 1.385 . S
C239 H220 0.947 . S
C239 C238 1.383 . S
C239 C240 1.384 1_545 S
C240 H221 0.950 . S
C240 C239 1.384 1_565 S
C240 C241 1.384 1_565 S
C241 C240 1.384 1_545 S
C241 C242 1.377 . S
C242 H222 0.953 . S
C242 C241 1.377 . S
C242 C243 1.369 . S
C243 H223 0.945 . S
C243 C238 1.385 . S
C243 C242 1.369 . S
C244 C236 1.457 . S
C244 C245 1.382 . S
C244 C249 1.364 . S
C245 H224 0.944 1_545 S
C245 C244 1.382 . S
C245 C246 1.389 1_545 S
C246 H225 0.958 . S
C246 C245 1.389 1_565 S
C246 C247 1.379 1_565 S
C247 C246 1.379 1_545 S
C247 C248 1.372 . S
C248 H226 0.950 . S
C248 C247 1.372 . S
C248 C249 1.379 . S
C249 H227 0.948 . S
C249 C244 1.364 . S
C249 C248 1.379 . S
C250 C219 1.383 1_554 S
C250 C237 1.479 . S
C250 C251 1.398 . S
C251 C216 1.382 1_544 S
C251 H228 0.951 1_545 S
C251 C250 1.398 . S
C252 C253 1.384 . S
C252 H265 0.947 . S
C252 C287 1.382 . S
C253 C252 1.384 . S
C253 C254 1.378 . S
C254 C253 1.378 . S
C254 C255 1.378 . S
C254 H266 0.952 . S
C255 C254 1.378 . S
C255 H267 0.950 . S
C255 C286 1.383 . S
H256 C275 0.947 . S
H257 C276 0.946 . S
H258 C278 0.953 . S
H259 C279 0.945 . S
H260 C281 0.952 . S
H261 C282 0.949 . S
H262 C284 0.950 . S
H263 C285 0.948 . S
H264 C287 0.951 . S
H265 C252 0.947 . S
H266 C254 0.952 . S
H267 C255 0.950 . S
N268 C271 1.382 . S
N268 C273 1.363 . S
N269 C271 1.371 . S
N269 C272 1.372 . S
N270 C272 1.361 . S
N270 C273 1.377 . S
C271 N268 1.382 . S
C271 N269 1.371 . S
C271 C274 1.480 . S
C272 N269 1.372 . S
C272 N270 1.361 . S
C272 C280 1.457 . S
C273 N268 1.363 . S
C273 N270 1.377 . S
C273 C286 1.479 . S
C274 C271 1.480 . S
C274 C275 1.383 . S
C274 C279 1.385 . S
C275 H256 0.947 . S
C275 C274 1.383 . S
C275 C276 1.388 . S
C276 H257 0.946 . S
C276 C275 1.388 . S
C276 C277 1.384 . S
C277 C276 1.384 . S
C277 C278 1.377 . S
C278 H258 0.953 . S
C278 C277 1.377 . S
C278 C279 1.369 . S
C279 H259 0.945 . S
C279 C274 1.385 . S
C279 C278 1.369 . S
C280 C272 1.457 . S
C280 C281 1.372 . S
C280 C285 1.364 . S
C281 H260 0.952 . S
C281 C280 1.372 . S
C281 C282 1.389 . S
C282 H261 0.949 . S
C282 C281 1.389 . S
C282 C283 1.387 . S
C283 C282 1.387 . S
C283 C284 1.372 . S
C284 H262 0.950 . S
C284 C283 1.372 . S
C284 C285 1.379 . S
C285 H263 0.948 . S
C285 C280 1.364 . S
C285 C284 1.379 . S
C286 C255 1.383 . S
C286 C273 1.479 . S
C286 C287 1.398 . S
C287 C252 1.382 . S
C287 H264 0.951 . S
C287 C286 1.398 . S
Dy288 O291 2.307 1_545 S
Dy288 O293 2.380 1_655 S
Dy288 O294 2.379 . S
Dy288 O296 2.339 . S
Dy288 O298 2.298 . S
Dy288 O302 2.275 1_655 S
Dy288 C310 2.738 . S
Dy289 O292 2.298 . S
Dy289 O295 2.275 1_455 S
Dy289 O297 2.307 1_565 S
Dy289 O299 2.384 1_455 S
Dy289 O300 2.379 . S
Dy289 O303 2.339 . S
Dy289 C319 2.738 . S
C290 O302 1.254 1_565 S
C290 O303 1.257 . S
O291 Dy288 2.307 1_565 S
O291 C301 1.266 . S
O292 Dy289 2.298 . S
O292 C301 1.236 1_455 S
O293 Dy288 2.380 1_455 S
O293 C310 1.221 1_455 S
O294 Dy288 2.379 . S
O294 C310 1.249 . S
O295 Dy289 2.275 1_655 S
O295 C311 1.254 1_565 S
O296 Dy288 2.339 . S
O296 C311 1.257 . S
O297 Dy289 2.307 1_545 S
O297 C312 1.266 . S
O298 Dy288 2.298 . S
O298 C312 1.236 1_655 S
O299 Dy289 2.384 1_655 S
O299 C319 1.230 1_655 S
O300 Dy289 2.379 . S
O300 C319 1.249 . S
C301 O291 1.266 . S
C301 O292 1.236 1_655 S
O302 Dy288 2.275 1_455 S
O302 C290 1.254 1_545 S
O303 Dy289 2.339 . S
O303 C290 1.257 . S
C304 C307 1.344 . S
C304 C308 1.328 . S
C304 C310 1.516 . S
C305 C306 1.304 . S
C305 C309 1.323 . S
C306 C305 1.304 . S
C306 C307 1.371 . S
C306 H320 0.930 1_655 S
C307 C304 1.344 . S
C307 C306 1.371 . S
C307 H321 0.931 1_655 S
C308 C304 1.328 . S
C308 C309 1.433 . S
C308 H322 0.931 . S
C309 C305 1.323 . S
C309 C308 1.433 . S
C309 H323 0.933 . S
C310 Dy288 2.738 . S
C310 O293 1.221 1_655 S
C310 O294 1.249 . S
C310 C304 1.516 . S
C311 O295 1.254 1_545 S
C311 O296 1.257 . S
C312 O297 1.266 . S
C312 O298 1.236 1_455 S
C313 C316 1.344 1_556 S
C313 C317 1.328 1_556 S
C313 C319 1.516 . S
C314 C315 1.304 . S
C314 C318 1.323 . S
C315 C314 1.304 . S
C315 C316 1.371 . S
C315 H324 0.930 1_455 S
C316 C313 1.344 1_554 S
C316 C315 1.371 . S
C316 H325 0.931 1_455 S
C317 C313 1.328 1_554 S
C317 C318 1.433 . S
C317 H326 0.931 1_554 S
C318 C314 1.323 . S
C318 C317 1.433 . S
C318 H327 0.933 . S
C319 Dy289 2.738 . S
C319 O299 1.230 1_455 S
C319 O300 1.249 . S
C319 C313 1.516 . S
H320 C306 0.930 1_455 S
H321 C307 0.931 1_455 S
H322 C308 0.931 . S
H323 C309 0.933 . S
H324 C315 0.930 1_655 S
H325 C316 0.931 1_655 S
H326 C317 0.931 1_556 S
H327 C318 0.933 . S
Dy328 O331 2.307 . S
Dy328 O333 2.395 1_565 S
Dy328 O334 2.379 . S
Dy328 O336 2.339 . S
Dy328 O338 2.298 . S
Dy328 O342 2.275 1_565 S
Dy328 C350 2.738 . S
Dy329 O332 2.298 . S
Dy329 O335 2.275 1_545 S
Dy329 O337 2.307 . S
Dy329 O339 2.395 1_545 S
Dy329 O340 2.379 . S
Dy329 O343 2.339 . S
Dy329 C359 2.738 . S
C330 O342 1.254 . S
C330 O343 1.257 . S
O331 Dy328 2.307 . S
O331 C341 1.266 . S
O332 Dy329 2.298 . S
O332 C341 1.236 1_545 S
O333 Dy328 2.395 1_545 S
O333 C350 1.255 1_545 S
O334 Dy328 2.379 . S
O334 C350 1.249 . S
O335 Dy329 2.275 1_565 S
O335 C351 1.254 . S
O336 Dy328 2.339 . S
O336 C351 1.257 . S
O337 Dy329 2.307 . S
O337 C352 1.266 . S
O338 Dy328 2.298 . S
O338 C352 1.236 1_565 S
O339 Dy329 2.395 1_565 S
O339 C359 1.255 1_565 S
O340 Dy329 2.379 . S
O340 C359 1.249 . S
C341 O331 1.266 . S
C341 O332 1.236 1_565 S
O342 Dy328 2.275 1_545 S
O342 C330 1.254 . S
O343 Dy329 2.339 . S
O343 C330 1.257 . S
C344 C347 1.344 . S
C344 C348 1.328 . S
C344 C350 1.516 . S
C345 C346 1.304 . S
C345 C349 1.323 . S
C346 C345 1.304 . S
C346 C347 1.371 . S
C346 H360 0.930 1_565 S
C347 C344 1.344 . S
C347 C346 1.371 . S
C347 H361 0.931 1_565 S
C348 C344 1.328 . S
C348 C349 1.433 . S
C348 H362 0.931 . S
C349 C345 1.323 . S
C349 C348 1.433 . S
C349 H363 0.933 . S
C350 Dy328 2.738 . S
C350 O333 1.255 1_565 S
C350 O334 1.249 . S
C350 C344 1.516 . S
C351 O335 1.254 . S
C351 O336 1.257 . S
C352 O337 1.266 . S
C352 O338 1.236 1_545 S
C353 C356 1.344 . S
C353 C357 1.328 1_556 S
C353 C359 1.516 . S
C354 C355 1.304 . S
C354 C358 1.323 . S
C355 C354 1.304 . S
C355 C356 1.371 1_554 S
C355 H364 0.930 1_545 S
C356 C353 1.344 . S
C356 C355 1.371 1_556 S
C356 H365 0.931 1_545 S
C357 C353 1.328 1_554 S
C357 C358 1.433 . S
C357 H366 0.931 . S
C358 C354 1.323 . S
C358 C357 1.433 . S
C358 H367 0.933 . S
C359 Dy329 2.738 . S
C359 O339 1.255 1_545 S
C359 O340 1.249 . S
C359 C353 1.516 . S
H360 C346 0.930 1_545 S
H361 C347 0.931 1_545 S
H362 C348 0.931 . S
H363 C349 0.933 . S
H364 C355 0.930 1_565 S
H365 C356 0.931 1_565 S
H366 C357 0.931 . S
H367 C358 0.933 . S
Dy368 O371 2.307 . S
Dy368 O373 2.395 . S
Dy368 O374 2.379 . S
Dy368 O376 2.339 . S
Dy368 O378 2.298 . S
Dy368 O382 2.275 . S
Dy368 C390 2.738 . S
Dy369 O372 2.298 . S
Dy369 O375 2.275 . S
Dy369 O377 2.307 . S
Dy369 O379 2.395 . S
Dy369 O380 2.379 . S
Dy369 O383 2.339 . S
Dy369 C399 2.738 . S
C370 O382 1.254 . S
C370 O383 1.257 . S
O371 Dy368 2.307 . S
O371 C381 1.266 . S
O372 Dy369 2.298 . S
O372 C381 1.236 . S
O373 Dy368 2.395 . S
O373 C390 1.255 . S
O374 Dy368 2.379 . S
O374 C390 1.249 . S
O375 Dy369 2.275 . S
O375 C391 1.254 . S
O376 Dy368 2.339 . S
O376 C391 1.257 . S
O377 Dy369 2.307 . S
O377 C392 1.266 . S
O378 Dy368 2.298 . S
O378 C392 1.236 . S
O379 Dy369 2.395 . S
O379 C399 1.255 . S
O380 Dy369 2.379 . S
O380 C399 1.249 . S
C381 O371 1.266 . S
C381 O372 1.236 . S
O382 Dy368 2.275 . S
O382 C370 1.254 . S
O383 Dy369 2.339 . S
O383 C370 1.257 . S
C384 C387 1.344 1_556 S
C384 C388 1.328 . S
C384 C390 1.516 . S
C385 C386 1.304 . S
C385 C389 1.323 1_554 S
C386 C385 1.304 . S
C386 C387 1.371 . S
C386 H400 0.930 . S
C387 C384 1.344 1_554 S
C387 C386 1.371 . S
C387 H401 0.931 . S
C388 C384 1.328 . S
C388 C389 1.433 . S
C388 H402 0.931 . S
C389 C385 1.323 1_556 S
C389 C388 1.433 . S
C389 H403 0.933 . S
C390 Dy368 2.738 . S
C390 O373 1.255 . S
C390 O374 1.249 . S
C390 C384 1.516 . S
C391 O375 1.254 . S
C391 O376 1.257 . S
C392 O377 1.266 . S
C392 O378 1.236 . S
C393 C396 1.344 . S
C393 C397 1.328 . S
C393 C399 1.516 . S
C394 C395 1.304 . S
C394 C398 1.323 . S
C395 C394 1.304 . S
C395 C396 1.371 . S
C395 H404 0.930 . S
C396 C393 1.344 . S
C396 C395 1.371 . S
C396 H405 0.931 . S
C397 C393 1.328 . S
C397 C398 1.433 . S
C397 H406 0.931 . S
C398 C394 1.323 . S
C398 C397 1.433 . S
C398 H407 0.933 . S
C399 Dy369 2.738 . S
C399 O379 1.255 . S
C399 O380 1.249 . S
C399 C393 1.516 . S
H400 C386 0.930 . S
H401 C387 0.931 . S
H402 C388 0.931 . S
H403 C389 0.933 . S
H404 C395 0.930 . S
H405 C396 0.931 . S
H406 C397 0.931 . S
H407 C398 0.933 . S
Dy408 O411 2.307 1_455 S
Dy408 O413 2.395 . S
Dy408 O414 2.379 . S
Dy408 O416 2.339 . S
Dy408 O418 2.298 . S
Dy408 O422 2.275 . S
Dy408 C430 2.738 . S
Dy409 O412 2.298 . S
Dy409 O415 2.275 . S
Dy409 O417 2.307 1_655 S
Dy409 O419 2.395 . S
Dy409 O420 2.379 . S
Dy409 O423 2.339 . S
Dy409 C439 2.738 . S
C410 O422 1.254 1_655 S
C410 O423 1.257 . S
O411 Dy408 2.307 1_655 S
O411 C421 1.266 . S
O412 Dy409 2.298 . S
O412 C421 1.236 . S
O413 Dy408 2.395 . S
O413 C430 1.255 . S
O414 Dy408 2.379 . S
O414 C430 1.249 . S
O415 Dy409 2.275 . S
O415 C431 1.254 1_655 S
O416 Dy408 2.339 . S
O416 C431 1.257 . S
O417 Dy409 2.307 1_455 S
O417 C432 1.266 . S
O418 Dy408 2.298 . S
O418 C432 1.236 . S
O419 Dy409 2.395 . S
O419 C439 1.255 . S
O420 Dy409 2.379 . S
O420 C439 1.249 . S
C421 O411 1.266 . S
C421 O412 1.236 . S
O422 Dy408 2.275 . S
O422 C410 1.254 1_455 S
O423 Dy409 2.339 . S
O423 C410 1.257 . S
C424 C427 1.344 . S
C424 C428 1.328 . S
C424 C430 1.516 . S
C425 C426 1.304 . S
C425 C429 1.323 . S
C426 C425 1.304 . S
C426 C427 1.371 . S
C426 H440 0.930 . S
C427 C424 1.344 . S
C427 C426 1.371 . S
C427 H441 0.931 . S
C428 C424 1.328 . S
C428 C429 1.433 . S
C428 H442 0.931 . S
C429 C425 1.323 . S
C429 C428 1.433 . S
C429 H443 0.933 . S
C430 Dy408 2.738 . S
C430 O413 1.255 . S
C430 O414 1.249 . S
C430 C424 1.516 . S
C431 O415 1.254 1_455 S
C431 O416 1.257 . S
C432 O417 1.266 . S
C432 O418 1.236 . S
C433 C436 1.344 . S
C433 C437 1.328 . S
C433 C439 1.516 1_554 S
C434 C435 1.304 . S
C434 C438 1.323 . S
C435 C434 1.304 . S
C435 C436 1.371 . S
C435 H444 0.930 . S
C436 C433 1.344 . S
C436 C435 1.371 . S
C436 H445 0.931 . S
C437 C433 1.328 . S
C437 C438 1.433 . S
C437 H446 0.931 . S
C438 C434 1.323 . S
C438 C437 1.433 . S
C438 H447 0.933 . S
C439 Dy409 2.738 . S
C439 O419 1.255 . S
C439 O420 1.249 . S
C439 C433 1.516 1_556 S
H440 C426 0.930 . S
H441 C427 0.931 . S
H442 C428 0.931 . S
H443 C429 0.933 . S
H444 C435 0.930 . S
H445 C436 0.931 . S
H446 C437 0.931 . S
H447 C438 0.933 . S
C448 C449 1.371 1_545 S
C448 C450 1.419 . S
C448 H452 0.930 . S
C449 C448 1.371 1_565 S
C449 C458 1.426 . S
C450 C448 1.419 . S
C450 C451 1.373 . S
C450 H453 0.929 . S
C451 C450 1.373 . S
C451 C457 1.420 1_545 S
H452 C448 0.930 . S
H453 C450 0.929 . S
S454 N455 1.613 . S
S454 N456 1.610 . S
N455 S454 1.613 . S
N455 C458 1.350 . S
N456 S454 1.610 . S
N456 C457 1.351 . S
C457 C451 1.420 1_565 S
C457 N456 1.351 . S
C457 C458 1.434 . S
C458 C449 1.426 . S
C458 N455 1.350 . S
C458 C457 1.434 . S
C459 C460 1.369 . S
C459 C461 1.419 . S
C459 H463 0.930 . S
C460 C459 1.369 . S
C460 C469 1.429 . S
C461 C459 1.419 . S
C461 C462 1.363 . S
C461 H464 0.929 . S
C462 C461 1.363 . S
C462 C468 1.428 . S
H463 C459 0.930 . S
H464 C461 0.929 . S
S465 N466 1.613 . S
S465 N467 1.610 . S
N466 S465 1.613 . S
N466 C469 1.350 . S
N467 S465 1.610 . S
N467 C468 1.351 . S
C468 C462 1.428 . S
C468 N467 1.351 . S
C468 C469 1.434 . S
C469 C460 1.429 . S
C469 N466 1.350 . S
C469 C468 1.434 . S
C470 C471 1.369 . S
C470 C472 1.419 . S
C470 H474 0.930 . S
C471 C470 1.369 . S
C471 C480 1.429 . S
C472 C470 1.419 . S
C472 C473 1.363 . S
C472 H475 0.929 . S
C473 C472 1.363 . S
C473 C479 1.428 . S
H474 C470 0.930 . S
H475 C472 0.929 . S
S476 N477 1.613 . S
S476 N478 1.610 . S
N477 S476 1.613 . S
N477 C480 1.350 . S
N478 S476 1.610 . S
N478 C479 1.351 . S
C479 C473 1.428 . S
C479 N478 1.351 . S
C479 C480 1.434 . S
C480 C471 1.429 . S
C480 N477 1.350 . S
C480 C479 1.434 . S
C481 C482 1.386 . S
C481 C483 1.419 . S
C481 H485 0.930 . S
C482 C481 1.386 . S
C482 C491 1.415 1_455 S
C483 C481 1.419 . S
C483 C484 1.363 . S
C483 H486 0.929 . S
C484 C483 1.363 . S
C484 C490 1.428 1_455 S
H485 C481 0.930 . S
H486 C483 0.929 . S
S487 N488 1.613 . S
S487 N489 1.610 . S
N488 S487 1.613 . S
N488 C491 1.350 . S
N489 S487 1.610 . S
N489 C490 1.351 . S
C490 C484 1.428 1_655 S
C490 N489 1.351 . S
C490 C491 1.434 . S
C491 C482 1.415 1_655 S
C491 N488 1.350 . S
C491 C490 1.434 . S
C492 C493 1.357 1_545 S
C492 C494 1.419 . S
C492 H496 0.930 . S
C493 C492 1.357 1_565 S
C493 C502 1.439 . S
C494 C492 1.419 . S
C494 C495 1.342 1_544 S
C494 H497 0.929 . S
C495 C494 1.342 1_566 S
C495 C501 1.452 1_556 S
H496 C492 0.930 . S
H497 C494 0.929 . S
S498 N499 1.613 . S
S498 N500 1.610 . S
N499 S498 1.613 . S
N499 C502 1.350 . S
N500 S498 1.610 . S
N500 C501 1.351 . S
C501 C495 1.452 1_554 S
C501 N500 1.351 . S
C501 C502 1.434 . S
C502 C493 1.439 . S
C502 N499 1.350 . S
C502 C501 1.434 . S
C503 C504 1.369 1_556 S
C503 C505 1.419 . S
C503 H507 0.930 1_556 S
C504 C503 1.369 1_554 S
C504 C513 1.429 . S
C505 C503 1.419 . S
C505 C506 1.363 . S
C505 H508 0.929 . S
C506 C505 1.363 . S
C506 C512 1.428 . S
H507 C503 0.930 1_554 S
H508 C505 0.929 . S
S509 N510 1.613 . S
S509 N511 1.610 1_554 S
N510 S509 1.613 . S
N510 C513 1.350 . S
N511 S509 1.610 1_556 S
N511 C512 1.351 . S
C512 C506 1.428 . S
C512 N511 1.351 . S
C512 C513 1.434 1_556 S
C513 C504 1.429 . S
C513 N510 1.350 . S
C513 C512 1.434 1_554 S
C514 C515 1.369 . S
C514 C516 1.419 . S
C514 H518 0.930 . S
C515 C514 1.369 . S
C515 C524 1.429 . S
C516 C514 1.419 . S
C516 C517 1.363 . S
C516 H519 0.929 . S
C517 C516 1.363 . S
C517 C523 1.428 . S
H518 C514 0.930 . S
H519 C516 0.929 . S
S520 N521 1.613 . S
S520 N522 1.610 . S
N521 S520 1.613 . S
N521 C524 1.350 . S
N522 S520 1.610 . S
N522 C523 1.351 . S
C523 C517 1.428 . S
C523 N522 1.351 . S
C523 C524 1.434 . S
C524 C515 1.429 . S
C524 N521 1.350 . S
C524 C523 1.434 . S
C525 C526 1.389 . S
C525 C527 1.419 . S
C525 H529 0.930 . S
C526 C525 1.389 . S
C526 C535 1.413 1_655 S
C527 C525 1.419 . S
C527 C528 1.363 . S
C527 H530 0.929 . S
C528 C527 1.363 . S
C528 C534 1.428 1_655 S
H529 C525 0.930 . S
H530 C527 0.929 . S
S531 N532 1.613 . S
S531 N533 1.610 . S
N532 S531 1.613 . S
N532 C535 1.350 . S
N533 S531 1.610 . S
N533 C534 1.351 . S
C534 C528 1.428 1_455 S
C534 N533 1.351 . S
C534 C535 1.434 . S
C535 C526 1.413 1_455 S
C535 N532 1.350 . S
C535 C534 1.434 . S
C536 C537 1.369 1_655 S
C536 C538 1.419 . S
C536 H540 0.930 . S
C537 C536 1.369 1_455 S
C537 C546 1.429 . S
C538 C536 1.419 . S
C538 C539 1.363 . S
C538 H541 0.929 . S
C539 C538 1.363 . S
C539 C545 1.428 . S
H540 C536 0.930 . S
H541 C538 0.929 . S
S542 N543 1.613 . S
S542 N544 1.610 . S
N543 S542 1.613 . S
N543 C546 1.350 . S
N544 S542 1.610 . S
N544 C545 1.351 1_455 S
C545 C539 1.428 . S
C545 N544 1.351 1_655 S
C545 C546 1.434 1_655 S
C546 C537 1.429 . S
C546 N543 1.350 . S
C546 C545 1.434 1_455 S
C547 C548 1.369 1_545 S
C547 C549 1.419 1_545 S
C547 H551 0.930 . S
C548 C547 1.369 1_565 S
C548 C557 1.429 . S
C549 C547 1.419 1_565 S
C549 C550 1.363 . S
C549 H552 0.937 . S
C550 C549 1.363 . S
C550 C556 1.428 . S
H551 C547 0.930 . S
H552 C549 0.937 . S
S553 N554 1.613 . S
S553 N555 1.610 . S
N554 S553 1.613 . S
N554 C557 1.350 . S
N555 S553 1.610 . S
N555 C556 1.351 . S
C556 C550 1.428 . S
C556 N555 1.351 . S
C556 C557 1.434 . S
C557 C548 1.429 . S
C557 N554 1.350 . S
C557 C556 1.434 . S
C558 C559 1.369 . S
C558 C560 1.419 . S
C558 H562 0.930 . S
C559 C558 1.369 . S
C559 C568 1.429 . S
C560 C558 1.419 . S
C560 C561 1.363 . S
C560 H563 0.929 . S
C561 C560 1.363 . S
C561 C567 1.428 . S
H562 C558 0.930 . S
H563 C560 0.929 . S
S564 N565 1.613 . S
S564 N566 1.610 . S
N565 S564 1.613 . S
N565 C568 1.350 . S
N566 S564 1.610 . S
N566 C567 1.351 . S
C567 C561 1.428 . S
C567 N566 1.351 . S
C567 C568 1.434 . S
C568 C559 1.429 . S
C568 N565 1.350 . S
C568 C567 1.434 . S
C569 C570 1.369 . S
C569 C571 1.419 . S
C569 H573 0.930 . S
C570 C569 1.369 . S
C570 C579 1.429 . S
C571 C569 1.419 . S
C571 C572 1.363 . S
C571 H574 0.929 . S
C572 C571 1.363 . S
C572 C578 1.428 . S
H573 C569 0.930 . S
H574 C571 0.929 . S
S575 N576 1.613 . S
S575 N577 1.610 . S
N576 S575 1.613 . S
N576 C579 1.350 . S
N577 S575 1.610 . S
N577 C578 1.351 . S
C578 C572 1.428 . S
C578 N577 1.351 . S
C578 C579 1.434 . S
C579 C570 1.429 . S
C579 N576 1.350 . S
C579 C578 1.434 . S
C580 C581 1.369 1_455 S
C580 C582 1.419 . S
C580 H584 0.930 . S
C581 C580 1.369 1_655 S
C581 C590 1.429 . S
C582 C580 1.419 . S
C582 C583 1.363 . S
C582 H585 0.929 . S
C583 C582 1.363 . S
C583 C589 1.428 . S
H584 C580 0.930 . S
H585 C582 0.929 . S
S586 N587 1.613 . S
S586 N588 1.610 1_655 S
N587 S586 1.613 . S
N587 C590 1.350 . S
N588 S586 1.610 1_455 S
N588 C589 1.351 . S
C589 C583 1.428 . S
C589 N588 1.351 . S
C589 C590 1.434 1_455 S
C590 C581 1.429 . S
C590 N587 1.350 . S
C590 C589 1.434 1_655 S
C591 C592 1.369 . S
C591 C593 1.419 . S
C591 H595 0.930 . S
C592 C591 1.369 . S
C592 C601 1.429 1_545 S
C593 C591 1.419 . S
C593 C594 1.363 . S
C593 H596 0.929 . S
C594 C593 1.363 . S
C594 C600 1.432 . S
H595 C591 0.930 . S
H596 C593 0.929 . S
S597 N598 1.613 . S
S597 N599 1.610 . S
N598 S597 1.613 . S
N598 C601 1.350 . S
N599 S597 1.610 . S
N599 C600 1.349 1_565 S
C600 C594 1.432 . S
C600 N599 1.349 1_545 S
C600 C601 1.433 1_545 S
C601 C592 1.429 1_565 S
C601 N598 1.350 . S
C601 C600 1.433 1_565 S
C602 C603 1.369 . S
C602 C604 1.419 . S
C602 H606 0.930 . S
C603 C602 1.369 . S
C603 C612 1.429 . S
C604 C602 1.419 . S
C604 C605 1.363 . S
C604 H607 0.929 . S
C605 C604 1.363 . S
C605 C611 1.428 . S
H606 C602 0.930 . S
H607 C604 0.929 . S
S608 N609 1.613 . S
S608 N610 1.610 . S
N609 S608 1.613 . S
N609 C612 1.350 . S
N610 S608 1.610 . S
N610 C611 1.351 . S
C611 C605 1.428 . S
C611 N610 1.351 . S
C611 C612 1.434 . S
C612 C603 1.429 . S
C612 N609 1.350 . S
C612 C611 1.434 . S
C613 C614 1.369 . S
C613 C615 1.419 . S
C613 H617 0.930 . S
C614 C613 1.369 . S
C614 C623 1.429 . S
C615 C613 1.419 . S
C615 C616 1.363 . S
C615 H618 0.929 . S
C616 C615 1.363 . S
C616 C622 1.428 . S
H617 C613 0.930 . S
H618 C615 0.929 . S
S619 N620 1.613 . S
S619 N621 1.610 . S
N620 S619 1.613 . S
N620 C623 1.350 . S
N621 S619 1.610 . S
N621 C622 1.351 . S
C622 C616 1.428 . S
C622 N621 1.351 . S
C622 C623 1.434 . S
C623 C614 1.429 . S
C623 N620 1.350 . S
C623 C622 1.434 . S
C624 C625 1.369 . S
C624 C626 1.419 . S
C624 H628 0.930 . S
C625 C624 1.369 . S
C625 C634 1.429 1_455 S
C626 C624 1.419 . S
C626 C627 1.363 . S
C626 H629 0.929 . S
C627 C626 1.363 . S
C627 C633 1.428 1_455 S
H628 C624 0.930 . S
H629 C626 0.929 . S
S630 N631 1.613 . S
S630 N632 1.610 . S
N631 S630 1.613 . S
N631 C634 1.350 . S
N632 S630 1.610 . S
N632 C633 1.351 . S
C633 C627 1.428 1_655 S
C633 N632 1.351 . S
C633 C634 1.434 . S
C634 C625 1.429 1_655 S
C634 N631 1.350 . S
C634 C633 1.434 . S
C635 C636 1.369 . S
C635 C637 1.419 . S
C635 H639 0.930 . S
C636 C635 1.369 . S
C636 C645 1.429 1_545 S
C637 C635 1.419 . S
C637 C638 1.363 . S
C637 H640 0.929 . S
C638 C637 1.363 . S
C638 C644 1.425 1_545 S
H639 C635 0.930 . S
H640 C637 0.929 . S
S641 N642 1.613 . S
S641 N643 1.610 . S
N642 S641 1.613 . S
N642 C645 1.350 . S
N643 S641 1.610 . S
N643 C644 1.353 . S
C644 C638 1.425 1_565 S
C644 N643 1.353 . S
C644 C645 1.436 . S
C645 C636 1.429 1_565 S
C645 N642 1.350 . S
C645 C644 1.436 . S
C646 C647 1.369 . S
C646 C648 1.419 . S
C646 H650 0.930 . S
C647 C646 1.369 . S
C647 C656 1.429 1_554 S
C648 C646 1.419 . S
C648 C649 1.363 1_554 S
C648 H651 0.929 . S
C649 C648 1.363 1_556 S
C649 C655 1.428 . S
H650 C646 0.930 . S
H651 C648 0.929 . S
S652 N653 1.613 . S
S652 N654 1.610 . S
N653 S652 1.613 . S
N653 C656 1.350 . S
N654 S652 1.610 . S
N654 C655 1.351 . S
C655 C649 1.428 . S
C655 N654 1.351 . S
C655 C656 1.434 . S
C656 C647 1.429 1_556 S
C656 N653 1.350 . S
C656 C655 1.434 . S
C657 C658 1.369 . S
C657 C659 1.419 . S
C657 H661 0.930 . S
C658 C657 1.369 . S
C658 C667 1.429 . S
C659 C657 1.419 . S
C659 C660 1.363 . S
C659 H662 0.929 . S
C660 C659 1.363 . S
C660 C666 1.428 . S
H661 C657 0.930 . S
H662 C659 0.929 . S
S663 N664 1.613 . S
S663 N665 1.610 . S
N664 S663 1.613 . S
N664 C667 1.350 . S
N665 S663 1.610 . S
N665 C666 1.351 . S
C666 C660 1.428 . S
C666 N665 1.351 . S
C666 C667 1.434 . S
C667 C658 1.429 . S
C667 N664 1.350 . S
C667 C666 1.434 . S
C668 C669 1.369 1_455 S
C668 C670 1.419 . S
C668 H672 0.930 . S
C669 C668 1.369 1_655 S
C669 C678 1.429 . S
C670 C668 1.419 . S
C670 C671 1.363 1_455 S
C670 H673 0.929 . S
C671 C670 1.363 1_655 S
C671 C677 1.428 . S
H672 C668 0.930 . S
H673 C670 0.929 . S
S674 N675 1.613 . S
S674 N676 1.610 . S
N675 S674 1.613 . S
N675 C678 1.350 . S
N676 S674 1.610 . S
N676 C677 1.351 . S
C677 C671 1.428 . S
C677 N676 1.351 . S
C677 C678 1.434 . S
C678 C669 1.429 . S
C678 N675 1.350 . S
C678 C677 1.434 . S
C679 C680 1.369 1_545 S
C679 C681 1.419 . S
C679 H683 0.930 . S
C680 C679 1.369 1_565 S
C680 C689 1.429 . S
C681 C679 1.419 . S
C681 C682 1.363 1_545 S
C681 H684 0.929 . S
C682 C681 1.363 1_565 S
C682 C688 1.428 . S
H683 C679 0.930 . S
H684 C681 0.929 . S
S685 N686 1.613 . S
S685 N687 1.610 . S
N686 S685 1.613 . S
N686 C689 1.350 . S
N687 S685 1.610 . S
N687 C688 1.351 . S
C688 C682 1.428 . S
C688 N687 1.351 . S
C688 C689 1.434 . S
C689 C680 1.429 . S
C689 N686 1.350 . S
C689 C688 1.434 . S
C690 C691 1.369 . S
C690 C692 1.419 . S
C690 H694 0.930 . S
C691 C690 1.369 . S
C691 C700 1.429 . S
C692 C690 1.419 . S
C692 C693 1.363 . S
C692 H695 0.929 . S
C693 C692 1.363 . S
C693 C699 1.428 . S
H694 C690 0.930 . S
H695 C692 0.929 . S
S696 N697 1.613 . S
S696 N698 1.610 . S
N697 S696 1.613 . S
N697 C700 1.350 . S
N698 S696 1.610 . S
N698 C699 1.351 . S
C699 C693 1.428 . S
C699 N698 1.351 . S
C699 C700 1.434 . S
C700 C691 1.429 . S
C700 N697 1.350 . S
C700 C699 1.434 . S
C701 C702 1.369 . S
C701 C703 1.419 . S
C701 H705 0.930 . S
C702 C701 1.369 . S
C702 C711 1.429 . S
C703 C701 1.419 . S
C703 C704 1.363 . S
C703 H706 0.929 . S
C704 C703 1.363 . S
C704 C710 1.428 . S
H705 C701 0.930 . S
H706 C703 0.929 . S
S707 N708 1.613 . S
S707 N709 1.610 . S
N708 S707 1.613 . S
N708 C711 1.350 . S
N709 S707 1.610 . S
N709 C710 1.351 . S
C710 C704 1.428 . S
C710 N709 1.351 . S
C710 C711 1.434 . S
C711 C702 1.429 . S
C711 N708 1.350 . S
C711 C710 1.434 . S
C449 C241 2.262 1_565 S
C451 C290 2.473 1_545 S
C462 C330 2.287 . S
C460 C277 2.162 . S
C473 C394 2.854 . S
C471 C169 2.693 . S
C484 C410 2.737 1_455 S
C482 C205 2.333 . S
C495 C311 2.472 1_565 S
C493 C97 2.271 1_565 S
C504 C133 2.206 . S
C506 C351 2.290 . S
C515 C25 2.649 . S
C517 C385 2.855 . S
C526 C61 2.323 1_655 S
C528 C431 2.738 1_654 S
C539 C305 0.652 . S
C537 C211 0.613 . S
C550 C345 0.844 . S
C548 C247 0.863 1_565 S
C561 C381 0.854 . S
C559 C253 0.858 . S
C570 C175 1.131 . S
C572 C425 1.004 . S
C581 C67 0.658 1_655 S
C583 C314 0.652 . S
C594 C354 0.836 . S
C592 C103 0.849 . S
C605 C392 0.860 . S
C603 C109 0.878 . S
C614 C31 1.055 . S
C616 C434 0.995 . S
C625 C181 2.897 . S
C627 C312 3.319 . S
C636 C217 2.787 . S
C638 C352 3.154 . S
C649 C370 2.215 . S
C647 C283 2.085 . S
C660 C432 3.775 . S
C658 C145 3.300 . S
C669 C37 2.899 1_655 S
C671 C301 3.329 . S
C682 C341 3.156 . S
C680 C73 2.787 1_565 S
C693 C391 2.221 . S
C691 C139 2.111 . S
C702 C1 3.284 . S
C704 C421 3.781 . S
