# Generated by pormake.
# Topology zzz, (3,6)-cn, num edge types: 1
# Building blocks:
#     Node 0, Type 0, BuildingBlock: CUQRIR_clean_linker_1, # of connection points: 3
#     Node 1, Type 0, BuildingBlock: CUQRIR_clean_linker_1, # of connection points: 3
#     Node 2, Type 0, BuildingBlock: CUQRIR_clean_linker_1, # of connection points: 3
#     Node 3, Type 0, BuildingBlock: CUQRIR_clean_linker_1, # of connection points: 3
#     Node 4, Type 0, BuildingBlock: CUQRIR_clean_linker_1, # of connection points: 3
#     Node 5, Type 0, BuildingBlock: CUQRIR_clean_linker_1, # of connection points: 3
#     Node 6, Type 0, BuildingBlock: CUQRIR_clean_linker_1, # of connection points: 3
#     Node 7, Type 0, BuildingBlock: CUQRIR_clean_linker_1, # of connection points: 3
#     Node 8, Type 1, BuildingBlock: KUMBUR_clean_sbu_0, # of connection points: 6
#     Node 9, Type 1, BuildingBlock: KUMBUR_clean_sbu_0, # of connection points: 6
#     Node 10, Type 1, BuildingBlock: KUMBUR_clean_sbu_0, # of connection points: 6
#     Node 11, Type 1, BuildingBlock: KUMBUR_clean_sbu_0, # of connection points: 6
#     Edge 12, Type (0, 1), BuildingBlock: XUDNAN_clean_linker_2, # of connection points: 2
#     Edge 13, Type (0, 1), BuildingBlock: XUDNAN_clean_linker_2, # of connection points: 2
#     Edge 14, Type (0, 1), BuildingBlock: XUDNAN_clean_linker_2, # of connection points: 2
#     Edge 15, Type (0, 1), BuildingBlock: XUDNAN_clean_linker_2, # of connection points: 2
#     Edge 16, Type (0, 1), BuildingBlock: XUDNAN_clean_linker_2, # of connection points: 2
#     Edge 17, Type (0, 1), BuildingBlock: XUDNAN_clean_linker_2, # of connection points: 2
#     Edge 18, Type (0, 1), BuildingBlock: XUDNAN_clean_linker_2, # of connection points: 2
#     Edge 19, Type (0, 1), BuildingBlock: XUDNAN_clean_linker_2, # of connection points: 2
#     Edge 20, Type (0, 1), BuildingBlock: XUDNAN_clean_linker_2, # of connection points: 2
#     Edge 21, Type (0, 1), BuildingBlock: XUDNAN_clean_linker_2, # of connection points: 2
#     Edge 22, Type (0, 1), BuildingBlock: XUDNAN_clean_linker_2, # of connection points: 2
#     Edge 23, Type (0, 1), BuildingBlock: XUDNAN_clean_linker_2, # of connection points: 2
#     Edge 24, Type (0, 1), BuildingBlock: XUDNAN_clean_linker_2, # of connection points: 2
#     Edge 25, Type (0, 1), BuildingBlock: XUDNAN_clean_linker_2, # of connection points: 2
#     Edge 26, Type (0, 1), BuildingBlock: XUDNAN_clean_linker_2, # of connection points: 2
#     Edge 27, Type (0, 1), BuildingBlock: XUDNAN_clean_linker_2, # of connection points: 2
#     Edge 28, Type (0, 1), BuildingBlock: XUDNAN_clean_linker_2, # of connection points: 2
#     Edge 29, Type (0, 1), BuildingBlock: XUDNAN_clean_linker_2, # of connection points: 2
#     Edge 30, Type (0, 1), BuildingBlock: XUDNAN_clean_linker_2, # of connection points: 2
#     Edge 31, Type (0, 1), BuildingBlock: XUDNAN_clean_linker_2, # of connection points: 2
#     Edge 32, Type (0, 1), BuildingBlock: XUDNAN_clean_linker_2, # of connection points: 2
#     Edge 33, Type (0, 1), BuildingBlock: XUDNAN_clean_linker_2, # of connection points: 2
#     Edge 34, Type (0, 1), BuildingBlock: XUDNAN_clean_linker_2, # of connection points: 2
#     Edge 35, Type (0, 1), BuildingBlock: XUDNAN_clean_linker_2, # of connection points: 2
# Relax obj value: 0.207
# Max RMSD: 0.170
# Mean RMSD: 0.120
data_MOF--net-zzz--node1-KUMBUR_clean_sbu_0--node2-CUQRIR_clean_linker_1--edge1-XUDNAN_clean_linker_2
_symmetry_space_group_name_H-M    P1
_symmetry_Int_Tables_number       1
_symmetry_cell_setting            triclinic
loop_
_symmetry_equiv_pos_as_xyz
'x, y, z'
_cell_length_a     47.09847
_cell_length_b     47.192433
_cell_length_c     13.357355
_cell_angle_alpha  91.117201
_cell_angle_beta   89.844225
_cell_angle_gamma 89.726953
loop_
_atom_site_label
_atom_site_type_symbol
_atom_site_fract_x
_atom_site_fract_y
_atom_site_fract_z
_atom_type_partial_charge
C0 C 0.75315 0.54667 0.30209 0.0
N1 N 0.78206 0.55079 0.30962 0.0
N2 N 0.74279 0.55478 0.21027 0.0
C3 C 0.73513 0.53491 0.38359 0.0
C4 C 0.76671 0.56325 0.16259 0.0
N5 N 0.78983 0.56108 0.2219 0.0
C6 C 0.76789 0.57168 0.05444 0.0
H7 H 0.73311 0.51169 0.37117 0.0
H8 H 0.71353 0.54439 0.38184 0.0
H9 H 0.74503 0.53881 0.45787 0.0
H10 H 0.76451 0.5949 0.05017 0.0
H11 H 0.75107 0.56087 1.01022 0.0
H12 H 0.78887 0.56661 0.02044 0.0
C13 C 0.0185 0.75763 0.2506 0.0
N14 N 1.00255 0.77965 0.29116 0.0
N15 N 1.00183 0.73545 0.21706 0.0
C16 C 0.05017 0.75804 0.24214 0.0
C17 C 0.97532 0.74496 0.23988 0.0
N18 N 0.9755 0.7716 0.28116 0.0
C19 C 0.94874 0.72846 0.21653 0.0
H20 H 0.05618 0.77089 0.17678 0.0
H21 H 0.05881 0.73628 0.23126 0.0
H22 H 0.05948 0.76819 0.31006 0.0
H23 H 0.94924 0.70801 0.25591 0.0
H24 H 0.94787 0.72359 0.13496 0.0
H25 H 0.92927 0.7401 0.24026 0.0
C26 C 0.78257 1.0032 0.32091 0.0
N27 N 0.75604 1.01553 0.31896 0.0
N28 N 0.79796 1.00864 0.23513 0.0
C29 C 0.79388 0.98717 0.40781 0.0
C30 C 0.77994 0.02526 0.18327 0.0
N31 N 0.75524 0.02932 0.23331 0.0
C32 C 0.78735 0.03955 0.08654 0.0
H33 H 0.80328 1.00242 0.46246 0.0
H34 H 0.81064 0.97199 0.38284 0.0
H35 H 0.77646 0.97579 0.44579 0.0
H36 H 0.78529 0.02399 0.0237 0.0
H37 H 0.8096 0.04717 0.0882 0.0
H38 H 0.77313 0.05772 0.07119 0.0
C39 C 0.53368 0.79388 0.28565 0.0
N40 N 0.5454 0.76763 0.29937 0.0
N41 N 0.54747 0.80836 0.21153 0.0
C42 C 0.50762 0.8044 0.33976 0.0
C43 C 0.5683 0.78976 0.18289 0.0
N44 N 0.56691 0.76543 0.23501 0.0
C45 C 0.59174 0.79595 0.10973 0.0
H46 H 0.49475 0.8182 0.29098 0.0
H47 H 0.51417 0.8169 0.40694 0.0
H48 H 0.49447 0.78642 0.3649 0.0
H49 H 0.5968 0.81888 0.10999 0.0
H50 H 0.58503 0.78924 0.03336 0.0
H51 H 0.61125 0.78389 0.1283 0.0
C52 C 0.30021 0.51533 0.08861 0.0
N53 N 0.27194 0.50802 0.08049 0.0
N54 N 0.31246 0.50482 0.17425 0.0
C55 C 0.31605 0.53159 0.01144 0.0
C56 C 0.29048 0.49084 0.21675 0.0
N57 N 0.26663 0.49247 0.16043 0.0
C58 C 0.29282 0.47415 0.31182 0.0
H59 H 0.32394 0.51657 0.95267 0.0
H60 H 0.33455 0.54261 0.04518 0.0
H61 H 0.30177 0.54715 0.97557 0.0
H62 H 0.30943 0.48305 0.36187 0.0
H63 H 0.29844 0.45187 0.29215 0.0
H64 H 0.27267 0.47381 0.35428 0.0
C65 C 0.03498 0.28057 0.10931 0.0
N66 N 0.04454 0.25302 0.11634 0.0
N67 N 0.05056 0.29935 0.16767 0.0
C68 C 1.011 0.28916 0.04281 0.0
C69 C 0.07075 0.28159 0.20419 0.0
N70 N 0.06484 0.25368 0.18581 0.0
C71 C 0.09698 0.2909 0.26036 0.0
H72 H 1.01168 0.31222 0.02814 0.0
H73 H 0.99058 0.28405 0.07974 0.0
H74 H 1.012 0.27701 0.97089 0.0
H75 H 0.09132 0.30411 0.32711 0.0
H76 H 0.11056 0.30351 0.21019 0.0
H77 H 0.10969 0.27238 0.28435 0.0
C78 C 0.2588 0.03167 0.09314 0.0
N79 N 0.28308 0.04713 0.07832 0.0
N80 N 0.23968 0.04592 0.15402 0.0
C81 C 0.25391 1.00265 0.04944 0.0
C82 C 0.2529 0.07094 0.17125 0.0
N83 N 0.2792 0.07152 0.12897 0.0
C84 C 0.23904 0.09616 0.22279 0.0
H85 H 0.24183 1.00463 0.9787 0.0
H86 H 0.24116 0.98979 0.10159 0.0
H87 H 0.27438 0.99182 0.0325 0.0
H88 H 0.24077 0.09431 0.30515 0.0
H89 H 0.21613 0.0971 0.20375 0.0
H90 H 0.24938 0.11617 0.20042 0.0
C91 C 0.51111 0.2608 0.0896 0.0
N92 N 0.49865 0.28634 0.06934 0.0
N93 N 0.49439 0.24481 0.15093 0.0
C94 C 0.54015 0.25203 0.05398 0.0
C95 C 0.47147 0.26192 0.167 0.0
N96 N 0.47404 0.28675 0.11842 0.0
C97 C 0.4463 0.25473 0.23099 0.0
H98 H 0.55318 0.27063 0.03434 0.0
H99 H 0.53796 0.23835 0.98599 0.0
H100 H 0.55114 0.23959 0.11209 0.0
H101 H 0.45064 0.2613 0.30964 0.0
H102 H 0.44212 0.23161 0.22819 0.0
H103 H 0.42711 0.2663 0.20582 0.0
Tb104 Tb 0.04862 1.00504 0.80486 0.0
C105 C 0.98017 0.9855 0.45155 0.0
C106 C 0.99724 1.00752 0.30007 0.0
C107 C 0.97014 0.96407 0.28862 0.0
C108 C 0.99419 1.00753 0.4051 0.0
C109 C 0.9675 0.96381 0.39305 0.0
C110 C 0.98616 0.98501 0.24269 0.0
C111 C 0.95095 0.94267 0.54499 0.0
N112 N 0.97837 0.98562 0.5533 0.0
C113 C 0.96395 0.9644 0.60028 0.0
C114 C 0.95252 0.94248 0.44101 0.0
Tb115 Tb 0.9979 0.02469 0.63165 0.0
N116 N 1.00406 0.0294 0.46257 0.0
C117 C 1.01496 0.05306 0.41852 0.0
C118 C 1.01045 0.0306 0.25554 0.0
C119 C 0.01881 0.0537 0.31483 0.0
H120 H 0.9628 0.96308 0.68041 0.0
H121 H 0.02839 0.07193 0.28073 0.0
H122 H 0.98899 0.98406 0.16239 0.0
H123 H 0.93982 0.92595 0.5829 0.0
H124 H 0.0221 0.07084 0.46349 0.0
H125 H 0.02892 0.08484 0.09446 0.0
H126 H 1.01364 0.03114 0.17537 0.0
H127 H 0.10939 0.98027 0.70974 0.0
H128 H 1.01608 0.04839 0.97132 0.0
H129 H 0.16053 0.99004 0.72443 0.0
H130 H 0.9596 0.94835 0.2426 0.0
H131 H 0.07887 0.0996 0.11289 0.0
H132 H 0.12966 0.09422 0.05822 0.0
H133 H 0.94219 0.92569 0.3987 0.0
H134 H 0.16548 0.06887 0.95569 0.0
N135 N 0.05822 0.04195 0.9157 0.0
C136 C 0.03806 0.05398 0.97749 0.0
C137 C 0.07334 0.0836 0.05716 0.0
C138 C 0.09405 0.07096 0.99579 0.0
C139 C 0.0452 0.07511 0.04771 0.0
C140 C 0.0857 0.04993 0.92527 0.0
H141 H 0.17721 0.02987 0.83168 0.0
N142 N 0.09669 1.01476 0.80575 0.0
C143 C 0.14535 1.00332 0.76452 0.0
C144 C 0.1057 0.03584 0.86804 0.0
C145 C 0.1163 0.99786 0.7565 0.0
C146 C 0.15466 0.0258 0.82501 0.0
C147 C 0.13482 0.04212 0.879 0.0
O148 O 0.07298 0.97165 0.86077 0.0
O149 O 0.01836 0.9879 0.69326 0.0
O150 O 0.97359 1.00529 0.75408 0.0
O151 O 1.00641 1.00698 0.88218 0.0
O152 O 0.0567 0.96872 0.69988 0.0
O153 O 0.03666 0.98664 0.94132 0.0
O154 O 0.96535 0.04648 0.70931 0.0
O155 O 0.02162 0.04022 0.76197 0.0
O156 O 0.07236 0.02436 0.67845 0.0
O157 O 0.03931 0.02024 0.5512 0.0
O158 O 0.01978 0.06625 0.64666 0.0
O159 O 0.96372 0.0421 0.55082 0.0
C160 C 0.03315 0.96779 0.65253 0.0
C161 C 0.0449 0.93715 0.93523 0.0
C162 C 1.00839 0.90346 0.98038 0.0
C163 C 0.01905 0.93111 0.98248 0.0
C164 C 0.02389 0.88172 0.93134 0.0
C165 C 0.06034 0.91505 0.88781 0.0
C166 C 0.0498 0.88754 0.88587 0.0
C167 C 0.97973 1.0045 0.85054 0.0
C168 C 0.05535 0.96647 0.93215 0.0
C169 C 0.14324 0.06368 0.94636 0.0
C170 C 0.12287 0.07807 1.00482 0.0
C171 C 0.02901 0.06525 0.73722 0.0
C172 C 0.94591 0.08407 0.62448 0.0
C173 C 0.96623 0.10198 0.5842 0.0
C174 C 0.96342 0.13134 0.59322 0.0
C175 C 0.93902 0.1429 0.63957 0.0
C176 C 0.92164 0.0956 0.67075 0.0
C177 C 0.91809 0.12502 0.67719 0.0
C178 C 0.06596 0.02363 0.5816 0.0
C179 C 0.95209 0.0538 0.62936 0.0
H180 H 1.00713 0.94784 0.02061 0.0
H181 H 1.01643 0.86003 0.93093 0.0
H182 H 0.08049 0.91902 0.85152 0.0
H183 H 0.06184 0.87065 0.84953 0.0
H184 H 0.98498 0.093 0.54962 0.0
H185 H 0.93613 0.16563 0.64666 0.0
H186 H 0.90588 0.08194 0.70363 0.0
H187 H 0.89939 0.13398 0.71322 0.0
Tb188 Tb 0.52353 0.05271 0.76435 0.0
C189 C 0.53893 0.94183 0.52273 0.0
C190 C 0.57277 0.95179 0.39206 0.0
C191 C 0.56413 0.90307 0.43809 0.0
C192 C 0.5535 0.96114 0.46692 0.0
C193 C 0.54367 0.91248 0.50796 0.0
C194 C 0.5784 0.9227 0.37922 0.0
C195 C 0.50498 0.90389 0.62167 0.0
N196 N 0.51874 0.9518 0.58684 0.0
C197 C 0.50107 0.93313 0.63353 0.0
C198 C 0.52671 0.89347 0.55995 0.0
Tb199 Tb 0.50987 0.99979 0.58668 0.0
N200 N 0.54747 0.98902 0.48175 0.0
C201 C 0.56043 1.00876 0.42333 0.0
C202 C 0.58521 0.97188 0.33055 0.0
C203 C 0.57942 1.00053 0.34749 0.0
H204 H 0.4839 0.94069 0.68063 0.0
H205 H 0.58939 0.01632 0.30154 0.0
H206 H 0.59337 0.91515 0.3229 0.0
H207 H 0.491 0.88941 0.65947 0.0
H208 H 0.55643 0.03109 0.43379 0.0
H209 H 0.58019 0.02895 0.10789 0.0
H210 H 0.59949 0.9655 0.27042 0.0
H211 H 0.46387 0.0912 0.74076 0.0
H212 H 0.57668 0.0396 0.92937 0.0
H213 H 0.42237 0.10348 0.84424 0.0
H214 H 0.56833 0.88066 0.42651 0.0
H215 H 0.53746 0.03037 0.21522 0.0
H216 H 0.48505 0.04044 0.23255 0.0
H217 H 0.52953 0.87078 0.55016 0.0
H218 H 0.44166 0.06018 0.15904 0.0
N219 N 0.53166 0.04615 0.93252 0.0
C220 C 0.5576 0.04032 0.97402 0.0
C221 C 0.53567 0.03521 0.13659 0.0
C222 C 0.50966 0.04326 0.09561 0.0
C223 C 0.55984 0.03437 0.076 0.0
C224 C 0.50844 0.04917 0.9926 0.0
H225 H 0.41901 0.08666 0.01785 0.0
N226 N 0.48404 0.06663 0.85323 0.0
C227 C 0.43931 0.09075 0.87489 0.0
C228 C 0.48379 0.05975 0.95135 0.0
C229 C 0.46301 0.08354 0.8161 0.0
C230 C 0.43743 0.08111 0.97272 0.0
C231 C 0.46009 0.06581 0.0127 0.0
O232 O 0.54794 0.0838 0.69396 0.0
O233 O 0.54245 0.02883 0.63904 0.0
O234 O 0.5303 0.97742 0.71191 0.0
O235 O 0.52338 1.01077 0.84085 0.0
O236 O 0.56732 0.03592 0.75803 0.0
O237 O 0.52658 0.0934 0.83134 0.0
O238 O 0.47164 0.98152 0.53776 0.0
O239 O 0.48928 0.03086 0.68947 0.0
O240 O 0.49993 0.07169 0.63953 0.0
O241 O 0.51385 0.04144 0.51319 0.0
O242 O 0.47455 0.99096 0.69145 0.0
O243 O 0.49764 1.00437 0.43623 0.0
C244 C 0.5677 0.02379 0.67061 0.0
C245 C 0.56535 0.12199 0.78854 0.0
C246 C 0.60814 0.13113 0.8843 0.0
C247 C 0.58451 0.11413 0.86226 0.0
C248 C 0.61156 0.15685 0.83403 0.0
C249 C 0.56891 0.14759 0.73872 0.0
C250 C 0.59186 0.16508 0.76214 0.0
C251 C 0.52873 0.98423 0.80884 0.0
C252 C 0.54209 0.10333 0.76003 0.0
C253 C 0.46032 0.05747 0.11285 0.0
C254 C 0.48502 0.0461 0.15438 0.0
C255 C 0.4706 1.0155 0.73158 0.0
C256 C 0.44816 1.00575 0.41293 0.0
C257 C 0.44451 0.03522 0.424 0.0
C258 C 0.41903 0.04787 0.39588 0.0
C259 C 0.39724 0.03087 0.35515 0.0
C260 C 0.42627 0.98908 0.373 0.0
C261 C 0.40083 1.00164 0.34451 0.0
C262 C 0.50599 0.06712 0.54407 0.0
C263 C 0.47366 0.99157 0.44876 0.0
H264 H 0.58107 0.09453 0.90131 0.0
H265 H 0.62979 0.17023 0.8481 0.0
H266 H 0.5541 0.15388 0.68122 0.0
H267 H 0.59468 0.18476 0.72314 0.0
H268 H 0.46098 0.04821 0.45555 0.0
H269 H 0.3775 0.04029 0.3306 0.0
H270 H 0.42875 0.9663 0.36507 0.0
H271 H 0.38391 0.98873 0.3138 0.0
Tb272 Tb 0.54791 0.52149 0.60191 0.0
C273 C 0.44144 0.51517 0.74644 0.0
C274 C 0.41527 0.55486 0.68047 0.0
C275 C 0.39266 0.50894 0.68947 0.0
C276 C 0.44058 0.5432 0.71943 0.0
C277 C 0.41718 0.49788 0.73369 0.0
C278 C 0.39158 0.53748 0.66417 0.0
C279 C 0.44083 0.46171 0.8265 0.0
N280 N 0.46519 0.50545 0.79207 0.0
C281 C 0.46386 0.47989 0.83993 0.0
C282 C 0.41765 0.47044 0.77068 0.0
Tb283 Tb 0.50341 0.53654 0.80111 0.0
N284 N 0.46393 0.55941 0.73624 0.0
C285 C 0.46178 0.58824 0.72578 0.0
C286 C 0.41417 0.58383 0.66189 0.0
C287 C 0.43741 0.60064 0.686 0.0
H288 H 0.47988 0.47324 0.89202 0.0
H289 H 0.43633 0.62335 0.67652 0.0
H290 H 0.37198 0.54609 0.63518 0.0
H291 H 0.44063 0.44129 0.86205 0.0
H292 H 0.47813 0.60248 0.75117 0.0
H293 H 0.61624 0.4366 0.73507 0.0
H294 H 0.39511 0.59359 0.63277 0.0
H295 H 0.5712 0.58252 0.49536 0.0
H296 H 0.5747 0.45609 0.65406 0.0
H297 H 0.6108 0.6149 0.51572 0.0
H298 H 0.37397 0.49594 0.67876 0.0
H299 H 0.65665 0.46742 0.77914 0.0
H300 H 0.67927 0.51518 0.771 0.0
H301 H 0.39953 0.45654 0.76213 0.0
H302 H 0.67738 0.56426 0.71418 0.0
N303 N 0.58788 0.49954 0.66754 0.0
C304 C 0.59057 0.47081 0.67993 0.0
C305 C 0.63765 0.47659 0.74735 0.0
C306 C 0.63635 0.50525 0.72411 0.0
C307 C 0.61486 0.45918 0.72311 0.0
C308 C 0.61108 0.5161 0.68212 0.0
H309 H 0.652 0.60167 0.61904 0.0
N310 N 0.58633 0.55238 0.60186 0.0
C311 C 0.61066 0.59524 0.5562 0.0
C312 C 0.61013 0.54357 0.64933 0.0
C313 C 0.58755 0.57691 0.54789 0.0
C314 C 0.63389 0.58765 0.61397 0.0
C315 C 0.63437 0.56106 0.65791 0.0
O316 O 0.56552 0.52556 0.45765 0.0
O317 O 0.50323 0.51798 0.6489 0.0
O318 O 0.51922 0.49397 0.82942 0.0
O319 O 0.53306 0.48056 0.66946 0.0
O320 O 0.51164 0.53532 0.5126 0.0
O321 O 0.55009 0.48553 0.507 0.0
O322 O 0.48756 0.52998 0.94667 0.0
O323 O 0.54796 0.54045 0.75294 0.0
O324 O 0.5328 0.56519 0.5785 0.0
O325 O 0.51989 0.57734 0.74044 0.0
O326 O 0.54039 0.52402 0.89052 0.0
O327 O 0.49745 0.57174 0.89742 0.0
C328 C 0.49118 0.52775 0.57012 0.0
C329 C 0.54513 0.49562 0.33446 0.0
C330 C 0.50848 0.47247 0.23315 0.0
C331 C 0.5196 0.48055 0.32722 0.0
C332 C 0.52185 0.48239 0.14613 0.0
C333 C 0.55815 0.5051 0.24693 0.0
C334 C 0.5463 0.49892 0.15341 0.0
C335 C 0.52694 0.47425 0.76402 0.0
C336 C 0.55958 0.49971 0.43154 0.0
C337 C 0.65878 0.551 0.70575 0.0
C338 C 0.65983 0.52307 0.73829 0.0
C339 C 0.56056 0.53153 0.83175 0.0
C340 C 0.50884 0.56083 0.06406 0.0
C341 C 0.53572 0.57335 0.05681 0.0
C342 C 0.55109 0.58126 0.14299 0.0
C343 C 0.54032 0.57319 0.23695 0.0
C344 C 0.49838 0.55343 0.15809 0.0
C345 C 0.51426 0.55928 0.24401 0.0
C346 C 0.52577 0.58458 0.64672 0.0
C347 C 0.49145 0.55618 0.9738 0.0
H348 H 0.50921 0.47376 0.39501 0.0
H349 H 0.51437 0.47634 0.07223 0.0
H350 H 0.5775 0.51728 0.25118 0.0
H351 H 0.55658 0.50625 0.08624 0.0
H352 H 0.544 0.57819 0.98354 0.0
H353 H 0.55109 0.57878 0.3059 0.0
H354 H 0.47803 0.54312 0.16492 0.0
H355 H 0.50602 0.55361 0.31661 0.0
Tb356 Tb 0.03468 0.54337 0.57823 0.0
C357 C 0.05674 0.43911 0.73189 0.0
C358 C 0.02417 0.40555 0.65615 0.0
C359 C 0.07329 0.39195 0.68102 0.0
C360 C 0.03017 0.43297 0.69476 0.0
C361 C 0.07812 0.41795 0.73066 0.0
C362 C 0.04621 0.38567 0.6443 0.0
C363 C 0.10325 0.44532 0.85499 0.0
N364 N 0.05981 0.4637 0.78526 0.0
C365 C 0.08065 0.46461 0.85766 0.0
C366 C 0.10248 0.42233 0.78818 0.0
Tb367 Tb 0.02291 0.4968 0.76854 0.0
N368 N 1.00934 0.4527 0.70802 0.0
C369 C 0.98155 0.44437 0.70099 0.0
C370 C 0.99596 0.39835 0.63672 0.0
C371 C 0.97448 0.41759 0.66216 0.0
H372 H 0.08093 0.48159 0.913 0.0
H373 H 0.95244 0.41164 0.65385 0.0
H374 H 0.04214 0.36481 0.61227 0.0
H375 H 0.12095 0.44792 0.9056 0.0
H376 H 0.9645 0.45785 0.72783 0.0
H377 H 0.11232 0.61041 0.77927 0.0
H378 H 0.99046 0.37752 0.60751 0.0
H379 H 0.97541 0.5637 0.45566 0.0
H380 H 0.08327 0.56887 0.76111 0.0
H381 H 0.95425 0.60751 0.3969 0.0
H382 H 0.08966 0.37575 0.67755 0.0
H383 H 0.10075 0.65341 0.68572 0.0
H384 H 0.06543 0.67931 0.58338 0.0
H385 H 0.11951 0.40681 0.78851 0.0
H386 H 0.02042 0.67939 0.49127 0.0
N387 N 0.0583 0.58393 0.63863 0.0
C388 C 0.0793 0.58548 0.70999 0.0
C389 C 0.08863 0.63424 0.67253 0.0
C390 C 0.0645 0.63429 0.61231 0.0
C391 C 0.09534 0.61 0.7248 0.0
C392 C 0.04954 0.6086 0.59674 0.0
H393 H 0.97807 0.65318 0.42782 0.0
N394 N 1.01015 0.58388 0.53231 0.0
C395 C 0.97372 0.60828 0.43965 0.0
C396 C 0.02411 0.60877 0.54554 0.0
C397 C 0.98574 0.58341 0.47557 0.0
C398 C 0.98736 0.63395 0.45641 0.0
C399 C 1.01316 0.6344 0.50759 0.0
O400 O 0.01708 0.53109 0.43882 0.0
O401 O 0.02359 0.49897 0.60794 0.0
O402 O 0.06857 0.50943 0.77242 0.0
O403 O 0.07903 0.53323 0.62705 0.0
O404 O 0.05926 0.50528 0.52824 0.0
O405 O 0.05189 0.56053 0.4477 0.0
O406 O 0.0172 0.46812 0.88394 0.0
O407 O 0.01892 0.54225 0.73264 0.0
O408 O 0.98806 0.54473 0.61318 0.0
O409 O 0.98188 0.50163 0.68453 0.0
O410 O 0.03805 0.53254 0.86251 0.0
O411 O 0.99109 0.50522 0.87677 0.0
C412 C 0.04213 0.48571 0.55549 0.0
C413 C 0.04644 0.53564 0.29502 0.0
C414 C 0.07854 0.50334 0.20615 0.0
C415 C 0.06403 0.51172 0.29339 0.0
C416 C 0.07358 0.51803 0.11746 0.0
C417 C 0.04232 0.55061 0.20673 0.0
C418 C 0.05564 0.54161 0.11809 0.0
C419 C 0.08737 0.5201 0.7097 0.0
C420 C 0.03437 0.54704 0.38879 0.0
C421 C 0.02841 0.65965 0.52055 0.0
C422 C 0.05414 0.65955 0.57216 0.0
C423 C 0.02952 0.55409 0.8117 0.0
C424 C 1.00211 0.48735 0.03772 0.0
C425 C 0.98469 0.50674 0.08779 0.0
C426 C 0.98262 0.50693 0.1919 0.0
C427 C 0.99881 0.48801 0.24748 0.0
C428 C 0.01927 0.46895 0.0936 0.0
C429 C 0.01771 0.4695 0.19823 0.0
C430 C 0.97109 0.52354 0.63624 0.0
C431 C 0.99828 0.48344 0.92931 0.0
H432 H 0.06757 0.49995 0.35991 0.0
H433 H 0.08483 0.51249 0.04926 0.0
H434 H 0.02941 0.56962 0.20725 0.0
H435 H 0.05328 0.55365 0.05079 0.0
H436 H 0.97011 0.51972 0.04531 0.0
H437 H 0.99616 0.48717 0.32767 0.0
H438 H 0.033 0.45347 0.05683 0.0
H439 H 0.03053 0.45499 0.2407 0.0
H440 H 0.2247 0.04876 0.35276 0.0
H441 H 0.19221 0.02471 0.0607 0.0
H442 H 0.14476 0.01634 0.13679 0.0
H443 H 0.18326 0.99974 0.50386 0.0
H444 H 0.17895 0.02572 0.60362 0.0
H445 H 0.2096 0.0269 0.52341 0.0
H446 H 0.19639 0.07927 0.48661 0.0
H447 H 0.165 0.07685 0.56333 0.0
H448 H 0.16205 0.08718 0.43455 0.0
H449 H 0.09931 1.0121 0.24894 0.0
H450 H 0.0624 1.01084 0.37985 0.0
H451 H 0.12358 0.03992 0.6005 0.0
C452 C 0.20766 0.04158 0.30462 0.0
C453 C 0.21262 0.03728 0.19981 0.0
C454 C 0.18947 0.0277 0.1407 0.0
C455 C 0.16225 0.02314 0.1837 0.0
C456 C 0.15806 0.02819 0.28679 0.0
C457 C 0.18032 0.03715 0.34638 0.0
C458 C 0.17028 0.04189 0.45456 0.0
C459 C 0.18648 0.02236 0.5255 0.0
C460 C 0.17364 0.07316 0.48664 0.0
C461 C 0.13892 0.03381 0.44786 0.0
C462 C 0.13228 0.02611 0.35013 0.0
C463 C 0.10459 0.01809 0.32525 0.0
C464 C 0.08348 0.01765 0.40093 0.0
C465 C 0.08944 0.02529 0.50234 0.0
C466 C 0.11788 0.03359 0.52496 0.0
H467 H 0.48873 0.22839 0.34729 0.0
H468 H 0.51113 0.19664 0.05095 0.0
H469 H 0.5164 0.14829 0.11825 0.0
H470 H 0.53496 0.18273 0.49028 0.0
H471 H 0.50952 0.17779 0.58938 0.0
H472 H 0.50888 0.20985 0.51837 0.0
H473 H 0.45606 0.20078 0.47416 0.0
H474 H 0.45681 0.16863 0.54477 0.0
H475 H 0.4462 0.16758 0.41522 0.0
H476 H 0.51849 0.10244 0.21969 0.0
H477 H 0.51829 0.06434 0.34354 0.0
H478 H 0.49204 0.12469 0.57472 0.0
C479 C 0.49463 0.21128 0.29624 0.0
C480 C 0.49953 0.21669 0.19286 0.0
C481 C 0.50768 0.19346 0.13004 0.0
C482 C 0.51046 0.16576 0.16781 0.0
C483 C 0.50494 0.16117 0.26931 0.0
C484 C 0.49722 0.18337 0.33273 0.0
C485 C 0.49198 0.17265 0.43849 0.0
C486 C 0.51256 0.18659 0.51355 0.0
C487 C 0.46092 0.17772 0.47001 0.0
C488 C 0.49824 0.14102 0.42533 0.0
C489 C 0.50561 0.13487 0.32692 0.0
C490 C 0.5126 0.10721 0.29658 0.0
C491 C 0.51227 0.08551 0.36787 0.0
C492 C 0.5048 0.09098 0.46955 0.0
C493 C 0.49762 0.11939 0.49791 0.0
H494 H 0.34874 0.54936 0.22996 0.0
H495 H 0.3441 0.45787 0.2064 0.0
H496 H 0.38686 0.45374 0.31174 0.0
H497 H 0.42937 0.5467 0.20966 0.0
H498 H 0.43471 0.57761 0.28883 0.0
H499 H 0.40342 0.57478 0.21172 0.0
H500 H 0.3714 0.58225 0.36272 0.0
H501 H 0.40142 0.58508 0.44531 0.0
H502 H 0.37405 0.55925 0.46783 0.0
H503 H 0.4269 0.4595 0.44347 0.0
H504 H 0.46744 0.47438 0.55039 0.0
H505 H 0.45291 0.56153 0.46816 0.0
C506 C 0.35718 0.52847 0.24425 0.0
C507 C 0.34209 0.50384 0.2107 0.0
C508 C 0.3545 0.47708 0.23204 0.0
C509 C 0.37888 0.4745 0.29275 0.0
C510 C 0.39222 0.49894 0.32933 0.0
C511 C 0.3827 0.52545 0.30144 0.0
C512 C 0.40275 0.54813 0.34418 0.0
C513 C 0.41852 0.5627 0.2586 0.0
C514 C 0.38646 0.56996 0.40906 0.0
C515 C 0.42343 0.53047 0.40674 0.0
C516 C 0.41687 0.50207 0.39722 0.0
C517 C 0.43229 0.48172 0.45022 0.0
C518 C 0.45525 0.49037 0.51215 0.0
C519 C 0.4633 0.51921 0.52072 0.0
C520 C 0.4471 0.53935 0.4656 0.0
H521 H 0.08649 0.34468 0.22311 0.0
H522 H 0.99762 0.3212 0.21463 0.0
H523 H 0.98551 0.36619 0.30323 0.0
H524 H 0.08265 0.36869 0.4791 0.0
H525 H 0.10774 0.39728 0.46902 0.0
H526 H 0.11097 0.36618 0.38914 0.0
H527 H 0.10875 0.39434 0.22937 0.0
H528 H 0.10766 0.4263 0.30508 0.0
H529 H 0.08038 0.41957 0.21232 0.0
H530 H 0.98342 0.41645 0.39764 0.0
H531 H 0.99159 0.46088 0.49503 0.0
H532 H 0.08234 0.44816 0.46691 0.0
C533 C 0.06442 0.34816 0.24101 0.0
C534 C 0.04322 0.3281 0.20948 0.0
C535 C 1.01461 0.33567 0.2333 0.0
C536 C 1.00748 0.36135 0.28584 0.0
C537 C 0.02905 0.37976 0.31859 0.0
C538 C 0.05703 0.37302 0.29815 0.0
C539 C 0.07655 0.39504 0.34775 0.0
C540 C 0.09561 0.38101 0.42599 0.0
C541 C 0.09443 0.4097 0.26868 0.0
C542 C 0.05543 0.41589 0.39717 0.0
C543 C 0.02801 0.40678 0.3787 0.0
C544 C 1.00491 0.42315 0.41332 0.0
C545 C 1.00978 0.4486 0.46947 0.0
C546 C 0.03759 0.45828 0.49259 0.0
C547 C 0.06069 0.44155 0.45328 0.0
H548 H 0.81794 0.98528 0.05827 0.0
H549 H 0.84588 0.02141 0.34117 0.0
H550 H 0.89542 0.02214 0.27677 0.0
H551 H 0.88121 0.94919 0.86965 0.0
H552 H 0.84892 0.94841 0.94233 0.0
H553 H 0.88265 0.94209 1.00164 0.0
H554 H 0.83638 0.99888 0.88377 0.0
H555 H 0.86875 0.99992 0.81179 0.0
H556 H 0.86134 0.02723 0.90457 0.0
H557 H 0.94168 0.02413 0.17185 0.0
H558 H 0.9803 0.02272 0.04675 0.0
H559 H 0.92302 0.98621 0.82738 0.0
C560 C 0.83459 0.99274 0.10762 0.0
C561 C 0.82768 1.00297 0.20622 0.0
C562 C 0.85034 1.01283 0.26702 0.0
C563 C 0.87861 1.01365 0.2301 0.0
C564 C 0.88437 1.00453 0.13141 0.0
C565 C 0.86295 0.99388 0.07142 0.0
C566 C 0.87447 0.98656 0.96662 0.0
C567 C 0.87164 0.95466 0.94372 0.0
C568 C 0.85933 1.00419 0.88698 0.0
C569 C 0.90567 0.99501 0.97605 0.0
C570 C 0.91089 1.0053 0.07193 0.0
C571 C 0.93776 1.01544 0.09764 0.0
C572 C 0.95982 1.01449 0.02546 0.0
C573 C 0.95553 1.00371 0.92679 0.0
C574 C 0.92763 0.99412 0.90218 0.0
H575 H 0.54928 0.82432 0.01371 0.0
H576 H 0.53292 0.85746 0.31313 0.0
H577 H 0.52603 0.90535 0.24413 0.0
H578 H 0.59166 0.88504 0.93844 0.0
H579 H 0.57975 0.88326 0.81036 0.0
H580 H 0.58152 0.85149 0.88284 0.0
H581 H 0.52772 0.84136 0.85072 0.0
H582 H 0.52801 0.87183 0.77267 0.0
H583 H 0.50238 0.8696 0.87285 0.0
H584 H 0.52096 0.95073 0.13862 0.0
H585 H 0.51858 0.98787 0.01185 0.0
H586 H 0.54399 0.92669 0.78225 0.0
C587 C 0.54468 0.84159 0.06556 0.0
C588 C 0.54181 0.83656 0.17011 0.0
C589 C 0.53489 0.86016 0.23327 0.0
C590 C 0.5312 0.88768 0.19444 0.0
C591 C 0.53491 0.89183 0.09164 0.0
C592 C 0.54176 0.86936 0.02833 0.0
C593 C 0.54572 0.8795 0.92133 0.0
C594 C 0.57649 0.87452 0.88619 0.0
C595 C 0.52464 0.86472 0.85031 0.0
C596 C 0.53923 0.91115 0.93307 0.0
C597 C 0.53309 0.91781 0.03216 0.0
C598 C 0.52601 0.94557 0.06127 0.0
C599 C 0.52498 0.96681 0.98817 0.0
C600 C 0.53136 0.96091 0.88578 0.0
C601 C 0.53878 0.93239 0.85894 0.0
H602 H 0.70242 0.51227 0.17681 0.0
H603 H 0.71727 0.602 0.14285 0.0
H604 H 0.67385 0.60588 0.04033 0.0
H605 H 0.67533 0.49646 0.93741 0.0
H606 H 0.64684 0.47345 0.97452 0.0
H607 H 0.67801 0.47703 0.05147 0.0
H608 H 0.64783 0.49122 0.20242 0.0
H609 H 0.61561 0.48841 0.1303 0.0
H610 H 0.62409 0.5211 0.19603 0.0
H611 H 0.63005 0.59928 0.92496 0.0
H612 H 0.58721 0.58396 0.83061 0.0
H613 H 0.59717 0.49948 0.94655 0.0
C614 C 0.69616 0.53285 0.14994 0.0
C615 C 0.71379 0.55693 0.1689 0.0
C616 C 0.70451 0.58325 0.13019 0.0
C617 C 0.6798 0.58563 0.07089 0.0
C618 C 0.66353 0.56153 0.05045 0.0
C619 C 0.67093 0.53574 0.09109 0.0
C620 C 0.64897 0.51339 0.05996 0.0
C621 C 0.66312 0.48862 1.00233 0.0
C622 C 0.63315 0.50286 0.15263 0.0
C623 C 0.62898 0.53025 0.99231 0.0
C624 C 0.63781 0.55805 0.98775 0.0
C625 C 0.62307 0.57751 0.9286 0.0
C626 C 0.59875 0.56858 0.87404 0.0
C627 C 0.58885 0.54029 0.878 0.0
C628 C 0.60427 0.52114 0.93971 0.0
H629 H 0.02095 0.72074 0.02329 0.0
H630 H 0.99576 0.68514 0.30555 0.0
H631 H 0.99585 0.63708 0.22745 0.0
H632 H 0.98193 0.67277 0.8589 0.0
H633 H 1.00934 0.66884 0.76515 0.0
H634 H 1.00715 0.70085 0.84084 0.0
H635 H 0.0591 0.69419 0.90133 0.0
H636 H 0.06112 0.66351 0.82001 0.0
H637 H 0.06972 0.66044 0.95067 0.0
H638 H 0.99316 0.5929 0.11239 0.0
H639 H 1.00151 0.55447 0.98903 0.0
H640 H 0.03289 0.61551 0.7792 0.0
C641 C 1.01615 0.70275 0.06925 0.0
C642 C 1.00846 0.70716 0.17252 0.0
C643 C 1.00189 0.68265 0.22779 0.0
C644 C 1.0016 0.65517 0.18325 0.0
C645 C 1.0084 0.65161 0.08164 0.0
C646 C 1.01639 0.6746 0.02572 0.0
C647 C 0.02425 0.66416 0.91906 0.0
C648 C 1.00449 0.67747 0.84138 0.0
C649 C 0.05543 0.67096 0.89654 0.0
C650 C 0.01946 0.63188 0.92389 0.0
C651 C 1.00953 0.6255 0.01802 0.0
C652 C 1.00194 0.59773 0.03991 0.0
C653 C 1.00639 0.5758 0.96765 0.0
C654 C 0.01865 0.58056 0.87202 0.0
C655 C 0.02428 0.60976 0.84994 0.0
H656 H 0.06338 0.1948 0.18511 0.0
H657 H 0.06083 0.26888 0.38459 0.0
H658 H 0.04895 0.23974 0.52209 0.0
H659 H 1.00132 0.17352 0.24857 0.0
H660 H 1.00642 0.1356 0.24957 0.0
H661 H 0.02913 0.15688 0.17446 0.0
H662 H 0.07345 0.13736 0.26012 0.0
H663 H 0.05145 0.11518 0.33639 0.0
H664 H 0.07638 0.13906 0.39462 0.0
H665 H 0.02296 0.2092 0.6263 0.0
H666 H 0.98543 0.17795 0.68794 0.0
H667 H 0.99458 0.1249 0.42039 0.0
C668 C 0.0609 0.20497 0.2574 0.0
C669 C 0.06398 0.23463 0.27057 0.0
C670 C 0.0606 0.24636 0.36932 0.0
C671 C 0.05334 0.2298 0.44995 0.0
C672 C 0.04808 0.20139 0.4323 0.0
C673 C 0.0518 0.1888 0.33862 0.0
C674 C 0.03827 0.15967 0.33514 0.0
C675 C 0.01751 0.15629 0.24681 0.0
C676 C 0.06126 0.13644 0.33134 0.0
C677 C 0.02309 0.16011 0.43557 0.0
C678 C 0.03059 0.18354 0.49266 0.0
C679 C 0.01735 0.19035 0.58357 0.0
C680 C 0.99563 0.17287 0.61701 0.0
C681 C 0.98687 0.14932 0.55831 0.0
C682 C 1.00117 0.14261 0.46741 0.0
H683 H 0.28917 0.08248 0.3216 0.0
H684 H 0.32128 0.09908 0.02575 0.0
H685 H 0.36515 0.11826 0.10026 0.0
H686 H 0.33504 0.14882 0.44749 0.0
H687 H 0.33683 0.12843 0.55996 0.0
H688 H 0.30449 0.12923 0.48793 0.0
H689 H 0.30456 0.07491 0.47908 0.0
H690 H 0.33645 0.07379 0.54944 0.0
H691 H 0.33498 0.05619 0.42813 0.0
H692 H 0.40905 0.11937 0.19837 0.0
H693 H 0.44395 0.09029 0.28776 0.0
H694 H 0.38362 0.07573 0.52116 0.0
C695 C 0.30452 0.09214 0.27294 0.0
C696 C 0.30191 0.08896 0.16826 0.0
C697 C 0.32309 0.1004 0.10618 0.0
C698 C 0.34775 0.11222 0.14832 0.0
C699 C 0.35032 0.11372 0.25275 0.0
C700 C 0.32855 0.10479 0.31441 0.0
C701 C 0.33819 0.10272 0.42192 0.0
C702 C 0.32805 0.12886 0.48284 0.0
C703 C 0.32805 0.07522 0.4721 0.0
C704 C 0.36999 0.10399 0.40601 0.0
C705 C 0.37642 0.11392 0.31096 0.0
C706 C 0.40396 0.11167 0.27205 0.0
C707 C 0.42363 0.09479 0.32238 0.0
C708 C 0.41447 0.07878 0.40397 0.0
C709 C 0.38998 0.08748 0.45624 0.0
H710 H 0.48023 0.31465 0.2903 0.0
H711 H 0.43825 0.31746 1.00454 0.0
H712 H 0.42929 0.36887 0.02954 0.0
H713 H 0.43906 0.37905 0.41836 0.0
H714 H 0.47155 0.38952 0.47936 0.0
H715 H 0.46381 0.35245 0.45933 0.0
H716 H 0.51199 0.34575 0.36699 0.0
H717 H 0.51971 0.38241 0.38698 0.0
H718 H 0.51993 0.36767 0.26143 0.0
H719 H 0.44035 0.42005 0.05689 0.0
H720 H 0.46651 0.46442 0.08969 0.0
H721 H 0.50242 0.42776 0.35679 0.0
C722 C 0.4675 0.326 0.23679 0.0
C723 C 0.45969 0.3126 0.14637 0.0
C724 C 0.44411 0.32769 0.07467 0.0
C725 C 0.43905 0.35684 0.0884 0.0
C726 C 0.44954 0.37026 0.17468 0.0
C727 C 0.46277 0.35506 0.24934 0.0
C728 C 0.4772 0.37446 0.32457 0.0
C729 C 0.46198 0.37383 0.42641 0.0
C730 C 0.50905 0.36714 0.33534 0.0
C731 C 0.47272 0.40262 0.27498 0.0
C732 C 0.45586 0.4001 0.19073 0.0
C733 C 0.45278 0.42246 0.12453 0.0
C734 C 0.46803 0.44752 0.14311 0.0
C735 C 0.48664 0.44978 0.2261 0.0
C736 C 0.48776 0.4274 0.29466 0.0
H737 H 0.2321 0.49969 0.31789 0.0
H738 H 0.24221 0.45371 0.0379 0.0
H739 H 0.19302 0.43615 0.05108 0.0
H740 H 0.17609 0.44211 0.42526 0.0
H741 H 0.15805 0.47029 0.49245 0.0
H742 H 0.19628 0.47029 0.48323 0.0
H743 H 0.19556 0.52018 0.40986 0.0
H744 H 0.15788 0.52117 0.42078 0.0
H745 H 0.17429 0.52714 0.30096 0.0
H746 H 0.14149 0.43753 0.06559 0.0
H747 H 0.09439 0.46086 0.07299 0.0
H748 H 0.11747 0.5018 0.35331 0.0
C749 C 0.22439 0.48429 0.2636 0.0
C750 C 0.24062 0.4776 0.17804 0.0
C751 C 0.22984 0.45875 0.10437 0.0
C752 C 0.20216 0.44835 0.11227 0.0
C753 C 0.18605 0.45613 0.19636 0.0
C754 C 0.19719 0.473 0.27277 0.0
C755 C 0.17441 0.48247 0.34605 0.0
C756 C 0.17634 0.46527 0.44241 0.0
C757 C 0.17559 0.51461 0.37031 0.0
C758 C 0.14841 0.47393 0.28691 0.0
C759 C 0.15537 0.45667 0.2053 0.0
C760 C 0.13562 0.45039 0.13033 0.0
C761 C 0.10914 0.46409 0.13391 0.0
C762 C 0.10253 0.4832 0.21321 0.0
C763 C 0.12175 0.48669 0.29319 0.0
H764 H 0.9455 0.77971 0.11561 0.0
H765 H 0.95319 0.80864 0.42143 0.0
H766 H 0.94053 0.85695 0.37141 0.0
H767 H 0.97279 0.81405 0.99239 0.0
H768 H 0.95075 0.82551 0.8903 0.0
H769 H 0.9415 0.79438 0.95552 0.0
H770 H 0.89194 0.81525 0.99424 0.0
H771 H 0.90137 0.8468 0.9278 0.0
H772 H 0.88846 0.84956 0.05468 0.0
H773 H 0.96342 0.8939 0.28286 0.0
H774 H 0.99722 0.91741 0.1737 0.0
H775 H 0.96437 0.87122 0.91822 0.0
C776 C 0.9418 0.79574 0.17297 0.0
C777 C 0.95252 0.7916 0.27 0.0
C778 C 0.94725 0.81236 0.34473 0.0
C779 C 0.93936 0.8397 0.31704 0.0
C780 C 0.93465 0.84484 0.21563 0.0
C781 C 0.93256 0.82275 0.14583 0.0
C782 C 0.9324 0.83396 0.0401 0.0
C783 C 0.95053 0.81594 0.96558 0.0
C784 C 0.90173 0.83657 1.00206 0.0
C785 C 0.94456 0.86307 0.06052 0.0
C786 C 0.94402 0.8697 0.1625 0.0
C787 C 0.96181 0.89056 0.20283 0.0
C788 C 0.98131 0.90374 0.1402 0.0
C789 C 0.9827 0.8964 0.03771 0.0
C790 C 0.96284 0.87743 0.99648 0.0
H791 H 0.70965 0.0161 0.12352 0.0
H792 H 0.75347 0.08526 0.27153 0.0
H793 H 0.71697 0.11909 0.21284 0.0
H794 H 0.69615 0.05391 0.90599 0.0
H795 H 0.66225 0.03782 0.88026 0.0
H796 H 0.68877 0.01866 0.9484 0.0
H797 H 0.65338 1.01207 0.09631 0.0
H798 H 0.62688 0.03055 0.02549 0.0
H799 H 0.63572 0.04271 0.15042 0.0
H800 H 0.67735 0.14517 0.1306 0.0
H801 H 0.63963 0.16265 0.01916 0.0
H802 H 0.62603 0.07652 0.90863 0.0
C803 C 0.71084 0.03829 0.14525 0.0
C804 C 0.73323 0.04835 0.20466 0.0
C805 C 0.73552 0.0775 0.22881 0.0
C806 C 0.71505 0.09668 0.19579 0.0
C807 C 0.69302 0.08619 0.1368 0.0
C808 C 0.69101 0.05773 0.11059 0.0
C809 C 0.66757 0.05246 0.03595 0.0
C810 C 0.6794 0.03999 0.93681 0.0
C811 C 0.64452 0.03333 0.0798 0.0
C812 C 0.65691 0.0824 0.02375 0.0
C813 C 0.67146 0.10149 0.08375 0.0
C814 C 0.66571 0.13046 0.08324 0.0
C815 C 0.64449 0.1402 0.01903 0.0
C816 C 0.62977 0.121 0.95528 0.0
C817 C 0.63623 0.09176 0.95814 0.0
H818 H 0.56613 0.7359 0.06362 0.0
H819 H 0.60076 0.73669 0.36186 0.0
H820 H 0.61829 0.68756 0.33572 0.0
H821 H 0.53408 0.6782 0.07257 0.0
H822 H 0.54014 0.66426 0.94756 0.0
H823 H 0.54247 0.70143 0.97125 0.0
H824 H 0.59326 0.70118 0.89756 0.0
H825 H 0.59104 0.66342 0.87526 0.0
H826 H 0.61996 0.67795 0.94757 0.0
H827 H 0.62036 0.63621 0.29636 0.0
H828 H 0.5971 0.59017 0.27025 0.0
H829 H 0.5576 0.62209 1.00161 0.0
C830 C 0.57895 0.72604 0.12041 0.0
C831 C 0.58268 0.73982 0.21357 0.0
C832 C 0.59823 0.72636 0.28938 0.0
C833 C 0.6085 0.69861 0.27444 0.0
C834 C 0.60316 0.68471 0.18301 0.0
C835 C 0.58874 0.69819 0.10676 0.0
C836 C 0.57908 0.67721 0.02696 0.0
C837 C 0.54708 0.68043 1.0037 0.0
C838 C 0.59692 0.68012 0.93121 0.0
C839 C 0.58611 0.64968 0.07806 0.0
C840 C 0.6023 0.65428 0.16308 0.0
C841 C 0.60803 0.6324 0.22924 0.0
C842 C 0.59429 0.6063 0.21458 0.0
C843 C 0.57438 0.60265 0.13612 0.0
C844 C 0.5725 0.62378 0.06259 0.0
H845 H 0.81914 0.51562 0.16535 0.0
H846 H 0.8248 0.60607 0.21376 0.0
H847 H 0.87748 0.6028 0.21086 0.0
H848 H 0.87214 0.49266 0.32386 0.0
H849 H 0.88247 0.46485 0.23886 0.0
H850 H 0.84687 0.47862 0.23426 0.0
H851 H 0.85958 0.48621 0.0404 0.0
H852 H 0.89587 0.47562 0.06127 0.0
H853 H 0.8882 0.50983 1.0102 0.0
H854 H 0.9293 0.58771 0.23022 0.0
H855 H 0.97554 0.56266 0.24644 0.0
H856 H 0.93307 0.48213 0.20886 0.0
C857 C 0.83176 0.53471 0.17052 0.0
C858 C 0.81864 0.56105 0.18859 0.0
C859 C 0.83502 0.58589 0.19772 0.0
C860 C 0.86475 0.5841 0.19709 0.0
C861 C 0.87723 0.55729 0.18774 0.0
C862 C 0.86118 0.53309 0.17231 0.0
C863 C 0.87928 0.50664 0.17116 0.0
C864 C 0.86942 0.48446 0.24643 0.0
C865 C 0.88083 0.49384 0.06443 0.0
C866 C 0.9072 0.51938 0.20171 0.0
C867 C 0.9062 0.54863 0.20579 0.0
C868 C 0.93026 0.56479 0.22736 0.0
C869 C 0.95618 0.55053 0.23959 0.0
C870 C 0.9573 0.52064 0.23249 0.0
C871 C 0.93231 0.50498 0.21928 0.0
H872 H 0.07789 0.21808 0.99377 0.0
H873 H 0.99231 0.22753 0.10819 0.0
H874 H 0.97936 0.18159 0.02663 0.0
H875 H 0.05816 0.18376 0.75016 0.0
H876 H 0.08861 0.16051 0.74793 0.0
H877 H 0.09058 0.19463 0.81054 0.0
H878 H 0.1067 0.17021 0.96999 0.0
H879 H 0.10345 0.13542 0.91317 0.0
H880 H 0.08433 0.14427 0.02692 0.0
H881 H 0.97641 0.13131 0.93689 0.0
H882 H 0.98268 0.086 0.84276 0.0
H883 H 0.06994 0.10802 0.77976 0.0
C884 C 0.05624 0.21075 1.00015 0.0
C885 C 0.03607 0.22719 0.058 0.0
C886 C 1.00815 0.21612 0.06433 0.0
C887 C 1.00067 0.18969 0.01821 0.0
C888 C 0.02113 0.17379 0.96411 0.0
C889 C 0.04834 0.18423 0.95378 0.0
C890 C 0.06643 0.16289 0.89215 0.0
C891 C 0.07656 0.17624 0.79439 0.0
C892 C 0.09174 0.15255 0.95417 0.0
C893 C 0.04548 0.13862 0.87026 0.0
C894 C 0.01943 0.14536 0.9129 0.0
C895 C 0.99682 0.12622 0.90359 0.0
C896 C 1.00061 0.10014 0.84965 0.0
C897 C 0.02689 0.09244 0.80366 0.0
C898 C 0.04956 0.11252 0.81433 0.0
H899 H 0.33261 0.01592 0.10828 0.0
H900 H 0.28868 0.06646 0.8905 0.0
H901 H 0.33107 0.06439 0.7798 0.0
H902 H 0.39911 0.04364 0.08466 0.0
H903 H 0.42023 1.01145 0.08805 0.0
H904 H 0.38573 1.01313 0.14643 0.0
H905 H 0.36748 0.97085 0.04627 0.0
H906 H 0.40201 0.96686 0.98895 0.0
H907 H 0.37086 0.9701 0.9118 0.0
H908 H 0.38062 0.05919 0.69525 0.0
H909 H 0.43004 0.0486 0.6408 0.0
H910 H 0.44279 0.99952 0.9076 0.0
C911 C 0.3317 0.02594 0.03617 0.0
C912 C 0.30687 0.0414 1.00845 0.0
C913 C 0.30704 0.05435 0.91346 0.0
C914 C 0.33127 0.0534 0.85017 0.0
C915 C 0.35559 0.03869 0.88039 0.0
C916 C 0.35567 0.02447 0.97003 0.0
C917 C 0.38452 1.00986 0.98378 0.0
C918 C 0.39837 0.02015 0.08144 0.0
C919 C 0.381 0.9775 0.98264 0.0
C920 C 0.40119 0.0193 0.89123 0.0
C921 C 0.38387 0.03565 0.83182 0.0
C922 C 0.39421 0.04643 0.74166 0.0
C923 C 0.42256 0.04043 0.71125 0.0
C924 C 0.4411 0.02395 0.77055 0.0
C925 C 0.42972 1.01286 0.86124 0.0
H926 H 0.48205 0.31285 0.8969 0.0
H927 H 0.54138 0.31873 0.14281 0.0
H928 H 0.55712 0.36564 0.08365 0.0
H929 H 0.52566 0.349 0.70802 0.0
H930 H 0.49604 0.36762 0.6544 0.0
H931 H 0.49066 0.33371 0.71118 0.0
H932 H 0.45248 0.35577 0.83201 0.0
H933 H 0.45741 0.38897 0.76997 0.0
H934 H 0.46143 0.38729 0.90362 0.0
H935 H 0.56365 0.41412 1.00572 0.0
H936 H 0.56151 0.45908 0.91454 0.0
H937 H 0.49832 0.42341 0.71442 0.0
C938 C 0.49887 0.32376 0.93665 0.0
C939 C 0.51108 0.31151 0.02354 0.0
C940 C 0.5324 0.32703 0.07478 0.0
C941 C 0.54123 0.35391 0.04197 0.0
C942 C 0.52859 0.3655 0.95713 0.0
C943 C 0.50789 0.35087 0.90472 0.0
C944 C 0.49691 0.36882 0.81832 0.0
C945 C 0.50266 0.35389 0.71696 0.0
C946 C 0.46516 0.37557 0.83179 0.0
C947 C 0.51468 0.39574 0.82994 0.0
C948 C 0.5327 0.39331 0.9111 0.0
C949 C 0.54997 0.41587 0.94115 0.0
C950 C 0.54871 0.44144 0.88834 0.0
C951 C 0.53057 0.44478 0.80472 0.0
C952 C 0.51334 0.42134 0.7751 0.0
H953 H 0.21834 0.53072 0.10737 0.0
H954 H 0.27477 0.49773 0.87703 0.0
H955 H 0.2354 0.50015 0.75351 0.0
H956 H 0.15815 0.49225 0.03082 0.0
H957 H 0.13352 0.52006 0.06693 0.0
H958 H 0.16741 0.51774 0.12749 0.0
H959 H 0.17634 0.56987 0.07496 0.0
H960 H 0.14285 0.57069 1.00995 0.0
H961 H 0.17526 0.57834 0.94394 0.0
H962 H 0.18605 0.50433 0.65343 0.0
H963 H 0.13575 0.50746 0.59775 0.0
H964 H 0.11077 0.53369 0.89731 0.0
C965 C 0.22272 0.52468 0.03027 0.0
C966 C 0.25038 0.51445 1.00292 0.0
C967 C 0.25445 0.50632 0.90083 0.0
C968 C 0.23186 0.50743 0.82986 0.0
C969 C 0.20474 0.51693 0.8602 0.0
C970 C 0.20036 0.52572 0.95841 0.0
C971 C 0.16905 0.53337 0.9748 0.0
C972 C 0.15621 0.51475 0.05519 0.0
C973 C 0.16568 0.56495 1.00258 0.0
C974 C 0.15596 0.52663 0.87234 0.0
C975 C 0.17697 0.51785 0.80592 0.0
C976 C 0.16977 0.51104 0.70619 0.0
C977 C 0.1409 0.51287 0.67465 0.0
C978 C 0.11869 0.52054 0.74225 0.0
C979 C 0.12682 0.52751 0.84286 0.0
H980 H 1.00166 0.80214 0.48528 0.0
H981 H 0.02216 0.82385 0.18069 0.0
H982 H 0.03085 0.87365 0.23644 0.0
H983 H 0.9628 0.86811 0.54219 0.0
H984 H 0.97405 0.86991 0.67092 0.0
H985 H 0.97121 0.83601 0.60717 0.0
H986 H 0.02393 0.82489 0.64958 0.0
H987 H 0.02571 0.85854 0.71478 0.0
H988 H 0.05095 0.85008 0.61682 0.0
H989 H 0.03712 0.92349 0.33073 0.0
H990 H 0.04116 0.9647 0.44771 0.0
H991 H 1.01298 0.91268 0.69127 0.0
C992 C 1.00843 0.81728 0.43039 0.0
C993 C 1.01167 0.80828 0.32761 0.0
C994 C 0.02004 0.82942 0.25936 0.0
C995 C 0.02468 0.85811 0.29078 0.0
C996 C 0.02047 0.86637 0.39162 0.0
C997 C 1.01244 0.84637 0.46038 0.0
C998 C 1.00833 0.86082 0.56378 0.0
C999 C 0.97725 0.85855 0.59804 0.0
C1000 C 0.02846 0.8478 0.64076 0.0
C1001 C 1.01603 0.89186 0.54406 0.0
C1002 C 0.02282 0.89467 0.44384 0.0
C1003 C 0.03136 0.92118 0.40862 0.0
C1004 C 0.03331 0.94488 0.47606 0.0
C1005 C 0.02591 0.94314 0.57907 0.0
C1006 C 0.01753 0.91568 0.61271 0.0
H1007 H 0.7167 0.9755 0.38417 0.0
H1008 H 0.74275 0.06262 0.42745 0.0
H1009 H 0.69685 0.07385 0.50892 0.0
H1010 H 0.64465 0.98237 0.34646 0.0
H1011 H 0.63335 0.95415 0.42775 0.0
H1012 H 0.6683 0.9535 0.37418 0.0
H1013 H 0.68886 0.94964 0.55228 0.0
H1014 H 0.65353 0.95106 0.60468 0.0
H1015 H 0.67988 0.97623 0.64593 0.0
H1016 H 0.64519 0.07742 0.56342 0.0
H1017 H 0.59691 0.07161 0.62896 0.0
H1018 H 0.60415 0.98056 0.58545 0.0
C1019 C 0.71316 0.99668 0.41412 0.0
C1020 C 0.73356 0.01844 0.396 0.0
C1021 C 0.72759 0.04576 0.43719 0.0
C1022 C 0.70136 0.05235 0.48384 0.0
C1023 C 0.68119 0.03103 0.49539 0.0
C1024 C 0.68739 1.00336 0.46735 0.0
C1025 C 0.66245 0.98431 0.49713 0.0
C1026 C 0.65146 0.96764 0.40577 0.0
C1027 C 0.67174 0.9641 0.57991 0.0
C1028 C 0.64034 1.00589 0.53787 0.0
C1029 C 0.65197 0.03272 0.53572 0.0
C1030 C 0.63613 0.05643 0.56651 0.0
C1031 C 0.60824 0.05289 0.60305 0.0
C1032 C 0.59553 0.02578 0.61093 0.0
C1033 C 0.61235 1.0018 0.5782 0.0
H1034 H 0.5276 0.71347 0.2561 0.0
H1035 H 0.54658 0.77085 0.50277 0.0
H1036 H 0.5408 0.73141 0.62194 0.0
H1037 H 0.47465 0.66915 0.3911 0.0
H1038 H 0.48667 0.63704 0.32881 0.0
H1039 H 0.48917 0.67043 0.2662 0.0
H1040 H 0.54311 0.66243 0.23983 0.0
H1041 H 0.54016 0.62907 0.30118 0.0
H1042 H 0.56505 0.65507 0.34706 0.0
H1043 H 0.53644 0.68283 0.71433 0.0
H1044 H 0.53359 0.63267 0.76611 0.0
H1045 H 0.51852 0.60693 0.45776 0.0
C1046 C 0.52981 0.71788 0.3355 0.0
C1047 C 0.53726 0.74557 0.36989 0.0
C1048 C 0.54042 0.75013 0.47451 0.0
C1049 C 0.53731 0.72768 0.54275 0.0
C1050 C 0.53063 0.70047 0.50619 0.0
C1051 C 0.5265 0.69572 0.40476 0.0
C1052 C 0.52092 0.66441 0.38343 0.0
C1053 C 0.49107 0.66001 0.3398 0.0
C1054 C 0.54371 0.65202 0.31348 0.0
C1055 C 0.52333 0.65194 0.48743 0.0
C1056 C 0.52858 0.67308 0.55796 0.0
C1057 C 0.53216 0.66635 0.659 0.0
C1058 C 0.5305 0.63763 0.68804 0.0
C1059 C 0.52585 0.61545 0.61666 0.0
C1060 C 0.52214 0.6231 0.51489 0.0
H1061 H 0.82107 0.58476 0.41016 0.0
H1062 H 0.79318 0.49787 0.379 0.0
H1063 H 0.83612 0.48208 0.46992 0.0
H1064 H 0.89461 0.57827 0.37985 0.0
H1065 H 0.90399 0.60244 0.47905 0.0
H1066 H 0.86992 0.60559 0.4191 0.0
H1067 H 0.84745 0.60214 0.59715 0.0
H1068 H 0.88209 0.5971 0.65149 0.0
H1069 H 0.85462 0.57134 0.67082 0.0
H1070 H 0.88775 0.47485 0.5363 0.0
H1071 H 0.93709 0.47733 0.59685 0.0
H1072 H 0.93302 0.56903 0.59302 0.0
C1073 C 0.82366 0.56243 0.42472 0.0
C1074 C 0.803 0.54261 0.38703 0.0
C1075 C 0.80774 0.51365 0.40818 0.0
C1076 C 0.83251 0.50448 0.45921 0.0
C1077 C 0.85313 0.5243 0.48958 0.0
C1078 C 0.84844 0.55289 0.47636 0.0
C1079 C 0.87353 0.56983 0.52056 0.0
C1080 C 0.8862 0.59029 0.445 0.0
C1081 C 0.86385 0.58607 0.61563 0.0
C1082 C 0.89476 0.54633 0.54735 0.0
C1083 C 0.88208 0.52021 0.53193 0.0
C1084 C 0.89737 0.49532 0.55024 0.0
C1085 C 0.92575 0.49696 0.58547 0.0
C1086 C 0.93975 0.52328 0.60216 0.0
C1087 C 0.92355 0.54837 0.58196 0.0
loop_
_geom_bond_atom_site_label_1
_geom_bond_atom_site_label_2
_geom_bond_distance
_geom_bond_site_symmetry_2
_ccdc_geom_bond_type
C0 N1 1.317 . S
C0 N2 1.348 . S
C0 C3 1.485 . S
N1 C0 1.317 . S
N1 N5 1.370 . S
N2 C0 1.348 . S
N2 C4 1.346 . S
C3 C0 1.485 . S
C3 H7 0.960 . S
C3 H8 0.961 . S
C3 H9 0.960 . S
C4 N2 1.346 . S
C4 N5 1.307 . S
C4 C6 1.486 . S
N5 N1 1.370 . S
N5 C4 1.307 . S
C6 C4 1.486 . S
C6 H10 0.960 . S
C6 H11 0.960 . S
C6 H12 0.959 . S
H7 C3 0.960 . S
H8 C3 0.961 . S
H9 C3 0.960 . S
H10 C6 0.960 . S
H11 C6 0.960 . S
H12 C6 0.959 . S
C13 N14 1.317 . S
C13 N15 1.348 . S
C13 C16 1.485 . S
N14 C13 1.317 . S
N14 N18 1.370 . S
N15 C13 1.348 . S
N15 C17 1.346 . S
C16 C13 1.485 . S
C16 H20 0.960 . S
C16 H21 0.961 . S
C16 H22 0.960 . S
C17 N15 1.346 . S
C17 N18 1.307 . S
C17 C19 1.486 . S
N18 N14 1.370 . S
N18 C17 1.307 . S
C19 C17 1.486 . S
C19 H23 0.960 . S
C19 H24 0.960 . S
C19 H25 0.959 . S
H20 C16 0.960 . S
H21 C16 0.961 . S
H22 C16 0.960 . S
H23 C19 0.960 . S
H24 C19 0.960 . S
H25 C19 0.959 . S
C26 N27 1.317 . S
C26 N28 1.348 . S
C26 C29 1.485 . S
N27 C26 1.317 . S
N27 N31 1.370 . S
N28 C26 1.348 . S
N28 C30 1.346 . S
C29 C26 1.485 . S
C29 H33 0.960 . S
C29 H34 0.961 . S
C29 H35 0.960 . S
C30 N28 1.346 . S
C30 N31 1.307 . S
C30 C32 1.486 . S
N31 N27 1.370 . S
N31 C30 1.307 . S
C32 C30 1.486 . S
C32 H36 0.960 . S
C32 H37 0.960 . S
C32 H38 0.959 . S
H33 C29 0.960 . S
H34 C29 0.961 . S
H35 C29 0.960 . S
H36 C32 0.960 . S
H37 C32 0.960 . S
H38 C32 0.959 . S
C39 N40 1.317 . S
C39 N41 1.348 . S
C39 C42 1.485 . S
N40 C39 1.317 . S
N40 N44 1.370 . S
N41 C39 1.348 . S
N41 C43 1.346 . S
C42 C39 1.485 . S
C42 H46 0.960 . S
C42 H47 0.961 . S
C42 H48 0.960 . S
C43 N41 1.346 . S
C43 N44 1.307 . S
C43 C45 1.486 . S
N44 N40 1.370 . S
N44 C43 1.307 . S
C45 C43 1.486 . S
C45 H49 0.960 . S
C45 H50 0.960 . S
C45 H51 0.959 . S
H46 C42 0.960 . S
H47 C42 0.961 . S
H48 C42 0.960 . S
H49 C45 0.960 . S
H50 C45 0.960 . S
H51 C45 0.959 . S
C52 N53 1.317 . S
C52 N54 1.348 1_556 S
C52 C55 1.485 . S
N53 C52 1.317 . S
N53 N57 1.370 1_556 S
N54 C52 1.348 1_554 S
N54 C56 1.346 . S
C55 C52 1.485 . S
C55 H59 0.960 . S
C55 H60 0.961 . S
C55 H61 0.960 . S
C56 N54 1.346 . S
C56 N57 1.307 . S
C56 C58 1.486 . S
N57 N53 1.370 1_554 S
N57 C56 1.307 . S
C58 C56 1.486 . S
C58 H62 0.960 . S
C58 H63 0.960 . S
C58 H64 0.959 . S
H59 C55 0.960 . S
H60 C55 0.961 . S
H61 C55 0.960 . S
H62 C58 0.960 . S
H63 C58 0.960 . S
H64 C58 0.959 . S
C65 N66 1.317 . S
C65 N67 1.348 1_556 S
C65 C68 1.485 . S
N66 C65 1.317 . S
N66 N70 1.370 1_556 S
N67 C65 1.348 1_554 S
N67 C69 1.346 . S
C68 C65 1.485 . S
C68 H72 0.960 . S
C68 H73 0.961 . S
C68 H74 0.960 . S
C69 N67 1.346 . S
C69 N70 1.307 . S
C69 C71 1.486 . S
N70 N66 1.370 1_554 S
N70 C69 1.307 . S
C71 C69 1.486 . S
C71 H75 0.960 . S
C71 H76 0.960 . S
C71 H77 0.959 . S
H72 C68 0.960 . S
H73 C68 0.961 . S
H74 C68 0.960 . S
H75 C71 0.960 . S
H76 C71 0.960 . S
H77 C71 0.959 . S
C78 N79 1.317 . S
C78 N80 1.348 1_556 S
C78 C81 1.485 . S
N79 C78 1.317 . S
N79 N83 1.370 1_556 S
N80 C78 1.348 1_554 S
N80 C82 1.346 . S
C81 C78 1.485 . S
C81 H85 0.960 . S
C81 H86 0.961 . S
C81 H87 0.960 . S
C82 N80 1.346 . S
C82 N83 1.307 . S
C82 C84 1.486 . S
N83 N79 1.370 1_554 S
N83 C82 1.307 . S
C84 C82 1.486 . S
C84 H88 0.960 . S
C84 H89 0.960 . S
C84 H90 0.959 . S
H85 C81 0.960 . S
H86 C81 0.961 . S
H87 C81 0.960 . S
H88 C84 0.960 . S
H89 C84 0.960 . S
H90 C84 0.959 . S
C91 N92 1.317 . S
C91 N93 1.348 1_556 S
C91 C94 1.485 . S
N92 C91 1.317 . S
N92 N96 1.370 1_556 S
N93 C91 1.348 1_554 S
N93 C95 1.346 . S
C94 C91 1.485 . S
C94 H98 0.960 . S
C94 H99 0.961 . S
C94 H100 0.960 . S
C95 N93 1.346 . S
C95 N96 1.307 . S
C95 C97 1.486 . S
N96 N92 1.370 1_554 S
N96 C95 1.307 . S
C97 C95 1.486 . S
C97 H101 0.960 . S
C97 H102 0.960 . S
C97 H103 0.959 . S
H98 C94 0.960 . S
H99 C94 0.961 . S
H100 C94 0.960 . S
H101 C97 0.960 . S
H102 C97 0.960 . S
H103 C97 0.959 . S
Tb104 N135 2.660 1_565 S
Tb104 N142 2.600 1_565 S
Tb104 O148 2.546 . S
Tb104 O149 2.610 1_455 S
Tb104 O151 2.320 1_455 S
Tb104 O152 2.552 . S
Tb104 O153 2.413 . S
Tb104 O155 2.362 1_565 S
Tb104 O156 2.421 . S
Tb104 C168 2.833 . S
C105 C108 1.432 1_545 S
C105 C109 1.414 1_545 S
C105 N112 1.359 . S
C106 C108 1.417 . S
C106 C110 1.432 . S
C106 C118 1.410 . S
C107 C109 1.444 . S
C107 C110 1.317 . S
C107 H130 0.929 . S
C108 C105 1.432 1_565 S
C108 C106 1.417 . S
C108 N116 1.360 . S
C109 C105 1.414 1_565 S
C109 C107 1.444 . S
C109 C114 1.385 1_565 S
C110 C106 1.432 . S
C110 C107 1.317 . S
C110 H122 0.930 . S
C111 C113 1.392 . S
C111 C114 1.370 . S
C111 H123 0.931 . S
N112 C105 1.359 . S
N112 C113 1.327 . S
N112 Tb115 2.600 . S
C113 C111 1.392 . S
C113 N112 1.327 . S
C113 H120 0.930 . S
C114 C109 1.385 1_545 S
C114 C111 1.370 . S
C114 H133 0.930 . S
Tb115 N112 2.600 . S
Tb115 N116 2.660 1_545 S
Tb115 O149 2.362 1_545 S
Tb115 O150 2.421 . S
Tb115 O154 2.546 . S
Tb115 O155 2.610 1_655 S
Tb115 O157 2.320 1_655 S
Tb115 O158 2.552 1_655 S
Tb115 O159 2.413 . S
Tb115 C179 2.833 . S
N116 C108 1.360 . S
N116 Tb115 2.660 1_565 S
N116 C117 1.305 1_655 S
C117 N116 1.305 1_455 S
C117 C119 1.407 . S
C117 H124 0.930 . S
C118 C106 1.410 . S
C118 C119 1.345 1_655 S
C118 H126 0.930 . S
C119 C117 1.407 . S
C119 C118 1.345 1_455 S
C119 H121 0.930 . S
H120 C113 0.930 . S
H121 C119 0.930 . S
H122 C110 0.930 . S
H123 C111 0.931 . S
H124 C117 0.930 . S
H125 C139 0.930 1_655 S
H126 C118 0.930 . S
H127 C145 0.930 . S
H128 C136 0.930 1_655 S
H129 C143 0.931 . S
H130 C107 0.929 . S
H131 C137 0.930 . S
H132 C170 0.930 . S
H133 C114 0.930 . S
H134 C169 0.929 . S
N135 Tb104 2.660 1_545 S
N135 C136 1.305 . S
N135 C140 1.360 . S
C136 H128 0.930 1_455 S
C136 N135 1.305 . S
C136 C139 1.407 1_556 S
C137 H131 0.930 . S
C137 C138 1.410 . S
C137 C139 1.345 . S
C138 C137 1.410 . S
C138 C140 1.417 1_554 S
C138 C170 1.432 . S
C139 H125 0.930 1_455 S
C139 C136 1.407 1_554 S
C139 C137 1.345 . S
C140 N135 1.360 . S
C140 C138 1.417 1_556 S
C140 C144 1.432 . S
H141 C146 0.930 . S
N142 Tb104 2.600 1_545 S
N142 C144 1.359 . S
N142 C145 1.327 1_545 S
C143 H129 0.931 . S
C143 C145 1.392 . S
C143 C146 1.370 1_565 S
C144 C140 1.432 . S
C144 N142 1.359 . S
C144 C147 1.414 . S
C145 H127 0.930 . S
C145 N142 1.327 1_565 S
C145 C143 1.392 . S
C146 H141 0.930 . S
C146 C143 1.370 1_545 S
C146 C147 1.385 . S
C147 C144 1.414 . S
C147 C146 1.385 . S
C147 C169 1.444 1_556 S
O148 Tb104 2.546 . S
O148 C168 1.251 . S
O149 Tb104 2.610 1_655 S
O149 Tb115 2.362 1_565 S
O149 C160 1.283 . S
O150 Tb115 2.421 . S
O150 C167 1.262 . S
O151 Tb104 2.320 1_655 S
O151 C167 1.260 1_565 S
O152 Tb104 2.552 . S
O152 C160 1.243 1_455 S
O153 Tb104 2.413 . S
O153 C168 1.256 . S
O154 Tb115 2.546 . S
O154 C179 1.251 . S
O155 Tb104 2.362 1_545 S
O155 Tb115 2.610 1_455 S
O155 C171 1.283 . S
O156 Tb104 2.421 . S
O156 C178 1.262 1_565 S
O157 Tb115 2.320 1_455 S
O157 C178 1.260 . S
O158 Tb115 2.552 1_455 S
O158 C171 1.243 . S
O159 Tb115 2.413 . S
O159 C179 1.256 . S
C160 O149 1.283 . S
C160 O152 1.243 1_655 S
C161 C163 1.382 1_556 S
C161 C165 1.393 . S
C161 C168 1.500 . S
C162 C163 1.400 . S
C162 C164 1.384 . S
C163 C161 1.382 1_554 S
C163 C162 1.400 . S
C163 H180 0.930 1_554 S
C164 C162 1.384 . S
C164 C166 1.392 . S
C164 H181 0.931 . S
C165 C161 1.393 . S
C165 C166 1.401 1_556 S
C165 H182 0.930 . S
C166 C164 1.392 . S
C166 C165 1.401 1_554 S
C166 H183 0.930 . S
C167 O150 1.262 . S
C167 O151 1.260 1_545 S
C168 Tb104 2.833 . S
C168 O148 1.251 . S
C168 O153 1.256 . S
C168 C161 1.500 . S
C169 H134 0.929 . S
C169 C147 1.444 1_554 S
C169 C170 1.317 . S
C170 H132 0.930 . S
C170 C138 1.432 . S
C170 C169 1.317 . S
C171 O155 1.283 . S
C171 O158 1.243 . S
C172 C173 1.382 . S
C172 C176 1.393 . S
C172 C179 1.500 . S
C173 C172 1.382 . S
C173 C174 1.400 . S
C173 H184 0.930 1_655 S
C174 C173 1.400 . S
C174 C175 1.384 . S
C175 C174 1.384 . S
C175 C177 1.392 . S
C175 H185 0.931 . S
C176 C172 1.393 . S
C176 C177 1.401 . S
C176 H186 0.930 . S
C177 C175 1.392 . S
C177 C176 1.401 . S
C177 H187 0.930 . S
C178 O156 1.262 1_545 S
C178 O157 1.260 . S
C179 Tb115 2.833 . S
C179 O154 1.251 . S
C179 O159 1.256 . S
C179 C172 1.500 . S
H180 C163 0.930 1_556 S
H181 C164 0.931 . S
H182 C165 0.930 . S
H183 C166 0.930 . S
H184 C173 0.930 1_455 S
H185 C175 0.931 . S
H186 C176 0.930 . S
H187 C177 0.930 . S
Tb188 N219 2.660 . S
Tb188 N226 2.600 . S
Tb188 O232 2.546 . S
Tb188 O233 2.610 1_545 S
Tb188 O235 2.320 1_545 S
Tb188 O236 2.552 . S
Tb188 O237 2.413 . S
Tb188 O239 2.362 . S
Tb188 O240 2.421 . S
Tb188 C252 2.833 . S
C189 C192 1.432 . S
C189 C193 1.414 . S
C189 N196 1.359 . S
C190 C192 1.417 . S
C190 C194 1.432 . S
C190 C202 1.410 . S
C191 C193 1.444 . S
C191 C194 1.317 . S
C191 H214 0.929 . S
C192 C189 1.432 . S
C192 C190 1.417 . S
C192 N200 1.360 . S
C193 C189 1.414 . S
C193 C191 1.444 . S
C193 C198 1.385 . S
C194 C190 1.432 . S
C194 C191 1.317 . S
C194 H206 0.930 . S
C195 C197 1.392 . S
C195 C198 1.370 . S
C195 H207 0.931 . S
N196 C189 1.359 . S
N196 C197 1.327 . S
N196 Tb199 2.600 . S
C197 C195 1.392 . S
C197 N196 1.327 . S
C197 H204 0.930 . S
C198 C193 1.385 . S
C198 C195 1.370 . S
C198 H217 0.930 . S
Tb199 N196 2.600 . S
Tb199 N200 2.660 . S
Tb199 O233 2.362 . S
Tb199 O234 2.421 . S
Tb199 O238 2.546 . S
Tb199 O239 2.610 1_565 S
Tb199 O241 2.320 1_565 S
Tb199 O242 2.552 1_565 S
Tb199 O243 2.413 . S
Tb199 C263 2.833 . S
N200 C192 1.360 . S
N200 Tb199 2.660 . S
N200 C201 1.305 1_565 S
C201 N200 1.305 1_545 S
C201 C203 1.407 . S
C201 H208 0.930 . S
C202 C190 1.410 . S
C202 C203 1.345 1_565 S
C202 H210 0.930 . S
C203 C201 1.407 . S
C203 C202 1.345 1_545 S
C203 H205 0.930 . S
H204 C197 0.930 . S
H205 C203 0.930 . S
H206 C194 0.930 . S
H207 C195 0.931 . S
H208 C201 0.930 . S
H209 C223 0.930 1_565 S
H210 C202 0.930 . S
H211 C229 0.930 . S
H212 C220 0.930 1_565 S
H213 C227 0.931 . S
H214 C191 0.929 . S
H215 C221 0.930 . S
H216 C254 0.930 . S
H217 C198 0.930 . S
H218 C253 0.929 . S
N219 Tb188 2.660 . S
N219 C220 1.305 . S
N219 C224 1.360 . S
C220 H212 0.930 1_545 S
C220 N219 1.305 . S
C220 C223 1.407 1_556 S
C221 H215 0.930 . S
C221 C222 1.410 . S
C221 C223 1.345 . S
C222 C221 1.410 . S
C222 C224 1.417 1_554 S
C222 C254 1.432 . S
C223 H209 0.930 1_545 S
C223 C220 1.407 1_554 S
C223 C221 1.345 . S
C224 N219 1.360 . S
C224 C222 1.417 1_556 S
C224 C228 1.432 . S
H225 C230 0.930 . S
N226 Tb188 2.600 . S
N226 C228 1.359 . S
N226 C229 1.327 . S
C227 H213 0.931 . S
C227 C229 1.392 . S
C227 C230 1.370 . S
C228 C224 1.432 . S
C228 N226 1.359 . S
C228 C231 1.414 . S
C229 H211 0.930 . S
C229 N226 1.327 . S
C229 C227 1.392 . S
C230 H225 0.930 . S
C230 C227 1.370 . S
C230 C231 1.385 . S
C231 C228 1.414 . S
C231 C230 1.385 . S
C231 C253 1.444 1_556 S
O232 Tb188 2.546 . S
O232 C252 1.251 . S
O233 Tb188 2.610 1_565 S
O233 Tb199 2.362 . S
O233 C244 1.284 . S
O234 Tb199 2.421 . S
O234 C251 1.262 . S
O235 Tb188 2.320 1_565 S
O235 C251 1.260 . S
O236 Tb188 2.552 . S
O236 C244 1.226 1_545 S
O237 Tb188 2.413 . S
O237 C252 1.256 . S
O238 Tb199 2.546 . S
O238 C263 1.251 . S
O239 Tb188 2.362 . S
O239 Tb199 2.610 1_545 S
O239 C255 1.283 . S
O240 Tb188 2.421 . S
O240 C262 1.262 . S
O241 Tb199 2.320 1_545 S
O241 C262 1.260 . S
O242 Tb199 2.552 1_545 S
O242 C255 1.243 . S
O243 Tb199 2.413 . S
O243 C263 1.256 . S
C244 O233 1.284 . S
C244 O236 1.226 1_565 S
C245 C247 1.382 1_556 S
C245 C249 1.393 . S
C245 C252 1.500 . S
C246 C247 1.400 . S
C246 C248 1.384 . S
C247 C245 1.382 1_554 S
C247 C246 1.400 . S
C247 H264 0.930 1_554 S
C248 C246 1.384 . S
C248 C250 1.392 . S
C248 H265 0.931 . S
C249 C245 1.393 . S
C249 C250 1.401 1_556 S
C249 H266 0.930 . S
C250 C248 1.392 . S
C250 C249 1.401 1_554 S
C250 H267 0.930 . S
C251 O234 1.262 . S
C251 O235 1.260 . S
C252 Tb188 2.833 . S
C252 O232 1.251 . S
C252 O237 1.256 . S
C252 C245 1.500 . S
C253 H218 0.929 . S
C253 C231 1.444 1_554 S
C253 C254 1.317 . S
C254 H216 0.930 . S
C254 C222 1.432 . S
C254 C253 1.317 . S
C255 O239 1.283 . S
C255 O242 1.243 . S
C256 C257 1.382 . S
C256 C260 1.393 . S
C256 C263 1.500 . S
C257 C256 1.382 . S
C257 C258 1.400 . S
C257 H268 0.930 1_565 S
C258 C257 1.400 . S
C258 C259 1.384 . S
C259 C258 1.384 . S
C259 C261 1.392 . S
C259 H269 0.931 . S
C260 C256 1.393 . S
C260 C261 1.401 . S
C260 H270 0.930 . S
C261 C259 1.392 . S
C261 C260 1.401 . S
C261 H271 0.930 . S
C262 O240 1.262 . S
C262 O241 1.260 . S
C263 Tb199 2.833 . S
C263 O238 1.251 . S
C263 O243 1.256 . S
C263 C256 1.500 . S
H264 C247 0.930 1_556 S
H265 C248 0.931 . S
H266 C249 0.930 . S
H267 C250 0.930 . S
H268 C257 0.930 1_545 S
H269 C259 0.931 . S
H270 C260 0.930 . S
H271 C261 0.930 . S
Tb272 N303 2.660 . S
Tb272 N310 2.600 . S
Tb272 O316 2.546 . S
Tb272 O317 2.610 . S
Tb272 O319 2.320 . S
Tb272 O320 2.552 . S
Tb272 O321 2.413 . S
Tb272 O323 2.362 . S
Tb272 O324 2.421 . S
Tb272 C336 2.833 . S
C273 C276 1.432 . S
C273 C277 1.414 . S
C273 N280 1.359 . S
C274 C276 1.417 . S
C274 C278 1.432 . S
C274 C286 1.410 . S
C275 C277 1.444 . S
C275 C278 1.317 . S
C275 H298 0.929 . S
C276 C273 1.432 . S
C276 C274 1.417 . S
C276 N284 1.360 . S
C277 C273 1.414 . S
C277 C275 1.444 . S
C277 C282 1.385 . S
C278 C274 1.432 . S
C278 C275 1.317 . S
C278 H290 0.930 . S
C279 C281 1.392 . S
C279 C282 1.370 . S
C279 H291 0.931 1_556 S
N280 C273 1.359 . S
N280 C281 1.327 . S
N280 Tb283 2.600 . S
C281 C279 1.392 . S
C281 N280 1.327 . S
C281 H288 0.930 . S
C282 C277 1.385 . S
C282 C279 1.370 . S
C282 H301 0.930 . S
Tb283 N280 2.600 . S
Tb283 N284 2.660 . S
Tb283 O317 2.362 . S
Tb283 O318 2.421 . S
Tb283 O322 2.546 . S
Tb283 O323 2.610 . S
Tb283 O325 2.320 . S
Tb283 O326 2.552 . S
Tb283 O327 2.413 . S
Tb283 C347 2.833 . S
N284 C276 1.360 . S
N284 Tb283 2.660 . S
N284 C285 1.305 . S
C285 N284 1.305 . S
C285 C287 1.407 . S
C285 H292 0.930 . S
C286 C274 1.410 . S
C286 C287 1.345 . S
C286 H294 0.930 . S
C287 C285 1.407 . S
C287 C286 1.345 . S
C287 H289 0.930 . S
H288 C281 0.930 . S
H289 C287 0.930 . S
H290 C278 0.930 . S
H291 C279 0.931 1_554 S
H292 C285 0.930 . S
H293 C307 0.930 . S
H294 C286 0.930 . S
H295 C313 0.930 . S
H296 C304 0.930 . S
H297 C311 0.931 . S
H298 C275 0.929 . S
H299 C305 0.930 . S
H300 C338 0.930 . S
H301 C282 0.930 . S
H302 C337 0.929 . S
N303 Tb272 2.660 . S
N303 C304 1.305 . S
N303 C308 1.360 . S
C304 H296 0.930 . S
C304 N303 1.305 . S
C304 C307 1.407 . S
C305 H299 0.930 . S
C305 C306 1.410 . S
C305 C307 1.345 . S
C306 C305 1.410 . S
C306 C308 1.417 . S
C306 C338 1.432 . S
C307 H293 0.930 . S
C307 C304 1.407 . S
C307 C305 1.345 . S
C308 N303 1.360 . S
C308 C306 1.417 . S
C308 C312 1.432 . S
H309 C314 0.930 . S
N310 Tb272 2.600 . S
N310 C312 1.359 . S
N310 C313 1.327 . S
C311 H297 0.931 . S
C311 C313 1.392 . S
C311 C314 1.370 . S
C312 C308 1.432 . S
C312 N310 1.359 . S
C312 C315 1.414 . S
C313 H295 0.930 . S
C313 N310 1.327 . S
C313 C311 1.392 . S
C314 H309 0.930 . S
C314 C311 1.370 . S
C314 C315 1.385 . S
C315 C312 1.414 . S
C315 C314 1.385 . S
C315 C337 1.444 . S
O316 Tb272 2.546 . S
O316 C336 1.251 . S
O317 Tb272 2.610 . S
O317 Tb283 2.362 . S
O317 C328 1.283 . S
O318 Tb283 2.421 . S
O318 C335 1.262 . S
O319 Tb272 2.320 . S
O319 C335 1.260 . S
O320 Tb272 2.552 . S
O320 C328 1.243 . S
O321 Tb272 2.413 . S
O321 C336 1.256 . S
O322 Tb283 2.546 . S
O322 C347 1.251 . S
O323 Tb272 2.362 . S
O323 Tb283 2.610 . S
O323 C339 1.283 . S
O324 Tb272 2.421 . S
O324 C346 1.262 . S
O325 Tb283 2.320 . S
O325 C346 1.260 . S
O326 Tb283 2.552 . S
O326 C339 1.243 . S
O327 Tb283 2.413 . S
O327 C347 1.256 . S
C328 O317 1.283 . S
C328 O320 1.243 . S
C329 C331 1.382 . S
C329 C333 1.393 . S
C329 C336 1.500 . S
C330 C331 1.400 . S
C330 C332 1.384 . S
C331 C329 1.382 . S
C331 C330 1.400 . S
C331 H348 0.930 . S
C332 C330 1.384 . S
C332 C334 1.392 . S
C332 H349 0.931 . S
C333 C329 1.393 . S
C333 C334 1.401 . S
C333 H350 0.930 . S
C334 C332 1.392 . S
C334 C333 1.401 . S
C334 H351 0.930 . S
C335 O318 1.262 . S
C335 O319 1.260 . S
C336 Tb272 2.833 . S
C336 O316 1.251 . S
C336 O321 1.256 . S
C336 C329 1.500 . S
C337 H302 0.929 . S
C337 C315 1.444 . S
C337 C338 1.317 . S
C338 H300 0.930 . S
C338 C306 1.432 . S
C338 C337 1.317 . S
C339 O323 1.283 . S
C339 O326 1.243 . S
C340 C341 1.382 . S
C340 C344 1.393 . S
C340 C347 1.500 1_554 S
C341 C340 1.382 . S
C341 C342 1.400 . S
C341 H352 0.930 1_554 S
C342 C341 1.400 . S
C342 C343 1.384 . S
C343 C342 1.384 . S
C343 C345 1.392 . S
C343 H353 0.931 . S
C344 C340 1.393 . S
C344 C345 1.401 . S
C344 H354 0.930 . S
C345 C343 1.392 . S
C345 C344 1.401 . S
C345 H355 0.930 . S
C346 O324 1.262 . S
C346 O325 1.260 . S
C347 Tb283 2.833 . S
C347 O322 1.251 . S
C347 O327 1.256 . S
C347 C340 1.500 1_556 S
H348 C331 0.930 . S
H349 C332 0.931 . S
H350 C333 0.930 . S
H351 C334 0.930 . S
H352 C341 0.930 1_556 S
H353 C343 0.931 . S
H354 C344 0.930 . S
H355 C345 0.930 . S
Tb356 N387 2.660 . S
Tb356 N394 2.600 . S
Tb356 O400 2.546 . S
Tb356 O401 2.610 . S
Tb356 O403 2.320 . S
Tb356 O404 2.552 . S
Tb356 O405 2.413 . S
Tb356 O407 2.362 . S
Tb356 O408 2.421 1_455 S
Tb356 C420 2.833 . S
C357 C360 1.432 . S
C357 C361 1.414 . S
C357 N364 1.359 . S
C358 C360 1.417 . S
C358 C362 1.432 . S
C358 C370 1.410 . S
C359 C361 1.444 . S
C359 C362 1.317 . S
C359 H382 0.929 . S
C360 C357 1.432 . S
C360 C358 1.417 . S
C360 N368 1.360 . S
C361 C357 1.414 . S
C361 C359 1.444 . S
C361 C366 1.385 1_655 S
C362 C358 1.432 . S
C362 C359 1.317 . S
C362 H374 0.930 . S
C363 C365 1.392 . S
C363 C366 1.370 . S
C363 H375 0.931 1_556 S
N364 C357 1.359 . S
N364 C365 1.327 1_655 S
N364 Tb367 2.600 . S
C365 C363 1.392 . S
C365 N364 1.327 1_455 S
C365 H372 0.930 . S
C366 C361 1.385 1_455 S
C366 C363 1.370 . S
C366 H385 0.930 . S
Tb367 N364 2.600 . S
Tb367 N368 2.660 . S
Tb367 O401 2.362 1_655 S
Tb367 O402 2.421 1_655 S
Tb367 O406 2.546 . S
Tb367 O407 2.610 1_655 S
Tb367 O409 2.320 . S
Tb367 O410 2.552 . S
Tb367 O411 2.413 . S
Tb367 C431 2.833 . S
N368 C360 1.360 . S
N368 Tb367 2.660 . S
N368 C369 1.305 . S
C369 N368 1.305 . S
C369 C371 1.407 . S
C369 H376 0.930 . S
C370 C358 1.410 . S
C370 C371 1.345 . S
C370 H378 0.930 . S
C371 C369 1.407 . S
C371 C370 1.345 . S
C371 H373 0.930 . S
H372 C365 0.930 . S
H373 C371 0.930 . S
H374 C362 0.930 . S
H375 C363 0.931 1_554 S
H376 C369 0.930 . S
H377 C391 0.930 . S
H378 C370 0.930 . S
H379 C397 0.930 . S
H380 C388 0.930 . S
H381 C395 0.931 . S
H382 C359 0.929 . S
H383 C389 0.930 . S
H384 C422 0.930 . S
H385 C366 0.930 . S
H386 C421 0.929 . S
N387 Tb356 2.660 . S
N387 C388 1.305 . S
N387 C392 1.360 . S
C388 H380 0.930 . S
C388 N387 1.305 . S
C388 C391 1.407 . S
C389 H383 0.930 . S
C389 C390 1.410 . S
C389 C391 1.345 . S
C390 C389 1.410 . S
C390 C392 1.417 . S
C390 C422 1.432 . S
C391 H377 0.930 . S
C391 C388 1.407 . S
C391 C389 1.345 . S
C392 N387 1.360 . S
C392 C390 1.417 . S
C392 C396 1.432 . S
H393 C398 0.930 . S
N394 Tb356 2.600 . S
N394 C396 1.359 . S
N394 C397 1.327 1_455 S
C395 H381 0.931 . S
C395 C397 1.392 . S
C395 C398 1.370 1_655 S
C396 C392 1.432 . S
C396 N394 1.359 . S
C396 C399 1.414 . S
C397 H379 0.930 . S
C397 N394 1.327 1_655 S
C397 C395 1.392 . S
C398 H393 0.930 . S
C398 C395 1.370 1_455 S
C398 C399 1.385 . S
C399 C396 1.414 . S
C399 C398 1.385 . S
C399 C421 1.444 . S
O400 Tb356 2.546 . S
O400 C420 1.251 . S
O401 Tb356 2.610 . S
O401 Tb367 2.362 1_455 S
O401 C412 1.283 . S
O402 Tb367 2.421 1_455 S
O402 C419 1.262 . S
O403 Tb356 2.320 . S
O403 C419 1.260 . S
O404 Tb356 2.552 . S
O404 C412 1.243 . S
O405 Tb356 2.413 . S
O405 C420 1.256 . S
O406 Tb367 2.546 . S
O406 C431 1.251 . S
O407 Tb356 2.362 . S
O407 Tb367 2.610 1_455 S
O407 C423 1.283 1_455 S
O408 Tb356 2.421 1_655 S
O408 C430 1.262 . S
O409 Tb367 2.320 . S
O409 C430 1.260 . S
O410 Tb367 2.552 . S
O410 C423 1.243 . S
O411 Tb367 2.413 . S
O411 C431 1.256 . S
C412 O401 1.283 . S
C412 O404 1.243 . S
C413 C415 1.382 . S
C413 C417 1.393 . S
C413 C420 1.500 . S
C414 C415 1.400 . S
C414 C416 1.384 . S
C415 C413 1.382 . S
C415 C414 1.400 . S
C415 H432 0.930 . S
C416 C414 1.384 . S
C416 C418 1.392 . S
C416 H433 0.931 . S
C417 C413 1.393 . S
C417 C418 1.401 . S
C417 H434 0.930 . S
C418 C416 1.392 . S
C418 C417 1.401 . S
C418 H435 0.930 . S
C419 O402 1.262 . S
C419 O403 1.260 . S
C420 Tb356 2.833 . S
C420 O400 1.251 . S
C420 O405 1.256 . S
C420 C413 1.500 . S
C421 H386 0.929 . S
C421 C399 1.444 . S
C421 C422 1.317 . S
C422 H384 0.930 . S
C422 C390 1.432 . S
C422 C421 1.317 . S
C423 O407 1.283 1_655 S
C423 O410 1.243 . S
C424 C425 1.382 . S
C424 C428 1.393 . S
C424 C431 1.500 1_554 S
C425 C424 1.382 . S
C425 C426 1.400 . S
C425 H436 0.930 1_554 S
C426 C425 1.400 . S
C426 C427 1.384 . S
C427 C426 1.384 . S
C427 C429 1.392 . S
C427 H437 0.931 . S
C428 C424 1.393 . S
C428 C429 1.401 . S
C428 H438 0.930 . S
C429 C427 1.392 . S
C429 C428 1.401 . S
C429 H439 0.930 . S
C430 O408 1.262 . S
C430 O409 1.260 . S
C431 Tb367 2.833 . S
C431 O406 1.251 . S
C431 O411 1.256 . S
C431 C424 1.500 1_556 S
H432 C415 0.930 . S
H433 C416 0.931 . S
H434 C417 0.930 . S
H435 C418 0.930 . S
H436 C425 0.930 1_556 S
H437 C427 0.931 . S
H438 C428 0.930 . S
H439 C429 0.930 . S
H440 C452 0.930 . S
H441 C454 0.930 . S
H442 C455 0.930 . S
H443 C459 0.959 . S
H444 C459 0.959 . S
H445 C459 0.961 . S
H446 C460 0.960 . S
H447 C460 0.961 . S
H448 C460 0.959 . S
H449 C463 0.929 . S
H450 C464 0.931 . S
H451 C466 0.930 . S
C452 H440 0.930 . S
C452 C453 1.399 . S
C452 C457 1.399 . S
C453 C452 1.399 . S
C453 C454 1.376 . S
C454 H441 0.930 . S
C454 C453 1.376 . S
C454 C455 1.388 . S
C455 H442 0.930 . S
C455 C454 1.388 . S
C455 C456 1.390 . S
C456 C455 1.390 . S
C456 C457 1.394 . S
C456 C462 1.465 . S
C457 C452 1.399 . S
C457 C456 1.394 . S
C457 C458 1.516 . S
C458 C457 1.516 . S
C458 C459 1.502 1_545 S
C458 C460 1.561 . S
C458 C461 1.526 . S
C459 H443 0.959 . S
C459 H444 0.959 . S
C459 H445 0.961 . S
C459 C458 1.502 1_565 S
C460 H446 0.960 . S
C460 H447 0.961 . S
C460 H448 0.959 . S
C460 C458 1.561 . S
C461 C458 1.526 . S
C461 C462 1.396 . S
C461 C466 1.390 . S
C462 C456 1.465 . S
C462 C461 1.396 . S
C462 C463 1.399 . S
C463 H449 0.929 . S
C463 C462 1.399 . S
C463 C464 1.385 . S
C464 H450 0.931 . S
C464 C463 1.385 . S
C464 C465 1.389 . S
C465 C464 1.389 . S
C465 C466 1.387 . S
C466 H451 0.930 . S
C466 C461 1.390 . S
C466 C465 1.387 . S
H467 C479 0.930 . S
H468 C481 0.930 . S
H469 C482 0.930 . S
H470 C486 0.959 . S
H471 C486 0.959 . S
H472 C486 0.961 . S
H473 C487 0.960 . S
H474 C487 0.961 . S
H475 C487 0.959 . S
H476 C490 0.929 . S
H477 C491 0.931 . S
H478 C493 0.930 . S
C479 H467 0.930 . S
C479 C480 1.399 . S
C479 C484 1.399 . S
C480 C479 1.399 . S
C480 C481 1.376 . S
C481 H468 0.930 . S
C481 C480 1.376 . S
C481 C482 1.388 . S
C482 H469 0.930 . S
C482 C481 1.388 . S
C482 C483 1.390 . S
C483 C482 1.390 . S
C483 C484 1.394 . S
C483 C489 1.465 . S
C484 C479 1.399 . S
C484 C483 1.394 . S
C484 C485 1.516 . S
C485 C484 1.516 . S
C485 C486 1.502 . S
C485 C487 1.561 . S
C485 C488 1.526 . S
C486 H470 0.959 . S
C486 H471 0.959 . S
C486 H472 0.961 . S
C486 C485 1.502 . S
C487 H473 0.960 . S
C487 H474 0.961 . S
C487 H475 0.959 . S
C487 C485 1.561 . S
C488 C485 1.526 . S
C488 C489 1.396 . S
C488 C493 1.390 . S
C489 C483 1.465 . S
C489 C488 1.396 . S
C489 C490 1.399 . S
C490 H476 0.929 . S
C490 C489 1.399 . S
C490 C491 1.385 . S
C491 H477 0.931 . S
C491 C490 1.385 . S
C491 C492 1.389 . S
C492 C491 1.389 . S
C492 C493 1.387 . S
C493 H478 0.930 . S
C493 C488 1.390 . S
C493 C492 1.387 . S
H494 C506 0.930 . S
H495 C508 0.930 . S
H496 C509 0.930 . S
H497 C513 0.959 . S
H498 C513 0.959 . S
H499 C513 0.961 . S
H500 C514 0.960 . S
H501 C514 0.961 . S
H502 C514 0.959 . S
H503 C517 0.929 . S
H504 C518 0.931 . S
H505 C520 0.930 . S
C506 H494 0.930 . S
C506 C507 1.399 . S
C506 C511 1.399 . S
C507 C506 1.399 . S
C507 C508 1.376 . S
C508 H495 0.930 . S
C508 C507 1.376 . S
C508 C509 1.388 . S
C509 H496 0.930 . S
C509 C508 1.388 . S
C509 C510 1.390 . S
C510 C509 1.390 . S
C510 C511 1.394 . S
C510 C516 1.465 . S
C511 C506 1.399 . S
C511 C510 1.394 . S
C511 C512 1.516 . S
C512 C511 1.516 . S
C512 C513 1.502 . S
C512 C514 1.561 . S
C512 C515 1.526 . S
C513 H497 0.959 . S
C513 H498 0.959 . S
C513 H499 0.961 . S
C513 C512 1.502 . S
C514 H500 0.960 . S
C514 H501 0.961 . S
C514 H502 0.959 . S
C514 C512 1.561 . S
C515 C512 1.526 . S
C515 C516 1.396 . S
C515 C520 1.390 . S
C516 C510 1.465 . S
C516 C515 1.396 . S
C516 C517 1.399 . S
C517 H503 0.929 . S
C517 C516 1.399 . S
C517 C518 1.385 . S
C518 H504 0.931 . S
C518 C517 1.385 . S
C518 C519 1.389 . S
C519 C518 1.389 . S
C519 C520 1.387 . S
C520 H505 0.930 . S
C520 C515 1.390 . S
C520 C519 1.387 . S
H521 C533 0.930 . S
H522 C535 0.930 . S
H523 C536 0.930 . S
H524 C540 0.959 . S
H525 C540 0.959 . S
H526 C540 0.961 . S
H527 C541 0.960 . S
H528 C541 0.961 . S
H529 C541 0.959 . S
H530 C544 0.929 1_655 S
H531 C545 0.931 1_655 S
H532 C547 0.930 . S
C533 H521 0.930 . S
C533 C534 1.399 . S
C533 C538 1.399 . S
C534 C533 1.399 . S
C534 C535 1.376 . S
C535 H522 0.930 . S
C535 C534 1.376 . S
C535 C536 1.388 . S
C536 H523 0.930 . S
C536 C535 1.388 . S
C536 C537 1.390 . S
C537 C536 1.390 . S
C537 C538 1.394 . S
C537 C543 1.465 . S
C538 C533 1.399 . S
C538 C537 1.394 . S
C538 C539 1.516 . S
C539 C538 1.516 . S
C539 C540 1.502 . S
C539 C541 1.561 . S
C539 C542 1.526 . S
C540 H524 0.959 . S
C540 H525 0.959 . S
C540 H526 0.961 . S
C540 C539 1.502 . S
C541 H527 0.960 . S
C541 H528 0.961 . S
C541 H529 0.959 . S
C541 C539 1.561 . S
C542 C539 1.526 . S
C542 C543 1.396 . S
C542 C547 1.390 . S
C543 C537 1.465 . S
C543 C542 1.396 . S
C543 C544 1.399 . S
C544 H530 0.929 1_455 S
C544 C543 1.399 . S
C544 C545 1.385 . S
C545 H531 0.931 1_455 S
C545 C544 1.385 . S
C545 C546 1.389 . S
C546 C545 1.389 . S
C546 C547 1.387 . S
C547 H532 0.930 . S
C547 C542 1.390 . S
C547 C546 1.387 . S
H548 C560 0.930 . S
H549 C562 0.930 1_545 S
H550 C563 0.930 . S
H551 C567 0.959 . S
H552 C567 0.959 . S
H553 C567 0.961 . S
H554 C568 0.960 . S
H555 C568 0.961 1_556 S
H556 C568 0.959 1_556 S
H557 C571 0.929 . S
H558 C572 0.931 . S
H559 C574 0.930 . S
C560 H548 0.930 . S
C560 C561 1.399 . S
C560 C565 1.399 . S
C561 C560 1.399 . S
C561 C562 1.376 . S
C562 H549 0.930 1_565 S
C562 C561 1.376 . S
C562 C563 1.388 1_565 S
C563 H550 0.930 . S
C563 C562 1.388 1_545 S
C563 C564 1.390 1_545 S
C564 C563 1.390 1_565 S
C564 C565 1.394 . S
C564 C570 1.465 . S
C565 C560 1.399 . S
C565 C564 1.394 . S
C565 C566 1.516 . S
C566 C565 1.516 . S
C566 C567 1.502 . S
C566 C568 1.561 . S
C566 C569 1.526 1_554 S
C567 H551 0.959 . S
C567 H552 0.959 . S
C567 H553 0.961 . S
C567 C566 1.502 . S
C568 H554 0.960 . S
C568 H555 0.961 1_554 S
C568 H556 0.959 1_554 S
C568 C566 1.561 . S
C569 C566 1.526 1_556 S
C569 C570 1.396 1_556 S
C569 C574 1.390 . S
C570 C564 1.465 . S
C570 C569 1.396 1_554 S
C570 C571 1.399 1_564 S
C571 H557 0.929 . S
C571 C570 1.399 1_546 S
C571 C572 1.385 . S
C572 H558 0.931 . S
C572 C571 1.385 . S
C572 C573 1.389 1_545 S
C573 C572 1.389 1_565 S
C573 C574 1.387 . S
C574 H559 0.930 . S
C574 C569 1.390 . S
C574 C573 1.387 . S
H575 C587 0.930 . S
H576 C589 0.930 . S
H577 C590 0.930 . S
H578 C594 0.959 . S
H579 C594 0.959 . S
H580 C594 0.961 . S
H581 C595 0.960 . S
H582 C595 0.961 1_556 S
H583 C595 0.959 . S
H584 C598 0.929 . S
H585 C599 0.931 . S
H586 C601 0.930 . S
C587 H575 0.930 . S
C587 C588 1.399 . S
C587 C592 1.399 . S
C588 C587 1.399 . S
C588 C589 1.376 . S
C589 H576 0.930 . S
C589 C588 1.376 . S
C589 C590 1.388 . S
C590 H577 0.930 . S
C590 C589 1.388 . S
C590 C591 1.390 . S
C591 C590 1.390 . S
C591 C592 1.394 . S
C591 C597 1.465 . S
C592 C587 1.399 . S
C592 C591 1.394 . S
C592 C593 1.516 . S
C593 C592 1.516 . S
C593 C594 1.502 1_554 S
C593 C595 1.561 . S
C593 C596 1.526 1_554 S
C594 H578 0.959 . S
C594 H579 0.959 . S
C594 H580 0.961 . S
C594 C593 1.502 1_556 S
C595 H581 0.960 . S
C595 H582 0.961 1_554 S
C595 H583 0.959 . S
C595 C593 1.561 . S
C596 C593 1.526 1_556 S
C596 C597 1.396 1_556 S
C596 C601 1.390 . S
C597 C591 1.465 . S
C597 C596 1.396 1_554 S
C597 C598 1.399 . S
C598 H584 0.929 . S
C598 C597 1.399 . S
C598 C599 1.385 1_554 S
C599 H585 0.931 . S
C599 C598 1.385 1_556 S
C599 C600 1.389 . S
C600 C599 1.389 . S
C600 C601 1.387 . S
C601 H586 0.930 . S
C601 C596 1.390 . S
C601 C600 1.387 . S
H602 C614 0.930 . S
H603 C616 0.930 . S
H604 C617 0.930 . S
H605 C621 0.959 . S
H606 C621 0.959 . S
H607 C621 0.961 1_554 S
H608 C622 0.960 . S
H609 C622 0.961 . S
H610 C622 0.959 . S
H611 C625 0.929 1_554 S
H612 C626 0.931 . S
H613 C628 0.930 . S
C614 H602 0.930 . S
C614 C615 1.399 . S
C614 C619 1.399 . S
C615 C614 1.399 . S
C615 C616 1.376 . S
C616 H603 0.930 . S
C616 C615 1.376 . S
C616 C617 1.388 . S
C617 H604 0.930 . S
C617 C616 1.388 . S
C617 C618 1.390 . S
C618 C617 1.390 . S
C618 C619 1.394 . S
C618 C624 1.465 . S
C619 C614 1.399 . S
C619 C618 1.394 . S
C619 C620 1.516 . S
C620 C619 1.516 . S
C620 C621 1.502 1_554 S
C620 C622 1.561 . S
C620 C623 1.526 1_554 S
C621 H605 0.959 . S
C621 H606 0.959 . S
C621 H607 0.961 1_556 S
C621 C620 1.502 1_556 S
C622 H608 0.960 . S
C622 H609 0.961 . S
C622 H610 0.959 . S
C622 C620 1.561 . S
C623 C620 1.526 1_556 S
C623 C624 1.396 1_556 S
C623 C628 1.390 . S
C624 C618 1.465 . S
C624 C623 1.396 1_554 S
C624 C625 1.399 1_554 S
C625 H611 0.929 1_556 S
C625 C624 1.399 1_556 S
C625 C626 1.385 . S
C626 H612 0.931 . S
C626 C625 1.385 . S
C626 C627 1.389 . S
C627 C626 1.389 . S
C627 C628 1.387 . S
C628 H613 0.930 . S
C628 C623 1.390 . S
C628 C627 1.387 . S
H629 C641 0.930 . S
H630 C643 0.930 . S
H631 C644 0.930 . S
H632 C648 0.959 . S
H633 C648 0.959 . S
H634 C648 0.961 . S
H635 C649 0.960 . S
H636 C649 0.961 1_556 S
H637 C649 0.959 . S
H638 C652 0.929 . S
H639 C653 0.931 . S
H640 C655 0.930 1_455 S
C641 H629 0.930 . S
C641 C642 1.399 . S
C641 C646 1.399 . S
C642 C641 1.399 . S
C642 C643 1.376 . S
C643 H630 0.930 . S
C643 C642 1.376 . S
C643 C644 1.388 . S
C644 H631 0.930 . S
C644 C643 1.388 . S
C644 C645 1.390 . S
C645 C644 1.390 . S
C645 C646 1.394 . S
C645 C651 1.465 . S
C646 C641 1.399 . S
C646 C645 1.394 . S
C646 C647 1.516 . S
C647 C646 1.516 . S
C647 C648 1.502 1_554 S
C647 C649 1.561 1_655 S
C647 C650 1.526 1_554 S
C648 H632 0.959 . S
C648 H633 0.959 . S
C648 H634 0.961 . S
C648 C647 1.502 1_556 S
C649 H635 0.960 . S
C649 H636 0.961 1_554 S
C649 H637 0.959 . S
C649 C647 1.561 1_455 S
C650 C647 1.526 1_556 S
C650 C651 1.396 1_556 S
C650 C655 1.390 . S
C651 C645 1.465 . S
C651 C650 1.396 1_554 S
C651 C652 1.399 . S
C652 H638 0.929 . S
C652 C651 1.399 . S
C652 C653 1.385 1_554 S
C653 H639 0.931 . S
C653 C652 1.385 1_556 S
C653 C654 1.389 . S
C654 C653 1.389 . S
C654 C655 1.387 . S
C655 H640 0.930 1_655 S
C655 C650 1.390 . S
C655 C654 1.387 . S
H656 C668 0.930 1_556 S
H657 C670 0.930 . S
H658 C671 0.930 . S
H659 C675 0.959 . S
H660 C675 0.959 1_556 S
H661 C675 0.961 1_556 S
H662 C676 0.960 . S
H663 C676 0.961 . S
H664 C676 0.959 . S
H665 C679 0.929 . S
H666 C680 0.916 1_655 S
H667 C682 0.930 . S
C668 H656 0.930 1_554 S
C668 C669 1.399 . S
C668 C673 1.399 . S
C669 C668 1.399 . S
C669 C670 1.376 . S
C670 H657 0.930 . S
C670 C669 1.376 . S
C670 C671 1.388 . S
C671 H658 0.930 . S
C671 C670 1.388 . S
C671 C672 1.390 . S
C672 C671 1.390 . S
C672 C673 1.394 . S
C672 C678 1.465 . S
C673 C668 1.399 . S
C673 C672 1.394 . S
C673 C674 1.516 . S
C674 C673 1.516 . S
C674 C675 1.502 . S
C674 C676 1.561 . S
C674 C677 1.526 . S
C675 H659 0.959 . S
C675 H660 0.959 1_554 S
C675 H661 0.961 1_554 S
C675 C674 1.502 . S
C676 H662 0.960 . S
C676 H663 0.961 . S
C676 H664 0.959 . S
C676 C674 1.561 . S
C677 C674 1.526 . S
C677 C678 1.396 . S
C677 C682 1.390 . S
C678 C672 1.465 . S
C678 C677 1.396 . S
C678 C679 1.399 . S
C679 H665 0.929 . S
C679 C678 1.399 . S
C679 C680 1.401 . S
C680 H666 0.916 1_455 S
C680 C679 1.401 . S
C680 C681 1.389 . S
C681 C680 1.389 . S
C681 C682 1.393 . S
C682 H667 0.930 . S
C682 C677 1.390 . S
C682 C681 1.393 . S
H683 C695 0.930 . S
H684 C697 0.930 1_556 S
H685 C698 0.930 . S
H686 C702 0.959 . S
H687 C702 0.959 1_565 S
H688 C702 0.963 . S
H689 C703 0.960 . S
H690 C703 0.961 . S
H691 C703 0.959 . S
H692 C706 0.929 . S
H693 C707 0.931 . S
H694 C709 0.930 . S
C695 H683 0.930 . S
C695 C696 1.399 . S
C695 C700 1.399 . S
C696 C695 1.399 . S
C696 C697 1.376 . S
C697 H684 0.930 1_554 S
C697 C696 1.376 . S
C697 C698 1.388 . S
C698 H685 0.930 . S
C698 C697 1.388 . S
C698 C699 1.390 . S
C699 C698 1.390 . S
C699 C700 1.394 . S
C699 C705 1.465 . S
C700 C695 1.399 . S
C700 C699 1.394 . S
C700 C701 1.516 . S
C701 C700 1.516 . S
C701 C702 1.502 . S
C701 C703 1.561 1_545 S
C701 C704 1.526 . S
C702 H686 0.959 . S
C702 H687 0.959 1_545 S
C702 H688 0.963 . S
C702 C701 1.502 . S
C703 H689 0.960 . S
C703 H690 0.961 . S
C703 H691 0.959 . S
C703 C701 1.561 1_565 S
C704 C701 1.526 . S
C704 C705 1.396 . S
C704 C709 1.390 1_545 S
C705 C699 1.465 . S
C705 C704 1.396 . S
C705 C706 1.399 . S
C706 H692 0.929 . S
C706 C705 1.399 . S
C706 C707 1.385 . S
C707 H693 0.931 . S
C707 C706 1.385 . S
C707 C708 1.389 . S
C708 C707 1.389 . S
C708 C709 1.387 1_545 S
C709 H694 0.930 . S
C709 C704 1.390 1_565 S
C709 C708 1.387 1_565 S
H710 C722 0.930 1_556 S
H711 C724 0.930 . S
H712 C725 0.930 . S
H713 C729 0.959 . S
H714 C729 0.959 . S
H715 C729 0.961 . S
H716 C730 0.960 . S
H717 C730 0.961 . S
H718 C730 0.959 . S
H719 C733 0.929 . S
H720 C734 0.931 . S
H721 C736 0.930 . S
C722 H710 0.930 1_554 S
C722 C723 1.399 . S
C722 C727 1.399 . S
C723 C722 1.399 . S
C723 C724 1.376 . S
C724 H711 0.930 . S
C724 C723 1.376 . S
C724 C725 1.388 . S
C725 H712 0.930 . S
C725 C724 1.388 . S
C725 C726 1.390 . S
C726 C725 1.390 . S
C726 C727 1.394 . S
C726 C732 1.465 . S
C727 C722 1.399 . S
C727 C726 1.394 . S
C727 C728 1.516 . S
C728 C727 1.516 . S
C728 C729 1.502 . S
C728 C730 1.561 1_554 S
C728 C731 1.526 . S
C729 H713 0.959 . S
C729 H714 0.959 . S
C729 H715 0.961 . S
C729 C728 1.502 . S
C730 H716 0.960 . S
C730 H717 0.961 . S
C730 H718 0.959 . S
C730 C728 1.561 1_556 S
C731 C728 1.526 . S
C731 C732 1.396 . S
C731 C736 1.390 . S
C732 C726 1.465 . S
C732 C731 1.396 . S
C732 C733 1.399 . S
C733 H719 0.929 . S
C733 C732 1.399 . S
C733 C734 1.385 . S
C734 H720 0.931 . S
C734 C733 1.385 . S
C734 C735 1.389 . S
C735 C734 1.389 . S
C735 C736 1.387 . S
C736 H721 0.930 . S
C736 C731 1.390 . S
C736 C735 1.387 . S
H737 C749 0.930 . S
H738 C751 0.930 . S
H739 C752 0.930 . S
H740 C756 0.959 . S
H741 C756 0.959 . S
H742 C756 0.961 . S
H743 C757 0.960 . S
H744 C757 0.961 . S
H745 C757 0.959 . S
H746 C760 0.929 . S
H747 C761 0.931 . S
H748 C763 0.930 . S
C749 H737 0.930 . S
C749 C750 1.399 . S
C749 C754 1.399 . S
C750 C749 1.399 . S
C750 C751 1.376 . S
C751 H738 0.930 . S
C751 C750 1.376 . S
C751 C752 1.388 . S
C752 H739 0.930 . S
C752 C751 1.388 . S
C752 C753 1.390 . S
C753 C752 1.390 . S
C753 C754 1.394 . S
C753 C759 1.465 . S
C754 C749 1.399 . S
C754 C753 1.394 . S
C754 C755 1.516 . S
C755 C754 1.516 . S
C755 C756 1.502 . S
C755 C757 1.561 . S
C755 C758 1.526 . S
C756 H740 0.959 . S
C756 H741 0.959 . S
C756 H742 0.961 . S
C756 C755 1.502 . S
C757 H743 0.960 . S
C757 H744 0.961 . S
C757 H745 0.959 . S
C757 C755 1.561 . S
C758 C755 1.526 . S
C758 C759 1.396 . S
C758 C763 1.390 . S
C759 C753 1.465 . S
C759 C758 1.396 . S
C759 C760 1.399 . S
C760 H746 0.929 . S
C760 C759 1.399 . S
C760 C761 1.385 . S
C761 H747 0.931 . S
C761 C760 1.385 . S
C761 C762 1.389 . S
C762 C761 1.389 . S
C762 C763 1.387 . S
C763 H748 0.930 . S
C763 C758 1.390 . S
C763 C762 1.387 . S
H764 C776 0.930 . S
H765 C778 0.930 . S
H766 C779 0.930 . S
H767 C783 0.959 . S
H768 C783 0.959 1_556 S
H769 C783 0.961 1_655 S
H770 C784 0.960 . S
H771 C784 0.961 1_556 S
H772 C784 0.959 . S
H773 C787 0.929 . S
H774 C788 0.931 . S
H775 C790 0.930 1_556 S
C776 H764 0.930 . S
C776 C777 1.399 . S
C776 C781 1.399 . S
C777 C776 1.399 . S
C777 C778 1.376 . S
C778 H765 0.930 . S
C778 C777 1.376 . S
C778 C779 1.388 . S
C779 H766 0.930 . S
C779 C778 1.388 . S
C779 C780 1.390 . S
C780 C779 1.390 . S
C780 C781 1.394 . S
C780 C786 1.465 . S
C781 C776 1.399 . S
C781 C780 1.394 . S
C781 C782 1.516 . S
C782 C781 1.516 . S
C782 C783 1.502 1_655 S
C782 C784 1.561 . S
C782 C785 1.526 . S
C783 H767 0.959 . S
C783 H768 0.959 1_554 S
C783 H769 0.961 1_455 S
C783 C782 1.502 1_455 S
C784 H770 0.960 . S
C784 H771 0.961 1_554 S
C784 H772 0.959 . S
C784 C782 1.561 . S
C785 C782 1.526 . S
C785 C786 1.396 . S
C785 C790 1.390 1_655 S
C786 C780 1.465 . S
C786 C785 1.396 . S
C786 C787 1.399 . S
C787 H773 0.929 . S
C787 C786 1.399 . S
C787 C788 1.385 1_655 S
C788 H774 0.931 . S
C788 C787 1.385 1_455 S
C788 C789 1.389 . S
C789 C788 1.389 . S
C789 C790 1.387 . S
C790 H775 0.930 1_554 S
C790 C785 1.390 1_455 S
C790 C789 1.387 . S
H791 C803 0.930 . S
H792 C805 0.930 . S
H793 C806 0.931 . S
H794 C810 0.959 1_556 S
H795 C810 0.959 1_556 S
H796 C810 0.961 . S
H797 C811 0.960 . S
H798 C811 0.961 . S
H799 C811 0.959 . S
H800 C814 0.929 . S
H801 C815 0.931 . S
H802 C817 0.930 1_556 S
C803 H791 0.930 . S
C803 C804 1.399 . S
C803 C808 1.399 . S
C804 C803 1.399 . S
C804 C805 1.376 . S
C805 H792 0.930 . S
C805 C804 1.376 . S
C805 C806 1.388 1_565 S
C806 H793 0.931 . S
C806 C805 1.388 1_545 S
C806 C807 1.390 1_545 S
C807 C806 1.390 1_565 S
C807 C808 1.394 . S
C807 C813 1.465 1_565 S
C808 C803 1.399 . S
C808 C807 1.394 . S
C808 C809 1.516 . S
C809 C808 1.516 . S
C809 C810 1.502 . S
C809 C811 1.561 . S
C809 C812 1.526 . S
C810 H794 0.959 1_554 S
C810 H795 0.959 1_554 S
C810 H796 0.961 . S
C810 C809 1.502 . S
C811 H797 0.960 . S
C811 H798 0.961 . S
C811 H799 0.959 . S
C811 C809 1.561 . S
C812 C809 1.526 . S
C812 C813 1.396 1_565 S
C812 C817 1.390 . S
C813 C807 1.465 1_545 S
C813 C812 1.396 1_545 S
C813 C814 1.399 . S
C814 H800 0.929 . S
C814 C813 1.399 . S
C814 C815 1.385 . S
C815 H801 0.931 . S
C815 C814 1.385 . S
C815 C816 1.389 . S
C816 C815 1.389 . S
C816 C817 1.387 1_545 S
C817 H802 0.930 1_554 S
C817 C812 1.390 . S
C817 C816 1.387 1_565 S
H818 C830 0.930 . S
H819 C832 0.930 . S
H820 C833 0.930 . S
H821 C837 0.959 . S
H822 C837 0.959 . S
H823 C837 0.961 . S
H824 C838 0.960 . S
H825 C838 0.961 . S
H826 C838 0.959 . S
H827 C841 0.929 1_556 S
H828 C842 0.931 1_556 S
H829 C844 0.930 . S
C830 H818 0.930 . S
C830 C831 1.399 . S
C830 C835 1.399 . S
C831 C830 1.399 . S
C831 C832 1.376 . S
C832 H819 0.930 . S
C832 C831 1.376 . S
C832 C833 1.388 . S
C833 H820 0.930 . S
C833 C832 1.388 . S
C833 C834 1.390 . S
C834 C833 1.390 . S
C834 C835 1.394 . S
C834 C840 1.465 . S
C835 C830 1.399 . S
C835 C834 1.394 . S
C835 C836 1.516 . S
C836 C835 1.516 . S
C836 C837 1.502 . S
C836 C838 1.561 . S
C836 C839 1.526 . S
C837 H821 0.959 . S
C837 H822 0.959 . S
C837 H823 0.961 . S
C837 C836 1.502 . S
C838 H824 0.960 . S
C838 H825 0.961 . S
C838 H826 0.959 . S
C838 C836 1.561 . S
C839 C836 1.526 . S
C839 C840 1.396 . S
C839 C844 1.390 . S
C840 C834 1.465 . S
C840 C839 1.396 . S
C840 C841 1.399 . S
C841 H827 0.929 1_554 S
C841 C840 1.399 . S
C841 C842 1.385 . S
C842 H828 0.931 1_554 S
C842 C841 1.385 . S
C842 C843 1.389 . S
C843 C842 1.389 . S
C843 C844 1.387 . S
C844 H829 0.930 . S
C844 C839 1.390 . S
C844 C843 1.387 . S
H845 C857 0.930 . S
H846 C859 0.930 . S
H847 C860 0.930 . S
H848 C864 0.959 . S
H849 C864 0.959 . S
H850 C864 0.961 . S
H851 C865 0.960 . S
H852 C865 0.961 . S
H853 C865 0.959 . S
H854 C868 0.929 1_556 S
H855 C869 0.921 1_556 S
H856 C871 0.930 . S
C857 H845 0.930 . S
C857 C858 1.399 . S
C857 C862 1.399 . S
C858 C857 1.399 . S
C858 C859 1.376 . S
C859 H846 0.930 . S
C859 C858 1.376 . S
C859 C860 1.388 . S
C860 H847 0.930 . S
C860 C859 1.388 . S
C860 C861 1.390 . S
C861 C860 1.390 . S
C861 C862 1.394 . S
C861 C867 1.465 . S
C862 C857 1.399 . S
C862 C861 1.394 . S
C862 C863 1.516 . S
C863 C862 1.516 . S
C863 C864 1.502 . S
C863 C865 1.561 . S
C863 C866 1.526 . S
C864 H848 0.959 . S
C864 H849 0.959 . S
C864 H850 0.961 . S
C864 C863 1.502 . S
C865 H851 0.960 . S
C865 H852 0.961 . S
C865 H853 0.959 . S
C865 C863 1.561 . S
C866 C863 1.526 . S
C866 C867 1.396 . S
C866 C871 1.390 . S
C867 C861 1.465 . S
C867 C866 1.396 . S
C867 C868 1.399 . S
C868 H854 0.929 1_554 S
C868 C867 1.399 . S
C868 C869 1.387 . S
C869 H855 0.921 1_554 S
C869 C868 1.387 . S
C869 C870 1.397 . S
C870 C869 1.397 . S
C870 C871 1.387 . S
C871 H856 0.930 . S
C871 C866 1.390 . S
C871 C870 1.387 . S
H872 C884 0.930 . S
H873 C886 0.930 . S
H874 C887 0.930 . S
H875 C891 0.959 . S
H876 C891 0.959 . S
H877 C891 0.961 . S
H878 C892 0.960 . S
H879 C892 0.961 . S
H880 C892 0.959 . S
H881 C895 0.929 . S
H882 C896 0.931 . S
H883 C898 0.930 . S
C884 H872 0.930 . S
C884 C885 1.399 . S
C884 C889 1.399 . S
C885 C884 1.399 . S
C885 C886 1.376 . S
C886 H873 0.930 . S
C886 C885 1.376 . S
C886 C887 1.388 . S
C887 H874 0.930 . S
C887 C886 1.388 . S
C887 C888 1.390 . S
C888 C887 1.390 . S
C888 C889 1.394 . S
C888 C894 1.465 . S
C889 C884 1.399 . S
C889 C888 1.394 . S
C889 C890 1.516 . S
C890 C889 1.516 . S
C890 C891 1.502 . S
C890 C892 1.561 1_556 S
C890 C893 1.526 . S
C891 H875 0.959 . S
C891 H876 0.959 . S
C891 H877 0.961 . S
C891 C890 1.502 . S
C892 H878 0.960 . S
C892 H879 0.961 . S
C892 H880 0.959 . S
C892 C890 1.561 1_554 S
C893 C890 1.526 . S
C893 C894 1.396 . S
C893 C898 1.390 . S
C894 C888 1.465 . S
C894 C893 1.396 . S
C894 C895 1.399 . S
C895 H881 0.929 . S
C895 C894 1.399 . S
C895 C896 1.385 . S
C896 H882 0.931 . S
C896 C895 1.385 . S
C896 C897 1.389 . S
C897 C896 1.389 . S
C897 C898 1.387 . S
C898 H883 0.930 . S
C898 C893 1.390 . S
C898 C897 1.387 . S
H899 C911 0.930 . S
H900 C913 0.930 . S
H901 C914 0.930 . S
H902 C918 0.959 1_554 S
H903 C918 0.959 1_565 S
H904 C918 0.961 1_564 S
H905 C919 0.960 . S
H906 C919 0.961 . S
H907 C919 0.959 . S
H908 C922 0.929 . S
H909 C923 0.931 . S
H910 C925 0.930 . S
C911 H899 0.930 . S
C911 C912 1.399 . S
C911 C916 1.399 . S
C912 C911 1.399 . S
C912 C913 1.376 . S
C913 H900 0.930 . S
C913 C912 1.376 . S
C913 C914 1.388 . S
C914 H901 0.930 . S
C914 C913 1.388 . S
C914 C915 1.390 . S
C915 C914 1.390 . S
C915 C916 1.394 . S
C915 C921 1.465 . S
C916 C911 1.399 . S
C916 C915 1.394 . S
C916 C917 1.516 . S
C917 C916 1.516 . S
C917 C918 1.502 . S
C917 C919 1.561 1_545 S
C917 C920 1.526 . S
C918 H902 0.959 1_556 S
C918 H903 0.959 1_545 S
C918 H904 0.961 1_546 S
C918 C917 1.502 . S
C919 H905 0.960 . S
C919 H906 0.961 . S
C919 H907 0.959 . S
C919 C917 1.561 1_565 S
C920 C917 1.526 . S
C920 C921 1.396 . S
C920 C925 1.390 . S
C921 C915 1.465 . S
C921 C920 1.396 . S
C921 C922 1.399 . S
C922 H908 0.929 . S
C922 C921 1.399 . S
C922 C923 1.385 . S
C923 H909 0.931 . S
C923 C922 1.385 . S
C923 C924 1.389 . S
C924 C923 1.389 . S
C924 C925 1.387 . S
C925 H910 0.930 . S
C925 C920 1.390 . S
C925 C924 1.387 . S
H926 C938 0.930 1_554 S
H927 C940 0.930 . S
H928 C941 0.930 . S
H929 C945 0.959 1_556 S
H930 C945 0.959 . S
H931 C945 0.961 . S
H932 C946 0.960 . S
H933 C946 0.961 . S
H934 C946 0.959 . S
H935 C949 0.929 . S
H936 C950 0.931 . S
H937 C952 0.930 . S
C938 H926 0.930 1_556 S
C938 C939 1.399 . S
C938 C943 1.399 . S
C939 C938 1.399 . S
C939 C940 1.376 . S
C940 H927 0.930 . S
C940 C939 1.376 . S
C940 C941 1.388 . S
C941 H928 0.930 . S
C941 C940 1.388 . S
C941 C942 1.390 . S
C942 C941 1.390 . S
C942 C943 1.394 . S
C942 C948 1.465 . S
C943 C938 1.399 . S
C943 C942 1.394 . S
C943 C944 1.516 . S
C944 C943 1.516 . S
C944 C945 1.502 1_556 S
C944 C946 1.561 1_556 S
C944 C947 1.526 . S
C945 H929 0.959 1_554 S
C945 H930 0.959 . S
C945 H931 0.961 . S
C945 C944 1.502 1_554 S
C946 H932 0.960 . S
C946 H933 0.961 . S
C946 H934 0.959 . S
C946 C944 1.561 1_554 S
C947 C944 1.526 . S
C947 C948 1.396 . S
C947 C952 1.390 . S
C948 C942 1.465 . S
C948 C947 1.396 . S
C948 C949 1.399 . S
C949 H935 0.929 . S
C949 C948 1.399 . S
C949 C950 1.385 . S
C950 H936 0.931 . S
C950 C949 1.385 . S
C950 C951 1.389 . S
C951 C950 1.389 . S
C951 C952 1.387 . S
C952 H937 0.930 . S
C952 C947 1.390 . S
C952 C951 1.387 . S
H953 C965 0.930 . S
H954 C967 0.930 . S
H955 C968 0.930 . S
H956 C972 0.959 . S
H957 C972 0.959 . S
H958 C972 0.961 . S
H959 C973 0.960 . S
H960 C973 0.961 . S
H961 C973 0.959 . S
H962 C976 0.929 . S
H963 C977 0.931 . S
H964 C979 0.930 . S
C965 H953 0.930 . S
C965 C966 1.399 . S
C965 C970 1.399 . S
C966 C965 1.399 . S
C966 C967 1.376 . S
C967 H954 0.930 . S
C967 C966 1.376 . S
C967 C968 1.388 . S
C968 H955 0.930 . S
C968 C967 1.388 . S
C968 C969 1.390 . S
C969 C968 1.390 . S
C969 C970 1.394 . S
C969 C975 1.465 . S
C970 C965 1.399 . S
C970 C969 1.394 . S
C970 C971 1.516 . S
C971 C970 1.516 . S
C971 C972 1.502 1_556 S
C971 C973 1.561 . S
C971 C974 1.526 . S
C972 H956 0.959 . S
C972 H957 0.959 . S
C972 H958 0.961 . S
C972 C971 1.502 1_554 S
C973 H959 0.960 . S
C973 H960 0.961 . S
C973 H961 0.959 . S
C973 C971 1.561 . S
C974 C971 1.526 . S
C974 C975 1.396 . S
C974 C979 1.390 . S
C975 C969 1.465 . S
C975 C974 1.396 . S
C975 C976 1.399 . S
C976 H962 0.929 . S
C976 C975 1.399 . S
C976 C977 1.385 . S
C977 H963 0.931 . S
C977 C976 1.385 . S
C977 C978 1.389 . S
C978 C977 1.389 . S
C978 C979 1.387 . S
C979 H964 0.930 . S
C979 C974 1.390 . S
C979 C978 1.387 . S
H980 C992 0.930 . S
H981 C994 0.930 . S
H982 C995 0.930 . S
H983 C999 0.959 . S
H984 C999 0.959 . S
H985 C999 0.961 . S
H986 C1000 0.960 . S
H987 C1000 0.961 . S
H988 C1000 0.959 1_455 S
H989 C1003 0.929 . S
H990 C1004 0.931 . S
H991 C1006 0.930 . S
C992 H980 0.930 . S
C992 C993 1.399 . S
C992 C997 1.399 . S
C993 C992 1.399 . S
C993 C994 1.376 . S
C994 H981 0.930 . S
C994 C993 1.376 . S
C994 C995 1.388 . S
C995 H982 0.930 . S
C995 C994 1.388 . S
C995 C996 1.390 . S
C996 C995 1.390 . S
C996 C997 1.394 . S
C996 C1002 1.465 . S
C997 C992 1.399 . S
C997 C996 1.394 . S
C997 C998 1.516 . S
C998 C997 1.516 . S
C998 C999 1.502 . S
C998 C1000 1.561 . S
C998 C1001 1.526 . S
C999 H983 0.959 . S
C999 H984 0.959 . S
C999 H985 0.961 . S
C999 C998 1.502 . S
C1000 H986 0.960 . S
C1000 H987 0.961 . S
C1000 H988 0.959 1_655 S
C1000 C998 1.561 . S
C1001 C998 1.526 . S
C1001 C1002 1.396 . S
C1001 C1006 1.390 . S
C1002 C996 1.465 . S
C1002 C1001 1.396 . S
C1002 C1003 1.399 . S
C1003 H989 0.929 . S
C1003 C1002 1.399 . S
C1003 C1004 1.385 . S
C1004 H990 0.931 . S
C1004 C1003 1.385 . S
C1004 C1005 1.389 . S
C1005 C1004 1.389 . S
C1005 C1006 1.387 . S
C1006 H991 0.930 . S
C1006 C1001 1.390 . S
C1006 C1005 1.387 . S
H1007 C1019 0.930 . S
H1008 C1021 0.925 1_545 S
H1009 C1022 0.930 . S
H1010 C1026 0.959 . S
H1011 C1026 0.959 . S
H1012 C1026 0.961 . S
H1013 C1027 0.960 . S
H1014 C1027 0.961 . S
H1015 C1027 0.959 . S
H1016 C1030 0.929 . S
H1017 C1031 0.931 . S
H1018 C1033 0.930 . S
C1019 H1007 0.930 . S
C1019 C1020 1.399 . S
C1019 C1024 1.399 . S
C1020 C1019 1.399 . S
C1020 C1021 1.384 . S
C1021 H1008 0.925 1_565 S
C1021 C1020 1.384 . S
C1021 C1022 1.386 1_565 S
C1022 H1009 0.930 . S
C1022 C1021 1.386 1_545 S
C1022 C1023 1.390 1_545 S
C1023 C1022 1.390 1_565 S
C1023 C1024 1.394 . S
C1023 C1029 1.465 . S
C1024 C1019 1.399 . S
C1024 C1023 1.394 . S
C1024 C1025 1.516 . S
C1025 C1024 1.516 . S
C1025 C1026 1.502 . S
C1025 C1027 1.561 . S
C1025 C1028 1.526 . S
C1026 H1010 0.959 . S
C1026 H1011 0.959 . S
C1026 H1012 0.961 . S
C1026 C1025 1.502 . S
C1027 H1013 0.960 . S
C1027 H1014 0.961 . S
C1027 H1015 0.959 . S
C1027 C1025 1.561 . S
C1028 C1025 1.526 . S
C1028 C1029 1.396 . S
C1028 C1033 1.390 . S
C1029 C1023 1.465 . S
C1029 C1028 1.396 . S
C1029 C1030 1.399 1_565 S
C1030 H1016 0.929 . S
C1030 C1029 1.399 1_545 S
C1030 C1031 1.385 . S
C1031 H1017 0.931 . S
C1031 C1030 1.385 . S
C1031 C1032 1.389 1_545 S
C1032 C1031 1.389 1_565 S
C1032 C1033 1.387 . S
C1033 H1018 0.930 . S
C1033 C1028 1.390 . S
C1033 C1032 1.387 . S
H1034 C1046 0.930 . S
H1035 C1048 0.930 . S
H1036 C1049 0.930 . S
H1037 C1053 0.959 . S
H1038 C1053 0.959 . S
H1039 C1053 0.961 . S
H1040 C1054 0.960 . S
H1041 C1054 0.961 . S
H1042 C1054 0.959 . S
H1043 C1057 0.929 . S
H1044 C1058 0.931 . S
H1045 C1060 0.930 . S
C1046 H1034 0.930 . S
C1046 C1047 1.399 . S
C1046 C1051 1.399 . S
C1047 C1046 1.399 . S
C1047 C1048 1.376 . S
C1048 H1035 0.930 . S
C1048 C1047 1.376 . S
C1048 C1049 1.388 . S
C1049 H1036 0.930 . S
C1049 C1048 1.388 . S
C1049 C1050 1.390 . S
C1050 C1049 1.390 . S
C1050 C1051 1.394 . S
C1050 C1056 1.465 . S
C1051 C1046 1.399 . S
C1051 C1050 1.394 . S
C1051 C1052 1.516 . S
C1052 C1051 1.516 . S
C1052 C1053 1.502 . S
C1052 C1054 1.561 . S
C1052 C1055 1.526 . S
C1053 H1037 0.959 . S
C1053 H1038 0.959 . S
C1053 H1039 0.961 . S
C1053 C1052 1.502 . S
C1054 H1040 0.960 . S
C1054 H1041 0.961 . S
C1054 H1042 0.959 . S
C1054 C1052 1.561 . S
C1055 C1052 1.526 . S
C1055 C1056 1.396 . S
C1055 C1060 1.390 . S
C1056 C1050 1.465 . S
C1056 C1055 1.396 . S
C1056 C1057 1.399 . S
C1057 H1043 0.929 . S
C1057 C1056 1.399 . S
C1057 C1058 1.385 . S
C1058 H1044 0.931 . S
C1058 C1057 1.385 . S
C1058 C1059 1.389 . S
C1059 C1058 1.389 . S
C1059 C1060 1.387 . S
C1060 H1045 0.930 . S
C1060 C1055 1.390 . S
C1060 C1059 1.387 . S
H1061 C1073 0.930 . S
H1062 C1075 0.930 . S
H1063 C1076 0.930 . S
H1064 C1080 0.959 . S
H1065 C1080 0.959 . S
H1066 C1080 0.961 . S
H1067 C1081 0.960 . S
H1068 C1081 0.961 . S
H1069 C1081 0.959 . S
H1070 C1084 0.929 . S
H1071 C1085 0.931 . S
H1072 C1087 0.930 . S
C1073 H1061 0.930 . S
C1073 C1074 1.399 . S
C1073 C1078 1.399 . S
C1074 C1073 1.399 . S
C1074 C1075 1.376 . S
C1075 H1062 0.930 . S
C1075 C1074 1.376 . S
C1075 C1076 1.388 . S
C1076 H1063 0.930 . S
C1076 C1075 1.388 . S
C1076 C1077 1.390 . S
C1077 C1076 1.390 . S
C1077 C1078 1.394 . S
C1077 C1083 1.465 . S
C1078 C1073 1.399 . S
C1078 C1077 1.394 . S
C1078 C1079 1.516 . S
C1079 C1078 1.516 . S
C1079 C1080 1.502 . S
C1079 C1081 1.561 . S
C1079 C1082 1.526 . S
C1080 H1064 0.959 . S
C1080 H1065 0.959 . S
C1080 H1066 0.961 . S
C1080 C1079 1.502 . S
C1081 H1067 0.960 . S
C1081 H1068 0.961 . S
C1081 H1069 0.959 . S
C1081 C1079 1.561 . S
C1082 C1079 1.526 . S
C1082 C1083 1.396 . S
C1082 C1087 1.390 . S
C1083 C1077 1.465 . S
C1083 C1082 1.396 . S
C1083 C1084 1.399 . S
C1084 H1070 0.929 . S
C1084 C1083 1.399 . S
C1084 C1085 1.385 . S
C1085 H1071 0.931 . S
C1085 C1084 1.385 . S
C1085 C1086 1.389 . S
C1086 C1085 1.389 . S
C1086 C1087 1.387 . S
C1087 H1072 0.930 . S
C1087 C1082 1.390 . S
C1087 C1086 1.387 . S
C453 N80 1.928 . S
C465 C178 1.916 . S
C492 C262 1.919 . S
C480 N93 1.948 . S
C519 C328 1.908 . S
C507 N54 2.018 . S
C546 C412 1.947 . S
C534 N67 1.968 . S
C573 C167 1.911 1_565 S
C561 N28 1.881 . S
C588 N41 1.956 . S
C600 C251 1.924 . S
C615 N2 2.041 . S
C627 C339 1.904 . S
C642 N15 2.032 . S
C654 C423 1.871 . S
C681 C174 0.594 1_455 S
C669 N70 0.600 . S
C708 C258 0.645 1_545 S
C696 N83 0.617 . S
C735 C330 0.652 . S
C723 N96 0.614 . S
C750 N57 0.638 . S
C762 C414 0.620 . S
C777 N18 0.641 . S
C789 C162 0.621 . S
C816 C246 0.518 . S
C804 N31 0.558 . S
C843 C342 0.659 . S
C831 N44 0.553 . S
C858 N5 0.544 . S
C870 C426 0.665 . S
C885 N66 2.092 . S
C897 C171 1.995 . S
C912 N79 2.092 . S
C924 C255 2.018 . S
C951 C335 2.020 . S
C939 N92 1.984 . S
C978 C419 2.065 . S
C966 N53 2.025 . S
C993 N14 2.076 . S
C1005 C160 2.049 . S
C1032 C244 1.986 . S
C1020 N27 2.082 . S
C1059 C346 2.044 . S
C1047 N40 1.992 . S
C1074 N1 2.033 . S
C1086 C430 2.035 . S
