# Generated by pormake.
# Topology eea, (3,6)-cn, num edge types: 1
# Building blocks:
#     Node 0, Type 0, BuildingBlock: CUQRIR_clean_linker_1, # of connection points: 3
#     Node 1, Type 0, BuildingBlock: CUQRIR_clean_linker_1, # of connection points: 3
#     Node 2, Type 0, BuildingBlock: CUQRIR_clean_linker_1, # of connection points: 3
#     Node 3, Type 0, BuildingBlock: CUQRIR_clean_linker_1, # of connection points: 3
#     Node 4, Type 0, BuildingBlock: CUQRIR_clean_linker_1, # of connection points: 3
#     Node 5, Type 0, BuildingBlock: CUQRIR_clean_linker_1, # of connection points: 3
#     Node 6, Type 0, BuildingBlock: CUQRIR_clean_linker_1, # of connection points: 3
#     Node 7, Type 0, BuildingBlock: CUQRIR_clean_linker_1, # of connection points: 3
#     Node 8, Type 0, BuildingBlock: CUQRIR_clean_linker_1, # of connection points: 3
#     Node 9, Type 0, BuildingBlock: CUQRIR_clean_linker_1, # of connection points: 3
#     Node 10, Type 0, BuildingBlock: CUQRIR_clean_linker_1, # of connection points: 3
#     Node 11, Type 0, BuildingBlock: CUQRIR_clean_linker_1, # of connection points: 3
#     Node 12, Type 0, BuildingBlock: CUQRIR_clean_linker_1, # of connection points: 3
#     Node 13, Type 0, BuildingBlock: CUQRIR_clean_linker_1, # of connection points: 3
#     Node 14, Type 0, BuildingBlock: CUQRIR_clean_linker_1, # of connection points: 3
#     Node 15, Type 0, BuildingBlock: CUQRIR_clean_linker_1, # of connection points: 3
#     Node 16, Type 0, BuildingBlock: CUQRIR_clean_linker_1, # of connection points: 3
#     Node 17, Type 0, BuildingBlock: CUQRIR_clean_linker_1, # of connection points: 3
#     Node 18, Type 1, BuildingBlock: CUKXOW_clean_sbu_0, # of connection points: 6
#     Node 19, Type 1, BuildingBlock: CUKXOW_clean_sbu_0, # of connection points: 6
#     Node 20, Type 1, BuildingBlock: CUKXOW_clean_sbu_0, # of connection points: 6
#     Node 21, Type 1, BuildingBlock: CUKXOW_clean_sbu_0, # of connection points: 6
#     Node 22, Type 1, BuildingBlock: CUKXOW_clean_sbu_0, # of connection points: 6
#     Node 23, Type 1, BuildingBlock: CUKXOW_clean_sbu_0, # of connection points: 6
#     Node 24, Type 1, BuildingBlock: CUKXOW_clean_sbu_0, # of connection points: 6
#     Node 25, Type 1, BuildingBlock: CUKXOW_clean_sbu_0, # of connection points: 6
#     Node 26, Type 1, BuildingBlock: CUKXOW_clean_sbu_0, # of connection points: 6
#     Edge 27, Type (0, 1), BuildingBlock: CIFDUS_clean_linker_0, # of connection points: 2
#     Edge 28, Type (0, 1), BuildingBlock: CIFDUS_clean_linker_0, # of connection points: 2
#     Edge 29, Type (0, 1), BuildingBlock: CIFDUS_clean_linker_0, # of connection points: 2
#     Edge 30, Type (0, 1), BuildingBlock: CIFDUS_clean_linker_0, # of connection points: 2
#     Edge 31, Type (0, 1), BuildingBlock: CIFDUS_clean_linker_0, # of connection points: 2
#     Edge 32, Type (0, 1), BuildingBlock: CIFDUS_clean_linker_0, # of connection points: 2
#     Edge 33, Type (0, 1), BuildingBlock: CIFDUS_clean_linker_0, # of connection points: 2
#     Edge 34, Type (0, 1), BuildingBlock: CIFDUS_clean_linker_0, # of connection points: 2
#     Edge 35, Type (0, 1), BuildingBlock: CIFDUS_clean_linker_0, # of connection points: 2
#     Edge 36, Type (0, 1), BuildingBlock: CIFDUS_clean_linker_0, # of connection points: 2
#     Edge 37, Type (0, 1), BuildingBlock: CIFDUS_clean_linker_0, # of connection points: 2
#     Edge 38, Type (0, 1), BuildingBlock: CIFDUS_clean_linker_0, # of connection points: 2
#     Edge 39, Type (0, 1), BuildingBlock: CIFDUS_clean_linker_0, # of connection points: 2
#     Edge 40, Type (0, 1), BuildingBlock: CIFDUS_clean_linker_0, # of connection points: 2
#     Edge 41, Type (0, 1), BuildingBlock: CIFDUS_clean_linker_0, # of connection points: 2
#     Edge 42, Type (0, 1), BuildingBlock: CIFDUS_clean_linker_0, # of connection points: 2
#     Edge 43, Type (0, 1), BuildingBlock: CIFDUS_clean_linker_0, # of connection points: 2
#     Edge 44, Type (0, 1), BuildingBlock: CIFDUS_clean_linker_0, # of connection points: 2
#     Edge 45, Type (0, 1), BuildingBlock: CIFDUS_clean_linker_0, # of connection points: 2
#     Edge 46, Type (0, 1), BuildingBlock: CIFDUS_clean_linker_0, # of connection points: 2
#     Edge 47, Type (0, 1), BuildingBlock: CIFDUS_clean_linker_0, # of connection points: 2
#     Edge 48, Type (0, 1), BuildingBlock: CIFDUS_clean_linker_0, # of connection points: 2
#     Edge 49, Type (0, 1), BuildingBlock: CIFDUS_clean_linker_0, # of connection points: 2
#     Edge 50, Type (0, 1), BuildingBlock: CIFDUS_clean_linker_0, # of connection points: 2
#     Edge 51, Type (0, 1), BuildingBlock: CIFDUS_clean_linker_0, # of connection points: 2
#     Edge 52, Type (0, 1), BuildingBlock: CIFDUS_clean_linker_0, # of connection points: 2
#     Edge 53, Type (0, 1), BuildingBlock: CIFDUS_clean_linker_0, # of connection points: 2
#     Edge 54, Type (0, 1), BuildingBlock: CIFDUS_clean_linker_0, # of connection points: 2
#     Edge 55, Type (0, 1), BuildingBlock: CIFDUS_clean_linker_0, # of connection points: 2
#     Edge 56, Type (0, 1), BuildingBlock: CIFDUS_clean_linker_0, # of connection points: 2
#     Edge 57, Type (0, 1), BuildingBlock: CIFDUS_clean_linker_0, # of connection points: 2
#     Edge 58, Type (0, 1), BuildingBlock: CIFDUS_clean_linker_0, # of connection points: 2
#     Edge 59, Type (0, 1), BuildingBlock: CIFDUS_clean_linker_0, # of connection points: 2
#     Edge 60, Type (0, 1), BuildingBlock: CIFDUS_clean_linker_0, # of connection points: 2
#     Edge 61, Type (0, 1), BuildingBlock: CIFDUS_clean_linker_0, # of connection points: 2
#     Edge 62, Type (0, 1), BuildingBlock: CIFDUS_clean_linker_0, # of connection points: 2
#     Edge 63, Type (0, 1), BuildingBlock: CIFDUS_clean_linker_0, # of connection points: 2
#     Edge 64, Type (0, 1), BuildingBlock: CIFDUS_clean_linker_0, # of connection points: 2
#     Edge 65, Type (0, 1), BuildingBlock: CIFDUS_clean_linker_0, # of connection points: 2
#     Edge 66, Type (0, 1), BuildingBlock: CIFDUS_clean_linker_0, # of connection points: 2
#     Edge 67, Type (0, 1), BuildingBlock: CIFDUS_clean_linker_0, # of connection points: 2
#     Edge 68, Type (0, 1), BuildingBlock: CIFDUS_clean_linker_0, # of connection points: 2
#     Edge 69, Type (0, 1), BuildingBlock: CIFDUS_clean_linker_0, # of connection points: 2
#     Edge 70, Type (0, 1), BuildingBlock: CIFDUS_clean_linker_0, # of connection points: 2
#     Edge 71, Type (0, 1), BuildingBlock: CIFDUS_clean_linker_0, # of connection points: 2
#     Edge 72, Type (0, 1), BuildingBlock: CIFDUS_clean_linker_0, # of connection points: 2
#     Edge 73, Type (0, 1), BuildingBlock: CIFDUS_clean_linker_0, # of connection points: 2
#     Edge 74, Type (0, 1), BuildingBlock: CIFDUS_clean_linker_0, # of connection points: 2
#     Edge 75, Type (0, 1), BuildingBlock: CIFDUS_clean_linker_0, # of connection points: 2
#     Edge 76, Type (0, 1), BuildingBlock: CIFDUS_clean_linker_0, # of connection points: 2
#     Edge 77, Type (0, 1), BuildingBlock: CIFDUS_clean_linker_0, # of connection points: 2
#     Edge 78, Type (0, 1), BuildingBlock: CIFDUS_clean_linker_0, # of connection points: 2
#     Edge 79, Type (0, 1), BuildingBlock: CIFDUS_clean_linker_0, # of connection points: 2
#     Edge 80, Type (0, 1), BuildingBlock: CIFDUS_clean_linker_0, # of connection points: 2
# Relax obj value: 0.070
# Max RMSD: 0.213
# Mean RMSD: 0.144
data_MOF--net-eea--node1-CUKXOW_clean_sbu_0--node2-CUQRIR_clean_linker_1--edge1-CIFDUS_clean_linker_0
_symmetry_space_group_name_H-M    P1
_symmetry_Int_Tables_number       1
_symmetry_cell_setting            triclinic
loop_
_symmetry_equiv_pos_as_xyz
'x, y, z'
_cell_length_a     47.196656
_cell_length_b     44.103582
_cell_length_c     40.329858
_cell_angle_alpha  86.741877
_cell_angle_beta   93.592671
_cell_angle_gamma 119.30308
loop_
_atom_site_label
_atom_site_type_symbol
_atom_site_fract_x
_atom_site_fract_y
_atom_site_fract_z
_atom_type_partial_charge
C0 C 0.24073 0.13667 0.4139 0.0
N1 N 0.25745 0.16657 0.43095 0.0
N2 N 0.24891 0.11244 0.42571 0.0
C3 C 0.21792 0.13172 0.3844 0.0
C4 C 0.27119 0.12863 0.45055 0.0
N5 N 0.27662 0.16151 0.45356 0.0
C6 C 0.28616 0.11154 0.47329 0.0
H7 H 0.19308 0.1222 0.39323 0.0
H8 H 0.21711 0.11219 0.36763 0.0
H9 H 0.22542 0.15665 0.37029 0.0
H10 H 0.26949 0.08312 0.47589 0.0
H11 H 0.29234 0.12286 0.4983 0.0
H12 H 0.30891 0.11574 0.46252 0.0
C13 C 0.91668 0.14017 0.45267 0.0
N14 N 0.929 0.16679 0.47424 0.0
N15 N 0.88594 0.11601 0.46006 0.0
C16 C 0.93342 0.13911 0.42252 0.0
C17 C 0.87976 0.12875 0.48673 0.0
N18 N 0.90556 0.1599 0.4951 0.0
C19 C 0.84943 0.10917 0.50633 0.0
H20 H 0.94919 0.16572 0.41225 0.0
H21 H 0.91545 0.12339 0.40287 0.0
H22 H 0.94878 0.12699 0.42969 0.0
H23 H 0.83825 0.08071 0.50326 0.0
H24 H 0.83151 0.11745 0.49723 0.0
H25 H 0.85487 0.11469 0.53317 0.0
C26 C 0.88966 0.75042 0.41409 0.0
N27 N 0.90607 0.74199 0.43836 0.0
N28 N 0.85924 0.7408 0.42316 0.0
C29 C 0.90264 0.76705 0.3808 0.0
C30 C 0.85737 0.7256 0.45362 0.0
N31 N 0.88555 0.72562 0.46263 0.0
C32 C 0.82982 0.71527 0.47664 0.0
H33 H 0.91476 0.79575 0.3824 0.0
H34 H 0.88246 0.75904 0.36174 0.0
H35 H 0.92053 0.75971 0.37292 0.0
H36 H 0.81422 0.68658 0.47665 0.0
H37 H 0.81459 0.72738 0.46902 0.0
H38 H 0.83925 0.7228 0.50248 0.0
C39 C 0.11632 0.2211 0.62162 0.0
N40 N 0.14075 0.24081 0.60103 0.0
N41 N 0.08751 0.21596 0.60791 0.0
C42 C 0.12073 0.20868 0.65609 0.0
C43 C 0.09524 0.23259 0.57796 0.0
N44 N 0.12767 0.24841 0.57381 0.0
C45 C 0.07063 0.23378 0.55298 0.0
H46 H 0.14014 0.20133 0.65699 0.0
H47 H 0.09787 0.18602 0.66444 0.0
H48 H 0.12795 0.23003 0.67357 0.0
H49 H 0.06581 0.25508 0.55879 0.0
H50 H 0.04728 0.20902 0.55431 0.0
H51 H 0.07959 0.23829 0.52739 0.0
C52 C 0.80372 0.9201 0.62759 0.0
N53 N 0.79567 0.89564 0.60445 0.0
N54 N 0.79353 0.94309 0.61732 0.0
C55 C 0.82065 0.92084 0.66064 0.0
C56 C 0.77934 0.93209 0.58703 0.0
N57 N 0.78041 0.9032 0.57911 0.0
C58 C 0.76521 0.95033 0.56472 0.0
H59 H 0.83196 0.9469 0.67158 0.0
H60 H 0.8395 0.91313 0.65795 0.0
H61 H 0.80256 0.90182 0.67801 0.0
H62 H 0.77711 0.97844 0.57002 0.0
H63 H 0.7389 0.93862 0.5692 0.0
H64 H 0.76795 0.94733 0.53816 0.0
C65 C 0.1435 0.92994 0.64494 0.0
N66 N 0.12595 0.90364 0.62376 0.0
N67 N 0.17528 0.94735 0.63723 0.0
C68 C 0.13011 0.9372 0.67455 0.0
C69 C 0.17643 0.93054 0.61067 0.0
N70 N 0.14661 0.90374 0.60278 0.0
C71 C 0.20606 0.94223 0.59052 0.0
H72 H 0.12062 0.95519 0.66679 0.0
H73 H 0.14934 0.94958 0.69432 0.0
H74 H 0.10986 0.91284 0.68476 0.0
H75 H 0.2199 0.92929 0.60089 0.0
H76 H 0.22212 0.97079 0.59154 0.0
H77 H 0.19925 0.93506 0.56415 0.0
C78 C 0.91046 0.47564 0.75117 0.0
N79 N 0.92356 0.50544 0.76853 0.0
N80 N 0.9208 0.45366 0.76451 0.0
C81 C 0.88951 0.46889 0.71985 0.0
C82 C 0.94072 0.47107 0.79043 0.0
N83 N 0.94255 0.50248 0.79283 0.0
C84 C 0.95771 0.45695 0.81408 0.0
H85 H 0.86371 0.45707 0.72654 0.0
H86 H 0.89188 0.45052 0.70406 0.0
H87 H 0.8961 0.49349 0.70546 0.0
H88 H 0.94504 0.4281 0.81432 0.0
H89 H 0.95918 0.46576 0.83967 0.0
H90 H 0.98287 0.4669 0.806 0.0
C91 C 0.5681 0.4766 0.76741 0.0
N92 N 0.58345 0.50024 0.79163 0.0
N93 N 0.53795 0.45218 0.77643 0.0
C94 C 0.5823 0.47797 0.73458 0.0
C95 C 0.53556 0.46154 0.80707 0.0
N96 N 0.56311 0.49059 0.81646 0.0
C97 C 0.50638 0.44188 0.82817 0.0
H98 H 0.57899 0.49671 0.71748 0.0
H99 H 0.57023 0.45242 0.72266 0.0
H100 H 0.60874 0.48703 0.73788 0.0
H101 H 0.49259 0.41405 0.82172 0.0
H102 H 0.49013 0.45339 0.82375 0.0
H103 H 0.51374 0.44384 0.85498 0.0
C104 C 0.55916 0.10082 0.76207 0.0
N105 N 0.57543 0.09199 0.78608 0.0
N106 N 0.5267 0.07969 0.76373 0.0
C107 C 0.57484 0.13162 0.73829 0.0
C108 C 0.52419 0.05674 0.78868 0.0
N109 N 0.55366 0.06452 0.80301 0.0
C110 C 0.49229 0.02873 0.80161 0.0
H111 H 0.55904 0.12861 0.71586 0.0
H112 H 0.59835 0.13511 0.73033 0.0
H113 H 0.57949 0.15542 0.75093 0.0
H114 H 0.47305 1.02009 0.78149 0.0
H115 H 0.48475 0.03889 0.82188 0.0
H116 H 0.49486 1.00627 0.81186 0.0
C117 C 0.81071 0.65422 0.98387 0.0
N118 N 0.83521 0.66235 0.96327 0.0
N119 N 0.78882 0.66283 0.96955 0.0
C120 C 0.80678 0.63585 0.01733 0.0
C121 C 0.80176 0.67806 0.94013 0.0
N122 N 0.82992 0.67783 0.93624 0.0
C123 C 0.7845 0.68877 0.91323 0.0
H124 H 0.78916 0.60778 0.01474 0.0
H125 H 0.79701 0.64638 0.03503 0.0
H126 H 0.83028 0.63897 0.02795 0.0
H127 H 0.76259 0.68821 0.92245 0.0
H128 H 0.77734 0.67106 0.89208 0.0
H129 H 0.80112 0.7155 0.90386 0.0
C130 C 0.46182 0.24342 0.97449 0.0
N131 N 0.44991 0.21628 0.95364 0.0
N132 N 0.45023 0.26544 0.96519 0.0
C133 C 0.48243 0.24693 1.00558 0.0
C134 C 0.43079 0.25082 0.93811 0.0
N135 N 0.43021 0.22081 0.93125 0.0
C136 C 0.41307 0.26646 0.91765 0.0
H137 H 0.47534 0.22105 0.01754 0.0
H138 H 0.48025 0.26366 0.02365 0.0
H139 H 0.50826 0.25898 0.99893 0.0
H140 H 0.425 0.295 0.9206 0.0
H141 H 0.38778 0.25458 0.92602 0.0
H142 H 0.41195 0.26106 0.89093 0.0
C143 C 0.79896 0.26141 0.96488 0.0
N144 N 0.78341 0.23572 0.94266 0.0
N145 N 0.82943 0.28429 0.95518 0.0
C146 C 0.78471 0.26303 0.99658 0.0
C147 C 0.83164 0.27165 0.92625 0.0
N148 N 0.80385 0.2421 0.91869 0.0
C149 C 0.86071 0.28883 0.90469 0.0
H150 H 0.76112 0.26236 0.99078 0.0
H151 H 0.80117 0.28659 1.01065 0.0
H152 H 0.77973 0.23975 1.01252 0.0
H153 H 0.87767 0.27883 0.91239 0.0
H154 H 0.87376 0.31745 0.90745 0.0
H155 H 0.85328 0.2829 0.87816 0.0
C156 C 0.5628 0.79755 0.09632 0.0
N157 N 0.57621 0.8261 0.11539 0.0
N158 N 0.57304 0.7748 0.10746 0.0
C159 C 0.54181 0.79312 0.06538 0.0
C160 C 0.59317 0.79053 0.13387 0.0
N161 N 0.59534 0.82177 0.13855 0.0
C162 C 0.60974 0.77467 0.15587 0.0
H163 H 0.54223 0.77423 0.04868 0.0
H164 H 0.54993 0.81844 0.0518 0.0
H165 H 0.51639 0.78331 0.07257 0.0
H166 H 0.63471 0.78438 0.14733 0.0
H167 H 0.59641 0.74588 0.15474 0.0
H168 H 0.61159 0.78223 0.18204 0.0
C169 C 0.24024 0.79386 0.11598 0.0
N170 N 0.25383 0.82148 0.1363 0.0
N171 N 0.20818 0.77337 0.12148 0.0
C172 C 0.25785 0.78783 0.08947 0.0
C173 C 0.20266 0.78945 0.14588 0.0
N174 N 0.2302 0.81883 0.15474 0.0
C175 C 0.17079 0.77514 0.16271 0.0
H176 H 0.24072 0.77239 0.06915 0.0
H177 H 0.26985 0.77323 0.10065 0.0
H178 H 0.27684 0.81292 0.07895 0.0
H179 H 0.17475 0.78185 0.18931 0.0
H180 H 0.15641 0.74645 0.16093 0.0
H181 H 0.1565 0.78674 0.15036 0.0
C182 C 0.23238 0.45341 0.08737 0.0
N183 N 0.24473 0.44252 0.1136 0.0
N184 N 0.20289 0.44905 0.09404 0.0
C185 C 0.24948 0.46881 0.05544 0.0
C186 C 0.19776 0.4352 0.12536 0.0
N187 N 0.22311 0.43094 0.13719 0.0
C188 C 0.16984 0.42968 0.14579 0.0
H189 H 0.26706 0.49677 0.05882 0.0
H190 H 0.23195 0.46634 0.03471 0.0
H191 H 0.26332 0.45584 0.04884 0.0
H192 H 0.1493 0.40305 0.14188 0.0
H193 H 0.16138 0.44861 0.13828 0.0
H194 H 0.17685 0.43237 0.17268 0.0
C195 C 0.48292 0.96744 0.32621 0.0
N196 N 0.4975 0.97184 0.2972 0.0
N197 N 0.45837 0.97499 0.32224 0.0
C198 C 0.49056 0.95243 0.3577 0.0
C199 C 0.45828 0.98376 0.28953 0.0
N200 N 0.48186 0.9815 0.27424 0.0
C201 C 0.43352 0.99192 0.2722 0.0
H202 H 0.48182 0.95907 0.37964 0.0
H203 H 0.51713 0.96221 0.36082 0.0
H204 H 0.47833 0.9237 0.35612 0.0
H205 H 0.44363 1.00912 0.24994 0.0
H206 H 0.42527 1.00471 0.28912 0.0
H207 H 0.41206 0.96729 0.26423 0.0
C208 C 0.11789 0.57023 0.31354 0.0
N209 N 0.10641 0.54391 0.29175 0.0
N210 N 0.1063 0.59246 0.30513 0.0
C211 C 0.13831 0.57275 0.34455 0.0
C212 C 0.08746 0.5789 0.27743 0.0
N213 N 0.08708 0.54924 0.26946 0.0
C214 C 0.07049 0.59553 0.25715 0.0
H215 H 0.13204 0.5465 0.35501 0.0
H216 H 0.13498 0.58771 0.36369 0.0
H217 H 0.16431 0.5863 0.33826 0.0
H218 H 0.0833 0.62411 0.2601 0.0
H219 H 0.04536 0.58458 0.26572 0.0
H220 H 0.06899 0.59009 0.23039 0.0
C221 C 0.47022 0.6158 0.28714 0.0
N222 N 0.45745 0.58504 0.27143 0.0
N223 N 0.50008 0.63857 0.27595 0.0
C224 C 0.45409 0.62324 0.31414 0.0
C225 C 0.50487 0.62085 0.2527 0.0
N226 N 0.47915 0.58843 0.24987 0.0
C227 C 0.53488 0.63531 0.23264 0.0
H228 H 0.42725 0.60878 0.31036 0.0
H229 H 0.46232 0.6514 0.31511 0.0
H230 H 0.46068 0.6148 0.33846 0.0
H231 H 0.55283 0.62915 0.24593 0.0
H232 H 0.54611 0.664 0.22944 0.0
H233 H 0.52902 0.6235 0.20784 0.0
Tb234 Tb 0.55618 0.04878 0.03091 0.0
C235 C 0.53015 0.9734 0.06147 0.0
Tb236 Tb 0.48264 1.00442 0.04692 0.0
O237 O 0.57249 0.05903 0.08292 0.0
O238 O 0.52508 0.04603 0.06819 0.0
O239 O 0.55074 0.99675 0.04006 0.0
C240 C 0.42502 0.96698 0.07607 0.0
O241 O 0.50464 0.97504 0.0714 0.0
C242 C 0.49754 1.0056 0.98445 0.0
C243 C 0.50826 0.08098 0.01703 0.0
O244 O 0.44044 0.95437 0.06119 0.0
O245 O 0.44191 1.0007 0.07428 0.0
O246 O 0.46927 0.99959 0.99358 0.0
O247 O 0.51416 1.00653 1.01032 0.0
O248 O 0.48439 0.05389 0.03257 0.0
O249 O 0.53721 0.08362 1.01286 0.0
C250 C 0.61478 0.08427 1.00393 0.0
O251 O 0.60857 0.0678 0.03246 0.0
O252 O 0.58767 0.08051 0.99001 0.0
C253 C 0.5438 0.04958 0.09312 0.0
Tb254 Tb 0.98256 0.55088 0.03901 0.0
C255 C 0.05789 0.60404 0.04543 0.0
Tb256 Tb 0.03312 0.52696 0.02356 0.0
O257 O 0.98526 0.54401 0.09441 0.0
O258 O 0.01327 0.5355 0.06394 0.0
O259 O 0.02834 0.59997 0.03838 0.0
C260 C 0.06877 0.49536 0.0287 0.0
O261 O 0.06416 0.57768 0.04571 0.0
C262 C 0.01238 0.5519 0.97203 0.0
C263 C 0.95666 0.47195 0.02025 0.0
O264 O 0.07703 0.52492 0.01314 0.0
O265 O 0.04067 0.4838 0.04148 0.0
O266 O 0.03984 0.55153 0.97362 0.0
O267 O 0.99729 0.53532 0.99736 0.0
O268 O 0.98706 0.4773 0.01964 0.0
O269 O 0.94985 0.49722 0.02531 0.0
C270 C 0.94256 0.57647 0.02472 0.0
O271 O 0.93608 0.54931 0.04393 0.0
O272 O 0.97193 0.58981 0.01439 0.0
C273 C 1.00755 0.53465 0.09392 0.0
Tb274 Tb 0.47198 0.50319 0.035 0.0
C275 C 0.5032 0.45429 0.02723 0.0
Tb276 Tb 0.54671 0.5343 0.0428 0.0
O277 O 0.4706 0.49852 0.98116 0.0
O278 O 0.51291 0.53507 1.00594 0.0
O279 O 0.4765 0.45643 0.03157 0.0
C280 C 0.61018 0.56399 0.03378 0.0
O281 O 0.53301 0.48145 0.02946 0.0
C282 C 0.51605 0.51568 0.09931 0.0
C283 C 0.51718 0.58327 0.05007 0.0
O284 O 0.59714 0.56511 0.06064 0.0
O285 O 0.58749 0.54547 1.01215 0.0
O286 O 0.54689 0.53709 0.09719 0.0
O287 O 0.50566 0.50288 0.07113 0.0
O288 O 0.54233 0.58134 0.03958 0.0
O289 O 0.48832 0.55522 0.05373 0.0
C290 C 0.40986 0.47536 0.05073 0.0
O291 O 0.42713 0.50626 0.03756 0.0
O292 O 0.42739 0.46017 0.05469 0.0
C293 C 0.50164 0.51963 0.97883 0.0
Tb294 Tb 0.23068 0.3919 0.36209 0.0
C295 C 0.20866 0.3138 0.38356 0.0
Tb296 Tb 0.15719 0.34175 0.37744 0.0
O297 O 0.24539 0.38909 0.41377 0.0
O298 O 0.1991 0.38155 0.40164 0.0
O299 O 0.23095 0.34198 0.36746 0.0
C300 C 0.10282 0.29792 0.40955 0.0
O301 O 0.1809 0.31105 0.39281 0.0
C302 C 0.17102 0.34927 0.31455 0.0
C303 C 0.17668 0.41699 0.34881 0.0
O304 O 0.11675 0.28952 0.38781 0.0
O305 O 0.11931 0.33142 0.41305 0.0
O306 O 0.14165 0.33761 0.32456 0.0
O307 O 0.18931 0.35088 0.33923 0.0
O308 O 0.15433 0.389 0.36483 0.0
O309 O 0.20644 0.42199 0.34378 0.0
C310 C 0.29013 0.43783 0.3416 0.0
O311 O 0.27692 0.44 0.36795 0.0
O312 O 0.26971 0.40971 0.32622 0.0
C313 C 0.21718 0.37973 0.4253 0.0
Tb314 Tb 0.6707 0.89331 0.35157 0.0
C315 C 0.74344 0.94601 0.37583 0.0
Tb316 Tb 0.72608 0.86981 0.35455 0.0
O317 O 0.66091 0.88342 0.40561 0.0
O318 O 0.69327 0.87305 0.38453 0.0
O319 O 0.71489 0.94185 0.36346 0.0
C320 C 0.76614 0.84558 0.37404 0.0
O321 O 0.75133 0.92073 0.3776 0.0
C322 C 0.71261 0.88748 0.29377 0.0
C323 C 0.65214 0.81586 0.33579 0.0
O324 O 0.77513 0.87685 0.36215 0.0
O325 O 0.73468 0.82817 0.37544 0.0
O326 O 0.73263 0.87535 0.30016 0.0
O327 O 0.70417 0.8909 0.32151 0.0
O328 O 0.68074 0.82048 0.34853 0.0
O329 O 0.64512 0.84159 0.33073 0.0
C330 C 0.63369 0.92001 0.32688 0.0
O331 O 0.62288 0.88897 0.34026 0.0
O332 O 0.66525 0.93602 0.3277 0.0
C333 C 0.68191 0.87243 0.41188 0.0
Tb334 Tb 0.15133 0.84106 0.38007 0.0
C335 C 0.1705 0.78153 0.37496 0.0
Tb336 Tb 0.22318 0.85674 0.39726 0.0
O337 O 0.15457 0.84516 0.32477 0.0
O338 O 0.19306 0.85247 0.35599 0.0
O339 O 0.1467 0.7888 0.37933 0.0
C340 C 0.28619 0.87671 0.39635 0.0
O341 O 0.20167 0.80525 0.37734 0.0
C342 C 0.18379 0.83577 0.44761 0.0
C343 C 0.20739 0.91907 0.38841 0.0
O344 O 0.26274 0.84771 0.38533 0.0
O345 O 0.27423 0.89465 0.40814 0.0
O346 O 0.20937 0.832 0.4467 0.0
O347 O 0.18388 0.85396 0.42244 0.0
O348 O 0.2294 0.90872 0.38615 0.0
O349 O 0.17565 0.89678 0.39019 0.0
C350 C 0.0903 0.8216 0.3944 0.0
O351 O 0.10812 0.84749 0.37445 0.0
O352 O 0.10665 0.80631 0.40569 0.0
C353 C 0.18485 0.85192 0.32579 0.0
Tb354 Tb 0.887 0.7233 0.68779 0.0
C355 C 0.86606 0.64426 0.7128 0.0
Tb356 Tb 0.81539 0.67085 0.70092 0.0
O357 O 0.89296 0.75063 0.73353 0.0
O358 O 0.85919 0.69849 0.72999 0.0
O359 O 0.88907 0.67441 0.69988 0.0
C360 C 0.7548 0.63611 0.72373 0.0
O361 O 0.83631 0.63851 0.71804 0.0
C362 C 0.83646 0.66931 0.64238 0.0
C363 C 0.83412 0.74702 0.6759 0.0
O364 O 0.76243 0.64764 0.69343 0.0
O365 O 0.78139 0.64399 0.7413 0.0
O366 O 0.81263 0.64235 0.6564 0.0
O367 O 0.8441 0.69537 0.65924 0.0
O368 O 0.8157 0.7207 0.69614 0.0
O369 O 0.86113 0.74975 0.66431 0.0
C370 C 0.9464 0.76004 0.66297 0.0
O371 O 0.93096 0.77268 0.6776 0.0
O372 O 0.9285 0.72642 0.66246 0.0
C373 C 0.86903 0.72437 0.74794 0.0
Tb374 Tb 0.33602 0.22015 0.69737 0.0
C375 C 0.41288 0.27235 0.69562 0.0
Tb376 Tb 0.38126 0.19142 0.68418 0.0
O377 O 0.33102 0.20095 0.74952 0.0
O378 O 0.37266 0.21401 0.72421 0.0
O379 O 0.38306 0.2687 0.69473 0.0
C380 C 0.41467 0.15729 0.69372 0.0
O381 O 0.41783 0.2452 0.69425 0.0
C382 C 0.35755 0.20991 0.6308 0.0
C383 C 0.30483 0.13896 0.69 0.0
O384 O 0.41216 0.17213 0.66577 0.0
O385 O 0.39853 0.1618 0.71596 0.0
O386 O 0.38553 0.21069 0.63224 0.0
O387 O 0.34387 0.19636 0.65766 0.0
O388 O 0.33469 0.1429 0.69016 0.0
O389 O 0.2996 0.16597 0.68991 0.0
C390 C 0.30086 0.25147 0.68065 0.0
O391 O 0.30233 0.23841 0.71009 0.0
O392 O 0.31961 0.24744 0.66136 0.0
C393 C 0.35837 0.20019 0.75073 0.0
Tb394 Tb 0.81076 0.17507 0.70999 0.0
C395 C 0.83744 0.12626 0.68894 0.0
Tb396 Tb 0.8853 0.20445 0.70941 0.0
O397 O 0.80372 0.17037 0.65568 0.0
O398 O 0.84862 0.2049 0.67717 0.0
O399 O 0.81213 0.12732 0.7004 0.0
C400 C 0.94485 0.22123 0.69337 0.0
O401 O 0.86653 0.15414 0.68698 0.0
C402 C 0.86109 0.18989 0.76846 0.0
C403 C 0.85993 0.25598 0.72301 0.0
O404 O 0.9258 0.19394 0.71084 0.0
O405 O 0.93065 0.23961 0.68532 0.0
O406 O 0.89147 0.21142 0.76322 0.0
O407 O 0.84745 0.17451 0.74199 0.0
O408 O 0.88452 0.25309 0.7122 0.0
O409 O 0.8305 0.22858 0.72724 0.0
C410 C 0.75182 0.14774 0.73498 0.0
O411 O 0.76544 0.17632 0.71692 0.0
O412 O 0.77107 0.13455 0.73839 0.0
C413 C 0.83451 0.19057 0.65034 0.0
H414 H 0.27863 0.88976 0.11953 0.0
H415 H 0.30478 0.81192 0.15229 0.0
H416 H 0.3611 0.85065 0.13726 0.0
H417 H 0.40132 0.90399 0.10828 0.0
H418 H 0.3768 0.98385 0.07834 0.0
H419 H 0.32175 0.94746 0.09852 0.0
C420 C 0.29703 0.88196 0.12446 0.0
C421 C 0.28767 0.84806 0.13702 0.0
C422 C 0.32948 0.90446 0.11539 0.0
C423 C 0.31159 0.83797 0.14285 0.0
C424 C 0.34367 0.85996 0.13386 0.0
C425 C 0.38397 0.91349 0.10649 0.0
C426 C 0.39287 0.94626 0.09129 0.0
C427 C 0.35264 0.89277 0.11897 0.0
C428 C 0.37041 0.95859 0.08973 0.0
C429 C 0.33892 0.93776 0.10127 0.0
H430 H 0.13948 0.41174 0.07892 0.0
H431 H 0.22294 0.51322 0.06696 0.0
H432 H 0.18859 0.5355 0.04009 0.0
H433 H 0.13402 0.52764 0.02655 0.0
H434 H 0.04987 0.42803 0.04562 0.0
H435 H 0.08495 0.40321 0.06334 0.0
C436 C 0.14995 0.43859 0.07007 0.0
C437 C 0.18344 0.46086 0.07466 0.0
C438 C 0.12986 0.45149 0.05633 0.0
C439 C 0.19718 0.4956 0.0631 0.0
C440 C 0.17754 0.50836 0.04811 0.0
C441 C 0.12349 0.50037 0.03401 0.0
C442 C 0.08965 0.47956 0.03491 0.0
C443 C 0.14375 0.48678 0.04546 0.0
C444 C 0.07601 0.4444 0.04493 0.0
C445 C 0.09599 0.43028 0.05508 0.0
H446 H 0.51562 0.71631 0.10021 0.0
H447 H 0.61762 0.76238 0.08273 0.0
H448 H 0.60927 0.70738 0.06172 0.0
H449 H 0.57332 0.6456 0.05078 0.0
H450 H 0.47116 0.59843 0.07004 0.0
H451 H 0.47902 0.65418 0.08772 0.0
C452 C 0.53577 0.71414 0.09139 0.0
C453 C 0.56716 0.74306 0.09286 0.0
C454 C 0.53076 0.68224 0.07985 0.0
C455 C 0.59333 0.74023 0.08176 0.0
C456 C 0.58852 0.70886 0.06983 0.0
C457 C 0.55266 0.64747 0.05856 0.0
C458 C 0.52168 0.6177 0.05895 0.0
C459 C 0.5574 0.67955 0.06912 0.0
C460 C 0.49531 0.62081 0.06937 0.0
C461 C 0.49977 0.65273 0.07956 0.0
H462 H 0.82642 0.34079 0.97138 0.0
H463 H 0.88922 0.29558 0.97486 0.0
H464 H 0.93461 0.34949 0.99647 0.0
H465 H 0.95706 0.41079 1.01155 0.0
H466 H 0.89313 0.4552 1.00877 0.0
H467 H 0.84778 0.40055 0.99032 0.0
C468 C 0.84992 0.3427 0.97757 0.0
C469 C 0.85463 0.31446 0.97169 0.0
C470 C 0.8758 0.37376 0.98994 0.0
C471 C 0.88524 0.31718 0.97922 0.0
C472 C 0.91112 0.34796 0.99149 0.0
C473 C 0.93318 0.40846 1.00715 0.0
C474 C 0.92883 0.43737 1.01145 0.0
C475 C 0.90685 0.37669 0.99648 0.0
C476 C 0.8975 0.43361 1.00573 0.0
C477 C 0.87138 0.40227 0.99506 0.0
H478 H 0.75993 0.66794 0.02249 0.0
H479 H 0.74207 0.61488 0.9308 0.0
H480 H 0.68449 0.57924 0.94244 0.0
H481 H 0.63969 0.56214 0.97954 0.0
H482 H 0.6579 0.612 0.07342 0.0
H483 H 0.71512 0.64928 0.06079 0.0
C484 C 0.74325 0.64853 1.00526 0.0
C485 C 0.75476 0.64418 0.97574 0.0
C486 C 0.71053 0.62729 1.01278 0.0
C487 C 0.73327 0.61903 0.95334 0.0
C488 C 0.70056 0.59846 0.96015 0.0
C489 C 0.65629 0.58105 0.99726 0.0
C490 C 0.64488 0.58443 0.02729 0.0
C491 C 0.689 0.60217 0.98992 0.0
C492 C 0.6664 0.60893 0.05016 0.0
C493 C 0.69899 0.63035 0.0429 0.0
H494 H 0.50685 0.21641 0.95732 0.0
H495 H 0.40358 0.14927 0.96176 0.0
H496 H 0.41221 0.10058 0.98165 0.0
H497 H 0.44968 0.07871 1.00237 0.0
H498 H 0.55329 0.14691 0.99812 0.0
H499 H 0.54413 0.19359 0.9742 0.0
C500 C 0.48632 0.19087 0.9621 0.0
C501 C 0.45464 0.18628 0.95806 0.0
C502 C 0.49161 0.16344 0.97434 0.0
C503 C 0.42812 0.15319 0.96425 0.0
C504 C 0.43313 0.12556 0.97609 0.0
C505 C 0.47027 0.10382 0.99634 0.0
C506 C 0.50219 0.10932 1.00265 0.0
C507 C 0.46482 0.13063 0.98211 0.0
C508 C 0.52849 0.14187 0.9939 0.0
C509 C 0.52328 0.16864 0.98008 0.0
H510 H 0.76502 0.18098 0.98474 0.0
H511 H 0.72966 0.22637 0.90735 0.0
H512 H 0.67341 0.18097 0.91687 0.0
H513 H 0.63402 0.1313 0.95129 0.0
H514 H 0.67037 0.08806 0.03048 0.0
H515 H 0.72618 0.1292 0.01639 0.0
C516 C 0.74488 0.18034 0.9697 0.0
C517 C 0.75117 0.20644 0.94516 0.0
C518 C 0.71275 0.15472 0.97598 0.0
C519 C 0.72517 0.20596 0.9259 0.0
C520 C 0.69308 0.18025 0.93161 0.0
C521 C 0.6542 0.13062 0.96506 0.0
C522 C 0.64806 0.10677 0.99201 0.0
C523 C 0.68648 0.15488 0.95712 0.0
C524 C 0.67443 0.10625 1.00974 0.0
C525 C 0.70641 0.12982 1.00174 0.0
H526 H 0.82371 0.59762 0.97829 0.0
H527 H 0.90007 0.70139 0.95665 0.0
H528 H 0.94115 0.68346 0.97201 0.0
H529 H 0.95475 0.63906 0.99673 0.0
H530 H 0.87714 0.5378 0.02522 0.0
H531 H 0.83686 0.55411 1.00345 0.0
C532 C 0.84938 0.61631 0.97727 0.0
C533 C 0.85909 0.65092 0.96737 0.0
C534 C 0.87244 0.60636 0.98807 0.0
C535 C 0.89227 0.67468 0.96458 0.0
C536 C 0.9156 0.66449 0.97366 0.0
C537 C 0.929 0.62072 0.99819 0.0
C538 C 0.91878 0.58741 1.01274 0.0
C539 C 0.90595 0.63062 0.98639 0.0
C540 C 0.88546 0.56373 0.0145 0.0
C541 C 0.86247 0.57293 1.00185 0.0
H542 H 0.50736 0.32327 0.97607 0.0
H543 H 0.40456 0.27643 0.98956 0.0
H544 H 0.41196 0.33053 1.0118 0.0
H545 H 0.44728 0.39193 0.02432 0.0
H546 H 0.55044 0.43967 1.01 0.0
H547 H 0.54347 0.38457 0.99152 0.0
C548 C 0.48681 0.32502 0.98437 0.0
C549 C 0.45547 0.29625 0.98118 0.0
C550 C 0.49132 0.35636 0.99679 0.0
C551 C 0.42881 0.29852 0.99172 0.0
C552 C 0.43308 0.32937 1.00436 0.0
C553 C 0.46834 0.39034 0.01741 0.0
C554 C 0.49933 0.42011 0.01851 0.0
C555 C 0.46415 0.35864 1.00651 0.0
C556 C 0.52627 0.41729 1.0095 0.0
C557 C 0.52232 0.38575 0.99881 0.0
H558 H 0.15072 0.75835 0.09129 0.0
H559 H 0.21432 0.71602 0.11775 0.0
H560 H 0.17404 0.65984 0.09495 0.0
H561 H 0.11948 0.62208 0.06989 0.0
H562 H 0.05556 0.66481 0.04443 0.0
H563 H 0.09694 0.72124 0.06448 0.0
C564 C 0.15563 0.73675 0.09189 0.0
C565 C 0.1853 0.74112 0.10612 0.0
C566 C 0.13221 0.70456 0.07907 0.0
C567 C 0.1917 0.71318 0.10664 0.0
C568 C 0.16861 0.68109 0.09378 0.0
C569 C 0.11465 0.64377 0.06843 0.0
C570 C 0.08424 0.63894 0.05567 0.0
C571 C 0.1386 0.67634 0.08023 0.0
C572 C 0.07857 0.66751 0.05417 0.0
C573 C 0.10227 0.69991 0.06566 0.0
H574 H 0.26541 0.39956 0.09598 0.0
H575 H 0.29665 0.50061 0.13394 0.0
H576 H 0.35241 0.52035 0.11808 0.0
H577 H 0.38988 0.51106 0.08567 0.0
H578 H 0.35942 0.40947 0.04874 0.0
H579 H 0.30547 0.38745 0.0713 0.0
C580 C 0.28492 0.42527 0.10209 0.0
C581 C 0.27746 0.44859 0.11645 0.0
C582 C 0.31653 0.4366 0.0918 0.0
C583 C 0.30238 0.48223 0.12358 0.0
C584 C 0.33397 0.49363 0.11387 0.0
C585 C 0.37132 0.48413 0.08265 0.0
C586 C 0.37786 0.46205 0.06479 0.0
C587 C 0.34092 0.47152 0.09656 0.0
C588 C 0.35436 0.42693 0.06189 0.0
C589 C 0.32371 0.41435 0.07494 0.0
H590 H 0.52212 0.8315 0.11383 0.0
H591 H 0.62525 0.89019 0.10142 0.0
H592 H 0.62063 0.94178 0.08317 0.0
H593 H 0.5863 0.96917 0.06813 0.0
H594 H 0.48312 0.91012 0.08292 0.0
H595 H 0.48849 0.85982 0.10256 0.0
C596 C 0.54349 0.85581 0.10744 0.0
C597 C 0.57394 0.85733 0.10886 0.0
C598 C 0.54052 0.88513 0.09702 0.0
C599 C 0.60166 0.88877 0.10071 0.0
C600 C 0.59893 0.91806 0.09004 0.0
C601 C 0.56505 0.94526 0.07563 0.0
C602 C 0.53432 0.94338 0.07373 0.0
C603 C 0.56837 0.91642 0.08759 0.0
C604 C 0.50707 0.91236 0.08407 0.0
C605 C 0.51007 0.8835 0.09532 0.0
H606 H 0.9855 0.16656 0.4742 0.0
H607 H 0.94442 0.23482 0.47003 0.0
H608 H 0.99684 0.2839 0.45331 0.0
H609 H 0.05235 0.30514 0.43185 0.0
H610 H 0.0893 0.23319 0.42967 0.0
H611 H 0.04094 0.18797 0.45636 0.0
C612 C 0.9883 0.19239 0.47018 0.0
C613 C 0.96112 0.19704 0.47311 0.0
C614 C 0.01776 0.2197 0.45863 0.0
C615 C 0.96503 0.23064 0.46818 0.0
C616 C 0.9949 0.25855 0.45813 0.0
C617 C 0.04987 0.27967 0.43766 0.0
C618 C 0.07431 0.27243 0.42856 0.0
C619 C 0.02113 0.25311 0.45199 0.0
C620 C 0.07072 0.23928 0.43606 0.0
C621 C 0.04308 0.21342 0.45143 0.0
H622 H 0.87643 0.80768 0.413 0.0
H623 H 0.7959 0.70391 0.40455 0.0
H624 H 0.75908 0.72737 0.38873 0.0
H625 H 0.74996 0.77776 0.37991 0.0
H626 H 0.83137 0.88163 0.38638 0.0
H627 H 0.86809 0.85798 0.40037 0.0
C628 C 0.85096 0.79038 0.40683 0.0
C629 C 0.83866 0.75428 0.40954 0.0
C630 C 0.83026 0.80409 0.39795 0.0
C631 C 0.8056 0.7318 0.4023 0.0
C632 C 0.78469 0.74521 0.39353 0.0
C633 C 0.77575 0.79512 0.38444 0.0
C634 C 0.78807 0.83129 0.38253 0.0
C635 C 0.7967 0.78133 0.39181 0.0
C636 C 0.82148 0.85367 0.38791 0.0
C637 C 0.84242 0.84019 0.39583 0.0
H638 H 0.28245 0.08213 0.40701 0.0
H639 H 0.18575 0.06294 0.42301 0.0
H640 H 0.16356 1.00124 0.41103 0.0
H641 H 0.17235 0.9521 0.39915 0.0
H642 H 0.26989 0.97207 0.38398 0.0
H643 H 0.29097 0.03372 0.39253 0.0
C644 C 0.25653 0.06433 0.40766 0.0
C645 C 0.23571 0.07687 0.41588 0.0
C646 C 0.24413 0.02895 0.4011 0.0
C647 C 0.20212 0.0538 0.41645 0.0
C648 C 0.18953 1.01855 0.40982 0.0
C649 C 0.19817 0.96993 0.3974 0.0
C650 C 0.21939 0.9571 0.39105 0.0
C651 C 0.21036 1.00568 0.40253 0.0
C652 C 0.25283 0.98086 0.38894 0.0
C653 C 0.26503 1.01629 0.39386 0.0
H654 H 0.55846 0.65673 0.30508 0.0
H655 H 0.49418 0.69644 0.27193 0.0
H656 H 0.53562 0.75528 0.28787 0.0
H657 H 0.59073 0.7954 0.30969 0.0
H658 H 0.65559 0.75549 0.34187 0.0
H659 H 0.61358 0.69688 0.32758 0.0
C660 C 0.55363 0.67837 0.3017 0.0
C661 C 0.52332 0.67246 0.28788 0.0
C662 C 0.57776 0.71203 0.31043 0.0
C663 C 0.51716 0.70048 0.28318 0.0
C664 C 0.54093 0.73405 0.29202 0.0
C665 C 0.59578 0.77396 0.31368 0.0
C666 C 0.6265 0.78011 0.32689 0.0
C667 C 0.57144 0.74018 0.30545 0.0
C668 C 0.63234 0.75176 0.33175 0.0
C669 C 0.60826 0.71813 0.32362 0.0
H670 H 0.41779 0.90922 0.33821 0.0
H671 H 0.43867 1.01415 0.35215 0.0
H672 H 0.38791 0.99262 0.38161 0.0
H673 H 0.33492 0.94344 0.39728 0.0
H674 H 0.31356 0.83855 0.38011 0.0
H675 H 0.36765 0.86024 0.35884 0.0
C676 C 0.41139 0.92715 0.34851 0.0
C677 C 0.43138 0.96297 0.34328 0.0
C678 C 0.38222 0.91452 0.36468 0.0
C679 C 0.42319 0.98642 0.35607 0.0
C680 C 0.39432 0.9741 0.37275 0.0
C681 C 0.34251 0.92541 0.3896 0.0
C682 C 0.3205 0.88957 0.38999 0.0
C683 C 0.37323 0.93816 0.37639 0.0
C684 C 0.33025 0.8663 0.37982 0.0
C685 C 0.36104 0.87866 0.36754 0.0
H686 H 0.16471 0.54759 0.2916 0.0
H687 H 0.06279 0.47571 0.30013 0.0
H688 H 0.0752 0.42913 0.31839 0.0
H689 H 0.11582 0.41052 0.3368 0.0
H690 H 0.21802 0.48374 0.32836 0.0
H691 H 0.2049 0.52804 0.30577 0.0
C692 C 0.14526 0.52145 0.29673 0.0
C693 C 0.11287 0.51495 0.29433 0.0
C694 C 0.15276 0.49526 0.30807 0.0
C695 C 0.08782 0.48112 0.30126 0.0
C696 C 0.09501 0.4547 0.31219 0.0
C697 C 0.13525 0.43618 0.33007 0.0
C698 C 0.16799 0.44372 0.33484 0.0
C699 C 0.12749 0.46171 0.31661 0.0
C700 C 0.19268 0.47704 0.3253 0.0
C701 C 0.18519 0.50248 0.31224 0.0
H702 H 0.43781 0.55133 0.33016 0.0
H703 H 0.40707 0.55108 0.22754 0.0
H704 H 0.35358 0.50177 0.23897 0.0
H705 H 0.31356 0.46179 0.27965 0.0
H706 H 0.34209 0.46976 0.38376 0.0
H707 H 0.39779 0.5131 0.37081 0.0
C708 C 0.41939 0.54026 0.31036 0.0
C709 C 0.42679 0.55412 0.27781 0.0
C710 C 0.38795 0.51354 0.31767 0.0
C711 C 0.40265 0.53978 0.25237 0.0
C712 C 0.37174 0.51202 0.25911 0.0
C713 C 0.33214 0.47285 0.29934 0.0
C714 C 0.32389 0.46254 0.33258 0.0
C715 C 0.36389 0.499 0.2918 0.0
C716 C 0.34795 0.47739 0.358 0.0
C717 C 0.37979 0.50214 0.35061 0.0
H718 H 0.56231 1.00803 0.29942 0.0
H719 H 0.48063 0.90628 0.28444 0.0
H720 H 0.51646 0.88042 0.29012 0.0
H721 H 0.57012 0.88648 0.30683 0.0
H722 H 0.6523 0.98873 0.32051 0.0
H723 H 0.61757 1.01503 0.30765 0.0
C724 C 0.55282 0.98044 0.29619 0.0
C725 C 0.51925 0.95891 0.29124 0.0
C726 C 0.57355 0.96594 0.29997 0.0
C727 C 0.50663 0.92309 0.28775 0.0
C728 C 0.52701 0.90839 0.29142 0.0
C729 C 0.58038 0.91453 0.30656 0.0
C730 C 0.61345 0.93569 0.31515 0.0
C731 C 0.56035 0.92943 0.29876 0.0
C732 C 0.62678 0.97199 0.3142 0.0
C733 C 0.60695 0.98702 0.30689 0.0
H734 H 0.16453 0.64665 0.32055 0.0
H735 H 0.06172 0.60796 0.32591 0.0
H736 H 0.07192 0.66287 0.34903 0.0
H737 H 0.11055 0.72318 0.36558 0.0
H738 H 0.21368 0.76044 0.36063 0.0
H739 H 0.20293 0.70508 0.3401 0.0
C740 C 0.14448 0.65019 0.32731 0.0
C741 C 0.11249 0.62357 0.32144 0.0
C742 C 0.15059 0.68172 0.34061 0.0
C743 C 0.08657 0.62839 0.32995 0.0
C744 C 0.09241 0.65972 0.34319 0.0
C745 C 0.13065 0.71911 0.36026 0.0
C746 C 0.16286 0.7463 0.36465 0.0
C747 C 0.12439 0.68683 0.34827 0.0
C748 C 0.18856 0.74029 0.35758 0.0
C749 C 0.18252 0.7085 0.34572 0.0
H750 H 0.82596 0.0968 0.43435 0.0
H751 H 0.89778 0.06361 0.44904 0.0
H752 H 0.86023 1.00783 0.42362 0.0
H753 H 0.80624 0.968 0.39873 0.0
H754 H 0.7345 1.00194 0.38387 0.0
H755 H 0.77253 0.05768 0.40787 0.0
C756 C 0.83323 0.07725 0.43185 0.0
C757 C 0.86443 0.08405 0.4435 0.0
C758 C 0.81148 0.04536 0.41732 0.0
C759 C 0.87391 0.05884 0.43999 0.0
C760 C 0.85239 0.02698 0.42564 0.0
C761 C 0.79888 0.98756 0.40061 0.0
C762 C 0.76734 0.98047 0.38946 0.0
C763 C 0.82099 1.01983 0.41441 0.0
C764 C 0.75849 1.00642 0.39212 0.0
C765 C 0.78025 0.03842 0.40592 0.0
H766 H 0.95478 0.80605 0.4259 0.0
H767 H 0.934 0.70155 0.45242 0.0
H768 H 0.99088 0.71768 0.44359 0.0
H769 H 0.045 0.76045 0.42241 0.0
H770 H 0.06224 0.86254 0.38904 0.0
H771 H 1.00797 0.8483 0.40519 0.0
C772 C 0.96275 0.78681 0.42955 0.0
C773 C 0.94026 0.75251 0.43902 0.0
C774 C 0.99464 0.79578 0.42248 0.0
C775 C 0.95099 0.72807 0.44503 0.0
C776 C 0.98334 0.73724 0.43959 0.0
C777 C 0.03679 0.77951 0.41879 0.0
C778 C 0.05741 0.81243 0.40436 0.0
C779 C 1.00512 0.77077 0.42732 0.0
C780 C 0.04663 0.83695 0.39976 0.0
C781 C 0.0157 0.82889 0.40915 0.0
H782 H 0.20319 0.17158 0.42977 0.0
H783 H 0.30648 0.23187 0.41911 0.0
H784 H 0.30133 0.28367 0.40289 0.0
H785 H 0.2663 0.31105 0.38923 0.0
H786 H 0.16257 0.24826 0.39978 0.0
H787 H 0.16892 0.19851 0.41777 0.0
C788 C 0.22452 0.19615 0.42395 0.0
C789 C 0.25509 0.19797 0.42541 0.0
C790 C 0.22119 0.22537 0.41411 0.0
C791 C 0.28271 0.23 0.41836 0.0
C792 C 0.27967 0.25947 0.40877 0.0
C793 C 0.24513 0.28641 0.39521 0.0
C794 C 0.21398 0.28364 0.39282 0.0
C795 C 0.24889 0.25737 0.406 0.0
C796 C 0.18689 0.25149 0.40126 0.0
C797 C 0.19042 0.22281 0.41168 0.0
H798 H 0.60384 0.55225 0.74603 0.0
H799 H 0.63595 0.51333 0.83196 0.0
H800 H 0.6928 0.5551 0.82066 0.0
H801 H 0.7336 0.59754 0.78169 0.0
H802 H 0.70027 0.6309 0.69226 0.0
H803 H 0.64405 0.59627 0.70887 0.0
C804 C 0.62338 0.5535 0.76257 0.0
C805 C 0.61573 0.52998 0.78995 0.0
C806 C 0.65591 0.57605 0.75464 0.0
C807 C 0.64114 0.53169 0.81124 0.0
C808 C 0.67369 0.55516 0.80435 0.0
C809 C 0.714 0.59745 0.76608 0.0
C810 C 0.72111 0.61663 0.73565 0.0
C811 C 0.68143 0.57666 0.77545 0.0
C812 C 0.69547 0.61619 0.71563 0.0
C813 C 0.66328 0.59645 0.72516 0.0
H814 H 0.5035 0.0865 0.70248 0.0
H815 H 0.49776 0.09859 0.80666 0.0
H816 H 0.46013 0.12097 0.79401 0.0
H817 H 0.43175 0.14057 0.75352 0.0
H818 H 0.44136 0.13527 0.64874 0.0
H819 H 0.47507 0.1074 0.6611 0.0
C820 C 0.4938 0.094 0.72219 0.0
C821 C 0.50283 0.09047 0.75542 0.0
C822 C 0.47331 0.10844 0.71458 0.0
C823 C 0.49037 0.10029 0.78098 0.0
C824 C 0.4692 0.11344 0.77375 0.0
C825 C 0.44105 0.1331 0.73337 0.0
C826 C 0.43417 0.13977 0.70034 0.0
C827 C 0.46087 0.11805 0.74068 0.0
C828 C 0.44653 0.13034 0.67441 0.0
C829 C 0.46571 0.11442 0.68147 0.0
H830 H 0.86287 0.39509 0.76262 0.0
H831 H 0.96379 0.43751 0.74185 0.0
H832 H 0.95388 0.38004 0.72634 0.0
H833 H 0.91686 0.31753 0.72047 0.0
H834 H 0.81582 0.2741 0.7431 0.0
H835 H 0.82529 0.33184 0.75615 0.0
C836 C 0.88243 0.39155 0.75431 0.0
C837 C 0.91396 0.42024 0.75311 0.0
C838 C 0.87656 0.35824 0.74604 0.0
C839 C 0.93938 0.41562 0.74278 0.0
C840 C 0.9337 0.38282 0.73404 0.0
C841 C 0.8968 0.32057 0.72815 0.0
C842 C 0.86562 0.29126 0.7307 0.0
C843 C 0.90244 0.35386 0.73588 0.0
C844 C 0.84008 0.29601 0.74085 0.0
C845 C 0.84546 0.32911 0.74832 0.0
H846 H 0.17369 1.00604 0.64783 0.0
H847 H 0.23517 0.9591 0.65814 0.0
H848 H 0.28091 1.01406 0.67736 0.0
H849 H 0.30398 0.07646 0.68818 0.0
H850 H 0.24125 0.12243 0.67919 0.0
H851 H 0.19536 0.06678 0.66346 0.0
C852 C 0.19693 1.00773 0.65499 0.0
C853 C 0.2012 0.97873 0.65146 0.0
C854 C 0.2229 0.03927 0.66625 0.0
C855 C 0.23155 0.98131 0.6603 0.0
C856 C 0.2576 1.01265 0.67136 0.0
C857 C 0.28021 0.07425 0.68318 0.0
C858 C 0.27633 0.10386 0.68469 0.0
C859 C 0.2537 0.04201 0.67396 0.0
C860 C 0.24519 0.10028 0.67822 0.0
C861 C 0.21882 0.06841 0.66906 0.0
H862 H 0.07383 0.26519 0.62149 0.0
H863 H 0.04145 0.15581 0.63494 0.0
H864 H 0.99491 0.14817 0.66586 0.0
H865 H 0.96285 0.17287 0.68665 0.0
H866 H 0.99324 0.28166 0.66851 0.0
H867 H 0.0416 0.28973 0.64148 0.0
C868 C 0.05633 0.23973 0.63112 0.0
C869 C 0.06044 0.21098 0.6261 0.0
C870 C 0.02968 0.23569 0.64788 0.0
C871 C 0.03831 0.17807 0.63878 0.0
C872 C 1.01192 0.17383 0.65628 0.0
C873 C 0.98036 0.1984 0.67714 0.0
C874 C 0.97502 0.2268 0.67971 0.0
C875 C 1.00731 0.20247 0.66076 0.0
C876 C 0.99724 0.25961 0.66683 0.0
C877 C 0.02469 0.26416 0.65137 0.0
H878 H 0.76846 0.84219 0.6479 0.0
H879 H 0.83841 0.88565 0.57163 0.0
H880 H 0.85669 0.84299 0.58629 0.0
H881 H 0.85538 0.79578 0.62414 0.0
H882 H 0.78605 0.75438 0.70186 0.0
H883 H 0.76543 0.79379 0.68388 0.0
C884 C 0.78712 0.84158 0.63403 0.0
C885 C 0.80146 0.86632 0.60813 0.0
C886 C 0.79821 0.81782 0.64351 0.0
C887 C 0.82621 0.86604 0.5908 0.0
C888 C 0.83705 0.84204 0.59967 0.0
C889 C 0.83581 0.79542 0.63717 0.0
C890 C 0.82255 0.77211 0.66456 0.0
C891 C 0.82372 0.81824 0.62652 0.0
C892 C 0.79691 0.77193 0.68082 0.0
C893 C 0.78495 0.79446 0.67049 0.0
H894 H 0.09438 0.83343 0.62667 0.0
H895 H 0.07989 0.92266 0.62062 0.0
H896 H 0.02212 0.88555 0.63085 0.0
H897 H 0.97701 0.82855 0.64684 0.0
H898 H 0.98988 0.73821 0.65087 0.0
H899 H 0.04679 0.77454 0.63582 0.0
C900 C 0.07827 0.84443 0.62686 0.0
C901 C 0.09126 0.88069 0.62353 0.0
C902 C 0.04497 0.82277 0.63279 0.0
C903 C 0.07034 0.89485 0.62376 0.0
C904 C 0.0374 0.87366 0.62963 0.0
C905 C 0.99223 0.8168 0.64411 0.0
C906 C 0.97954 0.78093 0.65041 0.0
C907 C 0.02465 0.83775 0.63516 0.0
C908 C 0.99926 0.76586 0.6463 0.0
C909 C 0.03178 0.78663 0.63776 0.0
H910 H 0.18177 0.27779 0.65067 0.0
H911 H 0.17176 0.21648 0.56712 0.0
H912 H 0.2248 0.22118 0.58111 0.0
H913 H 0.26997 0.23557 0.62125 0.0
H914 H 0.27363 0.28367 0.7126 0.0
H915 H 0.22698 0.29095 0.69235 0.0
C916 C 0.19183 0.26635 0.63524 0.0
C917 C 0.17405 0.24875 0.60663 0.0
C918 C 0.22073 0.26606 0.64555 0.0
C919 C 0.18627 0.23242 0.58762 0.0
C920 C 0.21613 0.2343 0.59621 0.0
C921 C 0.2609 0.24823 0.63647 0.0
C922 C 0.27524 0.25948 0.66813 0.0
C923 C 0.23311 0.25023 0.62558 0.0
C924 C 0.2629 0.27501 0.68805 0.0
C925 C 0.23628 0.27909 0.67648 0.0
H926 H 0.84827 1.002 0.63086 0.0
H927 H 0.7447 0.94991 0.6401 0.0
H928 H 0.74856 1.00177 0.66435 0.0
H929 H 0.78173 0.0631 0.68095 0.0
H930 H 0.88569 0.11492 0.66976 0.0
H931 H 0.88144 0.06244 0.64851 0.0
C932 C 0.82676 1.00206 0.63877 0.0
C933 C 0.79635 0.97235 0.63432 0.0
C934 C 0.82923 0.03208 0.65211 0.0
C935 C 0.76835 0.9726 0.64379 0.0
C936 C 0.7706 1.00223 0.65747 0.0
C937 C 0.80345 0.06285 0.67405 0.0
C938 C 0.83392 0.09318 0.67701 0.0
C939 C 0.80093 0.03234 0.66148 0.0
C940 C 0.86179 0.09221 0.66776 0.0
C941 C 0.85949 0.06209 0.65556 0.0
H942 H 0.54155 0.39772 0.75472 0.0
H943 H 0.4786 0.44233 0.75714 0.0
H944 H 0.43443 0.39154 0.72956 0.0
H945 H 0.41295 0.33286 0.70791 0.0
H946 H 0.47663 0.28865 0.70498 0.0
H947 H 0.52141 0.34107 0.72858 0.0
C948 C 0.51833 0.39647 0.74849 0.0
C949 C 0.51322 0.42363 0.75764 0.0
C950 C 0.49322 0.36728 0.73251 0.0
C951 C 0.48289 0.4216 0.7502 0.0
C952 C 0.45775 0.39263 0.73445 0.0
C953 C 0.43672 0.33483 0.7119 0.0
C954 C 0.44114 0.30653 0.70477 0.0
C955 C 0.46248 0.36506 0.72587 0.0
C956 C 0.47228 0.30981 0.71021 0.0
C957 C 0.49799 0.3398 0.72391 0.0
H958 H 0.60795 0.05756 0.78023 0.0
H959 H 0.62034 0.15878 0.79704 0.0
H960 H 0.67769 0.18598 0.78313 0.0
H961 H 0.72191 0.18097 0.75842 0.0
H962 H 0.71011 0.07922 0.74447 0.0
H963 H 0.65495 0.05198 0.7648 0.0
C964 C 0.62366 0.08541 0.78204 0.0
C965 C 0.61015 0.10631 0.78906 0.0
C966 C 0.65635 0.10072 0.77352 0.0
C967 C 0.63043 0.1424 0.79131 0.0
C968 C 0.66302 0.1579 0.78301 0.0
C969 C 0.7072 0.15286 0.76003 0.0
C970 C 0.71949 0.13202 0.74922 0.0
C971 C 0.67583 0.1374 0.77259 0.0
C972 C 0.7008 0.09567 0.75226 0.0
C973 C 0.66935 0.08011 0.76397 0.0
H974 H 0.86688 0.50538 0.75982 0.0
H975 H 0.97039 0.57257 0.76013 0.0
H976 H 0.96257 0.62236 0.74249 0.0
H977 H 0.92548 0.64626 0.72495 0.0
H978 H 0.82174 0.57663 0.72393 0.0
H979 H 0.83042 0.52862 0.74296 0.0
C980 C 0.88766 0.53096 0.75597 0.0
C981 C 0.9191 0.53535 0.76116 0.0
C982 C 0.8829 0.55908 0.74524 0.0
C983 C 0.94593 0.5687 0.75663 0.0
C984 C 0.94142 0.59705 0.74621 0.0
C985 C 0.90484 0.62056 0.72872 0.0
C986 C 0.87299 0.61538 0.72295 0.0
C987 C 0.90993 0.59251 0.74002 0.0
C988 C 0.84656 0.58177 0.72827 0.0
C989 C 0.85142 0.55407 0.73922 0.0
H990 H 0.5377 0.0281 0.24845 0.0
H991 H 0.44038 0.94898 0.22275 0.0
H992 H 0.44972 0.96474 0.16349 0.0
H993 H 0.48601 1.00203 0.11921 0.0
H994 H 0.58427 0.07922 0.14556 0.0
H995 H 0.57434 0.06373 0.20437 0.0
C996 C 0.51889 1.01408 0.22968 0.0
C997 C 0.48852 0.98768 0.23952 0.0
C998 C 0.52449 0.02339 0.19596 0.0
C999 C 0.46391 0.96964 0.21537 0.0
C1000 C 0.46922 0.97872 0.18165 0.0
C1001 C 0.50494 1.01571 0.1379 0.0
C1002 C 0.5356 0.04201 0.12827 0.0
C1003 C 0.49934 1.0059 0.17167 0.0
C1004 C 0.56035 0.05904 0.15258 0.0
C1005 C 0.55479 0.05009 0.18615 0.0
H1006 H 0.10837 0.54767 0.20958 0.0
H1007 H 0.02287 0.50758 0.26675 0.0
H1008 H 0.98879 0.49674 0.21581 0.0
H1009 H 0.98519 0.50992 0.15571 0.0
H1010 H 0.07001 0.5458 0.09768 0.0
H1011 H 0.10249 0.54723 0.14777 0.0
C1012 C 0.08211 0.5347 0.21067 0.0
C1013 C 0.06807 0.52826 0.24185 0.0
C1014 C 0.06274 0.52921 0.18107 0.0
C1015 C 0.03405 0.51215 0.24301 0.0
C1016 C 0.01468 0.50671 0.21386 0.0
C1017 C 1.01063 0.51736 0.15398 0.0
C1018 C 0.02536 0.52883 0.12313 0.0
C1019 C 0.02899 0.51696 0.18285 0.0
C1020 C 0.05816 0.53762 0.12114 0.0
C1021 C 0.0768 0.53833 0.14986 0.0
H1022 H 0.44577 0.56182 0.19256 0.0
H1023 H 0.5158 0.55832 0.26389 0.0
H1024 H 0.53204 0.53086 0.22353 0.0
H1025 H 0.53267 0.51843 0.16466 0.0
H1026 H 0.45653 0.51278 0.09663 0.0
H1027 H 0.43496 0.53187 0.13932 0.0
C1028 C 0.46275 0.5527 0.20018 0.0
C1029 C 0.47917 0.56147 0.23137 0.0
C1030 C 0.47133 0.53614 0.17711 0.0
C1031 C 0.50263 0.55128 0.24011 0.0
C1032 C 0.51214 0.536 0.21693 0.0
C1033 C 0.51072 0.52031 0.15954 0.0
C1034 C 0.497 0.51575 0.12704 0.0
C1035 C 0.49769 0.52987 0.18481 0.0
C1036 C 0.46816 0.5173 0.12096 0.0
C1037 C 0.45579 0.52821 0.14551 0.0
H1038 H 0.91693 0.50982 0.84703 0.0
H1039 H 1.00668 0.54519 0.79844 0.0
H1040 H 0.0377 0.56991 0.85023 0.0
H1041 H 0.03843 0.57133 0.91116 0.0
H1042 H 0.94823 0.53278 0.96069 0.0
H1043 H 0.91818 0.52001 0.90707 0.0
C1044 C 0.94328 0.52433 0.84771 0.0
C1045 C 0.95971 0.52622 0.81916 0.0
C1046 C 0.96075 0.53714 0.87797 0.0
C1047 C 0.9938 0.54412 0.82016 0.0
C1048 C 1.01141 0.55777 0.84984 0.0
C1049 C 1.01229 0.56096 0.91015 0.0
C1050 C 0.99554 0.55243 0.93987 0.0
C1051 C 0.99509 0.55295 0.87924 0.0
C1052 C 0.96169 0.53927 0.93818 0.0
C1053 C 0.94445 0.5318 0.9075 0.0
H1054 H 0.53639 0.52926 0.82978 0.0
H1055 H 0.59514 0.48625 0.87246 0.0
H1056 H 0.58526 0.49684 0.92848 0.0
H1057 H 0.55086 0.50749 0.96483 0.0
H1058 H 0.48828 0.54579 0.92161 0.0
H1059 H 0.50799 0.54756 0.86642 0.0
C1060 C 0.54826 0.52391 0.85142 0.0
C1061 C 0.56733 0.50808 0.84702 0.0
C1062 C 0.54078 0.52821 0.8835 0.0
C1063 C 0.58152 0.49975 0.87518 0.0
C1064 C 0.57519 0.50507 0.90724 0.0
C1065 C 0.54278 0.5178 0.94357 0.0
C1066 C 0.5188 0.52741 0.94737 0.0
C1067 C 0.55369 0.51787 0.91173 0.0
C1068 C 0.50709 0.5388 0.91929 0.0
C1069 C 0.51828 0.53968 0.88773 0.0
H1070 H 0.53846 0.09216 0.8502 0.0
H1071 H 0.57392 0.02152 0.83366 0.0
H1072 H 0.56371 0.99962 0.89179 0.0
H1073 H 0.53656 0.99494 0.94471 0.0
H1074 H 0.48867 0.05593 0.95286 0.0
H1075 H 0.51116 0.08708 0.90098 0.0
C1076 C 0.54475 0.07265 0.85982 0.0
C1077 C 0.55709 0.05858 0.83814 0.0
C1078 C 0.53561 0.05791 0.89163 0.0
C1079 C 0.56476 0.03292 0.85021 0.0
C1080 C 0.55837 1.02008 0.88319 0.0
C1081 C 0.53136 1.01523 0.93505 0.0
C1082 C 0.51149 0.02364 0.95278 0.0
C1083 C 0.54245 0.03135 0.9037 0.0
C1084 C 0.5043 0.04943 0.93992 0.0
C1085 C 0.51712 0.06722 0.91022 0.0
H1086 H 0.17375 0.25792 0.53133 0.0
H1087 H 0.11921 0.30442 0.56452 0.0
H1088 H 0.13984 0.34838 0.51954 0.0
H1089 H 0.17231 0.37211 0.46912 0.0
H1090 H 0.23791 0.3347 0.44723 0.0
H1091 H 0.21506 0.28924 0.49019 0.0
C1092 C 0.16747 0.27838 0.52995 0.0
C1093 C 0.14458 0.27743 0.551 0.0
C1094 C 0.18126 0.30505 0.50572 0.0
C1095 C 0.13608 0.30398 0.54782 0.0
C1096 C 0.14799 0.32924 0.5223 0.0
C1097 C 0.18167 0.35414 0.4741 0.0
C1098 C 0.20561 0.35564 0.45422 0.0
C1099 C 0.17025 0.32969 0.50069 0.0
C1100 C 0.2186 0.33321 0.46155 0.0
C1101 C 0.20572 0.30731 0.48623 0.0
H1102 H 0.71707 0.86924 0.56416 0.0
H1103 H 0.81028 0.8981 0.5264 0.0
H1104 H 0.78618 0.88502 0.46982 0.0
H1105 H 0.74045 0.87615 0.43029 0.0
H1106 H 0.64956 0.85641 0.46873 0.0
H1107 H 0.67041 0.85514 0.52548 0.0
C1108 C 0.73166 0.87112 0.5436 0.0
C1109 C 0.7652 0.88382 0.54948 0.0
C1110 C 0.71806 0.8663 0.51101 0.0
C1111 C 0.78426 0.88727 0.52267 0.0
C1112 C 0.77055 0.88057 0.4902 0.0
C1113 C 0.72508 0.87095 0.45109 0.0
C1114 C 0.69355 0.86663 0.44537 0.0
C1115 C 0.73779 0.87173 0.48389 0.0
C1116 C 0.67395 0.86004 0.47255 0.0
C1117 C 0.68586 0.8593 0.505 0.0
H1118 H 0.16335 0.85524 0.59482 0.0
H1119 H 0.11474 0.90729 0.54639 0.0
H1120 H 0.11739 0.88573 0.49242 0.0
H1121 H 0.14273 0.86101 0.45858 0.0
H1122 H 0.19294 0.81045 0.50784 0.0
H1123 H 0.18011 0.82175 0.56191 0.0
C1124 C 0.15223 0.86053 0.57251 0.0
C1125 C 0.13877 0.88253 0.57423 0.0
C1126 C 0.1548 0.84888 0.54172 0.0
C1127 C 0.12481 0.88997 0.5454 0.0
C1128 C 0.12676 0.87803 0.51461 0.0
C1129 C 0.15013 0.85171 0.48116 0.0
C1130 C 0.16933 0.83553 0.47925 0.0
C1131 C 0.14307 0.85881 0.5123 0.0
C1132 C 0.17851 0.82335 0.50866 0.0
C1133 C 0.17126 0.8299 0.53962 0.0
H1134 H 0.65963 0.85373 0.14724 0.0
H1135 H 0.57252 0.83981 0.18924 0.0
H1136 H 0.60291 0.86521 0.24145 0.0
H1137 H 0.65273 0.88214 0.27764 0.0
H1138 H 0.73825 0.89105 0.23529 0.0
H1139 H 0.71062 0.8777 0.18069 0.0
C1140 C 0.64772 0.85738 0.16758 0.0
C1141 C 0.61413 0.84502 0.16478 0.0
C1142 C 0.66508 0.87065 0.1976 0.0
C1143 C 0.59852 0.84949 0.19105 0.0
C1144 C 0.61583 0.8636 0.22092 0.0
C1145 C 0.66542 0.88183 0.25632 0.0
C1146 C 0.69732 0.88702 0.26055 0.0
C1147 C 0.64889 0.87289 0.22497 0.0
C1148 C 0.71358 0.88678 0.23266 0.0
C1149 C 0.69778 0.87905 0.20143 0.0
H1150 H 0.25727 0.82267 0.21614 0.0
H1151 H 0.20455 0.86105 0.15263 0.0
H1152 H 0.18686 0.87744 0.20106 0.0
H1153 H 0.17858 0.87095 0.26156 0.0
H1154 H 0.23366 0.83547 0.32549 0.0
H1155 H 0.25818 0.82778 0.27738 0.0
C1156 C 0.24335 0.83628 0.21304 0.0
C1157 C 0.23237 0.84092 0.18091 0.0
C1158 C 0.23272 0.84495 0.24122 0.0
C1159 C 0.21367 0.85784 0.17714 0.0
C1160 C 0.20305 0.86655 0.20487 0.0
C1161 C 0.19641 0.86216 0.26494 0.0
C1162 C 0.20367 0.85301 0.29708 0.0
C1163 C 0.21109 0.85862 0.23705 0.0
C1164 C 0.22725 0.84225 0.30112 0.0
C1165 C 0.24135 0.83786 0.2735 0.0
H1166 H 0.18229 0.36751 0.1596 0.0
H1167 H 0.26714 0.46295 0.18717 0.0
H1168 H 0.26031 0.44404 0.24596 0.0
H1169 H 0.22454 0.4044 0.28941 0.0
H1170 H 0.13692 0.31156 0.26148 0.0
H1171 H 0.14948 0.32557 0.20276 0.0
C1172 C 0.19982 0.38346 0.17857 0.0
C1173 C 0.2253 0.41628 0.16936 0.0
C1174 C 0.19451 0.37324 0.21214 0.0
C1175 C 0.24776 0.43731 0.19379 0.0
C1176 C 0.24347 0.42671 0.22737 0.0
C1177 C 0.20905 0.38664 0.27055 0.0
C1178 C 0.18033 0.35665 0.27964 0.0
C1179 C 0.21619 0.39532 0.23688 0.0
C1180 C 0.15923 0.33472 0.2549 0.0
C1181 C 0.16647 0.34266 0.22143 0.0
H1182 H 0.86192 0.73735 0.90158 0.0
H1183 H 0.82644 0.62723 0.89961 0.0
H1184 H 0.83562 0.63173 0.83991 0.0
H1185 H 0.84822 0.66634 0.78752 0.0
H1186 H 0.88324 0.77676 0.78926 0.0
H1187 H 0.87906 0.77299 0.84976 0.0
C1188 C 0.85722 0.7147 0.88802 0.0
C1189 C 0.84389 0.68211 0.90456 0.0
C1190 C 0.86142 0.71745 0.85367 0.0
C1191 C 0.83733 0.65259 0.88718 0.0
C1192 C 0.84202 0.65513 0.85307 0.0
C1193 C 0.85483 0.68953 0.80118 0.0
C1194 C 0.86548 0.72171 0.78412 0.0
C1195 C 0.85298 0.68724 0.83589 0.0
C1196 C 0.87462 0.75169 0.80203 0.0
C1197 C 0.87244 0.74958 0.83654 0.0
H1198 H 0.45518 0.22221 0.87321 0.0
H1199 H 0.36627 0.17698 0.92524 0.0
H1200 H 0.33453 0.16281 0.87243 0.0
H1201 H 0.33303 0.17339 0.81153 0.0
H1202 H 0.42266 0.22002 0.75969 0.0
H1203 H 0.45309 0.22344 0.81177 0.0
C1204 C 0.42884 0.2076 0.8728 0.0
C1205 C 0.41297 0.20013 0.90293 0.0
C1206 C 0.41093 0.20093 0.84223 0.0
C1207 C 0.37883 0.18221 0.90228 0.0
C1208 C 0.36078 0.17479 0.87206 0.0
C1209 C 0.35913 0.1837 0.81161 0.0
C1210 C 0.37554 0.19698 0.7818 0.0
C1211 C 0.37664 0.18564 0.84186 0.0
C1212 C 0.40937 0.2099 0.78226 0.0
C1213 C 0.42688 0.2119 0.81211 0.0
H1214 H 0.83717 0.2088 0.91391 0.0
H1215 H 0.76403 0.22767 0.86377 0.0
H1216 H 0.7705 0.20489 0.81229 0.0
H1217 H 0.80519 0.19118 0.77952 0.0
H1218 H 0.88451 0.18224 0.82885 0.0
H1219 H 0.86769 0.1892 0.88266 0.0
C1220 C 0.82191 0.20662 0.89191 0.0
C1221 C 0.79999 0.21943 0.89247 0.0
C1222 C 0.82759 0.196 0.8621 0.0
C1223 C 0.78056 0.21725 0.86395 0.0
C1224 C 0.78473 0.20481 0.83443 0.0
C1225 C 0.81809 0.18971 0.80212 0.0
C1226 C 0.84596 0.1861 0.80038 0.0
C1227 C 0.80934 0.19577 0.83282 0.0
C1228 C 0.86295 0.18493 0.82977 0.0
C1229 C 0.85342 0.18905 0.86048 0.0
H1230 H 0.25563 0.16997 0.51041 0.0
H1231 H 0.34143 0.20063 0.45614 0.0
H1232 H 0.37571 0.2234 0.50674 0.0
H1233 H 0.38005 0.22546 0.56798 0.0
H1234 H 0.29323 0.19063 0.6227 0.0
H1235 H 0.26066 0.17921 0.57087 0.0
C1236 C 0.28192 0.18304 0.50965 0.0
C1237 C 0.29623 0.1843 0.47975 0.0
C1238 C 0.30118 0.19459 0.53917 0.0
C1239 C 0.3302 0.20017 0.4789 0.0
C1240 C 0.34964 0.21266 0.5079 0.0
C1241 C 0.35411 0.21603 0.56849 0.0
C1242 C 0.33913 0.20875 0.59922 0.0
C1243 C 0.33529 0.20862 0.53847 0.0
C1244 C 0.30546 0.19654 0.59945 0.0
C1245 C 0.28672 0.1898 0.56976 0.0
H1246 H 0.8647 0.18402 0.50234 0.0
H1247 H 0.94625 0.17871 0.54982 0.0
H1248 H 0.93428 0.19383 0.60311 0.0
H1249 H 0.89416 0.1976 0.6376 0.0
H1250 H 0.80776 0.19268 0.58993 0.0
H1251 H 0.82743 0.19214 0.53552 0.0
C1252 C 0.88041 0.18736 0.52422 0.0
C1253 C 0.90625 0.1803 0.52227 0.0
C1254 C 0.87171 0.19316 0.55496 0.0
C1255 C 0.92645 0.18441 0.55068 0.0
C1256 C 0.91916 0.19238 0.58123 0.0
C1257 C 0.88005 0.19717 0.61528 0.0
C1258 C 0.8495 0.19524 0.61782 0.0
C1259 C 0.89087 0.19512 0.58398 0.0
C1260 C 0.83124 0.19409 0.58863 0.0
C1261 C 0.84251 0.19381 0.5575 0.0
H1262 H 0.85815 0.66272 0.49194 0.0
H1263 H 0.92734 0.77015 0.50768 0.0
H1264 H 0.9211 0.76055 0.56787 0.0
H1265 H 0.88655 0.72484 0.6134 0.0
H1266 H 0.81477 0.61784 0.59734 0.0
H1267 H 0.83075 0.62384 0.53967 0.0
C1268 C 0.87298 0.68343 0.50888 0.0
C1269 C 0.89309 0.71705 0.49572 0.0
C1270 C 0.86762 0.67805 0.54308 0.0
C1271 C 0.91203 0.74405 0.51747 0.0
C1272 C 0.90785 0.73867 0.55174 0.0
C1273 C 0.87499 0.70257 0.59754 0.0
C1274 C 0.84919 0.67107 0.60937 0.0
C1275 C 0.88422 0.70633 0.5645 0.0
C1276 C 0.83442 0.64243 0.58861 0.0
C1277 C 0.84361 0.64586 0.5557 0.0
loop_
_geom_bond_atom_site_label_1
_geom_bond_atom_site_label_2
_geom_bond_distance
_geom_bond_site_symmetry_2
_ccdc_geom_bond_type
C0 N1 1.317 . S
C0 N2 1.348 . S
C0 C3 1.485 . S
N1 C0 1.317 . S
N1 N5 1.370 . S
N2 C0 1.348 . S
N2 C4 1.346 . S
C3 C0 1.485 . S
C3 H7 0.960 . S
C3 H8 0.961 . S
C3 H9 0.960 . S
C4 N2 1.346 . S
C4 N5 1.307 . S
C4 C6 1.486 . S
N5 N1 1.370 . S
N5 C4 1.307 . S
C6 C4 1.486 . S
C6 H10 0.960 . S
C6 H11 0.960 . S
C6 H12 0.959 . S
H7 C3 0.960 . S
H8 C3 0.961 . S
H9 C3 0.960 . S
H10 C6 0.960 . S
H11 C6 0.960 . S
H12 C6 0.959 . S
C13 N14 1.317 . S
C13 N15 1.348 . S
C13 C16 1.485 . S
N14 C13 1.317 . S
N14 N18 1.370 . S
N15 C13 1.348 . S
N15 C17 1.346 . S
C16 C13 1.485 . S
C16 H20 0.960 . S
C16 H21 0.961 . S
C16 H22 0.960 . S
C17 N15 1.346 . S
C17 N18 1.307 . S
C17 C19 1.486 . S
N18 N14 1.370 . S
N18 C17 1.307 . S
C19 C17 1.486 . S
C19 H23 0.960 . S
C19 H24 0.960 . S
C19 H25 0.959 . S
H20 C16 0.960 . S
H21 C16 0.961 . S
H22 C16 0.960 . S
H23 C19 0.960 . S
H24 C19 0.960 . S
H25 C19 0.959 . S
C26 N27 1.317 . S
C26 N28 1.348 . S
C26 C29 1.485 . S
N27 C26 1.317 . S
N27 N31 1.370 . S
N28 C26 1.348 . S
N28 C30 1.346 . S
C29 C26 1.485 . S
C29 H33 0.960 . S
C29 H34 0.961 . S
C29 H35 0.960 . S
C30 N28 1.346 . S
C30 N31 1.307 . S
C30 C32 1.486 . S
N31 N27 1.370 . S
N31 C30 1.307 . S
C32 C30 1.486 . S
C32 H36 0.960 . S
C32 H37 0.960 . S
C32 H38 0.959 . S
H33 C29 0.960 . S
H34 C29 0.961 . S
H35 C29 0.960 . S
H36 C32 0.960 . S
H37 C32 0.960 . S
H38 C32 0.959 . S
C39 N40 1.317 . S
C39 N41 1.348 . S
C39 C42 1.485 . S
N40 C39 1.317 . S
N40 N44 1.370 . S
N41 C39 1.348 . S
N41 C43 1.346 . S
C42 C39 1.485 . S
C42 H46 0.960 . S
C42 H47 0.961 . S
C42 H48 0.960 . S
C43 N41 1.346 . S
C43 N44 1.307 . S
C43 C45 1.486 . S
N44 N40 1.370 . S
N44 C43 1.307 . S
C45 C43 1.486 . S
C45 H49 0.960 . S
C45 H50 0.960 . S
C45 H51 0.959 . S
H46 C42 0.960 . S
H47 C42 0.961 . S
H48 C42 0.960 . S
H49 C45 0.960 . S
H50 C45 0.960 . S
H51 C45 0.959 . S
C52 N53 1.317 . S
C52 N54 1.348 . S
C52 C55 1.485 . S
N53 C52 1.317 . S
N53 N57 1.370 . S
N54 C52 1.348 . S
N54 C56 1.346 . S
C55 C52 1.485 . S
C55 H59 0.960 . S
C55 H60 0.961 . S
C55 H61 0.960 . S
C56 N54 1.346 . S
C56 N57 1.307 . S
C56 C58 1.486 . S
N57 N53 1.370 . S
N57 C56 1.307 . S
C58 C56 1.486 . S
C58 H62 0.960 . S
C58 H63 0.960 . S
C58 H64 0.959 . S
H59 C55 0.960 . S
H60 C55 0.961 . S
H61 C55 0.960 . S
H62 C58 0.960 . S
H63 C58 0.960 . S
H64 C58 0.959 . S
C65 N66 1.317 . S
C65 N67 1.348 . S
C65 C68 1.485 . S
N66 C65 1.317 . S
N66 N70 1.370 . S
N67 C65 1.348 . S
N67 C69 1.346 . S
C68 C65 1.485 . S
C68 H72 0.960 . S
C68 H73 0.961 . S
C68 H74 0.960 . S
C69 N67 1.346 . S
C69 N70 1.307 . S
C69 C71 1.486 . S
N70 N66 1.370 . S
N70 C69 1.307 . S
C71 C69 1.486 . S
C71 H75 0.960 . S
C71 H76 0.960 . S
C71 H77 0.959 . S
H72 C68 0.960 . S
H73 C68 0.961 . S
H74 C68 0.960 . S
H75 C71 0.960 . S
H76 C71 0.960 . S
H77 C71 0.959 . S
C78 N79 1.317 . S
C78 N80 1.348 . S
C78 C81 1.485 . S
N79 C78 1.317 . S
N79 N83 1.370 . S
N80 C78 1.348 . S
N80 C82 1.346 . S
C81 C78 1.485 . S
C81 H85 0.960 . S
C81 H86 0.961 . S
C81 H87 0.960 . S
C82 N80 1.346 . S
C82 N83 1.307 . S
C82 C84 1.486 . S
N83 N79 1.370 . S
N83 C82 1.307 . S
C84 C82 1.486 . S
C84 H88 0.960 . S
C84 H89 0.960 . S
C84 H90 0.959 . S
H85 C81 0.960 . S
H86 C81 0.961 . S
H87 C81 0.960 . S
H88 C84 0.960 . S
H89 C84 0.960 . S
H90 C84 0.959 . S
C91 N92 1.317 . S
C91 N93 1.348 . S
C91 C94 1.485 . S
N92 C91 1.317 . S
N92 N96 1.370 . S
N93 C91 1.348 . S
N93 C95 1.346 . S
C94 C91 1.485 . S
C94 H98 0.960 . S
C94 H99 0.961 . S
C94 H100 0.960 . S
C95 N93 1.346 . S
C95 N96 1.307 . S
C95 C97 1.486 . S
N96 N92 1.370 . S
N96 C95 1.307 . S
C97 C95 1.486 . S
C97 H101 0.960 . S
C97 H102 0.960 . S
C97 H103 0.959 . S
H98 C94 0.960 . S
H99 C94 0.961 . S
H100 C94 0.960 . S
H101 C97 0.960 . S
H102 C97 0.960 . S
H103 C97 0.959 . S
C104 N105 1.317 . S
C104 N106 1.348 . S
C104 C107 1.485 . S
N105 C104 1.317 . S
N105 N109 1.370 . S
N106 C104 1.348 . S
N106 C108 1.346 . S
C107 C104 1.485 . S
C107 H111 0.960 . S
C107 H112 0.961 . S
C107 H113 0.960 . S
C108 N106 1.346 . S
C108 N109 1.307 . S
C108 C110 1.486 . S
N109 N105 1.370 . S
N109 C108 1.307 . S
C110 C108 1.486 . S
C110 H114 0.960 . S
C110 H115 0.960 . S
C110 H116 0.959 . S
H111 C107 0.960 . S
H112 C107 0.961 . S
H113 C107 0.960 . S
H114 C110 0.960 . S
H115 C110 0.960 . S
H116 C110 0.959 . S
C117 N118 1.317 . S
C117 N119 1.348 . S
C117 C120 1.485 . S
N118 C117 1.317 . S
N118 N122 1.370 . S
N119 C117 1.348 . S
N119 C121 1.346 . S
C120 C117 1.485 . S
C120 H124 0.960 . S
C120 H125 0.961 . S
C120 H126 0.960 . S
C121 N119 1.346 . S
C121 N122 1.307 . S
C121 C123 1.486 . S
N122 N118 1.370 . S
N122 C121 1.307 . S
C123 C121 1.486 . S
C123 H127 0.960 . S
C123 H128 0.960 . S
C123 H129 0.959 . S
H124 C120 0.960 . S
H125 C120 0.961 . S
H126 C120 0.960 . S
H127 C123 0.960 . S
H128 C123 0.960 . S
H129 C123 0.959 . S
C130 N131 1.317 . S
C130 N132 1.348 . S
C130 C133 1.485 1_556 S
N131 C130 1.317 . S
N131 N135 1.370 . S
N132 C130 1.348 . S
N132 C134 1.346 . S
C133 C130 1.485 1_554 S
C133 H137 0.960 . S
C133 H138 0.961 . S
C133 H139 0.960 . S
C134 N132 1.346 . S
C134 N135 1.307 . S
C134 C136 1.486 . S
N135 N131 1.370 . S
N135 C134 1.307 . S
C136 C134 1.486 . S
C136 H140 0.960 . S
C136 H141 0.960 . S
C136 H142 0.959 . S
H137 C133 0.960 . S
H138 C133 0.961 . S
H139 C133 0.960 . S
H140 C136 0.960 . S
H141 C136 0.960 . S
H142 C136 0.959 . S
C143 N144 1.317 . S
C143 N145 1.348 . S
C143 C146 1.485 1_556 S
N144 C143 1.317 . S
N144 N148 1.370 . S
N145 C143 1.348 . S
N145 C147 1.346 . S
C146 C143 1.485 1_554 S
C146 H150 0.960 . S
C146 H151 0.961 . S
C146 H152 0.960 . S
C147 N145 1.346 . S
C147 N148 1.307 . S
C147 C149 1.486 . S
N148 N144 1.370 . S
N148 C147 1.307 . S
C149 C147 1.486 . S
C149 H153 0.960 . S
C149 H154 0.960 . S
C149 H155 0.959 . S
H150 C146 0.960 . S
H151 C146 0.961 . S
H152 C146 0.960 . S
H153 C149 0.960 . S
H154 C149 0.960 . S
H155 C149 0.959 . S
C156 N157 1.317 . S
C156 N158 1.348 . S
C156 C159 1.485 . S
N157 C156 1.317 . S
N157 N161 1.370 . S
N158 C156 1.348 . S
N158 C160 1.346 . S
C159 C156 1.485 . S
C159 H163 0.960 . S
C159 H164 0.961 . S
C159 H165 0.960 . S
C160 N158 1.346 . S
C160 N161 1.307 . S
C160 C162 1.486 . S
N161 N157 1.370 . S
N161 C160 1.307 . S
C162 C160 1.486 . S
C162 H166 0.960 . S
C162 H167 0.960 . S
C162 H168 0.959 . S
H163 C159 0.960 . S
H164 C159 0.961 . S
H165 C159 0.960 . S
H166 C162 0.960 . S
H167 C162 0.960 . S
H168 C162 0.959 . S
C169 N170 1.317 . S
C169 N171 1.348 . S
C169 C172 1.485 . S
N170 C169 1.317 . S
N170 N174 1.370 . S
N171 C169 1.348 . S
N171 C173 1.346 . S
C172 C169 1.485 . S
C172 H176 0.960 . S
C172 H177 0.961 . S
C172 H178 0.960 . S
C173 N171 1.346 . S
C173 N174 1.307 . S
C173 C175 1.486 . S
N174 N170 1.370 . S
N174 C173 1.307 . S
C175 C173 1.486 . S
C175 H179 0.960 . S
C175 H180 0.960 . S
C175 H181 0.959 . S
H176 C172 0.960 . S
H177 C172 0.961 . S
H178 C172 0.960 . S
H179 C175 0.960 . S
H180 C175 0.960 . S
H181 C175 0.959 . S
C182 N183 1.317 . S
C182 N184 1.348 . S
C182 C185 1.485 . S
N183 C182 1.317 . S
N183 N187 1.370 . S
N184 C182 1.348 . S
N184 C186 1.346 . S
C185 C182 1.485 . S
C185 H189 0.960 . S
C185 H190 0.961 . S
C185 H191 0.960 . S
C186 N184 1.346 . S
C186 N187 1.307 . S
C186 C188 1.486 . S
N187 N183 1.370 . S
N187 C186 1.307 . S
C188 C186 1.486 . S
C188 H192 0.960 . S
C188 H193 0.960 . S
C188 H194 0.959 . S
H189 C185 0.960 . S
H190 C185 0.961 . S
H191 C185 0.960 . S
H192 C188 0.960 . S
H193 C188 0.960 . S
H194 C188 0.959 . S
C195 N196 1.317 . S
C195 N197 1.348 . S
C195 C198 1.485 . S
N196 C195 1.317 . S
N196 N200 1.370 . S
N197 C195 1.348 . S
N197 C199 1.346 . S
C198 C195 1.485 . S
C198 H202 0.960 . S
C198 H203 0.961 . S
C198 H204 0.960 . S
C199 N197 1.346 . S
C199 N200 1.307 . S
C199 C201 1.486 . S
N200 N196 1.370 . S
N200 C199 1.307 . S
C201 C199 1.486 . S
C201 H205 0.960 . S
C201 H206 0.960 . S
C201 H207 0.959 . S
H202 C198 0.960 . S
H203 C198 0.961 . S
H204 C198 0.960 . S
H205 C201 0.960 . S
H206 C201 0.960 . S
H207 C201 0.959 . S
C208 N209 1.317 . S
C208 N210 1.348 . S
C208 C211 1.485 . S
N209 C208 1.317 . S
N209 N213 1.370 . S
N210 C208 1.348 . S
N210 C212 1.346 . S
C211 C208 1.485 . S
C211 H215 0.960 . S
C211 H216 0.961 . S
C211 H217 0.960 . S
C212 N210 1.346 . S
C212 N213 1.307 . S
C212 C214 1.486 . S
N213 N209 1.370 . S
N213 C212 1.307 . S
C214 C212 1.486 . S
C214 H218 0.960 . S
C214 H219 0.960 . S
C214 H220 0.959 . S
H215 C211 0.960 . S
H216 C211 0.961 . S
H217 C211 0.960 . S
H218 C214 0.960 . S
H219 C214 0.960 . S
H220 C214 0.959 . S
C221 N222 1.317 . S
C221 N223 1.348 . S
C221 C224 1.485 . S
N222 C221 1.317 . S
N222 N226 1.370 . S
N223 C221 1.348 . S
N223 C225 1.346 . S
C224 C221 1.485 . S
C224 H228 0.960 . S
C224 H229 0.961 . S
C224 H230 0.960 . S
C225 N223 1.346 . S
C225 N226 1.307 . S
C225 C227 1.486 . S
N226 N222 1.370 . S
N226 C225 1.307 . S
C227 C225 1.486 . S
C227 H231 0.960 . S
C227 H232 0.960 . S
C227 H233 0.959 . S
H228 C224 0.960 . S
H229 C224 0.961 . S
H230 C224 0.960 . S
H231 C227 0.960 . S
H232 C227 0.960 . S
H233 C227 0.959 . S
Tb234 O237 2.453 . S
Tb234 O238 2.596 1_545 S
Tb234 O239 2.374 1_545 S
Tb234 O247 2.343 1_554 S
Tb234 O249 2.353 . S
Tb234 O251 2.427 . S
Tb234 O252 2.513 . S
C235 O239 1.251 . S
C235 O241 1.263 . S
Tb236 O238 2.343 . S
Tb236 O241 2.353 . S
Tb236 O244 2.427 . S
Tb236 O245 2.513 . S
Tb236 O246 2.453 1_554 S
Tb236 O247 2.596 1_564 S
Tb236 O248 2.374 1_565 S
O237 Tb234 2.453 . S
O237 C253 1.245 1_545 S
O238 Tb234 2.596 1_565 S
O238 Tb236 2.343 . S
O238 C253 1.259 . S
O239 Tb234 2.374 1_565 S
O239 C235 1.251 . S
C240 O244 1.275 . S
C240 O245 1.246 . S
O241 C235 1.263 . S
O241 Tb236 2.353 . S
C242 O246 1.245 1_545 S
C242 O247 1.259 . S
C243 O248 1.250 . S
C243 O249 1.263 . S
O244 Tb236 2.427 . S
O244 C240 1.275 . S
O245 Tb236 2.513 . S
O245 C240 1.246 . S
O246 Tb236 2.453 1_556 S
O246 C242 1.245 1_565 S
O247 Tb234 2.343 1_556 S
O247 Tb236 2.596 1_546 S
O247 C242 1.259 . S
O248 Tb236 2.374 1_545 S
O248 C243 1.250 . S
O249 Tb234 2.353 . S
O249 C243 1.263 . S
C250 O251 1.275 . S
C250 O252 1.246 . S
O251 Tb234 2.427 . S
O251 C250 1.275 . S
O252 Tb234 2.513 . S
O252 C250 1.246 . S
C253 O237 1.245 1_565 S
C253 O238 1.259 . S
Tb254 O257 2.453 . S
Tb254 O258 2.596 1_655 S
Tb254 O259 2.374 1_655 S
Tb254 O267 2.343 1_554 S
Tb254 O269 2.353 . S
Tb254 O271 2.427 1_554 S
Tb254 O272 2.513 1_554 S
C255 O259 1.251 . S
C255 O261 1.249 1_554 S
Tb256 O258 2.343 1_556 S
Tb256 O261 2.357 . S
Tb256 O264 2.427 1_556 S
Tb256 O265 2.513 1_556 S
Tb256 O266 2.453 . S
Tb256 O267 2.596 1_455 S
Tb256 O268 2.376 1_455 S
O257 Tb254 2.453 . S
O257 C273 1.245 1_655 S
O258 Tb254 2.596 1_455 S
O258 Tb256 2.343 1_554 S
O258 C273 1.259 . S
O259 Tb254 2.374 1_455 S
O259 C255 1.251 . S
C260 O264 1.275 . S
C260 O265 1.246 . S
O261 C255 1.249 1_556 S
O261 Tb256 2.357 . S
C262 O266 1.225 1_655 S
C262 O267 1.265 . S
C263 O268 1.247 1_554 S
C263 O269 1.263 . S
O264 Tb256 2.427 1_554 S
O264 C260 1.275 . S
O265 Tb256 2.513 1_554 S
O265 C260 1.246 . S
O266 Tb256 2.453 . S
O266 C262 1.225 1_455 S
O267 Tb254 2.343 1_556 S
O267 Tb256 2.596 1_655 S
O267 C262 1.265 . S
O268 Tb256 2.376 1_655 S
O268 C263 1.247 1_556 S
O269 Tb254 2.353 . S
O269 C263 1.263 . S
C270 O271 1.275 . S
C270 O272 1.246 . S
O271 Tb254 2.427 1_556 S
O271 C270 1.275 . S
O272 Tb254 2.513 1_556 S
O272 C270 1.246 . S
C273 O257 1.245 1_455 S
C273 O258 1.259 . S
Tb274 O277 2.453 1_554 S
Tb274 O278 2.596 . S
Tb274 O279 2.374 . S
Tb274 O287 2.343 . S
Tb274 O289 2.353 . S
Tb274 O291 2.427 . S
Tb274 O292 2.513 . S
C275 O279 1.251 . S
C275 O281 1.263 . S
Tb276 O278 2.343 . S
Tb276 O281 2.353 . S
Tb276 O284 2.427 . S
Tb276 O285 2.513 . S
Tb276 O286 2.453 . S
Tb276 O287 2.596 . S
Tb276 O288 2.374 . S
O277 Tb274 2.453 1_556 S
O277 C293 1.245 . S
O278 Tb274 2.596 . S
O278 Tb276 2.343 . S
O278 C293 1.259 1_554 S
O279 Tb274 2.374 . S
O279 C275 1.251 . S
C280 O284 1.275 . S
C280 O285 1.246 . S
O281 C275 1.263 . S
O281 Tb276 2.353 . S
C282 O286 1.245 . S
C282 O287 1.259 . S
C283 O288 1.250 . S
C283 O289 1.263 . S
O284 Tb276 2.427 . S
O284 C280 1.275 . S
O285 Tb276 2.513 . S
O285 C280 1.246 . S
O286 Tb276 2.453 . S
O286 C282 1.245 . S
O287 Tb274 2.343 . S
O287 Tb276 2.596 . S
O287 C282 1.259 . S
O288 Tb276 2.374 . S
O288 C283 1.250 . S
O289 Tb274 2.353 . S
O289 C283 1.263 . S
C290 O291 1.275 . S
C290 O292 1.246 . S
O291 Tb274 2.427 . S
O291 C290 1.275 . S
O292 Tb274 2.513 . S
O292 C290 1.246 . S
C293 O277 1.245 . S
C293 O278 1.259 1_556 S
Tb294 O297 2.453 . S
Tb294 O298 2.596 . S
Tb294 O299 2.374 . S
Tb294 O307 2.343 . S
Tb294 O309 2.353 . S
Tb294 O311 2.427 . S
Tb294 O312 2.513 . S
C295 O299 1.251 . S
C295 O301 1.263 . S
Tb296 O298 2.343 . S
Tb296 O301 2.353 . S
Tb296 O304 2.427 . S
Tb296 O305 2.513 . S
Tb296 O306 2.453 . S
Tb296 O307 2.596 . S
Tb296 O308 2.374 . S
O297 Tb294 2.453 . S
O297 C313 1.245 . S
O298 Tb294 2.596 . S
O298 Tb296 2.343 . S
O298 C313 1.259 . S
O299 Tb294 2.374 . S
O299 C295 1.251 . S
C300 O304 1.275 . S
C300 O305 1.246 . S
O301 C295 1.263 . S
O301 Tb296 2.353 . S
C302 O306 1.245 . S
C302 O307 1.259 . S
C303 O308 1.250 . S
C303 O309 1.263 . S
O304 Tb296 2.427 . S
O304 C300 1.275 . S
O305 Tb296 2.513 . S
O305 C300 1.246 . S
O306 Tb296 2.453 . S
O306 C302 1.245 . S
O307 Tb294 2.343 . S
O307 Tb296 2.596 . S
O307 C302 1.259 . S
O308 Tb296 2.374 . S
O308 C303 1.250 . S
O309 Tb294 2.353 . S
O309 C303 1.263 . S
C310 O311 1.275 . S
C310 O312 1.246 . S
O311 Tb294 2.427 . S
O311 C310 1.275 . S
O312 Tb294 2.513 . S
O312 C310 1.246 . S
C313 O297 1.245 . S
C313 O298 1.259 . S
Tb314 O317 2.453 . S
Tb314 O318 2.596 . S
Tb314 O319 2.374 . S
Tb314 O327 2.343 . S
Tb314 O329 2.353 . S
Tb314 O331 2.427 . S
Tb314 O332 2.513 . S
C315 O319 1.251 . S
C315 O321 1.263 . S
Tb316 O318 2.343 . S
Tb316 O321 2.353 . S
Tb316 O324 2.427 . S
Tb316 O325 2.513 . S
Tb316 O326 2.453 . S
Tb316 O327 2.596 . S
Tb316 O328 2.374 . S
O317 Tb314 2.453 . S
O317 C333 1.245 . S
O318 Tb314 2.596 . S
O318 Tb316 2.343 . S
O318 C333 1.259 . S
O319 Tb314 2.374 . S
O319 C315 1.251 . S
C320 O324 1.275 . S
C320 O325 1.246 . S
O321 C315 1.263 . S
O321 Tb316 2.353 . S
C322 O326 1.245 . S
C322 O327 1.259 . S
C323 O328 1.250 . S
C323 O329 1.263 . S
O324 Tb316 2.427 . S
O324 C320 1.275 . S
O325 Tb316 2.513 . S
O325 C320 1.246 . S
O326 Tb316 2.453 . S
O326 C322 1.245 . S
O327 Tb314 2.343 . S
O327 Tb316 2.596 . S
O327 C322 1.259 . S
O328 Tb316 2.374 . S
O328 C323 1.250 . S
O329 Tb314 2.353 . S
O329 C323 1.263 . S
C330 O331 1.275 . S
C330 O332 1.246 . S
O331 Tb314 2.427 . S
O331 C330 1.275 . S
O332 Tb314 2.513 . S
O332 C330 1.246 . S
C333 O317 1.245 . S
C333 O318 1.259 . S
Tb334 O337 2.453 . S
Tb334 O338 2.596 . S
Tb334 O339 2.374 . S
Tb334 O347 2.343 . S
Tb334 O349 2.353 . S
Tb334 O351 2.427 . S
Tb334 O352 2.513 . S
C335 O339 1.251 . S
C335 O341 1.263 . S
Tb336 O338 2.343 . S
Tb336 O341 2.353 . S
Tb336 O344 2.427 . S
Tb336 O345 2.513 . S
Tb336 O346 2.453 . S
Tb336 O347 2.596 . S
Tb336 O348 2.374 . S
O337 Tb334 2.453 . S
O337 C353 1.245 . S
O338 Tb334 2.596 . S
O338 Tb336 2.343 . S
O338 C353 1.259 . S
O339 Tb334 2.374 . S
O339 C335 1.251 . S
C340 O344 1.275 . S
C340 O345 1.246 . S
O341 C335 1.263 . S
O341 Tb336 2.353 . S
C342 O346 1.245 . S
C342 O347 1.259 . S
C343 O348 1.250 . S
C343 O349 1.263 . S
O344 Tb336 2.427 . S
O344 C340 1.275 . S
O345 Tb336 2.513 . S
O345 C340 1.246 . S
O346 Tb336 2.453 . S
O346 C342 1.245 . S
O347 Tb334 2.343 . S
O347 Tb336 2.596 . S
O347 C342 1.259 . S
O348 Tb336 2.374 . S
O348 C343 1.250 . S
O349 Tb334 2.353 . S
O349 C343 1.263 . S
C350 O351 1.275 . S
C350 O352 1.246 . S
O351 Tb334 2.427 . S
O351 C350 1.275 . S
O352 Tb334 2.513 . S
O352 C350 1.246 . S
C353 O337 1.245 . S
C353 O338 1.259 . S
Tb354 O357 2.453 . S
Tb354 O358 2.596 . S
Tb354 O359 2.374 . S
Tb354 O367 2.343 . S
Tb354 O369 2.353 . S
Tb354 O371 2.427 . S
Tb354 O372 2.513 . S
C355 O359 1.251 . S
C355 O361 1.263 . S
Tb356 O358 2.343 . S
Tb356 O361 2.353 . S
Tb356 O364 2.427 . S
Tb356 O365 2.513 . S
Tb356 O366 2.453 . S
Tb356 O367 2.596 . S
Tb356 O368 2.374 . S
O357 Tb354 2.453 . S
O357 C373 1.245 . S
O358 Tb354 2.596 . S
O358 Tb356 2.343 . S
O358 C373 1.259 . S
O359 Tb354 2.374 . S
O359 C355 1.251 . S
C360 O364 1.275 . S
C360 O365 1.246 . S
O361 C355 1.263 . S
O361 Tb356 2.353 . S
C362 O366 1.245 . S
C362 O367 1.259 . S
C363 O368 1.250 . S
C363 O369 1.263 . S
O364 Tb356 2.427 . S
O364 C360 1.275 . S
O365 Tb356 2.513 . S
O365 C360 1.246 . S
O366 Tb356 2.453 . S
O366 C362 1.245 . S
O367 Tb354 2.343 . S
O367 Tb356 2.596 . S
O367 C362 1.259 . S
O368 Tb356 2.374 . S
O368 C363 1.250 . S
O369 Tb354 2.353 . S
O369 C363 1.263 . S
C370 O371 1.275 . S
C370 O372 1.246 . S
O371 Tb354 2.427 . S
O371 C370 1.275 . S
O372 Tb354 2.513 . S
O372 C370 1.246 . S
C373 O357 1.245 . S
C373 O358 1.259 . S
Tb374 O377 2.453 . S
Tb374 O378 2.596 . S
Tb374 O379 2.374 . S
Tb374 O387 2.343 . S
Tb374 O389 2.353 . S
Tb374 O391 2.427 . S
Tb374 O392 2.513 . S
C375 O379 1.251 . S
C375 O381 1.263 . S
Tb376 O378 2.343 . S
Tb376 O381 2.353 . S
Tb376 O384 2.427 . S
Tb376 O385 2.513 . S
Tb376 O386 2.453 . S
Tb376 O387 2.596 . S
Tb376 O388 2.374 . S
O377 Tb374 2.453 . S
O377 C393 1.245 . S
O378 Tb374 2.596 . S
O378 Tb376 2.343 . S
O378 C393 1.259 . S
O379 Tb374 2.374 . S
O379 C375 1.251 . S
C380 O384 1.275 . S
C380 O385 1.246 . S
O381 C375 1.263 . S
O381 Tb376 2.353 . S
C382 O386 1.245 . S
C382 O387 1.259 . S
C383 O388 1.250 . S
C383 O389 1.263 . S
O384 Tb376 2.427 . S
O384 C380 1.275 . S
O385 Tb376 2.513 . S
O385 C380 1.246 . S
O386 Tb376 2.453 . S
O386 C382 1.245 . S
O387 Tb374 2.343 . S
O387 Tb376 2.596 . S
O387 C382 1.259 . S
O388 Tb376 2.374 . S
O388 C383 1.250 . S
O389 Tb374 2.353 . S
O389 C383 1.263 . S
C390 O391 1.275 . S
C390 O392 1.246 . S
O391 Tb374 2.427 . S
O391 C390 1.275 . S
O392 Tb374 2.513 . S
O392 C390 1.246 . S
C393 O377 1.245 . S
C393 O378 1.259 . S
Tb394 O397 2.453 . S
Tb394 O398 2.596 . S
Tb394 O399 2.374 . S
Tb394 O407 2.343 . S
Tb394 O409 2.353 . S
Tb394 O411 2.427 . S
Tb394 O412 2.513 . S
C395 O399 1.251 . S
C395 O401 1.263 . S
Tb396 O398 2.343 . S
Tb396 O401 2.353 . S
Tb396 O404 2.427 . S
Tb396 O405 2.513 . S
Tb396 O406 2.453 . S
Tb396 O407 2.596 . S
Tb396 O408 2.374 . S
O397 Tb394 2.453 . S
O397 C413 1.245 . S
O398 Tb394 2.596 . S
O398 Tb396 2.343 . S
O398 C413 1.259 . S
O399 Tb394 2.374 . S
O399 C395 1.251 . S
C400 O404 1.275 . S
C400 O405 1.246 . S
O401 C395 1.263 . S
O401 Tb396 2.353 . S
C402 O406 1.245 . S
C402 O407 1.259 . S
C403 O408 1.250 . S
C403 O409 1.263 . S
O404 Tb396 2.427 . S
O404 C400 1.275 . S
O405 Tb396 2.513 . S
O405 C400 1.246 . S
O406 Tb396 2.453 . S
O406 C402 1.245 . S
O407 Tb394 2.343 . S
O407 Tb396 2.596 . S
O407 C402 1.259 . S
O408 Tb396 2.374 . S
O408 C403 1.250 . S
O409 Tb394 2.353 . S
O409 C403 1.263 . S
C410 O411 1.275 . S
C410 O412 1.246 . S
O411 Tb394 2.427 . S
O411 C410 1.275 . S
O412 Tb394 2.513 . S
O412 C410 1.246 . S
C413 O397 1.245 . S
C413 O398 1.259 . S
H414 C420 0.930 . S
H415 C423 0.930 . S
H416 C424 0.930 . S
H417 C425 0.930 . S
H418 C428 0.930 . S
H419 C429 0.930 . S
C420 H414 0.930 . S
C420 C421 1.355 . S
C420 C422 1.415 . S
C421 C420 1.355 . S
C421 C423 1.419 . S
C422 C420 1.415 . S
C422 C427 1.425 . S
C422 C429 1.409 . S
C423 H415 0.930 . S
C423 C421 1.419 . S
C423 C424 1.362 . S
C424 H416 0.930 . S
C424 C423 1.362 . S
C424 C427 1.409 . S
C425 H417 0.930 . S
C425 C426 1.355 . S
C425 C427 1.415 . S
C426 C425 1.355 . S
C426 C428 1.419 . S
C427 C422 1.425 . S
C427 C424 1.409 . S
C427 C425 1.415 . S
C428 H418 0.930 . S
C428 C426 1.419 . S
C428 C429 1.362 . S
C429 H419 0.930 . S
C429 C422 1.409 . S
C429 C428 1.362 . S
H430 C436 0.930 . S
H431 C439 0.930 . S
H432 C440 0.930 . S
H433 C441 0.930 . S
H434 C444 0.930 . S
H435 C445 0.930 . S
C436 H430 0.930 . S
C436 C437 1.355 . S
C436 C438 1.415 . S
C437 C436 1.355 . S
C437 C439 1.419 . S
C438 C436 1.415 . S
C438 C443 1.425 . S
C438 C445 1.409 . S
C439 H431 0.930 . S
C439 C437 1.419 . S
C439 C440 1.362 . S
C440 H432 0.930 . S
C440 C439 1.362 . S
C440 C443 1.409 . S
C441 H433 0.930 . S
C441 C442 1.355 . S
C441 C443 1.415 . S
C442 C441 1.355 . S
C442 C444 1.419 . S
C443 C438 1.425 . S
C443 C440 1.409 . S
C443 C441 1.415 . S
C444 H434 0.930 . S
C444 C442 1.419 . S
C444 C445 1.362 . S
C445 H435 0.930 . S
C445 C438 1.409 . S
C445 C444 1.362 . S
H446 C452 0.930 . S
H447 C455 0.930 . S
H448 C456 0.930 . S
H449 C457 0.930 . S
H450 C460 0.930 . S
H451 C461 0.930 . S
C452 H446 0.930 . S
C452 C453 1.355 . S
C452 C454 1.415 . S
C453 C452 1.355 . S
C453 C455 1.419 . S
C454 C452 1.415 . S
C454 C459 1.425 . S
C454 C461 1.409 . S
C455 H447 0.930 . S
C455 C453 1.419 . S
C455 C456 1.362 . S
C456 H448 0.930 . S
C456 C455 1.362 . S
C456 C459 1.409 . S
C457 H449 0.930 . S
C457 C458 1.355 . S
C457 C459 1.415 . S
C458 C457 1.355 . S
C458 C460 1.419 . S
C459 C454 1.425 . S
C459 C456 1.409 . S
C459 C457 1.415 . S
C460 H450 0.930 . S
C460 C458 1.419 . S
C460 C461 1.362 . S
C461 H451 0.930 . S
C461 C454 1.409 . S
C461 C460 1.362 . S
H462 C468 0.930 . S
H463 C471 0.930 . S
H464 C472 0.930 . S
H465 C473 0.930 1_554 S
H466 C476 0.930 . S
H467 C477 0.930 . S
C468 H462 0.930 . S
C468 C469 1.355 . S
C468 C470 1.415 . S
C469 C468 1.355 . S
C469 C471 1.419 . S
C470 C468 1.415 . S
C470 C475 1.425 . S
C470 C477 1.409 . S
C471 H463 0.930 . S
C471 C469 1.419 . S
C471 C472 1.362 . S
C472 H464 0.930 . S
C472 C471 1.362 . S
C472 C475 1.409 . S
C473 H465 0.930 1_556 S
C473 C474 1.355 . S
C473 C475 1.415 . S
C474 C473 1.355 . S
C474 C476 1.419 . S
C475 C470 1.425 . S
C475 C472 1.409 . S
C475 C473 1.415 . S
C476 H466 0.930 . S
C476 C474 1.419 . S
C476 C477 1.362 . S
C477 H467 0.930 . S
C477 C470 1.409 . S
C477 C476 1.362 . S
H478 C484 0.930 . S
H479 C487 0.930 . S
H480 C488 0.930 . S
H481 C489 0.930 . S
H482 C492 0.930 . S
H483 C493 0.930 . S
C484 H478 0.930 . S
C484 C485 1.355 . S
C484 C486 1.415 . S
C485 C484 1.355 . S
C485 C487 1.419 . S
C486 C484 1.415 . S
C486 C491 1.425 . S
C486 C493 1.409 1_556 S
C487 H479 0.930 . S
C487 C485 1.419 . S
C487 C488 1.362 . S
C488 H480 0.930 . S
C488 C487 1.362 . S
C488 C491 1.409 . S
C489 H481 0.930 . S
C489 C490 1.355 . S
C489 C491 1.415 . S
C490 C489 1.355 . S
C490 C492 1.419 1_556 S
C491 C486 1.425 . S
C491 C488 1.409 . S
C491 C489 1.415 . S
C492 H482 0.930 . S
C492 C490 1.419 1_554 S
C492 C493 1.362 . S
C493 H483 0.930 . S
C493 C486 1.409 1_554 S
C493 C492 1.362 . S
H494 C500 0.930 . S
H495 C503 0.930 . S
H496 C504 0.930 . S
H497 C505 0.930 . S
H498 C508 0.930 . S
H499 C509 0.930 . S
C500 H494 0.930 . S
C500 C501 1.355 . S
C500 C502 1.415 . S
C501 C500 1.355 . S
C501 C503 1.419 . S
C502 C500 1.415 . S
C502 C507 1.425 . S
C502 C509 1.409 . S
C503 H495 0.930 . S
C503 C501 1.419 . S
C503 C504 1.362 1_556 S
C504 H496 0.930 . S
C504 C503 1.362 1_554 S
C504 C507 1.409 1_554 S
C505 H497 0.930 . S
C505 C506 1.355 . S
C505 C507 1.415 1_554 S
C506 C505 1.355 . S
C506 C508 1.419 1_554 S
C507 C502 1.425 . S
C507 C504 1.409 1_556 S
C507 C505 1.415 1_556 S
C508 H498 0.930 . S
C508 C506 1.419 1_556 S
C508 C509 1.362 . S
C509 H499 0.930 . S
C509 C502 1.409 . S
C509 C508 1.362 . S
H510 C516 0.930 1_554 S
H511 C519 0.930 . S
H512 C520 0.930 . S
H513 C521 0.930 . S
H514 C524 0.930 . S
H515 C525 0.930 . S
C516 H510 0.930 1_556 S
C516 C517 1.355 . S
C516 C518 1.415 . S
C517 C516 1.355 . S
C517 C519 1.419 . S
C518 C516 1.415 . S
C518 C523 1.425 . S
C518 C525 1.409 1_556 S
C519 H511 0.930 . S
C519 C517 1.419 . S
C519 C520 1.362 . S
C520 H512 0.930 . S
C520 C519 1.362 . S
C520 C523 1.409 . S
C521 H513 0.930 . S
C521 C522 1.355 . S
C521 C523 1.415 . S
C522 C521 1.355 . S
C522 C524 1.419 1_556 S
C523 C518 1.425 . S
C523 C520 1.409 . S
C523 C521 1.415 . S
C524 H514 0.930 . S
C524 C522 1.419 1_554 S
C524 C525 1.362 . S
C525 H515 0.930 . S
C525 C518 1.409 1_554 S
C525 C524 1.362 . S
H526 C532 0.930 . S
H527 C535 0.930 . S
H528 C536 0.930 . S
H529 C537 0.930 . S
H530 C540 0.930 . S
H531 C541 0.930 . S
C532 H526 0.930 . S
C532 C533 1.355 . S
C532 C534 1.415 . S
C533 C532 1.355 . S
C533 C535 1.419 . S
C534 C532 1.415 . S
C534 C539 1.425 . S
C534 C541 1.409 . S
C535 H527 0.930 . S
C535 C533 1.419 . S
C535 C536 1.362 . S
C536 H528 0.930 . S
C536 C535 1.362 . S
C536 C539 1.409 . S
C537 H529 0.930 . S
C537 C538 1.355 . S
C537 C539 1.415 . S
C538 C537 1.355 . S
C538 C540 1.419 . S
C539 C534 1.425 . S
C539 C536 1.409 . S
C539 C537 1.415 . S
C540 H530 0.930 . S
C540 C538 1.419 . S
C540 C541 1.362 . S
C541 H531 0.930 . S
C541 C534 1.409 . S
C541 C540 1.362 . S
H542 C548 0.930 . S
H543 C551 0.930 . S
H544 C552 0.930 . S
H545 C553 0.930 . S
H546 C556 0.931 . S
H547 C557 0.930 . S
C548 H542 0.930 . S
C548 C549 1.355 . S
C548 C550 1.415 . S
C549 C548 1.355 . S
C549 C551 1.419 1_556 S
C550 C548 1.415 . S
C550 C555 1.425 1_556 S
C550 C557 1.409 . S
C551 H543 0.930 . S
C551 C549 1.419 1_554 S
C551 C552 1.362 . S
C552 H544 0.930 . S
C552 C551 1.362 . S
C552 C555 1.409 . S
C553 H545 0.930 . S
C553 C554 1.355 . S
C553 C555 1.415 . S
C554 C553 1.355 . S
C554 C556 1.419 . S
C555 C550 1.425 1_554 S
C555 C552 1.409 . S
C555 C553 1.415 . S
C556 H546 0.931 . S
C556 C554 1.419 . S
C556 C557 1.362 1_554 S
C557 H547 0.930 . S
C557 C550 1.409 . S
C557 C556 1.362 1_556 S
H558 C564 0.930 . S
H559 C567 0.930 . S
H560 C568 0.930 . S
H561 C569 0.930 . S
H562 C572 0.930 . S
H563 C573 0.951 . S
C564 H558 0.930 . S
C564 C565 1.355 . S
C564 C566 1.415 . S
C565 C564 1.355 . S
C565 C567 1.419 . S
C566 C564 1.415 . S
C566 C571 1.425 . S
C566 C573 1.386 1_554 S
C567 H559 0.930 . S
C567 C565 1.419 . S
C567 C568 1.362 . S
C568 H560 0.930 . S
C568 C567 1.362 . S
C568 C571 1.409 . S
C569 H561 0.930 . S
C569 C570 1.355 . S
C569 C571 1.415 . S
C570 C569 1.355 . S
C570 C572 1.419 1_554 S
C571 C566 1.425 . S
C571 C568 1.409 . S
C571 C569 1.415 . S
C572 H562 0.930 . S
C572 C570 1.419 1_556 S
C572 C573 1.366 . S
C573 H563 0.951 . S
C573 C566 1.386 1_556 S
C573 C572 1.366 . S
H574 C580 0.930 . S
H575 C583 0.930 . S
H576 C584 0.930 . S
H577 C585 0.930 . S
H578 C588 0.930 . S
H579 C589 0.930 . S
C580 H574 0.930 . S
C580 C581 1.355 . S
C580 C582 1.415 . S
C581 C580 1.355 . S
C581 C583 1.419 . S
C582 C580 1.415 . S
C582 C587 1.425 . S
C582 C589 1.409 . S
C583 H575 0.930 . S
C583 C581 1.419 . S
C583 C584 1.362 . S
C584 H576 0.930 . S
C584 C583 1.362 . S
C584 C587 1.409 . S
C585 H577 0.930 . S
C585 C586 1.355 . S
C585 C587 1.415 . S
C586 C585 1.355 . S
C586 C588 1.419 . S
C587 C582 1.425 . S
C587 C584 1.409 . S
C587 C585 1.415 . S
C588 H578 0.930 . S
C588 C586 1.419 . S
C588 C589 1.362 . S
C589 H579 0.930 . S
C589 C582 1.409 . S
C589 C588 1.362 . S
H590 C596 0.930 . S
H591 C599 0.930 . S
H592 C600 0.930 1_556 S
H593 C601 0.930 . S
H594 C604 0.930 . S
H595 C605 0.930 . S
C596 H590 0.930 . S
C596 C597 1.355 . S
C596 C598 1.415 . S
C597 C596 1.355 . S
C597 C599 1.419 . S
C598 C596 1.415 . S
C598 C603 1.425 . S
C598 C605 1.409 . S
C599 H591 0.930 . S
C599 C597 1.419 . S
C599 C600 1.362 . S
C600 H592 0.930 1_554 S
C600 C599 1.362 . S
C600 C603 1.409 . S
C601 H593 0.930 . S
C601 C602 1.355 . S
C601 C603 1.415 . S
C602 C601 1.355 . S
C602 C604 1.419 . S
C603 C598 1.425 . S
C603 C600 1.409 . S
C603 C601 1.415 . S
C604 H594 0.930 . S
C604 C602 1.419 . S
C604 C605 1.362 . S
C605 H595 0.930 . S
C605 C598 1.409 . S
C605 C604 1.362 . S
H606 C612 0.930 . S
H607 C615 0.930 . S
H608 C616 0.930 . S
H609 C617 0.930 . S
H610 C620 0.930 . S
H611 C621 0.929 1_655 S
C612 H606 0.930 . S
C612 C613 1.355 . S
C612 C614 1.415 . S
C613 C612 1.355 . S
C613 C615 1.419 . S
C614 C612 1.415 . S
C614 C619 1.425 . S
C614 C621 1.394 1_655 S
C615 H607 0.930 . S
C615 C613 1.419 . S
C615 C616 1.362 . S
C616 H608 0.930 . S
C616 C615 1.362 . S
C616 C619 1.409 . S
C617 H609 0.930 . S
C617 C618 1.355 . S
C617 C619 1.415 1_455 S
C618 C617 1.355 . S
C618 C620 1.419 . S
C619 C614 1.425 . S
C619 C616 1.409 . S
C619 C617 1.415 1_655 S
C620 H610 0.930 . S
C620 C618 1.419 . S
C620 C621 1.379 . S
C621 H611 0.929 1_455 S
C621 C614 1.394 1_455 S
C621 C620 1.379 . S
H622 C628 0.930 . S
H623 C631 0.930 . S
H624 C632 0.930 . S
H625 C633 0.930 . S
H626 C636 0.930 . S
H627 C637 0.930 . S
C628 H622 0.930 . S
C628 C629 1.355 . S
C628 C630 1.415 . S
C629 C628 1.355 . S
C629 C631 1.419 . S
C630 C628 1.415 . S
C630 C635 1.425 . S
C630 C637 1.409 . S
C631 H623 0.930 . S
C631 C629 1.419 . S
C631 C632 1.362 . S
C632 H624 0.930 . S
C632 C631 1.362 . S
C632 C635 1.409 . S
C633 H625 0.930 . S
C633 C634 1.355 . S
C633 C635 1.415 . S
C634 C633 1.355 . S
C634 C636 1.419 . S
C635 C630 1.425 . S
C635 C632 1.409 . S
C635 C633 1.415 . S
C636 H626 0.930 . S
C636 C634 1.419 . S
C636 C637 1.362 . S
C637 H627 0.930 . S
C637 C630 1.409 . S
C637 C636 1.362 . S
H638 C644 0.930 . S
H639 C647 0.930 . S
H640 C648 0.930 1_565 S
H641 C649 0.930 . S
H642 C652 0.930 . S
H643 C653 0.926 1_545 S
C644 H638 0.930 . S
C644 C645 1.355 . S
C644 C646 1.415 . S
C645 C644 1.355 . S
C645 C647 1.419 . S
C646 C644 1.415 . S
C646 C651 1.425 1_545 S
C646 C653 1.409 1_545 S
C647 H639 0.930 . S
C647 C645 1.419 . S
C647 C648 1.362 . S
C648 H640 0.930 1_545 S
C648 C647 1.362 . S
C648 C651 1.409 1_545 S
C649 H641 0.930 . S
C649 C650 1.355 . S
C649 C651 1.415 . S
C650 C649 1.355 . S
C650 C652 1.419 . S
C651 C646 1.425 1_565 S
C651 C648 1.409 1_565 S
C651 C649 1.415 . S
C652 H642 0.930 . S
C652 C650 1.419 . S
C652 C653 1.362 . S
C653 H643 0.926 1_565 S
C653 C646 1.409 1_565 S
C653 C652 1.362 . S
H654 C660 0.930 . S
H655 C663 0.930 . S
H656 C664 0.930 . S
H657 C665 0.930 . S
H658 C668 0.930 . S
H659 C669 0.930 . S
C660 H654 0.930 . S
C660 C661 1.355 . S
C660 C662 1.415 . S
C661 C660 1.355 . S
C661 C663 1.419 . S
C662 C660 1.415 . S
C662 C667 1.425 . S
C662 C669 1.409 . S
C663 H655 0.930 . S
C663 C661 1.419 . S
C663 C664 1.362 . S
C664 H656 0.930 . S
C664 C663 1.362 . S
C664 C667 1.409 . S
C665 H657 0.930 . S
C665 C666 1.355 . S
C665 C667 1.415 . S
C666 C665 1.355 . S
C666 C668 1.419 . S
C667 C662 1.425 . S
C667 C664 1.409 . S
C667 C665 1.415 . S
C668 H658 0.930 . S
C668 C666 1.419 . S
C668 C669 1.362 . S
C669 H659 0.930 . S
C669 C662 1.409 . S
C669 C668 1.362 . S
H670 C676 0.930 . S
H671 C679 0.930 . S
H672 C680 0.930 . S
H673 C681 0.930 . S
H674 C684 0.930 . S
H675 C685 0.930 . S
C676 H670 0.930 . S
C676 C677 1.355 . S
C676 C678 1.415 . S
C677 C676 1.355 . S
C677 C679 1.419 . S
C678 C676 1.415 . S
C678 C683 1.425 . S
C678 C685 1.409 . S
C679 H671 0.930 . S
C679 C677 1.419 . S
C679 C680 1.362 . S
C680 H672 0.930 . S
C680 C679 1.362 . S
C680 C683 1.409 . S
C681 H673 0.930 . S
C681 C682 1.355 . S
C681 C683 1.415 . S
C682 C681 1.355 . S
C682 C684 1.419 . S
C683 C678 1.425 . S
C683 C680 1.409 . S
C683 C681 1.415 . S
C684 H674 0.930 . S
C684 C682 1.419 . S
C684 C685 1.362 . S
C685 H675 0.930 . S
C685 C678 1.409 . S
C685 C684 1.362 . S
H686 C692 0.930 . S
H687 C695 0.930 . S
H688 C696 0.930 . S
H689 C697 0.930 . S
H690 C700 0.930 . S
H691 C701 0.930 . S
C692 H686 0.930 . S
C692 C693 1.355 . S
C692 C694 1.415 . S
C693 C692 1.355 . S
C693 C695 1.419 . S
C694 C692 1.415 . S
C694 C699 1.425 . S
C694 C701 1.409 . S
C695 H687 0.930 . S
C695 C693 1.419 . S
C695 C696 1.362 . S
C696 H688 0.930 . S
C696 C695 1.362 . S
C696 C699 1.409 . S
C697 H689 0.930 . S
C697 C698 1.355 . S
C697 C699 1.415 . S
C698 C697 1.355 . S
C698 C700 1.419 . S
C699 C694 1.425 . S
C699 C696 1.409 . S
C699 C697 1.415 . S
C700 H690 0.930 . S
C700 C698 1.419 . S
C700 C701 1.362 . S
C701 H691 0.930 . S
C701 C694 1.409 . S
C701 C700 1.362 . S
H702 C708 0.930 . S
H703 C711 0.930 . S
H704 C712 0.930 . S
H705 C713 0.930 . S
H706 C716 0.930 . S
H707 C717 0.930 . S
C708 H702 0.930 . S
C708 C709 1.355 . S
C708 C710 1.415 . S
C709 C708 1.355 . S
C709 C711 1.419 . S
C710 C708 1.415 . S
C710 C715 1.425 . S
C710 C717 1.409 . S
C711 H703 0.930 . S
C711 C709 1.419 . S
C711 C712 1.362 . S
C712 H704 0.930 . S
C712 C711 1.362 . S
C712 C715 1.409 . S
C713 H705 0.930 . S
C713 C714 1.355 . S
C713 C715 1.415 . S
C714 C713 1.355 . S
C714 C716 1.419 . S
C715 C710 1.425 . S
C715 C712 1.409 . S
C715 C713 1.415 . S
C716 H706 0.930 . S
C716 C714 1.419 . S
C716 C717 1.362 . S
C717 H707 0.930 . S
C717 C710 1.409 . S
C717 C716 1.362 . S
H718 C724 0.930 . S
H719 C727 0.930 . S
H720 C728 0.930 . S
H721 C729 0.930 . S
H722 C732 0.930 . S
H723 C733 0.930 . S
C724 H718 0.930 . S
C724 C725 1.355 . S
C724 C726 1.415 . S
C725 C724 1.355 . S
C725 C727 1.419 . S
C726 C724 1.415 . S
C726 C731 1.425 . S
C726 C733 1.409 . S
C727 H719 0.930 . S
C727 C725 1.419 . S
C727 C728 1.362 . S
C728 H720 0.930 . S
C728 C727 1.362 . S
C728 C731 1.409 . S
C729 H721 0.930 . S
C729 C730 1.355 . S
C729 C731 1.415 . S
C730 C729 1.355 . S
C730 C732 1.419 . S
C731 C726 1.425 . S
C731 C728 1.409 . S
C731 C729 1.415 . S
C732 H722 0.930 . S
C732 C730 1.419 . S
C732 C733 1.362 . S
C733 H723 0.930 . S
C733 C726 1.409 . S
C733 C732 1.362 . S
H734 C740 0.930 . S
H735 C743 0.930 . S
H736 C744 0.930 . S
H737 C745 0.930 . S
H738 C748 0.930 . S
H739 C749 0.930 . S
C740 H734 0.930 . S
C740 C741 1.355 . S
C740 C742 1.415 . S
C741 C740 1.355 . S
C741 C743 1.419 . S
C742 C740 1.415 . S
C742 C747 1.425 . S
C742 C749 1.409 . S
C743 H735 0.930 . S
C743 C741 1.419 . S
C743 C744 1.362 . S
C744 H736 0.930 . S
C744 C743 1.362 . S
C744 C747 1.409 . S
C745 H737 0.930 . S
C745 C746 1.355 . S
C745 C747 1.415 . S
C746 C745 1.355 . S
C746 C748 1.419 . S
C747 C742 1.425 . S
C747 C744 1.409 . S
C747 C745 1.415 . S
C748 H738 0.930 . S
C748 C746 1.419 . S
C748 C749 1.362 . S
C749 H739 0.930 . S
C749 C742 1.409 . S
C749 C748 1.362 . S
H750 C756 0.930 . S
H751 C759 0.930 . S
H752 C760 0.930 . S
H753 C761 0.930 . S
H754 C764 0.930 . S
H755 C765 0.930 1_545 S
C756 H750 0.930 . S
C756 C757 1.355 . S
C756 C758 1.415 . S
C757 C756 1.355 . S
C757 C759 1.419 . S
C758 C756 1.415 . S
C758 C763 1.425 . S
C758 C765 1.409 1_545 S
C759 H751 0.930 . S
C759 C757 1.419 . S
C759 C760 1.362 . S
C760 H752 0.930 . S
C760 C759 1.362 . S
C760 C763 1.409 . S
C761 H753 0.930 . S
C761 C762 1.355 . S
C761 C763 1.415 1_565 S
C762 C761 1.355 . S
C762 C764 1.419 . S
C763 C758 1.425 . S
C763 C760 1.409 . S
C763 C761 1.415 1_545 S
C764 H754 0.930 . S
C764 C762 1.419 . S
C764 C765 1.362 . S
C765 H755 0.930 1_565 S
C765 C758 1.409 1_565 S
C765 C764 1.362 . S
H766 C772 0.930 . S
H767 C775 0.930 . S
H768 C776 0.930 . S
H769 C777 0.930 . S
H770 C780 0.930 . S
H771 C781 0.930 . S
C772 H766 0.930 . S
C772 C773 1.355 . S
C772 C774 1.415 . S
C773 C772 1.355 . S
C773 C775 1.419 . S
C774 C772 1.415 . S
C774 C779 1.425 1_655 S
C774 C781 1.409 1_655 S
C775 H767 0.930 . S
C775 C773 1.419 . S
C775 C776 1.362 . S
C776 H768 0.930 . S
C776 C775 1.362 . S
C776 C779 1.409 1_655 S
C777 H769 0.930 . S
C777 C778 1.355 . S
C777 C779 1.415 . S
C778 C777 1.355 . S
C778 C780 1.419 . S
C779 C774 1.425 1_455 S
C779 C776 1.409 1_455 S
C779 C777 1.415 . S
C780 H770 0.930 . S
C780 C778 1.419 . S
C780 C781 1.362 . S
C781 H771 0.930 . S
C781 C774 1.409 1_455 S
C781 C780 1.362 . S
H782 C788 0.930 . S
H783 C791 0.930 . S
H784 C792 0.930 . S
H785 C793 0.930 . S
H786 C796 0.930 . S
H787 C797 0.930 . S
C788 H782 0.930 . S
C788 C789 1.355 . S
C788 C790 1.415 . S
C789 C788 1.355 . S
C789 C791 1.419 . S
C790 C788 1.415 . S
C790 C795 1.425 . S
C790 C797 1.409 . S
C791 H783 0.930 . S
C791 C789 1.419 . S
C791 C792 1.362 . S
C792 H784 0.930 . S
C792 C791 1.362 . S
C792 C795 1.409 . S
C793 H785 0.930 . S
C793 C794 1.355 . S
C793 C795 1.415 . S
C794 C793 1.355 . S
C794 C796 1.419 . S
C795 C790 1.425 . S
C795 C792 1.409 . S
C795 C793 1.415 . S
C796 H786 0.930 . S
C796 C794 1.419 . S
C796 C797 1.362 . S
C797 H787 0.930 . S
C797 C790 1.409 . S
C797 C796 1.362 . S
H798 C804 0.930 . S
H799 C807 0.930 . S
H800 C808 0.930 . S
H801 C809 0.930 . S
H802 C812 0.930 . S
H803 C813 0.930 . S
C804 H798 0.930 . S
C804 C805 1.355 . S
C804 C806 1.415 . S
C805 C804 1.355 . S
C805 C807 1.419 . S
C806 C804 1.415 . S
C806 C811 1.425 . S
C806 C813 1.409 . S
C807 H799 0.930 . S
C807 C805 1.419 . S
C807 C808 1.362 . S
C808 H800 0.930 . S
C808 C807 1.362 . S
C808 C811 1.409 . S
C809 H801 0.930 . S
C809 C810 1.355 . S
C809 C811 1.415 . S
C810 C809 1.355 . S
C810 C812 1.419 . S
C811 C806 1.425 . S
C811 C808 1.409 . S
C811 C809 1.415 . S
C812 H802 0.930 . S
C812 C810 1.419 . S
C812 C813 1.362 . S
C813 H803 0.930 . S
C813 C806 1.409 . S
C813 C812 1.362 . S
H814 C820 0.930 . S
H815 C823 0.930 . S
H816 C824 0.930 . S
H817 C825 0.930 . S
H818 C828 0.930 . S
H819 C829 0.930 . S
C820 H814 0.930 . S
C820 C821 1.355 . S
C820 C822 1.415 . S
C821 C820 1.355 . S
C821 C823 1.419 . S
C822 C820 1.415 . S
C822 C827 1.425 . S
C822 C829 1.409 . S
C823 H815 0.930 . S
C823 C821 1.419 . S
C823 C824 1.362 . S
C824 H816 0.930 . S
C824 C823 1.362 . S
C824 C827 1.409 . S
C825 H817 0.930 . S
C825 C826 1.355 . S
C825 C827 1.415 . S
C826 C825 1.355 . S
C826 C828 1.419 . S
C827 C822 1.425 . S
C827 C824 1.409 . S
C827 C825 1.415 . S
C828 H818 0.930 . S
C828 C826 1.419 . S
C828 C829 1.362 . S
C829 H819 0.930 . S
C829 C822 1.409 . S
C829 C828 1.362 . S
H830 C836 0.930 . S
H831 C839 0.930 . S
H832 C840 0.930 . S
H833 C841 0.930 . S
H834 C844 0.930 . S
H835 C845 0.930 . S
C836 H830 0.930 . S
C836 C837 1.355 . S
C836 C838 1.415 . S
C837 C836 1.355 . S
C837 C839 1.419 . S
C838 C836 1.415 . S
C838 C843 1.425 . S
C838 C845 1.409 . S
C839 H831 0.930 . S
C839 C837 1.419 . S
C839 C840 1.362 . S
C840 H832 0.930 . S
C840 C839 1.362 . S
C840 C843 1.409 . S
C841 H833 0.930 . S
C841 C842 1.355 . S
C841 C843 1.415 . S
C842 C841 1.355 . S
C842 C844 1.419 . S
C843 C838 1.425 . S
C843 C840 1.409 . S
C843 C841 1.415 . S
C844 H834 0.930 . S
C844 C842 1.419 . S
C844 C845 1.362 . S
C845 H835 0.930 . S
C845 C838 1.409 . S
C845 C844 1.362 . S
H846 C852 0.930 . S
H847 C855 0.930 . S
H848 C856 0.932 1_545 S
H849 C857 0.930 . S
H850 C860 0.930 . S
H851 C861 0.930 . S
C852 H846 0.930 . S
C852 C853 1.355 . S
C852 C854 1.415 1_565 S
C853 C852 1.355 . S
C853 C855 1.419 . S
C854 C852 1.415 1_545 S
C854 C859 1.425 . S
C854 C861 1.409 . S
C855 H847 0.930 . S
C855 C853 1.419 . S
C855 C856 1.362 . S
C856 H848 0.932 1_565 S
C856 C855 1.362 . S
C856 C859 1.409 1_565 S
C857 H849 0.930 . S
C857 C858 1.355 . S
C857 C859 1.415 . S
C858 C857 1.355 . S
C858 C860 1.419 . S
C859 C854 1.425 . S
C859 C856 1.409 1_545 S
C859 C857 1.415 . S
C860 H850 0.930 . S
C860 C858 1.419 . S
C860 C861 1.362 . S
C861 H851 0.930 . S
C861 C854 1.409 . S
C861 C860 1.362 . S
H862 C868 0.930 . S
H863 C871 0.930 . S
H864 C872 0.930 . S
H865 C873 0.930 . S
H866 C876 0.930 . S
H867 C877 0.930 . S
C868 H862 0.930 . S
C868 C869 1.355 . S
C868 C870 1.415 1_455 S
C869 C868 1.355 . S
C869 C871 1.419 . S
C870 C868 1.415 1_655 S
C870 C875 1.425 . S
C870 C877 1.409 . S
C871 H863 0.930 . S
C871 C869 1.419 . S
C871 C872 1.362 . S
C872 H864 0.930 . S
C872 C871 1.362 . S
C872 C875 1.409 1_455 S
C873 H865 0.930 . S
C873 C874 1.355 . S
C873 C875 1.415 . S
C874 C873 1.355 . S
C874 C876 1.419 . S
C875 C870 1.425 . S
C875 C872 1.409 1_655 S
C875 C873 1.415 . S
C876 H866 0.930 . S
C876 C874 1.419 . S
C876 C877 1.362 . S
C877 H867 0.930 . S
C877 C870 1.409 . S
C877 C876 1.362 . S
H878 C884 0.930 . S
H879 C887 0.930 . S
H880 C888 0.930 . S
H881 C889 0.930 . S
H882 C892 0.930 . S
H883 C893 0.930 . S
C884 H878 0.930 . S
C884 C885 1.355 . S
C884 C886 1.415 . S
C885 C884 1.355 . S
C885 C887 1.419 . S
C886 C884 1.415 . S
C886 C891 1.425 . S
C886 C893 1.409 . S
C887 H879 0.930 . S
C887 C885 1.419 . S
C887 C888 1.362 . S
C888 H880 0.930 . S
C888 C887 1.362 . S
C888 C891 1.409 . S
C889 H881 0.930 . S
C889 C890 1.355 . S
C889 C891 1.415 . S
C890 C889 1.355 . S
C890 C892 1.419 . S
C891 C886 1.425 . S
C891 C888 1.409 . S
C891 C889 1.415 . S
C892 H882 0.930 . S
C892 C890 1.419 . S
C892 C893 1.362 . S
C893 H883 0.930 . S
C893 C886 1.409 . S
C893 C892 1.362 . S
H894 C900 0.930 . S
H895 C903 0.930 . S
H896 C904 0.930 . S
H897 C905 0.930 . S
H898 C908 0.933 . S
H899 C909 0.930 . S
C900 H894 0.930 . S
C900 C901 1.355 . S
C900 C902 1.415 . S
C901 C900 1.355 . S
C901 C903 1.419 . S
C902 C900 1.415 . S
C902 C907 1.425 . S
C902 C909 1.409 . S
C903 H895 0.930 . S
C903 C901 1.419 . S
C903 C904 1.362 . S
C904 H896 0.930 . S
C904 C903 1.362 . S
C904 C907 1.409 . S
C905 H897 0.930 . S
C905 C906 1.355 . S
C905 C907 1.415 1_655 S
C906 C905 1.355 . S
C906 C908 1.443 . S
C907 C902 1.425 . S
C907 C904 1.409 . S
C907 C905 1.415 1_455 S
C908 H898 0.933 . S
C908 C906 1.443 . S
C908 C909 1.336 1_655 S
C909 H899 0.930 . S
C909 C902 1.409 . S
C909 C908 1.336 1_455 S
H910 C916 0.930 . S
H911 C919 0.930 . S
H912 C920 0.930 . S
H913 C921 0.930 . S
H914 C924 0.930 . S
H915 C925 0.930 . S
C916 H910 0.930 . S
C916 C917 1.355 . S
C916 C918 1.415 . S
C917 C916 1.355 . S
C917 C919 1.419 . S
C918 C916 1.415 . S
C918 C923 1.425 . S
C918 C925 1.409 . S
C919 H911 0.930 . S
C919 C917 1.419 . S
C919 C920 1.362 . S
C920 H912 0.930 . S
C920 C919 1.362 . S
C920 C923 1.409 . S
C921 H913 0.930 . S
C921 C922 1.355 . S
C921 C923 1.415 . S
C922 C921 1.355 . S
C922 C924 1.419 . S
C923 C918 1.425 . S
C923 C920 1.409 . S
C923 C921 1.415 . S
C924 H914 0.930 . S
C924 C922 1.419 . S
C924 C925 1.362 . S
C925 H915 0.930 . S
C925 C918 1.409 . S
C925 C924 1.362 . S
H926 C932 0.930 . S
H927 C935 0.930 . S
H928 C936 0.954 . S
H929 C937 0.930 . S
H930 C940 0.930 . S
H931 C941 0.930 . S
C932 H926 0.930 . S
C932 C933 1.355 . S
C932 C934 1.415 . S
C933 C932 1.355 . S
C933 C935 1.419 . S
C934 C932 1.415 . S
C934 C939 1.425 1_565 S
C934 C941 1.409 1_565 S
C935 H927 0.930 . S
C935 C933 1.419 . S
C935 C936 1.362 . S
C936 H928 0.954 . S
C936 C935 1.362 . S
C936 C939 1.409 1_565 S
C937 H929 0.930 . S
C937 C938 1.355 . S
C937 C939 1.415 . S
C938 C937 1.355 . S
C938 C940 1.419 . S
C939 C934 1.425 1_545 S
C939 C936 1.409 1_545 S
C939 C937 1.415 . S
C940 H930 0.930 . S
C940 C938 1.419 . S
C940 C941 1.362 . S
C941 H931 0.930 . S
C941 C934 1.409 1_545 S
C941 C940 1.362 . S
H942 C948 0.930 . S
H943 C951 0.930 . S
H944 C952 0.930 . S
H945 C953 0.930 . S
H946 C956 0.930 . S
H947 C957 0.930 . S
C948 H942 0.930 . S
C948 C949 1.355 . S
C948 C950 1.415 . S
C949 C948 1.355 . S
C949 C951 1.419 . S
C950 C948 1.415 . S
C950 C955 1.425 . S
C950 C957 1.409 . S
C951 H943 0.930 . S
C951 C949 1.419 . S
C951 C952 1.362 . S
C952 H944 0.930 . S
C952 C951 1.362 . S
C952 C955 1.409 . S
C953 H945 0.930 . S
C953 C954 1.355 . S
C953 C955 1.415 . S
C954 C953 1.355 . S
C954 C956 1.419 . S
C955 C950 1.425 . S
C955 C952 1.409 . S
C955 C953 1.415 . S
C956 H946 0.930 . S
C956 C954 1.419 . S
C956 C957 1.362 . S
C957 H947 0.930 . S
C957 C950 1.409 . S
C957 C956 1.362 . S
H958 C964 0.930 . S
H959 C967 0.930 . S
H960 C968 0.930 . S
H961 C969 0.930 . S
H962 C972 0.930 . S
H963 C973 0.930 . S
C964 H958 0.930 . S
C964 C965 1.355 . S
C964 C966 1.415 . S
C965 C964 1.355 . S
C965 C967 1.419 . S
C966 C964 1.415 . S
C966 C971 1.425 . S
C966 C973 1.409 . S
C967 H959 0.930 . S
C967 C965 1.419 . S
C967 C968 1.362 . S
C968 H960 0.930 . S
C968 C967 1.362 . S
C968 C971 1.409 . S
C969 H961 0.930 . S
C969 C970 1.355 . S
C969 C971 1.415 . S
C970 C969 1.355 . S
C970 C972 1.419 . S
C971 C966 1.425 . S
C971 C968 1.409 . S
C971 C969 1.415 . S
C972 H962 0.930 . S
C972 C970 1.419 . S
C972 C973 1.362 . S
C973 H963 0.930 . S
C973 C966 1.409 . S
C973 C972 1.362 . S
H974 C980 0.930 . S
H975 C983 0.930 . S
H976 C984 0.930 . S
H977 C985 0.930 . S
H978 C988 0.930 . S
H979 C989 0.930 . S
C980 H974 0.930 . S
C980 C981 1.355 . S
C980 C982 1.415 . S
C981 C980 1.355 . S
C981 C983 1.419 . S
C982 C980 1.415 . S
C982 C987 1.425 . S
C982 C989 1.409 . S
C983 H975 0.930 . S
C983 C981 1.419 . S
C983 C984 1.362 . S
C984 H976 0.930 . S
C984 C983 1.362 . S
C984 C987 1.409 . S
C985 H977 0.930 . S
C985 C986 1.355 . S
C985 C987 1.415 . S
C986 C985 1.355 . S
C986 C988 1.419 . S
C987 C982 1.425 . S
C987 C984 1.409 . S
C987 C985 1.415 . S
C988 H978 0.930 . S
C988 C986 1.419 . S
C988 C989 1.362 . S
C989 H979 0.930 . S
C989 C982 1.409 . S
C989 C988 1.362 . S
H990 C996 0.930 . S
H991 C999 0.930 . S
H992 C1000 0.930 . S
H993 C1001 0.930 . S
H994 C1004 0.930 1_545 S
H995 C1005 0.930 1_545 S
C996 H990 0.930 . S
C996 C997 1.355 . S
C996 C998 1.415 . S
C997 C996 1.355 . S
C997 C999 1.419 . S
C998 C996 1.415 . S
C998 C1003 1.425 . S
C998 C1005 1.409 . S
C999 H991 0.930 . S
C999 C997 1.419 . S
C999 C1000 1.362 . S
C1000 H992 0.930 . S
C1000 C999 1.362 . S
C1000 C1003 1.409 . S
C1001 H993 0.930 . S
C1001 C1002 1.355 . S
C1001 C1003 1.415 . S
C1002 C1001 1.355 . S
C1002 C1004 1.419 . S
C1003 C998 1.425 . S
C1003 C1000 1.409 . S
C1003 C1001 1.415 . S
C1004 H994 0.930 1_565 S
C1004 C1002 1.419 . S
C1004 C1005 1.362 . S
C1005 H995 0.930 1_565 S
C1005 C998 1.409 . S
C1005 C1004 1.362 . S
H1006 C1012 0.930 . S
H1007 C1015 0.930 . S
H1008 C1016 0.930 . S
H1009 C1017 0.930 . S
H1010 C1020 0.930 . S
H1011 C1021 0.930 . S
C1012 H1006 0.930 . S
C1012 C1013 1.355 . S
C1012 C1014 1.415 . S
C1013 C1012 1.355 . S
C1013 C1015 1.419 . S
C1014 C1012 1.415 . S
C1014 C1019 1.425 . S
C1014 C1021 1.409 . S
C1015 H1007 0.930 . S
C1015 C1013 1.419 . S
C1015 C1016 1.362 . S
C1016 H1008 0.930 . S
C1016 C1015 1.362 . S
C1016 C1019 1.409 . S
C1017 H1009 0.930 . S
C1017 C1018 1.355 . S
C1017 C1019 1.415 . S
C1018 C1017 1.355 . S
C1018 C1020 1.419 . S
C1019 C1014 1.425 . S
C1019 C1016 1.409 . S
C1019 C1017 1.415 . S
C1020 H1010 0.930 . S
C1020 C1018 1.419 . S
C1020 C1021 1.362 . S
C1021 H1011 0.930 . S
C1021 C1014 1.409 . S
C1021 C1020 1.362 . S
H1022 C1028 0.930 . S
H1023 C1031 0.930 . S
H1024 C1032 0.930 . S
H1025 C1033 0.930 . S
H1026 C1036 0.930 . S
H1027 C1037 0.930 . S
C1028 H1022 0.930 . S
C1028 C1029 1.355 . S
C1028 C1030 1.415 . S
C1029 C1028 1.355 . S
C1029 C1031 1.419 . S
C1030 C1028 1.415 . S
C1030 C1035 1.425 . S
C1030 C1037 1.409 . S
C1031 H1023 0.930 . S
C1031 C1029 1.419 . S
C1031 C1032 1.362 . S
C1032 H1024 0.930 . S
C1032 C1031 1.362 . S
C1032 C1035 1.409 . S
C1033 H1025 0.930 . S
C1033 C1034 1.355 . S
C1033 C1035 1.415 . S
C1034 C1033 1.355 . S
C1034 C1036 1.419 . S
C1035 C1030 1.425 . S
C1035 C1032 1.409 . S
C1035 C1033 1.415 . S
C1036 H1026 0.930 . S
C1036 C1034 1.419 . S
C1036 C1037 1.362 . S
C1037 H1027 0.930 . S
C1037 C1030 1.409 . S
C1037 C1036 1.362 . S
H1038 C1044 0.930 . S
H1039 C1047 0.930 . S
H1040 C1048 0.930 . S
H1041 C1049 0.930 . S
H1042 C1052 0.930 . S
H1043 C1053 0.930 . S
C1044 H1038 0.930 . S
C1044 C1045 1.355 . S
C1044 C1046 1.415 . S
C1045 C1044 1.355 . S
C1045 C1047 1.419 . S
C1046 C1044 1.415 . S
C1046 C1051 1.425 . S
C1046 C1053 1.409 . S
C1047 H1039 0.930 . S
C1047 C1045 1.419 . S
C1047 C1048 1.362 . S
C1048 H1040 0.930 . S
C1048 C1047 1.362 . S
C1048 C1051 1.409 . S
C1049 H1041 0.930 . S
C1049 C1050 1.355 . S
C1049 C1051 1.415 . S
C1050 C1049 1.355 . S
C1050 C1052 1.419 . S
C1051 C1046 1.425 . S
C1051 C1048 1.409 . S
C1051 C1049 1.415 . S
C1052 H1042 0.930 . S
C1052 C1050 1.419 . S
C1052 C1053 1.362 . S
C1053 H1043 0.930 . S
C1053 C1046 1.409 . S
C1053 C1052 1.362 . S
H1054 C1060 0.930 . S
H1055 C1063 0.930 . S
H1056 C1064 0.930 . S
H1057 C1065 0.930 . S
H1058 C1068 0.930 . S
H1059 C1069 0.930 . S
C1060 H1054 0.930 . S
C1060 C1061 1.355 . S
C1060 C1062 1.415 . S
C1061 C1060 1.355 . S
C1061 C1063 1.419 . S
C1062 C1060 1.415 . S
C1062 C1067 1.425 . S
C1062 C1069 1.409 . S
C1063 H1055 0.930 . S
C1063 C1061 1.419 . S
C1063 C1064 1.362 . S
C1064 H1056 0.930 . S
C1064 C1063 1.362 . S
C1064 C1067 1.409 . S
C1065 H1057 0.930 . S
C1065 C1066 1.355 . S
C1065 C1067 1.415 . S
C1066 C1065 1.355 . S
C1066 C1068 1.419 . S
C1067 C1062 1.425 . S
C1067 C1064 1.409 . S
C1067 C1065 1.415 . S
C1068 H1058 0.930 . S
C1068 C1066 1.419 . S
C1068 C1069 1.362 . S
C1069 H1059 0.930 . S
C1069 C1062 1.409 . S
C1069 C1068 1.362 . S
H1070 C1076 0.930 . S
H1071 C1079 0.930 . S
H1072 C1080 0.930 . S
H1073 C1081 0.930 . S
H1074 C1084 0.930 . S
H1075 C1085 0.930 . S
C1076 H1070 0.930 . S
C1076 C1077 1.355 . S
C1076 C1078 1.415 . S
C1077 C1076 1.355 . S
C1077 C1079 1.419 . S
C1078 C1076 1.415 . S
C1078 C1083 1.425 . S
C1078 C1085 1.409 . S
C1079 H1071 0.930 . S
C1079 C1077 1.419 . S
C1079 C1080 1.362 . S
C1080 H1072 0.930 . S
C1080 C1079 1.362 . S
C1080 C1083 1.409 . S
C1081 H1073 0.930 . S
C1081 C1082 1.355 . S
C1081 C1083 1.415 . S
C1082 C1081 1.355 . S
C1082 C1084 1.419 . S
C1083 C1078 1.425 . S
C1083 C1080 1.409 . S
C1083 C1081 1.415 . S
C1084 H1074 0.930 . S
C1084 C1082 1.419 . S
C1084 C1085 1.362 . S
C1085 H1075 0.930 . S
C1085 C1078 1.409 . S
C1085 C1084 1.362 . S
H1086 C1092 0.930 . S
H1087 C1095 0.930 . S
H1088 C1096 0.930 . S
H1089 C1097 0.930 . S
H1090 C1100 0.930 . S
H1091 C1101 0.930 . S
C1092 H1086 0.930 . S
C1092 C1093 1.355 . S
C1092 C1094 1.415 . S
C1093 C1092 1.355 . S
C1093 C1095 1.419 . S
C1094 C1092 1.415 . S
C1094 C1099 1.425 . S
C1094 C1101 1.409 . S
C1095 H1087 0.930 . S
C1095 C1093 1.419 . S
C1095 C1096 1.362 . S
C1096 H1088 0.930 . S
C1096 C1095 1.362 . S
C1096 C1099 1.409 . S
C1097 H1089 0.930 . S
C1097 C1098 1.355 . S
C1097 C1099 1.415 . S
C1098 C1097 1.355 . S
C1098 C1100 1.419 . S
C1099 C1094 1.425 . S
C1099 C1096 1.409 . S
C1099 C1097 1.415 . S
C1100 H1090 0.930 . S
C1100 C1098 1.419 . S
C1100 C1101 1.362 . S
C1101 H1091 0.930 . S
C1101 C1094 1.409 . S
C1101 C1100 1.362 . S
H1102 C1108 0.930 . S
H1103 C1111 0.930 . S
H1104 C1112 0.930 . S
H1105 C1113 0.930 . S
H1106 C1116 0.930 . S
H1107 C1117 0.930 . S
C1108 H1102 0.930 . S
C1108 C1109 1.355 . S
C1108 C1110 1.415 . S
C1109 C1108 1.355 . S
C1109 C1111 1.419 . S
C1110 C1108 1.415 . S
C1110 C1115 1.425 . S
C1110 C1117 1.409 . S
C1111 H1103 0.930 . S
C1111 C1109 1.419 . S
C1111 C1112 1.362 . S
C1112 H1104 0.930 . S
C1112 C1111 1.362 . S
C1112 C1115 1.409 . S
C1113 H1105 0.930 . S
C1113 C1114 1.355 . S
C1113 C1115 1.415 . S
C1114 C1113 1.355 . S
C1114 C1116 1.419 . S
C1115 C1110 1.425 . S
C1115 C1112 1.409 . S
C1115 C1113 1.415 . S
C1116 H1106 0.930 . S
C1116 C1114 1.419 . S
C1116 C1117 1.362 . S
C1117 H1107 0.930 . S
C1117 C1110 1.409 . S
C1117 C1116 1.362 . S
H1118 C1124 0.930 . S
H1119 C1127 0.930 . S
H1120 C1128 0.930 . S
H1121 C1129 0.930 . S
H1122 C1132 0.930 . S
H1123 C1133 0.930 . S
C1124 H1118 0.930 . S
C1124 C1125 1.355 . S
C1124 C1126 1.415 . S
C1125 C1124 1.355 . S
C1125 C1127 1.419 . S
C1126 C1124 1.415 . S
C1126 C1131 1.425 . S
C1126 C1133 1.409 . S
C1127 H1119 0.930 . S
C1127 C1125 1.419 . S
C1127 C1128 1.362 . S
C1128 H1120 0.930 . S
C1128 C1127 1.362 . S
C1128 C1131 1.409 . S
C1129 H1121 0.930 . S
C1129 C1130 1.355 . S
C1129 C1131 1.415 . S
C1130 C1129 1.355 . S
C1130 C1132 1.419 . S
C1131 C1126 1.425 . S
C1131 C1128 1.409 . S
C1131 C1129 1.415 . S
C1132 H1122 0.930 . S
C1132 C1130 1.419 . S
C1132 C1133 1.362 . S
C1133 H1123 0.930 . S
C1133 C1126 1.409 . S
C1133 C1132 1.362 . S
H1134 C1140 0.930 . S
H1135 C1143 0.930 . S
H1136 C1144 0.930 . S
H1137 C1145 0.930 . S
H1138 C1148 0.930 . S
H1139 C1149 0.930 . S
C1140 H1134 0.930 . S
C1140 C1141 1.355 . S
C1140 C1142 1.415 . S
C1141 C1140 1.355 . S
C1141 C1143 1.419 . S
C1142 C1140 1.415 . S
C1142 C1147 1.425 . S
C1142 C1149 1.409 . S
C1143 H1135 0.930 . S
C1143 C1141 1.419 . S
C1143 C1144 1.362 . S
C1144 H1136 0.930 . S
C1144 C1143 1.362 . S
C1144 C1147 1.409 . S
C1145 H1137 0.930 . S
C1145 C1146 1.355 . S
C1145 C1147 1.415 . S
C1146 C1145 1.355 . S
C1146 C1148 1.419 . S
C1147 C1142 1.425 . S
C1147 C1144 1.409 . S
C1147 C1145 1.415 . S
C1148 H1138 0.930 . S
C1148 C1146 1.419 . S
C1148 C1149 1.362 . S
C1149 H1139 0.930 . S
C1149 C1142 1.409 . S
C1149 C1148 1.362 . S
H1150 C1156 0.930 . S
H1151 C1159 0.930 . S
H1152 C1160 0.930 . S
H1153 C1161 0.930 . S
H1154 C1164 0.930 . S
H1155 C1165 0.930 . S
C1156 H1150 0.930 . S
C1156 C1157 1.355 . S
C1156 C1158 1.415 . S
C1157 C1156 1.355 . S
C1157 C1159 1.419 . S
C1158 C1156 1.415 . S
C1158 C1163 1.425 . S
C1158 C1165 1.409 . S
C1159 H1151 0.930 . S
C1159 C1157 1.419 . S
C1159 C1160 1.362 . S
C1160 H1152 0.930 . S
C1160 C1159 1.362 . S
C1160 C1163 1.409 . S
C1161 H1153 0.930 . S
C1161 C1162 1.355 . S
C1161 C1163 1.415 . S
C1162 C1161 1.355 . S
C1162 C1164 1.419 . S
C1163 C1158 1.425 . S
C1163 C1160 1.409 . S
C1163 C1161 1.415 . S
C1164 H1154 0.930 . S
C1164 C1162 1.419 . S
C1164 C1165 1.362 . S
C1165 H1155 0.930 . S
C1165 C1158 1.409 . S
C1165 C1164 1.362 . S
H1166 C1172 0.930 . S
H1167 C1175 0.930 . S
H1168 C1176 0.930 . S
H1169 C1177 0.930 . S
H1170 C1180 0.930 . S
H1171 C1181 0.930 . S
C1172 H1166 0.930 . S
C1172 C1173 1.355 . S
C1172 C1174 1.415 . S
C1173 C1172 1.355 . S
C1173 C1175 1.419 . S
C1174 C1172 1.415 . S
C1174 C1179 1.425 . S
C1174 C1181 1.409 . S
C1175 H1167 0.930 . S
C1175 C1173 1.419 . S
C1175 C1176 1.362 . S
C1176 H1168 0.930 . S
C1176 C1175 1.362 . S
C1176 C1179 1.409 . S
C1177 H1169 0.930 . S
C1177 C1178 1.355 . S
C1177 C1179 1.415 . S
C1178 C1177 1.355 . S
C1178 C1180 1.419 . S
C1179 C1174 1.425 . S
C1179 C1176 1.409 . S
C1179 C1177 1.415 . S
C1180 H1170 0.930 . S
C1180 C1178 1.419 . S
C1180 C1181 1.362 . S
C1181 H1171 0.930 . S
C1181 C1174 1.409 . S
C1181 C1180 1.362 . S
H1182 C1188 0.930 . S
H1183 C1191 0.930 . S
H1184 C1192 0.930 . S
H1185 C1193 0.930 . S
H1186 C1196 0.930 . S
H1187 C1197 0.930 . S
C1188 H1182 0.930 . S
C1188 C1189 1.355 . S
C1188 C1190 1.415 . S
C1189 C1188 1.355 . S
C1189 C1191 1.419 . S
C1190 C1188 1.415 . S
C1190 C1195 1.425 . S
C1190 C1197 1.409 . S
C1191 H1183 0.930 . S
C1191 C1189 1.419 . S
C1191 C1192 1.362 . S
C1192 H1184 0.930 . S
C1192 C1191 1.362 . S
C1192 C1195 1.409 . S
C1193 H1185 0.930 . S
C1193 C1194 1.355 . S
C1193 C1195 1.415 . S
C1194 C1193 1.355 . S
C1194 C1196 1.419 . S
C1195 C1190 1.425 . S
C1195 C1192 1.409 . S
C1195 C1193 1.415 . S
C1196 H1186 0.930 . S
C1196 C1194 1.419 . S
C1196 C1197 1.362 . S
C1197 H1187 0.930 . S
C1197 C1190 1.409 . S
C1197 C1196 1.362 . S
H1198 C1204 0.930 . S
H1199 C1207 0.930 . S
H1200 C1208 0.930 . S
H1201 C1209 0.930 . S
H1202 C1212 0.930 . S
H1203 C1213 0.930 . S
C1204 H1198 0.930 . S
C1204 C1205 1.355 . S
C1204 C1206 1.415 . S
C1205 C1204 1.355 . S
C1205 C1207 1.419 . S
C1206 C1204 1.415 . S
C1206 C1211 1.425 . S
C1206 C1213 1.409 . S
C1207 H1199 0.930 . S
C1207 C1205 1.419 . S
C1207 C1208 1.362 . S
C1208 H1200 0.930 . S
C1208 C1207 1.362 . S
C1208 C1211 1.409 . S
C1209 H1201 0.930 . S
C1209 C1210 1.355 . S
C1209 C1211 1.415 . S
C1210 C1209 1.355 . S
C1210 C1212 1.419 . S
C1211 C1206 1.425 . S
C1211 C1208 1.409 . S
C1211 C1209 1.415 . S
C1212 H1202 0.930 . S
C1212 C1210 1.419 . S
C1212 C1213 1.362 . S
C1213 H1203 0.930 . S
C1213 C1206 1.409 . S
C1213 C1212 1.362 . S
H1214 C1220 0.930 . S
H1215 C1223 0.930 . S
H1216 C1224 0.930 . S
H1217 C1225 0.930 . S
H1218 C1228 0.930 . S
H1219 C1229 0.930 . S
C1220 H1214 0.930 . S
C1220 C1221 1.355 . S
C1220 C1222 1.415 . S
C1221 C1220 1.355 . S
C1221 C1223 1.419 . S
C1222 C1220 1.415 . S
C1222 C1227 1.425 . S
C1222 C1229 1.409 . S
C1223 H1215 0.930 . S
C1223 C1221 1.419 . S
C1223 C1224 1.362 . S
C1224 H1216 0.930 . S
C1224 C1223 1.362 . S
C1224 C1227 1.409 . S
C1225 H1217 0.930 . S
C1225 C1226 1.355 . S
C1225 C1227 1.415 . S
C1226 C1225 1.355 . S
C1226 C1228 1.419 . S
C1227 C1222 1.425 . S
C1227 C1224 1.409 . S
C1227 C1225 1.415 . S
C1228 H1218 0.930 . S
C1228 C1226 1.419 . S
C1228 C1229 1.362 . S
C1229 H1219 0.930 . S
C1229 C1222 1.409 . S
C1229 C1228 1.362 . S
H1230 C1236 0.930 . S
H1231 C1239 0.930 . S
H1232 C1240 0.930 . S
H1233 C1241 0.930 . S
H1234 C1244 0.930 . S
H1235 C1245 0.930 . S
C1236 H1230 0.930 . S
C1236 C1237 1.355 . S
C1236 C1238 1.415 . S
C1237 C1236 1.355 . S
C1237 C1239 1.419 . S
C1238 C1236 1.415 . S
C1238 C1243 1.425 . S
C1238 C1245 1.409 . S
C1239 H1231 0.930 . S
C1239 C1237 1.419 . S
C1239 C1240 1.362 . S
C1240 H1232 0.930 . S
C1240 C1239 1.362 . S
C1240 C1243 1.409 . S
C1241 H1233 0.930 . S
C1241 C1242 1.355 . S
C1241 C1243 1.415 . S
C1242 C1241 1.355 . S
C1242 C1244 1.419 . S
C1243 C1238 1.425 . S
C1243 C1240 1.409 . S
C1243 C1241 1.415 . S
C1244 H1234 0.930 . S
C1244 C1242 1.419 . S
C1244 C1245 1.362 . S
C1245 H1235 0.930 . S
C1245 C1238 1.409 . S
C1245 C1244 1.362 . S
H1246 C1252 0.930 . S
H1247 C1255 0.930 . S
H1248 C1256 0.930 . S
H1249 C1257 0.930 . S
H1250 C1260 0.930 . S
H1251 C1261 0.930 . S
C1252 H1246 0.930 . S
C1252 C1253 1.355 . S
C1252 C1254 1.415 . S
C1253 C1252 1.355 . S
C1253 C1255 1.419 . S
C1254 C1252 1.415 . S
C1254 C1259 1.425 . S
C1254 C1261 1.409 . S
C1255 H1247 0.930 . S
C1255 C1253 1.419 . S
C1255 C1256 1.362 . S
C1256 H1248 0.930 . S
C1256 C1255 1.362 . S
C1256 C1259 1.409 . S
C1257 H1249 0.930 . S
C1257 C1258 1.355 . S
C1257 C1259 1.415 . S
C1258 C1257 1.355 . S
C1258 C1260 1.419 . S
C1259 C1254 1.425 . S
C1259 C1256 1.409 . S
C1259 C1257 1.415 . S
C1260 H1250 0.930 . S
C1260 C1258 1.419 . S
C1260 C1261 1.362 . S
C1261 H1251 0.930 . S
C1261 C1254 1.409 . S
C1261 C1260 1.362 . S
H1262 C1268 0.930 . S
H1263 C1271 0.930 . S
H1264 C1272 0.930 . S
H1265 C1273 0.930 . S
H1266 C1276 0.930 . S
H1267 C1277 0.930 . S
C1268 H1262 0.930 . S
C1268 C1269 1.355 . S
C1268 C1270 1.415 . S
C1269 C1268 1.355 . S
C1269 C1271 1.419 . S
C1270 C1268 1.415 . S
C1270 C1275 1.425 . S
C1270 C1277 1.409 . S
C1271 H1263 0.930 . S
C1271 C1269 1.419 . S
C1271 C1272 1.362 . S
C1272 H1264 0.930 . S
C1272 C1271 1.362 . S
C1272 C1275 1.409 . S
C1273 H1265 0.930 . S
C1273 C1274 1.355 . S
C1273 C1275 1.415 . S
C1274 C1273 1.355 . S
C1274 C1276 1.419 . S
C1275 C1270 1.425 . S
C1275 C1272 1.409 . S
C1275 C1273 1.415 . S
C1276 H1266 0.930 . S
C1276 C1274 1.419 . S
C1276 C1277 1.362 . S
C1277 H1267 0.930 . S
C1277 C1270 1.409 . S
C1277 C1276 1.362 . S
C421 N170 1.838 . S
C426 C240 1.866 . S
C437 N184 1.142 . S
C442 C260 1.143 . S
C453 N158 1.569 . S
C458 C283 1.573 . S
C469 N145 1.492 . S
C474 C263 1.495 1_556 S
C490 C280 1.031 1_556 S
C485 N119 1.078 . S
C501 N131 1.856 . S
C506 C243 1.870 . S
C522 C250 1.575 1_556 S
C517 N144 1.628 . S
C538 C270 1.388 . S
C533 N118 1.425 . S
C549 N132 1.530 . S
C554 C275 1.532 . S
C565 N171 1.452 . S
C570 C255 1.466 . S
C581 N183 1.355 . S
C586 C290 1.300 . S
C602 C235 1.571 . S
C597 N157 1.560 . S
C618 C300 1.843 . S
C613 N14 1.868 . S
C629 N28 1.124 . S
C634 C320 1.126 . S
C645 N2 1.554 . S
C650 C343 1.545 . S
C661 N223 1.507 . S
C666 C323 1.501 . S
C677 N197 1.076 . S
C682 C340 1.051 . S
C693 N209 1.858 . S
C698 C303 1.869 . S
C709 N222 1.620 . S
C714 C310 1.575 . S
C725 N196 1.436 . S
C730 C330 1.357 . S
C746 C335 1.532 . S
C741 N210 1.527 . S
C757 N15 1.456 . S
C762 C315 1.467 . S
C778 C350 1.319 . S
C773 N27 1.353 . S
C789 N1 1.577 . S
C794 C295 1.573 . S
C810 C360 1.833 . S
C805 N92 1.841 . S
C821 N106 1.119 . S
C826 C380 1.074 . S
C842 C403 1.575 . S
C837 N80 1.572 . S
C858 C383 1.489 . S
C853 N67 1.487 . S
C874 C400 1.094 . S
C869 N41 1.079 . S
C885 N53 1.815 . S
C890 C363 1.837 . S
C901 N66 1.623 . S
C906 C370 1.574 . S
C917 N40 1.417 . S
C922 C390 1.407 . S
C938 C395 1.526 . S
C933 N54 1.514 . S
C949 N93 1.475 . S
C954 C375 1.476 . S
C965 N105 1.356 . S
C970 C410 1.298 . S
C981 N79 1.575 . S
C986 C355 1.576 . S
C997 N200 1.042 . S
C1002 C253 0.981 . S
C1018 C273 1.847 . S
C1013 N213 1.836 . S
C1029 N226 1.506 . S
C1034 C282 1.501 . S
C1045 N83 1.598 . S
C1050 C262 1.523 . S
C1061 N96 1.759 . S
C1066 C293 1.770 . S
C1082 C242 1.047 . S
C1077 N109 1.115 . S
C1093 N44 1.013 . S
C1098 C313 1.034 . S
C1109 N57 1.879 . S
C1114 C333 1.822 . S
C1125 N70 1.503 . S
C1130 C342 1.433 . S
C1141 N161 1.573 . S
C1146 C322 1.509 . S
C1162 C353 1.790 . S
C1157 N174 1.767 . S
C1173 N187 1.044 . S
C1178 C302 1.089 . S
C1189 N122 1.008 . S
C1194 C373 1.004 . S
C1205 N135 1.843 . S
C1210 C393 1.857 . S
C1226 C402 1.495 . S
C1221 N148 1.478 . S
C1237 N5 1.601 . S
C1242 C382 1.521 . S
C1253 N18 1.802 . S
C1258 C413 1.749 . S
C1269 N31 1.110 . S
C1274 C362 1.017 . S
