# Generated by pormake.
# Topology llk, (3,12)-cn, num edge types: 1
# Building blocks:
#     Node 0, Type 0, BuildingBlock: BELTOD_clean_linker_0, # of connection points: 3
#     Node 1, Type 0, BuildingBlock: BELTOD_clean_linker_0, # of connection points: 3
#     Node 2, Type 0, BuildingBlock: BELTOD_clean_linker_0, # of connection points: 3
#     Node 3, Type 0, BuildingBlock: BELTOD_clean_linker_0, # of connection points: 3
#     Node 4, Type 0, BuildingBlock: BELTOD_clean_linker_0, # of connection points: 3
#     Node 5, Type 0, BuildingBlock: BELTOD_clean_linker_0, # of connection points: 3
#     Node 6, Type 0, BuildingBlock: BELTOD_clean_linker_0, # of connection points: 3
#     Node 7, Type 0, BuildingBlock: BELTOD_clean_linker_0, # of connection points: 3
#     Node 8, Type 0, BuildingBlock: BELTOD_clean_linker_0, # of connection points: 3
#     Node 9, Type 0, BuildingBlock: BELTOD_clean_linker_0, # of connection points: 3
#     Node 10, Type 0, BuildingBlock: BELTOD_clean_linker_0, # of connection points: 3
#     Node 11, Type 0, BuildingBlock: BELTOD_clean_linker_0, # of connection points: 3
#     Node 12, Type 0, BuildingBlock: BELTOD_clean_linker_0, # of connection points: 3
#     Node 13, Type 0, BuildingBlock: BELTOD_clean_linker_0, # of connection points: 3
#     Node 14, Type 0, BuildingBlock: BELTOD_clean_linker_0, # of connection points: 3
#     Node 15, Type 0, BuildingBlock: BELTOD_clean_linker_0, # of connection points: 3
#     Node 16, Type 0, BuildingBlock: BELTOD_clean_linker_0, # of connection points: 3
#     Node 17, Type 0, BuildingBlock: BELTOD_clean_linker_0, # of connection points: 3
#     Node 18, Type 0, BuildingBlock: BELTOD_clean_linker_0, # of connection points: 3
#     Node 19, Type 0, BuildingBlock: BELTOD_clean_linker_0, # of connection points: 3
#     Node 20, Type 0, BuildingBlock: BELTOD_clean_linker_0, # of connection points: 3
#     Node 21, Type 0, BuildingBlock: BELTOD_clean_linker_0, # of connection points: 3
#     Node 22, Type 0, BuildingBlock: BELTOD_clean_linker_0, # of connection points: 3
#     Node 23, Type 0, BuildingBlock: BELTOD_clean_linker_0, # of connection points: 3
#     Node 24, Type 1, BuildingBlock: EZIPEK_clean_sbu_0, # of connection points: 12
#     Node 25, Type 1, BuildingBlock: EZIPEK_clean_sbu_0, # of connection points: 12
#     Node 26, Type 1, BuildingBlock: EZIPEK_clean_sbu_0, # of connection points: 12
#     Node 27, Type 1, BuildingBlock: EZIPEK_clean_sbu_0, # of connection points: 12
#     Node 28, Type 1, BuildingBlock: EZIPEK_clean_sbu_0, # of connection points: 12
#     Node 29, Type 1, BuildingBlock: EZIPEK_clean_sbu_0, # of connection points: 12
#     Edge 30, Type (0, 1), BuildingBlock: EZIPEK_clean_linker_0, # of connection points: 2
#     Edge 31, Type (0, 1), BuildingBlock: EZIPEK_clean_linker_0, # of connection points: 2
#     Edge 32, Type (0, 1), BuildingBlock: EZIPEK_clean_linker_0, # of connection points: 2
#     Edge 33, Type (0, 1), BuildingBlock: EZIPEK_clean_linker_0, # of connection points: 2
#     Edge 34, Type (0, 1), BuildingBlock: EZIPEK_clean_linker_0, # of connection points: 2
#     Edge 35, Type (0, 1), BuildingBlock: EZIPEK_clean_linker_0, # of connection points: 2
#     Edge 36, Type (0, 1), BuildingBlock: EZIPEK_clean_linker_0, # of connection points: 2
#     Edge 37, Type (0, 1), BuildingBlock: EZIPEK_clean_linker_0, # of connection points: 2
#     Edge 38, Type (0, 1), BuildingBlock: EZIPEK_clean_linker_0, # of connection points: 2
#     Edge 39, Type (0, 1), BuildingBlock: EZIPEK_clean_linker_0, # of connection points: 2
#     Edge 40, Type (0, 1), BuildingBlock: EZIPEK_clean_linker_0, # of connection points: 2
#     Edge 41, Type (0, 1), BuildingBlock: EZIPEK_clean_linker_0, # of connection points: 2
#     Edge 42, Type (0, 1), BuildingBlock: EZIPEK_clean_linker_0, # of connection points: 2
#     Edge 43, Type (0, 1), BuildingBlock: EZIPEK_clean_linker_0, # of connection points: 2
#     Edge 44, Type (0, 1), BuildingBlock: EZIPEK_clean_linker_0, # of connection points: 2
#     Edge 45, Type (0, 1), BuildingBlock: EZIPEK_clean_linker_0, # of connection points: 2
#     Edge 46, Type (0, 1), BuildingBlock: EZIPEK_clean_linker_0, # of connection points: 2
#     Edge 47, Type (0, 1), BuildingBlock: EZIPEK_clean_linker_0, # of connection points: 2
#     Edge 48, Type (0, 1), BuildingBlock: EZIPEK_clean_linker_0, # of connection points: 2
#     Edge 49, Type (0, 1), BuildingBlock: EZIPEK_clean_linker_0, # of connection points: 2
#     Edge 50, Type (0, 1), BuildingBlock: EZIPEK_clean_linker_0, # of connection points: 2
#     Edge 51, Type (0, 1), BuildingBlock: EZIPEK_clean_linker_0, # of connection points: 2
#     Edge 52, Type (0, 1), BuildingBlock: EZIPEK_clean_linker_0, # of connection points: 2
#     Edge 53, Type (0, 1), BuildingBlock: EZIPEK_clean_linker_0, # of connection points: 2
#     Edge 54, Type (0, 1), BuildingBlock: EZIPEK_clean_linker_0, # of connection points: 2
#     Edge 55, Type (0, 1), BuildingBlock: EZIPEK_clean_linker_0, # of connection points: 2
#     Edge 56, Type (0, 1), BuildingBlock: EZIPEK_clean_linker_0, # of connection points: 2
#     Edge 57, Type (0, 1), BuildingBlock: EZIPEK_clean_linker_0, # of connection points: 2
#     Edge 58, Type (0, 1), BuildingBlock: EZIPEK_clean_linker_0, # of connection points: 2
#     Edge 59, Type (0, 1), BuildingBlock: EZIPEK_clean_linker_0, # of connection points: 2
#     Edge 60, Type (0, 1), BuildingBlock: EZIPEK_clean_linker_0, # of connection points: 2
#     Edge 61, Type (0, 1), BuildingBlock: EZIPEK_clean_linker_0, # of connection points: 2
#     Edge 62, Type (0, 1), BuildingBlock: EZIPEK_clean_linker_0, # of connection points: 2
#     Edge 63, Type (0, 1), BuildingBlock: EZIPEK_clean_linker_0, # of connection points: 2
#     Edge 64, Type (0, 1), BuildingBlock: EZIPEK_clean_linker_0, # of connection points: 2
#     Edge 65, Type (0, 1), BuildingBlock: EZIPEK_clean_linker_0, # of connection points: 2
#     Edge 66, Type (0, 1), BuildingBlock: EZIPEK_clean_linker_0, # of connection points: 2
#     Edge 67, Type (0, 1), BuildingBlock: EZIPEK_clean_linker_0, # of connection points: 2
#     Edge 68, Type (0, 1), BuildingBlock: EZIPEK_clean_linker_0, # of connection points: 2
#     Edge 69, Type (0, 1), BuildingBlock: EZIPEK_clean_linker_0, # of connection points: 2
#     Edge 70, Type (0, 1), BuildingBlock: EZIPEK_clean_linker_0, # of connection points: 2
#     Edge 71, Type (0, 1), BuildingBlock: EZIPEK_clean_linker_0, # of connection points: 2
#     Edge 72, Type (0, 1), BuildingBlock: EZIPEK_clean_linker_0, # of connection points: 2
#     Edge 73, Type (0, 1), BuildingBlock: EZIPEK_clean_linker_0, # of connection points: 2
#     Edge 74, Type (0, 1), BuildingBlock: EZIPEK_clean_linker_0, # of connection points: 2
#     Edge 75, Type (0, 1), BuildingBlock: EZIPEK_clean_linker_0, # of connection points: 2
#     Edge 76, Type (0, 1), BuildingBlock: EZIPEK_clean_linker_0, # of connection points: 2
#     Edge 77, Type (0, 1), BuildingBlock: EZIPEK_clean_linker_0, # of connection points: 2
#     Edge 78, Type (0, 1), BuildingBlock: EZIPEK_clean_linker_0, # of connection points: 2
#     Edge 79, Type (0, 1), BuildingBlock: EZIPEK_clean_linker_0, # of connection points: 2
#     Edge 80, Type (0, 1), BuildingBlock: EZIPEK_clean_linker_0, # of connection points: 2
#     Edge 81, Type (0, 1), BuildingBlock: EZIPEK_clean_linker_0, # of connection points: 2
#     Edge 82, Type (0, 1), BuildingBlock: EZIPEK_clean_linker_0, # of connection points: 2
#     Edge 83, Type (0, 1), BuildingBlock: EZIPEK_clean_linker_0, # of connection points: 2
#     Edge 84, Type (0, 1), BuildingBlock: EZIPEK_clean_linker_0, # of connection points: 2
#     Edge 85, Type (0, 1), BuildingBlock: EZIPEK_clean_linker_0, # of connection points: 2
#     Edge 86, Type (0, 1), BuildingBlock: EZIPEK_clean_linker_0, # of connection points: 2
#     Edge 87, Type (0, 1), BuildingBlock: EZIPEK_clean_linker_0, # of connection points: 2
#     Edge 88, Type (0, 1), BuildingBlock: EZIPEK_clean_linker_0, # of connection points: 2
#     Edge 89, Type (0, 1), BuildingBlock: EZIPEK_clean_linker_0, # of connection points: 2
#     Edge 90, Type (0, 1), BuildingBlock: EZIPEK_clean_linker_0, # of connection points: 2
#     Edge 91, Type (0, 1), BuildingBlock: EZIPEK_clean_linker_0, # of connection points: 2
#     Edge 92, Type (0, 1), BuildingBlock: EZIPEK_clean_linker_0, # of connection points: 2
#     Edge 93, Type (0, 1), BuildingBlock: EZIPEK_clean_linker_0, # of connection points: 2
#     Edge 94, Type (0, 1), BuildingBlock: EZIPEK_clean_linker_0, # of connection points: 2
#     Edge 95, Type (0, 1), BuildingBlock: EZIPEK_clean_linker_0, # of connection points: 2
#     Edge 96, Type (0, 1), BuildingBlock: EZIPEK_clean_linker_0, # of connection points: 2
#     Edge 97, Type (0, 1), BuildingBlock: EZIPEK_clean_linker_0, # of connection points: 2
#     Edge 98, Type (0, 1), BuildingBlock: EZIPEK_clean_linker_0, # of connection points: 2
#     Edge 99, Type (0, 1), BuildingBlock: EZIPEK_clean_linker_0, # of connection points: 2
#     Edge 100, Type (0, 1), BuildingBlock: EZIPEK_clean_linker_0, # of connection points: 2
#     Edge 101, Type (0, 1), BuildingBlock: EZIPEK_clean_linker_0, # of connection points: 2
# Relax obj value: 0.096
# Max RMSD: 0.146
# Mean RMSD: 0.122
data_MOF--net-llk--node1-EZIPEK_clean_sbu_0--node2-BELTOD_clean_linker_0--edge1-EZIPEK_clean_linker_0
_symmetry_space_group_name_H-M    P1
_symmetry_Int_Tables_number       1
_symmetry_cell_setting            triclinic
loop_
_symmetry_equiv_pos_as_xyz
'x, y, z'
_cell_length_a     41.40247
_cell_length_b     41.607895
_cell_length_c     41.39574
_cell_angle_alpha  89.979612
_cell_angle_beta   90.02194
_cell_angle_gamma 90.006363
loop_
_atom_site_label
_atom_site_type_symbol
_atom_site_fract_x
_atom_site_fract_y
_atom_site_fract_z
_atom_type_partial_charge
P0 P 0.96401 0.2477 0.24799 0.0
H1 H 0.95015 0.25638 0.1791 0.0
H2 H 0.96593 0.29965 0.14221 0.0
H3 H 0.03813 0.33117 0.21015 0.0
H4 H 0.02279 0.28745 0.24699 0.0
H5 H 0.93195 0.18963 0.26993 0.0
H6 H 0.94773 0.15084 0.31105 0.0
H7 H 0.04538 0.18658 0.30795 0.0
H8 H 0.02972 0.22505 0.26548 0.0
H9 H 0.93753 0.31252 0.25185 0.0
H10 H 0.98808 0.24737 0.31565 0.0
O11 O 0.92608 0.24144 0.23582 0.0
H12 H 0.94452 0.35569 0.29191 0.0
H13 H 0.99685 0.29029 0.35356 0.0
C14 C 0.98519 0.26856 0.21595 0.0
C15 C 0.97029 0.27165 0.18562 0.0
C16 C 0.97903 0.29661 0.16467 0.0
C17 C 0.00275 0.31895 0.17374 0.0
C18 C 0.01959 0.31431 0.20283 0.0
C19 C 0.01109 0.28906 0.22364 0.0
C20 C 0.97962 0.21037 0.2644 0.0
C21 C 0.95718 0.18818 0.27664 0.0
C22 C 0.96609 0.16617 0.30053 0.0
C23 C 0.99756 0.16618 0.31309 0.0
C24 C 0.02092 0.18618 0.29868 0.0
C25 C 0.01209 0.20784 0.27408 0.0
C26 C 0.96265 0.27665 0.28027 0.0
C27 C 0.94975 0.30731 0.27439 0.0
C28 C 0.95405 0.33196 0.29693 0.0
C29 C 0.97182 0.32617 0.32521 0.0
C30 C 0.98353 0.29527 0.33157 0.0
C31 C 0.97854 0.27064 0.30958 0.0
P32 P 0.75762 0.95849 0.24976 0.0
H33 H 0.74642 0.93311 0.18543 0.0
H34 H 0.71005 0.9482 0.14378 0.0
H35 H 0.68854 0.03608 0.19543 0.0
H36 H 0.72528 0.02005 0.23707 0.0
H37 H 0.8235 0.93768 0.26406 0.0
H38 H 0.86183 0.9563 0.30479 0.0
H39 H 0.80454 0.04141 0.31987 0.0
H40 H 0.76569 0.02263 0.2791 0.0
H41 H 0.68689 0.95382 0.24452 0.0
H42 H 0.75826 0.95715 0.3207 0.0
O43 O 0.76823 0.92064 0.24166 0.0
H44 H 0.64401 0.96056 0.2846 0.0
H45 H 0.71521 0.96402 0.36055 0.0
C46 C 0.74038 0.97623 0.21373 0.0
C47 C 0.7357 0.9568 0.18665 0.0
C48 C 0.71477 0.96616 0.16194 0.0
C49 C 0.69865 0.99625 0.16225 0.0
C50 C 0.70286 0.01505 0.19057 0.0
C51 C 0.72399 0.00561 0.21537 0.0
C52 C 0.79163 0.97878 0.26825 0.0
C53 C 0.81964 0.96097 0.27502 0.0
C54 C 0.84151 0.97148 0.29849 0.0
C55 C 0.83584 1.00004 0.31551 0.0
C56 C 0.80937 0.01934 0.30687 0.0
C57 C 0.78739 0.00877 0.28332 0.0
C58 C 0.72595 0.95689 0.27942 0.0
C59 C 0.69345 0.95605 0.26972 0.0
C60 C 0.66895 0.9597 0.2925 0.0
C61 C 0.67677 0.96354 0.32517 0.0
C62 C 0.70901 0.96167 0.33523 0.0
C63 C 0.73349 0.95796 0.31246 0.0
P64 P 0.05885 0.75371 0.25469 0.0
H65 H 0.09381 0.72811 0.19985 0.0
H66 H 0.07805 0.68985 0.15858 0.0
H67 H 0.97788 0.70314 0.18369 0.0
H68 H 0.99395 0.7402 0.22707 0.0
H69 H 0.08987 0.79758 0.29863 0.0
H70 H 0.06944 0.83907 0.33469 0.0
H71 H 0.97526 0.8311 0.29111 0.0
H72 H 0.99601 0.78966 0.25394 0.0
H73 H 0.09329 0.69629 0.27644 0.0
H74 H 1.00043 0.74095 0.29214 0.0
O75 O 0.09908 0.75635 0.25315 0.0
H76 H 0.07842 0.65325 0.3144 0.0
H77 H 0.98619 0.69869 0.33033 0.0
C78 C 0.0451 0.73788 0.2164 0.0
C79 C 0.0683 0.72383 0.1961 0.0
C80 C 0.05934 0.70157 0.17259 0.0
C81 C 0.02681 0.69316 0.16825 0.0
C82 C 0.00318 0.70904 0.18676 0.0
C83 C 0.01232 0.73078 0.21111 0.0
C84 C 0.04471 0.79067 0.27299 0.0
C85 C 0.06506 0.80533 0.29581 0.0
C86 C 0.05334 0.82875 0.31684 0.0
C87 C 0.0208 0.83779 0.31588 0.0
C88 C 1.00046 0.82421 0.29232 0.0
C89 C 0.0124 0.80084 0.27087 0.0
C90 C 0.0485 0.7225 0.28255 0.0
C91 C 0.06995 0.69705 0.28821 0.0
C92 C 0.06142 0.67243 0.30948 0.0
C93 C 0.03136 0.6732 0.32503 0.0
C94 C 0.00953 0.69801 0.31852 0.0
C95 C 0.01791 0.72233 0.29708 0.0
P96 P 0.25317 0.95769 0.25181 0.0
H97 H 0.19325 0.9265 0.26974 0.0
H98 H 0.15116 0.94166 0.3056 0.0
H99 H 0.1905 0.0381 0.30927 0.0
H100 H 0.23255 0.02191 0.27321 0.0
H101 H 0.26342 0.93182 0.18686 0.0
H102 H 0.30455 0.9452 0.14673 0.0
H103 H 0.32543 0.0332 0.19749 0.0
H104 H 0.28366 0.02011 0.23754 0.0
H105 H 0.24766 0.96533 0.32246 0.0
H106 H 0.32403 0.95841 0.25152 0.0
O107 O 0.24911 0.91818 0.24609 0.0
H108 H 0.28762 0.97729 0.3641 0.0
H109 H 0.36379 0.9708 0.29345 0.0
C110 C 0.21531 0.97343 0.26701 0.0
C111 C 0.19148 0.95159 0.27639 0.0
C112 C 0.16658 0.96081 0.29709 0.0
C113 C 0.1632 0.99283 0.30836 0.0
C114 C 0.18816 0.01446 0.29918 0.0
C115 C 0.21323 0.00509 0.27827 0.0
C116 C 0.27051 0.97482 0.21549 0.0
C117 C 0.27573 0.95469 0.18876 0.0
C118 C 0.2995 0.96214 0.16595 0.0
C119 C 0.31856 0.98982 0.16952 0.0
C120 C 0.31116 0.0116 0.1944 0.0
C121 C 0.28698 0.00432 0.21702 0.0
C122 C 0.28261 0.96277 0.28336 0.0
C123 C 0.27279 0.96692 0.31556 0.0
C124 C 0.29551 0.97371 0.3394 0.0
C125 C 0.32825 0.97591 0.33136 0.0
C126 C 0.33837 0.97007 0.29965 0.0
C127 C 0.31567 0.96304 0.27584 0.0
P128 P 0.94993 0.75058 0.74927 0.0
H129 H 0.92562 0.73985 0.8148 0.0
H130 H 0.9408 0.69964 0.85515 0.0
H131 H 0.02778 0.679 0.802 0.0
H132 H 0.01279 0.71957 0.76151 0.0
H133 H 0.92206 0.81202 0.73035 0.0
H134 H 0.93912 0.8511 0.69002 0.0
H135 H 0.03289 0.80637 0.68531 0.0
H136 H 0.01551 0.76643 0.72567 0.0
H137 H 0.94715 0.6802 0.75219 0.0
H138 H 0.95387 0.75316 0.67802 0.0
O139 O 0.91098 0.75763 0.7569 0.0
H140 H 0.95956 0.63898 0.71207 0.0
H141 H 0.9658 0.71169 0.63808 0.0
C142 C 0.9681 0.73302 0.78502 0.0
C143 C 0.94861 0.72773 0.8123 0.0
C144 C 0.95702 0.70442 0.83519 0.0
C145 C 0.98502 0.68588 0.83115 0.0
C146 C 0.0059 0.69287 0.80535 0.0
C147 C 0.99763 0.7165 0.78258 0.0
C148 C 0.96756 0.78633 0.73155 0.0
C149 C 0.94669 0.81104 0.72168 0.0
C150 C 0.95626 0.83317 0.69819 0.0
C151 C 0.98699 0.8312 0.68403 0.0
C152 C 0.00889 0.80804 0.69558 0.0
C153 C 0.99919 0.78567 0.71913 0.0
C154 C 0.95161 0.72003 0.71861 0.0
C155 C 0.95142 0.68748 0.72747 0.0
C156 C 0.95843 0.66394 0.70466 0.0
C157 C 0.96463 0.67269 0.67259 0.0
C158 C 0.96196 0.70485 0.66304 0.0
C159 C 0.9552 0.72842 0.68593 0.0
P160 P 0.2548 0.95717 0.7529 0.0
H161 H 0.26709 0.9313 0.8169 0.0
H162 H 0.30334 0.94678 0.85857 0.0
H163 H 0.32167 0.03611 0.80827 0.0
H164 H 0.28483 0.01979 0.76667 0.0
H165 H 0.18678 0.93885 0.74599 0.0
H166 H 0.14689 0.95321 0.70488 0.0
H167 H 0.2081 0.03051 0.67245 0.0
H168 H 0.24796 0.01657 0.71425 0.0
H169 H 0.32571 0.95556 0.75978 0.0
H170 H 0.25592 0.95146 0.68214 0.0
O171 O 0.24438 0.91928 0.76111 0.0
H172 H 0.36909 0.96187 0.72031 0.0
H173 H 0.29959 0.95808 0.64285 0.0
C174 C 0.27134 0.97512 0.7893 0.0
C175 C 0.27699 0.95536 0.81602 0.0
C176 C 0.2979 0.96489 0.84073 0.0
C177 C 0.31311 0.99544 0.84093 0.0
C178 C 0.30802 0.01461 0.81293 0.0
C179 C 0.28685 0.00501 0.78812 0.0
C180 C 0.22065 0.97642 0.73317 0.0
C181 C 0.19123 0.95972 0.73101 0.0
C182 C 0.16846 0.96775 0.70731 0.0
C183 C 0.17471 0.99256 0.68515 0.0
C184 C 0.20279 0.01119 0.68916 0.0
C185 C 0.22541 0.00342 0.71328 0.0
C186 C 0.28724 0.95521 0.72402 0.0
C187 C 0.31954 0.95619 0.7344 0.0
C188 C 0.3444 0.95954 0.71196 0.0
C189 C 0.33717 0.96128 0.67899 0.0
C190 C 0.30529 0.95742 0.66839 0.0
C191 C 0.28046 0.95389 0.69083 0.0
P192 P 0.04495 0.25091 0.75693 0.0
H193 H 0.04091 0.24129 0.82718 0.0
H194 H 0.02829 0.27988 0.87033 0.0
H195 H 0.99112 0.34611 0.79936 0.0
H196 H 1.0009 0.30696 0.75704 0.0
H197 H 0.08234 0.19996 0.72839 0.0
H198 H 0.06783 0.15834 0.68971 0.0
H199 H 0.96689 0.17641 0.70737 0.0
H200 H 0.98156 0.21844 0.74692 0.0
H201 H 0.0829 0.3082 0.74178 0.0
H202 H 0.00567 0.25375 0.69766 0.0
O203 O 0.08289 0.24756 0.77018 0.0
H204 H 0.07723 0.34914 0.69916 0.0
H205 H 1.00063 0.29384 0.6557 0.0
C206 C 0.02255 0.2712 0.78861 0.0
C207 C 0.02852 0.2634 0.82107 0.0
C208 C 0.02171 0.28565 0.84567 0.0
C209 C 0.00971 0.31642 0.83803 0.0
C210 C 1.00084 0.32284 0.80594 0.0
C211 C 0.00656 0.30023 0.78163 0.0
C212 C 0.03308 0.21216 0.74102 0.0
C213 C 0.05703 0.19419 0.72522 0.0
C214 C 0.04878 0.17071 0.70264 0.0
C215 C 0.01634 0.16479 0.69512 0.0
C216 C 0.99211 0.18089 0.71263 0.0
C217 C 1.00046 0.2044 0.73563 0.0
C218 C 0.04535 0.27739 0.72261 0.0
C219 C 0.06548 0.30452 0.72261 0.0
C220 C 0.06213 0.32788 0.69858 0.0
C221 C 0.03854 0.32418 0.67456 0.0
C222 C 0.01905 0.2968 0.67409 0.0
C223 C 0.02223 0.2737 0.69806 0.0
P224 P 0.76038 0.04433 0.75292 0.0
H225 H 0.72139 0.08215 0.79538 0.0
H226 H 0.68006 0.068 0.83449 0.0
H227 H 0.70924 0.96858 0.82966 0.0
H228 H 0.75019 0.98281 0.78852 0.0
H229 H 0.8304 0.05325 0.75588 0.0
H230 H 0.87131 0.0375 0.7163 0.0
H231 H 0.80455 0.96992 0.67426 0.0
H232 H 0.76383 0.98498 0.71444 0.0
H233 H 0.69433 0.01753 0.74877 0.0
H234 H 0.76145 0.06793 0.68671 0.0
O235 O 0.77305 0.08223 0.75673 0.0
H236 H 0.65671 0.0125 0.70423 0.0
H237 H 0.72327 0.06198 0.64145 0.0
C238 C 0.73957 0.0337 0.78966 0.0
C239 C 0.71976 0.05739 0.80332 0.0
C240 C 0.69572 0.04924 0.8253 0.0
C241 C 0.69117 0.01718 0.83474 0.0
C242 C 0.7121 0.99344 0.82245 0.0
C243 C 0.73588 0.00161 0.79956 0.0
C244 C 0.79378 0.02079 0.73779 0.0
C245 C 0.825 0.03384 0.73932 0.0
C246 C 0.84833 0.02503 0.71652 0.0
C247 C 0.84068 0.00309 0.6919 0.0
C248 C 0.81086 0.98705 0.69291 0.0
C249 C 0.78768 0.99556 0.71604 0.0
C250 C 0.73066 0.04375 0.72131 0.0
C251 C 0.70099 0.02803 0.72587 0.0
C252 C 0.67942 0.02488 0.70037 0.0
C253 C 0.68741 0.03688 0.66988 0.0
C254 C 0.7169 0.05272 0.66506 0.0
C255 C 0.73842 0.05625 0.6908 0.0
P256 P 0.2525 0.25031 0.95788 0.0
H257 H 0.27798 0.19514 0.92503 0.0
H258 H 0.31473 0.15412 0.94043 0.0
H259 H 0.30943 0.18707 0.03947 0.0
H260 H 0.27224 0.22826 0.02298 0.0
H261 H 0.18223 0.25478 0.95061 0.0
H262 H 0.14505 0.29763 0.96669 0.0
H263 H 0.21795 0.33708 0.02956 0.0
H264 H 0.25507 0.2938 0.01396 0.0
H265 H 0.32211 0.25006 0.97502 0.0
H266 H 0.25335 0.31465 0.93054 0.0
O267 O 0.2375 0.2428 0.92121 0.0
H268 H 0.36109 0.29344 0.97861 0.0
H269 H 0.29329 0.35826 0.93386 0.0
C270 C 0.27019 0.21352 0.97312 0.0
C271 C 0.28275 0.19197 0.95055 0.0
C272 C 0.30394 0.16765 0.95987 0.0
C273 C 0.31262 0.16253 0.9926 0.0
C274 C 0.30096 0.18577 0.01497 0.0
C275 C 0.27954 0.21034 0.00547 0.0
C276 C 0.22164 0.27111 0.98082 0.0
C277 C 0.18987 0.27171 0.96894 0.0
C278 C 0.16866 0.29637 0.97792 0.0
C279 C 0.17889 0.32086 0.99892 0.0
C280 C 0.20957 0.3185 0.01326 0.0
C281 C 0.23067 0.29358 0.00452 0.0
C282 C 0.28442 0.27917 0.95291 0.0
C283 C 0.31536 0.27324 0.96547 0.0
C284 C 0.33784 0.29798 0.96749 0.0
C285 C 0.32973 0.32882 0.9568 0.0
C286 C 0.29971 0.33442 0.94221 0.0
C287 C 0.27712 0.3096 0.94025 0.0
P288 P 0.2557 0.7592 0.95992 0.0
H289 H 0.20589 0.73131 0.92034 0.0
H290 H 0.16458 0.69357 0.93177 0.0
H291 H 0.18163 0.70701 0.03411 0.0
H292 H 0.22351 0.74453 0.0216 0.0
H293 H 0.26131 0.82617 0.93918 0.0
H294 H 0.30119 0.86652 0.95502 0.0
H295 H 0.3248 0.81083 0.03959 0.0
H296 H 0.28433 0.77056 0.02407 0.0
H297 H 0.25077 0.68983 0.97592 0.0
H298 H 0.32608 0.75997 0.95911 0.0
O299 O 0.25638 0.7664 0.92025 0.0
H300 H 0.29138 0.64974 0.98894 0.0
H301 H 0.36681 0.71924 0.97248 0.0
C302 C 0.21659 0.74273 0.97007 0.0
C303 C 0.19899 0.72806 0.94535 0.0
C304 C 0.1744 0.70627 0.95227 0.0
C305 C 0.16473 0.69926 0.98435 0.0
C306 C 0.18368 0.71363 0.00915 0.0
C307 C 0.20865 0.73546 0.00209 0.0
C308 C 0.27015 0.79499 0.98012 0.0
C309 C 0.27382 0.82325 0.96196 0.0
C310 C 0.29682 0.84624 0.97086 0.0
C311 C 0.31643 0.8413 0.99808 0.0
C312 C 0.31004 0.815 0.01839 0.0
C313 C 0.28668 0.79217 0.00966 0.0
C314 C 0.28527 0.72845 0.9675 0.0
C315 C 0.27583 0.697 0.97545 0.0
C316 C 0.29897 0.67395 0.98299 0.0
C317 C 0.33175 0.68199 0.98239 0.0
C318 C 0.34142 0.71306 0.97372 0.0
C319 C 0.31824 0.73611 0.96596 0.0
P320 P 0.75627 0.25218 0.97046 0.0
H321 H 0.79762 0.29169 0.93133 0.0
H322 H 0.83984 0.33014 0.94426 0.0
H323 H 0.84047 0.29712 0.04299 0.0
H324 H 0.79674 0.25861 0.03004 0.0
H325 H 0.75749 0.18441 0.95129 0.0
H326 H 0.71744 0.14259 0.96245 0.0
H327 H 0.68023 0.19865 0.04162 0.0
H328 H 0.72095 0.24011 0.03114 0.0
H329 H 0.7549 0.31417 0.00572 0.0
H330 H 0.68852 0.25378 0.9526 0.0
O331 O 0.75606 0.24489 0.93079 0.0
H332 H 0.71171 0.35246 0.01589 0.0
H333 H 0.64489 0.29232 0.96364 0.0
C334 C 0.79449 0.27146 0.97946 0.0
C335 C 0.80737 0.29175 0.9556 0.0
C336 C 0.83127 0.31415 0.96307 0.0
C337 C 0.84319 0.31688 0.99465 0.0
C338 C 0.83152 0.29558 0.01846 0.0
C339 C 0.807 0.27323 0.01099 0.0
C340 C 0.74199 0.21582 0.98995 0.0
C341 C 0.74194 0.18709 0.97213 0.0
C342 C 0.71876 0.16329 0.97826 0.0
C343 C 0.69524 0.16789 0.00229 0.0
C344 C 0.69788 0.19474 0.02271 0.0
C345 C 0.72142 0.2183 0.01687 0.0
C346 C 0.72513 0.28136 0.97764 0.0
C347 C 0.73122 0.30899 0.99614 0.0
C348 C 0.70649 0.33078 0.00236 0.0
C349 C 0.67537 0.32494 0.9906 0.0
C350 C 0.66891 0.29693 0.97295 0.0
C351 C 0.69377 0.27529 0.96638 0.0
P352 P 0.75272 0.75439 0.03697 0.0
H353 H 0.79858 0.72267 0.0788 0.0
H354 H 0.83952 0.68233 0.06804 0.0
H355 H 0.83277 0.70194 0.96599 0.0
H356 H 0.79019 0.74219 0.97682 0.0
H357 H 0.75178 0.82155 0.05791 0.0
H358 H 0.71325 0.86395 0.04416 0.0
H359 H 0.68303 0.81021 0.9605 0.0
H360 H 0.72202 0.7678 0.97398 0.0
H361 H 0.75588 0.68629 0.01547 0.0
H362 H 0.68251 0.75601 0.04064 0.0
O363 O 0.75085 0.76115 0.07668 0.0
H364 H 0.71429 0.64691 0.00411 0.0
H365 H 0.64064 0.71589 0.02873 0.0
C366 C 0.79163 0.73621 0.02871 0.0
C367 C 0.80649 0.71939 0.0541 0.0
C368 C 0.82963 0.69582 0.04794 0.0
C369 C 0.83891 0.68859 0.01619 0.0
C370 C 0.82575 0.70686 0.9907 0.0
C371 C 0.80198 0.73033 0.9969 0.0
C372 C 0.73951 0.7911 0.01733 0.0
C373 C 0.73811 0.81944 0.03571 0.0
C374 C 0.71586 0.84362 0.02803 0.0
C375 C 0.69478 0.83994 0.0017 0.0
C376 C 0.69892 0.81347 0.98103 0.0
C377 C 0.72145 0.78937 0.9886 0.0
C378 C 0.72241 0.72459 0.02845 0.0
C379 C 0.73102 0.69357 0.01816 0.0
C380 C 0.70727 0.6709 0.01151 0.0
C381 C 0.67468 0.67887 0.01512 0.0
C382 C 0.66583 0.70972 0.02536 0.0
C383 C 0.68966 0.7324 0.03228 0.0
P384 P 0.46016 0.75289 0.75196 0.0
H385 H 0.44152 0.76033 0.68412 0.0
H386 H 0.45898 0.79978 0.6439 0.0
H387 H 0.53987 0.82542 0.70412 0.0
H388 H 0.52265 0.78566 0.74441 0.0
H389 H 0.43095 0.6922 0.77115 0.0
H390 H 0.44762 0.65235 0.81099 0.0
H391 H 0.54205 0.69572 0.81586 0.0
H392 H 0.52523 0.73614 0.77581 0.0
H393 H 0.45469 0.82292 0.74892 0.0
H394 H 0.46406 0.75054 0.82332 0.0
O395 O 0.4217 0.74601 0.742 0.0
H396 H 0.46461 0.86484 0.78921 0.0
H397 H 0.47369 0.79253 0.86329 0.0
C398 C 0.48073 0.76993 0.71741 0.0
C399 C 0.46379 0.77334 0.68821 0.0
C400 C 0.47358 0.79606 0.6653 0.0
C401 C 0.5004 0.81578 0.67132 0.0
C402 C 0.51906 0.81044 0.69913 0.0
C403 C 0.50945 0.78741 0.7219 0.0
C404 C 0.47694 0.71703 0.77 0.0
C405 C 0.45564 0.69265 0.77974 0.0
C406 C 0.46498 0.67011 0.80291 0.0
C407 C 0.4958 0.67155 0.81691 0.0
C408 C 0.51801 0.69449 0.80561 0.0
C409 C 0.5086 0.71716 0.78231 0.0
C410 C 0.46039 0.78347 0.78267 0.0
C411 C 0.45889 0.81597 0.77376 0.0
C412 C 0.46451 0.83987 0.79664 0.0
C413 C 0.4708 0.83146 0.8288 0.0
C414 C 0.46965 0.79919 0.83831 0.0
C415 C 0.46422 0.77529 0.81538 0.0
P416 P 0.25956 0.46554 0.74825 0.0
H417 H 0.22445 0.42792 0.70209 0.0
H418 H 0.18401 0.44242 0.66223 0.0
H419 H 0.20955 0.54243 0.67239 0.0
H420 H 0.24961 0.52777 0.71421 0.0
H421 H 0.32855 0.45116 0.75136 0.0
H422 H 0.36835 0.46814 0.79148 0.0
H423 H 0.30525 0.54479 0.82166 0.0
H424 H 0.26518 0.52781 0.78137 0.0
H425 H 0.1918 0.48888 0.74818 0.0
H426 H 0.25982 0.44841 0.81637 0.0
O427 O 0.27052 0.42702 0.74553 0.0
H428 H 0.15261 0.49559 0.79109 0.0
H429 H 0.21993 0.45587 0.85981 0.0
C430 C 0.24072 0.47664 0.71062 0.0
C431 C 0.22233 0.45292 0.69514 0.0
C432 C 0.19876 0.46126 0.6727 0.0
C433 C 0.19329 0.49355 0.66468 0.0
C434 C 0.2131 0.51738 0.67854 0.0
C435 C 0.2364 0.50899 0.70183 0.0
C436 C 0.29364 0.48792 0.76361 0.0
C437 C 0.32376 0.47257 0.76542 0.0
C438 C 0.3465 0.48215 0.78847 0.0
C439 C 0.33951 0.5074 0.80979 0.0
C440 C 0.31107 0.52526 0.80538 0.0
C441 C 0.2883 0.51567 0.78222 0.0
C442 C 0.229 0.468 0.77898 0.0
C443 C 0.1985 0.48118 0.77216 0.0
C444 C 0.17595 0.48518 0.79668 0.0
C445 C 0.18365 0.47636 0.82833 0.0
C446 C 0.21385 0.46284 0.83533 0.0
C447 C 0.2364 0.45852 0.81065 0.0
P448 P 0.54133 0.25493 0.74912 0.0
H449 H 0.53231 0.26331 0.67916 0.0
H450 H 0.51865 0.22359 0.63739 0.0
H451 H 0.49004 0.15651 0.7115 0.0
H452 H 0.50006 0.1969 0.7525 0.0
H453 H 0.57623 0.30925 0.77454 0.0
H454 H 0.56031 0.35009 0.81361 0.0
H455 H 0.4604 0.32395 0.80091 0.0
H456 H 0.47641 0.28295 0.76086 0.0
H457 H 0.57943 0.19712 0.76159 0.0
H458 H 0.50861 0.25426 0.81249 0.0
O459 O 0.57831 0.26005 0.73394 0.0
H460 H 0.5747 0.15548 0.80366 0.0
H461 H 0.5041 0.21334 0.85337 0.0
C462 C 0.51815 0.23303 0.71916 0.0
C463 C 0.5215 0.24071 0.68632 0.0
C464 C 0.51408 0.21783 0.6625 0.0
C465 C 0.50438 0.18655 0.6713 0.0
C466 C 0.49799 0.18017 0.70397 0.0
C467 C 0.50398 0.20344 0.72753 0.0
C468 C 0.52751 0.2932 0.76439 0.0
C469 C 0.55073 0.31316 0.77882 0.0
C470 C 0.54173 0.33615 0.80161 0.0
C471 C 0.50932 0.33945 0.81068 0.0
C472 C 0.4856 0.32145 0.79441 0.0
C473 C 0.49466 0.29856 0.7711 0.0
C474 C 0.54472 0.22912 0.78383 0.0
C475 C 0.56374 0.20125 0.78209 0.0
C476 C 0.56085 0.17746 0.80578 0.0
C477 C 0.53881 0.1815 0.83117 0.0
C478 C 0.52111 0.20994 0.83376 0.0
C479 C 0.52395 0.23351 0.81026 0.0
P480 P 0.75678 0.4504 0.7557 0.0
H481 H 0.69761 0.41847 0.77507 0.0
H482 H 0.65584 0.43332 0.81144 0.0
H483 H 0.69389 0.53021 0.814 0.0
H484 H 0.73566 0.5144 0.77738 0.0
H485 H 0.76545 0.42302 0.69121 0.0
H486 H 0.80407 0.43641 0.64871 0.0
H487 H 0.82511 0.52625 0.69602 0.0
H488 H 0.78603 0.51294 0.73876 0.0
H489 H 0.75263 0.45811 0.8263 0.0
H490 H 0.82767 0.45294 0.75379 0.0
O491 O 0.75323 0.41071 0.75094 0.0
H492 H 0.79312 0.47079 0.86714 0.0
H493 H 0.86805 0.46578 0.79506 0.0
C494 C 0.71895 0.46569 0.77159 0.0
C495 C 0.69558 0.44359 0.78154 0.0
C496 C 0.6708 0.45262 0.80251 0.0
C497 C 0.66697 0.48472 0.81341 0.0
C498 C 0.69166 0.50654 0.80393 0.0
C499 C 0.71661 0.49737 0.78276 0.0
C500 C 0.77284 0.46687 0.71843 0.0
C501 C 0.7773 0.4462 0.69199 0.0
C502 C 0.79964 0.45368 0.66779 0.0
C503 C 0.81792 0.48204 0.66946 0.0
C504 C 0.81136 0.50417 0.69429 0.0
C505 C 0.78872 0.49675 0.71847 0.0
C506 C 0.78682 0.45639 0.78649 0.0
C507 C 0.77759 0.46019 0.8189 0.0
C508 C 0.80063 0.46731 0.84232 0.0
C509 C 0.83317 0.47006 0.83367 0.0
C510 C 0.84279 0.46449 0.80175 0.0
C511 C 0.81972 0.45728 0.77831 0.0
P512 P 0.44799 0.25276 0.25402 0.0
H513 H 0.42202 0.23842 0.318 0.0
H514 H 0.4376 0.19705 0.35685 0.0
H515 H 0.52814 0.18428 0.30727 0.0
H516 H 0.51263 0.22594 0.26807 0.0
H517 H 0.41369 0.29737 0.21357 0.0
H518 H 0.43165 0.33672 0.17396 0.0
H519 H 0.52954 0.32684 0.20789 0.0
H520 H 0.51129 0.28725 0.24861 0.0
H521 H 0.4118 0.19467 0.23705 0.0
H522 H 0.49989 0.24198 0.20741 0.0
O523 O 0.40829 0.256 0.26043 0.0
H524 H 0.4229 0.15129 0.19802 0.0
H525 H 0.51021 0.19967 0.16872 0.0
C526 C 0.46607 0.23549 0.28987 0.0
C527 C 0.44576 0.22774 0.31594 0.0
C528 C 0.45442 0.20372 0.33795 0.0
C529 C 0.4836 0.18704 0.3344 0.0
C530 C 0.50527 0.1966 0.31011 0.0
C531 C 0.49659 0.22075 0.28804 0.0
C532 C 0.46099 0.28961 0.23462 0.0
C533 C 0.43889 0.30434 0.21355 0.0
C534 C 0.44919 0.32643 0.19042 0.0
C535 C 0.48197 0.33413 0.18746 0.0
C536 C 0.50415 0.32084 0.20953 0.0
C537 C 0.49366 0.29877 0.23314 0.0
C538 C 0.45426 0.22227 0.22421 0.0
C539 C 0.43307 0.19607 0.22191 0.0
C540 C 0.43948 0.17132 0.20004 0.0
C541 C 0.46722 0.17277 0.18069 0.0
C542 C 0.4886 0.19855 0.18346 0.0
C543 C 0.48234 0.22296 0.20528 0.0
P544 P 0.75374 0.55148 0.25119 0.0
H545 H 0.69908 0.58549 0.22418 0.0
H546 H 0.65692 0.57022 0.18808 0.0
H547 H 0.68812 0.47117 0.19555 0.0
H548 H 0.73005 0.48737 0.23192 0.0
H549 H 0.75687 0.57122 0.31912 0.0
H550 H 0.79611 0.55671 0.36085 0.0
H551 H 0.827 0.47589 0.30358 0.0
H552 H 0.78702 0.48987 0.26209 0.0
H553 H 0.75425 0.5383 0.18083 0.0
H554 H 0.82358 0.55889 0.25623 0.0
O555 O 0.74953 0.59051 0.2595 0.0
H556 H 0.79838 0.52763 0.14334 0.0
H557 H 0.8677 0.54743 0.21847 0.0
C558 C 0.71654 0.53736 0.23291 0.0
C559 C 0.69539 0.56009 0.21987 0.0
C560 C 0.6705 0.55092 0.19907 0.0
C561 C 0.66447 0.51829 0.19126 0.0
C562 C 0.68745 0.49579 0.2032 0.0
C563 C 0.71252 0.50511 0.22421 0.0
C564 C 0.76912 0.53187 0.28718 0.0
C565 C 0.77094 0.54951 0.31605 0.0
C566 C 0.79364 0.54144 0.3398 0.0
C567 C 0.81507 0.51571 0.33498 0.0
C568 C 0.81093 0.49602 0.30769 0.0
C569 C 0.78778 0.50379 0.28418 0.0
C570 C 0.78555 0.54825 0.2218 0.0
C571 C 0.77877 0.54039 0.18953 0.0
C572 C 0.80391 0.53429 0.16803 0.0
C573 C 0.83599 0.53609 0.17856 0.0
C574 C 0.84292 0.54544 0.2103 0.0
C575 C 0.81778 0.55199 0.23168 0.0
P576 P 0.5524 0.75003 0.25129 0.0
H577 H 0.57735 0.76004 0.31664 0.0
H578 H 0.56278 0.79978 0.35758 0.0
H579 H 0.47556 0.82185 0.30529 0.0
H580 H 0.49005 0.78184 0.26407 0.0
H581 H 0.57818 0.68675 0.23538 0.0
H582 H 0.56006 0.64672 0.19638 0.0
H583 H 0.4685 0.6953 0.18797 0.0
H584 H 0.48684 0.73596 0.22705 0.0
H585 H 0.55512 0.82048 0.25344 0.0
H586 H 0.54927 0.74665 0.18017 0.0
O587 O 0.59129 0.74233 0.2586 0.0
H588 H 0.54503 0.86143 0.21232 0.0
H589 H 0.53965 0.78786 0.13918 0.0
C590 C 0.5348 0.76776 0.28716 0.0
C591 C 0.55445 0.7724 0.31442 0.0
C592 C 0.54634 0.79537 0.3377 0.0
C593 C 0.51845 0.81417 0.3341 0.0
C594 C 0.49732 0.80772 0.30834 0.0
C595 C 0.50536 0.7845 0.2851 0.0
C596 C 0.53382 0.71438 0.23451 0.0
C597 C 0.55376 0.68837 0.2262 0.0
C598 C 0.54357 0.66564 0.20356 0.0
C599 C 0.51324 0.66845 0.18872 0.0
C600 C 0.49216 0.69293 0.19889 0.0
C601 C 0.50243 0.7158 0.22163 0.0
C602 C 0.55103 0.7803 0.22027 0.0
C603 C 0.55146 0.81296 0.22869 0.0
C604 C 0.54583 0.83635 0.2053 0.0
C605 C 0.54067 0.82735 0.17311 0.0
C606 C 0.54279 0.79497 0.16416 0.0
C607 C 0.5482 0.77154 0.18762 0.0
P608 P 0.26043 0.54665 0.25628 0.0
H609 H 0.2389 0.57689 0.31496 0.0
H610 H 0.19999 0.56228 0.35426 0.0
H611 H 0.19351 0.46752 0.31172 0.0
H612 H 0.23284 0.48321 0.2721 0.0
H613 H 0.33071 0.55372 0.25291 0.0
H614 H 0.36824 0.53687 0.21058 0.0
H615 H 0.29608 0.47277 0.1721 0.0
H616 H 0.25856 0.48918 0.21491 0.0
H617 H 0.18886 0.54345 0.25721 0.0
H618 H 0.26448 0.5645 0.18834 0.0
O619 O 0.2759 0.58258 0.26539 0.0
H620 H 0.14991 0.53986 0.21332 0.0
H621 H 0.22496 0.56085 0.14429 0.0
C622 C 0.24089 0.53049 0.2918 0.0
C623 C 0.23104 0.55207 0.31562 0.0
C624 C 0.2086 0.5431 0.33901 0.0
C625 C 0.19602 0.51145 0.34094 0.0
C626 C 0.20502 0.49039 0.31544 0.0
C627 C 0.22762 0.49954 0.29178 0.0
C628 C 0.29162 0.52302 0.23696 0.0
C629 C 0.32333 0.53492 0.2364 0.0
C630 C 0.34476 0.52547 0.21206 0.0
C631 C 0.33475 0.50401 0.18788 0.0
C632 C 0.30426 0.48942 0.19048 0.0
C633 C 0.28295 0.4986 0.21513 0.0
C634 C 0.23 0.55287 0.22592 0.0
C635 C 0.19723 0.54759 0.23285 0.0
C636 C 0.17483 0.5457 0.20785 0.0
C637 C 0.18493 0.54941 0.17582 0.0
C638 C 0.21704 0.55757 0.16901 0.0
C639 C 0.23944 0.55963 0.19408 0.0
P640 P 0.75214 0.75242 0.46414 0.0
H641 H 0.79142 0.70957 0.42709 0.0
H642 H 0.82947 0.66744 0.4416 0.0
H643 H 0.79795 0.67253 0.54077 0.0
H644 H 0.76014 0.71633 0.52617 0.0
H645 H 0.68213 0.75495 0.45484 0.0
H646 H 0.64397 0.79669 0.47126 0.0
H647 H 0.71307 0.83268 0.54019 0.0
H648 H 0.75125 0.79053 0.52413 0.0
H649 H 0.8148 0.75881 0.49694 0.0
H650 H 0.75573 0.81427 0.43131 0.0
O651 O 0.73857 0.74767 0.42646 0.0
H652 H 0.85309 0.80302 0.50041 0.0
H653 H 0.79436 0.85907 0.43538 0.0
C654 C 0.77225 0.71554 0.47535 0.0
C655 C 0.79192 0.70119 0.45186 0.0
C656 C 0.81401 0.67736 0.46021 0.0
C657 C 0.81688 0.66697 0.4923 0.0
C658 C 0.7963 0.68036 0.51587 0.0
C659 C 0.77439 0.70491 0.5075 0.0
C660 C 0.71983 0.76977 0.48787 0.0
C661 C 0.68863 0.77069 0.47463 0.0
C662 C 0.66683 0.79471 0.48385 0.0
C663 C 0.67587 0.8181 0.50657 0.0
C664 C 0.70562 0.8149 0.52259 0.0
C665 C 0.72734 0.79065 0.5135 0.0
C666 C 0.78278 0.7829 0.4631 0.0
C667 C 0.81034 0.78008 0.48263 0.0
C668 C 0.83217 0.80538 0.48486 0.0
C669 C 0.82647 0.83398 0.46801 0.0
C670 C 0.79911 0.8369 0.44825 0.0
C671 C 0.7773 0.8114 0.44584 0.0
P672 P 0.75395 0.25508 0.45531 0.0
H673 H 0.70369 0.22597 0.41728 0.0
H674 H 0.66198 0.18885 0.42983 0.0
H675 H 0.68273 0.20106 0.53161 0.0
H676 H 0.72479 0.23817 0.51799 0.0
H677 H 0.75388 0.32411 0.44139 0.0
H678 H 0.79376 0.36464 0.45693 0.0
H679 H 0.8293 0.30179 0.53171 0.0
H680 H 0.78837 0.26177 0.51716 0.0
H681 H 0.7528 0.18533 0.47031 0.0
H682 H 0.82372 0.25816 0.44727 0.0
O683 O 0.75181 0.26545 0.4164 0.0
H684 H 0.79597 0.14732 0.48178 0.0
H685 H 0.86703 0.21976 0.45957 0.0
C686 C 0.71596 0.23699 0.46672 0.0
C687 C 0.69756 0.22256 0.44248 0.0
C688 C 0.67277 0.20121 0.45006 0.0
C689 C 0.66386 0.19439 0.48241 0.0
C690 C 0.68408 0.20793 0.50665 0.0
C691 C 0.70921 0.22936 0.49892 0.0
C692 C 0.76861 0.28954 0.47757 0.0
C693 C 0.769 0.31963 0.46225 0.0
C694 C 0.792 0.34272 0.47094 0.0
C695 C 0.81511 0.33583 0.49483 0.0
C696 C 0.81194 0.30746 0.51297 0.0
C697 C 0.78836 0.28471 0.50478 0.0
C698 C 0.78499 0.22503 0.45872 0.0
C699 C 0.77747 0.19336 0.4677 0.0
C700 C 0.80208 0.17154 0.47433 0.0
C701 C 0.83439 0.18115 0.4721 0.0
C702 C 0.84207 0.21229 0.46182 0.0
C703 C 0.81742 0.234 0.4547 0.0
P704 P 0.2526 0.74844 0.46393 0.0
H705 H 0.29246 0.78892 0.4246 0.0
H706 H 0.33466 0.82755 0.43693 0.0
H707 H 0.33866 0.79272 0.53498 0.0
H708 H 0.29447 0.75446 0.52279 0.0
H709 H 0.25128 0.6801 0.44706 0.0
H710 H 0.21044 0.63978 0.4605 0.0
H711 H 0.17656 0.69927 0.53861 0.0
H712 H 0.21787 0.73952 0.52556 0.0
H713 H 0.25192 0.81258 0.49503 0.0
H714 H 0.18473 0.74942 0.44631 0.0
O715 O 0.25293 0.73938 0.42464 0.0
H716 H 0.20897 0.85151 0.50344 0.0
H717 H 0.14123 0.78848 0.45603 0.0
C718 C 0.29081 0.76798 0.47247 0.0
C719 C 0.30292 0.78868 0.44858 0.0
C720 C 0.32684 0.81117 0.45572 0.0
C721 C 0.33985 0.81336 0.48693 0.0
C722 C 0.32893 0.79161 0.51073 0.0
C723 C 0.30413 0.7694 0.50368 0.0
C724 C 0.23752 0.71322 0.48494 0.0
C725 C 0.23626 0.68392 0.46813 0.0
C726 C 0.21264 0.66095 0.47557 0.0
C727 C 0.18995 0.66682 0.5001 0.0
C728 C 0.19365 0.69433 0.51944 0.0
C729 C 0.21754 0.71718 0.51215 0.0
C730 C 0.22171 0.77825 0.4693 0.0
C731 C 0.22813 0.80699 0.4859 0.0
C732 C 0.20357 0.8292 0.49106 0.0
C733 C 0.17221 0.82265 0.48035 0.0
C734 C 0.16546 0.79371 0.46441 0.0
C735 C 0.19021 0.7717 0.45868 0.0
P736 P 0.25484 0.25518 0.54078 0.0
H737 H 0.291 0.21377 0.5826 0.0
H738 H 0.33084 0.17228 0.572 0.0
H739 H 0.34154 0.20671 0.47434 0.0
H740 H 0.30025 0.24845 0.48488 0.0
H741 H 0.25802 0.32346 0.55747 0.0
H742 H 0.21939 0.36604 0.54424 0.0
H743 H 0.18151 0.30831 0.46658 0.0
H744 H 0.22078 0.26612 0.47907 0.0
H745 H 0.25412 0.19863 0.49781 0.0
H746 H 0.18822 0.24752 0.56218 0.0
O747 O 0.25212 0.26324 0.58021 0.0
H748 H 0.21348 0.15808 0.4869 0.0
H749 H 0.14678 0.2068 0.55012 0.0
C750 C 0.29306 0.23489 0.53481 0.0
C751 C 0.30261 0.21341 0.55917 0.0
C752 C 0.32506 0.18925 0.55299 0.0
C753 C 0.33887 0.18597 0.52227 0.0
C754 C 0.33097 0.20863 0.49819 0.0
C755 C 0.30796 0.23286 0.50436 0.0
C756 C 0.24199 0.29117 0.51976 0.0
C757 C 0.24266 0.32053 0.53649 0.0
C758 C 0.22031 0.34477 0.52917 0.0
C759 C 0.19695 0.33997 0.50501 0.0
C760 C 0.19904 0.31238 0.48558 0.0
C761 C 0.22172 0.28834 0.49263 0.0
C762 C 0.22468 0.22547 0.53197 0.0
C763 C 0.23112 0.20071 0.50985 0.0
C764 C 0.20778 0.17769 0.50316 0.0
C765 C 0.17747 0.17962 0.51782 0.0
C766 C 0.17026 0.20516 0.53871 0.0
C767 C 0.19388 0.22804 0.54579 0.0
C768 C 0.00204 0.92352 0.5781 0.0
C769 C 0.99889 0.93002 0.41944 0.0
C770 C 0.00554 0.07729 0.58502 0.0
C771 C 0.00698 0.08444 0.42609 0.0
C772 C 0.92955 0.08548 0.50333 0.0
C773 C 0.92195 0.9308 0.49282 0.0
C774 C 0.08566 0.07753 0.50268 0.0
C775 C 0.07785 0.92247 0.49835 0.0
C776 C 0.07819 0.00168 0.41962 0.0
C777 C 0.92321 0.01068 0.42469 0.0
C778 C 0.08417 0.0011 0.57767 0.0
C779 C 0.92724 1.00032 0.58164 0.0
Eu780 Eu 1.00069 0.94261 0.49923 0.0
O781 O 0.97271 0.97785 0.47335 0.0
O782 O 0.03174 0.97281 0.52778 0.0
Eu783 Eu 0.94226 0.00698 0.50327 0.0
Eu784 Eu 0.0649 1.00098 0.49931 0.0
O785 O 0.97411 0.97532 0.52973 0.0
O786 O 0.02994 0.97506 0.47093 0.0
Eu787 Eu 0.00527 0.00118 0.56218 0.0
Eu788 Eu 1.00118 0.00632 0.4412 0.0
O789 O 0.97703 0.03279 0.53219 0.0
O790 O 0.97556 0.0354 0.47549 0.0
O791 O 0.03248 0.0323 0.47354 0.0
O792 O 0.03472 0.0298 0.53044 0.0
Eu793 Eu 0.00687 0.06514 0.50464 0.0
O794 O 0.99472 0.91532 0.54754 0.0
O795 O 0.00566 0.91902 0.44917 0.0
O796 O 0.01069 0.08862 0.55504 0.0
O797 O 0.01016 0.09338 0.45707 0.0
O798 O 0.91798 0.05558 0.50417 0.0
O799 O 0.91334 0.96125 0.49799 0.0
O800 O 0.094 0.04691 0.49815 0.0
O801 O 0.08926 0.95245 0.49832 0.0
O802 O 0.04702 0.00352 0.41179 0.0
O803 O 0.95365 0.00834 0.41456 0.0
O804 O 0.05371 0.00287 0.58814 0.0
O805 O 0.95822 0.99803 0.59024 0.0
O806 O 0.05577 0.08892 0.50607 0.0
O807 O 0.96058 0.09417 0.50377 0.0
O808 O 0.04689 0.91363 0.49957 0.0
O809 O 0.95197 0.91915 0.49197 0.0
O810 O 0.9918 0.96052 0.4133 0.0
O811 O 0.0027 0.05437 0.41575 0.0
O812 O 0.01088 0.95301 0.58692 0.0
O813 O 0.99984 0.04651 0.59175 0.0
O814 O 0.91623 0.00447 0.55159 0.0
O815 O 0.9141 0.01191 0.45574 0.0
O816 O 0.09331 0.99929 0.54669 0.0
O817 O 0.08999 1.00043 0.44977 0.0
C818 C 0.51257 0.92591 0.07978 0.0
C819 C 0.50086 0.08118 0.08145 0.0
C820 C 0.4999 0.92876 0.92299 0.0
C821 C 0.50824 0.08437 0.92682 0.0
C822 C 0.58287 0.00424 0.92319 0.0
C823 C 0.58696 0.00599 0.07794 0.0
C824 C 0.42382 0.00639 0.9276 0.0
C825 C 0.42875 0.99997 0.08307 0.0
C826 C 0.42481 0.08001 0.00683 0.0
C827 C 0.58375 0.08231 0.00195 0.0
C828 C 0.42775 0.92563 0.00522 0.0
C829 C 0.58493 0.92727 0.99821 0.0
Eu830 Eu 0.5069 0.00354 0.0645 0.0
O831 O 0.5341 0.03283 0.03133 0.0
O832 O 0.47822 0.97444 0.03224 0.0
Eu833 Eu 0.56566 0.0047 0.00117 0.0
Eu834 Eu 0.4452 0.0033 0.00471 0.0
O835 O 0.53459 0.97556 0.03043 0.0
O836 O 0.47744 0.03224 0.0328 0.0
Eu837 Eu 0.50617 0.94303 0.00172 0.0
Eu838 Eu 0.50451 0.06566 0.00384 0.0
O839 O 0.53332 0.97627 0.97236 0.0
O840 O 0.53275 0.03396 0.97391 0.0
O841 O 0.47587 0.03314 0.97509 0.0
O842 O 0.47719 0.97621 0.97432 0.0
Eu843 Eu 0.50413 0.00587 0.94098 0.0
O844 O 0.51022 0.95603 0.09052 0.0
O845 O 0.4963 0.05059 0.08996 0.0
O846 O 0.50174 0.95927 0.91328 0.0
O847 O 0.51345 0.05419 0.91721 0.0
O848 O 0.59227 0.0035 0.95392 0.0
O849 O 0.59469 0.00541 0.04679 0.0
O850 O 0.41614 0.0048 0.9588 0.0
O851 O 0.41879 0.00153 0.05249 0.0
O852 O 0.45515 0.09146 0.00634 0.0
O853 O 0.55303 0.0926 0.00195 0.0
O854 O 0.45847 0.9156 0.00514 0.0
O855 O 0.55441 0.91668 0.99763 0.0
O856 O 0.45412 0.00811 0.91581 0.0
O857 O 0.55209 0.00487 0.91301 0.0
O858 O 0.45961 0.99977 0.0928 0.0
O859 O 0.5567 0.00654 0.08984 0.0
O860 O 0.5095 0.09062 0.05205 0.0
O861 O 0.49936 0.09248 0.95657 0.0
O862 O 0.51159 0.91623 0.04905 0.0
O863 O 0.50116 0.91799 0.95336 0.0
O864 O 0.59393 0.958 1.00012 0.0
O865 O 0.59315 0.05168 0.00176 0.0
O866 O 0.41809 0.95616 0.00455 0.0
O867 O 0.41658 0.04912 0.00664 0.0
C868 C 0.01269 0.42838 0.08597 0.0
C869 C 0.00948 0.42307 0.92991 0.0
C870 C 0.01031 0.58587 0.07911 0.0
C871 C 0.00215 0.58035 0.92362 0.0
C872 C 0.92942 0.58122 0.0063 0.0
C873 C 0.93466 0.42298 0.00804 0.0
C874 C 0.08458 0.58528 0.99583 0.0
C875 C 0.09155 0.42966 0.00751 0.0
C876 C 0.08582 0.49874 0.92453 0.0
C877 C 0.92893 0.49788 0.93002 0.0
C878 C 0.09048 0.51719 0.07928 0.0
C879 C 0.93444 0.50691 0.08534 0.0
Eu880 Eu 0.01205 0.44402 0.00743 0.0
O881 O 0.98182 0.4747 0.97848 0.0
O882 O 0.04138 0.47771 0.0342 0.0
Eu883 Eu 0.94842 0.50245 0.00705 0.0
Eu884 Eu 0.07108 0.50676 0.00257 0.0
O885 O 0.98293 0.47618 0.03596 0.0
O886 O 0.03823 0.47633 0.97634 0.0
Eu887 Eu 0.01229 0.50649 0.06635 0.0
Eu888 Eu 0.00804 0.50242 0.94301 0.0
O889 O 0.98142 0.53251 0.03336 0.0
O890 O 0.97855 0.53058 0.97531 0.0
O891 O 0.03699 0.53323 0.97324 0.0
O892 O 0.0377 0.53449 0.03081 0.0
Eu893 Eu 0.00707 0.56457 0.00179 0.0
O894 O 0.00811 0.41861 0.05564 0.0
O895 O 0.01109 0.41491 0.96107 0.0
O896 O 0.00697 0.59355 0.04798 0.0
O897 O 0.99693 0.58921 0.95407 0.0
O898 O 0.92009 0.55033 0.00841 0.0
O899 O 0.92333 0.4532 0.00777 0.0
O900 O 0.09638 0.55536 0.99686 0.0
O901 O 0.10043 0.46053 0.00612 0.0
O902 O 0.05503 0.50023 0.91496 0.0
O903 O 0.95908 0.49893 0.91854 0.0
O904 O 0.06069 0.51326 0.09093 0.0
O905 O 0.96533 0.50826 0.09451 0.0
O906 O 0.05339 0.59325 0.99716 0.0
O907 O 0.9598 0.59105 0.00301 0.0
O908 O 0.06111 0.41886 0.00817 0.0
O909 O 0.96584 0.41486 0.00844 0.0
O910 O 0.00822 0.45316 0.91837 0.0
O911 O 0.00933 0.55016 0.91478 0.0
O912 O 0.01715 0.45912 0.09471 0.0
O913 O 0.01305 0.55589 0.09069 0.0
O914 O 0.92333 0.50387 0.0553 0.0
O915 O 0.91991 0.49974 0.96083 0.0
O916 O 0.09927 0.51578 0.04836 0.0
O917 O 0.09647 0.50038 0.95485 0.0
C918 C 0.49888 0.42383 0.08012 0.0
C919 C 0.4988 0.57771 0.08172 0.0
C920 C 0.49938 0.42686 0.92065 0.0
C921 C 0.50669 0.57964 0.92296 0.0
C922 C 0.57975 0.49694 0.92326 0.0
C923 C 0.57681 0.50482 0.08207 0.0
C924 C 0.42466 0.50953 0.92123 0.0
C925 C 0.42064 0.49803 0.07756 0.0
C926 C 0.42468 0.58148 0.00288 0.0
C927 C 0.58073 0.57844 0.00092 0.0
C928 C 0.42266 0.4261 0.98903 0.0
C929 C 0.57855 0.42313 0.0043 0.0
Eu930 Eu 0.49936 0.50104 0.06154 0.0
O931 O 0.52963 0.52965 0.03054 0.0
O932 O 0.47086 0.47271 0.02874 0.0
Eu933 Eu 0.56278 0.50101 0.00249 0.0
Eu934 Eu 0.43973 0.50316 1.00007 0.0
O935 O 0.52881 0.47253 0.02969 0.0
O936 O 0.47221 0.53099 0.02928 0.0
Eu937 Eu 0.50048 0.44033 1.00052 0.0
Eu938 Eu 0.50228 0.56349 0.00217 0.0
O939 O 0.53014 0.47314 0.97308 0.0
O940 O 0.53091 0.53062 0.97415 0.0
O941 O 0.47326 0.53197 0.97273 0.0
O942 O 0.47313 0.47458 0.97281 0.0
Eu943 Eu 0.50215 0.50301 0.94114 0.0
O944 O 0.50513 0.45412 0.08847 0.0
O945 O 0.49071 0.54754 0.0885 0.0
O946 O 0.49163 0.45713 0.91418 0.0
O947 O 0.51372 0.54942 0.91559 0.0
O948 O 0.59016 0.49869 0.95396 0.0
O949 O 0.5883 0.503 0.05181 0.0
O950 O 0.41387 0.50784 0.95164 0.0
O951 O 0.41103 0.49996 0.04683 0.0
O952 O 0.45539 0.59114 0.00353 0.0
O953 O 0.55037 0.58919 0.00089 0.0
O954 O 0.45291 0.4152 0.99129 0.0
O955 O 0.54789 0.41317 0.0034 0.0
O956 O 0.4557 0.50915 0.91246 0.0
O957 O 0.54894 0.49709 0.91405 0.0
O958 O 0.45122 0.49794 0.08769 0.0
O959 O 0.54566 0.50509 0.09026 0.0
O960 O 0.50667 0.58781 0.05195 0.0
O961 O 0.49914 0.58938 0.95296 0.0
O962 O 0.49405 0.4141 0.04947 0.0
O963 O 0.50669 0.41634 0.95048 0.0
O964 O 0.58886 0.45348 0.00486 0.0
O965 O 0.5903 0.54784 0.00092 0.0
O966 O 0.41284 0.45645 0.99253 0.0
O967 O 0.41407 0.55118 0.00229 0.0
C968 C 0.01133 0.4206 0.57706 0.0
C969 C 1.00093 0.4225 0.42221 0.0
C970 C 0.99766 0.57553 0.5799 0.0
C971 C 0.00416 0.57862 0.42378 0.0
C972 C 0.92154 0.57435 0.50345 0.0
C973 C 0.92696 0.41994 0.49883 0.0
C974 C 0.07956 0.58015 0.50153 0.0
C975 C 0.08537 0.42532 0.50076 0.0
C976 C 0.08234 0.49935 0.42227 0.0
C977 C 0.92419 0.50322 0.42328 0.0
C978 C 0.08403 0.50385 0.57724 0.0
C979 C 0.92552 0.49315 0.57908 0.0
Eu980 Eu 0.00569 0.43861 0.49986 0.0
O981 O 0.97613 0.47066 0.47175 0.0
O982 O 0.03362 0.47159 0.52859 0.0
Eu983 Eu 0.94308 0.49755 0.5012 0.0
Eu984 Eu 0.06395 0.5021 0.49995 0.0
O985 O 0.97652 0.46964 0.52959 0.0
O986 O 0.03267 0.47252 0.47112 0.0
Eu987 Eu 0.00489 0.49851 0.56225 0.0
Eu988 Eu 0.00326 0.50047 0.43876 0.0
O989 O 0.97491 0.52647 0.53005 0.0
O990 O 0.97382 0.52758 0.47215 0.0
O991 O 0.03053 0.52994 0.47185 0.0
O992 O 0.03108 0.52916 0.5295 0.0
Eu993 Eu 1.00095 0.56083 0.50131 0.0
O994 O 0.00201 0.41195 0.54754 0.0
O995 O 0.01081 0.41381 0.4515 0.0
O996 O 0.99717 0.5861 0.54947 0.0
O997 O 0.99507 0.58654 0.45351 0.0
O998 O 0.91369 0.5433 0.50474 0.0
O999 O 0.91673 0.4502 0.50027 0.0
O1000 O 0.08995 0.54988 0.50033 0.0
O1001 O 0.09349 0.4563 0.49959 0.0
O1002 O 0.05181 0.49726 0.41141 0.0
O1003 O 0.95469 0.50579 0.41267 0.0
O1004 O 0.05371 0.50163 0.58845 0.0
O1005 O 0.9564 0.49333 0.58927 0.0
O1006 O 0.04851 0.58945 0.50179 0.0
O1007 O 0.95171 0.58586 0.50164 0.0
O1008 O 0.05515 0.41379 0.50169 0.0
O1009 O 0.95791 0.41047 0.49777 0.0
O1010 O 0.99434 0.45273 0.41351 0.0
O1011 O 0.01114 0.54871 0.41435 0.0
O1012 O 0.01674 0.45088 0.58605 0.0
O1013 O 1.00129 0.54521 0.58973 0.0
O1014 O 0.91598 0.49429 0.54837 0.0
O1015 O 0.9153 0.49885 0.45397 0.0
O1016 O 0.09226 0.50522 0.5462 0.0
O1017 O 0.09106 0.50194 0.45308 0.0
C1018 C 0.51216 0.92321 0.58122 0.0
C1019 C 0.50811 0.92115 0.42611 0.0
C1020 C 0.50518 0.08012 0.57945 0.0
C1021 C 0.49932 0.07892 0.42374 0.0
C1022 C 0.4255 0.07653 0.50807 0.0
C1023 C 0.43205 0.91913 0.50111 0.0
C1024 C 0.58093 0.08263 0.49525 0.0
C1025 C 0.58922 0.92733 0.50718 0.0
C1026 C 0.58074 0.9937 0.42087 0.0
C1027 C 0.42477 0.99913 0.42808 0.0
C1028 C 0.58864 0.01185 0.57578 0.0
C1029 C 0.43319 0.99134 0.58359 0.0
Eu1030 Eu 0.5098 0.94056 0.5033 0.0
O1031 O 0.47822 0.97117 0.47556 0.0
O1032 O 0.53875 0.9742 0.53024 0.0
Eu1033 Eu 0.44541 0.99844 0.50522 0.0
Eu1034 Eu 0.56794 0.00407 0.49919 0.0
O1035 O 0.48109 0.97217 0.53251 0.0
O1036 O 0.53492 0.97408 0.47284 0.0
Eu1037 Eu 0.51019 0.00149 0.56385 0.0
Eu1038 Eu 0.50361 1.00016 0.44069 0.0
O1039 O 0.47816 0.02823 0.53248 0.0
O1040 O 0.47506 0.02764 0.47433 0.0
O1041 O 0.53277 0.03066 0.47133 0.0
O1042 O 0.53511 0.03087 0.52909 0.0
Eu1043 Eu 0.5035 0.06124 0.50153 0.0
O1044 O 0.50462 0.91442 0.55117 0.0
O1045 O 0.51834 0.91475 0.45589 0.0
O1046 O 0.50352 0.08908 0.54854 0.0
O1047 O 0.49368 0.08694 0.45437 0.0
O1048 O 0.41645 0.04556 0.50938 0.0
O1049 O 0.42066 0.94924 0.5028 0.0
O1050 O 0.59282 0.05279 0.49404 0.0
O1051 O 0.5977 0.95822 0.50438 0.0
O1052 O 0.54977 0.99433 0.41198 0.0
O1053 O 0.45473 1.00018 0.41628 0.0
O1054 O 0.55906 0.0074 0.58784 0.0
O1055 O 0.46401 0.99469 0.59252 0.0
O1056 O 0.54979 0.0904 0.49823 0.0
O1057 O 0.45575 0.0869 0.50488 0.0
O1058 O 0.55893 0.91617 0.50759 0.0
O1059 O 0.46336 0.91109 0.50048 0.0
O1060 O 0.4979 0.95035 0.41686 0.0
O1061 O 0.50602 0.04884 0.41391 0.0
O1062 O 0.51887 0.9535 0.58986 0.0
O1063 O 0.50747 0.0498 0.59017 0.0
O1064 O 0.4215 0.99237 0.55365 0.0
O1065 O 0.41626 0.99872 0.45913 0.0
O1066 O 0.59677 0.01204 0.54466 0.0
O1067 O 0.59229 0.99758 0.4507 0.0
C1068 C 0.15354 0.12809 0.53631 0.0
C1069 C 0.15436 0.15316 0.51317 0.0
C1070 C 0.1126 0.12658 0.48095 0.0
C1071 C 0.11175 0.10151 0.50423 0.0
N1072 N 0.13557 0.07468 0.55025 0.0
N1073 N 0.13834 0.1756 0.46195 0.0
C1074 C 0.13355 0.10108 0.5307 0.0
C1075 C 0.13496 0.1522 0.48495 0.0
N1076 N 0.17128 0.13055 0.56413 0.0
N1077 N 0.09196 0.12568 0.45512 0.0
H1078 H 0.15351 0.19541 0.46486 0.0
H1079 H 0.12735 0.17499 0.43937 0.0
H1080 H 0.07755 0.10579 0.44989 0.0
H1081 H 0.08846 0.14461 0.4391 0.0
H1082 H 0.16837 0.11542 0.58395 0.0
H1083 H 0.18763 0.1491 0.56854 0.0
H1084 H 0.15377 0.07115 0.56723 0.0
H1085 H 0.12044 0.05491 0.54811 0.0
C1086 C 0.87438 0.13986 0.45525 0.0
C1087 C 0.86016 0.15813 0.48029 0.0
C1088 C 0.89315 0.13037 0.52083 0.0
C1089 C 0.90592 0.11083 0.4959 0.0
N1090 N 0.90621 0.09363 0.44025 0.0
N1091 N 0.85379 0.17071 0.53677 0.0
C1092 C 0.89587 0.11469 0.46336 0.0
C1093 C 0.86902 0.15347 0.51311 0.0
N1094 N 0.86786 0.14706 0.42364 0.0
N1095 N 0.90414 0.12665 0.55173 0.0
H1096 H 0.83704 0.18878 0.5318 0.0
H1097 H 0.85653 0.16646 0.56137 0.0
H1098 H 0.92034 0.1086 0.55818 0.0
H1099 H 0.89849 0.14197 0.57074 0.0
H1100 H 0.88062 0.13747 0.40424 0.0
H1101 H 0.85117 0.1645 0.41664 0.0
H1102 H 0.8959 0.09204 0.41738 0.0
H1103 H 0.92398 0.07642 0.4445 0.0
C1104 C 0.8476 0.87844 0.50236 0.0
C1105 C 0.8486 0.86133 0.47275 0.0
C1106 C 0.89365 0.89443 0.45434 0.0
C1107 C 0.89573 0.90806 0.48567 0.0
N1108 N 0.87654 0.91188 0.54053 0.0
N1109 N 0.87425 0.85034 0.42159 0.0
C1110 C 0.87304 0.89998 0.50995 0.0
C1111 C 0.87196 0.86869 0.44888 0.0
N1112 N 0.82205 0.87442 0.5229 0.0
N1113 N 0.91147 0.90694 0.42954 0.0
H1114 H 0.85843 0.8315 0.41646 0.0
H1115 H 0.89328 0.85224 0.40525 0.0
H1116 H 0.92734 0.92619 0.43256 0.0
H1117 H 0.90842 0.9002 0.4055 0.0
H1118 H 0.81832 0.88852 0.54333 0.0
H1119 H 0.80292 0.85884 0.51798 0.0
H1120 H 0.86299 0.90401 0.56019 0.0
H1121 H 0.89469 0.92806 0.54681 0.0
C1122 C 0.13172 0.85047 0.5154 0.0
C1123 C 0.14681 0.84707 0.48479 0.0
C1124 C 0.11783 0.89381 0.46391 0.0
C1125 C 0.1018 0.89666 0.4941 0.0
N1126 N 0.09223 0.87852 0.54851 0.0
N1127 N 0.15262 0.86252 0.42892 0.0
C1128 C 0.1083 0.8751 0.51985 0.0
C1129 C 0.13938 0.86789 0.45875 0.0
N1130 N 0.14031 0.83039 0.54015 0.0
N1131 N 0.11298 0.91641 0.44041 0.0
H1132 H 0.16998 0.84492 0.42448 0.0
H1133 H 0.14515 0.87408 0.40792 0.0
H1134 H 0.09604 0.93474 0.44247 0.0
H1135 H 0.12693 0.91839 0.41961 0.0
H1136 H 0.13268 0.83296 0.56393 0.0
H1137 H 0.15622 0.81118 0.53719 0.0
H1138 H 0.09342 0.8623 0.56758 0.0
H1139 H 0.07657 0.89759 0.55315 0.0
C1140 C 0.46473 0.15422 0.12413 0.0
C1141 C 0.47402 0.14811 0.15627 0.0
C1142 C 0.50295 0.09972 0.13968 0.0
C1143 C 0.49477 0.10628 0.10665 0.0
N1144 N 0.47482 0.14643 0.06783 0.0
N1145 N 0.50555 0.11877 0.19506 0.0
C1146 C 0.47794 0.13547 0.09887 0.0
C1147 C 0.49402 0.12183 0.1642 0.0
N1148 N 0.44247 0.17773 0.11772 0.0
N1149 N 0.51966 0.07257 0.14786 0.0
H1150 H 0.49824 0.13363 0.214 0.0
H1151 H 0.52383 0.1029 0.20168 0.0
H1152 H 0.53178 0.05831 0.13129 0.0
H1153 H 0.52111 0.0637 0.17133 0.0
H1154 H 0.43172 0.18094 0.0952 0.0
H1155 H 0.43238 0.19229 0.13557 0.0
H1156 H 0.46824 0.17001 0.06248 0.0
H1157 H 0.47985 0.1338 0.04695 0.0
C1158 C 0.87136 0.49583 0.15092 0.0
C1159 C 0.86238 0.5284 0.15597 0.0
C1160 C 0.89966 0.54613 0.11399 0.0
C1161 C 0.91002 0.51388 0.11008 0.0
N1162 N 0.90737 0.45791 0.12437 0.0
N1163 N 0.87043 0.58499 0.14617 0.0
C1164 C 0.89638 0.48862 0.12851 0.0
C1165 C 0.87729 0.55369 0.13866 0.0
N1166 N 0.85545 0.47194 0.16715 0.0
N1167 N 0.91024 0.56935 0.09315 0.0
H1168 H 0.8531 0.59159 0.16319 0.0
H1169 H 0.88349 0.60447 0.13729 0.0
H1170 H 0.92765 0.56505 0.07552 0.0
H1171 H 0.90029 0.59229 0.09187 0.0
H1172 H 0.8584 0.44755 0.16258 0.0
H1173 H 0.83795 0.47651 0.18469 0.0
H1174 H 0.90088 0.43857 0.1389 0.0
H1175 H 0.92437 0.45184 0.10681 0.0
C1176 C 0.50137 0.85511 0.13647 0.0
C1177 C 0.53327 0.85212 0.14872 0.0
C1178 C 0.55004 0.89982 0.11892 0.0
C1179 C 0.5191 0.90104 0.10417 0.0
N1180 N 0.46601 0.87857 0.09607 0.0
N1181 N 0.58941 0.86747 0.14729 0.0
C1182 C 0.49496 0.87818 0.11199 0.0
C1183 C 0.55802 0.87335 0.13879 0.0
N1184 N 0.47703 0.83682 0.14916 0.0
N1185 N 0.57178 0.92405 0.11416 0.0
H1186 H 0.5963 0.84805 0.16167 0.0
H1187 H 0.60895 0.88002 0.13769 0.0
H1188 H 0.56756 0.94314 0.09851 0.0
H1189 H 0.59303 0.92642 0.12742 0.0
H1190 H 0.45273 0.84026 0.14375 0.0
H1191 H 0.48081 0.8197 0.16719 0.0
H1192 H 0.44882 0.86041 0.09805 0.0
H1193 H 0.45982 0.89622 0.07925 0.0
C1194 C 0.16271 0.51096 0.13527 0.0
C1195 C 0.16227 0.54202 0.14942 0.0
C1196 C 0.11482 0.55668 0.11768 0.0
C1197 C 0.11584 0.52598 0.10266 0.0
N1198 N 0.14368 0.47608 0.09246 0.0
N1199 N 0.14211 0.59625 0.15099 0.0
C1200 C 0.1408 0.50381 0.10993 0.0
C1201 C 0.13947 0.56543 0.13976 0.0
N1202 N 0.18321 0.48793 0.14698 0.0
N1203 N 0.09027 0.57749 0.11072 0.0
H1204 H 0.15984 0.60334 0.16742 0.0
H1205 H 0.12845 0.6154 0.14232 0.0
H1206 H 0.07402 0.57347 0.092 0.0
H1207 H 0.08545 0.59824 0.12391 0.0
H1208 H 0.18205 0.46381 0.1404 0.0
H1209 H 0.2001 0.49235 0.16515 0.0
H1210 H 0.16338 0.46062 0.09414 0.0
H1211 H 0.12751 0.46962 0.07433 0.0
C1212 C 0.51098 0.86035 0.86346 0.0
C1213 C 0.47865 0.8566 0.85262 0.0
C1214 C 0.4618 0.903 0.88433 0.0
C1215 C 0.49327 0.90473 0.89783 0.0
N1216 N 0.54747 0.88413 0.90269 0.0
N1217 N 0.42223 0.87047 0.85645 0.0
C1218 C 0.5178 0.88304 0.88818 0.0
C1219 C 0.45375 0.87693 0.86397 0.0
N1220 N 0.53522 0.84305 0.84928 0.0
N1221 N 0.43959 0.92639 0.89079 0.0
H1222 H 0.41528 0.8514 0.84163 0.0
H1223 H 0.40274 0.88219 0.86713 0.0
H1224 H 0.44392 0.945 0.90697 0.0
H1225 H 0.41778 0.9286 0.87844 0.0
H1226 H 0.55965 0.84703 0.85371 0.0
H1227 H 0.5311 0.82625 0.83104 0.0
H1228 H 0.56522 0.86674 0.89937 0.0
H1229 H 0.55379 0.90159 0.91965 0.0
C1230 C 0.15889 0.51154 0.87038 0.0
C1231 C 0.15969 0.48163 0.85405 0.0
C1232 C 0.11063 0.4642 0.88168 0.0
C1233 C 0.11066 0.49342 0.89949 0.0
N1234 N 0.13634 0.54363 0.91365 0.0
N1235 N 0.14 0.42764 0.84683 0.0
C1236 C 0.13533 0.5167 0.89474 0.0
C1237 C 0.13654 0.45745 0.8604 0.0
N1238 N 0.18011 0.5353 0.86186 0.0
N1239 N 0.08586 0.44279 0.88513 0.0
H1240 H 0.15838 0.422 0.83057 0.0
H1241 H 0.1263 0.40773 0.85346 0.0
H1242 H 0.06831 0.44492 0.90291 0.0
H1243 H 0.08188 0.42359 0.86951 0.0
H1244 H 0.17843 0.55893 0.86991 0.0
H1245 H 0.19854 0.53194 0.84501 0.0
H1246 H 0.15573 0.55953 0.91422 0.0
H1247 H 0.11843 0.54936 0.93031 0.0
C1248 C 0.54249 0.1601 0.88691 0.0
C1249 C 0.53251 0.15567 0.85471 0.0
C1250 C 0.5053 0.10559 0.86937 0.0
C1251 C 0.51379 0.11064 0.90258 0.0
N1252 N 0.53356 0.14931 0.94294 0.0
N1253 N 0.49888 0.12854 0.81591 0.0
C1254 C 0.53004 0.13987 0.91147 0.0
C1255 C 0.51252 0.12956 0.84604 0.0
N1256 N 0.56482 0.18333 0.89399 0.0
N1257 N 0.48984 0.07819 0.85977 0.0
H1258 H 0.50386 0.14535 0.79789 0.0
H1259 H 0.48059 0.1126 0.80945 0.0
H1260 H 0.47892 0.06215 0.87549 0.0
H1261 H 0.48849 0.07086 0.83574 0.0
H1262 H 0.57558 0.1858 0.91658 0.0
H1263 H 0.57492 0.19834 0.8765 0.0
H1264 H 0.53977 0.17274 0.94933 0.0
H1265 H 0.52923 0.13546 0.96319 0.0
C1266 C 0.8676 0.50996 0.86294 0.0
C1267 C 0.85736 0.47768 0.85857 0.0
C1268 C 0.8901 0.46019 0.90426 0.0
C1269 C 0.90305 0.49167 0.90654 0.0
N1270 N 0.90416 0.54708 0.88985 0.0
N1271 N 0.86118 0.42135 0.87181 0.0
C1272 C 0.89182 0.51679 0.88632 0.0
C1273 C 0.86912 0.4526 0.87843 0.0
N1274 N 0.8535 0.53396 0.84527 0.0
N1275 N 0.89738 0.43765 0.92716 0.0
H1276 H 0.84546 0.41477 0.85326 0.0
H1277 H 0.87209 0.40172 0.88298 0.0
H1278 H 0.91415 0.44161 0.94543 0.0
H1279 H 0.88543 0.41572 0.92922 0.0
H1280 H 0.85759 0.55833 0.84904 0.0
H1281 H 0.83604 0.52961 0.82762 0.0
H1282 H 0.89971 0.56595 0.87398 0.0
H1283 H 0.92006 0.55321 0.90842 0.0
C1284 C 0.64174 0.63465 0.03813 0.0
C1285 C 0.65012 0.65364 0.01103 0.0
C1286 C 0.6137 0.62251 0.97646 0.0
C1287 C 0.60617 0.60293 0.00347 0.0
N1288 N 0.61756 0.58571 0.05798 0.0
N1289 N 0.64753 0.66474 0.95396 0.0
C1290 C 0.62156 0.60762 0.03371 0.0
C1291 C 0.63705 0.64734 0.97997 0.0
N1292 N 0.65252 0.64293 0.06828 0.0
N1293 N 0.59859 0.61711 0.94758 0.0
H1294 H 0.6638 0.68378 0.95603 0.0
H1295 H 0.64147 0.65961 0.93013 0.0
H1296 H 0.58304 0.59773 0.9438 0.0
H1297 H 0.60032 0.63223 0.92765 0.0
H1298 H 0.64397 0.6325 0.08948 0.0
H1299 H 0.66832 0.66199 0.07252 0.0
H1300 H 0.63124 0.58556 0.07908 0.0
H1301 H 0.60247 0.56585 0.05594 0.0
C1302 C 0.36831 0.65161 0.01964 0.0
C1303 C 0.356 0.6568 0.98809 0.0
C1304 C 0.38605 0.61077 0.96758 0.0
C1305 C 0.40024 0.60679 0.99854 0.0
N1306 N 0.40725 0.62401 0.05364 0.0
N1307 N 0.35596 0.64491 0.93107 0.0
C1308 C 0.39211 0.62747 0.02451 0.0
C1309 C 0.36559 0.63733 0.96179 0.0
N1310 N 0.35658 0.66927 0.04492 0.0
N1311 N 0.39177 0.58884 0.94374 0.0
H1312 H 0.34027 0.66381 0.9258 0.0
H1313 H 0.36537 0.6341 0.91044 0.0
H1314 H 0.40854 0.57041 0.94608 0.0
H1315 H 0.37837 0.58759 0.92249 0.0
H1316 H 0.36192 0.66458 0.06902 0.0
H1317 H 0.33977 0.68771 0.04194 0.0
H1318 H 0.40515 0.64027 0.07261 0.0
H1319 H 0.42348 0.60544 0.05838 0.0
C1320 C 0.37666 0.36328 0.94154 0.0
C1321 C 0.35185 0.35564 0.96375 0.0
C1322 C 0.37368 0.39391 0.00295 0.0
C1323 C 0.39773 0.40249 0.9802 0.0
N1324 N 0.41788 0.40121 0.92553 0.0
N1325 N 0.32303 0.36651 0.01323 0.0
C1326 C 0.39809 0.38879 0.94881 0.0
C1327 C 0.34916 0.37193 0.99374 0.0
N1328 N 0.38016 0.34566 0.91388 0.0
N1329 N 0.37509 0.40579 0.03371 0.0
H1330 H 0.30501 0.34987 0.00773 0.0
H1331 H 0.31785 0.3801 0.03369 0.0
H1332 H 0.39248 0.42235 0.04103 0.0
H1333 H 0.36059 0.39771 0.05257 0.0
H1334 H 0.40017 0.34747 0.89875 0.0
H1335 H 0.36405 0.32758 0.90712 0.0
H1336 H 0.41683 0.39458 0.9013 0.0
H1337 H 0.43343 0.42043 0.92984 0.0
C1338 C 0.63296 0.3523 0.02373 0.0
C1339 C 0.65036 0.34985 0.99432 0.0
C1340 C 0.62135 0.39594 0.972 0.0
C1341 C 0.6037 0.39828 0.00134 0.0
N1342 N 0.59704 0.38408 0.05729 0.0
N1343 N 0.66074 0.36714 0.93968 0.0
C1344 C 0.61055 0.37782 0.02782 0.0
C1345 C 0.64457 0.3712 0.96827 0.0
N1346 N 0.63718 0.32956 0.04722 0.0
N1347 N 0.61661 0.41819 0.94816 0.0
H1348 H 0.67934 0.35054 0.93656 0.0
H1349 H 0.65504 0.37901 0.91832 0.0
H1350 H 0.59879 0.4357 0.94942 0.0
H1351 H 0.6312 0.42073 0.92789 0.0
H1352 H 0.62283 0.32784 0.06778 0.0
H1353 H 0.65375 0.31078 0.04513 0.0
H1354 H 0.60344 0.37226 0.0785 0.0
H1355 H 0.58108 0.4031 0.06114 0.0
C1356 C 0.00592 0.64568 0.63774 0.0
C1357 C 0.97356 0.64787 0.6489 0.0
C1358 C 0.95903 0.59977 0.61877 0.0
C1359 C 0.99034 0.59943 0.60491 0.0
N1360 N 0.04305 0.62316 0.59841 0.0
N1361 N 0.91791 0.63103 0.64571 0.0
C1362 C 0.01367 0.6228 0.6135 0.0
C1363 C 0.94972 0.62597 0.63831 0.0
N1364 N 0.02934 0.66465 0.65114 0.0
N1365 N 0.93815 0.57495 0.61345 0.0
H1366 H 0.91 0.65027 0.65978 0.0
H1367 H 0.89907 0.61793 0.63545 0.0
H1368 H 0.94322 0.55611 0.59777 0.0
H1369 H 0.9169 0.57184 0.62656 0.0
H1370 H 0.05388 0.66191 0.64643 0.0
H1371 H 0.02453 0.68164 0.66903 0.0
H1372 H 0.05976 0.64168 0.60097 0.0
H1373 H 0.05001 0.60572 0.58171 0.0
C1374 C 0.38113 0.94381 0.64162 0.0
C1375 C 0.36279 0.96897 0.65554 0.0
C1376 C 0.38981 0.00871 0.62137 0.0
C1377 C 0.40968 0.9839 0.60902 0.0
N1378 N 0.42623 0.92833 0.60765 0.0
N1379 N 0.35212 0.02555 0.66278 0.0
C1380 C 0.40602 0.95156 0.61937 0.0
C1381 C 0.36787 0.00152 0.64663 0.0
N1382 N 0.37397 0.91254 0.64901 0.0
N1383 N 0.39115 0.03882 0.60812 0.0
H1384 H 0.33522 0.0212 0.68096 0.0
H1385 H 0.35747 0.04983 0.65994 0.0
H1386 H 0.40711 0.04499 0.58964 0.0
H1387 H 0.37488 0.05709 0.61361 0.0
H1388 H 0.3839 0.89279 0.63727 0.0
H1389 H 0.35641 0.90613 0.66589 0.0
H1390 H 0.42709 0.90489 0.61633 0.0
H1391 H 0.44351 0.93283 0.5899 0.0
C1392 C 0.01339 0.37618 0.65837 0.0
C1393 C 0.03278 0.34946 0.65032 0.0
C1394 C 0.03307 0.36553 0.59356 0.0
C1395 C 0.01682 0.39489 0.60187 0.0
N1396 N 0.99288 0.42825 0.6441 0.0
N1397 N 0.06541 0.32065 0.61217 0.0
C1398 C 0.00754 0.40029 0.63483 0.0
C1399 C 0.04372 0.34467 0.61848 0.0
N1400 N 0.99916 0.37776 0.68819 0.0
N1401 N 0.03847 0.3568 0.56218 0.0
H1402 H 0.07389 0.30489 0.62985 0.0
H1403 H 0.07723 0.31804 0.59014 0.0
H1404 H 0.03657 0.37176 0.54233 0.0
H1405 H 0.04434 0.33339 0.55547 0.0
H1406 H 0.98109 0.39415 0.6941 0.0
H1407 H 0.00342 0.36101 0.70646 0.0
H1408 H 0.99121 0.43557 0.6681 0.0
H1409 H 0.98302 0.4449 0.62829 0.0
C1410 C 0.64032 0.05531 0.63759 0.0
C1411 C 0.66457 0.03201 0.64307 0.0
C1412 C 0.64087 0.99665 0.60218 0.0
C1413 C 0.61484 0.01864 0.59893 0.0
N1414 N 0.58821 0.06785 0.61462 0.0
N1415 N 0.688 0.98 0.63283 0.0
C1416 C 0.61414 0.04769 0.61694 0.0
C1417 C 0.66504 0.0026 0.62578 0.0
N1418 N 0.64277 0.08496 0.65168 0.0
N1419 N 0.64241 0.97009 0.58277 0.0
H1420 H 0.70698 0.98418 0.64888 0.0
H1421 H 0.68753 0.95654 0.62415 0.0
H1422 H 0.62413 0.96376 0.56671 0.0
H1423 H 0.66245 0.95509 0.58121 0.0
H1424 H 0.62797 0.10434 0.64584 0.0
H1425 H 0.66137 0.09114 0.6675 0.0
H1426 H 0.58397 0.08683 0.63042 0.0
H1427 H 0.56986 0.06464 0.59777 0.0
C1428 C 0.99915 0.3777 0.34115 0.0
C1429 C 0.97827 0.35194 0.34893 0.0
C1430 C 0.97954 0.36737 0.40577 0.0
C1431 C 0.99595 0.39662 0.39753 0.0
N1432 N 0.02043 0.42959 0.35546 0.0
N1433 N 0.94312 0.32598 0.38706 0.0
C1434 C 0.00524 0.40189 0.36461 0.0
C1435 C 0.96686 0.34798 0.38075 0.0
N1436 N 0.01475 0.37815 0.31201 0.0
N1437 N 0.9761 0.3571 0.43698 0.0
H1438 H 0.93205 0.31229 0.36908 0.0
H1439 H 0.93222 0.32352 0.40957 0.0
H1440 H 0.98205 0.36985 0.45755 0.0
H1441 H 0.96888 0.33378 0.44272 0.0
H1442 H 0.03331 0.39415 0.30652 0.0
H1443 H 0.0114 0.36066 0.2943 0.0
H1444 H 0.02291 0.43653 0.3314 0.0
H1445 H 0.02965 0.44637 0.37153 0.0
C1446 C 0.63308 0.94612 0.36285 0.0
C1447 C 0.65132 0.97126 0.34879 0.0
C1448 C 0.62419 0.01103 0.38281 0.0
C1449 C 0.60459 0.98618 0.39558 0.0
N1450 N 0.58805 0.93059 0.39672 0.0
N1451 N 0.66168 0.02781 0.34112 0.0
C1452 C 0.60821 0.95387 0.38508 0.0
C1453 C 0.64615 0.00381 0.35756 0.0
N1454 N 0.64047 0.91483 0.35581 0.0
N1455 N 0.62223 0.04135 0.39536 0.0
H1456 H 0.67834 0.02342 0.32274 0.0
H1457 H 0.65639 0.0521 0.3439 0.0
H1458 H 0.60568 0.04756 0.41322 0.0
H1459 H 0.63831 0.05976 0.3898 0.0
H1460 H 0.63068 0.89515 0.36784 0.0
H1461 H 0.65818 0.90834 0.33913 0.0
H1462 H 0.58684 0.90734 0.38757 0.0
H1463 H 0.57148 0.93486 0.41513 0.0
C1464 C 0.03241 0.65578 0.3823 0.0
C1465 C 0.02336 0.64939 0.35009 0.0
C1466 C 0.99827 0.5987 0.36632 0.0
C1467 C 0.00729 0.60487 0.39917 0.0
N1468 N 0.02464 0.64547 0.43862 0.0
N1469 N 0.99317 0.61864 0.31134 0.0
C1470 C 0.02162 0.63522 0.40734 0.0
C1471 C 0.00498 0.62195 0.34206 0.0
N1472 N 0.05241 0.68114 0.38903 0.0
N1473 N 0.983 0.57073 0.35813 0.0
H1474 H 0.99881 0.63451 0.29266 0.0
H1475 H 0.97613 0.60151 0.30462 0.0
H1476 H 0.97257 0.55533 0.37488 0.0
H1477 H 0.98092 0.56235 0.33454 0.0
H1478 H 0.06364 0.68438 0.41132 0.0
H1479 H 0.06002 0.6977 0.37172 0.0
H1480 H 0.02908 0.66941 0.44457 0.0
H1481 H 0.02165 0.63169 0.45919 0.0
C1482 C 0.3658 0.95618 0.37371 0.0
C1483 C 0.35225 0.98242 0.35672 0.0
C1484 C 0.38578 0.02038 0.38712 0.0
C1485 C 0.3987 0.99406 0.40457 0.0
N1486 N 0.39695 0.93807 0.41949 0.0
N1487 N 0.34563 0.03943 0.34873 0.0
C1488 C 0.38747 0.9623 0.39935 0.0
C1489 C 0.36115 0.0146 0.36387 0.0
N1490 N 0.35868 0.92534 0.36463 0.0
N1491 N 0.3972 0.05069 0.39284 0.0
H1492 H 0.32806 0.03588 0.33101 0.0
H1493 H 0.3487 0.06351 0.35469 0.0
H1494 H 0.41399 0.0557 0.41096 0.0
H1495 H 0.39126 0.07073 0.37905 0.0
H1496 H 0.37092 0.90525 0.3733 0.0
H1497 H 0.34198 0.91973 0.34663 0.0
H1498 H 0.38618 0.91546 0.41978 0.0
H1499 H 0.41381 0.94135 0.43782 0.0
C1500 C 0.02494 0.12096 0.3439 0.0
C1501 C 0.00431 0.14816 0.34371 0.0
C1502 C 0.9878 0.1362 0.39957 0.0
C1503 C 0.00898 0.10933 0.40004 0.0
N1504 N 0.05477 0.0825 0.37626 0.0
N1505 N 0.97375 0.18692 0.3744 0.0
C1506 C 0.02979 0.10375 0.37327 0.0
C1507 C 0.98821 0.15744 0.37258 0.0
N1508 N 0.03879 0.11064 0.31581 0.0
N1509 N 0.96596 0.14064 0.42388 0.0
H1510 H 0.97404 0.20335 0.35537 0.0
H1511 H 0.96443 0.19636 0.39577 0.0
H1512 H 0.9648 0.12606 0.44425 0.0
H1513 H 0.94726 0.15735 0.42267 0.0
H1514 H 0.05112 0.08891 0.31381 0.0
H1515 H 0.03581 0.12256 0.29385 0.0
H1516 H 0.07249 0.07944 0.35867 0.0
H1517 H 0.05974 0.07056 0.39786 0.0
C1518 C 0.84738 0.99197 0.3744 0.0
C1519 C 0.85548 0.00719 0.34486 0.0
C1520 C 0.90307 0.03117 0.37071 0.0
C1521 C 0.89791 0.01174 0.3987 0.0
N1522 N 0.86676 0.96953 0.42447 0.0
N1523 N 0.89207 0.03963 0.31369 0.0
C1524 C 0.87024 0.99137 0.40006 0.0
C1525 C 0.88355 0.02648 0.34273 0.0
N1526 N 0.81775 0.97787 0.37793 0.0
N1527 N 0.92601 0.05482 0.37111 0.0
H1528 H 0.87768 0.03769 0.29308 0.0
H1529 H 0.91429 0.05058 0.3095 0.0
H1530 H 0.94018 0.05988 0.39127 0.0
H1531 H 0.92868 0.07174 0.35276 0.0
H1532 H 0.80904 0.96954 0.4 0.0
H1533 H 0.80059 0.97727 0.35949 0.0
H1534 H 0.84926 0.95154 0.42441 0.0
H1535 H 0.88317 0.96695 0.44322 0.0
C1536 C 0.01022 0.89459 0.33311 0.0
C1537 C 0.00866 0.86139 0.34016 0.0
C1538 C 0.9928 0.87359 0.39602 0.0
C1539 C 0.99973 0.90688 0.39102 0.0
N1540 N 0.0096 0.9495 0.35134 0.0
N1541 N 1.00049 0.81859 0.37836 0.0
C1542 C 0.0065 0.91756 0.35852 0.0
C1543 C 1.00033 0.85075 0.37155 0.0
N1544 N 0.01818 0.90402 0.3024 0.0
N1545 N 0.97659 0.86377 0.42306 0.0
H1546 H 0.00396 0.80098 0.36076 0.0
H1547 H 0.99924 0.8095 0.40179 0.0
H1548 H 0.96761 0.87949 0.44036 0.0
H1549 H 0.96802 0.84046 0.42626 0.0
H1550 H 0.02396 0.92738 0.29566 0.0
H1551 H 0.01998 0.88798 0.28313 0.0
H1552 H 0.00557 0.95899 0.32844 0.0
H1553 H 0.01764 0.96686 0.36737 0.0
C1554 C 0.13653 0.02825 0.35314 0.0
C1555 C 0.13619 1.00088 0.33251 0.0
C1556 C 0.09604 0.97588 0.36802 0.0
C1557 C 0.10074 1.00027 0.39149 0.0
N1558 N 0.12641 0.05023 0.40647 0.0
N1559 N 0.09682 0.96413 0.31113 0.0
C1560 C 0.12155 0.02648 0.38424 0.0
C1561 C 0.11042 0.97896 0.33718 0.0
N1562 N 0.14425 0.05753 0.34061 0.0
N1563 N 0.07863 0.94902 0.3753 0.0
H1564 H 0.10418 0.96935 0.28757 0.0
H1565 H 0.07604 0.95007 0.31277 0.0
H1566 H 0.06693 0.94582 0.39735 0.0
H1567 H 0.07797 0.92901 0.36012 0.0
H1568 H 0.14276 0.07889 0.35365 0.0
H1569 H 0.14568 0.06099 0.31568 0.0
H1570 H 0.14382 0.0681 0.40352 0.0
H1571 H 0.11467 0.05082 0.42873 0.0
C1572 C 0.99576 0.88698 0.66339 0.0
C1573 C 0.99538 0.85371 0.6571 0.0
C1574 C 0.00544 0.86535 0.59962 0.0
C1575 C 0.99963 0.89882 0.60504 0.0
N1576 N 0.97953 0.93845 0.64365 0.0
N1577 N 0.99472 0.81093 0.61777 0.0
C1578 C 0.99235 0.90889 0.63741 0.0
C1579 C 0.9988 0.84274 0.62479 0.0
N1580 N 0.99893 0.89784 0.69438 0.0
N1581 N 0.01869 0.85486 0.57133 0.0
H1582 H 0.98984 0.79364 0.63534 0.0
H1583 H 0.9934 0.80227 0.59418 0.0
H1584 H 0.02606 0.87009 0.55287 0.0
H1585 H 0.02606 0.83117 0.5678 0.0
H1586 H 0.00236 0.92205 0.69992 0.0
H1587 H 1.00169 0.88237 0.71404 0.0
H1588 H 0.97137 0.94529 0.66647 0.0
H1589 H 0.97226 0.95425 0.62579 0.0
C1590 C 0.13367 0.02394 0.65214 0.0
C1591 C 0.15358 0.99642 0.65594 0.0
C1592 C 0.12888 0.97229 0.60754 0.0
C1593 C 0.10992 1.00037 0.603 0.0
N1594 N 0.10093 0.05612 0.6159 0.0
N1595 N 0.17611 0.94831 0.63246 0.0
C1596 C 0.11432 0.02717 0.62381 0.0
C1597 C 0.15299 0.97177 0.63214 0.0
N1598 N 0.13216 0.04639 0.67616 0.0
N1599 N 0.12304 0.94557 0.58925 0.0
H1600 H 0.19455 0.94746 0.64962 0.0
H1601 H 0.17895 0.93163 0.61393 0.0
H1602 H 0.10588 0.94503 0.57084 0.0
H1603 H 0.13339 0.92324 0.59397 0.0
H1604 H 0.11538 0.06505 0.67636 0.0
H1605 H 0.14589 0.04487 0.69724 0.0
H1606 H 0.10616 0.07738 0.62811 0.0
H1607 H 0.08658 0.05934 0.59543 0.0
C1608 C 1.00022 0.15436 0.63701 0.0
C1609 C 0.00871 0.14239 0.66796 0.0
C1610 C 0.01788 0.08923 0.64449 0.0
C1611 C 0.00647 0.10009 0.61359 0.0
N1612 N 0.97811 0.1422 0.58445 0.0
N1613 N 0.01698 0.09679 0.70253 0.0
C1614 C 0.99516 0.13246 0.61094 0.0
C1615 C 0.01448 0.10925 0.67208 0.0
N1616 N 0.99784 0.18675 0.63212 0.0
N1617 N 0.03421 0.06088 0.64763 0.0
H1618 H 0.01476 0.11089 0.72326 0.0
H1619 H 0.01778 0.07217 0.70714 0.0
H1620 H 0.04032 0.04621 0.6284 0.0
H1621 H 0.04569 0.05392 0.66892 0.0
H1622 H 0.99554 0.19697 0.60924 0.0
H1623 H 1.00071 0.20354 0.65061 0.0
H1624 H 0.9667 0.16448 0.58302 0.0
H1625 H 0.97199 0.12702 0.56551 0.0
C1626 C 0.8795 0.97302 0.65552 0.0
C1627 C 0.86146 0.00117 0.66249 0.0
C1628 C 0.88647 0.02863 0.61632 0.0
C1629 C 0.90318 0.99999 0.60828 0.0
N1630 N 0.90991 0.94294 0.61558 0.0
N1631 N 0.84143 0.05274 0.64461 0.0
C1632 C 0.89801 0.97155 0.62652 0.0
C1633 C 0.86305 0.02809 0.64139 0.0
N1634 N 0.87988 0.94817 0.67709 0.0
N1635 N 0.89388 0.05673 0.6009 0.0
H1636 H 0.82339 0.05301 0.66218 0.0
H1637 H 0.83931 0.07133 0.62788 0.0
H1638 H 0.91089 0.05813 0.5824 0.0
H1639 H 0.88521 0.07906 0.60827 0.0
H1640 H 0.89535 0.92853 0.67506 0.0
H1641 H 0.86651 0.94841 0.69844 0.0
H1642 H 0.90415 0.92085 0.62591 0.0
H1643 H 0.92371 0.94111 0.59458 0.0
C1644 C 0.34947 0.01887 0.12564 0.0
C1645 C 0.34807 0.99413 0.14915 0.0
C1646 C 0.40037 0.97326 0.13018 0.0
C1647 C 0.40267 0.99914 0.10794 0.0
N1648 N 0.3832 0.05088 0.09028 0.0
N1649 N 0.37576 0.95265 0.1791 0.0
C1650 C 0.3783 0.02324 0.10742 0.0
C1651 C 0.37466 0.97281 0.15304 0.0
N1652 N 0.32289 0.03747 0.11983 0.0
N1653 N 0.42166 0.9482 0.12849 0.0
H1654 H 0.3577 0.95193 0.19664 0.0
H1655 H 0.39599 0.93897 0.185 0.0
H1656 H 0.44057 0.94726 0.11193 0.0
H1657 H 0.41883 0.92697 0.14155 0.0
H1658 H 0.32127 0.05347 0.10054 0.0
H1659 H 0.30136 0.035 0.13266 0.0
H1660 H 0.36778 0.07061 0.09141 0.0
H1661 H 0.40449 0.05535 0.0776 0.0
C1662 C 0.03112 0.34807 0.1287 0.0
C1663 C 0.00802 0.34844 0.1538 0.0
C1664 C 0.99284 0.40391 0.13911 0.0
C1665 C 0.0132 0.40222 0.1113 0.0
N1666 N 0.05066 0.37102 0.07895 0.0
N1667 N 0.96519 0.37533 0.18228 0.0
C1668 C 0.03209 0.37385 0.10605 0.0
C1669 C 0.98866 0.37611 0.15901 0.0
N1670 N 0.0527 0.32324 0.1269 0.0
N1671 N 0.97718 0.43182 0.14665 0.0
H1672 H 0.96231 0.35615 0.19825 0.0
H1673 H 0.94719 0.39265 0.18454 0.0
H1674 H 0.97672 0.45196 0.13185 0.0
H1675 H 0.96589 0.43585 0.16874 0.0
H1676 H 0.07279 0.32326 0.11178 0.0
H1677 H 0.05216 0.30359 0.14256 0.0
H1678 H 0.06061 0.34942 0.07107 0.0
H1679 H 0.05525 0.39001 0.06339 0.0
C1680 C 0.67067 0.98484 0.1082 0.0
C1681 C 0.6744 0.00488 0.13556 0.0
C1682 C 0.62276 0.03076 0.1213 0.0
C1683 C 0.6156 0.00488 0.09998 0.0
N1684 N 0.63372 0.95544 0.07465 0.0
N1685 N 0.6656 0.06072 0.14718 0.0
C1686 C 0.63986 0.9814 0.09389 0.0
C1687 C 0.65349 0.03195 0.13708 0.0
N1688 N 0.69731 0.97327 0.09271 0.0
N1689 N 0.60102 0.055 0.12543 0.0
H1690 H 0.69031 0.06382 0.15118 0.0
H1691 H 0.65273 0.08221 0.14636 0.0
H1692 H 0.58065 0.0574 0.11094 0.0
H1693 H 0.60305 0.07215 0.14366 0.0
H1694 H 0.69607 0.96101 0.07077 0.0
H1695 H 0.7206 0.97987 0.09981 0.0
H1696 H 0.65015 0.93662 0.07197 0.0
H1697 H 0.61135 0.9512 0.06397 0.0
C1698 C 0.02909 0.66937 0.11256 0.0
C1699 C 0.01853 0.66683 0.14499 0.0
C1700 C 0.99728 0.61297 0.13281 0.0
C1701 C 0.01295 0.61351 0.10222 0.0
N1702 N 0.05191 0.6404 0.06781 0.0
N1703 N 0.99807 0.63273 0.18774 0.0
C1704 C 0.03098 0.6413 0.09329 0.0
C1705 C 0.00399 0.63771 0.15567 0.0
N1706 N 0.03738 0.69862 0.10008 0.0
N1707 N 0.97517 0.58966 0.13987 0.0
H1708 H 0.0037 0.64948 0.20558 0.0
H1709 H 0.99054 0.61063 0.1969 0.0
H1710 H 0.96854 0.57182 0.12355 0.0
H1711 H 0.96088 0.59019 0.16059 0.0
H1712 H 0.04265 0.70204 0.07569 0.0
H1713 H 0.03548 0.71988 0.11333 0.0
H1714 H 0.0672 0.65944 0.06202 0.0
H1715 H 0.05726 0.61938 0.05532 0.0
C1716 C 0.35797 0.03143 0.86672 0.0
C1717 C 0.33717 0.00422 0.86792 0.0
C1718 C 0.371 0.98144 0.91079 0.0
C1719 C 0.39521 0.00514 0.90522 0.0
N1720 N 0.40998 0.05499 0.87932 0.0
N1721 N 0.31366 0.97228 0.91024 0.0
C1722 C 0.38837 0.03062 0.88326 0.0
C1723 C 0.34052 0.98437 0.89553 0.0
N1724 N 0.34586 0.0601 0.85634 0.0
N1725 N 0.37696 0.95554 0.93019 0.0
H1726 H 0.29046 0.97839 0.90243 0.0
H1727 H 0.31445 0.96016 0.93229 0.0
H1728 H 0.39919 0.95141 0.94122 0.0
H1729 H 0.36069 0.93653 0.93251 0.0
H1730 H 0.35865 0.08164 0.8572 0.0
H1731 H 0.32115 0.06318 0.8524 0.0
H1732 H 0.40835 0.07176 0.86067 0.0
H1733 H 0.42975 0.05798 0.8945 0.0
C1734 C 0.0384 0.35259 0.87815 0.0
C1735 C 0.0093 0.343 0.86258 0.0
C1736 C 0.98167 0.38914 0.8874 0.0
C1737 C 0.00959 0.39599 0.90616 0.0
N1738 N 0.0628 0.37955 0.9237 0.0
N1739 N 0.95145 0.3485 0.85834 0.0
C1740 C 0.03728 0.37606 0.90309 0.0
C1741 C 0.98039 0.3603 0.86887 0.0
N1742 N 0.0675 0.34102 0.86778 0.0
N1743 N 0.95632 0.41008 0.88714 0.0
H1744 H 0.94942 0.32683 0.84583 0.0
H1745 H 0.9293 0.3584 0.86495 0.0
H1746 H 0.95598 0.43101 0.90088 0.0
H1747 H 0.93689 0.40796 0.87127 0.0
H1748 H 0.08954 0.34984 0.87615 0.0
H1749 H 0.0699 0.32542 0.84824 0.0
H1750 H 0.08187 0.36322 0.92472 0.0
H1751 H 0.06387 0.39739 0.94128 0.0
C1752 C 0.63741 0.99088 0.84916 0.0
C1753 C 0.66467 0.00975 0.85813 0.0
C1754 C 0.63564 0.02828 0.90592 0.0
C1755 C 0.60979 0.00674 0.89926 0.0
N1756 N 0.59008 0.9619 0.86786 0.0
N1757 N 0.69268 0.03875 0.90005 0.0
C1758 C 0.61175 0.98634 0.8718 0.0
C1759 C 0.66473 0.02585 0.88822 0.0
N1760 N 0.63521 0.97842 0.81873 0.0
N1761 N 0.63191 0.05237 0.92798 0.0
H1762 H 0.71476 0.03659 0.88809 0.0
H1763 H 0.6945 0.04834 0.92325 0.0
H1764 H 0.61005 0.05674 0.93955 0.0
H1765 H 0.64911 0.07031 0.93164 0.0
H1766 H 0.61438 0.96734 0.81002 0.0
H1767 H 0.65308 0.98157 0.8013 0.0
H1768 H 0.59239 0.94448 0.84993 0.0
H1769 H 0.57169 0.95714 0.88437 0.0
C1770 C 0.9779 0.62765 0.84667 0.0
C1771 C 0.99149 0.65824 0.85333 0.0
C1772 C 0.01268 0.63809 0.90493 0.0
C1773 C 0.99983 0.60666 0.89828 0.0
N1774 N 0.97184 0.57153 0.86066 0.0
N1775 N 0.02486 0.69221 0.88612 0.0
C1776 C 0.98319 0.60141 0.8684 0.0
C1777 C 0.00966 0.66329 0.88173 0.0
N1778 N 0.95844 0.62412 0.82015 0.0
N1779 N 0.02773 0.64427 0.93364 0.0
H1780 H 0.0227 0.71137 0.87001 0.0
H1781 H 0.04125 0.69699 0.90451 0.0
H1782 H 0.03622 0.62654 0.949 0.0
H1783 H 0.03153 0.66727 0.94274 0.0
H1784 H 0.94391 0.60416 0.81592 0.0
H1785 H 0.95513 0.64219 0.80299 0.0
H1786 H 0.96484 0.56491 0.83745 0.0
H1787 H 0.96986 0.55267 0.87694 0.0
C1788 C 0.15639 0.37222 0.97576 0.0
C1789 C 0.15914 0.35079 0.0024 0.0
C1790 C 0.12527 0.38702 0.03468 0.0
C1791 C 0.11765 0.4049 0.00654 0.0
N1792 N 0.12646 0.41529 0.94994 0.0
N1793 N 0.14442 0.33663 0.05693 0.0
C1794 C 0.1336 0.39788 0.97701 0.0
C1795 C 0.14332 0.35801 0.03192 0.0
N1796 N 0.17632 0.36861 0.94966 0.0
N1797 N 0.11652 0.39856 0.06425 0.0
H1798 H 0.15741 0.31518 0.05585 0.0
H1799 H 0.13041 0.339 0.0777 0.0
H1800 H 0.10346 0.41983 0.06696 0.0
H1801 H 0.12432 0.38849 0.08594 0.0
H1802 H 0.17789 0.38521 0.93091 0.0
H1803 H 0.19365 0.35048 0.9481 0.0
H1804 H 0.13414 0.40899 0.92686 0.0
H1805 H 0.11091 0.43497 0.95023 0.0
C1806 C 0.13425 0.65777 0.02032 0.0
C1807 C 0.13836 0.67391 0.99029 0.0
C1808 C 0.10692 0.63114 0.96398 0.0
C1809 C 0.1073 0.61287 0.99277 0.0
N1810 N 0.12518 0.6072 0.04783 0.0
N1811 N 0.10755 0.68477 0.94219 0.0
C1812 C 0.12244 0.62559 0.0207 0.0
C1813 C 0.11873 0.66313 0.96428 0.0
N1814 N 0.13459 0.67494 0.04833 0.0
N1815 N 0.09589 0.61776 0.93598 0.0
H1816 H 0.11164 0.70941 0.9448 0.0
H1817 H 0.09142 0.67872 0.92388 0.0
H1818 H 0.08627 0.59461 0.93502 0.0
H1819 H 0.09828 0.62901 0.91359 0.0
H1820 H 0.12968 0.66485 0.07086 0.0
H1821 H 0.13325 0.69998 0.04802 0.0
H1822 H 0.13836 0.61451 0.06801 0.0
H1823 H 0.11685 0.58358 0.04879 0.0
C1824 C 0.34495 0.1123 0.97762 0.0
C1825 C 0.33683 0.13578 0.00105 0.0
C1826 C 0.38516 0.1193 0.03182 0.0
C1827 C 0.39672 0.10236 0.00436 0.0
N1828 N 0.38767 0.08488 0.94952 0.0
N1829 N 0.33738 0.13888 0.05902 0.0
C1830 C 0.37658 0.09952 0.97683 0.0
C1831 C 0.35376 0.13378 0.03094 0.0
N1832 N 0.32127 0.09891 0.95906 0.0
N1833 N 0.40352 0.12054 0.05912 0.0
H1834 H 0.31221 0.14019 0.05925 0.0
H1835 H 0.34742 0.13574 0.08187 0.0
H1836 H 0.42521 0.10803 0.06129 0.0
H1837 H 0.39787 0.13502 0.07884 0.0
H1838 H 0.32535 0.07948 0.94367 0.0
H1839 H 0.29696 0.10477 0.9624 0.0
H1840 H 0.3745 0.08482 0.92805 0.0
H1841 H 0.41111 0.0759 0.94758 0.0
C1842 C 0.89747 0.34203 0.98488 0.0
C1843 C 0.86772 0.34248 0.00178 0.0
C1844 C 0.8836 0.39398 0.02658 0.0
C1845 C 0.91099 0.39567 0.0059 0.0
N1846 N 0.93859 0.37404 0.9592 0.0
N1847 N 0.82993 0.3721 0.03478 0.0
C1848 C 0.91655 0.37034 0.98345 0.0
C1849 C 0.86007 0.36931 0.02168 0.0
N1850 N 0.90768 0.3144 0.97027 0.0
N1851 N 0.88049 0.41508 0.05165 0.0
H1852 H 0.81189 0.35493 0.03151 0.0
H1853 H 0.822 0.3928 0.04651 0.0
H1854 H 0.89757 0.43278 0.05669 0.0
H1855 H 0.86271 0.41292 0.06932 0.0
H1856 H 0.9306 0.31195 0.96013 0.0
H1857 H 0.89461 0.29298 0.97137 0.0
H1858 H 0.94134 0.3575 0.9405 0.0
H1859 H 0.95102 0.39542 0.95537 0.0
C1860 C 0.6635 0.88503 0.97472 0.0
C1861 C 0.66558 0.86099 0.99897 0.0
C1862 C 0.6146 0.88014 0.02263 0.0
C1863 C 0.61151 0.90302 0.99736 0.0
N1864 N 0.62942 0.92276 0.94561 0.0
N1865 N 0.63941 0.83081 0.04135 0.0
C1866 C 0.63497 0.90417 0.97229 0.0
C1867 C 0.63996 0.85708 0.02149 0.0
N1868 N 0.68916 0.89021 0.95465 0.0
N1869 N 0.59437 0.88139 0.04867 0.0
H1870 H 0.65736 0.81323 0.04119 0.0
H1871 H 0.61969 0.82482 0.05576 0.0
H1872 H 0.5757 0.89803 0.05069 0.0
H1873 H 0.59787 0.86788 0.06957 0.0
H1874 H 0.69064 0.90963 0.93884 0.0
H1875 H 0.71016 0.87637 0.95552 0.0
H1876 H 0.64398 0.9224 0.92512 0.0
H1877 H 0.60844 0.93634 0.94268 0.0
C1878 C 0.89329 0.66344 0.02516 0.0
C1879 C 0.86238 0.66167 0.01065 0.0
C1880 C 0.87597 0.60762 0.99031 0.0
C1881 C 0.90488 0.60771 0.00893 0.0
N1882 N 0.93614 0.63389 0.05089 0.0
N1883 N 0.82188 0.62917 0.98419 0.0
C1884 C 0.91217 0.63516 0.02825 0.0
C1885 C 0.85299 0.63294 0.9945 0.0
N1886 N 0.90495 0.69234 0.03565 0.0
N1887 N 0.87096 0.58442 0.96752 0.0
H1888 H 0.80421 0.64677 0.98715 0.0
H1889 H 0.81299 0.60745 0.97535 0.0
H1890 H 0.88759 0.56627 0.96266 0.0
H1891 H 0.85184 0.58518 0.95115 0.0
H1892 H 0.92863 0.69547 0.04362 0.0
H1893 H 0.89214 0.71378 0.03304 0.0
H1894 H 0.94035 0.65221 0.06753 0.0
H1895 H 0.94904 0.61304 0.05588 0.0
C1896 C 0.34882 0.88405 0.0272 0.0
C1897 C 0.34641 0.86083 0.00225 0.0
C1898 C 0.39833 0.87885 0.97994 0.0
C1899 C 0.40153 0.90112 0.00571 0.0
N1900 N 0.38364 0.91976 0.05785 0.0
N1901 N 0.37258 0.83054 0.95997 0.0
C1902 C 0.37787 0.90215 0.03058 0.0
C1903 C 0.37237 0.85649 0.98023 0.0
N1904 N 0.32298 0.88961 0.04695 0.0
N1905 N 0.41896 0.88013 0.95421 0.0
H1906 H 0.35418 0.81343 0.9596 0.0
H1907 H 0.39241 0.82427 0.94583 0.0
H1908 H 0.4381 0.89628 0.95277 0.0
H1909 H 0.4154 0.86711 0.93302 0.0
H1910 H 0.32192 0.90863 0.06326 0.0
H1911 H 0.30151 0.87659 0.04534 0.0
H1912 H 0.36882 0.91922 0.07816 0.0
H1913 H 0.40503 0.93252 0.06138 0.0
C1914 C 0.66009 0.12592 0.0295 0.0
C1915 C 0.66573 0.14704 0.00317 0.0
C1916 C 0.6174 0.12587 0.97577 0.0
C1917 C 0.61038 0.10653 0.0031 0.0
N1918 N 0.62183 0.0923 0.05832 0.0
N1919 N 0.64581 0.17217 0.9545 0.0
C1920 C 0.63083 0.10782 0.03067 0.0
C1921 C 0.64318 0.14849 0.97726 0.0
N1922 N 0.68323 0.12222 0.05275 0.0
N1923 N 0.60052 0.12153 0.94778 0.0
H1924 H 0.6637 0.1898 0.95513 0.0
H1925 H 0.62854 0.17618 0.93669 0.0
H1926 H 0.5815 0.10524 0.94579 0.0
H1927 H 0.60722 0.13188 0.92587 0.0
H1928 H 0.68221 0.10464 0.07064 0.0
H1929 H 0.70489 0.13503 0.05262 0.0
H1930 H 0.63388 0.09491 0.08024 0.0
H1931 H 0.60047 0.07913 0.06005 0.0
C1932 C 0.50631 0.65967 0.87605 0.0
C1933 C 0.50394 0.64893 0.84365 0.0
C1934 C 0.50181 0.59338 0.86247 0.0
C1935 C 0.50702 0.60357 0.89533 0.0
N1936 N 0.52596 0.6473 0.92944 0.0
N1937 N 0.5103 0.60561 0.8059 0.0
C1938 C 0.51273 0.63699 0.90105 0.0
C1939 C 0.50558 0.6158 0.83692 0.0
N1940 N 0.50165 0.69136 0.88329 0.0
N1941 N 0.49079 0.56329 0.855 0.0
H1942 H 0.51307 0.62152 0.7866 0.0
H1943 H 0.51504 0.58169 0.80005 0.0
H1944 H 0.48342 0.54624 0.87165 0.0
H1945 H 0.48407 0.55666 0.83166 0.0
H1946 H 0.49967 0.69971 0.90695 0.0
H1947 H 0.49707 0.70879 0.86577 0.0
H1948 H 0.53287 0.67108 0.9333 0.0
H1949 H 0.53428 0.63182 0.94732 0.0
C1950 C 0.35307 0.48956 0.86596 0.0
C1951 C 0.35895 0.5109 0.83988 0.0
C1952 C 0.40257 0.53615 0.87089 0.0
C1953 C 0.40022 0.51149 0.89463 0.0
N1954 N 0.37454 0.46245 0.91283 0.0
N1955 N 0.39052 0.55333 0.81616 0.0
C1956 C 0.37556 0.48779 0.89187 0.0
C1957 C 0.38395 0.53401 0.84202 0.0
N1958 N 0.32571 0.47112 0.86613 0.0
N1959 N 0.42151 0.56241 0.87654 0.0
H1960 H 0.37674 0.553 0.79505 0.0
H1961 H 0.41086 0.56801 0.81481 0.0
H1962 H 0.43528 0.56506 0.89745 0.0
H1963 H 0.42139 0.58281 0.86194 0.0
H1964 H 0.31815 0.45788 0.8861 0.0
H1965 H 0.30885 0.47133 0.84741 0.0
H1966 H 0.35979 0.44245 0.90953 0.0
H1967 H 0.39032 0.45989 0.93215 0.0
C1968 C 0.49881 0.34873 0.87008 0.0
C1969 C 0.50123 0.36103 0.83826 0.0
C1970 C 0.50454 0.41555 0.85975 0.0
C1971 C 0.49944 0.40387 0.89215 0.0
N1972 N 0.48073 0.35864 0.92451 0.0
N1973 N 0.49652 0.40612 0.80249 0.0
C1974 C 0.49343 0.37023 0.89637 0.0
C1975 C 0.50048 0.39444 0.83309 0.0
N1976 N 0.50212 0.3165 0.87544 0.0
N1977 N 0.51574 0.44591 0.8538 0.0
H1978 H 0.49405 0.39117 0.7824 0.0
H1979 H 0.49219 0.43032 0.79761 0.0
H1980 H 0.52361 0.46178 0.87136 0.0
H1981 H 0.52206 0.45395 0.83083 0.0
H1982 H 0.50442 0.30669 0.8985 0.0
H1983 H 0.50493 0.29987 0.8568 0.0
H1984 H 0.47332 0.33485 0.92726 0.0
H1985 H 0.4733 0.37311 0.94354 0.0
C1986 C 0.63928 0.52106 0.8569 0.0
C1987 C 0.63982 0.4928 0.8375 0.0
C1988 C 0.59964 0.46861 0.87366 0.0
C1989 C 0.60343 0.49419 0.89607 0.0
N1990 N 0.62806 0.54523 0.90901 0.0
N1991 N 0.60122 0.45456 0.81731 0.0
C1992 C 0.62392 0.5204 0.88787 0.0
C1993 C 0.61443 0.47056 0.84288 0.0
N1994 N 0.64653 0.54993 0.84315 0.0
N1995 N 0.58236 0.44188 0.88177 0.0
H1996 H 0.60844 0.45924 0.7936 0.0
H1997 H 0.58076 0.44008 0.81929 0.0
H1998 H 0.57 0.43959 0.90357 0.0
H1999 H 0.58213 0.42123 0.86748 0.0
H2000 H 0.64443 0.57181 0.85519 0.0
H2001 H 0.64826 0.55232 0.81811 0.0
H2002 H 0.6452 0.56324 0.90546 0.0
H2003 H 0.61618 0.54654 0.93115 0.0
C2004 C 0.48647 0.38985 0.16585 0.0
C2005 C 0.49197 0.35678 0.16132 0.0
C2006 C 0.50745 0.36759 0.10486 0.0
C2007 C 0.4964 0.40001 0.10781 0.0
N2008 N 0.46753 0.43848 0.14153 0.0
N2009 N 0.50467 0.31298 0.12557 0.0
C2010 C 0.48408 0.41029 0.13853 0.0
C2011 C 0.50164 0.34529 0.13054 0.0
N2012 N 0.48286 0.40179 0.1964 0.0
N2013 N 0.52487 0.35819 0.0785 0.0
H2014 H 0.50188 0.29614 0.14405 0.0
H2015 H 0.50781 0.30288 0.10275 0.0
H2016 H 0.53121 0.37363 0.05982 0.0
H2017 H 0.53617 0.33588 0.07685 0.0
H2018 H 0.48215 0.42634 0.20138 0.0
H2019 H 0.48405 0.38732 0.21696 0.0
H2020 H 0.45555 0.44531 0.16257 0.0
H2021 H 0.46151 0.45278 0.12204 0.0
C2022 C 0.61215 0.53305 0.16176 0.0
C2023 C 0.63671 0.51006 0.16795 0.0
C2024 C 0.61965 0.48109 0.11882 0.0
C2025 C 0.59986 0.50752 0.10976 0.0
N2026 N 0.58042 0.56092 0.12183 0.0
N2027 N 0.64124 0.45252 0.16458 0.0
C2028 C 0.59692 0.53406 0.1311 0.0
C2029 C 0.63507 0.48108 0.14973 0.0
N2030 N 0.60043 0.55124 0.18657 0.0
N2031 N 0.62311 0.45548 0.09851 0.0
H2032 H 0.64225 0.45097 0.18972 0.0
H2033 H 0.63852 0.4303 0.1533 0.0
H2034 H 0.61118 0.45379 0.07641 0.0
H2035 H 0.63977 0.43715 0.10268 0.0
H2036 H 0.5805 0.56638 0.18421 0.0
H2037 H 0.60824 0.54786 0.21032 0.0
H2038 H 0.58085 0.58219 0.13515 0.0
H2039 H 0.56832 0.56269 0.09982 0.0
C2040 C 0.50145 0.61303 0.16823 0.0
C2041 C 0.50468 0.64615 0.16176 0.0
C2042 C 0.49551 0.63506 0.10426 0.0
C2043 C 0.49946 0.60131 0.10969 0.0
N2044 N 0.5136 0.55995 0.14966 0.0
N2045 N 0.50976 0.68854 0.12229 0.0
C2046 C 0.50412 0.59062 0.14248 0.0
C2047 C 0.50312 0.65717 0.1294 0.0
N2048 N 0.49622 0.60283 0.19917 0.0
N2049 N 0.48283 0.64636 0.07599 0.0
H2050 H 0.51552 0.70558 0.13983 0.0
H2051 H 0.51234 0.69684 0.09866 0.0
H2052 H 0.47373 0.63159 0.05792 0.0
H2053 H 0.47715 0.67051 0.07241 0.0
H2054 H 0.49032 0.57913 0.20484 0.0
H2055 H 0.49422 0.61871 0.21859 0.0
H2056 H 0.51967 0.55267 0.17297 0.0
H2057 H 0.52046 0.54289 0.13282 0.0
C2058 C 0.35598 0.52742 0.13612 0.0
C2059 C 0.35418 0.50086 0.15766 0.0
C2060 C 0.38945 0.46995 0.12153 0.0
C2061 C 0.39538 0.4981 0.10311 0.0
N2062 N 0.38608 0.55457 0.094 0.0
N2063 N 0.37109 0.44739 0.17236 0.0
C2064 C 0.37893 0.52706 0.11056 0.0
C2065 C 0.37121 0.47211 0.15063 0.0
N2066 N 0.3351 0.55265 0.13956 0.0
N2067 N 0.40053 0.44098 0.1107 0.0
H2068 H 0.35786 0.44808 0.19379 0.0
H2069 H 0.38598 0.42731 0.17031 0.0
H2070 H 0.41443 0.43879 0.08982 0.0
H2071 H 0.39414 0.41909 0.12111 0.0
H2072 H 0.33296 0.57111 0.1227 0.0
H2073 H 0.31761 0.55361 0.15766 0.0
H2074 H 0.37791 0.57723 0.1009 0.0
H2075 H 0.40208 0.55509 0.07458 0.0
C2076 C 0.84552 0.51046 0.62262 0.0
C2077 C 0.84594 0.48665 0.64706 0.0
C2078 C 0.89748 0.46603 0.62618 0.0
C2079 C 0.89887 0.49168 0.60355 0.0
N2080 N 0.87579 0.54121 0.58317 0.0
N2081 N 0.87387 0.44634 0.67646 0.0
C2082 C 0.87329 0.51474 0.6026 0.0
C2083 C 0.87271 0.46585 0.65005 0.0
N2084 N 0.81814 0.52814 0.61771 0.0
N2085 N 0.918 0.44054 0.62321 0.0
H2086 H 0.8935 0.4318 0.68247 0.0
H2087 H 0.8935 0.4318 0.68247 0.0
H2088 H 0.93485 0.43883 0.60462 0.0
H2089 H 0.91586 0.41946 0.6366 0.0
H2090 H 0.81482 0.54332 0.59798 0.0
H2091 H 0.79755 0.52565 0.63201 0.0
H2092 H 0.85977 0.56048 0.584 0.0
H2093 H 0.89559 0.54558 0.56831 0.0
C2094 C 0.49175 0.87399 0.65749 0.0
C2095 C 0.50657 0.84417 0.65022 0.0
C2096 C 0.52673 0.86621 0.59913 0.0
C2097 C 0.51267 0.89691 0.6065 0.0
N2098 N 0.48715 0.93076 0.6473 0.0
N2099 N 0.54371 0.81357 0.61816 0.0
C2100 C 0.49717 0.90113 0.63716 0.0
C2101 C 0.52573 0.84085 0.62226 0.0
N2102 N 0.47099 0.87606 0.68313 0.0
N2103 N 0.54084 0.86076 0.56982 0.0
H2104 H 0.54303 0.79432 0.6343 0.0
H2105 H 0.56139 0.81105 0.60045 0.0
H2106 H 0.5465 0.87878 0.55351 0.0
H2107 H 0.5463 0.83792 0.56113 0.0
H2108 H 0.45558 0.89548 0.68693 0.0
H2109 H 0.4672 0.85728 0.69938 0.0
H2110 H 0.48091 0.93566 0.67118 0.0
H2111 H 0.48598 0.95106 0.63288 0.0
C2112 C 0.16777 0.48645 0.6106 0.0
C2113 C 0.16681 0.50116 0.64136 0.0
C2114 C 0.1128 0.52236 0.62845 0.0
C2115 C 0.11176 0.50273 0.60037 0.0
N2116 N 0.13639 0.45935 0.57014 0.0
N2117 N 0.13576 0.52946 0.68184 0.0
C2118 C 0.13882 0.483 0.59285 0.0
C2119 C 0.13864 0.51831 0.65096 0.0
N2120 N 0.19639 0.47557 0.59835 0.0
N2121 N 0.09001 0.54561 0.63316 0.0
H2122 H 0.15375 0.52659 0.69922 0.0
H2123 H 0.11437 0.53912 0.69087 0.0
H2124 H 0.07153 0.55019 0.61667 0.0
H2125 H 0.09149 0.56249 0.6517 0.0
H2126 H 0.19872 0.46704 0.57479 0.0
H2127 H 0.2183 0.47842 0.61052 0.0
H2128 H 0.15464 0.44262 0.56584 0.0
H2129 H 0.11473 0.45383 0.55872 0.0
C2130 C 0.53252 0.15242 0.62921 0.0
C2131 C 0.50418 0.15959 0.64721 0.0
C2132 C 0.47876 0.11089 0.62507 0.0
C2133 C 0.50526 0.10665 0.6037 0.0
N2134 N 0.55477 0.12811 0.58127 0.0
N2135 N 0.4476 0.14905 0.65639 0.0
C2136 C 0.53116 0.12905 0.60427 0.0
C2137 C 0.4765 0.1397 0.64357 0.0
N2138 N 0.56143 0.16615 0.63723 0.0
N2139 N 0.45553 0.08774 0.62758 0.0
H2140 H 0.44463 0.17072 0.6687 0.0
H2141 H 0.42597 0.13707 0.6518 0.0
H2142 H 0.45569 0.06683 0.61375 0.0
H2143 H 0.43747 0.08824 0.6451 0.0
H2144 H 0.58325 0.1592 0.62678 0.0
H2145 H 0.56435 0.18152 0.65689 0.0
H2146 H 0.57176 0.1464 0.57858 0.0
H2147 H 0.55614 0.11037 0.56359 0.0
C2148 C 0.86815 0.53563 0.35734 0.0
C2149 C 0.84371 0.5116 0.35671 0.0
C2150 C 0.87498 0.47991 0.39586 0.0
C2151 C 0.89732 0.50567 0.39927 0.0
N2152 N 0.91017 0.56123 0.38874 0.0
N2153 N 0.82144 0.46294 0.37911 0.0
C2154 C 0.89264 0.53439 0.38141 0.0
C2155 C 0.84649 0.48423 0.37697 0.0
N2156 N 0.86857 0.55922 0.33436 0.0
N2157 N 0.88145 0.45097 0.41 0.0
H2158 H 0.80019 0.46541 0.36581 0.0
H2159 H 0.82056 0.44444 0.39603 0.0
H2160 H 0.90221 0.44698 0.42362 0.0
H2161 H 0.86791 0.4303 0.4058 0.0
H2162 H 0.88765 0.57537 0.33182 0.0
H2163 H 0.85158 0.56063 0.31581 0.0
H2164 H 0.90541 0.58373 0.37875 0.0
H2165 H 0.92722 0.56178 0.40729 0.0
C2166 C 0.52183 0.87336 0.34676 0.0
C2167 C 0.51292 0.84191 0.3563 0.0
C2168 C 0.50289 0.86109 0.41144 0.0
C2169 C 0.50926 0.89379 0.40172 0.0
N2170 N 0.52336 0.93015 0.35761 0.0
N2171 N 0.48872 0.80682 0.39529 0.0
C2172 C 0.51782 0.89966 0.36858 0.0
C2173 C 0.50172 0.83616 0.3879 0.0
N2174 N 0.53622 0.87789 0.31734 0.0
N2175 N 0.49843 0.85287 0.44313 0.0
H2176 H 0.48747 0.78795 0.37874 0.0
H2177 H 0.47639 0.80211 0.4167 0.0
H2178 H 0.49271 0.8686 0.46165 0.0
H2179 H 0.50066 0.82932 0.45142 0.0
H2180 H 0.54765 0.89914 0.31055 0.0
H2181 H 0.53908 0.85957 0.30039 0.0
H2182 H 0.52288 0.93618 0.33318 0.0
H2183 H 0.52874 0.94961 0.37229 0.0
C2184 C 0.16346 0.52549 0.39149 0.0
C2185 C 0.17063 0.50318 0.3667 0.0
C2186 C 0.12037 0.47447 0.38095 0.0
C2187 C 0.11016 0.50147 0.39938 0.0
N2188 N 0.12179 0.55496 0.41884 0.0
N2189 N 0.16662 0.44598 0.35968 0.0
C2190 C 0.13165 0.52769 0.40345 0.0
C2191 C 0.15189 0.47445 0.36662 0.0
N2192 N 0.1879 0.54101 0.40715 0.0
N2193 N 0.1007 0.44836 0.37819 0.0
H2194 H 0.19172 0.44439 0.3579 0.0
H2195 H 0.15527 0.42371 0.3614 0.0
H2196 H 0.07943 0.4461 0.39139 0.0
H2197 H 0.105 0.42969 0.36199 0.0
H2198 H 0.18407 0.55536 0.42745 0.0
H2199 H 0.2121 0.53595 0.40216 0.0
H2200 H 0.13631 0.57541 0.42037 0.0
H2201 H 0.09815 0.55802 0.42697 0.0
C2202 C 0.48055 0.12772 0.34639 0.0
C2203 C 0.49059 0.15892 0.35578 0.0
C2204 C 0.51008 0.13742 0.40755 0.0
C2205 C 0.49789 0.10607 0.39929 0.0
N2206 N 0.4651 0.07418 0.36279 0.0
N2207 N 0.51833 0.19364 0.39272 0.0
C2208 C 0.48183 0.10184 0.36901 0.0
C2209 C 0.5061 0.16381 0.38579 0.0
N2210 N 0.47005 0.12269 0.31546 0.0
N2211 N 0.525 0.14228 0.43658 0.0
H2212 H 0.51561 0.21337 0.37741 0.0
H2213 H 0.53258 0.19911 0.41262 0.0
H2214 H 0.53357 0.12378 0.45092 0.0
H2215 H 0.52921 0.16463 0.44693 0.0
H2216 H 0.46641 0.09994 0.30564 0.0
H2217 H 0.4677 0.14113 0.29854 0.0
H2218 H 0.4498 0.07132 0.34304 0.0
H2219 H 0.46326 0.05513 0.37888 0.0
C2220 C 0.63706 0.8548 0.53631 0.0
C2221 C 0.65683 0.8485 0.50907 0.0
C2222 C 0.63584 0.89693 0.48225 0.0
C2223 C 0.61556 0.90287 0.50926 0.0
N2224 N 0.60551 0.89419 0.56582 0.0
N2225 N 0.68195 0.86822 0.46038 0.0
C2226 C 0.61879 0.88381 0.5375 0.0
C2227 C 0.65837 0.87108 0.48336 0.0
N2228 N 0.63478 0.83258 0.56049 0.0
N2229 N 0.63289 0.91528 0.45507 0.0
H2230 H 0.69903 0.84978 0.46051 0.0
H2231 H 0.68661 0.88565 0.44295 0.0
H2232 H 0.61799 0.93537 0.45388 0.0
H2233 H 0.6439 0.90968 0.43319 0.0
H2234 H 0.61804 0.83422 0.5792 0.0
H2235 H 0.64813 0.81131 0.56059 0.0
H2236 H 0.60982 0.88319 0.58801 0.0
H2237 H 0.59214 0.9154 0.5674 0.0
C2238 C 0.61612 0.16001 0.46355 0.0
C2239 C 0.6367 0.17009 0.48908 0.0
C2240 C 0.61928 0.1226 0.5201 0.0
C2241 C 0.60359 0.11024 0.49229 0.0
N2242 N 0.59215 0.11522 0.43549 0.0
N2243 N 0.63445 0.1715 0.5472 0.0
C2244 C 0.60354 0.12838 0.46343 0.0
C2245 C 0.63253 0.15425 0.5193 0.0
N2246 N 0.60491 0.18201 0.44184 0.0
N2247 N 0.62139 0.1043 0.54738 0.0
H2248 H 0.63433 0.19658 0.54678 0.0
H2249 H 0.62986 0.16177 0.56994 0.0
H2250 H 0.61169 0.0812 0.54877 0.0
H2251 H 0.63504 0.11111 0.56741 0.0
H2252 H 0.58786 0.17647 0.42416 0.0
H2253 H 0.60988 0.2065 0.44431 0.0
H2254 H 0.59464 0.12649 0.41311 0.0
H2255 H 0.58197 0.09231 0.43465 0.0
C2256 C 0.83947 0.61179 0.48406 0.0
C2257 C 0.84154 0.64181 0.50002 0.0
C2258 C 0.89355 0.62501 0.52339 0.0
C2259 C 0.89397 0.59768 0.50276 0.0
N2260 N 0.86928 0.56948 0.45795 0.0
N2261 N 0.87326 0.679 0.53173 0.0
C2262 C 0.86733 0.59211 0.48175 0.0
C2263 C 0.86925 0.64897 0.51904 0.0
N2264 N 0.81077 0.60203 0.47103 0.0
N2265 N 0.91552 0.62766 0.54785 0.0
H2266 H 0.85638 0.69736 0.52885 0.0
H2267 H 0.89461 0.68642 0.54279 0.0
H2268 H 0.93284 0.6101 0.55253 0.0
H2269 H 0.91433 0.64549 0.56548 0.0
H2270 H 0.8072 0.57907 0.46162 0.0
H2271 H 0.78969 0.61566 0.47285 0.0
H2272 H 0.85171 0.56665 0.44014 0.0
H2273 H 0.89014 0.55632 0.45354 0.0
C2274 C 0.35805 0.86458 0.5156 0.0
C2275 C 0.36453 0.83899 0.49373 0.0
C2276 C 0.41165 0.86867 0.47378 0.0
C2277 C 0.40801 0.89212 0.49843 0.0
N2278 N 0.3797 0.90908 0.54656 0.0
N2279 N 0.40251 0.81365 0.45768 0.0
C2280 C 0.38176 0.88912 0.52049 0.0
C2281 C 0.39296 0.8401 0.4747 0.0
N2282 N 0.32867 0.86656 0.53048 0.0
N2283 N 0.43119 0.87453 0.44795 0.0
H2284 H 0.39006 0.79186 0.45854 0.0
H2285 H 0.42459 0.81248 0.44563 0.0
H2286 H 0.44441 0.89568 0.4454 0.0
H2287 H 0.43144 0.85992 0.42749 0.0
H2288 H 0.32142 0.8865 0.54387 0.0
H2289 H 0.31034 0.84975 0.52703 0.0
H2290 H 0.36323 0.90565 0.56528 0.0
H2291 H 0.39623 0.92738 0.55094 0.0
C2292 C 0.16289 0.38176 0.47621 0.0
C2293 C 0.16789 0.36131 0.5032 0.0
C2294 C 0.11944 0.38369 0.52921 0.0
C2295 C 0.1128 0.40203 0.50109 0.0
N2296 N 0.12539 0.41486 0.44576 0.0
N2297 N 0.14699 0.33779 0.55229 0.0
C2298 C 0.13377 0.4 0.47398 0.0
C2299 C 0.14499 0.36083 0.52881 0.0
N2300 N 0.18644 0.38457 0.45326 0.0
N2301 N 0.10243 0.38922 0.55692 0.0
H2302 H 0.16471 0.31998 0.55253 0.0
H2303 H 0.1293 0.33443 0.56983 0.0
H2304 H 0.0837 0.40591 0.5583 0.0
H2305 H 0.10875 0.37941 0.57921 0.0
H2306 H 0.18587 0.4016 0.43483 0.0
H2307 H 0.20797 0.37158 0.45416 0.0
H2308 H 0.13784 0.41166 0.42416 0.0
H2309 H 0.1042 0.42818 0.44328 0.0
C2310 C 0.3524 0.13243 0.49568 0.0
C2311 C 0.36135 0.15837 0.51628 0.0
C2312 C 0.40712 0.12666 0.53596 0.0
C2313 C 0.40092 0.10254 0.51251 0.0
N2314 N 0.36988 0.08489 0.46647 0.0
N2315 N 0.40148 0.18257 0.55078 0.0
C2316 C 0.37409 0.10601 0.49136 0.0
C2317 C 0.39006 0.15618 0.53478 0.0
N2318 N 0.32273 0.13231 0.48124 0.0
N2319 N 0.42841 0.12077 0.56043 0.0
H2320 H 0.39006 0.20491 0.54981 0.0
H2321 H 0.42396 0.18312 0.56211 0.0
H2322 H 0.43971 0.09856 0.56324 0.0
H2323 H 0.43168 0.13635 0.57985 0.0
H2324 H 0.31358 0.11253 0.46882 0.0
H2325 H 0.30609 0.15092 0.48396 0.0
H2326 H 0.35295 0.08833 0.44816 0.0
H2327 H 0.38496 0.06521 0.46271 0.0
C2328 C 0.85182 0.37417 0.5251 0.0
C2329 C 0.84516 0.35563 0.49712 0.0
C2330 C 0.89307 0.37829 0.47041 0.0
C2331 C 0.90095 0.3952 0.49905 0.0
N2332 N 0.89124 0.40499 0.55551 0.0
N2333 N 0.86348 0.33431 0.44607 0.0
C2334 C 0.88132 0.39177 0.527 0.0
C2335 C 0.86705 0.35597 0.47065 0.0
N2336 N 0.82938 0.37606 0.54923 0.0
N2337 N 0.90937 0.38471 0.44251 0.0
H2338 H 0.8456 0.31666 0.44588 0.0
H2339 H 0.87994 0.33183 0.42728 0.0
H2340 H 0.9287 0.40074 0.44149 0.0
H2341 H 0.90203 0.37636 0.41995 0.0
H2342 H 0.8312 0.39187 0.56863 0.0
H2343 H 0.80752 0.36362 0.54854 0.0
H2344 H 0.87978 0.40092 0.57752 0.0
H2345 H 0.91281 0.41775 0.55755 0.0
C2346 C 0.15571 0.62462 0.52827 0.0
C2347 C 0.16011 0.64653 0.50235 0.0
C2348 C 0.11093 0.6258 0.47626 0.0
C2349 C 0.10544 0.60514 0.50297 0.0
N2350 N 0.11923 0.58897 0.55716 0.0
N2351 N 0.13776 0.67331 0.45568 0.0
C2352 C 0.12685 0.60584 0.52985 0.0
C2353 C 0.13639 0.64875 0.4776 0.0
N2354 N 0.17964 0.62087 0.5507 0.0
N2355 N 0.09307 0.62226 0.44877 0.0
H2356 H 0.15575 0.69086 0.456 0.0
H2357 H 0.11938 0.67807 0.43917 0.0
H2358 H 0.07451 0.60548 0.44673 0.0
H2359 H 0.09858 0.63379 0.42713 0.0
H2360 H 0.1796 0.60282 0.56813 0.0
H2361 H 0.20085 0.63439 0.55041 0.0
H2362 H 0.13205 0.5908 0.57873 0.0
H2363 H 0.09826 0.57522 0.55917 0.0
loop_
_geom_bond_atom_site_label_1
_geom_bond_atom_site_label_2
_geom_bond_distance
_geom_bond_site_symmetry_2
_ccdc_geom_bond_type
P0 O11 1.490 . S
P0 C14 1.812 . S
P0 C20 1.803 . S
P0 C26 1.819 . S
H1 C15 0.941 . S
H2 C16 0.939 . S
H3 C18 0.940 . S
H4 C19 0.940 . S
H5 C21 0.939 . S
H6 C22 0.942 . S
H7 C24 0.940 . S
H8 C25 0.939 . S
H9 C27 0.941 . S
H10 C31 0.939 1_455 S
O11 P0 1.490 . S
H12 C28 0.939 . S
H13 C30 0.940 . S
C14 P0 1.812 . S
C14 C15 1.389 . S
C14 C19 1.391 1_655 S
C15 H1 0.941 . S
C15 C14 1.389 . S
C15 C16 1.397 . S
C16 H2 0.939 . S
C16 C15 1.397 . S
C16 C17 1.378 . S
C17 C16 1.378 . S
C17 C18 1.378 1_655 S
C18 H3 0.940 . S
C18 C17 1.378 1_455 S
C18 C19 1.396 . S
C19 H4 0.940 . S
C19 C14 1.391 1_455 S
C19 C18 1.396 . S
C20 P0 1.803 . S
C20 C21 1.378 . S
C20 C25 1.400 1_655 S
C21 H5 0.939 . S
C21 C20 1.378 . S
C21 C22 1.361 . S
C22 H6 0.942 . S
C22 C21 1.361 . S
C22 C23 1.369 . S
C23 C22 1.369 . S
C23 C24 1.404 1_655 S
C24 H7 0.940 . S
C24 C23 1.404 1_455 S
C24 C25 1.389 . S
C25 H8 0.939 . S
C25 C20 1.400 1_455 S
C25 C24 1.389 . S
C26 P0 1.819 . S
C26 C27 1.391 . S
C26 C31 1.391 . S
C27 H9 0.941 . S
C27 C26 1.391 . S
C27 C28 1.396 . S
C28 H12 0.939 . S
C28 C27 1.396 . S
C28 C29 1.397 . S
C29 C28 1.397 . S
C29 C30 1.385 1_655 S
C30 H13 0.940 . S
C30 C29 1.385 1_455 S
C30 C31 1.388 1_455 S
C31 H10 0.939 1_655 S
C31 C26 1.391 . S
C31 C30 1.388 1_655 S
P32 O43 1.490 . S
P32 C46 1.812 . S
P32 C52 1.803 . S
P32 C58 1.819 . S
H33 C47 0.941 . S
H34 C48 0.939 . S
H35 C50 0.940 . S
H36 C51 0.940 . S
H37 C53 0.939 . S
H38 C54 0.942 . S
H39 C56 0.940 . S
H40 C57 0.939 . S
H41 C59 0.941 . S
H42 C63 0.939 1_545 S
O43 P32 1.490 . S
H44 C60 0.939 . S
H45 C62 0.940 . S
C46 P32 1.812 . S
C46 C47 1.389 . S
C46 C51 1.391 1_565 S
C47 H33 0.941 . S
C47 C46 1.389 . S
C47 C48 1.397 . S
C48 H34 0.939 . S
C48 C47 1.397 . S
C48 C49 1.378 . S
C49 C48 1.378 . S
C49 C50 1.378 1_565 S
C50 H35 0.940 . S
C50 C49 1.378 1_545 S
C50 C51 1.396 . S
C51 H36 0.940 . S
C51 C46 1.391 1_545 S
C51 C50 1.396 . S
C52 P32 1.803 . S
C52 C53 1.378 . S
C52 C57 1.400 1_565 S
C53 H37 0.939 . S
C53 C52 1.378 . S
C53 C54 1.361 . S
C54 H38 0.942 . S
C54 C53 1.361 . S
C54 C55 1.369 . S
C55 C54 1.369 . S
C55 C56 1.404 1_565 S
C56 H39 0.940 . S
C56 C55 1.404 1_545 S
C56 C57 1.389 . S
C57 H40 0.939 . S
C57 C52 1.400 1_545 S
C57 C56 1.389 . S
C58 P32 1.819 . S
C58 C59 1.391 . S
C58 C63 1.391 . S
C59 H41 0.941 . S
C59 C58 1.391 . S
C59 C60 1.396 . S
C60 H44 0.939 . S
C60 C59 1.396 . S
C60 C61 1.397 . S
C61 C60 1.397 . S
C61 C62 1.385 1_565 S
C62 H45 0.940 . S
C62 C61 1.385 1_545 S
C62 C63 1.388 1_545 S
C63 H42 0.939 1_565 S
C63 C58 1.391 . S
C63 C62 1.388 1_565 S
P64 O75 1.490 . S
P64 C78 1.812 . S
P64 C84 1.803 . S
P64 C90 1.819 . S
H65 C79 0.941 . S
H66 C80 0.939 . S
H67 C82 0.940 . S
H68 C83 0.940 1_655 S
H69 C85 0.939 . S
H70 C86 0.942 . S
H71 C88 0.940 . S
H72 C89 0.939 1_655 S
H73 C91 0.941 . S
H74 C95 0.939 . S
O75 P64 1.490 . S
H76 C92 0.939 . S
H77 C94 0.940 . S
C78 P64 1.812 . S
C78 C79 1.389 . S
C78 C83 1.391 . S
C79 H65 0.941 . S
C79 C78 1.389 . S
C79 C80 1.397 . S
C80 H66 0.939 . S
C80 C79 1.397 . S
C80 C81 1.378 . S
C81 C80 1.378 . S
C81 C82 1.378 1_455 S
C82 H67 0.940 . S
C82 C81 1.378 1_655 S
C82 C83 1.396 1_655 S
C83 H68 0.940 1_455 S
C83 C78 1.391 . S
C83 C82 1.396 1_455 S
C84 P64 1.803 . S
C84 C85 1.378 . S
C84 C89 1.400 . S
C85 H69 0.939 . S
C85 C84 1.378 . S
C85 C86 1.361 . S
C86 H70 0.942 . S
C86 C85 1.361 . S
C86 C87 1.369 . S
C87 C86 1.369 . S
C87 C88 1.404 1_455 S
C88 H71 0.940 . S
C88 C87 1.404 1_655 S
C88 C89 1.389 1_655 S
C89 H72 0.939 1_455 S
C89 C84 1.400 . S
C89 C88 1.389 1_455 S
C90 P64 1.819 . S
C90 C91 1.391 . S
C90 C95 1.391 . S
C91 H73 0.941 . S
C91 C90 1.391 . S
C91 C92 1.396 . S
C92 H76 0.939 . S
C92 C91 1.396 . S
C92 C93 1.397 . S
C93 C92 1.397 . S
C93 C94 1.385 1_455 S
C94 H77 0.940 . S
C94 C93 1.385 1_655 S
C94 C95 1.388 1_655 S
C95 H74 0.939 . S
C95 C90 1.391 . S
C95 C94 1.388 1_455 S
P96 O107 1.490 . S
P96 C110 1.812 . S
P96 C116 1.803 . S
P96 C122 1.819 . S
H97 C111 0.941 . S
H98 C112 0.939 . S
H99 C114 0.940 . S
H100 C115 0.940 . S
H101 C117 0.939 . S
H102 C118 0.942 . S
H103 C120 0.940 . S
H104 C121 0.939 . S
H105 C123 0.941 . S
H106 C127 0.939 1_545 S
O107 P96 1.490 . S
H108 C124 0.939 . S
H109 C126 0.940 . S
C110 P96 1.812 . S
C110 C111 1.389 . S
C110 C115 1.391 1_565 S
C111 H97 0.941 . S
C111 C110 1.389 . S
C111 C112 1.397 . S
C112 H98 0.939 . S
C112 C111 1.397 . S
C112 C113 1.378 . S
C113 C112 1.378 . S
C113 C114 1.378 1_565 S
C114 H99 0.940 . S
C114 C113 1.378 1_545 S
C114 C115 1.396 . S
C115 H100 0.940 . S
C115 C110 1.391 1_545 S
C115 C114 1.396 . S
C116 P96 1.803 . S
C116 C117 1.378 . S
C116 C121 1.400 1_565 S
C117 H101 0.939 . S
C117 C116 1.378 . S
C117 C118 1.361 . S
C118 H102 0.942 . S
C118 C117 1.361 . S
C118 C119 1.369 . S
C119 C118 1.369 . S
C119 C120 1.404 1_565 S
C120 H103 0.940 . S
C120 C119 1.404 1_545 S
C120 C121 1.389 . S
C121 H104 0.939 . S
C121 C116 1.400 1_545 S
C121 C120 1.389 . S
C122 P96 1.819 . S
C122 C123 1.391 . S
C122 C127 1.391 . S
C123 H105 0.941 . S
C123 C122 1.391 . S
C123 C124 1.396 . S
C124 H108 0.939 . S
C124 C123 1.396 . S
C124 C125 1.397 . S
C125 C124 1.397 . S
C125 C126 1.385 1_565 S
C126 H109 0.940 . S
C126 C125 1.385 1_545 S
C126 C127 1.388 1_545 S
C127 H106 0.939 1_565 S
C127 C122 1.391 . S
C127 C126 1.388 1_565 S
P128 O139 1.490 . S
P128 C142 1.812 . S
P128 C148 1.803 . S
P128 C154 1.819 . S
H129 C143 0.941 . S
H130 C144 0.939 . S
H131 C146 0.940 . S
H132 C147 0.940 . S
H133 C149 0.939 . S
H134 C150 0.942 . S
H135 C152 0.940 . S
H136 C153 0.939 . S
H137 C155 0.941 . S
H138 C159 0.939 1_455 S
O139 P128 1.490 . S
H140 C156 0.939 . S
H141 C158 0.940 . S
C142 P128 1.812 . S
C142 C143 1.389 . S
C142 C147 1.391 1_655 S
C143 H129 0.941 . S
C143 C142 1.389 . S
C143 C144 1.397 . S
C144 H130 0.939 . S
C144 C143 1.397 . S
C144 C145 1.378 . S
C145 C144 1.378 . S
C145 C146 1.378 1_655 S
C146 H131 0.940 . S
C146 C145 1.378 1_455 S
C146 C147 1.396 . S
C147 H132 0.940 . S
C147 C142 1.391 1_455 S
C147 C146 1.396 . S
C148 P128 1.803 . S
C148 C149 1.378 . S
C148 C153 1.400 1_655 S
C149 H133 0.939 . S
C149 C148 1.378 . S
C149 C150 1.361 . S
C150 H134 0.942 . S
C150 C149 1.361 . S
C150 C151 1.369 . S
C151 C150 1.369 . S
C151 C152 1.404 1_655 S
C152 H135 0.940 . S
C152 C151 1.404 1_455 S
C152 C153 1.389 . S
C153 H136 0.939 . S
C153 C148 1.400 1_455 S
C153 C152 1.389 . S
C154 P128 1.819 . S
C154 C155 1.391 . S
C154 C159 1.391 . S
C155 H137 0.941 . S
C155 C154 1.391 . S
C155 C156 1.396 . S
C156 H140 0.939 . S
C156 C155 1.396 . S
C156 C157 1.397 . S
C157 C156 1.397 . S
C157 C158 1.385 1_655 S
C158 H141 0.940 . S
C158 C157 1.385 1_455 S
C158 C159 1.388 1_455 S
C159 H138 0.939 1_655 S
C159 C154 1.391 . S
C159 C158 1.388 1_655 S
P160 O171 1.490 . S
P160 C174 1.812 . S
P160 C180 1.803 . S
P160 C186 1.819 . S
H161 C175 0.941 . S
H162 C176 0.939 . S
H163 C178 0.940 . S
H164 C179 0.940 . S
H165 C181 0.939 . S
H166 C182 0.942 . S
H167 C184 0.940 . S
H168 C185 0.939 . S
H169 C187 0.941 . S
H170 C191 0.939 1_545 S
O171 P160 1.490 . S
H172 C188 0.939 . S
H173 C190 0.940 . S
C174 P160 1.812 . S
C174 C175 1.389 . S
C174 C179 1.391 1_565 S
C175 H161 0.941 . S
C175 C174 1.389 . S
C175 C176 1.397 . S
C176 H162 0.939 . S
C176 C175 1.397 . S
C176 C177 1.378 . S
C177 C176 1.378 . S
C177 C178 1.378 1_565 S
C178 H163 0.940 . S
C178 C177 1.378 1_545 S
C178 C179 1.396 . S
C179 H164 0.940 . S
C179 C174 1.391 1_545 S
C179 C178 1.396 . S
C180 P160 1.803 . S
C180 C181 1.378 . S
C180 C185 1.400 1_565 S
C181 H165 0.939 . S
C181 C180 1.378 . S
C181 C182 1.361 . S
C182 H166 0.942 . S
C182 C181 1.361 . S
C182 C183 1.369 . S
C183 C182 1.369 . S
C183 C184 1.404 1_565 S
C184 H167 0.940 . S
C184 C183 1.404 1_545 S
C184 C185 1.389 . S
C185 H168 0.939 . S
C185 C180 1.400 1_545 S
C185 C184 1.389 . S
C186 P160 1.819 . S
C186 C187 1.391 . S
C186 C191 1.391 . S
C187 H169 0.941 . S
C187 C186 1.391 . S
C187 C188 1.396 . S
C188 H172 0.939 . S
C188 C187 1.396 . S
C188 C189 1.397 . S
C189 C188 1.397 . S
C189 C190 1.385 1_565 S
C190 H173 0.940 . S
C190 C189 1.385 1_545 S
C190 C191 1.388 1_545 S
C191 H170 0.939 1_565 S
C191 C186 1.391 . S
C191 C190 1.388 1_565 S
P192 O203 1.490 . S
P192 C206 1.812 . S
P192 C212 1.803 . S
P192 C218 1.819 . S
H193 C207 0.941 . S
H194 C208 0.939 . S
H195 C210 0.940 . S
H196 C211 0.940 1_655 S
H197 C213 0.939 . S
H198 C214 0.942 . S
H199 C216 0.940 . S
H200 C217 0.939 1_655 S
H201 C219 0.941 . S
H202 C223 0.939 . S
O203 P192 1.490 . S
H204 C220 0.939 . S
H205 C222 0.940 . S
C206 P192 1.812 . S
C206 C207 1.389 . S
C206 C211 1.391 . S
C207 H193 0.941 . S
C207 C206 1.389 . S
C207 C208 1.397 . S
C208 H194 0.939 . S
C208 C207 1.397 . S
C208 C209 1.378 . S
C209 C208 1.378 . S
C209 C210 1.378 1_455 S
C210 H195 0.940 . S
C210 C209 1.378 1_655 S
C210 C211 1.396 1_655 S
C211 H196 0.940 1_455 S
C211 C206 1.391 . S
C211 C210 1.396 1_455 S
C212 P192 1.803 . S
C212 C213 1.378 . S
C212 C217 1.400 . S
C213 H197 0.939 . S
C213 C212 1.378 . S
C213 C214 1.361 . S
C214 H198 0.942 . S
C214 C213 1.361 . S
C214 C215 1.369 . S
C215 C214 1.369 . S
C215 C216 1.404 1_455 S
C216 H199 0.940 . S
C216 C215 1.404 1_655 S
C216 C217 1.389 1_655 S
C217 H200 0.939 1_455 S
C217 C212 1.400 . S
C217 C216 1.389 1_455 S
C218 P192 1.819 . S
C218 C219 1.391 . S
C218 C223 1.391 . S
C219 H201 0.941 . S
C219 C218 1.391 . S
C219 C220 1.396 . S
C220 H204 0.939 . S
C220 C219 1.396 . S
C220 C221 1.397 . S
C221 C220 1.397 . S
C221 C222 1.385 1_455 S
C222 H205 0.940 . S
C222 C221 1.385 1_655 S
C222 C223 1.388 1_655 S
C223 H202 0.939 . S
C223 C218 1.391 . S
C223 C222 1.388 1_455 S
P224 O235 1.490 . S
P224 C238 1.812 . S
P224 C244 1.803 . S
P224 C250 1.819 . S
H225 C239 0.941 . S
H226 C240 0.939 . S
H227 C242 0.940 . S
H228 C243 0.940 1_565 S
H229 C245 0.939 . S
H230 C246 0.942 . S
H231 C248 0.940 . S
H232 C249 0.929 1_565 S
H233 C251 0.941 . S
H234 C255 0.947 . S
O235 P224 1.490 . S
H236 C252 0.939 . S
H237 C254 0.940 . S
C238 P224 1.812 . S
C238 C239 1.389 . S
C238 C243 1.391 . S
C239 H225 0.941 . S
C239 C238 1.389 . S
C239 C240 1.397 . S
C240 H226 0.939 . S
C240 C239 1.397 . S
C240 C241 1.378 . S
C241 C240 1.378 . S
C241 C242 1.378 1_545 S
C242 H227 0.940 . S
C242 C241 1.378 1_565 S
C242 C243 1.396 1_565 S
C243 H228 0.940 1_545 S
C243 C238 1.391 . S
C243 C242 1.396 1_545 S
C244 P224 1.803 . S
C244 C245 1.378 . S
C244 C249 1.417 . S
C245 H229 0.939 . S
C245 C244 1.378 . S
C245 C246 1.361 . S
C246 H230 0.942 . S
C246 C245 1.361 . S
C246 C247 1.369 . S
C247 C246 1.369 . S
C247 C248 1.404 1_545 S
C248 H231 0.940 . S
C248 C247 1.404 1_565 S
C248 C249 1.383 1_565 S
C249 H232 0.929 1_545 S
C249 C244 1.417 . S
C249 C248 1.383 1_545 S
C250 P224 1.819 . S
C250 C251 1.391 . S
C250 C255 1.391 . S
C251 H233 0.941 . S
C251 C250 1.391 . S
C251 C252 1.396 . S
C252 H236 0.939 . S
C252 C251 1.396 . S
C252 C253 1.397 . S
C253 C252 1.397 . S
C253 C254 1.385 1_545 S
C254 H237 0.940 . S
C254 C253 1.385 1_565 S
C254 C255 1.388 1_565 S
C255 H234 0.947 . S
C255 C250 1.391 . S
C255 C254 1.388 1_545 S
P256 O267 1.490 . S
P256 C270 1.812 . S
P256 C276 1.803 . S
P256 C282 1.819 . S
H257 C271 0.941 . S
H258 C272 0.939 . S
H259 C274 0.940 . S
H260 C275 0.956 . S
H261 C277 0.939 . S
H262 C278 0.942 . S
H263 C280 0.940 . S
H264 C281 0.939 . S
H265 C283 0.941 . S
H266 C287 0.939 1_554 S
O267 P256 1.490 . S
H268 C284 0.939 . S
H269 C286 0.940 . S
C270 P256 1.812 . S
C270 C271 1.389 . S
C270 C275 1.366 1_556 S
C271 H257 0.941 . S
C271 C270 1.389 . S
C271 C272 1.397 . S
C272 H258 0.939 . S
C272 C271 1.397 . S
C272 C273 1.378 . S
C273 C272 1.378 . S
C273 C274 1.378 1_556 S
C274 H259 0.940 . S
C274 C273 1.378 1_554 S
C274 C275 1.406 . S
C275 H260 0.956 . S
C275 C270 1.366 1_554 S
C275 C274 1.406 . S
C276 P256 1.803 . S
C276 C277 1.378 . S
C276 C281 1.400 1_556 S
C277 H261 0.939 . S
C277 C276 1.378 . S
C277 C278 1.361 . S
C278 H262 0.942 . S
C278 C277 1.361 . S
C278 C279 1.369 . S
C279 C278 1.369 . S
C279 C280 1.404 1_556 S
C280 H263 0.940 . S
C280 C279 1.404 1_554 S
C280 C281 1.389 . S
C281 H264 0.939 . S
C281 C276 1.400 1_554 S
C281 C280 1.389 . S
C282 P256 1.819 . S
C282 C283 1.391 . S
C282 C287 1.391 . S
C283 H265 0.941 . S
C283 C282 1.391 . S
C283 C284 1.396 . S
C284 H268 0.939 . S
C284 C283 1.396 . S
C284 C285 1.397 . S
C285 C284 1.397 . S
C285 C286 1.385 1_556 S
C286 H269 0.940 . S
C286 C285 1.385 1_554 S
C286 C287 1.388 1_554 S
C287 H266 0.939 1_556 S
C287 C282 1.391 . S
C287 C286 1.388 1_556 S
P288 O299 1.490 . S
P288 C302 1.812 . S
P288 C308 1.803 . S
P288 C314 1.819 . S
H289 C303 0.941 . S
H290 C304 0.939 . S
H291 C306 0.940 . S
H292 C307 0.957 . S
H293 C309 0.939 . S
H294 C310 0.942 . S
H295 C312 0.940 . S
H296 C313 0.939 . S
H297 C315 0.941 . S
H298 C319 0.939 1_554 S
O299 P288 1.490 . S
H300 C316 0.939 . S
H301 C318 0.940 . S
C302 P288 1.812 . S
C302 C303 1.389 . S
C302 C307 1.365 1_556 S
C303 H289 0.941 . S
C303 C302 1.389 . S
C303 C304 1.397 . S
C304 H290 0.939 . S
C304 C303 1.397 . S
C304 C305 1.378 . S
C305 C304 1.378 . S
C305 C306 1.378 1_556 S
C306 H291 0.940 . S
C306 C305 1.378 1_554 S
C306 C307 1.407 . S
C307 H292 0.957 . S
C307 C302 1.365 1_554 S
C307 C306 1.407 . S
C308 P288 1.803 . S
C308 C309 1.378 . S
C308 C313 1.400 1_556 S
C309 H293 0.939 . S
C309 C308 1.378 . S
C309 C310 1.361 . S
C310 H294 0.942 . S
C310 C309 1.361 . S
C310 C311 1.369 . S
C311 C310 1.369 . S
C311 C312 1.404 1_556 S
C312 H295 0.940 . S
C312 C311 1.404 1_554 S
C312 C313 1.389 . S
C313 H296 0.939 . S
C313 C308 1.400 1_554 S
C313 C312 1.389 . S
C314 P288 1.819 . S
C314 C315 1.391 . S
C314 C319 1.391 . S
C315 H297 0.941 . S
C315 C314 1.391 . S
C315 C316 1.396 . S
C316 H300 0.939 . S
C316 C315 1.396 . S
C316 C317 1.397 . S
C317 C316 1.397 . S
C317 C318 1.385 1_556 S
C318 H301 0.940 . S
C318 C317 1.385 1_554 S
C318 C319 1.388 1_554 S
C319 H298 0.939 1_556 S
C319 C314 1.391 . S
C319 C318 1.388 1_556 S
P320 O331 1.490 . S
P320 C334 1.812 . S
P320 C340 1.803 . S
P320 C346 1.819 . S
H321 C335 0.941 . S
H322 C336 0.939 . S
H323 C338 0.940 . S
H324 C339 0.955 . S
H325 C341 0.939 . S
H326 C342 0.942 . S
H327 C344 0.940 . S
H328 C345 0.939 . S
H329 C347 0.941 . S
H330 C351 0.939 1_554 S
O331 P320 1.490 . S
H332 C348 0.939 . S
H333 C350 0.940 . S
C334 P320 1.812 . S
C334 C335 1.389 . S
C334 C339 1.367 1_556 S
C335 H321 0.941 . S
C335 C334 1.389 . S
C335 C336 1.397 . S
C336 H322 0.939 . S
C336 C335 1.397 . S
C336 C337 1.378 . S
C337 C336 1.378 . S
C337 C338 1.378 1_556 S
C338 H323 0.940 . S
C338 C337 1.378 1_554 S
C338 C339 1.406 . S
C339 H324 0.955 . S
C339 C334 1.367 1_554 S
C339 C338 1.406 . S
C340 P320 1.803 . S
C340 C341 1.378 . S
C340 C345 1.400 1_556 S
C341 H325 0.939 . S
C341 C340 1.378 . S
C341 C342 1.361 . S
C342 H326 0.942 . S
C342 C341 1.361 . S
C342 C343 1.369 . S
C343 C342 1.369 . S
C343 C344 1.404 1_556 S
C344 H327 0.940 . S
C344 C343 1.404 1_554 S
C344 C345 1.389 . S
C345 H328 0.939 . S
C345 C340 1.400 1_554 S
C345 C344 1.389 . S
C346 P320 1.819 . S
C346 C347 1.391 . S
C346 C351 1.391 . S
C347 H329 0.941 . S
C347 C346 1.391 . S
C347 C348 1.396 . S
C348 H332 0.939 . S
C348 C347 1.396 . S
C348 C349 1.397 . S
C349 C348 1.397 . S
C349 C350 1.385 1_556 S
C350 H333 0.940 . S
C350 C349 1.385 1_554 S
C350 C351 1.388 1_554 S
C351 H330 0.939 1_556 S
C351 C346 1.391 . S
C351 C350 1.388 1_556 S
P352 O363 1.490 . S
P352 C366 1.812 . S
P352 C372 1.803 . S
P352 C378 1.819 . S
H353 C367 0.941 . S
H354 C368 0.939 . S
H355 C370 0.940 . S
H356 C371 0.940 . S
H357 C373 0.939 . S
H358 C374 0.942 . S
H359 C376 0.940 . S
H360 C377 0.950 . S
H361 C379 0.941 . S
H362 C383 0.935 1_556 S
O363 P352 1.490 . S
H364 C380 0.939 . S
H365 C382 0.940 . S
C366 P352 1.812 . S
C366 C367 1.389 . S
C366 C371 1.390 1_554 S
C367 H353 0.941 . S
C367 C366 1.389 . S
C367 C368 1.397 . S
C368 H354 0.939 . S
C368 C367 1.397 . S
C368 C369 1.378 . S
C369 C368 1.378 . S
C369 C370 1.378 1_554 S
C370 H355 0.940 . S
C370 C369 1.378 1_556 S
C370 C371 1.397 . S
C371 H356 0.940 . S
C371 C366 1.390 1_556 S
C371 C370 1.397 . S
C372 P352 1.803 . S
C372 C373 1.378 . S
C372 C377 1.382 1_554 S
C373 H357 0.939 . S
C373 C372 1.378 . S
C373 C374 1.361 . S
C374 H358 0.942 . S
C374 C373 1.361 . S
C374 C375 1.369 . S
C375 C374 1.369 . S
C375 C376 1.404 1_554 S
C376 H359 0.940 . S
C376 C375 1.404 1_556 S
C376 C377 1.396 . S
C377 H360 0.950 . S
C377 C372 1.382 1_556 S
C377 C376 1.396 . S
C378 P352 1.819 . S
C378 C379 1.391 . S
C378 C383 1.391 . S
C379 H361 0.941 . S
C379 C378 1.391 . S
C379 C380 1.396 . S
C380 H364 0.939 . S
C380 C379 1.396 . S
C380 C381 1.397 . S
C381 C380 1.397 . S
C381 C382 1.385 1_554 S
C382 H365 0.940 . S
C382 C381 1.385 1_556 S
C382 C383 1.388 1_556 S
C383 H362 0.935 1_554 S
C383 C378 1.391 . S
C383 C382 1.388 1_554 S
P384 O395 1.490 . S
P384 C398 1.812 . S
P384 C404 1.803 . S
P384 C410 1.819 . S
H385 C399 0.941 . S
H386 C400 0.939 . S
H387 C402 0.940 . S
H388 C403 0.940 . S
H389 C405 0.939 . S
H390 C406 0.942 . S
H391 C408 0.940 . S
H392 C409 0.939 . S
H393 C411 0.941 . S
H394 C415 0.939 . S
O395 P384 1.490 . S
H396 C412 0.939 . S
H397 C414 0.940 . S
C398 P384 1.812 . S
C398 C399 1.389 . S
C398 C403 1.391 . S
C399 H385 0.941 . S
C399 C398 1.389 . S
C399 C400 1.397 . S
C400 H386 0.939 . S
C400 C399 1.397 . S
C400 C401 1.378 . S
C401 C400 1.378 . S
C401 C402 1.378 . S
C402 H387 0.940 . S
C402 C401 1.378 . S
C402 C403 1.396 . S
C403 H388 0.940 . S
C403 C398 1.391 . S
C403 C402 1.396 . S
C404 P384 1.803 . S
C404 C405 1.378 . S
C404 C409 1.400 . S
C405 H389 0.939 . S
C405 C404 1.378 . S
C405 C406 1.361 . S
C406 H390 0.942 . S
C406 C405 1.361 . S
C406 C407 1.369 . S
C407 C406 1.369 . S
C407 C408 1.404 . S
C408 H391 0.940 . S
C408 C407 1.404 . S
C408 C409 1.389 . S
C409 H392 0.939 . S
C409 C404 1.400 . S
C409 C408 1.389 . S
C410 P384 1.819 . S
C410 C411 1.391 . S
C410 C415 1.391 . S
C411 H393 0.941 . S
C411 C410 1.391 . S
C411 C412 1.396 . S
C412 H396 0.939 . S
C412 C411 1.396 . S
C412 C413 1.397 . S
C413 C412 1.397 . S
C413 C414 1.385 . S
C414 H397 0.940 . S
C414 C413 1.385 . S
C414 C415 1.388 . S
C415 H394 0.939 . S
C415 C410 1.391 . S
C415 C414 1.388 . S
P416 O427 1.490 . S
P416 C430 1.812 . S
P416 C436 1.803 . S
P416 C442 1.819 . S
H417 C431 0.941 . S
H418 C432 0.939 . S
H419 C434 0.940 . S
H420 C435 0.940 . S
H421 C437 0.939 . S
H422 C438 0.942 . S
H423 C440 0.940 . S
H424 C441 0.939 . S
H425 C443 0.941 . S
H426 C447 0.939 . S
O427 P416 1.490 . S
H428 C444 0.939 . S
H429 C446 0.940 . S
C430 P416 1.812 . S
C430 C431 1.389 . S
C430 C435 1.391 . S
C431 H417 0.941 . S
C431 C430 1.389 . S
C431 C432 1.397 . S
C432 H418 0.939 . S
C432 C431 1.397 . S
C432 C433 1.378 . S
C433 C432 1.378 . S
C433 C434 1.378 . S
C434 H419 0.940 . S
C434 C433 1.378 . S
C434 C435 1.396 . S
C435 H420 0.940 . S
C435 C430 1.391 . S
C435 C434 1.396 . S
C436 P416 1.803 . S
C436 C437 1.378 . S
C436 C441 1.400 . S
C437 H421 0.939 . S
C437 C436 1.378 . S
C437 C438 1.361 . S
C438 H422 0.942 . S
C438 C437 1.361 . S
C438 C439 1.369 . S
C439 C438 1.369 . S
C439 C440 1.404 . S
C440 H423 0.940 . S
C440 C439 1.404 . S
C440 C441 1.389 . S
C441 H424 0.939 . S
C441 C436 1.400 . S
C441 C440 1.389 . S
C442 P416 1.819 . S
C442 C443 1.391 . S
C442 C447 1.391 . S
C443 H425 0.941 . S
C443 C442 1.391 . S
C443 C444 1.396 . S
C444 H428 0.939 . S
C444 C443 1.396 . S
C444 C445 1.397 . S
C445 C444 1.397 . S
C445 C446 1.385 . S
C446 H429 0.940 . S
C446 C445 1.385 . S
C446 C447 1.388 . S
C447 H426 0.939 . S
C447 C442 1.391 . S
C447 C446 1.388 . S
P448 O459 1.490 . S
P448 C462 1.812 . S
P448 C468 1.803 . S
P448 C474 1.819 . S
H449 C463 0.941 . S
H450 C464 0.939 . S
H451 C466 0.940 . S
H452 C467 0.940 . S
H453 C469 0.939 . S
H454 C470 0.942 . S
H455 C472 0.940 . S
H456 C473 0.939 . S
H457 C475 0.941 . S
H458 C479 0.939 . S
O459 P448 1.490 . S
H460 C476 0.939 . S
H461 C478 0.940 . S
C462 P448 1.812 . S
C462 C463 1.389 . S
C462 C467 1.391 . S
C463 H449 0.941 . S
C463 C462 1.389 . S
C463 C464 1.397 . S
C464 H450 0.939 . S
C464 C463 1.397 . S
C464 C465 1.378 . S
C465 C464 1.378 . S
C465 C466 1.378 . S
C466 H451 0.940 . S
C466 C465 1.378 . S
C466 C467 1.396 . S
C467 H452 0.940 . S
C467 C462 1.391 . S
C467 C466 1.396 . S
C468 P448 1.803 . S
C468 C469 1.378 . S
C468 C473 1.400 . S
C469 H453 0.939 . S
C469 C468 1.378 . S
C469 C470 1.361 . S
C470 H454 0.942 . S
C470 C469 1.361 . S
C470 C471 1.369 . S
C471 C470 1.369 . S
C471 C472 1.404 . S
C472 H455 0.940 . S
C472 C471 1.404 . S
C472 C473 1.389 . S
C473 H456 0.939 . S
C473 C468 1.400 . S
C473 C472 1.389 . S
C474 P448 1.819 . S
C474 C475 1.391 . S
C474 C479 1.391 . S
C475 H457 0.941 . S
C475 C474 1.391 . S
C475 C476 1.396 . S
C476 H460 0.939 . S
C476 C475 1.396 . S
C476 C477 1.397 . S
C477 C476 1.397 . S
C477 C478 1.385 . S
C478 H461 0.940 . S
C478 C477 1.385 . S
C478 C479 1.388 . S
C479 H458 0.939 . S
C479 C474 1.391 . S
C479 C478 1.388 . S
P480 O491 1.490 . S
P480 C494 1.812 . S
P480 C500 1.803 . S
P480 C506 1.819 . S
H481 C495 0.941 . S
H482 C496 0.939 . S
H483 C498 0.940 . S
H484 C499 0.940 . S
H485 C501 0.939 . S
H486 C502 0.942 . S
H487 C504 0.940 . S
H488 C505 0.939 . S
H489 C507 0.941 . S
H490 C511 0.939 . S
O491 P480 1.490 . S
H492 C508 0.939 . S
H493 C510 0.940 . S
C494 P480 1.812 . S
C494 C495 1.389 . S
C494 C499 1.391 . S
C495 H481 0.941 . S
C495 C494 1.389 . S
C495 C496 1.397 . S
C496 H482 0.939 . S
C496 C495 1.397 . S
C496 C497 1.378 . S
C497 C496 1.378 . S
C497 C498 1.378 . S
C498 H483 0.940 . S
C498 C497 1.378 . S
C498 C499 1.396 . S
C499 H484 0.940 . S
C499 C494 1.391 . S
C499 C498 1.396 . S
C500 P480 1.803 . S
C500 C501 1.378 . S
C500 C505 1.400 . S
C501 H485 0.939 . S
C501 C500 1.378 . S
C501 C502 1.361 . S
C502 H486 0.942 . S
C502 C501 1.361 . S
C502 C503 1.369 . S
C503 C502 1.369 . S
C503 C504 1.404 . S
C504 H487 0.940 . S
C504 C503 1.404 . S
C504 C505 1.389 . S
C505 H488 0.939 . S
C505 C500 1.400 . S
C505 C504 1.389 . S
C506 P480 1.819 . S
C506 C507 1.391 . S
C506 C511 1.391 . S
C507 H489 0.941 . S
C507 C506 1.391 . S
C507 C508 1.396 . S
C508 H492 0.939 . S
C508 C507 1.396 . S
C508 C509 1.397 . S
C509 C508 1.397 . S
C509 C510 1.385 . S
C510 H493 0.940 . S
C510 C509 1.385 . S
C510 C511 1.388 . S
C511 H490 0.939 . S
C511 C506 1.391 . S
C511 C510 1.388 . S
P512 O523 1.490 . S
P512 C526 1.812 . S
P512 C532 1.803 . S
P512 C538 1.819 . S
H513 C527 0.941 . S
H514 C528 0.939 . S
H515 C530 0.940 . S
H516 C531 0.940 . S
H517 C533 0.939 . S
H518 C534 0.942 . S
H519 C536 0.940 . S
H520 C537 0.939 . S
H521 C539 0.941 . S
H522 C543 0.939 . S
O523 P512 1.490 . S
H524 C540 0.939 . S
H525 C542 0.940 . S
C526 P512 1.812 . S
C526 C527 1.389 . S
C526 C531 1.391 . S
C527 H513 0.941 . S
C527 C526 1.389 . S
C527 C528 1.397 . S
C528 H514 0.939 . S
C528 C527 1.397 . S
C528 C529 1.378 . S
C529 C528 1.378 . S
C529 C530 1.378 . S
C530 H515 0.940 . S
C530 C529 1.378 . S
C530 C531 1.396 . S
C531 H516 0.940 . S
C531 C526 1.391 . S
C531 C530 1.396 . S
C532 P512 1.803 . S
C532 C533 1.378 . S
C532 C537 1.400 . S
C533 H517 0.939 . S
C533 C532 1.378 . S
C533 C534 1.361 . S
C534 H518 0.942 . S
C534 C533 1.361 . S
C534 C535 1.369 . S
C535 C534 1.369 . S
C535 C536 1.404 . S
C536 H519 0.940 . S
C536 C535 1.404 . S
C536 C537 1.389 . S
C537 H520 0.939 . S
C537 C532 1.400 . S
C537 C536 1.389 . S
C538 P512 1.819 . S
C538 C539 1.391 . S
C538 C543 1.391 . S
C539 H521 0.941 . S
C539 C538 1.391 . S
C539 C540 1.396 . S
C540 H524 0.939 . S
C540 C539 1.396 . S
C540 C541 1.397 . S
C541 C540 1.397 . S
C541 C542 1.385 . S
C542 H525 0.940 . S
C542 C541 1.385 . S
C542 C543 1.388 . S
C543 H522 0.939 . S
C543 C538 1.391 . S
C543 C542 1.388 . S
P544 O555 1.490 . S
P544 C558 1.812 . S
P544 C564 1.803 . S
P544 C570 1.819 . S
H545 C559 0.941 . S
H546 C560 0.939 . S
H547 C562 0.940 . S
H548 C563 0.940 . S
H549 C565 0.939 . S
H550 C566 0.942 . S
H551 C568 0.940 . S
H552 C569 0.939 . S
H553 C571 0.941 . S
H554 C575 0.939 . S
O555 P544 1.490 . S
H556 C572 0.939 . S
H557 C574 0.940 . S
C558 P544 1.812 . S
C558 C559 1.389 . S
C558 C563 1.391 . S
C559 H545 0.941 . S
C559 C558 1.389 . S
C559 C560 1.397 . S
C560 H546 0.939 . S
C560 C559 1.397 . S
C560 C561 1.378 . S
C561 C560 1.378 . S
C561 C562 1.378 . S
C562 H547 0.940 . S
C562 C561 1.378 . S
C562 C563 1.396 . S
C563 H548 0.940 . S
C563 C558 1.391 . S
C563 C562 1.396 . S
C564 P544 1.803 . S
C564 C565 1.378 . S
C564 C569 1.400 . S
C565 H549 0.939 . S
C565 C564 1.378 . S
C565 C566 1.361 . S
C566 H550 0.942 . S
C566 C565 1.361 . S
C566 C567 1.369 . S
C567 C566 1.369 . S
C567 C568 1.404 . S
C568 H551 0.940 . S
C568 C567 1.404 . S
C568 C569 1.389 . S
C569 H552 0.939 . S
C569 C564 1.400 . S
C569 C568 1.389 . S
C570 P544 1.819 . S
C570 C571 1.391 . S
C570 C575 1.391 . S
C571 H553 0.941 . S
C571 C570 1.391 . S
C571 C572 1.396 . S
C572 H556 0.939 . S
C572 C571 1.396 . S
C572 C573 1.397 . S
C573 C572 1.397 . S
C573 C574 1.385 . S
C574 H557 0.940 . S
C574 C573 1.385 . S
C574 C575 1.388 . S
C575 H554 0.939 . S
C575 C570 1.391 . S
C575 C574 1.388 . S
P576 O587 1.490 . S
P576 C590 1.812 . S
P576 C596 1.803 . S
P576 C602 1.819 . S
H577 C591 0.941 . S
H578 C592 0.939 . S
H579 C594 0.940 . S
H580 C595 0.940 . S
H581 C597 0.939 . S
H582 C598 0.942 . S
H583 C600 0.940 . S
H584 C601 0.939 . S
H585 C603 0.941 . S
H586 C607 0.939 . S
O587 P576 1.490 . S
H588 C604 0.939 . S
H589 C606 0.940 . S
C590 P576 1.812 . S
C590 C591 1.389 . S
C590 C595 1.391 . S
C591 H577 0.941 . S
C591 C590 1.389 . S
C591 C592 1.397 . S
C592 H578 0.939 . S
C592 C591 1.397 . S
C592 C593 1.378 . S
C593 C592 1.378 . S
C593 C594 1.378 . S
C594 H579 0.940 . S
C594 C593 1.378 . S
C594 C595 1.396 . S
C595 H580 0.940 . S
C595 C590 1.391 . S
C595 C594 1.396 . S
C596 P576 1.803 . S
C596 C597 1.378 . S
C596 C601 1.400 . S
C597 H581 0.939 . S
C597 C596 1.378 . S
C597 C598 1.361 . S
C598 H582 0.942 . S
C598 C597 1.361 . S
C598 C599 1.369 . S
C599 C598 1.369 . S
C599 C600 1.404 . S
C600 H583 0.940 . S
C600 C599 1.404 . S
C600 C601 1.389 . S
C601 H584 0.939 . S
C601 C596 1.400 . S
C601 C600 1.389 . S
C602 P576 1.819 . S
C602 C603 1.391 . S
C602 C607 1.391 . S
C603 H585 0.941 . S
C603 C602 1.391 . S
C603 C604 1.396 . S
C604 H588 0.939 . S
C604 C603 1.396 . S
C604 C605 1.397 . S
C605 C604 1.397 . S
C605 C606 1.385 . S
C606 H589 0.940 . S
C606 C605 1.385 . S
C606 C607 1.388 . S
C607 H586 0.939 . S
C607 C602 1.391 . S
C607 C606 1.388 . S
P608 O619 1.490 . S
P608 C622 1.812 . S
P608 C628 1.803 . S
P608 C634 1.819 . S
H609 C623 0.941 . S
H610 C624 0.939 . S
H611 C626 0.940 . S
H612 C627 0.940 . S
H613 C629 0.939 . S
H614 C630 0.942 . S
H615 C632 0.940 . S
H616 C633 0.939 . S
H617 C635 0.941 . S
H618 C639 0.939 . S
O619 P608 1.490 . S
H620 C636 0.939 . S
H621 C638 0.940 . S
C622 P608 1.812 . S
C622 C623 1.389 . S
C622 C627 1.391 . S
C623 H609 0.941 . S
C623 C622 1.389 . S
C623 C624 1.397 . S
C624 H610 0.939 . S
C624 C623 1.397 . S
C624 C625 1.378 . S
C625 C624 1.378 . S
C625 C626 1.378 . S
C626 H611 0.940 . S
C626 C625 1.378 . S
C626 C627 1.396 . S
C627 H612 0.940 . S
C627 C622 1.391 . S
C627 C626 1.396 . S
C628 P608 1.803 . S
C628 C629 1.378 . S
C628 C633 1.400 . S
C629 H613 0.939 . S
C629 C628 1.378 . S
C629 C630 1.361 . S
C630 H614 0.942 . S
C630 C629 1.361 . S
C630 C631 1.369 . S
C631 C630 1.369 . S
C631 C632 1.404 . S
C632 H615 0.940 . S
C632 C631 1.404 . S
C632 C633 1.389 . S
C633 H616 0.939 . S
C633 C628 1.400 . S
C633 C632 1.389 . S
C634 P608 1.819 . S
C634 C635 1.391 . S
C634 C639 1.391 . S
C635 H617 0.941 . S
C635 C634 1.391 . S
C635 C636 1.396 . S
C636 H620 0.939 . S
C636 C635 1.396 . S
C636 C637 1.397 . S
C637 C636 1.397 . S
C637 C638 1.385 . S
C638 H621 0.940 . S
C638 C637 1.385 . S
C638 C639 1.388 . S
C639 H618 0.939 . S
C639 C634 1.391 . S
C639 C638 1.388 . S
P640 O651 1.490 . S
P640 C654 1.812 . S
P640 C660 1.803 . S
P640 C666 1.819 . S
H641 C655 0.941 . S
H642 C656 0.939 . S
H643 C658 0.940 . S
H644 C659 0.940 . S
H645 C661 0.939 . S
H646 C662 0.942 . S
H647 C664 0.940 . S
H648 C665 0.939 . S
H649 C667 0.941 . S
H650 C671 0.939 . S
O651 P640 1.490 . S
H652 C668 0.939 . S
H653 C670 0.940 . S
C654 P640 1.812 . S
C654 C655 1.389 . S
C654 C659 1.391 . S
C655 H641 0.941 . S
C655 C654 1.389 . S
C655 C656 1.397 . S
C656 H642 0.939 . S
C656 C655 1.397 . S
C656 C657 1.378 . S
C657 C656 1.378 . S
C657 C658 1.378 . S
C658 H643 0.940 . S
C658 C657 1.378 . S
C658 C659 1.396 . S
C659 H644 0.940 . S
C659 C654 1.391 . S
C659 C658 1.396 . S
C660 P640 1.803 . S
C660 C661 1.378 . S
C660 C665 1.400 . S
C661 H645 0.939 . S
C661 C660 1.378 . S
C661 C662 1.361 . S
C662 H646 0.942 . S
C662 C661 1.361 . S
C662 C663 1.369 . S
C663 C662 1.369 . S
C663 C664 1.404 . S
C664 H647 0.940 . S
C664 C663 1.404 . S
C664 C665 1.389 . S
C665 H648 0.939 . S
C665 C660 1.400 . S
C665 C664 1.389 . S
C666 P640 1.819 . S
C666 C667 1.391 . S
C666 C671 1.391 . S
C667 H649 0.941 . S
C667 C666 1.391 . S
C667 C668 1.396 . S
C668 H652 0.939 . S
C668 C667 1.396 . S
C668 C669 1.397 . S
C669 C668 1.397 . S
C669 C670 1.385 . S
C670 H653 0.940 . S
C670 C669 1.385 . S
C670 C671 1.388 . S
C671 H650 0.939 . S
C671 C666 1.391 . S
C671 C670 1.388 . S
P672 O683 1.490 . S
P672 C686 1.812 . S
P672 C692 1.803 . S
P672 C698 1.819 . S
H673 C687 0.941 . S
H674 C688 0.939 . S
H675 C690 0.940 . S
H676 C691 0.940 . S
H677 C693 0.939 . S
H678 C694 0.942 . S
H679 C696 0.940 . S
H680 C697 0.939 . S
H681 C699 0.941 . S
H682 C703 0.939 . S
O683 P672 1.490 . S
H684 C700 0.939 . S
H685 C702 0.940 . S
C686 P672 1.812 . S
C686 C687 1.389 . S
C686 C691 1.391 . S
C687 H673 0.941 . S
C687 C686 1.389 . S
C687 C688 1.397 . S
C688 H674 0.939 . S
C688 C687 1.397 . S
C688 C689 1.378 . S
C689 C688 1.378 . S
C689 C690 1.378 . S
C690 H675 0.940 . S
C690 C689 1.378 . S
C690 C691 1.396 . S
C691 H676 0.940 . S
C691 C686 1.391 . S
C691 C690 1.396 . S
C692 P672 1.803 . S
C692 C693 1.378 . S
C692 C697 1.400 . S
C693 H677 0.939 . S
C693 C692 1.378 . S
C693 C694 1.361 . S
C694 H678 0.942 . S
C694 C693 1.361 . S
C694 C695 1.369 . S
C695 C694 1.369 . S
C695 C696 1.404 . S
C696 H679 0.940 . S
C696 C695 1.404 . S
C696 C697 1.389 . S
C697 H680 0.939 . S
C697 C692 1.400 . S
C697 C696 1.389 . S
C698 P672 1.819 . S
C698 C699 1.391 . S
C698 C703 1.391 . S
C699 H681 0.941 . S
C699 C698 1.391 . S
C699 C700 1.396 . S
C700 H684 0.939 . S
C700 C699 1.396 . S
C700 C701 1.397 . S
C701 C700 1.397 . S
C701 C702 1.385 . S
C702 H685 0.940 . S
C702 C701 1.385 . S
C702 C703 1.388 . S
C703 H682 0.939 . S
C703 C698 1.391 . S
C703 C702 1.388 . S
P704 O715 1.490 . S
P704 C718 1.812 . S
P704 C724 1.803 . S
P704 C730 1.819 . S
H705 C719 0.941 . S
H706 C720 0.939 . S
H707 C722 0.940 . S
H708 C723 0.940 . S
H709 C725 0.939 . S
H710 C726 0.942 . S
H711 C728 0.940 . S
H712 C729 0.939 . S
H713 C731 0.941 . S
H714 C735 0.939 . S
O715 P704 1.490 . S
H716 C732 0.939 . S
H717 C734 0.940 . S
C718 P704 1.812 . S
C718 C719 1.389 . S
C718 C723 1.391 . S
C719 H705 0.941 . S
C719 C718 1.389 . S
C719 C720 1.397 . S
C720 H706 0.939 . S
C720 C719 1.397 . S
C720 C721 1.378 . S
C721 C720 1.378 . S
C721 C722 1.378 . S
C722 H707 0.940 . S
C722 C721 1.378 . S
C722 C723 1.396 . S
C723 H708 0.940 . S
C723 C718 1.391 . S
C723 C722 1.396 . S
C724 P704 1.803 . S
C724 C725 1.378 . S
C724 C729 1.400 . S
C725 H709 0.939 . S
C725 C724 1.378 . S
C725 C726 1.361 . S
C726 H710 0.942 . S
C726 C725 1.361 . S
C726 C727 1.369 . S
C727 C726 1.369 . S
C727 C728 1.404 . S
C728 H711 0.940 . S
C728 C727 1.404 . S
C728 C729 1.389 . S
C729 H712 0.939 . S
C729 C724 1.400 . S
C729 C728 1.389 . S
C730 P704 1.819 . S
C730 C731 1.391 . S
C730 C735 1.391 . S
C731 H713 0.941 . S
C731 C730 1.391 . S
C731 C732 1.396 . S
C732 H716 0.939 . S
C732 C731 1.396 . S
C732 C733 1.397 . S
C733 C732 1.397 . S
C733 C734 1.385 . S
C734 H717 0.940 . S
C734 C733 1.385 . S
C734 C735 1.388 . S
C735 H714 0.939 . S
C735 C730 1.391 . S
C735 C734 1.388 . S
P736 O747 1.490 . S
P736 C750 1.812 . S
P736 C756 1.803 . S
P736 C762 1.819 . S
H737 C751 0.941 . S
H738 C752 0.939 . S
H739 C754 0.940 . S
H740 C755 0.940 . S
H741 C757 0.939 . S
H742 C758 0.942 . S
H743 C760 0.940 . S
H744 C761 0.939 . S
H745 C763 0.941 . S
H746 C767 0.939 . S
O747 P736 1.490 . S
H748 C764 0.939 . S
H749 C766 0.940 . S
C750 P736 1.812 . S
C750 C751 1.389 . S
C750 C755 1.391 . S
C751 H737 0.941 . S
C751 C750 1.389 . S
C751 C752 1.397 . S
C752 H738 0.939 . S
C752 C751 1.397 . S
C752 C753 1.378 . S
C753 C752 1.378 . S
C753 C754 1.378 . S
C754 H739 0.940 . S
C754 C753 1.378 . S
C754 C755 1.396 . S
C755 H740 0.940 . S
C755 C750 1.391 . S
C755 C754 1.396 . S
C756 P736 1.803 . S
C756 C757 1.378 . S
C756 C761 1.400 . S
C757 H741 0.939 . S
C757 C756 1.378 . S
C757 C758 1.361 . S
C758 H742 0.942 . S
C758 C757 1.361 . S
C758 C759 1.369 . S
C759 C758 1.369 . S
C759 C760 1.404 . S
C760 H743 0.940 . S
C760 C759 1.404 . S
C760 C761 1.389 . S
C761 H744 0.939 . S
C761 C756 1.400 . S
C761 C760 1.389 . S
C762 P736 1.819 . S
C762 C763 1.391 . S
C762 C767 1.391 . S
C763 H745 0.941 . S
C763 C762 1.391 . S
C763 C764 1.396 . S
C764 H748 0.939 . S
C764 C763 1.396 . S
C764 C765 1.397 . S
C765 C764 1.397 . S
C765 C766 1.385 . S
C766 H749 0.940 . S
C766 C765 1.385 . S
C766 C767 1.388 . S
C767 H746 0.939 . S
C767 C762 1.391 . S
C767 C766 1.388 . S
C768 O794 1.283 . S
C768 O812 1.283 . S
C769 O795 1.283 . S
C769 O810 1.283 . S
C770 O796 1.283 . S
C770 O813 1.283 . S
C771 O797 1.283 . S
C771 O811 1.283 . S
C772 O798 1.283 . S
C772 O807 1.283 . S
C773 O799 1.283 . S
C773 O809 1.283 . S
C774 O800 1.283 . S
C774 O806 1.283 . S
C775 O801 1.283 . S
C775 O808 1.283 . S
C776 O802 1.283 . S
C776 O817 1.283 . S
C777 O803 1.283 . S
C777 O815 1.283 . S
C778 O804 1.283 . S
C778 O816 1.283 . S
C779 O805 1.283 . S
C779 O814 1.283 . S
Eu780 O781 2.370 1_455 S
Eu780 O782 2.370 . S
Eu780 O785 2.370 1_455 S
Eu780 O786 2.370 . S
Eu780 O794 2.363 . S
Eu780 O795 2.363 . S
Eu780 O808 2.363 . S
Eu780 O809 2.363 1_455 S
O781 Eu780 2.370 1_655 S
O781 Eu783 2.370 1_565 S
O781 Eu788 2.370 1_665 S
O782 Eu780 2.370 . S
O782 Eu784 2.370 1_565 S
O782 Eu787 2.370 1_565 S
Eu783 O781 2.370 1_545 S
Eu783 O785 2.370 1_545 S
Eu783 O789 2.370 . S
Eu783 O790 2.370 . S
Eu783 O798 2.363 . S
Eu783 O799 2.363 1_545 S
Eu783 O814 2.363 . S
Eu783 O815 2.363 . S
Eu784 O782 2.370 1_545 S
Eu784 O786 2.370 1_545 S
Eu784 O791 2.370 . S
Eu784 O792 2.370 . S
Eu784 O800 2.363 . S
Eu784 O801 2.363 1_545 S
Eu784 O816 2.363 . S
Eu784 O817 2.363 . S
O785 Eu780 2.370 1_655 S
O785 Eu783 2.370 1_565 S
O785 Eu787 2.370 1_665 S
O786 Eu780 2.370 . S
O786 Eu784 2.370 1_565 S
O786 Eu788 2.370 1_565 S
Eu787 O782 2.370 1_545 S
Eu787 O785 2.370 1_445 S
Eu787 O789 2.370 1_455 S
Eu787 O792 2.370 . S
Eu787 O804 2.363 . S
Eu787 O805 2.363 1_455 S
Eu787 O812 2.363 1_545 S
Eu787 O813 2.363 . S
Eu788 O781 2.370 1_445 S
Eu788 O786 2.370 1_545 S
Eu788 O790 2.370 1_455 S
Eu788 O791 2.370 . S
Eu788 O802 2.363 . S
Eu788 O803 2.363 1_455 S
Eu788 O810 2.363 1_545 S
Eu788 O811 2.363 . S
O789 Eu783 2.370 . S
O789 Eu787 2.370 1_655 S
O789 Eu793 2.370 1_655 S
O790 Eu783 2.370 . S
O790 Eu788 2.370 1_655 S
O790 Eu793 2.370 1_655 S
O791 Eu784 2.370 . S
O791 Eu788 2.370 . S
O791 Eu793 2.370 . S
O792 Eu784 2.370 . S
O792 Eu787 2.370 . S
O792 Eu793 2.370 . S
Eu793 O789 2.370 1_455 S
Eu793 O790 2.370 1_455 S
Eu793 O791 2.370 . S
Eu793 O792 2.370 . S
Eu793 O796 2.363 . S
Eu793 O797 2.363 . S
Eu793 O806 2.363 . S
Eu793 O807 2.363 1_455 S
O794 C768 1.283 . S
O794 Eu780 2.363 . S
O795 C769 1.283 . S
O795 Eu780 2.363 . S
O796 C770 1.283 . S
O796 Eu793 2.363 . S
O797 C771 1.283 . S
O797 Eu793 2.363 . S
O798 C772 1.283 . S
O798 Eu783 2.363 . S
O799 C773 1.283 . S
O799 Eu783 2.363 1_565 S
O800 C774 1.283 . S
O800 Eu784 2.363 . S
O801 C775 1.283 . S
O801 Eu784 2.363 1_565 S
O802 C776 1.283 . S
O802 Eu788 2.363 . S
O803 C777 1.283 . S
O803 Eu788 2.363 1_655 S
O804 C778 1.283 . S
O804 Eu787 2.363 . S
O805 C779 1.283 . S
O805 Eu787 2.363 1_655 S
O806 C774 1.283 . S
O806 Eu793 2.363 . S
O807 C772 1.283 . S
O807 Eu793 2.363 1_655 S
O808 C775 1.283 . S
O808 Eu780 2.363 . S
O809 C773 1.283 . S
O809 Eu780 2.363 1_655 S
O810 C769 1.283 . S
O810 Eu788 2.363 1_565 S
O811 C771 1.283 . S
O811 Eu788 2.363 . S
O812 C768 1.283 . S
O812 Eu787 2.363 1_565 S
O813 C770 1.283 . S
O813 Eu787 2.363 . S
O814 C779 1.283 . S
O814 Eu783 2.363 . S
O815 C777 1.283 . S
O815 Eu783 2.363 . S
O816 C778 1.283 . S
O816 Eu784 2.363 . S
O817 C776 1.283 . S
O817 Eu784 2.363 . S
C818 O844 1.283 . S
C818 O862 1.283 . S
C819 O845 1.283 . S
C819 O860 1.283 . S
C820 O846 1.283 . S
C820 O863 1.283 . S
C821 O847 1.283 . S
C821 O861 1.283 . S
C822 O848 1.283 . S
C822 O857 1.283 . S
C823 O849 1.283 . S
C823 O859 1.283 . S
C824 O850 1.283 . S
C824 O856 1.283 . S
C825 O851 1.283 . S
C825 O858 1.283 . S
C826 O852 1.283 . S
C826 O867 1.283 . S
C827 O853 1.283 . S
C827 O865 1.283 . S
C828 O854 1.283 . S
C828 O866 1.283 . S
C829 O855 1.283 . S
C829 O864 1.283 . S
Eu830 O831 2.370 . S
Eu830 O832 2.370 1_545 S
Eu830 O835 2.370 1_545 S
Eu830 O836 2.370 . S
Eu830 O844 2.363 1_545 S
Eu830 O845 2.363 . S
Eu830 O858 2.363 . S
Eu830 O859 2.363 . S
O831 Eu830 2.370 . S
O831 Eu833 2.370 . S
O831 Eu838 2.370 . S
O832 Eu830 2.370 1_565 S
O832 Eu834 2.370 1_565 S
O832 Eu837 2.370 . S
Eu833 O831 2.370 . S
Eu833 O835 2.370 1_545 S
Eu833 O839 2.370 1_544 S
Eu833 O840 2.370 1_554 S
Eu833 O848 2.363 1_554 S
Eu833 O849 2.363 . S
Eu833 O864 2.363 1_545 S
Eu833 O865 2.363 . S
Eu834 O832 2.370 1_545 S
Eu834 O836 2.370 . S
Eu834 O841 2.370 1_554 S
Eu834 O842 2.370 1_544 S
Eu834 O850 2.363 1_554 S
Eu834 O851 2.363 . S
Eu834 O866 2.363 1_545 S
Eu834 O867 2.363 . S
O835 Eu830 2.370 1_565 S
O835 Eu833 2.370 1_565 S
O835 Eu837 2.370 . S
O836 Eu830 2.370 . S
O836 Eu834 2.370 . S
O836 Eu838 2.370 . S
Eu837 O832 2.370 . S
Eu837 O835 2.370 . S
Eu837 O839 2.370 1_554 S
Eu837 O842 2.370 1_554 S
Eu837 O854 2.363 . S
Eu837 O855 2.363 . S
Eu837 O862 2.363 . S
Eu837 O863 2.363 1_554 S
Eu838 O831 2.370 . S
Eu838 O836 2.370 . S
Eu838 O840 2.370 1_554 S
Eu838 O841 2.370 1_554 S
Eu838 O852 2.363 . S
Eu838 O853 2.363 . S
Eu838 O860 2.363 . S
Eu838 O861 2.363 1_554 S
O839 Eu833 2.370 1_566 S
O839 Eu837 2.370 1_556 S
O839 Eu843 2.370 1_565 S
O840 Eu833 2.370 1_556 S
O840 Eu838 2.370 1_556 S
O840 Eu843 2.370 . S
O841 Eu834 2.370 1_556 S
O841 Eu838 2.370 1_556 S
O841 Eu843 2.370 . S
O842 Eu834 2.370 1_566 S
O842 Eu837 2.370 1_556 S
O842 Eu843 2.370 1_565 S
Eu843 O839 2.370 1_545 S
Eu843 O840 2.370 . S
Eu843 O841 2.370 . S
Eu843 O842 2.370 1_545 S
Eu843 O846 2.363 1_545 S
Eu843 O847 2.363 . S
Eu843 O856 2.363 . S
Eu843 O857 2.363 . S
O844 C818 1.283 . S
O844 Eu830 2.363 1_565 S
O845 C819 1.283 . S
O845 Eu830 2.363 . S
O846 C820 1.283 . S
O846 Eu843 2.363 1_565 S
O847 C821 1.283 . S
O847 Eu843 2.363 . S
O848 C822 1.283 . S
O848 Eu833 2.363 1_556 S
O849 C823 1.283 . S
O849 Eu833 2.363 . S
O850 C824 1.283 . S
O850 Eu834 2.363 1_556 S
O851 C825 1.283 . S
O851 Eu834 2.363 . S
O852 C826 1.283 . S
O852 Eu838 2.363 . S
O853 C827 1.283 . S
O853 Eu838 2.363 . S
O854 C828 1.283 . S
O854 Eu837 2.363 . S
O855 C829 1.283 . S
O855 Eu837 2.363 . S
O856 C824 1.283 . S
O856 Eu843 2.363 . S
O857 C822 1.283 . S
O857 Eu843 2.363 . S
O858 C825 1.283 . S
O858 Eu830 2.363 . S
O859 C823 1.283 . S
O859 Eu830 2.363 . S
O860 C819 1.283 . S
O860 Eu838 2.363 . S
O861 C821 1.283 . S
O861 Eu838 2.363 1_556 S
O862 C818 1.283 . S
O862 Eu837 2.363 . S
O863 C820 1.283 . S
O863 Eu837 2.363 1_556 S
O864 C829 1.283 . S
O864 Eu833 2.363 1_565 S
O865 C827 1.283 . S
O865 Eu833 2.363 . S
O866 C828 1.283 . S
O866 Eu834 2.363 1_565 S
O867 C826 1.283 . S
O867 Eu834 2.363 . S
C868 O894 1.283 . S
C868 O912 1.283 . S
C869 O895 1.283 . S
C869 O910 1.283 . S
C870 O896 1.283 . S
C870 O913 1.283 . S
C871 O897 1.283 . S
C871 O911 1.283 . S
C872 O898 1.283 . S
C872 O907 1.283 . S
C873 O899 1.283 . S
C873 O909 1.283 . S
C874 O900 1.283 . S
C874 O906 1.283 . S
C875 O901 1.283 . S
C875 O908 1.283 . S
C876 O902 1.283 . S
C876 O917 1.283 . S
C877 O903 1.283 . S
C877 O915 1.283 . S
C878 O904 1.283 . S
C878 O916 1.283 . S
C879 O905 1.283 . S
C879 O914 1.283 . S
Eu880 O881 2.363 1_454 S
Eu880 O882 2.377 . S
Eu880 O885 2.377 1_455 S
Eu880 O886 2.363 1_554 S
Eu880 O894 2.374 . S
Eu880 O895 2.351 1_554 S
Eu880 O908 2.363 . S
Eu880 O909 2.363 1_455 S
O881 Eu880 2.363 1_656 S
O881 Eu883 2.363 1_556 S
O881 Eu888 2.370 1_655 S
O882 Eu880 2.377 . S
O882 Eu884 2.377 . S
O882 Eu887 2.370 . S
Eu883 O881 2.363 1_554 S
Eu883 O885 2.377 . S
Eu883 O889 2.377 . S
Eu883 O890 2.363 1_554 S
Eu883 O898 2.363 . S
Eu883 O899 2.363 . S
Eu883 O914 2.374 . S
Eu883 O915 2.352 1_554 S
Eu884 O882 2.377 . S
Eu884 O886 2.363 1_554 S
Eu884 O891 2.363 1_554 S
Eu884 O892 2.377 . S
Eu884 O900 2.363 . S
Eu884 O901 2.363 . S
Eu884 O916 2.375 . S
Eu884 O917 2.351 1_554 S
O885 Eu880 2.377 1_655 S
O885 Eu883 2.377 . S
O885 Eu887 2.370 1_655 S
O886 Eu880 2.363 1_556 S
O886 Eu884 2.363 1_556 S
O886 Eu888 2.370 . S
Eu887 O882 2.370 . S
Eu887 O885 2.370 1_455 S
Eu887 O889 2.370 1_455 S
Eu887 O892 2.370 . S
Eu887 O904 2.363 . S
Eu887 O905 2.363 1_455 S
Eu887 O912 2.363 . S
Eu887 O913 2.363 . S
Eu888 O881 2.370 1_455 S
Eu888 O886 2.370 . S
Eu888 O890 2.370 1_455 S
Eu888 O891 2.370 . S
Eu888 O902 2.363 . S
Eu888 O903 2.363 1_455 S
Eu888 O910 2.363 . S
Eu888 O911 2.363 . S
O889 Eu883 2.377 . S
O889 Eu887 2.370 1_655 S
O889 Eu893 2.377 1_655 S
O890 Eu883 2.363 1_556 S
O890 Eu888 2.370 1_655 S
O890 Eu893 2.363 1_656 S
O891 Eu884 2.363 1_556 S
O891 Eu888 2.370 . S
O891 Eu893 2.363 1_556 S
O892 Eu884 2.377 . S
O892 Eu887 2.370 . S
O892 Eu893 2.377 . S
Eu893 O889 2.377 1_455 S
Eu893 O890 2.363 1_454 S
Eu893 O891 2.363 1_554 S
Eu893 O892 2.377 . S
Eu893 O896 2.374 . S
Eu893 O897 2.351 1_554 S
Eu893 O906 2.363 . S
Eu893 O907 2.363 1_455 S
O894 C868 1.283 . S
O894 Eu880 2.374 . S
O895 C869 1.283 . S
O895 Eu880 2.351 1_556 S
O896 C870 1.283 . S
O896 Eu893 2.374 . S
O897 C871 1.283 . S
O897 Eu893 2.351 1_556 S
O898 C872 1.283 . S
O898 Eu883 2.363 . S
O899 C873 1.283 . S
O899 Eu883 2.363 . S
O900 C874 1.283 . S
O900 Eu884 2.363 . S
O901 C875 1.283 . S
O901 Eu884 2.363 . S
O902 C876 1.283 . S
O902 Eu888 2.363 . S
O903 C877 1.283 . S
O903 Eu888 2.363 1_655 S
O904 C878 1.283 . S
O904 Eu887 2.363 . S
O905 C879 1.283 . S
O905 Eu887 2.363 1_655 S
O906 C874 1.283 . S
O906 Eu893 2.363 . S
O907 C872 1.283 . S
O907 Eu893 2.363 1_655 S
O908 C875 1.283 . S
O908 Eu880 2.363 . S
O909 C873 1.283 . S
O909 Eu880 2.363 1_655 S
O910 C869 1.283 . S
O910 Eu888 2.363 . S
O911 C871 1.283 . S
O911 Eu888 2.363 . S
O912 C868 1.283 . S
O912 Eu887 2.363 . S
O913 C870 1.283 . S
O913 Eu887 2.363 . S
O914 C879 1.283 . S
O914 Eu883 2.374 . S
O915 C877 1.283 . S
O915 Eu883 2.352 1_556 S
O916 C878 1.283 . S
O916 Eu884 2.375 . S
O917 C876 1.283 . S
O917 Eu884 2.351 1_556 S
C918 O944 1.283 . S
C918 O962 1.283 . S
C919 O945 1.283 . S
C919 O960 1.283 . S
C920 O946 1.283 . S
C920 O963 1.283 . S
C921 O947 1.283 . S
C921 O961 1.283 . S
C922 O948 1.283 . S
C922 O957 1.283 . S
C923 O949 1.283 . S
C923 O959 1.283 . S
C924 O950 1.283 . S
C924 O956 1.283 . S
C925 O951 1.283 . S
C925 O958 1.283 . S
C926 O952 1.283 . S
C926 O967 1.283 . S
C927 O953 1.283 . S
C927 O965 1.283 . S
C928 O954 1.283 . S
C928 O966 1.283 . S
C929 O955 1.283 . S
C929 O964 1.283 . S
Eu930 O931 2.370 . S
Eu930 O932 2.370 . S
Eu930 O935 2.370 . S
Eu930 O936 2.370 . S
Eu930 O944 2.363 . S
Eu930 O945 2.363 . S
Eu930 O958 2.363 . S
Eu930 O959 2.363 . S
O931 Eu930 2.370 . S
O931 Eu933 2.379 . S
O931 Eu938 2.379 . S
O932 Eu930 2.370 . S
O932 Eu934 2.379 . S
O932 Eu937 2.379 . S
Eu933 O931 2.379 . S
Eu933 O935 2.379 . S
Eu933 O939 2.361 1_554 S
Eu933 O940 2.361 1_554 S
Eu933 O948 2.348 1_554 S
Eu933 O949 2.378 . S
Eu933 O964 2.363 . S
Eu933 O965 2.363 . S
Eu934 O932 2.379 . S
Eu934 O936 2.379 . S
Eu934 O941 2.361 1_554 S
Eu934 O942 2.361 1_554 S
Eu934 O950 2.348 1_554 S
Eu934 O951 2.378 . S
Eu934 O966 2.363 . S
Eu934 O967 2.363 . S
O935 Eu930 2.370 . S
O935 Eu933 2.379 . S
O935 Eu937 2.379 . S
O936 Eu930 2.370 . S
O936 Eu934 2.379 . S
O936 Eu938 2.379 . S
Eu937 O932 2.379 . S
Eu937 O935 2.379 . S
Eu937 O939 2.361 1_554 S
Eu937 O942 2.361 1_554 S
Eu937 O954 2.363 . S
Eu937 O955 2.363 . S
Eu937 O962 2.378 . S
Eu937 O963 2.348 1_554 S
Eu938 O931 2.379 . S
Eu938 O936 2.379 . S
Eu938 O940 2.361 1_554 S
Eu938 O941 2.361 1_554 S
Eu938 O952 2.363 . S
Eu938 O953 2.363 . S
Eu938 O960 2.378 . S
Eu938 O961 2.348 1_554 S
O939 Eu933 2.361 1_556 S
O939 Eu937 2.361 1_556 S
O939 Eu943 2.370 . S
O940 Eu933 2.361 1_556 S
O940 Eu938 2.361 1_556 S
O940 Eu943 2.370 . S
O941 Eu934 2.361 1_556 S
O941 Eu938 2.361 1_556 S
O941 Eu943 2.370 . S
O942 Eu934 2.361 1_556 S
O942 Eu937 2.361 1_556 S
O942 Eu943 2.370 . S
Eu943 O939 2.370 . S
Eu943 O940 2.370 . S
Eu943 O941 2.370 . S
Eu943 O942 2.370 . S
Eu943 O946 2.363 . S
Eu943 O947 2.363 . S
Eu943 O956 2.363 . S
Eu943 O957 2.363 . S
O944 C918 1.283 . S
O944 Eu930 2.363 . S
O945 C919 1.283 . S
O945 Eu930 2.363 . S
O946 C920 1.283 . S
O946 Eu943 2.363 . S
O947 C921 1.283 . S
O947 Eu943 2.363 . S
O948 C922 1.283 . S
O948 Eu933 2.348 1_556 S
O949 C923 1.283 . S
O949 Eu933 2.378 . S
O950 C924 1.283 . S
O950 Eu934 2.348 1_556 S
O951 C925 1.283 . S
O951 Eu934 2.378 . S
O952 C926 1.283 . S
O952 Eu938 2.363 . S
O953 C927 1.283 . S
O953 Eu938 2.363 . S
O954 C928 1.283 . S
O954 Eu937 2.363 . S
O955 C929 1.283 . S
O955 Eu937 2.363 . S
O956 C924 1.283 . S
O956 Eu943 2.363 . S
O957 C922 1.283 . S
O957 Eu943 2.363 . S
O958 C925 1.283 . S
O958 Eu930 2.363 . S
O959 C923 1.283 . S
O959 Eu930 2.363 . S
O960 C919 1.283 . S
O960 Eu938 2.378 . S
O961 C921 1.283 . S
O961 Eu938 2.348 1_556 S
O962 C918 1.283 . S
O962 Eu937 2.378 . S
O963 C920 1.283 . S
O963 Eu937 2.348 1_556 S
O964 C929 1.283 . S
O964 Eu933 2.363 . S
O965 C927 1.283 . S
O965 Eu933 2.363 . S
O966 C928 1.283 . S
O966 Eu934 2.363 . S
O967 C926 1.283 . S
O967 Eu934 2.363 . S
C968 O994 1.283 . S
C968 O1012 1.283 . S
C969 O995 1.283 . S
C969 O1010 1.283 . S
C970 O996 1.283 . S
C970 O1013 1.283 . S
C971 O997 1.283 . S
C971 O1011 1.283 . S
C972 O998 1.283 . S
C972 O1007 1.283 . S
C973 O999 1.283 . S
C973 O1009 1.283 . S
C974 O1000 1.283 . S
C974 O1006 1.283 . S
C975 O1001 1.283 . S
C975 O1008 1.283 . S
C976 O1002 1.283 . S
C976 O1017 1.283 . S
C977 O1003 1.283 . S
C977 O1015 1.283 . S
C978 O1004 1.283 . S
C978 O1016 1.283 . S
C979 O1005 1.283 . S
C979 O1014 1.283 . S
Eu980 O981 2.370 1_455 S
Eu980 O982 2.370 . S
Eu980 O985 2.370 1_455 S
Eu980 O986 2.370 . S
Eu980 O994 2.363 . S
Eu980 O995 2.363 . S
Eu980 O1008 2.363 . S
Eu980 O1009 2.363 1_455 S
O981 Eu980 2.370 1_655 S
O981 Eu983 2.370 . S
O981 Eu988 2.370 1_655 S
O982 Eu980 2.370 . S
O982 Eu984 2.370 . S
O982 Eu987 2.370 . S
Eu983 O981 2.370 . S
Eu983 O985 2.370 . S
Eu983 O989 2.370 . S
Eu983 O990 2.370 . S
Eu983 O998 2.363 . S
Eu983 O999 2.363 . S
Eu983 O1014 2.363 . S
Eu983 O1015 2.363 . S
Eu984 O982 2.370 . S
Eu984 O986 2.370 . S
Eu984 O991 2.370 . S
Eu984 O992 2.370 . S
Eu984 O1000 2.363 . S
Eu984 O1001 2.363 . S
Eu984 O1016 2.363 . S
Eu984 O1017 2.363 . S
O985 Eu980 2.370 1_655 S
O985 Eu983 2.370 . S
O985 Eu987 2.370 1_655 S
O986 Eu980 2.370 . S
O986 Eu984 2.370 . S
O986 Eu988 2.370 . S
Eu987 O982 2.370 . S
Eu987 O985 2.370 1_455 S
Eu987 O989 2.370 1_455 S
Eu987 O992 2.370 . S
Eu987 O1004 2.363 . S
Eu987 O1005 2.363 1_455 S
Eu987 O1012 2.363 . S
Eu987 O1013 2.363 . S
Eu988 O981 2.370 1_455 S
Eu988 O986 2.370 . S
Eu988 O990 2.370 1_455 S
Eu988 O991 2.370 . S
Eu988 O1002 2.363 . S
Eu988 O1003 2.363 1_455 S
Eu988 O1010 2.363 . S
Eu988 O1011 2.363 . S
O989 Eu983 2.370 . S
O989 Eu987 2.370 1_655 S
O989 Eu993 2.370 1_655 S
O990 Eu983 2.370 . S
O990 Eu988 2.370 1_655 S
O990 Eu993 2.370 1_655 S
O991 Eu984 2.370 . S
O991 Eu988 2.370 . S
O991 Eu993 2.370 . S
O992 Eu984 2.370 . S
O992 Eu987 2.370 . S
O992 Eu993 2.370 . S
Eu993 O989 2.370 1_455 S
Eu993 O990 2.370 1_455 S
Eu993 O991 2.370 . S
Eu993 O992 2.370 . S
Eu993 O996 2.363 . S
Eu993 O997 2.363 . S
Eu993 O1006 2.363 . S
Eu993 O1007 2.363 1_455 S
O994 C968 1.283 . S
O994 Eu980 2.363 . S
O995 C969 1.283 . S
O995 Eu980 2.363 . S
O996 C970 1.283 . S
O996 Eu993 2.363 . S
O997 C971 1.283 . S
O997 Eu993 2.363 . S
O998 C972 1.283 . S
O998 Eu983 2.363 . S
O999 C973 1.283 . S
O999 Eu983 2.363 . S
O1000 C974 1.283 . S
O1000 Eu984 2.363 . S
O1001 C975 1.283 . S
O1001 Eu984 2.363 . S
O1002 C976 1.283 . S
O1002 Eu988 2.363 . S
O1003 C977 1.283 . S
O1003 Eu988 2.363 1_655 S
O1004 C978 1.283 . S
O1004 Eu987 2.363 . S
O1005 C979 1.283 . S
O1005 Eu987 2.363 1_655 S
O1006 C974 1.283 . S
O1006 Eu993 2.363 . S
O1007 C972 1.283 . S
O1007 Eu993 2.363 1_655 S
O1008 C975 1.283 . S
O1008 Eu980 2.363 . S
O1009 C973 1.283 . S
O1009 Eu980 2.363 1_655 S
O1010 C969 1.283 . S
O1010 Eu988 2.363 . S
O1011 C971 1.283 . S
O1011 Eu988 2.363 . S
O1012 C968 1.283 . S
O1012 Eu987 2.363 . S
O1013 C970 1.283 . S
O1013 Eu987 2.363 . S
O1014 C979 1.283 . S
O1014 Eu983 2.363 . S
O1015 C977 1.283 . S
O1015 Eu983 2.363 . S
O1016 C978 1.283 . S
O1016 Eu984 2.363 . S
O1017 C976 1.283 . S
O1017 Eu984 2.363 . S
C1018 O1044 1.283 . S
C1018 O1062 1.283 . S
C1019 O1045 1.283 . S
C1019 O1060 1.283 . S
C1020 O1046 1.283 . S
C1020 O1063 1.283 . S
C1021 O1047 1.283 . S
C1021 O1061 1.283 . S
C1022 O1048 1.283 . S
C1022 O1057 1.283 . S
C1023 O1049 1.283 . S
C1023 O1059 1.283 . S
C1024 O1050 1.283 . S
C1024 O1056 1.283 . S
C1025 O1051 1.283 . S
C1025 O1058 1.283 . S
C1026 O1052 1.283 . S
C1026 O1067 1.283 . S
C1027 O1053 1.283 . S
C1027 O1065 1.283 . S
C1028 O1054 1.283 . S
C1028 O1066 1.283 . S
C1029 O1055 1.283 . S
C1029 O1064 1.283 . S
Eu1030 O1031 2.370 . S
Eu1030 O1032 2.370 . S
Eu1030 O1035 2.370 . S
Eu1030 O1036 2.370 . S
Eu1030 O1044 2.363 . S
Eu1030 O1045 2.363 . S
Eu1030 O1058 2.363 . S
Eu1030 O1059 2.363 . S
O1031 Eu1030 2.370 . S
O1031 Eu1033 2.370 1_565 S
O1031 Eu1038 2.370 1_565 S
O1032 Eu1030 2.370 . S
O1032 Eu1034 2.370 1_565 S
O1032 Eu1037 2.370 1_565 S
Eu1033 O1031 2.370 1_545 S
Eu1033 O1035 2.370 1_545 S
Eu1033 O1039 2.370 . S
Eu1033 O1040 2.370 . S
Eu1033 O1048 2.363 . S
Eu1033 O1049 2.363 1_545 S
Eu1033 O1064 2.363 . S
Eu1033 O1065 2.363 . S
Eu1034 O1032 2.370 1_545 S
Eu1034 O1036 2.370 1_545 S
Eu1034 O1041 2.370 . S
Eu1034 O1042 2.370 . S
Eu1034 O1050 2.363 . S
Eu1034 O1051 2.363 1_545 S
Eu1034 O1066 2.363 . S
Eu1034 O1067 2.363 . S
O1035 Eu1030 2.370 . S
O1035 Eu1033 2.370 1_565 S
O1035 Eu1037 2.370 1_565 S
O1036 Eu1030 2.370 . S
O1036 Eu1034 2.370 1_565 S
O1036 Eu1038 2.370 1_565 S
Eu1037 O1032 2.370 1_545 S
Eu1037 O1035 2.370 1_545 S
Eu1037 O1039 2.370 . S
Eu1037 O1042 2.370 . S
Eu1037 O1054 2.363 . S
Eu1037 O1055 2.363 . S
Eu1037 O1062 2.363 1_545 S
Eu1037 O1063 2.363 . S
Eu1038 O1031 2.370 1_545 S
Eu1038 O1036 2.370 1_545 S
Eu1038 O1040 2.370 . S
Eu1038 O1041 2.370 . S
Eu1038 O1052 2.363 . S
Eu1038 O1053 2.363 . S
Eu1038 O1060 2.363 1_545 S
Eu1038 O1061 2.363 . S
O1039 Eu1033 2.370 . S
O1039 Eu1037 2.370 . S
O1039 Eu1043 2.370 . S
O1040 Eu1033 2.370 . S
O1040 Eu1038 2.370 . S
O1040 Eu1043 2.370 . S
O1041 Eu1034 2.370 . S
O1041 Eu1038 2.370 . S
O1041 Eu1043 2.370 . S
O1042 Eu1034 2.370 . S
O1042 Eu1037 2.370 . S
O1042 Eu1043 2.370 . S
Eu1043 O1039 2.370 . S
Eu1043 O1040 2.370 . S
Eu1043 O1041 2.370 . S
Eu1043 O1042 2.370 . S
Eu1043 O1046 2.363 . S
Eu1043 O1047 2.363 . S
Eu1043 O1056 2.363 . S
Eu1043 O1057 2.363 . S
O1044 C1018 1.283 . S
O1044 Eu1030 2.363 . S
O1045 C1019 1.283 . S
O1045 Eu1030 2.363 . S
O1046 C1020 1.283 . S
O1046 Eu1043 2.363 . S
O1047 C1021 1.283 . S
O1047 Eu1043 2.363 . S
O1048 C1022 1.283 . S
O1048 Eu1033 2.363 . S
O1049 C1023 1.283 . S
O1049 Eu1033 2.363 1_565 S
O1050 C1024 1.283 . S
O1050 Eu1034 2.363 . S
O1051 C1025 1.283 . S
O1051 Eu1034 2.363 1_565 S
O1052 C1026 1.283 . S
O1052 Eu1038 2.363 . S
O1053 C1027 1.283 . S
O1053 Eu1038 2.363 . S
O1054 C1028 1.283 . S
O1054 Eu1037 2.363 . S
O1055 C1029 1.283 . S
O1055 Eu1037 2.363 . S
O1056 C1024 1.283 . S
O1056 Eu1043 2.363 . S
O1057 C1022 1.283 . S
O1057 Eu1043 2.363 . S
O1058 C1025 1.283 . S
O1058 Eu1030 2.363 . S
O1059 C1023 1.283 . S
O1059 Eu1030 2.363 . S
O1060 C1019 1.283 . S
O1060 Eu1038 2.363 1_565 S
O1061 C1021 1.283 . S
O1061 Eu1038 2.363 . S
O1062 C1018 1.283 . S
O1062 Eu1037 2.363 1_565 S
O1063 C1020 1.283 . S
O1063 Eu1037 2.363 . S
O1064 C1029 1.283 . S
O1064 Eu1033 2.363 . S
O1065 C1027 1.283 . S
O1065 Eu1033 2.363 . S
O1066 C1028 1.283 . S
O1066 Eu1034 2.363 . S
O1067 C1026 1.283 . S
O1067 Eu1034 2.363 . S
C1068 C1069 1.363 . S
C1068 C1074 1.379 . S
C1068 N1076 1.356 . S
C1069 C1068 1.363 . S
C1069 C1075 1.363 . S
C1070 C1071 1.363 . S
C1070 C1075 1.379 . S
C1070 N1077 1.356 . S
C1071 C1070 1.363 . S
C1071 C1074 1.363 . S
N1072 C1074 1.356 . S
N1072 H1084 0.984 . S
N1072 H1085 0.985 . S
N1073 C1075 1.356 . S
N1073 H1078 0.984 . S
N1073 H1079 0.985 . S
C1074 C1068 1.379 . S
C1074 C1071 1.363 . S
C1074 N1072 1.356 . S
C1075 C1069 1.363 . S
C1075 C1070 1.379 . S
C1075 N1073 1.356 . S
N1076 C1068 1.356 . S
N1076 H1082 0.984 . S
N1076 H1083 0.984 . S
N1077 C1070 1.356 . S
N1077 H1080 0.984 . S
N1077 H1081 0.985 . S
H1078 N1073 0.984 . S
H1079 N1073 0.985 . S
H1080 N1077 0.984 . S
H1081 N1077 0.985 . S
H1082 N1076 0.984 . S
H1083 N1076 0.984 . S
H1084 N1072 0.984 . S
H1085 N1072 0.985 . S
C1086 C1087 1.363 . S
C1086 C1092 1.379 . S
C1086 N1094 1.356 . S
C1087 C1086 1.363 . S
C1087 C1093 1.363 . S
C1088 C1089 1.363 . S
C1088 C1093 1.379 . S
C1088 N1095 1.356 . S
C1089 C1088 1.363 . S
C1089 C1092 1.363 . S
N1090 C1092 1.356 . S
N1090 H1102 0.984 . S
N1090 H1103 0.985 . S
N1091 C1093 1.356 . S
N1091 H1096 0.984 . S
N1091 H1097 0.985 . S
C1092 C1086 1.379 . S
C1092 C1089 1.363 . S
C1092 N1090 1.356 . S
C1093 C1087 1.363 . S
C1093 C1088 1.379 . S
C1093 N1091 1.356 . S
N1094 C1086 1.356 . S
N1094 H1100 0.984 . S
N1094 H1101 0.984 . S
N1095 C1088 1.356 . S
N1095 H1098 0.984 . S
N1095 H1099 0.985 . S
H1096 N1091 0.984 . S
H1097 N1091 0.985 . S
H1098 N1095 0.984 . S
H1099 N1095 0.985 . S
H1100 N1094 0.984 . S
H1101 N1094 0.984 . S
H1102 N1090 0.984 . S
H1103 N1090 0.985 . S
C1104 C1105 1.363 . S
C1104 C1110 1.379 . S
C1104 N1112 1.356 . S
C1105 C1104 1.363 . S
C1105 C1111 1.363 . S
C1106 C1107 1.363 . S
C1106 C1111 1.379 . S
C1106 N1113 1.356 . S
C1107 C1106 1.363 . S
C1107 C1110 1.363 . S
N1108 C1110 1.356 . S
N1108 H1120 0.984 . S
N1108 H1121 0.985 . S
N1109 C1111 1.356 . S
N1109 H1114 0.984 . S
N1109 H1115 0.985 . S
C1110 C1104 1.379 . S
C1110 C1107 1.363 . S
C1110 N1108 1.356 . S
C1111 C1105 1.363 . S
C1111 C1106 1.379 . S
C1111 N1109 1.356 . S
N1112 C1104 1.356 . S
N1112 H1118 0.984 . S
N1112 H1119 0.984 . S
N1113 C1106 1.356 . S
N1113 H1116 0.984 . S
N1113 H1117 0.985 . S
H1114 N1109 0.984 . S
H1115 N1109 0.985 . S
H1116 N1113 0.984 . S
H1117 N1113 0.985 . S
H1118 N1112 0.984 . S
H1119 N1112 0.984 . S
H1120 N1108 0.984 . S
H1121 N1108 0.985 . S
C1122 C1123 1.363 . S
C1122 C1128 1.379 . S
C1122 N1130 1.356 . S
C1123 C1122 1.363 . S
C1123 C1129 1.363 . S
C1124 C1125 1.363 . S
C1124 C1129 1.379 . S
C1124 N1131 1.356 . S
C1125 C1124 1.363 . S
C1125 C1128 1.363 . S
N1126 C1128 1.356 . S
N1126 H1138 0.984 . S
N1126 H1139 0.985 . S
N1127 C1129 1.356 . S
N1127 H1132 0.984 . S
N1127 H1133 0.985 . S
C1128 C1122 1.379 . S
C1128 C1125 1.363 . S
C1128 N1126 1.356 . S
C1129 C1123 1.363 . S
C1129 C1124 1.379 . S
C1129 N1127 1.356 . S
N1130 C1122 1.356 . S
N1130 H1136 0.984 . S
N1130 H1137 0.984 . S
N1131 C1124 1.356 . S
N1131 H1134 0.984 . S
N1131 H1135 0.985 . S
H1132 N1127 0.984 . S
H1133 N1127 0.985 . S
H1134 N1131 0.984 . S
H1135 N1131 0.985 . S
H1136 N1130 0.984 . S
H1137 N1130 0.984 . S
H1138 N1126 0.984 . S
H1139 N1126 0.985 . S
C1140 C1141 1.363 . S
C1140 C1146 1.379 . S
C1140 N1148 1.356 . S
C1141 C1140 1.363 . S
C1141 C1147 1.363 . S
C1142 C1143 1.363 . S
C1142 C1147 1.379 . S
C1142 N1149 1.356 . S
C1143 C1142 1.363 . S
C1143 C1146 1.363 . S
N1144 C1146 1.356 . S
N1144 H1156 0.984 . S
N1144 H1157 0.985 . S
N1145 C1147 1.356 . S
N1145 H1150 0.984 . S
N1145 H1151 0.985 . S
C1146 C1140 1.379 . S
C1146 C1143 1.363 . S
C1146 N1144 1.356 . S
C1147 C1141 1.363 . S
C1147 C1142 1.379 . S
C1147 N1145 1.356 . S
N1148 C1140 1.356 . S
N1148 H1154 0.984 . S
N1148 H1155 0.984 . S
N1149 C1142 1.356 . S
N1149 H1152 0.984 . S
N1149 H1153 0.985 . S
H1150 N1145 0.984 . S
H1151 N1145 0.985 . S
H1152 N1149 0.984 . S
H1153 N1149 0.985 . S
H1154 N1148 0.984 . S
H1155 N1148 0.984 . S
H1156 N1144 0.984 . S
H1157 N1144 0.985 . S
C1158 C1159 1.363 . S
C1158 C1164 1.379 . S
C1158 N1166 1.356 . S
C1159 C1158 1.363 . S
C1159 C1165 1.363 . S
C1160 C1161 1.363 . S
C1160 C1165 1.379 . S
C1160 N1167 1.356 . S
C1161 C1160 1.363 . S
C1161 C1164 1.363 . S
N1162 C1164 1.356 . S
N1162 H1174 0.984 . S
N1162 H1175 0.985 . S
N1163 C1165 1.356 . S
N1163 H1168 0.984 . S
N1163 H1169 0.985 . S
C1164 C1158 1.379 . S
C1164 C1161 1.363 . S
C1164 N1162 1.356 . S
C1165 C1159 1.363 . S
C1165 C1160 1.379 . S
C1165 N1163 1.356 . S
N1166 C1158 1.356 . S
N1166 H1172 0.984 . S
N1166 H1173 0.984 . S
N1167 C1160 1.356 . S
N1167 H1170 0.984 . S
N1167 H1171 0.985 . S
H1168 N1163 0.984 . S
H1169 N1163 0.985 . S
H1170 N1167 0.984 . S
H1171 N1167 0.985 . S
H1172 N1166 0.984 . S
H1173 N1166 0.984 . S
H1174 N1162 0.984 . S
H1175 N1162 0.985 . S
C1176 C1177 1.363 . S
C1176 C1182 1.379 . S
C1176 N1184 1.356 . S
C1177 C1176 1.363 . S
C1177 C1183 1.363 . S
C1178 C1179 1.363 . S
C1178 C1183 1.379 . S
C1178 N1185 1.356 . S
C1179 C1178 1.363 . S
C1179 C1182 1.363 . S
N1180 C1182 1.356 . S
N1180 H1192 0.984 . S
N1180 H1193 0.985 . S
N1181 C1183 1.356 . S
N1181 H1186 0.984 . S
N1181 H1187 0.985 . S
C1182 C1176 1.379 . S
C1182 C1179 1.363 . S
C1182 N1180 1.356 . S
C1183 C1177 1.363 . S
C1183 C1178 1.379 . S
C1183 N1181 1.356 . S
N1184 C1176 1.356 . S
N1184 H1190 0.984 . S
N1184 H1191 0.984 . S
N1185 C1178 1.356 . S
N1185 H1188 0.984 . S
N1185 H1189 0.985 . S
H1186 N1181 0.984 . S
H1187 N1181 0.985 . S
H1188 N1185 0.984 . S
H1189 N1185 0.985 . S
H1190 N1184 0.984 . S
H1191 N1184 0.984 . S
H1192 N1180 0.984 . S
H1193 N1180 0.985 . S
C1194 C1195 1.363 . S
C1194 C1200 1.379 . S
C1194 N1202 1.356 . S
C1195 C1194 1.363 . S
C1195 C1201 1.363 . S
C1196 C1197 1.363 . S
C1196 C1201 1.379 . S
C1196 N1203 1.356 . S
C1197 C1196 1.363 . S
C1197 C1200 1.363 . S
N1198 C1200 1.356 . S
N1198 H1210 0.984 . S
N1198 H1211 0.985 . S
N1199 C1201 1.356 . S
N1199 H1204 0.984 . S
N1199 H1205 0.985 . S
C1200 C1194 1.379 . S
C1200 C1197 1.363 . S
C1200 N1198 1.356 . S
C1201 C1195 1.363 . S
C1201 C1196 1.379 . S
C1201 N1199 1.356 . S
N1202 C1194 1.356 . S
N1202 H1208 0.984 . S
N1202 H1209 0.984 . S
N1203 C1196 1.356 . S
N1203 H1206 0.984 . S
N1203 H1207 0.985 . S
H1204 N1199 0.984 . S
H1205 N1199 0.985 . S
H1206 N1203 0.984 . S
H1207 N1203 0.985 . S
H1208 N1202 0.984 . S
H1209 N1202 0.984 . S
H1210 N1198 0.984 . S
H1211 N1198 0.985 . S
C1212 C1213 1.363 . S
C1212 C1218 1.379 . S
C1212 N1220 1.356 . S
C1213 C1212 1.363 . S
C1213 C1219 1.363 . S
C1214 C1215 1.363 . S
C1214 C1219 1.379 . S
C1214 N1221 1.356 . S
C1215 C1214 1.363 . S
C1215 C1218 1.363 . S
N1216 C1218 1.356 . S
N1216 H1228 0.984 . S
N1216 H1229 0.985 . S
N1217 C1219 1.356 . S
N1217 H1222 0.984 . S
N1217 H1223 0.985 . S
C1218 C1212 1.379 . S
C1218 C1215 1.363 . S
C1218 N1216 1.356 . S
C1219 C1213 1.363 . S
C1219 C1214 1.379 . S
C1219 N1217 1.356 . S
N1220 C1212 1.356 . S
N1220 H1226 0.984 . S
N1220 H1227 0.984 . S
N1221 C1214 1.356 . S
N1221 H1224 0.984 . S
N1221 H1225 0.985 . S
H1222 N1217 0.984 . S
H1223 N1217 0.985 . S
H1224 N1221 0.984 . S
H1225 N1221 0.985 . S
H1226 N1220 0.984 . S
H1227 N1220 0.984 . S
H1228 N1216 0.984 . S
H1229 N1216 0.985 . S
C1230 C1231 1.363 . S
C1230 C1236 1.379 . S
C1230 N1238 1.356 . S
C1231 C1230 1.363 . S
C1231 C1237 1.363 . S
C1232 C1233 1.363 . S
C1232 C1237 1.379 . S
C1232 N1239 1.356 . S
C1233 C1232 1.363 . S
C1233 C1236 1.363 . S
N1234 C1236 1.356 . S
N1234 H1246 0.984 . S
N1234 H1247 0.985 . S
N1235 C1237 1.356 . S
N1235 H1240 0.984 . S
N1235 H1241 0.985 . S
C1236 C1230 1.379 . S
C1236 C1233 1.363 . S
C1236 N1234 1.356 . S
C1237 C1231 1.363 . S
C1237 C1232 1.379 . S
C1237 N1235 1.356 . S
N1238 C1230 1.356 . S
N1238 H1244 0.984 . S
N1238 H1245 0.984 . S
N1239 C1232 1.356 . S
N1239 H1242 0.984 . S
N1239 H1243 0.985 . S
H1240 N1235 0.984 . S
H1241 N1235 0.985 . S
H1242 N1239 0.984 . S
H1243 N1239 0.985 . S
H1244 N1238 0.984 . S
H1245 N1238 0.984 . S
H1246 N1234 0.984 . S
H1247 N1234 0.985 . S
C1248 C1249 1.363 . S
C1248 C1254 1.379 . S
C1248 N1256 1.356 . S
C1249 C1248 1.363 . S
C1249 C1255 1.363 . S
C1250 C1251 1.363 . S
C1250 C1255 1.379 . S
C1250 N1257 1.356 . S
C1251 C1250 1.363 . S
C1251 C1254 1.363 . S
N1252 C1254 1.356 . S
N1252 H1264 0.984 . S
N1252 H1265 0.985 . S
N1253 C1255 1.356 . S
N1253 H1258 0.984 . S
N1253 H1259 0.985 . S
C1254 C1248 1.379 . S
C1254 C1251 1.363 . S
C1254 N1252 1.356 . S
C1255 C1249 1.363 . S
C1255 C1250 1.379 . S
C1255 N1253 1.356 . S
N1256 C1248 1.356 . S
N1256 H1262 0.984 . S
N1256 H1263 0.984 . S
N1257 C1250 1.356 . S
N1257 H1260 0.984 . S
N1257 H1261 0.985 . S
H1258 N1253 0.984 . S
H1259 N1253 0.985 . S
H1260 N1257 0.984 . S
H1261 N1257 0.985 . S
H1262 N1256 0.984 . S
H1263 N1256 0.984 . S
H1264 N1252 0.984 . S
H1265 N1252 0.985 . S
C1266 C1267 1.363 . S
C1266 C1272 1.379 . S
C1266 N1274 1.356 . S
C1267 C1266 1.363 . S
C1267 C1273 1.363 . S
C1268 C1269 1.363 . S
C1268 C1273 1.379 . S
C1268 N1275 1.356 . S
C1269 C1268 1.363 . S
C1269 C1272 1.363 . S
N1270 C1272 1.356 . S
N1270 H1282 0.984 . S
N1270 H1283 0.985 . S
N1271 C1273 1.356 . S
N1271 H1276 0.984 . S
N1271 H1277 0.985 . S
C1272 C1266 1.379 . S
C1272 C1269 1.363 . S
C1272 N1270 1.356 . S
C1273 C1267 1.363 . S
C1273 C1268 1.379 . S
C1273 N1271 1.356 . S
N1274 C1266 1.356 . S
N1274 H1280 0.984 . S
N1274 H1281 0.984 . S
N1275 C1268 1.356 . S
N1275 H1278 0.984 . S
N1275 H1279 0.985 . S
H1276 N1271 0.984 . S
H1277 N1271 0.985 . S
H1278 N1275 0.984 . S
H1279 N1275 0.985 . S
H1280 N1274 0.984 . S
H1281 N1274 0.984 . S
H1282 N1270 0.984 . S
H1283 N1270 0.985 . S
C1284 C1285 1.372 . S
C1284 C1290 1.379 . S
C1284 N1292 1.356 . S
C1285 C1284 1.372 . S
C1285 C1291 1.354 1_554 S
C1286 C1287 1.352 1_556 S
C1286 C1291 1.379 . S
C1286 N1293 1.356 . S
C1287 C1286 1.352 1_554 S
C1287 C1290 1.374 . S
N1288 C1290 1.356 . S
N1288 H1300 0.984 . S
N1288 H1301 0.985 . S
N1289 C1291 1.356 . S
N1289 H1294 0.984 . S
N1289 H1295 0.985 . S
C1290 C1284 1.379 . S
C1290 C1287 1.374 . S
C1290 N1288 1.356 . S
C1291 C1285 1.354 1_556 S
C1291 C1286 1.379 . S
C1291 N1289 1.356 . S
N1292 C1284 1.356 . S
N1292 H1298 0.984 . S
N1292 H1299 0.984 . S
N1293 C1286 1.356 . S
N1293 H1296 0.984 . S
N1293 H1297 0.985 . S
H1294 N1289 0.984 . S
H1295 N1289 0.985 . S
H1296 N1293 0.984 . S
H1297 N1293 0.985 . S
H1298 N1292 0.984 . S
H1299 N1292 0.984 . S
H1300 N1288 0.984 . S
H1301 N1288 0.985 . S
C1302 C1303 1.373 . S
C1302 C1308 1.379 . S
C1302 N1310 1.356 . S
C1303 C1302 1.373 . S
C1303 C1309 1.353 1_554 S
C1304 C1305 1.352 1_556 S
C1304 C1309 1.379 . S
C1304 N1311 1.356 . S
C1305 C1304 1.352 1_554 S
C1305 C1308 1.374 . S
N1306 C1308 1.356 . S
N1306 H1318 0.984 . S
N1306 H1319 0.985 . S
N1307 C1309 1.356 . S
N1307 H1312 0.984 . S
N1307 H1313 0.985 . S
C1308 C1302 1.379 . S
C1308 C1305 1.374 . S
C1308 N1306 1.356 . S
C1309 C1303 1.353 1_556 S
C1309 C1304 1.379 . S
C1309 N1307 1.356 . S
N1310 C1302 1.356 . S
N1310 H1316 0.984 . S
N1310 H1317 0.984 . S
N1311 C1304 1.356 . S
N1311 H1314 0.984 . S
N1311 H1315 0.985 . S
H1312 N1307 0.984 . S
H1313 N1307 0.985 . S
H1314 N1311 0.984 . S
H1315 N1311 0.985 . S
H1316 N1310 0.984 . S
H1317 N1310 0.984 . S
H1318 N1306 0.984 . S
H1319 N1306 0.985 . S
C1320 C1321 1.353 1_556 S
C1320 C1326 1.379 . S
C1320 N1328 1.356 . S
C1321 C1320 1.353 1_554 S
C1321 C1327 1.373 . S
C1322 C1323 1.374 . S
C1322 C1327 1.379 . S
C1322 N1329 1.356 . S
C1323 C1322 1.374 . S
C1323 C1326 1.352 1_554 S
N1324 C1326 1.356 . S
N1324 H1336 0.984 . S
N1324 H1337 0.985 . S
N1325 C1327 1.356 . S
N1325 H1330 0.984 . S
N1325 H1331 0.985 . S
C1326 C1320 1.379 . S
C1326 C1323 1.352 1_556 S
C1326 N1324 1.356 . S
C1327 C1321 1.373 . S
C1327 C1322 1.379 . S
C1327 N1325 1.356 . S
N1328 C1320 1.356 . S
N1328 H1334 0.984 . S
N1328 H1335 0.984 . S
N1329 C1322 1.356 . S
N1329 H1332 0.984 . S
N1329 H1333 0.985 . S
H1330 N1325 0.984 . S
H1331 N1325 0.985 . S
H1332 N1329 0.984 . S
H1333 N1329 0.985 . S
H1334 N1328 0.984 . S
H1335 N1328 0.984 . S
H1336 N1324 0.984 . S
H1337 N1324 0.985 . S
C1338 C1339 1.372 . S
C1338 C1344 1.379 . S
C1338 N1346 1.356 . S
C1339 C1338 1.372 . S
C1339 C1345 1.354 1_554 S
C1340 C1341 1.352 1_556 S
C1340 C1345 1.379 . S
C1340 N1347 1.356 . S
C1341 C1340 1.352 1_554 S
C1341 C1344 1.374 . S
N1342 C1344 1.356 . S
N1342 H1354 0.984 . S
N1342 H1355 0.985 . S
N1343 C1345 1.356 . S
N1343 H1348 0.984 . S
N1343 H1349 0.985 . S
C1344 C1338 1.379 . S
C1344 C1341 1.374 . S
C1344 N1342 1.356 . S
C1345 C1339 1.354 1_556 S
C1345 C1340 1.379 . S
C1345 N1343 1.356 . S
N1346 C1338 1.356 . S
N1346 H1352 0.984 . S
N1346 H1353 0.984 . S
N1347 C1340 1.356 . S
N1347 H1350 0.984 . S
N1347 H1351 0.985 . S
H1348 N1343 0.984 . S
H1349 N1343 0.985 . S
H1350 N1347 0.984 . S
H1351 N1347 0.985 . S
H1352 N1346 0.984 . S
H1353 N1346 0.984 . S
H1354 N1342 0.984 . S
H1355 N1342 0.985 . S
C1356 C1357 1.363 . S
C1356 C1362 1.379 . S
C1356 N1364 1.356 . S
C1357 C1356 1.363 . S
C1357 C1363 1.363 1_455 S
C1358 C1359 1.363 1_655 S
C1358 C1363 1.379 . S
C1358 N1365 1.356 . S
C1359 C1358 1.363 1_455 S
C1359 C1362 1.363 . S
N1360 C1362 1.356 . S
N1360 H1372 0.984 . S
N1360 H1373 0.985 . S
N1361 C1363 1.356 . S
N1361 H1366 0.984 . S
N1361 H1367 0.985 . S
C1362 C1356 1.379 . S
C1362 C1359 1.363 . S
C1362 N1360 1.356 . S
C1363 C1357 1.363 1_655 S
C1363 C1358 1.379 . S
C1363 N1361 1.356 . S
N1364 C1356 1.356 . S
N1364 H1370 0.984 . S
N1364 H1371 0.984 . S
N1365 C1358 1.356 . S
N1365 H1368 0.984 . S
N1365 H1369 0.985 . S
H1366 N1361 0.984 . S
H1367 N1361 0.985 . S
H1368 N1365 0.984 . S
H1369 N1365 0.985 . S
H1370 N1364 0.984 . S
H1371 N1364 0.984 . S
H1372 N1360 0.984 . S
H1373 N1360 0.985 . S
C1374 C1375 1.363 1_565 S
C1374 C1380 1.379 . S
C1374 N1382 1.356 . S
C1375 C1374 1.363 1_545 S
C1375 C1381 1.363 . S
C1376 C1377 1.363 . S
C1376 C1381 1.379 . S
C1376 N1383 1.356 . S
C1377 C1376 1.363 . S
C1377 C1380 1.363 1_545 S
N1378 C1380 1.356 . S
N1378 H1390 0.984 . S
N1378 H1391 0.985 . S
N1379 C1381 1.356 . S
N1379 H1384 0.984 . S
N1379 H1385 0.985 . S
C1380 C1374 1.379 . S
C1380 C1377 1.363 1_565 S
C1380 N1378 1.356 . S
C1381 C1375 1.363 . S
C1381 C1376 1.379 . S
C1381 N1379 1.356 . S
N1382 C1374 1.356 . S
N1382 H1388 0.984 . S
N1382 H1389 0.984 . S
N1383 C1376 1.356 . S
N1383 H1386 0.984 . S
N1383 H1387 0.985 . S
H1384 N1379 0.984 . S
H1385 N1379 0.985 . S
H1386 N1383 0.984 . S
H1387 N1383 0.985 . S
H1388 N1382 0.984 . S
H1389 N1382 0.984 . S
H1390 N1378 0.984 . S
H1391 N1378 0.985 . S
C1392 C1393 1.363 1_655 S
C1392 C1398 1.379 . S
C1392 N1400 1.356 . S
C1393 C1392 1.363 1_455 S
C1393 C1399 1.363 . S
C1394 C1395 1.363 . S
C1394 C1399 1.379 . S
C1394 N1401 1.356 . S
C1395 C1394 1.363 . S
C1395 C1398 1.363 1_455 S
N1396 C1398 1.356 . S
N1396 H1408 0.984 . S
N1396 H1409 0.985 . S
N1397 C1399 1.356 . S
N1397 H1402 0.984 . S
N1397 H1403 0.985 . S
C1398 C1392 1.379 . S
C1398 C1395 1.363 1_655 S
C1398 N1396 1.356 . S
C1399 C1393 1.363 . S
C1399 C1394 1.379 . S
C1399 N1397 1.356 . S
N1400 C1392 1.356 . S
N1400 H1406 0.984 . S
N1400 H1407 0.984 . S
N1401 C1394 1.356 . S
N1401 H1404 0.984 . S
N1401 H1405 0.985 . S
H1402 N1397 0.984 . S
H1403 N1397 0.985 . S
H1404 N1401 0.984 . S
H1405 N1401 0.985 . S
H1406 N1400 0.984 . S
H1407 N1400 0.984 . S
H1408 N1396 0.984 . S
H1409 N1396 0.985 . S
C1410 C1411 1.363 . S
C1410 C1416 1.379 . S
C1410 N1418 1.356 . S
C1411 C1410 1.363 . S
C1411 C1417 1.363 1_545 S
C1412 C1413 1.363 1_565 S
C1412 C1417 1.379 . S
C1412 N1419 1.356 . S
C1413 C1412 1.363 1_545 S
C1413 C1416 1.363 . S
N1414 C1416 1.356 . S
N1414 H1426 0.984 . S
N1414 H1427 0.985 . S
N1415 C1417 1.356 . S
N1415 H1420 0.984 . S
N1415 H1421 0.985 . S
C1416 C1410 1.379 . S
C1416 C1413 1.363 . S
C1416 N1414 1.356 . S
C1417 C1411 1.363 1_565 S
C1417 C1412 1.379 . S
C1417 N1415 1.356 . S
N1418 C1410 1.356 . S
N1418 H1424 0.984 . S
N1418 H1425 0.984 . S
N1419 C1412 1.356 . S
N1419 H1422 0.984 . S
N1419 H1423 0.985 . S
H1420 N1415 0.984 . S
H1421 N1415 0.985 . S
H1422 N1419 0.984 . S
H1423 N1419 0.985 . S
H1424 N1418 0.984 . S
H1425 N1418 0.984 . S
H1426 N1414 0.984 . S
H1427 N1414 0.985 . S
C1428 C1429 1.363 . S
C1428 C1434 1.379 . S
C1428 N1436 1.356 . S
C1429 C1428 1.363 . S
C1429 C1435 1.363 1_455 S
C1430 C1431 1.363 1_655 S
C1430 C1435 1.379 . S
C1430 N1437 1.356 . S
C1431 C1430 1.363 1_455 S
C1431 C1434 1.363 . S
N1432 C1434 1.356 . S
N1432 H1444 0.984 . S
N1432 H1445 0.985 . S
N1433 C1435 1.356 . S
N1433 H1438 0.984 . S
N1433 H1439 0.985 . S
C1434 C1428 1.379 . S
C1434 C1431 1.363 . S
C1434 N1432 1.356 . S
C1435 C1429 1.363 1_655 S
C1435 C1430 1.379 . S
C1435 N1433 1.356 . S
N1436 C1428 1.356 . S
N1436 H1442 0.984 . S
N1436 H1443 0.984 . S
N1437 C1430 1.356 . S
N1437 H1440 0.984 . S
N1437 H1441 0.985 . S
H1438 N1433 0.984 . S
H1439 N1433 0.985 . S
H1440 N1437 0.984 . S
H1441 N1437 0.985 . S
H1442 N1436 0.984 . S
H1443 N1436 0.984 . S
H1444 N1432 0.984 . S
H1445 N1432 0.985 . S
C1446 C1447 1.363 1_565 S
C1446 C1452 1.379 . S
C1446 N1454 1.356 . S
C1447 C1446 1.363 1_545 S
C1447 C1453 1.363 . S
C1448 C1449 1.363 . S
C1448 C1453 1.379 . S
C1448 N1455 1.356 . S
C1449 C1448 1.363 . S
C1449 C1452 1.363 1_545 S
N1450 C1452 1.356 . S
N1450 H1462 0.984 . S
N1450 H1463 0.985 . S
N1451 C1453 1.356 . S
N1451 H1456 0.984 . S
N1451 H1457 0.985 . S
C1452 C1446 1.379 . S
C1452 C1449 1.363 1_565 S
C1452 N1450 1.356 . S
C1453 C1447 1.363 . S
C1453 C1448 1.379 . S
C1453 N1451 1.356 . S
N1454 C1446 1.356 . S
N1454 H1460 0.984 . S
N1454 H1461 0.984 . S
N1455 C1448 1.356 . S
N1455 H1458 0.984 . S
N1455 H1459 0.985 . S
H1456 N1451 0.984 . S
H1457 N1451 0.985 . S
H1458 N1455 0.984 . S
H1459 N1455 0.985 . S
H1460 N1454 0.984 . S
H1461 N1454 0.984 . S
H1462 N1450 0.984 . S
H1463 N1450 0.985 . S
C1464 C1465 1.363 . S
C1464 C1470 1.379 . S
C1464 N1472 1.356 . S
C1465 C1464 1.363 . S
C1465 C1471 1.363 1_455 S
C1466 C1467 1.363 1_655 S
C1466 C1471 1.379 . S
C1466 N1473 1.356 . S
C1467 C1466 1.363 1_455 S
C1467 C1470 1.363 . S
N1468 C1470 1.356 . S
N1468 H1480 0.984 . S
N1468 H1481 0.985 . S
N1469 C1471 1.356 . S
N1469 H1474 0.984 . S
N1469 H1475 0.985 . S
C1470 C1464 1.379 . S
C1470 C1467 1.363 . S
C1470 N1468 1.356 . S
C1471 C1465 1.363 1_655 S
C1471 C1466 1.379 . S
C1471 N1469 1.356 . S
N1472 C1464 1.356 . S
N1472 H1478 0.984 . S
N1472 H1479 0.984 . S
N1473 C1466 1.356 . S
N1473 H1476 0.984 . S
N1473 H1477 0.985 . S
H1474 N1469 0.984 . S
H1475 N1469 0.985 . S
H1476 N1473 0.984 . S
H1477 N1473 0.985 . S
H1478 N1472 0.984 . S
H1479 N1472 0.984 . S
H1480 N1468 0.984 . S
H1481 N1468 0.985 . S
C1482 C1483 1.363 1_565 S
C1482 C1488 1.379 . S
C1482 N1490 1.356 . S
C1483 C1482 1.363 1_545 S
C1483 C1489 1.363 . S
C1484 C1485 1.363 . S
C1484 C1489 1.379 . S
C1484 N1491 1.356 . S
C1485 C1484 1.363 . S
C1485 C1488 1.363 1_545 S
N1486 C1488 1.356 . S
N1486 H1498 0.984 . S
N1486 H1499 0.985 . S
N1487 C1489 1.356 . S
N1487 H1492 0.984 . S
N1487 H1493 0.985 . S
C1488 C1482 1.379 . S
C1488 C1485 1.363 1_565 S
C1488 N1486 1.356 . S
C1489 C1483 1.363 . S
C1489 C1484 1.379 . S
C1489 N1487 1.356 . S
N1490 C1482 1.356 . S
N1490 H1496 0.984 . S
N1490 H1497 0.984 . S
N1491 C1484 1.356 . S
N1491 H1494 0.984 . S
N1491 H1495 0.985 . S
H1492 N1487 0.984 . S
H1493 N1487 0.985 . S
H1494 N1491 0.984 . S
H1495 N1491 0.985 . S
H1496 N1490 0.984 . S
H1497 N1490 0.984 . S
H1498 N1486 0.984 . S
H1499 N1486 0.985 . S
C1500 C1501 1.363 . S
C1500 C1506 1.379 . S
C1500 N1508 1.356 . S
C1501 C1500 1.363 . S
C1501 C1507 1.363 1_455 S
C1502 C1503 1.363 1_655 S
C1502 C1507 1.379 . S
C1502 N1509 1.356 . S
C1503 C1502 1.363 1_455 S
C1503 C1506 1.363 . S
N1504 C1506 1.356 . S
N1504 H1516 0.984 . S
N1504 H1517 0.985 . S
N1505 C1507 1.356 . S
N1505 H1510 0.984 . S
N1505 H1511 0.985 . S
C1506 C1500 1.379 . S
C1506 C1503 1.363 . S
C1506 N1504 1.356 . S
C1507 C1501 1.363 1_655 S
C1507 C1502 1.379 . S
C1507 N1505 1.356 . S
N1508 C1500 1.356 . S
N1508 H1514 0.984 . S
N1508 H1515 0.984 . S
N1509 C1502 1.356 . S
N1509 H1512 0.984 . S
N1509 H1513 0.985 . S
H1510 N1505 0.984 . S
H1511 N1505 0.985 . S
H1512 N1509 0.984 . S
H1513 N1509 0.985 . S
H1514 N1508 0.984 . S
H1515 N1508 0.984 . S
H1516 N1504 0.984 . S
H1517 N1504 0.985 . S
C1518 C1519 1.363 1_565 S
C1518 C1524 1.379 . S
C1518 N1526 1.356 . S
C1519 C1518 1.363 1_545 S
C1519 C1525 1.363 . S
C1520 C1521 1.363 . S
C1520 C1525 1.379 . S
C1520 N1527 1.356 . S
C1521 C1520 1.363 . S
C1521 C1524 1.363 1_545 S
N1522 C1524 1.356 . S
N1522 H1534 0.984 . S
N1522 H1535 0.985 . S
N1523 C1525 1.356 . S
N1523 H1528 0.984 . S
N1523 H1529 0.985 . S
C1524 C1518 1.379 . S
C1524 C1521 1.363 1_565 S
C1524 N1522 1.356 . S
C1525 C1519 1.363 . S
C1525 C1520 1.379 . S
C1525 N1523 1.356 . S
N1526 C1518 1.356 . S
N1526 H1532 0.984 . S
N1526 H1533 0.984 . S
N1527 C1520 1.356 . S
N1527 H1530 0.984 . S
N1527 H1531 0.985 . S
H1528 N1523 0.984 . S
H1529 N1523 0.985 . S
H1530 N1527 0.984 . S
H1531 N1527 0.985 . S
H1532 N1526 0.984 . S
H1533 N1526 0.984 . S
H1534 N1522 0.984 . S
H1535 N1522 0.985 . S
C1536 C1537 1.363 . S
C1536 C1542 1.379 . S
C1536 N1544 1.356 . S
C1537 C1536 1.363 . S
C1537 C1543 1.363 1_455 S
C1538 C1539 1.363 1_655 S
C1538 C1543 1.379 . S
C1538 N1545 1.356 . S
C1539 C1538 1.363 1_455 S
C1539 C1542 1.363 . S
N1540 C1542 1.356 . S
N1540 H1552 0.984 . S
N1540 H1553 0.985 . S
N1541 C1543 1.356 . S
N1541 H1546 0.984 . S
N1541 H1547 0.985 . S
C1542 C1536 1.379 . S
C1542 C1539 1.363 . S
C1542 N1540 1.356 . S
C1543 C1537 1.363 1_655 S
C1543 C1538 1.379 . S
C1543 N1541 1.356 . S
N1544 C1536 1.356 . S
N1544 H1550 0.984 . S
N1544 H1551 0.984 . S
N1545 C1538 1.356 . S
N1545 H1548 0.984 . S
N1545 H1549 0.985 . S
H1546 N1541 0.984 . S
H1547 N1541 0.985 . S
H1548 N1545 0.984 . S
H1549 N1545 0.985 . S
H1550 N1544 0.984 . S
H1551 N1544 0.984 . S
H1552 N1540 0.984 . S
H1553 N1540 0.985 . S
C1554 C1555 1.363 . S
C1554 C1560 1.379 . S
C1554 N1562 1.356 . S
C1555 C1554 1.363 . S
C1555 C1561 1.363 1_545 S
C1556 C1557 1.363 1_565 S
C1556 C1561 1.379 . S
C1556 N1563 1.356 . S
C1557 C1556 1.363 1_545 S
C1557 C1560 1.363 . S
N1558 C1560 1.356 . S
N1558 H1570 0.984 . S
N1558 H1571 0.985 . S
N1559 C1561 1.356 . S
N1559 H1564 0.984 . S
N1559 H1565 0.985 . S
C1560 C1554 1.379 . S
C1560 C1557 1.363 . S
C1560 N1558 1.356 . S
C1561 C1555 1.363 1_565 S
C1561 C1556 1.379 . S
C1561 N1559 1.356 . S
N1562 C1554 1.356 . S
N1562 H1568 0.984 . S
N1562 H1569 0.984 . S
N1563 C1556 1.356 . S
N1563 H1566 0.984 . S
N1563 H1567 0.985 . S
H1564 N1559 0.984 . S
H1565 N1559 0.985 . S
H1566 N1563 0.984 . S
H1567 N1563 0.985 . S
H1568 N1562 0.984 . S
H1569 N1562 0.984 . S
H1570 N1558 0.984 . S
H1571 N1558 0.985 . S
C1572 C1573 1.363 1_655 S
C1572 C1578 1.379 . S
C1572 N1580 1.356 . S
C1573 C1572 1.363 1_455 S
C1573 C1579 1.363 . S
C1574 C1575 1.363 . S
C1574 C1579 1.379 . S
C1574 N1581 1.356 . S
C1575 C1574 1.363 . S
C1575 C1578 1.363 1_455 S
N1576 C1578 1.356 . S
N1576 H1588 0.984 . S
N1576 H1589 0.985 . S
N1577 C1579 1.356 . S
N1577 H1582 0.984 . S
N1577 H1583 0.985 . S
C1578 C1572 1.379 . S
C1578 C1575 1.363 1_655 S
C1578 N1576 1.356 . S
C1579 C1573 1.363 . S
C1579 C1574 1.379 . S
C1579 N1577 1.356 . S
N1580 C1572 1.356 . S
N1580 H1586 0.984 . S
N1580 H1587 0.984 . S
N1581 C1574 1.356 . S
N1581 H1584 0.984 . S
N1581 H1585 0.985 . S
H1582 N1577 0.984 . S
H1583 N1577 0.985 . S
H1584 N1581 0.984 . S
H1585 N1581 0.985 . S
H1586 N1580 0.984 . S
H1587 N1580 0.984 . S
H1588 N1576 0.984 . S
H1589 N1576 0.985 . S
C1590 C1591 1.363 . S
C1590 C1596 1.379 . S
C1590 N1598 1.356 . S
C1591 C1590 1.363 . S
C1591 C1597 1.363 1_545 S
C1592 C1593 1.363 1_565 S
C1592 C1597 1.379 . S
C1592 N1599 1.356 . S
C1593 C1592 1.363 1_545 S
C1593 C1596 1.363 . S
N1594 C1596 1.356 . S
N1594 H1606 0.984 . S
N1594 H1607 0.985 . S
N1595 C1597 1.356 . S
N1595 H1600 0.984 . S
N1595 H1601 0.985 . S
C1596 C1590 1.379 . S
C1596 C1593 1.363 . S
C1596 N1594 1.356 . S
C1597 C1591 1.363 1_565 S
C1597 C1592 1.379 . S
C1597 N1595 1.356 . S
N1598 C1590 1.356 . S
N1598 H1604 0.984 . S
N1598 H1605 0.984 . S
N1599 C1592 1.356 . S
N1599 H1602 0.984 . S
N1599 H1603 0.985 . S
H1600 N1595 0.984 . S
H1601 N1595 0.985 . S
H1602 N1599 0.984 . S
H1603 N1599 0.985 . S
H1604 N1598 0.984 . S
H1605 N1598 0.984 . S
H1606 N1594 0.984 . S
H1607 N1594 0.985 . S
C1608 C1609 1.363 1_655 S
C1608 C1614 1.379 . S
C1608 N1616 1.356 . S
C1609 C1608 1.363 1_455 S
C1609 C1615 1.363 . S
C1610 C1611 1.363 . S
C1610 C1615 1.379 . S
C1610 N1617 1.356 . S
C1611 C1610 1.363 . S
C1611 C1614 1.363 1_455 S
N1612 C1614 1.356 . S
N1612 H1624 0.984 . S
N1612 H1625 0.985 . S
N1613 C1615 1.356 . S
N1613 H1618 0.984 . S
N1613 H1619 0.985 . S
C1614 C1608 1.379 . S
C1614 C1611 1.363 1_655 S
C1614 N1612 1.356 . S
C1615 C1609 1.363 . S
C1615 C1610 1.379 . S
C1615 N1613 1.356 . S
N1616 C1608 1.356 . S
N1616 H1622 0.984 . S
N1616 H1623 0.984 . S
N1617 C1610 1.356 . S
N1617 H1620 0.984 . S
N1617 H1621 0.985 . S
H1618 N1613 0.984 . S
H1619 N1613 0.985 . S
H1620 N1617 0.984 . S
H1621 N1617 0.985 . S
H1622 N1616 0.984 . S
H1623 N1616 0.984 . S
H1624 N1612 0.984 . S
H1625 N1612 0.985 . S
C1626 C1627 1.363 1_565 S
C1626 C1632 1.379 . S
C1626 N1634 1.356 . S
C1627 C1626 1.363 1_545 S
C1627 C1633 1.363 . S
C1628 C1629 1.363 . S
C1628 C1633 1.379 . S
C1628 N1635 1.356 . S
C1629 C1628 1.363 . S
C1629 C1632 1.363 1_545 S
N1630 C1632 1.356 . S
N1630 H1642 0.984 . S
N1630 H1643 0.985 . S
N1631 C1633 1.356 . S
N1631 H1636 0.984 . S
N1631 H1637 0.985 . S
C1632 C1626 1.379 . S
C1632 C1629 1.363 1_565 S
C1632 N1630 1.356 . S
C1633 C1627 1.363 . S
C1633 C1628 1.379 . S
C1633 N1631 1.356 . S
N1634 C1626 1.356 . S
N1634 H1640 0.984 . S
N1634 H1641 0.984 . S
N1635 C1628 1.356 . S
N1635 H1638 0.984 . S
N1635 H1639 0.985 . S
H1636 N1631 0.984 . S
H1637 N1631 0.985 . S
H1638 N1635 0.984 . S
H1639 N1635 0.985 . S
H1640 N1634 0.984 . S
H1641 N1634 0.984 . S
H1642 N1630 0.984 . S
H1643 N1630 0.985 . S
C1644 C1645 1.363 . S
C1644 C1650 1.379 . S
C1644 N1652 1.356 . S
C1645 C1644 1.363 . S
C1645 C1651 1.363 1_545 S
C1646 C1647 1.363 1_565 S
C1646 C1651 1.379 . S
C1646 N1653 1.356 . S
C1647 C1646 1.363 1_545 S
C1647 C1650 1.363 . S
N1648 C1650 1.356 . S
N1648 H1660 0.984 . S
N1648 H1661 0.985 . S
N1649 C1651 1.356 . S
N1649 H1654 0.984 . S
N1649 H1655 0.985 . S
C1650 C1644 1.379 . S
C1650 C1647 1.363 . S
C1650 N1648 1.356 . S
C1651 C1645 1.363 1_565 S
C1651 C1646 1.379 . S
C1651 N1649 1.356 . S
N1652 C1644 1.356 . S
N1652 H1658 0.984 . S
N1652 H1659 0.984 . S
N1653 C1646 1.356 . S
N1653 H1656 0.984 . S
N1653 H1657 0.985 . S
H1654 N1649 0.984 . S
H1655 N1649 0.985 . S
H1656 N1653 0.984 . S
H1657 N1653 0.985 . S
H1658 N1652 0.984 . S
H1659 N1652 0.984 . S
H1660 N1648 0.984 . S
H1661 N1648 0.985 . S
C1662 C1663 1.363 . S
C1662 C1668 1.379 . S
C1662 N1670 1.356 . S
C1663 C1662 1.363 . S
C1663 C1669 1.363 1_455 S
C1664 C1665 1.363 1_655 S
C1664 C1669 1.379 . S
C1664 N1671 1.356 . S
C1665 C1664 1.363 1_455 S
C1665 C1668 1.363 . S
N1666 C1668 1.356 . S
N1666 H1678 0.984 . S
N1666 H1679 0.985 . S
N1667 C1669 1.356 . S
N1667 H1672 0.984 . S
N1667 H1673 0.985 . S
C1668 C1662 1.379 . S
C1668 C1665 1.363 . S
C1668 N1666 1.356 . S
C1669 C1663 1.363 1_655 S
C1669 C1664 1.379 . S
C1669 N1667 1.356 . S
N1670 C1662 1.356 . S
N1670 H1676 0.984 . S
N1670 H1677 0.984 . S
N1671 C1664 1.356 . S
N1671 H1674 0.984 . S
N1671 H1675 0.985 . S
H1672 N1667 0.984 . S
H1673 N1667 0.985 . S
H1674 N1671 0.984 . S
H1675 N1671 0.985 . S
H1676 N1670 0.984 . S
H1677 N1670 0.984 . S
H1678 N1666 0.984 . S
H1679 N1666 0.985 . S
C1680 C1681 1.363 1_565 S
C1680 C1686 1.379 . S
C1680 N1688 1.356 . S
C1681 C1680 1.363 1_545 S
C1681 C1687 1.363 . S
C1682 C1683 1.363 . S
C1682 C1687 1.379 . S
C1682 N1689 1.356 . S
C1683 C1682 1.363 . S
C1683 C1686 1.363 1_545 S
N1684 C1686 1.356 . S
N1684 H1696 0.984 . S
N1684 H1697 0.985 . S
N1685 C1687 1.356 . S
N1685 H1690 0.984 . S
N1685 H1691 0.985 . S
C1686 C1680 1.379 . S
C1686 C1683 1.363 1_565 S
C1686 N1684 1.356 . S
C1687 C1681 1.363 . S
C1687 C1682 1.379 . S
C1687 N1685 1.356 . S
N1688 C1680 1.356 . S
N1688 H1694 0.984 . S
N1688 H1695 0.984 . S
N1689 C1682 1.356 . S
N1689 H1692 0.984 . S
N1689 H1693 0.985 . S
H1690 N1685 0.984 . S
H1691 N1685 0.985 . S
H1692 N1689 0.984 . S
H1693 N1689 0.985 . S
H1694 N1688 0.984 . S
H1695 N1688 0.984 . S
H1696 N1684 0.984 . S
H1697 N1684 0.985 . S
C1698 C1699 1.363 . S
C1698 C1704 1.379 . S
C1698 N1706 1.356 . S
C1699 C1698 1.363 . S
C1699 C1705 1.363 1_455 S
C1700 C1701 1.363 1_655 S
C1700 C1705 1.379 . S
C1700 N1707 1.356 . S
C1701 C1700 1.363 1_455 S
C1701 C1704 1.363 . S
N1702 C1704 1.356 . S
N1702 H1714 0.984 . S
N1702 H1715 0.985 . S
N1703 C1705 1.356 . S
N1703 H1708 0.984 . S
N1703 H1709 0.985 . S
C1704 C1698 1.379 . S
C1704 C1701 1.363 . S
C1704 N1702 1.356 . S
C1705 C1699 1.363 1_655 S
C1705 C1700 1.379 . S
C1705 N1703 1.356 . S
N1706 C1698 1.356 . S
N1706 H1712 0.984 . S
N1706 H1713 0.984 . S
N1707 C1700 1.356 . S
N1707 H1710 0.984 . S
N1707 H1711 0.985 . S
H1708 N1703 0.984 . S
H1709 N1703 0.985 . S
H1710 N1707 0.984 . S
H1711 N1707 0.985 . S
H1712 N1706 0.984 . S
H1713 N1706 0.984 . S
H1714 N1702 0.984 . S
H1715 N1702 0.985 . S
C1716 C1717 1.363 . S
C1716 C1722 1.379 . S
C1716 N1724 1.356 . S
C1717 C1716 1.363 . S
C1717 C1723 1.363 1_545 S
C1718 C1719 1.363 1_565 S
C1718 C1723 1.379 . S
C1718 N1725 1.356 . S
C1719 C1718 1.363 1_545 S
C1719 C1722 1.363 . S
N1720 C1722 1.356 . S
N1720 H1732 0.984 . S
N1720 H1733 0.985 . S
N1721 C1723 1.356 . S
N1721 H1726 0.984 . S
N1721 H1727 0.985 . S
C1722 C1716 1.379 . S
C1722 C1719 1.363 . S
C1722 N1720 1.356 . S
C1723 C1717 1.363 1_565 S
C1723 C1718 1.379 . S
C1723 N1721 1.356 . S
N1724 C1716 1.356 . S
N1724 H1730 0.984 . S
N1724 H1731 0.984 . S
N1725 C1718 1.356 . S
N1725 H1728 0.984 . S
N1725 H1729 0.985 . S
H1726 N1721 0.984 . S
H1727 N1721 0.985 . S
H1728 N1725 0.984 . S
H1729 N1725 0.985 . S
H1730 N1724 0.984 . S
H1731 N1724 0.984 . S
H1732 N1720 0.984 . S
H1733 N1720 0.985 . S
C1734 C1735 1.363 . S
C1734 C1740 1.379 . S
C1734 N1742 1.356 . S
C1735 C1734 1.363 . S
C1735 C1741 1.363 1_455 S
C1736 C1737 1.363 1_655 S
C1736 C1741 1.379 . S
C1736 N1743 1.356 . S
C1737 C1736 1.363 1_455 S
C1737 C1740 1.363 . S
N1738 C1740 1.356 . S
N1738 H1750 0.984 . S
N1738 H1751 0.985 . S
N1739 C1741 1.356 . S
N1739 H1744 0.984 . S
N1739 H1745 0.985 . S
C1740 C1734 1.379 . S
C1740 C1737 1.363 . S
C1740 N1738 1.356 . S
C1741 C1735 1.363 1_655 S
C1741 C1736 1.379 . S
C1741 N1739 1.356 . S
N1742 C1734 1.356 . S
N1742 H1748 0.984 . S
N1742 H1749 0.984 . S
N1743 C1736 1.356 . S
N1743 H1746 0.984 . S
N1743 H1747 0.985 . S
H1744 N1739 0.984 . S
H1745 N1739 0.985 . S
H1746 N1743 0.984 . S
H1747 N1743 0.985 . S
H1748 N1742 0.984 . S
H1749 N1742 0.984 . S
H1750 N1738 0.984 . S
H1751 N1738 0.985 . S
C1752 C1753 1.363 1_565 S
C1752 C1758 1.379 . S
C1752 N1760 1.356 . S
C1753 C1752 1.363 1_545 S
C1753 C1759 1.363 . S
C1754 C1755 1.363 . S
C1754 C1759 1.379 . S
C1754 N1761 1.356 . S
C1755 C1754 1.363 . S
C1755 C1758 1.363 1_545 S
N1756 C1758 1.356 . S
N1756 H1768 0.984 . S
N1756 H1769 0.985 . S
N1757 C1759 1.356 . S
N1757 H1762 0.984 . S
N1757 H1763 0.985 . S
C1758 C1752 1.379 . S
C1758 C1755 1.363 1_565 S
C1758 N1756 1.356 . S
C1759 C1753 1.363 . S
C1759 C1754 1.379 . S
C1759 N1757 1.356 . S
N1760 C1752 1.356 . S
N1760 H1766 0.984 . S
N1760 H1767 0.984 . S
N1761 C1754 1.356 . S
N1761 H1764 0.984 . S
N1761 H1765 0.985 . S
H1762 N1757 0.984 . S
H1763 N1757 0.985 . S
H1764 N1761 0.984 . S
H1765 N1761 0.985 . S
H1766 N1760 0.984 . S
H1767 N1760 0.984 . S
H1768 N1756 0.984 . S
H1769 N1756 0.985 . S
C1770 C1771 1.363 1_655 S
C1770 C1776 1.379 . S
C1770 N1778 1.356 . S
C1771 C1770 1.363 1_455 S
C1771 C1777 1.363 . S
C1772 C1773 1.363 . S
C1772 C1777 1.379 . S
C1772 N1779 1.356 . S
C1773 C1772 1.363 . S
C1773 C1776 1.363 1_455 S
N1774 C1776 1.356 . S
N1774 H1786 0.984 . S
N1774 H1787 0.985 . S
N1775 C1777 1.356 . S
N1775 H1780 0.984 . S
N1775 H1781 0.985 . S
C1776 C1770 1.379 . S
C1776 C1773 1.363 1_655 S
C1776 N1774 1.356 . S
C1777 C1771 1.363 . S
C1777 C1772 1.379 . S
C1777 N1775 1.356 . S
N1778 C1770 1.356 . S
N1778 H1784 0.984 . S
N1778 H1785 0.984 . S
N1779 C1772 1.356 . S
N1779 H1782 0.984 . S
N1779 H1783 0.985 . S
H1780 N1775 0.984 . S
H1781 N1775 0.985 . S
H1782 N1779 0.984 . S
H1783 N1779 0.985 . S
H1784 N1778 0.984 . S
H1785 N1778 0.984 . S
H1786 N1774 0.984 . S
H1787 N1774 0.985 . S
C1788 C1789 1.355 1_556 S
C1788 C1794 1.379 . S
C1788 N1796 1.356 . S
C1789 C1788 1.355 1_554 S
C1789 C1795 1.371 . S
C1790 C1791 1.372 . S
C1790 C1795 1.379 . S
C1790 N1797 1.356 . S
C1791 C1790 1.372 . S
C1791 C1794 1.354 1_554 S
N1792 C1794 1.356 . S
N1792 H1804 0.984 . S
N1792 H1805 0.985 . S
N1793 C1795 1.356 . S
N1793 H1798 0.984 . S
N1793 H1799 0.985 . S
C1794 C1788 1.379 . S
C1794 C1791 1.354 1_556 S
C1794 N1792 1.356 . S
C1795 C1789 1.371 . S
C1795 C1790 1.379 . S
C1795 N1793 1.356 . S
N1796 C1788 1.356 . S
N1796 H1802 0.984 . S
N1796 H1803 0.984 . S
N1797 C1790 1.356 . S
N1797 H1800 0.984 . S
N1797 H1801 0.985 . S
H1798 N1793 0.984 . S
H1799 N1793 0.985 . S
H1800 N1797 0.984 . S
H1801 N1797 0.985 . S
H1802 N1796 0.984 . S
H1803 N1796 0.984 . S
H1804 N1792 0.984 . S
H1805 N1792 0.985 . S
C1806 C1807 1.371 . S
C1806 C1812 1.379 . S
C1806 N1814 1.356 . S
C1807 C1806 1.371 . S
C1807 C1813 1.355 1_554 S
C1808 C1809 1.354 1_556 S
C1808 C1813 1.379 . S
C1808 N1815 1.356 . S
C1809 C1808 1.354 1_554 S
C1809 C1812 1.372 . S
N1810 C1812 1.356 . S
N1810 H1822 0.984 . S
N1810 H1823 0.985 . S
N1811 C1813 1.356 . S
N1811 H1816 0.984 . S
N1811 H1817 0.985 . S
C1812 C1806 1.379 . S
C1812 C1809 1.372 . S
C1812 N1810 1.356 . S
C1813 C1807 1.355 1_556 S
C1813 C1808 1.379 . S
C1813 N1811 1.356 . S
N1814 C1806 1.356 . S
N1814 H1820 0.984 . S
N1814 H1821 0.984 . S
N1815 C1808 1.356 . S
N1815 H1818 0.984 . S
N1815 H1819 0.985 . S
H1816 N1811 0.984 . S
H1817 N1811 0.985 . S
H1818 N1815 0.984 . S
H1819 N1815 0.985 . S
H1820 N1814 0.984 . S
H1821 N1814 0.984 . S
H1822 N1810 0.984 . S
H1823 N1810 0.985 . S
C1824 C1825 1.358 1_556 S
C1824 C1830 1.379 . S
C1824 N1832 1.356 . S
C1825 C1824 1.358 1_554 S
C1825 C1831 1.368 . S
C1826 C1827 1.364 . S
C1826 C1831 1.379 . S
C1826 N1833 1.356 . S
C1827 C1826 1.364 . S
C1827 C1830 1.362 1_554 S
N1828 C1830 1.356 . S
N1828 H1840 0.984 . S
N1828 H1841 0.985 . S
N1829 C1831 1.356 . S
N1829 H1834 0.984 . S
N1829 H1835 0.985 . S
C1830 C1824 1.379 . S
C1830 C1827 1.362 1_556 S
C1830 N1828 1.356 . S
C1831 C1825 1.368 . S
C1831 C1826 1.379 . S
C1831 N1829 1.356 . S
N1832 C1824 1.356 . S
N1832 H1838 0.984 . S
N1832 H1839 0.984 . S
N1833 C1826 1.356 . S
N1833 H1836 0.984 . S
N1833 H1837 0.985 . S
H1834 N1829 0.984 . S
H1835 N1829 0.985 . S
H1836 N1833 0.984 . S
H1837 N1833 0.985 . S
H1838 N1832 0.984 . S
H1839 N1832 0.984 . S
H1840 N1828 0.984 . S
H1841 N1828 0.985 . S
C1842 C1843 1.356 1_556 S
C1842 C1848 1.379 . S
C1842 N1850 1.356 . S
C1843 C1842 1.356 1_554 S
C1843 C1849 1.370 . S
C1844 C1845 1.371 . S
C1844 C1849 1.379 . S
C1844 N1851 1.356 . S
C1845 C1844 1.371 . S
C1845 C1848 1.355 1_554 S
N1846 C1848 1.356 . S
N1846 H1858 0.984 . S
N1846 H1859 0.985 . S
N1847 C1849 1.356 . S
N1847 H1852 0.984 . S
N1847 H1853 0.985 . S
C1848 C1842 1.379 . S
C1848 C1845 1.355 1_556 S
C1848 N1846 1.356 . S
C1849 C1843 1.370 . S
C1849 C1844 1.379 . S
C1849 N1847 1.356 . S
N1850 C1842 1.356 . S
N1850 H1856 0.984 . S
N1850 H1857 0.984 . S
N1851 C1844 1.356 . S
N1851 H1854 0.984 . S
N1851 H1855 0.985 . S
H1852 N1847 0.984 . S
H1853 N1847 0.985 . S
H1854 N1851 0.984 . S
H1855 N1851 0.985 . S
H1856 N1850 0.984 . S
H1857 N1850 0.984 . S
H1858 N1846 0.984 . S
H1859 N1846 0.985 . S
C1860 C1861 1.361 1_556 S
C1860 C1866 1.379 . S
C1860 N1868 1.356 . S
C1861 C1860 1.361 1_554 S
C1861 C1867 1.365 . S
C1862 C1863 1.363 . S
C1862 C1867 1.379 . S
C1862 N1869 1.356 . S
C1863 C1862 1.363 . S
C1863 C1866 1.363 1_554 S
N1864 C1866 1.356 . S
N1864 H1876 0.984 . S
N1864 H1877 0.985 . S
N1865 C1867 1.356 . S
N1865 H1870 0.984 . S
N1865 H1871 0.985 . S
C1866 C1860 1.379 . S
C1866 C1863 1.363 1_556 S
C1866 N1864 1.356 . S
C1867 C1861 1.365 . S
C1867 C1862 1.379 . S
C1867 N1865 1.356 . S
N1868 C1860 1.356 . S
N1868 H1874 0.984 . S
N1868 H1875 0.984 . S
N1869 C1862 1.356 . S
N1869 H1872 0.984 . S
N1869 H1873 0.985 . S
H1870 N1865 0.984 . S
H1871 N1865 0.985 . S
H1872 N1869 0.984 . S
H1873 N1869 0.985 . S
H1874 N1868 0.984 . S
H1875 N1868 0.984 . S
H1876 N1864 0.984 . S
H1877 N1864 0.985 . S
C1878 C1879 1.370 . S
C1878 C1884 1.379 . S
C1878 N1886 1.356 . S
C1879 C1878 1.370 . S
C1879 C1885 1.356 1_554 S
C1880 C1881 1.355 1_556 S
C1880 C1885 1.379 . S
C1880 N1887 1.356 . S
C1881 C1880 1.355 1_554 S
C1881 C1884 1.371 . S
N1882 C1884 1.356 . S
N1882 H1894 0.984 . S
N1882 H1895 0.985 . S
N1883 C1885 1.356 . S
N1883 H1888 0.984 . S
N1883 H1889 0.985 . S
C1884 C1878 1.379 . S
C1884 C1881 1.371 . S
C1884 N1882 1.356 . S
C1885 C1879 1.356 1_556 S
C1885 C1880 1.379 . S
C1885 N1883 1.356 . S
N1886 C1878 1.356 . S
N1886 H1892 0.984 . S
N1886 H1893 0.984 . S
N1887 C1880 1.356 . S
N1887 H1890 0.984 . S
N1887 H1891 0.985 . S
H1888 N1883 0.984 . S
H1889 N1883 0.985 . S
H1890 N1887 0.984 . S
H1891 N1887 0.985 . S
H1892 N1886 0.984 . S
H1893 N1886 0.984 . S
H1894 N1882 0.984 . S
H1895 N1882 0.985 . S
C1896 C1897 1.367 . S
C1896 C1902 1.379 . S
C1896 N1904 1.356 . S
C1897 C1896 1.367 . S
C1897 C1903 1.359 1_554 S
C1898 C1899 1.362 1_556 S
C1898 C1903 1.379 . S
C1898 N1905 1.356 . S
C1899 C1898 1.362 1_554 S
C1899 C1902 1.364 . S
N1900 C1902 1.356 . S
N1900 H1912 0.984 . S
N1900 H1913 0.985 . S
N1901 C1903 1.356 . S
N1901 H1906 0.984 . S
N1901 H1907 0.985 . S
C1902 C1896 1.379 . S
C1902 C1899 1.364 . S
C1902 N1900 1.356 . S
C1903 C1897 1.359 1_556 S
C1903 C1898 1.379 . S
C1903 N1901 1.356 . S
N1904 C1896 1.356 . S
N1904 H1910 0.984 . S
N1904 H1911 0.984 . S
N1905 C1898 1.356 . S
N1905 H1908 0.984 . S
N1905 H1909 0.985 . S
H1906 N1901 0.984 . S
H1907 N1901 0.985 . S
H1908 N1905 0.984 . S
H1909 N1905 0.985 . S
H1910 N1904 0.984 . S
H1911 N1904 0.984 . S
H1912 N1900 0.984 . S
H1913 N1900 0.985 . S
C1914 C1915 1.366 . S
C1914 C1920 1.379 . S
C1914 N1922 1.356 . S
C1915 C1914 1.366 . S
C1915 C1921 1.360 1_554 S
C1916 C1917 1.362 1_556 S
C1916 C1921 1.379 . S
C1916 N1923 1.356 . S
C1917 C1916 1.362 1_554 S
C1917 C1920 1.364 . S
N1918 C1920 1.356 . S
N1918 H1930 0.984 . S
N1918 H1931 0.985 . S
N1919 C1921 1.356 . S
N1919 H1924 0.984 . S
N1919 H1925 0.985 . S
C1920 C1914 1.379 . S
C1920 C1917 1.364 . S
C1920 N1918 1.356 . S
C1921 C1915 1.360 1_556 S
C1921 C1916 1.379 . S
C1921 N1919 1.356 . S
N1922 C1914 1.356 . S
N1922 H1928 0.984 . S
N1922 H1929 0.984 . S
N1923 C1916 1.356 . S
N1923 H1926 0.984 . S
N1923 H1927 0.985 . S
H1924 N1919 0.984 . S
H1925 N1919 0.985 . S
H1926 N1923 0.984 . S
H1927 N1923 0.985 . S
H1928 N1922 0.984 . S
H1929 N1922 0.984 . S
H1930 N1918 0.984 . S
H1931 N1918 0.985 . S
C1932 C1933 1.363 . S
C1932 C1938 1.379 . S
C1932 N1940 1.356 . S
C1933 C1932 1.363 . S
C1933 C1939 1.363 . S
C1934 C1935 1.363 . S
C1934 C1939 1.379 . S
C1934 N1941 1.356 . S
C1935 C1934 1.363 . S
C1935 C1938 1.363 . S
N1936 C1938 1.356 . S
N1936 H1948 0.984 . S
N1936 H1949 0.985 . S
N1937 C1939 1.356 . S
N1937 H1942 0.984 . S
N1937 H1943 0.985 . S
C1938 C1932 1.379 . S
C1938 C1935 1.363 . S
C1938 N1936 1.356 . S
C1939 C1933 1.363 . S
C1939 C1934 1.379 . S
C1939 N1937 1.356 . S
N1940 C1932 1.356 . S
N1940 H1946 0.984 . S
N1940 H1947 0.984 . S
N1941 C1934 1.356 . S
N1941 H1944 0.984 . S
N1941 H1945 0.985 . S
H1942 N1937 0.984 . S
H1943 N1937 0.985 . S
H1944 N1941 0.984 . S
H1945 N1941 0.985 . S
H1946 N1940 0.984 . S
H1947 N1940 0.984 . S
H1948 N1936 0.984 . S
H1949 N1936 0.985 . S
C1950 C1951 1.363 . S
C1950 C1956 1.379 . S
C1950 N1958 1.356 . S
C1951 C1950 1.363 . S
C1951 C1957 1.363 . S
C1952 C1953 1.363 . S
C1952 C1957 1.379 . S
C1952 N1959 1.356 . S
C1953 C1952 1.363 . S
C1953 C1956 1.363 . S
N1954 C1956 1.356 . S
N1954 H1966 0.984 . S
N1954 H1967 0.985 . S
N1955 C1957 1.356 . S
N1955 H1960 0.984 . S
N1955 H1961 0.985 . S
C1956 C1950 1.379 . S
C1956 C1953 1.363 . S
C1956 N1954 1.356 . S
C1957 C1951 1.363 . S
C1957 C1952 1.379 . S
C1957 N1955 1.356 . S
N1958 C1950 1.356 . S
N1958 H1964 0.984 . S
N1958 H1965 0.984 . S
N1959 C1952 1.356 . S
N1959 H1962 0.984 . S
N1959 H1963 0.985 . S
H1960 N1955 0.984 . S
H1961 N1955 0.985 . S
H1962 N1959 0.984 . S
H1963 N1959 0.985 . S
H1964 N1958 0.984 . S
H1965 N1958 0.984 . S
H1966 N1954 0.984 . S
H1967 N1954 0.985 . S
C1968 C1969 1.363 . S
C1968 C1974 1.379 . S
C1968 N1976 1.356 . S
C1969 C1968 1.363 . S
C1969 C1975 1.363 . S
C1970 C1971 1.363 . S
C1970 C1975 1.379 . S
C1970 N1977 1.356 . S
C1971 C1970 1.363 . S
C1971 C1974 1.363 . S
N1972 C1974 1.356 . S
N1972 H1984 0.984 . S
N1972 H1985 0.985 . S
N1973 C1975 1.356 . S
N1973 H1978 0.984 . S
N1973 H1979 0.985 . S
C1974 C1968 1.379 . S
C1974 C1971 1.363 . S
C1974 N1972 1.356 . S
C1975 C1969 1.363 . S
C1975 C1970 1.379 . S
C1975 N1973 1.356 . S
N1976 C1968 1.356 . S
N1976 H1982 0.984 . S
N1976 H1983 0.984 . S
N1977 C1970 1.356 . S
N1977 H1980 0.984 . S
N1977 H1981 0.985 . S
H1978 N1973 0.984 . S
H1979 N1973 0.985 . S
H1980 N1977 0.984 . S
H1981 N1977 0.985 . S
H1982 N1976 0.984 . S
H1983 N1976 0.984 . S
H1984 N1972 0.984 . S
H1985 N1972 0.985 . S
C1986 C1987 1.363 . S
C1986 C1992 1.379 . S
C1986 N1994 1.356 . S
C1987 C1986 1.363 . S
C1987 C1993 1.363 . S
C1988 C1989 1.363 . S
C1988 C1993 1.379 . S
C1988 N1995 1.356 . S
C1989 C1988 1.363 . S
C1989 C1992 1.363 . S
N1990 C1992 1.356 . S
N1990 H2002 0.984 . S
N1990 H2003 0.985 . S
N1991 C1993 1.356 . S
N1991 H1996 0.984 . S
N1991 H1997 0.985 . S
C1992 C1986 1.379 . S
C1992 C1989 1.363 . S
C1992 N1990 1.356 . S
C1993 C1987 1.363 . S
C1993 C1988 1.379 . S
C1993 N1991 1.356 . S
N1994 C1986 1.356 . S
N1994 H2000 0.984 . S
N1994 H2001 0.984 . S
N1995 C1988 1.356 . S
N1995 H1998 0.984 . S
N1995 H1999 0.985 . S
H1996 N1991 0.984 . S
H1997 N1991 0.985 . S
H1998 N1995 0.984 . S
H1999 N1995 0.985 . S
H2000 N1994 0.984 . S
H2001 N1994 0.984 . S
H2002 N1990 0.984 . S
H2003 N1990 0.985 . S
C2004 C2005 1.363 . S
C2004 C2010 1.379 . S
C2004 N2012 1.356 . S
C2005 C2004 1.363 . S
C2005 C2011 1.363 . S
C2006 C2007 1.363 . S
C2006 C2011 1.379 . S
C2006 N2013 1.356 . S
C2007 C2006 1.363 . S
C2007 C2010 1.363 . S
N2008 C2010 1.356 . S
N2008 H2020 0.984 . S
N2008 H2021 0.985 . S
N2009 C2011 1.356 . S
N2009 H2014 0.984 . S
N2009 H2015 0.985 . S
C2010 C2004 1.379 . S
C2010 C2007 1.363 . S
C2010 N2008 1.356 . S
C2011 C2005 1.363 . S
C2011 C2006 1.379 . S
C2011 N2009 1.356 . S
N2012 C2004 1.356 . S
N2012 H2018 0.984 . S
N2012 H2019 0.984 . S
N2013 C2006 1.356 . S
N2013 H2016 0.984 . S
N2013 H2017 0.985 . S
H2014 N2009 0.984 . S
H2015 N2009 0.985 . S
H2016 N2013 0.984 . S
H2017 N2013 0.985 . S
H2018 N2012 0.984 . S
H2019 N2012 0.984 . S
H2020 N2008 0.984 . S
H2021 N2008 0.985 . S
C2022 C2023 1.363 . S
C2022 C2028 1.379 . S
C2022 N2030 1.356 . S
C2023 C2022 1.363 . S
C2023 C2029 1.363 . S
C2024 C2025 1.363 . S
C2024 C2029 1.379 . S
C2024 N2031 1.356 . S
C2025 C2024 1.363 . S
C2025 C2028 1.363 . S
N2026 C2028 1.356 . S
N2026 H2038 0.984 . S
N2026 H2039 0.985 . S
N2027 C2029 1.356 . S
N2027 H2032 0.984 . S
N2027 H2033 0.985 . S
C2028 C2022 1.379 . S
C2028 C2025 1.363 . S
C2028 N2026 1.356 . S
C2029 C2023 1.363 . S
C2029 C2024 1.379 . S
C2029 N2027 1.356 . S
N2030 C2022 1.356 . S
N2030 H2036 0.984 . S
N2030 H2037 0.984 . S
N2031 C2024 1.356 . S
N2031 H2034 0.984 . S
N2031 H2035 0.985 . S
H2032 N2027 0.984 . S
H2033 N2027 0.985 . S
H2034 N2031 0.984 . S
H2035 N2031 0.985 . S
H2036 N2030 0.984 . S
H2037 N2030 0.984 . S
H2038 N2026 0.984 . S
H2039 N2026 0.985 . S
C2040 C2041 1.363 . S
C2040 C2046 1.379 . S
C2040 N2048 1.356 . S
C2041 C2040 1.363 . S
C2041 C2047 1.363 . S
C2042 C2043 1.363 . S
C2042 C2047 1.379 . S
C2042 N2049 1.356 . S
C2043 C2042 1.363 . S
C2043 C2046 1.363 . S
N2044 C2046 1.356 . S
N2044 H2056 0.984 . S
N2044 H2057 0.985 . S
N2045 C2047 1.356 . S
N2045 H2050 0.984 . S
N2045 H2051 0.985 . S
C2046 C2040 1.379 . S
C2046 C2043 1.363 . S
C2046 N2044 1.356 . S
C2047 C2041 1.363 . S
C2047 C2042 1.379 . S
C2047 N2045 1.356 . S
N2048 C2040 1.356 . S
N2048 H2054 0.984 . S
N2048 H2055 0.984 . S
N2049 C2042 1.356 . S
N2049 H2052 0.984 . S
N2049 H2053 0.985 . S
H2050 N2045 0.984 . S
H2051 N2045 0.985 . S
H2052 N2049 0.984 . S
H2053 N2049 0.985 . S
H2054 N2048 0.984 . S
H2055 N2048 0.984 . S
H2056 N2044 0.984 . S
H2057 N2044 0.985 . S
C2058 C2059 1.363 . S
C2058 C2064 1.379 . S
C2058 N2066 1.356 . S
C2059 C2058 1.363 . S
C2059 C2065 1.363 . S
C2060 C2061 1.363 . S
C2060 C2065 1.379 . S
C2060 N2067 1.356 . S
C2061 C2060 1.363 . S
C2061 C2064 1.363 . S
N2062 C2064 1.356 . S
N2062 H2074 0.984 . S
N2062 H2075 0.985 . S
N2063 C2065 1.356 . S
N2063 H2068 0.984 . S
N2063 H2069 0.985 . S
C2064 C2058 1.379 . S
C2064 C2061 1.363 . S
C2064 N2062 1.356 . S
C2065 C2059 1.363 . S
C2065 C2060 1.379 . S
C2065 N2063 1.356 . S
N2066 C2058 1.356 . S
N2066 H2072 0.984 . S
N2066 H2073 0.984 . S
N2067 C2060 1.356 . S
N2067 H2070 0.984 . S
N2067 H2071 0.985 . S
H2068 N2063 0.984 . S
H2069 N2063 0.985 . S
H2070 N2067 0.984 . S
H2071 N2067 0.985 . S
H2072 N2066 0.984 . S
H2073 N2066 0.984 . S
H2074 N2062 0.984 . S
H2075 N2062 0.985 . S
C2076 C2077 1.363 . S
C2076 C2082 1.379 . S
C2076 N2084 1.356 . S
C2077 C2076 1.363 . S
C2077 C2083 1.363 . S
C2078 C2079 1.363 . S
C2078 C2083 1.379 . S
C2078 N2085 1.356 . S
C2079 C2078 1.363 . S
C2079 C2082 1.363 . S
N2080 C2082 1.356 . S
N2080 H2092 0.984 . S
N2080 H2093 0.985 . S
N2081 C2083 1.356 . S
N2081 H2086 0.984 . S
N2081 H2087 0.985 . S
C2082 C2076 1.379 . S
C2082 C2079 1.363 . S
C2082 N2080 1.356 . S
C2083 C2077 1.363 . S
C2083 C2078 1.379 . S
C2083 N2081 1.356 . S
N2084 C2076 1.356 . S
N2084 H2090 0.984 . S
N2084 H2091 0.984 . S
N2085 C2078 1.356 . S
N2085 H2088 0.984 . S
N2085 H2089 0.985 . S
H2086 N2081 0.984 . S
H2087 N2081 0.985 . S
H2088 N2085 0.984 . S
H2089 N2085 0.985 . S
H2090 N2084 0.984 . S
H2091 N2084 0.984 . S
H2092 N2080 0.984 . S
H2093 N2080 0.985 . S
C2094 C2095 1.363 . S
C2094 C2100 1.379 . S
C2094 N2102 1.356 . S
C2095 C2094 1.363 . S
C2095 C2101 1.363 . S
C2096 C2097 1.363 . S
C2096 C2101 1.379 . S
C2096 N2103 1.356 . S
C2097 C2096 1.363 . S
C2097 C2100 1.363 . S
N2098 C2100 1.356 . S
N2098 H2110 0.984 . S
N2098 H2111 0.985 . S
N2099 C2101 1.356 . S
N2099 H2104 0.984 . S
N2099 H2105 0.985 . S
C2100 C2094 1.379 . S
C2100 C2097 1.363 . S
C2100 N2098 1.356 . S
C2101 C2095 1.363 . S
C2101 C2096 1.379 . S
C2101 N2099 1.356 . S
N2102 C2094 1.356 . S
N2102 H2108 0.984 . S
N2102 H2109 0.984 . S
N2103 C2096 1.356 . S
N2103 H2106 0.984 . S
N2103 H2107 0.985 . S
H2104 N2099 0.984 . S
H2105 N2099 0.985 . S
H2106 N2103 0.984 . S
H2107 N2103 0.985 . S
H2108 N2102 0.984 . S
H2109 N2102 0.984 . S
H2110 N2098 0.984 . S
H2111 N2098 0.985 . S
C2112 C2113 1.363 . S
C2112 C2118 1.379 . S
C2112 N2120 1.356 . S
C2113 C2112 1.363 . S
C2113 C2119 1.363 . S
C2114 C2115 1.363 . S
C2114 C2119 1.379 . S
C2114 N2121 1.356 . S
C2115 C2114 1.363 . S
C2115 C2118 1.363 . S
N2116 C2118 1.356 . S
N2116 H2128 0.984 . S
N2116 H2129 0.985 . S
N2117 C2119 1.356 . S
N2117 H2122 0.984 . S
N2117 H2123 0.985 . S
C2118 C2112 1.379 . S
C2118 C2115 1.363 . S
C2118 N2116 1.356 . S
C2119 C2113 1.363 . S
C2119 C2114 1.379 . S
C2119 N2117 1.356 . S
N2120 C2112 1.356 . S
N2120 H2126 0.984 . S
N2120 H2127 0.984 . S
N2121 C2114 1.356 . S
N2121 H2124 0.984 . S
N2121 H2125 0.985 . S
H2122 N2117 0.984 . S
H2123 N2117 0.985 . S
H2124 N2121 0.984 . S
H2125 N2121 0.985 . S
H2126 N2120 0.984 . S
H2127 N2120 0.984 . S
H2128 N2116 0.984 . S
H2129 N2116 0.985 . S
C2130 C2131 1.363 . S
C2130 C2136 1.379 . S
C2130 N2138 1.356 . S
C2131 C2130 1.363 . S
C2131 C2137 1.363 . S
C2132 C2133 1.363 . S
C2132 C2137 1.379 . S
C2132 N2139 1.356 . S
C2133 C2132 1.363 . S
C2133 C2136 1.363 . S
N2134 C2136 1.356 . S
N2134 H2146 0.984 . S
N2134 H2147 0.985 . S
N2135 C2137 1.356 . S
N2135 H2140 0.984 . S
N2135 H2141 0.985 . S
C2136 C2130 1.379 . S
C2136 C2133 1.363 . S
C2136 N2134 1.356 . S
C2137 C2131 1.363 . S
C2137 C2132 1.379 . S
C2137 N2135 1.356 . S
N2138 C2130 1.356 . S
N2138 H2144 0.984 . S
N2138 H2145 0.984 . S
N2139 C2132 1.356 . S
N2139 H2142 0.984 . S
N2139 H2143 0.985 . S
H2140 N2135 0.984 . S
H2141 N2135 0.985 . S
H2142 N2139 0.984 . S
H2143 N2139 0.985 . S
H2144 N2138 0.984 . S
H2145 N2138 0.984 . S
H2146 N2134 0.984 . S
H2147 N2134 0.985 . S
C2148 C2149 1.363 . S
C2148 C2154 1.379 . S
C2148 N2156 1.356 . S
C2149 C2148 1.363 . S
C2149 C2155 1.363 . S
C2150 C2151 1.363 . S
C2150 C2155 1.379 . S
C2150 N2157 1.356 . S
C2151 C2150 1.363 . S
C2151 C2154 1.363 . S
N2152 C2154 1.356 . S
N2152 H2164 0.984 . S
N2152 H2165 0.985 . S
N2153 C2155 1.356 . S
N2153 H2158 0.984 . S
N2153 H2159 0.985 . S
C2154 C2148 1.379 . S
C2154 C2151 1.363 . S
C2154 N2152 1.356 . S
C2155 C2149 1.363 . S
C2155 C2150 1.379 . S
C2155 N2153 1.356 . S
N2156 C2148 1.356 . S
N2156 H2162 0.984 . S
N2156 H2163 0.984 . S
N2157 C2150 1.356 . S
N2157 H2160 0.984 . S
N2157 H2161 0.985 . S
H2158 N2153 0.984 . S
H2159 N2153 0.985 . S
H2160 N2157 0.984 . S
H2161 N2157 0.985 . S
H2162 N2156 0.984 . S
H2163 N2156 0.984 . S
H2164 N2152 0.984 . S
H2165 N2152 0.985 . S
C2166 C2167 1.363 . S
C2166 C2172 1.379 . S
C2166 N2174 1.356 . S
C2167 C2166 1.363 . S
C2167 C2173 1.363 . S
C2168 C2169 1.363 . S
C2168 C2173 1.379 . S
C2168 N2175 1.356 . S
C2169 C2168 1.363 . S
C2169 C2172 1.363 . S
N2170 C2172 1.356 . S
N2170 H2182 0.984 . S
N2170 H2183 0.985 . S
N2171 C2173 1.356 . S
N2171 H2176 0.984 . S
N2171 H2177 0.985 . S
C2172 C2166 1.379 . S
C2172 C2169 1.363 . S
C2172 N2170 1.356 . S
C2173 C2167 1.363 . S
C2173 C2168 1.379 . S
C2173 N2171 1.356 . S
N2174 C2166 1.356 . S
N2174 H2180 0.984 . S
N2174 H2181 0.984 . S
N2175 C2168 1.356 . S
N2175 H2178 0.984 . S
N2175 H2179 0.985 . S
H2176 N2171 0.984 . S
H2177 N2171 0.985 . S
H2178 N2175 0.984 . S
H2179 N2175 0.985 . S
H2180 N2174 0.984 . S
H2181 N2174 0.984 . S
H2182 N2170 0.984 . S
H2183 N2170 0.985 . S
C2184 C2185 1.363 . S
C2184 C2190 1.379 . S
C2184 N2192 1.356 . S
C2185 C2184 1.363 . S
C2185 C2191 1.363 . S
C2186 C2187 1.363 . S
C2186 C2191 1.379 . S
C2186 N2193 1.356 . S
C2187 C2186 1.363 . S
C2187 C2190 1.363 . S
N2188 C2190 1.356 . S
N2188 H2200 0.984 . S
N2188 H2201 0.985 . S
N2189 C2191 1.356 . S
N2189 H2194 0.984 . S
N2189 H2195 0.985 . S
C2190 C2184 1.379 . S
C2190 C2187 1.363 . S
C2190 N2188 1.356 . S
C2191 C2185 1.363 . S
C2191 C2186 1.379 . S
C2191 N2189 1.356 . S
N2192 C2184 1.356 . S
N2192 H2198 0.984 . S
N2192 H2199 0.984 . S
N2193 C2186 1.356 . S
N2193 H2196 0.984 . S
N2193 H2197 0.985 . S
H2194 N2189 0.984 . S
H2195 N2189 0.985 . S
H2196 N2193 0.984 . S
H2197 N2193 0.985 . S
H2198 N2192 0.984 . S
H2199 N2192 0.984 . S
H2200 N2188 0.984 . S
H2201 N2188 0.985 . S
C2202 C2203 1.363 . S
C2202 C2208 1.379 . S
C2202 N2210 1.356 . S
C2203 C2202 1.363 . S
C2203 C2209 1.363 . S
C2204 C2205 1.363 . S
C2204 C2209 1.379 . S
C2204 N2211 1.356 . S
C2205 C2204 1.363 . S
C2205 C2208 1.363 . S
N2206 C2208 1.356 . S
N2206 H2218 0.984 . S
N2206 H2219 0.985 . S
N2207 C2209 1.356 . S
N2207 H2212 0.984 . S
N2207 H2213 0.985 . S
C2208 C2202 1.379 . S
C2208 C2205 1.363 . S
C2208 N2206 1.356 . S
C2209 C2203 1.363 . S
C2209 C2204 1.379 . S
C2209 N2207 1.356 . S
N2210 C2202 1.356 . S
N2210 H2216 0.984 . S
N2210 H2217 0.984 . S
N2211 C2204 1.356 . S
N2211 H2214 0.984 . S
N2211 H2215 0.985 . S
H2212 N2207 0.984 . S
H2213 N2207 0.985 . S
H2214 N2211 0.984 . S
H2215 N2211 0.985 . S
H2216 N2210 0.984 . S
H2217 N2210 0.984 . S
H2218 N2206 0.984 . S
H2219 N2206 0.985 . S
C2220 C2221 1.363 . S
C2220 C2226 1.379 . S
C2220 N2228 1.356 . S
C2221 C2220 1.363 . S
C2221 C2227 1.363 . S
C2222 C2223 1.363 . S
C2222 C2227 1.379 . S
C2222 N2229 1.356 . S
C2223 C2222 1.363 . S
C2223 C2226 1.363 . S
N2224 C2226 1.356 . S
N2224 H2236 0.984 . S
N2224 H2237 0.985 . S
N2225 C2227 1.356 . S
N2225 H2230 0.984 . S
N2225 H2231 0.985 . S
C2226 C2220 1.379 . S
C2226 C2223 1.363 . S
C2226 N2224 1.356 . S
C2227 C2221 1.363 . S
C2227 C2222 1.379 . S
C2227 N2225 1.356 . S
N2228 C2220 1.356 . S
N2228 H2234 0.984 . S
N2228 H2235 0.984 . S
N2229 C2222 1.356 . S
N2229 H2232 0.984 . S
N2229 H2233 0.985 . S
H2230 N2225 0.984 . S
H2231 N2225 0.985 . S
H2232 N2229 0.984 . S
H2233 N2229 0.985 . S
H2234 N2228 0.984 . S
H2235 N2228 0.984 . S
H2236 N2224 0.984 . S
H2237 N2224 0.985 . S
C2238 C2239 1.363 . S
C2238 C2244 1.379 . S
C2238 N2246 1.356 . S
C2239 C2238 1.363 . S
C2239 C2245 1.363 . S
C2240 C2241 1.363 . S
C2240 C2245 1.379 . S
C2240 N2247 1.356 . S
C2241 C2240 1.363 . S
C2241 C2244 1.363 . S
N2242 C2244 1.356 . S
N2242 H2254 0.984 . S
N2242 H2255 0.985 . S
N2243 C2245 1.356 . S
N2243 H2248 0.984 . S
N2243 H2249 0.985 . S
C2244 C2238 1.379 . S
C2244 C2241 1.363 . S
C2244 N2242 1.356 . S
C2245 C2239 1.363 . S
C2245 C2240 1.379 . S
C2245 N2243 1.356 . S
N2246 C2238 1.356 . S
N2246 H2252 0.984 . S
N2246 H2253 0.984 . S
N2247 C2240 1.356 . S
N2247 H2250 0.984 . S
N2247 H2251 0.985 . S
H2248 N2243 0.984 . S
H2249 N2243 0.985 . S
H2250 N2247 0.984 . S
H2251 N2247 0.985 . S
H2252 N2246 0.984 . S
H2253 N2246 0.984 . S
H2254 N2242 0.984 . S
H2255 N2242 0.985 . S
C2256 C2257 1.363 . S
C2256 C2262 1.379 . S
C2256 N2264 1.356 . S
C2257 C2256 1.363 . S
C2257 C2263 1.363 . S
C2258 C2259 1.363 . S
C2258 C2263 1.379 . S
C2258 N2265 1.356 . S
C2259 C2258 1.363 . S
C2259 C2262 1.363 . S
N2260 C2262 1.356 . S
N2260 H2272 0.984 . S
N2260 H2273 0.985 . S
N2261 C2263 1.356 . S
N2261 H2266 0.984 . S
N2261 H2267 0.985 . S
C2262 C2256 1.379 . S
C2262 C2259 1.363 . S
C2262 N2260 1.356 . S
C2263 C2257 1.363 . S
C2263 C2258 1.379 . S
C2263 N2261 1.356 . S
N2264 C2256 1.356 . S
N2264 H2270 0.984 . S
N2264 H2271 0.984 . S
N2265 C2258 1.356 . S
N2265 H2268 0.984 . S
N2265 H2269 0.985 . S
H2266 N2261 0.984 . S
H2267 N2261 0.985 . S
H2268 N2265 0.984 . S
H2269 N2265 0.985 . S
H2270 N2264 0.984 . S
H2271 N2264 0.984 . S
H2272 N2260 0.984 . S
H2273 N2260 0.985 . S
C2274 C2275 1.363 . S
C2274 C2280 1.379 . S
C2274 N2282 1.356 . S
C2275 C2274 1.363 . S
C2275 C2281 1.363 . S
C2276 C2277 1.363 . S
C2276 C2281 1.379 . S
C2276 N2283 1.356 . S
C2277 C2276 1.363 . S
C2277 C2280 1.363 . S
N2278 C2280 1.356 . S
N2278 H2290 0.984 . S
N2278 H2291 0.985 . S
N2279 C2281 1.356 . S
N2279 H2284 0.984 . S
N2279 H2285 0.985 . S
C2280 C2274 1.379 . S
C2280 C2277 1.363 . S
C2280 N2278 1.356 . S
C2281 C2275 1.363 . S
C2281 C2276 1.379 . S
C2281 N2279 1.356 . S
N2282 C2274 1.356 . S
N2282 H2288 0.984 . S
N2282 H2289 0.984 . S
N2283 C2276 1.356 . S
N2283 H2286 0.984 . S
N2283 H2287 0.985 . S
H2284 N2279 0.984 . S
H2285 N2279 0.985 . S
H2286 N2283 0.984 . S
H2287 N2283 0.985 . S
H2288 N2282 0.984 . S
H2289 N2282 0.984 . S
H2290 N2278 0.984 . S
H2291 N2278 0.985 . S
C2292 C2293 1.363 . S
C2292 C2298 1.379 . S
C2292 N2300 1.356 . S
C2293 C2292 1.363 . S
C2293 C2299 1.363 . S
C2294 C2295 1.363 . S
C2294 C2299 1.379 . S
C2294 N2301 1.356 . S
C2295 C2294 1.363 . S
C2295 C2298 1.363 . S
N2296 C2298 1.356 . S
N2296 H2308 0.984 . S
N2296 H2309 0.985 . S
N2297 C2299 1.356 . S
N2297 H2302 0.984 . S
N2297 H2303 0.985 . S
C2298 C2292 1.379 . S
C2298 C2295 1.363 . S
C2298 N2296 1.356 . S
C2299 C2293 1.363 . S
C2299 C2294 1.379 . S
C2299 N2297 1.356 . S
N2300 C2292 1.356 . S
N2300 H2306 0.984 . S
N2300 H2307 0.984 . S
N2301 C2294 1.356 . S
N2301 H2304 0.984 . S
N2301 H2305 0.985 . S
H2302 N2297 0.984 . S
H2303 N2297 0.985 . S
H2304 N2301 0.984 . S
H2305 N2301 0.985 . S
H2306 N2300 0.984 . S
H2307 N2300 0.984 . S
H2308 N2296 0.984 . S
H2309 N2296 0.985 . S
C2310 C2311 1.363 . S
C2310 C2316 1.379 . S
C2310 N2318 1.356 . S
C2311 C2310 1.363 . S
C2311 C2317 1.363 . S
C2312 C2313 1.363 . S
C2312 C2317 1.379 . S
C2312 N2319 1.356 . S
C2313 C2312 1.363 . S
C2313 C2316 1.363 . S
N2314 C2316 1.356 . S
N2314 H2326 0.984 . S
N2314 H2327 0.985 . S
N2315 C2317 1.356 . S
N2315 H2320 0.984 . S
N2315 H2321 0.985 . S
C2316 C2310 1.379 . S
C2316 C2313 1.363 . S
C2316 N2314 1.356 . S
C2317 C2311 1.363 . S
C2317 C2312 1.379 . S
C2317 N2315 1.356 . S
N2318 C2310 1.356 . S
N2318 H2324 0.984 . S
N2318 H2325 0.984 . S
N2319 C2312 1.356 . S
N2319 H2322 0.984 . S
N2319 H2323 0.985 . S
H2320 N2315 0.984 . S
H2321 N2315 0.985 . S
H2322 N2319 0.984 . S
H2323 N2319 0.985 . S
H2324 N2318 0.984 . S
H2325 N2318 0.984 . S
H2326 N2314 0.984 . S
H2327 N2314 0.985 . S
C2328 C2329 1.363 . S
C2328 C2334 1.379 . S
C2328 N2336 1.356 . S
C2329 C2328 1.363 . S
C2329 C2335 1.363 . S
C2330 C2331 1.363 . S
C2330 C2335 1.379 . S
C2330 N2337 1.356 . S
C2331 C2330 1.363 . S
C2331 C2334 1.363 . S
N2332 C2334 1.356 . S
N2332 H2344 0.984 . S
N2332 H2345 0.985 . S
N2333 C2335 1.356 . S
N2333 H2338 0.984 . S
N2333 H2339 0.985 . S
C2334 C2328 1.379 . S
C2334 C2331 1.363 . S
C2334 N2332 1.356 . S
C2335 C2329 1.363 . S
C2335 C2330 1.379 . S
C2335 N2333 1.356 . S
N2336 C2328 1.356 . S
N2336 H2342 0.984 . S
N2336 H2343 0.984 . S
N2337 C2330 1.356 . S
N2337 H2340 0.984 . S
N2337 H2341 0.985 . S
H2338 N2333 0.984 . S
H2339 N2333 0.985 . S
H2340 N2337 0.984 . S
H2341 N2337 0.985 . S
H2342 N2336 0.984 . S
H2343 N2336 0.984 . S
H2344 N2332 0.984 . S
H2345 N2332 0.985 . S
C2346 C2347 1.363 . S
C2346 C2352 1.379 . S
C2346 N2354 1.356 . S
C2347 C2346 1.363 . S
C2347 C2353 1.363 . S
C2348 C2349 1.363 . S
C2348 C2353 1.379 . S
C2348 N2355 1.356 . S
C2349 C2348 1.363 . S
C2349 C2352 1.363 . S
N2350 C2352 1.356 . S
N2350 H2362 0.984 . S
N2350 H2363 0.985 . S
N2351 C2353 1.356 . S
N2351 H2356 0.984 . S
N2351 H2357 0.985 . S
C2352 C2346 1.379 . S
C2352 C2349 1.363 . S
C2352 N2350 1.356 . S
C2353 C2347 1.363 . S
C2353 C2348 1.379 . S
C2353 N2351 1.356 . S
N2354 C2346 1.356 . S
N2354 H2360 0.984 . S
N2354 H2361 0.984 . S
N2355 C2348 1.356 . S
N2355 H2358 0.984 . S
N2355 H2359 0.985 . S
H2356 N2351 0.984 . S
H2357 N2351 0.985 . S
H2358 N2355 0.984 . S
H2359 N2355 0.985 . S
H2360 N2354 0.984 . S
H2361 N2354 0.984 . S
H2362 N2350 0.984 . S
H2363 N2350 0.985 . S
C1071 C774 1.224 . S
C1069 C765 1.199 . S
C1087 C701 1.212 . S
C1089 C772 1.239 . S
C1107 C773 1.231 . S
C1105 C669 1.205 . S
C1123 C733 1.191 . S
C1125 C775 1.216 . S
C1143 C819 1.225 . S
C1141 C541 1.198 . S
C1161 C879 1.208 . S
C1159 C573 1.182 . S
C1177 C605 1.206 . S
C1179 C818 1.231 . S
C1197 C878 1.232 . S
C1195 C637 1.206 . S
C1213 C413 1.197 . S
C1215 C820 1.224 . S
C1233 C876 1.231 . S
C1231 C445 1.205 . S
C1249 C477 1.190 . S
C1251 C821 1.217 . S
C1267 C509 1.181 . S
C1269 C877 1.206 . S
C1287 C927 1.219 . S
C1285 C381 1.196 . S
C1303 C317 1.213 1_554 S
C1305 C926 1.244 . S
C1321 C285 1.205 1_554 S
C1323 C928 1.235 . S
C1341 C929 1.211 . S
C1339 C349 1.182 1_554 S
C1357 C157 1.194 1_455 S
C1359 C970 1.220 . S
C1375 C189 1.182 1_545 S
C1377 C1029 1.208 . S
C1393 C221 1.202 . S
C1395 C968 1.228 . S
C1411 C253 1.196 . S
C1413 C1028 1.222 . S
C1431 C969 1.229 . S
C1429 C29 1.203 1_455 S
C1449 C1026 1.231 . S
C1447 C61 1.205 1_545 S
C1465 C93 1.196 . S
C1467 C971 1.222 . S
C1485 C1027 1.217 . S
C1483 C125 1.191 1_545 S
C1503 C771 1.865 . S
C1501 C23 1.725 1_455 S
C1519 C55 1.715 1_545 S
C1521 C777 1.857 . S
C1537 C87 1.718 . S
C1539 C769 1.861 . S
C1555 C113 1.716 1_545 S
C1557 C776 1.838 . S
C1573 C151 1.720 1_455 S
C1575 C768 1.862 . S
C1593 C778 1.850 . S
C1591 C183 1.706 1_545 S
C1609 C215 1.725 . S
C1611 C770 1.867 . S
C1629 C779 1.854 . S
C1627 C247 1.713 . S
C1647 C825 1.850 . S
C1645 C119 1.707 1_545 S
C1663 C17 1.727 1_455 S
C1665 C868 1.849 . S
C1683 C823 1.843 . S
C1681 C49 1.721 1_545 S
C1701 C870 1.847 . S
C1699 C81 1.726 . S
C1717 C177 1.714 1_545 S
C1719 C824 1.837 . S
C1737 C869 1.849 . S
C1735 C209 1.728 . S
C1755 C822 1.842 . S
C1753 C241 1.721 . S
C1773 C871 1.847 . S
C1771 C145 1.725 1_455 S
C1791 C875 1.871 . S
C1789 C279 1.727 1_554 S
C1807 C305 1.740 1_554 S
C1809 C874 1.861 . S
C1827 C826 1.858 . S
C1825 C273 1.737 1_554 S
C1845 C873 1.847 . S
C1843 C337 1.723 1_554 S
C1861 C375 1.725 . S
C1863 C829 1.866 . S
C1879 C369 1.730 . S
C1881 C872 1.851 . S
C1899 C828 1.872 . S
C1897 C311 1.729 1_554 S
C1917 C827 1.866 . S
C1915 C343 1.723 1_554 S
C1935 C921 1.865 . S
C1933 C407 1.724 . S
C1953 C924 1.857 . S
C1951 C439 1.716 . S
C1969 C471 1.718 . S
C1971 C920 1.860 . S
C1989 C922 1.838 . S
C1987 C497 1.715 . S
C2007 C918 1.861 . S
C2005 C535 1.720 . S
C2023 C561 1.715 . S
C2025 C923 1.837 . S
C2041 C599 1.724 . S
C2043 C919 1.866 . S
C2061 C925 1.856 . S
C2059 C631 1.715 . S
C2079 C979 1.849 . S
C2077 C503 1.705 . S
C2095 C401 1.725 . S
C2097 C1018 1.847 . S
C2115 C978 1.842 . S
C2113 C433 1.721 . S
C2133 C1020 1.845 . S
C2131 C465 1.723 . S
C2151 C977 1.848 . S
C2149 C567 1.705 . S
C2167 C593 1.731 . S
C2169 C1019 1.852 . S
C2187 C976 1.842 . S
C2185 C625 1.721 . S
C2205 C1021 1.850 . S
C2203 C529 1.728 . S
C2223 C1025 1.868 . S
C2221 C663 1.726 . S
C2239 C689 1.738 . S
C2241 C1024 1.858 . S
C2259 C972 1.859 . S
C2257 C657 1.739 . S
C2275 C721 1.727 . S
C2277 C1023 1.849 . S
C2295 C975 1.866 . S
C2293 C759 1.725 . S
C2313 C1022 1.853 . S
C2311 C753 1.731 . S
C2331 C973 1.873 . S
C2329 C695 1.731 . S
C2347 C727 1.723 . S
C2349 C974 1.866 . S
