# Generated by pormake.
# Topology llk, (3,12)-cn, num edge types: 1
# Building blocks:
#     Node 0, Type 0, BuildingBlock: MIDCAF_clean_linker_0, # of connection points: 3
#     Node 1, Type 0, BuildingBlock: MIDCAF_clean_linker_0, # of connection points: 3
#     Node 2, Type 0, BuildingBlock: MIDCAF_clean_linker_0, # of connection points: 3
#     Node 3, Type 0, BuildingBlock: MIDCAF_clean_linker_0, # of connection points: 3
#     Node 4, Type 0, BuildingBlock: MIDCAF_clean_linker_0, # of connection points: 3
#     Node 5, Type 0, BuildingBlock: MIDCAF_clean_linker_0, # of connection points: 3
#     Node 6, Type 0, BuildingBlock: MIDCAF_clean_linker_0, # of connection points: 3
#     Node 7, Type 0, BuildingBlock: MIDCAF_clean_linker_0, # of connection points: 3
#     Node 8, Type 0, BuildingBlock: MIDCAF_clean_linker_0, # of connection points: 3
#     Node 9, Type 0, BuildingBlock: MIDCAF_clean_linker_0, # of connection points: 3
#     Node 10, Type 0, BuildingBlock: MIDCAF_clean_linker_0, # of connection points: 3
#     Node 11, Type 0, BuildingBlock: MIDCAF_clean_linker_0, # of connection points: 3
#     Node 12, Type 0, BuildingBlock: MIDCAF_clean_linker_0, # of connection points: 3
#     Node 13, Type 0, BuildingBlock: MIDCAF_clean_linker_0, # of connection points: 3
#     Node 14, Type 0, BuildingBlock: MIDCAF_clean_linker_0, # of connection points: 3
#     Node 15, Type 0, BuildingBlock: MIDCAF_clean_linker_0, # of connection points: 3
#     Node 16, Type 0, BuildingBlock: MIDCAF_clean_linker_0, # of connection points: 3
#     Node 17, Type 0, BuildingBlock: MIDCAF_clean_linker_0, # of connection points: 3
#     Node 18, Type 0, BuildingBlock: MIDCAF_clean_linker_0, # of connection points: 3
#     Node 19, Type 0, BuildingBlock: MIDCAF_clean_linker_0, # of connection points: 3
#     Node 20, Type 0, BuildingBlock: MIDCAF_clean_linker_0, # of connection points: 3
#     Node 21, Type 0, BuildingBlock: MIDCAF_clean_linker_0, # of connection points: 3
#     Node 22, Type 0, BuildingBlock: MIDCAF_clean_linker_0, # of connection points: 3
#     Node 23, Type 0, BuildingBlock: MIDCAF_clean_linker_0, # of connection points: 3
#     Node 24, Type 1, BuildingBlock: EZIPEK_clean_sbu_0, # of connection points: 12
#     Node 25, Type 1, BuildingBlock: EZIPEK_clean_sbu_0, # of connection points: 12
#     Node 26, Type 1, BuildingBlock: EZIPEK_clean_sbu_0, # of connection points: 12
#     Node 27, Type 1, BuildingBlock: EZIPEK_clean_sbu_0, # of connection points: 12
#     Node 28, Type 1, BuildingBlock: EZIPEK_clean_sbu_0, # of connection points: 12
#     Node 29, Type 1, BuildingBlock: EZIPEK_clean_sbu_0, # of connection points: 12
#     Edge 30, Type (0, 1), BuildingBlock: XIVTED_clean_linker_0, # of connection points: 2
#     Edge 31, Type (0, 1), BuildingBlock: XIVTED_clean_linker_0, # of connection points: 2
#     Edge 32, Type (0, 1), BuildingBlock: XIVTED_clean_linker_0, # of connection points: 2
#     Edge 33, Type (0, 1), BuildingBlock: XIVTED_clean_linker_0, # of connection points: 2
#     Edge 34, Type (0, 1), BuildingBlock: XIVTED_clean_linker_0, # of connection points: 2
#     Edge 35, Type (0, 1), BuildingBlock: XIVTED_clean_linker_0, # of connection points: 2
#     Edge 36, Type (0, 1), BuildingBlock: XIVTED_clean_linker_0, # of connection points: 2
#     Edge 37, Type (0, 1), BuildingBlock: XIVTED_clean_linker_0, # of connection points: 2
#     Edge 38, Type (0, 1), BuildingBlock: XIVTED_clean_linker_0, # of connection points: 2
#     Edge 39, Type (0, 1), BuildingBlock: XIVTED_clean_linker_0, # of connection points: 2
#     Edge 40, Type (0, 1), BuildingBlock: XIVTED_clean_linker_0, # of connection points: 2
#     Edge 41, Type (0, 1), BuildingBlock: XIVTED_clean_linker_0, # of connection points: 2
#     Edge 42, Type (0, 1), BuildingBlock: XIVTED_clean_linker_0, # of connection points: 2
#     Edge 43, Type (0, 1), BuildingBlock: XIVTED_clean_linker_0, # of connection points: 2
#     Edge 44, Type (0, 1), BuildingBlock: XIVTED_clean_linker_0, # of connection points: 2
#     Edge 45, Type (0, 1), BuildingBlock: XIVTED_clean_linker_0, # of connection points: 2
#     Edge 46, Type (0, 1), BuildingBlock: XIVTED_clean_linker_0, # of connection points: 2
#     Edge 47, Type (0, 1), BuildingBlock: XIVTED_clean_linker_0, # of connection points: 2
#     Edge 48, Type (0, 1), BuildingBlock: XIVTED_clean_linker_0, # of connection points: 2
#     Edge 49, Type (0, 1), BuildingBlock: XIVTED_clean_linker_0, # of connection points: 2
#     Edge 50, Type (0, 1), BuildingBlock: XIVTED_clean_linker_0, # of connection points: 2
#     Edge 51, Type (0, 1), BuildingBlock: XIVTED_clean_linker_0, # of connection points: 2
#     Edge 52, Type (0, 1), BuildingBlock: XIVTED_clean_linker_0, # of connection points: 2
#     Edge 53, Type (0, 1), BuildingBlock: XIVTED_clean_linker_0, # of connection points: 2
#     Edge 54, Type (0, 1), BuildingBlock: XIVTED_clean_linker_0, # of connection points: 2
#     Edge 55, Type (0, 1), BuildingBlock: XIVTED_clean_linker_0, # of connection points: 2
#     Edge 56, Type (0, 1), BuildingBlock: XIVTED_clean_linker_0, # of connection points: 2
#     Edge 57, Type (0, 1), BuildingBlock: XIVTED_clean_linker_0, # of connection points: 2
#     Edge 58, Type (0, 1), BuildingBlock: XIVTED_clean_linker_0, # of connection points: 2
#     Edge 59, Type (0, 1), BuildingBlock: XIVTED_clean_linker_0, # of connection points: 2
#     Edge 60, Type (0, 1), BuildingBlock: XIVTED_clean_linker_0, # of connection points: 2
#     Edge 61, Type (0, 1), BuildingBlock: XIVTED_clean_linker_0, # of connection points: 2
#     Edge 62, Type (0, 1), BuildingBlock: XIVTED_clean_linker_0, # of connection points: 2
#     Edge 63, Type (0, 1), BuildingBlock: XIVTED_clean_linker_0, # of connection points: 2
#     Edge 64, Type (0, 1), BuildingBlock: XIVTED_clean_linker_0, # of connection points: 2
#     Edge 65, Type (0, 1), BuildingBlock: XIVTED_clean_linker_0, # of connection points: 2
#     Edge 66, Type (0, 1), BuildingBlock: XIVTED_clean_linker_0, # of connection points: 2
#     Edge 67, Type (0, 1), BuildingBlock: XIVTED_clean_linker_0, # of connection points: 2
#     Edge 68, Type (0, 1), BuildingBlock: XIVTED_clean_linker_0, # of connection points: 2
#     Edge 69, Type (0, 1), BuildingBlock: XIVTED_clean_linker_0, # of connection points: 2
#     Edge 70, Type (0, 1), BuildingBlock: XIVTED_clean_linker_0, # of connection points: 2
#     Edge 71, Type (0, 1), BuildingBlock: XIVTED_clean_linker_0, # of connection points: 2
#     Edge 72, Type (0, 1), BuildingBlock: XIVTED_clean_linker_0, # of connection points: 2
#     Edge 73, Type (0, 1), BuildingBlock: XIVTED_clean_linker_0, # of connection points: 2
#     Edge 74, Type (0, 1), BuildingBlock: XIVTED_clean_linker_0, # of connection points: 2
#     Edge 75, Type (0, 1), BuildingBlock: XIVTED_clean_linker_0, # of connection points: 2
#     Edge 76, Type (0, 1), BuildingBlock: XIVTED_clean_linker_0, # of connection points: 2
#     Edge 77, Type (0, 1), BuildingBlock: XIVTED_clean_linker_0, # of connection points: 2
#     Edge 78, Type (0, 1), BuildingBlock: XIVTED_clean_linker_0, # of connection points: 2
#     Edge 79, Type (0, 1), BuildingBlock: XIVTED_clean_linker_0, # of connection points: 2
#     Edge 80, Type (0, 1), BuildingBlock: XIVTED_clean_linker_0, # of connection points: 2
#     Edge 81, Type (0, 1), BuildingBlock: XIVTED_clean_linker_0, # of connection points: 2
#     Edge 82, Type (0, 1), BuildingBlock: XIVTED_clean_linker_0, # of connection points: 2
#     Edge 83, Type (0, 1), BuildingBlock: XIVTED_clean_linker_0, # of connection points: 2
#     Edge 84, Type (0, 1), BuildingBlock: XIVTED_clean_linker_0, # of connection points: 2
#     Edge 85, Type (0, 1), BuildingBlock: XIVTED_clean_linker_0, # of connection points: 2
#     Edge 86, Type (0, 1), BuildingBlock: XIVTED_clean_linker_0, # of connection points: 2
#     Edge 87, Type (0, 1), BuildingBlock: XIVTED_clean_linker_0, # of connection points: 2
#     Edge 88, Type (0, 1), BuildingBlock: XIVTED_clean_linker_0, # of connection points: 2
#     Edge 89, Type (0, 1), BuildingBlock: XIVTED_clean_linker_0, # of connection points: 2
#     Edge 90, Type (0, 1), BuildingBlock: XIVTED_clean_linker_0, # of connection points: 2
#     Edge 91, Type (0, 1), BuildingBlock: XIVTED_clean_linker_0, # of connection points: 2
#     Edge 92, Type (0, 1), BuildingBlock: XIVTED_clean_linker_0, # of connection points: 2
#     Edge 93, Type (0, 1), BuildingBlock: XIVTED_clean_linker_0, # of connection points: 2
#     Edge 94, Type (0, 1), BuildingBlock: XIVTED_clean_linker_0, # of connection points: 2
#     Edge 95, Type (0, 1), BuildingBlock: XIVTED_clean_linker_0, # of connection points: 2
#     Edge 96, Type (0, 1), BuildingBlock: XIVTED_clean_linker_0, # of connection points: 2
#     Edge 97, Type (0, 1), BuildingBlock: XIVTED_clean_linker_0, # of connection points: 2
#     Edge 98, Type (0, 1), BuildingBlock: XIVTED_clean_linker_0, # of connection points: 2
#     Edge 99, Type (0, 1), BuildingBlock: XIVTED_clean_linker_0, # of connection points: 2
#     Edge 100, Type (0, 1), BuildingBlock: XIVTED_clean_linker_0, # of connection points: 2
#     Edge 101, Type (0, 1), BuildingBlock: XIVTED_clean_linker_0, # of connection points: 2
# Relax obj value: 0.107
# Max RMSD: 0.161
# Mean RMSD: 0.134
data_MOF--net-llk--node1-EZIPEK_clean_sbu_0--node2-MIDCAF_clean_linker_0--edge1-XIVTED_clean_linker_0
_symmetry_space_group_name_H-M    P1
_symmetry_Int_Tables_number       1
_symmetry_cell_setting            triclinic
loop_
_symmetry_equiv_pos_as_xyz
'x, y, z'
_cell_length_a     56.244183
_cell_length_b     56.231725
_cell_length_c     56.193112
_cell_angle_alpha  89.936382
_cell_angle_beta   89.975485
_cell_angle_gamma 89.918532
loop_
_atom_site_label
_atom_site_type_symbol
_atom_site_fract_x
_atom_site_fract_y
_atom_site_fract_z
_atom_type_partial_charge
C0 C 0.01397 0.28947 0.18122 0.0
C1 C 0.99431 0.30253 0.17272 0.0
C2 C 0.97156 0.29671 0.18122 0.0
C3 C 0.96873 0.27994 0.19933 0.0
H4 H 0.0321 0.22231 0.28897 0.0
H5 H 0.03832 0.19003 0.31744 0.0
H6 H 0.97536 0.155 0.29099 0.0
H7 H 0.96956 0.18724 0.2623 0.0
H8 H 0.96262 0.25784 0.31973 0.0
H9 H 0.95763 0.28726 0.35109 0.0
H10 H 0.96361 0.34358 0.29898 0.0
H11 H 0.96767 0.31434 0.26767 0.0
H12 H 0.02672 0.26442 0.20733 0.0
H13 H 0.03173 0.29354 0.175 0.0
H14 H 0.95601 0.30606 0.17472 0.0
H15 H 0.95115 0.27726 0.20676 0.0
N16 N 0.99447 0.23686 0.24051 0.0
N17 N 0.982 0.24486 0.27977 0.0
N18 N 0.97591 0.27319 0.25014 0.0
C19 C 0.99204 0.22991 0.26376 0.0
C20 C 0.9739 0.2665 0.27314 0.0
C21 C 0.98598 0.25868 0.23372 0.0
C22 C 1.00071 0.20695 0.27303 0.0
C23 C 0.02033 0.20708 0.28847 0.0
C24 C 0.02357 0.18881 0.30513 0.0
C25 C 0.00709 0.17008 0.3069 0.0
C26 C 0.98851 0.16902 0.2901 0.0
C27 C 0.98529 0.18735 0.27342 0.0
C28 C 0.96606 0.28376 0.29128 0.0
C29 C 0.96234 0.2765 0.31492 0.0
C30 C 0.95959 0.29335 0.3329 0.0
C31 C 0.96074 0.31776 0.32761 0.0
C32 C 0.9625 0.32494 0.30372 0.0
C33 C 0.96499 0.30811 0.28572 0.0
C34 C 0.98853 0.26847 0.20941 0.0
C35 C 0.0111 0.27259 0.19953 0.0
C36 C 0.71065 0.01437 0.19066 0.0
C37 C 0.69781 0.99535 0.18064 0.0
C38 C 0.70422 0.97201 0.18682 0.0
C39 C 0.72137 0.96779 0.20424 0.0
H40 H 0.77849 0.02772 0.29396 0.0
H41 H 0.81036 0.03516 0.32259 0.0
H42 H 0.84749 0.97291 0.29698 0.0
H43 H 0.81577 0.96598 0.2682 0.0
H44 H 0.74793 0.95183 0.32325 0.0
H45 H 0.71925 0.94549 0.35508 0.0
H46 H 0.66189 0.95126 0.30417 0.0
H47 H 0.69037 0.95654 0.27244 0.0
H48 H 0.73605 0.02506 0.21724 0.0
H49 H 0.70613 0.03257 0.1862 0.0
H50 H 0.69507 0.95696 0.17904 0.0
H51 H 0.72458 0.94962 0.20988 0.0
N52 N 0.76467 0.99151 0.24648 0.0
N53 N 0.75902 0.97436 0.28436 0.0
N54 N 0.73024 0.96932 0.25504 0.0
C55 C 0.7726 0.98711 0.26907 0.0
C56 C 0.7378 0.96544 0.27753 0.0
C57 C 0.74341 0.9821 0.23939 0.0
C58 C 0.79503 0.99665 0.2785 0.0
C59 C 0.79411 0.01642 0.29369 0.0
C60 C 0.81213 0.02035 0.31042 0.0
C61 C 0.83135 0.00441 0.31245 0.0
C62 C 0.83312 0.9857 0.29588 0.0
C63 C 0.81507 0.98181 0.27916 0.0
C64 C 0.7214 0.95539 0.29542 0.0
C65 C 0.72921 0.95106 0.31878 0.0
C66 C 0.71277 0.94754 0.33705 0.0
C67 C 0.68825 0.94856 0.33231 0.0
C68 C 0.68061 0.95034 0.30855 0.0
C69 C 0.69703 0.95355 0.29028 0.0
C70 C 0.73264 0.98676 0.21587 0.0
C71 C 0.72795 0.0101 0.20824 0.0
C72 C 0.01192 0.71142 0.18903 0.0
C73 C 0.99341 0.69709 0.18015 0.0
C74 C 0.9701 0.70143 0.18796 0.0
C75 C 0.96563 0.71811 0.20574 0.0
H76 H 0.96989 0.81588 0.2655 0.0
H77 H 0.97786 0.84796 0.29367 0.0
H78 H 0.03488 0.80652 0.32441 0.0
H79 H 0.02638 0.77438 0.29645 0.0
H80 H 0.96345 0.74297 0.32635 0.0
H81 H 0.95624 0.71216 0.35553 0.0
H82 H 0.93151 0.66517 0.3 0.0
H83 H 0.93946 0.69587 0.2705 0.0
H84 H 0.02218 0.73766 0.21496 0.0
H85 H 0.03007 0.70851 0.18328 0.0
H86 H 0.95538 0.69112 0.18107 0.0
H87 H 0.94763 0.71988 0.21243 0.0
N88 N 0.9907 0.76288 0.24661 0.0
N89 N 0.97384 0.75813 0.28473 0.0
N90 N 0.96673 0.72973 0.25547 0.0
C91 C 0.98706 0.77103 0.26924 0.0
C92 C 0.96358 0.73748 0.27801 0.0
C93 C 0.98008 0.74214 0.23965 0.0
C94 C 0.99788 0.79294 0.27849 0.0
C95 C 0.98489 0.81422 0.27749 0.0
C96 C 0.98935 0.83249 0.29384 0.0
C97 C 0.00677 0.82969 0.31166 0.0
C98 C 0.02104 0.80912 0.31127 0.0
C99 C 0.01654 0.7909 0.29493 0.0
C100 C 0.95278 0.72162 0.29598 0.0
C101 C 0.95588 0.72632 0.32034 0.0
C102 C 0.95157 0.70863 0.33718 0.0
C103 C 0.94386 0.68598 0.33001 0.0
C104 C 0.93809 0.68224 0.30597 0.0
C105 C 0.94257 0.69989 0.28908 0.0
C106 C 0.98431 0.73095 0.2162 0.0
C107 C 0.0074 0.72825 0.207 0.0
C108 C 0.28434 0.98506 0.17176 0.0
C109 C 0.29639 0.00601 0.16517 0.0
C110 C 0.2889 0.02768 0.17514 0.0
C111 C 0.27158 0.02811 0.193 0.0
H112 H 0.20679 0.96181 0.27559 0.0
H113 H 0.17552 0.96009 0.30571 0.0
H114 H 0.15851 0.03375 0.29191 0.0
H115 H 0.18965 0.03514 0.26154 0.0
H116 H 0.25929 0.01546 0.31409 0.0
H117 H 0.29035 0.0169 0.34413 0.0
H118 H 0.34357 0.00616 0.28964 0.0
H119 H 0.31264 0.00543 0.25949 0.0
H120 H 0.25991 0.96884 0.1963 0.0
H121 H 0.2897 0.96805 0.16449 0.0
H122 H 0.29748 0.04419 0.17018 0.0
H123 H 0.26791 0.04477 0.20197 0.0
N124 N 0.22995 1.0027 0.23281 0.0
N125 N 0.24185 0.00473 0.27298 0.0
N126 N 0.27011 0.00892 0.24299 0.0
C127 C 0.22445 1.00204 0.25655 0.0
C128 C 0.26467 0.00817 0.26637 0.0
C129 C 0.25311 0.00627 0.22616 0.0
C130 C 0.20023 0.99843 0.26583 0.0
C131 C 0.19547 0.97721 0.27814 0.0
C132 C 0.17791 0.97642 0.29577 0.0
C133 C 0.1648 0.99692 0.30166 0.0
C134 C 0.16815 0.01758 0.28783 0.0
C135 C 0.1858 0.01834 0.27016 0.0
C136 C 0.2835 0.0102 0.28443 0.0
C137 C 0.27763 0.01352 0.30849 0.0
C138 C 0.2954 0.01424 0.32572 0.0
C139 C 0.31936 0.01147 0.31925 0.0
C140 C 0.32528 0.00864 0.29514 0.0
C141 C 0.30752 0.0081 0.27788 0.0
C142 C 0.26126 0.00692 0.20125 0.0
C143 C 0.267 0.98551 0.18975 0.0
C144 C 0.02612 0.6958 0.81376 0.0
C145 C 0.01601 0.70083 0.83612 0.0
C146 C 0.00379 0.72267 0.83884 0.0
C147 C 0.9999 0.73779 0.81922 0.0
H148 H 0.02402 0.80456 0.74976 0.0
H149 H 0.02841 0.83961 0.72411 0.0
H150 H 0.95799 0.82694 0.69577 0.0
H151 H 0.95334 0.79375 0.72221 0.0
H152 H 0.95467 0.73935 0.69657 0.0
H153 H 0.94815 0.71011 0.66533 0.0
H154 H 0.97439 0.65469 0.71182 0.0
H155 H 0.98024 0.68357 0.74314 0.0
H156 H 0.02893 0.70544 0.77709 0.0
H157 H 0.03539 0.67925 0.8105 0.0
H158 H 0.9962 0.72759 0.85584 0.0
H159 H 0.98868 0.75332 0.82136 0.0
N160 N 0.99788 0.76472 0.76844 0.0
N161 N 0.97714 0.75512 0.7333 0.0
N162 N 0.98714 0.72511 0.75996 0.0
C163 C 0.98743 0.77168 0.7475 0.0
C164 C 0.9769 0.73188 0.73934 0.0
C165 C 0.99742 0.74114 0.77471 0.0
C166 C 0.98838 0.79632 0.73798 0.0
C167 C 0.00921 0.81005 0.73875 0.0
C168 C 0.01184 0.82987 0.72359 0.0
C169 C 0.99377 0.83622 0.70724 0.0
C170 C 0.97236 0.82329 0.70801 0.0
C171 C 0.96967 0.80391 0.72325 0.0
C172 C 0.96849 0.71387 0.7222 0.0
C173 C 0.95857 0.72082 0.70031 0.0
C174 C 0.95491 0.70412 0.68235 0.0
C175 C 0.96116 0.68018 0.68594 0.0
C176 C 0.96924 0.67296 0.70847 0.0
C177 C 0.97278 0.68961 0.72645 0.0
C178 C 0.00837 0.73147 0.79661 0.0
C179 C 0.02243 0.71092 0.79441 0.0
C180 C 0.2008 0.98803 0.70117 0.0
C181 C 0.18037 1.0025 0.70076 0.0
C182 C 0.17801 0.02029 0.71825 0.0
C183 C 0.19654 0.02485 0.73432 0.0
H184 H 0.29012 0.06255 0.79842 0.0
H185 H 0.31894 0.05624 0.83008 0.0
H186 H 0.30416 0.98094 0.8288 0.0
H187 H 0.2749 0.98742 0.79689 0.0
H188 H 0.32159 0.0533 0.73654 0.0
H189 H 0.34928 0.05826 0.70404 0.0
H190 H 0.29067 0.06314 0.65448 0.0
H191 H 0.2628 0.05712 0.68709 0.0
H192 H 0.23562 0.9825 0.71574 0.0
H193 H 0.20308 0.97392 0.68827 0.0
H194 H 0.16265 0.03193 0.7184 0.0
H195 H 0.19519 0.04008 0.74604 0.0
N196 N 0.24803 0.01886 0.76504 0.0
N197 N 0.28191 0.04144 0.75529 0.0
N198 N 0.25303 0.03456 0.72645 0.0
C199 C 0.26916 0.029 0.77157 0.0
C200 C 0.27407 0.04426 0.73274 0.0
C201 C 0.23983 0.02214 0.74234 0.0
C202 C 0.28026 0.02548 0.7952 0.0
C203 C 0.29246 0.04472 0.80541 0.0
C204 C 0.30921 0.04107 0.82334 0.0
C205 C 0.31433 0.01802 0.83153 0.0
C206 C 0.30067 0.99891 0.8228 0.0
C207 C 0.28376 1.00262 0.8047 0.0
C208 C 0.29001 0.05405 0.7143 0.0
C209 C 0.31449 0.05603 0.71883 0.0
C210 C 0.33046 0.05906 0.70011 0.0
C211 C 0.32223 0.06048 0.67653 0.0
C212 C 0.29759 0.06134 0.67238 0.0
C213 C 0.28162 0.05801 0.69108 0.0
C214 C 0.21764 0.01155 0.73339 0.0
C215 C 0.21926 0.9926 0.71724 0.0
C216 C 0.00988 0.2916 0.83522 0.0
C217 C 0.99267 0.30974 0.83299 0.0
C218 C 0.97734 0.30918 0.81322 0.0
C219 C 0.98058 0.29238 0.79513 0.0
H220 H 0.05146 0.20739 0.73002 0.0
H221 H 0.04749 0.17509 0.70145 0.0
H222 H 0.97131 0.17646 0.71059 0.0
H223 H 0.97542 0.20904 0.73949 0.0
H224 H 0.05048 0.26569 0.69556 0.0
H225 H 0.05829 0.29447 0.66415 0.0
H226 H 0.03448 0.35114 0.71032 0.0
H227 H 0.02731 0.32265 0.74184 0.0
H228 H 0.02791 0.26249 0.81819 0.0
H229 H 0.02214 0.2915 0.85008 0.0
H230 H 0.96359 0.32251 0.81109 0.0
H231 H 0.96989 0.29377 0.77915 0.0
N232 N 0.00648 0.24238 0.76764 0.0
N233 N 0.02704 0.25105 0.73215 0.0
N234 N 0.01928 0.2814 0.75921 0.0
C235 C 0.0161 0.23504 0.74649 0.0
C236 C 0.02865 0.27421 0.73828 0.0
C237 C 0.00848 0.26579 0.77406 0.0
C238 C 0.01377 0.21061 0.73709 0.0
C239 C 0.03393 0.20014 0.72668 0.0
C240 C 0.03163 0.18188 0.71003 0.0
C241 C 0.00906 0.17363 0.7033 0.0
C242 C 0.98895 0.18249 0.71538 0.0
C243 C 0.99129 0.20094 0.73213 0.0
C244 C 0.03778 0.29181 0.72105 0.0
C245 C 0.04739 0.28435 0.69919 0.0
C246 C 0.05179 0.30081 0.68114 0.0
C247 C 0.04661 0.32501 0.6846 0.0
C248 C 0.03882 0.33266 0.7071 0.0
C249 C 0.03453 0.31623 0.72517 0.0
C250 C 0.99902 0.27557 0.79647 0.0
C251 C 0.01307 0.27474 0.81708 0.0
C252 C 0.83346 0.01553 0.7233 0.0
C253 C 0.83884 0.99595 0.70859 0.0
C254 C 0.82667 0.97449 0.71245 0.0
C255 C 0.80808 0.97325 0.72888 0.0
H256 H 0.72584 0.04259 0.79387 0.0
H257 H 0.69802 0.04645 0.82699 0.0
H258 H 0.71964 0.97742 0.85297 0.0
H259 H 0.74779 0.97393 0.81989 0.0
H260 H 0.68848 1.00046 0.74619 0.0
H261 H 0.65832 0.99832 0.71536 0.0
H262 H 0.71041 0.97047 0.66612 0.0
H263 H 0.74082 0.97315 0.69675 0.0
H264 H 0.80944 0.0302 0.74931 0.0
H265 H 0.84249 0.03234 0.72078 0.0
H266 H 0.83068 0.95892 0.70183 0.0
H267 H 0.79779 0.957 0.72998 0.0
N268 N 0.77094 1.00074 0.77403 0.0
N269 N 0.73033 0.99732 0.76422 0.0
N270 N 0.75908 0.98937 0.73548 0.0
C271 C 0.74748 1.00202 0.78047 0.0
C272 C 0.73595 0.99094 0.74175 0.0
C273 C 0.77664 0.99424 0.75124 0.0
C274 C 0.73931 0.0082 0.80462 0.0
C275 C 0.7255 0.02882 0.80738 0.0
C276 C 0.7092 0.03078 0.82609 0.0
C277 C 0.70614 0.01201 0.84238 0.0
C278 C 0.72154 0.99227 0.84083 0.0
C279 C 0.73791 0.99035 0.82205 0.0
C280 C 0.71713 0.98723 0.72386 0.0
C281 C 0.6935 0.99363 0.72888 0.0
C282 C 0.67614 0.99229 0.71123 0.0
C283 C 0.68204 0.9844 0.68827 0.0
C284 C 0.70545 0.97705 0.68354 0.0
C285 C 0.72283 0.9785 0.70114 0.0
C286 C 0.80123 0.99337 0.74201 0.0
C287 C 0.81472 0.01427 0.73986 0.0
C288 C 0.17437 0.28719 0.99661 0.0
C289 C 0.16535 0.29892 0.01684 0.0
C290 C 0.17353 0.29187 0.0394 0.0
C291 C 0.19191 0.27528 0.04159 0.0
H292 H 0.27322 0.20004 0.05796 0.0
H293 H 0.30247 0.16819 0.05394 0.0
H294 H 0.2952 0.17132 0.97752 0.0
H295 H 0.2657 0.20326 0.98174 0.0
H296 H 0.31529 0.26383 0.02907 0.0
H297 H 0.34443 0.29553 0.03076 0.0
H298 H 0.28846 0.34655 0.0441 0.0
H299 H 0.25909 0.3149 0.04177 0.0
H300 H 0.20123 0.26363 0.98288 0.0
H301 H 0.1685 0.29228 0.97897 0.0
H302 H 0.16669 0.30027 0.05535 0.0
H303 H 0.19932 0.27187 0.05907 0.0
N304 N 0.23417 0.23397 0.01995 0.0
N305 N 0.27372 0.24526 0.02792 0.0
N306 N 0.2437 0.27382 0.02868 0.0
C307 C 0.25765 0.22814 0.02257 0.0
C308 C 0.26693 0.26812 0.0309 0.0
C309 C 0.22727 0.25707 0.02328 0.0
C310 C 0.26688 0.20374 0.02019 0.0
C311 C 0.27702 0.19309 0.04038 0.0
C312 C 0.2941 0.17516 0.03803 0.0
C313 C 0.30153 0.16756 0.0154 0.0
C314 C 0.28982 0.17674 0.99521 0.0
C315 C 0.27272 0.19482 0.9976 0.0
C316 C 0.28481 0.28687 0.03496 0.0
C317 C 0.30916 0.28174 0.03266 0.0
C318 C 0.32592 0.29992 0.03378 0.0
C319 C 0.31872 0.32357 0.03738 0.0
C320 C 0.29449 0.32854 0.04086 0.0
C321 C 0.27769 0.31038 0.03962 0.0
C322 C 0.20247 0.26525 0.0213 0.0
C323 C 0.19291 0.27056 0.99883 0.0
C324 C 0.19112 0.70788 0.01533 0.0
C325 C 0.18274 0.69363 0.99648 0.0
C326 C 0.19089 0.69842 0.97335 0.0
C327 C 0.20837 0.71555 0.96937 0.0
H328 H 0.29699 0.77389 0.03129 0.0
H329 H 0.32455 0.80633 0.03989 0.0
H330 H 0.29267 0.84795 0.98363 0.0
H331 H 0.26496 0.81554 0.97551 0.0
H332 H 0.32773 0.74447 0.96831 0.0
H333 H 0.35763 0.71454 0.96042 0.0
H334 H 0.30361 0.66768 0.93242 0.0
H335 H 0.27338 0.69745 0.94111 0.0
H336 H 0.21628 0.73458 0.02633 0.0
H337 H 0.18512 0.70468 0.03336 0.0
H338 H 0.18439 0.68824 0.95835 0.0
H339 H 0.21519 0.71774 0.95146 0.0
N340 N 0.24755 0.76136 0.99555 0.0
N341 N 0.28561 0.75851 0.97819 0.0
N342 N 0.25744 0.7292 0.9706 0.0
C343 C 0.26982 0.77048 0.99191 0.0
C344 C 0.27961 0.7379 0.96745 0.0
C345 C 0.24129 0.74062 0.98444 0.0
C346 C 0.27846 0.79247 0.00316 0.0
C347 C 0.2951 0.7905 0.02167 0.0
C348 C 0.31123 0.8089 0.02621 0.0
C349 C 0.31121 0.82964 0.01216 0.0
C350 C 0.29318 0.83237 0.99494 0.0
C351 C 0.27706 0.8139 0.99042 0.0
C352 C 0.29805 0.72302 0.95611 0.0
C353 C 0.32222 0.72807 0.95986 0.0
C354 C 0.33948 0.7109 0.95516 0.0
C355 C 0.33291 0.68846 0.94639 0.0
C356 C 0.30911 0.68457 0.93985 0.0
C357 C 0.2918 0.70166 0.94476 0.0
C358 C 0.21823 0.72844 0.98836 0.0
C359 C 0.2088 0.72516 0.0113 0.0
C360 C 0.79699 0.32864 0.01686 0.0
C361 C 0.8206 0.32043 0.01669 0.0
C362 C 0.82465 0.29584 0.01334 0.0
C363 C 0.80561 0.28025 0.00881 0.0
H364 H 0.71917 0.23067 0.03699 0.0
H365 H 0.6918 0.19769 0.04528 0.0
H366 H 0.70684 0.16826 0.97594 0.0
H367 H 0.73379 0.20125 0.96775 0.0
H368 H 0.68608 0.26184 0.9536 0.0
H369 H 0.65349 0.28838 0.94315 0.0
H370 H 0.70105 0.34851 0.94802 0.0
H371 H 0.73359 0.32215 0.95741 0.0
H372 H 0.76037 0.3205 0.01136 0.0
H373 H 0.79297 0.34735 0.01902 0.0
H374 H 0.84256 0.28878 0.01344 0.0
H375 H 0.80929 0.26175 0.00491 0.0
N376 N 0.7571 0.25245 0.00373 0.0
N377 N 0.72432 0.25313 0.97755 0.0
N378 N 0.74873 0.28637 0.98067 0.0
C379 C 0.73789 0.24138 0.9937 0.0
C380 C 0.72961 0.27563 0.9709 0.0
C381 C 0.76267 0.27509 0.99679 0.0
C382 C 0.72898 0.21815 1.00195 0.0
C383 C 0.7174 0.21652 0.02404 0.0
C384 C 0.70142 0.1979 0.02858 0.0
C385 C 0.69695 0.18046 0.01118 0.0
C386 C 0.70998 0.18123 0.98982 0.0
C387 C 0.7256 0.20001 0.98517 0.0
C388 C 0.71223 0.28998 0.95729 0.0
C389 C 0.68976 0.28064 0.95163 0.0
C390 C 0.67102 0.29587 0.94576 0.0
C391 C 0.67444 0.32064 0.94561 0.0
C392 C 0.69763 0.32957 0.94809 0.0
C393 C 0.71637 0.31437 0.95374 0.0
C394 C 0.78229 0.28904 0.00743 0.0
C395 C 0.77819 0.3132 0.01232 0.0
C396 C 0.71869 0.83013 0.01672 0.0
C397 C 0.70368 0.83659 0.99767 0.0
C398 C 0.70698 0.82538 0.97559 0.0
C399 C 0.72321 0.80674 0.97314 0.0
H400 H 0.78699 0.72342 0.04025 0.0
H401 H 0.82015 0.69599 0.04627 0.0
H402 H 0.85135 0.71962 0.98012 0.0
H403 H 0.81824 0.74733 0.9745 0.0
H404 H 0.74532 0.68631 0.98973 0.0
H405 H 0.71498 0.65593 0.98624 0.0
H406 H 0.66572 0.70814 0.95856 0.0
H407 H 0.69591 0.73882 0.9627 0.0
H408 H 0.74497 0.80536 0.02966 0.0
H409 H 0.71662 0.83844 0.03397 0.0
H410 H 0.69616 0.83026 0.9604 0.0
H411 H 0.72405 0.79739 0.9563 0.0
N412 N 0.76928 0.76904 0.99979 0.0
N413 N 0.76183 0.72873 0.99109 0.0
N414 N 0.73262 0.75711 0.98343 0.0
C415 C 0.77672 0.74585 0.99912 0.0
C416 C 0.7398 0.73417 0.9832 0.0
C417 C 0.74701 0.77462 0.99162 0.0
C418 C 0.80035 0.73789 0.00721 0.0
C419 C 0.8016 0.72362 0.02768 0.0
C420 C 0.82037 0.70754 0.03083 0.0
C421 C 0.83822 0.70517 0.01343 0.0
C422 C 0.83802 0.72099 0.99396 0.0
C423 C 0.81919 0.73711 0.99083 0.0
C424 C 0.7229 0.71511 0.97695 0.0
C425 C 0.72817 0.6913 0.9825 0.0
C426 C 0.71079 0.6738 0.98036 0.0
C427 C 0.68783 0.6797 0.97246 0.0
C428 C 0.6831 0.70316 0.96523 0.0
C429 C 0.70044 0.72072 0.96752 0.0
C430 C 0.73675 0.79887 0.99263 0.0
C431 C 0.7351 0.81135 0.01422 0.0
C432 C 0.48716 0.78731 0.67143 0.0
C433 C 0.5069 0.80256 0.66923 0.0
C434 C 0.52645 0.79894 0.68443 0.0
C435 C 0.52531 0.78221 0.70283 0.0
H436 H 0.45537 0.70827 0.77929 0.0
H437 H 0.4574 0.67553 0.80768 0.0
H438 H 0.53179 0.66593 0.79119 0.0
H439 H 0.52948 0.69867 0.76238 0.0
H440 H 0.47557 0.76559 0.816 0.0
H441 H 0.47448 0.79574 0.84702 0.0
H442 H 0.49937 0.8483 0.79669 0.0
H443 H 0.49988 0.81845 0.76555 0.0
H444 H 0.4697 0.76073 0.69267 0.0
H445 H 0.47173 0.78963 0.66014 0.0
H446 H 0.54214 0.80999 0.68296 0.0
H447 H 0.53972 0.78144 0.71561 0.0
N448 N 0.49832 0.73648 0.73665 0.0
N449 N 0.48903 0.74777 0.77596 0.0
N450 N 0.49597 0.77693 0.74735 0.0
C451 C 0.49286 0.73047 0.75963 0.0
C452 C 0.49062 0.77099 0.77002 0.0
C453 C 0.49964 0.76003 0.7306 0.0
C454 C 0.49218 0.70576 0.76842 0.0
C455 C 0.47185 0.6984 0.78091 0.0
C456 C 0.47316 0.67993 0.79751 0.0
C457 C 0.4949 0.6685 0.80218 0.0
C458 C 0.51476 0.67436 0.78803 0.0
C459 C 0.51341 0.69292 0.77131 0.0
C460 C 0.488 0.78957 0.78834 0.0
C461 C 0.4806 0.78363 0.81148 0.0
C462 C 0.48007 0.80086 0.82929 0.0
C463 C 0.48701 0.82433 0.82432 0.0
C464 C 0.49365 0.83043 0.80101 0.0
C465 C 0.49406 0.81325 0.78318 0.0
C466 C 0.50473 0.76855 0.70634 0.0
C467 C 0.48606 0.7705 0.68989 0.0
C468 C 0.21714 0.51735 0.67386 0.0
C469 C 0.204 0.49728 0.66664 0.0
C470 C 0.20958 0.47509 0.67672 0.0
C471 C 0.22611 0.47334 0.69517 0.0
H472 H 0.28888 0.53958 0.77906 0.0
H473 H 0.32123 0.54386 0.80772 0.0
H474 H 0.34767 0.47447 0.78797 0.0
H475 H 0.31546 0.47059 0.75906 0.0
H476 H 0.24644 0.47452 0.81537 0.0
H477 H 0.21732 0.47071 0.84719 0.0
H478 H 0.1606 0.48155 0.79638 0.0
H479 H 0.18957 0.48451 0.76452 0.0
H480 H 0.24198 0.5316 0.69924 0.0
H481 H 0.21324 0.5347 0.66645 0.0
H482 H 0.20016 0.45922 0.67125 0.0
H483 H 0.22852 0.45632 0.70391 0.0
N484 N 0.26949 0.49941 0.73453 0.0
N485 N 0.2603 0.49168 0.77473 0.0
N486 N 0.23136 0.48607 0.74566 0.0
C487 C 0.27616 0.49852 0.75794 0.0
C488 C 0.2379 0.48546 0.76878 0.0
C489 C 0.24685 0.49288 0.72847 0.0
C490 C 0.30003 0.50501 0.76645 0.0
C491 C 0.30239 0.52584 0.77998 0.0
C492 C 0.32063 0.52803 0.79678 0.0
C493 C 0.33681 0.5093 0.80058 0.0
C494 C 0.33565 0.48932 0.7855 0.0
C495 C 0.31736 0.48717 0.76868 0.0
C496 C 0.22032 0.48011 0.78748 0.0
C497 C 0.22773 0.47575 0.81095 0.0
C498 C 0.21106 0.47368 0.8292 0.0
C499 C 0.18667 0.47615 0.82437 0.0
C500 C 0.17923 0.47931 0.8007 0.0
C501 C 0.19588 0.48114 0.78242 0.0
C502 C 0.23762 0.49368 0.7039 0.0
C503 C 0.23379 0.51556 0.69244 0.0
C504 C 0.48973 0.18191 0.7057 0.0
C505 C 0.49142 0.19057 0.68229 0.0
C506 C 0.49632 0.21499 0.67894 0.0
C507 C 0.50082 0.22991 0.69853 0.0
H508 H 0.47187 0.28095 0.78351 0.0
H509 H 0.46468 0.31442 0.81061 0.0
H510 H 0.5368 0.33831 0.79965 0.0
H511 H 0.54385 0.30485 0.77294 0.0
H512 H 0.55216 0.24394 0.8204 0.0
H513 H 0.56191 0.21706 0.85297 0.0
H514 H 0.55407 0.15705 0.8056 0.0
H515 H 0.54524 0.18372 0.77306 0.0
H516 H 0.49394 0.18898 0.74274 0.0
H517 H 0.48636 0.16328 0.70922 0.0
H518 H 0.49745 0.22239 0.66119 0.0
H519 H 0.50589 0.24823 0.69545 0.0
N520 N 0.50544 0.25664 0.74745 0.0
N521 N 0.52969 0.254 0.7816 0.0
N522 N 0.52549 0.22111 0.75685 0.0
C523 C 0.51517 0.2669 0.76725 0.0
C524 C 0.53497 0.2311 0.77653 0.0
C525 C 0.51099 0.23356 0.74213 0.0
C526 C 0.50825 0.29069 0.77577 0.0
C527 C 0.48575 0.29404 0.78609 0.0
C528 C 0.48181 0.31292 0.80193 0.0
C529 C 0.50024 0.3289 0.80749 0.0
C530 C 0.52214 0.32649 0.79564 0.0
C531 C 0.52616 0.30745 0.78016 0.0
C532 C 0.54714 0.21594 0.79429 0.0
C533 C 0.55322 0.22505 0.81676 0.0
C534 C 0.5587 0.20964 0.83548 0.0
C535 C 0.5581 0.18489 0.83207 0.0
C536 C 0.55469 0.176 0.80896 0.0
C537 C 0.54939 0.19137 0.79024 0.0
C538 C 0.50064 0.22059 0.72171 0.0
C539 C 0.49424 0.19668 0.72505 0.0
C540 C 0.82279 0.49136 0.70838 0.0
C541 C 0.81528 0.4951 0.6848 0.0
C542 C 0.79148 0.50227 0.68095 0.0
C543 C 0.7763 0.5073 0.70024 0.0
H544 H 0.70849 0.5564 0.78511 0.0
H545 H 0.67576 0.5494 0.81259 0.0
H546 H 0.68466 0.47366 0.80398 0.0
H547 H 0.71776 0.48079 0.77622 0.0
H548 H 0.77029 0.54772 0.82506 0.0
H549 H 0.80111 0.55496 0.85419 0.0
H550 H 0.85107 0.57 0.79763 0.0
H551 H 0.82032 0.56159 0.76834 0.0
H552 H 0.8147 0.49463 0.74535 0.0
H553 H 0.8409 0.48618 0.71235 0.0
H554 H 0.78485 0.50494 0.66306 0.0
H555 H 0.75871 0.51439 0.69682 0.0
N556 N 0.74926 0.51292 0.74977 0.0
N557 N 0.75393 0.53798 0.78306 0.0
N558 N 0.78604 0.53118 0.75784 0.0
C559 C 0.7399 0.52386 0.76944 0.0
C560 C 0.77694 0.54179 0.77737 0.0
C561 C 0.77254 0.51694 0.74387 0.0
C562 C 0.71566 0.51915 0.77851 0.0
C563 C 0.70291 0.53825 0.78838 0.0
C564 C 0.68435 0.53424 0.80435 0.0
C565 C 0.67803 0.511 0.8109 0.0
C566 C 0.6892 0.49178 0.79931 0.0
C567 C 0.70797 0.49584 0.78323 0.0
C568 C 0.7931 0.55339 0.79442 0.0
C569 C 0.78764 0.55327 0.81881 0.0
C570 C 0.80538 0.55756 0.83558 0.0
C571 C 0.8288 0.56238 0.82825 0.0
C572 C 0.8334 0.56552 0.80385 0.0
C573 C 0.81576 0.56085 0.78706 0.0
C574 C 0.78469 0.50523 0.72366 0.0
C575 C 0.80772 0.49631 0.72744 0.0
C576 C 0.51336 0.18801 0.30127 0.0
C577 C 0.50966 0.19487 0.32504 0.0
C578 C 0.50169 0.21831 0.32949 0.0
C579 C 0.49586 0.2337 0.31059 0.0
H580 H 0.44487 0.30098 0.22456 0.0
H581 H 0.4519 0.33363 0.19698 0.0
H582 H 0.52754 0.32631 0.2075 0.0
H583 H 0.52042 0.2932 0.23531 0.0
H584 H 0.45184 0.23951 0.18718 0.0
H585 H 0.44438 0.20829 0.15856 0.0
H586 H 0.43116 0.15875 0.21597 0.0
H587 H 0.43981 0.18992 0.24473 0.0
H588 H 0.50922 0.19675 0.26451 0.0
H589 H 0.51913 0.17018 0.29686 0.0
H590 H 0.49901 0.22444 0.34754 0.0
H591 H 0.48815 0.25093 0.31446 0.0
N592 N 0.48921 0.26114 0.26093 0.0
N593 N 0.46289 0.25623 0.22867 0.0
N594 N 0.47055 0.22434 0.25395 0.0
C595 C 0.47755 0.27037 0.24159 0.0
C596 C 0.45924 0.23328 0.23473 0.0
C597 C 0.48532 0.23794 0.26724 0.0
C598 C 0.4821 0.2945 0.23205 0.0
C599 C 0.463 0.30683 0.22163 0.0
C600 C 0.46702 0.32538 0.20564 0.0
C601 C 0.49027 0.33214 0.19964 0.0
C602 C 0.50942 0.3214 0.21175 0.0
C603 C 0.50536 0.30261 0.22783 0.0
C604 C 0.44715 0.21695 0.21818 0.0
C605 C 0.44661 0.22217 0.19375 0.0
C606 C 0.44219 0.20419 0.17726 0.0
C607 C 0.43789 0.18077 0.18496 0.0
C608 C 0.43525 0.17641 0.20947 0.0
C609 C 0.44006 0.1943 0.22595 0.0
C610 C 0.49794 0.22591 0.28697 0.0
C611 C 0.5076 0.20329 0.28258 0.0
C612 C 0.67486 0.48916 0.21734 0.0
C613 C 0.66819 0.50879 0.2032 0.0
C614 C 0.67835 0.53105 0.20812 0.0
C615 C 0.69632 0.53323 0.22509 0.0
H616 H 0.77949 0.4656 0.28823 0.0
H617 H 0.80772 0.4601 0.3208 0.0
H618 H 0.78483 0.52673 0.35143 0.0
H619 H 0.75635 0.53181 0.31897 0.0
H620 H 0.81694 0.5174 0.24671 0.0
H621 H 0.8475 0.52189 0.21661 0.0
H622 H 0.7952 0.54924 0.16727 0.0
H623 H 0.76435 0.54409 0.19721 0.0
H624 H 0.69936 0.4756 0.24353 0.0
H625 H 0.66734 0.47177 0.21398 0.0
H626 H 0.67326 0.54662 0.19795 0.0
H627 H 0.70505 0.55028 0.22712 0.0
N628 N 0.73426 0.50604 0.27027 0.0
N629 N 0.77449 0.51522 0.26297 0.0
N630 N 0.74618 0.52284 0.23373 0.0
C631 C 0.75741 0.50687 0.27776 0.0
C632 C 0.76907 0.52325 0.24098 0.0
C633 C 0.72871 0.51435 0.24803 0.0
C634 C 0.76536 0.49885 0.3014 0.0
C635 C 0.77961 0.47837 0.30267 0.0
C636 C 0.79616 0.47551 0.32106 0.0
C637 C 0.79898 0.49323 0.3385 0.0
C638 C 0.78312 0.51266 0.33841 0.0
C639 C 0.76654 0.51547 0.31997 0.0
C640 C 0.78811 0.52996 0.22422 0.0
C641 C 0.81196 0.52476 0.2296 0.0
C642 C 0.82956 0.52748 0.21236 0.0
C643 C 0.8237 0.53563 0.18946 0.0
C644 C 0.80015 0.54242 0.18462 0.0
C645 C 0.7825 0.53956 0.20181 0.0
C646 C 0.70457 0.51326 0.23768 0.0
C647 C 0.693 0.49137 0.23444 0.0
C648 C 0.49284 0.81794 0.30141 0.0
C649 C 0.49784 0.8112 0.32501 0.0
C650 C 0.50611 0.78779 0.32911 0.0
C651 C 0.51104 0.77236 0.30999 0.0
H652 H 0.55926 0.70575 0.22259 0.0
H653 H 0.55233 0.67387 0.19419 0.0
H654 H 0.47659 0.68228 0.2032 0.0
H655 H 0.48364 0.71459 0.23188 0.0
H656 H 0.55324 0.76793 0.18578 0.0
H657 H 0.56009 0.79957 0.15739 0.0
H658 H 0.57169 0.84896 0.21514 0.0
H659 H 0.56379 0.81734 0.24369 0.0
H660 H 0.4951 0.80908 0.26451 0.0
H661 H 0.48681 0.83573 0.29717 0.0
H662 H 0.50975 0.78168 0.34701 0.0
H663 H 0.5191 0.75521 0.31354 0.0
N664 N 0.51551 0.74532 0.25938 0.0
N665 N 0.54134 0.7509 0.22678 0.0
N666 N 0.53443 0.78214 0.253 0.0
C667 C 0.52676 0.73654 0.23958 0.0
C668 C 0.54531 0.77365 0.23335 0.0
C669 C 0.51976 0.76831 0.26622 0.0
C670 C 0.522 0.71267 0.22949 0.0
C671 C 0.54111 0.70028 0.21916 0.0
C672 C 0.53714 0.68219 0.20265 0.0
C673 C 0.51393 0.67594 0.19599 0.0
C674 C 0.4947 0.68677 0.20793 0.0
C675 C 0.49871 0.70509 0.22453 0.0
C676 C 0.55719 0.79035 0.21696 0.0
C677 C 0.558 0.78534 0.19249 0.0
C678 C 0.56206 0.80355 0.17613 0.0
C679 C 0.5657 0.827 0.184 0.0
C680 C 0.56813 0.83124 0.20853 0.0
C681 C 0.56373 0.81309 0.22488 0.0
C682 C 0.50765 0.78003 0.28646 0.0
C683 C 0.49763 0.80258 0.28251 0.0
C684 C 0.29918 0.51552 0.18495 0.0
C685 C 0.32283 0.51148 0.19206 0.0
C686 C 0.32691 0.50388 0.21571 0.0
C687 C 0.30781 0.49853 0.231 0.0
H688 H 0.2189 0.44755 0.29602 0.0
H689 H 0.18983 0.45495 0.32721 0.0
H690 H 0.20025 0.53054 0.3192 0.0
H691 H 0.22959 0.52305 0.28753 0.0
H692 H 0.19303 0.43499 0.23912 0.0
H693 H 0.16235 0.42443 0.21051 0.0
H694 H 0.20932 0.44424 0.15292 0.0
H695 H 0.24009 0.45388 0.18122 0.0
H696 H 0.2623 0.51192 0.19338 0.0
H697 H 0.295 0.52102 0.16697 0.0
H698 H 0.34484 0.50102 0.2221 0.0
H699 H 0.31143 0.49089 0.24833 0.0
N700 N 0.25686 0.49214 0.25718 0.0
N701 N 0.22654 0.46377 0.25165 0.0
N702 N 0.25283 0.47185 0.22075 0.0
C703 C 0.23775 0.47972 0.26586 0.0
C704 C 0.23389 0.45972 0.22912 0.0
C705 C 0.26459 0.48776 0.23447 0.0
C706 C 0.2265 0.48472 0.28924 0.0
C707 C 0.21554 0.46577 0.30135 0.0
C708 C 0.19867 0.47 0.31906 0.0
C709 C 0.19228 0.49333 0.32526 0.0
C710 C 0.20474 0.51236 0.31471 0.0
C711 C 0.22171 0.50808 0.29675 0.0
C712 C 0.21867 0.44621 0.21249 0.0
C713 C 0.19709 0.43633 0.22032 0.0
C714 C 0.17945 0.43035 0.20393 0.0
C715 C 0.18306 0.43432 0.17948 0.0
C716 C 0.20579 0.44107 0.17159 0.0
C717 C 0.22348 0.44684 0.18794 0.0
C718 C 0.28431 0.50081 0.22295 0.0
C719 C 0.28027 0.51029 0.20017 0.0
C720 C 0.70323 0.82096 0.49439 0.0
C721 C 0.67983 0.81234 0.49579 0.0
C722 C 0.67643 0.78797 0.50091 0.0
C723 C 0.69595 0.77302 0.50576 0.0
H724 H 0.78001 0.72092 0.47612 0.0
H725 H 0.8064 0.68688 0.46889 0.0
H726 H 0.7964 0.66398 0.54159 0.0
H727 H 0.77037 0.698 0.54865 0.0
H728 H 0.82265 0.76463 0.54031 0.0
H729 H 0.85238 0.79489 0.54769 0.0
H730 H 0.79734 0.84349 0.57069 0.0
H731 H 0.76743 0.81339 0.56226 0.0
H732 H 0.74018 0.81384 0.49902 0.0
H733 H 0.70678 0.83955 0.49089 0.0
H734 H 0.65868 0.78061 0.50186 0.0
H735 H 0.69284 0.75471 0.51087 0.0
N736 N 0.7447 0.74604 0.51038 0.0
N737 N 0.77966 0.74868 0.5334 0.0
N738 N 0.75471 0.7816 0.52994 0.0
C739 C 0.76478 0.73574 0.51954 0.0
C740 C 0.77468 0.77158 0.53878 0.0
C741 C 0.73958 0.76916 0.51591 0.0
C742 C 0.77281 0.71173 0.51279 0.0
C743 C 0.78262 0.70793 0.49014 0.0
C744 C 0.79804 0.6887 0.48616 0.0
C745 C 0.80371 0.67284 0.50473 0.0
C746 C 0.79229 0.67568 0.52683 0.0
C747 C 0.77722 0.69507 0.53087 0.0
C748 C 0.79268 0.78688 0.55011 0.0
C749 C 0.81694 0.7815 0.54764 0.0
C750 C 0.83405 0.79891 0.55197 0.0
C751 C 0.82719 0.82188 0.55917 0.0
C752 C 0.80313 0.82622 0.56441 0.0
C753 C 0.786 0.80894 0.55974 0.0
C754 C 0.71912 0.78229 0.50574 0.0
C755 C 0.72251 0.80617 0.49925 0.0
C756 C 0.7075 0.1815 0.5183 0.0
C757 C 0.68393 0.18944 0.51576 0.0
C758 C 0.68003 0.2136 0.50997 0.0
C759 C 0.69926 0.22889 0.5053 0.0
H760 H 0.78618 0.27863 0.53472 0.0
H761 H 0.81388 0.31153 0.54203 0.0
H762 H 0.80158 0.33741 0.47069 0.0
H763 H 0.77425 0.30456 0.46354 0.0
H764 H 0.82427 0.23739 0.46578 0.0
H765 H 0.85337 0.2066 0.4582 0.0
H766 H 0.79709 0.15787 0.43922 0.0
H767 H 0.76778 0.18858 0.44785 0.0
H768 H 0.74439 0.18946 0.51442 0.0
H769 H 0.71143 0.16309 0.52238 0.0
H770 H 0.66212 0.22047 0.5082 0.0
H771 H 0.69581 0.24692 0.49943 0.0
N772 N 0.74877 0.25592 0.50143 0.0
N773 N 0.78231 0.25317 0.47638 0.0
N774 N 0.75679 0.22081 0.48014 0.0
C775 C 0.76857 0.266 0.49151 0.0
C776 C 0.7765 0.2306 0.47053 0.0
C777 C 0.74275 0.23317 0.49536 0.0
C778 C 0.77772 0.28943 0.49875 0.0
C779 C 0.78863 0.29203 0.52107 0.0
C780 C 0.8048 0.31059 0.52506 0.0
C781 C 0.81014 0.32697 0.50687 0.0
C782 C 0.79777 0.32529 0.48518 0.0
C783 C 0.78194 0.30658 0.48111 0.0
C784 C 0.79371 0.21515 0.45816 0.0
C785 C 0.81809 0.22038 0.45922 0.0
C786 C 0.83486 0.20264 0.45475 0.0
C787 C 0.82752 0.17949 0.44882 0.0
C788 C 0.80326 0.1753 0.44456 0.0
C789 C 0.78647 0.19294 0.44936 0.0
C790 C 0.72265 0.22021 0.50626 0.0
C791 C 0.72651 0.19665 0.51362 0.0
C792 C 0.31453 0.80267 0.52061 0.0
C793 C 0.33065 0.80744 0.50205 0.0
C794 C 0.32894 0.79415 0.48092 0.0
C795 C 0.31048 0.77782 0.47774 0.0
H796 H 0.21503 0.72754 0.53206 0.0
H797 H 0.18661 0.69527 0.53851 0.0
H798 H 0.21315 0.65988 0.47564 0.0
H799 H 0.24167 0.69205 0.46962 0.0
H800 H 0.18514 0.7643 0.46739 0.0
H801 H 0.15598 0.7953 0.46111 0.0
H802 H 0.21216 0.8452 0.44504 0.0
H803 H 0.2416 0.81424 0.4522 0.0
H804 H 0.28302 0.78395 0.53139 0.0
H805 H 0.31549 0.81246 0.53717 0.0
H806 H 0.34088 0.79753 0.46617 0.0
H807 H 0.30841 0.76929 0.46058 0.0
N808 N 0.26304 0.74218 0.49766 0.0
N809 N 0.22598 0.74867 0.47928 0.0
N810 N 0.25548 0.77762 0.47655 0.0
C811 C 0.2407 0.73451 0.49208 0.0
C812 C 0.23318 0.77023 0.47142 0.0
C813 C 0.27049 0.7638 0.48945 0.0
C814 C 0.23088 0.71189 0.50071 0.0
C815 C 0.2155 0.71224 0.52037 0.0
C816 C 0.19893 0.69399 0.52375 0.0
C817 C 0.1973 0.67513 0.50739 0.0
C818 C 0.214 0.67398 0.48873 0.0
C819 C 0.23052 0.69227 0.48535 0.0
C820 C 0.21576 0.78699 0.46108 0.0
C821 C 0.19135 0.7817 0.46194 0.0
C822 C 0.17453 0.79951 0.45815 0.0
C823 C 0.18177 0.8229 0.45317 0.0
C824 C 0.20607 0.82749 0.44955 0.0
C825 C 0.22293 0.80971 0.45356 0.0
C826 C 0.29367 0.77406 0.49577 0.0
C827 C 0.29622 0.78607 0.5175 0.0
C828 C 0.21797 0.33208 0.51083 0.0
C829 C 0.20439 0.33923 0.49098 0.0
C830 C 0.20959 0.32914 0.46871 0.0
C831 C 0.22621 0.31078 0.46672 0.0
H832 H 0.28753 0.22474 0.53277 0.0
H833 H 0.32003 0.19627 0.53739 0.0
H834 H 0.34932 0.21922 0.47012 0.0
H835 H 0.31687 0.24795 0.46589 0.0
H836 H 0.24598 0.19016 0.46967 0.0
H837 H 0.21628 0.15885 0.46711 0.0
H838 H 0.16046 0.21129 0.47433 0.0
H839 H 0.18999 0.2426 0.47607 0.0
H840 H 0.24321 0.30681 0.52473 0.0
H841 H 0.21438 0.33951 0.52824 0.0
H842 H 0.19984 0.33456 0.45299 0.0
H843 H 0.22833 0.30205 0.44966 0.0
N844 N 0.26988 0.2712 0.49293 0.0
N845 N 0.26042 0.23111 0.48522 0.0
N846 N 0.23186 0.26048 0.47901 0.0
C847 C 0.27636 0.24772 0.49221 0.0
C848 C 0.23818 0.23731 0.4786 0.0
C849 C 0.24739 0.2775 0.486 0.0
C850 C 0.30003 0.23893 0.49925 0.0
C851 C 0.30163 0.22452 0.51961 0.0
C852 C 0.31998 0.20785 0.52198 0.0
C853 C 0.33706 0.20504 0.50389 0.0
C854 C 0.33657 0.22092 0.48447 0.0
C855 C 0.31815 0.23763 0.48213 0.0
C856 C 0.22035 0.21882 0.47344 0.0
C857 C 0.22736 0.19504 0.47032 0.0
C858 C 0.21035 0.17708 0.46896 0.0
C859 C 0.18604 0.18255 0.4709 0.0
C860 C 0.17903 0.20648 0.47258 0.0
C861 C 0.19601 0.22445 0.47371 0.0
C862 C 0.23816 0.30209 0.48688 0.0
C863 C 0.23469 0.31356 0.5088 0.0
C864 C 0.00724 0.94566 0.56621 0.0
C865 C 0.00345 0.94391 0.45001 0.0
C866 C 0.00358 0.06037 0.56465 0.0
C867 C 0.00415 0.0585 0.44814 0.0
C868 C 0.94731 0.05954 0.50124 0.0
C869 C 0.94746 0.94472 0.51512 0.0
C870 C 0.0624 0.05945 0.50356 0.0
C871 C 0.06201 0.94445 0.5017 0.0
C872 C 0.06027 1.0027 0.44759 0.0
C873 C 0.94591 1.00035 0.45053 0.0
C874 C 0.06355 1.00238 0.56421 0.0
C875 C 0.94883 0.00392 0.5669 0.0
Eu876 Eu 0.00467 0.95677 0.50793 0.0
O877 O 0.9824 0.98014 0.48699 0.0
O878 O 0.02663 0.98091 0.52816 0.0
Eu879 Eu 0.95925 1.00217 0.50838 0.0
Eu880 Eu 0.05011 1.00195 0.50628 0.0
O881 O 0.98431 0.98161 0.52872 0.0
O882 O 0.02527 0.98073 0.48644 0.0
Eu883 Eu 0.0059 0.00287 0.55176 0.0
Eu884 Eu 0.00345 1.00137 0.46305 0.0
O885 O 0.98385 0.02386 0.52841 0.0
O886 O 0.98317 0.02293 0.48693 0.0
O887 O 0.02526 0.02277 0.48584 0.0
O888 O 0.02679 0.02393 0.52755 0.0
Eu889 Eu 0.00481 0.04753 0.50663 0.0
O890 O 0.00628 0.93758 0.54383 0.0
O891 O 0.00291 0.93639 0.47265 0.0
O892 O 0.00387 0.0679 0.54199 0.0
O893 O 0.00548 0.06665 0.47051 0.0
O894 O 0.93979 0.03718 0.50399 0.0
O895 O 0.93992 0.9672 0.51334 0.0
O896 O 0.06972 0.03689 0.50458 0.0
O897 O 0.06946 0.96693 0.50307 0.0
O898 O 0.03733 1.00238 0.44178 0.0
O899 O 0.96854 1.00094 0.44359 0.0
O900 O 0.04094 0.00372 0.57121 0.0
O901 O 0.97174 1.00274 0.57295 0.0
O902 O 0.03989 0.06693 0.50438 0.0
O903 O 0.96984 0.06687 0.50244 0.0
O904 O 0.03953 0.93709 0.50369 0.0
O905 O 0.9699 0.93733 0.51282 0.0
O906 O 0.00403 0.9666 0.44321 0.0
O907 O 0.00273 0.03563 0.4421 0.0
O908 O 0.00745 0.96847 0.57269 0.0
O909 O 0.00448 0.03771 0.57158 0.0
O910 O 0.94051 0.00442 0.54455 0.0
O911 O 0.93851 1.00027 0.47322 0.0
O912 O 0.07079 1.00122 0.54149 0.0
O913 O 0.06885 1.00228 0.46987 0.0
C914 C 0.51054 0.94707 0.06554 0.0
C915 C 0.49327 0.06113 0.06658 0.0
C916 C 0.50561 0.94843 0.95015 0.0
C917 C 0.51184 0.06374 0.95261 0.0
C918 C 0.56552 0.00595 0.95422 0.0
C919 C 0.55939 0.00851 0.06881 0.0
C920 C 0.44948 0.0041 0.94819 0.0
C921 C 0.4434 1.001 0.0626 0.0
C922 C 0.44477 0.06052 0.00471 0.0
C923 C 0.56076 0.06392 0.01286 0.0
C924 C 0.448 0.94594 0.00795 0.0
C925 C 0.56419 0.94914 0.00983 0.0
Eu926 Eu 0.5021 0.00425 0.05397 0.0
O927 O 0.52371 0.02672 0.03152 0.0
O928 O 0.48307 0.98257 0.02868 0.0
Eu929 Eu 0.54876 0.00618 0.01091 0.0
Eu930 Eu 0.46028 0.0036 0.00614 0.0
O931 O 0.52464 0.98417 0.03045 0.0
O932 O 0.48214 0.02499 0.02877 0.0
Eu933 Eu 0.50582 0.9596 0.00805 0.0
Eu934 Eu 0.50308 0.05041 0.00939 0.0
O935 O 0.527 0.98462 0.98805 0.0
O936 O 0.52547 0.02696 0.98905 0.0
O937 O 0.48395 0.02636 0.98631 0.0
O938 O 0.48559 0.98352 0.98596 0.0
Eu939 Eu 0.50682 0.00589 0.96323 0.0
O940 O 0.50676 0.96922 0.0732 0.0
O941 O 0.49573 0.03863 0.07376 0.0
O942 O 0.50645 0.97111 0.94317 0.0
O943 O 0.51137 0.04135 0.94471 0.0
O944 O 0.5709 0.00637 0.97733 0.0
O945 O 0.56718 0.00799 0.04643 0.0
O946 O 0.44189 1.00187 0.97054 0.0
O947 O 0.43809 1.00239 0.03953 0.0
O948 O 0.46697 0.06904 0.00611 0.0
O949 O 0.53802 0.07109 0.01357 0.0
O950 O 0.47072 0.93878 0.00941 0.0
O951 O 0.54199 0.94099 0.00708 0.0
O952 O 0.47223 0.00694 0.94163 0.0
O953 O 0.54343 0.00553 0.9453 0.0
O954 O 0.46545 1.00103 0.0717 0.0
O955 O 0.53655 0.0074 0.07554 0.0
O956 O 0.49593 0.06906 0.04433 0.0
O957 O 0.50826 0.07069 0.97504 0.0
O958 O 0.51028 0.93994 0.04289 0.0
O959 O 0.50542 0.94067 0.97261 0.0
O960 O 0.57007 0.97198 0.01239 0.0
O961 O 0.56789 0.04137 0.01117 0.0
O962 O 0.44097 0.9685 0.00593 0.0
O963 O 0.43888 0.03756 0.0046 0.0
C964 C 0.00326 0.44469 0.0636 0.0
C965 C 1.00039 0.44688 0.94898 0.0
C966 C 0.01002 0.5607 0.06603 0.0
C967 C 0.00906 0.56303 0.95109 0.0
C968 C 0.95168 0.56564 0.00936 0.0
C969 C 0.94435 0.44964 0.00792 0.0
C970 C 0.06625 0.55856 0.00948 0.0
C971 C 0.0588 0.44255 0.00487 0.0
C972 C 0.06233 0.49917 0.94935 0.0
C973 C 0.94794 0.5138 0.95052 0.0
C974 C 0.06248 0.49295 0.06427 0.0
C975 C 0.94841 0.50917 0.06559 0.0
Eu976 Eu 1.00236 0.45973 0.0065 0.0
O977 O 0.98223 0.4847 0.98551 0.0
O978 O 0.0249 0.48188 0.02765 0.0
Eu979 Eu 0.96012 0.50683 0.00785 0.0
Eu980 Eu 0.05056 0.50132 0.00708 0.0
O981 O 0.9827 0.4839 0.02875 0.0
O982 O 0.02501 0.48239 0.98573 0.0
Eu983 Eu 0.00557 0.50305 0.05283 0.0
Eu984 Eu 0.00507 0.50474 0.96196 0.0
O985 O 0.98573 0.52568 0.02914 0.0
O986 O 0.98576 0.5262 0.9871 0.0
O987 O 0.02783 0.52411 0.98615 0.0
O988 O 0.02828 0.52333 0.02932 0.0
Eu989 Eu 0.00825 0.54842 0.00834 0.0
O990 O 0.00353 0.43858 0.04068 0.0
O991 O 1.00066 0.44009 0.97169 0.0
O992 O 0.00983 0.56789 0.04341 0.0
O993 O 0.00841 0.56935 0.97395 0.0
O994 O 0.94264 0.5436 0.00927 0.0
O995 O 0.93802 0.47263 0.00818 0.0
O996 O 0.07267 0.5356 0.00868 0.0
O997 O 0.06794 0.46451 0.00589 0.0
O998 O 0.03976 0.50047 0.94215 0.0
O999 O 0.97026 0.51104 0.9429 0.0
O1000 O 0.04028 0.4964 0.07196 0.0
O1001 O 0.97091 0.50701 0.07279 0.0
O1002 O 0.04394 0.56656 0.00921 0.0
O1003 O 0.97481 0.57087 0.009 0.0
O1004 O 0.03569 0.43732 0.00465 0.0
O1005 O 0.96663 0.44158 0.00723 0.0
O1006 O 1.00132 0.46952 0.94145 0.0
O1007 O 0.00895 0.54063 0.94294 0.0
O1008 O 0.0028 0.46705 0.07183 0.0
O1009 O 0.00886 0.53804 0.07333 0.0
O1010 O 0.94091 0.50899 0.04306 0.0
O1011 O 0.94058 0.51213 0.97306 0.0
O1012 O 0.06988 0.49481 0.04177 0.0
O1013 O 0.06987 0.49994 0.97185 0.0
C1014 C 0.50132 0.44542 0.06129 0.0
C1015 C 0.50149 0.56037 0.05965 0.0
C1016 C 0.49991 0.44377 0.94512 0.0
C1017 C 0.50617 0.55823 0.94326 0.0
C1018 C 0.56108 0.49863 0.94582 0.0
C1019 C 0.55811 0.49986 0.06207 0.0
C1020 C 0.44645 0.5025 0.94267 0.0
C1021 C 0.44354 0.50571 0.05913 0.0
C1022 C 0.44716 0.56164 0.99469 0.0
C1023 C 0.56195 0.55739 1.00058 0.0
C1024 C 0.44243 0.44701 0.0065 0.0
C1025 C 0.55724 0.44235 0.99789 0.0
Eu1026 Eu 0.50119 0.50271 0.04687 0.0
O1027 O 0.52393 0.52301 0.02367 0.0
O1028 O 0.47979 0.48215 0.02293 0.0
Eu1029 Eu 0.54754 0.50034 0.00358 0.0
Eu1030 Eu 0.45687 0.50386 1.00122 0.0
O1031 O 0.52227 0.48013 0.02419 0.0
O1032 O 0.48113 0.52458 0.02252 0.0
Eu1033 Eu 0.50039 0.45679 0.00304 0.0
Eu1034 Eu 0.50391 0.54735 1.00169 0.0
O1035 O 0.52294 0.47991 0.98263 0.0
O1036 O 0.52466 0.52203 0.98177 0.0
O1037 O 0.48259 0.52348 0.9808 0.0
O1038 O 0.48041 0.48112 0.98107 0.0
Eu1039 Eu 0.50339 0.50119 0.95793 0.0
O1040 O 0.50092 0.46824 0.06775 0.0
O1041 O 0.50066 0.53771 0.06668 0.0
O1042 O 0.50244 0.46632 0.93829 0.0
O1043 O 0.50585 0.53537 0.93704 0.0
O1044 O 0.56822 0.50003 0.96851 0.0
O1045 O 0.56646 0.49918 0.03972 0.0
O1046 O 0.43798 0.50285 0.96499 0.0
O1047 O 0.43648 0.50742 0.0364 0.0
O1048 O 0.46984 0.56821 0.99697 0.0
O1049 O 0.53966 0.56556 1.00079 0.0
O1050 O 0.4647 0.43883 0.00622 0.0
O1051 O 0.53449 0.43586 0.99957 0.0
O1052 O 0.4694 0.50223 0.93678 0.0
O1053 O 0.53851 0.49836 0.93856 0.0
O1054 O 0.46599 0.50303 0.06631 0.0
O1055 O 0.53524 0.50154 0.0681 0.0
O1056 O 0.503 0.56773 0.037 0.0
O1057 O 0.50539 0.56643 0.96563 0.0
O1058 O 0.50133 0.43748 0.03883 0.0
O1059 O 0.49803 0.43643 0.96775 0.0
O1060 O 0.56559 0.4645 0.99977 0.0
O1061 O 0.56847 0.53459 1.0019 0.0
O1062 O 0.43584 0.46972 0.00423 0.0
O1063 O 0.43887 0.53948 0.9964 0.0
C1064 C 0.01129 0.4459 0.55983 0.0
C1065 C 0.9973 0.4454 0.44538 0.0
C1066 C 0.9978 0.56035 0.56039 0.0
C1067 C 0.99306 0.56058 0.44536 0.0
C1068 C 0.94232 0.55907 0.50399 0.0
C1069 C 0.9455 0.44433 0.50589 0.0
C1070 C 0.05839 0.56219 0.50093 0.0
C1071 C 0.06171 0.44769 0.50023 0.0
C1072 C 0.05712 0.5056 0.44219 0.0
C1073 C 0.94093 0.5012 0.4483 0.0
C1074 C 0.06255 0.50638 0.55693 0.0
C1075 C 0.94667 0.50061 0.56282 0.0
Eu1076 Eu 0.00321 0.45784 0.50265 0.0
O1077 O 0.98081 0.48157 0.48258 0.0
O1078 O 0.02407 0.48292 0.52244 0.0
Eu1079 Eu 0.95762 0.50201 0.50493 0.0
Eu1080 Eu 0.04612 0.50461 0.50021 0.0
O1081 O 0.98244 0.48101 0.52522 0.0
O1082 O 0.02246 0.4823 0.48003 0.0
Eu1083 Eu 0.00401 0.50312 0.54789 0.0
Eu1084 Eu 0.99967 0.5031 0.45714 0.0
O1085 O 0.98162 0.52388 0.52479 0.0
O1086 O 0.9798 0.52357 0.48267 0.0
O1087 O 0.02117 0.52538 0.47989 0.0
O1088 O 0.02317 0.52516 0.52294 0.0
Eu1089 Eu 1.00068 0.54862 0.50261 0.0
O1090 O 0.00861 0.43837 0.53747 0.0
O1091 O 0.99979 0.43816 0.46786 0.0
O1092 O 0.99827 0.56791 0.53785 0.0
O1093 O 0.99591 0.56802 0.46773 0.0
O1094 O 0.93636 0.53615 0.50519 0.0
O1095 O 0.93842 0.46695 0.50551 0.0
O1096 O 0.06541 0.5396 0.49973 0.0
O1097 O 0.06759 0.47065 0.50048 0.0
O1098 O 0.03428 0.5042 0.43551 0.0
O1099 O 0.96301 0.50148 0.4393 0.0
O1100 O 0.04045 0.50569 0.56581 0.0
O1101 O 0.96955 0.49967 0.56943 0.0
O1102 O 0.03572 0.56948 0.50219 0.0
O1103 O 0.96459 0.56739 0.50285 0.0
O1104 O 0.03943 0.43924 0.50008 0.0
O1105 O 0.96821 0.43703 0.50567 0.0
O1106 O 0.9973 0.46792 0.43783 0.0
O1107 O 0.99444 0.53808 0.43787 0.0
O1108 O 0.00986 0.46841 0.56719 0.0
O1109 O 1.00016 0.53785 0.56761 0.0
O1110 O 0.93896 0.50218 0.54046 0.0
O1111 O 0.93559 0.50148 0.47141 0.0
O1112 O 0.06811 0.506 0.53386 0.0
O1113 O 0.06479 0.50597 0.46464 0.0
C1114 C 0.4992 0.94398 0.5588 0.0
C1115 C 0.50183 0.94543 0.44413 0.0
C1116 C 0.50146 0.06033 0.56 0.0
C1117 C 0.50588 0.06158 0.44506 0.0
C1118 C 0.44659 0.06248 0.50072 0.0
C1119 C 0.44402 0.94607 0.5009 0.0
C1120 C 0.56112 0.05987 0.50458 0.0
C1121 C 0.55872 0.94393 0.50202 0.0
C1122 C 0.56153 0.99734 0.44643 0.0
C1123 C 0.44654 0.00523 0.4431 0.0
C1124 C 0.55829 0.99952 0.56137 0.0
C1125 C 0.4435 0.00863 0.55804 0.0
Eu1126 Eu 0.50156 0.95854 0.5017 0.0
O1127 O 0.48141 0.98277 0.48003 0.0
O1128 O 0.5227 0.9814 0.52376 0.0
Eu1129 Eu 0.45726 0.0039 0.501 0.0
Eu1130 Eu 0.54765 1.00217 0.50341 0.0
O1131 O 0.4799 0.98197 0.52296 0.0
O1132 O 0.52353 0.98222 0.48156 0.0
Eu1133 Eu 0.50115 1.0023 0.54752 0.0
Eu1134 Eu 0.50376 0.00344 0.45668 0.0
O1135 O 0.48163 0.02378 0.52259 0.0
O1136 O 0.48237 0.02448 0.48054 0.0
O1137 O 0.5251 0.02395 0.48119 0.0
O1138 O 0.52352 0.02329 0.52436 0.0
Eu1139 Eu 0.50362 0.04749 0.50237 0.0
O1140 O 0.50001 0.93777 0.53594 0.0
O1141 O 0.50253 0.93852 0.46683 0.0
O1142 O 0.50263 0.06735 0.53735 0.0
O1143 O 0.50423 0.06805 0.46782 0.0
O1144 O 0.43832 0.04012 0.50034 0.0
O1145 O 0.43663 0.96873 0.50172 0.0
O1146 O 0.56832 0.03717 0.50505 0.0
O1147 O 0.56672 0.96633 0.50233 0.0
O1148 O 0.53922 0.99824 0.43836 0.0
O1149 O 0.46925 0.00576 0.43623 0.0
O1150 O 0.53556 1.00043 0.56813 0.0
O1151 O 0.46571 0.00644 0.56613 0.0
O1152 O 0.53858 0.06709 0.50329 0.0
O1153 O 0.46948 0.06852 0.50154 0.0
O1154 O 0.53589 0.93751 0.50223 0.0
O1155 O 0.46665 0.9391 0.50031 0.0
O1156 O 0.5014 0.96805 0.43661 0.0
O1157 O 0.50682 0.03911 0.43717 0.0
O1158 O 0.49933 0.96639 0.56694 0.0
O1159 O 0.50099 0.0377 0.56747 0.0
O1160 O 0.43676 0.00739 0.53533 0.0
O1161 O 0.4387 0.00408 0.46548 0.0
O1162 O 0.56622 1.00004 0.53899 0.0
O1163 O 0.56828 0.99987 0.46904 0.0
H1164 H 0.14088 0.18067 0.4524 0.0
H1165 H 0.11016 0.05555 0.51183 0.0
H1166 H 0.19045 0.14101 0.49578 0.0
H1167 H 0.05668 0.10449 0.48615 0.0
H1168 H 0.14072 0.08487 0.5025 0.0
H1169 H 0.11058 0.15066 0.46061 0.0
C1170 C 0.14543 0.16563 0.46356 0.0
C1171 C 0.16822 0.16339 0.47346 0.0
C1172 C 0.12228 0.08921 0.49903 0.0
C1173 C 0.13376 0.12901 0.48277 0.0
C1174 C 0.10483 0.0725 0.50434 0.0
C1175 C 0.08084 0.07762 0.49981 0.0
C1176 C 0.1157 0.11106 0.48889 0.0
C1177 C 0.07494 0.09988 0.49014 0.0
C1178 C 0.12814 0.14853 0.46823 0.0
C1179 C 0.17324 0.14331 0.48747 0.0
N1180 N 0.0923 0.11575 0.48487 0.0
N1181 N 0.15612 0.12692 0.49176 0.0
H1182 H 0.81851 0.13565 0.46787 0.0
H1183 H 0.95527 0.10441 0.48409 0.0
H1184 H 0.87508 0.17749 0.43699 0.0
H1185 H 0.89871 0.05508 0.50059 0.0
H1186 H 0.926 0.13195 0.46796 0.0
H1187 H 0.8474 0.10566 0.47932 0.0
C1188 C 0.83692 0.13833 0.4629 0.0
C1189 C 0.84434 0.1593 0.45149 0.0
C1190 C 0.92001 0.1151 0.47512 0.0
C1191 C 0.8777 0.12523 0.4655 0.0
C1192 C 0.93668 0.09943 0.48462 0.0
C1193 C 0.92946 0.07738 0.49388 0.0
C1194 C 0.89589 0.1088 0.47501 0.0
C1195 C 0.90513 0.07188 0.49372 0.0
C1196 C 0.85348 0.12125 0.46977 0.0
C1197 C 0.86858 0.16184 0.44612 0.0
N1198 N 0.88921 0.08752 0.48446 0.0
N1199 N 0.88445 0.14514 0.45344 0.0
H1200 H 0.8186 0.86698 0.54307 0.0
H1201 H 0.95556 0.89905 0.53006 0.0
H1202 H 0.87496 0.8223 0.57026 0.0
H1203 H 0.89889 0.94928 0.51657 0.0
H1204 H 0.92629 0.87043 0.54412 0.0
H1205 H 0.84764 0.89759 0.53406 0.0
C1206 C 0.83701 0.86375 0.5477 0.0
C1207 C 0.8443 0.84189 0.55742 0.0
C1208 C 0.92027 0.88772 0.53809 0.0
C1209 C 0.87785 0.87675 0.54626 0.0
C1210 C 0.93696 0.90403 0.52982 0.0
C1211 C 0.9297 0.92662 0.52194 0.0
C1212 C 0.89611 0.89391 0.53833 0.0
C1213 C 0.90534 0.93209 0.52239 0.0
C1214 C 0.85365 0.88121 0.54225 0.0
C1215 C 0.86855 0.83868 0.56242 0.0
N1216 N 0.88942 0.91581 0.53038 0.0
N1217 N 0.8845 0.85583 0.55654 0.0
H1218 H 0.13491 0.8247 0.439 0.0
H1219 H 0.11039 0.94843 0.5045 0.0
H1220 H 0.18926 0.86602 0.47409 0.0
H1221 H 0.0547 0.89998 0.48336 0.0
H1222 H 0.13986 0.92029 0.48965 0.0
H1223 H 0.10553 0.85471 0.45042 0.0
C1224 C 0.14073 0.84019 0.44883 0.0
C1225 C 0.16459 0.84274 0.4557 0.0
C1226 C 0.12119 0.91578 0.48837 0.0
C1227 C 0.13113 0.87702 0.46883 0.0
C1228 C 0.10435 0.93179 0.49692 0.0
C1229 C 0.08003 0.9265 0.49531 0.0
C1230 C 0.11368 0.8944 0.47794 0.0
C1231 C 0.07326 0.90469 0.48525 0.0
C1232 C 0.12395 0.85726 0.45539 0.0
C1233 C 0.17117 0.86337 0.46811 0.0
N1234 N 0.09002 0.88946 0.47684 0.0
N1235 N 0.1545 0.87961 0.47442 0.0
H1236 H 0.4237 0.17812 0.13801 0.0
H1237 H 0.49287 0.05601 0.11505 0.0
H1238 H 0.45933 0.13789 0.19304 0.0
H1239 H 0.47373 0.10513 0.05901 0.0
H1240 H 0.47561 0.08319 0.1441 0.0
H1241 H 0.43607 0.14815 0.10898 0.0
C1242 C 0.43382 0.16289 0.14407 0.0
C1243 C 0.44062 0.16071 0.16803 0.0
C1244 C 0.47526 0.08803 0.12544 0.0
C1245 C 0.45476 0.12643 0.13496 0.0
C1246 C 0.4852 0.07257 0.10884 0.0
C1247 C 0.48494 0.07837 0.08455 0.0
C1248 C 0.46481 0.10936 0.11771 0.0
C1249 C 0.47462 0.10004 0.07757 0.0
C1250 C 0.4409 0.14583 0.12749 0.0
C1251 C 0.45337 0.14031 0.1749 0.0
N1252 N 0.4649 0.11474 0.09409 0.0
N1253 N 0.46018 0.1241 0.15842 0.0
H1254 H 0.8171 0.52119 0.14356 0.0
H1255 H 0.95533 0.52107 0.11233 0.0
H1256 H 0.8711 0.54718 0.19154 0.0
H1257 H 0.90005 0.50674 0.06091 0.0
H1258 H 0.92485 0.52947 0.14205 0.0
H1259 H 0.84733 0.51567 0.11309 0.0
C1260 C 0.83526 0.52615 0.14757 0.0
C1261 C 0.84157 0.53469 0.17016 0.0
C1262 C 0.91943 0.5245 0.12425 0.0
C1263 C 0.87641 0.52775 0.13551 0.0
C1264 C 0.93681 0.51952 0.1073 0.0
C1265 C 0.93024 0.51312 0.08408 0.0
C1266 C 0.89534 0.52294 0.11796 0.0
C1267 C 0.90596 0.51166 0.07856 0.0
C1268 C 0.85256 0.52276 0.13022 0.0
C1269 C 0.8655 0.54026 0.17447 0.0
N1270 N 0.88939 0.51649 0.0954 0.0
N1271 N 0.8821 0.53656 0.15733 0.0
H1272 H 0.58047 0.8306 0.13732 0.0
H1273 H 0.50779 0.95067 0.11411 0.0
H1274 H 0.54255 0.86894 0.19211 0.0
H1275 H 0.53132 0.90367 0.05799 0.0
H1276 H 0.52447 0.92327 0.14335 0.0
H1277 H 0.56757 0.86045 0.10835 0.0
C1278 C 0.56973 0.84541 0.14334 0.0
C1279 C 0.56248 0.84711 0.16719 0.0
C1280 C 0.52587 0.91893 0.12463 0.0
C1281 C 0.54766 0.88121 0.1342 0.0
C1282 C 0.51625 0.93451 0.10791 0.0
C1283 C 0.51799 0.92942 0.08353 0.0
C1284 C 0.53749 0.89821 0.11692 0.0
C1285 C 0.52929 0.90823 0.07659 0.0
C1286 C 0.56233 0.86239 0.1268 0.0
C1287 C 0.54887 0.86694 0.17403 0.0
N1288 N 0.5387 0.89345 0.09322 0.0
N1289 N 0.54176 0.88309 0.15758 0.0
H1290 H 0.18039 0.42164 0.13215 0.0
H1291 H 0.05787 0.49127 0.11282 0.0
H1292 H 0.13916 0.45272 0.1891 0.0
H1293 H 0.10625 0.47328 0.05579 0.0
H1294 H 0.08494 0.47249 0.14103 0.0
H1295 H 0.14992 0.43453 0.10387 0.0
C1296 C 0.16478 0.43079 0.13878 0.0
C1297 C 0.16253 0.43633 0.16303 0.0
C1298 C 0.08963 0.47272 0.12234 0.0
C1299 C 0.12775 0.45119 0.13083 0.0
C1300 C 0.07425 0.48357 0.10621 0.0
C1301 C 0.07984 0.48405 0.08187 0.0
C1302 C 0.11069 0.46213 0.11409 0.0
C1303 C 0.10129 0.47361 0.0744 0.0
C1304 C 0.14746 0.43821 0.12262 0.0
C1305 C 0.14169 0.44785 0.17065 0.0
N1306 N 0.11591 0.46303 0.09046 0.0
N1307 N 0.12526 0.45513 0.15457 0.0
H1308 H 0.50354 0.81784 0.86962 0.0
H1309 H 0.49555 0.95538 0.90301 0.0
H1310 H 0.47443 0.87139 0.82276 0.0
H1311 H 0.51098 0.90017 0.95436 0.0
H1312 H 0.49041 0.92503 0.87259 0.0
H1313 H 0.50814 0.84794 0.90047 0.0
C1314 C 0.49784 0.83587 0.86591 0.0
C1315 C 0.48857 0.84213 0.84358 0.0
C1316 C 0.49493 0.91958 0.89052 0.0
C1317 C 0.49428 0.87671 0.87861 0.0
C1318 C 0.49803 0.93691 0.90789 0.0
C1319 C 0.5037 0.93032 0.93131 0.0
C1320 C 0.49765 0.89552 0.89655 0.0
C1321 C 0.5065 0.90608 0.93657 0.0
C1322 C 0.50064 0.85307 0.88347 0.0
C1323 C 0.48195 0.86586 0.83961 0.0
N1324 N 0.50346 0.88953 0.91929 0.0
N1325 N 0.48501 0.88233 0.85695 0.0
H1326 H 0.19191 0.49789 0.86756 0.0
H1327 H 0.05586 0.48417 0.90353 0.0
H1328 H 0.14144 0.45782 0.82582 0.0
H1329 H 0.11035 0.50595 0.9531 0.0
H1330 H 0.08652 0.47706 0.87365 0.0
H1331 H 0.16192 0.50273 0.89844 0.0
C1332 C 0.17465 0.48976 0.86502 0.0
C1333 C 0.1692 0.4774 0.84403 0.0
C1334 C 0.09173 0.48335 0.89109 0.0
C1335 C 0.13461 0.48349 0.87908 0.0
C1336 C 0.07424 0.48761 0.9081 0.0
C1337 C 0.08055 0.49572 0.93084 0.0
C1338 C 0.11566 0.48746 0.89679 0.0
C1339 C 0.10468 0.49962 0.93582 0.0
C1340 C 0.15748 0.49272 0.8826 0.0
C1341 C 0.14632 0.46778 0.84155 0.0
N1342 N 0.12136 0.49553 0.91888 0.0
N1343 N 0.12979 0.47116 0.85881 0.0
H1344 H 0.5773 0.14 0.83653 0.0
H1345 H 0.50713 0.11204 0.95707 0.0
H1346 H 0.53512 0.19196 0.87433 0.0
H1347 H 0.5336 0.05779 0.90947 0.0
H1348 H 0.52223 0.14243 0.92996 0.0
H1349 H 0.5673 0.11059 0.867 0.0
C1350 C 0.56623 0.14534 0.85138 0.0
C1351 C 0.55684 0.16845 0.85269 0.0
C1352 C 0.52465 0.12386 0.92545 0.0
C1353 C 0.54535 0.13493 0.88752 0.0
C1354 C 0.51596 0.1065 0.94086 0.0
C1355 C 0.5189 0.08231 0.93544 0.0
C1356 C 0.53656 0.117 0.90459 0.0
C1357 C 0.53061 0.07621 0.91423 0.0
C1358 C 0.56049 0.12853 0.86871 0.0
C1359 C 0.54296 0.17447 0.8726 0.0
N1360 N 0.53908 0.09345 0.89961 0.0
N1361 N 0.53746 0.15774 0.8891 0.0
H1362 H 0.87228 0.54203 0.82057 0.0
H1363 H 0.90379 0.53299 0.95819 0.0
H1364 H 0.83048 0.57614 0.87536 0.0
H1365 H 0.95192 0.51204 0.902 0.0
H1366 H 0.87619 0.54806 0.92824 0.0
H1367 H 0.90194 0.53171 0.85013 0.0
C1368 C 0.86954 0.54791 0.83871 0.0
C1369 C 0.84869 0.55997 0.84543 0.0
C1370 C 0.89281 0.54017 0.9225 0.0
C1371 C 0.88241 0.54727 0.87965 0.0
C1372 C 0.90848 0.53131 0.93957 0.0
C1373 C 0.93019 0.52109 0.93261 0.0
C1374 C 0.89881 0.53865 0.89831 0.0
C1375 C 0.93541 0.51975 0.90822 0.0
C1376 C 0.88643 0.5417 0.85567 0.0
C1377 C 0.84604 0.56649 0.86941 0.0
N1378 N 0.9198 0.52838 0.89197 0.0
N1379 N 0.86259 0.55982 0.88572 0.0
H1380 H 0.64224 0.68717 0.98745 0.0
H1381 H 0.60857 0.54939 0.98876 0.0
H1382 H 0.68927 0.63196 0.96203 0.0
H1383 H 0.55864 0.60582 0.00419 0.0
H1384 H 0.63892 0.5792 0.98042 0.0
H1385 H 0.61152 0.65747 0.99399 0.0
C1386 C 0.646 0.66885 0.98284 0.0
C1387 C 0.66839 0.66206 0.97413 0.0
C1388 C 0.62132 0.58502 0.98566 0.0
C1389 C 0.63343 0.62782 0.98224 0.0
C1390 C 0.60401 0.56802 0.99062 0.0
C1391 C 0.58099 0.5751 0.99723 0.0
C1392 C 0.6156 0.60926 0.98743 0.0
C1393 C 0.5761 0.59951 0.99909 0.0
C1394 C 0.6285 0.65185 0.98682 0.0
C1395 C 0.67237 0.63794 0.96905 0.0
N1396 N 0.59327 0.6157 0.99422 0.0
N1397 N 0.65508 0.62165 0.97329 0.0
H1398 H 0.38098 0.68789 0.93685 0.0
H1399 H 0.39859 0.55843 0.99323 0.0
H1400 H 0.32339 0.64321 0.96105 0.0
H1401 H 0.45652 0.60695 0.9793 0.0
H1402 H 0.37085 0.58798 0.9779 0.0
H1403 H 0.4091 0.65648 0.94773 0.0
C1404 C 0.37422 0.67139 0.94413 0.0
C1405 C 0.34978 0.66828 0.94816 0.0
C1406 C 0.38963 0.59218 0.97827 0.0
C1407 C 0.38179 0.63241 0.96072 0.0
C1408 C 0.4055 0.57535 0.98713 0.0
C1409 C 0.42995 0.58022 0.98771 0.0
C1410 C 0.39824 0.61403 0.96981 0.0
C1411 C 0.43781 0.60246 0.97945 0.0
C1412 C 0.39027 0.65351 0.95039 0.0
C1413 C 0.342 0.64638 0.95734 0.0
N1414 N 0.42199 0.61853 0.97079 0.0
N1415 N 0.35797 0.62939 0.96349 0.0
H1416 H 0.36414 0.32466 0.05501 0.0
H1417 H 0.39431 0.45226 1.00027 0.0
H1418 H 0.31334 0.36675 0.01555 0.0
H1419 H 0.4475 0.40181 0.02358 0.0
H1420 H 0.36344 0.42323 0.00984 0.0
H1421 H 0.39405 0.35533 0.04817 0.0
C1422 C 0.35926 0.34038 0.04499 0.0
C1423 C 0.33626 0.34307 0.0357 0.0
C1424 C 0.3819 0.41856 0.01277 0.0
C1425 C 0.3703 0.37823 0.02793 0.0
C1426 C 0.39952 0.43509 0.00731 0.0
C1427 C 0.42354 0.42942 0.01098 0.0
C1428 C 0.38836 0.39634 0.02218 0.0
C1429 C 0.42924 0.4069 0.0202 0.0
C1430 C 0.37631 0.35788 0.04111 0.0
C1431 C 0.33077 0.36403 0.02324 0.0
N1432 N 0.41177 0.39122 0.02554 0.0
N1433 N 0.34773 0.38078 0.01962 0.0
H1434 H 0.66923 0.36562 0.92665 0.0
H1435 H 0.55213 0.39412 1.00199 0.0
H1436 H 0.63311 0.31359 0.97021 0.0
H1437 H 0.60045 0.44807 0.97642 0.0
H1438 H 0.57828 0.36359 0.98548 0.0
H1439 H 0.63973 0.39526 0.93868 0.0
C1440 C 0.65493 0.3603 0.93842 0.0
C1441 C 0.65389 0.33711 0.94765 0.0
C1442 C 0.58318 0.38212 0.9836 0.0
C1443 C 0.62017 0.37089 0.96142 0.0
C1444 C 0.56834 0.39954 0.99312 0.0
C1445 C 0.57422 0.42367 0.99078 0.0
C1446 C 0.60388 0.38889 0.97141 0.0
C1447 C 0.59539 0.42967 0.97897 0.0
C1448 C 0.63817 0.37725 0.94533 0.0
C1449 C 0.63464 0.33114 0.96245 0.0
N1450 N 0.60941 0.41238 0.96962 0.0
N1451 N 0.61869 0.34798 0.96905 0.0
H1452 H 0.97614 0.68927 0.64056 0.0
H1453 H 0.98518 0.55233 0.60671 0.0
H1454 H 0.94946 0.63277 0.68529 0.0
H1455 H 0.99746 0.60897 0.55611 0.0
H1456 H 0.97334 0.58174 0.63614 0.0
H1457 H 0.9838 0.66038 0.60924 0.0
C1458 C 0.9714 0.67087 0.64364 0.0
C1459 C 0.96224 0.66342 0.66567 0.0
C1460 C 0.97861 0.58773 0.61859 0.0
C1461 C 0.97169 0.63016 0.6301 0.0
C1462 C 0.98562 0.57096 0.60181 0.0
C1463 C 0.99245 0.57817 0.57888 0.0
C1464 C 0.97857 0.61192 0.61251 0.0
C1465 C 0.99235 0.60257 0.57355 0.0
C1466 C 0.97602 0.65434 0.62581 0.0
C1467 C 0.95691 0.63924 0.66875 0.0
N1468 N 0.98557 0.61859 0.59029 0.0
N1469 N 0.96194 0.62342 0.65123 0.0
H1470 H 0.36778 0.07788 0.67186 0.0
H1471 H 0.39521 0.00545 0.55294 0.0
H1472 H 0.31548 0.03469 0.63588 0.0
H1473 H 0.44965 0.02783 0.60227 0.0
H1474 H 0.365 0.02097 0.58004 0.0
H1475 H 0.39735 0.06547 0.64245 0.0
C1476 C 0.36242 0.06603 0.65767 0.0
C1477 C 0.33912 0.05717 0.65652 0.0
C1478 C 0.38357 0.02236 0.58494 0.0
C1479 C 0.37278 0.04305 0.62287 0.0
C1480 C 0.40081 0.01344 0.56955 0.0
C1481 C 0.425 0.01525 0.5754 0.0
C1482 C 0.39058 0.03343 0.60616 0.0
C1483 C 0.43122 0.02585 0.59713 0.0
C1484 C 0.37931 0.05894 0.64095 0.0
C1485 C 0.33309 0.04223 0.63742 0.0
N1486 N 0.4141 0.03469 0.61167 0.0
N1487 N 0.34987 0.03552 0.62144 0.0
H1488 H 0.03106 0.31643 0.63938 0.0
H1489 H 0.02809 0.45355 0.60484 0.0
H1490 H 0.0606 0.37178 0.6836 0.0
H1491 H 0.00971 0.39732 0.55581 0.0
H1492 H 0.04024 0.42374 0.63381 0.0
H1493 H 0.02462 0.34551 0.60793 0.0
C1494 C 0.0367 0.3346 0.64231 0.0
C1495 C 0.04628 0.34171 0.66424 0.0
C1496 C 0.03359 0.41792 0.6167 0.0
C1497 C 0.03825 0.37522 0.62851 0.0
C1498 C 0.02643 0.43494 0.60018 0.0
C1499 C 0.01767 0.42794 0.57788 0.0
C1500 C 0.03184 0.39372 0.61097 0.0
C1501 C 0.01629 0.40355 0.57279 0.0
C1502 C 0.03277 0.35125 0.6244 0.0
C1503 C 0.05279 0.36561 0.66713 0.0
N1504 N 0.02321 0.3873 0.58927 0.0
N1505 N 0.04842 0.38158 0.64954 0.0
H1506 H 0.6885 0.9987 0.64225 0.0
H1507 H 0.55111 0.98884 0.6084 0.0
H1508 H 0.63487 0.9723 0.69051 0.0
H1509 H 0.60652 0.00478 0.55751 0.0
H1510 H 0.58131 0.98421 0.63917 0.0
H1511 H 0.65848 1.00185 0.61117 0.0
C1512 C 0.67046 0.99328 0.64623 0.0
C1513 C 0.66418 0.98517 0.669 0.0
C1514 C 0.58683 0.9887 0.62126 0.0
C1515 C 0.62964 0.98921 0.63363 0.0
C1516 C 0.5696 0.99147 0.60369 0.0
C1517 C 0.57628 0.99724 0.58031 0.0
C1518 C 0.61089 0.99183 0.61545 0.0
C1519 C 0.60052 1.00024 0.57525 0.0
C1520 C 0.65329 0.99526 0.62851 0.0
C1521 C 0.64042 0.9789 0.67328 0.0
N1522 N 0.61695 0.99754 0.5927 0.0
N1523 N 0.62397 0.98112 0.65576 0.0
H1524 H 0.98575 0.31326 0.36904 0.0
H1525 H 0.97752 0.45077 0.40121 0.0
H1526 H 0.94219 0.36302 0.32979 0.0
H1527 H 0.00564 0.39764 0.44921 0.0
H1528 H 0.96669 0.41925 0.37344 0.0
H1529 H 0.99417 0.34413 0.39807 0.0
C1530 C 0.97753 0.33053 0.36675 0.0
C1531 C 0.96321 0.33552 0.34689 0.0
C1532 C 0.97524 0.41453 0.39005 0.0
C1533 C 0.97349 0.37121 0.37974 0.0
C1534 C 0.98166 0.43252 0.40581 0.0
C1535 C 0.99256 0.42682 0.42755 0.0
C1536 C 0.97994 0.39074 0.39601 0.0
C1537 C 0.99721 0.40284 0.43269 0.0
C1538 C 0.98258 0.34824 0.38323 0.0
C1539 C 0.9536 0.35847 0.34463 0.0
N1540 N 0.9909 0.38568 0.417 0.0
N1541 N 0.95908 0.37555 0.36077 0.0
H1542 H 0.69408 0.97386 0.37341 0.0
H1543 H 0.55604 0.97715 0.40251 0.0
H1544 H 0.6425 0.93138 0.3356 0.0
H1545 H 0.6097 1.00183 0.45162 0.0
H1546 H 0.58741 0.96252 0.37633 0.0
H1547 H 0.66353 0.98491 0.40191 0.0
C1548 C 0.67649 0.96634 0.37136 0.0
C1549 C 0.67088 0.9517 0.35192 0.0
C1550 C 0.59228 0.97115 0.39283 0.0
C1551 C 0.63556 0.96512 0.38413 0.0
C1552 C 0.57441 0.97979 0.40766 0.0
C1553 C 0.58025 0.99085 0.42926 0.0
C1554 C 0.61616 0.97379 0.39954 0.0
C1555 C 0.60436 0.99343 0.43515 0.0
C1556 C 0.65896 0.97294 0.38754 0.0
C1557 C 0.64755 0.94305 0.35003 0.0
N1558 N 0.62144 0.98499 0.42033 0.0
N1559 N 0.63065 0.95013 0.36577 0.0
H1560 H 0.93269 0.68452 0.37769 0.0
H1561 H 0.99128 0.55625 0.39677 0.0
H1562 H 0.9603 0.64129 0.32047 0.0
H1563 H 0.97723 0.60581 0.45383 0.0
H1564 H 0.97563 0.58525 0.36845 0.0
H1565 H 0.94357 0.65319 0.40587 0.0
C1566 C 0.94074 0.66835 0.37101 0.0
C1567 C 0.94575 0.66565 0.34669 0.0
C1568 C 0.97606 0.58976 0.38718 0.0
C1569 C 0.95829 0.62983 0.37877 0.0
C1570 C 0.98509 0.57326 0.40335 0.0
C1571 C 0.98577 0.57864 0.42772 0.0
C1572 C 0.96749 0.61171 0.39544 0.0
C1573 C 0.97735 0.60095 0.4352 0.0
C1574 C 0.94699 0.65051 0.38709 0.0
C1575 C 0.95586 0.64412 0.33899 0.0
N1576 N 0.9685 0.61664 0.41912 0.0
N1577 N 0.96199 0.62714 0.35501 0.0
H1578 H 0.31752 0.98953 0.36258 0.0
H1579 H 0.45197 0.01841 0.39645 0.0
H1580 H 0.36384 0.03131 0.31772 0.0
H1581 H 0.39958 0.99376 0.44705 0.0
H1582 H 0.42107 0.01993 0.36593 0.0
H1583 H 0.34865 0.98794 0.39264 0.0
C1584 C 0.33416 0.99857 0.35914 0.0
C1585 C 0.33805 0.0107 0.33768 0.0
C1586 C 0.4164 0.01424 0.38375 0.0
C1587 C 0.37389 0.00853 0.37179 0.0
C1588 C 0.43402 0.01325 0.40113 0.0
C1589 C 0.42832 0.00601 0.42434 0.0
C1590 C 0.39305 0.00771 0.38961 0.0
C1591 C 0.40476 0.99963 0.42945 0.0
C1592 C 0.35197 0.99752 0.37625 0.0
C1593 C 0.36019 0.02157 0.33393 0.0
N1594 N 0.38799 1.00059 0.41218 0.0
N1595 N 0.37733 0.02021 0.35085 0.0
H1596 H 0.99802 0.12189 0.30729 0.0
H1597 H 0.01212 0.10716 0.44902 0.0
H1598 H 0.01751 0.17973 0.35373 0.0
H1599 H 0.99713 0.04933 0.40078 0.0
H1600 H 0.01355 0.13435 0.41479 0.0
H1601 H 0.99718 0.09527 0.34172 0.0
C1602 C 1.00217 0.12902 0.32469 0.0
C1603 C 0.00794 0.15315 0.32746 0.0
C1604 C 0.00995 0.11568 0.41177 0.0
C1605 C 0.00698 0.12264 0.36722 0.0
C1606 C 0.00905 0.10015 0.43134 0.0
C1607 C 0.00452 0.07581 0.42796 0.0
C1608 C 0.0062 0.10687 0.38863 0.0
C1609 C 1.00077 0.06785 0.40449 0.0
C1610 C 1.00175 0.11377 0.3444 0.0
C1611 C 0.01335 0.16122 0.35056 0.0
N1612 N 1.00169 0.08327 0.38587 0.0
N1613 N 0.01265 0.14607 0.36949 0.0
H1614 H 0.82124 0.01528 0.35914 0.0
H1615 H 0.95378 0.98924 0.40398 0.0
H1616 H 0.8796 0.99603 0.3131 0.0
H1617 H 0.89764 0.01083 0.4518 0.0
H1618 H 0.92618 0.99131 0.37097 0.0
H1619 H 0.84832 0.01434 0.3932 0.0
C1620 C 0.8398 0.01118 0.35608 0.0
C1621 C 0.84809 0.00577 0.33306 0.0
C1622 C 0.91977 0.9956 0.38863 0.0
C1623 C 0.87914 0.00417 0.37226 0.0
C1624 C 0.93559 0.99443 0.40764 0.0
C1625 C 0.92815 1.00001 0.43088 0.0
C1626 C 0.89611 1.00243 0.39258 0.0
C1627 C 0.90419 0.0063 0.43427 0.0
C1628 C 0.85521 0.01043 0.37564 0.0
C1629 C 0.87227 1.00008 0.33044 0.0
N1630 N 0.88903 0.00743 0.4153 0.0
N1631 N 0.88684 0.99939 0.34974 0.0
H1632 H 0.00288 0.87852 0.31053 0.0
H1633 H 0.01024 0.89512 0.45245 0.0
H1634 H 0.0135 0.81999 0.35916 0.0
H1635 H 0.9976 0.95212 0.40241 0.0
H1636 H 0.01224 0.86715 0.41893 0.0
H1637 H 1.00211 0.90576 0.34435 0.0
C1638 C 0.00513 0.87137 0.32829 0.0
C1639 C 0.00829 0.84686 0.33188 0.0
C1640 C 0.00901 0.88581 0.41537 0.0
C1641 C 0.00741 0.87807 0.37092 0.0
C1642 C 0.00777 0.90177 0.43453 0.0
C1643 C 0.00378 0.9261 0.43039 0.0
C1644 C 0.00622 0.89422 0.39192 0.0
C1645 C 1.00085 0.93363 0.40666 0.0
C1646 C 0.00473 0.88696 0.34765 0.0
C1647 C 0.01138 0.83876 0.3554 0.0
N1648 N 1.00215 0.91782 0.38847 0.0
N1649 N 0.01076 0.85427 0.37399 0.0
H1650 H 0.17398 0.97711 0.34545 0.0
H1651 H 0.05143 0.0205 0.40344 0.0
H1652 H 0.12114 0.01839 0.30803 0.0
H1653 H 0.10699 0.98704 0.44458 0.0
H1654 H 0.07686 0.01932 0.3685 0.0
H1655 H 0.1497 0.97939 0.38151 0.0
C1656 C 0.15714 0.98644 0.34469 0.0
C1657 C 0.14955 0.99741 0.32347 0.0
C1658 C 0.08363 0.0123 0.38512 0.0
C1659 C 0.12178 1.00042 0.36504 0.0
C1660 C 0.06907 0.01291 0.40518 0.0
C1661 C 0.07698 0.00369 0.42707 0.0
C1662 C 0.1064 1.00221 0.38664 0.0
C1663 C 0.10016 0.99441 0.42813 0.0
C1664 C 0.1434 0.98793 0.36542 0.0
C1665 C 0.12782 0.00974 0.32389 0.0
N1666 N 0.11399 0.99372 0.40815 0.0
N1667 N 0.11472 0.01083 0.34426 0.0
H1668 H 0.03583 0.84998 0.68518 0.0
H1669 H 0.97683 0.90848 0.57309 0.0
H1670 H 0.96034 0.86485 0.68478 0.0
H1671 H 0.03714 0.94379 0.6044 0.0
H1672 H 0.97427 0.88271 0.6085 0.0
H1673 H 0.04042 0.87655 0.65091 0.0
C1674 C 0.02021 0.85887 0.67827 0.0
C1675 C 0.99753 0.85459 0.68807 0.0
C1676 C 0.9882 0.89596 0.60741 0.0
C1677 C 0.00279 0.88414 0.64793 0.0
C1678 C 0.98979 0.91045 0.5872 0.0
C1679 C 0.00727 0.92815 0.58587 0.0
C1680 C 0.00463 0.89874 0.62602 0.0
C1681 C 0.02344 0.93029 0.60481 0.0
C1682 C 0.02292 0.87385 0.65848 0.0
C1683 C 0.97809 0.8666 0.67763 0.0
N1684 N 0.02189 0.9156 0.62406 0.0
N1685 N 0.98112 0.88041 0.65797 0.0
H1686 H 0.13156 0.00638 0.70265 0.0
H1687 H 0.11255 0.9974 0.5611 0.0
H1688 H 0.18917 0.9949 0.65322 0.0
H1689 H 0.05579 0.00626 0.61217 0.0
H1690 H 0.14109 0.99626 0.59417 0.0
H1691 H 0.10364 0.00603 0.66934 0.0
C1692 C 0.13836 0.00372 0.68482 0.0
C1693 C 0.16282 1.00061 0.68086 0.0
C1694 C 0.12236 0.99844 0.59805 0.0
C1695 C 0.13082 1.00021 0.64239 0.0
C1696 C 0.10604 0.99914 0.57915 0.0
C1697 C 0.08162 1.00195 0.58367 0.0
C1698 C 0.11423 1.0006 0.62166 0.0
C1699 C 0.07435 0.00405 0.60757 0.0
C1700 C 0.12238 0.00346 0.66575 0.0
C1701 C 0.17047 0.99701 0.65726 0.0
N1702 N 0.0905 0.00335 0.62552 0.0
N1703 N 0.15459 0.99701 0.63897 0.0
H1704 H 0.03093 0.17801 0.66012 0.0
H1705 H 0.9859 0.05377 0.60938 0.0
H1706 H 0.98158 0.13328 0.69813 0.0
H1707 H 0.01761 0.10748 0.56464 0.0
H1708 H 0.98553 0.08184 0.64243 0.0
H1709 H 0.02789 0.15169 0.62567 0.0
C1710 C 0.01952 0.16255 0.66127 0.0
C1711 C 0.0067 0.1577 0.68221 0.0
C1712 C 0.99245 0.08758 0.62538 0.0
C1713 C 0.00304 0.12747 0.64259 0.0
C1714 C 0.99277 0.07151 0.60646 0.0
C1715 C 1.00197 0.07818 0.58414 0.0
C1716 C 1.00171 0.11051 0.62224 0.0
C1717 C 0.01034 0.10155 0.58147 0.0
C1718 C 0.01766 0.14764 0.64149 0.0
C1719 C 0.99181 0.13768 0.68241 0.0
N1720 N 0.01024 0.11678 0.60035 0.0
N1721 N 0.99057 0.12319 0.66301 0.0
H1722 H 0.88266 0.01794 0.70632 0.0
H1723 H 0.90098 0.99299 0.56663 0.0
H1724 H 0.83208 0.97978 0.66319 0.0
H1725 H 0.95736 0.01604 0.61329 0.0
H1726 H 0.87391 0.9921 0.60089 0.0
H1727 H 0.90884 0.02136 0.67148 0.0
C1728 C 0.87705 0.01031 0.68955 0.0
C1729 C 0.85525 0.99831 0.68781 0.0
C1730 C 0.8922 0.99741 0.60357 0.0
C1731 C 0.88501 1.0023 0.64777 0.0
C1732 C 0.90764 0.99804 0.58398 0.0
C1733 C 0.93156 0.00448 0.58701 0.0
C1734 C 0.90064 0.00352 0.62635 0.0
C1735 C 0.93916 0.01074 0.61004 0.0
C1736 C 0.89201 0.0122 0.66968 0.0
C1737 C 0.84892 0.98878 0.66554 0.0
N1738 N 0.9238 0.01012 0.62873 0.0
N1739 N 0.86365 0.99101 0.64647 0.0
H1740 H 0.33866 0.02901 0.17244 0.0
H1741 H 0.39981 0.98229 0.05302 0.0
H1742 H 0.30448 0.98027 0.12415 0.0
H1743 H 0.43941 0.0164 0.10914 0.0
H1744 H 0.36446 0.98276 0.07813 0.0
H1745 H 0.37498 0.02649 0.14865 0.0
C1746 C 0.33869 0.01795 0.15667 0.0
C1747 C 0.3183 0.00502 0.15017 0.0
C1748 C 0.38087 0.99002 0.08507 0.0
C1749 C 0.36015 1.00183 0.12295 0.0
C1750 C 0.40112 0.98982 0.07071 0.0
C1751 C 0.42266 0.99943 0.07893 0.0
C1752 C 0.38191 1.00018 0.10783 0.0
C1753 C 0.42324 0.00871 0.10211 0.0
C1754 C 0.35956 0.01634 0.14324 0.0
C1755 C 0.3197 0.99054 0.12987 0.0
N1756 N 0.4031 0.00907 0.11566 0.0
N1757 N 0.34017 0.98946 0.11693 0.0
H1758 H 0.02161 0.30682 0.13209 0.0
H1759 H 0.98926 0.44449 0.11073 0.0
H1760 H 0.97433 0.34657 0.17761 0.0
H1761 H 0.01824 0.39901 0.05606 0.0
H1762 H 0.9885 0.41025 0.13792 0.0
H1763 H 0.02539 0.34199 0.10631 0.0
C1764 C 0.0121 0.32294 0.1367 0.0
C1765 C 0.9974 0.32363 0.15687 0.0
C1766 C 0.99506 0.40783 0.11996 0.0
C1767 C 1.00179 0.36399 0.12764 0.0
C1768 C 0.99559 0.4274 0.10447 0.0
C1769 C 0.0036 0.42466 0.08096 0.0
C1770 C 0.00294 0.38542 0.11203 0.0
C1771 C 0.01159 0.40199 0.07389 0.0
C1772 C 0.01418 0.34297 0.12196 0.0
C1773 C 0.98551 0.34506 0.162 0.0
N1774 N 0.01108 0.38334 0.08931 0.0
N1775 N 0.98799 0.36432 0.14755 0.0
H1776 H 0.65441 0.97397 0.1843 0.0
H1777 H 0.6027 0.02968 0.0647 0.0
H1778 H 0.6922 0.0264 0.14298 0.0
H1779 H 0.55921 0.9909 0.11466 0.0
H1780 H 0.63551 0.02873 0.09305 0.0
H1781 H 0.6196 0.9796 0.15893 0.0
C1782 C 0.65542 0.98663 0.1698 0.0
C1783 C 0.67641 0.99951 0.16556 0.0
C1784 C 0.61876 0.02061 0.09796 0.0
C1785 C 0.63639 0.00618 0.13647 0.0
C1786 C 0.59999 0.02107 0.08175 0.0
C1787 C 0.57818 0.0102 0.08725 0.0
C1788 C 0.61595 0.00887 0.11981 0.0
C1789 C 0.57567 0.99956 0.10971 0.0
C1790 C 0.63543 0.98997 0.15544 0.0
C1791 C 0.67644 0.01606 0.14685 0.0
N1792 N 0.59444 0.99891 0.12506 0.0
N1793 N 0.65683 0.01875 0.13286 0.0
H1794 H 0.97632 0.65196 0.18482 0.0
H1795 H 0.02677 0.60599 0.06053 0.0
H1796 H 0.02169 0.69463 0.14004 0.0
H1797 H 0.99524 0.55937 0.11278 0.0
H1798 H 0.02502 0.63858 0.08911 0.0
H1799 H 0.98271 0.61808 0.15845 0.0
C1800 C 0.9876 0.65422 0.16935 0.0
C1801 C 0.99824 0.67629 0.16446 0.0
C1802 C 0.01866 0.6212 0.09443 0.0
C1803 C 0.00576 0.63736 0.13416 0.0
C1804 C 0.01958 0.60254 0.07808 0.0
C1805 C 0.011 0.57985 0.08419 0.0
C1806 C 0.0088 0.61736 0.11704 0.0
C1807 C 1.00211 0.57649 0.10729 0.0
C1808 C 0.99137 0.63479 0.15439 0.0
C1809 C 0.0131 0.67799 0.14445 0.0
N1810 N 1.00101 0.59509 0.12278 0.0
N1811 N 0.01623 0.65885 0.1299 0.0
H1812 H 0.35871 0.0375 0.8281 0.0
H1813 H 0.40484 0.9854 0.95191 0.0
H1814 H 0.31749 0.98942 0.8714 0.0
H1815 H 0.45085 0.02151 0.90215 0.0
H1816 H 0.37277 0.98697 0.92285 0.0
H1817 H 0.39236 0.03235 0.85509 0.0
C1818 C 0.35669 0.02591 0.84337 0.0
C1819 C 0.33507 0.01411 0.84764 0.0
C1820 C 0.38989 0.99444 0.91817 0.0
C1821 C 0.3738 0.00799 0.87863 0.0
C1822 C 0.40828 0.99364 0.93482 0.0
C1823 C 0.43065 0.00353 0.9296 0.0
C1824 C 0.39363 0.00544 0.89608 0.0
C1825 C 0.43396 0.01367 0.90699 0.0
C1826 C 0.37602 0.02285 0.85868 0.0
C1827 C 0.33376 0.99889 0.86741 0.0
N1828 N 0.41559 0.01457 0.89116 0.0
N1829 N 0.35276 0.99644 0.88227 0.0
H1830 H 0.98571 0.35717 0.82289 0.0
H1831 H 0.00436 0.39919 0.95762 0.0
H1832 H 0.99914 0.30954 0.88166 0.0
H1833 H 0.99356 0.44891 0.89994 0.0
H1834 H 1.0016 0.36658 0.92972 0.0
H1835 H 0.98709 0.39082 0.85039 0.0
C1836 C 0.98864 0.35368 0.84162 0.0
C1837 C 0.99219 0.33029 0.8499 0.0
C1838 C 0.9998 0.38456 0.92305 0.0
C1839 C 0.99423 0.36906 0.88151 0.0
C1840 C 1.00134 0.40339 0.93906 0.0
C1841 C 0.99908 0.42711 0.93128 0.0
C1842 C 0.99593 0.38914 0.89883 0.0
C1843 C 0.99541 0.43102 0.90684 0.0
C1844 C 0.98965 0.37301 0.85728 0.0
C1845 C 0.99649 0.32715 0.87432 0.0
N1846 N 0.99389 0.41223 0.8915 0.0
N1847 N 0.99738 0.34624 0.88918 0.0
H1848 H 0.66038 0.0265 0.83357 0.0
H1849 H 0.61219 0.99622 0.96421 0.0
H1850 H 0.70429 0.99678 0.88912 0.0
H1851 H 0.56611 0.01612 0.90605 0.0
H1852 H 0.64616 0.99792 0.93739 0.0
H1853 H 0.62616 0.02486 0.86029 0.0
C1854 C 0.66294 0.01989 0.85149 0.0
C1855 C 0.68544 0.01196 0.85911 0.0
C1856 C 0.62864 1.00187 0.93042 0.0
C1857 C 0.64595 0.00967 0.8898 0.0
C1858 C 0.60913 1.00096 0.94577 0.0
C1859 C 0.58608 0.00609 0.93747 0.0
C1860 C 0.62533 0.00813 0.90648 0.0
C1861 C 0.58344 0.01193 0.91328 0.0
C1862 C 0.64327 0.01875 0.86668 0.0
C1863 C 0.68736 0.00302 0.88239 0.0
N1864 N 0.60282 0.0129 0.89869 0.0
N1865 N 0.66794 1.00219 0.89689 0.0
H1866 H 0.98196 0.69187 0.87054 0.0
H1867 H 0.03132 0.56461 0.90741 0.0
H1868 H 0.05014 0.66639 0.84571 0.0
H1869 H 0.98877 0.60688 0.95528 0.0
H1870 H 0.03403 0.59903 0.8804 0.0
H1871 H 0.9805 0.65872 0.89857 0.0
C1872 C 0.99683 0.67965 0.87108 0.0
C1873 C 0.01617 0.68219 0.85536 0.0
C1874 C 0.02411 0.60068 0.89683 0.0
C1875 C 0.01396 0.64336 0.88701 0.0
C1876 C 0.02239 0.58102 0.91213 0.0
C1877 C 0.00988 0.5829 0.93366 0.0
C1878 C 0.01273 0.62215 0.90285 0.0
C1879 C 0.99877 0.60469 0.93896 0.0
C1880 C 0.9958 0.66051 0.887 0.0
C1881 C 0.03452 0.66511 0.85686 0.0
N1882 N 1.00031 0.62337 0.92362 0.0
N1883 N 0.03282 0.64635 0.87212 0.0
H1884 H 0.16977 0.34163 0.03947 0.0
H1885 H 0.05024 0.39786 0.98776 0.0
H1886 H 0.12581 0.30512 0.98838 0.0
H1887 H 0.10495 0.43999 0.02111 0.0
H1888 H 0.07635 0.36316 0.98963 0.0
H1889 H 0.14479 0.37695 0.03521 0.0
C1890 C 0.1547 0.34096 0.0275 0.0
C1891 C 0.14972 0.32023 0.01446 0.0
C1892 C 0.08272 0.38001 0.99641 0.0
C1893 C 0.1211 0.36087 0.00932 0.0
C1894 C 0.06779 0.39987 0.99542 0.0
C1895 C 0.07536 0.42194 0.00438 0.0
C1896 C 0.10532 0.38203 0.00675 0.0
C1897 C 0.09838 0.4234 0.01391 0.0
C1898 C 0.14058 0.36124 0.02491 0.0
C1899 C 0.13028 0.32067 0.9988 0.0
N1900 N 0.11245 0.40368 0.01506 0.0
N1901 N 0.11657 0.34059 0.9968 0.0
H1902 H 0.18696 0.64881 0.97809 0.0
H1903 H 0.06208 0.60337 0.02754 0.0
H1904 H 0.14259 0.69066 0.02464 0.0
H1905 H 0.11292 0.55663 0.99402 0.0
H1906 H 0.09123 0.63536 0.02654 0.0
H1907 H 0.16013 0.61508 0.98337 0.0
C1908 C 0.17151 0.65094 0.9894 0.0
C1909 C 0.16689 0.67277 1.00071 0.0
C1910 C 0.09614 0.6181 0.01954 0.0
C1911 C 0.13604 0.63396 0.00694 0.0
C1912 C 0.07945 0.59977 0.02002 0.0
C1913 C 0.08495 0.57722 0.01067 0.0
C1914 C 0.11857 0.61414 0.00936 0.0
C1915 C 0.10789 0.57367 1.00145 0.0
C1916 C 0.15628 0.63157 0.99253 0.0
C1917 C 0.14686 0.67423 0.01556 0.0
N1918 N 0.12376 0.592 1.00079 0.0
N1919 N 0.13207 0.65519 0.01806 0.0
H1920 H 0.3439 0.17165 0.03884 0.0
H1921 H 0.40085 0.05328 0.98538 0.0
H1922 H 0.30847 0.12885 0.98603 0.0
H1923 H 0.44239 0.10638 0.02188 0.0
H1924 H 0.36644 0.07975 0.98675 0.0
H1925 H 0.37937 0.14686 0.03464 0.0
C1926 C 0.3435 0.15689 0.02648 0.0
C1927 C 0.32302 0.15217 0.01296 0.0
C1928 C 0.3831 0.08572 0.99431 0.0
C1929 C 0.36384 0.12378 0.00789 0.0
C1930 C 0.40279 0.07059 0.99361 0.0
C1931 C 0.42459 0.07757 0.00363 0.0
C1932 C 0.38498 0.10795 0.00545 0.0
C1933 C 0.42601 0.10029 0.01385 0.0
C1934 C 0.36388 0.14288 0.02393 0.0
C1935 C 0.32381 0.13313 0.99683 0.0
N1936 N 0.40641 0.11457 0.01473 0.0
N1937 N 0.3438 0.11953 0.99488 0.0
H1938 H 0.86326 0.31951 0.99257 0.0
H1939 H 0.89852 0.4534 0.02512 0.0
H1940 H 0.82349 0.36197 0.04276 0.0
H1941 H 0.94736 0.40345 0.99323 0.0
H1942 H 0.86909 0.42134 0.02875 0.0
H1943 H 0.89328 0.35079 0.9907 0.0
C1944 C 0.86095 0.33518 0.00352 0.0
C1945 C 0.84058 0.33799 0.01775 0.0
C1946 C 0.88627 0.41746 0.02096 0.0
C1947 C 0.87473 0.37439 0.01506 0.0
C1948 C 0.90299 0.4358 0.0187 0.0
C1949 C 0.92549 0.43116 0.00891 0.0
C1950 C 0.89196 0.3944 0.01306 0.0
C1951 C 0.93034 0.40789 1.00107 0.0
C1952 C 0.87803 0.35319 1.00223 0.0
C1953 C 0.83855 0.35908 0.03113 0.0
N1954 N 0.91375 0.39048 0.00324 0.0
N1955 N 0.85524 0.3765 0.02929 0.0
H1956 H 0.70252 0.87962 0.02143 0.0
H1957 H 0.56347 0.90191 0.99666 0.0
H1958 H 0.65801 0.83133 0.98192 0.0
H1959 H 0.61077 0.95645 0.02261 0.0
H1960 H 0.59714 0.87432 0.99499 0.0
H1961 H 0.66833 0.90656 0.02585 0.0
C1962 C 0.68558 0.87466 0.01375 0.0
C1963 C 0.68326 0.8533 1.00103 0.0
C1964 C 0.60013 0.89232 1.00109 0.0
C1965 C 0.64401 0.88394 0.00613 0.0
C1966 C 0.58085 0.9081 1.00213 0.0
C1967 C 0.58418 0.93167 0.00966 0.0
C1968 C 0.62295 0.90003 0.00782 0.0
C1969 C 0.60726 0.93855 0.0165 0.0
C1970 C 0.66609 0.89007 0.01619 0.0
C1971 C 0.66082 0.84781 0.99146 0.0
N1972 N 0.62568 0.92286 0.01541 0.0
N1973 N 0.64215 0.86296 0.99422 0.0
H1974 H 0.82919 0.65893 0.02622 0.0
H1975 H 0.9619 0.61283 1.0023 0.0
H1976 H 0.88599 0.70439 1.00189 0.0
H1977 H 0.90321 0.56581 0.01769 0.0
H1978 H 0.93479 0.64661 0.00396 0.0
H1979 H 0.85646 0.62511 0.02554 0.0
C1980 C 0.84749 0.66193 0.02103 0.0
C1981 C 0.85527 0.68473 0.01427 0.0
C1982 C 0.9278 0.62892 0.00697 0.0
C1983 C 0.88664 0.6457 0.01307 0.0
C1984 C 0.94331 0.60951 0.00608 0.0
C1985 C 0.93494 0.58625 0.00993 0.0
C1986 C 0.90361 0.62527 0.01188 0.0
C1987 C 0.91055 0.58332 0.01456 0.0
C1988 C 0.86301 0.64248 0.02043 0.0
C1989 C 0.8791 0.68721 0.00715 0.0
N1990 N 0.8958 0.60257 0.01548 0.0
N1991 N 0.8939 0.66799 0.00678 0.0
H1992 H 0.30938 0.87853 0.00886 0.0
H1993 H 0.45111 0.89698 0.01373 0.0
H1994 H 0.35892 0.82061 0.01834 0.0
H1995 H 0.40002 0.95375 0.00485 0.0
H1996 H 0.41802 0.86857 0.01609 0.0
H1997 H 0.34276 0.90629 0.00824 0.0
C1998 C 0.32725 0.87162 0.01089 0.0
C1999 C 0.3312 0.84712 0.0137 0.0
C2000 C 0.41415 0.88728 0.01363 0.0
C2001 C 0.36977 0.87896 0.01297 0.0
C2002 C 0.43306 0.90352 0.01223 0.0
C2003 C 0.42855 0.92791 0.00904 0.0
C2004 C 0.39053 0.89546 0.01183 0.0
C2005 C 0.40463 0.93522 0.00729 0.0
C2006 C 0.34636 0.88752 0.01058 0.0
C2007 C 0.35487 0.83934 0.01649 0.0
N2008 N 0.38668 0.91914 0.0087 0.0
N2009 N 0.3732 0.85515 0.01595 0.0
H2010 H 0.69761 0.13284 1.00069 0.0
H2011 H 0.55791 0.11247 0.02166 0.0
H2012 H 0.65154 0.1879 0.02777 0.0
H2013 H 0.60835 0.05656 0.00619 0.0
H2014 H 0.59109 0.14094 0.02305 0.0
H2015 H 0.66434 0.10502 1.00192 0.0
C2016 C 0.68051 0.13905 0.00703 0.0
C2017 C 0.67743 0.16276 0.01416 0.0
C2018 C 0.59478 0.12239 0.01943 0.0
C2019 C 0.63896 0.13094 0.01545 0.0
C2020 C 0.57584 0.10614 0.01856 0.0
C2021 C 0.58017 0.08197 0.01382 0.0
C2022 C 0.61819 0.11445 0.01536 0.0
C2023 C 0.6039 0.07489 0.00999 0.0
C2024 C 0.66147 0.12314 0.00777 0.0
C2025 C 0.65482 0.16972 0.02237 0.0
N2026 N 0.62184 0.09099 0.01078 0.0
N2027 N 0.63641 0.15396 0.02261 0.0
H2028 H 0.4765 0.675 0.84682 0.0
H2029 H 0.52244 0.55059 0.89811 0.0
H2030 H 0.51915 0.62592 0.80604 0.0
H2031 H 0.4915 0.60512 0.94242 0.0
H2032 H 0.52073 0.57759 0.8642 0.0
H2033 H 0.48067 0.64923 0.88157 0.0
C2034 C 0.48658 0.65866 0.84508 0.0
C2035 C 0.49726 0.65251 0.82329 0.0
C2036 C 0.51444 0.58376 0.88133 0.0
C2037 C 0.50239 0.62297 0.86335 0.0
C2038 C 0.51535 0.56831 0.90077 0.0
C2039 C 0.50699 0.57552 0.92323 0.0
C2040 C 0.50484 0.60663 0.88413 0.0
C2041 C 0.49823 0.59881 0.92551 0.0
C2042 C 0.48914 0.64407 0.86505 0.0
C2043 C 0.51061 0.63141 0.8224 0.0
N2044 N 0.49719 0.61345 0.90617 0.0
N2045 N 0.51267 0.61735 0.84208 0.0
H2046 H 0.32731 0.52484 0.84596 0.0
H2047 H 0.45557 0.48961 0.89677 0.0
H2048 H 0.38318 0.49358 0.80359 0.0
H2049 H 0.39885 0.51547 0.94167 0.0
H2050 H 0.42921 0.49174 0.86264 0.0
H2051 H 0.35323 0.52297 0.88084 0.0
C2052 C 0.34514 0.51786 0.84386 0.0
C2053 C 0.35307 0.50949 0.82162 0.0
C2054 C 0.42242 0.49692 0.87991 0.0
C2055 C 0.38276 0.50689 0.86182 0.0
C2056 C 0.43752 0.49576 0.89953 0.0
C2057 C 0.42953 0.5025 0.92228 0.0
C2058 C 0.39899 0.505 0.88276 0.0
C2059 C 0.4058 0.51003 0.92455 0.0
C2060 C 0.35985 0.51658 0.86391 0.0
C2061 C 0.37618 0.50011 0.8203 0.0
N2062 N 0.39141 0.5112 0.90502 0.0
N2063 N 0.39016 0.4991 0.84005 0.0
H2064 H 0.51466 0.37546 0.80807 0.0
H2065 H 0.48685 0.3962 0.94669 0.0
H2066 H 0.48058 0.32244 0.85182 0.0
H2067 H 0.51148 0.45072 0.89843 0.0
H2068 H 0.48527 0.36827 0.91304 0.0
H2069 H 0.51406 0.4029 0.84171 0.0
C2070 C 0.50691 0.36964 0.82473 0.0
C2071 C 0.49764 0.34661 0.82707 0.0
C2072 C 0.49096 0.38639 0.90992 0.0
C2073 C 0.49705 0.37796 0.86594 0.0
C2074 C 0.49196 0.40232 0.92914 0.0
C2075 C 0.49922 0.42595 0.92551 0.0
C2076 C 0.49743 0.39412 0.88697 0.0
C2077 C 0.50559 0.43281 0.90227 0.0
C2078 C 0.50655 0.38533 0.84398 0.0
C2079 C 0.48768 0.34012 0.84911 0.0
N2080 N 0.50458 0.41703 0.88404 0.0
N2081 N 0.4878 0.35563 0.86774 0.0
H2082 H 0.67973 0.53247 0.85431 0.0
H2083 H 0.55645 0.48079 0.9008 0.0
H2084 H 0.63947 0.48082 0.81455 0.0
H2085 H 0.60742 0.5144 0.94721 0.0
H2086 H 0.58561 0.4818 0.86857 0.0
H2087 H 0.65252 0.5275 0.88783 0.0
C2088 C 0.66507 0.52012 0.85261 0.0
C2089 C 0.66171 0.50723 0.83146 0.0
C2090 C 0.59049 0.4888 0.88583 0.0
C2091 C 0.63043 0.5014 0.86996 0.0
C2092 C 0.57382 0.48833 0.90427 0.0
C2093 C 0.57942 0.49767 0.92679 0.0
C2094 C 0.6129 0.499 0.88973 0.0
C2095 C 0.60231 0.50696 0.93021 0.0
C2096 C 0.64964 0.51716 0.87184 0.0
C2097 C 0.64268 0.49113 0.83048 0.0
N2098 N 0.61811 0.50763 0.91181 0.0
N2099 N 0.6276 0.48885 0.84936 0.0
H2100 H 0.51912 0.37174 0.19686 0.0
H2101 H 0.48772 0.39845 0.06003 0.0
H2102 H 0.47043 0.32941 0.15555 0.0
H2103 H 0.51574 0.45186 0.10742 0.0
H2104 H 0.48682 0.37026 0.09333 0.0
H2105 H 0.5236 0.3988 0.16264 0.0
C2106 C 0.50949 0.3681 0.18058 0.0
C2107 C 0.49416 0.34849 0.17914 0.0
C2108 C 0.49324 0.38814 0.09639 0.0
C2109 C 0.49937 0.37906 0.13995 0.0
C2110 C 0.49385 0.40421 0.07736 0.0
C2111 C 0.50167 0.42764 0.08091 0.0
C2112 C 0.50081 0.39539 0.11911 0.0
C2113 C 0.50933 0.43408 0.10386 0.0
C2114 C 0.51196 0.38355 0.16111 0.0
C2115 C 0.48212 0.34455 0.15758 0.0
N2116 N 0.50874 0.41807 0.12203 0.0
N2117 N 0.485 0.35963 0.13888 0.0
H2118 H 0.67521 0.52657 0.15848 0.0
H2119 H 0.54933 0.48576 0.10778 0.0
H2120 H 0.62585 0.48427 0.1992 0.0
H2121 H 0.60583 0.5115 0.06263 0.0
H2122 H 0.57645 0.4863 0.14161 0.0
H2123 H 0.64947 0.52272 0.1237 0.0
C2124 C 0.65885 0.51656 0.16016 0.0
C2125 C 0.65255 0.50596 0.18194 0.0
C2126 C 0.583 0.49171 0.12431 0.0
C2127 C 0.62298 0.50134 0.14192 0.0
C2128 C 0.56748 0.4915 0.10492 0.0
C2129 C 0.57523 0.49875 0.08223 0.0
C2130 C 0.60647 0.49952 0.12124 0.0
C2131 C 0.59906 0.50573 0.07972 0.0
C2132 C 0.64426 0.51421 0.14019 0.0
C2133 C 0.6314 0.49275 0.18282 0.0
N2134 N 0.61376 0.50617 0.09902 0.0
N2135 N 0.61728 0.491 0.16317 0.0
H2136 H 0.53556 0.67815 0.15259 0.0
H2137 H 0.48378 0.55537 0.10475 0.0
H2138 H 0.48375 0.63742 0.19178 0.0
H2139 H 0.51778 0.60665 0.05883 0.0
H2140 H 0.48493 0.58414 0.13726 0.0
H2141 H 0.5308 0.65126 0.11878 0.0
C2142 C 0.5232 0.66346 0.15411 0.0
C2143 C 0.51021 0.65989 0.17519 0.0
C2144 C 0.49201 0.58918 0.12005 0.0
C2145 C 0.50464 0.62895 0.13635 0.0
C2146 C 0.49146 0.57272 0.10144 0.0
C2147 C 0.50083 0.5785 0.07895 0.0
C2148 C 0.50232 0.6116 0.1164 0.0
C2149 C 0.51031 0.60138 0.0758 0.0
C2150 C 0.52038 0.64821 0.13471 0.0
C2151 C 0.49413 0.64082 0.17592 0.0
N2152 N 0.51104 0.61698 0.09436 0.0
N2153 N 0.49198 0.62592 0.15688 0.0
H2154 H 0.36319 0.48368 0.18891 0.0
H2155 H 0.39868 0.52577 0.05787 0.0
H2156 H 0.32746 0.54175 0.15333 0.0
H2157 H 0.44699 0.48845 0.10448 0.0
H2158 H 0.37012 0.5287 0.09091 0.0
H2159 H 0.39252 0.48291 0.15696 0.0
C2160 C 0.36161 0.49656 0.17467 0.0
C2161 C 0.34252 0.51276 0.17404 0.0
C2162 C 0.38702 0.51991 0.09384 0.0
C2163 C 0.37592 0.51132 0.13668 0.0
C2164 C 0.40324 0.51808 0.07495 0.0
C2165 C 0.42533 0.5069 0.07835 0.0
C2166 C 0.39274 0.51013 0.11619 0.0
C2167 C 0.43029 0.49739 0.10099 0.0
C2168 C 0.37832 0.49591 0.15623 0.0
C2169 C 0.34143 0.52857 0.15455 0.0
N2170 N 0.41414 0.49911 0.11892 0.0
N2171 N 0.35768 0.52729 0.13661 0.0
H2172 H 0.81789 0.52292 0.64445 0.0
H2173 H 0.94866 0.48108 0.60791 0.0
H2174 H 0.85388 0.46488 0.67981 0.0
H2175 H 0.90158 0.51826 0.55993 0.0
H2176 H 0.91595 0.47833 0.63688 0.0
H2177 H 0.84966 0.5239 0.6149 0.0
C2178 C 0.83219 0.5101 0.64589 0.0
C2179 C 0.83304 0.49386 0.66492 0.0
C2180 C 0.91285 0.48706 0.61997 0.0
C2181 C 0.87013 0.49552 0.63134 0.0
C2182 C 0.93155 0.48879 0.60353 0.0
C2183 C 0.92787 0.49981 0.58141 0.0
C2184 C 0.89046 0.49679 0.6144 0.0
C2185 C 0.90524 0.5094 0.57666 0.0
C2186 C 0.85052 0.51086 0.62907 0.0
C2187 C 0.85254 0.47809 0.66586 0.0
N2188 N 0.8875 0.50775 0.593 0.0
N2189 N 0.87036 0.47948 0.64951 0.0
H2190 H 0.52234 0.84799 0.67815 0.0
H2191 H 0.48512 0.89839 0.55024 0.0
H2192 H 0.48916 0.80557 0.62355 0.0
H2193 H 0.51176 0.9433 0.60646 0.0
H2194 H 0.48683 0.86443 0.57697 0.0
H2195 H 0.5196 0.88278 0.65219 0.0
C2196 C 0.51473 0.84587 0.66058 0.0
C2197 C 0.50616 0.82363 0.653 0.0
C2198 C 0.49223 0.88168 0.58358 0.0
C2199 C 0.50258 0.86374 0.62326 0.0
C2200 C 0.4913 0.90119 0.56828 0.0
C2201 C 0.49845 0.92386 0.57601 0.0
C2202 C 0.50052 0.88459 0.60693 0.0
C2203 C 0.506 0.92623 0.59972 0.0
C2204 C 0.51295 0.86587 0.64586 0.0
C2205 C 0.49592 0.82228 0.63025 0.0
N2206 N 0.507 0.90681 0.61428 0.0
N2207 N 0.49449 0.84199 0.61621 0.0
H2208 H 0.16005 0.47759 0.67262 0.0
H2209 H 0.10784 0.52187 0.54815 0.0
H2210 H 0.19956 0.52266 0.62472 0.0
H2211 H 0.06398 0.49268 0.60403 0.0
H2212 H 0.14196 0.52088 0.575 0.0
H2213 H 0.12535 0.48117 0.64677 0.0
C2214 C 0.1615 0.48811 0.65653 0.0
C2215 C 0.18291 0.49961 0.6507 0.0
C2216 C 0.12486 0.51482 0.58145 0.0
C2217 C 0.14295 0.50398 0.62102 0.0
C2218 C 0.10533 0.51529 0.56611 0.0
C2219 C 0.08292 0.50726 0.57378 0.0
C2220 C 0.12219 0.50595 0.60465 0.0
C2221 C 0.08083 0.49914 0.59733 0.0
C2222 C 0.14157 0.49032 0.64188 0.0
C2223 C 0.18347 0.51347 0.6299 0.0
N2224 N 0.10024 0.49851 0.61184 0.0
N2225 N 0.16386 0.51511 0.61572 0.0
H2226 H 0.51744 0.19084 0.64068 0.0
H2227 H 0.48356 0.05787 0.6055 0.0
H2228 H 0.4632 0.15075 0.67743 0.0
H2229 H 0.51563 0.10671 0.55567 0.0
H2230 H 0.47926 0.09058 0.634 0.0
H2231 H 0.51928 0.15966 0.61045 0.0
C2232 C 0.50561 0.17575 0.64227 0.0
C2233 C 0.49028 0.17348 0.66192 0.0
C2234 C 0.48721 0.0941 0.6168 0.0
C2235 C 0.49293 0.13724 0.62761 0.0
C2236 C 0.48984 0.07539 0.6006 0.0
C2237 C 0.49994 0.0795 0.57812 0.0
C2238 C 0.49511 0.11703 0.61068 0.0
C2239 C 0.50762 0.10269 0.57273 0.0
C2240 C 0.50686 0.15781 0.62507 0.0
C2241 C 0.47572 0.15315 0.663 0.0
N2242 N 0.50517 0.12051 0.58891 0.0
N2243 N 0.4776 0.13575 0.64631 0.0
H2244 H 0.84499 0.48023 0.32838 0.0
H2245 H 0.89418 0.50972 0.45873 0.0
H2246 H 0.80109 0.50596 0.38588 0.0
H2247 H 0.94009 0.49074 0.40011 0.0
H2248 H 0.86001 0.50701 0.43245 0.0
H2249 H 0.87963 0.48198 0.35456 0.0
C2250 C 0.84252 0.48594 0.34662 0.0
C2251 C 0.81991 0.49281 0.35492 0.0
C2252 C 0.87752 0.50345 0.42525 0.0
C2253 C 0.85984 0.49528 0.38496 0.0
C2254 C 0.89717 0.50496 0.4403 0.0
C2255 C 0.92025 0.50039 0.43173 0.0
C2256 C 0.88068 0.49721 0.4013 0.0
C2257 C 0.92274 0.4945 0.40755 0.0
C2258 C 0.86242 0.48716 0.36149 0.0
C2259 C 0.81809 0.50062 0.37859 0.0
N2260 N 0.90321 0.49299 0.39322 0.0
N2261 N 0.83773 0.50161 0.39273 0.0
H2262 H 0.52645 0.81542 0.36475 0.0
H2263 H 0.48316 0.94618 0.39874 0.0
H2264 H 0.46682 0.84925 0.32995 0.0
H2265 H 0.51921 0.90024 0.44864 0.0
H2266 H 0.48091 0.91279 0.37059 0.0
H2267 H 0.52707 0.84772 0.39373 0.0
C2268 C 0.51323 0.82934 0.36329 0.0
C2269 C 0.49663 0.8294 0.34455 0.0
C2270 C 0.4893 0.91008 0.38773 0.0
C2271 C 0.49791 0.86714 0.37747 0.0
C2272 C 0.49075 0.92918 0.40371 0.0
C2273 C 0.50133 0.92603 0.42613 0.0
C2274 C 0.49889 0.88782 0.39401 0.0
C2275 C 0.51072 0.90349 0.43165 0.0
C2276 C 0.51378 0.84797 0.37979 0.0
C2277 C 0.48035 0.84849 0.3436 0.0
N2278 N 0.50941 0.88535 0.4157 0.0
N2279 N 0.48157 0.86663 0.3596 0.0
H2280 H 0.14862 0.47231 0.32287 0.0
H2281 H 0.10185 0.52406 0.44625 0.0
H2282 H 0.18821 0.52357 0.36378 0.0
H2283 H 0.05561 0.48949 0.39577 0.0
H2284 H 0.13389 0.52318 0.41696 0.0
H2285 H 0.11489 0.47731 0.34987 0.0
C2286 C 0.15023 0.48462 0.3376 0.0
C2287 C 0.17142 0.49736 0.34121 0.0
C2288 C 0.11671 0.51593 0.41218 0.0
C2289 C 0.13267 0.5032 0.37228 0.0
C2290 C 0.09837 0.51632 0.42895 0.0
C2291 C 0.07594 0.50667 0.42357 0.0
C2292 C 0.11288 0.5055 0.38985 0.0
C2293 C 0.07254 0.49716 0.40072 0.0
C2294 C 0.13088 0.48757 0.35292 0.0
C2295 C 0.17227 0.51338 0.36033 0.0
N2296 N 0.09087 0.49657 0.38482 0.0
N2297 N 0.15329 0.51565 0.37529 0.0
H2298 H 0.54146 0.15745 0.32892 0.0
H2299 H 0.48816 0.10648 0.45027 0.0
H2300 H 0.48251 0.19031 0.36569 0.0
H2301 H 0.52535 0.06202 0.39992 0.0
H2302 H 0.49053 0.13958 0.42225 0.0
H2303 H 0.54063 0.12488 0.35775 0.0
C2304 C 0.52836 0.15796 0.34303 0.0
C2305 C 0.51183 0.17675 0.34452 0.0
C2306 C 0.49816 0.1226 0.4173 0.0
C2307 C 0.51118 0.13947 0.37797 0.0
C2308 C 0.49689 0.10365 0.43331 0.0
C2309 C 0.5066 0.08135 0.42747 0.0
C2310 C 0.50957 0.11949 0.39532 0.0
C2311 C 0.51751 0.07882 0.40512 0.0
C2312 C 0.52796 0.1393 0.35951 0.0
C2313 C 0.4958 0.17652 0.36376 0.0
N2314 N 0.51885 0.09771 0.38992 0.0
N2315 N 0.49585 0.1582 0.37963 0.0
H2316 H 0.63778 0.81263 0.52108 0.0
H2317 H 0.60433 0.94547 0.48462 0.0
H2318 H 0.67551 0.85159 0.46664 0.0
H2319 H 0.55332 0.89764 0.51625 0.0
H2320 H 0.63247 0.9123 0.4812 0.0
H2321 H 0.60764 0.84404 0.52182 0.0
C2322 C 0.6396 0.82752 0.50898 0.0
C2323 C 0.6595 0.82944 0.49395 0.0
C2324 C 0.61509 0.90909 0.48887 0.0
C2325 C 0.62531 0.86591 0.49531 0.0
C2326 C 0.59911 0.92806 0.49101 0.0
C2327 C 0.57644 0.92437 0.50078 0.0
C2328 C 0.60854 0.88633 0.4969 0.0
C2329 C 0.57057 0.90131 0.50852 0.0
C2330 C 0.62245 0.84558 0.5096 0.0
C2331 C 0.66088 0.84949 0.47898 0.0
N2332 N 0.58655 0.88323 0.50656 0.0
N2333 N 0.64425 0.86702 0.48025 0.0
H2334 H 0.67928 0.15027 0.54509 0.0
H2335 H 0.5573 0.10545 0.48824 0.0
H2336 H 0.64315 0.18791 0.48863 0.0
H2337 H 0.60602 0.05819 0.52421 0.0
H2338 H 0.586 0.1377 0.49241 0.0
H2339 H 0.64972 0.11858 0.54227 0.0
C2340 C 0.66513 0.152 0.53214 0.0
C2341 C 0.66401 0.17184 0.51688 0.0
C2342 C 0.59046 0.12027 0.49933 0.0
C2343 C 0.62982 0.13556 0.51386 0.0
C2344 C 0.57407 0.10181 0.49701 0.0
C2345 C 0.57924 0.079 0.50588 0.0
C2346 C 0.61214 0.11612 0.51096 0.0
C2347 C 0.60134 0.07541 0.51695 0.0
C2348 C 0.64825 0.13384 0.53058 0.0
C2349 C 0.64477 0.1732 0.50095 0.0
N2350 N 0.61691 0.09382 0.51933 0.0
N2351 N 0.62853 0.15531 0.49982 0.0
H2352 H 0.80449 0.6264 0.51994 0.0
H2353 H 0.94282 0.60654 0.49123 0.0
H2354 H 0.8476 0.67886 0.48426 0.0
H2355 H 0.89578 0.55103 0.51574 0.0
H2356 H 0.9088 0.63388 0.48976 0.0
H2357 H 0.8382 0.59888 0.51929 0.0
C2358 C 0.82101 0.63207 0.51182 0.0
C2359 C 0.82316 0.65498 0.50211 0.0
C2360 C 0.90598 0.6157 0.49543 0.0
C2361 C 0.86206 0.62359 0.50151 0.0
C2362 C 0.92543 0.6001 0.49641 0.0
C2363 C 0.92227 0.57638 0.50363 0.0
C2364 C 0.88322 0.6076 0.5019 0.0
C2365 C 0.8992 0.56907 0.50995 0.0
C2366 C 0.84028 0.61635 0.51143 0.0
C2367 C 0.84501 0.66129 0.49169 0.0
N2368 N 0.88067 0.58458 0.509 0.0
N2369 N 0.86364 0.64578 0.49183 0.0
H2370 H 0.37736 0.80824 0.48806 0.0
H2371 H 0.39609 0.94771 0.51245 0.0
H2372 H 0.323 0.85254 0.51927 0.0
H2373 H 0.45132 0.89955 0.48928 0.0
H2374 H 0.3683 0.91397 0.51387 0.0
H2375 H 0.40425 0.84228 0.48767 0.0
C2376 C 0.37111 0.82512 0.49493 0.0
C2377 C 0.34789 0.82748 0.50373 0.0
C2378 C 0.38653 0.91089 0.50849 0.0
C2379 C 0.37861 0.86678 0.50322 0.0
C2380 C 0.40236 0.93017 0.50755 0.0
C2381 C 0.42616 0.92656 0.50084 0.0
C2382 C 0.39454 0.88793 0.5025 0.0
C2383 C 0.43326 0.90334 0.49478 0.0
C2384 C 0.38648 0.84459 0.49473 0.0
C2385 C 0.34085 0.84982 0.51258 0.0
N2386 N 0.41759 0.88505 0.49575 0.0
N2387 N 0.35609 0.86863 0.51197 0.0
H2388 H 0.20063 0.38115 0.51622 0.0
H2389 H 0.06209 0.40043 0.48679 0.0
H2390 H 0.15997 0.33344 0.47213 0.0
H2391 H 0.10764 0.45588 0.51388 0.0
H2392 H 0.09656 0.37358 0.48561 0.0
H2393 H 0.16545 0.40686 0.51984 0.0
C2394 C 0.18432 0.37607 0.50735 0.0
C2395 C 0.18338 0.35526 0.49361 0.0
C2396 C 0.09895 0.39164 0.49184 0.0
C2397 C 0.14297 0.38443 0.49783 0.0
C2398 C 0.07925 0.40694 0.4926 0.0
C2399 C 0.08192 0.43055 0.50024 0.0
C2400 C 0.12143 0.39988 0.49907 0.0
C2401 C 0.10468 0.43794 0.50756 0.0
C2402 C 0.16427 0.39076 0.50934 0.0
C2403 C 0.1617 0.34955 0.48252 0.0
N2404 N 0.12347 0.42271 0.50682 0.0
N2405 N 0.14241 0.36398 0.4849 0.0
H2406 H 0.38426 0.20342 0.49065 0.0
H2407 H 0.39825 0.06234 0.51028 0.0
H2408 H 0.32763 0.15892 0.51709 0.0
H2409 H 0.4558 0.10909 0.49043 0.0
H2410 H 0.37147 0.09691 0.51134 0.0
H2411 H 0.41026 0.16854 0.4892 0.0
C2412 C 0.37728 0.18635 0.49619 0.0
C2413 C 0.3537 0.18426 0.50414 0.0
C2414 C 0.38997 0.09953 0.50673 0.0
C2415 C 0.38346 0.14401 0.50246 0.0
C2416 C 0.40525 0.07977 0.50601 0.0
C2417 C 0.42941 0.0827 0.50037 0.0
C2418 C 0.39887 0.12238 0.50161 0.0
C2419 C 0.43742 0.10583 0.49511 0.0
C2420 C 0.39217 0.1664 0.49542 0.0
C2421 C 0.34577 0.16157 0.51124 0.0
N2422 N 0.42226 0.12465 0.49586 0.0
N2423 N 0.36055 0.14239 0.51016 0.0
H2424 H 0.8547 0.31974 0.52571 0.0
H2425 H 0.89879 0.45159 0.49522 0.0
H2426 H 0.81095 0.37383 0.49323 0.0
H2427 H 0.94729 0.3963 0.51756 0.0
H2428 H 0.86627 0.4235 0.4971 0.0
H2429 H 0.88817 0.34772 0.52611 0.0
C2430 C 0.85201 0.3376 0.51899 0.0
C2431 C 0.82991 0.34444 0.50943 0.0
C2432 C 0.88397 0.41738 0.50161 0.0
C2433 C 0.86827 0.37641 0.50955 0.0
C2434 C 0.9027 0.4335 0.50061 0.0
C2435 C 0.926 0.42643 0.50637 0.0
C2436 C 0.88826 0.3938 0.50851 0.0
C2437 C 0.92969 0.40257 0.51292 0.0
C2438 C 0.87121 0.35346 0.519 0.0
C2439 C 0.82765 0.36768 0.50059 0.0
N2440 N 0.91099 0.38711 0.51391 0.0
N2441 N 0.84653 0.38275 0.50086 0.0
H2442 H 0.19767 0.62701 0.49875 0.0
H2443 H 0.05633 0.61029 0.51175 0.0
H2444 H 0.15038 0.68452 0.51754 0.0
H2445 H 0.10539 0.55477 0.49124 0.0
H2446 H 0.09002 0.63801 0.51441 0.0
H2447 H 0.1636 0.60025 0.49696 0.0
C2448 C 0.18014 0.63402 0.50258 0.0
C2449 C 0.17699 0.6581 0.50831 0.0
C2450 C 0.0933 0.61973 0.50931 0.0
C2451 C 0.13765 0.62745 0.50626 0.0
C2452 C 0.07405 0.60393 0.50767 0.0
C2453 C 0.0779 0.58006 0.50136 0.0
C2454 C 0.11651 0.6116 0.50455 0.0
C2455 C 0.10137 0.57288 0.49638 0.0
C2456 C 0.16063 0.61871 0.50158 0.0
C2457 C 0.15377 0.66604 0.51337 0.0
N2458 N 0.11964 0.5885 0.49813 0.0
N2459 N 0.13501 0.6508 0.51213 0.0
loop_
_geom_bond_atom_site_label_1
_geom_bond_atom_site_label_2
_geom_bond_distance
_geom_bond_site_symmetry_2
_ccdc_geom_bond_type
C0 C1 1.383 1_455 S
C0 H13 0.949 . S
C0 C35 1.382 . S
C1 C0 1.383 1_655 S
C1 C2 1.378 . S
C2 C1 1.378 . S
C2 C3 1.378 . S
C2 H14 0.952 . S
C3 C2 1.378 . S
C3 H15 0.950 . S
C3 C34 1.383 . S
H4 C23 0.947 . S
H5 C24 0.954 . S
H6 C26 0.953 . S
H7 C27 0.945 . S
H8 C29 0.950 1_455 S
H9 C30 0.949 . S
H10 C32 0.950 . S
H11 C33 0.948 . S
H12 C35 0.951 . S
H13 C0 0.949 . S
H14 C2 0.952 . S
H15 C3 0.950 . S
N16 C19 1.382 . S
N16 C21 1.363 . S
N17 C19 1.371 . S
N17 C20 1.372 . S
N18 C20 1.361 . S
N18 C21 1.377 . S
C19 N16 1.382 . S
C19 N17 1.371 . S
C19 C22 1.480 . S
C20 N17 1.372 . S
C20 N18 1.361 . S
C20 C28 1.457 . S
C21 N16 1.363 . S
C21 N18 1.377 . S
C21 C34 1.479 . S
C22 C19 1.480 . S
C22 C23 1.383 . S
C22 C27 1.385 . S
C23 H4 0.947 . S
C23 C22 1.383 . S
C23 C24 1.385 1_655 S
C24 H5 0.954 . S
C24 C23 1.385 1_455 S
C24 C25 1.381 1_455 S
C25 C24 1.381 1_655 S
C25 C26 1.377 . S
C26 H6 0.953 . S
C26 C25 1.377 . S
C26 C27 1.369 . S
C27 H7 0.945 . S
C27 C22 1.385 . S
C27 C26 1.369 . S
C28 C20 1.457 . S
C28 C29 1.374 . S
C28 C33 1.364 . S
C29 H8 0.950 1_655 S
C29 C28 1.374 . S
C29 C30 1.388 1_655 S
C30 H9 0.949 . S
C30 C29 1.388 1_455 S
C30 C31 1.387 1_455 S
C31 C30 1.387 1_655 S
C31 C32 1.372 . S
C32 H10 0.950 . S
C32 C31 1.372 . S
C32 C33 1.379 . S
C33 H11 0.948 . S
C33 C28 1.364 . S
C33 C32 1.379 . S
C34 C3 1.383 . S
C34 C21 1.479 . S
C34 C35 1.398 1_655 S
C35 C0 1.382 . S
C35 H12 0.951 . S
C35 C34 1.398 1_455 S
C36 C37 1.384 1_545 S
C36 H49 0.948 . S
C36 C71 1.382 1_545 S
C37 C36 1.384 1_565 S
C37 C38 1.378 . S
C38 C37 1.378 . S
C38 C39 1.378 . S
C38 H50 0.952 . S
C39 C38 1.378 . S
C39 H51 0.950 . S
C39 C70 1.383 . S
H40 C59 0.947 . S
H41 C60 0.952 . S
H42 C62 0.953 . S
H43 C63 0.945 . S
H44 C65 0.949 1_545 S
H45 C66 0.957 . S
H46 C68 0.950 . S
H47 C69 0.948 . S
H48 C71 0.951 1_545 S
H49 C36 0.948 . S
H50 C38 0.952 . S
H51 C39 0.950 . S
N52 C55 1.382 . S
N52 C57 1.363 . S
N53 C55 1.371 . S
N53 C56 1.372 . S
N54 C56 1.361 . S
N54 C57 1.377 . S
C55 N52 1.382 . S
C55 N53 1.371 . S
C55 C58 1.480 . S
C56 N53 1.372 . S
C56 N54 1.361 . S
C56 C64 1.457 . S
C57 N52 1.363 . S
C57 N54 1.377 . S
C57 C70 1.479 . S
C58 C55 1.480 . S
C58 C59 1.383 . S
C58 C63 1.385 . S
C59 H40 0.947 . S
C59 C58 1.383 . S
C59 C60 1.386 1_565 S
C60 H41 0.952 . S
C60 C59 1.386 1_545 S
C60 C61 1.381 1_545 S
C61 C60 1.381 1_565 S
C61 C62 1.377 . S
C62 H42 0.953 . S
C62 C61 1.377 . S
C62 C63 1.369 . S
C63 H43 0.945 . S
C63 C58 1.385 . S
C63 C62 1.369 . S
C64 C56 1.457 . S
C64 C65 1.376 . S
C64 C69 1.364 . S
C65 H44 0.949 1_565 S
C65 C64 1.376 . S
C65 C66 1.387 1_565 S
C66 H45 0.957 . S
C66 C65 1.387 1_545 S
C66 C67 1.383 1_545 S
C67 C66 1.383 1_565 S
C67 C68 1.372 . S
C68 H46 0.950 . S
C68 C67 1.372 . S
C68 C69 1.379 . S
C69 H47 0.948 . S
C69 C64 1.364 . S
C69 C68 1.379 . S
C70 C39 1.383 . S
C70 C57 1.479 . S
C70 C71 1.398 . S
C71 C36 1.382 1_565 S
C71 H48 0.951 1_565 S
C71 C70 1.398 . S
C72 C73 1.384 . S
C72 H85 0.947 1_455 S
C72 C107 1.382 . S
C73 C72 1.384 . S
C73 C74 1.378 . S
C74 C73 1.378 . S
C74 C75 1.378 . S
C74 H86 0.952 . S
C75 C74 1.378 . S
C75 H87 0.950 . S
C75 C106 1.383 . S
H76 C95 0.947 . S
H77 C96 0.947 . S
H78 C98 0.953 . S
H79 C99 0.945 . S
H80 C101 0.946 1_655 S
H81 C102 0.952 . S
H82 C104 0.950 . S
H83 C105 0.948 . S
H84 C107 0.949 1_655 S
H85 C72 0.947 1_655 S
H86 C74 0.952 . S
H87 C75 0.950 . S
N88 C91 1.382 . S
N88 C93 1.363 . S
N89 C91 1.371 . S
N89 C92 1.372 . S
N90 C92 1.361 . S
N90 C93 1.377 . S
C91 N88 1.382 . S
C91 N89 1.371 . S
C91 C94 1.480 . S
C92 N89 1.372 . S
C92 N90 1.361 . S
C92 C100 1.457 . S
C93 N88 1.363 . S
C93 N90 1.377 . S
C93 C106 1.479 . S
C94 C91 1.480 . S
C94 C95 1.383 . S
C94 C99 1.385 . S
C95 H76 0.947 . S
C95 C94 1.383 . S
C95 C96 1.388 1_455 S
C96 H77 0.947 . S
C96 C95 1.388 1_655 S
C96 C97 1.383 1_655 S
C97 C96 1.383 1_455 S
C97 C98 1.377 . S
C98 H78 0.953 . S
C98 C97 1.377 . S
C98 C99 1.369 . S
C99 H79 0.945 . S
C99 C94 1.385 . S
C99 C98 1.369 . S
C100 C92 1.457 . S
C100 C101 1.381 . S
C100 C105 1.364 . S
C101 H80 0.946 1_455 S
C101 C100 1.381 . S
C101 C102 1.387 1_455 S
C102 H81 0.952 . S
C102 C101 1.387 1_655 S
C102 C103 1.384 1_655 S
C103 C102 1.384 1_455 S
C103 C104 1.372 . S
C104 H82 0.950 . S
C104 C103 1.372 . S
C104 C105 1.379 . S
C105 H83 0.948 . S
C105 C100 1.364 . S
C105 C104 1.379 . S
C106 C75 1.383 . S
C106 C93 1.479 . S
C106 C107 1.401 . S
C107 C72 1.382 . S
C107 H84 0.949 1_455 S
C107 C106 1.401 . S
C108 C109 1.384 . S
C108 H121 0.948 1_545 S
C108 C143 1.382 . S
C109 C108 1.384 . S
C109 C110 1.378 . S
C110 C109 1.378 . S
C110 C111 1.378 . S
C110 H122 0.952 . S
C111 C110 1.378 . S
C111 H123 0.950 . S
C111 C142 1.383 . S
H112 C131 0.947 . S
H113 C132 0.949 . S
H114 C134 0.953 . S
H115 C135 0.945 . S
H116 C137 0.947 1_565 S
H117 C138 0.954 . S
H118 C140 0.950 . S
H119 C141 0.948 . S
H120 C143 0.950 1_565 S
H121 C108 0.948 1_565 S
H122 C110 0.952 . S
H123 C111 0.950 . S
N124 C127 1.382 . S
N124 C129 1.363 . S
N125 C127 1.371 . S
N125 C128 1.372 . S
N126 C128 1.361 . S
N126 C129 1.377 . S
C127 N124 1.382 . S
C127 N125 1.371 . S
C127 C130 1.480 . S
C128 N125 1.372 . S
C128 N126 1.361 . S
C128 C136 1.457 . S
C129 N124 1.363 . S
C129 N126 1.377 . S
C129 C142 1.479 . S
C130 C127 1.480 . S
C130 C131 1.383 . S
C130 C135 1.385 . S
C131 H112 0.947 . S
C131 C130 1.383 . S
C131 C132 1.387 1_545 S
C132 H113 0.949 . S
C132 C131 1.387 1_565 S
C132 C133 1.382 1_565 S
C133 C132 1.382 1_545 S
C133 C134 1.377 . S
C134 H114 0.953 . S
C134 C133 1.377 . S
C134 C135 1.369 . S
C135 H115 0.945 . S
C135 C130 1.385 . S
C135 C134 1.369 . S
C136 C128 1.457 . S
C136 C137 1.379 . S
C136 C141 1.364 . S
C137 H116 0.947 1_545 S
C137 C136 1.379 . S
C137 C138 1.387 1_545 S
C138 H117 0.954 . S
C138 C137 1.387 1_565 S
C138 C139 1.384 1_565 S
C139 C138 1.384 1_545 S
C139 C140 1.372 . S
C140 H118 0.950 . S
C140 C139 1.372 . S
C140 C141 1.379 . S
C141 H119 0.948 . S
C141 C136 1.364 . S
C141 C140 1.379 . S
C142 C111 1.383 . S
C142 C129 1.479 . S
C142 C143 1.400 . S
C143 C108 1.382 . S
C143 H120 0.950 1_545 S
C143 C142 1.400 . S
C144 C145 1.383 1_455 S
C144 H157 0.949 . S
C144 C179 1.382 . S
C145 C144 1.383 1_655 S
C145 C146 1.378 . S
C146 C145 1.378 . S
C146 C147 1.378 . S
C146 H158 0.952 . S
C147 C146 1.378 . S
C147 H159 0.950 . S
C147 C178 1.383 . S
H148 C167 0.947 . S
H149 C168 0.954 . S
H150 C170 0.953 . S
H151 C171 0.945 . S
H152 C173 0.950 1_455 S
H153 C174 0.949 . S
H154 C176 0.950 . S
H155 C177 0.948 . S
H156 C179 0.951 . S
H157 C144 0.949 . S
H158 C146 0.952 . S
H159 C147 0.950 . S
N160 C163 1.382 . S
N160 C165 1.363 . S
N161 C163 1.371 . S
N161 C164 1.372 . S
N162 C164 1.361 . S
N162 C165 1.377 . S
C163 N160 1.382 . S
C163 N161 1.371 . S
C163 C166 1.480 . S
C164 N161 1.372 . S
C164 N162 1.361 . S
C164 C172 1.457 . S
C165 N160 1.363 . S
C165 N162 1.377 . S
C165 C178 1.479 . S
C166 C163 1.480 . S
C166 C167 1.383 . S
C166 C171 1.385 . S
C167 H148 0.947 . S
C167 C166 1.383 . S
C167 C168 1.385 1_655 S
C168 H149 0.954 . S
C168 C167 1.385 1_455 S
C168 C169 1.381 1_455 S
C169 C168 1.381 1_655 S
C169 C170 1.377 . S
C170 H150 0.953 . S
C170 C169 1.377 . S
C170 C171 1.369 . S
C171 H151 0.945 . S
C171 C166 1.385 . S
C171 C170 1.369 . S
C172 C164 1.457 . S
C172 C173 1.374 . S
C172 C177 1.364 . S
C173 H152 0.950 1_655 S
C173 C172 1.374 . S
C173 C174 1.388 1_655 S
C174 H153 0.949 . S
C174 C173 1.388 1_455 S
C174 C175 1.387 1_455 S
C175 C174 1.387 1_655 S
C175 C176 1.372 . S
C176 H154 0.950 . S
C176 C175 1.372 . S
C176 C177 1.379 . S
C177 H155 0.948 . S
C177 C172 1.364 . S
C177 C176 1.379 . S
C178 C147 1.383 . S
C178 C165 1.479 . S
C178 C179 1.398 1_655 S
C179 C144 1.382 . S
C179 H156 0.951 . S
C179 C178 1.398 1_455 S
C180 C181 1.384 . S
C180 H193 0.947 1_545 S
C180 C215 1.382 . S
C181 C180 1.384 . S
C181 C182 1.378 . S
C182 C181 1.378 . S
C182 C183 1.378 . S
C182 H194 0.952 . S
C183 C182 1.378 . S
C183 H195 0.950 . S
C183 C214 1.383 . S
H184 C203 0.947 . S
H185 C204 0.949 . S
H186 C206 0.953 . S
H187 C207 0.945 . S
H188 C209 0.947 1_565 S
H189 C210 0.954 . S
H190 C212 0.950 . S
H191 C213 0.948 . S
H192 C215 0.950 1_565 S
H193 C180 0.947 1_565 S
H194 C182 0.952 . S
H195 C183 0.950 . S
N196 C199 1.382 . S
N196 C201 1.363 . S
N197 C199 1.371 . S
N197 C200 1.372 . S
N198 C200 1.361 . S
N198 C201 1.377 . S
C199 N196 1.382 . S
C199 N197 1.371 . S
C199 C202 1.480 . S
C200 N197 1.372 . S
C200 N198 1.361 . S
C200 C208 1.457 . S
C201 N196 1.363 . S
C201 N198 1.377 . S
C201 C214 1.479 . S
C202 C199 1.480 . S
C202 C203 1.383 . S
C202 C207 1.385 . S
C203 H184 0.947 . S
C203 C202 1.383 . S
C203 C204 1.387 1_545 S
C204 H185 0.949 . S
C204 C203 1.387 1_565 S
C204 C205 1.382 1_565 S
C205 C204 1.382 1_545 S
C205 C206 1.377 . S
C206 H186 0.953 . S
C206 C205 1.377 . S
C206 C207 1.369 . S
C207 H187 0.945 . S
C207 C202 1.385 . S
C207 C206 1.369 . S
C208 C200 1.457 . S
C208 C209 1.379 . S
C208 C213 1.364 . S
C209 H188 0.947 1_545 S
C209 C208 1.379 . S
C209 C210 1.387 1_545 S
C210 H189 0.954 . S
C210 C209 1.387 1_565 S
C210 C211 1.384 1_565 S
C211 C210 1.384 1_545 S
C211 C212 1.372 . S
C212 H190 0.950 . S
C212 C211 1.372 . S
C212 C213 1.379 . S
C213 H191 0.948 . S
C213 C208 1.364 . S
C213 C212 1.379 . S
C214 C183 1.383 . S
C214 C201 1.479 . S
C214 C215 1.400 . S
C215 C180 1.382 . S
C215 H192 0.950 1_545 S
C215 C214 1.400 . S
C216 C217 1.384 . S
C216 H229 0.947 1_455 S
C216 C251 1.382 . S
C217 C216 1.384 . S
C217 C218 1.378 . S
C218 C217 1.378 . S
C218 C219 1.378 . S
C218 H230 0.952 . S
C219 C218 1.378 . S
C219 H231 0.950 . S
C219 C250 1.383 . S
H220 C239 0.947 . S
H221 C240 0.947 . S
H222 C242 0.953 . S
H223 C243 0.945 . S
H224 C245 0.946 1_655 S
H225 C246 0.953 . S
H226 C248 0.950 . S
H227 C249 0.948 . S
H228 C251 0.949 1_655 S
H229 C216 0.947 1_655 S
H230 C218 0.952 . S
H231 C219 0.950 . S
N232 C235 1.382 . S
N232 C237 1.363 . S
N233 C235 1.371 . S
N233 C236 1.372 . S
N234 C236 1.361 . S
N234 C237 1.377 . S
C235 N232 1.382 . S
C235 N233 1.371 . S
C235 C238 1.480 . S
C236 N233 1.372 . S
C236 N234 1.361 . S
C236 C244 1.457 . S
C237 N232 1.363 . S
C237 N234 1.377 . S
C237 C250 1.479 . S
C238 C235 1.480 . S
C238 C239 1.383 . S
C238 C243 1.385 . S
C239 H220 0.947 . S
C239 C238 1.383 . S
C239 C240 1.387 1_455 S
C240 H221 0.947 . S
C240 C239 1.387 1_655 S
C240 C241 1.383 1_655 S
C241 C240 1.383 1_455 S
C241 C242 1.377 . S
C242 H222 0.953 . S
C242 C241 1.377 . S
C242 C243 1.369 . S
C243 H223 0.945 . S
C243 C238 1.385 . S
C243 C242 1.369 . S
C244 C236 1.457 . S
C244 C245 1.381 . S
C244 C249 1.364 . S
C245 H224 0.946 1_455 S
C245 C244 1.381 . S
C245 C246 1.387 1_455 S
C246 H225 0.953 . S
C246 C245 1.387 1_655 S
C246 C247 1.384 1_655 S
C247 C246 1.384 1_455 S
C247 C248 1.372 . S
C248 H226 0.950 . S
C248 C247 1.372 . S
C248 C249 1.379 . S
C249 H227 0.948 . S
C249 C244 1.364 . S
C249 C248 1.379 . S
C250 C219 1.383 . S
C250 C237 1.479 . S
C250 C251 1.401 . S
C251 C216 1.382 . S
C251 H228 0.949 1_455 S
C251 C250 1.401 . S
C252 C253 1.383 1_545 S
C252 H265 0.948 . S
C252 C287 1.382 1_545 S
C253 C252 1.383 1_565 S
C253 C254 1.378 . S
C254 C253 1.378 . S
C254 C255 1.378 . S
C254 H266 0.952 . S
C255 C254 1.378 . S
C255 H267 0.950 . S
C255 C286 1.383 . S
H256 C275 0.947 . S
H257 C276 0.952 . S
H258 C278 0.953 . S
H259 C279 0.945 . S
H260 C281 0.949 1_545 S
H261 C282 0.956 . S
H262 C284 0.950 . S
H263 C285 0.948 . S
H264 C287 0.951 1_545 S
H265 C252 0.948 . S
H266 C254 0.952 . S
H267 C255 0.950 . S
N268 C271 1.382 . S
N268 C273 1.363 . S
N269 C271 1.371 . S
N269 C272 1.372 . S
N270 C272 1.361 . S
N270 C273 1.377 . S
C271 N268 1.382 . S
C271 N269 1.371 . S
C271 C274 1.480 . S
C272 N269 1.372 . S
C272 N270 1.361 . S
C272 C280 1.457 . S
C273 N268 1.363 . S
C273 N270 1.377 . S
C273 C286 1.479 . S
C274 C271 1.480 . S
C274 C275 1.383 . S
C274 C279 1.385 . S
C275 H256 0.947 . S
C275 C274 1.383 . S
C275 C276 1.386 1_565 S
C276 H257 0.952 . S
C276 C275 1.386 1_545 S
C276 C277 1.381 1_545 S
C277 C276 1.381 1_565 S
C277 C278 1.377 . S
C278 H258 0.953 . S
C278 C277 1.377 . S
C278 C279 1.369 . S
C279 H259 0.945 . S
C279 C274 1.385 . S
C279 C278 1.369 . S
C280 C272 1.457 . S
C280 C281 1.376 . S
C280 C285 1.364 . S
C281 H260 0.949 1_565 S
C281 C280 1.376 . S
C281 C282 1.387 1_565 S
C282 H261 0.956 . S
C282 C281 1.387 1_545 S
C282 C283 1.383 1_545 S
C283 C282 1.383 1_565 S
C283 C284 1.372 . S
C284 H262 0.950 . S
C284 C283 1.372 . S
C284 C285 1.379 . S
C285 H263 0.948 . S
C285 C280 1.364 . S
C285 C284 1.379 . S
C286 C255 1.383 . S
C286 C273 1.479 . S
C286 C287 1.398 . S
C287 C252 1.382 1_565 S
C287 H264 0.951 1_565 S
C287 C286 1.398 . S
C288 C289 1.385 . S
C288 H301 0.946 1_554 S
C288 C323 1.382 . S
C289 C288 1.385 . S
C289 C290 1.378 . S
C290 C289 1.378 . S
C290 C291 1.378 . S
C290 H302 0.952 . S
C291 C290 1.378 . S
C291 H303 0.950 . S
C291 C322 1.383 . S
H292 C311 0.947 . S
H293 C312 0.946 1_556 S
H294 C314 0.953 . S
H295 C315 0.945 . S
H296 C317 0.952 1_556 S
H297 C318 0.950 . S
H298 C320 0.950 . S
H299 C321 0.948 . S
H300 C323 0.948 1_556 S
H301 C288 0.946 1_556 S
H302 C290 0.952 . S
H303 C291 0.950 . S
N304 C307 1.382 . S
N304 C309 1.363 . S
N305 C307 1.371 . S
N305 C308 1.372 . S
N306 C308 1.361 . S
N306 C309 1.377 . S
C307 N304 1.382 . S
C307 N305 1.371 . S
C307 C310 1.480 . S
C308 N305 1.372 . S
C308 N306 1.361 . S
C308 C316 1.457 . S
C309 N304 1.363 . S
C309 N306 1.377 . S
C309 C322 1.479 . S
C310 C307 1.480 . S
C310 C311 1.383 . S
C310 C315 1.385 . S
C311 H292 0.947 . S
C311 C310 1.383 . S
C311 C312 1.388 . S
C312 H293 0.946 1_554 S
C312 C311 1.388 . S
C312 C313 1.384 . S
C313 C312 1.384 . S
C313 C314 1.377 . S
C314 H294 0.953 . S
C314 C313 1.377 . S
C314 C315 1.369 . S
C315 H295 0.945 . S
C315 C310 1.385 . S
C315 C314 1.369 . S
C316 C308 1.457 . S
C316 C317 1.372 . S
C316 C321 1.364 . S
C317 H296 0.952 1_554 S
C317 C316 1.372 . S
C317 C318 1.388 1_554 S
C318 H297 0.950 . S
C318 C317 1.388 1_556 S
C318 C319 1.386 1_556 S
C319 C318 1.386 1_554 S
C319 C320 1.372 . S
C320 H298 0.950 . S
C320 C319 1.372 . S
C320 C321 1.379 . S
C321 H299 0.948 . S
C321 C316 1.364 . S
C321 C320 1.379 . S
C322 C291 1.383 . S
C322 C309 1.479 . S
C322 C323 1.403 . S
C323 C288 1.382 . S
C323 H300 0.948 1_554 S
C323 C322 1.403 . S
C324 C325 1.381 1_554 S
C324 H337 0.950 . S
C324 C359 1.382 . S
C325 C324 1.381 1_556 S
C325 C326 1.384 . S
C326 C325 1.384 . S
C326 C327 1.378 . S
C326 H338 0.952 . S
C327 C326 1.378 . S
C327 H339 0.950 . S
C327 C358 1.383 . S
H328 C347 0.947 . S
H329 C348 0.946 . S
H330 C350 0.953 . S
H331 C351 0.945 . S
H332 C353 0.953 1_554 S
H333 C354 0.949 . S
H334 C356 0.950 . S
H335 C357 0.948 . S
H336 C359 0.953 . S
H337 C324 0.950 . S
H338 C326 0.952 . S
H339 C327 0.950 . S
N340 C343 1.382 . S
N340 C345 1.363 . S
N341 C343 1.371 . S
N341 C344 1.372 . S
N342 C344 1.361 . S
N342 C345 1.377 . S
C343 N340 1.382 . S
C343 N341 1.371 . S
C343 C346 1.480 . S
C344 N341 1.372 . S
C344 N342 1.361 . S
C344 C352 1.457 . S
C345 N340 1.363 . S
C345 N342 1.377 . S
C345 C358 1.479 . S
C346 C343 1.480 . S
C346 C347 1.383 . S
C346 C351 1.385 . S
C347 H328 0.947 . S
C347 C346 1.383 . S
C347 C348 1.388 1_556 S
C348 H329 0.946 . S
C348 C347 1.388 1_554 S
C348 C349 1.384 1_554 S
C349 C348 1.384 1_556 S
C349 C350 1.377 . S
C350 H330 0.953 . S
C350 C349 1.377 . S
C350 C351 1.369 . S
C351 H331 0.945 . S
C351 C346 1.385 . S
C351 C350 1.369 . S
C352 C344 1.457 . S
C352 C353 1.371 . S
C352 C357 1.364 . S
C353 H332 0.953 1_556 S
C353 C352 1.371 . S
C353 C354 1.389 1_556 S
C354 H333 0.949 . S
C354 C353 1.389 1_554 S
C354 C355 1.387 1_554 S
C355 C354 1.387 1_556 S
C355 C356 1.372 . S
C356 H334 0.950 . S
C356 C355 1.372 . S
C356 C357 1.379 . S
C357 H335 0.948 . S
C357 C352 1.364 . S
C357 C356 1.379 . S
C358 C327 1.383 . S
C358 C345 1.479 . S
C358 C359 1.397 1_556 S
C359 C324 1.382 . S
C359 H336 0.953 . S
C359 C358 1.397 1_554 S
C360 C361 1.381 1_554 S
C360 H373 0.950 . S
C360 C395 1.382 . S
C361 C360 1.381 1_556 S
C361 C362 1.384 . S
C362 C361 1.384 . S
C362 C363 1.378 . S
C362 H374 0.952 . S
C363 C362 1.378 . S
C363 H375 0.950 . S
C363 C394 1.383 . S
H364 C383 0.947 . S
H365 C384 0.946 . S
H366 C386 0.953 . S
H367 C387 0.945 . S
H368 C389 0.953 1_554 S
H369 C390 0.949 . S
H370 C392 0.950 . S
H371 C393 0.948 . S
H372 C395 0.953 . S
H373 C360 0.950 . S
H374 C362 0.952 . S
H375 C363 0.950 . S
N376 C379 1.382 . S
N376 C381 1.363 . S
N377 C379 1.371 . S
N377 C380 1.372 . S
N378 C380 1.361 . S
N378 C381 1.377 . S
C379 N376 1.382 . S
C379 N377 1.371 . S
C379 C382 1.480 . S
C380 N377 1.372 . S
C380 N378 1.361 . S
C380 C388 1.457 . S
C381 N376 1.363 . S
C381 N378 1.377 . S
C381 C394 1.479 . S
C382 C379 1.480 . S
C382 C383 1.383 . S
C382 C387 1.385 . S
C383 H364 0.947 . S
C383 C382 1.383 . S
C383 C384 1.388 1_556 S
C384 H365 0.946 . S
C384 C383 1.388 1_554 S
C384 C385 1.384 1_554 S
C385 C384 1.384 1_556 S
C385 C386 1.377 . S
C386 H366 0.953 . S
C386 C385 1.377 . S
C386 C387 1.369 . S
C387 H367 0.945 . S
C387 C382 1.385 . S
C387 C386 1.369 . S
C388 C380 1.457 . S
C388 C389 1.371 . S
C388 C393 1.364 . S
C389 H368 0.953 1_556 S
C389 C388 1.371 . S
C389 C390 1.389 1_556 S
C390 H369 0.949 . S
C390 C389 1.389 1_554 S
C390 C391 1.387 1_554 S
C391 C390 1.387 1_556 S
C391 C392 1.372 . S
C392 H370 0.950 . S
C392 C391 1.372 . S
C392 C393 1.379 . S
C393 H371 0.948 . S
C393 C388 1.364 . S
C393 C392 1.379 . S
C394 C363 1.383 . S
C394 C381 1.479 . S
C394 C395 1.396 1_556 S
C395 C360 1.382 . S
C395 H372 0.953 . S
C395 C394 1.396 1_554 S
C396 C397 1.381 1_554 S
C396 H409 0.950 . S
C396 C431 1.382 . S
C397 C396 1.381 1_556 S
C397 C398 1.384 . S
C398 C397 1.384 . S
C398 C399 1.378 . S
C398 H410 0.952 . S
C399 C398 1.378 . S
C399 H411 0.950 . S
C399 C430 1.383 . S
H400 C419 0.947 . S
H401 C420 0.946 . S
H402 C422 0.953 . S
H403 C423 0.945 . S
H404 C425 0.952 1_554 S
H405 C426 0.949 . S
H406 C428 0.950 . S
H407 C429 0.948 . S
H408 C431 0.953 . S
H409 C396 0.950 . S
H410 C398 0.952 . S
H411 C399 0.950 . S
N412 C415 1.382 . S
N412 C417 1.363 . S
N413 C415 1.371 . S
N413 C416 1.372 . S
N414 C416 1.361 . S
N414 C417 1.377 . S
C415 N412 1.382 . S
C415 N413 1.371 . S
C415 C418 1.480 . S
C416 N413 1.372 . S
C416 N414 1.361 . S
C416 C424 1.457 . S
C417 N412 1.363 . S
C417 N414 1.377 . S
C417 C430 1.479 . S
C418 C415 1.480 . S
C418 C419 1.383 . S
C418 C423 1.385 . S
C419 H400 0.947 . S
C419 C418 1.383 . S
C419 C420 1.388 1_556 S
C420 H401 0.946 . S
C420 C419 1.388 1_554 S
C420 C421 1.384 1_554 S
C421 C420 1.384 1_556 S
C421 C422 1.377 . S
C422 H402 0.953 . S
C422 C421 1.377 . S
C422 C423 1.369 . S
C423 H403 0.945 . S
C423 C418 1.385 . S
C423 C422 1.369 . S
C424 C416 1.457 . S
C424 C425 1.371 . S
C424 C429 1.364 . S
C425 H404 0.952 1_556 S
C425 C424 1.371 . S
C425 C426 1.389 1_556 S
C426 H405 0.949 . S
C426 C425 1.389 1_554 S
C426 C427 1.387 1_554 S
C427 C426 1.387 1_556 S
C427 C428 1.372 . S
C428 H406 0.950 . S
C428 C427 1.372 . S
C428 C429 1.379 . S
C429 H407 0.948 . S
C429 C424 1.364 . S
C429 C428 1.379 . S
C430 C399 1.383 . S
C430 C417 1.479 . S
C430 C431 1.396 1_556 S
C431 C396 1.382 . S
C431 H408 0.953 . S
C431 C430 1.396 1_554 S
C432 C433 1.384 . S
C432 H445 0.947 . S
C432 C467 1.382 . S
C433 C432 1.384 . S
C433 C434 1.378 . S
C434 C433 1.378 . S
C434 C435 1.378 . S
C434 H446 0.952 . S
C435 C434 1.378 . S
C435 H447 0.950 . S
C435 C466 1.383 . S
H436 C455 0.947 . S
H437 C456 0.946 . S
H438 C458 0.953 . S
H439 C459 0.945 . S
H440 C461 0.952 . S
H441 C462 0.949 . S
H442 C464 0.950 . S
H443 C465 0.948 . S
H444 C467 0.951 . S
H445 C432 0.947 . S
H446 C434 0.952 . S
H447 C435 0.950 . S
N448 C451 1.382 . S
N448 C453 1.363 . S
N449 C451 1.371 . S
N449 C452 1.372 . S
N450 C452 1.361 . S
N450 C453 1.377 . S
C451 N448 1.382 . S
C451 N449 1.371 . S
C451 C454 1.480 . S
C452 N449 1.372 . S
C452 N450 1.361 . S
C452 C460 1.457 . S
C453 N448 1.363 . S
C453 N450 1.377 . S
C453 C466 1.479 . S
C454 C451 1.480 . S
C454 C455 1.383 . S
C454 C459 1.385 . S
C455 H436 0.947 . S
C455 C454 1.383 . S
C455 C456 1.388 . S
C456 H437 0.946 . S
C456 C455 1.388 . S
C456 C457 1.384 . S
C457 C456 1.384 . S
C457 C458 1.377 . S
C458 H438 0.953 . S
C458 C457 1.377 . S
C458 C459 1.369 . S
C459 H439 0.945 . S
C459 C454 1.385 . S
C459 C458 1.369 . S
C460 C452 1.457 . S
C460 C461 1.372 . S
C460 C465 1.364 . S
C461 H440 0.952 . S
C461 C460 1.372 . S
C461 C462 1.389 . S
C462 H441 0.949 . S
C462 C461 1.389 . S
C462 C463 1.387 . S
C463 C462 1.387 . S
C463 C464 1.372 . S
C464 H442 0.950 . S
C464 C463 1.372 . S
C464 C465 1.379 . S
C465 H443 0.948 . S
C465 C460 1.364 . S
C465 C464 1.379 . S
C466 C435 1.383 . S
C466 C453 1.479 . S
C466 C467 1.398 . S
C467 C432 1.382 . S
C467 H444 0.951 . S
C467 C466 1.398 . S
C468 C469 1.384 . S
C468 H481 0.947 . S
C468 C503 1.382 . S
C469 C468 1.384 . S
C469 C470 1.378 . S
C470 C469 1.378 . S
C470 C471 1.378 . S
C470 H482 0.952 . S
C471 C470 1.378 . S
C471 H483 0.950 . S
C471 C502 1.383 . S
H472 C491 0.947 . S
H473 C492 0.946 . S
H474 C494 0.953 . S
H475 C495 0.945 . S
H476 C497 0.952 . S
H477 C498 0.949 . S
H478 C500 0.950 . S
H479 C501 0.948 . S
H480 C503 0.951 . S
H481 C468 0.947 . S
H482 C470 0.952 . S
H483 C471 0.950 . S
N484 C487 1.382 . S
N484 C489 1.363 . S
N485 C487 1.371 . S
N485 C488 1.372 . S
N486 C488 1.361 . S
N486 C489 1.377 . S
C487 N484 1.382 . S
C487 N485 1.371 . S
C487 C490 1.480 . S
C488 N485 1.372 . S
C488 N486 1.361 . S
C488 C496 1.457 . S
C489 N484 1.363 . S
C489 N486 1.377 . S
C489 C502 1.479 . S
C490 C487 1.480 . S
C490 C491 1.383 . S
C490 C495 1.385 . S
C491 H472 0.947 . S
C491 C490 1.383 . S
C491 C492 1.388 . S
C492 H473 0.946 . S
C492 C491 1.388 . S
C492 C493 1.384 . S
C493 C492 1.384 . S
C493 C494 1.377 . S
C494 H474 0.953 . S
C494 C493 1.377 . S
C494 C495 1.369 . S
C495 H475 0.945 . S
C495 C490 1.385 . S
C495 C494 1.369 . S
C496 C488 1.457 . S
C496 C497 1.372 . S
C496 C501 1.364 . S
C497 H476 0.952 . S
C497 C496 1.372 . S
C497 C498 1.389 . S
C498 H477 0.949 . S
C498 C497 1.389 . S
C498 C499 1.387 . S
C499 C498 1.387 . S
C499 C500 1.372 . S
C500 H478 0.950 . S
C500 C499 1.372 . S
C500 C501 1.379 . S
C501 H479 0.948 . S
C501 C496 1.364 . S
C501 C500 1.379 . S
C502 C471 1.383 . S
C502 C489 1.479 . S
C502 C503 1.398 . S
C503 C468 1.382 . S
C503 H480 0.951 . S
C503 C502 1.398 . S
C504 C505 1.384 . S
C504 H517 0.947 . S
C504 C539 1.382 . S
C505 C504 1.384 . S
C505 C506 1.378 . S
C506 C505 1.378 . S
C506 C507 1.378 . S
C506 H518 0.952 . S
C507 C506 1.378 . S
C507 H519 0.950 . S
C507 C538 1.383 . S
H508 C527 0.947 . S
H509 C528 0.946 . S
H510 C530 0.953 . S
H511 C531 0.945 . S
H512 C533 0.952 . S
H513 C534 0.949 . S
H514 C536 0.950 . S
H515 C537 0.948 . S
H516 C539 0.951 . S
H517 C504 0.947 . S
H518 C506 0.952 . S
H519 C507 0.950 . S
N520 C523 1.382 . S
N520 C525 1.363 . S
N521 C523 1.371 . S
N521 C524 1.372 . S
N522 C524 1.361 . S
N522 C525 1.377 . S
C523 N520 1.382 . S
C523 N521 1.371 . S
C523 C526 1.480 . S
C524 N521 1.372 . S
C524 N522 1.361 . S
C524 C532 1.457 . S
C525 N520 1.363 . S
C525 N522 1.377 . S
C525 C538 1.479 . S
C526 C523 1.480 . S
C526 C527 1.383 . S
C526 C531 1.385 . S
C527 H508 0.947 . S
C527 C526 1.383 . S
C527 C528 1.388 . S
C528 H509 0.946 . S
C528 C527 1.388 . S
C528 C529 1.384 . S
C529 C528 1.384 . S
C529 C530 1.377 . S
C530 H510 0.953 . S
C530 C529 1.377 . S
C530 C531 1.369 . S
C531 H511 0.945 . S
C531 C526 1.385 . S
C531 C530 1.369 . S
C532 C524 1.457 . S
C532 C533 1.372 . S
C532 C537 1.364 . S
C533 H512 0.952 . S
C533 C532 1.372 . S
C533 C534 1.389 . S
C534 H513 0.949 . S
C534 C533 1.389 . S
C534 C535 1.387 . S
C535 C534 1.387 . S
C535 C536 1.372 . S
C536 H514 0.950 . S
C536 C535 1.372 . S
C536 C537 1.379 . S
C537 H515 0.948 . S
C537 C532 1.364 . S
C537 C536 1.379 . S
C538 C507 1.383 . S
C538 C525 1.479 . S
C538 C539 1.398 . S
C539 C504 1.382 . S
C539 H516 0.951 . S
C539 C538 1.398 . S
C540 C541 1.384 . S
C540 H553 0.947 . S
C540 C575 1.382 . S
C541 C540 1.384 . S
C541 C542 1.378 . S
C542 C541 1.378 . S
C542 C543 1.378 . S
C542 H554 0.952 . S
C543 C542 1.378 . S
C543 H555 0.950 . S
C543 C574 1.383 . S
H544 C563 0.947 . S
H545 C564 0.946 . S
H546 C566 0.953 . S
H547 C567 0.945 . S
H548 C569 0.952 . S
H549 C570 0.949 . S
H550 C572 0.950 . S
H551 C573 0.948 . S
H552 C575 0.951 . S
H553 C540 0.947 . S
H554 C542 0.952 . S
H555 C543 0.950 . S
N556 C559 1.382 . S
N556 C561 1.363 . S
N557 C559 1.371 . S
N557 C560 1.372 . S
N558 C560 1.361 . S
N558 C561 1.377 . S
C559 N556 1.382 . S
C559 N557 1.371 . S
C559 C562 1.480 . S
C560 N557 1.372 . S
C560 N558 1.361 . S
C560 C568 1.457 . S
C561 N556 1.363 . S
C561 N558 1.377 . S
C561 C574 1.479 . S
C562 C559 1.480 . S
C562 C563 1.383 . S
C562 C567 1.385 . S
C563 H544 0.947 . S
C563 C562 1.383 . S
C563 C564 1.388 . S
C564 H545 0.946 . S
C564 C563 1.388 . S
C564 C565 1.384 . S
C565 C564 1.384 . S
C565 C566 1.377 . S
C566 H546 0.953 . S
C566 C565 1.377 . S
C566 C567 1.369 . S
C567 H547 0.945 . S
C567 C562 1.385 . S
C567 C566 1.369 . S
C568 C560 1.457 . S
C568 C569 1.372 . S
C568 C573 1.364 . S
C569 H548 0.952 . S
C569 C568 1.372 . S
C569 C570 1.389 . S
C570 H549 0.949 . S
C570 C569 1.389 . S
C570 C571 1.387 . S
C571 C570 1.387 . S
C571 C572 1.372 . S
C572 H550 0.950 . S
C572 C571 1.372 . S
C572 C573 1.379 . S
C573 H551 0.948 . S
C573 C568 1.364 . S
C573 C572 1.379 . S
C574 C543 1.383 . S
C574 C561 1.479 . S
C574 C575 1.398 . S
C575 C540 1.382 . S
C575 H552 0.951 . S
C575 C574 1.398 . S
C576 C577 1.384 . S
C576 H589 0.947 . S
C576 C611 1.382 . S
C577 C576 1.384 . S
C577 C578 1.378 . S
C578 C577 1.378 . S
C578 C579 1.378 . S
C578 H590 0.952 . S
C579 C578 1.378 . S
C579 H591 0.950 . S
C579 C610 1.383 . S
H580 C599 0.947 . S
H581 C600 0.946 . S
H582 C602 0.953 . S
H583 C603 0.945 . S
H584 C605 0.952 . S
H585 C606 0.949 . S
H586 C608 0.950 . S
H587 C609 0.948 . S
H588 C611 0.951 . S
H589 C576 0.947 . S
H590 C578 0.952 . S
H591 C579 0.950 . S
N592 C595 1.382 . S
N592 C597 1.363 . S
N593 C595 1.371 . S
N593 C596 1.372 . S
N594 C596 1.361 . S
N594 C597 1.377 . S
C595 N592 1.382 . S
C595 N593 1.371 . S
C595 C598 1.480 . S
C596 N593 1.372 . S
C596 N594 1.361 . S
C596 C604 1.457 . S
C597 N592 1.363 . S
C597 N594 1.377 . S
C597 C610 1.479 . S
C598 C595 1.480 . S
C598 C599 1.383 . S
C598 C603 1.385 . S
C599 H580 0.947 . S
C599 C598 1.383 . S
C599 C600 1.388 . S
C600 H581 0.946 . S
C600 C599 1.388 . S
C600 C601 1.384 . S
C601 C600 1.384 . S
C601 C602 1.377 . S
C602 H582 0.953 . S
C602 C601 1.377 . S
C602 C603 1.369 . S
C603 H583 0.945 . S
C603 C598 1.385 . S
C603 C602 1.369 . S
C604 C596 1.457 . S
C604 C605 1.372 . S
C604 C609 1.364 . S
C605 H584 0.952 . S
C605 C604 1.372 . S
C605 C606 1.389 . S
C606 H585 0.949 . S
C606 C605 1.389 . S
C606 C607 1.387 . S
C607 C606 1.387 . S
C607 C608 1.372 . S
C608 H586 0.950 . S
C608 C607 1.372 . S
C608 C609 1.379 . S
C609 H587 0.948 . S
C609 C604 1.364 . S
C609 C608 1.379 . S
C610 C579 1.383 . S
C610 C597 1.479 . S
C610 C611 1.398 . S
C611 C576 1.382 . S
C611 H588 0.951 . S
C611 C610 1.398 . S
C612 C613 1.384 . S
C612 H625 0.947 . S
C612 C647 1.382 . S
C613 C612 1.384 . S
C613 C614 1.378 . S
C614 C613 1.378 . S
C614 C615 1.378 . S
C614 H626 0.952 . S
C615 C614 1.378 . S
C615 H627 0.950 . S
C615 C646 1.383 . S
H616 C635 0.947 . S
H617 C636 0.946 . S
H618 C638 0.953 . S
H619 C639 0.945 . S
H620 C641 0.952 . S
H621 C642 0.949 . S
H622 C644 0.950 . S
H623 C645 0.948 . S
H624 C647 0.951 . S
H625 C612 0.947 . S
H626 C614 0.952 . S
H627 C615 0.950 . S
N628 C631 1.382 . S
N628 C633 1.363 . S
N629 C631 1.371 . S
N629 C632 1.372 . S
N630 C632 1.361 . S
N630 C633 1.377 . S
C631 N628 1.382 . S
C631 N629 1.371 . S
C631 C634 1.480 . S
C632 N629 1.372 . S
C632 N630 1.361 . S
C632 C640 1.457 . S
C633 N628 1.363 . S
C633 N630 1.377 . S
C633 C646 1.479 . S
C634 C631 1.480 . S
C634 C635 1.383 . S
C634 C639 1.385 . S
C635 H616 0.947 . S
C635 C634 1.383 . S
C635 C636 1.388 . S
C636 H617 0.946 . S
C636 C635 1.388 . S
C636 C637 1.384 . S
C637 C636 1.384 . S
C637 C638 1.377 . S
C638 H618 0.953 . S
C638 C637 1.377 . S
C638 C639 1.369 . S
C639 H619 0.945 . S
C639 C634 1.385 . S
C639 C638 1.369 . S
C640 C632 1.457 . S
C640 C641 1.372 . S
C640 C645 1.364 . S
C641 H620 0.952 . S
C641 C640 1.372 . S
C641 C642 1.389 . S
C642 H621 0.949 . S
C642 C641 1.389 . S
C642 C643 1.387 . S
C643 C642 1.387 . S
C643 C644 1.372 . S
C644 H622 0.950 . S
C644 C643 1.372 . S
C644 C645 1.379 . S
C645 H623 0.948 . S
C645 C640 1.364 . S
C645 C644 1.379 . S
C646 C615 1.383 . S
C646 C633 1.479 . S
C646 C647 1.398 . S
C647 C612 1.382 . S
C647 H624 0.951 . S
C647 C646 1.398 . S
C648 C649 1.384 . S
C648 H661 0.947 . S
C648 C683 1.382 . S
C649 C648 1.384 . S
C649 C650 1.378 . S
C650 C649 1.378 . S
C650 C651 1.378 . S
C650 H662 0.952 . S
C651 C650 1.378 . S
C651 H663 0.950 . S
C651 C682 1.383 . S
H652 C671 0.947 . S
H653 C672 0.946 . S
H654 C674 0.953 . S
H655 C675 0.945 . S
H656 C677 0.952 . S
H657 C678 0.949 . S
H658 C680 0.950 . S
H659 C681 0.948 . S
H660 C683 0.951 . S
H661 C648 0.947 . S
H662 C650 0.952 . S
H663 C651 0.950 . S
N664 C667 1.382 . S
N664 C669 1.363 . S
N665 C667 1.371 . S
N665 C668 1.372 . S
N666 C668 1.361 . S
N666 C669 1.377 . S
C667 N664 1.382 . S
C667 N665 1.371 . S
C667 C670 1.480 . S
C668 N665 1.372 . S
C668 N666 1.361 . S
C668 C676 1.457 . S
C669 N664 1.363 . S
C669 N666 1.377 . S
C669 C682 1.479 . S
C670 C667 1.480 . S
C670 C671 1.383 . S
C670 C675 1.385 . S
C671 H652 0.947 . S
C671 C670 1.383 . S
C671 C672 1.388 . S
C672 H653 0.946 . S
C672 C671 1.388 . S
C672 C673 1.384 . S
C673 C672 1.384 . S
C673 C674 1.377 . S
C674 H654 0.953 . S
C674 C673 1.377 . S
C674 C675 1.369 . S
C675 H655 0.945 . S
C675 C670 1.385 . S
C675 C674 1.369 . S
C676 C668 1.457 . S
C676 C677 1.372 . S
C676 C681 1.364 . S
C677 H656 0.952 . S
C677 C676 1.372 . S
C677 C678 1.389 . S
C678 H657 0.949 . S
C678 C677 1.389 . S
C678 C679 1.387 . S
C679 C678 1.387 . S
C679 C680 1.372 . S
C680 H658 0.950 . S
C680 C679 1.372 . S
C680 C681 1.379 . S
C681 H659 0.948 . S
C681 C676 1.364 . S
C681 C680 1.379 . S
C682 C651 1.383 . S
C682 C669 1.479 . S
C682 C683 1.398 . S
C683 C648 1.382 . S
C683 H660 0.951 . S
C683 C682 1.398 . S
C684 C685 1.384 . S
C684 H697 0.947 . S
C684 C719 1.382 . S
C685 C684 1.384 . S
C685 C686 1.378 . S
C686 C685 1.378 . S
C686 C687 1.378 . S
C686 H698 0.952 . S
C687 C686 1.378 . S
C687 H699 0.950 . S
C687 C718 1.383 . S
H688 C707 0.947 . S
H689 C708 0.946 . S
H690 C710 0.953 . S
H691 C711 0.945 . S
H692 C713 0.952 . S
H693 C714 0.949 . S
H694 C716 0.950 . S
H695 C717 0.948 . S
H696 C719 0.951 . S
H697 C684 0.947 . S
H698 C686 0.952 . S
H699 C687 0.950 . S
N700 C703 1.382 . S
N700 C705 1.363 . S
N701 C703 1.371 . S
N701 C704 1.372 . S
N702 C704 1.361 . S
N702 C705 1.377 . S
C703 N700 1.382 . S
C703 N701 1.371 . S
C703 C706 1.480 . S
C704 N701 1.372 . S
C704 N702 1.361 . S
C704 C712 1.457 . S
C705 N700 1.363 . S
C705 N702 1.377 . S
C705 C718 1.479 . S
C706 C703 1.480 . S
C706 C707 1.383 . S
C706 C711 1.385 . S
C707 H688 0.947 . S
C707 C706 1.383 . S
C707 C708 1.388 . S
C708 H689 0.946 . S
C708 C707 1.388 . S
C708 C709 1.384 . S
C709 C708 1.384 . S
C709 C710 1.377 . S
C710 H690 0.953 . S
C710 C709 1.377 . S
C710 C711 1.369 . S
C711 H691 0.945 . S
C711 C706 1.385 . S
C711 C710 1.369 . S
C712 C704 1.457 . S
C712 C713 1.372 . S
C712 C717 1.364 . S
C713 H692 0.952 . S
C713 C712 1.372 . S
C713 C714 1.389 . S
C714 H693 0.949 . S
C714 C713 1.389 . S
C714 C715 1.387 . S
C715 C714 1.387 . S
C715 C716 1.372 . S
C716 H694 0.950 . S
C716 C715 1.372 . S
C716 C717 1.379 . S
C717 H695 0.948 . S
C717 C712 1.364 . S
C717 C716 1.379 . S
C718 C687 1.383 . S
C718 C705 1.479 . S
C718 C719 1.398 . S
C719 C684 1.382 . S
C719 H696 0.951 . S
C719 C718 1.398 . S
C720 C721 1.384 . S
C720 H733 0.947 . S
C720 C755 1.382 . S
C721 C720 1.384 . S
C721 C722 1.378 . S
C722 C721 1.378 . S
C722 C723 1.378 . S
C722 H734 0.952 . S
C723 C722 1.378 . S
C723 H735 0.950 . S
C723 C754 1.383 . S
H724 C743 0.947 . S
H725 C744 0.946 . S
H726 C746 0.953 . S
H727 C747 0.945 . S
H728 C749 0.952 . S
H729 C750 0.949 . S
H730 C752 0.950 . S
H731 C753 0.948 . S
H732 C755 0.951 . S
H733 C720 0.947 . S
H734 C722 0.952 . S
H735 C723 0.950 . S
N736 C739 1.382 . S
N736 C741 1.363 . S
N737 C739 1.371 . S
N737 C740 1.372 . S
N738 C740 1.361 . S
N738 C741 1.377 . S
C739 N736 1.382 . S
C739 N737 1.371 . S
C739 C742 1.480 . S
C740 N737 1.372 . S
C740 N738 1.361 . S
C740 C748 1.457 . S
C741 N736 1.363 . S
C741 N738 1.377 . S
C741 C754 1.479 . S
C742 C739 1.480 . S
C742 C743 1.383 . S
C742 C747 1.385 . S
C743 H724 0.947 . S
C743 C742 1.383 . S
C743 C744 1.388 . S
C744 H725 0.946 . S
C744 C743 1.388 . S
C744 C745 1.384 . S
C745 C744 1.384 . S
C745 C746 1.377 . S
C746 H726 0.953 . S
C746 C745 1.377 . S
C746 C747 1.369 . S
C747 H727 0.945 . S
C747 C742 1.385 . S
C747 C746 1.369 . S
C748 C740 1.457 . S
C748 C749 1.372 . S
C748 C753 1.364 . S
C749 H728 0.952 . S
C749 C748 1.372 . S
C749 C750 1.389 . S
C750 H729 0.949 . S
C750 C749 1.389 . S
C750 C751 1.387 . S
C751 C750 1.387 . S
C751 C752 1.372 . S
C752 H730 0.950 . S
C752 C751 1.372 . S
C752 C753 1.379 . S
C753 H731 0.948 . S
C753 C748 1.364 . S
C753 C752 1.379 . S
C754 C723 1.383 . S
C754 C741 1.479 . S
C754 C755 1.398 . S
C755 C720 1.382 . S
C755 H732 0.951 . S
C755 C754 1.398 . S
C756 C757 1.384 . S
C756 H769 0.947 . S
C756 C791 1.382 . S
C757 C756 1.384 . S
C757 C758 1.378 . S
C758 C757 1.378 . S
C758 C759 1.378 . S
C758 H770 0.952 . S
C759 C758 1.378 . S
C759 H771 0.950 . S
C759 C790 1.383 . S
H760 C779 0.947 . S
H761 C780 0.946 . S
H762 C782 0.953 . S
H763 C783 0.945 . S
H764 C785 0.952 . S
H765 C786 0.949 . S
H766 C788 0.950 . S
H767 C789 0.948 . S
H768 C791 0.951 . S
H769 C756 0.947 . S
H770 C758 0.952 . S
H771 C759 0.950 . S
N772 C775 1.382 . S
N772 C777 1.363 . S
N773 C775 1.371 . S
N773 C776 1.372 . S
N774 C776 1.361 . S
N774 C777 1.377 . S
C775 N772 1.382 . S
C775 N773 1.371 . S
C775 C778 1.480 . S
C776 N773 1.372 . S
C776 N774 1.361 . S
C776 C784 1.457 . S
C777 N772 1.363 . S
C777 N774 1.377 . S
C777 C790 1.479 . S
C778 C775 1.480 . S
C778 C779 1.383 . S
C778 C783 1.385 . S
C779 H760 0.947 . S
C779 C778 1.383 . S
C779 C780 1.388 . S
C780 H761 0.946 . S
C780 C779 1.388 . S
C780 C781 1.384 . S
C781 C780 1.384 . S
C781 C782 1.377 . S
C782 H762 0.953 . S
C782 C781 1.377 . S
C782 C783 1.369 . S
C783 H763 0.945 . S
C783 C778 1.385 . S
C783 C782 1.369 . S
C784 C776 1.457 . S
C784 C785 1.372 . S
C784 C789 1.364 . S
C785 H764 0.952 . S
C785 C784 1.372 . S
C785 C786 1.389 . S
C786 H765 0.949 . S
C786 C785 1.389 . S
C786 C787 1.387 . S
C787 C786 1.387 . S
C787 C788 1.372 . S
C788 H766 0.950 . S
C788 C787 1.372 . S
C788 C789 1.379 . S
C789 H767 0.948 . S
C789 C784 1.364 . S
C789 C788 1.379 . S
C790 C759 1.383 . S
C790 C777 1.479 . S
C790 C791 1.398 . S
C791 C756 1.382 . S
C791 H768 0.951 . S
C791 C790 1.398 . S
C792 C793 1.384 . S
C792 H805 0.947 . S
C792 C827 1.382 . S
C793 C792 1.384 . S
C793 C794 1.378 . S
C794 C793 1.378 . S
C794 C795 1.378 . S
C794 H806 0.952 . S
C795 C794 1.378 . S
C795 H807 0.950 . S
C795 C826 1.383 . S
H796 C815 0.947 . S
H797 C816 0.946 . S
H798 C818 0.953 . S
H799 C819 0.945 . S
H800 C821 0.952 . S
H801 C822 0.949 . S
H802 C824 0.950 . S
H803 C825 0.948 . S
H804 C827 0.951 . S
H805 C792 0.947 . S
H806 C794 0.952 . S
H807 C795 0.950 . S
N808 C811 1.382 . S
N808 C813 1.363 . S
N809 C811 1.371 . S
N809 C812 1.372 . S
N810 C812 1.361 . S
N810 C813 1.377 . S
C811 N808 1.382 . S
C811 N809 1.371 . S
C811 C814 1.480 . S
C812 N809 1.372 . S
C812 N810 1.361 . S
C812 C820 1.457 . S
C813 N808 1.363 . S
C813 N810 1.377 . S
C813 C826 1.479 . S
C814 C811 1.480 . S
C814 C815 1.383 . S
C814 C819 1.385 . S
C815 H796 0.947 . S
C815 C814 1.383 . S
C815 C816 1.388 . S
C816 H797 0.946 . S
C816 C815 1.388 . S
C816 C817 1.384 . S
C817 C816 1.384 . S
C817 C818 1.377 . S
C818 H798 0.953 . S
C818 C817 1.377 . S
C818 C819 1.369 . S
C819 H799 0.945 . S
C819 C814 1.385 . S
C819 C818 1.369 . S
C820 C812 1.457 . S
C820 C821 1.372 . S
C820 C825 1.364 . S
C821 H800 0.952 . S
C821 C820 1.372 . S
C821 C822 1.389 . S
C822 H801 0.949 . S
C822 C821 1.389 . S
C822 C823 1.387 . S
C823 C822 1.387 . S
C823 C824 1.372 . S
C824 H802 0.950 . S
C824 C823 1.372 . S
C824 C825 1.379 . S
C825 H803 0.948 . S
C825 C820 1.364 . S
C825 C824 1.379 . S
C826 C795 1.383 . S
C826 C813 1.479 . S
C826 C827 1.398 . S
C827 C792 1.382 . S
C827 H804 0.951 . S
C827 C826 1.398 . S
C828 C829 1.384 . S
C828 H841 0.947 . S
C828 C863 1.382 . S
C829 C828 1.384 . S
C829 C830 1.378 . S
C830 C829 1.378 . S
C830 C831 1.378 . S
C830 H842 0.952 . S
C831 C830 1.378 . S
C831 H843 0.950 . S
C831 C862 1.383 . S
H832 C851 0.947 . S
H833 C852 0.946 . S
H834 C854 0.953 . S
H835 C855 0.945 . S
H836 C857 0.952 . S
H837 C858 0.949 . S
H838 C860 0.950 . S
H839 C861 0.948 . S
H840 C863 0.951 . S
H841 C828 0.947 . S
H842 C830 0.952 . S
H843 C831 0.950 . S
N844 C847 1.382 . S
N844 C849 1.363 . S
N845 C847 1.371 . S
N845 C848 1.372 . S
N846 C848 1.361 . S
N846 C849 1.377 . S
C847 N844 1.382 . S
C847 N845 1.371 . S
C847 C850 1.480 . S
C848 N845 1.372 . S
C848 N846 1.361 . S
C848 C856 1.457 . S
C849 N844 1.363 . S
C849 N846 1.377 . S
C849 C862 1.479 . S
C850 C847 1.480 . S
C850 C851 1.383 . S
C850 C855 1.385 . S
C851 H832 0.947 . S
C851 C850 1.383 . S
C851 C852 1.388 . S
C852 H833 0.946 . S
C852 C851 1.388 . S
C852 C853 1.384 . S
C853 C852 1.384 . S
C853 C854 1.377 . S
C854 H834 0.953 . S
C854 C853 1.377 . S
C854 C855 1.369 . S
C855 H835 0.945 . S
C855 C850 1.385 . S
C855 C854 1.369 . S
C856 C848 1.457 . S
C856 C857 1.372 . S
C856 C861 1.364 . S
C857 H836 0.952 . S
C857 C856 1.372 . S
C857 C858 1.389 . S
C858 H837 0.949 . S
C858 C857 1.389 . S
C858 C859 1.387 . S
C859 C858 1.387 . S
C859 C860 1.372 . S
C860 H838 0.950 . S
C860 C859 1.372 . S
C860 C861 1.379 . S
C861 H839 0.948 . S
C861 C856 1.364 . S
C861 C860 1.379 . S
C862 C831 1.383 . S
C862 C849 1.479 . S
C862 C863 1.398 . S
C863 C828 1.382 . S
C863 H840 0.951 . S
C863 C862 1.398 . S
C864 O890 1.283 . S
C864 O908 1.283 . S
C865 O891 1.283 . S
C865 O906 1.283 . S
C866 O892 1.283 . S
C866 O909 1.283 . S
C867 O893 1.283 . S
C867 O907 1.283 . S
C868 O894 1.283 . S
C868 O903 1.283 . S
C869 O895 1.283 . S
C869 O905 1.283 . S
C870 O896 1.283 . S
C870 O902 1.283 . S
C871 O897 1.283 . S
C871 O904 1.283 . S
C872 O898 1.283 . S
C872 O913 1.283 . S
C873 O899 1.283 . S
C873 O911 1.283 . S
C874 O900 1.283 . S
C874 O912 1.283 . S
C875 O901 1.283 . S
C875 O910 1.283 . S
Eu876 O877 2.366 1_455 S
Eu876 O878 2.374 . S
Eu876 O881 2.366 1_455 S
Eu876 O882 2.374 . S
Eu876 O890 2.363 . S
Eu876 O891 2.363 . S
Eu876 O904 2.369 . S
Eu876 O905 2.356 1_455 S
O877 Eu876 2.366 1_655 S
O877 Eu879 2.368 1_565 S
O877 Eu884 2.364 1_665 S
O878 Eu876 2.374 . S
O878 Eu880 2.368 1_565 S
O878 Eu883 2.372 1_565 S
Eu879 O877 2.368 1_545 S
Eu879 O881 2.368 1_545 S
Eu879 O885 2.372 . S
Eu879 O886 2.372 . S
Eu879 O894 2.366 . S
Eu879 O895 2.360 1_545 S
Eu879 O910 2.363 . S
Eu879 O911 2.363 . S
Eu880 O878 2.368 1_545 S
Eu880 O882 2.368 1_545 S
Eu880 O887 2.372 . S
Eu880 O888 2.372 . S
Eu880 O896 2.366 . S
Eu880 O897 2.360 1_545 S
Eu880 O912 2.363 . S
Eu880 O913 2.363 . S
O881 Eu876 2.366 1_655 S
O881 Eu879 2.368 1_565 S
O881 Eu883 2.364 1_665 S
O882 Eu876 2.374 . S
O882 Eu880 2.368 1_565 S
O882 Eu884 2.372 1_565 S
Eu883 O878 2.372 1_545 S
Eu883 O881 2.364 1_445 S
Eu883 O885 2.368 1_455 S
Eu883 O888 2.376 . S
Eu883 O900 2.369 . S
Eu883 O901 2.357 1_455 S
Eu883 O908 2.360 1_545 S
Eu883 O909 2.366 . S
Eu884 O877 2.364 1_445 S
Eu884 O882 2.372 1_545 S
Eu884 O886 2.368 1_455 S
Eu884 O887 2.376 . S
Eu884 O898 2.369 . S
Eu884 O899 2.357 1_455 S
Eu884 O906 2.360 1_545 S
Eu884 O907 2.366 . S
O885 Eu879 2.372 . S
O885 Eu883 2.368 1_655 S
O885 Eu889 2.366 1_655 S
O886 Eu879 2.372 . S
O886 Eu884 2.368 1_655 S
O886 Eu889 2.366 1_655 S
O887 Eu880 2.372 . S
O887 Eu884 2.376 . S
O887 Eu889 2.374 . S
O888 Eu880 2.372 . S
O888 Eu883 2.376 . S
O888 Eu889 2.374 . S
Eu889 O885 2.366 1_455 S
Eu889 O886 2.366 1_455 S
Eu889 O887 2.374 . S
Eu889 O888 2.374 . S
Eu889 O892 2.363 . S
Eu889 O893 2.363 . S
Eu889 O902 2.369 . S
Eu889 O903 2.357 1_455 S
O890 C864 1.283 . S
O890 Eu876 2.363 . S
O891 C865 1.283 . S
O891 Eu876 2.363 . S
O892 C866 1.283 . S
O892 Eu889 2.363 . S
O893 C867 1.283 . S
O893 Eu889 2.363 . S
O894 C868 1.283 . S
O894 Eu879 2.366 . S
O895 C869 1.283 . S
O895 Eu879 2.360 1_565 S
O896 C870 1.283 . S
O896 Eu880 2.366 . S
O897 C871 1.283 . S
O897 Eu880 2.360 1_565 S
O898 C872 1.283 . S
O898 Eu884 2.369 . S
O899 C873 1.283 . S
O899 Eu884 2.357 1_655 S
O900 C874 1.283 . S
O900 Eu883 2.369 . S
O901 C875 1.283 . S
O901 Eu883 2.357 1_655 S
O902 C870 1.283 . S
O902 Eu889 2.369 . S
O903 C868 1.283 . S
O903 Eu889 2.357 1_655 S
O904 C871 1.283 . S
O904 Eu876 2.369 . S
O905 C869 1.283 . S
O905 Eu876 2.356 1_655 S
O906 C865 1.283 . S
O906 Eu884 2.360 1_565 S
O907 C867 1.283 . S
O907 Eu884 2.366 . S
O908 C864 1.283 . S
O908 Eu883 2.360 1_565 S
O909 C866 1.283 . S
O909 Eu883 2.366 . S
O910 C875 1.283 . S
O910 Eu879 2.363 . S
O911 C873 1.283 . S
O911 Eu879 2.363 . S
O912 C874 1.283 . S
O912 Eu880 2.363 . S
O913 C872 1.283 . S
O913 Eu880 2.363 . S
C914 O940 1.283 . S
C914 O958 1.283 . S
C915 O941 1.283 . S
C915 O956 1.283 . S
C916 O942 1.283 . S
C916 O959 1.283 . S
C917 O943 1.283 . S
C917 O957 1.283 . S
C918 O944 1.283 . S
C918 O953 1.283 . S
C919 O945 1.283 . S
C919 O955 1.283 . S
C920 O946 1.283 . S
C920 O952 1.283 . S
C921 O947 1.283 . S
C921 O954 1.283 . S
C922 O948 1.283 . S
C922 O963 1.283 . S
C923 O949 1.283 . S
C923 O961 1.283 . S
C924 O950 1.283 . S
C924 O962 1.283 . S
C925 O951 1.283 . S
C925 O960 1.283 . S
Eu926 O927 2.370 . S
Eu926 O928 2.370 1_545 S
Eu926 O931 2.370 1_545 S
Eu926 O932 2.370 . S
Eu926 O940 2.363 1_545 S
Eu926 O941 2.363 . S
Eu926 O954 2.363 . S
Eu926 O955 2.363 . S
O927 Eu926 2.370 . S
O927 Eu929 2.385 . S
O927 Eu934 2.385 . S
O928 Eu926 2.370 1_565 S
O928 Eu930 2.385 1_565 S
O928 Eu933 2.385 . S
Eu929 O927 2.385 . S
Eu929 O931 2.385 1_545 S
Eu929 O935 2.355 1_544 S
Eu929 O936 2.355 1_554 S
Eu929 O944 2.337 1_554 S
Eu929 O945 2.389 . S
Eu929 O960 2.363 1_545 S
Eu929 O961 2.363 . S
Eu930 O928 2.385 1_545 S
Eu930 O932 2.385 . S
Eu930 O937 2.355 1_554 S
Eu930 O938 2.355 1_544 S
Eu930 O946 2.337 1_554 S
Eu930 O947 2.389 . S
Eu930 O962 2.363 1_545 S
Eu930 O963 2.363 . S
O931 Eu926 2.370 1_565 S
O931 Eu929 2.385 1_565 S
O931 Eu933 2.385 . S
O932 Eu926 2.370 . S
O932 Eu930 2.385 . S
O932 Eu934 2.385 . S
Eu933 O928 2.385 . S
Eu933 O931 2.385 . S
Eu933 O935 2.355 1_554 S
Eu933 O938 2.355 1_554 S
Eu933 O950 2.363 . S
Eu933 O951 2.363 . S
Eu933 O958 2.389 . S
Eu933 O959 2.337 1_554 S
Eu934 O927 2.385 . S
Eu934 O932 2.385 . S
Eu934 O936 2.355 1_554 S
Eu934 O937 2.355 1_554 S
Eu934 O948 2.363 . S
Eu934 O949 2.363 . S
Eu934 O956 2.389 . S
Eu934 O957 2.337 1_554 S
O935 Eu929 2.355 1_566 S
O935 Eu933 2.355 1_556 S
O935 Eu939 2.370 1_565 S
O936 Eu929 2.355 1_556 S
O936 Eu934 2.355 1_556 S
O936 Eu939 2.370 . S
O937 Eu930 2.355 1_556 S
O937 Eu934 2.355 1_556 S
O937 Eu939 2.370 . S
O938 Eu930 2.355 1_566 S
O938 Eu933 2.355 1_556 S
O938 Eu939 2.370 1_565 S
Eu939 O935 2.370 1_545 S
Eu939 O936 2.370 . S
Eu939 O937 2.370 . S
Eu939 O938 2.370 1_545 S
Eu939 O942 2.363 1_545 S
Eu939 O943 2.363 . S
Eu939 O952 2.363 . S
Eu939 O953 2.363 . S
O940 C914 1.283 . S
O940 Eu926 2.363 1_565 S
O941 C915 1.283 . S
O941 Eu926 2.363 . S
O942 C916 1.283 . S
O942 Eu939 2.363 1_565 S
O943 C917 1.283 . S
O943 Eu939 2.363 . S
O944 C918 1.283 . S
O944 Eu929 2.337 1_556 S
O945 C919 1.283 . S
O945 Eu929 2.389 . S
O946 C920 1.283 . S
O946 Eu930 2.337 1_556 S
O947 C921 1.283 . S
O947 Eu930 2.389 . S
O948 C922 1.283 . S
O948 Eu934 2.363 . S
O949 C923 1.283 . S
O949 Eu934 2.363 . S
O950 C924 1.283 . S
O950 Eu933 2.363 . S
O951 C925 1.283 . S
O951 Eu933 2.363 . S
O952 C920 1.283 . S
O952 Eu939 2.363 . S
O953 C918 1.283 . S
O953 Eu939 2.363 . S
O954 C921 1.283 . S
O954 Eu926 2.363 . S
O955 C919 1.283 . S
O955 Eu926 2.363 . S
O956 C915 1.283 . S
O956 Eu934 2.389 . S
O957 C917 1.283 . S
O957 Eu934 2.337 1_556 S
O958 C914 1.283 . S
O958 Eu933 2.389 . S
O959 C916 1.283 . S
O959 Eu933 2.337 1_556 S
O960 C925 1.283 . S
O960 Eu929 2.363 1_565 S
O961 C923 1.283 . S
O961 Eu929 2.363 . S
O962 C924 1.283 . S
O962 Eu930 2.363 1_565 S
O963 C922 1.283 . S
O963 Eu930 2.363 . S
C964 O990 1.283 . S
C964 O1008 1.283 . S
C965 O991 1.283 . S
C965 O1006 1.283 . S
C966 O992 1.283 . S
C966 O1009 1.283 . S
C967 O993 1.283 . S
C967 O1007 1.283 . S
C968 O994 1.283 . S
C968 O1003 1.283 . S
C969 O995 1.283 . S
C969 O1005 1.283 . S
C970 O996 1.283 . S
C970 O1002 1.283 . S
C971 O997 1.283 . S
C971 O1004 1.283 . S
C972 O998 1.283 . S
C972 O1013 1.283 . S
C973 O999 1.283 . S
C973 O1011 1.283 . S
C974 O1000 1.283 . S
C974 O1012 1.283 . S
C975 O1001 1.283 . S
C975 O1010 1.283 . S
Eu976 O977 2.354 1_454 S
Eu976 O978 2.387 . S
Eu976 O981 2.375 1_455 S
Eu976 O982 2.366 1_554 S
Eu976 O990 2.381 . S
Eu976 O991 2.345 1_554 S
Eu976 O1004 2.373 . S
Eu976 O1005 2.353 1_455 S
O977 Eu976 2.354 1_656 S
O977 Eu979 2.360 1_556 S
O977 Eu984 2.364 1_655 S
O978 Eu976 2.387 . S
O978 Eu980 2.381 . S
O978 Eu983 2.376 . S
Eu979 O977 2.360 1_554 S
Eu979 O981 2.381 . S
Eu979 O985 2.381 . S
Eu979 O986 2.360 1_554 S
Eu979 O994 2.363 . S
Eu979 O995 2.363 . S
Eu979 O1010 2.381 . S
Eu979 O1011 2.345 1_554 S
Eu980 O978 2.381 . S
Eu980 O982 2.360 1_554 S
Eu980 O987 2.360 1_554 S
Eu980 O988 2.381 . S
Eu980 O996 2.363 . S
Eu980 O997 2.363 . S
Eu980 O1012 2.381 . S
Eu980 O1013 2.345 1_554 S
O981 Eu976 2.375 1_655 S
O981 Eu979 2.381 . S
O981 Eu983 2.364 1_655 S
O982 Eu976 2.366 1_556 S
O982 Eu980 2.360 1_556 S
O982 Eu984 2.376 . S
Eu983 O978 2.376 . S
Eu983 O981 2.364 1_455 S
Eu983 O985 2.364 1_455 S
Eu983 O988 2.376 . S
Eu983 O1000 2.373 . S
Eu983 O1001 2.353 1_455 S
Eu983 O1008 2.363 . S
Eu983 O1009 2.363 . S
Eu984 O977 2.364 1_455 S
Eu984 O982 2.376 . S
Eu984 O986 2.364 1_455 S
Eu984 O987 2.376 . S
Eu984 O998 2.373 . S
Eu984 O999 2.353 1_455 S
Eu984 O1006 2.363 . S
Eu984 O1007 2.363 . S
O985 Eu979 2.381 . S
O985 Eu983 2.364 1_655 S
O985 Eu989 2.375 1_655 S
O986 Eu979 2.360 1_556 S
O986 Eu984 2.364 1_655 S
O986 Eu989 2.353 1_656 S
O987 Eu980 2.360 1_556 S
O987 Eu984 2.376 . S
O987 Eu989 2.366 1_556 S
O988 Eu980 2.381 . S
O988 Eu983 2.376 . S
O988 Eu989 2.387 . S
Eu989 O985 2.375 1_455 S
Eu989 O986 2.353 1_454 S
Eu989 O987 2.366 1_554 S
Eu989 O988 2.387 . S
Eu989 O992 2.381 . S
Eu989 O993 2.345 1_554 S
Eu989 O1002 2.373 . S
Eu989 O1003 2.353 1_455 S
O990 C964 1.283 . S
O990 Eu976 2.381 . S
O991 C965 1.283 . S
O991 Eu976 2.345 1_556 S
O992 C966 1.283 . S
O992 Eu989 2.381 . S
O993 C967 1.283 . S
O993 Eu989 2.345 1_556 S
O994 C968 1.283 . S
O994 Eu979 2.363 . S
O995 C969 1.283 . S
O995 Eu979 2.363 . S
O996 C970 1.283 . S
O996 Eu980 2.363 . S
O997 C971 1.283 . S
O997 Eu980 2.363 . S
O998 C972 1.283 . S
O998 Eu984 2.373 . S
O999 C973 1.283 . S
O999 Eu984 2.353 1_655 S
O1000 C974 1.283 . S
O1000 Eu983 2.373 . S
O1001 C975 1.283 . S
O1001 Eu983 2.353 1_655 S
O1002 C970 1.283 . S
O1002 Eu989 2.373 . S
O1003 C968 1.283 . S
O1003 Eu989 2.353 1_655 S
O1004 C971 1.283 . S
O1004 Eu976 2.373 . S
O1005 C969 1.283 . S
O1005 Eu976 2.353 1_655 S
O1006 C965 1.283 . S
O1006 Eu984 2.363 . S
O1007 C967 1.283 . S
O1007 Eu984 2.363 . S
O1008 C964 1.283 . S
O1008 Eu983 2.363 . S
O1009 C966 1.283 . S
O1009 Eu983 2.363 . S
O1010 C975 1.283 . S
O1010 Eu979 2.381 . S
O1011 C973 1.283 . S
O1011 Eu979 2.345 1_556 S
O1012 C974 1.283 . S
O1012 Eu980 2.381 . S
O1013 C972 1.283 . S
O1013 Eu980 2.345 1_556 S
C1014 O1040 1.283 . S
C1014 O1058 1.283 . S
C1015 O1041 1.283 . S
C1015 O1056 1.283 . S
C1016 O1042 1.283 . S
C1016 O1059 1.283 . S
C1017 O1043 1.283 . S
C1017 O1057 1.283 . S
C1018 O1044 1.283 . S
C1018 O1053 1.283 . S
C1019 O1045 1.283 . S
C1019 O1055 1.283 . S
C1020 O1046 1.283 . S
C1020 O1052 1.283 . S
C1021 O1047 1.283 . S
C1021 O1054 1.283 . S
C1022 O1048 1.283 . S
C1022 O1063 1.283 . S
C1023 O1049 1.283 . S
C1023 O1061 1.283 . S
C1024 O1050 1.283 . S
C1024 O1062 1.283 . S
C1025 O1051 1.283 . S
C1025 O1060 1.283 . S
Eu1026 O1027 2.370 . S
Eu1026 O1028 2.370 . S
Eu1026 O1031 2.370 . S
Eu1026 O1032 2.370 . S
Eu1026 O1040 2.363 . S
Eu1026 O1041 2.363 . S
Eu1026 O1054 2.363 . S
Eu1026 O1055 2.363 . S
O1027 Eu1026 2.370 . S
O1027 Eu1029 2.383 . S
O1027 Eu1034 2.383 . S
O1028 Eu1026 2.370 . S
O1028 Eu1030 2.383 . S
O1028 Eu1033 2.383 . S
Eu1029 O1027 2.383 . S
Eu1029 O1031 2.383 . S
Eu1029 O1035 2.357 1_554 S
Eu1029 O1036 2.357 1_554 S
Eu1029 O1044 2.341 1_554 S
Eu1029 O1045 2.385 . S
Eu1029 O1060 2.363 . S
Eu1029 O1061 2.363 . S
Eu1030 O1028 2.383 . S
Eu1030 O1032 2.383 . S
Eu1030 O1037 2.357 1_554 S
Eu1030 O1038 2.357 1_554 S
Eu1030 O1046 2.341 1_554 S
Eu1030 O1047 2.385 . S
Eu1030 O1062 2.363 . S
Eu1030 O1063 2.363 . S
O1031 Eu1026 2.370 . S
O1031 Eu1029 2.383 . S
O1031 Eu1033 2.383 . S
O1032 Eu1026 2.370 . S
O1032 Eu1030 2.383 . S
O1032 Eu1034 2.383 . S
Eu1033 O1028 2.383 . S
Eu1033 O1031 2.383 . S
Eu1033 O1035 2.357 1_554 S
Eu1033 O1038 2.357 1_554 S
Eu1033 O1050 2.363 . S
Eu1033 O1051 2.363 . S
Eu1033 O1058 2.385 . S
Eu1033 O1059 2.341 1_554 S
Eu1034 O1027 2.383 . S
Eu1034 O1032 2.383 . S
Eu1034 O1036 2.357 1_554 S
Eu1034 O1037 2.357 1_554 S
Eu1034 O1048 2.363 . S
Eu1034 O1049 2.363 . S
Eu1034 O1056 2.385 . S
Eu1034 O1057 2.341 1_554 S
O1035 Eu1029 2.357 1_556 S
O1035 Eu1033 2.357 1_556 S
O1035 Eu1039 2.370 . S
O1036 Eu1029 2.357 1_556 S
O1036 Eu1034 2.357 1_556 S
O1036 Eu1039 2.370 . S
O1037 Eu1030 2.357 1_556 S
O1037 Eu1034 2.357 1_556 S
O1037 Eu1039 2.370 . S
O1038 Eu1030 2.357 1_556 S
O1038 Eu1033 2.357 1_556 S
O1038 Eu1039 2.370 . S
Eu1039 O1035 2.370 . S
Eu1039 O1036 2.370 . S
Eu1039 O1037 2.370 . S
Eu1039 O1038 2.370 . S
Eu1039 O1042 2.363 . S
Eu1039 O1043 2.363 . S
Eu1039 O1052 2.363 . S
Eu1039 O1053 2.363 . S
O1040 C1014 1.283 . S
O1040 Eu1026 2.363 . S
O1041 C1015 1.283 . S
O1041 Eu1026 2.363 . S
O1042 C1016 1.283 . S
O1042 Eu1039 2.363 . S
O1043 C1017 1.283 . S
O1043 Eu1039 2.363 . S
O1044 C1018 1.283 . S
O1044 Eu1029 2.341 1_556 S
O1045 C1019 1.283 . S
O1045 Eu1029 2.385 . S
O1046 C1020 1.283 . S
O1046 Eu1030 2.341 1_556 S
O1047 C1021 1.283 . S
O1047 Eu1030 2.385 . S
O1048 C1022 1.283 . S
O1048 Eu1034 2.363 . S
O1049 C1023 1.283 . S
O1049 Eu1034 2.363 . S
O1050 C1024 1.283 . S
O1050 Eu1033 2.363 . S
O1051 C1025 1.283 . S
O1051 Eu1033 2.363 . S
O1052 C1020 1.283 . S
O1052 Eu1039 2.363 . S
O1053 C1018 1.283 . S
O1053 Eu1039 2.363 . S
O1054 C1021 1.283 . S
O1054 Eu1026 2.363 . S
O1055 C1019 1.283 . S
O1055 Eu1026 2.363 . S
O1056 C1015 1.283 . S
O1056 Eu1034 2.385 . S
O1057 C1017 1.283 . S
O1057 Eu1034 2.341 1_556 S
O1058 C1014 1.283 . S
O1058 Eu1033 2.385 . S
O1059 C1016 1.283 . S
O1059 Eu1033 2.341 1_556 S
O1060 C1025 1.283 . S
O1060 Eu1029 2.363 . S
O1061 C1023 1.283 . S
O1061 Eu1029 2.363 . S
O1062 C1024 1.283 . S
O1062 Eu1030 2.363 . S
O1063 C1022 1.283 . S
O1063 Eu1030 2.363 . S
C1064 O1090 1.283 . S
C1064 O1108 1.283 . S
C1065 O1091 1.283 . S
C1065 O1106 1.283 . S
C1066 O1092 1.283 . S
C1066 O1109 1.283 . S
C1067 O1093 1.283 . S
C1067 O1107 1.283 . S
C1068 O1094 1.283 . S
C1068 O1103 1.283 . S
C1069 O1095 1.283 . S
C1069 O1105 1.283 . S
C1070 O1096 1.283 . S
C1070 O1102 1.283 . S
C1071 O1097 1.283 . S
C1071 O1104 1.283 . S
C1072 O1098 1.283 . S
C1072 O1113 1.283 . S
C1073 O1099 1.283 . S
C1073 O1111 1.283 . S
C1074 O1100 1.283 . S
C1074 O1112 1.283 . S
C1075 O1101 1.283 . S
C1075 O1110 1.283 . S
Eu1076 O1077 2.365 1_455 S
Eu1076 O1078 2.375 . S
Eu1076 O1081 2.365 1_455 S
Eu1076 O1082 2.375 . S
Eu1076 O1090 2.363 . S
Eu1076 O1091 2.363 . S
Eu1076 O1104 2.371 . S
Eu1076 O1105 2.355 1_455 S
O1077 Eu1076 2.365 1_655 S
O1077 Eu1079 2.370 . S
O1077 Eu1084 2.365 1_655 S
O1078 Eu1076 2.375 . S
O1078 Eu1080 2.370 . S
O1078 Eu1083 2.375 . S
Eu1079 O1077 2.370 . S
Eu1079 O1081 2.370 . S
Eu1079 O1085 2.370 . S
Eu1079 O1086 2.370 . S
Eu1079 O1094 2.363 . S
Eu1079 O1095 2.363 . S
Eu1079 O1110 2.363 . S
Eu1079 O1111 2.363 . S
Eu1080 O1078 2.370 . S
Eu1080 O1082 2.370 . S
Eu1080 O1087 2.370 . S
Eu1080 O1088 2.370 . S
Eu1080 O1096 2.363 . S
Eu1080 O1097 2.363 . S
Eu1080 O1112 2.363 . S
Eu1080 O1113 2.363 . S
O1081 Eu1076 2.365 1_655 S
O1081 Eu1079 2.370 . S
O1081 Eu1083 2.365 1_655 S
O1082 Eu1076 2.375 . S
O1082 Eu1080 2.370 . S
O1082 Eu1084 2.375 . S
Eu1083 O1078 2.375 . S
Eu1083 O1081 2.365 1_455 S
Eu1083 O1085 2.365 1_455 S
Eu1083 O1088 2.375 . S
Eu1083 O1100 2.371 . S
Eu1083 O1101 2.354 1_455 S
Eu1083 O1108 2.363 . S
Eu1083 O1109 2.363 . S
Eu1084 O1077 2.365 1_455 S
Eu1084 O1082 2.375 . S
Eu1084 O1086 2.365 1_455 S
Eu1084 O1087 2.375 . S
Eu1084 O1098 2.371 . S
Eu1084 O1099 2.354 1_455 S
Eu1084 O1106 2.363 . S
Eu1084 O1107 2.363 . S
O1085 Eu1079 2.370 . S
O1085 Eu1083 2.365 1_655 S
O1085 Eu1089 2.365 1_655 S
O1086 Eu1079 2.370 . S
O1086 Eu1084 2.365 1_655 S
O1086 Eu1089 2.365 1_655 S
O1087 Eu1080 2.370 . S
O1087 Eu1084 2.375 . S
O1087 Eu1089 2.375 . S
O1088 Eu1080 2.370 . S
O1088 Eu1083 2.375 . S
O1088 Eu1089 2.375 . S
Eu1089 O1085 2.365 1_455 S
Eu1089 O1086 2.365 1_455 S
Eu1089 O1087 2.375 . S
Eu1089 O1088 2.375 . S
Eu1089 O1092 2.363 . S
Eu1089 O1093 2.363 . S
Eu1089 O1102 2.371 . S
Eu1089 O1103 2.354 1_455 S
O1090 C1064 1.283 . S
O1090 Eu1076 2.363 . S
O1091 C1065 1.283 . S
O1091 Eu1076 2.363 . S
O1092 C1066 1.283 . S
O1092 Eu1089 2.363 . S
O1093 C1067 1.283 . S
O1093 Eu1089 2.363 . S
O1094 C1068 1.283 . S
O1094 Eu1079 2.363 . S
O1095 C1069 1.283 . S
O1095 Eu1079 2.363 . S
O1096 C1070 1.283 . S
O1096 Eu1080 2.363 . S
O1097 C1071 1.283 . S
O1097 Eu1080 2.363 . S
O1098 C1072 1.283 . S
O1098 Eu1084 2.371 . S
O1099 C1073 1.283 . S
O1099 Eu1084 2.354 1_655 S
O1100 C1074 1.283 . S
O1100 Eu1083 2.371 . S
O1101 C1075 1.283 . S
O1101 Eu1083 2.354 1_655 S
O1102 C1070 1.283 . S
O1102 Eu1089 2.371 . S
O1103 C1068 1.283 . S
O1103 Eu1089 2.354 1_655 S
O1104 C1071 1.283 . S
O1104 Eu1076 2.371 . S
O1105 C1069 1.283 . S
O1105 Eu1076 2.355 1_655 S
O1106 C1065 1.283 . S
O1106 Eu1084 2.363 . S
O1107 C1067 1.283 . S
O1107 Eu1084 2.363 . S
O1108 C1064 1.283 . S
O1108 Eu1083 2.363 . S
O1109 C1066 1.283 . S
O1109 Eu1083 2.363 . S
O1110 C1075 1.283 . S
O1110 Eu1079 2.363 . S
O1111 C1073 1.283 . S
O1111 Eu1079 2.363 . S
O1112 C1074 1.283 . S
O1112 Eu1080 2.363 . S
O1113 C1072 1.283 . S
O1113 Eu1080 2.363 . S
C1114 O1140 1.283 . S
C1114 O1158 1.283 . S
C1115 O1141 1.283 . S
C1115 O1156 1.283 . S
C1116 O1142 1.283 . S
C1116 O1159 1.283 . S
C1117 O1143 1.283 . S
C1117 O1157 1.283 . S
C1118 O1144 1.283 . S
C1118 O1153 1.283 . S
C1119 O1145 1.283 . S
C1119 O1155 1.283 . S
C1120 O1146 1.283 . S
C1120 O1152 1.283 . S
C1121 O1147 1.283 . S
C1121 O1154 1.283 . S
C1122 O1148 1.283 . S
C1122 O1163 1.283 . S
C1123 O1149 1.283 . S
C1123 O1161 1.283 . S
C1124 O1150 1.283 . S
C1124 O1162 1.283 . S
C1125 O1151 1.283 . S
C1125 O1160 1.283 . S
Eu1126 O1127 2.370 . S
Eu1126 O1128 2.370 . S
Eu1126 O1131 2.370 . S
Eu1126 O1132 2.370 . S
Eu1126 O1140 2.363 . S
Eu1126 O1141 2.363 . S
Eu1126 O1154 2.363 . S
Eu1126 O1155 2.363 . S
O1127 Eu1126 2.370 . S
O1127 Eu1129 2.369 1_565 S
O1127 Eu1134 2.369 1_565 S
O1128 Eu1126 2.370 . S
O1128 Eu1130 2.370 1_565 S
O1128 Eu1133 2.369 1_565 S
Eu1129 O1127 2.369 1_545 S
Eu1129 O1131 2.369 1_545 S
Eu1129 O1135 2.371 . S
Eu1129 O1136 2.371 . S
Eu1129 O1144 2.364 . S
Eu1129 O1145 2.362 1_545 S
Eu1129 O1160 2.363 . S
Eu1129 O1161 2.363 . S
Eu1130 O1128 2.370 1_545 S
Eu1130 O1132 2.370 1_545 S
Eu1130 O1137 2.371 . S
Eu1130 O1138 2.371 . S
Eu1130 O1146 2.364 . S
Eu1130 O1147 2.362 1_545 S
Eu1130 O1162 2.363 . S
Eu1130 O1163 2.363 . S
O1131 Eu1126 2.370 . S
O1131 Eu1129 2.369 1_565 S
O1131 Eu1133 2.369 1_565 S
O1132 Eu1126 2.370 . S
O1132 Eu1130 2.370 1_565 S
O1132 Eu1134 2.369 1_565 S
Eu1133 O1128 2.369 1_545 S
Eu1133 O1131 2.369 1_545 S
Eu1133 O1135 2.371 . S
Eu1133 O1138 2.371 . S
Eu1133 O1150 2.363 . S
Eu1133 O1151 2.363 . S
Eu1133 O1158 2.362 1_545 S
Eu1133 O1159 2.364 . S
Eu1134 O1127 2.369 1_545 S
Eu1134 O1132 2.369 1_545 S
Eu1134 O1136 2.371 . S
Eu1134 O1137 2.371 . S
Eu1134 O1148 2.363 . S
Eu1134 O1149 2.363 . S
Eu1134 O1156 2.362 1_545 S
Eu1134 O1157 2.364 . S
O1135 Eu1129 2.371 . S
O1135 Eu1133 2.371 . S
O1135 Eu1139 2.370 . S
O1136 Eu1129 2.371 . S
O1136 Eu1134 2.371 . S
O1136 Eu1139 2.370 . S
O1137 Eu1130 2.371 . S
O1137 Eu1134 2.371 . S
O1137 Eu1139 2.370 . S
O1138 Eu1130 2.371 . S
O1138 Eu1133 2.371 . S
O1138 Eu1139 2.370 . S
Eu1139 O1135 2.370 . S
Eu1139 O1136 2.370 . S
Eu1139 O1137 2.370 . S
Eu1139 O1138 2.370 . S
Eu1139 O1142 2.363 . S
Eu1139 O1143 2.363 . S
Eu1139 O1152 2.363 . S
Eu1139 O1153 2.363 . S
O1140 C1114 1.283 . S
O1140 Eu1126 2.363 . S
O1141 C1115 1.283 . S
O1141 Eu1126 2.363 . S
O1142 C1116 1.283 . S
O1142 Eu1139 2.363 . S
O1143 C1117 1.283 . S
O1143 Eu1139 2.363 . S
O1144 C1118 1.283 . S
O1144 Eu1129 2.364 . S
O1145 C1119 1.283 . S
O1145 Eu1129 2.362 1_565 S
O1146 C1120 1.283 . S
O1146 Eu1130 2.364 . S
O1147 C1121 1.283 . S
O1147 Eu1130 2.362 1_565 S
O1148 C1122 1.283 . S
O1148 Eu1134 2.363 . S
O1149 C1123 1.283 . S
O1149 Eu1134 2.363 . S
O1150 C1124 1.283 . S
O1150 Eu1133 2.363 . S
O1151 C1125 1.283 . S
O1151 Eu1133 2.363 . S
O1152 C1120 1.283 . S
O1152 Eu1139 2.363 . S
O1153 C1118 1.283 . S
O1153 Eu1139 2.363 . S
O1154 C1121 1.283 . S
O1154 Eu1126 2.363 . S
O1155 C1119 1.283 . S
O1155 Eu1126 2.363 . S
O1156 C1115 1.283 . S
O1156 Eu1134 2.362 1_565 S
O1157 C1117 1.283 . S
O1157 Eu1134 2.364 . S
O1158 C1114 1.283 . S
O1158 Eu1133 2.362 1_565 S
O1159 C1116 1.283 . S
O1159 Eu1133 2.364 . S
O1160 C1125 1.283 . S
O1160 Eu1129 2.363 . S
O1161 C1123 1.283 . S
O1161 Eu1129 2.363 . S
O1162 C1124 1.283 . S
O1162 Eu1130 2.363 . S
O1163 C1122 1.283 . S
O1163 Eu1130 2.363 . S
H1164 C1170 0.930 . S
H1165 C1174 0.930 . S
H1166 C1179 0.929 . S
H1167 C1177 0.929 . S
H1168 C1172 0.929 . S
H1169 C1178 0.929 . S
C1170 H1164 0.930 . S
C1170 C1171 1.367 . S
C1170 C1178 1.378 . S
C1171 C1170 1.367 . S
C1171 C1179 1.433 . S
C1172 H1168 0.929 . S
C1172 C1174 1.378 . S
C1172 C1176 1.350 . S
C1173 C1176 1.463 . S
C1173 C1178 1.350 . S
C1173 N1181 1.427 . S
C1174 H1165 0.930 . S
C1174 C1172 1.378 . S
C1174 C1175 1.367 . S
C1175 C1174 1.367 . S
C1175 C1177 1.433 . S
C1176 C1172 1.350 . S
C1176 C1173 1.463 . S
C1176 N1180 1.427 . S
C1177 H1167 0.929 . S
C1177 C1175 1.433 . S
C1177 N1180 1.384 . S
C1178 H1169 0.929 . S
C1178 C1170 1.378 . S
C1178 C1173 1.350 . S
C1179 H1166 0.929 . S
C1179 C1171 1.433 . S
C1179 N1181 1.384 . S
N1180 C1176 1.427 . S
N1180 C1177 1.384 . S
N1181 C1173 1.427 . S
N1181 C1179 1.384 . S
H1182 C1188 0.930 . S
H1183 C1192 0.930 . S
H1184 C1197 0.929 . S
H1185 C1195 0.929 . S
H1186 C1190 0.929 . S
H1187 C1196 0.929 . S
C1188 H1182 0.930 . S
C1188 C1189 1.367 . S
C1188 C1196 1.378 . S
C1189 C1188 1.367 . S
C1189 C1197 1.433 . S
C1190 H1186 0.929 . S
C1190 C1192 1.378 . S
C1190 C1194 1.350 . S
C1191 C1194 1.463 . S
C1191 C1196 1.350 . S
C1191 N1199 1.427 . S
C1192 H1183 0.930 . S
C1192 C1190 1.378 . S
C1192 C1193 1.367 . S
C1193 C1192 1.367 . S
C1193 C1195 1.433 . S
C1194 C1190 1.350 . S
C1194 C1191 1.463 . S
C1194 N1198 1.427 . S
C1195 H1185 0.929 . S
C1195 C1193 1.433 . S
C1195 N1198 1.384 . S
C1196 H1187 0.929 . S
C1196 C1188 1.378 . S
C1196 C1191 1.350 . S
C1197 H1184 0.929 . S
C1197 C1189 1.433 . S
C1197 N1199 1.384 . S
N1198 C1194 1.427 . S
N1198 C1195 1.384 . S
N1199 C1191 1.427 . S
N1199 C1197 1.384 . S
H1200 C1206 0.930 . S
H1201 C1210 0.930 . S
H1202 C1215 0.929 . S
H1203 C1213 0.929 . S
H1204 C1208 0.929 . S
H1205 C1214 0.929 . S
C1206 H1200 0.930 . S
C1206 C1207 1.367 . S
C1206 C1214 1.378 . S
C1207 C1206 1.367 . S
C1207 C1215 1.433 . S
C1208 H1204 0.929 . S
C1208 C1210 1.378 . S
C1208 C1212 1.350 . S
C1209 C1212 1.463 . S
C1209 C1214 1.350 . S
C1209 N1217 1.427 . S
C1210 H1201 0.930 . S
C1210 C1208 1.378 . S
C1210 C1211 1.367 . S
C1211 C1210 1.367 . S
C1211 C1213 1.433 . S
C1212 C1208 1.350 . S
C1212 C1209 1.463 . S
C1212 N1216 1.427 . S
C1213 H1203 0.929 . S
C1213 C1211 1.433 . S
C1213 N1216 1.384 . S
C1214 H1205 0.929 . S
C1214 C1206 1.378 . S
C1214 C1209 1.350 . S
C1215 H1202 0.929 . S
C1215 C1207 1.433 . S
C1215 N1217 1.384 . S
N1216 C1212 1.427 . S
N1216 C1213 1.384 . S
N1217 C1209 1.427 . S
N1217 C1215 1.384 . S
H1218 C1224 0.930 . S
H1219 C1228 0.930 . S
H1220 C1233 0.929 . S
H1221 C1231 0.929 . S
H1222 C1226 0.929 . S
H1223 C1232 0.929 . S
C1224 H1218 0.930 . S
C1224 C1225 1.367 . S
C1224 C1232 1.378 . S
C1225 C1224 1.367 . S
C1225 C1233 1.433 . S
C1226 H1222 0.929 . S
C1226 C1228 1.378 . S
C1226 C1230 1.350 . S
C1227 C1230 1.463 . S
C1227 C1232 1.350 . S
C1227 N1235 1.427 . S
C1228 H1219 0.930 . S
C1228 C1226 1.378 . S
C1228 C1229 1.367 . S
C1229 C1228 1.367 . S
C1229 C1231 1.433 . S
C1230 C1226 1.350 . S
C1230 C1227 1.463 . S
C1230 N1234 1.427 . S
C1231 H1221 0.929 . S
C1231 C1229 1.433 . S
C1231 N1234 1.384 . S
C1232 H1223 0.929 . S
C1232 C1224 1.378 . S
C1232 C1227 1.350 . S
C1233 H1220 0.929 . S
C1233 C1225 1.433 . S
C1233 N1235 1.384 . S
N1234 C1230 1.427 . S
N1234 C1231 1.384 . S
N1235 C1227 1.427 . S
N1235 C1233 1.384 . S
H1236 C1242 0.930 . S
H1237 C1246 0.930 . S
H1238 C1251 0.929 . S
H1239 C1249 0.929 . S
H1240 C1244 0.929 . S
H1241 C1250 0.929 . S
C1242 H1236 0.930 . S
C1242 C1243 1.367 . S
C1242 C1250 1.378 . S
C1243 C1242 1.367 . S
C1243 C1251 1.433 . S
C1244 H1240 0.929 . S
C1244 C1246 1.378 . S
C1244 C1248 1.350 . S
C1245 C1248 1.463 . S
C1245 C1250 1.350 . S
C1245 N1253 1.427 . S
C1246 H1237 0.930 . S
C1246 C1244 1.378 . S
C1246 C1247 1.367 . S
C1247 C1246 1.367 . S
C1247 C1249 1.433 . S
C1248 C1244 1.350 . S
C1248 C1245 1.463 . S
C1248 N1252 1.427 . S
C1249 H1239 0.929 . S
C1249 C1247 1.433 . S
C1249 N1252 1.384 . S
C1250 H1241 0.929 . S
C1250 C1242 1.378 . S
C1250 C1245 1.350 . S
C1251 H1238 0.929 . S
C1251 C1243 1.433 . S
C1251 N1253 1.384 . S
N1252 C1248 1.427 . S
N1252 C1249 1.384 . S
N1253 C1245 1.427 . S
N1253 C1251 1.384 . S
H1254 C1260 0.930 . S
H1255 C1264 0.930 . S
H1256 C1269 0.929 . S
H1257 C1267 0.929 . S
H1258 C1262 0.929 . S
H1259 C1268 0.929 . S
C1260 H1254 0.930 . S
C1260 C1261 1.367 . S
C1260 C1268 1.378 . S
C1261 C1260 1.367 . S
C1261 C1269 1.433 . S
C1262 H1258 0.929 . S
C1262 C1264 1.378 . S
C1262 C1266 1.350 . S
C1263 C1266 1.463 . S
C1263 C1268 1.350 . S
C1263 N1271 1.427 . S
C1264 H1255 0.930 . S
C1264 C1262 1.378 . S
C1264 C1265 1.367 . S
C1265 C1264 1.367 . S
C1265 C1267 1.433 . S
C1266 C1262 1.350 . S
C1266 C1263 1.463 . S
C1266 N1270 1.427 . S
C1267 H1257 0.929 . S
C1267 C1265 1.433 . S
C1267 N1270 1.384 . S
C1268 H1259 0.929 . S
C1268 C1260 1.378 . S
C1268 C1263 1.350 . S
C1269 H1256 0.929 . S
C1269 C1261 1.433 . S
C1269 N1271 1.384 . S
N1270 C1266 1.427 . S
N1270 C1267 1.384 . S
N1271 C1263 1.427 . S
N1271 C1269 1.384 . S
H1272 C1278 0.930 . S
H1273 C1282 0.930 . S
H1274 C1287 0.929 . S
H1275 C1285 0.929 . S
H1276 C1280 0.929 . S
H1277 C1286 0.929 . S
C1278 H1272 0.930 . S
C1278 C1279 1.367 . S
C1278 C1286 1.378 . S
C1279 C1278 1.367 . S
C1279 C1287 1.433 . S
C1280 H1276 0.929 . S
C1280 C1282 1.378 . S
C1280 C1284 1.350 . S
C1281 C1284 1.463 . S
C1281 C1286 1.350 . S
C1281 N1289 1.427 . S
C1282 H1273 0.930 . S
C1282 C1280 1.378 . S
C1282 C1283 1.367 . S
C1283 C1282 1.367 . S
C1283 C1285 1.433 . S
C1284 C1280 1.350 . S
C1284 C1281 1.463 . S
C1284 N1288 1.427 . S
C1285 H1275 0.929 . S
C1285 C1283 1.433 . S
C1285 N1288 1.384 . S
C1286 H1277 0.929 . S
C1286 C1278 1.378 . S
C1286 C1281 1.350 . S
C1287 H1274 0.929 . S
C1287 C1279 1.433 . S
C1287 N1289 1.384 . S
N1288 C1284 1.427 . S
N1288 C1285 1.384 . S
N1289 C1281 1.427 . S
N1289 C1287 1.384 . S
H1290 C1296 0.930 . S
H1291 C1300 0.930 . S
H1292 C1305 0.929 . S
H1293 C1303 0.929 . S
H1294 C1298 0.929 . S
H1295 C1304 0.929 . S
C1296 H1290 0.930 . S
C1296 C1297 1.367 . S
C1296 C1304 1.378 . S
C1297 C1296 1.367 . S
C1297 C1305 1.433 . S
C1298 H1294 0.929 . S
C1298 C1300 1.378 . S
C1298 C1302 1.350 . S
C1299 C1302 1.463 . S
C1299 C1304 1.350 . S
C1299 N1307 1.427 . S
C1300 H1291 0.930 . S
C1300 C1298 1.378 . S
C1300 C1301 1.367 . S
C1301 C1300 1.367 . S
C1301 C1303 1.433 . S
C1302 C1298 1.350 . S
C1302 C1299 1.463 . S
C1302 N1306 1.427 . S
C1303 H1293 0.929 . S
C1303 C1301 1.433 . S
C1303 N1306 1.384 . S
C1304 H1295 0.929 . S
C1304 C1296 1.378 . S
C1304 C1299 1.350 . S
C1305 H1292 0.929 . S
C1305 C1297 1.433 . S
C1305 N1307 1.384 . S
N1306 C1302 1.427 . S
N1306 C1303 1.384 . S
N1307 C1299 1.427 . S
N1307 C1305 1.384 . S
H1308 C1314 0.930 . S
H1309 C1318 0.930 . S
H1310 C1323 0.929 . S
H1311 C1321 0.929 . S
H1312 C1316 0.929 . S
H1313 C1322 0.929 . S
C1314 H1308 0.930 . S
C1314 C1315 1.367 . S
C1314 C1322 1.378 . S
C1315 C1314 1.367 . S
C1315 C1323 1.433 . S
C1316 H1312 0.929 . S
C1316 C1318 1.378 . S
C1316 C1320 1.350 . S
C1317 C1320 1.463 . S
C1317 C1322 1.350 . S
C1317 N1325 1.427 . S
C1318 H1309 0.930 . S
C1318 C1316 1.378 . S
C1318 C1319 1.367 . S
C1319 C1318 1.367 . S
C1319 C1321 1.433 . S
C1320 C1316 1.350 . S
C1320 C1317 1.463 . S
C1320 N1324 1.427 . S
C1321 H1311 0.929 . S
C1321 C1319 1.433 . S
C1321 N1324 1.384 . S
C1322 H1313 0.929 . S
C1322 C1314 1.378 . S
C1322 C1317 1.350 . S
C1323 H1310 0.929 . S
C1323 C1315 1.433 . S
C1323 N1325 1.384 . S
N1324 C1320 1.427 . S
N1324 C1321 1.384 . S
N1325 C1317 1.427 . S
N1325 C1323 1.384 . S
H1326 C1332 0.930 . S
H1327 C1336 0.930 . S
H1328 C1341 0.929 . S
H1329 C1339 0.929 . S
H1330 C1334 0.929 . S
H1331 C1340 0.929 . S
C1332 H1326 0.930 . S
C1332 C1333 1.367 . S
C1332 C1340 1.378 . S
C1333 C1332 1.367 . S
C1333 C1341 1.433 . S
C1334 H1330 0.929 . S
C1334 C1336 1.378 . S
C1334 C1338 1.350 . S
C1335 C1338 1.463 . S
C1335 C1340 1.350 . S
C1335 N1343 1.427 . S
C1336 H1327 0.930 . S
C1336 C1334 1.378 . S
C1336 C1337 1.367 . S
C1337 C1336 1.367 . S
C1337 C1339 1.433 . S
C1338 C1334 1.350 . S
C1338 C1335 1.463 . S
C1338 N1342 1.427 . S
C1339 H1329 0.929 . S
C1339 C1337 1.433 . S
C1339 N1342 1.384 . S
C1340 H1331 0.929 . S
C1340 C1332 1.378 . S
C1340 C1335 1.350 . S
C1341 H1328 0.929 . S
C1341 C1333 1.433 . S
C1341 N1343 1.384 . S
N1342 C1338 1.427 . S
N1342 C1339 1.384 . S
N1343 C1335 1.427 . S
N1343 C1341 1.384 . S
H1344 C1350 0.930 . S
H1345 C1354 0.930 . S
H1346 C1359 0.929 . S
H1347 C1357 0.929 . S
H1348 C1352 0.929 . S
H1349 C1358 0.929 . S
C1350 H1344 0.930 . S
C1350 C1351 1.367 . S
C1350 C1358 1.378 . S
C1351 C1350 1.367 . S
C1351 C1359 1.433 . S
C1352 H1348 0.929 . S
C1352 C1354 1.378 . S
C1352 C1356 1.350 . S
C1353 C1356 1.463 . S
C1353 C1358 1.350 . S
C1353 N1361 1.427 . S
C1354 H1345 0.930 . S
C1354 C1352 1.378 . S
C1354 C1355 1.367 . S
C1355 C1354 1.367 . S
C1355 C1357 1.433 . S
C1356 C1352 1.350 . S
C1356 C1353 1.463 . S
C1356 N1360 1.427 . S
C1357 H1347 0.929 . S
C1357 C1355 1.433 . S
C1357 N1360 1.384 . S
C1358 H1349 0.929 . S
C1358 C1350 1.378 . S
C1358 C1353 1.350 . S
C1359 H1346 0.929 . S
C1359 C1351 1.433 . S
C1359 N1361 1.384 . S
N1360 C1356 1.427 . S
N1360 C1357 1.384 . S
N1361 C1353 1.427 . S
N1361 C1359 1.384 . S
H1362 C1368 0.930 . S
H1363 C1372 0.930 . S
H1364 C1377 0.929 . S
H1365 C1375 0.929 . S
H1366 C1370 0.929 . S
H1367 C1376 0.929 . S
C1368 H1362 0.930 . S
C1368 C1369 1.367 . S
C1368 C1376 1.378 . S
C1369 C1368 1.367 . S
C1369 C1377 1.433 . S
C1370 H1366 0.929 . S
C1370 C1372 1.378 . S
C1370 C1374 1.350 . S
C1371 C1374 1.463 . S
C1371 C1376 1.350 . S
C1371 N1379 1.427 . S
C1372 H1363 0.930 . S
C1372 C1370 1.378 . S
C1372 C1373 1.367 . S
C1373 C1372 1.367 . S
C1373 C1375 1.433 . S
C1374 C1370 1.350 . S
C1374 C1371 1.463 . S
C1374 N1378 1.427 . S
C1375 H1365 0.929 . S
C1375 C1373 1.433 . S
C1375 N1378 1.384 . S
C1376 H1367 0.929 . S
C1376 C1368 1.378 . S
C1376 C1371 1.350 . S
C1377 H1364 0.929 . S
C1377 C1369 1.433 . S
C1377 N1379 1.384 . S
N1378 C1374 1.427 . S
N1378 C1375 1.384 . S
N1379 C1371 1.427 . S
N1379 C1377 1.384 . S
H1380 C1386 0.930 . S
H1381 C1390 0.930 . S
H1382 C1395 0.929 . S
H1383 C1393 0.929 . S
H1384 C1388 0.929 . S
H1385 C1394 0.929 . S
C1386 H1380 0.930 . S
C1386 C1387 1.406 . S
C1386 C1394 1.378 . S
C1387 C1386 1.406 . S
C1387 C1395 1.394 1_554 S
C1388 H1384 0.929 . S
C1388 C1390 1.378 . S
C1388 C1392 1.351 . S
C1389 C1392 1.462 1_554 S
C1389 C1394 1.350 . S
C1389 N1397 1.427 1_554 S
C1390 H1381 0.930 . S
C1390 C1388 1.378 . S
C1390 C1391 1.367 1_556 S
C1391 C1390 1.367 1_554 S
C1391 C1393 1.433 . S
C1392 C1388 1.351 . S
C1392 C1389 1.462 1_556 S
C1392 N1396 1.426 1_556 S
C1393 H1383 0.929 . S
C1393 C1391 1.433 . S
C1393 N1396 1.384 . S
C1394 H1385 0.929 . S
C1394 C1386 1.378 . S
C1394 C1389 1.350 . S
C1395 H1382 0.929 . S
C1395 C1387 1.394 1_556 S
C1395 N1397 1.384 . S
N1396 C1392 1.426 1_554 S
N1396 C1393 1.384 . S
N1397 C1389 1.427 1_556 S
N1397 C1395 1.384 . S
H1398 C1404 0.930 . S
H1399 C1408 0.930 . S
H1400 C1413 0.929 . S
H1401 C1411 0.929 . S
H1402 C1406 0.929 . S
H1403 C1412 0.929 . S
C1404 H1398 0.930 . S
C1404 C1405 1.368 1_556 S
C1404 C1412 1.378 . S
C1405 C1404 1.368 1_554 S
C1405 C1413 1.432 . S
C1406 H1402 0.929 . S
C1406 C1408 1.378 . S
C1406 C1410 1.350 . S
C1407 C1410 1.462 1_556 S
C1407 C1412 1.352 . S
C1407 N1415 1.425 1_556 S
C1408 H1399 0.930 . S
C1408 C1406 1.378 . S
C1408 C1409 1.407 . S
C1409 C1408 1.407 . S
C1409 C1411 1.393 1_554 S
C1410 C1406 1.350 . S
C1410 C1407 1.462 1_554 S
C1410 N1414 1.427 1_554 S
C1411 H1401 0.929 . S
C1411 C1409 1.393 1_556 S
C1411 N1414 1.384 . S
C1412 H1403 0.929 . S
C1412 C1404 1.378 . S
C1412 C1407 1.352 . S
C1413 H1400 0.929 . S
C1413 C1405 1.432 . S
C1413 N1415 1.384 . S
N1414 C1410 1.427 1_556 S
N1414 C1411 1.384 . S
N1415 C1407 1.425 1_554 S
N1415 C1413 1.384 . S
H1416 C1422 0.930 . S
H1417 C1426 0.930 . S
H1418 C1431 0.929 . S
H1419 C1429 0.929 . S
H1420 C1424 0.929 . S
H1421 C1430 0.929 . S
C1422 H1416 0.930 . S
C1422 C1423 1.402 . S
C1422 C1430 1.378 . S
C1423 C1422 1.402 . S
C1423 C1431 1.398 1_554 S
C1424 H1420 0.929 . S
C1424 C1426 1.378 . S
C1424 C1428 1.349 . S
C1425 C1428 1.463 1_554 S
C1425 C1430 1.350 . S
C1425 N1433 1.427 1_554 S
C1426 H1417 0.930 . S
C1426 C1424 1.378 . S
C1426 C1427 1.366 1_556 S
C1427 C1426 1.366 1_554 S
C1427 C1429 1.434 . S
C1428 C1424 1.349 . S
C1428 C1425 1.463 1_556 S
C1428 N1432 1.428 1_556 S
C1429 H1419 0.929 . S
C1429 C1427 1.434 . S
C1429 N1432 1.384 . S
C1430 H1421 0.929 . S
C1430 C1422 1.378 . S
C1430 C1425 1.350 . S
C1431 H1418 0.929 . S
C1431 C1423 1.398 1_556 S
C1431 N1433 1.384 . S
N1432 C1428 1.428 1_554 S
N1432 C1429 1.384 . S
N1433 C1425 1.427 1_556 S
N1433 C1431 1.384 . S
H1434 C1440 0.930 . S
H1435 C1444 0.930 . S
H1436 C1449 0.929 . S
H1437 C1447 0.929 . S
H1438 C1442 0.929 . S
H1439 C1448 0.929 . S
C1440 H1434 0.930 . S
C1440 C1441 1.370 1_556 S
C1440 C1448 1.378 . S
C1441 C1440 1.370 1_554 S
C1441 C1449 1.430 . S
C1442 H1438 0.929 . S
C1442 C1444 1.378 . S
C1442 C1446 1.350 . S
C1443 C1446 1.462 1_556 S
C1443 C1448 1.355 . S
C1443 N1451 1.423 1_556 S
C1444 H1435 0.930 . S
C1444 C1442 1.378 . S
C1444 C1445 1.367 . S
C1445 C1444 1.367 . S
C1445 C1447 1.433 1_554 S
C1446 C1442 1.350 . S
C1446 C1443 1.462 1_554 S
C1446 N1450 1.427 1_554 S
C1447 H1437 0.929 . S
C1447 C1445 1.433 1_556 S
C1447 N1450 1.384 . S
C1448 H1439 0.929 . S
C1448 C1440 1.378 . S
C1448 C1443 1.355 . S
C1449 H1436 0.929 . S
C1449 C1441 1.430 . S
C1449 N1451 1.384 . S
N1450 C1446 1.427 1_556 S
N1450 C1447 1.384 . S
N1451 C1443 1.423 1_554 S
N1451 C1449 1.384 . S
H1452 C1458 0.930 . S
H1453 C1462 0.930 . S
H1454 C1467 0.929 . S
H1455 C1465 0.929 . S
H1456 C1460 0.929 . S
H1457 C1466 0.929 . S
C1458 H1452 0.930 . S
C1458 C1459 1.387 . S
C1458 C1466 1.378 . S
C1459 C1458 1.387 . S
C1459 C1467 1.414 1_455 S
C1460 H1456 0.929 . S
C1460 C1462 1.378 . S
C1460 C1464 1.356 . S
C1461 C1464 1.461 1_455 S
C1461 C1466 1.376 . S
C1461 N1469 1.402 1_455 S
C1462 H1453 0.930 . S
C1462 C1460 1.378 . S
C1462 C1463 1.367 . S
C1463 C1462 1.367 . S
C1463 C1465 1.433 1_655 S
C1464 C1460 1.356 . S
C1464 C1461 1.461 1_655 S
C1464 N1468 1.421 1_655 S
C1465 H1455 0.929 . S
C1465 C1463 1.433 1_455 S
C1465 N1468 1.384 . S
C1466 H1457 0.929 . S
C1466 C1458 1.378 . S
C1466 C1461 1.376 . S
C1467 H1454 0.929 . S
C1467 C1459 1.414 1_655 S
C1467 N1469 1.384 . S
N1468 C1464 1.421 1_455 S
N1468 C1465 1.384 . S
N1469 C1461 1.402 1_655 S
N1469 C1467 1.384 . S
H1470 C1476 0.930 . S
H1471 C1480 0.930 . S
H1472 C1485 0.929 . S
H1473 C1483 0.929 . S
H1474 C1478 0.929 . S
H1475 C1484 0.929 . S
C1476 H1470 0.930 . S
C1476 C1477 1.385 . S
C1476 C1484 1.378 . S
C1477 C1476 1.385 . S
C1477 C1485 1.415 1_545 S
C1478 H1474 0.929 . S
C1478 C1480 1.378 . S
C1478 C1482 1.365 . S
C1479 C1482 1.461 1_545 S
C1479 C1484 1.375 . S
C1479 N1487 1.402 1_545 S
C1480 H1471 0.930 . S
C1480 C1478 1.378 . S
C1480 C1481 1.374 . S
C1481 C1480 1.374 . S
C1481 C1483 1.426 1_565 S
C1482 C1478 1.365 . S
C1482 C1479 1.461 1_565 S
C1482 N1486 1.412 1_565 S
C1483 H1473 0.929 . S
C1483 C1481 1.426 1_545 S
C1483 N1486 1.384 . S
C1484 H1475 0.929 . S
C1484 C1476 1.378 . S
C1484 C1479 1.375 . S
C1485 H1472 0.929 . S
C1485 C1477 1.415 1_565 S
C1485 N1487 1.384 . S
N1486 C1482 1.412 1_545 S
N1486 C1483 1.384 . S
N1487 C1479 1.402 1_565 S
N1487 C1485 1.384 . S
H1488 C1494 0.930 . S
H1489 C1498 0.930 . S
H1490 C1503 0.929 . S
H1491 C1501 0.929 . S
H1492 C1496 0.929 . S
H1493 C1502 0.929 . S
C1494 H1488 0.930 . S
C1494 C1495 1.374 . S
C1494 C1502 1.378 . S
C1495 C1494 1.374 . S
C1495 C1503 1.426 1_655 S
C1496 H1492 0.929 . S
C1496 C1498 1.378 . S
C1496 C1500 1.394 . S
C1497 C1500 1.460 1_655 S
C1497 C1502 1.368 . S
C1497 N1505 1.409 1_655 S
C1498 H1489 0.930 . S
C1498 C1496 1.378 . S
C1498 C1499 1.399 . S
C1499 C1498 1.399 . S
C1499 C1501 1.400 1_455 S
C1500 C1496 1.394 . S
C1500 C1497 1.460 1_455 S
C1500 N1504 1.383 1_455 S
C1501 H1491 0.929 . S
C1501 C1499 1.400 1_655 S
C1501 N1504 1.384 . S
C1502 H1493 0.929 . S
C1502 C1494 1.378 . S
C1502 C1497 1.368 . S
C1503 H1490 0.929 . S
C1503 C1495 1.426 1_455 S
C1503 N1505 1.384 . S
N1504 C1500 1.383 1_655 S
N1504 C1501 1.384 . S
N1505 C1497 1.409 1_455 S
N1505 C1503 1.384 . S
H1506 C1512 0.930 . S
H1507 C1516 0.930 . S
H1508 C1521 0.929 . S
H1509 C1519 0.929 . S
H1510 C1514 0.929 . S
H1511 C1520 0.929 . S
C1512 H1506 0.930 . S
C1512 C1513 1.391 . S
C1512 C1520 1.378 . S
C1513 C1512 1.391 . S
C1513 C1521 1.408 1_545 S
C1514 H1510 0.929 . S
C1514 C1516 1.378 . S
C1514 C1518 1.375 . S
C1515 C1518 1.460 1_545 S
C1515 C1520 1.386 . S
C1515 N1523 1.391 1_545 S
C1516 H1507 0.930 . S
C1516 C1514 1.378 . S
C1516 C1517 1.380 . S
C1517 C1516 1.380 . S
C1517 C1519 1.420 1_565 S
C1518 C1514 1.375 . S
C1518 C1515 1.460 1_565 S
C1518 N1522 1.402 1_565 S
C1519 H1509 0.929 . S
C1519 C1517 1.420 1_545 S
C1519 N1522 1.384 . S
C1520 H1511 0.929 . S
C1520 C1512 1.378 . S
C1520 C1515 1.386 . S
C1521 H1508 0.929 . S
C1521 C1513 1.408 1_565 S
C1521 N1523 1.384 . S
N1522 C1518 1.402 1_545 S
N1522 C1519 1.384 . S
N1523 C1515 1.391 1_565 S
N1523 C1521 1.384 . S
H1524 C1530 0.930 . S
H1525 C1534 0.930 . S
H1526 C1539 0.929 . S
H1527 C1537 0.929 . S
H1528 C1532 0.929 . S
H1529 C1538 0.929 . S
C1530 H1524 0.930 . S
C1530 C1531 1.376 . S
C1530 C1538 1.378 . S
C1531 C1530 1.376 . S
C1531 C1539 1.424 1_455 S
C1532 H1528 0.929 . S
C1532 C1534 1.378 . S
C1532 C1536 1.350 . S
C1533 C1536 1.462 1_455 S
C1533 C1538 1.362 . S
C1533 N1541 1.415 1_455 S
C1534 H1525 0.930 . S
C1534 C1532 1.378 . S
C1534 C1535 1.369 1_655 S
C1535 C1534 1.369 1_455 S
C1535 C1537 1.431 . S
C1536 C1532 1.350 . S
C1536 C1533 1.462 1_655 S
C1536 N1540 1.427 1_655 S
C1537 H1527 0.929 . S
C1537 C1535 1.431 . S
C1537 N1540 1.384 . S
C1538 H1529 0.929 . S
C1538 C1530 1.378 . S
C1538 C1533 1.362 . S
C1539 H1526 0.929 . S
C1539 C1531 1.424 1_655 S
C1539 N1541 1.384 . S
N1540 C1536 1.427 1_455 S
N1540 C1537 1.384 . S
N1541 C1533 1.415 1_655 S
N1541 C1539 1.384 . S
H1542 C1548 0.930 . S
H1543 C1552 0.930 . S
H1544 C1557 0.929 . S
H1545 C1555 0.929 . S
H1546 C1550 0.929 . S
H1547 C1556 0.929 . S
C1548 H1542 0.930 . S
C1548 C1549 1.372 . S
C1548 C1556 1.378 . S
C1549 C1548 1.372 . S
C1549 C1557 1.428 1_545 S
C1550 H1546 0.929 . S
C1550 C1552 1.378 . S
C1550 C1554 1.352 . S
C1551 C1554 1.462 1_545 S
C1551 C1556 1.358 . S
C1551 N1559 1.420 1_545 S
C1552 H1543 0.930 . S
C1552 C1550 1.378 . S
C1552 C1553 1.367 . S
C1553 C1552 1.367 . S
C1553 C1555 1.433 1_565 S
C1554 C1550 1.352 . S
C1554 C1551 1.462 1_565 S
C1554 N1558 1.425 1_565 S
C1555 H1545 0.929 . S
C1555 C1553 1.433 1_545 S
C1555 N1558 1.384 . S
C1556 H1547 0.929 . S
C1556 C1548 1.378 . S
C1556 C1551 1.358 . S
C1557 H1544 0.929 . S
C1557 C1549 1.428 1_565 S
C1557 N1559 1.384 . S
N1558 C1554 1.425 1_545 S
N1558 C1555 1.384 . S
N1559 C1551 1.420 1_565 S
N1559 C1557 1.384 . S
H1560 C1566 0.930 . S
H1561 C1570 0.930 . S
H1562 C1575 0.929 . S
H1563 C1573 0.929 . S
H1564 C1568 0.929 . S
H1565 C1574 0.929 . S
C1566 H1560 0.930 . S
C1566 C1567 1.367 1_655 S
C1566 C1574 1.378 . S
C1567 C1566 1.367 1_455 S
C1567 C1575 1.433 . S
C1568 H1564 0.929 . S
C1568 C1570 1.378 . S
C1568 C1572 1.359 . S
C1569 C1572 1.462 1_655 S
C1569 C1574 1.348 . S
C1569 N1577 1.429 1_655 S
C1570 H1561 0.930 . S
C1570 C1568 1.378 . S
C1570 C1571 1.374 . S
C1571 C1570 1.374 . S
C1571 C1573 1.426 1_455 S
C1572 C1568 1.359 . S
C1572 C1569 1.462 1_455 S
C1572 N1576 1.418 1_455 S
C1573 H1563 0.929 . S
C1573 C1571 1.426 1_655 S
C1573 N1576 1.384 . S
C1574 H1565 0.929 . S
C1574 C1566 1.378 . S
C1574 C1569 1.348 . S
C1575 H1562 0.929 . S
C1575 C1567 1.433 . S
C1575 N1577 1.384 . S
N1576 C1572 1.418 1_655 S
N1576 C1573 1.384 . S
N1577 C1569 1.429 1_455 S
N1577 C1575 1.384 . S
H1578 C1584 0.930 . S
H1579 C1588 0.930 . S
H1580 C1593 0.929 . S
H1581 C1591 0.929 . S
H1582 C1586 0.929 . S
H1583 C1592 0.929 . S
C1584 H1578 0.930 . S
C1584 C1585 1.373 . S
C1584 C1592 1.378 . S
C1585 C1584 1.373 . S
C1585 C1593 1.427 1_565 S
C1586 H1582 0.929 . S
C1586 C1588 1.378 . S
C1586 C1590 1.372 . S
C1587 C1590 1.461 1_565 S
C1587 C1592 1.363 . S
C1587 N1595 1.415 1_565 S
C1588 H1579 0.930 . S
C1588 C1586 1.378 . S
C1588 C1589 1.382 . S
C1589 C1588 1.382 . S
C1589 C1591 1.418 1_545 S
C1590 C1586 1.372 . S
C1590 C1587 1.461 1_545 S
C1590 N1594 1.405 1_545 S
C1591 H1581 0.929 . S
C1591 C1589 1.418 1_565 S
C1591 N1594 1.384 . S
C1592 H1583 0.929 . S
C1592 C1584 1.378 . S
C1592 C1587 1.363 . S
C1593 H1580 0.929 . S
C1593 C1585 1.427 1_545 S
C1593 N1595 1.384 . S
N1594 C1590 1.405 1_565 S
N1594 C1591 1.384 . S
N1595 C1587 1.415 1_545 S
N1595 C1593 1.384 . S
H1596 C1602 0.930 . S
H1597 C1606 0.930 . S
H1598 C1611 0.929 . S
H1599 C1609 0.929 . S
H1600 C1604 0.929 . S
H1601 C1610 0.929 . S
C1602 H1596 0.930 . S
C1602 C1603 1.367 . S
C1602 C1610 1.378 . S
C1603 C1602 1.367 . S
C1603 C1611 1.433 1_655 S
C1604 H1600 0.929 . S
C1604 C1606 1.378 . S
C1604 C1608 1.372 . S
C1605 C1608 1.461 1_655 S
C1605 C1610 1.356 . S
C1605 N1613 1.421 1_655 S
C1606 H1597 0.930 . S
C1606 C1604 1.378 . S
C1606 C1607 1.383 . S
C1607 C1606 1.383 . S
C1607 C1609 1.417 1_455 S
C1608 C1604 1.372 . S
C1608 C1605 1.461 1_455 S
C1608 N1612 1.405 1_455 S
C1609 H1599 0.929 . S
C1609 C1607 1.417 1_655 S
C1609 N1612 1.384 . S
C1610 H1601 0.929 . S
C1610 C1602 1.378 . S
C1610 C1605 1.356 . S
C1611 H1598 0.929 . S
C1611 C1603 1.433 1_455 S
C1611 N1613 1.384 . S
N1612 C1608 1.405 1_655 S
N1612 C1609 1.384 . S
N1613 C1605 1.421 1_455 S
N1613 C1611 1.384 . S
H1614 C1620 0.930 . S
H1615 C1624 0.930 . S
H1616 C1629 0.929 . S
H1617 C1627 0.929 . S
H1618 C1622 0.929 . S
H1619 C1628 0.929 . S
C1620 H1614 0.930 . S
C1620 C1621 1.372 . S
C1620 C1628 1.378 . S
C1621 C1620 1.372 . S
C1621 C1629 1.428 1_545 S
C1622 H1618 0.929 . S
C1622 C1624 1.378 . S
C1622 C1626 1.352 . S
C1623 C1626 1.462 1_545 S
C1623 C1628 1.358 . S
C1623 N1631 1.419 1_545 S
C1624 H1615 0.930 . S
C1624 C1622 1.378 . S
C1624 C1625 1.366 . S
C1625 C1624 1.366 . S
C1625 C1627 1.434 1_565 S
C1626 C1622 1.352 . S
C1626 C1623 1.462 1_565 S
C1626 N1630 1.425 1_565 S
C1627 H1617 0.929 . S
C1627 C1625 1.434 1_545 S
C1627 N1630 1.384 . S
C1628 H1619 0.929 . S
C1628 C1620 1.378 . S
C1628 C1623 1.358 . S
C1629 H1616 0.929 . S
C1629 C1621 1.428 1_565 S
C1629 N1631 1.384 . S
N1630 C1626 1.425 1_545 S
N1630 C1627 1.384 . S
N1631 C1623 1.419 1_565 S
N1631 C1629 1.384 . S
H1632 C1638 0.930 . S
H1633 C1642 0.930 . S
H1634 C1647 0.929 . S
H1635 C1645 0.929 . S
H1636 C1640 0.929 . S
H1637 C1646 0.929 . S
C1638 H1632 0.930 . S
C1638 C1639 1.368 . S
C1638 C1646 1.378 . S
C1639 C1638 1.368 . S
C1639 C1647 1.432 1_455 S
C1640 H1636 0.929 . S
C1640 C1642 1.378 . S
C1640 C1644 1.350 1_655 S
C1641 C1644 1.462 . S
C1641 C1646 1.352 . S
C1641 N1649 1.426 1_455 S
C1642 H1633 0.930 . S
C1642 C1640 1.378 . S
C1642 C1643 1.366 1_655 S
C1643 C1642 1.366 1_455 S
C1643 C1645 1.434 . S
C1644 C1640 1.350 1_455 S
C1644 C1641 1.462 . S
C1644 N1648 1.428 . S
C1645 H1635 0.929 . S
C1645 C1643 1.434 . S
C1645 N1648 1.384 . S
C1646 H1637 0.929 . S
C1646 C1638 1.378 . S
C1646 C1641 1.352 . S
C1647 H1634 0.929 . S
C1647 C1639 1.432 1_655 S
C1647 N1649 1.384 . S
N1648 C1644 1.428 . S
N1648 C1645 1.384 . S
N1649 C1641 1.426 1_655 S
N1649 C1647 1.384 . S
H1650 C1656 0.930 . S
H1651 C1660 0.930 . S
H1652 C1665 0.929 . S
H1653 C1663 0.929 . S
H1654 C1658 0.929 . S
H1655 C1664 0.929 . S
C1656 H1650 0.930 . S
C1656 C1657 1.378 . S
C1656 C1664 1.378 . S
C1657 C1656 1.378 . S
C1657 C1665 1.421 1_565 S
C1658 H1654 0.929 . S
C1658 C1660 1.378 . S
C1658 C1662 1.387 . S
C1659 C1662 1.460 1_565 S
C1659 C1664 1.372 . S
C1659 N1667 1.405 1_565 S
C1660 H1651 0.930 . S
C1660 C1658 1.378 . S
C1660 C1661 1.394 . S
C1661 C1660 1.394 . S
C1661 C1663 1.406 1_545 S
C1662 C1658 1.387 . S
C1662 C1659 1.460 1_545 S
C1662 N1666 1.390 1_545 S
C1663 H1653 0.929 . S
C1663 C1661 1.406 1_565 S
C1663 N1666 1.384 . S
C1664 H1655 0.929 . S
C1664 C1656 1.378 . S
C1664 C1659 1.372 . S
C1665 H1652 0.929 . S
C1665 C1657 1.421 1_545 S
C1665 N1667 1.384 . S
N1666 C1662 1.390 1_565 S
N1666 C1663 1.384 . S
N1667 C1659 1.405 1_545 S
N1667 C1665 1.384 . S
H1668 C1674 0.930 . S
H1669 C1678 0.930 . S
H1670 C1683 0.929 . S
H1671 C1681 0.929 . S
H1672 C1676 0.929 . S
H1673 C1682 0.929 . S
C1674 H1668 0.930 . S
C1674 C1675 1.395 . S
C1674 C1682 1.378 . S
C1675 C1674 1.395 . S
C1675 C1683 1.405 1_455 S
C1676 H1672 0.929 . S
C1676 C1678 1.378 . S
C1676 C1680 1.365 . S
C1677 C1680 1.461 1_455 S
C1677 C1682 1.388 . S
C1677 N1685 1.389 1_455 S
C1678 H1669 0.930 . S
C1678 C1676 1.378 . S
C1678 C1679 1.373 . S
C1679 C1678 1.373 . S
C1679 C1681 1.427 1_655 S
C1680 C1676 1.365 . S
C1680 C1677 1.461 1_655 S
C1680 N1684 1.412 1_655 S
C1681 H1671 0.929 . S
C1681 C1679 1.427 1_455 S
C1681 N1684 1.384 . S
C1682 H1673 0.929 . S
C1682 C1674 1.378 . S
C1682 C1677 1.388 . S
C1683 H1670 0.929 . S
C1683 C1675 1.405 1_655 S
C1683 N1685 1.384 . S
N1684 C1680 1.412 1_455 S
N1684 C1681 1.384 . S
N1685 C1677 1.389 1_655 S
N1685 C1683 1.384 . S
H1686 C1692 0.930 . S
H1687 C1696 0.930 . S
H1688 C1701 0.929 . S
H1689 C1699 0.929 . S
H1690 C1694 0.929 . S
H1691 C1700 0.929 . S
C1692 H1686 0.930 . S
C1692 C1693 1.367 . S
C1692 C1700 1.378 . S
C1693 C1692 1.367 . S
C1693 C1701 1.433 1_565 S
C1694 H1690 0.929 . S
C1694 C1696 1.378 . S
C1694 C1698 1.361 . S
C1695 C1698 1.462 1_565 S
C1695 C1700 1.353 . S
C1695 N1703 1.424 1_565 S
C1696 H1687 0.930 . S
C1696 C1694 1.378 . S
C1696 C1697 1.375 . S
C1697 C1696 1.375 . S
C1697 C1699 1.425 1_545 S
C1698 C1694 1.361 . S
C1698 C1695 1.462 1_545 S
C1698 N1702 1.417 1_545 S
C1699 H1689 0.929 . S
C1699 C1697 1.425 1_565 S
C1699 N1702 1.384 . S
C1700 H1691 0.929 . S
C1700 C1692 1.378 . S
C1700 C1695 1.353 . S
C1701 H1688 0.929 . S
C1701 C1693 1.433 1_545 S
C1701 N1703 1.384 . S
N1702 C1698 1.417 1_565 S
N1702 C1699 1.384 . S
N1703 C1695 1.424 1_545 S
N1703 C1701 1.384 . S
H1704 C1710 0.930 . S
H1705 C1714 0.930 . S
H1706 C1719 0.929 . S
H1707 C1717 0.929 . S
H1708 C1712 0.929 . S
H1709 C1718 0.929 . S
C1710 H1704 0.930 . S
C1710 C1711 1.387 . S
C1710 C1718 1.378 . S
C1711 C1710 1.387 . S
C1711 C1719 1.413 1_455 S
C1712 H1708 0.929 . S
C1712 C1714 1.378 . S
C1712 C1716 1.359 . S
C1713 C1716 1.461 1_455 S
C1713 C1718 1.377 . S
C1713 N1721 1.400 1_455 S
C1714 H1705 0.930 . S
C1714 C1712 1.378 . S
C1714 C1715 1.369 . S
C1715 C1714 1.369 . S
C1715 C1717 1.431 1_655 S
C1716 C1712 1.359 . S
C1716 C1713 1.461 1_655 S
C1716 N1720 1.418 1_655 S
C1717 H1707 0.929 . S
C1717 C1715 1.431 1_455 S
C1717 N1720 1.384 . S
C1718 H1709 0.929 . S
C1718 C1710 1.378 . S
C1718 C1713 1.377 . S
C1719 H1706 0.929 . S
C1719 C1711 1.413 1_655 S
C1719 N1721 1.384 . S
N1720 C1716 1.418 1_455 S
N1720 C1717 1.384 . S
N1721 C1713 1.400 1_655 S
N1721 C1719 1.384 . S
H1722 C1728 0.930 . S
H1723 C1732 0.930 . S
H1724 C1737 0.929 . S
H1725 C1735 0.929 . S
H1726 C1730 0.929 . S
H1727 C1736 0.929 . S
C1728 H1722 0.930 . S
C1728 C1729 1.384 . S
C1728 C1736 1.378 . S
C1729 C1728 1.384 . S
C1729 C1737 1.416 1_545 S
C1730 H1726 0.929 . S
C1730 C1732 1.378 . S
C1730 C1734 1.364 . S
C1731 C1734 1.461 1_545 S
C1731 C1736 1.375 . S
C1731 N1739 1.402 1_545 S
C1732 H1723 0.930 . S
C1732 C1730 1.378 . S
C1732 C1733 1.373 . S
C1733 C1732 1.373 . S
C1733 C1735 1.427 1_565 S
C1734 C1730 1.364 . S
C1734 C1731 1.461 1_565 S
C1734 N1738 1.413 1_565 S
C1735 H1725 0.929 . S
C1735 C1733 1.427 1_545 S
C1735 N1738 1.384 . S
C1736 H1727 0.929 . S
C1736 C1728 1.378 . S
C1736 C1731 1.375 . S
C1737 H1724 0.929 . S
C1737 C1729 1.416 1_565 S
C1737 N1739 1.384 . S
N1738 C1734 1.413 1_545 S
N1738 C1735 1.384 . S
N1739 C1731 1.402 1_565 S
N1739 C1737 1.384 . S
H1740 C1746 0.930 . S
H1741 C1750 0.930 . S
H1742 C1755 0.929 . S
H1743 C1753 0.929 . S
H1744 C1748 0.929 . S
H1745 C1754 0.929 . S
C1746 H1740 0.930 . S
C1746 C1747 1.377 . S
C1746 C1754 1.378 . S
C1747 C1746 1.377 . S
C1747 C1755 1.423 1_545 S
C1748 H1744 0.929 . S
C1748 C1750 1.378 . S
C1748 C1752 1.357 . S
C1749 C1752 1.462 1_545 S
C1749 C1754 1.364 . S
C1749 N1757 1.413 1_545 S
C1750 H1741 0.930 . S
C1750 C1748 1.378 . S
C1750 C1751 1.370 . S
C1751 C1750 1.370 . S
C1751 C1753 1.430 1_565 S
C1752 C1748 1.357 . S
C1752 C1749 1.462 1_565 S
C1752 N1756 1.420 1_565 S
C1753 H1743 0.929 . S
C1753 C1751 1.430 1_545 S
C1753 N1756 1.384 . S
C1754 H1745 0.929 . S
C1754 C1746 1.378 . S
C1754 C1749 1.364 . S
C1755 H1742 0.929 . S
C1755 C1747 1.423 1_565 S
C1755 N1757 1.384 . S
N1756 C1752 1.420 1_545 S
N1756 C1753 1.384 . S
N1757 C1749 1.413 1_565 S
N1757 C1755 1.384 . S
H1758 C1764 0.930 . S
H1759 C1768 0.930 . S
H1760 C1773 0.929 . S
H1761 C1771 0.929 . S
H1762 C1766 0.929 . S
H1763 C1772 0.929 . S
C1764 H1758 0.930 . S
C1764 C1765 1.397 . S
C1764 C1772 1.378 . S
C1765 C1764 1.397 . S
C1765 C1773 1.403 1_455 S
C1766 H1762 0.929 . S
C1766 C1768 1.378 . S
C1766 C1770 1.365 . S
C1767 C1770 1.460 1_455 S
C1767 C1772 1.391 . S
C1767 N1775 1.386 1_455 S
C1768 H1759 0.930 . S
C1768 C1766 1.378 . S
C1768 C1769 1.371 . S
C1769 C1768 1.371 . S
C1769 C1771 1.429 1_655 S
C1770 C1766 1.365 . S
C1770 C1767 1.460 1_655 S
C1770 N1774 1.412 1_655 S
C1771 H1761 0.929 . S
C1771 C1769 1.429 1_455 S
C1771 N1774 1.384 . S
C1772 H1763 0.929 . S
C1772 C1764 1.378 . S
C1772 C1767 1.391 . S
C1773 H1760 0.929 . S
C1773 C1765 1.403 1_655 S
C1773 N1775 1.384 . S
N1774 C1770 1.412 1_455 S
N1774 C1771 1.384 . S
N1775 C1767 1.386 1_655 S
N1775 C1773 1.384 . S
H1776 C1782 0.930 . S
H1777 C1786 0.930 . S
H1778 C1791 0.929 . S
H1779 C1789 0.929 . S
H1780 C1784 0.929 . S
H1781 C1790 0.929 . S
C1782 H1776 0.930 . S
C1782 C1783 1.379 . S
C1782 C1790 1.378 . S
C1783 C1782 1.379 . S
C1783 C1791 1.421 1_565 S
C1784 H1780 0.929 . S
C1784 C1786 1.378 . S
C1784 C1788 1.384 . S
C1785 C1788 1.460 1_565 S
C1785 C1790 1.373 . S
C1785 N1793 1.404 1_565 S
C1786 H1777 0.930 . S
C1786 C1784 1.378 . S
C1786 C1787 1.390 . S
C1787 C1786 1.390 . S
C1787 C1789 1.410 1_545 S
C1788 C1784 1.384 . S
C1788 C1785 1.460 1_545 S
C1788 N1792 1.393 1_545 S
C1789 H1779 0.929 . S
C1789 C1787 1.410 1_565 S
C1789 N1792 1.384 . S
C1790 H1781 0.929 . S
C1790 C1782 1.378 . S
C1790 C1785 1.373 . S
C1791 H1778 0.929 . S
C1791 C1783 1.421 1_545 S
C1791 N1793 1.384 . S
N1792 C1788 1.393 1_565 S
N1792 C1789 1.384 . S
N1793 C1785 1.404 1_545 S
N1793 C1791 1.384 . S
H1794 C1800 0.930 . S
H1795 C1804 0.930 . S
H1796 C1809 0.929 . S
H1797 C1807 0.929 . S
H1798 C1802 0.929 . S
H1799 C1808 0.929 . S
C1800 H1794 0.930 . S
C1800 C1801 1.364 . S
C1800 C1808 1.378 . S
C1801 C1800 1.364 . S
C1801 C1809 1.436 1_655 S
C1802 H1798 0.929 . S
C1802 C1804 1.378 . S
C1802 C1806 1.368 . S
C1803 C1806 1.462 1_655 S
C1803 C1808 1.351 . S
C1803 N1811 1.427 1_655 S
C1804 H1795 0.930 . S
C1804 C1802 1.378 . S
C1804 C1805 1.381 . S
C1805 C1804 1.381 . S
C1805 C1807 1.420 1_455 S
C1806 C1802 1.368 . S
C1806 C1803 1.462 1_455 S
C1806 N1810 1.410 1_455 S
C1807 H1797 0.929 . S
C1807 C1805 1.420 1_655 S
C1807 N1810 1.384 . S
C1808 H1799 0.929 . S
C1808 C1800 1.378 . S
C1808 C1803 1.351 . S
C1809 H1796 0.929 . S
C1809 C1801 1.436 1_455 S
C1809 N1811 1.384 . S
N1810 C1806 1.410 1_655 S
N1810 C1807 1.384 . S
N1811 C1803 1.427 1_455 S
N1811 C1809 1.384 . S
H1812 C1818 0.930 . S
H1813 C1822 0.930 . S
H1814 C1827 0.929 . S
H1815 C1825 0.929 . S
H1816 C1820 0.929 . S
H1817 C1826 0.929 . S
C1818 H1812 0.930 . S
C1818 C1819 1.381 . S
C1818 C1826 1.378 . S
C1819 C1818 1.381 . S
C1819 C1827 1.419 1_545 S
C1820 H1816 0.929 . S
C1820 C1822 1.378 . S
C1820 C1824 1.362 . S
C1821 C1824 1.461 1_545 S
C1821 C1826 1.370 . S
C1821 N1829 1.408 1_545 S
C1822 H1813 0.930 . S
C1822 C1820 1.378 . S
C1822 C1823 1.373 . S
C1823 C1822 1.373 . S
C1823 C1825 1.427 1_565 S
C1824 C1820 1.362 . S
C1824 C1821 1.461 1_565 S
C1824 N1828 1.415 1_565 S
C1825 H1815 0.929 . S
C1825 C1823 1.427 1_545 S
C1825 N1828 1.384 . S
C1826 H1817 0.929 . S
C1826 C1818 1.378 . S
C1826 C1821 1.370 . S
C1827 H1814 0.929 . S
C1827 C1819 1.419 1_565 S
C1827 N1829 1.384 . S
N1828 C1824 1.415 1_545 S
N1828 C1825 1.384 . S
N1829 C1821 1.408 1_565 S
N1829 C1827 1.384 . S
H1830 C1836 0.930 . S
H1831 C1840 0.930 . S
H1832 C1845 0.929 . S
H1833 C1843 0.929 . S
H1834 C1838 0.929 . S
H1835 C1844 0.929 . S
C1836 H1830 0.930 . S
C1836 C1837 1.367 1_655 S
C1836 C1844 1.378 . S
C1837 C1836 1.367 1_455 S
C1837 C1845 1.433 . S
C1838 H1834 0.929 . S
C1838 C1840 1.378 . S
C1838 C1842 1.358 . S
C1839 C1842 1.462 . S
C1839 C1844 1.352 1_455 S
C1839 N1847 1.426 . S
C1840 H1831 0.930 . S
C1840 C1838 1.378 . S
C1840 C1841 1.374 . S
C1841 C1840 1.374 . S
C1841 C1843 1.427 1_455 S
C1842 C1838 1.358 . S
C1842 C1839 1.462 . S
C1842 N1846 1.419 1_455 S
C1843 H1833 0.929 . S
C1843 C1841 1.427 1_655 S
C1843 N1846 1.384 . S
C1844 H1835 0.929 . S
C1844 C1836 1.378 . S
C1844 C1839 1.352 1_655 S
C1845 H1832 0.929 . S
C1845 C1837 1.433 . S
C1845 N1847 1.384 . S
N1846 C1842 1.419 1_655 S
N1846 C1843 1.384 . S
N1847 C1839 1.426 . S
N1847 C1845 1.384 . S
H1848 C1854 0.930 . S
H1849 C1858 0.930 . S
H1850 C1863 0.929 . S
H1851 C1861 0.929 . S
H1852 C1856 0.929 . S
H1853 C1862 0.929 . S
C1854 H1848 0.930 . S
C1854 C1855 1.387 . S
C1854 C1862 1.378 . S
C1855 C1854 1.387 . S
C1855 C1863 1.413 1_545 S
C1856 H1852 0.929 . S
C1856 C1858 1.378 . S
C1856 C1860 1.370 . S
C1857 C1860 1.461 1_545 S
C1857 C1862 1.379 . S
C1857 N1865 1.398 1_545 S
C1858 H1849 0.930 . S
C1858 C1856 1.378 . S
C1858 C1859 1.377 . S
C1859 C1858 1.377 . S
C1859 C1861 1.422 1_565 S
C1860 C1856 1.370 . S
C1860 C1857 1.461 1_565 S
C1860 N1864 1.408 1_565 S
C1861 H1851 0.929 . S
C1861 C1859 1.422 1_545 S
C1861 N1864 1.384 . S
C1862 H1853 0.929 . S
C1862 C1854 1.378 . S
C1862 C1857 1.379 . S
C1863 H1850 0.929 . S
C1863 C1855 1.413 1_565 S
C1863 N1865 1.384 . S
N1864 C1860 1.408 1_545 S
N1864 C1861 1.384 . S
N1865 C1857 1.398 1_565 S
N1865 C1863 1.384 . S
H1866 C1872 0.930 . S
H1867 C1876 0.930 . S
H1868 C1881 0.929 . S
H1869 C1879 0.929 . S
H1870 C1874 0.929 . S
H1871 C1880 0.929 . S
C1872 H1866 0.930 . S
C1872 C1873 1.366 . S
C1872 C1880 1.378 . S
C1873 C1872 1.366 . S
C1873 C1881 1.434 1_655 S
C1874 H1870 0.929 . S
C1874 C1876 1.378 . S
C1874 C1878 1.376 . S
C1875 C1878 1.461 1_655 S
C1875 C1880 1.355 . S
C1875 N1883 1.423 1_655 S
C1876 H1867 0.930 . S
C1876 C1874 1.378 . S
C1876 C1877 1.386 . S
C1877 C1876 1.386 . S
C1877 C1879 1.414 1_455 S
C1878 C1874 1.376 . S
C1878 C1875 1.461 1_455 S
C1878 N1882 1.402 1_455 S
C1879 H1869 0.929 . S
C1879 C1877 1.414 1_655 S
C1879 N1882 1.384 . S
C1880 H1871 0.929 . S
C1880 C1872 1.378 . S
C1880 C1875 1.355 . S
C1881 H1868 0.929 . S
C1881 C1873 1.434 1_455 S
C1881 N1883 1.384 . S
N1882 C1878 1.402 1_655 S
N1882 C1879 1.384 . S
N1883 C1875 1.423 1_455 S
N1883 C1881 1.384 . S
H1884 C1890 0.930 . S
H1885 C1894 0.930 . S
H1886 C1899 0.929 . S
H1887 C1897 0.929 . S
H1888 C1892 0.929 . S
H1889 C1898 0.929 . S
C1890 H1884 0.930 . S
C1890 C1891 1.408 . S
C1890 C1898 1.378 . S
C1891 C1890 1.408 . S
C1891 C1899 1.391 1_554 S
C1892 H1888 0.929 . S
C1892 C1894 1.378 . S
C1892 C1896 1.356 . S
C1893 C1896 1.462 1_554 S
C1893 C1898 1.350 . S
C1893 N1901 1.427 1_554 S
C1894 H1885 0.930 . S
C1894 C1892 1.378 . S
C1894 C1895 1.363 . S
C1895 C1894 1.363 . S
C1895 C1897 1.437 1_556 S
C1896 C1892 1.356 . S
C1896 C1893 1.462 1_556 S
C1896 N1900 1.421 1_556 S
C1897 H1887 0.929 . S
C1897 C1895 1.437 1_554 S
C1897 N1900 1.384 . S
C1898 H1889 0.929 . S
C1898 C1890 1.378 . S
C1898 C1893 1.350 . S
C1899 H1886 0.929 . S
C1899 C1891 1.391 1_556 S
C1899 N1901 1.384 . S
N1900 C1896 1.421 1_554 S
N1900 C1897 1.384 . S
N1901 C1893 1.427 1_556 S
N1901 C1899 1.384 . S
H1902 C1908 0.930 . S
H1903 C1912 0.930 . S
H1904 C1917 0.929 . S
H1905 C1915 0.929 . S
H1906 C1910 0.929 . S
H1907 C1916 0.929 . S
C1908 H1902 0.930 . S
C1908 C1909 1.369 1_556 S
C1908 C1916 1.378 . S
C1909 C1908 1.369 1_554 S
C1909 C1917 1.431 . S
C1910 H1906 0.929 . S
C1910 C1912 1.378 . S
C1910 C1914 1.350 . S
C1911 C1914 1.462 1_556 S
C1911 C1916 1.353 . S
C1911 N1919 1.425 1_556 S
C1912 H1903 0.930 . S
C1912 C1910 1.378 . S
C1912 C1913 1.401 . S
C1913 C1912 1.401 . S
C1913 C1915 1.399 1_554 S
C1914 C1910 1.350 . S
C1914 C1911 1.462 1_554 S
C1914 N1918 1.427 1_554 S
C1915 H1905 0.929 . S
C1915 C1913 1.399 1_556 S
C1915 N1918 1.384 . S
C1916 H1907 0.929 . S
C1916 C1908 1.378 . S
C1916 C1911 1.353 . S
C1917 H1904 0.929 . S
C1917 C1909 1.431 . S
C1917 N1919 1.384 . S
N1918 C1914 1.427 1_556 S
N1918 C1915 1.384 . S
N1919 C1911 1.425 1_554 S
N1919 C1917 1.384 . S
H1920 C1926 0.930 . S
H1921 C1930 0.930 . S
H1922 C1935 0.929 . S
H1923 C1933 0.929 . S
H1924 C1928 0.929 . S
H1925 C1934 0.929 . S
C1926 H1920 0.930 . S
C1926 C1927 1.385 . S
C1926 C1934 1.378 . S
C1927 C1926 1.385 . S
C1927 C1935 1.416 1_554 S
C1928 H1924 0.929 . S
C1928 C1930 1.378 . S
C1928 C1932 1.347 1_556 S
C1929 C1932 1.462 . S
C1929 C1934 1.371 . S
C1929 N1937 1.407 1_554 S
C1930 H1921 0.930 . S
C1930 C1928 1.378 . S
C1930 C1931 1.361 1_556 S
C1931 C1930 1.361 1_554 S
C1931 C1933 1.439 . S
C1932 C1928 1.347 1_554 S
C1932 C1929 1.462 . S
C1932 N1936 1.430 . S
C1933 H1923 0.929 . S
C1933 C1931 1.439 . S
C1933 N1936 1.384 . S
C1934 H1925 0.929 . S
C1934 C1926 1.378 . S
C1934 C1929 1.371 . S
C1935 H1922 0.929 . S
C1935 C1927 1.416 1_556 S
C1935 N1937 1.384 . S
N1936 C1932 1.430 . S
N1936 C1933 1.384 . S
N1937 C1929 1.407 1_556 S
N1937 C1935 1.384 . S
H1938 C1944 0.930 . S
H1939 C1948 0.930 . S
H1940 C1953 0.929 . S
H1941 C1951 0.929 . S
H1942 C1946 0.929 . S
H1943 C1952 0.929 . S
C1944 H1938 0.930 . S
C1944 C1945 1.371 1_556 S
C1944 C1952 1.378 . S
C1945 C1944 1.371 1_554 S
C1945 C1953 1.429 . S
C1946 H1942 0.929 . S
C1946 C1948 1.378 . S
C1946 C1950 1.350 . S
C1947 C1950 1.462 1_556 S
C1947 C1952 1.357 . S
C1947 N1955 1.421 1_556 S
C1948 H1939 0.930 . S
C1948 C1946 1.378 . S
C1948 C1949 1.408 . S
C1949 C1948 1.408 . S
C1949 C1951 1.391 1_554 S
C1950 C1946 1.350 . S
C1950 C1947 1.462 1_554 S
C1950 N1954 1.427 1_554 S
C1951 H1941 0.929 . S
C1951 C1949 1.391 1_556 S
C1951 N1954 1.384 . S
C1952 H1943 0.929 . S
C1952 C1944 1.378 . S
C1952 C1947 1.357 . S
C1953 H1940 0.929 . S
C1953 C1945 1.429 . S
C1953 N1955 1.384 . S
N1954 C1950 1.427 1_556 S
N1954 C1951 1.384 . S
N1955 C1947 1.421 1_554 S
N1955 C1953 1.384 . S
H1956 C1962 0.930 . S
H1957 C1966 0.930 . S
H1958 C1971 0.929 . S
H1959 C1969 0.929 . S
H1960 C1964 0.929 . S
H1961 C1970 0.929 . S
C1962 H1956 0.930 . S
C1962 C1963 1.367 . S
C1962 C1970 1.378 . S
C1963 C1962 1.367 . S
C1963 C1971 1.433 1_554 S
C1964 H1960 0.929 . S
C1964 C1966 1.378 . S
C1964 C1968 1.352 . S
C1965 C1968 1.462 1_554 S
C1965 C1970 1.350 . S
C1965 N1973 1.427 1_554 S
C1966 H1957 0.930 . S
C1966 C1964 1.378 . S
C1966 C1967 1.367 1_556 S
C1967 C1966 1.367 1_554 S
C1967 C1969 1.433 . S
C1968 C1964 1.352 . S
C1968 C1965 1.462 1_556 S
C1968 N1972 1.425 1_556 S
C1969 H1959 0.929 . S
C1969 C1967 1.433 . S
C1969 N1972 1.384 . S
C1970 H1961 0.929 . S
C1970 C1962 1.378 . S
C1970 C1965 1.350 . S
C1971 H1958 0.929 . S
C1971 C1963 1.433 1_556 S
C1971 N1973 1.384 . S
N1972 C1968 1.425 1_554 S
N1972 C1969 1.384 . S
N1973 C1965 1.427 1_556 S
N1973 C1971 1.384 . S
H1974 C1980 0.930 . S
H1975 C1984 0.930 . S
H1976 C1989 0.929 . S
H1977 C1987 0.929 . S
H1978 C1982 0.929 . S
H1979 C1988 0.929 . S
C1980 H1974 0.930 . S
C1980 C1981 1.389 . S
C1980 C1988 1.378 . S
C1981 C1980 1.389 . S
C1981 C1989 1.412 1_554 S
C1982 H1978 0.929 . S
C1982 C1984 1.378 . S
C1982 C1986 1.352 1_556 S
C1983 C1986 1.462 . S
C1983 C1988 1.376 . S
C1983 N1991 1.402 1_554 S
C1984 H1975 0.930 . S
C1984 C1982 1.378 . S
C1984 C1985 1.365 1_556 S
C1985 C1984 1.365 1_554 S
C1985 C1987 1.435 . S
C1986 C1982 1.352 1_554 S
C1986 C1983 1.462 . S
C1986 N1990 1.425 . S
C1987 H1977 0.929 . S
C1987 C1985 1.435 . S
C1987 N1990 1.384 . S
C1988 H1979 0.929 . S
C1988 C1980 1.378 . S
C1988 C1983 1.376 . S
C1989 H1976 0.929 . S
C1989 C1981 1.412 1_556 S
C1989 N1991 1.384 . S
N1990 C1986 1.425 . S
N1990 C1987 1.384 . S
N1991 C1983 1.402 1_556 S
N1991 C1989 1.384 . S
H1992 C1998 0.930 . S
H1993 C2002 0.930 . S
H1994 C2007 0.929 . S
H1995 C2005 0.929 . S
H1996 C2000 0.929 . S
H1997 C2006 0.929 . S
C1998 H1992 0.930 . S
C1998 C1999 1.367 1_556 S
C1998 C2006 1.378 . S
C1999 C1998 1.367 1_554 S
C1999 C2007 1.433 . S
C2000 H1996 0.929 . S
C2000 C2002 1.378 . S
C2000 C2004 1.350 . S
C2001 C2004 1.462 1_556 S
C2001 C2006 1.350 . S
C2001 N2009 1.427 1_556 S
C2002 H1993 0.930 . S
C2002 C2000 1.378 . S
C2002 C2003 1.367 . S
C2003 C2002 1.367 . S
C2003 C2005 1.433 1_554 S
C2004 C2000 1.350 . S
C2004 C2001 1.462 1_554 S
C2004 N2008 1.427 1_554 S
C2005 H1995 0.929 . S
C2005 C2003 1.433 1_556 S
C2005 N2008 1.384 . S
C2006 H1997 0.929 . S
C2006 C1998 1.378 . S
C2006 C2001 1.350 . S
C2007 H1994 0.929 . S
C2007 C1999 1.433 . S
C2007 N2009 1.384 . S
N2008 C2004 1.427 1_556 S
N2008 C2005 1.384 . S
N2009 C2001 1.427 1_554 S
N2009 C2007 1.384 . S
H2010 C2016 0.930 . S
H2011 C2020 0.930 . S
H2012 C2025 0.929 . S
H2013 C2023 0.929 . S
H2014 C2018 0.929 . S
H2015 C2024 0.929 . S
C2016 H2010 0.930 . S
C2016 C2017 1.365 1_556 S
C2016 C2024 1.378 . S
C2017 C2016 1.365 1_554 S
C2017 C2025 1.435 . S
C2018 H2014 0.929 . S
C2018 C2020 1.378 . S
C2018 C2022 1.350 . S
C2019 C2022 1.463 1_556 S
C2019 C2024 1.347 . S
C2019 N2027 1.430 1_556 S
C2020 H2011 0.930 . S
C2020 C2018 1.378 . S
C2020 C2021 1.403 . S
C2021 C2020 1.403 . S
C2021 C2023 1.397 1_554 S
C2022 C2018 1.350 . S
C2022 C2019 1.463 1_554 S
C2022 N2026 1.427 1_554 S
C2023 H2013 0.929 . S
C2023 C2021 1.397 1_556 S
C2023 N2026 1.384 . S
C2024 H2015 0.929 . S
C2024 C2016 1.378 . S
C2024 C2019 1.347 . S
C2025 H2012 0.929 . S
C2025 C2017 1.435 . S
C2025 N2027 1.384 . S
N2026 C2022 1.427 1_556 S
N2026 C2023 1.384 . S
N2027 C2019 1.430 1_554 S
N2027 C2025 1.384 . S
H2028 C2034 0.930 . S
H2029 C2038 0.930 . S
H2030 C2043 0.929 . S
H2031 C2041 0.929 . S
H2032 C2036 0.929 . S
H2033 C2042 0.929 . S
C2034 H2028 0.930 . S
C2034 C2035 1.367 . S
C2034 C2042 1.378 . S
C2035 C2034 1.367 . S
C2035 C2043 1.433 . S
C2036 H2032 0.929 . S
C2036 C2038 1.378 . S
C2036 C2040 1.350 . S
C2037 C2040 1.463 . S
C2037 C2042 1.350 . S
C2037 N2045 1.427 . S
C2038 H2029 0.930 . S
C2038 C2036 1.378 . S
C2038 C2039 1.367 . S
C2039 C2038 1.367 . S
C2039 C2041 1.433 . S
C2040 C2036 1.350 . S
C2040 C2037 1.463 . S
C2040 N2044 1.427 . S
C2041 H2031 0.929 . S
C2041 C2039 1.433 . S
C2041 N2044 1.384 . S
C2042 H2033 0.929 . S
C2042 C2034 1.378 . S
C2042 C2037 1.350 . S
C2043 H2030 0.929 . S
C2043 C2035 1.433 . S
C2043 N2045 1.384 . S
N2044 C2040 1.427 . S
N2044 C2041 1.384 . S
N2045 C2037 1.427 . S
N2045 C2043 1.384 . S
H2046 C2052 0.930 . S
H2047 C2056 0.930 . S
H2048 C2061 0.929 . S
H2049 C2059 0.929 . S
H2050 C2054 0.929 . S
H2051 C2060 0.929 . S
C2052 H2046 0.930 . S
C2052 C2053 1.367 . S
C2052 C2060 1.378 . S
C2053 C2052 1.367 . S
C2053 C2061 1.433 . S
C2054 H2050 0.929 . S
C2054 C2056 1.378 . S
C2054 C2058 1.350 . S
C2055 C2058 1.463 . S
C2055 C2060 1.350 . S
C2055 N2063 1.427 . S
C2056 H2047 0.930 . S
C2056 C2054 1.378 . S
C2056 C2057 1.367 . S
C2057 C2056 1.367 . S
C2057 C2059 1.433 . S
C2058 C2054 1.350 . S
C2058 C2055 1.463 . S
C2058 N2062 1.427 . S
C2059 H2049 0.929 . S
C2059 C2057 1.433 . S
C2059 N2062 1.384 . S
C2060 H2051 0.929 . S
C2060 C2052 1.378 . S
C2060 C2055 1.350 . S
C2061 H2048 0.929 . S
C2061 C2053 1.433 . S
C2061 N2063 1.384 . S
N2062 C2058 1.427 . S
N2062 C2059 1.384 . S
N2063 C2055 1.427 . S
N2063 C2061 1.384 . S
H2064 C2070 0.930 . S
H2065 C2074 0.930 . S
H2066 C2079 0.929 . S
H2067 C2077 0.929 . S
H2068 C2072 0.929 . S
H2069 C2078 0.929 . S
C2070 H2064 0.930 . S
C2070 C2071 1.367 . S
C2070 C2078 1.378 . S
C2071 C2070 1.367 . S
C2071 C2079 1.433 . S
C2072 H2068 0.929 . S
C2072 C2074 1.378 . S
C2072 C2076 1.350 . S
C2073 C2076 1.463 . S
C2073 C2078 1.350 . S
C2073 N2081 1.427 . S
C2074 H2065 0.930 . S
C2074 C2072 1.378 . S
C2074 C2075 1.367 . S
C2075 C2074 1.367 . S
C2075 C2077 1.433 . S
C2076 C2072 1.350 . S
C2076 C2073 1.463 . S
C2076 N2080 1.427 . S
C2077 H2067 0.929 . S
C2077 C2075 1.433 . S
C2077 N2080 1.384 . S
C2078 H2069 0.929 . S
C2078 C2070 1.378 . S
C2078 C2073 1.350 . S
C2079 H2066 0.929 . S
C2079 C2071 1.433 . S
C2079 N2081 1.384 . S
N2080 C2076 1.427 . S
N2080 C2077 1.384 . S
N2081 C2073 1.427 . S
N2081 C2079 1.384 . S
H2082 C2088 0.930 . S
H2083 C2092 0.930 . S
H2084 C2097 0.929 . S
H2085 C2095 0.929 . S
H2086 C2090 0.929 . S
H2087 C2096 0.929 . S
C2088 H2082 0.930 . S
C2088 C2089 1.367 . S
C2088 C2096 1.378 . S
C2089 C2088 1.367 . S
C2089 C2097 1.433 . S
C2090 H2086 0.929 . S
C2090 C2092 1.378 . S
C2090 C2094 1.350 . S
C2091 C2094 1.463 . S
C2091 C2096 1.350 . S
C2091 N2099 1.427 . S
C2092 H2083 0.930 . S
C2092 C2090 1.378 . S
C2092 C2093 1.367 . S
C2093 C2092 1.367 . S
C2093 C2095 1.433 . S
C2094 C2090 1.350 . S
C2094 C2091 1.463 . S
C2094 N2098 1.427 . S
C2095 H2085 0.929 . S
C2095 C2093 1.433 . S
C2095 N2098 1.384 . S
C2096 H2087 0.929 . S
C2096 C2088 1.378 . S
C2096 C2091 1.350 . S
C2097 H2084 0.929 . S
C2097 C2089 1.433 . S
C2097 N2099 1.384 . S
N2098 C2094 1.427 . S
N2098 C2095 1.384 . S
N2099 C2091 1.427 . S
N2099 C2097 1.384 . S
H2100 C2106 0.930 . S
H2101 C2110 0.930 . S
H2102 C2115 0.929 . S
H2103 C2113 0.929 . S
H2104 C2108 0.929 . S
H2105 C2114 0.929 . S
C2106 H2100 0.930 . S
C2106 C2107 1.367 . S
C2106 C2114 1.378 . S
C2107 C2106 1.367 . S
C2107 C2115 1.433 . S
C2108 H2104 0.929 . S
C2108 C2110 1.378 . S
C2108 C2112 1.350 . S
C2109 C2112 1.463 . S
C2109 C2114 1.350 . S
C2109 N2117 1.427 . S
C2110 H2101 0.930 . S
C2110 C2108 1.378 . S
C2110 C2111 1.367 . S
C2111 C2110 1.367 . S
C2111 C2113 1.433 . S
C2112 C2108 1.350 . S
C2112 C2109 1.463 . S
C2112 N2116 1.427 . S
C2113 H2103 0.929 . S
C2113 C2111 1.433 . S
C2113 N2116 1.384 . S
C2114 H2105 0.929 . S
C2114 C2106 1.378 . S
C2114 C2109 1.350 . S
C2115 H2102 0.929 . S
C2115 C2107 1.433 . S
C2115 N2117 1.384 . S
N2116 C2112 1.427 . S
N2116 C2113 1.384 . S
N2117 C2109 1.427 . S
N2117 C2115 1.384 . S
H2118 C2124 0.930 . S
H2119 C2128 0.930 . S
H2120 C2133 0.929 . S
H2121 C2131 0.929 . S
H2122 C2126 0.929 . S
H2123 C2132 0.929 . S
C2124 H2118 0.930 . S
C2124 C2125 1.367 . S
C2124 C2132 1.378 . S
C2125 C2124 1.367 . S
C2125 C2133 1.433 . S
C2126 H2122 0.929 . S
C2126 C2128 1.378 . S
C2126 C2130 1.350 . S
C2127 C2130 1.463 . S
C2127 C2132 1.350 . S
C2127 N2135 1.427 . S
C2128 H2119 0.930 . S
C2128 C2126 1.378 . S
C2128 C2129 1.367 . S
C2129 C2128 1.367 . S
C2129 C2131 1.433 . S
C2130 C2126 1.350 . S
C2130 C2127 1.463 . S
C2130 N2134 1.427 . S
C2131 H2121 0.929 . S
C2131 C2129 1.433 . S
C2131 N2134 1.384 . S
C2132 H2123 0.929 . S
C2132 C2124 1.378 . S
C2132 C2127 1.350 . S
C2133 H2120 0.929 . S
C2133 C2125 1.433 . S
C2133 N2135 1.384 . S
N2134 C2130 1.427 . S
N2134 C2131 1.384 . S
N2135 C2127 1.427 . S
N2135 C2133 1.384 . S
H2136 C2142 0.930 . S
H2137 C2146 0.930 . S
H2138 C2151 0.929 . S
H2139 C2149 0.929 . S
H2140 C2144 0.929 . S
H2141 C2150 0.929 . S
C2142 H2136 0.930 . S
C2142 C2143 1.367 . S
C2142 C2150 1.378 . S
C2143 C2142 1.367 . S
C2143 C2151 1.433 . S
C2144 H2140 0.929 . S
C2144 C2146 1.378 . S
C2144 C2148 1.350 . S
C2145 C2148 1.463 . S
C2145 C2150 1.350 . S
C2145 N2153 1.427 . S
C2146 H2137 0.930 . S
C2146 C2144 1.378 . S
C2146 C2147 1.367 . S
C2147 C2146 1.367 . S
C2147 C2149 1.433 . S
C2148 C2144 1.350 . S
C2148 C2145 1.463 . S
C2148 N2152 1.427 . S
C2149 H2139 0.929 . S
C2149 C2147 1.433 . S
C2149 N2152 1.384 . S
C2150 H2141 0.929 . S
C2150 C2142 1.378 . S
C2150 C2145 1.350 . S
C2151 H2138 0.929 . S
C2151 C2143 1.433 . S
C2151 N2153 1.384 . S
N2152 C2148 1.427 . S
N2152 C2149 1.384 . S
N2153 C2145 1.427 . S
N2153 C2151 1.384 . S
H2154 C2160 0.930 . S
H2155 C2164 0.930 . S
H2156 C2169 0.929 . S
H2157 C2167 0.929 . S
H2158 C2162 0.929 . S
H2159 C2168 0.929 . S
C2160 H2154 0.930 . S
C2160 C2161 1.367 . S
C2160 C2168 1.378 . S
C2161 C2160 1.367 . S
C2161 C2169 1.433 . S
C2162 H2158 0.929 . S
C2162 C2164 1.378 . S
C2162 C2166 1.350 . S
C2163 C2166 1.463 . S
C2163 C2168 1.350 . S
C2163 N2171 1.427 . S
C2164 H2155 0.930 . S
C2164 C2162 1.378 . S
C2164 C2165 1.367 . S
C2165 C2164 1.367 . S
C2165 C2167 1.433 . S
C2166 C2162 1.350 . S
C2166 C2163 1.463 . S
C2166 N2170 1.427 . S
C2167 H2157 0.929 . S
C2167 C2165 1.433 . S
C2167 N2170 1.384 . S
C2168 H2159 0.929 . S
C2168 C2160 1.378 . S
C2168 C2163 1.350 . S
C2169 H2156 0.929 . S
C2169 C2161 1.433 . S
C2169 N2171 1.384 . S
N2170 C2166 1.427 . S
N2170 C2167 1.384 . S
N2171 C2163 1.427 . S
N2171 C2169 1.384 . S
H2172 C2178 0.930 . S
H2173 C2182 0.930 . S
H2174 C2187 0.929 . S
H2175 C2185 0.929 . S
H2176 C2180 0.929 . S
H2177 C2186 0.929 . S
C2178 H2172 0.930 . S
C2178 C2179 1.367 . S
C2178 C2186 1.378 . S
C2179 C2178 1.367 . S
C2179 C2187 1.433 . S
C2180 H2176 0.929 . S
C2180 C2182 1.378 . S
C2180 C2184 1.350 . S
C2181 C2184 1.463 . S
C2181 C2186 1.350 . S
C2181 N2189 1.427 . S
C2182 H2173 0.930 . S
C2182 C2180 1.378 . S
C2182 C2183 1.367 . S
C2183 C2182 1.367 . S
C2183 C2185 1.433 . S
C2184 C2180 1.350 . S
C2184 C2181 1.463 . S
C2184 N2188 1.427 . S
C2185 H2175 0.929 . S
C2185 C2183 1.433 . S
C2185 N2188 1.384 . S
C2186 H2177 0.929 . S
C2186 C2178 1.378 . S
C2186 C2181 1.350 . S
C2187 H2174 0.929 . S
C2187 C2179 1.433 . S
C2187 N2189 1.384 . S
N2188 C2184 1.427 . S
N2188 C2185 1.384 . S
N2189 C2181 1.427 . S
N2189 C2187 1.384 . S
H2190 C2196 0.930 . S
H2191 C2200 0.930 . S
H2192 C2205 0.929 . S
H2193 C2203 0.929 . S
H2194 C2198 0.929 . S
H2195 C2204 0.929 . S
C2196 H2190 0.930 . S
C2196 C2197 1.367 . S
C2196 C2204 1.378 . S
C2197 C2196 1.367 . S
C2197 C2205 1.433 . S
C2198 H2194 0.929 . S
C2198 C2200 1.378 . S
C2198 C2202 1.350 . S
C2199 C2202 1.463 . S
C2199 C2204 1.350 . S
C2199 N2207 1.427 . S
C2200 H2191 0.930 . S
C2200 C2198 1.378 . S
C2200 C2201 1.367 . S
C2201 C2200 1.367 . S
C2201 C2203 1.433 . S
C2202 C2198 1.350 . S
C2202 C2199 1.463 . S
C2202 N2206 1.427 . S
C2203 H2193 0.929 . S
C2203 C2201 1.433 . S
C2203 N2206 1.384 . S
C2204 H2195 0.929 . S
C2204 C2196 1.378 . S
C2204 C2199 1.350 . S
C2205 H2192 0.929 . S
C2205 C2197 1.433 . S
C2205 N2207 1.384 . S
N2206 C2202 1.427 . S
N2206 C2203 1.384 . S
N2207 C2199 1.427 . S
N2207 C2205 1.384 . S
H2208 C2214 0.930 . S
H2209 C2218 0.930 . S
H2210 C2223 0.929 . S
H2211 C2221 0.929 . S
H2212 C2216 0.929 . S
H2213 C2222 0.929 . S
C2214 H2208 0.930 . S
C2214 C2215 1.367 . S
C2214 C2222 1.378 . S
C2215 C2214 1.367 . S
C2215 C2223 1.433 . S
C2216 H2212 0.929 . S
C2216 C2218 1.378 . S
C2216 C2220 1.350 . S
C2217 C2220 1.463 . S
C2217 C2222 1.350 . S
C2217 N2225 1.427 . S
C2218 H2209 0.930 . S
C2218 C2216 1.378 . S
C2218 C2219 1.367 . S
C2219 C2218 1.367 . S
C2219 C2221 1.433 . S
C2220 C2216 1.350 . S
C2220 C2217 1.463 . S
C2220 N2224 1.427 . S
C2221 H2211 0.929 . S
C2221 C2219 1.433 . S
C2221 N2224 1.384 . S
C2222 H2213 0.929 . S
C2222 C2214 1.378 . S
C2222 C2217 1.350 . S
C2223 H2210 0.929 . S
C2223 C2215 1.433 . S
C2223 N2225 1.384 . S
N2224 C2220 1.427 . S
N2224 C2221 1.384 . S
N2225 C2217 1.427 . S
N2225 C2223 1.384 . S
H2226 C2232 0.930 . S
H2227 C2236 0.930 . S
H2228 C2241 0.929 . S
H2229 C2239 0.929 . S
H2230 C2234 0.929 . S
H2231 C2240 0.929 . S
C2232 H2226 0.930 . S
C2232 C2233 1.367 . S
C2232 C2240 1.378 . S
C2233 C2232 1.367 . S
C2233 C2241 1.433 . S
C2234 H2230 0.929 . S
C2234 C2236 1.378 . S
C2234 C2238 1.350 . S
C2235 C2238 1.463 . S
C2235 C2240 1.350 . S
C2235 N2243 1.427 . S
C2236 H2227 0.930 . S
C2236 C2234 1.378 . S
C2236 C2237 1.367 . S
C2237 C2236 1.367 . S
C2237 C2239 1.433 . S
C2238 C2234 1.350 . S
C2238 C2235 1.463 . S
C2238 N2242 1.427 . S
C2239 H2229 0.929 . S
C2239 C2237 1.433 . S
C2239 N2242 1.384 . S
C2240 H2231 0.929 . S
C2240 C2232 1.378 . S
C2240 C2235 1.350 . S
C2241 H2228 0.929 . S
C2241 C2233 1.433 . S
C2241 N2243 1.384 . S
N2242 C2238 1.427 . S
N2242 C2239 1.384 . S
N2243 C2235 1.427 . S
N2243 C2241 1.384 . S
H2244 C2250 0.930 . S
H2245 C2254 0.930 . S
H2246 C2259 0.929 . S
H2247 C2257 0.929 . S
H2248 C2252 0.929 . S
H2249 C2258 0.929 . S
C2250 H2244 0.930 . S
C2250 C2251 1.367 . S
C2250 C2258 1.378 . S
C2251 C2250 1.367 . S
C2251 C2259 1.433 . S
C2252 H2248 0.929 . S
C2252 C2254 1.378 . S
C2252 C2256 1.350 . S
C2253 C2256 1.463 . S
C2253 C2258 1.350 . S
C2253 N2261 1.427 . S
C2254 H2245 0.930 . S
C2254 C2252 1.378 . S
C2254 C2255 1.367 . S
C2255 C2254 1.367 . S
C2255 C2257 1.433 . S
C2256 C2252 1.350 . S
C2256 C2253 1.463 . S
C2256 N2260 1.427 . S
C2257 H2247 0.929 . S
C2257 C2255 1.433 . S
C2257 N2260 1.384 . S
C2258 H2249 0.929 . S
C2258 C2250 1.378 . S
C2258 C2253 1.350 . S
C2259 H2246 0.929 . S
C2259 C2251 1.433 . S
C2259 N2261 1.384 . S
N2260 C2256 1.427 . S
N2260 C2257 1.384 . S
N2261 C2253 1.427 . S
N2261 C2259 1.384 . S
H2262 C2268 0.930 . S
H2263 C2272 0.930 . S
H2264 C2277 0.929 . S
H2265 C2275 0.929 . S
H2266 C2270 0.929 . S
H2267 C2276 0.929 . S
C2268 H2262 0.930 . S
C2268 C2269 1.367 . S
C2268 C2276 1.378 . S
C2269 C2268 1.367 . S
C2269 C2277 1.433 . S
C2270 H2266 0.929 . S
C2270 C2272 1.378 . S
C2270 C2274 1.350 . S
C2271 C2274 1.463 . S
C2271 C2276 1.350 . S
C2271 N2279 1.427 . S
C2272 H2263 0.930 . S
C2272 C2270 1.378 . S
C2272 C2273 1.367 . S
C2273 C2272 1.367 . S
C2273 C2275 1.433 . S
C2274 C2270 1.350 . S
C2274 C2271 1.463 . S
C2274 N2278 1.427 . S
C2275 H2265 0.929 . S
C2275 C2273 1.433 . S
C2275 N2278 1.384 . S
C2276 H2267 0.929 . S
C2276 C2268 1.378 . S
C2276 C2271 1.350 . S
C2277 H2264 0.929 . S
C2277 C2269 1.433 . S
C2277 N2279 1.384 . S
N2278 C2274 1.427 . S
N2278 C2275 1.384 . S
N2279 C2271 1.427 . S
N2279 C2277 1.384 . S
H2280 C2286 0.930 . S
H2281 C2290 0.930 . S
H2282 C2295 0.929 . S
H2283 C2293 0.929 . S
H2284 C2288 0.929 . S
H2285 C2294 0.929 . S
C2286 H2280 0.930 . S
C2286 C2287 1.367 . S
C2286 C2294 1.378 . S
C2287 C2286 1.367 . S
C2287 C2295 1.433 . S
C2288 H2284 0.929 . S
C2288 C2290 1.378 . S
C2288 C2292 1.350 . S
C2289 C2292 1.463 . S
C2289 C2294 1.350 . S
C2289 N2297 1.427 . S
C2290 H2281 0.930 . S
C2290 C2288 1.378 . S
C2290 C2291 1.367 . S
C2291 C2290 1.367 . S
C2291 C2293 1.433 . S
C2292 C2288 1.350 . S
C2292 C2289 1.463 . S
C2292 N2296 1.427 . S
C2293 H2283 0.929 . S
C2293 C2291 1.433 . S
C2293 N2296 1.384 . S
C2294 H2285 0.929 . S
C2294 C2286 1.378 . S
C2294 C2289 1.350 . S
C2295 H2282 0.929 . S
C2295 C2287 1.433 . S
C2295 N2297 1.384 . S
N2296 C2292 1.427 . S
N2296 C2293 1.384 . S
N2297 C2289 1.427 . S
N2297 C2295 1.384 . S
H2298 C2304 0.930 . S
H2299 C2308 0.930 . S
H2300 C2313 0.929 . S
H2301 C2311 0.929 . S
H2302 C2306 0.929 . S
H2303 C2312 0.929 . S
C2304 H2298 0.930 . S
C2304 C2305 1.367 . S
C2304 C2312 1.378 . S
C2305 C2304 1.367 . S
C2305 C2313 1.433 . S
C2306 H2302 0.929 . S
C2306 C2308 1.378 . S
C2306 C2310 1.350 . S
C2307 C2310 1.463 . S
C2307 C2312 1.350 . S
C2307 N2315 1.427 . S
C2308 H2299 0.930 . S
C2308 C2306 1.378 . S
C2308 C2309 1.367 . S
C2309 C2308 1.367 . S
C2309 C2311 1.433 . S
C2310 C2306 1.350 . S
C2310 C2307 1.463 . S
C2310 N2314 1.427 . S
C2311 H2301 0.929 . S
C2311 C2309 1.433 . S
C2311 N2314 1.384 . S
C2312 H2303 0.929 . S
C2312 C2304 1.378 . S
C2312 C2307 1.350 . S
C2313 H2300 0.929 . S
C2313 C2305 1.433 . S
C2313 N2315 1.384 . S
N2314 C2310 1.427 . S
N2314 C2311 1.384 . S
N2315 C2307 1.427 . S
N2315 C2313 1.384 . S
H2316 C2322 0.930 . S
H2317 C2326 0.930 . S
H2318 C2331 0.929 . S
H2319 C2329 0.929 . S
H2320 C2324 0.929 . S
H2321 C2330 0.929 . S
C2322 H2316 0.930 . S
C2322 C2323 1.367 . S
C2322 C2330 1.378 . S
C2323 C2322 1.367 . S
C2323 C2331 1.433 . S
C2324 H2320 0.929 . S
C2324 C2326 1.378 . S
C2324 C2328 1.350 . S
C2325 C2328 1.463 . S
C2325 C2330 1.350 . S
C2325 N2333 1.427 . S
C2326 H2317 0.930 . S
C2326 C2324 1.378 . S
C2326 C2327 1.367 . S
C2327 C2326 1.367 . S
C2327 C2329 1.433 . S
C2328 C2324 1.350 . S
C2328 C2325 1.463 . S
C2328 N2332 1.427 . S
C2329 H2319 0.929 . S
C2329 C2327 1.433 . S
C2329 N2332 1.384 . S
C2330 H2321 0.929 . S
C2330 C2322 1.378 . S
C2330 C2325 1.350 . S
C2331 H2318 0.929 . S
C2331 C2323 1.433 . S
C2331 N2333 1.384 . S
N2332 C2328 1.427 . S
N2332 C2329 1.384 . S
N2333 C2325 1.427 . S
N2333 C2331 1.384 . S
H2334 C2340 0.930 . S
H2335 C2344 0.930 . S
H2336 C2349 0.929 . S
H2337 C2347 0.929 . S
H2338 C2342 0.929 . S
H2339 C2348 0.929 . S
C2340 H2334 0.930 . S
C2340 C2341 1.367 . S
C2340 C2348 1.378 . S
C2341 C2340 1.367 . S
C2341 C2349 1.433 . S
C2342 H2338 0.929 . S
C2342 C2344 1.378 . S
C2342 C2346 1.350 . S
C2343 C2346 1.463 . S
C2343 C2348 1.350 . S
C2343 N2351 1.427 . S
C2344 H2335 0.930 . S
C2344 C2342 1.378 . S
C2344 C2345 1.367 . S
C2345 C2344 1.367 . S
C2345 C2347 1.433 . S
C2346 C2342 1.350 . S
C2346 C2343 1.463 . S
C2346 N2350 1.427 . S
C2347 H2337 0.929 . S
C2347 C2345 1.433 . S
C2347 N2350 1.384 . S
C2348 H2339 0.929 . S
C2348 C2340 1.378 . S
C2348 C2343 1.350 . S
C2349 H2336 0.929 . S
C2349 C2341 1.433 . S
C2349 N2351 1.384 . S
N2350 C2346 1.427 . S
N2350 C2347 1.384 . S
N2351 C2343 1.427 . S
N2351 C2349 1.384 . S
H2352 C2358 0.930 . S
H2353 C2362 0.930 . S
H2354 C2367 0.929 . S
H2355 C2365 0.929 . S
H2356 C2360 0.929 . S
H2357 C2366 0.929 . S
C2358 H2352 0.930 . S
C2358 C2359 1.367 . S
C2358 C2366 1.378 . S
C2359 C2358 1.367 . S
C2359 C2367 1.433 . S
C2360 H2356 0.929 . S
C2360 C2362 1.378 . S
C2360 C2364 1.350 . S
C2361 C2364 1.463 . S
C2361 C2366 1.350 . S
C2361 N2369 1.427 . S
C2362 H2353 0.930 . S
C2362 C2360 1.378 . S
C2362 C2363 1.367 . S
C2363 C2362 1.367 . S
C2363 C2365 1.433 . S
C2364 C2360 1.350 . S
C2364 C2361 1.463 . S
C2364 N2368 1.427 . S
C2365 H2355 0.929 . S
C2365 C2363 1.433 . S
C2365 N2368 1.384 . S
C2366 H2357 0.929 . S
C2366 C2358 1.378 . S
C2366 C2361 1.350 . S
C2367 H2354 0.929 . S
C2367 C2359 1.433 . S
C2367 N2369 1.384 . S
N2368 C2364 1.427 . S
N2368 C2365 1.384 . S
N2369 C2361 1.427 . S
N2369 C2367 1.384 . S
H2370 C2376 0.930 . S
H2371 C2380 0.930 . S
H2372 C2385 0.929 . S
H2373 C2383 0.929 . S
H2374 C2378 0.929 . S
H2375 C2384 0.929 . S
C2376 H2370 0.930 . S
C2376 C2377 1.367 . S
C2376 C2384 1.378 . S
C2377 C2376 1.367 . S
C2377 C2385 1.433 . S
C2378 H2374 0.929 . S
C2378 C2380 1.378 . S
C2378 C2382 1.350 . S
C2379 C2382 1.463 . S
C2379 C2384 1.350 . S
C2379 N2387 1.427 . S
C2380 H2371 0.930 . S
C2380 C2378 1.378 . S
C2380 C2381 1.367 . S
C2381 C2380 1.367 . S
C2381 C2383 1.433 . S
C2382 C2378 1.350 . S
C2382 C2379 1.463 . S
C2382 N2386 1.427 . S
C2383 H2373 0.929 . S
C2383 C2381 1.433 . S
C2383 N2386 1.384 . S
C2384 H2375 0.929 . S
C2384 C2376 1.378 . S
C2384 C2379 1.350 . S
C2385 H2372 0.929 . S
C2385 C2377 1.433 . S
C2385 N2387 1.384 . S
N2386 C2382 1.427 . S
N2386 C2383 1.384 . S
N2387 C2379 1.427 . S
N2387 C2385 1.384 . S
H2388 C2394 0.930 . S
H2389 C2398 0.930 . S
H2390 C2403 0.929 . S
H2391 C2401 0.929 . S
H2392 C2396 0.929 . S
H2393 C2402 0.929 . S
C2394 H2388 0.930 . S
C2394 C2395 1.367 . S
C2394 C2402 1.378 . S
C2395 C2394 1.367 . S
C2395 C2403 1.433 . S
C2396 H2392 0.929 . S
C2396 C2398 1.378 . S
C2396 C2400 1.350 . S
C2397 C2400 1.463 . S
C2397 C2402 1.350 . S
C2397 N2405 1.427 . S
C2398 H2389 0.930 . S
C2398 C2396 1.378 . S
C2398 C2399 1.367 . S
C2399 C2398 1.367 . S
C2399 C2401 1.433 . S
C2400 C2396 1.350 . S
C2400 C2397 1.463 . S
C2400 N2404 1.427 . S
C2401 H2391 0.929 . S
C2401 C2399 1.433 . S
C2401 N2404 1.384 . S
C2402 H2393 0.929 . S
C2402 C2394 1.378 . S
C2402 C2397 1.350 . S
C2403 H2390 0.929 . S
C2403 C2395 1.433 . S
C2403 N2405 1.384 . S
N2404 C2400 1.427 . S
N2404 C2401 1.384 . S
N2405 C2397 1.427 . S
N2405 C2403 1.384 . S
H2406 C2412 0.930 . S
H2407 C2416 0.930 . S
H2408 C2421 0.929 . S
H2409 C2419 0.929 . S
H2410 C2414 0.929 . S
H2411 C2420 0.929 . S
C2412 H2406 0.930 . S
C2412 C2413 1.367 . S
C2412 C2420 1.378 . S
C2413 C2412 1.367 . S
C2413 C2421 1.433 . S
C2414 H2410 0.929 . S
C2414 C2416 1.378 . S
C2414 C2418 1.350 . S
C2415 C2418 1.463 . S
C2415 C2420 1.350 . S
C2415 N2423 1.427 . S
C2416 H2407 0.930 . S
C2416 C2414 1.378 . S
C2416 C2417 1.367 . S
C2417 C2416 1.367 . S
C2417 C2419 1.433 . S
C2418 C2414 1.350 . S
C2418 C2415 1.463 . S
C2418 N2422 1.427 . S
C2419 H2409 0.929 . S
C2419 C2417 1.433 . S
C2419 N2422 1.384 . S
C2420 H2411 0.929 . S
C2420 C2412 1.378 . S
C2420 C2415 1.350 . S
C2421 H2408 0.929 . S
C2421 C2413 1.433 . S
C2421 N2423 1.384 . S
N2422 C2418 1.427 . S
N2422 C2419 1.384 . S
N2423 C2415 1.427 . S
N2423 C2421 1.384 . S
H2424 C2430 0.930 . S
H2425 C2434 0.930 . S
H2426 C2439 0.929 . S
H2427 C2437 0.929 . S
H2428 C2432 0.929 . S
H2429 C2438 0.929 . S
C2430 H2424 0.930 . S
C2430 C2431 1.367 . S
C2430 C2438 1.378 . S
C2431 C2430 1.367 . S
C2431 C2439 1.433 . S
C2432 H2428 0.929 . S
C2432 C2434 1.378 . S
C2432 C2436 1.350 . S
C2433 C2436 1.463 . S
C2433 C2438 1.350 . S
C2433 N2441 1.427 . S
C2434 H2425 0.930 . S
C2434 C2432 1.378 . S
C2434 C2435 1.367 . S
C2435 C2434 1.367 . S
C2435 C2437 1.433 . S
C2436 C2432 1.350 . S
C2436 C2433 1.463 . S
C2436 N2440 1.427 . S
C2437 H2427 0.929 . S
C2437 C2435 1.433 . S
C2437 N2440 1.384 . S
C2438 H2429 0.929 . S
C2438 C2430 1.378 . S
C2438 C2433 1.350 . S
C2439 H2426 0.929 . S
C2439 C2431 1.433 . S
C2439 N2441 1.384 . S
N2440 C2436 1.427 . S
N2440 C2437 1.384 . S
N2441 C2433 1.427 . S
N2441 C2439 1.384 . S
H2442 C2448 0.930 . S
H2443 C2452 0.930 . S
H2444 C2457 0.929 . S
H2445 C2455 0.929 . S
H2446 C2450 0.929 . S
H2447 C2456 0.929 . S
C2448 H2442 0.930 . S
C2448 C2449 1.367 . S
C2448 C2456 1.378 . S
C2449 C2448 1.367 . S
C2449 C2457 1.433 . S
C2450 H2446 0.929 . S
C2450 C2452 1.378 . S
C2450 C2454 1.350 . S
C2451 C2454 1.463 . S
C2451 C2456 1.350 . S
C2451 N2459 1.427 . S
C2452 H2443 0.930 . S
C2452 C2450 1.378 . S
C2452 C2453 1.367 . S
C2453 C2452 1.367 . S
C2453 C2455 1.433 . S
C2454 C2450 1.350 . S
C2454 C2451 1.463 . S
C2454 N2458 1.427 . S
C2455 H2445 0.929 . S
C2455 C2453 1.433 . S
C2455 N2458 1.384 . S
C2456 H2447 0.929 . S
C2456 C2448 1.378 . S
C2456 C2451 1.350 . S
C2457 H2444 0.929 . S
C2457 C2449 1.433 . S
C2457 N2459 1.384 . S
N2458 C2454 1.427 . S
N2458 C2455 1.384 . S
N2459 C2451 1.427 . S
N2459 C2457 1.384 . S
C1175 C870 1.043 . S
C1171 C859 1.038 . S
C1189 C787 1.040 . S
C1193 C868 1.041 . S
C1211 C869 1.043 . S
C1207 C751 1.040 . S
C1225 C823 1.040 . S
C1229 C871 1.044 . S
C1247 C915 1.042 . S
C1243 C607 1.036 . S
C1265 C975 1.043 . S
C1261 C643 1.043 . S
C1279 C679 1.038 . S
C1283 C914 1.041 . S
C1301 C974 1.042 . S
C1297 C715 1.037 . S
C1315 C463 1.044 . S
C1319 C916 1.043 . S
C1337 C972 1.040 . S
C1333 C499 1.041 . S
C1351 C535 1.040 . S
C1355 C917 1.043 . S
C1369 C571 1.041 . S
C1373 C973 1.041 . S
C1391 C1023 1.042 . S
C1387 C427 1.038 1_554 S
C1405 C355 1.037 1_554 S
C1409 C1022 1.041 . S
C1423 C319 1.043 . S
C1427 C1024 1.042 . S
C1445 C1025 1.045 . S
C1441 C391 1.039 1_554 S
C1459 C175 1.039 1_455 S
C1463 C1066 1.041 1_655 S
C1477 C211 1.041 . S
C1481 C1125 1.043 1_565 S
C1495 C247 1.040 1_655 S
C1499 C1064 1.040 . S
C1513 C283 1.039 1_545 S
C1517 C1124 1.042 1_565 S
C1535 C1065 1.043 . S
C1531 C31 1.041 1_455 S
C1553 C1122 1.040 1_565 S
C1549 C67 1.038 1_545 S
C1567 C103 1.043 . S
C1571 C1067 1.044 . S
C1589 C1123 1.041 . S
C1585 C139 1.040 1_565 S
C1607 C867 1.943 . S
C1603 C25 1.793 . S
C1621 C61 1.777 1_545 S
C1625 C873 1.935 1_565 S
C1639 C97 1.798 . S
C1643 C865 1.945 . S
C1657 C133 1.785 1_565 S
C1661 C872 1.938 . S
C1675 C169 1.791 1_455 S
C1679 C864 1.942 1_655 S
C1697 C874 1.941 . S
C1693 C181 1.845 1_565 S
C1711 C241 1.782 . S
C1715 C866 1.938 1_655 S
C1733 C875 1.939 1_565 S
C1729 C253 1.841 1_545 S
C1751 C921 1.935 1_565 S
C1747 C109 1.831 . S
C1765 C1 1.841 1_455 S
C1769 C964 1.941 1_655 S
C1787 C919 1.936 . S
C1783 C37 1.834 . S
C1805 C966 1.938 . S
C1801 C73 1.834 1_655 S
C1819 C205 1.780 . S
C1823 C920 1.937 1_565 S
C1841 C965 1.936 . S
C1837 C217 1.831 . S
C1859 C918 1.937 1_565 S
C1855 C277 1.782 1_545 S
C1877 C967 1.940 . S
C1873 C145 1.842 . S
C1895 C971 1.939 1_556 S
C1891 C289 1.838 . S
C1909 C325 1.833 1_554 S
C1913 C970 1.938 . S
C1931 C922 1.939 . S
C1927 C313 1.782 . S
C1949 C969 1.940 . S
C1945 C361 1.838 1_554 S
C1963 C397 1.839 1_554 S
C1967 C925 1.941 . S
C1981 C421 1.780 1_554 S
C1985 C968 1.938 . S
C2003 C924 1.943 . S
C1999 C349 1.791 1_554 S
C2021 C923 1.943 . S
C2017 C385 1.792 1_554 S
C2039 C1017 1.938 . S
C2035 C457 1.779 . S
C2057 C1020 1.936 . S
C2053 C493 1.781 . S
C2071 C529 1.785 . S
C2075 C1016 1.941 . S
C2093 C1018 1.937 . S
C2089 C565 1.779 . S
C2111 C1014 1.943 . S
C2107 C601 1.796 . S
C2125 C613 1.835 . S
C2129 C1019 1.938 . S
C2143 C673 1.783 . S
C2147 C1015 1.939 . S
C2165 C1021 1.938 . S
C2161 C685 1.836 . S
C2183 C1075 1.938 . S
C2179 C541 1.837 . S
C2197 C433 1.832 . S
C2201 C1114 1.937 . S
C2219 C1074 1.936 . S
C2215 C469 1.832 . S
C2237 C1116 1.942 . S
C2233 C505 1.844 . S
C2255 C1073 1.939 . S
C2251 C637 1.786 . S
C2269 C649 1.839 . S
C2273 C1115 1.940 . S
C2291 C1072 1.938 . S
C2287 C709 1.781 . S
C2309 C1117 1.937 . S
C2305 C577 1.835 . S
C2327 C1121 1.942 . S
C2323 C721 1.843 . S
C2341 C757 1.839 . S
C2345 C1120 1.939 . S
C2363 C1068 1.942 . S
C2359 C745 1.788 . S
C2377 C793 1.847 . S
C2381 C1119 1.943 . S
C2399 C1071 1.943 . S
C2395 C829 1.846 . S
C2417 C1118 1.942 . S
C2413 C853 1.791 . S
C2435 C1069 1.941 . S
C2431 C781 1.789 . S
C2449 C817 1.788 . S
C2453 C1070 1.942 . S
