# Generated by pormake.
# Topology zzz, (3,6)-cn, num edge types: 1
# Building blocks:
#     Node 0, Type 0, BuildingBlock: BETDAH_clean_linker_0, # of connection points: 3
#     Node 1, Type 0, BuildingBlock: BETDAH_clean_linker_0, # of connection points: 3
#     Node 2, Type 0, BuildingBlock: BETDAH_clean_linker_0, # of connection points: 3
#     Node 3, Type 0, BuildingBlock: BETDAH_clean_linker_0, # of connection points: 3
#     Node 4, Type 0, BuildingBlock: BETDAH_clean_linker_0, # of connection points: 3
#     Node 5, Type 0, BuildingBlock: BETDAH_clean_linker_0, # of connection points: 3
#     Node 6, Type 0, BuildingBlock: BETDAH_clean_linker_0, # of connection points: 3
#     Node 7, Type 0, BuildingBlock: BETDAH_clean_linker_0, # of connection points: 3
#     Node 8, Type 1, BuildingBlock: CUKXOW_clean_sbu_0, # of connection points: 6
#     Node 9, Type 1, BuildingBlock: CUKXOW_clean_sbu_0, # of connection points: 6
#     Node 10, Type 1, BuildingBlock: CUKXOW_clean_sbu_0, # of connection points: 6
#     Node 11, Type 1, BuildingBlock: CUKXOW_clean_sbu_0, # of connection points: 6
#     Edge 12, Type (0, 1), BuildingBlock: CIFDUS_clean_linker_0, # of connection points: 2
#     Edge 13, Type (0, 1), BuildingBlock: CIFDUS_clean_linker_0, # of connection points: 2
#     Edge 14, Type (0, 1), BuildingBlock: CIFDUS_clean_linker_0, # of connection points: 2
#     Edge 15, Type (0, 1), BuildingBlock: CIFDUS_clean_linker_0, # of connection points: 2
#     Edge 16, Type (0, 1), BuildingBlock: CIFDUS_clean_linker_0, # of connection points: 2
#     Edge 17, Type (0, 1), BuildingBlock: CIFDUS_clean_linker_0, # of connection points: 2
#     Edge 18, Type (0, 1), BuildingBlock: CIFDUS_clean_linker_0, # of connection points: 2
#     Edge 19, Type (0, 1), BuildingBlock: CIFDUS_clean_linker_0, # of connection points: 2
#     Edge 20, Type (0, 1), BuildingBlock: CIFDUS_clean_linker_0, # of connection points: 2
#     Edge 21, Type (0, 1), BuildingBlock: CIFDUS_clean_linker_0, # of connection points: 2
#     Edge 22, Type (0, 1), BuildingBlock: CIFDUS_clean_linker_0, # of connection points: 2
#     Edge 23, Type (0, 1), BuildingBlock: CIFDUS_clean_linker_0, # of connection points: 2
#     Edge 24, Type (0, 1), BuildingBlock: CIFDUS_clean_linker_0, # of connection points: 2
#     Edge 25, Type (0, 1), BuildingBlock: CIFDUS_clean_linker_0, # of connection points: 2
#     Edge 26, Type (0, 1), BuildingBlock: CIFDUS_clean_linker_0, # of connection points: 2
#     Edge 27, Type (0, 1), BuildingBlock: CIFDUS_clean_linker_0, # of connection points: 2
#     Edge 28, Type (0, 1), BuildingBlock: CIFDUS_clean_linker_0, # of connection points: 2
#     Edge 29, Type (0, 1), BuildingBlock: CIFDUS_clean_linker_0, # of connection points: 2
#     Edge 30, Type (0, 1), BuildingBlock: CIFDUS_clean_linker_0, # of connection points: 2
#     Edge 31, Type (0, 1), BuildingBlock: CIFDUS_clean_linker_0, # of connection points: 2
#     Edge 32, Type (0, 1), BuildingBlock: CIFDUS_clean_linker_0, # of connection points: 2
#     Edge 33, Type (0, 1), BuildingBlock: CIFDUS_clean_linker_0, # of connection points: 2
#     Edge 34, Type (0, 1), BuildingBlock: CIFDUS_clean_linker_0, # of connection points: 2
#     Edge 35, Type (0, 1), BuildingBlock: CIFDUS_clean_linker_0, # of connection points: 2
# Relax obj value: 0.064
# Max RMSD: 0.119
# Mean RMSD: 0.081
data_MOF--net-zzz--node1-CUKXOW_clean_sbu_0--node2-BETDAH_clean_linker_0--edge1-CIFDUS_clean_linker_0
_symmetry_space_group_name_H-M    P1
_symmetry_Int_Tables_number       1
_symmetry_cell_setting            triclinic
loop_
_symmetry_equiv_pos_as_xyz
'x, y, z'
_cell_length_a     44.266756
_cell_length_b     46.097848
_cell_length_c     14.17505
_cell_angle_alpha  93.411256
_cell_angle_beta   86.386225
_cell_angle_gamma 93.798164
loop_
_atom_site_label
_atom_site_type_symbol
_atom_site_fract_x
_atom_site_fract_y
_atom_site_fract_z
_atom_type_partial_charge
H0 H 0.85979 0.51566 0.1148 0.0
H1 H 0.77889 0.50742 0.96022 0.0
H2 H 0.77358 0.52702 0.26274 0.0
C3 C 0.83531 0.51606 0.11387 0.0
C4 C 0.81844 0.52237 0.19813 0.0
C5 C 0.82136 0.51027 0.02836 0.0
C6 C 0.78971 0.51139 0.02659 0.0
C7 C 0.77234 0.51729 0.11209 0.0
C8 C 0.78688 0.52242 0.19735 0.0
N9 N 0.74032 0.51838 0.11659 0.0
C10 C 0.72193 0.51527 0.04031 0.0
H11 H 0.97204 0.85168 0.92631 0.0
H12 H 0.03918 0.78848 0.88148 0.0
H13 H 1.00208 0.80864 0.16101 0.0
C14 C 0.98541 0.83568 0.95396 0.0
C15 C 0.98574 0.8339 0.05211 0.0
C16 C 0.00729 0.82222 0.89349 0.0
C17 C 0.02242 0.79942 0.92712 0.0
C18 C 0.01796 0.79289 0.02301 0.0
C19 C 1.00142 0.81139 0.08594 0.0
N20 N 0.03296 0.77032 0.06029 0.0
C21 C 0.0355 0.74316 0.01366 0.0
H22 H 0.65315 0.99254 0.18488 0.0
H23 H 0.72603 0.97696 0.9765 0.0
H24 H 0.73571 0.96136 0.27015 0.0
C25 C 0.67586 0.98569 0.1663 0.0
C26 C 0.69311 0.97735 0.23793 0.0
C27 C 0.68687 0.98474 0.0715 0.0
C28 C 0.71694 0.97743 0.0493 0.0
C29 C 0.73468 0.96912 0.12147 0.0
C30 C 0.72229 0.96821 0.21509 0.0
N31 N 0.76462 0.96051 0.10155 0.0
C32 C 0.78551 0.9748 0.04034 0.0
H33 H 0.58712 0.66045 0.03614 0.0
H34 H 0.55512 0.74286 0.97638 0.0
H35 H 0.56223 0.72097 0.2644 0.0
C36 C 0.58092 0.68216 0.0606 0.0
C37 C 0.57461 0.68789 0.15732 0.0
C38 C 0.57178 0.70081 -0.00506 0.0
C39 C 0.56292 0.72862 0.02654 0.0
C40 C 0.56199 0.73678 0.12434 0.0
C41 C 0.56675 0.71591 0.1894 0.0
N42 N 0.55327 0.76454 0.16074 0.0
C43 C 0.54913 0.78791 0.10637 0.0
H44 H 0.17941 0.48509 0.3315 0.0
H45 H 0.26153 0.52531 0.43748 0.0
H46 H 0.25845 0.49655 0.14303 0.0
C47 C 0.20353 0.49071 0.32022 0.0
C48 C 0.21709 0.48848 0.22867 0.0
C49 C 0.21903 0.50456 0.39493 0.0
C50 C 0.24975 0.51383 0.38037 0.0
C51 C 0.26437 0.50978 0.28939 0.0
C52 C 0.24773 0.49773 0.21393 0.0
N53 N 0.29491 0.51976 0.26863 0.0
C54 C 0.31625 0.52619 0.33563 0.0
H55 H 0.98259 0.17529 0.38176 0.0
H56 H 0.01806 0.25447 0.52044 0.0
H57 H 0.02028 0.2455 0.21646 0.0
C58 C 0.99211 0.19752 0.37733 0.0
C59 C 1.00126 0.20797 0.28881 0.0
C60 C 0.9997 0.21325 0.46079 0.0
C61 C 0.01156 0.24223 0.45649 0.0
C62 C 0.01705 0.25444 0.3674 0.0
C63 C 0.01306 0.23685 0.28425 0.0
N64 N 0.02994 0.28314 0.35805 0.0
C65 C 0.02273 0.30681 0.41851 0.0
H66 H 0.3532 0.9857 0.26656 0.0
H67 H 0.28097 0.02155 0.44448 0.0
H68 H 0.27525 0.01369 0.14127 0.0
C69 C 0.33074 0.99402 0.27468 0.0
C70 C 0.31511 0.99751 0.19418 0.0
C71 C 0.31926 1.00349 0.36457 0.0
C72 C 0.29009 0.01411 0.37519 0.0
C73 C 0.27387 0.01723 0.29407 0.0
C74 C 0.28696 0.00981 0.20377 0.0
N75 N 0.24587 0.03057 0.30009 0.0
C76 C 0.22164 0.02268 0.36226 0.0
H77 H 0.4797 0.35998 0.31589 0.0
H78 H 0.47611 0.27912 0.45319 0.0
H79 H 0.42871 0.28547 0.19872 0.0
C80 C 0.47169 0.33725 0.31853 0.0
C81 C 0.45305 0.32477 0.24923 0.0
C82 C 0.48018 0.32103 0.39164 0.0
C83 C 0.47009 0.29155 0.39543 0.0
C84 C 0.45147 0.27864 0.32495 0.0
C85 C 0.44305 0.2954 0.25253 0.0
N86 N 0.43998 0.24921 0.32552 0.0
C87 C 0.45277 0.22754 0.37072 0.0
Tb88 Tb 0.99 1.00084 0.58048 0.0
C89 C 0.05784 0.0201 0.62228 0.0
Tb90 Tb 0.00464 0.03292 0.77144 0.0
O91 O 0.00658 0.03912 0.50356 0.0
O92 O 0.98779 0.04347 0.64261 0.0
O93 O 0.03951 1.00024 0.579 0.0
C94 C 0.00892 0.07337 0.91182 0.0
O95 O 0.04792 0.03835 0.69148 0.0
C96 C 0.01157 0.97659 0.75475 0.0
C97 C 0.93578 0.01333 0.73286 0.0
O98 O 0.00538 0.0455 0.92226 0.0
O99 O 0.01021 0.07843 0.82259 0.0
O100 O 0.02787 0.99431 0.809 0.0
O101 O 0.99197 0.99065 0.7213 0.0
O102 O 0.95526 0.02675 0.79162 0.0
O103 O 0.94421 1.00198 0.64734 0.0
C104 C 0.97602 0.9562 0.46187 0.0
O105 O 0.96766 0.98253 0.45442 0.0
O106 O 0.99293 0.95554 0.5328 0.0
C107 C 1.00136 0.05704 0.57643 0.0
Tb108 Tb 0.50498 0.03767 0.69165 0.0
C109 C 0.55916 1.00283 0.60564 0.0
Tb110 Tb 0.50716 0.97288 0.74009 0.0
O111 O 0.54654 0.04944 0.76533 0.0
O112 O 0.51744 0.01442 0.80559 0.0
O113 O 0.54192 0.02474 0.59462 0.0
C114 C 0.52031 0.92263 0.80765 0.0
O115 O 0.55119 0.98159 0.66353 0.0
C116 C 0.46839 0.98257 0.61558 0.0
C117 C 0.45246 0.00823 0.82345 0.0
O118 O 0.51754 0.92688 0.71887 0.0
O119 O 0.51568 0.94657 0.85761 0.0
O120 O 0.46605 0.96002 0.6669 0.0
O121 O 0.49378 0.99607 0.62692 0.0
O122 O 0.46916 0.98587 0.83472 0.0
O123 O 0.4609 0.02922 0.76538 0.0
C124 C 0.49225 0.0891 0.6328 0.0
O125 O 0.49456 0.08326 0.72044 0.0
O126 O 0.49697 0.06596 0.57848 0.0
C127 C 0.54289 0.02737 0.81855 0.0
Tb128 Tb 0.52577 0.52547 0.64951 0.0
C129 C 0.45313 0.51858 0.66369 0.0
Tb130 Tb 0.49183 0.49692 0.82361 0.0
O131 O 0.54262 0.48305 0.59653 0.0
O132 O 0.50281 0.48569 0.68042 0.0
O133 O 0.47829 0.53029 0.62013 0.0
C134 C 0.4637 0.45657 0.92915 0.0
O135 O 0.45323 0.50369 0.74138 0.0
C136 C 0.51104 0.55178 0.84902 0.0
C137 C 0.56332 0.5033 0.80879 0.0
O138 O 0.45775 0.48396 0.93501 0.0
O139 O 0.48558 0.45234 0.86571 0.0
O140 O 0.50513 0.53459 0.91834 0.0
O141 O 0.50178 0.5389 0.77506 0.0
O142 O 0.53882 0.48777 0.84009 0.0
O143 O 0.56254 0.5225 0.74306 0.0
C144 C 0.54856 0.56614 0.53533 0.0
O145 O 0.53341 0.54224 0.5081 0.0
O146 O 0.55108 0.56678 0.62591 0.0
C147 C 0.52119 0.4682 0.64348 0.0
Tb148 Tb 0.99968 0.53051 0.63383 0.0
C149 C 0.02539 0.46874 0.64239 0.0
Tb150 Tb 0.04124 0.51874 0.79342 0.0
O151 O 0.03704 0.52626 0.52477 0.0
O152 O 0.04539 0.53899 0.66409 0.0
O153 O 1.00197 0.483 0.61947 0.0
C154 C 0.09054 0.51652 0.88946 0.0
O155 O 0.04633 0.48075 0.69768 0.0
C156 C 0.98385 0.5005 0.81688 0.0
C157 C 0.01608 0.5814 0.78979 0.0
O158 O 0.063 0.51023 0.92281 0.0
O159 O 0.09014 0.52467 0.80386 0.0
O160 O 0.00574 0.48826 0.85321 0.0
O161 O 0.99457 0.52315 0.77891 0.0
O162 O 0.03324 0.56415 0.83281 0.0
O163 O 1.00037 0.57254 0.71491 0.0
C164 C 0.95209 0.54082 0.53833 0.0
O165 O 0.9782 0.5555 0.53336 0.0
O166 O 0.95294 0.5201 0.59611 0.0
C167 C 0.05778 0.53106 0.5857 0.0
H168 H 0.19475 0.05517 0.50235 0.0
H169 H 0.18458 0.97503 0.33204 0.0
H170 H 0.13278 0.96615 0.40078 0.0
H171 H 0.08933 0.98307 0.50132 0.0
H172 H 0.09964 0.06378 0.67052 0.0
H173 H 0.15231 0.07047 0.61094 0.0
C174 C 0.18127 0.03553 0.482 0.0
C175 C 0.19318 0.0156 0.41336 0.0
C176 C 0.15146 0.03085 0.52089 0.0
C177 C 0.17569 0.99043 0.38585 0.0
C178 C 0.14609 0.98548 0.42461 0.0
C179 C 0.10312 1.00204 0.52558 0.0
C180 C 0.09037 0.02294 0.5899 0.0
C181 C 0.13352 0.00584 0.49088 0.0
C182 C 0.10874 0.04729 0.62106 0.0
C183 C 0.13893 0.05121 0.58691 0.0
H184 H 0.45556 0.21516 0.55324 0.0
H185 H 0.4738 0.18244 0.26574 0.0
H186 H 0.4882 0.13631 0.32154 0.0
H187 H 0.49352 0.10467 0.45189 0.0
H188 H 0.47585 0.13714 0.74027 0.0
H189 H 0.46327 0.18398 0.68502 0.0
C190 C 0.46306 0.19795 0.50341 0.0
C191 C 0.46385 0.20186 0.40597 0.0
C192 C 0.47112 0.17147 0.53616 0.0
C193 C 0.47329 0.17965 0.34123 0.0
C194 C 0.48137 0.15332 0.37304 0.0
C195 C 0.48698 0.12205 0.50253 0.0
C196 C 0.4854 0.11752 0.59979 0.0
C197 C 0.48001 0.14887 0.47026 0.0
C198 C 0.47712 0.14019 0.66491 0.0
C199 C 0.46994 0.16694 0.63338 0.0
H200 H 0.32262 0.50434 0.50404 0.0
H201 H 0.36686 0.55917 0.29462 0.0
H202 H 0.41317 0.56351 0.38175 0.0
H203 H 0.44205 0.5486 0.51075 0.0
H204 H 0.39789 0.49301 0.71966 0.0
H205 H 0.3506 0.49232 0.64032 0.0
C206 C 0.34233 0.51758 0.47885 0.0
C207 C 0.34168 0.53153 0.39397 0.0
C208 C 0.3689 0.51966 0.52875 0.0
C209 C 0.36712 0.54845 0.36056 0.0
C210 C 0.39355 0.55081 0.41002 0.0
C211 C 0.42206 0.53653 0.53955 0.0
C212 C 0.42374 0.52067 0.62062 0.0
C213 C 0.39489 0.53603 0.49322 0.0
C214 C 0.39742 0.50535 0.65714 0.0
C215 C 0.37029 0.50486 0.61172 0.0
H216 H 0.06322 0.34271 0.5052 0.0
H217 H 0.9698 0.33292 0.43484 0.0
H218 H 0.96187 0.38281 0.498 0.0
H219 H 0.98248 0.42997 0.56748 0.0
H220 H 0.07647 0.43897 0.63609 0.0
H221 H 0.08324 0.38888 0.57936 0.0
C222 C 0.04105 0.35146 0.50539 0.0
C223 C 0.01699 0.33443 0.467 0.0
C224 C 0.03689 0.38013 0.54044 0.0
C225 C 0.98845 0.34581 0.46561 0.0
C226 C 0.98402 0.37432 0.50096 0.0
C227 C 0.00443 0.42096 0.56972 0.0
C228 C 0.0289 0.43831 0.60575 0.0
C229 C 0.00822 0.39186 0.53738 0.0
C230 C 0.05715 0.42618 0.60901 0.0
C231 C 0.06112 0.39746 0.57657 0.0
H232 H 0.80475 0.96244 0.85946 0.0
H233 H 0.82271 0.01829 0.10663 0.0
H234 H 0.87001 0.03791 0.02864 0.0
H235 H 0.90846 0.03537 0.89681 0.0
H236 H 0.89108 0.9787 0.64983 0.0
H237 H 0.84123 0.96364 0.72004 0.0
C238 C 0.81885 0.97931 0.89503 0.0
C239 C 0.81062 0.98906 -0.01195 0.0
C240 C 0.84616 0.99018 0.85008 0.0
C241 C 0.82884 0.01069 0.03457 0.0
C242 C 0.85586 0.02178 -0.00979 0.0
C243 C 0.89366 0.02002 0.85762 0.0
C244 C 0.90378 0.00795 0.76861 0.0
C245 C 0.86513 0.01113 0.8989 0.0
C246 C 0.88405 0.98831 0.71863 0.0
C247 C 0.85551 0.97954 0.75892 0.0
H248 H 0.54618 0.79608 0.91978 0.0
H249 H 0.54119 0.83925 0.19784 0.0
H250 H 0.5323 0.88524 0.12955 0.0
H251 H 0.52544 0.91297 -0.00865 0.0
H252 H 0.52986 0.87043 0.71209 0.0
H253 H 0.53962 0.8244 0.77956 0.0
C254 C 0.54317 0.81566 0.96481 0.0
C255 C 0.54428 0.81463 0.06327 0.0
C256 C 0.53801 0.84201 0.92486 0.0
C257 C 0.54039 0.83984 0.1217 0.0
C258 C 0.53532 0.86605 0.08276 0.0
C259 C 0.52858 0.89362 0.94527 0.0
C260 C 0.52688 0.89497 0.84708 0.0
C261 C 0.53401 0.86737 0.98455 0.0
C262 C 0.53104 0.86982 0.78803 0.0
C263 C 0.5366 0.84354 0.82658 0.0
H264 H 0.67288 0.47887 0.05091 0.0
H265 H 0.71649 0.54804 0.89094 0.0
H266 H 0.67129 0.54939 0.79948 0.0
H267 H 0.61797 0.53333 0.77482 0.0
H268 H 0.57433 0.46481 0.93975 0.0
H269 H 0.62089 0.46069 0.0192 0.0
C270 C 0.67258 0.49379 -0.00543 0.0
C271 C 0.69773 0.51313 0.97637 0.0
C272 C 0.6464 0.49477 0.94417 0.0
C273 C 0.69727 0.53275 0.9048 0.0
C274 C 0.67142 0.53363 0.85322 0.0
C275 C 0.61868 0.51731 0.82749 0.0
C276 C 0.59248 0.49959 0.8516 0.0
C277 C 0.64559 0.51514 0.87372 0.0
C278 C 0.59397 0.47891 0.92001 0.0
C279 C 0.62065 0.47648 0.96561 0.0
H280 H 0.99732 0.7147 0.89511 0.0
H281 H 0.07639 0.7056 0.05034 0.0
H282 H 0.077 0.65409 -0.00339 0.0
H283 H 0.05462 0.6117 0.90722 0.0
H284 H 0.97568 0.62076 0.74987 0.0
H285 H 0.9753 0.67213 0.80286 0.0
C286 C 0.01477 0.70135 0.91611 0.0
C287 C 0.03693 0.71358 0.97557 0.0
C288 C 0.01482 0.67179 0.88529 0.0
C289 C 0.05932 0.69639 0.0037 0.0
C290 C 0.05957 0.66701 0.97342 0.0
C291 C 0.03718 0.62481 0.88493 0.0
C292 C 0.01512 0.61228 0.82504 0.0
C293 C 0.0373 0.65443 0.91471 0.0
C294 C 0.99295 0.62978 0.796 0.0
C295 C 0.99271 0.65921 0.82615 0.0
H296 H 0.04723 0.18387 0.49035 0.0
H297 H 0.95695 0.19976 0.60242 0.0
H298 H 0.95187 0.15144 0.66737 0.0
H299 H 0.96809 0.10083 0.65353 0.0
H300 H 0.05371 0.0832 0.50677 0.0
H301 H 0.06573 0.13535 0.4921 0.0
C302 C 0.02713 0.17726 0.5337 0.0
C303 C 1.00258 0.19529 0.54222 0.0
C304 C 0.02308 0.14834 0.55991 0.0
C305 C 0.97629 0.18642 0.5963 0.0
C306 C 0.97314 0.15846 0.63105 0.0
C307 C 0.9896 0.10863 0.62023 0.0
C308 C 0.00992 0.08847 0.58018 0.0
C309 C 0.99551 0.13857 0.60713 0.0
C310 C 0.03764 0.09849 0.53667 0.0
C311 C 0.04454 0.12826 0.52875 0.0
H312 H 0.37311 0.03334 0.37082 0.0
H313 H 0.31276 0.97406 0.52761 0.0
H314 H 0.35415 0.96415 0.62648 0.0
H315 H 0.40902 0.96691 0.65055 0.0
H316 H 0.46981 0.02301 0.48269 0.0
H317 H 0.42679 0.03965 0.40485 0.0
C318 C 0.3689 0.01888 0.42858 0.0
C319 C 0.34012 0.00433 0.44224 0.0
C320 C 0.39304 0.01224 0.48102 0.0
C321 C 0.3347 0.98563 0.51668 0.0
C322 C 0.35846 0.97966 0.57194 0.0
C323 C 0.41278 0.98289 0.59716 0.0
C324 C 0.44249 0.9937 0.57166 0.0
C325 C 0.38799 0.99185 0.55173 0.0
C326 C 0.44712 0.01465 0.50371 0.0
C327 C 0.42255 0.02403 0.45911 0.0
H328 H 0.45685 0.34612 0.55173 0.0
H329 H 0.54086 0.33472 0.38858 0.0
H330 H 0.56358 0.37921 0.46535 0.0
H331 H 0.55532 0.42656 0.55209 0.0
H332 H 0.46838 0.43942 0.69849 0.0
H333 H 0.45122 0.3895 0.65696 0.0
C334 C 0.48063 0.35262 0.5371 0.0
C335 C 0.49733 0.33717 0.46585 0.0
C336 C 0.49271 0.37917 0.57663 0.0
C337 C 0.52785 0.34609 0.44481 0.0
C338 C 0.54059 0.37186 0.48723 0.0
C339 C 0.5329 0.41814 0.57642 0.0
C340 C 0.51325 0.43667 0.62863 0.0
C341 C 0.5226 0.38948 0.54888 0.0
C342 C 0.4842 0.42555 0.65958 0.0
C343 C 0.47419 0.39698 0.63517 0.0
H344 H 0.19 0.55329 0.41095 0.0
H345 H 0.20219 0.47552 0.55379 0.0
H346 H 0.15217 0.47897 0.63674 0.0
H347 H 0.10123 0.49769 0.63849 0.0
H348 H 0.08716 0.57156 0.47788 0.0
H349 H 0.14125 0.57565 0.42843 0.0
C350 C 0.18227 0.53808 0.46429 0.0
C351 C 0.19972 0.51442 0.47746 0.0
C352 C 0.15251 0.53869 0.50415 0.0
C353 C 0.18934 0.49422 0.54428 0.0
C354 C 0.16042 0.4958 0.58961 0.0
C355 C 0.11022 0.5151 0.59474 0.0
C356 C 0.09053 0.53438 0.5617 0.0
C357 C 0.14116 0.51686 0.56535 0.0
C358 C 0.10211 0.55644 0.50325 0.0
C359 C 0.13297 0.55887 0.47569 0.0
H360 H 0.9788 0.84258 0.74904 0.0
H361 H 0.06569 0.84402 0.86958 0.0
H362 H 0.07694 0.89416 0.8264 0.0
H363 H 0.05593 0.94116 0.79538 0.0
H364 H 0.96551 0.93995 0.69736 0.0
H365 H 0.9613 0.88713 0.69375 0.0
C366 C 1.00085 0.85344 0.76111 0.0
C367 C 0.02076 0.84005 0.81577 0.0
C368 C 0.00574 0.88319 0.74532 0.0
C369 C 0.04959 0.85397 0.82909 0.0
C370 C 0.05569 0.88306 0.807 0.0
C371 C 0.03556 0.9292 0.77207 0.0
C372 C 0.01108 0.94445 0.74704 0.0
C373 C 0.03288 0.89854 0.77244 0.0
C374 C 0.98479 0.92875 0.71664 0.0
C375 C 0.98232 0.89846 0.71429 0.0
H376 H 0.62887 0.96399 0.06214 0.0
H377 H 0.69707 0.01952 0.91927 0.0
H378 H 0.65825 0.03675 0.82313 0.0
H379 H 0.60381 0.03961 0.7929 0.0
H380 H 0.53614 0.98936 0.9569 0.0
H381 H 0.57573 0.96685 0.03372 0.0
C382 C 0.63532 0.97988 0.00986 0.0
C383 C 0.66567 0.99092 -0.0009 0.0
C384 C 0.61282 0.99092 0.96003 0.0
C385 C 0.67385 0.01073 0.92897 0.0
C386 C 0.65159 0.02086 0.87508 0.0
C387 C 0.59787 0.02381 0.84577 0.0
C388 C 0.56717 0.01551 0.86801 0.0
C389 C 0.62085 0.01183 0.89243 0.0
C390 C 0.55963 0.99516 0.9365 0.0
C391 C 0.58224 0.98253 0.98092 0.0
H392 H 0.51448 0.68486 0.96324 0.0
H393 H 0.60534 0.67996 0.83933 0.0
H394 H 0.59274 0.63069 0.77367 0.0
H395 H 0.5605 0.58528 0.79246 0.0
H396 H 0.47157 0.58894 0.93254 0.0
H397 H 0.47923 0.64191 0.95751 0.0
C398 C 0.53093 0.67362 0.91692 0.0
C399 C 0.56093 0.68566 0.90771 0.0
C400 C 0.52443 0.6443 0.88888 0.0
C401 C 0.58211 0.67107 0.84746 0.0
C402 C 0.57517 0.6425 0.81278 0.0
C403 C 0.54251 0.59789 0.82545 0.0
C404 C 0.51556 0.58357 0.86071 0.0
C405 C 0.5472 0.62824 0.83964 0.0
C406 C 0.49264 0.59975 0.9062 0.0
C407 C 0.4969 0.62997 0.9194 0.0
H408 H 0.855 0.46413 -0.00728 0.0
H409 H 0.83521 0.54521 0.88172 0.0
H410 H 0.88439 0.54727 0.79196 0.0
H411 H 0.93685 0.53192 0.77778 0.0
H412 H 0.9577 0.45265 0.89987 0.0
H413 H 0.90451 0.44409 0.95426 0.0
C414 C 0.86095 0.48146 0.94503 0.0
C415 C 0.8417 0.5045 0.9436 0.0
C416 C 0.88997 0.48341 0.89919 0.0
C417 C 0.84957 0.52711 0.88291 0.0
C418 C 0.87797 0.52857 0.83336 0.0
C419 C 0.92956 0.51234 0.81385 0.0
C420 C 0.95116 0.49309 0.83597 0.0
C421 C 0.89902 0.50782 0.84602 0.0
C422 C 0.94151 0.46794 0.88326 0.0
C423 C 0.9111 0.46301 0.91408 0.0
H424 H 0.01828 0.1527 0.28382 0.0
H425 H 0.9886 0.21646 0.10451 0.0
H426 H 0.99038 0.18066 0.96935 0.0
H427 H 0.99815 0.13035 0.90505 0.0
H428 H 0.02264 0.06628 0.09172 0.0
H429 H 0.02426 0.1031 0.22285 0.0
C430 C 0.01146 0.15876 0.21586 0.0
C431 C 1.00256 0.18707 0.20493 0.0
C432 C 0.01152 0.13796 0.14021 0.0
C433 C 0.99537 0.19479 0.11498 0.0
C434 C 0.99625 0.1743 0.03794 0.0
C435 C 1.00394 0.12461 0.97451 0.0
C436 C 0.01036 0.09582 -0.01064 0.0
C437 C 1.00398 0.14572 0.05011 0.0
C438 C 0.01758 0.08836 0.07927 0.0
C439 C 0.01854 0.10936 0.15396 0.0
H440 H 0.33485 0.03782 0.07194 0.0
H441 H 0.33403 0.94618 0.11635 0.0
H442 H 0.37605 0.9408 -0.00277 0.0
H443 H 0.41796 0.96385 0.90096 0.0
H444 H 0.42 0.05614 0.86196 0.0
H445 H 0.37266 0.05968 0.95847 0.0
C446 C 0.3431 0.01652 0.05228 0.0
C447 C 0.33147 0.99238 0.10172 0.0
C448 C 0.3681 0.01392 -0.01282 0.0
C449 C 0.3426 0.96492 0.07785 0.0
C450 C 0.36687 0.96196 0.01102 0.0
C451 C 0.40796 0.9847 0.91332 0.0
C452 C 0.42282 0.0098 0.87647 0.0
C453 C 0.38073 0.9866 0.96884 0.0
C454 C 0.4092 0.03654 0.89073 0.0
C455 C 0.38208 0.03859 0.94569 0.0
H456 H 0.42899 0.37734 0.26564 0.0
H457 H 0.46242 0.31267 0.06003 0.0
H458 H 0.46432 0.34772 0.93641 0.0
H459 H 0.46524 0.39876 0.89521 0.0
H460 H 0.43349 0.46401 0.1018 0.0
H461 H 0.42185 0.42671 0.21715 0.0
C462 C 0.43591 0.37081 0.1931 0.0
C463 C 0.44597 0.34274 0.17166 0.0
C464 C 0.43773 0.39128 0.12345 0.0
C465 C 0.45458 0.3342 0.07772 0.0
C466 C 0.45597 0.35431 0.00746 0.0
C467 C 0.4552 0.40465 0.96498 0.0
C468 C 0.45073 0.43399 -0.00876 0.0
C469 C 0.44899 0.38323 0.03071 0.0
C470 C 0.43727 0.4415 0.08076 0.0
C471 C 0.43077 0.42023 0.14663 0.0
H472 H 0.21543 0.52057 0.07589 0.0
H473 H 0.17236 0.44523 0.20716 0.0
H474 H 0.1285 0.44729 0.11195 0.0
H475 H 0.09967 0.47487 0.0084 0.0
H476 H 0.14373 0.54859 0.87122 0.0
H477 H 0.19005 0.54306 0.95251 0.0
C478 C 0.19703 0.50388 0.0809 0.0
C479 C 0.1969 0.48303 0.14931 0.0
C480 C 0.1717 0.50556 0.02737 0.0
C481 C 0.17276 0.46166 0.15543 0.0
C482 C 0.14756 0.46304 0.10193 0.0
C483 C 0.11949 0.48964 -0.00338 0.0
C484 C 0.11831 0.51261 0.93681 0.0
C485 C 0.14622 0.48573 0.04112 0.0
C486 C 0.14421 0.5311 0.91884 0.0
C487 C 0.17066 0.52783 0.96468 0.0
H488 H 0.96746 0.83461 0.24236 0.0
H489 H 0.98242 0.89131 0.00825 0.0
H490 H 0.97358 0.9329 0.11295 0.0
H491 H 0.97068 0.95513 0.27357 0.0
H492 H 0.96664 0.90041 0.51033 0.0
H493 H 0.96307 0.8568 0.40352 0.0
C494 C 0.96889 0.85593 0.21361 0.0
C495 C 0.97549 0.85893 0.11604 0.0
C496 C 0.96636 0.88068 0.27576 0.0
C497 C 0.97638 0.88721 0.0815 0.0
C498 C 0.9719 0.91159 0.14205 0.0
C499 C 0.96833 0.93361 0.30138 0.0
C500 C 0.96893 0.93072 0.39874 0.0
C501 C 0.96807 0.90874 0.23948 0.0
C502 C 0.96635 0.90291 0.43491 0.0
C503 C 0.96437 0.87803 0.37398 0.0
H504 H 0.67567 0.0245 0.33973 0.0
H505 H 0.6767 0.9314 0.34701 0.0
H506 H 0.6364 0.93131 0.47418 0.0
H507 H 0.59459 0.95701 0.55998 0.0
H508 H 0.59139 0.04975 0.53686 0.0
H509 H 0.63848 0.05076 0.43887 0.0
C510 C 0.66781 0.00438 0.37208 0.0
C511 C 0.67892 0.97804 0.33485 0.0
C512 C 0.64348 0.00438 0.43991 0.0
C513 C 0.66859 0.95196 0.37579 0.0
C514 C 0.64519 0.95189 0.44709 0.0
C515 C 0.60446 0.97745 0.53438 0.0
C516 C 0.58911 1.00312 0.55357 0.0
C517 C 0.63136 0.97781 0.47593 0.0
C518 C 0.60229 0.02953 0.52091 0.0
C519 C 0.62938 0.03021 0.46547 0.0
H520 H 0.59169 0.68241 0.33858 0.0
H521 H 0.5433 0.63705 0.11292 0.0
H522 H 0.53321 0.59488 0.20657 0.0
H523 H 0.53647 0.57093 0.35358 0.0
H524 H 0.58176 0.61597 0.5851 0.0
H525 H 0.59469 0.65796 0.48885 0.0
C526 C 0.57903 0.66325 0.31027 0.0
C527 C 0.56904 0.6627 0.21802 0.0
C528 C 0.57269 0.63892 0.3655 0.0
C529 C 0.55224 0.6378 0.18253 0.0
C530 C 0.54616 0.61365 0.23626 0.0
C531 C 0.54943 0.58984 0.3825 0.0
C532 C 0.55831 0.59042 0.47554 0.0
C533 C 0.55623 0.61395 0.32768 0.0
C534 C 0.57482 0.61509 0.51299 0.0
C535 C 0.58211 0.63912 0.45821 0.0
H536 H 0.86368 0.56308 0.22659 0.0
H537 H 0.81044 0.49407 0.36255 0.0
H538 H 0.84621 0.49581 0.4885 0.0
H539 H 0.89652 0.51218 0.54536 0.0
H540 H 0.95036 0.57986 0.40347 0.0
H541 H 0.91051 0.58351 0.29406 0.0
C542 C 0.85962 0.54893 0.2852 0.0
C543 C 0.83479 0.52833 0.2855 0.0
C544 C 0.88067 0.54947 0.35494 0.0
C545 C 0.82942 0.51017 0.36153 0.0
C546 C 0.85003 0.51095 0.4327 0.0
C547 C 0.89926 0.52796 0.49118 0.0
C548 C 0.92643 0.5454 0.48108 0.0
C549 C 0.87637 0.52971 0.42789 0.0
C550 C 0.92972 0.56603 0.41171 0.0
C551 C 0.90697 0.56812 0.34922 0.0
loop_
_geom_bond_atom_site_label_1
_geom_bond_atom_site_label_2
_geom_bond_distance
_geom_bond_site_symmetry_2
_ccdc_geom_bond_type
H0 C3 0.929 . S
H1 C6 0.929 . S
H2 C8 0.930 . S
C3 H0 0.929 . S
C3 C4 1.398 . S
C3 C5 1.396 . S
C4 C3 1.398 . S
C4 C8 1.407 . S
C5 C3 1.396 . S
C5 C6 1.394 1_554 S
C6 H1 0.929 . S
C6 C5 1.394 1_556 S
C6 C7 1.382 1_556 S
C7 C6 1.382 1_554 S
C7 C8 1.392 . S
C7 N9 1.420 . S
C8 H2 0.930 . S
C8 C4 1.407 . S
C8 C7 1.392 . S
N9 C7 1.420 . S
N9 C10 1.244 . S
C10 N9 1.244 . S
H11 C14 0.929 . S
H12 C17 0.929 . S
H13 C19 0.930 . S
C14 H11 0.929 . S
C14 C15 1.398 . S
C14 C16 1.396 1_554 S
C15 C14 1.398 . S
C15 C19 1.407 . S
C16 C14 1.396 1_556 S
C16 C17 1.394 . S
C17 H12 0.929 . S
C17 C16 1.394 . S
C17 C18 1.382 1_556 S
C18 C17 1.382 1_554 S
C18 C19 1.392 . S
C18 N20 1.420 . S
C19 H13 0.930 . S
C19 C15 1.407 . S
C19 C18 1.392 . S
N20 C18 1.420 . S
N20 C21 1.244 1_554 S
C21 N20 1.244 1_556 S
H22 C25 0.929 . S
H23 C28 0.929 1_556 S
H24 C30 0.930 . S
C25 H22 0.929 . S
C25 C26 1.398 . S
C25 C27 1.396 . S
C26 C25 1.398 . S
C26 C30 1.407 . S
C27 C25 1.396 . S
C27 C28 1.394 . S
C28 H23 0.929 1_554 S
C28 C27 1.394 . S
C28 C29 1.382 . S
C29 C28 1.382 . S
C29 C30 1.392 . S
C29 N31 1.420 . S
C30 H24 0.930 . S
C30 C26 1.407 . S
C30 C29 1.392 . S
N31 C29 1.420 . S
N31 C32 1.244 . S
C32 N31 1.244 . S
H33 C36 0.929 . S
H34 C39 0.929 1_556 S
H35 C41 0.930 . S
C36 H33 0.929 . S
C36 C37 1.398 . S
C36 C38 1.396 . S
C37 C36 1.398 . S
C37 C41 1.407 . S
C38 C36 1.396 . S
C38 C39 1.394 . S
C39 H34 0.929 1_554 S
C39 C38 1.394 . S
C39 C40 1.382 . S
C40 C39 1.382 . S
C40 C41 1.392 . S
C40 N42 1.420 . S
C41 H35 0.930 . S
C41 C37 1.407 . S
C41 C40 1.392 . S
N42 C40 1.420 . S
N42 C43 1.244 . S
C43 N42 1.244 . S
H44 C47 0.929 . S
H45 C50 0.929 . S
H46 C52 0.930 . S
C47 H44 0.929 . S
C47 C48 1.398 . S
C47 C49 1.396 . S
C48 C47 1.398 . S
C48 C52 1.407 . S
C49 C47 1.396 . S
C49 C50 1.394 . S
C50 H45 0.929 . S
C50 C49 1.394 . S
C50 C51 1.382 . S
C51 C50 1.382 . S
C51 C52 1.392 . S
C51 N53 1.420 . S
C52 H46 0.930 . S
C52 C48 1.407 . S
C52 C51 1.392 . S
N53 C51 1.420 . S
N53 C54 1.244 . S
C54 N53 1.244 . S
H55 C58 0.929 . S
H56 C61 0.929 . S
H57 C63 0.930 . S
C58 H55 0.929 . S
C58 C59 1.398 . S
C58 C60 1.396 . S
C59 C58 1.398 . S
C59 C63 1.407 . S
C60 C58 1.396 . S
C60 C61 1.394 . S
C61 H56 0.929 . S
C61 C60 1.394 . S
C61 C62 1.382 . S
C62 C61 1.382 . S
C62 C63 1.392 . S
C62 N64 1.420 . S
C63 H57 0.930 . S
C63 C59 1.407 . S
C63 C62 1.392 . S
N64 C62 1.420 . S
N64 C65 1.244 . S
C65 N64 1.244 . S
H66 C69 0.929 . S
H67 C72 0.929 . S
H68 C74 0.930 . S
C69 H66 0.929 . S
C69 C70 1.398 . S
C69 C71 1.396 . S
C70 C69 1.398 . S
C70 C74 1.407 . S
C71 C69 1.396 . S
C71 C72 1.394 . S
C72 H67 0.929 . S
C72 C71 1.394 . S
C72 C73 1.382 . S
C73 C72 1.382 . S
C73 C74 1.392 . S
C73 N75 1.420 . S
C74 H68 0.930 . S
C74 C70 1.407 . S
C74 C73 1.392 . S
N75 C73 1.420 . S
N75 C76 1.244 . S
C76 N75 1.244 . S
H77 C80 0.929 . S
H78 C83 0.929 . S
H79 C85 0.930 . S
C80 H77 0.929 . S
C80 C81 1.398 . S
C80 C82 1.396 . S
C81 C80 1.398 . S
C81 C85 1.407 . S
C82 C80 1.396 . S
C82 C83 1.394 . S
C83 H78 0.929 . S
C83 C82 1.394 . S
C83 C84 1.382 . S
C84 C83 1.382 . S
C84 C85 1.392 . S
C84 N86 1.420 . S
C85 H79 0.930 . S
C85 C81 1.407 . S
C85 C84 1.392 . S
N86 C84 1.420 . S
N86 C87 1.244 . S
C87 N86 1.244 . S
Tb88 O91 2.453 1_565 S
Tb88 O92 2.596 1_665 S
Tb88 O93 2.374 1_665 S
Tb88 O101 2.343 1_655 S
Tb88 O103 2.353 1_565 S
Tb88 O105 2.427 . S
Tb88 O106 2.513 1_655 S
C89 O93 1.251 . S
C89 O95 1.263 . S
Tb90 O92 2.343 . S
Tb90 O95 2.353 . S
Tb90 O98 2.427 . S
Tb90 O99 2.511 . S
Tb90 O100 2.453 1_545 S
Tb90 O101 2.596 1_545 S
Tb90 O102 2.374 1_455 S
O91 Tb88 2.453 1_545 S
O91 C107 1.245 1_655 S
O92 Tb88 2.596 1_445 S
O92 Tb90 2.343 . S
O92 C107 1.259 . S
O93 Tb88 2.374 1_445 S
O93 C89 1.251 . S
C94 O98 1.275 . S
C94 O99 1.243 . S
O95 C89 1.263 . S
O95 Tb90 2.353 . S
C96 O100 1.245 . S
C96 O101 1.259 . S
C97 O102 1.250 . S
C97 O103 1.263 . S
O98 Tb90 2.427 . S
O98 C94 1.275 . S
O99 Tb90 2.511 . S
O99 C94 1.243 . S
O100 Tb90 2.453 1_565 S
O100 C96 1.245 . S
O101 Tb88 2.343 1_455 S
O101 Tb90 2.596 1_565 S
O101 C96 1.259 . S
O102 Tb90 2.374 1_655 S
O102 C97 1.250 . S
O103 Tb88 2.353 1_545 S
O103 C97 1.263 . S
C104 O105 1.275 . S
C104 O106 1.246 1_655 S
O105 Tb88 2.427 . S
O105 C104 1.275 . S
O106 Tb88 2.513 1_455 S
O106 C104 1.246 1_455 S
C107 O91 1.245 1_455 S
C107 O92 1.259 . S
Tb108 O111 2.453 . S
Tb108 O112 2.596 1_545 S
Tb108 O113 2.374 . S
Tb108 O121 2.343 . S
Tb108 O123 2.353 . S
Tb108 O125 2.427 . S
Tb108 O126 2.513 . S
C109 O113 1.251 1_565 S
C109 O115 1.263 . S
Tb110 O112 2.343 . S
Tb110 O115 2.353 . S
Tb110 O118 2.427 . S
Tb110 O119 2.513 . S
Tb110 O120 2.453 . S
Tb110 O121 2.596 1_565 S
Tb110 O122 2.374 . S
O111 Tb108 2.453 . S
O111 C127 1.245 . S
O112 Tb108 2.596 1_565 S
O112 Tb110 2.343 . S
O112 C127 1.259 1_565 S
O113 Tb108 2.374 . S
O113 C109 1.251 1_545 S
C114 O118 1.275 . S
C114 O119 1.246 . S
O115 C109 1.263 . S
O115 Tb110 2.353 . S
C116 O120 1.245 1_545 S
C116 O121 1.259 . S
C117 O122 1.250 1_545 S
C117 O123 1.263 . S
O118 Tb110 2.427 . S
O118 C114 1.275 . S
O119 Tb110 2.513 . S
O119 C114 1.246 . S
O120 Tb110 2.453 . S
O120 C116 1.245 1_565 S
O121 Tb108 2.343 . S
O121 Tb110 2.596 1_545 S
O121 C116 1.259 . S
O122 Tb110 2.374 . S
O122 C117 1.250 1_565 S
O123 Tb108 2.353 . S
O123 C117 1.263 . S
C124 O125 1.275 . S
C124 O126 1.246 . S
O125 Tb108 2.427 . S
O125 C124 1.275 . S
O126 Tb108 2.513 . S
O126 C124 1.246 . S
C127 O111 1.245 . S
C127 O112 1.259 1_545 S
Tb128 O131 2.453 . S
Tb128 O132 2.596 . S
Tb128 O133 2.374 . S
Tb128 O141 2.343 . S
Tb128 O143 2.353 . S
Tb128 O145 2.427 . S
Tb128 O146 2.513 . S
C129 O133 1.251 . S
C129 O135 1.263 . S
Tb130 O132 2.343 . S
Tb130 O135 2.353 . S
Tb130 O138 2.427 . S
Tb130 O139 2.513 . S
Tb130 O140 2.453 . S
Tb130 O141 2.596 . S
Tb130 O142 2.374 . S
O131 Tb128 2.453 . S
O131 C147 1.245 . S
O132 Tb128 2.596 . S
O132 Tb130 2.343 . S
O132 C147 1.259 . S
O133 Tb128 2.374 . S
O133 C129 1.251 . S
C134 O138 1.275 . S
C134 O139 1.246 . S
O135 C129 1.263 . S
O135 Tb130 2.353 . S
C136 O140 1.245 . S
C136 O141 1.259 . S
C137 O142 1.250 . S
C137 O143 1.263 . S
O138 Tb130 2.427 . S
O138 C134 1.275 . S
O139 Tb130 2.513 . S
O139 C134 1.246 . S
O140 Tb130 2.453 . S
O140 C136 1.245 . S
O141 Tb128 2.343 . S
O141 Tb130 2.596 . S
O141 C136 1.259 . S
O142 Tb130 2.374 . S
O142 C137 1.250 . S
O143 Tb128 2.353 . S
O143 C137 1.263 . S
C144 O145 1.275 . S
C144 O146 1.246 . S
O145 Tb128 2.427 . S
O145 C144 1.275 . S
O146 Tb128 2.513 . S
O146 C144 1.246 . S
C147 O131 1.245 . S
C147 O132 1.259 . S
Tb148 O151 2.453 1_655 S
Tb148 O152 2.596 1_655 S
Tb148 O153 2.374 1_655 S
Tb148 O161 2.343 . S
Tb148 O163 2.353 1_655 S
Tb148 O165 2.427 . S
Tb148 O166 2.513 . S
C149 O153 1.251 . S
C149 O155 1.263 . S
Tb150 O152 2.343 . S
Tb150 O155 2.353 . S
Tb150 O158 2.427 . S
Tb150 O159 2.513 . S
Tb150 O160 2.453 1_455 S
Tb150 O161 2.596 1_455 S
Tb150 O162 2.374 . S
O151 Tb148 2.453 1_455 S
O151 C167 1.245 . S
O152 Tb148 2.596 1_455 S
O152 Tb150 2.343 . S
O152 C167 1.259 . S
O153 Tb148 2.374 1_455 S
O153 C149 1.251 . S
C154 O158 1.275 . S
C154 O159 1.246 . S
O155 C149 1.263 . S
O155 Tb150 2.353 . S
C156 O160 1.245 . S
C156 O161 1.259 . S
C157 O162 1.250 . S
C157 O163 1.263 . S
O158 Tb150 2.427 . S
O158 C154 1.275 . S
O159 Tb150 2.513 . S
O159 C154 1.246 . S
O160 Tb150 2.453 1_655 S
O160 C156 1.245 . S
O161 Tb148 2.343 . S
O161 Tb150 2.596 1_655 S
O161 C156 1.259 . S
O162 Tb150 2.374 . S
O162 C157 1.250 . S
O163 Tb148 2.353 1_455 S
O163 C157 1.263 . S
C164 O165 1.275 . S
C164 O166 1.246 . S
O165 Tb148 2.427 . S
O165 C164 1.275 . S
O166 Tb148 2.513 . S
O166 C164 1.246 . S
C167 O151 1.245 . S
C167 O152 1.259 . S
H168 C174 0.930 . S
H169 C177 0.930 . S
H170 C178 0.930 . S
H171 C179 0.930 . S
H172 C182 0.930 . S
H173 C183 0.930 . S
C174 H168 0.930 . S
C174 C175 1.355 . S
C174 C176 1.415 . S
C175 C174 1.355 . S
C175 C177 1.419 . S
C176 C174 1.415 . S
C176 C181 1.425 . S
C176 C183 1.409 . S
C177 H169 0.930 . S
C177 C175 1.419 . S
C177 C178 1.362 . S
C178 H170 0.930 . S
C178 C177 1.362 . S
C178 C181 1.409 . S
C179 H171 0.930 . S
C179 C180 1.355 . S
C179 C181 1.415 . S
C180 C179 1.355 . S
C180 C182 1.419 . S
C181 C176 1.425 . S
C181 C178 1.409 . S
C181 C179 1.415 . S
C182 H172 0.930 . S
C182 C180 1.419 . S
C182 C183 1.362 . S
C183 H173 0.930 . S
C183 C176 1.409 . S
C183 C182 1.362 . S
H184 C190 0.930 . S
H185 C193 0.930 . S
H186 C194 0.930 . S
H187 C195 0.930 . S
H188 C198 0.930 . S
H189 C199 0.930 . S
C190 H184 0.930 . S
C190 C191 1.355 . S
C190 C192 1.415 . S
C191 C190 1.355 . S
C191 C193 1.419 . S
C192 C190 1.415 . S
C192 C197 1.425 . S
C192 C199 1.409 . S
C193 H185 0.930 . S
C193 C191 1.419 . S
C193 C194 1.362 . S
C194 H186 0.930 . S
C194 C193 1.362 . S
C194 C197 1.409 . S
C195 H187 0.930 . S
C195 C196 1.355 . S
C195 C197 1.415 . S
C196 C195 1.355 . S
C196 C198 1.419 . S
C197 C192 1.425 . S
C197 C194 1.409 . S
C197 C195 1.415 . S
C198 H188 0.930 . S
C198 C196 1.419 . S
C198 C199 1.362 . S
C199 H189 0.930 . S
C199 C192 1.409 . S
C199 C198 1.362 . S
H200 C206 0.930 . S
H201 C209 0.930 . S
H202 C210 0.930 . S
H203 C211 0.930 . S
H204 C214 0.930 . S
H205 C215 0.930 . S
C206 H200 0.930 . S
C206 C207 1.355 . S
C206 C208 1.415 . S
C207 C206 1.355 . S
C207 C209 1.419 . S
C208 C206 1.415 . S
C208 C213 1.425 . S
C208 C215 1.409 . S
C209 H201 0.930 . S
C209 C207 1.419 . S
C209 C210 1.362 . S
C210 H202 0.930 . S
C210 C209 1.362 . S
C210 C213 1.409 . S
C211 H203 0.930 . S
C211 C212 1.355 . S
C211 C213 1.415 . S
C212 C211 1.355 . S
C212 C214 1.419 . S
C213 C208 1.425 . S
C213 C210 1.409 . S
C213 C211 1.415 . S
C214 H204 0.930 . S
C214 C212 1.419 . S
C214 C215 1.362 . S
C215 H205 0.930 . S
C215 C208 1.409 . S
C215 C214 1.362 . S
H216 C222 0.930 . S
H217 C225 0.930 . S
H218 C226 0.930 . S
H219 C227 0.930 . S
H220 C230 0.930 . S
H221 C231 0.930 . S
C222 H216 0.930 . S
C222 C223 1.355 . S
C222 C224 1.415 . S
C223 C222 1.355 . S
C223 C225 1.419 . S
C224 C222 1.415 . S
C224 C229 1.425 . S
C224 C231 1.409 . S
C225 H217 0.930 . S
C225 C223 1.419 . S
C225 C226 1.362 . S
C226 H218 0.930 . S
C226 C225 1.362 . S
C226 C229 1.409 . S
C227 H219 0.930 . S
C227 C228 1.355 . S
C227 C229 1.415 . S
C228 C227 1.355 . S
C228 C230 1.419 . S
C229 C224 1.425 . S
C229 C226 1.409 . S
C229 C227 1.415 . S
C230 H220 0.930 . S
C230 C228 1.419 . S
C230 C231 1.362 . S
C231 H221 0.930 . S
C231 C224 1.409 . S
C231 C230 1.362 . S
H232 C238 0.930 1_554 S
H233 C241 0.930 1_545 S
H234 C242 0.930 . S
H235 C243 0.930 . S
H236 C246 0.930 . S
H237 C247 0.930 . S
C238 H232 0.930 1_556 S
C238 C239 1.355 . S
C238 C240 1.415 . S
C239 C238 1.355 . S
C239 C241 1.419 . S
C240 C238 1.415 . S
C240 C245 1.425 . S
C240 C247 1.409 . S
C241 H233 0.930 1_565 S
C241 C239 1.419 . S
C241 C242 1.362 1_565 S
C242 H234 0.930 . S
C242 C241 1.362 1_545 S
C242 C245 1.409 1_545 S
C243 H235 0.930 . S
C243 C244 1.355 1_545 S
C243 C245 1.415 1_545 S
C244 C243 1.355 1_565 S
C244 C246 1.419 . S
C245 C240 1.425 . S
C245 C242 1.409 1_565 S
C245 C243 1.415 1_565 S
C246 H236 0.930 . S
C246 C244 1.419 . S
C246 C247 1.362 . S
C247 H237 0.930 . S
C247 C240 1.409 . S
C247 C246 1.362 . S
H248 C254 0.930 . S
H249 C257 0.930 . S
H250 C258 0.930 . S
H251 C259 0.930 . S
H252 C262 0.930 . S
H253 C263 0.930 . S
C254 H248 0.930 . S
C254 C255 1.355 1_556 S
C254 C256 1.415 . S
C255 C254 1.355 1_554 S
C255 C257 1.419 . S
C256 C254 1.415 . S
C256 C261 1.425 . S
C256 C263 1.409 . S
C257 H249 0.930 . S
C257 C255 1.419 . S
C257 C258 1.362 . S
C258 H250 0.930 . S
C258 C257 1.362 . S
C258 C261 1.409 1_554 S
C259 H251 0.930 . S
C259 C260 1.355 . S
C259 C261 1.415 . S
C260 C259 1.355 . S
C260 C262 1.419 . S
C261 C256 1.425 . S
C261 C258 1.409 1_556 S
C261 C259 1.415 . S
C262 H252 0.930 . S
C262 C260 1.419 . S
C262 C263 1.362 . S
C263 H253 0.930 . S
C263 C256 1.409 . S
C263 C262 1.362 . S
H264 C270 0.930 . S
H265 C273 0.930 . S
H266 C274 0.930 . S
H267 C275 0.930 . S
H268 C278 0.930 . S
H269 C279 0.930 1_554 S
C270 H264 0.930 . S
C270 C271 1.355 1_554 S
C270 C272 1.415 1_554 S
C271 C270 1.355 1_556 S
C271 C273 1.419 . S
C272 C270 1.415 1_556 S
C272 C277 1.425 . S
C272 C279 1.409 . S
C273 H265 0.930 . S
C273 C271 1.419 . S
C273 C274 1.362 . S
C274 H266 0.930 . S
C274 C273 1.362 . S
C274 C277 1.409 . S
C275 H267 0.930 . S
C275 C276 1.355 . S
C275 C277 1.415 . S
C276 C275 1.355 . S
C276 C278 1.419 . S
C277 C272 1.425 . S
C277 C274 1.409 . S
C277 C275 1.415 . S
C278 H268 0.930 . S
C278 C276 1.419 . S
C278 C279 1.362 . S
C279 H269 0.930 1_556 S
C279 C272 1.409 . S
C279 C278 1.362 . S
H280 C286 0.930 . S
H281 C289 0.930 1_554 S
H282 C290 0.930 1_554 S
H283 C291 0.930 . S
H284 C294 0.930 . S
H285 C295 0.930 . S
C286 H280 0.930 . S
C286 C287 1.355 . S
C286 C288 1.415 . S
C287 C286 1.355 . S
C287 C289 1.419 . S
C288 C286 1.415 . S
C288 C293 1.425 . S
C288 C295 1.409 1_655 S
C289 H281 0.930 1_556 S
C289 C287 1.419 . S
C289 C290 1.362 . S
C290 H282 0.930 1_556 S
C290 C289 1.362 . S
C290 C293 1.409 . S
C291 H283 0.930 . S
C291 C292 1.355 . S
C291 C293 1.415 . S
C292 C291 1.355 . S
C292 C294 1.419 1_655 S
C293 C288 1.425 . S
C293 C290 1.409 . S
C293 C291 1.415 . S
C294 H284 0.930 . S
C294 C292 1.419 1_455 S
C294 C295 1.362 . S
C295 H285 0.930 . S
C295 C288 1.409 1_455 S
C295 C294 1.362 . S
H296 C302 0.930 . S
H297 C305 0.930 . S
H298 C306 0.930 1_655 S
H299 C307 0.930 1_655 S
H300 C310 0.930 . S
H301 C311 0.930 . S
C302 H296 0.930 . S
C302 C303 1.355 . S
C302 C304 1.415 . S
C303 C302 1.355 . S
C303 C305 1.419 . S
C304 C302 1.415 . S
C304 C309 1.425 . S
C304 C311 1.409 . S
C305 H297 0.930 . S
C305 C303 1.419 . S
C305 C306 1.362 . S
C306 H298 0.930 1_455 S
C306 C305 1.362 . S
C306 C309 1.409 . S
C307 H299 0.930 1_455 S
C307 C308 1.355 . S
C307 C309 1.415 . S
C308 C307 1.355 . S
C308 C310 1.419 . S
C309 C304 1.425 . S
C309 C306 1.409 . S
C309 C307 1.415 . S
C310 H300 0.930 . S
C310 C308 1.419 . S
C310 C311 1.362 . S
C311 H301 0.930 . S
C311 C304 1.409 . S
C311 C310 1.362 . S
H312 C318 0.930 . S
H313 C321 0.930 . S
H314 C322 0.930 1_565 S
H315 C323 0.930 1_565 S
H316 C326 0.930 . S
H317 C327 0.930 . S
C318 H312 0.930 . S
C318 C319 1.355 . S
C318 C320 1.415 . S
C319 C318 1.355 . S
C319 C321 1.419 . S
C320 C318 1.415 . S
C320 C325 1.425 . S
C320 C327 1.409 . S
C321 H313 0.930 . S
C321 C319 1.419 . S
C321 C322 1.362 . S
C322 H314 0.930 1_545 S
C322 C321 1.362 . S
C322 C325 1.409 . S
C323 H315 0.930 1_545 S
C323 C324 1.355 . S
C323 C325 1.415 . S
C324 C323 1.355 . S
C324 C326 1.419 . S
C325 C320 1.425 . S
C325 C322 1.409 . S
C325 C323 1.415 . S
C326 H316 0.930 . S
C326 C324 1.419 . S
C326 C327 1.362 . S
C327 H317 0.930 . S
C327 C320 1.409 . S
C327 C326 1.362 . S
H328 C334 0.930 . S
H329 C337 0.930 . S
H330 C338 0.930 . S
H331 C339 0.930 . S
H332 C342 0.930 . S
H333 C343 0.930 . S
C334 H328 0.930 . S
C334 C335 1.355 . S
C334 C336 1.415 . S
C335 C334 1.355 . S
C335 C337 1.419 . S
C336 C334 1.415 . S
C336 C341 1.425 . S
C336 C343 1.409 . S
C337 H329 0.930 . S
C337 C335 1.419 . S
C337 C338 1.362 . S
C338 H330 0.930 . S
C338 C337 1.362 . S
C338 C341 1.409 . S
C339 H331 0.930 . S
C339 C340 1.355 . S
C339 C341 1.415 . S
C340 C339 1.355 . S
C340 C342 1.419 . S
C341 C336 1.425 . S
C341 C338 1.409 . S
C341 C339 1.415 . S
C342 H332 0.930 . S
C342 C340 1.419 . S
C342 C343 1.362 . S
C343 H333 0.930 . S
C343 C336 1.409 . S
C343 C342 1.362 . S
H344 C350 0.930 . S
H345 C353 0.930 . S
H346 C354 0.930 . S
H347 C355 0.930 . S
H348 C358 0.930 . S
H349 C359 0.930 . S
C350 H344 0.930 . S
C350 C351 1.355 . S
C350 C352 1.415 . S
C351 C350 1.355 . S
C351 C353 1.419 . S
C352 C350 1.415 . S
C352 C357 1.425 . S
C352 C359 1.409 . S
C353 H345 0.930 . S
C353 C351 1.419 . S
C353 C354 1.362 . S
C354 H346 0.930 . S
C354 C353 1.362 . S
C354 C357 1.409 . S
C355 H347 0.930 . S
C355 C356 1.355 . S
C355 C357 1.415 . S
C356 C355 1.355 . S
C356 C358 1.419 . S
C357 C352 1.425 . S
C357 C354 1.409 . S
C357 C355 1.415 . S
C358 H348 0.930 . S
C358 C356 1.419 . S
C358 C359 1.362 . S
C359 H349 0.930 . S
C359 C352 1.409 . S
C359 C358 1.362 . S
H360 C366 0.930 1_554 S
H361 C369 0.930 . S
H362 C370 0.930 . S
H363 C371 0.922 1_455 S
H364 C374 0.930 . S
H365 C375 0.930 1_554 S
C366 H360 0.930 1_556 S
C366 C367 1.355 . S
C366 C368 1.415 . S
C367 C366 1.355 . S
C367 C369 1.419 . S
C368 C366 1.415 . S
C368 C373 1.425 . S
C368 C375 1.409 . S
C369 H361 0.930 . S
C369 C367 1.419 . S
C369 C370 1.362 . S
C370 H362 0.930 . S
C370 C369 1.362 . S
C370 C373 1.409 . S
C371 H363 0.922 1_655 S
C371 C372 1.355 . S
C371 C373 1.415 . S
C372 C371 1.355 . S
C372 C374 1.419 . S
C373 C368 1.425 . S
C373 C370 1.409 . S
C373 C371 1.415 . S
C374 H364 0.930 . S
C374 C372 1.419 . S
C374 C375 1.362 . S
C375 H365 0.930 1_556 S
C375 C368 1.409 . S
C375 C374 1.362 . S
H376 C382 0.930 . S
H377 C385 0.930 . S
H378 C386 0.930 1_545 S
H379 C387 0.930 1_545 S
H380 C390 0.930 . S
H381 C391 0.930 . S
C382 H376 0.930 . S
C382 C383 1.355 . S
C382 C384 1.415 . S
C383 C382 1.355 . S
C383 C385 1.419 1_556 S
C384 C382 1.415 . S
C384 C389 1.425 . S
C384 C391 1.409 . S
C385 H377 0.930 . S
C385 C383 1.419 1_554 S
C385 C386 1.362 . S
C386 H378 0.930 1_565 S
C386 C385 1.362 . S
C386 C389 1.409 1_554 S
C387 H379 0.930 1_565 S
C387 C388 1.355 . S
C387 C389 1.415 . S
C388 C387 1.355 . S
C388 C390 1.419 . S
C389 C384 1.425 . S
C389 C386 1.409 1_556 S
C389 C387 1.415 . S
C390 H380 0.930 . S
C390 C388 1.419 . S
C390 C391 1.362 . S
C391 H381 0.930 . S
C391 C384 1.409 . S
C391 C390 1.362 . S
H392 C398 0.930 . S
H393 C401 0.930 . S
H394 C402 0.937 . S
H395 C403 0.930 . S
H396 C406 0.930 . S
H397 C407 0.930 . S
C398 H392 0.930 . S
C398 C399 1.355 . S
C398 C400 1.415 . S
C399 C398 1.355 . S
C399 C401 1.419 1_556 S
C400 C398 1.415 . S
C400 C405 1.425 . S
C400 C407 1.409 . S
C401 H393 0.930 . S
C401 C399 1.419 1_554 S
C401 C402 1.365 . S
C402 H394 0.937 . S
C402 C401 1.365 . S
C402 C405 1.400 1_554 S
C403 H395 0.930 . S
C403 C404 1.355 . S
C403 C405 1.415 . S
C404 C403 1.355 . S
C404 C406 1.419 . S
C405 C400 1.425 . S
C405 C402 1.400 1_556 S
C405 C403 1.415 . S
C406 H396 0.930 . S
C406 C404 1.419 . S
C406 C407 1.362 . S
C407 H397 0.930 . S
C407 C400 1.409 . S
C407 C406 1.362 . S
H408 C414 0.930 1_554 S
H409 C417 0.930 . S
H410 C418 0.930 . S
H411 C419 0.930 . S
H412 C422 0.930 . S
H413 C423 0.930 1_554 S
C414 H408 0.930 1_556 S
C414 C415 1.355 . S
C414 C416 1.415 . S
C415 C414 1.355 . S
C415 C417 1.419 . S
C416 C414 1.415 . S
C416 C421 1.425 . S
C416 C423 1.409 . S
C417 H409 0.930 . S
C417 C415 1.419 . S
C417 C418 1.362 . S
C418 H410 0.930 . S
C418 C417 1.362 . S
C418 C421 1.409 . S
C419 H411 0.930 . S
C419 C420 1.355 . S
C419 C421 1.415 . S
C420 C419 1.355 . S
C420 C422 1.419 . S
C421 C416 1.425 . S
C421 C418 1.409 . S
C421 C419 1.415 . S
C422 H412 0.930 . S
C422 C420 1.419 . S
C422 C423 1.362 . S
C423 H413 0.930 1_556 S
C423 C416 1.409 . S
C423 C422 1.362 . S
H424 C430 0.930 . S
H425 C433 0.930 . S
H426 C434 0.930 1_556 S
H427 C435 0.930 . S
H428 C438 0.930 . S
H429 C439 0.930 . S
C430 H424 0.930 . S
C430 C431 1.355 . S
C430 C432 1.415 . S
C431 C430 1.355 . S
C431 C433 1.419 . S
C432 C430 1.415 . S
C432 C437 1.425 . S
C432 C439 1.409 . S
C433 H425 0.930 . S
C433 C431 1.419 . S
C433 C434 1.362 . S
C434 H426 0.930 1_554 S
C434 C433 1.362 . S
C434 C437 1.409 . S
C435 H427 0.930 . S
C435 C436 1.355 . S
C435 C437 1.415 1_556 S
C436 C435 1.355 . S
C436 C438 1.419 1_556 S
C437 C432 1.425 . S
C437 C434 1.409 . S
C437 C435 1.415 1_554 S
C438 H428 0.930 . S
C438 C436 1.419 1_554 S
C438 C439 1.362 . S
C439 H429 0.930 . S
C439 C432 1.409 . S
C439 C438 1.362 . S
H440 C446 0.930 . S
H441 C449 0.930 . S
H442 C450 0.930 . S
H443 C451 0.930 . S
H444 C454 0.930 . S
H445 C455 0.930 . S
C446 H440 0.930 . S
C446 C447 1.355 . S
C446 C448 1.415 . S
C447 C446 1.355 . S
C447 C449 1.419 . S
C448 C446 1.415 . S
C448 C453 1.425 . S
C448 C455 1.409 1_554 S
C449 H441 0.930 . S
C449 C447 1.419 . S
C449 C450 1.362 . S
C450 H442 0.930 . S
C450 C449 1.362 . S
C450 C453 1.409 . S
C451 H443 0.930 . S
C451 C452 1.355 1_554 S
C451 C453 1.415 . S
C452 C451 1.355 1_556 S
C452 C454 1.419 . S
C453 C448 1.425 . S
C453 C450 1.409 . S
C453 C451 1.415 . S
C454 H444 0.930 . S
C454 C452 1.419 . S
C454 C455 1.362 . S
C455 H445 0.930 . S
C455 C448 1.409 1_556 S
C455 C454 1.362 . S
H456 C462 0.930 . S
H457 C465 0.930 . S
H458 C466 0.930 1_556 S
H459 C467 0.930 . S
H460 C470 0.930 . S
H461 C471 0.930 . S
C462 H456 0.930 . S
C462 C463 1.355 . S
C462 C464 1.415 . S
C463 C462 1.355 . S
C463 C465 1.419 . S
C464 C462 1.415 . S
C464 C469 1.425 . S
C464 C471 1.409 . S
C465 H457 0.930 . S
C465 C463 1.419 . S
C465 C466 1.362 . S
C466 H458 0.930 1_554 S
C466 C465 1.362 . S
C466 C469 1.409 . S
C467 H459 0.930 . S
C467 C468 1.355 . S
C467 C469 1.415 1_556 S
C468 C467 1.355 . S
C468 C470 1.419 1_556 S
C469 C464 1.425 . S
C469 C466 1.409 . S
C469 C467 1.415 1_554 S
C470 H460 0.930 . S
C470 C468 1.419 1_554 S
C470 C471 1.362 . S
C471 H461 0.930 . S
C471 C464 1.409 . S
C471 C470 1.362 . S
H472 C478 0.930 . S
H473 C481 0.930 . S
H474 C482 0.930 . S
H475 C483 0.930 . S
H476 C486 0.930 . S
H477 C487 0.930 . S
C478 H472 0.930 . S
C478 C479 1.355 . S
C478 C480 1.415 . S
C479 C478 1.355 . S
C479 C481 1.419 . S
C480 C478 1.415 . S
C480 C485 1.425 . S
C480 C487 1.409 1_554 S
C481 H473 0.930 . S
C481 C479 1.419 . S
C481 C482 1.362 . S
C482 H474 0.930 . S
C482 C481 1.362 . S
C482 C485 1.409 . S
C483 H475 0.930 . S
C483 C484 1.355 1_554 S
C483 C485 1.415 . S
C484 C483 1.355 1_556 S
C484 C486 1.419 . S
C485 C480 1.425 . S
C485 C482 1.409 . S
C485 C483 1.415 . S
C486 H476 0.930 . S
C486 C484 1.419 . S
C486 C487 1.362 . S
C487 H477 0.930 . S
C487 C480 1.409 1_556 S
C487 C486 1.362 . S
H488 C494 0.930 . S
H489 C497 0.930 . S
H490 C498 0.930 . S
H491 C499 0.930 . S
H492 C502 0.930 . S
H493 C503 0.930 . S
C494 H488 0.930 . S
C494 C495 1.355 . S
C494 C496 1.415 . S
C495 C494 1.355 . S
C495 C497 1.419 . S
C496 C494 1.415 . S
C496 C501 1.425 . S
C496 C503 1.409 . S
C497 H489 0.930 . S
C497 C495 1.419 . S
C497 C498 1.362 . S
C498 H490 0.930 . S
C498 C497 1.362 . S
C498 C501 1.409 . S
C499 H491 0.930 . S
C499 C500 1.355 . S
C499 C501 1.415 . S
C500 C499 1.355 . S
C500 C502 1.419 . S
C501 C496 1.425 . S
C501 C498 1.409 . S
C501 C499 1.415 . S
C502 H492 0.930 . S
C502 C500 1.419 . S
C502 C503 1.362 . S
C503 H493 0.930 . S
C503 C496 1.409 . S
C503 C502 1.362 . S
H504 C510 0.930 . S
H505 C513 0.930 . S
H506 C514 0.930 . S
H507 C515 0.930 . S
H508 C518 0.930 1_545 S
H509 C519 0.930 . S
C510 H504 0.930 . S
C510 C511 1.355 . S
C510 C512 1.415 . S
C511 C510 1.355 . S
C511 C513 1.419 . S
C512 C510 1.415 . S
C512 C517 1.425 . S
C512 C519 1.409 . S
C513 H505 0.930 . S
C513 C511 1.419 . S
C513 C514 1.362 . S
C514 H506 0.930 . S
C514 C513 1.362 . S
C514 C517 1.409 . S
C515 H507 0.930 . S
C515 C516 1.355 . S
C515 C517 1.415 . S
C516 C515 1.355 . S
C516 C518 1.419 . S
C517 C512 1.425 . S
C517 C514 1.409 . S
C517 C515 1.415 . S
C518 H508 0.930 1_565 S
C518 C516 1.419 . S
C518 C519 1.362 . S
C519 H509 0.930 . S
C519 C512 1.409 . S
C519 C518 1.362 . S
H520 C526 0.930 . S
H521 C529 0.930 . S
H522 C530 0.930 . S
H523 C531 0.930 . S
H524 C534 0.930 . S
H525 C535 0.930 . S
C526 H520 0.930 . S
C526 C527 1.355 . S
C526 C528 1.415 . S
C527 C526 1.355 . S
C527 C529 1.419 . S
C528 C526 1.415 . S
C528 C533 1.425 . S
C528 C535 1.409 . S
C529 H521 0.930 . S
C529 C527 1.419 . S
C529 C530 1.362 . S
C530 H522 0.930 . S
C530 C529 1.362 . S
C530 C533 1.409 . S
C531 H523 0.930 . S
C531 C532 1.355 . S
C531 C533 1.415 . S
C532 C531 1.355 . S
C532 C534 1.419 . S
C533 C528 1.425 . S
C533 C530 1.409 . S
C533 C531 1.415 . S
C534 H524 0.930 . S
C534 C532 1.419 . S
C534 C535 1.362 . S
C535 H525 0.930 . S
C535 C528 1.409 . S
C535 C534 1.362 . S
H536 C542 0.930 . S
H537 C545 0.930 . S
H538 C546 0.930 . S
H539 C547 0.930 . S
H540 C550 0.930 . S
H541 C551 0.930 . S
C542 H536 0.930 . S
C542 C543 1.355 . S
C542 C544 1.415 . S
C543 C542 1.355 . S
C543 C545 1.419 . S
C544 C542 1.415 . S
C544 C549 1.425 . S
C544 C551 1.409 . S
C545 H537 0.930 . S
C545 C543 1.419 . S
C545 C546 1.362 . S
C546 H538 0.930 . S
C546 C545 1.362 . S
C546 C549 1.409 . S
C547 H539 0.930 . S
C547 C548 1.355 . S
C547 C549 1.415 . S
C548 C547 1.355 . S
C548 C550 1.419 . S
C549 C544 1.425 . S
C549 C546 1.409 . S
C549 C547 1.415 . S
C550 H540 0.930 . S
C550 C548 1.419 . S
C550 C551 1.362 . S
C551 H541 0.930 . S
C551 C544 1.409 . S
C551 C550 1.362 . S
C175 C76 1.566 . S
C180 C89 1.600 . S
C196 C124 1.604 . S
C191 C87 1.547 . S
C212 C129 1.362 . S
C207 C54 1.349 . S
C228 C149 1.502 . S
C223 C65 1.476 . S
C244 C97 1.597 1_565 S
C239 C32 1.550 1_556 S
C255 C43 1.584 . S
C260 C114 1.591 . S
C271 C10 1.296 1_556 S
C276 C137 1.332 . S
C287 C21 1.501 . S
C292 C157 1.493 1_655 S
C308 C107 1.348 . S
C303 C60 1.246 . S
C324 C116 1.114 . S
C319 C71 1.026 . S
C340 C147 1.358 . S
C335 C82 1.347 . S
C351 C49 1.022 . S
C356 C167 1.049 . S
C367 C16 1.324 . S
C372 C96 1.284 1_655 S
C388 C127 1.109 1_565 S
C383 C27 1.005 1_556 S
C404 C136 1.407 . S
C399 C38 1.299 1_556 S
C415 C5 1.090 1_556 S
C420 C156 0.990 . S
C431 C59 1.496 . S
C436 C94 1.450 . S
C447 C70 1.441 . S
C452 C117 1.537 . S
C468 C134 1.555 . S
C463 C81 1.562 . S
C484 C154 1.591 . S
C479 C48 1.510 . S
C495 C15 1.436 . S
C500 C104 1.500 . S
C516 C109 1.536 . S
C511 C26 1.441 . S
C532 C144 1.594 . S
C527 C37 1.495 . S
C543 C4 1.558 . S
C548 C164 1.551 . S
