# Generated by pormake.
# Topology ssa, (4,4)-cn, num edge types: 1
# Building blocks:
#     Node 0, Type 0, BuildingBlock: ESEHIV_clean_sbu_0, # of connection points: 4
#     Node 1, Type 0, BuildingBlock: ESEHIV_clean_sbu_0, # of connection points: 4
#     Node 2, Type 0, BuildingBlock: ESEHIV_clean_sbu_0, # of connection points: 4
#     Node 3, Type 0, BuildingBlock: ESEHIV_clean_sbu_0, # of connection points: 4
#     Node 4, Type 0, BuildingBlock: ESEHIV_clean_sbu_0, # of connection points: 4
#     Node 5, Type 0, BuildingBlock: ESEHIV_clean_sbu_0, # of connection points: 4
#     Node 6, Type 1, BuildingBlock: KUFVIS_clean_linker_0, # of connection points: 4
#     Node 7, Type 1, BuildingBlock: KUFVIS_clean_linker_0, # of connection points: 4
#     Node 8, Type 1, BuildingBlock: KUFVIS_clean_linker_0, # of connection points: 4
#     Node 9, Type 1, BuildingBlock: KUFVIS_clean_linker_0, # of connection points: 4
#     Node 10, Type 1, BuildingBlock: KUFVIS_clean_linker_0, # of connection points: 4
#     Node 11, Type 1, BuildingBlock: KUFVIS_clean_linker_0, # of connection points: 4
#     Edge 12, Type (0, 1), BuildingBlock: XUDNAN_clean_linker_2, # of connection points: 2
#     Edge 13, Type (0, 1), BuildingBlock: XUDNAN_clean_linker_2, # of connection points: 2
#     Edge 14, Type (0, 1), BuildingBlock: XUDNAN_clean_linker_2, # of connection points: 2
#     Edge 15, Type (0, 1), BuildingBlock: XUDNAN_clean_linker_2, # of connection points: 2
#     Edge 16, Type (0, 1), BuildingBlock: XUDNAN_clean_linker_2, # of connection points: 2
#     Edge 17, Type (0, 1), BuildingBlock: XUDNAN_clean_linker_2, # of connection points: 2
#     Edge 18, Type (0, 1), BuildingBlock: XUDNAN_clean_linker_2, # of connection points: 2
#     Edge 19, Type (0, 1), BuildingBlock: XUDNAN_clean_linker_2, # of connection points: 2
#     Edge 20, Type (0, 1), BuildingBlock: XUDNAN_clean_linker_2, # of connection points: 2
#     Edge 21, Type (0, 1), BuildingBlock: XUDNAN_clean_linker_2, # of connection points: 2
#     Edge 22, Type (0, 1), BuildingBlock: XUDNAN_clean_linker_2, # of connection points: 2
#     Edge 23, Type (0, 1), BuildingBlock: XUDNAN_clean_linker_2, # of connection points: 2
#     Edge 24, Type (0, 1), BuildingBlock: XUDNAN_clean_linker_2, # of connection points: 2
#     Edge 25, Type (0, 1), BuildingBlock: XUDNAN_clean_linker_2, # of connection points: 2
#     Edge 26, Type (0, 1), BuildingBlock: XUDNAN_clean_linker_2, # of connection points: 2
#     Edge 27, Type (0, 1), BuildingBlock: XUDNAN_clean_linker_2, # of connection points: 2
#     Edge 28, Type (0, 1), BuildingBlock: XUDNAN_clean_linker_2, # of connection points: 2
#     Edge 29, Type (0, 1), BuildingBlock: XUDNAN_clean_linker_2, # of connection points: 2
#     Edge 30, Type (0, 1), BuildingBlock: XUDNAN_clean_linker_2, # of connection points: 2
#     Edge 31, Type (0, 1), BuildingBlock: XUDNAN_clean_linker_2, # of connection points: 2
#     Edge 32, Type (0, 1), BuildingBlock: XUDNAN_clean_linker_2, # of connection points: 2
#     Edge 33, Type (0, 1), BuildingBlock: XUDNAN_clean_linker_2, # of connection points: 2
#     Edge 34, Type (0, 1), BuildingBlock: XUDNAN_clean_linker_2, # of connection points: 2
#     Edge 35, Type (0, 1), BuildingBlock: XUDNAN_clean_linker_2, # of connection points: 2
# Relax obj value: 0.006
# Max RMSD: 0.108
# Mean RMSD: 0.074
data_MOF--net-ssa--node1-ESEHIV_clean_sbu_0--node2-KUFVIS_clean_linker_0--edge1-XUDNAN_clean_linker_2
_symmetry_space_group_name_H-M    P1
_symmetry_Int_Tables_number       1
_symmetry_cell_setting            triclinic
loop_
_symmetry_equiv_pos_as_xyz
'x, y, z'
_cell_length_a     52.403516
_cell_length_b     56.017157
_cell_length_c     30.949195
_cell_angle_alpha  88.458605
_cell_angle_beta   90.303237
_cell_angle_gamma 122.53885
loop_
_atom_site_label
_atom_site_type_symbol
_atom_site_fract_x
_atom_site_fract_y
_atom_site_fract_z
_atom_type_partial_charge
Cu0 Cu 0.03924 0.54966 0.01662 0.0
N1 N 1.01215 0.51364 0.04072 0.0
N2 N 0.97306 0.46872 0.03951 0.0
C3 C 0.98439 0.49552 0.02499 0.0
C4 C 0.99437 0.46993 0.0656 0.0
C5 C 1.0184 0.49771 0.06653 0.0
O6 O 1.02018 0.55042 0.96245 0.0
C7 C 0.09386 0.55698 0.04359 0.0
O8 O 0.08277 0.55799 0.08097 0.0
H9 H 0.97416 0.50127 -0.00031 0.0
H10 H 0.03994 0.50509 0.08163 0.0
N11 N 0.04428 0.57793 0.05323 0.0
N12 N 0.06752 0.61681 0.09262 0.0
C13 C 0.07068 0.60206 0.06173 0.0
C14 C 1.02357 0.57764 0.07918 0.0
C15 C 0.03787 0.60173 0.10346 0.0
C16 C 1.00889 0.56545 0.95558 0.0
O17 O 1.01485 0.58561 0.98226 0.0
H18 H 0.09208 0.60813 0.04684 0.0
H19 H 1.0 0.56061 0.08135 0.0
O20 O 0.07846 0.55334 0.0095 0.0
H21 H 0.99361 0.45175 0.08009 0.0
H22 H 1.02765 0.60692 0.12884 0.0
Cu23 Cu 0.55289 0.03587 0.51581 0.0
N24 N 0.56955 0.02285 0.47657 0.0
N25 N 0.57564 0.99169 0.44217 0.0
C26 C 0.5631 0.99607 0.47647 0.0
C27 C 0.59058 1.01651 0.41967 0.0
C28 C 0.58701 0.03583 0.4412 0.0
O29 O 0.51315 1.00293 0.53162 0.0
C30 C 0.60645 0.07096 0.56094 0.0
O31 O 0.61931 0.07423 0.5231 0.0
H32 H 0.54853 0.9798 0.50016 0.0
H33 H 0.5961 0.05762 0.43128 0.0
N34 N 0.54951 0.06557 0.49409 0.0
N35 N 0.54628 0.10359 0.49967 0.0
C36 C 0.54355 0.08081 0.52025 0.0
C37 C 0.55608 0.07909 0.45519 0.0
C38 C 0.55427 0.10274 0.45865 0.0
C39 C 0.48902 0.99908 0.51478 0.0
O40 O 0.49062 1.01925 0.49001 0.0
H41 H 0.53878 0.07599 0.55447 0.0
H42 H 0.56254 0.0728 0.42668 0.0
O43 O 0.57829 0.05245 0.56586 0.0
H44 H 0.60285 1.02022 0.38965 0.0
H45 H 0.55888 0.11827 0.43325 0.0
Cu46 Cu 0.55386 0.52579 -0.00119 0.0
N47 N 0.54112 0.4883 0.01411 0.0
N48 N 0.5336 0.44542 0.00687 0.0
C49 C 0.5405 0.46978 0.98655 0.0
C50 C 0.52964 0.44848 0.04883 0.0
C51 C 0.53405 0.47494 0.05319 0.0
O52 O 0.59021 0.54044 0.9629 0.0
C53 C 0.49428 0.50637 0.96729 0.0
O54 O 0.48891 0.48064 0.97071 0.0
H55 H 0.54589 0.47442 0.95242 0.0
H56 H 0.53256 0.48384 0.08289 0.0
N57 N 0.56243 0.54831 0.04707 0.0
N58 N 0.5613 0.58004 0.08803 0.0
C59 C 0.55794 0.56984 0.04804 0.0
C60 C 0.56939 0.54509 0.08788 0.0
C61 C 0.56851 0.56457 0.11331 0.0
C62 C 0.61144 0.53876 0.97992 0.0
O63 O 0.60817 0.52969 0.02035 0.0
H64 H 0.55104 0.57708 0.02024 0.0
H65 H 0.57407 0.52933 0.09871 0.0
O66 O 0.52121 0.52755 0.97164 0.0
H67 H 0.52394 0.43272 0.07432 0.0
H68 H 0.5727 0.56708 0.14769 0.0
Cu69 Cu 0.04128 0.50133 0.49687 0.0
N70 N 0.04987 0.48155 0.45795 0.0
N71 N 0.07771 0.47076 0.41815 0.0
C72 C 0.07794 0.48798 0.4481 0.0
C73 C 0.04819 0.45276 0.4088 0.0
C74 C 1.03106 0.45941 0.43353 0.0
O75 O 0.08031 0.53567 0.50805 0.0
C76 C 1.01701 0.45531 0.56178 0.0
O77 O 0.03735 0.44995 0.54957 0.0
H78 H 0.09822 0.5055 0.46191 0.0
H79 H 1.00669 0.44906 0.43342 0.0
N80 N 1.01602 0.51199 0.47256 0.0
N81 N 0.98161 0.52399 0.47189 0.0
C82 C 1.00089 0.52045 0.49605 0.0
C83 C 1.00592 0.50996 0.4319 0.0
C84 C 0.98454 0.51728 0.43142 0.0
C85 C 0.08516 0.55813 0.52518 0.0
O86 O 0.06283 0.55798 0.54451 0.0
H87 H 1.00282 0.5225 0.53078 0.0
H88 H 1.01281 0.50274 0.40491 0.0
O89 O 1.01771 0.47691 0.54608 0.0
H90 H 0.03954 0.43596 0.3858 0.0
H91 H 0.9718 0.51719 0.40372 0.0
Cu92 Cu 0.52434 1.00595 0.01149 0.0
N93 N 0.50303 1.01454 0.97222 0.0
N94 N 0.48702 0.03982 0.93842 0.0
C95 C 0.50882 0.04066 0.96294 0.0
C96 C 0.46666 1.01211 0.93199 0.0
C97 C 0.47665 0.99654 0.95285 0.0
O98 O 0.56362 0.04057 0.02056 0.0
C99 C 0.47751 0.96402 0.06459 0.0
O100 O 0.47249 0.9487 0.03047 0.0
H101 H 0.52788 0.05985 0.97567 0.0
H102 H 0.46497 0.9737 0.95506 0.0
N103 N 0.53146 0.9789 0.99123 0.0
N104 N 0.53805 0.94275 -0.00458 0.0
C105 C 0.53436 0.96106 0.01752 0.0
C106 C 0.53394 0.97199 0.95077 0.0
C107 C 0.53819 0.94962 0.9533 0.0
C108 C 0.57952 0.0523 0.98647 0.0
O109 O 0.5687 0.04074 0.94901 0.0
H110 H 0.53317 0.96116 0.05243 0.0
H111 H 0.53221 0.98211 0.92162 0.0
O112 O 0.49926 0.99001 0.06376 0.0
H113 H 0.44591 1.00373 0.91401 0.0
H114 H 0.54012 0.93866 0.92647 0.0
Cu115 Cu 0.52515 0.52046 0.49623 0.0
N116 N 0.53116 0.5526 0.52297 0.0
N117 N 0.54181 0.59686 0.52676 0.0
C118 C 0.54306 0.57789 0.50241 0.0
C119 C 0.52881 0.58295 0.56451 0.0
C120 C 0.52238 0.55562 0.56215 0.0
O121 O 0.50508 0.51686 0.44115 0.0
C122 C 0.57511 0.52413 0.52957 0.0
O123 O 0.55989 0.5226 0.56426 0.0
H124 H 0.55053 0.58157 0.46898 0.0
H125 H 0.51106 0.53888 0.58655 0.0
N126 N 0.50032 0.48695 0.52838 0.0
N127 N 0.48432 0.44398 0.55716 0.0
C128 C 0.50504 0.46561 0.53149 0.0
C129 C 0.47543 0.47852 0.55244 0.0
C130 C 0.46557 0.45203 0.57045 0.0
C131 C 0.48518 0.52338 0.43936 0.0
O132 O 0.47929 0.5327 0.47399 0.0
H133 H 0.524 0.46647 0.5161 0.0
H134 H 0.46534 0.49081 0.55683 0.0
O135 O 0.56455 0.52461 0.49256 0.0
H136 H 0.5235 0.59158 0.59136 0.0
H137 H 0.44616 0.43978 0.5917 0.0
H138 H 0.38595 0.51847 0.16225 0.0
H139 H 0.31892 0.51594 0.24376 0.0
H140 H 0.31287 0.52043 0.10395 0.0
H141 H 0.2882 0.54155 0.11869 0.0
H142 H 0.20877 0.51813 0.19206 0.0
H143 H 0.26922 0.49497 0.24118 0.0
C144 C 0.36563 0.51898 0.16562 0.0
C145 C 0.35156 0.52119 0.12869 0.0
C146 C 0.35345 0.51616 0.20676 0.0
C147 C 0.32729 0.51705 0.21142 0.0
C148 C 0.31193 0.51872 0.17456 0.0
C149 C 0.32429 0.52023 0.13304 0.0
C150 C 0.28298 0.51835 0.17929 0.0
C151 C 0.27411 0.53091 0.14694 0.0
C152 C 0.24732 0.53073 0.15157 0.0
C153 C 0.22926 0.51797 0.18846 0.0
C154 C 0.23707 0.50531 0.22093 0.0
C155 C 0.26388 0.50547 0.21627 0.0
H156 H 0.70356 0.18094 0.80349 0.0
H157 H 0.78366 0.24139 0.86952 0.0
H158 H 0.77476 0.25176 0.7316 0.0
H159 H 0.82532 0.27857 0.73268 0.0
H160 H 0.89148 0.35104 0.80233 0.0
H161 H 0.80955 0.28808 0.86661 0.0
C162 C 0.72585 0.20035 0.80272 0.0
C163 C 0.73778 0.21491 0.76339 0.0
C164 C 0.74191 0.21018 0.84102 0.0
C165 C 0.77116 0.23472 0.83969 0.0
C166 C 0.78366 0.25069 0.80043 0.0
C167 C 0.76653 0.24015 0.76211 0.0
C168 C 0.81374 0.27863 0.80022 0.0
C169 C 0.8323 0.2899 0.76256 0.0
C170 C 0.86032 0.31609 0.76318 0.0
C171 C 0.87025 0.33063 0.80188 0.0
C172 C 0.85201 0.32044 0.83907 0.0
C173 C 0.82374 0.29488 0.83792 0.0
H174 H 0.5546 0.6961 0.29359 0.0
H175 H 0.53728 0.74609 0.20659 0.0
H176 H 0.56215 0.77052 0.33975 0.0
H177 H 0.54589 0.79769 0.33058 0.0
H178 H 0.55174 0.85933 0.23975 0.0
H179 H 0.55115 0.7886 0.19235 0.0
C180 C 0.55302 0.71437 0.28734 0.0
C181 C 0.55778 0.73223 0.32131 0.0
C182 C 0.54619 0.71954 0.24574 0.0
C183 C 0.54403 0.74334 0.23836 0.0
C184 C 0.54993 0.7627 0.27161 0.0
C185 C 0.55684 0.75652 0.31322 0.0
C186 C 0.54931 0.78923 0.26296 0.0
C187 C 0.54812 0.80501 0.2974 0.0
C188 C 0.54916 0.83044 0.2895 0.0
C189 C 0.55001 0.83943 0.24667 0.0
C190 C 0.54907 0.82355 0.21203 0.0
C191 C 0.55004 0.7993 0.22005 0.0
H192 H 0.8899 0.54452 0.70558 0.0
H193 H 0.81939 0.53941 0.7816 0.0
H194 H 0.82363 0.5555 0.64295 0.0
H195 H 0.77443 0.53309 0.64841 0.0
H196 H 0.70914 0.53845 0.72161 0.0
H197 H 0.79232 0.55905 0.78158 0.0
C198 C 0.8702 0.54612 0.70725 0.0
C199 C 0.85823 0.55028 0.66936 0.0
C200 C 0.85677 0.54302 0.7475 0.0
C201 C 0.83017 0.5433 0.75026 0.0
C202 C 0.81713 0.54732 0.71258 0.0
C203 C 0.83204 0.55135 0.67231 0.0
C204 C 0.7876 0.54611 0.71489 0.0
C205 C 0.76843 0.53837 0.67845 0.0
C206 C 0.7405 0.53618 0.68072 0.0
C207 C 0.73115 0.54109 0.71992 0.0
C208 C 0.74936 0.54906 0.75669 0.0
C209 C 0.7778 0.55194 0.75369 0.0
H210 H 0.19906 0.69488 0.32091 0.0
H211 H 0.25771 0.77827 0.2671 0.0
H212 H 0.27488 0.75598 0.39444 0.0
H213 H 0.29672 0.80172 0.40481 0.0
H214 H 0.36664 0.87885 0.34384 0.0
H215 H 0.30747 0.80894 0.26494 0.0
C216 C 0.2195 0.71576 0.32344 0.0
C217 C 0.23586 0.72333 0.36195 0.0
C218 C 0.22762 0.73541 0.28925 0.0
C219 C 0.25281 0.7631 0.29319 0.0
C220 C 0.2709 0.77115 0.33068 0.0
C221 C 0.26189 0.7508 0.36507 0.0
C222 C 0.29819 0.80089 0.33435 0.0
C223 C 0.30828 0.81325 0.37534 0.0
C224 C 0.33292 0.84128 0.37862 0.0
C225 C 0.34741 0.85725 0.34111 0.0
C226 C 0.33793 0.84602 0.30021 0.0
C227 C 0.31393 0.8176 0.29684 0.0
H228 H 0.50966 0.33958 0.76546 0.0
H229 H 0.52165 0.27708 0.82726 0.0
H230 H 0.49796 0.27101 0.69179 0.0
H231 H 0.52595 0.25215 0.68701 0.0
H232 H 0.52016 0.17965 0.74739 0.0
H233 H 0.49927 0.23023 0.82189 0.0
C234 C 0.50876 0.31982 0.76416 0.0
C235 C 0.50244 0.30618 0.72481 0.0
C236 C 0.51412 0.30879 0.80172 0.0
C237 C 0.51615 0.28481 0.79859 0.0
C238 C 0.51104 0.27098 0.75872 0.0
C239 C 0.50356 0.28176 0.72217 0.0
C240 C 0.51322 0.24534 0.7553 0.0
C241 C 0.52121 0.23878 0.71555 0.0
C242 C 0.52254 0.21446 0.71212 0.0
C243 C 0.51822 0.19793 0.74936 0.0
C244 C 0.51013 0.20366 0.7888 0.0
C245 C 0.50688 0.22688 0.79154 0.0
H246 H 0.13804 0.5811 0.10343 0.0
H247 H 0.11515 0.53589 0.98369 0.0
H248 H 0.16029 0.53248 0.99103 0.0
H249 H 0.2223 0.61946 0.09162 0.0
H250 H 0.22675 0.61537 0.14863 0.0
H251 H 0.19611 0.61866 0.13009 0.0
H252 H 0.15719 0.57173 0.16974 0.0
H253 H 0.1874 0.56831 0.18926 0.0
H254 H 0.15701 0.54012 0.1593 0.0
H255 H 0.20233 0.52624 0.01955 0.0
H256 H 0.23547 0.51761 0.06597 0.0
H257 H 0.23195 0.56908 0.16461 0.0
C258 C 0.14294 0.57114 0.07807 0.0
C259 C 0.12313 0.55876 0.04296 0.0
C260 C 0.13022 0.54577 0.01063 0.0
C261 C 0.15583 0.54376 0.01459 0.0
C262 C 0.17439 0.55539 0.05057 0.0
C263 C 0.16837 0.56919 0.08141 0.0
C264 C 0.18951 0.57727 0.11937 0.0
C265 C 0.20989 0.60962 0.12257 0.0
C266 C 0.17171 0.56352 0.16187 0.0
C267 C 0.20756 0.56472 0.10626 0.0
C268 C 0.19893 0.55249 0.06623 0.0
C269 C 0.20985 0.53646 0.05029 0.0
C270 C 0.22888 0.53182 0.07668 0.0
C271 C 0.23657 0.54303 0.11854 0.0
C272 C 0.22693 0.5608 0.13232 0.0
H273 H 0.66693 0.10077 0.5809 0.0
H274 H 0.5818 0.09245 0.61183 0.0
H275 H 0.60867 0.13404 0.65804 0.0
H276 H 0.69639 0.11841 0.68873 0.0
H277 H 0.73496 0.14244 0.67081 0.0
H278 H 0.70911 0.11335 0.63776 0.0
H279 H 0.72084 0.14882 0.5739 0.0
H280 H 0.74613 0.1781 0.60726 0.0
H281 H 0.71508 0.17747 0.58072 0.0
H282 H 0.64423 0.17623 0.70043 0.0
H283 H 0.68438 0.21007 0.74879 0.0
H284 H 0.74646 0.18984 0.69507 0.0
C285 C 0.65403 0.1077 0.59763 0.0
C286 C 0.6223 0.09342 0.59286 0.0
C287 C 0.60606 0.1029 0.6154 0.0
C288 C 0.62119 0.12674 0.64124 0.0
C289 C 0.65253 0.14068 0.6447 0.0
C290 C 0.66871 0.13111 0.62449 0.0
C291 C 0.70184 0.14841 0.63698 0.0
C292 C 0.71111 0.12953 0.65995 0.0
C293 C 0.72217 0.16413 0.59734 0.0
C294 C 0.70165 0.16897 0.66775 0.0
C295 C 0.67307 0.16455 0.6707 0.0
C296 C 0.66673 0.18001 0.69822 0.0
C297 C 0.68973 0.1994 0.72521 0.0
C298 C 0.71856 0.20289 0.72493 0.0
C299 C 0.7249 0.18819 0.69483 0.0
H300 H 0.53433 0.58148 0.16173 0.0
H301 H 0.57845 0.62858 0.0433 0.0
H302 H 0.57347 0.66786 0.06658 0.0
H303 H 0.48056 0.60565 0.16806 0.0
H304 H 0.48216 0.60669 0.22621 0.0
H305 H 0.4869 0.58143 0.19842 0.0
H306 H 0.53836 0.6004 0.2363 0.0
H307 H 0.53366 0.62553 0.26424 0.0
H308 H 0.56717 0.63766 0.23184 0.0
H309 H 0.56973 0.70438 0.10748 0.0
H310 H 0.56646 0.73435 0.16144 0.0
H311 H 0.51987 0.66156 0.24999 0.0
C312 C 0.54272 0.60002 0.14068 0.0
C313 C 0.55703 0.60221 0.10091 0.0
C314 C 0.56737 0.62655 0.07383 0.0
C315 C 0.56458 0.64889 0.08677 0.0
C316 C 0.55067 0.64626 0.12645 0.0
C317 C 0.53947 0.62221 0.1527 0.0
C318 C 0.52631 0.625 0.19434 0.0
C319 C 0.49195 0.60341 0.19689 0.0
C320 C 0.54235 0.62198 0.234 0.0
C321 C 0.53347 0.65497 0.1885 0.0
C322 C 0.54722 0.6668 0.14898 0.0
C323 C 0.55836 0.69513 0.13814 0.0
C324 C 0.55622 0.712 0.16896 0.0
C325 C 0.54302 0.70052 0.21022 0.0
C326 C 0.53045 0.67126 0.21907 0.0
H327 H 0.99076 0.5589 0.53699 0.0
H328 H 0.92438 0.50374 0.44392 0.0
H329 H 0.88623 0.51065 0.47806 0.0
H330 H 0.94381 0.53405 0.62584 0.0
H331 H 0.95983 0.56777 0.65105 0.0
H332 H 0.98265 0.56194 0.61512 0.0
H333 H 0.99421 0.60579 0.56823 0.0
H334 H 0.97133 0.61176 0.60416 0.0
H335 H 0.96337 0.60799 0.54715 0.0
H336 H 0.85346 0.51763 0.53018 0.0
H337 H 0.82991 0.52429 0.59397 0.0
H338 H 0.91875 0.57738 0.64989 0.0
C339 C 0.96835 0.54874 0.52329 0.0
C340 C 0.96051 0.5308 0.48782 0.0
C341 C 0.93097 0.51785 0.47074 0.0
C342 C 0.90916 0.52164 0.49 0.0
C343 C 0.91745 0.5389 0.52576 0.0
C344 C 0.94654 0.55256 0.54179 0.0
C345 C 0.94931 0.5682 0.58241 0.0
C346 C 0.95948 0.55733 0.62085 0.0
C347 C 0.97083 0.60034 0.57502 0.0
C348 C 0.91692 0.56015 0.58802 0.0
C349 C 0.89886 0.54351 0.55486 0.0
C350 C 0.86754 0.5312 0.55574 0.0
C351 C 0.85434 0.53524 0.59204 0.0
C352 C 0.87242 0.55136 0.62705 0.0
C353 C 0.90422 0.56487 0.6238 0.0
H354 H 0.44992 0.90928 0.09498 0.0
H355 H 0.45865 0.98928 0.11894 0.0
H356 H 0.42038 0.96615 0.17779 0.0
H357 H 0.3704 0.86315 0.11589 0.0
H358 H 0.37331 0.83603 0.1437 0.0
H359 H 0.4009 0.85846 0.10286 0.0
H360 H 0.44416 0.87337 0.15734 0.0
H361 H 0.41691 0.85068 0.19825 0.0
H362 H 0.44311 0.88772 0.20822 0.0
H363 H 0.38012 0.93424 0.23146 0.0
H364 H 0.34629 0.89763 0.2854 0.0
H365 H 0.36544 0.83842 0.23033 0.0
C366 C 0.44374 0.92188 0.11274 0.0
C367 C 0.45696 0.95101 0.10235 0.0
C368 C 0.44881 0.96699 0.12658 0.0
C369 C 0.42694 0.95397 0.15973 0.0
C370 C 0.41389 0.92509 0.16863 0.0
C371 C 0.42245 0.90935 0.14655 0.0
C372 C 0.4062 0.87905 0.16436 0.0
C373 C 0.38653 0.85793 0.12962 0.0
C374 C 0.42895 0.87232 0.18318 0.0
C375 C 0.38685 0.88011 0.19963 0.0
C376 C 0.39145 0.90683 0.20101 0.0
C377 C 0.37649 0.91332 0.23087 0.0
C378 C 0.35724 0.89235 0.26124 0.0
C379 C 0.3533 0.86523 0.26206 0.0
C380 C 0.36772 0.85882 0.23009 0.0
H381 H 0.4582 0.41052 0.62944 0.0
H382 H 0.5107 0.42047 0.51467 0.0
H383 H 0.51546 0.38115 0.54074 0.0
H384 H 0.49985 0.39778 0.70188 0.0
H385 H 0.46818 0.3718 0.73476 0.0
H386 H 0.46587 0.39843 0.70458 0.0
H387 H 0.41732 0.35929 0.66714 0.0
H388 H 0.41952 0.33248 0.6973 0.0
H389 H 0.41806 0.33186 0.63911 0.0
H390 H 0.52011 0.34469 0.58407 0.0
H391 H 0.52421 0.31509 0.64121 0.0
H392 H 0.46539 0.32648 0.72427 0.0
C393 C 0.46995 0.40399 0.60907 0.0
C394 C 0.48417 0.41888 0.57003 0.0
C395 C 0.49994 0.40984 0.54502 0.0
C396 C 0.50254 0.38726 0.55934 0.0
C397 C 0.48882 0.37349 0.59844 0.0
C398 C 0.47257 0.38136 0.62272 0.0
C399 C 0.46186 0.36461 0.66507 0.0
C400 C 0.47472 0.38433 0.70383 0.0
C401 C 0.42712 0.34595 0.66726 0.0
C402 C 0.47552 0.34683 0.66148 0.0
C403 C 0.49079 0.35199 0.62271 0.0
C404 C 0.50767 0.34 0.61416 0.0
C405 C 0.50975 0.32307 0.64666 0.0
C406 C 0.49514 0.31848 0.68715 0.0
C407 C 0.47685 0.32962 0.69365 0.0
H408 H 0.54369 0.95999 0.37494 0.0
H409 H 0.5989 0.96444 0.48248 0.0
H410 H 0.5943 0.92003 0.4597 0.0
H411 H 0.49202 0.88198 0.37978 0.0
H412 H 0.48835 0.87976 0.32185 0.0
H413 H 0.49502 0.91091 0.34817 0.0
H414 H 0.54238 0.94228 0.29949 0.0
H415 H 0.53576 0.91126 0.27304 0.0
H416 H 0.57176 0.93475 0.29785 0.0
H417 H 0.58789 0.87789 0.41942 0.0
H418 H 0.57911 0.84152 0.36735 0.0
H419 H 0.52271 0.86162 0.29165 0.0
C420 C 0.55448 0.9513 0.39372 0.0
C421 C 0.57177 0.96537 0.43018 0.0
C422 C 0.5856 0.95368 0.45444 0.0
C423 C 0.58303 0.92855 0.44175 0.0
C424 C 0.56592 0.91513 0.40532 0.0
C425 C 0.55151 0.92593 0.38206 0.0
C426 C 0.53485 0.90781 0.34386 0.0
C427 C 0.50052 0.89431 0.34873 0.0
C428 C 0.54692 0.92506 0.30105 0.0
C429 C 0.54304 0.88573 0.34823 0.0
C430 C 0.56094 0.89019 0.38381 0.0
C431 C 0.57337 0.87387 0.39195 0.0
C432 C 0.56806 0.85305 0.36232 0.0
C433 C 0.55034 0.84862 0.32505 0.0
C434 C 0.53677 0.86457 0.31929 0.0
H435 H 0.62805 0.55942 0.8955 0.0
H436 H 0.65465 0.5287 0.0062 0.0
H437 H 0.69626 0.53269 0.96343 0.0
H438 H 0.64132 0.52346 0.81656 0.0
H439 H 0.65629 0.55164 0.77611 0.0
H440 H 0.62997 0.54866 0.81632 0.0
H441 H 0.66845 0.60017 0.83896 0.0
H442 H 0.69489 0.60332 0.79868 0.0
H443 H 0.70611 0.61023 0.8544 0.0
H444 H 0.73136 0.53456 0.90634 0.0
H445 H 0.75773 0.53557 0.83987 0.0
H446 H 0.71239 0.56986 0.76809 0.0
C447 C 0.64293 0.55399 0.91093 0.0
C448 C 0.63796 0.54377 0.95433 0.0
C449 C 0.65791 0.53669 0.97312 0.0
C450 C 0.68173 0.53889 0.94908 0.0
C451 C 0.68578 0.54864 0.9063 0.0
C452 C 0.66718 0.55641 0.88748 0.0
C453 C 0.67584 0.56523 0.8404 0.0
C454 C 0.64928 0.5461 0.81061 0.0
C455 C 0.68699 0.59661 0.83267 0.0
C456 C 0.7015 0.56036 0.8355 0.0
C457 C 0.70693 0.55082 0.87385 0.0
C458 C 0.72777 0.54259 0.87627 0.0
C459 C 0.74289 0.54347 0.83826 0.0
C460 C 0.7373 0.55268 0.79823 0.0
C461 C 0.71705 0.5622 0.79766 0.0
H462 H 0.12559 0.56957 0.46011 0.0
H463 H 0.10883 0.60873 0.56596 0.0
H464 H 0.15276 0.65546 0.5421 0.0
H465 H 0.21005 0.61792 0.45477 0.0
H466 H 0.21011 0.61778 0.39654 0.0
H467 H 0.18157 0.58702 0.427 0.0
H468 H 0.13962 0.58864 0.38495 0.0
H469 H 0.16792 0.61931 0.35449 0.0
H470 H 0.13929 0.62067 0.38428 0.0
H471 H 0.19437 0.69864 0.50106 0.0
H472 H 0.22644 0.73403 0.44413 0.0
H473 H 0.21464 0.66663 0.36391 0.0
C474 C 0.13178 0.58779 0.47928 0.0
C475 C 0.11404 0.58539 0.51542 0.0
C476 C 0.12229 0.60999 0.53853 0.0
C477 C 0.14728 0.63661 0.52526 0.0
C478 C 0.16378 0.63835 0.4887 0.0
C479 C 0.15628 0.61451 0.46603 0.0
C480 C 0.17476 0.62232 0.42464 0.0
C481 C 0.19535 0.61056 0.42583 0.0
C482 C 0.15417 0.61215 0.38477 0.0
C483 C 0.19311 0.65433 0.4267 0.0
C484 C 0.18703 0.6632 0.46436 0.0
C485 C 0.19966 0.6919 0.47184 0.0
C486 C 0.21805 0.71191 0.43943 0.0
C487 C 0.22323 0.70311 0.39973 0.0
C488 C 0.21133 0.67399 0.39411 0.0
H489 H 0.53331 0.09109 0.90961 0.0
H490 H 0.43665 0.04198 0.93442 0.0
H491 H 0.43352 0.08265 0.90906 0.0
H492 H 0.54814 0.16147 0.93711 0.0
H493 H 0.57549 0.17877 0.89373 0.0
H494 H 0.56971 0.14701 0.91969 0.0
H495 H 0.55899 0.12374 0.84441 0.0
H496 H 0.56454 0.15554 0.81936 0.0
H497 H 0.52964 0.12209 0.81148 0.0
H498 H 0.4406 0.12776 0.87661 0.0
H499 H 0.45602 0.1706 0.83105 0.0
H500 H 0.54763 0.18941 0.82531 0.0
C501 C 0.51162 0.08917 0.91041 0.0
C502 C 0.48524 0.06357 0.92427 0.0
C503 C 0.45707 0.06145 0.92381 0.0
C504 C 0.45517 0.08451 0.90989 0.0
C505 C 0.48163 0.1095 0.89626 0.0
C506 C 0.50927 0.11181 0.89593 0.0
C507 C 0.53374 0.13976 0.87546 0.0
C508 C 0.55823 0.15785 0.90847 0.0
C509 C 0.54752 0.13499 0.8353 0.0
C510 C 0.51544 0.15255 0.86336 0.0
C511 C 0.48557 0.13511 0.87653 0.0
C512 C 0.46401 0.14175 0.86665 0.0
C513 C 0.47297 0.16622 0.84114 0.0
C514 C 0.50304 0.1834 0.82539 0.0
C515 C 0.52465 0.17689 0.83781 0.0
H516 H 0.46151 0.55404 0.41112 0.0
H517 H 0.46686 0.48175 0.38045 0.0
H518 H 0.43075 0.47045 0.32071 0.0
H519 H 0.38376 0.52444 0.38985 0.0
H520 H 0.38867 0.55603 0.36454 0.0
H521 H 0.41513 0.5588 0.4046 0.0
H522 H 0.45967 0.58795 0.3505 0.0
H523 H 0.43347 0.58573 0.31042 0.0
H524 H 0.45842 0.57384 0.29833 0.0
H525 H 0.39223 0.46563 0.26738 0.0
H526 H 0.35983 0.47159 0.21581 0.0
H527 H 0.38106 0.54843 0.27836 0.0
C528 C 0.45522 0.53595 0.39155 0.0
C529 C 0.46678 0.51861 0.40039 0.0
C530 C 0.45837 0.49534 0.37396 0.0
C531 C 0.4377 0.48866 0.34027 0.0
C532 C 0.42614 0.50579 0.33308 0.0
C533 C 0.43514 0.52936 0.35725 0.0
C534 C 0.42038 0.54501 0.3415 0.0
C535 C 0.40082 0.54612 0.37727 0.0
C536 C 0.44441 0.5749 0.32415 0.0
C537 C 0.401 0.52613 0.30533 0.0
C538 C 0.40459 0.50353 0.30132 0.0
C539 C 0.38936 0.48328 0.2701 0.0
C540 C 0.37086 0.48672 0.2412 0.0
C541 C 0.3678 0.5103 0.24344 0.0
C542 C 0.38258 0.52995 0.27651 0.0
H543 H 0.97596 0.42752 0.00172 0.0
H544 H 0.9157 0.45555 0.03091 0.0
H545 H 0.87479 0.41566 0.9899 0.0
H546 H 0.9547 0.41327 0.89477 0.0
H547 H 0.95834 0.38315 0.89173 0.0
H548 H 0.98061 0.41036 0.92967 0.0
H549 H 0.95935 0.37286 0.99251 0.0
H550 H 0.93704 0.34544 0.95464 0.0
H551 H 0.91897 0.34996 0.0003 0.0
H552 H 0.84209 0.37495 0.9409 0.0
H553 H 0.82195 0.33999 0.88267 0.0
H554 H 0.90527 0.34114 0.88166 0.0
C555 C 0.95377 0.42453 0.00066 0.0
C556 C 0.94843 0.44389 0.02031 0.0
C557 C 0.91974 0.44042 0.01665 0.0
C558 C 0.8965 0.41787 0.99357 0.0
C559 C 0.9026 0.39929 0.9739 0.0
C560 C 0.93066 0.40256 0.97696 0.0
C561 C 0.9328 0.38218 0.94839 0.0
C562 C 0.9581 0.3982 0.91412 0.0
C563 C 0.9373 0.36137 0.9756 0.0
C564 C 0.90182 0.36729 0.92809 0.0
C565 C 0.88444 0.37696 0.9439 0.0
C566 C 0.85538 0.36702 0.92863 0.0
C567 C 0.84408 0.34714 0.89574 0.0
C568 C 0.86206 0.33789 0.87805 0.0
C569 C 0.89105 0.34779 0.89496 0.0
H570 H 0.98591 0.5964 0.92364 0.0
H571 H 0.9769 0.51502 0.91413 0.0
H572 H 0.9331 0.49881 0.86614 0.0
H573 H 0.90659 0.57088 0.92361 0.0
H574 H 0.91102 0.59982 0.89035 0.0
H575 H 0.94142 0.60514 0.92473 0.0
H576 H 0.97809 0.62285 0.85882 0.0
H577 H 0.94797 0.61818 0.8245 0.0
H578 H 0.96783 0.60105 0.81212 0.0
H579 H 0.89014 0.49128 0.81934 0.0
H580 H 0.85561 0.4953 0.76919 0.0
H581 H 0.8927 0.5816 0.80765 0.0
C582 C 0.97484 0.57522 0.91127 0.0
C583 C 0.9849 0.55699 0.92275 0.0
C584 C 0.96983 0.52948 0.90564 0.0
C585 C 0.9447 0.51997 0.87866 0.0
C586 C 0.93499 0.53825 0.86875 0.0
C587 C 0.94991 0.56548 0.88389 0.0
C588 C 0.93579 0.58137 0.86658 0.0
C589 C 0.92294 0.58979 0.90353 0.0
C590 C 0.95878 0.60739 0.83885 0.0
C591 C 0.91064 0.55885 0.83923 0.0
C592 C 0.91035 0.53401 0.84144 0.0
C593 C 0.89 0.51053 0.81767 0.0
C594 C 0.87027 0.51286 0.78964 0.0
C595 C 0.871 0.53845 0.78559 0.0
C596 C 0.89101 0.56151 0.81137 0.0
H597 H 0.43399 0.98483 0.48364 0.0
H598 H 0.4806 0.94875 0.54572 0.0
H599 H 0.43665 0.90068 0.53245 0.0
H600 H 0.35343 0.92527 0.51522 0.0
H601 H 0.33982 0.92866 0.46325 0.0
H602 H 0.37093 0.95946 0.488 0.0
H603 H 0.40391 0.96982 0.41935 0.0
H604 H 0.37303 0.93932 0.39459 0.0
H605 H 0.40905 0.9426 0.39987 0.0
H606 H 0.39372 0.85784 0.49731 0.0
H607 H 0.35765 0.82575 0.44273 0.0
H608 H 0.33829 0.88927 0.4052 0.0
C609 C 0.43451 0.96683 0.49599 0.0
C610 C 0.4607 0.97059 0.51586 0.0
C611 C 0.46067 0.94645 0.53083 0.0
C612 C 0.43572 0.91901 0.52349 0.0
C613 C 0.41077 0.91604 0.50183 0.0
C614 C 0.40987 0.93941 0.48884 0.0
C615 C 0.38286 0.93108 0.4605 0.0
C616 C 0.36043 0.93643 0.48311 0.0
C617 C 0.39283 0.9466 0.41598 0.0
C618 C 0.36984 0.89969 0.45698 0.0
C619 C 0.38568 0.89114 0.48194 0.0
C620 C 0.38051 0.86403 0.4788 0.0
C621 C 0.35983 0.84581 0.44795 0.0
C622 C 0.34493 0.85498 0.4205 0.0
C623 C 0.34883 0.88159 0.4268 0.0
H624 H 0.49713 0.41549 0.94184 0.0
H625 H 0.566 0.42219 0.02743 0.0
H626 H 0.5659 0.3838 0.98858 0.0
H627 H 0.45517 0.3374 0.93338 0.0
H628 H 0.44578 0.33888 0.87767 0.0
H629 H 0.45041 0.36543 0.91418 0.0
H630 H 0.49071 0.40482 0.86243 0.0
H631 H 0.48624 0.37843 0.82591 0.0
H632 H 0.52315 0.4038 0.84656 0.0
H633 H 0.56231 0.34876 0.93283 0.0
H634 H 0.55339 0.31899 0.86961 0.0
H635 H 0.48202 0.33142 0.82791 0.0
C636 C 0.51177 0.40844 0.95264 0.0
C637 C 0.53158 0.42153 0.98732 0.0
C638 C 0.55056 0.41206 0.00095 0.0
C639 C 0.55063 0.39039 0.97907 0.0
C640 C 0.53098 0.37801 0.94443 0.0
C641 C 0.51147 0.3864 0.93197 0.0
C642 C 0.4929 0.37029 0.89348 0.0
C643 C 0.45906 0.3519 0.90541 0.0
C644 C 0.49861 0.39054 0.85483 0.0
C645 C 0.50572 0.35225 0.88511 0.0
C646 C 0.52773 0.35692 0.91454 0.0
C647 C 0.54463 0.34449 0.91018 0.0
C648 C 0.5393 0.32746 0.87428 0.0
C649 C 0.51717 0.32295 0.8434 0.0
C650 C 0.49949 0.3347 0.85033 0.0
H651 H 0.0821 0.45488 0.33751 0.0
H652 H 0.13286 0.49123 0.45451 0.0
H653 H 0.17851 0.4977 0.41961 0.0
H654 H 0.12036 0.41818 0.30565 0.0
H655 H 0.11955 0.42617 0.24904 0.0
H656 H 0.09008 0.42139 0.28496 0.0
H657 H 0.10113 0.4709 0.26128 0.0
H658 H 0.1304 0.47569 0.22521 0.0
H659 H 0.13906 0.50148 0.26566 0.0
H660 H 0.22015 0.50489 0.36894 0.0
H661 H 0.2538 0.51436 0.30615 0.0
H662 H 0.17531 0.4713 0.22375 0.0
C663 C 0.10256 0.46349 0.35624 0.0
C664 C 0.10375 0.47246 0.39887 0.0
C665 C 0.13135 0.4844 0.42172 0.0
C666 C 0.15738 0.48792 0.40228 0.0
C667 C 0.15552 0.47921 0.35998 0.0
C668 C 0.12874 0.46718 0.33729 0.0
C669 C 0.13326 0.46185 0.29108 0.0
C670 C 0.11471 0.43 0.28218 0.0
C671 C 0.12552 0.47847 0.25894 0.0
C672 C 0.16689 0.47345 0.29095 0.0
C673 C 0.17935 0.48308 0.33107 0.0
C674 C 0.21054 0.49694 0.33758 0.0
C675 C 0.2295 0.50204 0.30183 0.0
C676 C 0.21721 0.49348 0.26012 0.0
C677 C 0.18538 0.47797 0.2553 0.0
H678 H 0.58986 0.10215 0.95583 0.0
H679 H 0.63424 0.06288 0.01352 0.0
H680 H 0.68432 0.10586 0.99493 0.0
H681 H 0.63312 0.12949 0.86785 0.0
H682 H 0.63382 0.16201 0.86434 0.0
H683 H 0.60304 0.13147 0.89167 0.0
H684 H 0.61426 0.16084 0.96193 0.0
H685 H 0.64442 0.19117 0.93256 0.0
H686 H 0.65203 0.1795 0.98308 0.0
H687 H 0.72826 0.14823 0.95518 0.0
H688 H 0.7607 0.18521 0.89988 0.0
H689 H 0.68757 0.19749 0.87104 0.0
C690 C 0.61024 0.10333 0.96645 0.0
C691 C 0.60849 0.07976 0.98698 0.0
C692 C 0.63534 0.08121 -0.0011 0.0
C693 C 0.66382 0.1055 0.98833 0.0
C694 C 0.66489 0.12819 0.96648 0.0
C695 C 0.63868 0.12746 0.95651 0.0
C696 C 0.64538 0.15271 0.92832 0.0
C697 C 0.62782 0.14335 0.88554 0.0
C698 C 0.63862 0.17222 0.95291 0.0
C699 C 0.67905 0.16663 0.92107 0.0
C700 C 0.6902 0.1527 0.9441 0.0
C701 C 0.71998 0.15981 0.93809 0.0
C702 C 0.73834 0.18091 0.90679 0.0
C703 C 0.72667 0.19433 0.88173 0.0
C704 C 0.69715 0.18786 0.89044 0.0
H705 H 0.58323 0.63128 0.46592 0.0
H706 H 0.51448 0.62403 0.55238 0.0
H707 H 0.51968 0.66659 0.51732 0.0
H708 H 0.62923 0.71114 0.45243 0.0
H709 H 0.63606 0.70892 0.39609 0.0
H710 H 0.63214 0.68232 0.43449 0.0
H711 H 0.5892 0.64307 0.38854 0.0
H712 H 0.59303 0.66943 0.35021 0.0
H713 H 0.5568 0.64502 0.37539 0.0
H714 H 0.52471 0.70341 0.46341 0.0
H715 H 0.5284 0.72974 0.39584 0.0
H716 H 0.59468 0.71379 0.34545 0.0
C717 C 0.56984 0.63908 0.47824 0.0
C718 C 0.54847 0.62431 0.51192 0.0
C719 C 0.53132 0.63518 0.52708 0.0
C720 C 0.53412 0.65937 0.50728 0.0
C721 C 0.55451 0.67271 0.47281 0.0
C722 C 0.57234 0.66307 0.45879 0.0
C723 C 0.58951 0.67855 0.41774 0.0
C724 C 0.62377 0.69629 0.42568 0.0
C725 C 0.58164 0.65778 0.38083 0.0
C726 C 0.57728 0.6973 0.4094 0.0
C727 C 0.5576 0.69414 0.44191 0.0
C728 C 0.5407 0.70666 0.43837 0.0
C729 C 0.54304 0.72172 0.39996 0.0
C730 C 0.56188 0.72385 0.36552 0.0
C731 C 0.58025 0.71265 0.37141 0.0
H732 H 0.50645 0.09543 0.562 0.0
H733 H 0.58066 0.16047 0.48311 0.0
H734 H 0.57978 0.1975 0.52418 0.0
H735 H 0.46638 0.13256 0.57505 0.0
H736 H 0.4554 0.11932 0.62993 0.0
H737 H 0.46013 0.0986 0.591 0.0
H738 H 0.49847 0.09634 0.64154 0.0
H739 H 0.49399 0.11711 0.68045 0.0
H740 H 0.53113 0.12882 0.65969 0.0
H741 H 0.57427 0.22726 0.58132 0.0
H742 H 0.56373 0.24594 0.64617 0.0
H743 H 0.49139 0.16061 0.68336 0.0
C744 C 0.52218 0.11747 0.55293 0.0
C745 C 0.54359 0.12514 0.51945 0.0
C746 C 0.56383 0.15419 0.50837 0.0
C747 C 0.56354 0.17532 0.53163 0.0
C748 C 0.5425 0.16697 0.56531 0.0
C749 C 0.52193 0.13864 0.57538 0.0
C750 C 0.50263 0.13487 0.6142 0.0
C751 C 0.46915 0.12049 0.60178 0.0
C752 C 0.50683 0.11832 0.65113 0.0
C753 C 0.51604 0.16545 0.62535 0.0
C754 C 0.53895 0.18382 0.59692 0.0
C755 C 0.556 0.21303 0.60329 0.0
C756 C 0.54981 0.2235 0.64008 0.0
C757 C 0.52688 0.20475 0.66999 0.0
C758 C 0.50931 0.17553 0.66141 0.0
H759 H 0.49465 0.54973 0.00591 0.0
H760 H 0.43557 0.47065 0.94204 0.0
H761 H 0.39119 0.47224 0.96392 0.0
H762 H 0.45223 0.5315 0.09596 0.0
H763 H 0.45952 0.56608 0.1068 0.0
H764 H 0.48652 0.56296 0.0763 0.0
H765 H 0.48366 0.59287 0.01359 0.0
H766 H 0.45644 0.59608 0.044 0.0
H767 H 0.44751 0.5822 0.99035 0.0
H768 H 0.35309 0.47758 0.00419 0.0
H769 H 0.32555 0.48425 0.0626 0.0
H770 H 0.40935 0.55895 0.10199 0.0
C771 C 0.47253 0.53347 0.99468 0.0
C772 C 0.46863 0.51037 0.97141 0.0
C773 C 0.43912 0.48878 0.9592 0.0
C774 C 0.41378 0.48957 0.97144 0.0
C775 C 0.41829 0.51204 -0.00394 0.0
C776 C 0.44705 0.53366 0.00746 0.0
C777 C 0.44577 0.5527 0.04009 0.0
C778 C 0.46193 0.5533 0.08225 0.0
C779 C 0.45913 0.58275 0.02083 0.0
C780 C 0.41185 0.53769 0.04681 0.0
C781 C 0.39628 0.51473 0.0203 0.0
C782 C 0.36496 0.49591 0.02429 0.0
C783 C 0.3494 0.49993 0.05732 0.0
C784 C 0.36529 0.52234 0.08623 0.0
C785 C 0.39662 0.54206 0.07957 0.0
H786 H 1.01314 0.42072 0.63034 0.0
H787 H 0.95917 0.44071 0.5487 0.0
H788 H 0.91269 0.40298 0.58592 0.0
H789 H 0.95939 0.34447 0.64157 0.0
H790 H 0.96712 0.34263 0.69797 0.0
H791 H 0.99625 0.36957 0.66272 0.0
H792 H 1.00266 0.40862 0.7131 0.0
H793 H 0.97391 0.38178 0.74875 0.0
H794 H 0.97002 0.40983 0.72706 0.0
H795 H 0.87183 0.36285 0.6314 0.0
H796 H 0.84042 0.32919 0.69053 0.0
H797 H 0.9206 0.3376 0.74714 0.0
C798 C 0.99148 0.41699 0.62028 0.0
C799 C 0.98973 0.43352 0.58646 0.0
C800 C 0.96106 0.42838 0.57463 0.0
C801 C 0.93448 0.4068 0.5953 0.0
C802 C 0.93687 0.39074 0.62833 0.0
C803 C 0.96466 0.39597 0.64149 0.0
C804 C 0.961 0.37735 0.68057 0.0
C805 C 0.97157 0.35732 0.67006 0.0
C806 C 0.97789 0.39548 0.71968 0.0
C807 C 0.92692 0.36106 0.6874 0.0
C808 C 0.91338 0.36862 0.65621 0.0
C809 C 0.88217 0.35673 0.65597 0.0
C810 C 0.86444 0.33741 0.68941 0.0
C811 C 0.87803 0.3306 0.72306 0.0
C812 C 0.90961 0.34218 0.72145 0.0
H813 H 0.50336 0.90849 0.06107 0.0
H814 H 0.57528 0.92515 0.97287 0.0
H815 H 0.58132 0.88947 0.01309 0.0
H816 H 0.53658 0.90459 0.15403 0.0
H817 H 0.50196 0.87701 0.17982 0.0
H818 H 0.50096 0.90023 0.13969 0.0
H819 H 0.46227 0.85642 0.09542 0.0
H820 H 0.46352 0.83346 0.13615 0.0
H821 H 0.47162 0.83112 0.08043 0.0
H822 H 0.58456 0.85763 0.07117 0.0
H823 H 0.5841 0.83298 0.13942 0.0
H824 H 0.50844 0.83643 0.18632 0.0
C825 C 0.51994 0.90414 0.04974 0.0
C826 C 0.53894 0.91946 0.01414 0.0
C827 C 0.56037 0.91333 -4e-05 0.0
C828 C 0.56392 0.89316 0.02262 0.0
C829 C 0.54536 0.87901 0.05869 0.0
C830 C 0.52347 0.88404 0.07162 0.0
C831 C 0.50804 0.86818 0.11323 0.0
C832 C 0.51215 0.88872 0.14876 0.0
C833 C 0.47437 0.84597 0.10585 0.0
C834 C 0.52553 0.85435 0.12297 0.0
C835 C 0.54676 0.86044 0.09109 0.0
C836 C 0.56754 0.85219 0.09578 0.0
C837 C 0.56709 0.83813 0.13449 0.0
C838 C 0.54618 0.83278 0.16789 0.0
C839 C 0.52454 0.84011 0.16111 0.0
H840 H 0.58286 0.49336 0.59026 0.0
H841 H 0.62877 0.55261 0.48291 0.0
H842 H 0.67655 0.55574 0.50263 0.0
H843 H 0.63795 0.52651 0.66383 0.0
H844 H 0.63242 0.49503 0.69047 0.0
H845 H 0.60153 0.49368 0.66276 0.0
H846 H 0.59478 0.45291 0.61611 0.0
H847 H 0.62576 0.45411 0.64389 0.0
H848 H 0.62655 0.45768 0.58578 0.0
H849 H 0.72091 0.55891 0.5435 0.0
H850 H 0.75613 0.56132 0.59957 0.0
H851 H 0.67979 0.49763 0.67691 0.0
C852 C 0.60281 0.5064 0.57016 0.0
C853 C 0.60231 0.52277 0.53513 0.0
C854 C 0.62873 0.5397 0.50961 0.0
C855 C 0.65589 0.54157 0.52065 0.0
C856 C 0.65586 0.5258 0.55654 0.0
C857 C 0.62971 0.50813 0.58035 0.0
C858 C 0.63572 0.49537 0.6197 0.0
C859 C 0.62637 0.50313 0.66162 0.0
C860 C 0.61976 0.4631 0.61613 0.0
C861 C 0.66968 0.50982 0.61596 0.0
C862 C 0.68101 0.527 0.57907 0.0
C863 C 0.71218 0.54495 0.57181 0.0
C864 C 0.73207 0.5461 0.60371 0.0
C865 C 0.72066 0.52958 0.64246 0.0
C866 C 0.68914 0.51034 0.64745 0.0
H867 H 0.12097 0.62436 0.11662 0.0
H868 H 0.0675 0.66214 0.12059 0.0
H869 H 0.10748 0.70149 0.16332 0.0
H870 H 0.14364 0.6363 0.22302 0.0
H871 H 0.18108 0.64345 0.21355 0.0
H872 H 0.15094 0.62128 0.17749 0.0
H873 H 0.18225 0.65413 0.11208 0.0
H874 H 0.2127 0.67577 0.14841 0.0
H875 H 0.19745 0.69156 0.1141 0.0
H876 H 0.15171 0.73474 0.20977 0.0
H877 H 0.19314 0.75591 0.26313 0.0
H878 H 0.21574 0.69441 0.23241 0.0
C879 C 0.11815 0.64138 0.12548 0.0
C880 C 0.09151 0.64065 0.11477 0.0
C881 C 0.08793 0.6626 0.12829 0.0
C882 C 0.11057 0.68504 0.15226 0.0
C883 C 0.1365 0.68501 0.16269 0.0
C884 C 0.14024 0.66358 0.15001 0.0
C885 C 0.1684 0.66662 0.16944 0.0
C886 C 0.16052 0.64036 0.19755 0.0
C887 C 0.19158 0.67237 0.1339 0.0
C888 C 0.17934 0.6925 0.19643 0.0
C889 C 0.16119 0.70333 0.19106 0.0
C890 C 0.16624 0.72663 0.21387 0.0
C891 C 0.18987 0.73862 0.24387 0.0
C892 C 0.20766 0.72693 0.25125 0.0
C893 C 0.20267 0.70395 0.22667 0.0
loop_
_geom_bond_atom_site_label_1
_geom_bond_atom_site_label_2
_geom_bond_distance
_geom_bond_site_symmetry_2
_ccdc_geom_bond_type
Cu0 N1 1.999 1_454 S
Cu0 O6 1.974 1_454 S
Cu0 N11 1.985 . S
Cu0 O20 1.959 . S
N1 Cu0 1.999 1_656 S
N1 C3 1.263 . S
N1 C5 1.389 1_556 S
N2 C3 1.358 . S
N2 C4 1.400 . S
C3 N1 1.263 . S
C3 N2 1.358 . S
C3 H9 0.930 . S
C4 N2 1.400 . S
C4 C5 1.351 1_556 S
C4 H21 0.930 . S
C5 N1 1.389 1_554 S
C5 C4 1.351 1_554 S
C5 H10 0.930 . S
O6 Cu0 1.974 1_656 S
O6 C16 1.282 . S
C7 O8 1.261 1_554 S
C7 O20 1.251 . S
O8 C7 1.261 1_556 S
H9 C3 0.930 . S
H10 C5 0.930 . S
N11 Cu0 1.985 . S
N11 C13 1.335 . S
N11 C14 1.390 . S
N12 C13 1.345 . S
N12 C15 1.336 . S
C13 N11 1.335 . S
C13 N12 1.345 . S
C13 H18 0.930 . S
C14 N11 1.390 . S
C14 C15 1.346 . S
C14 H19 0.930 1_554 S
C15 N12 1.336 . S
C15 C14 1.346 . S
C15 H22 0.929 . S
C16 O6 1.282 . S
C16 O17 1.181 1_655 S
O17 C16 1.181 1_455 S
H18 C13 0.930 . S
H19 C14 0.930 1_556 S
O20 Cu0 1.959 . S
O20 C7 1.251 . S
H21 C4 0.930 . S
H22 C15 0.929 . S
Cu23 N24 1.999 . S
Cu23 O29 1.974 . S
Cu23 N34 1.985 1_565 S
Cu23 O43 1.959 1_565 S
N24 Cu23 1.999 . S
N24 C26 1.263 . S
N24 C28 1.389 . S
N25 C26 1.358 . S
N25 C27 1.400 . S
C26 N24 1.263 . S
C26 N25 1.358 . S
C26 H32 0.930 . S
C27 N25 1.400 . S
C27 C28 1.351 . S
C27 H44 0.930 . S
C28 N24 1.389 . S
C28 C27 1.351 . S
C28 H33 0.930 . S
O29 Cu23 1.974 . S
O29 C39 1.282 . S
C30 O31 1.261 . S
C30 O43 1.251 . S
O31 C30 1.261 . S
H32 C26 0.930 . S
H33 C28 0.930 . S
N34 Cu23 1.985 1_545 S
N34 C36 1.335 . S
N34 C37 1.390 . S
N35 C36 1.345 . S
N35 C38 1.336 . S
C36 N34 1.335 . S
C36 N35 1.345 . S
C36 H41 0.930 . S
C37 N34 1.390 . S
C37 C38 1.346 . S
C37 H42 0.930 . S
C38 N35 1.336 . S
C38 C37 1.346 . S
C38 H45 0.929 . S
C39 O29 1.282 . S
C39 O40 1.216 . S
O40 C39 1.216 . S
H41 C36 0.930 . S
H42 C37 0.930 . S
O43 Cu23 1.959 1_545 S
O43 C30 1.251 . S
H44 C27 0.930 . S
H45 C38 0.929 . S
Cu46 N47 1.999 1_554 S
Cu46 O52 1.974 1_554 S
Cu46 N57 1.985 . S
Cu46 O66 1.959 . S
N47 Cu46 1.999 1_556 S
N47 C49 1.263 . S
N47 C51 1.389 . S
N48 C49 1.358 . S
N48 C50 1.400 . S
C49 N47 1.263 . S
C49 N48 1.358 . S
C49 H55 0.930 . S
C50 N48 1.400 . S
C50 C51 1.351 . S
C50 H67 0.930 . S
C51 N47 1.389 . S
C51 C50 1.351 . S
C51 H56 0.930 . S
O52 Cu46 1.974 1_556 S
O52 C62 1.282 . S
C53 O54 1.261 . S
C53 O66 1.251 . S
O54 C53 1.261 . S
H55 C49 0.930 . S
H56 C51 0.930 . S
N57 Cu46 1.985 . S
N57 C59 1.335 . S
N57 C60 1.390 . S
N58 C59 1.345 . S
N58 C61 1.336 . S
C59 N57 1.335 . S
C59 N58 1.345 . S
C59 H64 0.930 . S
C60 N57 1.390 . S
C60 C61 1.346 . S
C60 H65 0.930 . S
C61 N58 1.336 . S
C61 C60 1.346 . S
C61 H68 0.929 . S
C62 O52 1.282 . S
C62 O63 1.216 1_556 S
O63 C62 1.216 1_554 S
H64 C59 0.930 . S
H65 C60 0.930 . S
O66 Cu46 1.959 . S
O66 C53 1.251 . S
H67 C50 0.930 . S
H68 C61 0.929 . S
Cu69 N70 1.999 1_655 S
Cu69 O75 1.974 1_655 S
Cu69 N80 1.985 . S
Cu69 O89 1.959 . S
N70 Cu69 1.999 1_455 S
N70 C72 1.263 . S
N70 C74 1.389 1_455 S
N71 C72 1.358 . S
N71 C73 1.400 . S
C72 N70 1.263 . S
C72 N71 1.358 . S
C72 H78 0.930 . S
C73 N71 1.400 . S
C73 C74 1.351 1_455 S
C73 H90 0.930 . S
C74 N70 1.389 1_655 S
C74 C73 1.351 1_655 S
C74 H79 0.930 . S
O75 Cu69 1.974 1_455 S
O75 C85 1.282 . S
C76 O77 1.261 . S
C76 O89 1.251 . S
O77 C76 1.261 . S
H78 C72 0.930 . S
H79 C74 0.930 . S
N80 Cu69 1.985 . S
N80 C82 1.335 . S
N80 C83 1.390 . S
N81 C82 1.345 . S
N81 C84 1.336 . S
C82 N80 1.335 . S
C82 N81 1.345 . S
C82 H87 0.930 . S
C83 N80 1.390 . S
C83 C84 1.346 . S
C83 H88 0.930 1_655 S
C84 N81 1.336 . S
C84 C83 1.346 . S
C84 H91 0.929 . S
C85 O75 1.282 . S
C85 O86 1.216 . S
O86 C85 1.216 . S
H87 C82 0.930 . S
H88 C83 0.930 1_455 S
O89 Cu69 1.959 . S
O89 C76 1.251 . S
H90 C73 0.930 . S
H91 C84 0.929 . S
Cu92 N93 1.999 . S
Cu92 O98 1.974 . S
Cu92 N103 1.985 1_545 S
Cu92 O112 1.959 1_545 S
N93 Cu92 1.999 . S
N93 C95 1.263 1_554 S
N93 C97 1.389 . S
N94 C95 1.358 . S
N94 C96 1.400 1_556 S
C95 N93 1.263 1_556 S
C95 N94 1.358 . S
C95 H101 0.930 . S
C96 N94 1.400 1_554 S
C96 C97 1.351 . S
C96 H113 0.930 . S
C97 N93 1.389 . S
C97 C96 1.351 . S
C97 H102 0.930 . S
O98 Cu92 1.974 . S
O98 C108 1.282 1_554 S
C99 O100 1.261 . S
C99 O112 1.251 . S
O100 C99 1.261 . S
H101 C95 0.930 . S
H102 C97 0.930 . S
N103 Cu92 1.985 1_565 S
N103 C105 1.335 . S
N103 C106 1.390 . S
N104 C105 1.345 . S
N104 C107 1.336 . S
C105 N103 1.335 . S
C105 N104 1.345 . S
C105 H110 0.930 . S
C106 N103 1.390 . S
C106 C107 1.346 . S
C106 H111 0.930 1_565 S
C107 N104 1.336 . S
C107 C106 1.346 . S
C107 H114 0.929 . S
C108 O98 1.282 1_556 S
C108 O109 1.216 . S
O109 C108 1.216 . S
H110 C105 0.930 . S
H111 C106 0.930 1_545 S
O112 Cu92 1.959 1_565 S
O112 C99 1.251 . S
H113 C96 0.930 . S
H114 C107 0.929 . S
Cu115 N116 1.999 . S
Cu115 O121 1.974 . S
Cu115 N126 1.985 . S
Cu115 O135 1.959 . S
N116 Cu115 1.999 . S
N116 C118 1.263 . S
N116 C120 1.389 . S
N117 C118 1.358 . S
N117 C119 1.400 . S
C118 N116 1.263 . S
C118 N117 1.358 . S
C118 H124 0.930 . S
C119 N117 1.400 . S
C119 C120 1.351 . S
C119 H136 0.930 . S
C120 N116 1.389 . S
C120 C119 1.351 . S
C120 H125 0.930 . S
O121 Cu115 1.974 . S
O121 C131 1.282 . S
C122 O123 1.261 . S
C122 O135 1.251 . S
O123 C122 1.261 . S
H124 C118 0.930 . S
H125 C120 0.930 . S
N126 Cu115 1.985 . S
N126 C128 1.335 . S
N126 C129 1.390 . S
N127 C128 1.345 . S
N127 C130 1.336 . S
C128 N126 1.335 . S
C128 N127 1.345 . S
C128 H133 0.930 . S
C129 N126 1.390 . S
C129 C130 1.346 . S
C129 H134 0.930 . S
C130 N127 1.336 . S
C130 C129 1.346 . S
C130 H137 0.929 . S
C131 O121 1.282 . S
C131 O132 1.216 . S
O132 C131 1.216 . S
H133 C128 0.930 . S
H134 C129 0.930 . S
O135 Cu115 1.959 . S
O135 C122 1.251 . S
H136 C119 0.930 . S
H137 C130 0.929 . S
H138 C144 0.930 . S
H139 C147 0.931 . S
H140 C149 0.931 . S
H141 C151 0.930 . S
H142 C153 0.930 . S
H143 C155 0.931 . S
C144 H138 0.930 . S
C144 C145 1.380 . S
C144 C146 1.394 . S
C145 C144 1.380 . S
C145 C149 1.382 . S
C146 C144 1.394 . S
C146 C147 1.400 . S
C147 H139 0.931 . S
C147 C146 1.400 . S
C147 C148 1.375 . S
C148 C147 1.375 . S
C148 C149 1.415 . S
C148 C150 1.501 . S
C149 H140 0.931 . S
C149 C145 1.382 . S
C149 C148 1.415 . S
C150 C148 1.501 . S
C150 C151 1.384 . S
C150 C155 1.408 . S
C151 H141 0.930 . S
C151 C150 1.384 . S
C151 C152 1.389 . S
C152 C151 1.389 . S
C152 C153 1.405 . S
C153 H142 0.930 . S
C153 C152 1.405 . S
C153 C154 1.364 . S
C154 C153 1.364 . S
C154 C155 1.400 . S
C155 H143 0.931 . S
C155 C150 1.408 . S
C155 C154 1.400 . S
H156 C162 0.930 . S
H157 C165 0.931 . S
H158 C167 0.931 . S
H159 C169 0.930 . S
H160 C171 0.930 . S
H161 C173 0.931 . S
C162 H156 0.930 . S
C162 C163 1.380 . S
C162 C164 1.394 . S
C163 C162 1.380 . S
C163 C167 1.382 . S
C164 C162 1.394 . S
C164 C165 1.400 . S
C165 H157 0.931 . S
C165 C164 1.400 . S
C165 C166 1.375 . S
C166 C165 1.375 . S
C166 C167 1.415 . S
C166 C168 1.501 . S
C167 H158 0.931 . S
C167 C163 1.382 . S
C167 C166 1.415 . S
C168 C166 1.501 . S
C168 C169 1.384 . S
C168 C173 1.408 . S
C169 H159 0.930 . S
C169 C168 1.384 . S
C169 C170 1.389 . S
C170 C169 1.389 . S
C170 C171 1.405 . S
C171 H160 0.930 . S
C171 C170 1.405 . S
C171 C172 1.364 . S
C172 C171 1.364 . S
C172 C173 1.400 . S
C173 H161 0.931 . S
C173 C168 1.408 . S
C173 C172 1.400 . S
H174 C180 0.930 . S
H175 C183 0.931 . S
H176 C185 0.931 . S
H177 C187 0.930 . S
H178 C189 0.930 . S
H179 C191 0.931 . S
C180 H174 0.930 . S
C180 C181 1.380 . S
C180 C182 1.394 . S
C181 C180 1.380 . S
C181 C185 1.382 . S
C182 C180 1.394 . S
C182 C183 1.400 . S
C183 H175 0.931 . S
C183 C182 1.400 . S
C183 C184 1.375 . S
C184 C183 1.375 . S
C184 C185 1.415 . S
C184 C186 1.501 . S
C185 H176 0.931 . S
C185 C181 1.382 . S
C185 C184 1.415 . S
C186 C184 1.501 . S
C186 C187 1.384 . S
C186 C191 1.408 . S
C187 H177 0.930 . S
C187 C186 1.384 . S
C187 C188 1.389 . S
C188 C187 1.389 . S
C188 C189 1.405 . S
C189 H178 0.930 . S
C189 C188 1.405 . S
C189 C190 1.364 . S
C190 C189 1.364 . S
C190 C191 1.400 . S
C191 H179 0.931 . S
C191 C186 1.408 . S
C191 C190 1.400 . S
H192 C198 0.930 . S
H193 C201 0.931 . S
H194 C203 0.931 . S
H195 C205 0.930 . S
H196 C207 0.930 . S
H197 C209 0.931 . S
C198 H192 0.930 . S
C198 C199 1.380 . S
C198 C200 1.394 . S
C199 C198 1.380 . S
C199 C203 1.382 . S
C200 C198 1.394 . S
C200 C201 1.400 . S
C201 H193 0.931 . S
C201 C200 1.400 . S
C201 C202 1.375 . S
C202 C201 1.375 . S
C202 C203 1.415 . S
C202 C204 1.501 . S
C203 H194 0.931 . S
C203 C199 1.382 . S
C203 C202 1.415 . S
C204 C202 1.501 . S
C204 C205 1.384 . S
C204 C209 1.408 . S
C205 H195 0.930 . S
C205 C204 1.384 . S
C205 C206 1.389 . S
C206 C205 1.389 . S
C206 C207 1.405 . S
C207 H196 0.930 . S
C207 C206 1.405 . S
C207 C208 1.364 . S
C208 C207 1.364 . S
C208 C209 1.400 . S
C209 H197 0.931 . S
C209 C204 1.408 . S
C209 C208 1.400 . S
H210 C216 0.930 . S
H211 C219 0.931 . S
H212 C221 0.931 . S
H213 C223 0.930 . S
H214 C225 0.930 . S
H215 C227 0.931 . S
C216 H210 0.930 . S
C216 C217 1.380 . S
C216 C218 1.394 . S
C217 C216 1.380 . S
C217 C221 1.382 . S
C218 C216 1.394 . S
C218 C219 1.400 . S
C219 H211 0.931 . S
C219 C218 1.400 . S
C219 C220 1.375 . S
C220 C219 1.375 . S
C220 C221 1.415 . S
C220 C222 1.501 . S
C221 H212 0.931 . S
C221 C217 1.382 . S
C221 C220 1.415 . S
C222 C220 1.501 . S
C222 C223 1.384 . S
C222 C227 1.408 . S
C223 H213 0.930 . S
C223 C222 1.384 . S
C223 C224 1.389 . S
C224 C223 1.389 . S
C224 C225 1.405 . S
C225 H214 0.930 . S
C225 C224 1.405 . S
C225 C226 1.364 . S
C226 C225 1.364 . S
C226 C227 1.400 . S
C227 H215 0.931 . S
C227 C222 1.408 . S
C227 C226 1.400 . S
H228 C234 0.930 . S
H229 C237 0.931 . S
H230 C239 0.931 . S
H231 C241 0.930 . S
H232 C243 0.930 . S
H233 C245 0.931 . S
C234 H228 0.930 . S
C234 C235 1.380 . S
C234 C236 1.394 . S
C235 C234 1.380 . S
C235 C239 1.382 . S
C236 C234 1.394 . S
C236 C237 1.400 . S
C237 H229 0.931 . S
C237 C236 1.400 . S
C237 C238 1.375 . S
C238 C237 1.375 . S
C238 C239 1.415 . S
C238 C240 1.501 . S
C239 H230 0.931 . S
C239 C235 1.382 . S
C239 C238 1.415 . S
C240 C238 1.501 . S
C240 C241 1.384 . S
C240 C245 1.408 . S
C241 H231 0.930 . S
C241 C240 1.384 . S
C241 C242 1.389 . S
C242 C241 1.389 . S
C242 C243 1.405 . S
C243 H232 0.930 . S
C243 C242 1.405 . S
C243 C244 1.364 . S
C244 C243 1.364 . S
C244 C245 1.400 . S
C245 H233 0.931 . S
C245 C240 1.408 . S
C245 C244 1.400 . S
H246 C258 0.930 . S
H247 C260 0.930 . S
H248 C261 0.930 . S
H249 C265 0.959 . S
H250 C265 0.959 . S
H251 C265 0.961 . S
H252 C266 0.960 . S
H253 C266 0.961 . S
H254 C266 0.959 . S
H255 C269 0.929 . S
H256 C270 0.931 . S
H257 C272 0.930 . S
C258 H246 0.930 . S
C258 C259 1.399 . S
C258 C263 1.399 . S
C259 C258 1.399 . S
C259 C260 1.376 . S
C260 H247 0.930 . S
C260 C259 1.376 . S
C260 C261 1.388 . S
C261 H248 0.930 . S
C261 C260 1.388 . S
C261 C262 1.390 . S
C262 C261 1.390 . S
C262 C263 1.394 . S
C262 C268 1.465 . S
C263 C258 1.399 . S
C263 C262 1.394 . S
C263 C264 1.516 . S
C264 C263 1.516 . S
C264 C265 1.502 . S
C264 C266 1.561 . S
C264 C267 1.526 . S
C265 H249 0.959 . S
C265 H250 0.959 . S
C265 H251 0.961 . S
C265 C264 1.502 . S
C266 H252 0.960 . S
C266 H253 0.961 . S
C266 H254 0.959 . S
C266 C264 1.561 . S
C267 C264 1.526 . S
C267 C268 1.396 . S
C267 C272 1.390 . S
C268 C262 1.465 . S
C268 C267 1.396 . S
C268 C269 1.399 . S
C269 H255 0.929 . S
C269 C268 1.399 . S
C269 C270 1.385 . S
C270 H256 0.931 . S
C270 C269 1.385 . S
C270 C271 1.389 . S
C271 C270 1.389 . S
C271 C272 1.387 . S
C272 H257 0.930 . S
C272 C267 1.390 . S
C272 C271 1.387 . S
H273 C285 0.930 . S
H274 C287 0.930 . S
H275 C288 0.930 . S
H276 C292 0.959 . S
H277 C292 0.959 . S
H278 C292 0.961 . S
H279 C293 0.960 . S
H280 C293 0.961 . S
H281 C293 0.959 . S
H282 C296 0.929 . S
H283 C297 0.931 . S
H284 C299 0.930 . S
C285 H273 0.930 . S
C285 C286 1.399 . S
C285 C290 1.399 . S
C286 C285 1.399 . S
C286 C287 1.376 . S
C287 H274 0.930 . S
C287 C286 1.376 . S
C287 C288 1.388 . S
C288 H275 0.930 . S
C288 C287 1.388 . S
C288 C289 1.390 . S
C289 C288 1.390 . S
C289 C290 1.394 . S
C289 C295 1.465 . S
C290 C285 1.399 . S
C290 C289 1.394 . S
C290 C291 1.516 . S
C291 C290 1.516 . S
C291 C292 1.502 . S
C291 C293 1.561 . S
C291 C294 1.526 . S
C292 H276 0.959 . S
C292 H277 0.959 . S
C292 H278 0.961 . S
C292 C291 1.502 . S
C293 H279 0.960 . S
C293 H280 0.961 . S
C293 H281 0.959 . S
C293 C291 1.561 . S
C294 C291 1.526 . S
C294 C295 1.396 . S
C294 C299 1.390 . S
C295 C289 1.465 . S
C295 C294 1.396 . S
C295 C296 1.399 . S
C296 H282 0.929 . S
C296 C295 1.399 . S
C296 C297 1.385 . S
C297 H283 0.931 . S
C297 C296 1.385 . S
C297 C298 1.389 . S
C298 C297 1.389 . S
C298 C299 1.387 . S
C299 H284 0.930 . S
C299 C294 1.390 . S
C299 C298 1.387 . S
H300 C312 0.930 . S
H301 C314 0.930 . S
H302 C315 0.930 . S
H303 C319 0.959 . S
H304 C319 0.959 . S
H305 C319 0.961 . S
H306 C320 0.960 . S
H307 C320 0.961 . S
H308 C320 0.959 . S
H309 C323 0.929 . S
H310 C324 0.931 . S
H311 C326 0.930 . S
C312 H300 0.930 . S
C312 C313 1.399 . S
C312 C317 1.399 . S
C313 C312 1.399 . S
C313 C314 1.376 . S
C314 H301 0.930 . S
C314 C313 1.376 . S
C314 C315 1.388 . S
C315 H302 0.930 . S
C315 C314 1.388 . S
C315 C316 1.390 . S
C316 C315 1.390 . S
C316 C317 1.394 . S
C316 C322 1.465 . S
C317 C312 1.399 . S
C317 C316 1.394 . S
C317 C318 1.516 . S
C318 C317 1.516 . S
C318 C319 1.502 . S
C318 C320 1.561 . S
C318 C321 1.526 . S
C319 H303 0.959 . S
C319 H304 0.959 . S
C319 H305 0.961 . S
C319 C318 1.502 . S
C320 H306 0.960 . S
C320 H307 0.961 . S
C320 H308 0.959 . S
C320 C318 1.561 . S
C321 C318 1.526 . S
C321 C322 1.396 . S
C321 C326 1.390 . S
C322 C316 1.465 . S
C322 C321 1.396 . S
C322 C323 1.399 . S
C323 H309 0.929 . S
C323 C322 1.399 . S
C323 C324 1.385 . S
C324 H310 0.931 . S
C324 C323 1.385 . S
C324 C325 1.389 . S
C325 C324 1.389 . S
C325 C326 1.387 . S
C326 H311 0.930 . S
C326 C321 1.390 . S
C326 C325 1.387 . S
H327 C339 0.930 . S
H328 C341 0.930 . S
H329 C342 0.930 . S
H330 C346 0.959 . S
H331 C346 0.959 . S
H332 C346 0.961 . S
H333 C347 0.960 . S
H334 C347 0.961 . S
H335 C347 0.959 . S
H336 C350 0.929 . S
H337 C351 0.931 . S
H338 C353 0.930 . S
C339 H327 0.930 . S
C339 C340 1.399 . S
C339 C344 1.399 . S
C340 C339 1.399 . S
C340 C341 1.376 . S
C341 H328 0.930 . S
C341 C340 1.376 . S
C341 C342 1.388 . S
C342 H329 0.930 . S
C342 C341 1.388 . S
C342 C343 1.390 . S
C343 C342 1.390 . S
C343 C344 1.394 . S
C343 C349 1.465 . S
C344 C339 1.399 . S
C344 C343 1.394 . S
C344 C345 1.516 . S
C345 C344 1.516 . S
C345 C346 1.502 . S
C345 C347 1.561 . S
C345 C348 1.526 . S
C346 H330 0.959 . S
C346 H331 0.959 . S
C346 H332 0.961 . S
C346 C345 1.502 . S
C347 H333 0.960 . S
C347 H334 0.961 . S
C347 H335 0.959 . S
C347 C345 1.561 . S
C348 C345 1.526 . S
C348 C349 1.396 . S
C348 C353 1.390 . S
C349 C343 1.465 . S
C349 C348 1.396 . S
C349 C350 1.399 . S
C350 H336 0.929 . S
C350 C349 1.399 . S
C350 C351 1.385 . S
C351 H337 0.931 . S
C351 C350 1.385 . S
C351 C352 1.389 . S
C352 C351 1.389 . S
C352 C353 1.387 . S
C353 H338 0.930 . S
C353 C348 1.390 . S
C353 C352 1.387 . S
H354 C366 0.930 . S
H355 C368 0.930 . S
H356 C369 0.930 . S
H357 C373 0.959 . S
H358 C373 0.959 . S
H359 C373 0.961 . S
H360 C374 0.960 . S
H361 C374 0.961 . S
H362 C374 0.959 . S
H363 C377 0.929 . S
H364 C378 0.931 . S
H365 C380 0.930 . S
C366 H354 0.930 . S
C366 C367 1.399 . S
C366 C371 1.399 . S
C367 C366 1.399 . S
C367 C368 1.376 . S
C368 H355 0.930 . S
C368 C367 1.376 . S
C368 C369 1.388 . S
C369 H356 0.930 . S
C369 C368 1.388 . S
C369 C370 1.390 . S
C370 C369 1.390 . S
C370 C371 1.394 . S
C370 C376 1.465 . S
C371 C366 1.399 . S
C371 C370 1.394 . S
C371 C372 1.516 . S
C372 C371 1.516 . S
C372 C373 1.502 . S
C372 C374 1.561 . S
C372 C375 1.526 . S
C373 H357 0.959 . S
C373 H358 0.959 . S
C373 H359 0.961 . S
C373 C372 1.502 . S
C374 H360 0.960 . S
C374 H361 0.961 . S
C374 H362 0.959 . S
C374 C372 1.561 . S
C375 C372 1.526 . S
C375 C376 1.396 . S
C375 C380 1.390 . S
C376 C370 1.465 . S
C376 C375 1.396 . S
C376 C377 1.399 . S
C377 H363 0.929 . S
C377 C376 1.399 . S
C377 C378 1.385 . S
C378 H364 0.931 . S
C378 C377 1.385 . S
C378 C379 1.389 . S
C379 C378 1.389 . S
C379 C380 1.387 . S
C380 H365 0.930 . S
C380 C375 1.390 . S
C380 C379 1.387 . S
H381 C393 0.930 . S
H382 C395 0.930 . S
H383 C396 0.930 . S
H384 C400 0.959 . S
H385 C400 0.959 . S
H386 C400 0.961 . S
H387 C401 0.960 . S
H388 C401 0.961 . S
H389 C401 0.959 . S
H390 C404 0.929 . S
H391 C405 0.931 . S
H392 C407 0.930 . S
C393 H381 0.930 . S
C393 C394 1.399 . S
C393 C398 1.399 . S
C394 C393 1.399 . S
C394 C395 1.376 . S
C395 H382 0.930 . S
C395 C394 1.376 . S
C395 C396 1.388 . S
C396 H383 0.930 . S
C396 C395 1.388 . S
C396 C397 1.390 . S
C397 C396 1.390 . S
C397 C398 1.394 . S
C397 C403 1.465 . S
C398 C393 1.399 . S
C398 C397 1.394 . S
C398 C399 1.516 . S
C399 C398 1.516 . S
C399 C400 1.502 . S
C399 C401 1.561 . S
C399 C402 1.526 . S
C400 H384 0.959 . S
C400 H385 0.959 . S
C400 H386 0.961 . S
C400 C399 1.502 . S
C401 H387 0.960 . S
C401 H388 0.961 . S
C401 H389 0.959 . S
C401 C399 1.561 . S
C402 C399 1.526 . S
C402 C403 1.396 . S
C402 C407 1.390 . S
C403 C397 1.465 . S
C403 C402 1.396 . S
C403 C404 1.399 . S
C404 H390 0.929 . S
C404 C403 1.399 . S
C404 C405 1.385 . S
C405 H391 0.931 . S
C405 C404 1.385 . S
C405 C406 1.389 . S
C406 C405 1.389 . S
C406 C407 1.387 . S
C407 H392 0.930 . S
C407 C402 1.390 . S
C407 C406 1.387 . S
H408 C420 0.930 . S
H409 C422 0.930 . S
H410 C423 0.930 . S
H411 C427 0.959 . S
H412 C427 0.959 . S
H413 C427 0.961 . S
H414 C428 0.960 . S
H415 C428 0.961 . S
H416 C428 0.959 . S
H417 C431 0.929 . S
H418 C432 0.931 . S
H419 C434 0.930 . S
C420 H408 0.930 . S
C420 C421 1.399 . S
C420 C425 1.399 . S
C421 C420 1.399 . S
C421 C422 1.376 . S
C422 H409 0.930 . S
C422 C421 1.376 . S
C422 C423 1.388 . S
C423 H410 0.930 . S
C423 C422 1.388 . S
C423 C424 1.390 . S
C424 C423 1.390 . S
C424 C425 1.394 . S
C424 C430 1.465 . S
C425 C420 1.399 . S
C425 C424 1.394 . S
C425 C426 1.516 . S
C426 C425 1.516 . S
C426 C427 1.502 . S
C426 C428 1.561 . S
C426 C429 1.526 . S
C427 H411 0.959 . S
C427 H412 0.959 . S
C427 H413 0.961 . S
C427 C426 1.502 . S
C428 H414 0.960 . S
C428 H415 0.961 . S
C428 H416 0.959 . S
C428 C426 1.561 . S
C429 C426 1.526 . S
C429 C430 1.396 . S
C429 C434 1.390 . S
C430 C424 1.465 . S
C430 C429 1.396 . S
C430 C431 1.399 . S
C431 H417 0.929 . S
C431 C430 1.399 . S
C431 C432 1.385 . S
C432 H418 0.931 . S
C432 C431 1.385 . S
C432 C433 1.389 . S
C433 C432 1.389 . S
C433 C434 1.387 . S
C434 H419 0.930 . S
C434 C429 1.390 . S
C434 C433 1.387 . S
H435 C447 0.930 . S
H436 C449 0.930 1_554 S
H437 C450 0.930 . S
H438 C454 0.959 . S
H439 C454 0.959 . S
H440 C454 0.961 . S
H441 C455 0.960 . S
H442 C455 0.961 . S
H443 C455 0.959 . S
H444 C458 0.929 . S
H445 C459 0.931 . S
H446 C461 0.930 . S
C447 H435 0.930 . S
C447 C448 1.399 . S
C447 C452 1.399 . S
C448 C447 1.399 . S
C448 C449 1.376 . S
C449 H436 0.930 1_556 S
C449 C448 1.376 . S
C449 C450 1.388 . S
C450 H437 0.930 . S
C450 C449 1.388 . S
C450 C451 1.390 . S
C451 C450 1.390 . S
C451 C452 1.394 . S
C451 C457 1.465 . S
C452 C447 1.399 . S
C452 C451 1.394 . S
C452 C453 1.516 . S
C453 C452 1.516 . S
C453 C454 1.502 . S
C453 C455 1.561 . S
C453 C456 1.526 . S
C454 H438 0.959 . S
C454 H439 0.959 . S
C454 H440 0.961 . S
C454 C453 1.502 . S
C455 H441 0.960 . S
C455 H442 0.961 . S
C455 H443 0.959 . S
C455 C453 1.561 . S
C456 C453 1.526 . S
C456 C457 1.396 . S
C456 C461 1.390 . S
C457 C451 1.465 . S
C457 C456 1.396 . S
C457 C458 1.399 . S
C458 H444 0.929 . S
C458 C457 1.399 . S
C458 C459 1.385 . S
C459 H445 0.931 . S
C459 C458 1.385 . S
C459 C460 1.389 . S
C460 C459 1.389 . S
C460 C461 1.387 . S
C461 H446 0.930 . S
C461 C456 1.390 . S
C461 C460 1.387 . S
H462 C474 0.930 . S
H463 C476 0.930 . S
H464 C477 0.930 . S
H465 C481 0.959 . S
H466 C481 0.959 . S
H467 C481 0.961 . S
H468 C482 0.960 . S
H469 C482 0.961 . S
H470 C482 0.959 . S
H471 C485 0.929 . S
H472 C486 0.931 . S
H473 C488 0.930 . S
C474 H462 0.930 . S
C474 C475 1.399 . S
C474 C479 1.399 . S
C475 C474 1.399 . S
C475 C476 1.376 . S
C476 H463 0.930 . S
C476 C475 1.376 . S
C476 C477 1.388 . S
C477 H464 0.930 . S
C477 C476 1.388 . S
C477 C478 1.390 . S
C478 C477 1.390 . S
C478 C479 1.394 . S
C478 C484 1.465 . S
C479 C474 1.399 . S
C479 C478 1.394 . S
C479 C480 1.516 . S
C480 C479 1.516 . S
C480 C481 1.502 . S
C480 C482 1.561 . S
C480 C483 1.526 . S
C481 H465 0.959 . S
C481 H466 0.959 . S
C481 H467 0.961 . S
C481 C480 1.502 . S
C482 H468 0.960 . S
C482 H469 0.961 . S
C482 H470 0.959 . S
C482 C480 1.561 . S
C483 C480 1.526 . S
C483 C484 1.396 . S
C483 C488 1.390 . S
C484 C478 1.465 . S
C484 C483 1.396 . S
C484 C485 1.399 . S
C485 H471 0.929 . S
C485 C484 1.399 . S
C485 C486 1.385 . S
C486 H472 0.931 . S
C486 C485 1.385 . S
C486 C487 1.389 . S
C487 C486 1.389 . S
C487 C488 1.387 . S
C488 H473 0.930 . S
C488 C483 1.390 . S
C488 C487 1.387 . S
H489 C501 0.930 . S
H490 C503 0.930 . S
H491 C504 0.930 . S
H492 C508 0.959 . S
H493 C508 0.959 . S
H494 C508 0.961 . S
H495 C509 0.960 . S
H496 C509 0.961 . S
H497 C509 0.959 . S
H498 C512 0.929 . S
H499 C513 0.931 . S
H500 C515 0.930 . S
C501 H489 0.930 . S
C501 C502 1.399 . S
C501 C506 1.399 . S
C502 C501 1.399 . S
C502 C503 1.376 . S
C503 H490 0.930 . S
C503 C502 1.376 . S
C503 C504 1.388 . S
C504 H491 0.930 . S
C504 C503 1.388 . S
C504 C505 1.390 . S
C505 C504 1.390 . S
C505 C506 1.394 . S
C505 C511 1.465 . S
C506 C501 1.399 . S
C506 C505 1.394 . S
C506 C507 1.516 . S
C507 C506 1.516 . S
C507 C508 1.502 . S
C507 C509 1.561 . S
C507 C510 1.526 . S
C508 H492 0.959 . S
C508 H493 0.959 . S
C508 H494 0.961 . S
C508 C507 1.502 . S
C509 H495 0.960 . S
C509 H496 0.961 . S
C509 H497 0.959 . S
C509 C507 1.561 . S
C510 C507 1.526 . S
C510 C511 1.396 . S
C510 C515 1.390 . S
C511 C505 1.465 . S
C511 C510 1.396 . S
C511 C512 1.399 . S
C512 H498 0.929 . S
C512 C511 1.399 . S
C512 C513 1.385 . S
C513 H499 0.931 . S
C513 C512 1.385 . S
C513 C514 1.389 . S
C514 C513 1.389 . S
C514 C515 1.387 . S
C515 H500 0.930 . S
C515 C510 1.390 . S
C515 C514 1.387 . S
H516 C528 0.930 . S
H517 C530 0.930 . S
H518 C531 0.930 . S
H519 C535 0.959 . S
H520 C535 0.959 . S
H521 C535 0.961 . S
H522 C536 0.960 . S
H523 C536 0.961 . S
H524 C536 0.959 . S
H525 C539 0.929 . S
H526 C540 0.931 . S
H527 C542 0.930 . S
C528 H516 0.930 . S
C528 C529 1.399 . S
C528 C533 1.399 . S
C529 C528 1.399 . S
C529 C530 1.376 . S
C530 H517 0.930 . S
C530 C529 1.376 . S
C530 C531 1.388 . S
C531 H518 0.930 . S
C531 C530 1.388 . S
C531 C532 1.390 . S
C532 C531 1.390 . S
C532 C533 1.394 . S
C532 C538 1.465 . S
C533 C528 1.399 . S
C533 C532 1.394 . S
C533 C534 1.516 . S
C534 C533 1.516 . S
C534 C535 1.502 . S
C534 C536 1.561 . S
C534 C537 1.526 . S
C535 H519 0.959 . S
C535 H520 0.959 . S
C535 H521 0.961 . S
C535 C534 1.502 . S
C536 H522 0.960 . S
C536 H523 0.961 . S
C536 H524 0.959 . S
C536 C534 1.561 . S
C537 C534 1.526 . S
C537 C538 1.396 . S
C537 C542 1.390 . S
C538 C532 1.465 . S
C538 C537 1.396 . S
C538 C539 1.399 . S
C539 H525 0.929 . S
C539 C538 1.399 . S
C539 C540 1.385 . S
C540 H526 0.931 . S
C540 C539 1.385 . S
C540 C541 1.389 . S
C541 C540 1.389 . S
C541 C542 1.387 . S
C542 H527 0.930 . S
C542 C537 1.390 . S
C542 C541 1.387 . S
H543 C555 0.930 . S
H544 C557 0.930 . S
H545 C558 0.930 . S
H546 C562 0.959 . S
H547 C562 0.959 . S
H548 C562 0.961 . S
H549 C563 0.960 . S
H550 C563 0.961 . S
H551 C563 0.959 . S
H552 C566 0.929 . S
H553 C567 0.931 . S
H554 C569 0.930 . S
C555 H543 0.930 . S
C555 C556 1.399 . S
C555 C560 1.399 . S
C556 C555 1.399 . S
C556 C557 1.376 . S
C557 H544 0.930 . S
C557 C556 1.376 . S
C557 C558 1.388 . S
C558 H545 0.930 . S
C558 C557 1.388 . S
C558 C559 1.390 . S
C559 C558 1.390 . S
C559 C560 1.394 . S
C559 C565 1.465 . S
C560 C555 1.399 . S
C560 C559 1.394 . S
C560 C561 1.516 . S
C561 C560 1.516 . S
C561 C562 1.502 . S
C561 C563 1.561 . S
C561 C564 1.526 . S
C562 H546 0.959 . S
C562 H547 0.959 . S
C562 H548 0.961 . S
C562 C561 1.502 . S
C563 H549 0.960 . S
C563 H550 0.961 . S
C563 H551 0.959 . S
C563 C561 1.561 . S
C564 C561 1.526 . S
C564 C565 1.396 . S
C564 C569 1.390 . S
C565 C559 1.465 . S
C565 C564 1.396 . S
C565 C566 1.399 . S
C566 H552 0.929 . S
C566 C565 1.399 . S
C566 C567 1.385 . S
C567 H553 0.931 . S
C567 C566 1.385 . S
C567 C568 1.389 . S
C568 C567 1.389 . S
C568 C569 1.387 . S
C569 H554 0.930 . S
C569 C564 1.390 . S
C569 C568 1.387 . S
H570 C582 0.930 . S
H571 C584 0.930 . S
H572 C585 0.930 . S
H573 C589 0.959 . S
H574 C589 0.959 . S
H575 C589 0.961 . S
H576 C590 0.960 . S
H577 C590 0.961 . S
H578 C590 0.959 . S
H579 C593 0.929 . S
H580 C594 0.931 . S
H581 C596 0.930 . S
C582 H570 0.930 . S
C582 C583 1.399 . S
C582 C587 1.399 . S
C583 C582 1.399 . S
C583 C584 1.376 . S
C584 H571 0.930 . S
C584 C583 1.376 . S
C584 C585 1.388 . S
C585 H572 0.930 . S
C585 C584 1.388 . S
C585 C586 1.390 . S
C586 C585 1.390 . S
C586 C587 1.394 . S
C586 C592 1.465 . S
C587 C582 1.399 . S
C587 C586 1.394 . S
C587 C588 1.516 . S
C588 C587 1.516 . S
C588 C589 1.502 . S
C588 C590 1.561 . S
C588 C591 1.526 . S
C589 H573 0.959 . S
C589 H574 0.959 . S
C589 H575 0.961 . S
C589 C588 1.502 . S
C590 H576 0.960 . S
C590 H577 0.961 . S
C590 H578 0.959 . S
C590 C588 1.561 . S
C591 C588 1.526 . S
C591 C592 1.396 . S
C591 C596 1.390 . S
C592 C586 1.465 . S
C592 C591 1.396 . S
C592 C593 1.399 . S
C593 H579 0.929 . S
C593 C592 1.399 . S
C593 C594 1.385 . S
C594 H580 0.931 . S
C594 C593 1.385 . S
C594 C595 1.389 . S
C595 C594 1.389 . S
C595 C596 1.387 . S
C596 H581 0.930 . S
C596 C591 1.390 . S
C596 C595 1.387 . S
H597 C609 0.930 . S
H598 C611 0.930 . S
H599 C612 0.930 . S
H600 C616 0.959 . S
H601 C616 0.959 . S
H602 C616 0.961 . S
H603 C617 0.960 . S
H604 C617 0.961 . S
H605 C617 0.959 . S
H606 C620 0.929 . S
H607 C621 0.931 . S
H608 C623 0.930 . S
C609 H597 0.930 . S
C609 C610 1.399 . S
C609 C614 1.399 . S
C610 C609 1.399 . S
C610 C611 1.376 . S
C611 H598 0.930 . S
C611 C610 1.376 . S
C611 C612 1.388 . S
C612 H599 0.930 . S
C612 C611 1.388 . S
C612 C613 1.390 . S
C613 C612 1.390 . S
C613 C614 1.394 . S
C613 C619 1.465 . S
C614 C609 1.399 . S
C614 C613 1.394 . S
C614 C615 1.516 . S
C615 C614 1.516 . S
C615 C616 1.502 . S
C615 C617 1.561 . S
C615 C618 1.526 . S
C616 H600 0.959 . S
C616 H601 0.959 . S
C616 H602 0.961 . S
C616 C615 1.502 . S
C617 H603 0.960 . S
C617 H604 0.961 . S
C617 H605 0.959 . S
C617 C615 1.561 . S
C618 C615 1.526 . S
C618 C619 1.396 . S
C618 C623 1.390 . S
C619 C613 1.465 . S
C619 C618 1.396 . S
C619 C620 1.399 . S
C620 H606 0.929 . S
C620 C619 1.399 . S
C620 C621 1.385 . S
C621 H607 0.931 . S
C621 C620 1.385 . S
C621 C622 1.389 . S
C622 C621 1.389 . S
C622 C623 1.387 . S
C623 H608 0.930 . S
C623 C618 1.390 . S
C623 C622 1.387 . S
H624 C636 0.930 . S
H625 C638 0.930 . S
H626 C639 0.930 . S
H627 C643 0.959 . S
H628 C643 0.959 . S
H629 C643 0.961 . S
H630 C644 0.960 . S
H631 C644 0.961 . S
H632 C644 0.959 . S
H633 C647 0.929 . S
H634 C648 0.931 . S
H635 C650 0.930 . S
C636 H624 0.930 . S
C636 C637 1.399 . S
C636 C641 1.399 . S
C637 C636 1.399 . S
C637 C638 1.376 . S
C638 H625 0.930 . S
C638 C637 1.376 . S
C638 C639 1.388 . S
C639 H626 0.930 . S
C639 C638 1.388 . S
C639 C640 1.390 . S
C640 C639 1.390 . S
C640 C641 1.394 . S
C640 C646 1.465 . S
C641 C636 1.399 . S
C641 C640 1.394 . S
C641 C642 1.516 . S
C642 C641 1.516 . S
C642 C643 1.502 . S
C642 C644 1.561 . S
C642 C645 1.526 . S
C643 H627 0.959 . S
C643 H628 0.959 . S
C643 H629 0.961 . S
C643 C642 1.502 . S
C644 H630 0.960 . S
C644 H631 0.961 . S
C644 H632 0.959 . S
C644 C642 1.561 . S
C645 C642 1.526 . S
C645 C646 1.396 . S
C645 C650 1.390 . S
C646 C640 1.465 . S
C646 C645 1.396 . S
C646 C647 1.399 . S
C647 H633 0.929 . S
C647 C646 1.399 . S
C647 C648 1.385 . S
C648 H634 0.931 . S
C648 C647 1.385 . S
C648 C649 1.389 . S
C649 C648 1.389 . S
C649 C650 1.387 . S
C650 H635 0.930 . S
C650 C645 1.390 . S
C650 C649 1.387 . S
H651 C663 0.930 . S
H652 C665 0.930 . S
H653 C666 0.930 . S
H654 C670 0.959 . S
H655 C670 0.959 . S
H656 C670 0.961 . S
H657 C671 0.960 . S
H658 C671 0.961 . S
H659 C671 0.959 . S
H660 C674 0.929 . S
H661 C675 0.931 . S
H662 C677 0.930 . S
C663 H651 0.930 . S
C663 C664 1.399 . S
C663 C668 1.399 . S
C664 C663 1.399 . S
C664 C665 1.376 . S
C665 H652 0.930 . S
C665 C664 1.376 . S
C665 C666 1.388 . S
C666 H653 0.930 . S
C666 C665 1.388 . S
C666 C667 1.390 . S
C667 C666 1.390 . S
C667 C668 1.394 . S
C667 C673 1.465 . S
C668 C663 1.399 . S
C668 C667 1.394 . S
C668 C669 1.516 . S
C669 C668 1.516 . S
C669 C670 1.502 . S
C669 C671 1.561 . S
C669 C672 1.526 . S
C670 H654 0.959 . S
C670 H655 0.959 . S
C670 H656 0.961 . S
C670 C669 1.502 . S
C671 H657 0.960 . S
C671 H658 0.961 . S
C671 H659 0.959 . S
C671 C669 1.561 . S
C672 C669 1.526 . S
C672 C673 1.396 . S
C672 C677 1.390 . S
C673 C667 1.465 . S
C673 C672 1.396 . S
C673 C674 1.399 . S
C674 H660 0.929 . S
C674 C673 1.399 . S
C674 C675 1.385 . S
C675 H661 0.931 . S
C675 C674 1.385 . S
C675 C676 1.389 . S
C676 C675 1.389 . S
C676 C677 1.387 . S
C677 H662 0.930 . S
C677 C672 1.390 . S
C677 C676 1.387 . S
H678 C690 0.930 . S
H679 C692 0.930 . S
H680 C693 0.930 . S
H681 C697 0.959 . S
H682 C697 0.959 . S
H683 C697 0.961 . S
H684 C698 0.960 . S
H685 C698 0.961 . S
H686 C698 0.959 . S
H687 C701 0.929 . S
H688 C702 0.931 . S
H689 C704 0.930 . S
C690 H678 0.930 . S
C690 C691 1.399 . S
C690 C695 1.399 . S
C691 C690 1.399 . S
C691 C692 1.376 . S
C692 H679 0.930 . S
C692 C691 1.376 . S
C692 C693 1.388 . S
C693 H680 0.930 . S
C693 C692 1.388 . S
C693 C694 1.390 . S
C694 C693 1.390 . S
C694 C695 1.394 . S
C694 C700 1.465 . S
C695 C690 1.399 . S
C695 C694 1.394 . S
C695 C696 1.516 . S
C696 C695 1.516 . S
C696 C697 1.502 . S
C696 C698 1.561 . S
C696 C699 1.526 . S
C697 H681 0.959 . S
C697 H682 0.959 . S
C697 H683 0.961 . S
C697 C696 1.502 . S
C698 H684 0.960 . S
C698 H685 0.961 . S
C698 H686 0.959 . S
C698 C696 1.561 . S
C699 C696 1.526 . S
C699 C700 1.396 . S
C699 C704 1.390 . S
C700 C694 1.465 . S
C700 C699 1.396 . S
C700 C701 1.399 . S
C701 H687 0.929 . S
C701 C700 1.399 . S
C701 C702 1.385 . S
C702 H688 0.931 . S
C702 C701 1.385 . S
C702 C703 1.389 . S
C703 C702 1.389 . S
C703 C704 1.387 . S
C704 H689 0.930 . S
C704 C699 1.390 . S
C704 C703 1.387 . S
H705 C717 0.930 . S
H706 C719 0.930 . S
H707 C720 0.930 . S
H708 C724 0.959 . S
H709 C724 0.959 . S
H710 C724 0.961 . S
H711 C725 0.960 . S
H712 C725 0.961 . S
H713 C725 0.959 . S
H714 C728 0.929 . S
H715 C729 0.931 . S
H716 C731 0.930 . S
C717 H705 0.930 . S
C717 C718 1.399 . S
C717 C722 1.399 . S
C718 C717 1.399 . S
C718 C719 1.376 . S
C719 H706 0.930 . S
C719 C718 1.376 . S
C719 C720 1.388 . S
C720 H707 0.930 . S
C720 C719 1.388 . S
C720 C721 1.390 . S
C721 C720 1.390 . S
C721 C722 1.394 . S
C721 C727 1.465 . S
C722 C717 1.399 . S
C722 C721 1.394 . S
C722 C723 1.516 . S
C723 C722 1.516 . S
C723 C724 1.502 . S
C723 C725 1.561 . S
C723 C726 1.526 . S
C724 H708 0.959 . S
C724 H709 0.959 . S
C724 H710 0.961 . S
C724 C723 1.502 . S
C725 H711 0.960 . S
C725 H712 0.961 . S
C725 H713 0.959 . S
C725 C723 1.561 . S
C726 C723 1.526 . S
C726 C727 1.396 . S
C726 C731 1.390 . S
C727 C721 1.465 . S
C727 C726 1.396 . S
C727 C728 1.399 . S
C728 H714 0.929 . S
C728 C727 1.399 . S
C728 C729 1.385 . S
C729 H715 0.931 . S
C729 C728 1.385 . S
C729 C730 1.389 . S
C730 C729 1.389 . S
C730 C731 1.387 . S
C731 H716 0.930 . S
C731 C726 1.390 . S
C731 C730 1.387 . S
H732 C744 0.930 . S
H733 C746 0.930 . S
H734 C747 0.930 . S
H735 C751 0.959 . S
H736 C751 0.959 . S
H737 C751 0.961 . S
H738 C752 0.960 . S
H739 C752 0.961 . S
H740 C752 0.959 . S
H741 C755 0.929 . S
H742 C756 0.931 . S
H743 C758 0.930 . S
C744 H732 0.930 . S
C744 C745 1.399 . S
C744 C749 1.399 . S
C745 C744 1.399 . S
C745 C746 1.376 . S
C746 H733 0.930 . S
C746 C745 1.376 . S
C746 C747 1.388 . S
C747 H734 0.930 . S
C747 C746 1.388 . S
C747 C748 1.390 . S
C748 C747 1.390 . S
C748 C749 1.394 . S
C748 C754 1.465 . S
C749 C744 1.399 . S
C749 C748 1.394 . S
C749 C750 1.516 . S
C750 C749 1.516 . S
C750 C751 1.502 . S
C750 C752 1.561 . S
C750 C753 1.526 . S
C751 H735 0.959 . S
C751 H736 0.959 . S
C751 H737 0.961 . S
C751 C750 1.502 . S
C752 H738 0.960 . S
C752 H739 0.961 . S
C752 H740 0.959 . S
C752 C750 1.561 . S
C753 C750 1.526 . S
C753 C754 1.396 . S
C753 C758 1.390 . S
C754 C748 1.465 . S
C754 C753 1.396 . S
C754 C755 1.399 . S
C755 H741 0.929 . S
C755 C754 1.399 . S
C755 C756 1.385 . S
C756 H742 0.931 . S
C756 C755 1.385 . S
C756 C757 1.389 . S
C757 C756 1.389 . S
C757 C758 1.387 . S
C758 H743 0.930 . S
C758 C753 1.390 . S
C758 C757 1.387 . S
H759 C771 0.930 . S
H760 C773 0.930 . S
H761 C774 0.930 . S
H762 C778 0.959 . S
H763 C778 0.959 . S
H764 C778 0.961 . S
H765 C779 0.960 . S
H766 C779 0.961 . S
H767 C779 0.959 . S
H768 C782 0.929 . S
H769 C783 0.931 . S
H770 C785 0.930 . S
C771 H759 0.930 . S
C771 C772 1.399 . S
C771 C776 1.399 . S
C772 C771 1.399 . S
C772 C773 1.376 . S
C773 H760 0.930 . S
C773 C772 1.376 . S
C773 C774 1.388 . S
C774 H761 0.930 . S
C774 C773 1.388 . S
C774 C775 1.390 . S
C775 C774 1.390 . S
C775 C776 1.394 . S
C775 C781 1.465 . S
C776 C771 1.399 . S
C776 C775 1.394 . S
C776 C777 1.516 . S
C777 C776 1.516 . S
C777 C778 1.502 . S
C777 C779 1.561 . S
C777 C780 1.526 . S
C778 H762 0.959 . S
C778 H763 0.959 . S
C778 H764 0.961 . S
C778 C777 1.502 . S
C779 H765 0.960 . S
C779 H766 0.961 . S
C779 H767 0.959 . S
C779 C777 1.561 . S
C780 C777 1.526 . S
C780 C781 1.396 . S
C780 C785 1.390 . S
C781 C775 1.465 . S
C781 C780 1.396 . S
C781 C782 1.399 . S
C782 H768 0.929 . S
C782 C781 1.399 . S
C782 C783 1.385 . S
C783 H769 0.931 . S
C783 C782 1.385 . S
C783 C784 1.389 . S
C784 C783 1.389 . S
C784 C785 1.387 . S
C785 H770 0.930 . S
C785 C780 1.390 . S
C785 C784 1.387 . S
H786 C798 0.930 . S
H787 C800 0.930 . S
H788 C801 0.930 . S
H789 C805 0.959 . S
H790 C805 0.959 . S
H791 C805 0.961 . S
H792 C806 0.960 . S
H793 C806 0.961 . S
H794 C806 0.959 . S
H795 C809 0.929 . S
H796 C810 0.931 . S
H797 C812 0.930 . S
C798 H786 0.930 . S
C798 C799 1.399 . S
C798 C803 1.399 . S
C799 C798 1.399 . S
C799 C800 1.376 . S
C800 H787 0.930 . S
C800 C799 1.376 . S
C800 C801 1.388 . S
C801 H788 0.930 . S
C801 C800 1.388 . S
C801 C802 1.390 . S
C802 C801 1.390 . S
C802 C803 1.394 . S
C802 C808 1.465 . S
C803 C798 1.399 . S
C803 C802 1.394 . S
C803 C804 1.516 . S
C804 C803 1.516 . S
C804 C805 1.502 . S
C804 C806 1.561 . S
C804 C807 1.526 . S
C805 H789 0.959 . S
C805 H790 0.959 . S
C805 H791 0.961 . S
C805 C804 1.502 . S
C806 H792 0.960 . S
C806 H793 0.961 . S
C806 H794 0.959 . S
C806 C804 1.561 . S
C807 C804 1.526 . S
C807 C808 1.396 . S
C807 C812 1.390 . S
C808 C802 1.465 . S
C808 C807 1.396 . S
C808 C809 1.399 . S
C809 H795 0.929 . S
C809 C808 1.399 . S
C809 C810 1.385 . S
C810 H796 0.931 . S
C810 C809 1.385 . S
C810 C811 1.389 . S
C811 C810 1.389 . S
C811 C812 1.387 . S
C812 H797 0.930 . S
C812 C807 1.390 . S
C812 C811 1.387 . S
H813 C825 0.930 . S
H814 C827 0.930 . S
H815 C828 0.930 . S
H816 C832 0.959 . S
H817 C832 0.959 . S
H818 C832 0.961 . S
H819 C833 0.960 . S
H820 C833 0.961 . S
H821 C833 0.959 . S
H822 C836 0.929 . S
H823 C837 0.931 . S
H824 C839 0.930 . S
C825 H813 0.930 . S
C825 C826 1.399 . S
C825 C830 1.399 . S
C826 C825 1.399 . S
C826 C827 1.376 . S
C827 H814 0.930 . S
C827 C826 1.376 . S
C827 C828 1.388 . S
C828 H815 0.930 . S
C828 C827 1.388 . S
C828 C829 1.390 . S
C829 C828 1.390 . S
C829 C830 1.394 . S
C829 C835 1.465 . S
C830 C825 1.399 . S
C830 C829 1.394 . S
C830 C831 1.516 . S
C831 C830 1.516 . S
C831 C832 1.502 . S
C831 C833 1.561 . S
C831 C834 1.526 . S
C832 H816 0.959 . S
C832 H817 0.959 . S
C832 H818 0.961 . S
C832 C831 1.502 . S
C833 H819 0.960 . S
C833 H820 0.961 . S
C833 H821 0.959 . S
C833 C831 1.561 . S
C834 C831 1.526 . S
C834 C835 1.396 . S
C834 C839 1.390 . S
C835 C829 1.465 . S
C835 C834 1.396 . S
C835 C836 1.399 . S
C836 H822 0.929 . S
C836 C835 1.399 . S
C836 C837 1.385 . S
C837 H823 0.931 . S
C837 C836 1.385 . S
C837 C838 1.389 . S
C838 C837 1.389 . S
C838 C839 1.387 . S
C839 H824 0.930 . S
C839 C834 1.390 . S
C839 C838 1.387 . S
H840 C852 0.930 . S
H841 C854 0.930 . S
H842 C855 0.930 . S
H843 C859 0.959 . S
H844 C859 0.959 . S
H845 C859 0.961 . S
H846 C860 0.960 . S
H847 C860 0.961 . S
H848 C860 0.959 . S
H849 C863 0.929 . S
H850 C864 0.931 . S
H851 C866 0.930 . S
C852 H840 0.930 . S
C852 C853 1.399 . S
C852 C857 1.399 . S
C853 C852 1.399 . S
C853 C854 1.376 . S
C854 H841 0.930 . S
C854 C853 1.376 . S
C854 C855 1.388 . S
C855 H842 0.930 . S
C855 C854 1.388 . S
C855 C856 1.390 . S
C856 C855 1.390 . S
C856 C857 1.394 . S
C856 C862 1.465 . S
C857 C852 1.399 . S
C857 C856 1.394 . S
C857 C858 1.516 . S
C858 C857 1.516 . S
C858 C859 1.502 . S
C858 C860 1.561 . S
C858 C861 1.526 . S
C859 H843 0.959 . S
C859 H844 0.959 . S
C859 H845 0.961 . S
C859 C858 1.502 . S
C860 H846 0.960 . S
C860 H847 0.961 . S
C860 H848 0.959 . S
C860 C858 1.561 . S
C861 C858 1.526 . S
C861 C862 1.396 . S
C861 C866 1.390 . S
C862 C856 1.465 . S
C862 C861 1.396 . S
C862 C863 1.399 . S
C863 H849 0.929 . S
C863 C862 1.399 . S
C863 C864 1.385 . S
C864 H850 0.931 . S
C864 C863 1.385 . S
C864 C865 1.389 . S
C865 C864 1.389 . S
C865 C866 1.387 . S
C866 H851 0.930 . S
C866 C861 1.390 . S
C866 C865 1.387 . S
H867 C879 0.930 . S
H868 C881 0.930 . S
H869 C882 0.930 . S
H870 C886 0.959 . S
H871 C886 0.959 . S
H872 C886 0.961 . S
H873 C887 0.960 . S
H874 C887 0.961 . S
H875 C887 0.959 . S
H876 C890 0.929 . S
H877 C891 0.931 . S
H878 C893 0.930 . S
C879 H867 0.930 . S
C879 C880 1.399 . S
C879 C884 1.399 . S
C880 C879 1.399 . S
C880 C881 1.376 . S
C881 H868 0.930 . S
C881 C880 1.376 . S
C881 C882 1.388 . S
C882 H869 0.930 . S
C882 C881 1.388 . S
C882 C883 1.390 . S
C883 C882 1.390 . S
C883 C884 1.394 . S
C883 C889 1.465 . S
C884 C879 1.399 . S
C884 C883 1.394 . S
C884 C885 1.516 . S
C885 C884 1.516 . S
C885 C886 1.502 . S
C885 C887 1.561 . S
C885 C888 1.526 . S
C886 H870 0.959 . S
C886 H871 0.959 . S
C886 H872 0.961 . S
C886 C885 1.502 . S
C887 H873 0.960 . S
C887 H874 0.961 . S
C887 H875 0.959 . S
C887 C885 1.561 . S
C888 C885 1.526 . S
C888 C889 1.396 . S
C888 C893 1.390 . S
C889 C883 1.465 . S
C889 C888 1.396 . S
C889 C890 1.399 . S
C890 H876 0.929 . S
C890 C889 1.399 . S
C890 C891 1.385 . S
C891 H877 0.931 . S
C891 C890 1.385 . S
C891 C892 1.389 . S
C892 C891 1.389 . S
C892 C893 1.387 . S
C893 H878 0.930 . S
C893 C888 1.390 . S
C893 C892 1.387 . S
C259 C7 1.741 . S
C271 C152 1.664 . S
C286 C30 1.518 . S
C298 C163 1.417 . S
C325 C182 1.609 . S
C313 N58 1.577 . S
C352 C199 1.355 . S
C340 N81 1.391 . S
C379 C226 1.573 . S
C367 C99 1.635 . S
C406 C235 1.339 . S
C394 N127 1.427 . S
C421 N25 1.578 . S
C433 C188 1.600 . S
C448 C62 1.492 . S
C460 C208 1.487 . S
C487 C217 1.670 . S
C475 C85 1.687 . S
C514 C244 1.413 . S
C502 N94 1.374 . S
C529 C131 1.664 . S
C541 C146 1.644 . S
C568 C172 1.324 . S
C556 N2 1.390 . S
C595 C200 1.617 . S
C583 C16 1.755 . S
C610 C39 1.545 . S
C622 C224 1.487 . S
C649 C236 1.600 . S
C637 N48 1.668 . S
C664 N71 1.427 . S
C676 C154 1.322 . S
C691 C108 1.675 . S
C703 C164 1.650 . S
C718 N117 1.476 . S
C730 C181 1.370 . S
C745 N35 1.662 . S
C757 C242 1.605 . S
C784 C145 1.510 . S
C772 C53 1.552 . S
C799 C76 1.790 . S
C811 C170 1.705 . S
C826 N104 1.394 . S
C838 C190 1.416 . S
C853 C122 1.679 . S
C865 C206 1.590 . S
C880 N12 1.379 . S
C892 C218 1.314 . S
