# Generated by pormake.
# Topology nom, (4,4)-cn, num edge types: 1
# Building blocks:
#     Node 0, Type 0, BuildingBlock: MIFKUJ_clean_linker_1, # of connection points: 4
#     Node 1, Type 0, BuildingBlock: MIFKUJ_clean_linker_1, # of connection points: 4
#     Node 2, Type 0, BuildingBlock: MIFKUJ_clean_linker_1, # of connection points: 4
#     Node 3, Type 0, BuildingBlock: MIFKUJ_clean_linker_1, # of connection points: 4
#     Node 4, Type 0, BuildingBlock: MIFKUJ_clean_linker_1, # of connection points: 4
#     Node 5, Type 0, BuildingBlock: MIFKUJ_clean_linker_1, # of connection points: 4
#     Node 6, Type 1, BuildingBlock: UXUYUI_clean_sbu_0, # of connection points: 4
#     Node 7, Type 1, BuildingBlock: UXUYUI_clean_sbu_0, # of connection points: 4
#     Node 8, Type 1, BuildingBlock: UXUYUI_clean_sbu_0, # of connection points: 4
#     Node 9, Type 1, BuildingBlock: UXUYUI_clean_sbu_0, # of connection points: 4
#     Node 10, Type 1, BuildingBlock: UXUYUI_clean_sbu_0, # of connection points: 4
#     Node 11, Type 1, BuildingBlock: UXUYUI_clean_sbu_0, # of connection points: 4
#     Edge 12, Type (0, 1), BuildingBlock: ZUJKAS_clean_linker_0, # of connection points: 2
#     Edge 13, Type (0, 1), BuildingBlock: ZUJKAS_clean_linker_0, # of connection points: 2
#     Edge 14, Type (0, 1), BuildingBlock: ZUJKAS_clean_linker_0, # of connection points: 2
#     Edge 15, Type (0, 1), BuildingBlock: ZUJKAS_clean_linker_0, # of connection points: 2
#     Edge 16, Type (0, 1), BuildingBlock: ZUJKAS_clean_linker_0, # of connection points: 2
#     Edge 17, Type (0, 1), BuildingBlock: ZUJKAS_clean_linker_0, # of connection points: 2
#     Edge 18, Type (0, 1), BuildingBlock: ZUJKAS_clean_linker_0, # of connection points: 2
#     Edge 19, Type (0, 1), BuildingBlock: ZUJKAS_clean_linker_0, # of connection points: 2
#     Edge 20, Type (0, 1), BuildingBlock: ZUJKAS_clean_linker_0, # of connection points: 2
#     Edge 21, Type (0, 1), BuildingBlock: ZUJKAS_clean_linker_0, # of connection points: 2
#     Edge 22, Type (0, 1), BuildingBlock: ZUJKAS_clean_linker_0, # of connection points: 2
#     Edge 23, Type (0, 1), BuildingBlock: ZUJKAS_clean_linker_0, # of connection points: 2
#     Edge 24, Type (0, 1), BuildingBlock: ZUJKAS_clean_linker_0, # of connection points: 2
#     Edge 25, Type (0, 1), BuildingBlock: ZUJKAS_clean_linker_0, # of connection points: 2
#     Edge 26, Type (0, 1), BuildingBlock: ZUJKAS_clean_linker_0, # of connection points: 2
#     Edge 27, Type (0, 1), BuildingBlock: ZUJKAS_clean_linker_0, # of connection points: 2
#     Edge 28, Type (0, 1), BuildingBlock: ZUJKAS_clean_linker_0, # of connection points: 2
#     Edge 29, Type (0, 1), BuildingBlock: ZUJKAS_clean_linker_0, # of connection points: 2
#     Edge 30, Type (0, 1), BuildingBlock: ZUJKAS_clean_linker_0, # of connection points: 2
#     Edge 31, Type (0, 1), BuildingBlock: ZUJKAS_clean_linker_0, # of connection points: 2
#     Edge 32, Type (0, 1), BuildingBlock: ZUJKAS_clean_linker_0, # of connection points: 2
#     Edge 33, Type (0, 1), BuildingBlock: ZUJKAS_clean_linker_0, # of connection points: 2
#     Edge 34, Type (0, 1), BuildingBlock: ZUJKAS_clean_linker_0, # of connection points: 2
#     Edge 35, Type (0, 1), BuildingBlock: ZUJKAS_clean_linker_0, # of connection points: 2
# Relax obj value: 0.035
# Max RMSD: 0.144
# Mean RMSD: 0.118
data_MOF--net-nom--node1-UXUYUI_clean_sbu_0--node2-MIFKUJ_clean_linker_1--edge1-ZUJKAS_clean_linker_0
_symmetry_space_group_name_H-M    P1
_symmetry_Int_Tables_number       1
_symmetry_cell_setting            triclinic
loop_
_symmetry_equiv_pos_as_xyz
'x, y, z'
_cell_length_a     76.424316
_cell_length_b     76.414316
_cell_length_c     81.506509
_cell_angle_alpha  90.000611
_cell_angle_beta   89.998164
_cell_angle_gamma 120.00216
loop_
_atom_site_label
_atom_site_type_symbol
_atom_site_fract_x
_atom_site_fract_y
_atom_site_fract_z
_atom_type_partial_charge
H0 H 1.0 0.47981 0.29585 0.0
H1 H 0.97577 0.46563 0.27329 0.0
H2 H 0.95143 0.50399 0.28654 0.0
H3 H 0.97579 0.51819 0.30906 0.0
H4 H 0.02959 0.51928 0.30122 0.0
H5 H 0.96636 0.46944 0.32952 0.0
H6 H 0.93092 0.45694 0.33691 0.0
H7 H 0.94755 0.51513 0.35792 0.0
H8 H 0.98271 0.52759 0.35024 0.0
H9 H 0.03678 0.54808 0.36913 0.0
H10 H 0.06064 0.55864 0.39191 0.0
H11 H 0.08906 0.52769 0.3698 0.0
H12 H 0.06444 0.51624 0.34754 0.0
H13 H 0.00864 0.51409 0.35943 0.0
H14 H 0.06615 0.5655 0.33487 0.0
H15 H 0.10106 0.5868 0.32602 0.0
H16 H 0.0967 0.53765 0.29672 0.0
H17 H 0.06167 0.51624 0.30576 0.0
C18 C 0.98955 0.49987 0.30426 0.0
C19 C 0.98946 0.48519 0.29387 0.0
C20 C 0.97565 0.47714 0.28096 0.0
C21 C 0.96166 0.48366 0.27815 0.0
C22 C 0.96182 0.49845 0.28854 0.0
C23 C 0.97573 0.50657 0.30141 0.0
C24 C 0.0044 0.50833 0.31785 0.0
C25 C 0.02505 0.51784 0.31399 0.0
C26 C 0.99848 0.50761 0.3344 0.0
C27 C 0.97711 0.49948 0.33923 0.0
C28 C 0.96231 0.47947 0.33567 0.0
C29 C 0.94212 0.47233 0.33999 0.0
C30 C 0.93645 0.48511 0.3479 0.0
C31 C 0.95139 0.50503 0.35161 0.0
C32 C 0.97151 0.51211 0.34736 0.0
C33 C 0.04886 0.53147 0.35653 0.0
C34 C 0.04807 0.54346 0.36924 0.0
C35 C 0.0619 0.54969 0.38218 0.0
C36 C 0.07687 0.5441 0.38269 0.0
C37 C 0.07762 0.5321 0.36992 0.0
C38 C 0.06369 0.52574 0.35706 0.0
C39 C 0.03394 0.52457 0.34289 0.0
C40 C 0.0133 0.5154 0.34671 0.0
C41 C 0.0399 0.52656 0.32623 0.0
C42 C 0.06135 0.53915 0.32118 0.0
C43 C 0.07279 0.55916 0.32676 0.0
C44 C 0.09275 0.57134 0.32168 0.0
C45 C 0.10166 0.56387 0.31073 0.0
C46 C 0.09019 0.54386 0.30507 0.0
C47 C 0.07021 0.53162 0.31025 0.0
H48 H 0.47339 0.98075 0.51977 0.0
H49 H 0.45217 0.94553 0.52798 0.0
H50 H 0.49254 0.93014 0.50302 0.0
H51 H 0.51392 0.96557 0.49496 0.0
H52 H 0.51181 0.00784 0.52646 0.0
H53 H 0.47327 0.97524 0.47643 0.0
H54 H 0.46214 0.95018 0.45432 0.0
H55 H 0.5244 0.97236 0.44075 0.0
H56 H 0.5354 0.99716 0.46299 0.0
H57 H 0.56084 0.06109 0.47248 0.0
H58 H 0.57289 0.09566 0.46286 0.0
H59 H 0.52699 0.09825 0.492 0.0
H60 H 0.5147 0.06364 0.50114 0.0
H61 H 0.5253 0.02791 0.46791 0.0
H62 H 0.56428 0.0632 0.5141 0.0
H63 H 0.57755 0.08805 0.53628 0.0
H64 H 0.51796 0.06083 0.55781 0.0
H65 H 0.50466 0.03638 0.53534 0.0
C66 C 0.49515 0.97579 0.50662 0.0
C67 C 0.47777 0.96984 0.51616 0.0
C68 C 0.46568 0.94971 0.52087 0.0
C69 C 0.4707 0.93507 0.51614 0.0
C70 C 0.48818 0.94105 0.50668 0.0
C71 C 0.50039 0.96127 0.50206 0.0
C72 C 0.50755 0.99722 0.50151 0.0
C73 C 0.51461 0.01225 0.51365 0.0
C74 C 0.51205 0.00296 0.48485 0.0
C75 C 0.50516 0.98792 0.47141 0.0
C76 C 0.48449 0.97462 0.46872 0.0
C77 C 0.47817 0.96042 0.45604 0.0
C78 C 0.49241 0.95927 0.44585 0.0
C79 C 0.51309 0.9727 0.44854 0.0
C80 C 0.51939 0.98697 0.46114 0.0
C81 C 0.537 0.05985 0.48765 0.0
C82 C 0.55344 0.06916 0.47681 0.0
C83 C 0.56037 0.08894 0.47141 0.0
C84 C 0.55085 0.09967 0.47664 0.0
C85 C 0.5345 0.09032 0.48759 0.0
C86 C 0.52761 0.07061 0.49298 0.0
C87 C 0.52888 0.03855 0.49285 0.0
C88 C 0.5227 0.02355 0.48074 0.0
C89 C 0.52545 0.03283 0.50957 0.0
C90 C 0.53344 0.04801 0.52298 0.0
C91 C 0.55403 0.06271 0.52351 0.0
C92 C 0.56164 0.07679 0.53628 0.0
C93 C 0.54881 0.07641 0.54881 0.0
C94 C 0.52819 0.06168 0.54824 0.0
C95 C 0.5206 0.04759 0.53548 0.0
H96 H 0.53647 0.55611 0.69649 0.0
H97 H 0.52492 0.56895 0.719 0.0
H98 H 0.46318 0.53136 0.70286 0.0
H99 H 0.47482 0.51805 0.68073 0.0
H100 H 0.52677 0.51653 0.69008 0.0
H101 H 0.51498 0.56797 0.66325 0.0
H102 H 0.49225 0.58072 0.65597 0.0
H103 H 0.45323 0.52471 0.63071 0.0
H104 H 0.47554 0.51187 0.63848 0.0
H105 H 0.50801 0.49057 0.62162 0.0
H106 H 0.52164 0.48015 0.59896 0.0
H107 H 0.58037 0.50977 0.62216 0.0
H108 H 0.56683 0.52089 0.64444 0.0
H109 H 0.51468 0.52497 0.63158 0.0
H110 H 0.51789 0.47165 0.65537 0.0
H111 H 0.52987 0.44907 0.66438 0.0
H112 H 0.57322 0.49588 0.6963 0.0
H113 H 0.56175 0.51879 0.68661 0.0
C114 C 0.50654 0.53631 0.68683 0.0
C115 C 0.52044 0.55061 0.69784 0.0
C116 C 0.51382 0.55806 0.71061 0.0
C117 C 0.49313 0.55129 0.71268 0.0
C118 C 0.47921 0.53679 0.7017 0.0
C119 C 0.48584 0.5293 0.68895 0.0
C120 C 0.51382 0.52864 0.67327 0.0
C121 C 0.52451 0.51871 0.67726 0.0
C122 C 0.50969 0.53036 0.6566 0.0
C123 C 0.49683 0.53888 0.65156 0.0
C124 C 0.50148 0.55845 0.6562 0.0
C125 C 0.48857 0.56576 0.65193 0.0
C126 C 0.47084 0.55365 0.64288 0.0
C127 C 0.46655 0.53427 0.63794 0.0
C128 C 0.4794 0.52699 0.64223 0.0
C129 C 0.53635 0.50644 0.6348 0.0
C130 C 0.52385 0.4949 0.62179 0.0
C131 C 0.53162 0.48878 0.60892 0.0
C132 C 0.5521 0.49406 0.60876 0.0
C133 C 0.56459 0.50561 0.62181 0.0
C134 C 0.55681 0.51179 0.63466 0.0
C135 C 0.5281 0.51322 0.64834 0.0
C136 C 0.51725 0.52299 0.64437 0.0
C137 C 0.53109 0.51036 0.66505 0.0
C138 C 0.5391 0.49704 0.67013 0.0
C139 C 0.53025 0.47722 0.66407 0.0
C140 C 0.53693 0.4642 0.66941 0.0
C141 C 0.55243 0.47061 0.68114 0.0
C142 C 0.5614 0.49053 0.68712 0.0
C143 C 0.55476 0.5036 0.68169 0.0
H144 H 0.03584 0.55607 0.79539 0.0
H145 H 0.06009 0.56945 0.77282 0.0
H146 H 0.08553 0.53285 0.78852 0.0
H147 H 0.06116 0.51949 0.81111 0.0
H148 H 0.00685 0.51674 0.80178 0.0
H149 H 0.06999 0.56822 0.8278 0.0
H150 H 0.10537 0.5819 0.83597 0.0
H151 H 0.08873 0.52723 0.86311 0.0
H152 H 0.05364 0.51346 0.85466 0.0
H153 H 0.99973 0.49097 0.87037 0.0
H154 H 0.97562 0.4805 0.89295 0.0
H155 H 0.94599 0.50935 0.8693 0.0
H156 H 0.97083 0.52071 0.84721 0.0
H157 H 0.02725 0.52532 0.8603 0.0
H158 H 0.97064 0.4716 0.83586 0.0
H159 H 0.93589 0.44955 0.82693 0.0
H160 H 0.93938 0.49771 0.79677 0.0
H161 H 0.97428 0.51978 0.80579 0.0
C162 C 0.04682 0.53695 0.80503 0.0
C163 C 0.04662 0.5509 0.79395 0.0
C164 C 0.06044 0.55848 0.78103 0.0
C165 C 0.07474 0.55221 0.77889 0.0
C166 C 0.07489 0.53817 0.78998 0.0
C167 C 0.06096 0.53051 0.80287 0.0
C168 C 0.03192 0.52898 0.81861 0.0
C169 C 0.01129 0.51889 0.81459 0.0
C170 C 0.03775 0.53076 0.8353 0.0
C171 C 0.05917 0.53971 0.84047 0.0
C172 C 0.074 0.55913 0.83539 0.0
C173 C 0.09417 0.56694 0.84008 0.0
C174 C 0.09976 0.55563 0.8502 0.0
C175 C 0.08483 0.53638 0.85548 0.0
C176 C 0.06478 0.5285 0.85063 0.0
C177 C 0.98705 0.50652 0.857 0.0
C178 C 0.98811 0.49514 0.87009 0.0
C179 C 0.97415 0.48896 0.88292 0.0
C180 C 0.95876 0.49398 0.88294 0.0
C181 C 0.95774 0.50538 0.8698 0.0
C182 C 0.97181 0.51169 0.85703 0.0
C183 C 0.00214 0.51335 0.84349 0.0
C184 C 0.02276 0.52326 0.84749 0.0
C185 C 0.99634 0.51051 0.82678 0.0
C186 C 0.975 0.49744 0.82167 0.0
C187 C 0.96385 0.47753 0.82751 0.0
C188 C 0.94396 0.46493 0.82239 0.0
C189 C 0.93484 0.47191 0.81119 0.0
C190 C 0.94605 0.49184 0.8053 0.0
C191 C 0.96596 0.50448 0.81047 0.0
H192 H 0.56323 0.05429 0.0181 0.0
H193 H 0.58557 0.08942 0.02594 0.0
H194 H 0.54595 0.10634 0.00162 0.0
H195 H 0.52321 0.07089 0.99428 0.0
H196 H 0.52419 0.02819 0.02549 0.0
H197 H 0.56302 0.06105 0.97603 0.0
H198 H 0.57444 0.08577 0.9537 0.0
H199 H 0.51246 0.06242 0.93866 0.0
H200 H 0.50116 0.0378 0.96099 0.0
H201 H 0.47479 0.97582 0.97102 0.0
H202 H 0.46131 0.94091 0.9617 0.0
H203 H 0.50494 0.93579 0.99196 0.0
H204 H 0.51846 0.9706 0.00107 0.0
H205 H 0.51027 0.00773 0.96705 0.0
H206 H 0.47082 0.97322 0.01339 0.0
H207 H 0.45723 0.94851 0.03564 0.0
H208 H 0.51675 0.97515 0.05726 0.0
H209 H 0.53037 0.99935 0.03467 0.0
C210 C 0.54165 0.05998 0.00549 0.0
C211 C 0.55926 0.06553 0.01456 0.0
C212 C 0.57213 0.08566 0.01889 0.0
C213 C 0.56766 0.10072 0.01426 0.0
C214 C 0.54977 0.09508 0.00544 0.0
C215 C 0.53685 0.07487 0.00113 0.0
C216 C 0.52866 0.0386 1.00048 0.0
C217 C 0.52125 0.02367 0.0127 0.0
C218 C 0.52408 0.03279 0.98384 0.0
C219 C 0.53122 0.04774 0.97029 0.0
C220 C 0.5519 0.06138 0.968 0.0
C221 C 0.5584 0.07551 0.95525 0.0
C222 C 0.54435 0.07608 0.94443 0.0
C223 C 0.52367 0.06223 0.94666 0.0
C224 C 0.51719 0.04819 0.95944 0.0
C225 C 0.49745 0.97577 0.98693 0.0
C226 C 0.48139 0.96714 0.97568 0.0
C227 C 0.47374 0.94723 0.97034 0.0
C228 C 0.482 0.93559 0.97616 0.0
C229 C 0.498 0.94424 0.98748 0.0
C230 C 0.50573 0.96415 0.99271 0.0
C231 C 0.50635 0.99721 0.99204 0.0
C232 C 0.51296 0.01217 0.97985 0.0
C233 C 0.50992 0.00307 0.00874 0.0
C234 C 0.50165 0.98805 0.02227 0.0
C235 C 0.48098 0.97361 0.02283 0.0
C236 C 0.47319 0.95961 0.03565 0.0
C237 C 0.4859 0.95984 0.04823 0.0
C238 C 0.50659 0.97437 0.04766 0.0
C239 C 0.51437 0.98835 0.03483 0.0
H240 H 0.49898 0.47889 0.19525 0.0
H241 H 0.50994 0.46563 0.21784 0.0
H242 H 0.57221 0.50939 0.20692 0.0
H243 H 0.56106 0.52214 0.18405 0.0
H244 H 0.50742 0.51957 0.19068 0.0
H245 H 0.5227 0.47094 0.16389 0.0
H246 H 0.54582 0.45865 0.15679 0.0
H247 H 0.58572 0.51577 0.13335 0.0
H248 H 0.56298 0.52816 0.14099 0.0
H249 H 0.52991 0.55006 0.12375 0.0
H250 H 0.51669 0.56062 0.10084 0.0
H251 H 0.45637 0.52553 0.12061 0.0
H252 H 0.46962 0.51459 0.14327 0.0
H253 H 0.52419 0.5149 0.13264 0.0
H254 H 0.51651 0.56545 0.15684 0.0
H255 H 0.50258 0.58643 0.16577 0.0
H256 H 0.45817 0.53699 0.19505 0.0
H257 H 0.47208 0.51587 0.18589 0.0
C258 C 0.52921 0.50137 0.18793 0.0
C259 C 0.51499 0.48559 0.19775 0.0
C260 C 0.5213 0.4781 0.21071 0.0
C261 C 0.54198 0.48644 0.21425 0.0
C262 C 0.55619 0.50237 0.2044 0.0
C263 C 0.54986 0.50976 0.19137 0.0
C264 C 0.52232 0.50917 0.17424 0.0
C265 C 0.51071 0.51821 0.17795 0.0
C266 C 0.52775 0.50851 0.15775 0.0
C267 C 0.54123 0.50055 0.15313 0.0
C268 C 0.53651 0.48084 0.15734 0.0
C269 C 0.54965 0.47378 0.15314 0.0
C270 C 0.56768 0.48628 0.14458 0.0
C271 C 0.57215 0.50588 0.14019 0.0
C272 C 0.55906 0.51292 0.14441 0.0
C273 C 0.50078 0.53161 0.13528 0.0
C274 C 0.51383 0.54459 0.12312 0.0
C275 C 0.50628 0.55076 0.11011 0.0
C276 C 0.48548 0.54395 0.10893 0.0
C277 C 0.47244 0.5309 0.1211 0.0
C278 C 0.48001 0.52478 0.13413 0.0
C279 C 0.50879 0.52488 0.149 0.0
C280 C 0.52063 0.51608 0.14533 0.0
C281 C 0.50442 0.52667 0.1656 0.0
C282 C 0.49515 0.53894 0.17048 0.0
C283 C 0.5035 0.55894 0.16491 0.0
C284 C 0.49555 0.57095 0.17005 0.0
C285 C 0.47923 0.56333 0.18106 0.0
C286 C 0.47085 0.54331 0.18665 0.0
C287 C 0.47874 0.53123 0.1814 0.0
Li288 Li 0.6398 0.40201 0.42601 0.0
Li289 Li 0.63354 0.37016 0.41392 0.0
Li290 Li 0.66561 0.40274 0.40857 0.0
Li291 Li 0.63395 0.39632 0.39559 0.0
C292 C 0.65846 0.38904 0.44597 0.0
N293 N 0.66414 0.39182 0.47956 0.0
C294 C 0.64734 0.37208 0.45589 0.0
C295 C 0.67266 0.40734 0.45311 0.0
C296 C 0.65039 0.37382 0.47285 0.0
C297 C 0.67525 0.40846 0.47011 0.0
C298 C 0.59502 0.36817 0.41264 0.0
C299 C 0.56608 0.34607 0.39611 0.0
N300 N 0.55407 0.34125 0.4096 0.0
C301 C 0.58232 0.36322 0.42629 0.0
C302 C 0.58678 0.35972 0.39738 0.0
C303 C 0.5617 0.34949 0.42453 0.0
C304 C 0.64045 0.43303 0.44581 0.0
N305 N 0.63402 0.41295 0.44487 0.0
C306 C 0.61748 0.40712 0.47082 0.0
C307 C 0.62277 0.40001 0.45701 0.0
C308 C 0.62363 0.42774 0.4721 0.0
C309 C 0.63542 0.4408 0.4594 0.0
H310 H 0.64919 0.44295 0.43588 0.0
H311 H 0.61776 0.3841 0.45591 0.0
C312 C 0.63405 0.33388 0.41206 0.0
N313 N 0.62307 0.34212 0.41781 0.0
C314 C 0.62812 0.31377 0.41546 0.0
C315 C 0.59973 0.31098 0.43075 0.0
C316 C 0.6062 0.33115 0.42702 0.0
C317 C 0.61084 0.30207 0.42505 0.0
H318 H 0.64762 0.34307 0.40501 0.0
H319 H 0.59813 0.3382 0.43194 0.0
C320 C 0.67019 0.43907 0.40318 0.0
N321 N 0.70338 0.47525 0.39392 0.0
C322 C 0.67202 0.44594 0.38703 0.0
C323 C 0.6851 0.45071 0.41466 0.0
C324 C 0.68894 0.46425 0.38258 0.0
C325 C 0.70181 0.46892 0.40973 0.0
C326 C 0.64505 0.36952 0.37915 0.0
C327 C 0.66047 0.37491 0.36762 0.0
C328 C 0.62634 0.35211 0.37664 0.0
C329 C 0.65676 0.36302 0.35362 0.0
C330 C 0.62323 0.3406 0.36249 0.0
N331 N 0.63837 0.34626 0.35136 0.0
C332 C 0.7056 0.41202 0.41591 0.0
C333 C 0.7011 0.42234 0.38958 0.0
C334 C 0.72586 0.4186 0.41244 0.0
N335 N 0.69369 0.41389 0.40448 0.0
C336 C 0.72126 0.4292 0.38562 0.0
C337 C 0.73387 0.42715 0.39705 0.0
H338 H 0.69925 0.40499 0.42758 0.0
H339 H 0.69118 0.42322 0.38058 0.0
C340 C 0.60957 0.40873 0.37947 0.0
N341 N 0.62268 0.40189 0.37682 0.0
C342 C 0.6018 0.41437 0.36627 0.0
C343 C 0.62096 0.40555 0.34784 0.0
C344 C 0.62846 0.40024 0.3614 0.0
C345 C 0.60759 0.41295 0.35016 0.0
H346 H 0.60546 0.41015 0.3919 0.0
H347 H 0.63922 0.39521 0.35957 0.0
O348 O 0.65549 0.38771 0.42937 0.0
O349 O 0.61523 0.38174 0.41416 0.0
O350 O 0.65385 0.42107 0.40772 0.0
O351 O 0.64849 0.38102 0.39294 0.0
H352 H 0.63637 0.35778 0.45057 0.0
H353 H 0.6815 0.42055 0.4456 0.0
H354 H 0.64179 0.36085 0.48069 0.0
H355 H 0.68609 0.42257 0.47581 0.0
H356 H 0.55954 0.33939 0.38437 0.0
H357 H 0.58833 0.36981 0.43815 0.0
H358 H 0.59617 0.3638 0.38657 0.0
H359 H 0.55175 0.34542 0.43503 0.0
H360 H 0.60866 0.39653 0.48039 0.0
H361 H 0.64027 0.45675 0.45974 0.0
H362 H 0.63704 0.3075 0.41069 0.0
H363 H 0.58656 0.30266 0.43846 0.0
H364 H 0.66059 0.43718 0.37799 0.0
H365 H 0.68383 0.44569 0.42723 0.0
H366 H 0.69062 0.4697 0.37011 0.0
H367 H 0.71353 0.47802 0.41847 0.0
H368 H 0.67512 0.38818 0.36942 0.0
H369 H 0.61444 0.34732 0.38562 0.0
H370 H 0.66853 0.36709 0.34456 0.0
H371 H 0.60881 0.3271 0.36041 0.0
H372 H 0.7351 0.41686 0.42164 0.0
H373 H 0.72671 0.43539 0.37352 0.0
H374 H 0.59182 0.42029 0.36872 0.0
H375 H 0.62568 0.40395 0.33568 0.0
Li376 Li 0.25376 0.63921 0.5967 0.0
Li377 Li 0.27845 0.63225 0.58472 0.0
Li378 Li 0.28117 0.6649 0.57852 0.0
Li379 Li 0.25452 0.63336 0.5669 0.0
C380 C 0.29315 0.6515 0.61331 0.0
N381 N 0.31316 0.6449 0.63871 0.0
C382 C 0.28227 0.63702 0.62534 0.0
C383 C 0.31423 0.6626 0.61423 0.0
C384 C 0.29265 0.63394 0.63809 0.0
C385 C 0.32406 0.65902 0.62714 0.0
C386 C 0.24587 0.5957 0.58913 0.0
C387 C 0.24778 0.56607 0.58196 0.0
N388 N 0.24072 0.55826 0.59711 0.0
C389 C 0.23852 0.58732 0.6046 0.0
C390 C 0.25042 0.58494 0.57768 0.0
C391 C 0.23606 0.56839 0.60841 0.0
C392 C 0.2169 0.62018 0.61354 0.0
N393 N 0.23636 0.63544 0.61468 0.0
C394 C 0.23072 0.64304 0.64194 0.0
C395 C 0.24334 0.64713 0.62836 0.0
C396 C 0.21072 0.62689 0.64135 0.0
C397 C 0.20376 0.6156 0.6268 0.0
H398 H 0.21178 0.61121 0.60246 0.0
H399 H 0.25885 0.65931 0.62886 0.0
C400 C 0.31229 0.62792 0.57917 0.0
N401 N 0.29558 0.62101 0.58878 0.0
C402 C 0.32679 0.62235 0.58243 0.0
C403 C 0.30651 0.60241 0.6053 0.0
C404 C 0.29243 0.60835 0.60159 0.0
C405 C 0.32412 0.60963 0.59579 0.0
H406 H 0.31465 0.63821 0.56921 0.0
H407 H 0.27936 0.60339 0.60934 0.0
C408 C 0.24656 0.66866 0.58374 0.0
N409 N 0.23617 0.69597 0.59592 0.0
C410 C 0.23011 0.66949 0.57717 0.0
C411 C 0.25772 0.68169 0.59652 0.0
C412 C 0.2251 0.68342 0.58348 0.0
C413 C 0.25222 0.69539 0.60251 0.0
C414 C 0.28539 0.64496 0.54702 0.0
C415 C 0.28841 0.661 0.53691 0.0
C416 C 0.28338 0.62734 0.54003 0.0
C417 C 0.28904 0.65902 0.51991 0.0
C418 C 0.28409 0.62594 0.52298 0.0
N419 N 0.28686 0.64167 0.51336 0.0
C420 C 0.31936 0.69928 0.57591 0.0
C421 C 0.29296 0.70463 0.56684 0.0
C422 C 0.33382 0.71894 0.57152 0.0
N423 N 0.29939 0.69259 0.57365 0.0
C424 C 0.30691 0.72442 0.56223 0.0
C425 C 0.32769 0.73179 0.56447 0.0
H426 H 0.32409 0.68915 0.58073 0.0
H427 H 0.27707 0.69875 0.56454 0.0
C428 C 0.2264 0.60292 0.54521 0.0
N429 N 0.23794 0.62311 0.54793 0.0
C430 C 0.21376 0.59579 0.5315 0.0
C431 C 0.22527 0.63037 0.52363 0.0
C432 C 0.23753 0.63681 0.53755 0.0
C433 C 0.21299 0.60959 0.5205 0.0
H434 H 0.22671 0.59235 0.55382 0.0
H435 H 0.24671 0.65278 0.54015 0.0
O436 O 0.28323 0.65455 0.60061 0.0
O437 O 0.24831 0.61418 0.58516 0.0
O438 O 0.2515 0.65497 0.57776 0.0
O439 O 0.28433 0.64644 0.56366 0.0
H440 H 0.26602 0.62789 0.62465 0.0
H441 H 0.32296 0.67379 0.60507 0.0
H442 H 0.28439 0.6227 0.6474 0.0
H443 H 0.34037 0.66747 0.62796 0.0
H444 H 0.25135 0.55764 0.57325 0.0
H445 H 0.23494 0.59541 0.61364 0.0
H446 H 0.25605 0.59116 0.56565 0.0
H447 H 0.23048 0.56178 0.62036 0.0
H448 H 0.23661 0.65231 0.65283 0.0
H449 H 0.18852 0.60291 0.62585 0.0
H450 H 0.34003 0.62812 0.57468 0.0
H451 H 0.30398 0.59287 0.61589 0.0
H452 H 0.22132 0.65947 0.56729 0.0
H453 H 0.27051 0.68127 0.60175 0.0
H454 H 0.21241 0.68424 0.57851 0.0
H455 H 0.26072 0.70557 0.61239 0.0
H456 H 0.28999 0.67474 0.54211 0.0
H457 H 0.28128 0.61489 0.5477 0.0
H458 H 0.29121 0.67126 0.51193 0.0
H459 H 0.28245 0.61236 0.5174 0.0
H460 H 0.34964 0.72397 0.57357 0.0
H461 H 0.30151 0.73362 0.5565 0.0
H462 H 0.20432 0.57965 0.52977 0.0
H463 H 0.22543 0.6416 0.51543 0.0
Li464 Li 0.66541 0.28149 0.74948 0.0
Li465 Li 0.63377 0.25642 0.76231 0.0
Li466 Li 0.63835 0.25591 0.7318 0.0
Li467 Li 0.63283 0.28171 0.74482 0.0
C468 C 0.66794 0.24621 0.74808 0.0
N469 N 0.69734 0.23553 0.74439 0.0
C470 C 0.67268 0.23743 0.76112 0.0
C471 C 0.67793 0.24925 0.73309 0.0
C472 C 0.68765 0.23223 0.75904 0.0
C473 C 0.6928 0.24383 0.73148 0.0
C474 C 0.64765 0.28905 0.78184 0.0
C475 C 0.63006 0.29131 0.80559 0.0
N476 N 0.6458 0.29418 0.81524 0.0
C477 C 0.66376 0.29227 0.79196 0.0
C478 C 0.63075 0.28878 0.78868 0.0
C479 C 0.6625 0.29473 0.80882 0.0
C480 C 0.70257 0.31723 0.7458 0.0
N481 N 0.69364 0.29859 0.75279 0.0
C482 C 0.72435 0.30639 0.76646 0.0
C483 C 0.70407 0.29296 0.76293 0.0
C484 C 0.73395 0.32585 0.75957 0.0
C485 C 0.72285 0.33113 0.74894 0.0
H486 H 0.69379 0.32148 0.73809 0.0
H487 H 0.69649 0.27831 0.76874 0.0
C488 C 0.60306 0.22724 0.78307 0.0
N489 N 0.62325 0.2401 0.78144 0.0
C490 C 0.59552 0.21478 0.79686 0.0
C491 C 0.62968 0.229 0.80698 0.0
C492 C 0.63654 0.24114 0.79301 0.0
C493 C 0.6089 0.21551 0.80902 0.0
H494 H 0.59282 0.22645 0.77359 0.0
H495 H 0.65255 0.25123 0.79126 0.0
C496 C 0.66174 0.29191 0.71344 0.0
N497 N 0.67726 0.30482 0.68231 0.0
C498 C 0.65169 0.29772 0.70229 0.0
C499 C 0.67994 0.29312 0.70885 0.0
C500 C 0.65969 0.30406 0.68658 0.0
C501 C 0.68747 0.29956 0.69304 0.0
C502 C 0.59529 0.24903 0.74222 0.0
C503 C 0.58499 0.24109 0.72748 0.0
C504 C 0.58607 0.25405 0.75471 0.0
C505 C 0.56575 0.23866 0.72538 0.0
C506 C 0.56682 0.25142 0.75214 0.0
N507 N 0.55715 0.24386 0.73764 0.0
C508 C 0.6328 0.22175 0.71369 0.0
C509 C 0.62567 0.24424 0.69905 0.0
C510 C 0.62729 0.20885 0.70014 0.0
N511 N 0.63204 0.23913 0.71286 0.0
C512 C 0.61993 0.23176 0.68525 0.0
C513 C 0.62063 0.21375 0.68571 0.0
H514 H 0.63732 0.21769 0.72497 0.0
H515 H 0.62447 0.25772 0.69888 0.0
C516 C 0.62903 0.31591 0.75098 0.0
N517 N 0.62219 0.29924 0.74133 0.0
C518 C 0.6229 0.33005 0.74801 0.0
C519 C 0.60262 0.30947 0.72537 0.0
C520 C 0.60925 0.29582 0.7287 0.0
C521 C 0.60963 0.32697 0.73499 0.0
H522 H 0.6396 0.31845 0.76076 0.0
H523 H 0.60452 0.2828 0.7209 0.0
O524 O 0.65342 0.25155 0.74996 0.0
O525 O 0.64853 0.28641 0.76532 0.0
O526 O 0.65415 0.28578 0.72892 0.0
O527 O 0.61422 0.25168 0.74444 0.0
H528 H 0.66495 0.23473 0.77275 0.0
H529 H 0.67405 0.25546 0.72275 0.0
H530 H 0.69156 0.22554 0.76906 0.0
H531 H 0.70066 0.24614 0.71995 0.0
H532 H 0.61703 0.29105 0.81105 0.0
H533 H 0.67701 0.29265 0.78688 0.0
H534 H 0.61835 0.28676 0.781 0.0
H535 H 0.67479 0.29706 0.81681 0.0
H536 H 0.73237 0.30166 0.77466 0.0
H537 H 0.72953 0.34607 0.74359 0.0
H538 H 0.57938 0.20471 0.79798 0.0
H539 H 0.64059 0.22982 0.81588 0.0
H540 H 0.63774 0.29716 0.70566 0.0
H541 H 0.68832 0.28937 0.71745 0.0
H542 H 0.65195 0.30841 0.67779 0.0
H543 H 0.7015 0.30049 0.68933 0.0
H544 H 0.59176 0.23687 0.71775 0.0
H545 H 0.59368 0.25992 0.76627 0.0
H546 H 0.55765 0.23263 0.714 0.0
H547 H 0.55956 0.25536 0.76169 0.0
H548 H 0.62769 0.19492 0.70112 0.0
H549 H 0.61492 0.23614 0.67438 0.0
H550 H 0.62859 0.3433 0.75576 0.0
H551 H 0.59267 0.3067 0.71503 0.0
Li552 Li 0.39675 0.63462 0.92596 0.0
Li553 Li 0.4034 0.66645 0.91307 0.0
Li554 Li 0.3705 0.63415 0.90784 0.0
Li555 Li 0.40206 0.64 0.89552 0.0
C556 C 0.37377 0.64805 0.94401 0.0
N557 N 0.35798 0.64586 0.97496 0.0
C558 C 0.38365 0.66412 0.95501 0.0
C559 C 0.35561 0.63104 0.94866 0.0
C560 C 0.37551 0.66268 0.97063 0.0
C561 C 0.34794 0.63017 0.96439 0.0
C562 C 0.44051 0.66995 0.91638 0.0
C563 C 0.47026 0.70017 0.90712 0.0
N564 N 0.47913 0.70169 0.92192 0.0
C565 C 0.45001 0.67169 0.93143 0.0
C566 C 0.45078 0.68418 0.90406 0.0
C567 C 0.46951 0.68789 0.93402 0.0
C568 C 0.40191 0.60566 0.94388 0.0
N569 N 0.40234 0.62363 0.94497 0.0
C570 C 0.41325 0.62747 0.97289 0.0
C571 C 0.40792 0.63457 0.95908 0.0
C572 C 0.41298 0.60897 0.97215 0.0
C573 C 0.40705 0.59793 0.95742 0.0
H574 H 0.39794 0.59749 0.93239 0.0
H575 H 0.40888 0.64913 0.95949 0.0
C576 C 0.40764 0.70471 0.90753 0.0
N577 N 0.41447 0.69464 0.91687 0.0
C578 C 0.41368 0.72487 0.91093 0.0
C579 C 0.43392 0.72399 0.93334 0.0
C580 C 0.42742 0.70385 0.92955 0.0
C581 C 0.4268 0.73471 0.92413 0.0
H582 H 0.39696 0.6969 0.89776 0.0
H583 H 0.43219 0.69539 0.9371 0.0
C584 C 0.36648 0.59594 0.90937 0.0
N585 N 0.33568 0.55639 0.9129 0.0
C586 C 0.36069 0.58258 0.89611 0.0
C587 C 0.35681 0.58907 0.92449 0.0
C588 C 0.34502 0.56268 0.89812 0.0
C589 C 0.34123 0.56905 0.92602 0.0
C590 C 0.39037 0.66061 0.87594 0.0
C591 C 0.37499 0.64866 0.8649 0.0
C592 C 0.40797 0.67745 0.8702 0.0
C593 C 0.37767 0.6535 0.84821 0.0
C594 C 0.41008 0.6818 0.85343 0.0
N595 N 0.39502 0.66981 0.84287 0.0
C596 C 0.33302 0.63227 0.91184 0.0
C597 C 0.33272 0.60903 0.89243 0.0
C598 C 0.31287 0.62615 0.90836 0.0
N599 N 0.34246 0.62364 0.90393 0.0
C600 C 0.31262 0.60258 0.88844 0.0
C601 C 0.3025 0.61128 0.89638 0.0
H602 H 0.34129 0.64428 0.92058 0.0
H603 H 0.34072 0.60284 0.88596 0.0
C604 C 0.4326 0.64052 0.87503 0.0
N605 N 0.41252 0.63387 0.87653 0.0
C606 C 0.43989 0.63506 0.86138 0.0
C607 C 0.40571 0.61604 0.85111 0.0
C608 C 0.39911 0.62188 0.86492 0.0
C609 C 0.42633 0.62251 0.84925 0.0
H610 H 0.44291 0.6497 0.88458 0.0
H611 H 0.3832 0.61665 0.86648 0.0
O612 O 0.3815 0.64929 0.92862 0.0
O613 O 0.42135 0.65428 0.91367 0.0
O614 O 0.38172 0.61553 0.90759 0.0
O615 O 0.38812 0.65598 0.89231 0.0
H616 H 0.39757 0.6775 0.95158 0.0
H617 H 0.34735 0.61875 0.94017 0.0
H618 H 0.38312 0.67494 0.9793 0.0
H619 H 0.33393 0.61707 0.96814 0.0
H620 H 0.47833 0.71134 0.89772 0.0
H621 H 0.44242 0.66071 0.94103 0.0
H622 H 0.44382 0.68287 0.89226 0.0
H623 H 0.47699 0.68948 0.94565 0.0
H624 H 0.41766 0.63645 0.98399 0.0
H625 H 0.40698 0.58378 0.95621 0.0
H626 H 0.40753 0.7324 0.90367 0.0
H627 H 0.44418 0.73099 0.94354 0.0
H628 H 0.36815 0.58752 0.88437 0.0
H629 H 0.36146 0.59899 0.93499 0.0
H630 H 0.34031 0.55222 0.88793 0.0
H631 H 0.33361 0.56357 0.93766 0.0
H632 H 0.36121 0.63568 0.86913 0.0
H633 H 0.41982 0.68714 0.87861 0.0
H634 H 0.36595 0.64427 0.83952 0.0
H635 H 0.42366 0.69474 0.84882 0.0
H636 H 0.30572 0.63348 0.91455 0.0
H637 H 0.30514 0.59105 0.87916 0.0
H638 H 0.45587 0.64016 0.86056 0.0
H639 H 0.39475 0.60653 0.84199 0.0
Li640 Li 0.75676 0.40355 0.08502 0.0
Li641 Li 0.78182 0.39664 0.09644 0.0
Li642 Li 0.78083 0.40298 0.06684 0.0
Li643 Li 0.75473 0.37112 0.07824 0.0
C644 C 0.7893 0.44037 0.08898 0.0
N645 N 0.79426 0.47789 0.09634 0.0
C646 C 0.79744 0.44946 0.1041 0.0
C647 C 0.7839 0.45047 0.07755 0.0
C648 C 0.79978 0.46842 0.1076 0.0
C649 C 0.78645 0.46939 0.08152 0.0
C650 C 0.74385 0.38308 0.11447 0.0
C651 C 0.71538 0.37144 0.13279 0.0
N652 N 0.72669 0.38721 0.14301 0.0
C653 C 0.75518 0.39913 0.12517 0.0
C654 C 0.72379 0.36908 0.11832 0.0
C655 C 0.74625 0.40097 0.13952 0.0
C656 C 0.72281 0.40795 0.08011 0.0
N657 N 0.73956 0.41454 0.08962 0.0
C658 C 0.72927 0.43351 0.10635 0.0
C659 C 0.74302 0.42717 0.10251 0.0
C660 C 0.71169 0.42673 0.09689 0.0
C661 C 0.70865 0.41392 0.0835 0.0
H662 H 0.72024 0.39771 0.07005 0.0
H663 H 0.75621 0.43203 0.1101 0.0
C664 C 0.81864 0.41593 0.11324 0.0
N665 N 0.7993 0.40044 0.11438 0.0
C666 C 0.83187 0.42063 0.12646 0.0
C667 C 0.80521 0.39287 0.14157 0.0
C668 C 0.79251 0.38866 0.12802 0.0
C669 C 0.8251 0.40924 0.14097 0.0
H670 H 0.8236 0.42498 0.1022 0.0
H671 H 0.7771 0.37628 0.12853 0.0
C672 C 0.74965 0.39127 0.04716 0.0
N673 N 0.74765 0.39494 0.01359 0.0
C674 C 0.74744 0.37574 0.03679 0.0
C675 C 0.75056 0.40855 0.04049 0.0
C676 C 0.74654 0.37791 0.01984 0.0
C677 C 0.7496 0.41016 0.02348 0.0
C678 C 0.78925 0.36758 0.08306 0.0
C679 C 0.80551 0.36659 0.07625 0.0
C680 C 0.77811 0.35447 0.0958 0.0
C681 C 0.81037 0.35245 0.08232 0.0
C682 C 0.78346 0.34055 0.10154 0.0
N683 N 0.79934 0.33984 0.09473 0.0
C684 C 0.80841 0.43391 0.04512 0.0
C685 C 0.79801 0.4002 0.03742 0.0
C686 C 0.82103 0.44129 0.0314 0.0
N687 N 0.79725 0.41369 0.04783 0.0
C688 C 0.81026 0.40688 0.02351 0.0
C689 C 0.82216 0.42771 0.0204 0.0
H690 H 0.80786 0.44434 0.05375 0.0
H691 H 0.78915 0.3842 0.04002 0.0
C692 C 0.71705 0.33562 0.0772 0.0
N693 N 0.73688 0.34339 0.07341 0.0
C694 C 0.70296 0.31572 0.07302 0.0
C695 C 0.72995 0.31231 0.06086 0.0
C696 C 0.74352 0.33225 0.06533 0.0
C697 C 0.70934 0.30382 0.06465 0.0
H698 H 0.7121 0.34506 0.0831 0.0
H699 H 0.75928 0.33895 0.06204 0.0
O700 O 0.78687 0.4218 0.08534 0.0
O701 O 0.75232 0.38103 0.10032 0.0
O702 O 0.75095 0.38959 0.06377 0.0
O703 O 0.78443 0.38144 0.07726 0.0
H704 H 0.80177 0.44193 0.1131 0.0
H705 H 0.77767 0.4437 0.06579 0.0
H706 H 0.80596 0.47558 0.11928 0.0
H707 H 0.78221 0.47731 0.07282 0.0
H708 H 0.69987 0.36072 0.13592 0.0
H709 H 0.77064 0.41024 0.12231 0.0
H710 H 0.71479 0.3565 0.11027 0.0
H711 H 0.75485 0.4134 0.14785 0.0
H712 H 0.73211 0.44312 0.11694 0.0
H713 H 0.69541 0.40849 0.07577 0.0
H714 H 0.847 0.43349 0.12551 0.0
H715 H 0.79948 0.38351 0.15242 0.0
H716 H 0.7467 0.36225 0.04174 0.0
H717 H 0.75195 0.42058 0.04835 0.0
H718 H 0.745 0.36607 0.01166 0.0
H719 H 0.75038 0.42349 0.01813 0.0
H720 H 0.81427 0.37666 0.06638 0.0
H721 H 0.76545 0.35498 0.1012 0.0
H722 H 0.82292 0.3515 0.07717 0.0
H723 H 0.77497 0.33032 0.11139 0.0
H724 H 0.83017 0.45747 0.02969 0.0
H725 H 0.8104 0.39581 0.01529 0.0
H726 H 0.68717 0.30993 0.07589 0.0
H727 H 0.73552 0.30364 0.05447 0.0
Li728 Li 0.40246 0.78111 0.26238 0.0
Li729 Li 0.37067 0.75593 0.24942 0.0
Li730 Li 0.40305 0.75545 0.24447 0.0
Li731 Li 0.39737 0.78124 0.23176 0.0
C732 C 0.38879 0.74578 0.28092 0.0
N733 N 0.39089 0.73474 0.31283 0.0
C734 C 0.37232 0.73958 0.29148 0.0
C735 C 0.40618 0.74599 0.2865 0.0
C736 C 0.37371 0.73416 0.30759 0.0
C737 C 0.40699 0.74046 0.3027 0.0
C738 C 0.36777 0.79055 0.25153 0.0
C739 C 0.34003 0.79308 0.24003 0.0
N740 N 0.33731 0.79981 0.25473 0.0
C741 C 0.36485 0.79773 0.26646 0.0
C742 C 0.35541 0.78841 0.23816 0.0
C743 C 0.34931 0.80224 0.26785 0.0
C744 C 0.4321 0.81448 0.28045 0.0
N745 N 0.41352 0.79766 0.28135 0.0
C746 C 0.40973 0.80524 0.30914 0.0
C747 C 0.40225 0.79298 0.29527 0.0
C748 C 0.4289 0.82269 0.3086 0.0
C749 C 0.44014 0.82726 0.29401 0.0
H750 H 0.44059 0.81811 0.26914 0.0
H751 H 0.38721 0.78001 0.29549 0.0
C752 C 0.33306 0.72112 0.24436 0.0
N753 N 0.34247 0.73874 0.25291 0.0
C754 C 0.31285 0.70698 0.24751 0.0
C755 C 0.31235 0.72943 0.26814 0.0
C756 C 0.33257 0.7431 0.26462 0.0
C757 C 0.30227 0.71095 0.25968 0.0
H758 H 0.34143 0.71778 0.23542 0.0
H759 H 0.34053 0.75686 0.27165 0.0
C760 C 0.44113 0.78924 0.24393 0.0
N761 N 0.48055 0.79705 0.24346 0.0
C762 C 0.45251 0.79591 0.22952 0.0
C763 C 0.44992 0.78689 0.25818 0.0
C764 C 0.47238 0.79967 0.2295 0.0
C765 C 0.46983 0.79083 0.25768 0.0
C766 C 0.37497 0.74724 0.21286 0.0
C767 C 0.38504 0.74166 0.20154 0.0
C768 C 0.35793 0.74815 0.20793 0.0
C769 C 0.37817 0.73755 0.18535 0.0
C770 C 0.35152 0.74391 0.19163 0.0
N771 N 0.3617 0.73878 0.18076 0.0
C772 C 0.40577 0.72046 0.24956 0.0
C773 C 0.42705 0.74186 0.22846 0.0
C774 C 0.41157 0.70618 0.24612 0.0
N775 N 0.41352 0.73786 0.24074 0.0
C776 C 0.4333 0.72802 0.22462 0.0
C777 C 0.42534 0.70976 0.23337 0.0
H778 H 0.39458 0.71738 0.25893 0.0
H779 H 0.43249 0.75547 0.22127 0.0
C780 C 0.40016 0.81378 0.21284 0.0
N781 N 0.40348 0.79788 0.21282 0.0
C782 C 0.40552 0.82658 0.19924 0.0
C783 C 0.41768 0.80645 0.1859 0.0
C784 C 0.41212 0.79409 0.19975 0.0
C785 C 0.41454 0.82306 0.18555 0.0
H786 H 0.39375 0.81679 0.22355 0.0
H787 H 0.41508 0.78167 0.2002 0.0
O788 O 0.38768 0.75116 0.2651 0.0
O789 O 0.38288 0.786 0.24997 0.0
O790 O 0.4216 0.78537 0.24414 0.0
O791 O 0.38152 0.75136 0.22876 0.0
H792 H 0.35866 0.73912 0.28732 0.0
H793 H 0.41884 0.75016 0.27838 0.0
H794 H 0.36114 0.7295 0.31593 0.0
H795 H 0.42039 0.74062 0.30719 0.0
H796 H 0.33032 0.79142 0.22979 0.0
H797 H 0.3744 0.79969 0.27689 0.0
H798 H 0.35777 0.78336 0.22641 0.0
H799 H 0.34679 0.80768 0.27937 0.0
H800 H 0.40037 0.80141 0.32001 0.0
H801 H 0.455 0.84056 0.2931 0.0
H802 H 0.30585 0.69279 0.24089 0.0
H803 H 0.30478 0.7332 0.27755 0.0
H804 H 0.44604 0.79803 0.21842 0.0
H805 H 0.44153 0.78228 0.26953 0.0
H806 H 0.48131 0.80469 0.2184 0.0
H807 H 0.4768 0.789 0.26861 0.0
H808 H 0.39812 0.74067 0.20518 0.0
H809 H 0.34963 0.75188 0.21662 0.0
H810 H 0.38592 0.73338 0.17643 0.0
H811 H 0.33839 0.74462 0.18764 0.0
H812 H 0.40475 0.69217 0.25298 0.0
H813 H 0.44404 0.73148 0.21476 0.0
H814 H 0.40315 0.83941 0.19963 0.0
H815 H 0.42444 0.80306 0.1756 0.0
H816 H 0.11619 0.56825 0.27942 0.0
H817 H 0.15053 0.5916 0.26976 0.0
H818 H 0.16866 0.61332 0.31917 0.0
H819 H 0.13454 0.58978 0.32897 0.0
H820 H 0.17105 0.63443 0.27323 0.0
H821 H 0.21264 0.60094 0.30335 0.0
H822 H 0.18555 0.58716 0.30062 0.0
H823 H 0.19668 0.60534 0.31689 0.0
C824 C 0.12759 0.57775 0.28827 0.0
C825 C 0.12268 0.57717 0.30496 0.0
C826 C 0.14714 0.59114 0.28271 0.0
C827 C 0.16214 0.604 0.29378 0.0
C828 C 0.15736 0.60329 0.31048 0.0
H829 H 0.28555 0.70073 0.29033 0.0
H830 H 0.25122 0.67489 0.29767 0.0
C831 C 0.13782 0.58998 0.31602 0.0
C832 C 0.18255 0.61892 0.28782 0.0
H833 H 0.23251 0.63377 0.29189 0.0
C834 C 0.1845 0.63422 0.27716 0.0
C835 C 0.20001 0.61857 0.29304 0.0
C836 C 0.19869 0.60203 0.30399 0.0
C837 C 0.20357 0.64962 0.27199 0.0
C838 C 0.22107 0.64942 0.27738 0.0
C839 C 0.21906 0.63391 0.28782 0.0
C840 C 0.24166 0.66543 0.27267 0.0
C841 C 0.20484 0.66632 0.26127 0.0
C842 C 0.24769 0.66864 0.25617 0.0
C843 C 0.26726 0.68359 0.2519 0.0
C844 C 0.28122 0.6955 0.26408 0.0
C845 C 0.2751 0.69213 0.28061 0.0
C846 C 0.25553 0.67724 0.28485 0.0
H847 H 0.19066 0.667 0.26165 0.0
H848 H 0.21759 0.68122 0.26508 0.0
H849 H 0.20745 0.66355 0.24838 0.0
H850 H 0.23733 0.65945 0.2466 0.0
H851 H 0.27144 0.68586 0.23905 0.0
H852 H 0.5273 0.1152 0.46657 0.0
H853 H 0.53826 0.1495 0.45711 0.0
H854 H 0.60051 0.16532 0.46332 0.0
H855 H 0.58965 0.13097 0.47287 0.0
H856 H 0.56123 0.18539 0.47423 0.0
H857 H 0.59958 0.18454 0.41659 0.0
H858 H 0.58265 0.16176 0.42762 0.0
H859 H 0.60814 0.17759 0.43466 0.0
C860 C 0.54333 0.12598 0.46598 0.0
C861 C 0.55761 0.12038 0.4705 0.0
C862 C 0.54956 0.14554 0.46049 0.0
C863 C 0.57019 0.15986 0.45932 0.0
C864 C 0.58452 0.15436 0.4638 0.0
H865 H 0.63547 0.28724 0.43403 0.0
H866 H 0.62555 0.25271 0.4422 0.0
C867 C 0.57829 0.13475 0.46927 0.0
C868 C 0.57657 0.18075 0.454 0.0
H869 H 0.60305 0.21598 0.42453 0.0
C870 C 0.57031 0.19207 0.46333 0.0
C871 C 0.58846 0.1894 0.4398 0.0
C872 C 0.59498 0.17767 0.42898 0.0
C873 C 0.5758 0.21192 0.45896 0.0
C874 C 0.58759 0.22053 0.44472 0.0
C875 C 0.59398 0.20928 0.43543 0.0
C876 C 0.5935 0.24126 0.4393 0.0
C877 C 0.56925 0.22364 0.46978 0.0
C878 C 0.57876 0.24613 0.43469 0.0
C879 C 0.58437 0.26582 0.42993 0.0
C880 C 0.60485 0.28097 0.42959 0.0
C881 C 0.61959 0.2759 0.43395 0.0
C882 C 0.61395 0.25621 0.4387 0.0
H883 H 0.56466 0.21678 0.48217 0.0
H884 H 0.58157 0.23956 0.47113 0.0
H885 H 0.55609 0.2237 0.46409 0.0
H886 H 0.5629 0.23468 0.43476 0.0
H887 H 0.57268 0.26914 0.42639 0.0
H888 H 0.42961 0.53246 0.64408 0.0
H889 H 0.40614 0.54382 0.63598 0.0
H890 H 0.45631 0.60288 0.62477 0.0
H891 H 0.47998 0.59142 0.63235 0.0
H892 H 0.40174 0.5753 0.64852 0.0
H893 H 0.4228 0.58727 0.5825 0.0
H894 H 0.43019 0.57338 0.596 0.0
H895 H 0.44341 0.60052 0.59657 0.0
C896 C 0.43568 0.54781 0.63972 0.0
C897 C 0.45667 0.56097 0.63868 0.0
C898 C 0.42224 0.55431 0.63521 0.0
C899 C 0.42949 0.57407 0.62953 0.0
C900 C 0.45042 0.58744 0.62884 0.0
H901 H 0.36518 0.63463 0.59553 0.0
H902 H 0.39111 0.62657 0.60383 0.0
C903 C 0.46391 0.58094 0.63334 0.0
C904 C 0.415 0.58057 0.62443 0.0
H905 H 0.39891 0.59625 0.59142 0.0
C906 C 0.40112 0.5799 0.63605 0.0
C907 C 0.41427 0.58658 0.60814 0.0
C908 C 0.42833 0.58685 0.59501 0.0
C909 C 0.38652 0.58511 0.63181 0.0
C910 C 0.38559 0.59083 0.61548 0.0
C911 C 0.39967 0.59182 0.60392 0.0
C912 C 0.36988 0.5955 0.61009 0.0
C913 C 0.37231 0.58464 0.64489 0.0
C914 C 0.3494 0.58056 0.61055 0.0
C915 C 0.33455 0.58505 0.6057 0.0
C916 C 0.33993 0.60457 0.60023 0.0
C917 C 0.36052 0.61939 0.59949 0.0
C918 C 0.37536 0.61486 0.60432 0.0
H919 H 0.3782 0.58499 0.65742 0.0
H920 H 0.36968 0.59761 0.64354 0.0
H921 H 0.35755 0.5705 0.64367 0.0
H922 H 0.3449 0.5654 0.61464 0.0
H923 H 0.31886 0.57321 0.60616 0.0
H924 H 0.92008 0.46727 0.77991 0.0
H925 H 0.88576 0.44377 0.77038 0.0
H926 H 0.86817 0.42159 0.81976 0.0
H927 H 0.90223 0.4454 0.82946 0.0
H928 H 0.86532 0.40155 0.77284 0.0
H929 H 0.82384 0.43348 0.80538 0.0
H930 H 0.85094 0.44732 0.8028 0.0
H931 H 0.83962 0.42838 0.81853 0.0
C932 C 0.90881 0.45764 0.78878 0.0
C933 C 0.91386 0.45824 0.80545 0.0
C934 C 0.88926 0.44414 0.7833 0.0
C935 C 0.87438 0.43113 0.79439 0.0
C936 C 0.87934 0.43174 0.81104 0.0
H937 H 0.75139 0.33311 0.78993 0.0
H938 H 0.78583 0.35855 0.79755 0.0
C939 C 0.89887 0.44521 0.81653 0.0
C940 C 0.8539 0.41628 0.78849 0.0
H941 H 0.80391 0.4009 0.79344 0.0
C942 C 0.85189 0.40149 0.77721 0.0
C943 C 0.83644 0.41626 0.79425 0.0
C944 C 0.83776 0.43232 0.80579 0.0
C945 C 0.83279 0.3863 0.7719 0.0
C946 C 0.81532 0.38612 0.77785 0.0
C947 C 0.81735 0.40106 0.78895 0.0
C948 C 0.79474 0.37034 0.77296 0.0
C949 C 0.83142 0.37022 0.76035 0.0
C950 C 0.78834 0.36859 0.7566 0.0
C951 C 0.76869 0.35398 0.75218 0.0
C952 C 0.75508 0.3409 0.76406 0.0
C953 C 0.76159 0.34271 0.78043 0.0
C954 C 0.78121 0.35733 0.78483 0.0
H955 H 0.84577 0.36986 0.7599 0.0
H956 H 0.81902 0.35506 0.76405 0.0
H957 H 0.82811 0.37338 0.74779 0.0
H958 H 0.79848 0.3787 0.74729 0.0
H959 H 0.76416 0.35291 0.73946 0.0
H960 H 0.47414 0.90223 0.99414 0.0
H961 H 0.4637 0.86824 0.98399 0.0
H962 H 0.46212 0.88757 0.93458 0.0
H963 H 0.47289 0.92172 0.9446 0.0
H964 H 0.42804 0.84139 0.96475 0.0
H965 H 0.5004 0.86331 0.93262 0.0
H966 H 0.49824 0.879 0.94813 0.0
H967 H 0.48858 0.87797 0.92787 0.0
C968 C 0.47163 0.89926 0.98111 0.0
C969 C 0.47445 0.91468 0.97015 0.0
C970 C 0.46558 0.87983 0.97535 0.0
C971 C 0.46241 0.87552 0.95853 0.0
C972 C 0.46475 0.89071 0.94759 0.0
H973 H 0.43554 0.76672 0.9038 0.0
H974 H 0.44307 0.80072 0.91166 0.0
C975 C 0.47072 0.91014 0.95335 0.0
C976 C 0.45683 0.85512 0.95249 0.0
H977 H 0.47448 0.82934 0.93023 0.0
C978 C 0.43815 0.83871 0.95718 0.0
C979 C 0.47005 0.85178 0.94257 0.0
C980 C 0.49052 0.86888 0.93755 0.0
C981 C 0.43228 0.81896 0.95216 0.0
C982 C 0.4457 0.81553 0.94252 0.0
C983 C 0.46425 0.83201 0.93763 0.0
C984 C 0.44099 0.7949 0.93777 0.0
C985 C 0.41167 0.802 0.95704 0.0
C986 C 0.43766 0.78048 0.94985 0.0
C987 C 0.43319 0.76103 0.94541 0.0
C988 C 0.43219 0.75564 0.92878 0.0
C989 C 0.43591 0.77027 0.91671 0.0
C990 C 0.44033 0.78973 0.92117 0.0
H991 H 0.40121 0.80769 0.96 0.0
H992 H 0.40486 0.79055 0.94713 0.0
H993 H 0.41314 0.79445 0.96816 0.0
H994 H 0.43853 0.78428 0.96274 0.0
H995 H 0.4302 0.75012 0.95504 0.0
H996 H 0.60894 0.50717 0.14627 0.0
H997 H 0.63233 0.49582 0.13787 0.0
H998 H 0.58203 0.43743 0.12521 0.0
H999 H 0.55847 0.4489 0.13305 0.0
H1000 H 0.63622 0.46381 0.14964 0.0
H1001 H 0.61625 0.454 0.08342 0.0
H1002 H 0.60874 0.46755 0.0972 0.0
H1003 H 0.59527 0.4404 0.09709 0.0
C1004 C 0.60283 0.49198 0.14153 0.0
C1005 C 0.58183 0.47901 0.14017 0.0
C1006 C 0.61622 0.48548 0.13684 0.0
C1007 C 0.60892 0.46591 0.13067 0.0
C1008 C 0.58798 0.45273 0.12965 0.0
H1009 H 0.67047 0.40286 0.09649 0.0
H1010 H 0.64533 0.41206 0.10472 0.0
C1011 C 0.57454 0.45923 0.13432 0.0
C1012 C 0.62331 0.45934 0.12546 0.0
H1013 H 0.63913 0.4436 0.0923 0.0
C1014 C 0.63688 0.45941 0.1371 0.0
C1015 C 0.62411 0.45359 0.10909 0.0
C1016 C 0.61045 0.45401 0.09592 0.0
C1017 C 0.65116 0.45377 0.13285 0.0
C1018 C 0.65207 0.4482 0.11646 0.0
C1019 C 0.63837 0.44789 0.10485 0.0
C1020 C 0.66731 0.44286 0.1111 0.0
C1021 C 0.665 0.45357 0.14595 0.0
C1022 C 0.68796 0.45727 0.11165 0.0
C1023 C 0.70236 0.45213 0.10684 0.0
C1024 C 0.69636 0.43248 0.10132 0.0
C1025 C 0.67561 0.41819 0.10049 0.0
C1026 C 0.66122 0.42337 0.10528 0.0
H1027 H 0.65917 0.45338 0.15848 0.0
H1028 H 0.66702 0.44023 0.14456 0.0
H1029 H 0.68006 0.46737 0.14479 0.0
H1030 H 0.69294 0.47253 0.11578 0.0
H1031 H 0.71819 0.46359 0.10736 0.0
H1032 H 0.45359 0.92039 0.5461 0.0
H1033 H 0.43039 0.88521 0.55367 0.0
H1034 H 0.43485 0.86612 0.50482 0.0
H1035 H 0.45785 0.90138 0.49704 0.0
H1036 H 0.3945 0.85024 0.5169 0.0
H1037 H 0.44368 0.83944 0.56102 0.0
H1038 H 0.44163 0.86155 0.5646 0.0
H1039 H 0.45349 0.8597 0.54617 0.0
C1040 C 0.44965 0.9087 0.53697 0.0
C1041 C 0.45753 0.91364 0.52097 0.0
C1042 C 0.43654 0.88861 0.54135 0.0
C1043 C 0.43111 0.87309 0.52985 0.0
C1044 C 0.439 0.87791 0.51389 0.0
H1045 H 0.36411 0.74398 0.54951 0.0
H1046 H 0.38916 0.77807 0.54074 0.0
C1047 C 0.45221 0.89802 0.50951 0.0
C1048 C 0.41648 0.85193 0.53431 0.0
H1049 H 0.40902 0.81389 0.56045 0.0
C1050 C 0.39769 0.84222 0.52635 0.0
C1051 C 0.4208 0.84151 0.54655 0.0
C1052 C 0.44105 0.85097 0.55501 0.0
C1053 C 0.38287 0.82248 0.53059 0.0
C1054 C 0.38693 0.81231 0.54321 0.0
C1055 C 0.40591 0.82183 0.55089 0.0
C1056 C 0.37169 0.79174 0.54858 0.0
C1057 C 0.36302 0.81259 0.52147 0.0
C1058 C 0.35369 0.78822 0.55607 0.0
C1059 C 0.3394 0.76878 0.56125 0.0
C1060 C 0.3429 0.75252 0.55907 0.0
C1061 C 0.36104 0.75618 0.55161 0.0
C1062 C 0.37533 0.77563 0.54649 0.0
H1063 H 0.36402 0.82048 0.50976 0.0
H1064 H 0.35803 0.79652 0.51877 0.0
H1065 H 0.3513 0.81301 0.52922 0.0
H1066 H 0.35078 0.80055 0.55805 0.0
H1067 H 0.32575 0.76657 0.56717 0.0
H1068 H 0.59087 0.47836 0.6879 0.0
H1069 H 0.60109 0.45453 0.69785 0.0
H1070 H 0.53881 0.4069 0.69823 0.0
H1071 H 0.52839 0.43059 0.68863 0.0
H1072 H 0.58725 0.42931 0.72746 0.0
H1073 H 0.56896 0.38485 0.66973 0.0
H1074 H 0.57234 0.40998 0.67052 0.0
H1075 H 0.5492 0.38874 0.67762 0.0
C1076 C 0.57933 0.46286 0.69023 0.0
C1077 C 0.55882 0.45635 0.68733 0.0
C1078 C 0.58521 0.44926 0.69585 0.0
C1079 C 0.57071 0.42894 0.69853 0.0
C1080 C 0.55024 0.42246 0.69592 0.0
H1081 H 0.57216 0.32055 0.72681 0.0
H1082 H 0.56298 0.34581 0.71882 0.0
C1083 C 0.54434 0.43602 0.69037 0.0
C1084 C 0.57689 0.41442 0.70415 0.0
H1085 H 0.57739 0.3717 0.69278 0.0
C1086 C 0.58522 0.41676 0.71989 0.0
C1087 C 0.57413 0.39807 0.69422 0.0
C1088 C 0.56583 0.39526 0.67702 0.0
C1089 C 0.59044 0.40284 0.72612 0.0
C1090 C 0.58764 0.38644 0.71619 0.0
C1091 C 0.57945 0.38424 0.7004 0.0
C1092 C 0.59313 0.37137 0.72185 0.0
C1093 C 0.59837 0.40553 0.74344 0.0
C1094 C 0.61313 0.37736 0.72616 0.0
C1095 C 0.61839 0.36297 0.73078 0.0
C1096 C 0.60378 0.3423 0.73096 0.0
C1097 C 0.58376 0.33635 0.72667 0.0
C1098 C 0.57849 0.35076 0.72215 0.0
H1099 H 0.59428 0.41518 0.75082 0.0
H1100 H 0.59245 0.39073 0.74971 0.0
H1101 H 0.6151 0.41299 0.74311 0.0
H1102 H 0.62477 0.39312 0.7256 0.0
H1103 H 0.63401 0.36799 0.73373 0.0
H1104 H 0.11419 0.55549 0.88076 0.0
H1105 H 0.14909 0.56655 0.88863 0.0
H1106 H 0.16821 0.58408 0.83858 0.0
H1107 H 0.13334 0.57337 0.83071 0.0
H1108 H 0.17241 0.55177 0.87796 0.0
H1109 H 0.20941 0.63343 0.8631 0.0
H1110 H 0.18231 0.61751 0.86412 0.0
H1111 H 0.19588 0.61743 0.8461 0.0
C1112 C 0.12588 0.56186 0.87147 0.0
C1113 C 0.12109 0.56361 0.85513 0.0
C1114 C 0.1458 0.5682 0.87598 0.0
C1115 C 0.16131 0.57638 0.86425 0.0
C1116 C 0.15659 0.5783 0.84793 0.0
H1117 H 0.2868 0.60644 0.86552 0.0
H1118 H 0.25235 0.59765 0.85783 0.0
C1119 C 0.13667 0.57212 0.84343 0.0
C1120 C 0.18217 0.58179 0.86896 0.0
H1121 H 0.2312 0.62031 0.86906 0.0
C1122 C 0.18523 0.5668 0.87611 0.0
C1123 C 0.1989 0.6014 0.86653 0.0
C1124 C 0.19648 0.61842 0.85969 0.0
C1125 C 0.20459 0.57082 0.8807 0.0
C1126 C 0.22127 0.59033 0.87811 0.0
C1127 C 0.2183 0.60533 0.87095 0.0
C1128 C 0.24196 0.59544 0.88283 0.0
C1129 C 0.20717 0.55414 0.88807 0.0
C1130 C 0.24743 0.59715 0.89942 0.0
C1131 C 0.26707 0.60218 0.90385 0.0
C1132 C 0.28152 0.60548 0.89174 0.0
C1133 C 0.27592 0.6037 0.87512 0.0
C1134 C 0.25633 0.59883 0.87071 0.0
H1135 H 0.19332 0.53911 0.88678 0.0
H1136 H 0.21999 0.5536 0.88215 0.0
H1137 H 0.21069 0.55719 0.90132 0.0
H1138 H 0.23653 0.5947 0.90893 0.0
H1139 H 0.27093 0.60336 0.91675 0.0
H1140 H 0.55831 0.1289 0.02552 0.0
H1141 H 0.58181 0.16388 0.03361 0.0
H1142 H 0.63222 0.15591 0.02114 0.0
H1143 H 0.60891 0.12108 0.01286 0.0
H1144 H 0.63491 0.17284 0.05251 0.0
H1145 H 0.61749 0.21285 0.00387 0.0
H1146 H 0.59603 0.19394 0.015 0.0
H1147 H 0.61039 0.18655 0.00224 0.0
C1148 C 0.57439 0.13469 0.02427 0.0
C1149 C 0.58174 0.12219 0.01859 0.0
C1150 C 0.58778 0.15466 0.02891 0.0
C1151 C 0.60873 0.16249 0.02785 0.0
C1152 C 0.6161 0.15012 0.02206 0.0
H1153 H 0.70733 0.28566 0.03525 0.0
H1154 H 0.68276 0.25122 0.02673 0.0
C1155 C 0.60275 0.1302 0.01742 0.0
C1156 C 0.62307 0.18334 0.03332 0.0
H1157 H 0.63966 0.23302 0.02505 0.0
C1158 C 0.63596 0.18602 0.04653 0.0
C1159 C 0.62448 0.20045 0.02537 0.0
C1160 C 0.6115 0.19842 0.01074 0.0
C1161 C 0.65019 0.20539 0.05208 0.0
C1162 C 0.65137 0.22249 0.04431 0.0
C1163 C 0.63858 0.21984 0.03104 0.0
C1164 C 0.66614 0.24329 0.04958 0.0
C1165 C 0.66412 0.20742 0.06599 0.0
C1166 C 0.66481 0.25023 0.0652 0.0
C1167 C 0.67887 0.26986 0.07014 0.0
C1168 C 0.6945 0.2829 0.05951 0.0
C1169 C 0.69567 0.27589 0.04381 0.0
C1170 C 0.68157 0.25629 0.03888 0.0
H1171 H 0.66431 0.19316 0.06816 0.0
H1172 H 0.67979 0.2197 0.06346 0.0
H1173 H 0.65892 0.21131 0.07741 0.0
H1174 H 0.65286 0.24049 0.07356 0.0
H1175 H 0.67762 0.27477 0.08233 0.0
H1176 H 0.47186 0.58922 0.16316 0.0
H1177 H 0.46148 0.61279 0.17338 0.0
H1178 H 0.45859 0.59081 0.2226 0.0
H1179 H 0.46932 0.56742 0.21253 0.0
H1180 H 0.42567 0.60424 0.19208 0.0
H1181 H 0.49746 0.65311 0.22551 0.0
H1182 H 0.49535 0.63539 0.20989 0.0
H1183 H 0.48512 0.62652 0.22998 0.0
C1184 C 0.46906 0.58944 0.17617 0.0
C1185 C 0.47153 0.57657 0.18706 0.0
C1186 C 0.46304 0.60282 0.18196 0.0
C1187 C 0.45955 0.60369 0.19875 0.0
C1188 C 0.46148 0.59052 0.20962 0.0
H1189 H 0.43264 0.68547 0.25366 0.0
H1190 H 0.43986 0.6588 0.24573 0.0
C1191 C 0.46741 0.57706 0.20383 0.0
C1192 C 0.45413 0.6186 0.20485 0.0
H1193 H 0.47187 0.66166 0.22765 0.0
C1194 C 0.43573 0.61678 0.19988 0.0
C1195 C 0.46729 0.63487 0.21507 0.0
C1196 C 0.48749 0.63778 0.22037 0.0
C1197 C 0.43007 0.63083 0.20491 0.0
C1198 C 0.44342 0.64736 0.21484 0.0
C1199 C 0.46169 0.64898 0.22002 0.0
C1200 C 0.43896 0.66343 0.21963 0.0
C1201 C 0.40976 0.6277 0.19969 0.0
C1202 C 0.43641 0.67507 0.20758 0.0
C1203 C 0.43216 0.6902 0.21205 0.0
C1204 C 0.43056 0.69412 0.22869 0.0
C1205 C 0.4335 0.68265 0.24074 0.0
C1206 C 0.43772 0.66749 0.23624 0.0
H1207 H 0.39918 0.61169 0.19636 0.0
H1208 H 0.40279 0.63221 0.20956 0.0
H1209 H 0.41174 0.63712 0.18872 0.0
H1210 H 0.43772 0.67247 0.19469 0.0
H1211 H 0.42978 0.69858 0.20245 0.0
H1212 H 0.91528 0.50489 0.34393 0.0
H1213 H 0.88059 0.49375 0.35249 0.0
H1214 H 0.87438 0.43769 0.37007 0.0
H1215 H 0.90928 0.4489 0.36181 0.0
H1216 H 0.84401 0.45788 0.34284 0.0
H1217 H 0.85869 0.461 0.40994 0.0
H1218 H 0.87872 0.47349 0.39507 0.0
H1219 H 0.86681 0.44665 0.39789 0.0
C1220 C 0.90658 0.49024 0.34971 0.0
C1221 C 0.91506 0.47783 0.35233 0.0
C1222 C 0.88674 0.48386 0.3545 0.0
C1223 C 0.87507 0.46504 0.3621 0.0
C1224 C 0.88329 0.45241 0.36443 0.0
H1225 H 0.75379 0.40645 0.40323 0.0
H1226 H 0.78793 0.41533 0.39464 0.0
C1227 C 0.90313 0.45874 0.35957 0.0
C1228 C 0.85428 0.45874 0.36757 0.0
H1229 H 0.82494 0.4489 0.40171 0.0
C1230 C 0.8398 0.4559 0.3557 0.0
C1231 C 0.8489 0.45614 0.38435 0.0
C1232 C 0.86408 0.45961 0.39761 0.0
C1233 C 0.81996 0.45036 0.36017 0.0
C1234 C 0.81464 0.44808 0.37699 0.0
C1235 C 0.82908 0.45072 0.38884 0.0
C1236 C 0.79419 0.44307 0.38253 0.0
C1237 C 0.8048 0.44669 0.34683 0.0
C1238 C 0.78658 0.45596 0.37889 0.0
C1239 C 0.7671 0.45095 0.3838 0.0
C1240 C 0.75495 0.43305 0.3926 0.0
C1241 C 0.76284 0.42045 0.39661 0.0
C1242 C 0.78229 0.42543 0.39164 0.0
H1243 H 0.80959 0.44355 0.33484 0.0
H1244 H 0.78968 0.4338 0.34997 0.0
H1245 H 0.8034 0.46038 0.34537 0.0
H1246 H 0.79571 0.46991 0.37224 0.0
H1247 H 0.76157 0.46113 0.38076 0.0
H1248 H 0.09522 0.58061 0.39866 0.0
H1249 H 0.11843 0.59079 0.42198 0.0
H1250 H 0.11532 0.53291 0.42124 0.0
H1251 H 0.09156 0.52226 0.39827 0.0
H1252 H 0.1095 0.56664 0.45395 0.0
H1253 H 0.17789 0.57882 0.41986 0.0
H1254 H 0.15741 0.58012 0.40994 0.0
H1255 H 0.15433 0.55609 0.41569 0.0
C1256 C 0.09929 0.56994 0.40352 0.0
C1257 C 0.09147 0.55058 0.39657 0.0
C1258 C 0.11267 0.57586 0.41677 0.0
C1259 C 0.11865 0.56264 0.42319 0.0
C1260 C 0.11103 0.54339 0.41629 0.0
H1261 H 0.20356 0.57712 0.50048 0.0
H1262 H 0.17999 0.56493 0.47736 0.0
C1263 C 0.09753 0.53739 0.40311 0.0
C1264 C 0.13246 0.56883 0.43742 0.0
H1265 H 0.18083 0.58316 0.44855 0.0
C1266 C 0.12511 0.57028 0.45282 0.0
C1267 C 0.15269 0.57333 0.43584 0.0
C1268 C 0.16122 0.57216 0.41946 0.0
C1269 C 0.13749 0.57605 0.46679 0.0
C1270 C 0.15794 0.58107 0.46517 0.0
C1271 C 0.16519 0.57938 0.44976 0.0
C1272 C 0.17211 0.5884 0.47927 0.0
C1273 C 0.12842 0.57631 0.48317 0.0
C1274 C 0.17572 0.60578 0.48789 0.0
C1275 C 0.18893 0.61262 0.50124 0.0
C1276 C 0.1991 0.60239 0.50613 0.0
C1277 C 0.19575 0.58518 0.49725 0.0
C1278 C 0.1824 0.57827 0.48395 0.0
H1279 H 0.11174 0.56632 0.48316 0.0
H1280 H 0.13486 0.57143 0.4932 0.0
H1281 H 0.13172 0.59191 0.48584 0.0
H1282 H 0.16831 0.61412 0.48428 0.0
H1283 H 0.19095 0.62579 0.50786 0.0
H1284 H 0.53194 0.097 0.56294 0.0
H1285 H 0.54508 0.12077 0.58592 0.0
H1286 H 0.59699 0.11276 0.5888 0.0
H1287 H 0.58396 0.08897 0.56586 0.0
H1288 H 0.55348 0.11373 0.61758 0.0
H1289 H 0.62263 0.17417 0.58757 0.0
H1290 H 0.60227 0.15406 0.57615 0.0
H1291 H 0.62026 0.14959 0.58681 0.0
C1292 C 0.54613 0.10027 0.56849 0.0
C1293 C 0.55694 0.09115 0.56254 0.0
C1294 C 0.55366 0.11391 0.58156 0.0
C1295 C 0.57215 0.11876 0.5889 0.0
C1296 C 0.58293 0.10961 0.58306 0.0
H1297 H 0.63823 0.19321 0.6727 0.0
H1298 H 0.62637 0.16975 0.64941 0.0
C1299 C 0.57545 0.09601 0.56996 0.0
C1300 C 0.57976 0.13282 0.60304 0.0
H1301 H 0.61933 0.17767 0.61617 0.0
C1302 C 0.56783 0.12775 0.61725 0.0
C1303 C 0.59854 0.15106 0.60259 0.0
C1304 C 0.61161 0.15769 0.58742 0.0
C1305 C 0.57427 0.14034 0.63111 0.0
C1306 C 0.59299 0.15859 0.63063 0.0
C1307 C 0.605 0.16362 0.61647 0.0
C1308 C 0.6002 0.17283 0.64464 0.0
C1309 C 0.56113 0.13386 0.64624 0.0
C1310 C 0.58953 0.18248 0.64949 0.0
C1311 C 0.59622 0.19583 0.66276 0.0
C1312 C 0.61377 0.19982 0.67141 0.0
C1313 C 0.62454 0.19027 0.6664 0.0
C1314 C 0.61786 0.17696 0.65307 0.0
H1315 H 0.54984 0.11745 0.64604 0.0
H1316 H 0.57044 0.13727 0.65752 0.0
H1317 H 0.55282 0.1423 0.64689 0.0
H1318 H 0.57601 0.17969 0.64299 0.0
H1319 H 0.58748 0.20279 0.6664 0.0
H1320 H 0.46012 0.53023 0.73251 0.0
H1321 H 0.4489 0.54326 0.75514 0.0
H1322 H 0.4995 0.60301 0.74688 0.0
H1323 H 0.51042 0.59027 0.72386 0.0
H1324 H 0.46985 0.56192 0.78359 0.0
H1325 H 0.45196 0.61316 0.74831 0.0
H1326 H 0.45563 0.594 0.7386 0.0
H1327 H 0.47704 0.61746 0.74503 0.0
C1328 C 0.46868 0.54621 0.73532 0.0
C1329 C 0.48613 0.55922 0.72632 0.0
C1330 C 0.46232 0.5536 0.74833 0.0
C1331 C 0.47321 0.57415 0.75255 0.0
C1332 C 0.49066 0.58717 0.74364 0.0
H1333 H 0.46027 0.64477 0.8306 0.0
H1334 H 0.47219 0.63313 0.80738 0.0
C1335 C 0.49702 0.5798 0.73062 0.0
C1336 C 0.46668 0.58177 0.76664 0.0
H1337 H 0.45138 0.61526 0.77735 0.0
C1338 C 0.46574 0.57352 0.78222 0.0
C1339 C 0.4614 0.59697 0.76482 0.0
C1340 C 0.46136 0.60581 0.74827 0.0
C1341 C 0.45984 0.58021 0.79608 0.0
C1342 C 0.45448 0.59533 0.79424 0.0
C1343 C 0.45555 0.60369 0.7787 0.0
C1344 C 0.4473 0.60236 0.80828 0.0
C1345 C 0.4597 0.57125 0.81262 0.0
C1346 C 0.42926 0.58896 0.81632 0.0
C1347 C 0.42245 0.59553 0.82957 0.0
C1348 C 0.43353 0.61567 0.83502 0.0
C1349 C 0.45153 0.62911 0.82683 0.0
C1350 C 0.45829 0.62253 0.81352 0.0
H1351 H 0.46895 0.56375 0.81261 0.0
H1352 H 0.46549 0.58305 0.82231 0.0
H1353 H 0.44395 0.55975 0.81582 0.0
H1354 H 0.4204 0.5734 0.81231 0.0
H1355 H 0.40864 0.58474 0.8357 0.0
H1356 H 0.9411 0.45794 0.89957 0.0
H1357 H 0.91778 0.44791 0.9228 0.0
H1358 H 0.91921 0.50495 0.92053 0.0
H1359 H 0.94305 0.51546 0.89762 0.0
H1360 H 0.92605 0.47242 0.95412 0.0
H1361 H 0.85721 0.45842 0.91977 0.0
H1362 H 0.87799 0.45758 0.90997 0.0
H1363 H 0.88047 0.48142 0.91551 0.0
C1364 C 0.93662 0.46846 0.90407 0.0
C1365 C 0.94402 0.48755 0.89671 0.0
C1366 C 0.92319 0.46262 0.91727 0.0
C1367 C 0.91671 0.47564 0.92324 0.0
C1368 C 0.92388 0.49461 0.91592 0.0
H1369 H 0.83097 0.46001 1.00035 0.0
H1370 H 0.85462 0.47263 0.97728 0.0
C1371 C 0.93743 0.50054 0.90278 0.0
C1372 C 0.90291 0.46956 0.93748 0.0
H1373 H 0.85433 0.45449 0.94849 0.0
C1374 C 0.91036 0.46849 0.95293 0.0
C1375 C 0.88257 0.46468 0.93584 0.0
C1376 C 0.87392 0.46543 0.91939 0.0
C1377 C 0.89795 0.46268 0.96689 0.0
C1378 C 0.8774 0.45723 0.96521 0.0
C1379 C 0.87005 0.4586 0.94975 0.0
C1380 C 0.86319 0.44968 0.97928 0.0
C1381 C 0.90711 0.46279 0.98333 0.0
C1382 C 0.85995 0.43243 0.98793 0.0
C1383 C 0.84669 0.42535 0.00125 0.0
C1384 C 0.8361 0.43519 0.00607 0.0
C1385 C 0.8391 0.45226 0.99717 0.0
C1386 C 0.8525 0.45941 0.98389 0.0
H1387 H 0.92374 0.47308 0.98332 0.0
H1388 H 0.90042 0.4675 0.99328 0.0
H1389 H 0.90418 0.44733 0.9861 0.0
H1390 H 0.86768 0.4244 0.98436 0.0
H1391 H 0.84496 0.41231 0.00789 0.0
H1392 H 0.50266 0.93935 0.06274 0.0
H1393 H 0.48941 0.91584 0.08586 0.0
H1394 H 0.43728 0.92352 0.08799 0.0
H1395 H 0.45049 0.9472 0.06497 0.0
H1396 H 0.48022 0.92379 0.11758 0.0
H1397 H 0.41258 0.86174 0.08705 0.0
H1398 H 0.4332 0.8817 0.07571 0.0
H1399 H 0.41486 0.88626 0.08562 0.0
C1400 C 0.48841 0.9361 0.06816 0.0
C1401 C 0.47762 0.94514 0.06199 0.0
C1402 C 0.48082 0.92259 0.08131 0.0
C1403 C 0.46225 0.91775 0.08849 0.0
C1404 C 0.45143 0.92673 0.08239 0.0
H1405 H 0.39493 0.84078 0.17093 0.0
H1406 H 0.40654 0.86433 0.14773 0.0
C1407 C 0.459 0.94025 0.06924 0.0
C1408 C 0.45461 0.90387 0.10273 0.0
H1409 H 0.41584 0.8584 0.11562 0.0
C1410 C 0.46618 0.90947 0.11715 0.0
C1411 C 0.43622 0.88527 0.10213 0.0
C1412 C 0.42353 0.87823 0.08677 0.0
C1413 C 0.45977 0.89701 0.13108 0.0
C1414 C 0.44151 0.87828 0.13043 0.0
C1415 C 0.42983 0.87277 0.11606 0.0
C1416 C 0.43448 0.86403 0.14445 0.0
C1417 C 0.47245 0.90416 0.14645 0.0
C1418 C 0.44622 0.85587 0.15013 0.0
C1419 C 0.43972 0.84256 0.16343 0.0
C1420 C 0.42123 0.83699 0.17123 0.0
C1421 C 0.40936 0.84498 0.16534 0.0
C1422 C 0.4159 0.85832 0.15203 0.0
H1423 H 0.4827 0.92081 0.14641 0.0
H1424 H 0.4628 0.89993 0.15758 0.0
H1425 H 0.48194 0.89696 0.14723 0.0
H1426 H 0.46044 0.8598 0.14427 0.0
H1427 H 0.44933 0.83686 0.16773 0.0
H1428 H 0.52431 0.47417 0.24453 0.0
H1429 H 0.53519 0.46106 0.26733 0.0
H1430 H 0.58586 0.46839 0.23875 0.0
H1431 H 0.57479 0.48091 0.21563 0.0
H1432 H 0.54367 0.4258 0.26519 0.0
H1433 H 0.6085 0.49998 0.28431 0.0
H1434 H 0.58731 0.49794 0.27285 0.0
H1435 H 0.60584 0.4939 0.26277 0.0
C1436 C 0.53764 0.47278 0.24298 0.0
C1437 C 0.54867 0.47862 0.2282 0.0
C1438 C 0.54387 0.4654 0.25606 0.0
C1439 C 0.56136 0.46392 0.25471 0.0
C1440 C 0.57242 0.46965 0.24004 0.0
H1441 H 0.62866 0.43295 0.32259 0.0
H1442 H 0.61672 0.44406 0.29925 0.0
C1443 C 0.56612 0.4769 0.22689 0.0
C1444 C 0.568 0.45626 0.26863 0.0
H1445 H 0.60407 0.47109 0.29836 0.0
C1446 C 0.55684 0.43564 0.2725 0.0
C1447 C 0.58522 0.46921 0.27801 0.0
C1448 C 0.59743 0.49154 0.27442 0.0
C1449 C 0.56269 0.42751 0.28542 0.0
C1450 C 0.57982 0.4405 0.29497 0.0
C1451 C 0.59094 0.46115 0.29106 0.0
C1452 C 0.58665 0.43301 0.30898 0.0
C1453 C 0.55077 0.40501 0.2884 0.0
C1454 C 0.57376 0.42318 0.32229 0.0
C1455 C 0.58043 0.41647 0.33557 0.0
C1456 C 0.60025 0.41971 0.33592 0.0
C1457 C 0.61318 0.42979 0.32262 0.0
C1458 C 0.60644 0.43634 0.30931 0.0
H1459 H 0.54213 0.39669 0.27733 0.0
H1460 H 0.56081 0.39907 0.29207 0.0
H1461 H 0.53977 0.40182 0.29844 0.0
H1462 H 0.55857 0.42086 0.3225 0.0
H1463 H 0.57001 0.40866 0.34551 0.0
H1464 H 0.46211 0.9497 0.42367 0.0
H1465 H 0.45173 0.9255 0.40104 0.0
H1466 H 0.4973 0.91072 0.41487 0.0
H1467 H 0.5079 0.93508 0.43743 0.0
H1468 H 0.49738 0.91688 0.38217 0.0
H1469 H 0.41924 0.86448 0.4031 0.0
H1470 H 0.4246 0.8901 0.4014 0.0
H1471 H 0.438 0.88376 0.41622 0.0
C1472 C 0.46975 0.94111 0.422 0.0
C1473 C 0.48577 0.94423 0.43236 0.0
C1474 C 0.46378 0.92726 0.40909 0.0
C1475 C 0.47352 0.91605 0.40643 0.0
C1476 C 0.48954 0.91916 0.41673 0.0
H1477 H 0.4275 0.81222 0.34087 0.0
H1478 H 0.43936 0.8347 0.36472 0.0
C1479 C 0.49561 0.93312 0.42958 0.0
C1480 C 0.46746 0.90159 0.39256 0.0
H1481 H 0.42712 0.86028 0.37558 0.0
C1482 C 0.48205 0.90442 0.38078 0.0
C1483 C 0.44753 0.88515 0.39089 0.0
C1484 C 0.43149 0.88053 0.40366 0.0
C1485 C 0.47714 0.89154 0.36716 0.0
C1486 C 0.45699 0.87569 0.36509 0.0
C1487 C 0.44251 0.87257 0.37708 0.0
C1488 C 0.45053 0.8622 0.35055 0.0
C1489 C 0.49367 0.8949 0.35526 0.0
C1490 C 0.45277 0.87018 0.33468 0.0
C1491 C 0.44608 0.85739 0.32104 0.0
C1492 C 0.43677 0.83633 0.32304 0.0
C1493 C 0.43449 0.82837 0.33895 0.0
C1494 C 0.4413 0.84119 0.35258 0.0
H1495 H 0.50884 0.90337 0.36104 0.0
H1496 H 0.49153 0.88034 0.35051 0.0
H1497 H 0.49338 0.90393 0.34472 0.0
H1498 H 0.45935 0.8863 0.33285 0.0
H1499 H 0.44772 0.86395 0.30896 0.0
H1500 H 0.58877 0.51608 0.59343 0.0
H1501 H 0.60198 0.50575 0.5703 0.0
H1502 H 0.54744 0.44765 0.56947 0.0
H1503 H 0.53424 0.45765 0.59277 0.0
H1504 H 0.60772 0.47109 0.56781 0.0
H1505 H 0.55328 0.46969 0.52193 0.0
H1506 H 0.55783 0.4826 0.54137 0.0
H1507 H 0.54207 0.45561 0.54038 0.0
C1508 C 0.57965 0.50102 0.58845 0.0
C1509 C 0.56038 0.48773 0.59492 0.0
C1510 C 0.58719 0.4952 0.57518 0.0
C1511 C 0.57555 0.47606 0.56806 0.0
C1512 C 0.55648 0.46263 0.57461 0.0
H1513 H 0.58693 0.40951 0.48755 0.0
H1514 H 0.57648 0.42181 0.51109 0.0
C1515 C 0.54896 0.4684 0.5879 0.0
C1516 C 0.58335 0.47004 0.5538 0.0
H1517 H 0.57389 0.45627 0.51352 0.0
C1518 C 0.60044 0.46797 0.5559 0.0
C1519 C 0.57379 0.46601 0.53831 0.0
C1520 C 0.55582 0.46874 0.53524 0.0
C1521 C 0.60789 0.46134 0.543 0.0
C1522 C 0.5982 0.45712 0.52752 0.0
C1523 C 0.58127 0.45948 0.5254 0.0
C1524 C 0.60499 0.44969 0.51346 0.0
C1525 C 0.62564 0.4583 0.5462 0.0
C1526 C 0.62447 0.46135 0.50688 0.0
C1527 C 0.6306 0.45425 0.4935 0.0
C1528 C 0.61729 0.4354 0.48637 0.0
C1529 C 0.59771 0.4239 0.49291 0.0
C1530 C 0.59164 0.43098 0.5063 0.0
H1531 H 0.62799 0.45723 0.55953 0.0
H1532 H 0.62353 0.44439 0.54008 0.0
H1533 H 0.63955 0.47136 0.5412 0.0
H1534 H 0.63488 0.47602 0.51201 0.0
H1535 H 0.64581 0.46344 0.48884 0.0
H1536 H 0.06724 0.55778 0.74708 0.0
H1537 H 0.09129 0.57142 0.72435 0.0
H1538 H 0.13918 0.57854 0.75658 0.0
H1539 H 0.11519 0.5649 0.77941 0.0
H1540 H 0.12604 0.60899 0.72162 0.0
H1541 H 0.14419 0.5472 0.71802 0.0
H1542 H 0.12282 0.54476 0.72939 0.0
H1543 H 0.14781 0.55853 0.73795 0.0
C1544 C 0.08291 0.56231 0.74935 0.0
C1545 C 0.08931 0.56021 0.76504 0.0
C1546 C 0.09661 0.57003 0.73634 0.0
C1547 C 0.11695 0.57574 0.73872 0.0
C1548 C 0.12345 0.57381 0.75439 0.0
H1549 H 0.22072 0.62517 0.67328 0.0
H1550 H 0.19843 0.61417 0.69724 0.0
C1551 C 0.10974 0.56602 0.76741 0.0
C1552 C 0.13139 0.58408 0.72486 0.0
H1553 H 0.16353 0.57588 0.70128 0.0
C1554 C 0.13422 0.60174 0.71715 0.0
C1555 C 0.14204 0.57459 0.71907 0.0
C1556 C 0.13898 0.55512 0.72642 0.0
C1557 C 0.14756 0.61028 0.70387 0.0
C1558 C 0.15813 0.60074 0.69804 0.0
C1559 C 0.15543 0.58317 0.70582 0.0
C1560 C 0.17177 0.60848 0.68366 0.0
C1561 C 0.15047 0.6296 0.69635 0.0
C1562 C 0.16415 0.60892 0.6681 0.0
C1563 C 0.17685 0.61528 0.6544 0.0
C1564 C 0.19742 0.62125 0.65601 0.0
C1565 C 0.20503 0.62097 0.67166 0.0
C1566 C 0.1923 0.61455 0.68534 0.0
H1567 H 0.14542 0.63767 0.70474 0.0
H1568 H 0.16657 0.63989 0.69313 0.0
H1569 H 0.14141 0.62597 0.68492 0.0
H1570 H 0.14827 0.60398 0.6665 0.0
H1571 H 0.17055 0.61544 0.64254 0.0
H1572 H 0.53093 0.06969 0.9127 0.0
H1573 H 0.54202 0.09428 0.89032 0.0
H1574 H 0.58414 0.14072 0.92295 0.0
H1575 H 0.57312 0.1162 0.94541 0.0
H1576 H 0.5409 0.13006 0.88835 0.0
H1577 H 0.61971 0.14491 0.88402 0.0
H1578 H 0.60026 0.12369 0.89519 0.0
H1579 H 0.61243 0.14852 0.90413 0.0
C1580 C 0.5425 0.08515 0.91513 0.0
C1581 C 0.5512 0.09098 0.93081 0.0
C1582 C 0.54887 0.09916 0.90232 0.0
C1583 C 0.5641 0.11924 0.90491 0.0
C1584 C 0.57269 0.12518 0.92058 0.0
H1585 H 0.62146 0.22443 0.84098 0.0
H1586 H 0.61004 0.20147 0.86452 0.0
C1587 C 0.56637 0.11116 0.9334 0.0
C1588 C 0.57067 0.13401 0.89126 0.0
H1589 H 0.61148 0.16554 0.86784 0.0
C1590 C 0.55632 0.1378 0.88383 0.0
C1591 C 0.59081 0.14409 0.88543 0.0
C1592 C 0.60668 0.14001 0.89249 0.0
C1593 C 0.56161 0.15155 0.8708 0.0
C1594 C 0.5817 0.16154 0.86492 0.0
C1595 C 0.59609 0.15788 0.87242 0.0
C1596 C 0.58806 0.17554 0.85075 0.0
C1597 C 0.54571 0.1555 0.86361 0.0
C1598 C 0.57956 0.16852 0.8352 0.0
C1599 C 0.5861 0.18156 0.82171 0.0
C1600 C 0.60138 0.20186 0.8235 0.0
C1601 C 0.60982 0.20885 0.83914 0.0
C1602 C 0.60326 0.19578 0.85262 0.0
H1603 H 0.53278 0.15088 0.87213 0.0
H1604 H 0.55216 0.17175 0.86058 0.0
H1605 H 0.53982 0.14667 0.85213 0.0
H1606 H 0.56813 0.15284 0.83342 0.0
H1607 H 0.57955 0.17559 0.8098 0.0
H1608 H 0.45137 0.52057 0.09086 0.0
H1609 H 0.4385 0.53096 0.06753 0.0
H1610 H 0.48836 0.59189 0.07212 0.0
H1611 H 0.50132 0.58165 0.09545 0.0
H1612 H 0.42682 0.56003 0.06571 0.0
H1613 H 0.49123 0.57894 0.02396 0.0
H1614 H 0.48712 0.56467 0.04262 0.0
H1615 H 0.4986 0.59173 0.04336 0.0
C1616 C 0.45953 0.53621 0.08696 0.0
C1617 C 0.47744 0.55027 0.09494 0.0
C1618 C 0.4522 0.54209 0.07359 0.0
C1619 C 0.46267 0.5621 0.06792 0.0
C1620 C 0.48033 0.57626 0.07604 0.0
H1621 H 0.44518 0.631 0.99239 0.0
H1622 H 0.45623 0.61899 0.01582 0.0
C1623 C 0.4877 0.57038 0.08938 0.0
C1624 C 0.45497 0.56826 0.05365 0.0
H1625 H 0.46774 0.58886 0.01531 0.0
C1626 C 0.43569 0.5662 0.05463 0.0
C1627 C 0.46657 0.57626 0.03921 0.0
C1628 C 0.48695 0.57788 0.0371 0.0
C1629 C 0.42791 0.57245 0.04172 0.0
C1630 C 0.43964 0.58072 0.0274 0.0
C1631 C 0.45883 0.58258 0.02635 0.0
C1632 C 0.43246 0.58785 0.01344 0.0
C1633 C 0.40745 0.57067 0.04367 0.0
C1634 C 0.4155 0.57426 0.00428 0.0
C1635 C 0.40909 0.58109 0.9909 0.0
C1636 C 0.41955 0.60163 0.98646 0.0
C1637 C 0.43658 0.61516 0.99565 0.0
C1638 C 0.443 0.60831 0.00897 0.0
H1639 H 0.40238 0.56822 0.05666 0.0
H1640 H 0.40768 0.58445 0.03905 0.0
H1641 H 0.39617 0.55761 0.03638 0.0
H1642 H 0.40734 0.55835 0.00738 0.0
H1643 H 0.39586 0.57032 0.98411 0.0
H1644 H 0.92142 0.47187 0.27825 0.0
H1645 H 0.89746 0.45768 0.25544 0.0
H1646 H 0.94503 0.46229 0.22406 0.0
H1647 H 0.96902 0.47641 0.24678 0.0
H1648 H 0.89839 0.47452 0.22532 0.0
H1649 H 0.90105 0.4038 0.21739 0.0
H1650 H 0.91104 0.41963 0.23533 0.0
H1651 H 0.92545 0.42622 0.21662 0.0
C1652 C 0.92677 0.4699 0.26648 0.0
C1653 C 0.94708 0.47515 0.26434 0.0
C1654 C 0.91306 0.46171 0.25348 0.0
C1655 C 0.91938 0.45857 0.23814 0.0
C1656 C 0.9397 0.46406 0.23591 0.0
H1657 H 0.86535 0.42106 0.14202 0.0
H1658 H 0.88774 0.43269 0.16595 0.0
C1659 C 0.9534 0.47217 0.2489 0.0
C1660 C 0.90489 0.45018 0.22431 0.0
H1661 H 0.88454 0.41177 0.19633 0.0
C1662 C 0.89523 0.46072 0.21906 0.0
C1663 C 0.90081 0.43217 0.21617 0.0
C1664 C 0.90997 0.41967 0.22174 0.0
C1665 C 0.88196 0.45399 0.20563 0.0
C1666 C 0.87807 0.43611 0.19738 0.0
C1667 C 0.88761 0.42549 0.20268 0.0
C1668 C 0.8643 0.42834 0.1831 0.0
C1669 C 0.8726 0.46631 0.20009 0.0
C1670 C 0.84366 0.42169 0.18491 0.0
C1671 C 0.83085 0.41509 0.17128 0.0
C1672 C 0.83847 0.41499 0.15558 0.0
C1673 C 0.85909 0.42121 0.1539 0.0
C1674 C 0.87187 0.42774 0.16756 0.0
H1675 H 0.8805 0.48179 0.20538 0.0
H1676 H 0.87285 0.4675 0.18651 0.0
H1677 H 0.8566 0.45875 0.20414 0.0
H1678 H 0.8375 0.42179 0.19686 0.0
H1679 H 0.81509 0.41057 0.17298 0.0
loop_
_geom_bond_atom_site_label_1
_geom_bond_atom_site_label_2
_geom_bond_distance
_geom_bond_site_symmetry_2
_ccdc_geom_bond_type
H0 C19 0.949 . S
H1 C20 0.950 . S
H2 C22 0.950 . S
H3 C23 0.950 . S
H4 C25 0.950 . S
H5 C28 0.950 . S
H6 C29 0.950 . S
H7 C31 0.951 . S
H8 C32 0.949 . S
H9 C34 0.949 . S
H10 C35 0.950 . S
H11 C37 0.950 . S
H12 C38 0.950 . S
H13 C40 0.950 . S
H14 C43 0.950 . S
H15 C44 0.950 . S
H16 C46 0.951 . S
H17 C47 0.949 . S
C18 C19 1.376 . S
C18 C23 1.386 . S
C18 C24 1.483 1_655 S
C19 H0 0.949 . S
C19 C18 1.376 . S
C19 C20 1.397 . S
C20 H1 0.950 . S
C20 C19 1.397 . S
C20 C21 1.391 . S
C21 C20 1.391 . S
C21 C22 1.405 . S
C22 H2 0.950 . S
C22 C21 1.405 . S
C22 C23 1.367 . S
C23 H3 0.950 . S
C23 C18 1.386 . S
C23 C22 1.367 . S
C24 C18 1.483 1_455 S
C24 C25 1.382 . S
C24 C26 1.403 1_455 S
C25 H4 0.950 . S
C25 C24 1.382 . S
C25 C41 1.411 . S
C26 C24 1.403 1_655 S
C26 C27 1.489 . S
C26 C40 1.411 1_655 S
C27 C26 1.489 . S
C27 C28 1.383 . S
C27 C32 1.382 . S
C28 H5 0.950 . S
C28 C27 1.383 . S
C28 C29 1.395 . S
C29 H6 0.950 . S
C29 C28 1.395 . S
C29 C30 1.288 . S
C30 C29 1.288 . S
C30 C31 1.392 . S
C31 H7 0.951 . S
C31 C30 1.392 . S
C31 C32 1.392 . S
C32 H8 0.949 . S
C32 C27 1.382 . S
C32 C31 1.392 . S
C33 C34 1.376 . S
C33 C38 1.386 . S
C33 C39 1.483 . S
C34 H9 0.949 . S
C34 C33 1.376 . S
C34 C35 1.397 . S
C35 H10 0.950 . S
C35 C34 1.397 . S
C35 C36 1.391 . S
C36 C35 1.391 . S
C36 C37 1.405 . S
C37 H11 0.950 . S
C37 C36 1.405 . S
C37 C38 1.367 . S
C38 H12 0.950 . S
C38 C33 1.386 . S
C38 C37 1.367 . S
C39 C33 1.483 . S
C39 C40 1.382 . S
C39 C41 1.403 . S
C40 H13 0.950 . S
C40 C26 1.411 1_455 S
C40 C39 1.382 . S
C41 C25 1.411 . S
C41 C39 1.403 . S
C41 C42 1.489 . S
C42 C41 1.489 . S
C42 C43 1.383 . S
C42 C47 1.382 . S
C43 H14 0.950 . S
C43 C42 1.383 . S
C43 C44 1.395 . S
C44 H15 0.950 . S
C44 C43 1.395 . S
C44 C45 1.288 . S
C45 C44 1.288 . S
C45 C46 1.392 . S
C46 H16 0.951 . S
C46 C45 1.392 . S
C46 C47 1.392 . S
C47 H17 0.949 . S
C47 C42 1.382 . S
C47 C46 1.392 . S
H48 C67 0.949 . S
H49 C68 0.950 . S
H50 C70 0.950 . S
H51 C71 0.950 . S
H52 C73 0.950 . S
H53 C76 0.950 . S
H54 C77 0.950 . S
H55 C79 0.951 . S
H56 C80 0.949 1_545 S
H57 C82 0.949 . S
H58 C83 0.950 . S
H59 C85 0.950 . S
H60 C86 0.950 . S
H61 C88 0.950 . S
H62 C91 0.950 . S
H63 C92 0.950 . S
H64 C94 0.951 . S
H65 C95 0.949 . S
C66 C67 1.376 . S
C66 C71 1.386 . S
C66 C72 1.483 . S
C67 H48 0.949 . S
C67 C66 1.376 . S
C67 C68 1.397 . S
C68 H49 0.950 . S
C68 C67 1.397 . S
C68 C69 1.391 . S
C69 C68 1.391 . S
C69 C70 1.405 . S
C70 H50 0.950 . S
C70 C69 1.405 . S
C70 C71 1.367 . S
C71 H51 0.950 . S
C71 C66 1.386 . S
C71 C70 1.367 . S
C72 C66 1.483 . S
C72 C73 1.382 1_565 S
C72 C74 1.403 1_565 S
C73 H52 0.950 . S
C73 C72 1.382 1_545 S
C73 C89 1.411 . S
C74 C72 1.403 1_545 S
C74 C75 1.489 1_545 S
C74 C88 1.411 . S
C75 C74 1.489 1_565 S
C75 C76 1.383 . S
C75 C80 1.382 . S
C76 H53 0.950 . S
C76 C75 1.383 . S
C76 C77 1.395 . S
C77 H54 0.950 . S
C77 C76 1.395 . S
C77 C78 1.288 . S
C78 C77 1.288 . S
C78 C79 1.392 . S
C79 H55 0.951 . S
C79 C78 1.392 . S
C79 C80 1.392 . S
C80 H56 0.949 1_565 S
C80 C75 1.382 . S
C80 C79 1.392 . S
C81 C82 1.376 . S
C81 C86 1.386 . S
C81 C87 1.483 . S
C82 H57 0.949 . S
C82 C81 1.376 . S
C82 C83 1.397 . S
C83 H58 0.950 . S
C83 C82 1.397 . S
C83 C84 1.391 . S
C84 C83 1.391 . S
C84 C85 1.405 . S
C85 H59 0.950 . S
C85 C84 1.405 . S
C85 C86 1.367 . S
C86 H60 0.950 . S
C86 C81 1.386 . S
C86 C85 1.367 . S
C87 C81 1.483 . S
C87 C88 1.382 . S
C87 C89 1.403 . S
C88 H61 0.950 . S
C88 C74 1.411 . S
C88 C87 1.382 . S
C89 C73 1.411 . S
C89 C87 1.403 . S
C89 C90 1.489 . S
C90 C89 1.489 . S
C90 C91 1.383 . S
C90 C95 1.382 . S
C91 H62 0.950 . S
C91 C90 1.383 . S
C91 C92 1.395 . S
C92 H63 0.950 . S
C92 C91 1.395 . S
C92 C93 1.288 . S
C93 C92 1.288 . S
C93 C94 1.392 . S
C94 H64 0.951 . S
C94 C93 1.392 . S
C94 C95 1.392 . S
C95 H65 0.949 . S
C95 C90 1.382 . S
C95 C94 1.392 . S
H96 C115 0.949 . S
H97 C116 0.950 . S
H98 C118 0.950 . S
H99 C119 0.950 . S
H100 C121 0.950 . S
H101 C124 0.950 . S
H102 C125 0.950 . S
H103 C127 0.951 . S
H104 C128 0.949 . S
H105 C130 0.949 . S
H106 C131 0.950 . S
H107 C133 0.950 . S
H108 C134 0.950 . S
H109 C136 0.950 . S
H110 C139 0.950 . S
H111 C140 0.950 . S
H112 C142 0.951 . S
H113 C143 0.949 . S
C114 C115 1.376 . S
C114 C119 1.386 . S
C114 C120 1.483 . S
C115 H96 0.949 . S
C115 C114 1.376 . S
C115 C116 1.397 . S
C116 H97 0.950 . S
C116 C115 1.397 . S
C116 C117 1.391 . S
C117 C116 1.391 . S
C117 C118 1.405 . S
C118 H98 0.950 . S
C118 C117 1.405 . S
C118 C119 1.367 . S
C119 H99 0.950 . S
C119 C114 1.386 . S
C119 C118 1.367 . S
C120 C114 1.483 . S
C120 C121 1.382 . S
C120 C122 1.403 . S
C121 H100 0.950 . S
C121 C120 1.382 . S
C121 C137 1.411 . S
C122 C120 1.403 . S
C122 C123 1.489 . S
C122 C136 1.411 . S
C123 C122 1.489 . S
C123 C124 1.383 . S
C123 C128 1.382 . S
C124 H101 0.950 . S
C124 C123 1.383 . S
C124 C125 1.395 . S
C125 H102 0.950 . S
C125 C124 1.395 . S
C125 C126 1.288 . S
C126 C125 1.288 . S
C126 C127 1.392 . S
C127 H103 0.951 . S
C127 C126 1.392 . S
C127 C128 1.392 . S
C128 H104 0.949 . S
C128 C123 1.382 . S
C128 C127 1.392 . S
C129 C130 1.376 . S
C129 C134 1.386 . S
C129 C135 1.483 . S
C130 H105 0.949 . S
C130 C129 1.376 . S
C130 C131 1.397 . S
C131 H106 0.950 . S
C131 C130 1.397 . S
C131 C132 1.391 . S
C132 C131 1.391 . S
C132 C133 1.405 . S
C133 H107 0.950 . S
C133 C132 1.405 . S
C133 C134 1.367 . S
C134 H108 0.950 . S
C134 C129 1.386 . S
C134 C133 1.367 . S
C135 C129 1.483 . S
C135 C136 1.382 . S
C135 C137 1.403 . S
C136 H109 0.950 . S
C136 C122 1.411 . S
C136 C135 1.382 . S
C137 C121 1.411 . S
C137 C135 1.403 . S
C137 C138 1.489 . S
C138 C137 1.489 . S
C138 C139 1.383 . S
C138 C143 1.382 . S
C139 H110 0.950 . S
C139 C138 1.383 . S
C139 C140 1.395 . S
C140 H111 0.950 . S
C140 C139 1.395 . S
C140 C141 1.288 . S
C141 C140 1.288 . S
C141 C142 1.392 . S
C142 H112 0.951 . S
C142 C141 1.392 . S
C142 C143 1.392 . S
C143 H113 0.949 . S
C143 C138 1.382 . S
C143 C142 1.392 . S
H144 C163 0.949 . S
H145 C164 0.950 . S
H146 C166 0.950 . S
H147 C167 0.950 . S
H148 C169 0.950 . S
H149 C172 0.950 . S
H150 C173 0.950 . S
H151 C175 0.951 . S
H152 C176 0.949 . S
H153 C178 0.949 . S
H154 C179 0.950 . S
H155 C181 0.950 . S
H156 C182 0.950 . S
H157 C184 0.950 . S
H158 C187 0.950 . S
H159 C188 0.950 . S
H160 C190 0.951 . S
H161 C191 0.949 . S
C162 C163 1.376 . S
C162 C167 1.386 . S
C162 C168 1.483 . S
C163 H144 0.949 . S
C163 C162 1.376 . S
C163 C164 1.397 . S
C164 H145 0.950 . S
C164 C163 1.397 . S
C164 C165 1.391 . S
C165 C164 1.391 . S
C165 C166 1.405 . S
C166 H146 0.950 . S
C166 C165 1.405 . S
C166 C167 1.367 . S
C167 H147 0.950 . S
C167 C162 1.386 . S
C167 C166 1.367 . S
C168 C162 1.483 . S
C168 C169 1.382 . S
C168 C170 1.403 . S
C169 H148 0.950 . S
C169 C168 1.382 . S
C169 C185 1.411 1_455 S
C170 C168 1.403 . S
C170 C171 1.489 . S
C170 C184 1.411 . S
C171 C170 1.489 . S
C171 C172 1.383 . S
C171 C176 1.382 . S
C172 H149 0.950 . S
C172 C171 1.383 . S
C172 C173 1.395 . S
C173 H150 0.950 . S
C173 C172 1.395 . S
C173 C174 1.288 . S
C174 C173 1.288 . S
C174 C175 1.392 . S
C175 H151 0.951 . S
C175 C174 1.392 . S
C175 C176 1.392 . S
C176 H152 0.949 . S
C176 C171 1.382 . S
C176 C175 1.392 . S
C177 C178 1.376 . S
C177 C182 1.386 . S
C177 C183 1.483 1_655 S
C178 H153 0.949 . S
C178 C177 1.376 . S
C178 C179 1.397 . S
C179 H154 0.950 . S
C179 C178 1.397 . S
C179 C180 1.391 . S
C180 C179 1.391 . S
C180 C181 1.405 . S
C181 H155 0.950 . S
C181 C180 1.405 . S
C181 C182 1.367 . S
C182 H156 0.950 . S
C182 C177 1.386 . S
C182 C181 1.367 . S
C183 C177 1.483 1_455 S
C183 C184 1.382 . S
C183 C185 1.403 1_455 S
C184 H157 0.950 . S
C184 C170 1.411 . S
C184 C183 1.382 . S
C185 C169 1.411 1_655 S
C185 C183 1.403 1_655 S
C185 C186 1.489 . S
C186 C185 1.489 . S
C186 C187 1.383 . S
C186 C191 1.382 . S
C187 H158 0.950 . S
C187 C186 1.383 . S
C187 C188 1.395 . S
C188 H159 0.950 . S
C188 C187 1.395 . S
C188 C189 1.288 . S
C189 C188 1.288 . S
C189 C190 1.392 . S
C190 H160 0.951 . S
C190 C189 1.392 . S
C190 C191 1.392 . S
C191 H161 0.949 . S
C191 C186 1.382 . S
C191 C190 1.392 . S
H192 C211 0.949 . S
H193 C212 0.950 . S
H194 C214 0.950 . S
H195 C215 0.956 . S
H196 C217 0.950 . S
H197 C220 0.950 . S
H198 C221 0.950 . S
H199 C223 0.951 . S
H200 C224 0.949 . S
H201 C226 0.949 . S
H202 C227 0.950 . S
H203 C229 0.950 . S
H204 C230 0.950 . S
H205 C232 0.950 . S
H206 C235 0.950 . S
H207 C236 0.950 . S
H208 C238 0.951 . S
H209 C239 0.949 1_545 S
C210 C211 1.376 . S
C210 C215 1.384 1_554 S
C210 C216 1.483 1_554 S
C211 H192 0.949 . S
C211 C210 1.376 . S
C211 C212 1.397 . S
C212 H193 0.950 . S
C212 C211 1.397 . S
C212 C213 1.391 . S
C213 C212 1.391 . S
C213 C214 1.405 . S
C214 H194 0.950 . S
C214 C213 1.405 . S
C214 C215 1.364 1_554 S
C215 H195 0.956 . S
C215 C210 1.384 1_556 S
C215 C214 1.364 1_556 S
C216 C210 1.483 1_556 S
C216 C217 1.382 1_556 S
C216 C218 1.403 . S
C217 H196 0.950 . S
C217 C216 1.382 1_554 S
C217 C233 1.411 . S
C218 C216 1.403 . S
C218 C219 1.489 . S
C218 C232 1.411 . S
C219 C218 1.489 . S
C219 C220 1.383 . S
C219 C224 1.382 . S
C220 H197 0.950 . S
C220 C219 1.383 . S
C220 C221 1.395 . S
C221 H198 0.950 . S
C221 C220 1.395 . S
C221 C222 1.288 . S
C222 C221 1.288 . S
C222 C223 1.392 . S
C223 H199 0.951 . S
C223 C222 1.392 . S
C223 C224 1.392 . S
C224 H200 0.949 . S
C224 C219 1.382 . S
C224 C223 1.392 . S
C225 C226 1.376 . S
C225 C230 1.386 . S
C225 C231 1.483 . S
C226 H201 0.949 . S
C226 C225 1.376 . S
C226 C227 1.397 . S
C227 H202 0.950 . S
C227 C226 1.397 . S
C227 C228 1.391 . S
C228 C227 1.391 . S
C228 C229 1.405 . S
C229 H203 0.950 . S
C229 C228 1.405 . S
C229 C230 1.367 . S
C230 H204 0.950 . S
C230 C225 1.386 . S
C230 C229 1.367 . S
C231 C225 1.483 . S
C231 C232 1.382 1_565 S
C231 C233 1.403 1_566 S
C232 H205 0.950 . S
C232 C218 1.411 . S
C232 C231 1.382 1_545 S
C233 C217 1.411 . S
C233 C231 1.403 1_544 S
C233 C234 1.489 1_545 S
C234 C233 1.489 1_565 S
C234 C235 1.383 . S
C234 C239 1.382 . S
C235 H206 0.950 . S
C235 C234 1.383 . S
C235 C236 1.395 . S
C236 H207 0.950 . S
C236 C235 1.395 . S
C236 C237 1.288 . S
C237 C236 1.288 . S
C237 C238 1.392 . S
C238 H208 0.951 . S
C238 C237 1.392 . S
C238 C239 1.392 . S
C239 H209 0.949 1_565 S
C239 C234 1.382 . S
C239 C238 1.392 . S
H240 C259 0.949 . S
H241 C260 0.950 . S
H242 C262 0.950 . S
H243 C263 0.950 . S
H244 C265 0.950 . S
H245 C268 0.950 . S
H246 C269 0.950 . S
H247 C271 0.951 . S
H248 C272 0.949 . S
H249 C274 0.949 . S
H250 C275 0.950 . S
H251 C277 0.950 . S
H252 C278 0.950 . S
H253 C280 0.950 . S
H254 C283 0.950 . S
H255 C284 0.950 . S
H256 C286 0.951 . S
H257 C287 0.949 . S
C258 C259 1.376 . S
C258 C263 1.386 . S
C258 C264 1.483 . S
C259 H240 0.949 . S
C259 C258 1.376 . S
C259 C260 1.397 . S
C260 H241 0.950 . S
C260 C259 1.397 . S
C260 C261 1.391 . S
C261 C260 1.391 . S
C261 C262 1.405 . S
C262 H242 0.950 . S
C262 C261 1.405 . S
C262 C263 1.367 . S
C263 H243 0.950 . S
C263 C258 1.386 . S
C263 C262 1.367 . S
C264 C258 1.483 . S
C264 C265 1.382 . S
C264 C266 1.403 . S
C265 H244 0.950 . S
C265 C264 1.382 . S
C265 C281 1.411 . S
C266 C264 1.403 . S
C266 C267 1.489 . S
C266 C280 1.411 . S
C267 C266 1.489 . S
C267 C268 1.383 . S
C267 C272 1.382 . S
C268 H245 0.950 . S
C268 C267 1.383 . S
C268 C269 1.395 . S
C269 H246 0.950 . S
C269 C268 1.395 . S
C269 C270 1.288 . S
C270 C269 1.288 . S
C270 C271 1.392 . S
C271 H247 0.951 . S
C271 C270 1.392 . S
C271 C272 1.392 . S
C272 H248 0.949 . S
C272 C267 1.382 . S
C272 C271 1.392 . S
C273 C274 1.376 . S
C273 C278 1.386 . S
C273 C279 1.483 . S
C274 H249 0.949 . S
C274 C273 1.376 . S
C274 C275 1.397 . S
C275 H250 0.950 . S
C275 C274 1.397 . S
C275 C276 1.391 . S
C276 C275 1.391 . S
C276 C277 1.405 . S
C277 H251 0.950 . S
C277 C276 1.405 . S
C277 C278 1.367 . S
C278 H252 0.950 . S
C278 C273 1.386 . S
C278 C277 1.367 . S
C279 C273 1.483 . S
C279 C280 1.382 . S
C279 C281 1.403 . S
C280 H253 0.950 . S
C280 C266 1.411 . S
C280 C279 1.382 . S
C281 C265 1.411 . S
C281 C279 1.403 . S
C281 C282 1.489 . S
C282 C281 1.489 . S
C282 C283 1.383 . S
C282 C287 1.382 . S
C283 H254 0.950 . S
C283 C282 1.383 . S
C283 C284 1.395 . S
C284 H255 0.950 . S
C284 C283 1.395 . S
C284 C285 1.288 . S
C285 C284 1.288 . S
C285 C286 1.392 . S
C286 H256 0.951 . S
C286 C285 1.392 . S
C286 C287 1.392 . S
C287 H257 0.949 . S
C287 C282 1.382 . S
C287 C286 1.392 . S
Li288 N305 1.990 . S
Li288 O348 1.956 . S
Li288 O349 1.970 . S
Li288 O350 1.961 . S
Li289 N313 1.990 . S
Li289 O348 1.970 . S
Li289 O349 1.956 . S
Li289 O351 1.961 . S
Li290 N335 1.990 . S
Li290 O348 1.961 . S
Li290 O350 1.956 . S
Li290 O351 1.970 . S
Li291 N341 1.990 . S
Li291 O349 1.961 . S
Li291 O350 1.970 . S
Li291 O351 1.956 . S
C292 C294 1.348 . S
C292 C295 1.356 . S
C292 O348 1.325 . S
N293 C296 1.314 . S
N293 C297 1.279 . S
C294 C292 1.348 . S
C294 C296 1.353 . S
C294 H352 0.929 . S
C295 C292 1.356 . S
C295 C297 1.358 . S
C295 H353 0.930 . S
C296 N293 1.314 . S
C296 C294 1.353 . S
C296 H354 0.930 . S
C297 N293 1.279 . S
C297 C295 1.358 . S
C297 H355 0.930 . S
C298 C301 1.348 . S
C298 C302 1.356 . S
C298 O349 1.325 . S
C299 N300 1.279 . S
C299 C302 1.358 . S
C299 H356 0.930 . S
N300 C299 1.279 . S
N300 C303 1.314 . S
C301 C298 1.348 . S
C301 C303 1.353 . S
C301 H357 0.929 . S
C302 C298 1.356 . S
C302 C299 1.358 . S
C302 H358 0.930 . S
C303 N300 1.314 . S
C303 C301 1.353 . S
C303 H359 0.930 . S
C304 N305 1.314 . S
C304 C309 1.353 . S
C304 H310 0.930 . S
N305 Li288 1.990 . S
N305 C304 1.314 . S
N305 C307 1.279 . S
C306 C307 1.358 . S
C306 C308 1.356 . S
C306 H360 0.930 . S
C307 N305 1.279 . S
C307 C306 1.358 . S
C307 H311 0.930 . S
C308 C306 1.356 . S
C308 C309 1.348 . S
C309 C304 1.353 . S
C309 C308 1.348 . S
C309 H361 0.929 . S
H310 C304 0.930 . S
H311 C307 0.930 . S
C312 N313 1.314 . S
C312 C314 1.353 . S
C312 H318 0.930 . S
N313 Li289 1.990 . S
N313 C312 1.314 . S
N313 C316 1.279 . S
C314 C312 1.353 . S
C314 C317 1.348 . S
C314 H362 0.929 . S
C315 C316 1.358 . S
C315 C317 1.356 . S
C315 H363 0.930 . S
C316 N313 1.279 . S
C316 C315 1.358 . S
C316 H319 0.930 . S
C317 C314 1.348 . S
C317 C315 1.356 . S
H318 C312 0.930 . S
H319 C316 0.930 . S
C320 C322 1.348 . S
C320 C323 1.356 . S
C320 O350 1.325 . S
N321 C324 1.314 . S
N321 C325 1.279 . S
C322 C320 1.348 . S
C322 C324 1.353 . S
C322 H364 0.929 . S
C323 C320 1.356 . S
C323 C325 1.358 . S
C323 H365 0.930 . S
C324 N321 1.314 . S
C324 C322 1.353 . S
C324 H366 0.930 . S
C325 N321 1.279 . S
C325 C323 1.358 . S
C325 H367 0.930 . S
C326 C327 1.348 . S
C326 C328 1.356 . S
C326 O351 1.325 . S
C327 C326 1.348 . S
C327 C329 1.353 . S
C327 H368 0.929 . S
C328 C326 1.356 . S
C328 C330 1.358 . S
C328 H369 0.930 . S
C329 C327 1.353 . S
C329 N331 1.314 . S
C329 H370 0.930 . S
C330 C328 1.358 . S
C330 N331 1.279 . S
C330 H371 0.930 . S
N331 C329 1.314 . S
N331 C330 1.279 . S
C332 C334 1.353 . S
C332 N335 1.314 . S
C332 H338 0.930 . S
C333 N335 1.279 . S
C333 C336 1.358 . S
C333 H339 0.930 . S
C334 C332 1.353 . S
C334 C337 1.348 . S
C334 H372 0.929 . S
N335 Li290 1.990 . S
N335 C332 1.314 . S
N335 C333 1.279 . S
C336 C333 1.358 . S
C336 C337 1.356 . S
C336 H373 0.930 . S
C337 C334 1.348 . S
C337 C336 1.356 . S
H338 C332 0.930 . S
H339 C333 0.930 . S
C340 N341 1.314 . S
C340 C342 1.353 . S
C340 H346 0.930 . S
N341 Li291 1.990 . S
N341 C340 1.314 . S
N341 C344 1.279 . S
C342 C340 1.353 . S
C342 C345 1.348 . S
C342 H374 0.929 . S
C343 C344 1.358 . S
C343 C345 1.356 . S
C343 H375 0.930 . S
C344 N341 1.279 . S
C344 C343 1.358 . S
C344 H347 0.930 . S
C345 C342 1.348 . S
C345 C343 1.356 . S
H346 C340 0.930 . S
H347 C344 0.930 . S
O348 Li288 1.956 . S
O348 Li289 1.970 . S
O348 Li290 1.961 . S
O348 C292 1.325 . S
O349 Li288 1.970 . S
O349 Li289 1.956 . S
O349 Li291 1.961 . S
O349 C298 1.325 . S
O350 Li288 1.961 . S
O350 Li290 1.956 . S
O350 Li291 1.970 . S
O350 C320 1.325 . S
O351 Li289 1.961 . S
O351 Li290 1.970 . S
O351 Li291 1.956 . S
O351 C326 1.325 . S
H352 C294 0.929 . S
H353 C295 0.930 . S
H354 C296 0.930 . S
H355 C297 0.930 . S
H356 C299 0.930 . S
H357 C301 0.929 . S
H358 C302 0.930 . S
H359 C303 0.930 . S
H360 C306 0.930 . S
H361 C309 0.929 . S
H362 C314 0.929 . S
H363 C315 0.930 . S
H364 C322 0.929 . S
H365 C323 0.930 . S
H366 C324 0.930 . S
H367 C325 0.930 . S
H368 C327 0.929 . S
H369 C328 0.930 . S
H370 C329 0.930 . S
H371 C330 0.930 . S
H372 C334 0.929 . S
H373 C336 0.930 . S
H374 C342 0.929 . S
H375 C343 0.930 . S
Li376 N393 1.990 . S
Li376 O436 1.956 . S
Li376 O437 1.970 . S
Li376 O438 1.961 . S
Li377 N401 1.990 . S
Li377 O436 1.970 . S
Li377 O437 1.956 . S
Li377 O439 1.961 . S
Li378 N423 1.990 . S
Li378 O436 1.961 . S
Li378 O438 1.956 . S
Li378 O439 1.970 . S
Li379 N429 1.990 . S
Li379 O437 1.961 . S
Li379 O438 1.970 . S
Li379 O439 1.956 . S
C380 C382 1.348 . S
C380 C383 1.356 . S
C380 O436 1.325 . S
N381 C384 1.314 . S
N381 C385 1.279 . S
C382 C380 1.348 . S
C382 C384 1.353 . S
C382 H440 0.929 . S
C383 C380 1.356 . S
C383 C385 1.358 . S
C383 H441 0.930 . S
C384 N381 1.314 . S
C384 C382 1.353 . S
C384 H442 0.930 . S
C385 N381 1.279 . S
C385 C383 1.358 . S
C385 H443 0.930 . S
C386 C389 1.348 . S
C386 C390 1.356 . S
C386 O437 1.325 . S
C387 N388 1.279 . S
C387 C390 1.358 . S
C387 H444 0.930 . S
N388 C387 1.279 . S
N388 C391 1.314 . S
C389 C386 1.348 . S
C389 C391 1.353 . S
C389 H445 0.929 . S
C390 C386 1.356 . S
C390 C387 1.358 . S
C390 H446 0.930 . S
C391 N388 1.314 . S
C391 C389 1.353 . S
C391 H447 0.930 . S
C392 N393 1.314 . S
C392 C397 1.353 . S
C392 H398 0.930 . S
N393 Li376 1.990 . S
N393 C392 1.314 . S
N393 C395 1.279 . S
C394 C395 1.358 . S
C394 C396 1.356 . S
C394 H448 0.930 . S
C395 N393 1.279 . S
C395 C394 1.358 . S
C395 H399 0.930 . S
C396 C394 1.356 . S
C396 C397 1.348 . S
C397 C392 1.353 . S
C397 C396 1.348 . S
C397 H449 0.929 . S
H398 C392 0.930 . S
H399 C395 0.930 . S
C400 N401 1.314 . S
C400 C402 1.353 . S
C400 H406 0.930 . S
N401 Li377 1.990 . S
N401 C400 1.314 . S
N401 C404 1.279 . S
C402 C400 1.353 . S
C402 C405 1.348 . S
C402 H450 0.929 . S
C403 C404 1.358 . S
C403 C405 1.356 . S
C403 H451 0.930 . S
C404 N401 1.279 . S
C404 C403 1.358 . S
C404 H407 0.930 . S
C405 C402 1.348 . S
C405 C403 1.356 . S
H406 C400 0.930 . S
H407 C404 0.930 . S
C408 C410 1.348 . S
C408 C411 1.356 . S
C408 O438 1.325 . S
N409 C412 1.314 . S
N409 C413 1.279 . S
C410 C408 1.348 . S
C410 C412 1.353 . S
C410 H452 0.929 . S
C411 C408 1.356 . S
C411 C413 1.358 . S
C411 H453 0.930 . S
C412 N409 1.314 . S
C412 C410 1.353 . S
C412 H454 0.930 . S
C413 N409 1.279 . S
C413 C411 1.358 . S
C413 H455 0.930 . S
C414 C415 1.348 . S
C414 C416 1.356 . S
C414 O439 1.325 . S
C415 C414 1.348 . S
C415 C417 1.353 . S
C415 H456 0.929 . S
C416 C414 1.356 . S
C416 C418 1.358 . S
C416 H457 0.930 . S
C417 C415 1.353 . S
C417 N419 1.314 . S
C417 H458 0.930 . S
C418 C416 1.358 . S
C418 N419 1.279 . S
C418 H459 0.930 . S
N419 C417 1.314 . S
N419 C418 1.279 . S
C420 C422 1.353 . S
C420 N423 1.314 . S
C420 H426 0.930 . S
C421 N423 1.279 . S
C421 C424 1.358 . S
C421 H427 0.930 . S
C422 C420 1.353 . S
C422 C425 1.348 . S
C422 H460 0.929 . S
N423 Li378 1.990 . S
N423 C420 1.314 . S
N423 C421 1.279 . S
C424 C421 1.358 . S
C424 C425 1.356 . S
C424 H461 0.930 . S
C425 C422 1.348 . S
C425 C424 1.356 . S
H426 C420 0.930 . S
H427 C421 0.930 . S
C428 N429 1.314 . S
C428 C430 1.353 . S
C428 H434 0.930 . S
N429 Li379 1.990 . S
N429 C428 1.314 . S
N429 C432 1.279 . S
C430 C428 1.353 . S
C430 C433 1.348 . S
C430 H462 0.929 . S
C431 C432 1.358 . S
C431 C433 1.356 . S
C431 H463 0.930 . S
C432 N429 1.279 . S
C432 C431 1.358 . S
C432 H435 0.930 . S
C433 C430 1.348 . S
C433 C431 1.356 . S
H434 C428 0.930 . S
H435 C432 0.930 . S
O436 Li376 1.956 . S
O436 Li377 1.970 . S
O436 Li378 1.961 . S
O436 C380 1.325 . S
O437 Li376 1.970 . S
O437 Li377 1.956 . S
O437 Li379 1.961 . S
O437 C386 1.325 . S
O438 Li376 1.961 . S
O438 Li378 1.956 . S
O438 Li379 1.970 . S
O438 C408 1.325 . S
O439 Li377 1.961 . S
O439 Li378 1.970 . S
O439 Li379 1.956 . S
O439 C414 1.325 . S
H440 C382 0.929 . S
H441 C383 0.930 . S
H442 C384 0.930 . S
H443 C385 0.930 . S
H444 C387 0.930 . S
H445 C389 0.929 . S
H446 C390 0.930 . S
H447 C391 0.930 . S
H448 C394 0.930 . S
H449 C397 0.929 . S
H450 C402 0.929 . S
H451 C403 0.930 . S
H452 C410 0.929 . S
H453 C411 0.930 . S
H454 C412 0.930 . S
H455 C413 0.930 . S
H456 C415 0.929 . S
H457 C416 0.930 . S
H458 C417 0.930 . S
H459 C418 0.930 . S
H460 C422 0.929 . S
H461 C424 0.930 . S
H462 C430 0.929 . S
H463 C431 0.930 . S
Li464 N481 1.990 . S
Li464 O524 1.956 . S
Li464 O525 1.970 . S
Li464 O526 1.961 . S
Li465 N489 1.990 . S
Li465 O524 1.970 . S
Li465 O525 1.956 . S
Li465 O527 1.961 . S
Li466 N511 1.990 . S
Li466 O524 1.961 . S
Li466 O526 1.956 . S
Li466 O527 1.970 . S
Li467 N517 1.990 . S
Li467 O525 1.961 . S
Li467 O526 1.970 . S
Li467 O527 1.956 . S
C468 C470 1.348 . S
C468 C471 1.356 . S
C468 O524 1.325 . S
N469 C472 1.314 . S
N469 C473 1.279 . S
C470 C468 1.348 . S
C470 C472 1.353 . S
C470 H528 0.929 . S
C471 C468 1.356 . S
C471 C473 1.358 . S
C471 H529 0.930 . S
C472 N469 1.314 . S
C472 C470 1.353 . S
C472 H530 0.930 . S
C473 N469 1.279 . S
C473 C471 1.358 . S
C473 H531 0.930 . S
C474 C477 1.348 . S
C474 C478 1.356 . S
C474 O525 1.325 . S
C475 N476 1.279 . S
C475 C478 1.358 . S
C475 H532 0.930 . S
N476 C475 1.279 . S
N476 C479 1.314 . S
C477 C474 1.348 . S
C477 C479 1.353 . S
C477 H533 0.929 . S
C478 C474 1.356 . S
C478 C475 1.358 . S
C478 H534 0.930 . S
C479 N476 1.314 . S
C479 C477 1.353 . S
C479 H535 0.930 . S
C480 N481 1.314 . S
C480 C485 1.353 . S
C480 H486 0.930 . S
N481 Li464 1.990 . S
N481 C480 1.314 . S
N481 C483 1.279 . S
C482 C483 1.358 . S
C482 C484 1.356 . S
C482 H536 0.930 . S
C483 N481 1.279 . S
C483 C482 1.358 . S
C483 H487 0.930 . S
C484 C482 1.356 . S
C484 C485 1.348 . S
C485 C480 1.353 . S
C485 C484 1.348 . S
C485 H537 0.929 . S
H486 C480 0.930 . S
H487 C483 0.930 . S
C488 N489 1.314 . S
C488 C490 1.353 . S
C488 H494 0.930 . S
N489 Li465 1.990 . S
N489 C488 1.314 . S
N489 C492 1.279 . S
C490 C488 1.353 . S
C490 C493 1.348 . S
C490 H538 0.929 . S
C491 C492 1.358 . S
C491 C493 1.356 . S
C491 H539 0.930 . S
C492 N489 1.279 . S
C492 C491 1.358 . S
C492 H495 0.930 . S
C493 C490 1.348 . S
C493 C491 1.356 . S
H494 C488 0.930 . S
H495 C492 0.930 . S
C496 C498 1.348 . S
C496 C499 1.356 . S
C496 O526 1.325 . S
N497 C500 1.314 . S
N497 C501 1.279 . S
C498 C496 1.348 . S
C498 C500 1.353 . S
C498 H540 0.929 . S
C499 C496 1.356 . S
C499 C501 1.358 . S
C499 H541 0.930 . S
C500 N497 1.314 . S
C500 C498 1.353 . S
C500 H542 0.930 . S
C501 N497 1.279 . S
C501 C499 1.358 . S
C501 H543 0.930 . S
C502 C503 1.348 . S
C502 C504 1.356 . S
C502 O527 1.325 . S
C503 C502 1.348 . S
C503 C505 1.353 . S
C503 H544 0.929 . S
C504 C502 1.356 . S
C504 C506 1.358 . S
C504 H545 0.930 . S
C505 C503 1.353 . S
C505 N507 1.314 . S
C505 H546 0.930 . S
C506 C504 1.358 . S
C506 N507 1.279 . S
C506 H547 0.930 . S
N507 C505 1.314 . S
N507 C506 1.279 . S
C508 C510 1.353 . S
C508 N511 1.314 . S
C508 H514 0.930 . S
C509 N511 1.279 . S
C509 C512 1.358 . S
C509 H515 0.930 . S
C510 C508 1.353 . S
C510 C513 1.348 . S
C510 H548 0.929 . S
N511 Li466 1.990 . S
N511 C508 1.314 . S
N511 C509 1.279 . S
C512 C509 1.358 . S
C512 C513 1.356 . S
C512 H549 0.930 . S
C513 C510 1.348 . S
C513 C512 1.356 . S
H514 C508 0.930 . S
H515 C509 0.930 . S
C516 N517 1.314 . S
C516 C518 1.353 . S
C516 H522 0.930 . S
N517 Li467 1.990 . S
N517 C516 1.314 . S
N517 C520 1.279 . S
C518 C516 1.353 . S
C518 C521 1.348 . S
C518 H550 0.929 . S
C519 C520 1.358 . S
C519 C521 1.356 . S
C519 H551 0.930 . S
C520 N517 1.279 . S
C520 C519 1.358 . S
C520 H523 0.930 . S
C521 C518 1.348 . S
C521 C519 1.356 . S
H522 C516 0.930 . S
H523 C520 0.930 . S
O524 Li464 1.956 . S
O524 Li465 1.970 . S
O524 Li466 1.961 . S
O524 C468 1.325 . S
O525 Li464 1.970 . S
O525 Li465 1.956 . S
O525 Li467 1.961 . S
O525 C474 1.325 . S
O526 Li464 1.961 . S
O526 Li466 1.956 . S
O526 Li467 1.970 . S
O526 C496 1.325 . S
O527 Li465 1.961 . S
O527 Li466 1.970 . S
O527 Li467 1.956 . S
O527 C502 1.325 . S
H528 C470 0.929 . S
H529 C471 0.930 . S
H530 C472 0.930 . S
H531 C473 0.930 . S
H532 C475 0.930 . S
H533 C477 0.929 . S
H534 C478 0.930 . S
H535 C479 0.930 . S
H536 C482 0.930 . S
H537 C485 0.929 . S
H538 C490 0.929 . S
H539 C491 0.930 . S
H540 C498 0.929 . S
H541 C499 0.930 . S
H542 C500 0.930 . S
H543 C501 0.930 . S
H544 C503 0.929 . S
H545 C504 0.930 . S
H546 C505 0.930 . S
H547 C506 0.930 . S
H548 C510 0.929 . S
H549 C512 0.930 . S
H550 C518 0.929 . S
H551 C519 0.930 . S
Li552 N569 1.990 . S
Li552 O612 1.956 . S
Li552 O613 1.970 . S
Li552 O614 1.961 . S
Li553 N577 1.990 . S
Li553 O612 1.970 . S
Li553 O613 1.956 . S
Li553 O615 1.961 . S
Li554 N599 1.990 . S
Li554 O612 1.961 . S
Li554 O614 1.956 . S
Li554 O615 1.970 . S
Li555 N605 1.990 . S
Li555 O613 1.961 . S
Li555 O614 1.970 . S
Li555 O615 1.956 . S
C556 C558 1.348 . S
C556 C559 1.356 . S
C556 O612 1.325 . S
N557 C560 1.314 . S
N557 C561 1.279 . S
C558 C556 1.348 . S
C558 C560 1.353 . S
C558 H616 0.929 . S
C559 C556 1.356 . S
C559 C561 1.358 . S
C559 H617 0.930 . S
C560 N557 1.314 . S
C560 C558 1.353 . S
C560 H618 0.930 . S
C561 N557 1.279 . S
C561 C559 1.358 . S
C561 H619 0.930 . S
C562 C565 1.348 . S
C562 C566 1.356 . S
C562 O613 1.325 . S
C563 N564 1.279 . S
C563 C566 1.358 . S
C563 H620 0.930 . S
N564 C563 1.279 . S
N564 C567 1.314 . S
C565 C562 1.348 . S
C565 C567 1.353 . S
C565 H621 0.929 . S
C566 C562 1.356 . S
C566 C563 1.358 . S
C566 H622 0.930 . S
C567 N564 1.314 . S
C567 C565 1.353 . S
C567 H623 0.930 . S
C568 N569 1.314 . S
C568 C573 1.353 . S
C568 H574 0.930 . S
N569 Li552 1.990 . S
N569 C568 1.314 . S
N569 C571 1.279 . S
C570 C571 1.358 . S
C570 C572 1.356 . S
C570 H624 0.930 . S
C571 N569 1.279 . S
C571 C570 1.358 . S
C571 H575 0.930 . S
C572 C570 1.356 . S
C572 C573 1.348 . S
C573 C568 1.353 . S
C573 C572 1.348 . S
C573 H625 0.929 . S
H574 C568 0.930 . S
H575 C571 0.930 . S
C576 N577 1.314 . S
C576 C578 1.353 . S
C576 H582 0.930 . S
N577 Li553 1.990 . S
N577 C576 1.314 . S
N577 C580 1.279 . S
C578 C576 1.353 . S
C578 C581 1.348 . S
C578 H626 0.929 . S
C579 C580 1.358 . S
C579 C581 1.356 . S
C579 H627 0.930 . S
C580 N577 1.279 . S
C580 C579 1.358 . S
C580 H583 0.930 . S
C581 C578 1.348 . S
C581 C579 1.356 . S
H582 C576 0.930 . S
H583 C580 0.930 . S
C584 C586 1.348 . S
C584 C587 1.356 . S
C584 O614 1.325 . S
N585 C588 1.314 . S
N585 C589 1.279 . S
C586 C584 1.348 . S
C586 C588 1.353 . S
C586 H628 0.929 . S
C587 C584 1.356 . S
C587 C589 1.358 . S
C587 H629 0.930 . S
C588 N585 1.314 . S
C588 C586 1.353 . S
C588 H630 0.930 . S
C589 N585 1.279 . S
C589 C587 1.358 . S
C589 H631 0.930 . S
C590 C591 1.348 . S
C590 C592 1.356 . S
C590 O615 1.325 . S
C591 C590 1.348 . S
C591 C593 1.353 . S
C591 H632 0.929 . S
C592 C590 1.356 . S
C592 C594 1.358 . S
C592 H633 0.930 . S
C593 C591 1.353 . S
C593 N595 1.314 . S
C593 H634 0.930 . S
C594 C592 1.358 . S
C594 N595 1.279 . S
C594 H635 0.930 . S
N595 C593 1.314 . S
N595 C594 1.279 . S
C596 C598 1.353 . S
C596 N599 1.314 . S
C596 H602 0.930 . S
C597 N599 1.279 . S
C597 C600 1.358 . S
C597 H603 0.930 . S
C598 C596 1.353 . S
C598 C601 1.348 . S
C598 H636 0.929 . S
N599 Li554 1.990 . S
N599 C596 1.314 . S
N599 C597 1.279 . S
C600 C597 1.358 . S
C600 C601 1.356 . S
C600 H637 0.930 . S
C601 C598 1.348 . S
C601 C600 1.356 . S
H602 C596 0.930 . S
H603 C597 0.930 . S
C604 N605 1.314 . S
C604 C606 1.353 . S
C604 H610 0.930 . S
N605 Li555 1.990 . S
N605 C604 1.314 . S
N605 C608 1.279 . S
C606 C604 1.353 . S
C606 C609 1.348 . S
C606 H638 0.929 . S
C607 C608 1.358 . S
C607 C609 1.356 . S
C607 H639 0.930 . S
C608 N605 1.279 . S
C608 C607 1.358 . S
C608 H611 0.930 . S
C609 C606 1.348 . S
C609 C607 1.356 . S
H610 C604 0.930 . S
H611 C608 0.930 . S
O612 Li552 1.956 . S
O612 Li553 1.970 . S
O612 Li554 1.961 . S
O612 C556 1.325 . S
O613 Li552 1.970 . S
O613 Li553 1.956 . S
O613 Li555 1.961 . S
O613 C562 1.325 . S
O614 Li552 1.961 . S
O614 Li554 1.956 . S
O614 Li555 1.970 . S
O614 C584 1.325 . S
O615 Li553 1.961 . S
O615 Li554 1.970 . S
O615 Li555 1.956 . S
O615 C590 1.325 . S
H616 C558 0.929 . S
H617 C559 0.930 . S
H618 C560 0.930 . S
H619 C561 0.930 . S
H620 C563 0.930 . S
H621 C565 0.929 . S
H622 C566 0.930 . S
H623 C567 0.930 . S
H624 C570 0.930 . S
H625 C573 0.929 . S
H626 C578 0.929 . S
H627 C579 0.930 . S
H628 C586 0.929 . S
H629 C587 0.930 . S
H630 C588 0.930 . S
H631 C589 0.930 . S
H632 C591 0.929 . S
H633 C592 0.930 . S
H634 C593 0.930 . S
H635 C594 0.930 . S
H636 C598 0.929 . S
H637 C600 0.930 . S
H638 C606 0.929 . S
H639 C607 0.930 . S
Li640 N657 1.990 . S
Li640 O700 1.956 . S
Li640 O701 1.970 . S
Li640 O702 1.961 . S
Li641 N665 1.990 . S
Li641 O700 1.970 . S
Li641 O701 1.956 . S
Li641 O703 1.961 . S
Li642 N687 1.990 . S
Li642 O700 1.961 . S
Li642 O702 1.956 . S
Li642 O703 1.970 . S
Li643 N693 1.990 . S
Li643 O701 1.961 . S
Li643 O702 1.970 . S
Li643 O703 1.956 . S
C644 C646 1.348 . S
C644 C647 1.356 . S
C644 O700 1.325 . S
N645 C648 1.314 . S
N645 C649 1.279 . S
C646 C644 1.348 . S
C646 C648 1.353 . S
C646 H704 0.929 . S
C647 C644 1.356 . S
C647 C649 1.358 . S
C647 H705 0.930 . S
C648 N645 1.314 . S
C648 C646 1.353 . S
C648 H706 0.930 . S
C649 N645 1.279 . S
C649 C647 1.358 . S
C649 H707 0.930 . S
C650 C653 1.348 . S
C650 C654 1.356 . S
C650 O701 1.325 . S
C651 N652 1.279 . S
C651 C654 1.358 . S
C651 H708 0.930 . S
N652 C651 1.279 . S
N652 C655 1.314 . S
C653 C650 1.348 . S
C653 C655 1.353 . S
C653 H709 0.929 . S
C654 C650 1.356 . S
C654 C651 1.358 . S
C654 H710 0.930 . S
C655 N652 1.314 . S
C655 C653 1.353 . S
C655 H711 0.930 . S
C656 N657 1.314 . S
C656 C661 1.353 . S
C656 H662 0.930 . S
N657 Li640 1.990 . S
N657 C656 1.314 . S
N657 C659 1.279 . S
C658 C659 1.358 . S
C658 C660 1.356 . S
C658 H712 0.930 . S
C659 N657 1.279 . S
C659 C658 1.358 . S
C659 H663 0.930 . S
C660 C658 1.356 . S
C660 C661 1.348 . S
C661 C656 1.353 . S
C661 C660 1.348 . S
C661 H713 0.929 . S
H662 C656 0.930 . S
H663 C659 0.930 . S
C664 N665 1.314 . S
C664 C666 1.353 . S
C664 H670 0.930 . S
N665 Li641 1.990 . S
N665 C664 1.314 . S
N665 C668 1.279 . S
C666 C664 1.353 . S
C666 C669 1.348 . S
C666 H714 0.929 . S
C667 C668 1.358 . S
C667 C669 1.356 . S
C667 H715 0.930 . S
C668 N665 1.279 . S
C668 C667 1.358 . S
C668 H671 0.930 . S
C669 C666 1.348 . S
C669 C667 1.356 . S
H670 C664 0.930 . S
H671 C668 0.930 . S
C672 C674 1.348 . S
C672 C675 1.356 . S
C672 O702 1.325 . S
N673 C676 1.314 . S
N673 C677 1.279 . S
C674 C672 1.348 . S
C674 C676 1.353 . S
C674 H716 0.929 . S
C675 C672 1.356 . S
C675 C677 1.358 . S
C675 H717 0.930 . S
C676 N673 1.314 . S
C676 C674 1.353 . S
C676 H718 0.930 . S
C677 N673 1.279 . S
C677 C675 1.358 . S
C677 H719 0.930 . S
C678 C679 1.348 . S
C678 C680 1.356 . S
C678 O703 1.325 . S
C679 C678 1.348 . S
C679 C681 1.353 . S
C679 H720 0.929 . S
C680 C678 1.356 . S
C680 C682 1.358 . S
C680 H721 0.930 . S
C681 C679 1.353 . S
C681 N683 1.314 . S
C681 H722 0.930 . S
C682 C680 1.358 . S
C682 N683 1.279 . S
C682 H723 0.930 . S
N683 C681 1.314 . S
N683 C682 1.279 . S
C684 C686 1.353 . S
C684 N687 1.314 . S
C684 H690 0.930 . S
C685 N687 1.279 . S
C685 C688 1.358 . S
C685 H691 0.930 . S
C686 C684 1.353 . S
C686 C689 1.348 . S
C686 H724 0.929 . S
N687 Li642 1.990 . S
N687 C684 1.314 . S
N687 C685 1.279 . S
C688 C685 1.358 . S
C688 C689 1.356 . S
C688 H725 0.930 . S
C689 C686 1.348 . S
C689 C688 1.356 . S
H690 C684 0.930 . S
H691 C685 0.930 . S
C692 N693 1.314 . S
C692 C694 1.353 . S
C692 H698 0.930 . S
N693 Li643 1.990 . S
N693 C692 1.314 . S
N693 C696 1.279 . S
C694 C692 1.353 . S
C694 C697 1.348 . S
C694 H726 0.929 . S
C695 C696 1.358 . S
C695 C697 1.356 . S
C695 H727 0.930 . S
C696 N693 1.279 . S
C696 C695 1.358 . S
C696 H699 0.930 . S
C697 C694 1.348 . S
C697 C695 1.356 . S
H698 C692 0.930 . S
H699 C696 0.930 . S
O700 Li640 1.956 . S
O700 Li641 1.970 . S
O700 Li642 1.961 . S
O700 C644 1.325 . S
O701 Li640 1.970 . S
O701 Li641 1.956 . S
O701 Li643 1.961 . S
O701 C650 1.325 . S
O702 Li640 1.961 . S
O702 Li642 1.956 . S
O702 Li643 1.970 . S
O702 C672 1.325 . S
O703 Li641 1.961 . S
O703 Li642 1.970 . S
O703 Li643 1.956 . S
O703 C678 1.325 . S
H704 C646 0.929 . S
H705 C647 0.930 . S
H706 C648 0.930 . S
H707 C649 0.930 . S
H708 C651 0.930 . S
H709 C653 0.929 . S
H710 C654 0.930 . S
H711 C655 0.930 . S
H712 C658 0.930 . S
H713 C661 0.929 . S
H714 C666 0.929 . S
H715 C667 0.930 . S
H716 C674 0.929 . S
H717 C675 0.930 . S
H718 C676 0.930 . S
H719 C677 0.930 . S
H720 C679 0.929 . S
H721 C680 0.930 . S
H722 C681 0.930 . S
H723 C682 0.930 . S
H724 C686 0.929 . S
H725 C688 0.930 . S
H726 C694 0.929 . S
H727 C695 0.930 . S
Li728 N745 1.990 . S
Li728 O788 1.956 . S
Li728 O789 1.970 . S
Li728 O790 1.961 . S
Li729 N753 1.990 . S
Li729 O788 1.970 . S
Li729 O789 1.956 . S
Li729 O791 1.961 . S
Li730 N775 1.990 . S
Li730 O788 1.961 . S
Li730 O790 1.956 . S
Li730 O791 1.970 . S
Li731 N781 1.990 . S
Li731 O789 1.961 . S
Li731 O790 1.970 . S
Li731 O791 1.956 . S
C732 C734 1.348 . S
C732 C735 1.356 . S
C732 O788 1.325 . S
N733 C736 1.314 . S
N733 C737 1.279 . S
C734 C732 1.348 . S
C734 C736 1.353 . S
C734 H792 0.929 . S
C735 C732 1.356 . S
C735 C737 1.358 . S
C735 H793 0.930 . S
C736 N733 1.314 . S
C736 C734 1.353 . S
C736 H794 0.930 . S
C737 N733 1.279 . S
C737 C735 1.358 . S
C737 H795 0.930 . S
C738 C741 1.348 . S
C738 C742 1.356 . S
C738 O789 1.325 . S
C739 N740 1.279 . S
C739 C742 1.358 . S
C739 H796 0.930 . S
N740 C739 1.279 . S
N740 C743 1.314 . S
C741 C738 1.348 . S
C741 C743 1.353 . S
C741 H797 0.929 . S
C742 C738 1.356 . S
C742 C739 1.358 . S
C742 H798 0.930 . S
C743 N740 1.314 . S
C743 C741 1.353 . S
C743 H799 0.930 . S
C744 N745 1.314 . S
C744 C749 1.353 . S
C744 H750 0.930 . S
N745 Li728 1.990 . S
N745 C744 1.314 . S
N745 C747 1.279 . S
C746 C747 1.358 . S
C746 C748 1.356 . S
C746 H800 0.930 . S
C747 N745 1.279 . S
C747 C746 1.358 . S
C747 H751 0.930 . S
C748 C746 1.356 . S
C748 C749 1.348 . S
C749 C744 1.353 . S
C749 C748 1.348 . S
C749 H801 0.929 . S
H750 C744 0.930 . S
H751 C747 0.930 . S
C752 N753 1.314 . S
C752 C754 1.353 . S
C752 H758 0.930 . S
N753 Li729 1.990 . S
N753 C752 1.314 . S
N753 C756 1.279 . S
C754 C752 1.353 . S
C754 C757 1.348 . S
C754 H802 0.929 . S
C755 C756 1.358 . S
C755 C757 1.356 . S
C755 H803 0.930 . S
C756 N753 1.279 . S
C756 C755 1.358 . S
C756 H759 0.930 . S
C757 C754 1.348 . S
C757 C755 1.356 . S
H758 C752 0.930 . S
H759 C756 0.930 . S
C760 C762 1.348 . S
C760 C763 1.356 . S
C760 O790 1.325 . S
N761 C764 1.314 . S
N761 C765 1.279 . S
C762 C760 1.348 . S
C762 C764 1.353 . S
C762 H804 0.929 . S
C763 C760 1.356 . S
C763 C765 1.358 . S
C763 H805 0.930 . S
C764 N761 1.314 . S
C764 C762 1.353 . S
C764 H806 0.930 . S
C765 N761 1.279 . S
C765 C763 1.358 . S
C765 H807 0.930 . S
C766 C767 1.348 . S
C766 C768 1.356 . S
C766 O791 1.325 . S
C767 C766 1.348 . S
C767 C769 1.353 . S
C767 H808 0.929 . S
C768 C766 1.356 . S
C768 C770 1.358 . S
C768 H809 0.930 . S
C769 C767 1.353 . S
C769 N771 1.314 . S
C769 H810 0.930 . S
C770 C768 1.358 . S
C770 N771 1.279 . S
C770 H811 0.930 . S
N771 C769 1.314 . S
N771 C770 1.279 . S
C772 C774 1.353 . S
C772 N775 1.314 . S
C772 H778 0.930 . S
C773 N775 1.279 . S
C773 C776 1.358 . S
C773 H779 0.930 . S
C774 C772 1.353 . S
C774 C777 1.348 . S
C774 H812 0.929 . S
N775 Li730 1.990 . S
N775 C772 1.314 . S
N775 C773 1.279 . S
C776 C773 1.358 . S
C776 C777 1.356 . S
C776 H813 0.930 . S
C777 C774 1.348 . S
C777 C776 1.356 . S
H778 C772 0.930 . S
H779 C773 0.930 . S
C780 N781 1.314 . S
C780 C782 1.353 . S
C780 H786 0.930 . S
N781 Li731 1.990 . S
N781 C780 1.314 . S
N781 C784 1.279 . S
C782 C780 1.353 . S
C782 C785 1.348 . S
C782 H814 0.929 . S
C783 C784 1.358 . S
C783 C785 1.356 . S
C783 H815 0.930 . S
C784 N781 1.279 . S
C784 C783 1.358 . S
C784 H787 0.930 . S
C785 C782 1.348 . S
C785 C783 1.356 . S
H786 C780 0.930 . S
H787 C784 0.930 . S
O788 Li728 1.956 . S
O788 Li729 1.970 . S
O788 Li730 1.961 . S
O788 C732 1.325 . S
O789 Li728 1.970 . S
O789 Li729 1.956 . S
O789 Li731 1.961 . S
O789 C738 1.325 . S
O790 Li728 1.961 . S
O790 Li730 1.956 . S
O790 Li731 1.970 . S
O790 C760 1.325 . S
O791 Li729 1.961 . S
O791 Li730 1.970 . S
O791 Li731 1.956 . S
O791 C766 1.325 . S
H792 C734 0.929 . S
H793 C735 0.930 . S
H794 C736 0.930 . S
H795 C737 0.930 . S
H796 C739 0.930 . S
H797 C741 0.929 . S
H798 C742 0.930 . S
H799 C743 0.930 . S
H800 C746 0.930 . S
H801 C749 0.929 . S
H802 C754 0.929 . S
H803 C755 0.930 . S
H804 C762 0.929 . S
H805 C763 0.930 . S
H806 C764 0.930 . S
H807 C765 0.930 . S
H808 C767 0.929 . S
H809 C768 0.930 . S
H810 C769 0.930 . S
H811 C770 0.930 . S
H812 C774 0.929 . S
H813 C776 0.930 . S
H814 C782 0.929 . S
H815 C783 0.930 . S
H816 C824 0.929 . S
H817 C826 0.930 . S
H818 C828 0.930 . S
H819 C831 0.929 . S
H820 C834 0.930 . S
H821 C836 0.960 . S
H822 C836 0.960 . S
H823 C836 0.960 . S
C824 H816 0.929 . S
C824 C825 1.377 . S
C824 C826 1.384 . S
C825 C824 1.377 . S
C825 C831 1.390 . S
C826 H817 0.930 . S
C826 C824 1.384 . S
C826 C827 1.372 . S
C827 C826 1.372 . S
C827 C828 1.400 . S
C827 C832 1.490 . S
C828 H818 0.930 . S
C828 C827 1.400 . S
C828 C831 1.386 . S
H829 C845 0.930 . S
H830 C846 0.931 . S
C831 H819 0.929 . S
C831 C825 1.390 . S
C831 C828 1.386 . S
C832 C827 1.490 . S
C832 C834 1.395 . S
C832 C835 1.403 . S
H833 C839 0.930 . S
C834 H820 0.930 . S
C834 C832 1.395 . S
C834 C837 1.403 . S
C835 C832 1.403 . S
C835 C836 1.524 . S
C835 C839 1.400 . S
C836 H821 0.960 . S
C836 H822 0.960 . S
C836 H823 0.960 . S
C836 C835 1.524 . S
C837 C834 1.403 . S
C837 C838 1.392 . S
C837 C841 1.495 . S
C838 C837 1.392 . S
C838 C839 1.385 . S
C838 C840 1.478 . S
C839 H833 0.930 . S
C839 C835 1.400 . S
C839 C838 1.385 . S
C840 C838 1.478 . S
C840 C842 1.381 . S
C840 C846 1.383 . S
C841 C837 1.495 . S
C841 H847 0.959 . S
C841 H848 0.961 . S
C841 H849 0.960 . S
C842 C840 1.381 . S
C842 C843 1.394 . S
C842 H850 0.930 . S
C843 C842 1.394 . S
C843 C844 1.383 . S
C843 H851 0.929 . S
C844 C843 1.383 . S
C844 C845 1.377 . S
C845 H829 0.930 . S
C845 C844 1.377 . S
C845 C846 1.379 . S
C846 H830 0.931 . S
C846 C840 1.383 . S
C846 C845 1.379 . S
H847 C841 0.959 . S
H848 C841 0.961 . S
H849 C841 0.960 . S
H850 C842 0.930 . S
H851 C843 0.929 . S
H852 C860 0.929 . S
H853 C862 0.930 . S
H854 C864 0.930 . S
H855 C867 0.929 . S
H856 C870 0.930 . S
H857 C872 0.960 . S
H858 C872 0.960 . S
H859 C872 0.960 . S
C860 H852 0.929 . S
C860 C861 1.377 . S
C860 C862 1.384 . S
C861 C860 1.377 . S
C861 C867 1.390 . S
C862 H853 0.930 . S
C862 C860 1.384 . S
C862 C863 1.372 . S
C863 C862 1.372 . S
C863 C864 1.400 . S
C863 C868 1.490 . S
C864 H854 0.930 . S
C864 C863 1.400 . S
C864 C867 1.386 . S
H865 C881 0.930 . S
H866 C882 0.931 . S
C867 H855 0.929 . S
C867 C861 1.390 . S
C867 C864 1.386 . S
C868 C863 1.490 . S
C868 C870 1.395 . S
C868 C871 1.403 . S
H869 C875 0.930 . S
C870 H856 0.930 . S
C870 C868 1.395 . S
C870 C873 1.403 . S
C871 C868 1.403 . S
C871 C872 1.524 . S
C871 C875 1.400 . S
C872 H857 0.960 . S
C872 H858 0.960 . S
C872 H859 0.960 . S
C872 C871 1.524 . S
C873 C870 1.403 . S
C873 C874 1.392 . S
C873 C877 1.495 . S
C874 C873 1.392 . S
C874 C875 1.385 . S
C874 C876 1.478 . S
C875 H869 0.930 . S
C875 C871 1.400 . S
C875 C874 1.385 . S
C876 C874 1.478 . S
C876 C878 1.381 . S
C876 C882 1.383 . S
C877 C873 1.495 . S
C877 H883 0.959 . S
C877 H884 0.961 . S
C877 H885 0.960 . S
C878 C876 1.381 . S
C878 C879 1.394 . S
C878 H886 0.930 . S
C879 C878 1.394 . S
C879 C880 1.383 . S
C879 H887 0.929 . S
C880 C879 1.383 . S
C880 C881 1.377 . S
C881 H865 0.930 . S
C881 C880 1.377 . S
C881 C882 1.379 . S
C882 H866 0.931 . S
C882 C876 1.383 . S
C882 C881 1.379 . S
H883 C877 0.959 . S
H884 C877 0.961 . S
H885 C877 0.960 . S
H886 C878 0.930 . S
H887 C879 0.929 . S
H888 C896 0.929 . S
H889 C898 0.930 . S
H890 C900 0.930 . S
H891 C903 0.929 . S
H892 C906 0.930 . S
H893 C908 0.960 . S
H894 C908 0.960 . S
H895 C908 0.960 . S
C896 H888 0.929 . S
C896 C897 1.377 . S
C896 C898 1.384 . S
C897 C896 1.377 . S
C897 C903 1.390 . S
C898 H889 0.930 . S
C898 C896 1.384 . S
C898 C899 1.372 . S
C899 C898 1.372 . S
C899 C900 1.400 . S
C899 C904 1.490 . S
C900 H890 0.930 . S
C900 C899 1.400 . S
C900 C903 1.386 . S
H901 C917 0.930 . S
H902 C918 0.931 . S
C903 H891 0.929 . S
C903 C897 1.390 . S
C903 C900 1.386 . S
C904 C899 1.490 . S
C904 C906 1.395 . S
C904 C907 1.403 . S
H905 C911 0.930 . S
C906 H892 0.930 . S
C906 C904 1.395 . S
C906 C909 1.403 . S
C907 C904 1.403 . S
C907 C908 1.524 . S
C907 C911 1.400 . S
C908 H893 0.960 . S
C908 H894 0.960 . S
C908 H895 0.960 . S
C908 C907 1.524 . S
C909 C906 1.403 . S
C909 C910 1.392 . S
C909 C913 1.495 . S
C910 C909 1.392 . S
C910 C911 1.385 . S
C910 C912 1.478 . S
C911 H905 0.930 . S
C911 C907 1.400 . S
C911 C910 1.385 . S
C912 C910 1.478 . S
C912 C914 1.381 . S
C912 C918 1.383 . S
C913 C909 1.495 . S
C913 H919 0.959 . S
C913 H920 0.961 . S
C913 H921 0.960 . S
C914 C912 1.381 . S
C914 C915 1.394 . S
C914 H922 0.930 . S
C915 C914 1.394 . S
C915 C916 1.383 . S
C915 H923 0.929 . S
C916 C915 1.383 . S
C916 C917 1.377 . S
C917 H901 0.930 . S
C917 C916 1.377 . S
C917 C918 1.379 . S
C918 H902 0.931 . S
C918 C912 1.383 . S
C918 C917 1.379 . S
H919 C913 0.959 . S
H920 C913 0.961 . S
H921 C913 0.960 . S
H922 C914 0.930 . S
H923 C915 0.929 . S
H924 C932 0.929 . S
H925 C934 0.930 . S
H926 C936 0.930 . S
H927 C939 0.929 . S
H928 C942 0.930 . S
H929 C944 0.960 . S
H930 C944 0.960 . S
H931 C944 0.960 . S
C932 H924 0.929 . S
C932 C933 1.377 . S
C932 C934 1.384 . S
C933 C932 1.377 . S
C933 C939 1.390 . S
C934 H925 0.930 . S
C934 C932 1.384 . S
C934 C935 1.372 . S
C935 C934 1.372 . S
C935 C936 1.400 . S
C935 C940 1.490 . S
C936 H926 0.930 . S
C936 C935 1.400 . S
C936 C939 1.386 . S
H937 C953 0.930 . S
H938 C954 0.931 . S
C939 H927 0.929 . S
C939 C933 1.390 . S
C939 C936 1.386 . S
C940 C935 1.490 . S
C940 C942 1.395 . S
C940 C943 1.403 . S
H941 C947 0.930 . S
C942 H928 0.930 . S
C942 C940 1.395 . S
C942 C945 1.403 . S
C943 C940 1.403 . S
C943 C944 1.524 . S
C943 C947 1.400 . S
C944 H929 0.960 . S
C944 H930 0.960 . S
C944 H931 0.960 . S
C944 C943 1.524 . S
C945 C942 1.403 . S
C945 C946 1.392 . S
C945 C949 1.495 . S
C946 C945 1.392 . S
C946 C947 1.385 . S
C946 C948 1.478 . S
C947 H941 0.930 . S
C947 C943 1.400 . S
C947 C946 1.385 . S
C948 C946 1.478 . S
C948 C950 1.381 . S
C948 C954 1.383 . S
C949 C945 1.495 . S
C949 H955 0.959 . S
C949 H956 0.961 . S
C949 H957 0.960 . S
C950 C948 1.381 . S
C950 C951 1.394 . S
C950 H958 0.930 . S
C951 C950 1.394 . S
C951 C952 1.383 . S
C951 H959 0.929 . S
C952 C951 1.383 . S
C952 C953 1.377 . S
C953 H937 0.930 . S
C953 C952 1.377 . S
C953 C954 1.379 . S
C954 H938 0.931 . S
C954 C948 1.383 . S
C954 C953 1.379 . S
H955 C949 0.959 . S
H956 C949 0.961 . S
H957 C949 0.960 . S
H958 C950 0.930 . S
H959 C951 0.929 . S
H960 C968 0.929 . S
H961 C970 0.930 . S
H962 C972 0.930 . S
H963 C975 0.929 . S
H964 C978 0.930 . S
H965 C980 0.960 . S
H966 C980 0.960 . S
H967 C980 0.960 . S
C968 H960 0.929 . S
C968 C969 1.377 . S
C968 C970 1.384 . S
C969 C968 1.377 . S
C969 C975 1.390 . S
C970 H961 0.930 . S
C970 C968 1.384 . S
C970 C971 1.372 . S
C971 C970 1.372 . S
C971 C972 1.400 . S
C971 C976 1.490 . S
C972 H962 0.930 . S
C972 C971 1.400 . S
C972 C975 1.386 . S
H973 C989 0.930 . S
H974 C990 0.931 . S
C975 H963 0.929 . S
C975 C969 1.390 . S
C975 C972 1.386 . S
C976 C971 1.490 . S
C976 C978 1.395 . S
C976 C979 1.403 . S
H977 C983 0.930 . S
C978 H964 0.930 . S
C978 C976 1.395 . S
C978 C981 1.403 . S
C979 C976 1.403 . S
C979 C980 1.524 . S
C979 C983 1.400 . S
C980 H965 0.960 . S
C980 H966 0.960 . S
C980 H967 0.960 . S
C980 C979 1.524 . S
C981 C978 1.403 . S
C981 C982 1.392 . S
C981 C985 1.495 . S
C982 C981 1.392 . S
C982 C983 1.385 . S
C982 C984 1.478 . S
C983 H977 0.930 . S
C983 C979 1.400 . S
C983 C982 1.385 . S
C984 C982 1.478 . S
C984 C986 1.381 . S
C984 C990 1.383 . S
C985 C981 1.495 . S
C985 H991 0.959 . S
C985 H992 0.961 . S
C985 H993 0.960 . S
C986 C984 1.381 . S
C986 C987 1.394 . S
C986 H994 0.930 . S
C987 C986 1.394 . S
C987 C988 1.383 . S
C987 H995 0.929 . S
C988 C987 1.383 . S
C988 C989 1.377 . S
C989 H973 0.930 . S
C989 C988 1.377 . S
C989 C990 1.379 . S
C990 H974 0.931 . S
C990 C984 1.383 . S
C990 C989 1.379 . S
H991 C985 0.959 . S
H992 C985 0.961 . S
H993 C985 0.960 . S
H994 C986 0.930 . S
H995 C987 0.929 . S
H996 C1004 0.929 . S
H997 C1006 0.930 . S
H998 C1008 0.930 . S
H999 C1011 0.929 . S
H1000 C1014 0.930 . S
H1001 C1016 0.960 . S
H1002 C1016 0.960 . S
H1003 C1016 0.960 . S
C1004 H996 0.929 . S
C1004 C1005 1.377 . S
C1004 C1006 1.384 . S
C1005 C1004 1.377 . S
C1005 C1011 1.390 . S
C1006 H997 0.930 . S
C1006 C1004 1.384 . S
C1006 C1007 1.372 . S
C1007 C1006 1.372 . S
C1007 C1008 1.400 . S
C1007 C1012 1.490 . S
C1008 H998 0.930 . S
C1008 C1007 1.400 . S
C1008 C1011 1.386 . S
H1009 C1025 0.930 . S
H1010 C1026 0.931 . S
C1011 H999 0.929 . S
C1011 C1005 1.390 . S
C1011 C1008 1.386 . S
C1012 C1007 1.490 . S
C1012 C1014 1.395 . S
C1012 C1015 1.403 . S
H1013 C1019 0.930 . S
C1014 H1000 0.930 . S
C1014 C1012 1.395 . S
C1014 C1017 1.403 . S
C1015 C1012 1.403 . S
C1015 C1016 1.524 . S
C1015 C1019 1.400 . S
C1016 H1001 0.960 . S
C1016 H1002 0.960 . S
C1016 H1003 0.960 . S
C1016 C1015 1.524 . S
C1017 C1014 1.403 . S
C1017 C1018 1.392 . S
C1017 C1021 1.495 . S
C1018 C1017 1.392 . S
C1018 C1019 1.385 . S
C1018 C1020 1.478 . S
C1019 H1013 0.930 . S
C1019 C1015 1.400 . S
C1019 C1018 1.385 . S
C1020 C1018 1.478 . S
C1020 C1022 1.381 . S
C1020 C1026 1.383 . S
C1021 C1017 1.495 . S
C1021 H1027 0.959 . S
C1021 H1028 0.961 . S
C1021 H1029 0.960 . S
C1022 C1020 1.381 . S
C1022 C1023 1.394 . S
C1022 H1030 0.930 . S
C1023 C1022 1.394 . S
C1023 C1024 1.383 . S
C1023 H1031 0.929 . S
C1024 C1023 1.383 . S
C1024 C1025 1.377 . S
C1025 H1009 0.930 . S
C1025 C1024 1.377 . S
C1025 C1026 1.379 . S
C1026 H1010 0.931 . S
C1026 C1020 1.383 . S
C1026 C1025 1.379 . S
H1027 C1021 0.959 . S
H1028 C1021 0.961 . S
H1029 C1021 0.960 . S
H1030 C1022 0.930 . S
H1031 C1023 0.929 . S
H1032 C1040 0.929 . S
H1033 C1042 0.930 . S
H1034 C1044 0.930 . S
H1035 C1047 0.929 . S
H1036 C1050 0.930 . S
H1037 C1052 0.960 . S
H1038 C1052 0.960 . S
H1039 C1052 0.960 . S
C1040 H1032 0.929 . S
C1040 C1041 1.377 . S
C1040 C1042 1.384 . S
C1041 C1040 1.377 . S
C1041 C1047 1.390 . S
C1042 H1033 0.930 . S
C1042 C1040 1.384 . S
C1042 C1043 1.372 . S
C1043 C1042 1.372 . S
C1043 C1044 1.400 . S
C1043 C1048 1.490 . S
C1044 H1034 0.930 . S
C1044 C1043 1.400 . S
C1044 C1047 1.386 . S
H1045 C1061 0.930 . S
H1046 C1062 0.931 . S
C1047 H1035 0.929 . S
C1047 C1041 1.390 . S
C1047 C1044 1.386 . S
C1048 C1043 1.490 . S
C1048 C1050 1.395 . S
C1048 C1051 1.403 . S
H1049 C1055 0.930 . S
C1050 H1036 0.930 . S
C1050 C1048 1.395 . S
C1050 C1053 1.403 . S
C1051 C1048 1.403 . S
C1051 C1052 1.524 . S
C1051 C1055 1.400 . S
C1052 H1037 0.960 . S
C1052 H1038 0.960 . S
C1052 H1039 0.960 . S
C1052 C1051 1.524 . S
C1053 C1050 1.403 . S
C1053 C1054 1.392 . S
C1053 C1057 1.495 . S
C1054 C1053 1.392 . S
C1054 C1055 1.385 . S
C1054 C1056 1.478 . S
C1055 H1049 0.930 . S
C1055 C1051 1.400 . S
C1055 C1054 1.385 . S
C1056 C1054 1.478 . S
C1056 C1058 1.381 . S
C1056 C1062 1.383 . S
C1057 C1053 1.495 . S
C1057 H1063 0.959 . S
C1057 H1064 0.961 . S
C1057 H1065 0.960 . S
C1058 C1056 1.381 . S
C1058 C1059 1.394 . S
C1058 H1066 0.930 . S
C1059 C1058 1.394 . S
C1059 C1060 1.383 . S
C1059 H1067 0.929 . S
C1060 C1059 1.383 . S
C1060 C1061 1.377 . S
C1061 H1045 0.930 . S
C1061 C1060 1.377 . S
C1061 C1062 1.379 . S
C1062 H1046 0.931 . S
C1062 C1056 1.383 . S
C1062 C1061 1.379 . S
H1063 C1057 0.959 . S
H1064 C1057 0.961 . S
H1065 C1057 0.960 . S
H1066 C1058 0.930 . S
H1067 C1059 0.929 . S
H1068 C1076 0.929 . S
H1069 C1078 0.930 . S
H1070 C1080 0.930 . S
H1071 C1083 0.929 . S
H1072 C1086 0.930 . S
H1073 C1088 0.960 . S
H1074 C1088 0.960 . S
H1075 C1088 0.960 . S
C1076 H1068 0.929 . S
C1076 C1077 1.377 . S
C1076 C1078 1.384 . S
C1077 C1076 1.377 . S
C1077 C1083 1.390 . S
C1078 H1069 0.930 . S
C1078 C1076 1.384 . S
C1078 C1079 1.372 . S
C1079 C1078 1.372 . S
C1079 C1080 1.400 . S
C1079 C1084 1.490 . S
C1080 H1070 0.930 . S
C1080 C1079 1.400 . S
C1080 C1083 1.386 . S
H1081 C1097 0.930 . S
H1082 C1098 0.931 . S
C1083 H1071 0.929 . S
C1083 C1077 1.390 . S
C1083 C1080 1.386 . S
C1084 C1079 1.490 . S
C1084 C1086 1.395 . S
C1084 C1087 1.403 . S
H1085 C1091 0.930 . S
C1086 H1072 0.930 . S
C1086 C1084 1.395 . S
C1086 C1089 1.403 . S
C1087 C1084 1.403 . S
C1087 C1088 1.524 . S
C1087 C1091 1.400 . S
C1088 H1073 0.960 . S
C1088 H1074 0.960 . S
C1088 H1075 0.960 . S
C1088 C1087 1.524 . S
C1089 C1086 1.403 . S
C1089 C1090 1.392 . S
C1089 C1093 1.495 . S
C1090 C1089 1.392 . S
C1090 C1091 1.385 . S
C1090 C1092 1.478 . S
C1091 H1085 0.930 . S
C1091 C1087 1.400 . S
C1091 C1090 1.385 . S
C1092 C1090 1.478 . S
C1092 C1094 1.381 . S
C1092 C1098 1.383 . S
C1093 C1089 1.495 . S
C1093 H1099 0.959 . S
C1093 H1100 0.961 . S
C1093 H1101 0.960 . S
C1094 C1092 1.381 . S
C1094 C1095 1.394 . S
C1094 H1102 0.930 . S
C1095 C1094 1.394 . S
C1095 C1096 1.383 . S
C1095 H1103 0.929 . S
C1096 C1095 1.383 . S
C1096 C1097 1.377 . S
C1097 H1081 0.930 . S
C1097 C1096 1.377 . S
C1097 C1098 1.379 . S
C1098 H1082 0.931 . S
C1098 C1092 1.383 . S
C1098 C1097 1.379 . S
H1099 C1093 0.959 . S
H1100 C1093 0.961 . S
H1101 C1093 0.960 . S
H1102 C1094 0.930 . S
H1103 C1095 0.929 . S
H1104 C1112 0.929 . S
H1105 C1114 0.930 . S
H1106 C1116 0.930 . S
H1107 C1119 0.929 . S
H1108 C1122 0.930 . S
H1109 C1124 0.960 . S
H1110 C1124 0.960 . S
H1111 C1124 0.960 . S
C1112 H1104 0.929 . S
C1112 C1113 1.377 . S
C1112 C1114 1.384 . S
C1113 C1112 1.377 . S
C1113 C1119 1.390 . S
C1114 H1105 0.930 . S
C1114 C1112 1.384 . S
C1114 C1115 1.372 . S
C1115 C1114 1.372 . S
C1115 C1116 1.400 . S
C1115 C1120 1.490 . S
C1116 H1106 0.930 . S
C1116 C1115 1.400 . S
C1116 C1119 1.386 . S
H1117 C1133 0.930 . S
H1118 C1134 0.931 . S
C1119 H1107 0.929 . S
C1119 C1113 1.390 . S
C1119 C1116 1.386 . S
C1120 C1115 1.490 . S
C1120 C1122 1.395 . S
C1120 C1123 1.403 . S
H1121 C1127 0.930 . S
C1122 H1108 0.930 . S
C1122 C1120 1.395 . S
C1122 C1125 1.403 . S
C1123 C1120 1.403 . S
C1123 C1124 1.524 . S
C1123 C1127 1.400 . S
C1124 H1109 0.960 . S
C1124 H1110 0.960 . S
C1124 H1111 0.960 . S
C1124 C1123 1.524 . S
C1125 C1122 1.403 . S
C1125 C1126 1.392 . S
C1125 C1129 1.495 . S
C1126 C1125 1.392 . S
C1126 C1127 1.385 . S
C1126 C1128 1.478 . S
C1127 H1121 0.930 . S
C1127 C1123 1.400 . S
C1127 C1126 1.385 . S
C1128 C1126 1.478 . S
C1128 C1130 1.381 . S
C1128 C1134 1.383 . S
C1129 C1125 1.495 . S
C1129 H1135 0.959 . S
C1129 H1136 0.961 . S
C1129 H1137 0.960 . S
C1130 C1128 1.381 . S
C1130 C1131 1.394 . S
C1130 H1138 0.930 . S
C1131 C1130 1.394 . S
C1131 C1132 1.383 . S
C1131 H1139 0.929 . S
C1132 C1131 1.383 . S
C1132 C1133 1.377 . S
C1133 H1117 0.930 . S
C1133 C1132 1.377 . S
C1133 C1134 1.379 . S
C1134 H1118 0.931 . S
C1134 C1128 1.383 . S
C1134 C1133 1.379 . S
H1135 C1129 0.959 . S
H1136 C1129 0.961 . S
H1137 C1129 0.960 . S
H1138 C1130 0.930 . S
H1139 C1131 0.929 . S
H1140 C1148 0.929 . S
H1141 C1150 0.930 . S
H1142 C1152 0.930 . S
H1143 C1155 0.988 . S
H1144 C1158 0.930 . S
H1145 C1160 0.960 . S
H1146 C1160 0.960 . S
H1147 C1160 0.960 . S
C1148 H1140 0.929 . S
C1148 C1149 1.377 . S
C1148 C1150 1.384 . S
C1149 C1148 1.377 . S
C1149 C1155 1.390 . S
C1150 H1141 0.930 . S
C1150 C1148 1.384 . S
C1150 C1151 1.372 . S
C1151 C1150 1.372 . S
C1151 C1152 1.400 . S
C1151 C1156 1.490 . S
C1152 H1142 0.930 . S
C1152 C1151 1.400 . S
C1152 C1155 1.386 . S
H1153 C1169 0.930 . S
H1154 C1170 0.931 . S
C1155 H1143 0.988 . S
C1155 C1149 1.390 . S
C1155 C1152 1.386 . S
C1156 C1151 1.490 . S
C1156 C1158 1.395 . S
C1156 C1159 1.403 . S
H1157 C1163 0.930 . S
C1158 H1144 0.930 . S
C1158 C1156 1.395 . S
C1158 C1161 1.403 . S
C1159 C1156 1.403 . S
C1159 C1160 1.524 . S
C1159 C1163 1.400 . S
C1160 H1145 0.960 . S
C1160 H1146 0.960 . S
C1160 H1147 0.960 . S
C1160 C1159 1.524 . S
C1161 C1158 1.403 . S
C1161 C1162 1.392 . S
C1161 C1165 1.495 . S
C1162 C1161 1.392 . S
C1162 C1163 1.385 . S
C1162 C1164 1.478 . S
C1163 H1157 0.930 . S
C1163 C1159 1.400 . S
C1163 C1162 1.385 . S
C1164 C1162 1.478 . S
C1164 C1166 1.381 . S
C1164 C1170 1.383 . S
C1165 C1161 1.495 . S
C1165 H1171 0.959 . S
C1165 H1172 0.961 . S
C1165 H1173 0.960 . S
C1166 C1164 1.381 . S
C1166 C1167 1.394 . S
C1166 H1174 0.930 . S
C1167 C1166 1.394 . S
C1167 C1168 1.383 . S
C1167 H1175 0.929 . S
C1168 C1167 1.383 . S
C1168 C1169 1.377 . S
C1169 H1153 0.930 . S
C1169 C1168 1.377 . S
C1169 C1170 1.379 . S
C1170 H1154 0.931 . S
C1170 C1164 1.383 . S
C1170 C1169 1.379 . S
H1171 C1165 0.959 . S
H1172 C1165 0.961 . S
H1173 C1165 0.960 . S
H1174 C1166 0.930 . S
H1175 C1167 0.929 . S
H1176 C1184 0.929 . S
H1177 C1186 0.930 . S
H1178 C1188 0.930 . S
H1179 C1191 0.929 . S
H1180 C1194 0.930 . S
H1181 C1196 0.960 . S
H1182 C1196 0.960 . S
H1183 C1196 0.960 . S
C1184 H1176 0.929 . S
C1184 C1185 1.377 . S
C1184 C1186 1.384 . S
C1185 C1184 1.377 . S
C1185 C1191 1.390 . S
C1186 H1177 0.930 . S
C1186 C1184 1.384 . S
C1186 C1187 1.372 . S
C1187 C1186 1.372 . S
C1187 C1188 1.400 . S
C1187 C1192 1.490 . S
C1188 H1178 0.930 . S
C1188 C1187 1.400 . S
C1188 C1191 1.386 . S
H1189 C1205 0.930 . S
H1190 C1206 0.931 . S
C1191 H1179 0.929 . S
C1191 C1185 1.390 . S
C1191 C1188 1.386 . S
C1192 C1187 1.490 . S
C1192 C1194 1.395 . S
C1192 C1195 1.403 . S
H1193 C1199 0.930 . S
C1194 H1180 0.930 . S
C1194 C1192 1.395 . S
C1194 C1197 1.403 . S
C1195 C1192 1.403 . S
C1195 C1196 1.524 . S
C1195 C1199 1.400 . S
C1196 H1181 0.960 . S
C1196 H1182 0.960 . S
C1196 H1183 0.960 . S
C1196 C1195 1.524 . S
C1197 C1194 1.403 . S
C1197 C1198 1.392 . S
C1197 C1201 1.495 . S
C1198 C1197 1.392 . S
C1198 C1199 1.385 . S
C1198 C1200 1.478 . S
C1199 H1193 0.930 . S
C1199 C1195 1.400 . S
C1199 C1198 1.385 . S
C1200 C1198 1.478 . S
C1200 C1202 1.381 . S
C1200 C1206 1.383 . S
C1201 C1197 1.495 . S
C1201 H1207 0.959 . S
C1201 H1208 0.961 . S
C1201 H1209 0.960 . S
C1202 C1200 1.381 . S
C1202 C1203 1.394 . S
C1202 H1210 0.930 . S
C1203 C1202 1.394 . S
C1203 C1204 1.383 . S
C1203 H1211 0.929 . S
C1204 C1203 1.383 . S
C1204 C1205 1.377 . S
C1205 H1189 0.930 . S
C1205 C1204 1.377 . S
C1205 C1206 1.379 . S
C1206 H1190 0.931 . S
C1206 C1200 1.383 . S
C1206 C1205 1.379 . S
H1207 C1201 0.959 . S
H1208 C1201 0.961 . S
H1209 C1201 0.960 . S
H1210 C1202 0.930 . S
H1211 C1203 0.929 . S
H1212 C1220 0.929 . S
H1213 C1222 0.930 . S
H1214 C1224 0.930 . S
H1215 C1227 0.929 . S
H1216 C1230 0.930 . S
H1217 C1232 0.960 . S
H1218 C1232 0.960 . S
H1219 C1232 0.960 . S
C1220 H1212 0.929 . S
C1220 C1221 1.377 . S
C1220 C1222 1.384 . S
C1221 C1220 1.377 . S
C1221 C1227 1.390 . S
C1222 H1213 0.930 . S
C1222 C1220 1.384 . S
C1222 C1223 1.372 . S
C1223 C1222 1.372 . S
C1223 C1224 1.400 . S
C1223 C1228 1.490 . S
C1224 H1214 0.930 . S
C1224 C1223 1.400 . S
C1224 C1227 1.386 . S
H1225 C1241 0.930 . S
H1226 C1242 0.931 . S
C1227 H1215 0.929 . S
C1227 C1221 1.390 . S
C1227 C1224 1.386 . S
C1228 C1223 1.490 . S
C1228 C1230 1.395 . S
C1228 C1231 1.403 . S
H1229 C1235 0.930 . S
C1230 H1216 0.930 . S
C1230 C1228 1.395 . S
C1230 C1233 1.403 . S
C1231 C1228 1.403 . S
C1231 C1232 1.524 . S
C1231 C1235 1.400 . S
C1232 H1217 0.960 . S
C1232 H1218 0.960 . S
C1232 H1219 0.960 . S
C1232 C1231 1.524 . S
C1233 C1230 1.403 . S
C1233 C1234 1.392 . S
C1233 C1237 1.495 . S
C1234 C1233 1.392 . S
C1234 C1235 1.385 . S
C1234 C1236 1.478 . S
C1235 H1229 0.930 . S
C1235 C1231 1.400 . S
C1235 C1234 1.385 . S
C1236 C1234 1.478 . S
C1236 C1238 1.381 . S
C1236 C1242 1.383 . S
C1237 C1233 1.495 . S
C1237 H1243 0.959 . S
C1237 H1244 0.961 . S
C1237 H1245 0.960 . S
C1238 C1236 1.381 . S
C1238 C1239 1.394 . S
C1238 H1246 0.930 . S
C1239 C1238 1.394 . S
C1239 C1240 1.383 . S
C1239 H1247 0.929 . S
C1240 C1239 1.383 . S
C1240 C1241 1.377 . S
C1241 H1225 0.930 . S
C1241 C1240 1.377 . S
C1241 C1242 1.379 . S
C1242 H1226 0.931 . S
C1242 C1236 1.383 . S
C1242 C1241 1.379 . S
H1243 C1237 0.959 . S
H1244 C1237 0.961 . S
H1245 C1237 0.960 . S
H1246 C1238 0.930 . S
H1247 C1239 0.929 . S
H1248 C1256 0.929 . S
H1249 C1258 0.930 . S
H1250 C1260 0.930 . S
H1251 C1263 0.929 . S
H1252 C1266 0.930 . S
H1253 C1268 0.960 . S
H1254 C1268 0.960 . S
H1255 C1268 0.960 . S
C1256 H1248 0.929 . S
C1256 C1257 1.377 . S
C1256 C1258 1.384 . S
C1257 C1256 1.377 . S
C1257 C1263 1.390 . S
C1258 H1249 0.930 . S
C1258 C1256 1.384 . S
C1258 C1259 1.372 . S
C1259 C1258 1.372 . S
C1259 C1260 1.400 . S
C1259 C1264 1.490 . S
C1260 H1250 0.930 . S
C1260 C1259 1.400 . S
C1260 C1263 1.386 . S
H1261 C1277 0.930 . S
H1262 C1278 0.931 . S
C1263 H1251 0.929 . S
C1263 C1257 1.390 . S
C1263 C1260 1.386 . S
C1264 C1259 1.490 . S
C1264 C1266 1.395 . S
C1264 C1267 1.403 . S
H1265 C1271 0.930 . S
C1266 H1252 0.930 . S
C1266 C1264 1.395 . S
C1266 C1269 1.403 . S
C1267 C1264 1.403 . S
C1267 C1268 1.524 . S
C1267 C1271 1.400 . S
C1268 H1253 0.960 . S
C1268 H1254 0.960 . S
C1268 H1255 0.960 . S
C1268 C1267 1.524 . S
C1269 C1266 1.403 . S
C1269 C1270 1.392 . S
C1269 C1273 1.495 . S
C1270 C1269 1.392 . S
C1270 C1271 1.385 . S
C1270 C1272 1.478 . S
C1271 H1265 0.930 . S
C1271 C1267 1.400 . S
C1271 C1270 1.385 . S
C1272 C1270 1.478 . S
C1272 C1274 1.381 . S
C1272 C1278 1.383 . S
C1273 C1269 1.495 . S
C1273 H1279 0.959 . S
C1273 H1280 0.961 . S
C1273 H1281 0.960 . S
C1274 C1272 1.381 . S
C1274 C1275 1.394 . S
C1274 H1282 0.930 . S
C1275 C1274 1.394 . S
C1275 C1276 1.383 . S
C1275 H1283 0.929 . S
C1276 C1275 1.383 . S
C1276 C1277 1.377 . S
C1277 H1261 0.930 . S
C1277 C1276 1.377 . S
C1277 C1278 1.379 . S
C1278 H1262 0.931 . S
C1278 C1272 1.383 . S
C1278 C1277 1.379 . S
H1279 C1273 0.959 . S
H1280 C1273 0.961 . S
H1281 C1273 0.960 . S
H1282 C1274 0.930 . S
H1283 C1275 0.929 . S
H1284 C1292 0.929 . S
H1285 C1294 0.930 . S
H1286 C1296 0.930 . S
H1287 C1299 0.929 . S
H1288 C1302 0.930 . S
H1289 C1304 0.960 . S
H1290 C1304 0.960 . S
H1291 C1304 0.960 . S
C1292 H1284 0.929 . S
C1292 C1293 1.377 . S
C1292 C1294 1.384 . S
C1293 C1292 1.377 . S
C1293 C1299 1.390 . S
C1294 H1285 0.930 . S
C1294 C1292 1.384 . S
C1294 C1295 1.372 . S
C1295 C1294 1.372 . S
C1295 C1296 1.400 . S
C1295 C1300 1.490 . S
C1296 H1286 0.930 . S
C1296 C1295 1.400 . S
C1296 C1299 1.386 . S
H1297 C1313 0.930 . S
H1298 C1314 0.931 . S
C1299 H1287 0.929 . S
C1299 C1293 1.390 . S
C1299 C1296 1.386 . S
C1300 C1295 1.490 . S
C1300 C1302 1.395 . S
C1300 C1303 1.403 . S
H1301 C1307 0.930 . S
C1302 H1288 0.930 . S
C1302 C1300 1.395 . S
C1302 C1305 1.403 . S
C1303 C1300 1.403 . S
C1303 C1304 1.524 . S
C1303 C1307 1.400 . S
C1304 H1289 0.960 . S
C1304 H1290 0.960 . S
C1304 H1291 0.960 . S
C1304 C1303 1.524 . S
C1305 C1302 1.403 . S
C1305 C1306 1.392 . S
C1305 C1309 1.495 . S
C1306 C1305 1.392 . S
C1306 C1307 1.385 . S
C1306 C1308 1.478 . S
C1307 H1301 0.930 . S
C1307 C1303 1.400 . S
C1307 C1306 1.385 . S
C1308 C1306 1.478 . S
C1308 C1310 1.381 . S
C1308 C1314 1.383 . S
C1309 C1305 1.495 . S
C1309 H1315 0.959 . S
C1309 H1316 0.961 . S
C1309 H1317 0.960 . S
C1310 C1308 1.381 . S
C1310 C1311 1.394 . S
C1310 H1318 0.930 . S
C1311 C1310 1.394 . S
C1311 C1312 1.383 . S
C1311 H1319 0.929 . S
C1312 C1311 1.383 . S
C1312 C1313 1.377 . S
C1313 H1297 0.930 . S
C1313 C1312 1.377 . S
C1313 C1314 1.379 . S
C1314 H1298 0.931 . S
C1314 C1308 1.383 . S
C1314 C1313 1.379 . S
H1315 C1309 0.959 . S
H1316 C1309 0.961 . S
H1317 C1309 0.960 . S
H1318 C1310 0.930 . S
H1319 C1311 0.929 . S
H1320 C1328 0.929 . S
H1321 C1330 0.930 . S
H1322 C1332 0.930 . S
H1323 C1335 0.929 . S
H1324 C1338 0.930 . S
H1325 C1340 0.960 . S
H1326 C1340 0.960 . S
H1327 C1340 0.960 . S
C1328 H1320 0.929 . S
C1328 C1329 1.377 . S
C1328 C1330 1.384 . S
C1329 C1328 1.377 . S
C1329 C1335 1.390 . S
C1330 H1321 0.930 . S
C1330 C1328 1.384 . S
C1330 C1331 1.372 . S
C1331 C1330 1.372 . S
C1331 C1332 1.400 . S
C1331 C1336 1.490 . S
C1332 H1322 0.930 . S
C1332 C1331 1.400 . S
C1332 C1335 1.386 . S
H1333 C1349 0.930 . S
H1334 C1350 0.931 . S
C1335 H1323 0.929 . S
C1335 C1329 1.390 . S
C1335 C1332 1.386 . S
C1336 C1331 1.490 . S
C1336 C1338 1.395 . S
C1336 C1339 1.403 . S
H1337 C1343 0.930 . S
C1338 H1324 0.930 . S
C1338 C1336 1.395 . S
C1338 C1341 1.403 . S
C1339 C1336 1.403 . S
C1339 C1340 1.524 . S
C1339 C1343 1.400 . S
C1340 H1325 0.960 . S
C1340 H1326 0.960 . S
C1340 H1327 0.960 . S
C1340 C1339 1.524 . S
C1341 C1338 1.403 . S
C1341 C1342 1.392 . S
C1341 C1345 1.495 . S
C1342 C1341 1.392 . S
C1342 C1343 1.385 . S
C1342 C1344 1.478 . S
C1343 H1337 0.930 . S
C1343 C1339 1.400 . S
C1343 C1342 1.385 . S
C1344 C1342 1.478 . S
C1344 C1346 1.381 . S
C1344 C1350 1.383 . S
C1345 C1341 1.495 . S
C1345 H1351 0.959 . S
C1345 H1352 0.961 . S
C1345 H1353 0.960 . S
C1346 C1344 1.381 . S
C1346 C1347 1.394 . S
C1346 H1354 0.930 . S
C1347 C1346 1.394 . S
C1347 C1348 1.383 . S
C1347 H1355 0.929 . S
C1348 C1347 1.383 . S
C1348 C1349 1.377 . S
C1349 H1333 0.930 . S
C1349 C1348 1.377 . S
C1349 C1350 1.379 . S
C1350 H1334 0.931 . S
C1350 C1344 1.383 . S
C1350 C1349 1.379 . S
H1351 C1345 0.959 . S
H1352 C1345 0.961 . S
H1353 C1345 0.960 . S
H1354 C1346 0.930 . S
H1355 C1347 0.929 . S
H1356 C1364 0.929 . S
H1357 C1366 0.930 . S
H1358 C1368 0.930 . S
H1359 C1371 0.929 . S
H1360 C1374 0.930 . S
H1361 C1376 0.960 . S
H1362 C1376 0.960 . S
H1363 C1376 0.960 . S
C1364 H1356 0.929 . S
C1364 C1365 1.377 . S
C1364 C1366 1.384 . S
C1365 C1364 1.377 . S
C1365 C1371 1.390 . S
C1366 H1357 0.930 . S
C1366 C1364 1.384 . S
C1366 C1367 1.372 . S
C1367 C1366 1.372 . S
C1367 C1368 1.400 . S
C1367 C1372 1.490 . S
C1368 H1358 0.930 . S
C1368 C1367 1.400 . S
C1368 C1371 1.386 . S
H1369 C1385 0.928 1_554 S
H1370 C1386 0.931 . S
C1371 H1359 0.929 . S
C1371 C1365 1.390 . S
C1371 C1368 1.386 . S
C1372 C1367 1.490 . S
C1372 C1374 1.395 . S
C1372 C1375 1.403 . S
H1373 C1379 0.930 . S
C1374 H1360 0.930 . S
C1374 C1372 1.395 . S
C1374 C1377 1.403 . S
C1375 C1372 1.403 . S
C1375 C1376 1.524 . S
C1375 C1379 1.400 . S
C1376 H1361 0.960 . S
C1376 H1362 0.960 . S
C1376 H1363 0.960 . S
C1376 C1375 1.524 . S
C1377 C1374 1.403 . S
C1377 C1378 1.392 . S
C1377 C1381 1.495 . S
C1378 C1377 1.392 . S
C1378 C1379 1.385 . S
C1378 C1380 1.478 . S
C1379 H1373 0.930 . S
C1379 C1375 1.400 . S
C1379 C1378 1.385 . S
C1380 C1378 1.478 . S
C1380 C1382 1.381 . S
C1380 C1386 1.383 . S
C1381 C1377 1.495 . S
C1381 H1387 0.959 . S
C1381 H1388 0.961 . S
C1381 H1389 0.960 . S
C1382 C1380 1.381 . S
C1382 C1383 1.394 . S
C1382 H1390 0.930 . S
C1383 C1382 1.394 . S
C1383 C1384 1.383 1_556 S
C1383 H1391 0.929 . S
C1384 C1383 1.383 1_554 S
C1384 C1385 1.376 1_554 S
C1385 H1369 0.928 1_556 S
C1385 C1384 1.376 1_556 S
C1385 C1386 1.382 . S
C1386 H1370 0.931 . S
C1386 C1380 1.383 . S
C1386 C1385 1.382 . S
H1387 C1381 0.959 . S
H1388 C1381 0.961 . S
H1389 C1381 0.960 . S
H1390 C1382 0.930 . S
H1391 C1383 0.929 . S
H1392 C1400 0.929 . S
H1393 C1402 0.930 . S
H1394 C1404 0.930 . S
H1395 C1407 0.929 . S
H1396 C1410 0.930 . S
H1397 C1412 0.960 . S
H1398 C1412 0.960 . S
H1399 C1412 0.960 . S
C1400 H1392 0.929 . S
C1400 C1401 1.377 . S
C1400 C1402 1.384 . S
C1401 C1400 1.377 . S
C1401 C1407 1.390 . S
C1402 H1393 0.930 . S
C1402 C1400 1.384 . S
C1402 C1403 1.372 . S
C1403 C1402 1.372 . S
C1403 C1404 1.400 . S
C1403 C1408 1.490 . S
C1404 H1394 0.930 . S
C1404 C1403 1.400 . S
C1404 C1407 1.386 . S
H1405 C1421 0.930 . S
H1406 C1422 0.931 . S
C1407 H1395 0.929 . S
C1407 C1401 1.390 . S
C1407 C1404 1.386 . S
C1408 C1403 1.490 . S
C1408 C1410 1.395 . S
C1408 C1411 1.403 . S
H1409 C1415 0.930 . S
C1410 H1396 0.930 . S
C1410 C1408 1.395 . S
C1410 C1413 1.403 . S
C1411 C1408 1.403 . S
C1411 C1412 1.524 . S
C1411 C1415 1.400 . S
C1412 H1397 0.960 . S
C1412 H1398 0.960 . S
C1412 H1399 0.960 . S
C1412 C1411 1.524 . S
C1413 C1410 1.403 . S
C1413 C1414 1.392 . S
C1413 C1417 1.495 . S
C1414 C1413 1.392 . S
C1414 C1415 1.385 . S
C1414 C1416 1.478 . S
C1415 H1409 0.930 . S
C1415 C1411 1.400 . S
C1415 C1414 1.385 . S
C1416 C1414 1.478 . S
C1416 C1418 1.381 . S
C1416 C1422 1.383 . S
C1417 C1413 1.495 . S
C1417 H1423 0.959 . S
C1417 H1424 0.961 . S
C1417 H1425 0.960 . S
C1418 C1416 1.381 . S
C1418 C1419 1.394 . S
C1418 H1426 0.930 . S
C1419 C1418 1.394 . S
C1419 C1420 1.383 . S
C1419 H1427 0.929 . S
C1420 C1419 1.383 . S
C1420 C1421 1.377 . S
C1421 H1405 0.930 . S
C1421 C1420 1.377 . S
C1421 C1422 1.379 . S
C1422 H1406 0.931 . S
C1422 C1416 1.383 . S
C1422 C1421 1.379 . S
H1423 C1417 0.959 . S
H1424 C1417 0.961 . S
H1425 C1417 0.960 . S
H1426 C1418 0.930 . S
H1427 C1419 0.929 . S
H1428 C1436 0.929 . S
H1429 C1438 0.930 . S
H1430 C1440 0.930 . S
H1431 C1443 0.929 . S
H1432 C1446 0.930 . S
H1433 C1448 0.960 . S
H1434 C1448 0.960 . S
H1435 C1448 0.960 . S
C1436 H1428 0.929 . S
C1436 C1437 1.377 . S
C1436 C1438 1.384 . S
C1437 C1436 1.377 . S
C1437 C1443 1.390 . S
C1438 H1429 0.930 . S
C1438 C1436 1.384 . S
C1438 C1439 1.372 . S
C1439 C1438 1.372 . S
C1439 C1440 1.400 . S
C1439 C1444 1.490 . S
C1440 H1430 0.930 . S
C1440 C1439 1.400 . S
C1440 C1443 1.386 . S
H1441 C1457 0.930 . S
H1442 C1458 0.931 . S
C1443 H1431 0.929 . S
C1443 C1437 1.390 . S
C1443 C1440 1.386 . S
C1444 C1439 1.490 . S
C1444 C1446 1.395 . S
C1444 C1447 1.403 . S
H1445 C1451 0.930 . S
C1446 H1432 0.930 . S
C1446 C1444 1.395 . S
C1446 C1449 1.403 . S
C1447 C1444 1.403 . S
C1447 C1448 1.524 . S
C1447 C1451 1.400 . S
C1448 H1433 0.960 . S
C1448 H1434 0.960 . S
C1448 H1435 0.960 . S
C1448 C1447 1.524 . S
C1449 C1446 1.403 . S
C1449 C1450 1.392 . S
C1449 C1453 1.495 . S
C1450 C1449 1.392 . S
C1450 C1451 1.385 . S
C1450 C1452 1.478 . S
C1451 H1445 0.930 . S
C1451 C1447 1.400 . S
C1451 C1450 1.385 . S
C1452 C1450 1.478 . S
C1452 C1454 1.381 . S
C1452 C1458 1.383 . S
C1453 C1449 1.495 . S
C1453 H1459 0.959 . S
C1453 H1460 0.961 . S
C1453 H1461 0.960 . S
C1454 C1452 1.381 . S
C1454 C1455 1.394 . S
C1454 H1462 0.930 . S
C1455 C1454 1.394 . S
C1455 C1456 1.383 . S
C1455 H1463 0.929 . S
C1456 C1455 1.383 . S
C1456 C1457 1.377 . S
C1457 H1441 0.930 . S
C1457 C1456 1.377 . S
C1457 C1458 1.379 . S
C1458 H1442 0.931 . S
C1458 C1452 1.383 . S
C1458 C1457 1.379 . S
H1459 C1453 0.959 . S
H1460 C1453 0.961 . S
H1461 C1453 0.960 . S
H1462 C1454 0.930 . S
H1463 C1455 0.929 . S
H1464 C1472 0.929 . S
H1465 C1474 0.930 . S
H1466 C1476 0.930 . S
H1467 C1479 0.929 . S
H1468 C1482 0.930 . S
H1469 C1484 0.960 . S
H1470 C1484 0.960 . S
H1471 C1484 0.960 . S
C1472 H1464 0.929 . S
C1472 C1473 1.377 . S
C1472 C1474 1.384 . S
C1473 C1472 1.377 . S
C1473 C1479 1.390 . S
C1474 H1465 0.930 . S
C1474 C1472 1.384 . S
C1474 C1475 1.372 . S
C1475 C1474 1.372 . S
C1475 C1476 1.400 . S
C1475 C1480 1.490 . S
C1476 H1466 0.930 . S
C1476 C1475 1.400 . S
C1476 C1479 1.386 . S
H1477 C1493 0.930 . S
H1478 C1494 0.931 . S
C1479 H1467 0.929 . S
C1479 C1473 1.390 . S
C1479 C1476 1.386 . S
C1480 C1475 1.490 . S
C1480 C1482 1.395 . S
C1480 C1483 1.403 . S
H1481 C1487 0.930 . S
C1482 H1468 0.930 . S
C1482 C1480 1.395 . S
C1482 C1485 1.403 . S
C1483 C1480 1.403 . S
C1483 C1484 1.524 . S
C1483 C1487 1.400 . S
C1484 H1469 0.960 . S
C1484 H1470 0.960 . S
C1484 H1471 0.960 . S
C1484 C1483 1.524 . S
C1485 C1482 1.403 . S
C1485 C1486 1.392 . S
C1485 C1489 1.495 . S
C1486 C1485 1.392 . S
C1486 C1487 1.385 . S
C1486 C1488 1.478 . S
C1487 H1481 0.930 . S
C1487 C1483 1.400 . S
C1487 C1486 1.385 . S
C1488 C1486 1.478 . S
C1488 C1490 1.381 . S
C1488 C1494 1.383 . S
C1489 C1485 1.495 . S
C1489 H1495 0.959 . S
C1489 H1496 0.961 . S
C1489 H1497 0.960 . S
C1490 C1488 1.381 . S
C1490 C1491 1.394 . S
C1490 H1498 0.930 . S
C1491 C1490 1.394 . S
C1491 C1492 1.383 . S
C1491 H1499 0.929 . S
C1492 C1491 1.383 . S
C1492 C1493 1.377 . S
C1493 H1477 0.930 . S
C1493 C1492 1.377 . S
C1493 C1494 1.379 . S
C1494 H1478 0.931 . S
C1494 C1488 1.383 . S
C1494 C1493 1.379 . S
H1495 C1489 0.959 . S
H1496 C1489 0.961 . S
H1497 C1489 0.960 . S
H1498 C1490 0.930 . S
H1499 C1491 0.929 . S
H1500 C1508 0.929 . S
H1501 C1510 0.930 . S
H1502 C1512 0.930 . S
H1503 C1515 0.929 . S
H1504 C1518 0.930 . S
H1505 C1520 0.960 . S
H1506 C1520 0.960 . S
H1507 C1520 0.960 . S
C1508 H1500 0.929 . S
C1508 C1509 1.377 . S
C1508 C1510 1.384 . S
C1509 C1508 1.377 . S
C1509 C1515 1.390 . S
C1510 H1501 0.930 . S
C1510 C1508 1.384 . S
C1510 C1511 1.372 . S
C1511 C1510 1.372 . S
C1511 C1512 1.400 . S
C1511 C1516 1.490 . S
C1512 H1502 0.930 . S
C1512 C1511 1.400 . S
C1512 C1515 1.386 . S
H1513 C1529 0.930 . S
H1514 C1530 0.931 . S
C1515 H1503 0.929 . S
C1515 C1509 1.390 . S
C1515 C1512 1.386 . S
C1516 C1511 1.490 . S
C1516 C1518 1.395 . S
C1516 C1519 1.403 . S
H1517 C1523 0.930 . S
C1518 H1504 0.930 . S
C1518 C1516 1.395 . S
C1518 C1521 1.403 . S
C1519 C1516 1.403 . S
C1519 C1520 1.524 . S
C1519 C1523 1.400 . S
C1520 H1505 0.960 . S
C1520 H1506 0.960 . S
C1520 H1507 0.960 . S
C1520 C1519 1.524 . S
C1521 C1518 1.403 . S
C1521 C1522 1.392 . S
C1521 C1525 1.495 . S
C1522 C1521 1.392 . S
C1522 C1523 1.385 . S
C1522 C1524 1.478 . S
C1523 H1517 0.930 . S
C1523 C1519 1.400 . S
C1523 C1522 1.385 . S
C1524 C1522 1.478 . S
C1524 C1526 1.381 . S
C1524 C1530 1.383 . S
C1525 C1521 1.495 . S
C1525 H1531 0.959 . S
C1525 H1532 0.961 . S
C1525 H1533 0.960 . S
C1526 C1524 1.381 . S
C1526 C1527 1.394 . S
C1526 H1534 0.930 . S
C1527 C1526 1.394 . S
C1527 C1528 1.383 . S
C1527 H1535 0.929 . S
C1528 C1527 1.383 . S
C1528 C1529 1.377 . S
C1529 H1513 0.930 . S
C1529 C1528 1.377 . S
C1529 C1530 1.379 . S
C1530 H1514 0.931 . S
C1530 C1524 1.383 . S
C1530 C1529 1.379 . S
H1531 C1525 0.959 . S
H1532 C1525 0.961 . S
H1533 C1525 0.960 . S
H1534 C1526 0.930 . S
H1535 C1527 0.929 . S
H1536 C1544 0.929 . S
H1537 C1546 0.930 . S
H1538 C1548 0.930 . S
H1539 C1551 0.929 . S
H1540 C1554 0.930 . S
H1541 C1556 0.960 . S
H1542 C1556 0.960 . S
H1543 C1556 0.960 . S
C1544 H1536 0.929 . S
C1544 C1545 1.377 . S
C1544 C1546 1.384 . S
C1545 C1544 1.377 . S
C1545 C1551 1.390 . S
C1546 H1537 0.930 . S
C1546 C1544 1.384 . S
C1546 C1547 1.372 . S
C1547 C1546 1.372 . S
C1547 C1548 1.400 . S
C1547 C1552 1.490 . S
C1548 H1538 0.930 . S
C1548 C1547 1.400 . S
C1548 C1551 1.386 . S
H1549 C1565 0.930 . S
H1550 C1566 0.931 . S
C1551 H1539 0.929 . S
C1551 C1545 1.390 . S
C1551 C1548 1.386 . S
C1552 C1547 1.490 . S
C1552 C1554 1.395 . S
C1552 C1555 1.403 . S
H1553 C1559 0.930 . S
C1554 H1540 0.930 . S
C1554 C1552 1.395 . S
C1554 C1557 1.403 . S
C1555 C1552 1.403 . S
C1555 C1556 1.524 . S
C1555 C1559 1.400 . S
C1556 H1541 0.960 . S
C1556 H1542 0.960 . S
C1556 H1543 0.960 . S
C1556 C1555 1.524 . S
C1557 C1554 1.403 . S
C1557 C1558 1.392 . S
C1557 C1561 1.495 . S
C1558 C1557 1.392 . S
C1558 C1559 1.385 . S
C1558 C1560 1.478 . S
C1559 H1553 0.930 . S
C1559 C1555 1.400 . S
C1559 C1558 1.385 . S
C1560 C1558 1.478 . S
C1560 C1562 1.381 . S
C1560 C1566 1.383 . S
C1561 C1557 1.495 . S
C1561 H1567 0.959 . S
C1561 H1568 0.961 . S
C1561 H1569 0.960 . S
C1562 C1560 1.381 . S
C1562 C1563 1.394 . S
C1562 H1570 0.930 . S
C1563 C1562 1.394 . S
C1563 C1564 1.383 . S
C1563 H1571 0.929 . S
C1564 C1563 1.383 . S
C1564 C1565 1.377 . S
C1565 H1549 0.930 . S
C1565 C1564 1.377 . S
C1565 C1566 1.379 . S
C1566 H1550 0.931 . S
C1566 C1560 1.383 . S
C1566 C1565 1.379 . S
H1567 C1561 0.959 . S
H1568 C1561 0.961 . S
H1569 C1561 0.960 . S
H1570 C1562 0.930 . S
H1571 C1563 0.929 . S
H1572 C1580 0.929 . S
H1573 C1582 0.930 . S
H1574 C1584 0.930 . S
H1575 C1587 0.929 . S
H1576 C1590 0.930 . S
H1577 C1592 0.960 . S
H1578 C1592 0.960 . S
H1579 C1592 0.960 . S
C1580 H1572 0.929 . S
C1580 C1581 1.377 . S
C1580 C1582 1.384 . S
C1581 C1580 1.377 . S
C1581 C1587 1.390 . S
C1582 H1573 0.930 . S
C1582 C1580 1.384 . S
C1582 C1583 1.372 . S
C1583 C1582 1.372 . S
C1583 C1584 1.400 . S
C1583 C1588 1.490 . S
C1584 H1574 0.930 . S
C1584 C1583 1.400 . S
C1584 C1587 1.386 . S
H1585 C1601 0.930 . S
H1586 C1602 0.931 . S
C1587 H1575 0.929 . S
C1587 C1581 1.390 . S
C1587 C1584 1.386 . S
C1588 C1583 1.490 . S
C1588 C1590 1.395 . S
C1588 C1591 1.403 . S
H1589 C1595 0.930 . S
C1590 H1576 0.930 . S
C1590 C1588 1.395 . S
C1590 C1593 1.403 . S
C1591 C1588 1.403 . S
C1591 C1592 1.524 . S
C1591 C1595 1.400 . S
C1592 H1577 0.960 . S
C1592 H1578 0.960 . S
C1592 H1579 0.960 . S
C1592 C1591 1.524 . S
C1593 C1590 1.403 . S
C1593 C1594 1.392 . S
C1593 C1597 1.495 . S
C1594 C1593 1.392 . S
C1594 C1595 1.385 . S
C1594 C1596 1.478 . S
C1595 H1589 0.930 . S
C1595 C1591 1.400 . S
C1595 C1594 1.385 . S
C1596 C1594 1.478 . S
C1596 C1598 1.381 . S
C1596 C1602 1.383 . S
C1597 C1593 1.495 . S
C1597 H1603 0.959 . S
C1597 H1604 0.961 . S
C1597 H1605 0.960 . S
C1598 C1596 1.381 . S
C1598 C1599 1.394 . S
C1598 H1606 0.930 . S
C1599 C1598 1.394 . S
C1599 C1600 1.383 . S
C1599 H1607 0.929 . S
C1600 C1599 1.383 . S
C1600 C1601 1.377 . S
C1601 H1585 0.930 . S
C1601 C1600 1.377 . S
C1601 C1602 1.379 . S
C1602 H1586 0.931 . S
C1602 C1596 1.383 . S
C1602 C1601 1.379 . S
H1603 C1597 0.959 . S
H1604 C1597 0.961 . S
H1605 C1597 0.960 . S
H1606 C1598 0.930 . S
H1607 C1599 0.929 . S
H1608 C1616 0.929 . S
H1609 C1618 0.930 . S
H1610 C1620 0.930 . S
H1611 C1623 0.929 . S
H1612 C1626 0.930 . S
H1613 C1628 0.960 . S
H1614 C1628 0.960 . S
H1615 C1628 0.960 . S
C1616 H1608 0.929 . S
C1616 C1617 1.377 . S
C1616 C1618 1.384 . S
C1617 C1616 1.377 . S
C1617 C1623 1.390 . S
C1618 H1609 0.930 . S
C1618 C1616 1.384 . S
C1618 C1619 1.372 . S
C1619 C1618 1.372 . S
C1619 C1620 1.400 . S
C1619 C1624 1.490 . S
C1620 H1610 0.930 . S
C1620 C1619 1.400 . S
C1620 C1623 1.386 . S
H1621 C1637 0.937 . S
H1622 C1638 0.931 . S
C1623 H1611 0.929 . S
C1623 C1617 1.390 . S
C1623 C1620 1.386 . S
C1624 C1619 1.490 . S
C1624 C1626 1.395 . S
C1624 C1627 1.403 . S
H1625 C1631 0.930 . S
C1626 H1612 0.930 . S
C1626 C1624 1.395 . S
C1626 C1629 1.403 . S
C1627 C1624 1.403 . S
C1627 C1628 1.524 . S
C1627 C1631 1.400 . S
C1628 H1613 0.960 . S
C1628 H1614 0.960 . S
C1628 H1615 0.960 . S
C1628 C1627 1.524 . S
C1629 C1626 1.403 . S
C1629 C1630 1.392 . S
C1629 C1633 1.495 . S
C1630 C1629 1.392 . S
C1630 C1631 1.385 . S
C1630 C1632 1.478 . S
C1631 H1625 0.930 . S
C1631 C1627 1.400 . S
C1631 C1630 1.385 . S
C1632 C1630 1.478 . S
C1632 C1634 1.381 . S
C1632 C1638 1.383 . S
C1633 C1629 1.495 . S
C1633 H1639 0.959 . S
C1633 H1640 0.961 . S
C1633 H1641 0.960 . S
C1634 C1632 1.381 . S
C1634 C1635 1.394 1_554 S
C1634 H1642 0.930 . S
C1635 C1634 1.394 1_556 S
C1635 C1636 1.383 . S
C1635 H1643 0.929 . S
C1636 C1635 1.383 . S
C1636 C1637 1.377 1_556 S
C1637 H1621 0.937 . S
C1637 C1636 1.377 1_554 S
C1637 C1638 1.379 . S
C1638 H1622 0.931 . S
C1638 C1632 1.383 . S
C1638 C1637 1.379 . S
H1639 C1633 0.959 . S
H1640 C1633 0.961 . S
H1641 C1633 0.960 . S
H1642 C1634 0.930 . S
H1643 C1635 0.929 . S
H1644 C1652 0.929 . S
H1645 C1654 0.930 . S
H1646 C1656 0.930 . S
H1647 C1659 0.929 . S
H1648 C1662 0.930 . S
H1649 C1664 0.960 . S
H1650 C1664 0.960 . S
H1651 C1664 0.960 . S
C1652 H1644 0.929 . S
C1652 C1653 1.377 . S
C1652 C1654 1.384 . S
C1653 C1652 1.377 . S
C1653 C1659 1.390 . S
C1654 H1645 0.930 . S
C1654 C1652 1.384 . S
C1654 C1655 1.372 . S
C1655 C1654 1.372 . S
C1655 C1656 1.400 . S
C1655 C1660 1.490 . S
C1656 H1646 0.930 . S
C1656 C1655 1.400 . S
C1656 C1659 1.386 . S
H1657 C1673 0.930 . S
H1658 C1674 0.931 . S
C1659 H1647 0.929 . S
C1659 C1653 1.390 . S
C1659 C1656 1.386 . S
C1660 C1655 1.490 . S
C1660 C1662 1.395 . S
C1660 C1663 1.403 . S
H1661 C1667 0.930 . S
C1662 H1648 0.930 . S
C1662 C1660 1.395 . S
C1662 C1665 1.403 . S
C1663 C1660 1.403 . S
C1663 C1664 1.524 . S
C1663 C1667 1.400 . S
C1664 H1649 0.960 . S
C1664 H1650 0.960 . S
C1664 H1651 0.960 . S
C1664 C1663 1.524 . S
C1665 C1662 1.403 . S
C1665 C1666 1.392 . S
C1665 C1669 1.495 . S
C1666 C1665 1.392 . S
C1666 C1667 1.385 . S
C1666 C1668 1.478 . S
C1667 H1661 0.930 . S
C1667 C1663 1.400 . S
C1667 C1666 1.385 . S
C1668 C1666 1.478 . S
C1668 C1670 1.381 . S
C1668 C1674 1.383 . S
C1669 C1665 1.495 . S
C1669 H1675 0.959 . S
C1669 H1676 0.961 . S
C1669 H1677 0.960 . S
C1670 C1668 1.381 . S
C1670 C1671 1.394 . S
C1670 H1678 0.930 . S
C1671 C1670 1.394 . S
C1671 C1672 1.383 . S
C1671 H1679 0.929 . S
C1672 C1671 1.383 . S
C1672 C1673 1.377 . S
C1673 H1657 0.930 . S
C1673 C1672 1.377 . S
C1673 C1674 1.379 . S
C1674 H1658 0.931 . S
C1674 C1668 1.383 . S
C1674 C1673 1.379 . S
H1675 C1669 0.959 . S
H1676 C1669 0.961 . S
H1677 C1669 0.960 . S
H1678 C1670 0.930 . S
H1679 C1671 0.929 . S
C844 C757 1.610 . S
C825 C45 1.610 . S
C861 C84 1.597 . S
C880 C317 1.594 . S
C897 C126 1.559 . S
C916 C405 1.602 . S
C933 C189 1.609 . S
C952 C484 1.610 . S
C988 C581 1.589 . S
C969 C228 1.598 . S
C1005 C270 1.558 . S
C1024 C660 1.599 . S
C1041 C69 1.582 . S
C1060 C425 1.604 . S
C1077 C141 1.608 . S
C1096 C521 1.592 . S
C1113 C174 1.565 . S
C1132 C601 1.613 . S
C1168 C697 1.612 . S
C1149 C213 1.587 . S
C1204 C777 1.587 . S
C1185 C285 1.607 . S
C1240 C337 1.594 . S
C1221 C30 1.557 . S
C1257 C36 1.468 . S
C1276 C433 1.455 . S
C1293 C93 1.465 . S
C1312 C513 1.451 . S
C1348 C609 1.456 . S
C1329 C117 1.466 . S
C1365 C180 1.468 . S
C1384 C689 1.456 . S
C1420 C785 1.451 . S
C1401 C237 1.465 . S
C1456 C345 1.471 . S
C1437 C261 1.468 . S
C1492 C748 1.462 . S
C1473 C78 1.464 . S
C1509 C132 1.470 . S
C1528 C308 1.472 . S
C1564 C396 1.470 . S
C1545 C165 1.468 . S
C1581 C222 1.463 . S
C1600 C493 1.463 . S
C1617 C276 1.470 . S
C1636 C572 1.472 . S
C1653 C21 1.465 . S
C1672 C669 1.455 . S
